# Generated by pormake.
# Topology tes, (8)-cn, num edge types: 1
# Building blocks:
#     Node 0, Type 0, BuildingBlock: EBIMEJ_clean_sbu_0, # of connection points: 8
#     Node 1, Type 0, BuildingBlock: EBIMEJ_clean_sbu_0, # of connection points: 8
#     Node 2, Type 0, BuildingBlock: EBIMEJ_clean_sbu_0, # of connection points: 8
#     Node 3, Type 0, BuildingBlock: EBIMEJ_clean_sbu_0, # of connection points: 8
#     Node 4, Type 0, BuildingBlock: EBIMEJ_clean_sbu_0, # of connection points: 8
#     Node 5, Type 0, BuildingBlock: EBIMEJ_clean_sbu_0, # of connection points: 8
#     Node 6, Type 0, BuildingBlock: EBIMEJ_clean_sbu_0, # of connection points: 8
#     Node 7, Type 0, BuildingBlock: EBIMEJ_clean_sbu_0, # of connection points: 8
#     Node 8, Type 0, BuildingBlock: EBIMEJ_clean_sbu_0, # of connection points: 8
#     Node 9, Type 0, BuildingBlock: EBIMEJ_clean_sbu_0, # of connection points: 8
#     Node 10, Type 0, BuildingBlock: EBIMEJ_clean_sbu_0, # of connection points: 8
#     Node 11, Type 0, BuildingBlock: EBIMEJ_clean_sbu_0, # of connection points: 8
#     Node 12, Type 0, BuildingBlock: EBIMEJ_clean_sbu_0, # of connection points: 8
#     Node 13, Type 0, BuildingBlock: EBIMEJ_clean_sbu_0, # of connection points: 8
#     Node 14, Type 0, BuildingBlock: EBIMEJ_clean_sbu_0, # of connection points: 8
#     Node 15, Type 0, BuildingBlock: EBIMEJ_clean_sbu_0, # of connection points: 8
#     Node 16, Type 0, BuildingBlock: EBIMEJ_clean_sbu_0, # of connection points: 8
#     Node 17, Type 0, BuildingBlock: EBIMEJ_clean_sbu_0, # of connection points: 8
#     Node 18, Type 0, BuildingBlock: EBIMEJ_clean_sbu_0, # of connection points: 8
#     Node 19, Type 0, BuildingBlock: EBIMEJ_clean_sbu_0, # of connection points: 8
#     Node 20, Type 0, BuildingBlock: EBIMEJ_clean_sbu_0, # of connection points: 8
#     Node 21, Type 0, BuildingBlock: EBIMEJ_clean_sbu_0, # of connection points: 8
#     Node 22, Type 0, BuildingBlock: EBIMEJ_clean_sbu_0, # of connection points: 8
#     Node 23, Type 0, BuildingBlock: EBIMEJ_clean_sbu_0, # of connection points: 8
#     Edge 24, Type (0, 0), BuildingBlock: UVAHIK_clean_linker_0, # of connection points: 2
#     Edge 25, Type (0, 0), BuildingBlock: UVAHIK_clean_linker_0, # of connection points: 2
#     Edge 26, Type (0, 0), BuildingBlock: UVAHIK_clean_linker_0, # of connection points: 2
#     Edge 27, Type (0, 0), BuildingBlock: UVAHIK_clean_linker_0, # of connection points: 2
#     Edge 28, Type (0, 0), BuildingBlock: UVAHIK_clean_linker_0, # of connection points: 2
#     Edge 29, Type (0, 0), BuildingBlock: UVAHIK_clean_linker_0, # of connection points: 2
#     Edge 30, Type (0, 0), BuildingBlock: UVAHIK_clean_linker_0, # of connection points: 2
#     Edge 31, Type (0, 0), BuildingBlock: UVAHIK_clean_linker_0, # of connection points: 2
#     Edge 32, Type (0, 0), BuildingBlock: UVAHIK_clean_linker_0, # of connection points: 2
#     Edge 33, Type (0, 0), BuildingBlock: UVAHIK_clean_linker_0, # of connection points: 2
#     Edge 34, Type (0, 0), BuildingBlock: UVAHIK_clean_linker_0, # of connection points: 2
#     Edge 35, Type (0, 0), BuildingBlock: UVAHIK_clean_linker_0, # of connection points: 2
#     Edge 36, Type (0, 0), BuildingBlock: UVAHIK_clean_linker_0, # of connection points: 2
#     Edge 37, Type (0, 0), BuildingBlock: UVAHIK_clean_linker_0, # of connection points: 2
#     Edge 38, Type (0, 0), BuildingBlock: UVAHIK_clean_linker_0, # of connection points: 2
#     Edge 39, Type (0, 0), BuildingBlock: UVAHIK_clean_linker_0, # of connection points: 2
#     Edge 40, Type (0, 0), BuildingBlock: UVAHIK_clean_linker_0, # of connection points: 2
#     Edge 41, Type (0, 0), BuildingBlock: UVAHIK_clean_linker_0, # of connection points: 2
#     Edge 42, Type (0, 0), BuildingBlock: UVAHIK_clean_linker_0, # of connection points: 2
#     Edge 43, Type (0, 0), BuildingBlock: UVAHIK_clean_linker_0, # of connection points: 2
#     Edge 44, Type (0, 0), BuildingBlock: UVAHIK_clean_linker_0, # of connection points: 2
#     Edge 45, Type (0, 0), BuildingBlock: UVAHIK_clean_linker_0, # of connection points: 2
#     Edge 46, Type (0, 0), BuildingBlock: UVAHIK_clean_linker_0, # of connection points: 2
#     Edge 47, Type (0, 0), BuildingBlock: UVAHIK_clean_linker_0, # of connection points: 2
#     Edge 48, Type (0, 0), BuildingBlock: UVAHIK_clean_linker_0, # of connection points: 2
#     Edge 49, Type (0, 0), BuildingBlock: UVAHIK_clean_linker_0, # of connection points: 2
#     Edge 50, Type (0, 0), BuildingBlock: UVAHIK_clean_linker_0, # of connection points: 2
#     Edge 51, Type (0, 0), BuildingBlock: UVAHIK_clean_linker_0, # of connection points: 2
#     Edge 52, Type (0, 0), BuildingBlock: UVAHIK_clean_linker_0, # of connection points: 2
#     Edge 53, Type (0, 0), BuildingBlock: UVAHIK_clean_linker_0, # of connection points: 2
#     Edge 54, Type (0, 0), BuildingBlock: UVAHIK_clean_linker_0, # of connection points: 2
#     Edge 55, Type (0, 0), BuildingBlock: UVAHIK_clean_linker_0, # of connection points: 2
#     Edge 56, Type (0, 0), BuildingBlock: UVAHIK_clean_linker_0, # of connection points: 2
#     Edge 57, Type (0, 0), BuildingBlock: UVAHIK_clean_linker_0, # of connection points: 2
#     Edge 58, Type (0, 0), BuildingBlock: UVAHIK_clean_linker_0, # of connection points: 2
#     Edge 59, Type (0, 0), BuildingBlock: UVAHIK_clean_linker_0, # of connection points: 2
#     Edge 60, Type (0, 0), BuildingBlock: UVAHIK_clean_linker_0, # of connection points: 2
#     Edge 61, Type (0, 0), BuildingBlock: UVAHIK_clean_linker_0, # of connection points: 2
#     Edge 62, Type (0, 0), BuildingBlock: UVAHIK_clean_linker_0, # of connection points: 2
#     Edge 63, Type (0, 0), BuildingBlock: UVAHIK_clean_linker_0, # of connection points: 2
#     Edge 64, Type (0, 0), BuildingBlock: UVAHIK_clean_linker_0, # of connection points: 2
#     Edge 65, Type (0, 0), BuildingBlock: UVAHIK_clean_linker_0, # of connection points: 2
#     Edge 66, Type (0, 0), BuildingBlock: UVAHIK_clean_linker_0, # of connection points: 2
#     Edge 67, Type (0, 0), BuildingBlock: UVAHIK_clean_linker_0, # of connection points: 2
#     Edge 68, Type (0, 0), BuildingBlock: UVAHIK_clean_linker_0, # of connection points: 2
#     Edge 69, Type (0, 0), BuildingBlock: UVAHIK_clean_linker_0, # of connection points: 2
#     Edge 70, Type (0, 0), BuildingBlock: UVAHIK_clean_linker_0, # of connection points: 2
#     Edge 71, Type (0, 0), BuildingBlock: UVAHIK_clean_linker_0, # of connection points: 2
#     Edge 72, Type (0, 0), BuildingBlock: UVAHIK_clean_linker_0, # of connection points: 2
#     Edge 73, Type (0, 0), BuildingBlock: UVAHIK_clean_linker_0, # of connection points: 2
#     Edge 74, Type (0, 0), BuildingBlock: UVAHIK_clean_linker_0, # of connection points: 2
#     Edge 75, Type (0, 0), BuildingBlock: UVAHIK_clean_linker_0, # of connection points: 2
#     Edge 76, Type (0, 0), BuildingBlock: UVAHIK_clean_linker_0, # of connection points: 2
#     Edge 77, Type (0, 0), BuildingBlock: UVAHIK_clean_linker_0, # of connection points: 2
#     Edge 78, Type (0, 0), BuildingBlock: UVAHIK_clean_linker_0, # of connection points: 2
#     Edge 79, Type (0, 0), BuildingBlock: UVAHIK_clean_linker_0, # of connection points: 2
#     Edge 80, Type (0, 0), BuildingBlock: UVAHIK_clean_linker_0, # of connection points: 2
#     Edge 81, Type (0, 0), BuildingBlock: UVAHIK_clean_linker_0, # of connection points: 2
#     Edge 82, Type (0, 0), BuildingBlock: UVAHIK_clean_linker_0, # of connection points: 2
#     Edge 83, Type (0, 0), BuildingBlock: UVAHIK_clean_linker_0, # of connection points: 2
#     Edge 84, Type (0, 0), BuildingBlock: UVAHIK_clean_linker_0, # of connection points: 2
#     Edge 85, Type (0, 0), BuildingBlock: UVAHIK_clean_linker_0, # of connection points: 2
#     Edge 86, Type (0, 0), BuildingBlock: UVAHIK_clean_linker_0, # of connection points: 2
#     Edge 87, Type (0, 0), BuildingBlock: UVAHIK_clean_linker_0, # of connection points: 2
#     Edge 88, Type (0, 0), BuildingBlock: UVAHIK_clean_linker_0, # of connection points: 2
#     Edge 89, Type (0, 0), BuildingBlock: UVAHIK_clean_linker_0, # of connection points: 2
#     Edge 90, Type (0, 0), BuildingBlock: UVAHIK_clean_linker_0, # of connection points: 2
#     Edge 91, Type (0, 0), BuildingBlock: UVAHIK_clean_linker_0, # of connection points: 2
#     Edge 92, Type (0, 0), BuildingBlock: UVAHIK_clean_linker_0, # of connection points: 2
#     Edge 93, Type (0, 0), BuildingBlock: UVAHIK_clean_linker_0, # of connection points: 2
#     Edge 94, Type (0, 0), BuildingBlock: UVAHIK_clean_linker_0, # of connection points: 2
#     Edge 95, Type (0, 0), BuildingBlock: UVAHIK_clean_linker_0, # of connection points: 2
#     Edge 96, Type (0, 0), BuildingBlock: UVAHIK_clean_linker_0, # of connection points: 2
#     Edge 97, Type (0, 0), BuildingBlock: UVAHIK_clean_linker_0, # of connection points: 2
#     Edge 98, Type (0, 0), BuildingBlock: UVAHIK_clean_linker_0, # of connection points: 2
#     Edge 99, Type (0, 0), BuildingBlock: UVAHIK_clean_linker_0, # of connection points: 2
#     Edge 100, Type (0, 0), BuildingBlock: UVAHIK_clean_linker_0, # of connection points: 2
#     Edge 101, Type (0, 0), BuildingBlock: UVAHIK_clean_linker_0, # of connection points: 2
#     Edge 102, Type (0, 0), BuildingBlock: UVAHIK_clean_linker_0, # of connection points: 2
#     Edge 103, Type (0, 0), BuildingBlock: UVAHIK_clean_linker_0, # of connection points: 2
#     Edge 104, Type (0, 0), BuildingBlock: UVAHIK_clean_linker_0, # of connection points: 2
#     Edge 105, Type (0, 0), BuildingBlock: UVAHIK_clean_linker_0, # of connection points: 2
#     Edge 106, Type (0, 0), BuildingBlock: UVAHIK_clean_linker_0, # of connection points: 2
#     Edge 107, Type (0, 0), BuildingBlock: UVAHIK_clean_linker_0, # of connection points: 2
#     Edge 108, Type (0, 0), BuildingBlock: UVAHIK_clean_linker_0, # of connection points: 2
#     Edge 109, Type (0, 0), BuildingBlock: UVAHIK_clean_linker_0, # of connection points: 2
#     Edge 110, Type (0, 0), BuildingBlock: UVAHIK_clean_linker_0, # of connection points: 2
#     Edge 111, Type (0, 0), BuildingBlock: UVAHIK_clean_linker_0, # of connection points: 2
#     Edge 112, Type (0, 0), BuildingBlock: UVAHIK_clean_linker_0, # of connection points: 2
#     Edge 113, Type (0, 0), BuildingBlock: UVAHIK_clean_linker_0, # of connection points: 2
#     Edge 114, Type (0, 0), BuildingBlock: UVAHIK_clean_linker_0, # of connection points: 2
#     Edge 115, Type (0, 0), BuildingBlock: UVAHIK_clean_linker_0, # of connection points: 2
#     Edge 116, Type (0, 0), BuildingBlock: UVAHIK_clean_linker_0, # of connection points: 2
#     Edge 117, Type (0, 0), BuildingBlock: UVAHIK_clean_linker_0, # of connection points: 2
#     Edge 118, Type (0, 0), BuildingBlock: UVAHIK_clean_linker_0, # of connection points: 2
#     Edge 119, Type (0, 0), BuildingBlock: UVAHIK_clean_linker_0, # of connection points: 2
# Relax obj value: 0.194
# Max RMSD: 0.298
# Mean RMSD: 0.292
data_MOF--net-tes--node1-EBIMEJ_clean_sbu_0--edge1-UVAHIK_clean_linker_0
_symmetry_space_group_name_H-M    P1
_symmetry_Int_Tables_number       1
_symmetry_cell_setting            triclinic
loop_
_symmetry_equiv_pos_as_xyz
'x, y, z'
_cell_length_a     62.070944
_cell_length_b     61.662768
_cell_length_c     63.280068
_cell_angle_alpha  90.80195
_cell_angle_beta   91.339432
_cell_angle_gamma 91.003205
loop_
_atom_site_label
_atom_site_type_symbol
_atom_site_fract_x
_atom_site_fract_y
_atom_site_fract_z
_atom_type_partial_charge
Co0 Co 0.09908 0.37749 0.41629 0.0
Co1 Co 0.12294 0.40068 0.3758 0.0
Co2 Co 0.13159 0.35365 0.38677 0.0
H3 H 0.11947 0.37086 0.40051 0.0
O4 O 0.12666 0.38298 0.40164 0.0
H5 H 0.13505 0.38357 0.3619 0.0
O6 O 0.12809 0.37133 0.36089 0.0
Co7 Co 0.15493 0.37737 0.34527 0.0
O8 O 0.14477 0.40373 0.32919 0.0
O9 O 0.11907 0.4179 0.34906 0.0
O10 O 0.16257 0.34523 0.34775 0.0
O11 O 0.1414 0.32835 0.37081 0.0
O12 O 0.07003 0.39315 0.41692 0.0
O13 O 0.08171 0.37694 0.44336 0.0
O14 O 0.17302 0.40343 0.35392 0.0
O15 O 0.15322 0.41478 0.38055 0.0
C16 C 0.12324 0.33699 0.43043 0.0
C17 C 0.10747 0.42668 0.41119 0.0
C18 C 0.1784 0.37075 0.31513 0.0
C19 C 0.083 0.34095 0.38956 0.0
C20 C 0.1303 0.41778 0.33232 0.0
C21 C 0.15545 0.32808 0.35654 0.0
C22 C 0.06671 0.38801 0.43575 0.0
C23 C 0.17008 0.41648 0.36919 0.0
O24 O 0.1093 0.35166 0.43358 0.0
O25 O 0.13422 0.33622 0.4135 0.0
O26 O 0.11312 0.42586 0.392 0.0
O27 O 0.10425 0.40983 0.42232 0.0
O28 O 0.17915 0.38773 0.32631 0.0
O29 O 0.16463 0.35724 0.32137 0.0
O30 O 0.07879 0.35481 0.40376 0.0
O31 O 0.10167 0.34021 0.38139 0.0
Co32 Co 0.88247 0.91632 0.60316 0.0
Co33 Co 0.90739 0.87705 0.62774 0.0
Co34 Co 0.86057 0.88689 0.63629 0.0
H35 H 0.87702 0.9011 0.62403 0.0
O36 O 0.88917 0.90303 0.63082 0.0
H37 H 0.89102 0.86258 0.64029 0.0
O38 O 0.87888 0.86095 0.63341 0.0
Co39 Co 0.88503 0.84612 0.6604 0.0
O40 O 0.91142 0.82965 0.65037 0.0
O41 O 0.92523 0.85026 0.62492 0.0
O42 O 0.85497 0.85233 0.67201 0.0
O43 O 0.83649 0.86982 0.64685 0.0
O44 O 0.87225 0.93366 0.57803 0.0
O45 O 0.90015 0.9433 0.59501 0.0
O46 O 0.90709 0.86028 0.68003 0.0
O47 O 0.92196 0.88262 0.65691 0.0
C48 C 0.84212 0.93055 0.6267 0.0
C49 C 0.92898 0.90339 0.5983 0.0
C50 C 0.87361 0.81277 0.67815 0.0
C51 C 0.84846 0.88675 0.58786 0.0
C52 C 0.92533 0.83309 0.63612 0.0
C53 C 0.83729 0.8586 0.6635 0.0
C54 C 0.8876 0.94712 0.57965 0.0
C55 C 0.92121 0.8745 0.67551 0.0
O56 O 0.85619 0.93341 0.61251 0.0
O57 O 0.84249 0.91387 0.63864 0.0
O58 O 0.93104 0.8944 0.61621 0.0
O59 O 0.91047 0.90645 0.5897 0.0
O60 O 0.87364 0.83134 0.68663 0.0
O61 O 0.87983 0.81317 0.65941 0.0
O62 O 0.86322 0.89998 0.58292 0.0
O63 O 0.84645 0.88062 0.60704 0.0
Co64 Co 0.41509 0.62672 0.91209 0.0
Co65 Co 0.38895 0.59972 0.8737 0.0
Co66 Co 0.37763 0.64605 0.88463 0.0
H67 H 0.39265 0.63077 0.89772 0.0
O68 O 0.38659 0.61818 0.89946 0.0
H69 H 0.37556 0.61571 0.85992 0.0
O70 O 0.38177 0.62828 0.85884 0.0
Co71 Co 0.35446 0.62061 0.8438 0.0
O72 O 0.36264 0.59284 0.82847 0.0
O73 O 0.39145 0.58176 0.84703 0.0
O74 O 0.33687 0.64433 0.85785 0.0
O75 O 0.36217 0.66833 0.86883 0.0
O76 O 0.44258 0.6344 0.9291 0.0
O77 O 0.42179 0.60987 0.93909 0.0
O78 O 0.33439 0.59976 0.85774 0.0
O79 O 0.35934 0.58492 0.87861 0.0
C80 C 0.38878 0.66616 0.92629 0.0
C81 C 0.41758 0.57742 0.90222 0.0
C82 C 0.34674 0.63373 0.80779 0.0
C83 C 0.4258 0.66239 0.88389 0.0
C84 C 0.37846 0.58009 0.831 0.0
C85 C 0.34308 0.66383 0.86216 0.0
C86 C 0.43899 0.62041 0.94289 0.0
C87 C 0.33984 0.5857 0.87122 0.0
O88 O 0.40555 0.65438 0.92754 0.0
O89 O 0.3745 0.66338 0.91147 0.0
O90 O 0.40092 0.57591 0.89015 0.0
O91 O 0.42614 0.59566 0.90799 0.0
O92 O 0.34749 0.61408 0.81249 0.0
O93 O 0.35043 0.64595 0.82344 0.0
O94 O 0.43298 0.64722 0.89523 0.0
O95 O 0.40557 0.66354 0.8792 0.0
Co96 Co 0.63086 0.15938 0.16347 0.0
Co97 Co 0.65263 0.13299 0.12448 0.0
Co98 Co 0.60603 0.12444 0.13494 0.0
H99 H 0.62339 0.13762 0.14863 0.0
O100 O 0.63517 0.13047 0.1502 0.0
H101 H 0.63537 0.11963 0.11087 0.0
O102 O 0.62356 0.12668 0.10939 0.0
Co103 Co 0.62813 0.09815 0.09548 0.0
O104 O 0.65624 0.10576 0.08063 0.0
O105 O 0.66913 0.13543 0.09785 0.0
O106 O 0.59854 0.0856 0.10329 0.0
O107 O 0.58121 0.11308 0.11836 0.0
O108 O 0.63481 0.1922 0.15886 0.0
O109 O 0.64715 0.17775 0.186 0.0
O110 O 0.64861 0.07791 0.10973 0.0
O111 O 0.66613 0.1031 0.12929 0.0
C112 C 0.58993 0.13542 0.178 0.0
C113 C 0.67898 0.14938 0.16017 0.0
C114 C 0.61404 0.08246 0.0618 0.0
C115 C 0.59334 0.1728 0.13785 0.0
C116 C 0.6697 0.12168 0.08255 0.0
C117 C 0.58118 0.09536 0.10784 0.0
C118 C 0.64486 0.19512 0.17615 0.0
C119 C 0.66382 0.08341 0.12254 0.0
O120 O 0.60485 0.1499 0.18062 0.0
O121 O 0.58874 0.12306 0.16149 0.0
O122 O 0.67794 0.14398 0.14069 0.0
O123 O 0.6623 0.15275 0.1712 0.0
O124 O 0.61301 0.07309 0.07927 0.0
O125 O 0.62295 0.10087 0.06347 0.0
O126 O 0.60668 0.17775 0.15266 0.0
O127 O 0.59319 0.15404 0.12889 0.0
Co128 Co 0.09673 0.62383 0.08801 0.0
Co129 Co 0.11983 0.60172 0.13 0.0
Co130 Co 0.13178 0.64769 0.11737 0.0
H131 H 0.11801 0.63047 0.10398 0.0
O132 O 0.12423 0.61804 0.1035 0.0
H133 H 0.13364 0.61869 0.14322 0.0
O134 O 0.12772 0.63125 0.14382 0.0
Co135 Co 0.15489 0.62449 0.15926 0.0
O136 O 0.14639 0.59662 0.1742 0.0
O137 O 0.11586 0.58601 0.15737 0.0
O138 O 0.15809 0.65739 0.16134 0.0
O139 O 0.14395 0.67322 0.13266 0.0
O140 O 0.06384 0.6245 0.08337 0.0
O141 O 0.08318 0.60809 0.06218 0.0
O142 O 0.17484 0.60596 0.14266 0.0
O143 O 0.14883 0.58644 0.12646 0.0
C144 C 0.12223 0.66408 0.07369 0.0
C145 C 0.10211 0.57461 0.09543 0.0
C146 C 0.18027 0.63124 0.18912 0.0
C147 C 0.08341 0.66029 0.11499 0.0
C148 C 0.1297 0.58427 0.17256 0.0
C149 C 0.15388 0.67412 0.15048 0.0
C150 C 0.06435 0.6134 0.06659 0.0
C151 C 0.16881 0.58964 0.13152 0.0
O152 O 0.10672 0.65023 0.07113 0.0
O153 O 0.13478 0.66398 0.0901 0.0
O154 O 0.10775 0.5763 0.11481 0.0
O155 O 0.09992 0.59097 0.08335 0.0
O156 O 0.18445 0.61968 0.17328 0.0
O157 O 0.16177 0.63915 0.18784 0.0
O158 O 0.07754 0.64541 0.10197 0.0
O159 O 0.10294 0.66212 0.12181 0.0
Co160 Co 0.62827 0.84893 0.34738 0.0
Co161 Co 0.65438 0.87542 0.38651 0.0
Co162 Co 0.6066 0.8821 0.37798 0.0
H163 H 0.62265 0.86991 0.3633 0.0
O164 O 0.63429 0.87755 0.36158 0.0
H165 H 0.63814 0.88628 0.40176 0.0
O166 O 0.62639 0.87872 0.40293 0.0
Co167 Co 0.63261 0.90576 0.41948 0.0
O168 O 0.66053 0.89722 0.43428 0.0
O169 O 0.67432 0.87273 0.41225 0.0
O170 O 0.60326 0.91856 0.41179 0.0
O171 O 0.5833 0.89242 0.39557 0.0
O172 O 0.63388 0.81693 0.34227 0.0
O173 O 0.63768 0.83908 0.31792 0.0
O174 O 0.65736 0.92501 0.41104 0.0
O175 O 0.66545 0.90654 0.38205 0.0
C176 C 0.58801 0.8747 0.33394 0.0
C177 C 0.67613 0.85067 0.35676 0.0
C178 C 0.62032 0.92112 0.45302 0.0
C179 C 0.59143 0.83432 0.37188 0.0
C180 C 0.67494 0.88351 0.42977 0.0
C181 C 0.58506 0.90969 0.4067 0.0
C182 C 0.63843 0.81953 0.32323 0.0
C183 C 0.66826 0.92308 0.39443 0.0
O184 O 0.60309 0.8614 0.32983 0.0
O185 O 0.58719 0.88462 0.35192 0.0
O186 O 0.67781 0.86759 0.36825 0.0
O187 O 0.65884 0.83914 0.35649 0.0
O188 O 0.62209 0.93174 0.43632 0.0
O189 O 0.62506 0.90154 0.45056 0.0
O190 O 0.6031 0.83068 0.35613 0.0
O191 O 0.59345 0.85197 0.38277 0.0
Co192 Co 0.34171 0.37493 0.6584 0.0
Co193 Co 0.38323 0.3519 0.63435 0.0
Co194 Co 0.36998 0.39785 0.62416 0.0
H195 H 0.35697 0.38094 0.63754 0.0
O196 O 0.35597 0.36839 0.63128 0.0
H197 H 0.39576 0.36882 0.62076 0.0
O198 O 0.39695 0.38129 0.62707 0.0
Co199 Co 0.41024 0.37512 0.59955 0.0
O200 O 0.4273 0.34827 0.6078 0.0
O201 O 0.41132 0.33603 0.63678 0.0
O202 O 0.39836 0.40228 0.58561 0.0
O203 O 0.38523 0.42251 0.61166 0.0
O204 O 0.33541 0.37952 0.68979 0.0
O205 O 0.31502 0.36004 0.67067 0.0
O206 O 0.3948 0.35379 0.58047 0.0
O207 O 0.37731 0.33649 0.60568 0.0
C208 C 0.32691 0.41589 0.6354 0.0
C209 C 0.35004 0.32533 0.65448 0.0
C210 C 0.44215 0.38854 0.58098 0.0
C211 C 0.37171 0.41011 0.67192 0.0
C212 C 0.42645 0.33524 0.62333 0.0
C213 C 0.39336 0.42068 0.59348 0.0
C214 C 0.3186 0.36788 0.68889 0.0
C215 C 0.3827 0.33838 0.58629 0.0
O216 O 0.32522 0.40243 0.65054 0.0
O217 O 0.34225 0.41466 0.62218 0.0
O218 O 0.36849 0.32666 0.64622 0.0
O219 O 0.33829 0.34178 0.65804 0.0
O220 O 0.44308 0.38027 0.59901 0.0
O221 O 0.4232 0.38925 0.57371 0.0
O222 O 0.35884 0.39516 0.67737 0.0
O223 O 0.37695 0.41244 0.65262 0.0
Co224 Co 0.87872 0.15925 0.84656 0.0
Co225 Co 0.85607 0.13437 0.88685 0.0
Co226 Co 0.90197 0.1246 0.8742 0.0
H227 H 0.88481 0.13781 0.86145 0.0
O228 O 0.87246 0.13111 0.8604 0.0
H229 H 0.87319 0.12114 0.89972 0.0
O230 O 0.88558 0.12776 0.90069 0.0
Co231 Co 0.8792 0.09993 0.91504 0.0
O232 O 0.8516 0.10754 0.9301 0.0
O233 O 0.84042 0.13754 0.91409 0.0
O234 O 0.91194 0.09642 0.91587 0.0
O235 O 0.92749 0.11348 0.88904 0.0
O236 O 0.88051 0.19155 0.83928 0.0
O237 O 0.86367 0.16933 0.81959 0.0
O238 O 0.8582 0.0794 0.90014 0.0
O239 O 0.84085 0.10454 0.88199 0.0
C240 C 0.91875 0.13567 0.83185 0.0
C241 C 0.82938 0.15342 0.85352 0.0
C242 C 0.88686 0.07593 0.94495 0.0
C243 C 0.91553 0.17391 0.87333 0.0
C244 C 0.83899 0.12363 0.92883 0.0
C245 C 0.92853 0.10225 0.9057 0.0
C246 C 0.86965 0.18874 0.82241 0.0
C247 C 0.84266 0.08481 0.88807 0.0
O248 O 0.90589 0.15158 0.83059 0.0
O249 O 0.91771 0.12191 0.84682 0.0
O250 O 0.83057 0.14547 0.87191 0.0
O251 O 0.84588 0.15747 0.84245 0.0
O252 O 0.89284 0.07231 0.92639 0.0
O253 O 0.87669 0.09327 0.94652 0.0
O254 O 0.90043 0.17943 0.86082 0.0
O255 O 0.91698 0.15426 0.87959 0.0
Co256 Co 0.41232 0.10325 0.37849 0.0
Co257 Co 0.37369 0.12728 0.40287 0.0
Co258 Co 0.38264 0.13758 0.35734 0.0
H259 H 0.39713 0.12469 0.37316 0.0
O260 O 0.39917 0.13147 0.38511 0.0
H261 H 0.35901 0.14026 0.38708 0.0
O262 O 0.35725 0.13341 0.37515 0.0
Co263 Co 0.3427 0.16097 0.38137 0.0
O264 O 0.32833 0.1517 0.40858 0.0
O265 O 0.34722 0.12325 0.41989 0.0
O266 O 0.35182 0.1755 0.35399 0.0
O267 O 0.36497 0.14887 0.33419 0.0
O268 O 0.42929 0.07718 0.36884 0.0
O269 O 0.43979 0.0957 0.39514 0.0
O270 O 0.3563 0.18085 0.40326 0.0
O271 O 0.37872 0.15696 0.4174 0.0
C272 C 0.42613 0.12941 0.33985 0.0
C273 C 0.40228 0.0988 0.42501 0.0
C274 C 0.30857 0.17547 0.36738 0.0
C275 C 0.38171 0.08819 0.34594 0.0
C276 C 0.33118 0.13593 0.42121 0.0
C277 C 0.35542 0.16682 0.33597 0.0
C278 C 0.44329 0.07962 0.38335 0.0
C279 C 0.37056 0.17595 0.41696 0.0
O280 O 0.42924 0.11478 0.35363 0.0
O281 O 0.40909 0.14089 0.33961 0.0
O282 O 0.3914 0.11605 0.4263 0.0
O283 O 0.40645 0.08989 0.40728 0.0
O284 O 0.32584 0.18632 0.36936 0.0
O285 O 0.31067 0.15623 0.37323 0.0
O286 O 0.39433 0.08267 0.36081 0.0
O287 O 0.37669 0.10804 0.34335 0.0
Co288 Co 0.09172 0.09816 0.62722 0.0
Co289 Co 0.13346 0.12159 0.60486 0.0
Co290 Co 0.12123 0.13407 0.6493 0.0
H291 H 0.1077 0.11977 0.63296 0.0
O292 O 0.10677 0.12574 0.62072 0.0
H293 H 0.14695 0.1359 0.62109 0.0
O294 O 0.1479 0.13 0.63335 0.0
Co295 Co 0.16298 0.15743 0.62673 0.0
O296 O 0.17704 0.14975 0.59894 0.0
O297 O 0.16107 0.11819 0.58939 0.0
O298 O 0.156 0.17145 0.65494 0.0
O299 O 0.13701 0.14736 0.67354 0.0
O300 O 0.06467 0.08118 0.6354 0.0
O301 O 0.06726 0.09362 0.60515 0.0
O302 O 0.14684 0.17686 0.60706 0.0
O303 O 0.12871 0.15043 0.58975 0.0
C304 C 0.07882 0.12262 0.66724 0.0
C305 C 0.106 0.09121 0.58128 0.0
C306 C 0.19838 0.17117 0.63974 0.0
C307 C 0.12079 0.08531 0.66174 0.0
C308 C 0.17574 0.13278 0.58715 0.0
C309 C 0.14903 0.16418 0.67234 0.0
C310 C 0.05575 0.08299 0.61752 0.0
C311 C 0.13444 0.17047 0.59193 0.0
O312 O 0.07742 0.10583 0.65515 0.0
O313 O 0.0936 0.13716 0.66507 0.0
O314 O 0.11772 0.10831 0.58077 0.0
O315 O 0.09837 0.08384 0.59849 0.0
O316 O 0.19527 0.15245 0.63209 0.0
O317 O 0.1814 0.18197 0.64003 0.0
O318 O 0.10823 0.0789 0.64674 0.0
O319 O 0.12643 0.10532 0.66393 0.0
Co320 Co 0.16589 0.85087 0.87796 0.0
Co321 Co 0.13945 0.89098 0.85366 0.0
Co322 Co 0.13076 0.87943 0.89934 0.0
H323 H 0.14432 0.86593 0.88325 0.0
O324 O 0.13746 0.86429 0.87125 0.0
H325 H 0.12694 0.90476 0.8701 0.0
O326 O 0.13377 0.90612 0.88213 0.0
Co327 Co 0.10617 0.92061 0.8757 0.0
O328 O 0.11401 0.93675 0.84887 0.0
O329 O 0.14174 0.91815 0.83658 0.0
O330 O 0.09226 0.91079 0.90301 0.0
O331 O 0.11812 0.89557 0.92279 0.0
O332 O 0.19531 0.84322 0.86684 0.0
O333 O 0.17078 0.81963 0.86794 0.0
O334 O 0.08545 0.90601 0.85506 0.0
O335 O 0.10952 0.88495 0.83984 0.0
C336 C 0.13964 0.83456 0.91546 0.0
C337 C 0.16785 0.8653 0.83388 0.0
C338 C 0.0907 0.95556 0.88577 0.0
C339 C 0.17833 0.87621 0.91602 0.0
C340 C 0.12905 0.93428 0.83566 0.0
C341 C 0.10001 0.9048 0.92088 0.0
C342 C 0.18992 0.8238 0.86313 0.0
C343 C 0.09028 0.89225 0.84096 0.0
O344 O 0.15446 0.83207 0.9019 0.0
O345 O 0.12821 0.85175 0.91603 0.0
O346 O 0.15015 0.87432 0.82993 0.0
O347 O 0.17628 0.86785 0.85234 0.0
O348 O 0.08733 0.94622 0.86823 0.0
O349 O 0.10302 0.94508 0.89772 0.0
O350 O 0.18326 0.86112 0.90331 0.0
O351 O 0.16004 0.88566 0.9145 0.0
Co352 Co 0.34464 0.84724 0.12709 0.0
Co353 Co 0.36868 0.88637 0.15521 0.0
Co354 Co 0.3809 0.87739 0.1099 0.0
H355 H 0.36651 0.86289 0.12413 0.0
O356 O 0.37246 0.86082 0.13642 0.0
H357 H 0.38211 0.90137 0.14051 0.0
O358 O 0.37596 0.90296 0.12825 0.0
Co359 Co 0.40308 0.9182 0.13665 0.0
O360 O 0.3934 0.93299 0.16365 0.0
O361 O 0.36504 0.91296 0.17358 0.0
O362 O 0.42028 0.90791 0.11144 0.0
O363 O 0.39505 0.89505 0.08863 0.0
O364 O 0.32155 0.82569 0.11637 0.0
O365 O 0.33983 0.81928 0.14359 0.0
O366 O 0.423 0.90311 0.15673 0.0
O367 O 0.39801 0.88144 0.17039 0.0
C368 C 0.37105 0.8353 0.08828 0.0
C369 C 0.33977 0.85597 0.17479 0.0
C370 C 0.41465 0.95457 0.1257 0.0
C371 C 0.33264 0.87723 0.09378 0.0
C372 C 0.37753 0.92969 0.17576 0.0
C373 C 0.41361 0.90343 0.09258 0.0
C374 C 0.32509 0.81263 0.13105 0.0
C375 C 0.41747 0.88902 0.17007 0.0
O376 O 0.35418 0.83329 0.09936 0.0
O377 O 0.38503 0.85056 0.09191 0.0
O378 O 0.3564 0.86823 0.17726 0.0
O379 O 0.33172 0.85083 0.15654 0.0
O380 O 0.42027 0.94613 0.14285 0.0
O381 O 0.4023 0.94239 0.11471 0.0
O382 O 0.32577 0.86486 0.10806 0.0
O383 O 0.35271 0.88264 0.09309 0.0
Co384 Co 0.38113 0.41638 0.09779 0.0
Co385 Co 0.40621 0.37712 0.12294 0.0
Co386 Co 0.35936 0.38623 0.13103 0.0
H387 H 0.3755 0.40081 0.1185 0.0
O388 O 0.38753 0.40285 0.12545 0.0
H389 H 0.38979 0.36217 0.13473 0.0
O390 O 0.37779 0.3606 0.12767 0.0
Co391 Co 0.38355 0.34514 0.15427 0.0
O392 O 0.40841 0.32761 0.14265 0.0
O393 O 0.4247 0.3505 0.12062 0.0
O394 O 0.35737 0.35839 0.16886 0.0
O395 O 0.33596 0.36867 0.14235 0.0
O396 O 0.37428 0.42984 0.06924 0.0
O397 O 0.39752 0.44417 0.0895 0.0
O398 O 0.4109 0.35292 0.17021 0.0
O399 O 0.41858 0.38308 0.15284 0.0
C400 C 0.34131 0.43037 0.12261 0.0
C401 C 0.42843 0.40429 0.09483 0.0
C402 C 0.36691 0.31472 0.17296 0.0
C403 C 0.34759 0.38561 0.08312 0.0
C404 C 0.42339 0.33208 0.12977 0.0
C405 C 0.33853 0.3614 0.16087 0.0
C406 C 0.38775 0.4451 0.07189 0.0
C407 C 0.42198 0.3702 0.16829 0.0
O408 O 0.35594 0.43412 0.10911 0.0
O409 O 0.34083 0.41277 0.13324 0.0
O410 O 0.43001 0.39496 0.1126 0.0
O411 O 0.41016 0.40732 0.08565 0.0
O412 O 0.37 0.33336 0.18082 0.0
O413 O 0.37323 0.31324 0.1543 0.0
O414 O 0.36167 0.39955 0.07809 0.0
O415 O 0.34563 0.37948 0.10221 0.0
Co416 Co 0.8387 0.87143 0.15473 0.0
Co417 Co 0.88002 0.84717 0.13125 0.0
Co418 Co 0.86928 0.89457 0.1228 0.0
H419 H 0.85506 0.87749 0.13471 0.0
O420 O 0.85376 0.86529 0.12782 0.0
H421 H 0.89423 0.86419 0.11935 0.0
O422 O 0.89544 0.87643 0.12614 0.0
Co423 Co 0.91107 0.8703 0.09975 0.0
O424 O 0.92848 0.84501 0.11093 0.0
O425 O 0.90703 0.82963 0.13461 0.0
O426 O 0.91134 0.90297 0.09488 0.0
O427 O 0.88583 0.91979 0.11301 0.0
O428 O 0.83405 0.86219 0.18535 0.0
O429 O 0.80786 0.86845 0.16523 0.0
O430 O 0.89726 0.84891 0.07917 0.0
O431 O 0.87519 0.83305 0.10167 0.0
C432 C 0.82525 0.91254 0.13143 0.0
C433 C 0.84561 0.82142 0.15036 0.0
C434 C 0.94034 0.877 0.07505 0.0
C435 C 0.86746 0.90676 0.17072 0.0
C436 C 0.92473 0.83046 0.12458 0.0
C437 C 0.90194 0.92009 0.10098 0.0
C438 C 0.81386 0.86309 0.18349 0.0
C439 C 0.88336 0.83434 0.0832 0.0
O440 O 0.82181 0.898 0.14524 0.0
O441 O 0.84231 0.91259 0.1203 0.0
O442 O 0.86359 0.822 0.14118 0.0
O443 O 0.83508 0.83838 0.15494 0.0
O444 O 0.9208 0.88053 0.07085 0.0
O445 O 0.94323 0.86993 0.09339 0.0
O446 O 0.85309 0.89278 0.17506 0.0
O447 O 0.87512 0.90791 0.15214 0.0
Co448 Co 0.13444 0.66273 0.66788 0.0
Co449 Co 0.15649 0.6385 0.62702 0.0
Co450 Co 0.11045 0.62788 0.63874 0.0
H451 H 0.12772 0.64132 0.65224 0.0
O452 O 0.13984 0.63467 0.65313 0.0
H453 H 0.13911 0.62581 0.61316 0.0
O454 O 0.1269 0.63232 0.61261 0.0
Co455 Co 0.13246 0.60544 0.59623 0.0
O456 O 0.16074 0.61272 0.58237 0.0
O457 O 0.17269 0.64227 0.60012 0.0
O458 O 0.10099 0.59653 0.59856 0.0
O459 O 0.08485 0.61649 0.6232 0.0
O460 O 0.1522 0.69077 0.67309 0.0
O461 O 0.13125 0.67926 0.69583 0.0
O462 O 0.15274 0.58459 0.60962 0.0
O463 O 0.17011 0.60836 0.63084 0.0
C464 C 0.09371 0.63787 0.68131 0.0
C465 C 0.18342 0.6556 0.66197 0.0
C466 C 0.12235 0.58762 0.56231 0.0
C467 C 0.09844 0.67686 0.64099 0.0
C468 C 0.17386 0.62874 0.58469 0.0
C469 C 0.08426 0.60292 0.60791 0.0
C470 C 0.14466 0.69379 0.69114 0.0
C471 C 0.16779 0.58909 0.62292 0.0
O472 O 0.10695 0.65398 0.68334 0.0
O473 O 0.09456 0.62434 0.66581 0.0
O474 O 0.18201 0.64914 0.64284 0.0
O475 O 0.16699 0.65919 0.67329 0.0
O476 O 0.11986 0.5791 0.58005 0.0
O477 O 0.13027 0.60647 0.56384 0.0
O478 O 0.11378 0.68277 0.65344 0.0
O479 O 0.09621 0.65711 0.63469 0.0
Co480 Co 0.60053 0.87484 0.9118 0.0
Co481 Co 0.62507 0.89989 0.87283 0.0
Co482 Co 0.63442 0.85291 0.88336 0.0
H483 H 0.62167 0.86952 0.89685 0.0
O484 O 0.62838 0.88188 0.89854 0.0
H485 H 0.6381 0.88322 0.85941 0.0
O486 O 0.6313 0.87093 0.8578 0.0
Co487 Co 0.65917 0.87746 0.84424 0.0
O488 O 0.65148 0.90588 0.82986 0.0
O489 O 0.62192 0.91696 0.84614 0.0
O490 O 0.67108 0.84711 0.85009 0.0
O491 O 0.6455 0.8286 0.86707 0.0
O492 O 0.56856 0.88043 0.91653 0.0
O493 O 0.59077 0.87959 0.94189 0.0
O494 O 0.67967 0.89821 0.8595 0.0
O495 O 0.65482 0.91493 0.87816 0.0
C496 C 0.62362 0.83356 0.925 0.0
C497 C 0.60611 0.92482 0.90725 0.0
C498 C 0.67461 0.86864 0.80975 0.0
C499 C 0.58537 0.83944 0.88362 0.0
C500 C 0.63557 0.91866 0.83137 0.0
C501 C 0.66239 0.8293 0.85614 0.0
C502 C 0.5714 0.88177 0.93626 0.0
C503 C 0.67436 0.9134 0.87196 0.0
O504 O 0.60822 0.84687 0.92691 0.0
O505 O 0.63705 0.83512 0.90993 0.0
O506 O 0.61408 0.92479 0.8889 0.0
O507 O 0.60219 0.90752 0.9174 0.0
O508 O 0.67606 0.88704 0.81845 0.0
O509 O 0.66439 0.85526 0.82059 0.0
O510 O 0.5801 0.85412 0.89659 0.0
O511 O 0.60485 0.83816 0.87731 0.0
Co512 Co 0.91486 0.12804 0.41283 0.0
Co513 Co 0.8889 0.0999 0.3735 0.0
Co514 Co 0.87833 0.14692 0.38359 0.0
H515 H 0.89299 0.13183 0.39738 0.0
O516 O 0.88683 0.11927 0.39905 0.0
H517 H 0.87662 0.11603 0.35891 0.0
O518 O 0.88306 0.1285 0.35812 0.0
Co519 Co 0.85668 0.12084 0.34131 0.0
O520 O 0.8673 0.09507 0.32447 0.0
O521 O 0.89091 0.08056 0.34723 0.0
O522 O 0.83919 0.14459 0.35518 0.0
O523 O 0.86368 0.169 0.36693 0.0
O524 O 0.94658 0.13221 0.42242 0.0
O525 O 0.92503 0.11478 0.44069 0.0
O526 O 0.83939 0.09473 0.34965 0.0
O527 O 0.85846 0.08741 0.37879 0.0
C528 C 0.88762 0.16722 0.42639 0.0
C529 C 0.91278 0.07713 0.40576 0.0
C530 C 0.84293 0.13602 0.30804 0.0
C531 C 0.92606 0.16373 0.38471 0.0
C532 C 0.88092 0.08058 0.32921 0.0
C533 C 0.84501 0.16421 0.35936 0.0
C534 C 0.94405 0.1218 0.43915 0.0
C535 C 0.84192 0.08402 0.36646 0.0
O536 O 0.90372 0.15469 0.42888 0.0
O537 O 0.87475 0.16524 0.41019 0.0
O538 O 0.89942 0.07577 0.39027 0.0
O539 O 0.91911 0.09514 0.4142 0.0
O540 O 0.86098 0.12731 0.30996 0.0
O541 O 0.83278 0.13613 0.32495 0.0
O542 O 0.93288 0.14964 0.39749 0.0
O543 O 0.90627 0.16391 0.3784 0.0
Co544 Co 0.60246 0.1287 0.59036 0.0
Co545 Co 0.62573 0.10632 0.63267 0.0
Co546 Co 0.63407 0.15346 0.62236 0.0
H547 H 0.62239 0.1359 0.60766 0.0
O548 O 0.62957 0.12403 0.60694 0.0
H549 H 0.63814 0.12379 0.64687 0.0
O550 O 0.63091 0.13557 0.64778 0.0
Co551 Co 0.65833 0.1312 0.66373 0.0
O552 O 0.65088 0.10251 0.67795 0.0
O553 O 0.62228 0.08942 0.65932 0.0
O554 O 0.66991 0.16184 0.65744 0.0
O555 O 0.64358 0.17859 0.63957 0.0
O556 O 0.5737 0.11158 0.58831 0.0
O557 O 0.58558 0.12774 0.56221 0.0
O558 O 0.67888 0.10979 0.65179 0.0
O559 O 0.65581 0.09323 0.62924 0.0
C560 C 0.62501 0.17127 0.5789 0.0
C561 C 0.60948 0.07949 0.59711 0.0
C562 C 0.67233 0.1441 0.69849 0.0
C563 C 0.58696 0.16616 0.6147 0.0
C564 C 0.63538 0.08873 0.67523 0.0
C565 C 0.66033 0.17904 0.65156 0.0
C566 C 0.57057 0.11622 0.5692 0.0
C567 C 0.67465 0.09505 0.63805 0.0
O568 O 0.61081 0.15639 0.57505 0.0
O569 O 0.63676 0.17151 0.5959 0.0
O570 O 0.61553 0.08082 0.61641 0.0
O571 O 0.6066 0.09606 0.5855 0.0
O572 O 0.65524 0.13311 0.6959 0.0
O573 O 0.68135 0.14794 0.68132 0.0
O574 O 0.58451 0.15421 0.59834 0.0
O575 O 0.60369 0.16473 0.62681 0.0
Co576 Co 0.12679 0.34513 0.84731 0.0
Co577 Co 0.15437 0.36928 0.88658 0.0
Co578 Co 0.10858 0.38189 0.87549 0.0
H579 H 0.12347 0.36697 0.86247 0.0
O580 O 0.13614 0.37273 0.86092 0.0
H581 H 0.13902 0.3833 0.90013 0.0
O582 O 0.12639 0.3774 0.90137 0.0
Co583 Co 0.13474 0.40499 0.91555 0.0
O584 O 0.16177 0.39558 0.93129 0.0
O585 O 0.17209 0.36612 0.91329 0.0
O586 O 0.11261 0.42259 0.89943 0.0
O587 O 0.08692 0.39807 0.89097 0.0
O588 O 0.14472 0.34548 0.82058 0.0
O589 O 0.11585 0.3276 0.82164 0.0
O590 O 0.15716 0.42403 0.90275 0.0
O591 O 0.1702 0.39857 0.88151 0.0
C592 C 0.08647 0.36991 0.83507 0.0
C593 C 0.17593 0.34137 0.85625 0.0
C594 C 0.11848 0.41639 0.94888 0.0
C595 C 0.09292 0.33337 0.87668 0.0
C596 C 0.17403 0.37932 0.92908 0.0
C597 C 0.09286 0.41746 0.89553 0.0
C598 C 0.13146 0.33335 0.8106 0.0
C599 C 0.17057 0.4181 0.88911 0.0
O600 O 0.0971 0.35233 0.83474 0.0
O601 O 0.09106 0.38519 0.8485 0.0
O602 O 0.17751 0.35651 0.87017 0.0
O603 O 0.15777 0.3338 0.84906 0.0
O604 O 0.12771 0.39862 0.94641 0.0
O605 O 0.11865 0.42767 0.93256 0.0
O606 O 0.10814 0.32642 0.86548 0.0
O607 O 0.09134 0.35373 0.88103 0.0
Co608 Co 0.37504 0.66565 0.34269 0.0
Co609 Co 0.35137 0.63691 0.38217 0.0
Co610 Co 0.39784 0.63012 0.37002 0.0
H611 H 0.38077 0.64358 0.35704 0.0
O612 O 0.36868 0.6364 0.35553 0.0
H613 H 0.36911 0.62459 0.39506 0.0
O614 O 0.38097 0.63208 0.3962 0.0
Co615 Co 0.37647 0.6038 0.41028 0.0
O616 O 0.35099 0.61261 0.42811 0.0
O617 O 0.33523 0.63851 0.40909 0.0
O618 O 0.40369 0.59069 0.39787 0.0
O619 O 0.4226 0.61865 0.38573 0.0
O620 O 0.36047 0.69463 0.33776 0.0
O621 O 0.3684 0.67489 0.31216 0.0
O622 O 0.34983 0.58616 0.40292 0.0
O623 O 0.33862 0.6061 0.376 0.0
C624 C 0.41414 0.64084 0.32693 0.0
C625 C 0.3304 0.66437 0.35771 0.0
C626 C 0.39246 0.58451 0.44034 0.0
C627 C 0.41341 0.67835 0.36762 0.0
C628 C 0.33661 0.627 0.42566 0.0
C629 C 0.42165 0.60048 0.39488 0.0
C630 C 0.3601 0.69233 0.31804 0.0
C631 C 0.33688 0.58908 0.38748 0.0
O632 O 0.40036 0.65595 0.32482 0.0
O633 O 0.4144 0.62835 0.343 0.0
O634 O 0.32594 0.64704 0.36705 0.0
O635 O 0.34932 0.67221 0.36099 0.0
O636 O 0.39047 0.57667 0.42195 0.0
O637 O 0.38571 0.60355 0.44161 0.0
O638 O 0.4006 0.68342 0.35268 0.0
O639 O 0.4121 0.6598 0.37654 0.0
Co640 Co 0.91019 0.5953 0.87646 0.0
Co641 Co 0.87 0.62 0.89883 0.0
Co642 Co 0.88206 0.63039 0.85413 0.0
H643 H 0.89523 0.61681 0.87055 0.0
O644 O 0.89659 0.6235 0.88262 0.0
H645 H 0.85665 0.63332 0.88242 0.0
O646 O 0.8554 0.62675 0.87029 0.0
Co647 Co 0.84113 0.65449 0.87683 0.0
O648 O 0.82653 0.64704 0.90455 0.0
O649 O 0.84252 0.61645 0.91442 0.0
O650 O 0.84787 0.66744 0.84793 0.0
O651 O 0.8663 0.64245 0.83007 0.0
O652 O 0.94305 0.59874 0.87928 0.0
O653 O 0.92698 0.57201 0.89189 0.0
O654 O 0.85619 0.67494 0.89762 0.0
O655 O 0.87502 0.6496 0.91406 0.0
C656 C 0.92471 0.61956 0.83699 0.0
C657 C 0.89666 0.59108 0.92259 0.0
C658 C 0.8051 0.66717 0.8667 0.0
C659 C 0.88305 0.5813 0.83996 0.0
C660 C 0.82775 0.63049 0.91643 0.0
C661 C 0.85488 0.65935 0.83069 0.0
C662 C 0.94483 0.58137 0.88922 0.0
C663 C 0.86868 0.66931 0.91267 0.0
O664 O 0.92571 0.60314 0.84914 0.0
O665 O 0.90978 0.63357 0.83853 0.0
O666 O 0.88585 0.60837 0.92295 0.0
O667 O 0.90246 0.58208 0.90527 0.0
O668 O 0.81637 0.65573 0.85486 0.0
O669 O 0.81436 0.6715 0.88414 0.0
O670 O 0.89556 0.5754 0.85488 0.0
O671 O 0.87676 0.60102 0.83881 0.0
Co672 Co 0.59057 0.59763 0.12622 0.0
Co673 Co 0.63179 0.62081 0.10284 0.0
Co674 Co 0.62024 0.6338 0.14724 0.0
H675 H 0.60644 0.61934 0.13136 0.0
O676 O 0.6053 0.62514 0.11905 0.0
H677 H 0.64569 0.63498 0.11894 0.0
O678 O 0.64659 0.62896 0.13115 0.0
Co679 Co 0.66211 0.65614 0.12485 0.0
O680 O 0.67703 0.64742 0.09779 0.0
O681 O 0.65919 0.61719 0.08695 0.0
O682 O 0.64946 0.6731 0.1494 0.0
O683 O 0.63689 0.64753 0.17056 0.0
O684 O 0.56276 0.58218 0.13466 0.0
O685 O 0.56579 0.59429 0.10432 0.0
O686 O 0.64995 0.67437 0.10192 0.0
O687 O 0.62699 0.64982 0.08768 0.0
C688 C 0.57796 0.62321 0.1658 0.0
C689 C 0.60487 0.58931 0.08066 0.0
C690 C 0.69577 0.66794 0.14317 0.0
C691 C 0.61996 0.58526 0.16037 0.0
C692 C 0.67482 0.63091 0.08542 0.0
C693 C 0.64643 0.66565 0.16785 0.0
C694 C 0.55382 0.58441 0.11684 0.0
C695 C 0.63568 0.66895 0.08809 0.0
O696 O 0.57649 0.60607 0.15416 0.0
O697 O 0.59281 0.63762 0.16323 0.0
O698 O 0.61556 0.60705 0.07935 0.0
O699 O 0.59814 0.5821 0.09831 0.0
O700 O 0.68031 0.68022 0.13922 0.0
O701 O 0.69222 0.64887 0.1366 0.0
O702 O 0.60797 0.57842 0.14511 0.0
O703 O 0.62499 0.60541 0.1626 0.0
Co704 Co 0.65518 0.3504 0.37573 0.0
Co705 Co 0.63078 0.3903 0.35178 0.0
Co706 Co 0.62082 0.37913 0.39701 0.0
H707 H 0.63385 0.36545 0.38099 0.0
O708 O 0.62719 0.36389 0.36891 0.0
H709 H 0.61902 0.40503 0.36837 0.0
O710 O 0.62586 0.40561 0.38039 0.0
Co711 Co 0.59988 0.423 0.37478 0.0
O712 O 0.60985 0.43935 0.34876 0.0
O713 O 0.63416 0.41734 0.33472 0.0
O714 O 0.58534 0.41477 0.40264 0.0
O715 O 0.60954 0.39549 0.42079 0.0
O716 O 0.68686 0.34351 0.37157 0.0
O717 O 0.66339 0.31876 0.3724 0.0
O718 O 0.58031 0.41239 0.35108 0.0
O719 O 0.60047 0.3856 0.3391 0.0
C720 C 0.63137 0.33656 0.41554 0.0
C721 C 0.64995 0.35553 0.32691 0.0
C722 C 0.58606 0.45836 0.38604 0.0
C723 C 0.66978 0.38045 0.40875 0.0
C724 C 0.62375 0.43507 0.33479 0.0
C725 C 0.59262 0.40675 0.41992 0.0
C726 C 0.68305 0.32341 0.37071 0.0
C727 C 0.58314 0.39661 0.33844 0.0
O728 O 0.64737 0.33527 0.40323 0.0
O729 O 0.6173 0.35147 0.41349 0.0
O730 O 0.6402 0.37351 0.32712 0.0
O731 O 0.65545 0.3456 0.34371 0.0
O732 O 0.58282 0.45008 0.368 0.0
O733 O 0.59717 0.44651 0.39786 0.0
O734 O 0.67559 0.3694 0.39294 0.0
O735 O 0.64989 0.38409 0.41185 0.0
Co736 Co 0.91086 0.4114 0.62941 0.0
Co737 Co 0.87104 0.38811 0.60121 0.0
Co738 Co 0.87888 0.37715 0.64732 0.0
H739 H 0.89409 0.39038 0.63278 0.0
O740 O 0.89598 0.38389 0.62077 0.0
H741 H 0.8552 0.37605 0.61627 0.0
O742 O 0.85395 0.3828 0.62823 0.0
Co743 Co 0.83696 0.35628 0.62078 0.0
O744 O 0.8221 0.36737 0.59419 0.0
O745 O 0.84518 0.39229 0.58197 0.0
O746 O 0.84473 0.33982 0.64766 0.0
O747 O 0.86054 0.36483 0.66902 0.0
O748 O 0.93293 0.43331 0.64147 0.0
O749 O 0.93892 0.41602 0.61366 0.0
O750 O 0.84993 0.3353 0.60037 0.0
O751 O 0.87484 0.35776 0.58781 0.0
C752 C 0.92062 0.38594 0.66967 0.0
C753 C 0.90424 0.41312 0.58041 0.0
C754 C 0.80051 0.34505 0.63093 0.0
C755 C 0.88176 0.42601 0.6622 0.0
C756 C 0.82712 0.38189 0.58092 0.0
C757 C 0.85019 0.34703 0.66611 0.0
C758 C 0.94598 0.42986 0.62697 0.0
C759 C 0.86518 0.33911 0.58785 0.0
O760 O 0.92344 0.40251 0.65808 0.0
O761 O 0.9051 0.37228 0.66602 0.0
O762 O 0.88969 0.39835 0.57871 0.0
O763 O 0.91131 0.42067 0.59827 0.0
O764 O 0.80942 0.33864 0.61443 0.0
O765 O 0.8123 0.35792 0.64176 0.0
O766 O 0.89479 0.43188 0.64814 0.0
O767 O 0.87493 0.40625 0.66299 0.0
C768 C 0.15539 0.28746 0.35693 0.0
C769 C 0.16471 0.30711 0.35039 0.0
C770 C 0.16539 0.26781 0.35271 0.0
C771 C 0.21061 0.24334 0.32322 0.0
H772 H 0.21763 0.20941 0.37399 0.0
C773 C 0.28865 0.20505 0.34992 0.0
C774 C 0.28839 0.18451 0.35916 0.0
C775 C 0.2695 0.21452 0.34337 0.0
C776 C 0.21539 0.2183 0.35947 0.0
H777 H 0.19134 0.32148 0.3335 0.0
H778 H 0.20898 0.28753 0.3267 0.0
H779 H 0.19015 0.23695 0.37242 0.0
H780 H 0.26813 0.15742 0.36834 0.0
H781 H 0.23427 0.17451 0.35752 0.0
H782 H 0.23728 0.22585 0.31115 0.0
C783 C 0.19371 0.28708 0.33463 0.0
C784 C 0.19962 0.23409 0.35853 0.0
C785 C 0.18366 0.30665 0.33871 0.0
C786 C 0.26869 0.17329 0.36123 0.0
C787 C 0.24941 0.18298 0.35502 0.0
C788 C 0.22655 0.22771 0.32428 0.0
C789 C 0.18496 0.26748 0.34199 0.0
C790 C 0.19774 0.24746 0.34078 0.0
C791 C 0.2497 0.20378 0.34628 0.0
C792 C 0.22963 0.21575 0.34277 0.0
H793 H 0.14063 0.28727 0.36574 0.0
H794 H 0.15813 0.25296 0.35835 0.0
H795 H 0.20922 0.25306 0.30915 0.0
H796 H 0.30358 0.21413 0.34829 0.0
H797 H 0.27012 0.23076 0.33706 0.0
C798 C 0.96839 0.91242 0.59829 0.0
C799 C 0.94787 0.91386 0.58874 0.0
C800 C 0.9843 0.92789 0.59398 0.0
C801 C 0.99065 0.98265 0.56786 0.0
H802 H 0.01667 0.99621 0.62274 0.0
C803 C 0.03471 0.06395 0.58892 0.0
C804 C 0.03747 0.0692 0.61045 0.0
C805 C 0.02334 0.04514 0.5827 0.0
C806 C 0.00903 0.99296 0.60743 0.0
H807 H 0.92944 0.92948 0.56385 0.0
H808 H 0.95596 0.95729 0.55782 0.0
H809 H 1.00248 0.96054 0.61586 0.0
H810 H 0.02712 0.06185 0.64203 0.0
H811 H 0.0054 0.03032 0.6311 0.0
H812 H 0.99551 0.01606 0.56044 0.0
C813 C 0.96028 0.94458 0.56863 0.0
C814 C 1.00148 0.97201 0.60312 0.0
C815 C 0.94476 0.92863 0.57231 0.0
C816 C 0.02571 0.05769 0.62535 0.0
C817 C 0.01363 0.03939 0.61908 0.0
C818 C 0.99759 0.00391 0.57247 0.0
C819 C 0.9795 0.94557 0.58087 0.0
C820 C 0.99167 0.96656 0.58344 0.0
C821 C 0.01383 0.03189 0.59795 0.0
C822 C 0.00641 0.00943 0.59253 0.0
H823 H 0.97162 0.90052 0.61034 0.0
H824 H 0.99957 0.92706 0.60252 0.0
H825 H 0.98383 0.97915 0.55227 0.0
H826 H 0.04306 0.07316 0.57712 0.0
H827 H 0.02354 0.04022 0.56623 0.0
C828 C 0.19903 0.786 0.85291 0.0
C829 C 0.20429 0.80819 0.85348 0.0
C830 C 0.21413 0.7711 0.84614 0.0
C831 C 0.27184 0.76753 0.84873 0.0
H832 H 0.26189 0.71134 0.82171 0.0
C833 C 0.33596 0.70209 0.85249 0.0
C834 C 0.32816 0.6813 0.85725 0.0
C835 C 0.32167 0.7182 0.84651 0.0
C836 C 0.26488 0.72701 0.82928 0.0
H837 H 0.22813 0.83262 0.84529 0.0
H838 H 0.25436 0.80663 0.8332 0.0
H839 H 0.23406 0.73887 0.81931 0.0
H840 H 0.29951 0.6609 0.85969 0.0
H841 H 0.27452 0.68924 0.85027 0.0
H842 H 0.30192 0.75552 0.85983 0.0
C843 C 0.2389 0.80067 0.83848 0.0
C844 C 0.24903 0.74271 0.82781 0.0
C845 C 0.22397 0.81548 0.84549 0.0
C846 C 0.30592 0.67683 0.85603 0.0
C847 C 0.29164 0.69298 0.85036 0.0
C848 C 0.28755 0.75185 0.85032 0.0
C849 C 0.23453 0.77835 0.83973 0.0
C850 C 0.25223 0.76292 0.83794 0.0
C851 C 0.29936 0.71381 0.84552 0.0
C852 C 0.28401 0.73126 0.84109 0.0
H853 H 0.18377 0.78009 0.85875 0.0
H854 H 0.2104 0.75394 0.84734 0.0
H855 H 0.27456 0.78283 0.85708 0.0
H856 H 0.35309 0.7058 0.85298 0.0
H857 H 0.32808 0.73407 0.84266 0.0
C858 C 0.43428 0.98919 0.13298 0.0
C859 C 0.4236 0.9752 0.11844 0.0
C860 C 0.44563 0.00722 0.12596 0.0
C861 C 0.4645 0.04786 0.10821 0.0
H862 H 0.50658 0.03123 0.06692 0.0
C863 C 0.54165 0.09786 0.10085 0.0
C864 C 0.56032 0.08532 0.10149 0.0
C865 C 0.52166 0.08821 0.09602 0.0
C866 C 0.49484 0.0362 0.07834 0.0
H867 H 0.41534 0.96938 0.08535 0.0
H868 H 0.43552 1.00106 0.07294 0.0
H869 H 0.47525 0.00781 0.07244 0.0
H870 H 0.57295 0.05313 0.09646 0.0
H871 H 0.538 0.03606 0.08903 0.0
H872 H 0.48495 0.0751 0.11564 0.0
C873 C 0.43501 0.99807 0.08975 0.0
C874 C 0.47674 0.02295 0.08129 0.0
C875 C 0.42343 0.98007 0.09684 0.0
C876 C 0.5588 0.06317 0.09622 0.0
C877 C 0.53876 0.05345 0.09169 0.0
C878 C 0.48264 0.06099 0.10541 0.0
C879 C 0.44661 0.01151 0.10424 0.0
C880 C 0.462 0.02816 0.097 0.0
C881 C 0.5199 0.06577 0.09206 0.0
C882 C 0.49851 0.05476 0.09116 0.0
H883 H 0.43458 0.98573 0.14973 0.0
H884 H 0.45472 0.01704 0.13749 0.0
H885 H 0.45319 0.05237 0.12022 0.0
H886 H 0.54244 0.11511 0.10438 0.0
H887 H 0.50749 0.09821 0.09603 0.0
C888 C 0.1757 0.69597 0.17689 0.0
C889 C 0.16427 0.69475 0.15743 0.0
C890 C 0.19122 0.71222 0.18064 0.0
C891 C 0.21632 0.76142 0.15802 0.0
H892 H 0.26972 0.73086 0.16811 0.0
C893 C 0.29315 0.78992 0.12148 0.0
C894 C 0.31032 0.79468 0.13564 0.0
C895 C 0.27573 0.77747 0.12795 0.0
C896 C 0.25493 0.73965 0.16563 0.0
H897 H 0.15774 0.71144 0.12805 0.0
H898 H 0.18481 0.73965 0.1345 0.0
H899 H 0.23534 0.71312 0.17568 0.0
H900 H 0.32428 0.78814 0.16661 0.0
H901 H 0.29356 0.76606 0.17794 0.0
H902 H 0.23595 0.78741 0.14676 0.0
C903 C 0.18196 0.72802 0.14685 0.0
C904 C 0.23528 0.72965 0.17012 0.0
C905 C 0.16646 0.71176 0.14309 0.0
C906 C 0.31102 0.78484 0.15553 0.0
C907 C 0.29351 0.77232 0.16203 0.0
C908 C 0.23592 0.77131 0.15342 0.0
C909 C 0.19537 0.72756 0.16505 0.0
C910 C 0.21577 0.74016 0.16557 0.0
C911 C 0.27534 0.76958 0.14862 0.0
C912 C 0.25524 0.76014 0.15641 0.0
H913 H 0.17398 0.68339 0.18852 0.0
H914 H 0.20107 0.71181 0.19499 0.0
H915 H 0.20155 0.76994 0.15463 0.0
H916 H 0.29246 0.79703 0.10592 0.0
H917 H 0.26206 0.77494 0.11718 0.0
C918 C 0.56523 0.93519 0.42925 0.0
C919 C 0.56564 0.92185 0.41117 0.0
C920 C 0.54907 0.95027 0.43156 0.0
C921 C 0.49763 0.96945 0.409 0.0
H922 H 0.52468 0.02637 0.41683 0.0
C923 C 0.46063 0.04499 0.37482 0.0
C924 C 0.45923 0.06318 0.3882 0.0
C925 C 0.47286 0.02744 0.38099 0.0
C926 C 0.51685 0.01059 0.41503 0.0
H927 H 0.54852 0.91206 0.38225 0.0
H928 H 0.52027 0.93873 0.38603 0.0
H929 H 0.54558 0.99401 0.4235 0.0
H930 H 0.47029 0.0781 0.41785 0.0
H931 H 0.49198 0.04721 0.42864 0.0
H932 H 0.46916 0.98613 0.39962 0.0
C933 C 0.53237 0.93747 0.39855 0.0
C934 C 0.52872 0.99208 0.41892 0.0
C935 C 0.54854 0.92228 0.39633 0.0
C936 C 0.47119 0.06418 0.40729 0.0
C937 C 0.48348 0.04656 0.41348 0.0
C938 C 0.48577 0.98795 0.40509 0.0
C939 C 0.5331 0.95221 0.41573 0.0
C940 C 0.51936 0.97138 0.41537 0.0
C941 C 0.48386 0.02786 0.40061 0.0
C942 C 0.49552 0.0086 0.40746 0.0
H943 H 0.5779 0.93458 0.44115 0.0
H944 H 0.54972 0.96119 0.44514 0.0
H945 H 0.49006 0.95365 0.40637 0.0
H946 H 0.45165 0.04395 0.35995 0.0
H947 H 0.47342 0.01338 0.37057 0.0
C948 C 0.32291 0.30157 0.67175 0.0
C949 C 0.34164 0.30365 0.6599 0.0
C950 C 0.31406 0.28117 0.67563 0.0
C951 C 0.30956 0.22866 0.64989 0.0
H952 H 0.27355 0.21718 0.69788 0.0
C953 C 0.23829 0.1683 0.6441 0.0
C954 C 0.21926 0.17959 0.64779 0.0
C955 C 0.2582 0.17726 0.65065 0.0
C956 C 0.28388 0.21989 0.68456 0.0
H957 H 0.36659 0.28586 0.64394 0.0
H958 H 0.35099 0.25014 0.65069 0.0
H959 H 0.30173 0.24529 0.70077 0.0
H960 H 0.20585 0.20855 0.66175 0.0
H961 H 0.24044 0.22397 0.67344 0.0
H962 H 0.29079 0.20426 0.63327 0.0
C963 C 0.34311 0.26437 0.65683 0.0
C964 C 0.29989 0.23599 0.68616 0.0
C965 C 0.352 0.28482 0.65295 0.0
C966 C 0.22029 0.19947 0.65881 0.0
C967 C 0.24006 0.20819 0.66568 0.0
C968 C 0.29367 0.21245 0.64836 0.0
C969 C 0.32378 0.26238 0.66776 0.0
C970 C 0.31196 0.24141 0.66842 0.0
C971 C 0.25921 0.19738 0.66132 0.0
C972 C 0.27991 0.20887 0.66528 0.0
H973 H 0.31471 0.3157 0.6776 0.0
H974 H 0.29895 0.28025 0.68382 0.0
H975 H 0.3185 0.23252 0.6359 0.0
H976 H 0.23783 0.15293 0.63557 0.0
H977 H 0.27282 0.1688 0.64695 0.0
C978 C 0.07932 0.98184 0.91349 0.0
C979 C 0.07948 0.97518 0.89217 0.0
C980 C 0.06598 0.99864 0.91979 0.0
C981 C 0.01447 0.01844 0.90695 0.0
H982 H 0.03012 0.07524 0.93036 0.0
C983 C 0.96813 0.09807 0.90075 0.0
C984 C 0.9496 0.09367 0.91245 0.0
C985 C 0.9869 0.08649 0.90447 0.0
C986 C 0.02567 0.05928 0.92417 0.0
H987 H 0.06714 0.98149 0.86054 0.0
H988 H 0.04372 0.01067 0.87162 0.0
H989 H 0.0584 0.04843 0.92399 0.0
H990 H 0.93711 0.07555 0.93884 0.0
H991 H 0.96961 0.05464 0.94453 0.0
H992 H 0.98193 0.02919 0.90669 0.0
C993 C 0.05379 1.00287 0.88338 0.0
C994 C 0.04169 0.04409 0.92054 0.0
C995 C 0.06713 0.98623 0.8771 0.0
C996 C 0.9509 0.07898 0.92922 0.0
C997 C 0.96953 0.06717 0.93269 0.0
C998 C 0.99852 0.03336 0.91095 0.0
C999 C 0.05273 0.00875 0.90479 0.0
C1000 C 0.03614 0.02386 0.91137 0.0
C1001 C 0.98731 0.07034 0.91983 0.0
C1002 C 0.00408 0.05399 0.91913 0.0
H1003 H 0.08867 0.97342 0.92539 0.0
H1004 H 0.06517 1.00297 0.9364 0.0
H1005 H 0.00997 1.00287 0.89985 0.0
H1006 H 0.96776 0.10944 0.88786 0.0
H1007 H 1.00046 0.08889 0.89423 0.0
C1008 C 0.34619 0.30175 0.20313 0.0
C1009 C 0.35745 0.29691 0.18479 0.0
C1010 C 0.34018 0.28534 0.21661 0.0
C1011 C 0.33637 0.22699 0.2259 0.0
H1012 H 0.3597 0.24477 0.28102 0.0
C1013 C 0.35473 0.17047 0.29664 0.0
C1014 C 0.35021 0.17898 0.31677 0.0
C1015 C 0.35144 0.18297 0.2787 0.0
C1016 C 0.35278 0.23968 0.26583 0.0
H1017 H 0.36987 0.27121 0.16507 0.0
H1018 H 0.36011 0.2422 0.18944 0.0
H1019 H 0.36066 0.26999 0.25212 0.0
H1020 H 0.33764 0.20668 0.33372 0.0
H1021 H 0.33131 0.22807 0.3025 0.0
H1022 H 0.3289 0.19634 0.23993 0.0
C1023 C 0.35555 0.25869 0.19304 0.0
C1024 C 0.35334 0.25409 0.2493 0.0
C1025 C 0.36124 0.27522 0.17924 0.0
C1026 C 0.34124 0.19962 0.3185 0.0
C1027 C 0.33772 0.21194 0.30063 0.0
C1028 C 0.33578 0.21243 0.24262 0.0
C1029 C 0.34586 0.26387 0.21225 0.0
C1030 C 0.3449 0.24801 0.22929 0.0
C1031 C 0.34352 0.20404 0.2807 0.0
C1032 C 0.34377 0.21885 0.26275 0.0
H1033 H 0.34298 0.31831 0.20767 0.0
H1034 H 0.33239 0.28962 0.23121 0.0
H1035 H 0.32997 0.222 0.21048 0.0
H1036 H 0.36149 0.1545 0.2948 0.0
H1037 H 0.35612 0.17662 0.26346 0.0
C1038 C 0.0838 0.06361 0.56077 0.0
C1039 C 0.0975 0.082 0.56103 0.0
C1040 C 0.0701 0.05931 0.54335 0.0
C1041 C 0.05289 0.07866 0.49033 0.0
H1042 H 0.99745 0.08408 0.51676 0.0
C1043 C 0.98289 0.12251 0.44996 0.0
C1044 C 0.96186 0.11465 0.45286 0.0
C1045 C 1.0001 0.11378 0.46135 0.0
C1046 C 0.01264 0.08209 0.50894 0.0
H1047 H 0.11046 0.10791 0.54187 0.0
H1048 H 0.08643 0.10063 0.51186 0.0
H1049 H 0.02836 0.07294 0.53767 0.0
H1050 H 0.9421 0.09191 0.47009 0.0
H1051 H 0.97212 0.07621 0.48946 0.0
H1052 H 0.03718 0.08848 0.46168 0.0
C1053 C 0.08603 0.08962 0.52504 0.0
C1054 C 0.03038 0.07557 0.52094 0.0
C1055 C 0.09973 0.09389 0.54239 0.0
C1056 C 0.95819 0.09835 0.46766 0.0
C1057 C 0.97541 0.08935 0.47876 0.0
C1058 C 0.03504 0.08496 0.47823 0.0
C1059 C 0.07003 0.07332 0.52605 0.0
C1060 C 0.05082 0.07451 0.51194 0.0
C1061 C 0.99659 0.09683 0.47561 0.0
C1062 C 0.01489 0.08749 0.48761 0.0
H1063 H 0.08214 0.05377 0.5747 0.0
H1064 H 0.05819 0.04632 0.54425 0.0
H1065 H 0.06848 0.07793 0.48303 0.0
H1066 H 0.98607 0.13516 0.43868 0.0
H1067 H 0.01614 0.12035 0.45899 0.0
C1068 C 0.19237 0.84469 0.81071 0.0
C1069 C 0.17285 0.84614 0.82128 0.0
C1070 C 0.19635 0.82649 0.79805 0.0
C1071 C 0.18021 0.76997 0.78808 0.0
H1072 H 0.18161 0.78292 0.72831 0.0
C1073 C 0.14267 0.71309 0.72566 0.0
C1074 C 0.15247 0.71071 0.70606 0.0
C1075 C 0.15076 0.72824 0.74044 0.0
C1076 C 0.1818 0.77893 0.74493 0.0
H1077 H 0.14258 0.82997 0.82796 0.0
H1078 H 0.14971 0.79794 0.80632 0.0
H1079 H 0.18756 0.81203 0.75441 0.0
H1080 H 0.17834 0.72209 0.68637 0.0
H1081 H 0.19258 0.7487 0.71235 0.0
H1082 H 0.17354 0.73706 0.77871 0.0
C1083 C 0.16187 0.81075 0.80762 0.0
C1084 C 0.18526 0.79558 0.75983 0.0
C1085 C 0.15768 0.82909 0.81974 0.0
C1086 C 0.17042 0.72379 0.70136 0.0
C1087 C 0.17858 0.73893 0.71622 0.0
C1088 C 0.17693 0.7533 0.77322 0.0
C1089 C 0.18105 0.80946 0.79644 0.0
C1090 C 0.18353 0.79133 0.78144 0.0
C1091 C 0.16888 0.74121 0.73594 0.0
C1092 C 0.1767 0.75782 0.7515 0.0
H1093 H 0.20423 0.85777 0.81187 0.0
H1094 H 0.21117 0.82576 0.78939 0.0
H1095 H 0.17894 0.76641 0.80474 0.0
H1096 H 0.12877 0.70321 0.72961 0.0
H1097 H 0.14257 0.73 0.75528 0.0
C1098 C 0.53301 0.88858 0.94404 0.0
C1099 C 0.55443 0.88643 0.95112 0.0
C1100 C 0.51693 0.89256 0.95852 0.0
C1101 C 0.50585 0.88539 0.01441 0.0
H1102 H 0.46066 0.92711 0.00485 0.0
C1103 C 0.45049 0.9107 0.07978 0.0
C1104 C 0.4286 0.90622 0.07523 0.0
C1105 C 0.46523 0.91087 0.06363 0.0
C1106 C 0.4732 0.9154 0.00755 0.0
H1107 H 0.57618 0.88731 0.97848 0.0
H1108 H 0.54821 0.89453 0.00369 0.0
H1109 H 0.48811 0.92186 0.97807 0.0
H1110 H 0.40466 0.90008 0.05016 0.0
H1111 H 0.43072 0.90054 0.02179 0.0
H1112 H 0.49121 0.87913 0.04394 0.0
C1113 C 0.54372 0.89277 0.9871 0.0
C1114 C 0.48876 0.91232 0.99231 0.0
C1115 C 0.55971 0.88873 0.97269 0.0
C1116 C 0.4215 0.90331 0.05411 0.0
C1117 C 0.43629 0.90372 0.03791 0.0
C1118 C 0.4905 0.88861 0.02965 0.0
C1119 C 0.52218 0.89443 0.98018 0.0
C1120 C 0.50528 0.89741 0.99575 0.0
C1121 C 0.45827 0.90684 0.04272 0.0
C1122 C 0.47422 0.90373 0.02638 0.0
H1123 H 0.52867 0.88692 0.92741 0.0
H1124 H 0.50039 0.89366 0.95286 0.0
H1125 H 0.51814 0.87343 0.0172 0.0
H1126 H 0.45642 0.91319 0.09588 0.0
H1127 H 0.48219 0.91346 0.06753 0.0
C1128 C 0.31343 0.83029 0.19089 0.0
C1129 C 0.33139 0.84444 0.19325 0.0
C1130 C 0.30891 0.81516 0.20643 0.0
C1131 C 0.3187 0.77404 0.23003 0.0
H1132 H 0.33129 0.78237 0.28988 0.0
C1133 C 0.35467 0.70788 0.28221 0.0
C1134 C 0.34997 0.70786 0.30376 0.0
C1135 C 0.34628 0.72389 0.26916 0.0
C1136 C 0.32725 0.77969 0.2733 0.0
H1137 H 0.35719 0.85542 0.21478 0.0
H1138 H 0.34943 0.82903 0.24169 0.0
H1139 H 0.32587 0.81376 0.26773 0.0
H1140 H 0.33158 0.72317 0.32836 0.0
H1141 H 0.31643 0.75074 0.30549 0.0
H1142 H 0.32044 0.73995 0.23554 0.0
C1143 C 0.3388 0.82955 0.22789 0.0
C1144 C 0.32437 0.79773 0.26058 0.0
C1145 C 0.34332 0.84468 0.21238 0.0
C1146 C 0.33579 0.72319 0.31184 0.0
C1147 C 0.32714 0.73896 0.29876 0.0
C1148 C 0.32146 0.75597 0.24278 0.0
C1149 C 0.32218 0.814 0.22463 0.0
C1150 C 0.32078 0.79511 0.23872 0.0
C1151 C 0.3328 0.7399 0.27743 0.0
C1152 C 0.32645 0.75864 0.26443 0.0
H1153 H 0.30368 0.82992 0.17646 0.0
H1154 H 0.29573 0.80364 0.2037 0.0
H1155 H 0.31621 0.77147 0.21318 0.0
H1156 H 0.3655 0.6961 0.27565 0.0
H1157 H 0.35116 0.72429 0.25285 0.0
C1158 C 0.53776 0.09264 0.56397 0.0
C1159 C 0.55243 0.10788 0.55603 0.0
C1160 C 0.52054 0.08483 0.55129 0.0
C1161 C 0.50084 0.08065 0.49582 0.0
H1162 H 0.44405 0.08398 0.51987 0.0
C1163 C 0.4138 0.10277 0.46296 0.0
C1164 C 0.41326 0.09048 0.44411 0.0
C1165 C 0.42855 0.09803 0.47912 0.0
C1166 C 0.45982 0.08271 0.51303 0.0
H1167 H 0.56099 0.12669 0.52867 0.0
H1168 H 0.53078 0.11338 0.50667 0.0
H1169 H 0.47603 0.08929 0.54268 0.0
H1170 H 0.42591 0.06196 0.42845 0.0
H1171 H 0.4517 0.05383 0.45665 0.0
H1172 H 0.4847 0.07545 0.46597 0.0
C1173 C 0.5327 0.10716 0.52251 0.0
C1174 C 0.47811 0.0856 0.52607 0.0
C1175 C 0.54987 0.11494 0.53516 0.0
C1176 C 0.42617 0.072 0.44264 0.0
C1177 C 0.44098 0.06732 0.45876 0.0
C1178 C 0.48258 0.07771 0.4828 0.0
C1179 C 0.5178 0.09213 0.53048 0.0
C1180 C 0.49875 0.08534 0.51744 0.0
C1181 C 0.44297 0.08089 0.47671 0.0
C1182 C 0.46189 0.07943 0.49118 0.0
H1183 H 0.53958 0.08679 0.57996 0.0
H1184 H 0.50934 0.07314 0.55774 0.0
H1185 H 0.51659 0.08012 0.48882 0.0
H1186 H 0.404 0.11704 0.46465 0.0
H1187 H 0.42981 0.10886 0.49274 0.0
C1188 C 0.13395 0.18493 0.70184 0.0
C1189 C 0.15203 0.17833 0.6908 0.0
C1190 C 0.13507 0.204 0.71386 0.0
C1191 C 0.16915 0.24596 0.73852 0.0
H1192 H 0.12353 0.28363 0.71898 0.0
C1193 C 0.15574 0.32547 0.78095 0.0
C1194 C 0.13513 0.32441 0.78957 0.0
C1195 C 0.16049 0.31233 0.76364 0.0
C1196 C 0.13652 0.27339 0.72433 0.0
H1197 H 0.186 0.184 0.68582 0.0
H1198 H 0.18807 0.21744 0.70708 0.0
H1199 H 0.12691 0.24761 0.70309 0.0
H1200 H 0.10259 0.31145 0.78556 0.0
H1201 H 0.11075 0.28865 0.7554 0.0
H1202 H 0.17802 0.27122 0.76062 0.0
C1203 C 0.17304 0.20823 0.70615 0.0
C1204 C 0.13829 0.25279 0.71547 0.0
C1205 C 0.17186 0.18924 0.69402 0.0
C1206 C 0.11869 0.31222 0.77929 0.0
C1207 C 0.12334 0.29935 0.7619 0.0
C1208 C 0.16727 0.26656 0.74753 0.0
C1209 C 0.15431 0.21634 0.71501 0.0
C1210 C 0.15405 0.23868 0.72313 0.0
C1211 C 0.14454 0.29841 0.75469 0.0
C1212 C 0.15037 0.28004 0.74108 0.0
H1213 H 0.1185 0.17668 0.69947 0.0
H1214 H 0.12056 0.20989 0.72102 0.0
H1215 H 0.18158 0.23533 0.74438 0.0
H1216 H 0.16854 0.33512 0.7885 0.0
H1217 H 0.17689 0.31198 0.75817 0.0
C1218 C 0.97918 0.87718 0.06631 0.0
C1219 C 0.95782 0.88213 0.06076 0.0
C1220 C 0.99576 0.88195 0.05254 0.0
C1221 C 0.00448 0.89085 0.99636 0.0
H1222 H 0.06039 0.91374 0.01536 0.0
C1223 C 0.06664 0.91766 0.93762 0.0
C1224 C 0.0864 0.90699 0.93949 0.0
C1225 C 0.05223 0.91723 0.95408 0.0
C1226 C 0.04484 0.9073 0.00997 0.0
H1227 H 0.93693 0.89649 0.03707 0.0
H1228 H 0.96589 0.90504 0.01311 0.0
H1229 H 0.03205 0.90773 0.04111 0.0
H1230 H 0.10732 0.88902 0.96066 0.0
H1231 H 0.0819 0.88837 0.98959 0.0
H1232 H 0.01712 0.89049 0.9653 0.0
C1233 C 0.96982 0.89713 0.02785 0.0
C1234 C 0.02871 0.9038 0.02461 0.0
C1235 C 0.95327 0.89228 0.04154 0.0
C1236 C 0.09213 0.89723 0.95871 0.0
C1237 C 0.07768 0.89692 0.97528 0.0
C1238 C 0.02046 0.8945 0.98179 0.0
C1239 C 0.99116 0.89176 0.0331 0.0
C1240 C 0.00837 0.89562 0.01788 0.0
C1241 C 0.05738 0.90629 0.97274 0.0
C1242 C 0.0407 0.90284 0.98846 0.0
H1243 H 0.98303 0.86943 0.08114 0.0
H1244 H 0.01205 0.87749 0.05689 0.0
H1245 H 0.98914 0.88402 0.9908 0.0
H1246 H 0.06188 0.92567 0.92316 0.0
H1247 H 0.03673 0.92482 0.95197 0.0
C1248 C 0.32245 0.35657 0.19621 0.0
C1249 C 0.31964 0.35885 0.17428 0.0
C1250 C 0.30469 0.35431 0.20903 0.0
C1251 C 0.24939 0.37007 0.21253 0.0
H1252 H 0.24829 0.32922 0.25862 0.0
C1253 C 0.20394 0.38455 0.28874 0.0
C1254 C 0.19202 0.36719 0.29689 0.0
C1255 C 0.21693 0.38131 0.2714 0.0
C1256 C 0.24822 0.34047 0.24562 0.0
H1257 H 0.29601 0.36075 0.14856 0.0
H1258 H 0.2648 0.35736 0.17124 0.0
H1259 H 0.27616 0.32653 0.23208 0.0
H1260 H 0.1841 0.3329 0.2935 0.0
H1261 H 0.20733 0.32712 0.26325 0.0
H1262 H 0.22196 0.38453 0.22653 0.0
C1263 C 0.28084 0.35701 0.17833 0.0
C1264 C 0.26418 0.33903 0.23058 0.0
C1265 C 0.29866 0.359 0.16542 0.0
C1266 C 0.1932 0.34652 0.28745 0.0
C1267 C 0.20643 0.34322 0.27023 0.0
C1268 C 0.23355 0.37163 0.22768 0.0
C1269 C 0.28376 0.35466 0.20023 0.0
C1270 C 0.26517 0.35413 0.21422 0.0
C1271 C 0.21836 0.36061 0.26208 0.0
C1272 C 0.23317 0.35716 0.24459 0.0
H1273 H 0.33838 0.35691 0.20356 0.0
H1274 H 0.30732 0.35299 0.22595 0.0
H1275 H 0.24995 0.38199 0.20013 0.0
H1276 H 0.20322 0.40065 0.29576 0.0
H1277 H 0.22625 0.3949 0.26557 0.0
C1278 C 0.78949 0.14677 0.85137 0.0
C1279 C 0.80795 0.15758 0.84411 0.0
C1280 C 0.76963 0.14917 0.84093 0.0
C1281 C 0.741 0.18165 0.80036 0.0
H1282 H 0.71504 0.12621 0.78358 0.0
C1283 C 0.69926 0.16499 0.7205 0.0
C1284 C 0.68154 0.15058 0.71921 0.0
C1285 C 0.70964 0.16929 0.73989 0.0
C1286 C 0.72168 0.14189 0.78852 0.0
H1287 H 0.81978 0.18065 0.8214 0.0
H1288 H 0.78543 0.18447 0.80294 0.0
H1289 H 0.74288 0.12764 0.81123 0.0
H1290 H 0.66002 0.13013 0.73705 0.0
H1291 H 0.67841 0.13749 0.77108 0.0
H1292 H 0.72068 0.19565 0.77659 0.0
C1293 C 0.78615 0.17423 0.8167 0.0
C1294 C 0.73763 0.14272 0.80438 0.0
C1295 C 0.80594 0.17177 0.82707 0.0
C1296 C 0.6737 0.1413 0.7377 0.0
C1297 C 0.68421 0.14546 0.7571 0.0
C1298 C 0.7251 0.18081 0.78442 0.0
C1299 C 0.7679 0.16255 0.82319 0.0
C1300 C 0.748 0.16249 0.8099 0.0
C1301 C 0.70255 0.15912 0.75827 0.0
C1302 C 0.71587 0.16081 0.77786 0.0
H1303 H 0.79054 0.1358 0.86457 0.0
H1304 H 0.75576 0.14011 0.84635 0.0
H1305 H 0.74852 0.19716 0.80454 0.0
H1306 H 0.70553 0.1724 0.70643 0.0
H1307 H 0.72392 0.17965 0.74028 0.0
C1308 C 0.09579 0.44158 0.96901 0.0
C1309 C 0.10984 0.42404 0.96893 0.0
C1310 C 0.08979 0.45098 0.98805 0.0
C1311 C 0.11355 0.46224 0.03915 0.0
H1312 H 0.05908 0.4905 0.04794 0.0
C1313 C 0.10733 0.53454 0.09647 0.0
C1314 C 0.09846 0.55266 0.08646 0.0
C1315 C 0.10482 0.5139 0.08733 0.0
C1316 C 0.07431 0.48252 0.04585 0.0
H1317 H 0.12774 0.40165 0.98841 0.0
H1318 H 0.11755 0.4185 0.02195 0.0
H1319 H 0.06107 0.4611 0.02181 0.0
H1320 H 0.07914 0.56324 0.05978 0.0
H1321 H 0.07491 0.52739 0.04366 0.0
H1322 H 0.12715 0.48461 0.06204 0.0
C1323 C 0.11108 0.42482 0.00727 0.0
C1324 C 0.07543 0.46571 0.03097 0.0
C1325 C 0.11687 0.41521 0.98816 0.0
C1326 C 0.08634 0.54965 0.06766 0.0
C1327 C 0.08366 0.52904 0.05862 0.0
C1328 C 0.11243 0.47905 0.05401 0.0
C1329 C 0.09793 0.44313 0.00732 0.0
C1330 C 0.09528 0.45617 0.02679 0.0
C1331 C 0.0932 0.51103 0.06817 0.0
C1332 C 0.09303 0.49001 0.05672 0.0
H1333 H 0.09006 0.44855 0.95433 0.0
H1334 H 0.0799 0.46528 0.98758 0.0
H1335 H 0.12912 0.45534 0.03608 0.0
H1336 H 0.11676 0.53636 0.11103 0.0
H1337 H 0.11232 0.50026 0.09499 0.0
C1338 C 0.80691 0.84997 0.21977 0.0
C1339 C 0.79897 0.8568 0.20007 0.0
C1340 C 0.79269 0.84446 0.23565 0.0
C1341 C 0.73938 0.85799 0.25306 0.0
H1342 H 0.74839 0.81192 0.29335 0.0
C1343 C 0.70647 0.86347 0.33518 0.0
C1344 C 0.69295 0.84631 0.34134 0.0
C1345 C 0.71931 0.86116 0.31764 0.0
C1346 C 0.74561 0.82466 0.28204 0.0
H1347 H 0.77014 0.86242 0.18106 0.0
H1348 H 0.74526 0.85285 0.20885 0.0
H1349 H 0.77036 0.81363 0.26161 0.0
H1350 H 0.68411 0.81257 0.33559 0.0
H1351 H 0.70663 0.80858 0.3044 0.0
H1352 H 0.71514 0.86939 0.27365 0.0
C1353 C 0.76243 0.85192 0.21208 0.0
C1354 C 0.75818 0.82573 0.26404 0.0
C1355 C 0.77664 0.85742 0.19622 0.0
C1356 C 0.69392 0.8262 0.33072 0.0
C1357 C 0.70689 0.82386 0.31308 0.0
C1358 C 0.727 0.85701 0.27104 0.0
C1359 C 0.77033 0.84572 0.23204 0.0
C1360 C 0.75545 0.84269 0.24964 0.0
C1361 C 0.71902 0.84164 0.30602 0.0
C1362 C 0.7304 0.84069 0.28592 0.0
H1363 H 0.82409 0.84924 0.22304 0.0
H1364 H 0.7992 0.84001 0.25098 0.0
H1365 H 0.73704 0.87135 0.24235 0.0
H1366 H 0.70621 0.87915 0.3431 0.0
H1367 H 0.7289 0.87495 0.31267 0.0
C1368 C 0.88414 0.0666 0.98292 0.0
C1369 C 0.89273 0.06246 0.96299 0.0
C1370 C 0.88974 0.05369 1.00004 0.0
C1371 C 0.91009 0.99937 0.01099 0.0
H1372 H 0.91454 0.02113 0.0688 0.0
C1373 C 0.9257 0.94129 0.07734 0.0
C1374 C 0.90854 0.9408 0.09146 0.0
C1375 C 0.92884 0.95911 0.06447 0.0
C1376 C 0.9135 0.01496 0.05269 0.0
H1377 H 0.91433 0.04224 0.94527 0.0
H1378 H 0.92471 0.02019 0.97525 0.0
H1379 H 0.91011 0.04664 0.03974 0.0
H1380 H 0.88286 0.95966 0.10494 0.0
H1381 H 0.88842 0.99083 0.0823 0.0
H1382 H 0.91323 0.96777 0.02384 0.0
C1383 C 0.91322 0.03296 0.97763 0.0
C1384 C 0.91082 0.02946 0.03611 0.0
C1385 C 0.90735 0.04562 0.96048 0.0
C1386 C 0.89607 0.95943 0.09406 0.0
C1387 C 0.89931 0.97734 0.0812 0.0
C1388 C 0.91305 0.985 0.02746 0.0
C1389 C 0.90421 0.03662 0.99751 0.0
C1390 C 0.90879 0.02174 0.01511 0.0
C1391 C 0.91501 0.9768 0.06561 0.0
C1392 C 0.91452 0.99263 0.04844 0.0
H1393 H 0.87284 0.07958 0.9852 0.0
H1394 H 0.88227 0.05673 0.01506 0.0
H1395 H 0.90803 0.99281 0.99509 0.0
H1396 H 0.93588 0.92739 0.0752 0.0
H1397 H 0.94122 0.95851 0.05269 0.0
C1398 C 0.34088 0.62817 0.76919 0.0
C1399 C 0.33908 0.64135 0.78723 0.0
C1400 C 0.33023 0.63362 0.75043 0.0
C1401 C 0.29461 0.67542 0.72587 0.0
H1402 H 0.26568 0.62408 0.70216 0.0
C1403 C 0.20833 0.67073 0.69027 0.0
C1404 C 0.20509 0.65839 0.67161 0.0
C1405 C 0.22872 0.67213 0.69998 0.0
C1406 C 0.27392 0.63856 0.70831 0.0
H1407 H 0.32606 0.67107 0.79986 0.0
H1408 H 0.30633 0.67992 0.76766 0.0
H1409 H 0.29546 0.62004 0.72701 0.0
H1410 H 0.2207 0.63853 0.64802 0.0
H1411 H 0.25614 0.64061 0.66536 0.0
H1412 H 0.27142 0.69374 0.70825 0.0
C1413 C 0.31652 0.66586 0.76746 0.0
C1414 C 0.29115 0.63629 0.72248 0.0
C1415 C 0.32769 0.66072 0.78602 0.0
C1416 C 0.2227 0.64815 0.66242 0.0
C1417 C 0.24297 0.64934 0.67226 0.0
C1418 C 0.27702 0.67766 0.71195 0.0
C1419 C 0.31699 0.65192 0.74968 0.0
C1420 C 0.3014 0.65468 0.73185 0.0
C1421 C 0.24602 0.661 0.69128 0.0
C1422 C 0.26634 0.6592 0.70346 0.0
H1423 H 0.34985 0.61327 0.76981 0.0
H1424 H 0.33148 0.62287 0.73685 0.0
H1425 H 0.30236 0.68993 0.73249 0.0
H1426 H 0.19507 0.67894 0.69758 0.0
H1427 H 0.23072 0.68102 0.71481 0.0
C1428 C 0.10479 0.55698 0.54247 0.0
C1429 C 0.116 0.57691 0.54229 0.0
C1430 C 0.09961 0.54612 0.52358 0.0
C1431 C 0.08305 0.53132 0.48018 0.0
H1432 H 0.13407 0.51598 0.44946 0.0
C1433 C 0.11362 0.46683 0.41249 0.0
C1434 C 0.10442 0.44805 0.42112 0.0
C1435 C 0.1115 0.48689 0.42261 0.0
C1436 C 0.11951 0.52057 0.45738 0.0
H1437 H 0.13009 0.60155 0.52249 0.0
H1438 H 0.12141 0.5821 0.48922 0.0
H1439 H 0.13638 0.54466 0.47629 0.0
H1440 H 0.08486 0.43562 0.44641 0.0
H1441 H 0.0815 0.47043 0.46421 0.0
H1442 H 0.06639 0.50654 0.46199 0.0
C1443 C 0.11651 0.57511 0.50401 0.0
C1444 C 0.12087 0.53696 0.47275 0.0
C1445 C 0.12148 0.58613 0.52295 0.0
C1446 C 0.09237 0.44978 0.43954 0.0
C1447 C 0.09017 0.46979 0.44956 0.0
C1448 C 0.08164 0.51507 0.46469 0.0
C1449 C 0.10572 0.55494 0.50426 0.0
C1450 C 0.10288 0.54176 0.48485 0.0
C1451 C 0.10001 0.48848 0.44141 0.0
C1452 C 0.1001 0.50888 0.45386 0.0
H1453 H 0.10035 0.54957 0.55721 0.0
H1454 H 0.09163 0.53037 0.52415 0.0
H1455 H 0.06895 0.53496 0.48927 0.0
H1456 H 0.12295 0.46595 0.39825 0.0
H1457 H 0.11918 0.50107 0.41599 0.0
C1458 C 0.41163 0.47403 0.05737 0.0
C1459 C 0.3941 0.45949 0.05473 0.0
C1460 C 0.41974 0.48494 0.03996 0.0
C1461 C 0.42012 0.48075 0.98159 0.0
H1462 H 0.43458 0.54211 0.98442 0.0
C1463 C 0.41191 0.5391 0.91323 0.0
C1464 C 0.4251 0.55785 0.91316 0.0
C1465 C 0.41506 0.52347 0.92865 0.0
C1466 C 0.43118 0.52483 0.98346 0.0
H1467 H 0.3704 0.44591 0.03231 0.0
H1468 H 0.38407 0.46537 1.00217 0.0
H1469 H 0.42498 0.52333 0.01652 0.0
H1470 H 0.45402 0.57318 0.92692 0.0
H1471 H 0.45939 0.54585 0.9539 0.0
H1472 H 0.42517 0.48259 0.94829 0.0
C1473 C 0.39208 0.46782 0.01743 0.0
C1474 C 0.42558 0.5141 1.00186 0.0
C1475 C 0.38406 0.45692 0.03475 0.0
C1476 C 0.44323 0.55918 0.92692 0.0
C1477 C 0.44633 0.54357 0.94238 0.0
C1478 C 0.42561 0.4915 0.96318 0.0
C1479 C 0.41035 0.48149 0.01973 0.0
C1480 C 0.41926 0.49214 1.00095 0.0
C1481 C 0.43149 0.52631 0.94415 0.0
C1482 C 0.43052 0.51378 0.96385 0.0
H1483 H 0.41965 0.47625 0.07265 0.0
H1484 H 0.43381 0.49544 0.04222 0.0
H1485 H 0.41584 0.46365 0.98053 0.0
H1486 H 0.39794 0.53743 0.90272 0.0
H1487 H 0.40336 0.5103 0.92961 0.0
C1488 C 0.65977 0.78935 0.84997 0.0
C1489 C 0.67201 0.80872 0.84968 0.0
C1490 C 0.6691 0.76967 0.84475 0.0
C1491 C 0.71909 0.74525 0.82399 0.0
H1492 H 0.70765 0.70204 0.86643 0.0
C1493 C 0.7776 0.67616 0.83907 0.0
C1494 C 0.78423 0.67597 0.86042 0.0
C1495 C 0.75897 0.68704 0.83299 0.0
C1496 C 0.71082 0.71381 0.85428 0.0
H1497 H 0.70323 0.82291 0.84275 0.0
H1498 H 0.71985 0.7885 0.83471 0.0
H1499 H 0.68435 0.73303 0.86334 0.0
H1500 H 0.77627 0.68564 0.89231 0.0
H1501 H 0.74398 0.70473 0.88181 0.0
H1502 H 0.74688 0.72699 0.81644 0.0
C1503 C 0.70289 0.78847 0.83835 0.0
C1504 C 0.69735 0.73149 0.85233 0.0
C1505 C 0.69347 0.80819 0.84324 0.0
C1506 C 0.77147 0.68568 0.87573 0.0
C1507 C 0.75286 0.69638 0.86971 0.0
C1508 C 0.73273 0.72765 0.82611 0.0
C1509 C 0.69093 0.76894 0.83949 0.0
C1510 C 0.70195 0.74793 0.83786 0.0
C1511 C 0.74671 0.69764 0.84825 0.0
C1512 C 0.72929 0.71239 0.84201 0.0
H1513 H 0.64303 0.78935 0.85443 0.0
H1514 H 0.65936 0.75496 0.8454 0.0
H1515 H 0.72275 0.75742 0.81237 0.0
H1516 H 0.78729 0.66875 0.827 0.0
H1517 H 0.75455 0.68777 0.81636 0.0
C1518 C 0.44502 0.42921 0.06906 0.0
C1519 C 0.44757 0.41501 0.08603 0.0
C1520 C 0.46014 0.44572 0.06605 0.0
C1521 C 0.49826 0.47523 0.10267 0.0
H1522 H 0.49206 0.51909 0.05986 0.0
C1523 C 0.52273 0.56057 0.12503 0.0
C1524 C 0.53464 0.57177 0.11002 0.0
C1525 C 0.50994 0.54274 0.11881 0.0
C1526 C 0.49421 0.50704 0.07196 0.0
H1527 H 0.47047 0.40297 0.10926 0.0
H1528 H 0.49788 0.4304 0.1026 0.0
H1529 H 0.48213 0.4819 0.0513 0.0
H1530 H 0.5394 0.57617 0.07661 0.0
H1531 H 0.51866 0.54402 0.06576 0.0
H1532 H 0.51212 0.49978 0.12269 0.0
C1533 C 0.48312 0.43053 0.09318 0.0
C1534 C 0.48822 0.48556 0.06712 0.0
C1535 C 0.46755 0.4145 0.09679 0.0
C1536 C 0.53107 0.56704 0.08849 0.0
C1537 C 0.51899 0.54866 0.0823 0.0
C1538 C 0.50498 0.49641 0.10721 0.0
C1539 C 0.47842 0.44783 0.07955 0.0
C1540 C 0.48941 0.46942 0.08266 0.0
C1541 C 0.50964 0.53536 0.09762 0.0
C1542 C 0.50237 0.51281 0.09222 0.0
H1543 H 0.4303 0.42915 0.05957 0.0
H1544 H 0.45609 0.45791 0.05462 0.0
H1545 H 0.49929 0.4638 0.11543 0.0
H1546 H 0.52467 0.56446 0.14173 0.0
H1547 H 0.50172 0.53379 0.13091 0.0
C1548 C 0.72109 0.31362 0.36522 0.0
C1549 C 0.69945 0.30723 0.36707 0.0
C1550 C 0.73673 0.29809 0.3622 0.0
C1551 C 0.74661 0.24104 0.37188 0.0
H1552 H 0.79407 0.24949 0.3338 0.0
C1553 C 0.80693 0.17494 0.35453 0.0
C1554 C 0.82869 0.18103 0.35778 0.0
C1555 C 0.79113 0.19056 0.35396 0.0
C1556 C 0.78092 0.2471 0.34454 0.0
H1557 H 0.67685 0.27998 0.36665 0.0
H1558 H 0.70422 0.25278 0.36116 0.0
H1559 H 0.76563 0.27643 0.33538 0.0
H1560 H 0.85112 0.2082 0.36227 0.0
H1561 H 0.82319 0.23572 0.36114 0.0
H1562 H 0.7618 0.21168 0.38095 0.0
C1563 C 0.70913 0.26971 0.36235 0.0
C1564 C 0.76475 0.26241 0.34546 0.0
C1565 C 0.69352 0.28523 0.36543 0.0
C1566 C 0.83445 0.20309 0.35987 0.0
C1567 C 0.81858 0.21878 0.35909 0.0
C1568 C 0.76266 0.2257 0.37084 0.0
C1569 C 0.73088 0.27601 0.36096 0.0
C1570 C 0.74754 0.25952 0.35922 0.0
C1571 C 0.79684 0.21251 0.35645 0.0
C1572 C 0.77992 0.22869 0.35723 0.0
H1573 H 0.72596 0.33056 0.36638 0.0
H1574 H 0.75345 0.3033 0.36139 0.0
H1575 H 0.73371 0.23866 0.3829 0.0
H1576 H 0.80196 0.15807 0.35283 0.0
H1577 H 0.77442 0.18548 0.35175 0.0
C1578 C 0.06183 0.58031 0.58293 0.0
C1579 C 0.06388 0.59171 0.60227 0.0
C1580 C 0.04574 0.56454 0.57995 0.0
C1581 C 0.99858 0.53862 0.6046 0.0
H1582 H 0.02876 0.48532 0.59255 0.0
C1583 C 0.97021 0.46 0.63858 0.0
C1584 C 0.96462 0.44396 0.62346 0.0
C1585 C 0.98326 0.47742 0.63307 0.0
C1586 C 0.02011 0.5001 0.59566 0.0
H1587 H 0.04915 0.59789 0.63246 0.0
H1588 H 0.02117 0.57023 0.62739 0.0
H1589 H 0.04584 0.52023 0.58501 0.0
H1590 H 0.97037 0.43164 0.59183 0.0
H1591 H 0.99333 0.4624 0.58215 0.0
H1592 H 0.97338 0.51842 0.61631 0.0
C1593 C 0.03192 0.57338 0.6145 0.0
C1594 C 0.0297 0.52003 0.59116 0.0
C1595 C 0.048 0.58919 0.61747 0.0
C1596 C 0.9743 0.44408 0.60362 0.0
C1597 C 0.98737 0.46159 0.59808 0.0
C1598 C 0.9891 0.51873 0.60922 0.0
C1599 C 0.03151 0.56008 0.59626 0.0
C1600 C 0.01928 0.53946 0.59626 0.0
C1601 C 0.99084 0.47888 0.61244 0.0
C1602 C 1.00015 0.49944 0.60544 0.0
H1603 H 0.07359 0.58242 0.57072 0.0
H1604 H 0.04543 0.55476 0.56558 0.0
H1605 H 0.99018 0.55336 0.60845 0.0
H1606 H 0.9632 0.45997 0.65411 0.0
H1607 H 0.98632 0.49042 0.64451 0.0
C1608 C 0.77415 0.33775 0.65914 0.0
C1609 C 0.77976 0.33642 0.63781 0.0
C1610 C 0.75594 0.3266 0.66611 0.0
C1611 C 0.73058 0.28543 0.67615 0.0
H1612 H 0.68021 0.27511 0.63982 0.0
C1613 C 0.69141 0.20222 0.66434 0.0
C1614 C 0.66969 0.20029 0.65784 0.0
C1615 C 0.70075 0.22263 0.66831 0.0
C1616 C 0.69379 0.27806 0.65059 0.0
H1617 H 0.77039 0.32373 0.60679 0.0
H1618 H 0.73874 0.30427 0.61882 0.0
H1619 H 0.70309 0.30667 0.63421 0.0
H1620 H 0.64018 0.21789 0.65225 0.0
H1621 H 0.65639 0.25351 0.65963 0.0
H1622 H 0.72164 0.25642 0.69213 0.0
C1623 C 0.74812 0.31398 0.63022 0.0
C1624 C 0.70702 0.29607 0.64719 0.0
C1625 C 0.76634 0.32494 0.62333 0.0
C1626 C 0.65711 0.21897 0.65678 0.0
C1627 C 0.66637 0.23935 0.66104 0.0
C1628 C 0.71722 0.26749 0.67968 0.0
C1629 C 0.74305 0.31421 0.65175 0.0
C1630 C 0.72613 0.29924 0.65918 0.0
C1631 C 0.68846 0.24146 0.66613 0.0
C1632 C 0.69933 0.26302 0.66621 0.0
H1633 H 0.78439 0.34647 0.67059 0.0
H1634 H 0.75235 0.32702 0.68278 0.0
H1635 H 0.74525 0.28745 0.68563 0.0
H1636 H 0.70148 0.18809 0.66538 0.0
H1637 H 0.71789 0.22364 0.67187 0.0
C1638 C 0.96546 0.55409 0.90892 0.0
C1639 C 0.96539 0.57189 0.89545 0.0
C1640 C 0.9841 0.54243 0.91211 0.0
C1641 C 0.0271 0.52537 0.88038 0.0
H1642 H 0.04229 0.49283 0.93044 0.0
C1643 C 0.08493 0.45334 0.88141 0.0
C1644 C 0.07803 0.43522 0.89274 0.0
C1645 C 0.0733 0.47233 0.88195 0.0
C1646 C 0.03812 0.50181 0.91637 0.0
H1647 H 0.9849 0.59262 0.87584 0.0
H1648 H 0.01772 0.5716 0.88091 0.0
H1649 H 0.02133 0.52582 0.93391 0.0
H1650 H 0.05347 0.42196 0.91277 0.0
H1651 H 0.03273 0.45553 0.91374 0.0
H1652 H 0.04321 0.50093 0.86276 0.0
C1653 C 1.00333 0.56693 0.88921 0.0
C1654 C 0.02643 0.52074 0.91838 0.0
C1655 C 0.98464 0.57888 0.88631 0.0
C1656 C 0.0588 0.4358 0.90379 0.0
C1657 C 0.04723 0.45498 0.90456 0.0
C1658 C 0.03888 0.5065 0.87839 0.0
C1659 C 1.00292 0.54816 0.90153 0.0
C1660 C 0.02015 0.53219 0.90031 0.0
C1661 C 0.05476 0.47348 0.89406 0.0
C1662 C 0.0438 0.49423 0.8963 0.0
H1663 H 0.95084 0.54829 0.91601 0.0
H1664 H 0.98321 0.52784 0.92142 0.0
H1665 H 0.02214 0.5337 0.86616 0.0
H1666 H 0.09984 0.45307 0.87282 0.0
H1667 H 0.07936 0.4864 0.87375 0.0
C1668 C 0.81747 0.79914 0.16792 0.0
C1669 C 0.83662 0.8002 0.15655 0.0
C1670 C 0.80862 0.7792 0.17343 0.0
C1671 C 0.80533 0.72395 0.1538 0.0
H1672 H 0.76924 0.71761 0.20262 0.0
C1673 C 0.73493 0.66376 0.1515 0.0
C1674 C 0.71592 0.67551 0.15354 0.0
C1675 C 0.75462 0.6728 0.15865 0.0
C1676 C 0.77959 0.71889 0.18913 0.0
H1677 H 0.86203 0.78111 0.14289 0.0
H1678 H 0.84636 0.74614 0.15247 0.0
H1679 H 0.79672 0.74643 0.20238 0.0
H1680 H 0.70206 0.70489 0.16605 0.0
H1681 H 0.7362 0.72055 0.17868 0.0
H1682 H 0.78724 0.69742 0.13994 0.0
C1683 C 0.83822 0.76083 0.15698 0.0
C1684 C 0.7952 0.73541 0.18892 0.0
C1685 C 0.84712 0.78085 0.15145 0.0
C1686 C 0.71654 0.69557 0.16423 0.0
C1687 C 0.73607 0.70442 0.17166 0.0
C1688 C 0.78981 0.70736 0.15406 0.0
C1689 C 0.81871 0.75982 0.16776 0.0
C1690 C 0.80727 0.73889 0.17072 0.0
C1691 C 0.75538 0.69349 0.16825 0.0
C1692 C 0.77597 0.70555 0.1712 0.0
H1693 H 0.80902 0.8137 0.17227 0.0
H1694 H 0.79333 0.77899 0.18134 0.0
H1695 H 0.8143 0.72626 0.1395 0.0
H1696 H 0.73476 0.6482 0.14333 0.0
H1697 H 0.76932 0.66412 0.15581 0.0
C1698 C 0.56707 0.49218 0.37777 0.0
C1699 C 0.57618 0.47855 0.39292 0.0
C1700 C 0.55536 0.51006 0.38404 0.0
C1701 C 0.53649 0.55099 0.40069 0.0
H1702 H 0.49007 0.53531 0.43781 0.0
C1703 C 0.46103 0.60222 0.40352 0.0
C1704 C 0.44182 0.58996 0.40125 0.0
C1705 C 0.48025 0.59223 0.40918 0.0
C1706 C 0.50303 0.54001 0.42755 0.0
H1707 H 0.58106 0.47307 0.42645 0.0
H1708 H 0.56025 0.50452 0.43753 0.0
H1709 H 0.52078 0.5115 0.43459 0.0
H1710 H 0.42743 0.55782 0.40379 0.0
H1711 H 0.461 0.54023 0.41286 0.0
H1712 H 0.51798 0.57838 0.3921 0.0
C1713 C 0.56229 0.50137 0.42082 0.0
C1714 C 0.52075 0.52653 0.42594 0.0
C1715 C 0.57422 0.48351 0.4145 0.0
C1716 C 0.442 0.56768 0.40541 0.0
C1717 C 0.46123 0.55765 0.41086 0.0
C1718 C 0.51874 0.56435 0.40217 0.0
C1719 C 0.55246 0.51457 0.40561 0.0
C1720 C 0.5371 0.5314 0.41169 0.0
C1721 C 0.48064 0.56975 0.41243 0.0
C1722 C 0.50136 0.55846 0.41486 0.0
H1723 H 0.56839 0.48864 0.36103 0.0
H1724 H 0.54762 0.51966 0.37194 0.0
H1725 H 0.54907 0.55524 0.38983 0.0
H1726 H 0.46126 0.61954 0.40082 0.0
H1727 H 0.49487 0.60202 0.41057 0.0
C1728 C 0.85638 0.7951 0.70847 0.0
C1729 C 0.86581 0.79325 0.68863 0.0
C1730 C 0.84922 0.77668 0.71878 0.0
C1731 C 0.86289 0.72118 0.7249 0.0
H1732 H 0.81144 0.71953 0.75855 0.0
C1733 C 0.85508 0.66046 0.7913 0.0
C1734 C 0.84971 0.67016 0.81066 0.0
C1735 C 0.85155 0.67132 0.77242 0.0
C1736 C 0.82579 0.71969 0.74913 0.0
H1737 H 0.8749 0.77099 0.6637 0.0
H1738 H 0.86286 0.73844 0.68218 0.0
H1739 H 0.81537 0.74713 0.7315 0.0
H1740 H 0.83525 0.69823 0.82536 0.0
H1741 H 0.82984 0.7175 0.79253 0.0
H1742 H 0.87416 0.69495 0.74344 0.0
C1743 C 0.86077 0.75422 0.68952 0.0
C1744 C 0.82797 0.73537 0.73365 0.0
C1745 C 0.86769 0.77274 0.67904 0.0
C1746 C 0.83976 0.69042 0.81071 0.0
C1747 C 0.83639 0.70135 0.79184 0.0
C1748 C 0.86079 0.70562 0.74046 0.0
C1749 C 0.85163 0.75608 0.70953 0.0
C1750 C 0.84692 0.73673 0.72203 0.0
C1751 C 0.84273 0.69211 0.77258 0.0
C1752 C 0.84261 0.70529 0.75329 0.0
H1753 H 0.85472 0.81078 0.71616 0.0
H1754 H 0.84263 0.7785 0.7344 0.0
H1755 H 0.87776 0.72209 0.7163 0.0
H1756 H 0.86242 0.64466 0.7907 0.0
H1757 H 0.8563 0.6637 0.75777 0.0
C1758 C 0.59918 0.58991 0.04166 0.0
C1759 C 0.59605 0.57929 0.06088 0.0
C1760 C 0.58423 0.58695 0.02511 0.0
C1761 C 0.53333 0.56377 0.00522 0.0
H1762 H 0.51409 0.62296 0.01259 0.0
C1763 C 0.4524 0.59527 0.97056 0.0
C1764 C 0.45502 0.61437 0.95898 0.0
C1765 C 0.46927 0.58787 0.98339 0.0
C1766 C 0.51929 0.60643 0.01029 0.0
H1767 H 0.57832 0.55328 0.07593 0.0
H1768 H 0.55226 0.54816 0.04675 0.0
H1769 H 0.54746 0.61183 0.02963 0.0
H1770 H 0.47661 0.64132 0.95241 0.0
H1771 H 0.50586 0.62866 0.97489 0.0
H1772 H 0.50503 0.55863 0.98549 0.0
C1773 C 0.56576 0.55925 0.04485 0.0
C1774 C 0.53841 0.6001 0.01989 0.0
C1775 C 0.58064 0.56232 0.06158 0.0
C1776 C 0.47421 0.62655 0.9612 0.0
C1777 C 0.49092 0.6193 0.97408 0.0
C1778 C 0.5141 0.57021 0.99535 0.0
C1779 C 0.56624 0.57325 0.02763 0.0
C1780 C 0.54588 0.57894 0.01699 0.0
C1781 C 0.48876 0.59973 0.985 0.0
C1782 C 0.50726 0.59177 0.99746 0.0
H1783 H 0.61141 0.60253 0.04027 0.0
H1784 H 0.58509 0.59755 0.01162 0.0
H1785 H 0.53865 0.54724 0.00326 0.0
H1786 H 0.43767 0.58562 0.96907 0.0
H1787 H 0.46719 0.57285 0.99183 0.0
C1788 C 0.66428 0.21766 0.20348 0.0
C1789 C 0.65168 0.21642 0.18481 0.0
C1790 C 0.66875 0.23765 0.21325 0.0
C1791 C 0.64368 0.28922 0.22074 0.0
H1792 H 0.69672 0.30272 0.2522 0.0
C1793 C 0.64615 0.35333 0.28738 0.0
C1794 C 0.65483 0.34529 0.30638 0.0
C1795 C 0.64955 0.34249 0.26824 0.0
C1796 C 0.68186 0.29928 0.24337 0.0
H1797 H 0.63456 0.23498 0.16113 0.0
H1798 H 0.64217 0.27014 0.17849 0.0
H1799 H 0.69615 0.27404 0.22518 0.0
H1800 H 0.67489 0.32031 0.32004 0.0
H1801 H 0.68043 0.30135 0.28689 0.0
H1802 H 0.62899 0.3134 0.23983 0.0
C1803 C 0.64866 0.25562 0.18545 0.0
C1804 C 0.68156 0.28293 0.22792 0.0
C1805 C 0.64436 0.23557 0.17553 0.0
C1806 C 0.66778 0.32684 0.30573 0.0
C1807 C 0.67121 0.3161 0.28666 0.0
C1808 C 0.64396 0.30553 0.23624 0.0
C1809 C 0.66054 0.25676 0.20462 0.0
C1810 C 0.66225 0.27717 0.21709 0.0
C1811 C 0.66178 0.32354 0.26777 0.0
C1812 C 0.66283 0.31006 0.24832 0.0
H1813 H 0.67004 0.20312 0.21099 0.0
H1814 H 0.67762 0.23798 0.2282 0.0
H1815 H 0.62851 0.28497 0.21279 0.0
H1816 H 0.63623 0.3676 0.28733 0.0
H1817 H 0.64222 0.34865 0.25389 0.0
C1818 C 0.04631 0.38861 0.46901 0.0
C1819 C 0.04837 0.39537 0.44808 0.0
C1820 C 0.02952 0.3961 0.4812 0.0
C1821 C 0.97532 0.41795 0.47779 0.0
H1822 H 0.98704 0.43085 0.53715 0.0
C1823 C 0.93081 0.43701 0.56225 0.0
C1824 C 0.91558 0.41985 0.56123 0.0
C1825 C 0.94495 0.44027 0.54573 0.0
C1826 C 0.98345 0.42782 0.52053 0.0
H1827 H 0.0346 0.41518 0.42336 0.0
H1828 H 0.00501 0.42833 0.4448 0.0
H1829 H 0.01679 0.42434 0.51379 0.0
H1830 H 0.90181 0.39408 0.54116 0.0
H1831 H 0.92659 0.39956 0.51257 0.0
H1832 H 0.94188 0.421 0.4847 0.0
C1833 C 0.01638 0.41715 0.45169 0.0
C1834 C 1.00052 0.42377 0.50721 0.0
C1835 C 0.03326 0.40965 0.43945 0.0
C1836 C 0.91343 0.40737 0.54252 0.0
C1837 C 0.92761 0.4106 0.52603 0.0
C1838 C 0.95819 0.42203 0.49115 0.0
C1839 C 0.01446 0.41055 0.47273 0.0
C1840 C 0.99659 0.41808 0.48589 0.0
C1841 C 0.94412 0.42646 0.52787 0.0
C1842 C 0.96205 0.42633 0.5128 0.0
H1843 H 0.05771 0.37754 0.47603 0.0
H1844 H 0.0282 0.39034 0.49722 0.0
H1845 H 0.97182 0.41359 0.46142 0.0
H1846 H 0.9326 0.4472 0.57629 0.0
H1847 H 0.95723 0.45292 0.54741 0.0
C1848 C 0.85641 0.33757 0.70387 0.0
C1849 C 0.84559 0.33353 0.68443 0.0
C1850 C 0.85396 0.32326 0.72048 0.0
C1851 C 0.84383 0.26613 0.72768 0.0
H1852 H 0.84357 0.2817 0.78728 0.0
C1853 C 0.84898 0.20161 0.79126 0.0
C1854 C 0.86352 0.2061 0.80811 0.0
C1855 C 0.84314 0.21791 0.77743 0.0
C1856 C 0.84371 0.27718 0.77069 0.0
H1857 H 0.82236 0.31249 0.66763 0.0
H1858 H 0.81807 0.28749 0.69678 0.0
H1859 H 0.83847 0.30977 0.7608 0.0
H1860 H 0.88338 0.2309 0.82396 0.0
H1861 H 0.87372 0.25942 0.79922 0.0
H1862 H 0.84991 0.2338 0.73735 0.0
C1863 C 0.82872 0.30149 0.69897 0.0
C1864 C 0.84071 0.29317 0.7556 0.0
C1865 C 0.83122 0.31575 0.68233 0.0
C1866 C 0.87206 0.22714 0.81107 0.0
C1867 C 0.86639 0.24344 0.79706 0.0
C1868 C 0.8469 0.25021 0.74271 0.0
C1869 C 0.84058 0.30478 0.71792 0.0
C1870 C 0.84104 0.28778 0.73399 0.0
C1871 C 0.85199 0.2389 0.78005 0.0
C1872 C 0.84715 0.25563 0.76433 0.0
H1873 H 0.86754 0.3512 0.70595 0.0
H1874 H 0.86345 0.32602 0.73488 0.0
H1875 H 0.84462 0.26163 0.71111 0.0
H1876 H 0.84212 0.18549 0.78871 0.0
H1877 H 0.8318 0.21404 0.7646 0.0
C1878 C 0.90563 0.59682 0.96089 0.0
C1879 C 0.9058 0.58329 0.9428 0.0
C1880 C 0.91949 0.59295 0.978 0.0
C1881 C 0.97334 0.57597 0.9831 0.0
H1882 H 0.96654 0.58605 0.04317 0.0
C1883 C 0.04709 0.5909 0.03783 0.0
C1884 C 0.04517 0.60622 0.05422 0.0
C1885 C 0.0289 0.58341 0.02647 0.0
C1886 C 0.96872 0.58339 0.02641 0.0
H1887 H 0.91745 0.55302 0.93011 0.0
H1888 H 0.94267 0.54686 0.95967 0.0
H1889 H 0.93474 0.57915 0.02041 0.0
H1890 H 0.02298 0.62632 0.07129 0.0
H1891 H 0.99128 0.61438 0.05053 0.0
H1892 H 0.0069 0.58195 0.98843 0.0
C1893 C 0.93203 0.56059 0.96037 0.0
C1894 C 0.95054 0.57915 0.01349 0.0
C1895 C 0.91786 0.56426 0.94339 0.0
C1896 C 0.02482 0.61432 0.05882 0.0
C1897 C 0.00664 0.60725 0.04708 0.0
C1898 C 0.99143 0.5806 0.99589 0.0
C1899 C 0.93374 0.57557 0.97725 0.0
C1900 C 0.95271 0.57577 0.99169 0.0
C1901 C 0.00846 0.59164 0.03079 0.0
C1902 C 0.98934 0.58477 0.01765 0.0
H1903 H 0.89624 0.61146 0.96115 0.0
H1904 H 0.92051 0.60475 0.99086 0.0
H1905 H 0.97538 0.57392 0.96623 0.0
H1906 H 0.06264 0.58456 0.0338 0.0
H1907 H 0.03095 0.57116 0.0143 0.0
C1908 C 0.65643 0.66892 0.20606 0.0
C1909 C 0.65388 0.67859 0.18624 0.0
C1910 C 0.66332 0.68137 0.22354 0.0
C1911 C 0.68449 0.73587 0.24007 0.0
H1912 H 0.64333 0.72918 0.28475 0.0
C1913 C 0.65237 0.80596 0.28908 0.0
C1914 C 0.64686 0.80217 0.31006 0.0
C1915 C 0.66047 0.78919 0.2768 0.0
C1916 C 0.65539 0.73099 0.27277 0.0
H1917 H 0.65731 0.70849 0.16883 0.0
H1918 H 0.66852 0.73033 0.19941 0.0
H1919 H 0.64533 0.7014 0.25764 0.0
H1920 H 0.64659 0.7786 0.33522 0.0
H1921 H 0.66084 0.74937 0.3138 0.0
H1922 H 0.6934 0.76637 0.25466 0.0
C1923 C 0.66579 0.7131 0.20143 0.0
C1924 C 0.65658 0.71501 0.25723 0.0
C1925 C 0.65904 0.70065 0.18398 0.0
C1926 C 0.65034 0.78176 0.3189 0.0
C1927 C 0.65861 0.76511 0.30673 0.0
C1928 C 0.68325 0.75196 0.25565 0.0
C1929 C 0.66755 0.70366 0.22144 0.0
C1930 C 0.67048 0.71774 0.24027 0.0
C1931 C 0.66326 0.76852 0.28546 0.0
C1932 C 0.66808 0.74998 0.27163 0.0
H1933 H 0.65295 0.65181 0.20812 0.0
H1934 H 0.66472 0.67371 0.2388 0.0
H1935 H 0.69555 0.73816 0.22726 0.0
H1936 H 0.65004 0.8217 0.28207 0.0
H1937 H 0.66363 0.79214 0.26031 0.0
C1938 C 0.58843 0.40095 0.45855 0.0
C1939 C 0.58068 0.40989 0.43957 0.0
C1940 C 0.57649 0.40231 0.47684 0.0
C1941 C 0.5308 0.42987 0.50138 0.0
H1942 H 0.52391 0.37532 0.53051 0.0
C1943 C 0.45781 0.40774 0.55066 0.0
C1944 C 0.46091 0.39569 0.56908 0.0
C1945 C 0.47516 0.41285 0.53801 0.0
C1946 C 0.52604 0.3908 0.52287 0.0
H1947 H 0.55478 0.4282 0.42518 0.0
H1948 H 0.53366 0.4302 0.45713 0.0
H1949 H 0.54923 0.37803 0.50188 0.0
H1950 H 0.48451 0.38013 0.58928 0.0
H1951 H 0.51505 0.38886 0.56686 0.0
H1952 H 0.50684 0.44228 0.52188 0.0
C1953 C 0.54912 0.42232 0.45785 0.0
C1954 C 0.54052 0.39236 0.50645 0.0
C1955 C 0.56112 0.42102 0.43951 0.0
C1956 C 0.48177 0.38948 0.57512 0.0
C1957 C 0.49916 0.39439 0.56231 0.0
C1958 C 0.51626 0.42828 0.51778 0.0
C1959 C 0.55651 0.4126 0.47657 0.0
C1960 C 0.54275 0.41179 0.49529 0.0
C1961 C 0.4959 0.40581 0.54347 0.0
C1962 C 0.51346 0.4086 0.52837 0.0
H1963 H 0.60356 0.39246 0.45924 0.0
H1964 H 0.58273 0.39498 0.49112 0.0
H1965 H 0.53244 0.44512 0.49322 0.0
H1966 H 0.44188 0.41273 0.54565 0.0
H1967 H 0.47213 0.4214 0.52343 0.0
C1968 C 0.8145 0.83542 0.68627 0.0
C1969 C 0.81705 0.85417 0.67426 0.0
C1970 C 0.79566 0.83191 0.6974 0.0
C1971 C 0.74018 0.8529 0.70444 0.0
H1972 H 0.7495 0.83362 0.76196 0.0
C1973 C 0.6922 0.87909 0.77652 0.0
C1974 C 0.68558 0.86285 0.79033 0.0
C1975 C 0.70464 0.87383 0.75921 0.0
C1976 C 0.74659 0.83861 0.7458 0.0
H1977 H 0.80192 0.88373 0.66388 0.0
H1978 H 0.76953 0.87822 0.68398 0.0
H1979 H 0.7788 0.83187 0.73721 0.0
H1980 H 0.68607 0.82842 0.79689 0.0
H1981 H 0.70859 0.81934 0.76687 0.0
H1982 H 0.7084 0.86125 0.71386 0.0
C1983 C 0.78163 0.86578 0.68438 0.0
C1984 C 0.76332 0.83754 0.73157 0.0
C1985 C 0.80028 0.86907 0.673 0.0
C1986 C 0.69093 0.84118 0.78631 0.0
C1987 C 0.70377 0.83599 0.76925 0.0
C1988 C 0.72359 0.85433 0.71883 0.0
C1989 C 0.77921 0.8473 0.69695 0.0
C1990 C 0.76048 0.84522 0.71088 0.0
C1991 C 0.71092 0.85234 0.75579 0.0
C1992 C 0.72688 0.84763 0.73969 0.0
H1993 H 0.82704 0.8235 0.68706 0.0
H1994 H 0.79415 0.8173 0.7066 0.0
H1995 H 0.73733 0.8585 0.6885 0.0
H1996 H 0.6882 0.8959 0.77938 0.0
H1997 H 0.71026 0.8867 0.74912 0.0
C1998 C 0.21594 0.62657 0.20674 0.0
C1999 C 0.19579 0.63645 0.20626 0.0
C2000 C 0.23098 0.63197 0.22267 0.0
C2001 C 0.24706 0.67427 0.26095 0.0
H2002 H 0.27614 0.62702 0.28882 0.0
C2003 C 0.30123 0.68152 0.33699 0.0
C2004 C 0.31887 0.66769 0.33779 0.0
C2005 C 0.28724 0.68091 0.31938 0.0
C2006 C 0.26841 0.64041 0.28094 0.0
H2007 H 0.17534 0.65961 0.22187 0.0
H2008 H 0.20182 0.6691 0.24986 0.0
H2009 H 0.24864 0.61896 0.2618 0.0
H2010 H 0.33672 0.6433 0.32107 0.0
H2011 H 0.31282 0.64277 0.28993 0.0
H2012 H 0.26695 0.69571 0.28034 0.0
C2013 C 0.20596 0.65732 0.23782 0.0
C2014 C 0.25263 0.63577 0.26558 0.0
C2015 C 0.19083 0.6518 0.22194 0.0
C2016 C 0.32325 0.65424 0.3205 0.0
C2017 C 0.30951 0.65383 0.30286 0.0
C2018 C 0.26298 0.67894 0.27639 0.0
C2019 C 0.22611 0.64738 0.23831 0.0
C2020 C 0.24202 0.65262 0.25528 0.0
C2021 C 0.29084 0.66636 0.3026 0.0
C2022 C 0.27398 0.662 0.28626 0.0
H2023 H 0.22012 0.61474 0.19477 0.0
H2024 H 0.24652 0.62423 0.22265 0.0
H2025 H 0.23904 0.68751 0.25313 0.0
H2026 H 0.29758 0.69176 0.35044 0.0
H2027 H 0.27289 0.69064 0.31957 0.0
C2028 C 0.60971 0.03905 0.5994 0.0
C2029 C 0.60469 0.0578 0.588 0.0
C2030 C 0.60505 0.01853 0.59076 0.0
C2031 C 0.61061 0.98097 0.56006 0.0
H2032 H 0.56274 0.97142 0.52035 0.0
C2033 C 0.6049 0.95174 0.47288 0.0
C2034 C 0.61263 0.93052 0.47277 0.0
C2035 C 0.59782 0.96107 0.49148 0.0
C2036 C 0.57589 0.97354 0.5318 0.0
H2037 H 0.59014 0.06974 0.55896 0.0
H2038 H 0.58261 0.03407 0.54371 0.0
H2039 H 0.56115 1.00066 0.54666 0.0
H2040 H 0.61916 0.90233 0.49183 0.0
H2041 H 0.60766 0.91932 0.52498 0.0
H2042 H 0.62595 0.95482 0.54416 0.0
C2043 C 0.58976 0.03517 0.55948 0.0
C2044 C 0.57508 0.99031 0.54669 0.0
C2045 C 0.59443 0.05564 0.56806 0.0
C2046 C 0.61315 0.91871 0.49158 0.0
C2047 C 0.60649 0.92829 0.51042 0.0
C2048 C 0.61133 0.96408 0.54526 0.0
C2049 C 0.59524 0.01642 0.57063 0.0
C2050 C 0.59304 0.99504 0.55997 0.0
C2051 C 0.5988 0.94954 0.51041 0.0
C2052 C 0.59456 0.96121 0.53021 0.0
H2053 H 0.61748 0.04018 0.61489 0.0
H2054 H 0.60943 0.00433 0.59967 0.0
H2055 H 0.62472 0.98426 0.57006 0.0
H2056 H 0.60446 0.96123 0.45859 0.0
H2057 H 0.59247 0.97771 0.49123 0.0
C2058 C 0.31006 0.37335 0.72678 0.0
C2059 C 0.30539 0.36305 0.70726 0.0
C2060 C 0.29788 0.36849 0.74438 0.0
C2061 C 0.26202 0.32679 0.76626 0.0
H2062 H 0.24328 0.3743 0.80172 0.0
C2063 C 0.19404 0.32149 0.82704 0.0
C2064 C 0.19555 0.33553 0.84477 0.0
C2065 C 0.21032 0.32142 0.81218 0.0
C2066 C 0.24876 0.36079 0.79225 0.0
H2067 H 0.28435 0.33975 0.69066 0.0
H2068 H 0.26298 0.33123 0.72152 0.0
H2069 H 0.26497 0.38195 0.77115 0.0
H2070 H 0.21679 0.35802 0.86234 0.0
H2071 H 0.24526 0.35748 0.83666 0.0
H2072 H 0.24531 0.30568 0.78724 0.0
C2073 C 0.27619 0.34289 0.72324 0.0
C2074 C 0.26111 0.36521 0.77468 0.0
C2075 C 0.2883 0.34786 0.70558 0.0
C2076 C 0.21488 0.34729 0.8487 0.0
C2077 C 0.23115 0.34715 0.83389 0.0
C2078 C 0.24962 0.32236 0.7839 0.0
C2079 C 0.28086 0.35317 0.74281 0.0
C2080 C 0.26785 0.34828 0.7615 0.0
C2081 C 0.22845 0.3352 0.81493 0.0
C2082 C 0.24289 0.33934 0.79708 0.0
H2083 H 0.32316 0.38514 0.72847 0.0
H2084 H 0.30194 0.37655 0.7593 0.0
H2085 H 0.26718 0.31341 0.75644 0.0
H2086 H 0.17953 0.31194 0.82367 0.0
H2087 H 0.20783 0.31193 0.79776 0.0
C2088 C 0.40142 0.43729 0.55899 0.0
C2089 C 0.39552 0.43993 0.58014 0.0
C2090 C 0.40307 0.45505 0.54592 0.0
C2091 C 0.40914 0.51391 0.54418 0.0
H2092 H 0.38343 0.5047 0.48822 0.0
C2093 C 0.39508 0.57883 0.47917 0.0
C2094 C 0.39931 0.57174 0.45853 0.0
C2095 C 0.39743 0.56463 0.49603 0.0
C2096 C 0.39085 0.50742 0.50373 0.0
H2097 H 0.38698 0.4634 0.6043 0.0
H2098 H 0.38938 0.49473 0.58097 0.0
H2099 H 0.38052 0.47637 0.51429 0.0
H2100 H 0.4113 0.54533 0.43938 0.0
H2101 H 0.41559 0.52067 0.46881 0.0
H2102 H 0.41924 0.54527 0.53334 0.0
C2103 C 0.39303 0.47877 0.57479 0.0
C2104 C 0.38915 0.49126 0.51864 0.0
C2105 C 0.39152 0.46087 0.58803 0.0
C2106 C 0.4077 0.55106 0.45515 0.0
C2107 C 0.4101 0.53696 0.47193 0.0
C2108 C 0.41073 0.53026 0.52918 0.0
C2109 C 0.39851 0.47588 0.55355 0.0
C2110 C 0.3987 0.49413 0.53881 0.0
C2111 C 0.40406 0.54332 0.4923 0.0
C2112 C 0.40202 0.52685 0.50872 0.0
H2113 H 0.40443 0.42142 0.55228 0.0
H2114 H 0.40769 0.45242 0.52969 0.0
H2115 H 0.41661 0.51644 0.55968 0.0
H2116 H 0.38861 0.59477 0.4821 0.0
H2117 H 0.39266 0.56981 0.51165 0.0
C2118 C 0.71831 0.14152 0.16152 0.0
C2119 C 0.70041 0.15151 0.17048 0.0
C2120 C 0.7385 0.14306 0.17162 0.0
C2121 C 0.76996 0.17425 0.21202 0.0
H2122 H 0.79631 0.11924 0.22475 0.0
C2123 C 0.81621 0.15749 0.28816 0.0
C2124 C 0.83361 0.14334 0.28799 0.0
C2125 C 0.8051 0.16204 0.26945 0.0
C2126 C 0.78957 0.13481 0.22085 0.0
H2127 H 0.68971 0.17137 0.19663 0.0
H2128 H 0.72493 0.17411 0.2142 0.0
H2129 H 0.76625 0.1203 0.19937 0.0
H2130 H 0.85389 0.12359 0.26835 0.0
H2131 H 0.83406 0.13125 0.23543 0.0
H2132 H 0.79253 0.18856 0.23441 0.0
C2133 C 0.72338 0.16522 0.19934 0.0
C2134 C 0.77233 0.1354 0.20637 0.0
C2135 C 0.70317 0.16346 0.18941 0.0
C2136 C 0.84053 0.13465 0.26875 0.0
C2137 C 0.82918 0.13895 0.25 0.0
C2138 C 0.78721 0.17366 0.22647 0.0
C2139 C 0.74116 0.15486 0.19065 0.0
C2140 C 0.76188 0.155 0.20248 0.0
C2141 C 0.81106 0.15228 0.25031 0.0
C2142 C 0.79659 0.15381 0.23161 0.0
H2143 H 0.71664 0.13213 0.14696 0.0
H2144 H 0.75199 0.13489 0.16467 0.0
H2145 H 0.76231 0.18959 0.209 0.0
H2146 H 0.81069 0.16442 0.30287 0.0
H2147 H 0.79101 0.17212 0.2702 0.0
C2148 C 0.60841 0.96549 0.90921 0.0
C2149 C 0.60127 0.94571 0.91761 0.0
C2150 C 0.60482 0.985 0.91996 0.0
C2151 C 0.57416 0.00916 0.96398 0.0
H2152 H 0.62636 0.04353 0.97419 0.0
C2153 C 0.59477 0.05285 0.04179 0.0
C2154 C 0.60644 0.07252 0.04173 0.0
C2155 C 0.58949 0.04208 0.02283 0.0
C2156 C 0.61146 0.03451 0.97112 0.0
H2157 H 0.58382 0.93102 0.9433 0.0
H2158 H 0.57801 0.96477 0.96207 0.0
H2159 H 0.62558 0.0155 0.9468 0.0
H2160 H 0.6208 0.09706 0.02202 0.0
H2161 H 0.61173 0.07802 0.9887 0.0
H2162 H 0.56057 0.02733 0.98932 0.0
C2163 C 0.58612 0.96535 0.94711 0.0
C2164 C 0.61101 0.01844 0.9554 0.0
C2165 C 0.58973 0.94592 0.93645 0.0
C2166 C 0.61186 0.08183 0.02242 0.0
C2167 C 0.60671 0.07097 0.00341 0.0
C2168 C 0.57465 0.02519 0.97976 0.0
C2169 C 0.59393 0.98505 0.93919 0.0
C2170 C 0.59265 0.00502 0.95228 0.0
C2171 C 0.5959 0.05076 0.0035 0.0
C2172 C 0.59359 0.03741 0.98401 0.0
H2173 H 0.61724 0.96587 0.89465 0.0
H2174 H 0.61092 1.0 0.91346 0.0
H2175 H 0.55967 0.9993 0.96164 0.0
H2176 H 0.59031 0.04541 0.05651 0.0
H2177 H 0.58142 0.02639 0.02341 0.0
C2178 C 0.93623 0.05779 0.43136 0.0
C2179 C 0.91873 0.05728 0.41685 0.0
C2180 C 0.9374 0.04254 0.44735 0.0
C2181 C 0.89683 0.01927 0.47811 0.0
H2182 H 0.9414 0.98843 0.5086 0.0
C2183 C 0.87761 0.96404 0.54589 0.0
C2184 C 0.89191 0.96303 0.56329 0.0
C2185 C 0.88289 0.97629 0.52851 0.0
C2186 C 0.92897 0.99733 0.50036 0.0
H2187 H 0.89111 0.03831 0.40505 0.0
H2188 H 0.89329 0.01154 0.4329 0.0
H2189 H 0.94924 0.00426 0.47411 0.0
H2190 H 0.92233 0.97485 0.57691 0.0
H2191 H 0.93161 0.99674 0.54621 0.0
H2192 H 0.8767 0.01311 0.50423 0.0
C2193 C 0.90575 0.02404 0.43224 0.0
C2194 C 0.93337 0.00606 0.48061 0.0
C2195 C 0.90454 0.03932 0.4163 0.0
C2196 C 0.91112 0.97538 0.56356 0.0
C2197 C 0.91648 0.9877 0.54602 0.0
C2198 C 0.89254 0.01087 0.49779 0.0
C2199 C 0.92115 0.02662 0.44873 0.0
C2200 C 0.9171 0.01659 0.46919 0.0
C2201 C 0.90251 0.98793 0.52823 0.0
C2202 C 0.90837 0.99938 0.50888 0.0
H2203 H 0.94784 0.0711 0.43153 0.0
H2204 H 0.94955 0.04467 0.45982 0.0
H2205 H 0.88429 0.02811 0.46992 0.0
H2206 H 0.8627 0.95462 0.54528 0.0
H2207 H 0.87195 0.97591 0.51492 0.0
C2208 C 0.13215 0.29861 0.44138 0.0
C2209 C 0.12566 0.3197 0.44677 0.0
C2210 C 0.13223 0.28195 0.45645 0.0
C2211 C 0.11166 0.26882 0.5111 0.0
H2212 H 0.14983 0.22004 0.50633 0.0
C2213 C 0.1289 0.20889 0.57985 0.0
C2214 C 0.12912 0.18651 0.57504 0.0
C2215 C 0.12702 0.22434 0.5638 0.0
C2216 C 0.13892 0.23346 0.50781 0.0
H2217 H 0.11489 0.33978 0.47268 0.0
H2218 H 0.11624 0.31154 0.49897 0.0
H2219 H 0.15062 0.24841 0.47986 0.0
H2220 H 0.12748 0.16304 0.54923 0.0
H2221 H 0.12461 0.19006 0.52117 0.0
H2222 H 0.10072 0.25415 0.53962 0.0
C2223 C 0.12039 0.30728 0.48296 0.0
C2224 C 0.13928 0.24985 0.49249 0.0
C2225 C 0.11988 0.32375 0.46782 0.0
C2226 C 0.12705 0.18007 0.55361 0.0
C2227 C 0.12566 0.19559 0.53749 0.0
C2228 C 0.11164 0.25269 0.5266 0.0
C2229 C 0.12619 0.28589 0.47757 0.0
C2230 C 0.12571 0.26797 0.49383 0.0
C2231 C 0.1258 0.21799 0.54234 0.0
C2232 C 0.12528 0.23476 0.52525 0.0
H2233 H 0.13644 0.29474 0.42529 0.0
H2234 H 0.13652 0.26584 0.45126 0.0
H2235 H 0.1004 0.2819 0.5127 0.0
H2236 H 0.13064 0.21453 0.5961 0.0
H2237 H 0.12731 0.24139 0.5682 0.0
C2238 C 0.05135 0.88876 0.82817 0.0
C2239 C 0.07347 0.88684 0.82399 0.0
C2240 C 0.03553 0.88685 0.81189 0.0
C2241 C 0.02666 0.89404 0.75419 0.0
H2242 H 0.97407 0.86086 0.76229 0.0
C2243 C 0.95989 0.8846 0.68666 0.0
C2244 C 0.93846 0.87976 0.69208 0.0
C2245 C 0.97662 0.88578 0.70225 0.0
C2246 C 0.98834 0.87068 0.75968 0.0
H2247 H 0.09597 0.88147 0.79888 0.0
H2248 H 0.06839 0.87851 0.7704 0.0
H2249 H 1.00206 0.86174 0.78976 0.0
H2250 H 0.91799 0.87337 0.71859 0.0
H2251 H 0.94635 0.87672 0.74554 0.0
H2252 H 0.01278 0.90368 0.72448 0.0
C2253 C 0.06331 0.88126 0.78646 0.0
C2254 C 0.00463 0.87098 0.77558 0.0
C2255 C 0.07916 0.88269 0.80288 0.0
C2256 C 0.93423 0.87708 0.71367 0.0
C2257 C 0.95078 0.87867 0.72924 0.0
C2258 C 0.01017 0.89409 0.7384 0.0
C2259 C 0.0412 0.88347 0.79067 0.0
C2260 C 0.02409 0.88267 0.77318 0.0
C2261 C 0.97251 0.88246 0.72392 0.0
C2262 C 0.99053 0.88246 0.74079 0.0
H2263 H 0.04624 0.89218 0.84411 0.0
H2264 H 0.01879 0.8888 0.81586 0.0
H2265 H 0.04127 0.90344 0.75175 0.0
H2266 H 0.96396 0.88643 0.67022 0.0
H2267 H 0.99291 0.88853 0.69706 0.0
C2268 C 0.3552 0.80893 0.06131 0.0
C2269 C 0.37356 0.8195 0.07032 0.0
C2270 C 0.35695 0.79343 0.04506 0.0
C2271 C 0.39575 0.7699 0.00604 0.0
H2272 H 0.3526 0.72365 1.00261 0.0
C2273 C 0.40469 0.69154 0.95439 0.0
C2274 C 0.38661 0.6842 0.94222 0.0
C2275 C 0.4031 0.70861 0.96916 0.0
C2276 C 0.36469 0.73655 0.00319 0.0
H2277 H 0.40831 0.82204 0.06887 0.0
H2278 H 0.41158 0.7943 0.04113 0.0
H2279 H 0.35046 0.75155 0.02996 0.0
H2280 H 0.35258 0.6894 0.93629 0.0
H2281 H 0.34969 0.71885 0.96252 0.0
H2282 H 0.41038 0.75406 0.97965 0.0
C2283 C 0.39562 0.79837 0.04623 0.0
C2284 C 0.36344 0.75277 0.0189 0.0
C2285 C 0.39381 0.81428 0.06231 0.0
C2286 C 0.36684 0.6945 0.94536 0.0
C2287 C 0.36517 0.71136 0.96046 0.0
C2288 C 0.39719 0.75341 0.99054 0.0
C2289 C 0.3772 0.78748 0.03741 0.0
C2290 C 0.37887 0.76989 0.0206 0.0
C2291 C 0.38331 0.71871 0.97254 0.0
C2292 C 0.38163 0.73653 0.98884 0.0
H2293 H 0.33926 0.81274 0.06675 0.0
H2294 H 0.34222 0.78623 0.03845 0.0
H2295 H 0.4078 0.78279 0.00634 0.0
H2296 H 0.42025 0.68419 0.9524 0.0
H2297 H 0.41737 0.71366 0.97824 0.0
C2298 C 0.46253 0.12116 0.32521 0.0
C2299 C 0.44279 0.13199 0.32317 0.0
C2300 C 0.47783 0.12195 0.3093 0.0
C2301 C 0.48486 0.13289 0.25201 0.0
H2302 H 0.54537 0.13526 0.26862 0.0
C2303 C 0.55419 0.12091 0.19155 0.0
C2304 C 0.57293 0.13397 0.19448 0.0
C2305 C 0.53791 0.12076 0.20674 0.0
C2306 C 0.52858 0.13475 0.26356 0.0
H2307 H 0.42393 0.15224 0.30231 0.0
H2308 H 0.45082 0.15381 0.27449 0.0
H2309 H 0.51813 0.13623 0.29553 0.0
H2310 H 0.58888 0.15714 0.21602 0.0
H2311 H 0.56086 0.15691 0.24209 0.0
H2312 H 0.4955 0.13174 0.21992 0.0
C2313 C 0.45433 0.14454 0.28852 0.0
C2314 C 0.51285 0.13506 0.27912 0.0
C2315 C 0.43896 0.14383 0.3046 0.0
C2316 C 0.57487 0.14672 0.21311 0.0
C2317 C 0.55872 0.14652 0.22824 0.0
C2318 C 0.50067 0.13252 0.23637 0.0
C2319 C 0.47404 0.13358 0.29063 0.0
C2320 C 0.49071 0.13406 0.27367 0.0
C2321 C 0.53994 0.13357 0.22538 0.0
C2322 C 0.52282 0.13348 0.24191 0.0
H2323 H 0.46619 0.11174 0.33912 0.0
H2324 H 0.49253 0.11298 0.31151 0.0
H2325 H 0.46804 0.13189 0.2471 0.0
H2326 H 0.55195 0.11096 0.1774 0.0
H2327 H 0.52383 0.11041 0.20397 0.0
C2328 C 0.14702 0.79704 0.92942 0.0
C2329 C 0.13653 0.81704 0.93157 0.0
C2330 C 0.14523 0.78088 0.94477 0.0
C2331 C 0.13161 0.77164 1.00131 0.0
H2332 H 0.12812 0.71132 0.98329 0.0
C2333 C 0.1385 0.69973 0.06098 0.0
C2334 C 0.12493 0.6814 0.05732 0.0
C2335 C 0.13988 0.71643 0.046 0.0
C2336 C 0.12896 0.72805 0.98872 0.0
H2337 H 0.11586 0.83538 0.95209 0.0
H2338 H 0.11271 0.80718 0.97885 0.0
H2339 H 0.12961 0.73973 0.95697 0.0
H2340 H 0.10224 0.66663 0.03458 0.0
H2341 H 0.10477 0.69535 0.0087 0.0
H2342 H 0.13079 0.75984 0.03312 0.0
C2343 C 0.12245 0.80406 0.9652 0.0
C2344 C 0.13005 0.74446 0.97352 0.0
C2345 C 0.1241 0.82023 0.94969 0.0
C2346 C 0.11299 0.6803 0.03808 0.0
C2347 C 0.11451 0.69686 0.02308 0.0
C2348 C 0.13069 0.75517 0.01656 0.0
C2349 C 0.133 0.78406 0.96301 0.0
C2350 C 0.13141 0.76657 0.97949 0.0
C2351 C 0.12791 0.71529 0.02675 0.0
C2352 C 0.12929 0.73306 0.01054 0.0
H2353 H 0.15684 0.79383 0.91585 0.0
H2354 H 0.15388 0.76596 0.94249 0.0
H2355 H 0.13284 0.78837 0.00669 0.0
H2356 H 0.14787 0.70137 0.07558 0.0
H2357 H 0.15055 0.73017 0.04945 0.0
C2358 C 0.45612 0.88413 0.18258 0.0
C2359 C 0.43394 0.88336 0.18695 0.0
C2360 C 0.47194 0.88206 0.19874 0.0
C2361 C 0.48219 0.89136 0.2561 0.0
H2362 H 0.5316 0.85495 0.24821 0.0
C2363 C 0.54939 0.88376 0.32284 0.0
C2364 C 0.5703 0.87746 0.31742 0.0
C2365 C 0.53243 0.8842 0.30751 0.0
C2366 C 0.51828 0.86566 0.25076 0.0
H2367 H 0.4113 0.8799 0.21225 0.0
H2368 H 0.43892 0.87675 0.24055 0.0
H2369 H 0.50335 0.85588 0.22104 0.0
H2370 H 0.58956 0.86741 0.29106 0.0
H2371 H 0.5609 0.86937 0.26448 0.0
H2372 H 0.49734 0.90196 0.28533 0.0
C2373 C 0.44403 0.87866 0.22443 0.0
C2374 C 0.50181 0.86598 0.23504 0.0
C2375 C 0.42814 0.8802 0.20812 0.0
C2376 C 0.57374 0.87223 0.29603 0.0
C2377 C 0.55698 0.8731 0.28067 0.0
C2378 C 0.49891 0.89142 0.27168 0.0
C2379 C 0.46623 0.8797 0.22002 0.0
C2380 C 0.48346 0.87884 0.23737 0.0
C2381 C 0.53576 0.87871 0.28603 0.0
C2382 C 0.51745 0.87861 0.26938 0.0
H2383 H 0.46132 0.88678 0.16659 0.0
H2384 H 0.48875 0.88309 0.19461 0.0
H2385 H 0.46849 0.90168 0.25847 0.0
H2386 H 0.5459 0.88767 0.33913 0.0
H2387 H 0.51657 0.88835 0.3128 0.0
C2388 C 0.38059 0.18564 0.45511 0.0
C2389 C 0.37543 0.1922 0.4344 0.0
C2390 C 0.38114 0.2007 0.47214 0.0
C2391 C 0.36194 0.25692 0.4862 0.0
H2392 H 0.39796 0.25007 0.53642 0.0
C2393 C 0.37662 0.32606 0.5485 0.0
C2394 C 0.37716 0.32099 0.57015 0.0
C2395 C 0.37507 0.3097 0.53284 0.0
C2396 C 0.3876 0.25212 0.5226 0.0
H2397 H 0.3679 0.22013 0.41541 0.0
H2398 H 0.36998 0.2463 0.44446 0.0
H2399 H 0.3995 0.2235 0.50748 0.0
H2400 H 0.37632 0.29439 0.59212 0.0
H2401 H 0.37378 0.26572 0.5647 0.0
H2402 H 0.35056 0.28588 0.50111 0.0
C2403 C 0.37274 0.22944 0.44798 0.0
C2404 C 0.38845 0.23679 0.50589 0.0
C2405 C 0.37187 0.21439 0.4311 0.0
C2406 C 0.3756 0.29896 0.57565 0.0
C2407 C 0.37444 0.2825 0.5599 0.0
C2408 C 0.36133 0.27234 0.50274 0.0
C2409 C 0.37676 0.22287 0.46896 0.0
C2410 C 0.37576 0.23898 0.48724 0.0
C2411 C 0.37439 0.28763 0.53823 0.0
C2412 C 0.37423 0.2703 0.52117 0.0
H2413 H 0.3831 0.16866 0.45838 0.0
H2414 H 0.38415 0.19471 0.4879 0.0
H2415 H 0.35133 0.2591 0.47262 0.0
H2416 H 0.37798 0.34277 0.54358 0.0
H2417 H 0.37526 0.31439 0.51642 0.0
C2418 C 0.94588 0.11411 0.81115 0.0
C2419 C 0.93591 0.13392 0.81569 0.0
C2420 C 0.96169 0.11281 0.79559 0.0
C2421 C 1.0022 0.14523 0.76728 0.0
H2422 H 0.99624 0.10106 0.72335 0.0
C2423 C 0.05897 0.14442 0.69483 0.0
C2424 C 0.0631 0.12448 0.68476 0.0
C2425 C 0.04379 0.14573 0.711 0.0
C2426 C 0.9986 0.11329 0.73565 0.0
H2427 H 0.93541 0.16802 0.80769 0.0
H2428 H 0.96323 0.1658 0.78114 0.0
H2429 H 0.97025 0.10236 0.75149 0.0
H2430 H 0.05494 0.09014 0.68459 0.0
H2431 H 0.02965 0.09216 0.71305 0.0
H2432 H 0.03088 0.15584 0.75203 0.0
C2433 C 0.95864 0.15122 0.78939 0.0
C2434 C 0.98348 0.11406 0.7518 0.0
C2435 C 0.94255 0.15243 0.80456 0.0
C2436 C 0.052 0.10588 0.69166 0.0
C2437 C 0.03722 0.1071 0.70803 0.0
C2438 C 0.01761 0.14421 0.75136 0.0
C2439 C 0.96833 0.13138 0.78455 0.0
C2440 C 0.98498 0.1301 0.76778 0.0
C2441 C 0.03256 0.12707 0.71791 0.0
C2442 C 0.0161 0.12825 0.73515 0.0
H2443 H 0.94124 0.09954 0.81939 0.0
H2444 H 0.9689 0.09728 0.79233 0.0
H2445 H 1.00394 0.15773 0.77943 0.0
H2446 H 0.06718 0.1591 0.68995 0.0
H2447 H 0.04066 0.16153 0.71778 0.0
C2448 C 0.20741 0.5786 0.12603 0.0
C2449 C 0.18538 0.57274 0.12686 0.0
C2450 C 0.22344 0.5628 0.12458 0.0
C2451 C 0.23546 0.50594 0.13795 0.0
H2452 H 0.28256 0.51263 0.09941 0.0
C2453 C 0.30306 0.44056 0.13214 0.0
C2454 C 0.32356 0.44663 0.12487 0.0
C2455 C 0.28592 0.45536 0.13221 0.0
C2456 C 0.2699 0.51052 0.11069 0.0
H2457 H 0.16325 0.54519 0.12689 0.0
H2458 H 0.19128 0.51759 0.1248 0.0
H2459 H 0.25383 0.5389 0.09948 0.0
H2460 H 0.34197 0.47363 0.11264 0.0
H2461 H 0.31296 0.49949 0.11386 0.0
H2462 H 0.25177 0.47813 0.14986 0.0
C2463 C 0.19608 0.53456 0.12501 0.0
C2464 C 0.25316 0.52567 0.11054 0.0
C2465 C 0.17994 0.55043 0.12596 0.0
C2466 C 0.32646 0.46818 0.11826 0.0
C2467 C 0.30951 0.48308 0.11871 0.0
C2468 C 0.25244 0.49098 0.13842 0.0
C2469 C 0.21814 0.54049 0.12444 0.0
C2470 C 0.23564 0.5237 0.12416 0.0
C2471 C 0.28869 0.47697 0.12534 0.0
C2472 C 0.27015 0.49294 0.12483 0.0
H2473 H 0.21235 0.59554 0.12689 0.0
H2474 H 0.24016 0.56811 0.12432 0.0
H2475 H 0.22242 0.50393 0.14887 0.0
H2476 H 0.29999 0.42409 0.13713 0.0
H2477 H 0.27034 0.44951 0.13718 0.0
C2478 C 0.82932 0.04564 0.8852 0.0
C2479 C 0.82505 0.06796 0.8833 0.0
C2480 C 0.81271 0.02975 0.88354 0.0
C2481 C 0.75339 0.02095 0.88972 0.0
H2482 H 0.763 0.96698 0.85974 0.0
C2483 C 0.68522 0.95286 0.88071 0.0
C2484 C 0.69103 0.93115 0.87691 0.0
C2485 C 0.70093 0.96985 0.88176 0.0
C2486 C 0.75992 0.98164 0.86865 0.0
H2487 H 0.79925 0.09064 0.87821 0.0
H2488 H 0.77024 0.06296 0.87557 0.0
H2489 H 0.79071 0.99524 0.86054 0.0
H2490 H 0.7185 0.91064 0.87215 0.0
H2491 H 0.74557 0.93944 0.87518 0.0
H2492 H 0.72286 0.0072 0.8984 0.0
C2493 C 0.78664 0.05777 0.87821 0.0
C2494 C 0.776 0.99812 0.86893 0.0
C2495 C 0.8034 0.07371 0.87947 0.0
C2496 C 0.71319 0.92703 0.87506 0.0
C2497 C 0.72886 0.94387 0.87647 0.0
C2498 C 0.73737 0.00428 0.88974 0.0
C2499 C 0.79097 0.03544 0.88033 0.0
C2500 C 0.77315 0.01811 0.87951 0.0
C2501 C 0.72317 0.96582 0.87932 0.0
C2502 C 0.74026 0.98411 0.87928 0.0
H2503 H 0.84562 0.04039 0.88836 0.0
H2504 H 0.8169 0.01291 0.88547 0.0
H2505 H 0.75048 0.03592 0.89824 0.0
H2506 H 0.66838 0.95691 0.88189 0.0
H2507 H 0.69539 0.98626 0.88379 0.0
C2508 C 0.8154 0.05548 0.35318 0.0
C2509 C 0.82546 0.06644 0.37053 0.0
C2510 C 0.79925 0.03962 0.35592 0.0
C2511 C 0.77159 0.00543 0.39721 0.0
H2512 H 0.7294 0.99647 0.35162 0.0
C2513 C 0.69217 0.9546 0.40688 0.0
C2514 C 0.68574 0.93981 0.39059 0.0
C2515 C 0.70936 0.96942 0.40439 0.0
C2516 C 0.74112 0.99857 0.36446 0.0
H2517 H 0.82626 0.0688 0.40466 0.0
H2518 H 0.79732 0.04185 0.40961 0.0
H2519 H 0.75805 0.02343 0.34813 0.0
H2520 H 0.69282 0.92948 0.35867 0.0
H2521 H 0.72246 0.95585 0.35409 0.0
H2522 H 0.75378 0.98104 0.41381 0.0
C2523 C 0.80232 0.04507 0.39368 0.0
C2524 C 0.75785 0.01409 0.36246 0.0
C2525 C 0.81897 0.06071 0.3909 0.0
C2526 C 0.69705 0.94063 0.37154 0.0
C2527 C 0.7141 0.9558 0.36892 0.0
C2528 C 0.75459 0.99018 0.39935 0.0
C2529 C 0.79194 0.03429 0.37618 0.0
C2530 C 0.77362 0.0178 0.37871 0.0
C2531 C 0.72068 0.97032 0.38541 0.0
C2532 C 0.7391 0.9864 0.38297 0.0
H2533 H 0.82017 0.05907 0.33722 0.0
H2534 H 0.79265 0.03147 0.34191 0.0
H2535 H 0.78331 0.00721 0.41007 0.0
H2536 H 0.68413 0.95452 0.42189 0.0
H2537 H 0.71367 0.98039 0.41739 0.0
C2538 C 0.8151 0.95143 0.12277 0.0
C2539 C 0.80907 0.9304 0.12919 0.0
C2540 C 0.80014 0.96848 0.12259 0.0
C2541 C 0.74153 0.97951 0.11904 0.0
H2542 H 0.75562 0.03505 0.14567 0.0
C2543 C 0.67515 0.04445 0.12667 0.0
C2544 C 0.68063 0.06671 0.1274 0.0
C2545 C 0.69104 0.02846 0.12789 0.0
C2546 C 0.7513 0.01986 0.13779 0.0
H2547 H 0.78215 0.91111 0.14017 0.0
H2548 H 0.7561 0.94036 0.13901 0.0
H2549 H 0.78267 0.00677 0.14456 0.0
H2550 H 0.70761 0.08935 0.13012 0.0
H2551 H 0.73534 0.06175 0.13145 0.0
H2552 H 0.71069 0.99243 0.11133 0.0
C2553 C 0.77247 0.9438 0.13433 0.0
C2554 C 0.76697 1.00349 0.13726 0.0
C2555 C 0.78749 0.92695 0.13501 0.0
C2556 C 0.70264 0.07242 0.12986 0.0
C2557 C 0.71866 0.05638 0.1306 0.0
C2558 C 0.72605 0.99595 0.11916 0.0
C2559 C 0.77853 0.96492 0.12832 0.0
C2560 C 0.76226 0.98294 0.12808 0.0
C2561 C 0.71325 0.03397 0.12927 0.0
C2562 C 0.73039 0.01646 0.1288 0.0
H2563 H 0.83157 0.95488 0.11843 0.0
H2564 H 0.80546 0.98445 0.11778 0.0
H2565 H 0.7373 0.96407 0.11154 0.0
H2566 H 0.65843 0.03931 0.12482 0.0
H2567 H 0.68566 0.01169 0.12757 0.0
C2568 C 0.31018 0.44827 0.61665 0.0
C2569 C 0.31094 0.43412 0.63398 0.0
C2570 C 0.29554 0.46557 0.61591 0.0
C2571 C 0.26077 0.50034 0.65018 0.0
H2572 H 0.2311 0.51333 0.59748 0.0
C2573 C 0.20314 0.57529 0.63953 0.0
C2574 C 0.18421 0.57166 0.62708 0.0
C2575 C 0.21915 0.55923 0.64115 0.0
C2576 C 0.23915 0.50997 0.61241 0.0
H2577 H 0.2966 0.42777 0.66428 0.0
H2578 H 0.27146 0.45766 0.66299 0.0
H2579 H 0.25744 0.48442 0.5985 0.0
H2580 H 0.16764 0.54757 0.60692 0.0
H2581 H 0.19507 0.52022 0.60971 0.0
H2582 H 0.24229 0.52587 0.66409 0.0
C2583 C 0.28219 0.45547 0.64992 0.0
C2584 C 0.25453 0.49341 0.61294 0.0
C2585 C 0.2966 0.43807 0.65056 0.0
C2586 C 0.18181 0.55129 0.61669 0.0
C2587 C 0.19779 0.53548 0.61812 0.0
C2588 C 0.24555 0.51712 0.6496 0.0
C2589 C 0.28132 0.46958 0.63259 0.0
C2590 C 0.26548 0.48807 0.63188 0.0
C2591 C 0.21691 0.53915 0.63013 0.0
C2592 C 0.23422 0.52207 0.63075 0.0
H2593 H 0.32094 0.44601 0.60361 0.0
H2594 H 0.29564 0.47606 0.60233 0.0
H2595 H 0.26895 0.49704 0.66507 0.0
H2596 H 0.20582 0.59071 0.64766 0.0
H2597 H 0.2336 0.56281 0.65055 0.0
C2598 C 0.19078 0.44574 0.39139 0.0
C2599 C 0.18605 0.4352 0.3719 0.0
C2600 C 0.20642 0.46281 0.39298 0.0
C2601 C 0.25075 0.49068 0.36097 0.0
H2602 H 0.25073 0.53255 0.40708 0.0
C2603 C 0.30777 0.56872 0.36481 0.0
C2604 C 0.31864 0.57263 0.38434 0.0
C2605 C 0.29116 0.55265 0.36277 0.0
C2606 C 0.25103 0.521 0.39405 0.0
H2607 H 0.19349 0.4356 0.3386 0.0
H2608 H 0.21913 0.4654 0.341 0.0
H2609 H 0.2231 0.504 0.40497 0.0
H2610 H 0.3196 0.56283 0.41717 0.0
H2611 H 0.29078 0.53571 0.41371 0.0
H2612 H 0.27842 0.5083 0.34985 0.0
C2613 C 0.21202 0.46007 0.35551 0.0
C2614 C 0.23513 0.50431 0.39289 0.0
C2615 C 0.19692 0.44282 0.35406 0.0
C2616 C 0.31193 0.56032 0.40176 0.0
C2617 C 0.29515 0.54475 0.39984 0.0
C2618 C 0.26634 0.50764 0.36191 0.0
C2619 C 0.21752 0.47035 0.37503 0.0
C2620 C 0.23461 0.4886 0.37636 0.0
C2621 C 0.28451 0.54043 0.38033 0.0
C2622 C 0.26692 0.52303 0.37855 0.0
H2623 H 0.18279 0.44049 0.40551 0.0
H2624 H 0.20997 0.46978 0.40847 0.0
H2625 H 0.2518 0.47895 0.3482 0.0
H2626 H 0.31231 0.5778 0.35103 0.0
H2627 H 0.28334 0.54994 0.34746 0.0
C2628 C 0.18427 0.4567 0.8852 0.0
C2629 C 0.18811 0.43425 0.8837 0.0
C2630 C 0.20102 0.47219 0.88321 0.0
C2631 C 0.26033 0.48035 0.89003 0.0
H2632 H 0.25081 0.53256 0.85811 0.0
C2633 C 0.32895 0.54694 0.88075 0.0
C2634 C 0.32321 0.56847 0.87636 0.0
C2635 C 0.31311 0.5302 0.88188 0.0
C2636 C 0.25386 0.5184 0.86755 0.0
H2637 H 0.21315 0.41079 0.87892 0.0
H2638 H 0.24252 0.43785 0.87576 0.0
H2639 H 0.22276 0.50467 0.85896 0.0
H2640 H 0.29586 0.58908 0.87072 0.0
H2641 H 0.26857 0.56074 0.8739 0.0
H2642 H 0.29114 0.49429 0.89924 0.0
C2643 C 0.22633 0.44343 0.8783 0.0
C2644 C 0.23761 0.50215 0.86785 0.0
C2645 C 0.20939 0.42786 0.87984 0.0
C2646 C 0.30107 0.57278 0.87406 0.0
C2647 C 0.28527 0.55622 0.87556 0.0
C2648 C 0.27652 0.49681 0.89004 0.0
C2649 C 0.22245 0.4659 0.88009 0.0
C2650 C 0.24045 0.48283 0.87913 0.0
C2651 C 0.29086 0.53439 0.87893 0.0
C2652 C 0.27363 0.51634 0.87889 0.0
H2653 H 0.16822 0.46237 0.88835 0.0
H2654 H 0.19724 0.4892 0.88486 0.0
H2655 H 0.26318 0.46588 0.8991 0.0
H2656 H 0.34579 0.54279 0.8823 0.0
H2657 H 0.31851 0.51383 0.88433 0.0
C2658 C 0.64086 0.70598 0.07246 0.0
C2659 C 0.63117 0.68511 0.07096 0.0
C2660 C 0.63947 0.72061 0.05577 0.0
C2661 C 0.60892 0.73464 0.00688 0.0
H2662 H 0.66087 0.76772 0.99491 0.0
C2663 C 0.60798 0.81153 0.9545 0.0
C2664 C 0.62502 0.81536 0.94057 0.0
C2665 C 0.60861 0.79449 0.96898 0.0
C2666 C 0.64623 0.75855 0.99784 0.0
H2667 H 0.61168 0.66387 0.0504 0.0
H2668 H 0.60888 0.68975 0.02123 0.0
H2669 H 0.66163 0.74033 0.02236 0.0
H2670 H 0.65617 0.80374 0.93121 0.0
H2671 H 0.65744 0.77414 0.95672 0.0
H2672 H 0.5935 0.75304 0.98243 0.0
C2673 C 0.61772 0.69461 0.03552 0.0
C2674 C 0.64659 0.74291 0.01381 0.0
C2675 C 0.61927 0.67974 0.0523 0.0
C2676 C 0.64277 0.80146 0.94166 0.0
C2677 C 0.64351 0.78448 0.95638 0.0
C2678 C 0.6085 0.75047 0.99103 0.0
C2679 C 0.62823 0.71513 0.03685 0.0
C2680 C 0.6279 0.73085 0.01879 0.0
C2681 C 0.62639 0.78068 0.97026 0.0
C2682 C 0.62711 0.76285 0.98636 0.0
H2683 H 0.65008 0.711 0.08648 0.0
H2684 H 0.64737 0.73634 0.05771 0.0
H2685 H 0.59419 0.7258 0.01022 0.0
H2686 H 0.59392 0.82169 0.95423 0.0
H2687 H 0.59523 0.79241 0.97949 0.0
C2688 C 0.56668 0.37404 0.30789 0.0
C2689 C 0.56647 0.39255 0.3212 0.0
C2690 C 0.55162 0.37145 0.29096 0.0
C2691 C 0.51644 0.40277 0.25483 0.0
H2692 H 0.48409 0.34899 0.24658 0.0
C2693 C 0.44519 0.39478 0.19258 0.0
C2694 C 0.44004 0.37415 0.18398 0.0
C2695 C 0.46111 0.39729 0.20879 0.0
C2696 C 0.4932 0.36406 0.24818 0.0
H2697 H 0.5501 0.42292 0.32666 0.0
H2698 H 0.52442 0.4185 0.29725 0.0
H2699 H 0.5111 0.35214 0.27494 0.0
H2700 H 0.44852 0.34025 0.18478 0.0
H2701 H 0.47672 0.34465 0.21165 0.0
H2702 H 0.49913 0.41461 0.22781 0.0
C2703 C 0.53609 0.40592 0.29993 0.0
C2704 C 0.50871 0.36584 0.26468 0.0
C2705 C 0.55079 0.40832 0.317 0.0
C2706 C 0.45179 0.35634 0.19131 0.0
C2707 C 0.46793 0.35889 0.20702 0.0
C2708 C 0.50121 0.40087 0.23805 0.0
C2709 C 0.53629 0.38752 0.2866 0.0
C2710 C 0.52045 0.38526 0.26836 0.0
C2711 C 0.47264 0.3793 0.2165 0.0
C2712 C 0.48919 0.38148 0.23441 0.0
H2713 H 0.57855 0.36163 0.31046 0.0
H2714 H 0.55229 0.35709 0.28097 0.0
H2715 H 0.52532 0.41794 0.25706 0.0
H2716 H 0.43638 0.40881 0.18736 0.0
H2717 H 0.46389 0.41331 0.21561 0.0
C2718 C 0.89749 0.18565 0.46153 0.0
C2719 C 0.88461 0.18499 0.44283 0.0
C2720 C 0.89572 0.2024 0.47671 0.0
C2721 C 0.87569 0.25912 0.48511 0.0
H2722 H 0.8828 0.24489 0.54428 0.0
C2723 C 0.8809 0.32618 0.55282 0.0
C2724 C 0.87032 0.3216 0.5718 0.0
C2725 C 0.88315 0.31001 0.53692 0.0
C2726 C 0.88065 0.24932 0.52788 0.0
H2727 H 0.85966 0.20222 0.42582 0.0
H2728 H 0.8565 0.23141 0.45234 0.0
H2729 H 0.88444 0.2164 0.51743 0.0
H2730 H 0.8542 0.29583 0.58863 0.0
H2731 H 0.8583 0.26804 0.56148 0.0
H2732 H 0.87162 0.29211 0.49576 0.0
C2733 C 0.86815 0.21885 0.45518 0.0
C2734 C 0.88183 0.23284 0.5123 0.0
C2735 C 0.86982 0.20191 0.43996 0.0
C2736 C 0.86258 0.30017 0.57443 0.0
C2737 C 0.865 0.28405 0.55873 0.0
C2738 C 0.87465 0.27569 0.50075 0.0
C2739 C 0.88106 0.2194 0.47392 0.0
C2740 C 0.87937 0.23733 0.49057 0.0
C2741 C 0.87513 0.28861 0.53953 0.0
C2742 C 0.87701 0.27111 0.52249 0.0
H2743 H 0.90919 0.17317 0.4645 0.0
H2744 H 0.90627 0.20216 0.49057 0.0
H2745 H 0.87389 0.2635 0.46867 0.0
H2746 H 0.88691 0.34245 0.54996 0.0
H2747 H 0.89124 0.31431 0.52256 0.0
C2748 C 0.95246 0.60359 0.81309 0.0
C2749 C 0.9413 0.62188 0.8203 0.0
C2750 C 0.96812 0.60545 0.79752 0.0
C2751 C 0.00744 0.64327 0.77533 0.0
H2752 H 0.00644 0.60446 0.72661 0.0
C2753 C 0.06997 0.65376 0.70915 0.0
C2754 C 0.07615 0.63567 0.69705 0.0
C2755 C 0.05319 0.65219 0.72357 0.0
C2756 C 0.00737 0.61524 0.74024 0.0
H2757 H 0.93815 0.65657 0.81662 0.0
H2758 H 0.96608 0.65992 0.78992 0.0
H2759 H 0.9783 0.60152 0.75269 0.0
H2760 H 0.0693 0.60159 0.69091 0.0
H2761 H 0.04092 0.59845 0.71676 0.0
H2762 H 0.0369 0.65639 0.76375 0.0
C2763 C 0.96243 0.64407 0.79623 0.0
C2764 C 0.991 0.61362 0.75518 0.0
C2765 C 0.94636 0.64213 0.81148 0.0
C2766 C 0.06503 0.61589 0.69991 0.0
C2767 C 0.0485 0.61418 0.7147 0.0
C2768 C 0.02407 0.6446 0.76067 0.0
C2769 C 0.97348 0.62572 0.789 0.0
C2770 C 0.99075 0.62767 0.77288 0.0
C2771 C 0.04218 0.63233 0.72683 0.0
C2772 C 0.02436 0.63068 0.74273 0.0
H2773 H 0.94897 0.58769 0.81938 0.0
H2774 H 0.97637 0.59102 0.79244 0.0
H2775 H 0.00793 0.65415 0.78892 0.0
H2776 H 0.07786 0.66939 0.70719 0.0
H2777 H 0.04872 0.6668 0.73191 0.0
C2778 C 0.61088 0.31548 0.44339 0.0
C2779 C 0.63023 0.32063 0.43329 0.0
C2780 C 0.61037 0.29998 0.45962 0.0
C2781 C 0.64451 0.25605 0.48486 0.0
H2782 H 0.60068 0.25759 0.5274 0.0
C2783 C 0.64573 0.20112 0.5601 0.0
C2784 C 0.62641 0.18951 0.56349 0.0
C2785 C 0.64657 0.21761 0.54486 0.0
C2786 C 0.61305 0.25691 0.51562 0.0
H2787 H 0.66442 0.314 0.43326 0.0
H2788 H 0.66383 0.28833 0.46178 0.0
H2789 H 0.60129 0.28518 0.50017 0.0
H2790 H 0.59266 0.18692 0.55393 0.0
H2791 H 0.59403 0.21591 0.52812 0.0
H2792 H 0.65658 0.2281 0.50096 0.0
C2793 C 0.64868 0.29521 0.45674 0.0
C2794 C 0.61333 0.27272 0.49976 0.0
C2795 C 0.64908 0.31026 0.44031 0.0
C2796 C 0.6079 0.1953 0.55167 0.0
C2797 C 0.60862 0.21208 0.53691 0.0
C2798 C 0.6445 0.24057 0.501 0.0
C2799 C 0.62929 0.28945 0.46662 0.0
C2800 C 0.629 0.27258 0.48392 0.0
C2801 C 0.62798 0.22335 0.53308 0.0
C2802 C 0.62869 0.24065 0.51654 0.0
H2803 H 0.59603 0.32307 0.43846 0.0
H2804 H 0.59496 0.29605 0.46635 0.0
H2805 H 0.65659 0.25464 0.4729 0.0
H2806 H 0.66027 0.19715 0.56889 0.0
H2807 H 0.66175 0.22602 0.54241 0.0
C2808 C 0.93971 0.36323 0.69741 0.0
C2809 C 0.93578 0.38346 0.68819 0.0
C2810 C 0.95502 0.36137 0.71408 0.0
C2811 C 0.98425 0.39301 0.75657 0.0
H2812 H 0.02744 0.34869 0.75266 0.0
C2813 C 0.05895 0.39197 0.81459 0.0
C2814 C 0.06808 0.37188 0.81948 0.0
C2815 C 0.04227 0.39336 0.79918 0.0
C2816 C 0.01534 0.36097 0.75439 0.0
H2817 H 0.94449 0.41771 0.68996 0.0
H2818 H 0.97055 0.4145 0.71903 0.0
H2819 H 0.99887 0.35032 0.72576 0.0
H2820 H 0.06605 0.33736 0.81234 0.0
H2821 H 0.03684 0.33961 0.78652 0.0
H2822 H 1.00031 0.40347 0.78537 0.0
C2823 C 0.96203 0.40001 0.71332 0.0
C2824 C 0.99891 0.3619 0.73879 0.0
C2825 C 0.94712 0.4018 0.6965 0.0
C2826 C 0.0597 0.35322 0.8089 0.0
C2827 C 0.04292 0.35454 0.7938 0.0
C2828 C 1.00049 0.39188 0.77237 0.0
C2829 C 0.96641 0.37977 0.72224 0.0
C2830 C 0.98321 0.37802 0.73956 0.0
C2831 C 0.03402 0.37464 0.7884 0.0
C2832 C 0.01643 0.37589 0.77155 0.0
H2833 H 0.93132 0.34877 0.69145 0.0
H2834 H 0.9579 0.34553 0.72065 0.0
H2835 H 0.97233 0.40556 0.75778 0.0
H2836 H 0.06498 0.40671 0.82234 0.0
H2837 H 0.0362 0.40923 0.79545 0.0
C2838 C 0.8814 0.82228 0.04471 0.0
C2839 C 0.87846 0.81735 0.06615 0.0
C2840 C 0.88008 0.80611 0.02873 0.0
C2841 C 0.86527 0.74633 0.01786 0.0
H2842 H 0.89685 0.75689 0.96681 0.0
C2843 C 0.87687 0.6792 0.95147 0.0
C2844 C 0.87336 0.68567 0.93037 0.0
C2845 C 0.87792 0.69457 0.96834 0.0
C2846 C 0.8878 0.75361 0.98087 0.0
H2847 H 0.87168 0.79089 0.08722 0.0
H2848 H 0.87001 0.76262 0.05969 0.0
H2849 H 0.89747 0.78406 0.99495 0.0
H2850 H 0.86867 0.71389 0.91089 0.0
H2851 H 0.87131 0.74045 0.93989 0.0
H2852 H 0.85638 0.71533 0.0037 0.0
C2853 C 0.87277 0.77919 0.05492 0.0
C2854 C 0.88796 0.76945 0.9972 0.0
C2855 C 0.87369 0.79554 0.07093 0.0
C2856 C 0.8716 0.70812 0.92676 0.0
C2857 C 0.8731 0.72346 0.94352 0.0
C2858 C 0.86545 0.73028 1.00162 0.0
C2859 C 0.87629 0.78402 0.03341 0.0
C2860 C 0.87646 0.76641 0.01604 0.0
C2861 C 0.87595 0.71703 0.9647 0.0
C2862 C 0.87653 0.7337 0.98268 0.0
H2863 H 0.88508 0.8388 0.04021 0.0
H2864 H 0.88218 0.81117 0.01261 0.0
H2865 H 0.85592 0.74299 0.03168 0.0
H2866 H 0.87798 0.66213 0.95509 0.0
H2867 H 0.88027 0.68883 0.98431 0.0
C2868 C 0.55149 0.60733 0.19123 0.0
C2869 C 0.56211 0.62573 0.18316 0.0
C2870 C 0.53644 0.60927 0.20734 0.0
C2871 C 0.49751 0.64638 0.23022 0.0
H2872 H 0.50036 0.6096 0.27931 0.0
C2873 C 0.4366 0.65653 0.29796 0.0
C2874 C 0.43115 0.63873 0.3106 0.0
C2875 C 0.45297 0.65517 0.28307 0.0
C2876 C 0.4989 0.61979 0.2656 0.0
H2877 H 0.56499 0.66072 0.18599 0.0
H2878 H 0.53809 0.66417 0.2137 0.0
H2879 H 0.52773 0.6069 0.25245 0.0
H2880 H 0.43884 0.60535 0.31714 0.0
H2881 H 0.46645 0.60246 0.29048 0.0
H2882 H 0.46827 0.65861 0.24248 0.0
C2883 C 0.54169 0.64818 0.2076 0.0
C2884 C 0.51484 0.61832 0.25021 0.0
C2885 C 0.55717 0.6462 0.19176 0.0
C2886 C 0.44255 0.61942 0.30775 0.0
C2887 C 0.45865 0.61788 0.29247 0.0
C2888 C 0.4813 0.64753 0.24534 0.0
C2889 C 0.53115 0.62972 0.21564 0.0
C2890 C 0.51442 0.63165 0.23233 0.0
C2891 C 0.46427 0.63577 0.27983 0.0
C2892 C 0.48167 0.63432 0.26344 0.0
H2893 H 0.55491 0.59127 0.18515 0.0
H2894 H 0.52859 0.59473 0.21303 0.0
H2895 H 0.49648 0.65668 0.21652 0.0
H2896 H 0.4285 0.67183 0.29989 0.0
H2897 H 0.45691 0.66961 0.27436 0.0
C2898 C 0.82135 0.96238 0.6123 0.0
C2899 C 0.82428 0.94684 0.62826 0.0
C2900 C 0.80444 0.97727 0.61291 0.0
C2901 C 0.76646 0.00427 0.64932 0.0
H2902 H 0.73631 0.01991 0.59751 0.0
C2903 C 0.71152 0.07962 0.64566 0.0
C2904 C 0.69167 0.07825 0.63429 0.0
C2905 C 0.72677 0.06309 0.64443 0.0
C2906 C 0.74442 0.01571 0.61218 0.0
H2907 H 0.81112 0.93517 0.65749 0.0
H2908 H 0.78188 0.96143 0.65879 0.0
H2909 H 0.76395 0.99209 0.59672 0.0
H2910 H 0.67291 0.05792 0.61225 0.0
H2911 H 0.69976 0.02921 0.60977 0.0
H2912 H 0.74708 0.02794 0.66478 0.0
C2913 C 0.7928 0.96203 0.64571 0.0
C2914 C 0.76051 0.9998 0.61172 0.0
C2915 C 0.80962 0.94687 0.64495 0.0
C2916 C 0.68796 0.05982 0.62114 0.0
C2917 C 0.70343 0.04327 0.61975 0.0
C2918 C 0.75059 0.02034 0.64975 0.0
C2919 C 0.78984 0.97746 0.62962 0.0
C2920 C 0.77194 0.99387 0.63026 0.0
C2921 C 0.72298 0.04445 0.63168 0.0
C2922 C 0.73936 0.0265 0.63117 0.0
H2923 H 0.83206 0.96298 0.59905 0.0
H2924 H 0.80303 0.98892 0.60033 0.0
H2925 H 0.77484 1.00038 0.66395 0.0
H2926 H 0.71523 0.09338 0.65601 0.0
H2927 H 0.74167 0.06498 0.65357 0.0
C2928 C 0.14573 0.55857 0.1987 0.0
C2929 C 0.12727 0.56679 0.18848 0.0
C2930 C 0.14402 0.54216 0.21366 0.0
C2931 C 0.10987 0.51847 0.25333 0.0
H2932 H 0.14407 0.46711 0.24568 0.0
C2933 C 0.10886 0.44696 0.3136 0.0
C2934 C 0.12789 0.43514 0.31622 0.0
C2935 C 0.10709 0.46276 0.29777 0.0
C2936 C 0.13466 0.48144 0.24842 0.0
H2937 H 0.09243 0.56423 0.18631 0.0
H2938 H 0.08941 0.53587 0.2132 0.0
H2939 H 0.14424 0.4951 0.21902 0.0
H2940 H 0.16037 0.4316 0.30484 0.0
H2941 H 0.15771 0.45931 0.27837 0.0
H2942 H 0.10106 0.50541 0.28323 0.0
C2943 C 0.10522 0.5421 0.20928 0.0
C2944 C 0.13463 0.49743 0.23291 0.0
C2945 C 0.10696 0.55824 0.19383 0.0
C2946 C 0.14525 0.43999 0.30306 0.0
C2947 C 0.14364 0.45591 0.28762 0.0
C2948 C 0.11022 0.50262 0.26914 0.0
C2949 C 0.12378 0.53378 0.21924 0.0
C2950 C 0.12241 0.51622 0.23523 0.0
C2951 C 0.12444 0.46737 0.28437 0.0
C2952 C 0.12287 0.48393 0.26709 0.0
H2953 H 0.16165 0.56464 0.19492 0.0
H2954 H 0.1586 0.53616 0.22109 0.0
H2955 H 0.10039 0.53285 0.25562 0.0
H2956 H 0.09519 0.44371 0.32348 0.0
H2957 H 0.09195 0.47103 0.29584 0.0
C2958 C 0.70696 0.86317 0.44541 0.0
C2959 C 0.69329 0.88119 0.44542 0.0
C2960 C 0.72381 0.8615 0.46067 0.0
C2961 C 0.75896 0.89559 0.49638 0.0
H2962 H 0.76968 0.84308 0.52767 0.0
C2963 C 0.83453 0.8884 0.55024 0.0
C2964 C 0.83183 0.88083 0.57097 0.0
C2965 C 0.81798 0.88636 0.53487 0.0
C2966 C 0.76686 0.85788 0.51911 0.0
H2967 H 0.68713 0.91169 0.46158 0.0
H2968 H 0.71633 0.90892 0.48753 0.0
H2969 H 0.74049 0.84358 0.50069 0.0
H2970 H 0.80941 0.86419 0.5912 0.0
H2971 H 0.78051 0.86021 0.56404 0.0
H2972 H 0.78516 0.90996 0.51457 0.0
C2973 C 0.71405 0.89598 0.4759 0.0
C2974 C 0.75026 0.85811 0.50349 0.0
C2975 C 0.69714 0.89749 0.46098 0.0
C2976 C 0.81224 0.87012 0.57545 0.0
C2977 C 0.79562 0.86787 0.55987 0.0
C2978 C 0.77567 0.89527 0.51168 0.0
C2979 C 0.72768 0.87801 0.47604 0.0
C2980 C 0.74597 0.87705 0.492 0.0
C2981 C 0.79809 0.87651 0.5395 0.0
C2982 C 0.7799 0.87645 0.52334 0.0
H2983 H 0.70452 0.85029 0.43375 0.0
H2984 H 0.73405 0.84748 0.46021 0.0
H2985 H 0.7563 0.91044 0.48783 0.0
H2986 H 0.84928 0.89669 0.54593 0.0
H2987 H 0.82069 0.89287 0.51933 0.0
C2988 C 0.37319 0.4235 0.70964 0.0
C2989 C 0.37862 0.42659 0.68838 0.0
C2990 C 0.37667 0.43996 0.72484 0.0
C2991 C 0.38342 0.49977 0.72972 0.0
H2992 H 0.39547 0.48674 0.78855 0.0
C2993 C 0.36748 0.5616 0.79663 0.0
C2994 C 0.38138 0.56279 0.81456 0.0
C2995 C 0.36962 0.54538 0.78119 0.0
C2996 C 0.39236 0.49079 0.77218 0.0
H2997 H 0.39281 0.44947 0.6668 0.0
H2998 H 0.39934 0.4781 0.69346 0.0
H2999 H 0.39611 0.45784 0.76193 0.0
H3000 H 0.40861 0.54756 0.83002 0.0
H3001 H 0.41249 0.51928 0.80289 0.0
H3002 H 0.37992 0.53275 0.73992 0.0
C3003 C 0.39199 0.46296 0.69827 0.0
C3004 C 0.39246 0.4741 0.75687 0.0
C3005 C 0.38848 0.44642 0.68298 0.0
C3006 C 0.3976 0.54722 0.81648 0.0
C3007 C 0.39974 0.5309 0.80094 0.0
C3008 C 0.38338 0.51646 0.74501 0.0
C3009 C 0.38578 0.46011 0.71938 0.0
C3010 C 0.38765 0.47825 0.73544 0.0
C3011 C 0.38576 0.52975 0.78304 0.0
C3012 C 0.3875 0.51218 0.76654 0.0
H3013 H 0.36552 0.40853 0.71452 0.0
H3014 H 0.37135 0.43712 0.74076 0.0
H3015 H 0.37943 0.5037 0.71349 0.0
H3016 H 0.3547 0.57314 0.79449 0.0
H3017 H 0.35825 0.54489 0.76794 0.0
C3018 C 0.81555 0.10682 0.95604 0.0
C3019 C 0.82165 0.12527 0.94465 0.0
C3020 C 0.79929 0.10778 0.97091 0.0
C3021 C 0.75395 0.14207 0.98972 0.0
H3022 H 0.75732 0.10324 0.03733 0.0
C3023 C 0.69716 0.14369 0.06275 0.0
C3024 C 0.68704 0.1236 0.06679 0.0
C3025 C 0.71354 0.1452 0.04786 0.0
C3026 C 0.75615 0.11416 0.02409 0.0
H3027 H 0.81522 0.15931 0.94005 0.0
H3028 H 0.7874 0.16132 0.96672 0.0
H3029 H 0.78622 0.10403 0.01204 0.0
H3030 H 0.68652 0.08933 0.05853 0.0
H3031 H 0.71551 0.09191 0.03318 0.0
H3032 H 0.72404 0.15262 1.00257 0.0
C3033 C 0.79484 0.14586 0.96378 0.0
C3034 C 0.77266 0.11452 0.0094 0.0
C3035 C 0.81094 0.14479 0.94853 0.0
C3036 C 0.69384 0.10508 0.05573 0.0
C3037 C 0.71052 0.10651 0.04127 0.0
C3038 C 0.73762 0.14201 0.00472 0.0
C3039 C 0.78879 0.12735 0.97529 0.0
C3040 C 0.77168 0.12817 0.9917 0.0
C3041 C 0.72052 0.12657 0.03713 0.0
C3042 C 0.7384 0.12779 0.02187 0.0
H3043 H 0.82315 0.09139 0.95326 0.0
H3044 H 0.79482 0.09295 0.97877 0.0
H3045 H 0.75232 0.15264 0.97629 0.0
H3046 H 0.69228 0.15826 0.07096 0.0
H3047 H 0.72104 0.16085 0.04503 0.0
C3048 C 0.20242 0.14944 0.563 0.0
C3049 C 0.19157 0.13077 0.56998 0.0
C3050 C 0.21771 0.14811 0.54724 0.0
C3051 C 0.23846 0.11197 0.50472 0.0
H3052 H 0.28621 0.1534 0.50788 0.0
C3053 C 0.31249 0.11306 0.44832 0.0
C3054 C 0.3157 0.13319 0.43856 0.0
C3055 C 0.29768 0.11092 0.46465 0.0
C3056 C 0.27298 0.14172 0.5068 0.0
H3057 H 0.18814 0.09598 0.56556 0.0
H3058 H 0.21554 0.09345 0.53843 0.0
H3059 H 0.26015 0.15267 0.53597 0.0
H3060 H 0.30616 0.16689 0.43859 0.0
H3061 H 0.28097 0.16322 0.46734 0.0
H3062 H 0.25196 0.10081 0.4756 0.0
C3063 C 0.21189 0.10926 0.54491 0.0
C3064 C 0.25786 0.14138 0.52282 0.0
C3065 C 0.19623 0.11067 0.56055 0.0
C3066 C 0.30399 0.15111 0.44564 0.0
C3067 C 0.28963 0.14907 0.46218 0.0
C3068 C 0.25388 0.11206 0.48883 0.0
C3069 C 0.223 0.12799 0.53816 0.0
C3070 C 0.24005 0.12688 0.52181 0.0
C3071 C 0.28627 0.12898 0.47184 0.0
C3072 C 0.27103 0.12725 0.48953 0.0
H3073 H 0.19898 0.16528 0.56959 0.0
H3074 H 0.22526 0.16302 0.5421 0.0
H3075 H 0.22495 0.10067 0.5032 0.0
H3076 H 0.32124 0.09896 0.44321 0.0
H3077 H 0.29543 0.09526 0.47191 0.0
C3078 C 0.1173 0.96825 0.81713 0.0
C3079 C 0.13112 0.95038 0.81825 0.0
C3080 C 0.11838 0.98291 0.80041 0.0
C3081 C 0.13785 0.9884 0.74531 0.0
H3082 H 0.12654 0.04928 0.75517 0.0
C3083 C 0.11998 0.04753 0.67662 0.0
C3084 C 0.12658 0.06946 0.67863 0.0
C3085 C 0.12267 0.03313 0.69342 0.0
C3086 C 0.13 0.0324 0.75207 0.0
H3087 H 0.1571 0.93426 0.80239 0.0
H3088 H 0.15919 0.95996 0.77343 0.0
H3089 H 0.1275 0.02453 0.78481 0.0
H3090 H 0.14185 0.09308 0.7001 0.0
H3091 H 0.1469 0.06793 0.72923 0.0
H3092 H 0.14064 0.99633 0.7126 0.0
C3093 C 0.14728 0.96249 0.7854 0.0
C3094 C 0.13025 0.01806 0.76913 0.0
C3095 C 0.1462 0.94779 0.80217 0.0
C3096 C 0.13661 0.07635 0.69783 0.0
C3097 C 0.13929 0.06191 0.71468 0.0
C3098 C 0.1376 1.00274 0.72824 0.0
C3099 C 0.13332 0.98027 0.7842 0.0
C3100 C 0.13399 0.99577 0.76603 0.0
C3101 C 0.13206 0.04013 0.71287 0.0
C3102 C 0.1335 0.02497 0.73129 0.0
H3103 H 0.10536 0.97085 0.82907 0.0
H3104 H 0.10709 0.99609 0.8 0.0
H3105 H 0.14059 0.97138 0.74212 0.0
H3106 H 0.11207 0.04152 0.6622 0.0
H3107 H 0.11661 0.01665 0.69134 0.0
C3108 C 0.1875 0.88727 0.95419 0.0
C3109 C 0.1942 0.88163 0.93376 0.0
C3110 C 0.20245 0.88889 0.97139 0.0
C3111 C 0.26005 0.87378 0.98678 0.0
H3112 H 0.24888 0.90807 0.03695 0.0
C3113 C 0.32446 0.886 0.05529 0.0
C3114 C 0.31722 0.88274 0.07597 0.0
C3115 C 0.30974 0.8875 0.03803 0.0
C3116 C 0.25227 0.89835 0.02308 0.0
H3117 H 0.22226 0.87425 0.91549 0.0
H3118 H 0.24817 0.87837 0.94463 0.0
H3119 H 0.22323 0.90808 0.00714 0.0
H3120 H 0.28844 0.87919 0.09446 0.0
H3121 H 0.26297 0.88256 0.06467 0.0
H3122 H 0.2894 0.86455 1.00269 0.0
C3123 C 0.23134 0.88062 0.94795 0.0
C3124 C 0.23738 0.89821 0.00585 0.0
C3125 C 0.21639 0.87855 0.93096 0.0
C3126 C 0.29474 0.88188 0.07887 0.0
C3127 C 0.28005 0.88381 0.06171 0.0
C3128 C 0.27509 0.87427 0.00382 0.0
C3129 C 0.22472 0.88528 0.96872 0.0
C3130 C 0.24087 0.88584 0.98729 0.0
C3131 C 0.28726 0.88619 0.04091 0.0
C3132 C 0.27145 0.88646 0.02234 0.0
H3133 H 0.17054 0.88941 0.95711 0.0
H3134 H 0.19627 0.89224 0.98692 0.0
H3135 H 0.26346 0.86347 0.97335 0.0
H3136 H 0.34157 0.88644 0.05226 0.0
H3137 H 0.316 0.88948 0.02233 0.0
C3138 C 0.38155 0.04969 0.33209 0.0
C3139 C 0.3751 0.07134 0.32969 0.0
C3140 C 0.37836 0.03436 0.31571 0.0
C3141 C 0.37028 0.03074 0.25736 0.0
H3142 H 0.36127 0.96959 0.26842 0.0
C3143 C 0.38722 0.96486 0.19451 0.0
C3144 C 0.37413 0.94597 0.19307 0.0
C3145 C 0.38488 0.98006 0.21088 0.0
C3146 C 0.36352 0.98661 0.26494 0.0
H3147 H 0.35937 0.09341 0.30814 0.0
H3148 H 0.35335 0.06655 0.27974 0.0
H3149 H 0.36039 0.99593 0.29746 0.0
H3150 H 0.34812 0.92851 0.20802 0.0
H3151 H 0.34386 0.95523 0.23658 0.0
H3152 H 0.37317 0.02148 0.22483 0.0
C3153 C 0.36129 0.06153 0.29424 0.0
C3154 C 0.36329 1.00177 0.28171 0.0
C3155 C 0.36453 0.07693 0.31066 0.0
C3156 C 0.35848 0.94284 0.20854 0.0
C3157 C 0.35614 0.95813 0.22502 0.0
C3158 C 0.37046 0.0156 0.24061 0.0
C3159 C 0.36854 0.04009 0.29636 0.0
C3160 C 0.36698 0.02406 0.27824 0.0
C3161 C 0.36934 0.97699 0.22643 0.0
C3162 C 0.36743 0.99325 0.24416 0.0
H3163 H 0.38985 0.04467 0.3464 0.0
H3164 H 0.38446 0.0182 0.31799 0.0
H3165 H 0.3734 0.04764 0.25395 0.0
H3166 H 0.39953 0.96795 0.18302 0.0
H3167 H 0.39566 0.99407 0.21153 0.0
C3168 C 0.46183 0.32171 0.1221 0.0
C3169 C 0.44055 0.31557 0.12678 0.0
C3170 C 0.4783 0.30627 0.12158 0.0
C3171 C 0.4901 0.24846 0.13774 0.0
H3172 H 0.54135 0.25777 0.10501 0.0
C3173 C 0.55531 0.18224 0.12658 0.0
C3174 C 0.57649 0.18896 0.13223 0.0
C3175 C 0.53876 0.19745 0.12443 0.0
C3176 C 0.52712 0.25494 0.11425 0.0
H3177 H 0.41991 0.28806 0.13381 0.0
H3178 H 0.44791 0.2612 0.13167 0.0
H3179 H 0.51256 0.2842 0.10369 0.0
H3180 H 0.59688 0.21715 0.13926 0.0
H3181 H 0.56828 0.24365 0.13454 0.0
H3182 H 0.50459 0.21875 0.14764 0.0
C3183 C 0.45241 0.27799 0.12928 0.0
C3184 C 0.51056 0.27025 0.11367 0.0
C3185 C 0.43611 0.29347 0.13026 0.0
C3186 C 0.58081 0.21137 0.13479 0.0
C3187 C 0.5644 0.22659 0.13209 0.0
C3188 C 0.50644 0.23295 0.13791 0.0
C3189 C 0.47397 0.28406 0.12533 0.0
C3190 C 0.49171 0.26742 0.12551 0.0
C3191 C 0.54305 0.21983 0.12732 0.0
C3192 C 0.52525 0.23601 0.12628 0.0
H3193 H 0.46596 0.33861 0.11962 0.0
H3194 H 0.49455 0.31199 0.11882 0.0
H3195 H 0.47639 0.24562 0.14763 0.0
H3196 H 0.55131 0.16513 0.12476 0.0
H3197 H 0.52252 0.19168 0.12067 0.0
C3198 C 0.92943 0.2128 0.87605 0.0
C3199 C 0.93314 0.19048 0.87856 0.0
C3200 C 0.9463 0.22832 0.87816 0.0
C3201 C 0.0053 0.23572 0.8954 0.0
H3202 H 1.00044 0.28849 0.86321 0.0
C3203 C 0.07841 0.29502 0.88126 0.0
C3204 C 0.07495 0.31759 0.88172 0.0
C3205 C 0.06119 0.27996 0.88277 0.0
C3206 C 1.00206 0.27398 0.87252 0.0
H3207 H 0.95805 0.1673 0.88537 0.0
H3208 H 0.98748 0.19402 0.88841 0.0
H3209 H 0.97116 0.26176 0.86183 0.0
H3210 H 0.05012 0.34167 0.88427 0.0
H3211 H 0.02011 0.31546 0.88671 0.0
H3212 H 0.03671 0.24782 0.90533 0.0
C3213 C 0.97137 0.19982 0.88541 0.0
C3214 C 0.98505 0.25848 0.87184 0.0
C3215 C 0.95436 0.1843 0.88365 0.0
C3216 C 0.05361 0.32452 0.88415 0.0
C3217 C 0.03629 0.30941 0.88529 0.0
C3218 C 0.02245 0.25109 0.8958 0.0
C3219 C 0.96779 0.22221 0.88244 0.0
C3220 C 0.9862 0.23898 0.88331 0.0
C3221 C 0.03974 0.28683 0.88439 0.0
C3222 C 0.02114 0.27055 0.88441 0.0
H3223 H 0.91338 0.21835 0.87214 0.0
H3224 H 0.94231 0.2452 0.8763 0.0
H3225 H 0.00706 0.22136 0.90485 0.0
H3226 H 0.0945 0.28892 0.87921 0.0
H3227 H 0.06464 0.26282 0.88184 0.0
C3228 C 0.96311 0.81791 0.12364 0.0
C3229 C 0.94132 0.81338 0.12774 0.0
C3230 C 0.97858 0.80159 0.12454 0.0
C3231 C 0.98714 0.74325 0.14083 0.0
H3232 H 0.03659 0.7491 0.10491 0.0
C3233 C 0.04509 0.6726 0.11914 0.0
C3234 C 0.0674 0.6772 0.12062 0.0
C3235 C 0.02996 0.68902 0.12204 0.0
C3236 C 0.02297 0.74728 0.11518 0.0
H3237 H 0.91883 0.78785 0.13602 0.0
H3238 H 0.94542 0.75918 0.1367 0.0
H3239 H 0.00985 0.7774 0.10543 0.0
H3240 H 0.09112 0.70292 0.12646 0.0
H3241 H 0.06472 0.73166 0.13092 0.0
H3242 H 1.00005 0.71238 0.14956 0.0
C3243 C 0.95092 0.77552 0.13349 0.0
C3244 C 0.00755 0.76368 0.11564 0.0
C3245 C 0.9355 0.79203 0.13305 0.0
C3246 C 0.07412 0.69868 0.12542 0.0
C3247 C 0.05898 0.71521 0.1278 0.0
C3248 C 1.00236 0.72661 0.13998 0.0
C3249 C 0.97278 0.77992 0.12903 0.0
C3250 C 0.98933 0.76212 0.12858 0.0
C3251 C 0.03669 0.71065 0.12597 0.0
C3252 C 0.02055 0.72845 0.12723 0.0
H3253 H 0.96826 0.83418 0.11959 0.0
H3254 H 0.99514 0.80614 0.12164 0.0
H3255 H 0.97376 0.74129 0.15133 0.0
H3256 H 0.03929 0.65629 0.11538 0.0
H3257 H 0.01296 0.68493 0.12041 0.0
C3258 C 0.57727 0.7958 0.37218 0.0
C3259 C 0.57416 0.81793 0.37657 0.0
C3260 C 0.56038 0.78051 0.37392 0.0
C3261 C 0.5026 0.77371 0.39219 0.0
H3262 H 0.50444 0.72198 0.3568 0.0
C3263 C 0.42837 0.71653 0.37139 0.0
C3264 C 0.43134 0.69404 0.37342 0.0
C3265 C 0.44575 0.73132 0.37409 0.0
C3266 C 0.50374 0.73625 0.36693 0.0
H3267 H 0.55058 0.84126 0.38621 0.0
H3268 H 0.52086 0.81504 0.38827 0.0
H3269 H 0.53406 0.74823 0.35644 0.0
H3270 H 0.45514 0.6696 0.3799 0.0
H3271 H 0.48565 0.69541 0.38395 0.0
H3272 H 0.47143 0.76196 0.40153 0.0
C3273 C 0.53655 0.80907 0.38427 0.0
C3274 C 0.52093 0.75141 0.36691 0.0
C3275 C 0.55368 0.8243 0.38307 0.0
C3276 C 0.45218 0.68679 0.37853 0.0
C3277 C 0.4697 0.70158 0.38066 0.0
C3278 C 0.48517 0.75876 0.39178 0.0
C3279 C 0.53945 0.78683 0.37946 0.0
C3280 C 0.52085 0.77047 0.37963 0.0
C3281 C 0.46675 0.72404 0.3783 0.0
C3282 C 0.48554 0.73976 0.37923 0.0
H3283 H 0.59284 0.79027 0.36717 0.0
H3284 H 0.5639 0.76369 0.37072 0.0
H3285 H 0.5017 0.78773 0.40257 0.0
H3286 H 0.4126 0.72269 0.36733 0.0
H3287 H 0.44288 0.74845 0.37204 0.0
C3288 C 0.93906 0.79491 0.63846 0.0
C3289 C 0.94268 0.81677 0.63334 0.0
C3290 C 0.95562 0.77972 0.63725 0.0
C3291 C 0.01277 0.77231 0.61822 0.0
H3292 H 0.01022 0.7225 0.65482 0.0
C3293 C 0.08541 0.71534 0.63729 0.0
C3294 C 0.08118 0.69282 0.63593 0.0
C3295 C 0.06867 0.73031 0.63508 0.0
C3296 C 0.01112 0.73624 0.64437 0.0
H3297 H 0.96688 0.83974 0.62305 0.0
H3298 H 0.99599 0.81377 0.62196 0.0
H3299 H 0.98147 0.74873 0.65534 0.0
H3300 H 0.05576 0.66859 0.63106 0.0
H3301 H 0.02657 0.69467 0.6278 0.0
H3302 H 0.04323 0.76005 0.60826 0.0
C3303 C 0.98015 0.8079 0.62615 0.0
C3304 C 0.99444 0.75136 0.64449 0.0
C3305 C 0.96339 0.82299 0.62686 0.0
C3306 C 0.05973 0.68576 0.63196 0.0
C3307 C 0.04294 0.70072 0.63027 0.0
C3308 C 0.02971 0.75741 0.61849 0.0
C3309 C 0.97667 0.78592 0.63145 0.0
C3310 C 0.99479 0.76969 0.63132 0.0
C3311 C 0.04713 0.7232 0.632 0.0
C3312 C 0.02906 0.73909 0.63148 0.0
H3313 H 0.92329 0.78945 0.64339 0.0
H3314 H 0.9517 0.76305 0.64088 0.0
H3315 H 0.0138 0.78574 0.60746 0.0
H3316 H 0.10166 0.72142 0.64045 0.0
H3317 H 0.07249 0.74748 0.63659 0.0
C3318 C 0.072 0.30298 0.37733 0.0
C3319 C 0.0662 0.32391 0.38399 0.0
C3320 C 0.05645 0.28614 0.37507 0.0
C3321 C 0.99917 0.27171 0.39013 0.0
H3322 H 0.00801 0.2221 0.35329 0.0
C3323 C 0.93391 0.20309 0.37636 0.0
C3324 C 0.94128 0.18184 0.37928 0.0
C3325 C 0.94858 0.2207 0.37502 0.0
C3326 C 0.00529 0.23584 0.36368 0.0
H3327 H 0.03912 0.34358 0.39258 0.0
H3328 H 0.01202 0.31495 0.38744 0.0
H3329 H 0.03408 0.25215 0.35406 0.0
H3330 H 0.97001 0.16255 0.3823 0.0
H3331 H 0.99544 0.193 0.3791 0.0
H3332 H 0.97001 0.25542 0.39923 0.0
C3333 C 0.02866 0.31101 0.38481 0.0
C3334 C 0.02041 0.25314 0.36429 0.0
C3335 C 0.04427 0.32768 0.38749 0.0
C3336 C 0.96371 0.17862 0.37988 0.0
C3337 C 0.97833 0.19612 0.37807 0.0
C3338 C 0.98387 0.2546 0.38918 0.0
C3339 C 0.03445 0.28972 0.37901 0.0
C3340 C 0.0178 0.2714 0.37768 0.0
C3341 C 0.97102 0.21749 0.37609 0.0
C3342 C 0.98678 0.23631 0.3761 0.0
H3343 H 0.08876 0.29931 0.3748 0.0
H3344 H 0.06196 0.27012 0.37093 0.0
H3345 H 0.99651 0.28494 0.4011 0.0
H3346 H 0.9168 0.20627 0.37615 0.0
H3347 H 0.94235 0.2369 0.37339 0.0
C3348 C 0.43486 0.70196 0.87606 0.0
C3349 C 0.44143 0.68035 0.87841 0.0
C3350 C 0.45013 0.71914 0.87448 0.0
C3351 C 0.50994 0.73176 0.88412 0.0
H3352 H 0.49614 0.78576 0.85683 0.0
C3353 C 0.57494 0.80057 0.87299 0.0
C3354 C 0.56883 0.82189 0.87814 0.0
C3355 C 0.55951 0.78346 0.87139 0.0
C3356 C 0.5003 0.77083 0.86461 0.0
H3357 H 0.46958 0.66011 0.87996 0.0
H3358 H 0.4958 0.68936 0.8761 0.0
H3359 H 0.46949 0.75619 0.85672 0.0
H3360 H 0.54123 0.84165 0.88498 0.0
H3361 H 0.51451 0.81218 0.88156 0.0
H3362 H 0.54091 0.7464 0.89163 0.0
C3363 C 0.47894 0.69349 0.87632 0.0
C3364 C 0.48485 0.75373 0.86466 0.0
C3365 C 0.46374 0.67646 0.87824 0.0
C3366 C 0.54667 0.82558 0.88082 0.0
C3367 C 0.53125 0.80858 0.87885 0.0
C3368 C 0.52546 0.74872 0.88377 0.0
C3369 C 0.47259 0.71532 0.87493 0.0
C3370 C 0.48927 0.73378 0.87448 0.0
C3371 C 0.53739 0.78711 0.87453 0.0
C3372 C 0.52093 0.76863 0.8741 0.0
H3373 H 0.4179 0.70577 0.87647 0.0
H3374 H 0.44421 0.73551 0.87369 0.0
H3375 H 0.51418 0.71717 0.89242 0.0
H3376 H 0.59179 0.7969 0.87109 0.0
H3377 H 0.56497 0.76725 0.86786 0.0
C3378 C 0.6517 0.06445 0.70253 0.0
C3379 C 0.63339 0.07093 0.69083 0.0
C3380 C 0.65033 0.04764 0.7171 0.0
C3381 C 0.61501 0.01964 0.75307 0.0
H3382 H 0.6547 0.97214 0.74806 0.0
C3383 C 0.61408 0.94662 0.8112 0.0
C3384 C 0.63371 0.93635 0.81558 0.0
C3385 C 0.6127 0.9627 0.79566 0.0
C3386 C 0.64371 0.98541 0.75008 0.0
H3387 H 0.59918 0.06484 0.68561 0.0
H3388 H 0.59668 0.03578 0.71177 0.0
H3389 H 0.65487 1.00081 0.72208 0.0
H3390 H 0.66749 0.93575 0.80761 0.0
H3391 H 0.66541 0.96408 0.78165 0.0
H3392 H 0.60449 0.00493 0.78162 0.0
C3393 C 0.61213 0.04369 0.70934 0.0
C3394 C 0.64371 1.00178 0.73496 0.0
C3395 C 0.61359 0.06024 0.69431 0.0
C3396 C 0.65199 0.94298 0.80446 0.0
C3397 C 0.65072 0.95924 0.7893 0.0
C3398 C 0.61529 1.00346 0.76853 0.0
C3399 C 0.63055 0.0371 0.72077 0.0
C3400 C 0.62948 0.01916 0.73632 0.0
C3401 C 0.63101 0.96919 0.78433 0.0
C3402 C 0.62983 0.98614 0.76742 0.0
H3403 H 0.66725 0.0722 0.70021 0.0
H3404 H 0.66478 0.043 0.72572 0.0
H3405 H 0.60395 0.03293 0.75461 0.0
H3406 H 0.59967 0.94191 0.81945 0.0
H3407 H 0.59715 0.9697 0.79231 0.0
C3408 C 0.33436 0.38469 0.04543 0.0
C3409 C 0.33147 0.37851 0.06652 0.0
C3410 C 0.31784 0.3817 0.03026 0.0
C3411 C 0.26611 0.35362 0.01707 0.0
H3412 H 0.25538 0.40534 0.98453 0.0
C3413 C 0.20474 0.3582 0.94535 0.0
C3414 C 0.19158 0.37656 0.94524 0.0
C3415 C 0.22168 0.35647 0.96033 0.0
C3416 C 0.25813 0.39076 0.99349 0.0
H3417 H 0.30917 0.36313 0.0878 0.0
H3418 H 0.28025 0.35775 0.06109 0.0
H3419 H 0.28524 0.40515 0.01014 0.0
H3420 H 0.18589 0.40735 0.96114 0.0
H3421 H 0.21527 0.40436 0.9868 0.0
H3422 H 0.2387 0.33937 1.00032 0.0
C3423 C 0.29542 0.36494 0.05642 0.0
C3424 C 0.27537 0.39058 0.00805 0.0
C3425 C 0.31201 0.36801 0.07172 0.0
C3426 C 0.19563 0.39295 0.96061 0.0
C3427 C 0.21258 0.39132 0.97534 0.0
C3428 C 0.24891 0.35372 1.00225 0.0
C3429 C 0.29795 0.37239 0.03568 0.0
C3430 C 0.27959 0.37205 0.02006 0.0
C3431 C 0.22595 0.3732 0.97529 0.0
C3432 C 0.24465 0.37239 0.99042 0.0
H3433 H 0.34914 0.39266 0.04072 0.0
H3434 H 0.32046 0.38725 0.01434 0.0
H3435 H 0.26899 0.33909 0.02606 0.0
H3436 H 0.20209 0.34526 0.93378 0.0
H3437 H 0.23178 0.34234 0.95987 0.0
C3438 C 0.88017 0.94469 0.18158 0.0
C3439 C 0.87364 0.9236 0.18728 0.0
C3440 C 0.88287 0.96136 0.19693 0.0
C3441 C 0.89277 0.97307 0.25402 0.0
H3442 H 0.86248 0.02633 0.24348 0.0
C3443 C 0.88764 0.0412 0.31936 0.0
C3444 C 0.88396 0.0627 0.31328 0.0
C3445 C 0.88763 0.02416 0.30421 0.0
C3446 C 0.87156 0.0119 0.24672 0.0
H3447 H 0.86563 0.90359 0.21397 0.0
H3448 H 0.87122 0.93238 0.24072 0.0
H3449 H 0.86138 0.99748 0.21694 0.0
H3450 H 0.87829 0.08311 0.28622 0.0
H3451 H 0.87969 0.05417 0.25998 0.0
H3452 H 0.90362 0.98754 0.28344 0.0
C3453 C 0.87398 0.93607 0.22431 0.0
C3454 C 0.87074 0.99516 0.23137 0.0
C3455 C 0.87077 0.91954 0.20893 0.0
C3456 C 0.88108 0.06676 0.29157 0.0
C3457 C 0.88157 0.0499 0.27643 0.0
C3458 C 0.89402 0.99002 0.26923 0.0
C3459 C 0.87963 0.95736 0.21853 0.0
C3460 C 0.88123 0.97544 0.23478 0.0
C3461 C 0.88435 0.02811 0.28238 0.0
C3462 C 0.88337 0.00983 0.26597 0.0
H3463 H 0.8823 0.94858 0.16511 0.0
H3464 H 0.88735 0.97749 0.19187 0.0
H3465 H 0.90116 0.95817 0.25719 0.0
H3466 H 0.8896 0.03738 0.33595 0.0
H3467 H 0.88953 0.00781 0.30984 0.0
C3468 C 0.20144 0.65075 0.56485 0.0
C3469 C 0.19121 0.63079 0.56901 0.0
C3470 C 0.21692 0.65222 0.54903 0.0
C3471 C 0.23687 0.62087 0.50223 0.0
H3472 H 0.28617 0.66023 0.50733 0.0
C3473 C 0.31446 0.61156 0.45457 0.0
C3474 C 0.3202 0.6294 0.44216 0.0
C3475 C 0.29837 0.61333 0.46956 0.0
C3476 C 0.27236 0.64929 0.50569 0.0
H3477 H 0.19006 0.59657 0.56054 0.0
H3478 H 0.21736 0.59887 0.53404 0.0
H3479 H 0.25901 0.66022 0.5348 0.0
H3480 H 0.31376 0.6632 0.43602 0.0
H3481 H 0.28605 0.66647 0.46296 0.0
H3482 H 0.25089 0.60926 0.47365 0.0
C3483 C 0.21292 0.61368 0.54209 0.0
C3484 C 0.25672 0.64932 0.52135 0.0
C3485 C 0.1973 0.6123 0.55752 0.0
C3486 C 0.30969 0.64918 0.44535 0.0
C3487 C 0.29393 0.65109 0.46077 0.0
C3488 C 0.2527 0.62054 0.48688 0.0
C3489 C 0.22273 0.63369 0.53726 0.0
C3490 C 0.23886 0.63487 0.52001 0.0
C3491 C 0.28799 0.6331 0.47284 0.0
C3492 C 0.27068 0.63458 0.48856 0.0
H3493 H 0.19708 0.6653 0.57341 0.0
H3494 H 0.22397 0.66796 0.54576 0.0
H3495 H 0.2231 0.60998 0.50012 0.0
H3496 H 0.32209 0.59604 0.45237 0.0
H3497 H 0.29407 0.59923 0.4787 0.0
C3498 C 0.69382 0.60868 0.05772 0.0
C3499 C 0.69054 0.62861 0.06813 0.0
C3500 C 0.70906 0.60705 0.04167 0.0
C3501 C 0.75608 0.63771 0.01929 0.0
H3502 H 0.74704 0.59866 0.97123 0.0
C3503 C 0.80147 0.64676 0.94132 0.0
C3504 C 0.81206 0.62832 0.93373 0.0
C3505 C 0.78715 0.6452 0.95799 0.0
C3506 C 0.74983 0.60951 0.98466 0.0
H3507 H 0.70008 0.66264 0.06908 0.0
H3508 H 0.72558 0.66007 0.04092 0.0
H3509 H 0.72084 0.59906 0.99955 0.0
H3510 H 0.81553 0.59367 0.9376 0.0
H3511 H 0.78984 0.59088 0.96646 0.0
H3512 H 0.78452 0.6488 0.00384 0.0
C3513 C 0.71729 0.64537 0.04559 0.0
C3514 C 0.73487 0.6097 1.00099 0.0
C3515 C 0.70244 0.6469 0.06176 0.0
C3516 C 0.80767 0.60818 0.94308 0.0
C3517 C 0.79293 0.60655 0.95952 0.0
C3518 C 0.77072 0.63779 1.00283 0.0
C3519 C 0.72113 0.62539 0.03543 0.0
C3520 C 0.73761 0.62404 0.01846 0.0
C3521 C 0.7827 0.62511 0.96728 0.0
C3522 C 0.76768 0.62386 0.98524 0.0
H3523 H 0.6849 0.59428 0.06221 0.0
H3524 H 0.71157 0.59132 0.03443 0.0
H3525 H 0.7593 0.6485 0.03267 0.0
H3526 H 0.80452 0.66256 0.93461 0.0
H3527 H 0.77943 0.65975 0.96358 0.0
C3528 C 0.63315 0.44357 0.29717 0.0
C3529 C 0.62676 0.45075 0.31726 0.0
C3530 C 0.63412 0.45795 0.28017 0.0
C3531 C 0.64056 0.51536 0.26635 0.0
H3532 H 0.60946 0.49965 0.21444 0.0
C3533 C 0.62883 0.57739 0.19858 0.0
C3534 C 0.62542 0.56985 0.17766 0.0
C3535 C 0.63051 0.56283 0.21541 0.0
C3536 C 0.6187 0.50427 0.22855 0.0
H3537 H 0.61687 0.47892 0.3352 0.0
H3538 H 0.61939 0.50414 0.30574 0.0
H3539 H 0.61007 0.47453 0.24376 0.0
H3540 H 0.62212 0.54085 0.15807 0.0
H3541 H 0.62634 0.51554 0.18697 0.0
H3542 H 0.64988 0.54473 0.25116 0.0
C3543 C 0.6234 0.4873 0.30312 0.0
C3544 C 0.61887 0.4898 0.24549 0.0
C3545 C 0.62192 0.47282 0.31999 0.0
C3546 C 0.62469 0.54729 0.17396 0.0
C3547 C 0.62681 0.53272 0.19071 0.0
C3548 C 0.64079 0.52967 0.24925 0.0
C3549 C 0.62923 0.48 0.28291 0.0
C3550 C 0.62966 0.49521 0.26467 0.0
C3551 C 0.62923 0.54017 0.21185 0.0
C3552 C 0.62972 0.5245 0.23003 0.0
H3553 H 0.63678 0.42666 0.2944 0.0
H3554 H 0.63873 0.45182 0.26483 0.0
H3555 H 0.64919 0.51995 0.28085 0.0
H3556 H 0.62914 0.59463 0.20214 0.0
H3557 H 0.632 0.56951 0.23128 0.0
C3558 C 0.78918 0.38222 0.56649 0.0
C3559 C 0.81128 0.38604 0.56343 0.0
C3560 C 0.77415 0.38413 0.54981 0.0
C3561 C 0.76732 0.40365 0.49381 0.0
H3562 H 0.71689 0.36569 0.49472 0.0
C3563 C 0.70839 0.38578 0.4216 0.0
C3564 C 0.68618 0.38615 0.42568 0.0
C3565 C 0.7238 0.38803 0.43814 0.0
C3566 C 0.73079 0.37654 0.4943 0.0
H3567 H 0.83486 0.39506 0.54033 0.0
H3568 H 0.80882 0.39751 0.51091 0.0
H3569 H 0.74345 0.36466 0.52346 0.0
H3570 H 0.66293 0.38957 0.45052 0.0
H3571 H 0.68977 0.39308 0.47929 0.0
H3572 H 0.75479 0.41464 0.46391 0.0
C3573 C 0.80288 0.39367 0.52638 0.0
C3574 C 0.74608 0.3761 0.51093 0.0
C3575 C 0.81793 0.39221 0.54327 0.0
C3576 C 0.67984 0.38942 0.44669 0.0
C3577 C 0.69523 0.39123 0.46324 0.0
C3578 C 0.75217 0.40376 0.47693 0.0
C3579 C 0.78072 0.38938 0.5293 0.0
C3580 C 0.76455 0.38979 0.51114 0.0
C3581 C 0.7174 0.39025 0.45922 0.0
C3582 C 0.73363 0.39033 0.47707 0.0
H3583 H 0.78345 0.37763 0.58187 0.0
H3584 H 0.75731 0.38137 0.55313 0.0
H3585 H 0.78103 0.41469 0.49332 0.0
H3586 H 0.71388 0.38318 0.40565 0.0
H3587 H 0.74073 0.38711 0.43452 0.0
C3588 C 0.87206 0.43487 0.70024 0.0
C3589 C 0.87707 0.44197 0.6798 0.0
C3590 C 0.87093 0.44967 0.71744 0.0
C3591 C 0.86403 0.50825 0.73176 0.0
H3592 H 0.89358 0.4938 0.78409 0.0
C3593 C 0.87438 0.57226 0.80122 0.0
C3594 C 0.87814 0.56531 0.82209 0.0
C3595 C 0.87305 0.55731 0.78406 0.0
C3596 C 0.88476 0.49819 0.76989 0.0
H3597 H 0.88429 0.4707 0.66175 0.0
H3598 H 0.88154 0.49637 0.69136 0.0
H3599 H 0.89263 0.46802 0.75466 0.0
H3600 H 0.88265 0.53668 0.84098 0.0
H3601 H 0.87902 0.51078 0.81176 0.0
H3602 H 0.85555 0.53808 0.74694 0.0
C3603 C 0.87863 0.4793 0.69418 0.0
C3604 C 0.88436 0.48322 0.75279 0.0
C3605 C 0.8802 0.46449 0.6771 0.0
C3606 C 0.87975 0.5428 0.82522 0.0
C3607 C 0.87798 0.52783 0.80818 0.0
C3608 C 0.86406 0.52308 0.749 0.0
C3609 C 0.87435 0.47216 0.71476 0.0
C3610 C 0.8741 0.48799 0.73334 0.0
C3611 C 0.87505 0.53469 0.78708 0.0
C3612 C 0.87453 0.51849 0.7685 0.0
H3613 H 0.86985 0.41772 0.70318 0.0
H3614 H 0.86745 0.44343 0.73293 0.0
H3615 H 0.85577 0.51257 0.7172 0.0
H3616 H 0.87344 0.58942 0.79797 0.0
H3617 H 0.87114 0.56375 0.76834 0.0
C3618 C 0.44741 0.30664 0.64356 0.0
C3619 C 0.44329 0.3181 0.62484 0.0
C3620 C 0.46345 0.2907 0.64444 0.0
C3621 C 0.51072 0.26978 0.61361 0.0
H3622 H 0.50569 0.2202 0.65028 0.0
C3623 C 0.55829 0.191 0.60117 0.0
C3624 C 0.57061 0.18334 0.61842 0.0
C3625 C 0.54351 0.20769 0.60376 0.0
C3626 C 0.5074 0.23406 0.64009 0.0
H3627 H 0.45253 0.32096 0.59214 0.0
H3628 H 0.47928 0.29299 0.59331 0.0
H3629 H 0.47835 0.24833 0.65102 0.0
H3630 H 0.5766 0.18733 0.65212 0.0
H3631 H 0.54995 0.21614 0.6568 0.0
H3632 H 0.53917 0.25484 0.60198 0.0
C3633 C 0.47104 0.29674 0.60775 0.0
C3634 C 0.49173 0.25034 0.64053 0.0
C3635 C 0.45539 0.31284 0.60699 0.0
C3636 C 0.5674 0.19275 0.6385 0.0
C3637 C 0.5521 0.2092 0.64119 0.0
C3638 C 0.52604 0.25334 0.61287 0.0
C3639 C 0.47564 0.28547 0.62652 0.0
C3640 C 0.49293 0.26842 0.62708 0.0
C3641 C 0.54016 0.21703 0.62376 0.0
C3642 C 0.52453 0.23517 0.62594 0.0
H3643 H 0.43845 0.31019 0.65764 0.0
H3644 H 0.46643 0.28273 0.65932 0.0
H3645 H 0.51295 0.28358 0.60347 0.0
H3646 H 0.56038 0.18438 0.58541 0.0
H3647 H 0.53456 0.21325 0.59003 0.0
loop_
_geom_bond_atom_site_label_1
_geom_bond_atom_site_label_2
_geom_bond_distance
_geom_bond_site_symmetry_2
_ccdc_geom_bond_type
Co0 H3 2.400 . S
Co0 O4 2.009 . S
Co0 O12 2.115 . S
Co0 O13 2.315 . S
Co0 O24 2.053 . S
Co0 O27 2.094 . S
Co0 O30 2.122 . S
Co1 O4 2.126 . S
Co1 H5 2.388 . S
Co1 O6 2.053 . S
Co1 O9 2.047 . S
Co1 O15 2.113 . S
Co1 O26 2.063 . S
Co2 H3 2.388 . S
Co2 O4 2.053 . S
Co2 O6 2.126 . S
Co2 O11 2.063 . S
Co2 O25 2.047 . S
Co2 O31 2.113 . S
H3 Co0 2.400 . S
H3 Co2 2.388 . S
H3 O4 0.760 . S
O4 Co0 2.009 . S
O4 Co1 2.126 . S
O4 Co2 2.053 . S
O4 H3 0.760 . S
H5 Co1 2.388 . S
H5 O6 0.760 . S
H5 Co7 2.400 . S
O6 Co1 2.053 . S
O6 Co2 2.126 . S
O6 H5 0.760 . S
O6 Co7 2.009 . S
Co7 H5 2.400 . S
Co7 O6 2.009 . S
Co7 O8 2.053 . S
Co7 O10 2.094 . S
Co7 O14 2.122 . S
Co7 O28 2.115 . S
Co7 O29 2.315 . S
O8 Co7 2.053 . S
O8 C20 1.259 . S
O9 Co1 2.047 . S
O9 C20 1.257 . S
O10 Co7 2.094 . S
O10 C21 1.253 . S
O11 Co2 2.063 . S
O11 C21 1.268 . S
O12 Co0 2.115 . S
O12 C22 1.281 . S
O13 Co0 2.315 . S
O13 C22 1.252 . S
O14 Co7 2.122 . S
O14 C23 1.272 . S
O15 Co1 2.113 . S
O15 C23 1.245 . S
C16 O24 1.259 . S
C16 O25 1.257 . S
C17 O26 1.268 . S
C17 O27 1.253 . S
C18 O28 1.281 . S
C18 O29 1.252 . S
C19 O30 1.272 . S
C19 O31 1.245 . S
C20 O8 1.259 . S
C20 O9 1.257 . S
C21 O10 1.253 . S
C21 O11 1.268 . S
C22 O12 1.281 . S
C22 O13 1.252 . S
C23 O14 1.272 . S
C23 O15 1.245 . S
O24 Co0 2.053 . S
O24 C16 1.259 . S
O25 Co2 2.047 . S
O25 C16 1.257 . S
O26 Co1 2.063 . S
O26 C17 1.268 . S
O27 Co0 2.094 . S
O27 C17 1.253 . S
O28 Co7 2.115 . S
O28 C18 1.281 . S
O29 Co7 2.315 . S
O29 C18 1.252 . S
O30 Co0 2.122 . S
O30 C19 1.272 . S
O31 Co2 2.113 . S
O31 C19 1.245 . S
Co32 H35 2.400 . S
Co32 O36 2.009 . S
Co32 O44 2.115 . S
Co32 O45 2.315 . S
Co32 O56 2.053 . S
Co32 O59 2.094 . S
Co32 O62 2.122 . S
Co33 O36 2.126 . S
Co33 H37 2.388 . S
Co33 O38 2.053 . S
Co33 O41 2.047 . S
Co33 O47 2.113 . S
Co33 O58 2.063 . S
Co34 H35 2.388 . S
Co34 O36 2.053 . S
Co34 O38 2.126 . S
Co34 O43 2.063 . S
Co34 O57 2.047 . S
Co34 O63 2.113 . S
H35 Co32 2.400 . S
H35 Co34 2.388 . S
H35 O36 0.760 . S
O36 Co32 2.009 . S
O36 Co33 2.126 . S
O36 Co34 2.053 . S
O36 H35 0.760 . S
H37 Co33 2.388 . S
H37 O38 0.760 . S
H37 Co39 2.400 . S
O38 Co33 2.053 . S
O38 Co34 2.126 . S
O38 H37 0.760 . S
O38 Co39 2.009 . S
Co39 H37 2.400 . S
Co39 O38 2.009 . S
Co39 O40 2.053 . S
Co39 O42 2.094 . S
Co39 O46 2.122 . S
Co39 O60 2.115 . S
Co39 O61 2.315 . S
O40 Co39 2.053 . S
O40 C52 1.259 . S
O41 Co33 2.047 . S
O41 C52 1.257 . S
O42 Co39 2.094 . S
O42 C53 1.253 . S
O43 Co34 2.063 . S
O43 C53 1.268 . S
O44 Co32 2.115 . S
O44 C54 1.281 . S
O45 Co32 2.315 . S
O45 C54 1.252 . S
O46 Co39 2.122 . S
O46 C55 1.272 . S
O47 Co33 2.113 . S
O47 C55 1.245 . S
C48 O56 1.259 . S
C48 O57 1.257 . S
C49 O58 1.268 . S
C49 O59 1.253 . S
C50 O60 1.281 . S
C50 O61 1.252 . S
C51 O62 1.272 . S
C51 O63 1.245 . S
C52 O40 1.259 . S
C52 O41 1.257 . S
C53 O42 1.253 . S
C53 O43 1.268 . S
C54 O44 1.281 . S
C54 O45 1.252 . S
C55 O46 1.272 . S
C55 O47 1.245 . S
O56 Co32 2.053 . S
O56 C48 1.259 . S
O57 Co34 2.047 . S
O57 C48 1.257 . S
O58 Co33 2.063 . S
O58 C49 1.268 . S
O59 Co32 2.094 . S
O59 C49 1.253 . S
O60 Co39 2.115 . S
O60 C50 1.281 . S
O61 Co39 2.315 . S
O61 C50 1.252 . S
O62 Co32 2.122 . S
O62 C51 1.272 . S
O63 Co34 2.113 . S
O63 C51 1.245 . S
Co64 H67 2.400 . S
Co64 O68 2.009 . S
Co64 O76 2.115 . S
Co64 O77 2.315 . S
Co64 O88 2.053 . S
Co64 O91 2.094 . S
Co64 O94 2.122 . S
Co65 O68 2.126 . S
Co65 H69 2.388 . S
Co65 O70 2.053 . S
Co65 O73 2.047 . S
Co65 O79 2.113 . S
Co65 O90 2.063 . S
Co66 H67 2.388 . S
Co66 O68 2.053 . S
Co66 O70 2.126 . S
Co66 O75 2.063 . S
Co66 O89 2.047 . S
Co66 O95 2.113 . S
H67 Co64 2.400 . S
H67 Co66 2.388 . S
H67 O68 0.760 . S
O68 Co64 2.009 . S
O68 Co65 2.126 . S
O68 Co66 2.053 . S
O68 H67 0.760 . S
H69 Co65 2.388 . S
H69 O70 0.760 . S
H69 Co71 2.400 . S
O70 Co65 2.053 . S
O70 Co66 2.126 . S
O70 H69 0.760 . S
O70 Co71 2.009 . S
Co71 H69 2.400 . S
Co71 O70 2.009 . S
Co71 O72 2.053 . S
Co71 O74 2.094 . S
Co71 O78 2.122 . S
Co71 O92 2.115 . S
Co71 O93 2.315 . S
O72 Co71 2.053 . S
O72 C84 1.259 . S
O73 Co65 2.047 . S
O73 C84 1.257 . S
O74 Co71 2.094 . S
O74 C85 1.253 . S
O75 Co66 2.063 . S
O75 C85 1.268 . S
O76 Co64 2.115 . S
O76 C86 1.281 . S
O77 Co64 2.315 . S
O77 C86 1.252 . S
O78 Co71 2.122 . S
O78 C87 1.272 . S
O79 Co65 2.113 . S
O79 C87 1.245 . S
C80 O88 1.259 . S
C80 O89 1.257 . S
C81 O90 1.268 . S
C81 O91 1.253 . S
C82 O92 1.281 . S
C82 O93 1.252 . S
C83 O94 1.272 . S
C83 O95 1.245 . S
C84 O72 1.259 . S
C84 O73 1.257 . S
C85 O74 1.253 . S
C85 O75 1.268 . S
C86 O76 1.281 . S
C86 O77 1.252 . S
C87 O78 1.272 . S
C87 O79 1.245 . S
O88 Co64 2.053 . S
O88 C80 1.259 . S
O89 Co66 2.047 . S
O89 C80 1.257 . S
O90 Co65 2.063 . S
O90 C81 1.268 . S
O91 Co64 2.094 . S
O91 C81 1.253 . S
O92 Co71 2.115 . S
O92 C82 1.281 . S
O93 Co71 2.315 . S
O93 C82 1.252 . S
O94 Co64 2.122 . S
O94 C83 1.272 . S
O95 Co66 2.113 . S
O95 C83 1.245 . S
Co96 H99 2.400 . S
Co96 O100 2.009 . S
Co96 O108 2.115 . S
Co96 O109 2.315 . S
Co96 O120 2.053 . S
Co96 O123 2.094 . S
Co96 O126 2.122 . S
Co97 O100 2.126 . S
Co97 H101 2.388 . S
Co97 O102 2.053 . S
Co97 O105 2.047 . S
Co97 O111 2.113 . S
Co97 O122 2.063 . S
Co98 H99 2.388 . S
Co98 O100 2.053 . S
Co98 O102 2.126 . S
Co98 O107 2.063 . S
Co98 O121 2.047 . S
Co98 O127 2.113 . S
H99 Co96 2.400 . S
H99 Co98 2.388 . S
H99 O100 0.760 . S
O100 Co96 2.009 . S
O100 Co97 2.126 . S
O100 Co98 2.053 . S
O100 H99 0.760 . S
H101 Co97 2.388 . S
H101 O102 0.760 . S
H101 Co103 2.400 . S
O102 Co97 2.053 . S
O102 Co98 2.126 . S
O102 H101 0.760 . S
O102 Co103 2.009 . S
Co103 H101 2.400 . S
Co103 O102 2.009 . S
Co103 O104 2.053 . S
Co103 O106 2.094 . S
Co103 O110 2.122 . S
Co103 O124 2.115 . S
Co103 O125 2.315 . S
O104 Co103 2.053 . S
O104 C116 1.259 . S
O105 Co97 2.047 . S
O105 C116 1.257 . S
O106 Co103 2.094 . S
O106 C117 1.253 . S
O107 Co98 2.063 . S
O107 C117 1.268 . S
O108 Co96 2.115 . S
O108 C118 1.281 . S
O109 Co96 2.315 . S
O109 C118 1.252 . S
O110 Co103 2.122 . S
O110 C119 1.272 . S
O111 Co97 2.113 . S
O111 C119 1.245 . S
C112 O120 1.259 . S
C112 O121 1.257 . S
C113 O122 1.268 . S
C113 O123 1.253 . S
C114 O124 1.281 . S
C114 O125 1.252 . S
C115 O126 1.272 . S
C115 O127 1.245 . S
C116 O104 1.259 . S
C116 O105 1.257 . S
C117 O106 1.253 . S
C117 O107 1.268 . S
C118 O108 1.281 . S
C118 O109 1.252 . S
C119 O110 1.272 . S
C119 O111 1.245 . S
O120 Co96 2.053 . S
O120 C112 1.259 . S
O121 Co98 2.047 . S
O121 C112 1.257 . S
O122 Co97 2.063 . S
O122 C113 1.268 . S
O123 Co96 2.094 . S
O123 C113 1.253 . S
O124 Co103 2.115 . S
O124 C114 1.281 . S
O125 Co103 2.315 . S
O125 C114 1.252 . S
O126 Co96 2.122 . S
O126 C115 1.272 . S
O127 Co98 2.113 . S
O127 C115 1.245 . S
Co128 H131 2.400 . S
Co128 O132 2.009 . S
Co128 O140 2.115 . S
Co128 O141 2.315 . S
Co128 O152 2.053 . S
Co128 O155 2.094 . S
Co128 O158 2.122 . S
Co129 O132 2.126 . S
Co129 H133 2.388 . S
Co129 O134 2.053 . S
Co129 O137 2.047 . S
Co129 O143 2.113 . S
Co129 O154 2.063 . S
Co130 H131 2.388 . S
Co130 O132 2.053 . S
Co130 O134 2.126 . S
Co130 O139 2.063 . S
Co130 O153 2.047 . S
Co130 O159 2.113 . S
H131 Co128 2.400 . S
H131 Co130 2.388 . S
H131 O132 0.760 . S
O132 Co128 2.009 . S
O132 Co129 2.126 . S
O132 Co130 2.053 . S
O132 H131 0.760 . S
H133 Co129 2.388 . S
H133 O134 0.760 . S
H133 Co135 2.400 . S
O134 Co129 2.053 . S
O134 Co130 2.126 . S
O134 H133 0.760 . S
O134 Co135 2.009 . S
Co135 H133 2.400 . S
Co135 O134 2.009 . S
Co135 O136 2.053 . S
Co135 O138 2.094 . S
Co135 O142 2.122 . S
Co135 O156 2.115 . S
Co135 O157 2.315 . S
O136 Co135 2.053 . S
O136 C148 1.259 . S
O137 Co129 2.047 . S
O137 C148 1.257 . S
O138 Co135 2.094 . S
O138 C149 1.253 . S
O139 Co130 2.063 . S
O139 C149 1.268 . S
O140 Co128 2.115 . S
O140 C150 1.281 . S
O141 Co128 2.315 . S
O141 C150 1.252 . S
O142 Co135 2.122 . S
O142 C151 1.272 . S
O143 Co129 2.113 . S
O143 C151 1.245 . S
C144 O152 1.259 . S
C144 O153 1.257 . S
C145 O154 1.268 . S
C145 O155 1.253 . S
C146 O156 1.281 . S
C146 O157 1.252 . S
C147 O158 1.272 . S
C147 O159 1.245 . S
C148 O136 1.259 . S
C148 O137 1.257 . S
C149 O138 1.253 . S
C149 O139 1.268 . S
C150 O140 1.281 . S
C150 O141 1.252 . S
C151 O142 1.272 . S
C151 O143 1.245 . S
O152 Co128 2.053 . S
O152 C144 1.259 . S
O153 Co130 2.047 . S
O153 C144 1.257 . S
O154 Co129 2.063 . S
O154 C145 1.268 . S
O155 Co128 2.094 . S
O155 C145 1.253 . S
O156 Co135 2.115 . S
O156 C146 1.281 . S
O157 Co135 2.315 . S
O157 C146 1.252 . S
O158 Co128 2.122 . S
O158 C147 1.272 . S
O159 Co130 2.113 . S
O159 C147 1.245 . S
Co160 H163 2.400 . S
Co160 O164 2.009 . S
Co160 O172 2.115 . S
Co160 O173 2.315 . S
Co160 O184 2.053 . S
Co160 O187 2.094 . S
Co160 O190 2.122 . S
Co161 O164 2.126 . S
Co161 H165 2.388 . S
Co161 O166 2.053 . S
Co161 O169 2.047 . S
Co161 O175 2.113 . S
Co161 O186 2.063 . S
Co162 H163 2.388 . S
Co162 O164 2.053 . S
Co162 O166 2.126 . S
Co162 O171 2.063 . S
Co162 O185 2.047 . S
Co162 O191 2.113 . S
H163 Co160 2.400 . S
H163 Co162 2.388 . S
H163 O164 0.760 . S
O164 Co160 2.009 . S
O164 Co161 2.126 . S
O164 Co162 2.053 . S
O164 H163 0.760 . S
H165 Co161 2.388 . S
H165 O166 0.760 . S
H165 Co167 2.400 . S
O166 Co161 2.053 . S
O166 Co162 2.126 . S
O166 H165 0.760 . S
O166 Co167 2.009 . S
Co167 H165 2.400 . S
Co167 O166 2.009 . S
Co167 O168 2.053 . S
Co167 O170 2.094 . S
Co167 O174 2.122 . S
Co167 O188 2.115 . S
Co167 O189 2.315 . S
O168 Co167 2.053 . S
O168 C180 1.259 . S
O169 Co161 2.047 . S
O169 C180 1.257 . S
O170 Co167 2.094 . S
O170 C181 1.253 . S
O171 Co162 2.063 . S
O171 C181 1.268 . S
O172 Co160 2.115 . S
O172 C182 1.281 . S
O173 Co160 2.315 . S
O173 C182 1.252 . S
O174 Co167 2.122 . S
O174 C183 1.272 . S
O175 Co161 2.113 . S
O175 C183 1.245 . S
C176 O184 1.259 . S
C176 O185 1.257 . S
C177 O186 1.268 . S
C177 O187 1.253 . S
C178 O188 1.281 . S
C178 O189 1.252 . S
C179 O190 1.272 . S
C179 O191 1.245 . S
C180 O168 1.259 . S
C180 O169 1.257 . S
C181 O170 1.253 . S
C181 O171 1.268 . S
C182 O172 1.281 . S
C182 O173 1.252 . S
C183 O174 1.272 . S
C183 O175 1.245 . S
O184 Co160 2.053 . S
O184 C176 1.259 . S
O185 Co162 2.047 . S
O185 C176 1.257 . S
O186 Co161 2.063 . S
O186 C177 1.268 . S
O187 Co160 2.094 . S
O187 C177 1.253 . S
O188 Co167 2.115 . S
O188 C178 1.281 . S
O189 Co167 2.315 . S
O189 C178 1.252 . S
O190 Co160 2.122 . S
O190 C179 1.272 . S
O191 Co162 2.113 . S
O191 C179 1.245 . S
Co192 H195 2.400 . S
Co192 O196 2.009 . S
Co192 O204 2.115 . S
Co192 O205 2.315 . S
Co192 O216 2.053 . S
Co192 O219 2.094 . S
Co192 O222 2.122 . S
Co193 O196 2.126 . S
Co193 H197 2.388 . S
Co193 O198 2.053 . S
Co193 O201 2.047 . S
Co193 O207 2.113 . S
Co193 O218 2.063 . S
Co194 H195 2.388 . S
Co194 O196 2.053 . S
Co194 O198 2.126 . S
Co194 O203 2.063 . S
Co194 O217 2.047 . S
Co194 O223 2.113 . S
H195 Co192 2.400 . S
H195 Co194 2.388 . S
H195 O196 0.760 . S
O196 Co192 2.009 . S
O196 Co193 2.126 . S
O196 Co194 2.053 . S
O196 H195 0.760 . S
H197 Co193 2.388 . S
H197 O198 0.760 . S
H197 Co199 2.400 . S
O198 Co193 2.053 . S
O198 Co194 2.126 . S
O198 H197 0.760 . S
O198 Co199 2.009 . S
Co199 H197 2.400 . S
Co199 O198 2.009 . S
Co199 O200 2.053 . S
Co199 O202 2.094 . S
Co199 O206 2.122 . S
Co199 O220 2.115 . S
Co199 O221 2.315 . S
O200 Co199 2.053 . S
O200 C212 1.259 . S
O201 Co193 2.047 . S
O201 C212 1.257 . S
O202 Co199 2.094 . S
O202 C213 1.253 . S
O203 Co194 2.063 . S
O203 C213 1.268 . S
O204 Co192 2.115 . S
O204 C214 1.281 . S
O205 Co192 2.315 . S
O205 C214 1.252 . S
O206 Co199 2.122 . S
O206 C215 1.272 . S
O207 Co193 2.113 . S
O207 C215 1.245 . S
C208 O216 1.259 . S
C208 O217 1.257 . S
C209 O218 1.268 . S
C209 O219 1.253 . S
C210 O220 1.281 . S
C210 O221 1.252 . S
C211 O222 1.272 . S
C211 O223 1.245 . S
C212 O200 1.259 . S
C212 O201 1.257 . S
C213 O202 1.253 . S
C213 O203 1.268 . S
C214 O204 1.281 . S
C214 O205 1.252 . S
C215 O206 1.272 . S
C215 O207 1.245 . S
O216 Co192 2.053 . S
O216 C208 1.259 . S
O217 Co194 2.047 . S
O217 C208 1.257 . S
O218 Co193 2.063 . S
O218 C209 1.268 . S
O219 Co192 2.094 . S
O219 C209 1.253 . S
O220 Co199 2.115 . S
O220 C210 1.281 . S
O221 Co199 2.315 . S
O221 C210 1.252 . S
O222 Co192 2.122 . S
O222 C211 1.272 . S
O223 Co194 2.113 . S
O223 C211 1.245 . S
Co224 H227 2.400 . S
Co224 O228 2.009 . S
Co224 O236 2.115 . S
Co224 O237 2.315 . S
Co224 O248 2.053 . S
Co224 O251 2.094 . S
Co224 O254 2.122 . S
Co225 O228 2.126 . S
Co225 H229 2.388 . S
Co225 O230 2.053 . S
Co225 O233 2.047 . S
Co225 O239 2.113 . S
Co225 O250 2.063 . S
Co226 H227 2.388 . S
Co226 O228 2.053 . S
Co226 O230 2.126 . S
Co226 O235 2.063 . S
Co226 O249 2.047 . S
Co226 O255 2.113 . S
H227 Co224 2.400 . S
H227 Co226 2.388 . S
H227 O228 0.760 . S
O228 Co224 2.009 . S
O228 Co225 2.126 . S
O228 Co226 2.053 . S
O228 H227 0.760 . S
H229 Co225 2.388 . S
H229 O230 0.760 . S
H229 Co231 2.400 . S
O230 Co225 2.053 . S
O230 Co226 2.126 . S
O230 H229 0.760 . S
O230 Co231 2.009 . S
Co231 H229 2.400 . S
Co231 O230 2.009 . S
Co231 O232 2.053 . S
Co231 O234 2.094 . S
Co231 O238 2.122 . S
Co231 O252 2.115 . S
Co231 O253 2.315 . S
O232 Co231 2.053 . S
O232 C244 1.259 . S
O233 Co225 2.047 . S
O233 C244 1.257 . S
O234 Co231 2.094 . S
O234 C245 1.253 . S
O235 Co226 2.063 . S
O235 C245 1.268 . S
O236 Co224 2.115 . S
O236 C246 1.281 . S
O237 Co224 2.315 . S
O237 C246 1.252 . S
O238 Co231 2.122 . S
O238 C247 1.272 . S
O239 Co225 2.113 . S
O239 C247 1.245 . S
C240 O248 1.259 . S
C240 O249 1.257 . S
C241 O250 1.268 . S
C241 O251 1.253 . S
C242 O252 1.281 . S
C242 O253 1.252 . S
C243 O254 1.272 . S
C243 O255 1.245 . S
C244 O232 1.259 . S
C244 O233 1.257 . S
C245 O234 1.253 . S
C245 O235 1.268 . S
C246 O236 1.281 . S
C246 O237 1.252 . S
C247 O238 1.272 . S
C247 O239 1.245 . S
O248 Co224 2.053 . S
O248 C240 1.259 . S
O249 Co226 2.047 . S
O249 C240 1.257 . S
O250 Co225 2.063 . S
O250 C241 1.268 . S
O251 Co224 2.094 . S
O251 C241 1.253 . S
O252 Co231 2.115 . S
O252 C242 1.281 . S
O253 Co231 2.315 . S
O253 C242 1.252 . S
O254 Co224 2.122 . S
O254 C243 1.272 . S
O255 Co226 2.113 . S
O255 C243 1.245 . S
Co256 H259 2.400 . S
Co256 O260 2.009 . S
Co256 O268 2.115 . S
Co256 O269 2.315 . S
Co256 O280 2.053 . S
Co256 O283 2.094 . S
Co256 O286 2.122 . S
Co257 O260 2.126 . S
Co257 H261 2.388 . S
Co257 O262 2.053 . S
Co257 O265 2.047 . S
Co257 O271 2.113 . S
Co257 O282 2.063 . S
Co258 H259 2.388 . S
Co258 O260 2.053 . S
Co258 O262 2.126 . S
Co258 O267 2.063 . S
Co258 O281 2.047 . S
Co258 O287 2.113 . S
H259 Co256 2.400 . S
H259 Co258 2.388 . S
H259 O260 0.760 . S
O260 Co256 2.009 . S
O260 Co257 2.126 . S
O260 Co258 2.053 . S
O260 H259 0.760 . S
H261 Co257 2.388 . S
H261 O262 0.760 . S
H261 Co263 2.400 . S
O262 Co257 2.053 . S
O262 Co258 2.126 . S
O262 H261 0.760 . S
O262 Co263 2.009 . S
Co263 H261 2.400 . S
Co263 O262 2.009 . S
Co263 O264 2.053 . S
Co263 O266 2.094 . S
Co263 O270 2.122 . S
Co263 O284 2.115 . S
Co263 O285 2.315 . S
O264 Co263 2.053 . S
O264 C276 1.259 . S
O265 Co257 2.047 . S
O265 C276 1.257 . S
O266 Co263 2.094 . S
O266 C277 1.253 . S
O267 Co258 2.063 . S
O267 C277 1.268 . S
O268 Co256 2.115 . S
O268 C278 1.281 . S
O269 Co256 2.315 . S
O269 C278 1.252 . S
O270 Co263 2.122 . S
O270 C279 1.272 . S
O271 Co257 2.113 . S
O271 C279 1.245 . S
C272 O280 1.259 . S
C272 O281 1.257 . S
C273 O282 1.268 . S
C273 O283 1.253 . S
C274 O284 1.281 . S
C274 O285 1.252 . S
C275 O286 1.272 . S
C275 O287 1.245 . S
C276 O264 1.259 . S
C276 O265 1.257 . S
C277 O266 1.253 . S
C277 O267 1.268 . S
C278 O268 1.281 . S
C278 O269 1.252 . S
C279 O270 1.272 . S
C279 O271 1.245 . S
O280 Co256 2.053 . S
O280 C272 1.259 . S
O281 Co258 2.047 . S
O281 C272 1.257 . S
O282 Co257 2.063 . S
O282 C273 1.268 . S
O283 Co256 2.094 . S
O283 C273 1.253 . S
O284 Co263 2.115 . S
O284 C274 1.281 . S
O285 Co263 2.315 . S
O285 C274 1.252 . S
O286 Co256 2.122 . S
O286 C275 1.272 . S
O287 Co258 2.113 . S
O287 C275 1.245 . S
Co288 H291 2.400 . S
Co288 O292 2.009 . S
Co288 O300 2.115 . S
Co288 O301 2.315 . S
Co288 O312 2.053 . S
Co288 O315 2.094 . S
Co288 O318 2.122 . S
Co289 O292 2.126 . S
Co289 H293 2.388 . S
Co289 O294 2.053 . S
Co289 O297 2.047 . S
Co289 O303 2.113 . S
Co289 O314 2.063 . S
Co290 H291 2.388 . S
Co290 O292 2.053 . S
Co290 O294 2.126 . S
Co290 O299 2.063 . S
Co290 O313 2.047 . S
Co290 O319 2.113 . S
H291 Co288 2.400 . S
H291 Co290 2.388 . S
H291 O292 0.760 . S
O292 Co288 2.009 . S
O292 Co289 2.126 . S
O292 Co290 2.053 . S
O292 H291 0.760 . S
H293 Co289 2.388 . S
H293 O294 0.760 . S
H293 Co295 2.400 . S
O294 Co289 2.053 . S
O294 Co290 2.126 . S
O294 H293 0.760 . S
O294 Co295 2.009 . S
Co295 H293 2.400 . S
Co295 O294 2.009 . S
Co295 O296 2.053 . S
Co295 O298 2.094 . S
Co295 O302 2.122 . S
Co295 O316 2.115 . S
Co295 O317 2.315 . S
O296 Co295 2.053 . S
O296 C308 1.259 . S
O297 Co289 2.047 . S
O297 C308 1.257 . S
O298 Co295 2.094 . S
O298 C309 1.253 . S
O299 Co290 2.063 . S
O299 C309 1.268 . S
O300 Co288 2.115 . S
O300 C310 1.281 . S
O301 Co288 2.315 . S
O301 C310 1.252 . S
O302 Co295 2.122 . S
O302 C311 1.272 . S
O303 Co289 2.113 . S
O303 C311 1.245 . S
C304 O312 1.259 . S
C304 O313 1.257 . S
C305 O314 1.268 . S
C305 O315 1.253 . S
C306 O316 1.281 . S
C306 O317 1.252 . S
C307 O318 1.272 . S
C307 O319 1.245 . S
C308 O296 1.259 . S
C308 O297 1.257 . S
C309 O298 1.253 . S
C309 O299 1.268 . S
C310 O300 1.281 . S
C310 O301 1.252 . S
C311 O302 1.272 . S
C311 O303 1.245 . S
O312 Co288 2.053 . S
O312 C304 1.259 . S
O313 Co290 2.047 . S
O313 C304 1.257 . S
O314 Co289 2.063 . S
O314 C305 1.268 . S
O315 Co288 2.094 . S
O315 C305 1.253 . S
O316 Co295 2.115 . S
O316 C306 1.281 . S
O317 Co295 2.315 . S
O317 C306 1.252 . S
O318 Co288 2.122 . S
O318 C307 1.272 . S
O319 Co290 2.113 . S
O319 C307 1.245 . S
Co320 H323 2.400 . S
Co320 O324 2.009 . S
Co320 O332 2.115 . S
Co320 O333 2.315 . S
Co320 O344 2.053 . S
Co320 O347 2.094 . S
Co320 O350 2.122 . S
Co321 O324 2.126 . S
Co321 H325 2.388 . S
Co321 O326 2.053 . S
Co321 O329 2.047 . S
Co321 O335 2.113 . S
Co321 O346 2.063 . S
Co322 H323 2.388 . S
Co322 O324 2.053 . S
Co322 O326 2.126 . S
Co322 O331 2.063 . S
Co322 O345 2.047 . S
Co322 O351 2.113 . S
H323 Co320 2.400 . S
H323 Co322 2.388 . S
H323 O324 0.760 . S
O324 Co320 2.009 . S
O324 Co321 2.126 . S
O324 Co322 2.053 . S
O324 H323 0.760 . S
H325 Co321 2.388 . S
H325 O326 0.760 . S
H325 Co327 2.400 . S
O326 Co321 2.053 . S
O326 Co322 2.126 . S
O326 H325 0.760 . S
O326 Co327 2.009 . S
Co327 H325 2.400 . S
Co327 O326 2.009 . S
Co327 O328 2.053 . S
Co327 O330 2.094 . S
Co327 O334 2.122 . S
Co327 O348 2.115 . S
Co327 O349 2.315 . S
O328 Co327 2.053 . S
O328 C340 1.259 . S
O329 Co321 2.047 . S
O329 C340 1.257 . S
O330 Co327 2.094 . S
O330 C341 1.253 . S
O331 Co322 2.063 . S
O331 C341 1.268 . S
O332 Co320 2.115 . S
O332 C342 1.281 . S
O333 Co320 2.315 . S
O333 C342 1.252 . S
O334 Co327 2.122 . S
O334 C343 1.272 . S
O335 Co321 2.113 . S
O335 C343 1.245 . S
C336 O344 1.259 . S
C336 O345 1.257 . S
C337 O346 1.268 . S
C337 O347 1.253 . S
C338 O348 1.281 . S
C338 O349 1.252 . S
C339 O350 1.272 . S
C339 O351 1.245 . S
C340 O328 1.259 . S
C340 O329 1.257 . S
C341 O330 1.253 . S
C341 O331 1.268 . S
C342 O332 1.281 . S
C342 O333 1.252 . S
C343 O334 1.272 . S
C343 O335 1.245 . S
O344 Co320 2.053 . S
O344 C336 1.259 . S
O345 Co322 2.047 . S
O345 C336 1.257 . S
O346 Co321 2.063 . S
O346 C337 1.268 . S
O347 Co320 2.094 . S
O347 C337 1.253 . S
O348 Co327 2.115 . S
O348 C338 1.281 . S
O349 Co327 2.315 . S
O349 C338 1.252 . S
O350 Co320 2.122 . S
O350 C339 1.272 . S
O351 Co322 2.113 . S
O351 C339 1.245 . S
Co352 H355 2.400 . S
Co352 O356 2.009 . S
Co352 O364 2.115 . S
Co352 O365 2.315 . S
Co352 O376 2.053 . S
Co352 O379 2.094 . S
Co352 O382 2.122 . S
Co353 O356 2.126 . S
Co353 H357 2.388 . S
Co353 O358 2.053 . S
Co353 O361 2.047 . S
Co353 O367 2.113 . S
Co353 O378 2.063 . S
Co354 H355 2.388 . S
Co354 O356 2.053 . S
Co354 O358 2.126 . S
Co354 O363 2.063 . S
Co354 O377 2.047 . S
Co354 O383 2.113 . S
H355 Co352 2.400 . S
H355 Co354 2.388 . S
H355 O356 0.760 . S
O356 Co352 2.009 . S
O356 Co353 2.126 . S
O356 Co354 2.053 . S
O356 H355 0.760 . S
H357 Co353 2.388 . S
H357 O358 0.760 . S
H357 Co359 2.400 . S
O358 Co353 2.053 . S
O358 Co354 2.126 . S
O358 H357 0.760 . S
O358 Co359 2.009 . S
Co359 H357 2.400 . S
Co359 O358 2.009 . S
Co359 O360 2.053 . S
Co359 O362 2.094 . S
Co359 O366 2.122 . S
Co359 O380 2.115 . S
Co359 O381 2.315 . S
O360 Co359 2.053 . S
O360 C372 1.259 . S
O361 Co353 2.047 . S
O361 C372 1.257 . S
O362 Co359 2.094 . S
O362 C373 1.253 . S
O363 Co354 2.063 . S
O363 C373 1.268 . S
O364 Co352 2.115 . S
O364 C374 1.281 . S
O365 Co352 2.315 . S
O365 C374 1.252 . S
O366 Co359 2.122 . S
O366 C375 1.272 . S
O367 Co353 2.113 . S
O367 C375 1.245 . S
C368 O376 1.259 . S
C368 O377 1.257 . S
C369 O378 1.268 . S
C369 O379 1.253 . S
C370 O380 1.281 . S
C370 O381 1.252 . S
C371 O382 1.272 . S
C371 O383 1.245 . S
C372 O360 1.259 . S
C372 O361 1.257 . S
C373 O362 1.253 . S
C373 O363 1.268 . S
C374 O364 1.281 . S
C374 O365 1.252 . S
C375 O366 1.272 . S
C375 O367 1.245 . S
O376 Co352 2.053 . S
O376 C368 1.259 . S
O377 Co354 2.047 . S
O377 C368 1.257 . S
O378 Co353 2.063 . S
O378 C369 1.268 . S
O379 Co352 2.094 . S
O379 C369 1.253 . S
O380 Co359 2.115 . S
O380 C370 1.281 . S
O381 Co359 2.315 . S
O381 C370 1.252 . S
O382 Co352 2.122 . S
O382 C371 1.272 . S
O383 Co354 2.113 . S
O383 C371 1.245 . S
Co384 H387 2.400 . S
Co384 O388 2.009 . S
Co384 O396 2.115 . S
Co384 O397 2.315 . S
Co384 O408 2.053 . S
Co384 O411 2.094 . S
Co384 O414 2.122 . S
Co385 O388 2.126 . S
Co385 H389 2.388 . S
Co385 O390 2.053 . S
Co385 O393 2.047 . S
Co385 O399 2.113 . S
Co385 O410 2.063 . S
Co386 H387 2.388 . S
Co386 O388 2.053 . S
Co386 O390 2.126 . S
Co386 O395 2.063 . S
Co386 O409 2.047 . S
Co386 O415 2.113 . S
H387 Co384 2.400 . S
H387 Co386 2.388 . S
H387 O388 0.760 . S
O388 Co384 2.009 . S
O388 Co385 2.126 . S
O388 Co386 2.053 . S
O388 H387 0.760 . S
H389 Co385 2.388 . S
H389 O390 0.760 . S
H389 Co391 2.400 . S
O390 Co385 2.053 . S
O390 Co386 2.126 . S
O390 H389 0.760 . S
O390 Co391 2.009 . S
Co391 H389 2.400 . S
Co391 O390 2.009 . S
Co391 O392 2.053 . S
Co391 O394 2.094 . S
Co391 O398 2.122 . S
Co391 O412 2.115 . S
Co391 O413 2.315 . S
O392 Co391 2.053 . S
O392 C404 1.259 . S
O393 Co385 2.047 . S
O393 C404 1.257 . S
O394 Co391 2.094 . S
O394 C405 1.253 . S
O395 Co386 2.063 . S
O395 C405 1.268 . S
O396 Co384 2.115 . S
O396 C406 1.281 . S
O397 Co384 2.315 . S
O397 C406 1.252 . S
O398 Co391 2.122 . S
O398 C407 1.272 . S
O399 Co385 2.113 . S
O399 C407 1.245 . S
C400 O408 1.259 . S
C400 O409 1.257 . S
C401 O410 1.268 . S
C401 O411 1.253 . S
C402 O412 1.281 . S
C402 O413 1.252 . S
C403 O414 1.272 . S
C403 O415 1.245 . S
C404 O392 1.259 . S
C404 O393 1.257 . S
C405 O394 1.253 . S
C405 O395 1.268 . S
C406 O396 1.281 . S
C406 O397 1.252 . S
C407 O398 1.272 . S
C407 O399 1.245 . S
O408 Co384 2.053 . S
O408 C400 1.259 . S
O409 Co386 2.047 . S
O409 C400 1.257 . S
O410 Co385 2.063 . S
O410 C401 1.268 . S
O411 Co384 2.094 . S
O411 C401 1.253 . S
O412 Co391 2.115 . S
O412 C402 1.281 . S
O413 Co391 2.315 . S
O413 C402 1.252 . S
O414 Co384 2.122 . S
O414 C403 1.272 . S
O415 Co386 2.113 . S
O415 C403 1.245 . S
Co416 H419 2.400 . S
Co416 O420 2.009 . S
Co416 O428 2.115 . S
Co416 O429 2.315 . S
Co416 O440 2.053 . S
Co416 O443 2.094 . S
Co416 O446 2.122 . S
Co417 O420 2.126 . S
Co417 H421 2.388 . S
Co417 O422 2.053 . S
Co417 O425 2.047 . S
Co417 O431 2.113 . S
Co417 O442 2.063 . S
Co418 H419 2.388 . S
Co418 O420 2.053 . S
Co418 O422 2.126 . S
Co418 O427 2.063 . S
Co418 O441 2.047 . S
Co418 O447 2.113 . S
H419 Co416 2.400 . S
H419 Co418 2.388 . S
H419 O420 0.760 . S
O420 Co416 2.009 . S
O420 Co417 2.126 . S
O420 Co418 2.053 . S
O420 H419 0.760 . S
H421 Co417 2.388 . S
H421 O422 0.760 . S
H421 Co423 2.400 . S
O422 Co417 2.053 . S
O422 Co418 2.126 . S
O422 H421 0.760 . S
O422 Co423 2.009 . S
Co423 H421 2.400 . S
Co423 O422 2.009 . S
Co423 O424 2.053 . S
Co423 O426 2.094 . S
Co423 O430 2.122 . S
Co423 O444 2.115 . S
Co423 O445 2.315 . S
O424 Co423 2.053 . S
O424 C436 1.259 . S
O425 Co417 2.047 . S
O425 C436 1.257 . S
O426 Co423 2.094 . S
O426 C437 1.253 . S
O427 Co418 2.063 . S
O427 C437 1.268 . S
O428 Co416 2.115 . S
O428 C438 1.281 . S
O429 Co416 2.315 . S
O429 C438 1.252 . S
O430 Co423 2.122 . S
O430 C439 1.272 . S
O431 Co417 2.113 . S
O431 C439 1.245 . S
C432 O440 1.259 . S
C432 O441 1.257 . S
C433 O442 1.268 . S
C433 O443 1.253 . S
C434 O444 1.281 . S
C434 O445 1.252 . S
C435 O446 1.272 . S
C435 O447 1.245 . S
C436 O424 1.259 . S
C436 O425 1.257 . S
C437 O426 1.253 . S
C437 O427 1.268 . S
C438 O428 1.281 . S
C438 O429 1.252 . S
C439 O430 1.272 . S
C439 O431 1.245 . S
O440 Co416 2.053 . S
O440 C432 1.259 . S
O441 Co418 2.047 . S
O441 C432 1.257 . S
O442 Co417 2.063 . S
O442 C433 1.268 . S
O443 Co416 2.094 . S
O443 C433 1.253 . S
O444 Co423 2.115 . S
O444 C434 1.281 . S
O445 Co423 2.315 . S
O445 C434 1.252 . S
O446 Co416 2.122 . S
O446 C435 1.272 . S
O447 Co418 2.113 . S
O447 C435 1.245 . S
Co448 H451 2.400 . S
Co448 O452 2.009 . S
Co448 O460 2.115 . S
Co448 O461 2.315 . S
Co448 O472 2.053 . S
Co448 O475 2.094 . S
Co448 O478 2.122 . S
Co449 O452 2.126 . S
Co449 H453 2.388 . S
Co449 O454 2.053 . S
Co449 O457 2.047 . S
Co449 O463 2.113 . S
Co449 O474 2.063 . S
Co450 H451 2.388 . S
Co450 O452 2.053 . S
Co450 O454 2.126 . S
Co450 O459 2.063 . S
Co450 O473 2.047 . S
Co450 O479 2.113 . S
H451 Co448 2.400 . S
H451 Co450 2.388 . S
H451 O452 0.760 . S
O452 Co448 2.009 . S
O452 Co449 2.126 . S
O452 Co450 2.053 . S
O452 H451 0.760 . S
H453 Co449 2.388 . S
H453 O454 0.760 . S
H453 Co455 2.400 . S
O454 Co449 2.053 . S
O454 Co450 2.126 . S
O454 H453 0.760 . S
O454 Co455 2.009 . S
Co455 H453 2.400 . S
Co455 O454 2.009 . S
Co455 O456 2.053 . S
Co455 O458 2.094 . S
Co455 O462 2.122 . S
Co455 O476 2.115 . S
Co455 O477 2.315 . S
O456 Co455 2.053 . S
O456 C468 1.259 . S
O457 Co449 2.047 . S
O457 C468 1.257 . S
O458 Co455 2.094 . S
O458 C469 1.253 . S
O459 Co450 2.063 . S
O459 C469 1.268 . S
O460 Co448 2.115 . S
O460 C470 1.281 . S
O461 Co448 2.315 . S
O461 C470 1.252 . S
O462 Co455 2.122 . S
O462 C471 1.272 . S
O463 Co449 2.113 . S
O463 C471 1.245 . S
C464 O472 1.259 . S
C464 O473 1.257 . S
C465 O474 1.268 . S
C465 O475 1.253 . S
C466 O476 1.281 . S
C466 O477 1.252 . S
C467 O478 1.272 . S
C467 O479 1.245 . S
C468 O456 1.259 . S
C468 O457 1.257 . S
C469 O458 1.253 . S
C469 O459 1.268 . S
C470 O460 1.281 . S
C470 O461 1.252 . S
C471 O462 1.272 . S
C471 O463 1.245 . S
O472 Co448 2.053 . S
O472 C464 1.259 . S
O473 Co450 2.047 . S
O473 C464 1.257 . S
O474 Co449 2.063 . S
O474 C465 1.268 . S
O475 Co448 2.094 . S
O475 C465 1.253 . S
O476 Co455 2.115 . S
O476 C466 1.281 . S
O477 Co455 2.315 . S
O477 C466 1.252 . S
O478 Co448 2.122 . S
O478 C467 1.272 . S
O479 Co450 2.113 . S
O479 C467 1.245 . S
Co480 H483 2.400 . S
Co480 O484 2.009 . S
Co480 O492 2.115 . S
Co480 O493 2.315 . S
Co480 O504 2.053 . S
Co480 O507 2.094 . S
Co480 O510 2.122 . S
Co481 O484 2.126 . S
Co481 H485 2.388 . S
Co481 O486 2.053 . S
Co481 O489 2.047 . S
Co481 O495 2.113 . S
Co481 O506 2.063 . S
Co482 H483 2.388 . S
Co482 O484 2.053 . S
Co482 O486 2.126 . S
Co482 O491 2.063 . S
Co482 O505 2.047 . S
Co482 O511 2.113 . S
H483 Co480 2.400 . S
H483 Co482 2.388 . S
H483 O484 0.760 . S
O484 Co480 2.009 . S
O484 Co481 2.126 . S
O484 Co482 2.053 . S
O484 H483 0.760 . S
H485 Co481 2.388 . S
H485 O486 0.760 . S
H485 Co487 2.400 . S
O486 Co481 2.053 . S
O486 Co482 2.126 . S
O486 H485 0.760 . S
O486 Co487 2.009 . S
Co487 H485 2.400 . S
Co487 O486 2.009 . S
Co487 O488 2.053 . S
Co487 O490 2.094 . S
Co487 O494 2.122 . S
Co487 O508 2.115 . S
Co487 O509 2.315 . S
O488 Co487 2.053 . S
O488 C500 1.259 . S
O489 Co481 2.047 . S
O489 C500 1.257 . S
O490 Co487 2.094 . S
O490 C501 1.253 . S
O491 Co482 2.063 . S
O491 C501 1.268 . S
O492 Co480 2.115 . S
O492 C502 1.281 . S
O493 Co480 2.315 . S
O493 C502 1.252 . S
O494 Co487 2.122 . S
O494 C503 1.272 . S
O495 Co481 2.113 . S
O495 C503 1.245 . S
C496 O504 1.259 . S
C496 O505 1.257 . S
C497 O506 1.268 . S
C497 O507 1.253 . S
C498 O508 1.281 . S
C498 O509 1.252 . S
C499 O510 1.272 . S
C499 O511 1.245 . S
C500 O488 1.259 . S
C500 O489 1.257 . S
C501 O490 1.253 . S
C501 O491 1.268 . S
C502 O492 1.281 . S
C502 O493 1.252 . S
C503 O494 1.272 . S
C503 O495 1.245 . S
O504 Co480 2.053 . S
O504 C496 1.259 . S
O505 Co482 2.047 . S
O505 C496 1.257 . S
O506 Co481 2.063 . S
O506 C497 1.268 . S
O507 Co480 2.094 . S
O507 C497 1.253 . S
O508 Co487 2.115 . S
O508 C498 1.281 . S
O509 Co487 2.315 . S
O509 C498 1.252 . S
O510 Co480 2.122 . S
O510 C499 1.272 . S
O511 Co482 2.113 . S
O511 C499 1.245 . S
Co512 H515 2.400 . S
Co512 O516 2.009 . S
Co512 O524 2.115 . S
Co512 O525 2.315 . S
Co512 O536 2.053 . S
Co512 O539 2.094 . S
Co512 O542 2.122 . S
Co513 O516 2.126 . S
Co513 H517 2.388 . S
Co513 O518 2.053 . S
Co513 O521 2.047 . S
Co513 O527 2.113 . S
Co513 O538 2.063 . S
Co514 H515 2.388 . S
Co514 O516 2.053 . S
Co514 O518 2.126 . S
Co514 O523 2.063 . S
Co514 O537 2.047 . S
Co514 O543 2.113 . S
H515 Co512 2.400 . S
H515 Co514 2.388 . S
H515 O516 0.760 . S
O516 Co512 2.009 . S
O516 Co513 2.126 . S
O516 Co514 2.053 . S
O516 H515 0.760 . S
H517 Co513 2.388 . S
H517 O518 0.760 . S
H517 Co519 2.400 . S
O518 Co513 2.053 . S
O518 Co514 2.126 . S
O518 H517 0.760 . S
O518 Co519 2.009 . S
Co519 H517 2.400 . S
Co519 O518 2.009 . S
Co519 O520 2.053 . S
Co519 O522 2.094 . S
Co519 O526 2.122 . S
Co519 O540 2.115 . S
Co519 O541 2.315 . S
O520 Co519 2.053 . S
O520 C532 1.259 . S
O521 Co513 2.047 . S
O521 C532 1.257 . S
O522 Co519 2.094 . S
O522 C533 1.253 . S
O523 Co514 2.063 . S
O523 C533 1.268 . S
O524 Co512 2.115 . S
O524 C534 1.281 . S
O525 Co512 2.315 . S
O525 C534 1.252 . S
O526 Co519 2.122 . S
O526 C535 1.272 . S
O527 Co513 2.113 . S
O527 C535 1.245 . S
C528 O536 1.259 . S
C528 O537 1.257 . S
C529 O538 1.268 . S
C529 O539 1.253 . S
C530 O540 1.281 . S
C530 O541 1.252 . S
C531 O542 1.272 . S
C531 O543 1.245 . S
C532 O520 1.259 . S
C532 O521 1.257 . S
C533 O522 1.253 . S
C533 O523 1.268 . S
C534 O524 1.281 . S
C534 O525 1.252 . S
C535 O526 1.272 . S
C535 O527 1.245 . S
O536 Co512 2.053 . S
O536 C528 1.259 . S
O537 Co514 2.047 . S
O537 C528 1.257 . S
O538 Co513 2.063 . S
O538 C529 1.268 . S
O539 Co512 2.094 . S
O539 C529 1.253 . S
O540 Co519 2.115 . S
O540 C530 1.281 . S
O541 Co519 2.315 . S
O541 C530 1.252 . S
O542 Co512 2.122 . S
O542 C531 1.272 . S
O543 Co514 2.113 . S
O543 C531 1.245 . S
Co544 H547 2.400 . S
Co544 O548 2.009 . S
Co544 O556 2.115 . S
Co544 O557 2.315 . S
Co544 O568 2.053 . S
Co544 O571 2.094 . S
Co544 O574 2.122 . S
Co545 O548 2.126 . S
Co545 H549 2.388 . S
Co545 O550 2.053 . S
Co545 O553 2.047 . S
Co545 O559 2.113 . S
Co545 O570 2.063 . S
Co546 H547 2.388 . S
Co546 O548 2.053 . S
Co546 O550 2.126 . S
Co546 O555 2.063 . S
Co546 O569 2.047 . S
Co546 O575 2.113 . S
H547 Co544 2.400 . S
H547 Co546 2.388 . S
H547 O548 0.760 . S
O548 Co544 2.009 . S
O548 Co545 2.126 . S
O548 Co546 2.053 . S
O548 H547 0.760 . S
H549 Co545 2.388 . S
H549 O550 0.760 . S
H549 Co551 2.400 . S
O550 Co545 2.053 . S
O550 Co546 2.126 . S
O550 H549 0.760 . S
O550 Co551 2.009 . S
Co551 H549 2.400 . S
Co551 O550 2.009 . S
Co551 O552 2.053 . S
Co551 O554 2.094 . S
Co551 O558 2.122 . S
Co551 O572 2.115 . S
Co551 O573 2.315 . S
O552 Co551 2.053 . S
O552 C564 1.259 . S
O553 Co545 2.047 . S
O553 C564 1.257 . S
O554 Co551 2.094 . S
O554 C565 1.253 . S
O555 Co546 2.063 . S
O555 C565 1.268 . S
O556 Co544 2.115 . S
O556 C566 1.281 . S
O557 Co544 2.315 . S
O557 C566 1.252 . S
O558 Co551 2.122 . S
O558 C567 1.272 . S
O559 Co545 2.113 . S
O559 C567 1.245 . S
C560 O568 1.259 . S
C560 O569 1.257 . S
C561 O570 1.268 . S
C561 O571 1.253 . S
C562 O572 1.281 . S
C562 O573 1.252 . S
C563 O574 1.272 . S
C563 O575 1.245 . S
C564 O552 1.259 . S
C564 O553 1.257 . S
C565 O554 1.253 . S
C565 O555 1.268 . S
C566 O556 1.281 . S
C566 O557 1.252 . S
C567 O558 1.272 . S
C567 O559 1.245 . S
O568 Co544 2.053 . S
O568 C560 1.259 . S
O569 Co546 2.047 . S
O569 C560 1.257 . S
O570 Co545 2.063 . S
O570 C561 1.268 . S
O571 Co544 2.094 . S
O571 C561 1.253 . S
O572 Co551 2.115 . S
O572 C562 1.281 . S
O573 Co551 2.315 . S
O573 C562 1.252 . S
O574 Co544 2.122 . S
O574 C563 1.272 . S
O575 Co546 2.113 . S
O575 C563 1.245 . S
Co576 H579 2.400 . S
Co576 O580 2.009 . S
Co576 O588 2.115 . S
Co576 O589 2.315 . S
Co576 O600 2.053 . S
Co576 O603 2.094 . S
Co576 O606 2.122 . S
Co577 O580 2.126 . S
Co577 H581 2.388 . S
Co577 O582 2.053 . S
Co577 O585 2.047 . S
Co577 O591 2.113 . S
Co577 O602 2.063 . S
Co578 H579 2.388 . S
Co578 O580 2.053 . S
Co578 O582 2.126 . S
Co578 O587 2.063 . S
Co578 O601 2.047 . S
Co578 O607 2.113 . S
H579 Co576 2.400 . S
H579 Co578 2.388 . S
H579 O580 0.760 . S
O580 Co576 2.009 . S
O580 Co577 2.126 . S
O580 Co578 2.053 . S
O580 H579 0.760 . S
H581 Co577 2.388 . S
H581 O582 0.760 . S
H581 Co583 2.400 . S
O582 Co577 2.053 . S
O582 Co578 2.126 . S
O582 H581 0.760 . S
O582 Co583 2.009 . S
Co583 H581 2.400 . S
Co583 O582 2.009 . S
Co583 O584 2.053 . S
Co583 O586 2.094 . S
Co583 O590 2.122 . S
Co583 O604 2.115 . S
Co583 O605 2.315 . S
O584 Co583 2.053 . S
O584 C596 1.259 . S
O585 Co577 2.047 . S
O585 C596 1.257 . S
O586 Co583 2.094 . S
O586 C597 1.253 . S
O587 Co578 2.063 . S
O587 C597 1.268 . S
O588 Co576 2.115 . S
O588 C598 1.281 . S
O589 Co576 2.315 . S
O589 C598 1.252 . S
O590 Co583 2.122 . S
O590 C599 1.272 . S
O591 Co577 2.113 . S
O591 C599 1.245 . S
C592 O600 1.259 . S
C592 O601 1.257 . S
C593 O602 1.268 . S
C593 O603 1.253 . S
C594 O604 1.281 . S
C594 O605 1.252 . S
C595 O606 1.272 . S
C595 O607 1.245 . S
C596 O584 1.259 . S
C596 O585 1.257 . S
C597 O586 1.253 . S
C597 O587 1.268 . S
C598 O588 1.281 . S
C598 O589 1.252 . S
C599 O590 1.272 . S
C599 O591 1.245 . S
O600 Co576 2.053 . S
O600 C592 1.259 . S
O601 Co578 2.047 . S
O601 C592 1.257 . S
O602 Co577 2.063 . S
O602 C593 1.268 . S
O603 Co576 2.094 . S
O603 C593 1.253 . S
O604 Co583 2.115 . S
O604 C594 1.281 . S
O605 Co583 2.315 . S
O605 C594 1.252 . S
O606 Co576 2.122 . S
O606 C595 1.272 . S
O607 Co578 2.113 . S
O607 C595 1.245 . S
Co608 H611 2.400 . S
Co608 O612 2.009 . S
Co608 O620 2.115 . S
Co608 O621 2.315 . S
Co608 O632 2.053 . S
Co608 O635 2.094 . S
Co608 O638 2.122 . S
Co609 O612 2.126 . S
Co609 H613 2.388 . S
Co609 O614 2.053 . S
Co609 O617 2.047 . S
Co609 O623 2.113 . S
Co609 O634 2.063 . S
Co610 H611 2.388 . S
Co610 O612 2.053 . S
Co610 O614 2.126 . S
Co610 O619 2.063 . S
Co610 O633 2.047 . S
Co610 O639 2.113 . S
H611 Co608 2.400 . S
H611 Co610 2.388 . S
H611 O612 0.760 . S
O612 Co608 2.009 . S
O612 Co609 2.126 . S
O612 Co610 2.053 . S
O612 H611 0.760 . S
H613 Co609 2.388 . S
H613 O614 0.760 . S
H613 Co615 2.400 . S
O614 Co609 2.053 . S
O614 Co610 2.126 . S
O614 H613 0.760 . S
O614 Co615 2.009 . S
Co615 H613 2.400 . S
Co615 O614 2.009 . S
Co615 O616 2.053 . S
Co615 O618 2.094 . S
Co615 O622 2.122 . S
Co615 O636 2.115 . S
Co615 O637 2.315 . S
O616 Co615 2.053 . S
O616 C628 1.259 . S
O617 Co609 2.047 . S
O617 C628 1.257 . S
O618 Co615 2.094 . S
O618 C629 1.253 . S
O619 Co610 2.063 . S
O619 C629 1.268 . S
O620 Co608 2.115 . S
O620 C630 1.281 . S
O621 Co608 2.315 . S
O621 C630 1.252 . S
O622 Co615 2.122 . S
O622 C631 1.272 . S
O623 Co609 2.113 . S
O623 C631 1.245 . S
C624 O632 1.259 . S
C624 O633 1.257 . S
C625 O634 1.268 . S
C625 O635 1.253 . S
C626 O636 1.281 . S
C626 O637 1.252 . S
C627 O638 1.272 . S
C627 O639 1.245 . S
C628 O616 1.259 . S
C628 O617 1.257 . S
C629 O618 1.253 . S
C629 O619 1.268 . S
C630 O620 1.281 . S
C630 O621 1.252 . S
C631 O622 1.272 . S
C631 O623 1.245 . S
O632 Co608 2.053 . S
O632 C624 1.259 . S
O633 Co610 2.047 . S
O633 C624 1.257 . S
O634 Co609 2.063 . S
O634 C625 1.268 . S
O635 Co608 2.094 . S
O635 C625 1.253 . S
O636 Co615 2.115 . S
O636 C626 1.281 . S
O637 Co615 2.315 . S
O637 C626 1.252 . S
O638 Co608 2.122 . S
O638 C627 1.272 . S
O639 Co610 2.113 . S
O639 C627 1.245 . S
Co640 H643 2.400 . S
Co640 O644 2.009 . S
Co640 O652 2.115 . S
Co640 O653 2.315 . S
Co640 O664 2.053 . S
Co640 O667 2.094 . S
Co640 O670 2.122 . S
Co641 O644 2.126 . S
Co641 H645 2.388 . S
Co641 O646 2.053 . S
Co641 O649 2.047 . S
Co641 O655 2.113 . S
Co641 O666 2.063 . S
Co642 H643 2.388 . S
Co642 O644 2.053 . S
Co642 O646 2.126 . S
Co642 O651 2.063 . S
Co642 O665 2.047 . S
Co642 O671 2.113 . S
H643 Co640 2.400 . S
H643 Co642 2.388 . S
H643 O644 0.760 . S
O644 Co640 2.009 . S
O644 Co641 2.126 . S
O644 Co642 2.053 . S
O644 H643 0.760 . S
H645 Co641 2.388 . S
H645 O646 0.760 . S
H645 Co647 2.400 . S
O646 Co641 2.053 . S
O646 Co642 2.126 . S
O646 H645 0.760 . S
O646 Co647 2.009 . S
Co647 H645 2.400 . S
Co647 O646 2.009 . S
Co647 O648 2.053 . S
Co647 O650 2.094 . S
Co647 O654 2.122 . S
Co647 O668 2.115 . S
Co647 O669 2.315 . S
O648 Co647 2.053 . S
O648 C660 1.259 . S
O649 Co641 2.047 . S
O649 C660 1.257 . S
O650 Co647 2.094 . S
O650 C661 1.253 . S
O651 Co642 2.063 . S
O651 C661 1.268 . S
O652 Co640 2.115 . S
O652 C662 1.281 . S
O653 Co640 2.315 . S
O653 C662 1.252 . S
O654 Co647 2.122 . S
O654 C663 1.272 . S
O655 Co641 2.113 . S
O655 C663 1.245 . S
C656 O664 1.259 . S
C656 O665 1.257 . S
C657 O666 1.268 . S
C657 O667 1.253 . S
C658 O668 1.281 . S
C658 O669 1.252 . S
C659 O670 1.272 . S
C659 O671 1.245 . S
C660 O648 1.259 . S
C660 O649 1.257 . S
C661 O650 1.253 . S
C661 O651 1.268 . S
C662 O652 1.281 . S
C662 O653 1.252 . S
C663 O654 1.272 . S
C663 O655 1.245 . S
O664 Co640 2.053 . S
O664 C656 1.259 . S
O665 Co642 2.047 . S
O665 C656 1.257 . S
O666 Co641 2.063 . S
O666 C657 1.268 . S
O667 Co640 2.094 . S
O667 C657 1.253 . S
O668 Co647 2.115 . S
O668 C658 1.281 . S
O669 Co647 2.315 . S
O669 C658 1.252 . S
O670 Co640 2.122 . S
O670 C659 1.272 . S
O671 Co642 2.113 . S
O671 C659 1.245 . S
Co672 H675 2.400 . S
Co672 O676 2.009 . S
Co672 O684 2.115 . S
Co672 O685 2.315 . S
Co672 O696 2.053 . S
Co672 O699 2.094 . S
Co672 O702 2.122 . S
Co673 O676 2.126 . S
Co673 H677 2.388 . S
Co673 O678 2.053 . S
Co673 O681 2.047 . S
Co673 O687 2.113 . S
Co673 O698 2.063 . S
Co674 H675 2.388 . S
Co674 O676 2.053 . S
Co674 O678 2.126 . S
Co674 O683 2.063 . S
Co674 O697 2.047 . S
Co674 O703 2.113 . S
H675 Co672 2.400 . S
H675 Co674 2.388 . S
H675 O676 0.760 . S
O676 Co672 2.009 . S
O676 Co673 2.126 . S
O676 Co674 2.053 . S
O676 H675 0.760 . S
H677 Co673 2.388 . S
H677 O678 0.760 . S
H677 Co679 2.400 . S
O678 Co673 2.053 . S
O678 Co674 2.126 . S
O678 H677 0.760 . S
O678 Co679 2.009 . S
Co679 H677 2.400 . S
Co679 O678 2.009 . S
Co679 O680 2.053 . S
Co679 O682 2.094 . S
Co679 O686 2.122 . S
Co679 O700 2.115 . S
Co679 O701 2.315 . S
O680 Co679 2.053 . S
O680 C692 1.259 . S
O681 Co673 2.047 . S
O681 C692 1.257 . S
O682 Co679 2.094 . S
O682 C693 1.253 . S
O683 Co674 2.063 . S
O683 C693 1.268 . S
O684 Co672 2.115 . S
O684 C694 1.281 . S
O685 Co672 2.315 . S
O685 C694 1.252 . S
O686 Co679 2.122 . S
O686 C695 1.272 . S
O687 Co673 2.113 . S
O687 C695 1.245 . S
C688 O696 1.259 . S
C688 O697 1.257 . S
C689 O698 1.268 . S
C689 O699 1.253 . S
C690 O700 1.281 . S
C690 O701 1.252 . S
C691 O702 1.272 . S
C691 O703 1.245 . S
C692 O680 1.259 . S
C692 O681 1.257 . S
C693 O682 1.253 . S
C693 O683 1.268 . S
C694 O684 1.281 . S
C694 O685 1.252 . S
C695 O686 1.272 . S
C695 O687 1.245 . S
O696 Co672 2.053 . S
O696 C688 1.259 . S
O697 Co674 2.047 . S
O697 C688 1.257 . S
O698 Co673 2.063 . S
O698 C689 1.268 . S
O699 Co672 2.094 . S
O699 C689 1.253 . S
O700 Co679 2.115 . S
O700 C690 1.281 . S
O701 Co679 2.315 . S
O701 C690 1.252 . S
O702 Co672 2.122 . S
O702 C691 1.272 . S
O703 Co674 2.113 . S
O703 C691 1.245 . S
Co704 H707 2.400 . S
Co704 O708 2.009 . S
Co704 O716 2.115 . S
Co704 O717 2.315 . S
Co704 O728 2.053 . S
Co704 O731 2.094 . S
Co704 O734 2.122 . S
Co705 O708 2.126 . S
Co705 H709 2.388 . S
Co705 O710 2.053 . S
Co705 O713 2.047 . S
Co705 O719 2.113 . S
Co705 O730 2.063 . S
Co706 H707 2.388 . S
Co706 O708 2.053 . S
Co706 O710 2.126 . S
Co706 O715 2.063 . S
Co706 O729 2.047 . S
Co706 O735 2.113 . S
H707 Co704 2.400 . S
H707 Co706 2.388 . S
H707 O708 0.760 . S
O708 Co704 2.009 . S
O708 Co705 2.126 . S
O708 Co706 2.053 . S
O708 H707 0.760 . S
H709 Co705 2.388 . S
H709 O710 0.760 . S
H709 Co711 2.400 . S
O710 Co705 2.053 . S
O710 Co706 2.126 . S
O710 H709 0.760 . S
O710 Co711 2.009 . S
Co711 H709 2.400 . S
Co711 O710 2.009 . S
Co711 O712 2.053 . S
Co711 O714 2.094 . S
Co711 O718 2.122 . S
Co711 O732 2.115 . S
Co711 O733 2.315 . S
O712 Co711 2.053 . S
O712 C724 1.259 . S
O713 Co705 2.047 . S
O713 C724 1.257 . S
O714 Co711 2.094 . S
O714 C725 1.253 . S
O715 Co706 2.063 . S
O715 C725 1.268 . S
O716 Co704 2.115 . S
O716 C726 1.281 . S
O717 Co704 2.315 . S
O717 C726 1.252 . S
O718 Co711 2.122 . S
O718 C727 1.272 . S
O719 Co705 2.113 . S
O719 C727 1.245 . S
C720 O728 1.259 . S
C720 O729 1.257 . S
C721 O730 1.268 . S
C721 O731 1.253 . S
C722 O732 1.281 . S
C722 O733 1.252 . S
C723 O734 1.272 . S
C723 O735 1.245 . S
C724 O712 1.259 . S
C724 O713 1.257 . S
C725 O714 1.253 . S
C725 O715 1.268 . S
C726 O716 1.281 . S
C726 O717 1.252 . S
C727 O718 1.272 . S
C727 O719 1.245 . S
O728 Co704 2.053 . S
O728 C720 1.259 . S
O729 Co706 2.047 . S
O729 C720 1.257 . S
O730 Co705 2.063 . S
O730 C721 1.268 . S
O731 Co704 2.094 . S
O731 C721 1.253 . S
O732 Co711 2.115 . S
O732 C722 1.281 . S
O733 Co711 2.315 . S
O733 C722 1.252 . S
O734 Co704 2.122 . S
O734 C723 1.272 . S
O735 Co706 2.113 . S
O735 C723 1.245 . S
Co736 H739 2.400 . S
Co736 O740 2.009 . S
Co736 O748 2.115 . S
Co736 O749 2.315 . S
Co736 O760 2.053 . S
Co736 O763 2.094 . S
Co736 O766 2.122 . S
Co737 O740 2.126 . S
Co737 H741 2.388 . S
Co737 O742 2.053 . S
Co737 O745 2.047 . S
Co737 O751 2.113 . S
Co737 O762 2.063 . S
Co738 H739 2.388 . S
Co738 O740 2.053 . S
Co738 O742 2.126 . S
Co738 O747 2.063 . S
Co738 O761 2.047 . S
Co738 O767 2.113 . S
H739 Co736 2.400 . S
H739 Co738 2.388 . S
H739 O740 0.760 . S
O740 Co736 2.009 . S
O740 Co737 2.126 . S
O740 Co738 2.053 . S
O740 H739 0.760 . S
H741 Co737 2.388 . S
H741 O742 0.760 . S
H741 Co743 2.400 . S
O742 Co737 2.053 . S
O742 Co738 2.126 . S
O742 H741 0.760 . S
O742 Co743 2.009 . S
Co743 H741 2.400 . S
Co743 O742 2.009 . S
Co743 O744 2.053 . S
Co743 O746 2.094 . S
Co743 O750 2.122 . S
Co743 O764 2.115 . S
Co743 O765 2.315 . S
O744 Co743 2.053 . S
O744 C756 1.259 . S
O745 Co737 2.047 . S
O745 C756 1.257 . S
O746 Co743 2.094 . S
O746 C757 1.253 . S
O747 Co738 2.063 . S
O747 C757 1.268 . S
O748 Co736 2.115 . S
O748 C758 1.281 . S
O749 Co736 2.315 . S
O749 C758 1.252 . S
O750 Co743 2.122 . S
O750 C759 1.272 . S
O751 Co737 2.113 . S
O751 C759 1.245 . S
C752 O760 1.259 . S
C752 O761 1.257 . S
C753 O762 1.268 . S
C753 O763 1.253 . S
C754 O764 1.281 . S
C754 O765 1.252 . S
C755 O766 1.272 . S
C755 O767 1.245 . S
C756 O744 1.259 . S
C756 O745 1.257 . S
C757 O746 1.253 . S
C757 O747 1.268 . S
C758 O748 1.281 . S
C758 O749 1.252 . S
C759 O750 1.272 . S
C759 O751 1.245 . S
O760 Co736 2.053 . S
O760 C752 1.259 . S
O761 Co738 2.047 . S
O761 C752 1.257 . S
O762 Co737 2.063 . S
O762 C753 1.268 . S
O763 Co736 2.094 . S
O763 C753 1.253 . S
O764 Co743 2.115 . S
O764 C754 1.281 . S
O765 Co743 2.315 . S
O765 C754 1.252 . S
O766 Co736 2.122 . S
O766 C755 1.272 . S
O767 Co738 2.113 . S
O767 C755 1.245 . S
C768 C769 1.349 . S
C768 C770 1.327 . S
C768 H793 0.950 . S
C769 C768 1.349 . S
C769 C785 1.349 . S
C770 C768 1.327 . S
C770 C789 1.429 . S
C770 H794 0.950 . S
C771 C788 1.574 . S
C771 C790 1.368 . S
C771 H795 0.949 . S
H772 C776 0.949 . S
C773 C774 1.349 . S
C773 C775 1.327 . S
C773 H796 0.950 . S
C774 C773 1.349 . S
C774 C786 1.349 . S
C775 C773 1.327 . S
C775 C791 1.429 . S
C775 H797 0.950 . S
C776 H772 0.949 . S
C776 C784 1.574 . S
C776 C792 1.368 . S
H777 C785 0.950 . S
H778 C783 0.950 . S
H779 C784 0.949 . S
H780 C786 0.950 . S
H781 C787 0.950 . S
H782 C788 0.949 . S
C783 H778 0.950 . S
C783 C785 1.327 . S
C783 C789 1.429 . S
C784 C776 1.574 . S
C784 H779 0.949 . S
C784 C790 1.368 . S
C785 C769 1.349 . S
C785 H777 0.950 . S
C785 C783 1.327 . S
C786 C774 1.349 . S
C786 H780 0.950 . S
C786 C787 1.327 . S
C787 H781 0.950 . S
C787 C786 1.327 . S
C787 C791 1.429 . S
C788 C771 1.574 . S
C788 H782 0.949 . S
C788 C792 1.368 . S
C789 C770 1.429 . S
C789 C783 1.429 . S
C789 C790 1.523 . S
C790 C771 1.368 . S
C790 C784 1.368 . S
C790 C789 1.523 . S
C791 C775 1.429 . S
C791 C787 1.429 . S
C791 C792 1.523 . S
C792 C776 1.368 . S
C792 C788 1.368 . S
C792 C791 1.523 . S
H793 C768 0.950 . S
H794 C770 0.950 . S
H795 C771 0.949 . S
H796 C773 0.950 . S
H797 C775 0.950 . S
C798 C799 1.349 . S
C798 C800 1.327 . S
C798 H823 0.950 . S
C799 C798 1.349 . S
C799 C815 1.349 . S
C800 C798 1.327 . S
C800 C819 1.429 . S
C800 H824 0.950 . S
C801 C818 1.574 1_565 S
C801 C820 1.368 . S
C801 H825 0.949 . S
H802 C806 0.949 1_455 S
C803 C804 1.349 . S
C803 C805 1.327 . S
C803 H826 0.950 . S
C804 C803 1.349 . S
C804 C816 1.349 . S
C805 C803 1.327 . S
C805 C821 1.429 . S
C805 H827 0.950 1_455 S
C806 H802 0.949 1_655 S
C806 C814 1.574 . S
C806 C822 1.368 1_565 S
H807 C815 0.950 . S
H808 C813 0.950 . S
H809 C814 0.949 . S
H810 C816 0.950 . S
H811 C817 0.950 . S
H812 C818 0.949 . S
C813 H808 0.950 . S
C813 C815 1.327 . S
C813 C819 1.429 . S
C814 C806 1.574 . S
C814 H809 0.949 . S
C814 C820 1.368 . S
C815 C799 1.349 . S
C815 H807 0.950 . S
C815 C813 1.327 . S
C816 C804 1.349 . S
C816 H810 0.950 . S
C816 C817 1.327 . S
C817 H811 0.950 . S
C817 C816 1.327 . S
C817 C821 1.429 . S
C818 C801 1.574 1_545 S
C818 H812 0.949 . S
C818 C822 1.368 . S
C819 C800 1.429 . S
C819 C813 1.429 . S
C819 C820 1.523 . S
C820 C801 1.368 . S
C820 C814 1.368 . S
C820 C819 1.523 . S
C821 C805 1.429 . S
C821 C817 1.429 . S
C821 C822 1.523 1_455 S
C822 C806 1.368 1_545 S
C822 C818 1.368 . S
C822 C821 1.523 1_655 S
H823 C798 0.950 . S
H824 C800 0.950 . S
H825 C801 0.949 . S
H826 C803 0.950 . S
H827 C805 0.950 1_655 S
C828 C829 1.349 . S
C828 C830 1.327 . S
C828 H853 0.950 . S
C829 C828 1.349 . S
C829 C845 1.349 . S
C830 C828 1.327 . S
C830 C849 1.429 . S
C830 H854 0.950 . S
C831 C848 1.574 . S
C831 C850 1.368 . S
C831 H855 0.949 . S
H832 C836 0.949 . S
C833 C834 1.349 . S
C833 C835 1.327 . S
C833 H856 0.950 . S
C834 C833 1.349 . S
C834 C846 1.349 . S
C835 C833 1.327 . S
C835 C851 1.429 . S
C835 H857 0.950 . S
C836 H832 0.949 . S
C836 C844 1.574 . S
C836 C852 1.368 . S
H837 C845 0.950 . S
H838 C843 0.950 . S
H839 C844 0.949 . S
H840 C846 0.950 . S
H841 C847 0.950 . S
H842 C848 0.949 . S
C843 H838 0.950 . S
C843 C845 1.327 . S
C843 C849 1.429 . S
C844 C836 1.574 . S
C844 H839 0.949 . S
C844 C850 1.368 . S
C845 C829 1.349 . S
C845 H837 0.950 . S
C845 C843 1.327 . S
C846 C834 1.349 . S
C846 H840 0.950 . S
C846 C847 1.327 . S
C847 H841 0.950 . S
C847 C846 1.327 . S
C847 C851 1.429 . S
C848 C831 1.574 . S
C848 H842 0.949 . S
C848 C852 1.368 . S
C849 C830 1.429 . S
C849 C843 1.429 . S
C849 C850 1.523 . S
C850 C831 1.368 . S
C850 C844 1.368 . S
C850 C849 1.523 . S
C851 C835 1.429 . S
C851 C847 1.429 . S
C851 C852 1.523 . S
C852 C836 1.368 . S
C852 C848 1.368 . S
C852 C851 1.523 . S
H853 C828 0.950 . S
H854 C830 0.950 . S
H855 C831 0.949 . S
H856 C833 0.950 . S
H857 C835 0.950 . S
C858 C859 1.349 . S
C858 C860 1.327 . S
C858 H883 0.950 . S
C859 C858 1.349 . S
C859 C875 1.349 . S
C860 C858 1.327 . S
C860 C879 1.429 . S
C860 H884 0.950 . S
C861 C878 1.574 . S
C861 C880 1.368 . S
C861 H885 0.949 . S
H862 C866 0.949 . S
C863 C864 1.349 . S
C863 C865 1.327 . S
C863 H886 0.950 . S
C864 C863 1.349 . S
C864 C876 1.349 . S
C865 C863 1.327 . S
C865 C881 1.429 . S
C865 H887 0.950 . S
C866 H862 0.949 . S
C866 C874 1.570 . S
C866 C882 1.368 . S
H867 C875 0.950 . S
H868 C873 0.985 . S
H869 C874 0.953 1_565 S
H870 C876 0.950 . S
H871 C877 0.950 . S
H872 C878 0.949 . S
C873 H868 0.985 . S
C873 C875 1.327 . S
C873 C879 1.429 . S
C874 C866 1.570 . S
C874 H869 0.953 1_545 S
C874 C880 1.367 . S
C875 C859 1.349 . S
C875 H867 0.950 . S
C875 C873 1.327 . S
C876 C864 1.349 . S
C876 H870 0.950 . S
C876 C877 1.327 . S
C877 H871 0.950 . S
C877 C876 1.327 . S
C877 C881 1.429 . S
C878 C861 1.574 . S
C878 H872 0.949 . S
C878 C882 1.368 . S
C879 C860 1.429 . S
C879 C873 1.429 . S
C879 C880 1.523 1_565 S
C880 C861 1.368 . S
C880 C874 1.367 . S
C880 C879 1.523 1_545 S
C881 C865 1.429 . S
C881 C877 1.429 . S
C881 C882 1.523 . S
C882 C866 1.368 . S
C882 C878 1.368 . S
C882 C881 1.523 . S
H883 C858 0.950 . S
H884 C860 0.950 . S
H885 C861 0.949 . S
H886 C863 0.950 . S
H887 C865 0.950 . S
C888 C889 1.349 . S
C888 C890 1.327 . S
C888 H913 0.950 . S
C889 C888 1.349 . S
C889 C905 1.349 . S
C890 C888 1.327 . S
C890 C909 1.429 . S
C890 H914 0.950 . S
C891 C908 1.574 . S
C891 C910 1.368 . S
C891 H915 0.949 . S
H892 C896 0.949 . S
C893 C894 1.349 . S
C893 C895 1.327 . S
C893 H916 0.950 . S
C894 C893 1.349 . S
C894 C906 1.349 . S
C895 C893 1.327 . S
C895 C911 1.429 . S
C895 H917 0.950 . S
C896 H892 0.949 . S
C896 C904 1.574 . S
C896 C912 1.368 . S
H897 C905 0.950 . S
H898 C903 0.950 . S
H899 C904 0.949 . S
H900 C906 0.950 . S
H901 C907 0.950 . S
H902 C908 0.949 . S
C903 H898 0.950 . S
C903 C905 1.327 . S
C903 C909 1.429 . S
C904 C896 1.574 . S
C904 H899 0.949 . S
C904 C910 1.368 . S
C905 C889 1.349 . S
C905 H897 0.950 . S
C905 C903 1.327 . S
C906 C894 1.349 . S
C906 H900 0.950 . S
C906 C907 1.327 . S
C907 H901 0.950 . S
C907 C906 1.327 . S
C907 C911 1.429 . S
C908 C891 1.574 . S
C908 H902 0.949 . S
C908 C912 1.368 . S
C909 C890 1.429 . S
C909 C903 1.429 . S
C909 C910 1.523 . S
C910 C891 1.368 . S
C910 C904 1.368 . S
C910 C909 1.523 . S
C911 C895 1.429 . S
C911 C907 1.429 . S
C911 C912 1.523 . S
C912 C896 1.368 . S
C912 C908 1.368 . S
C912 C911 1.523 . S
H913 C888 0.950 . S
H914 C890 0.950 . S
H915 C891 0.949 . S
H916 C893 0.950 . S
H917 C895 0.950 . S
C918 C919 1.349 . S
C918 C920 1.327 . S
C918 H943 0.950 . S
C919 C918 1.349 . S
C919 C935 1.349 . S
C920 C918 1.327 . S
C920 C939 1.429 . S
C920 H944 0.950 . S
C921 C938 1.574 1_565 S
C921 C940 1.368 . S
C921 H945 0.949 . S
H922 C926 0.949 . S
C923 C924 1.349 . S
C923 C925 1.327 . S
C923 H946 0.950 . S
C924 C923 1.349 . S
C924 C936 1.349 . S
C925 C923 1.327 . S
C925 C941 1.429 . S
C925 H947 0.950 . S
C926 H922 0.949 . S
C926 C934 1.575 1_545 S
C926 C942 1.368 . S
H927 C935 0.950 . S
H928 C933 0.950 . S
H929 C934 0.949 . S
H930 C936 0.950 . S
H931 C937 0.950 . S
H932 C938 0.949 . S
C933 H928 0.950 . S
C933 C935 1.327 . S
C933 C939 1.429 . S
C934 C926 1.575 1_565 S
C934 H929 0.949 . S
C934 C940 1.367 . S
C935 C919 1.349 . S
C935 H927 0.950 . S
C935 C933 1.327 . S
C936 C924 1.349 . S
C936 H930 0.950 . S
C936 C937 1.327 . S
C937 H931 0.950 . S
C937 C936 1.327 . S
C937 C941 1.429 . S
C938 C921 1.574 1_545 S
C938 H932 0.949 . S
C938 C942 1.368 . S
C939 C920 1.429 . S
C939 C933 1.429 . S
C939 C940 1.523 . S
C940 C921 1.368 . S
C940 C934 1.367 . S
C940 C939 1.523 . S
C941 C925 1.429 . S
C941 C937 1.429 . S
C941 C942 1.523 . S
C942 C926 1.368 . S
C942 C938 1.368 . S
C942 C941 1.523 . S
H943 C918 0.950 . S
H944 C920 0.950 . S
H945 C921 0.949 . S
H946 C923 0.950 . S
H947 C925 0.950 . S
C948 C949 1.349 . S
C948 C950 1.327 . S
C948 H973 0.950 . S
C949 C948 1.349 . S
C949 C965 1.349 . S
C950 C948 1.327 . S
C950 C969 1.429 . S
C950 H974 0.950 . S
C951 C968 1.574 . S
C951 C970 1.368 . S
C951 H975 0.949 . S
H952 C956 0.949 . S
C953 C954 1.349 . S
C953 C955 1.327 . S
C953 H976 0.950 . S
C954 C953 1.349 . S
C954 C966 1.349 . S
C955 C953 1.327 . S
C955 C971 1.429 . S
C955 H977 0.950 . S
C956 H952 0.949 . S
C956 C964 1.574 . S
C956 C972 1.368 . S
H957 C965 0.950 . S
H958 C963 0.950 . S
H959 C964 0.949 . S
H960 C966 0.950 . S
H961 C967 0.950 . S
H962 C968 0.949 . S
C963 H958 0.950 . S
C963 C965 1.327 . S
C963 C969 1.429 . S
C964 C956 1.574 . S
C964 H959 0.949 . S
C964 C970 1.368 . S
C965 C949 1.349 . S
C965 H957 0.950 . S
C965 C963 1.327 . S
C966 C954 1.349 . S
C966 H960 0.950 . S
C966 C967 1.327 . S
C967 H961 0.950 . S
C967 C966 1.327 . S
C967 C971 1.429 . S
C968 C951 1.574 . S
C968 H962 0.949 . S
C968 C972 1.368 . S
C969 C950 1.429 . S
C969 C963 1.429 . S
C969 C970 1.523 . S
C970 C951 1.368 . S
C970 C964 1.368 . S
C970 C969 1.523 . S
C971 C955 1.429 . S
C971 C967 1.429 . S
C971 C972 1.523 . S
C972 C956 1.368 . S
C972 C968 1.368 . S
C972 C971 1.523 . S
H973 C948 0.950 . S
H974 C950 0.950 . S
H975 C951 0.949 . S
H976 C953 0.950 . S
H977 C955 0.950 . S
C978 C979 1.349 . S
C978 C980 1.327 . S
C978 H1003 0.950 . S
C979 C978 1.349 . S
C979 C995 1.349 . S
C980 C978 1.327 . S
C980 C999 1.429 . S
C980 H1004 0.950 . S
C981 C998 1.574 1_455 S
C981 C1000 1.368 . S
C981 H1005 0.949 1_545 S
H982 C986 0.949 . S
C983 C984 1.349 . S
C983 C985 1.327 . S
C983 H1006 0.950 . S
C984 C983 1.349 . S
C984 C996 1.349 . S
C985 C983 1.327 . S
C985 C1001 1.429 . S
C985 H1007 0.950 . S
C986 H982 0.949 . S
C986 C994 1.574 1_655 S
C986 C1002 1.368 . S
H987 C995 0.950 . S
H988 C993 0.950 . S
H989 C994 0.949 . S
H990 C996 0.950 . S
H991 C997 0.950 . S
H992 C998 0.949 . S
C993 H988 0.950 . S
C993 C995 1.327 . S
C993 C999 1.429 . S
C994 C986 1.574 1_455 S
C994 H989 0.949 . S
C994 C1000 1.368 . S
C995 C979 1.349 . S
C995 H987 0.950 . S
C995 C993 1.327 . S
C996 C984 1.349 . S
C996 H990 0.950 . S
C996 C997 1.327 . S
C997 H991 0.950 . S
C997 C996 1.327 . S
C997 C1001 1.429 . S
C998 C981 1.574 1_655 S
C998 H992 0.949 . S
C998 C1002 1.368 . S
C999 C980 1.429 . S
C999 C993 1.429 . S
C999 C1000 1.523 1_565 S
C1000 C981 1.368 . S
C1000 C994 1.368 . S
C1000 C999 1.523 1_545 S
C1001 C985 1.429 . S
C1001 C997 1.429 . S
C1001 C1002 1.523 . S
C1002 C986 1.368 . S
C1002 C998 1.368 . S
C1002 C1001 1.523 . S
H1003 C978 0.950 . S
H1004 C980 0.950 . S
H1005 C981 0.949 1_565 S
H1006 C983 0.950 . S
H1007 C985 0.950 . S
C1008 C1009 1.349 . S
C1008 C1010 1.327 . S
C1008 H1033 0.950 . S
C1009 C1008 1.349 . S
C1009 C1025 1.349 . S
C1010 C1008 1.327 . S
C1010 C1029 1.429 . S
C1010 H1034 0.950 . S
C1011 C1028 1.574 . S
C1011 C1030 1.368 . S
C1011 H1035 0.949 . S
H1012 C1016 0.949 . S
C1013 C1014 1.349 . S
C1013 C1015 1.327 . S
C1013 H1036 0.950 . S
C1014 C1013 1.349 . S
C1014 C1026 1.349 . S
C1015 C1013 1.327 . S
C1015 C1031 1.429 . S
C1015 H1037 0.950 . S
C1016 H1012 0.949 . S
C1016 C1024 1.574 . S
C1016 C1032 1.368 . S
H1017 C1025 0.950 . S
H1018 C1023 0.950 . S
H1019 C1024 0.949 . S
H1020 C1026 0.950 . S
H1021 C1027 0.950 . S
H1022 C1028 0.949 . S
C1023 H1018 0.950 . S
C1023 C1025 1.327 . S
C1023 C1029 1.429 . S
C1024 C1016 1.574 . S
C1024 H1019 0.949 . S
C1024 C1030 1.368 . S
C1025 C1009 1.349 . S
C1025 H1017 0.950 . S
C1025 C1023 1.327 . S
C1026 C1014 1.349 . S
C1026 H1020 0.950 . S
C1026 C1027 1.327 . S
C1027 H1021 0.950 . S
C1027 C1026 1.327 . S
C1027 C1031 1.429 . S
C1028 C1011 1.574 . S
C1028 H1022 0.949 . S
C1028 C1032 1.368 . S
C1029 C1010 1.429 . S
C1029 C1023 1.429 . S
C1029 C1030 1.523 . S
C1030 C1011 1.368 . S
C1030 C1024 1.368 . S
C1030 C1029 1.523 . S
C1031 C1015 1.429 . S
C1031 C1027 1.429 . S
C1031 C1032 1.523 . S
C1032 C1016 1.368 . S
C1032 C1028 1.368 . S
C1032 C1031 1.523 . S
H1033 C1008 0.950 . S
H1034 C1010 0.950 . S
H1035 C1011 0.949 . S
H1036 C1013 0.950 . S
H1037 C1015 0.950 . S
C1038 C1039 1.349 . S
C1038 C1040 1.327 . S
C1038 H1063 0.950 . S
C1039 C1038 1.349 . S
C1039 C1055 1.349 . S
C1040 C1038 1.327 . S
C1040 C1059 1.429 . S
C1040 H1064 0.950 . S
C1041 C1058 1.574 . S
C1041 C1060 1.368 . S
C1041 H1065 0.949 . S
H1042 C1046 0.949 . S
C1043 C1044 1.349 . S
C1043 C1045 1.327 . S
C1043 H1066 0.950 . S
C1044 C1043 1.349 . S
C1044 C1056 1.349 . S
C1045 C1043 1.327 . S
C1045 C1061 1.429 . S
C1045 H1067 0.950 . S
C1046 H1042 0.949 . S
C1046 C1054 1.574 1_655 S
C1046 C1062 1.368 . S
H1047 C1055 0.950 . S
H1048 C1053 0.950 . S
H1049 C1054 0.949 . S
H1050 C1056 0.950 . S
H1051 C1057 0.950 . S
H1052 C1058 0.949 . S
C1053 H1048 0.950 . S
C1053 C1055 1.327 . S
C1053 C1059 1.429 . S
C1054 C1046 1.574 1_455 S
C1054 H1049 0.949 . S
C1054 C1060 1.368 . S
C1055 C1039 1.349 . S
C1055 H1047 0.950 . S
C1055 C1053 1.327 . S
C1056 C1044 1.349 . S
C1056 H1050 0.950 . S
C1056 C1057 1.327 . S
C1057 H1051 0.950 . S
C1057 C1056 1.327 . S
C1057 C1061 1.429 . S
C1058 C1041 1.574 . S
C1058 H1052 0.949 . S
C1058 C1062 1.368 1_455 S
C1059 C1040 1.429 . S
C1059 C1053 1.429 . S
C1059 C1060 1.523 . S
C1060 C1041 1.368 . S
C1060 C1054 1.368 . S
C1060 C1059 1.523 . S
C1061 C1045 1.429 . S
C1061 C1057 1.429 . S
C1061 C1062 1.523 . S
C1062 C1046 1.368 . S
C1062 C1058 1.368 1_655 S
C1062 C1061 1.523 . S
H1063 C1038 0.950 . S
H1064 C1040 0.950 . S
H1065 C1041 0.949 . S
H1066 C1043 0.950 . S
H1067 C1045 0.950 . S
C1068 C1069 1.349 . S
C1068 C1070 1.327 . S
C1068 H1093 0.950 . S
C1069 C1068 1.349 . S
C1069 C1085 1.349 . S
C1070 C1068 1.327 . S
C1070 C1089 1.429 . S
C1070 H1094 0.950 . S
C1071 C1088 1.574 . S
C1071 C1090 1.368 . S
C1071 H1095 0.949 . S
H1072 C1076 0.949 . S
C1073 C1074 1.349 . S
C1073 C1075 1.327 . S
C1073 H1096 0.950 . S
C1074 C1073 1.349 . S
C1074 C1086 1.349 . S
C1075 C1073 1.327 . S
C1075 C1091 1.429 . S
C1075 H1097 0.950 . S
C1076 H1072 0.949 . S
C1076 C1084 1.574 . S
C1076 C1092 1.368 . S
H1077 C1085 0.950 . S
H1078 C1083 0.950 . S
H1079 C1084 0.949 . S
H1080 C1086 0.950 . S
H1081 C1087 0.950 . S
H1082 C1088 0.949 . S
C1083 H1078 0.950 . S
C1083 C1085 1.327 . S
C1083 C1089 1.429 . S
C1084 C1076 1.574 . S
C1084 H1079 0.949 . S
C1084 C1090 1.368 . S
C1085 C1069 1.349 . S
C1085 H1077 0.950 . S
C1085 C1083 1.327 . S
C1086 C1074 1.349 . S
C1086 H1080 0.950 . S
C1086 C1087 1.327 . S
C1087 H1081 0.950 . S
C1087 C1086 1.327 . S
C1087 C1091 1.429 . S
C1088 C1071 1.574 . S
C1088 H1082 0.949 . S
C1088 C1092 1.368 . S
C1089 C1070 1.429 . S
C1089 C1083 1.429 . S
C1089 C1090 1.523 . S
C1090 C1071 1.368 . S
C1090 C1084 1.368 . S
C1090 C1089 1.523 . S
C1091 C1075 1.429 . S
C1091 C1087 1.429 . S
C1091 C1092 1.523 . S
C1092 C1076 1.368 . S
C1092 C1088 1.368 . S
C1092 C1091 1.523 . S
H1093 C1068 0.950 . S
H1094 C1070 0.950 . S
H1095 C1071 0.949 . S
H1096 C1073 0.950 . S
H1097 C1075 0.950 . S
C1098 C1099 1.349 . S
C1098 C1100 1.327 . S
C1098 H1123 0.950 . S
C1099 C1098 1.349 . S
C1099 C1115 1.349 . S
C1100 C1098 1.327 . S
C1100 C1119 1.429 . S
C1100 H1124 0.950 . S
C1101 C1118 1.574 . S
C1101 C1120 1.368 . S
C1101 H1125 0.949 . S
H1102 C1106 0.949 . S
C1103 C1104 1.349 . S
C1103 C1105 1.327 . S
C1103 H1126 0.950 . S
C1104 C1103 1.349 . S
C1104 C1116 1.349 . S
C1105 C1103 1.327 . S
C1105 C1121 1.429 . S
C1105 H1127 0.950 . S
C1106 H1102 0.949 . S
C1106 C1114 1.574 1_554 S
C1106 C1122 1.368 . S
H1107 C1115 0.950 . S
H1108 C1113 0.950 1_554 S
H1109 C1114 0.949 . S
H1110 C1116 0.950 . S
H1111 C1117 0.950 . S
H1112 C1118 0.949 . S
C1113 H1108 0.950 1_556 S
C1113 C1115 1.327 . S
C1113 C1119 1.429 . S
C1114 C1106 1.574 1_556 S
C1114 H1109 0.949 . S
C1114 C1120 1.368 1_556 S
C1115 C1099 1.349 . S
C1115 H1107 0.950 . S
C1115 C1113 1.327 . S
C1116 C1104 1.349 . S
C1116 H1110 0.950 . S
C1116 C1117 1.327 . S
C1117 H1111 0.950 . S
C1117 C1116 1.327 . S
C1117 C1121 1.429 . S
C1118 C1101 1.574 . S
C1118 H1112 0.949 . S
C1118 C1122 1.368 . S
C1119 C1100 1.429 . S
C1119 C1113 1.429 . S
C1119 C1120 1.523 1_556 S
C1120 C1101 1.368 . S
C1120 C1114 1.368 1_554 S
C1120 C1119 1.523 1_554 S
C1121 C1105 1.429 . S
C1121 C1117 1.429 . S
C1121 C1122 1.523 . S
C1122 C1106 1.368 . S
C1122 C1118 1.368 . S
C1122 C1121 1.523 . S
H1123 C1098 0.950 . S
H1124 C1100 0.950 . S
H1125 C1101 0.949 . S
H1126 C1103 0.950 . S
H1127 C1105 0.950 . S
C1128 C1129 1.349 . S
C1128 C1130 1.327 . S
C1128 H1153 0.950 . S
C1129 C1128 1.349 . S
C1129 C1145 1.349 . S
C1130 C1128 1.327 . S
C1130 C1149 1.429 . S
C1130 H1154 0.950 . S
C1131 C1148 1.574 . S
C1131 C1150 1.368 . S
C1131 H1155 0.949 . S
H1132 C1136 0.949 . S
C1133 C1134 1.349 . S
C1133 C1135 1.327 . S
C1133 H1156 0.950 . S
C1134 C1133 1.349 . S
C1134 C1146 1.349 . S
C1135 C1133 1.327 . S
C1135 C1151 1.429 . S
C1135 H1157 0.950 . S
C1136 H1132 0.949 . S
C1136 C1144 1.574 . S
C1136 C1152 1.368 . S
H1137 C1145 0.950 . S
H1138 C1143 0.950 . S
H1139 C1144 0.949 . S
H1140 C1146 0.950 . S
H1141 C1147 0.950 . S
H1142 C1148 0.949 . S
C1143 H1138 0.950 . S
C1143 C1145 1.327 . S
C1143 C1149 1.429 . S
C1144 C1136 1.574 . S
C1144 H1139 0.949 . S
C1144 C1150 1.368 . S
C1145 C1129 1.349 . S
C1145 H1137 0.950 . S
C1145 C1143 1.327 . S
C1146 C1134 1.349 . S
C1146 H1140 0.950 . S
C1146 C1147 1.327 . S
C1147 H1141 0.950 . S
C1147 C1146 1.327 . S
C1147 C1151 1.429 . S
C1148 C1131 1.574 . S
C1148 H1142 0.949 . S
C1148 C1152 1.368 . S
C1149 C1130 1.429 . S
C1149 C1143 1.429 . S
C1149 C1150 1.523 . S
C1150 C1131 1.368 . S
C1150 C1144 1.368 . S
C1150 C1149 1.523 . S
C1151 C1135 1.429 . S
C1151 C1147 1.429 . S
C1151 C1152 1.523 . S
C1152 C1136 1.368 . S
C1152 C1148 1.368 . S
C1152 C1151 1.523 . S
H1153 C1128 0.950 . S
H1154 C1130 0.950 . S
H1155 C1131 0.949 . S
H1156 C1133 0.950 . S
H1157 C1135 0.950 . S
C1158 C1159 1.349 . S
C1158 C1160 1.327 . S
C1158 H1183 0.950 . S
C1159 C1158 1.349 . S
C1159 C1175 1.349 . S
C1160 C1158 1.327 . S
C1160 C1179 1.429 . S
C1160 H1184 0.950 . S
C1161 C1178 1.574 . S
C1161 C1180 1.368 . S
C1161 H1185 0.949 . S
H1162 C1166 0.949 . S
C1163 C1164 1.349 . S
C1163 C1165 1.327 . S
C1163 H1186 0.950 . S
C1164 C1163 1.349 . S
C1164 C1176 1.349 . S
C1165 C1163 1.327 . S
C1165 C1181 1.429 . S
C1165 H1187 0.950 . S
C1166 H1162 0.949 . S
C1166 C1174 1.574 . S
C1166 C1182 1.368 . S
H1167 C1175 0.950 . S
H1168 C1173 0.950 . S
H1169 C1174 0.949 . S
H1170 C1176 0.950 . S
H1171 C1177 0.950 . S
H1172 C1178 0.949 . S
C1173 H1168 0.950 . S
C1173 C1175 1.327 . S
C1173 C1179 1.429 . S
C1174 C1166 1.574 . S
C1174 H1169 0.949 . S
C1174 C1180 1.368 . S
C1175 C1159 1.349 . S
C1175 H1167 0.950 . S
C1175 C1173 1.327 . S
C1176 C1164 1.349 . S
C1176 H1170 0.950 . S
C1176 C1177 1.327 . S
C1177 H1171 0.950 . S
C1177 C1176 1.327 . S
C1177 C1181 1.429 . S
C1178 C1161 1.574 . S
C1178 H1172 0.949 . S
C1178 C1182 1.368 . S
C1179 C1160 1.429 . S
C1179 C1173 1.429 . S
C1179 C1180 1.523 . S
C1180 C1161 1.368 . S
C1180 C1174 1.368 . S
C1180 C1179 1.523 . S
C1181 C1165 1.429 . S
C1181 C1177 1.429 . S
C1181 C1182 1.523 . S
C1182 C1166 1.368 . S
C1182 C1178 1.368 . S
C1182 C1181 1.523 . S
H1183 C1158 0.950 . S
H1184 C1160 0.950 . S
H1185 C1161 0.949 . S
H1186 C1163 0.950 . S
H1187 C1165 0.950 . S
C1188 C1189 1.349 . S
C1188 C1190 1.327 . S
C1188 H1213 0.950 . S
C1189 C1188 1.349 . S
C1189 C1205 1.349 . S
C1190 C1188 1.327 . S
C1190 C1209 1.429 . S
C1190 H1214 0.950 . S
C1191 C1208 1.574 . S
C1191 C1210 1.368 . S
C1191 H1215 0.949 . S
H1192 C1196 0.949 . S
C1193 C1194 1.349 . S
C1193 C1195 1.327 . S
C1193 H1216 0.950 . S
C1194 C1193 1.349 . S
C1194 C1206 1.349 . S
C1195 C1193 1.327 . S
C1195 C1211 1.429 . S
C1195 H1217 0.950 . S
C1196 H1192 0.949 . S
C1196 C1204 1.574 . S
C1196 C1212 1.368 . S
H1197 C1205 0.950 . S
H1198 C1203 0.950 . S
H1199 C1204 0.949 . S
H1200 C1206 0.950 . S
H1201 C1207 0.950 . S
H1202 C1208 0.949 . S
C1203 H1198 0.950 . S
C1203 C1205 1.327 . S
C1203 C1209 1.429 . S
C1204 C1196 1.574 . S
C1204 H1199 0.949 . S
C1204 C1210 1.368 . S
C1205 C1189 1.349 . S
C1205 H1197 0.950 . S
C1205 C1203 1.327 . S
C1206 C1194 1.349 . S
C1206 H1200 0.950 . S
C1206 C1207 1.327 . S
C1207 H1201 0.950 . S
C1207 C1206 1.327 . S
C1207 C1211 1.429 . S
C1208 C1191 1.574 . S
C1208 H1202 0.949 . S
C1208 C1212 1.368 . S
C1209 C1190 1.429 . S
C1209 C1203 1.429 . S
C1209 C1210 1.523 . S
C1210 C1191 1.368 . S
C1210 C1204 1.368 . S
C1210 C1209 1.523 . S
C1211 C1195 1.429 . S
C1211 C1207 1.429 . S
C1211 C1212 1.523 . S
C1212 C1196 1.368 . S
C1212 C1208 1.368 . S
C1212 C1211 1.523 . S
H1213 C1188 0.950 . S
H1214 C1190 0.950 . S
H1215 C1191 0.949 . S
H1216 C1193 0.950 . S
H1217 C1195 0.950 . S
C1218 C1219 1.349 . S
C1218 C1220 1.327 . S
C1218 H1243 0.950 . S
C1219 C1218 1.349 . S
C1219 C1235 1.349 . S
C1220 C1218 1.327 . S
C1220 C1239 1.429 . S
C1220 H1244 0.950 1_655 S
C1221 C1238 1.574 1_655 S
C1221 C1240 1.368 1_656 S
C1221 H1245 0.949 . S
H1222 C1226 0.949 . S
C1223 C1224 1.349 . S
C1223 C1225 1.327 . S
C1223 H1246 0.950 . S
C1224 C1223 1.349 . S
C1224 C1236 1.349 . S
C1225 C1223 1.327 . S
C1225 C1241 1.429 . S
C1225 H1247 0.950 . S
C1226 H1222 0.949 . S
C1226 C1234 1.574 . S
C1226 C1242 1.368 1_554 S
H1227 C1235 0.950 . S
H1228 C1233 0.950 . S
H1229 C1234 0.949 . S
H1230 C1236 0.950 . S
H1231 C1237 0.950 . S
H1232 C1238 0.949 . S
C1233 H1228 0.950 . S
C1233 C1235 1.327 . S
C1233 C1239 1.429 . S
C1234 C1226 1.574 . S
C1234 H1229 0.949 . S
C1234 C1240 1.368 . S
C1235 C1219 1.349 . S
C1235 H1227 0.950 . S
C1235 C1233 1.327 . S
C1236 C1224 1.349 . S
C1236 H1230 0.950 . S
C1236 C1237 1.327 . S
C1237 H1231 0.950 . S
C1237 C1236 1.327 . S
C1237 C1241 1.429 . S
C1238 C1221 1.574 1_455 S
C1238 H1232 0.949 . S
C1238 C1242 1.368 . S
C1239 C1220 1.429 . S
C1239 C1233 1.429 . S
C1239 C1240 1.523 1_655 S
C1240 C1221 1.368 1_454 S
C1240 C1234 1.368 . S
C1240 C1239 1.523 1_455 S
C1241 C1225 1.429 . S
C1241 C1237 1.429 . S
C1241 C1242 1.523 . S
C1242 C1226 1.368 1_556 S
C1242 C1238 1.368 . S
C1242 C1241 1.523 . S
H1243 C1218 0.950 . S
H1244 C1220 0.950 1_455 S
H1245 C1221 0.949 . S
H1246 C1223 0.950 . S
H1247 C1225 0.950 . S
C1248 C1249 1.349 . S
C1248 C1250 1.327 . S
C1248 H1273 0.950 . S
C1249 C1248 1.349 . S
C1249 C1265 1.349 . S
C1250 C1248 1.327 . S
C1250 C1269 1.429 . S
C1250 H1274 0.950 . S
C1251 C1268 1.574 . S
C1251 C1270 1.368 . S
C1251 H1275 0.949 . S
H1252 C1256 0.949 . S
C1253 C1254 1.349 . S
C1253 C1255 1.327 . S
C1253 H1276 0.950 . S
C1254 C1253 1.349 . S
C1254 C1266 1.349 . S
C1255 C1253 1.327 . S
C1255 C1271 1.429 . S
C1255 H1277 0.950 . S
C1256 H1252 0.949 . S
C1256 C1264 1.574 . S
C1256 C1272 1.368 . S
H1257 C1265 0.950 . S
H1258 C1263 0.950 . S
H1259 C1264 0.949 . S
H1260 C1266 0.950 . S
H1261 C1267 0.950 . S
H1262 C1268 0.949 . S
C1263 H1258 0.950 . S
C1263 C1265 1.327 . S
C1263 C1269 1.429 . S
C1264 C1256 1.574 . S
C1264 H1259 0.949 . S
C1264 C1270 1.368 . S
C1265 C1249 1.349 . S
C1265 H1257 0.950 . S
C1265 C1263 1.327 . S
C1266 C1254 1.349 . S
C1266 H1260 0.950 . S
C1266 C1267 1.327 . S
C1267 H1261 0.950 . S
C1267 C1266 1.327 . S
C1267 C1271 1.429 . S
C1268 C1251 1.574 . S
C1268 H1262 0.949 . S
C1268 C1272 1.368 . S
C1269 C1250 1.429 . S
C1269 C1263 1.429 . S
C1269 C1270 1.523 . S
C1270 C1251 1.368 . S
C1270 C1264 1.368 . S
C1270 C1269 1.523 . S
C1271 C1255 1.429 . S
C1271 C1267 1.429 . S
C1271 C1272 1.523 . S
C1272 C1256 1.368 . S
C1272 C1268 1.368 . S
C1272 C1271 1.523 . S
H1273 C1248 0.950 . S
H1274 C1250 0.950 . S
H1275 C1251 0.949 . S
H1276 C1253 0.950 . S
H1277 C1255 0.950 . S
C1278 C1279 1.349 . S
C1278 C1280 1.327 . S
C1278 H1303 0.950 . S
C1279 C1278 1.349 . S
C1279 C1295 1.349 . S
C1280 C1278 1.327 . S
C1280 C1299 1.429 . S
C1280 H1304 0.950 . S
C1281 C1298 1.574 . S
C1281 C1300 1.368 . S
C1281 H1305 0.949 . S
H1282 C1286 0.949 . S
C1283 C1284 1.349 . S
C1283 C1285 1.327 . S
C1283 H1306 0.950 . S
C1284 C1283 1.349 . S
C1284 C1296 1.349 . S
C1285 C1283 1.327 . S
C1285 C1301 1.429 . S
C1285 H1307 0.950 . S
C1286 H1282 0.949 . S
C1286 C1294 1.574 . S
C1286 C1302 1.368 . S
H1287 C1295 0.950 . S
H1288 C1293 0.950 . S
H1289 C1294 0.949 . S
H1290 C1296 0.950 . S
H1291 C1297 0.950 . S
H1292 C1298 0.949 . S
C1293 H1288 0.950 . S
C1293 C1295 1.327 . S
C1293 C1299 1.429 . S
C1294 C1286 1.574 . S
C1294 H1289 0.949 . S
C1294 C1300 1.368 . S
C1295 C1279 1.349 . S
C1295 H1287 0.950 . S
C1295 C1293 1.327 . S
C1296 C1284 1.349 . S
C1296 H1290 0.950 . S
C1296 C1297 1.327 . S
C1297 H1291 0.950 . S
C1297 C1296 1.327 . S
C1297 C1301 1.429 . S
C1298 C1281 1.574 . S
C1298 H1292 0.949 . S
C1298 C1302 1.368 . S
C1299 C1280 1.429 . S
C1299 C1293 1.429 . S
C1299 C1300 1.523 . S
C1300 C1281 1.368 . S
C1300 C1294 1.368 . S
C1300 C1299 1.523 . S
C1301 C1285 1.429 . S
C1301 C1297 1.429 . S
C1301 C1302 1.523 . S
C1302 C1286 1.368 . S
C1302 C1298 1.368 . S
C1302 C1301 1.523 . S
H1303 C1278 0.950 . S
H1304 C1280 0.950 . S
H1305 C1281 0.949 . S
H1306 C1283 0.950 . S
H1307 C1285 0.950 . S
C1308 C1309 1.349 . S
C1308 C1310 1.327 . S
C1308 H1333 0.950 . S
C1309 C1308 1.349 . S
C1309 C1325 1.349 . S
C1310 C1308 1.327 . S
C1310 C1329 1.429 . S
C1310 H1334 0.950 . S
C1311 C1328 1.574 . S
C1311 C1330 1.368 . S
C1311 H1335 0.949 . S
H1312 C1316 0.949 . S
C1313 C1314 1.349 . S
C1313 C1315 1.327 . S
C1313 H1336 0.950 . S
C1314 C1313 1.349 . S
C1314 C1326 1.349 . S
C1315 C1313 1.327 . S
C1315 C1331 1.429 . S
C1315 H1337 0.950 . S
C1316 H1312 0.949 . S
C1316 C1324 1.574 . S
C1316 C1332 1.368 . S
H1317 C1325 0.950 . S
H1318 C1323 0.950 1_554 S
H1319 C1324 0.949 1_556 S
H1320 C1326 0.950 . S
H1321 C1327 0.950 . S
H1322 C1328 0.949 . S
C1323 H1318 0.950 1_556 S
C1323 C1325 1.327 . S
C1323 C1329 1.429 . S
C1324 C1316 1.574 . S
C1324 H1319 0.949 1_554 S
C1324 C1330 1.368 . S
C1325 C1309 1.349 . S
C1325 H1317 0.950 . S
C1325 C1323 1.327 . S
C1326 C1314 1.349 . S
C1326 H1320 0.950 . S
C1326 C1327 1.327 . S
C1327 H1321 0.950 . S
C1327 C1326 1.327 . S
C1327 C1331 1.429 . S
C1328 C1311 1.574 . S
C1328 H1322 0.949 . S
C1328 C1332 1.368 . S
C1329 C1310 1.429 . S
C1329 C1323 1.429 . S
C1329 C1330 1.523 1_556 S
C1330 C1311 1.368 . S
C1330 C1324 1.368 . S
C1330 C1329 1.523 1_554 S
C1331 C1315 1.429 . S
C1331 C1327 1.429 . S
C1331 C1332 1.523 . S
C1332 C1316 1.368 . S
C1332 C1328 1.368 . S
C1332 C1331 1.523 . S
H1333 C1308 0.950 . S
H1334 C1310 0.950 . S
H1335 C1311 0.949 . S
H1336 C1313 0.950 . S
H1337 C1315 0.950 . S
C1338 C1339 1.349 . S
C1338 C1340 1.327 . S
C1338 H1363 0.950 . S
C1339 C1338 1.349 . S
C1339 C1355 1.349 . S
C1340 C1338 1.327 . S
C1340 C1359 1.429 . S
C1340 H1364 0.950 . S
C1341 C1358 1.574 . S
C1341 C1360 1.368 . S
C1341 H1365 0.949 . S
H1342 C1346 0.949 . S
C1343 C1344 1.349 . S
C1343 C1345 1.327 . S
C1343 H1366 0.950 . S
C1344 C1343 1.349 . S
C1344 C1356 1.349 . S
C1345 C1343 1.327 . S
C1345 C1361 1.429 . S
C1345 H1367 0.950 . S
C1346 H1342 0.949 . S
C1346 C1354 1.574 . S
C1346 C1362 1.368 . S
H1347 C1355 0.950 . S
H1348 C1353 0.950 . S
H1349 C1354 0.949 . S
H1350 C1356 0.950 . S
H1351 C1357 0.950 . S
H1352 C1358 0.949 . S
C1353 H1348 0.950 . S
C1353 C1355 1.327 . S
C1353 C1359 1.429 . S
C1354 C1346 1.574 . S
C1354 H1349 0.949 . S
C1354 C1360 1.368 . S
C1355 C1339 1.349 . S
C1355 H1347 0.950 . S
C1355 C1353 1.327 . S
C1356 C1344 1.349 . S
C1356 H1350 0.950 . S
C1356 C1357 1.327 . S
C1357 H1351 0.950 . S
C1357 C1356 1.327 . S
C1357 C1361 1.429 . S
C1358 C1341 1.574 . S
C1358 H1352 0.949 . S
C1358 C1362 1.368 . S
C1359 C1340 1.429 . S
C1359 C1353 1.429 . S
C1359 C1360 1.523 . S
C1360 C1341 1.368 . S
C1360 C1354 1.368 . S
C1360 C1359 1.523 . S
C1361 C1345 1.429 . S
C1361 C1357 1.429 . S
C1361 C1362 1.523 . S
C1362 C1346 1.368 . S
C1362 C1358 1.368 . S
C1362 C1361 1.523 . S
H1363 C1338 0.950 . S
H1364 C1340 0.950 . S
H1365 C1341 0.949 . S
H1366 C1343 0.950 . S
H1367 C1345 0.950 . S
C1368 C1369 1.349 . S
C1368 C1370 1.327 . S
C1368 H1393 0.950 . S
C1369 C1368 1.349 . S
C1369 C1385 1.349 . S
C1370 C1368 1.327 . S
C1370 C1389 1.429 . S
C1370 H1394 0.950 1_556 S
C1371 C1388 1.574 1_556 S
C1371 C1390 1.368 1_566 S
C1371 H1395 0.949 . S
H1372 C1376 0.952 . S
C1373 C1374 1.349 . S
C1373 C1375 1.327 . S
C1373 H1396 0.950 . S
C1374 C1373 1.349 . S
C1374 C1386 1.349 . S
C1375 C1373 1.327 . S
C1375 C1391 1.429 . S
C1375 H1397 0.950 . S
C1376 H1372 0.952 . S
C1376 C1384 1.590 . S
C1376 C1392 1.349 1_545 S
H1377 C1385 0.950 . S
H1378 C1383 0.950 . S
H1379 C1384 0.949 . S
H1380 C1386 0.950 . S
H1381 C1387 0.950 . S
H1382 C1388 0.949 . S
C1383 H1378 0.950 . S
C1383 C1385 1.327 . S
C1383 C1389 1.429 . S
C1384 C1376 1.590 . S
C1384 H1379 0.949 . S
C1384 C1390 1.368 . S
C1385 C1369 1.349 . S
C1385 H1377 0.950 . S
C1385 C1383 1.327 . S
C1386 C1374 1.349 . S
C1386 H1380 0.950 . S
C1386 C1387 1.327 . S
C1387 H1381 0.950 . S
C1387 C1386 1.327 . S
C1387 C1391 1.429 . S
C1388 C1371 1.574 1_554 S
C1388 H1382 0.949 . S
C1388 C1392 1.368 . S
C1389 C1370 1.429 . S
C1389 C1383 1.429 . S
C1389 C1390 1.523 1_556 S
C1390 C1371 1.368 1_544 S
C1390 C1384 1.368 . S
C1390 C1389 1.523 1_554 S
C1391 C1375 1.429 . S
C1391 C1387 1.429 . S
C1391 C1392 1.523 . S
C1392 C1376 1.349 1_565 S
C1392 C1388 1.368 . S
C1392 C1391 1.523 . S
H1393 C1368 0.950 . S
H1394 C1370 0.950 1_554 S
H1395 C1371 0.949 . S
H1396 C1373 0.950 . S
H1397 C1375 0.950 . S
C1398 C1399 1.349 . S
C1398 C1400 1.327 . S
C1398 H1423 0.950 . S
C1399 C1398 1.349 . S
C1399 C1415 1.349 . S
C1400 C1398 1.327 . S
C1400 C1419 1.429 . S
C1400 H1424 0.950 . S
C1401 C1418 1.574 . S
C1401 C1420 1.368 . S
C1401 H1425 0.949 . S
H1402 C1406 0.949 . S
C1403 C1404 1.349 . S
C1403 C1405 1.327 . S
C1403 H1426 0.950 . S
C1404 C1403 1.349 . S
C1404 C1416 1.349 . S
C1405 C1403 1.327 . S
C1405 C1421 1.429 . S
C1405 H1427 0.950 . S
C1406 H1402 0.949 . S
C1406 C1414 1.574 . S
C1406 C1422 1.368 . S
H1407 C1415 0.950 . S
H1408 C1413 0.950 . S
H1409 C1414 0.949 . S
H1410 C1416 0.950 . S
H1411 C1417 0.950 . S
H1412 C1418 0.949 . S
C1413 H1408 0.950 . S
C1413 C1415 1.327 . S
C1413 C1419 1.429 . S
C1414 C1406 1.574 . S
C1414 H1409 0.949 . S
C1414 C1420 1.368 . S
C1415 C1399 1.349 . S
C1415 H1407 0.950 . S
C1415 C1413 1.327 . S
C1416 C1404 1.349 . S
C1416 H1410 0.950 . S
C1416 C1417 1.327 . S
C1417 H1411 0.950 . S
C1417 C1416 1.327 . S
C1417 C1421 1.429 . S
C1418 C1401 1.574 . S
C1418 H1412 0.949 . S
C1418 C1422 1.368 . S
C1419 C1400 1.429 . S
C1419 C1413 1.429 . S
C1419 C1420 1.523 . S
C1420 C1401 1.368 . S
C1420 C1414 1.368 . S
C1420 C1419 1.523 . S
C1421 C1405 1.429 . S
C1421 C1417 1.429 . S
C1421 C1422 1.523 . S
C1422 C1406 1.368 . S
C1422 C1418 1.368 . S
C1422 C1421 1.523 . S
H1423 C1398 0.950 . S
H1424 C1400 0.950 . S
H1425 C1401 0.949 . S
H1426 C1403 0.950 . S
H1427 C1405 0.950 . S
C1428 C1429 1.349 . S
C1428 C1430 1.327 . S
C1428 H1453 0.950 . S
C1429 C1428 1.349 . S
C1429 C1445 1.349 . S
C1430 C1428 1.327 . S
C1430 C1449 1.429 . S
C1430 H1454 0.950 . S
C1431 C1448 1.574 . S
C1431 C1450 1.368 . S
C1431 H1455 0.949 . S
H1432 C1436 0.949 . S
C1433 C1434 1.349 . S
C1433 C1435 1.327 . S
C1433 H1456 0.950 . S
C1434 C1433 1.349 . S
C1434 C1446 1.349 . S
C1435 C1433 1.327 . S
C1435 C1451 1.429 . S
C1435 H1457 0.950 . S
C1436 H1432 0.949 . S
C1436 C1444 1.574 . S
C1436 C1452 1.368 . S
H1437 C1445 0.950 . S
H1438 C1443 0.950 . S
H1439 C1444 0.949 . S
H1440 C1446 0.950 . S
H1441 C1447 0.950 . S
H1442 C1448 0.949 . S
C1443 H1438 0.950 . S
C1443 C1445 1.327 . S
C1443 C1449 1.429 . S
C1444 C1436 1.574 . S
C1444 H1439 0.949 . S
C1444 C1450 1.368 . S
C1445 C1429 1.349 . S
C1445 H1437 0.950 . S
C1445 C1443 1.327 . S
C1446 C1434 1.349 . S
C1446 H1440 0.950 . S
C1446 C1447 1.327 . S
C1447 H1441 0.950 . S
C1447 C1446 1.327 . S
C1447 C1451 1.429 . S
C1448 C1431 1.574 . S
C1448 H1442 0.949 . S
C1448 C1452 1.368 . S
C1449 C1430 1.429 . S
C1449 C1443 1.429 . S
C1449 C1450 1.523 . S
C1450 C1431 1.368 . S
C1450 C1444 1.368 . S
C1450 C1449 1.523 . S
C1451 C1435 1.429 . S
C1451 C1447 1.429 . S
C1451 C1452 1.523 . S
C1452 C1436 1.368 . S
C1452 C1448 1.368 . S
C1452 C1451 1.523 . S
H1453 C1428 0.950 . S
H1454 C1430 0.950 . S
H1455 C1431 0.949 . S
H1456 C1433 0.950 . S
H1457 C1435 0.950 . S
C1458 C1459 1.349 . S
C1458 C1460 1.327 . S
C1458 H1483 0.950 . S
C1459 C1458 1.349 . S
C1459 C1475 1.349 . S
C1460 C1458 1.327 . S
C1460 C1479 1.429 . S
C1460 H1484 0.950 . S
C1461 C1478 1.574 . S
C1461 C1480 1.368 1_556 S
C1461 H1485 0.949 . S
H1462 C1466 0.949 . S
C1463 C1464 1.349 . S
C1463 C1465 1.327 . S
C1463 H1486 0.950 . S
C1464 C1463 1.349 . S
C1464 C1476 1.349 . S
C1465 C1463 1.327 . S
C1465 C1481 1.429 . S
C1465 H1487 0.950 . S
C1466 H1462 0.949 . S
C1466 C1474 1.574 1_556 S
C1466 C1482 1.368 . S
H1467 C1475 0.950 . S
H1468 C1473 0.950 . S
H1469 C1474 0.949 . S
H1470 C1476 0.950 . S
H1471 C1477 0.950 . S
H1472 C1478 0.949 . S
C1473 H1468 0.950 . S
C1473 C1475 1.327 . S
C1473 C1479 1.429 . S
C1474 C1466 1.574 1_554 S
C1474 H1469 0.949 . S
C1474 C1480 1.368 . S
C1475 C1459 1.349 . S
C1475 H1467 0.950 . S
C1475 C1473 1.327 . S
C1476 C1464 1.349 . S
C1476 H1470 0.950 . S
C1476 C1477 1.327 . S
C1477 H1471 0.950 . S
C1477 C1476 1.327 . S
C1477 C1481 1.429 . S
C1478 C1461 1.574 . S
C1478 H1472 0.949 . S
C1478 C1482 1.368 . S
C1479 C1460 1.429 . S
C1479 C1473 1.429 . S
C1479 C1480 1.523 . S
C1480 C1461 1.368 1_554 S
C1480 C1474 1.368 . S
C1480 C1479 1.523 . S
C1481 C1465 1.429 . S
C1481 C1477 1.429 . S
C1481 C1482 1.523 . S
C1482 C1466 1.368 . S
C1482 C1478 1.368 . S
C1482 C1481 1.523 . S
H1483 C1458 0.950 . S
H1484 C1460 0.950 . S
H1485 C1461 0.949 . S
H1486 C1463 0.950 . S
H1487 C1465 0.950 . S
C1488 C1489 1.349 . S
C1488 C1490 1.327 . S
C1488 H1513 0.950 . S
C1489 C1488 1.349 . S
C1489 C1505 1.349 . S
C1490 C1488 1.327 . S
C1490 C1509 1.429 . S
C1490 H1514 0.950 . S
C1491 C1508 1.574 . S
C1491 C1510 1.368 . S
C1491 H1515 0.949 . S
H1492 C1496 0.949 . S
C1493 C1494 1.349 . S
C1493 C1495 1.327 . S
C1493 H1516 0.950 . S
C1494 C1493 1.349 . S
C1494 C1506 1.349 . S
C1495 C1493 1.327 . S
C1495 C1511 1.429 . S
C1495 H1517 0.950 . S
C1496 H1492 0.949 . S
C1496 C1504 1.574 . S
C1496 C1512 1.368 . S
H1497 C1505 0.950 . S
H1498 C1503 0.950 . S
H1499 C1504 0.949 . S
H1500 C1506 0.950 . S
H1501 C1507 0.950 . S
H1502 C1508 0.949 . S
C1503 H1498 0.950 . S
C1503 C1505 1.327 . S
C1503 C1509 1.429 . S
C1504 C1496 1.574 . S
C1504 H1499 0.949 . S
C1504 C1510 1.368 . S
C1505 C1489 1.349 . S
C1505 H1497 0.950 . S
C1505 C1503 1.327 . S
C1506 C1494 1.349 . S
C1506 H1500 0.950 . S
C1506 C1507 1.327 . S
C1507 H1501 0.950 . S
C1507 C1506 1.327 . S
C1507 C1511 1.429 . S
C1508 C1491 1.574 . S
C1508 H1502 0.949 . S
C1508 C1512 1.368 . S
C1509 C1490 1.429 . S
C1509 C1503 1.429 . S
C1509 C1510 1.523 . S
C1510 C1491 1.368 . S
C1510 C1504 1.368 . S
C1510 C1509 1.523 . S
C1511 C1495 1.429 . S
C1511 C1507 1.429 . S
C1511 C1512 1.523 . S
C1512 C1496 1.368 . S
C1512 C1508 1.368 . S
C1512 C1511 1.523 . S
H1513 C1488 0.950 . S
H1514 C1490 0.950 . S
H1515 C1491 0.949 . S
H1516 C1493 0.950 . S
H1517 C1495 0.950 . S
C1518 C1519 1.349 . S
C1518 C1520 1.327 . S
C1518 H1543 0.950 . S
C1519 C1518 1.349 . S
C1519 C1535 1.349 . S
C1520 C1518 1.327 . S
C1520 C1539 1.429 . S
C1520 H1544 0.950 . S
C1521 C1538 1.574 . S
C1521 C1540 1.368 . S
C1521 H1545 0.949 . S
H1522 C1526 0.949 . S
C1523 C1524 1.349 . S
C1523 C1525 1.327 . S
C1523 H1546 0.950 . S
C1524 C1523 1.349 . S
C1524 C1536 1.349 . S
C1525 C1523 1.327 . S
C1525 C1541 1.429 . S
C1525 H1547 0.950 . S
C1526 H1522 0.949 . S
C1526 C1534 1.574 . S
C1526 C1542 1.368 . S
H1527 C1535 0.950 . S
H1528 C1533 0.950 . S
H1529 C1534 0.949 . S
H1530 C1536 0.950 . S
H1531 C1537 0.950 . S
H1532 C1538 0.949 . S
C1533 H1528 0.950 . S
C1533 C1535 1.327 . S
C1533 C1539 1.429 . S
C1534 C1526 1.574 . S
C1534 H1529 0.949 . S
C1534 C1540 1.368 . S
C1535 C1519 1.349 . S
C1535 H1527 0.950 . S
C1535 C1533 1.327 . S
C1536 C1524 1.349 . S
C1536 H1530 0.950 . S
C1536 C1537 1.327 . S
C1537 H1531 0.950 . S
C1537 C1536 1.327 . S
C1537 C1541 1.429 . S
C1538 C1521 1.574 . S
C1538 H1532 0.949 . S
C1538 C1542 1.368 . S
C1539 C1520 1.429 . S
C1539 C1533 1.429 . S
C1539 C1540 1.523 . S
C1540 C1521 1.368 . S
C1540 C1534 1.368 . S
C1540 C1539 1.523 . S
C1541 C1525 1.429 . S
C1541 C1537 1.429 . S
C1541 C1542 1.523 . S
C1542 C1526 1.368 . S
C1542 C1538 1.368 . S
C1542 C1541 1.523 . S
H1543 C1518 0.950 . S
H1544 C1520 0.950 . S
H1545 C1521 0.949 . S
H1546 C1523 0.950 . S
H1547 C1525 0.950 . S
C1548 C1549 1.349 . S
C1548 C1550 1.327 . S
C1548 H1573 0.950 . S
C1549 C1548 1.349 . S
C1549 C1565 1.349 . S
C1550 C1548 1.327 . S
C1550 C1569 1.429 . S
C1550 H1574 0.950 . S
C1551 C1568 1.574 . S
C1551 C1570 1.368 . S
C1551 H1575 0.949 . S
H1552 C1556 0.949 . S
C1553 C1554 1.349 . S
C1553 C1555 1.327 . S
C1553 H1576 0.950 . S
C1554 C1553 1.349 . S
C1554 C1566 1.349 . S
C1555 C1553 1.327 . S
C1555 C1571 1.429 . S
C1555 H1577 0.950 . S
C1556 H1552 0.949 . S
C1556 C1564 1.574 . S
C1556 C1572 1.368 . S
H1557 C1565 0.950 . S
H1558 C1563 0.950 . S
H1559 C1564 0.949 . S
H1560 C1566 0.950 . S
H1561 C1567 0.950 . S
H1562 C1568 0.949 . S
C1563 H1558 0.950 . S
C1563 C1565 1.327 . S
C1563 C1569 1.429 . S
C1564 C1556 1.574 . S
C1564 H1559 0.949 . S
C1564 C1570 1.368 . S
C1565 C1549 1.349 . S
C1565 H1557 0.950 . S
C1565 C1563 1.327 . S
C1566 C1554 1.349 . S
C1566 H1560 0.950 . S
C1566 C1567 1.327 . S
C1567 H1561 0.950 . S
C1567 C1566 1.327 . S
C1567 C1571 1.429 . S
C1568 C1551 1.574 . S
C1568 H1562 0.949 . S
C1568 C1572 1.368 . S
C1569 C1550 1.429 . S
C1569 C1563 1.429 . S
C1569 C1570 1.523 . S
C1570 C1551 1.368 . S
C1570 C1564 1.368 . S
C1570 C1569 1.523 . S
C1571 C1555 1.429 . S
C1571 C1567 1.429 . S
C1571 C1572 1.523 . S
C1572 C1556 1.368 . S
C1572 C1568 1.368 . S
C1572 C1571 1.523 . S
H1573 C1548 0.950 . S
H1574 C1550 0.950 . S
H1575 C1551 0.949 . S
H1576 C1553 0.950 . S
H1577 C1555 0.950 . S
C1578 C1579 1.349 . S
C1578 C1580 1.327 . S
C1578 H1603 0.950 . S
C1579 C1578 1.349 . S
C1579 C1595 1.349 . S
C1580 C1578 1.327 . S
C1580 C1599 1.429 . S
C1580 H1604 0.950 . S
C1581 C1598 1.572 . S
C1581 C1600 1.368 . S
C1581 H1605 0.949 . S
H1582 C1586 0.949 . S
C1583 C1584 1.349 . S
C1583 C1585 1.327 . S
C1583 H1606 0.950 . S
C1584 C1583 1.349 . S
C1584 C1596 1.349 . S
C1585 C1583 1.327 . S
C1585 C1601 1.429 . S
C1585 H1607 0.950 . S
C1586 H1582 0.949 . S
C1586 C1594 1.574 . S
C1586 C1602 1.368 . S
H1587 C1595 0.950 . S
H1588 C1593 0.950 . S
H1589 C1594 0.949 . S
H1590 C1596 0.950 . S
H1591 C1597 0.941 1_455 S
H1592 C1598 0.951 1_655 S
C1593 H1588 0.950 . S
C1593 C1595 1.327 . S
C1593 C1599 1.429 . S
C1594 C1586 1.574 . S
C1594 H1589 0.949 . S
C1594 C1600 1.368 . S
C1595 C1579 1.349 . S
C1595 H1587 0.950 . S
C1595 C1593 1.327 . S
C1596 C1584 1.349 . S
C1596 H1590 0.950 . S
C1596 C1597 1.327 . S
C1597 H1591 0.941 1_655 S
C1597 C1596 1.327 . S
C1597 C1601 1.429 . S
C1598 C1581 1.572 . S
C1598 H1592 0.951 1_455 S
C1598 C1602 1.368 . S
C1599 C1580 1.429 . S
C1599 C1593 1.429 . S
C1599 C1600 1.523 . S
C1600 C1581 1.368 . S
C1600 C1594 1.368 . S
C1600 C1599 1.523 . S
C1601 C1585 1.429 . S
C1601 C1597 1.429 . S
C1601 C1602 1.523 1_655 S
C1602 C1586 1.368 . S
C1602 C1598 1.368 . S
C1602 C1601 1.523 1_455 S
H1603 C1578 0.950 . S
H1604 C1580 0.950 . S
H1605 C1581 0.949 . S
H1606 C1583 0.950 . S
H1607 C1585 0.950 . S
C1608 C1609 1.349 . S
C1608 C1610 1.327 . S
C1608 H1633 0.950 . S
C1609 C1608 1.349 . S
C1609 C1625 1.349 . S
C1610 C1608 1.327 . S
C1610 C1629 1.429 . S
C1610 H1634 0.950 . S
C1611 C1628 1.574 . S
C1611 C1630 1.368 . S
C1611 H1635 0.949 . S
H1612 C1616 0.949 . S
C1613 C1614 1.349 . S
C1613 C1615 1.327 . S
C1613 H1636 0.950 . S
C1614 C1613 1.349 . S
C1614 C1626 1.349 . S
C1615 C1613 1.327 . S
C1615 C1631 1.429 . S
C1615 H1637 0.950 . S
C1616 H1612 0.949 . S
C1616 C1624 1.574 . S
C1616 C1632 1.368 . S
H1617 C1625 0.950 . S
H1618 C1623 0.950 . S
H1619 C1624 0.949 . S
H1620 C1626 0.950 . S
H1621 C1627 0.950 . S
H1622 C1628 0.949 . S
C1623 H1618 0.950 . S
C1623 C1625 1.327 . S
C1623 C1629 1.429 . S
C1624 C1616 1.574 . S
C1624 H1619 0.949 . S
C1624 C1630 1.368 . S
C1625 C1609 1.349 . S
C1625 H1617 0.950 . S
C1625 C1623 1.327 . S
C1626 C1614 1.349 . S
C1626 H1620 0.950 . S
C1626 C1627 1.327 . S
C1627 H1621 0.950 . S
C1627 C1626 1.327 . S
C1627 C1631 1.429 . S
C1628 C1611 1.574 . S
C1628 H1622 0.949 . S
C1628 C1632 1.368 . S
C1629 C1610 1.429 . S
C1629 C1623 1.429 . S
C1629 C1630 1.523 . S
C1630 C1611 1.368 . S
C1630 C1624 1.368 . S
C1630 C1629 1.523 . S
C1631 C1615 1.429 . S
C1631 C1627 1.429 . S
C1631 C1632 1.523 . S
C1632 C1616 1.368 . S
C1632 C1628 1.368 . S
C1632 C1631 1.523 . S
H1633 C1608 0.950 . S
H1634 C1610 0.950 . S
H1635 C1611 0.949 . S
H1636 C1613 0.950 . S
H1637 C1615 0.950 . S
C1638 C1639 1.349 . S
C1638 C1640 1.327 . S
C1638 H1663 0.950 . S
C1639 C1638 1.349 . S
C1639 C1655 1.349 . S
C1640 C1638 1.327 . S
C1640 C1659 1.429 . S
C1640 H1664 0.950 . S
C1641 C1658 1.574 . S
C1641 C1660 1.368 . S
C1641 H1665 0.949 . S
H1642 C1646 0.949 . S
C1643 C1644 1.349 . S
C1643 C1645 1.327 . S
C1643 H1666 0.950 . S
C1644 C1643 1.349 . S
C1644 C1656 1.349 . S
C1645 C1643 1.327 . S
C1645 C1661 1.429 . S
C1645 H1667 0.950 . S
C1646 H1642 0.949 . S
C1646 C1654 1.571 1_455 S
C1646 C1662 1.368 . S
H1647 C1655 0.950 . S
H1648 C1653 0.950 1_455 S
H1649 C1654 0.952 . S
H1650 C1656 0.950 . S
H1651 C1657 0.950 . S
H1652 C1658 0.949 . S
C1653 H1648 0.950 1_655 S
C1653 C1655 1.327 . S
C1653 C1659 1.429 . S
C1654 C1646 1.571 1_655 S
C1654 H1649 0.952 . S
C1654 C1660 1.367 1_655 S
C1655 C1639 1.349 . S
C1655 H1647 0.950 . S
C1655 C1653 1.327 . S
C1656 C1644 1.349 . S
C1656 H1650 0.950 . S
C1656 C1657 1.327 . S
C1657 H1651 0.950 . S
C1657 C1656 1.327 . S
C1657 C1661 1.429 . S
C1658 C1641 1.574 . S
C1658 H1652 0.949 . S
C1658 C1662 1.368 . S
C1659 C1640 1.429 . S
C1659 C1653 1.429 . S
C1659 C1660 1.523 1_655 S
C1660 C1641 1.368 . S
C1660 C1654 1.367 1_455 S
C1660 C1659 1.523 1_455 S
C1661 C1645 1.429 . S
C1661 C1657 1.429 . S
C1661 C1662 1.523 . S
C1662 C1646 1.368 . S
C1662 C1658 1.368 . S
C1662 C1661 1.523 . S
H1663 C1638 0.950 . S
H1664 C1640 0.950 . S
H1665 C1641 0.949 . S
H1666 C1643 0.950 . S
H1667 C1645 0.950 . S
C1668 C1669 1.349 . S
C1668 C1670 1.327 . S
C1668 H1693 0.950 . S
C1669 C1668 1.349 . S
C1669 C1685 1.349 . S
C1670 C1668 1.327 . S
C1670 C1689 1.429 . S
C1670 H1694 0.950 . S
C1671 C1688 1.574 . S
C1671 C1690 1.368 . S
C1671 H1695 0.949 . S
H1672 C1676 0.949 . S
C1673 C1674 1.349 . S
C1673 C1675 1.327 . S
C1673 H1696 0.950 . S
C1674 C1673 1.349 . S
C1674 C1686 1.349 . S
C1675 C1673 1.327 . S
C1675 C1691 1.429 . S
C1675 H1697 0.950 . S
C1676 H1672 0.949 . S
C1676 C1684 1.574 . S
C1676 C1692 1.368 . S
H1677 C1685 0.950 . S
H1678 C1683 0.950 . S
H1679 C1684 0.949 . S
H1680 C1686 0.950 . S
H1681 C1687 0.950 . S
H1682 C1688 0.949 . S
C1683 H1678 0.950 . S
C1683 C1685 1.327 . S
C1683 C1689 1.429 . S
C1684 C1676 1.574 . S
C1684 H1679 0.949 . S
C1684 C1690 1.368 . S
C1685 C1669 1.349 . S
C1685 H1677 0.950 . S
C1685 C1683 1.327 . S
C1686 C1674 1.349 . S
C1686 H1680 0.950 . S
C1686 C1687 1.327 . S
C1687 H1681 0.950 . S
C1687 C1686 1.327 . S
C1687 C1691 1.429 . S
C1688 C1671 1.574 . S
C1688 H1682 0.949 . S
C1688 C1692 1.368 . S
C1689 C1670 1.429 . S
C1689 C1683 1.429 . S
C1689 C1690 1.523 . S
C1690 C1671 1.368 . S
C1690 C1684 1.368 . S
C1690 C1689 1.523 . S
C1691 C1675 1.429 . S
C1691 C1687 1.429 . S
C1691 C1692 1.523 . S
C1692 C1676 1.368 . S
C1692 C1688 1.368 . S
C1692 C1691 1.523 . S
H1693 C1668 0.950 . S
H1694 C1670 0.950 . S
H1695 C1671 0.949 . S
H1696 C1673 0.950 . S
H1697 C1675 0.950 . S
C1698 C1699 1.349 . S
C1698 C1700 1.327 . S
C1698 H1723 0.950 . S
C1699 C1698 1.349 . S
C1699 C1715 1.349 . S
C1700 C1698 1.327 . S
C1700 C1719 1.429 . S
C1700 H1724 0.950 . S
C1701 C1718 1.574 . S
C1701 C1720 1.368 . S
C1701 H1725 0.949 . S
H1702 C1706 0.949 . S
C1703 C1704 1.349 . S
C1703 C1705 1.327 . S
C1703 H1726 0.950 . S
C1704 C1703 1.349 . S
C1704 C1716 1.349 . S
C1705 C1703 1.327 . S
C1705 C1721 1.429 . S
C1705 H1727 0.950 . S
C1706 H1702 0.949 . S
C1706 C1714 1.574 . S
C1706 C1722 1.368 . S
H1707 C1715 0.950 . S
H1708 C1713 0.950 . S
H1709 C1714 0.949 . S
H1710 C1716 0.950 . S
H1711 C1717 0.950 . S
H1712 C1718 0.949 . S
C1713 H1708 0.950 . S
C1713 C1715 1.327 . S
C1713 C1719 1.429 . S
C1714 C1706 1.574 . S
C1714 H1709 0.949 . S
C1714 C1720 1.368 . S
C1715 C1699 1.349 . S
C1715 H1707 0.950 . S
C1715 C1713 1.327 . S
C1716 C1704 1.349 . S
C1716 H1710 0.950 . S
C1716 C1717 1.327 . S
C1717 H1711 0.950 . S
C1717 C1716 1.327 . S
C1717 C1721 1.429 . S
C1718 C1701 1.574 . S
C1718 H1712 0.949 . S
C1718 C1722 1.368 . S
C1719 C1700 1.429 . S
C1719 C1713 1.429 . S
C1719 C1720 1.523 . S
C1720 C1701 1.368 . S
C1720 C1714 1.368 . S
C1720 C1719 1.523 . S
C1721 C1705 1.429 . S
C1721 C1717 1.429 . S
C1721 C1722 1.523 . S
C1722 C1706 1.368 . S
C1722 C1718 1.368 . S
C1722 C1721 1.523 . S
H1723 C1698 0.950 . S
H1724 C1700 0.950 . S
H1725 C1701 0.949 . S
H1726 C1703 0.950 . S
H1727 C1705 0.950 . S
C1728 C1729 1.349 . S
C1728 C1730 1.327 . S
C1728 H1753 0.950 . S
C1729 C1728 1.349 . S
C1729 C1745 1.349 . S
C1730 C1728 1.327 . S
C1730 C1749 1.429 . S
C1730 H1754 0.950 . S
C1731 C1748 1.574 . S
C1731 C1750 1.368 . S
C1731 H1755 0.949 . S
H1732 C1736 0.949 . S
C1733 C1734 1.349 . S
C1733 C1735 1.327 . S
C1733 H1756 0.950 . S
C1734 C1733 1.349 . S
C1734 C1746 1.349 . S
C1735 C1733 1.327 . S
C1735 C1751 1.429 . S
C1735 H1757 0.950 . S
C1736 H1732 0.949 . S
C1736 C1744 1.574 . S
C1736 C1752 1.368 . S
H1737 C1745 0.950 . S
H1738 C1743 0.950 . S
H1739 C1744 0.949 . S
H1740 C1746 0.950 . S
H1741 C1747 0.950 . S
H1742 C1748 0.949 . S
C1743 H1738 0.950 . S
C1743 C1745 1.327 . S
C1743 C1749 1.429 . S
C1744 C1736 1.574 . S
C1744 H1739 0.949 . S
C1744 C1750 1.368 . S
C1745 C1729 1.349 . S
C1745 H1737 0.950 . S
C1745 C1743 1.327 . S
C1746 C1734 1.349 . S
C1746 H1740 0.950 . S
C1746 C1747 1.327 . S
C1747 H1741 0.950 . S
C1747 C1746 1.327 . S
C1747 C1751 1.429 . S
C1748 C1731 1.574 . S
C1748 H1742 0.949 . S
C1748 C1752 1.368 . S
C1749 C1730 1.429 . S
C1749 C1743 1.429 . S
C1749 C1750 1.523 . S
C1750 C1731 1.368 . S
C1750 C1744 1.368 . S
C1750 C1749 1.523 . S
C1751 C1735 1.429 . S
C1751 C1747 1.429 . S
C1751 C1752 1.523 . S
C1752 C1736 1.368 . S
C1752 C1748 1.368 . S
C1752 C1751 1.523 . S
H1753 C1728 0.950 . S
H1754 C1730 0.950 . S
H1755 C1731 0.949 . S
H1756 C1733 0.950 . S
H1757 C1735 0.950 . S
C1758 C1759 1.349 . S
C1758 C1760 1.327 . S
C1758 H1783 0.950 . S
C1759 C1758 1.349 . S
C1759 C1775 1.349 . S
C1760 C1758 1.327 . S
C1760 C1779 1.429 . S
C1760 H1784 0.950 . S
C1761 C1778 1.574 . S
C1761 C1780 1.368 . S
C1761 H1785 0.949 . S
H1762 C1766 0.949 1_556 S
C1763 C1764 1.349 . S
C1763 C1765 1.327 . S
C1763 H1786 0.950 . S
C1764 C1763 1.349 . S
C1764 C1776 1.349 . S
C1765 C1763 1.327 . S
C1765 C1781 1.429 . S
C1765 H1787 0.950 . S
C1766 H1762 0.949 1_554 S
C1766 C1774 1.574 . S
C1766 C1782 1.368 . S
H1767 C1775 0.950 . S
H1768 C1773 0.950 . S
H1769 C1774 0.949 . S
H1770 C1776 0.950 . S
H1771 C1777 0.950 . S
H1772 C1778 0.949 . S
C1773 H1768 0.950 . S
C1773 C1775 1.327 . S
C1773 C1779 1.429 . S
C1774 C1766 1.574 . S
C1774 H1769 0.949 . S
C1774 C1780 1.368 . S
C1775 C1759 1.349 . S
C1775 H1767 0.950 . S
C1775 C1773 1.327 . S
C1776 C1764 1.349 . S
C1776 H1770 0.950 . S
C1776 C1777 1.327 . S
C1777 H1771 0.950 . S
C1777 C1776 1.327 . S
C1777 C1781 1.429 . S
C1778 C1761 1.574 . S
C1778 H1772 0.949 . S
C1778 C1782 1.368 . S
C1779 C1760 1.429 . S
C1779 C1773 1.429 . S
C1779 C1780 1.523 . S
C1780 C1761 1.368 . S
C1780 C1774 1.368 . S
C1780 C1779 1.523 . S
C1781 C1765 1.429 . S
C1781 C1777 1.429 . S
C1781 C1782 1.523 1_556 S
C1782 C1766 1.368 . S
C1782 C1778 1.368 . S
C1782 C1781 1.523 1_554 S
H1783 C1758 0.950 . S
H1784 C1760 0.950 . S
H1785 C1761 0.949 . S
H1786 C1763 0.950 . S
H1787 C1765 0.950 . S
C1788 C1789 1.349 . S
C1788 C1790 1.327 . S
C1788 H1813 0.950 . S
C1789 C1788 1.349 . S
C1789 C1805 1.349 . S
C1790 C1788 1.327 . S
C1790 C1809 1.429 . S
C1790 H1814 0.950 . S
C1791 C1808 1.574 . S
C1791 C1810 1.368 . S
C1791 H1815 0.949 . S
H1792 C1796 0.949 . S
C1793 C1794 1.349 . S
C1793 C1795 1.327 . S
C1793 H1816 0.950 . S
C1794 C1793 1.349 . S
C1794 C1806 1.349 . S
C1795 C1793 1.327 . S
C1795 C1811 1.429 . S
C1795 H1817 0.950 . S
C1796 H1792 0.949 . S
C1796 C1804 1.574 . S
C1796 C1812 1.368 . S
H1797 C1805 0.950 . S
H1798 C1803 0.950 . S
H1799 C1804 0.949 . S
H1800 C1806 0.950 . S
H1801 C1807 0.950 . S
H1802 C1808 0.949 . S
C1803 H1798 0.950 . S
C1803 C1805 1.327 . S
C1803 C1809 1.429 . S
C1804 C1796 1.574 . S
C1804 H1799 0.949 . S
C1804 C1810 1.368 . S
C1805 C1789 1.349 . S
C1805 H1797 0.950 . S
C1805 C1803 1.327 . S
C1806 C1794 1.349 . S
C1806 H1800 0.950 . S
C1806 C1807 1.327 . S
C1807 H1801 0.950 . S
C1807 C1806 1.327 . S
C1807 C1811 1.429 . S
C1808 C1791 1.574 . S
C1808 H1802 0.949 . S
C1808 C1812 1.368 . S
C1809 C1790 1.429 . S
C1809 C1803 1.429 . S
C1809 C1810 1.523 . S
C1810 C1791 1.368 . S
C1810 C1804 1.368 . S
C1810 C1809 1.523 . S
C1811 C1795 1.429 . S
C1811 C1807 1.429 . S
C1811 C1812 1.523 . S
C1812 C1796 1.368 . S
C1812 C1808 1.368 . S
C1812 C1811 1.523 . S
H1813 C1788 0.950 . S
H1814 C1790 0.950 . S
H1815 C1791 0.949 . S
H1816 C1793 0.950 . S
H1817 C1795 0.950 . S
C1818 C1819 1.349 . S
C1818 C1820 1.327 . S
C1818 H1843 0.950 . S
C1819 C1818 1.349 . S
C1819 C1835 1.349 . S
C1820 C1818 1.327 . S
C1820 C1839 1.429 . S
C1820 H1844 0.950 . S
C1821 C1838 1.574 . S
C1821 C1840 1.368 1_655 S
C1821 H1845 0.949 . S
H1822 C1826 0.949 . S
C1823 C1824 1.349 . S
C1823 C1825 1.327 . S
C1823 H1846 0.950 . S
C1824 C1823 1.349 . S
C1824 C1836 1.349 . S
C1825 C1823 1.327 . S
C1825 C1841 1.429 . S
C1825 H1847 0.950 . S
C1826 H1822 0.949 . S
C1826 C1834 1.574 1_655 S
C1826 C1842 1.368 . S
H1827 C1835 0.950 . S
H1828 C1833 0.950 . S
H1829 C1834 0.949 . S
H1830 C1836 0.950 . S
H1831 C1837 0.950 . S
H1832 C1838 0.949 . S
C1833 H1828 0.950 . S
C1833 C1835 1.327 . S
C1833 C1839 1.429 . S
C1834 C1826 1.574 1_455 S
C1834 H1829 0.949 . S
C1834 C1840 1.368 . S
C1835 C1819 1.349 . S
C1835 H1827 0.950 . S
C1835 C1833 1.327 . S
C1836 C1824 1.349 . S
C1836 H1830 0.950 . S
C1836 C1837 1.327 . S
C1837 H1831 0.950 . S
C1837 C1836 1.327 . S
C1837 C1841 1.429 . S
C1838 C1821 1.574 . S
C1838 H1832 0.949 . S
C1838 C1842 1.368 . S
C1839 C1820 1.429 . S
C1839 C1833 1.429 . S
C1839 C1840 1.523 . S
C1840 C1821 1.368 1_455 S
C1840 C1834 1.368 . S
C1840 C1839 1.523 . S
C1841 C1825 1.429 . S
C1841 C1837 1.429 . S
C1841 C1842 1.523 . S
C1842 C1826 1.368 . S
C1842 C1838 1.368 . S
C1842 C1841 1.523 . S
H1843 C1818 0.950 . S
H1844 C1820 0.950 . S
H1845 C1821 0.949 . S
H1846 C1823 0.950 . S
H1847 C1825 0.950 . S
C1848 C1849 1.349 . S
C1848 C1850 1.327 . S
C1848 H1873 0.950 . S
C1849 C1848 1.349 . S
C1849 C1865 1.349 . S
C1850 C1848 1.327 . S
C1850 C1869 1.429 . S
C1850 H1874 0.950 . S
C1851 C1868 1.574 . S
C1851 C1870 1.368 . S
C1851 H1875 0.949 . S
H1852 C1856 0.949 . S
C1853 C1854 1.349 . S
C1853 C1855 1.327 . S
C1853 H1876 0.950 . S
C1854 C1853 1.349 . S
C1854 C1866 1.349 . S
C1855 C1853 1.327 . S
C1855 C1871 1.429 . S
C1855 H1877 0.950 . S
C1856 H1852 0.949 . S
C1856 C1864 1.574 . S
C1856 C1872 1.368 . S
H1857 C1865 0.950 . S
H1858 C1863 0.950 . S
H1859 C1864 0.949 . S
H1860 C1866 0.950 . S
H1861 C1867 0.950 . S
H1862 C1868 0.949 . S
C1863 H1858 0.950 . S
C1863 C1865 1.327 . S
C1863 C1869 1.429 . S
C1864 C1856 1.574 . S
C1864 H1859 0.949 . S
C1864 C1870 1.368 . S
C1865 C1849 1.349 . S
C1865 H1857 0.950 . S
C1865 C1863 1.327 . S
C1866 C1854 1.349 . S
C1866 H1860 0.950 . S
C1866 C1867 1.327 . S
C1867 H1861 0.950 . S
C1867 C1866 1.327 . S
C1867 C1871 1.429 . S
C1868 C1851 1.574 . S
C1868 H1862 0.949 . S
C1868 C1872 1.368 . S
C1869 C1850 1.429 . S
C1869 C1863 1.429 . S
C1869 C1870 1.523 . S
C1870 C1851 1.368 . S
C1870 C1864 1.368 . S
C1870 C1869 1.523 . S
C1871 C1855 1.429 . S
C1871 C1867 1.429 . S
C1871 C1872 1.523 . S
C1872 C1856 1.368 . S
C1872 C1868 1.368 . S
C1872 C1871 1.523 . S
H1873 C1848 0.950 . S
H1874 C1850 0.950 . S
H1875 C1851 0.949 . S
H1876 C1853 0.950 . S
H1877 C1855 0.950 . S
C1878 C1879 1.349 . S
C1878 C1880 1.327 . S
C1878 H1903 0.950 . S
C1879 C1878 1.349 . S
C1879 C1895 1.349 . S
C1880 C1878 1.327 . S
C1880 C1899 1.429 . S
C1880 H1904 0.950 . S
C1881 C1898 1.574 1_655 S
C1881 C1900 1.368 . S
C1881 H1905 0.949 . S
H1882 C1886 0.929 1_554 S
C1883 C1884 1.349 . S
C1883 C1885 1.327 . S
C1883 H1906 0.950 . S
C1884 C1883 1.349 . S
C1884 C1896 1.349 . S
C1885 C1883 1.327 . S
C1885 C1901 1.429 . S
C1885 H1907 0.950 . S
C1886 H1882 0.929 1_556 S
C1886 C1894 1.574 . S
C1886 C1902 1.368 1_655 S
H1887 C1895 0.950 . S
H1888 C1893 0.950 . S
H1889 C1894 0.949 . S
H1890 C1896 0.950 . S
H1891 C1897 0.950 . S
H1892 C1898 0.949 . S
C1893 H1888 0.950 . S
C1893 C1895 1.327 . S
C1893 C1899 1.429 . S
C1894 C1886 1.574 . S
C1894 H1889 0.949 . S
C1894 C1900 1.368 . S
C1895 C1879 1.349 . S
C1895 H1887 0.950 . S
C1895 C1893 1.327 . S
C1896 C1884 1.349 . S
C1896 H1890 0.950 . S
C1896 C1897 1.327 . S
C1897 H1891 0.950 . S
C1897 C1896 1.327 . S
C1897 C1901 1.429 . S
C1898 C1881 1.574 1_455 S
C1898 H1892 0.949 . S
C1898 C1902 1.368 . S
C1899 C1880 1.429 . S
C1899 C1893 1.429 . S
C1899 C1900 1.523 . S
C1900 C1881 1.368 . S
C1900 C1894 1.368 . S
C1900 C1899 1.523 . S
C1901 C1885 1.429 . S
C1901 C1897 1.429 . S
C1901 C1902 1.523 1_554 S
C1902 C1886 1.368 1_455 S
C1902 C1898 1.368 . S
C1902 C1901 1.523 1_556 S
H1903 C1878 0.950 . S
H1904 C1880 0.950 . S
H1905 C1881 0.949 . S
H1906 C1883 0.950 . S
H1907 C1885 0.950 . S
C1908 C1909 1.349 . S
C1908 C1910 1.327 . S
C1908 H1933 0.950 . S
C1909 C1908 1.349 . S
C1909 C1925 1.349 . S
C1910 C1908 1.327 . S
C1910 C1929 1.429 . S
C1910 H1934 0.950 . S
C1911 C1928 1.574 . S
C1911 C1930 1.368 . S
C1911 H1935 0.949 . S
H1912 C1916 0.949 . S
C1913 C1914 1.349 . S
C1913 C1915 1.327 . S
C1913 H1936 0.950 . S
C1914 C1913 1.349 . S
C1914 C1926 1.349 . S
C1915 C1913 1.327 . S
C1915 C1931 1.429 . S
C1915 H1937 0.950 . S
C1916 H1912 0.949 . S
C1916 C1924 1.574 . S
C1916 C1932 1.368 . S
H1917 C1925 0.950 . S
H1918 C1923 0.950 . S
H1919 C1924 0.949 . S
H1920 C1926 0.950 . S
H1921 C1927 0.950 . S
H1922 C1928 0.949 . S
C1923 H1918 0.950 . S
C1923 C1925 1.327 . S
C1923 C1929 1.429 . S
C1924 C1916 1.574 . S
C1924 H1919 0.949 . S
C1924 C1930 1.368 . S
C1925 C1909 1.349 . S
C1925 H1917 0.950 . S
C1925 C1923 1.327 . S
C1926 C1914 1.349 . S
C1926 H1920 0.950 . S
C1926 C1927 1.327 . S
C1927 H1921 0.950 . S
C1927 C1926 1.327 . S
C1927 C1931 1.429 . S
C1928 C1911 1.574 . S
C1928 H1922 0.949 . S
C1928 C1932 1.368 . S
C1929 C1910 1.429 . S
C1929 C1923 1.429 . S
C1929 C1930 1.523 . S
C1930 C1911 1.368 . S
C1930 C1924 1.368 . S
C1930 C1929 1.523 . S
C1931 C1915 1.429 . S
C1931 C1927 1.429 . S
C1931 C1932 1.523 . S
C1932 C1916 1.368 . S
C1932 C1928 1.368 . S
C1932 C1931 1.523 . S
H1933 C1908 0.950 . S
H1934 C1910 0.950 . S
H1935 C1911 0.949 . S
H1936 C1913 0.950 . S
H1937 C1915 0.950 . S
C1938 C1939 1.349 . S
C1938 C1940 1.327 . S
C1938 H1963 0.950 . S
C1939 C1938 1.349 . S
C1939 C1955 1.349 . S
C1940 C1938 1.327 . S
C1940 C1959 1.429 . S
C1940 H1964 0.950 . S
C1941 C1958 1.574 . S
C1941 C1960 1.368 . S
C1941 H1965 0.949 . S
H1942 C1946 0.949 . S
C1943 C1944 1.349 . S
C1943 C1945 1.327 . S
C1943 H1966 0.950 . S
C1944 C1943 1.349 . S
C1944 C1956 1.349 . S
C1945 C1943 1.327 . S
C1945 C1961 1.429 . S
C1945 H1967 0.950 . S
C1946 H1942 0.949 . S
C1946 C1954 1.574 . S
C1946 C1962 1.368 . S
H1947 C1955 0.950 . S
H1948 C1953 0.950 . S
H1949 C1954 0.949 . S
H1950 C1956 0.950 . S
H1951 C1957 0.950 . S
H1952 C1958 0.949 . S
C1953 H1948 0.950 . S
C1953 C1955 1.327 . S
C1953 C1959 1.429 . S
C1954 C1946 1.574 . S
C1954 H1949 0.949 . S
C1954 C1960 1.368 . S
C1955 C1939 1.349 . S
C1955 H1947 0.950 . S
C1955 C1953 1.327 . S
C1956 C1944 1.349 . S
C1956 H1950 0.950 . S
C1956 C1957 1.327 . S
C1957 H1951 0.950 . S
C1957 C1956 1.327 . S
C1957 C1961 1.429 . S
C1958 C1941 1.574 . S
C1958 H1952 0.949 . S
C1958 C1962 1.368 . S
C1959 C1940 1.429 . S
C1959 C1953 1.429 . S
C1959 C1960 1.523 . S
C1960 C1941 1.368 . S
C1960 C1954 1.368 . S
C1960 C1959 1.523 . S
C1961 C1945 1.429 . S
C1961 C1957 1.429 . S
C1961 C1962 1.523 . S
C1962 C1946 1.368 . S
C1962 C1958 1.368 . S
C1962 C1961 1.523 . S
H1963 C1938 0.950 . S
H1964 C1940 0.950 . S
H1965 C1941 0.949 . S
H1966 C1943 0.950 . S
H1967 C1945 0.950 . S
C1968 C1969 1.349 . S
C1968 C1970 1.327 . S
C1968 H1993 0.950 . S
C1969 C1968 1.349 . S
C1969 C1985 1.349 . S
C1970 C1968 1.327 . S
C1970 C1989 1.429 . S
C1970 H1994 0.950 . S
C1971 C1988 1.574 . S
C1971 C1990 1.368 . S
C1971 H1995 0.949 . S
H1972 C1976 0.949 . S
C1973 C1974 1.349 . S
C1973 C1975 1.327 . S
C1973 H1996 0.950 . S
C1974 C1973 1.349 . S
C1974 C1986 1.349 . S
C1975 C1973 1.327 . S
C1975 C1991 1.429 . S
C1975 H1997 0.950 . S
C1976 H1972 0.949 . S
C1976 C1984 1.574 . S
C1976 C1992 1.368 . S
H1977 C1985 0.950 . S
H1978 C1983 0.950 . S
H1979 C1984 0.949 . S
H1980 C1986 0.950 . S
H1981 C1987 0.950 . S
H1982 C1988 0.949 . S
C1983 H1978 0.950 . S
C1983 C1985 1.327 . S
C1983 C1989 1.429 . S
C1984 C1976 1.574 . S
C1984 H1979 0.949 . S
C1984 C1990 1.368 . S
C1985 C1969 1.349 . S
C1985 H1977 0.950 . S
C1985 C1983 1.327 . S
C1986 C1974 1.349 . S
C1986 H1980 0.950 . S
C1986 C1987 1.327 . S
C1987 H1981 0.950 . S
C1987 C1986 1.327 . S
C1987 C1991 1.429 . S
C1988 C1971 1.574 . S
C1988 H1982 0.949 . S
C1988 C1992 1.368 . S
C1989 C1970 1.429 . S
C1989 C1983 1.429 . S
C1989 C1990 1.523 . S
C1990 C1971 1.368 . S
C1990 C1984 1.368 . S
C1990 C1989 1.523 . S
C1991 C1975 1.429 . S
C1991 C1987 1.429 . S
C1991 C1992 1.523 . S
C1992 C1976 1.368 . S
C1992 C1988 1.368 . S
C1992 C1991 1.523 . S
H1993 C1968 0.950 . S
H1994 C1970 0.950 . S
H1995 C1971 0.949 . S
H1996 C1973 0.950 . S
H1997 C1975 0.950 . S
C1998 C1999 1.349 . S
C1998 C2000 1.327 . S
C1998 H2023 0.950 . S
C1999 C1998 1.349 . S
C1999 C2015 1.349 . S
C2000 C1998 1.327 . S
C2000 C2019 1.429 . S
C2000 H2024 0.950 . S
C2001 C2018 1.574 . S
C2001 C2020 1.368 . S
C2001 H2025 0.949 . S
H2002 C2006 0.949 . S
C2003 C2004 1.349 . S
C2003 C2005 1.327 . S
C2003 H2026 0.950 . S
C2004 C2003 1.349 . S
C2004 C2016 1.349 . S
C2005 C2003 1.327 . S
C2005 C2021 1.429 . S
C2005 H2027 0.950 . S
C2006 H2002 0.949 . S
C2006 C2014 1.574 . S
C2006 C2022 1.368 . S
H2007 C2015 0.950 . S
H2008 C2013 0.950 . S
H2009 C2014 0.949 . S
H2010 C2016 0.950 . S
H2011 C2017 0.950 . S
H2012 C2018 0.949 . S
C2013 H2008 0.950 . S
C2013 C2015 1.327 . S
C2013 C2019 1.429 . S
C2014 C2006 1.574 . S
C2014 H2009 0.949 . S
C2014 C2020 1.368 . S
C2015 C1999 1.349 . S
C2015 H2007 0.950 . S
C2015 C2013 1.327 . S
C2016 C2004 1.349 . S
C2016 H2010 0.950 . S
C2016 C2017 1.327 . S
C2017 H2011 0.950 . S
C2017 C2016 1.327 . S
C2017 C2021 1.429 . S
C2018 C2001 1.574 . S
C2018 H2012 0.949 . S
C2018 C2022 1.368 . S
C2019 C2000 1.429 . S
C2019 C2013 1.429 . S
C2019 C2020 1.523 . S
C2020 C2001 1.368 . S
C2020 C2014 1.368 . S
C2020 C2019 1.523 . S
C2021 C2005 1.429 . S
C2021 C2017 1.429 . S
C2021 C2022 1.523 . S
C2022 C2006 1.368 . S
C2022 C2018 1.368 . S
C2022 C2021 1.523 . S
H2023 C1998 0.950 . S
H2024 C2000 0.950 . S
H2025 C2001 0.949 . S
H2026 C2003 0.950 . S
H2027 C2005 0.950 . S
C2028 C2029 1.349 . S
C2028 C2030 1.327 . S
C2028 H2053 0.950 . S
C2029 C2028 1.349 . S
C2029 C2045 1.349 . S
C2030 C2028 1.327 . S
C2030 C2049 1.429 . S
C2030 H2054 0.950 . S
C2031 C2048 1.574 . S
C2031 C2050 1.368 . S
C2031 H2055 0.949 . S
H2032 C2036 0.949 . S
C2033 C2034 1.349 . S
C2033 C2035 1.327 . S
C2033 H2056 0.950 . S
C2034 C2033 1.349 . S
C2034 C2046 1.349 . S
C2035 C2033 1.327 . S
C2035 C2051 1.429 . S
C2035 H2057 0.950 . S
C2036 H2032 0.949 . S
C2036 C2044 1.574 . S
C2036 C2052 1.368 . S
H2037 C2045 0.950 . S
H2038 C2043 0.950 . S
H2039 C2044 0.949 . S
H2040 C2046 0.950 . S
H2041 C2047 0.950 . S
H2042 C2048 0.949 . S
C2043 H2038 0.950 . S
C2043 C2045 1.327 . S
C2043 C2049 1.429 . S
C2044 C2036 1.574 . S
C2044 H2039 0.949 . S
C2044 C2050 1.368 1_565 S
C2045 C2029 1.349 . S
C2045 H2037 0.950 . S
C2045 C2043 1.327 . S
C2046 C2034 1.349 . S
C2046 H2040 0.950 . S
C2046 C2047 1.327 . S
C2047 H2041 0.950 . S
C2047 C2046 1.327 . S
C2047 C2051 1.429 . S
C2048 C2031 1.574 . S
C2048 H2042 0.949 . S
C2048 C2052 1.368 1_545 S
C2049 C2030 1.429 . S
C2049 C2043 1.429 . S
C2049 C2050 1.523 . S
C2050 C2031 1.368 . S
C2050 C2044 1.368 1_545 S
C2050 C2049 1.523 . S
C2051 C2035 1.429 . S
C2051 C2047 1.429 . S
C2051 C2052 1.523 . S
C2052 C2036 1.368 . S
C2052 C2048 1.368 1_565 S
C2052 C2051 1.523 . S
H2053 C2028 0.950 . S
H2054 C2030 0.950 . S
H2055 C2031 0.949 . S
H2056 C2033 0.950 . S
H2057 C2035 0.950 . S
C2058 C2059 1.349 . S
C2058 C2060 1.327 . S
C2058 H2083 0.950 . S
C2059 C2058 1.349 . S
C2059 C2075 1.349 . S
C2060 C2058 1.327 . S
C2060 C2079 1.429 . S
C2060 H2084 0.950 . S
C2061 C2078 1.574 . S
C2061 C2080 1.368 . S
C2061 H2085 0.949 . S
H2062 C2066 0.949 . S
C2063 C2064 1.349 . S
C2063 C2065 1.327 . S
C2063 H2086 0.950 . S
C2064 C2063 1.349 . S
C2064 C2076 1.349 . S
C2065 C2063 1.327 . S
C2065 C2081 1.429 . S
C2065 H2087 0.950 . S
C2066 H2062 0.949 . S
C2066 C2074 1.574 . S
C2066 C2082 1.368 . S
H2067 C2075 0.950 . S
H2068 C2073 0.950 . S
H2069 C2074 0.949 . S
H2070 C2076 0.950 . S
H2071 C2077 0.950 . S
H2072 C2078 0.949 . S
C2073 H2068 0.950 . S
C2073 C2075 1.327 . S
C2073 C2079 1.429 . S
C2074 C2066 1.574 . S
C2074 H2069 0.949 . S
C2074 C2080 1.368 . S
C2075 C2059 1.349 . S
C2075 H2067 0.950 . S
C2075 C2073 1.327 . S
C2076 C2064 1.349 . S
C2076 H2070 0.950 . S
C2076 C2077 1.327 . S
C2077 H2071 0.950 . S
C2077 C2076 1.327 . S
C2077 C2081 1.429 . S
C2078 C2061 1.574 . S
C2078 H2072 0.949 . S
C2078 C2082 1.368 . S
C2079 C2060 1.429 . S
C2079 C2073 1.429 . S
C2079 C2080 1.523 . S
C2080 C2061 1.368 . S
C2080 C2074 1.368 . S
C2080 C2079 1.523 . S
C2081 C2065 1.429 . S
C2081 C2077 1.429 . S
C2081 C2082 1.523 . S
C2082 C2066 1.368 . S
C2082 C2078 1.368 . S
C2082 C2081 1.523 . S
H2083 C2058 0.950 . S
H2084 C2060 0.950 . S
H2085 C2061 0.949 . S
H2086 C2063 0.950 . S
H2087 C2065 0.950 . S
C2088 C2089 1.349 . S
C2088 C2090 1.327 . S
C2088 H2113 0.950 . S
C2089 C2088 1.349 . S
C2089 C2105 1.349 . S
C2090 C2088 1.327 . S
C2090 C2109 1.429 . S
C2090 H2114 0.950 . S
C2091 C2108 1.574 . S
C2091 C2110 1.368 . S
C2091 H2115 0.949 . S
H2092 C2096 0.949 . S
C2093 C2094 1.349 . S
C2093 C2095 1.327 . S
C2093 H2116 0.950 . S
C2094 C2093 1.349 . S
C2094 C2106 1.349 . S
C2095 C2093 1.327 . S
C2095 C2111 1.429 . S
C2095 H2117 0.950 . S
C2096 H2092 0.949 . S
C2096 C2104 1.574 . S
C2096 C2112 1.368 . S
H2097 C2105 0.950 . S
H2098 C2103 0.950 . S
H2099 C2104 0.949 . S
H2100 C2106 0.950 . S
H2101 C2107 0.950 . S
H2102 C2108 0.949 . S
C2103 H2098 0.950 . S
C2103 C2105 1.327 . S
C2103 C2109 1.429 . S
C2104 C2096 1.574 . S
C2104 H2099 0.949 . S
C2104 C2110 1.368 . S
C2105 C2089 1.349 . S
C2105 H2097 0.950 . S
C2105 C2103 1.327 . S
C2106 C2094 1.349 . S
C2106 H2100 0.950 . S
C2106 C2107 1.327 . S
C2107 H2101 0.950 . S
C2107 C2106 1.327 . S
C2107 C2111 1.429 . S
C2108 C2091 1.574 . S
C2108 H2102 0.949 . S
C2108 C2112 1.368 . S
C2109 C2090 1.429 . S
C2109 C2103 1.429 . S
C2109 C2110 1.523 . S
C2110 C2091 1.368 . S
C2110 C2104 1.368 . S
C2110 C2109 1.523 . S
C2111 C2095 1.429 . S
C2111 C2107 1.429 . S
C2111 C2112 1.523 . S
C2112 C2096 1.368 . S
C2112 C2108 1.368 . S
C2112 C2111 1.523 . S
H2113 C2088 0.950 . S
H2114 C2090 0.950 . S
H2115 C2091 0.949 . S
H2116 C2093 0.950 . S
H2117 C2095 0.950 . S
C2118 C2119 1.349 . S
C2118 C2120 1.327 . S
C2118 H2143 0.950 . S
C2119 C2118 1.349 . S
C2119 C2135 1.349 . S
C2120 C2118 1.327 . S
C2120 C2139 1.429 . S
C2120 H2144 0.950 . S
C2121 C2138 1.574 . S
C2121 C2140 1.368 . S
C2121 H2145 0.949 . S
H2122 C2126 0.949 . S
C2123 C2124 1.349 . S
C2123 C2125 1.327 . S
C2123 H2146 0.950 . S
C2124 C2123 1.349 . S
C2124 C2136 1.349 . S
C2125 C2123 1.327 . S
C2125 C2141 1.429 . S
C2125 H2147 0.950 . S
C2126 H2122 0.949 . S
C2126 C2134 1.574 . S
C2126 C2142 1.368 . S
H2127 C2135 0.950 . S
H2128 C2133 0.950 . S
H2129 C2134 0.949 . S
H2130 C2136 0.950 . S
H2131 C2137 0.950 . S
H2132 C2138 0.949 . S
C2133 H2128 0.950 . S
C2133 C2135 1.327 . S
C2133 C2139 1.429 . S
C2134 C2126 1.574 . S
C2134 H2129 0.949 . S
C2134 C2140 1.368 . S
C2135 C2119 1.349 . S
C2135 H2127 0.950 . S
C2135 C2133 1.327 . S
C2136 C2124 1.349 . S
C2136 H2130 0.950 . S
C2136 C2137 1.327 . S
C2137 H2131 0.950 . S
C2137 C2136 1.327 . S
C2137 C2141 1.429 . S
C2138 C2121 1.574 . S
C2138 H2132 0.949 . S
C2138 C2142 1.368 . S
C2139 C2120 1.429 . S
C2139 C2133 1.429 . S
C2139 C2140 1.523 . S
C2140 C2121 1.368 . S
C2140 C2134 1.368 . S
C2140 C2139 1.523 . S
C2141 C2125 1.429 . S
C2141 C2137 1.429 . S
C2141 C2142 1.523 . S
C2142 C2126 1.368 . S
C2142 C2138 1.368 . S
C2142 C2141 1.523 . S
H2143 C2118 0.950 . S
H2144 C2120 0.950 . S
H2145 C2121 0.949 . S
H2146 C2123 0.950 . S
H2147 C2125 0.950 . S
C2148 C2149 1.349 . S
C2148 C2150 1.327 . S
C2148 H2173 0.950 . S
C2149 C2148 1.349 . S
C2149 C2165 1.349 . S
C2150 C2148 1.327 . S
C2150 C2169 1.429 . S
C2150 H2174 0.950 . S
C2151 C2168 1.574 . S
C2151 C2170 1.368 . S
C2151 H2175 0.949 . S
H2152 C2156 0.949 . S
C2153 C2154 1.349 . S
C2153 C2155 1.327 . S
C2153 H2176 0.950 . S
C2154 C2153 1.349 . S
C2154 C2166 1.349 . S
C2155 C2153 1.327 . S
C2155 C2171 1.429 . S
C2155 H2177 0.950 . S
C2156 H2152 0.949 . S
C2156 C2164 1.574 . S
C2156 C2172 1.368 . S
H2157 C2165 0.950 . S
H2158 C2163 0.950 . S
H2159 C2164 0.949 . S
H2160 C2166 0.950 . S
H2161 C2167 0.910 1_556 S
H2162 C2168 0.949 1_554 S
C2163 H2158 0.950 . S
C2163 C2165 1.327 . S
C2163 C2169 1.429 . S
C2164 C2156 1.574 . S
C2164 H2159 0.949 . S
C2164 C2170 1.368 1_545 S
C2165 C2149 1.349 . S
C2165 H2157 0.950 . S
C2165 C2163 1.327 . S
C2166 C2154 1.349 . S
C2166 H2160 0.950 . S
C2166 C2167 1.357 . S
C2167 H2161 0.910 1_554 S
C2167 C2166 1.357 . S
C2167 C2171 1.439 . S
C2168 C2151 1.574 . S
C2168 H2162 0.949 1_556 S
C2168 C2172 1.368 1_565 S
C2169 C2150 1.429 . S
C2169 C2163 1.429 . S
C2169 C2170 1.523 . S
C2170 C2151 1.368 . S
C2170 C2164 1.368 1_565 S
C2170 C2169 1.523 . S
C2171 C2155 1.429 . S
C2171 C2167 1.439 . S
C2171 C2172 1.523 1_554 S
C2172 C2156 1.368 . S
C2172 C2168 1.368 1_545 S
C2172 C2171 1.523 1_556 S
H2173 C2148 0.950 . S
H2174 C2150 0.950 . S
H2175 C2151 0.949 . S
H2176 C2153 0.950 . S
H2177 C2155 0.950 . S
C2178 C2179 1.349 . S
C2178 C2180 1.327 . S
C2178 H2203 0.950 . S
C2179 C2178 1.349 . S
C2179 C2195 1.349 . S
C2180 C2178 1.327 . S
C2180 C2199 1.429 . S
C2180 H2204 0.950 . S
C2181 C2198 1.574 . S
C2181 C2200 1.368 . S
C2181 H2205 0.949 . S
H2182 C2186 0.949 . S
C2183 C2184 1.349 . S
C2183 C2185 1.327 . S
C2183 H2206 0.950 . S
C2184 C2183 1.349 . S
C2184 C2196 1.349 . S
C2185 C2183 1.327 . S
C2185 C2201 1.429 . S
C2185 H2207 0.950 . S
C2186 H2182 0.949 . S
C2186 C2194 1.574 . S
C2186 C2202 1.368 . S
H2187 C2195 0.950 . S
H2188 C2193 0.950 . S
H2189 C2194 0.949 . S
H2190 C2196 0.950 . S
H2191 C2197 0.950 . S
H2192 C2198 0.955 . S
C2193 H2188 0.950 . S
C2193 C2195 1.327 . S
C2193 C2199 1.429 . S
C2194 C2186 1.574 . S
C2194 H2189 0.949 . S
C2194 C2200 1.368 . S
C2195 C2179 1.349 . S
C2195 H2187 0.950 . S
C2195 C2193 1.327 . S
C2196 C2184 1.349 . S
C2196 H2190 0.950 . S
C2196 C2197 1.327 . S
C2197 H2191 0.950 . S
C2197 C2196 1.327 . S
C2197 C2201 1.429 . S
C2198 C2181 1.574 . S
C2198 H2192 0.955 . S
C2198 C2202 1.368 . S
C2199 C2180 1.429 . S
C2199 C2193 1.429 . S
C2199 C2200 1.523 . S
C2200 C2181 1.368 . S
C2200 C2194 1.368 . S
C2200 C2199 1.523 . S
C2201 C2185 1.429 . S
C2201 C2197 1.429 . S
C2201 C2202 1.523 1_565 S
C2202 C2186 1.368 . S
C2202 C2198 1.368 . S
C2202 C2201 1.523 1_545 S
H2203 C2178 0.950 . S
H2204 C2180 0.950 . S
H2205 C2181 0.949 . S
H2206 C2183 0.950 . S
H2207 C2185 0.950 . S
C2208 C2209 1.349 . S
C2208 C2210 1.327 . S
C2208 H2233 0.950 . S
C2209 C2208 1.349 . S
C2209 C2225 1.349 . S
C2210 C2208 1.327 . S
C2210 C2229 1.429 . S
C2210 H2234 0.950 . S
C2211 C2228 1.574 . S
C2211 C2230 1.368 . S
C2211 H2235 0.949 . S
H2212 C2216 0.949 . S
C2213 C2214 1.349 . S
C2213 C2215 1.327 . S
C2213 H2236 0.950 . S
C2214 C2213 1.349 . S
C2214 C2226 1.349 . S
C2215 C2213 1.327 . S
C2215 C2231 1.429 . S
C2215 H2237 0.950 . S
C2216 H2212 0.949 . S
C2216 C2224 1.574 . S
C2216 C2232 1.368 . S
H2217 C2225 0.950 . S
H2218 C2223 0.950 . S
H2219 C2224 0.949 . S
H2220 C2226 0.950 . S
H2221 C2227 0.950 . S
H2222 C2228 0.949 . S
C2223 H2218 0.950 . S
C2223 C2225 1.327 . S
C2223 C2229 1.429 . S
C2224 C2216 1.574 . S
C2224 H2219 0.949 . S
C2224 C2230 1.368 . S
C2225 C2209 1.349 . S
C2225 H2217 0.950 . S
C2225 C2223 1.327 . S
C2226 C2214 1.349 . S
C2226 H2220 0.950 . S
C2226 C2227 1.327 . S
C2227 H2221 0.950 . S
C2227 C2226 1.327 . S
C2227 C2231 1.429 . S
C2228 C2211 1.574 . S
C2228 H2222 0.949 . S
C2228 C2232 1.368 . S
C2229 C2210 1.429 . S
C2229 C2223 1.429 . S
C2229 C2230 1.523 . S
C2230 C2211 1.368 . S
C2230 C2224 1.368 . S
C2230 C2229 1.523 . S
C2231 C2215 1.429 . S
C2231 C2227 1.429 . S
C2231 C2232 1.523 . S
C2232 C2216 1.368 . S
C2232 C2228 1.368 . S
C2232 C2231 1.523 . S
H2233 C2208 0.950 . S
H2234 C2210 0.950 . S
H2235 C2211 0.949 . S
H2236 C2213 0.950 . S
H2237 C2215 0.950 . S
C2238 C2239 1.349 . S
C2238 C2240 1.327 . S
C2238 H2263 0.950 . S
C2239 C2238 1.349 . S
C2239 C2255 1.349 . S
C2240 C2238 1.327 . S
C2240 C2259 1.429 . S
C2240 H2264 0.950 . S
C2241 C2258 1.574 1_455 S
C2241 C2260 1.368 . S
C2241 H2265 0.949 . S
H2242 C2246 0.949 . S
C2243 C2244 1.349 . S
C2243 C2245 1.327 . S
C2243 H2266 0.950 . S
C2244 C2243 1.349 . S
C2244 C2256 1.349 . S
C2245 C2243 1.327 . S
C2245 C2261 1.429 . S
C2245 H2267 0.950 . S
C2246 H2242 0.949 . S
C2246 C2254 1.574 . S
C2246 C2262 1.368 . S
H2247 C2255 0.950 . S
H2248 C2253 0.950 . S
H2249 C2254 0.949 . S
H2250 C2256 0.950 . S
H2251 C2257 0.950 . S
H2252 C2258 0.949 . S
C2253 H2248 0.950 . S
C2253 C2255 1.327 . S
C2253 C2259 1.429 . S
C2254 C2246 1.574 . S
C2254 H2249 0.949 . S
C2254 C2260 1.368 1_655 S
C2255 C2239 1.349 . S
C2255 H2247 0.950 . S
C2255 C2253 1.327 . S
C2256 C2244 1.349 . S
C2256 H2250 0.950 . S
C2256 C2257 1.327 . S
C2257 H2251 0.950 . S
C2257 C2256 1.327 . S
C2257 C2261 1.429 . S
C2258 C2241 1.574 1_655 S
C2258 H2252 0.949 . S
C2258 C2262 1.368 . S
C2259 C2240 1.429 . S
C2259 C2253 1.429 . S
C2259 C2260 1.523 . S
C2260 C2241 1.368 . S
C2260 C2254 1.368 1_455 S
C2260 C2259 1.523 . S
C2261 C2245 1.429 . S
C2261 C2257 1.429 . S
C2261 C2262 1.523 . S
C2262 C2246 1.368 . S
C2262 C2258 1.368 . S
C2262 C2261 1.523 . S
H2263 C2238 0.950 . S
H2264 C2240 0.950 . S
H2265 C2241 0.949 . S
H2266 C2243 0.950 . S
H2267 C2245 0.950 . S
C2268 C2269 1.349 . S
C2268 C2270 1.327 . S
C2268 H2293 0.950 . S
C2269 C2268 1.349 . S
C2269 C2285 1.349 . S
C2270 C2268 1.327 . S
C2270 C2289 1.429 . S
C2270 H2294 0.950 . S
C2271 C2288 1.574 1_554 S
C2271 C2290 1.368 . S
C2271 H2295 0.949 . S
H2272 C2276 0.949 . S
C2273 C2274 1.349 . S
C2273 C2275 1.327 . S
C2273 H2296 0.950 . S
C2274 C2273 1.349 . S
C2274 C2286 1.349 . S
C2275 C2273 1.327 . S
C2275 C2291 1.429 . S
C2275 H2297 0.950 . S
C2276 H2272 0.949 . S
C2276 C2284 1.574 1_556 S
C2276 C2292 1.368 . S
H2277 C2285 0.950 . S
H2278 C2283 0.950 . S
H2279 C2284 0.949 . S
H2280 C2286 0.950 . S
H2281 C2287 0.950 . S
H2282 C2288 0.949 . S
C2283 H2278 0.950 . S
C2283 C2285 1.327 . S
C2283 C2289 1.429 . S
C2284 C2276 1.574 1_554 S
C2284 H2279 0.949 . S
C2284 C2290 1.368 . S
C2285 C2269 1.349 . S
C2285 H2277 0.950 . S
C2285 C2283 1.327 . S
C2286 C2274 1.349 . S
C2286 H2280 0.950 . S
C2286 C2287 1.327 . S
C2287 H2281 0.950 . S
C2287 C2286 1.327 . S
C2287 C2291 1.429 . S
C2288 C2271 1.574 1_556 S
C2288 H2282 0.949 . S
C2288 C2292 1.368 . S
C2289 C2270 1.429 . S
C2289 C2283 1.429 . S
C2289 C2290 1.523 . S
C2290 C2271 1.368 . S
C2290 C2284 1.368 . S
C2290 C2289 1.523 . S
C2291 C2275 1.429 . S
C2291 C2287 1.429 . S
C2291 C2292 1.523 . S
C2292 C2276 1.368 . S
C2292 C2288 1.368 . S
C2292 C2291 1.523 . S
H2293 C2268 0.950 . S
H2294 C2270 0.950 . S
H2295 C2271 0.949 . S
H2296 C2273 0.950 . S
H2297 C2275 0.950 . S
C2298 C2299 1.349 . S
C2298 C2300 1.327 . S
C2298 H2323 0.950 . S
C2299 C2298 1.349 . S
C2299 C2315 1.349 . S
C2300 C2298 1.327 . S
C2300 C2319 1.429 . S
C2300 H2324 0.950 . S
C2301 C2318 1.574 . S
C2301 C2320 1.368 . S
C2301 H2325 0.949 . S
H2302 C2306 0.949 . S
C2303 C2304 1.349 . S
C2303 C2305 1.327 . S
C2303 H2326 0.950 . S
C2304 C2303 1.349 . S
C2304 C2316 1.349 . S
C2305 C2303 1.327 . S
C2305 C2321 1.429 . S
C2305 H2327 0.950 . S
C2306 H2302 0.949 . S
C2306 C2314 1.574 . S
C2306 C2322 1.368 . S
H2307 C2315 0.950 . S
H2308 C2313 0.950 . S
H2309 C2314 0.949 . S
H2310 C2316 0.950 . S
H2311 C2317 0.950 . S
H2312 C2318 0.949 . S
C2313 H2308 0.950 . S
C2313 C2315 1.327 . S
C2313 C2319 1.429 . S
C2314 C2306 1.574 . S
C2314 H2309 0.949 . S
C2314 C2320 1.368 . S
C2315 C2299 1.349 . S
C2315 H2307 0.950 . S
C2315 C2313 1.327 . S
C2316 C2304 1.349 . S
C2316 H2310 0.950 . S
C2316 C2317 1.327 . S
C2317 H2311 0.950 . S
C2317 C2316 1.327 . S
C2317 C2321 1.429 . S
C2318 C2301 1.574 . S
C2318 H2312 0.949 . S
C2318 C2322 1.368 . S
C2319 C2300 1.429 . S
C2319 C2313 1.429 . S
C2319 C2320 1.523 . S
C2320 C2301 1.368 . S
C2320 C2314 1.368 . S
C2320 C2319 1.523 . S
C2321 C2305 1.429 . S
C2321 C2317 1.429 . S
C2321 C2322 1.523 . S
C2322 C2306 1.368 . S
C2322 C2318 1.368 . S
C2322 C2321 1.523 . S
H2323 C2298 0.950 . S
H2324 C2300 0.950 . S
H2325 C2301 0.949 . S
H2326 C2303 0.950 . S
H2327 C2305 0.950 . S
C2328 C2329 1.349 . S
C2328 C2330 1.327 . S
C2328 H2353 0.950 . S
C2329 C2328 1.349 . S
C2329 C2345 1.349 . S
C2330 C2328 1.327 . S
C2330 C2349 1.429 . S
C2330 H2354 0.950 . S
C2331 C2348 1.574 . S
C2331 C2350 1.368 1_554 S
C2331 H2355 0.949 . S
H2332 C2336 0.949 . S
C2333 C2334 1.349 . S
C2333 C2335 1.327 . S
C2333 H2356 0.950 . S
C2334 C2333 1.349 . S
C2334 C2346 1.349 . S
C2335 C2333 1.327 . S
C2335 C2351 1.429 . S
C2335 H2357 0.950 . S
C2336 H2332 0.949 . S
C2336 C2344 1.574 . S
C2336 C2352 1.368 1_556 S
H2337 C2345 0.950 . S
H2338 C2343 0.950 . S
H2339 C2344 0.949 . S
H2340 C2346 0.950 . S
H2341 C2347 0.950 . S
H2342 C2348 0.949 . S
C2343 H2338 0.950 . S
C2343 C2345 1.327 . S
C2343 C2349 1.429 . S
C2344 C2336 1.574 . S
C2344 H2339 0.949 . S
C2344 C2350 1.368 . S
C2345 C2329 1.349 . S
C2345 H2337 0.950 . S
C2345 C2343 1.327 . S
C2346 C2334 1.349 . S
C2346 H2340 0.950 . S
C2346 C2347 1.327 . S
C2347 H2341 0.950 . S
C2347 C2346 1.327 . S
C2347 C2351 1.429 . S
C2348 C2331 1.574 . S
C2348 H2342 0.949 . S
C2348 C2352 1.368 . S
C2349 C2330 1.429 . S
C2349 C2343 1.429 . S
C2349 C2350 1.523 . S
C2350 C2331 1.368 1_556 S
C2350 C2344 1.368 . S
C2350 C2349 1.523 . S
C2351 C2335 1.429 . S
C2351 C2347 1.429 . S
C2351 C2352 1.523 . S
C2352 C2336 1.368 1_554 S
C2352 C2348 1.368 . S
C2352 C2351 1.523 . S
H2353 C2328 0.950 . S
H2354 C2330 0.950 . S
H2355 C2331 0.949 . S
H2356 C2333 0.950 . S
H2357 C2335 0.950 . S
C2358 C2359 1.349 . S
C2358 C2360 1.327 . S
C2358 H2383 0.950 . S
C2359 C2358 1.349 . S
C2359 C2375 1.349 . S
C2360 C2358 1.327 . S
C2360 C2379 1.429 . S
C2360 H2384 0.950 . S
C2361 C2378 1.574 . S
C2361 C2380 1.368 . S
C2361 H2385 0.949 . S
H2362 C2366 0.949 . S
C2363 C2364 1.349 . S
C2363 C2365 1.327 . S
C2363 H2386 0.950 . S
C2364 C2363 1.349 . S
C2364 C2376 1.349 . S
C2365 C2363 1.327 . S
C2365 C2381 1.429 . S
C2365 H2387 0.950 . S
C2366 H2362 0.949 . S
C2366 C2374 1.574 . S
C2366 C2382 1.368 . S
H2367 C2375 0.950 . S
H2368 C2373 0.950 . S
H2369 C2374 0.949 . S
H2370 C2376 0.950 . S
H2371 C2377 0.950 . S
H2372 C2378 0.949 . S
C2373 H2368 0.950 . S
C2373 C2375 1.327 . S
C2373 C2379 1.429 . S
C2374 C2366 1.574 . S
C2374 H2369 0.949 . S
C2374 C2380 1.368 . S
C2375 C2359 1.349 . S
C2375 H2367 0.950 . S
C2375 C2373 1.327 . S
C2376 C2364 1.349 . S
C2376 H2370 0.950 . S
C2376 C2377 1.327 . S
C2377 H2371 0.950 . S
C2377 C2376 1.327 . S
C2377 C2381 1.429 . S
C2378 C2361 1.574 . S
C2378 H2372 0.949 . S
C2378 C2382 1.368 . S
C2379 C2360 1.429 . S
C2379 C2373 1.429 . S
C2379 C2380 1.523 . S
C2380 C2361 1.368 . S
C2380 C2374 1.368 . S
C2380 C2379 1.523 . S
C2381 C2365 1.429 . S
C2381 C2377 1.429 . S
C2381 C2382 1.523 . S
C2382 C2366 1.368 . S
C2382 C2378 1.368 . S
C2382 C2381 1.523 . S
H2383 C2358 0.950 . S
H2384 C2360 0.950 . S
H2385 C2361 0.949 . S
H2386 C2363 0.950 . S
H2387 C2365 0.950 . S
C2388 C2389 1.349 . S
C2388 C2390 1.327 . S
C2388 H2413 0.950 . S
C2389 C2388 1.349 . S
C2389 C2405 1.349 . S
C2390 C2388 1.327 . S
C2390 C2409 1.429 . S
C2390 H2414 0.950 . S
C2391 C2408 1.574 . S
C2391 C2410 1.368 . S
C2391 H2415 0.949 . S
H2392 C2396 0.949 . S
C2393 C2394 1.349 . S
C2393 C2395 1.327 . S
C2393 H2416 0.950 . S
C2394 C2393 1.349 . S
C2394 C2406 1.349 . S
C2395 C2393 1.327 . S
C2395 C2411 1.429 . S
C2395 H2417 0.950 . S
C2396 H2392 0.949 . S
C2396 C2404 1.574 . S
C2396 C2412 1.368 . S
H2397 C2405 0.950 . S
H2398 C2403 0.950 . S
H2399 C2404 0.949 . S
H2400 C2406 0.950 . S
H2401 C2407 0.950 . S
H2402 C2408 0.949 . S
C2403 H2398 0.950 . S
C2403 C2405 1.327 . S
C2403 C2409 1.429 . S
C2404 C2396 1.574 . S
C2404 H2399 0.949 . S
C2404 C2410 1.368 . S
C2405 C2389 1.349 . S
C2405 H2397 0.950 . S
C2405 C2403 1.327 . S
C2406 C2394 1.349 . S
C2406 H2400 0.950 . S
C2406 C2407 1.327 . S
C2407 H2401 0.950 . S
C2407 C2406 1.327 . S
C2407 C2411 1.429 . S
C2408 C2391 1.574 . S
C2408 H2402 0.949 . S
C2408 C2412 1.368 . S
C2409 C2390 1.429 . S
C2409 C2403 1.429 . S
C2409 C2410 1.523 . S
C2410 C2391 1.368 . S
C2410 C2404 1.368 . S
C2410 C2409 1.523 . S
C2411 C2395 1.429 . S
C2411 C2407 1.429 . S
C2411 C2412 1.523 . S
C2412 C2396 1.368 . S
C2412 C2408 1.368 . S
C2412 C2411 1.523 . S
H2413 C2388 0.950 . S
H2414 C2390 0.950 . S
H2415 C2391 0.949 . S
H2416 C2393 0.950 . S
H2417 C2395 0.950 . S
C2418 C2419 1.349 . S
C2418 C2420 1.327 . S
C2418 H2443 0.950 . S
C2419 C2418 1.349 . S
C2419 C2435 1.349 . S
C2420 C2418 1.327 . S
C2420 C2439 1.429 . S
C2420 H2444 0.950 . S
C2421 C2438 1.562 1_655 S
C2421 C2440 1.379 . S
C2421 H2445 0.949 . S
H2422 C2426 0.949 . S
C2423 C2424 1.349 . S
C2423 C2425 1.327 . S
C2423 H2446 0.950 . S
C2424 C2423 1.349 . S
C2424 C2436 1.349 . S
C2425 C2423 1.327 . S
C2425 C2441 1.429 . S
C2425 H2447 0.950 . S
C2426 H2422 0.949 . S
C2426 C2434 1.597 . S
C2426 C2442 1.347 1_655 S
H2427 C2435 0.950 . S
H2428 C2433 0.950 . S
H2429 C2434 0.949 . S
H2430 C2436 0.950 . S
H2431 C2437 0.950 . S
H2432 C2438 0.949 . S
C2433 H2428 0.950 . S
C2433 C2435 1.327 . S
C2433 C2439 1.429 . S
C2434 C2426 1.597 . S
C2434 H2429 0.949 . S
C2434 C2440 1.368 . S
C2435 C2419 1.349 . S
C2435 H2427 0.950 . S
C2435 C2433 1.327 . S
C2436 C2424 1.349 . S
C2436 H2430 0.950 . S
C2436 C2437 1.327 . S
C2437 H2431 0.950 . S
C2437 C2436 1.327 . S
C2437 C2441 1.429 . S
C2438 C2421 1.562 1_455 S
C2438 H2432 0.949 . S
C2438 C2442 1.368 . S
C2439 C2420 1.429 . S
C2439 C2433 1.429 . S
C2439 C2440 1.523 . S
C2440 C2421 1.379 . S
C2440 C2434 1.368 . S
C2440 C2439 1.523 . S
C2441 C2425 1.429 . S
C2441 C2437 1.429 . S
C2441 C2442 1.523 . S
C2442 C2426 1.347 1_455 S
C2442 C2438 1.368 . S
C2442 C2441 1.523 . S
H2443 C2418 0.950 . S
H2444 C2420 0.950 . S
H2445 C2421 0.949 . S
H2446 C2423 0.950 . S
H2447 C2425 0.950 . S
C2448 C2449 1.349 . S
C2448 C2450 1.327 . S
C2448 H2473 0.950 . S
C2449 C2448 1.349 . S
C2449 C2465 1.349 . S
C2450 C2448 1.327 . S
C2450 C2469 1.429 . S
C2450 H2474 0.950 . S
C2451 C2468 1.574 . S
C2451 C2470 1.368 . S
C2451 H2475 0.949 . S
H2452 C2456 0.949 . S
C2453 C2454 1.349 . S
C2453 C2455 1.327 . S
C2453 H2476 0.950 . S
C2454 C2453 1.349 . S
C2454 C2466 1.349 . S
C2455 C2453 1.327 . S
C2455 C2471 1.429 . S
C2455 H2477 0.950 . S
C2456 H2452 0.949 . S
C2456 C2464 1.574 . S
C2456 C2472 1.368 . S
H2457 C2465 0.950 . S
H2458 C2463 0.950 . S
H2459 C2464 0.949 . S
H2460 C2466 0.950 . S
H2461 C2467 0.950 . S
H2462 C2468 0.949 . S
C2463 H2458 0.950 . S
C2463 C2465 1.327 . S
C2463 C2469 1.429 . S
C2464 C2456 1.574 . S
C2464 H2459 0.949 . S
C2464 C2470 1.368 . S
C2465 C2449 1.349 . S
C2465 H2457 0.950 . S
C2465 C2463 1.327 . S
C2466 C2454 1.349 . S
C2466 H2460 0.950 . S
C2466 C2467 1.327 . S
C2467 H2461 0.950 . S
C2467 C2466 1.327 . S
C2467 C2471 1.429 . S
C2468 C2451 1.574 . S
C2468 H2462 0.949 . S
C2468 C2472 1.368 . S
C2469 C2450 1.429 . S
C2469 C2463 1.429 . S
C2469 C2470 1.523 . S
C2470 C2451 1.368 . S
C2470 C2464 1.368 . S
C2470 C2469 1.523 . S
C2471 C2455 1.429 . S
C2471 C2467 1.429 . S
C2471 C2472 1.523 . S
C2472 C2456 1.368 . S
C2472 C2468 1.368 . S
C2472 C2471 1.523 . S
H2473 C2448 0.950 . S
H2474 C2450 0.950 . S
H2475 C2451 0.949 . S
H2476 C2453 0.950 . S
H2477 C2455 0.950 . S
C2478 C2479 1.349 . S
C2478 C2480 1.327 . S
C2478 H2503 0.950 . S
C2479 C2478 1.349 . S
C2479 C2495 1.349 . S
C2480 C2478 1.327 . S
C2480 C2499 1.429 . S
C2480 H2504 0.950 . S
C2481 C2498 1.574 1_545 S
C2481 C2500 1.368 . S
C2481 H2505 0.949 . S
H2482 C2486 0.949 . S
C2483 C2484 1.349 . S
C2483 C2485 1.327 . S
C2483 H2506 0.950 . S
C2484 C2483 1.349 . S
C2484 C2496 1.349 . S
C2485 C2483 1.327 . S
C2485 C2501 1.429 . S
C2485 H2507 0.950 . S
C2486 H2482 0.949 . S
C2486 C2494 1.574 . S
C2486 C2502 1.368 . S
H2487 C2495 0.950 . S
H2488 C2493 0.950 . S
H2489 C2494 0.949 . S
H2490 C2496 0.950 . S
H2491 C2497 0.950 . S
H2492 C2498 0.949 . S
C2493 H2488 0.950 . S
C2493 C2495 1.327 . S
C2493 C2499 1.429 . S
C2494 C2486 1.574 . S
C2494 H2489 0.949 . S
C2494 C2500 1.368 1_565 S
C2495 C2479 1.349 . S
C2495 H2487 0.950 . S
C2495 C2493 1.327 . S
C2496 C2484 1.349 . S
C2496 H2490 0.950 . S
C2496 C2497 1.327 . S
C2497 H2491 0.950 . S
C2497 C2496 1.327 . S
C2497 C2501 1.429 . S
C2498 C2481 1.574 1_565 S
C2498 H2492 0.949 . S
C2498 C2502 1.368 . S
C2499 C2480 1.429 . S
C2499 C2493 1.429 . S
C2499 C2500 1.523 . S
C2500 C2481 1.368 . S
C2500 C2494 1.368 1_545 S
C2500 C2499 1.523 . S
C2501 C2485 1.429 . S
C2501 C2497 1.429 . S
C2501 C2502 1.523 . S
C2502 C2486 1.368 . S
C2502 C2498 1.368 . S
C2502 C2501 1.523 . S
H2503 C2478 0.950 . S
H2504 C2480 0.950 . S
H2505 C2481 0.949 . S
H2506 C2483 0.950 . S
H2507 C2485 0.950 . S
C2508 C2509 1.349 . S
C2508 C2510 1.327 . S
C2508 H2533 0.950 . S
C2509 C2508 1.349 . S
C2509 C2525 1.349 . S
C2510 C2508 1.327 . S
C2510 C2529 1.429 . S
C2510 H2534 0.950 . S
C2511 C2528 1.570 1_545 S
C2511 C2530 1.368 . S
C2511 H2535 0.949 . S
H2512 C2516 0.949 . S
C2513 C2514 1.349 . S
C2513 C2515 1.327 . S
C2513 H2536 0.950 . S
C2514 C2513 1.349 . S
C2514 C2526 1.349 . S
C2515 C2513 1.327 . S
C2515 C2531 1.429 . S
C2515 H2537 0.950 . S
C2516 H2512 0.949 . S
C2516 C2524 1.574 1_565 S
C2516 C2532 1.368 . S
H2517 C2525 0.950 . S
H2518 C2523 0.950 . S
H2519 C2524 0.949 . S
H2520 C2526 0.950 . S
H2521 C2527 0.950 . S
H2522 C2528 0.950 . S
C2523 H2518 0.950 . S
C2523 C2525 1.327 . S
C2523 C2529 1.429 . S
C2524 C2516 1.574 1_545 S
C2524 H2519 0.949 . S
C2524 C2530 1.368 . S
C2525 C2509 1.349 . S
C2525 H2517 0.950 . S
C2525 C2523 1.327 . S
C2526 C2514 1.349 . S
C2526 H2520 0.950 . S
C2526 C2527 1.327 . S
C2527 H2521 0.950 . S
C2527 C2526 1.327 . S
C2527 C2531 1.429 . S
C2528 C2511 1.570 1_565 S
C2528 H2522 0.950 . S
C2528 C2532 1.371 . S
C2529 C2510 1.429 . S
C2529 C2523 1.429 . S
C2529 C2530 1.523 . S
C2530 C2511 1.368 . S
C2530 C2524 1.368 . S
C2530 C2529 1.523 . S
C2531 C2515 1.429 . S
C2531 C2527 1.429 . S
C2531 C2532 1.523 . S
C2532 C2516 1.368 . S
C2532 C2528 1.371 . S
C2532 C2531 1.523 . S
H2533 C2508 0.950 . S
H2534 C2510 0.950 . S
H2535 C2511 0.949 . S
H2536 C2513 0.950 . S
H2537 C2515 0.950 . S
C2538 C2539 1.349 . S
C2538 C2540 1.327 . S
C2538 H2563 0.950 . S
C2539 C2538 1.349 . S
C2539 C2555 1.349 . S
C2540 C2538 1.327 . S
C2540 C2559 1.429 . S
C2540 H2564 0.950 . S
C2541 C2558 1.608 . S
C2541 C2560 1.368 . S
C2541 H2565 0.949 . S
H2542 C2546 0.949 . S
C2543 C2544 1.349 . S
C2543 C2545 1.327 . S
C2543 H2566 0.950 . S
C2544 C2543 1.349 . S
C2544 C2556 1.349 . S
C2545 C2543 1.327 . S
C2545 C2561 1.429 . S
C2545 H2567 0.950 . S
C2546 H2542 0.949 . S
C2546 C2554 1.574 . S
C2546 C2562 1.368 . S
H2547 C2555 0.950 . S
H2548 C2553 0.950 . S
H2549 C2554 0.949 . S
H2550 C2556 0.950 . S
H2551 C2557 0.950 . S
H2552 C2558 0.953 . S
C2553 H2548 0.950 . S
C2553 C2555 1.327 . S
C2553 C2559 1.429 . S
C2554 C2546 1.574 . S
C2554 H2549 0.949 . S
C2554 C2560 1.368 1_545 S
C2555 C2539 1.349 . S
C2555 H2547 0.950 . S
C2555 C2553 1.327 . S
C2556 C2544 1.349 . S
C2556 H2550 0.950 . S
C2556 C2557 1.327 . S
C2557 H2551 0.950 . S
C2557 C2556 1.327 . S
C2557 C2561 1.429 . S
C2558 C2541 1.608 . S
C2558 H2552 0.953 . S
C2558 C2562 1.332 1_565 S
C2559 C2540 1.429 . S
C2559 C2553 1.429 . S
C2559 C2560 1.523 . S
C2560 C2541 1.368 . S
C2560 C2554 1.368 1_565 S
C2560 C2559 1.523 . S
C2561 C2545 1.429 . S
C2561 C2557 1.429 . S
C2561 C2562 1.523 . S
C2562 C2546 1.368 . S
C2562 C2558 1.332 1_545 S
C2562 C2561 1.523 . S
H2563 C2538 0.950 . S
H2564 C2540 0.950 . S
H2565 C2541 0.949 . S
H2566 C2543 0.950 . S
H2567 C2545 0.950 . S
C2568 C2569 1.349 . S
C2568 C2570 1.327 . S
C2568 H2593 0.950 . S
C2569 C2568 1.349 . S
C2569 C2585 1.349 . S
C2570 C2568 1.327 . S
C2570 C2589 1.429 . S
C2570 H2594 0.950 . S
C2571 C2588 1.574 . S
C2571 C2590 1.368 . S
C2571 H2595 0.949 . S
H2572 C2576 0.949 . S
C2573 C2574 1.349 . S
C2573 C2575 1.327 . S
C2573 H2596 0.950 . S
C2574 C2573 1.349 . S
C2574 C2586 1.349 . S
C2575 C2573 1.327 . S
C2575 C2591 1.429 . S
C2575 H2597 0.950 . S
C2576 H2572 0.949 . S
C2576 C2584 1.574 . S
C2576 C2592 1.368 . S
H2577 C2585 0.950 . S
H2578 C2583 0.950 . S
H2579 C2584 0.949 . S
H2580 C2586 0.950 . S
H2581 C2587 0.950 . S
H2582 C2588 0.949 . S
C2583 H2578 0.950 . S
C2583 C2585 1.327 . S
C2583 C2589 1.429 . S
C2584 C2576 1.574 . S
C2584 H2579 0.949 . S
C2584 C2590 1.368 . S
C2585 C2569 1.349 . S
C2585 H2577 0.950 . S
C2585 C2583 1.327 . S
C2586 C2574 1.349 . S
C2586 H2580 0.950 . S
C2586 C2587 1.327 . S
C2587 H2581 0.950 . S
C2587 C2586 1.327 . S
C2587 C2591 1.429 . S
C2588 C2571 1.574 . S
C2588 H2582 0.949 . S
C2588 C2592 1.368 . S
C2589 C2570 1.429 . S
C2589 C2583 1.429 . S
C2589 C2590 1.523 . S
C2590 C2571 1.368 . S
C2590 C2584 1.368 . S
C2590 C2589 1.523 . S
C2591 C2575 1.429 . S
C2591 C2587 1.429 . S
C2591 C2592 1.523 . S
C2592 C2576 1.368 . S
C2592 C2588 1.368 . S
C2592 C2591 1.523 . S
H2593 C2568 0.950 . S
H2594 C2570 0.950 . S
H2595 C2571 0.949 . S
H2596 C2573 0.950 . S
H2597 C2575 0.950 . S
C2598 C2599 1.349 . S
C2598 C2600 1.327 . S
C2598 H2623 0.950 . S
C2599 C2598 1.349 . S
C2599 C2615 1.349 . S
C2600 C2598 1.327 . S
C2600 C2619 1.429 . S
C2600 H2624 0.950 . S
C2601 C2618 1.574 . S
C2601 C2620 1.368 . S
C2601 H2625 0.949 . S
H2602 C2606 0.949 . S
C2603 C2604 1.349 . S
C2603 C2605 1.327 . S
C2603 H2626 0.950 . S
C2604 C2603 1.349 . S
C2604 C2616 1.349 . S
C2605 C2603 1.327 . S
C2605 C2621 1.429 . S
C2605 H2627 0.950 . S
C2606 H2602 0.949 . S
C2606 C2614 1.574 . S
C2606 C2622 1.368 . S
H2607 C2615 0.950 . S
H2608 C2613 0.950 . S
H2609 C2614 0.949 . S
H2610 C2616 0.950 . S
H2611 C2617 0.950 . S
H2612 C2618 0.949 . S
C2613 H2608 0.950 . S
C2613 C2615 1.327 . S
C2613 C2619 1.429 . S
C2614 C2606 1.574 . S
C2614 H2609 0.949 . S
C2614 C2620 1.368 . S
C2615 C2599 1.349 . S
C2615 H2607 0.950 . S
C2615 C2613 1.327 . S
C2616 C2604 1.349 . S
C2616 H2610 0.950 . S
C2616 C2617 1.327 . S
C2617 H2611 0.950 . S
C2617 C2616 1.327 . S
C2617 C2621 1.429 . S
C2618 C2601 1.574 . S
C2618 H2612 0.949 . S
C2618 C2622 1.368 . S
C2619 C2600 1.429 . S
C2619 C2613 1.429 . S
C2619 C2620 1.523 . S
C2620 C2601 1.368 . S
C2620 C2614 1.368 . S
C2620 C2619 1.523 . S
C2621 C2605 1.429 . S
C2621 C2617 1.429 . S
C2621 C2622 1.523 . S
C2622 C2606 1.368 . S
C2622 C2618 1.368 . S
C2622 C2621 1.523 . S
H2623 C2598 0.950 . S
H2624 C2600 0.950 . S
H2625 C2601 0.949 . S
H2626 C2603 0.950 . S
H2627 C2605 0.950 . S
C2628 C2629 1.349 . S
C2628 C2630 1.327 . S
C2628 H2653 0.950 . S
C2629 C2628 1.349 . S
C2629 C2645 1.349 . S
C2630 C2628 1.327 . S
C2630 C2649 1.429 . S
C2630 H2654 0.950 . S
C2631 C2648 1.574 . S
C2631 C2650 1.368 . S
C2631 H2655 0.949 . S
H2632 C2636 0.949 . S
C2633 C2634 1.349 . S
C2633 C2635 1.327 . S
C2633 H2656 0.950 . S
C2634 C2633 1.349 . S
C2634 C2646 1.349 . S
C2635 C2633 1.327 . S
C2635 C2651 1.429 . S
C2635 H2657 0.950 . S
C2636 H2632 0.949 . S
C2636 C2644 1.574 . S
C2636 C2652 1.368 . S
H2637 C2645 0.950 . S
H2638 C2643 0.950 . S
H2639 C2644 0.949 . S
H2640 C2646 0.950 . S
H2641 C2647 0.950 . S
H2642 C2648 0.949 . S
C2643 H2638 0.950 . S
C2643 C2645 1.327 . S
C2643 C2649 1.429 . S
C2644 C2636 1.574 . S
C2644 H2639 0.949 . S
C2644 C2650 1.368 . S
C2645 C2629 1.349 . S
C2645 H2637 0.950 . S
C2645 C2643 1.327 . S
C2646 C2634 1.349 . S
C2646 H2640 0.950 . S
C2646 C2647 1.327 . S
C2647 H2641 0.950 . S
C2647 C2646 1.327 . S
C2647 C2651 1.429 . S
C2648 C2631 1.574 . S
C2648 H2642 0.949 . S
C2648 C2652 1.368 . S
C2649 C2630 1.429 . S
C2649 C2643 1.429 . S
C2649 C2650 1.523 . S
C2650 C2631 1.368 . S
C2650 C2644 1.368 . S
C2650 C2649 1.523 . S
C2651 C2635 1.429 . S
C2651 C2647 1.429 . S
C2651 C2652 1.523 . S
C2652 C2636 1.368 . S
C2652 C2648 1.368 . S
C2652 C2651 1.523 . S
H2653 C2628 0.950 . S
H2654 C2630 0.950 . S
H2655 C2631 0.949 . S
H2656 C2633 0.950 . S
H2657 C2635 0.950 . S
C2658 C2659 1.349 . S
C2658 C2660 1.327 . S
C2658 H2683 0.950 . S
C2659 C2658 1.349 . S
C2659 C2675 1.349 . S
C2660 C2658 1.327 . S
C2660 C2679 1.429 . S
C2660 H2684 0.950 . S
C2661 C2678 1.574 1_554 S
C2661 C2680 1.368 . S
C2661 H2685 0.949 . S
H2662 C2666 0.949 . S
C2663 C2664 1.349 . S
C2663 C2665 1.327 . S
C2663 H2686 0.950 . S
C2664 C2663 1.349 . S
C2664 C2676 1.349 . S
C2665 C2663 1.327 . S
C2665 C2681 1.429 . S
C2665 H2687 0.950 . S
C2666 H2662 0.949 . S
C2666 C2674 1.574 . S
C2666 C2682 1.368 1_554 S
H2667 C2675 0.950 . S
H2668 C2673 0.950 . S
H2669 C2674 0.949 . S
H2670 C2676 0.950 . S
H2671 C2677 0.950 . S
H2672 C2678 0.949 . S
C2673 H2668 0.950 . S
C2673 C2675 1.327 . S
C2673 C2679 1.429 . S
C2674 C2666 1.574 . S
C2674 H2669 0.949 . S
C2674 C2680 1.368 . S
C2675 C2659 1.349 . S
C2675 H2667 0.950 . S
C2675 C2673 1.327 . S
C2676 C2664 1.349 . S
C2676 H2670 0.950 . S
C2676 C2677 1.327 . S
C2677 H2671 0.950 . S
C2677 C2676 1.327 . S
C2677 C2681 1.429 . S
C2678 C2661 1.574 1_556 S
C2678 H2672 0.949 . S
C2678 C2682 1.368 . S
C2679 C2660 1.429 . S
C2679 C2673 1.429 . S
C2679 C2680 1.523 . S
C2680 C2661 1.368 . S
C2680 C2674 1.368 . S
C2680 C2679 1.523 . S
C2681 C2665 1.429 . S
C2681 C2677 1.429 . S
C2681 C2682 1.523 . S
C2682 C2666 1.368 1_556 S
C2682 C2678 1.368 . S
C2682 C2681 1.523 . S
H2683 C2658 0.950 . S
H2684 C2660 0.950 . S
H2685 C2661 0.949 . S
H2686 C2663 0.950 . S
H2687 C2665 0.950 . S
C2688 C2689 1.349 . S
C2688 C2690 1.327 . S
C2688 H2713 0.950 . S
C2689 C2688 1.349 . S
C2689 C2705 1.349 . S
C2690 C2688 1.327 . S
C2690 C2709 1.429 . S
C2690 H2714 0.950 . S
C2691 C2708 1.574 . S
C2691 C2710 1.368 . S
C2691 H2715 0.949 . S
H2692 C2696 0.949 . S
C2693 C2694 1.349 . S
C2693 C2695 1.327 . S
C2693 H2716 0.950 . S
C2694 C2693 1.349 . S
C2694 C2706 1.349 . S
C2695 C2693 1.327 . S
C2695 C2711 1.429 . S
C2695 H2717 0.950 . S
C2696 H2692 0.949 . S
C2696 C2704 1.574 . S
C2696 C2712 1.368 . S
H2697 C2705 0.950 . S
H2698 C2703 0.950 . S
H2699 C2704 0.949 . S
H2700 C2706 0.950 . S
H2701 C2707 0.950 . S
H2702 C2708 0.949 . S
C2703 H2698 0.950 . S
C2703 C2705 1.327 . S
C2703 C2709 1.429 . S
C2704 C2696 1.574 . S
C2704 H2699 0.949 . S
C2704 C2710 1.368 . S
C2705 C2689 1.349 . S
C2705 H2697 0.950 . S
C2705 C2703 1.327 . S
C2706 C2694 1.349 . S
C2706 H2700 0.950 . S
C2706 C2707 1.327 . S
C2707 H2701 0.950 . S
C2707 C2706 1.327 . S
C2707 C2711 1.429 . S
C2708 C2691 1.574 . S
C2708 H2702 0.949 . S
C2708 C2712 1.368 . S
C2709 C2690 1.429 . S
C2709 C2703 1.429 . S
C2709 C2710 1.523 . S
C2710 C2691 1.368 . S
C2710 C2704 1.368 . S
C2710 C2709 1.523 . S
C2711 C2695 1.429 . S
C2711 C2707 1.429 . S
C2711 C2712 1.523 . S
C2712 C2696 1.368 . S
C2712 C2708 1.368 . S
C2712 C2711 1.523 . S
H2713 C2688 0.950 . S
H2714 C2690 0.950 . S
H2715 C2691 0.949 . S
H2716 C2693 0.950 . S
H2717 C2695 0.950 . S
C2718 C2719 1.349 . S
C2718 C2720 1.327 . S
C2718 H2743 0.950 . S
C2719 C2718 1.349 . S
C2719 C2735 1.349 . S
C2720 C2718 1.327 . S
C2720 C2739 1.429 . S
C2720 H2744 0.950 . S
C2721 C2738 1.574 . S
C2721 C2740 1.368 . S
C2721 H2745 0.949 . S
H2722 C2726 0.949 . S
C2723 C2724 1.349 . S
C2723 C2725 1.327 . S
C2723 H2746 0.950 . S
C2724 C2723 1.349 . S
C2724 C2736 1.349 . S
C2725 C2723 1.327 . S
C2725 C2741 1.429 . S
C2725 H2747 0.950 . S
C2726 H2722 0.949 . S
C2726 C2734 1.574 . S
C2726 C2742 1.368 . S
H2727 C2735 0.950 . S
H2728 C2733 0.950 . S
H2729 C2734 0.949 . S
H2730 C2736 0.950 . S
H2731 C2737 0.950 . S
H2732 C2738 0.949 . S
C2733 H2728 0.950 . S
C2733 C2735 1.327 . S
C2733 C2739 1.429 . S
C2734 C2726 1.574 . S
C2734 H2729 0.949 . S
C2734 C2740 1.368 . S
C2735 C2719 1.349 . S
C2735 H2727 0.950 . S
C2735 C2733 1.327 . S
C2736 C2724 1.349 . S
C2736 H2730 0.950 . S
C2736 C2737 1.327 . S
C2737 H2731 0.950 . S
C2737 C2736 1.327 . S
C2737 C2741 1.429 . S
C2738 C2721 1.574 . S
C2738 H2732 0.949 . S
C2738 C2742 1.368 . S
C2739 C2720 1.429 . S
C2739 C2733 1.429 . S
C2739 C2740 1.523 . S
C2740 C2721 1.368 . S
C2740 C2734 1.368 . S
C2740 C2739 1.523 . S
C2741 C2725 1.429 . S
C2741 C2737 1.429 . S
C2741 C2742 1.523 . S
C2742 C2726 1.368 . S
C2742 C2738 1.368 . S
C2742 C2741 1.523 . S
H2743 C2718 0.950 . S
H2744 C2720 0.950 . S
H2745 C2721 0.949 . S
H2746 C2723 0.950 . S
H2747 C2725 0.950 . S
C2748 C2749 1.349 . S
C2748 C2750 1.327 . S
C2748 H2773 0.950 . S
C2749 C2748 1.349 . S
C2749 C2765 1.349 . S
C2750 C2748 1.327 . S
C2750 C2769 1.429 . S
C2750 H2774 0.950 . S
C2751 C2768 1.574 . S
C2751 C2770 1.368 1_455 S
C2751 H2775 0.951 . S
H2752 C2756 0.949 . S
C2753 C2754 1.349 . S
C2753 C2755 1.327 . S
C2753 H2776 0.950 . S
C2754 C2753 1.349 . S
C2754 C2766 1.349 . S
C2755 C2753 1.327 . S
C2755 C2771 1.429 . S
C2755 H2777 0.950 . S
C2756 H2752 0.949 . S
C2756 C2764 1.574 1_455 S
C2756 C2772 1.368 . S
H2757 C2765 0.950 . S
H2758 C2763 0.950 . S
H2759 C2764 0.949 . S
H2760 C2766 0.950 . S
H2761 C2767 0.950 . S
H2762 C2768 0.949 . S
C2763 H2758 0.950 . S
C2763 C2765 1.327 . S
C2763 C2769 1.429 . S
C2764 C2756 1.574 1_655 S
C2764 H2759 0.949 . S
C2764 C2770 1.368 . S
C2765 C2749 1.349 . S
C2765 H2757 0.950 . S
C2765 C2763 1.327 . S
C2766 C2754 1.349 . S
C2766 H2760 0.950 . S
C2766 C2767 1.327 . S
C2767 H2761 0.950 . S
C2767 C2766 1.327 . S
C2767 C2771 1.429 . S
C2768 C2751 1.574 . S
C2768 H2762 0.949 . S
C2768 C2772 1.368 . S
C2769 C2750 1.429 . S
C2769 C2763 1.429 . S
C2769 C2770 1.523 . S
C2770 C2751 1.368 1_655 S
C2770 C2764 1.368 . S
C2770 C2769 1.523 . S
C2771 C2755 1.429 . S
C2771 C2767 1.429 . S
C2771 C2772 1.523 . S
C2772 C2756 1.368 . S
C2772 C2768 1.368 . S
C2772 C2771 1.523 . S
H2773 C2748 0.950 . S
H2774 C2750 0.950 . S
H2775 C2751 0.951 . S
H2776 C2753 0.950 . S
H2777 C2755 0.950 . S
C2778 C2779 1.349 . S
C2778 C2780 1.327 . S
C2778 H2803 0.950 . S
C2779 C2778 1.349 . S
C2779 C2795 1.349 . S
C2780 C2778 1.327 . S
C2780 C2799 1.429 . S
C2780 H2804 0.950 . S
C2781 C2798 1.574 . S
C2781 C2800 1.368 . S
C2781 H2805 0.949 . S
H2782 C2786 0.949 . S
C2783 C2784 1.349 . S
C2783 C2785 1.327 . S
C2783 H2806 0.950 . S
C2784 C2783 1.349 . S
C2784 C2796 1.349 . S
C2785 C2783 1.327 . S
C2785 C2801 1.429 . S
C2785 H2807 0.950 . S
C2786 H2782 0.949 . S
C2786 C2794 1.574 . S
C2786 C2802 1.368 . S
H2787 C2795 0.950 . S
H2788 C2793 0.950 . S
H2789 C2794 0.949 . S
H2790 C2796 0.950 . S
H2791 C2797 0.950 . S
H2792 C2798 0.949 . S
C2793 H2788 0.950 . S
C2793 C2795 1.327 . S
C2793 C2799 1.429 . S
C2794 C2786 1.574 . S
C2794 H2789 0.949 . S
C2794 C2800 1.368 . S
C2795 C2779 1.349 . S
C2795 H2787 0.950 . S
C2795 C2793 1.327 . S
C2796 C2784 1.349 . S
C2796 H2790 0.950 . S
C2796 C2797 1.327 . S
C2797 H2791 0.950 . S
C2797 C2796 1.327 . S
C2797 C2801 1.429 . S
C2798 C2781 1.574 . S
C2798 H2792 0.949 . S
C2798 C2802 1.368 . S
C2799 C2780 1.429 . S
C2799 C2793 1.429 . S
C2799 C2800 1.523 . S
C2800 C2781 1.368 . S
C2800 C2794 1.368 . S
C2800 C2799 1.523 . S
C2801 C2785 1.429 . S
C2801 C2797 1.429 . S
C2801 C2802 1.523 . S
C2802 C2786 1.368 . S
C2802 C2798 1.368 . S
C2802 C2801 1.523 . S
H2803 C2778 0.950 . S
H2804 C2780 0.950 . S
H2805 C2781 0.949 . S
H2806 C2783 0.950 . S
H2807 C2785 0.950 . S
C2808 C2809 1.349 . S
C2808 C2810 1.327 . S
C2808 H2833 0.950 . S
C2809 C2808 1.349 . S
C2809 C2825 1.349 . S
C2810 C2808 1.327 . S
C2810 C2829 1.429 . S
C2810 H2834 0.950 . S
C2811 C2828 1.574 1_655 S
C2811 C2830 1.368 . S
C2811 H2835 0.949 . S
H2812 C2816 0.949 . S
C2813 C2814 1.349 . S
C2813 C2815 1.327 . S
C2813 H2836 0.950 . S
C2814 C2813 1.349 . S
C2814 C2826 1.349 . S
C2815 C2813 1.327 . S
C2815 C2831 1.429 . S
C2815 H2837 0.950 . S
C2816 H2812 0.949 . S
C2816 C2824 1.543 1_455 S
C2816 C2832 1.368 . S
H2817 C2825 0.950 . S
H2818 C2823 0.950 . S
H2819 C2824 0.952 . S
H2820 C2826 0.950 . S
H2821 C2827 0.950 . S
H2822 C2828 0.949 . S
C2823 H2818 0.950 . S
C2823 C2825 1.327 . S
C2823 C2829 1.429 . S
C2824 C2816 1.543 1_655 S
C2824 H2819 0.952 . S
C2824 C2830 1.398 . S
C2825 C2809 1.349 . S
C2825 H2817 0.950 . S
C2825 C2823 1.327 . S
C2826 C2814 1.349 . S
C2826 H2820 0.950 . S
C2826 C2827 1.327 . S
C2827 H2821 0.950 . S
C2827 C2826 1.327 . S
C2827 C2831 1.429 . S
C2828 C2811 1.574 1_455 S
C2828 H2822 0.949 . S
C2828 C2832 1.368 . S
C2829 C2810 1.429 . S
C2829 C2823 1.429 . S
C2829 C2830 1.523 . S
C2830 C2811 1.368 . S
C2830 C2824 1.398 . S
C2830 C2829 1.523 . S
C2831 C2815 1.429 . S
C2831 C2827 1.429 . S
C2831 C2832 1.523 . S
C2832 C2816 1.368 . S
C2832 C2828 1.368 . S
C2832 C2831 1.523 . S
H2833 C2808 0.950 . S
H2834 C2810 0.950 . S
H2835 C2811 0.949 . S
H2836 C2813 0.950 . S
H2837 C2815 0.950 . S
C2838 C2839 1.349 . S
C2838 C2840 1.327 . S
C2838 H2863 0.950 . S
C2839 C2838 1.349 . S
C2839 C2855 1.349 . S
C2840 C2838 1.327 . S
C2840 C2859 1.429 . S
C2840 H2864 0.950 . S
C2841 C2858 1.574 1_554 S
C2841 C2860 1.368 . S
C2841 H2865 0.949 . S
H2842 C2846 0.949 . S
C2843 C2844 1.349 . S
C2843 C2845 1.327 . S
C2843 H2866 0.950 . S
C2844 C2843 1.349 . S
C2844 C2856 1.349 . S
C2845 C2843 1.327 . S
C2845 C2861 1.429 . S
C2845 H2867 0.950 . S
C2846 H2842 0.949 . S
C2846 C2854 1.574 . S
C2846 C2862 1.368 . S
H2847 C2855 0.950 . S
H2848 C2853 0.950 . S
H2849 C2854 0.949 . S
H2850 C2856 0.950 . S
H2851 C2857 0.950 . S
H2852 C2858 0.949 . S
C2853 H2848 0.950 . S
C2853 C2855 1.327 . S
C2853 C2859 1.429 . S
C2854 C2846 1.574 . S
C2854 H2849 0.949 . S
C2854 C2860 1.368 1_556 S
C2855 C2839 1.349 . S
C2855 H2847 0.950 . S
C2855 C2853 1.327 . S
C2856 C2844 1.349 . S
C2856 H2850 0.950 . S
C2856 C2857 1.327 . S
C2857 H2851 0.950 . S
C2857 C2856 1.327 . S
C2857 C2861 1.429 . S
C2858 C2841 1.574 1_556 S
C2858 H2852 0.949 . S
C2858 C2862 1.368 . S
C2859 C2840 1.429 . S
C2859 C2853 1.429 . S
C2859 C2860 1.523 . S
C2860 C2841 1.368 . S
C2860 C2854 1.368 1_554 S
C2860 C2859 1.523 . S
C2861 C2845 1.429 . S
C2861 C2857 1.429 . S
C2861 C2862 1.523 . S
C2862 C2846 1.368 . S
C2862 C2858 1.368 . S
C2862 C2861 1.523 . S
H2863 C2838 0.950 . S
H2864 C2840 0.950 . S
H2865 C2841 0.949 . S
H2866 C2843 0.950 . S
H2867 C2845 0.950 . S
C2868 C2869 1.349 . S
C2868 C2870 1.327 . S
C2868 H2893 0.950 . S
C2869 C2868 1.349 . S
C2869 C2885 1.349 . S
C2870 C2868 1.327 . S
C2870 C2889 1.429 . S
C2870 H2894 0.950 . S
C2871 C2888 1.574 . S
C2871 C2890 1.368 . S
C2871 H2895 0.949 . S
H2872 C2876 0.949 . S
C2873 C2874 1.349 . S
C2873 C2875 1.327 . S
C2873 H2896 0.950 . S
C2874 C2873 1.349 . S
C2874 C2886 1.349 . S
C2875 C2873 1.327 . S
C2875 C2891 1.429 . S
C2875 H2897 0.950 . S
C2876 H2872 0.949 . S
C2876 C2884 1.574 . S
C2876 C2892 1.368 . S
H2877 C2885 0.950 . S
H2878 C2883 0.950 . S
H2879 C2884 0.949 . S
H2880 C2886 0.950 . S
H2881 C2887 0.950 . S
H2882 C2888 0.949 . S
C2883 H2878 0.950 . S
C2883 C2885 1.327 . S
C2883 C2889 1.429 . S
C2884 C2876 1.574 . S
C2884 H2879 0.949 . S
C2884 C2890 1.368 . S
C2885 C2869 1.349 . S
C2885 H2877 0.950 . S
C2885 C2883 1.327 . S
C2886 C2874 1.349 . S
C2886 H2880 0.950 . S
C2886 C2887 1.327 . S
C2887 H2881 0.950 . S
C2887 C2886 1.327 . S
C2887 C2891 1.429 . S
C2888 C2871 1.574 . S
C2888 H2882 0.949 . S
C2888 C2892 1.368 . S
C2889 C2870 1.429 . S
C2889 C2883 1.429 . S
C2889 C2890 1.523 . S
C2890 C2871 1.368 . S
C2890 C2884 1.368 . S
C2890 C2889 1.523 . S
C2891 C2875 1.429 . S
C2891 C2887 1.429 . S
C2891 C2892 1.523 . S
C2892 C2876 1.368 . S
C2892 C2888 1.368 . S
C2892 C2891 1.523 . S
H2893 C2868 0.950 . S
H2894 C2870 0.950 . S
H2895 C2871 0.949 . S
H2896 C2873 0.950 . S
H2897 C2875 0.950 . S
C2898 C2899 1.349 . S
C2898 C2900 1.327 . S
C2898 H2923 0.950 . S
C2899 C2898 1.349 . S
C2899 C2915 1.349 . S
C2900 C2898 1.327 . S
C2900 C2919 1.429 . S
C2900 H2924 0.950 . S
C2901 C2918 1.574 . S
C2901 C2920 1.368 1_545 S
C2901 H2925 0.949 . S
H2902 C2906 0.949 . S
C2903 C2904 1.349 . S
C2903 C2905 1.327 . S
C2903 H2926 0.950 . S
C2904 C2903 1.349 . S
C2904 C2916 1.349 . S
C2905 C2903 1.327 . S
C2905 C2921 1.429 . S
C2905 H2927 0.950 . S
C2906 H2902 0.949 . S
C2906 C2914 1.574 1_545 S
C2906 C2922 1.368 . S
H2907 C2915 0.950 . S
H2908 C2913 0.950 . S
H2909 C2914 0.949 . S
H2910 C2916 0.950 . S
H2911 C2917 0.950 . S
H2912 C2918 0.949 . S
C2913 H2908 0.950 . S
C2913 C2915 1.327 . S
C2913 C2919 1.429 . S
C2914 C2906 1.574 1_565 S
C2914 H2909 0.949 . S
C2914 C2920 1.368 . S
C2915 C2899 1.349 . S
C2915 H2907 0.950 . S
C2915 C2913 1.327 . S
C2916 C2904 1.349 . S
C2916 H2910 0.950 . S
C2916 C2917 1.327 . S
C2917 H2911 0.950 . S
C2917 C2916 1.327 . S
C2917 C2921 1.429 . S
C2918 C2901 1.574 . S
C2918 H2912 0.949 . S
C2918 C2922 1.368 . S
C2919 C2900 1.429 . S
C2919 C2913 1.429 . S
C2919 C2920 1.523 . S
C2920 C2901 1.368 1_565 S
C2920 C2914 1.368 . S
C2920 C2919 1.523 . S
C2921 C2905 1.429 . S
C2921 C2917 1.429 . S
C2921 C2922 1.523 . S
C2922 C2906 1.368 . S
C2922 C2918 1.368 . S
C2922 C2921 1.523 . S
H2923 C2898 0.950 . S
H2924 C2900 0.950 . S
H2925 C2901 0.949 . S
H2926 C2903 0.950 . S
H2927 C2905 0.950 . S
C2928 C2929 1.349 . S
C2928 C2930 1.327 . S
C2928 H2953 0.950 . S
C2929 C2928 1.349 . S
C2929 C2945 1.349 . S
C2930 C2928 1.327 . S
C2930 C2949 1.429 . S
C2930 H2954 0.950 . S
C2931 C2948 1.574 . S
C2931 C2950 1.368 . S
C2931 H2955 0.949 . S
H2932 C2936 0.949 . S
C2933 C2934 1.349 . S
C2933 C2935 1.327 . S
C2933 H2956 0.950 . S
C2934 C2933 1.349 . S
C2934 C2946 1.349 . S
C2935 C2933 1.327 . S
C2935 C2951 1.429 . S
C2935 H2957 0.950 . S
C2936 H2932 0.949 . S
C2936 C2944 1.574 . S
C2936 C2952 1.368 . S
H2937 C2945 0.950 . S
H2938 C2943 0.950 . S
H2939 C2944 0.949 . S
H2940 C2946 0.950 . S
H2941 C2947 0.950 . S
H2942 C2948 0.949 . S
C2943 H2938 0.950 . S
C2943 C2945 1.327 . S
C2943 C2949 1.429 . S
C2944 C2936 1.574 . S
C2944 H2939 0.949 . S
C2944 C2950 1.368 . S
C2945 C2929 1.349 . S
C2945 H2937 0.950 . S
C2945 C2943 1.327 . S
C2946 C2934 1.349 . S
C2946 H2940 0.950 . S
C2946 C2947 1.327 . S
C2947 H2941 0.950 . S
C2947 C2946 1.327 . S
C2947 C2951 1.429 . S
C2948 C2931 1.574 . S
C2948 H2942 0.949 . S
C2948 C2952 1.368 . S
C2949 C2930 1.429 . S
C2949 C2943 1.429 . S
C2949 C2950 1.523 . S
C2950 C2931 1.368 . S
C2950 C2944 1.368 . S
C2950 C2949 1.523 . S
C2951 C2935 1.429 . S
C2951 C2947 1.429 . S
C2951 C2952 1.523 . S
C2952 C2936 1.368 . S
C2952 C2948 1.368 . S
C2952 C2951 1.523 . S
H2953 C2928 0.950 . S
H2954 C2930 0.950 . S
H2955 C2931 0.949 . S
H2956 C2933 0.950 . S
H2957 C2935 0.950 . S
C2958 C2959 1.349 . S
C2958 C2960 1.327 . S
C2958 H2983 0.950 . S
C2959 C2958 1.349 . S
C2959 C2975 1.349 . S
C2960 C2958 1.327 . S
C2960 C2979 1.429 . S
C2960 H2984 0.950 . S
C2961 C2978 1.574 . S
C2961 C2980 1.368 . S
C2961 H2985 0.949 . S
H2962 C2966 0.949 . S
C2963 C2964 1.349 . S
C2963 C2965 1.327 . S
C2963 H2986 0.950 . S
C2964 C2963 1.349 . S
C2964 C2976 1.349 . S
C2965 C2963 1.327 . S
C2965 C2981 1.429 . S
C2965 H2987 0.950 . S
C2966 H2962 0.949 . S
C2966 C2974 1.574 . S
C2966 C2982 1.368 . S
H2967 C2975 0.950 . S
H2968 C2973 0.950 . S
H2969 C2974 0.949 . S
H2970 C2976 0.950 . S
H2971 C2977 0.950 . S
H2972 C2978 0.949 . S
C2973 H2968 0.950 . S
C2973 C2975 1.327 . S
C2973 C2979 1.429 . S
C2974 C2966 1.574 . S
C2974 H2969 0.949 . S
C2974 C2980 1.368 . S
C2975 C2959 1.349 . S
C2975 H2967 0.950 . S
C2975 C2973 1.327 . S
C2976 C2964 1.349 . S
C2976 H2970 0.950 . S
C2976 C2977 1.327 . S
C2977 H2971 0.950 . S
C2977 C2976 1.327 . S
C2977 C2981 1.429 . S
C2978 C2961 1.574 . S
C2978 H2972 0.949 . S
C2978 C2982 1.368 . S
C2979 C2960 1.429 . S
C2979 C2973 1.429 . S
C2979 C2980 1.523 . S
C2980 C2961 1.368 . S
C2980 C2974 1.368 . S
C2980 C2979 1.523 . S
C2981 C2965 1.429 . S
C2981 C2977 1.429 . S
C2981 C2982 1.523 . S
C2982 C2966 1.368 . S
C2982 C2978 1.368 . S
C2982 C2981 1.523 . S
H2983 C2958 0.950 . S
H2984 C2960 0.950 . S
H2985 C2961 0.949 . S
H2986 C2963 0.950 . S
H2987 C2965 0.950 . S
C2988 C2989 1.349 . S
C2988 C2990 1.327 . S
C2988 H3013 0.950 . S
C2989 C2988 1.349 . S
C2989 C3005 1.349 . S
C2990 C2988 1.327 . S
C2990 C3009 1.429 . S
C2990 H3014 0.950 . S
C2991 C3008 1.574 . S
C2991 C3010 1.368 . S
C2991 H3015 0.949 . S
H2992 C2996 0.949 . S
C2993 C2994 1.349 . S
C2993 C2995 1.327 . S
C2993 H3016 0.950 . S
C2994 C2993 1.349 . S
C2994 C3006 1.349 . S
C2995 C2993 1.327 . S
C2995 C3011 1.429 . S
C2995 H3017 0.950 . S
C2996 H2992 0.949 . S
C2996 C3004 1.574 . S
C2996 C3012 1.368 . S
H2997 C3005 0.950 . S
H2998 C3003 0.950 . S
H2999 C3004 0.949 . S
H3000 C3006 0.950 . S
H3001 C3007 0.950 . S
H3002 C3008 0.949 . S
C3003 H2998 0.950 . S
C3003 C3005 1.327 . S
C3003 C3009 1.429 . S
C3004 C2996 1.574 . S
C3004 H2999 0.949 . S
C3004 C3010 1.368 . S
C3005 C2989 1.349 . S
C3005 H2997 0.950 . S
C3005 C3003 1.327 . S
C3006 C2994 1.349 . S
C3006 H3000 0.950 . S
C3006 C3007 1.327 . S
C3007 H3001 0.950 . S
C3007 C3006 1.327 . S
C3007 C3011 1.429 . S
C3008 C2991 1.574 . S
C3008 H3002 0.949 . S
C3008 C3012 1.368 . S
C3009 C2990 1.429 . S
C3009 C3003 1.429 . S
C3009 C3010 1.523 . S
C3010 C2991 1.368 . S
C3010 C3004 1.368 . S
C3010 C3009 1.523 . S
C3011 C2995 1.429 . S
C3011 C3007 1.429 . S
C3011 C3012 1.523 . S
C3012 C2996 1.368 . S
C3012 C3008 1.368 . S
C3012 C3011 1.523 . S
H3013 C2988 0.950 . S
H3014 C2990 0.950 . S
H3015 C2991 0.949 . S
H3016 C2993 0.950 . S
H3017 C2995 0.950 . S
C3018 C3019 1.349 . S
C3018 C3020 1.327 . S
C3018 H3043 0.950 . S
C3019 C3018 1.349 . S
C3019 C3035 1.349 . S
C3020 C3018 1.327 . S
C3020 C3039 1.429 . S
C3020 H3044 0.950 . S
C3021 C3038 1.574 1_556 S
C3021 C3040 1.368 . S
C3021 H3045 0.949 . S
H3022 C3026 0.949 . S
C3023 C3024 1.349 . S
C3023 C3025 1.327 . S
C3023 H3046 0.950 . S
C3024 C3023 1.349 . S
C3024 C3036 1.349 . S
C3025 C3023 1.327 . S
C3025 C3041 1.429 . S
C3025 H3047 0.950 . S
C3026 H3022 0.949 . S
C3026 C3034 1.578 . S
C3026 C3042 1.368 . S
H3027 C3035 0.950 . S
H3028 C3033 0.950 . S
H3029 C3034 0.947 1_556 S
H3030 C3036 0.950 . S
H3031 C3037 0.950 . S
H3032 C3038 0.949 . S
C3033 H3028 0.950 . S
C3033 C3035 1.327 . S
C3033 C3039 1.429 . S
C3034 C3026 1.578 . S
C3034 H3029 0.947 1_554 S
C3034 C3040 1.364 1_554 S
C3035 C3019 1.349 . S
C3035 H3027 0.950 . S
C3035 C3033 1.327 . S
C3036 C3024 1.349 . S
C3036 H3030 0.950 . S
C3036 C3037 1.327 . S
C3037 H3031 0.950 . S
C3037 C3036 1.327 . S
C3037 C3041 1.429 . S
C3038 C3021 1.574 1_554 S
C3038 H3032 0.949 . S
C3038 C3042 1.368 . S
C3039 C3020 1.429 . S
C3039 C3033 1.429 . S
C3039 C3040 1.523 . S
C3040 C3021 1.368 . S
C3040 C3034 1.364 1_556 S
C3040 C3039 1.523 . S
C3041 C3025 1.429 . S
C3041 C3037 1.429 . S
C3041 C3042 1.523 . S
C3042 C3026 1.368 . S
C3042 C3038 1.368 . S
C3042 C3041 1.523 . S
H3043 C3018 0.950 . S
H3044 C3020 0.950 . S
H3045 C3021 0.949 . S
H3046 C3023 0.950 . S
H3047 C3025 0.950 . S
C3048 C3049 1.349 . S
C3048 C3050 1.327 . S
C3048 H3073 0.950 . S
C3049 C3048 1.349 . S
C3049 C3065 1.349 . S
C3050 C3048 1.327 . S
C3050 C3069 1.429 . S
C3050 H3074 0.950 . S
C3051 C3068 1.574 . S
C3051 C3070 1.368 . S
C3051 H3075 0.949 . S
H3052 C3056 0.949 . S
C3053 C3054 1.349 . S
C3053 C3055 1.327 . S
C3053 H3076 0.950 . S
C3054 C3053 1.349 . S
C3054 C3066 1.349 . S
C3055 C3053 1.327 . S
C3055 C3071 1.429 . S
C3055 H3077 0.950 . S
C3056 H3052 0.949 . S
C3056 C3064 1.574 . S
C3056 C3072 1.368 . S
H3057 C3065 0.950 . S
H3058 C3063 0.950 . S
H3059 C3064 0.949 . S
H3060 C3066 0.950 . S
H3061 C3067 0.950 . S
H3062 C3068 0.949 . S
C3063 H3058 0.950 . S
C3063 C3065 1.327 . S
C3063 C3069 1.429 . S
C3064 C3056 1.574 . S
C3064 H3059 0.949 . S
C3064 C3070 1.368 . S
C3065 C3049 1.349 . S
C3065 H3057 0.950 . S
C3065 C3063 1.327 . S
C3066 C3054 1.349 . S
C3066 H3060 0.950 . S
C3066 C3067 1.327 . S
C3067 H3061 0.950 . S
C3067 C3066 1.327 . S
C3067 C3071 1.429 . S
C3068 C3051 1.574 . S
C3068 H3062 0.949 . S
C3068 C3072 1.368 . S
C3069 C3050 1.429 . S
C3069 C3063 1.429 . S
C3069 C3070 1.523 . S
C3070 C3051 1.368 . S
C3070 C3064 1.368 . S
C3070 C3069 1.523 . S
C3071 C3055 1.429 . S
C3071 C3067 1.429 . S
C3071 C3072 1.523 . S
C3072 C3056 1.368 . S
C3072 C3068 1.368 . S
C3072 C3071 1.523 . S
H3073 C3048 0.950 . S
H3074 C3050 0.950 . S
H3075 C3051 0.949 . S
H3076 C3053 0.950 . S
H3077 C3055 0.950 . S
C3078 C3079 1.349 . S
C3078 C3080 1.327 . S
C3078 H3103 0.950 . S
C3079 C3078 1.349 . S
C3079 C3095 1.349 . S
C3080 C3078 1.327 . S
C3080 C3099 1.429 . S
C3080 H3104 0.950 . S
C3081 C3098 1.605 . S
C3081 C3100 1.368 . S
C3081 H3105 0.949 . S
H3082 C3086 0.949 . S
C3083 C3084 1.349 . S
C3083 C3085 1.327 . S
C3083 H3106 0.950 . S
C3084 C3083 1.349 . S
C3084 C3096 1.349 . S
C3085 C3083 1.327 . S
C3085 C3101 1.429 . S
C3085 H3107 0.950 . S
C3086 H3082 0.949 . S
C3086 C3094 1.574 . S
C3086 C3102 1.368 . S
H3087 C3095 0.950 . S
H3088 C3093 0.950 . S
H3089 C3094 0.949 . S
H3090 C3096 0.950 . S
H3091 C3097 0.950 . S
H3092 C3098 0.959 . S
C3093 H3088 0.950 . S
C3093 C3095 1.327 . S
C3093 C3099 1.429 . S
C3094 C3086 1.574 . S
C3094 H3089 0.949 . S
C3094 C3100 1.368 1_545 S
C3095 C3079 1.349 . S
C3095 H3087 0.950 . S
C3095 C3093 1.327 . S
C3096 C3084 1.349 . S
C3096 H3090 0.950 . S
C3096 C3097 1.327 . S
C3097 H3091 0.950 . S
C3097 C3096 1.327 . S
C3097 C3101 1.429 . S
C3098 C3081 1.605 . S
C3098 H3092 0.959 . S
C3098 C3102 1.328 1_565 S
C3099 C3080 1.429 . S
C3099 C3093 1.429 . S
C3099 C3100 1.523 . S
C3100 C3081 1.368 . S
C3100 C3094 1.368 1_565 S
C3100 C3099 1.523 . S
C3101 C3085 1.429 . S
C3101 C3097 1.429 . S
C3101 C3102 1.523 . S
C3102 C3086 1.368 . S
C3102 C3098 1.328 1_545 S
C3102 C3101 1.523 . S
H3103 C3078 0.950 . S
H3104 C3080 0.950 . S
H3105 C3081 0.949 . S
H3106 C3083 0.950 . S
H3107 C3085 0.950 . S
C3108 C3109 1.349 . S
C3108 C3110 1.327 . S
C3108 H3133 0.950 . S
C3109 C3108 1.349 . S
C3109 C3125 1.349 . S
C3110 C3108 1.327 . S
C3110 C3129 1.429 . S
C3110 H3134 0.950 . S
C3111 C3128 1.542 1_556 S
C3111 C3130 1.368 . S
C3111 H3135 0.949 . S
H3112 C3116 0.949 . S
C3113 C3114 1.349 . S
C3113 C3115 1.327 . S
C3113 H3136 0.950 . S
C3114 C3113 1.349 . S
C3114 C3126 1.349 . S
C3115 C3113 1.327 . S
C3115 C3131 1.429 . S
C3115 H3137 0.950 . S
C3116 H3112 0.949 . S
C3116 C3124 1.543 1_554 S
C3116 C3132 1.368 . S
H3117 C3125 0.950 . S
H3118 C3123 0.950 . S
H3119 C3124 0.952 . S
H3120 C3126 0.950 . S
H3121 C3127 0.950 . S
H3122 C3128 0.952 . S
C3123 H3118 0.950 . S
C3123 C3125 1.327 . S
C3123 C3129 1.429 . S
C3124 C3116 1.543 1_556 S
C3124 H3119 0.952 . S
C3124 C3130 1.397 . S
C3125 C3109 1.349 . S
C3125 H3117 0.950 . S
C3125 C3123 1.327 . S
C3126 C3114 1.349 . S
C3126 H3120 0.950 . S
C3126 C3127 1.327 . S
C3127 H3121 0.950 . S
C3127 C3126 1.327 . S
C3127 C3131 1.429 . S
C3128 C3111 1.542 1_554 S
C3128 H3122 0.952 . S
C3128 C3132 1.399 . S
C3129 C3110 1.429 . S
C3129 C3123 1.429 . S
C3129 C3130 1.523 . S
C3130 C3111 1.368 . S
C3130 C3124 1.397 . S
C3130 C3129 1.523 . S
C3131 C3115 1.429 . S
C3131 C3127 1.429 . S
C3131 C3132 1.523 . S
C3132 C3116 1.368 . S
C3132 C3128 1.399 . S
C3132 C3131 1.523 . S
H3133 C3108 0.950 . S
H3134 C3110 0.950 . S
H3135 C3111 0.949 . S
H3136 C3113 0.950 . S
H3137 C3115 0.950 . S
C3138 C3139 1.349 . S
C3138 C3140 1.327 . S
C3138 H3163 0.950 . S
C3139 C3138 1.349 . S
C3139 C3155 1.349 . S
C3140 C3138 1.327 . S
C3140 C3159 1.429 . S
C3140 H3164 0.950 . S
C3141 C3158 1.574 . S
C3141 C3160 1.368 . S
C3141 H3165 0.949 . S
H3142 C3146 0.949 . S
C3143 C3144 1.349 . S
C3143 C3145 1.327 . S
C3143 H3166 0.950 . S
C3144 C3143 1.349 . S
C3144 C3156 1.349 . S
C3145 C3143 1.327 . S
C3145 C3161 1.429 . S
C3145 H3167 0.950 . S
C3146 H3142 0.949 . S
C3146 C3154 1.574 1_565 S
C3146 C3162 1.368 . S
H3147 C3155 0.950 . S
H3148 C3153 0.950 . S
H3149 C3154 0.944 1_565 S
H3150 C3156 0.950 . S
H3151 C3157 0.950 . S
H3152 C3158 0.949 . S
C3153 H3148 0.950 . S
C3153 C3155 1.327 . S
C3153 C3159 1.429 . S
C3154 C3146 1.574 1_545 S
C3154 H3149 0.944 1_545 S
C3154 C3160 1.368 . S
C3155 C3139 1.349 . S
C3155 H3147 0.950 . S
C3155 C3153 1.327 . S
C3156 C3144 1.349 . S
C3156 H3150 0.950 . S
C3156 C3157 1.327 . S
C3157 H3151 0.950 . S
C3157 C3156 1.327 . S
C3157 C3161 1.429 . S
C3158 C3141 1.574 . S
C3158 H3152 0.949 . S
C3158 C3162 1.368 1_545 S
C3159 C3140 1.429 . S
C3159 C3153 1.429 . S
C3159 C3160 1.523 . S
C3160 C3141 1.368 . S
C3160 C3154 1.368 . S
C3160 C3159 1.523 . S
C3161 C3145 1.429 . S
C3161 C3157 1.429 . S
C3161 C3162 1.523 . S
C3162 C3146 1.368 . S
C3162 C3158 1.368 1_565 S
C3162 C3161 1.523 . S
H3163 C3138 0.950 . S
H3164 C3140 0.950 . S
H3165 C3141 0.949 . S
H3166 C3143 0.950 . S
H3167 C3145 0.950 . S
C3168 C3169 1.349 . S
C3168 C3170 1.327 . S
C3168 H3193 0.950 . S
C3169 C3168 1.349 . S
C3169 C3185 1.349 . S
C3170 C3168 1.327 . S
C3170 C3189 1.429 . S
C3170 H3194 0.950 . S
C3171 C3188 1.574 . S
C3171 C3190 1.368 . S
C3171 H3195 0.949 . S
H3172 C3176 0.949 . S
C3173 C3174 1.349 . S
C3173 C3175 1.327 . S
C3173 H3196 0.950 . S
C3174 C3173 1.349 . S
C3174 C3186 1.349 . S
C3175 C3173 1.327 . S
C3175 C3191 1.429 . S
C3175 H3197 0.950 . S
C3176 H3172 0.949 . S
C3176 C3184 1.574 . S
C3176 C3192 1.368 . S
H3177 C3185 0.950 . S
H3178 C3183 0.950 . S
H3179 C3184 0.949 . S
H3180 C3186 0.950 . S
H3181 C3187 0.950 . S
H3182 C3188 0.949 . S
C3183 H3178 0.950 . S
C3183 C3185 1.327 . S
C3183 C3189 1.429 . S
C3184 C3176 1.574 . S
C3184 H3179 0.949 . S
C3184 C3190 1.368 . S
C3185 C3169 1.349 . S
C3185 H3177 0.950 . S
C3185 C3183 1.327 . S
C3186 C3174 1.349 . S
C3186 H3180 0.950 . S
C3186 C3187 1.327 . S
C3187 H3181 0.950 . S
C3187 C3186 1.327 . S
C3187 C3191 1.429 . S
C3188 C3171 1.574 . S
C3188 H3182 0.949 . S
C3188 C3192 1.368 . S
C3189 C3170 1.429 . S
C3189 C3183 1.429 . S
C3189 C3190 1.523 . S
C3190 C3171 1.368 . S
C3190 C3184 1.368 . S
C3190 C3189 1.523 . S
C3191 C3175 1.429 . S
C3191 C3187 1.429 . S
C3191 C3192 1.523 . S
C3192 C3176 1.368 . S
C3192 C3188 1.368 . S
C3192 C3191 1.523 . S
H3193 C3168 0.950 . S
H3194 C3170 0.950 . S
H3195 C3171 0.949 . S
H3196 C3173 0.950 . S
H3197 C3175 0.950 . S
C3198 C3199 1.349 . S
C3198 C3200 1.327 . S
C3198 H3223 0.950 . S
C3199 C3198 1.349 . S
C3199 C3215 1.349 . S
C3200 C3198 1.327 . S
C3200 C3219 1.429 . S
C3200 H3224 0.950 . S
C3201 C3218 1.575 . S
C3201 C3220 1.367 1_455 S
C3201 H3225 0.947 1_455 S
H3202 C3206 0.949 . S
C3203 C3204 1.349 . S
C3203 C3205 1.327 . S
C3203 H3226 0.950 . S
C3204 C3203 1.349 . S
C3204 C3216 1.349 . S
C3205 C3203 1.327 . S
C3205 C3221 1.429 . S
C3205 H3227 0.950 . S
C3206 H3202 0.949 . S
C3206 C3214 1.574 1_455 S
C3206 C3222 1.368 . S
H3207 C3215 0.950 . S
H3208 C3213 0.950 . S
H3209 C3214 0.949 . S
H3210 C3216 0.950 . S
H3211 C3217 0.950 . S
H3212 C3218 0.949 . S
C3213 H3208 0.950 . S
C3213 C3215 1.327 . S
C3213 C3219 1.429 . S
C3214 C3206 1.574 1_655 S
C3214 H3209 0.949 . S
C3214 C3220 1.368 . S
C3215 C3199 1.349 . S
C3215 H3207 0.950 . S
C3215 C3213 1.327 . S
C3216 C3204 1.349 . S
C3216 H3210 0.950 . S
C3216 C3217 1.327 . S
C3217 H3211 0.950 . S
C3217 C3216 1.327 . S
C3217 C3221 1.429 . S
C3218 C3201 1.575 . S
C3218 H3212 0.949 . S
C3218 C3222 1.368 . S
C3219 C3200 1.429 . S
C3219 C3213 1.429 . S
C3219 C3220 1.523 . S
C3220 C3201 1.367 1_655 S
C3220 C3214 1.368 . S
C3220 C3219 1.523 . S
C3221 C3205 1.429 . S
C3221 C3217 1.429 . S
C3221 C3222 1.523 . S
C3222 C3206 1.368 . S
C3222 C3218 1.368 . S
C3222 C3221 1.523 . S
H3223 C3198 0.950 . S
H3224 C3200 0.950 . S
H3225 C3201 0.947 1_655 S
H3226 C3203 0.950 . S
H3227 C3205 0.950 . S
C3228 C3229 1.349 . S
C3228 C3230 1.327 . S
C3228 H3253 0.950 . S
C3229 C3228 1.349 . S
C3229 C3245 1.349 . S
C3230 C3228 1.327 . S
C3230 C3249 1.429 . S
C3230 H3254 0.950 . S
C3231 C3248 1.574 1_655 S
C3231 C3250 1.368 . S
C3231 H3255 0.949 . S
H3232 C3236 0.949 . S
C3233 C3234 1.349 . S
C3233 C3235 1.327 . S
C3233 H3256 0.950 . S
C3234 C3233 1.349 . S
C3234 C3246 1.349 . S
C3235 C3233 1.327 . S
C3235 C3251 1.429 . S
C3235 H3257 0.950 . S
C3236 H3232 0.949 . S
C3236 C3244 1.574 . S
C3236 C3252 1.368 . S
H3237 C3245 0.950 . S
H3238 C3243 0.950 . S
H3239 C3244 0.953 . S
H3240 C3246 0.950 . S
H3241 C3247 0.950 . S
H3242 C3248 0.949 . S
C3243 H3238 0.950 . S
C3243 C3245 1.327 . S
C3243 C3249 1.429 . S
C3244 C3236 1.574 . S
C3244 H3239 0.953 . S
C3244 C3250 1.368 1_455 S
C3245 C3229 1.349 . S
C3245 H3237 0.950 . S
C3245 C3243 1.327 . S
C3246 C3234 1.349 . S
C3246 H3240 0.950 . S
C3246 C3247 1.327 . S
C3247 H3241 0.950 . S
C3247 C3246 1.327 . S
C3247 C3251 1.429 . S
C3248 C3231 1.574 1_455 S
C3248 H3242 0.949 . S
C3248 C3252 1.368 . S
C3249 C3230 1.429 . S
C3249 C3243 1.429 . S
C3249 C3250 1.523 . S
C3250 C3231 1.368 . S
C3250 C3244 1.368 1_655 S
C3250 C3249 1.523 . S
C3251 C3235 1.429 . S
C3251 C3247 1.429 . S
C3251 C3252 1.523 . S
C3252 C3236 1.368 . S
C3252 C3248 1.368 . S
C3252 C3251 1.523 . S
H3253 C3228 0.950 . S
H3254 C3230 0.950 . S
H3255 C3231 0.949 . S
H3256 C3233 0.950 . S
H3257 C3235 0.950 . S
C3258 C3259 1.349 . S
C3258 C3260 1.327 . S
C3258 H3283 0.950 . S
C3259 C3258 1.349 . S
C3259 C3275 1.349 . S
C3260 C3258 1.327 . S
C3260 C3279 1.429 . S
C3260 H3284 0.950 . S
C3261 C3278 1.574 . S
C3261 C3280 1.368 . S
C3261 H3285 0.949 . S
H3262 C3266 0.949 . S
C3263 C3264 1.349 . S
C3263 C3265 1.327 . S
C3263 H3286 0.950 . S
C3264 C3263 1.349 . S
C3264 C3276 1.349 . S
C3265 C3263 1.327 . S
C3265 C3281 1.429 . S
C3265 H3287 0.950 . S
C3266 H3262 0.949 . S
C3266 C3274 1.574 . S
C3266 C3282 1.368 . S
H3267 C3275 0.950 . S
H3268 C3273 0.950 . S
H3269 C3274 0.949 . S
H3270 C3276 0.950 . S
H3271 C3277 0.950 . S
H3272 C3278 0.949 . S
C3273 H3268 0.950 . S
C3273 C3275 1.327 . S
C3273 C3279 1.429 . S
C3274 C3266 1.574 . S
C3274 H3269 0.949 . S
C3274 C3280 1.368 . S
C3275 C3259 1.349 . S
C3275 H3267 0.950 . S
C3275 C3273 1.327 . S
C3276 C3264 1.349 . S
C3276 H3270 0.950 . S
C3276 C3277 1.327 . S
C3277 H3271 0.950 . S
C3277 C3276 1.327 . S
C3277 C3281 1.429 . S
C3278 C3261 1.574 . S
C3278 H3272 0.949 . S
C3278 C3282 1.368 . S
C3279 C3260 1.429 . S
C3279 C3273 1.429 . S
C3279 C3280 1.523 . S
C3280 C3261 1.368 . S
C3280 C3274 1.368 . S
C3280 C3279 1.523 . S
C3281 C3265 1.429 . S
C3281 C3277 1.429 . S
C3281 C3282 1.523 . S
C3282 C3266 1.368 . S
C3282 C3278 1.368 . S
C3282 C3281 1.523 . S
H3283 C3258 0.950 . S
H3284 C3260 0.950 . S
H3285 C3261 0.949 . S
H3286 C3263 0.950 . S
H3287 C3265 0.950 . S
C3288 C3289 1.349 . S
C3288 C3290 1.327 . S
C3288 H3313 0.950 . S
C3289 C3288 1.349 . S
C3289 C3305 1.349 . S
C3290 C3288 1.327 . S
C3290 C3309 1.429 . S
C3290 H3314 0.950 . S
C3291 C3308 1.574 . S
C3291 C3310 1.368 1_455 S
C3291 H3315 0.949 . S
H3292 C3296 0.949 . S
C3293 C3294 1.349 . S
C3293 C3295 1.327 . S
C3293 H3316 0.950 . S
C3294 C3293 1.349 . S
C3294 C3306 1.349 . S
C3295 C3293 1.327 . S
C3295 C3311 1.429 . S
C3295 H3317 0.950 . S
C3296 H3292 0.949 . S
C3296 C3304 1.574 1_455 S
C3296 C3312 1.368 . S
H3297 C3305 0.950 . S
H3298 C3303 0.950 . S
H3299 C3304 0.949 . S
H3300 C3306 0.950 . S
H3301 C3307 0.950 . S
H3302 C3308 0.949 . S
C3303 H3298 0.950 . S
C3303 C3305 1.327 . S
C3303 C3309 1.429 . S
C3304 C3296 1.574 1_655 S
C3304 H3299 0.949 . S
C3304 C3310 1.368 . S
C3305 C3289 1.349 . S
C3305 H3297 0.950 . S
C3305 C3303 1.327 . S
C3306 C3294 1.349 . S
C3306 H3300 0.950 . S
C3306 C3307 1.327 . S
C3307 H3301 0.950 . S
C3307 C3306 1.327 . S
C3307 C3311 1.429 . S
C3308 C3291 1.574 . S
C3308 H3302 0.949 . S
C3308 C3312 1.368 . S
C3309 C3290 1.429 . S
C3309 C3303 1.429 . S
C3309 C3310 1.523 . S
C3310 C3291 1.368 1_655 S
C3310 C3304 1.368 . S
C3310 C3309 1.523 . S
C3311 C3295 1.429 . S
C3311 C3307 1.429 . S
C3311 C3312 1.523 . S
C3312 C3296 1.368 . S
C3312 C3308 1.368 . S
C3312 C3311 1.523 . S
H3313 C3288 0.950 . S
H3314 C3290 0.950 . S
H3315 C3291 0.949 . S
H3316 C3293 0.950 . S
H3317 C3295 0.950 . S
C3318 C3319 1.349 . S
C3318 C3320 1.327 . S
C3318 H3343 0.950 . S
C3319 C3318 1.349 . S
C3319 C3335 1.349 . S
C3320 C3318 1.327 . S
C3320 C3339 1.429 . S
C3320 H3344 0.950 . S
C3321 C3338 1.589 . S
C3321 C3340 1.354 1_655 S
C3321 H3345 0.949 1_655 S
H3322 C3326 0.949 . S
C3323 C3324 1.349 . S
C3323 C3325 1.327 . S
C3323 H3346 0.950 . S
C3324 C3323 1.349 . S
C3324 C3336 1.349 . S
C3325 C3323 1.327 . S
C3325 C3341 1.429 . S
C3325 H3347 0.950 . S
C3326 H3322 0.949 . S
C3326 C3334 1.574 1_655 S
C3326 C3342 1.368 . S
H3327 C3335 0.950 . S
H3328 C3333 0.950 . S
H3329 C3334 0.949 . S
H3330 C3336 0.950 . S
H3331 C3337 0.950 . S
H3332 C3338 0.949 . S
C3333 H3328 0.950 . S
C3333 C3335 1.327 . S
C3333 C3339 1.429 . S
C3334 C3326 1.574 1_455 S
C3334 H3329 0.949 . S
C3334 C3340 1.368 . S
C3335 C3319 1.349 . S
C3335 H3327 0.950 . S
C3335 C3333 1.327 . S
C3336 C3324 1.349 . S
C3336 H3330 0.950 . S
C3336 C3337 1.327 . S
C3337 H3331 0.950 . S
C3337 C3336 1.327 . S
C3337 C3341 1.429 . S
C3338 C3321 1.589 . S
C3338 H3332 0.949 . S
C3338 C3342 1.368 . S
C3339 C3320 1.429 . S
C3339 C3333 1.429 . S
C3339 C3340 1.523 . S
C3340 C3321 1.354 1_455 S
C3340 C3334 1.368 . S
C3340 C3339 1.523 . S
C3341 C3325 1.429 . S
C3341 C3337 1.429 . S
C3341 C3342 1.523 . S
C3342 C3326 1.368 . S
C3342 C3338 1.368 . S
C3342 C3341 1.523 . S
H3343 C3318 0.950 . S
H3344 C3320 0.950 . S
H3345 C3321 0.949 1_455 S
H3346 C3323 0.950 . S
H3347 C3325 0.950 . S
C3348 C3349 1.349 . S
C3348 C3350 1.327 . S
C3348 H3373 0.950 . S
C3349 C3348 1.349 . S
C3349 C3365 1.349 . S
C3350 C3348 1.327 . S
C3350 C3369 1.429 . S
C3350 H3374 0.950 . S
C3351 C3368 1.574 . S
C3351 C3370 1.368 . S
C3351 H3375 0.949 . S
H3352 C3356 0.949 . S
C3353 C3354 1.349 . S
C3353 C3355 1.327 . S
C3353 H3376 0.950 . S
C3354 C3353 1.349 . S
C3354 C3366 1.349 . S
C3355 C3353 1.327 . S
C3355 C3371 1.429 . S
C3355 H3377 0.950 . S
C3356 H3352 0.949 . S
C3356 C3364 1.574 . S
C3356 C3372 1.368 . S
H3357 C3365 0.950 . S
H3358 C3363 0.950 . S
H3359 C3364 0.949 . S
H3360 C3366 0.950 . S
H3361 C3367 0.950 . S
H3362 C3368 0.949 . S
C3363 H3358 0.950 . S
C3363 C3365 1.327 . S
C3363 C3369 1.429 . S
C3364 C3356 1.574 . S
C3364 H3359 0.949 . S
C3364 C3370 1.368 . S
C3365 C3349 1.349 . S
C3365 H3357 0.950 . S
C3365 C3363 1.327 . S
C3366 C3354 1.349 . S
C3366 H3360 0.950 . S
C3366 C3367 1.327 . S
C3367 H3361 0.950 . S
C3367 C3366 1.327 . S
C3367 C3371 1.429 . S
C3368 C3351 1.574 . S
C3368 H3362 0.949 . S
C3368 C3372 1.368 . S
C3369 C3350 1.429 . S
C3369 C3363 1.429 . S
C3369 C3370 1.523 . S
C3370 C3351 1.368 . S
C3370 C3364 1.368 . S
C3370 C3369 1.523 . S
C3371 C3355 1.429 . S
C3371 C3367 1.429 . S
C3371 C3372 1.523 . S
C3372 C3356 1.368 . S
C3372 C3368 1.368 . S
C3372 C3371 1.523 . S
H3373 C3348 0.950 . S
H3374 C3350 0.950 . S
H3375 C3351 0.949 . S
H3376 C3353 0.950 . S
H3377 C3355 0.950 . S
C3378 C3379 1.349 . S
C3378 C3380 1.327 . S
C3378 H3403 0.950 . S
C3379 C3378 1.349 . S
C3379 C3395 1.349 . S
C3380 C3378 1.327 . S
C3380 C3399 1.429 . S
C3380 H3404 0.950 . S
C3381 C3398 1.574 1_545 S
C3381 C3400 1.368 . S
C3381 H3405 0.949 . S
H3382 C3386 0.949 . S
C3383 C3384 1.349 . S
C3383 C3385 1.327 . S
C3383 H3406 0.950 . S
C3384 C3383 1.349 . S
C3384 C3396 1.349 . S
C3385 C3383 1.327 . S
C3385 C3401 1.429 . S
C3385 H3407 0.950 . S
C3386 H3382 0.949 . S
C3386 C3394 1.574 . S
C3386 C3402 1.368 . S
H3387 C3395 0.950 . S
H3388 C3393 0.950 . S
H3389 C3394 0.949 1_545 S
H3390 C3396 0.950 . S
H3391 C3397 0.950 . S
H3392 C3398 0.949 . S
C3393 H3388 0.950 . S
C3393 C3395 1.327 . S
C3393 C3399 1.429 . S
C3394 C3386 1.574 . S
C3394 H3389 0.949 1_565 S
C3394 C3400 1.368 1_565 S
C3395 C3379 1.349 . S
C3395 H3387 0.950 . S
C3395 C3393 1.327 . S
C3396 C3384 1.349 . S
C3396 H3390 0.950 . S
C3396 C3397 1.327 . S
C3397 H3391 0.950 . S
C3397 C3396 1.327 . S
C3397 C3401 1.429 . S
C3398 C3381 1.574 1_565 S
C3398 H3392 0.949 . S
C3398 C3402 1.368 . S
C3399 C3380 1.429 . S
C3399 C3393 1.429 . S
C3399 C3400 1.523 . S
C3400 C3381 1.368 . S
C3400 C3394 1.368 1_545 S
C3400 C3399 1.523 . S
C3401 C3385 1.429 . S
C3401 C3397 1.429 . S
C3401 C3402 1.523 . S
C3402 C3386 1.368 . S
C3402 C3398 1.368 . S
C3402 C3401 1.523 . S
H3403 C3378 0.950 . S
H3404 C3380 0.950 . S
H3405 C3381 0.949 . S
H3406 C3383 0.950 . S
H3407 C3385 0.950 . S
C3408 C3409 1.349 . S
C3408 C3410 1.327 . S
C3408 H3433 0.950 . S
C3409 C3408 1.349 . S
C3409 C3425 1.349 . S
C3410 C3408 1.327 . S
C3410 C3429 1.429 . S
C3410 H3434 0.950 . S
C3411 C3428 1.595 . S
C3411 C3430 1.368 . S
C3411 H3435 0.949 . S
H3412 C3416 0.949 . S
C3413 C3414 1.349 . S
C3413 C3415 1.327 . S
C3413 H3436 0.950 . S
C3414 C3413 1.349 . S
C3414 C3426 1.349 . S
C3415 C3413 1.327 . S
C3415 C3431 1.429 . S
C3415 H3437 0.950 . S
C3416 H3412 0.949 . S
C3416 C3424 1.574 1_556 S
C3416 C3432 1.368 . S
H3417 C3425 0.950 . S
H3418 C3423 0.950 . S
H3419 C3424 0.949 . S
H3420 C3426 0.950 . S
H3421 C3427 0.950 . S
H3422 C3428 0.945 1_556 S
C3423 H3418 0.950 . S
C3423 C3425 1.327 . S
C3423 C3429 1.429 . S
C3424 C3416 1.574 1_554 S
C3424 H3419 0.949 . S
C3424 C3430 1.368 . S
C3425 C3409 1.349 . S
C3425 H3417 0.950 . S
C3425 C3423 1.327 . S
C3426 C3414 1.349 . S
C3426 H3420 0.950 . S
C3426 C3427 1.327 . S
C3427 H3421 0.950 . S
C3427 C3426 1.327 . S
C3427 C3431 1.429 . S
C3428 C3411 1.595 . S
C3428 H3422 0.945 1_554 S
C3428 C3432 1.352 1_554 S
C3429 C3410 1.429 . S
C3429 C3423 1.429 . S
C3429 C3430 1.523 . S
C3430 C3411 1.368 . S
C3430 C3424 1.368 . S
C3430 C3429 1.523 . S
C3431 C3415 1.429 . S
C3431 C3427 1.429 . S
C3431 C3432 1.523 . S
C3432 C3416 1.368 . S
C3432 C3428 1.352 1_556 S
C3432 C3431 1.523 . S
H3433 C3408 0.950 . S
H3434 C3410 0.950 . S
H3435 C3411 0.949 . S
H3436 C3413 0.950 . S
H3437 C3415 0.950 . S
C3438 C3439 1.349 . S
C3438 C3440 1.327 . S
C3438 H3463 0.950 . S
C3439 C3438 1.349 . S
C3439 C3455 1.349 . S
C3440 C3438 1.327 . S
C3440 C3459 1.429 . S
C3440 H3464 0.950 . S
C3441 C3458 1.574 . S
C3441 C3460 1.368 . S
C3441 H3465 0.949 . S
H3442 C3446 0.949 . S
C3443 C3444 1.349 . S
C3443 C3445 1.327 . S
C3443 H3466 0.950 . S
C3444 C3443 1.349 . S
C3444 C3456 1.349 . S
C3445 C3443 1.327 . S
C3445 C3461 1.429 . S
C3445 H3467 0.950 . S
C3446 H3442 0.949 . S
C3446 C3454 1.574 1_545 S
C3446 C3462 1.368 . S
H3447 C3455 0.950 . S
H3448 C3453 0.950 . S
H3449 C3454 0.949 . S
H3450 C3456 0.950 . S
H3451 C3457 0.950 . S
H3452 C3458 0.949 . S
C3453 H3448 0.950 . S
C3453 C3455 1.327 . S
C3453 C3459 1.429 . S
C3454 C3446 1.574 1_565 S
C3454 H3449 0.949 . S
C3454 C3460 1.368 . S
C3455 C3439 1.349 . S
C3455 H3447 0.950 . S
C3455 C3453 1.327 . S
C3456 C3444 1.349 . S
C3456 H3450 0.950 . S
C3456 C3457 1.327 . S
C3457 H3451 0.950 . S
C3457 C3456 1.327 . S
C3457 C3461 1.429 . S
C3458 C3441 1.574 . S
C3458 H3452 0.949 . S
C3458 C3462 1.368 1_565 S
C3459 C3440 1.429 . S
C3459 C3453 1.429 . S
C3459 C3460 1.523 . S
C3460 C3441 1.368 . S
C3460 C3454 1.368 . S
C3460 C3459 1.523 . S
C3461 C3445 1.429 . S
C3461 C3457 1.429 . S
C3461 C3462 1.523 . S
C3462 C3446 1.368 . S
C3462 C3458 1.368 1_545 S
C3462 C3461 1.523 . S
H3463 C3438 0.950 . S
H3464 C3440 0.950 . S
H3465 C3441 0.949 . S
H3466 C3443 0.950 . S
H3467 C3445 0.950 . S
C3468 C3469 1.349 . S
C3468 C3470 1.327 . S
C3468 H3493 0.950 . S
C3469 C3468 1.349 . S
C3469 C3485 1.349 . S
C3470 C3468 1.327 . S
C3470 C3489 1.429 . S
C3470 H3494 0.950 . S
C3471 C3488 1.574 . S
C3471 C3490 1.368 . S
C3471 H3495 0.949 . S
H3472 C3476 0.949 . S
C3473 C3474 1.349 . S
C3473 C3475 1.327 . S
C3473 H3496 0.950 . S
C3474 C3473 1.349 . S
C3474 C3486 1.349 . S
C3475 C3473 1.327 . S
C3475 C3491 1.429 . S
C3475 H3497 0.950 . S
C3476 H3472 0.949 . S
C3476 C3484 1.574 . S
C3476 C3492 1.368 . S
H3477 C3485 0.950 . S
H3478 C3483 0.950 . S
H3479 C3484 0.949 . S
H3480 C3486 0.950 . S
H3481 C3487 0.950 . S
H3482 C3488 0.949 . S
C3483 H3478 0.950 . S
C3483 C3485 1.327 . S
C3483 C3489 1.429 . S
C3484 C3476 1.574 . S
C3484 H3479 0.949 . S
C3484 C3490 1.368 . S
C3485 C3469 1.349 . S
C3485 H3477 0.950 . S
C3485 C3483 1.327 . S
C3486 C3474 1.349 . S
C3486 H3480 0.950 . S
C3486 C3487 1.327 . S
C3487 H3481 0.950 . S
C3487 C3486 1.327 . S
C3487 C3491 1.429 . S
C3488 C3471 1.574 . S
C3488 H3482 0.949 . S
C3488 C3492 1.368 . S
C3489 C3470 1.429 . S
C3489 C3483 1.429 . S
C3489 C3490 1.523 . S
C3490 C3471 1.368 . S
C3490 C3484 1.368 . S
C3490 C3489 1.523 . S
C3491 C3475 1.429 . S
C3491 C3487 1.429 . S
C3491 C3492 1.523 . S
C3492 C3476 1.368 . S
C3492 C3488 1.368 . S
C3492 C3491 1.523 . S
H3493 C3468 0.950 . S
H3494 C3470 0.950 . S
H3495 C3471 0.949 . S
H3496 C3473 0.950 . S
H3497 C3475 0.950 . S
C3498 C3499 1.349 . S
C3498 C3500 1.327 . S
C3498 H3523 0.950 . S
C3499 C3498 1.349 . S
C3499 C3515 1.349 . S
C3500 C3498 1.327 . S
C3500 C3519 1.429 . S
C3500 H3524 0.950 . S
C3501 C3518 1.574 1_554 S
C3501 C3520 1.368 . S
C3501 H3525 0.949 . S
H3502 C3506 0.949 . S
C3503 C3504 1.349 . S
C3503 C3505 1.327 . S
C3503 H3526 0.950 . S
C3504 C3503 1.349 . S
C3504 C3516 1.349 . S
C3505 C3503 1.327 . S
C3505 C3521 1.429 . S
C3505 H3527 0.950 . S
C3506 H3502 0.949 . S
C3506 C3514 1.574 . S
C3506 C3522 1.368 . S
H3507 C3515 0.950 . S
H3508 C3513 0.950 . S
H3509 C3514 0.949 . S
H3510 C3516 0.950 . S
H3511 C3517 0.950 . S
H3512 C3518 0.949 . S
C3513 H3508 0.950 . S
C3513 C3515 1.327 . S
C3513 C3519 1.429 . S
C3514 C3506 1.574 . S
C3514 H3509 0.949 . S
C3514 C3520 1.368 1_556 S
C3515 C3499 1.349 . S
C3515 H3507 0.950 . S
C3515 C3513 1.327 . S
C3516 C3504 1.349 . S
C3516 H3510 0.950 . S
C3516 C3517 1.327 . S
C3517 H3511 0.950 . S
C3517 C3516 1.327 . S
C3517 C3521 1.429 . S
C3518 C3501 1.574 1_556 S
C3518 H3512 0.949 . S
C3518 C3522 1.368 . S
C3519 C3500 1.429 . S
C3519 C3513 1.429 . S
C3519 C3520 1.523 . S
C3520 C3501 1.368 . S
C3520 C3514 1.368 1_554 S
C3520 C3519 1.523 . S
C3521 C3505 1.429 . S
C3521 C3517 1.429 . S
C3521 C3522 1.523 . S
C3522 C3506 1.368 . S
C3522 C3518 1.368 . S
C3522 C3521 1.523 . S
H3523 C3498 0.950 . S
H3524 C3500 0.950 . S
H3525 C3501 0.949 . S
H3526 C3503 0.950 . S
H3527 C3505 0.950 . S
C3528 C3529 1.349 . S
C3528 C3530 1.327 . S
C3528 H3553 0.950 . S
C3529 C3528 1.349 . S
C3529 C3545 1.349 . S
C3530 C3528 1.327 . S
C3530 C3549 1.429 . S
C3530 H3554 0.950 . S
C3531 C3548 1.574 . S
C3531 C3550 1.368 . S
C3531 H3555 0.949 . S
H3532 C3536 0.949 . S
C3533 C3534 1.349 . S
C3533 C3535 1.327 . S
C3533 H3556 0.950 . S
C3534 C3533 1.349 . S
C3534 C3546 1.349 . S
C3535 C3533 1.327 . S
C3535 C3551 1.429 . S
C3535 H3557 0.950 . S
C3536 H3532 0.949 . S
C3536 C3544 1.574 . S
C3536 C3552 1.368 . S
H3537 C3545 0.950 . S
H3538 C3543 0.950 . S
H3539 C3544 0.949 . S
H3540 C3546 0.950 . S
H3541 C3547 0.950 . S
H3542 C3548 0.949 . S
C3543 H3538 0.950 . S
C3543 C3545 1.327 . S
C3543 C3549 1.429 . S
C3544 C3536 1.574 . S
C3544 H3539 0.949 . S
C3544 C3550 1.368 . S
C3545 C3529 1.349 . S
C3545 H3537 0.950 . S
C3545 C3543 1.327 . S
C3546 C3534 1.349 . S
C3546 H3540 0.950 . S
C3546 C3547 1.327 . S
C3547 H3541 0.950 . S
C3547 C3546 1.327 . S
C3547 C3551 1.429 . S
C3548 C3531 1.574 . S
C3548 H3542 0.949 . S
C3548 C3552 1.368 . S
C3549 C3530 1.429 . S
C3549 C3543 1.429 . S
C3549 C3550 1.523 . S
C3550 C3531 1.368 . S
C3550 C3544 1.368 . S
C3550 C3549 1.523 . S
C3551 C3535 1.429 . S
C3551 C3547 1.429 . S
C3551 C3552 1.523 . S
C3552 C3536 1.368 . S
C3552 C3548 1.368 . S
C3552 C3551 1.523 . S
H3553 C3528 0.950 . S
H3554 C3530 0.950 . S
H3555 C3531 0.949 . S
H3556 C3533 0.950 . S
H3557 C3535 0.950 . S
C3558 C3559 1.349 . S
C3558 C3560 1.327 . S
C3558 H3583 0.950 . S
C3559 C3558 1.349 . S
C3559 C3575 1.349 . S
C3560 C3558 1.327 . S
C3560 C3579 1.429 . S
C3560 H3584 0.950 . S
C3561 C3578 1.574 . S
C3561 C3580 1.368 . S
C3561 H3585 0.949 . S
H3562 C3566 0.949 . S
C3563 C3564 1.349 . S
C3563 C3565 1.327 . S
C3563 H3586 0.950 . S
C3564 C3563 1.349 . S
C3564 C3576 1.349 . S
C3565 C3563 1.327 . S
C3565 C3581 1.429 . S
C3565 H3587 0.950 . S
C3566 H3562 0.949 . S
C3566 C3574 1.574 . S
C3566 C3582 1.368 . S
H3567 C3575 0.950 . S
H3568 C3573 0.950 . S
H3569 C3574 0.949 . S
H3570 C3576 0.950 . S
H3571 C3577 0.950 . S
H3572 C3578 0.949 . S
C3573 H3568 0.950 . S
C3573 C3575 1.327 . S
C3573 C3579 1.429 . S
C3574 C3566 1.574 . S
C3574 H3569 0.949 . S
C3574 C3580 1.368 . S
C3575 C3559 1.349 . S
C3575 H3567 0.950 . S
C3575 C3573 1.327 . S
C3576 C3564 1.349 . S
C3576 H3570 0.950 . S
C3576 C3577 1.327 . S
C3577 H3571 0.950 . S
C3577 C3576 1.327 . S
C3577 C3581 1.429 . S
C3578 C3561 1.574 . S
C3578 H3572 0.949 . S
C3578 C3582 1.368 . S
C3579 C3560 1.429 . S
C3579 C3573 1.429 . S
C3579 C3580 1.523 . S
C3580 C3561 1.368 . S
C3580 C3574 1.368 . S
C3580 C3579 1.523 . S
C3581 C3565 1.429 . S
C3581 C3577 1.429 . S
C3581 C3582 1.523 . S
C3582 C3566 1.368 . S
C3582 C3578 1.368 . S
C3582 C3581 1.523 . S
H3583 C3558 0.950 . S
H3584 C3560 0.950 . S
H3585 C3561 0.949 . S
H3586 C3563 0.950 . S
H3587 C3565 0.950 . S
C3588 C3589 1.349 . S
C3588 C3590 1.327 . S
C3588 H3613 0.950 . S
C3589 C3588 1.349 . S
C3589 C3605 1.349 . S
C3590 C3588 1.327 . S
C3590 C3609 1.429 . S
C3590 H3614 0.950 . S
C3591 C3608 1.574 . S
C3591 C3610 1.368 . S
C3591 H3615 0.949 . S
H3592 C3596 0.949 . S
C3593 C3594 1.349 . S
C3593 C3595 1.327 . S
C3593 H3616 0.950 . S
C3594 C3593 1.349 . S
C3594 C3606 1.349 . S
C3595 C3593 1.327 . S
C3595 C3611 1.429 . S
C3595 H3617 0.950 . S
C3596 H3592 0.949 . S
C3596 C3604 1.574 . S
C3596 C3612 1.368 . S
H3597 C3605 0.950 . S
H3598 C3603 0.950 . S
H3599 C3604 0.949 . S
H3600 C3606 0.950 . S
H3601 C3607 0.950 . S
H3602 C3608 0.949 . S
C3603 H3598 0.950 . S
C3603 C3605 1.327 . S
C3603 C3609 1.429 . S
C3604 C3596 1.574 . S
C3604 H3599 0.949 . S
C3604 C3610 1.368 . S
C3605 C3589 1.349 . S
C3605 H3597 0.950 . S
C3605 C3603 1.327 . S
C3606 C3594 1.349 . S
C3606 H3600 0.950 . S
C3606 C3607 1.327 . S
C3607 H3601 0.950 . S
C3607 C3606 1.327 . S
C3607 C3611 1.429 . S
C3608 C3591 1.574 . S
C3608 H3602 0.949 . S
C3608 C3612 1.368 . S
C3609 C3590 1.429 . S
C3609 C3603 1.429 . S
C3609 C3610 1.523 . S
C3610 C3591 1.368 . S
C3610 C3604 1.368 . S
C3610 C3609 1.523 . S
C3611 C3595 1.429 . S
C3611 C3607 1.429 . S
C3611 C3612 1.523 . S
C3612 C3596 1.368 . S
C3612 C3608 1.368 . S
C3612 C3611 1.523 . S
H3613 C3588 0.950 . S
H3614 C3590 0.950 . S
H3615 C3591 0.949 . S
H3616 C3593 0.950 . S
H3617 C3595 0.950 . S
C3618 C3619 1.349 . S
C3618 C3620 1.327 . S
C3618 H3643 0.950 . S
C3619 C3618 1.349 . S
C3619 C3635 1.349 . S
C3620 C3618 1.327 . S
C3620 C3639 1.429 . S
C3620 H3644 0.950 . S
C3621 C3638 1.574 . S
C3621 C3640 1.368 . S
C3621 H3645 0.949 . S
H3622 C3626 0.949 . S
C3623 C3624 1.349 . S
C3623 C3625 1.327 . S
C3623 H3646 0.950 . S
C3624 C3623 1.349 . S
C3624 C3636 1.349 . S
C3625 C3623 1.327 . S
C3625 C3641 1.429 . S
C3625 H3647 0.950 . S
C3626 H3622 0.949 . S
C3626 C3634 1.574 . S
C3626 C3642 1.368 . S
H3627 C3635 0.950 . S
H3628 C3633 0.950 . S
H3629 C3634 0.949 . S
H3630 C3636 0.950 . S
H3631 C3637 0.950 . S
H3632 C3638 0.949 . S
C3633 H3628 0.950 . S
C3633 C3635 1.327 . S
C3633 C3639 1.429 . S
C3634 C3626 1.574 . S
C3634 H3629 0.949 . S
C3634 C3640 1.368 . S
C3635 C3619 1.349 . S
C3635 H3627 0.950 . S
C3635 C3633 1.327 . S
C3636 C3624 1.349 . S
C3636 H3630 0.950 . S
C3636 C3637 1.327 . S
C3637 H3631 0.950 . S
C3637 C3636 1.327 . S
C3637 C3641 1.429 . S
C3638 C3621 1.574 . S
C3638 H3632 0.949 . S
C3638 C3642 1.368 . S
C3639 C3620 1.429 . S
C3639 C3633 1.429 . S
C3639 C3640 1.523 . S
C3640 C3621 1.368 . S
C3640 C3634 1.368 . S
C3640 C3639 1.523 . S
C3641 C3625 1.429 . S
C3641 C3637 1.429 . S
C3641 C3642 1.523 . S
C3642 C3626 1.368 . S
C3642 C3638 1.368 . S
C3642 C3641 1.523 . S
H3643 C3618 0.950 . S
H3644 C3620 0.950 . S
H3645 C3621 0.949 . S
H3646 C3623 0.950 . S
H3647 C3625 0.950 . S
C769 C21 1.023 . S
C774 C274 1.019 . S
C799 C49 1.328 . S
C804 C310 1.441 . S
C829 C342 1.211 . S
C834 C85 1.204 . S
C859 C370 0.943 . S
C864 C117 0.945 . S
C889 C149 0.975 . S
C894 C374 0.981 . S
C919 C181 1.137 . S
C924 C278 1.137 . S
C949 C209 1.235 . S
C954 C306 1.331 . S
C979 C338 1.002 . S
C984 C245 1.007 . S
C1009 C402 1.029 . S
C1014 C277 1.038 . S
C1039 C305 1.411 . S
C1044 C534 1.534 . S
C1069 C337 1.539 . S
C1074 C470 1.660 . S
C1099 C502 1.213 . S
C1104 C373 1.208 . S
C1129 C369 1.601 . S
C1134 C630 1.729 . S
C1159 C566 1.457 . S
C1164 C273 1.354 . S
C1189 C309 1.019 . S
C1194 C598 1.021 . S
C1219 C434 1.223 . S
C1224 C341 1.228 . S
C1249 C405 1.290 . S
C1254 C18 1.280 . S
C1279 C241 1.445 . S
C1284 C562 1.550 . S
C1309 C594 1.383 . S
C1314 C145 1.276 . S
C1339 C438 1.819 . S
C1344 C177 1.688 . S
C1369 C242 1.152 . S
C1374 C437 1.160 . S
C1399 C82 1.393 . S
C1404 C465 1.287 . S
C1429 C466 1.477 . S
C1434 C17 1.367 . S
C1459 C406 1.755 . S
C1464 C81 1.615 . S
C1489 C501 0.979 . S
C1494 C658 0.973 . S
C1519 C401 1.315 . S
C1524 C694 1.427 . S
C1549 C726 1.221 . S
C1554 C533 1.219 . S
C1579 C469 0.972 . S
C1584 C758 0.976 . S
C1609 C754 0.944 . S
C1614 C565 0.945 . S
C1639 C662 1.126 . S
C1644 C597 1.120 . S
C1669 C433 1.251 . S
C1674 C690 1.348 . S
C1699 C722 1.048 . S
C1704 C629 1.050 . S
C1729 C50 1.064 . S
C1734 C661 1.069 . S
C1759 C689 1.418 . S
C1764 C86 1.537 . S
C1789 C118 1.505 . S
C1794 C721 1.397 . S
C1819 C22 1.717 . S
C1824 C753 1.583 . S
C1849 C757 1.230 . S
C1854 C246 1.231 . S
C1879 C657 1.499 . S
C1884 C150 1.615 . S
C1909 C693 1.008 . S
C1914 C182 1.012 . S
C1939 C725 1.200 . S
C1944 C210 1.190 . S
C1969 C53 1.242 . S
C1974 C498 1.231 . S
C1999 C146 1.477 . S
C2004 C625 1.365 . S
C2029 C561 1.375 . S
C2034 C178 1.492 . S
C2059 C214 1.829 . S
C2064 C593 1.696 . S
C2089 C213 1.213 . S
C2094 C626 1.207 . S
C2119 C113 1.387 . S
C2124 C530 1.502 . S
C2149 C497 1.449 . S
C2154 C114 1.552 . S
C2179 C529 1.607 . S
C2184 C54 1.745 . S
C2209 C16 1.743 . S
C2214 C311 1.690 . S
C2239 C343 2.009 . S
C2244 C55 2.007 . S
C2269 C368 1.465 . S
C2274 C80 1.462 . S
C2299 C272 1.495 . S
C2304 C112 1.492 . S
C2329 C336 1.533 . S
C2334 C144 1.532 . S
C2359 C375 1.620 . S
C2364 C176 1.667 . S
C2389 C279 1.857 . S
C2394 C215 1.854 . S
C2419 C240 1.492 . S
C2424 C304 1.495 . S
C2449 C151 1.596 . S
C2454 C400 1.646 . S
C2479 C247 1.960 . S
C2484 C503 1.959 . S
C2509 C535 1.911 . S
C2514 C183 1.911 . S
C2539 C432 1.850 . S
C2544 C119 1.794 . S
C2569 C208 1.755 . S
C2574 C471 1.702 . S
C2599 C23 1.947 . S
C2604 C631 1.948 . S
C2629 C599 1.782 . S
C2634 C87 1.782 . S
C2659 C695 1.634 . S
C2664 C496 1.686 . S
C2689 C727 1.868 . S
C2694 C407 1.866 . S
C2719 C528 1.706 . S
C2724 C759 1.661 . S
C2749 C656 1.492 . S
C2754 C464 1.492 . S
C2779 C720 1.536 . S
C2784 C560 1.532 . S
C2809 C752 1.422 . S
C2814 C592 1.420 . S
C2839 C439 1.995 . S
C2844 C663 1.998 . S
C2869 C688 1.552 . S
C2874 C624 1.550 . S
C2899 C48 1.744 . S
C2904 C567 1.690 . S
C2929 C148 1.608 . S
C2934 C20 1.608 . S
C2959 C180 1.916 . S
C2964 C51 1.843 . S
C2989 C211 1.717 . S
C2994 C84 1.789 . S
C3019 C244 1.614 . S
C3024 C116 1.612 . S
C3049 C308 1.797 . S
C3054 C276 1.798 . S
C3079 C340 1.968 . S
C3084 C307 1.898 . S
C3109 C339 2.123 . S
C3114 C371 2.133 . S
C3139 C275 1.887 . S
C3144 C372 1.959 . S
C3169 C404 1.928 . S
C3174 C115 1.855 . S
C3199 C243 2.126 . S
C3204 C595 2.132 . S
C3229 C436 1.876 . S
C3234 C147 1.812 . S
C3259 C179 2.076 . S
C3264 C627 2.066 . S
C3289 C52 2.001 . S
C3294 C467 1.929 . S
C3319 C19 1.969 . S
C3324 C531 1.973 . S
C3349 C83 2.031 . S
C3354 C499 2.031 . S
C3379 C564 1.680 . S
C3384 C500 1.681 . S
C3409 C403 1.712 . S
C3414 C596 1.783 . S
C3439 C435 1.849 . S
C3444 C532 1.923 . S
C3469 C468 1.540 . S
C3474 C628 1.540 . S
C3499 C692 1.815 . S
C3504 C660 1.815 . S
C3529 C724 1.950 . S
C3534 C691 1.878 . S
C3559 C756 1.969 . S
C3564 C723 1.893 . S
C3589 C755 2.122 . S
C3594 C659 2.117 . S
C3619 C212 1.802 . S
C3624 C563 1.736 . S
