# Generated by pormake.
# Topology uoc, (4)-cn, num edge types: 1
# Building blocks:
#     Node 0, Type 0, BuildingBlock: CEKHIL_clean_sbu_0, # of connection points: 4
#     Node 1, Type 0, BuildingBlock: CEKHIL_clean_sbu_0, # of connection points: 4
#     Node 2, Type 0, BuildingBlock: CEKHIL_clean_sbu_0, # of connection points: 4
#     Node 3, Type 0, BuildingBlock: CEKHIL_clean_sbu_0, # of connection points: 4
#     Node 4, Type 0, BuildingBlock: CEKHIL_clean_sbu_0, # of connection points: 4
#     Node 5, Type 0, BuildingBlock: CEKHIL_clean_sbu_0, # of connection points: 4
#     Node 6, Type 0, BuildingBlock: CEKHIL_clean_sbu_0, # of connection points: 4
#     Node 7, Type 0, BuildingBlock: CEKHIL_clean_sbu_0, # of connection points: 4
#     Edge 8, Type (0, 0), BuildingBlock: KIFKEQ_clean_linker_1, # of connection points: 2
#     Edge 9, Type (0, 0), BuildingBlock: KIFKEQ_clean_linker_1, # of connection points: 2
#     Edge 10, Type (0, 0), BuildingBlock: KIFKEQ_clean_linker_1, # of connection points: 2
#     Edge 11, Type (0, 0), BuildingBlock: KIFKEQ_clean_linker_1, # of connection points: 2
#     Edge 12, Type (0, 0), BuildingBlock: KIFKEQ_clean_linker_1, # of connection points: 2
#     Edge 13, Type (0, 0), BuildingBlock: KIFKEQ_clean_linker_1, # of connection points: 2
#     Edge 14, Type (0, 0), BuildingBlock: KIFKEQ_clean_linker_1, # of connection points: 2
#     Edge 15, Type (0, 0), BuildingBlock: KIFKEQ_clean_linker_1, # of connection points: 2
#     Edge 16, Type (0, 0), BuildingBlock: KIFKEQ_clean_linker_1, # of connection points: 2
#     Edge 17, Type (0, 0), BuildingBlock: KIFKEQ_clean_linker_1, # of connection points: 2
#     Edge 18, Type (0, 0), BuildingBlock: KIFKEQ_clean_linker_1, # of connection points: 2
#     Edge 19, Type (0, 0), BuildingBlock: KIFKEQ_clean_linker_1, # of connection points: 2
#     Edge 20, Type (0, 0), BuildingBlock: KIFKEQ_clean_linker_1, # of connection points: 2
#     Edge 21, Type (0, 0), BuildingBlock: KIFKEQ_clean_linker_1, # of connection points: 2
#     Edge 22, Type (0, 0), BuildingBlock: KIFKEQ_clean_linker_1, # of connection points: 2
#     Edge 23, Type (0, 0), BuildingBlock: KIFKEQ_clean_linker_1, # of connection points: 2
# Relax obj value: 0.097
# Max RMSD: 0.108
# Mean RMSD: 0.108
data_MOF--net-uoc--node1-CEKHIL_clean_sbu_0--edge1-KIFKEQ_clean_linker_1
_symmetry_space_group_name_H-M    P1
_symmetry_Int_Tables_number       1
_symmetry_cell_setting            triclinic
loop_
_symmetry_equiv_pos_as_xyz
'x, y, z'
_cell_length_a     27.484034
_cell_length_b     27.490122
_cell_length_c     55.306801
_cell_angle_alpha  89.988177
_cell_angle_beta   89.975453
_cell_angle_gamma 92.48351
loop_
_atom_site_label
_atom_site_type_symbol
_atom_site_fract_x
_atom_site_fract_y
_atom_site_fract_z
_atom_type_partial_charge
Co0 Co 0.11312 0.26695 0.11401 0.0
O1 O 0.12226 0.33667 0.11609 0.0
O2 O 0.05402 0.295 0.12549 0.0
C3 C 0.14522 0.2586 0.07697 0.0
O4 O 0.08993 0.1952 0.1134 0.0
Co5 Co 0.20295 0.20225 0.11091 0.0
O6 O 0.15342 0.14918 0.10476 0.0
C7 C 0.17851 0.24815 0.15716 0.0
C8 C 0.07745 0.33696 0.12346 0.0
C9 C 0.10808 0.15384 0.10843 0.0
O10 O 0.13787 0.2608 0.14809 0.0
O11 O 0.21139 0.22801 0.14471 0.0
O12 O 0.10058 0.27141 0.07944 0.0
O13 O 0.17031 0.25633 0.09667 0.0
Co14 Co 0.76684 0.61393 0.37563 0.0
O15 O 0.83656 0.6229 0.3762 0.0
O16 O 0.79656 0.55649 0.36303 0.0
C17 C 0.75375 0.64126 0.41328 0.0
O18 O 0.69511 0.59123 0.37339 0.0
Co19 Co 0.70244 0.70349 0.37931 0.0
O20 O 0.6492 0.65344 0.38422 0.0
C21 C 0.75246 0.68381 0.33356 0.0
C22 C 0.83816 0.57939 0.36725 0.0
C23 C 0.65369 0.60878 0.37882 0.0
O24 O 0.76524 0.64289 0.34224 0.0
O25 O 0.73022 0.71516 0.34607 0.0
O26 O 0.76631 0.5968 0.40977 0.0
O27 O 0.75446 0.66887 0.39433 0.0
Co28 Co 0.38755 0.23297 0.61354 0.0
O29 O 0.37846 0.16328 0.61256 0.0
O30 O 0.44501 0.20296 0.62582 0.0
C31 C 0.35997 0.24741 0.57609 0.0
O32 O 0.41054 0.30446 0.61613 0.0
Co33 Co 0.29785 0.29755 0.61064 0.0
O34 O 0.34744 0.35192 0.60865 0.0
C35 C 0.31782 0.24589 0.65581 0.0
C36 C 0.42204 0.16149 0.62143 0.0
C37 C 0.39248 0.34649 0.61284 0.0
O38 O 0.3589 0.23379 0.64703 0.0
O39 O 0.2862 0.26808 0.64347 0.0
O40 O 0.40437 0.2344 0.57937 0.0
O41 O 0.33247 0.24612 0.59508 0.0
Co42 Co 0.73311 0.88711 0.87687 0.0
O43 O 0.66334 0.87832 0.87748 0.0
O44 O 0.70351 0.94512 0.86489 0.0
C45 C 0.7465 0.85822 0.9142 0.0
O46 O 0.8048 0.90984 0.87477 0.0
Co47 Co 0.79729 0.79709 0.87949 0.0
O48 O 0.8518 0.84638 0.88218 0.0
C49 C 0.74675 0.8186 0.83417 0.0
C50 C 0.66185 0.92221 0.86897 0.0
C51 C 0.84669 0.89155 0.87821 0.0
O52 O 0.73456 0.85948 0.84315 0.0
O53 O 0.76848 0.78655 0.84644 0.0
O54 O 0.73386 0.90281 0.91118 0.0
O55 O 0.74557 0.83138 0.895 0.0
Co56 Co 0.61446 0.76684 0.61427 0.0
O57 O 0.62368 0.83652 0.61343 0.0
O58 O 0.55685 0.79687 0.62639 0.0
C59 C 0.64252 0.75268 0.57687 0.0
O60 O 0.59132 0.69536 0.61667 0.0
Co61 Co 0.70409 0.70226 0.61167 0.0
O62 O 0.65452 0.64793 0.60937 0.0
C63 C 0.68317 0.75317 0.65692 0.0
C64 C 0.57995 0.83833 0.62212 0.0
C65 C 0.60941 0.65334 0.61339 0.0
O66 O 0.64248 0.76569 0.64789 0.0
O67 O 0.71499 0.73093 0.64473 0.0
O68 O 0.59812 0.76572 0.58008 0.0
O69 O 0.66983 0.75377 0.59592 0.0
Co70 Co 0.26721 0.11548 0.87617 0.0
O71 O 0.33692 0.12562 0.87598 0.0
O72 O 0.29746 0.05749 0.8647 0.0
C73 C 0.2548 0.14619 0.91315 0.0
O74 O 0.19581 0.09119 0.87497 0.0
Co75 Co 0.2012 0.20447 0.87814 0.0
O76 O 0.14749 0.15435 0.88072 0.0
C77 C 0.25138 0.18169 0.83287 0.0
C78 C 0.33887 0.0813 0.86809 0.0
C79 C 0.1535 0.10905 0.8777 0.0
O80 O 0.26393 0.14118 0.84213 0.0
O81 O 0.22978 0.21409 0.84498 0.0
O82 O 0.26849 0.10183 0.91072 0.0
O83 O 0.25404 0.17188 0.89359 0.0
Co84 Co 0.88849 0.73242 0.1142 0.0
O85 O 0.87971 0.66264 0.11553 0.0
O86 O 0.94709 0.70427 0.1263 0.0
C87 C 0.8587 0.74216 0.07674 0.0
O88 O 0.91107 0.80429 0.11445 0.0
Co89 Co 0.79853 0.79646 0.11033 0.0
O90 O 0.84815 0.84926 0.10364 0.0
C91 C 0.82105 0.7504 0.1568 0.0
C92 C 0.92401 0.66228 0.12358 0.0
C93 C 0.89314 0.84521 0.10847 0.0
O94 O 0.86169 0.73715 0.14796 0.0
O95 O 0.78892 0.77129 0.14419 0.0
O96 O 0.90332 0.72973 0.07984 0.0
O97 O 0.83228 0.74305 0.09609 0.0
Co98 Co 0.23283 0.38716 0.37557 0.0
O99 O 0.16311 0.3783 0.37644 0.0
O100 O 0.20302 0.44453 0.36296 0.0
C101 C 0.24653 0.36009 0.4132 0.0
O102 O 0.30458 0.40972 0.37304 0.0
Co103 Co 0.2971 0.29738 0.37922 0.0
O104 O 0.3505 0.34738 0.38369 0.0
C105 C 0.24613 0.31664 0.33371 0.0
C106 C 0.16145 0.42172 0.36739 0.0
C107 C 0.34604 0.39206 0.37829 0.0
O108 O 0.23384 0.35784 0.34225 0.0
O109 O 0.2684 0.28536 0.34623 0.0
O110 O 0.23392 0.40454 0.40969 0.0
O111 O 0.24543 0.33237 0.39431 0.0
H112 H 0.12764 0.30088 0.03384 0.0
H113 H 0.20617 0.18593 0.06686 0.0
H114 H 0.15781 0.27807 0.99433 0.0
H115 H 0.23222 0.15908 0.02735 0.0
H116 H 0.30214 0.13621 0.95555 0.0
H117 H 0.27998 0.16771 0.9949 0.0
H118 H 0.15066 0.22645 0.96325 0.0
H119 H 0.17652 0.19931 0.92367 0.0
C120 C 0.151 0.27023 0.03248 0.0
C121 C 0.16466 0.2451 0.05326 0.0
C122 C 0.16792 0.25659 0.00977 0.0
C123 C 0.19733 0.21612 0.00719 0.0
C124 C 0.21077 0.19108 0.02827 0.0
C125 C 0.1954 0.20606 0.05107 0.0
C126 C 0.26928 0.15638 0.95717 0.0
C127 C 0.24099 0.16554 0.93677 0.0
C128 C 0.25607 0.17406 0.9798 0.0
C129 C 0.21302 0.19957 0.98272 0.0
C130 C 0.18466 0.20824 0.962 0.0
C131 C 0.19907 0.19223 0.93922 0.0
H132 H 0.796 0.62545 0.30063 0.0
H133 H 0.73338 0.76637 0.30796 0.0
H134 H 0.8122 0.642 0.25815 0.0
H135 H 0.75069 0.78323 0.26549 0.0
H136 H 0.73991 0.77236 0.18283 0.0
H137 H 0.72381 0.75672 0.22549 0.0
H138 H 0.86424 0.69339 0.23258 0.0
H139 H 0.88004 0.70795 0.18986 0.0
C140 C 0.78591 0.66011 0.29326 0.0
C141 C 0.76328 0.69454 0.30779 0.0
C142 C 0.79549 0.66968 0.26889 0.0
C143 C 0.78278 0.71395 0.25843 0.0
C144 C 0.76036 0.7485 0.27293 0.0
C145 C 0.7507 0.73892 0.29733 0.0
C146 C 0.76739 0.75508 0.19345 0.0
C147 C 0.81126 0.74136 0.18283 0.0
C148 C 0.75826 0.7464 0.21797 0.0
C149 C 0.79273 0.72382 0.23244 0.0
C150 C 0.83663 0.71027 0.22186 0.0
C151 C 0.84578 0.7189 0.19736 0.0
H152 H 0.2736 0.28806 0.56547 0.0
H153 H 0.40755 0.24337 0.53302 0.0
H154 H 0.2455 0.31492 0.52591 0.0
H155 H 0.37947 0.27025 0.49356 0.0
H156 H 0.28689 0.27377 0.42409 0.0
H157 H 0.31376 0.24607 0.46369 0.0
H158 H 0.26926 0.38037 0.4957 0.0
H159 H 0.24237 0.4081 0.45616 0.0
C160 C 0.29698 0.28397 0.5499 0.0
C161 C 0.34273 0.26364 0.5523 0.0
C162 C 0.28101 0.29953 0.52731 0.0
C163 C 0.31031 0.29457 0.5067 0.0
C164 C 0.35594 0.27402 0.50911 0.0
C165 C 0.37209 0.25891 0.53171 0.0
C166 C 0.28282 0.29732 0.43959 0.0
C167 C 0.26257 0.34307 0.43706 0.0
C168 C 0.29838 0.28157 0.46221 0.0
C169 C 0.29353 0.31109 0.48274 0.0
C170 C 0.27297 0.3567 0.48022 0.0
C171 C 0.25785 0.37264 0.45757 0.0
H172 H 0.70571 0.87891 0.80122 0.0
H173 H 0.76434 0.73611 0.80833 0.0
H174 H 0.69116 0.86385 0.75842 0.0
H175 H 0.74872 0.7208 0.76563 0.0
H176 H 0.76356 0.73143 0.68354 0.0
H177 H 0.77853 0.74766 0.72623 0.0
H178 H 0.63943 0.8142 0.73182 0.0
H179 H 0.62477 0.79903 0.68906 0.0
C180 C 0.71523 0.84418 0.79374 0.0
C181 C 0.73634 0.80878 0.80828 0.0
C182 C 0.70665 0.83548 0.76919 0.0
C183 C 0.71888 0.79117 0.7586 0.0
C184 C 0.73958 0.75562 0.77315 0.0
C185 C 0.74824 0.76431 0.7977 0.0
C186 C 0.73619 0.74968 0.69381 0.0
C187 C 0.69293 0.76388 0.68279 0.0
C188 C 0.74466 0.75868 0.71835 0.0
C189 C 0.7101 0.78207 0.73245 0.0
C190 C 0.66704 0.7966 0.72141 0.0
C191 C 0.65855 0.78763 0.69689 0.0
H192 H 0.1994 0.37319 0.30108 0.0
H193 H 0.26708 0.23472 0.3081 0.0
H194 H 0.18279 0.35595 0.25868 0.0
H195 H 0.24943 0.21719 0.26576 0.0
H196 H 0.2603 0.22919 0.18324 0.0
H197 H 0.27559 0.24518 0.2259 0.0
H198 H 0.13244 0.30262 0.23302 0.0
H199 H 0.11736 0.28767 0.19024 0.0
C200 C 0.21052 0.33894 0.29366 0.0
C201 C 0.23476 0.30542 0.30805 0.0
C202 C 0.2007 0.32895 0.26935 0.0
C203 C 0.21482 0.28522 0.25884 0.0
C204 C 0.23867 0.25151 0.27324 0.0
C205 C 0.24852 0.26147 0.29757 0.0
C206 C 0.23199 0.24518 0.19387 0.0
C207 C 0.18759 0.25716 0.18324 0.0
C208 C 0.24069 0.25407 0.21838 0.0
C209 C 0.20522 0.27511 0.23286 0.0
C210 C 0.16076 0.28692 0.22229 0.0
C211 C 0.15204 0.27809 0.19776 0.0
H212 H 0.59534 0.758 0.5338 0.0
H213 H 0.72889 0.71192 0.56607 0.0
H214 H 0.62337 0.73185 0.49424 0.0
H215 H 0.75699 0.68578 0.52635 0.0
H216 H 0.75875 0.59324 0.45621 0.0
H217 H 0.73299 0.62103 0.49593 0.0
H218 H 0.68872 0.75578 0.46429 0.0
H219 H 0.71442 0.72797 0.42449 0.0
C220 C 0.63072 0.74234 0.53243 0.0
C221 C 0.65995 0.73697 0.55301 0.0
C222 C 0.64686 0.72766 0.50975 0.0
C223 C 0.69237 0.7069 0.50722 0.0
C224 C 0.72158 0.70136 0.52782 0.0
C225 C 0.70561 0.7165 0.55051 0.0
C226 C 0.74358 0.62883 0.45774 0.0
C227 C 0.73851 0.65845 0.43726 0.0
C228 C 0.72913 0.64482 0.48049 0.0
C229 C 0.70892 0.69055 0.48318 0.0
C230 C 0.70384 0.72018 0.46269 0.0
C231 C 0.71871 0.70437 0.43995 0.0
H232 H 0.23637 0.2667 0.68181 0.0
H233 H 0.37552 0.20011 0.68829 0.0
H234 H 0.22021 0.25024 0.72438 0.0
H235 H 0.35965 0.1847 0.73095 0.0
H236 H 0.29243 0.12063 0.80026 0.0
H237 H 0.30737 0.13495 0.75741 0.0
H238 H 0.24918 0.27788 0.7638 0.0
H239 H 0.23319 0.26333 0.80652 0.0
C240 C 0.26356 0.2486 0.69227 0.0
C241 C 0.30731 0.23483 0.68157 0.0
C242 C 0.2544 0.23947 0.71673 0.0
C243 C 0.28873 0.21635 0.73108 0.0
C244 C 0.33222 0.2021 0.72034 0.0
C245 C 0.34141 0.21121 0.69588 0.0
C246 C 0.2828 0.15516 0.79257 0.0
C247 C 0.26149 0.19079 0.8069 0.0
C248 C 0.2916 0.16342 0.76801 0.0
C249 C 0.27939 0.20751 0.75719 0.0
C250 C 0.25833 0.24322 0.7715 0.0
C251 C 0.24945 0.23497 0.79606 0.0
H252 H 0.77219 0.78281 0.06627 0.0
H253 H 0.90489 0.73596 0.0334 0.0
H254 H 0.74387 0.80975 0.02677 0.0
H255 H 0.87665 0.76298 0.99401 0.0
H256 H 0.78538 0.77081 0.92446 0.0
H257 H 0.81115 0.74123 0.96392 0.0
H258 H 0.76825 0.87513 -0.00306 0.0
H259 H 0.74237 0.90466 0.95758 0.0
C260 C 0.7952 0.77814 0.05061 0.0
C261 C 0.84074 0.75734 0.05289 0.0
C262 C 0.77911 0.79377 0.02805 0.0
C263 C 0.80808 0.78843 0.00734 0.0
C264 C 0.85335 0.76707 0.00962 0.0
C265 C 0.8696 0.75186 0.03219 0.0
C266 C 0.7814 0.79385 0.94016 0.0
C267 C 0.76191 0.84002 0.93797 0.0
C268 C 0.79632 0.77702 0.9627 0.0
C269 C 0.79161 0.80587 0.98348 0.0
C270 C 0.77179 0.8519 0.98128 0.0
C271 C 0.75727 0.86889 0.95872 0.0
H272 H 0.13274 0.06178 0.09614 0.0
H273 H 0.01032 0.14409 0.11901 0.0
H274 H 0.08125 0.98779 0.0958 0.0
H275 H 0.95889 0.06943 0.11912 0.0
H276 H 0.8705 0.93553 0.09236 0.0
H277 H 0.92187 0.0097 0.09197 0.0
H278 H 0.03964 0.93167 0.12317 0.0
H279 H 0.9885 0.85687 0.1231 0.0
C280 C 0.09483 0.0642 0.10117 0.0
C281 C 0.07577 0.10911 0.10764 0.0
C282 C 0.06536 0.02153 0.10112 0.0
C283 C 0.01599 0.0225 0.10756 0.0
C284 C 0.99669 0.06743 0.11382 0.0
C285 C 0.02622 0.11026 0.11384 0.0
C286 C 0.90737 0.934 0.09914 0.0
C287 C 0.92529 0.89005 0.1078 0.0
C288 C 0.93674 0.97675 0.09905 0.0
C289 C 0.98482 0.97681 0.10764 0.0
C290 C 0.00293 0.93283 0.11616 0.0
C291 C 0.97355 0.88993 0.1162 0.0
H292 H 0.07099 0.38161 0.37635 0.0
H293 H 0.14482 0.51247 0.34929 0.0
H294 H 0.99323 0.41975 0.37288 0.0
H295 H 0.06643 0.55048 0.34519 0.0
H296 H 0.85463 0.48807 0.34985 0.0
H297 H 0.93299 0.44996 0.34585 0.0
H298 H 0.00647 0.58177 0.37206 0.0
H299 H 0.92872 0.61998 0.37543 0.0
C300 C 0.07057 0.41838 0.36934 0.0
C301 C 0.11416 0.44418 0.36328 0.0
C302 C 0.02581 0.44015 0.36715 0.0
C303 C 0.02344 0.48827 0.3588 0.0
C304 C 0.06699 0.51358 0.35201 0.0
C305 C 0.11189 0.49177 0.35425 0.0
C306 C 0.88761 0.50899 0.35449 0.0
C307 C 0.88542 0.5569 0.3631 0.0
C308 C 0.9325 0.48712 0.35232 0.0
C309 C 0.97611 0.5127 0.35874 0.0
C310 C 0.97382 0.56114 0.36664 0.0
C311 C 0.92908 0.58295 0.36876 0.0
H312 H 0.49014 0.35537 0.60318 0.0
H313 H 0.36767 0.43797 0.62523 0.0
H314 H 0.54193 0.42963 0.60319 0.0
H315 H 0.41962 0.51166 0.62667 0.0
H316 H 0.51187 0.64455 0.60344 0.0
H317 H 0.46007 0.57029 0.6032 0.0
H318 H 0.58207 0.48807 0.62686 0.0
H319 H 0.63405 0.56176 0.62568 0.0
C320 C 0.47451 0.38933 0.60838 0.0
C321 C 0.42485 0.39086 0.61409 0.0
C322 C 0.50421 0.432 0.60853 0.0
C323 C 0.48516 0.47708 0.6149 0.0
C324 C 0.43556 0.47812 0.6211 0.0
C325 C 0.40574 0.43569 0.62047 0.0
C326 C 0.52743 0.61055 0.60863 0.0
C327 C 0.57702 0.60896 0.61447 0.0
C328 C 0.49772 0.56788 0.60863 0.0
C329 C 0.51669 0.52275 0.61497 0.0
C330 C 0.56621 0.52165 0.62131 0.0
C331 C 0.59604 0.56408 0.62082 0.0
H332 H 0.57121 0.88272 0.87813 0.0
H333 H 0.64569 0.0133 0.85117 0.0
H334 H 0.49369 0.92136 0.87479 0.0
H335 H 0.56755 0.0518 0.84716 0.0
H336 H 0.42942 0.12213 0.87634 0.0
H337 H 0.50721 0.0837 0.87346 0.0
H338 H 0.43384 0.95139 0.84779 0.0
H339 H 0.35556 0.98964 0.85136 0.0
C340 C 0.57098 0.91954 0.87117 0.0
C341 C 0.61468 0.94508 0.86507 0.0
C342 C 0.52636 0.94161 0.86907 0.0
C343 C 0.52422 0.98978 0.86073 0.0
C344 C 0.5679 0.01489 0.85397 0.0
C345 C 0.61267 0.99278 0.85615 0.0
C346 C 0.42985 0.08494 0.8699 0.0
C347 C 0.38624 0.05879 0.86426 0.0
C348 C 0.4746 0.06298 0.86807 0.0
C349 C 0.47693 0.01434 0.86048 0.0
C350 C 0.43335 0.98868 0.85407 0.0
C351 C 0.38849 0.01065 0.85599 0.0
H352 H 0.87989 0.57641 0.13742 0.0
H353 H 0.02024 0.64332 0.1198 0.0
H354 H 0.91648 0.4979 0.14187 0.0
H355 H 0.05671 0.56442 0.12231 0.0
H356 H 0.12032 0.42194 0.13942 0.0
H357 H 0.0834 0.50032 0.14396 0.0
H358 H 0.9454 0.43533 0.11997 0.0
H359 H 0.98197 0.35652 0.1174 0.0
C360 C 0.9187 0.57414 0.13446 0.0
C361 C 0.94727 0.6158 0.12823 0.0
C362 C 0.93973 0.52898 0.13674 0.0
C363 C 0.98971 0.52404 0.13214 0.0
C364 C 0.01837 0.56635 0.12645 0.0
C365 C 0.99747 0.61177 0.12483 0.0
C366 C 0.0819 0.42452 0.1355 0.0
C367 C 0.05395 0.38332 0.12805 0.0
C368 C 0.0607 0.46961 0.13784 0.0
C369 C 0.01128 0.47494 0.13206 0.0
C370 C 0.98324 0.43306 0.12507 0.0
C371 C 0.0042 0.3877 0.12341 0.0
H372 H 0.43879 0.36809 0.38972 0.0
H373 H 0.3554 0.48894 0.36582 0.0
H374 H 0.51247 0.42001 0.38937 0.0
H375 H 0.42979 0.54078 0.36497 0.0
H376 H 0.56194 0.63091 0.39303 0.0
H377 H 0.4882 0.57902 0.39232 0.0
H378 H 0.56909 0.46191 0.36241 0.0
H379 H 0.64351 0.51362 0.36361 0.0
C380 C 0.43609 0.4057 0.38424 0.0
C381 C 0.39091 0.42426 0.37782 0.0
C382 C 0.4786 0.43543 0.38388 0.0
C383 C 0.47721 0.48456 0.37707 0.0
C384 C 0.4321 0.50321 0.37058 0.0
C385 C 0.38944 0.47342 0.37096 0.0
C386 C 0.5642 0.59411 0.38626 0.0
C387 C 0.60889 0.57652 0.37839 0.0
C388 C 0.52167 0.56443 0.38571 0.0
C389 C 0.52254 0.51632 0.37722 0.0
C390 C 0.56718 0.49863 0.36933 0.0
C391 C 0.60987 0.52834 0.36994 0.0
H392 H 0.38192 0.07104 0.61245 0.0
H393 H 0.51286 0.1449 0.63936 0.0
H394 H 0.42015 0.9933 0.6159 0.0
H395 H 0.55094 0.06658 0.64344 0.0
H396 H 0.62047 0.92876 0.61347 0.0
H397 H 0.58217 0.00652 0.61656 0.0
H398 H 0.45044 0.93333 0.64313 0.0
H399 H 0.48862 0.85499 0.63942 0.0
C400 C 0.41873 0.07062 0.61941 0.0
C401 C 0.44452 0.1142 0.62544 0.0
C402 C 0.44055 0.0259 0.62158 0.0
C403 C 0.4887 0.02358 0.6299 0.0
C404 C 0.51402 0.06711 0.63664 0.0
C405 C 0.49216 0.11197 0.63442 0.0
C406 C 0.58344 0.9292 0.62015 0.0
C407 C 0.55742 0.88563 0.62601 0.0
C408 C 0.56157 0.97393 0.62211 0.0
C409 C 0.51314 0.97628 0.63003 0.0
C410 C 0.48759 0.93277 0.63663 0.0
C411 C 0.5095 0.8879 0.63462 0.0
H412 H 0.85546 0.98945 0.8873 0.0
H413 H 0.93884 0.86617 0.86727 0.0
H414 H 0.92978 0.04112 0.88759 0.0
H415 H 0.01267 0.91798 0.86618 0.0
H416 H 0.14492 0.01194 0.88908 0.0
H417 H 0.07076 0.95983 0.88957 0.0
H418 H 0.98866 0.0801 0.86369 0.0
H419 H 0.06207 0.13236 0.86456 0.0
C420 C 0.88961 0.97357 0.88263 0.0
C421 C 0.89128 0.92375 0.87735 0.0
C422 C 0.93234 0.00322 0.88265 0.0
C423 C 0.97765 0.98394 0.8769 0.0
C424 C 0.97891 0.93413 0.87124 0.0
C425 C 0.9364 0.90438 0.87167 0.0
C426 C 0.11096 0.02706 0.88349 0.0
C427 C 0.10931 0.07628 0.87693 0.0
C428 C 0.06836 0.99716 0.88363 0.0
C429 C 0.02328 0.01559 0.87675 0.0
C430 C 0.02216 0.06469 0.8697 0.0
C431 C 0.06446 0.09469 0.87002 0.0
loop_
_geom_bond_atom_site_label_1
_geom_bond_atom_site_label_2
_geom_bond_distance
_geom_bond_site_symmetry_2
_ccdc_geom_bond_type
Co0 O1 2.216 . S
Co0 O2 2.091 . S
Co0 O4 2.004 . S
Co0 O10 2.021 . S
Co0 O12 2.137 . S
Co0 O13 2.244 . S
O1 Co0 2.216 . S
O1 C8 1.247 . S
O2 Co0 2.091 . S
O2 C8 1.261 . S
C3 O12 1.247 . S
C3 O13 1.272 . S
O4 Co0 2.004 . S
O4 C9 1.259 . S
Co5 O6 2.061 . S
Co5 O11 2.052 . S
Co5 O13 2.135 . S
O6 Co5 2.061 . S
O6 C9 1.235 . S
C7 O10 1.238 . S
C7 O11 1.241 . S
C8 O1 1.247 . S
C8 O2 1.261 . S
C9 O4 1.259 . S
C9 O6 1.235 . S
O10 Co0 2.021 . S
O10 C7 1.238 . S
O11 Co5 2.052 . S
O11 C7 1.241 . S
O12 Co0 2.137 . S
O12 C3 1.247 . S
O13 Co0 2.244 . S
O13 C3 1.272 . S
O13 Co5 2.135 . S
Co14 O15 2.216 . S
Co14 O16 2.091 . S
Co14 O18 2.004 . S
Co14 O24 2.021 . S
Co14 O26 2.137 . S
Co14 O27 2.244 . S
O15 Co14 2.216 . S
O15 C22 1.247 . S
O16 Co14 2.091 . S
O16 C22 1.261 . S
C17 O26 1.247 . S
C17 O27 1.272 . S
O18 Co14 2.004 . S
O18 C23 1.259 . S
Co19 O20 2.061 . S
Co19 O25 2.052 . S
Co19 O27 2.135 . S
O20 Co19 2.061 . S
O20 C23 1.235 . S
C21 O24 1.238 . S
C21 O25 1.241 . S
C22 O15 1.247 . S
C22 O16 1.261 . S
C23 O18 1.259 . S
C23 O20 1.235 . S
O24 Co14 2.021 . S
O24 C21 1.238 . S
O25 Co19 2.052 . S
O25 C21 1.241 . S
O26 Co14 2.137 . S
O26 C17 1.247 . S
O27 Co14 2.244 . S
O27 C17 1.272 . S
O27 Co19 2.135 . S
Co28 O29 2.216 . S
Co28 O30 2.091 . S
Co28 O32 2.004 . S
Co28 O38 2.021 . S
Co28 O40 2.137 . S
Co28 O41 2.244 . S
O29 Co28 2.216 . S
O29 C36 1.247 . S
O30 Co28 2.091 . S
O30 C36 1.261 . S
C31 O40 1.247 . S
C31 O41 1.272 . S
O32 Co28 2.004 . S
O32 C37 1.259 . S
Co33 O34 2.061 . S
Co33 O39 2.052 . S
Co33 O41 2.135 . S
O34 Co33 2.061 . S
O34 C37 1.235 . S
C35 O38 1.238 . S
C35 O39 1.241 . S
C36 O29 1.247 . S
C36 O30 1.261 . S
C37 O32 1.259 . S
C37 O34 1.235 . S
O38 Co28 2.021 . S
O38 C35 1.238 . S
O39 Co33 2.052 . S
O39 C35 1.241 . S
O40 Co28 2.137 . S
O40 C31 1.247 . S
O41 Co28 2.244 . S
O41 C31 1.272 . S
O41 Co33 2.135 . S
Co42 O43 2.216 . S
Co42 O44 2.091 . S
Co42 O46 2.004 . S
Co42 O52 2.021 . S
Co42 O54 2.137 . S
Co42 O55 2.244 . S
O43 Co42 2.216 . S
O43 C50 1.247 . S
O44 Co42 2.091 . S
O44 C50 1.261 . S
C45 O54 1.247 . S
C45 O55 1.272 . S
O46 Co42 2.004 . S
O46 C51 1.259 . S
Co47 O48 2.061 . S
Co47 O53 2.052 . S
Co47 O55 2.135 . S
O48 Co47 2.061 . S
O48 C51 1.235 . S
C49 O52 1.238 . S
C49 O53 1.241 . S
C50 O43 1.247 . S
C50 O44 1.261 . S
C51 O46 1.259 . S
C51 O48 1.235 . S
O52 Co42 2.021 . S
O52 C49 1.238 . S
O53 Co47 2.052 . S
O53 C49 1.241 . S
O54 Co42 2.137 . S
O54 C45 1.247 . S
O55 Co42 2.244 . S
O55 C45 1.272 . S
O55 Co47 2.135 . S
Co56 O57 2.216 . S
Co56 O58 2.091 . S
Co56 O60 2.004 . S
Co56 O66 2.021 . S
Co56 O68 2.137 . S
Co56 O69 2.244 . S
O57 Co56 2.216 . S
O57 C64 1.247 . S
O58 Co56 2.091 . S
O58 C64 1.261 . S
C59 O68 1.247 . S
C59 O69 1.272 . S
O60 Co56 2.004 . S
O60 C65 1.259 . S
Co61 O62 2.061 . S
Co61 O67 2.052 . S
Co61 O69 2.135 . S
O62 Co61 2.061 . S
O62 C65 1.235 . S
C63 O66 1.238 . S
C63 O67 1.241 . S
C64 O57 1.247 . S
C64 O58 1.261 . S
C65 O60 1.259 . S
C65 O62 1.235 . S
O66 Co56 2.021 . S
O66 C63 1.238 . S
O67 Co61 2.052 . S
O67 C63 1.241 . S
O68 Co56 2.137 . S
O68 C59 1.247 . S
O69 Co56 2.244 . S
O69 C59 1.272 . S
O69 Co61 2.135 . S
Co70 O71 2.216 . S
Co70 O72 2.091 . S
Co70 O74 2.004 . S
Co70 O80 2.021 . S
Co70 O82 2.137 . S
Co70 O83 2.244 . S
O71 Co70 2.216 . S
O71 C78 1.247 . S
O72 Co70 2.091 . S
O72 C78 1.261 . S
C73 O82 1.247 . S
C73 O83 1.272 . S
O74 Co70 2.004 . S
O74 C79 1.259 . S
Co75 O76 2.061 . S
Co75 O81 2.052 . S
Co75 O83 2.135 . S
O76 Co75 2.061 . S
O76 C79 1.235 . S
C77 O80 1.238 . S
C77 O81 1.241 . S
C78 O71 1.247 . S
C78 O72 1.261 . S
C79 O74 1.259 . S
C79 O76 1.235 . S
O80 Co70 2.021 . S
O80 C77 1.238 . S
O81 Co75 2.052 . S
O81 C77 1.241 . S
O82 Co70 2.137 . S
O82 C73 1.247 . S
O83 Co70 2.244 . S
O83 C73 1.272 . S
O83 Co75 2.135 . S
Co84 O85 2.216 . S
Co84 O86 2.091 . S
Co84 O88 2.004 . S
Co84 O94 2.021 . S
Co84 O96 2.137 . S
Co84 O97 2.244 . S
O85 Co84 2.216 . S
O85 C92 1.247 . S
O86 Co84 2.091 . S
O86 C92 1.261 . S
C87 O96 1.247 . S
C87 O97 1.272 . S
O88 Co84 2.004 . S
O88 C93 1.259 . S
Co89 O90 2.061 . S
Co89 O95 2.052 . S
Co89 O97 2.135 . S
O90 Co89 2.061 . S
O90 C93 1.235 . S
C91 O94 1.238 . S
C91 O95 1.241 . S
C92 O85 1.247 . S
C92 O86 1.261 . S
C93 O88 1.259 . S
C93 O90 1.235 . S
O94 Co84 2.021 . S
O94 C91 1.238 . S
O95 Co89 2.052 . S
O95 C91 1.241 . S
O96 Co84 2.137 . S
O96 C87 1.247 . S
O97 Co84 2.244 . S
O97 C87 1.272 . S
O97 Co89 2.135 . S
Co98 O99 2.216 . S
Co98 O100 2.091 . S
Co98 O102 2.004 . S
Co98 O108 2.021 . S
Co98 O110 2.137 . S
Co98 O111 2.244 . S
O99 Co98 2.216 . S
O99 C106 1.247 . S
O100 Co98 2.091 . S
O100 C106 1.261 . S
C101 O110 1.247 . S
C101 O111 1.272 . S
O102 Co98 2.004 . S
O102 C107 1.259 . S
Co103 O104 2.061 . S
Co103 O109 2.052 . S
Co103 O111 2.135 . S
O104 Co103 2.061 . S
O104 C107 1.235 . S
C105 O108 1.238 . S
C105 O109 1.241 . S
C106 O99 1.247 . S
C106 O100 1.261 . S
C107 O102 1.259 . S
C107 O104 1.235 . S
O108 Co98 2.021 . S
O108 C105 1.238 . S
O109 Co103 2.052 . S
O109 C105 1.241 . S
O110 Co98 2.137 . S
O110 C101 1.247 . S
O111 Co98 2.244 . S
O111 C101 1.272 . S
O111 Co103 2.135 . S
H112 C120 0.950 . S
H113 C125 0.950 . S
H114 C122 0.950 . S
H115 C124 0.950 . S
H116 C126 0.950 . S
H117 C128 0.950 . S
H118 C130 0.950 . S
H119 C131 0.950 . S
C120 H112 0.950 . S
C120 C121 1.386 . S
C120 C122 1.391 . S
C121 C120 1.386 . S
C121 C125 1.393 . S
C122 H114 0.950 . S
C122 C120 1.391 . S
C122 C123 1.400 . S
C123 C122 1.400 . S
C123 C124 1.398 . S
C123 C129 1.491 1_554 S
C124 H115 0.950 . S
C124 C123 1.398 . S
C124 C125 1.391 . S
C125 H113 0.950 . S
C125 C121 1.393 . S
C125 C124 1.391 . S
C126 H116 0.950 . S
C126 C127 1.386 . S
C126 C128 1.391 . S
C127 C126 1.386 . S
C127 C131 1.393 . S
C128 H117 0.950 . S
C128 C126 1.391 . S
C128 C129 1.400 . S
C129 C123 1.491 1_556 S
C129 C128 1.400 . S
C129 C130 1.398 . S
C130 H118 0.950 . S
C130 C129 1.398 . S
C130 C131 1.391 . S
C131 H119 0.950 . S
C131 C127 1.393 . S
C131 C130 1.391 . S
H132 C140 0.950 . S
H133 C145 0.950 . S
H134 C142 0.950 . S
H135 C144 0.950 . S
H136 C146 0.950 . S
H137 C148 0.950 . S
H138 C150 0.950 . S
H139 C151 0.950 . S
C140 H132 0.950 . S
C140 C141 1.386 . S
C140 C142 1.391 . S
C141 C140 1.386 . S
C141 C145 1.393 . S
C142 H134 0.950 . S
C142 C140 1.391 . S
C142 C143 1.400 . S
C143 C142 1.400 . S
C143 C144 1.398 . S
C143 C149 1.491 . S
C144 H135 0.950 . S
C144 C143 1.398 . S
C144 C145 1.391 . S
C145 H133 0.950 . S
C145 C141 1.393 . S
C145 C144 1.391 . S
C146 H136 0.950 . S
C146 C147 1.386 . S
C146 C148 1.391 . S
C147 C146 1.386 . S
C147 C151 1.393 . S
C148 H137 0.950 . S
C148 C146 1.391 . S
C148 C149 1.400 . S
C149 C143 1.491 . S
C149 C148 1.400 . S
C149 C150 1.398 . S
C150 H138 0.950 . S
C150 C149 1.398 . S
C150 C151 1.391 . S
C151 H139 0.950 . S
C151 C147 1.393 . S
C151 C150 1.391 . S
H152 C160 0.950 . S
H153 C165 0.950 . S
H154 C162 0.950 . S
H155 C164 0.950 . S
H156 C166 0.950 . S
H157 C168 0.950 . S
H158 C170 0.950 . S
H159 C171 0.950 . S
C160 H152 0.950 . S
C160 C161 1.386 . S
C160 C162 1.391 . S
C161 C160 1.386 . S
C161 C165 1.393 . S
C162 H154 0.950 . S
C162 C160 1.391 . S
C162 C163 1.400 . S
C163 C162 1.400 . S
C163 C164 1.398 . S
C163 C169 1.491 . S
C164 H155 0.950 . S
C164 C163 1.398 . S
C164 C165 1.391 . S
C165 H153 0.950 . S
C165 C161 1.393 . S
C165 C164 1.391 . S
C166 H156 0.950 . S
C166 C167 1.386 . S
C166 C168 1.391 . S
C167 C166 1.386 . S
C167 C171 1.393 . S
C168 H157 0.950 . S
C168 C166 1.391 . S
C168 C169 1.400 . S
C169 C163 1.491 . S
C169 C168 1.400 . S
C169 C170 1.398 . S
C170 H158 0.950 . S
C170 C169 1.398 . S
C170 C171 1.391 . S
C171 H159 0.950 . S
C171 C167 1.393 . S
C171 C170 1.391 . S
H172 C180 0.950 . S
H173 C185 0.950 . S
H174 C182 0.950 . S
H175 C184 0.950 . S
H176 C186 0.950 . S
H177 C188 0.950 . S
H178 C190 0.950 . S
H179 C191 0.950 . S
C180 H172 0.950 . S
C180 C181 1.386 . S
C180 C182 1.391 . S
C181 C180 1.386 . S
C181 C185 1.393 . S
C182 H174 0.950 . S
C182 C180 1.391 . S
C182 C183 1.400 . S
C183 C182 1.400 . S
C183 C184 1.398 . S
C183 C189 1.491 . S
C184 H175 0.950 . S
C184 C183 1.398 . S
C184 C185 1.391 . S
C185 H173 0.950 . S
C185 C181 1.393 . S
C185 C184 1.391 . S
C186 H176 0.950 . S
C186 C187 1.386 . S
C186 C188 1.391 . S
C187 C186 1.386 . S
C187 C191 1.393 . S
C188 H177 0.950 . S
C188 C186 1.391 . S
C188 C189 1.400 . S
C189 C183 1.491 . S
C189 C188 1.400 . S
C189 C190 1.398 . S
C190 H178 0.950 . S
C190 C189 1.398 . S
C190 C191 1.391 . S
C191 H179 0.950 . S
C191 C187 1.393 . S
C191 C190 1.391 . S
H192 C200 0.950 . S
H193 C205 0.950 . S
H194 C202 0.950 . S
H195 C204 0.950 . S
H196 C206 0.950 . S
H197 C208 0.950 . S
H198 C210 0.950 . S
H199 C211 0.950 . S
C200 H192 0.950 . S
C200 C201 1.386 . S
C200 C202 1.391 . S
C201 C200 1.386 . S
C201 C205 1.393 . S
C202 H194 0.950 . S
C202 C200 1.391 . S
C202 C203 1.400 . S
C203 C202 1.400 . S
C203 C204 1.398 . S
C203 C209 1.491 . S
C204 H195 0.950 . S
C204 C203 1.398 . S
C204 C205 1.391 . S
C205 H193 0.950 . S
C205 C201 1.393 . S
C205 C204 1.391 . S
C206 H196 0.950 . S
C206 C207 1.386 . S
C206 C208 1.391 . S
C207 C206 1.386 . S
C207 C211 1.393 . S
C208 H197 0.950 . S
C208 C206 1.391 . S
C208 C209 1.400 . S
C209 C203 1.491 . S
C209 C208 1.400 . S
C209 C210 1.398 . S
C210 H198 0.950 . S
C210 C209 1.398 . S
C210 C211 1.391 . S
C211 H199 0.950 . S
C211 C207 1.393 . S
C211 C210 1.391 . S
H212 C220 0.950 . S
H213 C225 0.950 . S
H214 C222 0.950 . S
H215 C224 0.950 . S
H216 C226 0.950 . S
H217 C228 0.950 . S
H218 C230 0.950 . S
H219 C231 0.950 . S
C220 H212 0.950 . S
C220 C221 1.386 . S
C220 C222 1.391 . S
C221 C220 1.386 . S
C221 C225 1.393 . S
C222 H214 0.950 . S
C222 C220 1.391 . S
C222 C223 1.400 . S
C223 C222 1.400 . S
C223 C224 1.398 . S
C223 C229 1.491 . S
C224 H215 0.950 . S
C224 C223 1.398 . S
C224 C225 1.391 . S
C225 H213 0.950 . S
C225 C221 1.393 . S
C225 C224 1.391 . S
C226 H216 0.950 . S
C226 C227 1.386 . S
C226 C228 1.391 . S
C227 C226 1.386 . S
C227 C231 1.393 . S
C228 H217 0.950 . S
C228 C226 1.391 . S
C228 C229 1.400 . S
C229 C223 1.491 . S
C229 C228 1.400 . S
C229 C230 1.398 . S
C230 H218 0.950 . S
C230 C229 1.398 . S
C230 C231 1.391 . S
C231 H219 0.950 . S
C231 C227 1.393 . S
C231 C230 1.391 . S
H232 C240 0.950 . S
H233 C245 0.950 . S
H234 C242 0.950 . S
H235 C244 0.950 . S
H236 C246 0.950 . S
H237 C248 0.950 . S
H238 C250 0.950 . S
H239 C251 0.950 . S
C240 H232 0.950 . S
C240 C241 1.386 . S
C240 C242 1.391 . S
C241 C240 1.386 . S
C241 C245 1.393 . S
C242 H234 0.950 . S
C242 C240 1.391 . S
C242 C243 1.400 . S
C243 C242 1.400 . S
C243 C244 1.398 . S
C243 C249 1.491 . S
C244 H235 0.950 . S
C244 C243 1.398 . S
C244 C245 1.391 . S
C245 H233 0.950 . S
C245 C241 1.393 . S
C245 C244 1.391 . S
C246 H236 0.950 . S
C246 C247 1.386 . S
C246 C248 1.391 . S
C247 C246 1.386 . S
C247 C251 1.393 . S
C248 H237 0.950 . S
C248 C246 1.391 . S
C248 C249 1.400 . S
C249 C243 1.491 . S
C249 C248 1.400 . S
C249 C250 1.398 . S
C250 H238 0.950 . S
C250 C249 1.398 . S
C250 C251 1.391 . S
C251 H239 0.950 . S
C251 C247 1.393 . S
C251 C250 1.391 . S
H252 C260 0.950 . S
H253 C265 0.950 . S
H254 C262 0.950 . S
H255 C264 0.950 . S
H256 C266 0.950 . S
H257 C268 0.950 . S
H258 C270 0.950 . S
H259 C271 0.950 . S
C260 H252 0.950 . S
C260 C261 1.386 . S
C260 C262 1.391 . S
C261 C260 1.386 . S
C261 C265 1.393 . S
C262 H254 0.950 . S
C262 C260 1.391 . S
C262 C263 1.400 . S
C263 C262 1.400 . S
C263 C264 1.398 . S
C263 C269 1.491 1_554 S
C264 H255 0.950 . S
C264 C263 1.398 . S
C264 C265 1.391 . S
C265 H253 0.950 . S
C265 C261 1.393 . S
C265 C264 1.391 . S
C266 H256 0.950 . S
C266 C267 1.386 . S
C266 C268 1.391 . S
C267 C266 1.386 . S
C267 C271 1.393 . S
C268 H257 0.950 . S
C268 C266 1.391 . S
C268 C269 1.400 . S
C269 C263 1.491 1_556 S
C269 C268 1.400 . S
C269 C270 1.398 . S
C270 H258 0.950 . S
C270 C269 1.398 . S
C270 C271 1.391 . S
C271 H259 0.950 . S
C271 C267 1.393 . S
C271 C270 1.391 . S
H272 C280 0.950 . S
H273 C285 0.950 . S
H274 C282 0.950 . S
H275 C284 0.950 1_655 S
H276 C286 0.950 . S
H277 C288 0.950 . S
H278 C290 0.950 1_455 S
H279 C291 0.950 . S
C280 H272 0.950 . S
C280 C281 1.386 . S
C280 C282 1.391 . S
C281 C280 1.386 . S
C281 C285 1.393 . S
C282 H274 0.950 . S
C282 C280 1.391 . S
C282 C283 1.400 . S
C283 C282 1.400 . S
C283 C284 1.398 . S
C283 C289 1.491 1_445 S
C284 H275 0.950 1_455 S
C284 C283 1.398 . S
C284 C285 1.391 . S
C285 H273 0.950 . S
C285 C281 1.393 . S
C285 C284 1.391 . S
C286 H276 0.950 . S
C286 C287 1.386 . S
C286 C288 1.391 . S
C287 C286 1.386 . S
C287 C291 1.393 . S
C288 H277 0.950 . S
C288 C286 1.391 . S
C288 C289 1.400 . S
C289 C283 1.491 1_665 S
C289 C288 1.400 . S
C289 C290 1.398 . S
C290 H278 0.950 1_655 S
C290 C289 1.398 . S
C290 C291 1.391 . S
C291 H279 0.950 . S
C291 C287 1.393 . S
C291 C290 1.391 . S
H292 C300 0.950 . S
H293 C305 0.950 . S
H294 C302 0.950 . S
H295 C304 0.950 . S
H296 C306 0.950 . S
H297 C308 0.950 . S
H298 C310 0.950 . S
H299 C311 0.950 . S
C300 H292 0.950 . S
C300 C301 1.386 . S
C300 C302 1.391 . S
C301 C300 1.386 . S
C301 C305 1.393 . S
C302 H294 0.950 . S
C302 C300 1.391 . S
C302 C303 1.400 . S
C303 C302 1.400 . S
C303 C304 1.398 . S
C303 C309 1.491 1_455 S
C304 H295 0.950 . S
C304 C303 1.398 . S
C304 C305 1.391 . S
C305 H293 0.950 . S
C305 C301 1.393 . S
C305 C304 1.391 . S
C306 H296 0.950 . S
C306 C307 1.386 . S
C306 C308 1.391 . S
C307 C306 1.386 . S
C307 C311 1.393 . S
C308 H297 0.950 . S
C308 C306 1.391 . S
C308 C309 1.400 . S
C309 C303 1.491 1_655 S
C309 C308 1.400 . S
C309 C310 1.398 . S
C310 H298 0.950 . S
C310 C309 1.398 . S
C310 C311 1.391 . S
C311 H299 0.950 . S
C311 C307 1.393 . S
C311 C310 1.391 . S
H312 C320 0.950 . S
H313 C325 0.950 . S
H314 C322 0.950 . S
H315 C324 0.950 . S
H316 C326 0.950 . S
H317 C328 0.950 . S
H318 C330 0.950 . S
H319 C331 0.950 . S
C320 H312 0.950 . S
C320 C321 1.386 . S
C320 C322 1.391 . S
C321 C320 1.386 . S
C321 C325 1.393 . S
C322 H314 0.950 . S
C322 C320 1.391 . S
C322 C323 1.400 . S
C323 C322 1.400 . S
C323 C324 1.398 . S
C323 C329 1.491 . S
C324 H315 0.950 . S
C324 C323 1.398 . S
C324 C325 1.391 . S
C325 H313 0.950 . S
C325 C321 1.393 . S
C325 C324 1.391 . S
C326 H316 0.950 . S
C326 C327 1.386 . S
C326 C328 1.391 . S
C327 C326 1.386 . S
C327 C331 1.393 . S
C328 H317 0.950 . S
C328 C326 1.391 . S
C328 C329 1.400 . S
C329 C323 1.491 . S
C329 C328 1.400 . S
C329 C330 1.398 . S
C330 H318 0.950 . S
C330 C329 1.398 . S
C330 C331 1.391 . S
C331 H319 0.950 . S
C331 C327 1.393 . S
C331 C330 1.391 . S
H332 C340 0.950 . S
H333 C345 0.950 . S
H334 C342 0.950 . S
H335 C344 0.950 . S
H336 C346 0.950 . S
H337 C348 0.950 . S
H338 C350 0.950 . S
H339 C351 0.950 . S
C340 H332 0.950 . S
C340 C341 1.386 . S
C340 C342 1.391 . S
C341 C340 1.386 . S
C341 C345 1.393 . S
C342 H334 0.950 . S
C342 C340 1.391 . S
C342 C343 1.400 . S
C343 C342 1.400 . S
C343 C344 1.398 1_565 S
C343 C349 1.491 1_565 S
C344 H335 0.950 . S
C344 C343 1.398 1_545 S
C344 C345 1.391 1_545 S
C345 H333 0.950 . S
C345 C341 1.393 . S
C345 C344 1.391 1_565 S
C346 H336 0.950 . S
C346 C347 1.386 . S
C346 C348 1.391 . S
C347 C346 1.386 . S
C347 C351 1.393 . S
C348 H337 0.950 . S
C348 C346 1.391 . S
C348 C349 1.400 . S
C349 C343 1.491 1_545 S
C349 C348 1.400 . S
C349 C350 1.398 1_545 S
C350 H338 0.950 . S
C350 C349 1.398 1_565 S
C350 C351 1.391 1_565 S
C351 H339 0.950 . S
C351 C347 1.393 . S
C351 C350 1.391 1_545 S
H352 C360 0.950 . S
H353 C365 0.950 . S
H354 C362 0.950 . S
H355 C364 0.950 1_455 S
H356 C366 0.950 . S
H357 C368 0.950 . S
H358 C370 0.950 1_655 S
H359 C371 0.950 . S
C360 H352 0.950 . S
C360 C361 1.386 . S
C360 C362 1.391 . S
C361 C360 1.386 . S
C361 C365 1.393 . S
C362 H354 0.950 . S
C362 C360 1.391 . S
C362 C363 1.400 . S
C363 C362 1.400 . S
C363 C364 1.398 . S
C363 C369 1.491 1_655 S
C364 H355 0.950 1_655 S
C364 C363 1.398 . S
C364 C365 1.391 . S
C365 H353 0.950 . S
C365 C361 1.393 . S
C365 C364 1.391 . S
C366 H356 0.950 . S
C366 C367 1.386 . S
C366 C368 1.391 . S
C367 C366 1.386 . S
C367 C371 1.393 . S
C368 H357 0.950 . S
C368 C366 1.391 . S
C368 C369 1.400 . S
C369 C363 1.491 1_455 S
C369 C368 1.400 . S
C369 C370 1.398 . S
C370 H358 0.950 1_455 S
C370 C369 1.398 . S
C370 C371 1.391 . S
C371 H359 0.950 . S
C371 C367 1.393 . S
C371 C370 1.391 . S
H372 C380 0.950 . S
H373 C385 0.950 . S
H374 C382 0.950 . S
H375 C384 0.950 . S
H376 C386 0.950 . S
H377 C388 0.950 . S
H378 C390 0.950 . S
H379 C391 0.950 . S
C380 H372 0.950 . S
C380 C381 1.386 . S
C380 C382 1.391 . S
C381 C380 1.386 . S
C381 C385 1.393 . S
C382 H374 0.950 . S
C382 C380 1.391 . S
C382 C383 1.400 . S
C383 C382 1.400 . S
C383 C384 1.398 . S
C383 C389 1.491 . S
C384 H375 0.950 . S
C384 C383 1.398 . S
C384 C385 1.391 . S
C385 H373 0.950 . S
C385 C381 1.393 . S
C385 C384 1.391 . S
C386 H376 0.950 . S
C386 C387 1.386 . S
C386 C388 1.391 . S
C387 C386 1.386 . S
C387 C391 1.393 . S
C388 H377 0.950 . S
C388 C386 1.391 . S
C388 C389 1.400 . S
C389 C383 1.491 . S
C389 C388 1.400 . S
C389 C390 1.398 . S
C390 H378 0.950 . S
C390 C389 1.398 . S
C390 C391 1.391 . S
C391 H379 0.950 . S
C391 C387 1.393 . S
C391 C390 1.391 . S
H392 C400 0.950 . S
H393 C405 0.950 . S
H394 C402 0.950 1_565 S
H395 C404 0.950 . S
H396 C406 0.950 . S
H397 C408 0.950 1_545 S
H398 C410 0.950 . S
H399 C411 0.950 . S
C400 H392 0.950 . S
C400 C401 1.386 . S
C400 C402 1.391 . S
C401 C400 1.386 . S
C401 C405 1.393 . S
C402 H394 0.950 1_545 S
C402 C400 1.391 . S
C402 C403 1.400 . S
C403 C402 1.400 . S
C403 C404 1.398 . S
C403 C409 1.491 1_545 S
C404 H395 0.950 . S
C404 C403 1.398 . S
C404 C405 1.391 . S
C405 H393 0.950 . S
C405 C401 1.393 . S
C405 C404 1.391 . S
C406 H396 0.950 . S
C406 C407 1.386 . S
C406 C408 1.391 . S
C407 C406 1.386 . S
C407 C411 1.393 . S
C408 H397 0.950 1_565 S
C408 C406 1.391 . S
C408 C409 1.400 . S
C409 C403 1.491 1_565 S
C409 C408 1.400 . S
C409 C410 1.398 . S
C410 H398 0.950 . S
C410 C409 1.398 . S
C410 C411 1.391 . S
C411 H399 0.950 . S
C411 C407 1.393 . S
C411 C410 1.391 . S
H412 C420 0.950 . S
H413 C425 0.950 . S
H414 C422 0.950 . S
H415 C424 0.950 1_455 S
H416 C426 0.950 . S
H417 C428 0.950 . S
H418 C430 0.950 1_655 S
H419 C431 0.950 . S
C420 H412 0.950 . S
C420 C421 1.386 . S
C420 C422 1.391 1_565 S
C421 C420 1.386 . S
C421 C425 1.393 . S
C422 H414 0.950 . S
C422 C420 1.391 1_545 S
C422 C423 1.400 1_545 S
C423 C422 1.400 1_565 S
C423 C424 1.398 . S
C423 C429 1.491 1_665 S
C424 H415 0.950 1_655 S
C424 C423 1.398 . S
C424 C425 1.391 . S
C425 H413 0.950 . S
C425 C421 1.393 . S
C425 C424 1.391 . S
C426 H416 0.950 . S
C426 C427 1.386 . S
C426 C428 1.391 1_545 S
C427 C426 1.386 . S
C427 C431 1.393 . S
C428 H417 0.950 . S
C428 C426 1.391 1_565 S
C428 C429 1.400 1_565 S
C429 C423 1.491 1_445 S
C429 C428 1.400 1_545 S
C429 C430 1.398 . S
C430 H418 0.950 1_455 S
C430 C429 1.398 . S
C430 C431 1.391 . S
C431 H419 0.950 . S
C431 C427 1.393 . S
C431 C430 1.391 . S
C121 C3 1.216 . S
C127 C73 1.199 . S
C141 C21 1.221 . S
C147 C91 1.225 . S
C161 C31 1.204 . S
C167 C101 1.220 . S
C181 C49 1.221 . S
C187 C63 1.229 . S
C201 C105 1.224 . S
C207 C7 1.221 . S
C221 C59 1.221 . S
C227 C17 1.209 . S
C241 C35 1.231 . S
C247 C77 1.236 . S
C261 C87 1.205 . S
C267 C45 1.221 . S
C281 C9 1.583 . S
C287 C93 1.581 . S
C301 C106 1.573 . S
C307 C22 1.573 . S
C321 C37 1.576 . S
C327 C65 1.581 . S
C341 C50 1.576 . S
C347 C78 1.575 . S
C361 C92 1.573 . S
C367 C8 1.573 . S
C381 C107 1.583 . S
C387 C23 1.580 . S
C401 C36 1.578 . S
C407 C64 1.577 . S
C421 C51 1.577 . S
C427 C79 1.582 . S
