# Generated by pormake.
# Topology sml, (6)-cn, num edge types: 1
# Building blocks:
#     Node 0, Type 0, BuildingBlock: KUMBUR_clean_sbu_0, # of connection points: 6
#     Node 1, Type 0, BuildingBlock: KUMBUR_clean_sbu_0, # of connection points: 6
#     Node 2, Type 0, BuildingBlock: KUMBUR_clean_sbu_0, # of connection points: 6
#     Node 3, Type 0, BuildingBlock: KUMBUR_clean_sbu_0, # of connection points: 6
#     Node 4, Type 0, BuildingBlock: KUMBUR_clean_sbu_0, # of connection points: 6
#     Node 5, Type 0, BuildingBlock: KUMBUR_clean_sbu_0, # of connection points: 6
#     Edge 6, Type (0, 0), BuildingBlock: XIVTED_clean_linker_0, # of connection points: 2
#     Edge 7, Type (0, 0), BuildingBlock: XIVTED_clean_linker_0, # of connection points: 2
#     Edge 8, Type (0, 0), BuildingBlock: XIVTED_clean_linker_0, # of connection points: 2
#     Edge 9, Type (0, 0), BuildingBlock: XIVTED_clean_linker_0, # of connection points: 2
#     Edge 10, Type (0, 0), BuildingBlock: XIVTED_clean_linker_0, # of connection points: 2
#     Edge 11, Type (0, 0), BuildingBlock: XIVTED_clean_linker_0, # of connection points: 2
#     Edge 12, Type (0, 0), BuildingBlock: XIVTED_clean_linker_0, # of connection points: 2
#     Edge 13, Type (0, 0), BuildingBlock: XIVTED_clean_linker_0, # of connection points: 2
#     Edge 14, Type (0, 0), BuildingBlock: XIVTED_clean_linker_0, # of connection points: 2
#     Edge 15, Type (0, 0), BuildingBlock: XIVTED_clean_linker_0, # of connection points: 2
#     Edge 16, Type (0, 0), BuildingBlock: XIVTED_clean_linker_0, # of connection points: 2
#     Edge 17, Type (0, 0), BuildingBlock: XIVTED_clean_linker_0, # of connection points: 2
#     Edge 18, Type (0, 0), BuildingBlock: XIVTED_clean_linker_0, # of connection points: 2
#     Edge 19, Type (0, 0), BuildingBlock: XIVTED_clean_linker_0, # of connection points: 2
#     Edge 20, Type (0, 0), BuildingBlock: XIVTED_clean_linker_0, # of connection points: 2
#     Edge 21, Type (0, 0), BuildingBlock: XIVTED_clean_linker_0, # of connection points: 2
#     Edge 22, Type (0, 0), BuildingBlock: XIVTED_clean_linker_0, # of connection points: 2
#     Edge 23, Type (0, 0), BuildingBlock: XIVTED_clean_linker_0, # of connection points: 2
# Relax obj value: 0.028
# Max RMSD: 0.150
# Mean RMSD: 0.150
data_MOF--net-sml--node1-KUMBUR_clean_sbu_0--edge1-XIVTED_clean_linker_0
_symmetry_space_group_name_H-M    P1
_symmetry_Int_Tables_number       1
_symmetry_cell_setting            triclinic
loop_
_symmetry_equiv_pos_as_xyz
'x, y, z'
_cell_length_a     33.134324
_cell_length_b     33.124538
_cell_length_c     23.997636
_cell_angle_alpha  90.033287
_cell_angle_beta   90.090545
_cell_angle_gamma 119.97552
loop_
_atom_site_label
_atom_site_type_symbol
_atom_site_fract_x
_atom_site_fract_y
_atom_site_fract_z
_atom_type_partial_charge
Tb0 Tb 0.17419 0.4184 0.97145 0.0
C1 C 0.3471 0.42361 0.07149 0.0
C2 C 0.32883 0.34347 0.06486 0.0
C3 C 0.40956 0.4059 0.06099 0.0
C4 C 0.31465 0.37697 0.06971 0.0
C5 C 0.39505 0.43882 0.06842 0.0
C6 C 0.37644 0.35823 0.05921 0.0
C7 C 0.41052 0.51715 0.08558 0.0
N8 N 0.33155 0.45398 0.0794 0.0
C9 C 0.36254 0.50019 0.08874 0.0
C10 C 0.42685 0.48642 0.07454 0.0
Tb11 Tb 0.25236 0.42368 0.0807 0.0
N12 N 0.26923 0.36443 0.07584 0.0
C13 C 0.23632 0.31845 0.08195 0.0
C14 C 0.29488 0.29629 0.06758 0.0
C15 C 0.24851 0.28377 0.07708 0.0
H16 H 0.35034 0.52433 0.09692 0.0
H17 H 0.22207 0.2474 0.08046 0.0
H18 H 0.38806 0.33306 0.05492 0.0
H19 H 0.43486 0.55391 0.09154 0.0
H20 H 0.20028 0.30806 0.08896 0.0
H21 H 0.19602 0.59117 0.95679 0.0
H22 H 0.30425 0.2694 0.06393 0.0
H23 H 0.07909 0.31388 0.97041 0.0
H24 H 0.22188 0.53357 0.95673 0.0
H25 H 0.99404 0.28115 0.97529 0.0
H26 H 0.44626 0.41686 0.05806 0.0
H27 H 0.11262 0.56587 0.96909 0.0
H28 H 0.03056 0.50027 0.97859 0.0
H29 H 0.46396 0.49967 0.0721 0.0
H30 H 0.97513 0.41575 0.98358 0.0
N31 N 0.15411 0.4754 0.97116 0.0
C32 C 0.18538 0.52155 0.96251 0.0
C33 C 0.12383 0.54024 0.9695 0.0
C34 C 0.09164 0.49277 0.9753 0.0
C35 C 0.17086 0.55461 0.96241 0.0
C36 C 0.10808 0.46089 0.9757 0.0
H37 H 0.96127 0.33369 0.98196 0.0
N38 N 0.09469 0.38446 0.97556 0.0
C39 C 0.01706 0.31853 0.97615 0.0
C40 C 0.07718 0.41368 0.97775 0.0
C41 C 0.06534 0.33725 0.97321 0.0
C42 C 0.99868 0.34829 0.98004 0.0
C43 C 0.0288 0.39655 0.98022 0.0
O44 O 0.1534 0.37951 0.89701 0.0
O45 O 0.22118 0.39624 1.00123 0.0
O46 O 0.29659 0.46057 1.00815 0.0
O47 O 0.24526 0.47634 0.95847 0.0
O48 O 0.16373 0.34751 0.96175 0.0
O49 O 0.197 0.45435 0.89558 0.0
O50 O 0.2711 0.46093 0.15642 0.0
O51 O 0.20712 0.44789 0.05013 0.0
O52 O 0.13398 0.39352 0.04752 0.0
O53 O 0.17843 0.36787 0.09471 0.0
O54 O 0.26564 0.49493 0.09108 0.0
O55 O 0.22911 0.38612 0.15561 0.0
C56 C 0.20216 0.35496 0.98387 0.0
C57 C 0.15067 0.41877 0.81607 0.0
C58 C 0.14692 0.42132 0.71439 0.0
C59 C 0.16923 0.41914 0.76337 0.0
C60 C 0.10557 0.42326 0.7193 0.0
C61 C 0.10952 0.42073 0.82009 0.0
C62 C 0.08712 0.42296 0.7718 0.0
C63 C 0.28739 0.48226 0.96765 0.0
C64 C 0.17524 0.41648 0.86587 0.0
C65 C 0.01217 0.42812 0.98161 0.0
C66 C 0.04361 0.47617 0.979 0.0
C67 C 0.22882 0.48963 0.06662 0.0
C68 C 0.27481 0.42077 0.23578 0.0
C69 C 0.25735 0.4213 0.28889 0.0
C70 C 0.27996 0.41862 0.33737 0.0
C71 C 0.32048 0.4153 0.33149 0.0
C72 C 0.31513 0.41737 0.2308 0.0
C73 C 0.33782 0.41467 0.27857 0.0
C74 C 0.13892 0.36855 0.08707 0.0
C75 C 0.24988 0.42336 0.18648 0.0
H76 H 0.20149 0.41834 0.7607 0.0
H77 H 0.08709 0.42434 0.68258 0.0
H78 H 0.09476 0.4205 0.86033 0.0
H79 H 0.05523 0.42431 0.77503 0.0
H80 H 0.22566 0.42311 0.29227 0.0
H81 H 0.33916 0.41376 0.36775 0.0
H82 H 0.32894 0.41674 0.19021 0.0
H83 H 0.36904 0.41217 0.27459 0.0
Tb84 Tb 0.75813 0.17266 0.30322 0.0
C85 C 0.92929 0.34248 0.40597 0.0
C86 C 0.98842 0.3204 0.40006 0.0
C87 C 0.01076 0.40233 0.39811 0.0
C88 C 0.94127 0.30843 0.40391 0.0
C89 C 0.96383 0.38994 0.40468 0.0
C90 C 0.02305 0.36753 0.39571 0.0
C91 C 0.90354 0.40899 0.42232 0.0
N92 N 0.88377 0.32893 0.41307 0.0
C93 C 0.87066 0.3614 0.42347 0.0
C94 C 0.95024 0.42334 0.41202 0.0
Tb95 Tb 0.83169 0.25042 0.4125 0.0
N96 N 0.90674 0.26359 0.40911 0.0
C97 C 0.91761 0.22904 0.41536 0.0
C98 C 0.99936 0.28478 0.40265 0.0
C99 C 0.96382 0.23897 0.41128 0.0
H100 H 0.83463 0.35075 0.43123 0.0
H101 H 0.97195 0.21123 0.41468 0.0
H102 H 0.05946 0.37746 0.39219 0.0
H103 H 0.89281 0.43455 0.42929 0.0
H104 H 0.89078 0.19337 0.42181 0.0
H105 H 0.61331 0.20386 0.28434 0.0
H106 H 0.03512 0.29242 0.39972 0.0
H107 H 0.76193 0.0746 0.30441 0.0
H108 H 0.69581 0.22555 0.28496 0.0
H109 H 0.70621 0.99013 0.31069 0.0
H110 H 0.03784 0.43862 0.39646 0.0
H111 H 0.55215 0.12178 0.29879 0.0
H112 H 0.53141 0.03855 0.31101 0.0
H113 H 0.97562 0.46011 0.41138 0.0
H114 H 0.55638 0.97989 0.31801 0.0
N115 N 0.68241 0.15673 0.30206 0.0
C116 C 0.66985 0.18958 0.29172 0.0
C117 C 0.58851 0.13115 0.29953 0.0
C118 C 0.60144 0.09725 0.30685 0.0
C119 C 0.6229 0.17745 0.29122 0.0
C120 C 0.64921 0.11132 0.30763 0.0
H121 H 0.62164 0.96157 0.31744 0.0
N122 N 0.70952 0.09376 0.30906 0.0
C123 C 0.69366 0.01467 0.31101 0.0
C124 C 0.66322 0.07859 0.311 0.0
C125 C 0.72512 0.06254 0.30731 0.0
C126 C 0.64594 0.99868 0.31493 0.0
C127 C 0.63011 0.03073 0.31425 0.0
O128 O 0.77522 0.14908 0.23033 0.0
O129 O 0.82737 0.21849 0.33338 0.0
O130 O 0.84054 0.29581 0.34058 0.0
O131 O 0.77595 0.24488 0.28609 0.0
O132 O 0.81736 0.16012 0.29479 0.0
O133 O 0.74459 0.19323 0.226 0.0
O134 O 0.81233 0.26943 0.48739 0.0
O135 O 0.76208 0.207 0.38092 0.0
O136 O 0.74122 0.13274 0.37993 0.0
O137 O 0.81154 0.17615 0.4268 0.0
O138 O 0.77608 0.26737 0.41936 0.0
O139 O 0.843 0.22561 0.48822 0.0
C140 C 0.84888 0.19857 0.31649 0.0
C141 C 0.73333 0.14483 0.14843 0.0
C142 C 0.72648 0.13977 0.04681 0.0
C143 C 0.75097 0.16298 0.09544 0.0
C144 C 0.68372 0.09797 0.05236 0.0
C145 C 0.69073 0.10321 0.15311 0.0
C146 C 0.66608 0.07994 0.10516 0.0
C147 C 0.81192 0.28678 0.29736 0.0
C148 C 0.76029 0.17037 0.19778 0.0
C149 C 0.58244 0.01651 0.31539 0.0
C150 C 0.56817 0.04978 0.3116 0.0
C151 C 0.74374 0.23084 0.39528 0.0
C152 C 0.85392 0.27124 0.56825 0.0
C153 C 0.83571 0.2527 0.62095 0.0
C154 C 0.86062 0.27457 0.66995 0.0
C155 C 0.90424 0.3155 0.665 0.0
C156 C 0.89746 0.31188 0.56425 0.0
C157 C 0.92242 0.33388 0.61252 0.0
C158 C 0.77078 0.13732 0.41977 0.0
C159 C 0.82692 0.24707 0.51829 0.0
H160 H 0.78362 0.19559 0.09226 0.0
H161 H 0.66418 0.07884 1.01593 0.0
H162 H 0.67663 0.08876 0.19358 0.0
H163 H 0.63325 0.04769 0.1089 0.0
H164 H 0.80239 0.22075 0.6236 0.0
H165 H 0.92413 0.33367 0.70168 0.0
H166 H 0.91212 0.3265 0.52403 0.0
H167 H 0.95597 0.36538 0.60928 0.0
Tb168 Tb 0.58836 0.75571 0.63976 0.0
C169 C 0.57994 0.92353 0.73732 0.0
C170 C 0.65989 0.98576 0.73191 0.0
C171 C 0.59714 0.00358 0.72697 0.0
C172 C 0.62661 0.938 0.73643 0.0
C173 C 0.56444 0.95608 0.73392 0.0
C174 C 0.64488 0.01841 0.72591 0.0
C175 C 0.48617 0.8928 0.74944 0.0
N176 N 0.54982 0.87754 0.74467 0.0
C177 C 0.50343 0.86198 0.7528 0.0
C178 C 0.51674 0.94002 0.73924 0.0
Tb179 Tb 0.58049 0.82891 0.74722 0.0
N180 N 0.63939 0.9053 0.74283 0.0
C181 C 0.68544 0.91868 0.7494 0.0
C182 C 0.70711 0.99928 0.7352 0.0
C183 C 0.71989 0.96562 0.74486 0.0
H184 H 0.47942 0.82552 0.76037 0.0
H185 H 0.7563 0.97575 0.74863 0.0
H186 H 0.66987 0.05524 0.72187 0.0
H187 H 0.44931 0.88009 0.75467 0.0
H188 H 0.69619 0.89331 0.75654 0.0
H189 H 0.42118 0.59699 0.63363 0.0
H190 H 0.73384 0.0356 0.73179 0.0
H191 H 0.69609 0.77214 0.63657 0.0
H192 H 0.47485 0.68132 0.62362 0.0
H193 H 0.73401 0.72508 0.64929 0.0
H194 H 0.58597 0.02916 0.72377 0.0
H195 H 0.45175 0.54472 0.65844 0.0
H196 H 0.52147 0.53546 0.67866 0.0
H197 H 0.50333 0.96384 0.73688 0.0
H198 H 0.60669 0.56969 0.67938 0.0
N199 N 0.53558 0.67743 0.64304 0.0
C200 C 0.48893 0.65906 0.63376 0.0
C201 C 0.47558 0.58176 0.65363 0.0
C202 C 0.52367 0.60041 0.65946 0.0
C203 C 0.45823 0.61113 0.63951 0.0
C204 C 0.55303 0.64878 0.65266 0.0
H205 H 0.68638 0.64038 0.66717 0.0
N206 N 0.62722 0.71472 0.64644 0.0
C207 C 0.69642 0.70859 0.65082 0.0
C208 C 0.60066 0.66801 0.6537 0.0
C209 C 0.67468 0.73516 0.64332 0.0
C210 C 0.66944 0.66079 0.6609 0.0
C211 C 0.62087 0.63985 0.66215 0.0
O212 O 0.62593 0.77458 0.56448 0.0
O213 O 0.60822 0.82473 0.66831 0.0
O214 O 0.54226 0.8331 0.67355 0.0
O215 O 0.52843 0.76566 0.62571 0.0
O216 O 0.65787 0.81777 0.62861 0.0
O217 O 0.5508 0.7377 0.56451 0.0
O218 O 0.54253 0.81071 0.8223 0.0
O219 O 0.55758 0.75947 0.71736 0.0
O220 O 0.61364 0.74252 0.71707 0.0
O221 O 0.63751 0.81279 0.76282 0.0
O222 O 0.50975 0.77043 0.75752 0.0
O223 O 0.61713 0.8418 0.82286 0.0
C224 C 0.64921 0.84797 0.65056 0.0
C225 C 0.5878 0.72986 0.48445 0.0
C226 C 0.58698 0.72379 0.38266 0.0
C227 C 0.58746 0.74776 0.43145 0.0
C228 C 0.58678 0.68136 0.38815 0.0
C229 C 0.58757 0.6876 0.489 0.0
C230 C 0.58708 0.66352 0.44093 0.0
C231 C 0.52129 0.80132 0.6335 0.0
C232 C 0.58828 0.75615 0.53403 0.0
C233 C 0.59193 0.59191 0.67169 0.0
C234 C 0.54338 0.57232 0.67085 0.0
C235 C 0.51579 0.73914 0.73369 0.0
C236 C 0.58246 0.85225 0.90329 0.0
C237 C 0.58326 0.83391 0.95586 0.0
C238 C 0.58616 0.85845 1.00514 0.0
C239 C 0.58828 0.90187 1.00053 0.0
C240 C 0.58474 0.89554 0.89969 0.0
C241 C 0.58761 0.92016 0.94821 0.0
C242 C 0.63763 0.77291 0.75659 0.0
C243 C 0.57965 0.82555 0.85307 0.0
H244 H 0.58694 0.78015 0.42837 0.0
H245 H 0.58705 0.66222 0.35169 0.0
H246 H 0.58781 0.67335 0.52952 0.0
H247 H 0.58707 0.63094 0.44454 0.0
H248 H 0.58229 0.80075 0.95816 0.0
H249 H 0.58985 0.92151 0.03736 0.0
H250 H 0.58432 0.91021 0.85954 0.0
H251 H 0.5892 0.95354 0.9453 0.0
Tb252 Tb 0.82536 0.58085 0.97632 0.0
C253 C 0.65495 0.58067 0.08033 0.0
C254 C 0.67527 0.66142 0.07434 0.0
C255 C 0.59379 0.60064 0.07373 0.0
C256 C 0.68828 0.62696 0.07787 0.0
C257 C 0.60722 0.56679 0.07975 0.0
C258 C 0.62782 0.64796 0.07093 0.0
C259 C 0.59006 0.4879 0.09651 0.0
N260 N 0.66951 0.54938 0.08681 0.0
C261 C 0.63786 0.50354 0.09695 0.0
C262 C 0.57464 0.51957 0.08713 0.0
Tb263 Tb 0.74834 0.57751 0.08577 0.0
N264 N 0.73351 0.63826 0.08208 0.0
C265 C 0.76749 0.68397 0.08748 0.0
C266 C 0.71023 0.70826 0.07615 0.0
C267 C 0.75649 0.71955 0.08362 0.0
H268 H 0.64929 0.47866 0.10409 0.0
H269 H 0.78376 0.75566 0.08636 0.0
H270 H 0.61709 0.67387 0.06771 0.0
H271 H 0.56517 0.45144 0.10339 0.0
H272 H 0.80346 0.69351 0.09311 0.0
H273 H 0.79247 0.40372 0.96529 0.0
H274 H 0.70178 0.73585 0.07341 0.0
H275 H 0.92435 0.68171 0.97216 0.0
H276 H 0.77195 0.46532 0.95925 0.0
H277 H 0.0085 0.70963 0.98235 0.0
H278 H 0.55728 0.59069 0.07267 0.0
H279 H 0.87342 0.42379 0.9869 0.0
H280 H 0.95635 0.48576 1.00415 0.0
H281 H 0.53768 0.5074 0.08719 0.0
H282 H 0.01587 0.56932 1.00713 0.0
N283 N 0.84055 0.52048 0.978 0.0
C284 C 0.80756 0.47502 0.96819 0.0
C285 C 0.86467 0.45117 0.98404 0.0
C286 C 0.89882 0.49798 0.99062 0.0
C287 C 0.81901 0.43974 0.97167 0.0
C288 C 0.88555 0.53218 0.98652 0.0
H289 H 0.03567 0.65317 0.99792 0.0
N290 N 0.90416 0.61023 0.98238 0.0
C291 C 0.98356 0.67271 0.98435 0.0
C292 C 0.91867 0.57878 0.98835 0.0
C293 C 0.9359 0.65678 0.97833 0.0
C294 C 0.99877 0.64074 0.99321 0.0
C295 C 0.96621 0.59302 0.99467 0.0
O296 O 0.84876 0.62047 0.90269 0.0
O297 O 0.77987 0.60472 1.00635 0.0
O298 O 0.70271 0.54137 1.01373 0.0
O299 O 0.75289 0.52648 0.95978 0.0
O300 O 0.83786 0.65251 0.96672 0.0
O301 O 0.80443 0.54569 0.89977 0.0
O302 O 0.7301 0.5399 0.16115 0.0
O303 O 0.79204 0.55178 0.05456 0.0
O304 O 0.86616 0.60633 0.05218 0.0
O305 O 0.82253 0.63246 0.10004 0.0
O306 O 0.73275 0.5053 0.09394 0.0
O307 O 0.77339 0.61452 0.16092 0.0
C308 C 0.79979 0.64602 0.98892 0.0
C309 C 0.85269 0.58142 0.82203 0.0
C310 C 0.85801 0.57891 0.72054 0.0
C311 C 0.83522 0.58157 0.76873 0.0
C312 C 0.89889 0.57628 0.72687 0.0
C313 C 0.89331 0.57863 0.82752 0.0
C314 C 0.9163 0.57613 0.78 0.0
C315 C 0.71133 0.52151 0.97057 0.0
C316 C 0.82732 0.58379 0.87084 0.0
C317 C 0.97957 0.55917 1.00144 0.0
C318 C 0.94582 0.51169 0.99963 0.0
C319 C 0.76944 0.50989 0.07003 0.0
C320 C 0.72867 0.58037 0.24151 0.0
C321 C 0.74643 0.57886 0.29417 0.0
C322 C 0.72507 0.58235 0.34323 0.0
C323 C 0.68537 0.58726 0.33846 0.0
C324 C 0.68922 0.58541 0.23764 0.0
C325 C 0.66768 0.58877 0.28602 0.0
C326 C 0.86171 0.6313 0.09207 0.0
C327 C 0.75246 0.57723 0.1915 0.0
H328 H 0.80406 0.58431 0.76496 0.0
H329 H 0.91708 0.57364 0.69084 0.0
H330 H 0.90713 0.57832 0.86829 0.0
H331 H 0.94764 0.57388 0.78434 0.0
H332 H 0.7767 0.57448 0.29678 0.0
H333 H 0.66837 0.59066 0.37522 0.0
H334 H 0.67523 0.5869 0.19744 0.0
H335 H 0.6373 0.59282 0.28289 0.0
Tb336 Tb 0.2452 0.82808 0.30841 0.0
C337 C 0.07417 0.65672 0.40786 0.0
C338 C 0.01429 0.67783 0.40218 0.0
C339 C 0.99301 0.5962 0.39889 0.0
C340 C 0.0616 0.69037 0.4063 0.0
C341 C 0.04009 0.60912 0.40559 0.0
C342 C 0.98011 0.63058 0.39712 0.0
C343 C 0.10111 0.59088 0.42223 0.0
N344 N 0.11981 0.67074 0.41508 0.0
C345 C 0.13351 0.63858 0.42441 0.0
C346 C 0.05427 0.57609 0.41196 0.0
Tb347 Tb 0.17103 0.74944 0.41613 0.0
N348 N 0.09571 0.73537 0.41203 0.0
C349 C 0.08427 0.7695 0.41841 0.0
C350 C 0.00275 0.71301 0.4051 0.0
C351 C 0.03787 0.75897 0.41416 0.0
H352 H 0.16966 0.64958 0.4321 0.0
H353 H 0.02927 0.78638 0.41773 0.0
H354 H 0.94359 0.62021 0.39343 0.0
H355 H 0.1123 0.56559 0.42837 0.0
H356 H 0.11078 0.80527 0.42515 0.0
H357 H 0.3931 0.80095 0.29791 0.0
H358 H 0.96684 0.70492 0.402 0.0
H359 H 0.23957 0.92526 0.30612 0.0
H360 H 0.31038 0.7779 0.29152 0.0
H361 H 0.29366 0.00978 0.31648 0.0
H362 H 0.96627 0.5598 0.39654 0.0
H363 H 0.45216 0.88271 0.319 0.0
H364 H 0.47049 0.96492 0.33577 0.0
H365 H 0.02927 0.53922 0.41045 0.0
H366 H 0.44389 0.02246 0.33901 0.0
N367 N 0.32153 0.84576 0.31007 0.0
C368 C 0.33543 0.81381 0.30046 0.0
C369 C 0.41572 0.87281 0.31613 0.0
C370 C 0.40161 0.9059 0.32247 0.0
C371 C 0.38252 0.8267 0.30409 0.0
C372 C 0.35379 0.89115 0.31843 0.0
H373 H 0.37789 0.03952 0.33087 0.0
N374 N 0.29258 0.90723 0.31492 0.0
C375 C 0.30682 0.98575 0.31787 0.0
C376 C 0.33886 0.92317 0.32043 0.0
C377 C 0.27628 0.93784 0.31177 0.0
C378 C 0.35435 0.00242 0.32605 0.0
C379 C 0.37101 0.97104 0.32687 0.0
O380 O 0.22762 0.85033 0.23474 0.0
O381 O 0.17575 0.78146 0.33713 0.0
O382 O 0.1633 0.70503 0.34319 0.0
O383 O 0.22977 0.75646 0.29257 0.0
O384 O 0.18543 0.8397 0.29872 0.0
O385 O 0.26035 0.80808 0.23183 0.0
O386 O 0.1897 0.72971 0.49099 0.0
O387 O 0.24087 0.79386 0.38631 0.0
O388 O 0.26049 0.86781 0.385 0.0
O389 O 0.19034 0.82355 0.43162 0.0
O390 O 0.22725 0.7335 0.42442 0.0
O391 O 0.15893 0.77352 0.49191 0.0
C392 C 0.15402 0.8011 0.31998 0.0
C393 C 0.2701 0.85513 0.15347 0.0
C394 C 0.27564 0.86008 0.05181 0.0
C395 C 0.25173 0.83701 0.10063 0.0
C396 C 0.31861 0.90174 0.05705 0.0
C397 C 0.31288 0.89661 0.15792 0.0
C398 C 0.33697 0.91977 0.10975 0.0
C399 C 0.19342 0.7144 0.30167 0.0
C400 C 0.24363 0.82965 0.20289 0.0
C401 C 0.41858 0.98588 0.3333 0.0
C402 C 0.43379 0.95326 0.33134 0.0
C403 C 0.25962 0.77056 0.40147 0.0
C404 C 0.14846 0.72804 0.57194 0.0
C405 C 0.1673 0.7467 0.62448 0.0
C406 C 0.14302 0.72498 0.6737 0.0
C407 C 0.09928 0.68411 0.66913 0.0
C408 C 0.10486 0.68743 0.56826 0.0
C409 C 0.08045 0.66559 0.61677 0.0
C410 C 0.23077 0.86279 0.42464 0.0
C411 C 0.17509 0.75204 0.5219 0.0
H412 H 0.21896 0.80448 0.09769 0.0
H413 H 0.33774 0.92077 0.02047 0.0
H414 H 0.32751 0.91099 0.19837 0.0
H415 H 0.36995 0.95191 0.11325 0.0
H416 H 0.20069 0.77861 0.62683 0.0
H417 H 0.07983 0.66606 0.70599 0.0
H418 H 0.08978 0.6727 0.5281 0.0
H419 H 0.04684 0.63412 0.61382 0.0
Tb420 Tb 0.41884 0.25013 0.63184 0.0
C421 C 0.42614 0.08398 0.73303 0.0
C422 C 0.34572 0.02245 0.73004 0.0
C423 C 0.40756 0.00336 0.72459 0.0
C424 C 0.37957 0.07013 0.73313 0.0
C425 C 0.4409 0.05083 0.73017 0.0
C426 C 0.35996 0.98918 0.72444 0.0
C427 C 0.51982 0.11359 0.74391 0.0
N428 N 0.45694 0.12999 0.73915 0.0
C429 C 0.50329 0.14503 0.74682 0.0
C430 C 0.48855 0.06632 0.7348 0.0
Tb431 Tb 0.42725 0.17947 0.74126 0.0
N432 N 0.36751 0.10341 0.73907 0.0
C433 C 0.32177 0.09082 0.74654 0.0
C434 C 0.29873 0.00966 0.73426 0.0
C435 C 0.28677 0.04398 0.74343 0.0
H436 H 0.52778 0.18154 0.75357 0.0
H437 H 0.25058 0.03443 0.7479 0.0
H438 H 0.3345 0.95239 0.72147 0.0
H439 H 0.55665 0.12585 0.74868 0.0
H440 H 0.31167 0.11673 0.75329 0.0
H441 H 0.58698 0.40652 0.61739 0.0
H442 H 0.27159 0.97342 0.73194 0.0
H443 H 0.31119 0.23381 0.63434 0.0
H444 H 0.53308 0.32207 0.6221 0.0
H445 H 0.27401 0.28214 0.63398 0.0
H446 H 0.41815 0.97732 0.7218 0.0
H447 H 0.55655 0.46115 0.62024 0.0
H448 H 0.48712 0.47261 0.62119 0.0
H449 H 0.50139 0.04202 0.73282 0.0
H450 H 0.40225 0.43917 0.62749 0.0
N451 N 0.47237 0.32815 0.6314 0.0
C452 C 0.51911 0.34524 0.62479 0.0
C453 C 0.53267 0.42399 0.6234 0.0
C454 C 0.48464 0.40626 0.62776 0.0
C455 C 0.54995 0.39327 0.62171 0.0
C456 C 0.45512 0.35763 0.63201 0.0
H457 H 0.32243 0.36809 0.63246 0.0
N458 N 0.38049 0.29167 0.63493 0.0
C459 C 0.31162 0.29853 0.63394 0.0
C460 C 0.40746 0.33875 0.63379 0.0
C461 C 0.33294 0.27121 0.63401 0.0
C462 C 0.33905 0.34703 0.63325 0.0
C463 C 0.3876 0.36774 0.63256 0.0
O464 O 0.38102 0.23049 0.5566 0.0
O465 O 0.39854 0.1816 0.6622 0.0
O466 O 0.46381 0.17258 0.66801 0.0
O467 O 0.47829 0.23931 0.61858 0.0
O468 O 0.34891 0.18828 0.62192 0.0
O469 O 0.45617 0.26563 0.55675 0.0
O470 O 0.46631 0.19755 0.81565 0.0
O471 O 0.44983 0.2484 0.71029 0.0
O472 O 0.39467 0.26633 0.70791 0.0
O473 O 0.3713 0.19731 0.75649 0.0
O474 O 0.4983 0.23836 0.74954 0.0
O475 O 0.39186 0.16807 0.81735 0.0
C476 C 0.35729 0.15833 0.64504 0.0
C477 C 0.41983 0.27433 0.47656 0.0
C478 C 0.42212 0.28081 0.37495 0.0
C479 C 0.42075 0.25654 0.42375 0.0
C480 C 0.42271 0.32344 0.38009 0.0
C481 C 0.42035 0.31677 0.48079 0.0
C482 C 0.4218 0.34117 0.43268 0.0
C483 C 0.485 0.20355 0.62752 0.0
C484 C 0.4186 0.24783 0.52624 0.0
C485 C 0.41677 0.41625 0.62912 0.0
C486 C 0.46516 0.4354 0.62616 0.0
C487 C 0.49184 0.26947 0.72593 0.0
C488 C 0.42658 0.15542 0.89608 0.0
C489 C 0.42657 0.17314 0.94922 0.0
C490 C 0.42316 0.14749 0.99753 0.0
C491 C 0.41966 0.10356 0.99149 0.0
C492 C 0.42299 0.11161 0.8909 0.0
C493 C 0.41958 0.08587 0.93852 0.0
C494 C 0.37094 0.23695 0.74838 0.0
C495 C 0.42963 0.18319 0.84694 0.0
H496 H 0.42099 0.22399 0.42081 0.0
H497 H 0.42319 0.34277 0.34348 0.0
H498 H 0.41961 0.33098 0.52099 0.0
H499 H 0.42207 0.37389 0.43615 0.0
H500 H 0.42846 0.20668 0.95275 0.0
H501 H 0.41756 0.08308 0.02767 0.0
H502 H 0.42273 0.09735 0.85029 0.0
H503 H 0.41693 0.05208 0.93439 0.0
H504 H 0.3856 0.32442 0.76349 0.0
H505 H 0.1698 0.2632 0.95799 0.0
H506 H 0.29964 0.18347 0.82252 0.0
H507 H 0.29292 0.39878 0.94887 0.0
H508 H 0.21112 0.23079 0.90532 0.0
H509 H 0.3458 0.35018 0.82619 0.0
C510 C 0.35816 0.29867 0.78958 0.0
C511 C 0.3459 0.25153 0.78745 0.0
C512 C 0.22916 0.26749 0.91589 0.0
C513 C 0.29976 0.28129 0.86008 0.0
C514 C 0.20568 0.28597 0.94578 0.0
C515 C 0.22813 0.33373 0.95867 0.0
C516 C 0.27489 0.29737 0.89753 0.0
C517 C 0.27434 0.36183 0.94117 0.0
C518 C 0.33561 0.3136 0.82582 0.0
C519 C 0.31022 0.22013 0.82288 0.0
N520 N 0.29592 0.34335 0.91127 0.0
N521 N 0.28799 0.2355 0.85752 0.0
H522 H 0.06785 0.38533 0.10429 0.0
H523 H 0.90632 0.16412 0.28837 0.0
H524 H 0.11841 0.29395 0.15724 0.0
H525 H 0.89841 0.28998 0.28453 0.0
H526 H 0.98074 0.20518 0.23703 0.0
H527 H 1.00123 0.34444 0.1649 0.0
C528 C 0.06497 0.35648 0.12865 0.0
C529 C 0.0989 0.34302 0.12537 0.0
C530 C 0.96285 0.2238 0.24844 0.0
C531 C 0.02174 0.29558 0.19572 0.0
C532 C 0.92048 0.20046 0.27754 0.0
C533 C 0.89621 0.22377 0.29152 0.0
C534 C 0.98017 0.27031 0.23206 0.0
C535 C 0.91576 0.2706 0.27585 0.0
C536 C 0.02686 0.33326 0.1637 0.0
C537 C 0.0931 0.30551 0.15858 0.0
N538 N 0.95617 0.29206 0.24683 0.0
N539 N 0.0549 0.28269 0.19216 0.0
H540 H 0.82494 0.11826 0.49098 0.0
H541 H 0.60358 0.89373 0.61702 0.0
H542 H 0.68284 0.06591 0.43756 0.0
H543 H 0.74032 0.90863 0.6243 0.0
H544 H 0.63547 0.96693 0.56727 0.0
H545 H 0.79763 0.05059 0.55369 0.0
C546 C 0.78814 0.09274 0.4925 0.0
C547 C 0.75621 0.09762 0.45861 0.0
C548 C 0.65874 0.95454 0.58011 0.0
C549 C 0.7249 0.02104 0.53053 0.0
C550 C 0.64051 0.91274 0.60924 0.0
C551 C 0.66935 0.89518 0.62583 0.0
C552 C 0.70626 0.97908 0.5666 0.0
C553 C 0.71696 0.9212 0.61262 0.0
C554 C 0.77266 0.0542 0.52813 0.0
C555 C 0.70889 0.06352 0.46234 0.0
N556 N 0.73405 0.96194 0.58371 0.0
N557 N 0.69478 0.02697 0.49764 0.0
H558 H 0.71294 0.82831 0.82548 0.0
H559 H 0.70752 0.60539 0.96047 0.0
H560 H 0.61862 0.6852 0.77948 0.0
H561 H 0.83518 0.73756 0.95853 0.0
H562 H 0.66848 0.63994 0.91178 0.0
H563 H 0.75316 0.80098 0.88918 0.0
C564 C 0.70062 0.79135 0.82889 0.0
C565 C 0.66261 0.75907 0.79672 0.0
C566 C 0.70499 0.6617 0.92228 0.0
C567 C 0.70754 0.72785 0.86958 0.0
C568 C 0.72735 0.64192 0.9508 0.0
C569 C 0.77469 0.66855 0.9645 0.0
C570 C 0.73009 0.70861 0.90613 0.0
C571 C 0.7985 0.71583 0.94904 0.0
C572 C 0.72359 0.77587 0.86499 0.0
C573 C 0.64803 0.71156 0.80276 0.0
N574 N 0.776 0.73447 0.92046 0.0
N575 N 0.67031 0.69755 0.83839 0.0
H576 H 0.09586 0.83501 0.29336 0.0
H577 H 0.93184 0.61304 0.10964 0.0
H578 H 0.10517 0.70999 0.28612 0.0
H579 H 0.88388 0.70666 0.16189 0.0
H580 H 0.99912 0.65365 0.1697 0.0
H581 H 0.02106 0.79384 0.24251 0.0
C582 C 0.08193 0.79882 0.28186 0.0
C583 C 0.10664 0.77576 0.29488 0.0
C584 C 0.97394 0.66541 0.16847 0.0
C585 C 0.02216 0.72905 0.23591 0.0
C586 C 0.93543 0.64233 0.13371 0.0
C587 C 0.90205 0.65654 0.1303 0.0
C588 C 0.98002 0.70368 0.2001 0.0
C589 C 0.90875 0.69454 0.16326 0.0
C590 C 0.03933 0.7754 0.25302 0.0
C591 C 0.08738 0.72911 0.27832 0.0
N592 N 0.94731 0.71718 0.19653 0.0
N593 N 0.04668 0.70756 0.24959 0.0
H594 H 0.40144 0.11077 0.61333 0.0
H595 H 0.17678 0.88467 0.49289 0.0
H596 H 0.2655 0.0977 0.62082 0.0
H597 H 0.31905 0.93186 0.44511 0.0
H598 H 0.20507 0.954 0.55359 0.0
H599 H 0.36798 0.03572 0.56757 0.0
C600 C 0.36435 0.09181 0.60642 0.0
C601 C 0.33621 0.11037 0.62207 0.0
C602 C 0.22984 0.94882 0.52976 0.0
C603 C 0.29739 0.02425 0.56704 0.0
C604 C 0.21379 0.90932 0.49535 0.0
C605 C 0.2455 0.90263 0.46345 0.0
C606 C 0.27789 0.98103 0.53289 0.0
C607 C 0.29311 0.93565 0.46823 0.0
C608 C 0.34518 0.04889 0.57954 0.0
C609 C 0.28834 0.08435 0.60988 0.0
N610 N 0.30769 0.9731 0.50217 0.0
N611 N 0.27031 0.04252 0.58298 0.0
H612 H 0.15163 0.47239 0.62179 0.0
H613 H 0.27576 0.36784 0.43016 0.0
H614 H 0.18747 0.37078 0.67925 0.0
H615 H 0.24126 0.47063 0.37346 0.0
H616 H 0.24441 0.36904 0.52185 0.0
H617 H 0.18396 0.47191 0.53052 0.0
C618 C 0.16605 0.44976 0.61521 0.0
C619 C 0.16671 0.42155 0.6585 0.0
C620 C 0.24367 0.39132 0.48934 0.0
C621 C 0.20441 0.42124 0.55388 0.0
C622 C 0.26187 0.39089 0.43697 0.0
C623 C 0.26119 0.41914 0.39372 0.0
C624 C 0.22453 0.4202 0.49881 0.0
C625 C 0.24196 0.4477 0.40508 0.0
C626 C 0.1848 0.44974 0.56309 0.0
C627 C 0.18667 0.39358 0.64753 0.0
N628 N 0.22444 0.44747 0.45638 0.0
N629 N 0.20462 0.3941 0.59641 0.0
H630 H 0.67919 0.14248 0.95384 0.0
H631 H 0.90727 0.26945 0.76219 0.0
H632 H 0.81742 0.18127 1.01138 0.0
H633 H 0.76971 0.23421 0.70566 0.0
H634 H 0.87491 0.23707 0.8535 0.0
H635 H 0.71139 0.17457 0.86226 0.0
C636 C 0.71627 0.15749 0.94722 0.0
C637 C 0.74557 0.15912 0.99063 0.0
C638 C 0.85177 0.23638 0.82113 0.0
C639 C 0.78285 0.1965 0.88569 0.0
C640 C 0.8703 0.25517 0.76896 0.0
C641 C 0.84127 0.2547 0.72589 0.0
C642 C 0.80375 0.21683 0.83061 0.0
C643 C 0.79343 0.23485 0.73716 0.0
C644 C 0.7347 0.17609 0.89492 0.0
C645 C 0.7935 0.17974 0.97958 0.0
N646 N 0.77624 0.21679 0.78831 0.0
N647 N 0.81057 0.19754 0.92832 0.0
H648 H 0.53855 0.6764 0.28876 0.0
H649 H 0.63723 0.9051 0.09796 0.0
H650 H 0.63488 0.81512 0.34777 0.0
H651 H 0.53709 0.76712 0.04032 0.0
H652 H 0.63735 0.87265 0.18927 0.0
H653 H 0.53888 0.70864 0.19704 0.0
C654 C 0.56 0.71361 0.28246 0.0
C655 C 0.58673 0.74299 0.32638 0.0
C656 C 0.61536 0.84943 0.15665 0.0
C657 C 0.58686 0.78034 0.22113 0.0
C658 C 0.61504 0.86801 0.10445 0.0
C659 C 0.58702 0.83893 0.06104 0.0
C660 C 0.5875 0.80129 0.16589 0.0
C661 C 0.55973 0.79094 0.07204 0.0
C662 C 0.55994 0.73206 0.23005 0.0
C663 C 0.61321 0.79108 0.31562 0.0
N664 N 0.56064 0.7737 0.12324 0.0
N665 N 0.61262 0.80817 0.26423 0.0
H666 H 0.90631 0.62276 0.62539 0.0
H667 H 0.67706 0.53851 0.43836 0.0
H668 H 0.76645 0.53507 0.68652 0.0
H669 H 0.81687 0.62325 0.37571 0.0
H670 H 0.70921 0.53735 0.52965 0.0
H671 H 0.87436 0.62287 0.53356 0.0
C672 C 0.8689 0.60327 0.61952 0.0
C673 C 0.83911 0.57894 0.66405 0.0
C674 C 0.73289 0.55616 0.49593 0.0
C675 C 0.80216 0.57943 0.55881 0.0
C676 C 0.71452 0.55708 0.4438 0.0
C677 C 0.74423 0.58105 0.39908 0.0
C678 C 0.78142 0.57945 0.50373 0.0
C679 C 0.79256 0.60381 0.40862 0.0
C680 C 0.85065 0.6036 0.56706 0.0
C681 C 0.79084 0.55494 0.65387 0.0
N682 N 0.80959 0.60251 0.4598 0.0
N683 N 0.77394 0.55583 0.60247 0.0
H684 H 0.23441 0.7652 0.70781 0.0
H685 H 0.18422 0.81879 1.01795 0.0
H686 H 0.09788 0.73055 0.76706 0.0
H687 H 0.3214 0.85688 0.95772 0.0
H688 H 0.15197 0.7856 0.92669 0.0
H689 H 0.26687 0.79882 0.79888 0.0
C690 C 0.21122 0.76485 0.73979 0.0
C691 C 0.16323 0.74501 0.72942 0.0
C692 C 0.18915 0.80126 0.93336 0.0
C693 C 0.2003 0.78308 0.83446 0.0
C694 C 0.20761 0.82002 0.98566 0.0
C695 C 0.25569 0.84062 0.99583 0.0
C696 C 0.21886 0.80299 0.89059 0.0
C697 C 0.28424 0.84187 0.95181 0.0
C698 C 0.2298 0.78385 0.79199 0.0
C699 C 0.13494 0.74487 0.77311 0.0
N700 N 0.2654 0.82325 0.90127 0.0
N701 N 0.15388 0.76361 0.82355 0.0
H702 H 0.47314 0.328 0.28292 0.0
H703 H 0.37074 0.10058 0.08897 0.0
H704 H 0.37278 0.18989 0.33919 0.0
H705 H 0.47527 0.23781 0.03482 0.0
H706 H 0.37089 0.13262 0.18074 0.0
H707 H 0.47347 0.29581 0.19137 0.0
C708 C 0.45097 0.29094 0.276 0.0
C709 C 0.42286 0.26167 0.31899 0.0
C710 C 0.39381 0.15574 0.14879 0.0
C711 C 0.42344 0.22441 0.21414 0.0
C712 C 0.39396 0.13739 0.09639 0.0
C713 C 0.42304 0.16647 0.05386 0.0
C714 C 0.42292 0.2036 0.15899 0.0
C715 C 0.45177 0.2141 0.0659 0.0
C716 C 0.4514 0.27252 0.22375 0.0
C717 C 0.39545 0.21376 0.30765 0.0
N718 N 0.45096 0.23112 0.11722 0.0
N719 N 0.39638 0.19669 0.2564 0.0
H720 H 0.26708 0.5814 0.05133 0.0
H721 H 0.13372 0.61768 0.30565 0.0
H722 H 0.14941 0.46445 0.12795 0.0
H723 H 0.24028 0.72641 0.2046 0.0
H724 H 0.13179 0.55963 0.23926 0.0
H725 H 0.24946 0.63404 0.1022 0.0
C726 C 0.23651 0.56687 0.07777 0.0
C727 C 0.20904 0.51868 0.08441 0.0
C728 C 0.15515 0.59637 0.23174 0.0
C729 C 0.19009 0.5789 0.1465 0.0
C730 C 0.15648 0.6295 0.26981 0.0
C731 C 0.18795 0.6773 0.26188 0.0
C732 C 0.18523 0.61141 0.18538 0.0
C733 C 0.21593 0.69036 0.21386 0.0
C734 C 0.22662 0.5969 0.10748 0.0
C735 C 0.17063 0.50152 0.12059 0.0
N736 N 0.214 0.65788 0.17812 0.0
N737 N 0.16271 0.53168 0.15123 0.0
H738 H 0.69532 0.27465 0.38073 0.0
H739 H 0.50961 0.13443 0.62076 0.0
H740 H 0.68474 0.15108 0.45391 0.0
H741 H 0.53679 0.26422 0.54584 0.0
H742 H 0.56545 0.13179 0.55479 0.0
H743 H 0.6262 0.26092 0.43135 0.0
C744 C 0.67741 0.24374 0.40643 0.0
C745 C 0.69519 0.21361 0.41249 0.0
C746 C 0.55871 0.16054 0.55292 0.0
C747 C 0.61733 0.19896 0.47404 0.0
C748 C 0.52715 0.16228 0.5908 0.0
C749 C 0.51849 0.19977 0.5895 0.0
C750 C 0.58126 0.19635 0.51336 0.0
C751 C 0.54185 0.23448 0.5491 0.0
C752 C 0.6382 0.23611 0.43602 0.0
C753 C 0.67138 0.17457 0.44732 0.0
N754 N 0.57184 0.23184 0.51312 0.0
N755 N 0.63397 0.16873 0.47772 0.0
H756 H 0.38143 0.50746 0.96275 0.0
H757 H 0.42466 0.68603 0.71426 0.0
H758 H 0.27859 0.53209 0.88327 0.0
H759 H 0.53931 0.68423 0.79643 0.0
H760 H 0.37048 0.61653 0.76518 0.0
H761 H 0.44001 0.56236 0.8961 0.0
C762 C 0.37106 0.5242 0.93167 0.0
C763 C 0.3248 0.51513 0.92934 0.0
C764 C 0.40745 0.63052 0.77176 0.0
C765 C 0.39105 0.57667 0.85239 0.0
C766 C 0.43836 0.66989 0.74196 0.0
C767 C 0.48634 0.69021 0.75042 0.0
C768 C 0.42436 0.61219 0.81253 0.0
C769 C 0.50243 0.66875 0.78789 0.0
C770 C 0.40441 0.55522 0.89343 0.0
C771 C 0.31342 0.53747 0.8875 0.0
N772 N 0.47141 0.63123 0.81854 0.0
N773 N 0.34605 0.56684 0.85119 0.0
H774 H 0.7868 0.27629 0.18839 0.0
H775 H 0.85214 0.53824 0.1258 0.0
H776 H 0.85435 0.38282 0.31393 0.0
H777 H 0.72888 0.41666 0.06525 0.0
H778 H 0.87329 0.48714 0.17766 0.0
H779 H 0.78708 0.33361 0.12558 0.0
C780 C 0.80179 0.31179 0.20303 0.0
C781 C 0.81914 0.32422 0.25759 0.0
C782 C 0.84224 0.47185 0.15194 0.0
C783 C 0.82024 0.3907 0.18451 0.0
C784 C 0.83053 0.50086 0.12177 0.0
C785 C 0.78922 0.48141 0.09028 0.0
C786 C 0.81268 0.42333 0.14967 0.0
C787 C 0.76135 0.43286 0.08835 0.0
C788 C 0.80217 0.34461 0.16674 0.0
C789 C 0.83993 0.37146 0.27272 0.0
N790 N 0.77366 0.40554 0.11737 0.0
N791 N 0.83934 0.40307 0.23655 0.0
H792 H 0.31881 0.85259 0.45695 0.0
H793 H 0.47425 0.74172 0.54852 0.0
H794 H 0.30787 0.72608 0.39273 0.0
H795 H 0.49114 0.86653 0.6275 0.0
H796 H 0.42033 0.7438 0.48367 0.0
H797 H 0.38876 0.86714 0.51013 0.0
C798 C 0.33219 0.8289 0.4524 0.0
C799 C 0.30806 0.78833 0.41993 0.0
C800 C 0.43557 0.77096 0.51497 0.0
C801 C 0.38656 0.80384 0.48149 0.0
C802 C 0.46677 0.76985 0.5526 0.0
C803 C 0.48749 0.80385 0.59451 0.0
C804 C 0.42366 0.80595 0.51884 0.0
C805 C 0.47569 0.83921 0.59649 0.0
C806 C 0.37164 0.83685 0.48331 0.0
C807 C 0.32575 0.75793 0.41688 0.0
N808 N 0.44416 0.83915 0.55944 0.0
N809 N 0.36357 0.76618 0.44734 0.0
H810 H 0.72244 0.51408 0.85998 0.0
H811 H 0.46107 0.31571 0.79312 0.0
H812 H 0.61533 0.46588 0.98549 0.0
H813 H 0.58343 0.3293 0.71303 0.0
H814 H 0.51123 0.38489 0.85037 0.0
H815 H 0.66563 0.46153 0.79305 0.0
C816 C 0.6869 0.49233 0.87375 0.0
C817 C 0.67416 0.49343 0.92929 0.0
C818 C 0.52684 0.37341 0.81911 0.0
C819 C 0.60812 0.43307 0.85158 0.0
C820 C 0.49825 0.3345 0.7858 0.0
C821 C 0.51821 0.31762 0.74728 0.0
C822 C 0.57548 0.3956 0.81315 0.0
C823 C 0.5667 0.34185 0.74136 0.0
C824 C 0.65432 0.46247 0.83513 0.0
C825 C 0.62689 0.46573 0.94346 0.0
N826 N 0.59358 0.37951 0.7738 0.0
N827 N 0.59554 0.43606 0.90498 0.0
loop_
_geom_bond_atom_site_label_1
_geom_bond_atom_site_label_2
_geom_bond_distance
_geom_bond_site_symmetry_2
_ccdc_geom_bond_type
Tb0 N31 2.660 . S
Tb0 N38 2.600 . S
Tb0 O44 2.546 . S
Tb0 O45 2.610 . S
Tb0 O47 2.320 . S
Tb0 O48 2.552 . S
Tb0 O49 2.413 . S
Tb0 O51 2.362 1_556 S
Tb0 O52 2.421 1_556 S
Tb0 C64 2.833 . S
C1 C4 1.432 . S
C1 C5 1.414 . S
C1 N8 1.359 . S
C2 C4 1.417 . S
C2 C6 1.432 . S
C2 C14 1.410 . S
C3 C5 1.444 . S
C3 C6 1.317 . S
C3 H26 0.929 . S
C4 C1 1.432 . S
C4 C2 1.417 . S
C4 N12 1.360 . S
C5 C1 1.414 . S
C5 C3 1.444 . S
C5 C10 1.385 . S
C6 C2 1.432 . S
C6 C3 1.317 . S
C6 H18 0.930 . S
C7 C9 1.392 . S
C7 C10 1.370 . S
C7 H19 0.931 . S
N8 C1 1.359 . S
N8 C9 1.327 . S
N8 Tb11 2.600 . S
C9 C7 1.392 . S
C9 N8 1.327 . S
C9 H16 0.930 . S
C10 C5 1.385 . S
C10 C7 1.370 . S
C10 H29 0.930 . S
Tb11 N8 2.600 . S
Tb11 N12 2.660 . S
Tb11 O45 2.362 1_554 S
Tb11 O46 2.421 . S
Tb11 O50 2.546 . S
Tb11 O51 2.610 . S
Tb11 O53 2.320 . S
Tb11 O54 2.552 . S
Tb11 O55 2.413 . S
Tb11 C75 2.833 . S
N12 C4 1.360 . S
N12 Tb11 2.660 . S
N12 C13 1.305 . S
C13 N12 1.305 . S
C13 C15 1.407 . S
C13 H20 0.930 . S
C14 C2 1.410 . S
C14 C15 1.345 . S
C14 H22 0.930 . S
C15 C13 1.407 . S
C15 C14 1.345 . S
C15 H17 0.930 . S
H16 C9 0.930 . S
H17 C15 0.930 . S
H18 C6 0.930 . S
H19 C7 0.931 . S
H20 C13 0.930 . S
H21 C35 0.930 . S
H22 C14 0.930 . S
H23 C41 0.930 . S
H24 C32 0.930 . S
H25 C39 0.931 1_655 S
H26 C3 0.929 . S
H27 C33 0.930 . S
H28 C66 0.930 . S
H29 C10 0.930 . S
H30 C65 0.929 . S
N31 Tb0 2.660 . S
N31 C32 1.305 . S
N31 C36 1.360 . S
C32 H24 0.930 . S
C32 N31 1.305 . S
C32 C35 1.407 . S
C33 H27 0.930 . S
C33 C34 1.410 . S
C33 C35 1.345 . S
C34 C33 1.410 . S
C34 C36 1.417 . S
C34 C66 1.432 . S
C35 H21 0.930 . S
C35 C32 1.407 . S
C35 C33 1.345 . S
C36 N31 1.360 . S
C36 C34 1.417 . S
C36 C40 1.432 . S
H37 C42 0.930 1_655 S
N38 Tb0 2.600 . S
N38 C40 1.359 . S
N38 C41 1.327 . S
C39 H25 0.931 1_455 S
C39 C41 1.392 . S
C39 C42 1.370 . S
C40 C36 1.432 . S
C40 N38 1.359 . S
C40 C43 1.414 . S
C41 H23 0.930 . S
C41 N38 1.327 . S
C41 C39 1.392 . S
C42 H37 0.930 1_455 S
C42 C39 1.370 . S
C42 C43 1.385 . S
C43 C40 1.414 . S
C43 C42 1.385 . S
C43 C65 1.444 . S
O44 Tb0 2.546 . S
O44 C64 1.251 . S
O45 Tb0 2.610 . S
O45 Tb11 2.362 1_556 S
O45 C56 1.283 . S
O46 Tb11 2.421 . S
O46 C63 1.262 1_554 S
O47 Tb0 2.320 . S
O47 C63 1.260 . S
O48 Tb0 2.552 . S
O48 C56 1.243 . S
O49 Tb0 2.413 . S
O49 C64 1.256 . S
O50 Tb11 2.546 . S
O50 C75 1.251 . S
O51 Tb0 2.362 1_554 S
O51 Tb11 2.610 . S
O51 C67 1.283 . S
O52 Tb0 2.421 1_554 S
O52 C74 1.262 . S
O53 Tb11 2.320 . S
O53 C74 1.260 . S
O54 Tb11 2.552 . S
O54 C67 1.243 . S
O55 Tb11 2.413 . S
O55 C75 1.256 . S
C56 O45 1.283 . S
C56 O48 1.243 . S
C57 C59 1.382 . S
C57 C61 1.393 . S
C57 C64 1.500 . S
C58 C59 1.400 . S
C58 C60 1.384 . S
C59 C57 1.382 . S
C59 C58 1.400 . S
C59 H76 0.930 . S
C60 C58 1.384 . S
C60 C62 1.392 . S
C60 H77 0.931 . S
C61 C57 1.393 . S
C61 C62 1.401 . S
C61 H78 0.930 . S
C62 C60 1.392 . S
C62 C61 1.401 . S
C62 H79 0.930 . S
C63 O46 1.262 1_556 S
C63 O47 1.260 . S
C64 Tb0 2.833 . S
C64 O44 1.251 . S
C64 O49 1.256 . S
C64 C57 1.500 . S
C65 H30 0.929 . S
C65 C43 1.444 . S
C65 C66 1.317 . S
C66 H28 0.930 . S
C66 C34 1.432 . S
C66 C65 1.317 . S
C67 O51 1.283 . S
C67 O54 1.243 . S
C68 C69 1.382 . S
C68 C72 1.393 . S
C68 C75 1.500 . S
C69 C68 1.382 . S
C69 C70 1.400 . S
C69 H80 0.930 . S
C70 C69 1.400 . S
C70 C71 1.384 . S
C71 C70 1.384 . S
C71 C73 1.392 . S
C71 H81 0.931 . S
C72 C68 1.393 . S
C72 C73 1.401 . S
C72 H82 0.930 . S
C73 C71 1.392 . S
C73 C72 1.401 . S
C73 H83 0.930 . S
C74 O52 1.262 . S
C74 O53 1.260 . S
C75 Tb11 2.833 . S
C75 O50 1.251 . S
C75 O55 1.256 . S
C75 C68 1.500 . S
H76 C59 0.930 . S
H77 C60 0.931 . S
H78 C61 0.930 . S
H79 C62 0.930 . S
H80 C69 0.930 . S
H81 C71 0.931 . S
H82 C72 0.930 . S
H83 C73 0.930 . S
Tb84 N115 2.660 . S
Tb84 N122 2.600 . S
Tb84 O128 2.546 . S
Tb84 O129 2.610 . S
Tb84 O131 2.320 . S
Tb84 O132 2.552 . S
Tb84 O133 2.413 . S
Tb84 O135 2.362 . S
Tb84 O136 2.421 . S
Tb84 C148 2.833 . S
C85 C88 1.432 . S
C85 C89 1.414 . S
C85 N92 1.359 . S
C86 C88 1.417 . S
C86 C90 1.432 1_655 S
C86 C98 1.410 . S
C87 C89 1.444 1_455 S
C87 C90 1.317 . S
C87 H110 0.929 . S
C88 C85 1.432 . S
C88 C86 1.417 . S
C88 N96 1.360 . S
C89 C85 1.414 . S
C89 C87 1.444 1_655 S
C89 C94 1.385 . S
C90 C86 1.432 1_455 S
C90 C87 1.317 . S
C90 H102 0.930 . S
C91 C93 1.392 . S
C91 C94 1.370 . S
C91 H103 0.931 . S
N92 C85 1.359 . S
N92 C93 1.327 . S
N92 Tb95 2.600 . S
C93 C91 1.392 . S
C93 N92 1.327 . S
C93 H100 0.930 . S
C94 C89 1.385 . S
C94 C91 1.370 . S
C94 H113 0.930 1_655 S
Tb95 N92 2.600 . S
Tb95 N96 2.660 . S
Tb95 O129 2.362 . S
Tb95 O130 2.421 . S
Tb95 O134 2.546 . S
Tb95 O135 2.610 . S
Tb95 O137 2.320 . S
Tb95 O138 2.552 . S
Tb95 O139 2.413 . S
Tb95 C159 2.833 . S
N96 C88 1.360 . S
N96 Tb95 2.660 . S
N96 C97 1.305 . S
C97 N96 1.305 . S
C97 C99 1.407 . S
C97 H104 0.930 . S
C98 C86 1.410 . S
C98 C99 1.345 . S
C98 H106 0.930 1_655 S
C99 C97 1.407 . S
C99 C98 1.345 . S
C99 H101 0.930 . S
H100 C93 0.930 . S
H101 C99 0.930 . S
H102 C90 0.930 . S
H103 C91 0.931 . S
H104 C97 0.930 . S
H105 C119 0.930 . S
H106 C98 0.930 1_455 S
H107 C125 0.930 . S
H108 C116 0.930 . S
H109 C123 0.931 1_565 S
H110 C87 0.929 . S
H111 C117 0.930 . S
H112 C150 0.930 . S
H113 C94 0.930 1_455 S
H114 C149 0.929 . S
N115 Tb84 2.660 . S
N115 C116 1.305 . S
N115 C120 1.360 . S
C116 H108 0.930 . S
C116 N115 1.305 . S
C116 C119 1.407 . S
C117 H111 0.930 . S
C117 C118 1.410 . S
C117 C119 1.345 . S
C118 C117 1.410 . S
C118 C120 1.417 . S
C118 C150 1.432 . S
C119 H105 0.930 . S
C119 C116 1.407 . S
C119 C117 1.345 . S
C120 N115 1.360 . S
C120 C118 1.417 . S
C120 C124 1.432 . S
H121 C126 0.930 1_565 S
N122 Tb84 2.600 . S
N122 C124 1.359 . S
N122 C125 1.327 . S
C123 H109 0.931 1_545 S
C123 C125 1.392 . S
C123 C126 1.370 . S
C124 C120 1.432 . S
C124 N122 1.359 . S
C124 C127 1.414 . S
C125 H107 0.930 . S
C125 N122 1.327 . S
C125 C123 1.392 . S
C126 H121 0.930 1_545 S
C126 C123 1.370 . S
C126 C127 1.385 . S
C127 C124 1.414 . S
C127 C126 1.385 . S
C127 C149 1.444 . S
O128 Tb84 2.546 . S
O128 C148 1.251 . S
O129 Tb84 2.610 . S
O129 Tb95 2.362 . S
O129 C140 1.283 . S
O130 Tb95 2.421 . S
O130 C147 1.262 . S
O131 Tb84 2.320 . S
O131 C147 1.260 . S
O132 Tb84 2.552 . S
O132 C140 1.243 . S
O133 Tb84 2.413 . S
O133 C148 1.256 . S
O134 Tb95 2.546 . S
O134 C159 1.251 . S
O135 Tb84 2.362 . S
O135 Tb95 2.610 . S
O135 C151 1.283 . S
O136 Tb84 2.421 . S
O136 C158 1.262 . S
O137 Tb95 2.320 . S
O137 C158 1.260 . S
O138 Tb95 2.552 . S
O138 C151 1.243 . S
O139 Tb95 2.413 . S
O139 C159 1.256 . S
C140 O129 1.283 . S
C140 O132 1.243 . S
C141 C143 1.382 . S
C141 C145 1.393 . S
C141 C148 1.500 . S
C142 C143 1.400 . S
C142 C144 1.380 1_554 S
C143 C141 1.382 . S
C143 C142 1.400 . S
C143 H160 0.930 . S
C144 C142 1.380 1_556 S
C144 C146 1.385 1_556 S
C144 H161 0.942 . S
C145 C141 1.393 . S
C145 C146 1.401 . S
C145 H162 0.930 . S
C146 C144 1.385 1_554 S
C146 C145 1.401 . S
C146 H163 0.930 . S
C147 O130 1.262 . S
C147 O131 1.260 . S
C148 Tb84 2.833 . S
C148 O128 1.251 . S
C148 O133 1.256 . S
C148 C141 1.500 . S
C149 H114 0.929 . S
C149 C127 1.444 . S
C149 C150 1.317 . S
C150 H112 0.930 . S
C150 C118 1.432 . S
C150 C149 1.317 . S
C151 O135 1.283 . S
C151 O138 1.243 . S
C152 C153 1.382 . S
C152 C156 1.393 . S
C152 C159 1.500 . S
C153 C152 1.382 . S
C153 C154 1.400 . S
C153 H164 0.930 . S
C154 C153 1.400 . S
C154 C155 1.384 . S
C155 C154 1.384 . S
C155 C157 1.392 . S
C155 H165 0.931 . S
C156 C152 1.393 . S
C156 C157 1.401 . S
C156 H166 0.930 . S
C157 C155 1.392 . S
C157 C156 1.401 . S
C157 H167 0.930 . S
C158 O136 1.262 . S
C158 O137 1.260 . S
C159 Tb95 2.833 . S
C159 O134 1.251 . S
C159 O139 1.256 . S
C159 C152 1.500 . S
H160 C143 0.930 . S
H161 C144 0.942 . S
H162 C145 0.930 . S
H163 C146 0.930 . S
H164 C153 0.930 . S
H165 C155 0.931 . S
H166 C156 0.930 . S
H167 C157 0.930 . S
Tb168 N199 2.660 . S
Tb168 N206 2.600 . S
Tb168 O212 2.546 . S
Tb168 O213 2.610 . S
Tb168 O215 2.320 . S
Tb168 O216 2.552 . S
Tb168 O217 2.413 . S
Tb168 O219 2.362 . S
Tb168 O220 2.421 . S
Tb168 C232 2.833 . S
C169 C172 1.432 . S
C169 C173 1.414 . S
C169 N176 1.359 . S
C170 C172 1.417 . S
C170 C174 1.432 1_565 S
C170 C182 1.410 . S
C171 C173 1.444 1_545 S
C171 C174 1.317 . S
C171 H194 0.929 . S
C172 C169 1.432 . S
C172 C170 1.417 . S
C172 N180 1.360 . S
C173 C169 1.414 . S
C173 C171 1.444 1_565 S
C173 C178 1.385 . S
C174 C170 1.432 1_545 S
C174 C171 1.317 . S
C174 H186 0.930 . S
C175 C177 1.392 . S
C175 C178 1.370 . S
C175 H187 0.931 . S
N176 C169 1.359 . S
N176 C177 1.327 . S
N176 Tb179 2.600 . S
C177 C175 1.392 . S
C177 N176 1.327 . S
C177 H184 0.930 . S
C178 C173 1.385 . S
C178 C175 1.370 . S
C178 H197 0.930 1_565 S
Tb179 N176 2.600 . S
Tb179 N180 2.660 . S
Tb179 O213 2.362 . S
Tb179 O214 2.421 . S
Tb179 O218 2.546 . S
Tb179 O219 2.610 . S
Tb179 O221 2.320 . S
Tb179 O222 2.552 . S
Tb179 O223 2.413 . S
Tb179 C243 2.833 . S
N180 C172 1.360 . S
N180 Tb179 2.660 . S
N180 C181 1.305 . S
C181 N180 1.305 . S
C181 C183 1.407 . S
C181 H188 0.930 . S
C182 C170 1.410 . S
C182 C183 1.345 . S
C182 H190 0.930 1_565 S
C183 C181 1.407 . S
C183 C182 1.345 . S
C183 H185 0.930 . S
H184 C177 0.930 . S
H185 C183 0.930 . S
H186 C174 0.930 . S
H187 C175 0.931 . S
H188 C181 0.930 . S
H189 C203 0.930 . S
H190 C182 0.930 1_545 S
H191 C209 0.930 . S
H192 C200 0.930 . S
H193 C207 0.931 . S
H194 C171 0.929 . S
H195 C201 0.930 . S
H196 C234 0.930 . S
H197 C178 0.930 1_545 S
H198 C233 0.929 . S
N199 Tb168 2.660 . S
N199 C200 1.305 . S
N199 C204 1.360 . S
C200 H192 0.930 . S
C200 N199 1.305 . S
C200 C203 1.407 . S
C201 H195 0.930 . S
C201 C202 1.410 . S
C201 C203 1.345 . S
C202 C201 1.410 . S
C202 C204 1.417 . S
C202 C234 1.432 . S
C203 H189 0.930 . S
C203 C200 1.407 . S
C203 C201 1.345 . S
C204 N199 1.360 . S
C204 C202 1.417 . S
C204 C208 1.432 . S
H205 C210 0.930 . S
N206 Tb168 2.600 . S
N206 C208 1.359 . S
N206 C209 1.327 . S
C207 H193 0.931 . S
C207 C209 1.392 . S
C207 C210 1.370 . S
C208 C204 1.432 . S
C208 N206 1.359 . S
C208 C211 1.414 . S
C209 H191 0.930 . S
C209 N206 1.327 . S
C209 C207 1.392 . S
C210 H205 0.930 . S
C210 C207 1.370 . S
C210 C211 1.385 . S
C211 C208 1.414 . S
C211 C210 1.385 . S
C211 C233 1.444 . S
O212 Tb168 2.546 . S
O212 C232 1.251 . S
O213 Tb168 2.610 . S
O213 Tb179 2.362 . S
O213 C224 1.283 . S
O214 Tb179 2.421 . S
O214 C231 1.262 . S
O215 Tb168 2.320 . S
O215 C231 1.260 . S
O216 Tb168 2.552 . S
O216 C224 1.243 . S
O217 Tb168 2.413 . S
O217 C232 1.256 . S
O218 Tb179 2.546 . S
O218 C243 1.251 . S
O219 Tb168 2.362 . S
O219 Tb179 2.610 . S
O219 C235 1.283 . S
O220 Tb168 2.421 . S
O220 C242 1.262 . S
O221 Tb179 2.320 . S
O221 C242 1.260 . S
O222 Tb179 2.552 . S
O222 C235 1.243 . S
O223 Tb179 2.413 . S
O223 C243 1.256 . S
C224 O213 1.283 . S
C224 O216 1.243 . S
C225 C227 1.382 . S
C225 C229 1.393 . S
C225 C232 1.500 . S
C226 C227 1.400 . S
C226 C228 1.384 . S
C227 C225 1.382 . S
C227 C226 1.400 . S
C227 H244 0.930 . S
C228 C226 1.384 . S
C228 C230 1.392 . S
C228 H245 0.931 . S
C229 C225 1.393 . S
C229 C230 1.401 . S
C229 H246 0.930 . S
C230 C228 1.392 . S
C230 C229 1.401 . S
C230 H247 0.930 . S
C231 O214 1.262 . S
C231 O215 1.260 . S
C232 Tb168 2.833 . S
C232 O212 1.251 . S
C232 O217 1.256 . S
C232 C225 1.500 . S
C233 H198 0.929 . S
C233 C211 1.444 . S
C233 C234 1.317 . S
C234 H196 0.930 . S
C234 C202 1.432 . S
C234 C233 1.317 . S
C235 O219 1.283 . S
C235 O222 1.243 . S
C236 C237 1.382 . S
C236 C240 1.393 . S
C236 C243 1.500 . S
C237 C236 1.382 . S
C237 C238 1.400 . S
C237 H248 0.930 . S
C238 C237 1.400 . S
C238 C239 1.384 1_556 S
C239 C238 1.384 1_554 S
C239 C241 1.392 1_554 S
C239 H249 0.931 . S
C240 C236 1.393 . S
C240 C241 1.401 . S
C240 H250 0.930 . S
C241 C239 1.392 1_556 S
C241 C240 1.401 . S
C241 H251 0.930 . S
C242 O220 1.262 . S
C242 O221 1.260 . S
C243 Tb179 2.833 . S
C243 O218 1.251 . S
C243 O223 1.256 . S
C243 C236 1.500 . S
H244 C227 0.930 . S
H245 C228 0.931 . S
H246 C229 0.930 . S
H247 C230 0.930 . S
H248 C237 0.930 . S
H249 C239 0.931 . S
H250 C240 0.930 . S
H251 C241 0.930 . S
Tb252 N283 2.660 . S
Tb252 N290 2.600 . S
Tb252 O296 2.546 . S
Tb252 O297 2.610 . S
Tb252 O299 2.320 . S
Tb252 O300 2.552 . S
Tb252 O301 2.413 . S
Tb252 O303 2.362 1_556 S
Tb252 O304 2.421 1_556 S
Tb252 C316 2.833 . S
C253 C256 1.432 . S
C253 C257 1.414 . S
C253 N260 1.359 . S
C254 C256 1.417 . S
C254 C258 1.432 . S
C254 C266 1.410 . S
C255 C257 1.444 . S
C255 C258 1.317 . S
C255 H278 0.929 . S
C256 C253 1.432 . S
C256 C254 1.417 . S
C256 N264 1.360 . S
C257 C253 1.414 . S
C257 C255 1.444 . S
C257 C262 1.385 . S
C258 C254 1.432 . S
C258 C255 1.317 . S
C258 H270 0.930 . S
C259 C261 1.392 . S
C259 C262 1.370 . S
C259 H271 0.931 . S
N260 C253 1.359 . S
N260 C261 1.327 . S
N260 Tb263 2.600 . S
C261 C259 1.392 . S
C261 N260 1.327 . S
C261 H268 0.930 . S
C262 C257 1.385 . S
C262 C259 1.370 . S
C262 H281 0.930 . S
Tb263 N260 2.600 . S
Tb263 N264 2.660 . S
Tb263 O297 2.362 1_554 S
Tb263 O298 2.421 . S
Tb263 O302 2.546 . S
Tb263 O303 2.610 . S
Tb263 O305 2.320 . S
Tb263 O306 2.552 . S
Tb263 O307 2.413 . S
Tb263 C327 2.833 . S
N264 C256 1.360 . S
N264 Tb263 2.660 . S
N264 C265 1.305 . S
C265 N264 1.305 . S
C265 C267 1.407 . S
C265 H272 0.930 . S
C266 C254 1.410 . S
C266 C267 1.345 . S
C266 H274 0.930 . S
C267 C265 1.407 . S
C267 C266 1.345 . S
C267 H269 0.930 . S
H268 C261 0.930 . S
H269 C267 0.930 . S
H270 C258 0.930 . S
H271 C259 0.931 . S
H272 C265 0.930 . S
H273 C287 0.930 . S
H274 C266 0.930 . S
H275 C293 0.930 . S
H276 C284 0.930 . S
H277 C291 0.931 1_455 S
H278 C255 0.929 . S
H279 C285 0.930 . S
H280 C318 0.930 . S
H281 C262 0.930 . S
H282 C317 0.929 . S
N283 Tb252 2.660 . S
N283 C284 1.305 . S
N283 C288 1.360 . S
C284 H276 0.930 . S
C284 N283 1.305 . S
C284 C287 1.407 . S
C285 H279 0.930 . S
C285 C286 1.410 . S
C285 C287 1.345 . S
C286 C285 1.410 . S
C286 C288 1.417 . S
C286 C318 1.432 . S
C287 H273 0.930 . S
C287 C284 1.407 . S
C287 C285 1.345 . S
C288 N283 1.360 . S
C288 C286 1.417 . S
C288 C292 1.432 . S
H289 C294 0.930 1_455 S
N290 Tb252 2.600 . S
N290 C292 1.359 . S
N290 C293 1.327 . S
C291 H277 0.931 1_655 S
C291 C293 1.392 . S
C291 C294 1.370 . S
C292 C288 1.432 . S
C292 N290 1.359 . S
C292 C295 1.414 . S
C293 H275 0.930 . S
C293 N290 1.327 . S
C293 C291 1.392 . S
C294 H289 0.930 1_655 S
C294 C291 1.370 . S
C294 C295 1.385 . S
C295 C292 1.414 . S
C295 C294 1.385 . S
C295 C317 1.444 . S
O296 Tb252 2.546 . S
O296 C316 1.251 . S
O297 Tb252 2.610 . S
O297 Tb263 2.362 1_556 S
O297 C308 1.283 . S
O298 Tb263 2.421 . S
O298 C315 1.262 1_554 S
O299 Tb252 2.320 . S
O299 C315 1.260 . S
O300 Tb252 2.552 . S
O300 C308 1.243 . S
O301 Tb252 2.413 . S
O301 C316 1.256 . S
O302 Tb263 2.546 . S
O302 C327 1.251 . S
O303 Tb252 2.362 1_554 S
O303 Tb263 2.610 . S
O303 C319 1.283 . S
O304 Tb252 2.421 1_554 S
O304 C326 1.262 . S
O305 Tb263 2.320 . S
O305 C326 1.260 . S
O306 Tb263 2.552 . S
O306 C319 1.243 . S
O307 Tb263 2.413 . S
O307 C327 1.256 . S
C308 O297 1.283 . S
C308 O300 1.243 . S
C309 C311 1.382 . S
C309 C313 1.393 . S
C309 C316 1.500 . S
C310 C311 1.400 . S
C310 C312 1.384 . S
C311 C309 1.382 . S
C311 C310 1.400 . S
C311 H328 0.930 . S
C312 C310 1.384 . S
C312 C314 1.392 . S
C312 H329 0.931 . S
C313 C309 1.393 . S
C313 C314 1.401 . S
C313 H330 0.930 . S
C314 C312 1.392 . S
C314 C313 1.401 . S
C314 H331 0.930 . S
C315 O298 1.262 1_556 S
C315 O299 1.260 . S
C316 Tb252 2.833 . S
C316 O296 1.251 . S
C316 O301 1.256 . S
C316 C309 1.500 . S
C317 H282 0.929 . S
C317 C295 1.444 . S
C317 C318 1.317 . S
C318 H280 0.930 . S
C318 C286 1.432 . S
C318 C317 1.317 . S
C319 O303 1.283 . S
C319 O306 1.243 . S
C320 C321 1.382 . S
C320 C324 1.393 . S
C320 C327 1.500 . S
C321 C320 1.382 . S
C321 C322 1.400 . S
C321 H332 0.930 . S
C322 C321 1.400 . S
C322 C323 1.384 . S
C323 C322 1.384 . S
C323 C325 1.392 . S
C323 H333 0.931 . S
C324 C320 1.393 . S
C324 C325 1.401 . S
C324 H334 0.930 . S
C325 C323 1.392 . S
C325 C324 1.401 . S
C325 H335 0.930 . S
C326 O304 1.262 . S
C326 O305 1.260 . S
C327 Tb263 2.833 . S
C327 O302 1.251 . S
C327 O307 1.256 . S
C327 C320 1.500 . S
H328 C311 0.930 . S
H329 C312 0.931 . S
H330 C313 0.930 . S
H331 C314 0.930 . S
H332 C321 0.930 . S
H333 C323 0.931 . S
H334 C324 0.930 . S
H335 C325 0.930 . S
Tb336 N367 2.660 . S
Tb336 N374 2.600 . S
Tb336 O380 2.546 . S
Tb336 O381 2.610 . S
Tb336 O383 2.320 . S
Tb336 O384 2.552 . S
Tb336 O385 2.413 . S
Tb336 O387 2.362 . S
Tb336 O388 2.421 . S
Tb336 C400 2.833 . S
C337 C340 1.432 . S
C337 C341 1.414 . S
C337 N344 1.359 . S
C338 C340 1.417 . S
C338 C342 1.432 1_455 S
C338 C350 1.410 . S
C339 C341 1.444 1_655 S
C339 C342 1.317 . S
C339 H362 0.929 . S
C340 C337 1.432 . S
C340 C338 1.417 . S
C340 N348 1.360 . S
C341 C337 1.414 . S
C341 C339 1.444 1_455 S
C341 C346 1.385 . S
C342 C338 1.432 1_655 S
C342 C339 1.317 . S
C342 H354 0.930 . S
C343 C345 1.392 . S
C343 C346 1.370 . S
C343 H355 0.931 . S
N344 C337 1.359 . S
N344 C345 1.327 . S
N344 Tb347 2.600 . S
C345 C343 1.392 . S
C345 N344 1.327 . S
C345 H352 0.930 . S
C346 C341 1.385 . S
C346 C343 1.370 . S
C346 H365 0.930 1_455 S
Tb347 N344 2.600 . S
Tb347 N348 2.660 . S
Tb347 O381 2.362 . S
Tb347 O382 2.421 . S
Tb347 O386 2.546 . S
Tb347 O387 2.610 . S
Tb347 O389 2.320 . S
Tb347 O390 2.552 . S
Tb347 O391 2.413 . S
Tb347 C411 2.833 . S
N348 C340 1.360 . S
N348 Tb347 2.660 . S
N348 C349 1.305 . S
C349 N348 1.305 . S
C349 C351 1.407 . S
C349 H356 0.930 . S
C350 C338 1.410 . S
C350 C351 1.345 . S
C350 H358 0.930 1_455 S
C351 C349 1.407 . S
C351 C350 1.345 . S
C351 H353 0.930 . S
H352 C345 0.930 . S
H353 C351 0.930 . S
H354 C342 0.930 . S
H355 C343 0.931 . S
H356 C349 0.930 . S
H357 C371 0.930 . S
H358 C350 0.930 1_655 S
H359 C377 0.930 . S
H360 C368 0.930 . S
H361 C375 0.931 1_545 S
H362 C339 0.929 . S
H363 C369 0.930 . S
H364 C402 0.930 . S
H365 C346 0.930 1_655 S
H366 C401 0.929 . S
N367 Tb336 2.660 . S
N367 C368 1.305 . S
N367 C372 1.360 . S
C368 H360 0.930 . S
C368 N367 1.305 . S
C368 C371 1.407 . S
C369 H363 0.930 . S
C369 C370 1.410 . S
C369 C371 1.345 . S
C370 C369 1.410 . S
C370 C372 1.417 . S
C370 C402 1.432 . S
C371 H357 0.930 . S
C371 C368 1.407 . S
C371 C369 1.345 . S
C372 N367 1.360 . S
C372 C370 1.417 . S
C372 C376 1.432 . S
H373 C378 0.930 1_545 S
N374 Tb336 2.600 . S
N374 C376 1.359 . S
N374 C377 1.327 . S
C375 H361 0.931 1_565 S
C375 C377 1.392 . S
C375 C378 1.370 . S
C376 C372 1.432 . S
C376 N374 1.359 . S
C376 C379 1.414 . S
C377 H359 0.930 . S
C377 N374 1.327 . S
C377 C375 1.392 . S
C378 H373 0.930 1_565 S
C378 C375 1.370 . S
C378 C379 1.385 . S
C379 C376 1.414 . S
C379 C378 1.385 . S
C379 C401 1.444 . S
O380 Tb336 2.546 . S
O380 C400 1.251 . S
O381 Tb336 2.610 . S
O381 Tb347 2.362 . S
O381 C392 1.283 . S
O382 Tb347 2.421 . S
O382 C399 1.262 . S
O383 Tb336 2.320 . S
O383 C399 1.260 . S
O384 Tb336 2.552 . S
O384 C392 1.243 . S
O385 Tb336 2.413 . S
O385 C400 1.256 . S
O386 Tb347 2.546 . S
O386 C411 1.251 . S
O387 Tb336 2.362 . S
O387 Tb347 2.610 . S
O387 C403 1.283 . S
O388 Tb336 2.421 . S
O388 C410 1.262 . S
O389 Tb347 2.320 . S
O389 C410 1.260 . S
O390 Tb347 2.552 . S
O390 C403 1.243 . S
O391 Tb347 2.413 . S
O391 C411 1.256 . S
C392 O381 1.283 . S
C392 O384 1.243 . S
C393 C395 1.382 . S
C393 C397 1.393 . S
C393 C400 1.500 . S
C394 C395 1.400 . S
C394 C396 1.380 1_554 S
C395 C393 1.382 . S
C395 C394 1.400 . S
C395 H412 0.930 . S
C396 C394 1.380 1_556 S
C396 C398 1.385 1_556 S
C396 H413 0.942 . S
C397 C393 1.393 . S
C397 C398 1.401 . S
C397 H414 0.930 . S
C398 C396 1.385 1_554 S
C398 C397 1.401 . S
C398 H415 0.930 . S
C399 O382 1.262 . S
C399 O383 1.260 . S
C400 Tb336 2.833 . S
C400 O380 1.251 . S
C400 O385 1.256 . S
C400 C393 1.500 . S
C401 H366 0.929 . S
C401 C379 1.444 . S
C401 C402 1.317 . S
C402 H364 0.930 . S
C402 C370 1.432 . S
C402 C401 1.317 . S
C403 O387 1.283 . S
C403 O390 1.243 . S
C404 C405 1.382 . S
C404 C408 1.393 . S
C404 C411 1.500 . S
C405 C404 1.382 . S
C405 C406 1.400 . S
C405 H416 0.930 . S
C406 C405 1.400 . S
C406 C407 1.384 . S
C407 C406 1.384 . S
C407 C409 1.392 . S
C407 H417 0.931 . S
C408 C404 1.393 . S
C408 C409 1.401 . S
C408 H418 0.930 . S
C409 C407 1.392 . S
C409 C408 1.401 . S
C409 H419 0.930 . S
C410 O388 1.262 . S
C410 O389 1.260 . S
C411 Tb347 2.833 . S
C411 O386 1.251 . S
C411 O391 1.256 . S
C411 C404 1.500 . S
H412 C395 0.930 . S
H413 C396 0.942 . S
H414 C397 0.930 . S
H415 C398 0.930 . S
H416 C405 0.930 . S
H417 C407 0.931 . S
H418 C408 0.930 . S
H419 C409 0.930 . S
Tb420 N451 2.660 . S
Tb420 N458 2.600 . S
Tb420 O464 2.546 . S
Tb420 O465 2.610 . S
Tb420 O467 2.320 . S
Tb420 O468 2.552 . S
Tb420 O469 2.413 . S
Tb420 O471 2.362 . S
Tb420 O472 2.421 . S
Tb420 C484 2.833 . S
C421 C424 1.432 . S
C421 C425 1.414 . S
C421 N428 1.359 . S
C422 C424 1.417 . S
C422 C426 1.432 1_545 S
C422 C434 1.410 . S
C423 C425 1.444 1_565 S
C423 C426 1.317 . S
C423 H446 0.929 . S
C424 C421 1.432 . S
C424 C422 1.417 . S
C424 N432 1.360 . S
C425 C421 1.414 . S
C425 C423 1.444 1_545 S
C425 C430 1.385 . S
C426 C422 1.432 1_565 S
C426 C423 1.317 . S
C426 H438 0.930 . S
C427 C429 1.392 . S
C427 C430 1.370 . S
C427 H439 0.931 . S
N428 C421 1.359 . S
N428 C429 1.327 . S
N428 Tb431 2.600 . S
C429 C427 1.392 . S
C429 N428 1.327 . S
C429 H436 0.930 . S
C430 C425 1.385 . S
C430 C427 1.370 . S
C430 H449 0.930 1_545 S
Tb431 N428 2.600 . S
Tb431 N432 2.660 . S
Tb431 O465 2.362 . S
Tb431 O466 2.421 . S
Tb431 O470 2.546 . S
Tb431 O471 2.610 . S
Tb431 O473 2.320 . S
Tb431 O474 2.552 . S
Tb431 O475 2.413 . S
Tb431 C495 2.833 . S
N432 C424 1.360 . S
N432 Tb431 2.660 . S
N432 C433 1.305 . S
C433 N432 1.305 . S
C433 C435 1.407 . S
C433 H440 0.930 . S
C434 C422 1.410 . S
C434 C435 1.345 . S
C434 H442 0.930 1_545 S
C435 C433 1.407 . S
C435 C434 1.345 . S
C435 H437 0.930 . S
H436 C429 0.930 . S
H437 C435 0.930 . S
H438 C426 0.930 . S
H439 C427 0.931 . S
H440 C433 0.930 . S
H441 C455 0.930 . S
H442 C434 0.930 1_565 S
H443 C461 0.930 . S
H444 C452 0.930 . S
H445 C459 0.931 . S
H446 C423 0.929 . S
H447 C453 0.930 . S
H448 C486 0.930 . S
H449 C430 0.930 1_565 S
H450 C485 0.929 . S
N451 Tb420 2.660 . S
N451 C452 1.305 . S
N451 C456 1.360 . S
C452 H444 0.930 . S
C452 N451 1.305 . S
C452 C455 1.407 . S
C453 H447 0.930 . S
C453 C454 1.410 . S
C453 C455 1.345 . S
C454 C453 1.410 . S
C454 C456 1.417 . S
C454 C486 1.432 . S
C455 H441 0.930 . S
C455 C452 1.407 . S
C455 C453 1.345 . S
C456 N451 1.360 . S
C456 C454 1.417 . S
C456 C460 1.432 . S
H457 C462 0.930 . S
N458 Tb420 2.600 . S
N458 C460 1.359 . S
N458 C461 1.327 . S
C459 H445 0.931 . S
C459 C461 1.392 . S
C459 C462 1.370 . S
C460 C456 1.432 . S
C460 N458 1.359 . S
C460 C463 1.414 . S
C461 H443 0.930 . S
C461 N458 1.327 . S
C461 C459 1.392 . S
C462 H457 0.930 . S
C462 C459 1.370 . S
C462 C463 1.385 . S
C463 C460 1.414 . S
C463 C462 1.385 . S
C463 C485 1.444 . S
O464 Tb420 2.546 . S
O464 C484 1.251 . S
O465 Tb420 2.610 . S
O465 Tb431 2.362 . S
O465 C476 1.283 . S
O466 Tb431 2.421 . S
O466 C483 1.262 . S
O467 Tb420 2.320 . S
O467 C483 1.260 . S
O468 Tb420 2.552 . S
O468 C476 1.243 . S
O469 Tb420 2.413 . S
O469 C484 1.256 . S
O470 Tb431 2.546 . S
O470 C495 1.251 . S
O471 Tb420 2.362 . S
O471 Tb431 2.610 . S
O471 C487 1.283 . S
O472 Tb420 2.421 . S
O472 C494 1.262 . S
O473 Tb431 2.320 . S
O473 C494 1.260 . S
O474 Tb431 2.552 . S
O474 C487 1.243 . S
O475 Tb431 2.413 . S
O475 C495 1.256 . S
C476 O465 1.283 . S
C476 O468 1.243 . S
C477 C479 1.382 . S
C477 C481 1.393 . S
C477 C484 1.500 . S
C478 C479 1.400 . S
C478 C480 1.384 . S
C479 C477 1.382 . S
C479 C478 1.400 . S
C479 H496 0.930 . S
C480 C478 1.384 . S
C480 C482 1.392 . S
C480 H497 0.931 . S
C481 C477 1.393 . S
C481 C482 1.401 . S
C481 H498 0.930 . S
C482 C480 1.392 . S
C482 C481 1.401 . S
C482 H499 0.930 . S
C483 O466 1.262 . S
C483 O467 1.260 . S
C484 Tb420 2.833 . S
C484 O464 1.251 . S
C484 O469 1.256 . S
C484 C477 1.500 . S
C485 H450 0.929 . S
C485 C463 1.444 . S
C485 C486 1.317 . S
C486 H448 0.930 . S
C486 C454 1.432 . S
C486 C485 1.317 . S
C487 O471 1.283 . S
C487 O474 1.243 . S
C488 C489 1.382 . S
C488 C492 1.393 . S
C488 C495 1.500 . S
C489 C488 1.382 . S
C489 C490 1.400 . S
C489 H500 0.930 . S
C490 C489 1.400 . S
C490 C491 1.384 1_556 S
C491 C490 1.384 1_554 S
C491 C493 1.392 1_554 S
C491 H501 0.931 . S
C492 C488 1.393 . S
C492 C493 1.401 . S
C492 H502 0.930 . S
C493 C491 1.392 1_556 S
C493 C492 1.401 . S
C493 H503 0.930 . S
C494 O472 1.262 . S
C494 O473 1.260 . S
C495 Tb431 2.833 . S
C495 O470 1.251 . S
C495 O475 1.256 . S
C495 C488 1.500 . S
H496 C479 0.930 . S
H497 C480 0.931 . S
H498 C481 0.930 . S
H499 C482 0.930 . S
H500 C489 0.930 . S
H501 C491 0.931 . S
H502 C492 0.930 . S
H503 C493 0.930 . S
H504 C510 0.930 . S
H505 C514 0.930 . S
H506 C519 0.929 . S
H507 C517 0.929 . S
H508 C512 0.929 . S
H509 C518 0.929 . S
C510 H504 0.930 . S
C510 C511 1.367 . S
C510 C518 1.378 . S
C511 C510 1.367 . S
C511 C519 1.433 . S
C512 H508 0.929 . S
C512 C514 1.378 . S
C512 C516 1.350 . S
C513 C516 1.463 . S
C513 C518 1.350 . S
C513 N521 1.427 . S
C514 H505 0.930 . S
C514 C512 1.378 . S
C514 C515 1.367 . S
C515 C514 1.367 . S
C515 C517 1.433 . S
C516 C512 1.350 . S
C516 C513 1.463 . S
C516 N520 1.427 . S
C517 H507 0.929 . S
C517 C515 1.433 . S
C517 N520 1.384 . S
C518 H509 0.929 . S
C518 C510 1.378 . S
C518 C513 1.350 . S
C519 H506 0.929 . S
C519 C511 1.433 . S
C519 N521 1.384 . S
N520 C516 1.427 . S
N520 C517 1.384 . S
N521 C513 1.427 . S
N521 C519 1.384 . S
H522 C528 0.930 . S
H523 C532 0.930 . S
H524 C537 0.929 . S
H525 C535 0.929 . S
H526 C530 0.929 . S
H527 C536 0.929 . S
C528 H522 0.930 . S
C528 C529 1.367 . S
C528 C536 1.378 . S
C529 C528 1.367 . S
C529 C537 1.433 . S
C530 H526 0.929 . S
C530 C532 1.378 . S
C530 C534 1.350 . S
C531 C534 1.463 1_455 S
C531 C536 1.350 . S
C531 N539 1.427 . S
C532 H523 0.930 . S
C532 C530 1.378 . S
C532 C533 1.367 . S
C533 C532 1.367 . S
C533 C535 1.433 . S
C534 C530 1.350 . S
C534 C531 1.463 1_655 S
C534 N538 1.427 . S
C535 H525 0.929 . S
C535 C533 1.433 . S
C535 N538 1.384 . S
C536 H527 0.929 . S
C536 C528 1.378 . S
C536 C531 1.350 . S
C537 H524 0.929 . S
C537 C529 1.433 . S
C537 N539 1.384 . S
N538 C534 1.427 . S
N538 C535 1.384 . S
N539 C531 1.427 . S
N539 C537 1.384 . S
H540 C546 0.930 . S
H541 C550 0.930 . S
H542 C555 0.929 . S
H543 C553 0.929 . S
H544 C548 0.929 . S
H545 C554 0.952 . S
C546 H540 0.930 . S
C546 C547 1.367 . S
C546 C554 1.378 . S
C547 C546 1.367 . S
C547 C555 1.433 . S
C548 H544 0.929 . S
C548 C550 1.378 . S
C548 C552 1.350 . S
C549 C552 1.463 1_545 S
C549 C554 1.350 . S
C549 N557 1.427 . S
C550 H541 0.930 . S
C550 C548 1.378 . S
C550 C551 1.367 . S
C551 C550 1.367 . S
C551 C553 1.433 . S
C552 C548 1.350 . S
C552 C549 1.463 1_565 S
C552 N556 1.427 . S
C553 H543 0.929 . S
C553 C551 1.433 . S
C553 N556 1.384 . S
C554 H545 0.952 . S
C554 C546 1.378 . S
C554 C549 1.350 . S
C555 H542 0.929 . S
C555 C547 1.433 . S
C555 N557 1.384 . S
N556 C552 1.427 . S
N556 C553 1.384 . S
N557 C549 1.427 . S
N557 C555 1.384 . S
H558 C564 0.930 . S
H559 C568 0.930 . S
H560 C573 0.929 . S
H561 C571 0.929 . S
H562 C566 0.929 . S
H563 C572 0.929 . S
C564 H558 0.930 . S
C564 C565 1.367 . S
C564 C572 1.378 . S
C565 C564 1.367 . S
C565 C573 1.433 . S
C566 H562 0.929 . S
C566 C568 1.378 . S
C566 C570 1.350 . S
C567 C570 1.463 . S
C567 C572 1.350 . S
C567 N575 1.427 . S
C568 H559 0.930 . S
C568 C566 1.378 . S
C568 C569 1.367 . S
C569 C568 1.367 . S
C569 C571 1.433 . S
C570 C566 1.350 . S
C570 C567 1.463 . S
C570 N574 1.427 . S
C571 H561 0.929 . S
C571 C569 1.433 . S
C571 N574 1.384 . S
C572 H563 0.929 . S
C572 C564 1.378 . S
C572 C567 1.350 . S
C573 H560 0.929 . S
C573 C565 1.433 . S
C573 N575 1.384 . S
N574 C570 1.427 . S
N574 C571 1.384 . S
N575 C567 1.427 . S
N575 C573 1.384 . S
H576 C582 0.930 . S
H577 C586 0.930 . S
H578 C591 0.929 . S
H579 C589 0.929 . S
H580 C584 0.929 1_455 S
H581 C590 0.929 1_655 S
C582 H576 0.930 . S
C582 C583 1.367 . S
C582 C590 1.378 . S
C583 C582 1.367 . S
C583 C591 1.433 . S
C584 H580 0.929 1_655 S
C584 C586 1.378 . S
C584 C588 1.350 . S
C585 C588 1.463 1_455 S
C585 C590 1.350 . S
C585 N593 1.427 . S
C586 H577 0.930 . S
C586 C584 1.378 . S
C586 C587 1.367 . S
C587 C586 1.367 . S
C587 C589 1.433 . S
C588 C584 1.350 . S
C588 C585 1.463 1_655 S
C588 N592 1.427 . S
C589 H579 0.929 . S
C589 C587 1.433 . S
C589 N592 1.384 . S
C590 H581 0.929 1_455 S
C590 C582 1.378 . S
C590 C585 1.350 . S
C591 H578 0.929 . S
C591 C583 1.433 . S
C591 N593 1.384 . S
N592 C588 1.427 . S
N592 C589 1.384 . S
N593 C585 1.427 . S
N593 C591 1.384 . S
H594 C600 0.930 . S
H595 C604 0.930 . S
H596 C609 0.929 . S
H597 C607 0.929 . S
H598 C602 0.942 . S
H599 C608 0.929 . S
C600 H594 0.930 . S
C600 C601 1.367 . S
C600 C608 1.378 . S
C601 C600 1.367 . S
C601 C609 1.433 . S
C602 H598 0.942 . S
C602 C604 1.378 . S
C602 C606 1.350 . S
C603 C606 1.463 1_545 S
C603 C608 1.350 . S
C603 N611 1.427 . S
C604 H595 0.930 . S
C604 C602 1.378 . S
C604 C605 1.367 . S
C605 C604 1.367 . S
C605 C607 1.433 . S
C606 C602 1.350 . S
C606 C603 1.463 1_565 S
C606 N610 1.427 . S
C607 H597 0.929 . S
C607 C605 1.433 . S
C607 N610 1.384 . S
C608 H599 0.929 . S
C608 C600 1.378 . S
C608 C603 1.350 . S
C609 H596 0.929 . S
C609 C601 1.433 . S
C609 N611 1.384 . S
N610 C606 1.427 . S
N610 C607 1.384 . S
N611 C603 1.427 . S
N611 C609 1.384 . S
H612 C618 0.930 . S
H613 C622 0.930 . S
H614 C627 0.929 . S
H615 C625 0.929 . S
H616 C620 0.929 . S
H617 C626 0.929 . S
C618 H612 0.930 . S
C618 C619 1.367 . S
C618 C626 1.378 . S
C619 C618 1.367 . S
C619 C627 1.433 . S
C620 H616 0.929 . S
C620 C622 1.378 . S
C620 C624 1.350 . S
C621 C624 1.463 . S
C621 C626 1.350 . S
C621 N629 1.427 . S
C622 H613 0.930 . S
C622 C620 1.378 . S
C622 C623 1.367 . S
C623 C622 1.367 . S
C623 C625 1.433 . S
C624 C620 1.350 . S
C624 C621 1.463 . S
C624 N628 1.427 . S
C625 H615 0.929 . S
C625 C623 1.433 . S
C625 N628 1.384 . S
C626 H617 0.929 . S
C626 C618 1.378 . S
C626 C621 1.350 . S
C627 H614 0.929 . S
C627 C619 1.433 . S
C627 N629 1.384 . S
N628 C624 1.427 . S
N628 C625 1.384 . S
N629 C621 1.427 . S
N629 C627 1.384 . S
H630 C636 0.930 . S
H631 C640 0.930 . S
H632 C645 0.929 . S
H633 C643 0.929 . S
H634 C638 0.929 . S
H635 C644 0.929 . S
C636 H630 0.930 . S
C636 C637 1.367 . S
C636 C644 1.378 . S
C637 C636 1.367 . S
C637 C645 1.433 . S
C638 H634 0.929 . S
C638 C640 1.378 . S
C638 C642 1.350 . S
C639 C642 1.463 . S
C639 C644 1.350 . S
C639 N647 1.427 . S
C640 H631 0.930 . S
C640 C638 1.378 . S
C640 C641 1.367 . S
C641 C640 1.367 . S
C641 C643 1.433 . S
C642 C638 1.350 . S
C642 C639 1.463 . S
C642 N646 1.427 . S
C643 H633 0.929 . S
C643 C641 1.433 . S
C643 N646 1.384 . S
C644 H635 0.929 . S
C644 C636 1.378 . S
C644 C639 1.350 . S
C645 H632 0.929 . S
C645 C637 1.433 . S
C645 N647 1.384 . S
N646 C642 1.427 . S
N646 C643 1.384 . S
N647 C639 1.427 . S
N647 C645 1.384 . S
H648 C654 0.930 . S
H649 C658 0.930 . S
H650 C663 0.929 . S
H651 C661 0.929 . S
H652 C656 0.929 . S
H653 C662 0.929 . S
C654 H648 0.930 . S
C654 C655 1.367 . S
C654 C662 1.378 . S
C655 C654 1.367 . S
C655 C663 1.433 . S
C656 H652 0.929 . S
C656 C658 1.378 . S
C656 C660 1.350 . S
C657 C660 1.463 . S
C657 C662 1.350 . S
C657 N665 1.427 . S
C658 H649 0.930 . S
C658 C656 1.378 . S
C658 C659 1.367 . S
C659 C658 1.367 . S
C659 C661 1.433 . S
C660 C656 1.350 . S
C660 C657 1.463 . S
C660 N664 1.427 . S
C661 H651 0.929 . S
C661 C659 1.433 . S
C661 N664 1.384 . S
C662 H653 0.929 . S
C662 C654 1.378 . S
C662 C657 1.350 . S
C663 H650 0.929 . S
C663 C655 1.433 . S
C663 N665 1.384 . S
N664 C660 1.427 . S
N664 C661 1.384 . S
N665 C657 1.427 . S
N665 C663 1.384 . S
H666 C672 0.930 . S
H667 C676 0.930 . S
H668 C681 0.929 . S
H669 C679 0.929 . S
H670 C674 0.929 . S
H671 C680 0.929 . S
C672 H666 0.930 . S
C672 C673 1.367 . S
C672 C680 1.378 . S
C673 C672 1.367 . S
C673 C681 1.433 . S
C674 H670 0.929 . S
C674 C676 1.378 . S
C674 C678 1.350 . S
C675 C678 1.463 . S
C675 C680 1.350 . S
C675 N683 1.427 . S
C676 H667 0.930 . S
C676 C674 1.378 . S
C676 C677 1.367 . S
C677 C676 1.367 . S
C677 C679 1.433 . S
C678 C674 1.350 . S
C678 C675 1.463 . S
C678 N682 1.427 . S
C679 H669 0.929 . S
C679 C677 1.433 . S
C679 N682 1.384 . S
C680 H671 0.929 . S
C680 C672 1.378 . S
C680 C675 1.350 . S
C681 H668 0.929 . S
C681 C673 1.433 . S
C681 N683 1.384 . S
N682 C678 1.427 . S
N682 C679 1.384 . S
N683 C675 1.427 . S
N683 C681 1.384 . S
H684 C690 0.930 . S
H685 C694 0.930 . S
H686 C699 0.929 . S
H687 C697 0.929 . S
H688 C692 0.929 . S
H689 C698 0.929 . S
C690 H684 0.930 . S
C690 C691 1.367 . S
C690 C698 1.378 . S
C691 C690 1.367 . S
C691 C699 1.433 . S
C692 H688 0.929 . S
C692 C694 1.378 . S
C692 C696 1.350 . S
C693 C696 1.463 . S
C693 C698 1.350 . S
C693 N701 1.427 . S
C694 H685 0.930 . S
C694 C692 1.378 . S
C694 C695 1.367 . S
C695 C694 1.367 . S
C695 C697 1.433 . S
C696 C692 1.350 . S
C696 C693 1.463 . S
C696 N700 1.427 . S
C697 H687 0.929 . S
C697 C695 1.433 . S
C697 N700 1.384 . S
C698 H689 0.929 . S
C698 C690 1.378 . S
C698 C693 1.350 . S
C699 H686 0.929 . S
C699 C691 1.433 . S
C699 N701 1.384 . S
N700 C696 1.427 . S
N700 C697 1.384 . S
N701 C693 1.427 . S
N701 C699 1.384 . S
H702 C708 0.930 . S
H703 C712 0.930 . S
H704 C717 0.929 . S
H705 C715 0.929 . S
H706 C710 0.929 . S
H707 C716 0.929 . S
C708 H702 0.930 . S
C708 C709 1.367 . S
C708 C716 1.378 . S
C709 C708 1.367 . S
C709 C717 1.433 . S
C710 H706 0.929 . S
C710 C712 1.378 . S
C710 C714 1.350 . S
C711 C714 1.463 . S
C711 C716 1.350 . S
C711 N719 1.427 . S
C712 H703 0.930 . S
C712 C710 1.378 . S
C712 C713 1.367 . S
C713 C712 1.367 . S
C713 C715 1.433 . S
C714 C710 1.350 . S
C714 C711 1.463 . S
C714 N718 1.427 . S
C715 H705 0.929 . S
C715 C713 1.433 . S
C715 N718 1.384 . S
C716 H707 0.929 . S
C716 C708 1.378 . S
C716 C711 1.350 . S
C717 H704 0.929 . S
C717 C709 1.433 . S
C717 N719 1.384 . S
N718 C714 1.427 . S
N718 C715 1.384 . S
N719 C711 1.427 . S
N719 C717 1.384 . S
H720 C726 0.930 . S
H721 C730 0.930 . S
H722 C735 0.929 . S
H723 C733 0.929 . S
H724 C728 0.929 . S
H725 C734 0.929 . S
C726 H720 0.930 . S
C726 C727 1.367 . S
C726 C734 1.378 . S
C727 C726 1.367 . S
C727 C735 1.433 . S
C728 H724 0.929 . S
C728 C730 1.378 . S
C728 C732 1.350 . S
C729 C732 1.463 . S
C729 C734 1.350 . S
C729 N737 1.427 . S
C730 H721 0.930 . S
C730 C728 1.378 . S
C730 C731 1.367 . S
C731 C730 1.367 . S
C731 C733 1.433 . S
C732 C728 1.350 . S
C732 C729 1.463 . S
C732 N736 1.427 . S
C733 H723 0.929 . S
C733 C731 1.433 . S
C733 N736 1.384 . S
C734 H725 0.929 . S
C734 C726 1.378 . S
C734 C729 1.350 . S
C735 H722 0.929 . S
C735 C727 1.433 . S
C735 N737 1.384 . S
N736 C732 1.427 . S
N736 C733 1.384 . S
N737 C729 1.427 . S
N737 C735 1.384 . S
H738 C744 0.930 . S
H739 C748 0.930 . S
H740 C753 0.929 . S
H741 C751 0.929 . S
H742 C746 0.929 . S
H743 C752 0.929 . S
C744 H738 0.930 . S
C744 C745 1.367 . S
C744 C752 1.378 . S
C745 C744 1.367 . S
C745 C753 1.433 . S
C746 H742 0.929 . S
C746 C748 1.378 . S
C746 C750 1.350 . S
C747 C750 1.463 . S
C747 C752 1.350 . S
C747 N755 1.427 . S
C748 H739 0.930 . S
C748 C746 1.378 . S
C748 C749 1.367 . S
C749 C748 1.367 . S
C749 C751 1.433 . S
C750 C746 1.350 . S
C750 C747 1.463 . S
C750 N754 1.427 . S
C751 H741 0.929 . S
C751 C749 1.433 . S
C751 N754 1.384 . S
C752 H743 0.929 . S
C752 C744 1.378 . S
C752 C747 1.350 . S
C753 H740 0.929 . S
C753 C745 1.433 . S
C753 N755 1.384 . S
N754 C750 1.427 . S
N754 C751 1.384 . S
N755 C747 1.427 . S
N755 C753 1.384 . S
H756 C762 0.930 . S
H757 C766 0.930 . S
H758 C771 0.929 . S
H759 C769 0.929 . S
H760 C764 0.929 . S
H761 C770 0.929 . S
C762 H756 0.930 . S
C762 C763 1.367 . S
C762 C770 1.378 . S
C763 C762 1.367 . S
C763 C771 1.433 . S
C764 H760 0.929 . S
C764 C766 1.378 . S
C764 C768 1.350 . S
C765 C768 1.463 . S
C765 C770 1.350 . S
C765 N773 1.427 . S
C766 H757 0.930 . S
C766 C764 1.378 . S
C766 C767 1.367 . S
C767 C766 1.367 . S
C767 C769 1.433 . S
C768 C764 1.350 . S
C768 C765 1.463 . S
C768 N772 1.427 . S
C769 H759 0.929 . S
C769 C767 1.433 . S
C769 N772 1.384 . S
C770 H761 0.929 . S
C770 C762 1.378 . S
C770 C765 1.350 . S
C771 H758 0.929 . S
C771 C763 1.433 . S
C771 N773 1.384 . S
N772 C768 1.427 . S
N772 C769 1.384 . S
N773 C765 1.427 . S
N773 C771 1.384 . S
H774 C780 0.930 . S
H775 C784 0.930 . S
H776 C789 0.929 . S
H777 C787 0.929 . S
H778 C782 0.929 . S
H779 C788 0.929 . S
C780 H774 0.930 . S
C780 C781 1.367 . S
C780 C788 1.378 . S
C781 C780 1.367 . S
C781 C789 1.433 . S
C782 H778 0.929 . S
C782 C784 1.378 . S
C782 C786 1.350 . S
C783 C786 1.463 . S
C783 C788 1.350 . S
C783 N791 1.427 . S
C784 H775 0.930 . S
C784 C782 1.378 . S
C784 C785 1.367 . S
C785 C784 1.367 . S
C785 C787 1.433 . S
C786 C782 1.350 . S
C786 C783 1.463 . S
C786 N790 1.427 . S
C787 H777 0.929 . S
C787 C785 1.433 . S
C787 N790 1.384 . S
C788 H779 0.929 . S
C788 C780 1.378 . S
C788 C783 1.350 . S
C789 H776 0.929 . S
C789 C781 1.433 . S
C789 N791 1.384 . S
N790 C786 1.427 . S
N790 C787 1.384 . S
N791 C783 1.427 . S
N791 C789 1.384 . S
H792 C798 0.930 . S
H793 C802 0.930 . S
H794 C807 0.929 . S
H795 C805 0.929 . S
H796 C800 0.929 . S
H797 C806 0.929 . S
C798 H792 0.930 . S
C798 C799 1.367 . S
C798 C806 1.378 . S
C799 C798 1.367 . S
C799 C807 1.433 . S
C800 H796 0.929 . S
C800 C802 1.378 . S
C800 C804 1.350 . S
C801 C804 1.463 . S
C801 C806 1.350 . S
C801 N809 1.427 . S
C802 H793 0.930 . S
C802 C800 1.378 . S
C802 C803 1.367 . S
C803 C802 1.367 . S
C803 C805 1.433 . S
C804 C800 1.350 . S
C804 C801 1.463 . S
C804 N808 1.427 . S
C805 H795 0.929 . S
C805 C803 1.433 . S
C805 N808 1.384 . S
C806 H797 0.929 . S
C806 C798 1.378 . S
C806 C801 1.350 . S
C807 H794 0.929 . S
C807 C799 1.433 . S
C807 N809 1.384 . S
N808 C804 1.427 . S
N808 C805 1.384 . S
N809 C801 1.427 . S
N809 C807 1.384 . S
H810 C816 0.930 . S
H811 C820 0.930 . S
H812 C825 0.929 . S
H813 C823 0.929 . S
H814 C818 0.929 . S
H815 C824 0.929 . S
C816 H810 0.930 . S
C816 C817 1.367 . S
C816 C824 1.378 . S
C817 C816 1.367 . S
C817 C825 1.433 . S
C818 H814 0.929 . S
C818 C820 1.378 . S
C818 C822 1.350 . S
C819 C822 1.463 . S
C819 C824 1.350 . S
C819 N827 1.427 . S
C820 H811 0.930 . S
C820 C818 1.378 . S
C820 C821 1.367 . S
C821 C820 1.367 . S
C821 C823 1.433 . S
C822 C818 1.350 . S
C822 C819 1.463 . S
C822 N826 1.427 . S
C823 H813 0.929 . S
C823 C821 1.433 . S
C823 N826 1.384 . S
C824 H815 0.929 . S
C824 C816 1.378 . S
C824 C819 1.350 . S
C825 H812 0.929 . S
C825 C817 1.433 . S
C825 N827 1.384 . S
N826 C822 1.427 . S
N826 C823 1.384 . S
N827 C819 1.427 . S
N827 C825 1.384 . S
C511 C494 1.444 . S
C515 C56 1.391 . S
C529 C74 1.443 . S
C533 C140 1.395 . S
C547 C158 1.440 . S
C551 C224 1.398 . S
C565 C242 1.443 . S
C569 C308 1.387 . S
C583 C392 1.400 . S
C587 C326 1.441 . S
C601 C476 1.398 . S
C605 C410 1.440 . S
C619 C58 1.316 . S
C623 C70 1.316 . S
C637 C142 1.308 1_556 S
C641 C154 1.308 . S
C655 C226 1.307 . S
C659 C238 1.307 1_554 S
C673 C310 1.309 . S
C677 C322 1.309 . S
C691 C406 1.320 . S
C695 C394 1.320 1_556 S
C709 C478 1.315 . S
C713 C490 1.315 1_554 S
C727 C67 1.371 . S
C731 C399 1.437 . S
C745 C151 1.368 . S
C749 C483 1.438 . S
C763 C63 1.439 . S
C767 C235 1.366 . S
C781 C147 1.429 . S
C785 C319 1.377 . S
C799 C403 1.379 . S
C803 C231 1.428 . S
C817 C315 1.434 . S
C821 C487 1.371 . S
