# Generated by pormake.
# Topology uni, (4)-cn, num edge types: 1
# Building blocks:
#     Node 0, Type 0, BuildingBlock: UXUYUI_clean_sbu_0, # of connection points: 4
#     Node 1, Type 0, BuildingBlock: UXUYUI_clean_sbu_0, # of connection points: 4
#     Node 2, Type 0, BuildingBlock: UXUYUI_clean_sbu_0, # of connection points: 4
#     Node 3, Type 0, BuildingBlock: UXUYUI_clean_sbu_0, # of connection points: 4
#     Node 4, Type 0, BuildingBlock: UXUYUI_clean_sbu_0, # of connection points: 4
#     Node 5, Type 0, BuildingBlock: UXUYUI_clean_sbu_0, # of connection points: 4
#     Edge 6, Type (0, 0), BuildingBlock: TEMPAE_clean_linker_10, # of connection points: 2
#     Edge 7, Type (0, 0), BuildingBlock: TEMPAE_clean_linker_10, # of connection points: 2
#     Edge 8, Type (0, 0), BuildingBlock: TEMPAE_clean_linker_10, # of connection points: 2
#     Edge 9, Type (0, 0), BuildingBlock: TEMPAE_clean_linker_10, # of connection points: 2
#     Edge 10, Type (0, 0), BuildingBlock: TEMPAE_clean_linker_10, # of connection points: 2
#     Edge 11, Type (0, 0), BuildingBlock: TEMPAE_clean_linker_10, # of connection points: 2
#     Edge 12, Type (0, 0), BuildingBlock: TEMPAE_clean_linker_10, # of connection points: 2
#     Edge 13, Type (0, 0), BuildingBlock: TEMPAE_clean_linker_10, # of connection points: 2
#     Edge 14, Type (0, 0), BuildingBlock: TEMPAE_clean_linker_10, # of connection points: 2
#     Edge 15, Type (0, 0), BuildingBlock: TEMPAE_clean_linker_10, # of connection points: 2
#     Edge 16, Type (0, 0), BuildingBlock: TEMPAE_clean_linker_10, # of connection points: 2
#     Edge 17, Type (0, 0), BuildingBlock: TEMPAE_clean_linker_10, # of connection points: 2
# Relax obj value: 0.104
# Max RMSD: 0.125
# Mean RMSD: 0.125
data_MOF--net-uni--node1-UXUYUI_clean_sbu_0--edge1-TEMPAE_clean_linker_10
_symmetry_space_group_name_H-M    P1
_symmetry_Int_Tables_number       1
_symmetry_cell_setting            triclinic
loop_
_symmetry_equiv_pos_as_xyz
'x, y, z'
_cell_length_a     57.652544
_cell_length_b     57.654516
_cell_length_c     34.433035
_cell_angle_alpha  90.029442
_cell_angle_beta   89.993776
_cell_angle_gamma 120.00041
loop_
_atom_site_label
_atom_site_type_symbol
_atom_site_fract_x
_atom_site_fract_y
_atom_site_fract_z
_atom_type_partial_charge
Li0 Li 0.66385 0.03472 0.04605 0.0
Li1 Li 0.62481 0.01741 0.0893 0.0
Li2 Li 0.63986 0.98749 0.06316 0.0
Li3 Li 0.61812 0.00466 0.0207 0.0
C4 C 0.68274 0.01977 0.11073 0.0
N5 N 0.72923 0.02129 0.13459 0.0
C6 C 0.68977 0.02312 0.15 0.0
C7 C 0.69931 0.01712 0.08358 0.0
C8 C 0.71338 0.02386 0.16149 0.0
C9 C 0.72274 0.01796 0.09622 0.0
C10 C 0.62993 0.06246 0.04532 0.0
C11 C 0.6028 0.08317 0.03726 0.0
N12 N 0.62369 0.1069 0.04942 0.0
C13 C 0.65121 0.0871 0.05747 0.0
C14 C 0.60559 0.0605 0.03485 0.0
C15 C 0.64763 0.10932 0.05944 0.0
C16 C 0.7013 0.072 0.99456 0.0
N17 N 0.69721 0.06526 0.03275 0.0
C18 C 0.73985 0.10268 0.04921 0.0
C19 C 0.71578 0.08013 0.06008 0.0
C20 C 0.74468 0.11028 0.0099 0.0
C21 C 0.72493 0.09456 0.98244 0.0
H22 H 0.686 0.05996 0.97355 0.0
H23 H 0.71188 0.07461 0.09036 0.0
C24 C 0.59343 0.0016 0.15608 0.0
N25 N 0.60845 0.02343 0.13354 0.0
C26 C 0.57879 0.00312 0.18725 0.0
C27 C 0.59619 0.04993 0.17264 0.0
C28 C 0.61049 0.04748 0.14167 0.0
C29 C 0.57974 0.02745 0.19554 0.0
H30 H 0.59245 0.9828 0.14937 0.0
H31 H 0.62287 0.06472 0.12398 0.0
C32 C 0.64625 0.98409 0.98291 0.0
N33 N 0.63524 0.94531 0.9274 0.0
C34 C 0.62346 0.95875 0.98632 0.0
C35 C 0.66343 0.9897 0.95128 0.0
C36 C 0.61824 0.93942 0.95795 0.0
C37 C 0.65752 0.96982 0.92351 0.0
C38 C 0.57574 0.96847 0.06814 0.0
C39 C 0.56072 0.94052 0.06909 0.0
C40 C 0.56271 0.9834 0.0685 0.0
C41 C 0.53279 0.92793 0.07022 0.0
C42 C 0.53476 0.97007 0.06969 0.0
N43 N 0.5205 0.94284 0.07049 0.0
C44 C 0.62783 0.9421 0.10659 0.0
C45 C 0.66 0.95108 0.05736 0.0
C46 C 0.62913 0.91967 0.11869 0.0
N47 N 0.64309 0.95719 0.07643 0.0
C48 C 0.66183 0.92872 0.06837 0.0
C49 C 0.64628 0.9127 0.09946 0.0
H50 H 0.61464 0.94754 0.12126 0.0
H51 H 0.67215 0.9636 0.03372 0.0
C52 C 0.60177 0.0202 0.95447 0.0
N53 N 0.59535 0.99857 0.97723 0.0
C54 C 0.58531 0.01824 0.92347 0.0
C55 C 0.55635 0.97147 0.93896 0.0
C56 C 0.5734 0.97435 0.96974 0.0
C57 C 0.56203 0.99371 0.91568 0.0
H58 H 0.61954 0.03913 0.96081 0.0
H59 H 0.56887 0.95733 0.98788 0.0
O60 O 0.65954 0.01875 0.0992 0.0
O61 O 0.63315 0.04055 0.04282 0.0
O62 O 0.65181 0.00345 0.01017 0.0
O63 O 0.60307 0.98102 0.06665 0.0
H64 H 0.67709 0.0251 0.17137 0.0
H65 H 0.69421 0.0145 0.05307 0.0
H66 H 0.71909 0.02646 0.19179 0.0
H67 H 0.73575 0.01596 0.07553 0.0
H68 H 0.58405 0.08191 0.02935 0.0
H69 H 0.67018 0.08901 0.0657 0.0
H70 H 0.58903 0.04172 0.02479 0.0
H71 H 0.66387 0.12847 0.069 0.0
H72 H 0.75453 0.11393 0.07141 0.0
H73 H 0.72743 0.09985 0.95195 0.0
H74 H 0.5668 0.98542 0.20463 0.0
H75 H 0.59748 0.06906 0.17794 0.0
H76 H 0.60996 0.95399 0.01063 0.0
H77 H 0.68115 0.00923 0.94824 0.0
H78 H 0.60068 0.91974 0.96025 0.0
H79 H 0.67064 0.97388 0.89887 0.0
H80 H 0.57056 0.92871 0.06876 0.0
H81 H 0.57406 0.00502 0.06802 0.0
H82 H 0.5209 0.90631 0.07085 0.0
H83 H 0.5244 0.98137 0.06999 0.0
H84 H 0.61658 0.90772 0.14251 0.0
H85 H 0.67552 0.92421 0.05306 0.0
H86 H 0.59075 0.03576 0.90581 0.0
H87 H 0.53858 0.95221 0.93406 0.0
Li88 Li 0.63988 0.66187 0.21004 0.0
Li89 Li 0.61708 0.62253 0.25235 0.0
Li90 Li 0.66353 0.63851 0.22557 0.0
Li91 Li 0.624 0.61609 0.18287 0.0
C92 C 0.65774 0.68031 0.27991 0.0
N93 N 0.67066 0.72882 0.31345 0.0
C94 C 0.63979 0.6821 0.30528 0.0
C95 C 0.68237 0.70308 0.27187 0.0
C96 C 0.64668 0.70684 0.3219 0.0
C97 C 0.68849 0.72746 0.28902 0.0
C98 C 0.57534 0.61831 0.20343 0.0
C99 C 0.53287 0.57746 0.19736 0.0
N100 N 0.5201 0.5919 0.1987 0.0
C101 C 0.56181 0.63276 0.20437 0.0
C102 C 0.56078 0.59046 0.19961 0.0
C103 C 0.53387 0.61904 0.20209 0.0
C104 C 0.66081 0.71188 0.17161 0.0
N105 N 0.64312 0.69579 0.19904 0.0
C106 C 0.62816 0.72721 0.20937 0.0
C107 C 0.62697 0.70297 0.21795 0.0
C108 C 0.64608 0.74418 0.18091 0.0
C109 C 0.6627 0.73632 0.16213 0.0
H110 H 0.67315 0.70555 0.15659 0.0
H111 H 0.61301 0.68975 0.23954 0.0
C112 C 0.6018 0.59271 0.32076 0.0
N113 N 0.59452 0.60639 0.29617 0.0
C114 C 0.58562 0.57892 0.35238 0.0
C115 C 0.55512 0.59422 0.33356 0.0
C116 C 0.57198 0.60783 0.30234 0.0
C117 C 0.56176 0.57931 0.35885 0.0
H118 H 0.61995 0.59208 0.31527 0.0
H119 H 0.56694 0.61938 0.28301 0.0
C120 C 0.68122 0.65639 0.15345 0.0
N121 N 0.72795 0.66922 0.1143 0.0
C122 C 0.68105 0.63977 0.12376 0.0
C123 C 0.70508 0.67966 0.16301 0.0
C124 C 0.70491 0.64659 0.10434 0.0
C125 C 0.72851 0.68574 0.14296 0.0
C126 C 0.62468 0.57495 0.23055 0.0
C127 C 0.64303 0.56649 0.22229 0.0
C128 C 0.59841 0.55602 0.24072 0.0
C129 C 0.63466 0.53919 0.22358 0.0
C130 C 0.5908 0.52891 0.24171 0.0
N131 N 0.60892 0.52112 0.23314 0.0
C132 C 0.70853 0.65316 0.27293 0.0
C133 C 0.70925 0.63215 0.21414 0.0
C134 C 0.73263 0.65509 0.28465 0.0
N135 N 0.69735 0.6418 0.23823 0.0
C136 C 0.73352 0.63395 0.22449 0.0
C137 C 0.74538 0.64535 0.2603 0.0
H138 H 0.69854 0.66043 0.29176 0.0
H139 H 0.69973 0.62266 0.18711 0.0
C140 C 0.59392 0.60092 0.11458 0.0
N141 N 0.60777 0.5936 0.13878 0.0
C142 C 0.57994 0.58483 0.08295 0.0
C143 C 0.59535 0.5543 0.10098 0.0
C144 C 0.60913 0.57105 0.1322 0.0
C145 C 0.58029 0.56099 0.0761 0.0
H146 H 0.5933 0.61905 0.12037 0.0
H147 H 0.62075 0.56592 0.15116 0.0
O148 O 0.65117 0.65639 0.26284 0.0
O149 O 0.6027 0.63149 0.20585 0.0
O150 O 0.65807 0.65001 0.1728 0.0
O151 O 0.63264 0.60166 0.2296 0.0
H152 H 0.62065 0.66463 0.31178 0.0
H153 H 0.6965 0.70196 0.25239 0.0
H154 H 0.63292 0.70858 0.34142 0.0
H155 H 0.7074 0.7453 0.28289 0.0
H156 H 0.52137 0.55591 0.19443 0.0
H157 H 0.57274 0.65435 0.20697 0.0
H158 H 0.5709 0.57902 0.19794 0.0
H159 H 0.52314 0.62997 0.20299 0.0
H160 H 0.61519 0.73261 0.22486 0.0
H161 H 0.67652 0.74859 0.13962 0.0
H162 H 0.59139 0.56749 0.37095 0.0
H163 H 0.53713 0.5954 0.33791 0.0
H164 H 0.66274 0.62176 0.1159 0.0
H165 H 0.70553 0.69272 0.18592 0.0
H166 H 0.70511 0.63387 0.0814 0.0
H167 H 0.74716 0.70358 0.15022 0.0
H168 H 0.66347 0.58078 0.21465 0.0
H169 H 0.58405 0.56213 0.24818 0.0
H170 H 0.64862 0.53238 0.21698 0.0
H171 H 0.57052 0.51407 0.24945 0.0
H172 H 0.74121 0.66413 0.31243 0.0
H173 H 0.74253 0.62586 0.20515 0.0
H174 H 0.56841 0.59064 0.06468 0.0
H175 H 0.5965 0.53631 0.09633 0.0
Li176 Li 0.98786 0.63806 0.38042 0.0
Li177 Li 0.00609 0.616 0.42194 0.0
Li178 Li 0.03663 0.66167 0.39329 0.0
Li179 Li 0.01667 0.62084 0.35344 0.0
C180 C 0.99871 0.66381 0.45503 0.0
N181 N 0.98255 0.69117 0.50375 0.0
C182 C 0.98064 0.65033 0.48511 0.0
C183 C 0.00874 0.69127 0.44994 0.0
C184 C 0.97266 0.6645 0.50937 0.0
C185 C 1.00028 0.70472 0.47481 0.0
C186 C 0.96069 0.5767 0.39131 0.0
C187 C 0.94428 0.53076 0.40999 0.0
N188 N 0.92036 0.52848 0.41977 0.0
C189 C 0.93592 0.57387 0.4014 0.0
C190 C 0.9649 0.55495 0.39544 0.0
C191 C 0.91579 0.54933 0.41576 0.0
C192 C 0.94772 0.6334 0.33146 0.0
N193 N 0.95758 0.64179 0.36781 0.0
C194 C 0.92365 0.65307 0.38081 0.0
C195 C 0.94604 0.65151 0.39249 0.0
C196 C 0.91291 0.64434 0.34353 0.0
C197 C 0.92527 0.63444 0.31868 0.0
H198 H 0.9573 0.62576 0.31245 0.0
H199 H 0.9539 0.65787 0.42131 0.0
C200 C 0.0226 0.59306 0.47911 0.0
N201 N 0.00089 0.59435 0.46674 0.0
C202 C 0.02055 0.577 0.51067 0.0
C203 C 0.97385 0.56405 0.51675 0.0
C204 C 0.97689 0.58063 0.48525 0.0
C205 C 0.99589 0.56206 0.5297 0.0
H206 H 0.04154 0.6044 0.4643 0.0
H207 H 0.96002 0.58234 0.47543 0.0
C208 C 0.02449 0.67838 0.32307 0.0
N209 N 0.0377 0.72521 0.28399 0.0
C210 C 0.03927 0.68468 0.28866 0.0
C211 C 0.01619 0.69573 0.33741 0.0
C212 C 0.04583 0.70851 0.26939 0.0
C213 C 0.02312 0.71935 0.31728 0.0
C214 C 0.05978 0.62325 0.38394 0.0
C215 C 0.08499 0.64291 0.37087 0.0
C216 C 0.05273 0.59628 0.38239 0.0
C217 C 0.10267 0.63521 0.35599 0.0
C218 C 0.07096 0.58939 0.36723 0.0
N219 N 0.09534 0.60883 0.35444 0.0
C220 C 0.0727 0.70153 0.44277 0.0
C221 C 0.08409 0.71192 0.37642 0.0
C222 C 0.09499 0.72558 0.45417 0.0
N223 N 0.06754 0.6953 0.4045 0.0
C224 C 0.10673 0.73618 0.38654 0.0
C225 C 0.11237 0.7433 0.42591 0.0
H226 H 0.05948 0.68769 0.4645 0.0
H227 H 0.07992 0.70627 0.34624 0.0
C228 C 0.00142 0.57868 0.3006 0.0
N229 N 0.02171 0.60357 0.30958 0.0
C230 C 0.00409 0.56435 0.26999 0.0
C231 C 0.04834 0.60177 0.25766 0.0
C232 C 0.04472 0.61548 0.28846 0.0
C233 C 0.02791 0.57571 0.24829 0.0
H234 H 0.98309 0.5699 0.31718 0.0
H235 H 0.0604 0.63548 0.29583 0.0
O236 O 0.00681 0.65025 0.43114 0.0
O237 O 0.98065 0.60057 0.37722 0.0
O238 O 0.01803 0.65518 0.3423 0.0
O239 O 0.04206 0.63036 0.39812 0.0
H240 H 0.97275 0.62914 0.48956 0.0
H241 H 0.02297 0.70212 0.42712 0.0
H242 H 0.9586 0.6543 0.53267 0.0
H243 H 0.00783 0.72594 0.47114 0.0
H244 H 0.9473 0.51382 0.41357 0.0
H245 H 0.93231 0.59047 0.3984 0.0
H246 H 0.98395 0.55681 0.3878 0.0
H247 H 0.89655 0.54688 0.42382 0.0
H248 H 0.91452 0.66054 0.40102 0.0
H249 H 0.91778 0.62774 0.28958 0.0
H250 H 0.03798 0.57588 0.51961 0.0
H251 H 0.95457 0.55308 0.53098 0.0
H252 H 0.04575 0.67138 0.27712 0.0
H253 H 0.00444 0.69098 0.36367 0.0
H254 H 0.05738 0.71373 0.24283 0.0
H255 H 0.01688 0.733 0.32808 0.0
H256 H 0.09075 0.66387 0.37195 0.0
H257 H 0.03331 0.58085 0.39249 0.0
H258 H 0.12221 0.65019 0.34559 0.0
H259 H 0.06572 0.56859 0.3656 0.0
H260 H 0.09884 0.73001 0.48484 0.0
H261 H 0.11959 0.74929 0.36382 0.0
H262 H 0.98752 0.54464 0.26322 0.0
H263 H 0.06707 0.6113 0.24181 0.0
Li264 Li 0.40192 0.00459 0.58938 0.0
Li265 Li 0.36144 0.98567 0.54856 0.0
Li266 Li 0.40741 0.01531 0.52096 0.0
Li267 Li 0.38581 0.03436 0.56147 0.0
C268 C 0.39779 0.96043 0.55912 0.0
N269 N 0.40911 0.92268 0.58884 0.0
C270 C 0.37699 0.93529 0.57042 0.0
C271 C 0.42434 0.96629 0.56258 0.0
C272 C 0.38313 0.91648 0.58544 0.0
C273 C 0.42965 0.94696 0.5778 0.0
C274 C 0.34507 0.99583 0.62074 0.0
C275 C 0.30363 0.99527 0.6333 0.0
N276 N 0.29901 0.97875 0.6641 0.0
C277 C 0.34006 0.97911 0.65279 0.0
C278 C 0.32686 0.00421 0.61113 0.0
C279 C 0.3166 0.97059 0.67423 0.0
C280 C 0.44326 0.0202 0.64348 0.0
N281 N 0.41887 0.99939 0.63358 0.0
C282 C 0.42144 0.97257 0.68458 0.0
C283 C 0.40759 0.97598 0.65379 0.0
C284 C 0.44703 0.99354 0.69472 0.0
C285 C 0.45775 0.0177 0.67398 0.0
H286 H 0.45157 0.03879 0.6276 0.0
H287 H 0.38805 0.9598 0.64564 0.0
C288 C 0.32113 0.95099 0.49824 0.0
N289 N 0.32744 0.95528 0.5366 0.0
C290 C 0.29713 0.92889 0.48621 0.0
C291 C 0.28656 0.91568 0.55339 0.0
C292 C 0.31079 0.93812 0.56413 0.0
C293 C 0.27948 0.91081 0.51393 0.0
H294 H 0.33497 0.96465 0.47688 0.0
H295 H 0.31647 0.9415 0.59434 0.0
C296 C 0.44742 0.05936 0.55131 0.0
N297 N 0.49664 0.09687 0.52169 0.0
C298 C 0.45193 0.08453 0.53986 0.0
C299 C 0.46802 0.05335 0.54806 0.0
C300 C 0.47694 0.10322 0.52489 0.0
C301 C 0.49273 0.07255 0.53288 0.0
C302 C 0.35933 0.02404 0.48921 0.0
C303 C 0.37086 0.04045 0.45681 0.0
C304 C 0.33281 0.01579 0.49911 0.0
C305 C 0.35581 0.0488 0.4353 0.0
C306 C 0.31841 0.02454 0.47685 0.0
N307 N 0.33012 0.04076 0.44571 0.0
C308 C 0.43326 0.99965 0.46715 0.0
C309 C 0.44172 0.04381 0.4566 0.0
C310 C 0.45027 0.00212 0.4367 0.0
N311 N 0.42963 0.02045 0.4769 0.0
C312 C 0.45901 0.04719 0.42587 0.0
C313 C 0.46369 0.02624 0.41587 0.0
H314 H 0.42298 0.98108 0.4831 0.0
H315 H 0.4383 0.05998 0.46463 0.0
C316 C 0.38004 0.06929 0.61124 0.0
N317 N 0.38225 0.06484 0.573 0.0
C318 C 0.37818 0.0915 0.62281 0.0
C319 C 0.38121 0.10444 0.55545 0.0
C320 C 0.38297 0.08191 0.54517 0.0
C321 C 0.37882 0.1095 0.59478 0.0
H322 H 0.38004 0.05568 0.63285 0.0
H323 H 0.38543 0.0784 0.51507 0.0
O324 O 0.39217 0.97918 0.54466 0.0
O325 O 0.36798 0.00439 0.59951 0.0
O326 O 0.42298 0.04072 0.5657 0.0
O327 O 0.37381 0.01566 0.51052 0.0
H328 H 0.35634 0.93037 0.56781 0.0
H329 H 0.44067 0.98562 0.5539 0.0
H330 H 0.36723 0.89698 0.59446 0.0
H331 H 0.45011 0.95129 0.58089 0.0
H332 H 0.28934 0.00156 0.62611 0.0
H333 H 0.35406 0.97264 0.66088 0.0
H334 H 0.33073 0.0177 0.58708 0.0
H335 H 0.31239 0.95749 0.69895 0.0
H336 H 0.41245 0.95358 0.69974 0.0
H337 H 0.47711 0.03461 0.68139 0.0
H338 H 0.29273 0.92567 0.45546 0.0
H339 H 0.27351 0.9023 0.57573 0.0
H340 H 0.43627 0.08956 0.54232 0.0
H341 H 0.46489 0.03399 0.55686 0.0
H342 H 0.48068 0.12274 0.51576 0.0
H343 H 0.50879 0.06811 0.52994 0.0
H344 H 0.39127 0.04681 0.44851 0.0
H345 H 0.32334 0.00254 0.52343 0.0
H346 H 0.36454 0.06165 0.41031 0.0
H347 H 0.29789 0.01836 0.48425 0.0
H348 H 0.45275 0.98521 0.42941 0.0
H349 H 0.46899 0.06615 0.41064 0.0
H350 H 0.37687 0.09486 0.65348 0.0
H351 H 0.38169 0.11773 0.53286 0.0
Li352 Li 0.40731 0.40071 0.7516 0.0
Li353 Li 0.3862 0.35996 0.71145 0.0
Li354 Li 0.40212 0.4057 0.683 0.0
Li355 Li 0.36141 0.38403 0.72367 0.0
C356 C 0.44787 0.39745 0.72169 0.0
N357 N 0.49745 0.41063 0.75148 0.0
C358 C 0.45304 0.3773 0.73358 0.0
C359 C 0.46798 0.42428 0.72456 0.0
C360 C 0.47823 0.38438 0.74863 0.0
C361 C 0.49289 0.43054 0.73984 0.0
C362 C 0.35833 0.34402 0.7831 0.0
C363 C 0.31632 0.3035 0.79429 0.0
N364 N 0.327 0.29838 0.82613 0.0
C365 C 0.36881 0.33852 0.81616 0.0
C366 C 0.33181 0.32653 0.77224 0.0
C367 C 0.35268 0.31528 0.83744 0.0
C368 C 0.43207 0.44186 0.80638 0.0
N369 N 0.42903 0.41774 0.79605 0.0
C370 C 0.45759 0.41995 0.84803 0.0
C371 C 0.44103 0.40643 0.81646 0.0
C372 C 0.4613 0.44505 0.85904 0.0
C373 C 0.44816 0.45591 0.83792 0.0
H374 H 0.42203 0.45027 0.79007 0.0
H375 H 0.4379 0.387 0.80811 0.0
C376 C 0.38142 0.31939 0.66234 0.0
N377 N 0.38299 0.32603 0.70051 0.0
C378 C 0.37951 0.29522 0.65123 0.0
C379 C 0.3814 0.28527 0.71893 0.0
C380 C 0.3832 0.30965 0.72874 0.0
C381 C 0.37949 0.27777 0.67969 0.0
H382 H 0.38186 0.33304 0.64043 0.0
H383 H 0.38513 0.31562 0.75882 0.0
C384 C 0.39667 0.44534 0.71289 0.0
N385 N 0.40604 0.49381 0.6833 0.0
C386 C 0.37523 0.44859 0.70136 0.0
C387 C 0.42286 0.46679 0.7097 0.0
C388 C 0.38039 0.47326 0.68642 0.0
C389 C 0.42719 0.49111 0.69454 0.0
C390 C 0.34617 0.35701 0.65059 0.0
C391 C 0.34158 0.36854 0.61793 0.0
C392 C 0.32824 0.33024 0.65969 0.0
C393 C 0.31887 0.35316 0.59518 0.0
C394 C 0.30578 0.31553 0.63622 0.0
N395 N 0.30158 0.3272 0.60474 0.0
C396 C 0.44282 0.43031 0.6276 0.0
C397 C 0.40766 0.43982 0.6186 0.0
C398 C 0.45678 0.44649 0.59612 0.0
N399 N 0.41888 0.42749 0.63848 0.0
C400 C 0.42109 0.45644 0.58707 0.0
C401 C 0.44602 0.45995 0.57555 0.0
H402 H 0.45116 0.42003 0.64347 0.0
H403 H 0.38838 0.43689 0.62733 0.0
C404 C 0.32493 0.38636 0.77325 0.0
N405 N 0.32751 0.38063 0.73574 0.0
C406 C 0.3014 0.38528 0.78585 0.0
C407 C 0.28338 0.37211 0.72109 0.0
C408 C 0.30738 0.37368 0.70963 0.0
C409 C 0.28024 0.3781 0.75961 0.0
H410 H 0.3413 0.3919 0.79334 0.0
H411 H 0.30991 0.36966 0.67985 0.0
O412 O 0.42325 0.39093 0.70723 0.0
O413 O 0.37386 0.36671 0.76203 0.0
O414 O 0.39203 0.42131 0.72738 0.0
O415 O 0.36833 0.3718 0.67309 0.0
H416 H 0.43772 0.35644 0.73143 0.0
H417 H 0.46431 0.4401 0.71538 0.0
H418 H 0.48249 0.36901 0.75813 0.0
H419 H 0.50859 0.45123 0.74249 0.0
H420 H 0.29578 0.28975 0.78616 0.0
H421 H 0.38924 0.35198 0.82513 0.0
H422 H 0.32319 0.33075 0.74726 0.0
H423 H 0.36058 0.31068 0.86295 0.0
H424 H 0.46715 0.41078 0.86389 0.0
H425 H 0.45064 0.47528 0.84531 0.0
H426 H 0.37861 0.29051 0.62062 0.0
H427 H 0.38141 0.27239 0.74182 0.0
H428 H 0.35483 0.43222 0.70367 0.0
H429 H 0.43967 0.4646 0.71857 0.0
H430 H 0.364 0.47604 0.67723 0.0
H431 H 0.44736 0.50782 0.69167 0.0
H432 H 0.35533 0.38917 0.61033 0.0
H433 H 0.33171 0.32084 0.68443 0.0
H434 H 0.315 0.36186 0.56993 0.0
H435 H 0.29172 0.2948 0.64297 0.0
H436 H 0.47603 0.4488 0.58836 0.0
H437 H 0.41197 0.46621 0.57165 0.0
H438 H 0.2997 0.38984 0.81588 0.0
H439 H 0.26765 0.36682 0.69985 0.0
Li440 Li 0.01954 0.40647 0.92064 0.0
Li441 Li 0.0369 0.38372 0.87896 0.0
Li442 Li 0.00669 0.39966 0.85111 0.0
Li443 Li 0.98938 0.36015 0.89383 0.0
C444 C 0.06142 0.44737 0.87569 0.0
N445 N 0.09871 0.50139 0.87839 0.0
C446 C 0.0883 0.45587 0.88346 0.0
C447 C 0.05357 0.46634 0.86876 0.0
C448 C 0.10683 0.48327 0.88485 0.0
C449 C 0.0727 0.49356 0.8704 0.0
C450 C 0.03496 0.36503 0.95182 0.0
C451 C 0.04951 0.33328 0.96536 0.0
N452 N 0.06627 0.34994 0.99326 0.0
C453 C 0.05216 0.38177 0.98082 0.0
C454 C 0.03343 0.3405 0.94419 0.0
C455 C 0.06788 0.37379 0.00139 0.0
C456 C 0.00321 0.42304 0.98592 0.0
N457 N 0.02522 0.4292 0.9642 0.0
C458 C 0.05205 0.46763 0.00371 0.0
C459 C 0.0495 0.45068 0.97294 0.0
C460 C 0.02943 0.46224 0.0259 0.0
C461 C 0.00484 0.43935 0.01696 0.0
H462 H 0.98424 0.40557 0.97878 0.0
H463 H 0.06689 0.45485 0.95598 0.0
C464 C 0.06769 0.37011 0.83121 0.0
N465 N 0.06733 0.38019 0.86677 0.0
C466 C 0.08989 0.36831 0.81933 0.0
C467 C 0.11087 0.38692 0.88111 0.0
C468 C 0.0884 0.3887 0.8916 0.0
C469 C 0.11187 0.37683 0.84441 0.0
H470 H 0.05088 0.36386 0.81176 0.0
H471 H 0.08807 0.39742 0.91918 0.0
C472 C 0.9663 0.40109 0.89615 0.0
N473 N 0.93209 0.42163 0.89378 0.0
C474 C 0.9388 0.38399 0.89108 0.0
C475 C 0.97636 0.42859 0.90051 0.0
C476 C 0.92184 0.39477 0.88981 0.0
C477 C 0.95876 0.4386 0.89911 0.0
C478 C 0.99152 0.34202 0.82249 0.0
C479 C 0.97394 0.34023 0.79318 0.0
C480 C 0.99366 0.3196 0.83195 0.0
C481 C 0.95842 0.3158 0.77415 0.0
C482 C 0.97778 0.29553 0.81227 0.0
N483 N 0.96062 0.29414 0.78405 0.0
C484 C 0.02223 0.43201 0.78504 0.0
C485 C 0.97577 0.41177 0.79822 0.0
C486 C 0.01976 0.44581 0.75351 0.0
N487 N 0.00051 0.41577 0.80703 0.0
C488 C 0.97241 0.42533 0.76708 0.0
C489 C 0.99465 0.44281 0.74449 0.0
H490 H 0.04161 0.43458 0.79244 0.0
H491 H 0.95866 0.39816 0.81537 0.0
C492 C 0.95832 0.31448 0.93979 0.0
N493 N 0.95868 0.32641 0.9056 0.0
C494 C 0.93576 0.29042 0.95063 0.0
C495 C 0.91446 0.29115 0.89058 0.0
C496 C 0.93729 0.31538 0.88119 0.0
C497 C 0.91333 0.27838 0.92592 0.0
H498 H 0.97537 0.32393 0.95908 0.0
H499 H 0.93778 0.32557 0.85463 0.0
O500 O 0.04304 0.42061 0.8742 0.0
O501 O 0.01944 0.37251 0.93138 0.0
O502 O 0.98317 0.39084 0.8973 0.0
O503 O 0.00676 0.36571 0.84156 0.0
H504 H 0.09476 0.44147 0.88861 0.0
H505 H 0.033 0.46016 0.86187 0.0
H506 H 0.12766 0.49013 0.89107 0.0
H507 H 0.06689 0.50846 0.86519 0.0
H508 H 0.04866 0.31441 0.95963 0.0
H509 H 0.05346 0.40076 0.98719 0.0
H510 H 0.02002 0.32723 0.9221 0.0
H511 H 0.08139 0.38659 0.02378 0.0
H512 H 0.0714 0.48505 0.00948 0.0
H513 H 0.987 0.43403 0.03381 0.0
H514 H 0.0899 0.36036 0.79082 0.0
H515 H 0.12762 0.39409 0.90101 0.0
H516 H 0.93065 0.36263 0.88792 0.0
H517 H 0.99749 0.44204 0.90525 0.0
H518 H 0.90053 0.38179 0.88567 0.0
H519 H 0.96629 0.45985 0.90236 0.0
H520 H 0.97216 0.35746 0.78542 0.0
H521 H 0.00739 0.32078 0.8543 0.0
H522 H 0.9446 0.31405 0.75155 0.0
H523 H 0.97911 0.27797 0.81942 0.0
H524 H 0.03745 0.45921 0.73698 0.0
H525 H 0.95263 0.42215 0.76065 0.0
H526 H 0.93571 0.28174 0.97852 0.0
H527 H 0.89787 0.28259 0.87033 0.0
C528 C 0.53677 0.00842 0.23281 0.0
C529 C 0.56326 0.02912 0.22744 0.0
C530 C 0.52101 0.00934 0.26312 0.0
C531 C 0.53194 0.03155 0.28868 0.0
C532 C 0.55851 0.05273 0.2831 0.0
C533 C 0.57387 0.05126 0.25254 0.0
C534 C 0.49272 0.98638 0.26805 0.0
C535 C 0.57085 0.07673 0.3098 0.0
C536 C 0.48227 0.04149 0.34882 0.0
C537 C 0.48236 0.02925 0.38397 0.0
C538 C 0.49882 0.04302 0.3178 0.0
C539 C 0.5158 0.032 0.32207 0.0
C540 C 0.51648 0.02025 0.35781 0.0
C541 C 0.49982 0.01907 0.38831 0.0
C542 C 0.4976 0.05576 0.28014 0.0
C543 C 0.53437 0.00835 0.36356 0.0
H544 H 0.52827 0.99148 0.21309 0.0
H545 H 0.59439 0.06722 0.24875 0.0
H546 H 0.49062 0.97677 0.29674 0.0
H547 H 0.4784 0.99392 0.26738 0.0
H548 H 0.487 0.97091 0.24509 0.0
H549 H 0.59135 0.09203 0.30053 0.0
H550 H 0.55815 0.08615 0.31083 0.0
H551 H 0.57192 0.07026 0.33977 0.0
H552 H 0.4687 0.04921 0.34514 0.0
H553 H 0.50037 0.01004 0.41565 0.0
H554 H 0.48974 0.04047 0.25674 0.0
H555 H 0.51798 0.07151 0.27134 0.0
H556 H 0.48458 0.06483 0.28228 0.0
H557 H 0.52847 0.99142 0.34311 0.0
H558 H 0.53333 0.00091 0.39363 0.0
H559 H 0.55547 0.0235 0.35703 0.0
C560 C 0.5541 0.56336 0.42784 0.0
C561 C 0.54363 0.56359 0.39118 0.0
C562 C 0.53739 0.54731 0.45797 0.0
C563 C 0.50955 0.53101 0.45122 0.0
C564 C 0.49876 0.53163 0.41456 0.0
C565 C 0.51593 0.54796 0.38498 0.0
C566 C 0.54964 0.54736 0.49676 0.0
C567 C 0.4692 0.51444 0.40621 0.0
C568 C 0.47312 0.46931 0.51484 0.0
C569 C 0.46098 0.47767 0.5425 0.0
C570 C 0.48852 0.4863 0.48455 0.0
C571 C 0.492 0.51236 0.48197 0.0
C572 C 0.47941 0.52077 0.50939 0.0
C573 C 0.46395 0.50327 0.53929 0.0
C574 C 0.50141 0.47649 0.45566 0.0
C575 C 0.48279 0.54846 0.50769 0.0
H576 H 0.57544 0.57569 0.43294 0.0
H577 H 0.50776 0.54784 0.35658 0.0
H578 H 0.53944 0.55197 0.52033 0.0
H579 H 0.54677 0.52718 0.50271 0.0
H580 H 0.57141 0.56216 0.4979 0.0
H581 H 0.46378 0.51833 0.37694 0.0
H582 H 0.46331 0.49298 0.4081 0.0
H583 H 0.45735 0.51808 0.42826 0.0
H584 H 0.47057 0.4494 0.51692 0.0
H585 H 0.4548 0.50989 0.56083 0.0
H586 H 0.52353 0.48917 0.45729 0.0
H587 H 0.49536 0.47821 0.42569 0.0
H588 H 0.49592 0.45534 0.46089 0.0
H589 H 0.5042 0.56371 0.51174 0.0
H590 H 0.47082 0.55154 0.53027 0.0
H591 H 0.4767 0.552 0.47873 0.0
C592 C 0.00461 0.46072 0.67662 0.0
C593 C 0.99194 0.45841 0.71232 0.0
C594 C 0.00356 0.47669 0.64672 0.0
C595 C 0.98968 0.49086 0.65281 0.0
C596 C 0.97636 0.48816 0.6885 0.0
C597 C 0.97758 0.47187 0.7178 0.0
C598 C 0.01778 0.47884 0.60891 0.0
C599 C 0.96153 0.5031 0.69615 0.0
C600 C 0.01279 0.55339 0.59175 0.0
C601 C 0.99327 0.54424 0.56251 0.0
C602 C 0.01148 0.53637 0.62181 0.0
C603 C 0.99024 0.50948 0.62245 0.0
C604 C 0.97018 0.50026 0.5934 0.0
C605 C 0.97188 0.51781 0.56383 0.0
C606 C 0.03309 0.54705 0.65251 0.0
C607 C 0.94736 0.47167 0.59298 0.0
H608 H 0.01545 0.45007 0.67211 0.0
H609 H 0.96798 0.47034 0.74551 0.0
H610 H 0.0037 0.47375 0.5842 0.0
H611 H 0.03418 0.49977 0.60459 0.0
H612 H 0.02646 0.46544 0.60807 0.0
H613 H 0.95109 0.49778 0.72465 0.0
H614 H 0.97581 0.52498 0.69569 0.0
H615 H 0.94655 0.49878 0.67296 0.0
H616 H 0.02917 0.57392 0.59106 0.0
H617 H 0.95689 0.51062 0.54105 0.0
H618 H 0.04426 0.53602 0.65136 0.0
H619 H 0.02398 0.54381 0.68182 0.0
H620 H 0.04755 0.56876 0.64881 0.0
H621 H 0.95534 0.45785 0.58913 0.0
H622 H 0.9328 0.46796 0.56932 0.0
H623 H 0.93659 0.46666 0.62115 0.0
C624 C 0.53224 0.96931 0.85904 0.0
C625 C 0.54365 0.99161 0.88387 0.0
C626 C 0.51535 0.96755 0.82837 0.0
C627 C 0.50978 0.98857 0.82242 0.0
C628 C 0.52088 0.0109 0.84777 0.0
C629 C 0.53763 0.01212 0.87818 0.0
C630 C 0.50388 0.94344 0.80191 0.0
C631 C 0.51537 0.0337 0.84246 0.0
C632 C 0.49027 0.00072 0.7225 0.0
C633 C 0.46263 0.99051 0.7267 0.0
C634 C 0.50571 0.99961 0.75311 0.0
C635 C 0.49321 0.98788 0.78884 0.0
C636 C 0.46519 0.97678 0.79294 0.0
C637 C 0.45022 0.97824 0.76181 0.0
C638 C 0.53553 0.01159 0.74753 0.0
C639 C 0.45116 0.96407 0.83058 0.0
H640 H 0.53697 0.95349 0.86307 0.0
H641 H 0.54596 0.02916 0.8977 0.0
H642 H 0.48175 0.93393 0.80068 0.0
H643 H 0.51152 0.94979 0.77196 0.0
H644 H 0.50913 0.92824 0.81154 0.0
H645 H 0.52495 0.04926 0.86534 0.0
H646 H 0.52292 0.04325 0.81374 0.0
H647 H 0.49347 0.02602 0.84293 0.0
H648 H 0.49991 0.00977 0.69519 0.0
H649 H 0.42891 0.97049 0.76537 0.0
H650 H 0.54155 0.99654 0.7544 0.0
H651 H 0.54646 0.02864 0.76781 0.0
H652 H 0.54196 0.01889 0.71741 0.0
H653 H 0.45594 0.94847 0.83965 0.0
H654 H 0.42906 0.95482 0.82826 0.0
H655 H 0.4584 0.97943 0.85387 0.0
C656 C 0.54877 0.51522 0.04996 0.0
C657 C 0.56441 0.54291 0.04381 0.0
C658 C 0.53244 0.49806 0.02036 0.0
C659 C 0.53185 0.50886 0.9837 0.0
C660 C 0.5481 0.53672 0.97703 0.0
C661 C 0.56413 0.55341 0.0072 0.0
C662 C 0.51527 0.4685 0.02865 0.0
C663 C 0.54819 0.54896 0.93823 0.0
C664 C 0.50451 0.46314 0.89565 0.0
C665 C 0.47889 0.46009 0.89217 0.0
C666 C 0.5219 0.4787 0.9256 0.0
C667 C 0.51334 0.49128 0.95283 0.0
C668 C 0.48725 0.4877 0.94998 0.0
C669 C 0.47039 0.47223 0.9196 0.0
C670 C 0.54964 0.48221 0.92756 0.0
C671 C 0.47727 0.50053 0.9787 0.0
H672 H 0.54868 0.50703 0.07833 0.0
H673 H 0.57645 0.57476 0.00216 0.0
H674 H 0.4938 0.46254 0.02643 0.0
H675 H 0.51908 0.45667 0.00676 0.0
H676 H 0.51901 0.4631 0.05802 0.0
H677 H 0.56291 0.57076 0.93719 0.0
H678 H 0.55296 0.53885 0.91471 0.0
H679 H 0.52798 0.54598 0.93212 0.0
H680 H 0.51122 0.45397 0.87427 0.0
H681 H 0.45047 0.46962 0.91727 0.0
H682 H 0.5531 0.4761 0.95654 0.0
H683 H 0.56484 0.50365 0.92365 0.0
H684 H 0.55288 0.47033 0.90501 0.0
H685 H 0.47894 0.49453 0.00871 0.0
H686 H 0.4561 0.49494 0.97328 0.0
H687 H 0.48987 0.52265 0.97706 0.0
C688 C 0.05336 0.49175 0.0831 0.0
C689 C 0.03126 0.48045 0.0579 0.0
C690 C 0.05488 0.50848 0.11387 0.0
C691 C 0.03374 0.51388 0.11972 0.0
C692 C 0.01157 0.50285 0.09409 0.0
C693 C 0.01066 0.48639 0.06344 0.0
C694 C 0.07889 0.51998 0.14052 0.0
C695 C 0.98859 0.50811 0.09937 0.0
C696 C 0.02126 0.53273 0.21998 0.0
C697 C 0.03111 0.56033 0.21604 0.0
C698 C 0.0225 0.51751 0.18912 0.0
C699 C 0.03414 0.53021 0.15348 0.0
C700 C 0.04495 0.5582 0.14964 0.0
C701 C 0.04322 0.57293 0.18093 0.0
C702 C 0.01072 0.48769 0.19437 0.0
C703 C 0.05769 0.57247 0.11215 0.0
H704 H 0.06924 0.48709 0.07927 0.0
H705 H 0.99377 0.4782 0.04366 0.0
H706 H 0.08819 0.54208 0.14208 0.0
H707 H 0.07248 0.51211 0.17035 0.0
H708 H 0.09429 0.51502 0.13082 0.0
H709 H 0.9731 0.49847 0.07643 0.0
H710 H 0.97902 0.50045 0.12805 0.0
H711 H 0.99611 0.52997 0.09899 0.0
H712 H 0.01238 0.52292 0.24726 0.0
H713 H 0.0507 0.59419 0.17747 0.0
H714 H 0.02596 0.48189 0.18764 0.0
H715 H 0.99385 0.47676 0.17381 0.0
H716 H 0.00324 0.48104 0.22436 0.0
H717 H 0.07341 0.56788 0.10301 0.0
H718 H 0.06681 0.59454 0.11474 0.0
H719 H 0.04239 0.56528 0.0888 0.0
C720 C 0.62301 0.77014 0.16546 0.0
C721 C 0.64688 0.76953 0.17002 0.0
C722 C 0.62335 0.79371 0.15427 0.0
C723 C 0.64817 0.81729 0.14751 0.0
C724 C 0.67235 0.81688 0.15232 0.0
C725 C 0.67142 0.793 0.16347 0.0
C726 C 0.59712 0.79331 0.1493 0.0
C727 C 0.6992 0.84167 0.1456 0.0
C728 C 0.64761 0.87089 0.08393 0.0
C729 C 0.64772 0.88875 0.11171 0.0
C730 C 0.64804 0.8477 0.09516 0.0
C731 C 0.64873 0.8423 0.13514 0.0
C732 C 0.64928 0.86047 0.1633 0.0
C733 C 0.6487 0.88343 0.15125 0.0
C734 C 0.64729 0.82874 0.06428 0.0
C735 C 0.65022 0.85552 0.20618 0.0
H736 H 0.60397 0.752 0.16991 0.0
H737 H 0.68995 0.79275 0.16738 0.0
H738 H 0.5966 0.80847 0.16854 0.0
H739 H 0.59523 0.79867 0.11899 0.0
H740 H 0.57956 0.7734 0.15605 0.0
H741 H 0.71616 0.83809 0.15094 0.0
H742 H 0.7005 0.8487 0.11526 0.0
H743 H 0.70144 0.85805 0.16495 0.0
H744 H 0.64657 0.87475 0.05336 0.0
H745 H 0.64917 0.89736 0.17283 0.0
H746 H 0.62898 0.80888 0.06777 0.0
H747 H 0.66474 0.82571 0.06751 0.0
H748 H 0.64746 0.83617 0.03446 0.0
H749 H 0.63211 0.83654 0.21466 0.0
H750 H 0.65134 0.87199 0.22432 0.0
H751 H 0.66784 0.85328 0.21273 0.0
C752 C 0.88639 0.66787 0.3381 0.0
C753 C 0.88873 0.64518 0.33083 0.0
C754 C 0.86353 0.66881 0.32646 0.0
C755 C 0.84242 0.64644 0.3074 0.0
C756 C 0.84467 0.62349 0.29998 0.0
C757 C 0.86784 0.62318 0.31166 0.0
C758 C 0.86196 0.69373 0.33455 0.0
C759 C 0.82248 0.59914 0.28007 0.0
C760 C 0.77271 0.63798 0.31001 0.0
C761 C 0.77053 0.64636 0.27265 0.0
C762 C 0.79603 0.63799 0.32174 0.0
C763 C 0.8178 0.64687 0.2956 0.0
C764 C 0.81585 0.65572 0.25801 0.0
C765 C 0.79216 0.6552 0.2469 0.0
C766 C 0.7972 0.6281 0.36189 0.0
C767 C 0.83876 0.66564 0.22951 0.0
H768 H 0.90261 0.68504 0.35252 0.0
H769 H 0.86941 0.60547 0.3064 0.0
H770 H 0.85899 0.70188 0.307 0.0
H771 H 0.84447 0.68875 0.35337 0.0
H772 H 0.8803 0.70958 0.34902 0.0
H773 H 0.82741 0.58294 0.27632 0.0
H774 H 0.80375 0.59119 0.29723 0.0
H775 H 0.81843 0.60472 0.25107 0.0
H776 H 0.75589 0.63083 0.32982 0.0
H777 H 0.79061 0.66192 0.21812 0.0
H778 H 0.81446 0.64395 0.37818 0.0
H779 H 0.80031 0.61064 0.3597 0.0
H780 H 0.77864 0.62208 0.37881 0.0
H781 H 0.85711 0.68245 0.24242 0.0
H782 H 0.83433 0.67253 0.20182 0.0
H783 H 0.84322 0.64942 0.22296 0.0
C784 C 0.13484 0.78446 0.46755 0.0
C785 C 0.13647 0.76877 0.43768 0.0
C786 C 0.15762 0.80801 0.48005 0.0
C787 C 0.18266 0.81607 0.4623 0.0
C788 C 0.18439 0.80052 0.43178 0.0
C789 C 0.16126 0.77708 0.4198 0.0
C790 C 0.15494 0.82415 0.5125 0.0
C791 C 0.21076 0.80842 0.41221 0.0
C792 C 0.23847 0.88847 0.47187 0.0
C793 C 0.25422 0.88669 0.50151 0.0
C794 C 0.21505 0.86569 0.45898 0.0
C795 C 0.20717 0.84051 0.47611 0.0
C796 C 0.22282 0.83861 0.50629 0.0
C797 C 0.24614 0.86171 0.51863 0.0
C798 C 0.1988 0.86855 0.42688 0.0
C799 C 0.21511 0.8121 0.52522 0.0
H800 H 0.11566 0.77834 0.48112 0.0
H801 H 0.16272 0.76489 0.39702 0.0
H802 H 0.16758 0.82518 0.53747 0.0
H803 H 0.1622 0.84499 0.5027 0.0
H804 H 0.13393 0.81547 0.52267 0.0
H805 H 0.2086 0.7945 0.38834 0.0
H806 H 0.21954 0.82895 0.40014 0.0
H807 H 0.22517 0.8087 0.43382 0.0
H808 H 0.2444 0.90776 0.45886 0.0
H809 H 0.25839 0.86011 0.54117 0.0
H810 H 0.17802 0.86131 0.43698 0.0
H811 H 0.19759 0.85597 0.40171 0.0
H812 H 0.20749 0.8896 0.41692 0.0
H813 H 0.19468 0.80321 0.5377 0.0
H814 H 0.22922 0.81408 0.54869 0.0
H815 H 0.21465 0.79785 0.50315 0.0
C816 C 0.39465 0.24404 0.68629 0.0
C817 C 0.37811 0.25222 0.66826 0.0
C818 C 0.39427 0.22048 0.67474 0.0
C819 C 0.37691 0.20471 0.64445 0.0
C820 C 0.3599 0.21266 0.62649 0.0
C821 C 0.36071 0.23631 0.6386 0.0
C822 C 0.41274 0.21269 0.69454 0.0
C823 C 0.34102 0.19631 0.59423 0.0
C824 C 0.39464 0.15859 0.58922 0.0
C825 C 0.37772 0.13374 0.6067 0.0
C826 C 0.39443 0.18179 0.60105 0.0
C827 C 0.3769 0.18014 0.63109 0.0
C828 C 0.35959 0.1551 0.6486 0.0
C829 C 0.36021 0.13221 0.63619 0.0
C830 C 0.41322 0.20814 0.5817 0.0
C831 C 0.34054 0.15252 0.68061 0.0
H832 H 0.40838 0.25639 0.70888 0.0
H833 H 0.34761 0.24232 0.62491 0.0
H834 H 0.40099 0.19226 0.70692 0.0
H835 H 0.42682 0.21223 0.67302 0.0
H836 H 0.42456 0.22678 0.71822 0.0
H837 H 0.32873 0.20497 0.58379 0.0
H838 H 0.35258 0.19504 0.56937 0.0
H839 H 0.3274 0.17556 0.60436 0.0
H840 H 0.40849 0.16001 0.5668 0.0
H841 H 0.34683 0.11303 0.64948 0.0
H842 H 0.42709 0.22254 0.60356 0.0
H843 H 0.40169 0.21697 0.56903 0.0
H844 H 0.42527 0.20595 0.55831 0.0
H845 H 0.35195 0.16528 0.70562 0.0
H846 H 0.32816 0.13155 0.6909 0.0
H847 H 0.327 0.15971 0.67028 0.0
C848 C 0.14761 0.38635 0.79549 0.0
C849 C 0.13608 0.37606 0.83182 0.0
C850 C 0.17092 0.38643 0.78349 0.0
C851 C 0.18275 0.37561 0.80822 0.0
C852 C 0.17096 0.36485 0.84474 0.0
C853 C 0.14787 0.3654 0.85624 0.0
C854 C 0.1831 0.39845 0.74461 0.0
C855 C 0.18278 0.35281 0.87166 0.0
C856 C 0.23015 0.35558 0.76223 0.0
C857 C 0.25523 0.37729 0.77226 0.0
C858 C 0.20637 0.35461 0.77411 0.0
C859 C 0.20774 0.37602 0.79612 0.0
C860 C 0.23302 0.39803 0.8062 0.0
C861 C 0.25646 0.39832 0.79432 0.0
C862 C 0.17979 0.33066 0.76319 0.0
C863 C 0.23532 0.4214 0.82919 0.0
H864 H 0.13869 0.39487 0.77676 0.0
H865 H 0.13883 0.35724 0.88421 0.0
H866 H 0.20383 0.41532 0.74873 0.0
H867 H 0.18438 0.38331 0.72624 0.0
H868 H 0.17138 0.40596 0.72877 0.0
H869 H 0.17073 0.34455 0.89853 0.0
H870 H 0.18415 0.33652 0.85658 0.0
H871 H 0.20343 0.36822 0.87998 0.0
H872 H 0.22914 0.33916 0.74551 0.0
H873 H 0.27581 0.41528 0.80173 0.0
H874 H 0.16807 0.33715 0.74527 0.0
H875 H 0.16791 0.32114 0.78975 0.0
H876 H 0.18218 0.31543 0.74667 0.0
H877 H 0.22528 0.4307 0.81336 0.0
H878 H 0.25649 0.43698 0.83462 0.0
H879 H 0.22502 0.41435 0.85755 0.0
C880 C 0.89061 0.23312 0.95814 0.0
C881 C 0.88872 0.2531 0.93743 0.0
C882 C 0.86758 0.20964 0.97023 0.0
C883 C 0.84198 0.20576 0.96083 0.0
C884 C 0.83987 0.22557 0.93944 0.0
C885 C 0.86321 0.24907 0.92832 0.0
C886 C 0.87064 0.18908 0.99335 0.0
C887 C 0.81292 0.22204 0.9285 0.0
C888 C 0.78236 0.13494 0.96237 0.0
C889 C 0.76995 0.13461 0.99764 0.0
C890 C 0.80577 0.15794 0.95002 0.0
C891 C 0.81735 0.18109 0.97374 0.0
C892 C 0.80521 0.18082 0.0096 0.0
C893 C 0.78158 0.1577 0.02096 0.0
C894 C 0.81799 0.15753 0.91141 0.0
C895 C 0.8171 0.20505 0.03589 0.0
H896 H 0.91015 0.23574 0.96481 0.0
H897 H 0.8614 0.2645 0.91301 0.0
H898 H 0.86043 0.18579 0.0218 0.0
H899 H 0.86093 0.16961 0.97781 0.0
H900 H 0.89197 0.19523 0.99859 0.0
H901 H 0.81472 0.23887 0.91054 0.0
H902 H 0.80113 0.2031 0.91208 0.0
H903 H 0.80141 0.22057 0.95511 0.0
H904 H 0.77387 0.11712 0.94441 0.0
H905 H 0.77199 0.15789 0.04792 0.0
H906 H 0.83881 0.16173 0.91569 0.0
H907 H 0.819 0.17352 0.89233 0.0
H908 H 0.80642 0.138 0.89625 0.0
H909 H 0.83818 0.21116 0.04288 0.0
H910 H 0.80577 0.20127 0.06348 0.0
H911 H 0.81729 0.22215 0.02083 0.0
loop_
_geom_bond_atom_site_label_1
_geom_bond_atom_site_label_2
_geom_bond_distance
_geom_bond_site_symmetry_2
_ccdc_geom_bond_type
Li0 N17 1.990 . S
Li0 O60 1.956 . S
Li0 O61 1.970 . S
Li0 O62 1.961 . S
Li1 N25 1.990 . S
Li1 O60 1.970 . S
Li1 O61 1.956 . S
Li1 O63 1.961 1_545 S
Li2 N47 1.990 . S
Li2 O60 1.961 1_565 S
Li2 O62 1.956 1_565 S
Li2 O63 1.970 . S
Li3 N53 1.990 1_554 S
Li3 O61 1.961 . S
Li3 O62 1.970 . S
Li3 O63 1.956 1_545 S
C4 C6 1.348 . S
C4 C7 1.356 . S
C4 O60 1.325 . S
N5 C8 1.314 . S
N5 C9 1.279 . S
C6 C4 1.348 . S
C6 C8 1.353 . S
C6 H64 0.929 . S
C7 C4 1.356 . S
C7 C9 1.358 . S
C7 H65 0.930 . S
C8 N5 1.314 . S
C8 C6 1.353 . S
C8 H66 0.930 . S
C9 N5 1.279 . S
C9 C7 1.358 . S
C9 H67 0.930 . S
C10 C13 1.348 . S
C10 C14 1.356 . S
C10 O61 1.325 . S
C11 N12 1.279 . S
C11 C14 1.358 . S
C11 H68 0.930 . S
N12 C11 1.279 . S
N12 C15 1.314 . S
C13 C10 1.348 . S
C13 C15 1.353 . S
C13 H69 0.929 . S
C14 C10 1.356 . S
C14 C11 1.358 . S
C14 H70 0.930 . S
C15 N12 1.314 . S
C15 C13 1.353 . S
C15 H71 0.930 . S
C16 N17 1.314 . S
C16 C21 1.351 1_554 S
C16 H22 0.930 1_554 S
N17 Li0 1.990 . S
N17 C16 1.314 . S
N17 C19 1.279 . S
C18 C19 1.358 . S
C18 C20 1.356 . S
C18 H72 0.930 . S
C19 N17 1.279 . S
C19 C18 1.358 . S
C19 H23 0.930 . S
C20 C18 1.356 . S
C20 C21 1.340 1_554 S
C21 C16 1.351 1_556 S
C21 C20 1.340 1_556 S
C21 H73 0.940 . S
H22 C16 0.930 1_556 S
H23 C19 0.930 . S
C24 N25 1.342 . S
C24 C26 1.370 . S
C24 H30 0.881 1_545 S
N25 Li1 1.990 . S
N25 C24 1.342 . S
N25 C28 1.279 . S
C26 C24 1.370 . S
C26 C29 1.348 . S
C26 H74 0.929 1_545 S
C27 C28 1.358 . S
C27 C29 1.356 . S
C27 H75 0.930 . S
C28 N25 1.279 . S
C28 C27 1.358 . S
C28 H31 0.930 . S
C29 C26 1.348 . S
C29 C27 1.356 . S
H30 C24 0.881 1_565 S
H31 C28 0.930 . S
C32 C34 1.348 1_545 S
C32 C35 1.356 . S
C32 O62 1.325 1_556 S
N33 C36 1.314 . S
N33 C37 1.279 1_565 S
C34 C32 1.348 1_565 S
C34 C36 1.353 . S
C34 H76 0.929 . S
C35 C32 1.356 . S
C35 C37 1.358 . S
C35 H77 0.930 1_556 S
C36 N33 1.314 . S
C36 C34 1.353 . S
C36 H78 0.930 . S
C37 N33 1.279 1_545 S
C37 C35 1.358 . S
C37 H79 0.930 . S
C38 C39 1.348 . S
C38 C40 1.356 . S
C38 O63 1.325 . S
C39 C38 1.348 . S
C39 C41 1.353 . S
C39 H80 0.929 . S
C40 C38 1.356 . S
C40 C42 1.358 . S
C40 H81 0.930 . S
C41 C39 1.353 . S
C41 N43 1.314 . S
C41 H82 0.930 . S
C42 C40 1.358 . S
C42 N43 1.279 . S
C42 H83 0.930 . S
N43 C41 1.314 . S
N43 C42 1.279 . S
C44 C46 1.353 . S
C44 N47 1.314 . S
C44 H50 0.930 . S
C45 N47 1.279 . S
C45 C48 1.358 . S
C45 H51 0.930 . S
C46 C44 1.353 . S
C46 C49 1.348 . S
C46 H84 0.929 . S
N47 Li2 1.990 . S
N47 C44 1.314 . S
N47 C45 1.279 . S
C48 C45 1.358 . S
C48 C49 1.356 . S
C48 H85 0.930 . S
C49 C46 1.348 . S
C49 C48 1.356 . S
H50 C44 0.930 . S
H51 C45 0.930 . S
C52 N53 1.315 . S
C52 C54 1.353 . S
C52 H58 0.930 . S
N53 Li3 1.990 1_556 S
N53 C52 1.315 . S
N53 C56 1.279 1_545 S
C54 C52 1.353 . S
C54 C57 1.348 1_545 S
C54 H86 0.929 . S
C55 C56 1.358 . S
C55 C57 1.356 . S
C55 H87 0.930 . S
C56 N53 1.279 1_565 S
C56 C55 1.358 . S
C56 H59 0.930 . S
C57 C54 1.348 1_565 S
C57 C55 1.356 . S
H58 C52 0.930 . S
H59 C56 0.930 . S
O60 Li0 1.956 . S
O60 Li1 1.970 . S
O60 Li2 1.961 1_545 S
O60 C4 1.325 . S
O61 Li0 1.970 . S
O61 Li1 1.956 . S
O61 Li3 1.961 . S
O61 C10 1.325 . S
O62 Li0 1.961 . S
O62 Li2 1.956 1_545 S
O62 Li3 1.970 . S
O62 C32 1.325 1_554 S
O63 Li1 1.961 1_565 S
O63 Li2 1.970 . S
O63 Li3 1.956 1_565 S
O63 C38 1.325 . S
H64 C6 0.929 . S
H65 C7 0.930 . S
H66 C8 0.930 . S
H67 C9 0.930 . S
H68 C11 0.930 . S
H69 C13 0.929 . S
H70 C14 0.930 . S
H71 C15 0.930 . S
H72 C18 0.930 . S
H73 C21 0.940 . S
H74 C26 0.929 1_565 S
H75 C27 0.930 . S
H76 C34 0.929 . S
H77 C35 0.930 1_554 S
H78 C36 0.930 . S
H79 C37 0.930 . S
H80 C39 0.929 . S
H81 C40 0.930 . S
H82 C41 0.930 . S
H83 C42 0.930 . S
H84 C46 0.929 . S
H85 C48 0.930 . S
H86 C54 0.929 . S
H87 C55 0.930 . S
Li88 N105 1.990 . S
Li88 O148 1.956 . S
Li88 O149 1.970 . S
Li88 O150 1.961 . S
Li89 N113 1.990 . S
Li89 O148 1.970 . S
Li89 O149 1.956 . S
Li89 O151 1.961 . S
Li90 N135 1.990 . S
Li90 O148 1.961 . S
Li90 O150 1.956 . S
Li90 O151 1.970 . S
Li91 N141 1.990 . S
Li91 O149 1.961 . S
Li91 O150 1.970 . S
Li91 O151 1.956 . S
C92 C94 1.348 . S
C92 C95 1.356 . S
C92 O148 1.325 . S
N93 C96 1.314 . S
N93 C97 1.279 . S
C94 C92 1.348 . S
C94 C96 1.353 . S
C94 H152 0.929 . S
C95 C92 1.356 . S
C95 C97 1.358 . S
C95 H153 0.930 . S
C96 N93 1.314 . S
C96 C94 1.353 . S
C96 H154 0.930 . S
C97 N93 1.279 . S
C97 C95 1.358 . S
C97 H155 0.930 . S
C98 C101 1.348 . S
C98 C102 1.356 . S
C98 O149 1.325 . S
C99 N100 1.279 . S
C99 C102 1.358 . S
C99 H156 0.930 . S
N100 C99 1.279 . S
N100 C103 1.314 . S
C101 C98 1.348 . S
C101 C103 1.353 . S
C101 H157 0.929 . S
C102 C98 1.356 . S
C102 C99 1.358 . S
C102 H158 0.930 . S
C103 N100 1.314 . S
C103 C101 1.353 . S
C103 H159 0.930 . S
C104 N105 1.314 . S
C104 C109 1.353 . S
C104 H110 0.930 . S
N105 Li88 1.990 . S
N105 C104 1.314 . S
N105 C107 1.279 . S
C106 C107 1.358 . S
C106 C108 1.356 . S
C106 H160 0.930 . S
C107 N105 1.279 . S
C107 C106 1.358 . S
C107 H111 0.930 . S
C108 C106 1.356 . S
C108 C109 1.348 . S
C109 C104 1.353 . S
C109 C108 1.348 . S
C109 H161 0.929 . S
H110 C104 0.930 . S
H111 C107 0.930 . S
C112 N113 1.314 . S
C112 C114 1.353 . S
C112 H118 0.930 . S
N113 Li89 1.990 . S
N113 C112 1.314 . S
N113 C116 1.279 . S
C114 C112 1.353 . S
C114 C117 1.348 . S
C114 H162 0.929 . S
C115 C116 1.358 . S
C115 C117 1.356 . S
C115 H163 0.930 . S
C116 N113 1.279 . S
C116 C115 1.358 . S
C116 H119 0.930 . S
C117 C114 1.348 . S
C117 C115 1.356 . S
H118 C112 0.930 . S
H119 C116 0.930 . S
C120 C122 1.348 . S
C120 C123 1.356 . S
C120 O150 1.325 . S
N121 C124 1.314 . S
N121 C125 1.279 . S
C122 C120 1.348 . S
C122 C124 1.353 . S
C122 H164 0.929 . S
C123 C120 1.356 . S
C123 C125 1.358 . S
C123 H165 0.930 . S
C124 N121 1.314 . S
C124 C122 1.353 . S
C124 H166 0.930 . S
C125 N121 1.279 . S
C125 C123 1.358 . S
C125 H167 0.930 . S
C126 C127 1.348 . S
C126 C128 1.356 . S
C126 O151 1.325 . S
C127 C126 1.348 . S
C127 C129 1.353 . S
C127 H168 0.929 . S
C128 C126 1.356 . S
C128 C130 1.358 . S
C128 H169 0.930 . S
C129 C127 1.353 . S
C129 N131 1.314 . S
C129 H170 0.930 . S
C130 C128 1.358 . S
C130 N131 1.279 . S
C130 H171 0.930 . S
N131 C129 1.314 . S
N131 C130 1.279 . S
C132 C134 1.353 . S
C132 N135 1.314 . S
C132 H138 0.930 . S
C133 N135 1.279 . S
C133 C136 1.358 . S
C133 H139 0.930 . S
C134 C132 1.353 . S
C134 C137 1.348 . S
C134 H172 0.929 . S
N135 Li90 1.990 . S
N135 C132 1.314 . S
N135 C133 1.279 . S
C136 C133 1.358 . S
C136 C137 1.356 . S
C136 H173 0.930 . S
C137 C134 1.348 . S
C137 C136 1.356 . S
H138 C132 0.930 . S
H139 C133 0.930 . S
C140 N141 1.314 . S
C140 C142 1.353 . S
C140 H146 0.930 . S
N141 Li91 1.990 . S
N141 C140 1.314 . S
N141 C144 1.279 . S
C142 C140 1.353 . S
C142 C145 1.348 . S
C142 H174 0.929 . S
C143 C144 1.358 . S
C143 C145 1.356 . S
C143 H175 0.930 . S
C144 N141 1.279 . S
C144 C143 1.358 . S
C144 H147 0.930 . S
C145 C142 1.348 . S
C145 C143 1.356 . S
H146 C140 0.930 . S
H147 C144 0.930 . S
O148 Li88 1.956 . S
O148 Li89 1.970 . S
O148 Li90 1.961 . S
O148 C92 1.325 . S
O149 Li88 1.970 . S
O149 Li89 1.956 . S
O149 Li91 1.961 . S
O149 C98 1.325 . S
O150 Li88 1.961 . S
O150 Li90 1.956 . S
O150 Li91 1.970 . S
O150 C120 1.325 . S
O151 Li89 1.961 . S
O151 Li90 1.970 . S
O151 Li91 1.956 . S
O151 C126 1.325 . S
H152 C94 0.929 . S
H153 C95 0.930 . S
H154 C96 0.930 . S
H155 C97 0.930 . S
H156 C99 0.930 . S
H157 C101 0.929 . S
H158 C102 0.930 . S
H159 C103 0.930 . S
H160 C106 0.930 . S
H161 C109 0.929 . S
H162 C114 0.929 . S
H163 C115 0.930 . S
H164 C122 0.929 . S
H165 C123 0.930 . S
H166 C124 0.930 . S
H167 C125 0.930 . S
H168 C127 0.929 . S
H169 C128 0.930 . S
H170 C129 0.930 . S
H171 C130 0.930 . S
H172 C134 0.929 . S
H173 C136 0.930 . S
H174 C142 0.929 . S
H175 C143 0.930 . S
Li176 N193 1.990 . S
Li176 O236 1.956 1_655 S
Li176 O237 1.970 . S
Li176 O238 1.961 1_655 S
Li177 N201 1.990 . S
Li177 O236 1.970 . S
Li177 O237 1.956 1_455 S
Li177 O239 1.961 . S
Li178 N223 1.990 . S
Li178 O236 1.961 . S
Li178 O238 1.956 . S
Li178 O239 1.970 . S
Li179 N229 1.990 . S
Li179 O237 1.961 1_455 S
Li179 O238 1.970 . S
Li179 O239 1.956 . S
C180 C182 1.348 1_455 S
C180 C183 1.356 . S
C180 O236 1.325 . S
N181 C184 1.314 . S
N181 C185 1.279 1_655 S
C182 C180 1.348 1_655 S
C182 C184 1.353 . S
C182 H240 0.929 . S
C183 C180 1.356 . S
C183 C185 1.358 . S
C183 H241 0.930 . S
C184 N181 1.314 . S
C184 C182 1.353 . S
C184 H242 0.930 . S
C185 N181 1.279 1_455 S
C185 C183 1.358 . S
C185 H243 0.930 . S
C186 C189 1.348 . S
C186 C190 1.356 . S
C186 O237 1.325 . S
C187 N188 1.279 . S
C187 C190 1.358 . S
C187 H244 0.930 . S
N188 C187 1.279 . S
N188 C191 1.314 . S
C189 C186 1.348 . S
C189 C191 1.353 . S
C189 H245 0.929 . S
C190 C186 1.356 . S
C190 C187 1.358 . S
C190 H246 0.930 . S
C191 N188 1.314 . S
C191 C189 1.353 . S
C191 H247 0.930 . S
C192 N193 1.314 . S
C192 C197 1.353 . S
C192 H198 0.930 . S
N193 Li176 1.990 . S
N193 C192 1.314 . S
N193 C195 1.279 . S
C194 C195 1.358 . S
C194 C196 1.356 . S
C194 H248 0.930 . S
C195 N193 1.279 . S
C195 C194 1.358 . S
C195 H199 0.930 . S
C196 C194 1.356 . S
C196 C197 1.348 . S
C197 C192 1.353 . S
C197 C196 1.348 . S
C197 H249 0.929 . S
H198 C192 0.930 . S
H199 C195 0.930 . S
C200 N201 1.314 . S
C200 C202 1.353 . S
C200 H206 0.930 . S
N201 Li177 1.990 . S
N201 C200 1.314 . S
N201 C204 1.279 1_455 S
C202 C200 1.353 . S
C202 C205 1.348 1_455 S
C202 H250 0.929 . S
C203 C204 1.358 . S
C203 C205 1.356 . S
C203 H251 0.930 . S
C204 N201 1.279 1_655 S
C204 C203 1.358 . S
C204 H207 0.930 . S
C205 C202 1.348 1_655 S
C205 C203 1.356 . S
H206 C200 0.930 . S
H207 C204 0.930 . S
C208 C210 1.348 . S
C208 C211 1.356 . S
C208 O238 1.325 . S
N209 C212 1.314 . S
N209 C213 1.279 . S
C210 C208 1.348 . S
C210 C212 1.353 . S
C210 H252 0.929 . S
C211 C208 1.356 . S
C211 C213 1.358 . S
C211 H253 0.930 . S
C212 N209 1.314 . S
C212 C210 1.353 . S
C212 H254 0.930 . S
C213 N209 1.279 . S
C213 C211 1.358 . S
C213 H255 0.930 . S
C214 C215 1.348 . S
C214 C216 1.356 . S
C214 O239 1.325 . S
C215 C214 1.348 . S
C215 C217 1.353 . S
C215 H256 0.929 . S
C216 C214 1.356 . S
C216 C218 1.358 . S
C216 H257 0.930 . S
C217 C215 1.353 . S
C217 N219 1.314 . S
C217 H258 0.930 . S
C218 C216 1.358 . S
C218 N219 1.279 . S
C218 H259 0.930 . S
N219 C217 1.314 . S
N219 C218 1.279 . S
C220 C222 1.353 . S
C220 N223 1.314 . S
C220 H226 0.930 . S
C221 N223 1.279 . S
C221 C224 1.358 . S
C221 H227 0.930 . S
C222 C220 1.353 . S
C222 C225 1.348 . S
C222 H260 0.929 . S
N223 Li178 1.990 . S
N223 C220 1.314 . S
N223 C221 1.279 . S
C224 C221 1.358 . S
C224 C225 1.356 . S
C224 H261 0.930 . S
C225 C222 1.348 . S
C225 C224 1.356 . S
H226 C220 0.930 . S
H227 C221 0.930 . S
C228 N229 1.314 . S
C228 C230 1.353 . S
C228 H234 0.930 1_455 S
N229 Li179 1.990 . S
N229 C228 1.314 . S
N229 C232 1.279 . S
C230 C228 1.353 . S
C230 C233 1.348 . S
C230 H262 0.929 1_455 S
C231 C232 1.358 . S
C231 C233 1.356 . S
C231 H263 0.930 . S
C232 N229 1.279 . S
C232 C231 1.358 . S
C232 H235 0.930 . S
C233 C230 1.348 . S
C233 C231 1.356 . S
H234 C228 0.930 1_655 S
H235 C232 0.930 . S
O236 Li176 1.956 1_455 S
O236 Li177 1.970 . S
O236 Li178 1.961 . S
O236 C180 1.325 . S
O237 Li176 1.970 . S
O237 Li177 1.956 1_655 S
O237 Li179 1.961 1_655 S
O237 C186 1.325 . S
O238 Li176 1.961 1_455 S
O238 Li178 1.956 . S
O238 Li179 1.970 . S
O238 C208 1.325 . S
O239 Li177 1.961 . S
O239 Li178 1.970 . S
O239 Li179 1.956 . S
O239 C214 1.325 . S
H240 C182 0.929 . S
H241 C183 0.930 . S
H242 C184 0.930 . S
H243 C185 0.930 . S
H244 C187 0.930 . S
H245 C189 0.929 . S
H246 C190 0.930 . S
H247 C191 0.930 . S
H248 C194 0.930 . S
H249 C197 0.929 . S
H250 C202 0.929 . S
H251 C203 0.930 . S
H252 C210 0.929 . S
H253 C211 0.930 . S
H254 C212 0.930 . S
H255 C213 0.930 . S
H256 C215 0.929 . S
H257 C216 0.930 . S
H258 C217 0.930 . S
H259 C218 0.930 . S
H260 C222 0.929 . S
H261 C224 0.930 . S
H262 C230 0.929 1_655 S
H263 C231 0.930 . S
Li264 N281 1.991 . S
Li264 O324 1.956 1_545 S
Li264 O325 1.970 . S
Li264 O326 1.961 . S
Li265 N289 1.990 . S
Li265 O324 1.970 . S
Li265 O325 1.956 1_565 S
Li265 O327 1.961 1_565 S
Li266 N311 1.990 . S
Li266 O324 1.961 1_545 S
Li266 O326 1.956 . S
Li266 O327 1.970 . S
Li267 N317 1.990 . S
Li267 O325 1.961 . S
Li267 O326 1.970 . S
Li267 O327 1.956 . S
C268 C270 1.348 . S
C268 C271 1.356 . S
C268 O324 1.325 . S
N269 C272 1.314 . S
N269 C273 1.279 . S
C270 C268 1.348 . S
C270 C272 1.353 . S
C270 H328 0.929 . S
C271 C268 1.356 . S
C271 C273 1.358 . S
C271 H329 0.930 . S
C272 N269 1.314 . S
C272 C270 1.353 . S
C272 H330 0.930 . S
C273 N269 1.279 . S
C273 C271 1.358 . S
C273 H331 0.930 . S
C274 C277 1.348 1_545 S
C274 C278 1.356 . S
C274 O325 1.325 . S
C275 N276 1.279 1_545 S
C275 C278 1.358 . S
C275 H332 0.930 . S
N276 C275 1.279 1_565 S
N276 C279 1.314 . S
C277 C274 1.348 1_565 S
C277 C279 1.353 . S
C277 H333 0.929 . S
C278 C274 1.356 . S
C278 C275 1.358 . S
C278 H334 0.930 . S
C279 N276 1.314 . S
C279 C277 1.353 . S
C279 H335 0.930 . S
C280 N281 1.315 . S
C280 C285 1.353 . S
C280 H286 0.930 . S
N281 Li264 1.991 . S
N281 C280 1.315 . S
N281 C283 1.278 1_545 S
C282 C283 1.358 . S
C282 C284 1.356 . S
C282 H336 0.930 . S
C283 N281 1.278 1_565 S
C283 C282 1.358 . S
C283 H287 0.930 . S
C284 C282 1.356 . S
C284 C285 1.348 1_565 S
C285 C280 1.353 . S
C285 C284 1.348 1_545 S
C285 H337 0.929 . S
H286 C280 0.930 . S
H287 C283 0.930 . S
C288 N289 1.314 . S
C288 C290 1.353 . S
C288 H294 0.930 . S
N289 Li265 1.990 . S
N289 C288 1.314 . S
N289 C292 1.279 . S
C290 C288 1.353 . S
C290 C293 1.348 . S
C290 H338 0.929 . S
C291 C292 1.358 . S
C291 C293 1.356 . S
C291 H339 0.930 . S
C292 N289 1.279 . S
C292 C291 1.358 . S
C292 H295 0.930 . S
C293 C290 1.348 . S
C293 C291 1.356 . S
H294 C288 0.930 . S
H295 C292 0.930 . S
C296 C298 1.348 . S
C296 C299 1.356 . S
C296 O326 1.325 . S
N297 C300 1.314 . S
N297 C301 1.279 . S
C298 C296 1.348 . S
C298 C300 1.353 . S
C298 H340 0.929 . S
C299 C296 1.356 . S
C299 C301 1.358 . S
C299 H341 0.930 . S
C300 N297 1.314 . S
C300 C298 1.353 . S
C300 H342 0.930 . S
C301 N297 1.279 . S
C301 C299 1.358 . S
C301 H343 0.930 . S
C302 C303 1.348 . S
C302 C304 1.356 . S
C302 O327 1.325 . S
C303 C302 1.348 . S
C303 C305 1.353 . S
C303 H344 0.929 . S
C304 C302 1.356 . S
C304 C306 1.358 . S
C304 H345 0.930 . S
C305 C303 1.353 . S
C305 N307 1.314 . S
C305 H346 0.930 . S
C306 C304 1.358 . S
C306 N307 1.279 . S
C306 H347 0.930 . S
N307 C305 1.314 . S
N307 C306 1.279 . S
C308 C310 1.343 . S
C308 N311 1.348 . S
C308 H314 0.905 1_545 S
C309 N311 1.279 . S
C309 C312 1.358 . S
C309 H315 0.930 . S
C310 C308 1.343 . S
C310 C313 1.348 . S
C310 H348 0.929 1_545 S
N311 Li266 1.990 . S
N311 C308 1.348 . S
N311 C309 1.279 . S
C312 C309 1.358 . S
C312 C313 1.356 . S
C312 H349 0.930 . S
C313 C310 1.348 . S
C313 C312 1.356 . S
H314 C308 0.905 1_565 S
H315 C309 0.930 . S
C316 N317 1.314 . S
C316 C318 1.353 . S
C316 H322 0.930 . S
N317 Li267 1.990 . S
N317 C316 1.314 . S
N317 C320 1.279 . S
C318 C316 1.353 . S
C318 C321 1.348 . S
C318 H350 0.929 . S
C319 C320 1.358 . S
C319 C321 1.356 . S
C319 H351 0.930 . S
C320 N317 1.279 . S
C320 C319 1.358 . S
C320 H323 0.930 . S
C321 C318 1.348 . S
C321 C319 1.356 . S
H322 C316 0.930 . S
H323 C320 0.930 . S
O324 Li264 1.956 1_565 S
O324 Li265 1.970 . S
O324 Li266 1.961 1_565 S
O324 C268 1.325 . S
O325 Li264 1.970 . S
O325 Li265 1.956 1_545 S
O325 Li267 1.961 . S
O325 C274 1.325 . S
O326 Li264 1.961 . S
O326 Li266 1.956 . S
O326 Li267 1.970 . S
O326 C296 1.325 . S
O327 Li265 1.961 1_545 S
O327 Li266 1.970 . S
O327 Li267 1.956 . S
O327 C302 1.325 . S
H328 C270 0.929 . S
H329 C271 0.930 . S
H330 C272 0.930 . S
H331 C273 0.930 . S
H332 C275 0.930 . S
H333 C277 0.929 . S
H334 C278 0.930 . S
H335 C279 0.930 . S
H336 C282 0.930 . S
H337 C285 0.929 . S
H338 C290 0.929 . S
H339 C291 0.930 . S
H340 C298 0.929 . S
H341 C299 0.930 . S
H342 C300 0.930 . S
H343 C301 0.930 . S
H344 C303 0.929 . S
H345 C304 0.930 . S
H346 C305 0.930 . S
H347 C306 0.930 . S
H348 C310 0.929 1_565 S
H349 C312 0.930 . S
H350 C318 0.929 . S
H351 C319 0.930 . S
Li352 N369 1.990 . S
Li352 O412 1.956 . S
Li352 O413 1.970 . S
Li352 O414 1.961 . S
Li353 N377 1.990 . S
Li353 O412 1.970 . S
Li353 O413 1.956 . S
Li353 O415 1.961 . S
Li354 N399 1.990 . S
Li354 O412 1.961 . S
Li354 O414 1.956 . S
Li354 O415 1.970 . S
Li355 N405 1.990 . S
Li355 O413 1.961 . S
Li355 O414 1.970 . S
Li355 O415 1.956 . S
C356 C358 1.348 . S
C356 C359 1.356 . S
C356 O412 1.325 . S
N357 C360 1.314 . S
N357 C361 1.279 . S
C358 C356 1.348 . S
C358 C360 1.353 . S
C358 H416 0.929 . S
C359 C356 1.356 . S
C359 C361 1.358 . S
C359 H417 0.930 . S
C360 N357 1.314 . S
C360 C358 1.353 . S
C360 H418 0.930 . S
C361 N357 1.279 . S
C361 C359 1.358 . S
C361 H419 0.930 . S
C362 C365 1.348 . S
C362 C366 1.356 . S
C362 O413 1.325 . S
C363 N364 1.279 . S
C363 C366 1.358 . S
C363 H420 0.930 . S
N364 C363 1.279 . S
N364 C367 1.314 . S
C365 C362 1.348 . S
C365 C367 1.353 . S
C365 H421 0.929 . S
C366 C362 1.356 . S
C366 C363 1.358 . S
C366 H422 0.930 . S
C367 N364 1.314 . S
C367 C365 1.353 . S
C367 H423 0.930 . S
C368 N369 1.314 . S
C368 C373 1.353 . S
C368 H374 0.930 . S
N369 Li352 1.990 . S
N369 C368 1.314 . S
N369 C371 1.279 . S
C370 C371 1.358 . S
C370 C372 1.356 . S
C370 H424 0.930 . S
C371 N369 1.279 . S
C371 C370 1.358 . S
C371 H375 0.930 . S
C372 C370 1.356 . S
C372 C373 1.348 . S
C373 C368 1.353 . S
C373 C372 1.348 . S
C373 H425 0.929 . S
H374 C368 0.930 . S
H375 C371 0.930 . S
C376 N377 1.314 . S
C376 C378 1.353 . S
C376 H382 0.930 . S
N377 Li353 1.990 . S
N377 C376 1.314 . S
N377 C380 1.279 . S
C378 C376 1.353 . S
C378 C381 1.348 . S
C378 H426 0.929 . S
C379 C380 1.358 . S
C379 C381 1.356 . S
C379 H427 0.930 . S
C380 N377 1.279 . S
C380 C379 1.358 . S
C380 H383 0.930 . S
C381 C378 1.348 . S
C381 C379 1.356 . S
H382 C376 0.930 . S
H383 C380 0.930 . S
C384 C386 1.348 . S
C384 C387 1.356 . S
C384 O414 1.325 . S
N385 C388 1.314 . S
N385 C389 1.279 . S
C386 C384 1.348 . S
C386 C388 1.353 . S
C386 H428 0.929 . S
C387 C384 1.356 . S
C387 C389 1.358 . S
C387 H429 0.930 . S
C388 N385 1.314 . S
C388 C386 1.353 . S
C388 H430 0.930 . S
C389 N385 1.279 . S
C389 C387 1.358 . S
C389 H431 0.930 . S
C390 C391 1.348 . S
C390 C392 1.356 . S
C390 O415 1.325 . S
C391 C390 1.348 . S
C391 C393 1.353 . S
C391 H432 0.929 . S
C392 C390 1.356 . S
C392 C394 1.358 . S
C392 H433 0.930 . S
C393 C391 1.353 . S
C393 N395 1.314 . S
C393 H434 0.930 . S
C394 C392 1.358 . S
C394 N395 1.279 . S
C394 H435 0.930 . S
N395 C393 1.314 . S
N395 C394 1.279 . S
C396 C398 1.353 . S
C396 N399 1.314 . S
C396 H402 0.930 . S
C397 N399 1.279 . S
C397 C400 1.358 . S
C397 H403 0.930 . S
C398 C396 1.353 . S
C398 C401 1.348 . S
C398 H436 0.929 . S
N399 Li354 1.990 . S
N399 C396 1.314 . S
N399 C397 1.279 . S
C400 C397 1.358 . S
C400 C401 1.356 . S
C400 H437 0.930 . S
C401 C398 1.348 . S
C401 C400 1.356 . S
H402 C396 0.930 . S
H403 C397 0.930 . S
C404 N405 1.314 . S
C404 C406 1.353 . S
C404 H410 0.930 . S
N405 Li355 1.990 . S
N405 C404 1.314 . S
N405 C408 1.279 . S
C406 C404 1.353 . S
C406 C409 1.348 . S
C406 H438 0.929 . S
C407 C408 1.358 . S
C407 C409 1.356 . S
C407 H439 0.930 . S
C408 N405 1.279 . S
C408 C407 1.358 . S
C408 H411 0.930 . S
C409 C406 1.348 . S
C409 C407 1.356 . S
H410 C404 0.930 . S
H411 C408 0.930 . S
O412 Li352 1.956 . S
O412 Li353 1.970 . S
O412 Li354 1.961 . S
O412 C356 1.325 . S
O413 Li352 1.970 . S
O413 Li353 1.956 . S
O413 Li355 1.961 . S
O413 C362 1.325 . S
O414 Li352 1.961 . S
O414 Li354 1.956 . S
O414 Li355 1.970 . S
O414 C384 1.325 . S
O415 Li353 1.961 . S
O415 Li354 1.970 . S
O415 Li355 1.956 . S
O415 C390 1.325 . S
H416 C358 0.929 . S
H417 C359 0.930 . S
H418 C360 0.930 . S
H419 C361 0.930 . S
H420 C363 0.930 . S
H421 C365 0.929 . S
H422 C366 0.930 . S
H423 C367 0.930 . S
H424 C370 0.930 . S
H425 C373 0.929 . S
H426 C378 0.929 . S
H427 C379 0.930 . S
H428 C386 0.929 . S
H429 C387 0.930 . S
H430 C388 0.930 . S
H431 C389 0.930 . S
H432 C391 0.929 . S
H433 C392 0.930 . S
H434 C393 0.930 . S
H435 C394 0.930 . S
H436 C398 0.929 . S
H437 C400 0.930 . S
H438 C406 0.929 . S
H439 C407 0.930 . S
Li440 N457 1.990 . S
Li440 O500 1.956 . S
Li440 O501 1.970 . S
Li440 O502 1.961 1_455 S
Li441 N465 1.990 . S
Li441 O500 1.970 . S
Li441 O501 1.956 . S
Li441 O503 1.961 . S
Li442 N487 1.990 . S
Li442 O500 1.961 . S
Li442 O502 1.956 1_455 S
Li442 O503 1.970 . S
Li443 N493 1.990 . S
Li443 O501 1.961 1_655 S
Li443 O502 1.970 . S
Li443 O503 1.956 1_655 S
C444 C446 1.348 . S
C444 C447 1.356 . S
C444 O500 1.325 . S
N445 C448 1.314 . S
N445 C449 1.279 . S
C446 C444 1.348 . S
C446 C448 1.353 . S
C446 H504 0.929 . S
C447 C444 1.356 . S
C447 C449 1.358 . S
C447 H505 0.930 . S
C448 N445 1.314 . S
C448 C446 1.353 . S
C448 H506 0.930 . S
C449 N445 1.279 . S
C449 C447 1.358 . S
C449 H507 0.930 . S
C450 C453 1.348 . S
C450 C454 1.356 . S
C450 O501 1.325 . S
C451 N452 1.279 1_556 S
C451 C454 1.358 . S
C451 H508 0.930 . S
N452 C451 1.279 1_554 S
N452 C455 1.314 . S
C453 C450 1.348 . S
C453 C455 1.353 1_556 S
C453 H509 0.929 . S
C454 C450 1.356 . S
C454 C451 1.358 . S
C454 H510 0.930 . S
C455 N452 1.314 . S
C455 C453 1.353 1_554 S
C455 H511 0.930 . S
C456 N457 1.314 . S
C456 C461 1.353 1_556 S
C456 H462 0.930 1_455 S
N457 Li440 1.990 . S
N457 C456 1.314 . S
N457 C459 1.279 . S
C458 C459 1.358 1_554 S
C458 C460 1.356 . S
C458 H512 0.930 . S
C459 N457 1.279 . S
C459 C458 1.358 1_556 S
C459 H463 0.930 . S
C460 C458 1.356 . S
C460 C461 1.348 . S
C461 C456 1.353 1_554 S
C461 C460 1.348 . S
C461 H513 0.929 1_455 S
H462 C456 0.930 1_655 S
H463 C459 0.930 . S
C464 N465 1.314 . S
C464 C466 1.353 . S
C464 H470 0.930 . S
N465 Li441 1.990 . S
N465 C464 1.314 . S
N465 C468 1.279 . S
C466 C464 1.353 . S
C466 C469 1.348 . S
C466 H514 0.929 . S
C467 C468 1.358 . S
C467 C469 1.356 . S
C467 H515 0.930 . S
C468 N465 1.279 . S
C468 C467 1.358 . S
C468 H471 0.930 . S
C469 C466 1.348 . S
C469 C467 1.356 . S
H470 C464 0.930 . S
H471 C468 0.930 . S
C472 C474 1.348 . S
C472 C475 1.356 . S
C472 O502 1.325 . S
N473 C476 1.314 . S
N473 C477 1.279 . S
C474 C472 1.348 . S
C474 C476 1.353 . S
C474 H516 0.929 . S
C475 C472 1.356 . S
C475 C477 1.358 . S
C475 H517 0.930 . S
C476 N473 1.314 . S
C476 C474 1.353 . S
C476 H518 0.930 . S
C477 N473 1.279 . S
C477 C475 1.358 . S
C477 H519 0.930 . S
C478 C479 1.348 1_455 S
C478 C480 1.356 . S
C478 O503 1.325 . S
C479 C478 1.348 1_655 S
C479 C481 1.353 . S
C479 H520 0.929 . S
C480 C478 1.356 . S
C480 C482 1.358 . S
C480 H521 0.930 . S
C481 C479 1.353 . S
C481 N483 1.314 . S
C481 H522 0.930 . S
C482 C480 1.358 . S
C482 N483 1.279 1_455 S
C482 H523 0.930 . S
N483 C481 1.314 . S
N483 C482 1.279 1_655 S
C484 C486 1.353 . S
C484 N487 1.314 . S
C484 H490 0.930 . S
C485 N487 1.279 1_655 S
C485 C488 1.358 . S
C485 H491 0.930 . S
C486 C484 1.353 . S
C486 C489 1.348 1_455 S
C486 H524 0.929 . S
N487 Li442 1.990 . S
N487 C484 1.314 . S
N487 C485 1.279 1_455 S
C488 C485 1.358 . S
C488 C489 1.356 . S
C488 H525 0.930 . S
C489 C486 1.348 1_655 S
C489 C488 1.356 . S
H490 C484 0.930 . S
H491 C485 0.930 . S
C492 N493 1.314 . S
C492 C494 1.353 . S
C492 H498 0.930 . S
N493 Li443 1.990 . S
N493 C492 1.314 . S
N493 C496 1.279 . S
C494 C492 1.353 . S
C494 C497 1.348 . S
C494 H526 0.929 . S
C495 C496 1.358 . S
C495 C497 1.356 . S
C495 H527 0.930 . S
C496 N493 1.279 . S
C496 C495 1.358 . S
C496 H499 0.930 . S
C497 C494 1.348 . S
C497 C495 1.356 . S
H498 C492 0.930 . S
H499 C496 0.930 . S
O500 Li440 1.956 . S
O500 Li441 1.970 . S
O500 Li442 1.961 . S
O500 C444 1.325 . S
O501 Li440 1.970 . S
O501 Li441 1.956 . S
O501 Li443 1.961 1_455 S
O501 C450 1.325 . S
O502 Li440 1.961 1_655 S
O502 Li442 1.956 1_655 S
O502 Li443 1.970 . S
O502 C472 1.325 . S
O503 Li441 1.961 . S
O503 Li442 1.970 . S
O503 Li443 1.956 1_455 S
O503 C478 1.325 . S
H504 C446 0.929 . S
H505 C447 0.930 . S
H506 C448 0.930 . S
H507 C449 0.930 . S
H508 C451 0.930 . S
H509 C453 0.929 . S
H510 C454 0.930 . S
H511 C455 0.930 . S
H512 C458 0.930 . S
H513 C461 0.929 1_655 S
H514 C466 0.929 . S
H515 C467 0.930 . S
H516 C474 0.929 . S
H517 C475 0.930 . S
H518 C476 0.930 . S
H519 C477 0.930 . S
H520 C479 0.929 . S
H521 C480 0.930 . S
H522 C481 0.930 . S
H523 C482 0.930 . S
H524 C486 0.929 . S
H525 C488 0.930 . S
H526 C494 0.929 . S
H527 C495 0.930 . S
C528 C529 1.391 . S
C528 C530 1.394 . S
C528 H544 0.931 1_545 S
C529 C528 1.391 . S
C529 C533 1.376 . S
C530 C528 1.394 . S
C530 C531 1.369 . S
C530 C534 1.531 1_545 S
C531 C530 1.369 . S
C531 C532 1.410 . S
C531 C539 1.503 . S
C532 C531 1.410 . S
C532 C533 1.392 . S
C532 C535 1.511 . S
C533 C529 1.376 . S
C533 C532 1.392 . S
C533 H545 0.929 . S
C534 C530 1.531 1_565 S
C534 H546 0.960 . S
C534 H547 0.962 . S
C534 H548 0.960 . S
C535 C532 1.511 . S
C535 H549 0.961 . S
C535 H550 0.961 . S
C535 H551 0.961 . S
C536 C537 1.370 . S
C536 C538 1.363 . S
C536 H552 0.931 . S
C537 C536 1.370 . S
C537 C541 1.408 . S
C538 C536 1.363 . S
C538 C539 1.370 . S
C538 C542 1.524 . S
C539 C531 1.503 . S
C539 C538 1.370 . S
C539 C540 1.403 . S
C540 C539 1.403 . S
C540 C541 1.404 . S
C540 C543 1.539 . S
C541 C537 1.408 . S
C541 C540 1.404 . S
C541 H553 0.930 . S
C542 C538 1.524 . S
C542 H554 0.956 . S
C542 H555 0.961 . S
C542 H556 0.961 . S
C543 C540 1.539 . S
C543 H557 0.958 . S
C543 H558 0.961 . S
C543 H559 0.960 . S
H544 C528 0.931 1_565 S
H545 C533 0.929 . S
H546 C534 0.960 . S
H547 C534 0.962 . S
H548 C534 0.960 . S
H549 C535 0.961 . S
H550 C535 0.961 . S
H551 C535 0.961 . S
H552 C536 0.931 . S
H553 C541 0.930 . S
H554 C542 0.956 . S
H555 C542 0.961 . S
H556 C542 0.961 . S
H557 C543 0.958 . S
H558 C543 0.961 . S
H559 C543 0.960 . S
C560 C561 1.391 . S
C560 C562 1.394 . S
C560 H576 0.931 . S
C561 C560 1.391 . S
C561 C565 1.376 . S
C562 C560 1.394 . S
C562 C563 1.369 . S
C562 C566 1.531 . S
C563 C562 1.369 . S
C563 C564 1.410 . S
C563 C571 1.503 . S
C564 C563 1.410 . S
C564 C565 1.392 . S
C564 C567 1.511 . S
C565 C561 1.376 . S
C565 C564 1.392 . S
C565 H577 0.929 . S
C566 C562 1.531 . S
C566 H578 0.960 . S
C566 H579 0.962 . S
C566 H580 0.960 . S
C567 C564 1.511 . S
C567 H581 0.961 . S
C567 H582 0.961 . S
C567 H583 0.961 . S
C568 C569 1.370 . S
C568 C570 1.363 . S
C568 H584 0.931 . S
C569 C568 1.370 . S
C569 C573 1.408 . S
C570 C568 1.363 . S
C570 C571 1.370 . S
C570 C574 1.524 . S
C571 C563 1.503 . S
C571 C570 1.370 . S
C571 C572 1.403 . S
C572 C571 1.403 . S
C572 C573 1.404 . S
C572 C575 1.539 . S
C573 C569 1.408 . S
C573 C572 1.404 . S
C573 H585 0.930 . S
C574 C570 1.524 . S
C574 H586 0.956 . S
C574 H587 0.961 . S
C574 H588 0.961 . S
C575 C572 1.539 . S
C575 H589 0.958 . S
C575 H590 0.961 . S
C575 H591 0.960 . S
H576 C560 0.931 . S
H577 C565 0.929 . S
H578 C566 0.960 . S
H579 C566 0.962 . S
H580 C566 0.960 . S
H581 C567 0.961 . S
H582 C567 0.961 . S
H583 C567 0.961 . S
H584 C568 0.931 . S
H585 C573 0.930 . S
H586 C574 0.956 . S
H587 C574 0.961 . S
H588 C574 0.961 . S
H589 C575 0.958 . S
H590 C575 0.961 . S
H591 C575 0.960 . S
C592 C593 1.391 . S
C592 C594 1.394 . S
C592 H608 0.931 1_655 S
C593 C592 1.391 . S
C593 C597 1.376 . S
C594 C592 1.394 . S
C594 C595 1.369 . S
C594 C598 1.531 1_655 S
C595 C594 1.369 . S
C595 C596 1.410 . S
C595 C603 1.503 . S
C596 C595 1.410 . S
C596 C597 1.392 . S
C596 C599 1.511 . S
C597 C593 1.376 . S
C597 C596 1.392 . S
C597 H609 0.929 . S
C598 C594 1.531 1_455 S
C598 H610 0.960 1_455 S
C598 H611 0.962 . S
C598 H612 0.960 . S
C599 C596 1.511 . S
C599 H613 0.961 . S
C599 H614 0.961 . S
C599 H615 0.961 . S
C600 C601 1.370 1_455 S
C600 C602 1.363 . S
C600 H616 0.931 . S
C601 C600 1.370 1_655 S
C601 C605 1.408 . S
C602 C600 1.363 . S
C602 C603 1.370 1_455 S
C602 C606 1.524 . S
C603 C595 1.503 . S
C603 C602 1.370 1_655 S
C603 C604 1.403 . S
C604 C603 1.403 . S
C604 C605 1.404 . S
C604 C607 1.539 . S
C605 C601 1.408 . S
C605 C604 1.404 . S
C605 H617 0.930 . S
C606 C602 1.524 . S
C606 H618 0.956 . S
C606 H619 0.961 . S
C606 H620 0.961 . S
C607 C604 1.539 . S
C607 H621 0.958 . S
C607 H622 0.961 . S
C607 H623 0.960 . S
H608 C592 0.931 1_455 S
H609 C597 0.929 . S
H610 C598 0.960 1_655 S
H611 C598 0.962 . S
H612 C598 0.960 . S
H613 C599 0.961 . S
H614 C599 0.961 . S
H615 C599 0.961 . S
H616 C600 0.931 . S
H617 C605 0.930 . S
H618 C606 0.956 . S
H619 C606 0.961 . S
H620 C606 0.961 . S
H621 C607 0.958 . S
H622 C607 0.961 . S
H623 C607 0.960 . S
C624 C625 1.391 . S
C624 C626 1.394 . S
C624 H640 0.931 . S
C625 C624 1.391 . S
C625 C629 1.376 1_565 S
C626 C624 1.394 . S
C626 C627 1.369 . S
C626 C630 1.531 . S
C627 C626 1.369 . S
C627 C628 1.410 1_565 S
C627 C635 1.503 . S
C628 C627 1.410 1_545 S
C628 C629 1.392 . S
C628 C631 1.511 . S
C629 C625 1.376 1_545 S
C629 C628 1.392 . S
C629 H641 0.929 . S
C630 C626 1.531 . S
C630 H642 0.960 . S
C630 H643 0.962 . S
C630 H644 0.960 . S
C631 C628 1.511 . S
C631 H645 0.961 . S
C631 H646 0.961 . S
C631 H647 0.961 . S
C632 C633 1.370 1_545 S
C632 C634 1.363 . S
C632 H648 0.931 . S
C633 C632 1.370 1_565 S
C633 C637 1.408 . S
C634 C632 1.363 . S
C634 C635 1.370 1_545 S
C634 C638 1.524 . S
C635 C627 1.503 . S
C635 C634 1.370 1_565 S
C635 C636 1.403 . S
C636 C635 1.403 . S
C636 C637 1.404 . S
C636 C639 1.539 . S
C637 C633 1.408 . S
C637 C636 1.404 . S
C637 H649 0.930 . S
C638 C634 1.524 . S
C638 H650 0.914 1_545 S
C638 H651 0.961 . S
C638 H652 0.961 . S
C639 C636 1.539 . S
C639 H653 0.958 . S
C639 H654 0.961 . S
C639 H655 0.960 . S
H640 C624 0.931 . S
H641 C629 0.929 . S
H642 C630 0.960 . S
H643 C630 0.962 . S
H644 C630 0.960 . S
H645 C631 0.961 . S
H646 C631 0.961 . S
H647 C631 0.961 . S
H648 C632 0.931 . S
H649 C637 0.930 . S
H650 C638 0.914 1_565 S
H651 C638 0.961 . S
H652 C638 0.961 . S
H653 C639 0.958 . S
H654 C639 0.961 . S
H655 C639 0.960 . S
C656 C657 1.391 . S
C656 C658 1.394 . S
C656 H672 0.931 . S
C657 C656 1.391 . S
C657 C661 1.376 . S
C658 C656 1.394 . S
C658 C659 1.369 1_554 S
C658 C662 1.531 . S
C659 C658 1.369 1_556 S
C659 C660 1.410 . S
C659 C667 1.503 . S
C660 C659 1.410 . S
C660 C661 1.392 1_556 S
C660 C663 1.511 . S
C661 C657 1.376 . S
C661 C660 1.392 1_554 S
C661 H673 0.929 . S
C662 C658 1.531 . S
C662 H674 0.960 . S
C662 H675 0.962 . S
C662 H676 0.960 . S
C663 C660 1.511 . S
C663 H677 0.961 . S
C663 H678 0.961 . S
C663 H679 0.961 . S
C664 C665 1.370 . S
C664 C666 1.363 . S
C664 H680 0.931 . S
C665 C664 1.370 . S
C665 C669 1.408 . S
C666 C664 1.363 . S
C666 C667 1.370 . S
C666 C670 1.524 . S
C667 C659 1.503 . S
C667 C666 1.370 . S
C667 C668 1.403 . S
C668 C667 1.403 . S
C668 C669 1.404 . S
C668 C671 1.539 . S
C669 C665 1.408 . S
C669 C668 1.404 . S
C669 H681 0.930 . S
C670 C666 1.524 . S
C670 H682 0.956 . S
C670 H683 0.961 . S
C670 H684 0.961 . S
C671 C668 1.539 . S
C671 H685 0.958 1_556 S
C671 H686 0.961 . S
C671 H687 0.960 . S
H672 C656 0.931 . S
H673 C661 0.929 . S
H674 C662 0.960 . S
H675 C662 0.962 . S
H676 C662 0.960 . S
H677 C663 0.961 . S
H678 C663 0.961 . S
H679 C663 0.961 . S
H680 C664 0.931 . S
H681 C669 0.930 . S
H682 C670 0.956 . S
H683 C670 0.961 . S
H684 C670 0.961 . S
H685 C671 0.958 1_554 S
H686 C671 0.961 . S
H687 C671 0.960 . S
C688 C689 1.391 . S
C688 C690 1.394 . S
C688 H704 0.931 . S
C689 C688 1.391 . S
C689 C693 1.376 . S
C690 C688 1.394 . S
C690 C691 1.369 . S
C690 C694 1.531 . S
C691 C690 1.369 . S
C691 C692 1.410 . S
C691 C699 1.503 . S
C692 C691 1.410 . S
C692 C693 1.392 . S
C692 C695 1.511 1_455 S
C693 C689 1.376 . S
C693 C692 1.392 . S
C693 H705 0.929 1_455 S
C694 C690 1.531 . S
C694 H706 0.960 . S
C694 H707 0.962 . S
C694 H708 0.960 . S
C695 C692 1.511 1_655 S
C695 H709 0.961 . S
C695 H710 0.961 . S
C695 H711 0.961 . S
C696 C697 1.370 . S
C696 C698 1.363 . S
C696 H712 0.931 . S
C697 C696 1.370 . S
C697 C701 1.408 . S
C698 C696 1.363 . S
C698 C699 1.370 . S
C698 C702 1.524 . S
C699 C691 1.503 . S
C699 C698 1.370 . S
C699 C700 1.403 . S
C700 C699 1.403 . S
C700 C701 1.404 . S
C700 C703 1.539 . S
C701 C697 1.408 . S
C701 C700 1.404 . S
C701 H713 0.930 . S
C702 C698 1.524 . S
C702 H714 0.956 . S
C702 H715 0.961 1_455 S
C702 H716 0.967 . S
C703 C700 1.539 . S
C703 H717 0.958 . S
C703 H718 0.961 . S
C703 H719 0.960 . S
H704 C688 0.931 . S
H705 C693 0.929 1_655 S
H706 C694 0.960 . S
H707 C694 0.962 . S
H708 C694 0.960 . S
H709 C695 0.961 . S
H710 C695 0.961 . S
H711 C695 0.961 . S
H712 C696 0.931 . S
H713 C701 0.930 . S
H714 C702 0.956 . S
H715 C702 0.961 1_655 S
H716 C702 0.967 . S
H717 C703 0.958 . S
H718 C703 0.961 . S
H719 C703 0.960 . S
C720 C721 1.391 . S
C720 C722 1.394 . S
C720 H736 0.931 . S
C721 C720 1.391 . S
C721 C725 1.376 . S
C722 C720 1.394 . S
C722 C723 1.369 . S
C722 C726 1.531 . S
C723 C722 1.369 . S
C723 C724 1.410 . S
C723 C731 1.503 . S
C724 C723 1.410 . S
C724 C725 1.392 . S
C724 C727 1.511 . S
C725 C721 1.376 . S
C725 C724 1.392 . S
C725 H737 0.929 . S
C726 C722 1.531 . S
C726 H738 0.960 . S
C726 H739 0.962 . S
C726 H740 0.960 . S
C727 C724 1.511 . S
C727 H741 0.961 . S
C727 H742 0.961 . S
C727 H743 0.961 . S
C728 C729 1.370 . S
C728 C730 1.363 . S
C728 H744 0.931 . S
C729 C728 1.370 . S
C729 C733 1.408 . S
C730 C728 1.363 . S
C730 C731 1.370 . S
C730 C734 1.524 . S
C731 C723 1.503 . S
C731 C730 1.370 . S
C731 C732 1.403 . S
C732 C731 1.403 . S
C732 C733 1.404 . S
C732 C735 1.539 . S
C733 C729 1.408 . S
C733 C732 1.404 . S
C733 H745 0.930 . S
C734 C730 1.524 . S
C734 H746 0.956 . S
C734 H747 0.961 . S
C734 H748 0.961 . S
C735 C732 1.539 . S
C735 H749 0.958 . S
C735 H750 0.961 . S
C735 H751 0.960 . S
H736 C720 0.931 . S
H737 C725 0.929 . S
H738 C726 0.960 . S
H739 C726 0.962 . S
H740 C726 0.960 . S
H741 C727 0.961 . S
H742 C727 0.961 . S
H743 C727 0.961 . S
H744 C728 0.931 . S
H745 C733 0.930 . S
H746 C734 0.956 . S
H747 C734 0.961 . S
H748 C734 0.961 . S
H749 C735 0.958 . S
H750 C735 0.961 . S
H751 C735 0.960 . S
C752 C753 1.391 . S
C752 C754 1.394 . S
C752 H768 0.931 . S
C753 C752 1.391 . S
C753 C757 1.376 . S
C754 C752 1.394 . S
C754 C755 1.369 . S
C754 C758 1.531 . S
C755 C754 1.369 . S
C755 C756 1.410 . S
C755 C763 1.503 . S
C756 C755 1.410 . S
C756 C757 1.392 . S
C756 C759 1.511 . S
C757 C753 1.376 . S
C757 C756 1.392 . S
C757 H769 0.929 . S
C758 C754 1.531 . S
C758 H770 0.960 . S
C758 H771 0.962 . S
C758 H772 0.960 . S
C759 C756 1.511 . S
C759 H773 0.961 . S
C759 H774 0.961 . S
C759 H775 0.961 . S
C760 C761 1.370 . S
C760 C762 1.363 . S
C760 H776 0.931 . S
C761 C760 1.370 . S
C761 C765 1.408 . S
C762 C760 1.363 . S
C762 C763 1.370 . S
C762 C766 1.524 . S
C763 C755 1.503 . S
C763 C762 1.370 . S
C763 C764 1.403 . S
C764 C763 1.403 . S
C764 C765 1.404 . S
C764 C767 1.539 . S
C765 C761 1.408 . S
C765 C764 1.404 . S
C765 H777 0.930 . S
C766 C762 1.524 . S
C766 H778 0.956 . S
C766 H779 0.961 . S
C766 H780 0.961 . S
C767 C764 1.539 . S
C767 H781 0.958 . S
C767 H782 0.961 . S
C767 H783 0.960 . S
H768 C752 0.931 . S
H769 C757 0.929 . S
H770 C758 0.960 . S
H771 C758 0.962 . S
H772 C758 0.960 . S
H773 C759 0.961 . S
H774 C759 0.961 . S
H775 C759 0.961 . S
H776 C760 0.931 . S
H777 C765 0.930 . S
H778 C766 0.956 . S
H779 C766 0.961 . S
H780 C766 0.961 . S
H781 C767 0.958 . S
H782 C767 0.961 . S
H783 C767 0.960 . S
C784 C785 1.391 . S
C784 C786 1.394 . S
C784 H800 0.931 . S
C785 C784 1.391 . S
C785 C789 1.376 . S
C786 C784 1.394 . S
C786 C787 1.369 . S
C786 C790 1.531 . S
C787 C786 1.369 . S
C787 C788 1.410 . S
C787 C795 1.503 . S
C788 C787 1.410 . S
C788 C789 1.392 . S
C788 C791 1.511 . S
C789 C785 1.376 . S
C789 C788 1.392 . S
C789 H801 0.929 . S
C790 C786 1.531 . S
C790 H802 0.960 . S
C790 H803 0.962 . S
C790 H804 0.960 . S
C791 C788 1.511 . S
C791 H805 0.961 . S
C791 H806 0.961 . S
C791 H807 0.961 . S
C792 C793 1.370 . S
C792 C794 1.363 . S
C792 H808 0.931 . S
C793 C792 1.370 . S
C793 C797 1.408 . S
C794 C792 1.363 . S
C794 C795 1.370 . S
C794 C798 1.524 . S
C795 C787 1.503 . S
C795 C794 1.370 . S
C795 C796 1.403 . S
C796 C795 1.403 . S
C796 C797 1.404 . S
C796 C799 1.539 . S
C797 C793 1.408 . S
C797 C796 1.404 . S
C797 H809 0.930 . S
C798 C794 1.524 . S
C798 H810 0.956 . S
C798 H811 0.961 . S
C798 H812 0.961 . S
C799 C796 1.539 . S
C799 H813 0.958 . S
C799 H814 0.961 . S
C799 H815 0.960 . S
H800 C784 0.931 . S
H801 C789 0.929 . S
H802 C790 0.960 . S
H803 C790 0.962 . S
H804 C790 0.960 . S
H805 C791 0.961 . S
H806 C791 0.961 . S
H807 C791 0.961 . S
H808 C792 0.931 . S
H809 C797 0.930 . S
H810 C798 0.956 . S
H811 C798 0.961 . S
H812 C798 0.961 . S
H813 C799 0.958 . S
H814 C799 0.961 . S
H815 C799 0.960 . S
C816 C817 1.391 . S
C816 C818 1.394 . S
C816 H832 0.931 . S
C817 C816 1.391 . S
C817 C821 1.376 . S
C818 C816 1.394 . S
C818 C819 1.369 . S
C818 C822 1.531 . S
C819 C818 1.369 . S
C819 C820 1.410 . S
C819 C827 1.503 . S
C820 C819 1.410 . S
C820 C821 1.392 . S
C820 C823 1.511 . S
C821 C817 1.376 . S
C821 C820 1.392 . S
C821 H833 0.929 . S
C822 C818 1.531 . S
C822 H834 0.960 . S
C822 H835 0.962 . S
C822 H836 0.960 . S
C823 C820 1.511 . S
C823 H837 0.961 . S
C823 H838 0.961 . S
C823 H839 0.961 . S
C824 C825 1.370 . S
C824 C826 1.363 . S
C824 H840 0.931 . S
C825 C824 1.370 . S
C825 C829 1.408 . S
C826 C824 1.363 . S
C826 C827 1.370 . S
C826 C830 1.524 . S
C827 C819 1.503 . S
C827 C826 1.370 . S
C827 C828 1.403 . S
C828 C827 1.403 . S
C828 C829 1.404 . S
C828 C831 1.539 . S
C829 C825 1.408 . S
C829 C828 1.404 . S
C829 H841 0.930 . S
C830 C826 1.524 . S
C830 H842 0.956 . S
C830 H843 0.961 . S
C830 H844 0.961 . S
C831 C828 1.539 . S
C831 H845 0.958 . S
C831 H846 0.961 . S
C831 H847 0.960 . S
H832 C816 0.931 . S
H833 C821 0.929 . S
H834 C822 0.960 . S
H835 C822 0.962 . S
H836 C822 0.960 . S
H837 C823 0.961 . S
H838 C823 0.961 . S
H839 C823 0.961 . S
H840 C824 0.931 . S
H841 C829 0.930 . S
H842 C830 0.956 . S
H843 C830 0.961 . S
H844 C830 0.961 . S
H845 C831 0.958 . S
H846 C831 0.961 . S
H847 C831 0.960 . S
C848 C849 1.391 . S
C848 C850 1.394 . S
C848 H864 0.931 . S
C849 C848 1.391 . S
C849 C853 1.376 . S
C850 C848 1.394 . S
C850 C851 1.369 . S
C850 C854 1.531 . S
C851 C850 1.369 . S
C851 C852 1.410 . S
C851 C859 1.503 . S
C852 C851 1.410 . S
C852 C853 1.392 . S
C852 C855 1.511 . S
C853 C849 1.376 . S
C853 C852 1.392 . S
C853 H865 0.929 . S
C854 C850 1.531 . S
C854 H866 0.960 . S
C854 H867 0.962 . S
C854 H868 0.960 . S
C855 C852 1.511 . S
C855 H869 0.961 . S
C855 H870 0.961 . S
C855 H871 0.961 . S
C856 C857 1.370 . S
C856 C858 1.363 . S
C856 H872 0.931 . S
C857 C856 1.370 . S
C857 C861 1.408 . S
C858 C856 1.363 . S
C858 C859 1.370 . S
C858 C862 1.524 . S
C859 C851 1.503 . S
C859 C858 1.370 . S
C859 C860 1.403 . S
C860 C859 1.403 . S
C860 C861 1.404 . S
C860 C863 1.539 . S
C861 C857 1.408 . S
C861 C860 1.404 . S
C861 H873 0.930 . S
C862 C858 1.524 . S
C862 H874 0.956 . S
C862 H875 0.961 . S
C862 H876 0.961 . S
C863 C860 1.539 . S
C863 H877 0.958 . S
C863 H878 0.961 . S
C863 H879 0.960 . S
H864 C848 0.931 . S
H865 C853 0.929 . S
H866 C854 0.960 . S
H867 C854 0.962 . S
H868 C854 0.960 . S
H869 C855 0.961 . S
H870 C855 0.961 . S
H871 C855 0.961 . S
H872 C856 0.931 . S
H873 C861 0.930 . S
H874 C862 0.956 . S
H875 C862 0.961 . S
H876 C862 0.961 . S
H877 C863 0.958 . S
H878 C863 0.961 . S
H879 C863 0.960 . S
C880 C881 1.391 . S
C880 C882 1.394 . S
C880 H896 0.931 . S
C881 C880 1.391 . S
C881 C885 1.376 . S
C882 C880 1.394 . S
C882 C883 1.369 . S
C882 C886 1.541 . S
C883 C882 1.369 . S
C883 C884 1.410 . S
C883 C891 1.503 . S
C884 C883 1.410 . S
C884 C885 1.392 . S
C884 C887 1.511 . S
C885 C881 1.376 . S
C885 C884 1.392 . S
C885 H897 0.929 . S
C886 C882 1.541 . S
C886 H898 0.948 1_556 S
C886 H899 0.970 . S
C886 H900 0.954 1_556 S
C887 C884 1.511 . S
C887 H901 0.961 . S
C887 H902 0.961 . S
C887 H903 0.961 . S
C888 C889 1.370 1_556 S
C888 C890 1.363 . S
C888 H904 0.931 . S
C889 C888 1.370 1_554 S
C889 C893 1.408 . S
C890 C888 1.363 . S
C890 C891 1.370 . S
C890 C894 1.524 . S
C891 C883 1.503 . S
C891 C890 1.370 . S
C891 C892 1.403 1_556 S
C892 C891 1.403 1_554 S
C892 C893 1.404 . S
C892 C895 1.539 . S
C893 C889 1.408 . S
C893 C892 1.404 . S
C893 H905 0.930 . S
C894 C890 1.524 . S
C894 H906 0.956 . S
C894 H907 0.961 . S
C894 H908 0.961 . S
C895 C892 1.539 . S
C895 H909 0.958 . S
C895 H910 0.961 . S
C895 H911 0.960 . S
H896 C880 0.931 . S
H897 C885 0.929 . S
H898 C886 0.948 1_554 S
H899 C886 0.970 . S
H900 C886 0.954 1_554 S
H901 C887 0.961 . S
H902 C887 0.961 . S
H903 C887 0.961 . S
H904 C888 0.931 . S
H905 C893 0.930 . S
H906 C894 0.956 . S
H907 C894 0.961 . S
H908 C894 0.961 . S
H909 C895 0.958 . S
H910 C895 0.961 . S
H911 C895 0.960 . S
C529 C29 1.303 . S
C537 C313 1.286 . S
C561 C117 1.302 . S
C569 C401 1.294 . S
C593 C489 1.302 . S
C601 C205 1.295 . S
C625 C57 1.278 . S
C633 C284 1.300 . S
C657 C145 1.273 . S
C665 C372 1.293 . S
C689 C460 1.278 . S
C697 C233 1.300 . S
C721 C108 1.508 . S
C729 C49 1.486 . S
C753 C196 1.473 . S
C761 C137 1.499 . S
C785 C225 1.468 . S
C793 C293 1.497 . S
C817 C381 1.506 . S
C825 C321 1.487 . S
C849 C469 1.497 . S
C857 C409 1.484 . S
C881 C497 1.469 . S
C889 C20 1.497 . S
