# Generated by pormake.
# Topology zfk, (5)-cn, num edge types: 1
# Building blocks:
#     Node 0, Type 0, BuildingBlock: XOMCOT_clean_sbu_0, # of connection points: 5
#     Node 1, Type 0, BuildingBlock: XOMCOT_clean_sbu_0, # of connection points: 5
#     Node 2, Type 0, BuildingBlock: XOMCOT_clean_sbu_0, # of connection points: 5
#     Node 3, Type 0, BuildingBlock: XOMCOT_clean_sbu_0, # of connection points: 5
#     Node 4, Type 0, BuildingBlock: XOMCOT_clean_sbu_0, # of connection points: 5
#     Node 5, Type 0, BuildingBlock: XOMCOT_clean_sbu_0, # of connection points: 5
#     Node 6, Type 0, BuildingBlock: XOMCOT_clean_sbu_0, # of connection points: 5
#     Node 7, Type 0, BuildingBlock: XOMCOT_clean_sbu_0, # of connection points: 5
#     Node 8, Type 0, BuildingBlock: XOMCOT_clean_sbu_0, # of connection points: 5
#     Node 9, Type 0, BuildingBlock: XOMCOT_clean_sbu_0, # of connection points: 5
#     Node 10, Type 0, BuildingBlock: XOMCOT_clean_sbu_0, # of connection points: 5
#     Node 11, Type 0, BuildingBlock: XOMCOT_clean_sbu_0, # of connection points: 5
#     Node 12, Type 0, BuildingBlock: XOMCOT_clean_sbu_0, # of connection points: 5
#     Node 13, Type 0, BuildingBlock: XOMCOT_clean_sbu_0, # of connection points: 5
#     Node 14, Type 0, BuildingBlock: XOMCOT_clean_sbu_0, # of connection points: 5
#     Node 15, Type 0, BuildingBlock: XOMCOT_clean_sbu_0, # of connection points: 5
#     Edge 16, Type (0, 0), BuildingBlock: XIVTED_clean_linker_0, # of connection points: 2
#     Edge 17, Type (0, 0), BuildingBlock: XIVTED_clean_linker_0, # of connection points: 2
#     Edge 18, Type (0, 0), BuildingBlock: XIVTED_clean_linker_0, # of connection points: 2
#     Edge 19, Type (0, 0), BuildingBlock: XIVTED_clean_linker_0, # of connection points: 2
#     Edge 20, Type (0, 0), BuildingBlock: XIVTED_clean_linker_0, # of connection points: 2
#     Edge 21, Type (0, 0), BuildingBlock: XIVTED_clean_linker_0, # of connection points: 2
#     Edge 22, Type (0, 0), BuildingBlock: XIVTED_clean_linker_0, # of connection points: 2
#     Edge 23, Type (0, 0), BuildingBlock: XIVTED_clean_linker_0, # of connection points: 2
#     Edge 24, Type (0, 0), BuildingBlock: XIVTED_clean_linker_0, # of connection points: 2
#     Edge 25, Type (0, 0), BuildingBlock: XIVTED_clean_linker_0, # of connection points: 2
#     Edge 26, Type (0, 0), BuildingBlock: XIVTED_clean_linker_0, # of connection points: 2
#     Edge 27, Type (0, 0), BuildingBlock: XIVTED_clean_linker_0, # of connection points: 2
#     Edge 28, Type (0, 0), BuildingBlock: XIVTED_clean_linker_0, # of connection points: 2
#     Edge 29, Type (0, 0), BuildingBlock: XIVTED_clean_linker_0, # of connection points: 2
#     Edge 30, Type (0, 0), BuildingBlock: XIVTED_clean_linker_0, # of connection points: 2
#     Edge 31, Type (0, 0), BuildingBlock: XIVTED_clean_linker_0, # of connection points: 2
#     Edge 32, Type (0, 0), BuildingBlock: XIVTED_clean_linker_0, # of connection points: 2
#     Edge 33, Type (0, 0), BuildingBlock: XIVTED_clean_linker_0, # of connection points: 2
#     Edge 34, Type (0, 0), BuildingBlock: XIVTED_clean_linker_0, # of connection points: 2
#     Edge 35, Type (0, 0), BuildingBlock: XIVTED_clean_linker_0, # of connection points: 2
#     Edge 36, Type (0, 0), BuildingBlock: XIVTED_clean_linker_0, # of connection points: 2
#     Edge 37, Type (0, 0), BuildingBlock: XIVTED_clean_linker_0, # of connection points: 2
#     Edge 38, Type (0, 0), BuildingBlock: XIVTED_clean_linker_0, # of connection points: 2
#     Edge 39, Type (0, 0), BuildingBlock: XIVTED_clean_linker_0, # of connection points: 2
#     Edge 40, Type (0, 0), BuildingBlock: XIVTED_clean_linker_0, # of connection points: 2
#     Edge 41, Type (0, 0), BuildingBlock: XIVTED_clean_linker_0, # of connection points: 2
#     Edge 42, Type (0, 0), BuildingBlock: XIVTED_clean_linker_0, # of connection points: 2
#     Edge 43, Type (0, 0), BuildingBlock: XIVTED_clean_linker_0, # of connection points: 2
#     Edge 44, Type (0, 0), BuildingBlock: XIVTED_clean_linker_0, # of connection points: 2
#     Edge 45, Type (0, 0), BuildingBlock: XIVTED_clean_linker_0, # of connection points: 2
#     Edge 46, Type (0, 0), BuildingBlock: XIVTED_clean_linker_0, # of connection points: 2
#     Edge 47, Type (0, 0), BuildingBlock: XIVTED_clean_linker_0, # of connection points: 2
#     Edge 48, Type (0, 0), BuildingBlock: XIVTED_clean_linker_0, # of connection points: 2
#     Edge 49, Type (0, 0), BuildingBlock: XIVTED_clean_linker_0, # of connection points: 2
#     Edge 50, Type (0, 0), BuildingBlock: XIVTED_clean_linker_0, # of connection points: 2
#     Edge 51, Type (0, 0), BuildingBlock: XIVTED_clean_linker_0, # of connection points: 2
#     Edge 52, Type (0, 0), BuildingBlock: XIVTED_clean_linker_0, # of connection points: 2
#     Edge 53, Type (0, 0), BuildingBlock: XIVTED_clean_linker_0, # of connection points: 2
#     Edge 54, Type (0, 0), BuildingBlock: XIVTED_clean_linker_0, # of connection points: 2
#     Edge 55, Type (0, 0), BuildingBlock: XIVTED_clean_linker_0, # of connection points: 2
# Relax obj value: 0.333
# Max RMSD: 0.197
# Mean RMSD: 0.197
data_MOF--net-zfk--node1-XOMCOT_clean_sbu_0--edge1-XIVTED_clean_linker_0
_symmetry_space_group_name_H-M    P1
_symmetry_Int_Tables_number       1
_symmetry_cell_setting            triclinic
loop_
_symmetry_equiv_pos_as_xyz
'x, y, z'
_cell_length_a     29.928455
_cell_length_b     29.676012
_cell_length_c     66.516006
_cell_angle_alpha  89.895821
_cell_angle_beta   89.836969
_cell_angle_gamma 89.910315
loop_
_atom_site_label
_atom_site_type_symbol
_atom_site_fract_x
_atom_site_fract_y
_atom_site_fract_z
_atom_type_partial_charge
Co0 Co 0.03652 0.41021 0.13818 0.0
C1 C 0.01857 0.43094 0.18135 0.0
C2 C 0.96613 0.39204 0.16792 0.0
C3 C 0.95611 0.39854 0.18795 0.0
N4 N 1.00539 0.41202 0.16382 0.0
N5 N 0.9892 0.42279 0.19648 0.0
H6 H 0.04974 0.4489 0.1831 0.0
H7 H 0.94643 0.37348 0.15714 0.0
C8 C 0.04728 0.3136 0.12779 0.0
O9 O 0.08864 0.32603 0.12414 0.0
N10 N 0.06504 0.40798 0.11167 0.0
C11 C 0.10656 0.41861 0.10526 0.0
C12 C 0.11213 0.40248 0.08587 0.0
C13 C 0.04577 0.3872 0.0958 0.0
N14 N 0.07407 0.3819 0.08013 0.0
C15 C 0.12309 0.42324 0.15489 0.0
C16 C 0.12116 0.34907 0.17994 0.0
C17 C 0.15553 0.38077 0.18239 0.0
C18 C 0.15569 0.41854 0.16964 0.0
C19 C 0.088 0.35626 0.16568 0.0
N20 N 0.08977 0.39226 0.15285 0.0
H21 H 0.12314 0.45376 0.14611 0.0
H22 H 0.05957 0.33396 0.16584 0.0
H23 H 0.13215 0.43451 0.1141 0.0
H24 H 1.01242 0.37318 0.09633 0.0
O25 O 0.04698 0.47385 0.13993 0.0
O26 O 0.987 0.44474 0.12585 0.0
O27 O 0.01887 0.34341 0.13405 0.0
C28 C 1.00968 0.48069 0.13089 0.0
H29 H 0.9266 0.38621 0.19559 0.0
H30 H 0.14287 0.40306 0.07726 0.0
H31 H 0.11905 0.31889 0.189 0.0
H32 H 0.17994 0.44524 0.17118 0.0
Co33 Co 0.34146 0.06679 0.66499 0.0
C34 C 0.31716 0.0773 0.70768 0.0
C35 C 0.36589 0.02486 0.70406 0.0
C36 C 0.35306 0.02659 0.72406 0.0
N37 N 0.34327 0.05671 0.69383 0.0
N38 N 0.32205 0.05935 0.72627 0.0
H39 H 0.29411 0.10423 0.70409 0.0
H40 H 0.38869 1.00083 0.69739 0.0
C41 C 0.43757 0.0533 0.65044 0.0
O42 O 0.42996 0.08693 0.63805 0.0
N43 N 0.33759 0.07724 0.63581 0.0
C44 C 0.31371 0.11017 0.62678 0.0
C45 C 0.31956 0.10765 0.6063 0.0
C46 C 0.35588 0.05367 0.62031 0.0
N47 N 0.34663 0.07258 0.60221 0.0
C48 C 0.33868 0.16298 0.66687 0.0
C49 C 0.43018 0.17454 0.66559 0.0
C50 C 0.40223 0.20787 0.6576 0.0
C51 C 0.3561 0.20436 0.66108 0.0
C52 C 0.41062 0.13495 0.67303 0.0
N53 N 0.36636 0.12695 0.66943 0.0
H54 H 0.30291 0.15895 0.66682 0.0
H55 H 0.43189 0.10903 0.67918 0.0
H56 H 0.29314 0.13468 0.63439 0.0
H57 H 0.37674 0.02416 0.6222 0.0
O58 O 0.27871 0.08264 0.66743 0.0
O59 O 0.30189 1.01365 0.66175 0.0
O60 O 0.40542 0.03926 0.66194 0.0
C61 C 0.26811 0.04102 0.66456 0.0
H62 H 0.36404 1.00393 0.73582 0.0
H63 H 0.30631 0.13098 0.59529 0.0
H64 H 0.46615 0.17694 0.6642 0.0
H65 H 0.33319 0.23023 0.65593 0.0
Co66 Co 0.47349 0.12786 0.14003 0.0
C67 C 0.49447 0.09925 0.18169 0.0
C68 C 0.55306 0.12363 0.16652 0.0
C69 C 0.56385 0.11394 0.18627 0.0
N70 N 0.50944 0.1148 0.16373 0.0
N71 N 0.5269 0.09879 0.19586 0.0
H72 H 0.45987 0.0908 0.18456 0.0
H73 H 0.57513 0.13749 0.15519 0.0
C74 C 0.49004 0.22131 0.12784 0.0
O75 O 0.44616 0.22257 0.12744 0.0
N76 N 0.43916 0.1394 0.11531 0.0
C77 C 0.39491 0.1396 0.11141 0.0
C78 C 0.38821 0.15528 0.09201 0.0
C79 C 0.45841 0.15281 0.09777 0.0
N80 N 0.42825 0.16441 0.08353 0.0
C81 C 0.39302 0.1536 0.16162 0.0
C82 C 0.43539 0.2178 0.18486 0.0
C83 C 0.38992 0.20999 0.18803 0.0
C84 C 0.36875 0.17682 0.17633 0.0
C85 C 0.45767 0.19531 0.16961 0.0
N86 N 0.43634 0.16465 0.15764 0.0
H87 H 0.37742 0.12579 0.15401 0.0
H88 H 0.49307 0.20134 0.16804 0.0
H89 H 0.36882 0.1304 0.12178 0.0
H90 H 0.49416 0.15629 0.09591 0.0
O91 O 0.44316 0.07156 0.14396 0.0
O92 O 0.50415 0.07954 0.12545 0.0
O93 O 0.51025 0.18454 0.13307 0.0
C94 C 0.47339 0.05282 0.13279 0.0
H95 H 0.59636 0.11828 0.19306 0.0
H96 H 0.3561 0.16164 0.08511 0.0
H97 H 0.45402 0.24118 0.19406 0.0
H98 H 0.33371 0.169 0.1783 0.0
Co99 Co 0.19944 0.46456 0.65735 0.0
C100 C 0.22838 0.4418 0.69969 0.0
C101 C 0.16953 0.48252 0.6989 0.0
C102 C 0.18263 0.47797 0.71855 0.0
N103 N 0.1971 0.45863 0.68685 0.0
N104 N 0.22001 0.45263 0.7192 0.0
H105 H 0.2585 0.42492 0.69478 0.0
H106 H 0.14332 0.50483 0.69388 0.0
C107 C 0.10078 0.46275 0.66465 0.0
O108 O 0.10995 0.42538 0.67444 0.0
N109 N 0.20299 0.4732 0.62807 0.0
C110 C 0.23795 0.46164 0.61626 0.0
C111 C 0.22674 0.46811 0.59645 0.0
C112 C 0.17085 0.48684 0.61498 0.0
N113 N 0.18442 0.48341 0.59557 0.0
C114 C 0.20723 0.36934 0.66032 0.0
C115 C 0.16613 0.35698 0.62357 0.0
C116 C 0.20056 0.32793 0.62936 0.0
C117 C 0.21736 0.33131 0.64894 0.0
C118 C 0.15491 0.39305 0.63613 0.0
N119 N 0.18057 0.40239 0.65264 0.0
H120 H 0.22672 0.37517 0.67358 0.0
H121 H 0.13093 0.41728 0.6307 0.0
H122 H 0.26903 0.44719 0.62142 0.0
H123 H 0.13751 0.49692 0.61941 0.0
O124 O 0.26258 0.45155 0.65796 0.0
O125 O 0.2359 0.52012 0.66099 0.0
O126 O 0.13342 0.48597 0.65718 0.0
C127 C 0.27114 0.49383 0.66005 0.0
H128 H 0.16653 0.494 0.73122 0.0
H129 H 0.24728 0.45941 0.5836 0.0
H130 H 0.15179 0.35498 0.60867 0.0
H131 H 0.24386 0.30915 0.65403 0.0
Co132 Co 0.08624 0.14075 0.90554 0.0
C133 C 0.13673 0.12285 0.86693 0.0
C134 C 0.07895 0.16518 0.86349 0.0
C135 C 0.09801 0.15894 0.84494 0.0
N136 N 0.10304 0.14285 0.87733 0.0
N137 N 0.13423 0.13212 0.84692 0.0
H138 H 0.16173 0.10137 0.87374 0.0
H139 H 0.04902 0.1844 0.86664 0.0
C140 C 0.08436 0.24323 0.91276 0.0
O141 O 0.11054 0.23686 0.92832 0.0
N142 N 0.0671 0.13945 0.9341 0.0
C143 C 0.07291 0.10571 0.94755 0.0
C144 C 0.06436 0.12152 0.9667 0.0
C145 C 0.0511 0.17394 0.94544 0.0
N146 N 0.05163 0.16497 0.96538 0.0
C147 C 0.16532 0.12726 0.92795 0.0
C148 C 0.20389 0.20892 0.91916 0.0
C149 C 0.21329 0.18747 0.93754 0.0
C150 C 0.19748 0.14409 0.94086 0.0
C151 C 0.17083 0.19059 0.90674 0.0
N152 N 0.14723 0.15426 0.91345 0.0
H153 H 0.15146 0.09465 0.93118 0.0
H154 H 0.15947 0.20949 0.89381 0.0
H155 H 0.08511 0.07236 0.94401 0.0
H156 H 0.03889 0.20534 0.93953 0.0
O157 O 0.09456 0.07641 0.90543 0.0
O158 O 0.03045 0.10884 0.89815 0.0
O159 O 0.06878 0.20877 0.90317 0.0
C160 C 0.05348 0.07148 0.90013 0.0
H161 H 0.08602 0.17343 0.83102 0.0
H162 H 0.07004 0.10325 0.98056 0.0
H163 H 0.21683 0.24223 0.91591 0.0
H164 H 0.20574 0.12576 0.95446 0.0
Co165 Co 0.48982 0.05284 0.40352 0.0
C166 C 0.50221 0.05008 0.35897 0.0
C167 C 0.47846 0.98707 0.37076 0.0
C168 C 0.4811 0.98394 0.35009 0.0
N169 N 0.4912 0.02865 0.37631 0.0
N170 N 0.49578 0.02365 0.34261 0.0
H171 H 0.51271 0.08494 0.35832 0.0
H172 H 0.46711 0.96112 0.381 0.0
C173 C 0.39625 0.04021 0.41755 0.0
O174 O 0.40083 0.08174 0.42405 0.0
N175 N 0.49055 0.07509 0.43147 0.0
C176 C 0.51566 0.10862 0.43923 0.0
C177 C 0.50961 0.11019 0.4598 0.0
C178 C 0.47211 0.05498 0.4479 0.0
N179 N 0.48169 0.07674 0.46521 0.0
C180 C 0.46357 0.14702 0.39874 0.0
C181 C 0.38917 0.1273 0.37582 0.0
C182 C 0.39414 0.17076 0.38346 0.0
C183 C 0.43303 0.18127 0.3942 0.0
C184 C 0.41983 0.09429 0.38093 0.0
N185 N 0.45489 0.10353 0.39343 0.0
H186 H 0.49312 0.15539 0.40704 0.0
H187 H 0.41331 0.06031 0.37597 0.0
H188 H 0.53827 0.12978 0.43077 0.0
H189 H 0.45259 0.02439 0.44737 0.0
O190 O 0.54899 0.07691 0.39913 0.0
O191 O 0.53557 1.00913 0.41155 0.0
O192 O 0.43003 0.02013 0.40928 0.0
C193 C 0.56498 0.03937 0.40607 0.0
H194 H 0.47257 0.95459 0.34128 0.0
H195 H 0.52444 0.13433 0.46997 0.0
H196 H 0.36048 0.11819 0.3668 0.0
H197 H 0.43867 0.21492 0.39992 0.0
Co198 Co 0.44993 0.39463 0.90119 0.0
C199 C 0.40188 0.40541 0.86112 0.0
C200 C 0.47216 0.39216 0.85868 0.0
C201 C 0.45468 0.39461 0.83965 0.0
N202 N 0.43932 0.39871 0.87226 0.0
N203 N 0.41046 0.40275 0.84108 0.0
H204 H 0.3689 0.41043 0.86734 0.0
H205 H 0.50663 0.38513 0.86241 0.0
C206 C 0.45129 0.29859 0.88647 0.0
O207 O 0.41668 0.31008 0.8755 0.0
N208 N 0.46187 0.38974 0.93023 0.0
C209 C 0.4598 0.42313 0.94399 0.0
C210 C 0.46252 0.40483 0.96303 0.0
C211 C 0.46598 0.35146 0.9414 0.0
N212 N 0.46579 0.35971 0.96142 0.0
C213 C 0.35917 0.41336 0.90838 0.0
C214 C 0.34963 0.34085 0.93379 0.0
C215 C 0.32659 0.38084 0.93803 0.0
C216 C 0.32842 0.41603 0.92417 0.0
C217 C 0.37992 0.33973 0.91793 0.0
N218 N 0.38834 0.37781 0.90702 0.0
H219 H 0.36354 0.4429 0.8991 0.0
H220 H 0.40094 0.31047 0.9169 0.0
H221 H 0.45427 0.45834 0.94068 0.0
H222 H 0.46709 0.31789 0.93514 0.0
O223 O 0.44077 0.45884 0.90356 0.0
O224 O 0.50638 0.42921 0.89719 0.0
O225 O 0.47011 0.32864 0.89756 0.0
C226 C 0.48249 0.46568 0.89999 0.0
H227 H 0.4733 0.3908 0.82578 0.0
H228 H 0.45954 0.42315 0.97704 0.0
H229 H 0.34675 0.31173 0.94356 0.0
H230 H 0.30905 0.4465 0.92639 0.0
Co231 Co 0.02055 0.48013 0.40226 0.0
C232 C 1.00893 0.4837 0.35788 0.0
C233 C 0.0282 0.54786 0.36993 0.0
C234 C 0.02578 0.55135 0.34927 0.0
N235 N 0.01814 0.50534 0.37528 0.0
N236 N 1.01397 0.5109 0.34163 0.0
H237 H 1.0009 0.4482 0.35714 0.0
H238 H 0.03766 0.57419 0.38029 0.0
C239 C 0.11301 0.49619 0.41664 0.0
O240 O 0.10945 0.45462 0.42329 0.0
N241 N 0.02051 0.45699 0.43002 0.0
C242 C 0.99882 0.42092 0.43767 0.0
C243 C 1.00508 0.41946 0.45823 0.0
C244 C 0.03647 0.47868 0.44645 0.0
N245 N 0.02937 0.4556 0.46372 0.0
C246 C 0.05375 0.38778 0.39721 0.0
C247 C 0.12678 0.41428 0.37452 0.0
C248 C 0.12593 0.37082 0.38252 0.0
C249 C 0.08773 0.35661 0.39304 0.0
C250 C 0.09296 0.44419 0.37934 0.0
N251 N 0.05856 0.4319 0.3918 0.0
H252 H 0.02487 0.37667 0.40541 0.0
H253 H 0.09682 0.47862 0.37438 0.0
H254 H 0.97842 0.39783 0.42917 0.0
H255 H 0.05278 0.51114 0.44585 0.0
O256 O 0.9626 0.45338 0.39775 0.0
O257 O 0.97273 0.52124 0.41057 0.0
O258 O 0.07884 0.51521 0.40821 0.0
C259 C 0.94481 0.48991 0.40488 0.0
H260 H 0.03261 0.58142 0.34058 0.0
H261 H 0.99292 0.3935 0.46829 0.0
H262 H 0.15484 0.42608 0.36564 0.0
H263 H 0.08524 0.32269 0.39896 0.0
Co264 Co 0.96626 0.6413 0.90099 0.0
C265 C 0.91861 0.63034 0.8612 0.0
C266 C 0.98245 0.66284 0.85883 0.0
C267 C 0.96426 0.65976 0.83994 0.0
N268 N 0.95405 0.64457 0.87224 0.0
N269 N 0.92409 0.63921 0.84124 0.0
H270 H 0.88979 0.61361 0.86762 0.0
H271 H 0.01437 0.67759 0.86258 0.0
C272 C 0.97363 0.7425 0.90959 0.0
O273 O 0.9468 0.73594 0.92492 0.0
N274 N 0.98019 0.63793 0.93021 0.0
C275 C 0.96908 0.60406 0.94291 0.0
C276 C 0.97567 0.61756 0.96251 0.0
C277 C 0.99735 0.6699 0.94263 0.0
N278 N 0.99245 0.6596 0.96237 0.0
C279 C 0.88256 0.63426 0.92085 0.0
C280 C 0.85571 0.72089 0.91237 0.0
C281 C 0.84234 0.70033 0.93046 0.0
C282 C 0.85165 0.65484 0.93346 0.0
C283 C 0.88664 0.69845 0.90012 0.0
N284 N 0.90512 0.65928 0.90692 0.0
H285 H 0.89224 0.60005 0.92399 0.0
H286 H 0.90128 0.71609 0.88748 0.0
H287 H 0.95461 0.57227 0.9385 0.0
H288 H 1.01327 0.70045 0.93764 0.0
O289 O 0.95471 0.57734 0.90034 0.0
O290 O 0.02143 0.60656 0.89544 0.0
O291 O 0.98785 0.70818 0.89943 0.0
C292 C 0.99656 0.57036 0.8967 0.0
H293 H 0.97944 0.67252 0.82629 0.0
H294 H 0.96589 0.59897 0.97582 0.0
H295 H 0.84708 0.75562 0.90914 0.0
H296 H 0.83959 0.6371 0.94665 0.0
Co297 Co 0.98963 0.97657 0.40578 0.0
C298 C 1.00398 0.98086 0.36148 0.0
C299 C 0.98035 0.0439 0.37328 0.0
C300 C 0.98409 0.04754 0.35265 0.0
N301 N 0.99231 1.00194 0.37878 0.0
N302 N 0.99874 1.00782 0.34518 0.0
H303 H 1.0141 0.94586 0.36082 0.0
H304 H 0.96878 0.06972 0.38351 0.0
C305 C 0.89631 0.9914 0.41966 0.0
O306 O 0.9001 0.94983 0.42629 0.0
N307 N 0.98953 0.95297 0.43354 0.0
C308 C 1.01398 0.91841 0.44094 0.0
C309 C 1.0084 0.9161 0.46151 0.0
C310 C 0.9719 0.97285 0.45019 0.0
N311 N 0.98144 0.95008 0.4673 0.0
C312 C 0.95767 0.88389 0.40096 0.0
C313 C 0.88583 0.90923 0.3774 0.0
C314 C 0.88666 0.86599 0.38561 0.0
C315 C 0.92429 0.85234 0.39661 0.0
C316 C 0.91897 0.93953 0.3824 0.0
N317 N 0.95281 0.92781 0.39521 0.0
H318 H 0.98597 0.87328 0.40965 0.0
H319 H 0.91483 0.97384 0.37733 0.0
H320 H 0.03578 0.89695 0.43219 0.0
H321 H 0.95306 1.00396 0.44996 0.0
O322 O 0.0481 0.95073 0.40127 0.0
O323 O 0.03659 1.01836 0.41416 0.0
O324 O 0.93067 1.01086 0.41158 0.0
C325 C 0.06514 0.98753 0.40838 0.0
H326 H 0.97634 0.07722 0.34384 0.0
H327 H 0.02291 0.89114 0.47143 0.0
H328 H 0.85814 0.92061 0.36822 0.0
H329 H 0.92667 0.81862 0.40276 0.0
Co330 Co 0.55839 0.89462 0.90228 0.0
C331 C 0.61338 0.91086 0.86407 0.0
C332 C 0.54615 0.88848 0.85925 0.0
C333 C 0.56616 0.89471 0.84091 0.0
N334 N 0.57542 0.89826 0.87391 0.0
N335 N 0.60845 0.90911 0.84373 0.0
H336 H 0.64365 0.92151 0.87143 0.0
H337 H 0.51228 0.87711 0.8618 0.0
C338 C 0.55835 0.79824 0.88775 0.0
O339 O 0.59516 0.80881 0.87804 0.0
N340 N 0.54011 0.89038 0.93066 0.0
C341 C 0.54059 0.9238 0.94443 0.0
C342 C 0.53464 0.90567 0.96335 0.0
C343 C 0.53352 0.85228 0.94169 0.0
N344 N 0.53088 0.86061 0.96167 0.0
C345 C 0.64749 0.91086 0.91344 0.0
C346 C 0.65313 0.83574 0.93758 0.0
C347 C 0.67801 0.87403 0.94266 0.0
C348 C 0.67713 0.91091 0.92958 0.0
C349 C 0.62354 0.83741 0.92155 0.0
N350 N 0.61789 0.87628 0.91081 0.0
H351 H 0.64498 0.94132 0.90466 0.0
H352 H 0.60163 0.8091 0.91986 0.0
H353 H 0.54756 0.95882 0.9413 0.0
H354 H 0.53297 0.81871 0.93543 0.0
O355 O 0.56809 0.95859 0.90496 0.0
O356 O 0.50369 0.93024 0.89586 0.0
O357 O 0.53789 0.82898 0.89794 0.0
C358 C 0.5274 0.96621 0.89973 0.0
H359 H 0.55056 0.88835 0.82654 0.0
H360 H 0.53614 0.92399 0.97739 0.0
H361 H 0.65495 0.80511 0.94642 0.0
H362 H 0.69722 0.94056 0.93234 0.0
Co363 Co 0.52038 0.55113 0.40338 0.0
C364 C 0.50847 0.54881 0.35882 0.0
C365 C 0.53075 0.48523 0.37062 0.0
C366 C 0.52806 0.48207 0.34998 0.0
N367 N 0.51894 0.52717 0.37616 0.0
N368 N 0.51428 0.52211 0.34249 0.0
H369 H 0.49864 0.58389 0.35818 0.0
H370 H 0.54139 0.45902 0.38087 0.0
C371 C 0.6134 0.53641 0.4175 0.0
O372 O 0.6092 0.57777 0.4243 0.0
N373 N 0.51975 0.57304 0.43137 0.0
C374 C 0.49675 0.60805 0.43925 0.0
C375 C 0.50326 0.60926 0.45978 0.0
C376 C 0.53695 0.55164 0.44771 0.0
N377 N 0.52913 0.57399 0.4651 0.0
C378 C 0.5479 0.64478 0.39839 0.0
C379 C 0.62305 0.62359 0.37601 0.0
C380 C 0.61826 0.66723 0.38351 0.0
C381 C 0.57901 0.67849 0.39394 0.0
C382 C 0.59172 0.59114 0.381 0.0
N383 N 0.55639 0.60107 0.39334 0.0
H384 H 0.51796 0.65378 0.40634 0.0
H385 H 0.59785 0.55703 0.37607 0.0
H386 H 0.47523 0.63054 0.43093 0.0
H387 H 0.5546 0.51987 0.44695 0.0
O388 O 0.46181 0.57663 0.39902 0.0
O389 O 0.47366 0.5084 0.4113 0.0
O390 O 0.57953 0.51715 0.40905 0.0
C391 C 0.44496 0.53937 0.40582 0.0
H392 H 0.53582 0.45242 0.34118 0.0
H393 H 0.49013 0.63447 0.46994 0.0
H394 H 0.652 0.61393 0.36719 0.0
H395 H 0.57345 0.71233 0.3995 0.0
Co396 Co 0.99304 0.90227 0.14056 0.0
C397 C 1.00477 0.92988 0.18464 0.0
C398 C 0.06499 0.90834 0.17017 0.0
C399 C 0.07449 0.91815 0.18994 0.0
N400 N 0.02098 0.91458 0.16677 0.0
N401 N 0.03653 0.93158 0.1991 0.0
H402 H 0.97079 0.9395 0.18749 0.0
H403 H 0.08859 0.89653 0.15901 0.0
C404 C 0.02595 0.81099 0.15308 0.0
O405 O 0.01573 0.82263 0.17158 0.0
N406 N 0.96824 0.88937 0.11415 0.0
C407 C 0.92905 0.90305 0.10631 0.0
C408 C 0.92427 0.884 0.08744 0.0
C409 C 0.98664 0.86227 0.09997 0.0
N410 N 0.96042 0.85808 0.08354 0.0
C411 C 0.91447 0.90254 0.16457 0.0
C412 C 0.89569 0.81193 0.1627 0.0
C413 C 0.87372 0.83867 0.1771 0.0
C414 C 0.88236 0.8849 0.17733 0.0
C415 C 0.92844 0.8313 0.15039 0.0
N416 N 0.94081 0.87511 0.15316 0.0
H417 H 0.91943 0.93845 0.16476 0.0
H418 H 0.94428 0.8109 0.13899 0.0
H419 H 0.90526 0.92464 0.1139 0.0
H420 H 0.01875 0.84595 0.10159 0.0
O421 O 0.96958 0.96229 0.13975 0.0
O422 O 0.0362 0.94493 0.12817 0.0
O423 O 0.02457 0.84099 0.13915 0.0
C424 C 1.00615 0.97616 0.13168 0.0
H425 H 0.10696 0.91572 0.19698 0.0
H426 H 0.89575 0.88791 0.07763 0.0
H427 H 0.88759 0.77663 0.16087 0.0
H428 H 0.86535 0.90751 0.18757 0.0
Co429 Co 0.84109 0.95432 0.66693 0.0
C430 C 0.81295 0.94576 0.70937 0.0
C431 C 0.86664 0.99313 0.70658 0.0
C432 C 0.85245 0.99213 0.72643 0.0
N433 N 0.84175 0.964 0.69589 0.0
N434 N 0.81833 0.9626 0.7281 0.0
H435 H 0.78775 0.92124 0.70546 0.0
H436 H 0.89215 1.01485 0.70035 0.0
C437 C 0.93719 0.96719 0.65237 0.0
O438 O 0.92887 0.93391 0.63995 0.0
N439 N 0.83793 0.94415 0.63773 0.0
C440 C 0.81455 0.91111 0.62861 0.0
C441 C 0.81985 0.9145 0.60813 0.0
C442 C 0.85543 0.96859 0.62228 0.0
N443 N 0.8461 0.95018 0.60412 0.0
C444 C 0.83753 0.85807 0.66901 0.0
C445 C 0.92892 0.84602 0.66698 0.0
C446 C 0.90062 0.81339 0.65878 0.0
C447 C 0.85465 0.81682 0.66277 0.0
C448 C 0.90973 0.88535 0.67486 0.0
N449 N 0.86544 0.89382 0.67153 0.0
H450 H 0.80178 0.86241 0.66916 0.0
H451 H 0.9313 0.9109 0.68101 0.0
H452 H 0.79451 0.88605 0.63615 0.0
H453 H 0.87571 0.99841 0.62425 0.0
O454 O 0.77812 0.93921 0.6688 0.0
O455 O 0.80229 1.00796 0.66337 0.0
O456 O 0.9055 0.98119 0.66416 0.0
C457 C 0.76812 0.98099 0.66578 0.0
H458 H 0.86484 1.01317 0.73845 0.0
H459 H 0.80666 0.89146 0.59703 0.0
H460 H 0.96483 0.8436 0.66526 0.0
H461 H 0.83148 0.79142 0.65751 0.0
Co462 Co 0.52541 0.62671 0.13973 0.0
C463 C 0.50676 0.59958 0.18199 0.0
C464 C 0.44838 0.62668 0.16767 0.0
C465 C 0.43846 0.61784 0.18758 0.0
N466 N 0.49132 0.61562 0.16422 0.0
N467 N 0.47527 0.60104 0.19666 0.0
H468 H 0.54107 0.58934 0.18434 0.0
H469 H 0.42621 0.64139 0.15664 0.0
C470 C 0.5126 0.72174 0.1289 0.0
O471 O 0.55637 0.72073 0.1273 0.0
N472 N 0.55758 0.63684 0.11425 0.0
C473 C 0.60093 0.63182 0.10901 0.0
C474 C 0.6068 0.64709 0.08951 0.0
C475 C 0.53771 0.65298 0.09736 0.0
N476 N 0.56706 0.66114 0.08227 0.0
C477 C 0.60934 0.64209 0.15899 0.0
C478 C 0.57792 0.70728 0.18511 0.0
C479 C 0.62158 0.69116 0.18748 0.0
C480 C 0.6372 0.65825 0.17403 0.0
C481 C 0.55166 0.69118 0.16948 0.0
N482 N 0.56759 0.65939 0.15637 0.0
H483 H 0.62064 0.6137 0.15034 0.0
H484 H 0.5173 0.70222 0.1688 0.0
H485 H 0.62709 0.61869 0.1184 0.0
H486 H 0.50235 0.6603 0.09647 0.0
O487 O 0.5527 0.56885 0.14268 0.0
O488 O 0.49039 0.5803 0.12573 0.0
O489 O 0.49131 0.68577 0.13423 0.0
C490 C 0.52071 0.55189 0.13219 0.0
H491 H 0.4066 0.62389 0.19483 0.0
H492 H 0.6384 0.64937 0.08162 0.0
H493 H 0.5636 0.73154 0.19541 0.0
H494 H 0.67073 0.64472 0.17497 0.0
Co495 Co 0.69902 0.57523 0.66 0.0
C496 C 0.7319 0.59906 0.70164 0.0
C497 C 0.67302 0.55853 0.7024 0.0
C498 C 0.68829 0.56359 0.72175 0.0
N499 N 0.69925 0.582 0.68957 0.0
N500 N 0.72555 0.58898 0.7214 0.0
H501 H 0.76116 0.61635 0.69605 0.0
H502 H 0.64645 0.53605 0.69805 0.0
C503 C 0.6008 0.57681 0.66871 0.0
O504 O 0.61044 0.6139 0.67853 0.0
N505 N 0.70046 0.56596 0.63066 0.0
C506 C 0.73496 0.57662 0.61842 0.0
C507 C 0.72293 0.56936 0.59879 0.0
C508 C 0.66764 0.55213 0.61795 0.0
N509 N 0.68047 0.55447 0.59838 0.0
C510 C 0.70669 0.67059 0.66214 0.0
C511 C 0.66208 0.68187 0.62614 0.0
C512 C 0.69706 0.71102 0.63098 0.0
C513 C 0.71557 0.7083 0.65029 0.0
C514 C 0.65228 0.64611 0.63915 0.0
N515 N 0.67951 0.63728 0.65521 0.0
H516 H 0.72742 0.66517 0.67506 0.0
H517 H 0.62806 0.62162 0.6343 0.0
H518 H 0.76641 0.59087 0.62313 0.0
H519 H 0.63448 0.54242 0.62278 0.0
O520 O 0.76218 0.588 0.65961 0.0
O521 O 0.73546 0.51962 0.66339 0.0
O522 O 0.6331 0.55376 0.66083 0.0
C523 C 0.77068 0.54567 0.66183 0.0
H524 H 0.67472 0.54693 0.7349 0.0
H525 H 0.7431 0.57715 0.5857 0.0
H526 H 0.64641 0.68331 0.61149 0.0
H527 H 0.74252 0.73051 0.65471 0.0
H528 H 0.02764 0.14976 1.00437 0.0
H529 H 0.10923 0.39167 0.0426 0.0
H530 H 0.07173 0.25451 0.96396 0.0
H531 H 0.02605 0.30425 0.07845 0.0
H532 H 0.10088 0.33966 1.01412 0.0
H533 H 0.03106 0.20374 0.03226 0.0
C534 C 0.03777 0.18409 1.00131 0.0
C535 C 0.04926 0.19739 0.98168 0.0
C536 C 0.08417 0.33207 1.02818 0.0
C537 C 0.05396 0.25941 1.01367 0.0
C538 C 0.08908 0.36168 0.04445 0.0
C539 C 0.06798 0.35267 0.06291 0.0
C540 C 0.05861 0.29259 0.03044 0.0
C541 C 0.04226 0.31312 0.06444 0.0
C542 C 0.03967 0.21496 1.01724 0.0
C543 C 0.06205 0.24259 0.97869 0.0
N544 N 0.03859 0.2845 0.04853 0.0
N545 N 0.06448 0.27169 0.99448 0.0
H546 H 0.39828 0.04718 0.47441 0.0
H547 H 0.43361 0.05365 0.59399 0.0
H548 H 0.5224 0.08827 0.5014 0.0
H549 H 0.30528 0.07246 0.5661 0.0
H550 H 0.46822 0.04935 0.56037 0.0
H551 H 0.36538 0.03958 0.50811 0.0
C552 C 0.41882 0.05394 0.48743 0.0
C553 C 0.46318 0.06849 0.48504 0.0
C554 C 0.43241 0.05385 0.56163 0.0
C555 C 0.42572 0.05967 0.52374 0.0
C556 C 0.41264 0.05582 0.58079 0.0
C557 C 0.36648 0.06321 0.58281 0.0
C558 C 0.40572 0.05847 0.54436 0.0
C559 C 0.34095 0.06673 0.56518 0.0
C560 C 0.39993 0.04991 0.50666 0.0
C561 C 0.48802 0.07735 0.50252 0.0
N562 N 0.36081 0.06424 0.54675 0.0
N563 N 0.46904 0.0727 0.52109 0.0
H564 H 0.49982 0.21742 0.07413 0.0
H565 H 0.41888 0.28112 0.9628 0.0
H566 H 0.37597 0.16745 0.04985 0.0
H567 H 0.50563 0.36565 0.99785 0.0
H568 H 0.41058 0.23045 0.99198 0.0
H569 H 0.51052 0.26258 0.04378 0.0
C570 C 0.475 0.21542 0.06238 0.0
C571 C 0.43665 0.18853 0.06481 0.0
C572 C 0.43167 0.25992 0.99322 0.0
C573 C 0.44912 0.24052 0.02961 0.0
C574 C 0.4367 0.28864 0.97653 0.0
C575 C 0.46318 0.32761 0.97786 0.0
C576 C 0.45403 0.26967 1.01129 0.0
C577 C 0.48488 0.33607 0.99617 0.0
C578 C 0.48107 0.2416 0.04504 0.0
C579 C 0.40574 0.18794 0.04886 0.0
N580 N 0.48007 0.30733 1.01205 0.0
N581 N 0.41269 0.21336 0.03198 0.0
H582 H 0.99633 0.42983 0.50029 0.0
H583 H 0.21305 0.51399 0.5595 0.0
H584 H 0.10464 0.50288 0.47246 0.0
H585 H 0.09698 0.46127 0.58984 0.0
H586 H 0.17248 0.51182 0.52767 0.0
H587 H 0.03108 0.44185 0.53319 0.0
C588 C 0.02727 0.44855 0.50106 0.0
C589 C 0.04748 0.4653 0.48345 0.0
C590 C 0.15555 0.50113 0.54127 0.0
C591 C 0.0876 0.47918 0.52122 0.0
C592 C 0.17877 0.50237 0.55946 0.0
C593 C 0.15842 0.4878 0.57736 0.0
C594 C 0.1116 0.48455 0.54078 0.0
C595 C 0.1138 0.47324 0.57644 0.0
C596 C 0.04701 0.4556 0.5199 0.0
C597 C 0.08742 0.48974 0.48553 0.0
N598 N 0.09206 0.47149 0.55843 0.0
N599 N 0.10622 0.49558 0.50396 0.0
H600 H 1.00552 0.77834 0.08173 0.0
H601 H 0.97637 0.75005 0.96245 0.0
H602 H 0.93312 0.87331 0.04507 0.0
H603 H 1.01045 0.63924 1.00151 0.0
H604 H 0.97036 0.79927 0.99183 0.0
H605 H 0.01705 0.73077 0.05203 0.0
C606 C 0.99238 0.78945 0.06742 0.0
C607 C 0.96831 0.83007 0.06598 0.0
C608 C 0.97951 0.76427 0.99399 0.0
C609 C 0.98151 0.77553 0.03173 0.0
C610 C 0.98338 0.73614 0.97714 0.0
C611 C 0.99408 0.69021 0.97939 0.0
C612 C 0.98704 0.74679 1.01335 0.0
C613 C 1.002 0.67426 0.999 0.0
C614 C 0.99873 0.76207 0.05046 0.0
C615 C 0.95153 0.84221 0.04698 0.0
N616 N 0.99844 0.70241 1.01515 0.0
N617 N 0.95861 0.81527 0.03066 0.0
H618 H 0.02383 0.93673 0.50293 0.0
H619 H 0.80279 0.95315 0.56857 0.0
H620 H 0.89878 0.98048 0.47752 0.0
H621 H 0.93281 0.9685 0.59515 0.0
H622 H 0.83674 0.95961 0.53503 0.0
H623 H 0.99138 0.9441 0.53674 0.0
C624 C 0.98963 0.94815 0.50448 0.0
C625 C 0.96401 0.95801 0.48734 0.0
C626 C 0.85784 0.96224 0.54817 0.0
C627 C 0.92636 0.96591 0.52604 0.0
C628 C 0.83845 0.95861 0.56729 0.0
C629 C 0.86497 0.96072 0.58464 0.0
C630 C 0.9044 0.96678 0.54628 0.0
C631 C 0.91113 0.96739 0.58217 0.0
C632 C 0.97118 0.95255 0.52378 0.0
C633 C 0.91986 0.97291 0.49028 0.0
N634 N 0.92947 0.96949 0.56336 0.0
N635 N 0.90229 0.9758 0.50919 0.0
H636 H 0.49059 0.86887 0.99801 0.0
H637 H 0.61518 0.65751 0.04733 0.0
H638 H 0.574 0.77965 0.96326 0.0
H639 H 0.50047 0.7216 0.07441 0.0
H640 H 0.60397 0.70357 1.01707 0.0
H641 H 0.49697 0.81749 1.02678 0.0
C642 C 0.51003 0.83828 0.99641 0.0
C643 C 0.53155 0.82851 0.97814 0.0
C644 C 0.58111 0.70731 0.02961 0.0
C645 C 0.53968 0.76956 1.01122 0.0
C646 C 0.58761 0.68113 0.04697 0.0
C647 C 0.55893 0.68559 0.06366 0.0
C648 C 0.54606 0.7389 1.02893 0.0
C649 C 0.52344 0.71659 0.06205 0.0
C650 C 0.5136 0.80886 1.01283 0.0
C651 C 0.55635 0.78826 0.97694 0.0
N652 N 0.51835 0.74223 0.04517 0.0
N653 N 0.5601 0.76056 0.99328 0.0
H654 H 0.60558 0.52811 0.47383 0.0
H655 H 0.59242 0.5751 0.59284 0.0
H656 H 0.49582 0.59883 0.50178 0.0
H657 H 0.70859 0.5228 0.56238 0.0
H658 H 0.55208 0.57525 0.56061 0.0
H659 H 0.63919 0.51731 0.50691 0.0
C660 C 0.58813 0.54088 0.48691 0.0
C661 C 0.54765 0.56453 0.48484 0.0
C662 C 0.58627 0.56333 0.56103 0.0
C663 C 0.58659 0.55265 0.52308 0.0
C664 C 0.60915 0.56286 0.57947 0.0
C665 C 0.65404 0.54903 0.58032 0.0
C666 C 0.6083 0.54954 0.54332 0.0
C667 C 0.67422 0.53414 0.56241 0.0
C668 C 0.6076 0.53497 0.50586 0.0
C669 C 0.52723 0.58086 0.50251 0.0
N670 N 0.65138 0.53492 0.54474 0.0
N671 N 0.5469 0.57472 0.5208 0.0
H672 H 0.09822 0.25036 0.10905 0.0
H673 H 0.94348 0.04087 0.13761 0.0
H674 H 0.97429 0.26404 0.14182 0.0
H675 H 0.08058 0.02536 0.11849 0.0
H676 H 0.95102 0.12206 0.13528 0.0
H677 H 0.08837 0.16907 0.10846 0.0
C678 C 0.06864 0.23639 0.11609 0.0
C679 C 0.03718 0.26452 0.12572 0.0
C680 C 0.97949 0.10111 0.13151 0.0
C681 C 0.02579 0.17026 0.12493 0.0
C682 C 0.97534 0.0544 0.13276 0.0
C683 C 1.01162 0.02568 0.1283 0.0
C684 C 0.0202 0.12011 0.12559 0.0
C685 C 0.05172 0.04588 0.12206 0.0
C686 C 0.06322 0.18968 0.11574 0.0
C687 C 0.99941 0.24396 0.13424 0.0
N688 N 0.05494 0.09185 0.12091 0.0
N689 N 0.99487 0.1981 0.13371 0.0
H690 H 0.47518 0.98907 0.67635 0.0
H691 H 0.72961 0.05765 0.64896 0.0
H692 H 0.51093 0.08742 0.63124 0.0
H693 H 0.69607 0.93543 0.68065 0.0
H694 H 0.64923 0.07441 0.6458 0.0
H695 H 0.55548 0.97293 0.68114 0.0
C696 C 0.4996 1.00706 0.66738 0.0
C697 C 0.48565 0.03953 0.65328 0.0
C698 C 0.6595 0.04399 0.65353 0.0
C699 C 0.578 0.02196 0.65902 0.0
C700 C 0.7055 0.03461 0.65544 0.0
C701 C 0.71991 0.99499 0.66501 0.0
C702 C 0.62744 1.0139 0.66148 0.0
C703 C 0.68674 0.96627 0.67301 0.0
C704 C 0.54554 0.99797 0.67016 0.0
C705 C 0.51941 0.06197 0.64226 0.0
N706 N 0.6424 0.97624 0.6711 0.0
N707 N 0.5635 0.053 0.64543 0.0
H708 H 0.46693 0.50102 0.10692 0.0
H709 H 0.55422 0.26539 0.14993 0.0
H710 H 0.5743 0.48973 0.14984 0.0
H711 H 0.47164 0.27734 0.09726 0.0
H712 H 0.56654 0.34733 0.1489 0.0
H713 H 0.46943 0.41864 0.10254 0.0
C714 C 0.49094 0.48136 0.11537 0.0
C715 C 0.52026 0.50241 0.12877 0.0
C716 C 0.54674 0.3318 0.13722 0.0
C717 C 0.52352 0.4084 0.1239 0.0
C718 C 0.54047 0.2849 0.13763 0.0
C719 C 0.5124 0.26455 0.12352 0.0
C720 C 0.52421 0.35823 0.12277 0.0
C721 C 0.49403 0.2917 0.10827 0.0
C722 C 0.49263 0.4344 0.11281 0.0
C723 C 0.55094 0.47515 0.1393 0.0
N724 N 0.49957 0.33708 0.10849 0.0
N725 N 0.55154 0.42978 0.13675 0.0
H726 H 0.06235 0.54247 0.65025 0.0
H727 H 0.80771 0.46092 0.67022 0.0
H728 H 0.02778 0.41272 0.67512 0.0
H729 H 0.84388 0.59621 0.65292 0.0
H730 H 0.88781 0.4407 0.67006 0.0
H731 H 0.98209 0.56126 0.64896 0.0
C732 C 0.03812 0.51792 0.65539 0.0
C733 C 0.05237 0.47605 0.66292 0.0
C734 C 0.87808 0.47482 0.66628 0.0
C735 C 0.95998 0.49719 0.66141 0.0
C736 C 0.83224 0.48629 0.66635 0.0
C737 C 0.8186 0.53038 0.66168 0.0
C738 C 0.91064 0.50754 0.66135 0.0
C739 C 0.85236 0.5618 0.65676 0.0
C740 C 0.99218 0.52864 0.65469 0.0
C741 C 0.01892 0.44562 0.66931 0.0
N742 N 0.89634 0.54984 0.65672 0.0
N743 N 0.97475 0.45671 0.66841 0.0
H744 H 0.94889 0.4963 0.88598 0.0
H745 H 0.1314 0.31833 0.92271 0.0
H746 H 0.08124 0.53528 0.90436 0.0
H747 H 1.01308 0.27832 0.89053 0.0
H748 H 0.11333 0.39712 0.91626 0.0
H749 H 0.97139 0.41716 0.88738 0.0
C750 C 0.98298 0.48828 0.89012 0.0
C751 C 1.0132 0.52285 0.89505 0.0
C752 C 0.09135 0.3713 0.91046 0.0
C753 C 0.03911 0.43124 0.89704 0.0
C754 C 0.1015 0.326 0.91421 0.0
C755 C 0.07356 0.29113 0.90729 0.0
C756 C 0.05244 0.38266 0.89989 0.0
C757 C 0.03564 0.30375 0.89618 0.0
C758 C 0.99577 0.44286 0.8909 0.0
C759 C 0.05686 0.51002 0.90028 0.0
N760 N 0.02597 0.34838 0.89303 0.0
N761 N 0.06829 0.46536 0.90137 0.0
H762 H 0.12971 0.93728 0.3897 0.0
H763 H 0.33305 0.0586 0.4454 0.0
H764 H 0.11371 0.04921 0.43034 0.0
H765 H 0.35328 0.98161 0.39122 0.0
H766 H 0.25313 0.04431 0.44339 0.0
H767 H 0.21107 0.9441 0.3927 0.0
C768 C 0.14326 0.96335 0.39928 0.0
C769 C 0.11462 0.99281 0.40979 0.0
C770 C 0.2749 0.03006 0.43202 0.0
C771 C 0.20814 1.00023 0.41349 0.0
C772 C 0.32076 0.03783 0.43323 0.0
C773 C 0.35017 0.02133 0.41843 0.0
C774 C 0.25763 1.00529 0.4159 0.0
C775 C 0.33203 0.99459 0.40308 0.0
C776 C 0.18979 0.96717 0.40094 0.0
C777 C 0.13431 0.0259 0.4219 0.0
N778 N 0.28684 0.98764 0.40212 0.0
N779 N 0.1797 0.0285 0.42351 0.0
H780 H 0.41453 0.22785 0.86579 0.0
H781 H 0.56319 0.03748 0.9192 0.0
H782 H 0.51354 0.25609 0.91103 0.0
H783 H 0.45632 1.00511 0.8784 0.0
H784 H 0.5448 0.11699 0.91617 0.0
H785 H 0.42949 0.1473 0.8696 0.0
C786 C 0.43967 0.2173 0.87649 0.0
C787 C 0.46289 0.24941 0.88807 0.0
C788 C 0.52505 0.09276 0.90791 0.0
C789 C 0.48005 0.15604 0.89256 0.0
C790 C 0.53549 0.04701 0.90963 0.0
C791 C 0.51136 1.01408 0.899 0.0
C792 C 0.49021 0.10665 0.89528 0.0
C793 C 0.47573 0.02903 0.88697 0.0
C794 C 0.44802 0.17101 0.87869 0.0
C795 C 0.4949 0.23302 0.90168 0.0
N796 N 0.46647 0.07419 0.88532 0.0
N797 N 0.50248 0.18773 0.90351 0.0
H798 H 0.39673 0.47772 0.42811 0.0
H799 H 0.1549 0.55185 0.38865 0.0
H800 H 0.38028 0.58955 0.38731 0.0
H801 H 0.17691 0.48076 0.44434 0.0
H802 H 0.23636 0.56428 0.38596 0.0
H803 H 0.31511 0.4734 0.43163 0.0
C804 C 0.37601 0.50114 0.4198 0.0
C805 C 0.39551 0.53406 0.40745 0.0
C806 C 0.22311 0.5466 0.39891 0.0
C807 C 0.30183 0.52939 0.41135 0.0
C808 C 0.17658 0.54011 0.40058 0.0
C809 C 0.15895 0.5154 0.41678 0.0
C810 C 0.25202 0.52766 0.41338 0.0
C811 C 0.18892 0.4999 0.43154 0.0
C812 C 0.32938 0.49893 0.4219 0.0
C813 C 0.36677 0.56371 0.39709 0.0
N814 N 0.2337 0.50571 0.42936 0.0
N815 N 0.32153 0.56056 0.39918 0.0
H816 H 0.04527 0.77853 0.88777 0.0
H817 H 0.96795 0.03683 0.90612 0.0
H818 H 0.92515 0.81677 0.91946 0.0
H819 H 0.10078 0.99888 0.88749 0.0
H820 H 0.94664 0.95649 0.90567 0.0
H821 H 0.06163 0.85924 0.88236 0.0
C822 C 0.0222 0.80367 0.89343 0.0
C823 C 0.98411 0.79052 0.90431 0.0
C824 C 0.98033 0.96587 0.90145 0.0
C825 C 1.00226 0.88307 0.89803 0.0
C826 C 0.99231 1.01183 0.90154 0.0
C827 C 0.03624 0.02475 0.89691 0.0
C828 C 1.01234 0.93261 0.89647 0.0
C829 C 0.06658 0.99056 0.89132 0.0
C830 C 0.03155 0.8498 0.8904 0.0
C831 C 0.95536 0.82496 0.91124 0.0
N832 N 0.05421 0.94639 0.89132 0.0
N833 N 0.965 0.86923 0.90803 0.0
H834 H 0.85634 0.04973 0.39219 0.0
H835 H 0.61109 0.97591 0.42821 0.0
H836 H 0.82995 0.97283 0.44597 0.0
H837 H 0.63146 0.08915 0.38853 0.0
H838 H 0.69238 0.96991 0.43238 0.0
H839 H 0.77516 0.06315 0.38878 0.0
C840 C 0.83374 0.03679 0.40356 0.0
C841 C 0.8501 1.01024 0.41942 0.0
C842 C 0.67906 0.99611 0.42275 0.0
C843 C 0.75733 0.0238 0.4152 0.0
C844 C 0.63261 0.9993 0.42027 0.0
C845 C 0.61428 0.03309 0.40804 0.0
C846 C 0.70766 0.02652 0.41273 0.0
C847 C 0.64403 0.06264 0.39819 0.0
C848 C 0.78737 0.0439 0.40148 0.0
C849 C 0.81898 0.99337 0.43344 0.0
N850 N 0.68909 0.05858 0.40066 0.0
N851 N 0.77441 0.99992 0.43088 0.0
H852 H 0.55889 0.50202 0.88171 0.0
H853 H 0.4905 0.75823 0.90999 0.0
H854 H 0.44302 0.53882 0.9167 0.0
H855 H 0.59915 0.72559 0.8698 0.0
H856 H 0.47511 0.67741 0.91377 0.0
H857 H 0.57787 0.58288 0.87875 0.0
C858 C 0.53782 0.52685 0.88897 0.0
C859 C 0.49923 0.5133 0.89942 0.0
C860 C 0.50229 0.68791 0.90406 0.0
C861 C 0.52041 0.60602 0.89599 0.0
C862 C 0.51095 0.73426 0.90184 0.0
C863 C 0.54605 0.74925 0.88947 0.0
C864 C 0.52897 0.65586 0.89394 0.0
C865 C 0.57159 0.71603 0.87947 0.0
C866 C 0.54842 0.57309 0.88717 0.0
C867 C 0.47297 0.54735 0.90836 0.0
N868 N 0.56265 0.67124 0.88194 0.0
N869 N 0.48392 0.59165 0.90643 0.0
H870 H 0.67659 0.55134 0.44555 0.0
H871 H 0.88093 0.43968 0.38595 0.0
H872 H 0.65637 0.48128 0.38961 0.0
H873 H 0.89543 0.54929 0.42786 0.0
H874 H 0.79947 0.44458 0.3897 0.0
H875 H 0.75675 0.53851 0.44259 0.0
C876 C 0.68896 0.53228 0.4328 0.0
C877 C 0.65948 0.51736 0.4178 0.0
C878 C 0.82045 0.46758 0.39805 0.0
C879 C 0.7522 0.5031 0.41417 0.0
C880 C 0.86702 0.46485 0.39595 0.0
C881 C 0.89526 0.49423 0.40659 0.0
C882 C 0.80171 0.49936 0.4112 0.0
C883 C 0.87514 0.52613 0.41928 0.0
C884 C 0.73492 0.5254 0.43104 0.0
C885 C 0.67768 0.4929 0.40165 0.0
N886 N 0.82976 0.5276 0.42133 0.0
N887 N 0.72295 0.48678 0.40018 0.0
H888 H 0.04404 0.76921 0.11657 0.0
H889 H 0.95402 0.52861 0.15498 0.0
H890 H 1.00115 0.74061 0.17725 0.0
H891 H 0.03901 0.541 0.10301 0.0
H892 H 0.95605 0.61072 0.15909 0.0
H893 H 0.03129 0.6895 0.10794 0.0
C894 C 0.03241 0.74628 0.12812 0.0
C895 C 0.02418 0.76195 0.14775 0.0
C896 C 0.97326 0.59569 0.14642 0.0
C897 C 1.00811 0.6709 0.13778 0.0
C898 C 0.9712 0.54886 0.14381 0.0
C899 C 0.99515 0.52801 0.12824 0.0
C900 C 0.99974 0.62209 0.13344 0.0
C901 C 0.01892 0.55586 0.11483 0.0
C902 C 0.02487 0.70082 0.12315 0.0
C903 C 1.0086 0.73044 0.16198 0.0
N904 N 0.02088 0.60135 0.11779 0.0
N905 N 1.00087 0.68685 0.1567 0.0
H906 H 1.00843 0.93525 0.63101 0.0
H907 H 0.19813 0.08629 0.6815 0.0
H908 H 0.97785 0.02884 0.67872 0.0
H909 H 0.22681 0.96628 0.6474 0.0
H910 H 0.11818 0.06954 0.67945 0.0
H911 H 0.0874 0.95077 0.6352 0.0
C912 C 0.01804 0.95941 0.64239 0.0
C913 C 0.98554 0.98069 0.65454 0.0
C914 C 0.14183 0.04666 0.67251 0.0
C915 C 0.07798 0.99883 0.65935 0.0
C916 C 0.1877 0.05616 0.67363 0.0
C917 C 0.21969 0.02768 0.66457 0.0
C918 C 0.12712 1.00863 0.66194 0.0
C919 C 0.20372 0.98915 0.6547 0.0
C920 C 0.06365 0.96803 0.6448 0.0
C921 C 1.00119 1.01163 0.66892 0.0
N922 N 0.15874 0.98107 0.65348 0.0
N923 N 0.04613 0.01985 0.67086 0.0
H924 H 0.53204 0.77822 0.09854 0.0
H925 H 0.41853 0.99178 0.15094 0.0
H926 H 0.44883 0.76714 0.15126 0.0
H927 H 0.52626 1.00041 0.10787 0.0
H928 H 0.41846 0.90996 0.14732 0.0
H929 H 0.51696 0.85883 0.09719 0.0
C930 C 0.50921 0.79261 0.10946 0.0
C931 C 0.49129 0.76584 0.12494 0.0
C932 C 0.44193 0.92969 0.13857 0.0
C933 C 0.4753 0.85893 0.12396 0.0
C934 C 0.44207 0.97654 0.14058 0.0
C935 C 0.47267 1.0032 0.12973 0.0
C936 C 0.47236 0.909 0.12546 0.0
C937 C 0.50225 0.98132 0.11659 0.0
C938 C 0.50119 0.83884 0.10885 0.0
C939 C 0.46271 0.78642 0.13891 0.0
N940 N 0.50138 0.93553 0.11484 0.0
N941 N 0.45605 0.83198 0.13826 0.0
H942 H 0.34378 0.44387 0.64975 0.0
H943 H 0.5283 0.6255 0.68125 0.0
H944 H 0.30937 0.57666 0.67106 0.0
H945 H 0.56111 0.50038 0.65174 0.0
H946 H 0.4492 0.60759 0.67847 0.0
H947 H 0.42256 0.46354 0.65112 0.0
C948 C 0.35263 0.47741 0.65474 0.0
C949 C 0.31922 0.50857 0.66037 0.0
C950 C 0.47351 0.58396 0.67256 0.0
C951 C 0.41111 0.53139 0.66204 0.0
C952 C 0.51909 0.59403 0.67419 0.0
C953 C 0.55219 0.56434 0.66681 0.0
C954 C 0.45997 0.54356 0.66357 0.0
C955 C 0.53727 0.52434 0.65773 0.0
C956 C 0.39802 0.48858 0.65546 0.0
C957 C 0.33355 0.55147 0.66654 0.0
N958 N 0.49247 0.51512 0.65646 0.0
N959 N 0.37829 0.56146 0.66732 0.0
H960 H 0.05301 0.55267 0.30949 0.0
H961 H 0.94957 0.38216 0.22869 0.0
H962 H 0.96751 0.44099 0.32521 0.0
H963 H 0.03775 0.49155 0.21277 0.0
H964 H 0.95529 0.40381 0.26391 0.0
H965 H 0.04717 0.53157 0.27415 0.0
C966 C 0.0327 0.52389 0.30559 0.0
C967 C 1.01057 0.49876 0.32056 0.0
C968 C 0.9734 0.42315 0.25274 0.0
C969 C 1.00418 0.47399 0.27978 0.0
C970 C 0.96994 0.41096 0.2325 0.0
C971 C 0.99297 0.43516 0.21751 0.0
C972 C 1.00008 0.45998 0.25826 0.0
C973 C 0.01959 0.47162 0.22368 0.0
C974 C 0.02965 0.51167 0.28532 0.0
C975 C 0.9855 0.46124 0.31436 0.0
N976 N 0.02229 0.48294 0.24351 0.0
N977 N 0.98295 0.45012 0.29452 0.0
H978 H 0.23733 0.09219 0.72775 0.0
H979 H 0.22263 0.10765 0.84808 0.0
H980 H 0.34606 0.04899 0.76563 0.0
H981 H 0.11055 0.1215 0.8079 0.0
H982 H 0.27022 0.08846 0.81896 0.0
H983 H 0.19277 0.10766 0.75761 0.0
C984 C 0.25211 0.08634 0.74235 0.0
C985 C 0.29579 0.06945 0.74407 0.0
C986 C 0.23514 0.09564 0.81661 0.0
C987 C 0.24422 0.08671 0.7787 0.0
C988 C 0.20792 0.10637 0.83324 0.0
C989 C 0.16252 0.11698 0.8305 0.0
C990 C 0.2168 0.09562 0.79713 0.0
C991 C 0.14544 0.11486 0.81084 0.0
C992 C 0.22638 0.09481 0.75949 0.0
C993 C 0.31251 0.06172 0.76355 0.0
N994 N 0.17248 0.10478 0.79504 0.0
N995 N 0.28682 0.07056 0.7801 0.0
H996 H 0.55048 0.08749 0.32612 0.0
H997 H 0.46566 0.04296 0.21325 0.0
H998 H 0.4521 0.98748 0.31059 0.0
H999 H 0.57727 0.12905 0.22723 0.0
H1000 H 0.45779 0.02533 0.24904 0.0
H1001 H 0.55829 0.10634 0.29033 0.0
C1002 C 0.5304 0.06958 0.31525 0.0
C1003 C 0.50074 0.0356 0.32153 0.0
C1004 C 0.48408 0.04804 0.24429 0.0
C1005 C 0.50956 0.05706 0.28035 0.0
C1006 C 0.48846 0.05832 0.2238 0.0
C1007 C 0.52226 0.08754 0.21703 0.0
C1008 C 0.51345 0.06731 0.25833 0.0
C1009 C 0.55107 0.10593 0.23157 0.0
C1010 C 0.53505 0.08021 0.29477 0.0
C1011 C 0.4759 1.01338 0.30659 0.0
N1012 N 0.54592 0.09566 0.25145 0.0
N1013 N 0.48079 0.02453 0.28683 0.0
H1014 H 0.33376 0.45232 0.8392 0.0
H1015 H 0.28667 0.38993 0.72346 0.0
H1016 H 0.41704 0.36271 0.80447 0.0
H1017 H 0.2159 0.49391 0.75599 0.0
H1018 H 0.33148 0.37546 0.75354 0.0
H1019 H 0.28583 0.46285 0.80964 0.0
C1020 C 0.34176 0.43457 0.82545 0.0
C1021 C 0.37982 0.40696 0.82434 0.0
C1022 C 0.306 0.40138 0.75405 0.0
C1023 C 0.32522 0.41899 0.79031 0.0
C1024 C 0.28043 0.40985 0.73678 0.0
C1025 C 0.24703 0.44327 0.73689 0.0
C1026 C 0.29819 0.4263 0.7717 0.0
C1027 C 0.24052 0.46741 0.75493 0.0
C1028 C 0.31458 0.4408 0.80851 0.0
C1029 C 0.38863 0.385 0.80599 0.0
N1030 N 0.26571 0.45845 0.77147 0.0
N1031 N 0.3617 0.39152 0.78977 0.0
H1032 H 0.83334 0.62626 0.84193 0.0
H1033 H 0.81548 0.60605 0.7213 0.0
H1034 H 0.94652 0.63054 0.80166 0.0
H1035 H 0.70196 0.593 0.76098 0.0
H1036 H 0.86334 0.61768 0.75064 0.0
H1037 H 0.78431 0.61475 0.81278 0.0
C1038 C 0.84802 0.62456 0.82707 0.0
C1039 C 0.89438 0.62989 0.82444 0.0
C1040 C 0.82793 0.61231 0.75295 0.0
C1041 C 0.83814 0.61714 0.7908 0.0
C1042 C 0.80042 0.60598 0.73611 0.0
C1043 C 0.75436 0.5983 0.7385 0.0
C1044 C 0.80949 0.61121 0.77246 0.0
C1045 C 0.73724 0.59811 0.75828 0.0
C1046 C 0.81992 0.61825 0.81036 0.0
C1047 C 0.91112 0.62763 0.80462 0.0
N1048 N 0.76465 0.6044 0.77439 0.0
N1049 N 0.8832 0.6216 0.78871 0.0
H1050 H 0.97413 0.98766 0.21562 0.0
H1051 H 0.05405 0.9439 0.32928 0.0
H1052 H 0.08568 0.90221 0.23098 0.0
H1053 H 0.95697 0.04482 0.31274 0.0
H1054 H 0.0634 0.92503 0.29364 0.0
H1055 H 0.96468 1.00591 0.25127 0.0
C1056 C 0.99657 0.97256 0.22645 0.0
C1057 C 0.03084 0.94333 0.22014 0.0
C1058 C 0.04011 0.95138 0.29781 0.0
C1059 C 0.02021 0.96427 0.26122 0.0
C1060 C 0.03457 0.96201 0.31821 0.0
C1061 C 1.00478 0.99618 0.32416 0.0
C1062 C 0.01538 0.97472 0.28313 0.0
C1063 C 0.98079 0.01872 0.30898 0.0
C1064 C 0.9913 0.98321 0.24684 0.0
C1065 C 0.05917 0.92532 0.235 0.0
N1066 N 0.9865 1.00753 0.28928 0.0
N1067 N 0.05313 0.93592 0.25476 0.0
H1068 H 0.58949 0.93203 0.80505 0.0
H1069 H 0.84143 0.96667 0.76779 0.0
H1070 H 0.70031 0.9124 0.84554 0.0
H1071 H 0.73012 0.94112 0.72845 0.0
H1072 H 0.79177 0.95501 0.79696 0.0
H1073 H 0.64159 0.94433 0.77768 0.0
C1074 C 0.6248 0.92989 0.80828 0.0
C1075 C 0.64012 0.92007 0.8278 0.0
C1076 C 0.77838 0.95179 0.78193 0.0
C1077 C 0.70088 0.93542 0.79599 0.0
C1078 C 0.80664 0.95862 0.76526 0.0
C1079 C 0.79011 0.95467 0.74554 0.0
C1080 C 0.733 0.94174 0.77889 0.0
C1081 C 0.7447 0.9439 0.74325 0.0
C1082 C 0.65473 0.93721 0.7925 0.0
C1083 C 0.68671 0.91969 0.83084 0.0
N1084 N 0.7179 0.93815 0.75963 0.0
N1085 N 0.71543 0.92713 0.81511 0.0
H1086 H 0.42769 0.63427 0.22842 0.0
H1087 H 0.55668 0.48438 0.31035 0.0
H1088 H 0.53527 0.54313 0.21366 0.0
H1089 H 0.46083 0.58719 0.32611 0.0
H1090 H 0.54721 0.50359 0.27493 0.0
H1091 H 0.43717 0.6156 0.26395 0.0
C1092 C 0.45314 0.61008 0.23256 0.0
C1093 C 0.48058 0.59016 0.21782 0.0
C1094 C 0.52821 0.52202 0.2861 0.0
C1095 C 0.49188 0.5688 0.25885 0.0
C1096 C 0.53338 0.51084 0.30642 0.0
C1097 C 0.50932 0.53395 0.32141 0.0
C1098 C 0.49853 0.55651 0.2805 0.0
C1099 C 0.48031 0.56859 0.3152 0.0
C1100 C 0.45874 0.59967 0.25296 0.0
C1101 C 0.51352 0.55966 0.22437 0.0
N1102 N 0.4756 0.57863 0.29527 0.0
N1103 N 0.5181 0.54985 0.24431 0.0
H1104 H 0.31547 0.1894 0.21107 0.0
H1105 H 0.2417 0.41506 0.18185 0.0
H1106 H 0.40578 0.29876 0.1972 0.0
H1107 H 0.15545 0.32899 0.21741 0.0
H1108 H 0.30501 0.38448 0.19891 0.0
H1109 H 0.26236 0.24411 0.22439 0.0
C1110 C 0.32462 0.22468 0.21116 0.0
C1111 C 0.36411 0.23954 0.20185 0.0
C1112 C 0.27221 0.37256 0.20329 0.0
C1113 C 0.30388 0.30217 0.21732 0.0
C1114 C 0.23534 0.39038 0.19346 0.0
C1115 C 0.19257 0.37241 0.19691 0.0
C1116 C 0.26672 0.33477 0.21577 0.0
C1117 C 0.18789 0.3412 0.21277 0.0
C1118 C 0.29453 0.25593 0.2191 0.0
C1119 C 0.37532 0.28536 0.20358 0.0
N1120 N 0.22468 0.3218 0.22098 0.0
N1121 N 0.34484 0.31513 0.21063 0.0
H1122 H 0.21933 0.23824 0.6245 0.0
H1123 H 0.42012 0.17627 0.62049 0.0
H1124 H 0.25143 0.37006 0.60168 0.0
H1125 H 0.41009 0.30035 0.6534 0.0
H1126 H 0.37166 0.20742 0.59464 0.0
H1127 H 0.29337 0.21223 0.61452 0.0
C1128 C 0.241 0.26094 0.61625 0.0
C1129 C 0.22978 0.3065 0.61426 0.0
C1130 C 0.38257 0.229 0.6068 0.0
C1131 C 0.31529 0.27796 0.60397 0.0
C1132 C 0.4109 0.21153 0.62153 0.0
C1133 C 0.41553 0.23462 0.63987 0.0
C1134 C 0.36185 0.27069 0.61023 0.0
C1135 C 0.40462 0.2805 0.63999 0.0
C1136 C 0.28348 0.24623 0.61056 0.0
C1137 C 0.25935 0.33479 0.60374 0.0
N1138 N 0.37621 0.29664 0.6258 0.0
N1139 N 0.30181 0.32083 0.60002 0.0
H1140 H 0.15754 0.22337 0.96497 0.0
H1141 H 0.23722 0.39792 0.94308 0.0
H1142 H 0.29692 0.21308 0.94939 0.0
H1143 H 0.35733 0.37184 0.9766 0.0
H1144 H 0.19481 0.35765 0.96854 0.0
H1145 H 0.17467 0.28664 0.98738 0.0
C1146 C 0.192 0.23353 0.96692 0.0
C1147 C 0.2259 0.21475 0.95492 0.0
C1148 C 0.23028 0.36233 0.971 0.0
C1149 C 0.24548 0.28572 0.98041 0.0
C1150 C 0.25445 0.38542 0.95627 0.0
C1151 C 0.3011 0.38406 0.9569 0.0
C1152 C 0.25406 0.33378 0.98415 0.0
C1153 C 0.32144 0.36968 0.9748 0.0
C1154 C 0.2017 0.26908 0.97985 0.0
C1155 C 0.26993 0.22787 0.95803 0.0
N1156 N 0.29769 0.34373 0.98779 0.0
N1157 N 0.27842 0.2632 0.97031 0.0
H1158 H 0.21124 0.39843 0.38876 0.0
H1159 H 0.39722 0.26133 0.37477 0.0
H1160 H 0.13365 0.28002 0.37487 0.0
H1161 H 0.30582 0.15314 0.38866 0.0
H1162 H 0.33375 0.31315 0.37283 0.0
H1163 H 0.27889 0.35346 0.38764 0.0
C1164 C 0.20858 0.36301 0.38502 0.0
C1165 C 0.16681 0.34301 0.38152 0.0
C1166 C 0.32762 0.27821 0.37656 0.0
C1167 C 0.24448 0.29122 0.38007 0.0
C1168 C 0.36385 0.24865 0.37755 0.0
C1169 C 0.35671 0.20299 0.38182 0.0
C1170 C 0.28419 0.26187 0.38014 0.0
C1171 C 0.31276 0.18801 0.38501 0.0
C1172 C 0.24738 0.33736 0.38429 0.0
C1173 C 0.16519 0.29671 0.37759 0.0
N1174 N 0.27819 0.21738 0.38409 0.0
N1175 N 0.2036 0.27229 0.37702 0.0
H1176 H 0.89046 0.76401 0.94991 0.0
H1177 H 0.76185 0.91115 0.94727 0.0
H1178 H 0.76373 0.69565 0.95141 0.0
H1179 H 0.66168 0.83696 0.98013 0.0
H1180 H 0.81874 0.87642 0.96758 0.0
H1181 H 0.8638 0.81621 0.97556 0.0
C1182 C 0.85687 0.76017 0.95564 0.0
C1183 C 0.82787 0.72783 0.94759 0.0
C1184 C 0.78428 0.86824 0.97093 0.0
C1185 C 0.79692 0.78785 0.9764 0.0
C1186 C 0.75149 0.88843 0.95914 0.0
C1187 C 0.70745 0.87282 0.9605 0.0
C1188 C 0.77274 0.82939 0.98201 0.0
C1189 C 0.69613 0.84594 0.97715 0.0
C1190 C 0.84193 0.78953 0.97049 0.0
C1191 C 0.78601 0.722 0.95646 0.0
N1192 N 0.72898 0.82347 0.98699 0.0
N1193 N 0.77121 0.75271 0.97003 0.0
H1194 H 0.61641 0.75768 0.37466 0.0
H1195 H 0.80109 0.89326 0.39151 0.0
H1196 H 0.70621 0.64849 0.38929 0.0
H1197 H 0.87987 0.7752 0.3778 0.0
H1198 H 0.73368 0.84834 0.38956 0.0
H1199 H 0.68024 0.80891 0.37353 0.0
C1200 C 0.64951 0.74465 0.37776 0.0
C1201 C 0.65608 0.69891 0.38206 0.0
C1202 C 0.76542 0.8323 0.38643 0.0
C1203 C 0.72899 0.75714 0.38133 0.0
C1204 C 0.80406 0.85791 0.38765 0.0
C1205 C 0.84607 0.83801 0.3844 0.0
C1206 C 0.7687 0.7863 0.38194 0.0
C1207 C 0.84811 0.79179 0.38031 0.0
C1208 C 0.68593 0.77388 0.37725 0.0
C1209 C 0.69973 0.68346 0.38564 0.0
N1210 N 0.80981 0.76739 0.37922 0.0
N1211 N 0.73451 0.71254 0.3852 0.0
H1212 H 0.87441 0.75594 0.19576 0.0
H1213 H 0.62144 0.77803 0.20208 0.0
H1214 H 0.79631 0.87801 0.19059 0.0
H1215 H 0.69202 0.65152 0.20788 0.0
H1216 H 0.68574 0.81661 0.21521 0.0
H1217 H 0.81269 0.72122 0.21426 0.0
C1218 C 0.8446 0.77562 0.19871 0.0
C1219 C 0.83997 0.81937 0.19094 0.0
C1220 C 0.68704 0.78023 0.21401 0.0
C1221 C 0.76983 0.78033 0.21239 0.0
C1222 C 0.64987 0.75787 0.20657 0.0
C1223 C 0.65239 0.7116 0.20233 0.0
C1224 C 0.72738 0.75649 0.21615 0.0
C1225 C 0.68994 0.68778 0.20928 0.0
C1226 C 0.8097 0.75606 0.20957 0.0
C1227 C 0.8015 0.84402 0.19599 0.0
N1228 N 0.72689 0.71071 0.21503 0.0
N1229 N 0.7677 0.82387 0.20607 0.0
H1230 H 0.91808 0.85017 0.62256 0.0
H1231 H 0.74076 0.66627 0.60169 0.0
H1232 H 0.90653 0.72153 0.65185 0.0
H1233 H 0.72112 0.79967 0.62539 0.0
H1234 H 0.81705 0.68639 0.59233 0.0
H1235 H 0.86923 0.82383 0.59593 0.0
C1236 C 0.90845 0.81499 0.6226 0.0
C1237 C 0.91285 0.78908 0.64022 0.0
C1238 C 0.79502 0.71217 0.59827 0.0
C1239 C 0.85897 0.75836 0.60953 0.0
C1240 C 0.75135 0.70081 0.60363 0.0
C1241 C 0.72541 0.73087 0.61507 0.0
C1242 C 0.81177 0.75432 0.60383 0.0
C1243 C 0.74054 0.77524 0.61702 0.0
C1244 C 0.88 0.80021 0.60739 0.0
C1245 C 0.90137 0.74346 0.63903 0.0
N1246 N 0.78337 0.78537 0.61196 0.0
N1247 N 0.87299 0.72988 0.62435 0.0
loop_
_geom_bond_atom_site_label_1
_geom_bond_atom_site_label_2
_geom_bond_distance
_geom_bond_site_symmetry_2
_ccdc_geom_bond_type
Co0 N4 2.148 . S
Co0 N10 2.128 . S
Co0 N20 2.194 . S
Co0 O25 2.351 . S
Co0 O26 2.155 1_455 S
Co0 O27 2.096 1_455 S
C1 N4 1.301 . S
C1 N5 1.328 . S
C1 H6 0.930 . S
C2 C3 1.333 1_655 S
C2 N4 1.317 1_655 S
C2 H7 0.930 . S
C3 C2 1.333 1_455 S
C3 N5 1.350 . S
C3 H29 0.931 1_455 S
N4 Co0 2.148 . S
N4 C1 1.301 . S
N4 C2 1.317 1_455 S
N5 C1 1.328 . S
N5 C3 1.350 . S
H6 C1 0.930 . S
H7 C2 0.930 . S
C8 O9 1.224 1_655 S
C8 O27 1.247 . S
O9 C8 1.224 1_455 S
N10 Co0 2.128 . S
N10 C11 1.355 . S
N10 C13 1.311 1_455 S
C11 N10 1.355 . S
C11 C12 1.363 . S
C11 H23 0.929 . S
C12 C11 1.363 . S
C12 N14 1.375 . S
C12 H30 0.931 . S
C13 N10 1.311 1_655 S
C13 N14 1.347 1_655 S
C13 H24 0.929 . S
N14 C12 1.375 . S
N14 C13 1.347 1_455 S
C15 C18 1.365 . S
C15 N20 1.328 . S
C15 H21 0.929 . S
C16 C17 1.362 . S
C16 C19 1.378 . S
C16 H31 0.929 . S
C17 C16 1.362 . S
C17 C18 1.366 . S
C18 C15 1.365 . S
C18 C17 1.366 . S
C18 H32 0.930 . S
C19 C16 1.378 . S
C19 N20 1.315 . S
C19 H22 0.930 . S
N20 Co0 2.194 . S
N20 C15 1.328 . S
N20 C19 1.315 . S
H21 C15 0.929 . S
H22 C19 0.930 . S
H23 C11 0.929 . S
H24 C13 0.929 . S
O25 Co0 2.351 . S
O25 C28 1.244 1_455 S
O26 Co0 2.155 1_655 S
O26 C28 1.240 . S
O27 Co0 2.096 1_655 S
O27 C8 1.247 . S
C28 O25 1.244 1_655 S
C28 O26 1.240 . S
H29 C3 0.931 1_655 S
H30 C12 0.931 . S
H31 C16 0.929 . S
H32 C18 0.930 . S
Co33 N37 2.148 . S
Co33 N43 2.128 . S
Co33 N53 2.194 . S
Co33 O58 2.351 . S
Co33 O59 2.155 1_545 S
Co33 O60 2.096 1_545 S
C34 N37 1.301 . S
C34 N38 1.328 . S
C34 H39 0.930 . S
C35 C36 1.333 1_565 S
C35 N37 1.317 1_565 S
C35 H40 0.930 . S
C36 C35 1.333 1_545 S
C36 N38 1.350 . S
C36 H62 0.931 1_545 S
N37 Co33 2.148 . S
N37 C34 1.301 . S
N37 C35 1.317 1_545 S
N38 C34 1.328 . S
N38 C36 1.350 . S
H39 C34 0.930 . S
H40 C35 0.930 . S
C41 O42 1.224 1_565 S
C41 O60 1.247 . S
O42 C41 1.224 1_545 S
N43 Co33 2.128 . S
N43 C44 1.355 . S
N43 C46 1.311 1_545 S
C44 N43 1.355 . S
C44 C45 1.363 . S
C44 H56 0.929 . S
C45 C44 1.363 . S
C45 N47 1.375 . S
C45 H63 0.931 . S
C46 N43 1.311 1_565 S
C46 N47 1.347 1_565 S
C46 H57 0.929 . S
N47 C45 1.375 . S
N47 C46 1.347 1_545 S
C48 C51 1.365 . S
C48 N53 1.328 . S
C48 H54 0.929 . S
C49 C50 1.362 . S
C49 C52 1.378 . S
C49 H64 0.929 . S
C50 C49 1.362 . S
C50 C51 1.366 . S
C51 C48 1.365 . S
C51 C50 1.366 . S
C51 H65 0.930 . S
C52 C49 1.378 . S
C52 N53 1.315 . S
C52 H55 0.930 . S
N53 Co33 2.194 . S
N53 C48 1.328 . S
N53 C52 1.315 . S
H54 C48 0.929 . S
H55 C52 0.930 . S
H56 C44 0.929 . S
H57 C46 0.929 . S
O58 Co33 2.351 . S
O58 C61 1.244 1_545 S
O59 Co33 2.155 1_565 S
O59 C61 1.240 . S
O60 Co33 2.096 1_565 S
O60 C41 1.247 . S
C61 O58 1.244 1_565 S
C61 O59 1.240 . S
H62 C36 0.931 1_565 S
H63 C45 0.931 . S
H64 C49 0.929 . S
H65 C51 0.930 . S
Co66 N70 2.148 . S
Co66 N76 2.128 . S
Co66 N86 2.194 . S
Co66 O91 2.351 . S
Co66 O92 2.155 . S
Co66 O93 2.096 . S
C67 N70 1.301 . S
C67 N71 1.328 . S
C67 H72 0.930 . S
C68 C69 1.333 . S
C68 N70 1.317 . S
C68 H73 0.930 . S
C69 C68 1.333 . S
C69 N71 1.350 . S
C69 H95 0.931 . S
N70 Co66 2.148 . S
N70 C67 1.301 . S
N70 C68 1.317 . S
N71 C67 1.328 . S
N71 C69 1.350 . S
H72 C67 0.930 . S
H73 C68 0.930 . S
C74 O75 1.224 . S
C74 O93 1.247 . S
O75 C74 1.224 . S
N76 Co66 2.128 . S
N76 C77 1.355 . S
N76 C79 1.311 . S
C77 N76 1.355 . S
C77 C78 1.363 . S
C77 H89 0.929 . S
C78 C77 1.363 . S
C78 N80 1.375 . S
C78 H96 0.931 . S
C79 N76 1.311 . S
C79 N80 1.347 . S
C79 H90 0.929 . S
N80 C78 1.375 . S
N80 C79 1.347 . S
C81 C84 1.365 . S
C81 N86 1.328 . S
C81 H87 0.929 . S
C82 C83 1.362 . S
C82 C85 1.378 . S
C82 H97 0.929 . S
C83 C82 1.362 . S
C83 C84 1.366 . S
C84 C81 1.365 . S
C84 C83 1.366 . S
C84 H98 0.930 . S
C85 C82 1.378 . S
C85 N86 1.315 . S
C85 H88 0.930 . S
N86 Co66 2.194 . S
N86 C81 1.328 . S
N86 C85 1.315 . S
H87 C81 0.929 . S
H88 C85 0.930 . S
H89 C77 0.929 . S
H90 C79 0.929 . S
O91 Co66 2.351 . S
O91 C94 1.244 . S
O92 Co66 2.155 . S
O92 C94 1.240 . S
O93 Co66 2.096 . S
O93 C74 1.247 . S
C94 O91 1.244 . S
C94 O92 1.240 . S
H95 C69 0.931 . S
H96 C78 0.931 . S
H97 C82 0.929 . S
H98 C84 0.930 . S
Co99 N103 2.148 . S
Co99 N109 2.128 . S
Co99 N119 2.194 . S
Co99 O124 2.351 . S
Co99 O125 2.155 . S
Co99 O126 2.096 . S
C100 N103 1.301 . S
C100 N104 1.328 . S
C100 H105 0.930 . S
C101 C102 1.333 . S
C101 N103 1.317 . S
C101 H106 0.930 . S
C102 C101 1.333 . S
C102 N104 1.350 . S
C102 H128 0.931 . S
N103 Co99 2.148 . S
N103 C100 1.301 . S
N103 C101 1.317 . S
N104 C100 1.328 . S
N104 C102 1.350 . S
H105 C100 0.930 . S
H106 C101 0.930 . S
C107 O108 1.224 . S
C107 O126 1.247 . S
O108 C107 1.224 . S
N109 Co99 2.128 . S
N109 C110 1.355 . S
N109 C112 1.311 . S
C110 N109 1.355 . S
C110 C111 1.363 . S
C110 H122 0.929 . S
C111 C110 1.363 . S
C111 N113 1.375 . S
C111 H129 0.931 . S
C112 N109 1.311 . S
C112 N113 1.347 . S
C112 H123 0.929 . S
N113 C111 1.375 . S
N113 C112 1.347 . S
C114 C117 1.365 . S
C114 N119 1.328 . S
C114 H120 0.929 . S
C115 C116 1.362 . S
C115 C118 1.378 . S
C115 H130 0.929 . S
C116 C115 1.362 . S
C116 C117 1.366 . S
C117 C114 1.365 . S
C117 C116 1.366 . S
C117 H131 0.930 . S
C118 C115 1.378 . S
C118 N119 1.315 . S
C118 H121 0.930 . S
N119 Co99 2.194 . S
N119 C114 1.328 . S
N119 C118 1.315 . S
H120 C114 0.929 . S
H121 C118 0.930 . S
H122 C110 0.929 . S
H123 C112 0.929 . S
O124 Co99 2.351 . S
O124 C127 1.244 . S
O125 Co99 2.155 . S
O125 C127 1.240 . S
O126 Co99 2.096 . S
O126 C107 1.247 . S
C127 O124 1.244 . S
C127 O125 1.240 . S
H128 C102 0.931 . S
H129 C111 0.931 . S
H130 C115 0.929 . S
H131 C117 0.930 . S
Co132 N136 2.148 . S
Co132 N142 2.128 . S
Co132 N152 2.194 . S
Co132 O157 2.351 . S
Co132 O158 2.155 1_455 S
Co132 O159 2.096 1_455 S
C133 N136 1.301 . S
C133 N137 1.328 . S
C133 H138 0.930 . S
C134 C135 1.333 1_655 S
C134 N136 1.317 1_655 S
C134 H139 0.930 . S
C135 C134 1.333 1_455 S
C135 N137 1.350 . S
C135 H161 0.931 1_455 S
N136 Co132 2.148 . S
N136 C133 1.301 . S
N136 C134 1.317 1_455 S
N137 C133 1.328 . S
N137 C135 1.350 . S
H138 C133 0.930 . S
H139 C134 0.930 . S
C140 O141 1.224 1_655 S
C140 O159 1.247 . S
O141 C140 1.224 1_455 S
N142 Co132 2.128 . S
N142 C143 1.355 . S
N142 C145 1.311 1_455 S
C143 N142 1.355 . S
C143 C144 1.363 . S
C143 H155 0.929 . S
C144 C143 1.363 . S
C144 N146 1.375 . S
C144 H162 0.931 . S
C145 N142 1.311 1_655 S
C145 N146 1.347 1_655 S
C145 H156 0.929 . S
N146 C144 1.375 . S
N146 C145 1.347 1_455 S
C147 C150 1.365 . S
C147 N152 1.328 . S
C147 H153 0.929 . S
C148 C149 1.362 . S
C148 C151 1.378 . S
C148 H163 0.929 . S
C149 C148 1.362 . S
C149 C150 1.366 . S
C150 C147 1.365 . S
C150 C149 1.366 . S
C150 H164 0.930 . S
C151 C148 1.378 . S
C151 N152 1.315 . S
C151 H154 0.930 . S
N152 Co132 2.194 . S
N152 C147 1.328 . S
N152 C151 1.315 . S
H153 C147 0.929 . S
H154 C151 0.930 . S
H155 C143 0.929 . S
H156 C145 0.929 . S
O157 Co132 2.351 . S
O157 C160 1.244 1_455 S
O158 Co132 2.155 1_655 S
O158 C160 1.240 . S
O159 Co132 2.096 1_655 S
O159 C140 1.247 . S
C160 O157 1.244 1_655 S
C160 O158 1.240 . S
H161 C135 0.931 1_655 S
H162 C144 0.931 . S
H163 C148 0.929 . S
H164 C150 0.930 . S
Co165 N169 2.148 . S
Co165 N175 2.128 . S
Co165 N185 2.194 . S
Co165 O190 2.351 . S
Co165 O191 2.155 1_545 S
Co165 O192 2.096 1_545 S
C166 N169 1.301 . S
C166 N170 1.328 . S
C166 H171 0.930 . S
C167 C168 1.333 1_565 S
C167 N169 1.317 1_565 S
C167 H172 0.930 . S
C168 C167 1.333 1_545 S
C168 N170 1.350 . S
C168 H194 0.931 1_545 S
N169 Co165 2.148 . S
N169 C166 1.301 . S
N169 C167 1.317 1_545 S
N170 C166 1.328 . S
N170 C168 1.350 . S
H171 C166 0.930 . S
H172 C167 0.930 . S
C173 O174 1.224 1_565 S
C173 O192 1.247 . S
O174 C173 1.224 1_545 S
N175 Co165 2.128 . S
N175 C176 1.355 . S
N175 C178 1.311 1_545 S
C176 N175 1.355 . S
C176 C177 1.363 . S
C176 H188 0.929 . S
C177 C176 1.363 . S
C177 N179 1.375 . S
C177 H195 0.931 . S
C178 N175 1.311 1_565 S
C178 N179 1.347 1_565 S
C178 H189 0.929 . S
N179 C177 1.375 . S
N179 C178 1.347 1_545 S
C180 C183 1.365 . S
C180 N185 1.328 . S
C180 H186 0.929 . S
C181 C182 1.362 . S
C181 C184 1.378 . S
C181 H196 0.929 . S
C182 C181 1.362 . S
C182 C183 1.366 . S
C183 C180 1.365 . S
C183 C182 1.366 . S
C183 H197 0.930 . S
C184 C181 1.378 . S
C184 N185 1.315 . S
C184 H187 0.930 . S
N185 Co165 2.194 . S
N185 C180 1.328 . S
N185 C184 1.315 . S
H186 C180 0.929 . S
H187 C184 0.930 . S
H188 C176 0.929 . S
H189 C178 0.929 . S
O190 Co165 2.351 . S
O190 C193 1.244 1_545 S
O191 Co165 2.155 1_565 S
O191 C193 1.240 . S
O192 Co165 2.096 1_565 S
O192 C173 1.247 . S
C193 O190 1.244 1_565 S
C193 O191 1.240 . S
H194 C168 0.931 1_565 S
H195 C177 0.931 . S
H196 C181 0.929 . S
H197 C183 0.930 . S
Co198 N202 2.148 . S
Co198 N208 2.128 . S
Co198 N218 2.194 . S
Co198 O223 2.351 . S
Co198 O224 2.155 . S
Co198 O225 2.096 . S
C199 N202 1.301 . S
C199 N203 1.328 . S
C199 H204 0.930 . S
C200 C201 1.333 . S
C200 N202 1.317 . S
C200 H205 0.930 . S
C201 C200 1.333 . S
C201 N203 1.350 . S
C201 H227 0.931 . S
N202 Co198 2.148 . S
N202 C199 1.301 . S
N202 C200 1.317 . S
N203 C199 1.328 . S
N203 C201 1.350 . S
H204 C199 0.930 . S
H205 C200 0.930 . S
C206 O207 1.224 . S
C206 O225 1.247 . S
O207 C206 1.224 . S
N208 Co198 2.128 . S
N208 C209 1.355 . S
N208 C211 1.311 . S
C209 N208 1.355 . S
C209 C210 1.363 . S
C209 H221 0.929 . S
C210 C209 1.363 . S
C210 N212 1.375 . S
C210 H228 0.931 . S
C211 N208 1.311 . S
C211 N212 1.347 . S
C211 H222 0.929 . S
N212 C210 1.375 . S
N212 C211 1.347 . S
C213 C216 1.365 . S
C213 N218 1.328 . S
C213 H219 0.929 . S
C214 C215 1.362 . S
C214 C217 1.378 . S
C214 H229 0.929 . S
C215 C214 1.362 . S
C215 C216 1.366 . S
C216 C213 1.365 . S
C216 C215 1.366 . S
C216 H230 0.930 . S
C217 C214 1.378 . S
C217 N218 1.315 . S
C217 H220 0.930 . S
N218 Co198 2.194 . S
N218 C213 1.328 . S
N218 C217 1.315 . S
H219 C213 0.929 . S
H220 C217 0.930 . S
H221 C209 0.929 . S
H222 C211 0.929 . S
O223 Co198 2.351 . S
O223 C226 1.244 . S
O224 Co198 2.155 . S
O224 C226 1.240 . S
O225 Co198 2.096 . S
O225 C206 1.247 . S
C226 O223 1.244 . S
C226 O224 1.240 . S
H227 C201 0.931 . S
H228 C210 0.931 . S
H229 C214 0.929 . S
H230 C216 0.930 . S
Co231 N235 2.148 . S
Co231 N241 2.128 . S
Co231 N251 2.194 . S
Co231 O256 2.351 . S
Co231 O257 2.155 . S
Co231 O258 2.096 . S
C232 N235 1.301 . S
C232 N236 1.328 . S
C232 H237 0.930 . S
C233 C234 1.333 . S
C233 N235 1.317 . S
C233 H238 0.930 . S
C234 C233 1.333 . S
C234 N236 1.350 . S
C234 H260 0.931 . S
N235 Co231 2.148 . S
N235 C232 1.301 . S
N235 C233 1.317 . S
N236 C232 1.328 . S
N236 C234 1.350 . S
H237 C232 0.930 . S
H238 C233 0.930 . S
C239 O240 1.224 . S
C239 O258 1.247 . S
O240 C239 1.224 . S
N241 Co231 2.128 . S
N241 C242 1.355 . S
N241 C244 1.311 . S
C242 N241 1.355 . S
C242 C243 1.363 . S
C242 H254 0.929 . S
C243 C242 1.363 . S
C243 N245 1.375 . S
C243 H261 0.931 . S
C244 N241 1.311 . S
C244 N245 1.347 . S
C244 H255 0.929 . S
N245 C243 1.375 . S
N245 C244 1.347 . S
C246 C249 1.365 . S
C246 N251 1.328 . S
C246 H252 0.929 . S
C247 C248 1.362 . S
C247 C250 1.378 . S
C247 H262 0.929 . S
C248 C247 1.362 . S
C248 C249 1.366 . S
C249 C246 1.365 . S
C249 C248 1.366 . S
C249 H263 0.930 . S
C250 C247 1.378 . S
C250 N251 1.315 . S
C250 H253 0.930 . S
N251 Co231 2.194 . S
N251 C246 1.328 . S
N251 C250 1.315 . S
H252 C246 0.929 . S
H253 C250 0.930 . S
H254 C242 0.929 . S
H255 C244 0.929 . S
O256 Co231 2.351 . S
O256 C259 1.244 . S
O257 Co231 2.155 . S
O257 C259 1.240 . S
O258 Co231 2.096 . S
O258 C239 1.247 . S
C259 O256 1.244 . S
C259 O257 1.240 . S
H260 C234 0.931 . S
H261 C243 0.931 . S
H262 C247 0.929 . S
H263 C249 0.930 . S
Co264 N268 2.148 . S
Co264 N274 2.128 . S
Co264 N284 2.194 . S
Co264 O289 2.351 . S
Co264 O290 2.155 1_655 S
Co264 O291 2.096 1_655 S
C265 N268 1.301 . S
C265 N269 1.328 . S
C265 H270 0.930 . S
C266 C267 1.333 1_455 S
C266 N268 1.317 1_455 S
C266 H271 0.930 . S
C267 C266 1.333 1_655 S
C267 N269 1.350 . S
C267 H293 0.931 1_655 S
N268 Co264 2.148 . S
N268 C265 1.301 . S
N268 C266 1.317 1_655 S
N269 C265 1.328 . S
N269 C267 1.350 . S
H270 C265 0.930 . S
H271 C266 0.930 . S
C272 O273 1.224 1_455 S
C272 O291 1.247 . S
O273 C272 1.224 1_655 S
N274 Co264 2.128 . S
N274 C275 1.355 . S
N274 C277 1.311 1_655 S
C275 N274 1.355 . S
C275 C276 1.363 . S
C275 H287 0.929 . S
C276 C275 1.363 . S
C276 N278 1.375 . S
C276 H294 0.931 . S
C277 N274 1.311 1_455 S
C277 N278 1.347 1_455 S
C277 H288 0.929 . S
N278 C276 1.375 . S
N278 C277 1.347 1_655 S
C279 C282 1.365 . S
C279 N284 1.328 . S
C279 H285 0.929 . S
C280 C281 1.362 . S
C280 C283 1.378 . S
C280 H295 0.929 . S
C281 C280 1.362 . S
C281 C282 1.366 . S
C282 C279 1.365 . S
C282 C281 1.366 . S
C282 H296 0.930 . S
C283 C280 1.378 . S
C283 N284 1.315 . S
C283 H286 0.930 . S
N284 Co264 2.194 . S
N284 C279 1.328 . S
N284 C283 1.315 . S
H285 C279 0.929 . S
H286 C283 0.930 . S
H287 C275 0.929 . S
H288 C277 0.929 . S
O289 Co264 2.351 . S
O289 C292 1.244 1_655 S
O290 Co264 2.155 1_455 S
O290 C292 1.240 . S
O291 Co264 2.096 1_455 S
O291 C272 1.247 . S
C292 O289 1.244 1_455 S
C292 O290 1.240 . S
H293 C267 0.931 1_455 S
H294 C276 0.931 . S
H295 C280 0.929 . S
H296 C282 0.930 . S
Co297 N301 2.148 . S
Co297 N307 2.128 . S
Co297 N317 2.194 . S
Co297 O322 2.351 . S
Co297 O323 2.155 1_565 S
Co297 O324 2.096 1_565 S
C298 N301 1.301 . S
C298 N302 1.328 . S
C298 H303 0.930 . S
C299 C300 1.333 1_545 S
C299 N301 1.317 1_545 S
C299 H304 0.930 . S
C300 C299 1.333 1_565 S
C300 N302 1.350 . S
C300 H326 0.931 1_565 S
N301 Co297 2.148 . S
N301 C298 1.301 . S
N301 C299 1.317 1_565 S
N302 C298 1.328 . S
N302 C300 1.350 . S
H303 C298 0.930 . S
H304 C299 0.930 . S
C305 O306 1.224 1_545 S
C305 O324 1.247 . S
O306 C305 1.224 1_565 S
N307 Co297 2.128 . S
N307 C308 1.355 . S
N307 C310 1.311 1_565 S
C308 N307 1.355 . S
C308 C309 1.363 . S
C308 H320 0.929 . S
C309 C308 1.363 . S
C309 N311 1.375 . S
C309 H327 0.931 . S
C310 N307 1.311 1_545 S
C310 N311 1.347 1_545 S
C310 H321 0.929 . S
N311 C309 1.375 . S
N311 C310 1.347 1_565 S
C312 C315 1.365 . S
C312 N317 1.328 . S
C312 H318 0.929 . S
C313 C314 1.362 . S
C313 C316 1.378 . S
C313 H328 0.929 . S
C314 C313 1.362 . S
C314 C315 1.366 . S
C315 C312 1.365 . S
C315 C314 1.366 . S
C315 H329 0.930 . S
C316 C313 1.378 . S
C316 N317 1.315 . S
C316 H319 0.930 . S
N317 Co297 2.194 . S
N317 C312 1.328 . S
N317 C316 1.315 . S
H318 C312 0.929 . S
H319 C316 0.930 . S
H320 C308 0.929 . S
H321 C310 0.929 . S
O322 Co297 2.351 . S
O322 C325 1.244 1_565 S
O323 Co297 2.155 1_545 S
O323 C325 1.240 . S
O324 Co297 2.096 1_545 S
O324 C305 1.247 . S
C325 O322 1.244 1_545 S
C325 O323 1.240 . S
H326 C300 0.931 1_545 S
H327 C309 0.931 . S
H328 C313 0.929 . S
H329 C315 0.930 . S
Co330 N334 2.148 . S
Co330 N340 2.128 . S
Co330 N350 2.194 . S
Co330 O355 2.351 . S
Co330 O356 2.155 . S
Co330 O357 2.096 . S
C331 N334 1.301 . S
C331 N335 1.328 . S
C331 H336 0.930 . S
C332 C333 1.333 . S
C332 N334 1.317 . S
C332 H337 0.930 . S
C333 C332 1.333 . S
C333 N335 1.350 . S
C333 H359 0.931 . S
N334 Co330 2.148 . S
N334 C331 1.301 . S
N334 C332 1.317 . S
N335 C331 1.328 . S
N335 C333 1.350 . S
H336 C331 0.930 . S
H337 C332 0.930 . S
C338 O339 1.224 . S
C338 O357 1.247 . S
O339 C338 1.224 . S
N340 Co330 2.128 . S
N340 C341 1.355 . S
N340 C343 1.311 . S
C341 N340 1.355 . S
C341 C342 1.363 . S
C341 H353 0.929 . S
C342 C341 1.363 . S
C342 N344 1.375 . S
C342 H360 0.931 . S
C343 N340 1.311 . S
C343 N344 1.347 . S
C343 H354 0.929 . S
N344 C342 1.375 . S
N344 C343 1.347 . S
C345 C348 1.365 . S
C345 N350 1.328 . S
C345 H351 0.929 . S
C346 C347 1.362 . S
C346 C349 1.378 . S
C346 H361 0.929 . S
C347 C346 1.362 . S
C347 C348 1.366 . S
C348 C345 1.365 . S
C348 C347 1.366 . S
C348 H362 0.930 . S
C349 C346 1.378 . S
C349 N350 1.315 . S
C349 H352 0.930 . S
N350 Co330 2.194 . S
N350 C345 1.328 . S
N350 C349 1.315 . S
H351 C345 0.929 . S
H352 C349 0.930 . S
H353 C341 0.929 . S
H354 C343 0.929 . S
O355 Co330 2.351 . S
O355 C358 1.244 . S
O356 Co330 2.155 . S
O356 C358 1.240 . S
O357 Co330 2.096 . S
O357 C338 1.247 . S
C358 O355 1.244 . S
C358 O356 1.240 . S
H359 C333 0.931 . S
H360 C342 0.931 . S
H361 C346 0.929 . S
H362 C348 0.930 . S
Co363 N367 2.148 . S
Co363 N373 2.128 . S
Co363 N383 2.194 . S
Co363 O388 2.351 . S
Co363 O389 2.155 . S
Co363 O390 2.096 . S
C364 N367 1.301 . S
C364 N368 1.328 . S
C364 H369 0.930 . S
C365 C366 1.333 . S
C365 N367 1.317 . S
C365 H370 0.930 . S
C366 C365 1.333 . S
C366 N368 1.350 . S
C366 H392 0.931 . S
N367 Co363 2.148 . S
N367 C364 1.301 . S
N367 C365 1.317 . S
N368 C364 1.328 . S
N368 C366 1.350 . S
H369 C364 0.930 . S
H370 C365 0.930 . S
C371 O372 1.224 . S
C371 O390 1.247 . S
O372 C371 1.224 . S
N373 Co363 2.128 . S
N373 C374 1.355 . S
N373 C376 1.311 . S
C374 N373 1.355 . S
C374 C375 1.363 . S
C374 H386 0.929 . S
C375 C374 1.363 . S
C375 N377 1.375 . S
C375 H393 0.931 . S
C376 N373 1.311 . S
C376 N377 1.347 . S
C376 H387 0.929 . S
N377 C375 1.375 . S
N377 C376 1.347 . S
C378 C381 1.365 . S
C378 N383 1.328 . S
C378 H384 0.929 . S
C379 C380 1.362 . S
C379 C382 1.378 . S
C379 H394 0.929 . S
C380 C379 1.362 . S
C380 C381 1.366 . S
C381 C378 1.365 . S
C381 C380 1.366 . S
C381 H395 0.930 . S
C382 C379 1.378 . S
C382 N383 1.315 . S
C382 H385 0.930 . S
N383 Co363 2.194 . S
N383 C378 1.328 . S
N383 C382 1.315 . S
H384 C378 0.929 . S
H385 C382 0.930 . S
H386 C374 0.929 . S
H387 C376 0.929 . S
O388 Co363 2.351 . S
O388 C391 1.244 . S
O389 Co363 2.155 . S
O389 C391 1.240 . S
O390 Co363 2.096 . S
O390 C371 1.247 . S
C391 O388 1.244 . S
C391 O389 1.240 . S
H392 C366 0.931 . S
H393 C375 0.931 . S
H394 C379 0.929 . S
H395 C381 0.930 . S
Co396 N400 2.148 . S
Co396 N406 2.128 . S
Co396 N416 2.194 . S
Co396 O421 2.351 . S
Co396 O422 2.155 1_655 S
Co396 O423 2.096 1_655 S
C397 N400 1.301 . S
C397 N401 1.328 . S
C397 H402 0.930 . S
C398 C399 1.333 1_455 S
C398 N400 1.317 1_455 S
C398 H403 0.930 . S
C399 C398 1.333 1_655 S
C399 N401 1.350 . S
C399 H425 0.931 1_655 S
N400 Co396 2.148 . S
N400 C397 1.301 . S
N400 C398 1.317 1_655 S
N401 C397 1.328 . S
N401 C399 1.350 . S
H402 C397 0.930 . S
H403 C398 0.930 . S
C404 O405 1.224 1_455 S
C404 O423 1.247 . S
O405 C404 1.224 1_655 S
N406 Co396 2.128 . S
N406 C407 1.355 . S
N406 C409 1.311 1_655 S
C407 N406 1.355 . S
C407 C408 1.363 . S
C407 H419 0.929 . S
C408 C407 1.363 . S
C408 N410 1.375 . S
C408 H426 0.931 . S
C409 N406 1.311 1_455 S
C409 N410 1.347 1_455 S
C409 H420 0.929 . S
N410 C408 1.375 . S
N410 C409 1.347 1_655 S
C411 C414 1.365 . S
C411 N416 1.328 . S
C411 H417 0.929 . S
C412 C413 1.362 . S
C412 C415 1.378 . S
C412 H427 0.929 . S
C413 C412 1.362 . S
C413 C414 1.366 . S
C414 C411 1.365 . S
C414 C413 1.366 . S
C414 H428 0.930 . S
C415 C412 1.378 . S
C415 N416 1.315 . S
C415 H418 0.930 . S
N416 Co396 2.194 . S
N416 C411 1.328 . S
N416 C415 1.315 . S
H417 C411 0.929 . S
H418 C415 0.930 . S
H419 C407 0.929 . S
H420 C409 0.929 . S
O421 Co396 2.351 . S
O421 C424 1.244 1_655 S
O422 Co396 2.155 1_455 S
O422 C424 1.240 . S
O423 Co396 2.096 1_455 S
O423 C404 1.247 . S
C424 O421 1.244 1_455 S
C424 O422 1.240 . S
H425 C399 0.931 1_455 S
H426 C408 0.931 . S
H427 C412 0.929 . S
H428 C414 0.930 . S
Co429 N433 2.148 . S
Co429 N439 2.128 . S
Co429 N449 2.194 . S
Co429 O454 2.351 . S
Co429 O455 2.155 1_565 S
Co429 O456 2.096 1_565 S
C430 N433 1.301 . S
C430 N434 1.328 . S
C430 H435 0.930 . S
C431 C432 1.333 1_545 S
C431 N433 1.317 1_545 S
C431 H436 0.930 . S
C432 C431 1.333 1_565 S
C432 N434 1.350 . S
C432 H458 0.931 1_565 S
N433 Co429 2.148 . S
N433 C430 1.301 . S
N433 C431 1.317 1_565 S
N434 C430 1.328 . S
N434 C432 1.350 . S
H435 C430 0.930 . S
H436 C431 0.930 . S
C437 O438 1.224 1_545 S
C437 O456 1.247 . S
O438 C437 1.224 1_565 S
N439 Co429 2.128 . S
N439 C440 1.355 . S
N439 C442 1.311 1_565 S
C440 N439 1.355 . S
C440 C441 1.363 . S
C440 H452 0.929 . S
C441 C440 1.363 . S
C441 N443 1.375 . S
C441 H459 0.931 . S
C442 N439 1.311 1_545 S
C442 N443 1.347 1_545 S
C442 H453 0.929 . S
N443 C441 1.375 . S
N443 C442 1.347 1_565 S
C444 C447 1.365 . S
C444 N449 1.328 . S
C444 H450 0.929 . S
C445 C446 1.362 . S
C445 C448 1.378 . S
C445 H460 0.929 . S
C446 C445 1.362 . S
C446 C447 1.366 . S
C447 C444 1.365 . S
C447 C446 1.366 . S
C447 H461 0.930 . S
C448 C445 1.378 . S
C448 N449 1.315 . S
C448 H451 0.930 . S
N449 Co429 2.194 . S
N449 C444 1.328 . S
N449 C448 1.315 . S
H450 C444 0.929 . S
H451 C448 0.930 . S
H452 C440 0.929 . S
H453 C442 0.929 . S
O454 Co429 2.351 . S
O454 C457 1.244 1_565 S
O455 Co429 2.155 1_545 S
O455 C457 1.240 . S
O456 Co429 2.096 1_545 S
O456 C437 1.247 . S
C457 O454 1.244 1_545 S
C457 O455 1.240 . S
H458 C432 0.931 1_545 S
H459 C441 0.931 . S
H460 C445 0.929 . S
H461 C447 0.930 . S
Co462 N466 2.148 . S
Co462 N472 2.128 . S
Co462 N482 2.194 . S
Co462 O487 2.351 . S
Co462 O488 2.155 . S
Co462 O489 2.096 . S
C463 N466 1.301 . S
C463 N467 1.328 . S
C463 H468 0.930 . S
C464 C465 1.333 . S
C464 N466 1.317 . S
C464 H469 0.930 . S
C465 C464 1.333 . S
C465 N467 1.350 . S
C465 H491 0.931 . S
N466 Co462 2.148 . S
N466 C463 1.301 . S
N466 C464 1.317 . S
N467 C463 1.328 . S
N467 C465 1.350 . S
H468 C463 0.930 . S
H469 C464 0.930 . S
C470 O471 1.224 . S
C470 O489 1.247 . S
O471 C470 1.224 . S
N472 Co462 2.128 . S
N472 C473 1.355 . S
N472 C475 1.311 . S
C473 N472 1.355 . S
C473 C474 1.363 . S
C473 H485 0.929 . S
C474 C473 1.363 . S
C474 N476 1.375 . S
C474 H492 0.931 . S
C475 N472 1.311 . S
C475 N476 1.347 . S
C475 H486 0.929 . S
N476 C474 1.375 . S
N476 C475 1.347 . S
C477 C480 1.365 . S
C477 N482 1.328 . S
C477 H483 0.929 . S
C478 C479 1.362 . S
C478 C481 1.378 . S
C478 H493 0.929 . S
C479 C478 1.362 . S
C479 C480 1.366 . S
C480 C477 1.365 . S
C480 C479 1.366 . S
C480 H494 0.930 . S
C481 C478 1.378 . S
C481 N482 1.315 . S
C481 H484 0.930 . S
N482 Co462 2.194 . S
N482 C477 1.328 . S
N482 C481 1.315 . S
H483 C477 0.929 . S
H484 C481 0.930 . S
H485 C473 0.929 . S
H486 C475 0.929 . S
O487 Co462 2.351 . S
O487 C490 1.244 . S
O488 Co462 2.155 . S
O488 C490 1.240 . S
O489 Co462 2.096 . S
O489 C470 1.247 . S
C490 O487 1.244 . S
C490 O488 1.240 . S
H491 C465 0.931 . S
H492 C474 0.931 . S
H493 C478 0.929 . S
H494 C480 0.930 . S
Co495 N499 2.148 . S
Co495 N505 2.128 . S
Co495 N515 2.194 . S
Co495 O520 2.351 . S
Co495 O521 2.155 . S
Co495 O522 2.096 . S
C496 N499 1.301 . S
C496 N500 1.328 . S
C496 H501 0.930 . S
C497 C498 1.333 . S
C497 N499 1.317 . S
C497 H502 0.930 . S
C498 C497 1.333 . S
C498 N500 1.350 . S
C498 H524 0.931 . S
N499 Co495 2.148 . S
N499 C496 1.301 . S
N499 C497 1.317 . S
N500 C496 1.328 . S
N500 C498 1.350 . S
H501 C496 0.930 . S
H502 C497 0.930 . S
C503 O504 1.224 . S
C503 O522 1.247 . S
O504 C503 1.224 . S
N505 Co495 2.128 . S
N505 C506 1.355 . S
N505 C508 1.311 . S
C506 N505 1.355 . S
C506 C507 1.363 . S
C506 H518 0.929 . S
C507 C506 1.363 . S
C507 N509 1.375 . S
C507 H525 0.931 . S
C508 N505 1.311 . S
C508 N509 1.347 . S
C508 H519 0.929 . S
N509 C507 1.375 . S
N509 C508 1.347 . S
C510 C513 1.365 . S
C510 N515 1.328 . S
C510 H516 0.929 . S
C511 C512 1.362 . S
C511 C514 1.378 . S
C511 H526 0.929 . S
C512 C511 1.362 . S
C512 C513 1.366 . S
C513 C510 1.365 . S
C513 C512 1.366 . S
C513 H527 0.930 . S
C514 C511 1.378 . S
C514 N515 1.315 . S
C514 H517 0.930 . S
N515 Co495 2.194 . S
N515 C510 1.328 . S
N515 C514 1.315 . S
H516 C510 0.929 . S
H517 C514 0.930 . S
H518 C506 0.929 . S
H519 C508 0.929 . S
O520 Co495 2.351 . S
O520 C523 1.244 . S
O521 Co495 2.155 . S
O521 C523 1.240 . S
O522 Co495 2.096 . S
O522 C503 1.247 . S
C523 O520 1.244 . S
C523 O521 1.240 . S
H524 C498 0.931 . S
H525 C507 0.931 . S
H526 C511 0.929 . S
H527 C513 0.930 . S
H528 C534 0.930 . S
H529 C538 0.930 . S
H530 C543 0.929 . S
H531 C541 0.929 . S
H532 C536 0.929 . S
H533 C542 0.929 . S
C534 H528 0.930 . S
C534 C535 1.367 . S
C534 C542 1.378 . S
C535 C534 1.367 . S
C535 C543 1.433 1_455 S
C536 H532 0.929 . S
C536 C538 1.378 . S
C536 C540 1.350 1_655 S
C537 C540 1.463 1_556 S
C537 C542 1.350 . S
C537 N545 1.427 1_455 S
C538 H529 0.930 . S
C538 C536 1.378 . S
C538 C539 1.367 1_655 S
C539 C538 1.367 1_455 S
C539 C541 1.433 . S
C540 C536 1.350 1_455 S
C540 C537 1.463 1_554 S
C540 N544 1.427 . S
C541 H531 0.929 . S
C541 C539 1.433 . S
C541 N544 1.384 . S
C542 H533 0.929 . S
C542 C534 1.378 . S
C542 C537 1.350 . S
C543 H530 0.929 . S
C543 C535 1.433 1_655 S
C543 N545 1.384 . S
N544 C540 1.427 . S
N544 C541 1.384 . S
N545 C537 1.427 1_655 S
N545 C543 1.384 . S
H546 C552 0.930 . S
H547 C556 0.930 . S
H548 C561 0.929 . S
H549 C559 0.929 . S
H550 C554 0.929 . S
H551 C560 0.929 . S
C552 H546 0.930 . S
C552 C553 1.367 1_565 S
C552 C560 1.378 . S
C553 C552 1.367 1_545 S
C553 C561 1.433 . S
C554 H550 0.929 . S
C554 C556 1.378 . S
C554 C558 1.350 . S
C555 C558 1.463 . S
C555 C560 1.350 1_545 S
C555 N563 1.427 . S
C556 H547 0.930 . S
C556 C554 1.378 . S
C556 C557 1.367 . S
C557 C556 1.367 . S
C557 C559 1.433 1_545 S
C558 C554 1.350 . S
C558 C555 1.463 . S
C558 N562 1.427 1_545 S
C559 H549 0.929 . S
C559 C557 1.433 1_565 S
C559 N562 1.384 . S
C560 H551 0.929 . S
C560 C552 1.378 . S
C560 C555 1.350 1_565 S
C561 H548 0.929 . S
C561 C553 1.433 . S
C561 N563 1.384 . S
N562 C558 1.427 1_565 S
N562 C559 1.384 . S
N563 C555 1.427 . S
N563 C561 1.384 . S
H564 C570 0.930 . S
H565 C574 0.930 . S
H566 C579 0.929 . S
H567 C577 0.929 . S
H568 C572 0.929 . S
H569 C578 0.929 . S
C570 H564 0.930 . S
C570 C571 1.367 . S
C570 C578 1.378 . S
C571 C570 1.367 . S
C571 C579 1.433 . S
C572 H568 0.929 . S
C572 C574 1.378 . S
C572 C576 1.350 . S
C573 C576 1.463 1_554 S
C573 C578 1.350 . S
C573 N581 1.427 . S
C574 H565 0.930 . S
C574 C572 1.378 . S
C574 C575 1.367 . S
C575 C574 1.367 . S
C575 C577 1.433 . S
C576 C572 1.350 . S
C576 C573 1.463 1_556 S
C576 N580 1.427 . S
C577 H567 0.929 . S
C577 C575 1.433 . S
C577 N580 1.384 . S
C578 H569 0.929 . S
C578 C570 1.378 . S
C578 C573 1.350 . S
C579 H566 0.929 . S
C579 C571 1.433 . S
C579 N581 1.384 . S
N580 C576 1.427 . S
N580 C577 1.384 . S
N581 C573 1.427 . S
N581 C579 1.384 . S
H582 C588 0.930 . S
H583 C592 0.930 . S
H584 C597 0.929 . S
H585 C595 0.929 . S
H586 C590 0.929 . S
H587 C596 0.929 . S
C588 H582 0.930 . S
C588 C589 1.367 . S
C588 C596 1.378 . S
C589 C588 1.367 . S
C589 C597 1.433 . S
C590 H586 0.929 . S
C590 C592 1.378 . S
C590 C594 1.350 . S
C591 C594 1.463 . S
C591 C596 1.350 . S
C591 N599 1.427 . S
C592 H583 0.930 . S
C592 C590 1.378 . S
C592 C593 1.367 . S
C593 C592 1.367 . S
C593 C595 1.433 . S
C594 C590 1.350 . S
C594 C591 1.463 . S
C594 N598 1.427 . S
C595 H585 0.929 . S
C595 C593 1.433 . S
C595 N598 1.384 . S
C596 H587 0.929 . S
C596 C588 1.378 . S
C596 C591 1.350 . S
C597 H584 0.929 . S
C597 C589 1.433 . S
C597 N599 1.384 . S
N598 C594 1.427 . S
N598 C595 1.384 . S
N599 C591 1.427 . S
N599 C597 1.384 . S
H600 C606 0.930 . S
H601 C610 0.930 . S
H602 C615 0.929 . S
H603 C613 0.929 . S
H604 C608 0.929 . S
H605 C614 0.929 . S
C606 H600 0.930 . S
C606 C607 1.367 1_455 S
C606 C614 1.378 . S
C607 C606 1.367 1_655 S
C607 C615 1.433 . S
C608 H604 0.929 . S
C608 C610 1.378 . S
C608 C612 1.350 . S
C609 C612 1.463 1_554 S
C609 C614 1.350 1_655 S
C609 N617 1.427 . S
C610 H601 0.930 . S
C610 C608 1.378 . S
C610 C611 1.367 . S
C611 C610 1.367 . S
C611 C613 1.433 1_655 S
C612 C608 1.350 . S
C612 C609 1.463 1_556 S
C612 N616 1.427 1_655 S
C613 H603 0.929 . S
C613 C611 1.433 1_455 S
C613 N616 1.384 . S
C614 H605 0.929 . S
C614 C606 1.378 . S
C614 C609 1.350 1_455 S
C615 H602 0.929 . S
C615 C607 1.433 . S
C615 N617 1.384 . S
N616 C612 1.427 1_455 S
N616 C613 1.384 . S
N617 C609 1.427 . S
N617 C615 1.384 . S
H618 C624 0.930 . S
H619 C628 0.930 . S
H620 C633 0.929 . S
H621 C631 0.929 . S
H622 C626 0.929 . S
H623 C632 0.929 . S
C624 H618 0.930 . S
C624 C625 1.367 . S
C624 C632 1.378 . S
C625 C624 1.367 . S
C625 C633 1.433 1_565 S
C626 H622 0.929 . S
C626 C628 1.378 . S
C626 C630 1.350 1_545 S
C627 C630 1.463 . S
C627 C632 1.350 . S
C627 N635 1.427 1_565 S
C628 H619 0.930 . S
C628 C626 1.378 . S
C628 C629 1.367 1_545 S
C629 C628 1.367 1_565 S
C629 C631 1.433 . S
C630 C626 1.350 1_565 S
C630 C627 1.463 . S
C630 N634 1.427 . S
C631 H621 0.929 . S
C631 C629 1.433 . S
C631 N634 1.384 . S
C632 H623 0.929 . S
C632 C624 1.378 . S
C632 C627 1.350 . S
C633 H620 0.929 . S
C633 C625 1.433 1_545 S
C633 N635 1.384 . S
N634 C630 1.427 . S
N634 C631 1.384 . S
N635 C627 1.427 1_545 S
N635 C633 1.384 . S
H636 C642 0.930 . S
H637 C646 0.930 . S
H638 C651 0.929 . S
H639 C649 0.929 . S
H640 C644 0.929 . S
H641 C650 0.929 . S
C642 H636 0.930 . S
C642 C643 1.367 . S
C642 C650 1.378 . S
C643 C642 1.367 . S
C643 C651 1.433 . S
C644 H640 0.929 . S
C644 C646 1.378 . S
C644 C648 1.350 . S
C645 C648 1.463 1_556 S
C645 C650 1.350 . S
C645 N653 1.427 . S
C646 H637 0.930 . S
C646 C644 1.378 . S
C646 C647 1.367 . S
C647 C646 1.367 . S
C647 C649 1.433 . S
C648 C644 1.350 . S
C648 C645 1.463 1_554 S
C648 N652 1.427 . S
C649 H639 0.929 . S
C649 C647 1.433 . S
C649 N652 1.384 . S
C650 H641 0.929 . S
C650 C642 1.378 . S
C650 C645 1.350 . S
C651 H638 0.929 . S
C651 C643 1.433 . S
C651 N653 1.384 . S
N652 C648 1.427 . S
N652 C649 1.384 . S
N653 C645 1.427 . S
N653 C651 1.384 . S
H654 C660 0.930 . S
H655 C664 0.930 . S
H656 C669 0.929 . S
H657 C667 0.929 . S
H658 C662 0.929 . S
H659 C668 0.929 . S
C660 H654 0.930 . S
C660 C661 1.367 . S
C660 C668 1.378 . S
C661 C660 1.367 . S
C661 C669 1.433 . S
C662 H658 0.929 . S
C662 C664 1.378 . S
C662 C666 1.350 . S
C663 C666 1.463 . S
C663 C668 1.350 . S
C663 N671 1.427 . S
C664 H655 0.930 . S
C664 C662 1.378 . S
C664 C665 1.367 . S
C665 C664 1.367 . S
C665 C667 1.433 . S
C666 C662 1.350 . S
C666 C663 1.463 . S
C666 N670 1.427 . S
C667 H657 0.929 . S
C667 C665 1.433 . S
C667 N670 1.384 . S
C668 H659 0.929 . S
C668 C660 1.378 . S
C668 C663 1.350 . S
C669 H656 0.929 . S
C669 C661 1.433 . S
C669 N671 1.384 . S
N670 C666 1.427 . S
N670 C667 1.384 . S
N671 C663 1.427 . S
N671 C669 1.384 . S
H672 C678 0.930 . S
H673 C682 0.930 . S
H674 C687 0.929 1_455 S
H675 C685 0.929 . S
H676 C680 0.929 . S
H677 C686 0.929 . S
C678 H672 0.930 . S
C678 C679 1.367 . S
C678 C686 1.378 . S
C679 C678 1.367 . S
C679 C687 1.433 . S
C680 H676 0.929 . S
C680 C682 1.378 1_545 S
C680 C684 1.350 1_455 S
C681 C684 1.463 . S
C681 C686 1.350 . S
C681 N689 1.426 . S
C682 H673 0.930 . S
C682 C680 1.378 1_565 S
C682 C683 1.367 . S
C683 C682 1.367 . S
C683 C685 1.433 1_455 S
C684 C680 1.350 1_655 S
C684 C681 1.463 . S
C684 N688 1.427 . S
C685 H675 0.929 . S
C685 C683 1.433 1_655 S
C685 N688 1.384 1_565 S
C686 H677 0.929 . S
C686 C678 1.378 . S
C686 C681 1.350 . S
C687 H674 0.929 1_655 S
C687 C679 1.433 . S
C687 N689 1.383 . S
N688 C684 1.427 . S
N688 C685 1.384 1_545 S
N689 C681 1.426 . S
N689 C687 1.383 . S
H690 C696 0.930 . S
H691 C700 0.930 . S
H692 C705 0.929 . S
H693 C703 0.929 . S
H694 C698 0.929 . S
H695 C704 0.929 . S
C696 H690 0.930 . S
C696 C697 1.367 . S
C696 C704 1.378 . S
C697 C696 1.367 . S
C697 C705 1.433 1_565 S
C698 H694 0.929 . S
C698 C700 1.378 . S
C698 C702 1.350 1_545 S
C699 C702 1.463 . S
C699 C704 1.350 . S
C699 N707 1.427 1_565 S
C700 H691 0.930 . S
C700 C698 1.378 . S
C700 C701 1.367 . S
C701 C700 1.367 . S
C701 C703 1.433 1_545 S
C702 C698 1.350 1_565 S
C702 C699 1.463 . S
C702 N706 1.427 . S
C703 H693 0.929 . S
C703 C701 1.433 1_565 S
C703 N706 1.384 . S
C704 H695 0.929 . S
C704 C696 1.378 . S
C704 C699 1.350 . S
C705 H692 0.929 . S
C705 C697 1.433 1_545 S
C705 N707 1.384 . S
N706 C702 1.427 . S
N706 C703 1.384 . S
N707 C699 1.427 1_545 S
N707 C705 1.384 . S
H708 C714 0.930 . S
H709 C718 0.930 . S
H710 C723 0.929 . S
H711 C721 0.929 . S
H712 C716 0.929 . S
H713 C722 0.929 . S
C714 H708 0.930 . S
C714 C715 1.367 . S
C714 C722 1.378 . S
C715 C714 1.367 . S
C715 C723 1.433 . S
C716 H712 0.929 . S
C716 C718 1.378 . S
C716 C720 1.350 . S
C717 C720 1.463 . S
C717 C722 1.350 . S
C717 N725 1.427 . S
C718 H709 0.930 . S
C718 C716 1.378 . S
C718 C719 1.367 . S
C719 C718 1.367 . S
C719 C721 1.433 . S
C720 C716 1.350 . S
C720 C717 1.463 . S
C720 N724 1.427 . S
C721 H711 0.929 . S
C721 C719 1.433 . S
C721 N724 1.384 . S
C722 H713 0.929 . S
C722 C714 1.378 . S
C722 C717 1.350 . S
C723 H710 0.929 . S
C723 C715 1.433 . S
C723 N725 1.384 . S
N724 C720 1.427 . S
N724 C721 1.384 . S
N725 C717 1.427 . S
N725 C723 1.384 . S
H726 C732 0.930 . S
H727 C736 0.930 . S
H728 C741 0.929 . S
H729 C739 0.929 . S
H730 C734 0.929 . S
H731 C740 0.929 . S
C732 H726 0.930 . S
C732 C733 1.367 . S
C732 C740 1.378 . S
C733 C732 1.367 . S
C733 C741 1.433 . S
C734 H730 0.929 . S
C734 C736 1.378 1_455 S
C734 C738 1.350 . S
C735 C738 1.463 . S
C735 C740 1.350 . S
C735 N743 1.427 . S
C736 H727 0.930 . S
C736 C734 1.378 1_655 S
C736 C737 1.367 . S
C737 C736 1.367 . S
C737 C739 1.433 . S
C738 C734 1.350 . S
C738 C735 1.463 . S
C738 N742 1.427 . S
C739 H729 0.929 . S
C739 C737 1.433 . S
C739 N742 1.384 1_655 S
C740 H731 0.929 . S
C740 C732 1.378 . S
C740 C735 1.350 . S
C741 H728 0.929 . S
C741 C733 1.433 . S
C741 N743 1.384 . S
N742 C738 1.427 . S
N742 C739 1.384 1_455 S
N743 C735 1.427 . S
N743 C741 1.384 . S
H744 C750 0.930 . S
H745 C754 0.930 . S
H746 C759 0.929 . S
H747 C757 0.929 . S
H748 C752 0.929 . S
H749 C758 0.929 . S
C750 H744 0.930 . S
C750 C751 1.367 . S
C750 C758 1.378 . S
C751 C750 1.367 . S
C751 C759 1.433 1_455 S
C752 H748 0.929 . S
C752 C754 1.378 . S
C752 C756 1.350 . S
C753 C756 1.463 . S
C753 C758 1.350 1_655 S
C753 N761 1.427 . S
C754 H745 0.930 . S
C754 C752 1.378 . S
C754 C755 1.367 . S
C755 C754 1.367 . S
C755 C757 1.433 . S
C756 C752 1.350 . S
C756 C753 1.463 . S
C756 N760 1.427 . S
C757 H747 0.929 . S
C757 C755 1.433 . S
C757 N760 1.384 . S
C758 H749 0.929 . S
C758 C750 1.378 . S
C758 C753 1.350 1_455 S
C759 H746 0.929 . S
C759 C751 1.433 1_655 S
C759 N761 1.384 . S
N760 C756 1.427 . S
N760 C757 1.384 . S
N761 C753 1.427 . S
N761 C759 1.384 . S
H762 C768 0.930 . S
H763 C772 0.930 . S
H764 C777 0.929 . S
H765 C775 0.929 . S
H766 C770 0.929 . S
H767 C776 0.929 . S
C768 H762 0.930 . S
C768 C769 1.367 . S
C768 C776 1.378 1_655 S
C769 C768 1.367 . S
C769 C777 1.433 1_545 S
C770 H766 0.929 . S
C770 C772 1.378 . S
C770 C774 1.350 . S
C771 C774 1.463 . S
C771 C776 1.350 1_565 S
C771 N779 1.427 . S
C772 H763 0.930 . S
C772 C770 1.378 . S
C772 C773 1.367 . S
C773 C772 1.367 . S
C773 C775 1.433 . S
C774 C770 1.350 . S
C774 C771 1.463 . S
C774 N778 1.427 . S
C775 H765 0.929 . S
C775 C773 1.433 . S
C775 N778 1.384 . S
C776 H767 0.929 . S
C776 C768 1.378 1_455 S
C776 C771 1.350 1_545 S
C777 H764 0.929 . S
C777 C769 1.433 1_565 S
C777 N779 1.384 1_655 S
N778 C774 1.427 . S
N778 C775 1.384 . S
N779 C771 1.427 . S
N779 C777 1.384 1_455 S
H780 C786 0.930 . S
H781 C790 0.930 . S
H782 C795 0.929 . S
H783 C793 0.929 . S
H784 C788 0.929 . S
H785 C794 0.929 . S
C786 H780 0.930 . S
C786 C787 1.367 . S
C786 C794 1.378 . S
C787 C786 1.367 . S
C787 C795 1.433 . S
C788 H784 0.929 . S
C788 C790 1.378 1_545 S
C788 C792 1.350 . S
C789 C792 1.463 . S
C789 C794 1.350 . S
C789 N797 1.427 . S
C790 H781 0.930 . S
C790 C788 1.378 1_565 S
C790 C791 1.367 . S
C791 C790 1.367 . S
C791 C793 1.433 . S
C792 C788 1.350 . S
C792 C789 1.463 . S
C792 N796 1.427 . S
C793 H783 0.929 . S
C793 C791 1.433 . S
C793 N796 1.384 1_565 S
C794 H785 0.929 . S
C794 C786 1.378 . S
C794 C789 1.350 . S
C795 H782 0.929 . S
C795 C787 1.433 . S
C795 N797 1.384 . S
N796 C792 1.427 . S
N796 C793 1.384 1_545 S
N797 C789 1.427 . S
N797 C795 1.384 . S
H798 C804 0.930 . S
H799 C808 0.930 . S
H800 C813 0.929 . S
H801 C811 0.929 . S
H802 C806 0.929 . S
H803 C812 0.929 . S
C804 H798 0.930 . S
C804 C805 1.367 . S
C804 C812 1.378 . S
C805 C804 1.367 . S
C805 C813 1.433 . S
C806 H802 0.929 . S
C806 C808 1.378 . S
C806 C810 1.350 . S
C807 C810 1.463 . S
C807 C812 1.350 . S
C807 N815 1.427 . S
C808 H799 0.930 . S
C808 C806 1.378 . S
C808 C809 1.367 . S
C809 C808 1.367 . S
C809 C811 1.433 . S
C810 C806 1.350 . S
C810 C807 1.463 . S
C810 N814 1.427 . S
C811 H801 0.929 . S
C811 C809 1.433 . S
C811 N814 1.384 . S
C812 H803 0.929 . S
C812 C804 1.378 . S
C812 C807 1.350 . S
C813 H800 0.929 . S
C813 C805 1.433 . S
C813 N815 1.384 . S
N814 C810 1.427 . S
N814 C811 1.384 . S
N815 C807 1.427 . S
N815 C813 1.384 . S
H816 C822 0.930 . S
H817 C826 0.930 . S
H818 C831 0.929 . S
H819 C829 0.929 . S
H820 C824 0.929 . S
H821 C830 0.929 . S
C822 H816 0.930 . S
C822 C823 1.367 . S
C822 C830 1.378 . S
C823 C822 1.367 . S
C823 C831 1.433 . S
C824 H820 0.929 . S
C824 C826 1.378 1_565 S
C824 C828 1.350 1_655 S
C825 C828 1.463 . S
C825 C830 1.350 . S
C825 N833 1.427 . S
C826 H817 0.930 . S
C826 C824 1.378 1_545 S
C826 C827 1.367 . S
C827 C826 1.367 . S
C827 C829 1.433 1_655 S
C828 C824 1.350 1_455 S
C828 C825 1.463 . S
C828 N832 1.427 . S
C829 H819 0.929 . S
C829 C827 1.433 1_455 S
C829 N832 1.384 1_545 S
C830 H821 0.929 . S
C830 C822 1.378 . S
C830 C825 1.350 . S
C831 H818 0.929 . S
C831 C823 1.433 . S
C831 N833 1.384 . S
N832 C828 1.427 . S
N832 C829 1.384 1_565 S
N833 C825 1.427 . S
N833 C831 1.384 . S
H834 C840 0.930 . S
H835 C844 0.930 . S
H836 C849 0.929 . S
H837 C847 0.929 . S
H838 C842 0.929 . S
H839 C848 0.929 1_565 S
C840 H834 0.930 . S
C840 C841 1.367 . S
C840 C848 1.378 . S
C841 C840 1.367 . S
C841 C849 1.433 . S
C842 H838 0.929 . S
C842 C844 1.378 . S
C842 C846 1.350 . S
C843 C846 1.463 . S
C843 C848 1.350 . S
C843 N851 1.427 . S
C844 H835 0.930 . S
C844 C842 1.378 . S
C844 C845 1.367 1_545 S
C845 C844 1.367 1_565 S
C845 C847 1.433 . S
C846 C842 1.350 . S
C846 C843 1.463 . S
C846 N850 1.427 1_545 S
C847 H837 0.929 . S
C847 C845 1.433 . S
C847 N850 1.384 . S
C848 H839 0.929 1_545 S
C848 C840 1.378 . S
C848 C843 1.350 . S
C849 H836 0.929 . S
C849 C841 1.433 . S
C849 N851 1.384 . S
N850 C846 1.427 1_565 S
N850 C847 1.384 . S
N851 C843 1.427 . S
N851 C849 1.384 . S
H852 C858 0.930 . S
H853 C862 0.930 . S
H854 C867 0.929 . S
H855 C865 0.929 . S
H856 C860 0.929 . S
H857 C866 0.929 . S
C858 H852 0.930 . S
C858 C859 1.367 . S
C858 C866 1.378 . S
C859 C858 1.367 . S
C859 C867 1.433 . S
C860 H856 0.929 . S
C860 C862 1.378 . S
C860 C864 1.350 . S
C861 C864 1.463 . S
C861 C866 1.350 . S
C861 N869 1.427 . S
C862 H853 0.930 . S
C862 C860 1.378 . S
C862 C863 1.367 . S
C863 C862 1.367 . S
C863 C865 1.433 . S
C864 C860 1.350 . S
C864 C861 1.463 . S
C864 N868 1.427 . S
C865 H855 0.929 . S
C865 C863 1.433 . S
C865 N868 1.384 . S
C866 H857 0.929 . S
C866 C858 1.378 . S
C866 C861 1.350 . S
C867 H854 0.929 . S
C867 C859 1.433 . S
C867 N869 1.384 . S
N868 C864 1.427 . S
N868 C865 1.384 . S
N869 C861 1.427 . S
N869 C867 1.384 . S
H870 C876 0.930 . S
H871 C880 0.930 . S
H872 C885 0.929 . S
H873 C883 0.929 . S
H874 C878 0.929 . S
H875 C884 0.929 . S
C876 H870 0.930 . S
C876 C877 1.367 . S
C876 C884 1.378 . S
C877 C876 1.367 . S
C877 C885 1.433 . S
C878 H874 0.929 . S
C878 C880 1.378 1_655 S
C878 C882 1.350 . S
C879 C882 1.463 . S
C879 C884 1.350 . S
C879 N887 1.427 . S
C880 H871 0.930 . S
C880 C878 1.378 1_455 S
C880 C881 1.367 . S
C881 C880 1.367 . S
C881 C883 1.433 . S
C882 C878 1.350 . S
C882 C879 1.463 . S
C882 N886 1.427 . S
C883 H873 0.929 . S
C883 C881 1.433 . S
C883 N886 1.384 1_455 S
C884 H875 0.929 . S
C884 C876 1.378 . S
C884 C879 1.350 . S
C885 H872 0.929 . S
C885 C877 1.433 . S
C885 N887 1.384 . S
N886 C882 1.427 . S
N886 C883 1.384 1_655 S
N887 C879 1.427 . S
N887 C885 1.384 . S
H888 C894 0.930 . S
H889 C898 0.930 . S
H890 C903 0.929 . S
H891 C901 0.929 . S
H892 C896 0.929 . S
H893 C902 0.929 . S
C894 H888 0.930 . S
C894 C895 1.367 . S
C894 C902 1.378 . S
C895 C894 1.367 . S
C895 C903 1.433 . S
C896 H892 0.929 . S
C896 C898 1.378 . S
C896 C900 1.350 1_655 S
C897 C900 1.463 . S
C897 C902 1.350 . S
C897 N905 1.427 . S
C898 H889 0.930 . S
C898 C896 1.378 . S
C898 C899 1.367 . S
C899 C898 1.367 . S
C899 C901 1.433 1_655 S
C900 C896 1.350 1_455 S
C900 C897 1.463 . S
C900 N904 1.427 . S
C901 H891 0.929 . S
C901 C899 1.433 1_455 S
C901 N904 1.384 . S
C902 H893 0.929 . S
C902 C894 1.378 . S
C902 C897 1.350 . S
C903 H890 0.929 . S
C903 C895 1.433 . S
C903 N905 1.384 . S
N904 C900 1.427 . S
N904 C901 1.384 . S
N905 C897 1.427 . S
N905 C903 1.384 . S
H906 C912 0.930 . S
H907 C916 0.930 . S
H908 C921 0.929 . S
H909 C919 0.930 . S
H910 C914 0.929 . S
H911 C920 0.929 . S
C912 H906 0.930 . S
C912 C913 1.367 . S
C912 C920 1.378 . S
C913 C912 1.367 . S
C913 C921 1.433 . S
C914 H910 0.929 . S
C914 C916 1.382 1_655 S
C914 C918 1.347 1_565 S
C915 C918 1.463 . S
C915 C920 1.350 . S
C915 N923 1.427 . S
C916 H907 0.930 . S
C916 C914 1.382 1_455 S
C916 C917 1.367 . S
C917 C916 1.367 . S
C917 C919 1.438 . S
C918 C914 1.347 1_545 S
C918 C915 1.463 . S
C918 N922 1.427 . S
C919 H909 0.930 . S
C919 C917 1.438 . S
C919 N922 1.379 1_465 S
C920 H911 0.929 . S
C920 C912 1.378 . S
C920 C915 1.350 . S
C921 H908 0.929 . S
C921 C913 1.433 . S
C921 N923 1.384 . S
N922 C918 1.427 . S
N922 C919 1.379 1_645 S
N923 C915 1.427 . S
N923 C921 1.384 . S
H924 C930 0.930 . S
H925 C934 0.930 . S
H926 C939 0.929 . S
H927 C937 0.929 . S
H928 C932 0.929 . S
H929 C938 0.929 . S
C930 H924 0.930 . S
C930 C931 1.367 . S
C930 C938 1.378 . S
C931 C930 1.367 . S
C931 C939 1.433 . S
C932 H928 0.929 . S
C932 C934 1.378 1_565 S
C932 C936 1.350 . S
C933 C936 1.463 . S
C933 C938 1.350 . S
C933 N941 1.427 . S
C934 H925 0.930 . S
C934 C932 1.378 1_545 S
C934 C935 1.367 . S
C935 C934 1.367 . S
C935 C937 1.433 . S
C936 C932 1.350 . S
C936 C933 1.463 . S
C936 N940 1.427 . S
C937 H927 0.929 . S
C937 C935 1.433 . S
C937 N940 1.384 1_545 S
C938 H929 0.929 . S
C938 C930 1.378 . S
C938 C933 1.350 . S
C939 H926 0.929 . S
C939 C931 1.433 . S
C939 N941 1.384 . S
N940 C936 1.427 . S
N940 C937 1.384 1_565 S
N941 C933 1.427 . S
N941 C939 1.384 . S
H942 C948 0.930 . S
H943 C952 0.930 . S
H944 C957 0.929 . S
H945 C955 0.929 . S
H946 C950 0.929 . S
H947 C956 0.929 . S
C948 H942 0.930 . S
C948 C949 1.367 . S
C948 C956 1.378 . S
C949 C948 1.367 . S
C949 C957 1.433 . S
C950 H946 0.929 . S
C950 C952 1.378 . S
C950 C954 1.350 . S
C951 C954 1.463 . S
C951 C956 1.350 . S
C951 N959 1.427 . S
C952 H943 0.930 . S
C952 C950 1.378 . S
C952 C953 1.367 . S
C953 C952 1.367 . S
C953 C955 1.433 . S
C954 C950 1.350 . S
C954 C951 1.463 . S
C954 N958 1.427 . S
C955 H945 0.929 . S
C955 C953 1.433 . S
C955 N958 1.384 . S
C956 H947 0.929 . S
C956 C948 1.378 . S
C956 C951 1.350 . S
C957 H944 0.929 . S
C957 C949 1.433 . S
C957 N959 1.384 . S
N958 C954 1.427 . S
N958 C955 1.384 . S
N959 C951 1.427 . S
N959 C957 1.384 . S
H960 C966 0.930 . S
H961 C970 0.930 . S
H962 C975 0.929 . S
H963 C973 0.929 . S
H964 C968 0.929 . S
H965 C974 0.929 . S
C966 H960 0.930 . S
C966 C967 1.367 . S
C966 C974 1.378 . S
C967 C966 1.367 . S
C967 C975 1.433 . S
C968 H964 0.929 . S
C968 C970 1.378 . S
C968 C972 1.350 . S
C969 C972 1.463 . S
C969 C974 1.350 . S
C969 N977 1.427 . S
C970 H961 0.930 . S
C970 C968 1.378 . S
C970 C971 1.367 . S
C971 C970 1.367 . S
C971 C973 1.433 . S
C972 C968 1.350 . S
C972 C969 1.463 . S
C972 N976 1.427 . S
C973 H963 0.929 . S
C973 C971 1.433 . S
C973 N976 1.384 . S
C974 H965 0.929 . S
C974 C966 1.378 . S
C974 C969 1.350 . S
C975 H962 0.929 . S
C975 C967 1.433 . S
C975 N977 1.384 . S
N976 C972 1.427 . S
N976 C973 1.384 . S
N977 C969 1.427 . S
N977 C975 1.384 . S
H978 C984 0.930 . S
H979 C988 0.930 . S
H980 C993 0.929 1_565 S
H981 C991 0.929 . S
H982 C986 0.929 . S
H983 C992 0.929 . S
C984 H978 0.930 . S
C984 C985 1.367 . S
C984 C992 1.378 . S
C985 C984 1.367 . S
C985 C993 1.433 . S
C986 H982 0.929 . S
C986 C988 1.378 . S
C986 C990 1.350 . S
C987 C990 1.463 . S
C987 C992 1.350 . S
C987 N995 1.427 . S
C988 H979 0.930 . S
C988 C986 1.378 . S
C988 C989 1.367 . S
C989 C988 1.367 . S
C989 C991 1.433 . S
C990 C986 1.350 . S
C990 C987 1.463 . S
C990 N994 1.427 . S
C991 H981 0.929 . S
C991 C989 1.433 . S
C991 N994 1.384 . S
C992 H983 0.929 . S
C992 C984 1.378 . S
C992 C987 1.350 . S
C993 H980 0.929 1_545 S
C993 C985 1.433 . S
C993 N995 1.384 . S
N994 C990 1.427 . S
N994 C991 1.384 . S
N995 C987 1.427 . S
N995 C993 1.384 . S
H996 C1002 0.930 . S
H997 C1006 0.930 . S
H998 C1011 0.929 . S
H999 C1009 0.929 . S
H1000 C1004 0.929 . S
H1001 C1010 0.929 . S
C1002 H996 0.930 . S
C1002 C1003 1.367 . S
C1002 C1010 1.378 . S
C1003 C1002 1.367 . S
C1003 C1011 1.433 . S
C1004 H1000 0.929 . S
C1004 C1006 1.378 . S
C1004 C1008 1.350 . S
C1005 C1008 1.463 . S
C1005 C1010 1.350 . S
C1005 N1013 1.427 . S
C1006 H997 0.930 . S
C1006 C1004 1.378 . S
C1006 C1007 1.367 . S
C1007 C1006 1.367 . S
C1007 C1009 1.433 . S
C1008 C1004 1.350 . S
C1008 C1005 1.463 . S
C1008 N1012 1.427 . S
C1009 H999 0.929 . S
C1009 C1007 1.433 . S
C1009 N1012 1.384 . S
C1010 H1001 0.929 . S
C1010 C1002 1.378 . S
C1010 C1005 1.350 . S
C1011 H998 0.929 . S
C1011 C1003 1.433 . S
C1011 N1013 1.384 . S
N1012 C1008 1.427 . S
N1012 C1009 1.384 . S
N1013 C1005 1.427 . S
N1013 C1011 1.384 . S
H1014 C1020 0.930 . S
H1015 C1024 0.930 . S
H1016 C1029 0.929 . S
H1017 C1027 0.929 . S
H1018 C1022 0.929 . S
H1019 C1028 0.929 . S
C1020 H1014 0.930 . S
C1020 C1021 1.367 . S
C1020 C1028 1.378 . S
C1021 C1020 1.367 . S
C1021 C1029 1.433 . S
C1022 H1018 0.929 . S
C1022 C1024 1.378 . S
C1022 C1026 1.350 . S
C1023 C1026 1.463 . S
C1023 C1028 1.350 . S
C1023 N1031 1.427 . S
C1024 H1015 0.930 . S
C1024 C1022 1.378 . S
C1024 C1025 1.367 . S
C1025 C1024 1.367 . S
C1025 C1027 1.433 . S
C1026 C1022 1.350 . S
C1026 C1023 1.463 . S
C1026 N1030 1.427 . S
C1027 H1017 0.929 . S
C1027 C1025 1.433 . S
C1027 N1030 1.384 . S
C1028 H1019 0.929 . S
C1028 C1020 1.378 . S
C1028 C1023 1.350 . S
C1029 H1016 0.929 . S
C1029 C1021 1.433 . S
C1029 N1031 1.384 . S
N1030 C1026 1.427 . S
N1030 C1027 1.384 . S
N1031 C1023 1.427 . S
N1031 C1029 1.384 . S
H1032 C1038 0.930 . S
H1033 C1042 0.930 . S
H1034 C1047 0.929 . S
H1035 C1045 0.929 . S
H1036 C1040 0.929 . S
H1037 C1046 0.929 . S
C1038 H1032 0.930 . S
C1038 C1039 1.367 . S
C1038 C1046 1.378 . S
C1039 C1038 1.367 . S
C1039 C1047 1.433 . S
C1040 H1036 0.929 . S
C1040 C1042 1.378 . S
C1040 C1044 1.350 . S
C1041 C1044 1.463 . S
C1041 C1046 1.350 . S
C1041 N1049 1.427 . S
C1042 H1033 0.930 . S
C1042 C1040 1.378 . S
C1042 C1043 1.367 . S
C1043 C1042 1.367 . S
C1043 C1045 1.433 . S
C1044 C1040 1.350 . S
C1044 C1041 1.463 . S
C1044 N1048 1.427 . S
C1045 H1035 0.929 . S
C1045 C1043 1.433 . S
C1045 N1048 1.384 . S
C1046 H1037 0.929 . S
C1046 C1038 1.378 . S
C1046 C1041 1.350 . S
C1047 H1034 0.929 . S
C1047 C1039 1.433 . S
C1047 N1049 1.384 . S
N1048 C1044 1.427 . S
N1048 C1045 1.384 . S
N1049 C1041 1.427 . S
N1049 C1047 1.384 . S
H1050 C1056 0.930 . S
H1051 C1060 0.930 . S
H1052 C1065 0.929 1_455 S
H1053 C1063 0.929 . S
H1054 C1058 0.929 . S
H1055 C1064 0.929 . S
C1056 H1050 0.930 . S
C1056 C1057 1.367 . S
C1056 C1064 1.378 . S
C1057 C1056 1.367 . S
C1057 C1065 1.433 . S
C1058 H1054 0.929 . S
C1058 C1060 1.378 . S
C1058 C1062 1.350 . S
C1059 C1062 1.463 . S
C1059 C1064 1.350 . S
C1059 N1067 1.427 . S
C1060 H1051 0.930 . S
C1060 C1058 1.378 . S
C1060 C1061 1.367 . S
C1061 C1060 1.367 . S
C1061 C1063 1.433 . S
C1062 C1058 1.350 . S
C1062 C1059 1.463 . S
C1062 N1066 1.427 . S
C1063 H1053 0.929 . S
C1063 C1061 1.433 . S
C1063 N1066 1.384 . S
C1064 H1055 0.929 . S
C1064 C1056 1.378 . S
C1064 C1059 1.350 . S
C1065 H1052 0.929 1_655 S
C1065 C1057 1.433 . S
C1065 N1067 1.384 . S
N1066 C1062 1.427 . S
N1066 C1063 1.384 . S
N1067 C1059 1.427 . S
N1067 C1065 1.384 . S
H1068 C1074 0.930 . S
H1069 C1078 0.930 . S
H1070 C1083 0.929 . S
H1071 C1081 0.929 . S
H1072 C1076 0.929 . S
H1073 C1082 0.929 . S
C1074 H1068 0.930 . S
C1074 C1075 1.367 . S
C1074 C1082 1.378 . S
C1075 C1074 1.367 . S
C1075 C1083 1.433 . S
C1076 H1072 0.929 . S
C1076 C1078 1.378 . S
C1076 C1080 1.350 . S
C1077 C1080 1.463 . S
C1077 C1082 1.350 . S
C1077 N1085 1.427 . S
C1078 H1069 0.930 . S
C1078 C1076 1.378 . S
C1078 C1079 1.367 . S
C1079 C1078 1.367 . S
C1079 C1081 1.433 . S
C1080 C1076 1.350 . S
C1080 C1077 1.463 . S
C1080 N1084 1.427 . S
C1081 H1071 0.929 . S
C1081 C1079 1.433 . S
C1081 N1084 1.384 . S
C1082 H1073 0.929 . S
C1082 C1074 1.378 . S
C1082 C1077 1.350 . S
C1083 H1070 0.929 . S
C1083 C1075 1.433 . S
C1083 N1085 1.384 . S
N1084 C1080 1.427 . S
N1084 C1081 1.384 . S
N1085 C1077 1.427 . S
N1085 C1083 1.384 . S
H1086 C1092 0.930 . S
H1087 C1096 0.930 . S
H1088 C1101 0.929 . S
H1089 C1099 0.929 . S
H1090 C1094 0.929 . S
H1091 C1100 0.929 . S
C1092 H1086 0.930 . S
C1092 C1093 1.367 . S
C1092 C1100 1.378 . S
C1093 C1092 1.367 . S
C1093 C1101 1.433 . S
C1094 H1090 0.929 . S
C1094 C1096 1.378 . S
C1094 C1098 1.350 . S
C1095 C1098 1.463 . S
C1095 C1100 1.350 . S
C1095 N1103 1.427 . S
C1096 H1087 0.930 . S
C1096 C1094 1.378 . S
C1096 C1097 1.367 . S
C1097 C1096 1.367 . S
C1097 C1099 1.433 . S
C1098 C1094 1.350 . S
C1098 C1095 1.463 . S
C1098 N1102 1.427 . S
C1099 H1089 0.929 . S
C1099 C1097 1.433 . S
C1099 N1102 1.384 . S
C1100 H1091 0.929 . S
C1100 C1092 1.378 . S
C1100 C1095 1.350 . S
C1101 H1088 0.929 . S
C1101 C1093 1.433 . S
C1101 N1103 1.384 . S
N1102 C1098 1.427 . S
N1102 C1099 1.384 . S
N1103 C1095 1.427 . S
N1103 C1101 1.384 . S
H1104 C1110 0.930 . S
H1105 C1114 0.930 . S
H1106 C1119 0.929 . S
H1107 C1117 0.929 . S
H1108 C1112 0.929 . S
H1109 C1118 0.929 . S
C1110 H1104 0.930 . S
C1110 C1111 1.367 . S
C1110 C1118 1.378 . S
C1111 C1110 1.367 . S
C1111 C1119 1.433 . S
C1112 H1108 0.929 . S
C1112 C1114 1.378 . S
C1112 C1116 1.350 . S
C1113 C1116 1.463 . S
C1113 C1118 1.350 . S
C1113 N1121 1.427 . S
C1114 H1105 0.930 . S
C1114 C1112 1.378 . S
C1114 C1115 1.367 . S
C1115 C1114 1.367 . S
C1115 C1117 1.433 . S
C1116 C1112 1.350 . S
C1116 C1113 1.463 . S
C1116 N1120 1.427 . S
C1117 H1107 0.929 . S
C1117 C1115 1.433 . S
C1117 N1120 1.384 . S
C1118 H1109 0.929 . S
C1118 C1110 1.378 . S
C1118 C1113 1.350 . S
C1119 H1106 0.929 . S
C1119 C1111 1.433 . S
C1119 N1121 1.384 . S
N1120 C1116 1.427 . S
N1120 C1117 1.384 . S
N1121 C1113 1.427 . S
N1121 C1119 1.384 . S
H1122 C1128 0.930 . S
H1123 C1132 0.930 . S
H1124 C1137 0.929 . S
H1125 C1135 0.929 . S
H1126 C1130 0.929 . S
H1127 C1136 0.929 . S
C1128 H1122 0.930 . S
C1128 C1129 1.367 . S
C1128 C1136 1.378 . S
C1129 C1128 1.367 . S
C1129 C1137 1.433 . S
C1130 H1126 0.929 . S
C1130 C1132 1.378 . S
C1130 C1134 1.350 . S
C1131 C1134 1.463 . S
C1131 C1136 1.350 . S
C1131 N1139 1.427 . S
C1132 H1123 0.930 . S
C1132 C1130 1.378 . S
C1132 C1133 1.367 . S
C1133 C1132 1.367 . S
C1133 C1135 1.433 . S
C1134 C1130 1.350 . S
C1134 C1131 1.463 . S
C1134 N1138 1.427 . S
C1135 H1125 0.929 . S
C1135 C1133 1.433 . S
C1135 N1138 1.384 . S
C1136 H1127 0.929 . S
C1136 C1128 1.378 . S
C1136 C1131 1.350 . S
C1137 H1124 0.929 . S
C1137 C1129 1.433 . S
C1137 N1139 1.384 . S
N1138 C1134 1.427 . S
N1138 C1135 1.384 . S
N1139 C1131 1.427 . S
N1139 C1137 1.384 . S
H1140 C1146 0.930 . S
H1141 C1150 0.930 . S
H1142 C1155 0.929 . S
H1143 C1153 0.929 . S
H1144 C1148 0.929 . S
H1145 C1154 0.929 . S
C1146 H1140 0.930 . S
C1146 C1147 1.367 . S
C1146 C1154 1.378 . S
C1147 C1146 1.367 . S
C1147 C1155 1.433 . S
C1148 H1144 0.929 . S
C1148 C1150 1.378 . S
C1148 C1152 1.350 . S
C1149 C1152 1.463 . S
C1149 C1154 1.350 . S
C1149 N1157 1.427 . S
C1150 H1141 0.930 . S
C1150 C1148 1.378 . S
C1150 C1151 1.367 . S
C1151 C1150 1.367 . S
C1151 C1153 1.433 . S
C1152 C1148 1.350 . S
C1152 C1149 1.463 . S
C1152 N1156 1.427 . S
C1153 H1143 0.929 . S
C1153 C1151 1.433 . S
C1153 N1156 1.384 . S
C1154 H1145 0.929 . S
C1154 C1146 1.378 . S
C1154 C1149 1.350 . S
C1155 H1142 0.929 . S
C1155 C1147 1.433 . S
C1155 N1157 1.384 . S
N1156 C1152 1.427 . S
N1156 C1153 1.384 . S
N1157 C1149 1.427 . S
N1157 C1155 1.384 . S
H1158 C1164 0.930 . S
H1159 C1168 0.930 . S
H1160 C1173 0.929 . S
H1161 C1171 0.929 . S
H1162 C1166 0.929 . S
H1163 C1172 0.929 . S
C1164 H1158 0.930 . S
C1164 C1165 1.367 . S
C1164 C1172 1.378 . S
C1165 C1164 1.367 . S
C1165 C1173 1.433 . S
C1166 H1162 0.929 . S
C1166 C1168 1.378 . S
C1166 C1170 1.350 . S
C1167 C1170 1.463 . S
C1167 C1172 1.350 . S
C1167 N1175 1.427 . S
C1168 H1159 0.930 . S
C1168 C1166 1.378 . S
C1168 C1169 1.367 . S
C1169 C1168 1.367 . S
C1169 C1171 1.433 . S
C1170 C1166 1.350 . S
C1170 C1167 1.463 . S
C1170 N1174 1.427 . S
C1171 H1161 0.929 . S
C1171 C1169 1.433 . S
C1171 N1174 1.384 . S
C1172 H1163 0.929 . S
C1172 C1164 1.378 . S
C1172 C1167 1.350 . S
C1173 H1160 0.929 . S
C1173 C1165 1.433 . S
C1173 N1175 1.384 . S
N1174 C1170 1.427 . S
N1174 C1171 1.384 . S
N1175 C1167 1.427 . S
N1175 C1173 1.384 . S
H1176 C1182 0.930 . S
H1177 C1186 0.930 . S
H1178 C1191 0.929 . S
H1179 C1189 0.929 . S
H1180 C1184 0.929 . S
H1181 C1190 0.929 . S
C1182 H1176 0.930 . S
C1182 C1183 1.367 . S
C1182 C1190 1.378 . S
C1183 C1182 1.367 . S
C1183 C1191 1.433 . S
C1184 H1180 0.929 . S
C1184 C1186 1.378 . S
C1184 C1188 1.350 . S
C1185 C1188 1.463 . S
C1185 C1190 1.350 . S
C1185 N1193 1.427 . S
C1186 H1177 0.930 . S
C1186 C1184 1.378 . S
C1186 C1187 1.367 . S
C1187 C1186 1.367 . S
C1187 C1189 1.433 . S
C1188 C1184 1.350 . S
C1188 C1185 1.463 . S
C1188 N1192 1.427 . S
C1189 H1179 0.929 . S
C1189 C1187 1.433 . S
C1189 N1192 1.384 . S
C1190 H1181 0.929 . S
C1190 C1182 1.378 . S
C1190 C1185 1.350 . S
C1191 H1178 0.929 . S
C1191 C1183 1.433 . S
C1191 N1193 1.384 . S
N1192 C1188 1.427 . S
N1192 C1189 1.384 . S
N1193 C1185 1.427 . S
N1193 C1191 1.384 . S
H1194 C1200 0.930 . S
H1195 C1204 0.930 . S
H1196 C1209 0.929 . S
H1197 C1207 0.929 . S
H1198 C1202 0.929 . S
H1199 C1208 0.929 . S
C1200 H1194 0.930 . S
C1200 C1201 1.367 . S
C1200 C1208 1.378 . S
C1201 C1200 1.367 . S
C1201 C1209 1.433 . S
C1202 H1198 0.929 . S
C1202 C1204 1.378 . S
C1202 C1206 1.350 . S
C1203 C1206 1.463 . S
C1203 C1208 1.350 . S
C1203 N1211 1.427 . S
C1204 H1195 0.930 . S
C1204 C1202 1.378 . S
C1204 C1205 1.367 . S
C1205 C1204 1.367 . S
C1205 C1207 1.433 . S
C1206 C1202 1.350 . S
C1206 C1203 1.463 . S
C1206 N1210 1.427 . S
C1207 H1197 0.929 . S
C1207 C1205 1.433 . S
C1207 N1210 1.384 . S
C1208 H1199 0.929 . S
C1208 C1200 1.378 . S
C1208 C1203 1.350 . S
C1209 H1196 0.929 . S
C1209 C1201 1.433 . S
C1209 N1211 1.384 . S
N1210 C1206 1.427 . S
N1210 C1207 1.384 . S
N1211 C1203 1.427 . S
N1211 C1209 1.384 . S
H1212 C1218 0.930 . S
H1213 C1222 0.930 . S
H1214 C1227 0.929 . S
H1215 C1225 0.929 . S
H1216 C1220 0.929 . S
H1217 C1226 0.929 . S
C1218 H1212 0.930 . S
C1218 C1219 1.367 . S
C1218 C1226 1.378 . S
C1219 C1218 1.367 . S
C1219 C1227 1.433 . S
C1220 H1216 0.929 . S
C1220 C1222 1.378 . S
C1220 C1224 1.350 . S
C1221 C1224 1.463 . S
C1221 C1226 1.350 . S
C1221 N1229 1.427 . S
C1222 H1213 0.930 . S
C1222 C1220 1.378 . S
C1222 C1223 1.367 . S
C1223 C1222 1.367 . S
C1223 C1225 1.433 . S
C1224 C1220 1.350 . S
C1224 C1221 1.463 . S
C1224 N1228 1.427 . S
C1225 H1215 0.929 . S
C1225 C1223 1.433 . S
C1225 N1228 1.384 . S
C1226 H1217 0.929 . S
C1226 C1218 1.378 . S
C1226 C1221 1.350 . S
C1227 H1214 0.929 . S
C1227 C1219 1.433 . S
C1227 N1229 1.384 . S
N1228 C1224 1.427 . S
N1228 C1225 1.384 . S
N1229 C1221 1.427 . S
N1229 C1227 1.384 . S
H1230 C1236 0.930 . S
H1231 C1240 0.930 . S
H1232 C1245 0.929 . S
H1233 C1243 0.929 . S
H1234 C1238 0.929 . S
H1235 C1244 0.929 . S
C1236 H1230 0.930 . S
C1236 C1237 1.367 . S
C1236 C1244 1.378 . S
C1237 C1236 1.367 . S
C1237 C1245 1.433 . S
C1238 H1234 0.929 . S
C1238 C1240 1.378 . S
C1238 C1242 1.350 . S
C1239 C1242 1.463 . S
C1239 C1244 1.350 . S
C1239 N1247 1.427 . S
C1240 H1231 0.930 . S
C1240 C1238 1.378 . S
C1240 C1241 1.367 . S
C1241 C1240 1.367 . S
C1241 C1243 1.433 . S
C1242 C1238 1.350 . S
C1242 C1239 1.463 . S
C1242 N1246 1.427 . S
C1243 H1233 0.929 . S
C1243 C1241 1.433 . S
C1243 N1246 1.384 . S
C1244 H1235 0.929 . S
C1244 C1236 1.378 . S
C1244 C1239 1.350 . S
C1245 H1232 0.929 . S
C1245 C1237 1.433 . S
C1245 N1247 1.384 . S
N1246 C1242 1.427 . S
N1246 C1243 1.384 . S
N1247 C1239 1.427 . S
N1247 C1245 1.384 . S
C535 N146 1.565 . S
C539 N14 1.568 . S
C553 N179 1.576 . S
C557 N47 1.567 . S
C571 N80 1.565 . S
C575 N212 1.574 . S
C589 N245 1.569 . S
C593 N113 1.564 . S
C607 N410 1.575 . S
C611 N278 1.566 . S
C625 N311 1.565 . S
C629 N443 1.567 . S
C643 N344 1.567 . S
C647 N476 1.565 . S
C661 N377 1.577 . S
C665 N509 1.571 . S
C679 C8 1.756 . S
C683 C424 1.858 . S
C697 C41 1.760 . S
C701 C457 1.860 . S
C715 C490 1.854 . S
C719 C74 1.752 . S
C733 C107 1.747 . S
C737 C523 1.852 . S
C751 C292 1.856 . S
C755 C140 1.754 . S
C769 C325 1.857 . S
C773 C173 1.754 . S
C787 C206 1.743 . S
C791 C358 1.849 . S
C805 C391 1.849 . S
C809 C239 1.743 . S
C823 C272 1.756 . S
C827 C160 1.856 . S
C841 C305 1.749 . S
C845 C193 1.852 . S
C859 C226 1.853 . S
C863 C338 1.748 . S
C877 C371 1.759 . S
C881 C259 1.859 . S
C895 C404 1.754 . S
C899 C28 1.857 . S
C913 C437 1.752 . S
C917 C61 1.856 . S
C931 C470 1.752 . S
C935 C94 1.856 . S
C949 C127 1.857 . S
C953 C503 1.757 . S
C967 N236 1.803 . S
C971 N5 1.802 . S
C985 N38 1.802 . S
C989 N137 1.804 . S
C1003 N170 1.802 . S
C1007 N71 1.803 . S
C1021 N203 1.804 . S
C1025 N104 1.800 . S
C1039 N269 1.803 . S
C1043 N500 1.803 . S
C1057 N401 1.801 . S
C1061 N302 1.804 . S
C1075 N335 1.804 . S
C1079 N434 1.801 . S
C1093 N467 1.800 . S
C1097 N368 1.804 . S
C1111 C83 0.913 . S
C1115 C17 0.920 . S
C1129 C116 0.929 . S
C1133 C50 0.927 . S
C1147 C149 0.926 . S
C1151 C215 0.920 . S
C1165 C248 0.920 . S
C1169 C182 0.913 . S
C1183 C281 0.925 . S
C1187 C347 0.919 . S
C1201 C380 0.921 . S
C1205 C314 0.927 . S
C1219 C413 0.928 . S
C1223 C479 0.929 . S
C1237 C446 0.930 . S
C1241 C512 0.928 . S
