# Generated by pormake.
# Topology smc, (6)-cn, num edge types: 1
# Building blocks:
#     Node 0, Type 0, BuildingBlock: VOLQOD_clean_sbu_1, # of connection points: 6
#     Node 1, Type 0, BuildingBlock: VOLQOD_clean_sbu_1, # of connection points: 6
#     Node 2, Type 0, BuildingBlock: VOLQOD_clean_sbu_1, # of connection points: 6
#     Node 3, Type 0, BuildingBlock: VOLQOD_clean_sbu_1, # of connection points: 6
#     Node 4, Type 0, BuildingBlock: VOLQOD_clean_sbu_1, # of connection points: 6
#     Node 5, Type 0, BuildingBlock: VOLQOD_clean_sbu_1, # of connection points: 6
#     Node 6, Type 0, BuildingBlock: VOLQOD_clean_sbu_1, # of connection points: 6
#     Node 7, Type 0, BuildingBlock: VOLQOD_clean_sbu_1, # of connection points: 6
#     Node 8, Type 0, BuildingBlock: VOLQOD_clean_sbu_1, # of connection points: 6
#     Edge 9, Type (0, 0), BuildingBlock: AJUNOK_clean_linker_0, # of connection points: 2
#     Edge 10, Type (0, 0), BuildingBlock: AJUNOK_clean_linker_0, # of connection points: 2
#     Edge 11, Type (0, 0), BuildingBlock: AJUNOK_clean_linker_0, # of connection points: 2
#     Edge 12, Type (0, 0), BuildingBlock: AJUNOK_clean_linker_0, # of connection points: 2
#     Edge 13, Type (0, 0), BuildingBlock: AJUNOK_clean_linker_0, # of connection points: 2
#     Edge 14, Type (0, 0), BuildingBlock: AJUNOK_clean_linker_0, # of connection points: 2
#     Edge 15, Type (0, 0), BuildingBlock: AJUNOK_clean_linker_0, # of connection points: 2
#     Edge 16, Type (0, 0), BuildingBlock: AJUNOK_clean_linker_0, # of connection points: 2
#     Edge 17, Type (0, 0), BuildingBlock: AJUNOK_clean_linker_0, # of connection points: 2
#     Edge 18, Type (0, 0), BuildingBlock: AJUNOK_clean_linker_0, # of connection points: 2
#     Edge 19, Type (0, 0), BuildingBlock: AJUNOK_clean_linker_0, # of connection points: 2
#     Edge 20, Type (0, 0), BuildingBlock: AJUNOK_clean_linker_0, # of connection points: 2
#     Edge 21, Type (0, 0), BuildingBlock: AJUNOK_clean_linker_0, # of connection points: 2
#     Edge 22, Type (0, 0), BuildingBlock: AJUNOK_clean_linker_0, # of connection points: 2
#     Edge 23, Type (0, 0), BuildingBlock: AJUNOK_clean_linker_0, # of connection points: 2
#     Edge 24, Type (0, 0), BuildingBlock: AJUNOK_clean_linker_0, # of connection points: 2
#     Edge 25, Type (0, 0), BuildingBlock: AJUNOK_clean_linker_0, # of connection points: 2
#     Edge 26, Type (0, 0), BuildingBlock: AJUNOK_clean_linker_0, # of connection points: 2
#     Edge 27, Type (0, 0), BuildingBlock: AJUNOK_clean_linker_0, # of connection points: 2
#     Edge 28, Type (0, 0), BuildingBlock: AJUNOK_clean_linker_0, # of connection points: 2
#     Edge 29, Type (0, 0), BuildingBlock: AJUNOK_clean_linker_0, # of connection points: 2
#     Edge 30, Type (0, 0), BuildingBlock: AJUNOK_clean_linker_0, # of connection points: 2
#     Edge 31, Type (0, 0), BuildingBlock: AJUNOK_clean_linker_0, # of connection points: 2
#     Edge 32, Type (0, 0), BuildingBlock: AJUNOK_clean_linker_0, # of connection points: 2
#     Edge 33, Type (0, 0), BuildingBlock: AJUNOK_clean_linker_0, # of connection points: 2
#     Edge 34, Type (0, 0), BuildingBlock: AJUNOK_clean_linker_0, # of connection points: 2
#     Edge 35, Type (0, 0), BuildingBlock: AJUNOK_clean_linker_0, # of connection points: 2
# Relax obj value: 0.338
# Max RMSD: 0.274
# Mean RMSD: 0.261
data_MOF--net-smc--node1-VOLQOD_clean_sbu_1--edge1-AJUNOK_clean_linker_0
_symmetry_space_group_name_H-M    P1
_symmetry_Int_Tables_number       1
_symmetry_cell_setting            triclinic
loop_
_symmetry_equiv_pos_as_xyz
'x, y, z'
_cell_length_a     24.106264
_cell_length_b     24.335751
_cell_length_c     36.923413
_cell_angle_alpha  89.755784
_cell_angle_beta   90.338784
_cell_angle_gamma 121.07362
loop_
_atom_site_label
_atom_site_type_symbol
_atom_site_fract_x
_atom_site_fract_y
_atom_site_fract_z
_atom_type_partial_charge
O0 O 0.90529 0.50046 0.99472 0.0
Zn1 Zn -0.03067 0.47661 0.97945 0.0
O2 O -0.01703 0.43282 0.01917 0.0
Zn3 Zn -0.02663 0.3535 1.00318 0.0
Zn4 Zn 0.92802 0.42069 0.05917 0.0
Zn5 Zn 0.06741 0.48697 0.03723 0.0
O6 O 0.05964 0.35785 1.00405 0.0
O7 O 0.12461 0.46314 0.01321 0.0
O8 O 0.93908 0.42272 0.9334 0.0
O9 O 0.94359 0.33821 0.95158 0.0
O10 O 0.90063 0.27989 0.03032 0.0
O11 O 0.85669 0.3299 0.05775 0.0
O12 O -0.02743 0.43093 0.10717 0.0
O13 O 0.04846 0.5637 0.97135 0.0
O14 O 0.07463 0.474 0.09053 0.0
O15 O 0.09404 0.57732 0.02576 0.0
C16 C 0.88448 0.50494 0.02554 0.0
C17 C 0.11561 0.40863 1.00447 0.0
C18 C 0.85467 0.27876 0.04797 0.0
C19 C 0.9312 0.36753 0.92724 0.0
C20 C 0.03144 0.4506 0.11494 0.0
C21 C 0.08604 0.59996 0.99635 0.0
O22 O 0.89286 0.47964 0.0538 0.0
O23 O 0.48269 0.41593 0.98302 0.0
Zn24 Zn 0.50002 0.50157 0.9656 0.0
O25 O 0.55105 0.56619 1.00147 0.0
Zn26 Zn 0.6286 0.63698 0.9813 0.0
Zn27 Zn 0.56735 0.52842 0.04189 0.0
Zn28 Zn 0.50115 0.59735 0.02166 0.0
O29 O 0.62582 0.71956 0.98624 0.0
O30 O 0.51891 0.67283 0.99325 0.0
O31 O 0.54461 0.52499 0.91623 0.0
O32 O 0.62984 0.62206 0.92768 0.0
O33 O 0.70677 0.63641 1.00284 0.0
O34 O 0.65672 0.54878 0.03757 0.0
O35 O 0.56567 0.56725 0.08901 0.0
O36 O 0.40924 0.48605 0.96366 0.0
O37 O 0.52491 0.62702 0.07393 0.0
O38 O 0.40878 0.52931 0.01665 0.0
C39 C 0.48148 0.3952 0.01496 0.0
C40 C 0.57367 0.72129 0.9853 0.0
C41 C 0.7078 0.5945 0.02345 0.0
C42 C 0.59573 0.57615 0.90586 0.0
C43 C 0.55067 0.60848 0.0974 0.0
C44 C 0.37904 0.49206 0.99014 0.0
O45 O 0.50788 0.43336 0.04155 0.0
O46 O 0.48473 0.91314 0.02594 0.0
Zn47 Zn 0.46179 0.97587 0.04528 0.0
O48 O 0.42088 -0.00312 0.00727 0.0
Zn49 Zn 0.34412 -0.00734 0.02451 0.0
Zn50 Zn 0.40373 0.94395 0.96628 0.0
Zn51 Zn 0.47974 0.08011 0.9901 0.0
O52 O 0.3508 0.0788 0.01705 0.0
O53 O 0.45883 0.13798 0.01561 0.0
O54 O 0.40847 0.94782 0.09187 0.0
O55 O 0.3375 0.97743 0.07836 0.0
O56 O 0.26599 0.91373 1.0032 0.0
O57 O 0.31367 0.87241 0.97079 0.0
O58 O 0.40785 -0.0101 0.92026 0.0
O59 O 0.54962 0.05209 0.05601 0.0
O60 O 0.46819 0.09159 0.93659 0.0
O61 O 0.56952 0.10283 1.00299 0.0
C62 C 0.49022 0.89846 0.99354 0.0
C63 C 0.40394 0.13249 0.02014 0.0
C64 C 0.26341 0.86824 0.98462 0.0
C65 C 0.36284 0.95699 0.101 0.0
C66 C 0.43534 0.04935 0.91271 0.0
C67 C 0.58879 0.09231 0.033 0.0
O68 O 0.46454 0.91063 0.96676 0.0
O69 O 0.57162 0.84122 0.31394 0.0
Zn70 Zn 0.64113 0.82536 0.29696 0.0
O71 O 0.65843 0.78101 0.33491 0.0
Zn72 Zn 0.65068 0.70325 0.3185 0.0
Zn73 Zn 0.60614 0.76735 0.37585 0.0
Zn74 Zn 0.7431 0.83429 0.35217 0.0
O75 O 0.73741 0.7085 0.32263 0.0
O76 O 0.79959 0.81523 0.3231 0.0
O77 O 0.61858 0.7762 0.24882 0.0
O78 O 0.62907 0.69426 0.26581 0.0
O79 O 0.5744 0.62767 0.34295 0.0
O80 O 0.53396 0.67804 0.37349 0.0
O81 O 0.65161 0.77121 0.42238 0.0
O82 O 0.71594 0.91673 0.2924 0.0
O83 O 0.75347 0.81599 0.40471 0.0
O84 O 0.76469 0.92394 0.34516 0.0
C85 C 0.55775 0.84935 0.34603 0.0
C86 C 0.79195 0.76007 0.31794 0.0
C87 C 0.53003 0.62688 0.36209 0.0
C88 C 0.61749 0.72433 0.24152 0.0
C89 C 0.71052 0.78976 0.42919 0.0
C90 C 0.75356 0.94984 0.31826 0.0
O91 O 0.57279 0.82781 0.37361 0.0
O92 O 0.16106 0.75651 0.32972 0.0
Zn93 Zn 0.1791 0.84086 0.30937 0.0
O94 O 0.22283 0.90708 0.34569 0.0
Zn95 Zn 0.29799 -0.01989 0.32482 0.0
Zn96 Zn 0.24534 0.8744 0.38642 0.0
Zn97 Zn 0.16491 0.93016 0.36508 0.0
O98 O 0.29228 0.0604 0.33115 0.0
O99 O 0.18617 0.01215 0.34243 0.0
O100 O 0.22832 0.86395 0.26145 0.0
O101 O 0.29954 0.96733 0.27107 0.0
O102 O 0.379 -0.01763 0.34337 0.0
O103 O 0.33533 0.89672 0.37956 0.0
O104 O 0.24034 0.91225 0.43351 0.0
O105 O 0.0895 0.82474 0.30072 0.0
O106 O 0.17582 0.94842 0.4192 0.0
O107 O 0.07427 0.86295 0.35214 0.0
C108 C 0.16165 0.73864 0.36218 0.0
C109 C 0.23988 0.06133 0.33364 0.0
C110 C 0.38375 0.94148 0.36294 0.0
C111 C 0.27278 0.91883 0.25014 0.0
C112 C 0.20985 0.9399 0.44247 0.0
C113 C 0.05258 0.82914 0.32353 0.0
O114 O 0.1888 0.77907 0.3877 0.0
O115 O 0.23731 0.41756 0.33126 0.0
Zn116 Zn 0.14815 0.35136 0.31514 0.0
O117 O 0.088 0.33846 0.35351 0.0
Zn118 Zn 0.01988 0.35063 0.33572 0.0
Zn119 Zn 0.1315 0.39266 0.39374 0.0
Zn120 Zn 0.05333 0.25483 0.37222 0.0
O121 O 0.93377 0.26629 0.33602 0.0
O122 O -0.02902 0.20039 0.34661 0.0
O123 O 0.12516 0.37799 0.26751 0.0
O124 O 0.03597 0.37648 0.28368 0.0
O125 O 0.02414 0.42692 0.36033 0.0
O126 O 0.11704 0.46524 0.3907 0.0
O127 O 0.09575 0.34983 0.44161 0.0
O128 O 0.15718 0.27399 0.3095 0.0
O129 O 0.03182 0.24846 0.42557 0.0
O130 O 0.11633 0.22644 0.36248 0.0
C131 C 0.26179 0.43728 0.36263 0.0
C132 C 0.92643 0.21046 0.3365 0.0
C133 C 0.07083 0.47119 0.37869 0.0
C134 C 0.07806 0.38599 0.25993 0.0
C135 C 0.0546 0.29191 0.44974 0.0
C136 C 0.15102 0.23522 0.33464 0.0
O137 O 0.22636 0.42661 0.39032 0.0
O138 O 0.22191 0.1659 0.66578 0.0
Zn139 Zn 0.28621 0.14563 0.64501 0.0
O140 O 0.30927 0.1048 0.68205 0.0
Zn141 Zn 0.305 0.02908 0.66423 0.0
Zn142 Zn 0.2559 0.08483 0.72328 0.0
Zn143 Zn 0.39397 0.16374 0.69872 0.0
O144 O 0.39321 0.038 0.66708 0.0
O145 O 0.45286 0.14467 0.67184 0.0
O146 O 0.25601 0.09282 0.59828 0.0
O147 O 0.28037 0.01872 0.61176 0.0
O148 O 0.23121 0.95059 0.6879 0.0
O149 O 0.18436 -0.00529 0.7183 0.0
O150 O 0.30418 0.08888 0.76851 0.0
O151 O 0.36185 0.23389 0.63473 0.0
O152 O 0.40652 0.15132 0.75203 0.0
O153 O 0.41556 0.25285 0.68692 0.0
C154 C 0.20707 0.16944 0.69847 0.0
C155 C 0.44722 0.09088 0.66477 0.0
C156 C 0.18345 0.94578 0.70547 0.0
C157 C 0.26002 0.04432 0.58932 0.0
C158 C 0.36441 0.1173 0.7758 0.0
C159 C 0.40326 0.27252 0.65763 0.0
O160 O 0.22096 0.14383 0.72446 0.0
O161 O 0.8056 0.08459 0.6618 0.0
Zn162 Zn 0.83196 0.17334 0.64631 0.0
O163 O 0.87844 0.23059 0.68604 0.0
Zn164 Zn 0.95795 0.30361 0.6696 0.0
Zn165 Zn 0.89106 0.18817 0.7256 0.0
Zn166 Zn 0.82372 0.25663 0.70517 0.0
O167 O 0.94938 0.38312 0.66808 0.0
O168 O 0.84296 0.33402 0.67827 0.0
O169 O 0.8859 0.19791 0.60015 0.0
O170 O -0.02783 0.28883 0.61816 0.0
O171 O 0.03418 0.30693 0.69589 0.0
O172 O -0.01788 0.21167 0.72359 0.0
O173 O 0.88013 0.21882 0.77387 0.0
O174 O 0.74594 0.16642 0.6384 0.0
O175 O 0.83974 0.27911 0.75844 0.0
O176 O 0.73245 0.18826 0.69504 0.0
C177 C 0.80479 0.05933 0.69222 0.0
C178 C 0.89572 0.38198 0.66728 0.0
C179 C 0.03425 0.26144 0.71339 0.0
C180 C 0.94203 0.24647 0.59395 0.0
C181 C 0.86162 0.25741 0.78242 0.0
C182 C 0.70951 0.16231 0.66442 0.0
O183 O 0.83361 0.09314 0.72005 0.0
O184 O 0.81126 0.58019 0.68389 0.0
Zn185 Zn 0.78992 0.64379 0.70209 0.0
O186 O 0.74752 0.66199 0.66352 0.0
Zn187 Zn 0.6714 0.65892 0.68175 0.0
Zn188 Zn 0.72884 0.60715 0.62273 0.0
Zn189 Zn 0.80716 0.74478 0.64582 0.0
O190 O 0.68033 0.74619 0.67718 0.0
O191 O 0.78795 0.8039 0.67139 0.0
O192 O 0.73677 0.61451 0.74854 0.0
O193 O 0.66253 0.6398 0.73529 0.0
O194 O 0.59203 0.58319 0.65935 0.0
O195 O 0.63663 0.53897 0.62672 0.0
O196 O 0.73695 0.65348 0.57567 0.0
O197 O 0.87863 0.72012 0.71202 0.0
O198 O 0.79654 0.75522 0.59231 0.0
O199 O 0.89692 0.76676 0.65791 0.0
C200 C 0.81239 0.55909 0.65255 0.0
C201 C 0.73426 0.79933 0.67882 0.0
C202 C 0.5873 0.5373 0.64022 0.0
C203 C 0.6888 0.61992 0.75759 0.0
C204 C 0.76536 0.71307 0.56813 0.0
C205 C 0.91733 0.75775 0.68792 0.0
O206 O 0.78545 0.56812 0.62514 0.0
C207 C 0.27737 0.43499 0.02503 0.0
C208 C 0.30797 0.45483 0.99117 0.0
C209 C 0.21115 0.41088 0.02845 0.0
C210 C 0.17366 0.40596 0.99814 0.0
H211 H 0.30546 0.44166 0.0494 0.0
H212 H 0.19038 0.40154 0.05536 0.0
S213 S 0.22847 0.44336 0.90305 0.0
N214 N 0.2945 0.46095 0.92622 0.0
N215 N 0.16933 0.41654 0.93298 0.0
C216 C 0.20219 0.42018 0.96377 0.0
C217 C 0.26977 0.44434 0.96017 0.0
C218 C 0.50906 0.82377 0.95698 0.0
C219 C 0.52521 0.8644 0.98714 0.0
C220 C 0.53278 0.78233 0.95378 0.0
C221 C 0.57439 0.7812 0.98017 0.0
H222 H 0.47406 0.8203 0.93717 0.0
H223 H 0.51407 0.74708 0.93221 0.0
S224 S 0.64114 0.88647 0.0604 0.0
N225 N 0.59297 0.90763 0.04104 0.0
N226 N 0.63741 0.82929 0.03467 0.0
C227 C 0.59634 0.82613 0.00828 0.0
C228 C 0.5716 0.86784 0.01191 0.0
C229 C 0.19129 0.76357 0.95497 0.0
C230 C 0.20457 0.80436 0.98484 0.0
C231 C 0.14937 0.69723 0.95817 0.0
C232 C 0.12092 0.66982 0.99158 0.0
H233 H 0.21664 0.78268 0.92963 0.0
H234 H 0.14275 0.667 0.93511 0.0
S235 S 0.1327 0.75636 0.0764 0.0
N236 N 0.17992 0.81335 0.04754 0.0
N237 N 0.10196 0.68833 0.05374 0.0
C238 C 0.1298 0.71039 0.02082 0.0
C239 C 0.17134 0.77794 0.01735 0.0
C240 C 0.38611 0.21676 0.99627 0.0
C241 C 0.4047 0.19225 0.02519 0.0
C242 C 0.40868 0.28244 0.99409 0.0
C243 C 0.4503 0.32533 0.02085 0.0
H244 H 0.35876 0.18612 0.97373 0.0
H245 H 0.39596 0.30003 0.97036 0.0
S246 S 0.50471 0.28146 0.10461 0.0
N247 N 0.46072 0.21302 0.08279 0.0
N248 N 0.50256 0.33651 0.07936 0.0
C249 C 0.46428 0.29996 0.05153 0.0
C250 C 0.44161 0.23327 0.0535 0.0
C251 C 0.70226 0.13709 0.01401 0.0
C252 C 0.6581 0.12887 0.04117 0.0
C253 C 0.7684 0.18088 0.01843 0.0
C254 C 0.7918 0.21889 0.04974 0.0
H255 H 0.68518 0.11177 0.9885 0.0
H256 H 0.80028 0.18918 0.99581 0.0
S257 S 0.69662 0.20873 0.13061 0.0
N258 N 0.64259 0.15571 0.10209 0.0
N259 N 0.76724 0.24033 0.10995 0.0
C260 C 0.74875 0.20731 0.07825 0.0
C261 C 0.68157 0.1616 0.07405 0.0
C262 C 0.84192 0.56905 0.99657 0.0
C263 C 0.84896 0.53956 0.02786 0.0
C264 C 0.8014 0.59444 0.99634 0.0
C265 C 0.76649 0.59098 0.02733 0.0
H266 H 0.86521 0.56976 0.97144 0.0
H267 H 0.79318 0.61174 0.97097 0.0
S268 S 0.77737 0.53112 0.118 0.0
N269 N 0.82492 0.51784 0.09217 0.0
N270 N 0.74839 0.56523 0.0914 0.0
C271 C 0.77782 0.56755 0.05964 0.0
C272 C 0.8191 0.5418 0.05999 0.0
C273 C 0.87392 0.7375 0.34111 0.0
C274 C 0.85077 0.75819 0.31241 0.0
C275 C 0.93958 0.75729 0.34331 0.0
C276 C -0.01694 0.7968 0.31642 0.0
H277 H 0.84266 0.71139 0.36368 0.0
H278 H 0.95716 0.74486 0.3672 0.0
S279 S 0.94404 0.85653 0.23363 0.0
N280 N 0.87433 0.81525 0.25516 0.0
N281 N -0.00231 0.8503 0.25856 0.0
C282 C 0.95926 0.81252 0.28591 0.0
C283 C 0.89281 0.79364 0.28408 0.0
C284 C 0.1884 0.17256 0.29988 0.0
C285 C 0.18674 0.20137 0.33243 0.0
C286 C 0.21368 0.132 0.29912 0.0
C287 C 0.23966 0.12099 0.33057 0.0
H288 H 0.16592 0.17765 0.27562 0.0
H289 H 0.20844 0.1054 0.27459 0.0
S290 S 0.25647 0.19377 0.42076 0.0
N291 N 0.22017 0.22243 0.39562 0.0
N292 N 0.26854 0.14694 0.39382 0.0
C293 C 0.24352 0.15409 0.36229 0.0
C294 C 0.21678 0.19421 0.36332 0.0
C295 C 0.82636 0.11566 0.356 0.0
C296 C 0.86471 0.15369 0.32722 0.0
C297 C 0.78622 0.04947 0.35185 0.0
C298 C 0.78308 0.01968 0.31873 0.0
H299 H 0.8327 0.13606 0.38284 0.0
H300 H 0.76097 0.0209 0.37541 0.0
S301 S 0.86622 0.10032 0.2337 0.0
N302 N 0.8917 0.15898 0.26358 0.0
N303 N 0.81442 0.03388 0.25541 0.0
C304 C 0.81544 0.05808 0.28866 0.0
C305 C 0.85692 0.12558 0.29303 0.0
C306 C 0.08742 0.62426 0.34464 0.0
C307 C 0.13027 0.66932 0.37014 0.0
C308 C 0.06234 0.55855 0.3495 0.0
C309 C 0.07982 0.53572 0.37985 0.0
H310 H 0.07489 0.63989 0.32004 0.0
H311 H 0.0331 0.52611 0.32801 0.0
S312 S 0.18193 0.63224 0.45726 0.0
N313 N 0.18258 0.68539 0.42906 0.0
N314 N 0.1357 0.56174 0.43789 0.0
C315 C 0.11832 0.57955 0.40691 0.0
C316 C 0.14358 0.64644 0.40213 0.0
C317 C 0.37214 0.48216 0.33656 0.0
C318 C 0.33298 0.47617 0.3663 0.0
C319 C 0.43864 0.52686 0.33683 0.0
C320 C 0.46781 0.56718 0.36674 0.0
H321 H 0.35093 0.45459 0.31209 0.0
H322 H 0.46608 0.53354 0.31236 0.0
S323 S 0.39037 0.56195 0.45408 0.0
N324 N 0.33081 0.50752 0.4287 0.0
N325 N 0.45593 0.59214 0.42876 0.0
C326 C 0.43081 0.55742 0.39791 0.0
C327 C 0.36323 0.51168 0.39782 0.0
C328 C 0.45412 0.90554 0.3898 0.0
C329 C 0.44181 0.93609 0.36113 0.0
C330 C 0.49393 0.88008 0.38509 0.0
C331 C 0.52261 0.88376 0.35141 0.0
H332 H 0.42942 0.89757 0.41545 0.0
H333 H 0.49934 0.85439 0.40755 0.0
S334 S 0.51421 0.96851 0.26947 0.0
N335 N 0.46762 0.97572 0.2993 0.0
N336 N 0.54314 0.92833 0.29033 0.0
C337 C 0.5152 0.91912 0.32342 0.0
C338 C 0.47484 0.94545 0.32836 0.0
C339 C 0.61484 0.15158 0.63141 0.0
C340 C 0.63957 0.13029 0.65894 0.0
C341 C 0.54944 0.13311 0.63128 0.0
C342 C 0.50715 0.09159 0.65803 0.0
H343 H 0.64705 0.18675 0.61181 0.0
H344 H 0.53281 0.15484 0.6117 0.0
S345 S 0.54719 0.01539 0.7324 0.0
N346 N 0.61649 0.06072 0.71113 0.0
N347 N 0.49271 0.02441 0.71016 0.0
C348 C 0.53014 0.06521 0.68349 0.0
C349 C 0.5969 0.08514 0.68416 0.0
C350 C 0.91898 0.49245 0.6759 0.0
C351 C 0.8919 0.43694 0.65466 0.0
C352 C 0.89575 0.53449 0.67317 0.0
C353 C 0.8451 0.52228 0.64898 0.0
H354 H 0.9538 0.50029 0.69697 0.0
H355 H 0.91496 0.57479 0.69163 0.0
S356 S 0.76552 0.38776 0.58378 0.0
N357 N 0.81766 0.37523 0.60602 0.0
N358 N 0.77456 0.45484 0.6004 0.0
C359 C 0.82238 0.47027 0.62512 0.0
C360 C 0.84566 0.42729 0.62815 0.0
C361 C 0.49572 0.45064 0.67394 0.0
C362 C 0.52678 0.47486 0.6406 0.0
C363 C 0.4531 0.38484 0.67874 0.0
C364 C 0.43905 0.34165 0.65012 0.0
H365 H 0.50888 0.48172 0.69735 0.0
H366 H 0.43327 0.36734 0.70546 0.0
S367 S 0.49964 0.38267 0.55605 0.0
N368 N 0.53539 0.45212 0.57756 0.0
N369 N 0.45299 0.32821 0.58626 0.0
C370 C 0.46472 0.36596 0.61575 0.0
C371 C 0.50924 0.43282 0.61106 0.0
C372 C 0.78347 0.8989 0.71423 0.0
C373 C 0.73695 0.85868 0.68862 0.0
C374 C 0.80156 0.96315 0.71729 0.0
C375 C 0.77461 -0.01068 0.69421 0.0
H376 H 0.80894 0.88152 0.73043 0.0
H377 H 0.84033 -0.00659 0.7359 0.0
S378 S 0.64347 0.90094 0.62668 0.0
N379 N 0.65842 0.84657 0.64309 0.0
N380 N 0.69287 0.96828 0.64837 0.0
C381 C 0.72407 0.94818 0.6706 0.0
C382 C 0.70499 0.88237 0.66793 0.0
C383 C 0.01065 0.82556 0.72844 0.0
C384 C -0.01282 0.79426 0.69512 0.0
C385 C 0.07651 0.87106 0.73299 0.0
C386 C 0.12075 0.88523 0.70467 0.0
H387 H -0.02258 0.8185 0.75008 0.0
H388 H 0.09225 0.89822 0.75798 0.0
S389 S 0.08401 0.80745 0.61442 0.0
N390 N 0.01328 0.77409 0.63504 0.0
N391 N 0.13748 0.85854 0.64382 0.0
C392 C 0.09855 0.84935 0.67255 0.0
C393 C 0.03143 0.80415 0.66767 0.0
C394 C 0.16816 0.24231 0.67879 0.0
C395 C 0.17278 0.20405 0.70604 0.0
C396 C 0.12909 0.26879 0.68324 0.0
C397 C 0.09292 0.25741 0.71496 0.0
H398 H 0.19243 0.24945 0.65309 0.0
H399 H 0.12264 0.29318 0.66043 0.0
S400 S 0.09704 0.17136 0.79701 0.0
N401 N 0.14505 0.16455 0.76802 0.0
N402 N 0.07092 0.21376 0.77594 0.0
C403 C 0.10189 0.22474 0.74369 0.0
C404 C 0.14192 0.19805 0.73933 0.0
C405 C 0.01361 0.40712 0.21467 0.0
C406 C 0.07025 0.40609 0.223 0.0
C407 C 0.00276 0.42361 0.18014 0.0
C408 C 0.04815 0.44032 0.15222 0.0
H409 H -0.02366 0.39398 0.23484 0.0
H410 H 0.95772 0.42225 0.17522 0.0
S411 S 0.20598 0.44826 0.15989 0.0
N412 N 0.17359 0.42559 0.20052 0.0
N413 N 0.1533 0.45678 0.13548 0.0
C414 C 0.10597 0.44132 0.16027 0.0
C415 C 0.11691 0.42407 0.19559 0.0
C416 C 0.56465 0.70904 0.18017 0.0
C417 C 0.60273 0.69715 0.20429 0.0
C418 C 0.5474 0.67989 0.14579 0.0
C419 C 0.56773 0.63789 0.1342 0.0
H420 H 0.54702 0.7401 0.18814 0.0
H421 H 0.51768 0.69019 0.12827 0.0
S422 S 0.67394 0.59618 0.186 0.0
N423 N 0.66402 0.64404 0.21314 0.0
N424 N 0.63182 0.58948 0.14921 0.0
C425 C 0.60725 0.62703 0.15788 0.0
C426 C 0.6247 0.65659 0.19267 0.0
C427 C 0.32724 0.89203 0.15853 0.0
C428 C 0.34042 0.9473 0.13903 0.0
C429 C 0.30348 0.8819 0.19422 0.0
C430 C 0.29404 0.92765 0.21186 0.0
H431 H 0.33428 0.85598 0.14591 0.0
H432 H 0.29376 0.83874 0.20835 0.0
S433 S 0.3228 0.08088 0.17274 0.0
N434 N 0.34227 0.04805 0.13996 0.0
N435 N 0.29999 0.0302 0.20709 0.0
C436 C 0.3078 -0.0167 0.19269 0.0
C437 C 0.33036 -0.00719 0.15626 0.0
C438 C 0.36328 0.02563 0.85912 0.0
C439 C 0.42135 0.06857 0.87717 0.0
C440 C 0.34518 0.04279 0.82695 0.0
C441 C 0.38486 0.10324 0.81088 0.0
H442 H 0.3305 0.97852 0.87031 0.0
H443 H 0.2999 0.00773 0.81427 0.0
S444 S 0.54253 0.23324 0.84661 0.0
N445 N 0.51872 0.17467 0.87654 0.0
N446 N 0.48545 0.20619 0.81512 0.0
C447 C 0.44361 0.14655 0.82819 0.0
C448 C 0.46157 0.12948 0.86157 0.0
C449 C 0.90044 0.37016 0.86219 0.0
C450 C 0.908 0.33658 0.89112 0.0
C451 C 0.88241 0.34309 0.82743 0.0
C452 C 0.87163 0.28155 0.82017 0.0
H453 H 0.90996 0.41836 0.86612 0.0
H454 H 0.87938 0.37167 0.8058 0.0
S455 S 0.8771 0.17022 0.88709 0.0
N456 N 0.89724 0.23554 0.91051 0.0
N457 N 0.86425 0.18561 0.84534 0.0
C458 C 0.87624 0.24637 0.8491 0.0
C459 C 0.89416 0.2736 0.88448 0.0
C460 C 0.65907 0.65337 0.81423 0.0
C461 C 0.66479 0.60663 0.79523 0.0
C462 C 0.63639 0.64274 0.84996 0.0
C463 C 0.61642 0.5841 0.86758 0.0
H464 H 0.67334 0.69903 0.80157 0.0
H465 H 0.63404 0.68062 0.86385 0.0
S466 S 0.61939 0.44517 0.82908 0.0
N467 N 0.64827 0.49939 0.79636 0.0
N468 N 0.60279 0.47819 0.86314 0.0
C469 C 0.62045 0.53631 0.8486 0.0
C470 C 0.64547 0.54793 0.81251 0.0
C471 C 0.6809 0.71544 0.4818 0.0
C472 C 0.72691 0.77284 0.46469 0.0
C473 C 0.69491 0.69571 0.51451 0.0
C474 C 0.75499 0.73326 0.532 0.0
H475 H 0.63377 0.68479 0.46953 0.0
H476 H 0.6576 0.65131 0.52664 0.0
S477 S 0.89243 0.8876 0.4986 0.0
N478 N 0.83569 0.86645 0.4673 0.0
N479 N 0.8612 0.83057 0.52972 0.0
C480 C 0.8015 0.79094 0.51534 0.0
C481 C 0.78774 0.81034 0.48144 0.0
C482 C 0.24761 0.94681 0.50634 0.0
C483 C 0.21721 0.96466 0.48013 0.0
C484 C 0.26 0.97219 0.54135 0.0
C485 C 0.24302 0.01714 0.55201 0.0
H486 H 0.26283 0.91323 0.49976 0.0
H487 H 0.28431 0.95695 0.56002 0.0
S488 S 0.15863 0.07734 0.49453 0.0
N489 N 0.1676 0.02826 0.46778 0.0
N490 N 0.19121 0.07625 0.5338 0.0
C491 C 0.21116 0.03451 0.52642 0.0
C492 C 0.1981 0.00819 0.49054 0.0
C493 C 0.938 0.21551 0.52851 0.0
C494 C -0.02675 0.25511 0.55796 0.0
C495 C 0.96555 0.22586 0.49386 0.0
C496 C 0.02926 0.27644 0.48725 0.0
H497 H 0.88818 0.17718 0.53196 0.0
H498 H 0.9358 0.19549 0.47182 0.0
S499 S 0.14526 0.38879 0.55569 0.0
N500 N 0.078 0.34326 0.57854 0.0
N501 N 0.12877 0.36277 0.51355 0.0
C502 C 0.06596 0.31455 0.51667 0.0
C503 C 0.03826 0.30387 0.55194 0.0
loop_
_geom_bond_atom_site_label_1
_geom_bond_atom_site_label_2
_geom_bond_distance
_geom_bond_site_symmetry_2
_ccdc_geom_bond_type
O0 Zn1 1.953 . S
O0 C16 1.225 1_556 S
Zn1 O0 1.953 . S
Zn1 O2 1.949 1_656 S
Zn1 O8 1.919 . S
Zn1 O13 1.924 1_655 S
O2 Zn1 1.949 1_454 S
O2 Zn3 1.923 1_454 S
O2 Zn4 1.950 1_455 S
O2 Zn5 1.945 . S
Zn3 O2 1.923 1_656 S
Zn3 O6 1.933 1_655 S
Zn3 O9 1.941 . S
Zn3 O10 1.966 1_556 S
Zn4 O2 1.950 1_655 S
Zn4 O11 1.938 . S
Zn4 O12 1.906 . S
Zn4 O22 1.953 . S
Zn5 O2 1.945 . S
Zn5 O7 1.932 . S
Zn5 O14 1.977 . S
Zn5 O15 1.910 . S
O6 Zn3 1.933 1_455 S
O6 C17 1.226 1_556 S
O7 Zn5 1.932 . S
O7 C17 1.307 . S
O8 Zn1 1.919 . S
O8 C19 1.253 . S
O9 Zn3 1.941 . S
O9 C19 1.283 . S
O10 Zn3 1.966 1_554 S
O10 C18 1.303 . S
O11 Zn4 1.938 . S
O11 C18 1.247 . S
O12 Zn4 1.906 . S
O12 C20 1.304 1_655 S
O13 Zn1 1.924 1_455 S
O13 C21 1.311 . S
O14 Zn5 1.977 . S
O14 C20 1.272 . S
O15 Zn5 1.910 . S
O15 C21 1.231 1_554 S
C16 O0 1.225 1_554 S
C16 O22 1.298 . S
C17 O6 1.226 1_554 S
C17 O7 1.307 . S
C18 O10 1.303 . S
C18 O11 1.247 . S
C19 O8 1.253 . S
C19 O9 1.283 . S
C20 O12 1.304 1_455 S
C20 O14 1.272 . S
C21 O13 1.311 . S
C21 O15 1.231 1_556 S
O22 Zn4 1.953 . S
O22 C16 1.298 . S
O23 Zn24 1.953 . S
O23 C39 1.225 1_556 S
Zn24 O23 1.953 . S
Zn24 O25 1.949 1_556 S
Zn24 O31 1.919 . S
Zn24 O36 1.924 . S
O25 Zn24 1.949 1_554 S
O25 Zn26 1.923 1_554 S
O25 Zn27 1.950 . S
O25 Zn28 1.945 . S
Zn26 O25 1.923 1_556 S
Zn26 O29 1.933 . S
Zn26 O32 1.941 . S
Zn26 O33 1.965 . S
Zn27 O25 1.950 . S
Zn27 O34 1.938 . S
Zn27 O35 1.906 . S
Zn27 O45 1.953 . S
Zn28 O25 1.945 . S
Zn28 O30 1.932 . S
Zn28 O37 1.977 . S
Zn28 O38 1.910 . S
O29 Zn26 1.933 . S
O29 C40 1.226 . S
O30 Zn28 1.932 . S
O30 C40 1.307 1_554 S
O31 Zn24 1.919 . S
O31 C42 1.253 . S
O32 Zn26 1.941 . S
O32 C42 1.283 . S
O33 Zn26 1.965 . S
O33 C41 1.303 1_556 S
O34 Zn27 1.938 . S
O34 C41 1.247 . S
O35 Zn27 1.906 . S
O35 C43 1.304 . S
O36 Zn24 1.924 . S
O36 C44 1.311 . S
O37 Zn28 1.977 . S
O37 C43 1.272 . S
O38 Zn28 1.910 . S
O38 C44 1.231 1_554 S
C39 O23 1.225 1_554 S
C39 O45 1.298 . S
C40 O29 1.226 . S
C40 O30 1.307 1_556 S
C41 O33 1.303 1_554 S
C41 O34 1.247 . S
C42 O31 1.253 . S
C42 O32 1.283 . S
C43 O35 1.304 . S
C43 O37 1.272 . S
C44 O36 1.311 . S
C44 O38 1.231 1_556 S
O45 Zn27 1.953 . S
O45 C39 1.298 . S
O46 Zn47 1.953 1_565 S
O46 C62 1.225 . S
Zn47 O46 1.953 1_545 S
Zn47 O48 1.949 . S
Zn47 O54 1.919 . S
Zn47 O59 1.924 . S
O48 Zn47 1.949 . S
O48 Zn49 1.923 . S
O48 Zn50 1.950 1_544 S
O48 Zn51 1.945 1_554 S
Zn49 O48 1.923 . S
Zn49 O52 1.933 . S
Zn49 O55 1.941 1_545 S
Zn49 O56 1.965 1_545 S
Zn50 O48 1.950 1_566 S
Zn50 O57 1.938 . S
Zn50 O58 1.906 . S
Zn50 O68 1.953 . S
Zn51 O48 1.945 1_556 S
Zn51 O53 1.932 . S
Zn51 O60 1.977 . S
Zn51 O61 1.910 . S
O52 Zn49 1.933 . S
O52 C63 1.226 . S
O53 Zn51 1.932 . S
O53 C63 1.307 1_556 S
O54 Zn47 1.919 . S
O54 C65 1.253 . S
O55 Zn49 1.941 1_565 S
O55 C65 1.283 1_565 S
O56 Zn49 1.965 1_565 S
O56 C64 1.303 1_554 S
O57 Zn50 1.938 . S
O57 C64 1.247 . S
O58 Zn50 1.906 . S
O58 C66 1.304 1_565 S
O59 Zn47 1.924 . S
O59 C67 1.311 . S
O60 Zn51 1.977 . S
O60 C66 1.272 . S
O61 Zn51 1.910 . S
O61 C67 1.231 1_556 S
C62 O46 1.225 . S
C62 O68 1.298 1_554 S
C63 O52 1.226 . S
C63 O53 1.307 1_554 S
C64 O56 1.303 1_556 S
C64 O57 1.247 . S
C65 O54 1.253 . S
C65 O55 1.283 1_545 S
C66 O58 1.304 1_545 S
C66 O60 1.272 . S
C67 O59 1.311 . S
C67 O61 1.231 1_554 S
O68 Zn50 1.953 . S
O68 C62 1.298 1_556 S
O69 Zn70 1.953 . S
O69 C85 1.225 . S
Zn70 O69 1.953 . S
Zn70 O71 1.949 . S
Zn70 O77 1.919 . S
Zn70 O82 1.924 . S
O71 Zn70 1.949 . S
O71 Zn72 1.923 . S
O71 Zn73 1.950 . S
O71 Zn74 1.945 . S
Zn72 O71 1.923 . S
Zn72 O75 1.933 . S
Zn72 O78 1.941 . S
Zn72 O79 1.965 . S
Zn73 O71 1.950 . S
Zn73 O80 1.938 . S
Zn73 O81 1.906 . S
Zn73 O91 1.953 . S
Zn74 O71 1.945 . S
Zn74 O76 1.932 . S
Zn74 O83 1.977 . S
Zn74 O84 1.910 . S
O75 Zn72 1.933 . S
O75 C86 1.226 . S
O76 Zn74 1.932 . S
O76 C86 1.307 . S
O77 Zn70 1.919 . S
O77 C88 1.253 . S
O78 Zn72 1.941 . S
O78 C88 1.283 . S
O79 Zn72 1.965 . S
O79 C87 1.303 . S
O80 Zn73 1.938 . S
O80 C87 1.247 . S
O81 Zn73 1.906 . S
O81 C89 1.304 . S
O82 Zn70 1.924 . S
O82 C90 1.311 . S
O83 Zn74 1.977 . S
O83 C89 1.272 . S
O84 Zn74 1.910 . S
O84 C90 1.231 . S
C85 O69 1.225 . S
C85 O91 1.298 . S
C86 O75 1.226 . S
C86 O76 1.307 . S
C87 O79 1.303 . S
C87 O80 1.247 . S
C88 O77 1.253 . S
C88 O78 1.283 . S
C89 O81 1.304 . S
C89 O83 1.272 . S
C90 O82 1.311 . S
C90 O84 1.231 . S
O91 Zn73 1.953 . S
O91 C85 1.298 . S
O92 Zn93 1.953 . S
O92 C108 1.225 . S
Zn93 O92 1.953 . S
Zn93 O94 1.949 . S
Zn93 O100 1.919 . S
Zn93 O105 1.924 . S
O94 Zn93 1.949 . S
O94 Zn95 1.923 1_565 S
O94 Zn96 1.950 . S
O94 Zn97 1.945 . S
Zn95 O94 1.923 1_545 S
Zn95 O98 1.933 . S
Zn95 O101 1.941 1_545 S
Zn95 O102 1.965 . S
Zn96 O94 1.950 . S
Zn96 O103 1.938 . S
Zn96 O104 1.906 . S
Zn96 O114 1.953 . S
Zn97 O94 1.945 . S
Zn97 O99 1.932 1_565 S
Zn97 O106 1.977 . S
Zn97 O107 1.910 . S
O98 Zn95 1.933 . S
O98 C109 1.226 . S
O99 Zn97 1.932 1_545 S
O99 C109 1.307 . S
O100 Zn93 1.919 . S
O100 C111 1.253 . S
O101 Zn95 1.941 1_565 S
O101 C111 1.283 . S
O102 Zn95 1.965 . S
O102 C110 1.303 1_545 S
O103 Zn96 1.938 . S
O103 C110 1.247 . S
O104 Zn96 1.906 . S
O104 C112 1.304 . S
O105 Zn93 1.924 . S
O105 C113 1.311 . S
O106 Zn97 1.977 . S
O106 C112 1.272 . S
O107 Zn97 1.910 . S
O107 C113 1.231 . S
C108 O92 1.225 . S
C108 O114 1.298 . S
C109 O98 1.226 . S
C109 O99 1.307 . S
C110 O102 1.303 1_565 S
C110 O103 1.247 . S
C111 O100 1.253 . S
C111 O101 1.283 . S
C112 O104 1.304 . S
C112 O106 1.272 . S
C113 O105 1.311 . S
C113 O107 1.231 . S
O114 Zn96 1.953 . S
O114 C108 1.298 . S
O115 Zn116 1.953 . S
O115 C131 1.225 . S
Zn116 O115 1.953 . S
Zn116 O117 1.949 . S
Zn116 O123 1.919 . S
Zn116 O128 1.924 . S
O117 Zn116 1.949 . S
O117 Zn118 1.923 . S
O117 Zn119 1.950 . S
O117 Zn120 1.945 . S
Zn118 O117 1.923 . S
Zn118 O121 1.933 1_455 S
Zn118 O124 1.941 . S
Zn118 O125 1.965 . S
Zn119 O117 1.950 . S
Zn119 O126 1.938 . S
Zn119 O127 1.906 . S
Zn119 O137 1.953 . S
Zn120 O117 1.945 . S
Zn120 O122 1.932 1_455 S
Zn120 O129 1.977 . S
Zn120 O130 1.910 . S
O121 Zn118 1.933 1_655 S
O121 C132 1.226 . S
O122 Zn120 1.932 1_655 S
O122 C132 1.307 . S
O123 Zn116 1.919 . S
O123 C134 1.253 . S
O124 Zn118 1.941 . S
O124 C134 1.283 . S
O125 Zn118 1.965 . S
O125 C133 1.303 . S
O126 Zn119 1.938 . S
O126 C133 1.247 . S
O127 Zn119 1.906 . S
O127 C135 1.304 . S
O128 Zn116 1.924 . S
O128 C136 1.311 . S
O129 Zn120 1.977 . S
O129 C135 1.272 . S
O130 Zn120 1.910 . S
O130 C136 1.231 . S
C131 O115 1.225 . S
C131 O137 1.298 . S
C132 O121 1.226 . S
C132 O122 1.307 . S
C133 O125 1.303 . S
C133 O126 1.247 . S
C134 O123 1.253 . S
C134 O124 1.283 . S
C135 O127 1.304 . S
C135 O129 1.272 . S
C136 O128 1.311 . S
C136 O130 1.231 . S
O137 Zn119 1.953 . S
O137 C131 1.298 . S
O138 Zn139 1.953 . S
O138 C154 1.225 . S
Zn139 O138 1.953 . S
Zn139 O140 1.949 . S
Zn139 O146 1.919 . S
Zn139 O151 1.924 . S
O140 Zn139 1.949 . S
O140 Zn141 1.923 . S
O140 Zn142 1.950 . S
O140 Zn143 1.945 . S
Zn141 O140 1.923 . S
Zn141 O144 1.933 . S
Zn141 O147 1.941 . S
Zn141 O148 1.965 1_545 S
Zn142 O140 1.950 . S
Zn142 O149 1.938 1_545 S
Zn142 O150 1.906 . S
Zn142 O160 1.953 . S
Zn143 O140 1.945 . S
Zn143 O145 1.932 . S
Zn143 O152 1.977 . S
Zn143 O153 1.910 . S
O144 Zn141 1.933 . S
O144 C155 1.226 . S
O145 Zn143 1.932 . S
O145 C155 1.307 . S
O146 Zn139 1.919 . S
O146 C157 1.253 . S
O147 Zn141 1.941 . S
O147 C157 1.283 . S
O148 Zn141 1.965 1_565 S
O148 C156 1.303 . S
O149 Zn142 1.938 1_565 S
O149 C156 1.247 . S
O150 Zn142 1.906 . S
O150 C158 1.304 . S
O151 Zn139 1.924 . S
O151 C159 1.311 . S
O152 Zn143 1.977 . S
O152 C158 1.272 . S
O153 Zn143 1.910 . S
O153 C159 1.231 . S
C154 O138 1.225 . S
C154 O160 1.298 . S
C155 O144 1.226 . S
C155 O145 1.307 . S
C156 O148 1.303 . S
C156 O149 1.247 . S
C157 O146 1.253 . S
C157 O147 1.283 . S
C158 O150 1.304 . S
C158 O152 1.272 . S
C159 O151 1.311 . S
C159 O153 1.231 . S
O160 Zn142 1.953 . S
O160 C154 1.298 . S
O161 Zn162 1.953 . S
O161 C177 1.225 . S
Zn162 O161 1.953 . S
Zn162 O163 1.949 . S
Zn162 O169 1.919 . S
Zn162 O174 1.924 . S
O163 Zn162 1.949 . S
O163 Zn164 1.923 . S
O163 Zn165 1.950 . S
O163 Zn166 1.945 . S
Zn164 O163 1.923 . S
Zn164 O167 1.925 . S
Zn164 O170 1.941 . S
Zn164 O171 1.965 1_655 S
Zn165 O163 1.950 . S
Zn165 O172 1.938 1_655 S
Zn165 O173 1.906 . S
Zn165 O183 1.953 . S
Zn166 O163 1.945 . S
Zn166 O168 1.932 . S
Zn166 O175 1.977 . S
Zn166 O176 1.910 . S
O167 Zn164 1.925 . S
O167 C178 1.245 . S
O168 Zn166 1.932 . S
O168 C178 1.307 . S
O169 Zn162 1.919 . S
O169 C180 1.253 . S
O170 Zn164 1.941 . S
O170 C180 1.283 . S
O171 Zn164 1.965 1_455 S
O171 C179 1.303 . S
O172 Zn165 1.938 1_455 S
O172 C179 1.247 . S
O173 Zn165 1.906 . S
O173 C181 1.304 . S
O174 Zn162 1.924 . S
O174 C182 1.311 . S
O175 Zn166 1.977 . S
O175 C181 1.272 . S
O176 Zn166 1.910 . S
O176 C182 1.231 . S
C177 O161 1.225 . S
C177 O183 1.298 . S
C178 O167 1.245 . S
C178 O168 1.307 . S
C179 O171 1.303 . S
C179 O172 1.247 . S
C180 O169 1.253 . S
C180 O170 1.283 . S
C181 O173 1.304 . S
C181 O175 1.272 . S
C182 O174 1.311 . S
C182 O176 1.231 . S
O183 Zn165 1.953 . S
O183 C177 1.298 . S
O184 Zn185 1.953 . S
O184 C200 1.225 . S
Zn185 O184 1.953 . S
Zn185 O186 1.949 . S
Zn185 O192 1.919 . S
Zn185 O197 1.924 . S
O186 Zn185 1.949 . S
O186 Zn187 1.923 . S
O186 Zn188 1.950 . S
O186 Zn189 1.945 . S
Zn187 O186 1.923 . S
Zn187 O190 1.933 . S
Zn187 O193 1.941 . S
Zn187 O194 1.965 . S
Zn188 O186 1.950 . S
Zn188 O195 1.938 . S
Zn188 O196 1.906 . S
Zn188 O206 1.953 . S
Zn189 O186 1.945 . S
Zn189 O191 1.932 . S
Zn189 O198 1.977 . S
Zn189 O199 1.910 . S
O190 Zn187 1.933 . S
O190 C201 1.226 . S
O191 Zn189 1.932 . S
O191 C201 1.307 . S
O192 Zn185 1.919 . S
O192 C203 1.253 . S
O193 Zn187 1.941 . S
O193 C203 1.283 . S
O194 Zn187 1.965 . S
O194 C202 1.303 . S
O195 Zn188 1.938 . S
O195 C202 1.247 . S
O196 Zn188 1.906 . S
O196 C204 1.304 . S
O197 Zn185 1.924 . S
O197 C205 1.311 . S
O198 Zn189 1.977 . S
O198 C204 1.272 . S
O199 Zn189 1.910 . S
O199 C205 1.231 . S
C200 O184 1.225 . S
C200 O206 1.298 . S
C201 O190 1.226 . S
C201 O191 1.307 . S
C202 O194 1.303 . S
C202 O195 1.247 . S
C203 O192 1.253 . S
C203 O193 1.283 . S
C204 O196 1.304 . S
C204 O198 1.272 . S
C205 O197 1.311 . S
C205 O199 1.231 . S
O206 Zn188 1.953 . S
O206 C200 1.298 . S
C207 C208 1.370 . S
C207 C209 1.419 . S
C207 H211 0.930 . S
C208 C207 1.370 . S
C208 C217 1.428 1_554 S
C209 C207 1.419 . S
C209 C210 1.349 1_554 S
C209 H212 0.929 . S
C210 C209 1.349 1_556 S
C210 C216 1.443 . S
H211 C207 0.930 . S
H212 C209 0.929 . S
S213 N214 1.613 . S
S213 N215 1.610 . S
N214 S213 1.613 . S
N214 C217 1.350 . S
N215 S213 1.610 . S
N215 C216 1.351 . S
C216 C210 1.443 . S
C216 N215 1.351 . S
C216 C217 1.434 . S
C217 C208 1.428 1_556 S
C217 N214 1.350 . S
C217 C216 1.434 . S
C218 C219 1.373 . S
C218 C220 1.419 . S
C218 H222 0.930 . S
C219 C218 1.373 . S
C219 C228 1.425 1_556 S
C220 C218 1.419 . S
C220 C221 1.363 . S
C220 H223 0.929 . S
C221 C220 1.363 . S
C221 C227 1.428 1_556 S
H222 C218 0.930 . S
H223 C220 0.929 . S
S224 N225 1.613 . S
S224 N226 1.610 . S
N225 S224 1.613 . S
N225 C228 1.350 . S
N226 S224 1.610 . S
N226 C227 1.351 . S
C227 C221 1.428 1_554 S
C227 N226 1.351 . S
C227 C228 1.434 . S
C228 C219 1.425 1_554 S
C228 N225 1.350 . S
C228 C227 1.434 . S
C229 C230 1.369 1_556 S
C229 C231 1.419 . S
C229 H233 0.930 . S
C230 C229 1.369 1_554 S
C230 C239 1.429 . S
C231 C229 1.419 . S
C231 C232 1.363 1_556 S
C231 H234 0.929 . S
C232 C231 1.363 1_554 S
C232 C238 1.428 . S
H233 C229 0.930 . S
H234 C231 0.929 . S
S235 N236 1.613 . S
S235 N237 1.610 . S
N236 S235 1.613 . S
N236 C239 1.350 . S
N237 S235 1.610 . S
N237 C238 1.351 . S
C238 C232 1.428 . S
C238 N237 1.351 . S
C238 C239 1.434 . S
C239 C230 1.429 . S
C239 N236 1.350 . S
C239 C238 1.434 . S
C240 C241 1.369 1_556 S
C240 C242 1.419 . S
C240 H244 0.930 . S
C241 C240 1.369 1_554 S
C241 C250 1.429 . S
C242 C240 1.419 . S
C242 C243 1.363 1_556 S
C242 H245 0.929 . S
C243 C242 1.363 1_554 S
C243 C249 1.428 . S
H244 C240 0.930 . S
H245 C242 0.929 . S
S246 N247 1.613 . S
S246 N248 1.610 . S
N247 S246 1.613 . S
N247 C250 1.350 . S
N248 S246 1.610 . S
N248 C249 1.351 . S
C249 C243 1.428 . S
C249 N248 1.351 . S
C249 C250 1.434 . S
C250 C241 1.429 . S
C250 N247 1.350 . S
C250 C249 1.434 . S
C251 C252 1.369 1_556 S
C251 C253 1.419 . S
C251 H255 0.930 . S
C252 C251 1.369 1_554 S
C252 C261 1.429 . S
C253 C251 1.419 . S
C253 C254 1.363 1_556 S
C253 H256 0.929 . S
C254 C253 1.363 1_554 S
C254 C260 1.428 . S
H255 C251 0.930 . S
H256 C253 0.929 . S
S257 N258 1.613 . S
S257 N259 1.610 . S
N258 S257 1.613 . S
N258 C261 1.350 . S
N259 S257 1.610 . S
N259 C260 1.351 . S
C260 C254 1.428 . S
C260 N259 1.351 . S
C260 C261 1.434 . S
C261 C252 1.429 . S
C261 N258 1.350 . S
C261 C260 1.434 . S
C262 C263 1.369 1_556 S
C262 C264 1.419 . S
C262 H266 0.930 . S
C263 C262 1.369 1_554 S
C263 C272 1.429 . S
C264 C262 1.419 . S
C264 C265 1.363 1_556 S
C264 H267 0.929 . S
C265 C264 1.363 1_554 S
C265 C271 1.428 . S
H266 C262 0.930 . S
H267 C264 0.929 . S
S268 N269 1.613 . S
S268 N270 1.610 . S
N269 S268 1.613 . S
N269 C272 1.350 . S
N270 S268 1.610 . S
N270 C271 1.351 . S
C271 C265 1.428 . S
C271 N270 1.351 . S
C271 C272 1.434 . S
C272 C263 1.429 . S
C272 N269 1.350 . S
C272 C271 1.434 . S
C273 C274 1.369 . S
C273 C275 1.419 . S
C273 H277 0.930 . S
C274 C273 1.369 . S
C274 C283 1.429 . S
C275 C273 1.419 . S
C275 C276 1.363 1_655 S
C275 H278 0.929 1_655 S
C276 C275 1.363 1_455 S
C276 C282 1.428 1_455 S
H277 C273 0.930 . S
H278 C275 0.929 1_455 S
S279 N280 1.613 . S
S279 N281 1.610 1_655 S
N280 S279 1.613 . S
N280 C283 1.350 . S
N281 S279 1.610 1_455 S
N281 C282 1.351 1_455 S
C282 C276 1.428 1_655 S
C282 N281 1.351 1_655 S
C282 C283 1.434 . S
C283 C274 1.429 . S
C283 N280 1.350 . S
C283 C282 1.434 . S
C284 C285 1.369 . S
C284 C286 1.419 . S
C284 H288 0.930 . S
C285 C284 1.369 . S
C285 C294 1.429 . S
C286 C284 1.419 . S
C286 C287 1.363 . S
C286 H289 0.929 . S
C287 C286 1.363 . S
C287 C293 1.428 . S
H288 C284 0.930 . S
H289 C286 0.929 . S
S290 N291 1.613 . S
S290 N292 1.610 . S
N291 S290 1.613 . S
N291 C294 1.350 . S
N292 S290 1.610 . S
N292 C293 1.351 . S
C293 C287 1.428 . S
C293 N292 1.351 . S
C293 C294 1.434 . S
C294 C285 1.429 . S
C294 N291 1.350 . S
C294 C293 1.434 . S
C295 C296 1.369 . S
C295 C297 1.419 . S
C295 H299 0.930 . S
C296 C295 1.369 . S
C296 C305 1.429 . S
C297 C295 1.419 . S
C297 C298 1.363 . S
C297 H300 0.929 . S
C298 C297 1.363 . S
C298 C304 1.428 . S
H299 C295 0.930 . S
H300 C297 0.929 . S
S301 N302 1.613 . S
S301 N303 1.610 . S
N302 S301 1.613 . S
N302 C305 1.350 . S
N303 S301 1.610 . S
N303 C304 1.351 . S
C304 C298 1.428 . S
C304 N303 1.351 . S
C304 C305 1.434 . S
C305 C296 1.429 . S
C305 N302 1.350 . S
C305 C304 1.434 . S
C306 C307 1.369 . S
C306 C308 1.419 . S
C306 H310 0.930 . S
C307 C306 1.369 . S
C307 C316 1.429 . S
C308 C306 1.419 . S
C308 C309 1.363 . S
C308 H311 0.929 . S
C309 C308 1.363 . S
C309 C315 1.428 . S
H310 C306 0.930 . S
H311 C308 0.929 . S
S312 N313 1.613 . S
S312 N314 1.610 . S
N313 S312 1.613 . S
N313 C316 1.350 . S
N314 S312 1.610 . S
N314 C315 1.351 . S
C315 C309 1.428 . S
C315 N314 1.351 . S
C315 C316 1.434 . S
C316 C307 1.429 . S
C316 N313 1.350 . S
C316 C315 1.434 . S
C317 C318 1.369 . S
C317 C319 1.419 . S
C317 H321 0.930 . S
C318 C317 1.369 . S
C318 C327 1.429 . S
C319 C317 1.419 . S
C319 C320 1.363 . S
C319 H322 0.929 . S
C320 C319 1.363 . S
C320 C326 1.428 . S
H321 C317 0.930 . S
H322 C319 0.929 . S
S323 N324 1.613 . S
S323 N325 1.610 . S
N324 S323 1.613 . S
N324 C327 1.350 . S
N325 S323 1.610 . S
N325 C326 1.351 . S
C326 C320 1.428 . S
C326 N325 1.351 . S
C326 C327 1.434 . S
C327 C318 1.429 . S
C327 N324 1.350 . S
C327 C326 1.434 . S
C328 C329 1.369 . S
C328 C330 1.419 . S
C328 H332 0.930 1_565 S
C329 C328 1.369 . S
C329 C338 1.429 . S
C330 C328 1.419 . S
C330 C331 1.363 . S
C330 H333 0.929 . S
C331 C330 1.363 . S
C331 C337 1.428 . S
H332 C328 0.930 1_545 S
H333 C330 0.929 . S
S334 N335 1.613 . S
S334 N336 1.610 . S
N335 S334 1.613 . S
N335 C338 1.350 . S
N336 S334 1.610 . S
N336 C337 1.351 . S
C337 C331 1.428 . S
C337 N336 1.351 . S
C337 C338 1.434 . S
C338 C329 1.429 . S
C338 N335 1.350 . S
C338 C337 1.434 . S
C339 C340 1.369 . S
C339 C341 1.419 . S
C339 H343 0.930 . S
C340 C339 1.369 . S
C340 C349 1.429 . S
C341 C339 1.419 . S
C341 C342 1.363 . S
C341 H344 0.929 . S
C342 C341 1.363 . S
C342 C348 1.428 . S
H343 C339 0.930 . S
H344 C341 0.929 . S
S345 N346 1.613 . S
S345 N347 1.610 . S
N346 S345 1.613 . S
N346 C349 1.350 . S
N347 S345 1.610 . S
N347 C348 1.351 . S
C348 C342 1.428 . S
C348 N347 1.351 . S
C348 C349 1.434 . S
C349 C340 1.429 . S
C349 N346 1.350 . S
C349 C348 1.434 . S
C350 C351 1.369 . S
C350 C352 1.419 . S
C350 H354 0.930 1_655 S
C351 C350 1.369 . S
C351 C360 1.429 . S
C352 C350 1.419 . S
C352 C353 1.363 . S
C352 H355 0.929 . S
C353 C352 1.363 . S
C353 C359 1.428 . S
H354 C350 0.930 1_455 S
H355 C352 0.929 . S
S356 N357 1.613 . S
S356 N358 1.610 . S
N357 S356 1.613 . S
N357 C360 1.350 . S
N358 S356 1.610 . S
N358 C359 1.351 . S
C359 C353 1.428 . S
C359 N358 1.351 . S
C359 C360 1.434 . S
C360 C351 1.429 . S
C360 N357 1.350 . S
C360 C359 1.434 . S
C361 C362 1.369 . S
C361 C363 1.419 . S
C361 H365 0.930 . S
C362 C361 1.369 . S
C362 C371 1.429 . S
C363 C361 1.419 . S
C363 C364 1.363 . S
C363 H366 0.929 . S
C364 C363 1.363 . S
C364 C370 1.428 . S
H365 C361 0.930 . S
H366 C363 0.929 . S
S367 N368 1.613 . S
S367 N369 1.610 . S
N368 S367 1.613 . S
N368 C371 1.350 . S
N369 S367 1.610 . S
N369 C370 1.351 . S
C370 C364 1.428 . S
C370 N369 1.351 . S
C370 C371 1.434 . S
C371 C362 1.429 . S
C371 N368 1.350 . S
C371 C370 1.434 . S
C372 C373 1.369 . S
C372 C374 1.419 . S
C372 H376 0.930 . S
C373 C372 1.369 . S
C373 C382 1.429 . S
C374 C372 1.419 . S
C374 C375 1.363 1_565 S
C374 H377 0.934 . S
C375 C374 1.363 1_545 S
C375 C381 1.428 1_545 S
H376 C372 0.930 . S
H377 C374 0.934 . S
S378 N379 1.613 . S
S378 N380 1.610 . S
N379 S378 1.613 . S
N379 C382 1.350 . S
N380 S378 1.610 . S
N380 C381 1.351 . S
C381 C375 1.428 1_565 S
C381 N380 1.351 . S
C381 C382 1.434 . S
C382 C373 1.429 . S
C382 N379 1.350 . S
C382 C381 1.434 . S
C383 C384 1.369 . S
C383 C385 1.419 . S
C383 H387 0.930 . S
C384 C383 1.369 . S
C384 C393 1.429 . S
C385 C383 1.419 . S
C385 C386 1.363 . S
C385 H388 0.929 . S
C386 C385 1.363 . S
C386 C392 1.428 . S
H387 C383 0.930 . S
H388 C385 0.929 . S
S389 N390 1.613 . S
S389 N391 1.610 . S
N390 S389 1.613 . S
N390 C393 1.350 . S
N391 S389 1.610 . S
N391 C392 1.351 . S
C392 C386 1.428 . S
C392 N391 1.351 . S
C392 C393 1.434 . S
C393 C384 1.429 . S
C393 N390 1.350 . S
C393 C392 1.434 . S
C394 C395 1.369 . S
C394 C396 1.419 . S
C394 H398 0.930 . S
C395 C394 1.369 . S
C395 C404 1.429 . S
C396 C394 1.419 . S
C396 C397 1.363 . S
C396 H399 0.929 . S
C397 C396 1.363 . S
C397 C403 1.428 . S
H398 C394 0.930 . S
H399 C396 0.929 . S
S400 N401 1.613 . S
S400 N402 1.610 . S
N401 S400 1.613 . S
N401 C404 1.350 . S
N402 S400 1.610 . S
N402 C403 1.351 . S
C403 C397 1.428 . S
C403 N402 1.351 . S
C403 C404 1.434 . S
C404 C395 1.429 . S
C404 N401 1.350 . S
C404 C403 1.434 . S
C405 C406 1.369 . S
C405 C407 1.419 . S
C405 H409 0.930 . S
C406 C405 1.369 . S
C406 C415 1.429 . S
C407 C405 1.419 . S
C407 C408 1.363 . S
C407 H410 0.929 . S
C408 C407 1.363 . S
C408 C414 1.428 . S
H409 C405 0.930 . S
H410 C407 0.929 . S
S411 N412 1.613 . S
S411 N413 1.610 . S
N412 S411 1.613 . S
N412 C415 1.350 . S
N413 S411 1.610 . S
N413 C414 1.351 . S
C414 C408 1.428 . S
C414 N413 1.351 . S
C414 C415 1.434 . S
C415 C406 1.429 . S
C415 N412 1.350 . S
C415 C414 1.434 . S
C416 C417 1.369 . S
C416 C418 1.419 . S
C416 H420 0.930 . S
C417 C416 1.369 . S
C417 C426 1.429 . S
C418 C416 1.419 . S
C418 C419 1.363 . S
C418 H421 0.929 . S
C419 C418 1.363 . S
C419 C425 1.428 . S
H420 C416 0.930 . S
H421 C418 0.929 . S
S422 N423 1.613 . S
S422 N424 1.610 . S
N423 S422 1.613 . S
N423 C426 1.350 . S
N424 S422 1.610 . S
N424 C425 1.351 . S
C425 C419 1.428 . S
C425 N424 1.351 . S
C425 C426 1.434 . S
C426 C417 1.429 . S
C426 N423 1.350 . S
C426 C425 1.434 . S
C427 C428 1.369 1_565 S
C427 C429 1.419 . S
C427 H431 0.930 . S
C428 C427 1.369 1_545 S
C428 C437 1.429 . S
C429 C427 1.419 . S
C429 C430 1.363 . S
C429 H432 0.929 . S
C430 C429 1.363 . S
C430 C436 1.428 1_565 S
H431 C427 0.930 . S
H432 C429 0.929 . S
S433 N434 1.613 . S
S433 N435 1.610 . S
N434 S433 1.613 . S
N434 C437 1.350 . S
N435 S433 1.610 . S
N435 C436 1.351 . S
C436 C430 1.428 1_545 S
C436 N435 1.351 . S
C436 C437 1.434 . S
C437 C428 1.429 . S
C437 N434 1.350 . S
C437 C436 1.434 . S
C438 C439 1.369 . S
C438 C440 1.419 . S
C438 H442 0.930 1_545 S
C439 C438 1.369 . S
C439 C448 1.429 . S
C440 C438 1.419 . S
C440 C441 1.363 . S
C440 H443 0.929 . S
C441 C440 1.363 . S
C441 C447 1.428 . S
H442 C438 0.930 1_565 S
H443 C440 0.929 . S
S444 N445 1.613 . S
S444 N446 1.610 . S
N445 S444 1.613 . S
N445 C448 1.350 . S
N446 S444 1.610 . S
N446 C447 1.351 . S
C447 C441 1.428 . S
C447 N446 1.351 . S
C447 C448 1.434 . S
C448 C439 1.429 . S
C448 N445 1.350 . S
C448 C447 1.434 . S
C449 C450 1.369 . S
C449 C451 1.419 . S
C449 H453 0.930 . S
C450 C449 1.369 . S
C450 C459 1.429 1_655 S
C451 C449 1.419 . S
C451 C452 1.363 . S
C451 H454 0.929 . S
C452 C451 1.363 . S
C452 C458 1.428 1_655 S
H453 C449 0.930 . S
H454 C451 0.929 . S
S455 N456 1.613 . S
S455 N457 1.610 . S
N456 S455 1.613 . S
N456 C459 1.350 . S
N457 S455 1.610 . S
N457 C458 1.351 . S
C458 C452 1.428 1_455 S
C458 N457 1.351 . S
C458 C459 1.434 . S
C459 C450 1.429 1_455 S
C459 N456 1.350 . S
C459 C458 1.434 . S
C460 C461 1.369 . S
C460 C462 1.419 . S
C460 H464 0.930 . S
C461 C460 1.369 . S
C461 C470 1.429 . S
C462 C460 1.419 . S
C462 C463 1.363 . S
C462 H465 0.929 . S
C463 C462 1.363 . S
C463 C469 1.428 . S
H464 C460 0.930 . S
H465 C462 0.929 . S
S466 N467 1.613 . S
S466 N468 1.610 . S
N467 S466 1.613 . S
N467 C470 1.350 . S
N468 S466 1.610 . S
N468 C469 1.351 . S
C469 C463 1.428 . S
C469 N468 1.351 . S
C469 C470 1.434 . S
C470 C461 1.429 . S
C470 N467 1.350 . S
C470 C469 1.434 . S
C471 C472 1.369 . S
C471 C473 1.419 . S
C471 H475 0.930 . S
C472 C471 1.369 . S
C472 C481 1.429 . S
C473 C471 1.419 . S
C473 C474 1.363 . S
C473 H476 0.929 . S
C474 C473 1.363 . S
C474 C480 1.428 . S
H475 C471 0.930 . S
H476 C473 0.929 . S
S477 N478 1.613 . S
S477 N479 1.610 . S
N478 S477 1.613 . S
N478 C481 1.350 . S
N479 S477 1.610 . S
N479 C480 1.351 . S
C480 C474 1.428 . S
C480 N479 1.351 . S
C480 C481 1.434 . S
C481 C472 1.429 . S
C481 N478 1.350 . S
C481 C480 1.434 . S
C482 C483 1.369 . S
C482 C484 1.419 . S
C482 H486 0.930 . S
C483 C482 1.369 . S
C483 C492 1.429 . S
C484 C482 1.419 . S
C484 C485 1.363 . S
C484 H487 0.929 . S
C485 C484 1.363 . S
C485 C491 1.428 . S
H486 C482 0.930 . S
H487 C484 0.929 . S
S488 N489 1.613 . S
S488 N490 1.610 . S
N489 S488 1.613 . S
N489 C492 1.350 . S
N490 S488 1.610 . S
N490 C491 1.351 . S
C491 C485 1.428 . S
C491 N490 1.351 . S
C491 C492 1.434 . S
C492 C483 1.429 . S
C492 N489 1.350 . S
C492 C491 1.434 . S
C493 C494 1.369 . S
C493 C495 1.419 . S
C493 H497 0.930 . S
C494 C493 1.369 . S
C494 C503 1.429 1_655 S
C495 C493 1.419 . S
C495 C496 1.363 1_655 S
C495 H498 0.929 . S
C496 C495 1.363 1_455 S
C496 C502 1.428 . S
H497 C493 0.930 . S
H498 C495 0.929 . S
S499 N500 1.613 . S
S499 N501 1.610 . S
N500 S499 1.613 . S
N500 C503 1.350 . S
N501 S499 1.610 . S
N501 C502 1.351 . S
C502 C496 1.428 . S
C502 N501 1.351 . S
C502 C503 1.434 . S
C503 C494 1.429 1_455 S
C503 N500 1.350 . S
C503 C502 1.434 . S
C208 C44 1.330 1_554 S
C210 C17 1.225 1_556 S
C219 C62 1.518 1_556 S
C221 C40 1.403 . S
C230 C64 1.265 1_554 S
C232 C21 1.278 1_554 S
C241 C63 1.272 . S
C243 C39 1.373 . S
C252 C67 0.962 . S
C254 C18 0.957 . S
C263 C16 1.318 . S
C265 C41 1.294 . S
C274 C86 1.289 . S
C276 C113 1.385 . S
C285 C136 1.516 . S
C287 C109 1.398 . S
C296 C132 1.173 . S
C298 C90 1.273 1_545 S
C307 C108 1.261 . S
C309 C133 1.237 . S
C318 C131 1.019 . S
C320 C87 1.009 . S
C329 C110 1.119 . S
C331 C85 1.144 . S
C340 C182 1.200 . S
C342 C155 1.135 . S
C351 C178 1.436 . S
C353 C200 1.552 . S
C362 C202 1.152 . S
C364 C159 1.159 . S
C373 C201 1.151 . S
C375 C177 1.258 . S
C384 C205 1.012 1_455 S
C386 C156 1.007 . S
C395 C154 1.211 . S
C397 C179 1.189 . S
C406 C134 1.555 . S
C408 C20 1.652 . S
C417 C88 1.729 . S
C419 C43 1.858 . S
C428 C65 1.659 . S
C430 C111 1.633 . S
C439 C66 1.589 . S
C441 C158 1.589 . S
C450 C19 1.636 . S
C452 C181 1.746 . S
C461 C203 1.751 . S
C463 C42 1.751 . S
C472 C89 1.716 . S
C474 C204 1.713 . S
C483 C112 1.634 1_545 S
C485 C157 1.533 . S
C494 C180 1.693 . S
C496 C135 1.803 . S
