# Generated by pormake.
# Topology dft, (4)-cn, num edge types: 1
# Building blocks:
#     Node 0, Type 0, BuildingBlock: TATPOV_clean_sbu_0, # of connection points: 4
#     Node 1, Type 0, BuildingBlock: TATPOV_clean_sbu_0, # of connection points: 4
#     Node 2, Type 0, BuildingBlock: TATPOV_clean_sbu_0, # of connection points: 4
#     Node 3, Type 0, BuildingBlock: TATPOV_clean_sbu_0, # of connection points: 4
#     Node 4, Type 0, BuildingBlock: TATPOV_clean_sbu_0, # of connection points: 4
#     Node 5, Type 0, BuildingBlock: TATPOV_clean_sbu_0, # of connection points: 4
#     Node 6, Type 0, BuildingBlock: TATPOV_clean_sbu_0, # of connection points: 4
#     Node 7, Type 0, BuildingBlock: TATPOV_clean_sbu_0, # of connection points: 4
#     Edge 8, Type (0, 0), BuildingBlock: MIFKUJ_clean_linker_0, # of connection points: 2
#     Edge 9, Type (0, 0), BuildingBlock: MIFKUJ_clean_linker_0, # of connection points: 2
#     Edge 10, Type (0, 0), BuildingBlock: MIFKUJ_clean_linker_0, # of connection points: 2
#     Edge 11, Type (0, 0), BuildingBlock: MIFKUJ_clean_linker_0, # of connection points: 2
#     Edge 12, Type (0, 0), BuildingBlock: MIFKUJ_clean_linker_0, # of connection points: 2
#     Edge 13, Type (0, 0), BuildingBlock: MIFKUJ_clean_linker_0, # of connection points: 2
#     Edge 14, Type (0, 0), BuildingBlock: MIFKUJ_clean_linker_0, # of connection points: 2
#     Edge 15, Type (0, 0), BuildingBlock: MIFKUJ_clean_linker_0, # of connection points: 2
#     Edge 16, Type (0, 0), BuildingBlock: MIFKUJ_clean_linker_0, # of connection points: 2
#     Edge 17, Type (0, 0), BuildingBlock: MIFKUJ_clean_linker_0, # of connection points: 2
#     Edge 18, Type (0, 0), BuildingBlock: MIFKUJ_clean_linker_0, # of connection points: 2
#     Edge 19, Type (0, 0), BuildingBlock: MIFKUJ_clean_linker_0, # of connection points: 2
#     Edge 20, Type (0, 0), BuildingBlock: MIFKUJ_clean_linker_0, # of connection points: 2
#     Edge 21, Type (0, 0), BuildingBlock: MIFKUJ_clean_linker_0, # of connection points: 2
#     Edge 22, Type (0, 0), BuildingBlock: MIFKUJ_clean_linker_0, # of connection points: 2
#     Edge 23, Type (0, 0), BuildingBlock: MIFKUJ_clean_linker_0, # of connection points: 2
# Relax obj value: 0.141
# Max RMSD: 0.143
# Mean RMSD: 0.143
data_MOF--net-dft--node1-TATPOV_clean_sbu_0--edge1-MIFKUJ_clean_linker_0
_symmetry_space_group_name_H-M    P1
_symmetry_Int_Tables_number       1
_symmetry_cell_setting            triclinic
loop_
_symmetry_equiv_pos_as_xyz
'x, y, z'
_cell_length_a     43.914536
_cell_length_b     43.851231
_cell_length_c     52.947811
_cell_angle_alpha  89.950818
_cell_angle_beta   89.965556
_cell_angle_gamma 89.962591
loop_
_atom_site_label
_atom_site_type_symbol
_atom_site_fract_x
_atom_site_fract_y
_atom_site_fract_z
_atom_type_partial_charge
Zn0 Zn 0.2417 0.98817 0.15486 0.0
Zn1 Zn 0.29668 0.99136 0.17461 0.0
O2 O 0.2782 0.95293 0.19123 0.0
O3 O 0.23013 0.95546 0.17953 0.0
O4 O 0.33871 0.99278 0.18954 0.0
O5 O 0.26011 0.97676 0.12138 0.0
O6 O 0.3055 0.9874 0.13665 0.0
C7 C 0.25105 0.94278 0.19215 0.0
C8 C 0.25298 0.04598 0.17753 0.0
O9 O 0.27736 0.03262 0.18451 0.0
O10 O 0.23423 0.03225 0.16339 0.0
C11 C 0.34592 0.00727 0.20944 0.0
O12 O 0.325 0.02282 0.22165 0.0
C13 C 0.28848 0.98001 0.11819 0.0
Zn14 Zn -0.00216 0.23269 0.67137 0.0
Zn15 Zn 0.99681 0.29038 0.68705 0.0
O16 O 0.03474 0.27273 0.70466 0.0
O17 O 0.03136 0.22364 0.69631 0.0
O18 O 0.99467 0.3339 0.69874 0.0
O19 O 0.00851 0.24771 0.63647 0.0
O20 O 0.00273 0.29525 0.64889 0.0
C21 C 0.04462 0.2456 0.70724 0.0
C22 C 0.94075 0.24864 0.69292 0.0
O23 O 0.95487 0.27338 0.69763 0.0
O24 O 0.95392 0.22746 0.68092 0.0
C25 C 0.0068 0.34447 0.71869 0.0
O26 O 0.02226 0.32623 0.73362 0.0
C27 C 0.00813 0.27596 0.63149 0.0
Zn28 Zn 0.76583 0.99572 0.15516 0.0
Zn29 Zn 0.7139 0.99527 0.18137 0.0
O30 O 0.73342 0.03615 0.19205 0.0
O31 O 0.77504 0.03745 0.1689 0.0
O32 O 0.6734 0.99404 0.19899 0.0
O33 O 0.74285 0.99096 0.12269 0.0
O34 O 0.70012 0.99266 0.14429 0.0
C35 C 0.75763 0.04978 0.18501 0.0
C36 C 0.76195 0.94552 0.18982 0.0
O37 O 0.73582 0.95685 0.19453 0.0
O38 O 0.77942 0.95833 0.17402 0.0
C39 C 0.66461 0.01017 0.21755 0.0
O40 O 0.68345 0.02984 0.2278 0.0
C41 C 0.71405 0.99055 0.12327 0.0
Zn42 Zn -0.00078 0.76868 0.65847 0.0
Zn43 Zn 0.99341 0.71974 0.68532 0.0
O44 O 0.96084 0.74807 0.70108 0.0
O45 O 0.97288 0.79159 0.68288 0.0
O46 O 0.98783 0.67954 0.70285 0.0
O47 O 0.98081 0.74937 0.6278 0.0
O48 O 0.9867 0.70627 0.64842 0.0
C49 C 0.95731 0.77681 0.69884 0.0
C50 C 0.0551 0.75068 0.68135 0.0
O51 O 0.03755 0.73245 0.69316 0.0
O52 O 0.04468 0.76721 0.66374 0.0
C53 C 0.00348 0.66891 0.72103 0.0
O54 O 0.02485 0.6858 0.73129 0.0
C55 C 0.98025 0.72056 0.62819 0.0
Zn56 Zn 0.23827 0.00801 0.8182 0.0
Zn57 Zn 0.29392 0.00106 0.79989 0.0
O58 O 0.28022 0.04218 0.78443 0.0
O59 O 0.23159 0.04335 0.79481 0.0
O60 O 0.33596 0.99478 0.78623 0.0
O61 O 0.25631 0.01548 0.85269 0.0
O62 O 0.30149 0.00253 0.83805 0.0
C63 C 0.25412 0.05478 0.78333 0.0
C64 C 0.24556 0.9512 0.79291 0.0
O65 O 0.27152 0.96257 0.78777 0.0
O66 O 0.22715 0.96568 0.80687 0.0
C67 C 0.34349 -0.00068 0.76336 0.0
O68 O 0.32298 0.00908 0.7472 0.0
C69 C 0.28429 0.0101 0.85635 0.0
Zn70 Zn 0.0204 0.22321 0.3327 0.0
Zn71 Zn 0.0111 0.27946 0.31495 0.0
O72 O 0.97219 0.25702 0.30387 0.0
O73 O 0.98088 0.21004 0.31663 0.0
O74 O 0.00396 0.32254 0.30372 0.0
O75 O 0.02104 0.23866 0.36822 0.0
O76 O 0.01572 0.28524 0.3534 0.0
C77 C 0.96384 0.22929 0.30572 0.0
C78 C 0.06748 0.24339 0.29899 0.0
O79 O 0.05053 0.26677 0.29639 0.0
O80 O 0.05997 0.22196 0.31373 0.0
C81 C -0.00117 0.33106 0.28117 0.0
O82 O -0.00188 0.31068 0.26301 0.0
C83 C 0.01926 0.26709 0.37198 0.0
Zn84 Zn 0.74572 0.04174 0.84717 0.0
Zn85 Zn 0.69721 0.0233 0.82052 0.0
O86 O 0.72823 0.98982 0.8128 0.0
O87 O 0.76922 0.00581 0.83272 0.0
O88 O 0.65999 0.00983 0.80179 0.0
O89 O 0.72184 0.03778 0.87921 0.0
O90 O 0.6817 0.02361 0.85727 0.0
C91 C 0.75612 0.9864 0.81873 0.0
C92 C 0.72625 0.08593 0.81093 0.0
O93 O 0.70752 0.0651 0.80466 0.0
O94 O 0.74455 0.08192 0.82907 0.0
C95 C 0.65572 0.01322 0.77822 0.0
O96 O 0.67692 0.02618 0.76438 0.0
C97 C 0.69416 0.02985 0.87835 0.0
Zn98 Zn 0.01014 0.75776 0.33595 0.0
Zn99 Zn 0.00482 0.70415 0.31481 0.0
O100 O 0.04366 0.72118 0.29736 0.0
O101 O 0.04323 0.7683 0.31173 0.0
O102 O 0.00043 0.66159 0.3016 0.0
O103 O 0.02081 0.73938 0.3695 0.0
O104 O 0.00885 0.69505 0.35279 0.0
C105 C 0.05477 0.74804 0.29767 0.0
C106 C 0.95234 0.75002 0.31225 0.0
O107 O 0.96443 0.72511 0.30491 0.0
O108 O 0.96682 0.76755 0.32695 0.0
C109 C 0.99444 0.65296 0.27926 0.0
O110 O 0.99099 0.67334 0.26129 0.0
C111 C 0.01664 0.71099 0.37178 0.0
H112 H 0.33494 0.01311 0.09761 0.0
H113 H 0.34584 0.01867 0.05237 0.0
H114 H 0.28098 0.94761 0.03577 0.0
H115 H 0.26919 0.94286 0.08066 0.0
H116 H 0.36211 0.98575 0.00952 0.0
H117 H 0.23228 0.97329 0.99311 0.0
H118 H 0.18439 0.97975 0.01694 0.0
H119 H 0.22764 0.04516 0.0654 0.0
H120 H 0.2756 0.03944 0.04161 0.0
H121 H 0.32367 0.97068 0.87904 0.0
H122 H 0.33573 0.9682 0.92415 0.0
H123 H 0.28497 0.05132 0.93642 0.0
H124 H 0.27126 0.05252 0.89175 0.0
H125 H 0.26548 0.01287 0.96644 0.0
H126 H 0.36586 0.04407 0.9452 0.0
H127 H 0.41492 0.04361 0.92254 0.0
H128 H 0.43312 0.95326 0.95 0.0
H129 H 0.38396 0.95299 0.97255 0.0
C130 C 0.32372 0.99811 0.08431 0.0
C131 C 0.3008 0.978 0.09242 0.0
C132 C 0.33002 0.00124 0.05852 0.0
C133 C 0.31369 0.98403 0.04078 0.0
C134 C 0.29339 0.96149 0.04919 0.0
C135 C 0.28665 0.95882 0.07479 0.0
C136 C 0.31386 0.9927 0.01378 0.0
C137 C 0.3411 0.99173 -5e-05 0.0
C138 C 0.28658 0.0016 0.00166 0.0
C139 C 0.25759 0.00571 0.01572 0.0
C140 C 0.2315 0.98917 0.00877 0.0
C141 C 0.20436 0.99268 0.02228 0.0
C142 C 0.203 0.01278 0.04271 0.0
C143 C 0.22874 0.02953 0.04961 0.0
C144 C 0.25591 0.02615 0.03613 0.0
C145 C 0.31567 0.98868 0.89139 0.0
C146 C 0.29629 0.01158 0.88219 0.0
C147 C 0.32274 0.98741 0.91712 0.0
C148 C 0.31129 0.0096 0.93379 0.0
C149 C 0.29383 0.03376 0.92404 0.0
C150 C 0.28602 0.03449 0.89856 0.0
C151 C 0.31375 0.00552 0.96156 0.0
C152 C 0.28677 0.00723 0.97572 0.0
C153 C 0.34148 -0.00161 0.97394 0.0
C154 C 0.37108 -0.00157 0.96041 0.0
C155 C 0.3802 0.024 0.94625 0.0
C156 C 0.40806 0.02389 0.93346 0.0
C157 C 0.42709 -0.00161 0.93479 0.0
C158 C 0.41834 0.97298 0.94897 0.0
C159 C 0.3905 0.97297 0.96179 0.0
H160 H 0.44865 -0.00165 0.92487 0.0
H161 H 0.18198 0.01543 0.05318 0.0
H162 H 0.02978 0.24185 0.59263 0.0
H163 H 0.03771 0.25739 0.54908 0.0
H164 H 0.00774 0.34854 0.56704 0.0
H165 H -0.00039 0.33305 0.61116 0.0
H166 H 0.97964 0.32429 0.52438 0.0
H167 H 0.08024 0.34027 0.55253 0.0
H168 H 0.1277 0.32945 0.57572 0.0
H169 H 0.14151 0.24861 0.53146 0.0
H170 H 0.09391 0.25865 0.50826 0.0
H171 H 0.00854 0.32533 0.38924 0.0
H172 H 0.01229 0.34346 0.43307 0.0
H173 H 0.0399 0.25349 0.45688 0.0
H174 H 0.03628 0.23535 0.41367 0.0
H175 H 0.07482 0.29902 0.47838 0.0
H176 H 0.96673 0.27588 0.46202 0.0
H177 H 0.91806 0.28442 0.43983 0.0
H178 H 0.91879 0.37841 0.46257 0.0
H179 H 0.96768 0.37044 0.48466 0.0
C180 C 0.02503 0.26528 0.58748 0.0
C181 C 0.01399 0.2862 0.60535 0.0
C182 C 0.02982 0.27421 0.56258 0.0
C183 C 0.02374 0.30423 0.55496 0.0
C184 C 0.01281 0.32534 0.57268 0.0
C185 C 0.0082 0.31645 0.59781 0.0
C186 C 0.02703 0.31223 0.52797 0.0
C187 C 0.00071 0.31981 0.51432 0.0
C188 C 0.05452 0.30635 0.51492 0.0
C189 C 0.08343 0.30026 0.52862 0.0
C190 C 0.09331 0.32011 0.5478 0.0
C191 C 0.12026 0.31411 0.56095 0.0
C192 C 0.13761 0.28837 0.55506 0.0
C193 C 0.12807 0.26858 0.53598 0.0
C194 C 0.10114 0.27446 0.52277 0.0
C195 C 0.01555 0.30953 0.40385 0.0
C196 C 0.02193 0.27886 0.39803 0.0
C197 C 0.01771 0.31992 0.4288 0.0
C198 C 0.02644 0.2998 0.44813 0.0
C199 C 0.03335 0.26943 0.4422 0.0
C200 C 0.03102 0.25904 0.41748 0.0
C201 C 0.02704 0.30914 0.47493 0.0
C202 C 0.05414 0.30488 0.48849 0.0
C203 C 0.0003 0.31799 0.48789 0.0
C204 C 0.97099 0.32269 0.47465 0.0
C205 C 0.95661 0.29842 0.4621 0.0
C206 C 0.92898 0.30314 0.44958 0.0
C207 C 0.9154 0.33197 0.44971 0.0
C208 C 0.92938 0.35611 0.46242 0.0
C209 C 0.95703 0.35151 0.47494 0.0
H210 H 0.894 0.33558 0.44002 0.0
H211 H 0.15845 0.28375 0.56528 0.0
H212 H 0.70592 0.05892 0.92227 0.0
H213 H 0.68426 0.04829 0.96354 0.0
H214 H 0.62229 0.98345 0.93022 0.0
H215 H 0.64419 0.9941 0.88837 0.0
H216 H 0.62957 0.04853 0.98802 0.0
H217 H 0.62358 0.92252 0.97111 0.0
H218 H 0.64022 0.88313 0.94073 0.0
H219 H 0.72185 0.9339 0.92567 0.0
H220 H 0.70576 0.97338 0.95612 0.0
H221 H 0.65234 0.99674 0.11552 0.0
H222 H 0.62553 0.99623 0.0748 0.0
H223 H 0.71057 0.97839 0.03667 0.0
H224 H 0.73715 0.97849 0.07678 0.0
H225 H 0.66503 0.94631 0.01543 0.0
H226 H 0.68329 0.05242 0.04533 0.0
H227 H 0.6746 0.09437 0.07556 0.0
H228 H 0.57804 0.08676 0.06439 0.0
H229 H 0.58624 0.04458 0.03423 0.0
C230 C 0.68727 0.04283 0.92359 0.0
C231 C 0.6771 0.02692 0.90222 0.0
C232 C 0.67464 0.03702 0.94718 0.0
C233 C 0.65177 0.01496 0.94998 0.0
C234 C 0.63995 0.00054 0.92843 0.0
C235 C 0.65249 0.0066 0.9046 0.0
C236 C 0.64475 0.00419 0.97583 0.0
C237 C 0.63626 0.02583 0.99404 0.0
C238 C 0.65333 0.97457 0.9837 0.0
C239 C 0.6633 0.95095 0.96557 0.0
C240 C 0.64507 0.9252 0.96129 0.0
C241 C 0.6544 0.90288 0.94409 0.0
C242 C 0.68202 0.90607 0.93121 0.0
C243 C 0.70043 0.9315 0.93559 0.0
C244 C 0.69122 0.95384 0.95281 0.0
C245 C 0.66517 0.9923 0.09844 0.0
C246 C 0.69694 0.98803 0.09933 0.0
C247 C 0.64981 0.99195 0.07524 0.0
C248 C 0.66606 0.98729 0.05272 0.0
C249 C 0.69749 0.98175 0.05381 0.0
C250 C 0.71276 0.98214 0.0768 0.0
C251 C 0.65191 0.99134 0.02757 0.0
C252 C 0.65624 0.96833 0.00951 0.0
C253 C 0.64019 0.01991 0.01984 0.0
C254 C 0.63533 0.04522 0.03784 0.0
C255 C 0.66022 0.05963 0.04945 0.0
C256 C 0.65539 0.08344 0.06654 0.0
C257 C 0.62578 0.09316 0.07196 0.0
C258 C 0.60095 0.07915 0.06023 0.0
C259 C 0.60567 0.05531 0.04315 0.0
H260 H 0.62208 0.11159 0.08519 0.0
H261 H 0.68919 0.88879 0.91788 0.0
H262 H 0.05991 0.72107 0.40712 0.0
H263 H 0.05775 0.70677 0.45167 0.0
H264 H 0.97361 0.65845 0.43817 0.0
H265 H 0.97705 0.67103 0.39324 0.0
H266 H 0.01856 0.72874 0.47984 0.0
H267 H 0.95467 0.6121 0.48693 0.0
H268 H 0.95499 0.56198 0.46584 0.0
H269 H 0.04712 0.57677 0.44158 0.0
H270 H 0.04753 0.62677 0.46282 0.0
H271 H 0.94249 0.73532 0.58962 0.0
H272 H 0.94732 0.71809 0.54596 0.0
H273 H 0.01629 0.6535 0.56847 0.0
H274 H 0.0105 0.66976 0.61251 0.0
H275 H 0.98505 0.63501 0.52445 0.0
H276 H 0.0397 0.72149 0.55611 0.0
H277 H 0.04488 0.77031 0.57879 0.0
H278 H 0.9836 0.81298 0.52636 0.0
H279 H 0.97764 0.76423 0.50364 0.0
C280 C 0.04158 0.7065 0.4136 0.0
C281 C 0.01853 0.69727 0.397 0.0
C282 C 0.04028 0.69837 0.43902 0.0
C283 C 0.01537 0.68173 0.44843 0.0
C284 C 0.99333 0.67083 0.43143 0.0
C285 C 0.99517 0.67819 0.40578 0.0
C286 C 0.00992 0.68047 0.47609 0.0
C287 C 0.01159 0.70803 0.48947 0.0
C288 C 0.00096 0.65355 0.48894 0.0
C289 C 0.00102 0.62334 0.47631 0.0
C290 C 0.97506 0.60461 0.47721 0.0
C291 C 0.9751 0.57622 0.4652 0.0
C292 C 0.00103 0.56624 0.45232 0.0
C293 C 0.02701 0.58458 0.45148 0.0
C294 C 0.0271 0.61298 0.46347 0.0
C295 C 0.95772 0.71655 0.58539 0.0
C296 C 0.9765 0.70418 0.6042 0.0
C297 C 0.96044 0.70669 0.5605 0.0
C298 C 0.98275 0.68513 0.55398 0.0
C299 C -0.00096 0.67024 0.57315 0.0
C300 C 0.99577 0.67961 0.59826 0.0
C301 C 0.99321 0.68325 0.52748 0.0
C302 C 0.9924 0.65536 0.51453 0.0
C303 C 0.00404 0.70963 0.51501 0.0
C304 C 0.00804 0.73917 0.52831 0.0
C305 C 0.0272 0.74125 0.54951 0.0
C306 C 0.03028 0.7689 0.56237 0.0
C307 C 0.01454 0.79472 0.55405 0.0
C308 C 0.99575 0.79295 0.5328 0.0
C309 C 0.99253 0.76532 0.51992 0.0
H310 H 0.01693 0.81611 0.56403 0.0
H311 H 0.00101 0.54426 0.44303 0.0
H312 H 0.39227 0.97157 0.19228 0.0
H313 H 0.44545 0.97242 0.20525 0.0
H314 H 0.42551 0.04306 0.25944 0.0
H315 H 0.37187 0.04243 0.24647 0.0
H316 H 0.47522 0.05641 0.22978 0.0
H317 H 0.44277 0.97399 0.28117 0.0
H318 H 0.41641 0.92593 0.29142 0.0
H319 H 0.47274 0.87788 0.23839 0.0
H320 H 0.49916 0.92572 0.22753 0.0
H321 H 0.63528 0.04534 0.25297 0.0
H322 H 0.58079 0.04505 0.26314 0.0
H323 H 0.56704 0.97121 0.21055 0.0
H324 H 0.62111 0.97096 0.2007 0.0
H325 H 0.53321 0.963 0.25193 0.0
H326 H 0.55556 0.04663 0.19379 0.0
H327 H 0.581 0.0945 0.18137 0.0
H328 H 0.54286 0.13973 0.24599 0.0
H329 H 0.51746 0.09197 0.25892 0.0
C330 C 0.39906 0.98716 0.20709 0.0
C331 C 0.37785 0.00698 0.21831 0.0
C332 C 0.42946 0.98746 0.21462 0.0
C333 C 0.43933 0.00753 0.23353 0.0
C334 C 0.41825 0.02727 0.24493 0.0
C335 C 0.38766 0.02684 0.23751 0.0
C336 C 0.47212 0.00893 0.23993 0.0
C337 C 0.48785 0.0362 0.23532 0.0
C338 C 0.48856 0.98247 0.24689 0.0
C339 C 0.47289 0.95352 0.25347 0.0
C340 C 0.44943 0.95321 0.27157 0.0
C341 C 0.43448 0.92599 0.27751 0.0
C342 C 0.44288 0.89887 0.26555 0.0
C343 C 0.46627 0.8989 0.24766 0.0
C344 C 0.48128 0.92606 0.24163 0.0
C345 C 0.62068 0.02878 0.24386 0.0
C346 C 0.63248 0.00839 0.22583 0.0
C347 C 0.58956 0.0287 0.24964 0.0
C348 C 0.56981 0.00834 0.23738 0.0
C349 C 0.58184 0.98711 0.22027 0.0
C350 C 0.6128 0.98712 0.21455 0.0
C351 C 0.53633 0.0101 0.24071 0.0
C352 C 0.52049 0.98342 0.24717 0.0
C353 C 0.51977 0.03704 0.23528 0.0
C354 C 0.53497 0.06569 0.22749 0.0
C355 C 0.5528 0.06674 0.20543 0.0
C356 C 0.56717 0.09385 0.19829 0.0
C357 C 0.56364 0.12011 0.21293 0.0
C358 C 0.54564 0.11935 0.2347 0.0
C359 C 0.53125 0.09228 0.24194 0.0
H360 H 0.57478 0.14108 0.20737 0.0
H361 H 0.43127 0.87782 0.27017 0.0
H362 H 0.97003 0.38612 0.69578 0.0
H363 H 0.96914 0.44112 0.70211 0.0
H364 H 0.03799 0.43291 0.75979 0.0
H365 H 0.0386 0.37742 0.75392 0.0
H366 H 0.99495 0.47589 0.77219 0.0
H367 H 0.05898 0.45344 0.70187 0.0
H368 H 0.07321 0.42945 0.66146 0.0
H369 H -0.00015 0.47609 0.62424 0.0
H370 H 0.98488 0.50003 0.66454 0.0
H371 H 0.03729 0.63572 0.755 0.0
H372 H 0.03674 0.58019 0.76071 0.0
H373 H 0.96279 0.57297 0.70752 0.0
H374 H 0.96299 0.62806 0.70177 0.0
H375 H 0.01375 0.53779 0.69525 0.0
H376 H 0.94941 0.55905 0.76722 0.0
H377 H 0.93676 0.58294 0.80804 0.0
H378 H 0.01386 0.53931 0.84244 0.0
H379 H 0.02723 0.51548 0.80171 0.0
C380 C 0.98485 0.39591 0.70996 0.0
C381 C 0.00469 0.37746 0.72412 0.0
C382 C 0.98432 0.42737 0.71354 0.0
C383 C 0.00392 0.44112 0.73107 0.0
C384 C 0.02279 0.42271 0.74609 0.0
C385 C 0.02317 0.39107 0.74265 0.0
C386 C 0.00569 0.4748 0.73248 0.0
C387 C -0.00049 0.48948 0.75548 0.0
C388 C 0.01157 0.49246 0.71064 0.0
C389 C 0.02067 0.47835 0.68628 0.0
C390 C 0.04575 0.45843 0.68511 0.0
C391 C 0.05396 0.44485 0.66222 0.0
C392 C 0.0374 0.45119 0.64031 0.0
C393 C 0.01264 0.47118 0.64124 0.0
C394 C 0.0043 0.48479 0.66409 0.0
C395 C 0.02053 0.62235 0.7449 0.0
C396 C 0.00043 0.63628 0.7277 0.0
C397 C 0.02023 0.59067 0.74823 0.0
C398 C -0.00016 0.57257 0.73441 0.0
C399 C 0.97879 0.58658 0.71824 0.0
C400 C 0.97896 0.61811 0.71502 0.0
C401 C 0.00208 0.53893 0.73475 0.0
C402 C 0.00933 0.52424 0.71201 0.0
C403 C -0.00246 0.52144 0.75688 0.0
C404 C 0.98953 0.53578 0.78134 0.0
C405 C 0.96385 0.5548 0.78342 0.0
C406 C 0.9565 0.56827 0.80656 0.0
C407 C 0.97455 0.56273 0.8278 0.0
C408 C -6e-05 0.54363 0.82596 0.0
C409 C 0.0074 0.53012 0.80286 0.0
H410 H 0.96882 0.57317 0.8457 0.0
H411 H 0.04379 0.44065 0.6226 0.0
H412 H 0.63398 0.0261 0.73077 0.0
H413 H 0.58239 0.01669 0.71482 0.0
H414 H 0.55904 0.97216 0.78489 0.0
H415 H 0.61023 0.98107 0.80075 0.0
H416 H 0.53335 0.94337 0.74482 0.0
H417 H 0.54527 0.04821 0.77576 0.0
H418 H 0.56846 0.09944 0.77494 0.0
H419 H 0.54183 0.11036 0.69742 0.0
H420 H 0.51878 0.059 0.69774 0.0
H421 H 0.38857 0.97191 0.79031 0.0
H422 H 0.44209 0.96729 0.77917 0.0
H423 H 0.42477 0.01117 0.70764 0.0
H424 H 0.37072 0.01609 0.71878 0.0
H425 H 0.47179 0.03716 0.73268 0.0
H426 H 0.44593 0.93721 0.70777 0.0
H427 H 0.42146 0.88674 0.71054 0.0
H428 H 0.47313 0.86623 0.77725 0.0
H429 H 0.49758 0.91674 0.77513 0.0
C430 C 0.61797 0.01386 0.74258 0.0
C431 C 0.62603 0.0047 0.76716 0.0
C432 C 0.58854 0.00853 0.73345 0.0
C433 C 0.56684 0.994 0.74878 0.0
C434 C 0.57544 0.98336 0.77272 0.0
C435 C 0.60468 0.9887 0.78184 0.0
C436 C 0.53436 0.99227 0.74141 0.0
C437 C 0.51983 0.9638 0.74198 0.0
C438 C 0.51695 0.01887 0.73681 0.0
C439 C 0.5307 0.04969 0.73667 0.0
C440 C 0.54457 0.06148 0.7585 0.0
C441 C 0.55765 0.09053 0.75814 0.0
C442 C 0.55672 0.1081 0.73612 0.0
C443 C 0.54261 0.09669 0.71444 0.0
C444 C 0.52954 0.06762 0.7147 0.0
C445 C 0.39598 0.98031 0.77207 0.0
C446 C 0.37543 0.99453 0.75548 0.0
C447 C 0.42658 0.97738 0.76562 0.0
C448 C 0.43734 0.98851 0.74242 0.0
C449 C 0.41684 0.00221 0.72554 0.0
C450 C 0.38602 0.005 0.73194 0.0
C451 C 0.47052 0.98836 0.73738 0.0
C452 C 0.48525 0.01651 0.73449 0.0
C453 C 0.48805 0.96145 0.73996 0.0
C454 C 0.47358 0.93087 0.74129 0.0
C455 C 0.45196 0.92202 0.72312 0.0
C456 C 0.4381 0.89338 0.72456 0.0
C457 C 0.44573 0.8733 0.74406 0.0
C458 C 0.46727 0.8818 0.76213 0.0
C459 C 0.48119 0.91042 0.76079 0.0
H460 H 0.43496 0.85114 0.74515 0.0
H461 H 0.56685 0.13059 0.73587 0.0
H462 H 0.99727 0.37771 0.31503 0.0
H463 H 0.98937 0.43164 0.3067 0.0
H464 H 0.98068 0.41309 0.22703 0.0
H465 H 0.98896 0.35857 0.2352 0.0
H466 H 0.01764 0.46218 0.23635 0.0
H467 H 0.91798 0.43167 0.25948 0.0
H468 H 0.87847 0.40564 0.28459 0.0
H469 H 0.90181 0.45975 0.34928 0.0
H470 H 0.94179 0.48581 0.3247 0.0
H471 H 0.98467 0.62455 0.2336 0.0
H472 H 0.97853 0.5696 0.22607 0.0
H473 H 0.98969 0.55242 0.30576 0.0
H474 H 0.99565 0.60669 0.31344 0.0
H475 H 0.94178 0.52089 0.28597 0.0
H476 H 0.04808 0.54231 0.26463 0.0
H477 H 0.08841 0.5677 0.23991 0.0
H478 H 0.05161 0.53038 0.17147 0.0
H479 H 0.01083 0.50506 0.1958 0.0
C480 C 0.99359 0.38494 0.2957 0.0
C481 C 0.99367 0.36378 0.27578 0.0
C482 C 0.98889 0.41583 0.29099 0.0
C483 C 0.98392 0.42631 0.2663 0.0
C484 C 0.98426 0.40539 0.24625 0.0
C485 C 0.98895 0.3743 0.25096 0.0
C486 C 0.97946 0.45938 0.26183 0.0
C487 C 0.00055 0.47499 0.24666 0.0
C488 C 0.9572 0.47607 0.27534 0.0
C489 C 0.93299 0.46064 0.29022 0.0
C490 C 0.91482 0.43791 0.2791 0.0
C491 C 0.89232 0.42316 0.29324 0.0
C492 C 0.88765 0.43102 0.31851 0.0
C493 C 0.90544 0.4537 0.32969 0.0
C494 C 0.92799 0.46851 0.31564 0.0
C495 C 0.98577 0.60901 0.24948 0.0
C496 C 0.99072 0.62 0.2741 0.0
C497 C 0.98229 0.57768 0.24514 0.0
C498 C 0.98367 0.55698 0.26538 0.0
C499 C 0.98837 0.568 0.2899 0.0
C500 C 0.99194 0.59909 0.29422 0.0
C501 C 0.98087 0.52365 0.26153 0.0
C502 C 0.9583 0.50801 0.27508 0.0
C503 C 0.0017 0.50699 0.24652 0.0
C504 C 0.02622 0.52215 0.23197 0.0
C505 C 0.04846 0.53974 0.24429 0.0
C506 C 0.07142 0.55407 0.23036 0.0
C507 C 0.07251 0.55074 0.20412 0.0
C508 C 0.05069 0.533 0.19178 0.0
C509 C 0.02767 0.51865 0.20563 0.0
H510 H 0.0903 0.56185 0.19337 0.0
H511 H 0.87022 0.41957 0.32943 0.0
H512 H 0.12379 0.23786 0.31859 0.0
H513 H 0.16934 0.21981 0.29661 0.0
H514 H 0.11968 0.22021 0.2262 0.0
H515 H 0.07474 0.24002 0.24811 0.0
H516 H 0.17082 0.16706 0.27863 0.0
H517 H 0.16445 0.21474 0.17551 0.0
H518 H 0.15498 0.26377 0.1541 0.0
H519 H 0.18209 0.31213 0.22087 0.0
H520 H 0.19217 0.26342 0.24259 0.0
H521 H 0.20788 0.08347 0.16068 0.0
H522 H 0.18983 0.13046 0.18009 0.0
H523 H 0.26239 0.12572 0.23483 0.0
H524 H 0.28059 0.07827 0.21557 0.0
H525 H 0.21158 0.18804 0.19301 0.0
H526 H 0.22935 0.14083 0.29206 0.0
H527 H 0.23802 0.09178 0.31387 0.0
H528 H 0.18734 0.04506 0.25637 0.0
H529 H 0.17809 0.09386 0.23444 0.0
C530 C 0.12316 0.2353 0.29824 0.0
C531 C 0.09605 0.24033 0.2849 0.0
C532 C 0.14909 0.22488 0.2857 0.0
C533 C 0.14807 0.21849 0.25972 0.0
C534 C 0.12141 0.22551 0.24612 0.0
C535 C 0.09565 0.2367 0.25862 0.0
C536 C 0.17239 0.19959 0.248 0.0
C537 C 0.18043 0.17231 0.26025 0.0
C538 C 0.18462 0.2059 0.22379 0.0
C539 C 0.1789 0.23534 0.21074 0.0
C540 C 0.16859 0.23581 0.1856 0.0
C541 C 0.16306 0.26357 0.17341 0.0
C542 C 0.16787 0.29104 0.18614 0.0
C543 C 0.17828 0.29083 0.21106 0.0
C544 C 0.18386 0.26314 0.22333 0.0
C545 C 0.22036 0.09262 0.1766 0.0
C546 C 0.24531 0.07681 0.18692 0.0
C547 C 0.21017 0.11969 0.18751 0.0
C548 C 0.22457 0.13138 0.20903 0.0
C549 C 0.25085 0.11691 0.21829 0.0
C550 C 0.26117 0.08979 0.20731 0.0
C551 C 0.20924 0.15577 0.22359 0.0
C552 C 0.20272 0.18372 0.2118 0.0
C553 C 0.19841 0.1503 0.24832 0.0
C554 C 0.20342 0.12089 0.26148 0.0
C555 C 0.22004 0.12007 0.28413 0.0
C556 C 0.22504 0.09233 0.2965 0.0
C557 C 0.21335 0.06531 0.28645 0.0
C558 C 0.19649 0.06598 0.26408 0.0
C559 C 0.19138 0.09367 0.25167 0.0
H560 H 0.21728 0.04385 0.29604 0.0
H561 H 0.16356 0.3125 0.17667 0.0
H562 H 0.9005 0.20581 0.67674 0.0
H563 H 0.85068 0.19395 0.69434 0.0
H564 H 0.85948 0.26858 0.74686 0.0
H565 H 0.9097 0.28074 0.7292 0.0
H566 H 0.84884 0.21392 0.76971 0.0
H567 H 0.80335 0.2711 0.7037 0.0
H568 H 0.7951 0.28856 0.65998 0.0
H569 H 0.76826 0.19818 0.63829 0.0
H570 H 0.77678 0.18002 0.68179 0.0
H571 H 0.72803 0.14418 0.82774 0.0
H572 H 0.74926 0.18777 0.80488 0.0
H573 H 0.7568 0.13253 0.73771 0.0
H574 H 0.73369 0.08957 0.76018 0.0
H575 H 0.75248 0.19095 0.72467 0.0
H576 H 0.81288 0.1319 0.78409 0.0
H577 H 0.82454 0.11028 0.82603 0.0
H578 H 0.8273 0.20037 0.8577 0.0
H579 H 0.81525 0.22247 0.81596 0.0
C580 C 0.89169 0.22005 0.69177 0.0
C581 C 0.90919 0.24398 0.70181 0.0
C582 C 0.86301 0.21345 0.70161 0.0
C583 C 0.85124 0.23058 0.72173 0.0
C584 C 0.86809 0.25528 0.73117 0.0
C585 C 0.89677 0.26212 0.72112 0.0
C586 C 0.82376 0.2195 0.73509 0.0
C587 C 0.82739 0.20984 0.76012 0.0
C588 C 0.79616 0.21337 0.72228 0.0
C589 C 0.79081 0.22418 0.69606 0.0
C590 C 0.79588 0.25488 0.68959 0.0
C591 C 0.79112 0.26492 0.66484 0.0
C592 C 0.78118 0.24449 0.64637 0.0
C593 C 0.77593 0.21398 0.65262 0.0
C594 C 0.78067 0.20382 0.67735 0.0
C595 C 0.73294 0.1419 0.80778 0.0
C596 C 0.72963 0.11365 0.79567 0.0
C597 C 0.74518 0.1667 0.79476 0.0
C598 C 0.75561 0.16307 0.76986 0.0
C599 C 0.74913 0.13582 0.75697 0.0
C600 C 0.73597 0.11126 0.7698 0.0
C601 C 0.77798 0.18478 0.75901 0.0
C602 C 0.77351 0.19614 0.7345 0.0
C603 C 0.80525 0.19199 0.77203 0.0
C604 C 0.8128 0.17878 0.79704 0.0
C605 C 0.81583 0.14706 0.80004 0.0
C606 C 0.8225 0.13473 0.82376 0.0
C607 C 0.82656 0.15394 0.84453 0.0
C608 C 0.82406 0.18552 0.8416 0.0
C609 C 0.81731 0.19796 0.81793 0.0
H610 H 0.83173 0.14435 0.86288 0.0
H611 H 0.77753 0.2523 0.62721 0.0
H612 H 0.92374 0.8039 0.32128 0.0
H613 H 0.87751 0.82306 0.30218 0.0
H614 H 0.86539 0.73777 0.26279 0.0
H615 H 0.9129 0.71863 0.28132 0.0
H616 H 0.85856 0.78041 0.23134 0.0
H617 H 0.81253 0.76295 0.30914 0.0
H618 H 0.80599 0.76072 0.35534 0.0
H619 H 0.80954 0.85843 0.35933 0.0
H620 H 0.81658 0.8613 0.31323 0.0
H621 H 0.7286 0.9058 0.21912 0.0
H622 H 0.74685 0.85894 0.23959 0.0
H623 H 0.83706 0.87587 0.21041 0.0
H624 H 0.81903 0.92166 0.18954 0.0
H625 H 0.78626 0.84953 0.27505 0.0
H626 H 0.87524 0.81537 0.19691 0.0
H627 H 0.87762 0.81385 0.15043 0.0
H628 H 0.78001 0.81086 0.14664 0.0
H629 H 0.777 0.81188 0.19311 0.0
C630 C 0.91112 0.78891 0.30887 0.0
C631 C 0.92219 0.75978 0.3027 0.0
C632 C 0.88432 0.79982 0.29815 0.0
C633 C 0.8675 0.78171 0.28135 0.0
C634 C 0.87786 0.75212 0.27581 0.0
C635 C 0.90501 0.74122 0.2864 0.0
C636 C 0.84162 0.79561 0.26741 0.0
C637 C 0.84239 0.79509 0.24091 0.0
C638 C 0.81944 0.81372 0.2798 0.0
C639 C 0.81508 0.81231 0.30763 0.0
C640 C 0.81207 0.78398 0.31986 0.0
C641 C 0.80826 0.7826 0.34605 0.0
C642 C 0.80734 0.80941 0.36026 0.0
C643 C 0.8102 0.83767 0.3483 0.0
C644 C 0.81402 0.83919 0.32211 0.0
C645 C 0.75227 0.89932 0.21697 0.0
C646 C 0.77233 0.91735 0.20258 0.0
C647 C 0.76262 0.87255 0.22862 0.0
C648 C 0.79315 0.86346 0.22604 0.0
C649 C 0.81318 0.88177 0.212 0.0
C650 C 0.80286 0.90819 0.20024 0.0
C651 C 0.80525 0.83615 0.23923 0.0
C652 C 0.80173 0.83407 0.26551 0.0
C653 C 0.82416 0.81489 0.22661 0.0
C654 C 0.82591 0.81373 0.19858 0.0
C655 C 0.85427 0.8141 0.18621 0.0
C656 C 0.85573 0.81341 0.15983 0.0
C657 C 0.82899 0.81228 0.14559 0.0
C658 C 0.80071 0.81179 0.15769 0.0
C659 C 0.79912 0.81246 0.18405 0.0
H660 H 0.83017 0.81178 0.12518 0.0
H661 H 0.80441 0.80829 0.38054 0.0
H662 H 0.1032 0.76849 0.65268 0.0
H663 H 0.15144 0.78906 0.66794 0.0
H664 H 0.12545 0.76695 0.74445 0.0
H665 H 0.07782 0.74511 0.72907 0.0
H666 H 0.15007 0.83761 0.69383 0.0
H667 H 0.18413 0.76979 0.78472 0.0
H668 H 0.18895 0.71627 0.79843 0.0
H669 H 0.2004 0.688 0.72139 0.0
H670 H 0.1961 0.74138 0.70721 0.0
H671 H 0.19021 0.92376 0.79717 0.0
H672 H 0.1723 0.87838 0.77529 0.0
H673 H 0.26082 0.86616 0.74161 0.0
H674 H 0.27917 0.91214 0.76331 0.0
H675 H 0.21915 0.80846 0.76393 0.0
H676 H 0.22831 0.89013 0.70196 0.0
H677 H 0.22353 0.94389 0.68877 0.0
H678 H 0.12784 0.94184 0.70544 0.0
H679 H 0.13219 0.88819 0.71911 0.0
C680 C 0.10832 0.76705 0.67266 0.0
C681 C 0.08668 0.75567 0.68977 0.0
C682 C 0.13589 0.77877 0.68137 0.0
C683 C 0.14206 0.77983 0.70737 0.0
C684 C 0.12154 0.76603 0.72427 0.0
C685 C 0.09417 0.7537 0.71549 0.0
C686 C 0.16625 0.8004 0.717 0.0
C687 C 0.1657 0.83082 0.70867 0.0
C688 C 0.1867 0.79183 0.73646 0.0
C689 C 0.18964 0.75966 0.74489 0.0
C690 C 0.18788 0.75221 0.7707 0.0
C691 C 0.19047 0.72187 0.77856 0.0
C692 C 0.19493 0.69875 0.76079 0.0
C693 C 0.19686 0.70592 0.73513 0.0
C694 C 0.19429 0.73622 0.72717 0.0
C695 C 0.20613 0.91129 0.78544 0.0
C696 C 0.23604 0.9218 0.78174 0.0
C697 C 0.19586 0.88525 0.77308 0.0
C698 C 0.2153 0.86907 0.75697 0.0
C699 C 0.24564 0.87837 0.75417 0.0
C700 C 0.25595 0.90471 0.76642 0.0
C701 C 0.20219 0.84507 0.74084 0.0
C702 C 0.20437 0.81447 0.74829 0.0
C703 C 0.18346 0.85317 0.72028 0.0
C704 C 0.18064 0.88526 0.71171 0.0
C705 C 0.20631 0.90124 0.70299 0.0
C706 C 0.20367 0.93166 0.6954 0.0
C707 C 0.17541 0.94629 0.69631 0.0
C708 C 0.14972 0.93049 0.70475 0.0
C709 C 0.15226 0.90007 0.7124 0.0
H710 H 0.17341 0.96985 0.69043 0.0
H711 H 0.19691 0.67528 0.76692 0.0
H712 H 0.81779 0.98063 0.81609 0.0
H713 H 0.84693 0.93923 0.79686 0.0
H714 H 0.7637 0.89163 0.77953 0.0
H715 H 0.73409 0.93341 0.7983 0.0
H716 H 0.82083 0.85626 0.80319 0.0
H717 H 0.78475 0.91855 0.7335 0.0
H718 H 0.77529 0.96765 0.71215 0.0
H719 H 0.87083 0.9882 0.7146 0.0
H720 H 0.88078 0.93941 0.73636 0.0
H721 H 0.90322 0.75612 0.71844 0.0
H722 H 0.8643 0.78667 0.74019 0.0
H723 H 0.92336 0.86527 0.7367 0.0
H724 H 0.96131 0.8354 0.71414 0.0
H725 H 0.87058 0.881 0.72156 0.0
H726 H 0.90797 0.82282 0.79274 0.0
H727 H 0.91995 0.77588 0.81643 0.0
H728 H 0.82595 0.74918 0.81364 0.0
H729 H 0.81349 0.79582 0.78965 0.0
C730 C 0.80563 0.96126 0.80842 0.0
C731 C 0.77363 0.96035 0.80858 0.0
C732 C 0.82232 0.93764 0.79749 0.0
C733 C 0.80737 0.91251 0.78688 0.0
C734 C 0.77553 0.91087 0.78777 0.0
C735 C 0.75872 0.9348 0.79834 0.0
C736 C 0.82532 0.88926 0.77332 0.0
C737 C 0.83133 0.86125 0.7851 0.0
C738 C 0.83933 0.89626 0.75005 0.0
C739 C 0.83345 0.92548 0.73677 0.0
C740 C 0.80369 0.93367 0.7297 0.0
C741 C 0.79825 0.96142 0.71748 0.0
C742 C 0.82243 0.98107 0.71208 0.0
C743 C 0.85212 0.97298 0.71883 0.0
C744 C 0.85767 0.94527 0.73108 0.0
C745 C 0.90788 0.77984 0.72262 0.0
C746 C 0.93509 0.79351 0.71447 0.0
C747 C 0.88571 0.79725 0.73508 0.0
C748 C 0.89087 0.82833 0.74009 0.0
C749 C 0.91865 0.84148 0.73282 0.0
C750 C 0.94039 0.82435 0.71999 0.0
C751 C 0.86712 0.84799 0.75168 0.0
C752 C 0.85988 0.87551 0.73947 0.0
C753 C 0.8524 0.8406 0.77471 0.0
C754 C 0.85987 0.81261 0.78915 0.0
C755 C 0.88991 0.80682 0.797 0.0
C756 C 0.89678 0.78029 0.81052 0.0
C757 C 0.87375 0.75951 0.81647 0.0
C758 C 0.84378 0.76526 0.80898 0.0
C759 C 0.8368 0.79175 0.79544 0.0
H760 H 0.87911 0.73899 0.82693 0.0
H761 H 0.81817 0.00254 0.70261 0.0
H762 H 0.2835 0.88974 0.19693 0.0
H763 H 0.26567 0.84208 0.21684 0.0
H764 H 0.18381 0.88796 0.24111 0.0
H765 H 0.20091 0.93484 0.22071 0.0
H766 H 0.21273 0.84697 0.27843 0.0
H767 H 0.17911 0.85381 0.18855 0.0
H768 H 0.19132 0.85604 0.14308 0.0
H769 H 0.24344 0.77349 0.1496 0.0
H770 H 0.23176 0.77104 0.19521 0.0
H771 H 0.06801 0.80355 0.27897 0.0
H772 H 0.11629 0.82088 0.26172 0.0
H773 H 0.15194 0.72937 0.26576 0.0
H774 H 0.1029 0.71152 0.28324 0.0
H775 H 0.16597 0.77443 0.21787 0.0
H776 H 0.18096 0.76028 0.30637 0.0
H777 H 0.16487 0.76004 0.351 0.0
H778 H 0.14816 0.85644 0.34761 0.0
H779 H 0.16366 0.85719 0.30285 0.0
C780 C 0.26203 0.88963 0.20702 0.0
C781 C 0.24344 0.91575 0.20733 0.0
C782 C 0.25191 0.86251 0.21828 0.0
C783 C 0.22351 0.86166 0.23044 0.0
C784 C 0.20589 0.88828 0.23194 0.0
C785 C 0.21558 0.91497 0.22023 0.0
C786 C 0.20996 0.83291 0.2396 0.0
C787 C 0.2032 0.83049 0.26537 0.0
C788 C 0.19819 0.81106 0.22258 0.0
C789 C 0.20489 0.81244 0.19523 0.0
C790 C 0.19334 0.83627 0.18028 0.0
C791 C 0.20013 0.83756 0.1545 0.0
C792 C 0.21823 0.81497 0.14347 0.0
C793 C 0.22949 0.791 0.15818 0.0
C794 C 0.2228 0.78966 0.18398 0.0
C795 C 0.08586 0.78691 0.27578 0.0
C796 C 0.08189 0.75628 0.28273 0.0
C797 C 0.11339 0.79684 0.26588 0.0
C798 C 0.13767 0.77646 0.26285 0.0
C799 C 0.13335 0.74536 0.26806 0.0
C800 C 0.10543 0.73525 0.27795 0.0
C801 C 0.16777 0.78935 0.25658 0.0
C802 C 0.17724 0.7893 0.2313 0.0
C803 C 0.18227 0.80883 0.27413 0.0
C804 C 0.17352 0.80876 0.30123 0.0
C805 C 0.17374 0.78141 0.31511 0.0
C806 C 0.16472 0.78118 0.34043 0.0
C807 C 0.15551 0.80821 0.35213 0.0
C808 C 0.15536 0.83553 0.33854 0.0
C809 C 0.16433 0.83588 0.3132 0.0
H810 H 0.1485 0.80798 0.37173 0.0
H811 H 0.22346 0.81599 0.12351 0.0
H812 H 0.05838 0.19566 0.73511 0.0
H813 H 0.10842 0.18095 0.75115 0.0
H814 H 0.14607 0.26594 0.72457 0.0
H815 H 0.09549 0.28129 0.7091 0.0
H816 H 0.1743 0.21014 0.70546 0.0
H817 H 0.15219 0.25846 0.78285 0.0
H818 H 0.12108 0.27359 0.81953 0.0
H819 H 0.11447 0.18 0.84277 0.0
H820 H 0.14512 0.16421 0.80603 0.0
H821 H 0.27976 0.10932 0.79482 0.0
H822 H 0.26029 0.15953 0.78172 0.0
H823 H 0.19776 0.11547 0.73061 0.0
H824 H 0.2165 0.06563 0.74421 0.0
H825 H 0.1989 0.17188 0.79124 0.0
H826 H 0.18324 0.16175 0.68183 0.0
H827 H 0.21348 0.14536 0.64505 0.0
H828 H 0.29614 0.16286 0.68578 0.0
H829 H 0.26644 0.17982 0.7227 0.0
C830 C 0.07713 0.21156 0.73333 0.0
C831 C 0.07319 0.23954 0.72089 0.0
C832 C 0.10565 0.20321 0.74254 0.0
C833 C 0.13084 0.22242 0.73906 0.0
C834 C 0.1268 0.25096 0.72755 0.0
C835 C 0.09797 0.2597 0.71884 0.0
C836 C 0.16153 0.21039 0.74471 0.0
C837 C 0.18018 0.20229 0.72426 0.0
C838 C 0.16939 0.20088 0.76935 0.0
C839 C 0.151 0.21016 0.79162 0.0
C840 C 0.14396 0.24107 0.79569 0.0
C841 C 0.12642 0.24977 0.81652 0.0
C842 C 0.11581 0.22777 0.83347 0.0
C843 C 0.12275 0.19702 0.82964 0.0
C844 C 0.14028 0.18819 0.80884 0.0
C845 C 0.26277 0.1106 0.78002 0.0
C846 C 0.24966 0.0839 0.77029 0.0
C847 C 0.2516 0.13917 0.77267 0.0
C848 C 0.22774 0.14119 0.7551 0.0
C849 C 0.21652 0.11447 0.74388 0.0
C850 C 0.22717 0.08602 0.75163 0.0
C851 C 0.21041 0.16985 0.75173 0.0
C852 C 0.194 0.18084 0.77258 0.0
C853 C 0.20456 0.1819 0.72744 0.0
C854 C 0.22255 0.17208 0.7051 0.0
C855 C 0.20786 0.16238 0.6829 0.0
C856 C 0.22492 0.15291 0.66203 0.0
C857 C 0.25671 0.15305 0.66308 0.0
C858 C 0.27151 0.1627 0.685 0.0
C859 C 0.25457 0.17221 0.70593 0.0
H860 H 0.26986 0.14569 0.6469 0.0
H861 H 0.10222 0.23456 0.84958 0.0
H862 H 0.91698 0.26453 0.28725 0.0
H863 H 0.86796 0.24675 0.27057 0.0
H864 H 0.89566 0.15356 0.28333 0.0
H865 H 0.94379 0.17098 0.30052 0.0
H866 H 0.8537 0.21461 0.23149 0.0
H867 H 0.84073 0.10807 0.29825 0.0
H868 H 0.84868 0.09588 0.34321 0.0
H869 H 0.84146 0.19079 0.36215 0.0
H870 H 0.83297 0.20355 0.31736 0.0
H871 H 0.80662 0.08459 0.17256 0.0
H872 H 0.82659 0.12832 0.19493 0.0
H873 H 0.74996 0.12601 0.24599 0.0
H874 H 0.73008 0.0811 0.22389 0.0
H875 H 0.79836 0.12897 0.27204 0.0
H876 H 0.76268 0.18928 0.20632 0.0
H877 H 0.75027 0.20566 0.163 0.0
H878 H 0.84547 0.21091 0.14505 0.0
H879 H 0.85852 0.1941 0.18812 0.0
C880 C 0.91245 0.24026 0.28663 0.0
C881 C 0.93423 0.21917 0.29534 0.0
C882 C 0.88443 0.23016 0.27714 0.0
C883 C 0.87779 0.19884 0.27622 0.0
C884 C 0.89976 0.17787 0.28458 0.0
C885 C 0.92748 0.18789 0.29422 0.0
C886 C 0.84896 0.18735 0.2651 0.0
C887 C 0.84128 0.19617 0.24043 0.0
C888 C 0.8316 0.16444 0.27728 0.0
C889 C 0.83625 0.15678 0.30436 0.0
C890 C 0.84055 0.12634 0.312 0.0
C891 C 0.84524 0.11933 0.33747 0.0
C892 C 0.8456 0.14255 0.35552 0.0
C893 C 0.84123 0.17283 0.34814 0.0
C894 C 0.83652 0.17997 0.32271 0.0
C895 C 0.79363 0.09357 0.18828 0.0
C896 C 0.7669 0.07907 0.1966 0.0
C897 C 0.80494 0.11896 0.20093 0.0
C898 C 0.78964 0.13085 0.22202 0.0
C899 C 0.76213 0.11733 0.22971 0.0
C900 C 0.75079 0.09168 0.21706 0.0
C901 C 0.80495 0.15444 0.23764 0.0
C902 C 0.81004 0.14802 0.26327 0.0
C903 C 0.81912 0.18023 0.22661 0.0
C904 C 0.81157 0.19038 0.20054 0.0
C905 C 0.781 0.19375 0.19311 0.0
C906 C 0.77384 0.20314 0.16858 0.0
C907 C 0.79707 0.20933 0.15129 0.0
C908 C 0.8275 0.20616 0.15849 0.0
C909 C 0.83479 0.19677 0.18299 0.0
H910 H 0.79148 0.21659 0.1323 0.0
H911 H 0.84926 0.13707 0.37522 0.0
loop_
_geom_bond_atom_site_label_1
_geom_bond_atom_site_label_2
_geom_bond_distance
_geom_bond_site_symmetry_2
_ccdc_geom_bond_type
Zn0 O3 2.031 . S
Zn0 O5 2.049 1_565 S
Zn0 O10 2.067 1_565 S
Zn1 O2 1.962 . S
Zn1 O4 1.984 1_565 S
Zn1 O6 1.996 . S
Zn1 O9 1.943 1_565 S
O2 Zn1 1.962 . S
O2 C7 1.254 . S
O3 Zn0 2.031 . S
O3 C7 1.269 . S
O4 Zn1 1.984 1_545 S
O4 C11 1.262 . S
O5 Zn0 2.049 1_545 S
O5 C13 1.260 . S
O6 Zn1 1.996 . S
O6 C13 1.257 1_565 S
C7 O2 1.254 . S
C7 O3 1.269 . S
C8 O9 1.249 . S
C8 O10 1.270 . S
O9 Zn1 1.943 1_545 S
O9 C8 1.249 . S
O10 Zn0 2.067 1_545 S
O10 C8 1.270 . S
C11 O4 1.262 . S
C11 O12 1.230 1_545 S
O12 C11 1.230 1_565 S
C13 O5 1.260 . S
C13 O6 1.257 1_545 S
Zn14 O17 2.031 . S
Zn14 O19 2.043 1_455 S
Zn14 O24 2.067 1_455 S
Zn15 O16 1.962 . S
Zn15 O18 1.986 . S
Zn15 O20 1.996 . S
Zn15 O23 1.943 1_455 S
O16 Zn15 1.962 . S
O16 C21 1.254 . S
O17 Zn14 2.031 . S
O17 C21 1.269 . S
O18 Zn15 1.986 . S
O18 C25 1.262 . S
O19 Zn14 2.043 1_655 S
O19 C27 1.257 1_655 S
O20 Zn15 1.996 . S
O20 C27 1.257 . S
C21 O16 1.254 . S
C21 O17 1.269 . S
C22 O23 1.249 . S
C22 O24 1.270 . S
O23 Zn15 1.943 1_655 S
O23 C22 1.249 . S
O24 Zn14 2.067 1_655 S
O24 C22 1.270 . S
C25 O18 1.262 . S
C25 O26 1.232 . S
O26 C25 1.232 . S
C27 O19 1.257 1_455 S
C27 O20 1.257 . S
Zn28 O31 2.031 . S
Zn28 O33 2.043 1_545 S
Zn28 O38 2.067 1_545 S
Zn29 O30 1.962 . S
Zn29 O32 1.986 . S
Zn29 O34 1.996 . S
Zn29 O37 1.943 1_545 S
O30 Zn29 1.962 . S
O30 C35 1.254 . S
O31 Zn28 2.031 . S
O31 C35 1.269 . S
O32 Zn29 1.986 . S
O32 C39 1.262 . S
O33 Zn28 2.043 1_565 S
O33 C41 1.257 1_565 S
O34 Zn29 1.996 . S
O34 C41 1.257 . S
C35 O30 1.254 . S
C35 O31 1.269 . S
C36 O37 1.249 . S
C36 O38 1.270 . S
O37 Zn29 1.943 1_565 S
O37 C36 1.249 . S
O38 Zn28 2.067 1_565 S
O38 C36 1.270 . S
C39 O32 1.262 . S
C39 O40 1.232 . S
O40 C39 1.232 . S
C41 O33 1.257 1_545 S
C41 O34 1.257 . S
Zn42 O45 2.031 . S
Zn42 O47 2.049 1_655 S
Zn42 O52 2.067 1_655 S
Zn43 O44 1.962 . S
Zn43 O46 1.984 1_655 S
Zn43 O48 1.996 . S
Zn43 O51 1.943 1_655 S
O44 Zn43 1.962 . S
O44 C49 1.254 . S
O45 Zn42 2.031 . S
O45 C49 1.269 . S
O46 Zn43 1.984 1_455 S
O46 C53 1.262 . S
O47 Zn42 2.049 1_455 S
O47 C55 1.260 . S
O48 Zn43 1.996 . S
O48 C55 1.257 1_655 S
C49 O44 1.254 . S
C49 O45 1.269 . S
C50 O51 1.249 . S
C50 O52 1.270 . S
O51 Zn43 1.943 1_455 S
O51 C50 1.249 . S
O52 Zn42 2.067 1_455 S
O52 C50 1.270 . S
C53 O46 1.262 . S
C53 O54 1.230 1_455 S
O54 C53 1.230 1_655 S
C55 O47 1.260 . S
C55 O48 1.257 1_455 S
Zn56 O59 2.031 . S
Zn56 O61 2.043 1_545 S
Zn56 O66 2.067 1_545 S
Zn57 O58 1.962 . S
Zn57 O60 1.986 . S
Zn57 O62 1.996 . S
Zn57 O65 1.943 1_545 S
O58 Zn57 1.962 . S
O58 C63 1.254 . S
O59 Zn56 2.031 . S
O59 C63 1.269 . S
O60 Zn57 1.986 . S
O60 C67 1.262 . S
O61 Zn56 2.043 1_565 S
O61 C69 1.257 1_565 S
O62 Zn57 1.996 . S
O62 C69 1.257 . S
C63 O58 1.254 . S
C63 O59 1.269 . S
C64 O65 1.249 . S
C64 O66 1.270 . S
O65 Zn57 1.943 1_565 S
O65 C64 1.249 . S
O66 Zn56 2.067 1_565 S
O66 C64 1.270 . S
C67 O60 1.262 . S
C67 O68 1.232 . S
O68 C67 1.232 . S
C69 O61 1.257 1_545 S
C69 O62 1.257 . S
Zn70 O73 2.031 . S
Zn70 O75 2.049 1_655 S
Zn70 O80 2.067 1_655 S
Zn71 O72 1.962 . S
Zn71 O74 1.984 1_655 S
Zn71 O76 1.996 . S
Zn71 O79 1.943 1_655 S
O72 Zn71 1.962 . S
O72 C77 1.254 . S
O73 Zn70 2.031 . S
O73 C77 1.269 . S
O74 Zn71 1.984 1_455 S
O74 C81 1.262 . S
O75 Zn70 2.049 1_455 S
O75 C83 1.260 . S
O76 Zn71 1.996 . S
O76 C83 1.257 1_655 S
C77 O72 1.254 . S
C77 O73 1.269 . S
C78 O79 1.249 . S
C78 O80 1.270 . S
O79 Zn71 1.943 1_455 S
O79 C78 1.249 . S
O80 Zn70 2.067 1_455 S
O80 C78 1.270 . S
C81 O74 1.262 . S
C81 O82 1.230 1_455 S
O82 C81 1.230 1_655 S
C83 O75 1.260 . S
C83 O76 1.257 1_455 S
Zn84 O87 2.031 . S
Zn84 O89 2.049 1_565 S
Zn84 O94 2.067 1_565 S
Zn85 O86 1.962 . S
Zn85 O88 1.984 1_565 S
Zn85 O90 1.996 . S
Zn85 O93 1.943 1_565 S
O86 Zn85 1.962 . S
O86 C91 1.254 . S
O87 Zn84 2.031 . S
O87 C91 1.269 . S
O88 Zn85 1.984 1_545 S
O88 C95 1.262 . S
O89 Zn84 2.049 1_545 S
O89 C97 1.260 . S
O90 Zn85 1.996 . S
O90 C97 1.257 1_565 S
C91 O86 1.254 . S
C91 O87 1.269 . S
C92 O93 1.249 . S
C92 O94 1.270 . S
O93 Zn85 1.943 1_545 S
O93 C92 1.249 . S
O94 Zn84 2.067 1_545 S
O94 C92 1.270 . S
C95 O88 1.262 . S
C95 O96 1.230 1_545 S
O96 C95 1.230 1_565 S
C97 O89 1.260 . S
C97 O90 1.257 1_545 S
Zn98 O101 2.031 . S
Zn98 O103 2.043 1_455 S
Zn98 O108 2.067 1_455 S
Zn99 O100 1.962 . S
Zn99 O102 1.986 . S
Zn99 O104 1.996 . S
Zn99 O107 1.943 1_455 S
O100 Zn99 1.962 . S
O100 C105 1.254 . S
O101 Zn98 2.031 . S
O101 C105 1.269 . S
O102 Zn99 1.986 . S
O102 C109 1.262 . S
O103 Zn98 2.043 1_655 S
O103 C111 1.257 1_655 S
O104 Zn99 1.996 . S
O104 C111 1.257 . S
C105 O100 1.254 . S
C105 O101 1.269 . S
C106 O107 1.249 . S
C106 O108 1.270 . S
O107 Zn99 1.943 1_655 S
O107 C106 1.249 . S
O108 Zn98 2.067 1_655 S
O108 C106 1.270 . S
C109 O102 1.262 . S
C109 O110 1.232 . S
O110 C109 1.232 . S
C111 O103 1.257 1_455 S
C111 O104 1.257 . S
H112 C130 0.951 . S
H113 C132 0.951 . S
H114 C134 0.950 . S
H115 C135 0.950 . S
H116 C137 0.950 . S
H117 C140 0.950 1_565 S
H118 C141 0.950 . S
H119 C143 0.950 . S
H120 C144 0.950 . S
H121 C145 0.951 . S
H122 C147 0.951 . S
H123 C149 0.950 . S
H124 C150 0.950 . S
H125 C152 0.950 . S
H126 C155 0.950 1_545 S
H127 C156 0.957 . S
H128 C158 0.950 . S
H129 C159 0.950 . S
C130 H112 0.951 . S
C130 C131 1.366 . S
C130 C132 1.388 . S
C131 C130 1.366 . S
C131 C135 1.385 1_545 S
C132 H113 0.951 . S
C132 C130 1.388 . S
C132 C133 1.366 . S
C133 C132 1.366 . S
C133 C134 1.414 1_545 S
C133 C136 1.499 . S
C134 H114 0.950 . S
C134 C133 1.414 1_565 S
C134 C135 1.374 . S
C135 H115 0.950 . S
C135 C131 1.385 1_565 S
C135 C134 1.374 . S
C136 C133 1.499 . S
C136 C137 1.373 1_545 S
C136 C138 1.389 . S
C137 H116 0.950 . S
C137 C136 1.373 1_565 S
C137 C153 1.377 1_554 S
C138 C136 1.389 . S
C138 C139 1.524 . S
C138 C152 1.377 1_554 S
C139 C138 1.524 . S
C139 C140 1.397 . S
C139 C144 1.363 . S
C140 H117 0.950 1_545 S
C140 C139 1.397 . S
C140 C141 1.334 . S
C141 H118 0.950 . S
C141 C140 1.334 . S
C141 C142 1.287 . S
C142 C141 1.287 . S
C142 C143 1.524 . S
C142 H161 0.913 . S
C143 H119 0.950 . S
C143 C142 1.524 . S
C143 C144 1.415 . S
C144 H120 0.950 . S
C144 C139 1.363 . S
C144 C143 1.415 . S
C145 H121 0.951 . S
C145 C146 1.366 1_565 S
C145 C147 1.388 . S
C146 C145 1.366 1_545 S
C146 C150 1.385 . S
C147 H122 0.951 . S
C147 C145 1.388 . S
C147 C148 1.366 1_565 S
C148 C147 1.366 1_545 S
C148 C149 1.414 . S
C148 C151 1.499 . S
C149 H123 0.950 . S
C149 C148 1.414 . S
C149 C150 1.374 . S
C150 H124 0.950 . S
C150 C146 1.385 . S
C150 C149 1.374 . S
C151 C148 1.499 . S
C151 C152 1.373 . S
C151 C153 1.389 1_545 S
C152 H125 0.950 . S
C152 C138 1.377 1_556 S
C152 C151 1.373 . S
C153 C137 1.377 1_556 S
C153 C151 1.389 1_565 S
C153 C154 1.524 . S
C154 C153 1.524 . S
C154 C155 1.397 . S
C154 C159 1.363 . S
C155 H126 0.950 1_565 S
C155 C154 1.397 . S
C155 C156 1.334 . S
C156 H127 0.957 . S
C156 C155 1.334 . S
C156 C157 1.287 . S
C157 C156 1.287 . S
C157 C158 1.524 . S
C157 H160 0.999 . S
C158 H128 0.950 . S
C158 C157 1.524 . S
C158 C159 1.415 . S
C159 H129 0.950 . S
C159 C154 1.363 . S
C159 C158 1.415 . S
H160 C157 0.999 . S
H161 C142 0.913 . S
H162 C180 0.951 . S
H163 C182 0.951 . S
H164 C184 0.950 . S
H165 C185 0.950 . S
H166 C187 0.950 . S
H167 C190 0.950 . S
H168 C191 0.950 . S
H169 C193 0.950 . S
H170 C194 0.950 . S
H171 C195 0.951 . S
H172 C197 0.951 . S
H173 C199 0.957 . S
H174 C200 0.947 1_655 S
H175 C202 0.950 . S
H176 C205 0.950 . S
H177 C206 0.950 . S
H178 C208 0.950 . S
H179 C209 0.950 . S
C180 H162 0.951 . S
C180 C181 1.366 1_655 S
C180 C182 1.388 . S
C181 C180 1.366 1_455 S
C181 C185 1.385 . S
C182 H163 0.951 . S
C182 C180 1.388 . S
C182 C183 1.366 1_655 S
C183 C182 1.366 1_455 S
C183 C184 1.414 . S
C183 C186 1.499 . S
C184 H164 0.950 . S
C184 C183 1.414 . S
C184 C185 1.374 . S
C185 H165 0.950 . S
C185 C181 1.385 . S
C185 C184 1.374 . S
C186 C183 1.499 . S
C186 C187 1.373 1_455 S
C186 C188 1.389 . S
C187 H166 0.950 . S
C187 C186 1.373 1_655 S
C187 C203 1.377 . S
C188 C186 1.389 . S
C188 C189 1.524 . S
C188 C202 1.377 . S
C189 C188 1.524 . S
C189 C190 1.397 . S
C189 C194 1.363 . S
C190 H167 0.950 . S
C190 C189 1.397 . S
C190 C191 1.334 . S
C191 H168 0.950 . S
C191 C190 1.334 . S
C191 C192 1.287 . S
C192 C191 1.287 . S
C192 C193 1.524 . S
C192 H211 0.913 . S
C193 H169 0.950 . S
C193 C192 1.524 . S
C193 C194 1.415 . S
C194 H170 0.950 . S
C194 C189 1.363 . S
C194 C193 1.415 . S
C195 H171 0.951 . S
C195 C196 1.366 . S
C195 C197 1.388 . S
C196 C195 1.366 . S
C196 C200 1.388 . S
C197 H172 0.951 . S
C197 C195 1.388 . S
C197 C198 1.366 . S
C198 C197 1.366 . S
C198 C199 1.409 1_455 S
C198 C201 1.499 . S
C199 H173 0.957 . S
C199 C198 1.409 1_655 S
C199 C200 1.373 1_655 S
C200 H174 0.947 1_455 S
C200 C196 1.388 . S
C200 C199 1.373 1_455 S
C201 C198 1.499 . S
C201 C202 1.373 . S
C201 C203 1.389 1_455 S
C202 H175 0.950 . S
C202 C188 1.377 . S
C202 C201 1.373 . S
C203 C187 1.377 . S
C203 C201 1.389 1_655 S
C203 C204 1.524 . S
C204 C203 1.524 . S
C204 C205 1.397 . S
C204 C209 1.363 . S
C205 H176 0.950 . S
C205 C204 1.397 . S
C205 C206 1.334 . S
C206 H177 0.950 . S
C206 C205 1.334 . S
C206 C207 1.287 . S
C207 C206 1.287 . S
C207 C208 1.524 . S
C207 H210 0.999 . S
C208 H178 0.950 . S
C208 C207 1.524 . S
C208 C209 1.415 . S
C209 H179 0.950 . S
C209 C204 1.363 . S
C209 C208 1.415 . S
H210 C207 0.999 . S
H211 C192 0.913 . S
H212 C230 0.951 . S
H213 C232 0.951 . S
H214 C234 0.950 . S
H215 C235 0.950 . S
H216 C237 0.950 . S
H217 C240 0.950 . S
H218 C241 0.950 . S
H219 C243 0.950 . S
H220 C244 0.950 . S
H221 C245 0.951 . S
H222 C247 0.951 . S
H223 C249 0.950 . S
H224 C250 0.950 . S
H225 C252 0.950 . S
H226 C255 0.950 . S
H227 C256 0.950 . S
H228 C258 0.950 . S
H229 C259 0.950 . S
C230 H212 0.951 . S
C230 C231 1.366 . S
C230 C232 1.388 . S
C231 C230 1.366 . S
C231 C235 1.385 1_545 S
C232 H213 0.951 . S
C232 C230 1.388 . S
C232 C233 1.366 . S
C233 C232 1.366 . S
C233 C234 1.414 1_545 S
C233 C236 1.499 . S
C234 H214 0.950 . S
C234 C233 1.414 1_565 S
C234 C235 1.374 . S
C235 H215 0.950 . S
C235 C231 1.385 1_565 S
C235 C234 1.374 . S
C236 C233 1.499 . S
C236 C237 1.373 . S
C236 C238 1.389 . S
C237 H216 0.950 . S
C237 C236 1.373 . S
C237 C253 1.377 1_556 S
C238 C236 1.389 . S
C238 C239 1.524 . S
C238 C252 1.377 1_556 S
C239 C238 1.524 . S
C239 C240 1.397 1_545 S
C239 C244 1.363 . S
C240 H217 0.950 . S
C240 C239 1.397 1_565 S
C240 C241 1.334 . S
C241 H218 0.950 . S
C241 C240 1.334 . S
C241 C242 1.287 . S
C242 C241 1.287 . S
C242 C243 1.524 1_565 S
C242 H261 0.913 . S
C243 H219 0.950 . S
C243 C242 1.524 1_545 S
C243 C244 1.415 . S
C244 H220 0.950 . S
C244 C239 1.363 . S
C244 C243 1.415 . S
C245 H221 0.951 . S
C245 C246 1.366 1_565 S
C245 C247 1.388 . S
C246 C245 1.366 1_545 S
C246 C250 1.385 . S
C247 H222 0.951 . S
C247 C245 1.388 . S
C247 C248 1.366 1_565 S
C248 C247 1.366 1_545 S
C248 C249 1.414 . S
C248 C251 1.499 . S
C249 H223 0.950 . S
C249 C248 1.414 . S
C249 C250 1.374 . S
C250 H224 0.950 . S
C250 C246 1.385 . S
C250 C249 1.374 . S
C251 C248 1.499 . S
C251 C252 1.373 . S
C251 C253 1.389 . S
C252 H225 0.950 . S
C252 C238 1.377 1_554 S
C252 C251 1.373 . S
C253 C237 1.377 1_554 S
C253 C251 1.389 . S
C253 C254 1.524 . S
C254 C253 1.524 . S
C254 C255 1.397 . S
C254 C259 1.363 1_545 S
C255 H226 0.950 . S
C255 C254 1.397 . S
C255 C256 1.334 . S
C256 H227 0.950 . S
C256 C255 1.334 . S
C256 C257 1.287 . S
C257 C256 1.287 . S
C257 C258 1.524 1_545 S
C257 H260 0.999 . S
C258 H228 0.950 . S
C258 C257 1.524 1_565 S
C258 C259 1.415 . S
C259 H229 0.950 . S
C259 C254 1.363 1_565 S
C259 C258 1.415 . S
H260 C257 0.999 . S
H261 C242 0.913 . S
H262 C280 0.951 . S
H263 C282 0.951 . S
H264 C284 0.950 . S
H265 C285 0.950 . S
H266 C287 0.950 . S
H267 C290 0.950 . S
H268 C291 0.950 . S
H269 C293 0.950 . S
H270 C294 0.950 . S
H271 C295 0.951 . S
H272 C297 0.951 . S
H273 C299 0.950 . S
H274 C300 0.950 . S
H275 C302 0.950 . S
H276 C305 0.950 . S
H277 C306 0.950 . S
H278 C308 0.950 . S
H279 C309 0.950 . S
C280 H262 0.951 . S
C280 C281 1.366 . S
C280 C282 1.388 . S
C281 C280 1.366 . S
C281 C285 1.385 1_455 S
C282 H263 0.951 . S
C282 C280 1.388 . S
C282 C283 1.366 . S
C283 C282 1.366 . S
C283 C284 1.414 1_455 S
C283 C286 1.499 . S
C284 H264 0.950 . S
C284 C283 1.414 1_655 S
C284 C285 1.374 . S
C285 H265 0.950 . S
C285 C281 1.385 1_655 S
C285 C284 1.374 . S
C286 C283 1.499 . S
C286 C287 1.373 1_455 S
C286 C288 1.389 . S
C287 H266 0.950 . S
C287 C286 1.373 1_655 S
C287 C303 1.377 . S
C288 C286 1.389 . S
C288 C289 1.524 . S
C288 C302 1.377 . S
C289 C288 1.524 . S
C289 C290 1.397 1_455 S
C289 C294 1.363 . S
C290 H267 0.950 . S
C290 C289 1.397 1_655 S
C290 C291 1.334 . S
C291 H268 0.950 . S
C291 C290 1.334 . S
C291 C292 1.287 1_655 S
C292 C291 1.287 1_455 S
C292 C293 1.524 . S
C292 H311 0.913 . S
C293 H269 0.950 . S
C293 C292 1.524 . S
C293 C294 1.415 . S
C294 H270 0.950 . S
C294 C289 1.363 . S
C294 C293 1.415 . S
C295 H271 0.951 . S
C295 C296 1.366 1_655 S
C295 C297 1.388 . S
C296 C295 1.366 1_455 S
C296 C300 1.385 . S
C297 H272 0.951 . S
C297 C295 1.388 . S
C297 C298 1.366 1_655 S
C298 C297 1.366 1_455 S
C298 C299 1.414 . S
C298 C301 1.499 . S
C299 H273 0.950 . S
C299 C298 1.414 . S
C299 C300 1.374 . S
C300 H274 0.950 . S
C300 C296 1.385 . S
C300 C299 1.374 . S
C301 C298 1.499 . S
C301 C302 1.373 . S
C301 C303 1.389 1_455 S
C302 H275 0.950 . S
C302 C288 1.377 . S
C302 C301 1.373 . S
C303 C287 1.377 . S
C303 C301 1.389 1_655 S
C303 C304 1.524 . S
C304 C303 1.524 . S
C304 C305 1.397 1_655 S
C304 C309 1.363 . S
C305 H276 0.950 . S
C305 C304 1.397 1_455 S
C305 C306 1.334 . S
C306 H277 0.950 . S
C306 C305 1.334 . S
C306 C307 1.287 1_455 S
C307 C306 1.287 1_655 S
C307 C308 1.524 . S
C307 H310 0.999 . S
C308 H278 0.950 . S
C308 C307 1.524 . S
C308 C309 1.415 . S
C309 H279 0.950 . S
C309 C304 1.363 . S
C309 C308 1.415 . S
H310 C307 0.999 . S
H311 C292 0.913 . S
H312 C330 0.951 . S
H313 C332 0.951 . S
H314 C334 0.950 . S
H315 C335 0.950 . S
H316 C337 0.950 . S
H317 C340 0.950 . S
H318 C341 0.950 . S
H319 C343 0.950 . S
H320 C344 0.950 . S
H321 C345 0.951 . S
H322 C347 0.951 . S
H323 C349 0.950 . S
H324 C350 0.950 . S
H325 C352 0.950 . S
H326 C355 0.950 . S
H327 C356 0.950 . S
H328 C358 0.950 . S
H329 C359 0.950 . S
C330 H312 0.951 . S
C330 C331 1.366 1_565 S
C330 C332 1.388 . S
C331 C330 1.366 1_545 S
C331 C335 1.385 . S
C332 H313 0.951 . S
C332 C330 1.388 . S
C332 C333 1.366 1_565 S
C333 C332 1.366 1_545 S
C333 C334 1.414 . S
C333 C336 1.499 . S
C334 H314 0.950 . S
C334 C333 1.414 . S
C334 C335 1.374 . S
C335 H315 0.950 . S
C335 C331 1.385 . S
C335 C334 1.374 . S
C336 C333 1.499 . S
C336 C337 1.373 . S
C336 C338 1.389 1_545 S
C337 H316 0.950 . S
C337 C336 1.373 . S
C337 C353 1.377 . S
C338 C336 1.389 1_565 S
C338 C339 1.524 . S
C338 C352 1.377 . S
C339 C338 1.524 . S
C339 C340 1.397 . S
C339 C344 1.363 . S
C340 H317 0.950 . S
C340 C339 1.397 . S
C340 C341 1.334 . S
C341 H318 0.950 . S
C341 C340 1.334 . S
C341 C342 1.287 . S
C342 C341 1.287 . S
C342 C343 1.524 . S
C342 H361 0.913 . S
C343 H319 0.950 . S
C343 C342 1.524 . S
C343 C344 1.415 . S
C344 H320 0.950 . S
C344 C339 1.363 . S
C344 C343 1.415 . S
C345 H321 0.951 . S
C345 C346 1.366 . S
C345 C347 1.388 . S
C346 C345 1.366 . S
C346 C350 1.385 1_545 S
C347 H322 0.951 . S
C347 C345 1.388 . S
C347 C348 1.366 . S
C348 C347 1.366 . S
C348 C349 1.414 1_545 S
C348 C351 1.499 . S
C349 H323 0.950 . S
C349 C348 1.414 1_565 S
C349 C350 1.374 . S
C350 H324 0.950 . S
C350 C346 1.385 1_565 S
C350 C349 1.374 . S
C351 C348 1.499 . S
C351 C352 1.373 1_545 S
C351 C353 1.389 . S
C352 H325 0.950 . S
C352 C338 1.377 . S
C352 C351 1.373 1_565 S
C353 C337 1.377 . S
C353 C351 1.389 . S
C353 C354 1.524 . S
C354 C353 1.524 . S
C354 C355 1.397 . S
C354 C359 1.363 . S
C355 H326 0.950 . S
C355 C354 1.397 . S
C355 C356 1.334 . S
C356 H327 0.950 . S
C356 C355 1.334 . S
C356 C357 1.287 . S
C357 C356 1.287 . S
C357 C358 1.524 . S
C357 H360 0.999 . S
C358 H328 0.950 . S
C358 C357 1.524 . S
C358 C359 1.415 . S
C359 H329 0.950 . S
C359 C354 1.363 . S
C359 C358 1.415 . S
H360 C357 0.999 . S
H361 C342 0.913 . S
H362 C380 0.951 . S
H363 C382 0.951 . S
H364 C384 0.950 . S
H365 C385 0.950 . S
H366 C387 0.950 . S
H367 C390 0.950 . S
H368 C391 0.950 . S
H369 C393 0.950 . S
H370 C394 0.950 . S
H371 C395 0.951 . S
H372 C397 0.951 . S
H373 C399 0.950 . S
H374 C400 0.950 . S
H375 C402 0.949 1_655 S
H376 C405 0.950 . S
H377 C406 0.950 . S
H378 C408 0.950 . S
H379 C409 0.950 . S
C380 H362 0.951 . S
C380 C381 1.366 1_655 S
C380 C382 1.388 . S
C381 C380 1.366 1_455 S
C381 C385 1.385 . S
C382 H363 0.951 . S
C382 C380 1.388 . S
C382 C383 1.366 1_655 S
C383 C382 1.366 1_455 S
C383 C384 1.414 . S
C383 C386 1.499 . S
C384 H364 0.950 . S
C384 C383 1.414 . S
C384 C385 1.374 . S
C385 H365 0.950 . S
C385 C381 1.385 . S
C385 C384 1.374 . S
C386 C383 1.499 . S
C386 C387 1.373 . S
C386 C388 1.389 . S
C387 H366 0.950 . S
C387 C386 1.373 . S
C387 C403 1.377 . S
C388 C386 1.389 . S
C388 C389 1.524 . S
C388 C402 1.377 . S
C389 C388 1.524 . S
C389 C390 1.397 . S
C389 C394 1.363 1_455 S
C390 H367 0.950 . S
C390 C389 1.397 . S
C390 C391 1.334 . S
C391 H368 0.950 . S
C391 C390 1.334 . S
C391 C392 1.287 . S
C392 C391 1.287 . S
C392 C393 1.524 1_455 S
C392 H411 0.913 . S
C393 H369 0.950 . S
C393 C392 1.524 1_655 S
C393 C394 1.415 . S
C394 H370 0.950 . S
C394 C389 1.363 1_655 S
C394 C393 1.415 . S
C395 H371 0.951 . S
C395 C396 1.366 . S
C395 C397 1.388 . S
C396 C395 1.366 . S
C396 C400 1.385 1_455 S
C397 H372 0.951 . S
C397 C395 1.388 . S
C397 C398 1.366 . S
C398 C397 1.366 . S
C398 C399 1.414 1_455 S
C398 C401 1.499 . S
C399 H373 0.950 . S
C399 C398 1.414 1_655 S
C399 C400 1.374 . S
C400 H374 0.950 . S
C400 C396 1.385 1_655 S
C400 C399 1.374 . S
C401 C398 1.499 . S
C401 C402 1.373 . S
C401 C403 1.389 . S
C402 H375 0.949 1_455 S
C402 C388 1.377 . S
C402 C401 1.373 . S
C403 C387 1.377 . S
C403 C401 1.389 . S
C403 C404 1.524 . S
C404 C403 1.524 . S
C404 C405 1.397 1_455 S
C404 C409 1.363 . S
C405 H376 0.950 . S
C405 C404 1.397 1_655 S
C405 C406 1.334 . S
C406 H377 0.950 . S
C406 C405 1.334 . S
C406 C407 1.287 . S
C407 C406 1.287 . S
C407 C408 1.524 1_655 S
C407 H410 0.999 . S
C408 H378 0.950 . S
C408 C407 1.524 1_455 S
C408 C409 1.415 . S
C409 H379 0.950 . S
C409 C404 1.363 . S
C409 C408 1.415 . S
H410 C407 0.999 . S
H411 C392 0.913 . S
H412 C430 0.951 . S
H413 C432 0.951 . S
H414 C434 0.950 . S
H415 C435 0.950 . S
H416 C437 0.950 . S
H417 C440 0.950 . S
H418 C441 0.950 . S
H419 C443 0.950 . S
H420 C444 0.950 . S
H421 C445 0.951 . S
H422 C447 0.951 . S
H423 C449 0.950 . S
H424 C450 0.950 . S
H425 C452 0.950 . S
H426 C455 0.950 . S
H427 C456 0.950 . S
H428 C458 0.950 . S
H429 C459 0.950 . S
C430 H412 0.951 . S
C430 C431 1.366 . S
C430 C432 1.388 . S
C431 C430 1.366 . S
C431 C435 1.385 1_545 S
C432 H413 0.951 . S
C432 C430 1.388 . S
C432 C433 1.366 . S
C433 C432 1.366 . S
C433 C434 1.414 1_545 S
C433 C436 1.499 . S
C434 H414 0.950 . S
C434 C433 1.414 1_565 S
C434 C435 1.374 . S
C435 H415 0.950 . S
C435 C431 1.385 1_565 S
C435 C434 1.374 . S
C436 C433 1.499 . S
C436 C437 1.373 1_545 S
C436 C438 1.389 . S
C437 H416 0.950 . S
C437 C436 1.373 1_565 S
C437 C453 1.377 . S
C438 C436 1.389 . S
C438 C439 1.524 . S
C438 C452 1.377 . S
C439 C438 1.524 . S
C439 C440 1.397 . S
C439 C444 1.363 . S
C440 H417 0.950 . S
C440 C439 1.397 . S
C440 C441 1.334 . S
C441 H418 0.950 . S
C441 C440 1.334 . S
C441 C442 1.287 . S
C442 C441 1.287 . S
C442 C443 1.524 . S
C442 H461 0.913 . S
C443 H419 0.950 . S
C443 C442 1.524 . S
C443 C444 1.415 . S
C444 H420 0.950 . S
C444 C439 1.363 . S
C444 C443 1.415 . S
C445 H421 0.951 . S
C445 C446 1.366 1_565 S
C445 C447 1.388 . S
C446 C445 1.366 1_545 S
C446 C450 1.385 . S
C447 H422 0.951 . S
C447 C445 1.388 . S
C447 C448 1.366 1_565 S
C448 C447 1.366 1_545 S
C448 C449 1.414 . S
C448 C451 1.499 . S
C449 H423 0.950 . S
C449 C448 1.414 . S
C449 C450 1.374 . S
C450 H424 0.950 . S
C450 C446 1.385 . S
C450 C449 1.374 . S
C451 C448 1.499 . S
C451 C452 1.373 . S
C451 C453 1.389 1_545 S
C452 H425 0.950 . S
C452 C438 1.377 . S
C452 C451 1.373 . S
C453 C437 1.377 . S
C453 C451 1.389 1_565 S
C453 C454 1.524 . S
C454 C453 1.524 . S
C454 C455 1.397 . S
C454 C459 1.363 . S
C455 H426 0.950 . S
C455 C454 1.397 . S
C455 C456 1.334 . S
C456 H427 0.950 . S
C456 C455 1.334 . S
C456 C457 1.287 . S
C457 C456 1.287 . S
C457 C458 1.524 . S
C457 H460 0.999 . S
C458 H428 0.950 . S
C458 C457 1.524 . S
C458 C459 1.415 . S
C459 H429 0.950 . S
C459 C454 1.363 . S
C459 C458 1.415 . S
H460 C457 0.999 . S
H461 C442 0.913 . S
H462 C480 0.951 . S
H463 C482 0.951 . S
H464 C484 0.950 . S
H465 C485 0.950 . S
H466 C487 0.950 . S
H467 C490 0.950 . S
H468 C491 0.950 . S
H469 C493 0.950 . S
H470 C494 0.950 1_455 S
H471 C495 0.951 . S
H472 C497 0.951 . S
H473 C499 0.950 . S
H474 C500 0.950 . S
H475 C502 0.950 . S
H476 C505 0.950 . S
H477 C506 0.950 . S
H478 C508 0.950 . S
H479 C509 0.950 1_655 S
C480 H462 0.951 . S
C480 C481 1.366 . S
C480 C482 1.388 . S
C481 C480 1.366 . S
C481 C485 1.385 1_455 S
C482 H463 0.951 . S
C482 C480 1.388 . S
C482 C483 1.366 . S
C483 C482 1.366 . S
C483 C484 1.414 1_455 S
C483 C486 1.499 . S
C484 H464 0.950 . S
C484 C483 1.414 1_655 S
C484 C485 1.374 . S
C485 H465 0.950 . S
C485 C481 1.385 1_655 S
C485 C484 1.374 . S
C486 C483 1.499 . S
C486 C487 1.373 . S
C486 C488 1.389 1_455 S
C487 H466 0.950 . S
C487 C486 1.373 . S
C487 C503 1.377 . S
C488 C486 1.389 1_655 S
C488 C489 1.524 . S
C488 C502 1.377 . S
C489 C488 1.524 . S
C489 C490 1.397 . S
C489 C494 1.363 . S
C490 H467 0.950 . S
C490 C489 1.397 . S
C490 C491 1.334 . S
C491 H468 0.950 . S
C491 C490 1.334 . S
C491 C492 1.287 . S
C492 C491 1.287 . S
C492 C493 1.524 . S
C492 H511 0.913 . S
C493 H469 0.950 . S
C493 C492 1.524 . S
C493 C494 1.415 . S
C494 H470 0.950 1_655 S
C494 C489 1.363 . S
C494 C493 1.415 . S
C495 H471 0.951 . S
C495 C496 1.366 1_655 S
C495 C497 1.388 . S
C496 C495 1.366 1_455 S
C496 C500 1.385 . S
C497 H472 0.951 . S
C497 C495 1.388 . S
C497 C498 1.366 1_655 S
C498 C497 1.366 1_455 S
C498 C499 1.414 . S
C498 C501 1.499 . S
C499 H473 0.950 . S
C499 C498 1.414 . S
C499 C500 1.374 . S
C500 H474 0.950 . S
C500 C496 1.385 . S
C500 C499 1.374 . S
C501 C498 1.499 . S
C501 C502 1.373 1_455 S
C501 C503 1.389 . S
C502 H475 0.950 . S
C502 C488 1.377 . S
C502 C501 1.373 1_655 S
C503 C487 1.377 . S
C503 C501 1.389 . S
C503 C504 1.524 . S
C504 C503 1.524 . S
C504 C505 1.397 . S
C504 C509 1.363 . S
C505 H476 0.950 . S
C505 C504 1.397 . S
C505 C506 1.334 . S
C506 H477 0.950 . S
C506 C505 1.334 . S
C506 C507 1.287 . S
C507 C506 1.287 . S
C507 C508 1.524 . S
C507 H510 0.999 . S
C508 H478 0.950 . S
C508 C507 1.524 . S
C508 C509 1.415 . S
C509 H479 0.950 1_455 S
C509 C504 1.363 . S
C509 C508 1.415 . S
H510 C507 0.999 . S
H511 C492 0.913 . S
H512 C530 0.951 . S
H513 C532 0.951 . S
H514 C534 0.950 . S
H515 C535 0.950 . S
H516 C537 0.950 . S
H517 C540 0.950 . S
H518 C541 0.950 . S
H519 C543 0.950 . S
H520 C544 0.950 . S
H521 C545 0.951 . S
H522 C547 0.951 . S
H523 C549 0.950 . S
H524 C550 0.950 . S
H525 C552 0.950 . S
H526 C555 0.950 . S
H527 C556 0.950 . S
H528 C558 0.950 . S
H529 C559 0.950 . S
C530 H512 0.951 . S
C530 C531 1.366 . S
C530 C532 1.388 . S
C531 C530 1.366 . S
C531 C535 1.385 . S
C532 H513 0.951 . S
C532 C530 1.388 . S
C532 C533 1.366 . S
C533 C532 1.366 . S
C533 C534 1.414 . S
C533 C536 1.499 . S
C534 H514 0.950 . S
C534 C533 1.414 . S
C534 C535 1.374 . S
C535 H515 0.950 . S
C535 C531 1.385 . S
C535 C534 1.374 . S
C536 C533 1.499 . S
C536 C537 1.373 . S
C536 C538 1.389 . S
C537 H516 0.950 . S
C537 C536 1.373 . S
C537 C553 1.377 . S
C538 C536 1.389 . S
C538 C539 1.524 . S
C538 C552 1.377 . S
C539 C538 1.524 . S
C539 C540 1.397 . S
C539 C544 1.363 . S
C540 H517 0.950 . S
C540 C539 1.397 . S
C540 C541 1.334 . S
C541 H518 0.950 . S
C541 C540 1.334 . S
C541 C542 1.287 . S
C542 C541 1.287 . S
C542 C543 1.524 . S
C542 H561 0.913 . S
C543 H519 0.950 . S
C543 C542 1.524 . S
C543 C544 1.415 . S
C544 H520 0.950 . S
C544 C539 1.363 . S
C544 C543 1.415 . S
C545 H521 0.951 . S
C545 C546 1.366 . S
C545 C547 1.388 . S
C546 C545 1.366 . S
C546 C550 1.385 . S
C547 H522 0.951 . S
C547 C545 1.388 . S
C547 C548 1.366 . S
C548 C547 1.366 . S
C548 C549 1.414 . S
C548 C551 1.499 . S
C549 H523 0.950 . S
C549 C548 1.414 . S
C549 C550 1.374 . S
C550 H524 0.950 . S
C550 C546 1.385 . S
C550 C549 1.374 . S
C551 C548 1.499 . S
C551 C552 1.373 . S
C551 C553 1.389 . S
C552 H525 0.950 . S
C552 C538 1.377 . S
C552 C551 1.373 . S
C553 C537 1.377 . S
C553 C551 1.389 . S
C553 C554 1.524 . S
C554 C553 1.524 . S
C554 C555 1.397 . S
C554 C559 1.363 . S
C555 H526 0.950 . S
C555 C554 1.397 . S
C555 C556 1.334 . S
C556 H527 0.950 . S
C556 C555 1.334 . S
C556 C557 1.287 . S
C557 C556 1.287 . S
C557 C558 1.524 . S
C557 H560 0.999 . S
C558 H528 0.950 . S
C558 C557 1.524 . S
C558 C559 1.415 . S
C559 H529 0.950 . S
C559 C554 1.363 . S
C559 C558 1.415 . S
H560 C557 0.999 . S
H561 C542 0.913 . S
H562 C580 0.951 . S
H563 C582 0.951 . S
H564 C584 0.950 . S
H565 C585 0.950 . S
H566 C587 0.950 . S
H567 C590 0.950 . S
H568 C591 0.950 . S
H569 C593 0.950 . S
H570 C594 0.950 . S
H571 C595 0.951 . S
H572 C597 0.951 . S
H573 C599 0.950 . S
H574 C600 0.950 . S
H575 C602 0.950 . S
H576 C605 0.950 . S
H577 C606 0.950 . S
H578 C608 0.950 . S
H579 C609 0.950 . S
C580 H562 0.951 . S
C580 C581 1.366 . S
C580 C582 1.388 . S
C581 C580 1.366 . S
C581 C585 1.385 . S
C582 H563 0.951 . S
C582 C580 1.388 . S
C582 C583 1.366 . S
C583 C582 1.366 . S
C583 C584 1.414 . S
C583 C586 1.499 . S
C584 H564 0.950 . S
C584 C583 1.414 . S
C584 C585 1.374 . S
C585 H565 0.950 . S
C585 C581 1.385 . S
C585 C584 1.374 . S
C586 C583 1.499 . S
C586 C587 1.373 . S
C586 C588 1.389 . S
C587 H566 0.950 . S
C587 C586 1.373 . S
C587 C603 1.377 . S
C588 C586 1.389 . S
C588 C589 1.524 . S
C588 C602 1.377 . S
C589 C588 1.524 . S
C589 C590 1.397 . S
C589 C594 1.363 . S
C590 H567 0.950 . S
C590 C589 1.397 . S
C590 C591 1.334 . S
C591 H568 0.950 . S
C591 C590 1.334 . S
C591 C592 1.287 . S
C592 C591 1.287 . S
C592 C593 1.524 . S
C592 H611 0.913 . S
C593 H569 0.950 . S
C593 C592 1.524 . S
C593 C594 1.415 . S
C594 H570 0.950 . S
C594 C589 1.363 . S
C594 C593 1.415 . S
C595 H571 0.951 . S
C595 C596 1.366 . S
C595 C597 1.388 . S
C596 C595 1.366 . S
C596 C600 1.385 . S
C597 H572 0.951 . S
C597 C595 1.388 . S
C597 C598 1.366 . S
C598 C597 1.366 . S
C598 C599 1.414 . S
C598 C601 1.499 . S
C599 H573 0.950 . S
C599 C598 1.414 . S
C599 C600 1.374 . S
C600 H574 0.950 . S
C600 C596 1.385 . S
C600 C599 1.374 . S
C601 C598 1.499 . S
C601 C602 1.373 . S
C601 C603 1.389 . S
C602 H575 0.950 . S
C602 C588 1.377 . S
C602 C601 1.373 . S
C603 C587 1.377 . S
C603 C601 1.389 . S
C603 C604 1.524 . S
C604 C603 1.524 . S
C604 C605 1.397 . S
C604 C609 1.363 . S
C605 H576 0.950 . S
C605 C604 1.397 . S
C605 C606 1.334 . S
C606 H577 0.950 . S
C606 C605 1.334 . S
C606 C607 1.287 . S
C607 C606 1.287 . S
C607 C608 1.524 . S
C607 H610 0.999 . S
C608 H578 0.950 . S
C608 C607 1.524 . S
C608 C609 1.415 . S
C609 H579 0.950 . S
C609 C604 1.363 . S
C609 C608 1.415 . S
H610 C607 0.999 . S
H611 C592 0.913 . S
H612 C630 0.951 . S
H613 C632 0.951 . S
H614 C634 0.950 . S
H615 C635 0.950 . S
H616 C637 0.950 . S
H617 C640 0.950 . S
H618 C641 0.950 . S
H619 C643 0.950 . S
H620 C644 0.950 . S
H621 C645 0.951 . S
H622 C647 0.951 . S
H623 C649 0.950 . S
H624 C650 0.950 . S
H625 C652 0.950 . S
H626 C655 0.950 . S
H627 C656 0.950 . S
H628 C658 0.950 . S
H629 C659 0.950 . S
C630 H612 0.951 . S
C630 C631 1.366 . S
C630 C632 1.388 . S
C631 C630 1.366 . S
C631 C635 1.385 . S
C632 H613 0.951 . S
C632 C630 1.388 . S
C632 C633 1.366 . S
C633 C632 1.366 . S
C633 C634 1.414 . S
C633 C636 1.499 . S
C634 H614 0.950 . S
C634 C633 1.414 . S
C634 C635 1.374 . S
C635 H615 0.950 . S
C635 C631 1.385 . S
C635 C634 1.374 . S
C636 C633 1.499 . S
C636 C637 1.373 . S
C636 C638 1.389 . S
C637 H616 0.950 . S
C637 C636 1.373 . S
C637 C653 1.377 . S
C638 C636 1.389 . S
C638 C639 1.524 . S
C638 C652 1.377 . S
C639 C638 1.524 . S
C639 C640 1.397 . S
C639 C644 1.363 . S
C640 H617 0.950 . S
C640 C639 1.397 . S
C640 C641 1.334 . S
C641 H618 0.950 . S
C641 C640 1.334 . S
C641 C642 1.287 . S
C642 C641 1.287 . S
C642 C643 1.524 . S
C642 H661 0.913 . S
C643 H619 0.950 . S
C643 C642 1.524 . S
C643 C644 1.415 . S
C644 H620 0.950 . S
C644 C639 1.363 . S
C644 C643 1.415 . S
C645 H621 0.951 . S
C645 C646 1.366 . S
C645 C647 1.388 . S
C646 C645 1.366 . S
C646 C650 1.385 . S
C647 H622 0.951 . S
C647 C645 1.388 . S
C647 C648 1.366 . S
C648 C647 1.366 . S
C648 C649 1.414 . S
C648 C651 1.499 . S
C649 H623 0.950 . S
C649 C648 1.414 . S
C649 C650 1.374 . S
C650 H624 0.950 . S
C650 C646 1.385 . S
C650 C649 1.374 . S
C651 C648 1.499 . S
C651 C652 1.373 . S
C651 C653 1.389 . S
C652 H625 0.950 . S
C652 C638 1.377 . S
C652 C651 1.373 . S
C653 C637 1.377 . S
C653 C651 1.389 . S
C653 C654 1.524 . S
C654 C653 1.524 . S
C654 C655 1.397 . S
C654 C659 1.363 . S
C655 H626 0.950 . S
C655 C654 1.397 . S
C655 C656 1.334 . S
C656 H627 0.950 . S
C656 C655 1.334 . S
C656 C657 1.287 . S
C657 C656 1.287 . S
C657 C658 1.524 . S
C657 H660 0.999 . S
C658 H628 0.950 . S
C658 C657 1.524 . S
C658 C659 1.415 . S
C659 H629 0.950 . S
C659 C654 1.363 . S
C659 C658 1.415 . S
H660 C657 0.999 . S
H661 C642 0.913 . S
H662 C680 0.951 . S
H663 C682 0.951 . S
H664 C684 0.950 . S
H665 C685 0.950 . S
H666 C687 0.950 . S
H667 C690 0.950 . S
H668 C691 0.950 . S
H669 C693 0.950 . S
H670 C694 0.950 . S
H671 C695 0.951 . S
H672 C697 0.951 . S
H673 C699 0.950 . S
H674 C700 0.950 . S
H675 C702 0.950 . S
H676 C705 0.950 . S
H677 C706 0.950 . S
H678 C708 0.950 . S
H679 C709 0.950 . S
C680 H662 0.951 . S
C680 C681 1.366 . S
C680 C682 1.388 . S
C681 C680 1.366 . S
C681 C685 1.385 . S
C682 H663 0.951 . S
C682 C680 1.388 . S
C682 C683 1.366 . S
C683 C682 1.366 . S
C683 C684 1.414 . S
C683 C686 1.499 . S
C684 H664 0.950 . S
C684 C683 1.414 . S
C684 C685 1.374 . S
C685 H665 0.950 . S
C685 C681 1.385 . S
C685 C684 1.374 . S
C686 C683 1.499 . S
C686 C687 1.373 . S
C686 C688 1.389 . S
C687 H666 0.950 . S
C687 C686 1.373 . S
C687 C703 1.377 . S
C688 C686 1.389 . S
C688 C689 1.524 . S
C688 C702 1.377 . S
C689 C688 1.524 . S
C689 C690 1.397 . S
C689 C694 1.363 . S
C690 H667 0.950 . S
C690 C689 1.397 . S
C690 C691 1.334 . S
C691 H668 0.950 . S
C691 C690 1.334 . S
C691 C692 1.287 . S
C692 C691 1.287 . S
C692 C693 1.524 . S
C692 H711 0.913 . S
C693 H669 0.950 . S
C693 C692 1.524 . S
C693 C694 1.415 . S
C694 H670 0.950 . S
C694 C689 1.363 . S
C694 C693 1.415 . S
C695 H671 0.951 . S
C695 C696 1.366 . S
C695 C697 1.388 . S
C696 C695 1.366 . S
C696 C700 1.385 . S
C697 H672 0.951 . S
C697 C695 1.388 . S
C697 C698 1.366 . S
C698 C697 1.366 . S
C698 C699 1.414 . S
C698 C701 1.499 . S
C699 H673 0.950 . S
C699 C698 1.414 . S
C699 C700 1.374 . S
C700 H674 0.950 . S
C700 C696 1.385 . S
C700 C699 1.374 . S
C701 C698 1.499 . S
C701 C702 1.373 . S
C701 C703 1.389 . S
C702 H675 0.950 . S
C702 C688 1.377 . S
C702 C701 1.373 . S
C703 C687 1.377 . S
C703 C701 1.389 . S
C703 C704 1.524 . S
C704 C703 1.524 . S
C704 C705 1.397 . S
C704 C709 1.363 . S
C705 H676 0.950 . S
C705 C704 1.397 . S
C705 C706 1.334 . S
C706 H677 0.950 . S
C706 C705 1.334 . S
C706 C707 1.287 . S
C707 C706 1.287 . S
C707 C708 1.524 . S
C707 H710 0.999 . S
C708 H678 0.950 . S
C708 C707 1.524 . S
C708 C709 1.415 . S
C709 H679 0.950 . S
C709 C704 1.363 . S
C709 C708 1.415 . S
H710 C707 0.999 . S
H711 C692 0.913 . S
H712 C730 0.951 . S
H713 C732 0.951 . S
H714 C734 0.950 . S
H715 C735 0.950 . S
H716 C737 0.950 . S
H717 C740 0.950 . S
H718 C741 0.950 . S
H719 C743 0.950 . S
H720 C744 0.950 . S
H721 C745 0.951 . S
H722 C747 0.951 . S
H723 C749 0.950 . S
H724 C750 0.950 . S
H725 C752 0.950 . S
H726 C755 0.950 . S
H727 C756 0.950 . S
H728 C758 0.950 . S
H729 C759 0.950 . S
C730 H712 0.951 . S
C730 C731 1.366 . S
C730 C732 1.388 . S
C731 C730 1.366 . S
C731 C735 1.385 . S
C732 H713 0.951 . S
C732 C730 1.388 . S
C732 C733 1.366 . S
C733 C732 1.366 . S
C733 C734 1.414 . S
C733 C736 1.499 . S
C734 H714 0.950 . S
C734 C733 1.414 . S
C734 C735 1.374 . S
C735 H715 0.950 . S
C735 C731 1.385 . S
C735 C734 1.374 . S
C736 C733 1.499 . S
C736 C737 1.373 . S
C736 C738 1.389 . S
C737 H716 0.950 . S
C737 C736 1.373 . S
C737 C753 1.377 . S
C738 C736 1.389 . S
C738 C739 1.524 . S
C738 C752 1.377 . S
C739 C738 1.524 . S
C739 C740 1.397 . S
C739 C744 1.363 . S
C740 H717 0.950 . S
C740 C739 1.397 . S
C740 C741 1.334 . S
C741 H718 0.950 . S
C741 C740 1.334 . S
C741 C742 1.287 . S
C742 C741 1.287 . S
C742 C743 1.524 . S
C742 H761 0.913 . S
C743 H719 0.950 . S
C743 C742 1.524 . S
C743 C744 1.415 . S
C744 H720 0.950 . S
C744 C739 1.363 . S
C744 C743 1.415 . S
C745 H721 0.951 . S
C745 C746 1.366 . S
C745 C747 1.388 . S
C746 C745 1.366 . S
C746 C750 1.385 . S
C747 H722 0.951 . S
C747 C745 1.388 . S
C747 C748 1.366 . S
C748 C747 1.366 . S
C748 C749 1.414 . S
C748 C751 1.499 . S
C749 H723 0.950 . S
C749 C748 1.414 . S
C749 C750 1.374 . S
C750 H724 0.950 . S
C750 C746 1.385 . S
C750 C749 1.374 . S
C751 C748 1.499 . S
C751 C752 1.373 . S
C751 C753 1.389 . S
C752 H725 0.950 . S
C752 C738 1.377 . S
C752 C751 1.373 . S
C753 C737 1.377 . S
C753 C751 1.389 . S
C753 C754 1.524 . S
C754 C753 1.524 . S
C754 C755 1.397 . S
C754 C759 1.363 . S
C755 H726 0.950 . S
C755 C754 1.397 . S
C755 C756 1.334 . S
C756 H727 0.950 . S
C756 C755 1.334 . S
C756 C757 1.287 . S
C757 C756 1.287 . S
C757 C758 1.524 . S
C757 H760 0.999 . S
C758 H728 0.950 . S
C758 C757 1.524 . S
C758 C759 1.415 . S
C759 H729 0.950 . S
C759 C754 1.363 . S
C759 C758 1.415 . S
H760 C757 0.999 . S
H761 C742 0.913 . S
H762 C780 0.951 . S
H763 C782 0.951 . S
H764 C784 0.950 . S
H765 C785 0.950 . S
H766 C787 0.950 . S
H767 C790 0.950 . S
H768 C791 0.950 . S
H769 C793 0.950 . S
H770 C794 0.950 . S
H771 C795 0.951 . S
H772 C797 0.951 . S
H773 C799 0.950 . S
H774 C800 0.950 . S
H775 C802 0.950 . S
H776 C805 0.950 . S
H777 C806 0.950 . S
H778 C808 0.950 . S
H779 C809 0.950 . S
C780 H762 0.951 . S
C780 C781 1.366 . S
C780 C782 1.388 . S
C781 C780 1.366 . S
C781 C785 1.385 . S
C782 H763 0.951 . S
C782 C780 1.388 . S
C782 C783 1.366 . S
C783 C782 1.366 . S
C783 C784 1.414 . S
C783 C786 1.499 . S
C784 H764 0.950 . S
C784 C783 1.414 . S
C784 C785 1.374 . S
C785 H765 0.950 . S
C785 C781 1.385 . S
C785 C784 1.374 . S
C786 C783 1.499 . S
C786 C787 1.373 . S
C786 C788 1.389 . S
C787 H766 0.950 . S
C787 C786 1.373 . S
C787 C803 1.377 . S
C788 C786 1.389 . S
C788 C789 1.524 . S
C788 C802 1.377 . S
C789 C788 1.524 . S
C789 C790 1.397 . S
C789 C794 1.363 . S
C790 H767 0.950 . S
C790 C789 1.397 . S
C790 C791 1.334 . S
C791 H768 0.950 . S
C791 C790 1.334 . S
C791 C792 1.287 . S
C792 C791 1.287 . S
C792 C793 1.524 . S
C792 H811 0.913 . S
C793 H769 0.950 . S
C793 C792 1.524 . S
C793 C794 1.415 . S
C794 H770 0.950 . S
C794 C789 1.363 . S
C794 C793 1.415 . S
C795 H771 0.951 . S
C795 C796 1.366 . S
C795 C797 1.388 . S
C796 C795 1.366 . S
C796 C800 1.385 . S
C797 H772 0.951 . S
C797 C795 1.388 . S
C797 C798 1.366 . S
C798 C797 1.366 . S
C798 C799 1.414 . S
C798 C801 1.499 . S
C799 H773 0.950 . S
C799 C798 1.414 . S
C799 C800 1.374 . S
C800 H774 0.950 . S
C800 C796 1.385 . S
C800 C799 1.374 . S
C801 C798 1.499 . S
C801 C802 1.373 . S
C801 C803 1.389 . S
C802 H775 0.950 . S
C802 C788 1.377 . S
C802 C801 1.373 . S
C803 C787 1.377 . S
C803 C801 1.389 . S
C803 C804 1.524 . S
C804 C803 1.524 . S
C804 C805 1.397 . S
C804 C809 1.363 . S
C805 H776 0.950 . S
C805 C804 1.397 . S
C805 C806 1.334 . S
C806 H777 0.950 . S
C806 C805 1.334 . S
C806 C807 1.287 . S
C807 C806 1.287 . S
C807 C808 1.524 . S
C807 H810 0.999 . S
C808 H778 0.950 . S
C808 C807 1.524 . S
C808 C809 1.415 . S
C809 H779 0.950 . S
C809 C804 1.363 . S
C809 C808 1.415 . S
H810 C807 0.999 . S
H811 C792 0.913 . S
H812 C830 0.951 . S
H813 C832 0.951 . S
H814 C834 0.950 . S
H815 C835 0.950 . S
H816 C837 0.950 . S
H817 C840 0.950 . S
H818 C841 0.950 . S
H819 C843 0.950 . S
H820 C844 0.950 . S
H821 C845 0.951 . S
H822 C847 0.951 . S
H823 C849 0.950 . S
H824 C850 0.950 . S
H825 C852 0.950 . S
H826 C855 0.950 . S
H827 C856 0.950 . S
H828 C858 0.950 . S
H829 C859 0.950 . S
C830 H812 0.951 . S
C830 C831 1.366 . S
C830 C832 1.388 . S
C831 C830 1.366 . S
C831 C835 1.385 . S
C832 H813 0.951 . S
C832 C830 1.388 . S
C832 C833 1.366 . S
C833 C832 1.366 . S
C833 C834 1.414 . S
C833 C836 1.499 . S
C834 H814 0.950 . S
C834 C833 1.414 . S
C834 C835 1.374 . S
C835 H815 0.950 . S
C835 C831 1.385 . S
C835 C834 1.374 . S
C836 C833 1.499 . S
C836 C837 1.373 . S
C836 C838 1.389 . S
C837 H816 0.950 . S
C837 C836 1.373 . S
C837 C853 1.377 . S
C838 C836 1.389 . S
C838 C839 1.524 . S
C838 C852 1.377 . S
C839 C838 1.524 . S
C839 C840 1.397 . S
C839 C844 1.363 . S
C840 H817 0.950 . S
C840 C839 1.397 . S
C840 C841 1.334 . S
C841 H818 0.950 . S
C841 C840 1.334 . S
C841 C842 1.287 . S
C842 C841 1.287 . S
C842 C843 1.524 . S
C842 H861 0.913 . S
C843 H819 0.950 . S
C843 C842 1.524 . S
C843 C844 1.415 . S
C844 H820 0.950 . S
C844 C839 1.363 . S
C844 C843 1.415 . S
C845 H821 0.951 . S
C845 C846 1.366 . S
C845 C847 1.388 . S
C846 C845 1.366 . S
C846 C850 1.385 . S
C847 H822 0.951 . S
C847 C845 1.388 . S
C847 C848 1.366 . S
C848 C847 1.366 . S
C848 C849 1.414 . S
C848 C851 1.499 . S
C849 H823 0.950 . S
C849 C848 1.414 . S
C849 C850 1.374 . S
C850 H824 0.950 . S
C850 C846 1.385 . S
C850 C849 1.374 . S
C851 C848 1.499 . S
C851 C852 1.373 . S
C851 C853 1.389 . S
C852 H825 0.950 . S
C852 C838 1.377 . S
C852 C851 1.373 . S
C853 C837 1.377 . S
C853 C851 1.389 . S
C853 C854 1.524 . S
C854 C853 1.524 . S
C854 C855 1.397 . S
C854 C859 1.363 . S
C855 H826 0.950 . S
C855 C854 1.397 . S
C855 C856 1.334 . S
C856 H827 0.950 . S
C856 C855 1.334 . S
C856 C857 1.287 . S
C857 C856 1.287 . S
C857 C858 1.524 . S
C857 H860 0.999 . S
C858 H828 0.950 . S
C858 C857 1.524 . S
C858 C859 1.415 . S
C859 H829 0.950 . S
C859 C854 1.363 . S
C859 C858 1.415 . S
H860 C857 0.999 . S
H861 C842 0.913 . S
H862 C880 0.951 . S
H863 C882 0.951 . S
H864 C884 0.950 . S
H865 C885 0.950 . S
H866 C887 0.950 . S
H867 C890 0.950 . S
H868 C891 0.950 . S
H869 C893 0.950 . S
H870 C894 0.950 . S
H871 C895 0.951 . S
H872 C897 0.951 . S
H873 C899 0.950 . S
H874 C900 0.950 . S
H875 C902 0.950 . S
H876 C905 0.950 . S
H877 C906 0.950 . S
H878 C908 0.950 . S
H879 C909 0.950 . S
C880 H862 0.951 . S
C880 C881 1.366 . S
C880 C882 1.388 . S
C881 C880 1.366 . S
C881 C885 1.385 . S
C882 H863 0.951 . S
C882 C880 1.388 . S
C882 C883 1.366 . S
C883 C882 1.366 . S
C883 C884 1.414 . S
C883 C886 1.499 . S
C884 H864 0.950 . S
C884 C883 1.414 . S
C884 C885 1.374 . S
C885 H865 0.950 . S
C885 C881 1.385 . S
C885 C884 1.374 . S
C886 C883 1.499 . S
C886 C887 1.373 . S
C886 C888 1.389 . S
C887 H866 0.950 . S
C887 C886 1.373 . S
C887 C903 1.377 . S
C888 C886 1.389 . S
C888 C889 1.524 . S
C888 C902 1.377 . S
C889 C888 1.524 . S
C889 C890 1.397 . S
C889 C894 1.363 . S
C890 H867 0.950 . S
C890 C889 1.397 . S
C890 C891 1.334 . S
C891 H868 0.950 . S
C891 C890 1.334 . S
C891 C892 1.287 . S
C892 C891 1.287 . S
C892 C893 1.524 . S
C892 H911 0.913 . S
C893 H869 0.950 . S
C893 C892 1.524 . S
C893 C894 1.415 . S
C894 H870 0.950 . S
C894 C889 1.363 . S
C894 C893 1.415 . S
C895 H871 0.951 . S
C895 C896 1.366 . S
C895 C897 1.388 . S
C896 C895 1.366 . S
C896 C900 1.385 . S
C897 H872 0.951 . S
C897 C895 1.388 . S
C897 C898 1.366 . S
C898 C897 1.366 . S
C898 C899 1.414 . S
C898 C901 1.499 . S
C899 H873 0.950 . S
C899 C898 1.414 . S
C899 C900 1.374 . S
C900 H874 0.950 . S
C900 C896 1.385 . S
C900 C899 1.374 . S
C901 C898 1.499 . S
C901 C902 1.373 . S
C901 C903 1.389 . S
C902 H875 0.950 . S
C902 C888 1.377 . S
C902 C901 1.373 . S
C903 C887 1.377 . S
C903 C901 1.389 . S
C903 C904 1.524 . S
C904 C903 1.524 . S
C904 C905 1.397 . S
C904 C909 1.363 . S
C905 H876 0.950 . S
C905 C904 1.397 . S
C905 C906 1.334 . S
C906 H877 0.950 . S
C906 C905 1.334 . S
C906 C907 1.287 . S
C907 C906 1.287 . S
C907 C908 1.524 . S
C907 H910 0.999 . S
C908 H878 0.950 . S
C908 C907 1.524 . S
C908 C909 1.415 . S
C909 H879 0.950 . S
C909 C904 1.363 . S
C909 C908 1.415 . S
H910 C907 0.999 . S
H911 C892 0.913 . S
C131 C13 1.473 . S
C146 C69 1.471 . S
C181 C27 1.472 . S
C196 C83 1.472 . S
C231 C97 1.473 . S
C246 C41 1.471 . S
C281 C111 1.471 . S
C296 C55 1.473 . S
C331 C11 0.998 . S
C346 C39 0.996 . S
C381 C25 0.996 . S
C396 C53 0.998 . S
C431 C95 0.998 . S
C446 C67 0.996 . S
C481 C81 0.998 . S
C496 C109 0.996 . S
C531 C78 1.308 . S
C546 C8 1.308 . S
C581 C22 1.309 . S
C596 C92 1.309 . S
C631 C106 1.309 . S
C646 C36 1.309 . S
C681 C50 1.308 . S
C696 C64 1.308 . S
C731 C91 0.980 . S
C746 C49 0.979 . S
C781 C7 0.980 . S
C796 C105 0.980 . S
C831 C21 0.979 . S
C846 C63 0.979 . S
C881 C77 0.980 . S
C896 C35 0.979 . S
