# Generated by pormake.
# Topology sxc, (6)-cn, num edge types: 1
# Building blocks:
#     Node 0, Type 0, BuildingBlock: BETFEN_clean_sbu_0, # of connection points: 6
#     Node 1, Type 0, BuildingBlock: BETFEN_clean_sbu_0, # of connection points: 6
#     Node 2, Type 0, BuildingBlock: BETFEN_clean_sbu_0, # of connection points: 6
#     Edge 3, Type (0, 0), BuildingBlock: UVAHIK_clean_linker_0, # of connection points: 2
#     Edge 4, Type (0, 0), BuildingBlock: UVAHIK_clean_linker_0, # of connection points: 2
#     Edge 5, Type (0, 0), BuildingBlock: UVAHIK_clean_linker_0, # of connection points: 2
#     Edge 6, Type (0, 0), BuildingBlock: UVAHIK_clean_linker_0, # of connection points: 2
#     Edge 7, Type (0, 0), BuildingBlock: UVAHIK_clean_linker_0, # of connection points: 2
#     Edge 8, Type (0, 0), BuildingBlock: UVAHIK_clean_linker_0, # of connection points: 2
#     Edge 9, Type (0, 0), BuildingBlock: UVAHIK_clean_linker_0, # of connection points: 2
#     Edge 10, Type (0, 0), BuildingBlock: UVAHIK_clean_linker_0, # of connection points: 2
#     Edge 11, Type (0, 0), BuildingBlock: UVAHIK_clean_linker_0, # of connection points: 2
# Relax obj value: 0.216
# Max RMSD: 0.141
# Mean RMSD: 0.077
data_MOF--net-sxc--node1-BETFEN_clean_sbu_0--edge1-UVAHIK_clean_linker_0
_symmetry_space_group_name_H-M    P1
_symmetry_Int_Tables_number       1
_symmetry_cell_setting            triclinic
loop_
_symmetry_equiv_pos_as_xyz
'x, y, z'
_cell_length_a     20.421936
_cell_length_b     21.093436
_cell_length_c     57.469975
_cell_angle_alpha  94.939228
_cell_angle_beta   90.35341
_cell_angle_gamma 93.685582
loop_
_atom_site_label
_atom_site_type_symbol
_atom_site_fract_x
_atom_site_fract_y
_atom_site_fract_z
_atom_type_partial_charge
Pr0 Pr 0.14169 0.11961 0.00223 0.0
Pr1 Pr 1.00578 0.11859 0.00855 0.0
C2 C 0.26734 0.1434 0.99003 0.0
C3 C 0.31049 0.20164 0.99276 0.0
C4 C 0.29259 0.25325 0.00788 0.0
C5 C 0.33093 0.31047 0.00958 0.0
C6 C 0.38785 0.31707 0.99618 0.0
C7 C 0.40628 0.26484 0.98131 0.0
C8 C 0.36759 0.20745 0.97956 0.0
C9 C 0.10943 0.11483 0.04942 0.0
C10 C 0.07307 0.2641 0.00815 0.0
C11 C 0.87986 1.09497 0.02044 0.0
C12 C 0.83726 1.03631 0.01826 0.0
C13 C 0.85537 0.98407 0.0035 0.0
C14 C 0.81769 0.92651 0.0024 0.0
C15 C 0.76123 0.92019 0.01606 0.0
C16 C 0.74258 0.97302 0.03056 0.0
C17 C 0.7806 1.03076 0.03171 0.0
C18 C 1.03894 0.12355 0.96149 0.0
C19 C 0.07436 0.97417 0.00275 0.0
O20 O 0.21798 0.14495 0.97558 0.0
O21 O 0.25055 0.119 0.0094 0.0
O22 O 0.08548 0.15216 0.036 0.0
O23 O 0.15012 1.07844 0.0385 0.0
O24 O 1.02076 0.23142 0.01536 0.0
O25 O 0.12376 0.23188 1.00056 0.0
O26 O 0.92875 1.0953 0.03521 0.0
O27 O 0.8971 0.11754 1.00078 0.0
O28 O 1.06189 1.08567 0.9749 0.0
O29 O 0.99911 0.16089 0.9724 0.0
O30 O 0.1265 1.00681 0.99538 0.0
O31 O 1.02382 1.00644 0.01045 0.0
H32 H 0.24857 0.24947 0.01823 0.0
H33 H 0.31605 0.34955 0.02143 0.0
H34 H 0.44966 0.26885 0.97065 0.0
H35 H 0.38167 0.16804 0.9677 0.0
H36 H 0.89906 0.98762 0.99298 0.0
H37 H 0.83271 0.88695 0.99081 0.0
H38 H 0.69954 0.96925 0.04141 0.0
H39 H 0.76639 1.07066 0.04331 0.0
Pr40 Pr 1.03837 0.21741 0.33434 0.0
Pr41 Pr 1.03058 1.06248 0.34687 0.0
C42 C 1.0549 0.32188 0.31104 0.0
C43 C 0.11397 0.35136 0.30096 0.0
C44 C 0.11939 0.41724 0.29948 0.0
C45 C 0.17985 0.44768 0.29464 0.0
C46 C 0.23612 0.41268 0.2913 0.0
C47 C 0.2294 0.34597 0.29132 0.0
C48 C 0.16873 0.31554 0.29609 0.0
C49 C 1.02982 0.20195 0.38259 0.0
C50 C 0.89105 0.13685 0.33992 0.0
C51 C 1.04923 0.96246 0.37112 0.0
C52 C 0.10669 0.92432 0.37139 0.0
C53 C 0.15117 0.92576 0.35291 0.0
C54 C 0.21041 0.89689 0.35417 0.0
C55 C 0.22665 0.86628 0.37401 0.0
C56 C 0.18198 0.8652 0.39258 0.0
C57 C 0.12251 0.89429 0.3913 0.0
C58 C 1.04333 1.07614 0.29873 0.0
C59 C 0.17779 0.14268 0.34057 0.0
O60 O 1.05547 0.32413 0.33389 0.0
O61 O 1.03283 0.2665 0.301 0.0
O62 O 1.02921 0.16055 0.36553 0.0
O63 O 1.03538 0.25795 0.37458 0.0
O64 O 0.91921 1.08719 0.34775 0.0
O65 O 0.92487 0.18727 0.33241 0.0
O66 O 1.06128 1.02147 0.3798 0.0
O67 O 1.01428 0.95719 0.35167 0.0
O68 O 1.04088 0.11889 0.31533 0.0
O69 O 1.03954 1.02064 0.3072 0.0
O70 O 0.14962 0.19349 0.33411 0.0
O71 O 0.14388 1.0915 0.34704 0.0
H72 H 0.07784 0.44563 0.30343 0.0
H73 H 0.18325 0.49924 0.29522 0.0
H74 H 0.27157 0.31765 0.2887 0.0
H75 H 0.16545 0.26443 0.29717 0.0
H76 H 0.14052 0.95015 0.33762 0.0
H77 H 0.24295 0.89759 0.33937 0.0
H78 H 0.19322 0.84228 0.40815 0.0
H79 H 0.0895 0.89437 0.40598 0.0
Pr80 Pr 0.06926 1.05486 0.67424 0.0
Pr81 Pr 0.07985 0.21163 0.66656 0.0
C82 C 1.05135 0.94292 0.69281 0.0
C83 C 1.00245 0.8894 0.68832 0.0
C84 C 0.96165 0.88648 0.6685 0.0
C85 C 0.90979 0.84019 0.6654 0.0
C86 C 0.8976 0.79622 0.68216 0.0
C87 C 0.93988 0.79817 0.70168 0.0
C88 C 0.99199 0.84458 0.70474 0.0
C89 C 1.05542 1.07848 0.6268 0.0
C90 C 0.93159 0.1343 0.66961 0.0
C91 C 0.1012 0.32365 0.64828 0.0
C92 C 0.15218 0.37521 0.65301 0.0
C93 C 0.19253 0.37578 0.67286 0.0
C94 C 0.24776 0.41818 0.67575 0.0
C95 C 0.26379 0.46053 0.65874 0.0
C96 C 0.22178 0.46137 0.63928 0.0
C97 C 0.16635 0.41882 0.63642 0.0
C98 C 0.0896 0.18818 0.71412 0.0
C99 C 0.21768 0.13228 0.67113 0.0
O100 O 1.02786 0.99555 0.70216 0.0
O101 O 0.09289 0.95221 0.6759 0.0
O102 O 1.06413 0.11777 0.64442 0.0
O103 O 1.05378 1.02118 0.63368 0.0
O104 O 0.96607 0.18517 0.66296 0.0
O105 O 0.95938 1.08349 0.6764 0.0
O106 O 0.12305 0.27043 0.63884 0.0
O107 O 1.05899 0.3152 0.66505 0.0
O108 O 0.08436 0.14869 0.69643 0.0
O109 O 0.09015 0.24532 0.70715 0.0
O110 O 0.1832 1.08083 0.67723 0.0
O111 O 0.18991 0.18366 0.66492 0.0
H112 H 0.96854 0.92145 0.65583 0.0
H113 H 0.87749 0.84071 0.65041 0.0
H114 H 0.93189 0.76461 0.71478 0.0
H115 H 1.0229 0.84662 0.72021 0.0
H116 H 0.1829 0.3415 0.68563 0.0
H117 H 0.27963 0.41554 0.69072 0.0
H118 H 0.23264 0.49385 0.626 0.0
H119 H 0.13597 0.4184 0.62087 0.0
C120 C 1.01928 0.37165 0.01494 0.0
C121 C 0.07417 0.33721 0.008 0.0
C122 C 1.01934 0.43901 0.01437 0.0
C123 C 0.13234 0.59013 0.00837 0.0
H124 H 0.96846 0.66819 0.99982 0.0
C125 C 0.12808 0.86661 0.99591 0.0
C126 C 0.07326 0.90107 0.00292 0.0
C127 C 0.12802 0.79925 0.99647 0.0
C128 C 1.01507 0.64818 0.00254 0.0
H129 H 0.17293 0.35045 0.99496 0.0
H130 H 0.17314 0.46615 0.99378 0.0
H131 H 0.96905 0.55312 1.00086 0.0
H132 H 0.97462 0.88788 0.01606 0.0
H133 H 0.97439 0.77217 0.01722 0.0
H134 H 0.17836 0.68519 0.01003 0.0
C135 C 0.12953 0.44142 1.00002 0.0
C136 C 1.01544 0.5808 0.00316 0.0
C137 C 0.12938 0.37394 1.00056 0.0
C138 C 1.01811 0.86437 0.01042 0.0
C139 C 1.01795 0.79689 0.01094 0.0
C140 C 0.13197 0.6575 0.00774 0.0
C141 C 0.07438 0.47611 0.00684 0.0
C142 C 0.07408 0.54958 0.0061 0.0
C143 C 0.07304 0.76218 0.00406 0.0
C144 C 0.07333 0.68872 0.0048 0.0
H145 H 0.97551 0.3464 0.02086 0.0
H146 H 0.9758 0.46199 0.02023 0.0
H147 H 0.17896 0.57012 0.01109 0.0
H148 H 0.1718 0.89184 0.98993 0.0
H149 H 0.1715 0.77625 0.99057 0.0
C150 C 0.29032 0.19478 0.33353 0.0
C151 C 0.2511 0.1424 0.34041 0.0
C152 C 0.35907 0.194 0.33333 0.0
C153 C 0.49814 0.11194 0.35743 0.0
H154 H 0.59674 0.1859 0.30792 0.0
C155 C 0.77851 1.08439 0.34681 0.0
C156 C 0.81762 0.13658 0.33971 0.0
C157 C 0.7097 1.08467 0.34674 0.0
C158 C 0.57026 0.16566 0.32207 0.0
H159 H 0.25464 1.04777 0.35237 0.0
H160 H 0.37363 1.04627 0.3518 0.0
H161 H 0.47756 0.1878 0.30819 0.0
H162 H 0.8137 0.23027 0.32701 0.0
H163 H 0.69464 0.23102 0.32719 0.0
H164 H 0.59078 1.08997 0.37137 0.0
C165 C 0.35145 1.0885 0.34687 0.0
C166 C 0.50157 0.16677 0.32222 0.0
C167 C 0.28281 1.08924 0.34705 0.0
C168 C 0.78567 0.18896 0.33252 0.0
C169 C 0.71695 0.18925 0.33248 0.0
C170 C 0.56683 0.11091 0.3573 0.0
C171 C 0.39078 0.14086 0.34003 0.0
C172 C 0.46434 0.13992 0.3399 0.0
C173 C 0.67774 0.13715 0.33959 0.0
C174 C 0.6041 0.13778 0.33963 0.0
H175 H 0.26801 0.23665 0.32831 0.0
H176 H 0.38741 0.2356 0.32821 0.0
H177 H 0.47161 1.09166 0.37157 0.0
H178 H 0.80095 1.04303 0.3524 0.0
H179 H 0.68153 1.0432 0.35204 0.0
C180 C 0.81758 0.72201 0.65821 0.0
C181 C 0.83791 0.75222 0.68005 0.0
C182 C 0.75727 0.6869 0.65573 0.0
C183 C 0.62422 0.60936 0.6887 0.0
H184 H 0.51624 0.6419 0.63579 0.0
C185 C 0.34976 0.52883 0.68223 0.0
C186 C 0.32684 0.49967 0.66054 0.0
C187 C 0.41219 0.55997 0.68433 0.0
C188 C 0.54604 0.63184 0.65052 0.0
H189 H 0.81179 0.76782 0.71652 0.0
H190 H 0.70668 0.70638 0.71222 0.0
H191 H 0.62744 0.69119 0.63999 0.0
H192 H 0.35105 0.48119 0.62398 0.0
H193 H 0.4598 0.53601 0.62763 0.0
H194 H 0.5426 0.55033 0.6993 0.0
C195 C 0.73762 0.70928 0.69706 0.0
C196 C 0.60979 0.65988 0.6529 0.0
C197 C 0.79792 0.74439 0.69953 0.0
C198 C 0.36686 0.50405 0.64086 0.0
C199 C 0.42925 0.53527 0.64296 0.0
C200 C 0.56045 0.58136 0.68634 0.0
C201 C 0.71607 0.68126 0.67504 0.0
C202 C 0.64948 0.64911 0.67205 0.0
C203 C 0.45296 0.56268 0.66479 0.0
C204 C 0.5206 0.59253 0.66728 0.0
H205 H 0.84785 0.72644 0.64295 0.0
H206 H 0.74251 0.66481 0.63863 0.0
H207 H 0.65393 0.59955 0.70349 0.0
H208 H 0.31968 0.52697 0.69764 0.0
H209 H 0.42867 0.58171 0.7013 0.0
C210 C 0.81949 1.08068 0.6759 0.0
C211 C 0.8582 0.13401 0.66951 0.0
C212 C 0.75071 1.08046 0.67599 0.0
C213 C 0.61293 0.18891 0.67742 0.0
H214 H 0.50809 1.03413 0.6571 0.0
C215 C 0.32977 0.18609 0.66496 0.0
C216 C 0.29109 0.13256 0.67118 0.0
C217 C 0.39855 0.18629 0.6648 0.0
C218 C 0.53641 1.07767 0.66312 0.0
H219 H 0.85362 0.22899 0.65805 0.0
H220 H 0.73418 0.22837 0.65802 0.0
H221 H 0.62743 1.03441 0.6566 0.0
H222 H 0.29571 1.03721 0.68229 0.0
H223 H 0.41513 1.03784 0.68226 0.0
H224 H 0.52194 0.23216 0.68397 0.0
C225 C 0.75703 0.18686 0.66328 0.0
C226 C 0.60519 1.07783 0.66283 0.0
C227 C 0.82584 0.18705 0.66315 0.0
C228 C 0.32347 1.07931 0.67732 0.0
C229 C 0.39228 1.07951 0.67715 0.0
C230 C 0.54415 0.18874 0.67773 0.0
C231 C 0.7183 0.13359 0.66972 0.0
C232 C 0.64463 0.13346 0.66997 0.0
C233 C 0.431 0.13297 0.67086 0.0
C234 C 0.50469 0.13312 0.67058 0.0
H235 H 0.84225 1.03886 0.68094 0.0
H236 H 0.72298 1.03881 0.68135 0.0
H237 H 0.64127 0.23245 0.68344 0.0
H238 H 0.307 0.22806 0.66007 0.0
H239 H 0.42624 0.22809 0.65955 0.0
C240 C 0.75466 0.80129 0.01518 0.0
C241 C 0.72261 0.85828 0.01523 0.0
C242 C 0.71868 0.74263 0.01352 0.0
C243 C 0.55391 0.66786 0.02203 0.0
H244 H 0.61467 0.53051 0.98003 0.0
C245 C 0.39565 0.43609 0.99795 0.0
C246 C 0.42709 0.3787 0.9976 0.0
C247 C 0.43217 0.49445 1.00006 0.0
C248 C 0.59752 0.56819 0.99201 0.0
H249 H 0.62789 0.89872 0.01373 0.0
H250 H 0.56479 0.79596 0.01081 0.0
H251 H 0.67748 0.63321 0.98426 0.0
H252 H 0.5213 0.33726 0.99906 0.0
H253 H 0.58536 0.43954 0.00275 0.0
H254 H 0.4739 0.60287 0.02975 0.0
C255 C 0.61774 0.79679 0.01231 0.0
C256 C 0.63343 0.62694 0.99444 0.0
C257 C 0.65378 0.85555 0.01398 0.0
C258 C 0.49587 0.38077 0.99904 0.0
C259 C 0.53246 0.43924 1.00116 0.0
C260 C 0.518 0.60911 0.0196 0.0
C261 C 0.6499 0.73976 0.01189 0.0
C262 C 0.61195 0.67737 0.00946 0.0
C263 C 0.5009 0.49665 0.00183 0.0
C264 C 0.53938 0.55874 0.00453 0.0
H265 H 0.80765 0.80205 0.01654 0.0
H266 H 0.7447 0.69951 0.01366 0.0
H267 H 0.5367 0.70559 0.03398 0.0
H268 H 0.34272 0.43588 0.99645 0.0
H269 H 0.40659 0.53789 1.00009 0.0
C270 C 0.35238 0.4295 0.30601 0.0
C271 C 0.30192 0.44724 0.2916 0.0
C272 C 0.40477 0.47319 0.31296 0.0
C273 C 0.44073 0.58722 0.34571 0.0
H274 H 0.44212 0.75027 0.31963 0.0
C275 C 0.28398 0.76891 0.38143 0.0
C276 C 0.28703 0.8307 0.3741 0.0
C277 C 0.33469 0.72902 0.37633 0.0
C278 C 0.44442 0.70568 0.32752 0.0
H279 H 0.27364 0.51918 0.26952 0.0
H280 H 0.36135 0.59599 0.28235 0.0
H281 H 0.45444 0.65476 0.29412 0.0
H282 H 0.3498 0.90245 0.35876 0.0
H283 H 0.43871 0.83251 0.34974 0.0
H284 H 0.43028 0.63823 0.37909 0.0
C285 C 0.36196 0.54912 0.28861 0.0
C286 C 0.45045 0.65033 0.31269 0.0
C287 C 0.31045 0.50514 0.28137 0.0
C288 C 0.34527 0.85424 0.36399 0.0
C289 C 0.39633 0.81425 0.35891 0.0
C290 C 0.43707 0.64271 0.36061 0.0
C291 C 0.40651 0.53585 0.30615 0.0
C292 C 0.43947 0.59008 0.32128 0.0
C293 C 0.38986 0.74989 0.36372 0.0
C294 C 0.43009 0.70136 0.35128 0.0
H295 H 0.34817 0.38462 0.31389 0.0
H296 H 0.43986 0.45985 0.32556 0.0
H297 H 0.43511 0.54228 0.35346 0.0
H298 H 0.23991 0.74916 0.38923 0.0
H299 H 0.32696 0.67985 0.38026 0.0
C300 C 1.02203 0.13698 0.26378 0.0
C301 C 1.04874 1.0853 0.27345 0.0
C302 C 1.02517 0.14307 0.23964 0.0
C303 C 1.04948 1.04682 0.18303 0.0
H304 H 0.08259 0.21117 0.15841 0.0
C305 C 0.12446 1.068 0.08742 0.0
C306 C 0.09756 0.11476 0.07494 0.0
C307 C 0.11437 1.06652 0.11142 0.0
C308 C 0.0725 0.16498 0.16497 0.0
H309 H 0.09917 0.99913 0.26541 0.0
H310 H 0.10592 1.00995 0.2236 0.0
H311 H 0.07404 0.20501 0.20062 0.0
H312 H 1.03882 0.1969 0.07799 0.0
H313 H 1.02135 0.19464 0.12023 0.0
H314 H 1.04885 1.00665 0.14752 0.0
C315 C 0.08171 1.04571 0.23443 0.0
C316 C 0.06757 0.16139 0.18923 0.0
C317 C 0.07831 1.03965 0.25848 0.0
C318 C 1.06026 0.16031 0.08712 0.0
C319 C 1.05054 0.15915 0.11133 0.0
C320 C 1.05467 1.05039 0.15888 0.0
C321 C 1.05477 1.09724 0.22455 0.0
C322 C 1.05691 1.10209 0.19865 0.0
C323 C 0.07726 0.11193 0.12377 0.0
C324 C 0.06717 0.10936 0.14949 0.0
H325 H 0.99633 0.1712 0.27471 0.0
H326 H 1.0027 0.18273 0.23273 0.0
H327 H 1.03944 1.00043 0.18943 0.0
H328 H 0.15349 1.03219 0.07862 0.0
H329 H 0.13658 1.03005 0.12039 0.0
C330 C 1.049 0.23922 0.42482 0.0
C331 C 1.02854 0.19021 0.40773 0.0
C332 C 1.04939 0.22845 0.44856 0.0
C333 C 0.98514 0.11338 0.49074 0.0
H334 H 0.12108 0.20054 0.53125 0.0
C335 C 1.03941 1.04348 0.58425 0.0
C336 C 1.04928 1.09329 0.60206 0.0
C337 C 1.03448 1.05638 0.5608 0.0
C338 C 0.08244 0.17624 0.52022 0.0
H339 H 0.98779 1.09296 0.40231 0.0
H340 H 0.99224 1.07235 0.4434 0.0
H341 H 0.11793 0.21972 0.49007 0.0
H342 H 1.05967 0.19572 0.60917 0.0
H343 H 1.05324 0.21854 0.56815 0.0
H344 H 0.95125 1.0684 0.52095 0.0
C345 C 1.00778 0.11952 0.43868 0.0
C346 C 0.08034 0.18741 0.49652 0.0
C347 C 1.00667 0.1307 0.41496 0.0
C348 C 1.05348 0.15639 0.59587 0.0
C349 C 1.04959 0.16936 0.57236 0.0
C350 C 0.98788 1.10155 0.51437 0.0
C351 C 1.02952 0.16817 0.45592 0.0
C352 C 1.03159 0.15624 0.48134 0.0
C353 C 1.04005 0.11946 0.55451 0.0
C354 C 1.0365 0.13287 0.52942 0.0
H355 H 0.06523 0.286 0.41983 0.0
H356 H 0.06482 0.26782 0.46113 0.0
H357 H 0.94595 1.08929 0.47994 0.0
H358 H 1.03571 0.99426 0.58841 0.0
H359 H 1.02756 1.0168 0.54752 0.0
C360 C 0.09771 0.11308 0.746 0.0
C361 C 0.08915 0.17432 0.73904 0.0
C362 C 0.09819 1.10232 0.76986 0.0
C363 C 0.11672 0.19143 0.82927 0.0
H364 H 1.03599 1.03674 0.85138 0.0
C365 C 1.03522 0.17678 0.92441 0.0
C366 C 1.05179 0.12404 0.93606 0.0
C367 C 1.0458 0.17855 0.90045 0.0
C368 C 1.0594 1.07989 0.84543 0.0
H369 H 0.07334 0.27187 0.75159 0.0
H370 H 0.07216 0.25321 0.79261 0.0
H371 H 1.04223 1.04764 0.80932 0.0
H372 H 0.09227 1.03141 0.93162 0.0
H373 H 0.1094 1.03381 0.88929 0.0
H374 H 0.13156 0.22459 0.86533 0.0
C375 C 0.08048 0.21348 0.78 0.0
C376 C 1.06315 1.08618 0.82129 0.0
C377 C 0.08056 0.22418 0.75634 0.0
C378 C 0.07912 1.07275 0.92312 0.0
C379 C 0.08861 1.074 0.8989 0.0
C380 C 0.1122 0.18545 0.85328 0.0
C381 C 0.08994 0.1526 0.78725 0.0
C382 C 0.09071 0.14267 0.81284 0.0
C383 C 0.07235 0.12719 0.88733 0.0
C384 C 0.08251 0.13014 0.8617 0.0
H385 H 0.10507 1.07384 0.73307 0.0
H386 H 0.10616 1.05487 0.77466 0.0
H387 H 0.14022 0.23487 0.82362 0.0
H388 H 1.01418 0.21711 0.93386 0.0
H389 H 1.03218 0.21995 0.89207 0.0
loop_
_geom_bond_atom_site_label_1
_geom_bond_atom_site_label_2
_geom_bond_distance
_geom_bond_site_symmetry_2
_ccdc_geom_bond_type
Pr0 C2 2.880 . S
Pr0 O20 2.562 1_554 S
Pr0 O21 2.490 . S
Pr0 O22 2.695 1_455 S
Pr0 O23 2.512 . S
Pr0 O25 2.437 . S
Pr0 O28 2.436 1_554 S
Pr0 O30 2.438 1_545 S
Pr1 C11 2.862 1_546 S
Pr1 O22 2.434 1_556 S
Pr1 O24 2.461 1_556 S
Pr1 O26 2.545 1_546 S
Pr1 O27 2.476 1_545 S
Pr1 O28 2.700 1_655 S
Pr1 O29 2.513 1_545 S
Pr1 O31 2.417 1_545 S
C2 Pr0 2.880 . S
C2 C3 1.491 . S
C2 O20 1.254 1_554 S
C2 O21 1.225 . S
C3 C2 1.491 . S
C3 C4 1.392 . S
C3 C8 1.356 1_554 S
C4 C3 1.392 . S
C4 C5 1.368 . S
C4 H32 0.929 . S
C5 C4 1.368 . S
C5 C6 1.386 . S
C5 H33 0.929 . S
C6 C5 1.386 . S
C6 C7 1.373 1_554 S
C7 C6 1.373 1_556 S
C7 C8 1.409 . S
C7 H34 0.931 . S
C8 C3 1.356 1_556 S
C8 C7 1.409 . S
C8 H35 0.930 . S
C9 O22 1.270 1_455 S
C9 O23 1.248 . S
C10 O24 1.267 . S
C10 O25 1.278 1_655 S
C11 Pr1 2.862 1_564 S
C11 C12 1.491 . S
C11 O26 1.254 . S
C11 O27 1.225 1_554 S
C12 C11 1.491 . S
C12 C13 1.392 1_554 S
C12 C17 1.356 . S
C13 C12 1.392 1_556 S
C13 C14 1.368 . S
C13 H36 0.929 . S
C14 C13 1.368 . S
C14 C15 1.386 1_556 S
C14 H37 0.929 . S
C15 C14 1.386 1_554 S
C15 C16 1.373 . S
C16 C15 1.373 . S
C16 C17 1.409 . S
C16 H38 0.931 . S
C17 C12 1.356 . S
C17 C16 1.409 . S
C17 H39 0.930 . S
C18 O28 1.270 1_655 S
C18 O29 1.248 1_545 S
C19 O30 1.267 . S
C19 O31 1.279 1_454 S
O20 Pr0 2.562 1_556 S
O20 C2 1.254 1_556 S
O21 Pr0 2.490 . S
O21 C2 1.225 . S
O22 Pr0 2.695 1_655 S
O22 Pr1 2.434 1_554 S
O22 C9 1.270 1_655 S
O23 Pr0 2.512 . S
O23 C9 1.248 . S
O24 Pr1 2.461 1_554 S
O24 C10 1.267 . S
O25 Pr0 2.437 . S
O25 C10 1.278 1_455 S
O26 Pr1 2.545 1_564 S
O26 C11 1.254 . S
O27 Pr1 2.476 1_565 S
O27 C11 1.225 1_556 S
O28 Pr0 2.436 1_556 S
O28 Pr1 2.700 1_455 S
O28 C18 1.270 1_455 S
O29 Pr1 2.513 1_565 S
O29 C18 1.248 1_565 S
O30 Pr0 2.438 1_565 S
O30 C19 1.267 . S
O31 Pr1 2.417 1_565 S
O31 C19 1.279 1_656 S
H32 C4 0.929 . S
H33 C5 0.929 . S
H34 C7 0.931 . S
H35 C8 0.930 . S
H36 C13 0.929 . S
H37 C14 0.929 . S
H38 C16 0.931 . S
H39 C17 0.930 . S
Pr40 C42 2.880 . S
Pr40 O60 2.562 . S
Pr40 O61 2.490 . S
Pr40 O62 2.695 . S
Pr40 O63 2.512 . S
Pr40 O65 2.437 1_455 S
Pr40 O68 2.436 . S
Pr40 O70 2.438 . S
Pr41 C51 2.880 1_655 S
Pr41 O62 2.436 1_665 S
Pr41 O64 2.438 . S
Pr41 O66 2.562 1_655 S
Pr41 O67 2.490 1_655 S
Pr41 O68 2.695 1_665 S
Pr41 O69 2.512 1_655 S
Pr41 O71 2.437 1_655 S
C42 Pr40 2.880 . S
C42 C43 1.491 . S
C42 O60 1.254 . S
C42 O61 1.225 . S
C43 C42 1.491 . S
C43 C44 1.392 . S
C43 C48 1.356 1_455 S
C44 C43 1.392 . S
C44 C45 1.368 . S
C44 H72 0.929 . S
C45 C44 1.368 . S
C45 C46 1.386 1_455 S
C45 H73 0.929 . S
C46 C45 1.386 1_655 S
C46 C47 1.373 . S
C47 C46 1.373 . S
C47 C48 1.409 . S
C47 H74 0.931 . S
C48 C43 1.356 1_655 S
C48 C47 1.409 . S
C48 H75 0.930 . S
C49 O62 1.270 . S
C49 O63 1.248 . S
C50 O64 1.267 1_545 S
C50 O65 1.278 . S
C51 Pr41 2.880 1_455 S
C51 C52 1.491 . S
C51 O66 1.254 . S
C51 O67 1.225 . S
C52 C51 1.491 . S
C52 C53 1.392 . S
C52 C57 1.356 . S
C53 C52 1.392 . S
C53 C54 1.368 . S
C53 H76 0.929 . S
C54 C53 1.368 . S
C54 C55 1.386 . S
C54 H77 0.929 . S
C55 C54 1.386 . S
C55 C56 1.373 . S
C56 C55 1.373 . S
C56 C57 1.409 . S
C56 H78 0.931 . S
C57 C52 1.356 . S
C57 C56 1.409 . S
C57 H79 0.930 . S
C58 O68 1.270 . S
C58 O69 1.248 1_545 S
C59 O70 1.267 . S
C59 O71 1.278 1_545 S
O60 Pr40 2.562 . S
O60 C42 1.254 . S
O61 Pr40 2.490 . S
O61 C42 1.225 . S
O62 Pr40 2.695 . S
O62 Pr41 2.436 1_445 S
O62 C49 1.270 . S
O63 Pr40 2.512 . S
O63 C49 1.248 . S
O64 Pr41 2.438 . S
O64 C50 1.267 1_565 S
O65 Pr40 2.437 1_655 S
O65 C50 1.278 . S
O66 Pr41 2.562 1_455 S
O66 C51 1.254 . S
O67 Pr41 2.490 1_455 S
O67 C51 1.225 . S
O68 Pr40 2.436 . S
O68 Pr41 2.695 1_445 S
O68 C58 1.270 . S
O69 Pr41 2.512 1_455 S
O69 C58 1.248 1_565 S
O70 Pr40 2.438 . S
O70 C59 1.267 . S
O71 Pr41 2.437 1_455 S
O71 C59 1.278 1_565 S
H72 C44 0.929 . S
H73 C45 0.929 . S
H74 C47 0.931 . S
H75 C48 0.930 . S
H76 C53 0.929 . S
H77 C54 0.929 . S
H78 C56 0.931 . S
H79 C57 0.930 . S
Pr80 C82 2.880 1_455 S
Pr80 O100 2.562 1_455 S
Pr80 O101 2.490 1_455 S
Pr80 O102 2.695 1_565 S
Pr80 O103 2.512 . S
Pr80 O105 2.437 1_455 S
Pr80 O108 2.436 1_565 S
Pr80 O110 2.438 . S
Pr81 C91 2.880 . S
Pr81 O102 2.436 . S
Pr81 O104 2.438 1_455 S
Pr81 O106 2.562 . S
Pr81 O107 2.490 . S
Pr81 O108 2.695 . S
Pr81 O109 2.512 . S
Pr81 O111 2.437 . S
C82 Pr80 2.880 1_655 S
C82 C83 1.491 . S
C82 O100 1.254 . S
C82 O101 1.225 . S
C83 C82 1.491 . S
C83 C84 1.392 . S
C83 C88 1.356 . S
C84 C83 1.392 . S
C84 C85 1.368 . S
C84 H112 0.929 . S
C85 C84 1.368 . S
C85 C86 1.386 . S
C85 H113 0.929 . S
C86 C85 1.386 . S
C86 C87 1.373 . S
C87 C86 1.373 . S
C87 C88 1.409 . S
C87 H114 0.931 . S
C88 C83 1.356 . S
C88 C87 1.409 . S
C88 H115 0.930 . S
C89 O102 1.267 1_565 S
C89 O103 1.257 . S
C90 O104 1.267 . S
C90 O105 1.278 1_545 S
C91 Pr81 2.880 . S
C91 C92 1.491 . S
C91 O106 1.254 . S
C91 O107 1.225 . S
C92 C91 1.491 . S
C92 C93 1.392 . S
C92 C97 1.356 . S
C93 C92 1.392 . S
C93 C94 1.368 . S
C93 H116 0.929 . S
C94 C93 1.368 . S
C94 C95 1.386 . S
C94 H117 0.929 . S
C95 C94 1.386 . S
C95 C96 1.373 . S
C96 C95 1.373 . S
C96 C97 1.409 . S
C96 H118 0.931 . S
C97 C92 1.356 . S
C97 C96 1.409 . S
C97 H119 0.930 . S
C98 O108 1.270 . S
C98 O109 1.248 . S
C99 O110 1.267 1_545 S
C99 O111 1.278 . S
O100 Pr80 2.562 1_655 S
O100 C82 1.254 . S
O101 Pr80 2.490 1_655 S
O101 C82 1.225 . S
O102 Pr80 2.695 1_545 S
O102 Pr81 2.436 . S
O102 C89 1.267 1_545 S
O103 Pr80 2.512 . S
O103 C89 1.257 . S
O104 Pr81 2.438 1_655 S
O104 C90 1.267 . S
O105 Pr80 2.437 1_655 S
O105 C90 1.278 1_565 S
O106 Pr81 2.562 . S
O106 C91 1.254 . S
O107 Pr81 2.490 . S
O107 C91 1.225 . S
O108 Pr80 2.436 1_545 S
O108 Pr81 2.695 . S
O108 C98 1.270 . S
O109 Pr81 2.512 . S
O109 C98 1.248 . S
O110 Pr80 2.438 . S
O110 C99 1.267 1_565 S
O111 Pr81 2.437 . S
O111 C99 1.278 . S
H112 C84 0.929 . S
H113 C85 0.929 . S
H114 C87 0.931 . S
H115 C88 0.930 . S
H116 C93 0.929 . S
H117 C94 0.929 . S
H118 C96 0.931 . S
H119 C97 0.930 . S
C120 C121 1.349 1_656 S
C120 C122 1.327 . S
C120 H145 0.950 . S
C121 C120 1.349 1_454 S
C121 C137 1.349 . S
C122 C120 1.327 . S
C122 C141 1.429 1_656 S
C122 H146 0.950 . S
C123 C140 1.574 . S
C123 C142 1.368 . S
C123 H147 0.949 . S
H124 C128 0.949 . S
C125 C126 1.349 . S
C125 C127 1.327 . S
C125 H148 0.950 . S
C126 C125 1.349 . S
C126 C138 1.349 1_454 S
C127 C125 1.327 . S
C127 C143 1.429 . S
C127 H149 0.950 . S
C128 H124 0.949 . S
C128 C136 1.574 . S
C128 C144 1.368 1_656 S
H129 C137 0.950 . S
H130 C135 0.950 . S
H131 C136 0.949 . S
H132 C138 0.950 . S
H133 C139 0.950 . S
H134 C140 0.949 . S
C135 H130 0.950 . S
C135 C137 1.327 . S
C135 C141 1.429 . S
C136 C128 1.574 . S
C136 H131 0.949 . S
C136 C142 1.368 1_656 S
C137 C121 1.349 . S
C137 H129 0.950 . S
C137 C135 1.327 . S
C138 C126 1.349 1_656 S
C138 H132 0.950 . S
C138 C139 1.327 . S
C139 H133 0.950 . S
C139 C138 1.327 . S
C139 C143 1.429 1_656 S
C140 C123 1.574 . S
C140 H134 0.949 . S
C140 C144 1.368 . S
C141 C122 1.429 1_454 S
C141 C135 1.429 . S
C141 C142 1.523 . S
C142 C123 1.368 . S
C142 C136 1.368 1_454 S
C142 C141 1.523 . S
C143 C127 1.429 . S
C143 C139 1.429 1_454 S
C143 C144 1.523 . S
C144 C128 1.368 1_454 S
C144 C140 1.368 . S
C144 C143 1.523 . S
H145 C120 0.950 . S
H146 C122 0.950 . S
H147 C123 0.949 . S
H148 C125 0.950 . S
H149 C127 0.950 . S
C150 C151 1.349 . S
C150 C152 1.327 . S
C150 H175 0.950 . S
C151 C150 1.349 . S
C151 C167 1.349 1_545 S
C152 C150 1.327 . S
C152 C171 1.429 . S
C152 H176 0.950 . S
C153 C170 1.574 . S
C153 C172 1.368 . S
C153 H177 0.949 1_545 S
H154 C158 0.949 . S
C155 C156 1.349 . S
C155 C157 1.327 . S
C155 H178 0.950 . S
C156 C155 1.349 . S
C156 C168 1.349 . S
C157 C155 1.327 . S
C157 C173 1.429 . S
C157 H179 0.950 . S
C158 H154 0.949 . S
C158 C166 1.574 . S
C158 C174 1.368 . S
H159 C167 0.950 . S
H160 C165 0.942 1_565 S
H161 C166 0.949 . S
H162 C168 0.950 . S
H163 C169 0.950 . S
H164 C170 0.949 . S
C165 H160 0.942 1_545 S
C165 C167 1.330 1_545 S
C165 C171 1.433 . S
C166 C158 1.574 . S
C166 H161 0.949 . S
C166 C172 1.368 . S
C167 C151 1.349 1_565 S
C167 H159 0.950 . S
C167 C165 1.330 1_565 S
C168 C156 1.349 . S
C168 H162 0.950 . S
C168 C169 1.327 . S
C169 H163 0.950 . S
C169 C168 1.327 . S
C169 C173 1.429 . S
C170 C153 1.574 . S
C170 H164 0.949 . S
C170 C174 1.368 . S
C171 C152 1.429 . S
C171 C165 1.433 . S
C171 C172 1.523 . S
C172 C153 1.368 . S
C172 C166 1.368 . S
C172 C171 1.523 . S
C173 C157 1.429 . S
C173 C169 1.429 . S
C173 C174 1.523 . S
C174 C158 1.368 . S
C174 C170 1.368 . S
C174 C173 1.523 . S
H175 C150 0.950 . S
H176 C152 0.950 . S
H177 C153 0.949 1_565 S
H178 C155 0.950 . S
H179 C157 0.950 . S
C180 C181 1.349 . S
C180 C182 1.327 . S
C180 H205 0.950 . S
C181 C180 1.349 . S
C181 C197 1.349 . S
C182 C180 1.327 . S
C182 C201 1.429 . S
C182 H206 0.950 . S
C183 C200 1.574 . S
C183 C202 1.368 . S
C183 H207 0.949 . S
H184 C188 0.949 . S
C185 C186 1.349 . S
C185 C187 1.327 . S
C185 H208 0.950 . S
C186 C185 1.349 . S
C186 C198 1.349 . S
C187 C185 1.327 . S
C187 C203 1.429 . S
C187 H209 0.950 . S
C188 H184 0.949 . S
C188 C196 1.574 . S
C188 C204 1.368 . S
H189 C197 0.950 . S
H190 C195 0.950 . S
H191 C196 0.949 . S
H192 C198 0.950 . S
H193 C199 0.950 . S
H194 C200 0.949 . S
C195 H190 0.950 . S
C195 C197 1.327 . S
C195 C201 1.429 . S
C196 C188 1.574 . S
C196 H191 0.949 . S
C196 C202 1.368 . S
C197 C181 1.349 . S
C197 H189 0.950 . S
C197 C195 1.327 . S
C198 C186 1.349 . S
C198 H192 0.950 . S
C198 C199 1.327 . S
C199 H193 0.950 . S
C199 C198 1.327 . S
C199 C203 1.429 . S
C200 C183 1.574 . S
C200 H194 0.949 . S
C200 C204 1.368 . S
C201 C182 1.429 . S
C201 C195 1.429 . S
C201 C202 1.523 . S
C202 C183 1.368 . S
C202 C196 1.368 . S
C202 C201 1.523 . S
C203 C187 1.429 . S
C203 C199 1.429 . S
C203 C204 1.523 . S
C204 C188 1.368 . S
C204 C200 1.368 . S
C204 C203 1.523 . S
H205 C180 0.950 . S
H206 C182 0.950 . S
H207 C183 0.949 . S
H208 C185 0.950 . S
H209 C187 0.950 . S
C210 C211 1.349 1_565 S
C210 C212 1.327 . S
C210 H235 0.950 . S
C211 C210 1.349 1_545 S
C211 C227 1.349 . S
C212 C210 1.327 . S
C212 C231 1.429 1_565 S
C212 H236 0.950 . S
C213 C230 1.574 . S
C213 C232 1.368 . S
C213 H237 0.949 . S
H214 C218 0.949 . S
C215 C216 1.349 . S
C215 C217 1.327 . S
C215 H238 0.950 . S
C216 C215 1.349 . S
C216 C228 1.349 1_545 S
C217 C215 1.327 . S
C217 C233 1.429 . S
C217 H239 0.950 . S
C218 H214 0.949 . S
C218 C226 1.574 . S
C218 C234 1.368 1_565 S
H219 C227 0.950 . S
H220 C225 0.950 . S
H221 C226 0.949 . S
H222 C228 0.950 . S
H223 C229 0.950 . S
H224 C230 0.949 . S
C225 H220 0.950 . S
C225 C227 1.327 . S
C225 C231 1.429 . S
C226 C218 1.574 . S
C226 H221 0.949 . S
C226 C232 1.368 1_565 S
C227 C211 1.349 . S
C227 H219 0.950 . S
C227 C225 1.327 . S
C228 C216 1.349 1_565 S
C228 H222 0.950 . S
C228 C229 1.327 . S
C229 H223 0.950 . S
C229 C228 1.327 . S
C229 C233 1.429 1_565 S
C230 C213 1.574 . S
C230 H224 0.949 . S
C230 C234 1.368 . S
C231 C212 1.429 1_545 S
C231 C225 1.429 . S
C231 C232 1.523 . S
C232 C213 1.368 . S
C232 C226 1.368 1_545 S
C232 C231 1.523 . S
C233 C217 1.429 . S
C233 C229 1.429 1_545 S
C233 C234 1.523 . S
C234 C218 1.368 1_545 S
C234 C230 1.368 . S
C234 C233 1.523 . S
H235 C210 0.950 . S
H236 C212 0.950 . S
H237 C213 0.949 . S
H238 C215 0.950 . S
H239 C217 0.950 . S
C240 C241 1.349 1_556 S
C240 C242 1.327 . S
C240 H265 0.950 . S
C241 C240 1.349 1_554 S
C241 C257 1.349 . S
C242 C240 1.327 . S
C242 C261 1.429 1_556 S
C242 H266 0.950 . S
C243 C260 1.574 . S
C243 C262 1.368 . S
C243 H267 0.949 . S
H244 C248 0.949 . S
C245 C246 1.349 . S
C245 C247 1.327 . S
C245 H268 0.950 . S
C246 C245 1.349 . S
C246 C258 1.349 1_554 S
C247 C245 1.327 . S
C247 C263 1.429 . S
C247 H269 0.950 . S
C248 H244 0.949 . S
C248 C256 1.574 . S
C248 C264 1.368 1_556 S
H249 C257 0.950 . S
H250 C255 0.950 . S
H251 C256 0.949 . S
H252 C258 0.950 . S
H253 C259 0.950 . S
H254 C260 0.949 . S
C255 H250 0.950 . S
C255 C257 1.327 . S
C255 C261 1.429 . S
C256 C248 1.574 . S
C256 H251 0.949 . S
C256 C262 1.368 1_556 S
C257 C241 1.349 . S
C257 H249 0.950 . S
C257 C255 1.327 . S
C258 C246 1.349 1_556 S
C258 H252 0.950 . S
C258 C259 1.327 . S
C259 H253 0.950 . S
C259 C258 1.327 . S
C259 C263 1.429 1_556 S
C260 C243 1.574 . S
C260 H254 0.949 . S
C260 C264 1.368 . S
C261 C242 1.429 1_554 S
C261 C255 1.429 . S
C261 C262 1.523 . S
C262 C243 1.368 . S
C262 C256 1.368 1_554 S
C262 C261 1.523 . S
C263 C247 1.429 . S
C263 C259 1.429 1_554 S
C263 C264 1.523 . S
C264 C248 1.368 1_554 S
C264 C260 1.368 . S
C264 C263 1.523 . S
H265 C240 0.950 . S
H266 C242 0.950 . S
H267 C243 0.949 . S
H268 C245 0.950 . S
H269 C247 0.950 . S
C270 C271 1.349 . S
C270 C272 1.327 . S
C270 H295 0.950 . S
C271 C270 1.349 . S
C271 C287 1.349 . S
C272 C270 1.327 . S
C272 C291 1.429 . S
C272 H296 0.950 . S
C273 C290 1.574 . S
C273 C292 1.368 . S
C273 H297 0.949 . S
H274 C278 0.949 . S
C275 C276 1.349 . S
C275 C277 1.327 . S
C275 H298 0.950 . S
C276 C275 1.349 . S
C276 C288 1.349 . S
C277 C275 1.327 . S
C277 C293 1.429 . S
C277 H299 0.950 . S
C278 H274 0.949 . S
C278 C286 1.574 1_455 S
C278 C294 1.368 . S
H279 C287 0.950 . S
H280 C285 0.950 . S
H281 C286 0.949 . S
H282 C288 0.950 . S
H283 C289 0.950 . S
H284 C290 0.949 . S
C285 H280 0.950 . S
C285 C287 1.327 1_455 S
C285 C291 1.429 1_455 S
C286 C278 1.574 1_655 S
C286 H281 0.949 . S
C286 C292 1.368 1_655 S
C287 C271 1.349 . S
C287 H279 0.950 . S
C287 C285 1.327 1_655 S
C288 C276 1.349 . S
C288 H282 0.950 . S
C288 C289 1.327 . S
C289 H283 0.950 . S
C289 C288 1.327 . S
C289 C293 1.429 . S
C290 C273 1.574 . S
C290 H284 0.949 . S
C290 C294 1.368 . S
C291 C272 1.429 . S
C291 C285 1.429 1_655 S
C291 C292 1.523 1_655 S
C292 C273 1.368 . S
C292 C286 1.368 1_455 S
C292 C291 1.523 1_455 S
C293 C277 1.429 . S
C293 C289 1.429 . S
C293 C294 1.523 . S
C294 C278 1.368 . S
C294 C290 1.368 . S
C294 C293 1.523 . S
H295 C270 0.950 . S
H296 C272 0.950 . S
H297 C273 0.949 . S
H298 C275 0.950 . S
H299 C277 0.950 . S
C300 C301 1.349 . S
C300 C302 1.327 . S
C300 H325 0.950 . S
C301 C300 1.349 . S
C301 C317 1.349 1_445 S
C302 C300 1.327 . S
C302 C321 1.429 . S
C302 H326 0.950 . S
C303 C320 1.574 . S
C303 C322 1.368 1_665 S
C303 H327 0.949 . S
H304 C308 0.949 . S
C305 C306 1.349 1_665 S
C305 C307 1.327 . S
C305 H328 0.950 . S
C306 C305 1.349 1_445 S
C306 C318 1.349 . S
C307 C305 1.327 . S
C307 C323 1.429 1_665 S
C307 H329 0.950 . S
C308 H304 0.949 . S
C308 C316 1.574 . S
C308 C324 1.368 . S
H309 C317 0.950 . S
H310 C315 0.950 . S
H311 C316 0.949 . S
H312 C318 0.950 . S
H313 C319 0.950 . S
H314 C320 0.949 . S
C315 H310 0.950 . S
C315 C317 1.327 . S
C315 C321 1.429 1_665 S
C316 C308 1.574 . S
C316 H311 0.949 . S
C316 C322 1.368 . S
C317 C301 1.349 1_665 S
C317 H309 0.950 . S
C317 C315 1.327 . S
C318 C306 1.349 . S
C318 H312 0.950 . S
C318 C319 1.327 . S
C319 H313 0.950 . S
C319 C318 1.327 . S
C319 C323 1.429 . S
C320 C303 1.574 . S
C320 H314 0.949 . S
C320 C324 1.368 1_665 S
C321 C302 1.429 . S
C321 C315 1.429 1_445 S
C321 C322 1.523 . S
C322 C303 1.368 1_445 S
C322 C316 1.368 . S
C322 C321 1.523 . S
C323 C307 1.429 1_445 S
C323 C319 1.429 . S
C323 C324 1.523 . S
C324 C308 1.368 . S
C324 C320 1.368 1_445 S
C324 C323 1.523 . S
H325 C300 0.950 . S
H326 C302 0.950 . S
H327 C303 0.949 . S
H328 C305 0.950 . S
H329 C307 0.950 . S
C330 C331 1.349 . S
C330 C332 1.327 . S
C330 H355 0.950 . S
C331 C330 1.349 . S
C331 C347 1.349 1_545 S
C332 C330 1.327 . S
C332 C351 1.429 . S
C332 H356 0.950 . S
C333 C350 1.574 . S
C333 C352 1.368 1_565 S
C333 H357 0.949 . S
H334 C338 0.949 . S
C335 C336 1.349 1_565 S
C335 C337 1.327 . S
C335 H358 0.950 . S
C336 C335 1.349 1_545 S
C336 C348 1.349 . S
C337 C335 1.327 . S
C337 C353 1.429 1_565 S
C337 H359 0.950 . S
C338 H334 0.949 . S
C338 C346 1.574 . S
C338 C354 1.368 . S
H339 C347 0.950 . S
H340 C345 0.950 . S
H341 C346 0.949 . S
H342 C348 0.950 . S
H343 C349 0.950 . S
H344 C350 0.949 . S
C345 H340 0.950 . S
C345 C347 1.327 . S
C345 C351 1.429 1_565 S
C346 C338 1.574 . S
C346 H341 0.949 . S
C346 C352 1.368 . S
C347 C331 1.349 1_565 S
C347 H339 0.950 . S
C347 C345 1.327 . S
C348 C336 1.349 . S
C348 H342 0.950 . S
C348 C349 1.327 . S
C349 H343 0.950 . S
C349 C348 1.327 . S
C349 C353 1.429 . S
C350 C333 1.574 . S
C350 H344 0.949 . S
C350 C354 1.368 1_565 S
C351 C332 1.429 . S
C351 C345 1.429 1_545 S
C351 C352 1.523 . S
C352 C333 1.368 1_545 S
C352 C346 1.368 . S
C352 C351 1.523 . S
C353 C337 1.429 1_545 S
C353 C349 1.429 . S
C353 C354 1.523 . S
C354 C338 1.368 . S
C354 C350 1.368 1_545 S
C354 C353 1.523 . S
H355 C330 0.950 . S
H356 C332 0.950 . S
H357 C333 0.949 . S
H358 C335 0.950 . S
H359 C337 0.950 . S
C360 C361 1.349 1_565 S
C360 C362 1.327 . S
C360 H385 0.950 . S
C361 C360 1.349 1_545 S
C361 C377 1.349 . S
C362 C360 1.327 . S
C362 C381 1.429 1_565 S
C362 H386 0.950 . S
C363 C380 1.574 . S
C363 C382 1.368 . S
C363 H387 0.949 . S
H364 C368 0.949 . S
C365 C366 1.349 . S
C365 C367 1.327 . S
C365 H388 0.950 1_455 S
C366 C365 1.349 . S
C366 C378 1.349 1_545 S
C367 C365 1.327 . S
C367 C383 1.429 . S
C367 H389 0.950 1_455 S
C368 H364 0.949 . S
C368 C376 1.574 . S
C368 C384 1.368 1_565 S
H369 C377 0.950 . S
H370 C375 0.950 . S
H371 C376 0.949 . S
H372 C378 0.950 . S
H373 C379 0.950 . S
H374 C380 0.949 . S
C375 H370 0.950 . S
C375 C377 1.327 . S
C375 C381 1.429 . S
C376 C368 1.574 . S
C376 H371 0.949 . S
C376 C382 1.368 1_565 S
C377 C361 1.349 . S
C377 H369 0.950 . S
C377 C375 1.327 . S
C378 C366 1.349 1_565 S
C378 H372 0.950 . S
C378 C379 1.327 . S
C379 H373 0.950 . S
C379 C378 1.327 . S
C379 C383 1.429 1_565 S
C380 C363 1.574 . S
C380 H374 0.949 . S
C380 C384 1.368 . S
C381 C362 1.429 1_545 S
C381 C375 1.429 . S
C381 C382 1.523 . S
C382 C363 1.368 . S
C382 C376 1.368 1_545 S
C382 C381 1.523 . S
C383 C367 1.429 . S
C383 C379 1.429 1_545 S
C383 C384 1.523 . S
C384 C368 1.368 1_545 S
C384 C380 1.368 . S
C384 C383 1.523 . S
H385 C360 0.950 . S
H386 C362 0.950 . S
H387 C363 0.949 . S
H388 C365 0.950 1_655 S
H389 C367 0.950 1_655 S
C121 C10 4.852 1_455 S
C126 C19 4.852 . S
C151 C59 3.021 . S
C156 C50 3.021 . S
C181 C86 0.572 . S
C186 C95 0.572 . S
C211 C90 2.979 . S
C216 C99 2.979 . S
C241 C15 0.595 . S
C246 C6 0.595 . S
C271 C46 0.877 . S
C276 C55 0.877 . S
C301 C58 1.454 . S
C306 C9 1.446 . S
C331 C49 1.462 . S
C336 C89 1.459 1_545 S
C361 C98 1.453 . S
C366 C18 1.464 1_455 S
