# Generated by pormake.
# Topology wgp, (5)-cn, num edge types: 1
# Building blocks:
#     Node 0, Type 0, BuildingBlock: XOMCOT_clean_sbu_0, # of connection points: 5
#     Node 1, Type 0, BuildingBlock: XOMCOT_clean_sbu_0, # of connection points: 5
#     Node 2, Type 0, BuildingBlock: XOMCOT_clean_sbu_0, # of connection points: 5
#     Node 3, Type 0, BuildingBlock: XOMCOT_clean_sbu_0, # of connection points: 5
#     Node 4, Type 0, BuildingBlock: XOMCOT_clean_sbu_0, # of connection points: 5
#     Node 5, Type 0, BuildingBlock: XOMCOT_clean_sbu_0, # of connection points: 5
#     Node 6, Type 0, BuildingBlock: XOMCOT_clean_sbu_0, # of connection points: 5
#     Node 7, Type 0, BuildingBlock: XOMCOT_clean_sbu_0, # of connection points: 5
#     Node 8, Type 0, BuildingBlock: XOMCOT_clean_sbu_0, # of connection points: 5
#     Node 9, Type 0, BuildingBlock: XOMCOT_clean_sbu_0, # of connection points: 5
#     Node 10, Type 0, BuildingBlock: XOMCOT_clean_sbu_0, # of connection points: 5
#     Node 11, Type 0, BuildingBlock: XOMCOT_clean_sbu_0, # of connection points: 5
#     Node 12, Type 0, BuildingBlock: XOMCOT_clean_sbu_0, # of connection points: 5
#     Node 13, Type 0, BuildingBlock: XOMCOT_clean_sbu_0, # of connection points: 5
#     Node 14, Type 0, BuildingBlock: XOMCOT_clean_sbu_0, # of connection points: 5
#     Node 15, Type 0, BuildingBlock: XOMCOT_clean_sbu_0, # of connection points: 5
#     Node 16, Type 0, BuildingBlock: XOMCOT_clean_sbu_0, # of connection points: 5
#     Node 17, Type 0, BuildingBlock: XOMCOT_clean_sbu_0, # of connection points: 5
#     Node 18, Type 0, BuildingBlock: XOMCOT_clean_sbu_0, # of connection points: 5
#     Node 19, Type 0, BuildingBlock: XOMCOT_clean_sbu_0, # of connection points: 5
#     Node 20, Type 0, BuildingBlock: XOMCOT_clean_sbu_0, # of connection points: 5
#     Node 21, Type 0, BuildingBlock: XOMCOT_clean_sbu_0, # of connection points: 5
#     Node 22, Type 0, BuildingBlock: XOMCOT_clean_sbu_0, # of connection points: 5
#     Node 23, Type 0, BuildingBlock: XOMCOT_clean_sbu_0, # of connection points: 5
#     Node 24, Type 0, BuildingBlock: XOMCOT_clean_sbu_0, # of connection points: 5
#     Node 25, Type 0, BuildingBlock: XOMCOT_clean_sbu_0, # of connection points: 5
#     Node 26, Type 0, BuildingBlock: XOMCOT_clean_sbu_0, # of connection points: 5
#     Node 27, Type 0, BuildingBlock: XOMCOT_clean_sbu_0, # of connection points: 5
#     Node 28, Type 0, BuildingBlock: XOMCOT_clean_sbu_0, # of connection points: 5
#     Node 29, Type 0, BuildingBlock: XOMCOT_clean_sbu_0, # of connection points: 5
#     Node 30, Type 0, BuildingBlock: XOMCOT_clean_sbu_0, # of connection points: 5
#     Node 31, Type 0, BuildingBlock: XOMCOT_clean_sbu_0, # of connection points: 5
#     Edge 32, Type (0, 0), BuildingBlock: CIFDUS_clean_linker_0, # of connection points: 2
#     Edge 33, Type (0, 0), BuildingBlock: CIFDUS_clean_linker_0, # of connection points: 2
#     Edge 34, Type (0, 0), BuildingBlock: CIFDUS_clean_linker_0, # of connection points: 2
#     Edge 35, Type (0, 0), BuildingBlock: CIFDUS_clean_linker_0, # of connection points: 2
#     Edge 36, Type (0, 0), BuildingBlock: CIFDUS_clean_linker_0, # of connection points: 2
#     Edge 37, Type (0, 0), BuildingBlock: CIFDUS_clean_linker_0, # of connection points: 2
#     Edge 38, Type (0, 0), BuildingBlock: CIFDUS_clean_linker_0, # of connection points: 2
#     Edge 39, Type (0, 0), BuildingBlock: CIFDUS_clean_linker_0, # of connection points: 2
#     Edge 40, Type (0, 0), BuildingBlock: CIFDUS_clean_linker_0, # of connection points: 2
#     Edge 41, Type (0, 0), BuildingBlock: CIFDUS_clean_linker_0, # of connection points: 2
#     Edge 42, Type (0, 0), BuildingBlock: CIFDUS_clean_linker_0, # of connection points: 2
#     Edge 43, Type (0, 0), BuildingBlock: CIFDUS_clean_linker_0, # of connection points: 2
#     Edge 44, Type (0, 0), BuildingBlock: CIFDUS_clean_linker_0, # of connection points: 2
#     Edge 45, Type (0, 0), BuildingBlock: CIFDUS_clean_linker_0, # of connection points: 2
#     Edge 46, Type (0, 0), BuildingBlock: CIFDUS_clean_linker_0, # of connection points: 2
#     Edge 47, Type (0, 0), BuildingBlock: CIFDUS_clean_linker_0, # of connection points: 2
#     Edge 48, Type (0, 0), BuildingBlock: CIFDUS_clean_linker_0, # of connection points: 2
#     Edge 49, Type (0, 0), BuildingBlock: CIFDUS_clean_linker_0, # of connection points: 2
#     Edge 50, Type (0, 0), BuildingBlock: CIFDUS_clean_linker_0, # of connection points: 2
#     Edge 51, Type (0, 0), BuildingBlock: CIFDUS_clean_linker_0, # of connection points: 2
#     Edge 52, Type (0, 0), BuildingBlock: CIFDUS_clean_linker_0, # of connection points: 2
#     Edge 53, Type (0, 0), BuildingBlock: CIFDUS_clean_linker_0, # of connection points: 2
#     Edge 54, Type (0, 0), BuildingBlock: CIFDUS_clean_linker_0, # of connection points: 2
#     Edge 55, Type (0, 0), BuildingBlock: CIFDUS_clean_linker_0, # of connection points: 2
#     Edge 56, Type (0, 0), BuildingBlock: CIFDUS_clean_linker_0, # of connection points: 2
#     Edge 57, Type (0, 0), BuildingBlock: CIFDUS_clean_linker_0, # of connection points: 2
#     Edge 58, Type (0, 0), BuildingBlock: CIFDUS_clean_linker_0, # of connection points: 2
#     Edge 59, Type (0, 0), BuildingBlock: CIFDUS_clean_linker_0, # of connection points: 2
#     Edge 60, Type (0, 0), BuildingBlock: CIFDUS_clean_linker_0, # of connection points: 2
#     Edge 61, Type (0, 0), BuildingBlock: CIFDUS_clean_linker_0, # of connection points: 2
#     Edge 62, Type (0, 0), BuildingBlock: CIFDUS_clean_linker_0, # of connection points: 2
#     Edge 63, Type (0, 0), BuildingBlock: CIFDUS_clean_linker_0, # of connection points: 2
#     Edge 64, Type (0, 0), BuildingBlock: CIFDUS_clean_linker_0, # of connection points: 2
#     Edge 65, Type (0, 0), BuildingBlock: CIFDUS_clean_linker_0, # of connection points: 2
#     Edge 66, Type (0, 0), BuildingBlock: CIFDUS_clean_linker_0, # of connection points: 2
#     Edge 67, Type (0, 0), BuildingBlock: CIFDUS_clean_linker_0, # of connection points: 2
#     Edge 68, Type (0, 0), BuildingBlock: CIFDUS_clean_linker_0, # of connection points: 2
#     Edge 69, Type (0, 0), BuildingBlock: CIFDUS_clean_linker_0, # of connection points: 2
#     Edge 70, Type (0, 0), BuildingBlock: CIFDUS_clean_linker_0, # of connection points: 2
#     Edge 71, Type (0, 0), BuildingBlock: CIFDUS_clean_linker_0, # of connection points: 2
#     Edge 72, Type (0, 0), BuildingBlock: CIFDUS_clean_linker_0, # of connection points: 2
#     Edge 73, Type (0, 0), BuildingBlock: CIFDUS_clean_linker_0, # of connection points: 2
#     Edge 74, Type (0, 0), BuildingBlock: CIFDUS_clean_linker_0, # of connection points: 2
#     Edge 75, Type (0, 0), BuildingBlock: CIFDUS_clean_linker_0, # of connection points: 2
#     Edge 76, Type (0, 0), BuildingBlock: CIFDUS_clean_linker_0, # of connection points: 2
#     Edge 77, Type (0, 0), BuildingBlock: CIFDUS_clean_linker_0, # of connection points: 2
#     Edge 78, Type (0, 0), BuildingBlock: CIFDUS_clean_linker_0, # of connection points: 2
#     Edge 79, Type (0, 0), BuildingBlock: CIFDUS_clean_linker_0, # of connection points: 2
#     Edge 80, Type (0, 0), BuildingBlock: CIFDUS_clean_linker_0, # of connection points: 2
#     Edge 81, Type (0, 0), BuildingBlock: CIFDUS_clean_linker_0, # of connection points: 2
#     Edge 82, Type (0, 0), BuildingBlock: CIFDUS_clean_linker_0, # of connection points: 2
#     Edge 83, Type (0, 0), BuildingBlock: CIFDUS_clean_linker_0, # of connection points: 2
#     Edge 84, Type (0, 0), BuildingBlock: CIFDUS_clean_linker_0, # of connection points: 2
#     Edge 85, Type (0, 0), BuildingBlock: CIFDUS_clean_linker_0, # of connection points: 2
#     Edge 86, Type (0, 0), BuildingBlock: CIFDUS_clean_linker_0, # of connection points: 2
#     Edge 87, Type (0, 0), BuildingBlock: CIFDUS_clean_linker_0, # of connection points: 2
#     Edge 88, Type (0, 0), BuildingBlock: CIFDUS_clean_linker_0, # of connection points: 2
#     Edge 89, Type (0, 0), BuildingBlock: CIFDUS_clean_linker_0, # of connection points: 2
#     Edge 90, Type (0, 0), BuildingBlock: CIFDUS_clean_linker_0, # of connection points: 2
#     Edge 91, Type (0, 0), BuildingBlock: CIFDUS_clean_linker_0, # of connection points: 2
#     Edge 92, Type (0, 0), BuildingBlock: CIFDUS_clean_linker_0, # of connection points: 2
#     Edge 93, Type (0, 0), BuildingBlock: CIFDUS_clean_linker_0, # of connection points: 2
#     Edge 94, Type (0, 0), BuildingBlock: CIFDUS_clean_linker_0, # of connection points: 2
#     Edge 95, Type (0, 0), BuildingBlock: CIFDUS_clean_linker_0, # of connection points: 2
#     Edge 96, Type (0, 0), BuildingBlock: CIFDUS_clean_linker_0, # of connection points: 2
#     Edge 97, Type (0, 0), BuildingBlock: CIFDUS_clean_linker_0, # of connection points: 2
#     Edge 98, Type (0, 0), BuildingBlock: CIFDUS_clean_linker_0, # of connection points: 2
#     Edge 99, Type (0, 0), BuildingBlock: CIFDUS_clean_linker_0, # of connection points: 2
#     Edge 100, Type (0, 0), BuildingBlock: CIFDUS_clean_linker_0, # of connection points: 2
#     Edge 101, Type (0, 0), BuildingBlock: CIFDUS_clean_linker_0, # of connection points: 2
#     Edge 102, Type (0, 0), BuildingBlock: CIFDUS_clean_linker_0, # of connection points: 2
#     Edge 103, Type (0, 0), BuildingBlock: CIFDUS_clean_linker_0, # of connection points: 2
#     Edge 104, Type (0, 0), BuildingBlock: CIFDUS_clean_linker_0, # of connection points: 2
#     Edge 105, Type (0, 0), BuildingBlock: CIFDUS_clean_linker_0, # of connection points: 2
#     Edge 106, Type (0, 0), BuildingBlock: CIFDUS_clean_linker_0, # of connection points: 2
#     Edge 107, Type (0, 0), BuildingBlock: CIFDUS_clean_linker_0, # of connection points: 2
#     Edge 108, Type (0, 0), BuildingBlock: CIFDUS_clean_linker_0, # of connection points: 2
#     Edge 109, Type (0, 0), BuildingBlock: CIFDUS_clean_linker_0, # of connection points: 2
#     Edge 110, Type (0, 0), BuildingBlock: CIFDUS_clean_linker_0, # of connection points: 2
#     Edge 111, Type (0, 0), BuildingBlock: CIFDUS_clean_linker_0, # of connection points: 2
# Relax obj value: 0.162
# Max RMSD: 0.189
# Mean RMSD: 0.189
data_MOF--net-wgp--node1-XOMCOT_clean_sbu_0--edge1-CIFDUS_clean_linker_0
_symmetry_space_group_name_H-M    P1
_symmetry_Int_Tables_number       1
_symmetry_cell_setting            triclinic
loop_
_symmetry_equiv_pos_as_xyz
'x, y, z'
_cell_length_a     30.589207
_cell_length_b     30.625376
_cell_length_c     103.60248
_cell_angle_alpha  90.091747
_cell_angle_beta   90.013125
_cell_angle_gamma 90.026738
loop_
_atom_site_label
_atom_site_type_symbol
_atom_site_fract_x
_atom_site_fract_y
_atom_site_fract_z
_atom_type_partial_charge
Co0 Co 0.3022 0.17988 0.09174 0.0
C1 C 0.31803 0.08866 0.08471 0.0
C2 C 0.36516 0.11138 0.09853 0.0
C3 C 0.36833 0.0665 0.09763 0.0
N4 N 0.3334 0.12513 0.09048 0.0
N5 N 0.3387 0.05257 0.08892 0.0
H6 H 0.28954 0.08811 0.0785 0.0
H7 H 0.38193 0.13197 0.10543 0.0
C8 C 0.38285 0.23603 0.08508 0.0
O9 O 0.36613 0.24854 0.07402 0.0
N10 N 0.26875 0.23458 0.0936 0.0
C11 C 0.22716 0.23636 0.09802 0.0
C12 C 0.21282 0.27843 0.09807 0.0
C13 C 0.27886 0.27696 0.091 0.0
N14 N 0.24484 0.3043 0.09354 0.0
C15 C 0.26003 0.19494 0.06727 0.0
C16 C 0.32817 0.16714 0.05181 0.0
C17 C 0.28901 0.1802 0.04583 0.0
C18 C 0.2548 0.1945 0.05384 0.0
C19 C 0.33232 0.16886 0.06526 0.0
N20 N 0.29867 0.1831 0.07287 0.0
H21 H 0.23247 0.20412 0.07317 0.0
H22 H 0.36276 0.15846 0.06958 0.0
H23 H 0.20723 0.20913 0.10097 0.0
H24 H 0.30983 0.28778 0.08724 0.0
O25 O 0.24963 0.14584 0.095 0.0
O26 O 0.29551 0.16949 0.11002 0.0
O27 O 0.36071 0.21179 0.09276 0.0
C28 C 0.26063 0.1471 0.10716 0.0
H29 H 0.38904 0.04553 0.10339 0.0
H30 H 0.18102 0.28904 0.10139 0.0
H31 H 0.35534 0.15477 0.04621 0.0
H32 H 0.22398 0.2053 0.04984 0.0
Co33 Co 0.11438 0.04669 0.3354 0.0
C34 C 0.2105 0.05868 0.33945 0.0
C35 C 0.17651 0.11983 0.34005 0.0
C36 C 0.2206 0.12769 0.34132 0.0
N37 N 0.1699 0.07645 0.3388 0.0
N38 N 0.24204 0.08926 0.34087 0.0
H39 H 0.21729 0.02428 0.33822 0.0
H40 H 0.15154 0.14468 0.33966 0.0
C41 C 0.04511 0.12124 0.33603 0.0
O42 O 0.01388 0.09718 0.33103 0.0
N43 N 0.06023 0.01533 0.33189 0.0
C44 C 0.05601 0.98635 0.32215 0.0
C45 C 0.01665 0.9653 0.32323 0.0
C46 C 0.02338 0.01049 0.33905 0.0
N47 N 0.99603 0.98051 0.33378 0.0
C48 C 0.15829 0.03566 0.31141 0.0
C49 C 0.09434 0.07021 0.29564 0.0
C50 C 0.12927 0.04755 0.28996 0.0
C51 C 0.16221 0.03144 0.29805 0.0
C52 C 0.09189 0.07409 0.3091 0.0
N53 N 0.12289 0.05561 0.31687 0.0
H54 H 0.18256 0.02014 0.31737 0.0
H55 H 0.06356 0.08943 0.31312 0.0
H56 H 0.08064 0.97971 0.31493 0.0
H57 H 0.01716 0.02769 0.348 0.0
O58 O 0.14306 0.99075 0.33679 0.0
O59 O 0.11365 0.02644 0.35321 0.0
O60 O 0.08348 0.10547 0.33784 0.0
C61 C 0.13549 0.99255 0.34911 0.0
H62 H 0.23574 0.15951 0.34219 0.0
H63 H 1.00414 0.94037 0.31679 0.0
H64 H 0.06838 0.08367 0.28975 0.0
H65 H 0.18959 0.01329 0.29416 0.0
Co66 Co 0.21511 0.85565 0.58716 0.0
C67 C 0.20222 0.95236 0.58818 0.0
C68 C 0.15149 0.91787 0.59807 0.0
C69 C 0.1448 0.96199 0.59974 0.0
N70 N 0.18669 0.91166 0.59042 0.0
N71 N 0.17692 0.98356 0.59356 0.0
H72 H 0.23235 0.9595 0.58328 0.0
H73 H 0.13275 0.89204 0.60255 0.0
C74 C 0.12207 0.84066 0.58013 0.0
O75 O 0.12691 0.87728 0.57368 0.0
N76 N 0.24516 0.80078 0.58432 0.0
C77 C 0.281 0.79716 0.57683 0.0
C78 C 0.29476 0.75466 0.57684 0.0
C79 C 0.23799 0.76021 0.58905 0.0
N80 N 0.26788 0.73132 0.58448 0.0
C81 C 0.24076 0.89569 0.5632 0.0
C82 C 0.20361 0.83435 0.54701 0.0
C83 C 0.22909 0.86772 0.54159 0.0
C84 C 0.24761 0.89867 0.54993 0.0
C85 C 0.19773 0.83246 0.5604 0.0
N86 N 0.21505 0.86374 0.56837 0.0
H87 H 0.2593 0.91717 0.56929 0.0
H88 H 0.18095 0.80451 0.56436 0.0
H89 H 0.29634 0.82387 0.57173 0.0
H90 H 0.21163 0.75202 0.59558 0.0
O91 O 0.27068 0.88251 0.5907 0.0
O92 O 0.22863 0.85315 0.60567 0.0
O93 O 0.15476 0.82544 0.58656 0.0
C94 C 0.26445 0.87434 0.60282 0.0
H95 H 0.11934 0.97697 0.60549 0.0
H96 H 0.32309 0.74198 0.57181 0.0
H97 H 0.18912 0.80922 0.54101 0.0
H98 H 0.26937 0.92376 0.54632 0.0
Co99 Co 0.4234 0.97104 0.84196 0.0
C100 C 0.3281 0.96661 0.8408 0.0
C101 C 0.35369 0.91094 0.85083 0.0
C102 C 0.30855 0.91002 0.85154 0.0
N103 N 0.3657 0.94643 0.84405 0.0
N104 N 0.29261 0.94535 0.84532 0.0
H105 H 0.32691 0.99712 0.83558 0.0
H106 H 0.37606 0.88853 0.85545 0.0
C107 C 0.48097 0.8911 0.83602 0.0
O108 O 0.50371 0.91267 0.82737 0.0
N109 N 0.48072 0.9981 0.83985 0.0
C110 C 0.48687 0.03725 0.83417 0.0
C111 C 0.52936 0.04997 0.83567 0.0
C112 C 0.52024 0.98796 0.84504 0.0
N113 N 0.5505 0.01928 0.84252 0.0
C114 C 0.40051 0.01149 0.81789 0.0
C115 C 0.41069 0.93983 0.80204 0.0
C116 C 0.40152 0.98046 0.79634 0.0
C117 C 0.39501 0.01618 0.80459 0.0
C118 C 0.41538 0.93651 0.81548 0.0
N119 N 0.41338 0.97274 0.8232 0.0
H120 H 0.39417 0.03951 0.82389 0.0
H121 H 0.41994 0.90453 0.81954 0.0
H122 H 0.46192 0.05694 0.82975 0.0
H123 H 0.52636 0.9593 0.85086 0.0
O124 O 0.39944 0.02763 0.84674 0.0
O125 O 0.42679 0.97992 0.86049 0.0
O126 O 0.44893 0.90957 0.84183 0.0
C127 C 0.4074 0.01718 0.85867 0.0
H128 H 0.28917 0.88632 0.85676 0.0
H129 H 0.54361 0.07997 0.8321 0.0
H130 H 0.41471 0.91078 0.7962 0.0
H131 H 0.38531 0.04771 0.80085 0.0
Co132 Co 0.29826 0.83417 0.42097 0.0
C133 C 0.31407 0.93055 0.42112 0.0
C134 C 0.3625 0.89592 0.41028 0.0
C135 C 0.3691 0.94001 0.4086 0.0
N136 N 0.32879 0.88966 0.41848 0.0
N137 N 0.33841 0.96178 0.41535 0.0
H138 H 0.28469 0.93769 0.42644 0.0
H139 H 0.37952 0.8702 0.40519 0.0
C140 C 0.39294 0.81127 0.42528 0.0
O141 O 0.39593 0.84745 0.43206 0.0
N142 N 0.26632 0.77986 0.42305 0.0
C143 C 0.22826 0.77643 0.42951 0.0
C144 C 0.21355 0.73418 0.42867 0.0
C145 C 0.27452 0.73931 0.4184 0.0
N146 N 0.24242 0.71075 0.42168 0.0
C147 C 0.27625 0.86964 0.44573 0.0
C148 C 0.31555 0.80577 0.46048 0.0
C149 C 0.29008 0.83761 0.46672 0.0
C150 C 0.27055 0.86993 0.45908 0.0
C151 C 0.31985 0.80629 0.44702 0.0
N152 N 0.30115 0.8386 0.43978 0.0
H153 H 0.2577 0.89271 0.44018 0.0
H154 H 0.33631 0.77922 0.44246 0.0
H155 H 0.21216 0.80302 0.43447 0.0
H156 H 0.30272 0.73107 0.41258 0.0
O157 O 0.24368 0.86434 0.4184 0.0
O158 O 0.28312 0.83576 0.40265 0.0
O159 O 0.35613 0.80045 0.42018 0.0
C160 C 0.24881 0.85827 0.40611 0.0
H161 H 0.39302 0.95483 0.40227 0.0
H162 H 0.18399 0.7215 0.43302 0.0
H163 H 0.33114 0.77984 0.46587 0.0
H164 H 0.24887 0.89408 0.46324 0.0
Co165 Co 0.41261 0.04227 0.67544 0.0
C166 C 0.31733 0.05427 0.67014 0.0
C167 C 0.34827 0.114 0.6759 0.0
C168 C 0.30432 0.12169 0.67425 0.0
N169 N 0.35667 0.07173 0.67322 0.0
N170 N 0.28483 0.08407 0.67064 0.0
H171 H 0.3121 0.0203 0.66785 0.0
H172 H 0.37199 0.13746 0.67934 0.0
C173 C 0.4797 0.11914 0.6739 0.0
O174 O 0.51285 0.09638 0.67828 0.0
N175 N 0.46754 0.01146 0.67798 0.0
C176 C 0.47385 0.9828 0.68766 0.0
C177 C 0.51477 0.96514 0.68662 0.0
C178 C 0.50441 0.00917 0.67074 0.0
N179 N 0.53439 0.98196 0.67609 0.0
C180 C 0.37233 0.03143 0.70011 0.0
C181 C 0.43841 0.06764 0.71482 0.0
C182 C 0.40377 0.04661 0.72118 0.0
C183 C 0.36993 0.0292 0.7136 0.0
C184 C 0.43947 0.06926 0.70133 0.0
N185 N 0.40724 0.05041 0.69411 0.0
H186 H 0.34679 0.01632 0.69445 0.0
H187 H 0.46763 0.08332 0.69684 0.0
H188 H 0.44998 0.97477 0.69498 0.0
H189 H 0.50959 0.02773 0.66199 0.0
O190 O 0.38415 0.98587 0.67397 0.0
O191 O 0.41088 0.02341 0.65754 0.0
O192 O 0.44169 0.10184 0.67276 0.0
C193 C 0.3901 0.98883 0.66156 0.0
H194 H 0.2878 0.15227 0.67614 0.0
H195 H 0.52886 0.94122 0.69308 0.0
H196 H 0.46571 0.08106 0.72018 0.0
H197 H 0.34208 0.01331 0.71801 0.0
Co198 Co 0.21913 0.17693 0.92475 0.0
C199 C 0.19709 0.08327 0.92698 0.0
C200 C 0.16601 0.11278 0.91066 0.0
C201 C 0.16153 0.06806 0.90966 0.0
N202 N 0.18849 0.12238 0.92154 0.0
N203 N 0.18113 0.04983 0.91995 0.0
H204 H 0.2179 0.07853 0.93523 0.0
H205 H 0.15649 0.13643 0.90345 0.0
C206 C 0.12289 0.19767 0.92679 0.0
O207 O 0.11699 0.15838 0.93154 0.0
N208 N 0.25191 0.22998 0.92767 0.0
C209 C 0.28862 0.2318 0.93485 0.0
C210 C 0.30826 0.27152 0.93308 0.0
C211 C 0.24966 0.26889 0.92154 0.0
N212 N 0.284 0.29472 0.9247 0.0
C213 C 0.24657 0.14254 0.94938 0.0
C214 C 0.19318 0.19368 0.96467 0.0
C215 C 0.22379 0.16642 0.97065 0.0
C216 C 0.25072 0.14064 0.96283 0.0
C217 C 0.19076 0.19537 0.95117 0.0
N218 N 0.21644 0.16914 0.94359 0.0
H219 H 0.2692 0.12382 0.94361 0.0
H220 H 0.16973 0.21969 0.94701 0.0
H221 H 0.30172 0.20517 0.94046 0.0
H222 H 0.22503 0.27714 0.91445 0.0
O223 O 0.27359 0.1465 0.92097 0.0
O224 O 0.23259 0.18006 0.9065 0.0
O225 O 0.16174 0.21118 0.92423 0.0
C226 C 0.2671 0.15669 0.90893 0.0
H227 H 0.14687 0.05027 0.90172 0.0
H228 H 0.33872 0.28224 0.93737 0.0
H229 H 0.17268 0.21516 0.97036 0.0
H230 H 0.27526 0.11957 0.96706 0.0
Co231 Co 0.09097 0.95726 0.17044 0.0
C232 C 0.18523 0.9381 0.17368 0.0
C233 C 0.15831 0.9051 0.1573 0.0
C234 C 0.20335 0.90308 0.15653 0.0
N235 N 0.14676 0.92745 0.16803 0.0
N236 N 0.22 0.92394 0.16686 0.0
H237 H 0.18855 0.9592 0.18192 0.0
H238 H 0.13567 0.89433 0.14993 0.0
C239 C 0.07061 0.86088 0.17369 0.0
O240 O 0.11086 0.85475 0.17768 0.0
N241 N 0.03681 0.98917 0.17262 0.0
C242 C 0.03397 0.02747 0.17896 0.0
C243 C 0.99202 0.04271 0.17812 0.0
C244 C 0.99621 0.98159 0.1679 0.0
N245 N 0.96816 0.01422 0.17111 0.0
C246 C 0.12365 0.9908 0.19443 0.0
C247 C 0.07243 0.94134 0.21072 0.0
C248 C 0.09886 0.97424 0.21608 0.0
C249 C 0.1249 0.99881 0.20768 0.0
C250 C 0.07194 0.93451 0.19733 0.0
N251 N 0.09793 0.95863 0.18928 0.0
H252 H 0.14223 0.01223 0.18828 0.0
H253 H 0.04878 0.91131 0.19356 0.0
H254 H 0.06084 0.04381 0.18371 0.0
H255 H 0.98772 0.95363 0.16201 0.0
O256 O 0.12048 0.01125 0.1662 0.0
O257 O 0.08907 0.96789 0.1519 0.0
O258 O 0.05739 0.89949 0.1708 0.0
C259 C 0.11199 1.00292 0.15418 0.0
H260 H 0.22235 0.88931 0.14871 0.0
H261 H 0.98 0.07262 0.18242 0.0
H262 H 0.05142 0.9216 0.21677 0.0
H263 H 0.1447 0.02563 0.21118 0.0
Co264 Co 0.7138 0.83978 0.91835 0.0
C265 C 0.69757 0.93553 0.91683 0.0
C266 C 0.6523 0.89895 0.90535 0.0
C267 C 0.64608 0.94271 0.90292 0.0
N268 N 0.68385 0.89429 0.91435 0.0
N269 N 0.67485 0.96565 0.91008 0.0
H270 H 0.72505 0.94363 0.92286 0.0
H271 H 0.63654 0.87224 0.90033 0.0
C272 C 0.61813 0.81929 0.92242 0.0
O273 O 0.61389 0.85796 0.92778 0.0
N274 N 0.74511 0.78624 0.92196 0.0
C275 C 0.77867 0.78268 0.93031 0.0
C276 C 0.79365 0.74045 0.93017 0.0
C277 C 0.7406 0.74616 0.91661 0.0
N278 N 0.76984 0.71745 0.92157 0.0
C279 C 0.73835 0.88175 0.9422 0.0
C280 C 0.69254 0.82701 0.95848 0.0
C281 C 0.71971 0.85899 0.96391 0.0
C282 C 0.74269 0.88664 0.95557 0.0
C283 C 0.68951 0.82288 0.94505 0.0
N284 N 0.71129 0.85083 0.937 0.0
H285 H 0.75916 0.90114 0.93611 0.0
H286 H 0.67161 0.7954 0.94126 0.0
H287 H 0.7919 0.80918 0.936 0.0
H288 H 0.7166 0.73823 0.90929 0.0
O289 O 0.7688 0.8683 0.91438 0.0
O290 O 0.72716 0.83404 0.90014 0.0
O291 O 0.65584 0.80642 0.9185 0.0
C292 C 0.76203 0.85722 0.90242 0.0
H293 H 0.6238 0.95642 0.89589 0.0
H294 H 0.82088 0.72789 0.93571 0.0
H295 H 0.67543 0.80386 0.96455 0.0
H296 H 0.7647 0.9113 0.95932 0.0
Co297 Co 0.91343 0.95985 0.6706 0.0
C298 C 0.82023 0.93828 0.67462 0.0
C299 C 0.84632 0.90538 0.65811 0.0
C300 C 0.80134 0.90126 0.65791 0.0
N301 N 0.85827 0.92876 0.66861 0.0
N302 N 0.78517 0.92209 0.66832 0.0
H303 H 0.81737 0.95989 0.68278 0.0
H304 H 0.86846 0.89494 0.65058 0.0
C305 C 0.93652 0.86373 0.67329 0.0
O306 O 0.89708 0.85621 0.67776 0.0
N307 N 0.9669 0.99293 0.67239 0.0
C308 C 0.96871 0.03346 0.67744 0.0
C309 C 0.01095 0.04816 0.6769 0.0
C310 C 0.00838 0.98324 0.66889 0.0
N311 N 0.03591 0.01678 0.67151 0.0
C312 C 0.88351 0.99276 0.69508 0.0
C313 C 0.93814 0.94369 0.7105 0.0
C314 C 0.91264 0.97634 0.71632 0.0
C315 C 0.88461 1.00059 0.70839 0.0
C316 C 0.93613 0.93694 0.69714 0.0
N317 N 0.90858 0.9609 0.68951 0.0
H318 H 0.86368 0.01398 0.6892 0.0
H319 H 0.95886 0.91404 0.69303 0.0
H320 H 0.94106 0.05129 0.68123 0.0
H321 H 0.01808 0.95286 0.66439 0.0
O322 O 0.88231 0.01344 0.66643 0.0
O323 O 0.91398 0.9703 0.65213 0.0
O324 O 0.94831 0.90287 0.67051 0.0
C325 C 0.89118 1.00533 0.6544 0.0
H326 H 0.78199 0.88589 0.65043 0.0
H327 H 0.0226 0.07938 0.68041 0.0
H328 H 0.9605 0.92413 0.71617 0.0
H329 H 0.86516 0.02701 0.7123 0.0
Co330 Co 0.79372 0.1638 0.42069 0.0
C331 C 0.81281 0.06819 0.42128 0.0
C332 C 0.85936 0.10345 0.40995 0.0
C333 C 0.86745 0.05945 0.40857 0.0
N334 N 0.82586 0.10926 0.41826 0.0
N335 N 0.8379 0.03731 0.41564 0.0
H336 H 0.78408 0.0605 0.42682 0.0
H337 H 0.87527 0.12931 0.40463 0.0
C338 C 0.88796 0.18947 0.42464 0.0
O339 O 0.89218 0.15392 0.43161 0.0
N340 N 0.7603 0.21715 0.42279 0.0
C341 C 0.72151 0.21924 0.4289 0.0
C342 C 0.70715 0.26166 0.42886 0.0
C343 C 0.76931 0.25867 0.41917 0.0
N344 N 0.737 0.28657 0.42274 0.0
C345 C 0.77142 0.12902 0.44542 0.0
C346 C 0.80685 0.19553 0.46011 0.0
C347 C 0.78015 0.1644 0.46612 0.0
C348 C 0.76323 0.13036 0.45864 0.0
C349 C 0.81402 0.19318 0.44675 0.0
N350 N 0.79659 0.15996 0.43952 0.0
H351 H 0.75404 0.10501 0.43988 0.0
H352 H 0.83083 0.21999 0.44218 0.0
H353 H 0.70499 0.19176 0.43327 0.0
H354 H 0.79855 0.26821 0.41401 0.0
O355 O 0.74 0.13185 0.41814 0.0
O356 O 0.77833 0.16146 0.40236 0.0
O357 O 0.85059 0.19911 0.41972 0.0
C358 C 0.74468 0.13804 0.40585 0.0
H359 H 0.89156 0.04486 0.40225 0.0
H360 H 0.67736 0.27342 0.4333 0.0
H361 H 0.81968 0.22298 0.46552 0.0
H362 H 0.74206 0.1059 0.46287 0.0
Co363 Co 0.59292 0.04831 0.16875 0.0
C364 C 0.68914 0.05929 0.16702 0.0
C365 C 0.65561 0.11757 0.1613 0.0
C366 C 0.69988 0.12396 0.15979 0.0
N367 N 0.64881 0.07713 0.16599 0.0
N368 N 0.72104 0.08726 0.1634 0.0
H369 H 0.69512 0.02628 0.17016 0.0
H370 H 0.63038 0.14065 0.15878 0.0
C371 C 0.54251 0.13131 0.16351 0.0
O372 O 0.53266 0.11649 0.15197 0.0
N373 N 0.53799 0.01792 0.17162 0.0
C374 C 0.53467 0.98258 0.17929 0.0
C375 C 0.49245 0.9678 0.17916 0.0
C376 C 0.49742 0.02357 0.16661 0.0
N377 N 0.46888 0.99343 0.17123 0.0
C378 C 0.63465 0.01532 0.19171 0.0
C379 C 0.58536 0.06236 0.20922 0.0
C380 C 0.6161 0.0324 0.21389 0.0
C381 C 0.64096 0.00871 0.20494 0.0
C382 C 0.5797 0.06765 0.19594 0.0
N383 N 0.60457 0.04472 0.18729 0.0
H384 H 0.65274 0.99522 0.18505 0.0
H385 H 0.55384 0.08897 0.19277 0.0
H386 H 0.56144 0.96781 0.1845 0.0
H387 H 0.48887 0.04877 0.15978 0.0
O388 O 0.61864 0.99373 0.16317 0.0
O389 O 0.58721 0.0414 0.15015 0.0
O390 O 0.56476 0.10767 0.17127 0.0
C391 C 0.6087 1.00493 0.15144 0.0
H392 H 0.71509 0.15316 0.15601 0.0
H393 H 0.48022 0.93947 0.18425 0.0
H394 H 0.5646 0.0805 0.21579 0.0
H395 H 0.66487 0.98498 0.20813 0.0
Co396 Co 0.72011 0.17981 0.58777 0.0
C397 C 0.70255 0.08572 0.58479 0.0
C398 C 0.66347 0.11404 0.59974 0.0
C399 C 0.66165 0.06918 0.60088 0.0
N400 N 0.68944 0.12454 0.58967 0.0
N401 N 0.6864 0.05164 0.59146 0.0
H402 H 0.72726 0.08188 0.5775 0.0
H403 H 0.65029 0.13734 0.60656 0.0
C404 C 0.62439 0.20108 0.58333 0.0
O405 O 0.61882 0.16164 0.57862 0.0
N406 N 0.7527 0.2335 0.58601 0.0
C407 C 0.79171 0.23631 0.58002 0.0
C408 C 0.80454 0.27914 0.57971 0.0
C409 C 0.74251 0.27482 0.5895 0.0
N410 N 0.77373 0.3033 0.58563 0.0
C411 C 0.75676 0.14755 0.56417 0.0
C412 C 0.71022 0.19994 0.54744 0.0
C413 C 0.74419 0.1741 0.54254 0.0
C414 C 0.76712 0.14726 0.55108 0.0
C415 C 0.70112 0.19963 0.56071 0.0
N416 N 0.7239 0.17316 0.56896 0.0
H417 H 0.77722 0.12869 0.57053 0.0
H418 H 0.67759 0.22282 0.56425 0.0
H419 H 0.80966 0.20902 0.57606 0.0
H420 H 0.71282 0.28395 0.5945 0.0
O421 O 0.77337 0.14978 0.59271 0.0
O422 O 0.72801 0.1814 0.60641 0.0
O423 O 0.66262 0.21374 0.58687 0.0
C424 C 0.76317 0.15822 0.60462 0.0
H425 H 0.64583 0.051 0.60852 0.0
H426 H 0.83452 0.29167 0.57556 0.0
H427 H 0.69237 0.22195 0.54119 0.0
H428 H 0.79376 0.1269 0.54772 0.0
Co429 Co 0.61153 0.95826 0.33332 0.0
C430 C 0.7081 0.95973 0.33608 0.0
C431 C 0.68225 0.89759 0.34167 0.0
C432 C 0.72681 0.89771 0.34386 0.0
N433 N 0.67047 0.93646 0.33666 0.0
N434 N 0.743 0.93699 0.3404 0.0
H435 H 0.70997 0.99311 0.3328 0.0
H436 H 0.6601 0.87134 0.34405 0.0
C437 C 0.55076 0.87742 0.33447 0.0
O438 O 0.51577 0.90159 0.33315 0.0
N439 N 0.55362 0.98279 0.32999 0.0
C440 C 0.54273 1.00547 0.31929 0.0
C441 C 0.50178 0.02283 0.32078 0.0
C442 C 0.51923 0.98852 0.33811 0.0
N443 N 0.48677 0.01207 0.33256 0.0
C444 C 0.65033 0.98041 0.30909 0.0
C445 C 0.60016 0.92633 0.2937 0.0
C446 C 0.62809 0.95664 0.28779 0.0
C447 C 0.65418 0.98306 0.2957 0.0
C448 C 0.59721 0.92473 0.30719 0.0
N449 N 0.62149 0.95225 0.31475 0.0
H450 H 0.66907 1.00291 0.31485 0.0
H451 H 0.57335 0.90321 0.31135 0.0
H452 H 0.56345 0.01057 0.311 0.0
H453 H 0.51797 0.9758 0.34785 0.0
O454 O 0.63235 0.0173 0.33557 0.0
O455 O 0.60813 0.97563 0.35142 0.0
O456 O 0.58893 0.89506 0.3345 0.0
C457 C 0.62593 0.01244 0.34786 0.0
H458 H 0.74547 0.87137 0.3481 0.0
H459 H 0.48417 0.04181 0.31366 0.0
H460 H 0.579 0.9056 0.28796 0.0
H461 H 0.67661 1.00659 0.29157 0.0
Co462 Co 0.79989 0.85466 0.08406 0.0
C463 C 0.82216 0.94827 0.08161 0.0
C464 C 0.84997 0.92032 0.09864 0.0
C465 C 0.8539 0.96518 0.09942 0.0
N466 N 0.82969 0.90965 0.08748 0.0
N467 N 0.83636 0.98242 0.08866 0.0
H468 H 0.8034 0.95231 0.07292 0.0
H469 H 0.85828 0.89734 0.10617 0.0
C470 C 0.89672 0.83445 0.08189 0.0
O471 O 0.9034 0.87499 0.0783 0.0
N472 N 0.76822 0.80119 0.08087 0.0
C473 C 0.73249 0.79816 0.07331 0.0
C474 C 0.71743 0.75607 0.07357 0.0
C475 C 0.774 0.7609 0.08589 0.0
N476 N 0.7434 0.73263 0.08145 0.0
C477 C 0.77062 0.88999 0.0598 0.0
C478 C 0.82403 0.84084 0.04398 0.0
C479 C 0.79243 0.86778 0.03829 0.0
C480 C 0.76568 0.89273 0.04641 0.0
C481 C 0.8276 0.83868 0.05744 0.0
N482 N 0.80173 0.86379 0.06528 0.0
H483 H 0.7481 0.90806 0.06578 0.0
H484 H 0.84961 0.81477 0.06136 0.0
H485 H 0.71759 0.82497 0.06818 0.0
H486 H 0.79976 0.75253 0.0926 0.0
O487 O 0.74503 0.88385 0.08812 0.0
O488 O 0.78682 0.84999 0.10232 0.0
O489 O 0.85765 0.82094 0.08412 0.0
C490 C 0.75185 0.87293 0.10008 0.0
H491 H 0.86676 0.98372 0.10747 0.0
H492 H 0.68868 0.74386 0.06864 0.0
H493 H 0.84448 0.81992 0.03809 0.0
H494 H 0.7406 0.91378 0.04246 0.0
Co495 Co 0.92189 0.04621 0.83707 0.0
C496 C 0.82705 0.0638 0.84015 0.0
C497 C 0.86596 0.11118 0.85007 0.0
C498 C 0.8228 0.11732 0.85344 0.0
N499 N 0.86873 0.07825 0.84143 0.0
N500 N 0.79842 0.08713 0.84728 0.0
H501 H 0.81781 0.03494 0.83489 0.0
H502 H 0.89367 0.1276 0.85437 0.0
C503 C 0.94658 0.1406 0.83255 0.0
O504 O 0.90826 0.14599 0.82705 0.0
N505 N 0.97368 0.01246 0.83315 0.0
C506 C 0.97369 0.97688 0.82549 0.0
C507 C 0.0138 0.9571 0.82621 0.0
C508 C 0.01402 0.01392 0.8385 0.0
N509 N 0.03911 0.98015 0.83441 0.0
C510 C 0.8761 0.02496 0.81358 0.0
C511 C 0.93479 0.06303 0.79676 0.0
C512 C 0.89969 0.03909 0.79164 0.0
C513 C 0.86997 0.0203 0.80028 0.0
C514 C 0.93949 0.0673 0.81017 0.0
N515 N 0.90986 0.04907 0.81848 0.0
H516 H 0.85537 1.00623 0.81984 0.0
H517 H 0.96849 0.08317 0.8138 0.0
H518 H 0.94577 0.96507 0.82011 0.0
H519 H 0.02402 0.03769 0.84566 0.0
O520 O 0.89144 0.99242 0.84116 0.0
O521 O 0.92812 0.03251 0.85525 0.0
O522 O 0.95773 0.10269 0.83672 0.0
C523 C 0.90355 0.99854 0.85306 0.0
H524 H 0.81073 0.14037 0.86053 0.0
H525 H 0.02344 0.92744 0.82127 0.0
H526 H 0.95903 0.07754 0.79047 0.0
H527 H 0.84343 0.99996 0.79684 0.0
Co528 Co 0.80267 0.67966 0.59026 0.0
C529 C 0.81438 0.58822 0.58274 0.0
C530 C 0.86678 0.61039 0.5949 0.0
C531 C 0.86958 0.56559 0.59371 0.0
N532 N 0.83206 0.62441 0.58805 0.0
N533 N 0.83669 0.55209 0.58605 0.0
H534 H 0.7837 0.58788 0.57752 0.0
H535 H 0.88627 0.63073 0.60122 0.0
C536 C 0.88063 0.73567 0.58194 0.0
O537 O 0.85842 0.7502 0.57199 0.0
N538 N 0.77151 0.73503 0.59318 0.0
C539 C 0.72887 0.73787 0.59668 0.0
C540 C 0.71772 0.78057 0.59863 0.0
C541 C 0.78568 0.77711 0.59326 0.0
N542 N 0.75322 0.80509 0.59649 0.0
C543 C 0.75421 0.69615 0.56703 0.0
C544 C 0.81575 0.6658 0.5497 0.0
C545 C 0.77437 0.67802 0.54498 0.0
C546 C 0.74403 0.69447 0.55391 0.0
C547 C 0.82507 0.66908 0.56296 0.0
N548 N 0.79435 0.68398 0.57151 0.0
H549 H 0.72874 0.70572 0.57359 0.0
H550 H 0.85674 0.65853 0.56639 0.0
H551 H 0.70638 0.71092 0.59765 0.0
H552 H 0.81872 0.78739 0.59131 0.0
O553 O 0.75 0.64706 0.59426 0.0
O554 O 0.7994 0.66799 0.60863 0.0
O555 O 0.86228 0.71 0.59007 0.0
C556 C 0.76309 0.64719 0.60622 0.0
H557 H 0.89233 0.54434 0.59866 0.0
H558 H 0.68583 0.7929 0.60134 0.0
H559 H 0.84036 0.65232 0.54334 0.0
H560 H 0.71194 0.70532 0.5509 0.0
Co561 Co 0.60025 0.55542 0.83462 0.0
C562 C 0.69604 0.56603 0.83806 0.0
C563 C 0.66459 0.62801 0.83561 0.0
C564 C 0.70914 0.63432 0.83563 0.0
N565 N 0.65617 0.58503 0.83703 0.0
N566 N 0.72883 0.59528 0.83709 0.0
H567 H 0.70139 0.53116 0.83843 0.0
H568 H 0.64063 0.6531 0.83381 0.0
C569 C 0.55362 0.63866 0.84126 0.0
O570 O 0.55147 0.62485 0.85323 0.0
N571 N 0.54561 0.52454 0.83194 0.0
C572 C 0.54209 0.48939 0.82417 0.0
C573 C 0.50005 0.47412 0.82459 0.0
C574 C 0.50546 0.52973 0.83725 0.0
N575 N 0.47685 0.49933 0.83277 0.0
C576 C 0.64544 0.52898 0.81175 0.0
C577 C 0.58819 0.56594 0.79426 0.0
C578 C 0.623 0.54051 0.78961 0.0
C579 C 0.65213 0.52243 0.79857 0.0
C580 C 0.58264 0.57171 0.80756 0.0
N581 N 0.61101 0.55315 0.81613 0.0
H582 H 0.6671 0.51304 0.81847 0.0
H583 H 0.55443 0.58959 0.81091 0.0
H584 H 0.56865 0.4753 0.81868 0.0
H585 H 0.49738 0.55491 0.84418 0.0
O586 O 0.62669 0.50062 0.8395 0.0
O587 O 0.59598 0.54668 0.8532 0.0
O588 O 0.57031 0.61408 0.83257 0.0
C589 C 0.61711 0.51023 0.85136 0.0
H590 H 0.72581 0.66498 0.83396 0.0
H591 H 0.48774 0.44574 0.81951 0.0
H592 H 0.56494 0.5807 0.78771 0.0
H593 H 0.67891 0.5018 0.79549 0.0
Co594 Co 0.71888 0.35523 0.08352 0.0
C595 C 0.69938 0.44948 0.08063 0.0
C596 C 0.66418 0.42112 0.09638 0.0
C597 C 0.65916 0.46589 0.09693 0.0
N598 N 0.68966 0.4108 0.08617 0.0
N599 N 0.68123 0.4833 0.08696 0.0
H600 H 0.72198 0.45391 0.0728 0.0
H601 H 0.65275 0.39814 0.10352 0.0
C602 C 0.63475 0.3114 0.09164 0.0
O603 O 0.64876 0.31074 0.10362 0.0
N604 N 0.74912 0.30046 0.08094 0.0
C605 C 0.78488 0.2963 0.07346 0.0
C606 C 0.7993 0.25408 0.074 0.0
C607 C 0.74263 0.26054 0.08619 0.0
N608 N 0.77287 0.23146 0.08196 0.0
C609 C 0.74935 0.3895 0.05932 0.0
C610 C 0.69654 0.34 0.0434 0.0
C611 C 0.72724 0.36822 0.03783 0.0
C612 C 0.75365 0.39331 0.04598 0.0
C613 C 0.69274 0.33769 0.05685 0.0
N614 N 0.71846 0.3629 0.06472 0.0
H615 H 0.77209 0.4073 0.06529 0.0
H616 H 0.67032 0.31404 0.06076 0.0
H617 H 0.80023 0.32249 0.06816 0.0
H618 H 0.71667 0.25297 0.09292 0.0
O619 O 0.77413 0.38279 0.08726 0.0
O620 O 0.73155 0.35333 0.10206 0.0
O621 O 0.65954 0.326 0.0827 0.0
C622 C 0.76726 0.37478 0.09936 0.0
H623 H 0.64219 0.48429 0.10431 0.0
H624 H 0.82796 0.24125 0.06917 0.0
H625 H 0.67599 0.31947 0.03741 0.0
H626 H 0.77874 0.41449 0.04209 0.0
Co627 Co 0.91449 0.45238 0.33865 0.0
C628 C 0.81865 0.44112 0.34136 0.0
C629 C 0.85251 0.38128 0.34522 0.0
C630 C 0.80842 0.37448 0.34698 0.0
N631 N 0.85899 0.42302 0.34155 0.0
N632 N 0.78718 0.41218 0.34458 0.0
H633 H 0.81225 0.47479 0.3389 0.0
H634 H 0.87774 0.35725 0.34675 0.0
C635 C 0.96563 0.3704 0.34461 0.0
O636 O 0.97398 0.38572 0.35619 0.0
N637 N 0.96911 0.48293 0.33566 0.0
C638 C 0.9731 0.517 0.32752 0.0
C639 C 0.0154 0.53165 0.32774 0.0
C640 C 0.00916 0.478 0.34104 0.0
N641 N 0.03812 0.50725 0.33621 0.0
C642 C 0.87241 0.48258 0.31542 0.0
C643 C 0.92417 0.43662 0.29826 0.0
C644 C 0.89356 0.46631 0.2934 0.0
C645 C 0.86736 0.48937 0.30214 0.0
C646 C 0.92894 0.43154 0.31159 0.0
N647 N 0.90311 0.45419 0.32006 0.0
H648 H 0.8529 0.50176 0.32198 0.0
H649 H 0.95497 0.41075 0.31495 0.0
H650 H 0.94682 0.53083 0.32189 0.0
H651 H 0.01709 0.45381 0.34825 0.0
O652 O 0.88817 0.50728 0.34371 0.0
O653 O 0.91978 0.4613 0.3572 0.0
O654 O 0.94372 0.39336 0.33659 0.0
C655 C 0.89818 0.49755 0.35554 0.0
H656 H 0.79326 0.34421 0.34997 0.0
H657 H 0.02834 0.55891 0.3223 0.0
H658 H 0.94557 0.41877 0.2918 0.0
H659 H 0.84344 0.51276 0.29874 0.0
Co660 Co 0.79541 0.33845 0.91695 0.0
C661 C 0.81506 0.43246 0.92128 0.0
C662 C 0.85022 0.40641 0.90516 0.0
C663 C 0.85421 0.45133 0.90501 0.0
N664 N 0.82538 0.39444 0.91535 0.0
N665 N 0.83206 0.46741 0.91518 0.0
H666 H 0.7927 0.43558 0.92922 0.0
H667 H 0.86185 0.38427 0.89778 0.0
C668 C 0.89078 0.31936 0.92159 0.0
O669 O 0.8937 0.35786 0.92712 0.0
N670 N 0.76355 0.28396 0.91831 0.0
C671 C 0.72337 0.28094 0.92353 0.0
C672 C 0.70914 0.23864 0.9226 0.0
C673 C 0.77352 0.24305 0.91428 0.0
N674 N 0.74042 0.21473 0.91676 0.0
C675 C 0.76194 0.36881 0.94126 0.0
C676 C 0.80845 0.31225 0.95677 0.0
C677 C 0.77783 0.34024 0.96251 0.0
C678 C 0.75454 0.36887 0.95455 0.0
C679 C 0.81501 0.3134 0.94341 0.0
N680 N 0.79293 0.34247 0.9358 0.0
H681 H 0.74122 0.38896 0.93532 0.0
H682 H 0.83618 0.28906 0.93928 0.0
H683 H 0.70539 0.30785 0.92771 0.0
H684 H 0.80373 0.23438 0.90949 0.0
O685 O 0.7414 0.36838 0.91268 0.0
O686 O 0.78618 0.33875 0.89841 0.0
O687 O 0.85371 0.30584 0.91731 0.0
C688 C 0.75073 0.36104 0.90064 0.0
H689 H 0.87045 0.47074 0.89772 0.0
H690 H 0.67821 0.22626 0.92612 0.0
H691 H 0.82662 0.28895 0.96251 0.0
H692 H 0.72933 0.38987 0.95847 0.0
Co693 Co 0.90937 0.5408 0.17382 0.0
C694 C 0.81462 0.56065 0.17132 0.0
C695 C 0.85376 0.60707 0.16113 0.0
C696 C 0.81043 0.6148 0.15827 0.0
N697 N 0.85657 0.57391 0.16968 0.0
N698 N 0.78599 0.58519 0.16459 0.0
H699 H 0.80501 0.53185 0.17656 0.0
H700 H 0.88136 0.62276 0.15656 0.0
C701 C 0.93757 0.6344 0.17703 0.0
O702 O 0.90087 0.64063 0.18336 0.0
N703 N 0.96078 0.50603 0.17764 0.0
C704 C 0.95907 0.46887 0.18453 0.0
C705 C 1.00052 0.45288 0.18601 0.0
C706 C 1.00374 0.51222 0.17494 0.0
N707 N 0.02884 0.48006 0.18009 0.0
C708 C 0.86691 0.52673 0.19823 0.0
C709 C 0.93089 0.56409 0.2135 0.0
C710 C 0.89608 0.54228 0.21947 0.0
C711 C 0.86367 0.52381 0.21165 0.0
C712 C 0.93324 0.5657 0.2 0.0
N713 N 0.90101 0.54793 0.19246 0.0
H714 H 0.84337 0.50911 0.19257 0.0
H715 H 0.96242 0.57905 0.19568 0.0
H716 H 0.92954 0.4546 0.18841 0.0
H717 H 0.0164 0.53995 0.16966 0.0
O718 O 0.87614 0.4877 0.17143 0.0
O719 O 0.91114 0.5222 0.15582 0.0
O720 O 0.94684 0.59615 0.17269 0.0
C721 C 0.88553 0.49016 0.15924 0.0
H722 H 0.79805 0.63849 0.15144 0.0
H723 H 0.00914 0.42325 0.19109 0.0
H724 H 0.95735 0.57763 0.21918 0.0
H725 H 0.8366 0.50603 0.21586 0.0
Co726 Co 0.71933 0.66435 0.42273 0.0
C727 C 0.70053 0.56884 0.42371 0.0
C728 C 0.65389 0.60374 0.41227 0.0
C729 C 0.64594 0.55974 0.41095 0.0
N730 N 0.68739 0.60975 0.42057 0.0
N731 N 0.67552 0.5378 0.41807 0.0
H732 H 0.72904 0.56153 0.42942 0.0
H733 H 0.63788 0.62954 0.40695 0.0
C734 C 0.62479 0.68799 0.428 0.0
O735 O 0.62061 0.65089 0.43423 0.0
N736 N 0.7526 0.71784 0.42454 0.0
C737 C 0.79243 0.72022 0.43003 0.0
C738 C 0.807 0.76255 0.42943 0.0
C739 C 0.74328 0.75901 0.42067 0.0
N740 N 0.7763 0.78704 0.42352 0.0
C741 C 0.75118 0.62923 0.44667 0.0
C742 C 0.71044 0.68835 0.46284 0.0
C743 C 0.74093 0.65928 0.4681 0.0
C744 C 0.76115 0.62926 0.45985 0.0
C745 C 0.70215 0.68796 0.44953 0.0
N746 N 0.72181 0.65812 0.44156 0.0
H747 H 0.76961 0.60777 0.44049 0.0
H748 H 0.68207 0.71369 0.44566 0.0
H749 H 0.80978 0.69291 0.43419 0.0
H750 H 0.71347 0.76809 0.41573 0.0
O751 O 0.77256 0.63336 0.41812 0.0
O752 O 0.72834 0.66529 0.40417 0.0
O753 O 0.66213 0.6991 0.42335 0.0
C754 C 0.76327 0.64193 0.40615 0.0
H755 H 0.62192 0.54496 0.40463 0.0
H756 H 0.83772 0.7745 0.43324 0.0
H757 H 0.69511 0.71294 0.46885 0.0
H758 H 0.78552 0.60678 0.4635 0.0
Co759 Co 0.59862 0.45372 0.66971 0.0
C760 C 0.69495 0.44213 0.66864 0.0
C761 C 0.66134 0.38401 0.66274 0.0
C762 C 0.70557 0.37746 0.66131 0.0
N763 N 0.65455 0.42444 0.66749 0.0
N764 N 0.72676 0.41407 0.66501 0.0
H765 H 0.70105 0.47518 0.6718 0.0
H766 H 0.63616 0.36112 0.66001 0.0
C767 C 0.54828 0.37071 0.66338 0.0
O768 O 0.53902 0.38538 0.6518 0.0
N769 N 0.54364 0.48455 0.67203 0.0
C770 C 0.54007 0.5202 0.67959 0.0
C771 C 0.49794 0.53512 0.67924 0.0
C772 C 0.50328 0.47877 0.66687 0.0
N773 N 0.47465 0.50921 0.67128 0.0
C774 C 0.63645 0.4834 0.69361 0.0
C775 C 0.57799 0.44111 0.70962 0.0
C776 C 0.60697 0.4715 0.71505 0.0
C777 C 0.63725 0.49194 0.70688 0.0
C778 C 0.57787 0.43393 0.69632 0.0
N779 N 0.60655 0.45528 0.68841 0.0
H780 H 0.65794 0.50191 0.68747 0.0
H781 H 0.5526 0.41315 0.69247 0.0
H782 H 0.56663 0.53491 0.68494 0.0
H783 H 0.49493 0.45314 0.66012 0.0
O784 O 0.62589 0.50847 0.66529 0.0
O785 O 0.59657 0.4631 0.6511 0.0
O786 O 0.56968 0.3945 0.67132 0.0
C787 C 0.61819 0.49911 0.65329 0.0
H788 H 0.72077 0.34835 0.65745 0.0
H789 H 0.48556 0.56363 0.68423 0.0
H790 H 0.55434 0.42401 0.71553 0.0
H791 H 0.65978 0.51625 0.71055 0.0
Co792 Co 0.2151 0.33476 0.41773 0.0
C793 C 0.19898 0.43078 0.41802 0.0
C794 C 0.15259 0.39684 0.40621 0.0
C795 C 0.14603 0.44111 0.40479 0.0
N796 N 0.18503 0.39013 0.41482 0.0
N797 N 0.1755 0.4624 0.41215 0.0
H798 H 0.22698 0.43757 0.42398 0.0
H799 H 0.13619 0.37132 0.40085 0.0
C800 C 0.11956 0.31365 0.42218 0.0
O801 O 0.1158 0.35156 0.42802 0.0
N802 N 0.24694 0.28074 0.4204 0.0
C803 C 0.28547 0.27867 0.42665 0.0
C804 C 0.3 0.23635 0.42658 0.0
C805 C 0.23829 0.23923 0.41662 0.0
N806 N 0.27061 0.21141 0.42025 0.0
C807 C 0.24232 0.37193 0.44193 0.0
C808 C 0.19709 0.31501 0.45769 0.0
C809 C 0.22504 0.34578 0.46336 0.0
C810 C 0.24782 0.37446 0.4553 0.0
C811 C 0.19298 0.31318 0.44425 0.0
N812 N 0.2143 0.34238 0.43649 0.0
H813 H 0.2628 0.39219 0.43599 0.0
H814 H 0.17449 0.28654 0.44019 0.0
H815 H 0.30204 0.30626 0.43097 0.0
H816 H 0.2096 0.22976 0.41118 0.0
O817 O 0.26972 0.36416 0.41386 0.0
O818 O 0.2274 0.3322 0.39935 0.0
O819 O 0.15695 0.30137 0.41781 0.0
C820 C 0.26248 0.35492 0.40181 0.0
H821 H 0.12288 0.45645 0.39832 0.0
H822 H 0.32984 0.22471 0.43102 0.0
H823 H 0.1801 0.29116 0.46355 0.0
H824 H 0.27041 0.3982 0.45927 0.0
Co825 Co 0.41258 0.4647 0.16941 0.0
C826 C 0.31613 0.46081 0.16494 0.0
C827 C 0.34147 0.40032 0.17218 0.0
C828 C 0.2965 0.39814 0.17215 0.0
N829 N 0.35406 0.43973 0.1677 0.0
N830 N 0.28065 0.43623 0.16765 0.0
H831 H 0.314 0.49472 0.16214 0.0
H832 H 0.36309 0.37593 0.17616 0.0
C833 C 0.47349 0.38357 0.17194 0.0
O834 O 0.50689 0.40608 0.1763 0.0
N835 N 0.46978 0.49182 0.17145 0.0
C836 C 0.47667 0.5256 0.17957 0.0
C837 C 0.51833 0.54097 0.17796 0.0
C838 C 0.5075 0.48798 0.16465 0.0
N839 N 0.53789 0.51734 0.16865 0.0
C840 C 0.37097 0.49295 0.19251 0.0
C841 C 0.43 0.4582 0.20984 0.0
C842 C 0.39759 0.48668 0.21445 0.0
C843 C 0.3671 0.50309 0.2056 0.0
C844 C 0.43259 0.44872 0.19664 0.0
N845 N 0.40402 0.46698 0.18808 0.0
H846 H 0.34835 0.50772 0.18582 0.0
H847 H 0.45906 0.42874 0.19337 0.0
H848 H 0.45257 0.53895 0.18611 0.0
H849 H 0.51252 0.46462 0.15694 0.0
O850 O 0.39001 0.52195 0.1651 0.0
O851 O 0.41507 0.47395 0.15093 0.0
O852 O 0.4368 0.40227 0.16956 0.0
C853 C 0.39745 0.51198 0.15309 0.0
H854 H 0.27689 0.3715 0.17584 0.0
H855 H 0.53341 0.56725 0.18337 0.0
H856 H 0.45455 0.44493 0.21626 0.0
H857 H 0.34092 0.52446 0.20871 0.0
Co858 Co 0.29052 0.67468 0.92075 0.0
C859 C 0.30336 0.57963 0.92168 0.0
C860 C 0.34865 0.60947 0.90871 0.0
C861 C 0.35008 0.56478 0.90689 0.0
N862 N 0.31969 0.61884 0.91816 0.0
N863 N 0.32093 0.54634 0.91495 0.0
H864 H 0.27618 0.57535 0.92812 0.0
H865 H 0.36465 0.63356 0.90272 0.0
C866 C 0.38637 0.69573 0.92294 0.0
O867 O 0.39068 0.659 0.92935 0.0
N868 N 0.25936 0.72892 0.92314 0.0
C869 C 0.22403 0.73283 0.93082 0.0
C870 C 0.21026 0.77532 0.9307 0.0
C871 C 0.26641 0.76924 0.91826 0.0
N872 N 0.23681 0.79829 0.92286 0.0
C873 C 0.26975 0.64322 0.94608 0.0
C874 C 0.31573 0.70555 0.95974 0.0
C875 C 0.28855 0.67667 0.96653 0.0
C876 C 0.26578 0.64495 0.95946 0.0
C877 C 0.31847 0.70294 0.94628 0.0
N878 N 0.29632 0.67142 0.93954 0.0
H879 H 0.24815 0.62151 0.941 0.0
H880 H 0.33617 0.72832 0.94133 0.0
H881 H 0.20927 0.70643 0.93619 0.0
H882 H 0.29278 0.77727 0.91172 0.0
O883 O 0.23512 0.64495 0.91887 0.0
O884 O 0.27302 0.67255 0.90267 0.0
O885 O 0.34842 0.70758 0.91893 0.0
C886 C 0.23901 0.65039 0.90651 0.0
H887 H 0.3682 0.54765 0.89947 0.0
H888 H 0.1824 0.78833 0.93588 0.0
H889 H 0.33364 0.73102 0.96471 0.0
H890 H 0.24273 0.62322 0.96411 0.0
Co891 Co 0.09695 0.54392 0.66988 0.0
C892 C 0.19104 0.56434 0.67307 0.0
C893 C 0.16394 0.59514 0.65638 0.0
C894 C 0.20898 0.5975 0.65562 0.0
N895 N 0.15252 0.57399 0.66731 0.0
N896 N 0.22575 0.57801 0.66615 0.0
H897 H 0.19448 0.54408 0.68146 0.0
H898 H 0.14125 0.60466 0.64889 0.0
C899 C 0.07465 0.64003 0.67136 0.0
O900 O 0.11347 0.64679 0.67639 0.0
N901 N 0.04298 0.51198 0.67226 0.0
C902 C 0.03992 0.47519 0.6793 0.0
C903 C 0.9979 0.45994 0.67869 0.0
C904 C 1.00245 0.51878 0.66741 0.0
N905 N 0.97425 0.48703 0.67118 0.0
C906 C 0.12741 0.51975 0.69501 0.0
C907 C 0.0703 0.57036 0.70921 0.0
C908 C 0.09763 0.54091 0.71567 0.0
C909 C 0.12674 0.51581 0.70839 0.0
C910 C 0.07181 0.57312 0.69571 0.0
N911 N 0.10092 0.54871 0.68871 0.0
H912 H 0.14796 0.49748 0.68973 0.0
H913 H 0.0475 0.59292 0.69102 0.0
H914 H 0.06662 0.46015 0.68447 0.0
H915 H 0.99404 0.54564 0.66111 0.0
O916 O 0.12767 0.48931 0.66764 0.0
O917 O 0.09825 0.52702 0.65171 0.0
O918 O 0.06278 0.60107 0.66834 0.0
C919 C 0.12107 0.49325 0.65534 0.0
H920 H 0.2279 0.61044 0.64767 0.0
H921 H 0.9856 0.43117 0.68354 0.0
H922 H 0.04637 0.58944 0.71446 0.0
H923 H 0.14822 0.49238 0.71298 0.0
Co924 Co 0.21963 0.6807 0.08732 0.0
C925 C 0.20325 0.58517 0.08777 0.0
C926 C 0.15375 0.62007 0.09811 0.0
C927 C 0.14635 0.57589 0.09954 0.0
N928 N 0.18869 0.62601 0.09035 0.0
N929 N 0.1778 0.55413 0.09309 0.0
H930 H 0.23298 0.57773 0.08269 0.0
H931 H 0.13592 0.64598 0.10287 0.0
C932 C 0.12508 0.70379 0.08189 0.0
O933 O 0.12099 0.66631 0.07581 0.0
N934 N 0.25201 0.73407 0.0845 0.0
C935 C 0.28703 0.73752 0.07667 0.0
C936 C 0.3012 0.78001 0.0767 0.0
C937 C 0.24581 0.77447 0.08945 0.0
N938 N 0.27542 0.80319 0.08472 0.0
C939 C 0.24718 0.6398 0.06379 0.0
C940 C 0.20546 0.69577 0.04696 0.0
C941 C 0.23201 0.66254 0.04192 0.0
C942 C 0.25295 0.63442 0.05056 0.0
C943 C 0.20035 0.69988 0.06035 0.0
N944 N 0.21999 0.67116 0.06864 0.0
H945 H 0.26723 0.62043 0.07008 0.0
H946 H 0.18241 0.72761 0.06397 0.0
H947 H 0.3014 0.71088 0.0713 0.0
H948 H 0.22013 0.78274 0.09621 0.0
O949 O 0.27364 0.65135 0.09171 0.0
O950 O 0.23046 0.68453 0.10575 0.0
O951 O 0.16222 0.71484 0.08668 0.0
C952 C 0.26541 0.66126 0.10366 0.0
H953 H 0.12112 0.56095 0.10538 0.0
H954 H 0.32892 0.79283 0.07143 0.0
H955 H 0.18942 0.71892 0.04065 0.0
H956 H 0.27551 0.60968 0.04716 0.0
Co957 Co 0.09971 0.46479 0.83534 0.0
C958 C 0.19349 0.44318 0.83219 0.0
C959 C 0.16659 0.4147 0.84926 0.0
C960 C 0.21162 0.41198 0.84993 0.0
N961 N 0.15506 0.43466 0.83815 0.0
N962 N 0.22827 0.43 0.83916 0.0
H963 H 0.19686 0.4623 0.82356 0.0
H964 H 0.14403 0.40628 0.8569 0.0
C965 C 0.07781 0.36862 0.83418 0.0
O966 O 0.1168 0.36227 0.82923 0.0
N967 N 0.04612 0.4972 0.83266 0.0
C968 C 0.04502 0.53544 0.8263 0.0
C969 C 1.00318 0.55095 0.82628 0.0
C970 C 1.00437 0.48972 0.83642 0.0
N971 N 0.97716 0.52229 0.83253 0.0
C972 C 0.13027 0.48802 0.81015 0.0
C973 C 0.07266 0.43733 0.79613 0.0
C974 C 0.09977 0.46676 0.78958 0.0
C975 C 0.12917 0.49188 0.79676 0.0
C976 C 0.07459 0.43467 0.80962 0.0
N977 N 0.10389 0.45916 0.81653 0.0
H978 H 0.1511 0.51026 0.81536 0.0
H979 H 0.05033 0.41495 0.81437 0.0
H980 H 0.07304 0.55148 0.82207 0.0
H981 H 0.99425 0.46125 0.84182 0.0
O982 O 0.13086 0.51925 0.83739 0.0
O983 O 0.10069 0.48291 0.85345 0.0
O984 O 0.06534 0.40758 0.83704 0.0
C985 C 0.12361 0.51645 0.84967 0.0
H986 H 0.23065 0.39983 0.85797 0.0
H987 H 0.99327 0.58183 0.82218 0.0
H988 H 0.04853 0.41824 0.79095 0.0
H989 H 0.15052 0.51528 0.79211 0.0
Co990 Co 0.29987 0.35276 0.58327 0.0
C991 C 0.3186 0.44729 0.58063 0.0
C992 C 0.35035 0.41948 0.59708 0.0
C993 C 0.35254 0.46439 0.59807 0.0
N994 N 0.32883 0.40861 0.58614 0.0
N995 N 0.33248 0.4816 0.5877 0.0
H996 H 0.2979 0.45105 0.57232 0.0
H997 H 0.3604 0.39642 0.60439 0.0
C998 C 0.39655 0.33246 0.58216 0.0
O999 O 0.4027 0.37119 0.57705 0.0
N1000 N 0.26928 0.29824 0.5807 0.0
C1001 C 0.23265 0.29379 0.57361 0.0
C1002 C 0.21789 0.25165 0.57467 0.0
C1003 C 0.27651 0.2586 0.58601 0.0
N1004 N 0.24528 0.22955 0.58249 0.0
C1005 C 0.27641 0.38361 0.55812 0.0
C1006 C 0.32864 0.32788 0.54395 0.0
C1007 C 0.29907 0.35496 0.53743 0.0
C1008 C 0.27315 0.38338 0.54471 0.0
C1009 C 0.33068 0.3289 0.55747 0.0
N1010 N 0.30542 0.3573 0.56446 0.0
H1011 H 0.25356 0.40363 0.56337 0.0
H1012 H 0.35068 0.30479 0.56218 0.0
H1013 H 0.2172 0.31968 0.56819 0.0
H1014 H 0.30314 0.25153 0.59256 0.0
O1015 O 0.24444 0.38222 0.58533 0.0
O1016 O 0.28208 0.35333 0.60136 0.0
O1017 O 0.35768 0.31981 0.58502 0.0
C1018 C 0.2479 0.37537 0.59763 0.0
H1019 H 0.36584 0.48291 0.60607 0.0
H1020 H 0.18917 0.23822 0.57002 0.0
H1021 H 0.34834 0.30444 0.5387 0.0
H1022 H 0.24954 0.40459 0.54009 0.0
Co1023 Co 0.41944 0.54406 0.33642 0.0
C1024 C 0.32331 0.55239 0.3345 0.0
C1025 C 0.34978 0.59606 0.34866 0.0
C1026 C 0.30466 0.5972 0.34949 0.0
N1027 N 0.36142 0.56784 0.33925 0.0
N1028 N 0.2884 0.56978 0.34052 0.0
H1029 H 0.32055 0.52689 0.32738 0.0
H1030 H 0.37252 0.61281 0.35495 0.0
C1031 C 0.48023 0.62371 0.3334 0.0
O1032 O 0.51282 0.59907 0.32959 0.0
N1033 N 0.47706 0.51826 0.33373 0.0
C1034 C 0.4881 0.49172 0.32382 0.0
C1035 C 0.52923 0.47565 0.32578 0.0
C1036 C 0.51208 0.51713 0.34178 0.0
N1037 N 0.54441 0.49149 0.33703 0.0
C1038 C 0.38691 0.50519 0.31319 0.0
C1039 C 0.4224 0.56318 0.29574 0.0
C1040 C 0.40316 0.52458 0.29112 0.0
C1041 C 0.38389 0.49636 0.30005 0.0
C1042 C 0.42454 0.57106 0.30909 0.0
N1043 N 0.40824 0.5414 0.31773 0.0
H1044 H 0.37387 0.48114 0.31971 0.0
H1045 H 0.4408 0.60021 0.31228 0.0
H1046 H 0.46786 0.48328 0.3157 0.0
H1047 H 0.51373 0.53427 0.35091 0.0
O1048 O 0.3976 0.48697 0.34118 0.0
O1049 O 0.42437 0.5349 0.35499 0.0
O1050 O 0.44259 0.60677 0.3357 0.0
C1051 C 0.40559 0.49724 0.35309 0.0
H1052 H 0.28536 0.61601 0.35626 0.0
H1053 H 0.54687 0.45398 0.31937 0.0
H1054 H 0.43745 0.58612 0.28915 0.0
H1055 H 0.36774 0.46666 0.29693 0.0
H1056 H 0.19301 0.08946 0.10408 0.0
H1057 H 0.26987 0.15533 0.13314 0.0
H1058 H 0.22885 0.11859 0.15011 0.0
H1059 H 0.17298 0.0663 0.15679 0.0
H1060 H 0.09744 0.9975 0.12807 0.0
H1061 H 0.13575 0.03707 0.1109 0.0
C1062 C 0.20056 0.09592 0.11413 0.0
C1063 C 0.23448 0.12518 0.11732 0.0
C1064 C 0.17702 0.07421 0.12391 0.0
C1065 C 0.24404 0.13296 0.13039 0.0
C1066 C 0.22054 0.11198 0.14012 0.0
C1067 C 0.16446 0.06024 0.14678 0.0
C1068 C 0.13215 0.02916 0.14373 0.0
C1069 C 0.18717 0.0824 0.137 0.0
C1070 C 0.12201 0.0214 0.13069 0.0
C1071 C 0.14403 0.04392 0.12087 0.0
H1072 H 0.12363 0.98432 0.37515 0.0
H1073 H 0.1934 0.92835 0.34295 0.0
H1074 H 0.23298 0.87994 0.3575 0.0
H1075 H 0.25162 0.85658 0.37963 0.0
H1076 H 0.18088 0.91209 0.41174 0.0
H1077 H 0.13807 0.95688 0.39705 0.0
C1078 C 0.14712 0.96118 0.37131 0.0
C1079 C 0.15554 0.96019 0.35798 0.0
C1080 C 0.16993 0.93325 0.37976 0.0
C1081 C 0.18609 0.92987 0.35317 0.0
C1082 C 0.20896 0.90218 0.3615 0.0
C1083 C 0.22643 0.87801 0.38338 0.0
C1084 C 0.21973 0.88093 0.39679 0.0
C1085 C 0.20169 0.904 0.37485 0.0
C1086 C 0.18689 0.90902 0.40148 0.0
C1087 C 0.16236 0.93489 0.39308 0.0
H1088 H 0.26179 0.86778 0.62943 0.0
H1089 H 0.33634 0.92337 0.5981 0.0
H1090 H 0.38328 0.96113 0.61335 0.0
H1091 H 0.40068 0.98303 0.63552 0.0
H1092 H 0.32819 0.92723 0.66713 0.0
H1093 H 0.28381 0.88494 0.65198 0.0
C1094 C 0.28863 0.8877 0.62597 0.0
C1095 C 0.2951 0.89277 0.61259 0.0
C1096 C 0.31607 0.90961 0.63487 0.0
C1097 C 0.33023 0.91877 0.60831 0.0
C1098 C 0.35725 0.9406 0.61704 0.0
C1099 C 0.37561 0.96114 0.63911 0.0
C1100 C 0.3678 0.95852 0.65245 0.0
C1101 C 0.35009 0.93691 0.63033 0.0
C1102 C 0.33515 0.92984 0.65691 0.0
C1103 C 0.30948 0.90577 0.64823 0.0
H1104 H 0.35415 0.08821 0.85748 0.0
H1105 H 0.42113 1.00454 0.88447 0.0
H1106 H 0.38604 0.04236 0.90251 0.0
H1107 H 0.33218 0.09585 0.91057 0.0
H1108 H 0.26363 0.17768 0.88341 0.0
H1109 H 0.30355 0.14418 0.86556 0.0
C1110 C 0.36162 0.07865 0.86731 0.0
C1111 C 0.39031 0.04356 0.8696 0.0
C1112 C 0.34073 0.10008 0.87764 0.0
C1113 C 0.39925 0.03144 0.88242 0.0
C1114 C 0.37906 0.05299 0.89275 0.0
C1115 C 0.32642 0.10677 0.90076 0.0
C1116 C 0.29487 0.13925 0.89835 0.0
C1117 C 0.34913 0.08686 0.89048 0.0
C1118 C 0.28764 0.15275 0.88556 0.0
C1119 C 0.31043 0.13354 0.87533 0.0
H1120 H 0.84609 0.93089 0.85123 0.0
H1121 H 0.92088 1.00547 0.87887 0.0
H1122 H 0.88599 0.96599 0.89658 0.0
H1123 H 0.83048 0.91391 0.90427 0.0
H1124 H 0.75458 0.84057 0.87661 0.0
H1125 H 0.79385 0.87565 0.8589 0.0
C1126 C 0.85523 0.93813 0.86112 0.0
C1127 C 0.88608 0.97118 0.8637 0.0
C1128 C 0.83463 0.91562 0.87128 0.0
C1129 C 0.89731 0.9802 0.87659 0.0
C1130 C 0.87725 0.9577 0.88674 0.0
C1131 C 0.82295 0.90511 0.89438 0.0
C1132 C 0.78955 0.87461 0.89179 0.0
C1133 C 0.84533 0.92585 0.88421 0.0
C1134 C 0.78011 0.86385 0.87889 0.0
C1135 C 0.80249 0.88403 0.86875 0.0
H1136 H 0.83542 0.07466 0.6562 0.0
H1137 H 0.90828 0.99786 0.62866 0.0
H1138 H 0.87737 0.04035 0.61096 0.0
H1139 H 0.82713 0.09694 0.60317 0.0
H1140 H 0.75214 0.17237 0.63052 0.0
H1141 H 0.78665 0.13315 0.64839 0.0
C1142 C 0.84482 0.06747 0.64633 0.0
C1143 C 0.87417 0.03306 0.64378 0.0
C1144 C 0.82651 0.09181 0.63614 0.0
C1145 C 0.88579 0.02409 0.63092 0.0
C1146 C 0.86809 0.04839 0.62077 0.0
C1147 C 0.81871 0.10525 0.61305 0.0
C1148 C 0.78719 0.13773 0.61549 0.0
C1149 C 0.83811 0.08203 0.62326 0.0
C1150 C 0.77639 0.14766 0.62835 0.0
C1151 C 0.79602 0.12511 0.63858 0.0
H1152 H 0.62076 0.0117 0.37426 0.0
H1153 H 0.67525 0.08405 0.34238 0.0
H1154 H 0.71566 0.13047 0.35733 0.0
H1155 H 0.73985 0.1477 0.37952 0.0
H1156 H 0.68404 0.07609 0.41135 0.0
H1157 H 0.64019 0.03286 0.39647 0.0
C1158 C 0.64092 0.03806 0.37059 0.0
C1159 C 0.64488 0.04417 0.3572 0.0
C1160 C 0.66435 0.0648 0.37927 0.0
C1161 C 0.67133 0.07853 0.35264 0.0
C1162 C 0.69476 0.10507 0.36119 0.0
C1163 C 0.71775 0.12296 0.38319 0.0
C1164 C 0.7155 0.1152 0.39655 0.0
C1165 C 0.6922 0.09806 0.37454 0.0
C1166 C 0.68652 0.08299 0.40113 0.0
C1167 C 0.66139 0.05802 0.39261 0.0
H1168 H 0.66281 0.9347 0.15193 0.0
H1169 H 0.59514 0.02054 0.12569 0.0
H1170 H 0.6312 0.9852 0.10734 0.0
H1171 H 0.68604 0.93321 0.09888 0.0
H1172 H 0.75523 0.84956 0.12541 0.0
H1173 H 0.71443 0.8806 0.14346 0.0
C1174 C 0.6554 0.94534 0.14219 0.0
C1175 C 0.6262 0.98026 0.14021 0.0
C1176 C 0.67685 0.92541 0.13171 0.0
C1177 C 0.61734 0.99371 0.12751 0.0
C1178 C 0.63812 0.9736 0.11701 0.0
C1179 C 0.69177 0.92137 0.10859 0.0
C1180 C 0.72375 0.88906 0.11076 0.0
C1181 C 0.66853 0.93989 0.119 0.0
C1182 C 0.73092 0.87438 0.12344 0.0
C1183 C 0.70761 0.89217 0.13379 0.0
H1184 H 0.69555 0.58971 0.6033 0.0
H1185 H 0.77502 0.65305 0.63223 0.0
H1186 H 0.73547 0.61456 0.64923 0.0
H1187 H 0.6799 0.56176 0.6559 0.0
H1188 H 0.60221 0.49528 0.6272 0.0
H1189 H 0.63925 0.53638 0.61008 0.0
C1190 C 0.70401 0.59528 0.61333 0.0
C1191 C 0.73815 0.6244 0.61648 0.0
C1192 C 0.68142 0.57253 0.62309 0.0
C1193 C 0.74896 0.63089 0.62952 0.0
C1194 C 0.72631 0.6089 0.63926 0.0
C1195 C 0.67062 0.55653 0.64591 0.0
C1196 C 0.63798 0.52571 0.64284 0.0
C1197 C 0.69264 0.57955 0.63616 0.0
C1198 C 0.627 0.51893 0.62983 0.0
C1199 C 0.64828 0.54236 0.62004 0.0
H1200 H 0.68692 0.42273 0.90264 0.0
H1201 H 0.75726 0.34477 0.87482 0.0
H1202 H 0.71969 0.38213 0.8572 0.0
H1203 H 0.67034 0.43971 0.84967 0.0
H1204 H 0.60206 0.52014 0.87731 0.0
H1205 H 0.63511 0.47886 0.89503 0.0
C1206 C 0.69361 0.41351 0.89273 0.0
C1207 C 0.72485 0.38089 0.89006 0.0
C1208 C 0.67241 0.43575 0.88261 0.0
C1209 C 0.73341 0.36969 0.87715 0.0
C1210 C 0.71198 0.39112 0.86707 0.0
C1211 C 0.66223 0.44797 0.85956 0.0
C1212 C 0.63368 0.48301 0.86215 0.0
C1213 C 0.68192 0.42461 0.86968 0.0
C1214 C 0.62385 0.49334 0.87504 0.0
C1215 C 0.64284 0.46979 0.88518 0.0
H1216 H 0.75947 0.37149 0.12576 0.0
H1217 H 0.84169 0.42102 0.09526 0.0
H1218 H 0.88683 0.45926 0.11096 0.0
H1219 H 0.90067 0.48291 0.1333 0.0
H1220 H 0.8193 0.43293 0.16391 0.0
H1221 H 0.77677 0.39086 0.14835 0.0
C1222 C 0.78759 0.39017 0.12258 0.0
C1223 C 0.79688 0.39343 0.10932 0.0
C1224 C 0.81367 0.41241 0.13171 0.0
C1225 C 0.83352 0.41791 0.10539 0.0
C1226 C 0.85945 0.43999 0.11437 0.0
C1227 C 0.87398 0.4624 0.13658 0.0
C1228 C 0.8633 0.46122 0.14976 0.0
C1229 C 0.84947 0.43812 0.12755 0.0
C1230 C 0.82851 0.43441 0.15383 0.0
C1231 C 0.80394 0.41038 0.14492 0.0
H1232 H 0.84289 0.56687 0.35438 0.0
H1233 H 0.91445 0.48704 0.38138 0.0
H1234 H 0.88099 0.52648 0.39942 0.0
H1235 H 0.8282 0.58098 0.40754 0.0
H1236 H 0.75498 0.65877 0.3804 0.0
H1237 H 0.7924 0.62293 0.36244 0.0
C1238 C 0.85165 0.55839 0.36421 0.0
C1239 C 0.88131 0.52403 0.3665 0.0
C1240 C 0.83175 0.58075 0.37453 0.0
C1241 C 0.89186 0.51335 0.37932 0.0
C1242 C 0.87262 0.53585 0.38965 0.0
C1243 C 0.82079 0.59048 0.3977 0.0
C1244 C 0.7888 0.62267 0.39534 0.0
C1245 C 0.84206 0.56923 0.38738 0.0
C1246 C 0.77941 0.63421 0.38251 0.0
C1247 C 0.80077 0.61365 0.37223 0.0
H1248 H 0.32717 0.41564 0.40408 0.0
H1249 H 0.26001 0.33558 0.37607 0.0
H1250 H 0.30146 0.36998 0.35866 0.0
H1251 H 0.35299 0.42607 0.35127 0.0
H1252 H 0.41774 0.50875 0.37909 0.0
H1253 H 0.38139 0.46975 0.3967 0.0
C1254 C 0.32199 0.40529 0.39418 0.0
C1255 C 0.29049 0.37297 0.39139 0.0
C1256 C 0.34544 0.42581 0.38418 0.0
C1257 C 0.28398 0.36031 0.3785 0.0
C1258 C 0.30766 0.38004 0.36853 0.0
C1259 C 0.35973 0.43519 0.36119 0.0
C1260 C 0.38821 0.47029 0.36384 0.0
C1261 C 0.33797 0.41327 0.37124 0.0
C1262 C 0.39614 0.48183 0.37677 0.0
C1263 C 0.3752 0.45963 0.38684 0.0
H1264 H 0.3457 0.58397 0.1549 0.0
H1265 H 0.41291 0.50254 0.12728 0.0
H1266 H 0.38058 0.54403 0.10955 0.0
H1267 H 0.32927 0.59996 0.10189 0.0
H1268 H 0.25943 0.67931 0.12947 0.0
H1269 H 0.29699 0.64236 0.14721 0.0
C1270 C 0.3538 0.57569 0.145 0.0
C1271 C 0.38174 0.54016 0.14243 0.0
C1272 C 0.33441 0.59919 0.13484 0.0
C1273 C 0.39154 0.52968 0.12954 0.0
C1274 C 0.37296 0.55335 0.11939 0.0
C1275 C 0.3227 0.60966 0.11177 0.0
C1276 C 0.29159 0.64245 0.11434 0.0
C1277 C 0.34379 0.58768 0.12192 0.0
C1278 C 0.28322 0.65425 0.12721 0.0
C1279 C 0.30462 0.63303 0.13737 0.0
H1280 H 0.11529 0.52107 0.87599 0.0
H1281 H 0.17878 0.58282 0.8436 0.0
H1282 H 0.21816 0.63141 0.85814 0.0
H1283 H 0.23819 0.65392 0.88016 0.0
H1284 H 0.17435 0.59291 0.91259 0.0
H1285 H 0.13162 0.54719 0.89802 0.0
C1286 C 0.13739 0.54545 0.87212 0.0
C1287 C 0.14408 0.54805 0.85872 0.0
C1288 C 0.16013 0.57358 0.88057 0.0
C1289 C 0.17289 0.57994 0.85387 0.0
C1290 C 0.19561 0.60781 0.86219 0.0
C1291 C 0.2145 0.63106 0.88402 0.0
C1292 C 0.20959 0.62697 0.89745 0.0
C1293 C 0.18997 0.6046 0.87557 0.0
C1294 C 0.17876 0.59701 0.90229 0.0
C1295 C 0.15436 0.57059 0.89396 0.0
H1296 H 0.2447 0.36678 0.62388 0.0
H1297 H 0.18162 0.43125 0.59191 0.0
H1298 H 0.13507 0.47175 0.60678 0.0
H1299 H 0.1152 0.49263 0.62899 0.0
H1300 H 0.17759 0.42744 0.66096 0.0
H1301 H 0.22084 0.38359 0.64605 0.0
C1302 C 0.22042 0.38931 0.62018 0.0
C1303 C 0.21688 0.396 0.6068 0.0
C1304 C 0.19357 0.41267 0.62881 0.0
C1305 C 0.18515 0.42534 0.60216 0.0
C1306 C 0.1585 0.44871 0.61067 0.0
C1307 C 0.13784 0.46844 0.63268 0.0
C1308 C 0.14314 0.46354 0.64608 0.0
C1309 C 0.16284 0.44318 0.62403 0.0
C1310 C 0.17271 0.43199 0.65069 0.0
C1311 C 0.19768 0.4069 0.64217 0.0
H1312 H 0.29848 0.17871 0.98447 0.0
H1313 H 0.16038 0.15523 0.98886 0.0
H1314 H 0.1683 0.15631 0.01239 0.0
H1315 H 0.21455 0.16348 0.03167 0.0
H1316 H 0.35181 0.19344 0.02719 0.0
H1317 H 0.34422 0.18923 0.00384 0.0
C1318 C 0.27022 0.17357 0.99061 0.0
C1319 C 0.22895 0.16656 0.98495 0.0
C1320 C 0.27488 0.17517 0.00413 0.0
C1321 C 0.19246 0.1607 0.99299 0.0
C1322 C 0.19701 0.16127 0.00644 0.0
C1323 C 0.24283 0.16981 0.02566 0.0
C1324 C 0.28383 0.17851 0.03141 0.0
C1325 C 0.23806 0.16863 0.01213 0.0
C1326 C 0.31998 0.18567 0.02324 0.0
C1327 C 0.31564 0.18366 0.0098 0.0
H1328 H 0.06155 0.02105 0.27471 0.0
H1329 H 0.19934 0.05107 0.27359 0.0
H1330 H 0.2024 0.02926 0.25093 0.0
H1331 H 0.16644 1.00044 0.23156 0.0
H1332 H 0.02792 0.97324 0.23234 0.0
H1333 H 0.02498 0.99431 0.25504 0.0
C1334 C 0.0921 0.0235 0.26945 0.0
C1335 C 0.13014 0.0378 0.27587 0.0
C1336 C 0.09369 0.01075 0.2564 0.0
C1337 C 0.16964 0.0399 0.26895 0.0
C1338 C 0.17142 0.02744 0.25597 0.0
C1339 C 0.13544 0.99946 0.23662 0.0
C1340 C 0.0975 0.98508 0.23015 0.0
C1341 C 0.13373 0.01254 0.24963 0.0
C1342 C 0.05789 0.98332 0.23705 0.0
C1343 C 0.05604 0.99586 0.25003 0.0
H1344 H 0.245 0.79896 0.52533 0.0
H1345 H 0.2359 0.93966 0.52609 0.0
H1346 H 0.25682 0.94272 0.50341 0.0
H1347 H 0.27813 0.90584 0.48344 0.0
H1348 H 0.28092 0.76485 0.48207 0.0
H1349 H 0.2629 0.76179 0.50495 0.0
C1350 C 0.24686 0.83029 0.52051 0.0
C1351 C 0.23894 0.86902 0.52749 0.0
C1352 C 0.2584 0.83188 0.50737 0.0
C1353 C 0.2424 0.90932 0.52106 0.0
C1354 C 0.25424 0.91113 0.50806 0.0
C1355 C 0.27432 0.87432 0.48804 0.0
C1356 C 0.28109 0.83569 0.4809 0.0
C1357 C 0.26245 0.87264 0.50113 0.0
C1358 C 0.2769 0.79528 0.48726 0.0
C1359 C 0.26602 0.79342 0.50036 0.0
H1360 H 0.42674 0.05073 0.7819 0.0
H1361 H 0.36913 0.92252 0.7783 0.0
H1362 H 0.36467 0.93167 0.75494 0.0
H1363 H 0.37752 0.97591 0.73544 0.0
H1364 H 0.43116 0.1057 0.73937 0.0
H1365 H 0.43614 0.09611 0.76267 0.0
C1366 C 0.41253 0.02491 0.77608 0.0
C1367 C 0.39832 0.98593 0.782 0.0
C1368 C 0.4093 0.03067 0.76265 0.0
C1369 C 0.38103 0.95263 0.77412 0.0
C1370 C 0.3781 0.95798 0.76072 0.0
C1371 C 0.38967 1.00242 0.74138 0.0
C1372 C 0.4041 0.04147 0.73554 0.0
C1373 C 0.39213 0.99687 0.75487 0.0
C1374 C 0.42045 0.07504 0.74349 0.0
C1375 C 0.42313 0.06967 0.75686 0.0
H1376 H 0.79636 0.86703 0.97715 0.0
H1377 H 0.65702 0.85637 0.98269 0.0
H1378 H 0.66706 0.85911 0.0061 0.0
H1379 H 0.71556 0.86338 0.02504 0.0
H1380 H 0.85502 0.87238 0.01952 0.0
H1381 H 0.84484 0.87151 0.99609 0.0
C1382 C 0.76815 0.8658 0.98348 0.0
C1383 C 0.72595 0.86175 0.97816 0.0
C1384 C 0.77423 0.86695 0.99695 0.0
C1385 C 0.68984 0.85928 0.98652 0.0
C1386 C 0.69556 0.86098 0.99991 0.0
C1387 C 0.74369 0.86563 0.0187 0.0
C1388 C 0.786 0.86817 0.02403 0.0
C1389 C 0.73761 0.86468 0.00524 0.0
C1390 C 0.82215 0.87016 0.01568 0.0
C1391 C 0.81633 0.8698 1.00228 0.0
H1392 H 0.96403 0.01796 0.77442 0.0
H1393 H 0.82523 0.04121 0.77703 0.0
H1394 H 0.81681 0.0234 0.75417 0.0
H1395 H 0.84854 0.99971 0.73348 0.0
H1396 H 0.98764 0.97774 0.73081 0.0
H1397 H 0.99603 0.99607 0.75359 0.0
C1398 C 0.93202 0.01974 0.76995 0.0
C1399 C 0.89534 0.03102 0.77747 0.0
C1400 C 0.92733 0.00916 0.75678 0.0
C1401 C 0.854 0.03233 0.77153 0.0
C1402 C 0.84914 0.0222 0.75843 0.0
C1403 C 0.88077 0.99923 0.73783 0.0
C1404 C 0.9173 0.98696 0.73036 0.0
C1405 C 0.88552 0.01027 0.75097 0.0
C1406 C 0.95871 0.98611 0.7363 0.0
C1407 C 0.96366 0.99702 0.74934 0.0
H1408 H 0.69199 0.16988 0.52129 0.0
H1409 H 0.82658 0.18368 0.53296 0.0
H1410 H 0.84971 0.18415 0.51038 0.0
H1411 H 0.83193 0.17771 0.48721 0.0
H1412 H 0.6975 0.16139 0.47566 0.0
H1413 H 0.67408 0.16508 0.49817 0.0
C1414 C 0.7263 0.17339 0.51885 0.0
C1415 C 0.75751 0.17649 0.52876 0.0
C1416 C 0.73945 0.17301 0.50584 0.0
C1417 C 0.80195 0.18067 0.52549 0.0
C1418 C 0.81521 0.1811 0.51258 0.0
C1419 C 0.79754 0.17534 0.48965 0.0
C1420 C 0.76655 0.16897 0.47981 0.0
C1421 C 0.78431 0.17682 0.50266 0.0
C1422 C 0.72204 0.16571 0.48309 0.0
C1423 C 0.70859 0.16795 0.49595 0.0
H1424 H 0.62761 0.03349 0.27477 0.0
H1425 H 0.62722 0.89407 0.2688 0.0
H1426 H 0.62487 0.9051 0.2454 0.0
H1427 H 0.62142 0.95463 0.22664 0.0
H1428 H 0.62106 0.09395 0.23287 0.0
H1429 H 0.62559 0.08268 0.25616 0.0
C1430 C 0.62765 1.00547 0.26835 0.0
C1431 C 0.6279 0.963 0.27354 0.0
C1432 C 0.62606 0.01207 0.25495 0.0
C1433 C 0.62683 0.92709 0.26507 0.0
C1434 C 0.62565 0.93339 0.25169 0.0
C1435 C 0.62287 0.98249 0.2331 0.0
C1436 C 0.62094 0.02509 0.22801 0.0
C1437 C 0.62509 0.97575 0.24652 0.0
C1438 C 0.62212 0.06085 0.23653 0.0
C1439 C 0.62483 0.05444 0.24985 0.0
H1440 H 0.82664 0.68345 0.52329 0.0
H1441 H 0.69341 0.65802 0.535 0.0
H1442 H 0.67132 0.65217 0.51259 0.0
H1443 H 0.68911 0.65404 0.48939 0.0
H1444 H 0.82288 0.67211 0.47759 0.0
H1445 H 0.8454 0.68002 0.50017 0.0
C1446 C 0.79286 0.67607 0.52102 0.0
C1447 C 0.76182 0.67227 0.53104 0.0
C1448 C 0.7803 0.67119 0.50798 0.0
C1449 C 0.71811 0.66285 0.52767 0.0
C1450 C 0.70531 0.65893 0.51477 0.0
C1451 C 0.72316 0.65966 0.49181 0.0
C1452 C 0.75427 0.66263 0.48187 0.0
C1453 C 0.736 0.66328 0.50483 0.0
C1454 C 0.79838 0.66951 0.4851 0.0
C1455 C 0.81123 0.67416 0.498 0.0
H1456 H 0.67277 0.49142 0.73207 0.0
H1457 H 0.53224 0.48109 0.72925 0.0
H1458 H 0.52502 0.50163 0.75183 0.0
H1459 H 0.55817 0.52188 0.77247 0.0
H1460 H 0.69823 0.53598 0.77526 0.0
H1461 H 0.70587 0.51505 0.7526 0.0
C1462 C 0.64053 0.49401 0.73635 0.0
C1463 C 0.60321 0.48408 0.72892 0.0
C1464 C 0.63642 0.50666 0.74935 0.0
C1465 C 0.56172 0.48734 0.73474 0.0
C1466 C 0.55745 0.49956 0.74766 0.0
C1467 C 0.59035 0.52112 0.76809 0.0
C1468 C 0.62753 0.53055 0.7756 0.0
C1469 C 0.59453 0.50924 0.75506 0.0
C1470 C 0.66904 0.52844 0.76977 0.0
C1471 C 0.67345 0.51659 0.75679 0.0
H1472 H 0.76504 0.40803 0.9791 0.0
H1473 H 0.76878 0.26729 0.97748 0.0
H1474 H 0.75178 0.26345 1.00049 0.0
H1475 H 0.73645 0.30014 0.02118 0.0
H1476 H 0.73351 0.44081 0.02279 0.0
H1477 H 0.74893 0.44464 0.99966 0.0
C1478 C 0.76186 0.37652 0.98376 0.0
C1479 C 0.76834 0.33804 0.97657 0.0
C1480 C 0.75197 0.37453 0.99699 0.0
C1481 C 0.76464 0.29745 0.98282 0.0
C1482 C 0.75456 0.2952 0.99596 0.0
C1483 C 0.73864 0.33157 0.01641 0.0
C1484 C 0.73367 0.37014 0.02365 0.0
C1485 C 0.74817 0.33352 1.00315 0.0
C1486 C 0.73737 0.41069 0.01741 0.0
C1487 C 0.74619 0.41289 0.0042 0.0
H1488 H 0.90002 0.54372 0.28068 0.0
H1489 H 0.88096 0.40581 0.27452 0.0
H1490 H 0.87856 0.41735 0.25116 0.0
H1491 H 0.88378 0.46637 0.23245 0.0
H1492 H 0.90722 0.60373 0.23838 0.0
H1493 H 0.90629 0.59286 0.26182 0.0
C1494 C 0.89493 0.51636 0.27419 0.0
C1495 C 0.89032 0.47401 0.27928 0.0
C1496 C 0.89466 0.52315 0.26074 0.0
C1497 C 0.88455 0.43866 0.2708 0.0
C1498 C 0.88319 0.44526 0.25746 0.0
C1499 C 0.88828 0.49397 0.23889 0.0
C1500 C 0.89518 0.53587 0.2337 0.0
C1501 C 0.88846 0.4873 0.25232 0.0
C1502 C 0.9019 0.57118 0.24215 0.0
C1503 C 0.90125 0.56498 0.25554 0.0
H1504 H 0.22246 0.34957 0.52434 0.0
H1505 H 0.36207 0.35312 0.51869 0.0
H1506 H 0.35157 0.35079 0.49524 0.0
H1507 H 0.3024 0.34892 0.47636 0.0
H1508 H 0.16287 0.34395 0.48219 0.0
H1509 H 0.17357 0.3458 0.50558 0.0
C1510 C 0.25059 0.35011 0.51796 0.0
C1511 C 0.29299 0.35198 0.52322 0.0
C1512 C 0.24427 0.34856 0.50455 0.0
C1513 C 0.32914 0.35161 0.51486 0.0
C1514 C 0.32312 0.35047 0.50147 0.0
C1515 C 0.27437 0.34854 0.48277 0.0
C1516 C 0.23186 0.34664 0.47756 0.0
C1517 C 0.28081 0.34921 0.49621 0.0
C1518 C 0.19587 0.34528 0.48597 0.0
C1519 C 0.20198 0.34646 0.49933 0.0
H1520 H 0.41365 0.43735 0.23587 0.0
H1521 H 0.38019 0.56823 0.2241 0.0
H1522 H 0.37936 0.59186 0.2466 0.0
H1523 H 0.38801 0.57536 0.2698 0.0
H1524 H 0.42342 0.44472 0.2813 0.0
H1525 H 0.42415 0.42137 0.25882 0.0
C1526 C 0.40653 0.47114 0.2382 0.0
C1527 C 0.39676 0.50078 0.22825 0.0
C1528 C 0.40652 0.4847 0.25117 0.0
C1529 C 0.38705 0.54437 0.23153 0.0
C1530 C 0.38691 0.55808 0.24441 0.0
C1531 C 0.3962 0.54191 0.26736 0.0
C1532 C 0.40517 0.5118 0.27726 0.0
C1533 C 0.39658 0.52854 0.25434 0.0
C1534 C 0.41555 0.46844 0.27391 0.0
C1535 C 0.41619 0.45504 0.26104 0.0
H1536 H 0.24759 0.72774 0.02456 0.0
H1537 H 0.23601 0.58769 0.02767 0.0
H1538 H 0.25503 0.57968 0.00493 0.0
H1539 H 0.27562 0.61214 0.98425 0.0
H1540 H 0.28309 0.75243 0.98069 0.0
H1541 H 0.26601 0.76047 1.00356 0.0
C1542 C 0.24859 0.69552 0.02022 0.0
C1543 C 0.24038 0.65838 0.02783 0.0
C1544 C 0.25949 0.6911 0.00709 0.0
C1545 C 0.2426 0.6168 0.02208 0.0
C1546 C 0.25343 0.61218 0.00906 0.0
C1547 C 0.27317 0.64456 0.98841 0.0
C1548 C 0.2808 0.68155 0.98067 0.0
C1549 C 0.26214 0.64907 1.0015 0.0
C1550 C 0.27828 0.72322 0.98639 0.0
C1551 C 0.26796 0.72793 0.99946 0.0
H1552 H 0.0955 0.54368 0.77664 0.0
H1553 H 0.09539 0.4042 0.77079 0.0
H1554 H 0.09313 0.41494 0.74739 0.0
H1555 H 0.09403 0.46403 0.72864 0.0
H1556 H 0.0941 0.60351 0.73447 0.0
H1557 H 0.09331 0.59278 0.75789 0.0
C1558 C 0.09517 0.51564 0.77023 0.0
C1559 C 0.09615 0.47318 0.77542 0.0
C1560 C 0.09387 0.5221 0.75682 0.0
C1561 C 0.09462 0.43716 0.76702 0.0
C1562 C 0.09352 0.4433 0.75366 0.0
C1563 C 0.09405 0.49207 0.73505 0.0
C1564 C 0.09465 0.53453 0.72985 0.0
C1565 C 0.09363 0.48561 0.74846 0.0
C1566 C 0.09359 0.57055 0.73825 0.0
C1567 C 0.09334 0.56441 0.75162 0.0
H1568 H 0.29165 0.86673 0.06775 0.0
H1569 H 0.27159 0.84173 0.10819 0.0
H1570 H 0.29049 0.91785 0.11329 0.0
H1571 H 0.31652 0.99078 0.10611 0.0
H1572 H 0.33197 0.0161 0.06552 0.0
H1573 H 0.31152 0.94049 0.06048 0.0
C1574 C 0.29114 0.8782 0.07766 0.0
C1575 C 0.28062 0.84886 0.08761 0.0
C1576 C 0.30176 0.92179 0.08044 0.0
C1577 C 0.27937 0.86396 0.1004 0.0
C1578 C 0.29053 0.90728 0.1033 0.0
C1579 C 0.3155 0.97939 0.0962 0.0
C1580 C 0.32646 0.00827 0.08616 0.0
C1581 C 0.30251 0.93629 0.0934 0.0
C1582 C 0.32402 0.99398 0.07332 0.0
C1583 C 0.31228 0.95095 0.07047 0.0
H1584 H 0.44316 0.08686 0.32916 0.0
H1585 H 0.43311 0.95963 0.34648 0.0
H1586 H 0.35547 0.97277 0.35124 0.0
H1587 H 0.2889 0.01877 0.34873 0.0
H1588 H 0.30107 0.14568 0.33102 0.0
H1589 H 0.37912 0.13445 0.32818 0.0
C1590 C 0.42402 0.06219 0.33409 0.0
C1591 C 0.44367 0.02221 0.33737 0.0
C1592 C 0.3796 0.06984 0.33662 0.0
C1593 C 0.41876 0.99076 0.34394 0.0
C1594 C 0.37429 0.99815 0.34654 0.0
C1595 C 0.30872 0.04395 0.34429 0.0
C1596 C 0.28885 0.08301 0.34006 0.0
C1597 C 0.35406 0.03722 0.34263 0.0
C1598 C 0.31525 0.11556 0.3345 0.0
C1599 C 0.36 0.10907 0.33279 0.0
H1600 H 0.17027 0.18674 0.58681 0.0
H1601 H 0.31016 0.17081 0.5864 0.0
H1602 H 0.3016 0.09223 0.59033 0.0
H1603 H 0.25365 0.02752 0.59259 0.0
H1604 H 0.11373 0.04473 0.59293 0.0
H1605 H 0.12286 0.12343 0.59035 0.0
C1606 C 0.19888 0.16604 0.58759 0.0
C1607 C 0.24077 0.18437 0.58615 0.0
C1608 C 0.19361 0.12116 0.58978 0.0
C1609 C 0.27761 0.15741 0.5875 0.0
C1610 C 0.27267 0.1125 0.58966 0.0
C1611 C 0.22521 0.04853 0.59206 0.0
C1612 C 0.18299 0.03021 0.59282 0.0
C1613 C 0.23075 0.09389 0.59058 0.0
C1614 C 0.14649 0.05799 0.59243 0.0
C1615 C 0.1517 0.10297 0.59089 0.0
H1616 H 0.22097 0.89406 0.84542 0.0
H1617 H 0.26243 0.02844 0.84323 0.0
H1618 H 0.18671 0.05186 0.84059 0.0
H1619 H 0.10826 0.03375 0.83778 0.0
H1620 H 0.0678 0.8992 0.83964 0.0
H1621 H 0.14296 0.8764 0.84378 0.0
C1622 C 0.21342 0.92849 0.84452 0.0
C1623 C 0.24755 0.95925 0.84437 0.0
C1624 C 0.16973 0.94179 0.84296 0.0
C1625 C 0.23705 1.00382 0.84309 0.0
C1626 C 0.19362 0.01735 0.84168 0.0
C1627 C 0.11601 0.99961 0.83931 0.0
C1628 C 0.08267 0.96818 0.83834 0.0
C1629 C 0.15965 0.9866 0.84144 0.0
C1630 C 0.09306 0.92391 0.8402 0.0
C1631 C 0.13601 0.91085 0.84257 0.0
H1632 H 0.34489 0.16652 0.41654 0.0
H1633 H 0.2052 0.15125 0.41921 0.0
H1634 H 0.21343 0.07153 0.41785 0.0
H1635 H 0.26137 1.00589 0.41685 0.0
H1636 H 0.40104 0.0233 0.4143 0.0
H1637 H 0.39189 0.10238 0.41479 0.0
C1638 C 0.31619 0.1458 0.41686 0.0
C1639 C 0.27451 0.16486 0.41813 0.0
C1640 C 0.32129 0.10028 0.41619 0.0
C1641 C 0.23761 0.13748 0.41819 0.0
C1642 C 0.2424 0.09189 0.41752 0.0
C1643 C 0.28975 0.02704 0.41649 0.0
C1644 C 0.33197 0.00857 0.41562 0.0
C1645 C 0.28419 0.07285 0.41671 0.0
C1646 C 0.3683 0.03654 0.41489 0.0
C1647 C 0.36308 0.08181 0.41521 0.0
H1648 H 0.08097 0.08827 0.66494 0.0
H1649 H 0.0955 0.95169 0.67379 0.0
H1650 H 0.17538 0.9597 0.67353 0.0
H1651 H 0.24035 0.00751 0.67283 0.0
H1652 H 0.22439 0.14431 0.6639 0.0
H1653 H 0.14562 0.1344 0.66241 0.0
C1654 C 0.10167 0.06022 0.66676 0.0
C1655 C 0.08247 0.0196 0.66956 0.0
C1656 C 0.1472 0.0653 0.66678 0.0
C1657 C 0.10958 0.98325 0.67159 0.0
C1658 C 0.15517 0.98796 0.67154 0.0
C1659 C 0.21987 0.03507 0.67035 0.0
C1660 C 0.23857 0.07686 0.66869 0.0
C1661 C 0.17432 0.02911 0.66944 0.0
C1662 C 0.21107 0.11207 0.66555 0.0
C1663 C 0.16594 0.10638 0.6646 0.0
H1664 H 0.21424 0.85999 0.93983 0.0
H1665 H 0.25005 0.83976 0.90008 0.0
H1666 H 0.23451 0.91687 0.89536 0.0
H1667 H 0.20787 0.98963 0.90263 0.0
H1668 H 0.17444 0.00871 0.94262 0.0
H1669 H 0.19108 0.93216 0.94721 0.0
C1670 C 0.21864 0.87252 0.93013 0.0
C1671 C 0.23281 0.8443 0.92028 0.0
C1672 C 0.20948 0.91645 0.92755 0.0
C1673 C 0.23936 0.86102 0.90781 0.0
C1674 C 0.23009 0.90493 0.90512 0.0
C1675 C 0.20388 0.97667 0.91229 0.0
C1676 C 0.18936 1.00432 0.92228 0.0
C1677 C 0.2145 0.93281 0.91489 0.0
C1678 C 0.18533 0.98775 0.93483 0.0
C1679 C 0.19494 0.94416 0.93744 0.0
H1680 H 0.28012 0.95357 0.14982 0.0
H1681 H 0.26018 0.92046 0.18979 0.0
H1682 H 0.33542 0.94157 0.19481 0.0
H1683 H 0.4069 0.96839 0.18784 0.0
H1684 H 0.42803 1.00394 0.14814 0.0
H1685 H 0.35208 0.98408 0.14297 0.0
C1686 C 0.2926 0.95065 0.15958 0.0
C1687 C 0.26501 0.93486 0.16943 0.0
C1688 C 0.33576 0.96385 0.16243 0.0
C1689 C 0.28102 0.93226 0.18209 0.0
C1690 C 0.32391 0.94442 0.18495 0.0
C1691 C 0.39483 0.97186 0.17806 0.0
C1692 C 0.4231 0.98724 0.16836 0.0
C1693 C 0.35153 0.96019 0.17521 0.0
C1694 C 0.40682 0.99242 0.15578 0.0
C1695 C 0.36355 0.98066 0.15282 0.0
H1696 H 0.751 0.00988 0.91342 0.0
H1697 H 0.61308 0.02696 0.90635 0.0
H1698 H 0.62219 0.10608 0.90675 0.0
H1699 H 0.66827 0.1703 0.91017 0.0
H1700 H 0.80601 0.15499 0.91749 0.0
H1701 H 0.79837 0.07531 0.91572 0.0
C1702 C 0.72295 0.03095 0.91204 0.0
C1703 C 0.68124 0.01241 0.90999 0.0
C1704 C 0.72847 0.07668 0.91227 0.0
C1705 C 0.64545 0.04026 0.9079 0.0
C1706 C 0.65063 0.08554 0.90817 0.0
C1707 C 0.69665 0.14953 0.91137 0.0
C1708 C 0.73755 0.16849 0.91413 0.0
C1709 C 0.69182 0.10406 0.91049 0.0
C1710 C 0.77423 0.14121 0.91533 0.0
C1711 C 0.76974 0.09567 0.91443 0.0
H1712 H 0.71885 0.93974 0.65173 0.0
H1713 H 0.7504 0.92491 0.69204 0.0
H1714 H 0.67545 0.94351 0.69796 0.0
H1715 H 0.60169 0.96467 0.69182 0.0
H1716 H 0.56798 0.98071 0.65173 0.0
H1717 H 0.64326 0.9619 0.64552 0.0
C1718 C 0.70901 0.9401 0.66178 0.0
C1719 C 0.74004 0.93067 0.67147 0.0
C1720 C 0.66576 0.95153 0.66513 0.0
C1721 C 0.72715 0.93213 0.68446 0.0
C1722 C 0.68434 0.94278 0.68784 0.0
C1723 C 0.61055 0.96362 0.6817 0.0
C1724 C 0.57902 0.97349 0.67225 0.0
C1725 C 0.65349 0.95265 0.67827 0.0
C1726 C 0.5916 0.97333 0.6592 0.0
C1727 C 0.63455 0.96228 0.65566 0.0
H1728 H 0.76235 0.99154 0.41824 0.0
H1729 H 0.90202 0.97722 0.41442 0.0
H1730 H 0.89483 0.89801 0.41585 0.0
H1731 H 0.84946 0.833 0.41879 0.0
H1732 H 0.70982 0.84585 0.42278 0.0
H1733 H 0.71621 0.92534 0.4205 0.0
C1734 C 0.7912 0.97108 0.41782 0.0
C1735 C 0.8328 0.99043 0.41632 0.0
C1736 C 0.78678 0.9253 0.41861 0.0
C1737 C 0.86971 0.96327 0.4155 0.0
C1738 C 0.86562 0.91795 0.41636 0.0
C1739 C 0.82038 0.85315 0.41923 0.0
C1740 C 0.77925 0.83345 0.42111 0.0
C1741 C 0.82441 0.89865 0.418 0.0
C1742 C 0.74183 0.86007 0.42129 0.0
C1743 C 0.74555 0.90557 0.42008 0.0
H1744 H 0.92547 0.0899 0.1677 0.0
H1745 H 0.90765 0.95032 0.16718 0.0
H1746 H 0.82868 0.96037 0.16407 0.0
H1747 H 0.76435 0.00945 0.16284 0.0
H1748 H 0.7842 0.14905 0.16462 0.0
H1749 H 0.86266 0.13823 0.16593 0.0
C1750 C 0.90439 0.06156 0.16699 0.0
C1751 C 0.92246 0.01939 0.1679 0.0
C1752 C 0.85926 0.06764 0.16547 0.0
C1753 C 0.89467 0.98311 0.16651 0.0
C1754 C 0.84948 0.98891 0.16483 0.0
C1755 C 0.78571 0.03754 0.16359 0.0
C1756 C 0.76785 0.08013 0.16367 0.0
C1757 C 0.83128 0.03111 0.16454 0.0
C1758 C 0.79654 0.11598 0.16437 0.0
C1759 C 0.84162 0.10984 0.16521 0.0
H1760 H 0.7437 0.86078 0.57696 0.0
H1761 H 0.75871 0.85252 0.61811 0.0
H1762 H 0.739 0.92984 0.6204 0.0
H1763 H 0.71113 0.99799 0.61067 0.0
H1764 H 0.69571 1.00619 0.56944 0.0
H1765 H 0.7215 0.93081 0.56705 0.0
C1766 C 0.74406 0.87663 0.58633 0.0
C1767 C 0.75356 0.85177 0.59734 0.0
C1768 C 0.73141 0.92061 0.58753 0.0
C1769 C 0.75254 0.87172 0.60953 0.0
C1770 C 0.74065 0.91559 0.61083 0.0
C1771 C 0.71319 0.98301 0.6012 0.0
C1772 C 0.70072 1.00705 0.59025 0.0
C1773 C 0.72876 0.94 0.59992 0.0
C1774 C 0.70472 0.98793 0.57798 0.0
C1775 C 0.71961 0.94501 0.57662 0.0
H1776 H 0.81606 0.88737 0.34032 0.0
H1777 H 0.77174 0.02089 0.34249 0.0
H1778 H 0.84725 0.04653 0.34213 0.0
H1779 H 0.92649 0.03119 0.3394 0.0
H1780 H 0.96969 0.89779 0.33679 0.0
H1781 H 0.89461 0.87192 0.33951 0.0
C1782 C 0.8228 0.92204 0.34093 0.0
C1783 C 0.78789 0.95199 0.34122 0.0
C1784 C 0.86644 0.93666 0.3407 0.0
C1785 C 0.79764 0.99693 0.34192 0.0
C1786 C 0.84099 0.01171 0.34182 0.0
C1787 C 0.91935 0.99654 0.33979 0.0
C1788 C 0.95343 0.96635 0.33797 0.0
C1789 C 0.87572 0.98193 0.34097 0.0
C1790 C 0.94385 0.92148 0.33821 0.0
C1791 C 0.90094 0.90674 0.33969 0.0
H1792 H 0.80541 0.04404 0.10496 0.0
H1793 H 0.84698 0.02134 0.06579 0.0
H1794 H 0.82861 0.09656 0.06008 0.0
H1795 H 0.80086 0.16834 0.06617 0.0
H1796 H 0.75757 0.19255 0.10508 0.0
H1797 H 0.77525 0.11684 0.11096 0.0
C1798 C 0.81088 0.05596 0.09524 0.0
C1799 C 0.82807 0.0276 0.08581 0.0
C1800 C 0.79928 0.0991 0.09198 0.0
C1801 C 0.83403 0.04284 0.07317 0.0
C1802 C 0.8234 0.08567 0.06992 0.0
C1803 C 0.79537 0.15707 0.07595 0.0
C1804 C 0.77834 0.18604 0.08521 0.0
C1805 C 0.80594 0.11398 0.07922 0.0
C1806 C 0.77041 0.17075 0.09777 0.0
C1807 C 0.78092 0.12764 0.10115 0.0
H1808 H 0.75484 0.00994 0.84532 0.0
H1809 H 0.73687 0.14766 0.85244 0.0
H1810 H 0.6579 0.13724 0.85335 0.0
H1811 H 0.59382 0.09062 0.85018 0.0
H1812 H 0.60994 0.95352 0.84232 0.0
H1813 H 0.68979 0.9617 0.84388 0.0
C1814 C 0.73366 0.0377 0.84702 0.0
C1815 C 0.75191 0.07978 0.84861 0.0
C1816 C 0.68799 0.03148 0.84745 0.0
C1817 C 0.72388 0.11505 0.8512 0.0
C1818 C 0.67865 0.10912 0.85167 0.0
C1819 C 0.61485 0.06244 0.84894 0.0
C1820 C 0.59614 0.02162 0.84598 0.0
C1821 C 0.66037 0.06772 0.84955 0.0
C1822 C 0.62361 0.98518 0.84465 0.0
C1823 C 0.66921 0.99004 0.8454 0.0
H1824 H 0.79596 0.36182 0.56778 0.0
H1825 H 0.75716 0.34857 0.6075 0.0
H1826 H 0.77294 0.42628 0.61128 0.0
H1827 H 0.80343 0.49673 0.60343 0.0
H1828 H 0.83923 0.50982 0.56349 0.0
H1829 H 0.81935 0.43326 0.55948 0.0
C1830 C 0.79052 0.37626 0.5772 0.0
C1831 C 0.7758 0.34981 0.58739 0.0
C1832 C 0.79973 0.42058 0.57923 0.0
C1833 C 0.76823 0.3686 0.59954 0.0
C1834 C 0.77765 0.4128 0.6017 0.0
C1835 C 0.80665 0.48247 0.59389 0.0
C1836 C 0.82336 0.50794 0.58376 0.0
C1837 C 0.79437 0.43883 0.59168 0.0
C1838 C 0.82681 0.49015 0.57135 0.0
C1839 C 0.81541 0.44664 0.5691 0.0
H1840 H 0.77873 0.53526 0.8494 0.0
H1841 H 0.7809 0.63302 0.8195 0.0
H1842 H 0.85721 0.61655 0.81496 0.0
H1843 H 0.92255 0.57507 0.8193 0.0
H1844 H 0.92523 0.48089 0.85025 0.0
H1845 H 0.84733 0.49403 0.85425 0.0
C1846 C 0.79616 0.55287 0.84193 0.0
C1847 C 0.77436 0.58569 0.83488 0.0
C1848 C 0.8406 0.54358 0.83947 0.0
C1849 C 0.79714 0.60831 0.82521 0.0
C1850 C 0.84068 0.59865 0.82255 0.0
C1851 C 0.90681 0.55776 0.82712 0.0
C1852 C 0.93053 0.5275 0.83459 0.0
C1853 C 0.86273 0.56658 0.82964 0.0
C1854 C 0.90818 0.50434 0.8443 0.0
C1855 C 0.86359 0.5121 0.84665 0.0
H1856 H 0.71708 0.67011 0.06525 0.0
H1857 H 0.7557 0.69344 0.10463 0.0
H1858 H 0.73761 0.61756 0.11018 0.0
H1859 H 0.70881 0.54474 0.10369 0.0
H1860 H 0.67344 0.52215 0.06402 0.0
H1861 H 0.6913 0.59791 0.05866 0.0
C1862 C 0.72149 0.65852 0.07504 0.0
C1863 C 0.73733 0.68723 0.08454 0.0
C1864 C 0.711 0.61524 0.07809 0.0
C1865 C 0.74381 0.67173 0.09715 0.0
C1866 C 0.73309 0.62855 0.10033 0.0
C1867 C 0.7046 0.55686 0.09395 0.0
C1868 C 0.6892 0.52854 0.08426 0.0
C1869 C 0.71616 0.60013 0.0909 0.0
C1870 C 0.68489 0.54381 0.07158 0.0
C1871 C 0.69525 0.58689 0.06853 0.0
H1872 H 0.7441 0.48748 0.34994 0.0
H1873 H 0.72484 0.35243 0.3394 0.0
H1874 H 0.64634 0.36425 0.33791 0.0
H1875 H 0.58403 0.41412 0.33754 0.0
H1876 H 0.6014 0.5495 0.34741 0.0
H1877 H 0.67958 0.53651 0.35149 0.0
C1878 C 0.72267 0.46069 0.34734 0.0
C1879 C 0.74051 0.41916 0.34466 0.0
C1880 C 0.67724 0.46781 0.34643 0.0
C1881 C 0.71213 0.38457 0.34158 0.0
C1882 C 0.66718 0.39135 0.34066 0.0
C1883 C 0.60492 0.44057 0.34078 0.0
C1884 C 0.58732 0.48271 0.34209 0.0
C1885 C 0.64954 0.43294 0.34281 0.0
C1886 C 0.61433 0.51675 0.34644 0.0
C1887 C 0.65902 0.50937 0.34861 0.0
H1888 H 0.80696 0.53046 0.89859 0.0
H1889 H 0.83505 0.50462 0.93858 0.0
H1890 H 0.81693 0.58016 0.9442 0.0
H1891 H 0.79334 0.65341 0.93774 0.0
H1892 H 0.76183 0.67962 0.89799 0.0
H1893 H 0.78007 0.60398 0.89222 0.0
C1894 C 0.80946 0.54172 0.90849 0.0
C1895 C 0.82293 0.51242 0.91817 0.0
C1896 C 0.79786 0.58497 0.91167 0.0
C1897 C 0.82502 0.52683 0.93102 0.0
C1898 C 0.81457 0.56988 0.93421 0.0
C1899 C 0.79052 0.64254 0.92781 0.0
C1900 C 0.7766 0.67213 0.91828 0.0
C1901 C 0.80094 0.5992 0.92463 0.0
C1902 C 0.77221 0.65739 0.9055 0.0
C1903 C 0.78299 0.61426 0.9022 0.0
H1904 H 0.74179 0.5087 0.16339 0.0
H1905 H 0.72525 0.64844 0.16352 0.0
H1906 H 0.64577 0.63959 0.16339 0.0
H1907 H 0.5812 0.59219 0.16498 0.0
H1908 H 0.59644 0.45252 0.16456 0.0
H1909 H 0.67614 0.46091 0.16278 0.0
C1910 C 0.72067 0.53711 0.16339 0.0
C1911 C 0.73929 0.57926 0.16368 0.0
C1912 C 0.67489 0.53168 0.16318 0.0
C1913 C 0.71164 0.6158 0.16333 0.0
C1914 C 0.66625 0.61071 0.16328 0.0
C1915 C 0.60203 0.56365 0.1643 0.0
C1916 C 0.58314 0.52181 0.16498 0.0
C1917 C 0.64755 0.56887 0.16342 0.0
C1918 C 0.61027 0.485 0.16395 0.0
C1919 C 0.65581 0.48987 0.16308 0.0
H1920 H 0.66361 0.33342 0.41957 0.0
H1921 H 0.80376 0.34525 0.42182 0.0
H1922 H 0.79748 0.42508 0.42065 0.0
H1923 H 0.75125 0.49186 0.41972 0.0
H1924 H 0.61115 0.47808 0.41749 0.0
H1925 H 0.61819 0.39876 0.41808 0.0
C1926 C 0.69283 0.3534 0.41987 0.0
C1927 C 0.73408 0.33331 0.42093 0.0
C1928 C 0.68887 0.39904 0.41929 0.0
C1929 C 0.77165 0.35979 0.42096 0.0
C1930 C 0.768 0.40546 0.42039 0.0
C1931 C 0.72233 0.47142 0.41948 0.0
C1932 C 0.68062 0.49093 0.41865 0.0
C1933 C 0.72668 0.42552 0.41971 0.0
C1934 C 0.64352 0.46394 0.41806 0.0
C1935 C 0.64754 0.41857 0.41843 0.0
H1936 H 0.77017 0.4916 0.66359 0.0
H1937 H 0.78949 0.35232 0.66679 0.0
H1938 H 0.8681 0.36295 0.66773 0.0
H1939 H 0.93119 0.41122 0.66877 0.0
H1940 H 0.91404 0.55066 0.66668 0.0
H1941 H 0.83486 0.54058 0.66399 0.0
C1942 C 0.79151 0.46359 0.66457 0.0
C1943 C 0.77354 0.42112 0.66517 0.0
C1944 C 0.83713 0.46996 0.66527 0.0
C1945 C 0.80205 0.38526 0.66616 0.0
C1946 C 0.84717 0.39131 0.66678 0.0
C1947 C 0.91018 0.43951 0.66779 0.0
C1948 C 0.92846 0.48166 0.66814 0.0
C1949 C 0.86498 0.43343 0.66651 0.0
C1950 C 0.90084 0.51787 0.66643 0.0
C1951 C 0.85555 0.51207 0.665 0.0
H1952 H 0.16824 0.66673 0.41685 0.0
H1953 H 0.30779 0.65107 0.41982 0.0
H1954 H 0.29976 0.57179 0.417 0.0
H1955 H 0.25209 0.50643 0.41469 0.0
H1956 H 0.11265 0.52379 0.41144 0.0
H1957 H 0.12146 0.60278 0.41343 0.0
C1958 C 0.19692 0.64597 0.41688 0.0
C1959 C 0.23853 0.66475 0.41869 0.0
C1960 C 0.19195 0.60065 0.41529 0.0
C1961 C 0.27546 0.63748 0.4184 0.0
C1962 C 0.27079 0.59213 0.41689 0.0
C1963 C 0.22368 0.52756 0.41449 0.0
C1964 C 0.18163 0.50913 0.41304 0.0
C1965 C 0.22909 0.57324 0.41552 0.0
C1966 C 0.14526 0.53707 0.4125 0.0
C1967 C 0.1503 0.58225 0.41367 0.0
H1968 H 0.08666 0.50345 0.16127 0.0
H1969 H 0.07752 0.44497 0.19904 0.0
H1970 H 0.15453 0.42605 0.1984 0.0
H1971 H 0.22398 0.42249 0.18686 0.0
H1972 H 0.23695 0.48335 0.14967 0.0
H1973 H 0.15955 0.5053 0.15031 0.0
C1974 C 0.10177 0.48716 0.1694 0.0
C1975 C 0.07587 0.47479 0.18006 0.0
C1976 C 0.14678 0.47642 0.16903 0.0
C1977 C 0.09616 0.45381 0.19055 0.0
C1978 C 0.14037 0.44308 0.19024 0.0
C1979 C 0.20974 0.44039 0.17888 0.0
C1980 C 0.23573 0.45056 0.16813 0.0
C1981 C 0.16576 0.45335 0.17944 0.0
C1982 C 0.21733 0.4749 0.158 0.0
C1983 C 0.17314 0.4874 0.15838 0.0
H1984 H 0.23064 0.36393 0.9224 0.0
H1985 H 0.36313 0.32091 0.91663 0.0
H1986 H 0.38617 0.39567 0.91193 0.0
H1987 H 0.36997 0.47441 0.91166 0.0
H1988 H 0.23787 0.51791 0.91821 0.0
H1989 H 0.2133 0.44248 0.92041 0.0
C1990 C 0.26425 0.37105 0.91983 0.0
C1991 C 0.29522 0.33728 0.9199 0.0
C1992 C 0.27748 0.41437 0.9175 0.0
C1993 C 0.33889 0.34667 0.91672 0.0
C1994 C 0.35207 0.38935 0.91406 0.0
C1995 C 0.33577 0.4672 0.9134 0.0
C1996 C 0.30606 0.50166 0.91504 0.0
C1997 C 0.32191 0.42367 0.91479 0.0
C1998 C 0.2617 0.49199 0.91728 0.0
C1999 C 0.24751 0.44881 0.91844 0.0
H2000 H 0.41224 0.53512 0.68765 0.0
H2001 H 0.4344 0.4976 0.64813 0.0
H2002 H 0.35859 0.51717 0.64272 0.0
H2003 H 0.2864 0.5478 0.64932 0.0
H2004 H 0.26557 0.58315 0.68911 0.0
H2005 H 0.34068 0.56243 0.69435 0.0
C2006 C 0.40044 0.53118 0.67785 0.0
C2007 C 0.42895 0.51528 0.66828 0.0
C2008 C 0.35723 0.54273 0.67487 0.0
C2009 C 0.413 0.50949 0.65567 0.0
C2010 C 0.36981 0.5211 0.65258 0.0
C2011 C 0.29865 0.55133 0.65908 0.0
C2012 C 0.2708 0.56757 0.66882 0.0
C2013 C 0.34178 0.53838 0.66207 0.0
C2014 C 0.28657 0.57097 0.6815 0.0
C2015 C 0.32939 0.55903 0.68449 0.0
H2016 H 0.17088 0.35043 0.09004 0.0
H2017 H 0.31071 0.3646 0.0935 0.0
H2018 H 0.30259 0.44437 0.09312 0.0
H2019 H 0.25465 0.51006 0.0932 0.0
H2020 H 0.1148 0.49333 0.09144 0.0
H2021 H 0.12391 0.41421 0.09026 0.0
C2022 C 0.19976 0.37067 0.0909 0.0
C2023 C 0.24136 0.3512 0.09205 0.0
C2024 C 0.19467 0.41612 0.09114 0.0
C2025 C 0.27832 0.37846 0.0926 0.0
C2026 C 0.27361 0.42412 0.09249 0.0
C2027 C 0.22628 0.48901 0.09246 0.0
C2028 C 0.18398 0.5075 0.09241 0.0
C2029 C 0.23182 0.44331 0.09197 0.0
C2030 C 0.1475 0.47985 0.09163 0.0
C2031 C 0.15276 0.43468 0.09088 0.0
H2032 H 0.414 0.47109 0.81681 0.0
H2033 H 0.43742 0.51205 0.85599 0.0
H2034 H 0.36195 0.49254 0.86176 0.0
H2035 H 0.28956 0.46142 0.85559 0.0
H2036 H 0.26746 0.42242 0.81616 0.0
H2037 H 0.34242 0.44265 0.81055 0.0
C2038 C 0.40263 0.47569 0.82663 0.0
C2039 C 0.4314 0.49262 0.83599 0.0
C2040 C 0.35958 0.46416 0.82983 0.0
C2041 C 0.41586 0.49933 0.8486 0.0
C2042 C 0.37285 0.48778 0.85191 0.0
C2043 C 0.30151 0.45695 0.84583 0.0
C2044 C 0.27332 0.43989 0.8363 0.0
C2045 C 0.34454 0.46961 0.84263 0.0
C2046 C 0.28871 0.43527 0.82362 0.0
C2047 C 0.33145 0.44693 0.82042 0.0
H2048 H 0.30312 0.54113 0.60495 0.0
H2049 H 0.33689 0.52264 0.56494 0.0
H2050 H 0.31706 0.59833 0.56025 0.0
H2051 H 0.29154 0.66985 0.56755 0.0
H2052 H 0.25559 0.68959 0.6073 0.0
H2053 H 0.27369 0.61306 0.61211 0.0
C2054 C 0.30644 0.554 0.59525 0.0
C2055 C 0.32204 0.52671 0.5853 0.0
C2056 C 0.29403 0.59742 0.59259 0.0
C2057 C 0.32519 0.54324 0.57271 0.0
C2058 C 0.31377 0.58638 0.57004 0.0
C2059 C 0.28755 0.65732 0.57726 0.0
C2060 C 0.27262 0.68532 0.58709 0.0
C2061 C 0.29826 0.61372 0.57989 0.0
C2062 C 0.26676 0.66854 0.59958 0.0
C2063 C 0.27753 0.62496 0.60233 0.0
H2064 H 0.10185 0.52515 0.31947 0.0
H2065 H 0.0765 0.50319 0.3598 0.0
H2066 H 0.15264 0.52228 0.365 0.0
H2067 H 0.22616 0.54814 0.35787 0.0
H2068 H 0.25054 0.56639 0.3173 0.0
H2069 H 0.17494 0.54656 0.31231 0.0
C2070 C 0.11313 0.52443 0.32939 0.0
C2071 C 0.08371 0.51316 0.33925 0.0
C2072 C 0.15659 0.53535 0.33222 0.0
C2073 C 0.09874 0.51154 0.35205 0.0
C2074 C 0.14209 0.52283 0.35501 0.0
C2075 C 0.21454 0.548 0.34798 0.0
C2076 C 0.24342 0.55924 0.33794 0.0
C2077 C 0.17119 0.53541 0.34518 0.0
C2078 C 0.22862 0.55805 0.32513 0.0
C2079 C 0.18555 0.54665 0.32229 0.0
H2080 H 0.57262 0.27498 0.10761 0.0
H2081 H 0.59264 0.31872 0.06846 0.0
H2082 H 0.51728 0.30047 0.06315 0.0
H2083 H 0.44503 0.27253 0.06947 0.0
H2084 H 0.4246 0.2271 0.1084 0.0
H2085 H 0.50011 0.24574 0.11388 0.0
C2086 C 0.5606 0.2804 0.0979 0.0
C2087 C 0.58881 0.29819 0.08847 0.0
C2088 C 0.51677 0.26973 0.09485 0.0
C2089 C 0.57223 0.30488 0.07594 0.0
C2090 C 0.52885 0.29459 0.07288 0.0
C2091 C 0.45691 0.26687 0.07918 0.0
C2092 C 0.42871 0.24862 0.0885 0.0
C2093 C 0.50072 0.27714 0.08224 0.0
C2094 C 0.44524 0.24117 0.101 0.0
C2095 C 0.48859 0.25179 0.10415 0.0
H2096 H 0.02727 0.31719 0.35583 0.0
H2097 H 0.92989 0.31969 0.32569 0.0
H2098 H 0.94505 0.2434 0.3206 0.0
H2099 H 0.98499 0.17507 0.32484 0.0
H2100 H 0.08573 0.17312 0.35394 0.0
H2101 H 0.07036 0.24956 0.35925 0.0
C2102 C 0.00947 0.30108 0.34812 0.0
C2103 C 0.9773 0.3244 0.34121 0.0
C2104 C 0.0189 0.25703 0.34506 0.0
C2105 C 0.9549 0.30288 0.33117 0.0
C2106 C 0.96344 0.25904 0.32827 0.0
C2107 C 1.00356 0.19133 0.33237 0.0
C2108 C 0.03629 0.16811 0.33904 0.0
C2109 C 0.99517 0.23566 0.33518 0.0
C2110 C 0.06043 0.19007 0.34862 0.0
C2111 C 0.05156 0.23384 0.35169 0.0
H2112 H 0.07561 0.7897 0.59776 0.0
H2113 H 0.07208 0.83961 0.55884 0.0
H2114 H 0.99844 0.81171 0.55598 0.0
H2115 H 0.93307 0.77681 0.56459 0.0
H2116 H 0.93375 0.72552 0.60331 0.0
H2117 H 0.00954 0.75007 0.60614 0.0
C2118 C 0.0589 0.79375 0.58861 0.0
C2119 C 0.07959 0.81706 0.57856 0.0
C2120 C 0.01552 0.77785 0.58701 0.0
C2121 C 0.05709 0.82226 0.5668 0.0
C2122 C 0.01474 0.80633 0.56513 0.0
C2123 C 0.94962 0.77092 0.57368 0.0
C2124 C 0.92721 0.74968 0.58375 0.0
C2125 C 0.99327 0.78485 0.57521 0.0
C2126 C 0.94985 0.74197 0.59538 0.0
C2127 C 0.99337 0.75601 0.59701 0.0
H2128 H 0.52501 0.83226 0.82079 0.0
H2129 H 0.45823 0.84386 0.8573 0.0
H2130 H 0.47399 0.7674 0.86208 0.0
H2131 H 0.50771 0.69701 0.85611 0.0
H2132 H 0.57144 0.68424 0.81914 0.0
H2133 H 0.55567 0.76069 0.81435 0.0
C2134 C 0.51398 0.81809 0.8298 0.0
C2135 C 0.49068 0.84414 0.8387 0.0
C2136 C 0.52248 0.77358 0.83242 0.0
C2137 C 0.47619 0.82483 0.85026 0.0
C2138 C 0.48524 0.78097 0.85302 0.0
C2139 C 0.518 0.71083 0.84697 0.0
C2140 C 0.54095 0.68459 0.83805 0.0
C2141 C 0.50844 0.75498 0.84419 0.0
C2142 C 0.55367 0.70332 0.82622 0.0
C2143 C 0.5448 0.74726 0.82347 0.0
H2144 H 0.53915 0.66419 0.42594 0.0
H2145 H 0.62312 0.77726 0.42692 0.0
H2146 H 0.55903 0.82518 0.42598 0.0
H2147 H 0.47876 0.83501 0.42568 0.0
H2148 H 0.39498 0.7221 0.42303 0.0
H2149 H 0.45911 0.67414 0.4237 0.0
C2150 C 0.5434 0.69935 0.42592 0.0
C2151 C 0.58596 0.7171 0.42666 0.0
C2152 C 0.50634 0.72672 0.42506 0.0
C2153 C 0.59087 0.76271 0.42638 0.0
C2154 C 0.55416 0.79013 0.42588 0.0
C2155 C 0.47455 0.79988 0.42517 0.0
C2156 C 0.43198 0.78219 0.42441 0.0
C2157 C 0.51171 0.77253 0.42533 0.0
C2158 C 0.42723 0.73663 0.42358 0.0
C2159 C 0.46395 0.70918 0.42404 0.0
H2160 H 0.54147 0.17508 0.68332 0.0
H2161 H 0.43167 0.16949 0.65728 0.0
H2162 H 0.44306 0.2462 0.6515 0.0
H2163 H 0.48517 0.31533 0.65367 0.0
H2164 H 0.59134 0.32122 0.68105 0.0
H2165 H 0.58037 0.24459 0.68644 0.0
C2166 C 0.52004 0.19058 0.67636 0.0
C2167 C 0.48602 0.16623 0.67066 0.0
C2168 C 0.52612 0.23508 0.67332 0.0
C2169 C 0.45817 0.18727 0.66182 0.0
C2170 C 0.46472 0.23122 0.65849 0.0
C2171 C 0.5058 0.29983 0.66083 0.0
C2172 C 0.53917 0.32426 0.66689 0.0
C2173 C 0.49871 0.25554 0.66414 0.0
C2174 C 0.56528 0.30356 0.67625 0.0
C2175 C 0.55915 0.25953 0.67933 0.0
H2176 H 0.97637 0.34378 0.9231 0.0
H2177 H 0.89381 0.23009 0.91971 0.0
H2178 H 0.95817 0.18276 0.92095 0.0
H2179 H 0.0378 0.17351 0.92374 0.0
H2180 H 0.12076 0.28719 0.92601 0.0
H2181 H 0.05649 0.3346 0.92443 0.0
C2182 C 0.97243 0.30862 0.92259 0.0
C2183 C 0.93011 0.29057 0.92141 0.0
C2184 C 0.00973 0.28159 0.92315 0.0
C2185 C 0.92582 0.24495 0.92059 0.0
C2186 C 0.96268 0.21784 0.92135 0.0
C2187 C 0.04187 0.20869 0.92388 0.0
C2188 C 0.08417 0.22672 0.92513 0.0
C2189 C 1.00475 0.23576 0.92276 0.0
C2190 C 0.08875 0.27238 0.92507 0.0
C2191 C 0.05193 0.29952 0.9242 0.0
H2192 H 0.91774 0.72114 0.17716 0.0
H2193 H 0.02621 0.63234 0.17297 0.0
H2194 H 0.07669 0.69431 0.17148 0.0
H2195 H 0.09034 0.77398 0.17207 0.0
H2196 H 0.98119 0.86258 0.17505 0.0
H2197 H 0.93079 0.80062 0.17624 0.0
C2198 C 0.95244 0.71529 0.17589 0.0
C2199 C 0.96814 0.67197 0.17529 0.0
C2200 C 0.98121 0.75117 0.17484 0.0
C2201 C 0.01315 0.66518 0.17346 0.0
C2202 C 0.04207 0.70068 0.17264 0.0
C2203 C 0.0555 0.77977 0.17295 0.0
C2204 C 0.03971 0.82308 0.17357 0.0
C2205 C 0.02654 0.74385 0.17343 0.0
C2206 C 0.99435 0.82979 0.17453 0.0
C2207 C 0.96548 0.79429 0.17526 0.0
H2208 H 0.47219 0.67205 0.92248 0.0
H2209 H 0.38805 0.78472 0.92025 0.0
H2210 H 0.45214 0.83272 0.91981 0.0
H2211 H 0.5323 0.84287 0.92099 0.0
H2212 H 0.61641 0.72995 0.92187 0.0
H2213 H 0.55234 0.68195 0.92187 0.0
C2214 C 0.46786 0.70712 0.92182 0.0
C2215 C 0.42523 0.72474 0.9215 0.0
C2216 C 0.50496 0.7345 0.92139 0.0
C2217 C 0.42034 0.77023 0.92048 0.0
C2218 C 0.45704 0.79772 0.9203 0.0
C2219 C 0.53661 0.80773 0.92114 0.0
C2220 C 0.57922 0.79008 0.92156 0.0
C2221 C 0.49952 0.78027 0.9209 0.0
C2222 C 0.58413 0.74445 0.92155 0.0
C2223 C 0.54744 0.71698 0.92159 0.0
H2224 H 0.0929 0.72741 0.67168 0.0
H2225 H 0.98527 0.63663 0.66939 0.0
H2226 H 0.93343 0.69746 0.66975 0.0
H2227 H 0.91835 0.77655 0.67144 0.0
H2228 H 0.02605 0.86745 0.67274 0.0
H2229 H 0.07793 0.80668 0.67202 0.0
C2230 C 0.0581 0.72087 0.67121 0.0
C2231 C 0.04315 0.67726 0.67059 0.0
C2232 C 0.02837 0.75616 0.67129 0.0
C2233 C 0.99787 0.66967 0.66984 0.0
C2234 C 0.96812 0.70452 0.6701 0.0
C2235 C 0.95319 0.78312 0.67155 0.0
C2236 C 0.96815 0.82671 0.67225 0.0
C2237 C 0.98295 0.74791 0.67095 0.0
C2238 C 0.01348 0.83442 0.6722 0.0
C2239 C 0.04322 0.79959 0.67183 0.0
H2240 H 0.97385 0.16608 0.42391 0.0
H2241 H 0.88925 0.27833 0.42153 0.0
H2242 H 0.95322 0.32649 0.42045 0.0
H2243 H 0.03353 0.33692 0.42108 0.0
H2244 H 0.11797 0.22425 0.42186 0.0
H2245 H 0.054 0.17612 0.42259 0.0
C2246 C 0.96941 0.2011 0.4231 0.0
C2247 C 0.92669 0.21857 0.42293 0.0
C2248 C 1.00643 0.22853 0.42222 0.0
C2249 C 0.92161 0.26397 0.42167 0.0
C2250 C 0.95825 0.29154 0.4211 0.0
C2251 C 0.03792 0.3018 0.42135 0.0
C2252 C 0.08064 0.28427 0.42154 0.0
C2253 C 1.00085 0.27424 0.42151 0.0
C2254 C 0.08563 0.23866 0.42169 0.0
C2255 C 0.04898 0.21112 0.42216 0.0
H2256 H 0.48005 0.18573 0.15324 0.0
H2257 H 0.58253 0.1813 0.18183 0.0
H2258 H 0.57034 0.25811 0.18696 0.0
H2259 H 0.53224 0.32767 0.18294 0.0
H2260 H 0.42657 0.33165 0.15542 0.0
H2261 H 0.43817 0.25441 0.15033 0.0
C2262 C 0.49956 0.20153 0.16063 0.0
C2263 C 0.53236 0.17753 0.16708 0.0
C2264 C 0.49186 0.24589 0.16373 0.0
C2265 C 0.55699 0.19864 0.17672 0.0
C2266 C 0.55015 0.24277 0.17964 0.0
C2267 C 0.51161 0.31163 0.17586 0.0
C2268 C 0.47877 0.33574 0.16951 0.0
C2269 C 0.51794 0.26687 0.17315 0.0
C2270 C 0.45205 0.31407 0.16048 0.0
C2271 C 0.45878 0.26983 0.15753 0.0
H2272 H 0.53754 0.18041 0.58387 0.0
H2273 H 0.62548 0.29055 0.58397 0.0
H2274 H 0.5631 0.3406 0.5838 0.0
H2275 H 0.48337 0.35324 0.58298 0.0
H2276 H 0.3954 0.24315 0.58399 0.0
H2277 H 0.45777 0.19314 0.58444 0.0
C2278 C 0.5431 0.21538 0.58387 0.0
C2279 C 0.58634 0.23159 0.58382 0.0
C2280 C 0.50695 0.24406 0.58397 0.0
C2281 C 0.59274 0.27706 0.58401 0.0
C2282 C 0.55699 0.30574 0.58387 0.0
C2283 C 0.47779 0.31829 0.58335 0.0
C2284 C 0.43454 0.30209 0.58337 0.0
C2285 C 0.51393 0.28964 0.58376 0.0
C2286 C 0.42814 0.25666 0.58399 0.0
C2287 C 0.46388 0.22798 0.5842 0.0
H2288 H 0.47523 0.83063 0.33713 0.0
H2289 H 0.61433 0.81429 0.33213 0.0
H2290 H 0.60486 0.73498 0.33144 0.0
H2291 H 0.55684 0.67001 0.33176 0.0
H2292 H 0.41787 0.68682 0.33704 0.0
H2293 H 0.42766 0.76592 0.33807 0.0
C2294 C 0.50362 0.80984 0.33592 0.0
C2295 C 0.54553 0.82881 0.33467 0.0
C2296 C 0.49792 0.76412 0.33552 0.0
C2297 C 0.58174 0.80095 0.33318 0.0
C2298 C 0.5763 0.75545 0.33273 0.0
C2299 C 0.52861 0.6909 0.33313 0.0
C2300 C 0.48655 0.6721 0.33424 0.0
C2301 C 0.53451 0.73663 0.3338 0.0
C2302 C 0.45058 0.70002 0.33613 0.0
C2303 C 0.45616 0.74541 0.33672 0.0
H2304 H 0.0384 0.68288 0.08006 0.0
H2305 H 0.12524 0.79228 0.08571 0.0
H2306 H 0.06261 0.84195 0.08625 0.0
H2307 H 0.98311 0.85473 0.08464 0.0
H2308 H 0.89587 0.74503 0.08019 0.0
H2309 H 0.95848 0.69524 0.07974 0.0
C2310 C 0.04366 0.71761 0.08142 0.0
C2311 C 0.08669 0.73377 0.08274 0.0
C2312 C 1.0073 0.746 0.08194 0.0
C2313 C 0.09266 0.77884 0.08467 0.0
C2314 C 0.05679 0.80732 0.08495 0.0
C2315 C 0.97773 0.8199 0.08359 0.0
C2316 C 0.93466 0.80378 0.08235 0.0
C2317 C 0.01396 0.79134 0.08352 0.0
C2318 C 0.92848 0.75845 0.08118 0.0
C2319 C 0.96437 0.72993 0.08087 0.0
H2320 H 0.09833 0.282 0.83539 0.0
H2321 H 0.98804 0.36966 0.83468 0.0
H2322 H 0.93802 0.30718 0.8341 0.0
H2323 H 0.92557 0.22736 0.83298 0.0
H2324 H 0.03581 0.13984 0.83487 0.0
H2325 H 0.0857 0.20233 0.8358 0.0
C2326 C 0.06332 0.28751 0.83517 0.0
C2327 C 0.0471 0.33071 0.835 0.0
C2328 C 0.03468 0.25131 0.83499 0.0
C2329 C 1.00156 0.33698 0.83487 0.0
C2330 C 0.97291 0.30117 0.83447 0.0
C2331 C 0.96053 0.22192 0.83361 0.0
C2332 C 0.97685 0.17875 0.83372 0.0
C2333 C 0.98907 0.25816 0.83438 0.0
C2334 C 0.02225 0.17251 0.83475 0.0
C2335 C 0.05084 0.20832 0.83526 0.0
loop_
_geom_bond_atom_site_label_1
_geom_bond_atom_site_label_2
_geom_bond_distance
_geom_bond_site_symmetry_2
_ccdc_geom_bond_type
Co0 N4 2.148 . S
Co0 N10 2.128 . S
Co0 N20 2.194 . S
Co0 O25 2.351 . S
Co0 O26 2.155 . S
Co0 O27 2.096 . S
C1 N4 1.301 . S
C1 N5 1.328 . S
C1 H6 0.930 . S
C2 C3 1.333 . S
C2 N4 1.317 . S
C2 H7 0.930 . S
C3 C2 1.333 . S
C3 N5 1.350 . S
C3 H29 0.931 . S
N4 Co0 2.148 . S
N4 C1 1.301 . S
N4 C2 1.317 . S
N5 C1 1.328 . S
N5 C3 1.350 . S
H6 C1 0.930 . S
H7 C2 0.930 . S
C8 O9 1.224 . S
C8 O27 1.247 . S
O9 C8 1.224 . S
N10 Co0 2.128 . S
N10 C11 1.355 . S
N10 C13 1.311 . S
C11 N10 1.355 . S
C11 C12 1.363 . S
C11 H23 0.929 . S
C12 C11 1.363 . S
C12 N14 1.375 . S
C12 H30 0.931 . S
C13 N10 1.311 . S
C13 N14 1.347 . S
C13 H24 0.929 . S
N14 C12 1.375 . S
N14 C13 1.347 . S
C15 C18 1.365 . S
C15 N20 1.328 . S
C15 H21 0.929 . S
C16 C17 1.362 . S
C16 C19 1.378 . S
C16 H31 0.929 . S
C17 C16 1.362 . S
C17 C18 1.366 . S
C18 C15 1.365 . S
C18 C17 1.366 . S
C18 H32 0.930 . S
C19 C16 1.378 . S
C19 N20 1.315 . S
C19 H22 0.930 . S
N20 Co0 2.194 . S
N20 C15 1.328 . S
N20 C19 1.315 . S
H21 C15 0.929 . S
H22 C19 0.930 . S
H23 C11 0.929 . S
H24 C13 0.929 . S
O25 Co0 2.351 . S
O25 C28 1.244 . S
O26 Co0 2.155 . S
O26 C28 1.240 . S
O27 Co0 2.096 . S
O27 C8 1.247 . S
C28 O25 1.244 . S
C28 O26 1.240 . S
H29 C3 0.931 . S
H30 C12 0.931 . S
H31 C16 0.929 . S
H32 C18 0.930 . S
Co33 N37 2.148 . S
Co33 N43 2.128 . S
Co33 N53 2.194 . S
Co33 O58 2.351 1_545 S
Co33 O59 2.155 . S
Co33 O60 2.096 . S
C34 N37 1.301 . S
C34 N38 1.328 . S
C34 H39 0.930 . S
C35 C36 1.333 . S
C35 N37 1.317 . S
C35 H40 0.930 . S
C36 C35 1.333 . S
C36 N38 1.350 . S
C36 H62 0.931 . S
N37 Co33 2.148 . S
N37 C34 1.301 . S
N37 C35 1.317 . S
N38 C34 1.328 . S
N38 C36 1.350 . S
H39 C34 0.930 . S
H40 C35 0.930 . S
C41 O42 1.224 . S
C41 O60 1.247 . S
O42 C41 1.224 . S
N43 Co33 2.128 . S
N43 C44 1.355 1_445 S
N43 C46 1.311 1_455 S
C44 N43 1.355 1_665 S
C44 C45 1.363 . S
C44 H56 0.929 1_655 S
C45 C44 1.363 . S
C45 N47 1.375 1_565 S
C45 H63 0.931 . S
C46 N43 1.311 1_655 S
C46 N47 1.347 . S
C46 H57 0.929 . S
N47 C45 1.375 1_545 S
N47 C46 1.347 . S
C48 C51 1.365 . S
C48 N53 1.328 1_565 S
C48 H54 0.929 . S
C49 C50 1.362 1_545 S
C49 C52 1.378 . S
C49 H64 0.929 . S
C50 C49 1.362 1_565 S
C50 C51 1.366 . S
C51 C48 1.365 . S
C51 C50 1.366 . S
C51 H65 0.930 . S
C52 C49 1.378 . S
C52 N53 1.315 . S
C52 H55 0.930 . S
N53 Co33 2.194 . S
N53 C48 1.328 1_545 S
N53 C52 1.315 . S
H54 C48 0.929 . S
H55 C52 0.930 . S
H56 C44 0.929 1_455 S
H57 C46 0.929 . S
O58 Co33 2.351 1_565 S
O58 C61 1.244 . S
O59 Co33 2.155 . S
O59 C61 1.240 1_545 S
O60 Co33 2.096 . S
O60 C41 1.247 . S
C61 O58 1.244 . S
C61 O59 1.240 1_565 S
H62 C36 0.931 . S
H63 C45 0.931 . S
H64 C49 0.929 . S
H65 C51 0.930 . S
Co66 N70 2.148 . S
Co66 N76 2.128 . S
Co66 N86 2.194 . S
Co66 O91 2.351 . S
Co66 O92 2.155 . S
Co66 O93 2.096 . S
C67 N70 1.301 . S
C67 N71 1.328 . S
C67 H72 0.930 . S
C68 C69 1.333 . S
C68 N70 1.317 . S
C68 H73 0.930 . S
C69 C68 1.333 . S
C69 N71 1.350 . S
C69 H95 0.931 . S
N70 Co66 2.148 . S
N70 C67 1.301 . S
N70 C68 1.317 . S
N71 C67 1.328 . S
N71 C69 1.350 . S
H72 C67 0.930 . S
H73 C68 0.930 . S
C74 O75 1.224 . S
C74 O93 1.247 . S
O75 C74 1.224 . S
N76 Co66 2.128 . S
N76 C77 1.355 . S
N76 C79 1.311 . S
C77 N76 1.355 . S
C77 C78 1.363 . S
C77 H89 0.929 . S
C78 C77 1.363 . S
C78 N80 1.375 . S
C78 H96 0.931 . S
C79 N76 1.311 . S
C79 N80 1.347 . S
C79 H90 0.929 . S
N80 C78 1.375 . S
N80 C79 1.347 . S
C81 C84 1.365 . S
C81 N86 1.328 . S
C81 H87 0.929 . S
C82 C83 1.362 . S
C82 C85 1.378 . S
C82 H97 0.929 . S
C83 C82 1.362 . S
C83 C84 1.366 . S
C84 C81 1.365 . S
C84 C83 1.366 . S
C84 H98 0.930 . S
C85 C82 1.378 . S
C85 N86 1.315 . S
C85 H88 0.930 . S
N86 Co66 2.194 . S
N86 C81 1.328 . S
N86 C85 1.315 . S
H87 C81 0.929 . S
H88 C85 0.930 . S
H89 C77 0.929 . S
H90 C79 0.929 . S
O91 Co66 2.351 . S
O91 C94 1.244 . S
O92 Co66 2.155 . S
O92 C94 1.240 . S
O93 Co66 2.096 . S
O93 C74 1.247 . S
C94 O91 1.244 . S
C94 O92 1.240 . S
H95 C69 0.931 . S
H96 C78 0.931 . S
H97 C82 0.929 . S
H98 C84 0.930 . S
Co99 N103 2.148 . S
Co99 N109 2.128 . S
Co99 N119 2.194 . S
Co99 O124 2.351 1_565 S
Co99 O125 2.155 . S
Co99 O126 2.096 . S
C100 N103 1.301 . S
C100 N104 1.328 . S
C100 H105 0.930 . S
C101 C102 1.333 . S
C101 N103 1.317 . S
C101 H106 0.930 . S
C102 C101 1.333 . S
C102 N104 1.350 . S
C102 H128 0.931 . S
N103 Co99 2.148 . S
N103 C100 1.301 . S
N103 C101 1.317 . S
N104 C100 1.328 . S
N104 C102 1.350 . S
H105 C100 0.930 . S
H106 C101 0.930 . S
C107 O108 1.224 . S
C107 O126 1.247 . S
O108 C107 1.224 . S
N109 Co99 2.128 . S
N109 C110 1.355 1_565 S
N109 C112 1.311 . S
C110 N109 1.355 1_545 S
C110 C111 1.363 . S
C110 H122 0.929 . S
C111 C110 1.363 . S
C111 N113 1.375 1_545 S
C111 H129 0.931 . S
C112 N109 1.311 . S
C112 N113 1.347 . S
C112 H123 0.929 . S
N113 C111 1.375 1_565 S
N113 C112 1.347 . S
C114 C117 1.365 . S
C114 N119 1.328 1_545 S
C114 H120 0.929 . S
C115 C116 1.362 1_565 S
C115 C118 1.378 . S
C115 H130 0.929 . S
C116 C115 1.362 1_545 S
C116 C117 1.366 . S
C117 C114 1.365 . S
C117 C116 1.366 . S
C117 H131 0.930 . S
C118 C115 1.378 . S
C118 N119 1.315 . S
C118 H121 0.930 . S
N119 Co99 2.194 . S
N119 C114 1.328 1_565 S
N119 C118 1.315 . S
H120 C114 0.929 . S
H121 C118 0.930 . S
H122 C110 0.929 . S
H123 C112 0.929 . S
O124 Co99 2.351 1_545 S
O124 C127 1.244 . S
O125 Co99 2.155 . S
O125 C127 1.240 1_565 S
O126 Co99 2.096 . S
O126 C107 1.247 . S
C127 O124 1.244 . S
C127 O125 1.240 1_545 S
H128 C102 0.931 . S
H129 C111 0.931 . S
H130 C115 0.929 . S
H131 C117 0.930 . S
Co132 N136 2.148 . S
Co132 N142 2.128 . S
Co132 N152 2.194 . S
Co132 O157 2.351 . S
Co132 O158 2.155 . S
Co132 O159 2.096 . S
C133 N136 1.301 . S
C133 N137 1.328 . S
C133 H138 0.930 . S
C134 C135 1.333 . S
C134 N136 1.317 . S
C134 H139 0.930 . S
C135 C134 1.333 . S
C135 N137 1.350 . S
C135 H161 0.931 . S
N136 Co132 2.148 . S
N136 C133 1.301 . S
N136 C134 1.317 . S
N137 C133 1.328 . S
N137 C135 1.350 . S
H138 C133 0.930 . S
H139 C134 0.930 . S
C140 O141 1.224 . S
C140 O159 1.247 . S
O141 C140 1.224 . S
N142 Co132 2.128 . S
N142 C143 1.355 . S
N142 C145 1.311 . S
C143 N142 1.355 . S
C143 C144 1.363 . S
C143 H155 0.929 . S
C144 C143 1.363 . S
C144 N146 1.375 . S
C144 H162 0.931 . S
C145 N142 1.311 . S
C145 N146 1.347 . S
C145 H156 0.929 . S
N146 C144 1.375 . S
N146 C145 1.347 . S
C147 C150 1.365 . S
C147 N152 1.328 . S
C147 H153 0.929 . S
C148 C149 1.362 . S
C148 C151 1.378 . S
C148 H163 0.929 . S
C149 C148 1.362 . S
C149 C150 1.366 . S
C150 C147 1.365 . S
C150 C149 1.366 . S
C150 H164 0.930 . S
C151 C148 1.378 . S
C151 N152 1.315 . S
C151 H154 0.930 . S
N152 Co132 2.194 . S
N152 C147 1.328 . S
N152 C151 1.315 . S
H153 C147 0.929 . S
H154 C151 0.930 . S
H155 C143 0.929 . S
H156 C145 0.929 . S
O157 Co132 2.351 . S
O157 C160 1.244 . S
O158 Co132 2.155 . S
O158 C160 1.240 . S
O159 Co132 2.096 . S
O159 C140 1.247 . S
C160 O157 1.244 . S
C160 O158 1.240 . S
H161 C135 0.931 . S
H162 C144 0.931 . S
H163 C148 0.929 . S
H164 C150 0.930 . S
Co165 N169 2.148 . S
Co165 N175 2.128 . S
Co165 N185 2.194 . S
Co165 O190 2.351 1_545 S
Co165 O191 2.155 . S
Co165 O192 2.096 . S
C166 N169 1.301 . S
C166 N170 1.328 . S
C166 H171 0.930 . S
C167 C168 1.333 . S
C167 N169 1.317 . S
C167 H172 0.930 . S
C168 C167 1.333 . S
C168 N170 1.350 . S
C168 H194 0.931 . S
N169 Co165 2.148 . S
N169 C166 1.301 . S
N169 C167 1.317 . S
N170 C166 1.328 . S
N170 C168 1.350 . S
H171 C166 0.930 . S
H172 C167 0.930 . S
C173 O174 1.224 . S
C173 O192 1.247 . S
O174 C173 1.224 . S
N175 Co165 2.128 . S
N175 C176 1.355 1_545 S
N175 C178 1.311 . S
C176 N175 1.355 1_565 S
C176 C177 1.363 . S
C176 H188 0.929 . S
C177 C176 1.363 . S
C177 N179 1.375 1_565 S
C177 H195 0.931 . S
C178 N175 1.311 . S
C178 N179 1.347 . S
C178 H189 0.929 . S
N179 C177 1.375 1_545 S
N179 C178 1.347 . S
C180 C183 1.365 . S
C180 N185 1.328 1_565 S
C180 H186 0.929 . S
C181 C182 1.362 1_545 S
C181 C184 1.378 . S
C181 H196 0.929 . S
C182 C181 1.362 1_565 S
C182 C183 1.366 . S
C183 C180 1.365 . S
C183 C182 1.366 . S
C183 H197 0.930 . S
C184 C181 1.378 . S
C184 N185 1.315 . S
C184 H187 0.930 . S
N185 Co165 2.194 . S
N185 C180 1.328 1_545 S
N185 C184 1.315 . S
H186 C180 0.929 . S
H187 C184 0.930 . S
H188 C176 0.929 . S
H189 C178 0.929 . S
O190 Co165 2.351 1_565 S
O190 C193 1.244 . S
O191 Co165 2.155 . S
O191 C193 1.240 1_545 S
O192 Co165 2.096 . S
O192 C173 1.247 . S
C193 O190 1.244 . S
C193 O191 1.240 1_565 S
H194 C168 0.931 . S
H195 C177 0.931 . S
H196 C181 0.929 . S
H197 C183 0.930 . S
Co198 N202 2.148 . S
Co198 N208 2.128 . S
Co198 N218 2.194 . S
Co198 O223 2.351 . S
Co198 O224 2.155 . S
Co198 O225 2.096 . S
C199 N202 1.301 . S
C199 N203 1.328 . S
C199 H204 0.930 . S
C200 C201 1.333 . S
C200 N202 1.317 . S
C200 H205 0.930 . S
C201 C200 1.333 . S
C201 N203 1.350 . S
C201 H227 0.931 . S
N202 Co198 2.148 . S
N202 C199 1.301 . S
N202 C200 1.317 . S
N203 C199 1.328 . S
N203 C201 1.350 . S
H204 C199 0.930 . S
H205 C200 0.930 . S
C206 O207 1.224 . S
C206 O225 1.247 . S
O207 C206 1.224 . S
N208 Co198 2.128 . S
N208 C209 1.355 . S
N208 C211 1.311 . S
C209 N208 1.355 . S
C209 C210 1.363 . S
C209 H221 0.929 . S
C210 C209 1.363 . S
C210 N212 1.375 . S
C210 H228 0.931 . S
C211 N208 1.311 . S
C211 N212 1.347 . S
C211 H222 0.929 . S
N212 C210 1.375 . S
N212 C211 1.347 . S
C213 C216 1.365 . S
C213 N218 1.328 . S
C213 H219 0.929 . S
C214 C215 1.362 . S
C214 C217 1.378 . S
C214 H229 0.929 . S
C215 C214 1.362 . S
C215 C216 1.366 . S
C216 C213 1.365 . S
C216 C215 1.366 . S
C216 H230 0.930 . S
C217 C214 1.378 . S
C217 N218 1.315 . S
C217 H220 0.930 . S
N218 Co198 2.194 . S
N218 C213 1.328 . S
N218 C217 1.315 . S
H219 C213 0.929 . S
H220 C217 0.930 . S
H221 C209 0.929 . S
H222 C211 0.929 . S
O223 Co198 2.351 . S
O223 C226 1.244 . S
O224 Co198 2.155 . S
O224 C226 1.240 . S
O225 Co198 2.096 . S
O225 C206 1.247 . S
C226 O223 1.244 . S
C226 O224 1.240 . S
H227 C201 0.931 . S
H228 C210 0.931 . S
H229 C214 0.929 . S
H230 C216 0.930 . S
Co231 N235 2.148 . S
Co231 N241 2.128 . S
Co231 N251 2.194 . S
Co231 O256 2.351 1_565 S
Co231 O257 2.155 . S
Co231 O258 2.096 . S
C232 N235 1.301 . S
C232 N236 1.328 . S
C232 H237 0.930 . S
C233 C234 1.333 . S
C233 N235 1.317 . S
C233 H238 0.930 . S
C234 C233 1.333 . S
C234 N236 1.350 . S
C234 H260 0.931 . S
N235 Co231 2.148 . S
N235 C232 1.301 . S
N235 C233 1.317 . S
N236 C232 1.328 . S
N236 C234 1.350 . S
H237 C232 0.930 . S
H238 C233 0.930 . S
C239 O240 1.224 . S
C239 O258 1.247 . S
O240 C239 1.224 . S
N241 Co231 2.128 . S
N241 C242 1.355 1_465 S
N241 C244 1.311 1_455 S
C242 N241 1.355 1_645 S
C242 C243 1.363 . S
C242 H254 0.929 1_655 S
C243 C242 1.363 . S
C243 N245 1.375 1_545 S
C243 H261 0.931 . S
C244 N241 1.311 1_655 S
C244 N245 1.347 . S
C244 H255 0.929 . S
N245 C243 1.375 1_565 S
N245 C244 1.347 . S
C246 C249 1.365 . S
C246 N251 1.328 1_545 S
C246 H252 0.929 . S
C247 C248 1.362 1_565 S
C247 C250 1.378 . S
C247 H262 0.929 . S
C248 C247 1.362 1_545 S
C248 C249 1.366 . S
C249 C246 1.365 . S
C249 C248 1.366 . S
C249 H263 0.930 . S
C250 C247 1.378 . S
C250 N251 1.315 . S
C250 H253 0.930 . S
N251 Co231 2.194 . S
N251 C246 1.328 1_565 S
N251 C250 1.315 . S
H252 C246 0.929 . S
H253 C250 0.930 . S
H254 C242 0.929 1_455 S
H255 C244 0.929 . S
O256 Co231 2.351 1_545 S
O256 C259 1.244 . S
O257 Co231 2.155 . S
O257 C259 1.240 1_565 S
O258 Co231 2.096 . S
O258 C239 1.247 . S
C259 O256 1.244 . S
C259 O257 1.240 1_545 S
H260 C234 0.931 . S
H261 C243 0.931 . S
H262 C247 0.929 . S
H263 C249 0.930 . S
Co264 N268 2.148 . S
Co264 N274 2.128 . S
Co264 N284 2.194 . S
Co264 O289 2.351 . S
Co264 O290 2.155 . S
Co264 O291 2.096 . S
C265 N268 1.301 . S
C265 N269 1.328 . S
C265 H270 0.930 . S
C266 C267 1.333 . S
C266 N268 1.317 . S
C266 H271 0.930 . S
C267 C266 1.333 . S
C267 N269 1.350 . S
C267 H293 0.931 . S
N268 Co264 2.148 . S
N268 C265 1.301 . S
N268 C266 1.317 . S
N269 C265 1.328 . S
N269 C267 1.350 . S
H270 C265 0.930 . S
H271 C266 0.930 . S
C272 O273 1.224 . S
C272 O291 1.247 . S
O273 C272 1.224 . S
N274 Co264 2.128 . S
N274 C275 1.355 . S
N274 C277 1.311 . S
C275 N274 1.355 . S
C275 C276 1.363 . S
C275 H287 0.929 . S
C276 C275 1.363 . S
C276 N278 1.375 . S
C276 H294 0.931 . S
C277 N274 1.311 . S
C277 N278 1.347 . S
C277 H288 0.929 . S
N278 C276 1.375 . S
N278 C277 1.347 . S
C279 C282 1.365 . S
C279 N284 1.328 . S
C279 H285 0.929 . S
C280 C281 1.362 . S
C280 C283 1.378 . S
C280 H295 0.929 . S
C281 C280 1.362 . S
C281 C282 1.366 . S
C282 C279 1.365 . S
C282 C281 1.366 . S
C282 H296 0.930 . S
C283 C280 1.378 . S
C283 N284 1.315 . S
C283 H286 0.930 . S
N284 Co264 2.194 . S
N284 C279 1.328 . S
N284 C283 1.315 . S
H285 C279 0.929 . S
H286 C283 0.930 . S
H287 C275 0.929 . S
H288 C277 0.929 . S
O289 Co264 2.351 . S
O289 C292 1.244 . S
O290 Co264 2.155 . S
O290 C292 1.240 . S
O291 Co264 2.096 . S
O291 C272 1.247 . S
C292 O289 1.244 . S
C292 O290 1.240 . S
H293 C267 0.931 . S
H294 C276 0.931 . S
H295 C280 0.929 . S
H296 C282 0.930 . S
Co297 N301 2.148 . S
Co297 N307 2.128 . S
Co297 N317 2.194 . S
Co297 O322 2.351 1_565 S
Co297 O323 2.155 . S
Co297 O324 2.096 . S
C298 N301 1.301 . S
C298 N302 1.328 . S
C298 H303 0.930 . S
C299 C300 1.333 . S
C299 N301 1.317 . S
C299 H304 0.930 . S
C300 C299 1.333 . S
C300 N302 1.350 . S
C300 H326 0.931 . S
N301 Co297 2.148 . S
N301 C298 1.301 . S
N301 C299 1.317 . S
N302 C298 1.328 . S
N302 C300 1.350 . S
H303 C298 0.930 . S
H304 C299 0.930 . S
C305 O306 1.224 . S
C305 O324 1.247 . S
O306 C305 1.224 . S
N307 Co297 2.128 . S
N307 C308 1.355 1_665 S
N307 C310 1.311 1_655 S
C308 N307 1.355 1_445 S
C308 C309 1.363 . S
C308 H320 0.929 1_455 S
C309 C308 1.363 . S
C309 N311 1.375 1_545 S
C309 H327 0.931 . S
C310 N307 1.311 1_455 S
C310 N311 1.347 . S
C310 H321 0.929 . S
N311 C309 1.375 1_565 S
N311 C310 1.347 . S
C312 C315 1.365 . S
C312 N317 1.328 1_545 S
C312 H318 0.929 . S
C313 C314 1.362 1_565 S
C313 C316 1.378 . S
C313 H328 0.929 . S
C314 C313 1.362 1_545 S
C314 C315 1.366 . S
C315 C312 1.365 . S
C315 C314 1.366 . S
C315 H329 0.930 . S
C316 C313 1.378 . S
C316 N317 1.315 . S
C316 H319 0.930 . S
N317 Co297 2.194 . S
N317 C312 1.328 1_565 S
N317 C316 1.315 . S
H318 C312 0.929 . S
H319 C316 0.930 . S
H320 C308 0.929 1_655 S
H321 C310 0.929 . S
O322 Co297 2.351 1_545 S
O322 C325 1.244 . S
O323 Co297 2.155 . S
O323 C325 1.240 1_565 S
O324 Co297 2.096 . S
O324 C305 1.247 . S
C325 O322 1.244 . S
C325 O323 1.240 1_545 S
H326 C300 0.931 . S
H327 C309 0.931 . S
H328 C313 0.929 . S
H329 C315 0.930 . S
Co330 N334 2.148 . S
Co330 N340 2.128 . S
Co330 N350 2.194 . S
Co330 O355 2.351 . S
Co330 O356 2.155 . S
Co330 O357 2.096 . S
C331 N334 1.301 . S
C331 N335 1.328 . S
C331 H336 0.930 . S
C332 C333 1.333 . S
C332 N334 1.317 . S
C332 H337 0.930 . S
C333 C332 1.333 . S
C333 N335 1.350 . S
C333 H359 0.931 . S
N334 Co330 2.148 . S
N334 C331 1.301 . S
N334 C332 1.317 . S
N335 C331 1.328 . S
N335 C333 1.350 . S
H336 C331 0.930 . S
H337 C332 0.930 . S
C338 O339 1.224 . S
C338 O357 1.247 . S
O339 C338 1.224 . S
N340 Co330 2.128 . S
N340 C341 1.355 . S
N340 C343 1.311 . S
C341 N340 1.355 . S
C341 C342 1.363 . S
C341 H353 0.929 . S
C342 C341 1.363 . S
C342 N344 1.375 . S
C342 H360 0.931 . S
C343 N340 1.311 . S
C343 N344 1.347 . S
C343 H354 0.929 . S
N344 C342 1.375 . S
N344 C343 1.347 . S
C345 C348 1.365 . S
C345 N350 1.328 . S
C345 H351 0.929 . S
C346 C347 1.362 . S
C346 C349 1.378 . S
C346 H361 0.929 . S
C347 C346 1.362 . S
C347 C348 1.366 . S
C348 C345 1.365 . S
C348 C347 1.366 . S
C348 H362 0.930 . S
C349 C346 1.378 . S
C349 N350 1.315 . S
C349 H352 0.930 . S
N350 Co330 2.194 . S
N350 C345 1.328 . S
N350 C349 1.315 . S
H351 C345 0.929 . S
H352 C349 0.930 . S
H353 C341 0.929 . S
H354 C343 0.929 . S
O355 Co330 2.351 . S
O355 C358 1.244 . S
O356 Co330 2.155 . S
O356 C358 1.240 . S
O357 Co330 2.096 . S
O357 C338 1.247 . S
C358 O355 1.244 . S
C358 O356 1.240 . S
H359 C333 0.931 . S
H360 C342 0.931 . S
H361 C346 0.929 . S
H362 C348 0.930 . S
Co363 N367 2.148 . S
Co363 N373 2.128 . S
Co363 N383 2.194 . S
Co363 O388 2.351 1_545 S
Co363 O389 2.155 . S
Co363 O390 2.096 . S
C364 N367 1.301 . S
C364 N368 1.328 . S
C364 H369 0.930 . S
C365 C366 1.333 . S
C365 N367 1.317 . S
C365 H370 0.930 . S
C366 C365 1.333 . S
C366 N368 1.350 . S
C366 H392 0.931 . S
N367 Co363 2.148 . S
N367 C364 1.301 . S
N367 C365 1.317 . S
N368 C364 1.328 . S
N368 C366 1.350 . S
H369 C364 0.930 . S
H370 C365 0.930 . S
C371 O372 1.224 . S
C371 O390 1.247 . S
O372 C371 1.224 . S
N373 Co363 2.128 . S
N373 C374 1.355 1_545 S
N373 C376 1.311 . S
C374 N373 1.355 1_565 S
C374 C375 1.363 . S
C374 H386 0.929 . S
C375 C374 1.363 . S
C375 N377 1.375 1_565 S
C375 H393 0.931 . S
C376 N373 1.311 . S
C376 N377 1.347 . S
C376 H387 0.929 . S
N377 C375 1.375 1_545 S
N377 C376 1.347 . S
C378 C381 1.365 . S
C378 N383 1.328 1_565 S
C378 H384 0.929 . S
C379 C380 1.362 1_545 S
C379 C382 1.378 . S
C379 H394 0.929 . S
C380 C379 1.362 1_565 S
C380 C381 1.366 . S
C381 C378 1.365 . S
C381 C380 1.366 . S
C381 H395 0.930 . S
C382 C379 1.378 . S
C382 N383 1.315 . S
C382 H385 0.930 . S
N383 Co363 2.194 . S
N383 C378 1.328 1_545 S
N383 C382 1.315 . S
H384 C378 0.929 . S
H385 C382 0.930 . S
H386 C374 0.929 . S
H387 C376 0.929 . S
O388 Co363 2.351 1_565 S
O388 C391 1.244 . S
O389 Co363 2.155 . S
O389 C391 1.240 1_545 S
O390 Co363 2.096 . S
O390 C371 1.247 . S
C391 O388 1.244 . S
C391 O389 1.240 1_565 S
H392 C366 0.931 . S
H393 C375 0.931 . S
H394 C379 0.929 . S
H395 C381 0.930 . S
Co396 N400 2.148 . S
Co396 N406 2.128 . S
Co396 N416 2.194 . S
Co396 O421 2.351 . S
Co396 O422 2.155 . S
Co396 O423 2.096 . S
C397 N400 1.301 . S
C397 N401 1.328 . S
C397 H402 0.930 . S
C398 C399 1.333 . S
C398 N400 1.317 . S
C398 H403 0.930 . S
C399 C398 1.333 . S
C399 N401 1.350 . S
C399 H425 0.931 . S
N400 Co396 2.148 . S
N400 C397 1.301 . S
N400 C398 1.317 . S
N401 C397 1.328 . S
N401 C399 1.350 . S
H402 C397 0.930 . S
H403 C398 0.930 . S
C404 O405 1.224 . S
C404 O423 1.247 . S
O405 C404 1.224 . S
N406 Co396 2.128 . S
N406 C407 1.355 . S
N406 C409 1.311 . S
C407 N406 1.355 . S
C407 C408 1.363 . S
C407 H419 0.929 . S
C408 C407 1.363 . S
C408 N410 1.375 . S
C408 H426 0.931 . S
C409 N406 1.311 . S
C409 N410 1.347 . S
C409 H420 0.929 . S
N410 C408 1.375 . S
N410 C409 1.347 . S
C411 C414 1.365 . S
C411 N416 1.328 . S
C411 H417 0.929 . S
C412 C413 1.362 . S
C412 C415 1.378 . S
C412 H427 0.929 . S
C413 C412 1.362 . S
C413 C414 1.366 . S
C414 C411 1.365 . S
C414 C413 1.366 . S
C414 H428 0.930 . S
C415 C412 1.378 . S
C415 N416 1.315 . S
C415 H418 0.930 . S
N416 Co396 2.194 . S
N416 C411 1.328 . S
N416 C415 1.315 . S
H417 C411 0.929 . S
H418 C415 0.930 . S
H419 C407 0.929 . S
H420 C409 0.929 . S
O421 Co396 2.351 . S
O421 C424 1.244 . S
O422 Co396 2.155 . S
O422 C424 1.240 . S
O423 Co396 2.096 . S
O423 C404 1.247 . S
C424 O421 1.244 . S
C424 O422 1.240 . S
H425 C399 0.931 . S
H426 C408 0.931 . S
H427 C412 0.929 . S
H428 C414 0.930 . S
Co429 N433 2.148 . S
Co429 N439 2.128 . S
Co429 N449 2.194 . S
Co429 O454 2.351 1_565 S
Co429 O455 2.155 . S
Co429 O456 2.096 . S
C430 N433 1.301 . S
C430 N434 1.328 . S
C430 H435 0.930 . S
C431 C432 1.333 . S
C431 N433 1.317 . S
C431 H436 0.930 . S
C432 C431 1.333 . S
C432 N434 1.350 . S
C432 H458 0.931 . S
N433 Co429 2.148 . S
N433 C430 1.301 . S
N433 C431 1.317 . S
N434 C430 1.328 . S
N434 C432 1.350 . S
H435 C430 0.930 . S
H436 C431 0.930 . S
C437 O438 1.224 . S
C437 O456 1.247 . S
O438 C437 1.224 . S
N439 Co429 2.128 . S
N439 C440 1.355 1_565 S
N439 C442 1.311 . S
C440 N439 1.355 1_545 S
C440 C441 1.363 . S
C440 H452 0.929 . S
C441 C440 1.363 . S
C441 N443 1.375 1_545 S
C441 H459 0.931 . S
C442 N439 1.311 . S
C442 N443 1.347 . S
C442 H453 0.929 . S
N443 C441 1.375 1_565 S
N443 C442 1.347 . S
C444 C447 1.365 . S
C444 N449 1.328 1_545 S
C444 H450 0.929 . S
C445 C446 1.362 1_565 S
C445 C448 1.378 . S
C445 H460 0.929 . S
C446 C445 1.362 1_545 S
C446 C447 1.366 . S
C447 C444 1.365 . S
C447 C446 1.366 . S
C447 H461 0.930 . S
C448 C445 1.378 . S
C448 N449 1.315 . S
C448 H451 0.930 . S
N449 Co429 2.194 . S
N449 C444 1.328 1_565 S
N449 C448 1.315 . S
H450 C444 0.929 . S
H451 C448 0.930 . S
H452 C440 0.929 . S
H453 C442 0.929 . S
O454 Co429 2.351 1_545 S
O454 C457 1.244 . S
O455 Co429 2.155 . S
O455 C457 1.240 1_565 S
O456 Co429 2.096 . S
O456 C437 1.247 . S
C457 O454 1.244 . S
C457 O455 1.240 1_545 S
H458 C432 0.931 . S
H459 C441 0.931 . S
H460 C445 0.929 . S
H461 C447 0.930 . S
Co462 N466 2.148 . S
Co462 N472 2.128 . S
Co462 N482 2.194 . S
Co462 O487 2.351 . S
Co462 O488 2.155 . S
Co462 O489 2.096 . S
C463 N466 1.301 . S
C463 N467 1.328 . S
C463 H468 0.930 . S
C464 C465 1.333 . S
C464 N466 1.317 . S
C464 H469 0.930 . S
C465 C464 1.333 . S
C465 N467 1.350 . S
C465 H491 0.931 . S
N466 Co462 2.148 . S
N466 C463 1.301 . S
N466 C464 1.317 . S
N467 C463 1.328 . S
N467 C465 1.350 . S
H468 C463 0.930 . S
H469 C464 0.930 . S
C470 O471 1.224 . S
C470 O489 1.247 . S
O471 C470 1.224 . S
N472 Co462 2.128 . S
N472 C473 1.355 . S
N472 C475 1.311 . S
C473 N472 1.355 . S
C473 C474 1.363 . S
C473 H485 0.929 . S
C474 C473 1.363 . S
C474 N476 1.375 . S
C474 H492 0.931 . S
C475 N472 1.311 . S
C475 N476 1.347 . S
C475 H486 0.929 . S
N476 C474 1.375 . S
N476 C475 1.347 . S
C477 C480 1.365 . S
C477 N482 1.328 . S
C477 H483 0.929 . S
C478 C479 1.362 . S
C478 C481 1.378 . S
C478 H493 0.929 . S
C479 C478 1.362 . S
C479 C480 1.366 . S
C480 C477 1.365 . S
C480 C479 1.366 . S
C480 H494 0.930 . S
C481 C478 1.378 . S
C481 N482 1.315 . S
C481 H484 0.930 . S
N482 Co462 2.194 . S
N482 C477 1.328 . S
N482 C481 1.315 . S
H483 C477 0.929 . S
H484 C481 0.930 . S
H485 C473 0.929 . S
H486 C475 0.929 . S
O487 Co462 2.351 . S
O487 C490 1.244 . S
O488 Co462 2.155 . S
O488 C490 1.240 . S
O489 Co462 2.096 . S
O489 C470 1.247 . S
C490 O487 1.244 . S
C490 O488 1.240 . S
H491 C465 0.931 . S
H492 C474 0.931 . S
H493 C478 0.929 . S
H494 C480 0.930 . S
Co495 N499 2.148 . S
Co495 N505 2.128 . S
Co495 N515 2.194 . S
Co495 O520 2.351 1_545 S
Co495 O521 2.155 . S
Co495 O522 2.096 . S
C496 N499 1.301 . S
C496 N500 1.328 . S
C496 H501 0.930 . S
C497 C498 1.333 . S
C497 N499 1.317 . S
C497 H502 0.930 . S
C498 C497 1.333 . S
C498 N500 1.350 . S
C498 H524 0.931 . S
N499 Co495 2.148 . S
N499 C496 1.301 . S
N499 C497 1.317 . S
N500 C496 1.328 . S
N500 C498 1.350 . S
H501 C496 0.930 . S
H502 C497 0.930 . S
C503 O504 1.224 . S
C503 O522 1.247 . S
O504 C503 1.224 . S
N505 Co495 2.128 . S
N505 C506 1.355 1_645 S
N505 C508 1.311 1_655 S
C506 N505 1.355 1_465 S
C506 C507 1.363 . S
C506 H518 0.929 1_455 S
C507 C506 1.363 . S
C507 N509 1.375 1_565 S
C507 H525 0.931 . S
C508 N505 1.311 1_455 S
C508 N509 1.347 . S
C508 H519 0.929 . S
N509 C507 1.375 1_545 S
N509 C508 1.347 . S
C510 C513 1.365 . S
C510 N515 1.328 1_565 S
C510 H516 0.929 . S
C511 C512 1.362 1_545 S
C511 C514 1.378 . S
C511 H526 0.929 . S
C512 C511 1.362 1_565 S
C512 C513 1.366 . S
C513 C510 1.365 . S
C513 C512 1.366 . S
C513 H527 0.930 . S
C514 C511 1.378 . S
C514 N515 1.315 . S
C514 H517 0.930 . S
N515 Co495 2.194 . S
N515 C510 1.328 1_545 S
N515 C514 1.315 . S
H516 C510 0.929 . S
H517 C514 0.930 . S
H518 C506 0.929 1_655 S
H519 C508 0.929 . S
O520 Co495 2.351 1_565 S
O520 C523 1.244 . S
O521 Co495 2.155 . S
O521 C523 1.240 1_545 S
O522 Co495 2.096 . S
O522 C503 1.247 . S
C523 O520 1.244 . S
C523 O521 1.240 1_565 S
H524 C498 0.931 . S
H525 C507 0.931 . S
H526 C511 0.929 . S
H527 C513 0.930 . S
Co528 N532 2.148 . S
Co528 N538 2.128 . S
Co528 N548 2.194 . S
Co528 O553 2.351 . S
Co528 O554 2.155 . S
Co528 O555 2.096 . S
C529 N532 1.301 . S
C529 N533 1.328 . S
C529 H534 0.930 . S
C530 C531 1.333 . S
C530 N532 1.317 . S
C530 H535 0.930 . S
C531 C530 1.333 . S
C531 N533 1.350 . S
C531 H557 0.931 . S
N532 Co528 2.148 . S
N532 C529 1.301 . S
N532 C530 1.317 . S
N533 C529 1.328 . S
N533 C531 1.350 . S
H534 C529 0.930 . S
H535 C530 0.930 . S
C536 O537 1.224 . S
C536 O555 1.247 . S
O537 C536 1.224 . S
N538 Co528 2.128 . S
N538 C539 1.355 . S
N538 C541 1.311 . S
C539 N538 1.355 . S
C539 C540 1.363 . S
C539 H551 0.929 . S
C540 C539 1.363 . S
C540 N542 1.375 . S
C540 H558 0.931 . S
C541 N538 1.311 . S
C541 N542 1.347 . S
C541 H552 0.929 . S
N542 C540 1.375 . S
N542 C541 1.347 . S
C543 C546 1.365 . S
C543 N548 1.328 . S
C543 H549 0.929 . S
C544 C545 1.362 . S
C544 C547 1.378 . S
C544 H559 0.929 . S
C545 C544 1.362 . S
C545 C546 1.366 . S
C546 C543 1.365 . S
C546 C545 1.366 . S
C546 H560 0.930 . S
C547 C544 1.378 . S
C547 N548 1.315 . S
C547 H550 0.930 . S
N548 Co528 2.194 . S
N548 C543 1.328 . S
N548 C547 1.315 . S
H549 C543 0.929 . S
H550 C547 0.930 . S
H551 C539 0.929 . S
H552 C541 0.929 . S
O553 Co528 2.351 . S
O553 C556 1.244 . S
O554 Co528 2.155 . S
O554 C556 1.240 . S
O555 Co528 2.096 . S
O555 C536 1.247 . S
C556 O553 1.244 . S
C556 O554 1.240 . S
H557 C531 0.931 . S
H558 C540 0.931 . S
H559 C544 0.929 . S
H560 C546 0.930 . S
Co561 N565 2.148 . S
Co561 N571 2.128 . S
Co561 N581 2.194 . S
Co561 O586 2.351 . S
Co561 O587 2.155 . S
Co561 O588 2.096 . S
C562 N565 1.301 . S
C562 N566 1.328 . S
C562 H567 0.930 . S
C563 C564 1.333 . S
C563 N565 1.317 . S
C563 H568 0.930 . S
C564 C563 1.333 . S
C564 N566 1.350 . S
C564 H590 0.931 . S
N565 Co561 2.148 . S
N565 C562 1.301 . S
N565 C563 1.317 . S
N566 C562 1.328 . S
N566 C564 1.350 . S
H567 C562 0.930 . S
H568 C563 0.930 . S
C569 O570 1.224 . S
C569 O588 1.247 . S
O570 C569 1.224 . S
N571 Co561 2.128 . S
N571 C572 1.355 . S
N571 C574 1.311 . S
C572 N571 1.355 . S
C572 C573 1.363 . S
C572 H584 0.929 . S
C573 C572 1.363 . S
C573 N575 1.375 . S
C573 H591 0.931 . S
C574 N571 1.311 . S
C574 N575 1.347 . S
C574 H585 0.929 . S
N575 C573 1.375 . S
N575 C574 1.347 . S
C576 C579 1.365 . S
C576 N581 1.328 . S
C576 H582 0.929 . S
C577 C578 1.362 . S
C577 C580 1.378 . S
C577 H592 0.929 . S
C578 C577 1.362 . S
C578 C579 1.366 . S
C579 C576 1.365 . S
C579 C578 1.366 . S
C579 H593 0.930 . S
C580 C577 1.378 . S
C580 N581 1.315 . S
C580 H583 0.930 . S
N581 Co561 2.194 . S
N581 C576 1.328 . S
N581 C580 1.315 . S
H582 C576 0.929 . S
H583 C580 0.930 . S
H584 C572 0.929 . S
H585 C574 0.929 . S
O586 Co561 2.351 . S
O586 C589 1.244 . S
O587 Co561 2.155 . S
O587 C589 1.240 . S
O588 Co561 2.096 . S
O588 C569 1.247 . S
C589 O586 1.244 . S
C589 O587 1.240 . S
H590 C564 0.931 . S
H591 C573 0.931 . S
H592 C577 0.929 . S
H593 C579 0.930 . S
Co594 N598 2.148 . S
Co594 N604 2.128 . S
Co594 N614 2.194 . S
Co594 O619 2.351 . S
Co594 O620 2.155 . S
Co594 O621 2.096 . S
C595 N598 1.301 . S
C595 N599 1.328 . S
C595 H600 0.930 . S
C596 C597 1.333 . S
C596 N598 1.317 . S
C596 H601 0.930 . S
C597 C596 1.333 . S
C597 N599 1.350 . S
C597 H623 0.931 . S
N598 Co594 2.148 . S
N598 C595 1.301 . S
N598 C596 1.317 . S
N599 C595 1.328 . S
N599 C597 1.350 . S
H600 C595 0.930 . S
H601 C596 0.930 . S
C602 O603 1.224 . S
C602 O621 1.247 . S
O603 C602 1.224 . S
N604 Co594 2.128 . S
N604 C605 1.355 . S
N604 C607 1.311 . S
C605 N604 1.355 . S
C605 C606 1.363 . S
C605 H617 0.929 . S
C606 C605 1.363 . S
C606 N608 1.375 . S
C606 H624 0.931 . S
C607 N604 1.311 . S
C607 N608 1.347 . S
C607 H618 0.929 . S
N608 C606 1.375 . S
N608 C607 1.347 . S
C609 C612 1.365 . S
C609 N614 1.328 . S
C609 H615 0.929 . S
C610 C611 1.362 . S
C610 C613 1.378 . S
C610 H625 0.929 . S
C611 C610 1.362 . S
C611 C612 1.366 . S
C612 C609 1.365 . S
C612 C611 1.366 . S
C612 H626 0.930 . S
C613 C610 1.378 . S
C613 N614 1.315 . S
C613 H616 0.930 . S
N614 Co594 2.194 . S
N614 C609 1.328 . S
N614 C613 1.315 . S
H615 C609 0.929 . S
H616 C613 0.930 . S
H617 C605 0.929 . S
H618 C607 0.929 . S
O619 Co594 2.351 . S
O619 C622 1.244 . S
O620 Co594 2.155 . S
O620 C622 1.240 . S
O621 Co594 2.096 . S
O621 C602 1.247 . S
C622 O619 1.244 . S
C622 O620 1.240 . S
H623 C597 0.931 . S
H624 C606 0.931 . S
H625 C610 0.929 . S
H626 C612 0.930 . S
Co627 N631 2.148 . S
Co627 N637 2.128 . S
Co627 N647 2.194 . S
Co627 O652 2.351 . S
Co627 O653 2.155 . S
Co627 O654 2.096 . S
C628 N631 1.301 . S
C628 N632 1.328 . S
C628 H633 0.930 . S
C629 C630 1.333 . S
C629 N631 1.317 . S
C629 H634 0.930 . S
C630 C629 1.333 . S
C630 N632 1.350 . S
C630 H656 0.931 . S
N631 Co627 2.148 . S
N631 C628 1.301 . S
N631 C629 1.317 . S
N632 C628 1.328 . S
N632 C630 1.350 . S
H633 C628 0.930 . S
H634 C629 0.930 . S
C635 O636 1.224 . S
C635 O654 1.247 . S
O636 C635 1.224 . S
N637 Co627 2.128 . S
N637 C638 1.355 1_655 S
N637 C640 1.311 1_655 S
C638 N637 1.355 1_455 S
C638 C639 1.363 . S
C638 H650 0.929 1_455 S
C639 C638 1.363 . S
C639 N641 1.375 . S
C639 H657 0.931 . S
C640 N637 1.311 1_455 S
C640 N641 1.347 . S
C640 H651 0.929 . S
N641 C639 1.375 . S
N641 C640 1.347 . S
C642 C645 1.365 . S
C642 N647 1.328 . S
C642 H648 0.929 . S
C643 C644 1.362 . S
C643 C646 1.378 . S
C643 H658 0.929 . S
C644 C643 1.362 . S
C644 C645 1.366 . S
C645 C642 1.365 . S
C645 C644 1.366 . S
C645 H659 0.930 . S
C646 C643 1.378 . S
C646 N647 1.315 . S
C646 H649 0.930 . S
N647 Co627 2.194 . S
N647 C642 1.328 . S
N647 C646 1.315 . S
H648 C642 0.929 . S
H649 C646 0.930 . S
H650 C638 0.929 1_655 S
H651 C640 0.929 . S
O652 Co627 2.351 . S
O652 C655 1.244 . S
O653 Co627 2.155 . S
O653 C655 1.240 . S
O654 Co627 2.096 . S
O654 C635 1.247 . S
C655 O652 1.244 . S
C655 O653 1.240 . S
H656 C630 0.931 . S
H657 C639 0.931 . S
H658 C643 0.929 . S
H659 C645 0.930 . S
Co660 N664 2.148 . S
Co660 N670 2.128 . S
Co660 N680 2.194 . S
Co660 O685 2.351 . S
Co660 O686 2.155 . S
Co660 O687 2.096 . S
C661 N664 1.301 . S
C661 N665 1.328 . S
C661 H666 0.930 . S
C662 C663 1.333 . S
C662 N664 1.317 . S
C662 H667 0.930 . S
C663 C662 1.333 . S
C663 N665 1.350 . S
C663 H689 0.931 . S
N664 Co660 2.148 . S
N664 C661 1.301 . S
N664 C662 1.317 . S
N665 C661 1.328 . S
N665 C663 1.350 . S
H666 C661 0.930 . S
H667 C662 0.930 . S
C668 O669 1.224 . S
C668 O687 1.247 . S
O669 C668 1.224 . S
N670 Co660 2.128 . S
N670 C671 1.355 . S
N670 C673 1.311 . S
C671 N670 1.355 . S
C671 C672 1.363 . S
C671 H683 0.929 . S
C672 C671 1.363 . S
C672 N674 1.375 . S
C672 H690 0.931 . S
C673 N670 1.311 . S
C673 N674 1.347 . S
C673 H684 0.929 . S
N674 C672 1.375 . S
N674 C673 1.347 . S
C675 C678 1.365 . S
C675 N680 1.328 . S
C675 H681 0.929 . S
C676 C677 1.362 . S
C676 C679 1.378 . S
C676 H691 0.929 . S
C677 C676 1.362 . S
C677 C678 1.366 . S
C678 C675 1.365 . S
C678 C677 1.366 . S
C678 H692 0.930 . S
C679 C676 1.378 . S
C679 N680 1.315 . S
C679 H682 0.930 . S
N680 Co660 2.194 . S
N680 C675 1.328 . S
N680 C679 1.315 . S
H681 C675 0.929 . S
H682 C679 0.930 . S
H683 C671 0.929 . S
H684 C673 0.929 . S
O685 Co660 2.351 . S
O685 C688 1.244 . S
O686 Co660 2.155 . S
O686 C688 1.240 . S
O687 Co660 2.096 . S
O687 C668 1.247 . S
C688 O685 1.244 . S
C688 O686 1.240 . S
H689 C663 0.931 . S
H690 C672 0.931 . S
H691 C676 0.929 . S
H692 C678 0.930 . S
Co693 N697 2.148 . S
Co693 N703 2.128 . S
Co693 N713 2.194 . S
Co693 O718 2.351 . S
Co693 O719 2.155 . S
Co693 O720 2.096 . S
C694 N697 1.301 . S
C694 N698 1.328 . S
C694 H699 0.930 . S
C695 C696 1.333 . S
C695 N697 1.317 . S
C695 H700 0.930 . S
C696 C695 1.333 . S
C696 N698 1.350 . S
C696 H722 0.931 . S
N697 Co693 2.148 . S
N697 C694 1.301 . S
N697 C695 1.317 . S
N698 C694 1.328 . S
N698 C696 1.350 . S
H699 C694 0.930 . S
H700 C695 0.930 . S
C701 O702 1.224 . S
C701 O720 1.247 . S
O702 C701 1.224 . S
N703 Co693 2.128 . S
N703 C704 1.355 1_655 S
N703 C706 1.311 1_655 S
C704 N703 1.355 1_455 S
C704 C705 1.363 . S
C704 H716 0.929 1_455 S
C705 C704 1.363 . S
C705 N707 1.375 . S
C705 H723 0.931 . S
C706 N703 1.311 1_455 S
C706 N707 1.347 . S
C706 H717 0.929 . S
N707 C705 1.375 . S
N707 C706 1.347 . S
C708 C711 1.365 . S
C708 N713 1.328 . S
C708 H714 0.929 . S
C709 C710 1.362 . S
C709 C712 1.378 . S
C709 H724 0.929 . S
C710 C709 1.362 . S
C710 C711 1.366 . S
C711 C708 1.365 . S
C711 C710 1.366 . S
C711 H725 0.930 . S
C712 C709 1.378 . S
C712 N713 1.315 . S
C712 H715 0.930 . S
N713 Co693 2.194 . S
N713 C708 1.328 . S
N713 C712 1.315 . S
H714 C708 0.929 . S
H715 C712 0.930 . S
H716 C704 0.929 1_655 S
H717 C706 0.929 . S
O718 Co693 2.351 . S
O718 C721 1.244 . S
O719 Co693 2.155 . S
O719 C721 1.240 . S
O720 Co693 2.096 . S
O720 C701 1.247 . S
C721 O718 1.244 . S
C721 O719 1.240 . S
H722 C696 0.931 . S
H723 C705 0.931 . S
H724 C709 0.929 . S
H725 C711 0.930 . S
Co726 N730 2.148 . S
Co726 N736 2.128 . S
Co726 N746 2.194 . S
Co726 O751 2.351 . S
Co726 O752 2.155 . S
Co726 O753 2.096 . S
C727 N730 1.301 . S
C727 N731 1.328 . S
C727 H732 0.930 . S
C728 C729 1.333 . S
C728 N730 1.317 . S
C728 H733 0.930 . S
C729 C728 1.333 . S
C729 N731 1.350 . S
C729 H755 0.931 . S
N730 Co726 2.148 . S
N730 C727 1.301 . S
N730 C728 1.317 . S
N731 C727 1.328 . S
N731 C729 1.350 . S
H732 C727 0.930 . S
H733 C728 0.930 . S
C734 O735 1.224 . S
C734 O753 1.247 . S
O735 C734 1.224 . S
N736 Co726 2.128 . S
N736 C737 1.355 . S
N736 C739 1.311 . S
C737 N736 1.355 . S
C737 C738 1.363 . S
C737 H749 0.929 . S
C738 C737 1.363 . S
C738 N740 1.375 . S
C738 H756 0.931 . S
C739 N736 1.311 . S
C739 N740 1.347 . S
C739 H750 0.929 . S
N740 C738 1.375 . S
N740 C739 1.347 . S
C741 C744 1.365 . S
C741 N746 1.328 . S
C741 H747 0.929 . S
C742 C743 1.362 . S
C742 C745 1.378 . S
C742 H757 0.929 . S
C743 C742 1.362 . S
C743 C744 1.366 . S
C744 C741 1.365 . S
C744 C743 1.366 . S
C744 H758 0.930 . S
C745 C742 1.378 . S
C745 N746 1.315 . S
C745 H748 0.930 . S
N746 Co726 2.194 . S
N746 C741 1.328 . S
N746 C745 1.315 . S
H747 C741 0.929 . S
H748 C745 0.930 . S
H749 C737 0.929 . S
H750 C739 0.929 . S
O751 Co726 2.351 . S
O751 C754 1.244 . S
O752 Co726 2.155 . S
O752 C754 1.240 . S
O753 Co726 2.096 . S
O753 C734 1.247 . S
C754 O751 1.244 . S
C754 O752 1.240 . S
H755 C729 0.931 . S
H756 C738 0.931 . S
H757 C742 0.929 . S
H758 C744 0.930 . S
Co759 N763 2.148 . S
Co759 N769 2.128 . S
Co759 N779 2.194 . S
Co759 O784 2.351 . S
Co759 O785 2.155 . S
Co759 O786 2.096 . S
C760 N763 1.301 . S
C760 N764 1.328 . S
C760 H765 0.930 . S
C761 C762 1.333 . S
C761 N763 1.317 . S
C761 H766 0.930 . S
C762 C761 1.333 . S
C762 N764 1.350 . S
C762 H788 0.931 . S
N763 Co759 2.148 . S
N763 C760 1.301 . S
N763 C761 1.317 . S
N764 C760 1.328 . S
N764 C762 1.350 . S
H765 C760 0.930 . S
H766 C761 0.930 . S
C767 O768 1.224 . S
C767 O786 1.247 . S
O768 C767 1.224 . S
N769 Co759 2.128 . S
N769 C770 1.355 . S
N769 C772 1.311 . S
C770 N769 1.355 . S
C770 C771 1.363 . S
C770 H782 0.929 . S
C771 C770 1.363 . S
C771 N773 1.375 . S
C771 H789 0.931 . S
C772 N769 1.311 . S
C772 N773 1.347 . S
C772 H783 0.929 . S
N773 C771 1.375 . S
N773 C772 1.347 . S
C774 C777 1.365 . S
C774 N779 1.328 . S
C774 H780 0.929 . S
C775 C776 1.362 . S
C775 C778 1.378 . S
C775 H790 0.929 . S
C776 C775 1.362 . S
C776 C777 1.366 . S
C777 C774 1.365 . S
C777 C776 1.366 . S
C777 H791 0.930 . S
C778 C775 1.378 . S
C778 N779 1.315 . S
C778 H781 0.930 . S
N779 Co759 2.194 . S
N779 C774 1.328 . S
N779 C778 1.315 . S
H780 C774 0.929 . S
H781 C778 0.930 . S
H782 C770 0.929 . S
H783 C772 0.929 . S
O784 Co759 2.351 . S
O784 C787 1.244 . S
O785 Co759 2.155 . S
O785 C787 1.240 . S
O786 Co759 2.096 . S
O786 C767 1.247 . S
C787 O784 1.244 . S
C787 O785 1.240 . S
H788 C762 0.931 . S
H789 C771 0.931 . S
H790 C775 0.929 . S
H791 C777 0.930 . S
Co792 N796 2.148 . S
Co792 N802 2.128 . S
Co792 N812 2.194 . S
Co792 O817 2.351 . S
Co792 O818 2.155 . S
Co792 O819 2.096 . S
C793 N796 1.301 . S
C793 N797 1.328 . S
C793 H798 0.930 . S
C794 C795 1.333 . S
C794 N796 1.317 . S
C794 H799 0.930 . S
C795 C794 1.333 . S
C795 N797 1.350 . S
C795 H821 0.931 . S
N796 Co792 2.148 . S
N796 C793 1.301 . S
N796 C794 1.317 . S
N797 C793 1.328 . S
N797 C795 1.350 . S
H798 C793 0.930 . S
H799 C794 0.930 . S
C800 O801 1.224 . S
C800 O819 1.247 . S
O801 C800 1.224 . S
N802 Co792 2.128 . S
N802 C803 1.355 . S
N802 C805 1.311 . S
C803 N802 1.355 . S
C803 C804 1.363 . S
C803 H815 0.929 . S
C804 C803 1.363 . S
C804 N806 1.375 . S
C804 H822 0.931 . S
C805 N802 1.311 . S
C805 N806 1.347 . S
C805 H816 0.929 . S
N806 C804 1.375 . S
N806 C805 1.347 . S
C807 C810 1.365 . S
C807 N812 1.328 . S
C807 H813 0.929 . S
C808 C809 1.362 . S
C808 C811 1.378 . S
C808 H823 0.929 . S
C809 C808 1.362 . S
C809 C810 1.366 . S
C810 C807 1.365 . S
C810 C809 1.366 . S
C810 H824 0.930 . S
C811 C808 1.378 . S
C811 N812 1.315 . S
C811 H814 0.930 . S
N812 Co792 2.194 . S
N812 C807 1.328 . S
N812 C811 1.315 . S
H813 C807 0.929 . S
H814 C811 0.930 . S
H815 C803 0.929 . S
H816 C805 0.929 . S
O817 Co792 2.351 . S
O817 C820 1.244 . S
O818 Co792 2.155 . S
O818 C820 1.240 . S
O819 Co792 2.096 . S
O819 C800 1.247 . S
C820 O817 1.244 . S
C820 O818 1.240 . S
H821 C795 0.931 . S
H822 C804 0.931 . S
H823 C808 0.929 . S
H824 C810 0.930 . S
Co825 N829 2.148 . S
Co825 N835 2.128 . S
Co825 N845 2.194 . S
Co825 O850 2.351 . S
Co825 O851 2.155 . S
Co825 O852 2.096 . S
C826 N829 1.301 . S
C826 N830 1.328 . S
C826 H831 0.930 . S
C827 C828 1.333 . S
C827 N829 1.317 . S
C827 H832 0.930 . S
C828 C827 1.333 . S
C828 N830 1.350 . S
C828 H854 0.931 . S
N829 Co825 2.148 . S
N829 C826 1.301 . S
N829 C827 1.317 . S
N830 C826 1.328 . S
N830 C828 1.350 . S
H831 C826 0.930 . S
H832 C827 0.930 . S
C833 O834 1.224 . S
C833 O852 1.247 . S
O834 C833 1.224 . S
N835 Co825 2.128 . S
N835 C836 1.355 . S
N835 C838 1.311 . S
C836 N835 1.355 . S
C836 C837 1.363 . S
C836 H848 0.929 . S
C837 C836 1.363 . S
C837 N839 1.375 . S
C837 H855 0.931 . S
C838 N835 1.311 . S
C838 N839 1.347 . S
C838 H849 0.929 . S
N839 C837 1.375 . S
N839 C838 1.347 . S
C840 C843 1.365 . S
C840 N845 1.328 . S
C840 H846 0.929 . S
C841 C842 1.362 . S
C841 C844 1.378 . S
C841 H856 0.929 . S
C842 C841 1.362 . S
C842 C843 1.366 . S
C843 C840 1.365 . S
C843 C842 1.366 . S
C843 H857 0.930 . S
C844 C841 1.378 . S
C844 N845 1.315 . S
C844 H847 0.930 . S
N845 Co825 2.194 . S
N845 C840 1.328 . S
N845 C844 1.315 . S
H846 C840 0.929 . S
H847 C844 0.930 . S
H848 C836 0.929 . S
H849 C838 0.929 . S
O850 Co825 2.351 . S
O850 C853 1.244 . S
O851 Co825 2.155 . S
O851 C853 1.240 . S
O852 Co825 2.096 . S
O852 C833 1.247 . S
C853 O850 1.244 . S
C853 O851 1.240 . S
H854 C828 0.931 . S
H855 C837 0.931 . S
H856 C841 0.929 . S
H857 C843 0.930 . S
Co858 N862 2.148 . S
Co858 N868 2.128 . S
Co858 N878 2.194 . S
Co858 O883 2.351 . S
Co858 O884 2.155 . S
Co858 O885 2.096 . S
C859 N862 1.301 . S
C859 N863 1.328 . S
C859 H864 0.930 . S
C860 C861 1.333 . S
C860 N862 1.317 . S
C860 H865 0.930 . S
C861 C860 1.333 . S
C861 N863 1.350 . S
C861 H887 0.931 . S
N862 Co858 2.148 . S
N862 C859 1.301 . S
N862 C860 1.317 . S
N863 C859 1.328 . S
N863 C861 1.350 . S
H864 C859 0.930 . S
H865 C860 0.930 . S
C866 O867 1.224 . S
C866 O885 1.247 . S
O867 C866 1.224 . S
N868 Co858 2.128 . S
N868 C869 1.355 . S
N868 C871 1.311 . S
C869 N868 1.355 . S
C869 C870 1.363 . S
C869 H881 0.929 . S
C870 C869 1.363 . S
C870 N872 1.375 . S
C870 H888 0.931 . S
C871 N868 1.311 . S
C871 N872 1.347 . S
C871 H882 0.929 . S
N872 C870 1.375 . S
N872 C871 1.347 . S
C873 C876 1.365 . S
C873 N878 1.328 . S
C873 H879 0.929 . S
C874 C875 1.362 . S
C874 C877 1.378 . S
C874 H889 0.929 . S
C875 C874 1.362 . S
C875 C876 1.366 . S
C876 C873 1.365 . S
C876 C875 1.366 . S
C876 H890 0.930 . S
C877 C874 1.378 . S
C877 N878 1.315 . S
C877 H880 0.930 . S
N878 Co858 2.194 . S
N878 C873 1.328 . S
N878 C877 1.315 . S
H879 C873 0.929 . S
H880 C877 0.930 . S
H881 C869 0.929 . S
H882 C871 0.929 . S
O883 Co858 2.351 . S
O883 C886 1.244 . S
O884 Co858 2.155 . S
O884 C886 1.240 . S
O885 Co858 2.096 . S
O885 C866 1.247 . S
C886 O883 1.244 . S
C886 O884 1.240 . S
H887 C861 0.931 . S
H888 C870 0.931 . S
H889 C874 0.929 . S
H890 C876 0.930 . S
Co891 N895 2.148 . S
Co891 N901 2.128 . S
Co891 N911 2.194 . S
Co891 O916 2.351 . S
Co891 O917 2.155 . S
Co891 O918 2.096 . S
C892 N895 1.301 . S
C892 N896 1.328 . S
C892 H897 0.930 . S
C893 C894 1.333 . S
C893 N895 1.317 . S
C893 H898 0.930 . S
C894 C893 1.333 . S
C894 N896 1.350 . S
C894 H920 0.931 . S
N895 Co891 2.148 . S
N895 C892 1.301 . S
N895 C893 1.317 . S
N896 C892 1.328 . S
N896 C894 1.350 . S
H897 C892 0.930 . S
H898 C893 0.930 . S
C899 O900 1.224 . S
C899 O918 1.247 . S
O900 C899 1.224 . S
N901 Co891 2.128 . S
N901 C902 1.355 1_455 S
N901 C904 1.311 1_455 S
C902 N901 1.355 1_655 S
C902 C903 1.363 . S
C902 H914 0.929 1_655 S
C903 C902 1.363 . S
C903 N905 1.375 . S
C903 H921 0.931 . S
C904 N901 1.311 1_655 S
C904 N905 1.347 . S
C904 H915 0.929 . S
N905 C903 1.375 . S
N905 C904 1.347 . S
C906 C909 1.365 . S
C906 N911 1.328 . S
C906 H912 0.929 . S
C907 C908 1.362 . S
C907 C910 1.378 . S
C907 H922 0.929 . S
C908 C907 1.362 . S
C908 C909 1.366 . S
C909 C906 1.365 . S
C909 C908 1.366 . S
C909 H923 0.930 . S
C910 C907 1.378 . S
C910 N911 1.315 . S
C910 H913 0.930 . S
N911 Co891 2.194 . S
N911 C906 1.328 . S
N911 C910 1.315 . S
H912 C906 0.929 . S
H913 C910 0.930 . S
H914 C902 0.929 1_455 S
H915 C904 0.929 . S
O916 Co891 2.351 . S
O916 C919 1.244 . S
O917 Co891 2.155 . S
O917 C919 1.240 . S
O918 Co891 2.096 . S
O918 C899 1.247 . S
C919 O916 1.244 . S
C919 O917 1.240 . S
H920 C894 0.931 . S
H921 C903 0.931 . S
H922 C907 0.929 . S
H923 C909 0.930 . S
Co924 N928 2.148 . S
Co924 N934 2.128 . S
Co924 N944 2.194 . S
Co924 O949 2.351 . S
Co924 O950 2.155 . S
Co924 O951 2.096 . S
C925 N928 1.301 . S
C925 N929 1.328 . S
C925 H930 0.930 . S
C926 C927 1.333 . S
C926 N928 1.317 . S
C926 H931 0.930 . S
C927 C926 1.333 . S
C927 N929 1.350 . S
C927 H953 0.931 . S
N928 Co924 2.148 . S
N928 C925 1.301 . S
N928 C926 1.317 . S
N929 C925 1.328 . S
N929 C927 1.350 . S
H930 C925 0.930 . S
H931 C926 0.930 . S
C932 O933 1.224 . S
C932 O951 1.247 . S
O933 C932 1.224 . S
N934 Co924 2.128 . S
N934 C935 1.355 . S
N934 C937 1.311 . S
C935 N934 1.355 . S
C935 C936 1.363 . S
C935 H947 0.929 . S
C936 C935 1.363 . S
C936 N938 1.375 . S
C936 H954 0.931 . S
C937 N934 1.311 . S
C937 N938 1.347 . S
C937 H948 0.929 . S
N938 C936 1.375 . S
N938 C937 1.347 . S
C939 C942 1.365 . S
C939 N944 1.328 . S
C939 H945 0.929 . S
C940 C941 1.362 . S
C940 C943 1.378 . S
C940 H955 0.929 . S
C941 C940 1.362 . S
C941 C942 1.366 . S
C942 C939 1.365 . S
C942 C941 1.366 . S
C942 H956 0.930 . S
C943 C940 1.378 . S
C943 N944 1.315 . S
C943 H946 0.930 . S
N944 Co924 2.194 . S
N944 C939 1.328 . S
N944 C943 1.315 . S
H945 C939 0.929 . S
H946 C943 0.930 . S
H947 C935 0.929 . S
H948 C937 0.929 . S
O949 Co924 2.351 . S
O949 C952 1.244 . S
O950 Co924 2.155 . S
O950 C952 1.240 . S
O951 Co924 2.096 . S
O951 C932 1.247 . S
C952 O949 1.244 . S
C952 O950 1.240 . S
H953 C927 0.931 . S
H954 C936 0.931 . S
H955 C940 0.929 . S
H956 C942 0.930 . S
Co957 N961 2.148 . S
Co957 N967 2.128 . S
Co957 N977 2.194 . S
Co957 O982 2.351 . S
Co957 O983 2.155 . S
Co957 O984 2.096 . S
C958 N961 1.301 . S
C958 N962 1.328 . S
C958 H963 0.930 . S
C959 C960 1.333 . S
C959 N961 1.317 . S
C959 H964 0.930 . S
C960 C959 1.333 . S
C960 N962 1.350 . S
C960 H986 0.931 . S
N961 Co957 2.148 . S
N961 C958 1.301 . S
N961 C959 1.317 . S
N962 C958 1.328 . S
N962 C960 1.350 . S
H963 C958 0.930 . S
H964 C959 0.930 . S
C965 O966 1.224 . S
C965 O984 1.247 . S
O966 C965 1.224 . S
N967 Co957 2.128 . S
N967 C968 1.355 1_455 S
N967 C970 1.311 1_455 S
C968 N967 1.355 1_655 S
C968 C969 1.363 . S
C968 H980 0.929 1_655 S
C969 C968 1.363 . S
C969 N971 1.375 . S
C969 H987 0.931 . S
C970 N967 1.311 1_655 S
C970 N971 1.347 . S
C970 H981 0.929 . S
N971 C969 1.375 . S
N971 C970 1.347 . S
C972 C975 1.365 . S
C972 N977 1.328 . S
C972 H978 0.929 . S
C973 C974 1.362 . S
C973 C976 1.378 . S
C973 H988 0.929 . S
C974 C973 1.362 . S
C974 C975 1.366 . S
C975 C972 1.365 . S
C975 C974 1.366 . S
C975 H989 0.930 . S
C976 C973 1.378 . S
C976 N977 1.315 . S
C976 H979 0.930 . S
N977 Co957 2.194 . S
N977 C972 1.328 . S
N977 C976 1.315 . S
H978 C972 0.929 . S
H979 C976 0.930 . S
H980 C968 0.929 1_455 S
H981 C970 0.929 . S
O982 Co957 2.351 . S
O982 C985 1.244 . S
O983 Co957 2.155 . S
O983 C985 1.240 . S
O984 Co957 2.096 . S
O984 C965 1.247 . S
C985 O982 1.244 . S
C985 O983 1.240 . S
H986 C960 0.931 . S
H987 C969 0.931 . S
H988 C973 0.929 . S
H989 C975 0.930 . S
Co990 N994 2.148 . S
Co990 N1000 2.128 . S
Co990 N1010 2.194 . S
Co990 O1015 2.351 . S
Co990 O1016 2.155 . S
Co990 O1017 2.096 . S
C991 N994 1.301 . S
C991 N995 1.328 . S
C991 H996 0.930 . S
C992 C993 1.333 . S
C992 N994 1.317 . S
C992 H997 0.930 . S
C993 C992 1.333 . S
C993 N995 1.350 . S
C993 H1019 0.931 . S
N994 Co990 2.148 . S
N994 C991 1.301 . S
N994 C992 1.317 . S
N995 C991 1.328 . S
N995 C993 1.350 . S
H996 C991 0.930 . S
H997 C992 0.930 . S
C998 O999 1.224 . S
C998 O1017 1.247 . S
O999 C998 1.224 . S
N1000 Co990 2.128 . S
N1000 C1001 1.355 . S
N1000 C1003 1.311 . S
C1001 N1000 1.355 . S
C1001 C1002 1.363 . S
C1001 H1013 0.929 . S
C1002 C1001 1.363 . S
C1002 N1004 1.375 . S
C1002 H1020 0.931 . S
C1003 N1000 1.311 . S
C1003 N1004 1.347 . S
C1003 H1014 0.929 . S
N1004 C1002 1.375 . S
N1004 C1003 1.347 . S
C1005 C1008 1.365 . S
C1005 N1010 1.328 . S
C1005 H1011 0.929 . S
C1006 C1007 1.362 . S
C1006 C1009 1.378 . S
C1006 H1021 0.929 . S
C1007 C1006 1.362 . S
C1007 C1008 1.366 . S
C1008 C1005 1.365 . S
C1008 C1007 1.366 . S
C1008 H1022 0.930 . S
C1009 C1006 1.378 . S
C1009 N1010 1.315 . S
C1009 H1012 0.930 . S
N1010 Co990 2.194 . S
N1010 C1005 1.328 . S
N1010 C1009 1.315 . S
H1011 C1005 0.929 . S
H1012 C1009 0.930 . S
H1013 C1001 0.929 . S
H1014 C1003 0.929 . S
O1015 Co990 2.351 . S
O1015 C1018 1.244 . S
O1016 Co990 2.155 . S
O1016 C1018 1.240 . S
O1017 Co990 2.096 . S
O1017 C998 1.247 . S
C1018 O1015 1.244 . S
C1018 O1016 1.240 . S
H1019 C993 0.931 . S
H1020 C1002 0.931 . S
H1021 C1006 0.929 . S
H1022 C1008 0.930 . S
Co1023 N1027 2.148 . S
Co1023 N1033 2.128 . S
Co1023 N1043 2.194 . S
Co1023 O1048 2.351 . S
Co1023 O1049 2.155 . S
Co1023 O1050 2.096 . S
C1024 N1027 1.301 . S
C1024 N1028 1.328 . S
C1024 H1029 0.930 . S
C1025 C1026 1.333 . S
C1025 N1027 1.317 . S
C1025 H1030 0.930 . S
C1026 C1025 1.333 . S
C1026 N1028 1.350 . S
C1026 H1052 0.931 . S
N1027 Co1023 2.148 . S
N1027 C1024 1.301 . S
N1027 C1025 1.317 . S
N1028 C1024 1.328 . S
N1028 C1026 1.350 . S
H1029 C1024 0.930 . S
H1030 C1025 0.930 . S
C1031 O1032 1.224 . S
C1031 O1050 1.247 . S
O1032 C1031 1.224 . S
N1033 Co1023 2.128 . S
N1033 C1034 1.355 . S
N1033 C1036 1.311 . S
C1034 N1033 1.355 . S
C1034 C1035 1.363 . S
C1034 H1046 0.929 . S
C1035 C1034 1.363 . S
C1035 N1037 1.375 . S
C1035 H1053 0.931 . S
C1036 N1033 1.311 . S
C1036 N1037 1.347 . S
C1036 H1047 0.929 . S
N1037 C1035 1.375 . S
N1037 C1036 1.347 . S
C1038 C1041 1.365 . S
C1038 N1043 1.328 . S
C1038 H1044 0.929 . S
C1039 C1040 1.362 . S
C1039 C1042 1.378 . S
C1039 H1054 0.929 . S
C1040 C1039 1.362 . S
C1040 C1041 1.366 . S
C1041 C1038 1.365 . S
C1041 C1040 1.366 . S
C1041 H1055 0.930 . S
C1042 C1039 1.378 . S
C1042 N1043 1.315 . S
C1042 H1045 0.930 . S
N1043 Co1023 2.194 . S
N1043 C1038 1.328 . S
N1043 C1042 1.315 . S
H1044 C1038 0.929 . S
H1045 C1042 0.930 . S
H1046 C1034 0.929 . S
H1047 C1036 0.929 . S
O1048 Co1023 2.351 . S
O1048 C1051 1.244 . S
O1049 Co1023 2.155 . S
O1049 C1051 1.240 . S
O1050 Co1023 2.096 . S
O1050 C1031 1.247 . S
C1051 O1048 1.244 . S
C1051 O1049 1.240 . S
H1052 C1026 0.931 . S
H1053 C1035 0.931 . S
H1054 C1039 0.929 . S
H1055 C1041 0.930 . S
H1056 C1062 0.930 . S
H1057 C1065 0.930 . S
H1058 C1066 0.930 . S
H1059 C1067 0.930 . S
H1060 C1070 0.930 . S
H1061 C1071 0.930 . S
C1062 H1056 0.930 . S
C1062 C1063 1.355 . S
C1062 C1064 1.415 . S
C1063 C1062 1.355 . S
C1063 C1065 1.419 . S
C1064 C1062 1.415 . S
C1064 C1069 1.425 . S
C1064 C1071 1.409 . S
C1065 H1057 0.930 . S
C1065 C1063 1.419 . S
C1065 C1066 1.362 . S
C1066 H1058 0.930 . S
C1066 C1065 1.362 . S
C1066 C1069 1.409 . S
C1067 H1059 0.930 . S
C1067 C1068 1.355 . S
C1067 C1069 1.415 . S
C1068 C1067 1.355 . S
C1068 C1070 1.419 . S
C1069 C1064 1.425 . S
C1069 C1066 1.409 . S
C1069 C1067 1.415 . S
C1070 H1060 0.930 . S
C1070 C1068 1.419 . S
C1070 C1071 1.362 . S
C1071 H1061 0.930 . S
C1071 C1064 1.409 . S
C1071 C1070 1.362 . S
H1072 C1078 0.930 . S
H1073 C1081 0.930 . S
H1074 C1082 0.930 . S
H1075 C1083 0.930 . S
H1076 C1086 0.930 . S
H1077 C1087 0.930 . S
C1078 H1072 0.930 . S
C1078 C1079 1.355 . S
C1078 C1080 1.415 . S
C1079 C1078 1.355 . S
C1079 C1081 1.419 . S
C1080 C1078 1.415 . S
C1080 C1085 1.425 . S
C1080 C1087 1.409 . S
C1081 H1073 0.930 . S
C1081 C1079 1.419 . S
C1081 C1082 1.362 . S
C1082 H1074 0.930 . S
C1082 C1081 1.362 . S
C1082 C1085 1.409 . S
C1083 H1075 0.930 . S
C1083 C1084 1.355 . S
C1083 C1085 1.415 . S
C1084 C1083 1.355 . S
C1084 C1086 1.419 . S
C1085 C1080 1.425 . S
C1085 C1082 1.409 . S
C1085 C1083 1.415 . S
C1086 H1076 0.930 . S
C1086 C1084 1.419 . S
C1086 C1087 1.362 . S
C1087 H1077 0.930 . S
C1087 C1080 1.409 . S
C1087 C1086 1.362 . S
H1088 C1094 0.930 . S
H1089 C1097 0.930 . S
H1090 C1098 0.930 . S
H1091 C1099 0.930 . S
H1092 C1102 0.930 . S
H1093 C1103 0.930 . S
C1094 H1088 0.930 . S
C1094 C1095 1.355 . S
C1094 C1096 1.415 . S
C1095 C1094 1.355 . S
C1095 C1097 1.419 . S
C1096 C1094 1.415 . S
C1096 C1101 1.425 . S
C1096 C1103 1.409 . S
C1097 H1089 0.930 . S
C1097 C1095 1.419 . S
C1097 C1098 1.362 . S
C1098 H1090 0.930 . S
C1098 C1097 1.362 . S
C1098 C1101 1.409 . S
C1099 H1091 0.930 . S
C1099 C1100 1.355 . S
C1099 C1101 1.415 . S
C1100 C1099 1.355 . S
C1100 C1102 1.419 . S
C1101 C1096 1.425 . S
C1101 C1098 1.409 . S
C1101 C1099 1.415 . S
C1102 H1092 0.930 . S
C1102 C1100 1.419 . S
C1102 C1103 1.362 . S
C1103 H1093 0.930 . S
C1103 C1096 1.409 . S
C1103 C1102 1.362 . S
H1104 C1110 0.930 . S
H1105 C1113 0.930 . S
H1106 C1114 0.930 . S
H1107 C1115 0.930 . S
H1108 C1118 0.930 . S
H1109 C1119 0.930 . S
C1110 H1104 0.930 . S
C1110 C1111 1.355 . S
C1110 C1112 1.415 . S
C1111 C1110 1.355 . S
C1111 C1113 1.419 . S
C1112 C1110 1.415 . S
C1112 C1117 1.425 . S
C1112 C1119 1.409 . S
C1113 H1105 0.930 . S
C1113 C1111 1.419 . S
C1113 C1114 1.362 . S
C1114 H1106 0.930 . S
C1114 C1113 1.362 . S
C1114 C1117 1.409 . S
C1115 H1107 0.930 . S
C1115 C1116 1.355 . S
C1115 C1117 1.415 . S
C1116 C1115 1.355 . S
C1116 C1118 1.419 . S
C1117 C1112 1.425 . S
C1117 C1114 1.409 . S
C1117 C1115 1.415 . S
C1118 H1108 0.930 . S
C1118 C1116 1.419 . S
C1118 C1119 1.362 . S
C1119 H1109 0.930 . S
C1119 C1112 1.409 . S
C1119 C1118 1.362 . S
H1120 C1126 0.930 . S
H1121 C1129 0.930 . S
H1122 C1130 0.930 . S
H1123 C1131 0.930 . S
H1124 C1134 0.930 . S
H1125 C1135 0.930 . S
C1126 H1120 0.930 . S
C1126 C1127 1.355 . S
C1126 C1128 1.415 . S
C1127 C1126 1.355 . S
C1127 C1129 1.419 . S
C1128 C1126 1.415 . S
C1128 C1133 1.425 . S
C1128 C1135 1.409 . S
C1129 H1121 0.930 . S
C1129 C1127 1.419 . S
C1129 C1130 1.362 . S
C1130 H1122 0.930 . S
C1130 C1129 1.362 . S
C1130 C1133 1.409 . S
C1131 H1123 0.930 . S
C1131 C1132 1.355 . S
C1131 C1133 1.415 . S
C1132 C1131 1.355 . S
C1132 C1134 1.419 . S
C1133 C1128 1.425 . S
C1133 C1130 1.409 . S
C1133 C1131 1.415 . S
C1134 H1124 0.930 . S
C1134 C1132 1.419 . S
C1134 C1135 1.362 . S
C1135 H1125 0.930 . S
C1135 C1128 1.409 . S
C1135 C1134 1.362 . S
H1136 C1142 0.930 . S
H1137 C1145 0.930 1_565 S
H1138 C1146 0.930 . S
H1139 C1147 0.930 . S
H1140 C1150 0.930 . S
H1141 C1151 0.930 . S
C1142 H1136 0.930 . S
C1142 C1143 1.355 . S
C1142 C1144 1.415 . S
C1143 C1142 1.355 . S
C1143 C1145 1.419 . S
C1144 C1142 1.415 . S
C1144 C1149 1.425 . S
C1144 C1151 1.409 . S
C1145 H1137 0.930 1_545 S
C1145 C1143 1.419 . S
C1145 C1146 1.362 . S
C1146 H1138 0.930 . S
C1146 C1145 1.362 . S
C1146 C1149 1.409 . S
C1147 H1139 0.930 . S
C1147 C1148 1.355 . S
C1147 C1149 1.415 . S
C1148 C1147 1.355 . S
C1148 C1150 1.419 . S
C1149 C1144 1.425 . S
C1149 C1146 1.409 . S
C1149 C1147 1.415 . S
C1150 H1140 0.930 . S
C1150 C1148 1.419 . S
C1150 C1151 1.362 . S
C1151 H1141 0.930 . S
C1151 C1144 1.409 . S
C1151 C1150 1.362 . S
H1152 C1158 0.930 . S
H1153 C1161 0.930 . S
H1154 C1162 0.930 . S
H1155 C1163 0.930 . S
H1156 C1166 0.930 . S
H1157 C1167 0.930 . S
C1158 H1152 0.930 . S
C1158 C1159 1.355 . S
C1158 C1160 1.415 . S
C1159 C1158 1.355 . S
C1159 C1161 1.419 . S
C1160 C1158 1.415 . S
C1160 C1165 1.425 . S
C1160 C1167 1.409 . S
C1161 H1153 0.930 . S
C1161 C1159 1.419 . S
C1161 C1162 1.362 . S
C1162 H1154 0.930 . S
C1162 C1161 1.362 . S
C1162 C1165 1.409 . S
C1163 H1155 0.930 . S
C1163 C1164 1.355 . S
C1163 C1165 1.415 . S
C1164 C1163 1.355 . S
C1164 C1166 1.419 . S
C1165 C1160 1.425 . S
C1165 C1162 1.409 . S
C1165 C1163 1.415 . S
C1166 H1156 0.930 . S
C1166 C1164 1.419 . S
C1166 C1167 1.362 . S
C1167 H1157 0.930 . S
C1167 C1160 1.409 . S
C1167 C1166 1.362 . S
H1168 C1174 0.930 . S
H1169 C1177 0.905 1_545 S
H1170 C1178 0.930 . S
H1171 C1179 0.930 . S
H1172 C1182 0.930 . S
H1173 C1183 0.930 . S
C1174 H1168 0.930 . S
C1174 C1175 1.355 . S
C1174 C1176 1.415 . S
C1175 C1174 1.355 . S
C1175 C1177 1.419 . S
C1176 C1174 1.415 . S
C1176 C1181 1.425 . S
C1176 C1183 1.409 . S
C1177 H1169 0.905 1_565 S
C1177 C1175 1.419 . S
C1177 C1178 1.362 . S
C1178 H1170 0.930 . S
C1178 C1177 1.362 . S
C1178 C1181 1.409 . S
C1179 H1171 0.930 . S
C1179 C1180 1.355 . S
C1179 C1181 1.415 . S
C1180 C1179 1.355 . S
C1180 C1182 1.419 . S
C1181 C1176 1.425 . S
C1181 C1178 1.409 . S
C1181 C1179 1.415 . S
C1182 H1172 0.930 . S
C1182 C1180 1.419 . S
C1182 C1183 1.362 . S
C1183 H1173 0.930 . S
C1183 C1176 1.409 . S
C1183 C1182 1.362 . S
H1184 C1190 0.930 . S
H1185 C1193 0.930 . S
H1186 C1194 0.930 . S
H1187 C1195 0.930 . S
H1188 C1198 0.930 . S
H1189 C1199 0.930 . S
C1190 H1184 0.930 . S
C1190 C1191 1.355 . S
C1190 C1192 1.415 . S
C1191 C1190 1.355 . S
C1191 C1193 1.419 . S
C1192 C1190 1.415 . S
C1192 C1197 1.425 . S
C1192 C1199 1.409 . S
C1193 H1185 0.930 . S
C1193 C1191 1.419 . S
C1193 C1194 1.362 . S
C1194 H1186 0.930 . S
C1194 C1193 1.362 . S
C1194 C1197 1.409 . S
C1195 H1187 0.930 . S
C1195 C1196 1.355 . S
C1195 C1197 1.415 . S
C1196 C1195 1.355 . S
C1196 C1198 1.419 . S
C1197 C1192 1.425 . S
C1197 C1194 1.409 . S
C1197 C1195 1.415 . S
C1198 H1188 0.930 . S
C1198 C1196 1.419 . S
C1198 C1199 1.362 . S
C1199 H1189 0.930 . S
C1199 C1192 1.409 . S
C1199 C1198 1.362 . S
H1200 C1206 0.930 . S
H1201 C1209 0.930 . S
H1202 C1210 0.930 . S
H1203 C1211 0.930 . S
H1204 C1214 0.930 . S
H1205 C1215 0.930 . S
C1206 H1200 0.930 . S
C1206 C1207 1.355 . S
C1206 C1208 1.415 . S
C1207 C1206 1.355 . S
C1207 C1209 1.419 . S
C1208 C1206 1.415 . S
C1208 C1213 1.425 . S
C1208 C1215 1.409 . S
C1209 H1201 0.930 . S
C1209 C1207 1.419 . S
C1209 C1210 1.362 . S
C1210 H1202 0.930 . S
C1210 C1209 1.362 . S
C1210 C1213 1.409 . S
C1211 H1203 0.930 . S
C1211 C1212 1.355 . S
C1211 C1213 1.415 . S
C1212 C1211 1.355 . S
C1212 C1214 1.419 . S
C1213 C1208 1.425 . S
C1213 C1210 1.409 . S
C1213 C1211 1.415 . S
C1214 H1204 0.930 . S
C1214 C1212 1.419 . S
C1214 C1215 1.362 . S
C1215 H1205 0.930 . S
C1215 C1208 1.409 . S
C1215 C1214 1.362 . S
H1216 C1222 0.930 . S
H1217 C1225 0.930 . S
H1218 C1226 0.930 . S
H1219 C1227 0.930 . S
H1220 C1230 0.930 . S
H1221 C1231 0.930 . S
C1222 H1216 0.930 . S
C1222 C1223 1.355 . S
C1222 C1224 1.415 . S
C1223 C1222 1.355 . S
C1223 C1225 1.419 . S
C1224 C1222 1.415 . S
C1224 C1229 1.425 . S
C1224 C1231 1.409 . S
C1225 H1217 0.930 . S
C1225 C1223 1.419 . S
C1225 C1226 1.362 . S
C1226 H1218 0.930 . S
C1226 C1225 1.362 . S
C1226 C1229 1.409 . S
C1227 H1219 0.930 . S
C1227 C1228 1.355 . S
C1227 C1229 1.415 . S
C1228 C1227 1.355 . S
C1228 C1230 1.419 . S
C1229 C1224 1.425 . S
C1229 C1226 1.409 . S
C1229 C1227 1.415 . S
C1230 H1220 0.930 . S
C1230 C1228 1.419 . S
C1230 C1231 1.362 . S
C1231 H1221 0.930 . S
C1231 C1224 1.409 . S
C1231 C1230 1.362 . S
H1232 C1238 0.930 . S
H1233 C1241 0.930 . S
H1234 C1242 0.930 . S
H1235 C1243 0.930 . S
H1236 C1246 0.930 . S
H1237 C1247 0.930 . S
C1238 H1232 0.930 . S
C1238 C1239 1.355 . S
C1238 C1240 1.415 . S
C1239 C1238 1.355 . S
C1239 C1241 1.419 . S
C1240 C1238 1.415 . S
C1240 C1245 1.425 . S
C1240 C1247 1.409 . S
C1241 H1233 0.930 . S
C1241 C1239 1.419 . S
C1241 C1242 1.362 . S
C1242 H1234 0.930 . S
C1242 C1241 1.362 . S
C1242 C1245 1.409 . S
C1243 H1235 0.930 . S
C1243 C1244 1.355 . S
C1243 C1245 1.415 . S
C1244 C1243 1.355 . S
C1244 C1246 1.419 . S
C1245 C1240 1.425 . S
C1245 C1242 1.409 . S
C1245 C1243 1.415 . S
C1246 H1236 0.930 . S
C1246 C1244 1.419 . S
C1246 C1247 1.362 . S
C1247 H1237 0.930 . S
C1247 C1240 1.409 . S
C1247 C1246 1.362 . S
H1248 C1254 0.930 . S
H1249 C1257 0.930 . S
H1250 C1258 0.930 . S
H1251 C1259 0.930 . S
H1252 C1262 0.930 . S
H1253 C1263 0.930 . S
C1254 H1248 0.930 . S
C1254 C1255 1.355 . S
C1254 C1256 1.415 . S
C1255 C1254 1.355 . S
C1255 C1257 1.419 . S
C1256 C1254 1.415 . S
C1256 C1261 1.425 . S
C1256 C1263 1.409 . S
C1257 H1249 0.930 . S
C1257 C1255 1.419 . S
C1257 C1258 1.362 . S
C1258 H1250 0.930 . S
C1258 C1257 1.362 . S
C1258 C1261 1.409 . S
C1259 H1251 0.930 . S
C1259 C1260 1.355 . S
C1259 C1261 1.415 . S
C1260 C1259 1.355 . S
C1260 C1262 1.419 . S
C1261 C1256 1.425 . S
C1261 C1258 1.409 . S
C1261 C1259 1.415 . S
C1262 H1252 0.930 . S
C1262 C1260 1.419 . S
C1262 C1263 1.362 . S
C1263 H1253 0.930 . S
C1263 C1256 1.409 . S
C1263 C1262 1.362 . S
H1264 C1270 0.930 . S
H1265 C1273 0.930 . S
H1266 C1274 0.930 . S
H1267 C1275 0.930 . S
H1268 C1278 0.930 . S
H1269 C1279 0.930 . S
C1270 H1264 0.930 . S
C1270 C1271 1.355 . S
C1270 C1272 1.415 . S
C1271 C1270 1.355 . S
C1271 C1273 1.419 . S
C1272 C1270 1.415 . S
C1272 C1277 1.425 . S
C1272 C1279 1.409 . S
C1273 H1265 0.930 . S
C1273 C1271 1.419 . S
C1273 C1274 1.362 . S
C1274 H1266 0.930 . S
C1274 C1273 1.362 . S
C1274 C1277 1.409 . S
C1275 H1267 0.930 . S
C1275 C1276 1.355 . S
C1275 C1277 1.415 . S
C1276 C1275 1.355 . S
C1276 C1278 1.419 . S
C1277 C1272 1.425 . S
C1277 C1274 1.409 . S
C1277 C1275 1.415 . S
C1278 H1268 0.930 . S
C1278 C1276 1.419 . S
C1278 C1279 1.362 . S
C1279 H1269 0.930 . S
C1279 C1272 1.409 . S
C1279 C1278 1.362 . S
H1280 C1286 0.930 . S
H1281 C1289 0.930 . S
H1282 C1290 0.930 . S
H1283 C1291 0.930 . S
H1284 C1294 0.930 . S
H1285 C1295 0.930 . S
C1286 H1280 0.930 . S
C1286 C1287 1.355 . S
C1286 C1288 1.415 . S
C1287 C1286 1.355 . S
C1287 C1289 1.419 . S
C1288 C1286 1.415 . S
C1288 C1293 1.425 . S
C1288 C1295 1.409 . S
C1289 H1281 0.930 . S
C1289 C1287 1.419 . S
C1289 C1290 1.362 . S
C1290 H1282 0.930 . S
C1290 C1289 1.362 . S
C1290 C1293 1.409 . S
C1291 H1283 0.930 . S
C1291 C1292 1.355 . S
C1291 C1293 1.415 . S
C1292 C1291 1.355 . S
C1292 C1294 1.419 . S
C1293 C1288 1.425 . S
C1293 C1290 1.409 . S
C1293 C1291 1.415 . S
C1294 H1284 0.930 . S
C1294 C1292 1.419 . S
C1294 C1295 1.362 . S
C1295 H1285 0.930 . S
C1295 C1288 1.409 . S
C1295 C1294 1.362 . S
H1296 C1302 0.930 . S
H1297 C1305 0.930 . S
H1298 C1306 0.930 . S
H1299 C1307 0.930 . S
H1300 C1310 0.930 . S
H1301 C1311 0.930 . S
C1302 H1296 0.930 . S
C1302 C1303 1.355 . S
C1302 C1304 1.415 . S
C1303 C1302 1.355 . S
C1303 C1305 1.419 . S
C1304 C1302 1.415 . S
C1304 C1309 1.425 . S
C1304 C1311 1.409 . S
C1305 H1297 0.930 . S
C1305 C1303 1.419 . S
C1305 C1306 1.362 . S
C1306 H1298 0.930 . S
C1306 C1305 1.362 . S
C1306 C1309 1.409 . S
C1307 H1299 0.930 . S
C1307 C1308 1.355 . S
C1307 C1309 1.415 . S
C1308 C1307 1.355 . S
C1308 C1310 1.419 . S
C1309 C1304 1.425 . S
C1309 C1306 1.409 . S
C1309 C1307 1.415 . S
C1310 H1300 0.930 . S
C1310 C1308 1.419 . S
C1310 C1311 1.362 . S
C1311 H1301 0.930 . S
C1311 C1304 1.409 . S
C1311 C1310 1.362 . S
H1312 C1318 0.930 . S
H1313 C1321 0.930 . S
H1314 C1322 0.930 . S
H1315 C1323 0.930 . S
H1316 C1326 0.930 . S
H1317 C1327 0.930 . S
C1318 H1312 0.930 . S
C1318 C1319 1.355 . S
C1318 C1320 1.502 . S
C1319 C1318 1.355 . S
C1319 C1321 1.419 . S
C1320 C1318 1.502 . S
C1320 C1325 1.410 1_556 S
C1320 C1327 1.336 1_556 S
C1321 H1313 0.930 . S
C1321 C1319 1.419 . S
C1321 C1322 1.362 . S
C1322 H1314 0.930 . S
C1322 C1321 1.362 . S
C1322 C1325 1.337 1_556 S
C1323 H1315 0.930 . S
C1323 C1324 1.355 . S
C1323 C1325 1.501 . S
C1324 C1323 1.355 . S
C1324 C1326 1.419 . S
C1325 C1320 1.410 1_554 S
C1325 C1322 1.337 1_554 S
C1325 C1323 1.501 . S
C1326 H1316 0.930 . S
C1326 C1324 1.419 . S
C1326 C1327 1.362 . S
C1327 H1317 0.930 . S
C1327 C1320 1.336 1_554 S
C1327 C1326 1.362 . S
H1328 C1334 0.930 . S
H1329 C1337 0.930 . S
H1330 C1338 0.930 . S
H1331 C1339 0.930 . S
H1332 C1342 0.930 . S
H1333 C1343 0.930 . S
C1334 H1328 0.930 . S
C1334 C1335 1.355 . S
C1334 C1336 1.415 . S
C1335 C1334 1.355 . S
C1335 C1337 1.419 1_565 S
C1336 C1334 1.415 . S
C1336 C1341 1.425 1_565 S
C1336 C1343 1.409 . S
C1337 H1329 0.930 . S
C1337 C1335 1.419 1_545 S
C1337 C1338 1.362 . S
C1338 H1330 0.930 . S
C1338 C1337 1.362 . S
C1338 C1341 1.409 . S
C1339 H1331 0.930 . S
C1339 C1340 1.355 . S
C1339 C1341 1.415 . S
C1340 C1339 1.355 . S
C1340 C1342 1.419 1_545 S
C1341 C1336 1.425 1_545 S
C1341 C1338 1.409 . S
C1341 C1339 1.415 . S
C1342 H1332 0.930 . S
C1342 C1340 1.419 1_565 S
C1342 C1343 1.362 . S
C1343 H1333 0.930 . S
C1343 C1336 1.409 . S
C1343 C1342 1.362 . S
H1344 C1350 0.930 . S
H1345 C1353 0.930 . S
H1346 C1354 0.930 . S
H1347 C1355 0.930 . S
H1348 C1358 0.930 . S
H1349 C1359 0.930 . S
C1350 H1344 0.930 . S
C1350 C1351 1.355 . S
C1350 C1352 1.415 . S
C1351 C1350 1.355 . S
C1351 C1353 1.419 . S
C1352 C1350 1.415 . S
C1352 C1357 1.425 . S
C1352 C1359 1.409 . S
C1353 H1345 0.930 . S
C1353 C1351 1.419 . S
C1353 C1354 1.362 . S
C1354 H1346 0.930 . S
C1354 C1353 1.362 . S
C1354 C1357 1.409 . S
C1355 H1347 0.930 . S
C1355 C1356 1.355 . S
C1355 C1357 1.415 . S
C1356 C1355 1.355 . S
C1356 C1358 1.419 . S
C1357 C1352 1.425 . S
C1357 C1354 1.409 . S
C1357 C1355 1.415 . S
C1358 H1348 0.930 . S
C1358 C1356 1.419 . S
C1358 C1359 1.362 . S
C1359 H1349 0.930 . S
C1359 C1352 1.409 . S
C1359 C1358 1.362 . S
H1360 C1366 0.930 . S
H1361 C1369 0.930 . S
H1362 C1370 0.930 . S
H1363 C1371 0.930 . S
H1364 C1374 0.930 . S
H1365 C1375 0.930 . S
C1366 H1360 0.930 . S
C1366 C1367 1.355 . S
C1366 C1368 1.415 . S
C1367 C1366 1.355 . S
C1367 C1369 1.419 1_545 S
C1368 C1366 1.415 . S
C1368 C1373 1.425 1_545 S
C1368 C1375 1.409 . S
C1369 H1361 0.930 . S
C1369 C1367 1.419 1_565 S
C1369 C1370 1.362 . S
C1370 H1362 0.930 . S
C1370 C1369 1.362 . S
C1370 C1373 1.409 . S
C1371 H1363 0.930 . S
C1371 C1372 1.355 . S
C1371 C1373 1.415 . S
C1372 C1371 1.355 . S
C1372 C1374 1.419 1_565 S
C1373 C1368 1.425 1_565 S
C1373 C1370 1.409 . S
C1373 C1371 1.415 . S
C1374 H1364 0.930 . S
C1374 C1372 1.419 1_545 S
C1374 C1375 1.362 . S
C1375 H1365 0.930 . S
C1375 C1368 1.409 . S
C1375 C1374 1.362 . S
H1376 C1382 0.930 . S
H1377 C1385 0.930 . S
H1378 C1386 0.930 . S
H1379 C1387 0.930 . S
H1380 C1390 0.930 . S
H1381 C1391 0.930 . S
C1382 H1376 0.930 . S
C1382 C1383 1.355 . S
C1382 C1384 1.493 . S
C1383 C1382 1.355 . S
C1383 C1385 1.419 . S
C1384 C1382 1.493 . S
C1384 C1389 1.413 1_556 S
C1384 C1391 1.342 1_556 S
C1385 H1377 0.930 . S
C1385 C1383 1.419 . S
C1385 C1386 1.362 . S
C1386 H1378 0.930 . S
C1386 C1385 1.362 . S
C1386 C1389 1.342 1_556 S
C1387 H1379 0.930 . S
C1387 C1388 1.355 . S
C1387 C1389 1.494 . S
C1388 C1387 1.355 . S
C1388 C1390 1.419 . S
C1389 C1384 1.413 1_554 S
C1389 C1386 1.342 1_554 S
C1389 C1387 1.494 . S
C1390 H1380 0.930 . S
C1390 C1388 1.419 . S
C1390 C1391 1.362 . S
C1391 H1381 0.930 . S
C1391 C1384 1.342 1_554 S
C1391 C1390 1.362 . S
H1392 C1398 0.930 . S
H1393 C1401 0.930 . S
H1394 C1402 0.930 . S
H1395 C1403 0.930 . S
H1396 C1406 0.930 . S
H1397 C1407 0.909 1_455 S
C1398 H1392 0.930 . S
C1398 C1399 1.355 1_545 S
C1398 C1400 1.415 . S
C1399 C1398 1.355 1_565 S
C1399 C1401 1.419 . S
C1400 C1398 1.415 . S
C1400 C1405 1.425 1_545 S
C1400 C1407 1.409 . S
C1401 H1393 0.930 . S
C1401 C1399 1.419 . S
C1401 C1402 1.362 . S
C1402 H1394 0.930 . S
C1402 C1401 1.362 . S
C1402 C1405 1.409 . S
C1403 H1395 0.930 . S
C1403 C1404 1.355 1_565 S
C1403 C1405 1.415 . S
C1404 C1403 1.355 1_545 S
C1404 C1406 1.419 . S
C1405 C1400 1.425 1_565 S
C1405 C1402 1.409 . S
C1405 C1403 1.415 . S
C1406 H1396 0.930 . S
C1406 C1404 1.419 . S
C1406 C1407 1.362 . S
C1407 H1397 0.909 1_655 S
C1407 C1400 1.409 . S
C1407 C1406 1.362 . S
H1408 C1414 0.930 . S
H1409 C1417 0.930 . S
H1410 C1418 0.930 . S
H1411 C1419 0.930 . S
H1412 C1422 0.930 . S
H1413 C1423 0.930 . S
C1414 H1408 0.930 . S
C1414 C1415 1.355 . S
C1414 C1416 1.415 . S
C1415 C1414 1.355 . S
C1415 C1417 1.419 . S
C1416 C1414 1.415 . S
C1416 C1421 1.425 . S
C1416 C1423 1.409 . S
C1417 H1409 0.930 . S
C1417 C1415 1.419 . S
C1417 C1418 1.362 . S
C1418 H1410 0.930 . S
C1418 C1417 1.362 . S
C1418 C1421 1.409 . S
C1419 H1411 0.930 . S
C1419 C1420 1.355 . S
C1419 C1421 1.415 . S
C1420 C1419 1.355 . S
C1420 C1422 1.419 . S
C1421 C1416 1.425 . S
C1421 C1418 1.409 . S
C1421 C1419 1.415 . S
C1422 H1412 0.930 . S
C1422 C1420 1.419 . S
C1422 C1423 1.362 . S
C1423 H1413 0.930 . S
C1423 C1416 1.409 . S
C1423 C1422 1.362 . S
H1424 C1430 0.930 . S
H1425 C1433 0.930 . S
H1426 C1434 0.930 . S
H1427 C1435 0.930 . S
H1428 C1438 0.930 . S
H1429 C1439 0.930 . S
C1430 H1424 0.930 . S
C1430 C1431 1.355 . S
C1430 C1432 1.415 . S
C1431 C1430 1.355 . S
C1431 C1433 1.419 1_545 S
C1432 C1430 1.415 . S
C1432 C1437 1.425 1_545 S
C1432 C1439 1.409 . S
C1433 H1425 0.930 . S
C1433 C1431 1.419 1_565 S
C1433 C1434 1.362 . S
C1434 H1426 0.930 . S
C1434 C1433 1.362 . S
C1434 C1437 1.409 . S
C1435 H1427 0.930 . S
C1435 C1436 1.355 . S
C1435 C1437 1.415 . S
C1436 C1435 1.355 . S
C1436 C1438 1.419 1_565 S
C1437 C1432 1.425 1_565 S
C1437 C1434 1.409 . S
C1437 C1435 1.415 . S
C1438 H1428 0.930 . S
C1438 C1436 1.419 1_545 S
C1438 C1439 1.362 . S
C1439 H1429 0.930 . S
C1439 C1432 1.409 . S
C1439 C1438 1.362 . S
H1440 C1446 0.930 . S
H1441 C1449 0.930 . S
H1442 C1450 0.930 . S
H1443 C1451 0.930 . S
H1444 C1454 0.930 . S
H1445 C1455 0.930 . S
C1446 H1440 0.930 . S
C1446 C1447 1.355 . S
C1446 C1448 1.415 . S
C1447 C1446 1.355 . S
C1447 C1449 1.419 . S
C1448 C1446 1.415 . S
C1448 C1453 1.425 . S
C1448 C1455 1.409 . S
C1449 H1441 0.930 . S
C1449 C1447 1.419 . S
C1449 C1450 1.362 . S
C1450 H1442 0.930 . S
C1450 C1449 1.362 . S
C1450 C1453 1.409 . S
C1451 H1443 0.930 . S
C1451 C1452 1.355 . S
C1451 C1453 1.415 . S
C1452 C1451 1.355 . S
C1452 C1454 1.419 . S
C1453 C1448 1.425 . S
C1453 C1450 1.409 . S
C1453 C1451 1.415 . S
C1454 H1444 0.930 . S
C1454 C1452 1.419 . S
C1454 C1455 1.362 . S
C1455 H1445 0.930 . S
C1455 C1448 1.409 . S
C1455 C1454 1.362 . S
H1456 C1462 0.930 . S
H1457 C1465 0.930 . S
H1458 C1466 0.930 . S
H1459 C1467 0.930 . S
H1460 C1470 0.930 . S
H1461 C1471 0.930 . S
C1462 H1456 0.930 . S
C1462 C1463 1.355 . S
C1462 C1464 1.415 . S
C1463 C1462 1.355 . S
C1463 C1465 1.419 . S
C1464 C1462 1.415 . S
C1464 C1469 1.425 . S
C1464 C1471 1.409 . S
C1465 H1457 0.930 . S
C1465 C1463 1.419 . S
C1465 C1466 1.362 . S
C1466 H1458 0.930 . S
C1466 C1465 1.362 . S
C1466 C1469 1.409 . S
C1467 H1459 0.930 . S
C1467 C1468 1.355 . S
C1467 C1469 1.415 . S
C1468 C1467 1.355 . S
C1468 C1470 1.419 . S
C1469 C1464 1.425 . S
C1469 C1466 1.409 . S
C1469 C1467 1.415 . S
C1470 H1460 0.930 . S
C1470 C1468 1.419 . S
C1470 C1471 1.362 . S
C1471 H1461 0.930 . S
C1471 C1464 1.409 . S
C1471 C1470 1.362 . S
H1472 C1478 0.930 . S
H1473 C1481 0.930 . S
H1474 C1482 0.930 . S
H1475 C1483 0.930 . S
H1476 C1486 0.930 . S
H1477 C1487 0.930 . S
C1478 H1472 0.930 . S
C1478 C1479 1.355 . S
C1478 C1480 1.415 . S
C1479 C1478 1.355 . S
C1479 C1481 1.419 . S
C1480 C1478 1.415 . S
C1480 C1485 1.425 1_556 S
C1480 C1487 1.409 1_556 S
C1481 H1473 0.930 . S
C1481 C1479 1.419 . S
C1481 C1482 1.362 . S
C1482 H1474 0.930 . S
C1482 C1481 1.362 . S
C1482 C1485 1.409 1_556 S
C1483 H1475 0.930 . S
C1483 C1484 1.355 . S
C1483 C1485 1.415 . S
C1484 C1483 1.355 . S
C1484 C1486 1.419 . S
C1485 C1480 1.425 1_554 S
C1485 C1482 1.409 1_554 S
C1485 C1483 1.415 . S
C1486 H1476 0.930 . S
C1486 C1484 1.419 . S
C1486 C1487 1.362 . S
C1487 H1477 0.930 . S
C1487 C1480 1.409 1_554 S
C1487 C1486 1.362 . S
H1488 C1494 0.930 . S
H1489 C1497 0.930 . S
H1490 C1498 0.930 . S
H1491 C1499 0.930 . S
H1492 C1502 0.930 . S
H1493 C1503 0.930 . S
C1494 H1488 0.930 . S
C1494 C1495 1.355 . S
C1494 C1496 1.415 . S
C1495 C1494 1.355 . S
C1495 C1497 1.419 . S
C1496 C1494 1.415 . S
C1496 C1501 1.425 . S
C1496 C1503 1.409 . S
C1497 H1489 0.930 . S
C1497 C1495 1.419 . S
C1497 C1498 1.362 . S
C1498 H1490 0.930 . S
C1498 C1497 1.362 . S
C1498 C1501 1.409 . S
C1499 H1491 0.930 . S
C1499 C1500 1.355 . S
C1499 C1501 1.415 . S
C1500 C1499 1.355 . S
C1500 C1502 1.419 . S
C1501 C1496 1.425 . S
C1501 C1498 1.409 . S
C1501 C1499 1.415 . S
C1502 H1492 0.930 . S
C1502 C1500 1.419 . S
C1502 C1503 1.362 . S
C1503 H1493 0.930 . S
C1503 C1496 1.409 . S
C1503 C1502 1.362 . S
H1504 C1510 0.930 . S
H1505 C1513 0.930 . S
H1506 C1514 0.930 . S
H1507 C1515 0.930 . S
H1508 C1518 0.930 . S
H1509 C1519 0.930 . S
C1510 H1504 0.930 . S
C1510 C1511 1.355 . S
C1510 C1512 1.415 . S
C1511 C1510 1.355 . S
C1511 C1513 1.419 . S
C1512 C1510 1.415 . S
C1512 C1517 1.425 . S
C1512 C1519 1.409 . S
C1513 H1505 0.930 . S
C1513 C1511 1.419 . S
C1513 C1514 1.362 . S
C1514 H1506 0.930 . S
C1514 C1513 1.362 . S
C1514 C1517 1.409 . S
C1515 H1507 0.930 . S
C1515 C1516 1.355 . S
C1515 C1517 1.415 . S
C1516 C1515 1.355 . S
C1516 C1518 1.419 . S
C1517 C1512 1.425 . S
C1517 C1514 1.409 . S
C1517 C1515 1.415 . S
C1518 H1508 0.930 . S
C1518 C1516 1.419 . S
C1518 C1519 1.362 . S
C1519 H1509 0.930 . S
C1519 C1512 1.409 . S
C1519 C1518 1.362 . S
H1520 C1526 0.930 . S
H1521 C1529 0.930 . S
H1522 C1530 0.930 . S
H1523 C1531 0.930 . S
H1524 C1534 0.930 . S
H1525 C1535 0.930 . S
C1526 H1520 0.930 . S
C1526 C1527 1.355 . S
C1526 C1528 1.415 . S
C1527 C1526 1.355 . S
C1527 C1529 1.419 . S
C1528 C1526 1.415 . S
C1528 C1533 1.425 . S
C1528 C1535 1.409 . S
C1529 H1521 0.930 . S
C1529 C1527 1.419 . S
C1529 C1530 1.362 . S
C1530 H1522 0.930 . S
C1530 C1529 1.362 . S
C1530 C1533 1.409 . S
C1531 H1523 0.930 . S
C1531 C1532 1.355 . S
C1531 C1533 1.415 . S
C1532 C1531 1.355 . S
C1532 C1534 1.419 . S
C1533 C1528 1.425 . S
C1533 C1530 1.409 . S
C1533 C1531 1.415 . S
C1534 H1524 0.930 . S
C1534 C1532 1.419 . S
C1534 C1535 1.362 . S
C1535 H1525 0.930 . S
C1535 C1528 1.409 . S
C1535 C1534 1.362 . S
H1536 C1542 0.930 . S
H1537 C1545 0.930 . S
H1538 C1546 0.930 . S
H1539 C1547 0.930 . S
H1540 C1550 0.930 . S
H1541 C1551 0.930 . S
C1542 H1536 0.930 . S
C1542 C1543 1.355 . S
C1542 C1544 1.415 . S
C1543 C1542 1.355 . S
C1543 C1545 1.419 . S
C1544 C1542 1.415 . S
C1544 C1549 1.425 1_554 S
C1544 C1551 1.409 1_554 S
C1545 H1537 0.930 . S
C1545 C1543 1.419 . S
C1545 C1546 1.362 . S
C1546 H1538 0.930 . S
C1546 C1545 1.362 . S
C1546 C1549 1.409 1_554 S
C1547 H1539 0.930 . S
C1547 C1548 1.355 . S
C1547 C1549 1.415 . S
C1548 C1547 1.355 . S
C1548 C1550 1.419 . S
C1549 C1544 1.425 1_556 S
C1549 C1546 1.409 1_556 S
C1549 C1547 1.415 . S
C1550 H1540 0.930 . S
C1550 C1548 1.419 . S
C1550 C1551 1.362 . S
C1551 H1541 0.930 . S
C1551 C1544 1.409 1_556 S
C1551 C1550 1.362 . S
H1552 C1558 0.930 . S
H1553 C1561 0.930 . S
H1554 C1562 0.930 . S
H1555 C1563 0.930 . S
H1556 C1566 0.930 . S
H1557 C1567 0.930 . S
C1558 H1552 0.930 . S
C1558 C1559 1.355 . S
C1558 C1560 1.415 . S
C1559 C1558 1.355 . S
C1559 C1561 1.419 . S
C1560 C1558 1.415 . S
C1560 C1565 1.425 . S
C1560 C1567 1.409 . S
C1561 H1553 0.930 . S
C1561 C1559 1.419 . S
C1561 C1562 1.362 . S
C1562 H1554 0.930 . S
C1562 C1561 1.362 . S
C1562 C1565 1.409 . S
C1563 H1555 0.930 . S
C1563 C1564 1.355 . S
C1563 C1565 1.415 . S
C1564 C1563 1.355 . S
C1564 C1566 1.419 . S
C1565 C1560 1.425 . S
C1565 C1562 1.409 . S
C1565 C1563 1.415 . S
C1566 H1556 0.930 . S
C1566 C1564 1.419 . S
C1566 C1567 1.362 . S
C1567 H1557 0.930 . S
C1567 C1560 1.409 . S
C1567 C1566 1.362 . S
H1568 C1574 0.930 . S
H1569 C1577 0.930 . S
H1570 C1578 0.930 . S
H1571 C1579 0.930 . S
H1572 C1582 0.930 . S
H1573 C1583 0.930 . S
C1574 H1568 0.930 . S
C1574 C1575 1.355 . S
C1574 C1576 1.415 . S
C1575 C1574 1.355 . S
C1575 C1577 1.419 . S
C1576 C1574 1.415 . S
C1576 C1581 1.425 . S
C1576 C1583 1.409 . S
C1577 H1569 0.930 . S
C1577 C1575 1.419 . S
C1577 C1578 1.362 . S
C1578 H1570 0.930 . S
C1578 C1577 1.362 . S
C1578 C1581 1.409 . S
C1579 H1571 0.930 . S
C1579 C1580 1.355 1_565 S
C1579 C1581 1.415 . S
C1580 C1579 1.355 1_545 S
C1580 C1582 1.419 . S
C1581 C1576 1.425 . S
C1581 C1578 1.409 . S
C1581 C1579 1.415 . S
C1582 H1572 0.930 . S
C1582 C1580 1.419 . S
C1582 C1583 1.362 1_545 S
C1583 H1573 0.930 . S
C1583 C1576 1.409 . S
C1583 C1582 1.362 1_565 S
H1584 C1590 0.930 . S
H1585 C1593 0.930 . S
H1586 C1594 0.930 . S
H1587 C1595 0.930 1_565 S
H1588 C1598 0.930 . S
H1589 C1599 0.930 . S
C1590 H1584 0.930 . S
C1590 C1591 1.355 1_545 S
C1590 C1592 1.415 . S
C1591 C1590 1.355 1_565 S
C1591 C1593 1.419 . S
C1592 C1590 1.415 . S
C1592 C1597 1.425 1_545 S
C1592 C1599 1.409 . S
C1593 H1585 0.930 . S
C1593 C1591 1.419 . S
C1593 C1594 1.362 . S
C1594 H1586 0.930 . S
C1594 C1593 1.362 . S
C1594 C1597 1.409 . S
C1595 H1587 0.930 1_545 S
C1595 C1596 1.355 . S
C1595 C1597 1.415 1_545 S
C1596 C1595 1.355 . S
C1596 C1598 1.419 . S
C1597 C1592 1.425 1_565 S
C1597 C1594 1.409 . S
C1597 C1595 1.415 1_565 S
C1598 H1588 0.930 . S
C1598 C1596 1.419 . S
C1598 C1599 1.362 . S
C1599 H1589 0.930 . S
C1599 C1592 1.409 . S
C1599 C1598 1.362 . S
H1600 C1606 0.930 . S
H1601 C1609 0.930 . S
H1602 C1610 0.930 . S
H1603 C1611 0.930 . S
H1604 C1614 0.930 1_565 S
H1605 C1615 0.930 . S
C1606 H1600 0.930 . S
C1606 C1607 1.355 . S
C1606 C1608 1.415 . S
C1607 C1606 1.355 . S
C1607 C1609 1.419 . S
C1608 C1606 1.415 . S
C1608 C1613 1.425 . S
C1608 C1615 1.409 . S
C1609 H1601 0.930 . S
C1609 C1607 1.419 . S
C1609 C1610 1.362 . S
C1610 H1602 0.930 . S
C1610 C1609 1.362 . S
C1610 C1613 1.409 . S
C1611 H1603 0.930 . S
C1611 C1612 1.355 1_545 S
C1611 C1613 1.415 . S
C1612 C1611 1.355 1_565 S
C1612 C1614 1.419 1_565 S
C1613 C1608 1.425 . S
C1613 C1610 1.409 . S
C1613 C1611 1.415 . S
C1614 H1604 0.930 1_545 S
C1614 C1612 1.419 1_545 S
C1614 C1615 1.362 . S
C1615 H1605 0.930 . S
C1615 C1608 1.409 . S
C1615 C1614 1.362 . S
H1616 C1622 0.930 . S
H1617 C1625 0.930 . S
H1618 C1626 0.930 . S
H1619 C1627 0.930 . S
H1620 C1630 0.930 . S
H1621 C1631 0.930 . S
C1622 H1616 0.930 . S
C1622 C1623 1.355 . S
C1622 C1624 1.415 . S
C1623 C1622 1.355 . S
C1623 C1625 1.419 1_565 S
C1624 C1622 1.415 . S
C1624 C1629 1.425 1_565 S
C1624 C1631 1.409 . S
C1625 H1617 0.930 . S
C1625 C1623 1.419 1_545 S
C1625 C1626 1.362 . S
C1626 H1618 0.930 . S
C1626 C1625 1.362 . S
C1626 C1629 1.409 . S
C1627 H1619 0.930 . S
C1627 C1628 1.355 . S
C1627 C1629 1.415 . S
C1628 C1627 1.355 . S
C1628 C1630 1.419 1_545 S
C1629 C1624 1.425 1_545 S
C1629 C1626 1.409 . S
C1629 C1627 1.415 . S
C1630 H1620 0.930 . S
C1630 C1628 1.419 1_565 S
C1630 C1631 1.362 . S
C1631 H1621 0.930 . S
C1631 C1624 1.409 . S
C1631 C1630 1.362 . S
H1632 C1638 0.930 . S
H1633 C1641 0.930 . S
H1634 C1642 0.930 . S
H1635 C1643 0.930 . S
H1636 C1646 0.930 . S
H1637 C1647 0.930 . S
C1638 H1632 0.930 . S
C1638 C1639 1.355 . S
C1638 C1640 1.415 . S
C1639 C1638 1.355 . S
C1639 C1641 1.419 . S
C1640 C1638 1.415 . S
C1640 C1645 1.425 . S
C1640 C1647 1.409 . S
C1641 H1633 0.930 . S
C1641 C1639 1.419 . S
C1641 C1642 1.362 . S
C1642 H1634 0.930 . S
C1642 C1641 1.362 . S
C1642 C1645 1.409 . S
C1643 H1635 0.930 . S
C1643 C1644 1.355 1_545 S
C1643 C1645 1.415 . S
C1644 C1643 1.355 1_565 S
C1644 C1646 1.419 . S
C1645 C1640 1.425 . S
C1645 C1642 1.409 . S
C1645 C1643 1.415 . S
C1646 H1636 0.930 . S
C1646 C1644 1.419 . S
C1646 C1647 1.362 1_565 S
C1647 H1637 0.930 . S
C1647 C1640 1.409 . S
C1647 C1646 1.362 1_545 S
H1648 C1654 0.930 . S
H1649 C1657 0.930 . S
H1650 C1658 0.930 . S
H1651 C1659 0.930 . S
H1652 C1662 0.930 . S
H1653 C1663 0.930 . S
C1654 H1648 0.930 . S
C1654 C1655 1.355 1_545 S
C1654 C1656 1.415 . S
C1655 C1654 1.355 1_565 S
C1655 C1657 1.419 . S
C1656 C1654 1.415 . S
C1656 C1661 1.425 . S
C1656 C1663 1.409 . S
C1657 H1649 0.930 . S
C1657 C1655 1.419 . S
C1657 C1658 1.362 . S
C1658 H1650 0.930 . S
C1658 C1657 1.362 . S
C1658 C1661 1.409 1_565 S
C1659 H1651 0.930 . S
C1659 C1660 1.355 . S
C1659 C1661 1.415 . S
C1660 C1659 1.355 . S
C1660 C1662 1.419 . S
C1661 C1656 1.425 . S
C1661 C1658 1.409 1_545 S
C1661 C1659 1.415 . S
C1662 H1652 0.930 . S
C1662 C1660 1.419 . S
C1662 C1663 1.362 . S
C1663 H1653 0.930 . S
C1663 C1656 1.409 . S
C1663 C1662 1.362 . S
H1664 C1670 0.930 . S
H1665 C1673 0.930 . S
H1666 C1674 0.930 . S
H1667 C1675 0.930 . S
H1668 C1678 0.930 . S
H1669 C1679 0.930 . S
C1670 H1664 0.930 . S
C1670 C1671 1.355 . S
C1670 C1672 1.415 . S
C1671 C1670 1.355 . S
C1671 C1673 1.419 . S
C1672 C1670 1.415 . S
C1672 C1677 1.425 . S
C1672 C1679 1.409 . S
C1673 H1665 0.930 . S
C1673 C1671 1.419 . S
C1673 C1674 1.362 . S
C1674 H1666 0.930 . S
C1674 C1673 1.362 . S
C1674 C1677 1.409 . S
C1675 H1667 0.930 . S
C1675 C1676 1.355 1_565 S
C1675 C1677 1.415 . S
C1676 C1675 1.355 1_545 S
C1676 C1678 1.419 . S
C1677 C1672 1.425 . S
C1677 C1674 1.409 . S
C1677 C1675 1.415 . S
C1678 H1668 0.930 . S
C1678 C1676 1.419 . S
C1678 C1679 1.362 1_545 S
C1679 H1669 0.930 . S
C1679 C1672 1.409 . S
C1679 C1678 1.362 1_565 S
H1680 C1686 0.930 . S
H1681 C1689 0.930 . S
H1682 C1690 0.930 . S
H1683 C1691 0.930 . S
H1684 C1694 0.930 . S
H1685 C1695 0.930 . S
C1686 H1680 0.930 . S
C1686 C1687 1.355 . S
C1686 C1688 1.415 . S
C1687 C1686 1.355 . S
C1687 C1689 1.419 . S
C1688 C1686 1.415 . S
C1688 C1693 1.425 . S
C1688 C1695 1.409 1_565 S
C1689 H1681 0.930 . S
C1689 C1687 1.419 . S
C1689 C1690 1.362 . S
C1690 H1682 0.930 . S
C1690 C1689 1.362 . S
C1690 C1693 1.409 . S
C1691 H1683 0.930 . S
C1691 C1692 1.355 1_565 S
C1691 C1693 1.415 . S
C1692 C1691 1.355 1_545 S
C1692 C1694 1.419 . S
C1693 C1688 1.425 . S
C1693 C1690 1.409 . S
C1693 C1691 1.415 . S
C1694 H1684 0.930 . S
C1694 C1692 1.419 . S
C1694 C1695 1.362 . S
C1695 H1685 0.930 . S
C1695 C1688 1.409 1_545 S
C1695 C1694 1.362 . S
H1696 C1702 0.930 1_565 S
H1697 C1705 0.930 . S
H1698 C1706 0.930 . S
H1699 C1707 0.930 . S
H1700 C1710 0.930 . S
H1701 C1711 0.930 . S
C1702 H1696 0.930 1_545 S
C1702 C1703 1.355 1_545 S
C1702 C1704 1.415 . S
C1703 C1702 1.355 1_565 S
C1703 C1705 1.419 1_565 S
C1704 C1702 1.415 . S
C1704 C1709 1.425 . S
C1704 C1711 1.409 . S
C1705 H1697 0.930 . S
C1705 C1703 1.419 1_545 S
C1705 C1706 1.362 . S
C1706 H1698 0.930 . S
C1706 C1705 1.362 . S
C1706 C1709 1.409 . S
C1707 H1699 0.930 . S
C1707 C1708 1.355 . S
C1707 C1709 1.415 . S
C1708 C1707 1.355 . S
C1708 C1710 1.419 . S
C1709 C1704 1.425 . S
C1709 C1706 1.409 . S
C1709 C1707 1.415 . S
C1710 H1700 0.930 . S
C1710 C1708 1.419 . S
C1710 C1711 1.362 . S
C1711 H1701 0.930 . S
C1711 C1704 1.409 . S
C1711 C1710 1.362 . S
H1712 C1718 0.930 . S
H1713 C1721 0.930 . S
H1714 C1722 0.930 . S
H1715 C1723 0.930 . S
H1716 C1726 0.930 . S
H1717 C1727 0.930 . S
C1718 H1712 0.930 . S
C1718 C1719 1.355 . S
C1718 C1720 1.415 . S
C1719 C1718 1.355 . S
C1719 C1721 1.419 1_565 S
C1720 C1718 1.415 . S
C1720 C1725 1.425 1_565 S
C1720 C1727 1.409 . S
C1721 H1713 0.930 . S
C1721 C1719 1.419 1_545 S
C1721 C1722 1.362 . S
C1722 H1714 0.930 . S
C1722 C1721 1.362 . S
C1722 C1725 1.409 . S
C1723 H1715 0.930 . S
C1723 C1724 1.355 . S
C1723 C1725 1.415 . S
C1724 C1723 1.355 . S
C1724 C1726 1.419 1_545 S
C1725 C1720 1.425 1_545 S
C1725 C1722 1.409 . S
C1725 C1723 1.415 . S
C1726 H1716 0.930 . S
C1726 C1724 1.419 1_565 S
C1726 C1727 1.362 . S
C1727 H1717 0.930 . S
C1727 C1720 1.409 . S
C1727 C1726 1.362 . S
H1728 C1734 0.928 1_545 S
H1729 C1737 0.930 . S
H1730 C1738 0.930 . S
H1731 C1739 0.930 . S
H1732 C1742 0.930 . S
H1733 C1743 0.930 . S
C1734 H1728 0.928 1_565 S
C1734 C1735 1.355 1_565 S
C1734 C1736 1.415 . S
C1735 C1734 1.355 1_545 S
C1735 C1737 1.419 1_545 S
C1736 C1734 1.415 . S
C1736 C1741 1.425 . S
C1736 C1743 1.409 . S
C1737 H1729 0.930 . S
C1737 C1735 1.419 1_565 S
C1737 C1738 1.362 . S
C1738 H1730 0.930 . S
C1738 C1737 1.362 . S
C1738 C1741 1.409 . S
C1739 H1731 0.930 . S
C1739 C1740 1.355 . S
C1739 C1741 1.415 . S
C1740 C1739 1.355 . S
C1740 C1742 1.419 . S
C1741 C1736 1.425 . S
C1741 C1738 1.409 . S
C1741 C1739 1.415 . S
C1742 H1732 0.930 . S
C1742 C1740 1.419 . S
C1742 C1743 1.362 . S
C1743 H1733 0.930 . S
C1743 C1736 1.409 . S
C1743 C1742 1.362 . S
H1744 C1750 0.930 . S
H1745 C1753 0.930 . S
H1746 C1754 0.930 . S
H1747 C1755 0.930 1_565 S
H1748 C1758 0.930 . S
H1749 C1759 0.930 . S
C1750 H1744 0.930 . S
C1750 C1751 1.355 1_545 S
C1750 C1752 1.415 . S
C1751 C1750 1.355 1_565 S
C1751 C1753 1.419 . S
C1752 C1750 1.415 . S
C1752 C1757 1.425 1_545 S
C1752 C1759 1.409 . S
C1753 H1745 0.930 . S
C1753 C1751 1.419 . S
C1753 C1754 1.362 . S
C1754 H1746 0.930 . S
C1754 C1753 1.362 . S
C1754 C1757 1.409 . S
C1755 H1747 0.930 1_545 S
C1755 C1756 1.355 . S
C1755 C1757 1.415 1_545 S
C1756 C1755 1.355 . S
C1756 C1758 1.419 . S
C1757 C1752 1.425 1_565 S
C1757 C1754 1.409 . S
C1757 C1755 1.415 1_565 S
C1758 H1748 0.930 . S
C1758 C1756 1.419 . S
C1758 C1759 1.362 . S
C1759 H1749 0.930 . S
C1759 C1752 1.409 . S
C1759 C1758 1.362 . S
H1760 C1766 0.930 . S
H1761 C1769 0.930 . S
H1762 C1770 0.930 . S
H1763 C1771 0.930 . S
H1764 C1774 0.930 1_545 S
H1765 C1775 0.930 . S
C1766 H1760 0.930 . S
C1766 C1767 1.355 . S
C1766 C1768 1.415 . S
C1767 C1766 1.355 . S
C1767 C1769 1.419 . S
C1768 C1766 1.415 . S
C1768 C1773 1.425 . S
C1768 C1775 1.409 . S
C1769 H1761 0.930 . S
C1769 C1767 1.419 . S
C1769 C1770 1.362 . S
C1770 H1762 0.930 . S
C1770 C1769 1.362 . S
C1770 C1773 1.409 . S
C1771 H1763 0.930 . S
C1771 C1772 1.355 1_565 S
C1771 C1773 1.415 . S
C1772 C1771 1.355 1_545 S
C1772 C1774 1.419 1_545 S
C1773 C1768 1.425 . S
C1773 C1770 1.409 . S
C1773 C1771 1.415 . S
C1774 H1764 0.930 1_565 S
C1774 C1772 1.419 1_565 S
C1774 C1775 1.362 . S
C1775 H1765 0.930 . S
C1775 C1768 1.409 . S
C1775 C1774 1.362 . S
H1776 C1782 0.930 . S
H1777 C1785 0.930 . S
H1778 C1786 0.930 . S
H1779 C1787 0.930 . S
H1780 C1790 0.930 . S
H1781 C1791 0.930 . S
C1782 H1776 0.930 . S
C1782 C1783 1.355 . S
C1782 C1784 1.415 . S
C1783 C1782 1.355 . S
C1783 C1785 1.419 1_565 S
C1784 C1782 1.415 . S
C1784 C1789 1.425 1_565 S
C1784 C1791 1.409 . S
C1785 H1777 0.930 . S
C1785 C1783 1.419 1_545 S
C1785 C1786 1.362 . S
C1786 H1778 0.930 . S
C1786 C1785 1.362 . S
C1786 C1789 1.409 . S
C1787 H1779 0.930 . S
C1787 C1788 1.355 . S
C1787 C1789 1.415 . S
C1788 C1787 1.355 . S
C1788 C1790 1.419 1_545 S
C1789 C1784 1.425 1_545 S
C1789 C1786 1.409 . S
C1789 C1787 1.415 . S
C1790 H1780 0.930 . S
C1790 C1788 1.419 1_565 S
C1790 C1791 1.362 . S
C1791 H1781 0.930 . S
C1791 C1784 1.409 . S
C1791 C1790 1.362 . S
H1792 C1798 0.930 . S
H1793 C1801 0.930 1_565 S
H1794 C1802 0.930 . S
H1795 C1803 0.930 . S
H1796 C1806 0.930 . S
H1797 C1807 0.930 . S
C1798 H1792 0.930 . S
C1798 C1799 1.355 1_545 S
C1798 C1800 1.415 . S
C1799 C1798 1.355 1_565 S
C1799 C1801 1.419 1_565 S
C1800 C1798 1.415 . S
C1800 C1805 1.425 . S
C1800 C1807 1.409 . S
C1801 H1793 0.930 1_545 S
C1801 C1799 1.419 1_545 S
C1801 C1802 1.362 . S
C1802 H1794 0.930 . S
C1802 C1801 1.362 . S
C1802 C1805 1.409 . S
C1803 H1795 0.930 . S
C1803 C1804 1.355 . S
C1803 C1805 1.415 . S
C1804 C1803 1.355 . S
C1804 C1806 1.419 . S
C1805 C1800 1.425 . S
C1805 C1802 1.409 . S
C1805 C1803 1.415 . S
C1806 H1796 0.930 . S
C1806 C1804 1.419 . S
C1806 C1807 1.362 . S
C1807 H1797 0.930 . S
C1807 C1800 1.409 . S
C1807 C1806 1.362 . S
H1808 C1814 0.930 . S
H1809 C1817 0.930 . S
H1810 C1818 0.930 . S
H1811 C1819 0.930 . S
H1812 C1822 0.930 . S
H1813 C1823 0.930 . S
C1814 H1808 0.930 . S
C1814 C1815 1.355 . S
C1814 C1816 1.415 . S
C1815 C1814 1.355 . S
C1815 C1817 1.419 . S
C1816 C1814 1.415 . S
C1816 C1821 1.425 1_545 S
C1816 C1823 1.409 . S
C1817 H1809 0.930 . S
C1817 C1815 1.419 . S
C1817 C1818 1.362 1_545 S
C1818 H1810 0.930 . S
C1818 C1817 1.362 1_565 S
C1818 C1821 1.409 . S
C1819 H1811 0.930 . S
C1819 C1820 1.355 . S
C1819 C1821 1.415 . S
C1820 C1819 1.355 . S
C1820 C1822 1.419 1_565 S
C1821 C1816 1.425 1_565 S
C1821 C1818 1.409 . S
C1821 C1819 1.415 . S
C1822 H1812 0.930 . S
C1822 C1820 1.419 1_545 S
C1822 C1823 1.362 . S
C1823 H1813 0.930 . S
C1823 C1816 1.409 . S
C1823 C1822 1.362 . S
H1824 C1830 0.930 . S
H1825 C1833 0.930 . S
H1826 C1834 0.930 . S
H1827 C1835 0.930 . S
H1828 C1838 0.930 . S
H1829 C1839 0.930 . S
C1830 H1824 0.930 . S
C1830 C1831 1.355 . S
C1830 C1832 1.415 . S
C1831 C1830 1.355 . S
C1831 C1833 1.419 . S
C1832 C1830 1.415 . S
C1832 C1837 1.425 . S
C1832 C1839 1.409 . S
C1833 H1825 0.930 . S
C1833 C1831 1.419 . S
C1833 C1834 1.362 . S
C1834 H1826 0.930 . S
C1834 C1833 1.362 . S
C1834 C1837 1.409 . S
C1835 H1827 0.930 . S
C1835 C1836 1.355 . S
C1835 C1837 1.415 . S
C1836 C1835 1.355 . S
C1836 C1838 1.419 . S
C1837 C1832 1.425 . S
C1837 C1834 1.409 . S
C1837 C1835 1.415 . S
C1838 H1828 0.930 . S
C1838 C1836 1.419 . S
C1838 C1839 1.362 . S
C1839 H1829 0.930 . S
C1839 C1832 1.409 . S
C1839 C1838 1.362 . S
H1840 C1846 0.930 . S
H1841 C1849 0.930 . S
H1842 C1850 0.930 . S
H1843 C1851 0.930 . S
H1844 C1854 0.930 . S
H1845 C1855 0.930 . S
C1846 H1840 0.930 . S
C1846 C1847 1.355 . S
C1846 C1848 1.415 . S
C1847 C1846 1.355 . S
C1847 C1849 1.419 . S
C1848 C1846 1.415 . S
C1848 C1853 1.425 . S
C1848 C1855 1.409 . S
C1849 H1841 0.930 . S
C1849 C1847 1.419 . S
C1849 C1850 1.362 . S
C1850 H1842 0.930 . S
C1850 C1849 1.362 . S
C1850 C1853 1.409 . S
C1851 H1843 0.930 . S
C1851 C1852 1.355 . S
C1851 C1853 1.415 . S
C1852 C1851 1.355 . S
C1852 C1854 1.419 . S
C1853 C1848 1.425 . S
C1853 C1850 1.409 . S
C1853 C1851 1.415 . S
C1854 H1844 0.930 . S
C1854 C1852 1.419 . S
C1854 C1855 1.362 . S
C1855 H1845 0.930 . S
C1855 C1848 1.409 . S
C1855 C1854 1.362 . S
H1856 C1862 0.930 . S
H1857 C1865 0.930 . S
H1858 C1866 0.930 . S
H1859 C1867 0.930 . S
H1860 C1870 0.930 . S
H1861 C1871 0.930 . S
C1862 H1856 0.930 . S
C1862 C1863 1.355 . S
C1862 C1864 1.415 . S
C1863 C1862 1.355 . S
C1863 C1865 1.419 . S
C1864 C1862 1.415 . S
C1864 C1869 1.425 . S
C1864 C1871 1.409 . S
C1865 H1857 0.930 . S
C1865 C1863 1.419 . S
C1865 C1866 1.362 . S
C1866 H1858 0.930 . S
C1866 C1865 1.362 . S
C1866 C1869 1.409 . S
C1867 H1859 0.930 . S
C1867 C1868 1.355 . S
C1867 C1869 1.415 . S
C1868 C1867 1.355 . S
C1868 C1870 1.419 . S
C1869 C1864 1.425 . S
C1869 C1866 1.409 . S
C1869 C1867 1.415 . S
C1870 H1860 0.930 . S
C1870 C1868 1.419 . S
C1870 C1871 1.362 . S
C1871 H1861 0.930 . S
C1871 C1864 1.409 . S
C1871 C1870 1.362 . S
H1872 C1878 0.930 . S
H1873 C1881 0.930 . S
H1874 C1882 0.930 . S
H1875 C1883 0.930 . S
H1876 C1886 0.930 . S
H1877 C1887 0.930 . S
C1878 H1872 0.930 . S
C1878 C1879 1.355 . S
C1878 C1880 1.415 . S
C1879 C1878 1.355 . S
C1879 C1881 1.419 . S
C1880 C1878 1.415 . S
C1880 C1885 1.425 . S
C1880 C1887 1.409 . S
C1881 H1873 0.930 . S
C1881 C1879 1.419 . S
C1881 C1882 1.362 . S
C1882 H1874 0.930 . S
C1882 C1881 1.362 . S
C1882 C1885 1.409 . S
C1883 H1875 0.930 . S
C1883 C1884 1.355 . S
C1883 C1885 1.415 . S
C1884 C1883 1.355 . S
C1884 C1886 1.419 . S
C1885 C1880 1.425 . S
C1885 C1882 1.409 . S
C1885 C1883 1.415 . S
C1886 H1876 0.930 . S
C1886 C1884 1.419 . S
C1886 C1887 1.362 . S
C1887 H1877 0.930 . S
C1887 C1880 1.409 . S
C1887 C1886 1.362 . S
H1888 C1894 0.930 . S
H1889 C1897 0.930 . S
H1890 C1898 0.930 . S
H1891 C1899 0.930 . S
H1892 C1902 0.930 . S
H1893 C1903 0.930 . S
C1894 H1888 0.930 . S
C1894 C1895 1.355 . S
C1894 C1896 1.415 . S
C1895 C1894 1.355 . S
C1895 C1897 1.419 . S
C1896 C1894 1.415 . S
C1896 C1901 1.425 . S
C1896 C1903 1.409 . S
C1897 H1889 0.930 . S
C1897 C1895 1.419 . S
C1897 C1898 1.362 . S
C1898 H1890 0.930 . S
C1898 C1897 1.362 . S
C1898 C1901 1.409 . S
C1899 H1891 0.930 . S
C1899 C1900 1.355 . S
C1899 C1901 1.415 . S
C1900 C1899 1.355 . S
C1900 C1902 1.419 . S
C1901 C1896 1.425 . S
C1901 C1898 1.409 . S
C1901 C1899 1.415 . S
C1902 H1892 0.930 . S
C1902 C1900 1.419 . S
C1902 C1903 1.362 . S
C1903 H1893 0.930 . S
C1903 C1896 1.409 . S
C1903 C1902 1.362 . S
H1904 C1910 0.930 . S
H1905 C1913 0.930 . S
H1906 C1914 0.930 . S
H1907 C1915 0.930 . S
H1908 C1918 0.930 . S
H1909 C1919 0.930 . S
C1910 H1904 0.930 . S
C1910 C1911 1.355 . S
C1910 C1912 1.415 . S
C1911 C1910 1.355 . S
C1911 C1913 1.419 . S
C1912 C1910 1.415 . S
C1912 C1917 1.425 . S
C1912 C1919 1.409 . S
C1913 H1905 0.930 . S
C1913 C1911 1.419 . S
C1913 C1914 1.362 . S
C1914 H1906 0.930 . S
C1914 C1913 1.362 . S
C1914 C1917 1.409 . S
C1915 H1907 0.930 . S
C1915 C1916 1.355 . S
C1915 C1917 1.415 . S
C1916 C1915 1.355 . S
C1916 C1918 1.419 . S
C1917 C1912 1.425 . S
C1917 C1914 1.409 . S
C1917 C1915 1.415 . S
C1918 H1908 0.930 . S
C1918 C1916 1.419 . S
C1918 C1919 1.362 . S
C1919 H1909 0.930 . S
C1919 C1912 1.409 . S
C1919 C1918 1.362 . S
H1920 C1926 0.930 . S
H1921 C1929 0.930 . S
H1922 C1930 0.930 . S
H1923 C1931 0.930 . S
H1924 C1934 0.930 . S
H1925 C1935 0.930 . S
C1926 H1920 0.930 . S
C1926 C1927 1.355 . S
C1926 C1928 1.415 . S
C1927 C1926 1.355 . S
C1927 C1929 1.419 . S
C1928 C1926 1.415 . S
C1928 C1933 1.425 . S
C1928 C1935 1.409 . S
C1929 H1921 0.930 . S
C1929 C1927 1.419 . S
C1929 C1930 1.362 . S
C1930 H1922 0.930 . S
C1930 C1929 1.362 . S
C1930 C1933 1.409 . S
C1931 H1923 0.930 . S
C1931 C1932 1.355 . S
C1931 C1933 1.415 . S
C1932 C1931 1.355 . S
C1932 C1934 1.419 . S
C1933 C1928 1.425 . S
C1933 C1930 1.409 . S
C1933 C1931 1.415 . S
C1934 H1924 0.930 . S
C1934 C1932 1.419 . S
C1934 C1935 1.362 . S
C1935 H1925 0.930 . S
C1935 C1928 1.409 . S
C1935 C1934 1.362 . S
H1936 C1942 0.930 . S
H1937 C1945 0.930 . S
H1938 C1946 0.930 . S
H1939 C1947 0.930 . S
H1940 C1950 0.930 . S
H1941 C1951 0.930 . S
C1942 H1936 0.930 . S
C1942 C1943 1.355 . S
C1942 C1944 1.415 . S
C1943 C1942 1.355 . S
C1943 C1945 1.419 . S
C1944 C1942 1.415 . S
C1944 C1949 1.425 . S
C1944 C1951 1.409 . S
C1945 H1937 0.930 . S
C1945 C1943 1.419 . S
C1945 C1946 1.362 . S
C1946 H1938 0.930 . S
C1946 C1945 1.362 . S
C1946 C1949 1.409 . S
C1947 H1939 0.930 . S
C1947 C1948 1.355 . S
C1947 C1949 1.415 . S
C1948 C1947 1.355 . S
C1948 C1950 1.419 . S
C1949 C1944 1.425 . S
C1949 C1946 1.409 . S
C1949 C1947 1.415 . S
C1950 H1940 0.930 . S
C1950 C1948 1.419 . S
C1950 C1951 1.362 . S
C1951 H1941 0.930 . S
C1951 C1944 1.409 . S
C1951 C1950 1.362 . S
H1952 C1958 0.930 . S
H1953 C1961 0.930 . S
H1954 C1962 0.930 . S
H1955 C1963 0.930 . S
H1956 C1966 0.930 . S
H1957 C1967 0.930 . S
C1958 H1952 0.930 . S
C1958 C1959 1.355 . S
C1958 C1960 1.415 . S
C1959 C1958 1.355 . S
C1959 C1961 1.419 . S
C1960 C1958 1.415 . S
C1960 C1965 1.425 . S
C1960 C1967 1.409 . S
C1961 H1953 0.930 . S
C1961 C1959 1.419 . S
C1961 C1962 1.362 . S
C1962 H1954 0.930 . S
C1962 C1961 1.362 . S
C1962 C1965 1.409 . S
C1963 H1955 0.930 . S
C1963 C1964 1.355 . S
C1963 C1965 1.415 . S
C1964 C1963 1.355 . S
C1964 C1966 1.419 . S
C1965 C1960 1.425 . S
C1965 C1962 1.409 . S
C1965 C1963 1.415 . S
C1966 H1956 0.930 . S
C1966 C1964 1.419 . S
C1966 C1967 1.362 . S
C1967 H1957 0.930 . S
C1967 C1960 1.409 . S
C1967 C1966 1.362 . S
H1968 C1974 0.930 . S
H1969 C1977 0.930 . S
H1970 C1978 0.930 . S
H1971 C1979 0.930 . S
H1972 C1982 0.930 . S
H1973 C1983 0.930 . S
C1974 H1968 0.930 . S
C1974 C1975 1.355 . S
C1974 C1976 1.415 . S
C1975 C1974 1.355 . S
C1975 C1977 1.419 . S
C1976 C1974 1.415 . S
C1976 C1981 1.425 . S
C1976 C1983 1.409 . S
C1977 H1969 0.930 . S
C1977 C1975 1.419 . S
C1977 C1978 1.362 . S
C1978 H1970 0.930 . S
C1978 C1977 1.362 . S
C1978 C1981 1.409 . S
C1979 H1971 0.930 . S
C1979 C1980 1.355 . S
C1979 C1981 1.415 . S
C1980 C1979 1.355 . S
C1980 C1982 1.419 . S
C1981 C1976 1.425 . S
C1981 C1978 1.409 . S
C1981 C1979 1.415 . S
C1982 H1972 0.930 . S
C1982 C1980 1.419 . S
C1982 C1983 1.362 . S
C1983 H1973 0.930 . S
C1983 C1976 1.409 . S
C1983 C1982 1.362 . S
H1984 C1990 0.930 . S
H1985 C1993 0.930 . S
H1986 C1994 0.930 . S
H1987 C1995 0.930 . S
H1988 C1998 0.930 . S
H1989 C1999 0.930 . S
C1990 H1984 0.930 . S
C1990 C1991 1.355 . S
C1990 C1992 1.415 . S
C1991 C1990 1.355 . S
C1991 C1993 1.419 . S
C1992 C1990 1.415 . S
C1992 C1997 1.425 . S
C1992 C1999 1.409 . S
C1993 H1985 0.930 . S
C1993 C1991 1.419 . S
C1993 C1994 1.362 . S
C1994 H1986 0.930 . S
C1994 C1993 1.362 . S
C1994 C1997 1.409 . S
C1995 H1987 0.930 . S
C1995 C1996 1.355 . S
C1995 C1997 1.415 . S
C1996 C1995 1.355 . S
C1996 C1998 1.419 . S
C1997 C1992 1.425 . S
C1997 C1994 1.409 . S
C1997 C1995 1.415 . S
C1998 H1988 0.930 . S
C1998 C1996 1.419 . S
C1998 C1999 1.362 . S
C1999 H1989 0.930 . S
C1999 C1992 1.409 . S
C1999 C1998 1.362 . S
H2000 C2006 0.930 . S
H2001 C2009 0.930 . S
H2002 C2010 0.930 . S
H2003 C2011 0.930 . S
H2004 C2014 0.930 . S
H2005 C2015 0.930 . S
C2006 H2000 0.930 . S
C2006 C2007 1.355 . S
C2006 C2008 1.415 . S
C2007 C2006 1.355 . S
C2007 C2009 1.419 . S
C2008 C2006 1.415 . S
C2008 C2013 1.425 . S
C2008 C2015 1.409 . S
C2009 H2001 0.930 . S
C2009 C2007 1.419 . S
C2009 C2010 1.362 . S
C2010 H2002 0.930 . S
C2010 C2009 1.362 . S
C2010 C2013 1.409 . S
C2011 H2003 0.930 . S
C2011 C2012 1.355 . S
C2011 C2013 1.415 . S
C2012 C2011 1.355 . S
C2012 C2014 1.419 . S
C2013 C2008 1.425 . S
C2013 C2010 1.409 . S
C2013 C2011 1.415 . S
C2014 H2004 0.930 . S
C2014 C2012 1.419 . S
C2014 C2015 1.362 . S
C2015 H2005 0.930 . S
C2015 C2008 1.409 . S
C2015 C2014 1.362 . S
H2016 C2022 0.930 . S
H2017 C2025 0.930 . S
H2018 C2026 0.930 . S
H2019 C2027 0.930 . S
H2020 C2030 0.930 . S
H2021 C2031 0.930 . S
C2022 H2016 0.930 . S
C2022 C2023 1.355 . S
C2022 C2024 1.415 . S
C2023 C2022 1.355 . S
C2023 C2025 1.419 . S
C2024 C2022 1.415 . S
C2024 C2029 1.425 . S
C2024 C2031 1.409 . S
C2025 H2017 0.930 . S
C2025 C2023 1.419 . S
C2025 C2026 1.362 . S
C2026 H2018 0.930 . S
C2026 C2025 1.362 . S
C2026 C2029 1.409 . S
C2027 H2019 0.930 . S
C2027 C2028 1.355 . S
C2027 C2029 1.415 . S
C2028 C2027 1.355 . S
C2028 C2030 1.419 . S
C2029 C2024 1.425 . S
C2029 C2026 1.409 . S
C2029 C2027 1.415 . S
C2030 H2020 0.930 . S
C2030 C2028 1.419 . S
C2030 C2031 1.362 . S
C2031 H2021 0.930 . S
C2031 C2024 1.409 . S
C2031 C2030 1.362 . S
H2032 C2038 0.930 . S
H2033 C2041 0.930 . S
H2034 C2042 0.930 . S
H2035 C2043 0.930 . S
H2036 C2046 0.930 . S
H2037 C2047 0.930 . S
C2038 H2032 0.930 . S
C2038 C2039 1.355 . S
C2038 C2040 1.415 . S
C2039 C2038 1.355 . S
C2039 C2041 1.419 . S
C2040 C2038 1.415 . S
C2040 C2045 1.425 . S
C2040 C2047 1.409 . S
C2041 H2033 0.930 . S
C2041 C2039 1.419 . S
C2041 C2042 1.362 . S
C2042 H2034 0.930 . S
C2042 C2041 1.362 . S
C2042 C2045 1.409 . S
C2043 H2035 0.930 . S
C2043 C2044 1.355 . S
C2043 C2045 1.415 . S
C2044 C2043 1.355 . S
C2044 C2046 1.419 . S
C2045 C2040 1.425 . S
C2045 C2042 1.409 . S
C2045 C2043 1.415 . S
C2046 H2036 0.930 . S
C2046 C2044 1.419 . S
C2046 C2047 1.362 . S
C2047 H2037 0.930 . S
C2047 C2040 1.409 . S
C2047 C2046 1.362 . S
H2048 C2054 0.930 . S
H2049 C2057 0.930 . S
H2050 C2058 0.930 . S
H2051 C2059 0.930 . S
H2052 C2062 0.930 . S
H2053 C2063 0.930 . S
C2054 H2048 0.930 . S
C2054 C2055 1.355 . S
C2054 C2056 1.415 . S
C2055 C2054 1.355 . S
C2055 C2057 1.419 . S
C2056 C2054 1.415 . S
C2056 C2061 1.425 . S
C2056 C2063 1.409 . S
C2057 H2049 0.930 . S
C2057 C2055 1.419 . S
C2057 C2058 1.362 . S
C2058 H2050 0.930 . S
C2058 C2057 1.362 . S
C2058 C2061 1.409 . S
C2059 H2051 0.930 . S
C2059 C2060 1.355 . S
C2059 C2061 1.415 . S
C2060 C2059 1.355 . S
C2060 C2062 1.419 . S
C2061 C2056 1.425 . S
C2061 C2058 1.409 . S
C2061 C2059 1.415 . S
C2062 H2052 0.930 . S
C2062 C2060 1.419 . S
C2062 C2063 1.362 . S
C2063 H2053 0.930 . S
C2063 C2056 1.409 . S
C2063 C2062 1.362 . S
H2064 C2070 0.930 . S
H2065 C2073 0.930 . S
H2066 C2074 0.930 . S
H2067 C2075 0.930 . S
H2068 C2078 0.930 . S
H2069 C2079 0.930 . S
C2070 H2064 0.930 . S
C2070 C2071 1.355 . S
C2070 C2072 1.415 . S
C2071 C2070 1.355 . S
C2071 C2073 1.419 . S
C2072 C2070 1.415 . S
C2072 C2077 1.425 . S
C2072 C2079 1.409 . S
C2073 H2065 0.930 . S
C2073 C2071 1.419 . S
C2073 C2074 1.362 . S
C2074 H2066 0.930 . S
C2074 C2073 1.362 . S
C2074 C2077 1.409 . S
C2075 H2067 0.930 . S
C2075 C2076 1.355 . S
C2075 C2077 1.415 . S
C2076 C2075 1.355 . S
C2076 C2078 1.419 . S
C2077 C2072 1.425 . S
C2077 C2074 1.409 . S
C2077 C2075 1.415 . S
C2078 H2068 0.930 . S
C2078 C2076 1.419 . S
C2078 C2079 1.362 . S
C2079 H2069 0.930 . S
C2079 C2072 1.409 . S
C2079 C2078 1.362 . S
H2080 C2086 0.930 . S
H2081 C2089 0.930 . S
H2082 C2090 0.930 . S
H2083 C2091 0.930 . S
H2084 C2094 0.930 . S
H2085 C2095 0.930 . S
C2086 H2080 0.930 . S
C2086 C2087 1.355 . S
C2086 C2088 1.415 . S
C2087 C2086 1.355 . S
C2087 C2089 1.419 . S
C2088 C2086 1.415 . S
C2088 C2093 1.425 . S
C2088 C2095 1.409 . S
C2089 H2081 0.930 . S
C2089 C2087 1.419 . S
C2089 C2090 1.362 . S
C2090 H2082 0.930 . S
C2090 C2089 1.362 . S
C2090 C2093 1.409 . S
C2091 H2083 0.930 . S
C2091 C2092 1.355 . S
C2091 C2093 1.415 . S
C2092 C2091 1.355 . S
C2092 C2094 1.419 . S
C2093 C2088 1.425 . S
C2093 C2090 1.409 . S
C2093 C2091 1.415 . S
C2094 H2084 0.930 . S
C2094 C2092 1.419 . S
C2094 C2095 1.362 . S
C2095 H2085 0.930 . S
C2095 C2088 1.409 . S
C2095 C2094 1.362 . S
H2096 C2102 0.930 1_455 S
H2097 C2105 0.930 . S
H2098 C2106 0.930 . S
H2099 C2107 0.930 1_655 S
H2100 C2110 0.930 . S
H2101 C2111 0.930 . S
C2102 H2096 0.930 1_655 S
C2102 C2103 1.355 . S
C2102 C2104 1.415 1_655 S
C2103 C2102 1.355 . S
C2103 C2105 1.419 . S
C2104 C2102 1.415 1_455 S
C2104 C2109 1.425 1_455 S
C2104 C2111 1.409 . S
C2105 H2097 0.930 . S
C2105 C2103 1.419 . S
C2105 C2106 1.362 . S
C2106 H2098 0.930 . S
C2106 C2105 1.362 . S
C2106 C2109 1.409 . S
C2107 H2099 0.930 1_455 S
C2107 C2108 1.355 . S
C2107 C2109 1.415 1_455 S
C2108 C2107 1.355 . S
C2108 C2110 1.419 . S
C2109 C2104 1.425 1_655 S
C2109 C2106 1.409 . S
C2109 C2107 1.415 1_655 S
C2110 H2100 0.930 . S
C2110 C2108 1.419 . S
C2110 C2111 1.362 . S
C2111 H2101 0.930 . S
C2111 C2104 1.409 . S
C2111 C2110 1.362 . S
H2112 C2118 0.930 . S
H2113 C2121 0.930 . S
H2114 C2122 0.930 . S
H2115 C2123 0.930 . S
H2116 C2126 0.930 . S
H2117 C2127 0.930 . S
C2118 H2112 0.930 . S
C2118 C2119 1.355 . S
C2118 C2120 1.415 . S
C2119 C2118 1.355 . S
C2119 C2121 1.419 . S
C2120 C2118 1.415 . S
C2120 C2125 1.425 1_455 S
C2120 C2127 1.409 1_455 S
C2121 H2113 0.930 . S
C2121 C2119 1.419 . S
C2121 C2122 1.362 . S
C2122 H2114 0.930 . S
C2122 C2121 1.362 . S
C2122 C2125 1.409 1_455 S
C2123 H2115 0.930 . S
C2123 C2124 1.355 . S
C2123 C2125 1.415 . S
C2124 C2123 1.355 . S
C2124 C2126 1.419 . S
C2125 C2120 1.425 1_655 S
C2125 C2122 1.409 1_655 S
C2125 C2123 1.415 . S
C2126 H2116 0.930 . S
C2126 C2124 1.419 . S
C2126 C2127 1.362 . S
C2127 H2117 0.930 . S
C2127 C2120 1.409 1_655 S
C2127 C2126 1.362 . S
H2128 C2134 0.930 . S
H2129 C2137 0.930 . S
H2130 C2138 0.930 . S
H2131 C2139 0.930 . S
H2132 C2142 0.930 . S
H2133 C2143 0.930 . S
C2134 H2128 0.930 . S
C2134 C2135 1.355 . S
C2134 C2136 1.415 . S
C2135 C2134 1.355 . S
C2135 C2137 1.419 . S
C2136 C2134 1.415 . S
C2136 C2141 1.425 . S
C2136 C2143 1.409 . S
C2137 H2129 0.930 . S
C2137 C2135 1.419 . S
C2137 C2138 1.362 . S
C2138 H2130 0.930 . S
C2138 C2137 1.362 . S
C2138 C2141 1.409 . S
C2139 H2131 0.930 . S
C2139 C2140 1.355 . S
C2139 C2141 1.415 . S
C2140 C2139 1.355 . S
C2140 C2142 1.419 . S
C2141 C2136 1.425 . S
C2141 C2138 1.409 . S
C2141 C2139 1.415 . S
C2142 H2132 0.930 . S
C2142 C2140 1.419 . S
C2142 C2143 1.362 . S
C2143 H2133 0.930 . S
C2143 C2136 1.409 . S
C2143 C2142 1.362 . S
H2144 C2150 0.930 . S
H2145 C2153 0.930 . S
H2146 C2154 0.930 . S
H2147 C2155 0.930 . S
H2148 C2158 0.930 . S
H2149 C2159 0.930 . S
C2150 H2144 0.930 . S
C2150 C2151 1.355 . S
C2150 C2152 1.415 . S
C2151 C2150 1.355 . S
C2151 C2153 1.419 . S
C2152 C2150 1.415 . S
C2152 C2157 1.425 . S
C2152 C2159 1.409 . S
C2153 H2145 0.930 . S
C2153 C2151 1.419 . S
C2153 C2154 1.362 . S
C2154 H2146 0.930 . S
C2154 C2153 1.362 . S
C2154 C2157 1.409 . S
C2155 H2147 0.930 . S
C2155 C2156 1.355 . S
C2155 C2157 1.415 . S
C2156 C2155 1.355 . S
C2156 C2158 1.419 . S
C2157 C2152 1.425 . S
C2157 C2154 1.409 . S
C2157 C2155 1.415 . S
C2158 H2148 0.930 . S
C2158 C2156 1.419 . S
C2158 C2159 1.362 . S
C2159 H2149 0.930 . S
C2159 C2152 1.409 . S
C2159 C2158 1.362 . S
H2160 C2166 0.930 . S
H2161 C2169 0.930 . S
H2162 C2170 0.930 . S
H2163 C2171 0.930 . S
H2164 C2174 0.930 . S
H2165 C2175 0.930 . S
C2166 H2160 0.930 . S
C2166 C2167 1.355 . S
C2166 C2168 1.415 . S
C2167 C2166 1.355 . S
C2167 C2169 1.419 . S
C2168 C2166 1.415 . S
C2168 C2173 1.425 . S
C2168 C2175 1.409 . S
C2169 H2161 0.930 . S
C2169 C2167 1.419 . S
C2169 C2170 1.362 . S
C2170 H2162 0.930 . S
C2170 C2169 1.362 . S
C2170 C2173 1.409 . S
C2171 H2163 0.930 . S
C2171 C2172 1.355 . S
C2171 C2173 1.415 . S
C2172 C2171 1.355 . S
C2172 C2174 1.419 . S
C2173 C2168 1.425 . S
C2173 C2170 1.409 . S
C2173 C2171 1.415 . S
C2174 H2164 0.930 . S
C2174 C2172 1.419 . S
C2174 C2175 1.362 . S
C2175 H2165 0.930 . S
C2175 C2168 1.409 . S
C2175 C2174 1.362 . S
H2176 C2182 0.930 . S
H2177 C2185 0.930 . S
H2178 C2186 0.930 . S
H2179 C2187 0.930 . S
H2180 C2190 0.930 . S
H2181 C2191 0.930 . S
C2182 H2176 0.930 . S
C2182 C2183 1.355 . S
C2182 C2184 1.425 . S
C2183 C2182 1.355 . S
C2183 C2185 1.419 . S
C2184 C2182 1.425 . S
C2184 C2189 1.425 1_655 S
C2184 C2191 1.399 1_655 S
C2185 H2177 0.930 . S
C2185 C2183 1.419 . S
C2185 C2186 1.362 . S
C2186 H2178 0.930 . S
C2186 C2185 1.362 . S
C2186 C2189 1.401 1_655 S
C2187 H2179 0.930 . S
C2187 C2188 1.355 . S
C2187 C2189 1.423 . S
C2188 C2187 1.355 . S
C2188 C2190 1.419 . S
C2189 C2184 1.425 1_455 S
C2189 C2186 1.401 1_455 S
C2189 C2187 1.423 . S
C2190 H2180 0.930 . S
C2190 C2188 1.419 . S
C2190 C2191 1.362 . S
C2191 H2181 0.930 . S
C2191 C2184 1.399 1_455 S
C2191 C2190 1.362 . S
H2192 C2198 0.930 . S
H2193 C2201 0.930 . S
H2194 C2202 0.930 . S
H2195 C2203 0.930 . S
H2196 C2206 0.930 . S
H2197 C2207 0.930 . S
C2198 H2192 0.930 . S
C2198 C2199 1.355 . S
C2198 C2200 1.415 . S
C2199 C2198 1.355 . S
C2199 C2201 1.419 1_655 S
C2200 C2198 1.415 . S
C2200 C2205 1.425 1_655 S
C2200 C2207 1.409 . S
C2201 H2193 0.930 . S
C2201 C2199 1.419 1_455 S
C2201 C2202 1.362 . S
C2202 H2194 0.930 . S
C2202 C2201 1.362 . S
C2202 C2205 1.409 . S
C2203 H2195 0.930 . S
C2203 C2204 1.355 . S
C2203 C2205 1.415 . S
C2204 C2203 1.355 . S
C2204 C2206 1.419 1_455 S
C2205 C2200 1.425 1_455 S
C2205 C2202 1.409 . S
C2205 C2203 1.415 . S
C2206 H2196 0.930 . S
C2206 C2204 1.419 1_655 S
C2206 C2207 1.362 . S
C2207 H2197 0.930 . S
C2207 C2200 1.409 . S
C2207 C2206 1.362 . S
H2208 C2214 0.930 . S
H2209 C2217 0.930 . S
H2210 C2218 0.930 . S
H2211 C2219 0.930 . S
H2212 C2222 0.930 . S
H2213 C2223 0.930 . S
C2214 H2208 0.930 . S
C2214 C2215 1.355 . S
C2214 C2216 1.415 . S
C2215 C2214 1.355 . S
C2215 C2217 1.419 . S
C2216 C2214 1.415 . S
C2216 C2221 1.425 . S
C2216 C2223 1.409 . S
C2217 H2209 0.930 . S
C2217 C2215 1.419 . S
C2217 C2218 1.362 . S
C2218 H2210 0.930 . S
C2218 C2217 1.362 . S
C2218 C2221 1.409 . S
C2219 H2211 0.930 . S
C2219 C2220 1.355 . S
C2219 C2221 1.415 . S
C2220 C2219 1.355 . S
C2220 C2222 1.419 . S
C2221 C2216 1.425 . S
C2221 C2218 1.409 . S
C2221 C2219 1.415 . S
C2222 H2212 0.930 . S
C2222 C2220 1.419 . S
C2222 C2223 1.362 . S
C2223 H2213 0.930 . S
C2223 C2216 1.409 . S
C2223 C2222 1.362 . S
H2224 C2230 0.930 . S
H2225 C2233 0.930 . S
H2226 C2234 0.930 . S
H2227 C2235 0.930 . S
H2228 C2238 0.930 . S
H2229 C2239 0.930 . S
C2230 H2224 0.930 . S
C2230 C2231 1.355 . S
C2230 C2232 1.415 . S
C2231 C2230 1.355 . S
C2231 C2233 1.419 1_455 S
C2232 C2230 1.415 . S
C2232 C2237 1.425 1_455 S
C2232 C2239 1.409 . S
C2233 H2225 0.930 . S
C2233 C2231 1.419 1_655 S
C2233 C2234 1.362 . S
C2234 H2226 0.930 . S
C2234 C2233 1.362 . S
C2234 C2237 1.409 . S
C2235 H2227 0.930 . S
C2235 C2236 1.355 . S
C2235 C2237 1.415 . S
C2236 C2235 1.355 . S
C2236 C2238 1.419 1_655 S
C2237 C2232 1.425 1_655 S
C2237 C2234 1.409 . S
C2237 C2235 1.415 . S
C2238 H2228 0.930 . S
C2238 C2236 1.419 1_455 S
C2238 C2239 1.362 . S
C2239 H2229 0.930 . S
C2239 C2232 1.409 . S
C2239 C2238 1.362 . S
H2240 C2246 0.930 . S
H2241 C2249 0.930 . S
H2242 C2250 0.930 . S
H2243 C2251 0.930 . S
H2244 C2254 0.930 . S
H2245 C2255 0.930 . S
C2246 H2240 0.930 . S
C2246 C2247 1.355 . S
C2246 C2248 1.415 . S
C2247 C2246 1.355 . S
C2247 C2249 1.419 . S
C2248 C2246 1.415 . S
C2248 C2253 1.425 1_655 S
C2248 C2255 1.409 1_655 S
C2249 H2241 0.930 . S
C2249 C2247 1.419 . S
C2249 C2250 1.362 . S
C2250 H2242 0.930 . S
C2250 C2249 1.362 . S
C2250 C2253 1.409 1_655 S
C2251 H2243 0.930 . S
C2251 C2252 1.355 . S
C2251 C2253 1.415 . S
C2252 C2251 1.355 . S
C2252 C2254 1.419 . S
C2253 C2248 1.425 1_455 S
C2253 C2250 1.409 1_455 S
C2253 C2251 1.415 . S
C2254 H2244 0.930 . S
C2254 C2252 1.419 . S
C2254 C2255 1.362 . S
C2255 H2245 0.930 . S
C2255 C2248 1.409 1_455 S
C2255 C2254 1.362 . S
H2256 C2262 0.930 . S
H2257 C2265 0.930 . S
H2258 C2266 0.930 . S
H2259 C2267 0.930 . S
H2260 C2270 0.930 . S
H2261 C2271 0.930 . S
C2262 H2256 0.930 . S
C2262 C2263 1.355 . S
C2262 C2264 1.415 . S
C2263 C2262 1.355 . S
C2263 C2265 1.419 . S
C2264 C2262 1.415 . S
C2264 C2269 1.425 . S
C2264 C2271 1.409 . S
C2265 H2257 0.930 . S
C2265 C2263 1.419 . S
C2265 C2266 1.362 . S
C2266 H2258 0.930 . S
C2266 C2265 1.362 . S
C2266 C2269 1.409 . S
C2267 H2259 0.930 . S
C2267 C2268 1.355 . S
C2267 C2269 1.415 . S
C2268 C2267 1.355 . S
C2268 C2270 1.419 . S
C2269 C2264 1.425 . S
C2269 C2266 1.409 . S
C2269 C2267 1.415 . S
C2270 H2260 0.930 . S
C2270 C2268 1.419 . S
C2270 C2271 1.362 . S
C2271 H2261 0.930 . S
C2271 C2264 1.409 . S
C2271 C2270 1.362 . S
H2272 C2278 0.930 . S
H2273 C2281 0.930 . S
H2274 C2282 0.930 . S
H2275 C2283 0.930 . S
H2276 C2286 0.930 . S
H2277 C2287 0.930 . S
C2278 H2272 0.930 . S
C2278 C2279 1.355 . S
C2278 C2280 1.415 . S
C2279 C2278 1.355 . S
C2279 C2281 1.419 . S
C2280 C2278 1.415 . S
C2280 C2285 1.425 . S
C2280 C2287 1.409 . S
C2281 H2273 0.930 . S
C2281 C2279 1.419 . S
C2281 C2282 1.362 . S
C2282 H2274 0.930 . S
C2282 C2281 1.362 . S
C2282 C2285 1.409 . S
C2283 H2275 0.930 . S
C2283 C2284 1.355 . S
C2283 C2285 1.415 . S
C2284 C2283 1.355 . S
C2284 C2286 1.419 . S
C2285 C2280 1.425 . S
C2285 C2282 1.409 . S
C2285 C2283 1.415 . S
C2286 H2276 0.930 . S
C2286 C2284 1.419 . S
C2286 C2287 1.362 . S
C2287 H2277 0.930 . S
C2287 C2280 1.409 . S
C2287 C2286 1.362 . S
H2288 C2294 0.930 . S
H2289 C2297 0.930 . S
H2290 C2298 0.930 . S
H2291 C2299 0.930 . S
H2292 C2302 0.930 . S
H2293 C2303 0.930 . S
C2294 H2288 0.930 . S
C2294 C2295 1.355 . S
C2294 C2296 1.415 . S
C2295 C2294 1.355 . S
C2295 C2297 1.419 . S
C2296 C2294 1.415 . S
C2296 C2301 1.425 . S
C2296 C2303 1.409 . S
C2297 H2289 0.930 . S
C2297 C2295 1.419 . S
C2297 C2298 1.362 . S
C2298 H2290 0.930 . S
C2298 C2297 1.362 . S
C2298 C2301 1.409 . S
C2299 H2291 0.930 . S
C2299 C2300 1.355 . S
C2299 C2301 1.415 . S
C2300 C2299 1.355 . S
C2300 C2302 1.419 . S
C2301 C2296 1.425 . S
C2301 C2298 1.409 . S
C2301 C2299 1.415 . S
C2302 H2292 0.930 . S
C2302 C2300 1.419 . S
C2302 C2303 1.362 . S
C2303 H2293 0.930 . S
C2303 C2296 1.409 . S
C2303 C2302 1.362 . S
H2304 C2310 0.930 . S
H2305 C2313 0.930 . S
H2306 C2314 0.930 . S
H2307 C2315 0.930 . S
H2308 C2318 0.930 . S
H2309 C2319 0.930 . S
C2310 H2304 0.930 . S
C2310 C2311 1.355 . S
C2310 C2312 1.415 . S
C2311 C2310 1.355 . S
C2311 C2313 1.419 . S
C2312 C2310 1.415 . S
C2312 C2317 1.425 1_455 S
C2312 C2319 1.409 1_455 S
C2313 H2305 0.930 . S
C2313 C2311 1.419 . S
C2313 C2314 1.362 . S
C2314 H2306 0.930 . S
C2314 C2313 1.362 . S
C2314 C2317 1.409 1_455 S
C2315 H2307 0.930 . S
C2315 C2316 1.355 . S
C2315 C2317 1.415 . S
C2316 C2315 1.355 . S
C2316 C2318 1.419 . S
C2317 C2312 1.425 1_655 S
C2317 C2314 1.409 1_655 S
C2317 C2315 1.415 . S
C2318 H2308 0.930 . S
C2318 C2316 1.419 . S
C2318 C2319 1.362 . S
C2319 H2309 0.930 . S
C2319 C2312 1.409 1_655 S
C2319 C2318 1.362 . S
H2320 C2326 0.930 . S
H2321 C2329 0.930 . S
H2322 C2330 0.930 . S
H2323 C2331 0.930 . S
H2324 C2334 0.930 . S
H2325 C2335 0.930 . S
C2326 H2320 0.930 . S
C2326 C2327 1.355 . S
C2326 C2328 1.415 . S
C2327 C2326 1.355 . S
C2327 C2329 1.419 1_455 S
C2328 C2326 1.415 . S
C2328 C2333 1.425 1_455 S
C2328 C2335 1.409 . S
C2329 H2321 0.930 . S
C2329 C2327 1.419 1_655 S
C2329 C2330 1.362 . S
C2330 H2322 0.930 . S
C2330 C2329 1.362 . S
C2330 C2333 1.409 . S
C2331 H2323 0.930 . S
C2331 C2332 1.355 . S
C2331 C2333 1.415 . S
C2332 C2331 1.355 . S
C2332 C2334 1.419 1_655 S
C2333 C2328 1.425 1_655 S
C2333 C2330 1.409 . S
C2333 C2331 1.415 . S
C2334 H2324 0.930 . S
C2334 C2332 1.419 1_455 S
C2334 C2335 1.362 . S
C2335 H2325 0.930 . S
C2335 C2328 1.409 . S
C2335 C2334 1.362 . S
C1063 C28 1.259 . S
C1068 C259 1.293 . S
C1079 C61 1.281 . S
C1084 C160 1.258 . S
C1095 C94 1.255 . S
C1100 C193 1.290 . S
C1111 C127 1.293 . S
C1116 C226 1.259 . S
C1127 C523 1.293 . S
C1132 C292 1.258 . S
C1143 C325 1.255 . S
C1148 C424 1.291 . S
C1159 C457 1.275 . S
C1164 C358 1.262 . S
C1175 C391 1.255 . S
C1180 C490 1.290 . S
C1191 C556 1.266 . S
C1196 C787 1.291 . S
C1207 C688 1.293 . S
C1212 C589 1.258 . S
C1223 C622 1.262 . S
C1228 C721 1.276 . S
C1239 C655 1.277 . S
C1244 C754 1.283 . S
C1255 C820 1.273 . S
C1260 C1051 1.286 . S
C1271 C853 1.255 . S
C1276 C952 1.290 . S
C1287 C985 1.285 . S
C1292 C886 1.256 . S
C1303 C1018 1.258 . S
C1308 C919 1.281 . S
C1319 C215 1.597 . S
C1324 C17 1.607 . S
C1335 C50 1.610 . S
C1340 C248 1.623 . S
C1351 C83 1.651 . S
C1356 C149 1.656 . S
C1367 C116 1.591 . S
C1372 C182 1.594 . S
C1383 C281 1.592 . S
C1388 C479 1.591 . S
C1399 C512 1.624 . S
C1404 C314 1.636 . S
C1415 C413 1.651 . S
C1420 C347 1.656 . S
C1431 C446 1.593 . S
C1436 C380 1.591 . S
C1447 C545 1.655 . S
C1452 C743 1.657 . S
C1463 C776 1.629 . S
C1468 C578 1.616 . S
C1479 C677 1.596 . S
C1484 C611 1.591 . S
C1495 C644 1.591 . S
C1500 C710 1.592 . S
C1511 C1007 1.601 . S
C1516 C809 1.594 . S
C1527 C842 1.657 . S
C1532 C1040 1.656 . S
C1543 C941 1.592 . S
C1548 C875 1.598 . S
C1559 C974 1.602 . S
C1564 C908 1.594 . S
C1575 N938 1.143 . S
C1580 N5 1.259 . S
C1591 N443 1.249 . S
C1596 N38 1.283 . S
C1607 N1004 1.210 . S
C1612 N71 1.262 . S
C1623 N104 1.267 . S
C1628 N509 1.142 . S
C1639 N806 1.154 . S
C1644 N137 1.257 . S
C1655 N311 1.234 . S
C1660 N170 1.268 . S
C1671 N872 1.144 . S
C1676 N203 1.268 . S
C1687 N236 1.282 . S
C1692 N377 1.251 . S
C1703 N269 1.284 . S
C1708 N674 1.247 . S
C1719 N302 1.262 . S
C1724 N179 1.139 . S
C1735 N335 1.273 . S
C1740 N740 1.246 . S
C1751 N245 1.242 . S
C1756 N368 1.271 . S
C1767 N542 1.205 . S
C1772 N401 1.284 . S
C1783 N434 1.262 . S
C1788 N47 1.139 . S
C1799 N467 1.273 . S
C1804 N608 1.157 . S
C1815 N500 1.257 . S
C1820 N113 1.164 . S
C1831 N410 1.175 . S
C1836 N533 1.279 . S
C1847 N566 1.277 . S
C1852 N971 1.251 . S
C1863 N476 1.156 . S
C1868 N599 1.273 . S
C1879 N632 1.275 . S
C1884 N1037 1.248 . S
C1895 N665 1.279 . S
C1900 N278 1.252 . S
C1911 N698 1.275 . S
C1916 N839 1.248 . S
C1927 N344 1.249 . S
C1932 N731 1.283 . S
C1943 N764 1.258 . S
C1948 N905 1.146 . S
C1959 N146 1.140 . S
C1964 N797 1.261 . S
C1975 N707 1.140 . S
C1980 N830 1.264 . S
C1991 N212 1.153 . S
C1996 N863 1.272 . S
C2007 N773 1.246 . S
C2012 N896 1.284 . S
C2023 N14 1.251 . S
C2028 N929 1.277 . S
C2039 N575 1.203 . S
C2044 N962 1.283 . S
C2055 N995 1.267 . S
C2060 N80 1.142 . S
C2071 N641 1.155 . S
C2076 N1028 1.273 . S
C2087 C602 1.872 . S
C2092 C8 1.880 . S
C2103 C635 1.860 . S
C2108 C41 1.886 . S
C2119 C74 1.861 . S
C2124 C536 1.879 . S
C2135 C107 1.870 . S
C2140 C569 1.882 . S
C2151 C734 1.875 . S
C2156 C140 1.863 . S
C2167 C173 1.886 . S
C2172 C767 1.861 . S
C2183 C668 1.870 . S
C2188 C206 1.868 . S
C2199 C701 1.866 . S
C2204 C239 1.872 . S
C2215 C866 1.859 . S
C2220 C272 1.885 . S
C2231 C899 1.865 . S
C2236 C305 1.873 . S
C2247 C338 1.871 . S
C2252 C800 1.867 . S
C2263 C371 1.878 . S
C2268 C833 1.874 . S
C2279 C404 1.865 . S
C2284 C998 1.872 . S
C2295 C437 1.883 . S
C2300 C1031 1.868 . S
C2311 C932 1.871 . S
C2316 C470 1.867 . S
C2327 C965 1.868 . S
C2332 C503 1.869 . S
