# Generated by pormake.
# Topology lvt, (4)-cn, num edge types: 1
# Building blocks:
#     Node 0, Type 0, BuildingBlock: ESEHIV_clean_sbu_0, # of connection points: 4
#     Node 1, Type 0, BuildingBlock: ESEHIV_clean_sbu_0, # of connection points: 4
#     Node 2, Type 0, BuildingBlock: ESEHIV_clean_sbu_0, # of connection points: 4
#     Node 3, Type 0, BuildingBlock: ESEHIV_clean_sbu_0, # of connection points: 4
#     Node 4, Type 0, BuildingBlock: ESEHIV_clean_sbu_0, # of connection points: 4
#     Node 5, Type 0, BuildingBlock: ESEHIV_clean_sbu_0, # of connection points: 4
#     Node 6, Type 0, BuildingBlock: ESEHIV_clean_sbu_0, # of connection points: 4
#     Node 7, Type 0, BuildingBlock: ESEHIV_clean_sbu_0, # of connection points: 4
#     Edge 8, Type (0, 0), BuildingBlock: ZUJKAS_clean_linker_0, # of connection points: 2
#     Edge 9, Type (0, 0), BuildingBlock: ZUJKAS_clean_linker_0, # of connection points: 2
#     Edge 10, Type (0, 0), BuildingBlock: ZUJKAS_clean_linker_0, # of connection points: 2
#     Edge 11, Type (0, 0), BuildingBlock: ZUJKAS_clean_linker_0, # of connection points: 2
#     Edge 12, Type (0, 0), BuildingBlock: ZUJKAS_clean_linker_0, # of connection points: 2
#     Edge 13, Type (0, 0), BuildingBlock: ZUJKAS_clean_linker_0, # of connection points: 2
#     Edge 14, Type (0, 0), BuildingBlock: ZUJKAS_clean_linker_0, # of connection points: 2
#     Edge 15, Type (0, 0), BuildingBlock: ZUJKAS_clean_linker_0, # of connection points: 2
#     Edge 16, Type (0, 0), BuildingBlock: ZUJKAS_clean_linker_0, # of connection points: 2
#     Edge 17, Type (0, 0), BuildingBlock: ZUJKAS_clean_linker_0, # of connection points: 2
#     Edge 18, Type (0, 0), BuildingBlock: ZUJKAS_clean_linker_0, # of connection points: 2
#     Edge 19, Type (0, 0), BuildingBlock: ZUJKAS_clean_linker_0, # of connection points: 2
#     Edge 20, Type (0, 0), BuildingBlock: ZUJKAS_clean_linker_0, # of connection points: 2
#     Edge 21, Type (0, 0), BuildingBlock: ZUJKAS_clean_linker_0, # of connection points: 2
#     Edge 22, Type (0, 0), BuildingBlock: ZUJKAS_clean_linker_0, # of connection points: 2
#     Edge 23, Type (0, 0), BuildingBlock: ZUJKAS_clean_linker_0, # of connection points: 2
# Relax obj value: 0.002
# Max RMSD: 0.098
# Mean RMSD: 0.094
data_MOF--net-lvt--node1-ESEHIV_clean_sbu_0--edge1-ZUJKAS_clean_linker_0
_symmetry_space_group_name_H-M    P1
_symmetry_Int_Tables_number       1
_symmetry_cell_setting            triclinic
loop_
_symmetry_equiv_pos_as_xyz
'x, y, z'
_cell_length_a     49.614287
_cell_length_b     49.621226
_cell_length_c     41.412927
_cell_angle_alpha  95.274566
_cell_angle_beta   90.459405
_cell_angle_gamma 95.03645
loop_
_atom_site_label
_atom_site_type_symbol
_atom_site_fract_x
_atom_site_fract_y
_atom_site_fract_z
_atom_type_partial_charge
Cu0 Cu 0.0489 1.0023 0.4905 0.0
N1 N 0.07304 0.9751 0.4885 0.0
N2 N 0.10205 0.94687 0.5052 0.0
C3 C 0.08693 0.96768 0.51389 0.0
C4 C 0.09746 0.94109 0.473 0.0
C5 C 0.07963 0.95853 0.46278 0.0
O6 O 0.02438 0.99628 0.52637 0.0
C7 C 0.08264 0.04088 0.4657 0.0
O8 O 0.08208 0.02036 0.4432 0.0
H9 H 0.08544 0.97703 0.5384 0.0
H10 H 0.07197 0.95903 0.43835 0.0
N11 N 0.02692 1.00117 0.45324 0.0
N12 N 1.00158 1.01759 0.41592 0.0
C13 C 1.01759 0.02349 0.44256 0.0
C14 C 1.01632 0.98023 0.43272 0.0
C15 C 1.00059 0.99033 0.40968 0.0
C16 C 1.01273 0.97221 0.52489 0.0
O17 O 0.01887 0.95467 0.50096 0.0
H18 H 0.02209 0.04369 0.45462 0.0
H19 H 0.0196 0.95916 0.43448 0.0
O20 O 0.06993 0.03761 0.49193 0.0
H21 H 0.10652 0.92554 0.45777 0.0
H22 H 0.98946 0.97855 0.3898 0.0
Cu23 Cu 0.30134 0.76971 0.7738 0.0
N24 N 0.29887 0.79178 0.73961 0.0
N25 N 0.28155 0.81651 0.70312 0.0
C26 C 0.27635 0.80156 0.72848 0.0
C27 C 0.30838 0.81596 0.69816 0.0
C28 C 0.31894 0.80069 0.72056 0.0
O29 O 0.26581 0.74984 0.77657 0.0
C30 C 0.33871 0.80309 0.8125 0.0
O31 O 0.3527 0.79814 0.78615 0.0
H32 H 0.2566 0.79786 0.73893 0.0
H33 H 0.33976 0.79608 0.7225 0.0
N34 N 0.32619 0.74398 0.76369 0.0
N35 N 0.35502 0.7124 0.76961 0.0
C36 C 0.34037 0.73138 0.78481 0.0
C37 C 0.33211 0.73273 0.73411 0.0
C38 C 0.34992 0.71333 0.73765 0.0
C39 C 0.26204 0.72705 0.78847 0.0
O40 O 0.28192 0.71825 0.80453 0.0
H41 H 0.33958 0.73587 0.81083 0.0
H42 H 0.32351 0.7378 0.7116 0.0
O43 O 0.31438 0.79239 0.81314 0.0
H44 H 0.31955 0.82538 0.6792 0.0
H45 H 0.35768 0.70026 0.7182 0.0
Cu46 Cu 0.5371 0.0398 0.04215 0.0
N47 N 0.56183 0.03644 1.00818 0.0
N48 N 0.59464 0.01946 0.97781 0.0
C49 C 0.57752 1.01572 1.00257 0.0
C50 C 0.58936 0.0435 0.96741 0.0
C51 C 0.56917 0.05391 0.98615 0.0
O52 O 0.51043 1.00803 0.03571 0.0
C53 C 0.57786 0.06316 0.08295 0.0
O54 O 0.58277 0.07503 0.0563 0.0
H55 H 0.57687 0.99862 0.01707 0.0
H56 H 0.56099 0.07319 0.98432 0.0
N57 N 0.51854 0.07116 0.04238 0.0
N58 N 0.49578 0.10566 0.06305 0.0
C59 C 0.50933 0.08425 0.06948 0.0
C60 C 0.51057 0.08474 0.01782 0.0
C61 C 0.49654 0.106 0.03048 0.0
C62 C 0.4979 1.00592 1.00839 0.0
O63 O 0.50395 0.02459 0.98847 0.0
H64 H 0.51194 0.07762 0.09339 0.0
H65 H 0.51426 0.07939 0.99246 0.0
O66 O 0.55799 0.04495 0.08296 0.0
H67 H 0.59933 0.05294 0.94764 0.0
H68 H 0.48759 0.12053 0.01669 0.0
Cu69 Cu 0.2809 0.29539 0.2684 0.0
N70 N 0.25018 0.27065 0.27017 0.0
N71 N 0.21963 0.24199 0.29223 0.0
C72 C 0.24106 0.26074 0.29768 0.0
C73 C 0.21511 0.24024 0.25983 0.0
C74 C 0.23391 0.25788 0.24634 0.0
O75 O 0.2769 0.32331 0.30412 0.0
C76 C 0.31273 0.25535 0.24746 0.0
O77 O 0.29117 0.24982 0.22863 0.0
H78 H 0.25031 0.26713 0.32118 0.0
H79 H 0.23611 0.26038 0.22083 0.0
N80 N 0.28386 0.31258 0.22992 0.0
N81 N 0.3033 0.33833 0.19336 0.0
C82 C 0.30632 0.32759 0.22184 0.0
C83 C 0.26588 0.31381 0.2057 0.0
C84 C 0.27784 0.32962 0.18308 0.0
C85 C 0.25862 0.339 0.29888 0.0
O86 O 0.2457 0.33557 0.27081 0.0
H87 H 0.32462 0.33031 0.2366 0.0
H88 H 0.24536 0.30446 0.2048 0.0
O89 O 0.31306 0.2753 0.26929 0.0
H90 H 0.19994 0.22652 0.24647 0.0
H91 H 0.2683 0.33473 0.16114 0.0
Cu92 Cu 0.80379 0.27344 0.28036 0.0
N93 N 0.79951 0.29709 0.24813 0.0
N94 N 0.78102 0.32182 0.21247 0.0
C95 C 0.77741 0.29998 0.22987 0.0
C96 C 0.80641 0.33281 0.21995 0.0
C97 C 0.81762 0.31768 0.24194 0.0
O98 O 0.77312 0.24598 0.27907 0.0
C99 C 0.82196 0.28864 0.346 0.0
O100 O 0.82634 0.26296 0.34638 0.0
H101 H 0.75868 0.28714 0.23047 0.0
H102 H 0.83727 0.32206 0.25366 0.0
N103 N 0.83449 0.25447 0.27263 0.0
N104 N 0.86401 0.22334 0.27781 0.0
C105 C 0.83869 0.23047 0.28375 0.0
C106 C 0.8578 0.26273 0.25873 0.0
C107 C 0.876 0.24361 0.26183 0.0
C108 C 0.74825 0.24988 0.28243 0.0
O109 O 0.74144 0.27459 0.29043 0.0
H110 H 0.82359 0.21897 0.29685 0.0
H111 H 0.86174 0.28179 0.24821 0.0
O112 O 0.81026 0.29625 0.32129 0.0
H113 H 0.81614 0.35084 0.21068 0.0
H114 H 0.89685 0.24529 0.25426 0.0
Cu115 Cu 0.78033 0.79485 0.77088 0.0
N116 N 0.75226 0.76677 0.76904 0.0
N117 N 0.72362 0.73443 0.78753 0.0
C118 C 0.74423 0.75373 0.79492 0.0
C119 C 0.71852 0.73542 0.75558 0.0
C120 C 0.73624 0.75534 0.74422 0.0
O121 O 0.77374 0.81922 0.80929 0.0
C122 C 0.81636 0.76433 0.74028 0.0
O123 O 0.7961 0.76341 0.71947 0.0
H124 H 0.75322 0.75869 0.81885 0.0
H125 H 0.73747 0.76086 0.7196 0.0
N126 N 0.78107 0.81647 0.73605 0.0
N127 N 0.79944 0.84577 0.70267 0.0
C128 C 0.80307 0.83271 0.72933 0.0
C129 C 0.76261 0.81939 0.71292 0.0
C130 C 0.77398 0.83738 0.69214 0.0
C131 C 0.74977 0.8267 0.80875 0.0
O132 O 0.73392 0.81773 0.78378 0.0
H133 H 0.82174 0.83425 0.74336 0.0
H134 H 0.74244 0.80913 0.71113 0.0
O135 O 0.81425 0.77745 0.76804 0.0
H136 H 0.70342 0.72237 0.74122 0.0
H137 H 0.76422 0.84381 0.67104 0.0
Cu138 Cu 0.55195 0.50008 0.98641 0.0
N139 N 0.53562 0.50245 0.94598 0.0
N140 N 0.51217 0.52107 0.90863 0.0
C141 C 0.51761 0.52039 0.94056 0.0
C142 C 0.52746 0.50271 0.89339 0.0
C143 C 0.54199 0.49138 0.91646 0.0
O144 O 0.57669 0.53301 0.99171 0.0
C145 C 0.50382 0.47922 0.00997 0.0
O146 O 0.50415 0.46595 0.98104 0.0
H147 H 0.50995 0.53386 0.9597 0.0
H148 H 0.55712 0.47715 0.91189 0.0
N149 N 0.57082 0.46898 0.98786 0.0
N150 N 0.59677 0.43908 1.00717 0.0
C151 C 0.58905 0.46467 0.01079 0.0
C152 C 0.56677 0.4453 0.96917 0.0
C153 C 0.58278 0.42691 0.98088 0.0
C154 C 0.5984 0.53259 0.97546 0.0
O155 O 0.60456 0.50931 0.96094 0.0
H156 H 0.59563 0.47973 0.03049 0.0
H157 H 0.55248 0.44134 0.9491 0.0
O158 O 0.52338 0.49698 0.01839 0.0
H159 H 0.52867 0.49826 0.8674 0.0
H160 H 0.58377 0.40608 0.97095 0.0
Cu161 Cu 0.03613 0.53331 0.54775 0.0
N162 N 1.017 0.56433 0.54804 0.0
N163 N 0.99407 0.5989 0.56821 0.0
C164 C 1.00765 0.57757 0.57497 0.0
C165 C 0.99499 0.59898 0.53561 0.0
C166 C 1.00905 0.57767 0.52328 0.0
O167 O 0.05822 0.53886 0.58757 0.0
C168 C 0.9962 0.49889 0.51602 0.0
O169 O 1.00107 0.51752 0.49575 0.0
H170 H 1.01034 0.57121 0.59899 0.0
H171 H 1.01283 0.57217 0.49797 0.0
N172 N 0.0601 0.53001 0.513 0.0
N173 N 0.09154 0.5127 0.48069 0.0
C174 C 0.07538 0.50907 0.50634 0.0
C175 C 0.06692 0.54757 0.49089 0.0
C176 C 0.08618 0.53691 0.47088 0.0
C177 C 0.07648 0.55864 0.58725 0.0
O178 O 0.07855 0.57194 0.56125 0.0
H179 H 0.07457 0.49152 0.52012 0.0
H180 H 0.05908 0.5671 0.48986 0.0
O181 O 1.00985 0.50121 0.54257 0.0
H182 H 0.98622 0.6134 0.52151 0.0
H183 H 0.096 0.54662 0.4512 0.0
H184 H 0.11725 0.07909 0.50144 0.0
H185 H 0.14072 0.1203 0.48168 0.0
H186 H 0.09662 0.10366 0.39086 0.0
H187 H 0.07382 0.06269 0.41006 0.0
H188 H 0.17241 0.11677 0.41996 0.0
H189 H 0.09136 0.18679 0.41818 0.0
H190 H 0.09077 0.15969 0.44461 0.0
H191 H 0.0813 0.15233 0.40255 0.0
C192 C 0.11224 0.0847 0.47759 0.0
C193 C 0.09382 0.06782 0.45721 0.0
C194 C 0.12567 0.10808 0.46629 0.0
C195 C 0.12021 0.11512 0.43489 0.0
C196 C 0.10089 0.09883 0.41527 0.0
H197 H 0.17019 0.21327 0.28499 0.0
H198 H 0.14777 0.18459 0.32322 0.0
C199 C 0.08797 0.07538 0.42623 0.0
C200 C 0.13626 0.13771 0.42077 0.0
H201 H 0.12925 0.1957 0.38417 0.0
C202 C 0.16325 0.1344 0.41274 0.0
C203 C 0.12409 0.16043 0.41104 0.0
C204 C 0.09533 0.16525 0.41973 0.0
C205 C 0.17795 0.15235 0.39359 0.0
C206 C 0.16548 0.17467 0.38291 0.0
C207 C 0.13882 0.17859 0.39222 0.0
C208 C 0.17907 0.19308 0.36035 0.0
C209 C 0.20608 0.14626 0.38338 0.0
C210 C 0.20398 0.20786 0.36857 0.0
C211 C 0.21717 0.22402 0.34645 0.0
C212 C 0.20557 0.22609 0.31566 0.0
C213 C 0.18014 0.21191 0.30803 0.0
C214 C 0.1671 0.19561 0.33007 0.0
H215 H 0.21002 0.12502 0.38688 0.0
H216 H 0.20932 0.14961 0.3575 0.0
H217 H 0.22115 0.16002 0.39828 0.0
H218 H 0.21338 0.20676 0.39204 0.0
H219 H 0.23667 0.23443 0.35345 0.0
H220 H 0.11575 0.89492 0.49624 0.0
H221 H 0.14486 0.87233 0.53111 0.0
H222 H 0.15678 0.9456 0.596 0.0
H223 H 0.12753 0.96825 0.56133 0.0
H224 H 0.19739 0.8839 0.54777 0.0
H225 H 0.13597 0.89004 0.6589 0.0
H226 H 0.12309 0.89721 0.62002 0.0
H227 H 0.1446 0.92255 0.6442 0.0
C228 C 0.12458 0.90628 0.51787 0.0
C229 C 0.11915 0.93343 0.52596 0.0
C230 C 0.14116 0.89328 0.53791 0.0
C231 C 0.15271 0.90705 0.56656 0.0
C232 C 0.14756 0.93424 0.57455 0.0
H233 H 0.29242 0.86075 0.66984 0.0
H234 H 0.26093 0.88228 0.63697 0.0
C235 C 0.13085 0.94723 0.55461 0.0
C236 C 0.17086 0.89321 0.58735 0.0
H237 H 0.1805 0.87635 0.66462 0.0
C238 C 0.19361 0.88217 0.57329 0.0
C239 C 0.16579 0.89054 0.62058 0.0
C240 C 0.1409 0.90046 0.63678 0.0
C241 C 0.21163 0.86904 0.59157 0.0
C242 C 0.20717 0.86735 0.6251 0.0
C243 C 0.18413 0.8779 0.63904 0.0
C244 C 0.22617 0.85467 0.64602 0.0
C245 C 0.23502 0.85667 0.57457 0.0
C246 C 0.21702 0.83252 0.66311 0.0
C247 C 0.23504 0.8202 0.68216 0.0
C248 C 0.26261 0.8298 0.68458 0.0
C249 C 0.27151 0.8524 0.66802 0.0
C250 C 0.2535 0.86476 0.64913 0.0
H251 H 0.2312 0.85275 0.54801 0.0
H252 H 0.25348 0.87098 0.57843 0.0
H253 H 0.23904 0.83727 0.5843 0.0
H254 H 0.19601 0.82444 0.66125 0.0
H255 H 0.22746 0.80278 0.69436 0.0
H256 H 0.4645 1.00204 0.95572 0.0
H257 H 0.43305 0.96423 0.93473 0.0
H258 H 0.45254 0.91959 0.01506 0.0
H259 H 0.48489 0.9578 0.03634 0.0
H260 H 0.45344 0.88863 0.95709 0.0
H261 H 0.35837 0.93831 0.96252 0.0
H262 H 0.38372 0.95832 0.9424 0.0
H263 H 0.3886 0.95288 0.98442 0.0
C264 C 0.46205 0.98437 0.96931 0.0
C265 C 0.47732 0.98306 0.99783 0.0
C266 C 0.44372 0.96277 0.95733 0.0
C267 C 0.43987 0.93919 0.97358 0.0
C268 C 0.45491 0.93771 1.00227 0.0
H269 H 0.31794 0.8175 0.87298 0.0
H270 H 0.34076 0.84721 0.9178 0.0
C271 C 0.47335 0.95955 0.01444 0.0
C272 C 0.42171 0.91566 0.95866 0.0
H273 H 0.35995 0.90039 0.92093 0.0
C274 C 0.43279 0.89101 0.94984 0.0
C275 C 0.39451 0.91833 0.94966 0.0
C276 C 0.38054 0.94332 0.96059 0.0
C277 C 0.41822 0.86993 0.93017 0.0
C278 C 0.39206 0.87378 0.91834 0.0
C279 C 0.38016 0.89752 0.92937 0.0
C280 C 0.37808 0.85487 0.89208 0.0
C281 C 0.43133 0.84396 0.92165 0.0
C282 C 0.39114 0.84967 0.86254 0.0
C283 C 0.37825 0.83283 0.83713 0.0
C284 C 0.35172 0.82086 0.84029 0.0
C285 C 0.33839 0.82628 0.86975 0.0
C286 C 0.35143 0.84324 0.89538 0.0
H287 H 0.44564 0.8401 0.94113 0.0
H288 H 0.41603 0.82622 0.91756 0.0
H289 H 0.4431 0.8458 0.89916 0.0
H290 H 0.4113 0.85902 0.85886 0.0
H291 H 0.38917 0.82941 0.8148 0.0
H292 H 0.31218 0.20421 0.21874 0.0
H293 H 0.35023 0.18109 0.19691 0.0
H294 H 0.40539 0.2484 0.23604 0.0
H295 H 0.36688 0.272 0.25801 0.0
H296 H 0.41256 0.23406 0.17032 0.0
H297 H 0.40918 0.14219 0.23649 0.0
H298 H 0.37652 0.14703 0.22028 0.0
H299 H 0.39233 0.17176 0.25077 0.0
C300 C 0.33244 0.2139 0.2234 0.0
C301 C 0.33653 0.23992 0.24015 0.0
C302 C 0.35424 0.20054 0.21104 0.0
C303 C 0.38074 0.2128 0.21511 0.0
C304 C 0.38511 0.23844 0.23284 0.0
H305 H 0.50723 0.11709 0.12749 0.0
H306 H 0.4829 0.14545 0.1667 0.0
C307 C 0.36315 0.25183 0.24556 0.0
C308 C 0.40311 0.19977 0.19784 0.0
H309 H 0.42985 0.13872 0.18367 0.0
C310 C 0.41676 0.21341 0.17369 0.0
C311 C 0.40885 0.17292 0.20237 0.0
C312 C 0.39614 0.15774 0.22913 0.0
C313 C 0.43469 0.20035 0.15269 0.0
C314 C 0.43876 0.17278 0.15558 0.0
C315 C 0.42644 0.15972 0.18106 0.0
C316 C 0.45448 0.15668 0.1315 0.0
C317 C 0.44881 0.21611 0.12729 0.0
C318 C 0.44653 0.15334 0.09864 0.0
C319 C 0.4603 0.13702 0.07616 0.0
C320 C 0.48225 0.12343 0.08605 0.0
C321 C 0.49025 0.12693 0.119 0.0
C322 C 0.47645 0.14329 0.14147 0.0
H323 H 0.45055 0.23831 0.13468 0.0
H324 H 0.46937 0.2096 0.1226 0.0
H325 H 0.43684 0.21253 0.10431 0.0
H326 H 0.42919 0.16286 0.09046 0.0
H327 H 0.45323 0.13448 0.05121 0.0
H328 H 0.98962 0.92112 0.52912 0.0
H329 H 0.95362 0.90598 0.56434 0.0
H330 H 0.95204 0.98771 0.60931 0.0
H331 H 0.98833 1.00337 0.57335 0.0
H332 H 0.95255 0.90851 0.63128 0.0
H333 H 0.87226 0.96563 0.58197 0.0
H334 H 0.90371 0.96123 0.56133 0.0
H335 H 0.90293 0.98519 0.59645 0.0
C336 C 0.98175 0.93604 0.54644 0.0
C337 C 0.99183 0.96356 0.54823 0.0
C338 C 0.96112 0.92726 0.56666 0.0
C339 C 0.94987 0.9457 0.58922 0.0
C340 C 0.96013 0.97318 0.59169 0.0
H341 H 0.8404 0.87832 0.7332 0.0
H342 H 0.87647 0.90557 0.70809 0.0
C343 C 0.98099 0.98207 0.57132 0.0
C344 C 0.92746 0.9355 0.60979 0.0
H345 H 0.85944 0.93644 0.62198 0.0
C346 C 0.93225 0.91486 0.62958 0.0
C347 C 0.90091 0.94354 0.60717 0.0
C348 C 0.89441 0.96497 0.58545 0.0
C349 C 0.91118 0.90154 0.64613 0.0
C350 C 0.88458 0.90944 0.6434 0.0
C351 C 0.87985 0.9305 0.62417 0.0
C352 C 0.8613 0.89506 0.65902 0.0
C353 C 0.91743 0.87827 0.66522 0.0
C354 C 0.8401 0.88096 0.63996 0.0
C355 C 0.81933 0.86542 0.65431 0.0
C356 C 0.81939 0.86365 0.68801 0.0
C357 C 0.84007 0.87873 0.70712 0.0
C358 C 0.8607 0.89435 0.6928 0.0
H359 H 0.93725 0.87067 0.65862 0.0
H360 H 0.91825 0.88528 0.69146 0.0
H361 H 0.90147 0.86111 0.66122 0.0
H362 H 0.84009 0.88126 0.61384 0.0
H363 H 0.8038 0.854 0.63888 0.0
H364 H 0.95362 1.00863 0.38293 0.0
H365 H 0.92971 0.0421 0.35665 0.0
H366 H 0.99518 0.10334 0.38338 0.0
H367 H 0.01894 0.07012 0.40988 0.0
H368 H 0.94703 0.12158 0.39828 0.0
H369 H 0.94317 0.07445 0.27146 0.0
H370 H 0.92899 0.05226 0.3 0.0
H371 H 0.96449 0.06347 0.30232 0.0
C372 C 0.96307 0.02912 0.38277 0.0
C373 C 0.98814 0.03671 0.39861 0.0
C374 C 0.94942 0.04824 0.36766 0.0
C375 C 0.96075 0.07522 0.36768 0.0
C376 C 0.98598 0.08269 0.38305 0.0
H377 H 0.90938 0.20154 0.25475 0.0
H378 H 0.93236 0.16545 0.27659 0.0
C379 C 0.99951 0.06368 0.39831 0.0
C380 C 0.94588 0.09611 0.3532 0.0
H381 H 0.91687 0.11194 0.283 0.0
C382 C 0.94049 0.11947 0.37304 0.0
C383 C 0.93761 0.09356 0.32017 0.0
C384 C 0.94407 0.06972 0.29713 0.0
C385 C 0.92695 0.14021 0.36091 0.0
C386 C 0.9179 0.13727 0.32816 0.0
C387 C 0.92351 0.11405 0.30819 0.0
C388 C 0.90315 0.15841 0.31407 0.0
C389 C 0.92308 0.16537 0.38317 0.0
C390 C 0.87873 0.16613 0.32735 0.0
C391 C 0.86568 0.18704 0.31519 0.0
C392 C 0.87659 0.20058 0.28915 0.0
C393 C 0.90058 0.19206 0.27515 0.0
C394 C 0.91368 0.17122 0.28746 0.0
H395 H 0.93751 0.16777 0.40411 0.0
H396 H 0.92574 0.18392 0.37001 0.0
H397 H 0.90228 0.16379 0.39288 0.0
H398 H 0.86987 0.15615 0.34742 0.0
H399 H 0.8474 0.19293 0.32684 0.0
H400 H 0.69294 0.25096 0.28206 0.0
H401 H 0.65904 0.21502 0.2599 0.0
H402 H 0.72215 0.16215 0.2374 0.0
H403 H 0.75593 0.19753 0.26013 0.0
H404 H 0.65528 0.19456 0.19866 0.0
H405 H 0.6669 0.10951 0.2732 0.0
H406 H 0.68112 0.14372 0.28546 0.0
H407 H 0.69883 0.12171 0.25761 0.0
C408 C 0.69955 0.23147 0.27307 0.0
C409 C 0.72722 0.22721 0.27288 0.0
C410 C 0.68012 0.21092 0.26036 0.0
C411 C 0.6879 0.18563 0.24734 0.0
C412 C 0.71544 0.18111 0.24806 0.0
H413 H 0.63031 0.08264 0.08542 0.0
H414 H 0.65442 0.11022 0.13017 0.0
C415 C 0.73483 0.20155 0.26085 0.0
C416 C 0.66789 0.16521 0.22961 0.0
H417 H 0.64709 0.09726 0.21936 0.0
C418 C 0.65309 0.17343 0.20374 0.0
C419 C 0.66475 0.13756 0.23618 0.0
C420 C 0.67855 0.12768 0.26487 0.0
C421 C 0.6366 0.15461 0.18325 0.0
C422 C 0.63502 0.12675 0.18844 0.0
C423 C 0.64853 0.11862 0.21528 0.0
C424 C 0.62174 0.10594 0.164 0.0
C425 C 0.62175 0.16448 0.1553 0.0
C426 C 0.59574 0.09333 0.1687 0.0
C427 C 0.58185 0.07722 0.14301 0.0
C428 C 0.59385 0.07378 0.11242 0.0
C429 C 0.62053 0.08499 0.10869 0.0
C430 C 0.63434 0.1008 0.13421 0.0
H431 H 0.62031 0.18679 0.15857 0.0
H432 H 0.63273 0.1597 0.13253 0.0
H433 H 0.60101 0.15406 0.15246 0.0
H434 H 0.58568 0.09713 0.19157 0.0
H435 H 0.56119 0.0691 0.14642 0.0
H436 H 0.64107 0.03363 0.94671 0.0
H437 H 0.67369 1.00331 0.92373 0.0
H438 H 0.62654 0.93477 0.95786 0.0
H439 H 0.59375 0.96491 0.98083 0.0
H440 H 0.6835 0.93385 0.96736 0.0
H441 H 0.65659 0.95218 0.84103 0.0
H442 H 0.667 0.98207 0.86752 0.0
H443 H 0.63614 0.96208 0.87519 0.0
C444 C 0.63751 1.01211 0.94922 0.0
C445 C 0.61455 1.00173 0.96537 0.0
C446 C 0.65628 0.9948 0.93617 0.0
C447 C 0.65241 0.96673 0.93875 0.0
C448 C 0.62998 0.95638 0.95564 0.0
H449 H 0.69734 0.8301 0.82355 0.0
H450 H 0.67765 0.86497 0.85857 0.0
C451 C 0.61123 0.97367 0.96879 0.0
C452 C 0.67086 0.9479 0.92243 0.0
H453 H 0.69035 0.9227 0.84754 0.0
C454 C 0.68526 0.93159 0.94118 0.0
C455 C 0.67298 0.94487 0.88825 0.0
C456 C 0.65723 0.96102 0.8667 0.0
C457 C 0.70133 0.91198 0.92656 0.0
C458 C 0.70302 0.90871 0.89242 0.0
C459 C 0.68919 0.92548 0.87377 0.0
C460 C 0.71602 0.88588 0.87507 0.0
C461 C 0.71547 0.89405 0.94743 0.0
C462 C 0.74432 0.88559 0.87341 0.0
C463 C 0.75581 0.86539 0.85325 0.0
C464 C 0.73905 0.84552 0.83436 0.0
C465 C 0.71083 0.84528 0.83748 0.0
C466 C 0.69949 0.8652 0.85754 0.0
H467 H 0.71088 0.8981 0.97355 0.0
H468 H 0.70934 0.87235 0.9396 0.0
H469 H 0.73767 0.89744 0.94435 0.0
H470 H 0.75742 0.90154 0.88663 0.0
H471 H 0.7776 0.86613 0.85118 0.0
H472 H 0.64973 0.53839 0.9534 0.0
H473 H 0.6711 0.5765 0.92689 0.0
H474 H 0.60198 0.62165 0.9483 0.0
H475 H 0.58055 0.58353 0.9754 0.0
H476 H 0.64826 0.59362 0.8726 0.0
H477 H 0.66571 0.67951 0.96844 0.0
H478 H 0.65947 0.64464 0.97762 0.0
H479 H 0.6319 0.66306 0.96605 0.0
C480 C 0.63936 0.55671 0.95328 0.0
C481 C 0.61343 0.55791 0.96648 0.0
C482 C 0.65158 0.57847 0.938 0.0
C483 C 0.63818 0.60196 0.93552 0.0
C484 C 0.61291 0.60391 0.9503 0.0
H485 H 0.67268 0.70915 0.7815 0.0
H486 H 0.6507 0.67801 0.81774 0.0
C487 C 0.60069 0.58211 0.96585 0.0
C488 C 0.6495 0.62283 0.91451 0.0
H489 H 0.67344 0.68954 0.91414 0.0
C490 C 0.65375 0.61461 0.88171 0.0
C491 C 0.65677 0.65016 0.92642 0.0
C492 C 0.65348 0.65994 0.96161 0.0
C493 C 0.66517 0.63283 0.86055 0.0
C494 C 0.67212 0.66027 0.87229 0.0
C495 C 0.66789 0.66856 0.9051 0.0
C496 C 0.68481 0.68028 0.85107 0.0
C497 C 0.67036 0.62235 0.82598 0.0
C498 C 0.71105 0.69245 0.8581 0.0
C499 C 0.72369 0.71025 0.8374 0.0
C500 C 0.71032 0.7164 0.80921 0.0
C501 C 0.68379 0.70454 0.80259 0.0
C502 C 0.67115 0.68677 0.82336 0.0
H503 H 0.66993 0.59983 0.82298 0.0
H504 H 0.65443 0.62842 0.80988 0.0
H505 H 0.69027 0.63107 0.81785 0.0
H506 H 0.722 0.68771 0.8793 0.0
H507 H 0.74418 0.71869 0.84319 0.0
H508 H 0.77922 0.37434 0.19965 0.0
H509 H 0.74691 0.39265 0.16482 0.0
H510 H 0.70576 0.31266 0.14399 0.0
H511 H 0.73817 0.29408 0.17907 0.0
H512 H 0.73648 0.38075 0.10022 0.0
H513 H 0.64333 0.35743 0.16948 0.0
H514 H 0.67678 0.35542 0.18604 0.0
H515 H 0.66158 0.32845 0.15797 0.0
C516 C 0.76344 0.36051 0.18759 0.0
C517 C 0.76144 0.33263 0.19217 0.0
C518 C 0.74484 0.37109 0.16775 0.0
C519 C 0.72365 0.35416 0.15201 0.0
C520 C 0.72155 0.32629 0.15641 0.0
H521 H 0.59692 0.38558 0.01665 0.0
H522 H 0.62799 0.36492 0.0511 0.0
C523 C 0.74015 0.31566 0.17644 0.0
C524 C 0.70441 0.36578 0.13036 0.0
H525 H 0.63758 0.3749 0.11872 0.0
C526 C 0.71486 0.37951 0.10434 0.0
C527 C 0.67616 0.36418 0.13565 0.0
C528 C 0.66375 0.3508 0.16395 0.0
C529 C 0.69793 0.39144 0.0834 0.0
C530 C 0.66973 0.38998 0.08881 0.0
C531 C 0.6592 0.37604 0.11461 0.0
C532 C 0.65086 0.40277 0.06794 0.0
C533 C 0.71033 0.40512 0.05531 0.0
C534 C 0.65312 0.43102 0.06617 0.0
C535 C 0.6354 0.44294 0.04635 0.0
C536 C 0.61498 0.42687 0.02786 0.0
C537 C 0.61263 0.39859 0.03003 0.0
C538 C 0.63028 0.38672 0.04994 0.0
H539 H 0.73079 0.39865 0.04973 0.0
H540 H 0.69732 0.40062 0.03319 0.0
H541 H 0.71234 0.42745 0.06153 0.0
H542 H 0.66857 0.4439 0.08023 0.0
H543 H 0.63793 0.46471 0.04522 0.0
H544 H 0.84925 0.27952 0.40122 0.0
H545 H 0.87499 0.31302 0.43922 0.0
H546 H 0.85039 0.37751 0.38569 0.0
H547 H 0.82422 0.34425 0.348 0.0
H548 H 0.91774 0.34688 0.42533 0.0
H549 H 0.83821 0.40836 0.47718 0.0
H550 H 0.83043 0.37567 0.45463 0.0
H551 H 0.83739 0.40571 0.43371 0.0
C552 C 0.84884 0.30087 0.39787 0.0
C553 C 0.83454 0.30913 0.37151 0.0
C554 C 0.86367 0.32003 0.41962 0.0
C555 C 0.86446 0.3479 0.41567 0.0
C556 C 0.84964 0.35624 0.38984 0.0
H557 H 0.95835 0.49591 0.46794 0.0
H558 H 0.92626 0.45779 0.44888 0.0
C559 C 0.83473 0.33711 0.36815 0.0
C560 C 0.88245 0.36805 0.43678 0.0
H561 H 0.88394 0.42927 0.4823 0.0
C562 C 0.91026 0.36464 0.4383 0.0
C563 C 0.87277 0.39122 0.45387 0.0
C564 C 0.84302 0.39534 0.45508 0.0
C565 C 0.92876 0.38442 0.45483 0.0
C566 C 0.9192 0.40817 0.47061 0.0
C567 C 0.89129 0.41108 0.4702 0.0
C568 C 0.93804 0.43153 0.48436 0.0
C569 C 0.95856 0.38047 0.45386 0.0
C570 C 0.95518 0.42972 0.5112 0.0
C571 C 0.97373 0.45176 0.5224 0.0
C572 C 0.9755 0.47586 0.50677 0.0
C573 C 0.95778 0.47765 0.48047 0.0
C574 C 0.93926 0.45586 0.46954 0.0
H575 H 0.96298 0.36286 0.43678 0.0
H576 H 0.97028 0.39899 0.44657 0.0
H577 H 0.96572 0.37692 0.47843 0.0
H578 H 0.95436 0.41122 0.52327 0.0
H579 H 0.98705 0.44973 0.54271 0.0
H580 H 0.85709 0.74708 0.77766 0.0
H581 H 0.8954 0.72193 0.75758 0.0
H582 H 0.8685 0.72661 0.65916 0.0
H583 H 0.83089 0.75129 0.67861 0.0
H584 H 0.89081 0.67083 0.71597 0.0
H585 H 0.94962 0.75228 0.65753 0.0
H586 H 0.92497 0.75924 0.6884 0.0
H587 H 0.9143 0.74997 0.64691 0.0
C588 C 0.85968 0.74301 0.75178 0.0
C589 C 0.84092 0.75112 0.72976 0.0
C590 C 0.88146 0.72861 0.74035 0.0
C591 C 0.88499 0.72273 0.70682 0.0
C592 C 0.86651 0.7313 0.68506 0.0
H593 H 0.95365 0.63009 0.55496 0.0
H594 H 0.93094 0.66058 0.59308 0.0
C595 C 0.84483 0.74529 0.69633 0.0
C596 C 0.90671 0.70625 0.69368 0.0
H597 H 0.95551 0.70623 0.63596 0.0
C598 C 0.90551 0.67866 0.69916 0.0
C599 C 0.92581 0.7165 0.67167 0.0
C600 C 0.92897 0.7462 0.666 0.0
C601 C 0.92155 0.66068 0.6814 0.0
C602 C 0.93934 0.67067 0.65783 0.0
C603 C 0.94169 0.69855 0.65382 0.0
C604 C 0.95387 0.65227 0.6351 0.0
C605 C 0.91813 0.63086 0.68643 0.0
C606 C 0.97456 0.63764 0.64599 0.0
C607 C 0.98784 0.62025 0.62411 0.0
C608 C 0.98069 0.61714 0.59086 0.0
C609 C 0.96004 0.63209 0.58015 0.0
C610 C 0.94689 0.64949 0.60199 0.0
H611 H 0.90091 0.62585 0.70246 0.0
H612 H 0.91482 0.61845 0.66279 0.0
H613 H 0.93687 0.625 0.69768 0.0
H614 H 0.98055 0.6398 0.67136 0.0
H615 H 1.0039 0.60951 0.63327 0.0
H616 H 0.45509 0.45224 0.99379 0.0
H617 H 0.42154 0.43283 0.02965 0.0
H618 H 0.46957 0.46753 0.11293 0.0
H619 H 0.50344 0.48749 0.07683 0.0
H620 H 0.43388 0.39501 0.07223 0.0
H621 H 0.3918 0.48452 0.13787 0.0
H622 H 0.41004 0.48676 0.10049 0.0
H623 H 0.42807 0.4846 0.13776 0.0
C624 C 0.45841 0.45617 0.01975 0.0
C625 C 0.48204 0.47129 0.03246 0.0
C626 C 0.43916 0.44504 0.04023 0.0
C627 C 0.44298 0.4487 0.07397 0.0
C628 C 0.46601 0.46474 0.08696 0.0
H629 H 0.34532 0.3714 0.22143 0.0
H630 H 0.38005 0.39863 0.19401 0.0
C631 C 0.48536 0.4761 0.06633 0.0
C632 C 0.42387 0.43362 0.09481 0.0
H633 H 0.37529 0.44116 0.15223 0.0
C634 C 0.42113 0.40513 0.08979 0.0
C635 C 0.40742 0.44682 0.1179 0.0
C636 C 0.40922 0.47736 0.12383 0.0
C637 C 0.40214 0.38948 0.10678 0.0
C638 C 0.38503 0.40266 0.12907 0.0
C639 C 0.38829 0.43112 0.13492 0.0
C640 C 0.36329 0.3871 0.14587 0.0
C641 C 0.40062 0.35892 0.10078 0.0
C642 C 0.34206 0.37192 0.12797 0.0
C643 C 0.32224 0.3562 0.14353 0.0
C644 C 0.3232 0.35535 0.17739 0.0
C645 C 0.34418 0.37114 0.19531 0.0
C646 C 0.36396 0.38692 0.17971 0.0
H647 H 0.41947 0.35193 0.08985 0.0
H648 H 0.39695 0.34923 0.12366 0.0
H649 H 0.38359 0.35182 0.08369 0.0
H650 H 0.34094 0.37206 0.10186 0.0
H651 H 0.30652 0.34427 0.12893 0.0
H652 H 0.39679 0.68692 0.74258 0.0
H653 H 0.42292 0.65403 0.76655 0.0
H654 H 0.3771 0.66323 0.85426 0.0
H655 H 0.35031 0.69547 0.83017 0.0
H656 H 0.45513 0.66023 0.82292 0.0
H657 H 0.37004 0.58088 0.83165 0.0
H658 H 0.36788 0.60911 0.80748 0.0
H659 H 0.36408 0.61376 0.85071 0.0
C660 C 0.39205 0.68179 0.76685 0.0
C661 C 0.37124 0.6938 0.78428 0.0
C662 C 0.40715 0.66309 0.7806 0.0
C663 C 0.4017 0.65581 0.81201 0.0
C664 C 0.38134 0.66812 0.82976 0.0
H665 H 0.47008 0.54585 0.93586 0.0
H666 H 0.44383 0.57894 0.91245 0.0
C667 C 0.36624 0.68686 0.81604 0.0
C668 C 0.41752 0.63557 0.82625 0.0
H669 H 0.41164 0.57353 0.8565 0.0
C670 C 0.44565 0.64122 0.83015 0.0
C671 C 0.40512 0.61079 0.83574 0.0
C672 C 0.37516 0.60307 0.83096 0.0
C673 C 0.46165 0.62299 0.84374 0.0
C674 C 0.44926 0.59817 0.85313 0.0
C675 C 0.42112 0.59255 0.8493 0.0
C676 C 0.46513 0.57779 0.86705 0.0
C677 C 0.49159 0.63077 0.84862 0.0
C678 C 0.48554 0.56572 0.84912 0.0
C679 C 0.50071 0.54687 0.86252 0.0
C680 C 0.49572 0.53957 0.89413 0.0
C681 C 0.47481 0.55128 0.91171 0.0
C682 C 0.45965 0.5701 0.89828 0.0
H683 H 0.49662 0.65301 0.84831 0.0
H684 H 0.49891 0.62448 0.87196 0.0
H685 H 0.50272 0.62037 0.8287 0.0
H686 H 0.48978 0.57091 0.82473 0.0
H687 H 0.51668 0.53848 0.84828 0.0
H688 H 0.2207 0.73524 0.74713 0.0
H689 H 0.18517 0.70167 0.72421 0.0
H690 H 0.21246 0.64272 0.78444 0.0
H691 H 0.24848 0.67608 0.80709 0.0
H692 H 0.20863 0.62266 0.72259 0.0
H693 H 0.1138 0.66859 0.75414 0.0
H694 H 0.13692 0.69183 0.73515 0.0
H695 H 0.14577 0.68074 0.77376 0.0
C696 C 0.2188 0.71536 0.75613 0.0
C697 C 0.23757 0.7084 0.77893 0.0
C698 C 0.19829 0.69616 0.74308 0.0
C699 C 0.19585 0.66966 0.7528 0.0
C700 C 0.21382 0.66303 0.77662 0.0
H701 H 0.06721 0.55537 0.65256 0.0
H702 H 0.09564 0.57805 0.69806 0.0
C703 C 0.2344 0.68219 0.78961 0.0
C704 C 0.17668 0.64822 0.73543 0.0
H705 H 0.11141 0.63516 0.70734 0.0
C706 C 0.18726 0.62517 0.71986 0.0
C707 C 0.14866 0.65109 0.73214 0.0
C708 C 0.13558 0.67427 0.75 0.0
C709 C 0.17106 0.60599 0.69944 0.0
C710 C 0.1436 0.61011 0.694 0.0
C711 C 0.13253 0.63211 0.71126 0.0
C712 C 0.12724 0.59402 0.66748 0.0
C713 C 0.18373 0.58188 0.68309 0.0
C714 C 0.13562 0.59533 0.63539 0.0
C715 C 0.11954 0.58263 0.60969 0.0
C716 C 0.0946 0.56822 0.61534 0.0
C717 C 0.08649 0.56605 0.64753 0.0
C718 C 0.1026 0.57913 0.67345 0.0
H719 H 0.20124 0.57668 0.69745 0.0
H720 H 0.16883 0.56377 0.67944 0.0
H721 H 0.19125 0.58691 0.659 0.0
H722 H 0.15426 0.60706 0.63009 0.0
H723 H 0.12635 0.58473 0.58518 0.0
H724 H 0.25786 0.33723 0.36529 0.0
H725 H 0.23285 0.36614 0.40401 0.0
H726 H 0.21297 0.41438 0.32721 0.0
H727 H 0.23744 0.38577 0.28878 0.0
H728 H 0.23377 0.42848 0.41942 0.0
H729 H 0.13926 0.3779 0.36083 0.0
H730 H 0.17136 0.36337 0.35721 0.0
H731 H 0.16405 0.39021 0.33304 0.0
C732 C 0.24878 0.35448 0.357 0.0
C733 C 0.24938 0.35914 0.32401 0.0
C734 C 0.23442 0.37087 0.37904 0.0
C735 C 0.2207 0.39208 0.36827 0.0
C736 C 0.2231 0.3979 0.3359 0.0
H737 H 0.10824 0.50785 0.41846 0.0
H738 H 0.14065 0.4776 0.39489 0.0
C739 C 0.23715 0.38155 0.314 0.0
C740 C 0.20182 0.40687 0.38947 0.0
H741 H 0.13518 0.41888 0.39448 0.0
C742 C 0.21216 0.42611 0.41445 0.0
C743 C 0.17363 0.40366 0.38291 0.0
C744 C 0.1613 0.3825 0.35723 0.0
C745 C 0.19509 0.44324 0.43193 0.0
C746 C 0.16706 0.44082 0.42426 0.0
C747 C 0.15668 0.42083 0.40016 0.0
C748 C 0.14828 0.4598 0.43947 0.0
C749 C 0.20722 0.46462 0.45741 0.0
C750 C 0.14166 0.45972 0.47234 0.0
C751 C 0.12304 0.47703 0.48591 0.0
C752 C 0.11075 0.49478 0.46686 0.0
C753 C 0.11754 0.49476 0.43394 0.0
C754 C 0.13599 0.47738 0.42039 0.0
H755 H 0.22969 0.46653 0.45708 0.0
H756 H 0.19991 0.48467 0.45381 0.0
H757 H 0.20072 0.45918 0.48173 0.0
H758 H 0.15064 0.44606 0.48739 0.0
H759 H 0.11848 0.47667 0.51138 0.0
loop_
_geom_bond_atom_site_label_1
_geom_bond_atom_site_label_2
_geom_bond_distance
_geom_bond_site_symmetry_2
_ccdc_geom_bond_type
Cu0 N1 1.999 1_545 S
Cu0 O6 1.979 1_545 S
Cu0 N11 1.985 1_455 S
Cu0 O20 1.959 . S
N1 Cu0 1.999 1_565 S
N1 C3 1.263 . S
N1 C5 1.389 1_565 S
N2 C3 1.358 . S
N2 C4 1.400 . S
C3 N1 1.263 . S
C3 N2 1.358 . S
C3 H9 0.930 . S
C4 N2 1.400 . S
C4 C5 1.351 1_565 S
C4 H21 0.930 . S
C5 N1 1.389 1_545 S
C5 C4 1.351 1_545 S
C5 H10 0.930 . S
O6 Cu0 1.979 1_565 S
O6 C16 1.279 1_455 S
C7 O8 1.261 . S
C7 O20 1.251 . S
O8 C7 1.261 . S
H9 C3 0.930 . S
H10 C5 0.930 . S
N11 Cu0 1.985 1_655 S
N11 C13 1.335 . S
N11 C14 1.390 . S
N12 C13 1.345 . S
N12 C15 1.336 . S
C13 N11 1.335 . S
C13 N12 1.345 . S
C13 H18 0.930 1_655 S
C14 N11 1.390 . S
C14 C15 1.346 . S
C14 H19 0.930 1_545 S
C15 N12 1.336 . S
C15 C14 1.346 . S
C15 H22 0.929 . S
C16 O6 1.279 1_655 S
C16 O17 1.216 . S
O17 C16 1.216 . S
H18 C13 0.930 1_455 S
H19 C14 0.930 1_565 S
O20 Cu0 1.959 . S
O20 C7 1.251 . S
H21 C4 0.930 . S
H22 C15 0.929 . S
Cu23 N24 1.999 . S
Cu23 O29 1.974 . S
Cu23 N34 1.985 . S
Cu23 O43 1.959 . S
N24 Cu23 1.999 . S
N24 C26 1.263 . S
N24 C28 1.389 . S
N25 C26 1.358 . S
N25 C27 1.400 . S
C26 N24 1.263 . S
C26 N25 1.358 . S
C26 H32 0.930 . S
C27 N25 1.400 . S
C27 C28 1.351 . S
C27 H44 0.930 . S
C28 N24 1.389 . S
C28 C27 1.351 . S
C28 H33 0.930 . S
O29 Cu23 1.974 . S
O29 C39 1.282 . S
C30 O31 1.261 . S
C30 O43 1.251 . S
O31 C30 1.261 . S
H32 C26 0.930 . S
H33 C28 0.930 . S
N34 Cu23 1.985 . S
N34 C36 1.335 . S
N34 C37 1.390 . S
N35 C36 1.345 . S
N35 C38 1.336 . S
C36 N34 1.335 . S
C36 N35 1.345 . S
C36 H41 0.930 . S
C37 N34 1.390 . S
C37 C38 1.346 . S
C37 H42 0.930 . S
C38 N35 1.336 . S
C38 C37 1.346 . S
C38 H45 0.929 . S
C39 O29 1.282 . S
C39 O40 1.216 . S
O40 C39 1.216 . S
H41 C36 0.930 . S
H42 C37 0.930 . S
O43 Cu23 1.959 . S
O43 C30 1.251 . S
H44 C27 0.930 . S
H45 C38 0.929 . S
Cu46 N47 1.999 1_544 S
Cu46 O52 1.974 1_544 S
Cu46 N57 1.985 . S
Cu46 O66 1.959 . S
N47 Cu46 1.999 1_566 S
N47 C49 1.263 . S
N47 C51 1.389 1_556 S
N48 C49 1.358 . S
N48 C50 1.400 . S
C49 N47 1.263 . S
C49 N48 1.358 . S
C49 H55 0.930 . S
C50 N48 1.400 . S
C50 C51 1.351 1_556 S
C50 H67 0.930 . S
C51 N47 1.389 1_554 S
C51 C50 1.351 1_554 S
C51 H56 0.930 . S
O52 Cu46 1.974 1_566 S
O52 C62 1.282 . S
C53 O54 1.261 1_554 S
C53 O66 1.251 . S
O54 C53 1.261 1_556 S
H55 C49 0.930 . S
H56 C51 0.930 . S
N57 Cu46 1.985 . S
N57 C59 1.335 . S
N57 C60 1.390 . S
N58 C59 1.345 . S
N58 C61 1.336 . S
C59 N57 1.335 . S
C59 N58 1.345 . S
C59 H64 0.930 . S
C60 N57 1.390 . S
C60 C61 1.346 . S
C60 H65 0.930 1_554 S
C61 N58 1.336 . S
C61 C60 1.346 . S
C61 H68 0.929 . S
C62 O52 1.282 . S
C62 O63 1.216 1_565 S
O63 C62 1.216 1_545 S
H64 C59 0.930 . S
H65 C60 0.930 1_556 S
O66 Cu46 1.959 . S
O66 C53 1.251 . S
H67 C50 0.930 . S
H68 C61 0.929 . S
Cu69 N70 1.999 . S
Cu69 O75 1.974 . S
Cu69 N80 1.985 . S
Cu69 O89 1.959 . S
N70 Cu69 1.999 . S
N70 C72 1.263 . S
N70 C74 1.389 . S
N71 C72 1.358 . S
N71 C73 1.400 . S
C72 N70 1.263 . S
C72 N71 1.358 . S
C72 H78 0.930 . S
C73 N71 1.400 . S
C73 C74 1.351 . S
C73 H90 0.930 . S
C74 N70 1.389 . S
C74 C73 1.351 . S
C74 H79 0.930 . S
O75 Cu69 1.974 . S
O75 C85 1.282 . S
C76 O77 1.261 . S
C76 O89 1.251 . S
O77 C76 1.261 . S
H78 C72 0.930 . S
H79 C74 0.930 . S
N80 Cu69 1.985 . S
N80 C82 1.335 . S
N80 C83 1.390 . S
N81 C82 1.345 . S
N81 C84 1.336 . S
C82 N80 1.335 . S
C82 N81 1.345 . S
C82 H87 0.930 . S
C83 N80 1.390 . S
C83 C84 1.346 . S
C83 H88 0.930 . S
C84 N81 1.336 . S
C84 C83 1.346 . S
C84 H91 0.929 . S
C85 O75 1.282 . S
C85 O86 1.216 . S
O86 C85 1.216 . S
H87 C82 0.930 . S
H88 C83 0.930 . S
O89 Cu69 1.959 . S
O89 C76 1.251 . S
H90 C73 0.930 . S
H91 C84 0.929 . S
Cu92 N93 1.999 . S
Cu92 O98 1.974 . S
Cu92 N103 1.985 . S
Cu92 O112 1.959 . S
N93 Cu92 1.999 . S
N93 C95 1.263 . S
N93 C97 1.389 . S
N94 C95 1.358 . S
N94 C96 1.400 . S
C95 N93 1.263 . S
C95 N94 1.358 . S
C95 H101 0.930 . S
C96 N94 1.400 . S
C96 C97 1.351 . S
C96 H113 0.930 . S
C97 N93 1.389 . S
C97 C96 1.351 . S
C97 H102 0.930 . S
O98 Cu92 1.974 . S
O98 C108 1.282 . S
C99 O100 1.261 . S
C99 O112 1.251 . S
O100 C99 1.261 . S
H101 C95 0.930 . S
H102 C97 0.930 . S
N103 Cu92 1.985 . S
N103 C105 1.335 . S
N103 C106 1.390 . S
N104 C105 1.345 . S
N104 C107 1.336 . S
C105 N103 1.335 . S
C105 N104 1.345 . S
C105 H110 0.930 . S
C106 N103 1.390 . S
C106 C107 1.346 . S
C106 H111 0.930 . S
C107 N104 1.336 . S
C107 C106 1.346 . S
C107 H114 0.929 . S
C108 O98 1.282 . S
C108 O109 1.216 . S
O109 C108 1.216 . S
H110 C105 0.930 . S
H111 C106 0.930 . S
O112 Cu92 1.959 . S
O112 C99 1.251 . S
H113 C96 0.930 . S
H114 C107 0.929 . S
Cu115 N116 1.999 . S
Cu115 O121 1.974 . S
Cu115 N126 1.985 . S
Cu115 O135 1.959 . S
N116 Cu115 1.999 . S
N116 C118 1.263 . S
N116 C120 1.389 . S
N117 C118 1.358 . S
N117 C119 1.400 . S
C118 N116 1.263 . S
C118 N117 1.358 . S
C118 H124 0.930 . S
C119 N117 1.400 . S
C119 C120 1.351 . S
C119 H136 0.930 . S
C120 N116 1.389 . S
C120 C119 1.351 . S
C120 H125 0.930 . S
O121 Cu115 1.974 . S
O121 C131 1.282 . S
C122 O123 1.261 . S
C122 O135 1.251 . S
O123 C122 1.261 . S
H124 C118 0.930 . S
H125 C120 0.930 . S
N126 Cu115 1.985 . S
N126 C128 1.335 . S
N126 C129 1.390 . S
N127 C128 1.345 . S
N127 C130 1.336 . S
C128 N126 1.335 . S
C128 N127 1.345 . S
C128 H133 0.930 . S
C129 N126 1.390 . S
C129 C130 1.346 . S
C129 H134 0.930 . S
C130 N127 1.336 . S
C130 C129 1.346 . S
C130 H137 0.929 . S
C131 O121 1.282 . S
C131 O132 1.216 . S
O132 C131 1.216 . S
H133 C128 0.930 . S
H134 C129 0.930 . S
O135 Cu115 1.959 . S
O135 C122 1.251 . S
H136 C119 0.930 . S
H137 C130 0.929 . S
Cu138 N139 1.999 . S
Cu138 O144 1.974 . S
Cu138 N149 1.985 . S
Cu138 O158 1.959 . S
N139 Cu138 1.999 . S
N139 C141 1.263 1_554 S
N139 C143 1.389 . S
N140 C141 1.358 . S
N140 C142 1.400 1_556 S
C141 N139 1.263 1_556 S
C141 N140 1.358 . S
C141 H147 0.930 . S
C142 N140 1.400 1_554 S
C142 C143 1.351 . S
C142 H159 0.930 . S
C143 N139 1.389 . S
C143 C142 1.351 . S
C143 H148 0.930 . S
O144 Cu138 1.974 . S
O144 C154 1.282 1_554 S
C145 O146 1.261 . S
C145 O158 1.251 . S
O146 C145 1.261 . S
H147 C141 0.930 . S
H148 C143 0.930 . S
N149 Cu138 1.985 . S
N149 C151 1.335 . S
N149 C152 1.390 . S
N150 C151 1.345 . S
N150 C153 1.336 . S
C151 N149 1.335 . S
C151 N150 1.345 . S
C151 H156 0.930 . S
C152 N149 1.390 . S
C152 C153 1.346 . S
C152 H157 0.930 . S
C153 N150 1.336 . S
C153 C152 1.346 . S
C153 H160 0.929 . S
C154 O144 1.282 1_556 S
C154 O155 1.216 . S
O155 C154 1.216 . S
H156 C151 0.930 . S
H157 C152 0.930 . S
O158 Cu138 1.959 . S
O158 C145 1.251 . S
H159 C142 0.930 . S
H160 C153 0.929 . S
Cu161 N162 1.999 1_455 S
Cu161 O167 1.974 . S
Cu161 N172 1.985 . S
Cu161 O181 1.959 1_455 S
N162 Cu161 1.999 1_655 S
N162 C164 1.263 . S
N162 C166 1.389 . S
N163 C164 1.358 . S
N163 C165 1.400 . S
C164 N162 1.263 . S
C164 N163 1.358 . S
C164 H170 0.930 1_655 S
C165 N163 1.400 . S
C165 C166 1.351 . S
C165 H182 0.930 . S
C166 N162 1.389 . S
C166 C165 1.351 . S
C166 H171 0.930 . S
O167 Cu161 1.974 . S
O167 C177 1.282 . S
C168 O169 1.261 . S
C168 O181 1.251 . S
O169 C168 1.261 . S
H170 C164 0.930 1_455 S
H171 C166 0.930 . S
N172 Cu161 1.985 . S
N172 C174 1.335 . S
N172 C175 1.390 . S
N173 C174 1.345 . S
N173 C176 1.336 . S
C174 N172 1.335 . S
C174 N173 1.345 . S
C174 H179 0.930 . S
C175 N172 1.390 . S
C175 C176 1.346 . S
C175 H180 0.930 . S
C176 N173 1.336 . S
C176 C175 1.346 . S
C176 H183 0.929 . S
C177 O167 1.282 . S
C177 O178 1.216 . S
O178 C177 1.216 . S
H179 C174 0.930 . S
H180 C175 0.930 . S
O181 Cu161 1.959 1_655 S
O181 C168 1.251 . S
H182 C165 0.930 . S
H183 C176 0.929 . S
H184 C192 0.929 . S
H185 C194 0.930 . S
H186 C196 0.930 . S
H187 C199 0.929 . S
H188 C202 0.930 . S
H189 C204 0.960 . S
H190 C204 0.960 . S
H191 C204 0.960 . S
C192 H184 0.929 . S
C192 C193 1.377 . S
C192 C194 1.384 . S
C193 C192 1.377 . S
C193 C199 1.390 . S
C194 H185 0.930 . S
C194 C192 1.384 . S
C194 C195 1.372 . S
C195 C194 1.372 . S
C195 C196 1.400 . S
C195 C200 1.490 . S
C196 H186 0.930 . S
C196 C195 1.400 . S
C196 C199 1.386 . S
H197 C213 0.930 . S
H198 C214 0.931 . S
C199 H187 0.929 . S
C199 C193 1.390 . S
C199 C196 1.386 . S
C200 C195 1.490 . S
C200 C202 1.395 . S
C200 C203 1.403 . S
H201 C207 0.930 . S
C202 H188 0.930 . S
C202 C200 1.395 . S
C202 C205 1.403 . S
C203 C200 1.403 . S
C203 C204 1.524 . S
C203 C207 1.400 . S
C204 H189 0.960 . S
C204 H190 0.960 . S
C204 H191 0.960 . S
C204 C203 1.524 . S
C205 C202 1.403 . S
C205 C206 1.392 . S
C205 C209 1.495 . S
C206 C205 1.392 . S
C206 C207 1.385 . S
C206 C208 1.478 . S
C207 H201 0.930 . S
C207 C203 1.400 . S
C207 C206 1.385 . S
C208 C206 1.478 . S
C208 C210 1.381 . S
C208 C214 1.383 . S
C209 C205 1.495 . S
C209 H215 0.959 . S
C209 H216 0.961 . S
C209 H217 0.960 . S
C210 C208 1.381 . S
C210 C211 1.394 . S
C210 H218 0.930 . S
C211 C210 1.394 . S
C211 C212 1.383 . S
C211 H219 0.929 . S
C212 C211 1.383 . S
C212 C213 1.377 . S
C213 H197 0.930 . S
C213 C212 1.377 . S
C213 C214 1.379 . S
C214 H198 0.931 . S
C214 C208 1.383 . S
C214 C213 1.379 . S
H215 C209 0.959 . S
H216 C209 0.961 . S
H217 C209 0.960 . S
H218 C210 0.930 . S
H219 C211 0.929 . S
H220 C228 0.929 . S
H221 C230 0.930 . S
H222 C232 0.930 . S
H223 C235 0.929 . S
H224 C238 0.930 . S
H225 C240 0.960 . S
H226 C240 0.960 . S
H227 C240 0.960 . S
C228 H220 0.929 . S
C228 C229 1.377 . S
C228 C230 1.384 . S
C229 C228 1.377 . S
C229 C235 1.390 . S
C230 H221 0.930 . S
C230 C228 1.384 . S
C230 C231 1.372 . S
C231 C230 1.372 . S
C231 C232 1.400 . S
C231 C236 1.490 . S
C232 H222 0.930 . S
C232 C231 1.400 . S
C232 C235 1.386 . S
H233 C249 0.930 . S
H234 C250 0.931 . S
C235 H223 0.929 . S
C235 C229 1.390 . S
C235 C232 1.386 . S
C236 C231 1.490 . S
C236 C238 1.395 . S
C236 C239 1.403 . S
H237 C243 0.930 . S
C238 H224 0.930 . S
C238 C236 1.395 . S
C238 C241 1.403 . S
C239 C236 1.403 . S
C239 C240 1.524 . S
C239 C243 1.400 . S
C240 H225 0.960 . S
C240 H226 0.960 . S
C240 H227 0.960 . S
C240 C239 1.524 . S
C241 C238 1.403 . S
C241 C242 1.392 . S
C241 C245 1.495 . S
C242 C241 1.392 . S
C242 C243 1.385 . S
C242 C244 1.478 . S
C243 H237 0.930 . S
C243 C239 1.400 . S
C243 C242 1.385 . S
C244 C242 1.478 . S
C244 C246 1.381 . S
C244 C250 1.383 . S
C245 C241 1.495 . S
C245 H251 0.959 . S
C245 H252 0.961 . S
C245 H253 0.960 . S
C246 C244 1.381 . S
C246 C247 1.394 . S
C246 H254 0.930 . S
C247 C246 1.394 . S
C247 C248 1.383 . S
C247 H255 0.929 . S
C248 C247 1.383 . S
C248 C249 1.377 . S
C249 H233 0.930 . S
C249 C248 1.377 . S
C249 C250 1.379 . S
C250 H234 0.931 . S
C250 C244 1.383 . S
C250 C249 1.379 . S
H251 C245 0.959 . S
H252 C245 0.961 . S
H253 C245 0.960 . S
H254 C246 0.930 . S
H255 C247 0.929 . S
H256 C264 0.929 . S
H257 C266 0.930 . S
H258 C268 0.930 . S
H259 C271 0.929 . S
H260 C274 0.930 . S
H261 C276 0.960 . S
H262 C276 0.960 . S
H263 C276 0.960 . S
C264 H256 0.929 . S
C264 C265 1.377 . S
C264 C266 1.384 . S
C265 C264 1.377 . S
C265 C271 1.390 . S
C266 H257 0.930 . S
C266 C264 1.384 . S
C266 C267 1.372 . S
C267 C266 1.372 . S
C267 C268 1.400 . S
C267 C272 1.490 . S
C268 H258 0.930 . S
C268 C267 1.400 . S
C268 C271 1.386 . S
H269 C285 0.930 . S
H270 C286 0.931 . S
C271 H259 0.929 . S
C271 C265 1.390 . S
C271 C268 1.386 . S
C272 C267 1.490 . S
C272 C274 1.395 . S
C272 C275 1.403 . S
H273 C279 0.930 . S
C274 H260 0.930 . S
C274 C272 1.395 . S
C274 C277 1.403 . S
C275 C272 1.403 . S
C275 C276 1.524 . S
C275 C279 1.400 . S
C276 H261 0.960 . S
C276 H262 0.960 . S
C276 H263 0.960 . S
C276 C275 1.524 . S
C277 C274 1.403 . S
C277 C278 1.392 . S
C277 C281 1.495 . S
C278 C277 1.392 . S
C278 C279 1.385 . S
C278 C280 1.478 . S
C279 H273 0.930 . S
C279 C275 1.400 . S
C279 C278 1.385 . S
C280 C278 1.478 . S
C280 C282 1.381 . S
C280 C286 1.383 . S
C281 C277 1.495 . S
C281 H287 0.959 . S
C281 H288 0.961 . S
C281 H289 0.960 . S
C282 C280 1.381 . S
C282 C283 1.394 . S
C282 H290 0.930 . S
C283 C282 1.394 . S
C283 C284 1.383 . S
C283 H291 0.929 . S
C284 C283 1.383 . S
C284 C285 1.377 . S
C285 H269 0.930 . S
C285 C284 1.377 . S
C285 C286 1.379 . S
C286 H270 0.931 . S
C286 C280 1.383 . S
C286 C285 1.379 . S
H287 C281 0.959 . S
H288 C281 0.961 . S
H289 C281 0.960 . S
H290 C282 0.930 . S
H291 C283 0.929 . S
H292 C300 0.929 . S
H293 C302 0.930 . S
H294 C304 0.930 . S
H295 C307 0.929 . S
H296 C310 0.930 . S
H297 C312 0.960 . S
H298 C312 0.960 . S
H299 C312 0.960 . S
C300 H292 0.929 . S
C300 C301 1.377 . S
C300 C302 1.384 . S
C301 C300 1.377 . S
C301 C307 1.390 . S
C302 H293 0.930 . S
C302 C300 1.384 . S
C302 C303 1.372 . S
C303 C302 1.372 . S
C303 C304 1.400 . S
C303 C308 1.490 . S
C304 H294 0.930 . S
C304 C303 1.400 . S
C304 C307 1.386 . S
H305 C321 0.930 . S
H306 C322 0.931 . S
C307 H295 0.929 . S
C307 C301 1.390 . S
C307 C304 1.386 . S
C308 C303 1.490 . S
C308 C310 1.395 . S
C308 C311 1.403 . S
H309 C315 0.930 . S
C310 H296 0.930 . S
C310 C308 1.395 . S
C310 C313 1.403 . S
C311 C308 1.403 . S
C311 C312 1.524 . S
C311 C315 1.400 . S
C312 H297 0.960 . S
C312 H298 0.960 . S
C312 H299 0.960 . S
C312 C311 1.524 . S
C313 C310 1.403 . S
C313 C314 1.392 . S
C313 C317 1.495 . S
C314 C313 1.392 . S
C314 C315 1.385 . S
C314 C316 1.478 . S
C315 H309 0.930 . S
C315 C311 1.400 . S
C315 C314 1.385 . S
C316 C314 1.478 . S
C316 C318 1.381 . S
C316 C322 1.383 . S
C317 C313 1.495 . S
C317 H323 0.959 . S
C317 H324 0.961 . S
C317 H325 0.960 . S
C318 C316 1.381 . S
C318 C319 1.394 . S
C318 H326 0.930 . S
C319 C318 1.394 . S
C319 C320 1.383 . S
C319 H327 0.929 . S
C320 C319 1.383 . S
C320 C321 1.377 . S
C321 H305 0.930 . S
C321 C320 1.377 . S
C321 C322 1.379 . S
C322 H306 0.931 . S
C322 C316 1.383 . S
C322 C321 1.379 . S
H323 C317 0.959 . S
H324 C317 0.961 . S
H325 C317 0.960 . S
H326 C318 0.930 . S
H327 C319 0.929 . S
H328 C336 0.929 . S
H329 C338 0.930 . S
H330 C340 0.930 . S
H331 C343 0.929 . S
H332 C346 0.930 . S
H333 C348 0.960 . S
H334 C348 0.960 . S
H335 C348 0.960 . S
C336 H328 0.929 . S
C336 C337 1.377 . S
C336 C338 1.384 . S
C337 C336 1.377 . S
C337 C343 1.390 . S
C338 H329 0.930 . S
C338 C336 1.384 . S
C338 C339 1.372 . S
C339 C338 1.372 . S
C339 C340 1.400 . S
C339 C344 1.490 . S
C340 H330 0.930 . S
C340 C339 1.400 . S
C340 C343 1.386 . S
H341 C357 0.930 . S
H342 C358 0.931 . S
C343 H331 0.929 . S
C343 C337 1.390 . S
C343 C340 1.386 . S
C344 C339 1.490 . S
C344 C346 1.395 . S
C344 C347 1.403 . S
H345 C351 0.930 . S
C346 H332 0.930 . S
C346 C344 1.395 . S
C346 C349 1.403 . S
C347 C344 1.403 . S
C347 C348 1.524 . S
C347 C351 1.400 . S
C348 H333 0.960 . S
C348 H334 0.960 . S
C348 H335 0.960 . S
C348 C347 1.524 . S
C349 C346 1.403 . S
C349 C350 1.392 . S
C349 C353 1.495 . S
C350 C349 1.392 . S
C350 C351 1.385 . S
C350 C352 1.478 . S
C351 H345 0.930 . S
C351 C347 1.400 . S
C351 C350 1.385 . S
C352 C350 1.478 . S
C352 C354 1.381 . S
C352 C358 1.383 . S
C353 C349 1.495 . S
C353 H359 0.959 . S
C353 H360 0.961 . S
C353 H361 0.960 . S
C354 C352 1.381 . S
C354 C355 1.394 . S
C354 H362 0.930 . S
C355 C354 1.394 . S
C355 C356 1.383 . S
C355 H363 0.929 . S
C356 C355 1.383 . S
C356 C357 1.377 . S
C357 H341 0.930 . S
C357 C356 1.377 . S
C357 C358 1.379 . S
C358 H342 0.931 . S
C358 C352 1.383 . S
C358 C357 1.379 . S
H359 C353 0.959 . S
H360 C353 0.961 . S
H361 C353 0.960 . S
H362 C354 0.930 . S
H363 C355 0.929 . S
H364 C372 0.929 . S
H365 C374 0.930 . S
H366 C376 0.930 . S
H367 C379 0.929 . S
H368 C382 0.930 . S
H369 C384 0.960 . S
H370 C384 0.960 . S
H371 C384 0.960 . S
C372 H364 0.929 . S
C372 C373 1.377 . S
C372 C374 1.384 . S
C373 C372 1.377 . S
C373 C379 1.390 . S
C374 H365 0.930 . S
C374 C372 1.384 . S
C374 C375 1.372 . S
C375 C374 1.372 . S
C375 C376 1.400 . S
C375 C380 1.490 . S
C376 H366 0.930 . S
C376 C375 1.400 . S
C376 C379 1.386 . S
H377 C393 0.930 . S
H378 C394 0.931 . S
C379 H367 0.929 . S
C379 C373 1.390 . S
C379 C376 1.386 . S
C380 C375 1.490 . S
C380 C382 1.395 . S
C380 C383 1.403 . S
H381 C387 0.930 . S
C382 H368 0.930 . S
C382 C380 1.395 . S
C382 C385 1.403 . S
C383 C380 1.403 . S
C383 C384 1.524 . S
C383 C387 1.400 . S
C384 H369 0.960 . S
C384 H370 0.960 . S
C384 H371 0.960 . S
C384 C383 1.524 . S
C385 C382 1.403 . S
C385 C386 1.392 . S
C385 C389 1.495 . S
C386 C385 1.392 . S
C386 C387 1.385 . S
C386 C388 1.478 . S
C387 H381 0.930 . S
C387 C383 1.400 . S
C387 C386 1.385 . S
C388 C386 1.478 . S
C388 C390 1.381 . S
C388 C394 1.383 . S
C389 C385 1.495 . S
C389 H395 0.959 . S
C389 H396 0.961 . S
C389 H397 0.960 . S
C390 C388 1.381 . S
C390 C391 1.394 . S
C390 H398 0.930 . S
C391 C390 1.394 . S
C391 C392 1.383 . S
C391 H399 0.929 . S
C392 C391 1.383 . S
C392 C393 1.377 . S
C393 H377 0.930 . S
C393 C392 1.377 . S
C393 C394 1.379 . S
C394 H378 0.931 . S
C394 C388 1.383 . S
C394 C393 1.379 . S
H395 C389 0.959 . S
H396 C389 0.961 . S
H397 C389 0.960 . S
H398 C390 0.930 . S
H399 C391 0.929 . S
H400 C408 0.929 . S
H401 C410 0.930 . S
H402 C412 0.930 . S
H403 C415 0.929 . S
H404 C418 0.930 . S
H405 C420 0.960 . S
H406 C420 0.960 . S
H407 C420 0.960 . S
C408 H400 0.929 . S
C408 C409 1.377 . S
C408 C410 1.384 . S
C409 C408 1.377 . S
C409 C415 1.390 . S
C410 H401 0.930 . S
C410 C408 1.384 . S
C410 C411 1.372 . S
C411 C410 1.372 . S
C411 C412 1.400 . S
C411 C416 1.490 . S
C412 H402 0.930 . S
C412 C411 1.400 . S
C412 C415 1.386 . S
H413 C429 0.930 . S
H414 C430 0.931 . S
C415 H403 0.929 . S
C415 C409 1.390 . S
C415 C412 1.386 . S
C416 C411 1.490 . S
C416 C418 1.395 . S
C416 C419 1.403 . S
H417 C423 0.930 . S
C418 H404 0.930 . S
C418 C416 1.395 . S
C418 C421 1.403 . S
C419 C416 1.403 . S
C419 C420 1.524 . S
C419 C423 1.400 . S
C420 H405 0.960 . S
C420 H406 0.960 . S
C420 H407 0.960 . S
C420 C419 1.524 . S
C421 C418 1.403 . S
C421 C422 1.392 . S
C421 C425 1.495 . S
C422 C421 1.392 . S
C422 C423 1.385 . S
C422 C424 1.478 . S
C423 H417 0.930 . S
C423 C419 1.400 . S
C423 C422 1.385 . S
C424 C422 1.478 . S
C424 C426 1.381 . S
C424 C430 1.383 . S
C425 C421 1.495 . S
C425 H431 0.959 . S
C425 H432 0.961 . S
C425 H433 0.960 . S
C426 C424 1.381 . S
C426 C427 1.394 . S
C426 H434 0.930 . S
C427 C426 1.394 . S
C427 C428 1.383 . S
C427 H435 0.929 . S
C428 C427 1.383 . S
C428 C429 1.377 . S
C429 H413 0.930 . S
C429 C428 1.377 . S
C429 C430 1.379 . S
C430 H414 0.931 . S
C430 C424 1.383 . S
C430 C429 1.379 . S
H431 C425 0.959 . S
H432 C425 0.961 . S
H433 C425 0.960 . S
H434 C426 0.930 . S
H435 C427 0.929 . S
H436 C444 0.929 . S
H437 C446 0.930 . S
H438 C448 0.930 . S
H439 C451 0.929 . S
H440 C454 0.930 . S
H441 C456 0.960 . S
H442 C456 0.960 . S
H443 C456 0.960 . S
C444 H436 0.929 . S
C444 C445 1.377 . S
C444 C446 1.384 . S
C445 C444 1.377 . S
C445 C451 1.390 . S
C446 H437 0.930 . S
C446 C444 1.384 . S
C446 C447 1.372 . S
C447 C446 1.372 . S
C447 C448 1.400 . S
C447 C452 1.490 . S
C448 H438 0.930 . S
C448 C447 1.400 . S
C448 C451 1.386 . S
H449 C465 0.930 . S
H450 C466 0.931 . S
C451 H439 0.929 . S
C451 C445 1.390 . S
C451 C448 1.386 . S
C452 C447 1.490 . S
C452 C454 1.395 . S
C452 C455 1.403 . S
H453 C459 0.930 . S
C454 H440 0.930 . S
C454 C452 1.395 . S
C454 C457 1.403 . S
C455 C452 1.403 . S
C455 C456 1.524 . S
C455 C459 1.400 . S
C456 H441 0.960 . S
C456 H442 0.960 . S
C456 H443 0.960 . S
C456 C455 1.524 . S
C457 C454 1.403 . S
C457 C458 1.392 . S
C457 C461 1.495 . S
C458 C457 1.392 . S
C458 C459 1.385 . S
C458 C460 1.478 . S
C459 H453 0.930 . S
C459 C455 1.400 . S
C459 C458 1.385 . S
C460 C458 1.478 . S
C460 C462 1.381 . S
C460 C466 1.383 . S
C461 C457 1.495 . S
C461 H467 0.959 . S
C461 H468 0.961 . S
C461 H469 0.960 . S
C462 C460 1.381 . S
C462 C463 1.394 . S
C462 H470 0.930 . S
C463 C462 1.394 . S
C463 C464 1.383 . S
C463 H471 0.929 . S
C464 C463 1.383 . S
C464 C465 1.377 . S
C465 H449 0.930 . S
C465 C464 1.377 . S
C465 C466 1.379 . S
C466 H450 0.931 . S
C466 C460 1.383 . S
C466 C465 1.379 . S
H467 C461 0.959 . S
H468 C461 0.961 . S
H469 C461 0.960 . S
H470 C462 0.930 . S
H471 C463 0.929 . S
H472 C480 0.929 . S
H473 C482 0.930 . S
H474 C484 0.930 . S
H475 C487 0.929 . S
H476 C490 0.930 . S
H477 C492 0.960 . S
H478 C492 0.960 . S
H479 C492 0.960 . S
C480 H472 0.929 . S
C480 C481 1.377 . S
C480 C482 1.384 . S
C481 C480 1.377 . S
C481 C487 1.390 . S
C482 H473 0.930 . S
C482 C480 1.384 . S
C482 C483 1.372 . S
C483 C482 1.372 . S
C483 C484 1.400 . S
C483 C488 1.490 . S
C484 H474 0.930 . S
C484 C483 1.400 . S
C484 C487 1.386 . S
H485 C501 0.930 . S
H486 C502 0.931 . S
C487 H475 0.929 . S
C487 C481 1.390 . S
C487 C484 1.386 . S
C488 C483 1.490 . S
C488 C490 1.395 . S
C488 C491 1.403 . S
H489 C495 0.930 . S
C490 H476 0.930 . S
C490 C488 1.395 . S
C490 C493 1.403 . S
C491 C488 1.403 . S
C491 C492 1.524 . S
C491 C495 1.400 . S
C492 H477 0.960 . S
C492 H478 0.960 . S
C492 H479 0.960 . S
C492 C491 1.524 . S
C493 C490 1.403 . S
C493 C494 1.392 . S
C493 C497 1.495 . S
C494 C493 1.392 . S
C494 C495 1.385 . S
C494 C496 1.478 . S
C495 H489 0.930 . S
C495 C491 1.400 . S
C495 C494 1.385 . S
C496 C494 1.478 . S
C496 C498 1.381 . S
C496 C502 1.383 . S
C497 C493 1.495 . S
C497 H503 0.959 . S
C497 H504 0.961 . S
C497 H505 0.960 . S
C498 C496 1.381 . S
C498 C499 1.394 . S
C498 H506 0.930 . S
C499 C498 1.394 . S
C499 C500 1.383 . S
C499 H507 0.929 . S
C500 C499 1.383 . S
C500 C501 1.377 . S
C501 H485 0.930 . S
C501 C500 1.377 . S
C501 C502 1.379 . S
C502 H486 0.931 . S
C502 C496 1.383 . S
C502 C501 1.379 . S
H503 C497 0.959 . S
H504 C497 0.961 . S
H505 C497 0.960 . S
H506 C498 0.930 . S
H507 C499 0.929 . S
H508 C516 0.929 . S
H509 C518 0.930 . S
H510 C520 0.930 . S
H511 C523 0.929 . S
H512 C526 0.930 . S
H513 C528 0.960 . S
H514 C528 0.960 . S
H515 C528 0.960 . S
C516 H508 0.929 . S
C516 C517 1.377 . S
C516 C518 1.384 . S
C517 C516 1.377 . S
C517 C523 1.390 . S
C518 H509 0.930 . S
C518 C516 1.384 . S
C518 C519 1.372 . S
C519 C518 1.372 . S
C519 C520 1.400 . S
C519 C524 1.490 . S
C520 H510 0.930 . S
C520 C519 1.400 . S
C520 C523 1.386 . S
H521 C537 0.930 . S
H522 C538 0.931 . S
C523 H511 0.929 . S
C523 C517 1.390 . S
C523 C520 1.386 . S
C524 C519 1.490 . S
C524 C526 1.395 . S
C524 C527 1.403 . S
H525 C531 0.930 . S
C526 H512 0.930 . S
C526 C524 1.395 . S
C526 C529 1.403 . S
C527 C524 1.403 . S
C527 C528 1.524 . S
C527 C531 1.400 . S
C528 H513 0.960 . S
C528 H514 0.960 . S
C528 H515 0.960 . S
C528 C527 1.524 . S
C529 C526 1.403 . S
C529 C530 1.392 . S
C529 C533 1.495 . S
C530 C529 1.392 . S
C530 C531 1.385 . S
C530 C532 1.478 . S
C531 H525 0.930 . S
C531 C527 1.400 . S
C531 C530 1.385 . S
C532 C530 1.478 . S
C532 C534 1.381 . S
C532 C538 1.383 . S
C533 C529 1.495 . S
C533 H539 0.959 . S
C533 H540 0.961 . S
C533 H541 0.960 . S
C534 C532 1.381 . S
C534 C535 1.394 . S
C534 H542 0.930 . S
C535 C534 1.394 . S
C535 C536 1.383 . S
C535 H543 0.929 . S
C536 C535 1.383 . S
C536 C537 1.377 . S
C537 H521 0.930 . S
C537 C536 1.377 . S
C537 C538 1.379 . S
C538 H522 0.931 . S
C538 C532 1.383 . S
C538 C537 1.379 . S
H539 C533 0.959 . S
H540 C533 0.961 . S
H541 C533 0.960 . S
H542 C534 0.930 . S
H543 C535 0.929 . S
H544 C552 0.929 . S
H545 C554 0.930 . S
H546 C556 0.930 . S
H547 C559 0.929 . S
H548 C562 0.930 . S
H549 C564 0.960 . S
H550 C564 0.960 . S
H551 C564 0.960 . S
C552 H544 0.929 . S
C552 C553 1.377 . S
C552 C554 1.384 . S
C553 C552 1.377 . S
C553 C559 1.390 . S
C554 H545 0.930 . S
C554 C552 1.384 . S
C554 C555 1.372 . S
C555 C554 1.372 . S
C555 C556 1.400 . S
C555 C560 1.490 . S
C556 H546 0.930 . S
C556 C555 1.400 . S
C556 C559 1.386 . S
H557 C573 0.930 . S
H558 C574 0.931 . S
C559 H547 0.929 . S
C559 C553 1.390 . S
C559 C556 1.386 . S
C560 C555 1.490 . S
C560 C562 1.395 . S
C560 C563 1.403 . S
H561 C567 0.930 . S
C562 H548 0.930 . S
C562 C560 1.395 . S
C562 C565 1.403 . S
C563 C560 1.403 . S
C563 C564 1.524 . S
C563 C567 1.400 . S
C564 H549 0.960 . S
C564 H550 0.960 . S
C564 H551 0.960 . S
C564 C563 1.524 . S
C565 C562 1.403 . S
C565 C566 1.392 . S
C565 C569 1.495 . S
C566 C565 1.392 . S
C566 C567 1.385 . S
C566 C568 1.478 . S
C567 H561 0.930 . S
C567 C563 1.400 . S
C567 C566 1.385 . S
C568 C566 1.478 . S
C568 C570 1.381 . S
C568 C574 1.383 . S
C569 C565 1.495 . S
C569 H575 0.959 . S
C569 H576 0.961 . S
C569 H577 0.960 . S
C570 C568 1.381 . S
C570 C571 1.394 . S
C570 H578 0.930 . S
C571 C570 1.394 . S
C571 C572 1.383 . S
C571 H579 0.929 . S
C572 C571 1.383 . S
C572 C573 1.377 . S
C573 H557 0.930 . S
C573 C572 1.377 . S
C573 C574 1.379 . S
C574 H558 0.931 . S
C574 C568 1.383 . S
C574 C573 1.379 . S
H575 C569 0.959 . S
H576 C569 0.961 . S
H577 C569 0.960 . S
H578 C570 0.930 . S
H579 C571 0.929 . S
H580 C588 0.929 . S
H581 C590 0.930 . S
H582 C592 0.930 . S
H583 C595 0.929 . S
H584 C598 0.930 . S
H585 C600 0.960 . S
H586 C600 0.960 . S
H587 C600 0.960 . S
C588 H580 0.929 . S
C588 C589 1.377 . S
C588 C590 1.384 . S
C589 C588 1.377 . S
C589 C595 1.390 . S
C590 H581 0.930 . S
C590 C588 1.384 . S
C590 C591 1.372 . S
C591 C590 1.372 . S
C591 C592 1.400 . S
C591 C596 1.490 . S
C592 H582 0.930 . S
C592 C591 1.400 . S
C592 C595 1.386 . S
H593 C609 0.930 . S
H594 C610 0.931 . S
C595 H583 0.929 . S
C595 C589 1.390 . S
C595 C592 1.386 . S
C596 C591 1.490 . S
C596 C598 1.395 . S
C596 C599 1.403 . S
H597 C603 0.930 . S
C598 H584 0.930 . S
C598 C596 1.395 . S
C598 C601 1.403 . S
C599 C596 1.403 . S
C599 C600 1.524 . S
C599 C603 1.400 . S
C600 H585 0.960 . S
C600 H586 0.960 . S
C600 H587 0.960 . S
C600 C599 1.524 . S
C601 C598 1.403 . S
C601 C602 1.392 . S
C601 C605 1.495 . S
C602 C601 1.392 . S
C602 C603 1.385 . S
C602 C604 1.478 . S
C603 H597 0.930 . S
C603 C599 1.400 . S
C603 C602 1.385 . S
C604 C602 1.478 . S
C604 C606 1.381 . S
C604 C610 1.383 . S
C605 C601 1.495 . S
C605 H611 0.959 . S
C605 H612 0.961 . S
C605 H613 0.960 . S
C606 C604 1.381 . S
C606 C607 1.394 . S
C606 H614 0.930 . S
C607 C606 1.394 . S
C607 C608 1.383 . S
C607 H615 0.929 . S
C608 C607 1.383 . S
C608 C609 1.377 . S
C609 H593 0.930 . S
C609 C608 1.377 . S
C609 C610 1.379 . S
C610 H594 0.931 . S
C610 C604 1.383 . S
C610 C609 1.379 . S
H611 C605 0.959 . S
H612 C605 0.961 . S
H613 C605 0.960 . S
H614 C606 0.930 . S
H615 C607 0.929 . S
H616 C624 0.929 . S
H617 C626 0.930 . S
H618 C628 0.930 . S
H619 C631 0.929 . S
H620 C634 0.930 . S
H621 C636 0.960 . S
H622 C636 0.960 . S
H623 C636 0.960 . S
C624 H616 0.929 . S
C624 C625 1.377 . S
C624 C626 1.384 . S
C625 C624 1.377 . S
C625 C631 1.390 . S
C626 H617 0.930 . S
C626 C624 1.384 . S
C626 C627 1.372 . S
C627 C626 1.372 . S
C627 C628 1.400 . S
C627 C632 1.490 . S
C628 H618 0.930 . S
C628 C627 1.400 . S
C628 C631 1.386 . S
H629 C645 0.930 . S
H630 C646 0.931 . S
C631 H619 0.929 . S
C631 C625 1.390 . S
C631 C628 1.386 . S
C632 C627 1.490 . S
C632 C634 1.395 . S
C632 C635 1.403 . S
H633 C639 0.930 . S
C634 H620 0.930 . S
C634 C632 1.395 . S
C634 C637 1.403 . S
C635 C632 1.403 . S
C635 C636 1.524 . S
C635 C639 1.400 . S
C636 H621 0.960 . S
C636 H622 0.960 . S
C636 H623 0.960 . S
C636 C635 1.524 . S
C637 C634 1.403 . S
C637 C638 1.392 . S
C637 C641 1.495 . S
C638 C637 1.392 . S
C638 C639 1.385 . S
C638 C640 1.478 . S
C639 H633 0.930 . S
C639 C635 1.400 . S
C639 C638 1.385 . S
C640 C638 1.478 . S
C640 C642 1.381 . S
C640 C646 1.383 . S
C641 C637 1.495 . S
C641 H647 0.959 . S
C641 H648 0.961 . S
C641 H649 0.960 . S
C642 C640 1.381 . S
C642 C643 1.394 . S
C642 H650 0.930 . S
C643 C642 1.394 . S
C643 C644 1.383 . S
C643 H651 0.929 . S
C644 C643 1.383 . S
C644 C645 1.377 . S
C645 H629 0.930 . S
C645 C644 1.377 . S
C645 C646 1.379 . S
C646 H630 0.931 . S
C646 C640 1.383 . S
C646 C645 1.379 . S
H647 C641 0.959 . S
H648 C641 0.961 . S
H649 C641 0.960 . S
H650 C642 0.930 . S
H651 C643 0.929 . S
H652 C660 0.929 . S
H653 C662 0.930 . S
H654 C664 0.930 . S
H655 C667 0.929 . S
H656 C670 0.930 . S
H657 C672 0.960 . S
H658 C672 0.960 . S
H659 C672 0.960 . S
C660 H652 0.929 . S
C660 C661 1.377 . S
C660 C662 1.384 . S
C661 C660 1.377 . S
C661 C667 1.390 . S
C662 H653 0.930 . S
C662 C660 1.384 . S
C662 C663 1.372 . S
C663 C662 1.372 . S
C663 C664 1.400 . S
C663 C668 1.490 . S
C664 H654 0.930 . S
C664 C663 1.400 . S
C664 C667 1.386 . S
H665 C681 0.930 . S
H666 C682 0.931 . S
C667 H655 0.929 . S
C667 C661 1.390 . S
C667 C664 1.386 . S
C668 C663 1.490 . S
C668 C670 1.395 . S
C668 C671 1.403 . S
H669 C675 0.930 . S
C670 H656 0.930 . S
C670 C668 1.395 . S
C670 C673 1.403 . S
C671 C668 1.403 . S
C671 C672 1.524 . S
C671 C675 1.400 . S
C672 H657 0.960 . S
C672 H658 0.960 . S
C672 H659 0.960 . S
C672 C671 1.524 . S
C673 C670 1.403 . S
C673 C674 1.392 . S
C673 C677 1.495 . S
C674 C673 1.392 . S
C674 C675 1.385 . S
C674 C676 1.478 . S
C675 H669 0.930 . S
C675 C671 1.400 . S
C675 C674 1.385 . S
C676 C674 1.478 . S
C676 C678 1.381 . S
C676 C682 1.383 . S
C677 C673 1.495 . S
C677 H683 0.959 . S
C677 H684 0.961 . S
C677 H685 0.960 . S
C678 C676 1.381 . S
C678 C679 1.394 . S
C678 H686 0.930 . S
C679 C678 1.394 . S
C679 C680 1.383 . S
C679 H687 0.929 . S
C680 C679 1.383 . S
C680 C681 1.377 . S
C681 H665 0.930 . S
C681 C680 1.377 . S
C681 C682 1.379 . S
C682 H666 0.931 . S
C682 C676 1.383 . S
C682 C681 1.379 . S
H683 C677 0.959 . S
H684 C677 0.961 . S
H685 C677 0.960 . S
H686 C678 0.930 . S
H687 C679 0.929 . S
H688 C696 0.929 . S
H689 C698 0.930 . S
H690 C700 0.930 . S
H691 C703 0.929 . S
H692 C706 0.930 . S
H693 C708 0.960 . S
H694 C708 0.960 . S
H695 C708 0.960 . S
C696 H688 0.929 . S
C696 C697 1.377 . S
C696 C698 1.384 . S
C697 C696 1.377 . S
C697 C703 1.390 . S
C698 H689 0.930 . S
C698 C696 1.384 . S
C698 C699 1.372 . S
C699 C698 1.372 . S
C699 C700 1.400 . S
C699 C704 1.490 . S
C700 H690 0.930 . S
C700 C699 1.400 . S
C700 C703 1.386 . S
H701 C717 0.930 . S
H702 C718 0.931 . S
C703 H691 0.929 . S
C703 C697 1.390 . S
C703 C700 1.386 . S
C704 C699 1.490 . S
C704 C706 1.395 . S
C704 C707 1.403 . S
H705 C711 0.930 . S
C706 H692 0.930 . S
C706 C704 1.395 . S
C706 C709 1.403 . S
C707 C704 1.403 . S
C707 C708 1.524 . S
C707 C711 1.400 . S
C708 H693 0.960 . S
C708 H694 0.960 . S
C708 H695 0.960 . S
C708 C707 1.524 . S
C709 C706 1.403 . S
C709 C710 1.392 . S
C709 C713 1.495 . S
C710 C709 1.392 . S
C710 C711 1.385 . S
C710 C712 1.478 . S
C711 H705 0.930 . S
C711 C707 1.400 . S
C711 C710 1.385 . S
C712 C710 1.478 . S
C712 C714 1.381 . S
C712 C718 1.383 . S
C713 C709 1.495 . S
C713 H719 0.959 . S
C713 H720 0.961 . S
C713 H721 0.960 . S
C714 C712 1.381 . S
C714 C715 1.394 . S
C714 H722 0.930 . S
C715 C714 1.394 . S
C715 C716 1.383 . S
C715 H723 0.929 . S
C716 C715 1.383 . S
C716 C717 1.377 . S
C717 H701 0.930 . S
C717 C716 1.377 . S
C717 C718 1.379 . S
C718 H702 0.931 . S
C718 C712 1.383 . S
C718 C717 1.379 . S
H719 C713 0.959 . S
H720 C713 0.961 . S
H721 C713 0.960 . S
H722 C714 0.930 . S
H723 C715 0.929 . S
H724 C732 0.929 . S
H725 C734 0.930 . S
H726 C736 0.930 . S
H727 C739 0.929 . S
H728 C742 0.930 . S
H729 C744 0.960 . S
H730 C744 0.960 . S
H731 C744 0.960 . S
C732 H724 0.929 . S
C732 C733 1.377 . S
C732 C734 1.384 . S
C733 C732 1.377 . S
C733 C739 1.390 . S
C734 H725 0.930 . S
C734 C732 1.384 . S
C734 C735 1.372 . S
C735 C734 1.372 . S
C735 C736 1.400 . S
C735 C740 1.490 . S
C736 H726 0.930 . S
C736 C735 1.400 . S
C736 C739 1.386 . S
H737 C753 0.930 . S
H738 C754 0.931 . S
C739 H727 0.929 . S
C739 C733 1.390 . S
C739 C736 1.386 . S
C740 C735 1.490 . S
C740 C742 1.395 . S
C740 C743 1.403 . S
H741 C747 0.930 . S
C742 H728 0.930 . S
C742 C740 1.395 . S
C742 C745 1.403 . S
C743 C740 1.403 . S
C743 C744 1.524 . S
C743 C747 1.400 . S
C744 H729 0.960 . S
C744 H730 0.960 . S
C744 H731 0.960 . S
C744 C743 1.524 . S
C745 C742 1.403 . S
C745 C746 1.392 . S
C745 C749 1.495 . S
C746 C745 1.392 . S
C746 C747 1.385 . S
C746 C748 1.478 . S
C747 H741 0.930 . S
C747 C743 1.400 . S
C747 C746 1.385 . S
C748 C746 1.478 . S
C748 C750 1.381 . S
C748 C754 1.383 . S
C749 C745 1.495 . S
C749 H755 0.959 . S
C749 H756 0.961 . S
C749 H757 0.960 . S
C750 C748 1.381 . S
C750 C751 1.394 . S
C750 H758 0.930 . S
C751 C750 1.394 . S
C751 C752 1.383 . S
C751 H759 0.929 . S
C752 C751 1.383 . S
C752 C753 1.377 . S
C753 H737 0.930 . S
C753 C752 1.377 . S
C753 C754 1.379 . S
C754 H738 0.931 . S
C754 C748 1.383 . S
C754 C753 1.379 . S
H755 C749 0.959 . S
H756 C749 0.961 . S
H757 C749 0.960 . S
H758 C750 0.930 . S
H759 C751 0.929 . S
C193 C7 1.446 . S
C212 N71 1.391 . S
C229 N2 1.418 . S
C248 N25 1.388 . S
C265 C62 1.536 . S
C284 C30 1.534 . S
C301 C76 1.542 . S
C320 N58 1.490 . S
C337 C16 1.406 . S
C356 N127 1.398 . S
C373 N12 1.384 . S
C392 N104 1.390 . S
C409 C108 1.565 . S
C428 C53 1.571 . S
C445 N48 1.542 . S
C464 C131 1.578 . S
C481 C154 1.389 . S
C500 N117 1.337 . S
C517 N94 1.385 . S
C536 N150 1.356 . S
C553 C99 1.568 . S
C572 C168 1.565 . S
C589 C122 1.587 . S
C608 N163 1.531 . S
C625 C145 1.448 . S
C644 N81 1.430 . S
C661 N35 1.421 . S
C680 N140 1.434 . S
C697 C39 1.527 . S
C716 C177 1.514 . S
C733 C85 1.539 . S
C752 N173 1.477 . S
