# Generated by pormake.
# Topology uka, (4)-cn, num edge types: 1
# Building blocks:
#     Node 0, Type 0, BuildingBlock: CEKHIL_clean_sbu_0, # of connection points: 4
#     Node 1, Type 0, BuildingBlock: CEKHIL_clean_sbu_0, # of connection points: 4
#     Node 2, Type 0, BuildingBlock: CEKHIL_clean_sbu_0, # of connection points: 4
#     Node 3, Type 0, BuildingBlock: CEKHIL_clean_sbu_0, # of connection points: 4
#     Node 4, Type 0, BuildingBlock: CEKHIL_clean_sbu_0, # of connection points: 4
#     Node 5, Type 0, BuildingBlock: CEKHIL_clean_sbu_0, # of connection points: 4
#     Node 6, Type 0, BuildingBlock: CEKHIL_clean_sbu_0, # of connection points: 4
#     Node 7, Type 0, BuildingBlock: CEKHIL_clean_sbu_0, # of connection points: 4
#     Node 8, Type 0, BuildingBlock: CEKHIL_clean_sbu_0, # of connection points: 4
#     Node 9, Type 0, BuildingBlock: CEKHIL_clean_sbu_0, # of connection points: 4
#     Node 10, Type 0, BuildingBlock: CEKHIL_clean_sbu_0, # of connection points: 4
#     Node 11, Type 0, BuildingBlock: CEKHIL_clean_sbu_0, # of connection points: 4
#     Node 12, Type 0, BuildingBlock: CEKHIL_clean_sbu_0, # of connection points: 4
#     Node 13, Type 0, BuildingBlock: CEKHIL_clean_sbu_0, # of connection points: 4
#     Node 14, Type 0, BuildingBlock: CEKHIL_clean_sbu_0, # of connection points: 4
#     Node 15, Type 0, BuildingBlock: CEKHIL_clean_sbu_0, # of connection points: 4
#     Node 16, Type 0, BuildingBlock: CEKHIL_clean_sbu_0, # of connection points: 4
#     Node 17, Type 0, BuildingBlock: CEKHIL_clean_sbu_0, # of connection points: 4
#     Node 18, Type 0, BuildingBlock: CEKHIL_clean_sbu_0, # of connection points: 4
#     Node 19, Type 0, BuildingBlock: CEKHIL_clean_sbu_0, # of connection points: 4
#     Node 20, Type 0, BuildingBlock: CEKHIL_clean_sbu_0, # of connection points: 4
#     Node 21, Type 0, BuildingBlock: CEKHIL_clean_sbu_0, # of connection points: 4
#     Node 22, Type 0, BuildingBlock: CEKHIL_clean_sbu_0, # of connection points: 4
#     Node 23, Type 0, BuildingBlock: CEKHIL_clean_sbu_0, # of connection points: 4
#     Node 24, Type 0, BuildingBlock: CEKHIL_clean_sbu_0, # of connection points: 4
#     Node 25, Type 0, BuildingBlock: CEKHIL_clean_sbu_0, # of connection points: 4
#     Node 26, Type 0, BuildingBlock: CEKHIL_clean_sbu_0, # of connection points: 4
#     Node 27, Type 0, BuildingBlock: CEKHIL_clean_sbu_0, # of connection points: 4
#     Node 28, Type 0, BuildingBlock: CEKHIL_clean_sbu_0, # of connection points: 4
#     Node 29, Type 0, BuildingBlock: CEKHIL_clean_sbu_0, # of connection points: 4
#     Node 30, Type 0, BuildingBlock: CEKHIL_clean_sbu_0, # of connection points: 4
#     Node 31, Type 0, BuildingBlock: CEKHIL_clean_sbu_0, # of connection points: 4
#     Edge 32, Type (0, 0), BuildingBlock: AJUNOK_clean_linker_0, # of connection points: 2
#     Edge 33, Type (0, 0), BuildingBlock: AJUNOK_clean_linker_0, # of connection points: 2
#     Edge 34, Type (0, 0), BuildingBlock: AJUNOK_clean_linker_0, # of connection points: 2
#     Edge 35, Type (0, 0), BuildingBlock: AJUNOK_clean_linker_0, # of connection points: 2
#     Edge 36, Type (0, 0), BuildingBlock: AJUNOK_clean_linker_0, # of connection points: 2
#     Edge 37, Type (0, 0), BuildingBlock: AJUNOK_clean_linker_0, # of connection points: 2
#     Edge 38, Type (0, 0), BuildingBlock: AJUNOK_clean_linker_0, # of connection points: 2
#     Edge 39, Type (0, 0), BuildingBlock: AJUNOK_clean_linker_0, # of connection points: 2
#     Edge 40, Type (0, 0), BuildingBlock: AJUNOK_clean_linker_0, # of connection points: 2
#     Edge 41, Type (0, 0), BuildingBlock: AJUNOK_clean_linker_0, # of connection points: 2
#     Edge 42, Type (0, 0), BuildingBlock: AJUNOK_clean_linker_0, # of connection points: 2
#     Edge 43, Type (0, 0), BuildingBlock: AJUNOK_clean_linker_0, # of connection points: 2
#     Edge 44, Type (0, 0), BuildingBlock: AJUNOK_clean_linker_0, # of connection points: 2
#     Edge 45, Type (0, 0), BuildingBlock: AJUNOK_clean_linker_0, # of connection points: 2
#     Edge 46, Type (0, 0), BuildingBlock: AJUNOK_clean_linker_0, # of connection points: 2
#     Edge 47, Type (0, 0), BuildingBlock: AJUNOK_clean_linker_0, # of connection points: 2
#     Edge 48, Type (0, 0), BuildingBlock: AJUNOK_clean_linker_0, # of connection points: 2
#     Edge 49, Type (0, 0), BuildingBlock: AJUNOK_clean_linker_0, # of connection points: 2
#     Edge 50, Type (0, 0), BuildingBlock: AJUNOK_clean_linker_0, # of connection points: 2
#     Edge 51, Type (0, 0), BuildingBlock: AJUNOK_clean_linker_0, # of connection points: 2
#     Edge 52, Type (0, 0), BuildingBlock: AJUNOK_clean_linker_0, # of connection points: 2
#     Edge 53, Type (0, 0), BuildingBlock: AJUNOK_clean_linker_0, # of connection points: 2
#     Edge 54, Type (0, 0), BuildingBlock: AJUNOK_clean_linker_0, # of connection points: 2
#     Edge 55, Type (0, 0), BuildingBlock: AJUNOK_clean_linker_0, # of connection points: 2
#     Edge 56, Type (0, 0), BuildingBlock: AJUNOK_clean_linker_0, # of connection points: 2
#     Edge 57, Type (0, 0), BuildingBlock: AJUNOK_clean_linker_0, # of connection points: 2
#     Edge 58, Type (0, 0), BuildingBlock: AJUNOK_clean_linker_0, # of connection points: 2
#     Edge 59, Type (0, 0), BuildingBlock: AJUNOK_clean_linker_0, # of connection points: 2
#     Edge 60, Type (0, 0), BuildingBlock: AJUNOK_clean_linker_0, # of connection points: 2
#     Edge 61, Type (0, 0), BuildingBlock: AJUNOK_clean_linker_0, # of connection points: 2
#     Edge 62, Type (0, 0), BuildingBlock: AJUNOK_clean_linker_0, # of connection points: 2
#     Edge 63, Type (0, 0), BuildingBlock: AJUNOK_clean_linker_0, # of connection points: 2
#     Edge 64, Type (0, 0), BuildingBlock: AJUNOK_clean_linker_0, # of connection points: 2
#     Edge 65, Type (0, 0), BuildingBlock: AJUNOK_clean_linker_0, # of connection points: 2
#     Edge 66, Type (0, 0), BuildingBlock: AJUNOK_clean_linker_0, # of connection points: 2
#     Edge 67, Type (0, 0), BuildingBlock: AJUNOK_clean_linker_0, # of connection points: 2
#     Edge 68, Type (0, 0), BuildingBlock: AJUNOK_clean_linker_0, # of connection points: 2
#     Edge 69, Type (0, 0), BuildingBlock: AJUNOK_clean_linker_0, # of connection points: 2
#     Edge 70, Type (0, 0), BuildingBlock: AJUNOK_clean_linker_0, # of connection points: 2
#     Edge 71, Type (0, 0), BuildingBlock: AJUNOK_clean_linker_0, # of connection points: 2
#     Edge 72, Type (0, 0), BuildingBlock: AJUNOK_clean_linker_0, # of connection points: 2
#     Edge 73, Type (0, 0), BuildingBlock: AJUNOK_clean_linker_0, # of connection points: 2
#     Edge 74, Type (0, 0), BuildingBlock: AJUNOK_clean_linker_0, # of connection points: 2
#     Edge 75, Type (0, 0), BuildingBlock: AJUNOK_clean_linker_0, # of connection points: 2
#     Edge 76, Type (0, 0), BuildingBlock: AJUNOK_clean_linker_0, # of connection points: 2
#     Edge 77, Type (0, 0), BuildingBlock: AJUNOK_clean_linker_0, # of connection points: 2
#     Edge 78, Type (0, 0), BuildingBlock: AJUNOK_clean_linker_0, # of connection points: 2
#     Edge 79, Type (0, 0), BuildingBlock: AJUNOK_clean_linker_0, # of connection points: 2
#     Edge 80, Type (0, 0), BuildingBlock: AJUNOK_clean_linker_0, # of connection points: 2
#     Edge 81, Type (0, 0), BuildingBlock: AJUNOK_clean_linker_0, # of connection points: 2
#     Edge 82, Type (0, 0), BuildingBlock: AJUNOK_clean_linker_0, # of connection points: 2
#     Edge 83, Type (0, 0), BuildingBlock: AJUNOK_clean_linker_0, # of connection points: 2
#     Edge 84, Type (0, 0), BuildingBlock: AJUNOK_clean_linker_0, # of connection points: 2
#     Edge 85, Type (0, 0), BuildingBlock: AJUNOK_clean_linker_0, # of connection points: 2
#     Edge 86, Type (0, 0), BuildingBlock: AJUNOK_clean_linker_0, # of connection points: 2
#     Edge 87, Type (0, 0), BuildingBlock: AJUNOK_clean_linker_0, # of connection points: 2
#     Edge 88, Type (0, 0), BuildingBlock: AJUNOK_clean_linker_0, # of connection points: 2
#     Edge 89, Type (0, 0), BuildingBlock: AJUNOK_clean_linker_0, # of connection points: 2
#     Edge 90, Type (0, 0), BuildingBlock: AJUNOK_clean_linker_0, # of connection points: 2
#     Edge 91, Type (0, 0), BuildingBlock: AJUNOK_clean_linker_0, # of connection points: 2
#     Edge 92, Type (0, 0), BuildingBlock: AJUNOK_clean_linker_0, # of connection points: 2
#     Edge 93, Type (0, 0), BuildingBlock: AJUNOK_clean_linker_0, # of connection points: 2
#     Edge 94, Type (0, 0), BuildingBlock: AJUNOK_clean_linker_0, # of connection points: 2
#     Edge 95, Type (0, 0), BuildingBlock: AJUNOK_clean_linker_0, # of connection points: 2
# Relax obj value: 0.117
# Max RMSD: 0.170
# Mean RMSD: 0.170
data_MOF--net-uka--node1-CEKHIL_clean_sbu_0--edge1-AJUNOK_clean_linker_0
_symmetry_space_group_name_H-M    P1
_symmetry_Int_Tables_number       1
_symmetry_cell_setting            triclinic
loop_
_symmetry_equiv_pos_as_xyz
'x, y, z'
_cell_length_a     43.767855
_cell_length_b     43.769103
_cell_length_c     30.649631
_cell_angle_alpha  90.056278
_cell_angle_beta   89.97742
_cell_angle_gamma 90.025433
loop_
_atom_site_label
_atom_site_type_symbol
_atom_site_fract_x
_atom_site_fract_y
_atom_site_fract_z
_atom_type_partial_charge
Co0 Co 0.13171 0.26082 0.26807 0.0
O1 O 0.16222 0.2408 0.23299 0.0
O2 O 0.17033 0.2811 0.27517 0.0
C3 C 0.11213 0.21777 0.29774 0.0
O4 O 0.10756 0.28674 0.31082 0.0
Co5 Co 0.06176 0.24942 0.25935 0.0
O6 O 0.06076 0.26648 0.31916 0.0
C7 C 0.09293 0.2944 0.20175 0.0
C8 C 0.18154 0.25994 0.25008 0.0
C9 C 0.08213 0.2842 0.33135 0.0
O10 O 0.11937 0.28885 0.21853 0.0
O11 O 0.06833 0.28058 0.21272 0.0
O12 O 0.13709 0.22974 0.31293 0.0
O13 O 0.1015 0.23051 0.26293 0.0
Co14 Co 0.98884 0.88671 0.52151 0.0
O15 O 0.00859 0.91939 0.49012 0.0
O16 O 0.96736 0.9243 0.53137 0.0
C17 C 0.03198 0.86742 0.55115 0.0
O18 O 0.9629 0.86013 0.56119 0.0
Co19 Co 0.00234 0.81762 0.50775 0.0
O20 O 0.98371 0.81338 0.56627 0.0
C21 C 0.95717 0.84953 0.45133 0.0
C22 C 0.98882 0.93733 0.50879 0.0
C23 C 0.96526 0.83384 0.57938 0.0
O24 O 0.96187 0.87554 0.47005 0.0
O25 O 0.97148 0.82497 0.46097 0.0
O26 O 0.01886 0.8913 0.56782 0.0
O27 O 0.02021 0.85761 0.51511 0.0
Co28 Co 0.36909 0.7384 0.76428 0.0
O29 O 0.33893 0.75997 0.73056 0.0
O30 O 0.33021 0.71858 0.77018 0.0
C31 C 0.38937 0.78015 0.79666 0.0
O32 O 0.39261 0.71088 0.80561 0.0
Co33 Co 0.43913 0.74828 0.75612 0.0
O34 O 0.4397 0.73015 0.81517 0.0
C35 C 0.40713 0.7057 0.69601 0.0
C36 C 0.31932 0.74074 0.74671 0.0
C37 C 0.41795 0.71261 0.82647 0.0
O38 O 0.38086 0.71149 0.71317 0.0
O39 O 0.43208 0.71852 0.70777 0.0
O40 O 0.36411 0.7682 0.81085 0.0
O41 O 0.39996 0.76828 0.76113 0.0
Co42 Co 0.51054 0.11312 0.01836 0.0
O43 O 0.4882 0.08136 0.98918 0.0
O44 O 0.5307 0.07452 0.02713 0.0
C45 C 0.46989 0.13492 0.05123 0.0
O46 O 0.53872 0.13943 0.05517 0.0
Co47 Co 0.49827 0.18213 -0.00138 0.0
O48 O 0.52575 0.18911 0.04881 0.0
C49 C 0.53723 0.14568 0.93951 0.0
C50 C 0.50793 0.06256 0.00587 0.0
C51 C 0.54148 0.16771 0.06565 0.0
O52 O 0.53587 0.12203 0.96442 0.0
O53 O 0.5222 0.1703 0.94597 0.0
O54 O 0.48237 0.11054 0.06734 0.0
O55 O 0.4802 0.14332 0.01362 0.0
Co56 Co 0.13403 0.73529 0.22687 0.0
O57 O 0.1661 0.75414 0.26043 0.0
O58 O 0.17131 0.71303 0.2189 0.0
C59 C 0.11623 0.77893 0.19685 0.0
O60 O 0.10812 0.71007 0.18544 0.0
Co61 Co 0.06492 0.74968 0.23732 0.0
O62 O 0.06184 0.73159 0.17831 0.0
C63 C 0.09476 0.70368 0.29455 0.0
C64 C 0.18407 0.73388 0.24292 0.0
C65 C 0.08236 0.71295 0.16595 0.0
O66 O 0.12121 0.70828 0.27723 0.0
O67 O 0.07057 0.71826 0.28385 0.0
O68 O 0.14034 0.76555 0.18129 0.0
O69 O 0.10532 0.76709 0.2322 0.0
Co70 Co 0.51051 0.88283 0.47557 0.0
O71 O 0.49056 0.91507 0.50742 0.0
O72 O 0.53197 0.92057 0.46663 0.0
C73 C 0.46761 0.86338 0.44544 0.0
O74 O 0.53668 0.85643 0.43583 0.0
Co75 Co 0.49717 0.81367 0.4895 0.0
O76 O 0.51641 0.80934 0.43139 0.0
C77 C 0.54096 0.84624 0.5472 0.0
C78 C 0.51061 0.93322 0.48987 0.0
C79 C 0.53463 0.82994 0.41805 0.0
O80 O 0.53713 0.8718 0.52715 0.0
O81 O 0.5265 0.82164 0.53809 0.0
O82 O 0.48063 0.88742 0.42905 0.0
O83 O 0.47928 0.85359 0.48151 0.0
Co84 Co 0.36344 0.26091 0.72639 0.0
O85 O 0.33054 0.24088 0.757 0.0
O86 O 0.32603 0.28272 0.71704 0.0
C87 C 0.38279 0.21813 0.69552 0.0
O88 O 0.39024 0.28731 0.68759 0.0
Co89 Co 0.43234 0.24741 0.74069 0.0
O90 O 0.43699 0.26645 0.68257 0.0
C91 C 0.39982 0.29065 0.79916 0.0
C92 C 0.3128 0.26115 0.73912 0.0
C93 C 0.41661 0.28499 0.66957 0.0
O94 O 0.37429 0.28702 0.77881 0.0
O95 O 0.42441 0.27627 0.78987 0.0
O96 O 0.35897 0.23155 0.6792 0.0
O97 O 0.39251 0.22935 0.73198 0.0
Co98 Co 0.98818 0.11292 0.96997 0.0
O99 O 0.00915 0.08279 0.00432 0.0
O100 O 0.9686 0.07385 0.96306 0.0
C101 C 0.03064 0.1333 0.93956 0.0
O102 O 0.9614 0.13685 0.92811 0.0
Co103 Co 0.99857 0.18297 0.97915 0.0
O104 O 0.98123 0.18381 0.91962 0.0
C105 C 0.95401 0.15104 0.03658 0.0
C106 C 0.99036 0.06307 0.98741 0.0
C107 C 0.96336 0.16244 0.90786 0.0
O108 O 0.96029 0.12464 0.02011 0.0
O109 O 0.96729 0.17589 0.02545 0.0
O110 O 0.01892 0.1082 0.92441 0.0
O111 O 0.01805 0.1436 0.9747 0.0
Co112 Co 0.8623 0.73601 0.73018 0.0
O113 O 0.8297 0.75576 0.76135 0.0
O114 O 0.82474 0.7143 0.72048 0.0
C115 C 0.88167 0.77887 0.69986 0.0
O116 O 0.88933 0.71021 0.69085 0.0
Co117 Co 0.93107 0.75013 0.74664 0.0
O118 O 0.93605 0.73154 0.68819 0.0
C119 C 0.89814 0.70627 0.80355 0.0
C120 C 0.81177 0.73574 0.74324 0.0
C121 C 0.9159 0.71326 0.67366 0.0
O122 O 0.87302 0.70951 0.78214 0.0
O123 O 0.92267 0.72114 0.79548 0.0
O124 O 0.85779 0.76563 0.68342 0.0
O125 O 0.89119 0.7676 0.73639 0.0
Co126 Co 0.00479 0.11598 0.48356 0.0
O127 O 0.98647 0.08642 0.5216 0.0
O128 O 0.0307 0.08054 0.48757 0.0
C129 C 0.96251 0.12492 0.44343 0.0
O130 O 0.03007 0.14025 0.44012 0.0
Co131 Co 0.98075 0.18298 0.47659 0.0
O132 O 0.00438 0.1828 0.42142 0.0
C133 C 0.02667 0.16601 0.54448 0.0
C134 C 0.00891 0.06855 0.51083 0.0
C135 C 0.02615 0.16389 0.41595 0.0
O136 O 0.02661 0.13758 0.53317 0.0
O137 O 0.0093 0.18622 0.52723 0.0
O138 O 0.97935 0.10114 0.43592 0.0
O139 O 0.96976 0.14046 0.47769 0.0
Co140 Co 0.63876 0.26236 0.22649 0.0
O141 O 0.67078 0.24313 0.25929 0.0
O142 O 0.67561 0.28621 0.22213 0.0
C143 C 0.62333 0.21989 0.19109 0.0
O144 O 0.61203 0.28809 0.18665 0.0
Co145 Co 0.57032 0.2435 0.2347 0.0
O146 O 0.5675 0.26335 0.17683 0.0
C147 C 0.59728 0.28842 0.2966 0.0
C148 C 0.68855 0.26446 0.24429 0.0
C149 C 0.58672 0.28388 0.16626 0.0
O150 O 0.62396 0.2863 0.279 0.0
O151 O 0.574 0.2729 0.28443 0.0
O152 O 0.64715 0.23495 0.17801 0.0
O153 O 0.61165 0.22905 0.22754 0.0
Co154 Co 0.49193 0.88155 0.9875 0.0
O155 O 0.51094 0.91305 0.02202 0.0
O156 O 0.46889 0.91863 0.9826 0.0
C157 C 0.53494 0.86504 0.95427 0.0
O158 O 0.4665 0.85607 0.94566 0.0
Co159 Co 0.50789 0.8125 0.99539 0.0
O160 O 0.48852 0.81004 0.93718 0.0
C161 C 0.46228 0.84045 0.05495 0.0
C162 C 0.48995 0.93108 0.0066 0.0
C163 C 0.46963 0.83052 0.92556 0.0
O164 O 0.46602 0.86715 0.03815 0.0
O165 O 0.47723 0.8167 0.04329 0.0
O166 O 0.52105 0.88949 0.94097 0.0
O167 O 0.52431 0.85331 0.98989 0.0
Co168 Co 0.85969 0.26235 0.76358 0.0
O169 O 0.82872 0.24279 0.72923 0.0
O170 O 0.82102 0.28236 0.77291 0.0
C171 C 0.87933 0.21867 0.79093 0.0
O172 O 0.88511 0.28748 0.80611 0.0
Co173 Co 0.92922 0.25053 0.75042 0.0
O174 O 0.93188 0.26654 0.81066 0.0
C175 C 0.89664 0.29534 0.69445 0.0
C176 C 0.80954 0.26134 0.74775 0.0
C177 C 0.91119 0.28434 0.82487 0.0
O178 O 0.87098 0.29087 0.71409 0.0
O179 O 0.92127 0.28084 0.7031 0.0
O180 O 0.85494 0.23075 0.80769 0.0
O181 O 0.88948 0.23189 0.75616 0.0
Co182 Co 0.48773 0.11398 0.50906 0.0
O183 O 0.50838 0.08382 0.47428 0.0
O184 O 0.46743 0.07526 0.51493 0.0
C185 C 0.53017 0.13326 0.54073 0.0
O186 O 0.46125 0.13809 0.55133 0.0
Co187 Co 0.49955 0.18387 0.49983 0.0
O188 O 0.48077 0.18538 0.55848 0.0
C189 C 0.4554 0.15266 0.44128 0.0
C190 C 0.48914 0.0643 0.49056 0.0
C191 C 0.46321 0.16395 0.57094 0.0
O192 O 0.46038 0.12641 0.45888 0.0
O193 O 0.46934 0.17724 0.45198 0.0
O194 O 0.5179 0.10816 0.55484 0.0
O195 O 0.51827 0.14416 0.50544 0.0
Co196 Co 0.6368 0.73484 0.26125 0.0
O197 O 0.66732 0.75612 0.22799 0.0
O198 O 0.67559 0.71467 0.26761 0.0
C199 C 0.61702 0.77674 0.29382 0.0
O200 O 0.61224 0.70777 0.30212 0.0
Co201 Co 0.56701 0.74661 0.25038 0.0
O202 O 0.56514 0.72779 0.30897 0.0
C203 C 0.59914 0.70395 0.1906 0.0
C204 C 0.68675 0.73683 0.24432 0.0
C205 C 0.58633 0.71 0.32154 0.0
O206 O 0.62504 0.70831 0.20964 0.0
O207 O 0.57442 0.71772 0.20105 0.0
O208 O 0.64194 0.76432 0.30822 0.0
O209 O 0.60661 0.76535 0.25785 0.0
Co210 Co 0.01122 0.88239 0.01053 0.0
O211 O 0.99127 0.91331 0.97606 0.0
O212 O 0.03328 0.92012 0.0151 0.0
C213 C 0.96864 0.86495 0.04405 0.0
O214 O 0.03756 0.85783 0.05228 0.0
Co215 Co 0.99726 0.81295 0.00421 0.0
O216 O 0.01566 0.81206 0.06313 0.0
C217 C 0.04166 0.84155 0.94338 0.0
C218 C 0.01178 0.93197 0.99137 0.0
C219 C 0.03466 0.83278 0.07362 0.0
O220 O 0.03722 0.86835 0.95965 0.0
O221 O 0.02755 0.8175 0.95589 0.0
O222 O 0.98203 0.88976 0.05721 0.0
O223 O 0.97957 0.85325 0.00859 0.0
Co224 Co 0.63151 0.76052 0.75956 0.0
O225 O 0.66143 0.73983 0.72424 0.0
O226 O 0.67024 0.78068 0.76505 0.0
C227 C 0.61232 0.71797 0.79093 0.0
O228 O 0.60816 0.78714 0.80244 0.0
Co229 Co 0.56147 0.74974 0.75301 0.0
O230 O 0.56118 0.76763 0.81229 0.0
C231 C 0.59221 0.79363 0.69341 0.0
C232 C 0.68106 0.759 0.74053 0.0
C233 C 0.58291 0.78521 0.82357 0.0
O234 O 0.61875 0.78796 0.70968 0.0
O235 O 0.56758 0.78032 0.70546 0.0
O236 O 0.63751 0.73012 0.80496 0.0
O237 O 0.60101 0.73028 0.75619 0.0
Co238 Co 0.48671 0.38196 0.0108 0.0
O239 O 0.50724 0.41173 0.97513 0.0
O240 O 0.46653 0.4207 0.01612 0.0
C241 C 0.52949 0.36315 0.04206 0.0
O242 O 0.46031 0.35879 0.05405 0.0
Co243 Co 0.4977 0.31196 0.00517 0.0
O244 O 0.48072 0.31239 0.06502 0.0
C245 C 0.4534 0.342 0.94537 0.0
C246 C 0.48821 0.43143 0.99153 0.0
C247 C 0.46295 0.33402 0.07604 0.0
O248 O 0.45911 0.36874 0.96115 0.0
O249 O 0.46682 0.31754 0.95782 0.0
O250 O 0.51727 0.38832 0.05601 0.0
O251 O 0.51704 0.3516 0.00755 0.0
Co252 Co 0.86932 0.23628 0.25525 0.0
O253 O 0.83915 0.25946 0.22364 0.0
O254 O 0.82988 0.21773 0.26219 0.0
C255 C 0.89162 0.27658 0.28879 0.0
O256 O 0.89284 0.20743 0.29467 0.0
Co257 Co 0.93923 0.2445 0.24102 0.0
O258 O 0.94337 0.21685 0.29141 0.0
C259 C 0.90398 0.20429 0.18211 0.0
C260 C 0.81923 0.24062 0.23996 0.0
C261 C 0.92046 0.20269 0.30697 0.0
O262 O 0.87884 0.20968 0.20263 0.0
O263 O 0.92948 0.21701 0.19119 0.0
O264 O 0.86622 0.26512 0.30317 0.0
O265 O 0.90113 0.26548 0.25208 0.0
Co266 Co 0.01233 0.61471 0.51227 0.0
O267 O 0.98976 0.58474 0.47947 0.0
O268 O 0.0314 0.57542 0.51823 0.0
C269 C 0.97121 0.63575 0.54525 0.0
O270 O 0.0408 0.6383 0.55249 0.0
Co271 Co 0.00329 0.68475 0.50252 0.0
O272 O 0.02244 0.68588 0.56087 0.0
C273 C 0.04403 0.65135 0.44155 0.0
C274 C 0.00875 0.56483 0.49535 0.0
C275 C 0.0399 0.66414 0.57233 0.0
O276 O 0.0387 0.62552 0.46021 0.0
O277 O 0.03146 0.67656 0.45264 0.0
O278 O 0.9831 0.61055 0.55964 0.0
O279 O 0.98281 0.64597 0.50933 0.0
Co280 Co 0.62942 0.2359 0.73378 0.0
O281 O 0.66065 0.25466 0.76927 0.0
O282 O 0.66714 0.21444 0.72642 0.0
C283 C 0.61156 0.27972 0.70427 0.0
O284 O 0.60487 0.2111 0.69016 0.0
Co285 Co 0.55995 0.24878 0.74105 0.0
O286 O 0.55877 0.23253 0.68086 0.0
C287 C 0.58901 0.20165 0.79729 0.0
C288 C 0.67927 0.23526 0.75111 0.0
C289 C 0.57976 0.21424 0.66907 0.0
O290 O 0.6159 0.20757 0.78232 0.0
O291 O 0.56483 0.21593 0.78565 0.0
O292 O 0.63633 0.26702 0.68976 0.0
O293 O 0.60001 0.26722 0.73874 0.0
Co294 Co 0.00856 0.38272 0.9851 0.0
O295 O 0.98648 0.41304 0.01787 0.0
O296 O 0.02812 0.42182 0.97884 0.0
C297 C 0.96717 0.36216 0.95221 0.0
O298 O 0.03649 0.35858 0.94486 0.0
Co299 Co 0.99783 0.31275 -0.00299 0.0
O300 O 0.02179 0.30926 0.94264 0.0
C301 C 0.03986 0.34601 0.05636 0.0
C302 C 0.00565 0.43272 0.0018 0.0
C303 C 0.03798 0.33144 0.92908 0.0
O304 O 0.03502 0.37171 0.03706 0.0
O305 O 0.02646 0.32101 0.04629 0.0
O306 O 0.97935 0.38718 0.93772 0.0
O307 O 0.97851 0.35193 0.98828 0.0
Co308 Co 0.86725 0.76415 0.23664 0.0
O309 O 0.83535 0.7439 0.26902 0.0
O310 O 0.82927 0.78511 0.22813 0.0
C311 C 0.88678 0.72145 0.20573 0.0
O312 O 0.89276 0.79037 0.19591 0.0
Co313 Co 0.93653 0.75219 0.24927 0.0
O314 O 0.93972 0.77004 0.19021 0.0
C315 C 0.90433 0.79602 0.30705 0.0
C316 C 0.81688 0.76347 0.25103 0.0
C317 C 0.91878 0.78786 0.17696 0.0
O318 O 0.87854 0.79125 0.2879 0.0
O319 O 0.9291 0.78207 0.29736 0.0
O320 O 0.86231 0.73422 0.19039 0.0
O321 O 0.89703 0.7331 0.24167 0.0
Co322 Co 0.49118 0.61318 0.48304 0.0
O323 O 0.51217 0.5829 0.51723 0.0
O324 O 0.47081 0.57457 0.47735 0.0
C325 C 0.53355 0.63238 0.45092 0.0
O326 O 0.46411 0.63688 0.44138 0.0
Co327 Co 0.50231 0.6831 0.48989 0.0
O328 O 0.48408 0.68356 0.4309 0.0
C329 C 0.45861 0.65239 0.54986 0.0
C330 C 0.49281 0.56346 0.50092 0.0
C331 C 0.46596 0.66211 0.42028 0.0
O332 O 0.4643 0.62579 0.53372 0.0
O333 O 0.47186 0.677 0.53765 0.0
O334 O 0.52106 0.60737 0.43681 0.0
O335 O 0.52165 0.64354 0.48607 0.0
Co336 Co 0.36315 0.24097 0.23228 0.0
O337 O 0.33083 0.25967 0.26557 0.0
O338 O 0.32572 0.21906 0.22306 0.0
C339 C 0.38172 0.28468 0.2032 0.0
O340 O 0.38954 0.21602 0.19099 0.0
Co341 Co 0.43217 0.25481 0.24501 0.0
O342 O 0.43605 0.23738 0.18574 0.0
C343 C 0.40129 0.20846 0.30037 0.0
C344 C 0.31286 0.23974 0.24727 0.0
C345 C 0.41571 0.21884 0.17249 0.0
O346 O 0.37516 0.2133 0.28231 0.0
O347 O 0.4257 0.22311 0.29086 0.0
O348 O 0.35754 0.27165 0.18723 0.0
O349 O 0.39206 0.27261 0.23871 0.0
Co350 Co 0.51218 0.61204 0.9796 0.0
O351 O 0.49361 0.58006 0.01353 0.0
O352 O 0.53385 0.57449 0.97045 0.0
C353 C 0.4682 0.63032 0.95113 0.0
O354 O 0.5368 0.63794 0.93738 0.0
Co355 Co 0.49847 0.68121 0.99095 0.0
O356 O 0.51468 0.68398 0.93084 0.0
C357 C 0.5451 0.65091 0.04658 0.0
C358 C 0.51313 0.56186 0.99482 0.0
C359 C 0.53324 0.66359 0.91778 0.0
O360 O 0.54021 0.62455 0.02909 0.0
O361 O 0.53037 0.67517 0.03669 0.0
O362 O 0.48108 0.60608 0.93513 0.0
O363 O 0.48068 0.64098 0.98618 0.0
Co364 Co 0.13829 0.75958 0.73016 0.0
O365 O 0.17015 0.74013 0.76321 0.0
O366 O 0.17547 0.78247 0.72441 0.0
C367 C 0.12131 0.71662 0.6971 0.0
O368 O 0.11239 0.78561 0.68986 0.0
Co369 Co 0.06926 0.74362 0.73874 0.0
O370 O 0.06647 0.76355 0.68091 0.0
C371 C 0.09805 0.78803 0.79963 0.0
C372 C 0.18814 0.76104 0.74742 0.0
C373 C 0.08674 0.78292 0.66999 0.0
O374 O 0.12457 0.78494 0.78186 0.0
O375 O 0.07427 0.77307 0.78809 0.0
O376 O 0.14538 0.73074 0.6828 0.0
O377 O 0.11002 0.72727 0.73296 0.0
Co378 Co 0.98513 0.38407 0.48272 0.0
O379 O 0.00312 0.41619 0.51705 0.0
O380 O 0.96361 0.42165 0.47266 0.0
C381 C 0.02951 0.36564 0.45568 0.0
O382 O 0.96141 0.35767 0.43974 0.0
Co383 Co 0.99847 0.31514 0.49634 0.0
O384 O 0.98462 0.31203 0.43506 0.0
C385 C 0.9516 0.3462 0.55053 0.0
C386 C 0.98384 0.43433 0.49785 0.0
C387 C 0.96642 0.33213 0.42029 0.0
O388 O 0.95638 0.37207 0.53166 0.0
O389 O 0.96648 0.32177 0.54188 0.0
O390 O 0.01688 0.38982 0.43921 0.0
O391 O 0.01658 0.35521 0.49057 0.0
Co392 Co 0.36489 0.75424 0.26285 0.0
O393 O 0.33461 0.73389 0.22799 0.0
O394 O 0.32658 0.77531 0.26795 0.0
C395 C 0.38313 0.71159 0.29505 0.0
O396 O 0.38902 0.78076 0.30488 0.0
Co397 Co 0.43468 0.74116 0.25623 0.0
O398 O 0.4356 0.76035 0.3147 0.0
C399 C 0.4051 0.78539 0.19598 0.0
C400 C 0.31536 0.75361 0.24381 0.0
C401 C 0.41445 0.77877 0.32551 0.0
O402 O 0.3784 0.78091 0.21252 0.0
O403 O 0.42925 0.77123 0.20791 0.0
O404 O 0.35824 0.72441 0.30899 0.0
O405 O 0.3945 0.72326 0.25994 0.0
Co406 Co 0.98315 0.61358 0.01492 0.0
O407 O 0.00131 0.58152 0.98062 0.0
O408 O 0.96107 0.57614 0.0237 0.0
C409 C 0.02733 0.63123 0.04353 0.0
O410 O 0.95902 0.63983 0.05752 0.0
Co411 Co 0.99805 0.68259 0.00298 0.0
O412 O 0.98157 0.68583 0.06292 0.0
C413 C 0.95107 0.65274 0.94743 0.0
C414 C 0.9816 0.56342 -0.00096 0.0
C415 C 0.96315 0.66558 0.07677 0.0
O416 O 0.95526 0.62648 0.96549 0.0
O417 O 0.96636 0.67677 0.9569 0.0
O418 O 0.01415 0.60713 0.05937 0.0
O419 O 0.01505 0.64208 0.00847 0.0
Co420 Co 0.13224 0.24296 0.75735 0.0
O421 O 0.16308 0.264 0.72455 0.0
O422 O 0.16921 0.21909 0.75655 0.0
C423 C 0.11798 0.28346 0.79823 0.0
O424 O 0.10674 0.21522 0.79591 0.0
Co425 Co 0.06366 0.26286 0.75465 0.0
O426 O 0.06177 0.2385 0.80911 0.0
C427 C 0.08963 0.2245 0.68388 0.0
C428 C 0.18133 0.24199 0.73577 0.0
C429 C 0.08155 0.21791 0.81705 0.0
O430 O 0.11559 0.22196 0.70342 0.0
O431 O 0.06765 0.24131 0.69741 0.0
O432 O 0.14215 0.26783 0.8082 0.0
O433 O 0.10534 0.27615 0.76164 0.0
Co434 Co 0.51359 0.38268 0.51162 0.0
O435 O 0.49455 0.4148 0.47857 0.0
O436 O 0.53662 0.4197 0.51808 0.0
C437 C 0.47051 0.36584 0.54434 0.0
O438 O 0.53898 0.35661 0.55249 0.0
Co439 Co 0.49744 0.31379 0.50204 0.0
O440 O 0.51555 0.31135 0.56116 0.0
C441 C 0.54202 0.34258 0.44166 0.0
C442 C 0.51527 0.43264 0.49524 0.0
C443 C 0.53478 0.33146 0.57308 0.0
O444 O 0.53919 0.36893 0.46009 0.0
O445 O 0.52683 0.31882 0.45267 0.0
O446 O 0.48461 0.38993 0.55859 0.0
O447 O 0.48112 0.35457 0.50839 0.0
C448 C 0.04066 0.18057 0.34154 0.0
C449 C 0.04952 0.17166 0.38357 0.0
C450 C 0.06189 0.19298 0.31245 0.0
C451 C 0.09244 0.19807 0.32508 0.0
H452 H 0.01696 0.1788 0.33159 0.0
H453 H 0.05377 0.2002 0.28075 0.0
S454 S 0.12731 0.1758 0.43074 0.0
N455 N 0.09104 0.1659 0.43541 0.0
N456 N 0.13096 0.19038 0.38133 0.0
C457 C 0.1019 0.1875 0.36625 0.0
C458 C 0.08037 0.17411 0.39546 0.0
C459 C 0.05606 0.81688 0.56635 0.0
C460 C 0.05197 0.84778 0.57796 0.0
C461 C 0.06849 0.79597 0.59586 0.0
C462 C 0.07857 0.80558 0.637 0.0
H463 H 0.04803 0.80828 0.53532 0.0
H464 H 0.06944 0.77201 0.58697 0.0
S465 S 0.07821 0.8845 0.68053 0.0
N466 N 0.06231 0.88739 0.63184 0.0
N467 N 0.08711 0.84808 0.68643 0.0
C468 C 0.07738 0.83671 0.64756 0.0
C469 C 0.06385 0.8579 0.6181 0.0
C470 C 0.41761 0.8182 0.89962 0.0
C471 C 0.44856 0.82309 0.89024 0.0
C472 C 0.39801 0.8061 0.86798 0.0
C473 C 0.40874 0.79884 0.82589 0.0
H474 H 0.40893 0.82214 0.93227 0.0
H475 H 0.37468 0.80104 0.87733 0.0
S476 S 0.48724 0.81284 0.78397 0.0
N477 N 0.4887 0.82304 0.8358 0.0
N478 N 0.45163 0.8019 0.77513 0.0
C479 C 0.43921 0.80625 0.81529 0.0
C480 C 0.45927 0.81786 0.84791 0.0
C481 C 0.43738 0.20736 0.09958 0.0
C482 C 0.42444 0.19693 0.13866 0.0
C483 C 0.44998 0.18678 0.06963 0.0
C484 C 0.45114 0.15528 0.07872 0.0
H485 H 0.43843 0.23163 0.09268 0.0
H486 H 0.4602 0.19596 0.04034 0.0
S487 S 0.4182 0.11666 0.17566 0.0
N488 N 0.41126 0.15331 0.18377 0.0
N489 N 0.43607 0.11454 0.12828 0.0
C490 C 0.43697 0.14454 0.11693 0.0
C491 C 0.4234 0.16544 0.14681 0.0
C492 C 0.06642 0.80377 0.17952 0.0
C493 C 0.09747 0.79924 0.16921 0.0
C494 C 0.04621 0.81608 0.14893 0.0
C495 C 0.05669 0.82562 0.10796 0.0
H496 H 0.05712 0.79602 0.21028 0.0
H497 H 0.02207 0.81717 0.15676 0.0
S498 S 0.13646 0.82434 0.06783 0.0
N499 N 0.13825 0.8089 0.11692 0.0
N500 N 0.10023 0.83341 0.0602 0.0
C501 C 0.08802 0.82418 0.09879 0.0
C502 C 0.10851 0.81079 0.12938 0.0
C503 C 0.43149 0.79184 0.40021 0.0
C504 C 0.4215 0.80145 0.35905 0.0
C505 C 0.44371 0.81279 0.42992 0.0
C506 C 0.44768 0.84372 0.4185 0.0
H507 H 0.43081 0.76784 0.40886 0.0
H508 H 0.45178 0.80417 0.46089 0.0
S509 S 0.42142 0.88046 0.3161 0.0
N510 N 0.41278 0.84399 0.30989 0.0
N511 N 0.43717 0.88338 0.36489 0.0
C512 C 0.43577 0.85385 0.37842 0.0
C513 C 0.42245 0.83262 0.34875 0.0
C514 C 0.3914 0.1897 0.6262 0.0
C515 C 0.40188 0.19786 0.66808 0.0
C516 C 0.41102 0.17634 0.59563 0.0
C517 C 0.44173 0.17099 0.60592 0.0
H518 H 0.36833 0.19514 0.61605 0.0
H519 H 0.40265 0.17203 0.56292 0.0
S520 S 0.4795 0.18294 0.71247 0.0
N521 N 0.44405 0.19483 0.72001 0.0
N522 N 0.48127 0.17144 0.6612 0.0
C523 C 0.45207 0.17688 0.64826 0.0
C524 C 0.43196 0.18976 0.67984 0.0
C525 C 0.06848 0.1649 0.83836 0.0
C526 C 0.0741 0.19529 0.85041 0.0
C527 C 0.05627 0.14417 0.86847 0.0
C528 C 0.04968 0.15321 0.9116 0.0
H529 H 0.07189 0.15761 0.8049 0.0
H530 H 0.05054 0.12142 0.85718 0.0
S531 S 0.06593 0.22932 0.96027 0.0
N532 N 0.0756 0.23286 0.90845 0.0
N533 N 0.05428 0.19365 0.96607 0.0
C534 C 0.05792 0.18297 0.92475 0.0
C535 C 0.06962 0.20416 0.89377 0.0
C536 C 0.95297 0.8151 0.65363 0.0
C537 C 0.94299 0.82526 0.61272 0.0
C538 C 0.93229 0.80265 0.68356 0.0
C539 C 0.90128 0.79865 0.6726 0.0
H540 H 0.977 0.81608 0.66203 0.0
H541 H 0.94114 0.79455 0.71438 0.0
S542 S 0.86377 0.82465 0.57058 0.0
N543 N 0.90014 0.83356 0.564 0.0
N544 N 0.86126 0.80886 0.61938 0.0
C545 C 0.89086 0.81043 0.63258 0.0
C546 C 0.9118 0.82392 0.6027 0.0
C547 C 0.95675 0.13632 0.36468 0.0
C548 C 0.94594 0.13984 0.40762 0.0
C549 C 0.94739 0.15621 0.33166 0.0
C550 C 0.92627 0.17954 0.34028 0.0
H551 H 0.97432 0.1197 0.35716 0.0
H552 H 0.95755 0.15403 0.29955 0.0
S553 S 0.8885 0.19607 0.4457 0.0
N554 N 0.91138 0.16696 0.4562 0.0
N555 N 0.89283 0.20365 0.39326 0.0
C556 C 0.91351 0.18186 0.38207 0.0
C557 C 0.92359 0.1621 0.41602 0.0
C558 C 0.59034 0.19261 0.08438 0.0
C559 C 0.56448 0.17627 0.09786 0.0
C560 C 0.61068 0.20473 0.11499 0.0
C561 C 0.60533 0.20146 0.16006 0.0
H562 H 0.59432 0.19685 0.05 0.0
H563 H 0.62969 0.21824 0.10316 0.0
S564 S 0.54137 0.15883 0.2112 0.0
N565 N 0.5352 0.15568 0.15821 0.0
N566 N 0.57311 0.17897 0.21633 0.0
C567 C 0.58011 0.18395 0.17373 0.0
C568 C 0.55967 0.17126 0.14241 0.0
C569 C 0.55965 0.81582 0.93317 0.0
C570 C 0.55387 0.84682 0.92391 0.0
C571 C 0.57038 0.79598 0.90081 0.0
C572 C 0.577 0.80683 0.85889 0.0
H573 H 0.55407 0.80627 0.96472 0.0
H574 H 0.57254 0.77186 0.90816 0.0
S575 S 0.5711 0.88654 0.81976 0.0
N576 N 0.55904 0.8879 0.8708 0.0
N577 N 0.58047 0.85055 0.81063 0.0
C578 C 0.57416 0.8381 0.85023 0.0
C579 C 0.56245 0.8582 0.88273 0.0
C580 C 0.92966 0.19396 0.80489 0.0
C581 C 0.89875 0.19776 0.81655 0.0
C582 C 0.95048 0.18078 0.83384 0.0
C583 C 0.94076 0.16971 0.8744 0.0
H584 H 0.93837 0.20299 0.77449 0.0
H585 H 0.97451 0.18035 0.82525 0.0
S586 S 0.86173 0.16899 0.91745 0.0
N587 N 0.85895 0.18598 0.86951 0.0
N588 N 0.89814 0.15996 0.92312 0.0
C589 C 0.90958 0.17051 0.88474 0.0
C590 C 0.88847 0.18473 0.85585 0.0
C591 C 0.56319 0.20391 0.59319 0.0
C592 C 0.57289 0.19286 0.63375 0.0
C593 C 0.55214 0.18389 0.56129 0.0
C594 C 0.54907 0.15242 0.56986 0.0
H595 H 0.56337 0.22824 0.58658 0.0
H596 H 0.54429 0.19354 0.53083 0.0
S597 S 0.57474 0.11222 0.66992 0.0
N598 N 0.58206 0.14861 0.67955 0.0
N599 N 0.55995 0.1109 0.62038 0.0
C600 C 0.5606 0.14098 0.60945 0.0
C601 C 0.5727 0.1613 0.64137 0.0
C602 C 0.56657 0.79993 0.31246 0.0
C603 C 0.59767 0.79569 0.32266 0.0
C604 C 0.54623 0.81207 0.34315 0.0
C605 C 0.55662 0.82153 0.38422 0.0
H606 H 0.55742 0.79238 0.28149 0.0
H607 H 0.52215 0.81336 0.33515 0.0
S608 S 0.63607 0.81937 0.42529 0.0
N609 N 0.63812 0.8045 0.37582 0.0
N610 N 0.59984 0.8285 0.43269 0.0
C611 C 0.58784 0.81969 0.39377 0.0
C612 C 0.60846 0.80659 0.36305 0.0
C613 C 0.93277 0.83908 0.14973 0.0
C614 C 0.92601 0.8084 0.14098 0.0
C615 C 0.94458 0.85798 0.11704 0.0
C616 C 0.94979 0.84677 0.07457 0.0
H617 H 0.93044 0.84803 0.18255 0.0
H618 H 0.9511 0.88106 0.12581 0.0
S619 S 0.93049 0.76893 0.03446 0.0
N620 N 0.92208 0.76814 0.08697 0.0
N621 N 0.94282 0.80392 0.0245 0.0
C622 C 0.94049 0.81667 0.0648 0.0
C623 C 0.92909 0.79732 0.09841 0.0
C624 C 0.54257 0.68279 0.84298 0.0
C625 C 0.5542 0.67171 0.88248 0.0
C626 C 0.56208 0.69521 0.81151 0.0
C627 C 0.59364 0.69823 0.8195 0.0
H628 H 0.51816 0.68264 0.83694 0.0
H629 H 0.55197 0.70408 0.78192 0.0
S630 S 0.63529 0.66949 0.9166 0.0
N631 N 0.5991 0.6614 0.9265 0.0
N632 N 0.63586 0.68604 0.8682 0.0
C633 C 0.60566 0.68545 0.85793 0.0
C634 C 0.58585 0.67198 0.88937 0.0
C635 C 0.56708 0.29394 0.09196 0.0
C636 C 0.57781 0.30529 0.1319 0.0
C637 C 0.5538 0.31345 0.06128 0.0
C638 C 0.54969 0.34474 0.07034 0.0
H639 H 0.56816 0.26968 0.08498 0.0
H640 H 0.54522 0.3035 0.03137 0.0
S641 S 0.57695 0.3858 0.16896 0.0
N642 N 0.58641 0.34979 0.17756 0.0
N643 N 0.56033 0.38655 0.12059 0.0
C644 C 0.56205 0.35658 0.10923 0.0
C645 C 0.5763 0.33677 0.13996 0.0
C646 C 0.89763 0.30785 0.35598 0.0
C647 C 0.91067 0.29601 0.31747 0.0
C648 C 0.91572 0.32164 0.38805 0.0
C649 C 0.94746 0.32357 0.38294 0.0
H650 H 0.87341 0.30535 0.36232 0.0
H651 H 0.90504 0.32911 0.41813 0.0
S652 S 0.99252 0.30103 0.28595 0.0
N653 N 0.957 0.29153 0.27369 0.0
N654 N 0.9911 0.31589 0.33545 0.0
C655 C 0.96067 0.31372 0.34376 0.0
C656 C 0.94219 0.3004 0.3105 0.0
C657 C 0.92878 0.66181 0.64591 0.0
C658 C 0.92471 0.69305 0.63793 0.0
C659 C 0.94229 0.64299 0.61445 0.0
C660 C 0.95177 0.65479 0.57389 0.0
H661 H 0.92307 0.65226 0.67749 0.0
H662 H 0.94651 0.61932 0.62281 0.0
S663 S 0.94081 0.73459 0.53547 0.0
N664 N 0.92801 0.73471 0.58615 0.0
N665 N 0.95176 0.69913 0.52562 0.0
C666 C 0.94525 0.68563 0.56441 0.0
C667 C 0.93223 0.70488 0.59695 0.0
C668 C 0.58619 0.31954 0.60155 0.0
C669 C 0.55499 0.32402 0.60937 0.0
C670 C 0.60502 0.3073 0.63395 0.0
C671 C 0.59323 0.29952 0.67526 0.0
H672 H 0.59567 0.32376 0.56944 0.0
H673 H 0.62857 0.30238 0.62566 0.0
S674 S 0.51387 0.3135 0.71372 0.0
N675 N 0.5136 0.32382 0.66191 0.0
N676 N 0.54926 0.30254 0.72412 0.0
C677 C 0.56257 0.307 0.68459 0.0
C678 C 0.54329 0.31868 0.65114 0.0
C679 C 0.94621 0.31142 0.93002 0.0
C680 C 0.9474 0.34327 0.92395 0.0
C681 C 0.93297 0.29237 0.89859 0.0
C682 C 0.91942 0.30465 0.86103 0.0
H683 H 0.95707 0.30085 0.95783 0.0
H684 H 0.93424 0.26783 0.90295 0.0
S685 S 0.91237 0.38655 0.83271 0.0
N686 N 0.9312 0.38634 0.87941 0.0
N687 N 0.90527 0.35038 0.82115 0.0
C688 C 0.91812 0.33646 0.85626 0.0
C689 C 0.93232 0.35586 0.88763 0.0
C690 C 0.91195 0.67824 0.10538 0.0
C691 C 0.94319 0.67394 0.11304 0.0
C692 C 0.89338 0.69186 0.13702 0.0
C693 C 0.90542 0.70129 0.17749 0.0
H694 H 0.90222 0.67276 0.07381 0.0
H695 H 0.86974 0.69635 0.12877 0.0
S696 S 0.98523 0.68949 0.21534 0.0
N697 N 0.98506 0.67679 0.16459 0.0
N698 N 0.9499 0.70071 0.2255 0.0
C699 C 0.9362 0.69438 0.18678 0.0
C700 C 0.95524 0.68125 0.15402 0.0
C701 C 0.57406 0.65833 0.34874 0.0
C702 C 0.57934 0.6893 0.35745 0.0
C703 C 0.56112 0.63939 0.38051 0.0
C704 C 0.55331 0.65087 0.42201 0.0
H705 H 0.57817 0.64917 0.31639 0.0
H706 H 0.55573 0.61604 0.37162 0.0
S707 S 0.56822 0.72962 0.46233 0.0
N708 N 0.57929 0.73016 0.41083 0.0
N709 N 0.55647 0.69435 0.47176 0.0
C710 C 0.56126 0.68129 0.43211 0.0
C711 C 0.57379 0.70065 0.39937 0.0
C712 C 0.41052 0.32367 0.10168 0.0
C713 C 0.44146 0.32815 0.11146 0.0
C714 C 0.39056 0.31184 0.13304 0.0
C715 C 0.40094 0.30442 0.17522 0.0
H716 H 0.40217 0.32742 0.06883 0.0
H717 H 0.36732 0.3068 0.12324 0.0
S718 S 0.47894 0.31865 0.21867 0.0
N719 N 0.48104 0.32837 0.16671 0.0
N720 N 0.44318 0.308 0.22695 0.0
C721 C 0.43124 0.31205 0.18647 0.0
C722 C 0.4517 0.3233 0.1541 0.0
C723 C 0.44155 0.63973 0.88069 0.0
C724 C 0.44826 0.64946 0.92345 0.0
C725 C 0.42953 0.66 0.84994 0.0
C726 C 0.42406 0.69057 0.861 0.0
H727 H 0.44734 0.61685 0.87002 0.0
H728 H 0.42636 0.65224 0.81665 0.0
S729 S 0.43175 0.72619 0.96985 0.0
N730 N 0.44331 0.69059 0.97683 0.0
N731 N 0.4223 0.72901 0.91786 0.0
C732 C 0.42823 0.70008 0.90413 0.0
C733 C 0.43979 0.67932 0.93582 0.0
C734 C 0.07242 0.69018 0.67924 0.0
C735 C 0.10299 0.69672 0.66817 0.0
C736 C 0.05224 0.67797 0.64849 0.0
C737 C 0.06231 0.67064 0.6064 0.0
H738 H 0.06339 0.69627 0.71094 0.0
H739 H 0.02836 0.67534 0.6571 0.0
S740 S 0.14086 0.67812 0.56305 0.0
N741 N 0.143 0.69155 0.61335 0.0
N742 N 0.10501 0.66735 0.55618 0.0
C743 C 0.09326 0.67426 0.59603 0.0
C744 C 0.11372 0.68747 0.62691 0.0
C745 C 0.05765 0.3566 0.38631 0.0
C746 C 0.04988 0.3465 0.42851 0.0
C747 C 0.07026 0.33657 0.35565 0.0
C748 C 0.07528 0.30585 0.36619 0.0
H749 H 0.0523 0.37963 0.3759 0.0
H750 H 0.07424 0.34466 0.32272 0.0
S751 S 0.06477 0.2692 0.47373 0.0
N752 N 0.05327 0.30479 0.48105 0.0
N753 N 0.07541 0.26682 0.42215 0.0
C754 C 0.06998 0.29593 0.40886 0.0
C755 C 0.05783 0.31645 0.44051 0.0
C756 C 0.45348 0.67601 0.34421 0.0
C757 C 0.44354 0.66843 0.38623 0.0
C758 C 0.4329 0.68719 0.31326 0.0
C759 C 0.40205 0.69246 0.32409 0.0
H760 H 0.47746 0.67423 0.33573 0.0
H761 H 0.44178 0.69346 0.28155 0.0
S762 S 0.36457 0.67269 0.42901 0.0
N763 N 0.4008 0.66346 0.43616 0.0
N764 N 0.36207 0.68584 0.37863 0.0
C765 C 0.39155 0.68295 0.3653 0.0
C766 C 0.41241 0.67074 0.39637 0.0
C767 C 0.05239 0.68107 0.06045 0.0
C768 C 0.04776 0.65006 0.07095 0.0
C769 C 0.06478 0.70137 0.09095 0.0
C770 C 0.07429 0.69099 0.13195 0.0
H771 H 0.0447 0.69024 0.02961 0.0
H772 H 0.06608 0.72546 0.08296 0.0
S773 S 0.07249 0.61146 0.17276 0.0
N774 N 0.05712 0.60949 0.12362 0.0
N775 N 0.08175 0.64767 0.18011 0.0
C776 C 0.07261 0.65973 0.14139 0.0
C777 C 0.05917 0.63917 0.11092 0.0
C778 C 0.07304 0.31493 0.81982 0.0
C779 C 0.10098 0.30113 0.83138 0.0
C780 C 0.05321 0.32639 0.85169 0.0
C781 C 0.06093 0.32473 0.89594 0.0
H782 H 0.06568 0.31553 0.78609 0.0
H783 H 0.03118 0.33534 0.84187 0.0
S784 S 0.13223 0.29411 0.94358 0.0
N785 N 0.13621 0.28897 0.89048 0.0
N786 N 0.09866 0.31069 0.95016 0.0
C787 C 0.08938 0.31286 0.90796 0.0
C788 C 0.10961 0.30112 0.87565 0.0
C789 C 0.44426 0.31689 0.56279 0.0
C790 C 0.45101 0.34745 0.57371 0.0
C791 C 0.4321 0.29681 0.59375 0.0
C792 C 0.42511 0.30699 0.6359 0.0
H793 H 0.44997 0.30785 0.53095 0.0
H794 H 0.4289 0.27301 0.58506 0.0
S795 S 0.43394 0.38538 0.67937 0.0
N796 N 0.44691 0.38741 0.62884 0.0
N797 N 0.42283 0.34965 0.6863 0.0
C798 C 0.4293 0.33786 0.64632 0.0
C799 C 0.44241 0.35819 0.61526 0.0
C800 C 0.26622 0.26666 0.27421 0.0
C801 C 0.2792 0.24328 0.24877 0.0
C802 C 0.23478 0.27252 0.2732 0.0
C803 C 0.21498 0.25524 0.2467 0.0
H804 H 0.28045 0.28079 0.29495 0.0
H805 H 0.22593 0.29052 0.29393 0.0
S806 S 0.23747 0.19186 0.17278 0.0
N807 N 0.26978 0.20299 0.19555 0.0
N808 N 0.21072 0.21404 0.19371 0.0
C809 C 0.22764 0.23189 0.22083 0.0
C810 C 0.2597 0.22585 0.22192 0.0
C811 C 0.01775 0.98416 0.48667 0.0
C812 C 0.99338 0.97091 0.50992 0.0
C813 C 0.02389 0.01554 0.48941 0.0
C814 C 0.00591 0.03498 0.51551 0.0
H815 H 0.03218 0.97024 0.46595 0.0
H816 H 0.04225 0.02473 0.46967 0.0
S817 S 0.94093 0.01146 0.58577 0.0
N818 N 0.9522 0.97956 0.56196 0.0
N819 N 0.96382 0.03841 0.5671 0.0
C820 C 0.98209 0.02191 0.54002 0.0
C821 C 0.97575 0.98996 0.53714 0.0
C822 C 0.26583 0.72466 0.76282 0.0
C823 C 0.28597 0.74616 0.74443 0.0
C824 C 0.2344 0.73027 0.76522 0.0
C825 C 0.22176 0.75761 0.74929 0.0
H826 H 0.27437 0.7033 0.77579 0.0
H827 H 0.2199 0.71271 0.77903 0.0
S828 S 0.26463 0.82195 0.69937 0.0
N829 N 0.29105 0.7963 0.71088 0.0
N830 N 0.23194 0.80682 0.71533 0.0
C831 C 0.24163 0.77949 0.73115 0.0
C832 C 0.2737 0.77374 0.72862 0.0
C833 C 0.52555 0.00932 0.02112 0.0
C834 C 0.50279 0.02913 0.00538 0.0
C835 C 0.52066 0.97772 0.02331 0.0
C836 C 0.4928 0.96469 0.00991 0.0
H837 H 0.54743 0.01823 0.03165 0.0
H838 H 0.53922 0.96338 0.03455 0.0
S839 S 0.42485 0.00671 0.96943 0.0
N840 N 0.45064 0.03351 0.97838 0.0
N841 N 0.44152 0.97419 0.98257 0.0
C842 C 0.46955 0.98428 0.99516 0.0
C843 C 0.47454 0.01645 0.99278 0.0
C844 C 0.23057 0.76323 0.26452 0.0
C845 C 0.21771 0.73732 0.2445 0.0
C846 C 0.26203 0.76888 0.26264 0.0
C847 C 0.28194 0.74884 0.24069 0.0
H848 H 0.21624 0.77959 0.2814 0.0
H849 H 0.27079 0.78899 0.27904 0.0
S850 S 0.25985 0.67753 0.18292 0.0
N851 N 0.2274 0.69128 0.20204 0.0
N852 N 0.28648 0.70192 0.19845 0.0
C853 C 0.2694 0.72284 0.22041 0.0
C854 C 0.23733 0.71703 0.22245 0.0
C855 C 0.48025 0.97932 0.51036 0.0
C856 C 0.50661 0.96682 0.49107 0.0
C857 C 0.47426 0.01071 0.50857 0.0
C858 C 0.49438 0.03093 0.48741 0.0
H859 H 0.46383 0.96475 0.52667 0.0
H860 H 0.45381 0.01917 0.52439 0.0
S861 S 0.56685 0.00988 0.43185 0.0
N862 N 0.55316 0.97719 0.45019 0.0
N863 N 0.54192 0.03616 0.44679 0.0
C864 C 0.52084 0.01876 0.46785 0.0
C865 C 0.52698 0.98675 0.46978 0.0
C866 C 0.23424 0.22648 0.75691 0.0
C867 C 0.21491 0.24569 0.73259 0.0
C868 C 0.2657 0.23214 0.75979 0.0
C869 C 0.27914 0.25723 0.73844 0.0
H870 H 0.22495 0.2073 0.77486 0.0
H871 H 0.27957 0.21663 0.77889 0.0
S872 S 0.23879 0.31361 0.66853 0.0
N873 N 0.21168 0.29019 0.6853 0.0
N874 N 0.27068 0.3009 0.69074 0.0
C875 C 0.26013 0.27635 0.71337 0.0
C876 C 0.22811 0.27052 0.71035 0.0
C877 C 0.97488 0.00914 0.97206 0.0
C878 C 0.99599 0.02975 0.99034 0.0
C879 C 0.98073 0.97768 0.97096 0.0
C880 C 0.00799 0.96553 0.98802 0.0
H881 H 0.95361 0.01733 0.95832 0.0
H882 H 0.96345 0.96276 0.9573 0.0
S883 S 0.0715 0.00978 0.03775 0.0
N884 N 0.04576 0.03576 0.02479 0.0
N885 N 0.05678 0.97673 0.02259 0.0
C886 C 0.02952 0.9859 0.00585 0.0
C887 C 0.0235 0.01795 0.00715 0.0
C888 C 0.76554 0.76516 0.76543 0.0
C889 C 0.77821 0.74008 0.74316 0.0
C890 C 0.73433 0.77177 0.76279 0.0
C891 C 0.7144 0.75355 0.73783 0.0
H892 H 0.77984 0.78007 0.78492 0.0
H893 H 0.72574 0.7911 0.78117 0.0
S894 S 0.73609 0.68554 0.67229 0.0
N895 N 0.76842 0.69714 0.69454 0.0
N896 N 0.70969 0.70954 0.68972 0.0
C897 C 0.72675 0.72851 0.71504 0.0
C898 C 0.75862 0.72173 0.71776 0.0
C899 C 0.73473 0.23464 0.26541 0.0
C900 C 0.72221 0.26075 0.24554 0.0
C901 C 0.7659 0.22797 0.26222 0.0
C902 C 0.786 0.24714 0.23911 0.0
H903 H 0.72027 0.21878 0.28301 0.0
H904 H 0.77427 0.20761 0.27833 0.0
S905 S 0.76503 0.31885 0.1818 0.0
N906 N 0.73252 0.30625 0.20233 0.0
N907 N 0.79121 0.29376 0.19653 0.0
C908 C 0.77392 0.27355 0.21941 0.0
C909 C 0.74206 0.28039 0.22269 0.0
C910 C 0.72536 0.26371 0.77738 0.0
C911 C 0.71278 0.24019 0.75171 0.0
C912 C 0.75647 0.27118 0.77471 0.0
C913 C 0.77621 0.25552 0.74613 0.0
H914 H 0.71105 0.27668 0.79949 0.0
H915 H 0.76513 0.28911 0.79572 0.0
S916 S 0.75455 0.19273 0.67063 0.0
N917 N 0.72255 0.2016 0.69609 0.0
N918 N 0.78075 0.21584 0.69086 0.0
C919 C 0.76388 0.23214 0.71999 0.0
C920 C 0.73228 0.22437 0.72292 0.0
C921 C 0.77084 0.73358 0.27373 0.0
C922 C 0.78341 0.75821 0.25035 0.0
C923 C 0.73981 0.72606 0.27016 0.0
C924 C 0.72006 0.74285 0.24302 0.0
H925 H 0.7851 0.71977 0.29481 0.0
H926 H 0.7312 0.70723 0.2895 0.0
S927 S 0.74166 0.80883 0.17345 0.0
N928 N 0.77366 0.79902 0.19818 0.0
N929 N 0.71548 0.7848 0.19143 0.0
C930 C 0.73236 0.76735 0.21906 0.0
C931 C 0.76394 0.7751 0.22283 0.0
C932 C 0.47647 0.48475 0.01494 0.0
C933 C 0.49405 0.46473 0.98918 0.0
C934 C 0.48359 0.51586 0.01786 0.0
C935 C 0.50855 0.52832 0.99509 0.0
H936 H 0.45726 0.47631 0.03368 0.0
H937 H 0.46911 0.53027 0.03784 0.0
S938 S 0.56159 0.48583 0.92235 0.0
N939 N 0.53739 0.45969 0.93996 0.0
N940 N 0.55077 0.51817 0.94536 0.0
C941 C 0.52631 0.5086 0.96904 0.0
C942 C 0.519 0.47686 0.966 0.0
C943 C 0.01379 0.48022 0.52031 0.0
C944 C 0.9882 0.4679 0.4988 0.0
C945 C 0.02077 0.51137 0.51766 0.0
C946 C 0.0024 0.53159 0.49351 0.0
H947 H 0.02896 0.46564 0.53889 0.0
H948 H 0.04062 0.51964 0.53517 0.0
S949 S 0.93251 0.51106 0.43135 0.0
N950 N 0.94422 0.47848 0.45263 0.0
N951 N 0.95729 0.53707 0.44778 0.0
C952 C 0.97663 0.51966 0.47193 0.0
C953 C 0.96951 0.48786 0.47464 0.0
C954 C 0.01814 0.48612 0.9794 0.0
C955 C -0.00041 0.46602 0.00354 0.0
C956 C 0.01136 0.51733 0.97669 0.0
C957 C 0.98578 0.52981 -0.00193 0.0
H958 H 0.03796 0.47771 0.96197 0.0
H959 H 0.02666 0.53182 0.95815 0.0
S960 S 0.92973 0.48701 0.06552 0.0
N961 N 0.95438 0.46086 0.04921 0.0
N962 N 0.94166 0.51949 0.04415 0.0
C963 C 0.96693 0.50996 0.02221 0.0
C964 C 0.97386 0.47813 0.02503 0.0
C965 C 0.48543 0.47911 0.47524 0.0
C966 C 0.51142 0.46627 0.49497 0.0
C967 C 0.47903 0.51034 0.47889 0.0
C968 C 0.49837 0.53009 0.50237 0.0
H969 H 0.46954 0.4649 0.45726 0.0
H970 H 0.45886 0.51904 0.46263 0.0
S971 S 0.56954 0.50805 0.56025 0.0
N972 N 0.55678 0.47584 0.53894 0.0
N973 N 0.54473 0.53453 0.54574 0.0
C974 C 0.52448 0.51761 0.52232 0.0
C975 C 0.53106 0.48575 0.51852 0.0
C976 C 0.0863 0.32311 0.08806 0.0
C977 C 0.06188 0.34386 0.09235 0.0
C978 C 0.1001 0.31003 0.12488 0.0
C979 C 0.0895 0.31713 0.16686 0.0
H980 H 0.09262 0.31459 0.05608 0.0
H981 H 0.11649 0.29177 0.12025 0.0
S982 S 0.02987 0.37377 0.19554 0.0
N983 N 0.03078 0.37404 0.14163 0.0
N984 N 0.05638 0.3492 0.211 0.0
C985 C 0.06759 0.34039 0.17158 0.0
C986 C 0.05379 0.35388 0.13415 0.0
C987 C 0.89804 0.81006 0.38469 0.0
C988 C 0.90685 0.81855 0.34242 0.0
C989 C 0.9117 0.82374 0.4212 0.0
C990 C 0.93436 0.84638 0.4164 0.0
H991 H 0.88325 0.79049 0.38955 0.0
H992 H 0.90688 0.81433 0.45318 0.0
S993 S 0.96119 0.88002 0.31263 0.0
N994 N 0.93625 0.85365 0.29772 0.0
N995 N 0.96172 0.87953 0.36654 0.0
C996 C 0.94052 0.85755 0.37454 0.0
C997 C 0.9268 0.8435 0.33738 0.0
C998 C 0.43148 0.65993 0.6643 0.0
C999 C 0.40993 0.68364 0.66011 0.0
C1000 C 0.44446 0.64609 0.62742 0.0
C1001 C 0.43645 0.65594 0.58546 0.0
H1002 H 0.44055 0.65417 0.69615 0.0
H1003 H 0.46322 0.63024 0.63185 0.0
S1004 S 0.37754 0.71338 0.55717 0.0
N1005 N 0.37805 0.71316 0.61109 0.0
N1006 N 0.40278 0.68752 0.54156 0.0
C1007 C 0.41251 0.67712 0.58095 0.0
C1008 C 0.39907 0.69092 0.61846 0.0
C1009 C 0.55922 0.15779 0.82485 0.0
C1010 C 0.58442 0.1775 0.83005 0.0
C1011 C 0.54639 0.14262 0.86063 0.0
C1012 C 0.55846 0.14667 0.90258 0.0
H1013 H 0.54748 0.15652 0.79375 0.0
H1014 H 0.52491 0.13067 0.85626 0.0
S1015 S 0.62738 0.19127 0.93208 0.0
N1016 N 0.62362 0.19657 0.87896 0.0
N1017 N 0.59937 0.16804 0.9465 0.0
C1018 C 0.58585 0.16315 0.9072 0.0
C1019 C 0.59896 0.17862 0.87072 0.0
C1020 C 0.05418 0.64601 0.36283 0.0
C1021 C 0.06515 0.65326 0.40452 0.0
C1022 C 0.06683 0.65983 0.32577 0.0
C1023 C 0.09093 0.68101 0.32945 0.0
H1024 H 0.03361 0.63245 0.35921 0.0
H1025 H 0.05577 0.65622 0.29454 0.0
S1026 S 0.13097 0.70322 0.43086 0.0
N1027 N 0.10388 0.6795 0.44712 0.0
N1028 N 0.128 0.70512 0.37718 0.0
C1029 C 0.10444 0.68547 0.37036 0.0
C1030 C 0.09137 0.67165 0.40812 0.0
C1031 C 0.56589 0.83841 0.66211 0.0
C1032 C 0.58878 0.81598 0.65802 0.0
C1033 C 0.55313 0.85229 0.6252 0.0
C1034 C 0.56278 0.84386 0.58328 0.0
H1035 H 0.55575 0.84304 0.69371 0.0
H1036 H 0.53337 0.86692 0.62931 0.0
S1037 S 0.62514 0.79004 0.55555 0.0
N1038 N 0.62337 0.78918 0.6094 0.0
N1039 N 0.59901 0.81493 0.53978 0.0
C1040 C 0.5879 0.82408 0.57908 0.0
C1041 C 0.60109 0.81018 0.61666 0.0
C1042 C 0.39482 0.30188 0.87764 0.0
C1043 C 0.40224 0.31221 0.83568 0.0
C1044 C 0.40901 0.31459 0.91441 0.0
C1045 C 0.43082 0.33808 0.91024 0.0
H1046 H 0.38071 0.28173 0.88174 0.0
H1047 H 0.40508 0.30402 0.94589 0.0
S1048 S 0.45421 0.37612 0.80783 0.0
N1049 N 0.42967 0.34957 0.79223 0.0
N1050 N 0.45601 0.3738 0.86159 0.0
C1051 C 0.43565 0.35094 0.86898 0.0
C1052 C 0.42142 0.33782 0.83151 0.0
C1053 C 0.92546 0.15725 0.1503 0.0
C1054 C 0.90503 0.18197 0.14633 0.0
C1055 C 0.93828 0.14337 0.1133 0.0
C1056 C 0.93118 0.15415 0.07147 0.0
H1057 H 0.9341 0.15086 0.18214 0.0
H1058 H 0.95646 0.12686 0.1177 0.0
S1059 S 0.87468 0.21407 0.04362 0.0
N1060 N 0.87476 0.21325 0.09753 0.0
N1061 N 0.89898 0.18739 0.02781 0.0
C1062 C 0.90796 0.17616 0.06709 0.0
C1063 C 0.89479 0.19009 0.10471 0.0
C1064 C 0.93355 0.64543 0.87133 0.0
C1065 C 0.9278 0.65668 0.91339 0.0
C1066 C 0.92 0.65923 0.83483 0.0
C1067 C 0.90016 0.68434 0.83959 0.0
H1068 H 0.95114 0.62839 0.86621 0.0
H1069 H 0.92756 0.65235 0.80261 0.0
S1070 S 0.87405 0.71862 0.9434 0.0
N1071 N 0.89804 0.69142 0.95828 0.0
N1072 N 0.8724 0.71709 0.88957 0.0
C1073 C 0.89153 0.69328 0.88167 0.0
C1074 C 0.90545 0.67945 0.91873 0.0
C1075 C 0.07537 0.22234 0.60648 0.0
C1076 C 0.08307 0.2065 0.64456 0.0
C1077 C 0.05878 0.20814 0.5733 0.0
C1078 C 0.04884 0.1776 0.57708 0.0
H1079 H 0.08033 0.24653 0.60365 0.0
H1080 H 0.05232 0.2218 0.54536 0.0
S1081 S 0.06609 0.12532 0.66881 0.0
N1082 N 0.08207 0.15806 0.68312 0.0
N1083 N 0.0507 0.13108 0.62025 0.0
C1084 C 0.05852 0.16072 0.6135 0.0
C1085 C 0.07563 0.17531 0.64748 0.0
C1086 C 0.55549 0.34652 0.36345 0.0
C1087 C 0.56392 0.33816 0.40592 0.0
C1088 C 0.5692 0.33249 0.32724 0.0
C1089 C 0.5919 0.31001 0.33254 0.0
H1090 H 0.53621 0.3616 0.35824 0.0
H1091 H 0.5602 0.33736 0.29504 0.0
S1092 S 0.62441 0.28313 0.43701 0.0
N1093 N 0.5982 0.30838 0.45136 0.0
N1094 N 0.62431 0.28241 0.38309 0.0
C1095 C 0.60254 0.30372 0.37464 0.0
C1096 C 0.58839 0.31773 0.41149 0.0
C1097 C 0.41687 0.81329 0.08283 0.0
C1098 C 0.43951 0.83569 0.08943 0.0
C1099 C 0.40189 0.79964 0.11822 0.0
C1100 C 0.40949 0.80783 0.16108 0.0
H1101 H 0.41275 0.80432 0.05038 0.0
H1102 H 0.38689 0.78039 0.11217 0.0
S1103 S 0.46401 0.86805 0.19525 0.0
N1104 N 0.46603 0.868 0.1414 0.0
N1105 N 0.43826 0.84196 0.20818 0.0
C1106 C 0.42978 0.83229 0.16781 0.0
C1107 C 0.44477 0.84639 0.13179 0.0
C1108 C 0.90586 0.32046 0.58002 0.0
C1109 C 0.92824 0.34334 0.58476 0.0
C1110 C 0.89129 0.30781 0.61652 0.0
C1111 C 0.89899 0.31751 0.65873 0.0
H1112 H 0.9019 0.31014 0.54836 0.0
H1113 H 0.87681 0.28797 0.61197 0.0
S1114 S 0.95221 0.38008 0.68793 0.0
N1115 N 0.95409 0.37811 0.63414 0.0
N1116 N 0.92705 0.35396 0.70299 0.0
C1117 C 0.91863 0.34271 0.66345 0.0
C1118 C 0.93323 0.35578 0.62627 0.0
C1119 C 0.42692 0.16228 0.32816 0.0
C1120 C 0.40464 0.18509 0.33432 0.0
C1121 C 0.44066 0.14777 0.36386 0.0
C1122 C 0.4326 0.15594 0.40656 0.0
H1123 H 0.436 0.15795 0.29583 0.0
H1124 H 0.46001 0.13285 0.35809 0.0
S1125 S 0.37205 0.21037 0.43963 0.0
N1126 N 0.37216 0.21189 0.38575 0.0
N1127 N 0.39822 0.18485 0.45308 0.0
C1128 C 0.40794 0.17603 0.41288 0.0
C1129 C 0.39381 0.1906 0.37656 0.0
C1130 C 0.5623 0.64372 0.12279 0.0
C1131 C 0.56838 0.65464 0.08068 0.0
C1132 C 0.57603 0.65744 0.15923 0.0
C1133 C 0.59643 0.68211 0.15442 0.0
H1134 H 0.54435 0.62705 0.12795 0.0
H1135 H 0.56829 0.65082 0.19146 0.0
S1136 S 0.62361 0.71522 0.05045 0.0
N1137 N 0.59902 0.68848 0.03568 0.0
N1138 N 0.62507 0.71398 0.10431 0.0
C1139 C 0.60537 0.69065 0.11231 0.0
C1140 C 0.59122 0.67692 0.07529 0.0
C1141 C 0.1014 0.80129 0.87786 0.0
C1142 C 0.09346 0.8099 0.83532 0.0
C1143 C 0.08675 0.8146 0.91385 0.0
C1144 C 0.06403 0.83704 0.90822 0.0
H1145 H 0.11654 0.78207 0.88321 0.0
H1146 H 0.09124 0.80538 0.94603 0.0
S1147 S 0.03853 0.8703 0.80354 0.0
N1148 N 0.06417 0.84437 0.78955 0.0
N1149 N 0.037 0.86974 0.85741 0.0
C1150 C 0.05835 0.84808 0.86616 0.0
C1151 C 0.07301 0.83432 0.82953 0.0
loop_
_geom_bond_atom_site_label_1
_geom_bond_atom_site_label_2
_geom_bond_distance
_geom_bond_site_symmetry_2
_ccdc_geom_bond_type
Co0 O1 2.216 . S
Co0 O2 2.091 . S
Co0 O4 2.004 . S
Co0 O10 2.021 . S
Co0 O12 2.137 . S
Co0 O13 2.244 . S
O1 Co0 2.216 . S
O1 C8 1.247 . S
O2 Co0 2.091 . S
O2 C8 1.261 . S
C3 O12 1.247 . S
C3 O13 1.272 . S
O4 Co0 2.004 . S
O4 C9 1.259 . S
Co5 O6 2.061 . S
Co5 O11 2.052 . S
Co5 O13 2.135 . S
O6 Co5 2.061 . S
O6 C9 1.235 . S
C7 O10 1.238 . S
C7 O11 1.241 . S
C8 O1 1.247 . S
C8 O2 1.261 . S
C9 O4 1.259 . S
C9 O6 1.235 . S
O10 Co0 2.021 . S
O10 C7 1.238 . S
O11 Co5 2.052 . S
O11 C7 1.241 . S
O12 Co0 2.137 . S
O12 C3 1.247 . S
O13 Co0 2.244 . S
O13 C3 1.272 . S
O13 Co5 2.135 . S
Co14 O15 2.216 . S
Co14 O16 2.091 . S
Co14 O18 2.004 . S
Co14 O24 2.021 . S
Co14 O26 2.137 . S
Co14 O27 2.244 . S
O15 Co14 2.216 . S
O15 C22 1.247 . S
O16 Co14 2.091 . S
O16 C22 1.261 . S
C17 O26 1.247 . S
C17 O27 1.272 . S
O18 Co14 2.004 . S
O18 C23 1.259 . S
Co19 O20 2.061 . S
Co19 O25 2.052 . S
Co19 O27 2.135 . S
O20 Co19 2.061 . S
O20 C23 1.235 . S
C21 O24 1.238 . S
C21 O25 1.241 . S
C22 O15 1.247 . S
C22 O16 1.261 . S
C23 O18 1.259 . S
C23 O20 1.235 . S
O24 Co14 2.021 . S
O24 C21 1.238 . S
O25 Co19 2.052 . S
O25 C21 1.241 . S
O26 Co14 2.137 . S
O26 C17 1.247 . S
O27 Co14 2.244 . S
O27 C17 1.272 . S
O27 Co19 2.135 . S
Co28 O29 2.216 . S
Co28 O30 2.091 . S
Co28 O32 2.004 . S
Co28 O38 2.021 . S
Co28 O40 2.137 . S
Co28 O41 2.244 . S
O29 Co28 2.216 . S
O29 C36 1.247 . S
O30 Co28 2.091 . S
O30 C36 1.261 . S
C31 O40 1.247 . S
C31 O41 1.272 . S
O32 Co28 2.004 . S
O32 C37 1.259 . S
Co33 O34 2.061 . S
Co33 O39 2.052 . S
Co33 O41 2.135 . S
O34 Co33 2.061 . S
O34 C37 1.235 . S
C35 O38 1.238 . S
C35 O39 1.241 . S
C36 O29 1.247 . S
C36 O30 1.261 . S
C37 O32 1.259 . S
C37 O34 1.235 . S
O38 Co28 2.021 . S
O38 C35 1.238 . S
O39 Co33 2.052 . S
O39 C35 1.241 . S
O40 Co28 2.137 . S
O40 C31 1.247 . S
O41 Co28 2.244 . S
O41 C31 1.272 . S
O41 Co33 2.135 . S
Co42 O43 2.216 . S
Co42 O44 2.091 . S
Co42 O46 2.004 . S
Co42 O52 2.021 1_554 S
Co42 O54 2.137 . S
Co42 O55 2.244 . S
O43 Co42 2.216 . S
O43 C50 1.247 . S
O44 Co42 2.091 . S
O44 C50 1.261 . S
C45 O54 1.247 . S
C45 O55 1.272 . S
O46 Co42 2.004 . S
O46 C51 1.259 . S
Co47 O48 2.061 . S
Co47 O53 2.052 1_554 S
Co47 O55 2.135 . S
O48 Co47 2.061 . S
O48 C51 1.235 . S
C49 O52 1.238 . S
C49 O53 1.241 . S
C50 O43 1.247 . S
C50 O44 1.261 . S
C51 O46 1.259 . S
C51 O48 1.235 . S
O52 Co42 2.021 1_556 S
O52 C49 1.238 . S
O53 Co47 2.052 1_556 S
O53 C49 1.241 . S
O54 Co42 2.137 . S
O54 C45 1.247 . S
O55 Co42 2.244 . S
O55 C45 1.272 . S
O55 Co47 2.135 . S
Co56 O57 2.216 . S
Co56 O58 2.091 . S
Co56 O60 2.004 . S
Co56 O66 2.021 . S
Co56 O68 2.137 . S
Co56 O69 2.244 . S
O57 Co56 2.216 . S
O57 C64 1.247 . S
O58 Co56 2.091 . S
O58 C64 1.261 . S
C59 O68 1.247 . S
C59 O69 1.272 . S
O60 Co56 2.004 . S
O60 C65 1.259 . S
Co61 O62 2.061 . S
Co61 O67 2.052 . S
Co61 O69 2.135 . S
O62 Co61 2.061 . S
O62 C65 1.235 . S
C63 O66 1.238 . S
C63 O67 1.241 . S
C64 O57 1.247 . S
C64 O58 1.261 . S
C65 O60 1.259 . S
C65 O62 1.235 . S
O66 Co56 2.021 . S
O66 C63 1.238 . S
O67 Co61 2.052 . S
O67 C63 1.241 . S
O68 Co56 2.137 . S
O68 C59 1.247 . S
O69 Co56 2.244 . S
O69 C59 1.272 . S
O69 Co61 2.135 . S
Co70 O71 2.216 . S
Co70 O72 2.091 . S
Co70 O74 2.004 . S
Co70 O80 2.021 . S
Co70 O82 2.137 . S
Co70 O83 2.244 . S
O71 Co70 2.216 . S
O71 C78 1.247 . S
O72 Co70 2.091 . S
O72 C78 1.261 . S
C73 O82 1.247 . S
C73 O83 1.272 . S
O74 Co70 2.004 . S
O74 C79 1.259 . S
Co75 O76 2.061 . S
Co75 O81 2.052 . S
Co75 O83 2.135 . S
O76 Co75 2.061 . S
O76 C79 1.235 . S
C77 O80 1.238 . S
C77 O81 1.241 . S
C78 O71 1.247 . S
C78 O72 1.261 . S
C79 O74 1.259 . S
C79 O76 1.235 . S
O80 Co70 2.021 . S
O80 C77 1.238 . S
O81 Co75 2.052 . S
O81 C77 1.241 . S
O82 Co70 2.137 . S
O82 C73 1.247 . S
O83 Co70 2.244 . S
O83 C73 1.272 . S
O83 Co75 2.135 . S
Co84 O85 2.216 . S
Co84 O86 2.091 . S
Co84 O88 2.004 . S
Co84 O94 2.021 . S
Co84 O96 2.137 . S
Co84 O97 2.244 . S
O85 Co84 2.216 . S
O85 C92 1.247 . S
O86 Co84 2.091 . S
O86 C92 1.261 . S
C87 O96 1.247 . S
C87 O97 1.272 . S
O88 Co84 2.004 . S
O88 C93 1.259 . S
Co89 O90 2.061 . S
Co89 O95 2.052 . S
Co89 O97 2.135 . S
O90 Co89 2.061 . S
O90 C93 1.235 . S
C91 O94 1.238 . S
C91 O95 1.241 . S
C92 O85 1.247 . S
C92 O86 1.261 . S
C93 O88 1.259 . S
C93 O90 1.235 . S
O94 Co84 2.021 . S
O94 C91 1.238 . S
O95 Co89 2.052 . S
O95 C91 1.241 . S
O96 Co84 2.137 . S
O96 C87 1.247 . S
O97 Co84 2.244 . S
O97 C87 1.272 . S
O97 Co89 2.135 . S
Co98 O99 2.216 . S
Co98 O100 2.091 . S
Co98 O102 2.004 . S
Co98 O108 2.021 1_556 S
Co98 O110 2.137 . S
Co98 O111 2.244 . S
O99 Co98 2.216 . S
O99 C106 1.247 . S
O100 Co98 2.091 . S
O100 C106 1.261 . S
C101 O110 1.247 . S
C101 O111 1.272 . S
O102 Co98 2.004 . S
O102 C107 1.259 . S
Co103 O104 2.061 . S
Co103 O109 2.052 1_556 S
Co103 O111 2.135 . S
O104 Co103 2.061 . S
O104 C107 1.235 . S
C105 O108 1.238 . S
C105 O109 1.241 . S
C106 O99 1.247 . S
C106 O100 1.261 . S
C107 O102 1.259 . S
C107 O104 1.235 . S
O108 Co98 2.021 1_554 S
O108 C105 1.238 . S
O109 Co103 2.052 1_554 S
O109 C105 1.241 . S
O110 Co98 2.137 . S
O110 C101 1.247 . S
O111 Co98 2.244 . S
O111 C101 1.272 . S
O111 Co103 2.135 . S
Co112 O113 2.216 . S
Co112 O114 2.091 . S
Co112 O116 2.004 . S
Co112 O122 2.021 . S
Co112 O124 2.137 . S
Co112 O125 2.244 . S
O113 Co112 2.216 . S
O113 C120 1.247 . S
O114 Co112 2.091 . S
O114 C120 1.261 . S
C115 O124 1.247 . S
C115 O125 1.272 . S
O116 Co112 2.004 . S
O116 C121 1.259 . S
Co117 O118 2.061 . S
Co117 O123 2.052 . S
Co117 O125 2.135 . S
O118 Co117 2.061 . S
O118 C121 1.235 . S
C119 O122 1.238 . S
C119 O123 1.241 . S
C120 O113 1.247 . S
C120 O114 1.261 . S
C121 O116 1.259 . S
C121 O118 1.235 . S
O122 Co112 2.021 . S
O122 C119 1.238 . S
O123 Co117 2.052 . S
O123 C119 1.241 . S
O124 Co112 2.137 . S
O124 C115 1.247 . S
O125 Co112 2.244 . S
O125 C115 1.272 . S
O125 Co117 2.135 . S
Co126 O127 2.216 . S
Co126 O128 2.091 . S
Co126 O130 2.004 . S
Co126 O136 2.021 . S
Co126 O138 2.137 . S
Co126 O139 2.244 . S
O127 Co126 2.216 . S
O127 C134 1.247 . S
O128 Co126 2.091 . S
O128 C134 1.261 . S
C129 O138 1.247 . S
C129 O139 1.272 . S
O130 Co126 2.004 . S
O130 C135 1.259 . S
Co131 O132 2.061 . S
Co131 O137 2.052 . S
Co131 O139 2.135 . S
O132 Co131 2.061 . S
O132 C135 1.235 . S
C133 O136 1.238 . S
C133 O137 1.241 . S
C134 O127 1.247 . S
C134 O128 1.261 . S
C135 O130 1.259 . S
C135 O132 1.235 . S
O136 Co126 2.021 . S
O136 C133 1.238 . S
O137 Co131 2.052 . S
O137 C133 1.241 . S
O138 Co126 2.137 . S
O138 C129 1.247 . S
O139 Co126 2.244 . S
O139 C129 1.272 . S
O139 Co131 2.135 . S
Co140 O141 2.216 . S
Co140 O142 2.091 . S
Co140 O144 2.004 . S
Co140 O150 2.021 . S
Co140 O152 2.137 . S
Co140 O153 2.244 . S
O141 Co140 2.216 . S
O141 C148 1.247 . S
O142 Co140 2.091 . S
O142 C148 1.261 . S
C143 O152 1.247 . S
C143 O153 1.272 . S
O144 Co140 2.004 . S
O144 C149 1.259 . S
Co145 O146 2.061 . S
Co145 O151 2.052 . S
Co145 O153 2.135 . S
O146 Co145 2.061 . S
O146 C149 1.235 . S
C147 O150 1.238 . S
C147 O151 1.241 . S
C148 O141 1.247 . S
C148 O142 1.261 . S
C149 O144 1.259 . S
C149 O146 1.235 . S
O150 Co140 2.021 . S
O150 C147 1.238 . S
O151 Co145 2.052 . S
O151 C147 1.241 . S
O152 Co140 2.137 . S
O152 C143 1.247 . S
O153 Co140 2.244 . S
O153 C143 1.272 . S
O153 Co145 2.135 . S
Co154 O155 2.216 . S
Co154 O156 2.091 . S
Co154 O158 2.004 . S
Co154 O164 2.021 1_556 S
Co154 O166 2.137 . S
Co154 O167 2.244 . S
O155 Co154 2.216 . S
O155 C162 1.247 . S
O156 Co154 2.091 . S
O156 C162 1.261 . S
C157 O166 1.247 . S
C157 O167 1.272 . S
O158 Co154 2.004 . S
O158 C163 1.259 . S
Co159 O160 2.061 . S
Co159 O165 2.052 1_556 S
Co159 O167 2.135 . S
O160 Co159 2.061 . S
O160 C163 1.235 . S
C161 O164 1.238 . S
C161 O165 1.241 . S
C162 O155 1.247 . S
C162 O156 1.261 . S
C163 O158 1.259 . S
C163 O160 1.235 . S
O164 Co154 2.021 1_554 S
O164 C161 1.238 . S
O165 Co159 2.052 1_554 S
O165 C161 1.241 . S
O166 Co154 2.137 . S
O166 C157 1.247 . S
O167 Co154 2.244 . S
O167 C157 1.272 . S
O167 Co159 2.135 . S
Co168 O169 2.216 . S
Co168 O170 2.091 . S
Co168 O172 2.004 . S
Co168 O178 2.021 . S
Co168 O180 2.137 . S
Co168 O181 2.244 . S
O169 Co168 2.216 . S
O169 C176 1.247 . S
O170 Co168 2.091 . S
O170 C176 1.261 . S
C171 O180 1.247 . S
C171 O181 1.272 . S
O172 Co168 2.004 . S
O172 C177 1.259 . S
Co173 O174 2.061 . S
Co173 O179 2.052 . S
Co173 O181 2.135 . S
O174 Co173 2.061 . S
O174 C177 1.235 . S
C175 O178 1.238 . S
C175 O179 1.241 . S
C176 O169 1.247 . S
C176 O170 1.261 . S
C177 O172 1.259 . S
C177 O174 1.235 . S
O178 Co168 2.021 . S
O178 C175 1.238 . S
O179 Co173 2.052 . S
O179 C175 1.241 . S
O180 Co168 2.137 . S
O180 C171 1.247 . S
O181 Co168 2.244 . S
O181 C171 1.272 . S
O181 Co173 2.135 . S
Co182 O183 2.216 . S
Co182 O184 2.091 . S
Co182 O186 2.004 . S
Co182 O192 2.021 . S
Co182 O194 2.137 . S
Co182 O195 2.244 . S
O183 Co182 2.216 . S
O183 C190 1.247 . S
O184 Co182 2.091 . S
O184 C190 1.261 . S
C185 O194 1.247 . S
C185 O195 1.272 . S
O186 Co182 2.004 . S
O186 C191 1.259 . S
Co187 O188 2.061 . S
Co187 O193 2.052 . S
Co187 O195 2.135 . S
O188 Co187 2.061 . S
O188 C191 1.235 . S
C189 O192 1.238 . S
C189 O193 1.241 . S
C190 O183 1.247 . S
C190 O184 1.261 . S
C191 O186 1.259 . S
C191 O188 1.235 . S
O192 Co182 2.021 . S
O192 C189 1.238 . S
O193 Co187 2.052 . S
O193 C189 1.241 . S
O194 Co182 2.137 . S
O194 C185 1.247 . S
O195 Co182 2.244 . S
O195 C185 1.272 . S
O195 Co187 2.135 . S
Co196 O197 2.216 . S
Co196 O198 2.091 . S
Co196 O200 2.004 . S
Co196 O206 2.021 . S
Co196 O208 2.137 . S
Co196 O209 2.244 . S
O197 Co196 2.216 . S
O197 C204 1.247 . S
O198 Co196 2.091 . S
O198 C204 1.261 . S
C199 O208 1.247 . S
C199 O209 1.272 . S
O200 Co196 2.004 . S
O200 C205 1.259 . S
Co201 O202 2.061 . S
Co201 O207 2.052 . S
Co201 O209 2.135 . S
O202 Co201 2.061 . S
O202 C205 1.235 . S
C203 O206 1.238 . S
C203 O207 1.241 . S
C204 O197 1.247 . S
C204 O198 1.261 . S
C205 O200 1.259 . S
C205 O202 1.235 . S
O206 Co196 2.021 . S
O206 C203 1.238 . S
O207 Co201 2.052 . S
O207 C203 1.241 . S
O208 Co196 2.137 . S
O208 C199 1.247 . S
O209 Co196 2.244 . S
O209 C199 1.272 . S
O209 Co201 2.135 . S
Co210 O211 2.216 . S
Co210 O212 2.091 . S
Co210 O214 2.004 . S
Co210 O220 2.021 1_554 S
Co210 O222 2.137 . S
Co210 O223 2.244 . S
O211 Co210 2.216 . S
O211 C218 1.247 . S
O212 Co210 2.091 . S
O212 C218 1.261 . S
C213 O222 1.247 . S
C213 O223 1.272 . S
O214 Co210 2.004 . S
O214 C219 1.259 . S
Co215 O216 2.061 . S
Co215 O221 2.052 1_554 S
Co215 O223 2.135 . S
O216 Co215 2.061 . S
O216 C219 1.235 . S
C217 O220 1.238 . S
C217 O221 1.241 . S
C218 O211 1.247 . S
C218 O212 1.261 . S
C219 O214 1.259 . S
C219 O216 1.235 . S
O220 Co210 2.021 1_556 S
O220 C217 1.238 . S
O221 Co215 2.052 1_556 S
O221 C217 1.241 . S
O222 Co210 2.137 . S
O222 C213 1.247 . S
O223 Co210 2.244 . S
O223 C213 1.272 . S
O223 Co215 2.135 . S
Co224 O225 2.216 . S
Co224 O226 2.091 . S
Co224 O228 2.004 . S
Co224 O234 2.021 . S
Co224 O236 2.137 . S
Co224 O237 2.244 . S
O225 Co224 2.216 . S
O225 C232 1.247 . S
O226 Co224 2.091 . S
O226 C232 1.261 . S
C227 O236 1.247 . S
C227 O237 1.272 . S
O228 Co224 2.004 . S
O228 C233 1.259 . S
Co229 O230 2.061 . S
Co229 O235 2.052 . S
Co229 O237 2.135 . S
O230 Co229 2.061 . S
O230 C233 1.235 . S
C231 O234 1.238 . S
C231 O235 1.241 . S
C232 O225 1.247 . S
C232 O226 1.261 . S
C233 O228 1.259 . S
C233 O230 1.235 . S
O234 Co224 2.021 . S
O234 C231 1.238 . S
O235 Co229 2.052 . S
O235 C231 1.241 . S
O236 Co224 2.137 . S
O236 C227 1.247 . S
O237 Co224 2.244 . S
O237 C227 1.272 . S
O237 Co229 2.135 . S
Co238 O239 2.216 . S
Co238 O240 2.091 . S
Co238 O242 2.004 . S
Co238 O248 2.021 1_554 S
Co238 O250 2.137 . S
Co238 O251 2.244 . S
O239 Co238 2.216 . S
O239 C246 1.247 . S
O240 Co238 2.091 . S
O240 C246 1.261 . S
C241 O250 1.247 . S
C241 O251 1.272 . S
O242 Co238 2.004 . S
O242 C247 1.259 . S
Co243 O244 2.061 . S
Co243 O249 2.052 1_554 S
Co243 O251 2.135 . S
O244 Co243 2.061 . S
O244 C247 1.235 . S
C245 O248 1.238 . S
C245 O249 1.241 . S
C246 O239 1.247 . S
C246 O240 1.261 . S
C247 O242 1.259 . S
C247 O244 1.235 . S
O248 Co238 2.021 1_556 S
O248 C245 1.238 . S
O249 Co243 2.052 1_556 S
O249 C245 1.241 . S
O250 Co238 2.137 . S
O250 C241 1.247 . S
O251 Co238 2.244 . S
O251 C241 1.272 . S
O251 Co243 2.135 . S
Co252 O253 2.216 . S
Co252 O254 2.091 . S
Co252 O256 2.004 . S
Co252 O262 2.021 . S
Co252 O264 2.137 . S
Co252 O265 2.244 . S
O253 Co252 2.216 . S
O253 C260 1.247 . S
O254 Co252 2.091 . S
O254 C260 1.261 . S
C255 O264 1.247 . S
C255 O265 1.272 . S
O256 Co252 2.004 . S
O256 C261 1.259 . S
Co257 O258 2.061 . S
Co257 O263 2.052 . S
Co257 O265 2.135 . S
O258 Co257 2.061 . S
O258 C261 1.235 . S
C259 O262 1.238 . S
C259 O263 1.241 . S
C260 O253 1.247 . S
C260 O254 1.261 . S
C261 O256 1.259 . S
C261 O258 1.235 . S
O262 Co252 2.021 . S
O262 C259 1.238 . S
O263 Co257 2.052 . S
O263 C259 1.241 . S
O264 Co252 2.137 . S
O264 C255 1.247 . S
O265 Co252 2.244 . S
O265 C255 1.272 . S
O265 Co257 2.135 . S
Co266 O267 2.216 . S
Co266 O268 2.091 . S
Co266 O270 2.004 . S
Co266 O276 2.021 . S
Co266 O278 2.137 . S
Co266 O279 2.244 . S
O267 Co266 2.216 . S
O267 C274 1.247 . S
O268 Co266 2.091 . S
O268 C274 1.261 . S
C269 O278 1.247 . S
C269 O279 1.272 . S
O270 Co266 2.004 . S
O270 C275 1.259 . S
Co271 O272 2.061 . S
Co271 O277 2.052 . S
Co271 O279 2.135 . S
O272 Co271 2.061 . S
O272 C275 1.235 . S
C273 O276 1.238 . S
C273 O277 1.241 . S
C274 O267 1.247 . S
C274 O268 1.261 . S
C275 O270 1.259 . S
C275 O272 1.235 . S
O276 Co266 2.021 . S
O276 C273 1.238 . S
O277 Co271 2.052 . S
O277 C273 1.241 . S
O278 Co266 2.137 . S
O278 C269 1.247 . S
O279 Co266 2.244 . S
O279 C269 1.272 . S
O279 Co271 2.135 . S
Co280 O281 2.216 . S
Co280 O282 2.091 . S
Co280 O284 2.004 . S
Co280 O290 2.021 . S
Co280 O292 2.137 . S
Co280 O293 2.244 . S
O281 Co280 2.216 . S
O281 C288 1.247 . S
O282 Co280 2.091 . S
O282 C288 1.261 . S
C283 O292 1.247 . S
C283 O293 1.272 . S
O284 Co280 2.004 . S
O284 C289 1.259 . S
Co285 O286 2.061 . S
Co285 O291 2.052 . S
Co285 O293 2.135 . S
O286 Co285 2.061 . S
O286 C289 1.235 . S
C287 O290 1.238 . S
C287 O291 1.241 . S
C288 O281 1.247 . S
C288 O282 1.261 . S
C289 O284 1.259 . S
C289 O286 1.235 . S
O290 Co280 2.021 . S
O290 C287 1.238 . S
O291 Co285 2.052 . S
O291 C287 1.241 . S
O292 Co280 2.137 . S
O292 C283 1.247 . S
O293 Co280 2.244 . S
O293 C283 1.272 . S
O293 Co285 2.135 . S
Co294 O295 2.216 . S
Co294 O296 2.091 . S
Co294 O298 2.004 . S
Co294 O304 2.021 1_556 S
Co294 O306 2.137 . S
Co294 O307 2.244 . S
O295 Co294 2.216 . S
O295 C302 1.247 . S
O296 Co294 2.091 . S
O296 C302 1.261 . S
C297 O306 1.247 . S
C297 O307 1.272 . S
O298 Co294 2.004 . S
O298 C303 1.259 . S
Co299 O300 2.061 . S
Co299 O305 2.052 1_556 S
Co299 O307 2.135 . S
O300 Co299 2.061 . S
O300 C303 1.235 . S
C301 O304 1.238 . S
C301 O305 1.241 . S
C302 O295 1.247 . S
C302 O296 1.261 . S
C303 O298 1.259 . S
C303 O300 1.235 . S
O304 Co294 2.021 1_554 S
O304 C301 1.238 . S
O305 Co299 2.052 1_554 S
O305 C301 1.241 . S
O306 Co294 2.137 . S
O306 C297 1.247 . S
O307 Co294 2.244 . S
O307 C297 1.272 . S
O307 Co299 2.135 . S
Co308 O309 2.216 . S
Co308 O310 2.091 . S
Co308 O312 2.004 . S
Co308 O318 2.021 . S
Co308 O320 2.137 . S
Co308 O321 2.244 . S
O309 Co308 2.216 . S
O309 C316 1.247 . S
O310 Co308 2.091 . S
O310 C316 1.261 . S
C311 O320 1.247 . S
C311 O321 1.272 . S
O312 Co308 2.004 . S
O312 C317 1.259 . S
Co313 O314 2.061 . S
Co313 O319 2.052 . S
Co313 O321 2.135 . S
O314 Co313 2.061 . S
O314 C317 1.235 . S
C315 O318 1.238 . S
C315 O319 1.241 . S
C316 O309 1.247 . S
C316 O310 1.261 . S
C317 O312 1.259 . S
C317 O314 1.235 . S
O318 Co308 2.021 . S
O318 C315 1.238 . S
O319 Co313 2.052 . S
O319 C315 1.241 . S
O320 Co308 2.137 . S
O320 C311 1.247 . S
O321 Co308 2.244 . S
O321 C311 1.272 . S
O321 Co313 2.135 . S
Co322 O323 2.216 . S
Co322 O324 2.091 . S
Co322 O326 2.004 . S
Co322 O332 2.021 . S
Co322 O334 2.137 . S
Co322 O335 2.244 . S
O323 Co322 2.216 . S
O323 C330 1.247 . S
O324 Co322 2.091 . S
O324 C330 1.261 . S
C325 O334 1.247 . S
C325 O335 1.272 . S
O326 Co322 2.004 . S
O326 C331 1.259 . S
Co327 O328 2.061 . S
Co327 O333 2.052 . S
Co327 O335 2.135 . S
O328 Co327 2.061 . S
O328 C331 1.235 . S
C329 O332 1.238 . S
C329 O333 1.241 . S
C330 O323 1.247 . S
C330 O324 1.261 . S
C331 O326 1.259 . S
C331 O328 1.235 . S
O332 Co322 2.021 . S
O332 C329 1.238 . S
O333 Co327 2.052 . S
O333 C329 1.241 . S
O334 Co322 2.137 . S
O334 C325 1.247 . S
O335 Co322 2.244 . S
O335 C325 1.272 . S
O335 Co327 2.135 . S
Co336 O337 2.216 . S
Co336 O338 2.091 . S
Co336 O340 2.004 . S
Co336 O346 2.021 . S
Co336 O348 2.137 . S
Co336 O349 2.244 . S
O337 Co336 2.216 . S
O337 C344 1.247 . S
O338 Co336 2.091 . S
O338 C344 1.261 . S
C339 O348 1.247 . S
C339 O349 1.272 . S
O340 Co336 2.004 . S
O340 C345 1.259 . S
Co341 O342 2.061 . S
Co341 O347 2.052 . S
Co341 O349 2.135 . S
O342 Co341 2.061 . S
O342 C345 1.235 . S
C343 O346 1.238 . S
C343 O347 1.241 . S
C344 O337 1.247 . S
C344 O338 1.261 . S
C345 O340 1.259 . S
C345 O342 1.235 . S
O346 Co336 2.021 . S
O346 C343 1.238 . S
O347 Co341 2.052 . S
O347 C343 1.241 . S
O348 Co336 2.137 . S
O348 C339 1.247 . S
O349 Co336 2.244 . S
O349 C339 1.272 . S
O349 Co341 2.135 . S
Co350 O351 2.216 . S
Co350 O352 2.091 . S
Co350 O354 2.004 . S
Co350 O360 2.021 1_556 S
Co350 O362 2.137 . S
Co350 O363 2.244 . S
O351 Co350 2.216 . S
O351 C358 1.247 . S
O352 Co350 2.091 . S
O352 C358 1.261 . S
C353 O362 1.247 . S
C353 O363 1.272 . S
O354 Co350 2.004 . S
O354 C359 1.259 . S
Co355 O356 2.061 . S
Co355 O361 2.052 1_556 S
Co355 O363 2.135 . S
O356 Co355 2.061 . S
O356 C359 1.235 . S
C357 O360 1.238 . S
C357 O361 1.241 . S
C358 O351 1.247 . S
C358 O352 1.261 . S
C359 O354 1.259 . S
C359 O356 1.235 . S
O360 Co350 2.021 1_554 S
O360 C357 1.238 . S
O361 Co355 2.052 1_554 S
O361 C357 1.241 . S
O362 Co350 2.137 . S
O362 C353 1.247 . S
O363 Co350 2.244 . S
O363 C353 1.272 . S
O363 Co355 2.135 . S
Co364 O365 2.216 . S
Co364 O366 2.091 . S
Co364 O368 2.004 . S
Co364 O374 2.021 . S
Co364 O376 2.137 . S
Co364 O377 2.244 . S
O365 Co364 2.216 . S
O365 C372 1.247 . S
O366 Co364 2.091 . S
O366 C372 1.261 . S
C367 O376 1.247 . S
C367 O377 1.272 . S
O368 Co364 2.004 . S
O368 C373 1.259 . S
Co369 O370 2.061 . S
Co369 O375 2.052 . S
Co369 O377 2.135 . S
O370 Co369 2.061 . S
O370 C373 1.235 . S
C371 O374 1.238 . S
C371 O375 1.241 . S
C372 O365 1.247 . S
C372 O366 1.261 . S
C373 O368 1.259 . S
C373 O370 1.235 . S
O374 Co364 2.021 . S
O374 C371 1.238 . S
O375 Co369 2.052 . S
O375 C371 1.241 . S
O376 Co364 2.137 . S
O376 C367 1.247 . S
O377 Co364 2.244 . S
O377 C367 1.272 . S
O377 Co369 2.135 . S
Co378 O379 2.216 . S
Co378 O380 2.091 . S
Co378 O382 2.004 . S
Co378 O388 2.021 . S
Co378 O390 2.137 . S
Co378 O391 2.244 . S
O379 Co378 2.216 . S
O379 C386 1.247 . S
O380 Co378 2.091 . S
O380 C386 1.261 . S
C381 O390 1.247 . S
C381 O391 1.272 . S
O382 Co378 2.004 . S
O382 C387 1.259 . S
Co383 O384 2.061 . S
Co383 O389 2.052 . S
Co383 O391 2.135 . S
O384 Co383 2.061 . S
O384 C387 1.235 . S
C385 O388 1.238 . S
C385 O389 1.241 . S
C386 O379 1.247 . S
C386 O380 1.261 . S
C387 O382 1.259 . S
C387 O384 1.235 . S
O388 Co378 2.021 . S
O388 C385 1.238 . S
O389 Co383 2.052 . S
O389 C385 1.241 . S
O390 Co378 2.137 . S
O390 C381 1.247 . S
O391 Co378 2.244 . S
O391 C381 1.272 . S
O391 Co383 2.135 . S
Co392 O393 2.216 . S
Co392 O394 2.091 . S
Co392 O396 2.004 . S
Co392 O402 2.021 . S
Co392 O404 2.137 . S
Co392 O405 2.244 . S
O393 Co392 2.216 . S
O393 C400 1.247 . S
O394 Co392 2.091 . S
O394 C400 1.261 . S
C395 O404 1.247 . S
C395 O405 1.272 . S
O396 Co392 2.004 . S
O396 C401 1.259 . S
Co397 O398 2.061 . S
Co397 O403 2.052 . S
Co397 O405 2.135 . S
O398 Co397 2.061 . S
O398 C401 1.235 . S
C399 O402 1.238 . S
C399 O403 1.241 . S
C400 O393 1.247 . S
C400 O394 1.261 . S
C401 O396 1.259 . S
C401 O398 1.235 . S
O402 Co392 2.021 . S
O402 C399 1.238 . S
O403 Co397 2.052 . S
O403 C399 1.241 . S
O404 Co392 2.137 . S
O404 C395 1.247 . S
O405 Co392 2.244 . S
O405 C395 1.272 . S
O405 Co397 2.135 . S
Co406 O407 2.216 . S
Co406 O408 2.091 . S
Co406 O410 2.004 . S
Co406 O416 2.021 1_554 S
Co406 O418 2.137 . S
Co406 O419 2.244 . S
O407 Co406 2.216 . S
O407 C414 1.247 . S
O408 Co406 2.091 . S
O408 C414 1.261 . S
C409 O418 1.247 . S
C409 O419 1.272 . S
O410 Co406 2.004 . S
O410 C415 1.259 . S
Co411 O412 2.061 . S
Co411 O417 2.052 1_554 S
Co411 O419 2.135 . S
O412 Co411 2.061 . S
O412 C415 1.235 . S
C413 O416 1.238 . S
C413 O417 1.241 . S
C414 O407 1.247 . S
C414 O408 1.261 . S
C415 O410 1.259 . S
C415 O412 1.235 . S
O416 Co406 2.021 1_556 S
O416 C413 1.238 . S
O417 Co411 2.052 1_556 S
O417 C413 1.241 . S
O418 Co406 2.137 . S
O418 C409 1.247 . S
O419 Co406 2.244 . S
O419 C409 1.272 . S
O419 Co411 2.135 . S
Co420 O421 2.216 . S
Co420 O422 2.091 . S
Co420 O424 2.004 . S
Co420 O430 2.021 . S
Co420 O432 2.137 . S
Co420 O433 2.244 . S
O421 Co420 2.216 . S
O421 C428 1.247 . S
O422 Co420 2.091 . S
O422 C428 1.261 . S
C423 O432 1.247 . S
C423 O433 1.272 . S
O424 Co420 2.004 . S
O424 C429 1.259 . S
Co425 O426 2.061 . S
Co425 O431 2.052 . S
Co425 O433 2.135 . S
O426 Co425 2.061 . S
O426 C429 1.235 . S
C427 O430 1.238 . S
C427 O431 1.241 . S
C428 O421 1.247 . S
C428 O422 1.261 . S
C429 O424 1.259 . S
C429 O426 1.235 . S
O430 Co420 2.021 . S
O430 C427 1.238 . S
O431 Co425 2.052 . S
O431 C427 1.241 . S
O432 Co420 2.137 . S
O432 C423 1.247 . S
O433 Co420 2.244 . S
O433 C423 1.272 . S
O433 Co425 2.135 . S
Co434 O435 2.216 . S
Co434 O436 2.091 . S
Co434 O438 2.004 . S
Co434 O444 2.021 . S
Co434 O446 2.137 . S
Co434 O447 2.244 . S
O435 Co434 2.216 . S
O435 C442 1.247 . S
O436 Co434 2.091 . S
O436 C442 1.261 . S
C437 O446 1.247 . S
C437 O447 1.272 . S
O438 Co434 2.004 . S
O438 C443 1.259 . S
Co439 O440 2.061 . S
Co439 O445 2.052 . S
Co439 O447 2.135 . S
O440 Co439 2.061 . S
O440 C443 1.235 . S
C441 O444 1.238 . S
C441 O445 1.241 . S
C442 O435 1.247 . S
C442 O436 1.261 . S
C443 O438 1.259 . S
C443 O440 1.235 . S
O444 Co434 2.021 . S
O444 C441 1.238 . S
O445 Co439 2.052 . S
O445 C441 1.241 . S
O446 Co434 2.137 . S
O446 C437 1.247 . S
O447 Co434 2.244 . S
O447 C437 1.272 . S
O447 Co439 2.135 . S
C448 C449 1.369 . S
C448 C450 1.419 . S
C448 H452 0.930 . S
C449 C448 1.369 . S
C449 C458 1.429 . S
C450 C448 1.419 . S
C450 C451 1.363 . S
C450 H453 0.929 . S
C451 C450 1.363 . S
C451 C457 1.428 . S
H452 C448 0.930 . S
H453 C450 0.929 . S
S454 N455 1.613 . S
S454 N456 1.610 . S
N455 S454 1.613 . S
N455 C458 1.350 . S
N456 S454 1.610 . S
N456 C457 1.351 . S
C457 C451 1.428 . S
C457 N456 1.351 . S
C457 C458 1.434 . S
C458 C449 1.429 . S
C458 N455 1.350 . S
C458 C457 1.434 . S
C459 C460 1.369 . S
C459 C461 1.419 . S
C459 H463 0.930 . S
C460 C459 1.369 . S
C460 C469 1.429 . S
C461 C459 1.419 . S
C461 C462 1.363 . S
C461 H464 0.929 . S
C462 C461 1.363 . S
C462 C468 1.428 . S
H463 C459 0.930 . S
H464 C461 0.929 . S
S465 N466 1.613 . S
S465 N467 1.610 . S
N466 S465 1.613 . S
N466 C469 1.350 . S
N467 S465 1.610 . S
N467 C468 1.351 . S
C468 C462 1.428 . S
C468 N467 1.351 . S
C468 C469 1.434 . S
C469 C460 1.429 . S
C469 N466 1.350 . S
C469 C468 1.434 . S
C470 C471 1.369 . S
C470 C472 1.419 . S
C470 H474 0.930 . S
C471 C470 1.369 . S
C471 C480 1.429 . S
C472 C470 1.419 . S
C472 C473 1.363 . S
C472 H475 0.929 . S
C473 C472 1.363 . S
C473 C479 1.428 . S
H474 C470 0.930 . S
H475 C472 0.929 . S
S476 N477 1.613 . S
S476 N478 1.610 . S
N477 S476 1.613 . S
N477 C480 1.350 . S
N478 S476 1.610 . S
N478 C479 1.351 . S
C479 C473 1.428 . S
C479 N478 1.351 . S
C479 C480 1.434 . S
C480 C471 1.429 . S
C480 N477 1.350 . S
C480 C479 1.434 . S
C481 C482 1.369 . S
C481 C483 1.419 . S
C481 H485 0.930 . S
C482 C481 1.369 . S
C482 C491 1.429 . S
C483 C481 1.419 . S
C483 C484 1.363 . S
C483 H486 0.929 . S
C484 C483 1.363 . S
C484 C490 1.428 . S
H485 C481 0.930 . S
H486 C483 0.929 . S
S487 N488 1.613 . S
S487 N489 1.610 . S
N488 S487 1.613 . S
N488 C491 1.350 . S
N489 S487 1.610 . S
N489 C490 1.351 . S
C490 C484 1.428 . S
C490 N489 1.351 . S
C490 C491 1.434 . S
C491 C482 1.429 . S
C491 N488 1.350 . S
C491 C490 1.434 . S
C492 C493 1.369 . S
C492 C494 1.419 . S
C492 H496 0.930 . S
C493 C492 1.369 . S
C493 C502 1.429 . S
C494 C492 1.419 . S
C494 C495 1.363 . S
C494 H497 0.929 . S
C495 C494 1.363 . S
C495 C501 1.428 . S
H496 C492 0.930 . S
H497 C494 0.929 . S
S498 N499 1.613 . S
S498 N500 1.610 . S
N499 S498 1.613 . S
N499 C502 1.350 . S
N500 S498 1.610 . S
N500 C501 1.351 . S
C501 C495 1.428 . S
C501 N500 1.351 . S
C501 C502 1.434 . S
C502 C493 1.429 . S
C502 N499 1.350 . S
C502 C501 1.434 . S
C503 C504 1.369 . S
C503 C505 1.419 . S
C503 H507 0.930 . S
C504 C503 1.369 . S
C504 C513 1.429 . S
C505 C503 1.419 . S
C505 C506 1.363 . S
C505 H508 0.929 . S
C506 C505 1.363 . S
C506 C512 1.428 . S
H507 C503 0.930 . S
H508 C505 0.929 . S
S509 N510 1.613 . S
S509 N511 1.610 . S
N510 S509 1.613 . S
N510 C513 1.350 . S
N511 S509 1.610 . S
N511 C512 1.351 . S
C512 C506 1.428 . S
C512 N511 1.351 . S
C512 C513 1.434 . S
C513 C504 1.429 . S
C513 N510 1.350 . S
C513 C512 1.434 . S
C514 C515 1.369 . S
C514 C516 1.419 . S
C514 H518 0.930 . S
C515 C514 1.369 . S
C515 C524 1.429 . S
C516 C514 1.419 . S
C516 C517 1.363 . S
C516 H519 0.929 . S
C517 C516 1.363 . S
C517 C523 1.428 . S
H518 C514 0.930 . S
H519 C516 0.929 . S
S520 N521 1.613 . S
S520 N522 1.610 . S
N521 S520 1.613 . S
N521 C524 1.350 . S
N522 S520 1.610 . S
N522 C523 1.351 . S
C523 C517 1.428 . S
C523 N522 1.351 . S
C523 C524 1.434 . S
C524 C515 1.429 . S
C524 N521 1.350 . S
C524 C523 1.434 . S
C525 C526 1.369 . S
C525 C527 1.419 . S
C525 H529 0.930 . S
C526 C525 1.369 . S
C526 C535 1.429 . S
C527 C525 1.419 . S
C527 C528 1.363 . S
C527 H530 0.929 . S
C528 C527 1.363 . S
C528 C534 1.428 . S
H529 C525 0.930 . S
H530 C527 0.929 . S
S531 N532 1.613 . S
S531 N533 1.610 . S
N532 S531 1.613 . S
N532 C535 1.350 . S
N533 S531 1.610 . S
N533 C534 1.351 . S
C534 C528 1.428 . S
C534 N533 1.351 . S
C534 C535 1.434 . S
C535 C526 1.429 . S
C535 N532 1.350 . S
C535 C534 1.434 . S
C536 C537 1.369 . S
C536 C538 1.419 . S
C536 H540 0.930 . S
C537 C536 1.369 . S
C537 C546 1.429 . S
C538 C536 1.419 . S
C538 C539 1.363 . S
C538 H541 0.929 . S
C539 C538 1.363 . S
C539 C545 1.428 . S
H540 C536 0.930 . S
H541 C538 0.929 . S
S542 N543 1.613 . S
S542 N544 1.610 . S
N543 S542 1.613 . S
N543 C546 1.350 . S
N544 S542 1.610 . S
N544 C545 1.351 . S
C545 C539 1.428 . S
C545 N544 1.351 . S
C545 C546 1.434 . S
C546 C537 1.429 . S
C546 N543 1.350 . S
C546 C545 1.434 . S
C547 C548 1.369 . S
C547 C549 1.419 . S
C547 H551 0.930 . S
C548 C547 1.369 . S
C548 C557 1.429 . S
C549 C547 1.419 . S
C549 C550 1.363 . S
C549 H552 0.929 . S
C550 C549 1.363 . S
C550 C556 1.428 . S
H551 C547 0.930 . S
H552 C549 0.929 . S
S553 N554 1.613 . S
S553 N555 1.610 . S
N554 S553 1.613 . S
N554 C557 1.350 . S
N555 S553 1.610 . S
N555 C556 1.351 . S
C556 C550 1.428 . S
C556 N555 1.351 . S
C556 C557 1.434 . S
C557 C548 1.429 . S
C557 N554 1.350 . S
C557 C556 1.434 . S
C558 C559 1.369 . S
C558 C560 1.419 . S
C558 H562 0.930 . S
C559 C558 1.369 . S
C559 C568 1.429 . S
C560 C558 1.419 . S
C560 C561 1.363 . S
C560 H563 0.929 . S
C561 C560 1.363 . S
C561 C567 1.428 . S
H562 C558 0.930 . S
H563 C560 0.929 . S
S564 N565 1.613 . S
S564 N566 1.610 . S
N565 S564 1.613 . S
N565 C568 1.350 . S
N566 S564 1.610 . S
N566 C567 1.351 . S
C567 C561 1.428 . S
C567 N566 1.351 . S
C567 C568 1.434 . S
C568 C559 1.429 . S
C568 N565 1.350 . S
C568 C567 1.434 . S
C569 C570 1.369 . S
C569 C571 1.419 . S
C569 H573 0.930 . S
C570 C569 1.369 . S
C570 C579 1.429 . S
C571 C569 1.419 . S
C571 C572 1.363 . S
C571 H574 0.929 . S
C572 C571 1.363 . S
C572 C578 1.428 . S
H573 C569 0.930 . S
H574 C571 0.929 . S
S575 N576 1.613 . S
S575 N577 1.610 . S
N576 S575 1.613 . S
N576 C579 1.350 . S
N577 S575 1.610 . S
N577 C578 1.351 . S
C578 C572 1.428 . S
C578 N577 1.351 . S
C578 C579 1.434 . S
C579 C570 1.429 . S
C579 N576 1.350 . S
C579 C578 1.434 . S
C580 C581 1.369 . S
C580 C582 1.419 . S
C580 H584 0.930 . S
C581 C580 1.369 . S
C581 C590 1.429 . S
C582 C580 1.419 . S
C582 C583 1.363 . S
C582 H585 0.929 . S
C583 C582 1.363 . S
C583 C589 1.428 . S
H584 C580 0.930 . S
H585 C582 0.929 . S
S586 N587 1.613 . S
S586 N588 1.610 . S
N587 S586 1.613 . S
N587 C590 1.350 . S
N588 S586 1.610 . S
N588 C589 1.351 . S
C589 C583 1.428 . S
C589 N588 1.351 . S
C589 C590 1.434 . S
C590 C581 1.429 . S
C590 N587 1.350 . S
C590 C589 1.434 . S
C591 C592 1.369 . S
C591 C593 1.419 . S
C591 H595 0.930 . S
C592 C591 1.369 . S
C592 C601 1.429 . S
C593 C591 1.419 . S
C593 C594 1.363 . S
C593 H596 0.929 . S
C594 C593 1.363 . S
C594 C600 1.428 . S
H595 C591 0.930 . S
H596 C593 0.929 . S
S597 N598 1.613 . S
S597 N599 1.610 . S
N598 S597 1.613 . S
N598 C601 1.350 . S
N599 S597 1.610 . S
N599 C600 1.351 . S
C600 C594 1.428 . S
C600 N599 1.351 . S
C600 C601 1.434 . S
C601 C592 1.429 . S
C601 N598 1.350 . S
C601 C600 1.434 . S
C602 C603 1.369 . S
C602 C604 1.419 . S
C602 H606 0.930 . S
C603 C602 1.369 . S
C603 C612 1.429 . S
C604 C602 1.419 . S
C604 C605 1.363 . S
C604 H607 0.929 . S
C605 C604 1.363 . S
C605 C611 1.428 . S
H606 C602 0.930 . S
H607 C604 0.929 . S
S608 N609 1.613 . S
S608 N610 1.610 . S
N609 S608 1.613 . S
N609 C612 1.350 . S
N610 S608 1.610 . S
N610 C611 1.351 . S
C611 C605 1.428 . S
C611 N610 1.351 . S
C611 C612 1.434 . S
C612 C603 1.429 . S
C612 N609 1.350 . S
C612 C611 1.434 . S
C613 C614 1.369 . S
C613 C615 1.419 . S
C613 H617 0.930 . S
C614 C613 1.369 . S
C614 C623 1.429 . S
C615 C613 1.419 . S
C615 C616 1.363 . S
C615 H618 0.929 . S
C616 C615 1.363 . S
C616 C622 1.428 . S
H617 C613 0.930 . S
H618 C615 0.929 . S
S619 N620 1.613 . S
S619 N621 1.610 . S
N620 S619 1.613 . S
N620 C623 1.350 . S
N621 S619 1.610 . S
N621 C622 1.351 . S
C622 C616 1.428 . S
C622 N621 1.351 . S
C622 C623 1.434 . S
C623 C614 1.429 . S
C623 N620 1.350 . S
C623 C622 1.434 . S
C624 C625 1.369 . S
C624 C626 1.419 . S
C624 H628 0.930 . S
C625 C624 1.369 . S
C625 C634 1.429 . S
C626 C624 1.419 . S
C626 C627 1.363 . S
C626 H629 0.929 . S
C627 C626 1.363 . S
C627 C633 1.428 . S
H628 C624 0.930 . S
H629 C626 0.929 . S
S630 N631 1.613 . S
S630 N632 1.610 . S
N631 S630 1.613 . S
N631 C634 1.350 . S
N632 S630 1.610 . S
N632 C633 1.351 . S
C633 C627 1.428 . S
C633 N632 1.351 . S
C633 C634 1.434 . S
C634 C625 1.429 . S
C634 N631 1.350 . S
C634 C633 1.434 . S
C635 C636 1.369 . S
C635 C637 1.419 . S
C635 H639 0.930 . S
C636 C635 1.369 . S
C636 C645 1.429 . S
C637 C635 1.419 . S
C637 C638 1.363 . S
C637 H640 0.929 . S
C638 C637 1.363 . S
C638 C644 1.428 . S
H639 C635 0.930 . S
H640 C637 0.929 . S
S641 N642 1.613 . S
S641 N643 1.610 . S
N642 S641 1.613 . S
N642 C645 1.350 . S
N643 S641 1.610 . S
N643 C644 1.351 . S
C644 C638 1.428 . S
C644 N643 1.351 . S
C644 C645 1.434 . S
C645 C636 1.429 . S
C645 N642 1.350 . S
C645 C644 1.434 . S
C646 C647 1.369 . S
C646 C648 1.419 . S
C646 H650 0.930 . S
C647 C646 1.369 . S
C647 C656 1.429 . S
C648 C646 1.419 . S
C648 C649 1.363 . S
C648 H651 0.929 . S
C649 C648 1.363 . S
C649 C655 1.428 . S
H650 C646 0.930 . S
H651 C648 0.929 . S
S652 N653 1.613 . S
S652 N654 1.610 . S
N653 S652 1.613 . S
N653 C656 1.350 . S
N654 S652 1.610 . S
N654 C655 1.351 . S
C655 C649 1.428 . S
C655 N654 1.351 . S
C655 C656 1.434 . S
C656 C647 1.429 . S
C656 N653 1.350 . S
C656 C655 1.434 . S
C657 C658 1.369 . S
C657 C659 1.419 . S
C657 H661 0.930 . S
C658 C657 1.369 . S
C658 C667 1.429 . S
C659 C657 1.419 . S
C659 C660 1.363 . S
C659 H662 0.929 . S
C660 C659 1.363 . S
C660 C666 1.428 . S
H661 C657 0.930 . S
H662 C659 0.929 . S
S663 N664 1.613 . S
S663 N665 1.610 . S
N664 S663 1.613 . S
N664 C667 1.350 . S
N665 S663 1.610 . S
N665 C666 1.351 . S
C666 C660 1.428 . S
C666 N665 1.351 . S
C666 C667 1.434 . S
C667 C658 1.429 . S
C667 N664 1.350 . S
C667 C666 1.434 . S
C668 C669 1.369 . S
C668 C670 1.419 . S
C668 H672 0.930 . S
C669 C668 1.369 . S
C669 C678 1.429 . S
C670 C668 1.419 . S
C670 C671 1.363 . S
C670 H673 0.929 . S
C671 C670 1.363 . S
C671 C677 1.428 . S
H672 C668 0.930 . S
H673 C670 0.929 . S
S674 N675 1.613 . S
S674 N676 1.610 . S
N675 S674 1.613 . S
N675 C678 1.350 . S
N676 S674 1.610 . S
N676 C677 1.351 . S
C677 C671 1.428 . S
C677 N676 1.351 . S
C677 C678 1.434 . S
C678 C669 1.429 . S
C678 N675 1.350 . S
C678 C677 1.434 . S
C679 C680 1.369 . S
C679 C681 1.419 . S
C679 H683 0.930 . S
C680 C679 1.369 . S
C680 C689 1.429 . S
C681 C679 1.419 . S
C681 C682 1.363 . S
C681 H684 0.929 . S
C682 C681 1.363 . S
C682 C688 1.428 . S
H683 C679 0.930 . S
H684 C681 0.929 . S
S685 N686 1.613 . S
S685 N687 1.610 . S
N686 S685 1.613 . S
N686 C689 1.350 . S
N687 S685 1.610 . S
N687 C688 1.351 . S
C688 C682 1.428 . S
C688 N687 1.351 . S
C688 C689 1.434 . S
C689 C680 1.429 . S
C689 N686 1.350 . S
C689 C688 1.434 . S
C690 C691 1.369 . S
C690 C692 1.419 . S
C690 H694 0.930 . S
C691 C690 1.369 . S
C691 C700 1.429 . S
C692 C690 1.419 . S
C692 C693 1.363 . S
C692 H695 0.929 . S
C693 C692 1.363 . S
C693 C699 1.428 . S
H694 C690 0.930 . S
H695 C692 0.929 . S
S696 N697 1.613 . S
S696 N698 1.610 . S
N697 S696 1.613 . S
N697 C700 1.350 . S
N698 S696 1.610 . S
N698 C699 1.351 . S
C699 C693 1.428 . S
C699 N698 1.351 . S
C699 C700 1.434 . S
C700 C691 1.429 . S
C700 N697 1.350 . S
C700 C699 1.434 . S
C701 C702 1.369 . S
C701 C703 1.419 . S
C701 H705 0.930 . S
C702 C701 1.369 . S
C702 C711 1.429 . S
C703 C701 1.419 . S
C703 C704 1.363 . S
C703 H706 0.929 . S
C704 C703 1.363 . S
C704 C710 1.428 . S
H705 C701 0.930 . S
H706 C703 0.929 . S
S707 N708 1.613 . S
S707 N709 1.610 . S
N708 S707 1.613 . S
N708 C711 1.350 . S
N709 S707 1.610 . S
N709 C710 1.351 . S
C710 C704 1.428 . S
C710 N709 1.351 . S
C710 C711 1.434 . S
C711 C702 1.429 . S
C711 N708 1.350 . S
C711 C710 1.434 . S
C712 C713 1.369 . S
C712 C714 1.419 . S
C712 H716 0.930 . S
C713 C712 1.369 . S
C713 C722 1.429 . S
C714 C712 1.419 . S
C714 C715 1.363 . S
C714 H717 0.929 . S
C715 C714 1.363 . S
C715 C721 1.428 . S
H716 C712 0.930 . S
H717 C714 0.929 . S
S718 N719 1.613 . S
S718 N720 1.610 . S
N719 S718 1.613 . S
N719 C722 1.350 . S
N720 S718 1.610 . S
N720 C721 1.351 . S
C721 C715 1.428 . S
C721 N720 1.351 . S
C721 C722 1.434 . S
C722 C713 1.429 . S
C722 N719 1.350 . S
C722 C721 1.434 . S
C723 C724 1.369 . S
C723 C725 1.419 . S
C723 H727 0.930 . S
C724 C723 1.369 . S
C724 C733 1.429 . S
C725 C723 1.419 . S
C725 C726 1.363 . S
C725 H728 0.929 . S
C726 C725 1.363 . S
C726 C732 1.428 . S
H727 C723 0.930 . S
H728 C725 0.929 . S
S729 N730 1.613 . S
S729 N731 1.610 . S
N730 S729 1.613 . S
N730 C733 1.350 . S
N731 S729 1.610 . S
N731 C732 1.351 . S
C732 C726 1.428 . S
C732 N731 1.351 . S
C732 C733 1.434 . S
C733 C724 1.429 . S
C733 N730 1.350 . S
C733 C732 1.434 . S
C734 C735 1.369 . S
C734 C736 1.419 . S
C734 H738 0.930 . S
C735 C734 1.369 . S
C735 C744 1.429 . S
C736 C734 1.419 . S
C736 C737 1.363 . S
C736 H739 0.929 . S
C737 C736 1.363 . S
C737 C743 1.428 . S
H738 C734 0.930 . S
H739 C736 0.929 . S
S740 N741 1.613 . S
S740 N742 1.610 . S
N741 S740 1.613 . S
N741 C744 1.350 . S
N742 S740 1.610 . S
N742 C743 1.351 . S
C743 C737 1.428 . S
C743 N742 1.351 . S
C743 C744 1.434 . S
C744 C735 1.429 . S
C744 N741 1.350 . S
C744 C743 1.434 . S
C745 C746 1.369 . S
C745 C747 1.419 . S
C745 H749 0.930 . S
C746 C745 1.369 . S
C746 C755 1.429 . S
C747 C745 1.419 . S
C747 C748 1.363 . S
C747 H750 0.929 . S
C748 C747 1.363 . S
C748 C754 1.428 . S
H749 C745 0.930 . S
H750 C747 0.929 . S
S751 N752 1.613 . S
S751 N753 1.610 . S
N752 S751 1.613 . S
N752 C755 1.350 . S
N753 S751 1.610 . S
N753 C754 1.351 . S
C754 C748 1.428 . S
C754 N753 1.351 . S
C754 C755 1.434 . S
C755 C746 1.429 . S
C755 N752 1.350 . S
C755 C754 1.434 . S
C756 C757 1.369 . S
C756 C758 1.419 . S
C756 H760 0.930 . S
C757 C756 1.369 . S
C757 C766 1.429 . S
C758 C756 1.419 . S
C758 C759 1.363 . S
C758 H761 0.929 . S
C759 C758 1.363 . S
C759 C765 1.428 . S
H760 C756 0.930 . S
H761 C758 0.929 . S
S762 N763 1.613 . S
S762 N764 1.610 . S
N763 S762 1.613 . S
N763 C766 1.350 . S
N764 S762 1.610 . S
N764 C765 1.351 . S
C765 C759 1.428 . S
C765 N764 1.351 . S
C765 C766 1.434 . S
C766 C757 1.429 . S
C766 N763 1.350 . S
C766 C765 1.434 . S
C767 C768 1.369 . S
C767 C769 1.419 . S
C767 H771 0.930 . S
C768 C767 1.369 . S
C768 C777 1.429 . S
C769 C767 1.419 . S
C769 C770 1.363 . S
C769 H772 0.929 . S
C770 C769 1.363 . S
C770 C776 1.428 . S
H771 C767 0.930 . S
H772 C769 0.929 . S
S773 N774 1.613 . S
S773 N775 1.610 . S
N774 S773 1.613 . S
N774 C777 1.350 . S
N775 S773 1.610 . S
N775 C776 1.351 . S
C776 C770 1.428 . S
C776 N775 1.351 . S
C776 C777 1.434 . S
C777 C768 1.429 . S
C777 N774 1.350 . S
C777 C776 1.434 . S
C778 C779 1.369 . S
C778 C780 1.419 . S
C778 H782 0.930 . S
C779 C778 1.369 . S
C779 C788 1.429 . S
C780 C778 1.419 . S
C780 C781 1.363 . S
C780 H783 0.929 . S
C781 C780 1.363 . S
C781 C787 1.428 . S
H782 C778 0.930 . S
H783 C780 0.929 . S
S784 N785 1.613 . S
S784 N786 1.610 . S
N785 S784 1.613 . S
N785 C788 1.350 . S
N786 S784 1.610 . S
N786 C787 1.351 . S
C787 C781 1.428 . S
C787 N786 1.351 . S
C787 C788 1.434 . S
C788 C779 1.429 . S
C788 N785 1.350 . S
C788 C787 1.434 . S
C789 C790 1.369 . S
C789 C791 1.419 . S
C789 H793 0.930 . S
C790 C789 1.369 . S
C790 C799 1.429 . S
C791 C789 1.419 . S
C791 C792 1.363 . S
C791 H794 0.929 . S
C792 C791 1.363 . S
C792 C798 1.428 . S
H793 C789 0.930 . S
H794 C791 0.929 . S
S795 N796 1.613 . S
S795 N797 1.610 . S
N796 S795 1.613 . S
N796 C799 1.350 . S
N797 S795 1.610 . S
N797 C798 1.351 . S
C798 C792 1.428 . S
C798 N797 1.351 . S
C798 C799 1.434 . S
C799 C790 1.429 . S
C799 N796 1.350 . S
C799 C798 1.434 . S
C800 C801 1.369 . S
C800 C802 1.419 . S
C800 H804 0.930 . S
C801 C800 1.369 . S
C801 C810 1.429 . S
C802 C800 1.419 . S
C802 C803 1.363 . S
C802 H805 0.929 . S
C803 C802 1.363 . S
C803 C809 1.428 . S
H804 C800 0.930 . S
H805 C802 0.929 . S
S806 N807 1.613 . S
S806 N808 1.610 . S
N807 S806 1.613 . S
N807 C810 1.350 . S
N808 S806 1.610 . S
N808 C809 1.351 . S
C809 C803 1.428 . S
C809 N808 1.351 . S
C809 C810 1.434 . S
C810 C801 1.429 . S
C810 N807 1.350 . S
C810 C809 1.434 . S
C811 C812 1.369 . S
C811 C813 1.419 1_655 S
C811 H815 0.930 . S
C812 C811 1.369 . S
C812 C821 1.429 1_565 S
C813 C811 1.419 1_455 S
C813 C814 1.363 1_565 S
C813 H816 0.929 . S
C814 C813 1.363 1_545 S
C814 C820 1.428 . S
H815 C811 0.930 . S
H816 C813 0.929 . S
S817 N818 1.613 . S
S817 N819 1.610 1_655 S
N818 S817 1.613 . S
N818 C821 1.350 . S
N819 S817 1.610 1_455 S
N819 C820 1.351 . S
C820 C814 1.428 . S
C820 N819 1.351 . S
C820 C821 1.434 1_455 S
C821 C812 1.429 1_545 S
C821 N818 1.350 . S
C821 C820 1.434 1_655 S
C822 C823 1.369 . S
C822 C824 1.419 . S
C822 H826 0.930 . S
C823 C822 1.369 . S
C823 C832 1.429 . S
C824 C822 1.419 . S
C824 C825 1.363 . S
C824 H827 0.929 . S
C825 C824 1.363 . S
C825 C831 1.428 . S
H826 C822 0.930 . S
H827 C824 0.929 . S
S828 N829 1.613 . S
S828 N830 1.610 . S
N829 S828 1.613 . S
N829 C832 1.350 . S
N830 S828 1.610 . S
N830 C831 1.351 . S
C831 C825 1.428 . S
C831 N830 1.351 . S
C831 C832 1.434 . S
C832 C823 1.429 . S
C832 N829 1.350 . S
C832 C831 1.434 . S
C833 C834 1.375 1_556 S
C833 C835 1.413 1_545 S
C833 H837 0.930 1_545 S
C834 C833 1.375 1_554 S
C834 C843 1.429 . S
C835 C833 1.413 1_565 S
C835 C836 1.363 . S
C835 H838 0.929 . S
C836 C835 1.363 . S
C836 C842 1.429 1_566 S
H837 C833 0.930 1_565 S
H838 C835 0.929 . S
S839 N840 1.613 . S
S839 N841 1.610 . S
N840 S839 1.613 . S
N840 C843 1.350 . S
N841 S839 1.610 . S
N841 C842 1.351 . S
C842 C836 1.429 1_544 S
C842 N841 1.351 . S
C842 C843 1.433 . S
C843 C834 1.429 . S
C843 N840 1.350 . S
C843 C842 1.433 . S
C844 C845 1.369 . S
C844 C846 1.419 . S
C844 H848 0.930 . S
C845 C844 1.369 . S
C845 C854 1.429 . S
C846 C844 1.419 . S
C846 C847 1.363 . S
C846 H849 0.929 . S
C847 C846 1.363 . S
C847 C853 1.428 . S
H848 C844 0.930 . S
H849 C846 0.929 . S
S850 N851 1.613 . S
S850 N852 1.610 . S
N851 S850 1.613 . S
N851 C854 1.350 . S
N852 S850 1.610 . S
N852 C853 1.351 . S
C853 C847 1.428 . S
C853 N852 1.351 . S
C853 C854 1.434 . S
C854 C845 1.429 . S
C854 N851 1.350 . S
C854 C853 1.434 . S
C855 C856 1.369 . S
C855 C857 1.419 . S
C855 H859 0.930 . S
C856 C855 1.369 . S
C856 C865 1.429 1_565 S
C857 C855 1.419 . S
C857 C858 1.363 1_565 S
C857 H860 0.929 . S
C858 C857 1.363 1_545 S
C858 C864 1.428 . S
H859 C855 0.930 . S
H860 C857 0.929 . S
S861 N862 1.613 . S
S861 N863 1.610 . S
N862 S861 1.613 . S
N862 C865 1.350 . S
N863 S861 1.610 . S
N863 C864 1.351 . S
C864 C858 1.428 . S
C864 N863 1.351 . S
C864 C865 1.434 . S
C865 C856 1.429 1_545 S
C865 N862 1.350 . S
C865 C864 1.434 . S
C866 C867 1.369 . S
C866 C868 1.419 . S
C866 H870 0.930 . S
C867 C866 1.369 . S
C867 C876 1.429 . S
C868 C866 1.419 . S
C868 C869 1.363 . S
C868 H871 0.929 . S
C869 C868 1.363 . S
C869 C875 1.428 . S
H870 C866 0.930 . S
H871 C868 0.929 . S
S872 N873 1.613 . S
S872 N874 1.610 . S
N873 S872 1.613 . S
N873 C876 1.350 . S
N874 S872 1.610 . S
N874 C875 1.351 . S
C875 C869 1.428 . S
C875 N874 1.351 . S
C875 C876 1.434 . S
C876 C867 1.429 . S
C876 N873 1.350 . S
C876 C875 1.434 . S
C877 C878 1.369 1_564 S
C877 C879 1.419 . S
C877 H881 0.930 . S
C878 C877 1.369 1_546 S
C878 C887 1.429 1_655 S
C879 C877 1.419 . S
C879 C880 1.363 1_655 S
C879 H882 0.929 . S
C880 C879 1.363 1_455 S
C880 C886 1.428 1_564 S
H881 C877 0.930 . S
H882 C879 0.929 . S
S883 N884 1.613 . S
S883 N885 1.610 . S
N884 S883 1.613 . S
N884 C887 1.350 . S
N885 S883 1.610 . S
N885 C886 1.351 . S
C886 C880 1.428 1_546 S
C886 N885 1.351 . S
C886 C887 1.434 . S
C887 C878 1.429 1_455 S
C887 N884 1.350 . S
C887 C886 1.434 . S
C888 C889 1.369 . S
C888 C890 1.419 . S
C888 H892 0.930 . S
C889 C888 1.369 . S
C889 C898 1.429 . S
C890 C888 1.419 . S
C890 C891 1.363 . S
C890 H893 0.929 . S
C891 C890 1.363 . S
C891 C897 1.428 . S
H892 C888 0.930 . S
H893 C890 0.929 . S
S894 N895 1.613 . S
S894 N896 1.610 . S
N895 S894 1.613 . S
N895 C898 1.350 . S
N896 S894 1.610 . S
N896 C897 1.351 . S
C897 C891 1.428 . S
C897 N896 1.351 . S
C897 C898 1.434 . S
C898 C889 1.429 . S
C898 N895 1.350 . S
C898 C897 1.434 . S
C899 C900 1.369 . S
C899 C901 1.419 . S
C899 H903 0.930 . S
C900 C899 1.369 . S
C900 C909 1.429 . S
C901 C899 1.419 . S
C901 C902 1.363 . S
C901 H904 0.929 . S
C902 C901 1.363 . S
C902 C908 1.428 . S
H903 C899 0.930 . S
H904 C901 0.929 . S
S905 N906 1.613 . S
S905 N907 1.610 . S
N906 S905 1.613 . S
N906 C909 1.350 . S
N907 S905 1.610 . S
N907 C908 1.351 . S
C908 C902 1.428 . S
C908 N907 1.351 . S
C908 C909 1.434 . S
C909 C900 1.429 . S
C909 N906 1.350 . S
C909 C908 1.434 . S
C910 C911 1.369 . S
C910 C912 1.419 . S
C910 H914 0.930 . S
C911 C910 1.369 . S
C911 C920 1.429 . S
C912 C910 1.419 . S
C912 C913 1.363 . S
C912 H915 0.929 . S
C913 C912 1.363 . S
C913 C919 1.428 . S
H914 C910 0.930 . S
H915 C912 0.929 . S
S916 N917 1.613 . S
S916 N918 1.610 . S
N917 S916 1.613 . S
N917 C920 1.350 . S
N918 S916 1.610 . S
N918 C919 1.351 . S
C919 C913 1.428 . S
C919 N918 1.351 . S
C919 C920 1.434 . S
C920 C911 1.429 . S
C920 N917 1.350 . S
C920 C919 1.434 . S
C921 C922 1.369 . S
C921 C923 1.419 . S
C921 H925 0.930 . S
C922 C921 1.369 . S
C922 C931 1.429 . S
C923 C921 1.419 . S
C923 C924 1.363 . S
C923 H926 0.929 . S
C924 C923 1.363 . S
C924 C930 1.428 . S
H925 C921 0.930 . S
H926 C923 0.929 . S
S927 N928 1.613 . S
S927 N929 1.610 . S
N928 S927 1.613 . S
N928 C931 1.350 . S
N929 S927 1.610 . S
N929 C930 1.351 . S
C930 C924 1.428 . S
C930 N929 1.351 . S
C930 C931 1.434 . S
C931 C922 1.429 . S
C931 N928 1.350 . S
C931 C930 1.434 . S
C932 C933 1.369 . S
C932 C934 1.419 . S
C932 H936 0.930 . S
C933 C932 1.369 . S
C933 C942 1.429 1_554 S
C934 C932 1.419 . S
C934 C935 1.363 1_554 S
C934 H937 0.929 . S
C935 C934 1.363 1_556 S
C935 C941 1.428 . S
H936 C932 0.930 . S
H937 C934 0.929 . S
S938 N939 1.613 . S
S938 N940 1.610 . S
N939 S938 1.613 . S
N939 C942 1.350 . S
N940 S938 1.610 . S
N940 C941 1.351 . S
C941 C935 1.428 . S
C941 N940 1.351 . S
C941 C942 1.434 . S
C942 C933 1.429 1_556 S
C942 N939 1.350 . S
C942 C941 1.434 . S
C943 C944 1.369 1_455 S
C943 C945 1.419 . S
C943 H947 0.930 . S
C944 C943 1.369 1_655 S
C944 C953 1.429 . S
C945 C943 1.419 . S
C945 C946 1.363 . S
C945 H948 0.929 . S
C946 C945 1.363 . S
C946 C952 1.428 1_455 S
H947 C943 0.930 . S
H948 C945 0.929 . S
S949 N950 1.613 . S
S949 N951 1.610 . S
N950 S949 1.613 . S
N950 C953 1.350 . S
N951 S949 1.610 . S
N951 C952 1.351 . S
C952 C946 1.428 1_655 S
C952 N951 1.351 . S
C952 C953 1.434 . S
C953 C944 1.429 . S
C953 N950 1.350 . S
C953 C952 1.434 . S
C954 C955 1.369 . S
C954 C956 1.419 . S
C954 H958 0.930 . S
C955 C954 1.369 . S
C955 C964 1.429 1_456 S
C956 C954 1.419 . S
C956 C957 1.363 1_456 S
C956 H959 0.929 . S
C957 C956 1.363 1_654 S
C957 C963 1.428 . S
H958 C954 0.930 . S
H959 C956 0.929 . S
S960 N961 1.613 . S
S960 N962 1.610 . S
N961 S960 1.613 . S
N961 C964 1.350 . S
N962 S960 1.610 . S
N962 C963 1.351 . S
C963 C957 1.428 . S
C963 N962 1.351 . S
C963 C964 1.434 . S
C964 C955 1.429 1_654 S
C964 N961 1.350 . S
C964 C963 1.434 . S
C965 C966 1.369 . S
C965 C967 1.419 . S
C965 H969 0.930 . S
C966 C965 1.369 . S
C966 C975 1.429 . S
C967 C965 1.419 . S
C967 C968 1.363 . S
C967 H970 0.929 . S
C968 C967 1.363 . S
C968 C974 1.428 . S
H969 C965 0.930 . S
H970 C967 0.929 . S
S971 N972 1.613 . S
S971 N973 1.610 . S
N972 S971 1.613 . S
N972 C975 1.350 . S
N973 S971 1.610 . S
N973 C974 1.351 . S
C974 C968 1.428 . S
C974 N973 1.351 . S
C974 C975 1.434 . S
C975 C966 1.429 . S
C975 N972 1.350 . S
C975 C974 1.434 . S
C976 C977 1.369 . S
C976 C978 1.419 . S
C976 H980 0.930 . S
C977 C976 1.369 . S
C977 C986 1.429 . S
C978 C976 1.419 . S
C978 C979 1.363 . S
C978 H981 0.929 . S
C979 C978 1.363 . S
C979 C985 1.428 . S
H980 C976 0.930 . S
H981 C978 0.929 . S
S982 N983 1.613 . S
S982 N984 1.610 . S
N983 S982 1.613 . S
N983 C986 1.350 . S
N984 S982 1.610 . S
N984 C985 1.351 . S
C985 C979 1.428 . S
C985 N984 1.351 . S
C985 C986 1.434 . S
C986 C977 1.429 . S
C986 N983 1.350 . S
C986 C985 1.434 . S
C987 C988 1.369 . S
C987 C989 1.419 . S
C987 H991 0.930 . S
C988 C987 1.369 . S
C988 C997 1.429 . S
C989 C987 1.419 . S
C989 C990 1.363 . S
C989 H992 0.929 . S
C990 C989 1.363 . S
C990 C996 1.428 . S
H991 C987 0.930 . S
H992 C989 0.929 . S
S993 N994 1.613 . S
S993 N995 1.610 . S
N994 S993 1.613 . S
N994 C997 1.350 . S
N995 S993 1.610 . S
N995 C996 1.351 . S
C996 C990 1.428 . S
C996 N995 1.351 . S
C996 C997 1.434 . S
C997 C988 1.429 . S
C997 N994 1.350 . S
C997 C996 1.434 . S
C998 C999 1.369 . S
C998 C1000 1.419 . S
C998 H1002 0.930 . S
C999 C998 1.369 . S
C999 C1008 1.429 . S
C1000 C998 1.419 . S
C1000 C1001 1.363 . S
C1000 H1003 0.929 . S
C1001 C1000 1.363 . S
C1001 C1007 1.428 . S
H1002 C998 0.930 . S
H1003 C1000 0.929 . S
S1004 N1005 1.613 . S
S1004 N1006 1.610 . S
N1005 S1004 1.613 . S
N1005 C1008 1.350 . S
N1006 S1004 1.610 . S
N1006 C1007 1.351 . S
C1007 C1001 1.428 . S
C1007 N1006 1.351 . S
C1007 C1008 1.434 . S
C1008 C999 1.429 . S
C1008 N1005 1.350 . S
C1008 C1007 1.434 . S
C1009 C1010 1.369 . S
C1009 C1011 1.419 . S
C1009 H1013 0.930 . S
C1010 C1009 1.369 . S
C1010 C1019 1.429 . S
C1011 C1009 1.419 . S
C1011 C1012 1.363 . S
C1011 H1014 0.929 . S
C1012 C1011 1.363 . S
C1012 C1018 1.428 . S
H1013 C1009 0.930 . S
H1014 C1011 0.929 . S
S1015 N1016 1.613 . S
S1015 N1017 1.610 . S
N1016 S1015 1.613 . S
N1016 C1019 1.350 . S
N1017 S1015 1.610 . S
N1017 C1018 1.351 . S
C1018 C1012 1.428 . S
C1018 N1017 1.351 . S
C1018 C1019 1.434 . S
C1019 C1010 1.429 . S
C1019 N1016 1.350 . S
C1019 C1018 1.434 . S
C1020 C1021 1.369 . S
C1020 C1022 1.419 . S
C1020 H1024 0.930 . S
C1021 C1020 1.369 . S
C1021 C1030 1.429 . S
C1022 C1020 1.419 . S
C1022 C1023 1.363 . S
C1022 H1025 0.929 . S
C1023 C1022 1.363 . S
C1023 C1029 1.428 . S
H1024 C1020 0.930 . S
H1025 C1022 0.929 . S
S1026 N1027 1.613 . S
S1026 N1028 1.610 . S
N1027 S1026 1.613 . S
N1027 C1030 1.350 . S
N1028 S1026 1.610 . S
N1028 C1029 1.351 . S
C1029 C1023 1.428 . S
C1029 N1028 1.351 . S
C1029 C1030 1.434 . S
C1030 C1021 1.429 . S
C1030 N1027 1.350 . S
C1030 C1029 1.434 . S
C1031 C1032 1.369 . S
C1031 C1033 1.419 . S
C1031 H1035 0.930 . S
C1032 C1031 1.369 . S
C1032 C1041 1.429 . S
C1033 C1031 1.419 . S
C1033 C1034 1.363 . S
C1033 H1036 0.929 . S
C1034 C1033 1.363 . S
C1034 C1040 1.428 . S
H1035 C1031 0.930 . S
H1036 C1033 0.929 . S
S1037 N1038 1.613 . S
S1037 N1039 1.610 . S
N1038 S1037 1.613 . S
N1038 C1041 1.350 . S
N1039 S1037 1.610 . S
N1039 C1040 1.351 . S
C1040 C1034 1.428 . S
C1040 N1039 1.351 . S
C1040 C1041 1.434 . S
C1041 C1032 1.429 . S
C1041 N1038 1.350 . S
C1041 C1040 1.434 . S
C1042 C1043 1.369 . S
C1042 C1044 1.419 . S
C1042 H1046 0.930 . S
C1043 C1042 1.369 . S
C1043 C1052 1.429 . S
C1044 C1042 1.419 . S
C1044 C1045 1.363 . S
C1044 H1047 0.929 . S
C1045 C1044 1.363 . S
C1045 C1051 1.428 . S
H1046 C1042 0.930 . S
H1047 C1044 0.929 . S
S1048 N1049 1.613 . S
S1048 N1050 1.610 . S
N1049 S1048 1.613 . S
N1049 C1052 1.350 . S
N1050 S1048 1.610 . S
N1050 C1051 1.351 . S
C1051 C1045 1.428 . S
C1051 N1050 1.351 . S
C1051 C1052 1.434 . S
C1052 C1043 1.429 . S
C1052 N1049 1.350 . S
C1052 C1051 1.434 . S
C1053 C1054 1.369 . S
C1053 C1055 1.419 . S
C1053 H1057 0.930 . S
C1054 C1053 1.369 . S
C1054 C1063 1.429 . S
C1055 C1053 1.419 . S
C1055 C1056 1.363 . S
C1055 H1058 0.929 . S
C1056 C1055 1.363 . S
C1056 C1062 1.428 . S
H1057 C1053 0.930 . S
H1058 C1055 0.929 . S
S1059 N1060 1.613 . S
S1059 N1061 1.610 . S
N1060 S1059 1.613 . S
N1060 C1063 1.350 . S
N1061 S1059 1.610 . S
N1061 C1062 1.351 . S
C1062 C1056 1.428 . S
C1062 N1061 1.351 . S
C1062 C1063 1.434 . S
C1063 C1054 1.429 . S
C1063 N1060 1.350 . S
C1063 C1062 1.434 . S
C1064 C1065 1.369 . S
C1064 C1066 1.419 . S
C1064 H1068 0.930 . S
C1065 C1064 1.369 . S
C1065 C1074 1.429 . S
C1066 C1064 1.419 . S
C1066 C1067 1.363 . S
C1066 H1069 0.929 . S
C1067 C1066 1.363 . S
C1067 C1073 1.428 . S
H1068 C1064 0.930 . S
H1069 C1066 0.929 . S
S1070 N1071 1.613 . S
S1070 N1072 1.610 . S
N1071 S1070 1.613 . S
N1071 C1074 1.350 . S
N1072 S1070 1.610 . S
N1072 C1073 1.351 . S
C1073 C1067 1.428 . S
C1073 N1072 1.351 . S
C1073 C1074 1.434 . S
C1074 C1065 1.429 . S
C1074 N1071 1.350 . S
C1074 C1073 1.434 . S
C1075 C1076 1.369 . S
C1075 C1077 1.419 . S
C1075 H1079 0.930 . S
C1076 C1075 1.369 . S
C1076 C1085 1.429 . S
C1077 C1075 1.419 . S
C1077 C1078 1.363 . S
C1077 H1080 0.929 . S
C1078 C1077 1.363 . S
C1078 C1084 1.428 . S
H1079 C1075 0.930 . S
H1080 C1077 0.929 . S
S1081 N1082 1.613 . S
S1081 N1083 1.610 . S
N1082 S1081 1.613 . S
N1082 C1085 1.350 . S
N1083 S1081 1.610 . S
N1083 C1084 1.351 . S
C1084 C1078 1.428 . S
C1084 N1083 1.351 . S
C1084 C1085 1.434 . S
C1085 C1076 1.429 . S
C1085 N1082 1.350 . S
C1085 C1084 1.434 . S
C1086 C1087 1.369 . S
C1086 C1088 1.419 . S
C1086 H1090 0.930 . S
C1087 C1086 1.369 . S
C1087 C1096 1.429 . S
C1088 C1086 1.419 . S
C1088 C1089 1.363 . S
C1088 H1091 0.929 . S
C1089 C1088 1.363 . S
C1089 C1095 1.428 . S
H1090 C1086 0.930 . S
H1091 C1088 0.929 . S
S1092 N1093 1.613 . S
S1092 N1094 1.610 . S
N1093 S1092 1.613 . S
N1093 C1096 1.350 . S
N1094 S1092 1.610 . S
N1094 C1095 1.351 . S
C1095 C1089 1.428 . S
C1095 N1094 1.351 . S
C1095 C1096 1.434 . S
C1096 C1087 1.429 . S
C1096 N1093 1.350 . S
C1096 C1095 1.434 . S
C1097 C1098 1.369 . S
C1097 C1099 1.419 . S
C1097 H1101 0.930 . S
C1098 C1097 1.369 . S
C1098 C1107 1.429 . S
C1099 C1097 1.419 . S
C1099 C1100 1.363 . S
C1099 H1102 0.929 . S
C1100 C1099 1.363 . S
C1100 C1106 1.428 . S
H1101 C1097 0.930 . S
H1102 C1099 0.929 . S
S1103 N1104 1.613 . S
S1103 N1105 1.610 . S
N1104 S1103 1.613 . S
N1104 C1107 1.350 . S
N1105 S1103 1.610 . S
N1105 C1106 1.351 . S
C1106 C1100 1.428 . S
C1106 N1105 1.351 . S
C1106 C1107 1.434 . S
C1107 C1098 1.429 . S
C1107 N1104 1.350 . S
C1107 C1106 1.434 . S
C1108 C1109 1.369 . S
C1108 C1110 1.419 . S
C1108 H1112 0.930 . S
C1109 C1108 1.369 . S
C1109 C1118 1.429 . S
C1110 C1108 1.419 . S
C1110 C1111 1.363 . S
C1110 H1113 0.929 . S
C1111 C1110 1.363 . S
C1111 C1117 1.428 . S
H1112 C1108 0.930 . S
H1113 C1110 0.929 . S
S1114 N1115 1.613 . S
S1114 N1116 1.610 . S
N1115 S1114 1.613 . S
N1115 C1118 1.350 . S
N1116 S1114 1.610 . S
N1116 C1117 1.351 . S
C1117 C1111 1.428 . S
C1117 N1116 1.351 . S
C1117 C1118 1.434 . S
C1118 C1109 1.429 . S
C1118 N1115 1.350 . S
C1118 C1117 1.434 . S
C1119 C1120 1.369 . S
C1119 C1121 1.419 . S
C1119 H1123 0.930 . S
C1120 C1119 1.369 . S
C1120 C1129 1.429 . S
C1121 C1119 1.419 . S
C1121 C1122 1.363 . S
C1121 H1124 0.929 . S
C1122 C1121 1.363 . S
C1122 C1128 1.428 . S
H1123 C1119 0.930 . S
H1124 C1121 0.929 . S
S1125 N1126 1.613 . S
S1125 N1127 1.610 . S
N1126 S1125 1.613 . S
N1126 C1129 1.350 . S
N1127 S1125 1.610 . S
N1127 C1128 1.351 . S
C1128 C1122 1.428 . S
C1128 N1127 1.351 . S
C1128 C1129 1.434 . S
C1129 C1120 1.429 . S
C1129 N1126 1.350 . S
C1129 C1128 1.434 . S
C1130 C1131 1.369 . S
C1130 C1132 1.419 . S
C1130 H1134 0.930 . S
C1131 C1130 1.369 . S
C1131 C1140 1.429 . S
C1132 C1130 1.419 . S
C1132 C1133 1.363 . S
C1132 H1135 0.929 . S
C1133 C1132 1.363 . S
C1133 C1139 1.428 . S
H1134 C1130 0.930 . S
H1135 C1132 0.929 . S
S1136 N1137 1.613 . S
S1136 N1138 1.610 . S
N1137 S1136 1.613 . S
N1137 C1140 1.350 . S
N1138 S1136 1.610 . S
N1138 C1139 1.351 . S
C1139 C1133 1.428 . S
C1139 N1138 1.351 . S
C1139 C1140 1.434 . S
C1140 C1131 1.429 . S
C1140 N1137 1.350 . S
C1140 C1139 1.434 . S
C1141 C1142 1.369 . S
C1141 C1143 1.419 . S
C1141 H1145 0.930 . S
C1142 C1141 1.369 . S
C1142 C1151 1.429 . S
C1143 C1141 1.419 . S
C1143 C1144 1.363 . S
C1143 H1146 0.929 . S
C1144 C1143 1.363 . S
C1144 C1150 1.428 . S
H1145 C1141 0.930 . S
H1146 C1143 0.929 . S
S1147 N1148 1.613 . S
S1147 N1149 1.610 . S
N1148 S1147 1.613 . S
N1148 C1151 1.350 . S
N1149 S1147 1.610 . S
N1149 C1150 1.351 . S
C1150 C1144 1.428 . S
C1150 N1149 1.351 . S
C1150 C1151 1.434 . S
C1151 C1142 1.429 . S
C1151 N1148 1.350 . S
C1151 C1150 1.434 . S
C449 C135 1.210 . S
C451 C3 1.340 . S
C460 C17 1.338 1_455 S
C462 C373 1.216 . S
C471 C163 1.212 . S
C473 C31 1.342 . S
C482 C345 1.207 . S
C484 C45 1.340 . S
C493 C59 1.339 . S
C495 C219 1.218 . S
C504 C401 1.204 . S
C506 C73 1.341 . S
C515 C87 1.343 . S
C517 C191 1.209 . S
C526 C429 1.219 . S
C528 C101 1.340 1_455 S
C537 C23 1.219 . S
C539 C115 1.340 . S
C548 C129 1.340 1_655 S
C550 C261 1.216 . S
C559 C51 1.214 . S
C561 C143 1.341 . S
C570 C157 1.338 . S
C572 C233 1.218 . S
C581 C171 1.341 . S
C583 C107 1.208 . S
C592 C289 1.220 . S
C594 C185 1.339 . S
C603 C199 1.339 . S
C605 C79 1.212 . S
C614 C317 1.204 . S
C616 C213 1.341 1_655 S
C625 C359 1.220 . S
C627 C227 1.339 . S
C636 C149 1.214 . S
C638 C241 1.339 . S
C647 C255 1.342 . S
C649 C387 1.206 . S
C658 C121 1.203 . S
C660 C269 1.342 1_655 S
C669 C443 1.208 . S
C671 C283 1.342 . S
C680 C297 1.338 1_655 S
C682 C177 1.218 . S
C691 C415 1.213 . S
C693 C311 1.342 . S
C702 C205 1.212 . S
C704 C325 1.342 . S
C713 C247 1.203 . S
C715 C339 1.342 . S
C724 C353 1.341 . S
C726 C37 1.214 . S
C735 C367 1.338 . S
C737 C275 1.217 . S
C746 C381 1.343 1_455 S
C748 C9 1.207 . S
C757 C331 1.212 . S
C759 C395 1.340 . S
C768 C409 1.338 1_455 S
C770 C65 1.216 . S
C779 C423 1.338 . S
C781 C303 1.217 . S
C790 C437 1.342 . S
C792 C93 1.205 . S
C801 C344 1.598 . S
C803 C8 1.605 . S
C812 C22 1.607 . S
C814 C134 1.599 . S
C823 C36 1.600 . S
C825 C372 1.604 . S
C834 C50 1.601 . S
C836 C162 1.604 . S
C845 C64 1.607 . S
C847 C400 1.598 . S
C856 C78 1.606 . S
C858 C190 1.599 . S
C867 C428 1.599 . S
C869 C92 1.605 . S
C878 C106 1.599 . S
C880 C218 1.605 . S
C889 C120 1.606 . S
C891 C232 1.599 . S
C900 C148 1.606 . S
C902 C260 1.599 . S
C911 C288 1.605 . S
C913 C176 1.600 . S
C922 C316 1.602 . S
C924 C204 1.602 . S
C933 C246 1.598 . S
C935 C358 1.605 . S
C944 C386 1.606 . S
C946 C274 1.599 . S
C955 C302 1.597 . S
C957 C414 1.607 . S
C966 C442 1.606 . S
C968 C330 1.600 . S
C977 C301 1.664 . S
C979 C7 1.660 . S
C988 C315 1.660 . S
C990 C21 1.663 . S
C999 C35 1.662 . S
C1001 C329 1.657 . S
C1010 C287 1.663 . S
C1012 C49 1.661 . S
C1021 C273 1.656 . S
C1023 C63 1.661 . S
C1032 C231 1.663 . S
C1034 C77 1.661 . S
C1043 C91 1.656 . S
C1045 C245 1.659 . S
C1054 C259 1.662 . S
C1056 C105 1.662 . S
C1065 C413 1.657 . S
C1067 C119 1.662 . S
C1076 C427 1.663 . S
C1078 C133 1.661 . S
C1087 C441 1.657 . S
C1089 C147 1.661 . S
C1098 C161 1.657 . S
C1100 C399 1.657 . S
C1109 C385 1.664 . S
C1111 C175 1.660 . S
C1120 C343 1.662 . S
C1122 C189 1.657 . S
C1131 C357 1.656 . S
C1133 C203 1.659 . S
C1142 C371 1.657 . S
C1144 C217 1.661 . S
