# Generated by pormake.
# Topology mmt, (4)-cn, num edge types: 1
# Building blocks:
#     Node 0, Type 0, BuildingBlock: ICAMEG_clean_sbu_1, # of connection points: 4
#     Node 1, Type 0, BuildingBlock: ICAMEG_clean_sbu_1, # of connection points: 4
#     Node 2, Type 0, BuildingBlock: ICAMEG_clean_sbu_1, # of connection points: 4
#     Node 3, Type 0, BuildingBlock: ICAMEG_clean_sbu_1, # of connection points: 4
#     Node 4, Type 0, BuildingBlock: ICAMEG_clean_sbu_1, # of connection points: 4
#     Node 5, Type 0, BuildingBlock: ICAMEG_clean_sbu_1, # of connection points: 4
#     Node 6, Type 0, BuildingBlock: ICAMEG_clean_sbu_1, # of connection points: 4
#     Node 7, Type 0, BuildingBlock: ICAMEG_clean_sbu_1, # of connection points: 4
#     Edge 8, Type (0, 0), BuildingBlock: OJICUG_clean_linker_0, # of connection points: 2
#     Edge 9, Type (0, 0), BuildingBlock: OJICUG_clean_linker_0, # of connection points: 2
#     Edge 10, Type (0, 0), BuildingBlock: OJICUG_clean_linker_0, # of connection points: 2
#     Edge 11, Type (0, 0), BuildingBlock: OJICUG_clean_linker_0, # of connection points: 2
#     Edge 12, Type (0, 0), BuildingBlock: OJICUG_clean_linker_0, # of connection points: 2
#     Edge 13, Type (0, 0), BuildingBlock: OJICUG_clean_linker_0, # of connection points: 2
#     Edge 14, Type (0, 0), BuildingBlock: OJICUG_clean_linker_0, # of connection points: 2
#     Edge 15, Type (0, 0), BuildingBlock: OJICUG_clean_linker_0, # of connection points: 2
#     Edge 16, Type (0, 0), BuildingBlock: OJICUG_clean_linker_0, # of connection points: 2
#     Edge 17, Type (0, 0), BuildingBlock: OJICUG_clean_linker_0, # of connection points: 2
#     Edge 18, Type (0, 0), BuildingBlock: OJICUG_clean_linker_0, # of connection points: 2
#     Edge 19, Type (0, 0), BuildingBlock: OJICUG_clean_linker_0, # of connection points: 2
#     Edge 20, Type (0, 0), BuildingBlock: OJICUG_clean_linker_0, # of connection points: 2
#     Edge 21, Type (0, 0), BuildingBlock: OJICUG_clean_linker_0, # of connection points: 2
#     Edge 22, Type (0, 0), BuildingBlock: OJICUG_clean_linker_0, # of connection points: 2
#     Edge 23, Type (0, 0), BuildingBlock: OJICUG_clean_linker_0, # of connection points: 2
# Relax obj value: 0.090
# Max RMSD: 0.129
# Mean RMSD: 0.129
data_MOF--net-mmt--node1-ICAMEG_clean_sbu_1--edge1-OJICUG_clean_linker_0
_symmetry_space_group_name_H-M    P1
_symmetry_Int_Tables_number       1
_symmetry_cell_setting            triclinic
loop_
_symmetry_equiv_pos_as_xyz
'x, y, z'
_cell_length_a     17.68401
_cell_length_b     31.499465
_cell_length_c     31.46075
_cell_angle_alpha  90.001446
_cell_angle_beta   90.010427
_cell_angle_gamma 90.1668
loop_
_atom_site_label
_atom_site_type_symbol
_atom_site_fract_x
_atom_site_fract_y
_atom_site_fract_z
_atom_type_partial_charge
Co0 Co 0.20172 0.53182 0.35512 0.0
Co1 Co 0.09647 0.62337 0.36251 0.0
O2 O 0.19368 0.59423 0.35282 0.0
C3 C 0.31162 0.55879 0.28532 0.0
O4 O 0.29878 0.59941 0.29081 0.0
C5 C 0.21363 0.67951 0.4056 0.0
O6 O 0.26057 0.64759 0.40944 0.0
O7 O 0.08611 0.59465 0.41881 0.0
O8 O 0.12584 0.52919 0.40205 0.0
H9 H 0.8236 0.63023 0.40661 0.0
H10 H 0.34227 0.58494 0.36463 0.0
O11 O 0.27777 0.53084 0.30767 0.0
H12 H 0.3319 0.49516 0.49256 0.0
H13 H 0.33759 0.39145 0.35102 0.0
H14 H 0.08981 0.46185 0.36309 0.0
H15 H 0.23232 0.49012 0.43814 0.0
H16 H 0.3286 0.46954 0.35012 0.0
O17 O 0.14817 0.67372 0.38969 0.0
H18 H 0.94574 0.59525 0.39303 0.0
H19 H 0.04169 0.71275 0.35396 0.0
H20 H 0.09637 0.3837 0.36455 0.0
H21 H 0.4436 0.59036 0.41768 0.0
H22 H 0.22094 0.34798 0.35846 0.0
H23 H 0.43902 0.5453 0.48241 0.0
O24 O 0.11943 0.526 0.3123 0.0
H25 H 0.23577 0.70351 0.24839 0.0
H26 H 0.9938 0.6365 0.28817 0.0
H27 H 1.00672 0.66992 0.21776 0.0
H28 H 0.12838 0.70395 0.1975 0.0
H29 H 0.22064 0.66909 0.31818 0.0
H30 H 0.92072 0.74901 0.36743 0.0
H31 H 0.81048 0.70768 0.39379 0.0
O32 O 0.03905 0.57581 0.33497 0.0
C33 C 0.09126 0.55489 0.42649 0.0
C34 C 0.87118 0.64858 0.39504 0.0
C35 C 0.92571 0.71525 0.37311 0.0
N36 N 1.00082 0.65184 0.37254 0.0
C37 C 0.94049 0.62893 0.38722 0.0
C38 C 0.99417 0.69453 0.36566 0.0
C39 C 0.86387 0.69203 0.38788 0.0
C40 C 0.3401 0.56462 0.39203 0.0
N41 N 0.28161 0.53675 0.39756 0.0
C42 C 0.39756 0.56812 0.42232 0.0
C43 C 0.39486 0.54294 0.45868 0.0
C44 C 0.33478 0.51484 0.46441 0.0
C45 C 0.27834 0.51225 0.43345 0.0
C46 C 0.28299 0.40665 0.35378 0.0
C47 C 0.1443 0.44658 0.3607 0.0
C48 C 0.2775 0.45087 0.35317 0.0
N49 N 0.20875 0.47031 0.35683 0.0
C50 C 0.14763 0.4023 0.36143 0.0
C51 C 0.21753 0.38227 0.35797 0.0
C52 C 0.054 0.54282 0.31307 0.0
C53 C 0.18246 0.6888 0.25684 0.0
C54 C 0.04714 0.65073 0.27947 0.0
C55 C 0.05401 0.66987 0.23961 0.0
C56 C 0.12223 0.689 0.22828 0.0
N57 N 0.10646 0.65063 0.30735 0.0
C58 C 0.17347 0.66934 0.29642 0.0
Co59 Co 0.31859 1.00133 0.35485 0.0
Co60 Co 0.42767 0.91165 0.36054 0.0
O61 O 0.32956 0.93934 0.35181 0.0
C62 C 0.23845 0.99003 0.27123 0.0
O63 O 0.30212 0.97913 0.2528 0.0
C64 C 0.31473 0.85433 0.40526 0.0
O65 O 0.26858 0.88623 0.41149 0.0
O66 O 0.43809 0.94029 0.41693 0.0
O67 O 0.39767 1.00562 0.40002 0.0
H68 H 0.70181 0.90817 0.40255 0.0
H69 H 0.1807 0.94781 0.36297 0.0
O70 O 0.23683 0.99878 0.31067 0.0
H71 H 0.19386 0.03069 0.49574 0.0
H72 H 0.17124 0.13799 0.35453 0.0
H73 H 0.42523 0.07407 0.36074 0.0
H74 H 0.29117 0.03946 0.44035 0.0
H75 H 0.18655 0.06024 0.35297 0.0
O76 O 0.37857 0.86043 0.38752 0.0
H77 H 0.57795 0.94161 0.39001 0.0
H78 H 0.48595 0.82308 0.35106 0.0
H79 H 0.41238 0.15194 0.3628 0.0
H80 H 0.08145 0.9386 0.41725 0.0
H81 H 0.28466 0.18441 0.35966 0.0
H82 H 0.08774 0.98015 0.48428 0.0
O83 O 0.39941 1.00925 0.31087 0.0
H84 H 0.28638 0.83353 0.24591 0.0
H85 H 0.52953 0.89928 0.28569 0.0
H86 H 0.5154 0.8668 0.21488 0.0
H87 H 0.39316 0.83342 0.19463 0.0
H88 H 0.30274 0.8669 0.31618 0.0
H89 H 0.60869 0.78834 0.3635 0.0
H90 H 0.71781 0.83097 0.38927 0.0
O91 O 0.48192 0.96015 0.33296 0.0
C92 C 0.43302 0.98013 0.42439 0.0
C93 C 0.65474 0.88926 0.39124 0.0
C94 C 0.60244 0.822 0.36938 0.0
N95 N 0.52474 0.88442 0.36966 0.0
C96 C 0.58445 0.90804 0.38401 0.0
C97 C 0.53298 0.84185 0.36252 0.0
C98 C 0.66366 0.84594 0.38382 0.0
C99 C 0.18357 0.96625 0.39189 0.0
N100 N 0.24183 0.99408 0.39844 0.0
C101 C 0.12734 0.96077 0.4226 0.0
C102 C 0.13097 0.98403 0.46023 0.0
C103 C 0.19055 1.01235 0.46671 0.0
C104 C 0.24577 1.01699 0.4353 0.0
C105 C 0.22719 0.12422 0.35599 0.0
C106 C 0.36941 0.0879 0.3596 0.0
C107 C 0.23626 0.08019 0.35501 0.0
N108 N 0.30674 0.06256 0.35699 0.0
C109 C 0.36251 0.13205 0.36068 0.0
C110 C 0.29084 0.15025 0.35888 0.0
C111 C 0.46564 0.99308 0.31128 0.0
C112 C 0.34 0.84786 0.2544 0.0
C113 C 0.47608 0.88509 0.27708 0.0
C114 C 0.46846 0.8666 0.23695 0.0
C115 C 0.39989 0.84785 0.22562 0.0
N116 N 0.41721 0.88482 0.30523 0.0
C117 C 0.34971 0.86668 0.29424 0.0
Co118 Co 0.70067 0.50187 0.14013 0.0
Co119 Co 0.59481 0.41023 0.13289 0.0
O120 O 0.6924 0.43945 0.14225 0.0
C121 C 0.81185 0.47501 0.20934 0.0
O122 O 0.7987 0.43437 0.20384 0.0
C123 C 0.71092 0.35446 0.08915 0.0
O124 O 0.75745 0.38666 0.08473 0.0
O125 O 0.5837 0.43904 0.07665 0.0
O126 O 0.62365 0.50447 0.09379 0.0
H127 H 0.32125 0.40304 0.08995 0.0
H128 H 0.84103 0.44929 0.12969 0.0
O129 O 0.7778 0.50292 0.18716 0.0
H130 H 0.82749 0.53891 0.00174 0.0
H131 H 0.83725 0.64248 0.14351 0.0
H132 H 0.58886 0.57166 0.13327 0.0
H133 H 0.72921 0.54365 0.05689 0.0
H134 H 0.82792 0.56437 0.14432 0.0
O135 O 0.64583 0.35996 0.10553 0.0
H136 H 0.44377 0.43819 0.10305 0.0
H137 H 0.53958 0.32078 0.1416 0.0
H138 H 0.59574 0.64982 0.13192 0.0
H139 H 0.94108 0.44418 0.07587 0.0
H140 H 0.72061 0.68576 0.13707 0.0
H141 H 0.93489 0.48915 0.01114 0.0
O142 O 0.61929 0.50735 0.18346 0.0
H143 H 0.73505 0.33025 0.24645 0.0
H144 H 0.49307 0.39706 0.20764 0.0
H145 H 0.50669 0.36367 0.27801 0.0
H146 H 0.62836 0.32975 0.29779 0.0
H147 H 0.71923 0.36461 0.1767 0.0
H148 H 0.4182 0.28436 0.12861 0.0
H149 H 0.30785 0.32557 0.10274 0.0
O150 O 0.53817 0.45773 0.16061 0.0
C151 C 0.58828 0.47892 0.0694 0.0
C152 C 0.36888 0.38475 0.1013 0.0
C153 C 0.42332 0.31814 0.12294 0.0
N154 N 0.49882 0.38166 0.12323 0.0
C155 C 0.43842 0.40449 0.10884 0.0
C156 C 0.49201 0.33894 0.13011 0.0
C157 C 0.36141 0.34128 0.10845 0.0
C158 C 0.83821 0.46958 0.10228 0.0
N159 N 0.77957 0.49725 0.09715 0.0
C160 C 0.89493 0.46626 0.07156 0.0
C161 C 0.89132 0.49139 0.03519 0.0
C162 C 0.83108 0.51927 0.0299 0.0
C163 C 0.7754 0.5217 0.06127 0.0
C164 C 0.78252 0.62719 0.14115 0.0
C165 C 0.64347 0.58702 0.13527 0.0
C166 C 0.77684 0.58296 0.14171 0.0
N167 N 0.70791 0.56341 0.13856 0.0
C168 C 0.64699 0.63131 0.1346 0.0
C169 C 0.71706 0.65146 0.13753 0.0
C170 C 0.55363 0.4906 0.18262 0.0
C171 C 0.68174 0.3449 0.23822 0.0
C172 C 0.54641 0.38285 0.21612 0.0
C173 C 0.55367 0.36374 0.25597 0.0
C174 C 0.6219 0.34467 0.26702 0.0
N175 N 0.60534 0.38297 0.188 0.0
C176 C 0.67236 0.36432 0.19866 0.0
Co177 Co 0.82376 0.03328 0.14172 0.0
Co178 Co 0.93077 0.12286 0.12947 0.0
O179 O 0.8329 0.09554 0.1426 0.0
C180 C 0.7116 0.06181 0.21028 0.0
O181 O 0.72301 0.10242 0.20341 0.0
C182 C 0.81418 0.18032 0.08887 0.0
O183 O 0.76911 0.14794 0.08176 0.0
O184 O 0.93066 0.09494 0.07269 0.0
O185 O 0.89844 0.02936 0.09379 0.0
H186 H 0.19679 0.12629 0.07307 0.0
H187 H 0.6857 0.08781 0.12998 0.0
O188 O 0.74813 0.03361 0.18968 0.0
H189 H 0.68913 0.9912 0.00708 0.0
H190 H 0.68722 0.8929 0.15143 0.0
H191 H 0.93487 0.9632 0.13432 0.0
H192 H 0.78958 0.9879 0.06106 0.0
H193 H 0.69666 0.97099 0.14997 0.0
O194 O 0.87857 0.17459 0.10601 0.0
H195 H 0.07495 0.09296 0.09153 0.0
H196 H 0.99256 0.21093 0.13749 0.0
H197 H 0.9278 0.88505 0.1351 0.0
H198 H 0.5836 0.09159 0.07737 0.0
H199 H 0.80331 0.84937 0.14375 0.0
H200 H 0.5846 0.04306 0.01517 0.0
O201 O 0.9074 0.02917 0.18418 0.0
H202 H 0.8145 0.20258 0.2513 0.0
H203 H 0.04429 0.13098 0.19945 0.0
H204 H 0.0437 0.16257 0.27113 0.0
H205 H 0.92828 0.19884 0.29745 0.0
H206 H 0.81728 0.17012 0.18 0.0
H207 H 0.11345 0.24556 0.11928 0.0
H208 H 0.21673 0.20315 0.08695 0.0
O209 O 0.98897 0.07357 0.15294 0.0
C210 C 0.92767 0.0548 0.06675 0.0
C211 C 0.15228 0.1451 0.08721 0.0
C212 C 0.10547 0.21204 0.11309 0.0
N213 N 0.0266 0.14988 0.11569 0.0
C214 C 0.08311 0.12638 0.0978 0.0
C215 C 0.03702 0.19226 0.12322 0.0
C216 C 0.1634 0.18823 0.09497 0.0
C217 C 0.68619 0.06589 0.10385 0.0
N218 N 0.74303 0.03693 0.09962 0.0
C219 C 0.62834 0.0685 0.07372 0.0
C220 C 0.62905 0.04138 0.03876 0.0
C221 C 0.68765 1.01231 0.03421 0.0
C222 C 0.74452 1.01065 0.06497 0.0
C223 C 0.74179 0.90808 0.14759 0.0
C224 C 0.88041 0.94797 0.13785 0.0
C225 C 0.74755 0.9523 0.1469 0.0
N226 N 0.81626 0.97172 0.14186 0.0
C227 C 0.87679 0.90367 0.13837 0.0
C228 C 0.80693 0.88367 0.14326 0.0
C229 C 0.97427 0.04326 0.17843 0.0
C230 C 0.86519 0.18695 0.24016 0.0
C231 C 0.99367 0.14649 0.21072 0.0
C232 C 0.99378 0.16444 0.25131 0.0
C233 C 0.92902 0.1848 0.26605 0.0
N234 N 0.93087 0.1488 0.18546 0.0
C235 C 0.86715 0.16861 0.19976 0.0
Co236 Co 0.81868 0.50193 0.63949 0.0
Co237 Co 0.92756 0.41215 0.63419 0.0
O238 O 0.8295 0.43994 0.64275 0.0
C239 C 0.73849 0.49077 0.72308 0.0
O240 O 0.80209 0.47967 0.74148 0.0
C241 C 0.81475 0.35481 0.58937 0.0
O242 O 0.7688 0.38676 0.58286 0.0
O243 O 0.93815 0.44058 0.5777 0.0
O244 O 0.89779 0.506 0.59434 0.0
H245 H 0.20179 0.40832 0.59243 0.0
H246 H 0.68072 0.44844 0.6315 0.0
O247 O 0.7369 0.4996 0.68365 0.0
H248 H 0.69408 0.53087 0.49845 0.0
H249 H 0.67165 0.6387 0.63923 0.0
H250 H 0.92549 0.57457 0.63339 0.0
H251 H 0.79137 0.53978 0.55385 0.0
H252 H 0.68678 0.56095 0.64111 0.0
O253 O 0.87841 0.36089 0.60733 0.0
H254 H 0.07797 0.4419 0.60472 0.0
H255 H 0.98562 0.32359 0.64406 0.0
H256 H 0.91282 0.65244 0.63101 0.0
H257 H 0.58148 0.4391 0.57721 0.0
H258 H 0.78518 0.68502 0.63396 0.0
H259 H 0.58787 0.48041 0.51004 0.0
O260 O 0.89948 0.50996 0.68349 0.0
H261 H 0.78589 0.33451 0.74895 0.0
H262 H 0.02921 0.40005 0.7092 0.0
H263 H 0.01483 0.36788 0.78013 0.0
H264 H 0.8925 0.3346 0.80036 0.0
H265 H 0.80251 0.36758 0.67856 0.0
H266 H 0.10832 0.28871 0.63187 0.0
H267 H 0.2176 0.33117 0.60603 0.0
O268 O 0.98188 0.46071 0.66163 0.0
C269 C 0.93313 0.4804 0.57009 0.0
C270 C 0.15465 0.38949 0.60377 0.0
C271 C 0.10216 0.32236 0.62585 0.0
N272 N 0.02459 0.38482 0.62525 0.0
C273 C 0.08438 0.40834 0.61085 0.0
C274 C 0.03272 0.34228 0.63256 0.0
C275 C 0.16346 0.3462 0.61138 0.0
C276 C 0.68363 0.46679 0.60251 0.0
N277 N 0.74193 0.49457 0.5959 0.0
C278 C 0.62741 0.46123 0.5718 0.0
C279 C 0.6311 0.48436 0.5341 0.0
C280 C 0.69072 0.51263 0.52755 0.0
C281 C 0.74593 0.51735 0.55896 0.0
C282 C 0.72756 0.62488 0.63785 0.0
C283 C 0.8697 0.58845 0.63445 0.0
C284 C 0.73653 0.58085 0.63901 0.0
N285 N 0.80696 0.56316 0.63713 0.0
C286 C 0.8629 0.63259 0.63319 0.0
C287 C 0.79128 0.65085 0.63488 0.0
C288 C 0.96566 0.49374 0.68318 0.0
C289 C 0.83955 0.3488 0.74047 0.0
C290 C 0.97572 0.38591 0.71781 0.0
C291 C 0.96796 0.36758 0.758 0.0
C292 C 0.89934 0.3489 0.76932 0.0
N293 N 0.91694 0.38553 0.68958 0.0
C294 C 0.8494 0.36744 0.70056 0.0
Co295 Co 0.70152 0.0324 0.63921 0.0
Co296 Co 0.59626 0.12392 0.63154 0.0
O297 O 0.69348 0.09481 0.64135 0.0
C298 C 0.81151 0.05952 0.70896 0.0
O299 O 0.79876 0.10014 0.70338 0.0
C300 C 0.71358 0.18001 0.58854 0.0
O301 O 0.76063 0.14811 0.58494 0.0
O302 O 0.58591 0.09503 0.57531 0.0
O303 O 0.62564 0.02963 0.59229 0.0
H304 H 0.32342 0.13064 0.58731 0.0
H305 H 0.8421 0.08548 0.62959 0.0
O306 O 0.77758 0.03154 0.68667 0.0
H307 H 0.83165 0.99536 0.50188 0.0
H308 H 0.83741 0.89205 0.64374 0.0
H309 H 0.58962 0.9624 0.63143 0.0
H310 H 0.73209 0.99048 0.5563 0.0
H311 H 0.82841 0.97014 0.64439 0.0
O312 O 0.64797 0.17421 0.60424 0.0
H313 H 0.44554 0.0957 0.60106 0.0
H314 H 0.54147 0.21333 0.63978 0.0
H315 H 0.59618 0.88425 0.63021 0.0
H316 H 0.94341 0.09075 0.57653 0.0
H317 H 0.72075 0.84855 0.63641 0.0
H318 H 0.93878 0.04553 0.51191 0.0
O319 O 0.61925 0.02671 0.68204 0.0
H320 H 0.73551 0.20433 0.74552 0.0
H321 H 0.49349 0.13734 0.70575 0.0
H322 H 0.50632 0.17099 0.77607 0.0
H323 H 0.628 0.20502 0.79632 0.0
H324 H 0.72046 0.16968 0.67584 0.0
H325 H 0.42051 0.24955 0.62614 0.0
H326 H 0.31029 0.20813 0.59987 0.0
O327 O 0.53883 0.07643 0.6592 0.0
C328 C 0.59106 0.05524 0.56775 0.0
C329 C 0.37098 0.14903 0.59884 0.0
C330 C 0.4255 0.21576 0.62057 0.0
N331 N 0.50061 0.15236 0.62138 0.0
C332 C 0.44029 0.1294 0.60675 0.0
C333 C 0.49396 0.19508 0.62812 0.0
C334 C 0.36367 0.1925 0.60585 0.0
C335 C 0.83991 0.06509 0.60224 0.0
N336 N 0.78141 0.0372 0.59677 0.0
C337 C 0.89736 0.0685 0.57194 0.0
C338 C 0.89464 0.04323 0.53564 0.0
C339 C 0.83455 1.01512 0.52999 0.0
C340 C 0.77812 1.01261 0.56095 0.0
C341 C 0.78281 0.90723 0.64093 0.0
C342 C 0.64411 0.94715 0.63388 0.0
C343 C 0.77732 0.95146 0.64139 0.0
N344 N 0.70857 0.97088 0.63767 0.0
C345 C 0.64744 0.90286 0.63328 0.0
C346 C 0.71734 0.88285 0.63681 0.0
C347 C 0.55381 0.04352 0.6812 0.0
C348 C 0.68218 0.18963 0.73708 0.0
C349 C 0.54684 0.15157 0.71445 0.0
C350 C 0.55366 0.17083 0.75426 0.0
C351 C 0.62189 0.18996 0.76558 0.0
N352 N 0.60621 0.15134 0.68663 0.0
C353 C 0.67324 0.17004 0.69756 0.0
Co354 Co 0.32394 0.53379 0.85263 0.0
Co355 Co 0.43086 0.62336 0.86525 0.0
O356 O 0.33301 0.59606 0.85198 0.0
C357 C 0.21171 0.56248 0.78414 0.0
O358 O 0.22304 0.60308 0.79114 0.0
C359 C 0.31396 0.68075 0.90568 0.0
O360 O 0.26867 0.64839 0.91242 0.0
O361 O 0.43072 0.59524 0.92193 0.0
O362 O 0.39863 0.52972 0.90057 0.0
H363 H 0.69681 0.62665 0.9218 0.0
H364 H 0.18574 0.58817 0.86452 0.0
O365 O 0.2483 0.53425 0.80467 0.0
H366 H 0.1894 0.4912 0.98712 0.0
H367 H 0.18758 0.39339 0.84239 0.0
H368 H 0.43514 0.46373 0.85979 0.0
H369 H 0.28986 0.48813 0.93314 0.0
H370 H 0.19692 0.47147 0.84415 0.0
O371 O 0.3786 0.67502 0.88885 0.0
H372 H 0.57502 0.59336 0.90314 0.0
H373 H 0.49259 0.71147 0.85758 0.0
H374 H 0.42817 0.38558 0.85871 0.0
H375 H 0.08363 0.59172 0.91712 0.0
H376 H 0.30373 0.34988 0.84991 0.0
H377 H 0.08476 0.543 0.97917 0.0
O378 O 0.40758 0.52987 0.81018 0.0
H379 H 0.31465 0.70344 0.74361 0.0
H380 H 0.54447 0.63178 0.79538 0.0
H381 H 0.54397 0.66364 0.72382 0.0
H382 H 0.42854 0.69995 0.69754 0.0
H383 H 0.31734 0.67071 0.81478 0.0
H384 H 0.61343 0.74606 0.87599 0.0
H385 H 0.7167 0.70357 0.90822 0.0
O386 O 0.48911 0.57416 0.84163 0.0
C387 C 0.42779 0.55507 0.92772 0.0
C388 C 0.6523 0.64551 0.9077 0.0
C389 C 0.60546 0.71252 0.88205 0.0
N390 N 0.52665 0.65035 0.87917 0.0
C391 C 0.58316 0.6268 0.897 0.0
C392 C 0.53704 0.69276 0.8718 0.0
C393 C 0.6634 0.68866 0.90011 0.0
C394 C 0.18629 0.56618 0.89058 0.0
N395 N 0.2432 0.53725 0.89474 0.0
C396 C 0.12843 0.56865 0.92071 0.0
C397 C 0.12921 0.54143 0.95558 0.0
C398 C 0.18788 0.51239 0.96005 0.0
C399 C 0.24475 0.51086 0.9293 0.0
C400 C 0.24213 0.40858 0.84629 0.0
C401 C 0.3807 0.44848 0.8562 0.0
C402 C 0.24784 0.4528 0.84716 0.0
N403 N 0.31652 0.47222 0.85227 0.0
C404 C 0.37714 0.40419 0.85551 0.0
C405 C 0.30731 0.38418 0.85053 0.0
C406 C 0.47444 0.54395 0.816 0.0
C407 C 0.36535 0.68779 0.75473 0.0
C408 C 0.49384 0.64731 0.78412 0.0
C409 C 0.494 0.66541 0.7436 0.0
C410 C 0.42924 0.68579 0.72889 0.0
N411 N 0.43099 0.64948 0.80934 0.0
C412 C 0.36726 0.6693 0.79506 0.0
Co413 Co 0.20057 1.0024 0.8542 0.0
Co414 Co 0.09474 0.91072 0.8611 0.0
O415 O 0.19232 0.93998 0.85189 0.0
C416 C 0.31171 0.97572 0.78494 0.0
O417 O 0.29849 0.93508 0.79032 0.0
C418 C 0.21067 0.85489 0.90494 0.0
O419 O 0.25706 0.88711 0.90964 0.0
O420 O 0.08356 0.93934 0.91742 0.0
O421 O 0.12353 1.00483 0.90054 0.0
H422 H 0.82112 0.90335 0.90383 0.0
H423 H 0.34091 0.94977 0.86453 0.0
O424 O 0.27772 1.00359 0.8072 0.0
H425 H 0.32737 0.03902 0.99274 0.0
H426 H 0.3371 0.14303 0.85134 0.0
H427 H 0.08873 0.07215 0.86126 0.0
H428 H 0.2291 0.04392 0.93757 0.0
H429 H 0.3278 0.06493 0.85024 0.0
O430 O 0.14574 0.86038 0.88834 0.0
H431 H 0.94366 0.93855 0.89095 0.0
H432 H 0.03956 0.8213 0.85204 0.0
H433 H 0.09558 0.1503 0.86289 0.0
H434 H 0.44095 0.94449 0.91835 0.0
H435 H 0.22044 0.18628 0.85789 0.0
H436 H 0.43475 0.98927 0.98322 0.0
O437 O 0.1192 1.00801 0.81086 0.0
H438 H 0.23515 0.83106 0.74741 0.0
H439 H 0.99316 0.89785 0.7862 0.0
H440 H 1.00694 0.86471 0.71572 0.0
H441 H 0.12861 0.8308 0.69595 0.0
H442 H 0.21918 0.86517 0.81728 0.0
H443 H 0.91817 0.78482 0.8648 0.0
H444 H 0.80776 0.82592 0.89074 0.0
O445 O 0.03812 0.95829 0.8335 0.0
C446 C 0.08815 0.97919 0.92481 0.0
C447 C 0.86877 0.8851 0.89245 0.0
C448 C 0.92327 0.81858 0.87061 0.0
N449 N 0.99875 0.8821 0.8706 0.0
C450 C 0.93832 0.90488 0.88504 0.0
C451 C 0.99196 0.83941 0.86356 0.0
C452 C 0.86133 0.84166 0.88513 0.0
C453 C 0.33808 0.96998 0.892 0.0
N454 N 0.27946 0.99764 0.89719 0.0
C455 C 0.3948 0.96656 0.92272 0.0
C456 C 0.39119 0.99159 0.95916 0.0
C457 C 0.33096 0.01946 0.96453 0.0
C458 C 0.27528 0.02199 0.93314 0.0
C459 C 0.28237 0.12773 0.85362 0.0
C460 C 0.14334 0.08752 0.85933 0.0
C461 C 0.27671 0.0835 0.8529 0.0
N462 N 0.20779 0.06393 0.85597 0.0
C463 C 0.14684 0.13181 0.86016 0.0
C464 C 0.2169 0.15197 0.85731 0.0
C465 C 0.05355 0.99125 0.81162 0.0
C466 C 0.18183 0.8457 0.75564 0.0
C467 C 0.0465 0.88364 0.77773 0.0
C468 C 0.05386 0.86468 0.73782 0.0
C469 C 0.12208 0.84561 0.72677 0.0
N470 N 0.10535 0.88363 0.80591 0.0
C471 C 0.17237 0.86498 0.79526 0.0
C472 C 0.364 0.50423 0.23672 0.0
C473 C 0.37133 0.54414 0.25604 0.0
H474 H 0.41414 0.45678 0.19785 0.0
C475 C 0.43835 0.56748 0.25001 0.0
H476 H 0.31286 0.48561 0.24074 0.0
C477 C 0.49814 0.55029 0.22627 0.0
C478 C 0.49115 0.50986 0.20754 0.0
H479 H 0.44559 0.59822 0.26491 0.0
H480 H 0.54977 0.56854 0.22278 0.0
C481 C 0.42258 0.48757 0.21236 0.0
C482 C 0.03293 1.01007 0.24304 0.0
C483 C 0.03911 0.02377 0.20077 0.0
H484 H 0.09178 0.98894 0.29874 0.0
C485 C 0.11015 0.02216 0.18065 0.0
H486 H 0.97899 1.01113 0.25932 0.0
C487 C 0.17432 1.00869 0.20279 0.0
C488 C 0.16914 0.99748 0.24584 0.0
H489 H 0.11644 0.03229 0.14792 0.0
H490 H 0.22853 1.00915 0.18677 0.0
C491 C 0.09755 0.99754 0.26555 0.0
C492 C 0.86467 0.52954 0.25816 0.0
C493 C 0.87168 0.48969 0.23872 0.0
H494 H 0.91492 0.57676 0.29753 0.0
C495 C 0.9383 0.46626 0.24499 0.0
H496 H 0.81382 0.54822 0.25401 0.0
C497 C 0.99802 0.4833 0.26907 0.0
C498 C 0.99137 0.52367 0.28795 0.0
H499 H 0.94531 0.43554 0.23005 0.0
H500 H 0.04935 0.46498 0.27271 0.0
C501 C 0.92316 0.54603 0.2829 0.0
C502 C 0.65696 1.00754 0.25877 0.0
C503 C 0.65033 0.0472 0.23895 0.0
H504 H 0.60578 0.96021 0.29738 0.0
C505 C 0.58265 0.07013 0.24384 0.0
H506 H 0.70835 0.98913 0.25569 0.0
C507 C 0.52187 0.05285 0.26708 0.0
C508 C 0.5284 1.01269 0.28639 0.0
H509 H 0.57576 0.10066 0.2285 0.0
H510 H 0.46995 0.07081 0.26979 0.0
C511 C 0.59744 0.99081 0.28249 0.0
C512 C 0.61034 0.5229 0.81371 0.0
C513 C 0.53928 0.52454 0.7936 0.0
H514 H 0.7287 0.50985 0.80755 0.0
C515 C 0.53304 0.51093 0.7513 0.0
H516 H 0.61668 0.53297 0.84645 0.0
C517 C 0.59762 0.4984 0.72877 0.0
C518 C 0.66923 0.49828 0.74847 0.0
H519 H 0.47909 0.51201 0.73504 0.0
H520 H 0.59182 0.48985 0.69558 0.0
C521 C 0.67447 0.50944 0.79154 0.0
C522 C 0.93827 0.0682 0.74429 0.0
C523 C 0.87122 0.04488 0.73826 0.0
H524 H 0.04973 0.06922 0.7715 0.0
C525 C 0.86386 1.00498 0.75758 0.0
H526 H 0.94553 0.09894 0.72938 0.0
C527 C 0.92246 0.9883 0.78193 0.0
C528 C 0.99106 1.01055 0.78673 0.0
H529 H 0.8127 0.98637 0.75358 0.0
H530 H 0.914 0.9575 0.79643 0.0
C531 C 0.99807 0.05099 0.76802 0.0
C532 C 0.15704 0.50824 0.73563 0.0
C533 C 0.15044 0.5479 0.75545 0.0
H534 H 0.10582 0.46089 0.69706 0.0
C535 C 0.08275 0.57084 0.75056 0.0
H536 H 0.20843 0.48983 0.73872 0.0
C537 C 0.02195 0.55355 0.72732 0.0
C538 C 0.02845 0.51338 0.70803 0.0
H539 H 0.07588 0.60137 0.76589 0.0
H540 H 0.97004 0.57151 0.72461 0.0
C541 C 0.0975 0.4915 0.71193 0.0
C542 C 0.43813 0.96699 0.74928 0.0
C543 C 0.37155 0.99044 0.75559 0.0
H544 H 0.54912 0.96568 0.72153 0.0
C545 C 0.36457 0.03032 0.7362 0.0
H546 H 0.44511 0.93625 0.76419 0.0
C547 C 0.42304 0.0468 0.71145 0.0
C548 C 0.4912 0.0244 0.70635 0.0
H549 H 0.31375 0.04902 0.74038 0.0
H550 H 0.41483 0.07753 0.69684 0.0
C551 C 0.49783 0.98402 0.7252 0.0
C552 C 0.0583 0.49251 0.47276 0.0
C553 C 0.05215 0.53632 0.46396 0.0
H554 H 0.02574 0.44048 0.51266 0.0
C555 C 1.006 0.56126 0.49016 0.0
H556 H 0.0931 0.4721 0.45322 0.0
C557 C 0.96697 0.5429 0.5242 0.0
C558 C 0.973 0.49908 0.53294 0.0
H559 H 0.99944 0.59493 0.48425 0.0
H560 H 0.93204 0.56329 0.54369 0.0
C561 C 0.01928 0.47415 0.50679 0.0
C562 C 0.51915 0.97418 0.48774 0.0
C563 C 0.47284 0.99898 0.46149 0.0
H564 H 0.59297 0.97236 0.54133 0.0
C565 C 0.46676 0.04284 0.47006 0.0
H566 H 0.52566 0.94048 0.482 0.0
C567 C 0.50577 0.06135 0.50403 0.0
C568 C 0.55196 0.03652 0.53035 0.0
H569 H 0.43181 0.06314 0.45048 0.0
H570 H 0.49918 0.09503 0.50982 0.0
C571 C 0.55815 0.99269 0.52171 0.0
C572 C 0.55098 0.54207 0.02557 0.0
C573 C 0.54746 0.49787 0.03273 0.0
H574 H 0.51571 0.59478 0.98758 0.0
C575 C 0.50245 0.47296 0.00569 0.0
H576 H 0.58475 0.56251 0.04576 0.0
C577 C 0.46254 0.49171 0.9722 0.0
C578 C 0.46638 0.53589 0.96499 0.0
H579 H 0.49785 0.43898 0.0104 0.0
H580 H 0.429 0.47137 0.95178 0.0
C581 C 0.51089 0.56081 0.99225 0.0
C582 C 0.05086 0.04217 0.96889 0.0
C583 C 0.04733 0.99801 0.96154 0.0
H584 H 0.01561 0.09473 0.00708 0.0
C585 C 1.00229 0.97299 0.98846 0.0
H586 H 0.08465 0.06269 0.94879 0.0
C587 C 0.96238 0.99161 0.02202 0.0
C588 C 0.96625 0.03576 0.02941 0.0
H589 H 0.99768 0.93903 0.98362 0.0
H590 H 0.92883 0.9712 0.04235 0.0
C591 C 1.01077 0.06078 0.00227 0.0
C592 C 0.31743 0.73388 0.4128 0.0
C593 C 0.23991 0.72392 0.41266 0.0
H594 H 0.40181 0.7828 0.41062 0.0
C595 C 0.18743 0.75743 0.41477 0.0
H596 H 0.35941 0.70896 0.41107 0.0
C597 C 0.21175 0.79985 0.41496 0.0
C598 C 0.28913 0.80982 0.41241 0.0
H599 H 0.12725 0.75093 0.41489 0.0
H600 H 0.16969 0.82478 0.41495 0.0
C601 C 0.34171 0.77629 0.41236 0.0
C602 C 0.7101 0.23405 0.08047 0.0
C603 C 0.78765 0.22465 0.08236 0.0
H604 H 0.62504 0.28239 0.08106 0.0
C605 C 0.83983 0.25853 0.08193 0.0
H606 H 0.66838 0.2088 0.08086 0.0
C607 C 0.81505 0.30077 0.08152 0.0
C608 C 0.73745 0.31019 0.0822 0.0
H609 H 0.90005 0.25245 0.08313 0.0
H610 H 0.8568 0.32597 0.08279 0.0
C611 C 0.68529 0.2763 0.08072 0.0
C612 C 0.68747 0.25795 0.57934 0.0
C613 C 0.73992 0.22442 0.58158 0.0
H614 H 0.66977 0.3253 0.57919 0.0
C615 C 0.81744 0.23437 0.58173 0.0
H616 H 0.62729 0.25145 0.57902 0.0
C617 C 0.84174 0.27678 0.5823 0.0
C618 C 0.78917 0.31031 0.58211 0.0
H619 H 0.8594 0.20946 0.58357 0.0
H620 H 0.90182 0.28328 0.58425 0.0
C621 C 0.71181 0.30036 0.57929 0.0
C622 C 0.2098 0.73448 0.91365 0.0
C623 C 0.28738 0.72508 0.9121 0.0
H624 H 0.12474 0.78282 0.91266 0.0
C625 C 0.33954 0.75897 0.91273 0.0
H626 H 0.16809 0.70924 0.91308 0.0
C627 C 0.31475 0.80121 0.913 0.0
C628 C 0.23715 0.81062 0.91198 0.0
H629 H 0.39977 0.75289 0.91179 0.0
H630 H 0.3565 0.82642 0.9119 0.0
C631 C 0.18499 0.77673 0.91326 0.0
loop_
_geom_bond_atom_site_label_1
_geom_bond_atom_site_label_2
_geom_bond_distance
_geom_bond_site_symmetry_2
_ccdc_geom_bond_type
Co0 O2 2.143 . S
Co0 O8 2.074 . S
Co0 O11 2.093 . S
Co0 O24 2.097 . S
Co0 N41 2.151 . S
Co0 N49 2.214 . S
Co1 O2 2.160 . S
Co1 O7 2.058 . S
Co1 O17 2.057 . S
Co1 O32 2.037 . S
Co1 N36 2.145 1_455 S
Co1 N57 2.257 . S
O2 Co0 2.143 . S
O2 Co1 2.160 . S
C3 O4 1.278 . S
C3 O11 1.224 . S
O4 C3 1.278 . S
C5 O6 1.245 . S
C5 O17 1.232 . S
O6 C5 1.245 . S
O7 Co1 2.058 . S
O7 C33 1.269 . S
O8 Co0 2.074 . S
O8 C33 1.257 . S
H9 C34 0.930 . S
H10 C40 0.930 . S
O11 Co0 2.093 . S
O11 C3 1.224 . S
H12 C44 0.929 . S
H13 C46 0.930 . S
H14 C47 0.930 . S
H15 C45 0.929 . S
H16 C48 0.928 . S
O17 Co1 2.057 . S
O17 C5 1.232 . S
H18 C37 0.929 . S
H19 C38 0.929 1_455 S
H20 C50 0.931 . S
H21 C42 0.929 . S
H22 C51 0.930 . S
H23 C43 0.931 . S
O24 Co0 2.097 . S
O24 C52 1.214 . S
H25 C53 0.929 . S
H26 C54 0.929 . S
H27 C55 0.930 . S
H28 C56 0.929 . S
H29 C58 0.930 . S
H30 C35 0.930 . S
H31 C39 0.930 . S
O32 Co1 2.037 . S
O32 C52 1.234 . S
C33 O7 1.269 . S
C33 O8 1.257 . S
C34 H9 0.930 . S
C34 C37 1.388 . S
C34 C39 1.418 . S
C35 H30 0.930 . S
C35 C38 1.404 . S
C35 C39 1.353 . S
N36 Co1 2.145 1_655 S
N36 C37 1.397 . S
N36 C38 1.334 . S
C37 H18 0.929 . S
C37 C34 1.388 . S
C37 N36 1.397 . S
C38 H19 0.929 1_655 S
C38 C35 1.404 . S
C38 N36 1.334 . S
C39 H31 0.930 . S
C39 C34 1.418 . S
C39 C35 1.353 . S
C40 H10 0.930 . S
C40 N41 1.330 . S
C40 C42 1.446 . S
N41 Co0 2.151 . S
N41 C40 1.330 . S
N41 C45 1.418 . S
C42 H21 0.929 . S
C42 C40 1.446 . S
C42 C43 1.332 . S
C43 H23 0.931 . S
C43 C42 1.332 . S
C43 C44 1.267 . S
C44 H12 0.929 . S
C44 C43 1.267 . S
C44 C45 1.251 . S
C45 H15 0.929 . S
C45 N41 1.418 . S
C45 C44 1.251 . S
C46 H13 0.930 . S
C46 C48 1.406 . S
C46 C51 1.261 . S
C47 H14 0.930 . S
C47 N49 1.325 . S
C47 C50 1.357 . S
C48 H16 0.928 . S
C48 C46 1.406 . S
C48 N49 1.261 . S
N49 Co0 2.214 . S
N49 C47 1.325 . S
N49 C48 1.261 . S
C50 H20 0.931 . S
C50 C47 1.357 . S
C50 C51 1.312 . S
C51 H22 0.930 . S
C51 C46 1.261 . S
C51 C50 1.312 . S
C52 O24 1.214 . S
C52 O32 1.234 . S
C53 H25 0.929 . S
C53 C56 1.391 . S
C53 C58 1.391 . S
C54 H26 0.929 . S
C54 C55 1.390 . S
C54 N57 1.391 . S
C55 H27 0.930 . S
C55 C54 1.390 . S
C55 C56 1.392 . S
C56 H28 0.929 . S
C56 C53 1.391 . S
C56 C55 1.392 . S
N57 Co1 2.257 . S
N57 C54 1.391 . S
N57 C58 1.388 . S
C58 H29 0.930 . S
C58 C53 1.391 . S
C58 N57 1.388 . S
Co59 O61 2.143 . S
Co59 O67 2.074 . S
Co59 O70 2.093 1_565 S
Co59 O83 2.097 . S
Co59 N100 2.151 . S
Co59 N108 2.214 1_565 S
Co60 O61 2.160 . S
Co60 O66 2.058 . S
Co60 O76 2.057 . S
Co60 O91 2.037 . S
Co60 N95 2.145 . S
Co60 N116 2.257 . S
O61 Co59 2.143 . S
O61 Co60 2.160 . S
C62 O63 1.278 . S
C62 O70 1.224 1_565 S
O63 C62 1.278 . S
C64 O65 1.245 . S
C64 O76 1.232 . S
O65 C64 1.245 . S
O66 Co60 2.058 . S
O66 C92 1.269 . S
O67 Co59 2.074 . S
O67 C92 1.257 . S
H68 C93 0.930 . S
H69 C99 0.930 . S
O70 Co59 2.093 1_545 S
O70 C62 1.224 1_545 S
H71 C103 0.929 . S
H72 C105 0.930 . S
H73 C106 0.930 . S
H74 C104 0.929 . S
H75 C107 0.928 . S
O76 Co60 2.057 . S
O76 C64 1.232 . S
H77 C96 0.929 . S
H78 C97 0.929 . S
H79 C109 0.931 . S
H80 C101 0.929 . S
H81 C110 0.930 . S
H82 C102 0.931 . S
O83 Co59 2.097 . S
O83 C111 1.214 . S
H84 C112 0.929 . S
H85 C113 0.929 . S
H86 C114 0.930 . S
H87 C115 0.929 . S
H88 C117 0.930 . S
H89 C94 0.930 . S
H90 C98 0.930 . S
O91 Co60 2.037 . S
O91 C111 1.234 . S
C92 O66 1.269 . S
C92 O67 1.257 . S
C93 H68 0.930 . S
C93 C96 1.388 . S
C93 C98 1.418 . S
C94 H89 0.930 . S
C94 C97 1.404 . S
C94 C98 1.353 . S
N95 Co60 2.145 . S
N95 C96 1.397 . S
N95 C97 1.334 . S
C96 H77 0.929 . S
C96 C93 1.388 . S
C96 N95 1.397 . S
C97 H78 0.929 . S
C97 C94 1.404 . S
C97 N95 1.334 . S
C98 H90 0.930 . S
C98 C93 1.418 . S
C98 C94 1.353 . S
C99 H69 0.930 . S
C99 N100 1.330 . S
C99 C101 1.446 . S
N100 Co59 2.151 . S
N100 C99 1.330 . S
N100 C104 1.418 1_565 S
C101 H80 0.929 . S
C101 C99 1.446 . S
C101 C102 1.332 1_565 S
C102 H82 0.931 . S
C102 C101 1.332 1_545 S
C102 C103 1.267 . S
C103 H71 0.929 . S
C103 C102 1.267 . S
C103 C104 1.251 . S
C104 H74 0.929 . S
C104 N100 1.418 1_545 S
C104 C103 1.251 . S
C105 H72 0.930 . S
C105 C107 1.406 . S
C105 C110 1.261 . S
C106 H73 0.930 . S
C106 N108 1.325 . S
C106 C109 1.357 . S
C107 H75 0.928 . S
C107 C105 1.406 . S
C107 N108 1.261 . S
N108 Co59 2.214 1_545 S
N108 C106 1.325 . S
N108 C107 1.261 . S
C109 H79 0.931 . S
C109 C106 1.357 . S
C109 C110 1.312 . S
C110 H81 0.930 . S
C110 C105 1.261 . S
C110 C109 1.312 . S
C111 O83 1.214 . S
C111 O91 1.234 . S
C112 H84 0.929 . S
C112 C115 1.391 . S
C112 C117 1.391 . S
C113 H85 0.929 . S
C113 C114 1.390 . S
C113 N116 1.391 . S
C114 H86 0.930 . S
C114 C113 1.390 . S
C114 C115 1.392 . S
C115 H87 0.929 . S
C115 C112 1.391 . S
C115 C114 1.392 . S
N116 Co60 2.257 . S
N116 C113 1.391 . S
N116 C117 1.388 . S
C117 H88 0.930 . S
C117 C112 1.391 . S
C117 N116 1.388 . S
Co118 O120 2.143 . S
Co118 O126 2.074 . S
Co118 O129 2.093 . S
Co118 O142 2.097 . S
Co118 N159 2.151 . S
Co118 N167 2.214 . S
Co119 O120 2.160 . S
Co119 O125 2.058 . S
Co119 O135 2.057 . S
Co119 O150 2.037 . S
Co119 N154 2.145 . S
Co119 N175 2.257 . S
O120 Co118 2.143 . S
O120 Co119 2.160 . S
C121 O122 1.278 . S
C121 O129 1.224 . S
O122 C121 1.278 . S
C123 O124 1.245 . S
C123 O135 1.232 . S
O124 C123 1.245 . S
O125 Co119 2.058 . S
O125 C151 1.269 . S
O126 Co118 2.074 . S
O126 C151 1.257 . S
H127 C152 0.930 . S
H128 C158 0.930 . S
O129 Co118 2.093 . S
O129 C121 1.224 . S
H130 C162 0.929 1_556 S
H131 C164 0.930 . S
H132 C165 0.930 . S
H133 C163 0.929 . S
H134 C166 0.928 . S
O135 Co119 2.057 . S
O135 C123 1.232 . S
H136 C155 0.929 . S
H137 C156 0.929 . S
H138 C168 0.931 . S
H139 C160 0.929 . S
H140 C169 0.930 . S
H141 C161 0.931 . S
O142 Co118 2.097 . S
O142 C170 1.214 . S
H143 C171 0.929 . S
H144 C172 0.929 . S
H145 C173 0.930 . S
H146 C174 0.929 . S
H147 C176 0.930 . S
H148 C153 0.930 . S
H149 C157 0.930 . S
O150 Co119 2.037 . S
O150 C170 1.234 . S
C151 O125 1.269 . S
C151 O126 1.257 . S
C152 H127 0.930 . S
C152 C155 1.388 . S
C152 C157 1.418 . S
C153 H148 0.930 . S
C153 C156 1.404 . S
C153 C157 1.353 . S
N154 Co119 2.145 . S
N154 C155 1.397 . S
N154 C156 1.334 . S
C155 H136 0.929 . S
C155 C152 1.388 . S
C155 N154 1.397 . S
C156 H137 0.929 . S
C156 C153 1.404 . S
C156 N154 1.334 . S
C157 H149 0.930 . S
C157 C152 1.418 . S
C157 C153 1.353 . S
C158 H128 0.930 . S
C158 N159 1.330 . S
C158 C160 1.446 . S
N159 Co118 2.151 . S
N159 C158 1.330 . S
N159 C163 1.418 . S
C160 H139 0.929 . S
C160 C158 1.446 . S
C160 C161 1.332 . S
C161 H141 0.931 . S
C161 C160 1.332 . S
C161 C162 1.267 . S
C162 H130 0.929 1_554 S
C162 C161 1.267 . S
C162 C163 1.251 . S
C163 H133 0.929 . S
C163 N159 1.418 . S
C163 C162 1.251 . S
C164 H131 0.930 . S
C164 C166 1.406 . S
C164 C169 1.261 . S
C165 H132 0.930 . S
C165 N167 1.325 . S
C165 C168 1.357 . S
C166 H134 0.928 . S
C166 C164 1.406 . S
C166 N167 1.261 . S
N167 Co118 2.214 . S
N167 C165 1.325 . S
N167 C166 1.261 . S
C168 H138 0.931 . S
C168 C165 1.357 . S
C168 C169 1.312 . S
C169 H140 0.930 . S
C169 C164 1.261 . S
C169 C168 1.312 . S
C170 O142 1.214 . S
C170 O150 1.234 . S
C171 H143 0.929 . S
C171 C174 1.391 . S
C171 C176 1.391 . S
C172 H144 0.929 . S
C172 C173 1.390 . S
C172 N175 1.391 . S
C173 H145 0.930 . S
C173 C172 1.390 . S
C173 C174 1.392 . S
C174 H146 0.929 . S
C174 C171 1.391 . S
C174 C173 1.392 . S
N175 Co119 2.257 . S
N175 C172 1.391 . S
N175 C176 1.388 . S
C176 H147 0.930 . S
C176 C171 1.391 . S
C176 N175 1.388 . S
Co177 O179 2.143 . S
Co177 O185 2.074 . S
Co177 O188 2.093 1_545 S
Co177 O201 2.097 . S
Co177 N218 2.151 . S
Co177 N226 2.214 1_545 S
Co178 O179 2.160 . S
Co178 O184 2.058 . S
Co178 O194 2.057 . S
Co178 O209 2.037 . S
Co178 N213 2.145 1_655 S
Co178 N234 2.257 . S
O179 Co177 2.143 . S
O179 Co178 2.160 . S
C180 O181 1.278 . S
C180 O188 1.224 1_545 S
O181 C180 1.278 . S
C182 O183 1.245 . S
C182 O194 1.232 . S
O183 C182 1.245 . S
O184 Co178 2.058 . S
O184 C210 1.269 . S
O185 Co177 2.074 . S
O185 C210 1.257 . S
H186 C211 0.930 . S
H187 C217 0.930 . S
O188 Co177 2.093 1_565 S
O188 C180 1.224 1_565 S
H189 C221 0.929 1_556 S
H190 C223 0.930 . S
H191 C224 0.930 . S
H192 C222 0.929 . S
H193 C225 0.928 . S
O194 Co178 2.057 . S
O194 C182 1.232 . S
H195 C214 0.929 . S
H196 C215 0.929 1_655 S
H197 C227 0.931 . S
H198 C219 0.929 . S
H199 C228 0.930 . S
H200 C220 0.931 . S
O201 Co177 2.097 . S
O201 C229 1.214 . S
H202 C230 0.929 . S
H203 C231 0.929 . S
H204 C232 0.930 . S
H205 C233 0.929 . S
H206 C235 0.930 . S
H207 C212 0.930 . S
H208 C216 0.930 . S
O209 Co178 2.037 . S
O209 C229 1.234 . S
C210 O184 1.269 . S
C210 O185 1.257 . S
C211 H186 0.930 . S
C211 C214 1.388 . S
C211 C216 1.418 . S
C212 H207 0.930 . S
C212 C215 1.404 . S
C212 C216 1.353 . S
N213 Co178 2.145 1_455 S
N213 C214 1.397 . S
N213 C215 1.334 . S
C214 H195 0.929 . S
C214 C211 1.388 . S
C214 N213 1.397 . S
C215 H196 0.929 1_455 S
C215 C212 1.404 . S
C215 N213 1.334 . S
C216 H208 0.930 . S
C216 C211 1.418 . S
C216 C212 1.353 . S
C217 H187 0.930 . S
C217 N218 1.330 . S
C217 C219 1.446 . S
N218 Co177 2.151 . S
N218 C217 1.330 . S
N218 C222 1.418 1_545 S
C219 H198 0.929 . S
C219 C217 1.446 . S
C219 C220 1.332 1_545 S
C220 H200 0.931 . S
C220 C219 1.332 1_565 S
C220 C221 1.267 . S
C221 H189 0.929 1_554 S
C221 C220 1.267 . S
C221 C222 1.251 . S
C222 H192 0.929 . S
C222 N218 1.418 1_565 S
C222 C221 1.251 . S
C223 H190 0.930 . S
C223 C225 1.406 . S
C223 C228 1.261 . S
C224 H191 0.930 . S
C224 N226 1.325 . S
C224 C227 1.357 . S
C225 H193 0.928 . S
C225 C223 1.406 . S
C225 N226 1.261 . S
N226 Co177 2.214 1_565 S
N226 C224 1.325 . S
N226 C225 1.261 . S
C227 H197 0.931 . S
C227 C224 1.357 . S
C227 C228 1.312 . S
C228 H199 0.930 . S
C228 C223 1.261 . S
C228 C227 1.312 . S
C229 O201 1.214 . S
C229 O209 1.234 . S
C230 H202 0.929 . S
C230 C233 1.391 . S
C230 C235 1.391 . S
C231 H203 0.929 . S
C231 C232 1.390 . S
C231 N234 1.391 . S
C232 H204 0.930 . S
C232 C231 1.390 . S
C232 C233 1.392 . S
C233 H205 0.929 . S
C233 C230 1.391 . S
C233 C232 1.392 . S
N234 Co178 2.257 . S
N234 C231 1.391 . S
N234 C235 1.388 . S
C235 H206 0.930 . S
C235 C230 1.391 . S
C235 N234 1.388 . S
Co236 O238 2.143 . S
Co236 O244 2.074 . S
Co236 O247 2.093 . S
Co236 O260 2.097 . S
Co236 N277 2.151 . S
Co236 N285 2.214 . S
Co237 O238 2.160 . S
Co237 O243 2.058 . S
Co237 O253 2.057 . S
Co237 O268 2.037 . S
Co237 N272 2.145 1_655 S
Co237 N293 2.257 . S
O238 Co236 2.143 . S
O238 Co237 2.160 . S
C239 O240 1.278 . S
C239 O247 1.224 . S
O240 C239 1.278 . S
C241 O242 1.245 . S
C241 O253 1.232 . S
O242 C241 1.245 . S
O243 Co237 2.058 . S
O243 C269 1.269 . S
O244 Co236 2.074 . S
O244 C269 1.257 . S
H245 C270 0.930 . S
H246 C276 0.930 . S
O247 Co236 2.093 . S
O247 C239 1.224 . S
H248 C280 0.929 . S
H249 C282 0.930 . S
H250 C283 0.930 . S
H251 C281 0.929 . S
H252 C284 0.928 . S
O253 Co237 2.057 . S
O253 C241 1.232 . S
H254 C273 0.929 . S
H255 C274 0.929 1_655 S
H256 C286 0.931 . S
H257 C278 0.929 . S
H258 C287 0.930 . S
H259 C279 0.931 . S
O260 Co236 2.097 . S
O260 C288 1.214 . S
H261 C289 0.929 . S
H262 C290 0.929 . S
H263 C291 0.930 . S
H264 C292 0.929 . S
H265 C294 0.930 . S
H266 C271 0.930 . S
H267 C275 0.930 . S
O268 Co237 2.037 . S
O268 C288 1.234 . S
C269 O243 1.269 . S
C269 O244 1.257 . S
C270 H245 0.930 . S
C270 C273 1.388 . S
C270 C275 1.418 . S
C271 H266 0.930 . S
C271 C274 1.404 . S
C271 C275 1.353 . S
N272 Co237 2.145 1_455 S
N272 C273 1.397 . S
N272 C274 1.334 . S
C273 H254 0.929 . S
C273 C270 1.388 . S
C273 N272 1.397 . S
C274 H255 0.929 1_455 S
C274 C271 1.404 . S
C274 N272 1.334 . S
C275 H267 0.930 . S
C275 C270 1.418 . S
C275 C271 1.353 . S
C276 H246 0.930 . S
C276 N277 1.330 . S
C276 C278 1.446 . S
N277 Co236 2.151 . S
N277 C276 1.330 . S
N277 C281 1.418 . S
C278 H257 0.929 . S
C278 C276 1.446 . S
C278 C279 1.332 . S
C279 H259 0.931 . S
C279 C278 1.332 . S
C279 C280 1.267 . S
C280 H248 0.929 . S
C280 C279 1.267 . S
C280 C281 1.251 . S
C281 H251 0.929 . S
C281 N277 1.418 . S
C281 C280 1.251 . S
C282 H249 0.930 . S
C282 C284 1.406 . S
C282 C287 1.261 . S
C283 H250 0.930 . S
C283 N285 1.325 . S
C283 C286 1.357 . S
C284 H252 0.928 . S
C284 C282 1.406 . S
C284 N285 1.261 . S
N285 Co236 2.214 . S
N285 C283 1.325 . S
N285 C284 1.261 . S
C286 H256 0.931 . S
C286 C283 1.357 . S
C286 C287 1.312 . S
C287 H258 0.930 . S
C287 C282 1.261 . S
C287 C286 1.312 . S
C288 O260 1.214 . S
C288 O268 1.234 . S
C289 H261 0.929 . S
C289 C292 1.391 . S
C289 C294 1.391 . S
C290 H262 0.929 . S
C290 C291 1.390 . S
C290 N293 1.391 . S
C291 H263 0.930 . S
C291 C290 1.390 . S
C291 C292 1.392 . S
C292 H264 0.929 . S
C292 C289 1.391 . S
C292 C291 1.392 . S
N293 Co237 2.257 . S
N293 C290 1.391 . S
N293 C294 1.388 . S
C294 H265 0.930 . S
C294 C289 1.391 . S
C294 N293 1.388 . S
Co295 O297 2.143 . S
Co295 O303 2.074 . S
Co295 O306 2.093 1_545 S
Co295 O319 2.097 . S
Co295 N336 2.151 . S
Co295 N344 2.214 1_545 S
Co296 O297 2.160 . S
Co296 O302 2.058 . S
Co296 O312 2.057 . S
Co296 O327 2.037 . S
Co296 N331 2.145 . S
Co296 N352 2.257 . S
O297 Co295 2.143 . S
O297 Co296 2.160 . S
C298 O299 1.278 . S
C298 O306 1.224 1_545 S
O299 C298 1.278 . S
C300 O301 1.245 . S
C300 O312 1.232 . S
O301 C300 1.245 . S
O302 Co296 2.058 . S
O302 C328 1.269 . S
O303 Co295 2.074 . S
O303 C328 1.257 . S
H304 C329 0.930 . S
H305 C335 0.930 . S
O306 Co295 2.093 1_565 S
O306 C298 1.224 1_565 S
H307 C339 0.929 . S
H308 C341 0.930 . S
H309 C342 0.930 . S
H310 C340 0.929 . S
H311 C343 0.928 . S
O312 Co296 2.057 . S
O312 C300 1.232 . S
H313 C332 0.929 . S
H314 C333 0.929 . S
H315 C345 0.931 . S
H316 C337 0.929 . S
H317 C346 0.930 . S
H318 C338 0.931 . S
O319 Co295 2.097 . S
O319 C347 1.214 . S
H320 C348 0.929 . S
H321 C349 0.929 . S
H322 C350 0.930 . S
H323 C351 0.929 . S
H324 C353 0.930 . S
H325 C330 0.930 . S
H326 C334 0.930 . S
O327 Co296 2.037 . S
O327 C347 1.234 . S
C328 O302 1.269 . S
C328 O303 1.257 . S
C329 H304 0.930 . S
C329 C332 1.388 . S
C329 C334 1.418 . S
C330 H325 0.930 . S
C330 C333 1.404 . S
C330 C334 1.353 . S
N331 Co296 2.145 . S
N331 C332 1.397 . S
N331 C333 1.334 . S
C332 H313 0.929 . S
C332 C329 1.388 . S
C332 N331 1.397 . S
C333 H314 0.929 . S
C333 C330 1.404 . S
C333 N331 1.334 . S
C334 H326 0.930 . S
C334 C329 1.418 . S
C334 C330 1.353 . S
C335 H305 0.930 . S
C335 N336 1.330 . S
C335 C337 1.446 . S
N336 Co295 2.151 . S
N336 C335 1.330 . S
N336 C340 1.418 1_545 S
C337 H316 0.929 . S
C337 C335 1.446 . S
C337 C338 1.332 1_545 S
C338 H318 0.931 . S
C338 C337 1.332 1_565 S
C338 C339 1.267 . S
C339 H307 0.929 . S
C339 C338 1.267 . S
C339 C340 1.251 . S
C340 H310 0.929 . S
C340 N336 1.418 1_565 S
C340 C339 1.251 . S
C341 H308 0.930 . S
C341 C343 1.406 . S
C341 C346 1.261 . S
C342 H309 0.930 . S
C342 N344 1.325 . S
C342 C345 1.357 . S
C343 H311 0.928 . S
C343 C341 1.406 . S
C343 N344 1.261 . S
N344 Co295 2.214 1_565 S
N344 C342 1.325 . S
N344 C343 1.261 . S
C345 H315 0.931 . S
C345 C342 1.357 . S
C345 C346 1.312 . S
C346 H317 0.930 . S
C346 C341 1.261 . S
C346 C345 1.312 . S
C347 O319 1.214 . S
C347 O327 1.234 . S
C348 H320 0.929 . S
C348 C351 1.391 . S
C348 C353 1.391 . S
C349 H321 0.929 . S
C349 C350 1.390 . S
C349 N352 1.391 . S
C350 H322 0.930 . S
C350 C349 1.390 . S
C350 C351 1.392 . S
C351 H323 0.929 . S
C351 C348 1.391 . S
C351 C350 1.392 . S
N352 Co296 2.257 . S
N352 C349 1.391 . S
N352 C353 1.388 . S
C353 H324 0.930 . S
C353 C348 1.391 . S
C353 N352 1.388 . S
Co354 O356 2.143 . S
Co354 O362 2.074 . S
Co354 O365 2.093 . S
Co354 O378 2.097 . S
Co354 N395 2.151 . S
Co354 N403 2.214 . S
Co355 O356 2.160 . S
Co355 O361 2.058 . S
Co355 O371 2.057 . S
Co355 O386 2.037 . S
Co355 N390 2.145 . S
Co355 N411 2.257 . S
O356 Co354 2.143 . S
O356 Co355 2.160 . S
C357 O358 1.278 . S
C357 O365 1.224 . S
O358 C357 1.278 . S
C359 O360 1.245 . S
C359 O371 1.232 . S
O360 C359 1.245 . S
O361 Co355 2.058 . S
O361 C387 1.269 . S
O362 Co354 2.074 . S
O362 C387 1.257 . S
H363 C388 0.930 . S
H364 C394 0.930 . S
O365 Co354 2.093 . S
O365 C357 1.224 . S
H366 C398 0.929 1_554 S
H367 C400 0.930 . S
H368 C401 0.930 . S
H369 C399 0.929 . S
H370 C402 0.928 . S
O371 Co355 2.057 . S
O371 C359 1.232 . S
H372 C391 0.929 . S
H373 C392 0.929 . S
H374 C404 0.931 . S
H375 C396 0.929 . S
H376 C405 0.930 . S
H377 C397 0.931 . S
O378 Co354 2.097 . S
O378 C406 1.214 . S
H379 C407 0.929 . S
H380 C408 0.929 . S
H381 C409 0.930 . S
H382 C410 0.929 . S
H383 C412 0.930 . S
H384 C389 0.930 . S
H385 C393 0.930 . S
O386 Co355 2.037 . S
O386 C406 1.234 . S
C387 O361 1.269 . S
C387 O362 1.257 . S
C388 H363 0.930 . S
C388 C391 1.388 . S
C388 C393 1.418 . S
C389 H384 0.930 . S
C389 C392 1.404 . S
C389 C393 1.353 . S
N390 Co355 2.145 . S
N390 C391 1.397 . S
N390 C392 1.334 . S
C391 H372 0.929 . S
C391 C388 1.388 . S
C391 N390 1.397 . S
C392 H373 0.929 . S
C392 C389 1.404 . S
C392 N390 1.334 . S
C393 H385 0.930 . S
C393 C388 1.418 . S
C393 C389 1.353 . S
C394 H364 0.930 . S
C394 N395 1.330 . S
C394 C396 1.446 . S
N395 Co354 2.151 . S
N395 C394 1.330 . S
N395 C399 1.418 . S
C396 H375 0.929 . S
C396 C394 1.446 . S
C396 C397 1.332 . S
C397 H377 0.931 . S
C397 C396 1.332 . S
C397 C398 1.267 . S
C398 H366 0.929 1_556 S
C398 C397 1.267 . S
C398 C399 1.251 . S
C399 H369 0.929 . S
C399 N395 1.418 . S
C399 C398 1.251 . S
C400 H367 0.930 . S
C400 C402 1.406 . S
C400 C405 1.261 . S
C401 H368 0.930 . S
C401 N403 1.325 . S
C401 C404 1.357 . S
C402 H370 0.928 . S
C402 C400 1.406 . S
C402 N403 1.261 . S
N403 Co354 2.214 . S
N403 C401 1.325 . S
N403 C402 1.261 . S
C404 H374 0.931 . S
C404 C401 1.357 . S
C404 C405 1.312 . S
C405 H376 0.930 . S
C405 C400 1.261 . S
C405 C404 1.312 . S
C406 O378 1.214 . S
C406 O386 1.234 . S
C407 H379 0.929 . S
C407 C410 1.391 . S
C407 C412 1.391 . S
C408 H380 0.929 . S
C408 C409 1.390 . S
C408 N411 1.391 . S
C409 H381 0.930 . S
C409 C408 1.390 . S
C409 C410 1.392 . S
C410 H382 0.929 . S
C410 C407 1.391 . S
C410 C409 1.392 . S
N411 Co355 2.257 . S
N411 C408 1.391 . S
N411 C412 1.388 . S
C412 H383 0.930 . S
C412 C407 1.391 . S
C412 N411 1.388 . S
Co413 O415 2.143 . S
Co413 O421 2.074 . S
Co413 O424 2.093 1_565 S
Co413 O437 2.097 . S
Co413 N454 2.151 . S
Co413 N462 2.214 1_565 S
Co414 O415 2.160 . S
Co414 O420 2.058 . S
Co414 O430 2.057 . S
Co414 O445 2.037 . S
Co414 N449 2.145 1_455 S
Co414 N470 2.257 . S
O415 Co413 2.143 . S
O415 Co414 2.160 . S
C416 O417 1.278 . S
C416 O424 1.224 1_565 S
O417 C416 1.278 . S
C418 O419 1.245 . S
C418 O430 1.232 . S
O419 C418 1.245 . S
O420 Co414 2.058 . S
O420 C446 1.269 . S
O421 Co413 2.074 . S
O421 C446 1.257 . S
H422 C447 0.930 . S
H423 C453 0.930 . S
O424 Co413 2.093 1_545 S
O424 C416 1.224 1_545 S
H425 C457 0.929 1_554 S
H426 C459 0.930 . S
H427 C460 0.930 . S
H428 C458 0.929 . S
H429 C461 0.928 . S
O430 Co414 2.057 . S
O430 C418 1.232 . S
H431 C450 0.929 . S
H432 C451 0.929 1_455 S
H433 C463 0.931 . S
H434 C455 0.929 . S
H435 C464 0.930 . S
H436 C456 0.931 . S
O437 Co413 2.097 . S
O437 C465 1.214 . S
H438 C466 0.929 . S
H439 C467 0.929 . S
H440 C468 0.930 . S
H441 C469 0.929 . S
H442 C471 0.930 . S
H443 C448 0.930 . S
H444 C452 0.930 . S
O445 Co414 2.037 . S
O445 C465 1.234 . S
C446 O420 1.269 . S
C446 O421 1.257 . S
C447 H422 0.930 . S
C447 C450 1.388 . S
C447 C452 1.418 . S
C448 H443 0.930 . S
C448 C451 1.404 . S
C448 C452 1.353 . S
N449 Co414 2.145 1_655 S
N449 C450 1.397 . S
N449 C451 1.334 . S
C450 H431 0.929 . S
C450 C447 1.388 . S
C450 N449 1.397 . S
C451 H432 0.929 1_655 S
C451 C448 1.404 . S
C451 N449 1.334 . S
C452 H444 0.930 . S
C452 C447 1.418 . S
C452 C448 1.353 . S
C453 H423 0.930 . S
C453 N454 1.330 . S
C453 C455 1.446 . S
N454 Co413 2.151 . S
N454 C453 1.330 . S
N454 C458 1.418 1_565 S
C455 H434 0.929 . S
C455 C453 1.446 . S
C455 C456 1.332 1_565 S
C456 H436 0.931 . S
C456 C455 1.332 1_545 S
C456 C457 1.267 . S
C457 H425 0.929 1_556 S
C457 C456 1.267 . S
C457 C458 1.251 . S
C458 H428 0.929 . S
C458 N454 1.418 1_545 S
C458 C457 1.251 . S
C459 H426 0.930 . S
C459 C461 1.406 . S
C459 C464 1.261 . S
C460 H427 0.930 . S
C460 N462 1.325 . S
C460 C463 1.357 . S
C461 H429 0.928 . S
C461 C459 1.406 . S
C461 N462 1.261 . S
N462 Co413 2.214 1_545 S
N462 C460 1.325 . S
N462 C461 1.261 . S
C463 H433 0.931 . S
C463 C460 1.357 . S
C463 C464 1.312 . S
C464 H435 0.930 . S
C464 C459 1.261 . S
C464 C463 1.312 . S
C465 O437 1.214 . S
C465 O445 1.234 . S
C466 H438 0.929 . S
C466 C469 1.391 . S
C466 C471 1.391 . S
C467 H439 0.929 . S
C467 C468 1.390 . S
C467 N470 1.391 . S
C468 H440 0.930 . S
C468 C467 1.390 . S
C468 C469 1.392 . S
C469 H441 0.929 . S
C469 C466 1.391 . S
C469 C468 1.392 . S
N470 Co414 2.257 . S
N470 C467 1.391 . S
N470 C471 1.388 . S
C471 H442 0.930 . S
C471 C466 1.391 . S
C471 N470 1.388 . S
C472 C473 1.387 . S
C472 H476 0.950 . S
C472 C481 1.390 . S
C473 C472 1.387 . S
C473 C475 1.387 . S
H474 C481 0.950 . S
C475 C473 1.387 . S
C475 C477 1.390 . S
C475 H479 0.950 . S
H476 C472 0.950 . S
C477 C475 1.390 . S
C477 C478 1.387 . S
C477 H480 0.950 . S
C478 C477 1.387 . S
C478 C481 1.387 . S
H479 C475 0.950 . S
H480 C477 0.950 . S
C481 C472 1.390 . S
C481 H474 0.950 . S
C481 C478 1.387 . S
C482 C483 1.387 . S
C482 H486 0.950 . S
C482 C491 1.390 . S
C483 C482 1.387 . S
C483 C485 1.387 1_545 S
H484 C491 0.950 . S
C485 C483 1.387 1_565 S
C485 C487 1.390 . S
C485 H489 0.950 . S
H486 C482 0.950 . S
C487 C485 1.390 . S
C487 C488 1.387 . S
C487 H490 0.950 . S
C488 C487 1.387 . S
C488 C491 1.387 1_565 S
H489 C485 0.950 . S
H490 C487 0.950 . S
C491 C482 1.390 . S
C491 H484 0.950 . S
C491 C488 1.387 1_545 S
C492 C493 1.387 . S
C492 H496 0.950 . S
C492 C501 1.390 . S
C493 C492 1.387 . S
C493 C495 1.387 . S
H494 C501 0.950 . S
C495 C493 1.387 . S
C495 C497 1.390 . S
C495 H499 0.950 . S
H496 C492 0.950 . S
C497 C495 1.390 . S
C497 C498 1.387 . S
C497 H500 0.950 1_655 S
C498 C497 1.387 . S
C498 C501 1.387 . S
H499 C495 0.950 . S
H500 C497 0.950 1_455 S
C501 C492 1.390 . S
C501 H494 0.950 . S
C501 C498 1.387 . S
C502 C503 1.387 1_565 S
C502 H506 0.950 . S
C502 C511 1.390 . S
C503 C502 1.387 1_545 S
C503 C505 1.387 . S
H504 C511 0.950 . S
C505 C503 1.387 . S
C505 C507 1.390 . S
C505 H509 0.950 . S
H506 C502 0.950 . S
C507 C505 1.390 . S
C507 C508 1.387 1_545 S
C507 H510 0.950 . S
C508 C507 1.387 1_565 S
C508 C511 1.387 . S
H509 C505 0.950 . S
H510 C507 0.950 . S
C511 C502 1.390 . S
C511 H504 0.950 . S
C511 C508 1.387 . S
C512 C513 1.387 . S
C512 H516 0.950 . S
C512 C521 1.390 . S
C513 C512 1.387 . S
C513 C515 1.387 . S
H514 C521 0.950 . S
C515 C513 1.387 . S
C515 C517 1.390 . S
C515 H519 0.950 . S
H516 C512 0.950 . S
C517 C515 1.390 . S
C517 C518 1.387 . S
C517 H520 0.950 . S
C518 C517 1.387 . S
C518 C521 1.387 . S
H519 C515 0.950 . S
H520 C517 0.950 . S
C521 C512 1.390 . S
C521 H514 0.950 . S
C521 C518 1.387 . S
C522 C523 1.387 . S
C522 H526 0.950 . S
C522 C531 1.390 . S
C523 C522 1.387 . S
C523 C525 1.387 1_545 S
H524 C531 0.950 1_455 S
C525 C523 1.387 1_565 S
C525 C527 1.390 . S
C525 H529 0.950 . S
H526 C522 0.950 . S
C527 C525 1.390 . S
C527 C528 1.387 . S
C527 H530 0.950 . S
C528 C527 1.387 . S
C528 C531 1.387 1_565 S
H529 C525 0.950 . S
H530 C527 0.950 . S
C531 C522 1.390 . S
C531 H524 0.950 1_655 S
C531 C528 1.387 1_545 S
C532 C533 1.387 . S
C532 H536 0.950 . S
C532 C541 1.390 . S
C533 C532 1.387 . S
C533 C535 1.387 . S
H534 C541 0.950 . S
C535 C533 1.387 . S
C535 C537 1.390 . S
C535 H539 0.950 . S
H536 C532 0.950 . S
C537 C535 1.390 . S
C537 C538 1.387 . S
C537 H540 0.950 1_455 S
C538 C537 1.387 . S
C538 C541 1.387 . S
H539 C535 0.950 . S
H540 C537 0.950 1_655 S
C541 C532 1.390 . S
C541 H534 0.950 . S
C541 C538 1.387 . S
C542 C543 1.387 . S
C542 H546 0.950 . S
C542 C551 1.390 . S
C543 C542 1.387 . S
C543 C545 1.387 1_565 S
H544 C551 0.950 . S
C545 C543 1.387 1_545 S
C545 C547 1.390 . S
C545 H549 0.950 . S
H546 C542 0.950 . S
C547 C545 1.390 . S
C547 C548 1.387 . S
C547 H550 0.950 . S
C548 C547 1.387 . S
C548 C551 1.387 1_545 S
H549 C545 0.950 . S
H550 C547 0.950 . S
C551 C542 1.390 . S
C551 H544 0.950 . S
C551 C548 1.387 1_565 S
C552 C553 1.387 . S
C552 H556 0.950 . S
C552 C561 1.390 1_455 S
C553 C552 1.387 . S
C553 C555 1.387 . S
H554 C561 0.950 . S
C555 C553 1.387 . S
C555 C557 1.390 1_455 S
C555 H559 0.950 . S
H556 C552 0.950 . S
C557 C555 1.390 1_655 S
C557 C558 1.387 . S
C557 H560 0.950 . S
C558 C557 1.387 . S
C558 C561 1.387 . S
H559 C555 0.950 . S
H560 C557 0.950 . S
C561 C552 1.390 1_655 S
C561 H554 0.950 . S
C561 C558 1.387 . S
C562 C563 1.387 . S
C562 H566 0.950 . S
C562 C571 1.390 . S
C563 C562 1.387 . S
C563 C565 1.387 1_565 S
H564 C571 0.950 . S
C565 C563 1.387 1_545 S
C565 C567 1.390 . S
C565 H569 0.950 . S
H566 C562 0.950 . S
C567 C565 1.390 . S
C567 C568 1.387 . S
C567 H570 0.950 . S
C568 C567 1.387 . S
C568 C571 1.387 1_545 S
H569 C565 0.950 . S
H570 C567 0.950 . S
C571 C562 1.390 . S
C571 H564 0.950 . S
C571 C568 1.387 1_565 S
C572 C573 1.387 . S
C572 H576 0.950 . S
C572 C581 1.390 1_554 S
C573 C572 1.387 . S
C573 C575 1.387 . S
H574 C581 0.950 . S
C575 C573 1.387 . S
C575 C577 1.390 1_554 S
C575 H579 0.950 . S
H576 C572 0.950 . S
C577 C575 1.390 1_556 S
C577 C578 1.387 . S
C577 H580 0.950 . S
C578 C577 1.387 . S
C578 C581 1.387 . S
H579 C575 0.950 . S
H580 C577 0.950 . S
C581 C572 1.390 1_556 S
C581 H574 0.950 . S
C581 C578 1.387 . S
C582 C583 1.387 1_545 S
C582 H586 0.950 . S
C582 C591 1.390 1_556 S
C583 C582 1.387 1_565 S
C583 C585 1.387 1_455 S
H584 C591 0.950 . S
C585 C583 1.387 1_655 S
C585 C587 1.390 1_556 S
C585 H589 0.950 . S
H586 C582 0.950 . S
C587 C585 1.390 1_554 S
C587 C588 1.387 1_565 S
C587 H590 0.950 . S
C588 C587 1.387 1_545 S
C588 C591 1.387 1_655 S
H589 C585 0.950 . S
H590 C587 0.950 . S
C591 C582 1.390 1_554 S
C591 H584 0.950 . S
C591 C588 1.387 1_455 S
C592 C593 1.387 . S
C592 H596 0.950 . S
C592 C601 1.390 . S
C593 C592 1.387 . S
C593 C595 1.387 . S
H594 C601 0.950 . S
C595 C593 1.387 . S
C595 C597 1.390 . S
C595 H599 0.950 . S
H596 C592 0.950 . S
C597 C595 1.390 . S
C597 C598 1.387 . S
C597 H600 0.950 . S
C598 C597 1.387 . S
C598 C601 1.387 . S
H599 C595 0.950 . S
H600 C597 0.950 . S
C601 C592 1.390 . S
C601 H594 0.950 . S
C601 C598 1.387 . S
C602 C603 1.387 . S
C602 H606 0.950 . S
C602 C611 1.390 . S
C603 C602 1.387 . S
C603 C605 1.387 . S
H604 C611 0.950 . S
C605 C603 1.387 . S
C605 C607 1.390 . S
C605 H609 0.950 . S
H606 C602 0.950 . S
C607 C605 1.390 . S
C607 C608 1.387 . S
C607 H610 0.950 . S
C608 C607 1.387 . S
C608 C611 1.387 . S
H609 C605 0.950 . S
H610 C607 0.950 . S
C611 C602 1.390 . S
C611 H604 0.950 . S
C611 C608 1.387 . S
C612 C613 1.387 . S
C612 H616 0.950 . S
C612 C621 1.390 . S
C613 C612 1.387 . S
C613 C615 1.387 . S
H614 C621 0.950 . S
C615 C613 1.387 . S
C615 C617 1.390 . S
C615 H619 0.950 . S
H616 C612 0.950 . S
C617 C615 1.390 . S
C617 C618 1.387 . S
C617 H620 0.950 . S
C618 C617 1.387 . S
C618 C621 1.387 . S
H619 C615 0.950 . S
H620 C617 0.950 . S
C621 C612 1.390 . S
C621 H614 0.950 . S
C621 C618 1.387 . S
C622 C623 1.387 . S
C622 H626 0.950 . S
C622 C631 1.390 . S
C623 C622 1.387 . S
C623 C625 1.387 . S
H624 C631 0.950 . S
C625 C623 1.387 . S
C625 C627 1.390 . S
C625 H629 0.950 . S
H626 C622 0.950 . S
C627 C625 1.390 . S
C627 C628 1.387 . S
C627 H630 0.950 . S
C628 C627 1.387 . S
C628 C631 1.387 . S
H629 C625 0.950 . S
H630 C627 0.950 . S
C631 C622 1.390 . S
C631 H624 0.950 . S
C631 C628 1.387 . S
C473 C3 1.566 . S
C478 C170 1.557 . S
C483 C229 1.556 1_455 S
C488 C62 1.566 . S
C493 C121 1.565 . S
C498 C52 1.557 1_655 S
C503 C180 1.566 . S
C508 C111 1.557 . S
C513 C406 1.556 . S
C518 C239 1.566 . S
C523 C298 1.566 . S
C528 C465 1.557 1_655 S
C533 C357 1.565 . S
C538 C288 1.556 1_455 S
C543 C416 1.566 . S
C548 C347 1.557 . S
C553 C33 1.601 . S
C558 C269 1.601 . S
C563 C92 1.601 . S
C568 C328 1.601 . S
C573 C151 1.600 . S
C578 C387 1.600 . S
C583 C446 1.602 . S
C588 C210 1.602 . S
C593 C5 1.643 . S
C598 C64 1.643 . S
C603 C182 1.643 . S
C608 C123 1.643 . S
C613 C300 1.644 . S
C618 C241 1.644 . S
C623 C359 1.643 . S
C628 C418 1.643 . S
