# Generated by pormake.
# Topology uoo, (4)-cn, num edge types: 1
# Building blocks:
#     Node 0, Type 0, BuildingBlock: QUQFOY_clean_sbu_3, # of connection points: 4
#     Node 1, Type 0, BuildingBlock: QUQFOY_clean_sbu_3, # of connection points: 4
#     Node 2, Type 0, BuildingBlock: QUQFOY_clean_sbu_3, # of connection points: 4
#     Node 3, Type 0, BuildingBlock: QUQFOY_clean_sbu_3, # of connection points: 4
#     Node 4, Type 0, BuildingBlock: QUQFOY_clean_sbu_3, # of connection points: 4
#     Node 5, Type 0, BuildingBlock: QUQFOY_clean_sbu_3, # of connection points: 4
#     Edge 6, Type (0, 0), BuildingBlock: XIVTED_clean_linker_0, # of connection points: 2
#     Edge 7, Type (0, 0), BuildingBlock: XIVTED_clean_linker_0, # of connection points: 2
#     Edge 8, Type (0, 0), BuildingBlock: XIVTED_clean_linker_0, # of connection points: 2
#     Edge 9, Type (0, 0), BuildingBlock: XIVTED_clean_linker_0, # of connection points: 2
#     Edge 10, Type (0, 0), BuildingBlock: XIVTED_clean_linker_0, # of connection points: 2
#     Edge 11, Type (0, 0), BuildingBlock: XIVTED_clean_linker_0, # of connection points: 2
#     Edge 12, Type (0, 0), BuildingBlock: XIVTED_clean_linker_0, # of connection points: 2
#     Edge 13, Type (0, 0), BuildingBlock: XIVTED_clean_linker_0, # of connection points: 2
#     Edge 14, Type (0, 0), BuildingBlock: XIVTED_clean_linker_0, # of connection points: 2
#     Edge 15, Type (0, 0), BuildingBlock: XIVTED_clean_linker_0, # of connection points: 2
#     Edge 16, Type (0, 0), BuildingBlock: XIVTED_clean_linker_0, # of connection points: 2
#     Edge 17, Type (0, 0), BuildingBlock: XIVTED_clean_linker_0, # of connection points: 2
# Relax obj value: 0.206
# Max RMSD: 0.152
# Mean RMSD: 0.152
data_MOF--net-uoo--node1-QUQFOY_clean_sbu_3--edge1-XIVTED_clean_linker_0
_symmetry_space_group_name_H-M    P1
_symmetry_Int_Tables_number       1
_symmetry_cell_setting            triclinic
loop_
_symmetry_equiv_pos_as_xyz
'x, y, z'
_cell_length_a     25.883425
_cell_length_b     25.291153
_cell_length_c     42.615765
_cell_angle_alpha  89.985616
_cell_angle_beta   90.026773
_cell_angle_gamma 120.20325
loop_
_atom_site_label
_atom_site_type_symbol
_atom_site_fract_x
_atom_site_fract_y
_atom_site_fract_z
_atom_type_partial_charge
C0 C 0.22004 0.35444 -0.00671 0.0
O1 O 0.2053 0.38042 0.9725 0.0
Cd2 Cd 0.10811 0.35044 0.955 0.0
O3 O 0.18104 0.30504 0.00674 0.0
Cd4 Cd 0.06857 0.23877 0.00497 0.0
C5 C 0.06576 0.206 0.92722 0.0
O6 O 0.06643 0.33152 0.00567 0.0
O7 O -0.02091 0.25377 0.0002 0.0
O8 O 0.07788 0.21689 0.06021 0.0
C9 C 0.01112 0.31099 0.00435 0.0
O10 O 0.07603 0.26006 0.92216 0.0
C11 C 0.03056 0.16481 0.06071 0.0
O12 O 0.06478 0.18715 0.95507 0.0
O13 O 0.00289 0.14555 0.03487 0.0
C14 C 0.65597 0.06432 0.33661 0.0
O15 O 0.67215 0.10712 0.35655 0.0
Cd16 Cd 0.77004 0.17754 0.37242 0.0
O17 O 0.69386 0.05319 0.32331 0.0
Cd18 Cd 0.80662 0.10232 0.3241 0.0
C19 C 0.81346 0.07905 0.40245 0.0
O20 O 0.80829 0.19659 0.32094 0.0
O21 O 0.89584 0.20986 0.32723 0.0
O22 O 0.7958 0.0675 0.26939 0.0
C23 C 0.86353 0.23331 0.32171 0.0
O24 O 0.80278 0.1225 0.4066 0.0
C25 C 0.84373 0.0653 0.26882 0.0
O26 O 0.81369 0.05938 0.37493 0.0
O27 O 0.87214 0.07614 0.29451 0.0
C28 C 0.5645 0.86519 0.64477 0.0
O29 O 0.54722 0.82445 0.62359 0.0
Cd30 Cd 0.57024 0.74587 0.61941 0.0
O31 O 0.60332 0.87138 0.66523 0.0
Cd32 Cd 0.66397 0.81944 0.67125 0.0
C33 C 0.71022 0.83925 0.59452 0.0
O34 O 0.57133 0.72573 0.67366 0.0
O35 O 0.64592 0.71141 0.67208 0.0
O36 O 0.68047 0.85317 0.72639 0.0
C37 C 0.59035 0.68909 0.67658 0.0
O38 O 0.66127 0.79052 0.58869 0.0
C39 C 0.73156 0.85783 0.72847 0.0
O40 O 0.72071 0.86265 0.62191 0.0
O41 O 0.75288 0.8494 0.70339 0.0
C42 C 0.65858 0.56981 -0.00772 0.0
O43 O 0.67302 0.54468 0.97089 0.0
Cd44 Cd 0.76987 0.57454 0.95277 0.0
O45 O 0.6978 0.61845 0.00621 0.0
Cd46 Cd 0.81028 0.68418 0.00439 0.0
C47 C 0.8133 0.72043 0.927 0.0
O48 O 0.81201 0.5912 0.00323 0.0
O49 O 0.89963 0.66916 -0.00089 0.0
O50 O 0.80267 0.70253 0.06034 0.0
C51 C 0.86732 0.61169 0.00216 0.0
O52 O 0.80262 0.66648 0.92118 0.0
C53 C 0.84898 0.75539 0.06105 0.0
O54 O 0.81439 0.7381 0.95513 0.0
O55 O 0.87512 0.77677 0.03503 0.0
C56 C 0.21721 0.8478 0.34221 0.0
O57 O 0.20058 0.80829 0.36405 0.0
Cd58 Cd 0.10256 0.74036 0.38131 0.0
O59 O 0.17981 0.85771 0.32738 0.0
Cd60 Cd 0.06765 0.81313 0.32751 0.0
C61 C 0.0606 0.84405 0.40524 0.0
O62 O 0.0654 0.71891 0.32987 0.0
O63 O -0.02274 0.70582 0.32822 0.0
O64 O 0.08311 0.84666 0.27243 0.0
C65 C 0.01028 0.68215 0.32816 0.0
O66 O 0.07128 0.80124 0.4115 0.0
C67 C 0.03544 0.84915 0.27017 0.0
O68 O 0.06011 0.86027 0.37694 0.0
O69 O 0.00488 0.83879 0.29506 0.0
C70 C 0.31322 0.06033 0.644 0.0
O71 O 0.33143 0.10063 0.62256 0.0
Cd72 Cd 0.31215 0.18188 0.61791 0.0
O73 O 0.27546 0.05616 0.66461 0.0
Cd74 Cd 0.21783 0.11121 0.67038 0.0
C75 C 0.17108 0.09158 0.59359 0.0
O76 O 0.31195 0.20393 0.672 0.0
O77 O 0.2382 0.21977 0.67148 0.0
O78 O 0.20073 0.0778 0.72556 0.0
C79 C 0.29386 0.24131 0.67519 0.0
O80 O 0.22097 0.13886 0.58736 0.0
C81 C 0.14998 0.07396 0.72749 0.0
O82 O 0.16018 0.06918 0.62122 0.0
O83 O 0.12919 0.08295 0.70235 0.0
H84 H 0.18376 0.05531 0.78568 0.0
H85 H 0.02031 0.20614 0.86966 0.0
H86 H 0.05134 0.08371 0.7394 0.0
H87 H 0.09963 0.11939 0.92235 0.0
H88 H 0.02595 0.15521 0.82225 0.0
H89 H 0.14866 0.07052 0.8364 0.0
C90 C 0.14646 0.06341 0.7862 0.0
C91 C 0.12105 0.06915 0.7582 0.0
C92 C 0.04123 0.14636 0.84423 0.0
C93 C 0.08147 0.08769 0.81609 0.0
C94 C 0.03814 0.17559 0.8713 0.0
C95 C 0.05999 0.16735 0.89989 0.0
C96 C 0.0678 0.10977 0.84551 0.0
C97 C 0.0823 0.12696 0.90074 0.0
C98 C 0.12647 0.07214 0.81518 0.0
C99 C 0.0727 0.07947 0.76033 0.0
N100 N 0.0868 0.10059 0.87378 0.0
N101 N 0.05529 0.08957 0.7887 0.0
H102 H -0.04258 0.0883 0.25792 0.0
H103 H 0.91756 0.06917 0.07138 0.0
H104 H 0.78917 0.03031 0.21134 0.0
H105 H 0.08477 0.18683 0.1183 0.0
H106 H 0.87092 0.02865 0.12243 0.0
H107 H 0.0043 0.09784 0.20675 0.0
C108 C 0.92999 0.07624 0.23701 0.0
C109 C 0.86939 0.0592 0.23889 0.0
C110 C 0.91804 0.06263 0.12146 0.0
C111 C 0.92289 0.07017 0.18033 0.0
C112 C -0.05519 0.08558 0.09234 0.0
C113 C 0.00502 0.13204 0.0906 0.0
C114 C -0.04815 0.08582 0.14901 0.0
C115 C 0.03809 0.15152 0.11857 0.0
C116 C -0.04309 0.08206 0.20781 0.0
C117 C 0.83614 0.04419 0.21096 0.0
N118 N 0.01096 0.12867 0.14664 0.0
N119 N 0.86343 0.05053 0.18281 0.0
H120 H 0.84349 0.12406 0.46204 0.0
H121 H 0.71418 0.79607 0.53622 0.0
H122 H 0.79785 -0.03658 0.4068 0.0
H123 H 0.79291 -0.03824 0.59124 0.0
H124 H 0.75794 0.85716 0.48901 0.0
H125 H 0.83825 0.06753 0.50944 0.0
C126 C 0.83313 0.07704 0.45984 0.0
C127 C 0.82015 0.04815 0.43042 0.0
C128 C 0.76675 0.88018 0.51146 0.0
C129 C 0.81331 -0.01729 0.48481 0.0
C130 C 0.74184 0.84527 0.53849 0.0
C131 C 0.74902 0.87389 0.5677 0.0
C132 C 0.79827 0.9443 0.51354 0.0
C133 C 0.78579 0.93773 0.56921 0.0
C134 C 0.8303 0.04479 0.48696 0.0
C135 C 0.80777 -0.0126 0.42899 0.0
N136 N 0.80796 -0.02914 0.54242 0.0
N137 N 0.80355 0.95635 0.45586 0.0
H138 H 0.86123 0.72417 0.86972 0.0
H139 H 0.6958 0.87381 0.78668 0.0
H140 H 0.7779 0.80599 0.92303 0.0
H141 H 0.83142 0.85037 0.74064 0.0
H142 H 0.73026 0.85761 0.83739 0.0
H143 H 0.85622 0.77686 0.82286 0.0
C144 C 0.84267 0.75406 0.87162 0.0
C145 C 0.81953 0.76039 0.9002 0.0
C146 C 0.75329 0.85733 0.81623 0.0
C147 C 0.81236 0.81992 0.84643 0.0
C148 C 0.73368 0.86665 0.78725 0.0
C149 C 0.76016 0.86253 0.7593 0.0
C150 C 0.79902 0.84283 0.81717 0.0
C151 C 0.80921 0.85333 0.76152 0.0
C152 C 0.83993 0.78428 0.84486 0.0
C153 C 0.79626 0.79993 0.90141 0.0
N154 N 0.82626 0.84262 0.78986 0.0
N155 N 0.7921 0.82726 0.87472 0.0
H156 H 0.09536 0.88409 0.21416 0.0
H157 H -0.04215 0.85847 0.07085 0.0
H158 H 0.92314 0.82674 0.25574 0.0
H159 H 0.80068 0.72344 0.11999 0.0
H160 H 0.00726 0.89863 0.12133 0.0
H161 H 0.05209 0.87663 0.1623 0.0
C162 C 0.04875 0.87135 0.21242 0.0
C163 C 0.01281 0.85582 0.23934 0.0
C164 C -0.03801 0.86024 0.12107 0.0
C165 C -0.03728 0.84716 0.17993 0.0
C166 C 0.93344 0.83771 0.09225 0.0
C167 C 0.87534 0.78681 0.09117 0.0
C168 C 0.9322 0.8316 0.14901 0.0
C169 C 0.84577 0.7622 0.11968 0.0
C170 C 0.02405 0.86746 0.18275 0.0
C171 C -0.04744 0.83921 0.23564 0.0
N172 N 0.87467 0.78454 0.14742 0.0
N173 N 0.92915 0.83415 0.20646 0.0
H174 H 0.07984 -0.02799 0.59273 0.0
H175 H 0.07948 0.96121 0.40536 0.0
H176 H 0.1724 0.13163 0.53371 0.0
H177 H 0.02882 0.80556 0.46564 0.0
H178 H 0.08699 0.02232 0.45166 0.0
H179 H 0.03351 0.90991 0.54596 0.0
C180 C 0.08924 -0.00565 0.57006 0.0
C181 C 0.13108 0.05696 0.56711 0.0
C182 C 0.07319 -0.02552 0.45463 0.0
C183 C 0.0787 -0.01401 0.51347 0.0
C184 C 0.06867 0.93953 0.42821 0.0
C185 C 0.05454 0.8785 0.43171 0.0
C186 C 0.06301 0.94799 0.48465 0.0
C187 C 0.04091 0.85276 0.46191 0.0
C188 C 0.06307 0.95875 0.54333 0.0
C189 C 0.14126 0.08333 0.53707 0.0
N190 N 0.04608 0.88775 0.48721 0.0
N191 N 0.11603 0.04758 0.51138 0.0
H192 H 0.28505 0.30189 0.01317 0.0
H193 H 0.59395 0.6216 0.01386 0.0
H194 H 0.29871 0.47615 -0.00561 0.0
H195 H 0.57978 0.44813 -0.00781 0.0
H196 H 0.48534 0.568 0.02304 0.0
H197 H 0.39381 0.35519 0.02183 0.0
C198 C 0.3108 0.3513 0.01138 0.0
C199 C 0.28343 0.38468 0.00246 0.0
C200 C 0.50642 0.54181 0.0167 0.0
C201 C 0.4065 0.44553 0.01268 0.0
C202 C 0.56813 0.57229 0.01153 0.0
C203 C 0.5953 0.53926 0.00166 0.0
C204 C 0.47242 0.47805 0.01249 0.0
C205 C 0.56013 0.47537 -0.00088 0.0
C206 C 0.3726 0.3816 0.01624 0.0
C207 C 0.31851 0.44867 0.00058 0.0
N208 N 0.50044 0.44684 0.00432 0.0
N209 N 0.37831 0.47703 0.00546 0.0
H210 H 0.79922 0.28945 0.31158 0.0
H211 H 0.07498 0.62615 0.3373 0.0
H212 H -0.02185 0.32788 0.33239 0.0
H213 H 0.89479 0.58742 0.32012 0.0
H214 H 0.04013 0.51733 0.33573 0.0
H215 H 0.83365 0.39817 0.31411 0.0
C216 C 0.84596 0.32087 0.31663 0.0
C217 C 0.88598 0.2996 0.32188 0.0
C218 C 0.00808 0.53241 0.33236 0.0
C219 C 0.92558 0.42446 0.32485 0.0
C220 C 0.02787 0.59463 0.33325 0.0
C221 C -0.01239 0.61584 0.32871 0.0
C222 C -0.05245 0.49082 0.32677 0.0
C223 C 0.92721 0.57292 0.32374 0.0
C224 C 0.86548 0.38301 0.31811 0.0
C225 C -0.0541 0.34239 0.32819 0.0
N226 N 0.90898 0.51225 0.32278 0.0
N227 N -0.03608 0.40297 0.32955 0.0
H228 H 0.34451 0.01515 0.59503 0.0
H229 H 0.53998 0.91359 0.69675 0.0
H230 H 0.34723 0.02139 0.69617 0.0
H231 H 0.51845 0.89651 0.59619 0.0
H232 H 0.4734 0.95687 0.69821 0.0
H233 H 0.40812 -0.02979 0.59617 0.0
C234 C 0.35788 0.006 0.61755 0.0
C235 C 0.34077 0.02187 0.64552 0.0
C236 C 0.48372 0.94396 0.67587 0.0
C237 C 0.41521 -0.02813 0.64714 0.0
C238 C 0.52222 0.9201 0.675 0.0
C239 C 0.53445 0.9014 0.64631 0.0
C240 C 0.45798 0.94924 0.64784 0.0
C241 C 0.50983 0.90995 0.61883 0.0
C242 C 0.39459 -0.01927 0.61824 0.0
C243 C 0.35921 0.00917 0.67411 0.0
N244 N 0.47271 0.93295 0.62032 0.0
N245 N 0.39623 -0.01457 0.67422 0.0
H246 H 0.41446 0.29481 0.68041 0.0
H247 H 0.47041 0.63483 0.68469 0.0
H248 H 0.27259 0.33744 0.67736 0.0
H249 H 0.61241 0.59328 0.67575 0.0
H250 H 0.39796 0.52607 0.68694 0.0
H251 H 0.48745 0.40347 0.68349 0.0
C252 C 0.39858 0.3271 0.68046 0.0
C253 C 0.33729 0.30711 0.67839 0.0
C254 C 0.4449 0.54057 0.68457 0.0
C255 C 0.42094 0.43178 0.68197 0.0
C256 C 0.48645 0.60274 0.6833 0.0
C257 C 0.54759 0.62311 0.67976 0.0
C258 C 0.46447 0.49819 0.68235 0.0
C259 C 0.56569 0.57947 0.67834 0.0
C260 C 0.44041 0.38918 0.68221 0.0
C261 C 0.3194 0.35095 0.67877 0.0
N262 N 0.52416 0.51886 0.67952 0.0
N263 N 0.36116 0.4114 0.68043 0.0
H264 H -0.01564 0.63829 0.00074 0.0
H265 H 0.89446 0.28455 -0.0011 0.0
H266 H 0.80236 0.48767 0.00089 0.0
H267 H 0.07579 0.43494 0.00683 0.0
H268 H 0.85962 0.35855 -0.00309 0.0
H269 H 0.01932 0.56434 9e-05 0.0
C270 C -0.04812 0.5898 0.00055 0.0
C271 C 0.89052 0.56911 0.00098 0.0
C272 C 0.90705 0.37522 -0.00093 0.0
C273 C 0.92977 0.48449 0.00025 0.0
C274 C 0.92681 0.333 0.00021 0.0
C275 C -0.01204 0.3536 0.0031 0.0
C276 C -0.05116 0.43828 0.00077 0.0
C277 C 0.02814 0.41694 0.00466 0.0
C278 C -0.02828 0.5476 0.00022 0.0
C279 C 0.85018 0.50573 0.0007 0.0
N280 N 0.00789 0.45695 0.00348 0.0
N281 N 0.87051 0.46573 0.00038 0.0
H282 H 0.58544 0.94219 0.32226 0.0
H283 H 0.2861 -0.03764 0.3164 0.0
H284 H 0.58248 0.11056 0.33102 0.0
H285 H 0.29199 0.80248 0.34643 0.0
H286 H 0.39424 0.01402 0.306 0.0
H287 H 0.47617 0.88699 0.31511 0.0
C288 C 0.5619 -0.03251 0.32211 0.0
C289 C 0.59239 0.03054 0.32785 0.0
C290 C 0.37143 -0.03266 0.31452 0.0
C291 C 0.46884 -0.03136 0.31939 0.0
C292 C 0.30999 0.93803 0.32043 0.0
C293 C 0.28062 0.87877 0.33294 0.0
C294 C 0.40296 0.93653 0.32064 0.0
C295 C 0.31335 0.84883 0.3375 0.0
C296 C 0.49982 0.93618 0.31814 0.0
C297 C 0.56017 0.06158 0.32733 0.0
N298 N 0.37281 0.87812 0.3315 0.0
N299 N 0.50007 0.03029 0.32339 0.0
loop_
_geom_bond_atom_site_label_1
_geom_bond_atom_site_label_2
_geom_bond_distance
_geom_bond_site_symmetry_2
_ccdc_geom_bond_type
C0 O1 1.306 1_554 S
C0 O3 1.160 . S
O1 C0 1.306 1_556 S
O1 Cd2 2.228 . S
Cd2 O1 2.228 . S
Cd2 O6 2.273 1_556 S
Cd2 O10 2.277 . S
O3 C0 1.160 . S
O3 Cd4 2.203 . S
Cd4 O3 2.203 . S
Cd4 O6 2.411 . S
Cd4 O7 2.333 . S
Cd4 O8 2.352 . S
Cd4 O12 2.277 1_554 S
Cd4 O13 2.356 . S
C5 O10 1.209 . S
C5 O12 1.226 . S
O6 Cd2 2.273 1_554 S
O6 Cd4 2.411 . S
O6 C9 1.323 . S
O7 Cd4 2.333 . S
O7 C9 1.219 . S
O8 Cd4 2.352 . S
O8 C11 1.258 . S
C9 O6 1.323 . S
C9 O7 1.219 . S
O10 Cd2 2.277 . S
O10 C5 1.209 . S
C11 O8 1.258 . S
C11 O13 1.282 . S
O12 Cd4 2.277 1_556 S
O12 C5 1.226 . S
O13 Cd4 2.356 . S
O13 C11 1.282 . S
C14 O15 1.306 . S
C14 O17 1.160 . S
O15 C14 1.306 . S
O15 Cd16 2.228 . S
Cd16 O15 2.228 . S
Cd16 O20 2.273 . S
Cd16 O24 2.277 . S
O17 C14 1.160 . S
O17 Cd18 2.203 . S
Cd18 O17 2.203 . S
Cd18 O20 2.411 . S
Cd18 O21 2.333 . S
Cd18 O22 2.352 . S
Cd18 O26 2.277 . S
Cd18 O27 2.356 . S
C19 O24 1.209 . S
C19 O26 1.226 . S
O20 Cd16 2.273 . S
O20 Cd18 2.411 . S
O20 C23 1.320 . S
O21 Cd18 2.333 . S
O21 C23 1.214 . S
O22 Cd18 2.352 . S
O22 C25 1.258 . S
C23 O20 1.320 . S
C23 O21 1.214 . S
O24 Cd16 2.277 . S
O24 C19 1.209 . S
C25 O22 1.258 . S
C25 O27 1.282 . S
O26 Cd18 2.277 . S
O26 C19 1.226 . S
O27 Cd18 2.356 . S
O27 C25 1.282 . S
C28 O29 1.306 . S
C28 O31 1.160 . S
O29 C28 1.306 . S
O29 Cd30 2.228 . S
Cd30 O29 2.228 . S
Cd30 O34 2.273 . S
Cd30 O38 2.277 . S
O31 C28 1.160 . S
O31 Cd32 2.203 . S
Cd32 O31 2.203 . S
Cd32 O34 2.411 . S
Cd32 O35 2.333 . S
Cd32 O36 2.352 . S
Cd32 O40 2.277 . S
Cd32 O41 2.356 . S
C33 O38 1.209 . S
C33 O40 1.226 . S
O34 Cd30 2.273 . S
O34 Cd32 2.411 . S
O34 C37 1.320 . S
O35 Cd32 2.333 . S
O35 C37 1.214 . S
O36 Cd32 2.352 . S
O36 C39 1.258 . S
C37 O34 1.320 . S
C37 O35 1.214 . S
O38 Cd30 2.277 . S
O38 C33 1.209 . S
C39 O36 1.258 . S
C39 O41 1.282 . S
O40 Cd32 2.277 . S
O40 C33 1.226 . S
O41 Cd32 2.356 . S
O41 C39 1.282 . S
C42 O43 1.306 1_554 S
C42 O45 1.160 . S
O43 C42 1.306 1_556 S
O43 Cd44 2.228 . S
Cd44 O43 2.228 . S
Cd44 O48 2.273 1_556 S
Cd44 O52 2.277 . S
O45 C42 1.160 . S
O45 Cd46 2.203 . S
Cd46 O45 2.203 . S
Cd46 O48 2.411 . S
Cd46 O49 2.333 . S
Cd46 O50 2.352 . S
Cd46 O54 2.277 1_554 S
Cd46 O55 2.356 . S
C47 O52 1.209 . S
C47 O54 1.226 . S
O48 Cd44 2.273 1_554 S
O48 Cd46 2.411 . S
O48 C51 1.323 . S
O49 Cd46 2.333 . S
O49 C51 1.219 . S
O50 Cd46 2.352 . S
O50 C53 1.258 . S
C51 O48 1.323 . S
C51 O49 1.219 . S
O52 Cd44 2.277 . S
O52 C47 1.209 . S
C53 O50 1.258 . S
C53 O55 1.282 . S
O54 Cd46 2.277 1_556 S
O54 C47 1.226 . S
O55 Cd46 2.356 . S
O55 C53 1.282 . S
C56 O57 1.306 . S
C56 O59 1.160 . S
O57 C56 1.306 . S
O57 Cd58 2.228 . S
Cd58 O57 2.228 . S
Cd58 O62 2.273 . S
Cd58 O66 2.277 . S
O59 C56 1.160 . S
O59 Cd60 2.203 . S
Cd60 O59 2.203 . S
Cd60 O62 2.411 . S
Cd60 O63 2.333 . S
Cd60 O64 2.352 . S
Cd60 O68 2.277 . S
Cd60 O69 2.356 . S
C61 O66 1.209 . S
C61 O68 1.226 . S
O62 Cd58 2.273 . S
O62 Cd60 2.411 . S
O62 C65 1.320 . S
O63 Cd60 2.333 . S
O63 C65 1.214 . S
O64 Cd60 2.352 . S
O64 C67 1.258 . S
C65 O62 1.320 . S
C65 O63 1.214 . S
O66 Cd58 2.277 . S
O66 C61 1.209 . S
C67 O64 1.258 . S
C67 O69 1.282 . S
O68 Cd60 2.277 . S
O68 C61 1.226 . S
O69 Cd60 2.356 . S
O69 C67 1.282 . S
C70 O71 1.306 . S
C70 O73 1.160 . S
O71 C70 1.306 . S
O71 Cd72 2.228 . S
Cd72 O71 2.228 . S
Cd72 O76 2.273 . S
Cd72 O80 2.277 . S
O73 C70 1.160 . S
O73 Cd74 2.203 . S
Cd74 O73 2.203 . S
Cd74 O76 2.411 . S
Cd74 O77 2.333 . S
Cd74 O78 2.352 . S
Cd74 O82 2.277 . S
Cd74 O83 2.356 . S
C75 O80 1.209 . S
C75 O82 1.226 . S
O76 Cd72 2.273 . S
O76 Cd74 2.411 . S
O76 C79 1.320 . S
O77 Cd74 2.333 . S
O77 C79 1.214 . S
O78 Cd74 2.352 . S
O78 C81 1.258 . S
C79 O76 1.320 . S
C79 O77 1.214 . S
O80 Cd72 2.277 . S
O80 C75 1.209 . S
C81 O78 1.258 . S
C81 O83 1.282 . S
O82 Cd74 2.277 . S
O82 C75 1.226 . S
O83 Cd74 2.356 . S
O83 C81 1.282 . S
H84 C90 0.930 . S
H85 C94 0.930 . S
H86 C99 0.929 . S
H87 C97 0.929 . S
H88 C92 0.929 . S
H89 C98 0.929 . S
C90 H84 0.930 . S
C90 C91 1.367 . S
C90 C98 1.378 . S
C91 C90 1.367 . S
C91 C99 1.433 . S
C92 H88 0.929 . S
C92 C94 1.378 . S
C92 C96 1.350 . S
C93 C96 1.463 . S
C93 C98 1.350 . S
C93 N101 1.427 . S
C94 H85 0.930 . S
C94 C92 1.378 . S
C94 C95 1.367 . S
C95 C94 1.367 . S
C95 C97 1.433 . S
C96 C92 1.350 . S
C96 C93 1.463 . S
C96 N100 1.427 . S
C97 H87 0.929 . S
C97 C95 1.433 . S
C97 N100 1.384 . S
C98 H89 0.929 . S
C98 C90 1.378 . S
C98 C93 1.350 . S
C99 H86 0.929 . S
C99 C91 1.433 . S
C99 N101 1.384 . S
N100 C96 1.427 . S
N100 C97 1.384 . S
N101 C93 1.427 . S
N101 C99 1.384 . S
H102 C108 0.930 1_455 S
H103 C112 0.930 . S
H104 C117 0.929 . S
H105 C115 0.929 . S
H106 C110 0.929 . S
H107 C116 0.929 . S
C108 H102 0.930 1_655 S
C108 C109 1.367 . S
C108 C116 1.378 1_655 S
C109 C108 1.367 . S
C109 C117 1.433 . S
C110 H106 0.929 . S
C110 C112 1.378 . S
C110 C114 1.350 1_655 S
C111 C114 1.463 1_655 S
C111 C116 1.350 1_655 S
C111 N119 1.427 . S
C112 H103 0.930 . S
C112 C110 1.378 . S
C112 C113 1.367 1_655 S
C113 C112 1.367 1_455 S
C113 C115 1.433 . S
C114 C110 1.350 1_455 S
C114 C111 1.463 1_455 S
C114 N118 1.427 . S
C115 H105 0.929 . S
C115 C113 1.433 . S
C115 N118 1.384 . S
C116 H107 0.929 . S
C116 C108 1.378 1_455 S
C116 C111 1.350 1_455 S
C117 H104 0.929 . S
C117 C109 1.433 . S
C117 N119 1.384 . S
N118 C114 1.427 . S
N118 C115 1.384 . S
N119 C111 1.427 . S
N119 C117 1.384 . S
H120 C126 0.930 . S
H121 C130 0.930 . S
H122 C135 0.929 1_565 S
H123 C133 0.929 1_545 S
H124 C128 0.929 . S
H125 C134 0.929 . S
C126 H120 0.930 . S
C126 C127 1.367 . S
C126 C134 1.378 . S
C127 C126 1.367 . S
C127 C135 1.433 . S
C128 H124 0.929 . S
C128 C130 1.378 . S
C128 C132 1.350 . S
C129 C132 1.463 1_545 S
C129 C134 1.350 . S
C129 N137 1.427 1_545 S
C130 H121 0.930 . S
C130 C128 1.378 . S
C130 C131 1.367 . S
C131 C130 1.367 . S
C131 C133 1.433 . S
C132 C128 1.350 . S
C132 C129 1.463 1_565 S
C132 N136 1.427 1_565 S
C133 H123 0.929 1_565 S
C133 C131 1.433 . S
C133 N136 1.384 1_565 S
C134 H125 0.929 . S
C134 C126 1.378 . S
C134 C129 1.350 . S
C135 H122 0.929 1_545 S
C135 C127 1.433 . S
C135 N137 1.384 1_545 S
N136 C132 1.427 1_545 S
N136 C133 1.384 1_545 S
N137 C129 1.427 1_565 S
N137 C135 1.384 1_565 S
H138 C144 0.930 . S
H139 C148 0.930 . S
H140 C153 0.929 . S
H141 C151 0.929 . S
H142 C146 0.929 . S
H143 C152 0.929 . S
C144 H138 0.930 . S
C144 C145 1.367 . S
C144 C152 1.378 . S
C145 C144 1.367 . S
C145 C153 1.433 . S
C146 H142 0.929 . S
C146 C148 1.378 . S
C146 C150 1.350 . S
C147 C150 1.463 . S
C147 C152 1.350 . S
C147 N155 1.427 . S
C148 H139 0.930 . S
C148 C146 1.378 . S
C148 C149 1.367 . S
C149 C148 1.367 . S
C149 C151 1.433 . S
C150 C146 1.350 . S
C150 C147 1.463 . S
C150 N154 1.427 . S
C151 H141 0.929 . S
C151 C149 1.433 . S
C151 N154 1.384 . S
C152 H143 0.929 . S
C152 C144 1.378 . S
C152 C147 1.350 . S
C153 H140 0.929 . S
C153 C145 1.433 . S
C153 N155 1.384 . S
N154 C150 1.427 . S
N154 C151 1.384 . S
N155 C147 1.427 . S
N155 C153 1.384 . S
H156 C162 0.930 . S
H157 C166 0.930 . S
H158 C171 0.929 . S
H159 C169 0.929 . S
H160 C164 0.929 . S
H161 C170 0.929 . S
C162 H156 0.930 . S
C162 C163 1.367 . S
C162 C170 1.378 1_455 S
C163 C162 1.367 . S
C163 C171 1.433 . S
C164 H160 0.929 . S
C164 C166 1.378 1_455 S
C164 C168 1.350 1_455 S
C165 C168 1.463 1_455 S
C165 C170 1.350 1_455 S
C165 N173 1.427 . S
C166 H157 0.930 . S
C166 C164 1.378 1_655 S
C166 C167 1.367 . S
C167 C166 1.367 . S
C167 C169 1.433 . S
C168 C164 1.350 1_655 S
C168 C165 1.463 1_655 S
C168 N172 1.427 . S
C169 H159 0.929 . S
C169 C167 1.433 . S
C169 N172 1.384 . S
C170 H161 0.929 . S
C170 C162 1.378 1_655 S
C170 C165 1.350 1_655 S
C171 H158 0.929 . S
C171 C163 1.433 . S
C171 N173 1.384 . S
N172 C168 1.427 . S
N172 C169 1.384 . S
N173 C165 1.427 . S
N173 C171 1.384 . S
H174 C180 0.930 1_565 S
H175 C184 0.930 1_545 S
H176 C189 0.929 . S
H177 C187 0.929 . S
H178 C182 0.929 . S
H179 C188 0.929 . S
C180 H174 0.930 1_545 S
C180 C181 1.367 . S
C180 C188 1.378 1_545 S
C181 C180 1.367 . S
C181 C189 1.433 . S
C182 H178 0.929 . S
C182 C184 1.378 1_545 S
C182 C186 1.350 1_545 S
C183 C186 1.463 1_545 S
C183 C188 1.350 1_545 S
C183 N191 1.427 . S
C184 H175 0.930 1_565 S
C184 C182 1.378 1_565 S
C184 C185 1.367 . S
C185 C184 1.367 . S
C185 C187 1.433 . S
C186 C182 1.350 1_565 S
C186 C183 1.463 1_565 S
C186 N190 1.427 . S
C187 H177 0.929 . S
C187 C185 1.433 . S
C187 N190 1.384 . S
C188 H179 0.929 . S
C188 C180 1.378 1_565 S
C188 C183 1.350 1_565 S
C189 H176 0.929 . S
C189 C181 1.433 . S
C189 N191 1.384 . S
N190 C186 1.427 . S
N190 C187 1.384 . S
N191 C183 1.427 . S
N191 C189 1.384 . S
H192 C198 0.930 . S
H193 C202 0.930 . S
H194 C207 0.929 . S
H195 C205 0.929 . S
H196 C200 0.929 . S
H197 C206 0.929 . S
C198 H192 0.930 . S
C198 C199 1.367 . S
C198 C206 1.378 . S
C199 C198 1.367 . S
C199 C207 1.433 1_554 S
C200 H196 0.929 . S
C200 C202 1.378 . S
C200 C204 1.350 1_556 S
C201 C204 1.463 . S
C201 C206 1.350 . S
C201 N209 1.427 1_554 S
C202 H193 0.930 . S
C202 C200 1.378 . S
C202 C203 1.367 1_556 S
C203 C202 1.367 1_554 S
C203 C205 1.433 . S
C204 C200 1.350 1_554 S
C204 C201 1.463 . S
C204 N208 1.427 . S
C205 H195 0.929 . S
C205 C203 1.433 . S
C205 N208 1.384 . S
C206 H197 0.929 . S
C206 C198 1.378 . S
C206 C201 1.350 . S
C207 H194 0.929 . S
C207 C199 1.433 1_556 S
C207 N209 1.384 . S
N208 C204 1.427 . S
N208 C205 1.384 . S
N209 C201 1.427 1_556 S
N209 C207 1.384 . S
H210 C216 0.930 . S
H211 C220 0.930 . S
H212 C225 0.929 . S
H213 C223 0.929 . S
H214 C218 0.929 . S
H215 C224 0.929 . S
C216 H210 0.930 . S
C216 C217 1.367 . S
C216 C224 1.378 . S
C217 C216 1.367 . S
C217 C225 1.433 1_655 S
C218 H214 0.929 . S
C218 C220 1.378 . S
C218 C222 1.350 . S
C219 C222 1.463 1_655 S
C219 C224 1.350 . S
C219 N227 1.427 1_655 S
C220 H211 0.930 . S
C220 C218 1.378 . S
C220 C221 1.367 . S
C221 C220 1.367 . S
C221 C223 1.433 1_455 S
C222 C218 1.350 . S
C222 C219 1.463 1_455 S
C222 N226 1.427 1_455 S
C223 H213 0.929 . S
C223 C221 1.433 1_655 S
C223 N226 1.384 . S
C224 H215 0.929 . S
C224 C216 1.378 . S
C224 C219 1.350 . S
C225 H212 0.929 . S
C225 C217 1.433 1_455 S
C225 N227 1.384 . S
N226 C222 1.427 1_655 S
N226 C223 1.384 . S
N227 C219 1.427 1_455 S
N227 C225 1.384 . S
H228 C234 0.930 . S
H229 C238 0.930 . S
H230 C243 0.929 1_565 S
H231 C241 0.929 1_545 S
H232 C236 0.929 . S
H233 C242 0.929 . S
C234 H228 0.930 . S
C234 C235 1.367 . S
C234 C242 1.378 . S
C235 C234 1.367 . S
C235 C243 1.433 . S
C236 H232 0.929 . S
C236 C238 1.378 . S
C236 C240 1.350 . S
C237 C240 1.463 1_545 S
C237 C242 1.350 . S
C237 N245 1.427 1_545 S
C238 H229 0.930 . S
C238 C236 1.378 . S
C238 C239 1.367 . S
C239 C238 1.367 . S
C239 C241 1.433 . S
C240 C236 1.350 . S
C240 C237 1.463 1_565 S
C240 N244 1.427 1_565 S
C241 H231 0.929 1_565 S
C241 C239 1.433 . S
C241 N244 1.384 1_565 S
C242 H233 0.929 . S
C242 C234 1.378 . S
C242 C237 1.350 . S
C243 H230 0.929 1_545 S
C243 C235 1.433 . S
C243 N245 1.384 1_545 S
N244 C240 1.427 1_545 S
N244 C241 1.384 1_545 S
N245 C237 1.427 1_565 S
N245 C243 1.384 1_565 S
H246 C252 0.930 . S
H247 C256 0.930 . S
H248 C261 0.929 . S
H249 C259 0.929 . S
H250 C254 0.929 . S
H251 C260 0.929 . S
C252 H246 0.930 . S
C252 C253 1.367 . S
C252 C260 1.378 . S
C253 C252 1.367 . S
C253 C261 1.433 . S
C254 H250 0.929 . S
C254 C256 1.378 . S
C254 C258 1.350 . S
C255 C258 1.463 . S
C255 C260 1.350 . S
C255 N263 1.427 . S
C256 H247 0.930 . S
C256 C254 1.378 . S
C256 C257 1.367 . S
C257 C256 1.367 . S
C257 C259 1.433 . S
C258 C254 1.350 . S
C258 C255 1.463 . S
C258 N262 1.427 . S
C259 H249 0.929 . S
C259 C257 1.433 . S
C259 N262 1.384 . S
C260 H251 0.929 . S
C260 C252 1.378 . S
C260 C255 1.350 . S
C261 H248 0.929 . S
C261 C253 1.433 . S
C261 N263 1.384 . S
N262 C258 1.427 . S
N262 C259 1.384 . S
N263 C255 1.427 . S
N263 C261 1.384 . S
H264 C270 0.930 . S
H265 C274 0.930 . S
H266 C279 0.929 . S
H267 C277 0.929 . S
H268 C272 0.929 . S
H269 C278 0.929 . S
C270 H264 0.930 . S
C270 C271 1.367 1_455 S
C270 C278 1.378 . S
C271 C270 1.367 1_655 S
C271 C279 1.433 1_556 S
C272 H268 0.929 . S
C272 C274 1.378 . S
C272 C276 1.350 1_654 S
C273 C276 1.463 1_655 S
C273 C278 1.350 1_655 S
C273 N281 1.427 1_556 S
C274 H265 0.930 . S
C274 C272 1.378 . S
C274 C275 1.367 1_654 S
C275 C274 1.367 1_456 S
C275 C277 1.433 . S
C276 C272 1.350 1_456 S
C276 C273 1.463 1_455 S
C276 N280 1.427 . S
C277 H267 0.929 . S
C277 C275 1.433 . S
C277 N280 1.384 . S
C278 H269 0.929 . S
C278 C270 1.378 . S
C278 C273 1.350 1_455 S
C279 H266 0.929 . S
C279 C271 1.433 1_554 S
C279 N281 1.384 . S
N280 C276 1.427 . S
N280 C277 1.384 . S
N281 C273 1.427 1_554 S
N281 C279 1.384 . S
H282 C288 0.930 . S
H283 C292 0.930 . S
H284 C297 0.929 . S
H285 C295 0.929 . S
H286 C290 0.929 . S
H287 C296 0.929 . S
C288 H282 0.930 . S
C288 C289 1.367 1_565 S
C288 C296 1.378 . S
C289 C288 1.367 1_545 S
C289 C297 1.433 . S
C290 H286 0.929 . S
C290 C292 1.378 . S
C290 C294 1.350 1_545 S
C291 C294 1.463 1_545 S
C291 C296 1.350 1_545 S
C291 N299 1.427 . S
C292 H283 0.930 . S
C292 C290 1.378 . S
C292 C293 1.367 1_545 S
C293 C292 1.367 1_565 S
C293 C295 1.433 . S
C294 C290 1.350 1_565 S
C294 C291 1.463 1_565 S
C294 N298 1.427 . S
C295 H285 0.929 . S
C295 C293 1.433 . S
C295 N298 1.384 . S
C296 H287 0.929 . S
C296 C288 1.378 . S
C296 C291 1.350 1_565 S
C297 H284 0.929 . S
C297 C289 1.433 . S
C297 N299 1.384 . S
N298 C294 1.427 . S
N298 C295 1.384 . S
N299 C291 1.427 . S
N299 C297 1.384 . S
C91 C81 1.276 . S
C95 C5 1.266 . S
C109 C25 1.286 . S
C113 C11 1.288 . S
C127 C19 1.252 . S
C131 C33 1.256 . S
C145 C47 1.273 . S
C149 C39 1.269 . S
C163 C67 1.285 . S
C167 C53 1.291 . S
C181 C75 1.256 . S
C185 C61 1.250 . S
C199 C0 1.430 . S
C203 C42 1.423 . S
C217 C23 1.426 . S
C221 C65 1.431 . S
C235 C70 1.379 . S
C239 C28 1.386 . S
C253 C79 1.388 . S
C257 C37 1.395 . S
C271 C51 1.428 1_556 S
C275 C9 1.426 1_556 S
C289 C14 1.391 . S
C293 C56 1.386 . S
