# Generated by pormake.
# Topology cbo, (4)-cn, num edge types: 1
# Building blocks:
#     Node 0, Type 0, BuildingBlock: QUQFOY_clean_sbu_1, # of connection points: 4
#     Node 1, Type 0, BuildingBlock: QUQFOY_clean_sbu_1, # of connection points: 4
#     Node 2, Type 0, BuildingBlock: QUQFOY_clean_sbu_1, # of connection points: 4
#     Node 3, Type 0, BuildingBlock: QUQFOY_clean_sbu_1, # of connection points: 4
#     Node 4, Type 0, BuildingBlock: QUQFOY_clean_sbu_1, # of connection points: 4
#     Node 5, Type 0, BuildingBlock: QUQFOY_clean_sbu_1, # of connection points: 4
#     Node 6, Type 0, BuildingBlock: QUQFOY_clean_sbu_1, # of connection points: 4
#     Node 7, Type 0, BuildingBlock: QUQFOY_clean_sbu_1, # of connection points: 4
#     Node 8, Type 0, BuildingBlock: QUQFOY_clean_sbu_1, # of connection points: 4
#     Node 9, Type 0, BuildingBlock: QUQFOY_clean_sbu_1, # of connection points: 4
#     Node 10, Type 0, BuildingBlock: QUQFOY_clean_sbu_1, # of connection points: 4
#     Node 11, Type 0, BuildingBlock: QUQFOY_clean_sbu_1, # of connection points: 4
#     Node 12, Type 0, BuildingBlock: QUQFOY_clean_sbu_1, # of connection points: 4
#     Node 13, Type 0, BuildingBlock: QUQFOY_clean_sbu_1, # of connection points: 4
#     Node 14, Type 0, BuildingBlock: QUQFOY_clean_sbu_1, # of connection points: 4
#     Node 15, Type 0, BuildingBlock: QUQFOY_clean_sbu_1, # of connection points: 4
#     Node 16, Type 0, BuildingBlock: QUQFOY_clean_sbu_1, # of connection points: 4
#     Node 17, Type 0, BuildingBlock: QUQFOY_clean_sbu_1, # of connection points: 4
#     Node 18, Type 0, BuildingBlock: QUQFOY_clean_sbu_1, # of connection points: 4
#     Node 19, Type 0, BuildingBlock: QUQFOY_clean_sbu_1, # of connection points: 4
#     Node 20, Type 0, BuildingBlock: QUQFOY_clean_sbu_1, # of connection points: 4
#     Node 21, Type 0, BuildingBlock: QUQFOY_clean_sbu_1, # of connection points: 4
#     Node 22, Type 0, BuildingBlock: QUQFOY_clean_sbu_1, # of connection points: 4
#     Node 23, Type 0, BuildingBlock: QUQFOY_clean_sbu_1, # of connection points: 4
#     Edge 24, Type (0, 0), BuildingBlock: OJICUG_clean_linker_0, # of connection points: 2
#     Edge 25, Type (0, 0), BuildingBlock: OJICUG_clean_linker_0, # of connection points: 2
#     Edge 26, Type (0, 0), BuildingBlock: OJICUG_clean_linker_0, # of connection points: 2
#     Edge 27, Type (0, 0), BuildingBlock: OJICUG_clean_linker_0, # of connection points: 2
#     Edge 28, Type (0, 0), BuildingBlock: OJICUG_clean_linker_0, # of connection points: 2
#     Edge 29, Type (0, 0), BuildingBlock: OJICUG_clean_linker_0, # of connection points: 2
#     Edge 30, Type (0, 0), BuildingBlock: OJICUG_clean_linker_0, # of connection points: 2
#     Edge 31, Type (0, 0), BuildingBlock: OJICUG_clean_linker_0, # of connection points: 2
#     Edge 32, Type (0, 0), BuildingBlock: OJICUG_clean_linker_0, # of connection points: 2
#     Edge 33, Type (0, 0), BuildingBlock: OJICUG_clean_linker_0, # of connection points: 2
#     Edge 34, Type (0, 0), BuildingBlock: OJICUG_clean_linker_0, # of connection points: 2
#     Edge 35, Type (0, 0), BuildingBlock: OJICUG_clean_linker_0, # of connection points: 2
#     Edge 36, Type (0, 0), BuildingBlock: OJICUG_clean_linker_0, # of connection points: 2
#     Edge 37, Type (0, 0), BuildingBlock: OJICUG_clean_linker_0, # of connection points: 2
#     Edge 38, Type (0, 0), BuildingBlock: OJICUG_clean_linker_0, # of connection points: 2
#     Edge 39, Type (0, 0), BuildingBlock: OJICUG_clean_linker_0, # of connection points: 2
#     Edge 40, Type (0, 0), BuildingBlock: OJICUG_clean_linker_0, # of connection points: 2
#     Edge 41, Type (0, 0), BuildingBlock: OJICUG_clean_linker_0, # of connection points: 2
#     Edge 42, Type (0, 0), BuildingBlock: OJICUG_clean_linker_0, # of connection points: 2
#     Edge 43, Type (0, 0), BuildingBlock: OJICUG_clean_linker_0, # of connection points: 2
#     Edge 44, Type (0, 0), BuildingBlock: OJICUG_clean_linker_0, # of connection points: 2
#     Edge 45, Type (0, 0), BuildingBlock: OJICUG_clean_linker_0, # of connection points: 2
#     Edge 46, Type (0, 0), BuildingBlock: OJICUG_clean_linker_0, # of connection points: 2
#     Edge 47, Type (0, 0), BuildingBlock: OJICUG_clean_linker_0, # of connection points: 2
#     Edge 48, Type (0, 0), BuildingBlock: OJICUG_clean_linker_0, # of connection points: 2
#     Edge 49, Type (0, 0), BuildingBlock: OJICUG_clean_linker_0, # of connection points: 2
#     Edge 50, Type (0, 0), BuildingBlock: OJICUG_clean_linker_0, # of connection points: 2
#     Edge 51, Type (0, 0), BuildingBlock: OJICUG_clean_linker_0, # of connection points: 2
#     Edge 52, Type (0, 0), BuildingBlock: OJICUG_clean_linker_0, # of connection points: 2
#     Edge 53, Type (0, 0), BuildingBlock: OJICUG_clean_linker_0, # of connection points: 2
#     Edge 54, Type (0, 0), BuildingBlock: OJICUG_clean_linker_0, # of connection points: 2
#     Edge 55, Type (0, 0), BuildingBlock: OJICUG_clean_linker_0, # of connection points: 2
#     Edge 56, Type (0, 0), BuildingBlock: OJICUG_clean_linker_0, # of connection points: 2
#     Edge 57, Type (0, 0), BuildingBlock: OJICUG_clean_linker_0, # of connection points: 2
#     Edge 58, Type (0, 0), BuildingBlock: OJICUG_clean_linker_0, # of connection points: 2
#     Edge 59, Type (0, 0), BuildingBlock: OJICUG_clean_linker_0, # of connection points: 2
#     Edge 60, Type (0, 0), BuildingBlock: OJICUG_clean_linker_0, # of connection points: 2
#     Edge 61, Type (0, 0), BuildingBlock: OJICUG_clean_linker_0, # of connection points: 2
#     Edge 62, Type (0, 0), BuildingBlock: OJICUG_clean_linker_0, # of connection points: 2
#     Edge 63, Type (0, 0), BuildingBlock: OJICUG_clean_linker_0, # of connection points: 2
#     Edge 64, Type (0, 0), BuildingBlock: OJICUG_clean_linker_0, # of connection points: 2
#     Edge 65, Type (0, 0), BuildingBlock: OJICUG_clean_linker_0, # of connection points: 2
#     Edge 66, Type (0, 0), BuildingBlock: OJICUG_clean_linker_0, # of connection points: 2
#     Edge 67, Type (0, 0), BuildingBlock: OJICUG_clean_linker_0, # of connection points: 2
#     Edge 68, Type (0, 0), BuildingBlock: OJICUG_clean_linker_0, # of connection points: 2
#     Edge 69, Type (0, 0), BuildingBlock: OJICUG_clean_linker_0, # of connection points: 2
#     Edge 70, Type (0, 0), BuildingBlock: OJICUG_clean_linker_0, # of connection points: 2
#     Edge 71, Type (0, 0), BuildingBlock: OJICUG_clean_linker_0, # of connection points: 2
# Relax obj value: 0.088
# Max RMSD: 0.128
# Mean RMSD: 0.128
data_MOF--net-cbo--node1-QUQFOY_clean_sbu_1--edge1-OJICUG_clean_linker_0
_symmetry_space_group_name_H-M    P1
_symmetry_Int_Tables_number       1
_symmetry_cell_setting            triclinic
loop_
_symmetry_equiv_pos_as_xyz
'x, y, z'
_cell_length_a     39.945447
_cell_length_b     39.919993
_cell_length_c     39.922876
_cell_angle_alpha  90.00181
_cell_angle_beta   90.014956
_cell_angle_gamma 89.995617
loop_
_atom_site_label
_atom_site_type_symbol
_atom_site_fract_x
_atom_site_fract_y
_atom_site_fract_z
_atom_type_partial_charge
O0 O 0.07097 0.18225 0.25083 0.0
Cd1 Cd 0.0711 0.14064 0.28137 0.0
Cd2 Cd 0.1087 0.17958 0.3199 0.0
O3 O 0.09668 0.21654 0.28546 0.0
O4 O 0.03132 0.11484 0.26577 0.0
O5 O 0.03597 0.13524 0.31715 0.0
C6 C 0.01819 0.11994 0.29484 0.0
C7 C 0.1047 0.19007 0.37734 0.0
C8 C 0.08245 0.21117 0.25747 0.0
C9 C 0.14257 0.12039 0.28745 0.0
O10 O 0.14591 0.14713 0.30447 0.0
O11 O 0.11368 0.11129 0.27745 0.0
O12 O 0.12697 0.20459 0.35907 0.0
O13 O 0.08406 0.16972 0.363 0.0
O14 O 0.43709 0.82642 0.75085 0.0
Cd15 Cd 0.43698 0.86804 0.78139 0.0
Cd16 Cd 0.39938 0.8291 0.8199 0.0
O17 O 0.41139 0.79214 0.78547 0.0
O18 O 0.47675 0.89383 0.76577 0.0
O19 O 0.47214 0.87345 0.81715 0.0
C20 C 0.48991 0.88874 0.79483 0.0
C21 C 0.40336 0.8186 0.87735 0.0
C22 C 0.42562 0.79751 0.75749 0.0
C23 C 0.36552 0.8883 0.78744 0.0
O24 O 0.36218 0.86156 0.80446 0.0
O25 O 0.39441 0.8974 0.77745 0.0
O26 O 0.3811 0.80408 0.85906 0.0
O27 O 0.424 0.83895 0.86303 0.0
O28 O 0.57096 0.32642 0.75779 0.0
Cd29 Cd 0.57106 0.36804 0.72725 0.0
Cd30 Cd 0.60866 0.3291 0.68873 0.0
O31 O 0.59666 0.29214 0.72317 0.0
O32 O 0.53129 0.39384 0.74286 0.0
O33 O 0.5359 0.37345 0.69148 0.0
C34 C 0.51813 0.38874 0.7138 0.0
C35 C 0.60468 0.3186 0.63129 0.0
C36 C 0.58243 0.29751 0.75114 0.0
C37 C 0.64253 0.3883 0.72119 0.0
O38 O 0.64586 0.36155 0.70417 0.0
O39 O 0.61363 0.3974 0.73118 0.0
O40 O 0.62695 0.30408 0.64958 0.0
O41 O 0.58404 0.33895 0.64561 0.0
O42 O 0.93706 0.68223 0.25778 0.0
Cd43 Cd 0.93694 0.64061 0.22724 0.0
Cd44 Cd 0.89934 0.67955 0.18872 0.0
O45 O 0.91135 0.71651 0.22316 0.0
O46 O 0.97673 0.61481 0.24284 0.0
O47 O 0.97207 0.63521 0.19147 0.0
C48 C 0.98986 0.61992 0.21377 0.0
C49 C 0.90334 0.69004 0.13128 0.0
C50 C 0.92559 0.71114 0.25114 0.0
C51 C 0.86547 0.62036 0.22116 0.0
O52 O 0.86213 0.6471 0.20414 0.0
O53 O 0.89437 0.61126 0.23116 0.0
O54 O 0.88107 0.70457 0.14955 0.0
O55 O 0.92398 0.66969 0.14562 0.0
O56 O 0.2505 0.07166 0.18218 0.0
Cd57 Cd 0.28111 0.07183 0.14064 0.0
Cd58 Cd 0.31948 0.10948 0.17967 0.0
O59 O 0.28499 0.09743 0.21655 0.0
O60 O 0.26559 0.03204 0.11478 0.0
O61 O 0.3169 0.0367 0.13527 0.0
C62 C 0.29465 0.01891 0.11991 0.0
C63 C 0.37688 0.10543 0.1902 0.0
C64 C 0.25706 0.08315 0.21111 0.0
C65 C 0.28712 0.14335 0.12042 0.0
O66 O 0.30408 0.14671 0.1472 0.0
O67 O 0.27719 0.11443 0.1113 0.0
O68 O 0.35863 0.12771 0.20473 0.0
O69 O 0.36255 0.0848 0.16983 0.0
O70 O 0.25756 0.93704 0.68215 0.0
Cd71 Cd 0.22693 0.93687 0.64061 0.0
Cd72 Cd 0.18858 0.89921 0.67962 0.0
O73 O 0.22308 0.91127 0.71651 0.0
O74 O 0.24243 0.97666 0.61475 0.0
O75 O 0.19113 0.97198 0.63524 0.0
C76 C 0.21337 0.98978 0.61989 0.0
C77 C 0.13118 0.90325 0.69016 0.0
C78 C 0.25101 0.92555 0.71107 0.0
C79 C 0.22092 0.86535 0.62037 0.0
O80 O 0.20397 0.86198 0.64714 0.0
O81 O 0.23085 0.89427 0.61126 0.0
O82 O 0.14945 0.88096 0.70468 0.0
O83 O 0.1455 0.92388 0.66979 0.0
O84 O 0.75048 0.43703 0.82649 0.0
Cd85 Cd 0.78111 0.43686 0.86803 0.0
Cd86 Cd 0.81946 0.3992 0.82901 0.0
O87 O 0.78496 0.41125 0.79213 0.0
O88 O 0.76562 0.47666 0.89388 0.0
O89 O 0.81691 0.47197 0.87339 0.0
C90 C 0.79467 0.48977 0.88874 0.0
C91 C 0.87686 0.40324 0.81847 0.0
C92 C 0.75702 0.42554 0.79757 0.0
C93 C 0.78713 0.36534 0.88826 0.0
O94 O 0.80408 0.36197 0.86149 0.0
O95 O 0.7772 0.39426 0.89738 0.0
O96 O 0.85859 0.38096 0.80395 0.0
O97 O 0.86254 0.42387 0.83885 0.0
O98 O 0.75755 0.57164 0.32643 0.0
Cd99 Cd 0.72695 0.57181 0.36798 0.0
Cd100 Cd 0.68857 0.60947 0.32895 0.0
O101 O 0.72306 0.59741 0.29207 0.0
O102 O 0.74246 0.53202 0.39384 0.0
O103 O 0.69115 0.5367 0.37335 0.0
C104 C 0.7134 0.5189 0.38871 0.0
C105 C 0.63117 0.60542 0.31842 0.0
C106 C 0.751 0.58313 0.29751 0.0
C107 C 0.72093 0.64334 0.3882 0.0
O108 O 0.70397 0.6467 0.36142 0.0
O109 O 0.73087 0.61442 0.39732 0.0
O110 O 0.64942 0.6277 0.30389 0.0
O111 O 0.6455 0.5848 0.3388 0.0
O112 O 0.18174 0.25113 0.07152 0.0
Cd113 Cd 0.14015 0.28167 0.07163 0.0
Cd114 Cd 0.17902 0.32016 0.10934 0.0
O115 O 0.21596 0.2857 0.09737 0.0
O116 O 0.11435 0.26602 0.03185 0.0
O117 O 0.13468 0.31742 0.03646 0.0
C118 C 0.1194 0.29509 0.01869 0.0
C119 C 0.18955 0.37759 0.10532 0.0
C120 C 0.21062 0.25775 0.08307 0.0
C121 C 0.11982 0.28771 0.14312 0.0
O122 O 0.14654 0.30474 0.14652 0.0
O123 O 0.11079 0.27771 0.1142 0.0
O124 O 0.20402 0.35932 0.12764 0.0
O125 O 0.16922 0.36326 0.08465 0.0
O126 O 0.68178 0.25756 0.93714 0.0
Cd127 Cd 0.64019 0.22702 0.93701 0.0
Cd128 Cd 0.67906 0.18853 0.89931 0.0
O129 O 0.716 0.22299 0.9113 0.0
O130 O 0.61439 0.24267 0.97678 0.0
O131 O 0.63473 0.19127 0.97218 0.0
C132 C 0.61945 0.2136 0.98994 0.0
C133 C 0.68962 0.1311 0.90332 0.0
C134 C 0.71065 0.25094 0.9256 0.0
C135 C 0.61985 0.22098 0.86551 0.0
O136 O 0.64657 0.20395 0.86212 0.0
O137 O 0.61082 0.23097 0.89443 0.0
O138 O 0.70408 0.14938 0.88101 0.0
O139 O 0.66928 0.14542 0.92398 0.0
O140 O 0.8263 0.75111 0.4371 0.0
Cd141 Cd 0.8679 0.78165 0.43699 0.0
Cd142 Cd 0.82901 0.82014 0.39929 0.0
O143 O 0.79208 0.78569 0.41126 0.0
O144 O 0.89369 0.766 0.47677 0.0
O145 O 0.87336 0.8174 0.47217 0.0
C146 C 0.88864 0.79507 0.48993 0.0
C147 C 0.81848 0.87757 0.40331 0.0
C148 C 0.79743 0.75773 0.42556 0.0
C149 C 0.88821 0.78769 0.3655 0.0
O150 O 0.8615 0.80472 0.3621 0.0
O151 O 0.89725 0.77769 0.39442 0.0
O152 O 0.80401 0.8593 0.38099 0.0
O153 O 0.83882 0.86324 0.42398 0.0
O154 O 0.32628 0.75756 0.5715 0.0
Cd155 Cd 0.36787 0.72701 0.57162 0.0
Cd156 Cd 0.32899 0.68853 0.60932 0.0
O157 O 0.29206 0.72299 0.59733 0.0
O158 O 0.39366 0.74266 0.53186 0.0
O159 O 0.37333 0.69126 0.53645 0.0
C160 C 0.38861 0.71359 0.51869 0.0
C161 C 0.31844 0.6311 0.60532 0.0
C162 C 0.29741 0.75094 0.58304 0.0
C163 C 0.3882 0.72097 0.64312 0.0
O164 O 0.36149 0.70394 0.64651 0.0
O165 O 0.39724 0.73096 0.6142 0.0
O166 O 0.30398 0.64938 0.62762 0.0
O167 O 0.33877 0.64541 0.58465 0.0
O168 O 0.93711 0.82642 0.75779 0.0
Cd169 Cd 0.93699 0.86803 0.72725 0.0
Cd170 Cd 0.89938 0.8291 0.68872 0.0
O171 O 0.9114 0.79214 0.72316 0.0
O172 O 0.97677 0.89383 0.74285 0.0
O173 O 0.97212 0.87344 0.69148 0.0
C174 C 0.9899 0.88873 0.71379 0.0
C175 C 0.90337 0.8186 0.63128 0.0
C176 C 0.92564 0.79751 0.75114 0.0
C177 C 0.86552 0.88829 0.72117 0.0
O178 O 0.86218 0.86155 0.70415 0.0
O179 O 0.89441 0.89739 0.73117 0.0
O180 O 0.88111 0.80408 0.64955 0.0
O181 O 0.92401 0.83896 0.64562 0.0
O182 O 0.57099 0.18225 0.25778 0.0
Cd183 Cd 0.5711 0.14063 0.22724 0.0
Cd184 Cd 0.6087 0.17957 0.18873 0.0
O185 O 0.59669 0.21653 0.22317 0.0
O186 O 0.53134 0.11483 0.24286 0.0
O187 O 0.53595 0.13522 0.19148 0.0
C188 C 0.51818 0.11993 0.21379 0.0
C189 C 0.60471 0.19007 0.13129 0.0
C190 C 0.58246 0.21116 0.25114 0.0
C191 C 0.64257 0.12038 0.22118 0.0
O192 O 0.64591 0.14712 0.20417 0.0
O193 O 0.61368 0.11128 0.23117 0.0
O194 O 0.62698 0.20459 0.14957 0.0
O195 O 0.58407 0.16972 0.14561 0.0
O196 O 0.43705 0.68225 0.25084 0.0
Cd197 Cd 0.43694 0.64063 0.28138 0.0
Cd198 Cd 0.39935 0.67958 0.3199 0.0
O199 O 0.41135 0.71654 0.28546 0.0
O200 O 0.47672 0.61483 0.26577 0.0
O201 O 0.4721 0.63522 0.31715 0.0
C202 C 0.48987 0.61993 0.29483 0.0
C203 C 0.40334 0.69007 0.37734 0.0
C204 C 0.42558 0.71116 0.25749 0.0
C205 C 0.36548 0.62038 0.28744 0.0
O206 O 0.36214 0.64713 0.30446 0.0
O207 O 0.39437 0.61128 0.27745 0.0
O208 O 0.38107 0.70459 0.35906 0.0
O209 O 0.42398 0.66971 0.36302 0.0
O210 O 0.07094 0.32644 0.75084 0.0
Cd211 Cd 0.07106 0.36806 0.78138 0.0
Cd212 Cd 0.10867 0.32912 0.8199 0.0
O213 O 0.09666 0.29216 0.78546 0.0
O214 O 0.03127 0.39385 0.76578 0.0
O215 O 0.03593 0.37346 0.81715 0.0
C216 C 0.01814 0.38875 0.79484 0.0
C217 C 0.10468 0.31863 0.87734 0.0
C218 C 0.08242 0.29753 0.75748 0.0
C219 C 0.14253 0.38832 0.78745 0.0
O220 O 0.14587 0.36158 0.80448 0.0
O221 O 0.11363 0.39741 0.77745 0.0
O222 O 0.12695 0.30411 0.85907 0.0
O223 O 0.08404 0.33898 0.86301 0.0
O224 O 0.75759 0.93704 0.82643 0.0
Cd225 Cd 0.72698 0.93687 0.86797 0.0
Cd226 Cd 0.68861 0.89921 0.82895 0.0
O227 O 0.7231 0.91127 0.79207 0.0
O228 O 0.74248 0.97666 0.89384 0.0
O229 O 0.69118 0.97198 0.87334 0.0
C230 C 0.71343 0.98978 0.8887 0.0
C231 C 0.63121 0.90326 0.81841 0.0
C232 C 0.75103 0.92555 0.79751 0.0
C233 C 0.72097 0.86535 0.8882 0.0
O234 O 0.70401 0.86198 0.86142 0.0
O235 O 0.7309 0.89426 0.89732 0.0
O236 O 0.64946 0.88098 0.80388 0.0
O237 O 0.64554 0.92389 0.83879 0.0
O238 O 0.75053 0.07165 0.32648 0.0
Cd239 Cd 0.78115 0.07182 0.36803 0.0
Cd240 Cd 0.81951 0.10948 0.32902 0.0
O241 O 0.78501 0.09743 0.29213 0.0
O242 O 0.76565 0.03203 0.39389 0.0
O243 O 0.81695 0.0367 0.3734 0.0
C244 C 0.7947 0.01891 0.38875 0.0
C245 C 0.87691 0.10544 0.31847 0.0
C246 C 0.75708 0.08314 0.29756 0.0
C247 C 0.78717 0.14334 0.38826 0.0
O248 O 0.80412 0.14671 0.36149 0.0
O249 O 0.77724 0.11442 0.39738 0.0
O250 O 0.85864 0.12772 0.30395 0.0
O251 O 0.86259 0.08481 0.33885 0.0
O252 O 0.25753 0.57166 0.18214 0.0
Cd253 Cd 0.2269 0.57183 0.1406 0.0
Cd254 Cd 0.18854 0.60949 0.17961 0.0
O255 O 0.22304 0.59744 0.2165 0.0
O256 O 0.2424 0.53204 0.11474 0.0
O257 O 0.1911 0.53672 0.13523 0.0
C258 C 0.21335 0.51892 0.11988 0.0
C259 C 0.13115 0.60544 0.19015 0.0
C260 C 0.25098 0.58315 0.21106 0.0
C261 C 0.22088 0.64335 0.12036 0.0
O262 O 0.20393 0.64672 0.14714 0.0
O263 O 0.23081 0.61443 0.11125 0.0
O264 O 0.14941 0.62773 0.20467 0.0
O265 O 0.14547 0.58482 0.16977 0.0
O266 O 0.25045 0.43705 0.68219 0.0
Cd267 Cd 0.28106 0.43687 0.64065 0.0
Cd268 Cd 0.31943 0.39922 0.67967 0.0
O269 O 0.28494 0.41128 0.71655 0.0
O270 O 0.26556 0.47667 0.61479 0.0
O271 O 0.31686 0.47198 0.63529 0.0
C272 C 0.29462 0.48978 0.61992 0.0
C273 C 0.37683 0.40326 0.69021 0.0
C274 C 0.25701 0.42556 0.71111 0.0
C275 C 0.28707 0.36535 0.62042 0.0
O276 O 0.30404 0.36199 0.6472 0.0
O277 O 0.27714 0.39427 0.61131 0.0
O278 O 0.35858 0.38098 0.70474 0.0
O279 O 0.3625 0.42389 0.66983 0.0
O280 O 0.82634 0.75756 0.93709 0.0
Cd281 Cd 0.86793 0.72701 0.93698 0.0
Cd282 Cd 0.82905 0.68852 0.89927 0.0
O283 O 0.79212 0.72298 0.91125 0.0
O284 O 0.89372 0.74265 0.97677 0.0
O285 O 0.87338 0.69125 0.97216 0.0
C286 C 0.88866 0.71358 0.98992 0.0
C287 C 0.8185 0.63109 0.90329 0.0
C288 C 0.79747 0.75094 0.92554 0.0
C289 C 0.88825 0.72097 0.86549 0.0
O290 O 0.86154 0.70394 0.86209 0.0
O291 O 0.89729 0.73096 0.89442 0.0
O292 O 0.80404 0.64937 0.88097 0.0
O293 O 0.83884 0.64542 0.92396 0.0
O294 O 0.32624 0.75112 0.07149 0.0
Cd295 Cd 0.36784 0.78166 0.07162 0.0
Cd296 Cd 0.32896 0.82015 0.10931 0.0
O297 O 0.29202 0.7857 0.09733 0.0
O298 O 0.39363 0.766 0.03185 0.0
O299 O 0.3733 0.81741 0.03644 0.0
C300 C 0.38858 0.79507 0.01869 0.0
C301 C 0.31842 0.87759 0.1053 0.0
C302 C 0.29737 0.75775 0.08303 0.0
C303 C 0.38817 0.78769 0.14312 0.0
O304 O 0.36145 0.80473 0.1465 0.0
O305 O 0.3972 0.7777 0.11419 0.0
O306 O 0.30396 0.85931 0.12761 0.0
O307 O 0.33875 0.86326 0.08464 0.0
O308 O 0.18171 0.25757 0.57153 0.0
Cd309 Cd 0.14012 0.22703 0.57164 0.0
Cd310 Cd 0.17901 0.18854 0.60934 0.0
O311 O 0.21594 0.22299 0.59737 0.0
O312 O 0.11433 0.24267 0.53186 0.0
O313 O 0.13467 0.19127 0.53646 0.0
C314 C 0.11939 0.2136 0.51869 0.0
C315 C 0.18955 0.13111 0.60532 0.0
C316 C 0.21059 0.25095 0.58307 0.0
C317 C 0.1198 0.22099 0.64313 0.0
O318 O 0.14652 0.20396 0.64652 0.0
O319 O 0.11076 0.23098 0.6142 0.0
O320 O 0.20402 0.14938 0.62764 0.0
O321 O 0.16922 0.14543 0.58466 0.0
O322 O 0.6818 0.25112 0.43714 0.0
Cd323 Cd 0.6402 0.28166 0.43701 0.0
Cd324 Cd 0.67907 0.32015 0.39932 0.0
O325 O 0.71601 0.2857 0.4113 0.0
O326 O 0.61441 0.266 0.47678 0.0
O327 O 0.63473 0.31741 0.47219 0.0
C328 C 0.61945 0.29507 0.48994 0.0
C329 C 0.68961 0.37758 0.40332 0.0
C330 C 0.71067 0.25774 0.4256 0.0
C331 C 0.61987 0.2877 0.36551 0.0
O332 O 0.64658 0.30473 0.36213 0.0
O333 O 0.61084 0.2777 0.39443 0.0
O334 O 0.70408 0.3593 0.38102 0.0
O335 O 0.66929 0.36327 0.42399 0.0
C336 C 0.11444 0.28343 0.20557 0.0
C337 C 0.10288 0.27449 0.17348 0.0
H338 H 0.11657 0.27074 0.25761 0.0
C339 C 0.07908 0.24869 0.17072 0.0
H340 H 0.13247 0.30346 0.20871 0.0
C341 C 0.07 0.22986 0.19883 0.0
C342 C 0.08442 0.2365 0.23031 0.0
H343 H 0.06937 0.24132 0.14649 0.0
H344 H 0.05347 0.20862 0.19538 0.0
C345 C 0.10526 0.26467 0.23371 0.0
C346 C 0.40278 0.74401 0.73372 0.0
C347 C 0.42364 0.77218 0.73032 0.0
H348 H 0.37556 0.70523 0.70871 0.0
C349 C 0.43805 0.77881 0.69885 0.0
H350 H 0.39148 0.73795 0.75761 0.0
C351 C 0.42896 0.75998 0.67074 0.0
C352 C 0.40516 0.73418 0.67349 0.0
H353 H 0.45458 0.80004 0.6954 0.0
H354 H 0.43867 0.76735 0.64651 0.0
C355 C 0.3936 0.72524 0.70558 0.0
C356 C 0.60527 0.24402 0.77492 0.0
C357 C 0.58441 0.27219 0.77831 0.0
H358 H 0.6325 0.20523 0.79992 0.0
C359 C 0.57 0.27882 0.80978 0.0
H360 H 0.61657 0.23795 0.75102 0.0
C361 C 0.57909 0.25999 0.8379 0.0
C362 C 0.6029 0.23419 0.83514 0.0
H363 H 0.55347 0.30006 0.81323 0.0
H364 H 0.56938 0.26736 0.86212 0.0
C365 C 0.61446 0.22525 0.80306 0.0
C366 C 0.90276 0.76464 0.27491 0.0
C367 C 0.92361 0.73647 0.27831 0.0
H368 H 0.87555 0.80343 0.29991 0.0
C369 C 0.93803 0.72983 0.30978 0.0
H370 H 0.89146 0.77071 0.25101 0.0
C371 C 0.92895 0.74867 0.33789 0.0
C372 C 0.90516 0.77447 0.33514 0.0
H373 H 0.95457 0.7086 0.31324 0.0
H374 H 0.93867 0.7413 0.36213 0.0
C375 C 0.89359 0.78341 0.30305 0.0
C376 C 0.19842 0.07065 0.22964 0.0
C377 C 0.22985 0.08509 0.23637 0.0
H378 H 0.14608 0.06996 0.24099 0.0
C379 C 0.23316 0.10592 0.26457 0.0
H380 H 0.19502 0.05413 0.20839 0.0
C381 C 0.205 0.11506 0.28329 0.0
C382 C 0.17295 0.10347 0.27427 0.0
H383 H 0.25703 0.11725 0.27071 0.0
H384 H 0.20808 0.13308 0.30333 0.0
C385 C 0.17028 0.07969 0.24843 0.0
C386 C 0.30309 0.89363 0.78326 0.0
C387 C 0.33513 0.90522 0.77425 0.0
H388 H 0.25105 0.89145 0.77068 0.0
C389 C 0.33781 0.92899 0.74841 0.0
H390 H 0.30001 0.87562 0.80331 0.0
C391 C 0.30966 0.93804 0.72962 0.0
C392 C 0.27823 0.9236 0.73634 0.0
H393 H 0.362 0.93872 0.74098 0.0
H394 H 0.31305 0.95455 0.70836 0.0
C395 C 0.27492 0.90278 0.76454 0.0
C396 C 0.73312 0.40277 0.7441 0.0
C397 C 0.72981 0.42359 0.77229 0.0
H398 H 0.70803 0.37561 0.70532 0.0
C399 C 0.69837 0.43803 0.77902 0.0
H400 H 0.75699 0.39145 0.73796 0.0
C401 C 0.67023 0.42899 0.76022 0.0
C402 C 0.67291 0.40521 0.73438 0.0
H403 H 0.69498 0.45454 0.80028 0.0
H404 H 0.64603 0.43872 0.76766 0.0
C405 C 0.70495 0.39363 0.72537 0.0
C406 C 0.83778 0.57967 0.26018 0.0
C407 C 0.83509 0.60345 0.23435 0.0
H408 H 0.81304 0.55411 0.30023 0.0
C409 C 0.80305 0.61504 0.22533 0.0
H410 H 0.86198 0.56994 0.26762 0.0
C411 C 0.77488 0.6059 0.24405 0.0
C412 C 0.7782 0.58507 0.27224 0.0
H413 H 0.79996 0.63306 0.20528 0.0
H414 H 0.75101 0.61723 0.23791 0.0
C415 C 0.80964 0.57063 0.27897 0.0
C416 C 0.24815 0.171 0.07965 0.0
C417 C 0.27392 0.17373 0.10349 0.0
H418 H 0.20811 0.19568 0.05401 0.0
C419 C 0.28282 0.20581 0.11511 0.0
H420 H 0.2408 0.14678 0.06989 0.0
C421 C 0.26406 0.23396 0.10594 0.0
C422 C 0.23593 0.23058 0.08505 0.0
H423 H 0.30282 0.20893 0.13319 0.0
H424 H 0.27011 0.25784 0.11729 0.0
C425 C 0.22932 0.19912 0.07058 0.0
C426 C 0.78284 0.30288 0.89358 0.0
C427 C 0.77393 0.33496 0.90519 0.0
H428 H 0.77015 0.25085 0.8914 0.0
C429 C 0.74817 0.33769 0.92902 0.0
H430 H 0.80284 0.29976 0.87551 0.0
C431 C 0.72934 0.30957 0.93809 0.0
C432 C 0.73596 0.27811 0.92363 0.0
H433 H 0.74081 0.36192 0.93878 0.0
H434 H 0.70814 0.31301 0.95465 0.0
C435 C 0.76409 0.27473 0.90274 0.0
C436 C 0.74398 0.73394 0.40268 0.0
C437 C 0.77212 0.73056 0.42358 0.0
H438 H 0.70523 0.70892 0.37544 0.0
C439 C 0.77873 0.6991 0.43805 0.0
H440 H 0.73793 0.75783 0.39134 0.0
C441 C 0.7599 0.67099 0.42897 0.0
C442 C 0.73413 0.67372 0.40513 0.0
H443 H 0.79994 0.69566 0.45461 0.0
H444 H 0.76725 0.64676 0.43873 0.0
C445 C 0.72522 0.7058 0.39351 0.0
C446 C 0.22521 0.80289 0.61505 0.0
C447 C 0.23412 0.83496 0.60344 0.0
H448 H 0.23791 0.75085 0.61723 0.0
C449 C 0.25988 0.83769 0.57961 0.0
H450 H 0.20521 0.79977 0.63312 0.0
C451 C 0.27871 0.80957 0.57054 0.0
C452 C 0.2721 0.77811 0.58501 0.0
H453 H 0.26723 0.86192 0.56986 0.0
H454 H 0.29992 0.81301 0.55399 0.0
C455 C 0.24396 0.77474 0.60589 0.0
C456 C 0.89364 0.72524 0.80304 0.0
C457 C 0.9052 0.73418 0.83513 0.0
H458 H 0.89151 0.73794 0.75101 0.0
C459 C 0.929 0.75998 0.83789 0.0
H460 H 0.8756 0.70522 0.7999 0.0
C461 C 0.93808 0.77881 0.80978 0.0
C462 C 0.92366 0.77218 0.7783 0.0
H463 H 0.93872 0.76735 0.86213 0.0
H464 H 0.95461 0.80005 0.81324 0.0
C465 C 0.90282 0.74401 0.77491 0.0
C466 C 0.60529 0.26466 0.27492 0.0
C467 C 0.58444 0.23649 0.27831 0.0
H468 H 0.63251 0.30344 0.29992 0.0
C469 C 0.57003 0.22985 0.30978 0.0
H470 H 0.61659 0.27073 0.25102 0.0
C471 C 0.57912 0.24869 0.3379 0.0
C472 C 0.60292 0.27449 0.33515 0.0
H473 H 0.5535 0.20862 0.31323 0.0
H474 H 0.56941 0.24131 0.36212 0.0
C475 C 0.61448 0.28342 0.30306 0.0
C476 C 0.43801 0.72985 0.19885 0.0
C477 C 0.4236 0.73649 0.23032 0.0
H478 H 0.43863 0.7413 0.14651 0.0
C479 C 0.40274 0.76466 0.23371 0.0
H480 H 0.45454 0.70861 0.1954 0.0
C481 C 0.39356 0.78342 0.20557 0.0
C482 C 0.40512 0.77448 0.17348 0.0
H483 H 0.39144 0.77073 0.25761 0.0
H484 H 0.37552 0.80345 0.2087 0.0
C485 C 0.42892 0.74868 0.17073 0.0
C486 C 0.11443 0.22526 0.70558 0.0
C487 C 0.10286 0.2342 0.67349 0.0
H488 H 0.11656 0.23796 0.75761 0.0
C489 C 0.07906 0.26 0.67073 0.0
H490 H 0.13246 0.20524 0.70871 0.0
C491 C 0.06997 0.27884 0.69884 0.0
C492 C 0.08439 0.2722 0.73032 0.0
H493 H 0.06934 0.26737 0.6465 0.0
H494 H 0.05344 0.30007 0.69538 0.0
C495 C 0.10524 0.24403 0.73371 0.0
C496 C 0.80968 0.93804 0.77898 0.0
C497 C 0.77824 0.9236 0.77225 0.0
H498 H 0.86201 0.93872 0.76763 0.0
C499 C 0.77492 0.90277 0.74405 0.0
H500 H 0.81307 0.95455 0.80023 0.0
C501 C 0.80309 0.89362 0.72533 0.0
C502 C 0.83514 0.90521 0.73436 0.0
H503 H 0.75105 0.89145 0.73791 0.0
H504 H 0.80001 0.8756 0.70528 0.0
C505 C 0.83782 0.92899 0.76019 0.0
C506 C 0.67029 0.07969 0.26021 0.0
C507 C 0.67296 0.10347 0.23438 0.0
H508 H 0.69504 0.05414 0.30027 0.0
C509 C 0.705 0.11505 0.22537 0.0
H510 H 0.64609 0.06996 0.26764 0.0
C511 C 0.73317 0.10591 0.24409 0.0
C512 C 0.72986 0.08509 0.27229 0.0
H513 H 0.70808 0.13307 0.20532 0.0
H514 H 0.75704 0.11724 0.23796 0.0
C515 C 0.69843 0.07065 0.27901 0.0
C516 C 0.33777 0.5797 0.24841 0.0
C517 C 0.33509 0.60347 0.27425 0.0
H518 H 0.31302 0.55414 0.20836 0.0
C519 C 0.30305 0.61506 0.28326 0.0
H520 H 0.36197 0.56996 0.24098 0.0
C521 C 0.27488 0.60592 0.26453 0.0
C522 C 0.27819 0.58509 0.23633 0.0
H523 H 0.29997 0.63308 0.30331 0.0
H524 H 0.25101 0.61725 0.27067 0.0
C525 C 0.30963 0.57065 0.22962 0.0
C526 C 0.23312 0.40279 0.76457 0.0
C527 C 0.2298 0.42362 0.73638 0.0
H528 H 0.20804 0.37562 0.80334 0.0
C529 C 0.19836 0.43805 0.72965 0.0
H530 H 0.25699 0.39146 0.77071 0.0
C531 C 0.17022 0.42901 0.74844 0.0
C532 C 0.17291 0.40523 0.77427 0.0
H533 H 0.19496 0.45457 0.70839 0.0
H534 H 0.14602 0.43874 0.741 0.0
C535 C 0.20495 0.39364 0.78329 0.0
C536 C 0.77877 0.80957 0.93803 0.0
C537 C 0.77215 0.77811 0.92357 0.0
H538 H 0.7673 0.86191 0.93872 0.0
C539 C 0.74402 0.77474 0.90267 0.0
H540 H 0.79998 0.81301 0.9546 0.0
C541 C 0.72526 0.80289 0.89351 0.0
C542 C 0.73417 0.83496 0.90513 0.0
H543 H 0.73796 0.75085 0.89133 0.0
H544 H 0.70526 0.79976 0.87544 0.0
C545 C 0.75994 0.83769 0.92897 0.0
C546 C 0.22517 0.70581 0.11505 0.0
C547 C 0.23408 0.67373 0.10343 0.0
H548 H 0.23787 0.75785 0.11723 0.0
C549 C 0.25984 0.671 0.0796 0.0
H550 H 0.20518 0.70894 0.13312 0.0
C551 C 0.27866 0.69912 0.07053 0.0
C552 C 0.27205 0.73058 0.085 0.0
H553 H 0.26719 0.64678 0.06984 0.0
H554 H 0.29987 0.69567 0.05397 0.0
C555 C 0.24392 0.73396 0.10588 0.0
C556 C 0.28279 0.30289 0.61511 0.0
C557 C 0.27387 0.33497 0.60349 0.0
H558 H 0.27009 0.25086 0.61729 0.0
C559 C 0.24811 0.3377 0.57965 0.0
H560 H 0.30279 0.29977 0.63318 0.0
C561 C 0.22928 0.30958 0.57058 0.0
C562 C 0.2359 0.27812 0.58505 0.0
H563 H 0.24075 0.36192 0.5699 0.0
H564 H 0.20807 0.31302 0.55402 0.0
C565 C 0.26403 0.27474 0.60594 0.0
C566 C 0.72938 0.19911 0.43809 0.0
C567 C 0.73599 0.23057 0.42363 0.0
H568 H 0.74085 0.14677 0.43878 0.0
C569 C 0.76412 0.23395 0.40274 0.0
H570 H 0.70817 0.19567 0.45465 0.0
C571 C 0.78288 0.2058 0.39358 0.0
C572 C 0.77397 0.17372 0.40519 0.0
H573 H 0.77017 0.25784 0.3914 0.0
H574 H 0.80287 0.20893 0.37552 0.0
C575 C 0.74821 0.17099 0.42903 0.0
C576 C 0.11224 0.23438 0.46035 0.0
C577 C 0.11123 0.20753 0.48309 0.0
H578 H 0.11154 0.24961 0.40888 0.0
C579 C 0.10527 0.17503 0.47092 0.0
H580 H 0.11705 0.25966 0.46896 0.0
C581 C 0.10105 0.16947 0.43648 0.0
C582 C 0.10393 0.19617 0.41374 0.0
H583 H 0.10444 0.15391 0.48794 0.0
H584 H 0.09726 0.14414 0.42751 0.0
C585 C 0.1092 0.22866 0.42598 0.0
C586 C 0.40274 0.83364 0.97093 0.0
C587 C 0.39676 0.80114 0.98309 0.0
H588 H 0.41078 0.86453 0.92753 0.0
C589 C 0.39576 0.7743 0.96035 0.0
H590 H 0.40356 0.85476 0.98795 0.0
C591 C 0.39882 0.78001 0.92598 0.0
C592 C 0.4041 0.8125 0.91375 0.0
H593 H 0.39093 0.74901 0.96895 0.0
H594 H 0.39648 0.75906 0.90888 0.0
C595 C 0.40698 0.8392 0.9365 0.0
C596 C 0.61228 0.2743 0.54828 0.0
C597 C 0.61128 0.30114 0.52554 0.0
H598 H 0.61157 0.25906 0.59975 0.0
C599 C 0.6053 0.33364 0.5377 0.0
H600 H 0.61711 0.24902 0.53968 0.0
C601 C 0.60106 0.3392 0.57214 0.0
C602 C 0.60394 0.3125 0.59489 0.0
H603 H 0.60447 0.35476 0.52068 0.0
H604 H 0.59726 0.36453 0.58111 0.0
C605 C 0.60923 0.28001 0.58265 0.0
C606 C 0.89884 0.72864 0.08264 0.0
C607 C 0.90411 0.69614 0.09488 0.0
H608 H 0.89099 0.75964 0.03966 0.0
C609 C 0.90699 0.66944 0.07214 0.0
H610 H 0.89649 0.74959 0.09974 0.0
C611 C 0.90278 0.675 0.03769 0.0
C612 C 0.89681 0.70751 0.02553 0.0
H613 H 0.91078 0.64411 0.0811 0.0
H614 H 0.90361 0.65389 0.02067 0.0
C615 C 0.89581 0.73435 0.04827 0.0
C616 C 0.436 0.1017 0.16963 0.0
C617 C 0.41326 0.10463 0.19632 0.0
H618 H 0.48744 0.105 0.1541 0.0
C619 C 0.4255 0.1099 0.22881 0.0
H620 H 0.42703 0.09791 0.14431 0.0
C621 C 0.45986 0.11288 0.23454 0.0
C622 C 0.48259 0.11182 0.20771 0.0
H623 H 0.40841 0.11228 0.24976 0.0
H624 H 0.46846 0.1177 0.25983 0.0
C625 C 0.47043 0.10586 0.17521 0.0
C626 C 0.03763 0.9028 0.67519 0.0
C627 C 0.02549 0.89684 0.7077 0.0
H628 H 0.08099 0.91077 0.64428 0.0
C629 C 0.04825 0.89578 0.73452 0.0
H630 H 0.0206 0.90366 0.65409 0.0
C631 C 0.08259 0.89877 0.72879 0.0
C632 C 0.09481 0.90404 0.69629 0.0
H633 H 0.03966 0.89096 0.75981 0.0
H634 H 0.0997 0.89639 0.74972 0.0
C635 C 0.07205 0.90697 0.66961 0.0
C636 C 0.9598 0.39579 0.77411 0.0
C637 C 0.98255 0.39685 0.80093 0.0
H638 H 0.90834 0.39639 0.75891 0.0
C639 C 0.97041 0.40281 0.83344 0.0
H640 H 0.96838 0.39097 0.74882 0.0
C641 C 0.93599 0.40698 0.83902 0.0
C642 C 0.91323 0.40404 0.81234 0.0
H643 H 0.98744 0.40368 0.85455 0.0
H644 H 0.92704 0.41077 0.86435 0.0
C645 C 0.92545 0.39877 0.77985 0.0
C646 C 0.53763 0.60586 0.33342 0.0
C647 C 0.52546 0.61182 0.30091 0.0
H648 H 0.58102 0.5979 0.36432 0.0
C649 C 0.5482 0.61288 0.27408 0.0
H650 H 0.52062 0.605 0.35453 0.0
C651 C 0.58255 0.60989 0.27981 0.0
C652 C 0.59479 0.60462 0.3123 0.0
H653 H 0.53959 0.61769 0.2488 0.0
H654 H 0.59964 0.61227 0.25887 0.0
C655 C 0.57206 0.60169 0.33899 0.0
C656 C 0.22821 0.42617 0.10973 0.0
C657 C 0.19571 0.41398 0.10452 0.0
H658 H 0.25928 0.46909 0.1175 0.0
C659 C 0.16906 0.43677 0.10166 0.0
H660 H 0.24913 0.40903 0.11205 0.0
C661 C 0.17469 0.47121 0.10584 0.0
C662 C 0.2072 0.48332 0.11175 0.0
H663 H 0.14373 0.42785 0.09792 0.0
H664 H 0.15361 0.48827 0.10504 0.0
C665 C 0.23399 0.46053 0.11272 0.0
C666 C 0.73407 0.04816 0.89588 0.0
C667 C 0.70728 0.02537 0.89685 0.0
H668 H 0.74919 0.09966 0.89657 0.0
C669 C 0.67476 0.03748 0.90275 0.0
H670 H 0.75936 0.0396 0.8911 0.0
C671 C 0.66914 0.07191 0.90695 0.0
C672 C 0.69578 0.09471 0.9041 0.0
H673 H 0.65369 0.02042 0.90355 0.0
H674 H 0.6438 0.08084 0.91069 0.0
C675 C 0.72828 0.08252 0.89889 0.0
C676 C 0.77405 0.96052 0.3959 0.0
C677 C 0.80084 0.98331 0.39688 0.0
H678 H 0.75891 0.90903 0.39658 0.0
C679 C 0.83336 0.97119 0.40279 0.0
H680 H 0.74876 0.9691 0.39113 0.0
C681 C 0.83898 0.93675 0.40697 0.0
C682 C 0.81233 0.91397 0.40411 0.0
H683 H 0.85444 0.98824 0.40359 0.0
H684 H 0.86431 0.92782 0.41071 0.0
C685 C 0.77982 0.92616 0.3989 0.0
C686 C 0.27398 0.54817 0.61275 0.0
C687 C 0.30077 0.52537 0.61178 0.0
H688 H 0.25886 0.59967 0.61205 0.0
C689 C 0.33328 0.53747 0.60588 0.0
H690 H 0.24869 0.53961 0.61752 0.0
C691 C 0.33892 0.57191 0.60168 0.0
C692 C 0.31227 0.59471 0.60453 0.0
H693 H 0.35436 0.52041 0.60509 0.0
H694 H 0.36425 0.58083 0.59794 0.0
C695 C 0.27977 0.58253 0.60974 0.0
C696 C 0.90278 0.83364 0.5377 0.0
C697 C 0.89681 0.80114 0.52553 0.0
H698 H 0.9108 0.86453 0.58111 0.0
C699 C 0.89581 0.77429 0.54827 0.0
H700 H 0.9036 0.85476 0.52068 0.0
C701 C 0.89885 0.78001 0.58264 0.0
C702 C 0.90413 0.8125 0.59488 0.0
H703 H 0.89098 0.74901 0.53967 0.0
H704 H 0.89651 0.75906 0.59974 0.0
C705 C 0.90701 0.8392 0.57214 0.0
C706 C 0.61228 0.23438 0.04828 0.0
C707 C 0.61128 0.20753 0.02554 0.0
H708 H 0.61158 0.24961 0.09975 0.0
C709 C 0.60531 0.17503 0.0377 0.0
H710 H 0.6171 0.25966 0.03968 0.0
C711 C 0.60108 0.16947 0.07214 0.0
C712 C 0.60396 0.19617 0.09488 0.0
H713 H 0.60449 0.15391 0.02068 0.0
H714 H 0.59729 0.14414 0.0811 0.0
C715 C 0.60924 0.22866 0.08265 0.0
C716 C 0.40697 0.66947 0.43649 0.0
C717 C 0.4041 0.69617 0.41374 0.0
H718 H 0.40357 0.6539 0.48794 0.0
C719 C 0.39882 0.72866 0.42599 0.0
H720 H 0.41077 0.64414 0.42752 0.0
C721 C 0.39577 0.73437 0.46035 0.0
C722 C 0.39678 0.70752 0.48309 0.0
H723 H 0.39648 0.74961 0.40889 0.0
H724 H 0.39095 0.75965 0.46896 0.0
C725 C 0.40275 0.67502 0.47093 0.0
C726 C 0.10527 0.33367 0.97093 0.0
C727 C 0.11124 0.30116 0.98309 0.0
H728 H 0.09724 0.36455 0.92752 0.0
C729 C 0.11225 0.27432 0.96035 0.0
H730 H 0.10444 0.35478 0.98795 0.0
C731 C 0.1092 0.28003 0.92598 0.0
C732 C 0.10392 0.31253 0.91374 0.0
H733 H 0.11707 0.24903 0.96895 0.0
H734 H 0.11155 0.25908 0.90888 0.0
C735 C 0.10104 0.33922 0.93649 0.0
C736 C 0.58258 0.89878 0.7798 0.0
C737 C 0.59483 0.90406 0.8123 0.0
H738 H 0.53963 0.89097 0.7488 0.0
C739 C 0.57209 0.90699 0.83898 0.0
H740 H 0.59967 0.8964 0.75886 0.0
C741 C 0.53766 0.90281 0.83341 0.0
C742 C 0.5255 0.89685 0.80091 0.0
H743 H 0.58106 0.91079 0.86431 0.0
H744 H 0.52065 0.90368 0.85452 0.0
C745 C 0.54823 0.89579 0.77408 0.0
C746 C 0.92549 0.10991 0.27985 0.0
C747 C 0.91328 0.10464 0.31235 0.0
H748 H 0.96842 0.11771 0.24882 0.0
C749 C 0.93604 0.10171 0.33902 0.0
H750 H 0.90839 0.11229 0.25891 0.0
C751 C 0.97046 0.10588 0.33344 0.0
C752 C 0.9826 0.11184 0.30093 0.0
H753 H 0.92709 0.09792 0.36436 0.0
H754 H 0.98749 0.10502 0.35454 0.0
C755 C 0.95984 0.11289 0.27411 0.0
C756 C 0.08255 0.6099 0.22877 0.0
C757 C 0.09477 0.60464 0.19627 0.0
H758 H 0.03962 0.61769 0.2598 0.0
C759 C 0.07202 0.60171 0.16959 0.0
H760 H 0.09966 0.61228 0.24971 0.0
C761 C 0.03759 0.60587 0.17517 0.0
C762 C 0.02545 0.61182 0.20768 0.0
H763 H 0.08096 0.59792 0.14426 0.0
H764 H 0.02056 0.605 0.15407 0.0
C765 C 0.04821 0.61288 0.23451 0.0
C766 C 0.42545 0.39878 0.72882 0.0
C767 C 0.41321 0.40406 0.69633 0.0
H768 H 0.46841 0.39097 0.75983 0.0
C769 C 0.43595 0.40699 0.66964 0.0
H770 H 0.40836 0.3964 0.74976 0.0
C771 C 0.47038 0.40282 0.67521 0.0
C772 C 0.48254 0.39685 0.70772 0.0
H773 H 0.42698 0.41078 0.64431 0.0
H774 H 0.48739 0.40368 0.65411 0.0
C775 C 0.45981 0.3958 0.73455 0.0
C776 C 0.77983 0.58253 0.89888 0.0
C777 C 0.81234 0.5947 0.90409 0.0
H778 H 0.74875 0.53961 0.89112 0.0
C779 C 0.83898 0.57191 0.90695 0.0
H780 H 0.75893 0.59967 0.89656 0.0
C781 C 0.83335 0.53747 0.90277 0.0
C782 C 0.80083 0.52537 0.89687 0.0
H783 H 0.86432 0.58083 0.91069 0.0
H784 H 0.85442 0.52041 0.90357 0.0
C785 C 0.77404 0.54817 0.89589 0.0
C786 C 0.33892 0.93676 0.10167 0.0
C787 C 0.31227 0.91398 0.10451 0.0
H788 H 0.35438 0.98826 0.10507 0.0
C789 C 0.27977 0.92617 0.10972 0.0
H790 H 0.36425 0.92783 0.09792 0.0
C791 C 0.27399 0.96053 0.11273 0.0
C792 C 0.30079 0.98332 0.11177 0.0
H793 H 0.25886 0.90904 0.11204 0.0
H794 H 0.24871 0.9691 0.11751 0.0
C795 C 0.3333 0.9712 0.10586 0.0
C796 C 0.23401 0.04817 0.61274 0.0
C797 C 0.20722 0.02538 0.61176 0.0
H798 H 0.24913 0.09967 0.61206 0.0
C799 C 0.1747 0.03748 0.60585 0.0
H800 H 0.2593 0.0396 0.61751 0.0
C801 C 0.16907 0.07192 0.60167 0.0
C802 C 0.19572 0.09471 0.60453 0.0
H803 H 0.15363 0.02043 0.60505 0.0
H804 H 0.14374 0.08085 0.59792 0.0
C805 C 0.22822 0.08253 0.60974 0.0
C806 C 0.72827 0.42616 0.3989 0.0
C807 C 0.69577 0.41397 0.40411 0.0
H808 H 0.75934 0.46908 0.39111 0.0
C809 C 0.66913 0.43677 0.40695 0.0
H810 H 0.74918 0.40902 0.39659 0.0
C811 C 0.67475 0.4712 0.40276 0.0
C812 C 0.70726 0.48331 0.39685 0.0
H813 H 0.64379 0.42784 0.4107 0.0
H814 H 0.65367 0.48826 0.40355 0.0
C815 C 0.73405 0.46052 0.39589 0.0
loop_
_geom_bond_atom_site_label_1
_geom_bond_atom_site_label_2
_geom_bond_distance
_geom_bond_site_symmetry_2
_ccdc_geom_bond_type
O0 Cd1 2.223 . S
O0 C8 1.315 . S
Cd1 O0 2.223 . S
Cd1 O4 2.297 . S
Cd1 O5 2.439 . S
Cd1 O11 2.240 . S
Cd2 O3 2.240 . S
Cd2 O10 2.223 . S
Cd2 O12 2.297 . S
Cd2 O13 2.439 . S
O3 Cd2 2.240 . S
O3 C8 1.279 . S
O4 Cd1 2.297 . S
O4 C6 1.247 . S
O5 Cd1 2.439 . S
O5 C6 1.208 . S
C6 O4 1.247 . S
C6 O5 1.208 . S
C7 O12 1.247 . S
C7 O13 1.208 . S
C8 O0 1.315 . S
C8 O3 1.279 . S
C9 O10 1.315 . S
C9 O11 1.279 . S
O10 Cd2 2.223 . S
O10 C9 1.315 . S
O11 Cd1 2.240 . S
O11 C9 1.279 . S
O12 Cd2 2.297 . S
O12 C7 1.247 . S
O13 Cd2 2.439 . S
O13 C7 1.208 . S
O14 Cd15 2.223 . S
O14 C22 1.315 . S
Cd15 O14 2.223 . S
Cd15 O18 2.297 . S
Cd15 O19 2.439 . S
Cd15 O25 2.240 . S
Cd16 O17 2.240 . S
Cd16 O24 2.223 . S
Cd16 O26 2.297 . S
Cd16 O27 2.439 . S
O17 Cd16 2.240 . S
O17 C22 1.279 . S
O18 Cd15 2.297 . S
O18 C20 1.247 . S
O19 Cd15 2.439 . S
O19 C20 1.208 . S
C20 O18 1.247 . S
C20 O19 1.208 . S
C21 O26 1.247 . S
C21 O27 1.208 . S
C22 O14 1.315 . S
C22 O17 1.279 . S
C23 O24 1.315 . S
C23 O25 1.279 . S
O24 Cd16 2.223 . S
O24 C23 1.315 . S
O25 Cd15 2.240 . S
O25 C23 1.279 . S
O26 Cd16 2.297 . S
O26 C21 1.247 . S
O27 Cd16 2.439 . S
O27 C21 1.208 . S
O28 Cd29 2.223 . S
O28 C36 1.315 . S
Cd29 O28 2.223 . S
Cd29 O32 2.297 . S
Cd29 O33 2.439 . S
Cd29 O39 2.240 . S
Cd30 O31 2.240 . S
Cd30 O38 2.223 . S
Cd30 O40 2.297 . S
Cd30 O41 2.439 . S
O31 Cd30 2.240 . S
O31 C36 1.279 . S
O32 Cd29 2.297 . S
O32 C34 1.247 . S
O33 Cd29 2.439 . S
O33 C34 1.208 . S
C34 O32 1.247 . S
C34 O33 1.208 . S
C35 O40 1.247 . S
C35 O41 1.208 . S
C36 O28 1.315 . S
C36 O31 1.279 . S
C37 O38 1.315 . S
C37 O39 1.279 . S
O38 Cd30 2.223 . S
O38 C37 1.315 . S
O39 Cd29 2.240 . S
O39 C37 1.279 . S
O40 Cd30 2.297 . S
O40 C35 1.247 . S
O41 Cd30 2.439 . S
O41 C35 1.208 . S
O42 Cd43 2.223 . S
O42 C50 1.315 . S
Cd43 O42 2.223 . S
Cd43 O46 2.297 . S
Cd43 O47 2.439 . S
Cd43 O53 2.240 . S
Cd44 O45 2.240 . S
Cd44 O52 2.223 . S
Cd44 O54 2.297 . S
Cd44 O55 2.439 . S
O45 Cd44 2.240 . S
O45 C50 1.279 . S
O46 Cd43 2.297 . S
O46 C48 1.247 . S
O47 Cd43 2.439 . S
O47 C48 1.208 . S
C48 O46 1.247 . S
C48 O47 1.208 . S
C49 O54 1.247 . S
C49 O55 1.208 . S
C50 O42 1.315 . S
C50 O45 1.279 . S
C51 O52 1.315 . S
C51 O53 1.279 . S
O52 Cd44 2.223 . S
O52 C51 1.315 . S
O53 Cd43 2.240 . S
O53 C51 1.279 . S
O54 Cd44 2.297 . S
O54 C49 1.247 . S
O55 Cd44 2.439 . S
O55 C49 1.208 . S
O56 Cd57 2.223 . S
O56 C64 1.315 . S
Cd57 O56 2.223 . S
Cd57 O60 2.297 . S
Cd57 O61 2.439 . S
Cd57 O67 2.240 . S
Cd58 O59 2.240 . S
Cd58 O66 2.223 . S
Cd58 O68 2.297 . S
Cd58 O69 2.439 . S
O59 Cd58 2.240 . S
O59 C64 1.279 . S
O60 Cd57 2.297 . S
O60 C62 1.247 . S
O61 Cd57 2.439 . S
O61 C62 1.208 . S
C62 O60 1.247 . S
C62 O61 1.208 . S
C63 O68 1.247 . S
C63 O69 1.208 . S
C64 O56 1.315 . S
C64 O59 1.279 . S
C65 O66 1.315 . S
C65 O67 1.279 . S
O66 Cd58 2.223 . S
O66 C65 1.315 . S
O67 Cd57 2.240 . S
O67 C65 1.279 . S
O68 Cd58 2.297 . S
O68 C63 1.247 . S
O69 Cd58 2.439 . S
O69 C63 1.208 . S
O70 Cd71 2.223 . S
O70 C78 1.315 . S
Cd71 O70 2.223 . S
Cd71 O74 2.297 . S
Cd71 O75 2.439 . S
Cd71 O81 2.240 . S
Cd72 O73 2.240 . S
Cd72 O80 2.223 . S
Cd72 O82 2.297 . S
Cd72 O83 2.439 . S
O73 Cd72 2.240 . S
O73 C78 1.279 . S
O74 Cd71 2.297 . S
O74 C76 1.247 . S
O75 Cd71 2.439 . S
O75 C76 1.208 . S
C76 O74 1.247 . S
C76 O75 1.208 . S
C77 O82 1.247 . S
C77 O83 1.208 . S
C78 O70 1.315 . S
C78 O73 1.279 . S
C79 O80 1.315 . S
C79 O81 1.279 . S
O80 Cd72 2.223 . S
O80 C79 1.315 . S
O81 Cd71 2.240 . S
O81 C79 1.279 . S
O82 Cd72 2.297 . S
O82 C77 1.247 . S
O83 Cd72 2.439 . S
O83 C77 1.208 . S
O84 Cd85 2.223 . S
O84 C92 1.315 . S
Cd85 O84 2.223 . S
Cd85 O88 2.297 . S
Cd85 O89 2.439 . S
Cd85 O95 2.240 . S
Cd86 O87 2.240 . S
Cd86 O94 2.223 . S
Cd86 O96 2.297 . S
Cd86 O97 2.439 . S
O87 Cd86 2.240 . S
O87 C92 1.279 . S
O88 Cd85 2.297 . S
O88 C90 1.247 . S
O89 Cd85 2.439 . S
O89 C90 1.208 . S
C90 O88 1.247 . S
C90 O89 1.208 . S
C91 O96 1.247 . S
C91 O97 1.208 . S
C92 O84 1.315 . S
C92 O87 1.279 . S
C93 O94 1.315 . S
C93 O95 1.279 . S
O94 Cd86 2.223 . S
O94 C93 1.315 . S
O95 Cd85 2.240 . S
O95 C93 1.279 . S
O96 Cd86 2.297 . S
O96 C91 1.247 . S
O97 Cd86 2.439 . S
O97 C91 1.208 . S
O98 Cd99 2.223 . S
O98 C106 1.315 . S
Cd99 O98 2.223 . S
Cd99 O102 2.297 . S
Cd99 O103 2.439 . S
Cd99 O109 2.240 . S
Cd100 O101 2.240 . S
Cd100 O108 2.223 . S
Cd100 O110 2.297 . S
Cd100 O111 2.439 . S
O101 Cd100 2.240 . S
O101 C106 1.279 . S
O102 Cd99 2.297 . S
O102 C104 1.247 . S
O103 Cd99 2.439 . S
O103 C104 1.208 . S
C104 O102 1.247 . S
C104 O103 1.208 . S
C105 O110 1.247 . S
C105 O111 1.208 . S
C106 O98 1.315 . S
C106 O101 1.279 . S
C107 O108 1.315 . S
C107 O109 1.279 . S
O108 Cd100 2.223 . S
O108 C107 1.315 . S
O109 Cd99 2.240 . S
O109 C107 1.279 . S
O110 Cd100 2.297 . S
O110 C105 1.247 . S
O111 Cd100 2.439 . S
O111 C105 1.208 . S
O112 Cd113 2.223 . S
O112 C120 1.315 . S
Cd113 O112 2.223 . S
Cd113 O116 2.297 . S
Cd113 O117 2.439 . S
Cd113 O123 2.240 . S
Cd114 O115 2.240 . S
Cd114 O122 2.223 . S
Cd114 O124 2.297 . S
Cd114 O125 2.439 . S
O115 Cd114 2.240 . S
O115 C120 1.279 . S
O116 Cd113 2.297 . S
O116 C118 1.247 . S
O117 Cd113 2.439 . S
O117 C118 1.208 . S
C118 O116 1.247 . S
C118 O117 1.208 . S
C119 O124 1.247 . S
C119 O125 1.208 . S
C120 O112 1.315 . S
C120 O115 1.279 . S
C121 O122 1.315 . S
C121 O123 1.279 . S
O122 Cd114 2.223 . S
O122 C121 1.315 . S
O123 Cd113 2.240 . S
O123 C121 1.279 . S
O124 Cd114 2.297 . S
O124 C119 1.247 . S
O125 Cd114 2.439 . S
O125 C119 1.208 . S
O126 Cd127 2.223 . S
O126 C134 1.315 . S
Cd127 O126 2.223 . S
Cd127 O130 2.297 . S
Cd127 O131 2.439 . S
Cd127 O137 2.240 . S
Cd128 O129 2.240 . S
Cd128 O136 2.223 . S
Cd128 O138 2.297 . S
Cd128 O139 2.439 . S
O129 Cd128 2.240 . S
O129 C134 1.279 . S
O130 Cd127 2.297 . S
O130 C132 1.247 . S
O131 Cd127 2.439 . S
O131 C132 1.208 . S
C132 O130 1.247 . S
C132 O131 1.208 . S
C133 O138 1.247 . S
C133 O139 1.208 . S
C134 O126 1.315 . S
C134 O129 1.279 . S
C135 O136 1.315 . S
C135 O137 1.279 . S
O136 Cd128 2.223 . S
O136 C135 1.315 . S
O137 Cd127 2.240 . S
O137 C135 1.279 . S
O138 Cd128 2.297 . S
O138 C133 1.247 . S
O139 Cd128 2.439 . S
O139 C133 1.208 . S
O140 Cd141 2.223 . S
O140 C148 1.315 . S
Cd141 O140 2.223 . S
Cd141 O144 2.297 . S
Cd141 O145 2.439 . S
Cd141 O151 2.240 . S
Cd142 O143 2.240 . S
Cd142 O150 2.223 . S
Cd142 O152 2.297 . S
Cd142 O153 2.439 . S
O143 Cd142 2.240 . S
O143 C148 1.279 . S
O144 Cd141 2.297 . S
O144 C146 1.247 . S
O145 Cd141 2.439 . S
O145 C146 1.208 . S
C146 O144 1.247 . S
C146 O145 1.208 . S
C147 O152 1.247 . S
C147 O153 1.208 . S
C148 O140 1.315 . S
C148 O143 1.279 . S
C149 O150 1.315 . S
C149 O151 1.279 . S
O150 Cd142 2.223 . S
O150 C149 1.315 . S
O151 Cd141 2.240 . S
O151 C149 1.279 . S
O152 Cd142 2.297 . S
O152 C147 1.247 . S
O153 Cd142 2.439 . S
O153 C147 1.208 . S
O154 Cd155 2.223 . S
O154 C162 1.315 . S
Cd155 O154 2.223 . S
Cd155 O158 2.297 . S
Cd155 O159 2.439 . S
Cd155 O165 2.240 . S
Cd156 O157 2.240 . S
Cd156 O164 2.223 . S
Cd156 O166 2.297 . S
Cd156 O167 2.439 . S
O157 Cd156 2.240 . S
O157 C162 1.279 . S
O158 Cd155 2.297 . S
O158 C160 1.247 . S
O159 Cd155 2.439 . S
O159 C160 1.208 . S
C160 O158 1.247 . S
C160 O159 1.208 . S
C161 O166 1.247 . S
C161 O167 1.208 . S
C162 O154 1.315 . S
C162 O157 1.279 . S
C163 O164 1.315 . S
C163 O165 1.279 . S
O164 Cd156 2.223 . S
O164 C163 1.315 . S
O165 Cd155 2.240 . S
O165 C163 1.279 . S
O166 Cd156 2.297 . S
O166 C161 1.247 . S
O167 Cd156 2.439 . S
O167 C161 1.208 . S
O168 Cd169 2.223 . S
O168 C176 1.315 . S
Cd169 O168 2.223 . S
Cd169 O172 2.297 . S
Cd169 O173 2.439 . S
Cd169 O179 2.240 . S
Cd170 O171 2.240 . S
Cd170 O178 2.223 . S
Cd170 O180 2.297 . S
Cd170 O181 2.439 . S
O171 Cd170 2.240 . S
O171 C176 1.279 . S
O172 Cd169 2.297 . S
O172 C174 1.247 . S
O173 Cd169 2.439 . S
O173 C174 1.208 . S
C174 O172 1.247 . S
C174 O173 1.208 . S
C175 O180 1.247 . S
C175 O181 1.208 . S
C176 O168 1.315 . S
C176 O171 1.279 . S
C177 O178 1.315 . S
C177 O179 1.279 . S
O178 Cd170 2.223 . S
O178 C177 1.315 . S
O179 Cd169 2.240 . S
O179 C177 1.279 . S
O180 Cd170 2.297 . S
O180 C175 1.247 . S
O181 Cd170 2.439 . S
O181 C175 1.208 . S
O182 Cd183 2.223 . S
O182 C190 1.315 . S
Cd183 O182 2.223 . S
Cd183 O186 2.297 . S
Cd183 O187 2.439 . S
Cd183 O193 2.240 . S
Cd184 O185 2.240 . S
Cd184 O192 2.223 . S
Cd184 O194 2.297 . S
Cd184 O195 2.439 . S
O185 Cd184 2.240 . S
O185 C190 1.279 . S
O186 Cd183 2.297 . S
O186 C188 1.247 . S
O187 Cd183 2.439 . S
O187 C188 1.208 . S
C188 O186 1.247 . S
C188 O187 1.208 . S
C189 O194 1.247 . S
C189 O195 1.208 . S
C190 O182 1.315 . S
C190 O185 1.279 . S
C191 O192 1.315 . S
C191 O193 1.279 . S
O192 Cd184 2.223 . S
O192 C191 1.315 . S
O193 Cd183 2.240 . S
O193 C191 1.279 . S
O194 Cd184 2.297 . S
O194 C189 1.247 . S
O195 Cd184 2.439 . S
O195 C189 1.208 . S
O196 Cd197 2.223 . S
O196 C204 1.315 . S
Cd197 O196 2.223 . S
Cd197 O200 2.297 . S
Cd197 O201 2.439 . S
Cd197 O207 2.240 . S
Cd198 O199 2.240 . S
Cd198 O206 2.223 . S
Cd198 O208 2.297 . S
Cd198 O209 2.439 . S
O199 Cd198 2.240 . S
O199 C204 1.279 . S
O200 Cd197 2.297 . S
O200 C202 1.247 . S
O201 Cd197 2.439 . S
O201 C202 1.208 . S
C202 O200 1.247 . S
C202 O201 1.208 . S
C203 O208 1.247 . S
C203 O209 1.208 . S
C204 O196 1.315 . S
C204 O199 1.279 . S
C205 O206 1.315 . S
C205 O207 1.279 . S
O206 Cd198 2.223 . S
O206 C205 1.315 . S
O207 Cd197 2.240 . S
O207 C205 1.279 . S
O208 Cd198 2.297 . S
O208 C203 1.247 . S
O209 Cd198 2.439 . S
O209 C203 1.208 . S
O210 Cd211 2.223 . S
O210 C218 1.315 . S
Cd211 O210 2.223 . S
Cd211 O214 2.297 . S
Cd211 O215 2.439 . S
Cd211 O221 2.240 . S
Cd212 O213 2.240 . S
Cd212 O220 2.223 . S
Cd212 O222 2.297 . S
Cd212 O223 2.439 . S
O213 Cd212 2.240 . S
O213 C218 1.279 . S
O214 Cd211 2.297 . S
O214 C216 1.247 . S
O215 Cd211 2.439 . S
O215 C216 1.208 . S
C216 O214 1.247 . S
C216 O215 1.208 . S
C217 O222 1.247 . S
C217 O223 1.208 . S
C218 O210 1.315 . S
C218 O213 1.279 . S
C219 O220 1.315 . S
C219 O221 1.279 . S
O220 Cd212 2.223 . S
O220 C219 1.315 . S
O221 Cd211 2.240 . S
O221 C219 1.279 . S
O222 Cd212 2.297 . S
O222 C217 1.247 . S
O223 Cd212 2.439 . S
O223 C217 1.208 . S
O224 Cd225 2.223 . S
O224 C232 1.315 . S
Cd225 O224 2.223 . S
Cd225 O228 2.297 . S
Cd225 O229 2.439 . S
Cd225 O235 2.240 . S
Cd226 O227 2.240 . S
Cd226 O234 2.223 . S
Cd226 O236 2.297 . S
Cd226 O237 2.439 . S
O227 Cd226 2.240 . S
O227 C232 1.279 . S
O228 Cd225 2.297 . S
O228 C230 1.247 . S
O229 Cd225 2.439 . S
O229 C230 1.208 . S
C230 O228 1.247 . S
C230 O229 1.208 . S
C231 O236 1.247 . S
C231 O237 1.208 . S
C232 O224 1.315 . S
C232 O227 1.279 . S
C233 O234 1.315 . S
C233 O235 1.279 . S
O234 Cd226 2.223 . S
O234 C233 1.315 . S
O235 Cd225 2.240 . S
O235 C233 1.279 . S
O236 Cd226 2.297 . S
O236 C231 1.247 . S
O237 Cd226 2.439 . S
O237 C231 1.208 . S
O238 Cd239 2.223 . S
O238 C246 1.315 . S
Cd239 O238 2.223 . S
Cd239 O242 2.297 . S
Cd239 O243 2.439 . S
Cd239 O249 2.240 . S
Cd240 O241 2.240 . S
Cd240 O248 2.223 . S
Cd240 O250 2.297 . S
Cd240 O251 2.439 . S
O241 Cd240 2.240 . S
O241 C246 1.279 . S
O242 Cd239 2.297 . S
O242 C244 1.247 . S
O243 Cd239 2.439 . S
O243 C244 1.208 . S
C244 O242 1.247 . S
C244 O243 1.208 . S
C245 O250 1.247 . S
C245 O251 1.208 . S
C246 O238 1.315 . S
C246 O241 1.279 . S
C247 O248 1.315 . S
C247 O249 1.279 . S
O248 Cd240 2.223 . S
O248 C247 1.315 . S
O249 Cd239 2.240 . S
O249 C247 1.279 . S
O250 Cd240 2.297 . S
O250 C245 1.247 . S
O251 Cd240 2.439 . S
O251 C245 1.208 . S
O252 Cd253 2.223 . S
O252 C260 1.315 . S
Cd253 O252 2.223 . S
Cd253 O256 2.297 . S
Cd253 O257 2.439 . S
Cd253 O263 2.240 . S
Cd254 O255 2.240 . S
Cd254 O262 2.223 . S
Cd254 O264 2.297 . S
Cd254 O265 2.439 . S
O255 Cd254 2.240 . S
O255 C260 1.279 . S
O256 Cd253 2.297 . S
O256 C258 1.247 . S
O257 Cd253 2.439 . S
O257 C258 1.208 . S
C258 O256 1.247 . S
C258 O257 1.208 . S
C259 O264 1.247 . S
C259 O265 1.208 . S
C260 O252 1.315 . S
C260 O255 1.279 . S
C261 O262 1.315 . S
C261 O263 1.279 . S
O262 Cd254 2.223 . S
O262 C261 1.315 . S
O263 Cd253 2.240 . S
O263 C261 1.279 . S
O264 Cd254 2.297 . S
O264 C259 1.247 . S
O265 Cd254 2.439 . S
O265 C259 1.208 . S
O266 Cd267 2.223 . S
O266 C274 1.315 . S
Cd267 O266 2.223 . S
Cd267 O270 2.297 . S
Cd267 O271 2.439 . S
Cd267 O277 2.240 . S
Cd268 O269 2.240 . S
Cd268 O276 2.223 . S
Cd268 O278 2.297 . S
Cd268 O279 2.439 . S
O269 Cd268 2.240 . S
O269 C274 1.279 . S
O270 Cd267 2.297 . S
O270 C272 1.247 . S
O271 Cd267 2.439 . S
O271 C272 1.208 . S
C272 O270 1.247 . S
C272 O271 1.208 . S
C273 O278 1.247 . S
C273 O279 1.208 . S
C274 O266 1.315 . S
C274 O269 1.279 . S
C275 O276 1.315 . S
C275 O277 1.279 . S
O276 Cd268 2.223 . S
O276 C275 1.315 . S
O277 Cd267 2.240 . S
O277 C275 1.279 . S
O278 Cd268 2.297 . S
O278 C273 1.247 . S
O279 Cd268 2.439 . S
O279 C273 1.208 . S
O280 Cd281 2.223 . S
O280 C288 1.315 . S
Cd281 O280 2.223 . S
Cd281 O284 2.297 . S
Cd281 O285 2.439 . S
Cd281 O291 2.240 . S
Cd282 O283 2.240 . S
Cd282 O290 2.223 . S
Cd282 O292 2.297 . S
Cd282 O293 2.439 . S
O283 Cd282 2.240 . S
O283 C288 1.279 . S
O284 Cd281 2.297 . S
O284 C286 1.247 . S
O285 Cd281 2.439 . S
O285 C286 1.208 . S
C286 O284 1.247 . S
C286 O285 1.208 . S
C287 O292 1.247 . S
C287 O293 1.208 . S
C288 O280 1.315 . S
C288 O283 1.279 . S
C289 O290 1.315 . S
C289 O291 1.279 . S
O290 Cd282 2.223 . S
O290 C289 1.315 . S
O291 Cd281 2.240 . S
O291 C289 1.279 . S
O292 Cd282 2.297 . S
O292 C287 1.247 . S
O293 Cd282 2.439 . S
O293 C287 1.208 . S
O294 Cd295 2.223 . S
O294 C302 1.315 . S
Cd295 O294 2.223 . S
Cd295 O298 2.297 . S
Cd295 O299 2.439 . S
Cd295 O305 2.240 . S
Cd296 O297 2.240 . S
Cd296 O304 2.223 . S
Cd296 O306 2.297 . S
Cd296 O307 2.439 . S
O297 Cd296 2.240 . S
O297 C302 1.279 . S
O298 Cd295 2.297 . S
O298 C300 1.247 . S
O299 Cd295 2.439 . S
O299 C300 1.208 . S
C300 O298 1.247 . S
C300 O299 1.208 . S
C301 O306 1.247 . S
C301 O307 1.208 . S
C302 O294 1.315 . S
C302 O297 1.279 . S
C303 O304 1.315 . S
C303 O305 1.279 . S
O304 Cd296 2.223 . S
O304 C303 1.315 . S
O305 Cd295 2.240 . S
O305 C303 1.279 . S
O306 Cd296 2.297 . S
O306 C301 1.247 . S
O307 Cd296 2.439 . S
O307 C301 1.208 . S
O308 Cd309 2.223 . S
O308 C316 1.315 . S
Cd309 O308 2.223 . S
Cd309 O312 2.297 . S
Cd309 O313 2.439 . S
Cd309 O319 2.240 . S
Cd310 O311 2.240 . S
Cd310 O318 2.223 . S
Cd310 O320 2.297 . S
Cd310 O321 2.439 . S
O311 Cd310 2.240 . S
O311 C316 1.279 . S
O312 Cd309 2.297 . S
O312 C314 1.247 . S
O313 Cd309 2.439 . S
O313 C314 1.208 . S
C314 O312 1.247 . S
C314 O313 1.208 . S
C315 O320 1.247 . S
C315 O321 1.208 . S
C316 O308 1.315 . S
C316 O311 1.279 . S
C317 O318 1.315 . S
C317 O319 1.279 . S
O318 Cd310 2.223 . S
O318 C317 1.315 . S
O319 Cd309 2.240 . S
O319 C317 1.279 . S
O320 Cd310 2.297 . S
O320 C315 1.247 . S
O321 Cd310 2.439 . S
O321 C315 1.208 . S
O322 Cd323 2.223 . S
O322 C330 1.315 . S
Cd323 O322 2.223 . S
Cd323 O326 2.297 . S
Cd323 O327 2.439 . S
Cd323 O333 2.240 . S
Cd324 O325 2.240 . S
Cd324 O332 2.223 . S
Cd324 O334 2.297 . S
Cd324 O335 2.439 . S
O325 Cd324 2.240 . S
O325 C330 1.279 . S
O326 Cd323 2.297 . S
O326 C328 1.247 . S
O327 Cd323 2.439 . S
O327 C328 1.208 . S
C328 O326 1.247 . S
C328 O327 1.208 . S
C329 O334 1.247 . S
C329 O335 1.208 . S
C330 O322 1.315 . S
C330 O325 1.279 . S
C331 O332 1.315 . S
C331 O333 1.279 . S
O332 Cd324 2.223 . S
O332 C331 1.315 . S
O333 Cd323 2.240 . S
O333 C331 1.279 . S
O334 Cd324 2.297 . S
O334 C329 1.247 . S
O335 Cd324 2.439 . S
O335 C329 1.208 . S
C336 C337 1.387 . S
C336 H340 0.950 . S
C336 C345 1.390 . S
C337 C336 1.387 . S
C337 C339 1.387 . S
H338 C345 0.950 . S
C339 C337 1.387 . S
C339 C341 1.390 . S
C339 H343 0.950 . S
H340 C336 0.950 . S
C341 C339 1.390 . S
C341 C342 1.387 . S
C341 H344 0.950 . S
C342 C341 1.387 . S
C342 C345 1.387 . S
H343 C339 0.950 . S
H344 C341 0.950 . S
C345 C336 1.390 . S
C345 H338 0.950 . S
C345 C342 1.387 . S
C346 C347 1.387 . S
C346 H350 0.950 . S
C346 C355 1.390 . S
C347 C346 1.387 . S
C347 C349 1.387 . S
H348 C355 0.950 . S
C349 C347 1.387 . S
C349 C351 1.390 . S
C349 H353 0.950 . S
H350 C346 0.950 . S
C351 C349 1.390 . S
C351 C352 1.387 . S
C351 H354 0.950 . S
C352 C351 1.387 . S
C352 C355 1.387 . S
H353 C349 0.950 . S
H354 C351 0.950 . S
C355 C346 1.390 . S
C355 H348 0.950 . S
C355 C352 1.387 . S
C356 C357 1.387 . S
C356 H360 0.950 . S
C356 C365 1.390 . S
C357 C356 1.387 . S
C357 C359 1.387 . S
H358 C365 0.950 . S
C359 C357 1.387 . S
C359 C361 1.390 . S
C359 H363 0.950 . S
H360 C356 0.950 . S
C361 C359 1.390 . S
C361 C362 1.387 . S
C361 H364 0.950 . S
C362 C361 1.387 . S
C362 C365 1.387 . S
H363 C359 0.950 . S
H364 C361 0.950 . S
C365 C356 1.390 . S
C365 H358 0.950 . S
C365 C362 1.387 . S
C366 C367 1.387 . S
C366 H370 0.950 . S
C366 C375 1.390 . S
C367 C366 1.387 . S
C367 C369 1.387 . S
H368 C375 0.950 . S
C369 C367 1.387 . S
C369 C371 1.390 . S
C369 H373 0.950 . S
H370 C366 0.950 . S
C371 C369 1.390 . S
C371 C372 1.387 . S
C371 H374 0.950 . S
C372 C371 1.387 . S
C372 C375 1.387 . S
H373 C369 0.950 . S
H374 C371 0.950 . S
C375 C366 1.390 . S
C375 H368 0.950 . S
C375 C372 1.387 . S
C376 C377 1.387 . S
C376 H380 0.950 . S
C376 C385 1.390 . S
C377 C376 1.387 . S
C377 C379 1.387 . S
H378 C385 0.950 . S
C379 C377 1.387 . S
C379 C381 1.390 . S
C379 H383 0.950 . S
H380 C376 0.950 . S
C381 C379 1.390 . S
C381 C382 1.387 . S
C381 H384 0.950 . S
C382 C381 1.387 . S
C382 C385 1.387 . S
H383 C379 0.950 . S
H384 C381 0.950 . S
C385 C376 1.390 . S
C385 H378 0.950 . S
C385 C382 1.387 . S
C386 C387 1.387 . S
C386 H390 0.950 . S
C386 C395 1.390 . S
C387 C386 1.387 . S
C387 C389 1.387 . S
H388 C395 0.950 . S
C389 C387 1.387 . S
C389 C391 1.390 . S
C389 H393 0.950 . S
H390 C386 0.950 . S
C391 C389 1.390 . S
C391 C392 1.387 . S
C391 H394 0.950 . S
C392 C391 1.387 . S
C392 C395 1.387 . S
H393 C389 0.950 . S
H394 C391 0.950 . S
C395 C386 1.390 . S
C395 H388 0.950 . S
C395 C392 1.387 . S
C396 C397 1.387 . S
C396 H400 0.950 . S
C396 C405 1.390 . S
C397 C396 1.387 . S
C397 C399 1.387 . S
H398 C405 0.950 . S
C399 C397 1.387 . S
C399 C401 1.390 . S
C399 H403 0.950 . S
H400 C396 0.950 . S
C401 C399 1.390 . S
C401 C402 1.387 . S
C401 H404 0.950 . S
C402 C401 1.387 . S
C402 C405 1.387 . S
H403 C399 0.950 . S
H404 C401 0.950 . S
C405 C396 1.390 . S
C405 H398 0.950 . S
C405 C402 1.387 . S
C406 C407 1.387 . S
C406 H410 0.950 . S
C406 C415 1.390 . S
C407 C406 1.387 . S
C407 C409 1.387 . S
H408 C415 0.950 . S
C409 C407 1.387 . S
C409 C411 1.390 . S
C409 H413 0.950 . S
H410 C406 0.950 . S
C411 C409 1.390 . S
C411 C412 1.387 . S
C411 H414 0.950 . S
C412 C411 1.387 . S
C412 C415 1.387 . S
H413 C409 0.950 . S
H414 C411 0.950 . S
C415 C406 1.390 . S
C415 H408 0.950 . S
C415 C412 1.387 . S
C416 C417 1.387 . S
C416 H420 0.950 . S
C416 C425 1.390 . S
C417 C416 1.387 . S
C417 C419 1.387 . S
H418 C425 0.950 . S
C419 C417 1.387 . S
C419 C421 1.390 . S
C419 H423 0.950 . S
H420 C416 0.950 . S
C421 C419 1.390 . S
C421 C422 1.387 . S
C421 H424 0.950 . S
C422 C421 1.387 . S
C422 C425 1.387 . S
H423 C419 0.950 . S
H424 C421 0.950 . S
C425 C416 1.390 . S
C425 H418 0.950 . S
C425 C422 1.387 . S
C426 C427 1.387 . S
C426 H430 0.950 . S
C426 C435 1.390 . S
C427 C426 1.387 . S
C427 C429 1.387 . S
H428 C435 0.950 . S
C429 C427 1.387 . S
C429 C431 1.390 . S
C429 H433 0.950 . S
H430 C426 0.950 . S
C431 C429 1.390 . S
C431 C432 1.387 . S
C431 H434 0.950 . S
C432 C431 1.387 . S
C432 C435 1.387 . S
H433 C429 0.950 . S
H434 C431 0.950 . S
C435 C426 1.390 . S
C435 H428 0.950 . S
C435 C432 1.387 . S
C436 C437 1.387 . S
C436 H440 0.950 . S
C436 C445 1.390 . S
C437 C436 1.387 . S
C437 C439 1.387 . S
H438 C445 0.950 . S
C439 C437 1.387 . S
C439 C441 1.390 . S
C439 H443 0.950 . S
H440 C436 0.950 . S
C441 C439 1.390 . S
C441 C442 1.387 . S
C441 H444 0.950 . S
C442 C441 1.387 . S
C442 C445 1.387 . S
H443 C439 0.950 . S
H444 C441 0.950 . S
C445 C436 1.390 . S
C445 H438 0.950 . S
C445 C442 1.387 . S
C446 C447 1.387 . S
C446 H450 0.950 . S
C446 C455 1.390 . S
C447 C446 1.387 . S
C447 C449 1.387 . S
H448 C455 0.950 . S
C449 C447 1.387 . S
C449 C451 1.390 . S
C449 H453 0.950 . S
H450 C446 0.950 . S
C451 C449 1.390 . S
C451 C452 1.387 . S
C451 H454 0.950 . S
C452 C451 1.387 . S
C452 C455 1.387 . S
H453 C449 0.950 . S
H454 C451 0.950 . S
C455 C446 1.390 . S
C455 H448 0.950 . S
C455 C452 1.387 . S
C456 C457 1.387 . S
C456 H460 0.950 . S
C456 C465 1.390 . S
C457 C456 1.387 . S
C457 C459 1.387 . S
H458 C465 0.950 . S
C459 C457 1.387 . S
C459 C461 1.390 . S
C459 H463 0.950 . S
H460 C456 0.950 . S
C461 C459 1.390 . S
C461 C462 1.387 . S
C461 H464 0.950 . S
C462 C461 1.387 . S
C462 C465 1.387 . S
H463 C459 0.950 . S
H464 C461 0.950 . S
C465 C456 1.390 . S
C465 H458 0.950 . S
C465 C462 1.387 . S
C466 C467 1.387 . S
C466 H470 0.950 . S
C466 C475 1.390 . S
C467 C466 1.387 . S
C467 C469 1.387 . S
H468 C475 0.950 . S
C469 C467 1.387 . S
C469 C471 1.390 . S
C469 H473 0.950 . S
H470 C466 0.950 . S
C471 C469 1.390 . S
C471 C472 1.387 . S
C471 H474 0.950 . S
C472 C471 1.387 . S
C472 C475 1.387 . S
H473 C469 0.950 . S
H474 C471 0.950 . S
C475 C466 1.390 . S
C475 H468 0.950 . S
C475 C472 1.387 . S
C476 C477 1.387 . S
C476 H480 0.950 . S
C476 C485 1.390 . S
C477 C476 1.387 . S
C477 C479 1.387 . S
H478 C485 0.950 . S
C479 C477 1.387 . S
C479 C481 1.390 . S
C479 H483 0.950 . S
H480 C476 0.950 . S
C481 C479 1.390 . S
C481 C482 1.387 . S
C481 H484 0.950 . S
C482 C481 1.387 . S
C482 C485 1.387 . S
H483 C479 0.950 . S
H484 C481 0.950 . S
C485 C476 1.390 . S
C485 H478 0.950 . S
C485 C482 1.387 . S
C486 C487 1.387 . S
C486 H490 0.950 . S
C486 C495 1.390 . S
C487 C486 1.387 . S
C487 C489 1.387 . S
H488 C495 0.950 . S
C489 C487 1.387 . S
C489 C491 1.390 . S
C489 H493 0.950 . S
H490 C486 0.950 . S
C491 C489 1.390 . S
C491 C492 1.387 . S
C491 H494 0.950 . S
C492 C491 1.387 . S
C492 C495 1.387 . S
H493 C489 0.950 . S
H494 C491 0.950 . S
C495 C486 1.390 . S
C495 H488 0.950 . S
C495 C492 1.387 . S
C496 C497 1.387 . S
C496 H500 0.950 . S
C496 C505 1.390 . S
C497 C496 1.387 . S
C497 C499 1.387 . S
H498 C505 0.950 . S
C499 C497 1.387 . S
C499 C501 1.390 . S
C499 H503 0.950 . S
H500 C496 0.950 . S
C501 C499 1.390 . S
C501 C502 1.387 . S
C501 H504 0.950 . S
C502 C501 1.387 . S
C502 C505 1.387 . S
H503 C499 0.950 . S
H504 C501 0.950 . S
C505 C496 1.390 . S
C505 H498 0.950 . S
C505 C502 1.387 . S
C506 C507 1.387 . S
C506 H510 0.950 . S
C506 C515 1.390 . S
C507 C506 1.387 . S
C507 C509 1.387 . S
H508 C515 0.950 . S
C509 C507 1.387 . S
C509 C511 1.390 . S
C509 H513 0.950 . S
H510 C506 0.950 . S
C511 C509 1.390 . S
C511 C512 1.387 . S
C511 H514 0.950 . S
C512 C511 1.387 . S
C512 C515 1.387 . S
H513 C509 0.950 . S
H514 C511 0.950 . S
C515 C506 1.390 . S
C515 H508 0.950 . S
C515 C512 1.387 . S
C516 C517 1.387 . S
C516 H520 0.950 . S
C516 C525 1.390 . S
C517 C516 1.387 . S
C517 C519 1.387 . S
H518 C525 0.950 . S
C519 C517 1.387 . S
C519 C521 1.390 . S
C519 H523 0.950 . S
H520 C516 0.950 . S
C521 C519 1.390 . S
C521 C522 1.387 . S
C521 H524 0.950 . S
C522 C521 1.387 . S
C522 C525 1.387 . S
H523 C519 0.950 . S
H524 C521 0.950 . S
C525 C516 1.390 . S
C525 H518 0.950 . S
C525 C522 1.387 . S
C526 C527 1.387 . S
C526 H530 0.950 . S
C526 C535 1.390 . S
C527 C526 1.387 . S
C527 C529 1.387 . S
H528 C535 0.950 . S
C529 C527 1.387 . S
C529 C531 1.390 . S
C529 H533 0.950 . S
H530 C526 0.950 . S
C531 C529 1.390 . S
C531 C532 1.387 . S
C531 H534 0.950 . S
C532 C531 1.387 . S
C532 C535 1.387 . S
H533 C529 0.950 . S
H534 C531 0.950 . S
C535 C526 1.390 . S
C535 H528 0.950 . S
C535 C532 1.387 . S
C536 C537 1.387 . S
C536 H540 0.950 . S
C536 C545 1.390 . S
C537 C536 1.387 . S
C537 C539 1.387 . S
H538 C545 0.950 . S
C539 C537 1.387 . S
C539 C541 1.390 . S
C539 H543 0.950 . S
H540 C536 0.950 . S
C541 C539 1.390 . S
C541 C542 1.387 . S
C541 H544 0.950 . S
C542 C541 1.387 . S
C542 C545 1.387 . S
H543 C539 0.950 . S
H544 C541 0.950 . S
C545 C536 1.390 . S
C545 H538 0.950 . S
C545 C542 1.387 . S
C546 C547 1.387 . S
C546 H550 0.950 . S
C546 C555 1.390 . S
C547 C546 1.387 . S
C547 C549 1.387 . S
H548 C555 0.950 . S
C549 C547 1.387 . S
C549 C551 1.390 . S
C549 H553 0.950 . S
H550 C546 0.950 . S
C551 C549 1.390 . S
C551 C552 1.387 . S
C551 H554 0.950 . S
C552 C551 1.387 . S
C552 C555 1.387 . S
H553 C549 0.950 . S
H554 C551 0.950 . S
C555 C546 1.390 . S
C555 H548 0.950 . S
C555 C552 1.387 . S
C556 C557 1.387 . S
C556 H560 0.950 . S
C556 C565 1.390 . S
C557 C556 1.387 . S
C557 C559 1.387 . S
H558 C565 0.950 . S
C559 C557 1.387 . S
C559 C561 1.390 . S
C559 H563 0.950 . S
H560 C556 0.950 . S
C561 C559 1.390 . S
C561 C562 1.387 . S
C561 H564 0.950 . S
C562 C561 1.387 . S
C562 C565 1.387 . S
H563 C559 0.950 . S
H564 C561 0.950 . S
C565 C556 1.390 . S
C565 H558 0.950 . S
C565 C562 1.387 . S
C566 C567 1.387 . S
C566 H570 0.950 . S
C566 C575 1.390 . S
C567 C566 1.387 . S
C567 C569 1.387 . S
H568 C575 0.950 . S
C569 C567 1.387 . S
C569 C571 1.390 . S
C569 H573 0.950 . S
H570 C566 0.950 . S
C571 C569 1.390 . S
C571 C572 1.387 . S
C571 H574 0.950 . S
C572 C571 1.387 . S
C572 C575 1.387 . S
H573 C569 0.950 . S
H574 C571 0.950 . S
C575 C566 1.390 . S
C575 H568 0.950 . S
C575 C572 1.387 . S
C576 C577 1.387 . S
C576 H580 0.950 . S
C576 C585 1.390 . S
C577 C576 1.387 . S
C577 C579 1.387 . S
H578 C585 0.950 . S
C579 C577 1.387 . S
C579 C581 1.390 . S
C579 H583 0.950 . S
H580 C576 0.950 . S
C581 C579 1.390 . S
C581 C582 1.387 . S
C581 H584 0.950 . S
C582 C581 1.387 . S
C582 C585 1.387 . S
H583 C579 0.950 . S
H584 C581 0.950 . S
C585 C576 1.390 . S
C585 H578 0.950 . S
C585 C582 1.387 . S
C586 C587 1.387 . S
C586 H590 0.950 . S
C586 C595 1.390 1_554 S
C587 C586 1.387 . S
C587 C589 1.387 . S
H588 C595 0.950 . S
C589 C587 1.387 . S
C589 C591 1.390 1_554 S
C589 H593 0.950 . S
H590 C586 0.950 . S
C591 C589 1.390 1_556 S
C591 C592 1.387 . S
C591 H594 0.950 . S
C592 C591 1.387 . S
C592 C595 1.387 . S
H593 C589 0.950 . S
H594 C591 0.950 . S
C595 C586 1.390 1_556 S
C595 H588 0.950 . S
C595 C592 1.387 . S
C596 C597 1.387 . S
C596 H600 0.950 . S
C596 C605 1.390 . S
C597 C596 1.387 . S
C597 C599 1.387 . S
H598 C605 0.950 . S
C599 C597 1.387 . S
C599 C601 1.390 . S
C599 H603 0.950 . S
H600 C596 0.950 . S
C601 C599 1.390 . S
C601 C602 1.387 . S
C601 H604 0.950 . S
C602 C601 1.387 . S
C602 C605 1.387 . S
H603 C599 0.950 . S
H604 C601 0.950 . S
C605 C596 1.390 . S
C605 H598 0.950 . S
C605 C602 1.387 . S
C606 C607 1.409 . S
C606 H610 0.949 1_554 S
C606 C615 1.370 1_554 S
C607 C606 1.409 . S
C607 C609 1.387 . S
H608 C615 0.950 . S
C609 C607 1.387 . S
C609 C611 1.390 . S
C609 H613 0.950 . S
H610 C606 0.949 1_556 S
C611 C609 1.390 . S
C611 C612 1.387 1_554 S
C611 H614 0.950 . S
C612 C611 1.387 1_556 S
C612 C615 1.387 . S
H613 C609 0.950 . S
H614 C611 0.950 . S
C615 C606 1.370 1_556 S
C615 H608 0.950 . S
C615 C612 1.387 . S
C616 C617 1.387 . S
C616 H620 0.950 . S
C616 C625 1.390 . S
C617 C616 1.387 . S
C617 C619 1.387 . S
H618 C625 0.950 . S
C619 C617 1.387 . S
C619 C621 1.390 . S
C619 H623 0.950 . S
H620 C616 0.950 . S
C621 C619 1.390 . S
C621 C622 1.387 . S
C621 H624 0.950 . S
C622 C621 1.387 . S
C622 C625 1.387 . S
H623 C619 0.950 . S
H624 C621 0.950 . S
C625 C616 1.390 . S
C625 H618 0.950 . S
C625 C622 1.387 . S
C626 C627 1.387 . S
C626 H630 0.950 . S
C626 C635 1.390 1_655 S
C627 C626 1.387 . S
C627 C629 1.387 . S
H628 C635 0.950 . S
C629 C627 1.387 . S
C629 C631 1.390 1_655 S
C629 H633 0.950 . S
H630 C626 0.950 . S
C631 C629 1.390 1_455 S
C631 C632 1.387 . S
C631 H634 0.950 . S
C632 C631 1.387 . S
C632 C635 1.387 . S
H633 C629 0.950 . S
H634 C631 0.950 . S
C635 C626 1.390 1_455 S
C635 H628 0.950 . S
C635 C632 1.387 . S
C636 C637 1.387 . S
C636 H640 0.950 . S
C636 C645 1.390 1_455 S
C637 C636 1.387 . S
C637 C639 1.387 . S
H638 C645 0.950 . S
C639 C637 1.387 . S
C639 C641 1.390 1_455 S
C639 H643 0.950 . S
H640 C636 0.950 . S
C641 C639 1.390 1_655 S
C641 C642 1.387 . S
C641 H644 0.950 . S
C642 C641 1.387 . S
C642 C645 1.387 . S
H643 C639 0.950 . S
H644 C641 0.950 . S
C645 C636 1.390 1_655 S
C645 H638 0.950 . S
C645 C642 1.387 . S
C646 C647 1.387 . S
C646 H650 0.950 . S
C646 C655 1.390 . S
C647 C646 1.387 . S
C647 C649 1.387 . S
H648 C655 0.950 . S
C649 C647 1.387 . S
C649 C651 1.390 . S
C649 H653 0.950 . S
H650 C646 0.950 . S
C651 C649 1.390 . S
C651 C652 1.387 . S
C651 H654 0.950 . S
C652 C651 1.387 . S
C652 C655 1.387 . S
H653 C649 0.950 . S
H654 C651 0.950 . S
C655 C646 1.390 . S
C655 H648 0.950 . S
C655 C652 1.387 . S
C656 C657 1.387 . S
C656 H660 0.950 . S
C656 C665 1.390 . S
C657 C656 1.387 . S
C657 C659 1.387 . S
H658 C665 0.950 . S
C659 C657 1.387 . S
C659 C661 1.390 . S
C659 H663 0.950 . S
H660 C656 0.950 . S
C661 C659 1.390 . S
C661 C662 1.387 . S
C661 H664 0.950 . S
C662 C661 1.387 . S
C662 C665 1.387 . S
H663 C659 0.950 . S
H664 C661 0.950 . S
C665 C656 1.390 . S
C665 H658 0.950 . S
C665 C662 1.387 . S
C666 C667 1.387 . S
C666 H670 0.950 . S
C666 C675 1.361 1_565 S
C667 C666 1.387 . S
C667 C669 1.387 1_565 S
H668 C675 0.949 . S
C669 C667 1.387 1_545 S
C669 C671 1.390 . S
C669 H673 0.950 . S
H670 C666 0.950 . S
C671 C669 1.390 . S
C671 C672 1.387 . S
C671 H674 0.950 . S
C672 C671 1.387 . S
C672 C675 1.418 . S
H673 C669 0.950 . S
H674 C671 0.950 . S
C675 C666 1.361 1_545 S
C675 H668 0.949 . S
C675 C672 1.418 . S
C676 C677 1.387 . S
C676 H680 0.950 . S
C676 C685 1.368 1_545 S
C677 C676 1.387 . S
C677 C679 1.387 1_545 S
H678 C685 0.949 1_545 S
C679 C677 1.387 1_565 S
C679 C681 1.390 . S
C679 H683 0.950 . S
H680 C676 0.950 . S
C681 C679 1.390 . S
C681 C682 1.387 . S
C681 H684 0.950 . S
C682 C681 1.387 . S
C682 C685 1.411 . S
H683 C679 0.950 . S
H684 C681 0.950 . S
C685 C676 1.368 1_565 S
C685 H678 0.949 1_565 S
C685 C682 1.411 . S
C686 C687 1.387 . S
C686 H690 0.950 . S
C686 C695 1.390 . S
C687 C686 1.387 . S
C687 C689 1.387 . S
H688 C695 0.950 . S
C689 C687 1.387 . S
C689 C691 1.390 . S
C689 H693 0.950 . S
H690 C686 0.950 . S
C691 C689 1.390 . S
C691 C692 1.387 . S
C691 H694 0.950 . S
C692 C691 1.387 . S
C692 C695 1.387 . S
H693 C689 0.950 . S
H694 C691 0.950 . S
C695 C686 1.390 . S
C695 H688 0.950 . S
C695 C692 1.387 . S
C696 C697 1.387 . S
C696 H700 0.950 . S
C696 C705 1.390 . S
C697 C696 1.387 . S
C697 C699 1.387 . S
H698 C705 0.950 . S
C699 C697 1.387 . S
C699 C701 1.390 . S
C699 H703 0.950 . S
H700 C696 0.950 . S
C701 C699 1.390 . S
C701 C702 1.387 . S
C701 H704 0.950 . S
C702 C701 1.387 . S
C702 C705 1.387 . S
H703 C699 0.950 . S
H704 C701 0.950 . S
C705 C696 1.390 . S
C705 H698 0.950 . S
C705 C702 1.387 . S
C706 C707 1.387 . S
C706 H710 0.950 . S
C706 C715 1.390 1_556 S
C707 C706 1.387 . S
C707 C709 1.387 . S
H708 C715 0.950 . S
C709 C707 1.387 . S
C709 C711 1.390 1_556 S
C709 H713 0.950 . S
H710 C706 0.950 . S
C711 C709 1.390 1_554 S
C711 C712 1.387 . S
C711 H714 0.950 . S
C712 C711 1.387 . S
C712 C715 1.387 . S
H713 C709 0.950 . S
H714 C711 0.950 . S
C715 C706 1.390 1_554 S
C715 H708 0.950 . S
C715 C712 1.387 . S
C716 C717 1.387 . S
C716 H720 0.950 . S
C716 C725 1.390 . S
C717 C716 1.387 . S
C717 C719 1.387 . S
H718 C725 0.950 . S
C719 C717 1.387 . S
C719 C721 1.390 . S
C719 H723 0.950 . S
H720 C716 0.950 . S
C721 C719 1.390 . S
C721 C722 1.387 . S
C721 H724 0.950 . S
C722 C721 1.387 . S
C722 C725 1.387 . S
H723 C719 0.950 . S
H724 C721 0.950 . S
C725 C716 1.390 . S
C725 H718 0.950 . S
C725 C722 1.387 . S
C726 C727 1.387 1_556 S
C726 H730 0.951 . S
C726 C735 1.390 . S
C727 C726 1.387 1_554 S
C727 C729 1.387 . S
H728 C735 0.950 . S
C729 C727 1.387 . S
C729 C731 1.390 1_554 S
C729 H733 0.950 . S
H730 C726 0.951 . S
C731 C729 1.390 1_556 S
C731 C732 1.387 . S
C731 H734 0.950 . S
C732 C731 1.387 . S
C732 C735 1.387 . S
H733 C729 0.950 . S
H734 C731 0.950 . S
C735 C726 1.390 . S
C735 H728 0.950 . S
C735 C732 1.387 . S
C736 C737 1.387 . S
C736 H740 0.950 . S
C736 C745 1.390 . S
C737 C736 1.387 . S
C737 C739 1.387 . S
H738 C745 0.950 . S
C739 C737 1.387 . S
C739 C741 1.390 . S
C739 H743 0.950 . S
H740 C736 0.950 . S
C741 C739 1.390 . S
C741 C742 1.387 . S
C741 H744 0.950 . S
C742 C741 1.387 . S
C742 C745 1.387 . S
H743 C739 0.950 . S
H744 C741 0.950 . S
C745 C736 1.390 . S
C745 H738 0.950 . S
C745 C742 1.387 . S
C746 C747 1.387 . S
C746 H750 0.950 . S
C746 C755 1.390 1_655 S
C747 C746 1.387 . S
C747 C749 1.387 . S
H748 C755 0.950 . S
C749 C747 1.387 . S
C749 C751 1.390 1_655 S
C749 H753 0.950 . S
H750 C746 0.950 . S
C751 C749 1.390 1_455 S
C751 C752 1.387 . S
C751 H754 0.950 . S
C752 C751 1.387 . S
C752 C755 1.387 . S
H753 C749 0.950 . S
H754 C751 0.950 . S
C755 C746 1.390 1_455 S
C755 H748 0.950 . S
C755 C752 1.387 . S
C756 C757 1.387 . S
C756 H760 0.950 . S
C756 C765 1.390 1_455 S
C757 C756 1.387 . S
C757 C759 1.387 . S
H758 C765 0.950 . S
C759 C757 1.387 . S
C759 C761 1.390 1_455 S
C759 H763 0.950 . S
H760 C756 0.950 . S
C761 C759 1.390 1_655 S
C761 C762 1.387 . S
C761 H764 0.950 . S
C762 C761 1.387 . S
C762 C765 1.387 . S
H763 C759 0.950 . S
H764 C761 0.950 . S
C765 C756 1.390 1_655 S
C765 H758 0.950 . S
C765 C762 1.387 . S
C766 C767 1.387 . S
C766 H770 0.950 . S
C766 C775 1.390 . S
C767 C766 1.387 . S
C767 C769 1.387 . S
H768 C775 0.950 . S
C769 C767 1.387 . S
C769 C771 1.390 . S
C769 H773 0.950 . S
H770 C766 0.950 . S
C771 C769 1.390 . S
C771 C772 1.387 . S
C771 H774 0.950 . S
C772 C771 1.387 . S
C772 C775 1.387 . S
H773 C769 0.950 . S
H774 C771 0.950 . S
C775 C766 1.390 . S
C775 H768 0.950 . S
C775 C772 1.387 . S
C776 C777 1.387 . S
C776 H780 0.950 . S
C776 C785 1.390 . S
C777 C776 1.387 . S
C777 C779 1.387 . S
H778 C785 0.950 . S
C779 C777 1.387 . S
C779 C781 1.390 . S
C779 H783 0.950 . S
H780 C776 0.950 . S
C781 C779 1.390 . S
C781 C782 1.387 . S
C781 H784 0.950 . S
C782 C781 1.387 . S
C782 C785 1.387 . S
H783 C779 0.950 . S
H784 C781 0.950 . S
C785 C776 1.390 . S
C785 H778 0.950 . S
C785 C782 1.387 . S
C786 C787 1.387 . S
C786 H790 0.950 . S
C786 C795 1.390 1_565 S
C787 C786 1.387 . S
C787 C789 1.387 . S
H788 C795 0.950 . S
C789 C787 1.387 . S
C789 C791 1.390 1_565 S
C789 H793 0.950 . S
H790 C786 0.950 . S
C791 C789 1.390 1_545 S
C791 C792 1.387 . S
C791 H794 0.950 . S
C792 C791 1.387 . S
C792 C795 1.387 . S
H793 C789 0.950 . S
H794 C791 0.950 . S
C795 C786 1.390 1_545 S
C795 H788 0.950 . S
C795 C792 1.387 . S
C796 C797 1.387 . S
C796 H800 0.950 . S
C796 C805 1.390 1_565 S
C797 C796 1.387 . S
C797 C799 1.387 1_565 S
H798 C805 0.950 . S
C799 C797 1.387 1_545 S
C799 C801 1.390 . S
C799 H803 0.950 . S
H800 C796 0.950 . S
C801 C799 1.390 . S
C801 C802 1.387 . S
C801 H804 0.950 . S
C802 C801 1.387 . S
C802 C805 1.387 . S
H803 C799 0.950 . S
H804 C801 0.950 . S
C805 C796 1.390 1_545 S
C805 H798 0.950 . S
C805 C802 1.387 . S
C806 C807 1.387 . S
C806 H810 0.950 . S
C806 C815 1.390 . S
C807 C806 1.387 . S
C807 C809 1.387 . S
H808 C815 0.950 . S
C809 C807 1.387 . S
C809 C811 1.390 . S
C809 H813 0.950 . S
H810 C806 0.950 . S
C811 C809 1.390 . S
C811 C812 1.387 . S
C811 H814 0.950 . S
C812 C811 1.387 . S
C812 C815 1.387 . S
H813 C809 0.950 . S
H814 C811 0.950 . S
C815 C806 1.390 . S
C815 H808 0.950 . S
C815 C812 1.387 . S
C337 C121 1.366 . S
C342 C8 1.312 . S
C347 C22 1.310 . S
C352 C163 1.365 . S
C357 C36 1.310 . S
C362 C135 1.365 . S
C367 C50 1.311 . S
C372 C149 1.365 . S
C377 C64 1.309 . S
C382 C9 1.365 . S
C387 C23 1.366 . S
C392 C78 1.312 . S
C397 C92 1.310 . S
C402 C37 1.365 . S
C407 C51 1.365 . S
C412 C106 1.309 . S
C417 C65 1.365 . S
C422 C120 1.309 . S
C427 C93 1.366 . S
C432 C134 1.312 . S
C437 C148 1.312 . S
C442 C107 1.366 . S
C447 C79 1.366 . S
C452 C162 1.313 . S
C457 C289 1.366 . S
C462 C176 1.310 . S
C467 C190 1.310 . S
C472 C331 1.366 . S
C477 C204 1.311 . S
C482 C303 1.365 . S
C487 C317 1.366 . S
C492 C218 1.310 . S
C497 C232 1.313 . S
C502 C177 1.366 . S
C507 C191 1.365 . S
C512 C246 1.310 . S
C517 C205 1.366 . S
C522 C260 1.312 . S
C527 C274 1.309 . S
C532 C219 1.365 . S
C537 C288 1.312 . S
C542 C233 1.365 . S
C547 C261 1.365 . S
C552 C302 1.309 . S
C557 C275 1.365 . S
C562 C316 1.309 . S
C567 C330 1.310 . S
C572 C247 1.365 . S
C577 C314 1.495 . S
C582 C7 1.558 . S
C587 C300 1.498 . S
C592 C21 1.560 . S
C597 C328 1.496 . S
C602 C35 1.558 . S
C607 C49 1.558 . S
C612 C286 1.497 . S
C617 C63 1.560 . S
C622 C188 1.498 . S
C627 C174 1.498 . S
C632 C77 1.559 . S
C637 C216 1.494 . S
C642 C91 1.559 . S
C647 C202 1.498 . S
C652 C105 1.560 . S
C657 C119 1.559 . S
C662 C258 1.495 . S
C667 C230 1.496 . S
C672 C133 1.558 . S
C677 C244 1.496 . S
C682 C147 1.558 . S
C687 C272 1.494 . S
C692 C161 1.559 . S
C697 C146 1.495 . S
C702 C175 1.558 . S
C707 C132 1.498 . S
C712 C189 1.559 . S
C717 C203 1.558 . S
C722 C160 1.495 . S
C727 C118 1.496 . S
C732 C217 1.558 . S
C737 C231 1.560 . S
C742 C20 1.498 . S
C747 C245 1.560 . S
C752 C6 1.498 . S
C757 C259 1.560 . S
C762 C48 1.498 . S
C767 C273 1.560 . S
C772 C34 1.498 . S
C777 C287 1.559 . S
C782 C90 1.495 . S
C787 C301 1.559 . S
C792 C62 1.495 . S
C797 C76 1.495 . S
C802 C315 1.559 . S
C807 C329 1.559 . S
C812 C104 1.498 . S
