# Generated by pormake.
# Topology rob, (6)-cn, num edge types: 1
# Building blocks:
#     Node 0, Type 0, BuildingBlock: PAMTUU_clean_sbu_0, # of connection points: 6
#     Node 1, Type 0, BuildingBlock: PAMTUU_clean_sbu_0, # of connection points: 6
#     Node 2, Type 0, BuildingBlock: PAMTUU_clean_sbu_0, # of connection points: 6
#     Node 3, Type 0, BuildingBlock: PAMTUU_clean_sbu_0, # of connection points: 6
#     Edge 4, Type (0, 0), BuildingBlock: EZIPEK_clean_linker_0, # of connection points: 2
#     Edge 5, Type (0, 0), BuildingBlock: EZIPEK_clean_linker_0, # of connection points: 2
#     Edge 6, Type (0, 0), BuildingBlock: EZIPEK_clean_linker_0, # of connection points: 2
#     Edge 7, Type (0, 0), BuildingBlock: EZIPEK_clean_linker_0, # of connection points: 2
#     Edge 8, Type (0, 0), BuildingBlock: EZIPEK_clean_linker_0, # of connection points: 2
#     Edge 9, Type (0, 0), BuildingBlock: EZIPEK_clean_linker_0, # of connection points: 2
#     Edge 10, Type (0, 0), BuildingBlock: EZIPEK_clean_linker_0, # of connection points: 2
#     Edge 11, Type (0, 0), BuildingBlock: EZIPEK_clean_linker_0, # of connection points: 2
#     Edge 12, Type (0, 0), BuildingBlock: EZIPEK_clean_linker_0, # of connection points: 2
#     Edge 13, Type (0, 0), BuildingBlock: EZIPEK_clean_linker_0, # of connection points: 2
#     Edge 14, Type (0, 0), BuildingBlock: EZIPEK_clean_linker_0, # of connection points: 2
#     Edge 15, Type (0, 0), BuildingBlock: EZIPEK_clean_linker_0, # of connection points: 2
# Relax obj value: 0.239
# Max RMSD: 0.261
# Mean RMSD: 0.261
data_MOF--net-rob--node1-PAMTUU_clean_sbu_0--edge1-EZIPEK_clean_linker_0
_symmetry_space_group_name_H-M    P1
_symmetry_Int_Tables_number       1
_symmetry_cell_setting            triclinic
loop_
_symmetry_equiv_pos_as_xyz
'x, y, z'
_cell_length_a     15.276018
_cell_length_b     15.631767
_cell_length_c     28.541059
_cell_angle_alpha  89.591371
_cell_angle_beta   49.197223
_cell_angle_gamma 90.182581
loop_
_atom_site_label
_atom_site_type_symbol
_atom_site_fract_x
_atom_site_fract_y
_atom_site_fract_z
_atom_type_partial_charge
Tb0 Tb 0.17537 0.29946 0.01258 0.0
Tb1 Tb 0.32642 0.15833 0.02128 0.0
C2 C 0.37722 0.35742 0.00941 0.0
C3 C 0.04307 0.37346 0.95011 0.0
C4 C 0.02179 0.35121 0.86004 0.0
C5 C 0.98438 0.42679 0.89429 0.0
C6 C 0.99522 0.43784 0.93877 0.0
C7 C 0.07802 0.29677 0.91689 0.0
C8 C 0.06844 0.28596 0.87175 0.0
C9 C 0.06558 0.38881 0.99236 0.0
O10 O 0.27705 0.22762 0.92819 0.0
O11 O 0.42424 0.17574 0.92245 0.0
O12 O 0.22604 0.08699 1.00553 0.0
O13 O 0.07751 0.18058 0.05561 0.0
O14 O 0.48487 0.11503 0.99198 0.0
O15 O 0.32496 0.05069 0.0666 0.0
O16 O 0.17599 0.1947 0.11517 0.0
O17 O 0.126 0.32602 0.10156 0.0
O18 O 0.3185 0.3745 0.99158 0.0
O19 O 0.37956 0.28154 0.02805 0.0
C20 C 0.38053 0.1962 0.89673 0.0
O21 O 0.01591 0.33613 0.03926 0.0
O22 O 0.17381 0.4019 0.96514 0.0
C23 C 0.11882 0.10495 0.032 0.0
C24 C 0.46407 0.06999 0.07851 0.0
C25 C 0.51182 0.09189 0.15808 0.0
C26 C 0.42479 0.03471 0.17405 0.0
C27 C 0.40143 0.02357 0.13453 0.0
C28 C 0.55245 0.12655 0.06235 0.0
C29 C 0.57589 0.13746 0.10186 0.0
C30 C 0.43433 0.06135 0.03849 0.0
C31 C 0.12381 0.26898 0.1364 0.0
H32 H 0.94934 0.47818 0.88543 0.0
H33 H 0.96856 0.49754 0.96299 0.0
H34 H 0.11508 0.24601 0.9248 0.0
H35 H 0.09891 0.22749 0.84536 0.0
H36 H 0.37487 -0.00124 0.2172 0.0
H37 H 0.33353 -0.02079 0.14808 0.0
H38 H 0.60289 0.16322 0.01951 0.0
H39 H 0.64355 0.1817 0.08879 0.0
Tb40 Tb 0.66777 0.78241 0.03133 0.0
Tb41 Tb 0.81886 0.64806 0.04249 0.0
C42 C 0.88525 0.83916 0.01157 0.0
C43 C 0.55641 0.86933 0.96012 0.0
C44 C 0.55665 0.85346 0.86145 0.0
C45 C 0.606 0.92582 0.86538 0.0
C46 C 0.6064 0.93344 0.91408 0.0
C47 C 0.50681 0.79683 0.95603 0.0
C48 C 0.50698 0.78905 0.9071 0.0
C49 C 0.56481 0.87614 0.00895 0.0
O50 O 0.76427 0.70599 0.94903 0.0
O51 O 0.91445 0.6616 0.9435 0.0
O52 O 0.72368 0.56887 0.02701 0.0
O53 O 0.57386 0.66057 0.06751 0.0
O54 O 0.97639 0.61738 0.01956 0.0
O55 O 0.82172 0.54312 0.08801 0.0
O56 O 0.65952 0.6764 0.13414 0.0
O57 O 0.62051 0.81117 0.12021 0.0
O58 O 0.83298 0.84384 0.98933 0.0
O59 O 0.85959 0.77678 0.04945 0.0
C60 C 0.86975 0.67821 0.91763 0.0
O61 O 0.5123 0.81775 0.05261 0.0
O62 O 0.66771 0.89301 0.98906 0.0
C63 C 0.61721 0.58302 0.05059 0.0
C64 C 0.94052 0.57816 0.1103 0.0
C65 C 0.95643 0.60824 0.20146 0.0
C66 C 0.98078 0.52719 0.17481 0.0
C67 C 0.97267 0.51224 0.12962 0.0
C68 C 0.91629 0.65947 0.1369 0.0
C69 C 0.9237 0.6744 0.18242 0.0
C70 C 0.92671 0.56172 0.06481 0.0
C71 C 0.61485 0.75221 0.15526 0.0
H72 H 0.6441 0.97638 0.83076 0.0
H73 H 0.64696 -0.0108 0.91544 0.0
H74 H 0.46896 0.74563 0.99015 0.0
H75 H 0.4679 0.73299 0.90495 0.0
H76 H 0.00516 0.47539 0.18952 0.0
H77 H 0.99001 0.44908 0.11053 0.0
H78 H 0.8902 0.71103 0.12304 0.0
H79 H 0.90295 0.73698 0.20319 0.0
Tb80 Tb 0.32034 0.79935 0.53953 0.0
Tb81 Tb 0.15196 0.67189 0.53729 0.0
C82 C 0.13547 0.87204 0.53574 0.0
C83 C 0.48777 0.86794 0.58602 0.0
C84 C 0.53812 0.84768 0.66471 0.0
C85 C 0.53909 0.92884 0.64351 0.0
C86 C 0.51095 0.93913 0.60611 0.0
C87 C 0.49629 0.78559 0.60309 0.0
C88 C 0.51939 0.77554 0.64307 0.0
C89 C 0.45078 0.88108 0.54963 0.0
O90 O 0.15319 0.78459 0.63296 0.0
O91 O 0.10433 0.64992 0.62639 0.0
O92 O 0.30551 0.60061 0.50363 0.0
O93 O 0.33544 0.67096 0.56148 0.0
O94 O 0.98759 0.64349 0.56684 0.0
O95 O 0.13319 0.56206 0.50277 0.0
O96 O 0.26082 0.73898 0.44984 0.0
O97 O 0.4163 0.76041 0.44327 0.0
O98 O 0.24079 0.88377 0.51549 0.0
O99 O 0.0787 0.79956 0.56184 0.0
C100 C 0.10019 0.71096 0.65898 0.0
O101 O 0.48759 0.82622 0.50623 0.0
O102 O 0.34209 0.89887 0.58087 0.0
C103 C 0.34997 0.60382 0.53021 0.0
C104 C 0.01182 0.59108 0.48085 0.0
C105 C 0.99428 0.61363 0.38931 0.0
C106 C 0.0697 0.55272 0.38156 0.0
C107 C 0.07773 0.54107 0.42714 0.0
C108 C 0.93487 0.65134 0.4888 0.0
C109 C 0.92594 0.66229 0.44338 0.0
C110 C 0.02948 0.58327 0.52591 0.0
C111 C 0.37191 0.75131 0.41662 0.0
H112 H 0.55654 -0.01546 0.65847 0.0
H113 H 0.50382 0.00313 0.59477 0.0
H114 H 0.4796 0.72929 0.58808 0.0
H115 H 0.51856 0.71203 0.6588 0.0
H116 H 0.12106 0.51338 0.34062 0.0
H117 H 0.13677 0.49348 0.41996 0.0
H118 H 0.88222 0.69041 0.52977 0.0
H119 H 0.86541 0.70826 0.45049 0.0
Tb120 Tb 0.82547 0.29673 0.52079 0.0
Tb121 Tb 0.67429 0.15928 0.51109 0.0
C122 C 0.61523 0.35225 0.53472 0.0
C123 C 0.95361 0.38036 0.58423 0.0
C124 C 0.97756 0.36018 0.6737 0.0
C125 C 0.90038 0.42023 0.6823 0.0
C126 C 0.88918 0.43072 0.63776 0.0
C127 C 0.03091 0.32 0.57587 0.0
C128 C 0.04264 0.31005 0.62031 0.0
C129 C 0.93565 0.38905 0.53921 0.0
O130 O 0.71946 0.22134 0.60534 0.0
O131 O 0.5689 0.18687 0.60972 0.0
O132 O 0.76514 0.08161 0.53131 0.0
O133 O 0.91599 0.17598 0.48853 0.0
O134 O 0.51954 0.12869 0.53003 0.0
O135 O 0.66961 0.04889 0.47115 0.0
O136 O 0.83021 0.19365 0.41812 0.0
O137 O 0.87251 0.32704 0.43201 0.0
O138 O 0.66416 0.35821 0.5587 0.0
O139 O 0.63438 0.28671 0.50101 0.0
C140 C 0.60963 0.20257 0.63761 0.0
O141 O 0.98476 0.33308 0.49507 0.0
O142 O 0.83034 0.40446 0.56264 0.0
C143 C 0.86884 0.10013 0.51143 0.0
C144 C 0.56375 0.07766 0.43956 0.0
C145 C 0.55845 0.09655 0.34321 0.0
C146 C 0.47839 0.0426 0.39419 0.0
C147 C 0.48088 0.03331 0.44212 0.0
C148 C 0.64147 0.13347 0.38952 0.0
C149 C 0.63802 0.14361 0.34211 0.0
C150 C 0.56858 0.06805 0.48919 0.0
C151 C 0.87462 0.27061 0.39736 0.0
H152 H 0.84953 0.45934 0.72329 0.0
H153 H 0.82927 0.4779 0.64546 0.0
H154 H 0.08191 0.28008 0.53526 0.0
H155 H 0.1027 0.26343 0.61303 0.0
H156 H 0.4145 0.00738 0.39657 0.0
H157 H 0.41848 -0.00853 0.48085 0.0
H158 H 0.70523 0.1688 0.38705 0.0
H159 H 0.69909 0.18645 0.30378 0.0
C160 C 0.60728 0.44707 1.00612 0.0
C161 C 0.5499 0.51538 0.04847 0.0
C162 C 0.37703 0.48623 0.0612 0.0
C163 C 0.44004 0.42502 0.01346 0.0
N164 N 0.62231 0.36118 0.93132 0.0
N165 N 0.36518 0.56933 0.13649 0.0
C166 C 0.55747 0.41012 0.98311 0.0
C167 C 0.43022 0.5271 0.08157 0.0
N168 N 0.70189 0.41047 0.99315 0.0
N169 N 0.26719 0.50644 0.08641 0.0
H170 H 0.4 0.58967 0.15606 0.0
H171 H 0.27541 0.57264 0.16669 0.0
H172 H 0.22615 0.47882 0.0721 0.0
H173 H 0.22137 0.55673 0.11685 0.0
H174 H 0.74125 0.35635 0.96585 0.0
H175 H 0.72797 0.42386 0.01814 0.0
H176 H 0.71188 0.35758 0.90282 0.0
H177 H 0.58792 0.33325 0.9133 0.0
C178 C 0.38479 0.44885 0.53948 0.0
C179 C 0.42343 0.53512 0.52381 0.0
C180 C 0.57167 0.50638 0.53099 0.0
C181 C 0.53696 0.41923 0.54401 0.0
N182 N 0.38736 0.31488 0.58168 0.0
N183 N 0.57945 0.63534 0.48154 0.0
C184 C 0.43727 0.39235 0.55375 0.0
C185 C 0.52411 0.56086 0.51319 0.0
N186 N 0.3023 0.41934 0.5381 0.0
N187 N 0.64609 0.53885 0.53764 0.0
H188 H 0.55243 0.6725 0.46261 0.0
H189 H 0.6593 0.65399 0.46731 0.0
H190 H 0.68123 0.50325 0.55258 0.0
H191 H 0.66337 0.60416 0.53464 0.0
H192 H 0.28429 0.35452 0.54002 0.0
H193 H 0.25921 0.45781 0.52919 0.0
H194 H 0.30763 0.29477 0.59645 0.0
H195 H 0.41911 0.2752 0.59707 0.0
C196 C 0.9775 0.06002 0.01704 0.0
C197 C 0.04817 0.03876 0.03177 0.0
C198 C 0.03931 0.88806 0.01238 0.0
C199 C 0.96399 0.9085 1.00136 0.0
N200 N 0.91081 0.01708 0.96362 0.0
N201 N 0.11428 0.92869 0.06166 0.0
C202 C 0.9477 -0.00462 0.99465 0.0
C203 C 0.07056 0.95156 0.03422 0.0
N204 N 0.93053 0.1394 0.02867 0.0
N205 N 0.0874 0.80874 0.99762 0.0
H206 H 0.12795 0.97282 0.08362 0.0
H207 H 0.1226 0.86529 0.06967 0.0
H208 H 0.07528 0.76458 0.97501 0.0
H209 H 0.15084 0.79167 0.99958 0.0
H210 H 0.8702 0.15454 0.02399 0.0
H211 H 0.93537 0.18632 0.05231 0.0
H212 H 0.90687 0.08007 0.95296 0.0
H213 H 0.903 0.97295 0.93941 0.0
C214 C 0.04898 0.01571 0.46322 0.0
C215 C 0.93496 0.0374 0.51705 0.0
C216 C 0.96734 0.96821 0.58233 0.0
C217 C 0.07656 0.93972 0.52856 0.0
N218 N 0.22052 0.93174 0.41719 0.0
N219 N 0.78067 0.0271 0.62814 0.0
C220 C 0.11783 0.96308 0.4688 0.0
C221 C 0.89255 0.01126 0.57669 0.0
N222 N 0.0917 0.04566 0.40648 0.0
N223 N 0.93706 0.95643 0.63889 0.0
H224 H 0.72341 0.05978 0.62679 0.0
H225 H 0.74096 0.00226 0.67195 0.0
H226 H 0.9912 0.92668 0.64423 0.0
H227 H 0.86412 -0.01723 0.67975 0.0
H228 H 0.17877 0.04376 0.36684 0.0
H229 H 0.04054 0.07588 0.39925 0.0
H230 H 0.24802 0.93549 0.37288 0.0
H231 H 0.27751 0.89884 0.41872 0.0
C232 C 0.46367 0.14859 0.30237 0.0
C233 C 0.55637 0.10501 0.29192 0.0
C234 C 0.62924 0.0612 0.18943 0.0
C235 C 0.53528 0.10343 0.20073 0.0
N236 N 0.39077 0.21197 0.25629 0.0
N237 N 0.74406 0.03928 0.21941 0.0
C238 C 0.46038 0.15437 0.25391 0.0
C239 C 0.6451 0.06796 0.23324 0.0
N240 N 0.37851 0.1844 0.35858 0.0
N241 N 0.70092 0.01242 0.13777 0.0
H242 H 0.75652 0.03815 0.25118 0.0
H243 H 0.81745 0.02168 0.1752 0.0
H244 H 0.69114 0.00527 0.10511 0.0
H245 H 0.7677 0.97618 0.12811 0.0
H246 H 0.30139 0.20679 0.37137 0.0
H247 H 0.38212 0.18793 0.39377 0.0
H248 H 0.34198 0.25717 0.29103 0.0
H249 H 0.39261 0.2207 0.21943 0.0
C250 C 0.60201 0.80487 0.24274 0.0
C251 C 0.54901 0.76549 0.22192 0.0
C252 C 0.40761 0.69872 0.3232 0.0
C253 C 0.44456 0.75128 0.34796 0.0
N254 N 0.57614 0.86201 0.32945 0.0
N255 N 0.38753 0.68739 0.2464 0.0
C256 C 0.54175 0.80669 0.30733 0.0
C257 C 0.44652 0.71724 0.2638 0.0
N258 N 0.71199 0.83659 0.20093 0.0
N259 N 0.34298 0.62669 0.35417 0.0
H260 H 0.41203 0.70345 0.20368 0.0
H261 H 0.30858 0.65492 0.27679 0.0
H262 H 0.32496 0.60487 0.39432 0.0
H263 H 0.32338 0.5825 0.33495 0.0
H264 H 0.76055 0.8555 0.2129 0.0
H265 H 0.75806 0.83687 0.15356 0.0
H266 H 0.64123 0.90754 0.30171 0.0
H267 H 0.53486 0.86791 0.37596 0.0
C268 C 0.44704 0.86677 0.82427 0.0
C269 C 0.55178 0.84723 0.81108 0.0
C270 C 0.64826 0.82406 0.70157 0.0
C271 C 0.54234 0.84101 0.71537 0.0
N272 N 0.33728 0.86634 0.79026 0.0
N273 N 0.7488 0.79882 0.74014 0.0
C274 C 0.4406 0.85855 0.77699 0.0
C275 C 0.65161 0.82325 0.75046 0.0
N276 N 0.35503 0.89647 0.88152 0.0
N277 N 0.74582 0.81107 0.64145 0.0
H278 H 0.75395 0.79791 0.77483 0.0
H279 H 0.82257 0.77519 0.6984 0.0
H280 H 0.74534 0.81034 0.60507 0.0
H281 H 0.82836 0.805 0.62654 0.0
H282 H 0.27948 0.91926 0.89287 0.0
H283 H 0.35623 0.90387 0.91738 0.0
H284 H 0.25759 0.8695 0.83491 0.0
H285 H 0.32995 0.86378 0.75648 0.0
C286 C 0.44287 0.14391 0.74759 0.0
C287 C 0.53485 0.20339 0.70668 0.0
C288 C 0.53959 0.24158 0.78804 0.0
C289 C 0.44641 0.18497 0.82976 0.0
N290 N 0.29904 0.08849 0.85276 0.0
N291 N 0.62265 0.33582 0.70106 0.0
C292 C 0.39519 0.13773 0.81039 0.0
C293 C 0.56945 0.25997 0.73073 0.0
N294 N 0.39978 0.09409 0.72754 0.0
N295 N 0.59832 0.2799 0.80327 0.0
H296 H 0.63238 0.35631 0.66304 0.0
H297 H 0.64019 0.38308 0.71959 0.0
H298 H 0.58002 0.26765 0.84473 0.0
H299 H 0.67314 0.31649 0.77174 0.0
H300 H 0.34487 0.04188 0.75227 0.0
H301 H 0.4198 0.10285 0.68542 0.0
H302 H 0.24657 0.062 0.84528 0.0
H303 H 0.26887 0.07634 0.89714 0.0
C304 C 0.04772 0.66972 0.2424 0.0
C305 C 0.95819 0.62088 0.25227 0.0
C306 C 0.89262 0.56934 0.35175 0.0
C307 C 0.97904 0.62004 0.34324 0.0
N308 N 0.12381 0.73155 0.2875 0.0
N309 N 0.77639 0.54508 0.32314 0.0
C310 C 0.05187 0.67467 0.29072 0.0
C311 C 0.87434 0.57737 0.30929 0.0
N312 N 0.13107 0.70836 0.18625 0.0
N313 N 0.83122 0.51085 0.39907 0.0
H314 H 0.75987 0.55066 0.29308 0.0
H315 H 0.70644 0.5208 0.36665 0.0
H316 H 0.84529 0.50048 0.42979 0.0
H317 H 0.77182 0.4684 0.40545 0.0
H318 H 0.20549 0.73673 0.17387 0.0
H319 H 0.13027 0.70682 0.15001 0.0
H320 H 0.1716 0.77856 0.25319 0.0
H321 H 0.1287 0.73617 0.32219 0.0
C322 C 0.06024 0.2718 0.28835 0.0
C323 C 0.94066 0.28861 0.33076 0.0
C324 C 0.94091 0.30343 0.24465 0.0
C325 C 0.0615 0.28731 0.20244 0.0
N326 N 0.24024 0.28476 0.1834 0.0
N327 N 0.76869 0.3337 0.3503 0.0
C328 C 0.12236 0.28017 0.22412 0.0
C329 C 0.88175 0.30972 0.30907 0.0
N330 N 0.11392 0.2426 0.30908 0.0
N331 N 0.88216 0.30826 0.22365 0.0
H332 H 0.72222 0.33529 0.39765 0.0
H333 H 0.72257 0.3573 0.33795 0.0
H334 H 0.92131 0.30046 0.17744 0.0
H335 H 0.79333 0.31604 0.25184 0.0
H336 H 0.19428 0.21356 0.27974 0.0
H337 H 0.07421 0.23967 0.35577 0.0
H338 H 0.28805 0.28947 0.19748 0.0
H339 H 0.28893 0.29459 0.13618 0.0
C340 C 0.06971 0.41074 0.71595 0.0
C341 C 0.99393 0.35273 0.7195 0.0
C342 C 0.94106 0.28756 0.81373 0.0
C343 C 0.01943 0.34451 0.8089 0.0
N344 N 0.1808 0.44295 0.74678 0.0
N345 N 0.87027 0.2277 0.76533 0.0
C346 C 0.09063 0.40087 0.75728 0.0
C347 C 0.93396 0.28816 0.76631 0.0
N348 N 0.11936 0.47692 0.67412 0.0
N349 N 0.87009 0.23567 0.86483 0.0
H350 H 0.85962 0.22834 0.73276 0.0
H351 H 0.83401 0.17378 0.79404 0.0
H352 H 0.87315 0.23307 0.90023 0.0
H353 H 0.80238 0.19948 0.87468 0.0
H354 H 0.16593 0.52634 0.67353 0.0
H355 H 0.10721 0.48591 0.64252 0.0
H356 H 0.24338 0.47779 0.70646 0.0
H357 H 0.20027 0.43577 0.77546 0.0
C358 C 0.93963 0.64836 0.76566 0.0
C359 C 0.0462 0.69401 0.72437 0.0
C360 C 0.04131 0.72401 0.81011 0.0
C361 C 0.94062 0.67268 0.85002 0.0
N362 N 0.81102 0.56809 0.8619 0.0
N363 N 0.2161 0.74762 0.70548 0.0
C364 C 0.89564 0.62871 0.82636 0.0
C365 C 0.10247 0.72349 0.74593 0.0
N366 N 0.87632 0.62835 0.74891 0.0
N367 N 0.07566 0.77783 0.83304 0.0
H368 H 0.2678 0.74272 0.65783 0.0
H369 H 0.262 0.76189 0.71986 0.0
H370 H 0.03508 0.78132 0.87969 0.0
H371 H 0.13783 0.82553 0.80581 0.0
H372 H 0.79251 0.6034 0.78003 0.0
H373 H 0.90153 0.64478 0.70617 0.0
H374 H 0.78288 0.52804 0.84491 0.0
H375 H 0.77843 0.55202 0.90628 0.0
loop_
_geom_bond_atom_site_label_1
_geom_bond_atom_site_label_2
_geom_bond_distance
_geom_bond_site_symmetry_2
_ccdc_geom_bond_type
Tb0 C9 2.764 1_554 S
Tb0 O10 2.325 1_554 S
Tb0 O13 2.303 . S
Tb0 O17 2.322 . S
Tb0 O18 2.349 . S
Tb0 O21 2.415 1_554 S
Tb0 O22 2.399 1_554 S
Tb1 O11 2.322 1_554 S
Tb1 O12 2.349 . S
Tb1 O14 2.415 . S
Tb1 O15 2.399 . S
Tb1 O16 2.325 . S
Tb1 O19 2.303 . S
Tb1 C30 2.764 . S
C2 O18 1.261 . S
C2 O19 1.257 . S
C3 C6 1.358 . S
C3 C7 1.332 . S
C3 C9 1.504 . S
C4 C5 1.373 . S
C4 C8 1.308 . S
C5 C4 1.373 . S
C5 C6 1.429 . S
C5 H32 0.932 . S
C6 C3 1.358 . S
C6 C5 1.429 . S
C6 H33 0.930 . S
C7 C3 1.332 . S
C7 C8 1.394 . S
C7 H34 0.932 . S
C8 C4 1.308 . S
C8 C7 1.394 . S
C8 H35 0.929 . S
C9 Tb0 2.764 1_556 S
C9 C3 1.504 . S
C9 O21 1.239 . S
C9 O22 1.263 . S
O10 Tb0 2.325 1_556 S
O10 C20 1.236 . S
O11 Tb1 2.322 1_556 S
O11 C20 1.257 . S
O12 Tb1 2.349 . S
O12 C23 1.261 . S
O13 Tb0 2.303 . S
O13 C23 1.257 . S
O14 Tb1 2.415 . S
O14 C30 1.239 . S
O15 Tb1 2.399 . S
O15 C30 1.263 . S
O16 Tb1 2.325 . S
O16 C31 1.236 . S
O17 Tb0 2.322 . S
O17 C31 1.257 . S
O18 Tb0 2.349 . S
O18 C2 1.261 . S
O19 Tb1 2.303 . S
O19 C2 1.257 . S
C20 O10 1.236 . S
C20 O11 1.257 . S
O21 Tb0 2.415 1_556 S
O21 C9 1.239 . S
O22 Tb0 2.399 1_556 S
O22 C9 1.263 . S
C23 O12 1.261 . S
C23 O13 1.257 . S
C24 C27 1.358 . S
C24 C28 1.332 . S
C24 C30 1.504 . S
C25 C26 1.373 1_545 S
C25 C29 1.308 . S
C26 C25 1.373 1_565 S
C26 C27 1.429 1_565 S
C26 H36 0.932 . S
C27 C24 1.358 . S
C27 C26 1.429 1_545 S
C27 H37 0.930 1_545 S
C28 C24 1.332 . S
C28 C29 1.394 . S
C28 H38 0.932 . S
C29 C25 1.308 . S
C29 C28 1.394 . S
C29 H39 0.929 . S
C30 Tb1 2.764 . S
C30 O14 1.239 . S
C30 O15 1.263 . S
C30 C24 1.504 . S
C31 O16 1.236 . S
C31 O17 1.257 . S
H32 C5 0.932 . S
H33 C6 0.930 . S
H34 C7 0.932 . S
H35 C8 0.929 . S
H36 C26 0.932 . S
H37 C27 0.930 1_565 S
H38 C28 0.932 . S
H39 C29 0.929 . S
Tb40 C49 2.764 1_554 S
Tb40 O50 2.325 1_554 S
Tb40 O53 2.303 . S
Tb40 O57 2.322 . S
Tb40 O58 2.349 . S
Tb40 O61 2.415 1_554 S
Tb40 O62 2.399 1_554 S
Tb41 O51 2.322 1_554 S
Tb41 O52 2.349 . S
Tb41 O54 2.415 . S
Tb41 O55 2.399 . S
Tb41 O56 2.325 . S
Tb41 O59 2.303 . S
Tb41 C70 2.764 . S
C42 O58 1.261 . S
C42 O59 1.257 . S
C43 C46 1.358 . S
C43 C47 1.332 . S
C43 C49 1.504 . S
C44 C45 1.373 1_565 S
C44 C48 1.308 . S
C45 C44 1.373 1_545 S
C45 C46 1.429 1_545 S
C45 H72 0.932 . S
C46 C43 1.358 . S
C46 C45 1.429 1_565 S
C46 H73 0.930 1_565 S
C47 C43 1.332 . S
C47 C48 1.394 . S
C47 H74 0.932 . S
C48 C44 1.308 . S
C48 C47 1.394 . S
C48 H75 0.929 . S
C49 Tb40 2.764 1_556 S
C49 C43 1.504 . S
C49 O61 1.239 . S
C49 O62 1.263 . S
O50 Tb40 2.325 1_556 S
O50 C60 1.236 . S
O51 Tb41 2.322 1_556 S
O51 C60 1.257 . S
O52 Tb41 2.349 . S
O52 C63 1.261 . S
O53 Tb40 2.303 . S
O53 C63 1.257 . S
O54 Tb41 2.415 . S
O54 C70 1.239 . S
O55 Tb41 2.399 . S
O55 C70 1.263 . S
O56 Tb41 2.325 . S
O56 C71 1.236 . S
O57 Tb40 2.322 . S
O57 C71 1.257 . S
O58 Tb40 2.349 . S
O58 C42 1.261 . S
O59 Tb41 2.303 . S
O59 C42 1.257 . S
C60 O50 1.236 . S
C60 O51 1.257 . S
O61 Tb40 2.415 1_556 S
O61 C49 1.239 . S
O62 Tb40 2.399 1_556 S
O62 C49 1.263 . S
C63 O52 1.261 . S
C63 O53 1.257 . S
C64 C67 1.358 . S
C64 C68 1.332 . S
C64 C70 1.504 . S
C65 C66 1.373 . S
C65 C69 1.308 . S
C66 C65 1.373 . S
C66 C67 1.429 . S
C66 H76 0.932 . S
C67 C64 1.358 . S
C67 C66 1.429 . S
C67 H77 0.930 . S
C68 C64 1.332 . S
C68 C69 1.394 . S
C68 H78 0.932 . S
C69 C65 1.308 . S
C69 C68 1.394 . S
C69 H79 0.929 . S
C70 Tb41 2.764 . S
C70 O54 1.239 . S
C70 O55 1.263 . S
C70 C64 1.504 . S
C71 O56 1.236 . S
C71 O57 1.257 . S
H72 C45 0.932 . S
H73 C46 0.930 1_545 S
H74 C47 0.932 . S
H75 C48 0.929 . S
H76 C66 0.932 . S
H77 C67 0.930 . S
H78 C68 0.932 . S
H79 C69 0.929 . S
Tb80 C89 2.764 . S
Tb80 O90 2.325 . S
Tb80 O93 2.303 . S
Tb80 O97 2.322 . S
Tb80 O98 2.349 . S
Tb80 O101 2.415 . S
Tb80 O102 2.399 . S
Tb81 O91 2.322 . S
Tb81 O92 2.349 . S
Tb81 O94 2.415 . S
Tb81 O95 2.399 . S
Tb81 O96 2.325 . S
Tb81 O99 2.303 . S
Tb81 C110 2.764 . S
C82 O98 1.261 . S
C82 O99 1.257 . S
C83 C86 1.358 . S
C83 C87 1.332 . S
C83 C89 1.504 . S
C84 C85 1.373 1_565 S
C84 C88 1.308 . S
C85 C84 1.373 1_545 S
C85 C86 1.429 1_545 S
C85 H112 0.932 . S
C86 C83 1.358 . S
C86 C85 1.429 1_565 S
C86 H113 0.930 1_565 S
C87 C83 1.332 . S
C87 C88 1.394 . S
C87 H114 0.932 . S
C88 C84 1.308 . S
C88 C87 1.394 . S
C88 H115 0.929 . S
C89 Tb80 2.764 . S
C89 C83 1.504 . S
C89 O101 1.239 . S
C89 O102 1.263 . S
O90 Tb80 2.325 . S
O90 C100 1.236 . S
O91 Tb81 2.322 . S
O91 C100 1.257 . S
O92 Tb81 2.349 . S
O92 C103 1.261 . S
O93 Tb80 2.303 . S
O93 C103 1.257 . S
O94 Tb81 2.415 . S
O94 C110 1.239 . S
O95 Tb81 2.399 . S
O95 C110 1.263 . S
O96 Tb81 2.325 . S
O96 C111 1.236 . S
O97 Tb80 2.322 . S
O97 C111 1.257 . S
O98 Tb80 2.349 . S
O98 C82 1.261 . S
O99 Tb81 2.303 . S
O99 C82 1.257 . S
C100 O90 1.236 . S
C100 O91 1.257 . S
O101 Tb80 2.415 . S
O101 C89 1.239 . S
O102 Tb80 2.399 . S
O102 C89 1.263 . S
C103 O92 1.261 . S
C103 O93 1.257 . S
C104 C107 1.358 . S
C104 C108 1.332 . S
C104 C110 1.504 . S
C105 C106 1.373 . S
C105 C109 1.308 . S
C106 C105 1.373 . S
C106 C107 1.429 . S
C106 H116 0.932 . S
C107 C104 1.358 . S
C107 C106 1.429 . S
C107 H117 0.930 . S
C108 C104 1.332 . S
C108 C109 1.394 . S
C108 H118 0.932 . S
C109 C105 1.308 . S
C109 C108 1.394 . S
C109 H119 0.929 . S
C110 Tb81 2.764 . S
C110 O94 1.239 . S
C110 O95 1.263 . S
C110 C104 1.504 . S
C111 O96 1.236 . S
C111 O97 1.257 . S
H112 C85 0.932 . S
H113 C86 0.930 1_545 S
H114 C87 0.932 . S
H115 C88 0.929 . S
H116 C106 0.932 . S
H117 C107 0.930 . S
H118 C108 0.932 . S
H119 C109 0.929 . S
Tb120 C129 2.764 . S
Tb120 O130 2.325 . S
Tb120 O133 2.303 . S
Tb120 O137 2.322 . S
Tb120 O138 2.349 . S
Tb120 O141 2.415 . S
Tb120 O142 2.399 . S
Tb121 O131 2.322 . S
Tb121 O132 2.349 . S
Tb121 O134 2.415 . S
Tb121 O135 2.399 . S
Tb121 O136 2.325 . S
Tb121 O139 2.303 . S
Tb121 C150 2.764 . S
C122 O138 1.261 . S
C122 O139 1.257 . S
C123 C126 1.358 . S
C123 C127 1.332 . S
C123 C129 1.504 . S
C124 C125 1.373 . S
C124 C128 1.308 . S
C125 C124 1.373 . S
C125 C126 1.429 . S
C125 H152 0.932 . S
C126 C123 1.358 . S
C126 C125 1.429 . S
C126 H153 0.930 . S
C127 C123 1.332 . S
C127 C128 1.394 . S
C127 H154 0.932 . S
C128 C124 1.308 . S
C128 C127 1.394 . S
C128 H155 0.929 . S
C129 Tb120 2.764 . S
C129 C123 1.504 . S
C129 O141 1.239 . S
C129 O142 1.263 . S
O130 Tb120 2.325 . S
O130 C140 1.236 . S
O131 Tb121 2.322 . S
O131 C140 1.257 . S
O132 Tb121 2.349 . S
O132 C143 1.261 . S
O133 Tb120 2.303 . S
O133 C143 1.257 . S
O134 Tb121 2.415 . S
O134 C150 1.239 . S
O135 Tb121 2.399 . S
O135 C150 1.263 . S
O136 Tb121 2.325 . S
O136 C151 1.236 . S
O137 Tb120 2.322 . S
O137 C151 1.257 . S
O138 Tb120 2.349 . S
O138 C122 1.261 . S
O139 Tb121 2.303 . S
O139 C122 1.257 . S
C140 O130 1.236 . S
C140 O131 1.257 . S
O141 Tb120 2.415 . S
O141 C129 1.239 . S
O142 Tb120 2.399 . S
O142 C129 1.263 . S
C143 O132 1.261 . S
C143 O133 1.257 . S
C144 C147 1.358 . S
C144 C148 1.332 . S
C144 C150 1.504 . S
C145 C146 1.373 1_545 S
C145 C149 1.308 . S
C146 C145 1.373 1_565 S
C146 C147 1.429 1_565 S
C146 H156 0.932 . S
C147 C144 1.358 . S
C147 C146 1.429 1_545 S
C147 H157 0.930 1_545 S
C148 C144 1.332 . S
C148 C149 1.394 . S
C148 H158 0.932 . S
C149 C145 1.308 . S
C149 C148 1.394 . S
C149 H159 0.929 . S
C150 Tb121 2.764 . S
C150 O134 1.239 . S
C150 O135 1.263 . S
C150 C144 1.504 . S
C151 O136 1.236 . S
C151 O137 1.257 . S
H152 C125 0.932 . S
H153 C126 0.930 . S
H154 C127 0.932 . S
H155 C128 0.929 . S
H156 C146 0.932 . S
H157 C147 0.930 1_565 S
H158 C148 0.932 . S
H159 C149 0.929 . S
C160 C161 1.363 1_556 S
C160 C166 1.379 . S
C160 N168 1.356 . S
C161 C160 1.363 1_554 S
C161 C167 1.363 . S
C162 C163 1.363 . S
C162 C167 1.379 . S
C162 N169 1.356 . S
C163 C162 1.363 . S
C163 C166 1.363 1_554 S
N164 C166 1.356 . S
N164 H176 0.984 . S
N164 H177 0.985 . S
N165 C167 1.356 . S
N165 H170 0.984 . S
N165 H171 0.985 . S
C166 C160 1.379 . S
C166 C163 1.363 1_556 S
C166 N164 1.356 . S
C167 C161 1.363 . S
C167 C162 1.379 . S
C167 N165 1.356 . S
N168 C160 1.356 . S
N168 H174 0.984 . S
N168 H175 0.984 . S
N169 C162 1.356 . S
N169 H172 0.984 . S
N169 H173 0.985 . S
H170 N165 0.984 . S
H171 N165 0.985 . S
H172 N169 0.984 . S
H173 N169 0.985 . S
H174 N168 0.984 . S
H175 N168 0.984 . S
H176 N164 0.984 . S
H177 N164 0.985 . S
C178 C179 1.363 . S
C178 C184 1.379 . S
C178 N186 1.356 . S
C179 C178 1.363 . S
C179 C185 1.363 . S
C180 C181 1.363 . S
C180 C185 1.379 . S
C180 N187 1.356 . S
C181 C180 1.363 . S
C181 C184 1.363 . S
N182 C184 1.356 . S
N182 H194 0.984 . S
N182 H195 0.985 . S
N183 C185 1.356 . S
N183 H188 0.984 . S
N183 H189 0.985 . S
C184 C178 1.379 . S
C184 C181 1.363 . S
C184 N182 1.356 . S
C185 C179 1.363 . S
C185 C180 1.379 . S
C185 N183 1.356 . S
N186 C178 1.356 . S
N186 H192 0.984 . S
N186 H193 0.984 . S
N187 C180 1.356 . S
N187 H190 0.984 . S
N187 H191 0.985 . S
H188 N183 0.984 . S
H189 N183 0.985 . S
H190 N187 0.984 . S
H191 N187 0.985 . S
H192 N186 0.984 . S
H193 N186 0.984 . S
H194 N182 0.984 . S
H195 N182 0.985 . S
C196 C197 1.363 1_655 S
C196 C202 1.379 . S
C196 N204 1.356 . S
C197 C196 1.363 1_455 S
C197 C203 1.363 1_544 S
C198 C199 1.363 1_456 S
C198 C203 1.379 . S
C198 N205 1.356 . S
C199 C198 1.363 1_654 S
C199 C202 1.363 1_565 S
N200 C202 1.356 . S
N200 H212 0.984 . S
N200 H213 0.985 . S
N201 C203 1.356 . S
N201 H206 0.984 . S
N201 H207 0.985 . S
C202 C196 1.379 . S
C202 C199 1.363 1_545 S
C202 N200 1.356 . S
C203 C197 1.363 1_566 S
C203 C198 1.379 . S
C203 N201 1.356 . S
N204 C196 1.356 . S
N204 H210 0.984 . S
N204 H211 0.984 1_655 S
N205 C198 1.356 . S
N205 H208 0.984 1_455 S
N205 H209 0.985 . S
H206 N201 0.984 . S
H207 N201 0.985 . S
H208 N205 0.984 1_655 S
H209 N205 0.985 . S
H210 N204 0.984 . S
H211 N204 0.984 1_455 S
H212 N200 0.984 . S
H213 N200 0.985 . S
C214 C215 1.365 1_455 S
C214 C220 1.377 1_545 S
C214 N222 1.357 . S
C215 C214 1.365 1_655 S
C215 C221 1.363 . S
C216 C217 1.365 1_655 S
C216 C221 1.377 1_565 S
C216 N223 1.357 . S
C217 C216 1.365 1_455 S
C217 C220 1.363 . S
N218 C220 1.356 . S
N218 H230 0.984 . S
N218 H231 0.985 . S
N219 C221 1.356 . S
N219 H224 0.984 . S
N219 H225 0.985 . S
C220 C214 1.377 1_565 S
C220 C217 1.363 . S
C220 N218 1.356 . S
C221 C215 1.363 . S
C221 C216 1.377 1_545 S
C221 N219 1.356 . S
N222 C214 1.357 . S
N222 H228 0.984 1_545 S
N222 H229 0.984 1_455 S
N223 C216 1.357 . S
N223 H226 0.984 1_655 S
N223 H227 0.985 1_565 S
H224 N219 0.984 . S
H225 N219 0.985 . S
H226 N223 0.984 1_455 S
H227 N223 0.985 1_545 S
H228 N222 0.984 1_565 S
H229 N222 0.984 1_655 S
H230 N218 0.984 . S
H231 N218 0.985 . S
C232 C233 1.363 . S
C232 C238 1.379 . S
C232 N240 1.356 . S
C233 C232 1.363 . S
C233 C239 1.363 1_545 S
C234 C235 1.363 1_565 S
C234 C239 1.379 . S
C234 N241 1.356 . S
C235 C234 1.363 1_545 S
C235 C238 1.363 . S
N236 C238 1.356 . S
N236 H248 0.984 . S
N236 H249 0.985 . S
N237 C239 1.356 . S
N237 H242 0.984 . S
N237 H243 0.985 . S
C238 C232 1.379 . S
C238 C235 1.363 . S
C238 N236 1.356 . S
C239 C233 1.363 1_565 S
C239 C234 1.379 . S
C239 N237 1.356 . S
N240 C232 1.356 . S
N240 H246 0.984 . S
N240 H247 0.984 . S
N241 C234 1.356 . S
N241 H244 0.984 . S
N241 H245 0.985 . S
H242 N237 0.984 . S
H243 N237 0.985 . S
H244 N241 0.984 . S
H245 N241 0.985 . S
H246 N240 0.984 . S
H247 N240 0.984 . S
H248 N236 0.984 . S
H249 N236 0.985 . S
C250 C251 1.363 . S
C250 C256 1.379 . S
C250 N258 1.356 . S
C251 C250 1.363 . S
C251 C257 1.363 . S
C252 C253 1.363 . S
C252 C257 1.379 . S
C252 N259 1.356 . S
C253 C252 1.363 . S
C253 C256 1.363 . S
N254 C256 1.356 . S
N254 H266 0.984 . S
N254 H267 0.985 . S
N255 C257 1.356 . S
N255 H260 0.984 . S
N255 H261 0.985 . S
C256 C250 1.379 . S
C256 C253 1.363 . S
C256 N254 1.356 . S
C257 C251 1.363 . S
C257 C252 1.379 . S
C257 N255 1.356 . S
N258 C250 1.356 . S
N258 H264 0.984 . S
N258 H265 0.984 . S
N259 C252 1.356 . S
N259 H262 0.984 . S
N259 H263 0.985 . S
H260 N255 0.984 . S
H261 N255 0.985 . S
H262 N259 0.984 . S
H263 N259 0.985 . S
H264 N258 0.984 . S
H265 N258 0.984 . S
H266 N254 0.984 . S
H267 N254 0.985 . S
C268 C269 1.363 1_545 S
C268 C274 1.379 . S
C268 N276 1.356 . S
C269 C268 1.363 1_565 S
C269 C275 1.363 . S
C270 C271 1.363 . S
C270 C275 1.379 . S
C270 N277 1.356 . S
C271 C270 1.363 . S
C271 C274 1.363 1_565 S
N272 C274 1.356 . S
N272 H284 0.984 . S
N272 H285 0.985 . S
N273 C275 1.356 . S
N273 H278 0.984 . S
N273 H279 0.985 . S
C274 C268 1.379 . S
C274 C271 1.363 1_545 S
C274 N272 1.356 . S
C275 C269 1.363 . S
C275 C270 1.379 . S
C275 N273 1.356 . S
N276 C268 1.356 . S
N276 H282 0.984 . S
N276 H283 0.984 . S
N277 C270 1.356 . S
N277 H280 0.984 . S
N277 H281 0.985 . S
H278 N273 0.984 . S
H279 N273 0.985 . S
H280 N277 0.984 . S
H281 N277 0.985 . S
H282 N276 0.984 . S
H283 N276 0.984 . S
H284 N272 0.984 . S
H285 N272 0.985 . S
C286 C287 1.363 . S
C286 C292 1.379 . S
C286 N294 1.356 . S
C287 C286 1.363 . S
C287 C293 1.363 . S
C288 C289 1.363 . S
C288 C293 1.379 . S
C288 N295 1.356 . S
C289 C288 1.363 . S
C289 C292 1.363 . S
N290 C292 1.356 . S
N290 H302 0.984 . S
N290 H303 0.985 . S
N291 C293 1.356 . S
N291 H296 0.984 . S
N291 H297 0.985 . S
C292 C286 1.379 . S
C292 C289 1.363 . S
C292 N290 1.356 . S
C293 C287 1.363 . S
C293 C288 1.379 . S
C293 N291 1.356 . S
N294 C286 1.356 . S
N294 H300 0.984 . S
N294 H301 0.984 . S
N295 C288 1.356 . S
N295 H298 0.984 . S
N295 H299 0.985 . S
H296 N291 0.984 . S
H297 N291 0.985 . S
H298 N295 0.984 . S
H299 N295 0.985 . S
H300 N294 0.984 . S
H301 N294 0.984 . S
H302 N290 0.984 . S
H303 N290 0.985 . S
C304 C305 1.363 . S
C304 C310 1.379 . S
C304 N312 1.356 . S
C305 C304 1.363 . S
C305 C311 1.363 1_455 S
C306 C307 1.363 . S
C306 C311 1.379 . S
C306 N313 1.356 . S
C307 C306 1.363 . S
C307 C310 1.363 1_655 S
N308 C310 1.356 . S
N308 H320 0.984 . S
N308 H321 0.985 . S
N309 C311 1.356 . S
N309 H314 0.984 . S
N309 H315 0.985 . S
C310 C304 1.379 . S
C310 C307 1.363 1_455 S
C310 N308 1.356 . S
C311 C305 1.363 1_655 S
C311 C306 1.379 . S
C311 N309 1.356 . S
N312 C304 1.356 . S
N312 H318 0.984 . S
N312 H319 0.984 . S
N313 C306 1.356 . S
N313 H316 0.984 . S
N313 H317 0.985 . S
H314 N309 0.984 . S
H315 N309 0.985 . S
H316 N313 0.984 . S
H317 N313 0.985 . S
H318 N312 0.984 . S
H319 N312 0.984 . S
H320 N308 0.984 . S
H321 N308 0.985 . S
C322 C323 1.363 1_455 S
C322 C328 1.379 . S
C322 N330 1.356 . S
C323 C322 1.363 1_655 S
C323 C329 1.363 . S
C324 C325 1.363 1_655 S
C324 C329 1.379 . S
C324 N331 1.356 . S
C325 C324 1.363 1_455 S
C325 C328 1.363 . S
N326 C328 1.356 . S
N326 H338 0.984 . S
N326 H339 0.985 . S
N327 C329 1.356 . S
N327 H332 0.984 . S
N327 H333 0.985 . S
C328 C322 1.379 . S
C328 C325 1.363 . S
C328 N326 1.356 . S
C329 C323 1.363 . S
C329 C324 1.379 . S
C329 N327 1.356 . S
N330 C322 1.356 . S
N330 H336 0.984 . S
N330 H337 0.984 . S
N331 C324 1.356 . S
N331 H334 0.984 . S
N331 H335 0.985 . S
H332 N327 0.984 . S
H333 N327 0.985 . S
H334 N331 0.984 . S
H335 N331 0.985 . S
H336 N330 0.984 . S
H337 N330 0.984 . S
H338 N326 0.984 . S
H339 N326 0.985 . S
C340 C341 1.363 . S
C340 C346 1.379 . S
C340 N348 1.356 . S
C341 C340 1.363 . S
C341 C347 1.363 1_455 S
C342 C343 1.363 . S
C342 C347 1.379 . S
C342 N349 1.356 . S
C343 C342 1.363 . S
C343 C346 1.363 1_655 S
N344 C346 1.356 . S
N344 H356 0.984 . S
N344 H357 0.985 . S
N345 C347 1.356 . S
N345 H350 0.984 . S
N345 H351 0.985 . S
C346 C340 1.379 . S
C346 C343 1.363 1_455 S
C346 N344 1.356 . S
C347 C341 1.363 1_655 S
C347 C342 1.379 . S
C347 N345 1.356 . S
N348 C340 1.356 . S
N348 H354 0.984 . S
N348 H355 0.984 . S
N349 C342 1.356 . S
N349 H352 0.984 . S
N349 H353 0.985 . S
H350 N345 0.984 . S
H351 N345 0.985 . S
H352 N349 0.984 . S
H353 N349 0.985 . S
H354 N348 0.984 . S
H355 N348 0.984 . S
H356 N344 0.984 . S
H357 N344 0.985 . S
C358 C359 1.363 1_655 S
C358 C364 1.379 . S
C358 N366 1.356 . S
C359 C358 1.363 1_455 S
C359 C365 1.363 . S
C360 C361 1.363 1_455 S
C360 C365 1.379 . S
C360 N367 1.356 . S
C361 C360 1.363 1_655 S
C361 C364 1.363 . S
N362 C364 1.356 . S
N362 H374 0.984 . S
N362 H375 0.985 . S
N363 C365 1.356 . S
N363 H368 0.984 . S
N363 H369 0.985 . S
C364 C358 1.379 . S
C364 C361 1.363 . S
C364 N362 1.356 . S
C365 C359 1.363 . S
C365 C360 1.379 . S
C365 N363 1.356 . S
N366 C358 1.356 . S
N366 H372 0.984 . S
N366 H373 0.984 . S
N367 C360 1.356 . S
N367 H370 0.984 . S
N367 H371 0.985 . S
H368 N363 0.984 . S
H369 N363 0.985 . S
H370 N367 0.984 . S
H371 N367 0.985 . S
H372 N366 0.984 . S
H373 N366 0.984 . S
H374 N362 0.984 . S
H375 N362 0.985 . S
C161 C63 1.738 . S
C163 C2 1.738 . S
C179 C103 1.738 . S
C181 C122 1.738 . S
C197 C23 1.738 . S
C199 C42 1.738 . S
C215 C143 1.738 . S
C217 C82 1.738 . S
C233 C145 1.305 . S
C235 C25 1.305 . S
C251 C71 1.683 . S
C253 C111 1.683 . S
C269 C44 1.305 . S
C271 C84 1.305 . S
C287 C140 1.683 . S
C289 C20 1.683 . S
C305 C65 1.305 1_455 S
C307 C105 1.305 1_655 S
C323 C151 1.683 . S
C325 C31 1.683 . S
C341 C124 1.305 1_455 S
C343 C4 1.305 1_655 S
C359 C100 1.683 . S
C361 C60 1.683 . S
