# Generated by pormake.
# Topology umo, (4)-cn, num edge types: 1
# Building blocks:
#     Node 0, Type 0, BuildingBlock: NAWXER_clean_sbu_0, # of connection points: 4
#     Node 1, Type 0, BuildingBlock: NAWXER_clean_sbu_0, # of connection points: 4
#     Node 2, Type 0, BuildingBlock: NAWXER_clean_sbu_0, # of connection points: 4
#     Node 3, Type 0, BuildingBlock: NAWXER_clean_sbu_0, # of connection points: 4
#     Node 4, Type 0, BuildingBlock: NAWXER_clean_sbu_0, # of connection points: 4
#     Node 5, Type 0, BuildingBlock: NAWXER_clean_sbu_0, # of connection points: 4
#     Node 6, Type 0, BuildingBlock: NAWXER_clean_sbu_0, # of connection points: 4
#     Node 7, Type 0, BuildingBlock: NAWXER_clean_sbu_0, # of connection points: 4
#     Node 8, Type 0, BuildingBlock: NAWXER_clean_sbu_0, # of connection points: 4
#     Node 9, Type 0, BuildingBlock: NAWXER_clean_sbu_0, # of connection points: 4
#     Node 10, Type 0, BuildingBlock: NAWXER_clean_sbu_0, # of connection points: 4
#     Node 11, Type 0, BuildingBlock: NAWXER_clean_sbu_0, # of connection points: 4
#     Edge 12, Type (0, 0), BuildingBlock: OJICUG_clean_linker_0, # of connection points: 2
#     Edge 13, Type (0, 0), BuildingBlock: OJICUG_clean_linker_0, # of connection points: 2
#     Edge 14, Type (0, 0), BuildingBlock: OJICUG_clean_linker_0, # of connection points: 2
#     Edge 15, Type (0, 0), BuildingBlock: OJICUG_clean_linker_0, # of connection points: 2
#     Edge 16, Type (0, 0), BuildingBlock: OJICUG_clean_linker_0, # of connection points: 2
#     Edge 17, Type (0, 0), BuildingBlock: OJICUG_clean_linker_0, # of connection points: 2
#     Edge 18, Type (0, 0), BuildingBlock: OJICUG_clean_linker_0, # of connection points: 2
#     Edge 19, Type (0, 0), BuildingBlock: OJICUG_clean_linker_0, # of connection points: 2
#     Edge 20, Type (0, 0), BuildingBlock: OJICUG_clean_linker_0, # of connection points: 2
#     Edge 21, Type (0, 0), BuildingBlock: OJICUG_clean_linker_0, # of connection points: 2
#     Edge 22, Type (0, 0), BuildingBlock: OJICUG_clean_linker_0, # of connection points: 2
#     Edge 23, Type (0, 0), BuildingBlock: OJICUG_clean_linker_0, # of connection points: 2
#     Edge 24, Type (0, 0), BuildingBlock: OJICUG_clean_linker_0, # of connection points: 2
#     Edge 25, Type (0, 0), BuildingBlock: OJICUG_clean_linker_0, # of connection points: 2
#     Edge 26, Type (0, 0), BuildingBlock: OJICUG_clean_linker_0, # of connection points: 2
#     Edge 27, Type (0, 0), BuildingBlock: OJICUG_clean_linker_0, # of connection points: 2
#     Edge 28, Type (0, 0), BuildingBlock: OJICUG_clean_linker_0, # of connection points: 2
#     Edge 29, Type (0, 0), BuildingBlock: OJICUG_clean_linker_0, # of connection points: 2
#     Edge 30, Type (0, 0), BuildingBlock: OJICUG_clean_linker_0, # of connection points: 2
#     Edge 31, Type (0, 0), BuildingBlock: OJICUG_clean_linker_0, # of connection points: 2
#     Edge 32, Type (0, 0), BuildingBlock: OJICUG_clean_linker_0, # of connection points: 2
#     Edge 33, Type (0, 0), BuildingBlock: OJICUG_clean_linker_0, # of connection points: 2
#     Edge 34, Type (0, 0), BuildingBlock: OJICUG_clean_linker_0, # of connection points: 2
#     Edge 35, Type (0, 0), BuildingBlock: OJICUG_clean_linker_0, # of connection points: 2
# Relax obj value: 0.169
# Max RMSD: 0.217
# Mean RMSD: 0.217
data_MOF--net-umo--node1-NAWXER_clean_sbu_0--edge1-OJICUG_clean_linker_0
_symmetry_space_group_name_H-M    P1
_symmetry_Int_Tables_number       1
_symmetry_cell_setting            triclinic
loop_
_symmetry_equiv_pos_as_xyz
'x, y, z'
_cell_length_a     36.956252
_cell_length_b     36.709165
_cell_length_c     26.111142
_cell_angle_alpha  89.734934
_cell_angle_beta   89.940094
_cell_angle_gamma 120.20797
loop_
_atom_site_label
_atom_site_type_symbol
_atom_site_fract_x
_atom_site_fract_y
_atom_site_fract_z
_atom_type_partial_charge
C0 C 0.20471 0.6008 0.4191 0.0
C1 C 0.06211 0.49627 0.37823 0.0
O2 O 0.19367 0.56532 0.44085 0.0
Zn3 Zn 0.13997 0.50225 0.43969 0.0
O4 O 0.18059 0.60412 0.38722 0.0
Zn5 Zn 0.13515 0.5474 0.39488 0.0
O6 O 0.12067 0.5465 0.47538 0.0
O7 O 0.12664 0.4954 0.51183 0.0
O8 O 0.08391 0.53404 0.36261 0.0
O9 O 0.07901 0.48006 0.40618 0.0
O10 O 0.16271 0.46983 0.4091 0.0
O11 O 0.15854 0.51321 0.35399 0.0
C12 C 0.11907 0.5255 0.51557 0.0
C13 C 0.16833 0.48509 0.36414 0.0
C14 C 0.54972 0.07398 0.54656 0.0
C15 C 0.58826 0.21776 0.5848 0.0
O16 O 0.58313 0.09178 0.57368 0.0
Zn17 Zn 0.62223 0.15368 0.60561 0.0
O18 O 0.53362 0.09534 0.53063 0.0
Zn19 Zn 0.57185 0.14767 0.56147 0.0
O20 O 0.62913 0.17153 0.51951 0.0
O21 O 0.67711 0.17687 0.57387 0.0
O22 O 0.56051 0.19297 0.5536 0.0
O23 O 0.61285 0.20721 0.60624 0.0
O24 O 0.61631 0.14116 0.67808 0.0
O25 O 0.55896 0.13389 0.64227 0.0
C26 C 0.66713 0.182 0.52902 0.0
C27 C 0.57862 0.13303 0.68228 0.0
C28 C 0.46623 0.67533 0.69444 0.0
C29 C 0.42719 0.59009 0.85098 0.0
O30 O 0.43857 0.63672 0.68611 0.0
Zn31 Zn 0.40612 0.57948 0.73056 0.0
O32 O 0.48165 0.68633 0.73893 0.0
Zn33 Zn 0.44977 0.63204 0.77231 0.0
O34 O 0.47371 0.59322 0.7428 0.0
O35 O 0.4209 0.54142 0.70163 0.0
O36 O 0.45596 0.62836 0.84554 0.0
O37 O 0.40722 0.56893 0.81153 0.0
O38 O 0.34891 0.56448 0.72389 0.0
O39 O 0.38662 0.62181 0.76993 0.0
C40 C 0.45842 0.55891 0.7171 0.0
C41 C 0.35138 0.5944 0.75075 0.0
C42 C 0.74014 0.36729 0.91514 0.0
C43 C 0.88281 0.47449 0.87931 0.0
O44 O 0.7485 0.40275 0.93451 0.0
Zn45 Zn 0.80205 0.46635 0.9361 0.0
O46 O 0.76712 0.36486 0.88749 0.0
Zn47 Zn 0.80981 0.42231 0.89385 0.0
O48 O 0.82188 0.42333 0.97462 0.0
O49 O 0.8123 0.47254 1.00919 0.0
O50 O 0.86197 0.43681 0.86377 0.0
O51 O 0.86461 0.49014 0.9057 0.0
O52 O 0.7802 0.49862 0.90328 0.0
O53 O 0.78564 0.45508 0.85015 0.0
C54 C 0.82123 0.44346 1.01425 0.0
C55 C 0.77537 0.48306 0.85879 0.0
C56 C 0.39387 0.89403 0.0481 0.0
C57 C 0.35833 0.75114 0.08656 0.0
O58 O 0.3599 0.87549 0.07451 0.0
Zn59 Zn 0.32111 0.8127 0.10595 0.0
O60 O 0.41096 0.87341 1.03322 0.0
Zn61 Zn 0.37326 0.82097 0.064 0.0
O62 O 0.31665 0.79585 1.02024 0.0
O63 O 0.26717 0.78973 0.07293 0.0
O64 O 0.38798 0.7783 0.0588 0.0
O65 O 0.33116 0.75936 0.10543 0.0
O66 O 0.32493 0.82371 0.17891 0.0
O67 O 0.38389 0.83411 0.14443 0.0
C68 C 0.27832 0.78498 1.02862 0.0
C69 C 0.36302 0.83351 0.18394 0.0
C70 C 0.47753 0.29025 0.19629 0.0
C71 C 0.51317 0.37525 0.35152 0.0
O72 O 0.50498 0.32896 0.18781 0.0
Zn73 Zn 0.53636 0.38598 0.23152 0.0
O74 O 0.46163 0.27883 0.2407 0.0
Zn75 Zn 0.49248 0.33315 0.2736 0.0
O76 O 0.46842 0.37153 0.24228 0.0
O77 O 0.52155 0.42343 0.20081 0.0
O78 O 0.48504 0.33674 0.34656 0.0
O79 O 0.53353 0.39647 0.31195 0.0
O80 O 0.59382 0.40161 0.22615 0.0
O81 O 0.55595 0.34419 0.27283 0.0
C82 C 0.48381 0.40572 0.21582 0.0
C83 C 0.59135 0.37193 0.25388 0.0
C84 C 0.4683 0.78538 0.53727 0.0
C85 C 0.42926 0.83474 0.38413 0.0
O86 O 0.44087 0.79601 0.54685 0.0
Zn87 Zn 0.40773 0.82017 0.50496 0.0
O88 O 0.48347 0.79053 0.49243 0.0
Zn89 Zn 0.452 0.81396 0.46077 0.0
O90 O 0.47499 0.8759 0.49271 0.0
O91 O 0.42199 0.87255 0.53584 0.0
O92 O 0.45871 0.82646 0.3883 0.0
O93 O 0.40873 0.83398 0.42415 0.0
O94 O 0.35101 0.77507 0.51287 0.0
O95 O 0.38902 0.7606 0.46021 0.0
C96 C 0.45945 0.8938 0.51986 0.0
C97 C 0.35389 0.75019 0.48167 0.0
C98 C 0.57789 0.44228 0.55129 0.0
C99 C 0.6671 0.48299 0.70293 0.0
O100 O 0.55844 0.42123 0.59145 0.0
Zn101 Zn 0.57182 0.42032 0.67196 0.0
O102 O 0.61552 0.47244 0.55506 0.0
Zn103 Zn 0.62182 0.46559 0.62722 0.0
O104 O 0.61274 0.40263 0.62606 0.0
O105 O 0.56079 0.36367 0.6796 0.0
O106 O 0.67684 0.49822 0.65797 0.0
O107 O 0.62922 0.45474 0.713 0.0
O108 O 0.53367 0.43349 0.70407 0.0
O109 O 0.58276 0.48754 0.66057 0.0
C110 C 0.58836 0.36711 0.64776 0.0
C111 C 0.54956 0.47124 0.68842 0.0
C112 C 0.17123 0.67785 0.87042 0.0
C113 C 0.12149 0.59273 0.71532 0.0
O114 O 0.15982 0.6391 0.87893 0.0
Zn115 Zn 0.13394 0.58203 0.83529 0.0
O116 O 0.16675 0.68927 0.82604 0.0
Zn117 Zn 0.14307 0.6349 0.79319 0.0
O118 O 0.0806 0.59674 0.82466 0.0
O119 O 0.08168 0.54479 0.86617 0.0
O120 O 0.13202 0.63129 0.72025 0.0
O121 O 0.12055 0.5715 0.75489 0.0
O122 O 0.17558 0.56614 0.84054 0.0
O123 O 0.19531 0.62356 0.79382 0.0
C124 C 0.06173 0.56259 0.85119 0.0
C125 C 0.20285 0.59574 0.81275 0.0
C126 C 0.48377 0.07405 1.01832 0.0
C127 C 0.59095 0.21697 0.97977 0.0
O128 O 0.46832 0.09255 0.99194 0.0
Zn129 Zn 0.49224 0.15531 0.96047 0.0
O130 O 0.52146 0.0947 1.03315 0.0
Zn131 Zn 0.53615 0.14711 1.00235 0.0
O132 O 0.50457 0.17218 0.04616 0.0
O133 O 0.46121 0.17826 0.99356 0.0
O134 O 0.59348 0.18983 1.00748 0.0
O135 O 0.55558 0.20871 0.96094 0.0
O136 O 0.48514 0.14429 0.88751 0.0
O137 O 0.5337 0.13394 0.92195 0.0
C138 C 0.47709 0.18302 0.03784 0.0
C139 C 0.51345 0.1345 0.88246 0.0
C140 C 0.39317 0.494 0.18755 0.0
C141 C 0.35753 0.60105 0.15146 0.0
O142 O 0.35928 0.47826 0.16133 0.0
Zn143 Zn 0.32043 0.50192 0.13097 0.0
O144 O 0.41001 0.53174 0.20289 0.0
Zn145 Zn 0.37226 0.54612 0.1729 0.0
O146 O 0.31538 0.51348 0.21689 0.0
O147 O 0.26639 0.46972 0.16404 0.0
O148 O 0.387 0.6036 0.17901 0.0
O149 O 0.33041 0.56552 0.13232 0.0
O150 O 0.32431 0.49546 0.05791 0.0
O151 O 0.38313 0.54484 0.09206 0.0
C152 C 0.27714 0.48544 0.20844 0.0
C153 C 0.36228 0.52456 0.05259 0.0
C154 C 0.77502 0.29184 0.37165 0.0
C155 C 0.82103 0.37745 0.21535 0.0
O156 O 0.78591 0.33042 0.38012 0.0
Zn157 Zn 0.81056 0.38772 0.33589 0.0
O158 O 0.7794 0.28091 0.32706 0.0
Zn159 Zn 0.80175 0.33529 0.29386 0.0
O160 O 0.86448 0.37409 0.32335 0.0
O161 O 0.86334 0.42576 0.36477 0.0
O162 O 0.81162 0.33918 0.22058 0.0
O163 O 0.82218 0.39848 0.25494 0.0
O164 O 0.76827 0.40261 0.34288 0.0
O165 O 0.74876 0.34543 0.29653 0.0
C166 C 0.88343 0.40835 0.34916 0.0
C167 C 0.74088 0.37277 0.31592 0.0
C168 C 0.27183 0.66595 0.3982 0.0
C169 C 0.24357 0.63825 0.43485 0.0
H170 H 0.33011 0.72299 0.385 0.0
C171 C 0.25196 0.64706 0.48719 0.0
H172 H 0.26574 0.6596 0.35769 0.0
C173 C 0.28783 0.68381 0.50275 0.0
C174 C 0.31638 0.71123 0.46611 0.0
H175 H 0.23018 0.62606 0.51595 0.0
H176 H 0.29348 0.69063 0.54323 0.0
C177 C 0.30847 0.70189 0.4138 0.0
C178 C 0.59043 0.26565 0.65284 0.0
C179 C 0.58978 0.25674 0.60048 0.0
H180 H 0.58933 0.30758 0.70905 0.0
C181 C 0.58947 0.2846 0.5639 0.0
H182 H 0.59034 0.24421 0.68158 0.0
C183 C 0.59034 0.32135 0.57958 0.0
C184 C 0.58994 0.32973 0.63195 0.0
H185 H 0.58892 0.27812 0.52338 0.0
H186 H 0.59015 0.34266 0.55084 0.0
C187 C 0.58971 0.30159 0.66852 0.0
C188 C 0.27862 0.63396 0.78884 0.0
C189 C 0.24129 0.59588 0.79804 0.0
H190 H 0.34339 0.66332 0.76718 0.0
C191 C 0.24015 0.55753 0.79012 0.0
H192 H 0.28008 0.66389 0.79446 0.0
C193 C 0.27569 0.55721 0.77282 0.0
C194 C 0.31325 0.59523 0.76456 0.0
H195 H 0.21152 0.52777 0.79631 0.0
H196 H 0.27405 0.5272 0.76715 0.0
C197 C 0.31462 0.63363 0.77308 0.0
C198 C 0.66439 0.32971 0.93923 0.0
C199 C 0.70134 0.3288 0.92986 0.0
H200 H 0.59977 0.29429 0.96183 0.0
C201 C 0.70192 0.2913 0.93808 0.0
H202 H 0.66341 0.35844 0.93339 0.0
C203 C 0.66625 0.25534 0.95605 0.0
C204 C 0.62911 0.25597 0.9647 0.0
H205 H 0.73025 0.29003 0.93179 0.0
H206 H 0.66748 0.22676 0.9621 0.0
C207 C 0.62823 0.29325 0.95566 0.0
C208 C 0.31946 0.6749 0.1109 0.0
C209 C 0.35757 0.71218 0.10165 0.0
H210 H 0.28958 0.60978 0.13342 0.0
C211 C 0.39538 0.71288 0.11014 0.0
H212 H 0.28993 0.67382 0.10485 0.0
C213 C 0.39517 0.67699 0.12818 0.0
C214 C 0.35715 0.63948 0.13663 0.0
H215 H 0.42515 0.74146 0.10392 0.0
H216 H 0.42479 0.6783 0.13436 0.0
C217 C 0.31925 0.63851 0.12741 0.0
C218 C 0.70253 0.41012 0.29399 0.0
C219 C 0.70199 0.37204 0.30214 0.0
H220 H 0.66798 0.43974 0.27058 0.0
C221 C 0.66495 0.3337 0.29345 0.0
H222 H 0.73091 0.44009 0.29978 0.0
C223 C 0.62872 0.33349 0.27765 0.0
C224 C 0.62956 0.37164 0.26859 0.0
H225 H 0.66397 0.30397 0.29924 0.0
H226 H 0.60023 0.30361 0.27191 0.0
C227 C 0.66677 0.40992 0.27666 0.0
C228 C 0.11015 0.53288 0.65908 0.0
C229 C 0.11465 0.57314 0.66411 0.0
H230 H 0.1079 0.48614 0.60832 0.0
C231 C 0.11619 0.59553 0.61965 0.0
H232 H 0.10873 0.51464 0.69254 0.0
C233 C 0.11534 0.57892 0.57127 0.0
C234 C 0.11332 0.53973 0.56635 0.0
H235 H 0.1195 0.62651 0.62216 0.0
H236 H 0.11817 0.59772 0.5378 0.0
C237 C 0.10969 0.51645 0.61076 0.0
C238 C 0.5787 0.12448 0.7776 0.0
C239 C 0.55879 0.12727 0.73327 0.0
H240 H 0.57961 0.12387 0.85937 0.0
C241 C 0.52136 0.1283 0.73839 0.0
H242 H 0.60744 0.12347 0.775 0.0
C243 C 0.50549 0.12888 0.78684 0.0
C244 C 0.5265 0.12808 0.83119 0.0
H245 H 0.50517 0.13046 0.70499 0.0
H246 H 0.47755 0.13136 0.78947 0.0
C247 C 0.56263 0.12467 0.826 0.0
C248 C 0.3602 0.51594 0.95714 0.0
C249 C 0.38143 0.53831 1.00109 0.0
H250 H 0.35833 0.51445 0.87534 0.0
C251 C 0.41991 0.57615 0.99522 0.0
H252 H 0.33061 0.48669 0.9603 0.0
C253 C 0.4357 0.59233 0.94649 0.0
C254 C 0.41359 0.57083 0.90253 0.0
H255 H 0.43715 0.59423 1.02829 0.0
H256 H 0.46462 0.62226 0.94332 0.0
C257 C 0.37621 0.53191 0.90841 0.0
C258 C 0.82798 0.43571 0.15832 0.0
C259 C 0.82656 0.39682 0.1639 0.0
H260 H 0.82741 0.48102 0.10681 0.0
C261 C 0.82715 0.37545 0.11976 0.0
H262 H 0.82757 0.45307 0.19154 0.0
C263 C 0.82743 0.39175 0.07116 0.0
C264 C 0.82668 0.42956 0.0656 0.0
H265 H 0.82621 0.34555 0.1227 0.0
H266 H 0.82658 0.37377 0.03795 0.0
C267 C 0.82782 0.45179 0.10972 0.0
C268 C 0.36055 0.83913 0.27956 0.0
C269 C 0.38241 0.83989 0.23521 0.0
H270 H 0.35852 0.83754 0.36141 0.0
C271 C 0.42189 0.84319 0.2404 0.0
H272 H 0.33018 0.83674 0.27692 0.0
C273 C 0.43805 0.84332 0.28881 0.0
C274 C 0.4153 0.84057 0.33314 0.0
H275 H 0.43969 0.84394 0.20703 0.0
H276 H 0.46775 0.84424 0.2914 0.0
C277 C 0.37691 0.83966 0.32801 0.0
C278 C 0.50503 0.37241 0.4472 0.0
C279 C 0.52594 0.39479 0.40274 0.0
H280 H 0.50473 0.37016 0.52904 0.0
C281 C 0.56178 0.43499 0.40777 0.0
H282 H 0.47731 0.34148 0.44468 0.0
C283 C 0.57773 0.45135 0.45609 0.0
C284 C 0.55799 0.42808 0.5005 0.0
H285 H 0.57865 0.45322 0.37432 0.0
H286 H 0.60628 0.48162 0.45854 0.0
C287 C 0.52078 0.38896 0.49557 0.0
C288 C 0.95031 0.40722 0.36084 0.0
C289 C 0.92908 0.42986 0.35659 0.0
H290 H 0.00958 0.41067 0.37204 0.0
C291 C 0.95201 0.47406 0.35798 0.0
H292 H 0.93324 0.3731 0.35969 0.0
C293 C -0.00465 0.49537 0.36335 0.0
C294 C 0.01665 0.47294 0.36878 0.0
H295 H 0.93648 0.4923 0.3542 0.0
H296 H 0.01208 0.5295 0.36449 0.0
C297 C -0.00619 0.42864 0.36778 0.0
C298 C 0.52722 0.9619 0.53012 0.0
C299 C 0.48326 0.93972 0.52793 0.0
H300 H 0.58303 0.02225 0.5387 0.0
C301 C 0.46174 0.96208 0.53095 0.0
H302 H 0.54449 0.94532 0.52765 0.0
C303 C 0.48365 0.00581 0.53548 0.0
C304 C 0.52751 0.02805 0.53847 0.0
H305 H 0.42788 0.94583 0.52875 0.0
H306 H 0.46612 0.02215 0.53769 0.0
C307 C 0.54919 0.00576 0.53626 0.0
C308 C 0.46143 0.49324 0.70821 0.0
C309 C 0.48262 0.53744 0.70966 0.0
H310 H 0.46622 0.43785 0.70178 0.0
C311 C 0.52649 0.56012 0.70557 0.0
H312 H 0.42765 0.47495 0.71187 0.0
C313 C 0.54866 0.53877 0.69876 0.0
C314 C 0.5273 0.49448 0.69773 0.0
H315 H 0.54349 0.59425 0.70677 0.0
H316 H 0.58241 0.55679 0.69464 0.0
C317 C 0.48355 0.47199 0.70297 0.0
C318 C -0.0066 0.49715 0.8634 0.0
C319 C 0.01615 0.54128 0.85966 0.0
H320 H 0.93347 0.44172 0.87129 0.0
C321 C -0.00527 0.56383 0.86191 0.0
H322 H 0.00901 0.4789 0.86124 0.0
C323 C 0.95115 0.54238 0.86869 0.0
C324 C 0.9285 0.49813 0.87152 0.0
H325 H 0.01166 0.5979 0.85896 0.0
H326 H 0.93514 0.56023 0.87101 0.0
C327 C 0.95006 0.47582 0.86863 0.0
C328 C 0.48133 0.00586 1.03041 0.0
C329 C 0.45975 0.02814 1.02689 0.0
H330 H 0.47722 0.94606 0.03859 0.0
C331 C 0.41579 0.00594 1.02964 0.0
H332 H 0.51518 0.02209 1.02785 0.0
C333 C 0.39389 0.96209 0.03679 0.0
C334 C 0.4157 0.93994 0.03954 0.0
H335 H 0.39849 0.02248 1.02685 0.0
H336 H 0.36005 0.94551 0.03957 0.0
C337 C 0.45955 0.96225 0.03603 0.0
C338 C 0.45905 0.49261 0.19836 0.0
C339 C 0.41519 0.47034 0.19543 0.0
H340 H 0.51486 0.48945 0.2058 0.0
C341 C 0.39356 0.42609 0.19829 0.0
H342 H 0.47658 0.52671 0.19569 0.0
C343 C 0.41564 0.4046 0.2051 0.0
C344 C 0.45961 0.42711 0.20738 0.0
H345 H 0.35971 0.40827 0.19595 0.0
H346 H 0.39848 0.37053 0.20806 0.0
C347 C 0.48101 0.47124 0.20363 0.0
C348 C 0.2281 0.47562 0.3386 0.0
C349 C 0.19123 0.47546 0.32522 0.0
H350 H 0.28488 0.4796 0.31159 0.0
C351 C 0.18033 0.47293 0.27332 0.0
H352 H 0.23744 0.47812 0.37834 0.0
C353 C 0.2068 0.47249 0.23527 0.0
C354 C 0.24532 0.47612 0.24847 0.0
H355 H 0.15218 0.47307 0.2621 0.0
H356 H 0.19855 0.47243 0.19546 0.0
C357 C 0.25529 0.47667 0.30048 0.0
C358 C 0.71737 0.22097 0.39927 0.0
C359 C 0.75251 0.25985 0.41199 0.0
H360 H 0.66219 0.1658 0.42688 0.0
C361 C 0.7623 0.26995 0.46387 0.0
H362 H 0.70888 0.2126 0.35958 0.0
C363 C 0.73633 0.24251 0.50236 0.0
C364 C 0.6994 0.20524 0.48952 0.0
H365 H 0.78917 0.2998 0.47463 0.0
H366 H 0.74351 0.25194 0.54202 0.0
C367 C 0.69063 0.19425 0.4377 0.0
C368 C 0.47944 0.74621 0.66688 0.0
C369 C 0.47557 0.70727 0.65409 0.0
H370 H 0.4796 0.8015 0.63942 0.0
C371 C 0.4751 0.69712 0.60218 0.0
H372 H 0.47945 0.75462 0.7066 0.0
C373 C 0.47661 0.72461 0.56375 0.0
C374 C 0.47714 0.76198 0.57669 0.0
H375 H 0.47201 0.66723 0.59136 0.0
H376 H 0.47426 0.71516 0.52409 0.0
C377 C 0.47946 0.77298 0.62852 0.0
C378 C 0.76269 0.49232 0.76684 0.0
C379 C 0.75292 0.49243 0.81883 0.0
H380 H 0.7437 0.49107 0.68893 0.0
C381 C 0.7177 0.49552 0.832 0.0
H382 H 0.78961 0.48981 0.75576 0.0
C383 C 0.69082 0.49495 0.7939 0.0
C384 C 0.69953 0.49281 0.74199 0.0
H385 H 0.70924 0.49523 0.8718 0.0
H386 H 0.66229 0.49438 0.80506 0.0
C387 C 0.73657 0.49325 0.72867 0.0
C388 C 0.20899 0.72582 1.00099 0.0
C389 C 0.24697 0.76225 0.98843 0.0
H390 H 0.15528 0.66988 0.97296 0.0
C391 C 0.2571 0.77326 0.93665 0.0
H392 H 0.20072 0.71642 0.04064 0.0
C393 C 0.23049 0.74735 0.89802 0.0
C394 C 0.1941 0.70929 0.91059 0.0
H395 H 0.28632 0.80112 0.92606 0.0
H396 H 0.23985 0.75564 0.85838 0.0
C397 C 0.18312 0.69916 0.96237 0.0
C398 C 0.46813 0.26907 0.10429 0.0
C399 C 0.4688 0.25881 0.15604 0.0
H400 H 0.46851 0.25187 1.02598 0.0
C401 C 0.4668 0.22058 0.16851 0.0
H402 H 0.46981 0.29847 0.09378 0.0
C403 C 0.46739 0.19463 0.12981 0.0
C404 C 0.46847 0.20576 0.07806 0.0
H405 H 0.46774 0.21218 0.20812 0.0
H406 H 0.46853 0.16664 0.14032 0.0
C407 C 0.46722 0.24237 0.06559 0.0
loop_
_geom_bond_atom_site_label_1
_geom_bond_atom_site_label_2
_geom_bond_distance
_geom_bond_site_symmetry_2
_ccdc_geom_bond_type
C0 O2 1.247 . S
C0 O4 1.258 . S
C1 O8 1.247 . S
C1 O9 1.258 . S
O2 C0 1.247 . S
O2 Zn3 2.028 . S
Zn3 O2 2.028 . S
Zn3 O7 2.035 . S
Zn3 O9 2.035 . S
Zn3 O10 2.028 . S
O4 C0 1.258 . S
O4 Zn5 2.035 . S
Zn5 O4 2.035 . S
Zn5 O6 2.028 . S
Zn5 O8 2.028 . S
Zn5 O11 2.035 . S
O6 Zn5 2.028 . S
O6 C12 1.247 . S
O7 Zn3 2.035 . S
O7 C12 1.258 . S
O8 C1 1.247 . S
O8 Zn5 2.028 . S
O9 C1 1.258 . S
O9 Zn3 2.035 . S
O10 Zn3 2.028 . S
O10 C13 1.247 . S
O11 Zn5 2.035 . S
O11 C13 1.258 . S
C12 O6 1.247 . S
C12 O7 1.258 . S
C13 O10 1.247 . S
C13 O11 1.258 . S
C14 O16 1.247 . S
C14 O18 1.258 . S
C15 O22 1.247 . S
C15 O23 1.258 . S
O16 C14 1.247 . S
O16 Zn17 2.028 . S
Zn17 O16 2.028 . S
Zn17 O21 2.035 . S
Zn17 O23 2.035 . S
Zn17 O24 2.028 . S
O18 C14 1.258 . S
O18 Zn19 2.035 . S
Zn19 O18 2.035 . S
Zn19 O20 2.028 . S
Zn19 O22 2.028 . S
Zn19 O25 2.035 . S
O20 Zn19 2.028 . S
O20 C26 1.247 . S
O21 Zn17 2.035 . S
O21 C26 1.258 . S
O22 C15 1.247 . S
O22 Zn19 2.028 . S
O23 C15 1.258 . S
O23 Zn17 2.035 . S
O24 Zn17 2.028 . S
O24 C27 1.247 . S
O25 Zn19 2.035 . S
O25 C27 1.258 . S
C26 O20 1.247 . S
C26 O21 1.258 . S
C27 O24 1.247 . S
C27 O25 1.258 . S
C28 O30 1.247 . S
C28 O32 1.258 . S
C29 O36 1.247 . S
C29 O37 1.258 . S
O30 C28 1.247 . S
O30 Zn31 2.028 . S
Zn31 O30 2.028 . S
Zn31 O35 2.035 . S
Zn31 O37 2.035 . S
Zn31 O38 2.028 . S
O32 C28 1.258 . S
O32 Zn33 2.035 . S
Zn33 O32 2.035 . S
Zn33 O34 2.028 . S
Zn33 O36 2.028 . S
Zn33 O39 2.035 . S
O34 Zn33 2.028 . S
O34 C40 1.247 . S
O35 Zn31 2.035 . S
O35 C40 1.258 . S
O36 C29 1.247 . S
O36 Zn33 2.028 . S
O37 C29 1.258 . S
O37 Zn31 2.035 . S
O38 Zn31 2.028 . S
O38 C41 1.247 . S
O39 Zn33 2.035 . S
O39 C41 1.258 . S
C40 O34 1.247 . S
C40 O35 1.258 . S
C41 O38 1.247 . S
C41 O39 1.258 . S
C42 O44 1.247 . S
C42 O46 1.258 . S
C43 O50 1.247 . S
C43 O51 1.258 . S
O44 C42 1.247 . S
O44 Zn45 2.028 . S
Zn45 O44 2.028 . S
Zn45 O49 2.035 . S
Zn45 O51 2.035 . S
Zn45 O52 2.028 . S
O46 C42 1.258 . S
O46 Zn47 2.035 . S
Zn47 O46 2.035 . S
Zn47 O48 2.028 . S
Zn47 O50 2.028 . S
Zn47 O53 2.035 . S
O48 Zn47 2.028 . S
O48 C54 1.247 . S
O49 Zn45 2.035 . S
O49 C54 1.258 . S
O50 C43 1.247 . S
O50 Zn47 2.028 . S
O51 C43 1.258 . S
O51 Zn45 2.035 . S
O52 Zn45 2.028 . S
O52 C55 1.247 . S
O53 Zn47 2.035 . S
O53 C55 1.258 . S
C54 O48 1.247 . S
C54 O49 1.258 . S
C55 O52 1.247 . S
C55 O53 1.258 . S
C56 O58 1.247 . S
C56 O60 1.258 . S
C57 O64 1.247 . S
C57 O65 1.258 . S
O58 C56 1.247 . S
O58 Zn59 2.028 . S
Zn59 O58 2.028 . S
Zn59 O63 2.035 . S
Zn59 O65 2.035 . S
Zn59 O66 2.028 . S
O60 C56 1.258 . S
O60 Zn61 2.035 . S
Zn61 O60 2.035 . S
Zn61 O62 2.028 1_554 S
Zn61 O64 2.028 . S
Zn61 O67 2.035 . S
O62 Zn61 2.028 1_556 S
O62 C68 1.247 . S
O63 Zn59 2.035 . S
O63 C68 1.258 1_554 S
O64 C57 1.247 . S
O64 Zn61 2.028 . S
O65 C57 1.258 . S
O65 Zn59 2.035 . S
O66 Zn59 2.028 . S
O66 C69 1.247 . S
O67 Zn61 2.035 . S
O67 C69 1.258 . S
C68 O62 1.247 . S
C68 O63 1.258 1_556 S
C69 O66 1.247 . S
C69 O67 1.258 . S
C70 O72 1.247 . S
C70 O74 1.258 . S
C71 O78 1.247 . S
C71 O79 1.258 . S
O72 C70 1.247 . S
O72 Zn73 2.028 . S
Zn73 O72 2.028 . S
Zn73 O77 2.035 . S
Zn73 O79 2.035 . S
Zn73 O80 2.028 . S
O74 C70 1.258 . S
O74 Zn75 2.035 . S
Zn75 O74 2.035 . S
Zn75 O76 2.028 . S
Zn75 O78 2.028 . S
Zn75 O81 2.035 . S
O76 Zn75 2.028 . S
O76 C82 1.247 . S
O77 Zn73 2.035 . S
O77 C82 1.258 . S
O78 C71 1.247 . S
O78 Zn75 2.028 . S
O79 C71 1.258 . S
O79 Zn73 2.035 . S
O80 Zn73 2.028 . S
O80 C83 1.247 . S
O81 Zn75 2.035 . S
O81 C83 1.258 . S
C82 O76 1.247 . S
C82 O77 1.258 . S
C83 O80 1.247 . S
C83 O81 1.258 . S
C84 O86 1.247 . S
C84 O88 1.258 . S
C85 O92 1.247 . S
C85 O93 1.258 . S
O86 C84 1.247 . S
O86 Zn87 2.028 . S
Zn87 O86 2.028 . S
Zn87 O91 2.035 . S
Zn87 O93 2.035 . S
Zn87 O94 2.028 . S
O88 C84 1.258 . S
O88 Zn89 2.035 . S
Zn89 O88 2.035 . S
Zn89 O90 2.028 . S
Zn89 O92 2.028 . S
Zn89 O95 2.035 . S
O90 Zn89 2.028 . S
O90 C96 1.247 . S
O91 Zn87 2.035 . S
O91 C96 1.258 . S
O92 C85 1.247 . S
O92 Zn89 2.028 . S
O93 C85 1.258 . S
O93 Zn87 2.035 . S
O94 Zn87 2.028 . S
O94 C97 1.247 . S
O95 Zn89 2.035 . S
O95 C97 1.258 . S
C96 O90 1.247 . S
C96 O91 1.258 . S
C97 O94 1.247 . S
C97 O95 1.258 . S
C98 O100 1.247 . S
C98 O102 1.258 . S
C99 O106 1.247 . S
C99 O107 1.258 . S
O100 C98 1.247 . S
O100 Zn101 2.028 . S
Zn101 O100 2.028 . S
Zn101 O105 2.035 . S
Zn101 O107 2.035 . S
Zn101 O108 2.028 . S
O102 C98 1.258 . S
O102 Zn103 2.035 . S
Zn103 O102 2.035 . S
Zn103 O104 2.028 . S
Zn103 O106 2.028 . S
Zn103 O109 2.035 . S
O104 Zn103 2.028 . S
O104 C110 1.247 . S
O105 Zn101 2.035 . S
O105 C110 1.258 . S
O106 C99 1.247 . S
O106 Zn103 2.028 . S
O107 C99 1.258 . S
O107 Zn101 2.035 . S
O108 Zn101 2.028 . S
O108 C111 1.247 . S
O109 Zn103 2.035 . S
O109 C111 1.258 . S
C110 O104 1.247 . S
C110 O105 1.258 . S
C111 O108 1.247 . S
C111 O109 1.258 . S
C112 O114 1.247 . S
C112 O116 1.258 . S
C113 O120 1.247 . S
C113 O121 1.258 . S
O114 C112 1.247 . S
O114 Zn115 2.028 . S
Zn115 O114 2.028 . S
Zn115 O119 2.035 . S
Zn115 O121 2.035 . S
Zn115 O122 2.028 . S
O116 C112 1.258 . S
O116 Zn117 2.035 . S
Zn117 O116 2.035 . S
Zn117 O118 2.028 . S
Zn117 O120 2.028 . S
Zn117 O123 2.035 . S
O118 Zn117 2.028 . S
O118 C124 1.247 . S
O119 Zn115 2.035 . S
O119 C124 1.258 . S
O120 C113 1.247 . S
O120 Zn117 2.028 . S
O121 C113 1.258 . S
O121 Zn115 2.035 . S
O122 Zn115 2.028 . S
O122 C125 1.247 . S
O123 Zn117 2.035 . S
O123 C125 1.258 . S
C124 O118 1.247 . S
C124 O119 1.258 . S
C125 O122 1.247 . S
C125 O123 1.258 . S
C126 O128 1.247 . S
C126 O130 1.258 . S
C127 O134 1.247 . S
C127 O135 1.258 . S
O128 C126 1.247 . S
O128 Zn129 2.028 . S
Zn129 O128 2.028 . S
Zn129 O133 2.035 . S
Zn129 O135 2.035 . S
Zn129 O136 2.028 . S
O130 C126 1.258 . S
O130 Zn131 2.035 . S
Zn131 O130 2.035 . S
Zn131 O132 2.028 1_556 S
Zn131 O134 2.028 . S
Zn131 O137 2.035 . S
O132 Zn131 2.028 1_554 S
O132 C138 1.247 . S
O133 Zn129 2.035 . S
O133 C138 1.258 1_556 S
O134 C127 1.247 . S
O134 Zn131 2.028 . S
O135 C127 1.258 . S
O135 Zn129 2.035 . S
O136 Zn129 2.028 . S
O136 C139 1.247 . S
O137 Zn131 2.035 . S
O137 C139 1.258 . S
C138 O132 1.247 . S
C138 O133 1.258 1_554 S
C139 O136 1.247 . S
C139 O137 1.258 . S
C140 O142 1.247 . S
C140 O144 1.258 . S
C141 O148 1.247 . S
C141 O149 1.258 . S
O142 C140 1.247 . S
O142 Zn143 2.028 . S
Zn143 O142 2.028 . S
Zn143 O147 2.035 . S
Zn143 O149 2.035 . S
Zn143 O150 2.028 . S
O144 C140 1.258 . S
O144 Zn145 2.035 . S
Zn145 O144 2.035 . S
Zn145 O146 2.028 . S
Zn145 O148 2.028 . S
Zn145 O151 2.035 . S
O146 Zn145 2.028 . S
O146 C152 1.247 . S
O147 Zn143 2.035 . S
O147 C152 1.258 . S
O148 C141 1.247 . S
O148 Zn145 2.028 . S
O149 C141 1.258 . S
O149 Zn143 2.035 . S
O150 Zn143 2.028 . S
O150 C153 1.247 . S
O151 Zn145 2.035 . S
O151 C153 1.258 . S
C152 O146 1.247 . S
C152 O147 1.258 . S
C153 O150 1.247 . S
C153 O151 1.258 . S
C154 O156 1.247 . S
C154 O158 1.258 . S
C155 O162 1.247 . S
C155 O163 1.258 . S
O156 C154 1.247 . S
O156 Zn157 2.028 . S
Zn157 O156 2.028 . S
Zn157 O161 2.035 . S
Zn157 O163 2.035 . S
Zn157 O164 2.028 . S
O158 C154 1.258 . S
O158 Zn159 2.035 . S
Zn159 O158 2.035 . S
Zn159 O160 2.028 . S
Zn159 O162 2.028 . S
Zn159 O165 2.035 . S
O160 Zn159 2.028 . S
O160 C166 1.247 . S
O161 Zn157 2.035 . S
O161 C166 1.258 . S
O162 C155 1.247 . S
O162 Zn159 2.028 . S
O163 C155 1.258 . S
O163 Zn157 2.035 . S
O164 Zn157 2.028 . S
O164 C167 1.247 . S
O165 Zn159 2.035 . S
O165 C167 1.258 . S
C166 O160 1.247 . S
C166 O161 1.258 . S
C167 O164 1.247 . S
C167 O165 1.258 . S
C168 C169 1.387 . S
C168 H172 0.950 . S
C168 C177 1.390 . S
C169 C168 1.387 . S
C169 C171 1.387 . S
H170 C177 0.950 . S
C171 C169 1.387 . S
C171 C173 1.390 . S
C171 H175 0.950 . S
H172 C168 0.950 . S
C173 C171 1.390 . S
C173 C174 1.387 . S
C173 H176 0.950 . S
C174 C173 1.387 . S
C174 C177 1.387 . S
H175 C171 0.950 . S
H176 C173 0.950 . S
C177 C168 1.390 . S
C177 H170 0.950 . S
C177 C174 1.387 . S
C178 C179 1.387 . S
C178 H182 0.950 . S
C178 C187 1.390 . S
C179 C178 1.387 . S
C179 C181 1.387 . S
H180 C187 0.950 . S
C181 C179 1.387 . S
C181 C183 1.390 . S
C181 H185 0.950 . S
H182 C178 0.950 . S
C183 C181 1.390 . S
C183 C184 1.387 . S
C183 H186 0.950 . S
C184 C183 1.387 . S
C184 C187 1.387 . S
H185 C181 0.950 . S
H186 C183 0.950 . S
C187 C178 1.390 . S
C187 H180 0.950 . S
C187 C184 1.387 . S
C188 C189 1.387 . S
C188 H192 0.950 . S
C188 C197 1.390 . S
C189 C188 1.387 . S
C189 C191 1.387 . S
H190 C197 0.950 . S
C191 C189 1.387 . S
C191 C193 1.390 . S
C191 H195 0.950 . S
H192 C188 0.950 . S
C193 C191 1.390 . S
C193 C194 1.387 . S
C193 H196 0.950 . S
C194 C193 1.387 . S
C194 C197 1.387 . S
H195 C191 0.950 . S
H196 C193 0.950 . S
C197 C188 1.390 . S
C197 H190 0.950 . S
C197 C194 1.387 . S
C198 C199 1.387 . S
C198 H202 0.950 . S
C198 C207 1.390 . S
C199 C198 1.387 . S
C199 C201 1.387 . S
H200 C207 0.950 . S
C201 C199 1.387 . S
C201 C203 1.390 . S
C201 H205 0.950 . S
H202 C198 0.950 . S
C203 C201 1.390 . S
C203 C204 1.387 . S
C203 H206 0.950 . S
C204 C203 1.387 . S
C204 C207 1.387 . S
H205 C201 0.950 . S
H206 C203 0.950 . S
C207 C198 1.390 . S
C207 H200 0.950 . S
C207 C204 1.387 . S
C208 C209 1.387 . S
C208 H212 0.950 . S
C208 C217 1.390 . S
C209 C208 1.387 . S
C209 C211 1.387 . S
H210 C217 0.950 . S
C211 C209 1.387 . S
C211 C213 1.390 . S
C211 H215 0.950 . S
H212 C208 0.950 . S
C213 C211 1.390 . S
C213 C214 1.387 . S
C213 H216 0.950 . S
C214 C213 1.387 . S
C214 C217 1.387 . S
H215 C211 0.950 . S
H216 C213 0.950 . S
C217 C208 1.390 . S
C217 H210 0.950 . S
C217 C214 1.387 . S
C218 C219 1.387 . S
C218 H222 0.950 . S
C218 C227 1.390 . S
C219 C218 1.387 . S
C219 C221 1.387 . S
H220 C227 0.950 . S
C221 C219 1.387 . S
C221 C223 1.390 . S
C221 H225 0.950 . S
H222 C218 0.950 . S
C223 C221 1.390 . S
C223 C224 1.387 . S
C223 H226 0.950 . S
C224 C223 1.387 . S
C224 C227 1.387 . S
H225 C221 0.950 . S
H226 C223 0.950 . S
C227 C218 1.390 . S
C227 H220 0.950 . S
C227 C224 1.387 . S
C228 C229 1.387 . S
C228 H232 0.950 . S
C228 C237 1.390 . S
C229 C228 1.387 . S
C229 C231 1.387 . S
H230 C237 0.950 . S
C231 C229 1.387 . S
C231 C233 1.390 . S
C231 H235 0.950 . S
H232 C228 0.950 . S
C233 C231 1.390 . S
C233 C234 1.387 . S
C233 H236 0.950 . S
C234 C233 1.387 . S
C234 C237 1.387 . S
H235 C231 0.950 . S
H236 C233 0.950 . S
C237 C228 1.390 . S
C237 H230 0.950 . S
C237 C234 1.387 . S
C238 C239 1.387 . S
C238 H242 0.950 . S
C238 C247 1.390 . S
C239 C238 1.387 . S
C239 C241 1.387 . S
H240 C247 0.950 . S
C241 C239 1.387 . S
C241 C243 1.390 . S
C241 H245 0.950 . S
H242 C238 0.950 . S
C243 C241 1.390 . S
C243 C244 1.387 . S
C243 H246 0.950 . S
C244 C243 1.387 . S
C244 C247 1.387 . S
H245 C241 0.950 . S
H246 C243 0.950 . S
C247 C238 1.390 . S
C247 H240 0.950 . S
C247 C244 1.387 . S
C248 C249 1.387 . S
C248 H252 0.950 . S
C248 C257 1.390 . S
C249 C248 1.387 . S
C249 C251 1.387 . S
H250 C257 0.950 . S
C251 C249 1.387 . S
C251 C253 1.390 . S
C251 H255 0.950 . S
H252 C248 0.950 . S
C253 C251 1.390 . S
C253 C254 1.387 . S
C253 H256 0.950 . S
C254 C253 1.387 . S
C254 C257 1.387 . S
H255 C251 0.950 . S
H256 C253 0.950 . S
C257 C248 1.390 . S
C257 H250 0.950 . S
C257 C254 1.387 . S
C258 C259 1.387 . S
C258 H262 0.950 . S
C258 C267 1.390 . S
C259 C258 1.387 . S
C259 C261 1.387 . S
H260 C267 0.950 . S
C261 C259 1.387 . S
C261 C263 1.390 . S
C261 H265 0.950 . S
H262 C258 0.950 . S
C263 C261 1.390 . S
C263 C264 1.387 . S
C263 H266 0.950 . S
C264 C263 1.387 . S
C264 C267 1.387 . S
H265 C261 0.950 . S
H266 C263 0.950 . S
C267 C258 1.390 . S
C267 H260 0.950 . S
C267 C264 1.387 . S
C268 C269 1.387 . S
C268 H272 0.950 . S
C268 C277 1.390 . S
C269 C268 1.387 . S
C269 C271 1.387 . S
H270 C277 0.950 . S
C271 C269 1.387 . S
C271 C273 1.390 . S
C271 H275 0.950 . S
H272 C268 0.950 . S
C273 C271 1.390 . S
C273 C274 1.387 . S
C273 H276 0.950 . S
C274 C273 1.387 . S
C274 C277 1.387 . S
H275 C271 0.950 . S
H276 C273 0.950 . S
C277 C268 1.390 . S
C277 H270 0.950 . S
C277 C274 1.387 . S
C278 C279 1.387 . S
C278 H282 0.950 . S
C278 C287 1.390 . S
C279 C278 1.387 . S
C279 C281 1.387 . S
H280 C287 0.950 . S
C281 C279 1.387 . S
C281 C283 1.390 . S
C281 H285 0.950 . S
H282 C278 0.950 . S
C283 C281 1.390 . S
C283 C284 1.387 . S
C283 H286 0.950 . S
C284 C283 1.387 . S
C284 C287 1.387 . S
H285 C281 0.950 . S
H286 C283 0.950 . S
C287 C278 1.390 . S
C287 H280 0.950 . S
C287 C284 1.387 . S
C288 C289 1.387 . S
C288 H292 0.950 . S
C288 C297 1.390 1_655 S
C289 C288 1.387 . S
C289 C291 1.387 . S
H290 C297 0.950 . S
C291 C289 1.387 . S
C291 C293 1.390 1_655 S
C291 H295 0.950 . S
H292 C288 0.950 . S
C293 C291 1.390 1_455 S
C293 C294 1.387 . S
C293 H296 0.950 . S
C294 C293 1.387 . S
C294 C297 1.387 . S
H295 C291 0.950 . S
H296 C293 0.950 . S
C297 C288 1.390 1_455 S
C297 H290 0.950 . S
C297 C294 1.387 . S
C298 C299 1.387 . S
C298 H302 0.950 . S
C298 C307 1.390 1_565 S
C299 C298 1.387 . S
C299 C301 1.387 . S
H300 C307 0.950 . S
C301 C299 1.387 . S
C301 C303 1.390 1_565 S
C301 H305 0.950 . S
H302 C298 0.950 . S
C303 C301 1.390 1_545 S
C303 C304 1.387 . S
C303 H306 0.950 . S
C304 C303 1.387 . S
C304 C307 1.387 . S
H305 C301 0.950 . S
H306 C303 0.950 . S
C307 C298 1.390 1_545 S
C307 H300 0.950 . S
C307 C304 1.387 . S
C308 C309 1.387 . S
C308 H312 0.950 . S
C308 C317 1.390 . S
C309 C308 1.387 . S
C309 C311 1.387 . S
H310 C317 0.950 . S
C311 C309 1.387 . S
C311 C313 1.390 . S
C311 H315 0.950 . S
H312 C308 0.950 . S
C313 C311 1.390 . S
C313 C314 1.387 . S
C313 H316 0.950 . S
C314 C313 1.387 . S
C314 C317 1.387 . S
H315 C311 0.950 . S
H316 C313 0.950 . S
C317 C308 1.390 . S
C317 H310 0.950 . S
C317 C314 1.387 . S
C318 C319 1.391 . S
C318 H322 0.948 . S
C318 C327 1.384 1_455 S
C319 C318 1.391 . S
C319 C321 1.387 . S
H320 C327 0.950 . S
C321 C319 1.387 . S
C321 C323 1.384 1_455 S
C321 H325 0.950 . S
H322 C318 0.948 . S
C323 C321 1.384 1_655 S
C323 C324 1.391 . S
C323 H326 0.948 . S
C324 C323 1.391 . S
C324 C327 1.387 . S
H325 C321 0.950 . S
H326 C323 0.948 . S
C327 C318 1.384 1_655 S
C327 H320 0.950 . S
C327 C324 1.387 . S
C328 C329 1.387 . S
C328 H332 0.950 . S
C328 C337 1.390 1_546 S
C329 C328 1.387 . S
C329 C331 1.387 . S
H330 C337 0.950 . S
C331 C329 1.387 . S
C331 C333 1.390 1_546 S
C331 H335 0.950 . S
H332 C328 0.950 . S
C333 C331 1.390 1_564 S
C333 C334 1.387 . S
C333 H336 0.950 . S
C334 C333 1.387 . S
C334 C337 1.387 . S
H335 C331 0.950 . S
H336 C333 0.950 . S
C337 C328 1.390 1_564 S
C337 H330 0.950 . S
C337 C334 1.387 . S
C338 C339 1.387 . S
C338 H342 0.950 . S
C338 C347 1.390 . S
C339 C338 1.387 . S
C339 C341 1.387 . S
H340 C347 0.950 . S
C341 C339 1.387 . S
C341 C343 1.390 . S
C341 H345 0.950 . S
H342 C338 0.950 . S
C343 C341 1.390 . S
C343 C344 1.387 . S
C343 H346 0.950 . S
C344 C343 1.387 . S
C344 C347 1.387 . S
H345 C341 0.950 . S
H346 C343 0.950 . S
C347 C338 1.390 . S
C347 H340 0.950 . S
C347 C344 1.387 . S
C348 C349 1.387 . S
C348 H352 0.950 . S
C348 C357 1.390 . S
C349 C348 1.387 . S
C349 C351 1.387 . S
H350 C357 0.950 . S
C351 C349 1.387 . S
C351 C353 1.390 . S
C351 H355 0.950 . S
H352 C348 0.950 . S
C353 C351 1.390 . S
C353 C354 1.387 . S
C353 H356 0.950 . S
C354 C353 1.387 . S
C354 C357 1.387 . S
H355 C351 0.950 . S
H356 C353 0.950 . S
C357 C348 1.390 . S
C357 H350 0.950 . S
C357 C354 1.387 . S
C358 C359 1.387 . S
C358 H362 0.950 . S
C358 C367 1.390 . S
C359 C358 1.387 . S
C359 C361 1.387 . S
H360 C367 0.950 . S
C361 C359 1.387 . S
C361 C363 1.390 . S
C361 H365 0.950 . S
H362 C358 0.950 . S
C363 C361 1.390 . S
C363 C364 1.387 . S
C363 H366 0.950 . S
C364 C363 1.387 . S
C364 C367 1.387 . S
H365 C361 0.950 . S
H366 C363 0.950 . S
C367 C358 1.390 . S
C367 H360 0.950 . S
C367 C364 1.387 . S
C368 C369 1.387 . S
C368 H372 0.950 . S
C368 C377 1.390 . S
C369 C368 1.387 . S
C369 C371 1.387 . S
H370 C377 0.950 . S
C371 C369 1.387 . S
C371 C373 1.390 . S
C371 H375 0.950 . S
H372 C368 0.950 . S
C373 C371 1.390 . S
C373 C374 1.387 . S
C373 H376 0.950 . S
C374 C373 1.387 . S
C374 C377 1.387 . S
H375 C371 0.950 . S
H376 C373 0.950 . S
C377 C368 1.390 . S
C377 H370 0.950 . S
C377 C374 1.387 . S
C378 C379 1.387 . S
C378 H382 0.950 . S
C378 C387 1.390 . S
C379 C378 1.387 . S
C379 C381 1.387 . S
H380 C387 0.950 . S
C381 C379 1.387 . S
C381 C383 1.390 . S
C381 H385 0.950 . S
H382 C378 0.950 . S
C383 C381 1.390 . S
C383 C384 1.387 . S
C383 H386 0.950 . S
C384 C383 1.387 . S
C384 C387 1.387 . S
H385 C381 0.950 . S
H386 C383 0.950 . S
C387 C378 1.390 . S
C387 H380 0.950 . S
C387 C384 1.387 . S
C388 C389 1.387 . S
C388 H392 0.950 . S
C388 C397 1.390 . S
C389 C388 1.387 . S
C389 C391 1.387 . S
H390 C397 0.950 . S
C391 C389 1.387 . S
C391 C393 1.390 . S
C391 H395 0.950 . S
H392 C388 0.950 . S
C393 C391 1.390 . S
C393 C394 1.387 . S
C393 H396 0.950 . S
C394 C393 1.387 . S
C394 C397 1.387 . S
H395 C391 0.950 . S
H396 C393 0.950 . S
C397 C388 1.390 . S
C397 H390 0.950 . S
C397 C394 1.387 . S
C398 C399 1.387 . S
C398 H402 0.950 . S
C398 C407 1.390 . S
C399 C398 1.387 . S
C399 C401 1.387 . S
H400 C407 0.952 . S
C401 C399 1.387 . S
C401 C403 1.390 . S
C401 H405 0.950 . S
H402 C398 0.950 . S
C403 C401 1.390 . S
C403 C404 1.387 . S
C403 H406 0.950 . S
C404 C403 1.387 . S
C404 C407 1.387 . S
H405 C401 0.950 . S
H406 C403 0.950 . S
C407 C398 1.390 . S
C407 H400 0.952 . S
C407 C404 1.387 . S
C169 C0 1.520 . S
C174 C97 1.517 . S
C179 C15 1.517 . S
C184 C110 1.520 . S
C189 C125 1.518 . S
C194 C41 1.518 . S
C199 C42 1.520 . S
C204 C127 1.517 . S
C209 C57 1.517 . S
C214 C141 1.519 . S
C219 C167 1.517 . S
C224 C83 1.517 . S
C229 C113 1.589 . S
C234 C12 1.591 . S
C239 C27 1.590 . S
C244 C139 1.590 . S
C249 C153 1.591 1_556 S
C254 C29 1.589 . S
C259 C155 1.589 . S
C264 C54 1.591 1_554 S
C269 C69 1.590 . S
C274 C85 1.590 . S
C279 C71 1.591 . S
C284 C98 1.589 . S
C289 C166 1.817 . S
C294 C1 1.815 . S
C299 C96 1.817 . S
C304 C14 1.817 . S
C309 C40 1.820 . S
C314 C111 1.817 . S
C319 C124 1.820 . S
C324 C43 1.816 . S
C329 C126 1.820 . S
C334 C56 1.820 . S
C339 C140 1.819 . S
C344 C82 1.820 . S
C349 C13 1.614 . S
C354 C152 1.615 . S
C359 C154 1.615 . S
C364 C26 1.615 . S
C369 C28 1.614 . S
C374 C84 1.614 . S
C379 C55 1.612 . S
C384 C99 1.612 . S
C389 C68 1.615 . S
C394 C112 1.615 . S
C399 C70 1.614 . S
C404 C138 1.614 . S
