# Generated by pormake.
# Topology sod-h, (3)-cn, num edge types: 1
# Building blocks:
#     Node 0, Type 0, BuildingBlock: OLANEW_clean_sbu_2, # of connection points: 3
#     Node 1, Type 0, BuildingBlock: OLANEW_clean_sbu_2, # of connection points: 3
#     Node 2, Type 0, BuildingBlock: OLANEW_clean_sbu_2, # of connection points: 3
#     Node 3, Type 0, BuildingBlock: OLANEW_clean_sbu_2, # of connection points: 3
#     Node 4, Type 0, BuildingBlock: OLANEW_clean_sbu_2, # of connection points: 3
#     Node 5, Type 0, BuildingBlock: OLANEW_clean_sbu_2, # of connection points: 3
#     Node 6, Type 0, BuildingBlock: OLANEW_clean_sbu_2, # of connection points: 3
#     Node 7, Type 0, BuildingBlock: OLANEW_clean_sbu_2, # of connection points: 3
#     Node 8, Type 0, BuildingBlock: OLANEW_clean_sbu_2, # of connection points: 3
#     Node 9, Type 0, BuildingBlock: OLANEW_clean_sbu_2, # of connection points: 3
#     Node 10, Type 0, BuildingBlock: OLANEW_clean_sbu_2, # of connection points: 3
#     Node 11, Type 0, BuildingBlock: OLANEW_clean_sbu_2, # of connection points: 3
#     Node 12, Type 0, BuildingBlock: OLANEW_clean_sbu_2, # of connection points: 3
#     Node 13, Type 0, BuildingBlock: OLANEW_clean_sbu_2, # of connection points: 3
#     Node 14, Type 0, BuildingBlock: OLANEW_clean_sbu_2, # of connection points: 3
#     Node 15, Type 0, BuildingBlock: OLANEW_clean_sbu_2, # of connection points: 3
#     Node 16, Type 0, BuildingBlock: OLANEW_clean_sbu_2, # of connection points: 3
#     Node 17, Type 0, BuildingBlock: OLANEW_clean_sbu_2, # of connection points: 3
#     Node 18, Type 0, BuildingBlock: OLANEW_clean_sbu_2, # of connection points: 3
#     Node 19, Type 0, BuildingBlock: OLANEW_clean_sbu_2, # of connection points: 3
#     Node 20, Type 0, BuildingBlock: OLANEW_clean_sbu_2, # of connection points: 3
#     Node 21, Type 0, BuildingBlock: OLANEW_clean_sbu_2, # of connection points: 3
#     Node 22, Type 0, BuildingBlock: OLANEW_clean_sbu_2, # of connection points: 3
#     Node 23, Type 0, BuildingBlock: OLANEW_clean_sbu_2, # of connection points: 3
#     Node 24, Type 0, BuildingBlock: OLANEW_clean_sbu_2, # of connection points: 3
#     Node 25, Type 0, BuildingBlock: OLANEW_clean_sbu_2, # of connection points: 3
#     Node 26, Type 0, BuildingBlock: OLANEW_clean_sbu_2, # of connection points: 3
#     Node 27, Type 0, BuildingBlock: OLANEW_clean_sbu_2, # of connection points: 3
#     Node 28, Type 0, BuildingBlock: OLANEW_clean_sbu_2, # of connection points: 3
#     Node 29, Type 0, BuildingBlock: OLANEW_clean_sbu_2, # of connection points: 3
#     Node 30, Type 0, BuildingBlock: OLANEW_clean_sbu_2, # of connection points: 3
#     Node 31, Type 0, BuildingBlock: OLANEW_clean_sbu_2, # of connection points: 3
#     Node 32, Type 0, BuildingBlock: OLANEW_clean_sbu_2, # of connection points: 3
#     Node 33, Type 0, BuildingBlock: OLANEW_clean_sbu_2, # of connection points: 3
#     Node 34, Type 0, BuildingBlock: OLANEW_clean_sbu_2, # of connection points: 3
#     Node 35, Type 0, BuildingBlock: OLANEW_clean_sbu_2, # of connection points: 3
#     Node 36, Type 0, BuildingBlock: OLANEW_clean_sbu_2, # of connection points: 3
#     Node 37, Type 0, BuildingBlock: OLANEW_clean_sbu_2, # of connection points: 3
#     Node 38, Type 0, BuildingBlock: OLANEW_clean_sbu_2, # of connection points: 3
#     Node 39, Type 0, BuildingBlock: OLANEW_clean_sbu_2, # of connection points: 3
#     Node 40, Type 0, BuildingBlock: OLANEW_clean_sbu_2, # of connection points: 3
#     Node 41, Type 0, BuildingBlock: OLANEW_clean_sbu_2, # of connection points: 3
#     Node 42, Type 0, BuildingBlock: OLANEW_clean_sbu_2, # of connection points: 3
#     Node 43, Type 0, BuildingBlock: OLANEW_clean_sbu_2, # of connection points: 3
#     Node 44, Type 0, BuildingBlock: OLANEW_clean_sbu_2, # of connection points: 3
#     Node 45, Type 0, BuildingBlock: OLANEW_clean_sbu_2, # of connection points: 3
#     Node 46, Type 0, BuildingBlock: OLANEW_clean_sbu_2, # of connection points: 3
#     Node 47, Type 0, BuildingBlock: OLANEW_clean_sbu_2, # of connection points: 3
#     Edge 48, Type (0, 0), BuildingBlock: MIFKUJ_clean_linker_0, # of connection points: 2
#     Edge 49, Type (0, 0), BuildingBlock: MIFKUJ_clean_linker_0, # of connection points: 2
#     Edge 50, Type (0, 0), BuildingBlock: MIFKUJ_clean_linker_0, # of connection points: 2
#     Edge 51, Type (0, 0), BuildingBlock: MIFKUJ_clean_linker_0, # of connection points: 2
#     Edge 52, Type (0, 0), BuildingBlock: MIFKUJ_clean_linker_0, # of connection points: 2
#     Edge 53, Type (0, 0), BuildingBlock: MIFKUJ_clean_linker_0, # of connection points: 2
#     Edge 54, Type (0, 0), BuildingBlock: MIFKUJ_clean_linker_0, # of connection points: 2
#     Edge 55, Type (0, 0), BuildingBlock: MIFKUJ_clean_linker_0, # of connection points: 2
#     Edge 56, Type (0, 0), BuildingBlock: MIFKUJ_clean_linker_0, # of connection points: 2
#     Edge 57, Type (0, 0), BuildingBlock: MIFKUJ_clean_linker_0, # of connection points: 2
#     Edge 58, Type (0, 0), BuildingBlock: MIFKUJ_clean_linker_0, # of connection points: 2
#     Edge 59, Type (0, 0), BuildingBlock: MIFKUJ_clean_linker_0, # of connection points: 2
#     Edge 60, Type (0, 0), BuildingBlock: MIFKUJ_clean_linker_0, # of connection points: 2
#     Edge 61, Type (0, 0), BuildingBlock: MIFKUJ_clean_linker_0, # of connection points: 2
#     Edge 62, Type (0, 0), BuildingBlock: MIFKUJ_clean_linker_0, # of connection points: 2
#     Edge 63, Type (0, 0), BuildingBlock: MIFKUJ_clean_linker_0, # of connection points: 2
#     Edge 64, Type (0, 0), BuildingBlock: MIFKUJ_clean_linker_0, # of connection points: 2
#     Edge 65, Type (0, 0), BuildingBlock: MIFKUJ_clean_linker_0, # of connection points: 2
#     Edge 66, Type (0, 0), BuildingBlock: MIFKUJ_clean_linker_0, # of connection points: 2
#     Edge 67, Type (0, 0), BuildingBlock: MIFKUJ_clean_linker_0, # of connection points: 2
#     Edge 68, Type (0, 0), BuildingBlock: MIFKUJ_clean_linker_0, # of connection points: 2
#     Edge 69, Type (0, 0), BuildingBlock: MIFKUJ_clean_linker_0, # of connection points: 2
#     Edge 70, Type (0, 0), BuildingBlock: MIFKUJ_clean_linker_0, # of connection points: 2
#     Edge 71, Type (0, 0), BuildingBlock: MIFKUJ_clean_linker_0, # of connection points: 2
#     Edge 72, Type (0, 0), BuildingBlock: MIFKUJ_clean_linker_0, # of connection points: 2
#     Edge 73, Type (0, 0), BuildingBlock: MIFKUJ_clean_linker_0, # of connection points: 2
#     Edge 74, Type (0, 0), BuildingBlock: MIFKUJ_clean_linker_0, # of connection points: 2
#     Edge 75, Type (0, 0), BuildingBlock: MIFKUJ_clean_linker_0, # of connection points: 2
#     Edge 76, Type (0, 0), BuildingBlock: MIFKUJ_clean_linker_0, # of connection points: 2
#     Edge 77, Type (0, 0), BuildingBlock: MIFKUJ_clean_linker_0, # of connection points: 2
#     Edge 78, Type (0, 0), BuildingBlock: MIFKUJ_clean_linker_0, # of connection points: 2
#     Edge 79, Type (0, 0), BuildingBlock: MIFKUJ_clean_linker_0, # of connection points: 2
#     Edge 80, Type (0, 0), BuildingBlock: MIFKUJ_clean_linker_0, # of connection points: 2
#     Edge 81, Type (0, 0), BuildingBlock: MIFKUJ_clean_linker_0, # of connection points: 2
#     Edge 82, Type (0, 0), BuildingBlock: MIFKUJ_clean_linker_0, # of connection points: 2
#     Edge 83, Type (0, 0), BuildingBlock: MIFKUJ_clean_linker_0, # of connection points: 2
#     Edge 84, Type (0, 0), BuildingBlock: MIFKUJ_clean_linker_0, # of connection points: 2
#     Edge 85, Type (0, 0), BuildingBlock: MIFKUJ_clean_linker_0, # of connection points: 2
#     Edge 86, Type (0, 0), BuildingBlock: MIFKUJ_clean_linker_0, # of connection points: 2
#     Edge 87, Type (0, 0), BuildingBlock: MIFKUJ_clean_linker_0, # of connection points: 2
#     Edge 88, Type (0, 0), BuildingBlock: MIFKUJ_clean_linker_0, # of connection points: 2
#     Edge 89, Type (0, 0), BuildingBlock: MIFKUJ_clean_linker_0, # of connection points: 2
#     Edge 90, Type (0, 0), BuildingBlock: MIFKUJ_clean_linker_0, # of connection points: 2
#     Edge 91, Type (0, 0), BuildingBlock: MIFKUJ_clean_linker_0, # of connection points: 2
#     Edge 92, Type (0, 0), BuildingBlock: MIFKUJ_clean_linker_0, # of connection points: 2
#     Edge 93, Type (0, 0), BuildingBlock: MIFKUJ_clean_linker_0, # of connection points: 2
#     Edge 94, Type (0, 0), BuildingBlock: MIFKUJ_clean_linker_0, # of connection points: 2
#     Edge 95, Type (0, 0), BuildingBlock: MIFKUJ_clean_linker_0, # of connection points: 2
#     Edge 96, Type (0, 0), BuildingBlock: MIFKUJ_clean_linker_0, # of connection points: 2
#     Edge 97, Type (0, 0), BuildingBlock: MIFKUJ_clean_linker_0, # of connection points: 2
#     Edge 98, Type (0, 0), BuildingBlock: MIFKUJ_clean_linker_0, # of connection points: 2
#     Edge 99, Type (0, 0), BuildingBlock: MIFKUJ_clean_linker_0, # of connection points: 2
#     Edge 100, Type (0, 0), BuildingBlock: MIFKUJ_clean_linker_0, # of connection points: 2
#     Edge 101, Type (0, 0), BuildingBlock: MIFKUJ_clean_linker_0, # of connection points: 2
#     Edge 102, Type (0, 0), BuildingBlock: MIFKUJ_clean_linker_0, # of connection points: 2
#     Edge 103, Type (0, 0), BuildingBlock: MIFKUJ_clean_linker_0, # of connection points: 2
#     Edge 104, Type (0, 0), BuildingBlock: MIFKUJ_clean_linker_0, # of connection points: 2
#     Edge 105, Type (0, 0), BuildingBlock: MIFKUJ_clean_linker_0, # of connection points: 2
#     Edge 106, Type (0, 0), BuildingBlock: MIFKUJ_clean_linker_0, # of connection points: 2
#     Edge 107, Type (0, 0), BuildingBlock: MIFKUJ_clean_linker_0, # of connection points: 2
#     Edge 108, Type (0, 0), BuildingBlock: MIFKUJ_clean_linker_0, # of connection points: 2
#     Edge 109, Type (0, 0), BuildingBlock: MIFKUJ_clean_linker_0, # of connection points: 2
#     Edge 110, Type (0, 0), BuildingBlock: MIFKUJ_clean_linker_0, # of connection points: 2
#     Edge 111, Type (0, 0), BuildingBlock: MIFKUJ_clean_linker_0, # of connection points: 2
#     Edge 112, Type (0, 0), BuildingBlock: MIFKUJ_clean_linker_0, # of connection points: 2
#     Edge 113, Type (0, 0), BuildingBlock: MIFKUJ_clean_linker_0, # of connection points: 2
#     Edge 114, Type (0, 0), BuildingBlock: MIFKUJ_clean_linker_0, # of connection points: 2
#     Edge 115, Type (0, 0), BuildingBlock: MIFKUJ_clean_linker_0, # of connection points: 2
#     Edge 116, Type (0, 0), BuildingBlock: MIFKUJ_clean_linker_0, # of connection points: 2
#     Edge 117, Type (0, 0), BuildingBlock: MIFKUJ_clean_linker_0, # of connection points: 2
#     Edge 118, Type (0, 0), BuildingBlock: MIFKUJ_clean_linker_0, # of connection points: 2
#     Edge 119, Type (0, 0), BuildingBlock: MIFKUJ_clean_linker_0, # of connection points: 2
# Relax obj value: 0.009
# Max RMSD: 0.040
# Mean RMSD: 0.040
data_MOF--net-sod-h--node1-OLANEW_clean_sbu_2--edge1-MIFKUJ_clean_linker_0
_symmetry_space_group_name_H-M    P1
_symmetry_Int_Tables_number       1
_symmetry_cell_setting            triclinic
loop_
_symmetry_equiv_pos_as_xyz
'x, y, z'
_cell_length_a     133.35327
_cell_length_b     133.41381
_cell_length_c     133.39655
_cell_angle_alpha  90.032114
_cell_angle_beta   90.009749
_cell_angle_gamma 89.982289
loop_
_atom_site_label
_atom_site_type_symbol
_atom_site_fract_x
_atom_site_fract_y
_atom_site_fract_z
_atom_type_partial_charge
O0 O 0.10176 0.21223 0.69973 0.0
Cd1 Cd 0.10151 0.2011 0.68517 0.0
O2 O 0.08585 0.20871 0.70191 0.0
Cd3 Cd 0.07122 0.21087 0.70906 0.0
O4 O 0.05616 0.21255 0.71528 0.0
C5 C 0.0511 0.2205 0.71381 0.0
O6 O 0.05513 0.22784 0.70863 0.0
C7 C 0.09372 0.21332 0.70472 0.0
C8 C 0.11291 0.18381 0.68813 0.0
O9 O 0.11673 0.1916 0.68401 0.0
O10 O 0.10371 0.18422 0.69088 0.0
O11 O 0.78052 0.60246 0.198 0.0
Cd12 Cd 0.79251 0.60214 0.18413 0.0
O13 O 0.78466 0.58685 0.20073 0.0
Cd14 Cd 0.78487 0.57227 0.20827 0.0
O15 O 0.78408 0.55663 0.213 0.0
C16 C 0.77821 0.55083 0.20824 0.0
O17 O 0.77279 0.55454 0.2009 0.0
C18 C 0.77936 0.59445 0.20301 0.0
C19 C 0.80982 0.61327 0.18787 0.0
O20 O 0.80227 0.6172 0.1834 0.0
O21 O 0.80914 0.6041 0.19066 0.0
O22 O 0.38528 0.27865 0.69772 0.0
Cd23 Cd 0.38179 0.28899 0.683 0.0
O24 O 0.40113 0.28296 0.69746 0.0
Cd25 Cd 0.41689 0.28193 0.70196 0.0
O26 O 0.43273 0.28147 0.70605 0.0
C27 C 0.43807 0.2739 0.70381 0.0
O28 O 0.43389 0.26631 0.69912 0.0
C29 C 0.39403 0.278 0.70144 0.0
C30 C 0.37277 0.30722 0.68781 0.0
O31 O 0.36754 0.29922 0.6868 0.0
O32 O 0.38228 0.3066 0.68661 0.0
O33 O 0.70987 0.88851 0.19942 0.0
Cd34 Cd 0.69844 0.88847 0.18509 0.0
O35 O 0.7088 0.90487 0.199 0.0
Cd36 Cd 0.71127 0.92015 0.20445 0.0
O37 O 0.71272 0.93589 0.20869 0.0
C38 C 0.71718 0.94191 0.20282 0.0
O39 O 0.72096 0.93844 0.1944 0.0
C40 C 0.71242 0.89698 0.20295 0.0
C41 C 0.68147 0.87662 0.18804 0.0
O42 O 0.68933 0.87304 0.18382 0.0
O43 O 0.68168 0.88578 0.19094 0.0
O44 O 0.09633 0.28623 0.79077 0.0
Cd45 Cd 0.09476 0.29883 0.804 0.0
O46 O 0.0804 0.28869 0.78759 0.0
Cd47 Cd 0.0662 0.28478 0.78039 0.0
O48 O 0.05121 0.28046 0.77549 0.0
C49 C 0.0469 0.27318 0.77986 0.0
O50 O 0.05173 0.26837 0.78697 0.0
C51 C 0.08857 0.28416 0.78565 0.0
C52 C 0.10668 0.3157 0.80075 0.0
O53 O 0.10991 0.3083 0.80597 0.0
O54 O 0.09785 0.31508 0.79701 0.0
O55 O 0.70887 0.60042 0.29093 0.0
Cd56 Cd 0.69746 0.59986 0.30528 0.0
O57 O 0.70553 0.58456 0.28854 0.0
Cd58 Cd 0.70564 0.56971 0.28151 0.0
O59 O 0.70693 0.55399 0.27709 0.0
C60 C 0.71488 0.54922 0.2793 0.0
O61 O 0.72216 0.55396 0.28395 0.0
C62 C 0.71031 0.59242 0.28596 0.0
C63 C 0.6813 0.61307 0.30378 0.0
O64 O 0.68951 0.61575 0.308 0.0
O65 O 0.68078 0.60418 0.30017 0.0
O66 O 0.39672 0.20596 0.78744 0.0
Cd67 Cd 0.39807 0.19406 0.80131 0.0
O68 O 0.41304 0.20757 0.78817 0.0
Cd69 Cd 0.42784 0.21237 0.78296 0.0
O70 O 0.44361 0.21422 0.77899 0.0
C71 C 0.44927 0.21993 0.78411 0.0
O72 O 0.44542 0.22499 0.79163 0.0
C73 C 0.40472 0.20995 0.78415 0.0
C74 C 0.38585 0.17725 0.79888 0.0
O75 O 0.38275 0.18496 0.80372 0.0
O76 O 0.3947 0.17752 0.79514 0.0
O77 O 0.78392 0.89305 0.29015 0.0
Cd78 Cd 0.79561 0.89418 0.30423 0.0
O79 O 0.78389 0.90945 0.28985 0.0
Cd80 Cd 0.77916 0.92446 0.28515 0.0
O81 O 0.77681 0.9403 0.28173 0.0
C82 C 0.78061 0.9467 0.28769 0.0
O83 O 0.78557 0.94348 0.29557 0.0
C84 C 0.78085 0.90117 0.28622 0.0
C85 C 0.81265 0.88232 0.30166 0.0
O86 O 0.80494 0.87896 0.3063 0.0
O87 O 0.81228 0.89126 0.29817 0.0
O88 O 0.70065 0.10059 0.21053 0.0
Cd89 Cd 0.68623 0.10039 0.19921 0.0
O90 O 0.7028 0.08478 0.20676 0.0
Cd91 Cd 0.70927 0.06977 0.20809 0.0
O92 O 0.71336 0.05393 0.20817 0.0
C93 C 0.711 0.04845 0.21559 0.0
O94 O 0.70635 0.05252 0.22326 0.0
C95 C 0.70558 0.09252 0.21159 0.0
C96 C 0.6894 0.11159 0.18184 0.0
O97 O 0.6852 0.1155 0.18955 0.0
O98 O 0.69215 0.1024 0.18237 0.0
O99 O 0.89477 0.2019 0.70951 0.0
Cd100 Cd 0.89614 0.18766 0.69806 0.0
O101 O 0.91089 0.20445 0.70755 0.0
Cd102 Cd 0.92518 0.21168 0.71126 0.0
O103 O 0.94032 0.21684 0.71489 0.0
C104 C 0.94526 0.21221 0.7216 0.0
O105 O 0.94098 0.20467 0.72628 0.0
C106 C 0.90258 0.20699 0.71148 0.0
C107 C 0.88382 0.18979 0.6813 0.0
O108 O 0.88073 0.18521 0.68915 0.0
O109 O 0.89274 0.19339 0.68139 0.0
O110 O 0.79209 0.39214 0.20949 0.0
Cd111 Cd 0.80634 0.39247 0.19797 0.0
O112 O 0.7901 0.4081 0.20626 0.0
Cd113 Cd 0.78369 0.42304 0.20845 0.0
O114 O 0.77985 0.43889 0.20996 0.0
C115 C 0.78377 0.444 0.21698 0.0
O116 O 0.78983 0.43952 0.22333 0.0
C117 C 0.78728 0.40024 0.21085 0.0
C118 C 0.80326 0.38074 0.18093 0.0
O119 O 0.80772 0.37716 0.18865 0.0
O120 O 0.80021 0.38985 0.18129 0.0
O121 O 0.59752 0.28981 0.71219 0.0
Cd122 Cd 0.59677 0.30401 0.70063 0.0
O123 O 0.58147 0.28775 0.70951 0.0
Cd124 Cd 0.56649 0.28144 0.7118 0.0
O125 O 0.55063 0.27741 0.71234 0.0
C126 C 0.54447 0.28342 0.71643 0.0
O127 O 0.5479 0.29175 0.72043 0.0
C128 C 0.58949 0.28497 0.71386 0.0
C129 C 0.60878 0.30139 0.6837 0.0
O130 O 0.61214 0.30589 0.6915 0.0
O131 O 0.59977 0.29808 0.68394 0.0
O132 O 0.69893 0.39113 0.28061 0.0
Cd133 Cd 0.6847 0.39183 0.29215 0.0
O134 O 0.7018 0.40684 0.28446 0.0
Cd135 Cd 0.70906 0.42136 0.28222 0.0
O136 O 0.71374 0.43686 0.27991 0.0
C137 C 0.70825 0.44244 0.27449 0.0
O138 O 0.7002 0.43859 0.27031 0.0
C139 C 0.70414 0.39903 0.27952 0.0
C140 C 0.68706 0.37969 0.30899 0.0
O141 O 0.68267 0.3764 0.3011 0.0
O142 O 0.69042 0.38869 0.30888 0.0
O143 O 0.60572 0.19629 0.78097 0.0
Cd144 Cd 0.60711 0.1819 0.79222 0.0
O145 O 0.59122 0.19928 0.78806 0.0
Cd146 Cd 0.57653 0.20642 0.78881 0.0
O147 O 0.56092 0.21102 0.78766 0.0
C148 C 0.55568 0.2071 0.78074 0.0
O149 O 0.55993 0.20066 0.7746 0.0
C150 C 0.5978 0.20156 0.78155 0.0
C151 C 0.61797 0.18574 0.80967 0.0
O152 O 0.62226 0.18211 0.80187 0.0
O153 O 0.60857 0.18767 0.80917 0.0
O154 O 0.79503 0.10369 0.27907 0.0
Cd155 Cd 0.80939 0.10405 0.29047 0.0
O156 O 0.79193 0.08866 0.28486 0.0
Cd157 Cd 0.78463 0.07401 0.28455 0.0
O158 O 0.78031 0.05829 0.28357 0.0
C159 C 0.78375 0.05312 0.27635 0.0
O160 O 0.78951 0.05751 0.26967 0.0
C161 C 0.78969 0.09581 0.27897 0.0
C162 C 0.80652 0.11623 0.30721 0.0
O163 O 0.81063 0.11967 0.29924 0.0
O164 O 0.80366 0.10706 0.30722 0.0
O165 O 0.89099 0.29424 0.78225 0.0
Cd166 Cd 0.89131 0.30818 0.79415 0.0
O167 O 0.90644 0.29108 0.78681 0.0
Cd168 Cd 0.92099 0.28369 0.78528 0.0
O169 O 0.93605 0.27764 0.78333 0.0
C170 C 0.9416 0.28121 0.77646 0.0
O171 O 0.93802 0.28833 0.77067 0.0
C172 C 0.89887 0.28895 0.78142 0.0
C173 C 0.87978 0.3048 0.81126 0.0
O174 O 0.87607 0.30927 0.8036 0.0
O175 O 0.88892 0.30185 0.81078 0.0
O176 O 0.21069 0.70008 0.10203 0.0
Cd177 Cd 0.19941 0.68565 0.10143 0.0
O178 O 0.20941 0.70073 0.08568 0.0
Cd179 Cd 0.21309 0.70598 0.07058 0.0
O180 O 0.21524 0.71055 0.05501 0.0
C181 C 0.2208 0.7054 0.04924 0.0
O182 O 0.22537 0.69746 0.05284 0.0
C183 C 0.21299 0.70427 0.09379 0.0
C184 C 0.18189 0.68858 0.11248 0.0
O185 O 0.18959 0.68439 0.11642 0.0
O186 O 0.18251 0.69144 0.10333 0.0
O187 O 0.20995 0.79524 0.39025 0.0
Cd188 Cd 0.19782 0.809 0.39028 0.0
O189 O 0.20519 0.7921 0.40564 0.0
Cd190 Cd 0.20659 0.7848 0.42025 0.0
O191 O 0.2085 0.77847 0.43519 0.0
C192 C 0.21482 0.78243 0.44111 0.0
O193 O 0.2201 0.79014 0.438 0.0
C194 C 0.21074 0.79002 0.39818 0.0
C195 C 0.18103 0.80546 0.37832 0.0
O196 O 0.18873 0.81002 0.37481 0.0
O197 O 0.18133 0.80248 0.38744 0.0
O198 O 0.19952 0.70837 0.89258 0.0
Cd199 Cd 0.18591 0.69614 0.89356 0.0
O200 O 0.2034 0.70402 0.90792 0.0
Cd201 Cd 0.21117 0.70566 0.92226 0.0
O202 O 0.21636 0.70712 0.93771 0.0
C203 C 0.21329 0.71448 0.94291 0.0
O204 O 0.20731 0.72111 0.93874 0.0
C205 C 0.20509 0.70941 0.90024 0.0
C206 C 0.1891 0.67913 0.88182 0.0
O207 O 0.18425 0.68667 0.87837 0.0
O208 O 0.19253 0.67967 0.89078 0.0
O209 O 0.28446 0.70439 0.39645 0.0
Cd210 Cd 0.29611 0.69034 0.39826 0.0
O211 O 0.28571 0.70688 0.41265 0.0
Cd212 Cd 0.28145 0.71398 0.42686 0.0
O213 O 0.27812 0.71895 0.44214 0.0
C214 C 0.27111 0.71476 0.44705 0.0
O215 O 0.26579 0.70771 0.44269 0.0
C216 C 0.28208 0.70939 0.4042 0.0
C217 C 0.3128 0.69202 0.38575 0.0
O218 O 0.30495 0.68725 0.38291 0.0
O219 O 0.31273 0.69603 0.39448 0.0
O220 O 0.29186 0.78037 0.88945 0.0
Cd221 Cd 0.30646 0.79145 0.8895 0.0
O222 O 0.28963 0.78457 0.90515 0.0
Cd223 Cd 0.28294 0.78351 0.92009 0.0
O224 O 0.27825 0.78354 0.93577 0.0
C225 C 0.28055 0.77625 0.94146 0.0
O226 O 0.28554 0.76864 0.9377 0.0
C227 C 0.28685 0.77958 0.89751 0.0
C228 C 0.30367 0.80876 0.87812 0.0
O229 O 0.30762 0.80089 0.87427 0.0
O230 O 0.30097 0.80841 0.88734 0.0
O231 O 0.28499 0.79096 0.10056 0.0
Cd232 Cd 0.29671 0.80501 0.0996 0.0
O233 O 0.28465 0.79111 0.08416 0.0
Cd234 Cd 0.28079 0.78549 0.06922 0.0
O235 O 0.27829 0.78152 0.05353 0.0
C236 C 0.27325 0.78742 0.04801 0.0
O237 O 0.26947 0.7956 0.05199 0.0
C238 C 0.28166 0.78736 0.0924 0.0
C239 C 0.31377 0.80221 0.11136 0.0
O240 O 0.30605 0.80676 0.11485 0.0
O241 O 0.31339 0.79894 0.10234 0.0
O242 O 0.20373 0.78748 0.59577 0.0
Cd243 Cd 0.19054 0.80001 0.59353 0.0
O244 O 0.20402 0.78569 0.57945 0.0
Cd245 Cd 0.21015 0.7801 0.56527 0.0
O246 O 0.21524 0.7762 0.5502 0.0
C247 C 0.21199 0.7684 0.54579 0.0
O248 O 0.20571 0.76249 0.55054 0.0
C249 C 0.20733 0.78323 0.58804 0.0
C250 C 0.19263 0.81638 0.60637 0.0
O251 O 0.18731 0.80878 0.60888 0.0
O252 O 0.197 0.81621 0.59782 0.0
O253 O 0.29292 0.71143 0.60488 0.0
Cd254 Cd 0.30791 0.70092 0.6059 0.0
O255 O 0.2928 0.70993 0.58849 0.0
Cd256 Cd 0.28729 0.71391 0.57353 0.0
O257 O 0.28152 0.71728 0.55857 0.0
C258 C 0.28777 0.7186 0.55151 0.0
O259 O 0.2974 0.71805 0.55353 0.0
C260 C 0.28892 0.71343 0.59647 0.0
C261 C 0.30423 0.68273 0.61552 0.0
O262 O 0.3066 0.69059 0.62052 0.0
O263 O 0.30358 0.68348 0.60596 0.0
O264 O 0.91393 0.79539 0.27822 0.0
Cd265 Cd 0.9185 0.81009 0.28817 0.0
O266 O 0.91465 0.78522 0.29117 0.0
Cd267 Cd 0.92259 0.79623 0.30035 0.0
O268 O 0.93692 0.80217 0.30564 0.0
C269 C 0.94275 0.79596 0.30991 0.0
O270 O 0.93956 0.78676 0.31142 0.0
C271 C 0.91261 0.78673 0.28198 0.0
C272 C 0.90182 0.82242 0.2909 0.0
O273 O 0.90792 0.82389 0.28363 0.0
O274 O 0.90368 0.81519 0.29694 0.0
O275 O 0.1931 0.41585 0.77284 0.0
Cd276 Cd 0.17845 0.42103 0.78257 0.0
O277 O 0.20213 0.41275 0.78628 0.0
Cd278 Cd 0.19171 0.42116 0.79571 0.0
O279 O 0.18801 0.43663 0.79965 0.0
C280 C 0.19477 0.44276 0.7969 0.0
O281 O 0.20282 0.4392 0.79246 0.0
C282 C 0.20111 0.41251 0.7768 0.0
C283 C 0.16624 0.40448 0.78634 0.0
O284 O 0.1647 0.41012 0.77872 0.0
O285 O 0.17348 0.40674 0.79225 0.0
O286 O 0.58188 0.70362 0.28707 0.0
Cd287 Cd 0.5793 0.69183 0.30084 0.0
O288 O 0.57349 0.69432 0.27635 0.0
Cd289 Cd 0.56683 0.68485 0.28793 0.0
O290 O 0.55308 0.68077 0.29585 0.0
C291 C 0.54821 0.68793 0.29982 0.0
O292 O 0.55207 0.69699 0.29954 0.0
C293 C 0.57891 0.70194 0.27817 0.0
C294 C 0.59555 0.67868 0.30196 0.0
O295 O 0.58779 0.67652 0.29671 0.0
O296 O 0.59556 0.68699 0.30678 0.0
O297 O 0.2965 0.0779 0.77695 0.0
Cd298 Cd 0.31113 0.07301 0.78685 0.0
O299 O 0.28641 0.07773 0.78998 0.0
Cd300 Cd 0.29714 0.06936 0.79909 0.0
O301 O 0.30235 0.05475 0.80436 0.0
C302 C 0.29659 0.0499 0.81021 0.0
O303 O 0.28829 0.05421 0.81332 0.0
C304 C 0.28793 0.07961 0.78076 0.0
C305 C 0.32385 0.08943 0.78933 0.0
O306 O 0.32512 0.08324 0.78209 0.0
O307 O 0.31664 0.08778 0.79547 0.0
O308 O 0.91317 0.69545 0.21742 0.0
Cd309 Cd 0.91751 0.68145 0.20643 0.0
O310 O 0.91678 0.70677 0.206 0.0
Cd311 Cd 0.92447 0.69606 0.19628 0.0
O312 O 0.93846 0.69015 0.19011 0.0
C313 C 0.94384 0.69622 0.18511 0.0
O314 O 0.94039 0.70529 0.1834 0.0
C315 C 0.91334 0.70455 0.21461 0.0
C316 C 0.90059 0.66968 0.20288 0.0
O317 O 0.90668 0.66757 0.21 0.0
O318 O 0.90258 0.67729 0.19736 0.0
O319 O 0.29585 0.41329 0.71843 0.0
Cd320 Cd 0.31138 0.41822 0.71005 0.0
O321 O 0.28587 0.41776 0.70609 0.0
Cd322 Cd 0.2978 0.42545 0.69794 0.0
O323 O 0.3047 0.43936 0.69273 0.0
C324 C 0.30941 0.44471 0.69905 0.0
O325 O 0.31057 0.4413 0.70822 0.0
C326 C 0.2871 0.41379 0.71466 0.0
C327 C 0.3229 0.40119 0.70627 0.0
O328 O 0.32337 0.40572 0.71473 0.0
O329 O 0.3171 0.40482 0.69951 0.0
O330 O 0.57883 0.7902 0.20963 0.0
Cd331 Cd 0.57505 0.80501 0.19953 0.0
O332 O 0.57215 0.7799 0.19862 0.0
Cd333 Cd 0.56493 0.7918 0.19001 0.0
O334 O 0.55099 0.79925 0.18571 0.0
C335 C 0.54752 0.80628 0.19114 0.0
O336 O 0.55285 0.80946 0.19879 0.0
C337 C 0.57696 0.78131 0.20673 0.0
C338 C 0.59201 0.81707 0.19759 0.0
O339 O 0.58559 0.81867 0.20455 0.0
O340 O 0.59036 0.80982 0.1915 0.0
O341 O 0.19664 0.08134 0.71637 0.0
Cd342 Cd 0.1828 0.07697 0.70518 0.0
O343 O 0.20808 0.07759 0.70511 0.0
Cd344 Cd 0.19757 0.06962 0.6954 0.0
O345 O 0.19266 0.05511 0.68958 0.0
C346 C 0.1997 0.04911 0.6873 0.0
O347 O 0.20901 0.05225 0.68809 0.0
C348 C 0.20577 0.08113 0.71365 0.0
C349 C 0.17083 0.09377 0.7017 0.0
O350 O 0.16871 0.08756 0.70872 0.0
O351 O 0.17854 0.09196 0.69626 0.0
O352 O 0.27934 0.91222 0.79483 0.0
Cd353 Cd 0.29089 0.91626 0.80848 0.0
O354 O 0.28986 0.91709 0.78311 0.0
Cd355 Cd 0.29956 0.92495 0.79371 0.0
O356 O 0.30423 0.93923 0.80024 0.0
C357 C 0.29843 0.94345 0.80652 0.0
O358 O 0.29029 0.93871 0.80938 0.0
C359 C 0.2816 0.91303 0.78561 0.0
C360 C 0.29379 0.89939 0.82047 0.0
O361 O 0.29922 0.90093 0.8127 0.0
O362 O 0.28707 0.90591 0.82265 0.0
O363 O 0.07869 0.77994 0.29327 0.0
Cd364 Cd 0.07457 0.79113 0.30719 0.0
O365 O 0.07486 0.7911 0.28176 0.0
Cd366 Cd 0.06719 0.80078 0.29251 0.0
O367 O 0.05323 0.80557 0.29964 0.0
C368 C 0.0482 0.79887 0.30418 0.0
O369 O 0.05198 0.78979 0.30488 0.0
C370 C 0.07838 0.78255 0.28411 0.0
C371 C 0.09143 0.79401 0.31924 0.0
O372 O 0.08504 0.78712 0.32124 0.0
O373 O 0.08976 0.79962 0.31162 0.0
O374 O 0.2142 0.578 0.79597 0.0
Cd375 Cd 0.20436 0.57293 0.81056 0.0
O376 O 0.20093 0.57974 0.78634 0.0
Cd377 Cd 0.19168 0.5713 0.79687 0.0
O378 O 0.18851 0.55585 0.80127 0.0
C379 C 0.19554 0.54984 0.79895 0.0
O380 O 0.20368 0.55352 0.79479 0.0
C381 C 0.21033 0.58067 0.78767 0.0
C382 C 0.20124 0.5895 0.82294 0.0
O383 O 0.20865 0.58356 0.82441 0.0
O384 O 0.19522 0.58751 0.81571 0.0
O385 O 0.41241 0.71058 0.29534 0.0
Cd386 Cd 0.41672 0.70051 0.31003 0.0
O387 O 0.41481 0.6981 0.28483 0.0
Cd388 Cd 0.42264 0.68909 0.29603 0.0
O389 O 0.43698 0.68443 0.30245 0.0
C390 C 0.44276 0.69139 0.30547 0.0
O391 O 0.43951 0.70068 0.3052 0.0
C392 C 0.41198 0.70705 0.28649 0.0
C393 C 0.40016 0.69874 0.3227 0.0
O394 O 0.40664 0.70572 0.32398 0.0
O395 O 0.40157 0.69254 0.31549 0.0
O396 O 0.27483 0.57997 0.69688 0.0
Cd397 Cd 0.28516 0.57488 0.68263 0.0
O398 O 0.28654 0.57702 0.70811 0.0
Cd399 Cd 0.29624 0.56923 0.69746 0.0
O400 O 0.30279 0.55523 0.69201 0.0
C401 C 0.30773 0.5501 0.69833 0.0
O402 O 0.30912 0.55379 0.70736 0.0
C403 C 0.27784 0.58024 0.70592 0.0
C404 C 0.28857 0.59129 0.67014 0.0
O405 O 0.29477 0.58904 0.67713 0.0
O406 O 0.28084 0.5857 0.66898 0.0
O407 O 0.41422 0.77433 0.19738 0.0
Cd408 Cd 0.41891 0.78582 0.18391 0.0
O409 O 0.41593 0.78577 0.20913 0.0
Cd410 Cd 0.42362 0.79615 0.19908 0.0
O411 O 0.43747 0.80248 0.19302 0.0
C412 C 0.442 0.80923 0.19799 0.0
O413 O 0.43781 0.8127 0.2062 0.0
C414 C 0.41339 0.77696 0.20651 0.0
C415 C 0.40251 0.78933 0.17143 0.0
O416 O 0.40883 0.78237 0.16945 0.0
O417 O 0.40401 0.7947 0.17925 0.0
O418 O 0.21402 0.91429 0.69779 0.0
Cd419 Cd 0.20361 0.91902 0.68346 0.0
O420 O 0.20155 0.91509 0.70855 0.0
Cd421 Cd 0.19223 0.92329 0.69789 0.0
O422 O 0.18861 0.93784 0.69129 0.0
C423 C 0.19612 0.94336 0.68931 0.0
O424 O 0.20517 0.93976 0.69084 0.0
C425 C 0.21064 0.91295 0.7066 0.0
C426 C 0.20126 0.90277 0.67051 0.0
O427 O 0.20834 0.90914 0.66922 0.0
O428 O 0.19523 0.90416 0.67786 0.0
O429 O 0.07792 0.71596 0.19491 0.0
Cd430 Cd 0.07387 0.7052 0.18064 0.0
O431 O 0.0769 0.70357 0.20572 0.0
Cd432 Cd 0.06911 0.69392 0.19503 0.0
O433 O 0.05489 0.68878 0.18869 0.0
C434 C 0.04931 0.69538 0.18468 0.0
O435 O 0.05265 0.70462 0.184 0.0
C436 C 0.079 0.71266 0.20379 0.0
C437 C 0.09092 0.70194 0.16899 0.0
O438 O 0.0848 0.70905 0.16691 0.0
O439 O 0.08892 0.69631 0.17651 0.0
O440 O 0.79565 0.27924 0.91445 0.0
Cd441 Cd 0.80991 0.29003 0.91843 0.0
O442 O 0.78469 0.29141 0.91642 0.0
Cd443 Cd 0.79547 0.30101 0.92416 0.0
O444 O 0.80184 0.3065 0.93824 0.0
C445 C 0.80698 0.30042 0.94348 0.0
O446 O 0.80879 0.29143 0.93989 0.0
C447 C 0.78669 0.28244 0.91385 0.0
C448 C 0.82181 0.29275 0.90146 0.0
O449 O 0.81432 0.2985 0.90323 0.0
O450 O 0.82375 0.28578 0.90778 0.0
O451 O 0.79436 0.21443 0.58267 0.0
Cd452 Cd 0.80814 0.2033 0.57796 0.0
O453 O 0.78279 0.20316 0.57936 0.0
Cd454 Cd 0.79327 0.19329 0.57154 0.0
O455 O 0.7996 0.18736 0.55764 0.0
C456 C 0.79531 0.18003 0.55332 0.0
O457 O 0.78763 0.17574 0.55774 0.0
C458 C 0.7852 0.21176 0.58271 0.0
C459 C 0.82089 0.20031 0.59427 0.0
O460 O 0.8226 0.20726 0.58786 0.0
O461 O 0.8132 0.19471 0.59289 0.0
O462 O 0.7774 0.29523 0.07878 0.0
Cd463 Cd 0.78695 0.31022 0.07435 0.0
O464 O 0.79029 0.28522 0.07637 0.0
Cd465 Cd 0.79897 0.29673 0.06862 0.0
O466 O 0.80418 0.3033 0.05455 0.0
C467 C 0.80945 0.29772 0.0489 0.0
O468 O 0.81198 0.28877 0.05214 0.0
C469 C 0.78128 0.28653 0.07922 0.0
C470 C 0.79003 0.32213 0.09127 0.0
O471 O 0.78256 0.32368 0.08542 0.0
O472 O 0.79609 0.31501 0.08905 0.0
O473 O 0.6958 0.27745 0.58263 0.0
Cd474 Cd 0.68148 0.288 0.57819 0.0
O475 O 0.70631 0.29015 0.58274 0.0
Cd476 Cd 0.69581 0.29986 0.57478 0.0
O477 O 0.69098 0.30556 0.56019 0.0
C478 C 0.69805 0.30787 0.55423 0.0
O479 O 0.70734 0.3072 0.55745 0.0
C480 C 0.70452 0.28093 0.58435 0.0
C481 C 0.66912 0.29077 0.59484 0.0
O482 O 0.66745 0.28368 0.58856 0.0
O483 O 0.67656 0.29661 0.59318 0.0
O484 O 0.7179 0.19449 0.0789 0.0
Cd485 Cd 0.70685 0.18054 0.07454 0.0
O486 O 0.7059 0.20569 0.07737 0.0
Cd487 Cd 0.6959 0.19526 0.06966 0.0
O488 O 0.68986 0.19003 0.05536 0.0
C489 C 0.68641 0.19681 0.04962 0.0
O490 O 0.68616 0.20609 0.05291 0.0
C491 C 0.71486 0.20348 0.07976 0.0
C492 C 0.70332 0.16864 0.09136 0.0
O493 O 0.71044 0.16656 0.08524 0.0
O494 O 0.69781 0.17628 0.08946 0.0
O495 O 0.69815 0.21412 0.91444 0.0
Cd496 Cd 0.68453 0.20259 0.91858 0.0
O497 O 0.70989 0.20279 0.91686 0.0
Cd498 Cd 0.69954 0.19276 0.9246 0.0
O499 O 0.69268 0.1881 0.93873 0.0
C500 C 0.68898 0.19506 0.94408 0.0
O501 O 0.68896 0.20425 0.94053 0.0
C502 C 0.70732 0.21153 0.91404 0.0
C503 C 0.67286 0.19905 0.90159 0.0
O504 O 0.67048 0.20593 0.90787 0.0
O505 O 0.68068 0.19377 0.90343 0.0
O506 O 0.78455 0.20208 0.41025 0.0
Cd507 Cd 0.79644 0.1885 0.41337 0.0
O508 O 0.78788 0.2095 0.4246 0.0
Cd509 Cd 0.79786 0.19808 0.43076 0.0
O510 O 0.8035 0.19092 0.44436 0.0
C511 C 0.79909 0.18324 0.44786 0.0
O512 O 0.7917 0.17923 0.44271 0.0
C513 C 0.7832 0.20932 0.4163 0.0
C514 C 0.79838 0.17639 0.39643 0.0
O515 O 0.79202 0.17427 0.40332 0.0
O516 O 0.80387 0.18419 0.39761 0.0
O517 O 0.70754 0.29237 0.41077 0.0
Cd518 Cd 0.69624 0.30631 0.41442 0.0
O519 O 0.70072 0.28253 0.4221 0.0
Cd520 Cd 0.69152 0.29412 0.4291 0.0
O521 O 0.68766 0.30148 0.44323 0.0
C522 C 0.69508 0.30428 0.44853 0.0
O523 O 0.70417 0.30318 0.44488 0.0
C524 C 0.70698 0.28387 0.41504 0.0
C525 C 0.69441 0.31871 0.39769 0.0
O526 O 0.70097 0.32051 0.40448 0.0
O527 O 0.68866 0.31111 0.39887 0.0
H528 H 0.07922 0.28431 0.76748 0.0
H529 H 0.07993 0.27147 0.75444 0.0
H530 H 0.09976 0.25379 0.77293 0.0
H531 H 0.09918 0.26675 0.78593 0.0
H532 H 0.10649 0.25372 0.75502 0.0
H533 H 0.07418 0.24757 0.7692 0.0
H534 H 0.05687 0.2508 0.77486 0.0
H535 H 0.04862 0.25986 0.74511 0.0
H536 H 0.0659 0.25675 0.73927 0.0
H537 H 0.08372 0.21052 0.7223 0.0
H538 H 0.08302 0.22185 0.7367 0.0
H539 H 0.10269 0.24249 0.7214 0.0
H540 H 0.10346 0.23109 0.70702 0.0
H541 H 0.07609 0.23989 0.73868 0.0
H542 H 0.11686 0.2552 0.73813 0.0
H543 H 0.13385 0.24943 0.73361 0.0
H544 H 0.125 0.2189 0.73861 0.0
H545 H 0.10801 0.22449 0.74328 0.0
C546 C 0.08358 0.2776 0.76883 0.0
C547 C 0.08898 0.27641 0.77778 0.0
C548 C 0.084 0.27026 0.76136 0.0
C549 C 0.08974 0.26155 0.76276 0.0
C550 C 0.09524 0.26042 0.77168 0.0
C551 C 0.09491 0.26782 0.7791 0.0
C552 C 0.09033 0.2538 0.75478 0.0
C553 C 0.09983 0.25069 0.75147 0.0
C554 C 0.08165 0.2497 0.75023 0.0
C555 C 0.07137 0.252 0.75382 0.0
C556 C 0.06871 0.25037 0.76389 0.0
C557 C 0.05889 0.25214 0.76712 0.0
C558 C 0.05166 0.25553 0.76035 0.0
C559 C 0.05423 0.25723 0.75034 0.0
C560 C 0.06403 0.25545 0.74707 0.0
C561 C 0.08778 0.21753 0.72197 0.0
C562 C 0.09348 0.22004 0.71349 0.0
C563 C 0.08744 0.22397 0.73022 0.0
C564 C 0.09283 0.233 0.73016 0.0
C565 C 0.09859 0.23548 0.72169 0.0
C566 C 0.099 0.229 0.71347 0.0
C567 C 0.09223 0.23992 0.73886 0.0
C568 C 0.08274 0.24291 0.74226 0.0
C569 C 0.1009 0.2437 0.74368 0.0
C570 C 0.11113 0.24027 0.74096 0.0
C571 C 0.11855 0.24726 0.7383 0.0
C572 C 0.12818 0.24402 0.7357 0.0
C573 C 0.13049 0.23381 0.73579 0.0
C574 C 0.12319 0.22681 0.7385 0.0
C575 C 0.11356 0.23001 0.74111 0.0
H576 H 0.13795 0.23131 0.73377 0.0
H577 H 0.04404 0.25679 0.76282 0.0
H578 H 0.71635 0.60853 0.275 0.0
H579 H 0.72803 0.60884 0.26094 0.0
H580 H 0.73171 0.57677 0.26321 0.0
H581 H 0.72085 0.57661 0.27786 0.0
H582 H 0.74863 0.58411 0.25965 0.0
H583 H 0.7167 0.58896 0.2443 0.0
H584 H 0.70013 0.59668 0.24151 0.0
H585 H 0.7142 0.62481 0.23468 0.0
H586 H 0.73086 0.61729 0.23755 0.0
H587 H 0.76875 0.57831 0.21013 0.0
H588 H 0.75726 0.57792 0.22438 0.0
H589 H 0.76093 0.60978 0.2283 0.0
H590 H 0.77291 0.61014 0.21437 0.0
H591 H 0.7403 0.60231 0.22831 0.0
H592 H 0.7726 0.59609 0.24389 0.0
H593 H 0.78863 0.58705 0.24566 0.0
H594 H 0.77272 0.55955 0.25081 0.0
H595 H 0.75659 0.56842 0.24894 0.0
C596 C 0.71964 0.60153 0.2725 0.0
C597 C 0.7173 0.59246 0.27732 0.0
C598 C 0.72625 0.60171 0.26438 0.0
C599 C 0.73052 0.59278 0.26076 0.0
C600 C 0.72838 0.58375 0.26572 0.0
C601 C 0.72194 0.58361 0.27398 0.0
C602 C 0.73742 0.5929 0.25198 0.0
C603 C 0.74671 0.58797 0.25276 0.0
C604 C 0.73503 0.59803 0.24298 0.0
C605 C 0.72502 0.60258 0.24124 0.0
C606 C 0.71626 0.59681 0.24227 0.0
C607 C 0.70685 0.60115 0.24067 0.0
C608 C 0.70611 0.61123 0.23795 0.0
C609 C 0.71478 0.617 0.2368 0.0
C610 C 0.72421 0.6127 0.23841 0.0
C611 C 0.76743 0.58516 0.21423 0.0
C612 C 0.77209 0.59417 0.21138 0.0
C613 C 0.7607 0.58496 0.22226 0.0
C614 C 0.75836 0.5938 0.22744 0.0
C615 C 0.7627 0.60287 0.22441 0.0
C616 C 0.76953 0.60306 0.21646 0.0
C617 C 0.7514 0.59356 0.23607 0.0
C618 C 0.74214 0.59845 0.23523 0.0
C619 C 0.7537 0.58821 0.24491 0.0
C620 C 0.76339 0.5829 0.24618 0.0
C621 C 0.77252 0.58811 0.24533 0.0
C622 C 0.78163 0.58301 0.24636 0.0
C623 C 0.7817 0.57272 0.24832 0.0
C624 C 0.77266 0.56752 0.24928 0.0
C625 C 0.76353 0.57257 0.24825 0.0
H626 H 0.78875 0.56879 0.24911 0.0
H627 H 0.69882 0.61458 0.23671 0.0
H628 H 0.41657 0.22634 0.78077 0.0
H629 H 0.41572 0.23799 0.76663 0.0
H630 H 0.39069 0.22149 0.75449 0.0
H631 H 0.39165 0.20969 0.76852 0.0
H632 H 0.40486 0.22629 0.74008 0.0
H633 H 0.38664 0.24288 0.76661 0.0
H634 H 0.38445 0.24987 0.78359 0.0
H635 H 0.40902 0.27007 0.77862 0.0
H636 H 0.41143 0.26309 0.76165 0.0
H637 H 0.38436 0.26058 0.70556 0.0
H638 H 0.38719 0.24922 0.71964 0.0
H639 H 0.41048 0.2687 0.73079 0.0
H640 H 0.40738 0.28031 0.71692 0.0
H641 H 0.39858 0.26253 0.74568 0.0
H642 H 0.4165 0.24685 0.71906 0.0
H643 H 0.4191 0.23998 0.7021 0.0
H644 H 0.39597 0.21819 0.70718 0.0
H645 H 0.39312 0.22503 0.72413 0.0
C646 C 0.41103 0.22507 0.77498 0.0
C647 C 0.4043 0.21699 0.77563 0.0
C648 C 0.41047 0.23181 0.76698 0.0
C649 C 0.40313 0.2306 0.75952 0.0
C650 C 0.39643 0.22252 0.76015 0.0
C651 C 0.39695 0.21583 0.76818 0.0
C652 C 0.40235 0.23781 0.75111 0.0
C653 C 0.40338 0.2342 0.74129 0.0
C654 C 0.40075 0.24817 0.75272 0.0
C655 C 0.39928 0.25239 0.76291 0.0
C656 C 0.39163 0.24875 0.76917 0.0
C657 C 0.39034 0.25272 0.77879 0.0
C658 C 0.39661 0.26039 0.78219 0.0
C659 C 0.40417 0.26412 0.77598 0.0
C660 C 0.4055 0.26016 0.76636 0.0
C661 C 0.3901 0.26244 0.71101 0.0
C662 C 0.39585 0.27119 0.70998 0.0
C663 C 0.39175 0.25591 0.71901 0.0
C664 C 0.3992 0.258 0.72615 0.0
C665 C 0.4048 0.26687 0.72529 0.0
C666 C 0.40313 0.27342 0.71727 0.0
C667 C 0.40096 0.251 0.73461 0.0
C668 C 0.40013 0.25464 0.74445 0.0
C669 C 0.40283 0.24068 0.73302 0.0
C670 C 0.40453 0.23651 0.72284 0.0
C671 C 0.41191 0.24064 0.71653 0.0
C672 C 0.41344 0.23674 0.70692 0.0
C673 C 0.40769 0.22866 0.70356 0.0
C674 C 0.40041 0.22445 0.7098 0.0
C675 C 0.39884 0.22833 0.71941 0.0
H676 H 0.40889 0.22565 0.69612 0.0
H677 H 0.3956 0.26346 0.78963 0.0
H678 H 0.71426 0.88368 0.2183 0.0
H679 H 0.72584 0.88451 0.23254 0.0
H680 H 0.73792 0.91225 0.22115 0.0
H681 H 0.72662 0.91127 0.20675 0.0
H682 H 0.75258 0.89971 0.22709 0.0
H683 H 0.72184 0.91233 0.2409 0.0
H684 H 0.70381 0.91203 0.24495 0.0
H685 H 0.70798 0.88522 0.26225 0.0
H686 H 0.72603 0.88528 0.25819 0.0
H687 H 0.77931 0.91435 0.27056 0.0
H688 H 0.76744 0.9138 0.25663 0.0
H689 H 0.75509 0.88624 0.26818 0.0
H690 H 0.76669 0.887 0.28239 0.0
H691 H 0.74044 0.89879 0.26224 0.0
H692 H 0.77115 0.88612 0.24838 0.0
H693 H 0.78918 0.88639 0.24432 0.0
H694 H 0.78506 0.91325 0.22709 0.0
H695 H 0.76701 0.91322 0.23116 0.0
C696 C 0.71938 0.88997 0.21886 0.0
C697 C 0.71935 0.89756 0.21157 0.0
C698 C 0.72594 0.89046 0.22701 0.0
C699 C 0.73262 0.89854 0.228 0.0
C700 C 0.73275 0.90602 0.2206 0.0
C701 C 0.72618 0.90553 0.21246 0.0
C702 C 0.73958 0.89911 0.23665 0.0
C703 C 0.74992 0.89965 0.23478 0.0
C704 C 0.73612 0.89879 0.24668 0.0
C705 C 0.72527 0.89875 0.24915 0.0
C706 C 0.7189 0.90632 0.2455 0.0
C707 C 0.70868 0.90621 0.24781 0.0
C708 C 0.70474 0.8986 0.25383 0.0
C709 C 0.71103 0.8911 0.25758 0.0
C710 C 0.72126 0.89118 0.25528 0.0
C711 C 0.7739 0.90833 0.27029 0.0
C712 C 0.77376 0.90086 0.27771 0.0
C713 C 0.76723 0.90792 0.26222 0.0
C714 C 0.76041 0.89995 0.26133 0.0
C715 C 0.76027 0.89247 0.26873 0.0
C716 C 0.76693 0.89289 0.27681 0.0
C717 C 0.75344 0.89939 0.25268 0.0
C718 C 0.7431 0.89885 0.25455 0.0
C719 C 0.7569 0.8997 0.24265 0.0
C720 C 0.76775 0.89972 0.24016 0.0
C721 C 0.7741 0.89213 0.24379 0.0
C722 C 0.78432 0.89223 0.24148 0.0
C723 C 0.78827 0.89985 0.23547 0.0
C724 C 0.78199 0.90736 0.23175 0.0
C725 C 0.77177 0.9073 0.23405 0.0
H726 H 0.79619 0.89991 0.23369 0.0
H727 H 0.69683 0.89852 0.25562 0.0
H728 H 0.77163 0.08658 0.28191 0.0
H729 H 0.75774 0.08518 0.27003 0.0
H730 H 0.77483 0.10173 0.24811 0.0
H731 H 0.78868 0.10326 0.26005 0.0
H732 H 0.7569 0.1086 0.24846 0.0
H733 H 0.77083 0.07555 0.24638 0.0
H734 H 0.77682 0.05913 0.25242 0.0
H735 H 0.7477 0.0528 0.26459 0.0
H736 H 0.74154 0.06921 0.25867 0.0
H737 H 0.72279 0.08148 0.20971 0.0
H738 H 0.73726 0.08134 0.22097 0.0
H739 H 0.72263 0.103 0.24004 0.0
H740 H 0.70813 0.10313 0.2288 0.0
H741 H 0.73996 0.07654 0.24018 0.0
H742 H 0.73981 0.11899 0.24946 0.0
H743 H 0.7348 0.13497 0.2416 0.0
H744 H 0.73859 0.12196 0.21239 0.0
H745 H 0.74375 0.10596 0.22007 0.0
C746 C 0.77249 0.08974 0.27449 0.0
C747 C 0.7813 0.09486 0.27182 0.0
C748 C 0.76454 0.08896 0.2677 0.0
C749 C 0.76529 0.0932 0.25809 0.0
C750 C 0.77407 0.09837 0.25546 0.0
C751 C 0.78198 0.09924 0.26228 0.0
C752 C 0.75677 0.09263 0.25093 0.0
C753 C 0.75322 0.10157 0.24666 0.0
C754 C 0.75202 0.08346 0.24844 0.0
C755 C 0.75575 0.07366 0.25216 0.0
C756 C 0.76572 0.0707 0.25043 0.0
C757 C 0.76914 0.06138 0.25381 0.0
C758 C 0.76265 0.05494 0.25891 0.0
C759 C 0.75272 0.0578 0.26064 0.0
C760 C 0.74926 0.0671 0.25726 0.0
C761 C 0.72256 0.08602 0.21642 0.0
C762 C 0.71426 0.09218 0.21847 0.0
C763 C 0.73087 0.086 0.22281 0.0
C764 C 0.73106 0.0922 0.23132 0.0
C765 C 0.72271 0.09825 0.23345 0.0
C766 C 0.71443 0.09832 0.22703 0.0
C767 C 0.74008 0.09251 0.23784 0.0
C768 C 0.74368 0.08355 0.242 0.0
C769 C 0.74505 0.10162 0.24005 0.0
C770 C 0.74206 0.11125 0.23535 0.0
C771 C 0.73961 0.11956 0.24136 0.0
C772 C 0.73674 0.12861 0.23694 0.0
C773 C 0.73635 0.12947 0.2265 0.0
C774 C 0.73886 0.12128 0.22047 0.0
C775 C 0.74174 0.11221 0.22486 0.0
H776 H 0.73412 0.13649 0.22309 0.0
H777 H 0.76529 0.04772 0.26148 0.0
H778 H 0.90839 0.2709 0.78321 0.0
H779 H 0.90924 0.25743 0.77081 0.0
H780 H 0.89083 0.27482 0.75067 0.0
H781 H 0.88996 0.2883 0.76309 0.0
H782 H 0.88451 0.25655 0.75078 0.0
H783 H 0.91665 0.27184 0.74694 0.0
H784 H 0.93355 0.27816 0.751 0.0
H785 H 0.94218 0.24897 0.76143 0.0
H786 H 0.9253 0.24249 0.75753 0.0
H787 H 0.9124 0.2248 0.70995 0.0
H788 H 0.91152 0.23908 0.7214 0.0
H789 H 0.89043 0.22295 0.7399 0.0
H790 H 0.89118 0.20871 0.72832 0.0
H791 H 0.91658 0.24122 0.73986 0.0
H792 H 0.87477 0.23912 0.75164 0.0
H793 H 0.85851 0.23387 0.74453 0.0
H794 H 0.86961 0.23917 0.71479 0.0
H795 H 0.88588 0.24458 0.72173 0.0
C796 C 0.90472 0.27194 0.77605 0.0
C797 C 0.89932 0.28074 0.774 0.0
C798 C 0.90516 0.26421 0.76898 0.0
C799 C 0.90025 0.26517 0.75972 0.0
C800 C 0.89471 0.27391 0.75774 0.0
C801 C 0.89421 0.28161 0.76484 0.0
C802 C 0.90061 0.25694 0.75223 0.0
C803 C 0.89153 0.25321 0.74839 0.0
C804 C 0.90976 0.25265 0.74898 0.0
C805 C 0.91968 0.2567 0.75201 0.0
C806 C 0.9221 0.26681 0.75024 0.0
C807 C 0.93169 0.2704 0.75247 0.0
C808 C 0.93893 0.26396 0.75644 0.0
C809 C 0.93656 0.25394 0.75833 0.0
C810 C 0.92699 0.25031 0.75611 0.0
C811 C 0.90768 0.22427 0.71652 0.0
C812 C 0.902 0.21561 0.71836 0.0
C813 C 0.90712 0.23245 0.72303 0.0
C814 C 0.90087 0.23213 0.73149 0.0
C815 C 0.89518 0.22346 0.73333 0.0
C816 C 0.89564 0.21531 0.72675 0.0
C817 C 0.9005 0.24079 0.73847 0.0
C818 C 0.90956 0.24456 0.74226 0.0
C819 C 0.89136 0.2453 0.74145 0.0
C820 C 0.88157 0.24215 0.73721 0.0
C821 C 0.87372 0.2392 0.74359 0.0
C822 C 0.86451 0.23619 0.73959 0.0
C823 C 0.86304 0.23616 0.72922 0.0
C824 C 0.87077 0.23917 0.72282 0.0
C825 C 0.87999 0.24219 0.72678 0.0
H826 H 0.8559 0.23382 0.72614 0.0
H827 H 0.94641 0.26669 0.75797 0.0
H828 H 0.78506 0.38971 0.22815 0.0
H829 H 0.77071 0.38983 0.23959 0.0
H830 H 0.75557 0.41105 0.22042 0.0
H831 H 0.76997 0.41105 0.20907 0.0
H832 H 0.75277 0.4162 0.23902 0.0
H833 H 0.74945 0.38579 0.22048 0.0
H834 H 0.7548 0.36956 0.21342 0.0
H835 H 0.7594 0.35799 0.2431 0.0
H836 H 0.7542 0.3742 0.25034 0.0
H837 H 0.70511 0.38979 0.26137 0.0
H838 H 0.71883 0.39045 0.24919 0.0
H839 H 0.736 0.40884 0.26957 0.0
H840 H 0.72219 0.40838 0.28162 0.0
H841 H 0.73695 0.38417 0.24931 0.0
H842 H 0.75131 0.42464 0.25686 0.0
H843 H 0.74465 0.44107 0.26216 0.0
H844 H 0.7154 0.43286 0.25152 0.0
H845 H 0.72191 0.41646 0.24599 0.0
C846 C 0.77867 0.39442 0.22641 0.0
C847 C 0.77868 0.40049 0.21781 0.0
C848 C 0.77047 0.39447 0.23292 0.0
C849 C 0.76201 0.40038 0.23082 0.0
C850 C 0.76203 0.40648 0.22224 0.0
C851 C 0.77029 0.40653 0.21579 0.0
C852 C 0.75309 0.40013 0.2375 0.0
C853 C 0.74931 0.4092 0.24127 0.0
C854 C 0.74842 0.39101 0.24027 0.0
C855 C 0.75152 0.38124 0.23595 0.0
C856 C 0.75167 0.37981 0.2255 0.0
C857 C 0.75466 0.37061 0.22147 0.0
C858 C 0.75746 0.36276 0.22781 0.0
C859 C 0.75724 0.36408 0.2382 0.0
C860 C 0.75426 0.37327 0.24227 0.0
C861 C 0.71181 0.394 0.26321 0.0
C862 C 0.71252 0.39922 0.27232 0.0
C863 C 0.71965 0.39437 0.25626 0.0
C864 C 0.72839 0.39986 0.25837 0.0
C865 C 0.72922 0.40481 0.26763 0.0
C866 C 0.72132 0.40456 0.27451 0.0
C867 C 0.7367 0.40024 0.25096 0.0
C868 C 0.74039 0.39118 0.24706 0.0
C869 C 0.74109 0.4094 0.24785 0.0
C870 C 0.73709 0.41928 0.25109 0.0
C871 C 0.74346 0.42636 0.25561 0.0
C872 C 0.73971 0.43566 0.25866 0.0
C873 C 0.72961 0.43799 0.25719 0.0
C874 C 0.72322 0.43103 0.25267 0.0
C875 C 0.72694 0.42172 0.24958 0.0
H876 H 0.72674 0.44522 0.25951 0.0
H877 H 0.75977 0.35564 0.22467 0.0
H878 H 0.58865 0.21956 0.78512 0.0
H879 H 0.58609 0.23333 0.77329 0.0
H880 H 0.60078 0.21611 0.75014 0.0
H881 H 0.60345 0.20241 0.76201 0.0
H882 H 0.60778 0.23389 0.74994 0.0
H883 H 0.57446 0.22039 0.75075 0.0
H884 H 0.55821 0.21491 0.75767 0.0
H885 H 0.55314 0.24436 0.76962 0.0
H886 H 0.5694 0.25 0.76286 0.0
H887 H 0.57816 0.26788 0.71304 0.0
H888 H 0.57873 0.25356 0.72447 0.0
H889 H 0.60189 0.26819 0.74168 0.0
H890 H 0.60132 0.28254 0.73028 0.0
H891 H 0.57539 0.25119 0.74405 0.0
H892 H 0.6184 0.25089 0.75003 0.0
H893 H 0.63379 0.25564 0.74094 0.0
H894 H 0.61858 0.25173 0.71283 0.0
H895 H 0.60314 0.24683 0.72176 0.0
C896 C 0.59114 0.21864 0.77745 0.0
C897 C 0.5961 0.20986 0.77443 0.0
C898 C 0.58968 0.22652 0.77069 0.0
C899 C 0.59309 0.22572 0.76076 0.0
C900 C 0.59806 0.21692 0.75775 0.0
C901 C 0.5996 0.2091 0.76454 0.0
C902 C 0.59204 0.23423 0.75365 0.0
C903 C 0.60067 0.23764 0.74867 0.0
C904 C 0.58277 0.23911 0.75187 0.0
C905 C 0.57321 0.23559 0.75637 0.0
C906 C 0.56995 0.22566 0.75497 0.0
C907 C 0.56071 0.22254 0.75883 0.0
C908 C 0.55465 0.22929 0.76409 0.0
C909 C 0.55784 0.23915 0.76555 0.0
C910 C 0.56706 0.24231 0.76169 0.0
C911 C 0.58319 0.26815 0.7194 0.0
C912 C 0.58957 0.2764 0.72088 0.0
C913 C 0.58358 0.25992 0.72587 0.0
C914 C 0.59039 0.25977 0.73389 0.0
C915 C 0.59667 0.26808 0.73546 0.0
C916 C 0.59632 0.27628 0.72896 0.0
C917 C 0.59112 0.25083 0.74047 0.0
C918 C 0.58246 0.24739 0.74537 0.0
C919 C 0.60031 0.24577 0.74202 0.0
C920 C 0.60959 0.24859 0.73657 0.0
C921 C 0.61836 0.25101 0.74191 0.0
C922 C 0.62708 0.25373 0.73679 0.0
C923 C 0.62715 0.25402 0.72631 0.0
C924 C 0.6185 0.25154 0.72094 0.0
C925 C 0.60976 0.24881 0.72603 0.0
H926 H 0.63392 0.25614 0.72236 0.0
H927 H 0.54746 0.22691 0.76697 0.0
H928 H 0.26622 0.78355 0.07945 0.0
H929 H 0.25464 0.76936 0.07974 0.0
H930 H 0.269 0.75817 0.10648 0.0
H931 H 0.28083 0.77221 0.10602 0.0
H932 H 0.26557 0.74328 0.09287 0.0
H933 H 0.24681 0.77005 0.10801 0.0
H934 H 0.23949 0.787 0.10902 0.0
H935 H 0.22224 0.7813 0.08244 0.0
H936 H 0.22956 0.76436 0.0812 0.0
H937 H 0.2283 0.708 0.10674 0.0
H938 H 0.23991 0.72221 0.10661 0.0
H939 H 0.22487 0.73427 0.08064 0.0
H940 H 0.21298 0.72033 0.08103 0.0
H941 H 0.22876 0.74867 0.09385 0.0
H942 H 0.24745 0.7221 0.07847 0.0
H943 H 0.2548 0.70519 0.07714 0.0
H944 H 0.27221 0.71049 0.1037 0.0
H945 H 0.26487 0.7274 0.10526 0.0
C946 C 0.26707 0.77794 0.08524 0.0
C947 C 0.27458 0.77885 0.09257 0.0
C948 C 0.26034 0.76992 0.0855 0.0
C949 C 0.26093 0.76273 0.09316 0.0
C950 C 0.26842 0.76363 0.10049 0.0
C951 C 0.27514 0.77166 0.10025 0.0
C952 C 0.25375 0.75426 0.0935 0.0
C953 C 0.25753 0.74444 0.09322 0.0
C954 C 0.24325 0.7558 0.09371 0.0
C955 C 0.23881 0.76597 0.09446 0.0
C956 C 0.24152 0.77244 0.10234 0.0
C957 C 0.23735 0.78204 0.10296 0.0
C958 C 0.23042 0.78523 0.09578 0.0
C959 C 0.22762 0.77882 0.08798 0.0
C960 C 0.23177 0.76922 0.08732 0.0
C961 C 0.22748 0.71369 0.10101 0.0
C962 C 0.21993 0.71289 0.0937 0.0
C963 C 0.23415 0.72176 0.1009 0.0
C964 C 0.23339 0.72919 0.09348 0.0
C965 C 0.22568 0.72855 0.08635 0.0
C966 C 0.21899 0.72049 0.08647 0.0
C967 C 0.24058 0.73767 0.09321 0.0
C968 C 0.23681 0.74749 0.0935 0.0
C969 C 0.25108 0.73613 0.09297 0.0
C970 C 0.25553 0.72598 0.09204 0.0
C971 C 0.25279 0.71963 0.08407 0.0
C972 C 0.25696 0.71005 0.08327 0.0
C973 C 0.26395 0.70676 0.09035 0.0
C974 C 0.26679 0.71305 0.09823 0.0
C975 C 0.26263 0.72263 0.09907 0.0
H976 H 0.26717 0.69934 0.08971 0.0
H977 H 0.22721 0.79267 0.09628 0.0
H978 H 0.26565 0.71085 0.39218 0.0
H979 H 0.25386 0.72488 0.39101 0.0
H980 H 0.27131 0.74131 0.41278 0.0
H981 H 0.28293 0.72721 0.41412 0.0
H982 H 0.2528 0.74328 0.41716 0.0
H983 H 0.2717 0.74678 0.38701 0.0
H984 H 0.27922 0.74146 0.37098 0.0
H985 H 0.24993 0.73553 0.359 0.0
H986 H 0.24223 0.7407 0.37501 0.0
H987 H 0.22924 0.78966 0.38961 0.0
H988 H 0.24193 0.77644 0.39083 0.0
H989 H 0.22177 0.7588 0.40896 0.0
H990 H 0.20911 0.77199 0.40775 0.0
H991 H 0.24243 0.75815 0.38471 0.0
H992 H 0.23501 0.74437 0.42552 0.0
H993 H 0.23081 0.75097 0.44228 0.0
H994 H 0.24084 0.78024 0.43346 0.0
H995 H 0.24521 0.7738 0.41669 0.0
C996 C 0.26694 0.71747 0.3967 0.0
C997 C 0.27508 0.7179 0.40337 0.0
C998 C 0.26024 0.7255 0.396 0.0
C999 C 0.26173 0.7342 0.40175 0.0
C1000 C 0.26995 0.73466 0.40832 0.0
C1001 C 0.27655 0.72658 0.40913 0.0
C1002 C 0.25461 0.74275 0.40113 0.0
C1003 C 0.25052 0.74652 0.41006 0.0
C1004 C 0.2518 0.74714 0.39189 0.0
C1005 C 0.2564 0.74404 0.38224 0.0
C1006 C 0.26686 0.74427 0.38098 0.0
C1007 C 0.27116 0.7413 0.37189 0.0
C1008 C 0.26506 0.73813 0.36399 0.0
C1009 C 0.25464 0.73797 0.36514 0.0
C1010 C 0.25031 0.74093 0.37421 0.0
C1011 C 0.22755 0.78296 0.39388 0.0
C1012 C 0.2183 0.78195 0.3988 0.0
C1013 C 0.23479 0.77542 0.39458 0.0
C1014 C 0.23288 0.76669 0.40014 0.0
C1015 C 0.22353 0.76558 0.40487 0.0
C1016 C 0.21632 0.77315 0.40422 0.0
C1017 C 0.24055 0.75863 0.40075 0.0
C1018 C 0.2447 0.75491 0.39181 0.0
C1019 C 0.24365 0.75449 0.41002 0.0
C1020 C 0.24036 0.75861 0.41981 0.0
C1021 C 0.23627 0.75223 0.42714 0.0
C1022 C 0.23388 0.75593 0.43665 0.0
C1023 C 0.2356 0.766 0.43894 0.0
C1024 C 0.23952 0.77244 0.43167 0.0
C1025 C 0.24192 0.76877 0.42214 0.0
H1026 H 0.23399 0.76878 0.44637 0.0
H1027 H 0.2684 0.73583 0.35696 0.0
H1028 H 0.2235 0.70817 0.90914 0.0
H1029 H 0.23679 0.72078 0.90912 0.0
H1030 H 0.21826 0.74026 0.89111 0.0
H1031 H 0.20499 0.72759 0.89104 0.0
H1032 H 0.23621 0.74029 0.88398 0.0
H1033 H 0.22243 0.74471 0.91677 0.0
H1034 H 0.21673 0.73993 0.93369 0.0
H1035 H 0.24631 0.72945 0.94089 0.0
H1036 H 0.25218 0.73412 0.92399 0.0
H1037 H 0.26951 0.78198 0.90819 0.0
H1038 H 0.25516 0.77059 0.90891 0.0
H1039 H 0.27007 0.75053 0.88835 0.0
H1040 H 0.28442 0.76193 0.88761 0.0
H1041 H 0.25301 0.75196 0.91505 0.0
H1042 H 0.25307 0.73918 0.87343 0.0
H1043 H 0.25759 0.7459 0.85681 0.0
H1044 H 0.253 0.77591 0.86753 0.0
H1045 H 0.24833 0.76936 0.88417 0.0
C1046 C 0.22219 0.71523 0.90536 0.0
C1047 C 0.21314 0.717 0.90028 0.0
C1048 C 0.22981 0.72242 0.90532 0.0
C1049 C 0.22847 0.73156 0.90027 0.0
C1050 C 0.21946 0.73329 0.89509 0.0
C1051 C 0.21188 0.72605 0.89506 0.0
C1052 C 0.2366 0.73918 0.90009 0.0
C1053 C 0.23986 0.74285 0.89078 0.0
C1054 C 0.24127 0.74267 0.90897 0.0
C1055 C 0.23773 0.7397 0.91908 0.0
C1056 C 0.2277 0.74131 0.92193 0.0
C1057 C 0.22444 0.73864 0.93153 0.0
C1058 C 0.23115 0.73438 0.93835 0.0
C1059 C 0.24112 0.73276 0.93559 0.0
C1060 C 0.24443 0.73543 0.92602 0.0
C1061 C 0.2698 0.77506 0.90398 0.0
C1062 C 0.27815 0.77274 0.89799 0.0
C1063 C 0.26157 0.76859 0.90433 0.0
C1064 C 0.26151 0.75973 0.89864 0.0
C1065 C 0.26988 0.75739 0.89269 0.0
C1066 C 0.27808 0.76389 0.89229 0.0
C1067 C 0.2527 0.75293 0.89893 0.0
C1068 C 0.24933 0.7494 0.90826 0.0
C1069 C 0.24775 0.74977 0.89009 0.0
C1070 C 0.25045 0.75378 0.88007 0.0
C1071 C 0.25299 0.74721 0.87223 0.0
C1072 C 0.25558 0.75099 0.86281 0.0
C1073 C 0.25561 0.76133 0.86112 0.0
C1074 C 0.25301 0.76791 0.86885 0.0
C1075 C 0.2504 0.76416 0.87828 0.0
H1076 H 0.25762 0.76424 0.85382 0.0
H1077 H 0.22863 0.73236 0.94579 0.0
H1078 H 0.27276 0.71203 0.58397 0.0
H1079 H 0.25865 0.72367 0.58263 0.0
H1080 H 0.27079 0.74119 0.60698 0.0
H1081 H 0.28499 0.72959 0.60825 0.0
H1082 H 0.2508 0.73865 0.60886 0.0
H1083 H 0.27364 0.74854 0.58281 0.0
H1084 H 0.28423 0.74606 0.56786 0.0
H1085 H 0.25834 0.7376 0.5507 0.0
H1086 H 0.24761 0.73981 0.56561 0.0
H1087 H 0.22233 0.78302 0.60186 0.0
H1088 H 0.23589 0.77076 0.6035 0.0
H1089 H 0.2239 0.75412 0.57846 0.0
H1090 H 0.21033 0.76635 0.57684 0.0
H1091 H 0.24372 0.75605 0.57677 0.0
H1092 H 0.22088 0.74593 0.60255 0.0
H1093 H 0.21012 0.74814 0.61742 0.0
H1094 H 0.23574 0.7568 0.63489 0.0
H1095 H 0.24664 0.75477 0.62009 0.0
C1096 C 0.27252 0.71847 0.58889 0.0
C1097 C 0.28012 0.72011 0.59599 0.0
C1098 C 0.26442 0.72506 0.58819 0.0
C1099 C 0.26378 0.73341 0.59457 0.0
C1100 C 0.27117 0.73483 0.60193 0.0
C1101 C 0.27927 0.72822 0.60265 0.0
C1102 C 0.25545 0.74069 0.59354 0.0
C1103 C 0.24932 0.74255 0.60188 0.0
C1104 C 0.25339 0.74557 0.58435 0.0
C1105 C 0.25983 0.74424 0.57537 0.0
C1106 C 0.27021 0.74605 0.57588 0.0
C1107 C 0.27624 0.74471 0.56741 0.0
C1108 C 0.27196 0.74166 0.55834 0.0
C1109 C 0.26164 0.73994 0.55773 0.0
C1110 C 0.25559 0.74124 0.56619 0.0
C1111 C 0.2226 0.77674 0.59672 0.0
C1112 C 0.21542 0.77575 0.58908 0.0
C1113 C 0.23032 0.76972 0.59768 0.0
C1114 C 0.23089 0.7615 0.59112 0.0
C1115 C 0.22366 0.76046 0.58354 0.0
C1116 C 0.21596 0.7675 0.58256 0.0
C1117 C 0.23907 0.75403 0.5921 0.0
C1118 C 0.24518 0.75213 0.58374 0.0
C1119 C 0.2411 0.74908 0.60126 0.0
C1120 C 0.23456 0.75029 0.61018 0.0
C1121 C 0.22421 0.74838 0.60954 0.0
C1122 C 0.21808 0.74959 0.61796 0.0
C1123 C 0.22224 0.75263 0.62709 0.0
C1124 C 0.23253 0.75445 0.62782 0.0
C1125 C 0.23869 0.75326 0.61942 0.0
H1126 H 0.21748 0.75356 0.6336 0.0
H1127 H 0.27664 0.74065 0.55179 0.0
H1128 H 0.91026 0.78663 0.26161 0.0
H1129 H 0.90719 0.77218 0.25083 0.0
H1130 H 0.90472 0.75318 0.27688 0.0
H1131 H 0.90803 0.76758 0.28772 0.0
H1132 H 0.91718 0.74531 0.26404 0.0
H1133 H 0.88414 0.75866 0.26174 0.0
H1134 H 0.87115 0.77154 0.25906 0.0
H1135 H 0.88112 0.7755 0.22872 0.0
H1136 H 0.89426 0.76274 0.23125 0.0
H1137 H 0.90718 0.70273 0.23412 0.0
H1138 H 0.90391 0.71624 0.24608 0.0
H1139 H 0.90929 0.73813 0.22293 0.0
H1140 H 0.91249 0.7247 0.2109 0.0
H1141 H 0.89362 0.74359 0.2353 0.0
H1142 H 0.92782 0.73185 0.23853 0.0
H1143 H 0.94092 0.71907 0.24122 0.0
H1144 H 0.92849 0.71221 0.27011 0.0
H1145 H 0.91523 0.72486 0.26752 0.0
C1146 C 0.90891 0.77941 0.26507 0.0
C1147 C 0.90946 0.77825 0.27553 0.0
C1148 C 0.90709 0.77115 0.25888 0.0
C1149 C 0.90565 0.76159 0.26304 0.0
C1150 C 0.90582 0.76049 0.2735 0.0
C1151 C 0.9077 0.76873 0.27969 0.0
C1152 C 0.90493 0.75264 0.25645 0.0
C1153 C 0.91186 0.74485 0.2579 0.0
C1154 C 0.89815 0.75211 0.24829 0.0
C1155 C 0.89024 0.75979 0.24672 0.0
C1156 C 0.88361 0.76233 0.25452 0.0
C1157 C 0.87621 0.7696 0.25302 0.0
C1158 C 0.87532 0.77435 0.24373 0.0
C1159 C 0.88182 0.77182 0.23591 0.0
C1160 C 0.88924 0.76456 0.23737 0.0
C1161 C 0.90754 0.71041 0.23153 0.0
C1162 C 0.91022 0.71263 0.22158 0.0
C1163 C 0.90568 0.71812 0.23838 0.0
C1164 C 0.90649 0.72818 0.23542 0.0
C1165 C 0.90864 0.73041 0.22537 0.0
C1166 C 0.91051 0.72272 0.21852 0.0
C1167 C 0.90589 0.73638 0.2429 0.0
C1168 C 0.89878 0.74402 0.24157 0.0
C1169 C 0.91248 0.73678 0.2512 0.0
C1170 C 0.92047 0.72921 0.25278 0.0
C1171 C 0.92784 0.72756 0.24542 0.0
C1172 C 0.9353 0.72035 0.24693 0.0
C1173 C 0.93552 0.71481 0.25582 0.0
C1174 C 0.92829 0.71649 0.26322 0.0
C1175 C 0.92081 0.72368 0.26173 0.0
H1176 H 0.9413 0.70924 0.25698 0.0
H1177 H 0.86959 0.77997 0.24259 0.0
H1178 H 0.2022 0.41287 0.75633 0.0
H1179 H 0.21689 0.40966 0.74593 0.0
H1180 H 0.23383 0.40143 0.77223 0.0
H1181 H 0.21921 0.40483 0.78273 0.0
H1182 H 0.2436 0.41487 0.7617 0.0
H1183 H 0.22743 0.38395 0.75407 0.0
H1184 H 0.21358 0.37285 0.74891 0.0
H1185 H 0.21252 0.38724 0.72014 0.0
H1186 H 0.22628 0.39852 0.72517 0.0
H1187 H 0.287 0.40509 0.73325 0.0
H1188 H 0.27245 0.40153 0.74378 0.0
H1189 H 0.25277 0.41157 0.72017 0.0
H1190 H 0.26726 0.41503 0.70952 0.0
H1191 H 0.24502 0.39533 0.73007 0.0
H1192 H 0.25952 0.42744 0.73855 0.0
H1193 H 0.27317 0.43882 0.74366 0.0
H1194 H 0.27705 0.4222 0.77094 0.0
H1195 H 0.2635 0.41064 0.76593 0.0
C1196 C 0.209 0.41021 0.7599 0.0
C1197 C 0.20955 0.40919 0.77038 0.0
C1198 C 0.21739 0.40832 0.75392 0.0
C1199 C 0.22646 0.40524 0.75828 0.0
C1200 C 0.22691 0.4038 0.7687 0.0
C1201 C 0.21853 0.40574 0.77469 0.0
C1202 C 0.2357 0.40453 0.75211 0.0
C1203 C 0.24397 0.4104 0.75491 0.0
C1204 C 0.23612 0.39891 0.7431 0.0
C1205 C 0.22785 0.39213 0.74003 0.0
C1206 C 0.2242 0.3848 0.74667 0.0
C1207 C 0.21637 0.37847 0.74376 0.0
C1208 C 0.21216 0.37935 0.73421 0.0
C1209 C 0.21579 0.38656 0.72754 0.0
C1210 C 0.22361 0.39292 0.73041 0.0
C1211 C 0.27958 0.40642 0.73023 0.0
C1212 C 0.2783 0.41047 0.72058 0.0
C1213 C 0.27127 0.40438 0.73627 0.0
C1214 C 0.26154 0.40644 0.73282 0.0
C1215 C 0.26021 0.40995 0.72299 0.0
C1216 C 0.26852 0.41196 0.71693 0.0
C1217 C 0.25282 0.4057 0.73967 0.0
C1218 C 0.24466 0.39963 0.73697 0.0
C1219 C 0.25246 0.41115 0.74877 0.0
C1220 C 0.26058 0.41811 0.75181 0.0
C1221 C 0.26334 0.42617 0.7456 0.0
C1222 C 0.27105 0.43266 0.74849 0.0
C1223 C 0.276 0.43121 0.75761 0.0
C1224 C 0.27323 0.42329 0.76387 0.0
C1225 C 0.26553 0.41678 0.76102 0.0
H1226 H 0.28197 0.43624 0.75983 0.0
H1227 H 0.2061 0.37444 0.73197 0.0
H1228 H 0.57382 0.76144 0.20286 0.0
H1229 H 0.57639 0.74734 0.21421 0.0
H1230 H 0.58859 0.76734 0.23649 0.0
H1231 H 0.58614 0.78153 0.22513 0.0
H1232 H 0.59871 0.74912 0.23579 0.0
H1233 H 0.56472 0.761 0.23804 0.0
H1234 H 0.54817 0.76592 0.23141 0.0
H1235 H 0.54392 0.7363 0.21955 0.0
H1236 H 0.56052 0.73124 0.22598 0.0
H1237 H 0.58853 0.72004 0.27967 0.0
H1238 H 0.59039 0.73275 0.26662 0.0
H1239 H 0.57623 0.71301 0.24527 0.0
H1240 H 0.57419 0.70033 0.25829 0.0
H1241 H 0.56765 0.73089 0.24512 0.0
H1242 H 0.60138 0.71866 0.24386 0.0
H1243 H 0.61789 0.71384 0.25064 0.0
H1244 H 0.62267 0.74398 0.26089 0.0
H1245 H 0.60612 0.74895 0.25429 0.0
C1246 C 0.57718 0.76285 0.21011 0.0
C1247 C 0.57966 0.77264 0.21313 0.0
C1248 C 0.57863 0.75477 0.2166 0.0
C1249 C 0.58253 0.75632 0.22625 0.0
C1250 C 0.58554 0.76599 0.22909 0.0
C1251 C 0.5841 0.7741 0.22259 0.0
C1252 C 0.58275 0.748 0.2336 0.0
C1253 C 0.59192 0.74517 0.23791 0.0
C1254 C 0.57391 0.74277 0.23623 0.0
C1255 C 0.5639 0.74578 0.2324 0.0
C1256 C 0.56029 0.75556 0.23394 0.0
C1257 C 0.55089 0.75837 0.23024 0.0
C1258 C 0.54501 0.75144 0.22504 0.0
C1259 C 0.54849 0.74167 0.22356 0.0
C1260 C 0.55789 0.73882 0.22724 0.0
C1261 C 0.58594 0.71834 0.27217 0.0
C1262 C 0.58114 0.70919 0.27005 0.0
C1263 C 0.58706 0.7256 0.2647 0.0
C1264 C 0.58349 0.72382 0.25495 0.0
C1265 C 0.57903 0.71455 0.25274 0.0
C1266 C 0.57788 0.7073 0.2602 0.0
C1267 C 0.58364 0.73188 0.24729 0.0
C1268 C 0.57449 0.73473 0.24295 0.0
C1269 C 0.5925 0.73712 0.24468 0.0
C1270 C 0.60246 0.73416 0.24866 0.0
C1271 C 0.60591 0.72424 0.24763 0.0
C1272 C 0.61529 0.72149 0.25143 0.0
C1273 C 0.62131 0.7286 0.25621 0.0
C1274 C 0.61799 0.73848 0.25719 0.0
C1275 C 0.60861 0.74127 0.25341 0.0
H1276 H 0.62857 0.72645 0.25915 0.0
H1277 H 0.53774 0.75363 0.22217 0.0
H1278 H 0.2691 0.08534 0.78662 0.0
H1279 H 0.25472 0.08898 0.77586 0.0
H1280 H 0.27323 0.08491 0.74965 0.0
H1281 H 0.2877 0.08152 0.76034 0.0
H1282 H 0.26011 0.09984 0.74672 0.0
H1283 H 0.25876 0.06577 0.75889 0.0
H1284 H 0.25847 0.05259 0.77185 0.0
H1285 H 0.23166 0.0653 0.78438 0.0
H1286 H 0.23188 0.07863 0.77156 0.0
H1287 H 0.22592 0.08221 0.71001 0.0
H1288 H 0.23928 0.08541 0.72209 0.0
H1289 H 0.21727 0.09029 0.74528 0.0
H1290 H 0.20382 0.08701 0.73324 0.0
H1291 H 0.23118 0.07684 0.75087 0.0
H1292 H 0.23146 0.10966 0.73676 0.0
H1293 H 0.23186 0.12229 0.72329 0.0
H1294 H 0.26069 0.11153 0.71382 0.0
H1295 H 0.2604 0.09873 0.72714 0.0
C1296 C 0.27015 0.08536 0.77857 0.0
C1297 C 0.27953 0.08301 0.77433 0.0
C1298 C 0.26191 0.08742 0.77243 0.0
C1299 C 0.26286 0.08703 0.76195 0.0
C1300 C 0.27232 0.08523 0.75772 0.0
C1301 C 0.28058 0.08325 0.76385 0.0
C1302 C 0.25389 0.08774 0.7554 0.0
C1303 C 0.2538 0.09479 0.74758 0.0
C1304 C 0.24555 0.08129 0.75666 0.0
C1305 C 0.2454 0.07326 0.76435 0.0
C1306 C 0.25285 0.06579 0.76446 0.0
C1307 C 0.25269 0.05829 0.77177 0.0
C1308 C 0.24507 0.05813 0.77895 0.0
C1309 C 0.23757 0.06545 0.77883 0.0
C1310 C 0.23771 0.07298 0.77154 0.0
C1311 C 0.22389 0.08412 0.71764 0.0
C1312 C 0.21379 0.08429 0.72067 0.0
C1313 C 0.23155 0.086 0.72453 0.0
C1314 C 0.22927 0.08814 0.73457 0.0
C1315 C 0.21919 0.08867 0.73755 0.0
C1316 C 0.21151 0.08681 0.73065 0.0
C1317 C 0.23742 0.08887 0.74211 0.0
C1318 C 0.23739 0.08204 0.75009 0.0
C1319 C 0.24565 0.09547 0.74093 0.0
C1320 C 0.24587 0.10318 0.73292 0.0
C1321 C 0.23785 0.10993 0.73176 0.0
C1322 C 0.23806 0.11714 0.72416 0.0
C1323 C 0.24628 0.1177 0.71769 0.0
C1324 C 0.25432 0.11108 0.71883 0.0
C1325 C 0.25414 0.10385 0.72642 0.0
H1326 H 0.24644 0.12329 0.71181 0.0
H1327 H 0.24496 0.05231 0.78461 0.0
H1328 H 0.23101 0.91075 0.70579 0.0
H1329 H 0.24242 0.90752 0.71968 0.0
H1330 H 0.21723 0.90447 0.73976 0.0
H1331 H 0.20575 0.90799 0.72591 0.0
H1332 H 0.23024 0.91673 0.7474 0.0
H1333 H 0.23245 0.88411 0.73315 0.0
H1334 H 0.23471 0.87146 0.71985 0.0
H1335 H 0.26468 0.882 0.71468 0.0
H1336 H 0.26256 0.89481 0.72785 0.0
H1337 H 0.26243 0.90614 0.78819 0.0
H1338 H 0.24991 0.90292 0.77519 0.0
H1339 H 0.27174 0.90978 0.75236 0.0
H1340 H 0.28433 0.91297 0.76528 0.0
H1341 H 0.25947 0.89371 0.74713 0.0
H1342 H 0.25614 0.92757 0.75988 0.0
H1343 H 0.25383 0.94024 0.77315 0.0
H1344 H 0.2256 0.92697 0.78113 0.0
H1345 H 0.22783 0.91413 0.76799 0.0
C1346 C 0.22787 0.90923 0.71312 0.0
C1347 C 0.21746 0.90969 0.71475 0.0
C1348 C 0.23442 0.90732 0.72107 0.0
C1349 C 0.23069 0.90567 0.73077 0.0
C1350 C 0.22028 0.90573 0.73234 0.0
C1351 C 0.21372 0.90773 0.72441 0.0
C1352 C 0.23769 0.90482 0.7394 0.0
C1353 C 0.23649 0.91152 0.74743 0.0
C1354 C 0.24599 0.89818 0.73937 0.0
C1355 C 0.24731 0.89047 0.73145 0.0
C1356 C 0.2395 0.88378 0.72913 0.0
C1357 C 0.24076 0.87657 0.72162 0.0
C1358 C 0.24983 0.87594 0.71641 0.0
C1359 C 0.25766 0.8825 0.71872 0.0
C1360 C 0.25644 0.88973 0.72622 0.0
C1361 C 0.26462 0.90683 0.7804 0.0
C1362 C 0.27436 0.90993 0.77778 0.0
C1363 C 0.25745 0.90499 0.77298 0.0
C1364 C 0.25988 0.90623 0.76282 0.0
C1365 C 0.26972 0.90879 0.76016 0.0
C1366 C 0.27689 0.91066 0.76757 0.0
C1367 C 0.252 0.90566 0.755 0.0
C1368 C 0.25309 0.89876 0.74714 0.0
C1369 C 0.24357 0.91208 0.75517 0.0
C1370 C 0.2422 0.91983 0.76304 0.0
C1371 C 0.24948 0.92731 0.76452 0.0
C1372 C 0.24818 0.93453 0.77201 0.0
C1373 C 0.23959 0.93439 0.778 0.0
C1374 C 0.23226 0.92705 0.7765 0.0
C1375 C 0.23354 0.91981 0.76903 0.0
H1376 H 0.23859 0.93999 0.78379 0.0
H1377 H 0.25079 0.87036 0.7106 0.0
H1378 H 0.08396 0.70782 0.22309 0.0
H1379 H 0.08688 0.71931 0.23706 0.0
H1380 H 0.08329 0.74453 0.21714 0.0
H1381 H 0.08064 0.73309 0.20309 0.0
H1382 H 0.09758 0.74836 0.23061 0.0
H1383 H 0.06369 0.73583 0.23144 0.0
H1384 H 0.05059 0.72279 0.23184 0.0
H1385 H 0.06246 0.71153 0.25956 0.0
H1386 H 0.07571 0.72443 0.25925 0.0
H1387 H 0.07926 0.78588 0.26388 0.0
H1388 H 0.08245 0.77359 0.25069 0.0
H1389 H 0.08747 0.75078 0.27304 0.0
H1390 H 0.08424 0.76301 0.2863 0.0
H1391 H 0.07393 0.74498 0.25912 0.0
H1392 H 0.10679 0.75927 0.25899 0.0
H1393 H 0.11931 0.77284 0.2584 0.0
H1394 H 0.10882 0.78145 0.22921 0.0
H1395 H 0.09612 0.76802 0.22969 0.0
C1396 C 0.08393 0.71581 0.22165 0.0
C1397 C 0.08194 0.71954 0.212 0.0
C1398 C 0.08557 0.72237 0.22965 0.0
C1399 C 0.0851 0.73278 0.22819 0.0
C1400 C 0.08366 0.73652 0.21846 0.0
C1401 C 0.08211 0.72997 0.21043 0.0
C1402 C 0.08541 0.73977 0.23685 0.0
C1403 C 0.09237 0.74767 0.23682 0.0
C1404 C 0.07874 0.73876 0.24504 0.0
C1405 C 0.07076 0.73102 0.24526 0.0
C1406 C 0.06355 0.73053 0.23758 0.0
C1407 C 0.05609 0.72317 0.23779 0.0
C1408 C 0.05571 0.71632 0.2457 0.0
C1409 C 0.06277 0.71683 0.25343 0.0
C1410 C 0.07026 0.72417 0.25324 0.0
C1411 C 0.08118 0.77829 0.26601 0.0
C1412 C 0.08143 0.77542 0.27616 0.0
C1413 C 0.08306 0.77128 0.25845 0.0
C1414 C 0.08525 0.76128 0.26088 0.0
C1415 C 0.08581 0.75847 0.271 0.0
C1416 C 0.08397 0.76548 0.27857 0.0
C1417 C 0.08606 0.75362 0.25287 0.0
C1418 C 0.07925 0.7456 0.253 0.0
C1419 C 0.0928 0.7546 0.24474 0.0
C1420 C 0.10044 0.76268 0.24442 0.0
C1421 C 0.10709 0.7641 0.25248 0.0
C1422 C 0.11423 0.77176 0.25216 0.0
C1423 C 0.11485 0.77802 0.24378 0.0
C1424 C 0.10833 0.77661 0.2357 0.0
C1425 C 0.10117 0.76896 0.23599 0.0
H1426 H 0.12038 0.78394 0.24354 0.0
H1427 H 0.04993 0.71063 0.24586 0.0
H1428 H 0.23076 0.58239 0.7876 0.0
H1429 H 0.24159 0.58577 0.77327 0.0
H1430 H 0.21557 0.58994 0.7545 0.0
H1431 H 0.20466 0.58639 0.76878 0.0
H1432 H 0.22816 0.57708 0.74627 0.0
H1433 H 0.23113 0.6097 0.76044 0.0
H1434 H 0.23405 0.62226 0.77368 0.0
H1435 H 0.26419 0.61156 0.77743 0.0
H1436 H 0.2614 0.59882 0.76432 0.0
H1437 H 0.25847 0.58683 0.70406 0.0
H1438 H 0.24654 0.59028 0.71754 0.0
H1439 H 0.26954 0.5844 0.73949 0.0
H1440 H 0.28156 0.58106 0.72609 0.0
H1441 H 0.25743 0.60001 0.74519 0.0
H1442 H 0.25357 0.56614 0.73283 0.0
H1443 H 0.2507 0.55328 0.71986 0.0
H1444 H 0.22209 0.56637 0.71298 0.0
H1445 H 0.22486 0.5794 0.72584 0.0
C1446 C 0.22732 0.58419 0.78047 0.0
C1447 C 0.21684 0.58405 0.77933 0.0
C1448 C 0.23354 0.58618 0.77228 0.0
C1449 C 0.2294 0.58817 0.76281 0.0
C1450 C 0.21893 0.58843 0.76174 0.0
C1451 C 0.2127 0.58641 0.76992 0.0
C1452 C 0.23599 0.58899 0.75388 0.0
C1453 C 0.23442 0.58227 0.74594 0.0
C1454 C 0.2443 0.59559 0.75355 0.0
C1455 C 0.24603 0.60325 0.76144 0.0
C1456 C 0.23836 0.60997 0.76414 0.0
C1457 C 0.23999 0.61713 0.77162 0.0
C1458 C 0.24929 0.6177 0.77641 0.0
C1459 C 0.25698 0.61111 0.77372 0.0
C1460 C 0.25538 0.60393 0.76625 0.0
C1461 C 0.26104 0.58641 0.71175 0.0
C1462 C 0.27095 0.58355 0.71399 0.0
C1463 C 0.2542 0.58837 0.71944 0.0
C1464 C 0.25712 0.58744 0.72951 0.0
C1465 C 0.26713 0.58514 0.73177 0.0
C1466 C 0.27398 0.58319 0.72409 0.0
C1467 C 0.2496 0.58806 0.73768 0.0
C1468 C 0.25104 0.59498 0.74547 0.0
C1469 C 0.24116 0.58164 0.73791 0.0
C1470 C 0.23947 0.5738 0.7302 0.0
C1471 C 0.2467 0.56632 0.7285 0.0
C1472 C 0.24509 0.55899 0.72117 0.0
C1473 C 0.23623 0.55903 0.71557 0.0
C1474 C 0.22896 0.56637 0.71731 0.0
C1475 C 0.23054 0.57372 0.72461 0.0
H1476 H 0.23499 0.55335 0.70991 0.0
H1477 H 0.25054 0.62325 0.78219 0.0
H1478 H 0.40799 0.72717 0.2869 0.0
H1479 H 0.40515 0.73823 0.27262 0.0
H1480 H 0.40623 0.71282 0.25262 0.0
H1481 H 0.40931 0.70173 0.26685 0.0
H1482 H 0.41821 0.7269 0.24623 0.0
H1483 H 0.38416 0.72605 0.25692 0.0
H1484 H 0.37004 0.7272 0.26879 0.0
H1485 H 0.37711 0.75807 0.27451 0.0
H1486 H 0.39137 0.75708 0.26278 0.0
H1487 H 0.40891 0.75711 0.2038 0.0
H1488 H 0.40563 0.74458 0.21676 0.0
H1489 H 0.40754 0.76748 0.23951 0.0
H1490 H 0.41075 0.78008 0.22662 0.0
H1491 H 0.39253 0.75368 0.24349 0.0
H1492 H 0.42766 0.75366 0.23435 0.0
H1493 H 0.44186 0.75247 0.22257 0.0
H1494 H 0.43249 0.7229 0.21399 0.0
H1495 H 0.41814 0.72397 0.22563 0.0
C1496 C 0.40746 0.7239 0.27948 0.0
C1497 C 0.40895 0.71357 0.27801 0.0
C1498 C 0.40578 0.73024 0.27132 0.0
C1499 C 0.40541 0.72636 0.26153 0.0
C1500 C 0.40649 0.71599 0.26009 0.0
C1501 C 0.40824 0.70965 0.26825 0.0
C1502 C 0.40484 0.73321 0.25278 0.0
C1503 C 0.41245 0.7326 0.24553 0.0
C1504 C 0.39747 0.74081 0.25196 0.0
C1505 C 0.38889 0.74146 0.25902 0.0
C1506 C 0.38276 0.73306 0.26077 0.0
C1507 C 0.37472 0.73369 0.26746 0.0
C1508 C 0.37269 0.7427 0.27241 0.0
C1509 C 0.37869 0.7511 0.27067 0.0
C1510 C 0.38675 0.75051 0.26399 0.0
C1511 C 0.40849 0.75952 0.21155 0.0
C1512 C 0.41021 0.76958 0.21418 0.0
C1513 C 0.40663 0.75234 0.21894 0.0
C1514 C 0.40647 0.75509 0.2291 0.0
C1515 C 0.40764 0.76521 0.23171 0.0
C1516 C 0.40952 0.77239 0.22433 0.0
C1517 C 0.40591 0.74735 0.23705 0.0
C1518 C 0.39816 0.74784 0.24414 0.0
C1519 C 0.41313 0.73961 0.23774 0.0
C1520 C 0.42177 0.73894 0.23077 0.0
C1521 C 0.42858 0.74694 0.22989 0.0
C1522 C 0.43666 0.74628 0.22325 0.0
C1523 C 0.43806 0.73763 0.21751 0.0
C1524 C 0.43139 0.7296 0.21842 0.0
C1525 C 0.42328 0.73023 0.22504 0.0
H1526 H 0.44432 0.73713 0.21237 0.0
H1527 H 0.36646 0.74317 0.27759 0.0
H1528 H 0.76712 0.28719 0.90992 0.0
H1529 H 0.75323 0.27562 0.90696 0.0
H1530 H 0.77368 0.2506 0.90845 0.0
H1531 H 0.78766 0.26213 0.91115 0.0
H1532 H 0.75966 0.24731 0.89448 0.0
H1533 H 0.76012 0.25796 0.929 0.0
H1534 H 0.7601 0.27025 0.94282 0.0
H1535 H 0.73173 0.28173 0.9328 0.0
H1536 H 0.73165 0.26958 0.91883 0.0
H1537 H 0.72752 0.20843 0.912 0.0
H1538 H 0.74046 0.221 0.90891 0.0
H1539 H 0.71772 0.24384 0.9062 0.0
H1540 H 0.70471 0.23133 0.90935 0.0
H1541 H 0.73212 0.24899 0.91943 0.0
H1542 H 0.73103 0.23657 0.88585 0.0
H1543 H 0.73125 0.22374 0.87255 0.0
H1544 H 0.76095 0.21491 0.88132 0.0
H1545 H 0.76086 0.22761 0.89477 0.0
C1546 C 0.76869 0.27923 0.90949 0.0
C1547 C 0.77848 0.27557 0.9109 0.0
C1548 C 0.76074 0.27263 0.90782 0.0
C1549 C 0.76239 0.26223 0.90769 0.0
C1550 C 0.77222 0.25859 0.90856 0.0
C1551 C 0.7802 0.2652 0.91013 0.0
C1552 C 0.75383 0.25513 0.90735 0.0
C1553 C 0.75367 0.24763 0.89997 0.0
C1554 C 0.74591 0.25566 0.91441 0.0
C1555 C 0.74593 0.26295 0.92281 0.0
C1556 C 0.75391 0.26316 0.9297 0.0
C1557 C 0.75392 0.27009 0.93757 0.0
C1558 C 0.74594 0.27679 0.93867 0.0
C1559 C 0.73792 0.27655 0.93192 0.0
C1560 C 0.73789 0.26964 0.92404 0.0
C1561 C 0.72524 0.21609 0.9106 0.0
C1562 C 0.71507 0.21888 0.91099 0.0
C1563 C 0.73266 0.22327 0.90878 0.0
C1564 C 0.73005 0.23335 0.90728 0.0
C1565 C 0.71989 0.23609 0.90733 0.0
C1566 C 0.71246 0.22892 0.90912 0.0
C1567 C 0.73795 0.24113 0.90659 0.0
C1568 C 0.73802 0.24875 0.91384 0.0
C1569 C 0.74581 0.24063 0.89947 0.0
C1570 C 0.7459 0.233 0.89137 0.0
C1571 C 0.73758 0.23184 0.885 0.0
C1572 C 0.73769 0.2246 0.87742 0.0
C1573 C 0.7461 0.2185 0.8761 0.0
C1574 C 0.75444 0.21964 0.88235 0.0
C1575 C 0.75436 0.22687 0.88994 0.0
H1576 H 0.74617 0.2129 0.87023 0.0
H1577 H 0.74595 0.28215 0.94476 0.0
H1578 H 0.72364 0.28599 0.58982 0.0
H1579 H 0.73775 0.27467 0.59275 0.0
H1580 H 0.71829 0.24921 0.58839 0.0
H1581 H 0.70409 0.26047 0.58569 0.0
H1582 H 0.73177 0.24546 0.60291 0.0
H1583 H 0.73243 0.25844 0.56915 0.0
H1584 H 0.73266 0.27171 0.55629 0.0
H1585 H 0.7602 0.28318 0.56841 0.0
H1586 H 0.76006 0.27003 0.58143 0.0
H1587 H 0.76501 0.20838 0.584 0.0
H1588 H 0.75186 0.22061 0.58752 0.0
H1589 H 0.77425 0.24345 0.59225 0.0
H1590 H 0.78748 0.23128 0.58865 0.0
H1591 H 0.76016 0.24944 0.5792 0.0
H1592 H 0.7604 0.23473 0.61179 0.0
H1593 H 0.76003 0.22104 0.62419 0.0
H1594 H 0.73079 0.2123 0.61391 0.0
H1595 H 0.73104 0.22586 0.60135 0.0
C1596 C 0.72232 0.27798 0.58963 0.0
C1597 C 0.71276 0.27413 0.58739 0.0
C1598 C 0.7304 0.27152 0.59128 0.0
C1599 C 0.72911 0.2611 0.59059 0.0
C1600 C 0.71947 0.25723 0.58893 0.0
C1601 C 0.71136 0.26368 0.58735 0.0
C1602 C 0.73788 0.25426 0.59084 0.0
C1603 C 0.73796 0.24628 0.5977 0.0
C1604 C 0.74605 0.25546 0.58417 0.0
C1605 C 0.74617 0.26333 0.57633 0.0
C1606 C 0.73849 0.26383 0.56911 0.0
C1607 C 0.73861 0.27133 0.56179 0.0
C1608 C 0.74642 0.2783 0.56155 0.0
C1609 C 0.75414 0.27778 0.56862 0.0
C1610 C 0.75405 0.27031 0.57596 0.0
C1611 C 0.76716 0.21596 0.58593 0.0
C1612 C 0.77731 0.21886 0.58598 0.0
C1613 C 0.75963 0.22294 0.588 0.0
C1614 C 0.76207 0.23293 0.59021 0.0
C1615 C 0.7722 0.23577 0.59058 0.0
C1616 C 0.77975 0.2288 0.58853 0.0
C1617 C 0.75405 0.24056 0.59123 0.0
C1618 C 0.75407 0.24868 0.58455 0.0
C1619 C 0.74597 0.23943 0.59801 0.0
C1620 C 0.74577 0.23127 0.60557 0.0
C1621 C 0.75392 0.22984 0.61212 0.0
C1622 C 0.75373 0.22211 0.61919 0.0
C1623 C 0.7454 0.21579 0.61983 0.0
C1624 C 0.73724 0.2172 0.61341 0.0
C1625 C 0.7374 0.22492 0.60632 0.0
H1626 H 0.74526 0.20981 0.6253 0.0
H1627 H 0.7465 0.2841 0.55588 0.0
H1628 H 0.76122 0.28617 0.08358 0.0
H1629 H 0.75077 0.27147 0.08665 0.0
H1630 H 0.7769 0.25246 0.08498 0.0
H1631 H 0.78738 0.2671 0.0817 0.0
H1632 H 0.76268 0.24557 0.07328 0.0
H1633 H 0.7642 0.25634 0.10732 0.0
H1634 H 0.76298 0.26818 0.12146 0.0
H1635 H 0.73168 0.27255 0.11532 0.0
H1636 H 0.73274 0.26083 0.10105 0.0
H1637 H 0.73496 0.20178 0.08365 0.0
H1638 H 0.74692 0.21537 0.08651 0.0
H1639 H 0.72284 0.23692 0.08538 0.0
H1640 H 0.7108 0.2234 0.08259 0.0
H1641 H 0.73697 0.24166 0.09986 0.0
H1642 H 0.73611 0.23247 0.06482 0.0
H1643 H 0.73728 0.22075 0.05056 0.0
H1644 H 0.7676 0.21359 0.05874 0.0
H1645 H 0.76655 0.22518 0.07314 0.0
C1646 C 0.76478 0.27888 0.08402 0.0
C1647 C 0.77513 0.27781 0.08232 0.0
C1648 C 0.75879 0.27048 0.08583 0.0
C1649 C 0.76305 0.26086 0.08611 0.0
C1650 C 0.77344 0.25981 0.08479 0.0
C1651 C 0.77943 0.2682 0.08293 0.0
C1652 C 0.75656 0.25184 0.08686 0.0
C1653 C 0.75722 0.24462 0.07923 0.0
C1654 C 0.74925 0.25071 0.09448 0.0
C1655 C 0.74857 0.25776 0.10306 0.0
C1656 C 0.75708 0.25988 0.10893 0.0
C1657 C 0.75641 0.26656 0.11698 0.0
C1658 C 0.74726 0.27113 0.11927 0.0
C1659 C 0.73876 0.26901 0.11353 0.0
C1660 C 0.73939 0.26234 0.10547 0.0
C1661 C 0.73217 0.20939 0.08416 0.0
C1662 C 0.72193 0.21151 0.08277 0.0
C1663 C 0.73903 0.21715 0.08578 0.0
C1664 C 0.73578 0.22715 0.08602 0.0
C1665 C 0.7255 0.22925 0.0852 0.0
C1666 C 0.71864 0.2215 0.08356 0.0
C1667 C 0.74312 0.23548 0.08628 0.0
C1668 C 0.74257 0.24257 0.09404 0.0
C1669 C 0.75055 0.23653 0.07879 0.0
C1670 C 0.75121 0.22959 0.07012 0.0
C1671 C 0.74299 0.22833 0.06362 0.0
C1672 C 0.74364 0.22172 0.05551 0.0
C1673 C 0.7525 0.2164 0.05376 0.0
C1674 C 0.76074 0.2177 0.06011 0.0
C1675 C 0.76012 0.22429 0.06825 0.0
H1676 H 0.75299 0.2113 0.04748 0.0
H1677 H 0.74676 0.2763 0.12551 0.0
H1678 H 0.70836 0.26526 0.42342 0.0
H1679 H 0.72126 0.25265 0.42054 0.0
H1680 H 0.73451 0.27126 0.39766 0.0
H1681 H 0.72171 0.28407 0.40065 0.0
H1682 H 0.72759 0.24135 0.40547 0.0
H1683 H 0.76004 0.26902 0.39948 0.0
H1684 H 0.7645 0.28658 0.40329 0.0
H1685 H 0.74554 0.28592 0.4293 0.0
H1686 H 0.74107 0.26834 0.42571 0.0
H1687 H 0.77185 0.21168 0.39925 0.0
H1688 H 0.75913 0.22454 0.39603 0.0
H1689 H 0.7652 0.2378 0.42491 0.0
H1690 H 0.77799 0.22519 0.42808 0.0
H1691 H 0.76273 0.25199 0.4115 0.0
H1692 H 0.74525 0.22162 0.42101 0.0
H1693 H 0.74052 0.20382 0.41935 0.0
H1694 H 0.72908 0.20944 0.38979 0.0
H1695 H 0.73385 0.22726 0.39124 0.0
C1696 C 0.71394 0.26665 0.41769 0.0
C1697 C 0.71407 0.27574 0.41236 0.0
C1698 C 0.72129 0.2594 0.41602 0.0
C1699 C 0.72893 0.26106 0.40898 0.0
C1700 C 0.72877 0.26989 0.40324 0.0
C1701 C 0.72143 0.27719 0.40494 0.0
C1702 C 0.73739 0.25387 0.40828 0.0
C1703 C 0.73529 0.24369 0.40666 0.0
C1704 C 0.74743 0.2569 0.40995 0.0
C1705 C 0.75013 0.26743 0.41224 0.0
C1706 C 0.75684 0.27263 0.40602 0.0
C1707 C 0.75937 0.28258 0.40814 0.0
C1708 C 0.75527 0.28737 0.41651 0.0
C1709 C 0.74867 0.28222 0.4228 0.0
C1710 C 0.74614 0.27226 0.42072 0.0
C1711 C 0.77053 0.21739 0.40487 0.0
C1712 C 0.7759 0.21736 0.41395 0.0
C1713 C 0.76323 0.22471 0.40303 0.0
C1714 C 0.76114 0.23207 0.41027 0.0
C1715 C 0.7667 0.23221 0.4192 0.0
C1716 C 0.774 0.22495 0.42102 0.0
C1717 C 0.75291 0.23944 0.40886 0.0
C1718 C 0.75506 0.24967 0.41006 0.0
C1719 C 0.74289 0.23642 0.40706 0.0
C1720 C 0.74001 0.22573 0.40619 0.0
C1721 C 0.74179 0.21904 0.41413 0.0
C1722 C 0.7391 0.20895 0.41323 0.0
C1723 C 0.73453 0.20549 0.40445 0.0
C1724 C 0.73263 0.21213 0.39657 0.0
C1725 C 0.73533 0.22222 0.39743 0.0
H1726 H 0.73245 0.19768 0.40377 0.0
H1727 H 0.75723 0.29508 0.41814 0.0
H1728 H 0.04098 0.20731 0.72577 0.0
H1729 H 0.02312 0.20733 0.72978 0.0
H1730 H 0.01934 0.23488 0.71328 0.0
H1731 H 0.03727 0.23503 0.70942 0.0
H1732 H 0.00742 0.23468 0.7297 0.0
H1733 H 0.01453 0.21259 0.70217 0.0
H1734 H 0.02309 0.19872 0.69342 0.0
H1735 H 0.01248 0.17797 0.71561 0.0
H1736 H 0.00396 0.19175 0.72457 0.0
H1737 H 0.95608 0.22807 0.7143 0.0
H1738 H 0.97414 0.23092 0.71593 0.0
H1739 H 0.97667 0.20464 0.73455 0.0
H1740 H 0.95865 0.20175 0.73302 0.0
H1741 H 0.98922 0.20437 0.71814 0.0
H1742 H 0.98091 0.22693 0.74493 0.0
H1743 H 0.97199 0.24107 0.75285 0.0
H1744 H 0.98429 0.26125 0.73102 0.0
H1745 H 0.99326 0.24723 0.72295 0.0
C1746 C 0.03638 0.21344 0.72309 0.0
C1747 C 0.04052 0.22108 0.71714 0.0
C1748 C 0.02617 0.21344 0.72538 0.0
C1749 C 0.01986 0.221 0.72166 0.0
C1750 C 0.02406 0.22895 0.7162 0.0
C1751 C 0.03431 0.22899 0.71396 0.0
C1752 C 0.00881 0.22016 0.72275 0.0
C1753 C 0.00342 0.22809 0.72711 0.0
C1754 C 0.00361 0.21152 0.71947 0.0
C1755 C 0.0087 0.20321 0.7141 0.0
C1756 C 0.01409 0.20508 0.70522 0.0
C1757 C 0.01892 0.19724 0.70022 0.0
C1758 C 0.01835 0.18748 0.70398 0.0
C1759 C 0.01293 0.18554 0.71272 0.0
C1760 C 0.00809 0.19336 0.71776 0.0
C1761 C 0.96045 0.22299 0.71887 0.0
C1762 C 0.95594 0.21463 0.72345 0.0
C1763 C 0.97076 0.22466 0.71985 0.0
C1764 C 0.97673 0.218 0.72539 0.0
C1765 C 0.97219 0.20988 0.73027 0.0
C1766 C 0.96188 0.20824 0.72937 0.0
C1767 C 0.98781 0.21884 0.72515 0.0
C1768 C 0.99322 0.21091 0.72086 0.0
C1769 C 0.99297 0.22753 0.72838 0.0
C1770 C 0.98766 0.236 0.73326 0.0
C1771 C 0.98165 0.23437 0.74177 0.0
C1772 C 0.97662 0.24237 0.74631 0.0
C1773 C 0.97754 0.25204 0.74241 0.0
C1774 C 0.98356 0.25375 0.73401 0.0
C1775 C 0.98865 0.24578 0.72948 0.0
H1776 H 0.97358 0.25821 0.74589 0.0
H1777 H 0.0221 0.18142 0.70009 0.0
H1778 H 0.78794 0.5408 0.2233 0.0
H1779 H 0.78798 0.52275 0.22646 0.0
H1780 H 0.76789 0.51827 0.2015 0.0
H1781 H 0.76766 0.5363 0.19841 0.0
H1782 H 0.76263 0.50664 0.21698 0.0
H1783 H 0.79319 0.51425 0.19921 0.0
H1784 H 0.80924 0.52299 0.19636 0.0
H1785 H 0.82047 0.51191 0.22442 0.0
H1786 H 0.80443 0.50321 0.22749 0.0
H1787 H 0.77186 0.45558 0.20494 0.0
H1788 H 0.76999 0.4738 0.20529 0.0
H1789 H 0.7899 0.47544 0.23073 0.0
H1790 H 0.7919 0.45722 0.23037 0.0
H1791 H 0.79515 0.48858 0.21647 0.0
H1792 H 0.76492 0.47975 0.23353 0.0
H1793 H 0.7489 0.47092 0.23615 0.0
H1794 H 0.73701 0.48411 0.20931 0.0
H1795 H 0.75302 0.49291 0.20644 0.0
C1796 C 0.78348 0.53598 0.21852 0.0
C1797 C 0.77786 0.53998 0.21055 0.0
C1798 C 0.78353 0.52566 0.22032 0.0
C1799 C 0.77805 0.51914 0.21413 0.0
C1800 C 0.77219 0.52315 0.20636 0.0
C1801 C 0.7721 0.53347 0.20459 0.0
C1802 C 0.77865 0.50812 0.2155 0.0
C1803 C 0.76973 0.50267 0.21678 0.0
C1804 C 0.78793 0.50297 0.21548 0.0
C1805 C 0.79758 0.50818 0.21363 0.0
C1806 C 0.79906 0.51374 0.2048 0.0
C1807 C 0.80815 0.51868 0.20314 0.0
C1808 C 0.81586 0.51803 0.21021 0.0
C1809 C 0.81449 0.51242 0.21895 0.0
C1810 C 0.8054 0.50749 0.22066 0.0
C1811 C 0.77577 0.4598 0.21067 0.0
C1812 C 0.78206 0.45495 0.21761 0.0
C1813 C 0.77465 0.47021 0.21089 0.0
C1814 C 0.77975 0.47597 0.21809 0.0
C1815 C 0.7859 0.47113 0.22512 0.0
C1816 C 0.78701 0.46072 0.22492 0.0
C1817 C 0.77913 0.48707 0.21787 0.0
C1818 C 0.78805 0.49254 0.21677 0.0
C1819 C 0.76985 0.49222 0.21803 0.0
C1820 C 0.76021 0.48692 0.21972 0.0
C1821 C 0.75892 0.4807 0.22813 0.0
C1822 C 0.74983 0.47571 0.22968 0.0
C1823 C 0.74195 0.47693 0.22289 0.0
C1824 C 0.74313 0.48316 0.21455 0.0
C1825 C 0.75221 0.48816 0.21297 0.0
H1826 H 0.73492 0.47307 0.2241 0.0
H1827 H 0.82289 0.52185 0.20891 0.0
H1828 H 0.53487 0.26711 0.70847 0.0
H1829 H 0.51679 0.26428 0.70727 0.0
H1830 H 0.51131 0.29229 0.72248 0.0
H1831 H 0.52936 0.29512 0.72384 0.0
H1832 H 0.49886 0.27784 0.72917 0.0
H1833 H 0.50945 0.29065 0.69714 0.0
H1834 H 0.51961 0.29103 0.6817 0.0
H1835 H 0.50899 0.26169 0.67378 0.0
H1836 H 0.49886 0.26109 0.68925 0.0
H1837 H 0.44887 0.28805 0.714 0.0
H1838 H 0.46692 0.28827 0.7171 0.0
H1839 H 0.46996 0.25987 0.70194 0.0
H1840 H 0.4519 0.25961 0.69873 0.0
H1841 H 0.48369 0.27333 0.6955 0.0
H1842 H 0.47211 0.26111 0.72713 0.0
H1843 H 0.46183 0.26101 0.74249 0.0
H1844 H 0.47415 0.28947 0.75112 0.0
H1845 H 0.4844 0.2898 0.73573 0.0
C1846 C 0.52982 0.27264 0.71162 0.0
C1847 C 0.53356 0.28138 0.71619 0.0
C1848 C 0.51949 0.27102 0.7109 0.0
C1849 C 0.51271 0.27814 0.71467 0.0
C1850 C 0.51642 0.28671 0.71951 0.0
C1851 C 0.52674 0.28833 0.72025 0.0
C1852 C 0.50174 0.27682 0.71331 0.0
C1853 C 0.49553 0.27694 0.7218 0.0
C1854 C 0.49742 0.27543 0.70372 0.0
C1855 C 0.50349 0.27578 0.69441 0.0
C1856 C 0.50934 0.28425 0.69215 0.0
C1857 C 0.51508 0.28451 0.68338 0.0
C1858 C 0.51497 0.27638 0.67678 0.0
C1859 C 0.50909 0.26798 0.67891 0.0
C1860 C 0.50334 0.26768 0.68767 0.0
C1861 C 0.45336 0.28181 0.71137 0.0
C1862 C 0.44894 0.27382 0.7061 0.0
C1863 C 0.46367 0.28193 0.7132 0.0
C1864 C 0.46977 0.27404 0.70982 0.0
C1865 C 0.46538 0.26602 0.70462 0.0
C1866 C 0.45506 0.26588 0.70282 0.0
C1867 C 0.48078 0.27441 0.71135 0.0
C1868 C 0.48702 0.27413 0.70288 0.0
C1869 C 0.4851 0.27569 0.72095 0.0
C1870 C 0.47896 0.27552 0.73023 0.0
C1871 C 0.47256 0.26738 0.73226 0.0
C1872 C 0.46675 0.26728 0.74098 0.0
C1873 C 0.46732 0.27524 0.74777 0.0
C1874 C 0.47371 0.28331 0.74585 0.0
C1875 C 0.47953 0.28346 0.73714 0.0
H1876 H 0.46282 0.27515 0.75452 0.0
H1877 H 0.51942 0.27659 0.67 0.0
H1878 H 0.72521 0.95686 0.19135 0.0
H1879 H 0.72525 0.97483 0.19483 0.0
H1880 H 0.71045 0.96949 0.22308 0.0
H1881 H 0.71023 0.9515 0.21958 0.0
H1882 H 0.70154 0.98426 0.21313 0.0
H1883 H 0.7353 0.97621 0.22211 0.0
H1884 H 0.75218 0.96902 0.21982 0.0
H1885 H 0.75707 0.98813 0.1944 0.0
H1886 H 0.74016 0.99535 0.19645 0.0
H1887 H 0.70615 0.03449 0.22981 0.0
H1888 H 0.7083 0.01632 0.22882 0.0
H1889 H 0.72211 0.01945 0.19975 0.0
H1890 H 0.7201 0.03763 0.20072 0.0
H1891 H 0.73187 0.00571 0.21125 0.0
H1892 H 0.69776 0.01286 0.20166 0.0
H1893 H 0.68084 0.02001 0.20386 0.0
H1894 H 0.67669 0.00242 0.23048 0.0
H1895 H 0.69364 0.99527 0.22852 0.0
C1896 C 0.72203 0.95949 0.19834 0.0
C1897 C 0.7177 0.95274 0.20518 0.0
C1898 C 0.72211 0.96977 0.20034 0.0
C1899 C 0.71795 0.9735 0.20926 0.0
C1900 C 0.71372 0.96678 0.21616 0.0
C1901 C 0.71361 0.95649 0.21415 0.0
C1902 C 0.71758 0.98446 0.21116 0.0
C1903 C 0.70821 0.98892 0.21291 0.0
C1904 C 0.72624 0.99057 0.21064 0.0
C1905 C 0.73642 0.98626 0.20939 0.0
C1906 C 0.73994 0.97883 0.21598 0.0
C1907 C 0.74952 0.97476 0.21474 0.0
C1908 C 0.75568 0.9781 0.20696 0.0
C1909 C 0.75228 0.98554 0.20042 0.0
C1910 C 0.74271 0.98964 0.20163 0.0
C1911 C 0.70971 0.03133 0.22323 0.0
C1912 C 0.71288 0.03751 0.21531 0.0
C1913 C 0.71091 0.02094 0.22267 0.0
C1914 C 0.71525 0.01653 0.21415 0.0
C1915 C 0.71873 0.0227 0.20638 0.0
C1916 C 0.71754 0.03309 0.20694 0.0
C1917 C 0.71584 0.00547 0.21317 0.0
C1918 C 0.72524 0.00101 0.21157 0.0
C1919 C 0.70721 -0.00066 0.21383 0.0
C1920 C 0.69701 0.00362 0.215 0.0
C1921 C 0.69327 0.01058 0.20803 0.0
C1922 C 0.68367 0.01462 0.20922 0.0
C1923 C 0.67771 0.01169 0.21732 0.0
C1924 C 0.68132 0.0047 0.22423 0.0
C1925 C 0.69092 0.00064 0.22307 0.0
H1926 H 0.67027 0.01483 0.21823 0.0
H1927 H 0.7631 0.97494 0.20601 0.0
H1928 H 0.95116 0.26638 0.78692 0.0
H1929 H 0.96885 0.26167 0.78594 0.0
H1930 H 0.97347 0.28352 0.76258 0.0
H1931 H 0.95577 0.28822 0.76343 0.0
H1932 H 0.98418 0.26617 0.75913 0.0
H1933 H 0.9787 0.28954 0.7863 0.0
H1934 H 0.97072 0.29555 0.80185 0.0
H1935 H 0.98088 0.26927 0.81741 0.0
H1936 H 0.98881 0.26303 0.80189 0.0
H1937 H 0.03493 0.28124 0.76527 0.0
H1938 H 0.01691 0.27878 0.76307 0.0
H1939 H 0.01685 0.25722 0.78715 0.0
H1940 H 0.03487 0.25966 0.78943 0.0
H1941 H 0.00362 0.272 0.7903 0.0
H1942 H 0.01084 0.24944 0.7636 0.0
H1943 H 0.01873 0.24334 0.74803 0.0
H1944 H 0.00568 0.26777 0.73165 0.0
H1945 H -0.00229 0.27403 0.74712 0.0
C1946 C 0.95592 0.27014 0.78152 0.0
C1947 C 0.9521 0.2778 0.77537 0.0
C1948 C 0.96602 0.26741 0.78095 0.0
C1949 C 0.97249 0.27234 0.77428 0.0
C1950 C 0.9686 0.27964 0.76779 0.0
C1951 C 0.95849 0.28236 0.76834 0.0
C1952 C 0.98345 0.27052 0.77465 0.0
C1953 C 0.98846 0.26746 0.76592 0.0
C1954 C 0.98898 0.27201 0.78358 0.0
C1955 C 0.98424 0.27576 0.79291 0.0
C1956 C 0.97916 0.285 0.79302 0.0
C1957 C 0.97466 0.28846 0.80183 0.0
C1958 C 0.97526 0.28278 0.81061 0.0
C1959 C 0.9804 0.27365 0.8106 0.0
C1960 C 0.9849 0.27015 0.8018 0.0
C1961 C 0.03112 0.27586 0.77 0.0
C1962 C 0.0363 0.27077 0.77764 0.0
C1963 C 0.02083 0.27439 0.76866 0.0
C1964 C 0.01554 0.26779 0.77493 0.0
C1965 C 0.02079 0.26233 0.78223 0.0
C1966 C 0.03109 0.26376 0.78354 0.0
C1967 C 0.00442 0.26766 0.77475 0.0
C1968 C -0.00064 0.27046 0.78353 0.0
C1969 C -0.00111 0.26591 0.76587 0.0
C1970 C 0.00376 0.26226 0.75655 0.0
C1971 C 0.00972 0.25356 0.75669 0.0
C1972 C 0.01418 0.25005 0.74788 0.0
C1973 C 0.01275 0.25519 0.73887 0.0
C1974 C 0.00682 0.26382 0.73865 0.0
C1975 C 0.0023 0.26733 0.74743 0.0
H1976 H 0.0162 0.25246 0.73205 0.0
H1977 H 0.97178 0.28547 0.81742 0.0
H1978 H 0.72477 0.45263 0.28122 0.0
H1979 H 0.72774 0.47071 0.28055 0.0
H1980 H 0.69969 0.4748 0.26497 0.0
H1981 H 0.69677 0.45674 0.2654 0.0
H1982 H 0.71369 0.48684 0.25735 0.0
H1983 H 0.70169 0.47853 0.29047 0.0
H1984 H 0.70193 0.46957 0.30663 0.0
H1985 H 0.73129 0.48123 0.31287 0.0
H1986 H 0.73127 0.49016 0.29667 0.0
H1987 H 0.70137 0.53721 0.26957 0.0
H1988 H 0.70219 0.51906 0.26728 0.0
H1989 H 0.73093 0.5184 0.28212 0.0
H1990 H 0.73014 0.53656 0.28451 0.0
H1991 H 0.71829 0.5046 0.28971 0.0
H1992 H 0.72943 0.51434 0.25711 0.0
H1993 H 0.72886 0.52342 0.24103 0.0
H1994 H 0.70082 0.50932 0.23385 0.0
H1995 H 0.70115 0.50025 0.24996 0.0
C1996 C 0.71926 0.45737 0.27759 0.0
C1997 C 0.71047 0.45326 0.27347 0.0
C1998 C 0.72097 0.4677 0.27723 0.0
C1999 C 0.71385 0.47413 0.27287 0.0
C2000 C 0.70527 0.47 0.2684 0.0
C2001 C 0.70359 0.45967 0.26869 0.0
C2002 C 0.71508 0.48518 0.27335 0.0
C2003 C 0.71462 0.49074 0.26443 0.0
C2004 C 0.71653 0.49025 0.28256 0.0
C2005 C 0.71653 0.48492 0.29231 0.0
C2006 C 0.70823 0.47912 0.29525 0.0
C2007 C 0.70832 0.47406 0.30443 0.0
C2008 C 0.71663 0.4748 0.31076 0.0
C2009 C 0.72486 0.48064 0.30795 0.0
C2010 C 0.72482 0.48571 0.29878 0.0
C2011 C 0.70791 0.53323 0.27227 0.0
C2012 C 0.71567 0.53833 0.27726 0.0
C2013 C 0.7084 0.52285 0.2709 0.0
C2014 C 0.71666 0.51738 0.27446 0.0
C2015 C 0.72449 0.52248 0.2793 0.0
C2016 C 0.72403 0.53286 0.28064 0.0
C2017 C 0.7168 0.50629 0.27372 0.0
C2018 C 0.71748 0.50072 0.28261 0.0
C2019 C 0.71551 0.50123 0.26448 0.0
C2020 C 0.71528 0.50668 0.25479 0.0
C2021 C 0.7231 0.51324 0.25214 0.0
C2022 C 0.72283 0.51837 0.24301 0.0
C2023 C 0.7148 0.51696 0.23643 0.0
C2024 C 0.70703 0.51041 0.23896 0.0
C2025 C 0.70727 0.50526 0.24808 0.0
H2026 H 0.7146 0.52094 0.22937 0.0
H2027 H 0.71668 0.47088 0.31786 0.0
H2028 H 0.45961 0.2103 0.76923 0.0
H2029 H 0.47777 0.20943 0.76703 0.0
H2030 H 0.48188 0.22906 0.7924 0.0
H2031 H 0.4637 0.2301 0.79458 0.0
H2032 H 0.49518 0.23328 0.77728 0.0
H2033 H 0.48378 0.20416 0.79541 0.0
H2034 H 0.4734 0.1891 0.79814 0.0
H2035 H 0.48503 0.17598 0.77113 0.0
H2036 H 0.49537 0.19103 0.76817 0.0
H2037 H 0.54457 0.21992 0.79227 0.0
H2038 H 0.52658 0.22322 0.79113 0.0
H2039 H 0.52439 0.20303 0.76596 0.0
H2040 H 0.54236 0.19961 0.7671 0.0
H2041 H 0.51014 0.19931 0.77983 0.0
H2042 H 0.52279 0.22788 0.76249 0.0
H2043 H 0.53354 0.24272 0.76015 0.0
H2044 H 0.51995 0.25682 0.7857 0.0
H2045 H 0.50922 0.24199 0.7883 0.0
C2046 C 0.46436 0.21453 0.77429 0.0
C2047 C 0.4602 0.22018 0.78216 0.0
C2048 C 0.47474 0.21401 0.77302 0.0
C2049 C 0.48117 0.21906 0.77964 0.0
C2050 C 0.47705 0.22509 0.78721 0.0
C2051 C 0.46666 0.22564 0.78848 0.0
C2052 C 0.49218 0.21752 0.7791 0.0
C2053 C 0.49847 0.22587 0.77791 0.0
C2054 C 0.49644 0.20783 0.77972 0.0
C2055 C 0.49026 0.19876 0.78152 0.0
C2056 C 0.48406 0.19809 0.79002 0.0
C2057 C 0.4782 0.18956 0.79161 0.0
C2058 C 0.47853 0.1816 0.7848 0.0
C2059 C 0.48476 0.18216 0.77639 0.0
C2060 C 0.49063 0.19068 0.77476 0.0
C2061 C 0.54027 0.21621 0.78646 0.0
C2062 C 0.54488 0.20945 0.77981 0.0
C2063 C 0.53 0.21815 0.78579 0.0
C2064 C 0.52417 0.21342 0.77842 0.0
C2065 C 0.52876 0.20675 0.7717 0.0
C2066 C 0.53904 0.20482 0.77236 0.0
C2067 C 0.51318 0.21506 0.77803 0.0
C2068 C 0.50687 0.20672 0.77908 0.0
C2069 C 0.50894 0.22476 0.77729 0.0
C2070 C 0.51525 0.23378 0.77564 0.0
C2071 C 0.52213 0.23412 0.76765 0.0
C2072 C 0.52822 0.24253 0.76627 0.0
C2073 C 0.52745 0.2507 0.77278 0.0
C2074 C 0.52055 0.25048 0.78066 0.0
C2075 C 0.51445 0.24208 0.78209 0.0
H2076 H 0.53218 0.2572 0.77171 0.0
H2077 H 0.47399 0.175 0.78605 0.0
H2078 H 0.7905 0.03991 0.26221 0.0
H2079 H 0.78856 0.0217 0.26211 0.0
H2080 H 0.77108 0.02337 0.28927 0.0
H2081 H 0.77289 0.04159 0.28937 0.0
H2082 H 0.79533 0.00879 0.27566 0.0
H2083 H 0.7543 0.004 0.28979 0.0
H2084 H 0.73808 0.01278 0.28839 0.0
H2085 H 0.74744 0.02598 0.26057 0.0
H2086 H 0.76363 0.01714 0.2617 0.0
H2087 H 0.78863 0.96205 0.29857 0.0
H2088 H 0.78796 0.97995 0.29488 0.0
H2089 H 0.77022 0.97398 0.26851 0.0
H2090 H 0.77079 0.95599 0.27218 0.0
H2091 H 0.76321 0.9903 0.27897 0.0
H2092 H 0.79439 0.97881 0.26565 0.0
H2093 H 0.81066 0.97003 0.26587 0.0
H2094 H 0.82095 0.98934 0.28949 0.0
H2095 H 0.80468 -0.00185 0.28951 0.0
C2096 C 0.78616 0.03642 0.26812 0.0
C2097 C 0.78191 0.0422 0.27585 0.0
C2098 C 0.78507 0.02601 0.26805 0.0
C2099 C 0.77966 0.02118 0.27566 0.0
C2100 C 0.77519 0.02695 0.28325 0.0
C2101 C 0.77627 0.03736 0.28332 0.0
C2102 C 0.77923 0.01007 0.27605 0.0
C2103 C 0.7883 0.00475 0.27633 0.0
C2104 C 0.77005 0.00479 0.27675 0.0
C2105 C 0.76023 0.00996 0.27589 0.0
C2106 C 0.75288 0.00873 0.28334 0.0
C2107 C 0.74369 0.01372 0.2826 0.0
C2108 C 0.74174 0.01995 0.27441 0.0
C2109 C 0.74897 0.02117 0.26692 0.0
C2110 C 0.75816 0.01618 0.26762 0.0
C2111 C 0.78454 0.96452 0.292 0.0
C2112 C 0.77982 0.95758 0.28563 0.0
C2113 C 0.78419 0.97476 0.2899 0.0
C2114 C 0.77915 0.97827 0.28136 0.0
C2115 C 0.77418 0.97141 0.27512 0.0
C2116 C 0.77454 0.96114 0.27722 0.0
C2117 C 0.77932 0.9891 0.27887 0.0
C2118 C 0.77022 0.99435 0.27822 0.0
C2119 C 0.78846 0.99433 0.27765 0.0
C2120 C 0.79828 0.98909 0.27763 0.0
C2121 C 0.80009 0.98114 0.27094 0.0
C2122 C 0.80932 0.97616 0.27102 0.0
C2123 C 0.81682 0.97911 0.27771 0.0
C2124 C 0.81512 0.98706 0.28432 0.0
C2125 C 0.80591 0.99205 0.28428 0.0
H2126 H 0.82396 0.97525 0.27775 0.0
H2127 H 0.73463 0.02383 0.27386 0.0
H2128 H 0.23071 0.69503 0.03458 0.0
H2129 H 0.23094 0.69855 0.01662 0.0
H2130 H 0.21305 0.72505 0.02152 0.0
H2131 H 0.21262 0.72148 0.03948 0.0
H2132 H 0.20545 0.71407 0.00687 0.0
H2133 H 0.23795 0.72642 0.01521 0.0
H2134 H 0.25489 0.72584 0.0226 0.0
H2135 H 0.26277 0.70146 0.00313 0.0
H2136 H 0.2458 0.70169 0.9958 0.0
H2137 H 0.20766 0.72907 0.95617 0.0
H2138 H 0.21052 0.72943 0.97426 0.0
H2139 H 0.22733 0.70187 0.97221 0.0
H2140 H 0.22461 0.70151 0.95409 0.0
H2141 H 0.23587 0.71498 0.98548 0.0
H2142 H 0.20299 0.70137 0.97881 0.0
H2143 H 0.18595 0.70147 0.97161 0.0
H2144 H 0.17895 0.72821 0.98811 0.0
H2145 H 0.19601 0.72834 0.99531 0.0
C2146 C 0.2269 0.70167 0.03186 0.0
C2147 C 0.22161 0.70795 0.03846 0.0
C2148 C 0.22709 0.7037 0.02159 0.0
C2149 C 0.22208 0.71212 0.01773 0.0
C2150 C 0.21697 0.71852 0.02433 0.0
C2151 C 0.21674 0.71647 0.0346 0.0
C2152 C 0.22161 0.71384 0.00674 0.0
C2153 C 0.21212 0.71447 0.00223 0.0
C2154 C 0.2303 0.71413 0.00065 0.0
C2155 C 0.24055 0.71402 0.00501 0.0
C2156 C 0.24326 0.72087 0.01256 0.0
C2157 C 0.25287 0.7206 0.01674 0.0
C2158 C 0.2599 0.71362 0.01334 0.0
C2159 C 0.25732 0.70687 0.00576 0.0
C2160 C 0.2477 0.70705 0.00159 0.0
C2161 C 0.21204 0.72313 0.95954 0.0
C2162 C 0.21579 0.71519 0.9537 0.0
C2163 C 0.21366 0.72334 0.96989 0.0
C2164 C 0.21901 0.71559 0.9746 0.0
C2165 C 0.22316 0.70791 0.96873 0.0
C2166 C 0.22156 0.7077 0.95838 0.0
C2167 C 0.21973 0.71514 0.98568 0.0
C2168 C 0.22924 0.71471 0.99018 0.0
C2169 C 0.21106 0.71501 0.9918 0.0
C2170 C 0.2008 0.71493 0.98751 0.0
C2171 C 0.19784 0.70731 0.98084 0.0
C2172 C 0.18818 0.70732 0.97677 0.0
C2173 C 0.18138 0.71486 0.97938 0.0
C2174 C 0.18423 0.72239 0.98609 0.0
C2175 C 0.19389 0.72242 0.99016 0.0
H2176 H 0.17391 0.71485 0.97622 0.0
H2177 H 0.26734 0.71346 0.01656 0.0
H2178 H 0.2056 0.76623 0.44968 0.0
H2179 H 0.20683 0.76061 0.46708 0.0
H2180 H 0.22785 0.78435 0.47337 0.0
H2181 H 0.22675 0.78998 0.45597 0.0
H2182 H 0.23305 0.76672 0.48292 0.0
H2183 H 0.20365 0.78758 0.47874 0.0
H2184 H 0.18757 0.79251 0.47105 0.0
H2185 H 0.17472 0.7642 0.47936 0.0
H2186 H 0.19078 0.75905 0.48698 0.0
H2187 H 0.22555 0.77846 0.53417 0.0
H2188 H 0.22781 0.77712 0.51607 0.0
H2189 H 0.20614 0.75315 0.51502 0.0
H2190 H 0.20379 0.75446 0.53316 0.0
H2191 H 0.20141 0.76821 0.50245 0.0
H2192 H 0.23052 0.74756 0.50743 0.0
H2193 H 0.24658 0.74268 0.51524 0.0
H2194 H 0.25968 0.77062 0.50612 0.0
H2195 H 0.24373 0.77559 0.49813 0.0
C2196 C 0.21053 0.77023 0.45474 0.0
C2197 C 0.21596 0.77865 0.45148 0.0
C2198 C 0.21124 0.76699 0.46467 0.0
C2199 C 0.21735 0.77213 0.47153 0.0
C2200 C 0.2231 0.78028 0.46819 0.0
C2201 C 0.2224 0.78353 0.45826 0.0
C2202 C 0.21715 0.76956 0.48234 0.0
C2203 C 0.22615 0.76707 0.48721 0.0
C2204 C 0.2081 0.76979 0.48788 0.0
C2205 C 0.19844 0.77288 0.48332 0.0
C2206 C 0.19742 0.78237 0.47885 0.0
C2207 C 0.18831 0.78521 0.47452 0.0
C2208 C 0.18014 0.77866 0.47469 0.0
C2209 C 0.18106 0.76926 0.47921 0.0
C2210 C 0.19016 0.76638 0.48355 0.0
C2211 C 0.22139 0.77277 0.53013 0.0
C2212 C 0.2144 0.76664 0.5351 0.0
C2213 C 0.22277 0.77195 0.51978 0.0
C2214 C 0.21719 0.76499 0.5142 0.0
C2215 C 0.21054 0.75855 0.5192 0.0
C2216 C 0.20921 0.75932 0.52957 0.0
C2217 C 0.21732 0.76543 0.50309 0.0
C2218 C 0.20829 0.76761 0.49815 0.0
C2219 C 0.22632 0.76492 0.49752 0.0
C2220 C 0.23593 0.76197 0.50226 0.0
C2221 C 0.23682 0.75268 0.50713 0.0
C2222 C 0.24591 0.74988 0.51156 0.0
C2223 C 0.25412 0.75636 0.51122 0.0
C2224 C 0.25329 0.76563 0.50641 0.0
C2225 C 0.24426 0.76841 0.50187 0.0
H2226 H 0.26115 0.75419 0.51465 0.0
H2227 H 0.17309 0.78087 0.47133 0.0
H2228 H 0.25905 0.70497 0.46041 0.0
H2229 H 0.25839 0.70728 0.47858 0.0
H2230 H 0.2793 0.73182 0.47631 0.0
H2231 H 0.28003 0.72957 0.45814 0.0
H2232 H 0.27477 0.70469 0.49038 0.0
H2233 H 0.27591 0.74751 0.49461 0.0
H2234 H 0.26856 0.76252 0.48665 0.0
H2235 H 0.2425 0.74556 0.47831 0.0
H2236 H 0.24977 0.73042 0.48609 0.0
H2237 H 0.29916 0.71874 0.53454 0.0
H2238 H 0.29338 0.71961 0.5172 0.0
H2239 H 0.26284 0.72263 0.52735 0.0
H2240 H 0.26854 0.72157 0.54481 0.0
H2241 H 0.26896 0.7357 0.51013 0.0
H2242 H 0.2679 0.70125 0.52086 0.0
H2243 H 0.27474 0.686 0.52876 0.0
H2244 H 0.29885 0.68554 0.50744 0.0
H2245 H 0.29223 0.70088 0.4995 0.0
C2246 C 0.26337 0.71098 0.46375 0.0
C2247 C 0.26968 0.71702 0.45784 0.0
C2248 C 0.26297 0.7123 0.47413 0.0
C2249 C 0.26876 0.71974 0.4788 0.0
C2250 C 0.27466 0.72611 0.47286 0.0
C2251 C 0.27513 0.72476 0.46248 0.0
C2252 C 0.26967 0.72001 0.48987 0.0
C2253 C 0.27339 0.71144 0.4947 0.0
C2254 C 0.26781 0.72879 0.49553 0.0
C2255 C 0.2634 0.73785 0.49087 0.0
C2256 C 0.26862 0.74699 0.49106 0.0
C2257 C 0.2645 0.7555 0.48653 0.0
C2258 C 0.25509 0.75498 0.48193 0.0
C2259 C 0.24981 0.74594 0.48182 0.0
C2260 C 0.25395 0.73738 0.48623 0.0
C2261 C 0.29122 0.7197 0.53312 0.0
C2262 C 0.2843 0.72002 0.54106 0.0
C2263 C 0.28794 0.72021 0.52321 0.0
C2264 C 0.27769 0.72115 0.52103 0.0
C2265 C 0.27078 0.72193 0.52891 0.0
C2266 C 0.27405 0.72128 0.53886 0.0
C2267 C 0.27425 0.72044 0.51051 0.0
C2268 C 0.27016 0.72892 0.50581 0.0
C2269 C 0.27565 0.71153 0.50494 0.0
C2270 C 0.27961 0.70226 0.50964 0.0
C2271 C 0.2747 0.69794 0.51791 0.0
C2272 C 0.27853 0.68928 0.52239 0.0
C2273 C 0.28724 0.68482 0.51862 0.0
C2274 C 0.29211 0.68901 0.51035 0.0
C2275 C 0.28832 0.69768 0.50586 0.0
H2276 H 0.29019 0.67811 0.52209 0.0
H2277 H 0.25188 0.76159 0.4785 0.0
H2278 H 0.27032 0.79088 0.95158 0.0
H2279 H 0.2675 0.7921 0.96963 0.0
H2280 H 0.28276 0.76393 0.97399 0.0
H2281 H 0.28549 0.76257 0.95591 0.0
H2282 H 0.26632 0.76536 0.98588 0.0
H2283 H 0.29493 0.78577 0.97799 0.0
H2284 H 0.30421 0.799 0.96903 0.0
H2285 H 0.2833 0.82107 0.97963 0.0
H2286 H 0.27381 0.80793 0.98855 0.0
H2287 H 0.27986 0.7711 0.03743 0.0
H2288 H 0.27927 0.76857 0.01929 0.0
H2289 H 0.2638 0.79675 0.01581 0.0
H2290 H 0.2644 0.79937 0.03393 0.0
H2291 H 0.27967 0.79533 0.00341 0.0
H2292 H 0.2516 0.77485 0.01223 0.0
H2293 H 0.24245 0.7615 0.02114 0.0
H2294 H 0.26246 0.73942 0.00893 0.0
H2295 H 0.27183 0.75266 8e-05 0.0
C2296 C 0.27302 0.7849 0.95636 0.0
C2297 C 0.27822 0.77667 0.95231 0.0
C2298 C 0.27142 0.78563 0.96668 0.0
C2299 C 0.27505 0.77818 0.97317 0.0
C2300 C 0.27992 0.76977 0.96912 0.0
C2301 C 0.2815 0.76903 0.95879 0.0
C2302 C 0.27415 0.77936 0.98419 0.0
C2303 C 0.26932 0.77185 0.98975 0.0
C2304 C 0.2779 0.78794 0.98918 0.0
C2305 C 0.2836 0.79585 0.98385 0.0
C2306 C 0.29227 0.79343 0.97834 0.0
C2307 C 0.29757 0.80092 0.97329 0.0
C2308 C 0.29433 0.81087 0.97374 0.0
C2309 C 0.28579 0.81336 0.97928 0.0
C2310 C 0.28045 0.8059 0.98434 0.0
C2311 C 0.27624 0.77671 0.03282 0.0
C2312 C 0.27222 0.78546 0.03713 0.0
C2313 C 0.27587 0.77523 0.02245 0.0
C2314 C 0.27144 0.78245 0.0162 0.0
C2315 C 0.26724 0.79108 0.0205 0.0
C2316 C 0.26758 0.79256 0.03086 0.0
C2317 C 0.27181 0.78133 0.00515 0.0
C2318 C 0.27659 0.78885 -0.00043 0.0
C2319 C 0.26804 0.77274 0.00017 0.0
C2320 C 0.26249 0.76477 0.00558 0.0
C2321 C 0.25412 0.76716 0.01153 0.0
C2322 C 0.24887 0.75961 0.01656 0.0
C2323 C 0.25188 0.74962 0.01563 0.0
C2324 C 0.26014 0.74716 0.00966 0.0
C2325 C 0.26542 0.75469 0.00464 0.0
H2326 H 0.2478 0.7438 0.01952 0.0
H2327 H 0.29845 0.81665 0.96982 0.0
H2328 H 0.95717 0.784 0.31811 0.0
H2329 H 0.97501 0.78752 0.3197 0.0
H2330 H 0.97026 0.81736 0.30819 0.0
H2331 H 0.95233 0.81381 0.30637 0.0
H2332 H 0.98498 0.80845 0.29848 0.0
H2333 H 0.97724 0.81341 0.3329 0.0
H2334 H 0.9698 0.80957 0.34937 0.0
H2335 H 0.98754 0.78278 0.35131 0.0
H2336 H 0.99499 0.78637 0.33478 0.0
H2337 H 0.03742 0.8163 0.30243 0.0
H2338 H 0.01958 0.81874 0.30601 0.0
H2339 H 0.01755 0.7883 0.31672 0.0
H2340 H 0.03535 0.78586 0.31333 0.0
H2341 H 0.00621 0.80069 0.32802 0.0
H2342 H 0.01142 0.79431 0.29256 0.0
H2343 H 0.01864 0.79772 0.27588 0.0
H2344 H 0.00535 0.82704 0.27596 0.0
H2345 H -0.00185 0.82384 0.2927 0.0
C2346 C 0.95987 0.79137 0.31605 0.0
C2347 C 0.95332 0.79861 0.31205 0.0
C2348 C 0.97009 0.7934 0.31704 0.0
C2349 C 0.97398 0.80274 0.31416 0.0
C2350 C 0.96742 0.81011 0.31048 0.0
C2351 C 0.95717 0.80807 0.30946 0.0
C2352 C 0.985 0.8044 0.31412 0.0
C2353 C 0.9896 0.807 0.30502 0.0
C2354 C 0.99106 0.80232 0.32259 0.0
C2355 C 0.98663 0.80014 0.33256 0.0
C2356 C 0.97951 0.80666 0.3368 0.0
C2357 C 0.9753 0.80453 0.34616 0.0
C2358 C 0.97819 0.79593 0.35138 0.0
C2359 C 0.98531 0.78944 0.34726 0.0
C2360 C 0.98954 0.79153 0.33791 0.0
C2361 C 0.03321 0.81018 0.30569 0.0
C2362 C 0.03778 0.80084 0.30748 0.0
C2363 C 0.02301 0.81157 0.30771 0.0
C2364 C 0.0172 0.80365 0.31148 0.0
C2365 C 0.02187 0.79452 0.31379 0.0
C2366 C 0.03206 0.79312 0.3118 0.0
C2367 C 0.00613 0.80453 0.31235 0.0
C2368 C 0.00155 0.80237 0.32157 0.0
C2369 C 6e-05 0.80698 0.30399 0.0
C2370 C 0.00436 0.80889 0.29392 0.0
C2371 C 0.01011 0.80151 0.28905 0.0
C2372 C 0.01418 0.8034 0.27958 0.0
C2373 C 0.01248 0.8126 0.27488 0.0
C2374 C 0.00668 0.81992 0.27962 0.0
C2375 C 0.0026 0.81808 0.2891 0.0
H2376 H 0.01564 0.81405 0.26754 0.0
H2377 H 0.97492 0.79429 0.35862 0.0
H2378 H 0.17975 0.53941 0.80716 0.0
H2379 H 0.1777 0.52113 0.80793 0.0
H2380 H 0.20667 0.51729 0.79408 0.0
H2381 H 0.20878 0.5354 0.79329 0.0
H2382 H 0.19191 0.50631 0.78483 0.0
H2383 H 0.20369 0.51295 0.81857 0.0
H2384 H 0.20293 0.52086 0.83526 0.0
H2385 H 0.17401 0.50767 0.84037 0.0
H2386 H 0.17455 0.49978 0.82364 0.0
H2387 H 0.20794 0.45733 0.79149 0.0
H2388 H 0.20589 0.4754 0.79284 0.0
H2389 H 0.17692 0.47128 0.80658 0.0
H2390 H 0.17894 0.45301 0.80531 0.0
H2391 H 0.18839 0.48622 0.81592 0.0
H2392 H 0.17739 0.47807 0.78299 0.0
H2393 H 0.17814 0.47002 0.76637 0.0
H2394 H 0.20517 0.48614 0.75961 0.0
H2395 H 0.20466 0.49418 0.77626 0.0
C2396 C 0.18571 0.53466 0.80436 0.0
C2397 C 0.19441 0.53886 0.80013 0.0
C2398 C 0.18453 0.52423 0.80482 0.0
C2399 C 0.19203 0.51787 0.80105 0.0
C2400 C 0.20077 0.52206 0.79699 0.0
C2401 C 0.20197 0.53243 0.79658 0.0
C2402 C 0.19075 0.50683 0.80092 0.0
C2403 C 0.19119 0.50192 0.79163 0.0
C2404 C 0.18943 0.50114 0.80977 0.0
C2405 C 0.1891 0.50589 0.81981 0.0
C2406 C 0.19713 0.51182 0.82321 0.0
C2407 C 0.19675 0.51628 0.83269 0.0
C2408 C 0.18841 0.5148 0.83886 0.0
C2409 C 0.18045 0.50883 0.83558 0.0
C2410 C 0.18079 0.50436 0.8261 0.0
C2411 C 0.20113 0.46022 0.79483 0.0
C2412 C 0.19356 0.45372 0.79822 0.0
C2413 C 0.19997 0.47057 0.79558 0.0
C2414 C 0.19119 0.47468 0.79967 0.0
C2415 C 0.18373 0.46825 0.80336 0.0
C2416 C 0.18488 0.45783 0.8026 0.0
C2417 C 0.1899 0.48572 0.79986 0.0
C2418 C 0.18894 0.49063 0.80911 0.0
C2419 C 0.1907 0.49145 0.79097 0.0
C2420 C 0.19102 0.48668 0.78091 0.0
C2421 C 0.18353 0.47985 0.77799 0.0
C2422 C 0.18391 0.47529 0.76856 0.0
C2423 C 0.19171 0.47756 0.76194 0.0
C2424 C 0.19913 0.4844 0.76474 0.0
C2425 C 0.1988 0.48896 0.77417 0.0
H2426 H 0.19199 0.47403 0.75464 0.0
H2427 H 0.18813 0.51826 0.8462 0.0
H2428 H 0.53554 0.702 0.30757 0.0
H2429 H 0.51783 0.70007 0.31157 0.0
H2430 H 0.51958 0.66855 0.30452 0.0
H2431 H 0.53733 0.67048 0.30027 0.0
H2432 H 0.50441 0.6769 0.29505 0.0
H2433 H 0.51564 0.67683 0.3289 0.0
H2434 H 0.52503 0.68269 0.3437 0.0
H2435 H 0.50902 0.71061 0.34302 0.0
H2436 H 0.49963 0.70499 0.32813 0.0
H2437 H 0.45244 0.67323 0.30541 0.0
H2438 H 0.47043 0.67022 0.30754 0.0
H2439 H 0.47507 0.70174 0.3131 0.0
H2440 H 0.45714 0.70477 0.31118 0.0
H2441 H 0.48701 0.69056 0.32495 0.0
H2442 H 0.47822 0.69173 0.28967 0.0
H2443 H 0.46904 0.68631 0.27456 0.0
H2444 H 0.48078 0.65652 0.27791 0.0
H2445 H 0.48993 0.66175 0.29313 0.0
C2446 C 0.53222 0.69461 0.30702 0.0
C2447 C 0.53785 0.6864 0.30354 0.0
C2448 C 0.52208 0.69351 0.30938 0.0
C2449 C 0.51737 0.68414 0.30844 0.0
C2450 C 0.52306 0.67585 0.30532 0.0
C2451 C 0.53321 0.67695 0.30292 0.0
C2452 C 0.50634 0.6833 0.30976 0.0
C2453 C 0.50063 0.67965 0.30171 0.0
C2454 C 0.50136 0.68709 0.31835 0.0
C2455 C 0.50697 0.6905 0.32735 0.0
C2456 C 0.51417 0.68425 0.33186 0.0
C2457 C 0.51949 0.68753 0.34028 0.0
C2458 C 0.51764 0.69702 0.34429 0.0
C2459 C 0.51045 0.70326 0.33991 0.0
C2460 C 0.50512 0.70002 0.33148 0.0
C2461 C 0.45727 0.67949 0.30724 0.0
C2462 C 0.45337 0.68926 0.308 0.0
C2463 C 0.46755 0.67776 0.30843 0.0
C2464 C 0.47412 0.68578 0.31032 0.0
C2465 C 0.47016 0.69544 0.31163 0.0
C2466 C 0.45989 0.69717 0.31048 0.0
C2467 C 0.48516 0.68434 0.31018 0.0
C2468 C 0.49084 0.68759 0.31842 0.0
C2469 C 0.49013 0.68022 0.30175 0.0
C2470 C 0.48465 0.67709 0.2926 0.0
C2471 C 0.47878 0.68401 0.28723 0.0
C2472 C 0.47359 0.68097 0.27864 0.0
C2473 C 0.4743 0.67107 0.2753 0.0
C2474 C 0.48022 0.66418 0.28052 0.0
C2475 C 0.48541 0.66718 0.28913 0.0
H2476 H 0.47028 0.66874 0.26865 0.0
H2477 H 0.52176 0.69955 0.35081 0.0
H2478 H 0.28723 0.9547 0.81947 0.0
H2479 H 0.28842 0.97272 0.82245 0.0
H2480 H 0.31422 0.97432 0.80304 0.0
H2481 H 0.31318 0.95624 0.8001 0.0
H2482 H 0.31606 0.98695 0.81927 0.0
H2483 H 0.29164 0.97958 0.79379 0.0
H2484 H 0.27675 0.97123 0.78666 0.0
H2485 H 0.25832 0.98405 0.80974 0.0
H2486 H 0.27313 0.99236 0.81709 0.0
H2487 H 0.31195 0.03807 0.80334 0.0
H2488 H 0.31366 0.01991 0.8052 0.0
H2489 H 0.28722 0.0193 0.82382 0.0
H2490 H 0.28538 0.03741 0.82191 0.0
H2491 H 0.28589 0.00609 0.80887 0.0
H2492 H 0.31045 0.01461 0.83362 0.0
H2493 H 0.32546 0.02306 0.84033 0.0
H2494 H 0.34378 0.00841 0.81827 0.0
H2495 H 0.32885 -2e-05 0.81133 0.0
C2496 C 0.29326 0.95884 0.81595 0.0
C2497 C 0.30003 0.95405 0.80944 0.0
C2498 C 0.29391 0.96915 0.81765 0.0
C2499 C 0.3013 0.97488 0.81283 0.0
C2500 C 0.30845 0.97004 0.80681 0.0
C2501 C 0.30782 0.95971 0.80512 0.0
C2502 C 0.30105 0.98598 0.81339 0.0
C2503 C 0.3095 0.99116 0.81693 0.0
C2504 C 0.29243 0.99145 0.81047 0.0
C2505 C 0.28351 0.9865 0.80605 0.0
C2506 C 0.28442 0.98055 0.79739 0.0
C2507 C 0.276 0.97584 0.7933 0.0
C2508 C 0.2666 0.97708 0.79777 0.0
C2509 C 0.2656 0.98307 0.80631 0.0
C2510 C 0.27401 0.98779 0.81043 0.0
C2511 C 0.30659 0.0341 0.80797 0.0
C2512 C 0.29848 0.03918 0.81241 0.0
C2513 C 0.3076 0.02372 0.80906 0.0
C2514 C 0.30057 0.01825 0.81467 0.0
C2515 C 0.29271 0.02337 0.81944 0.0
C2516 C 0.29169 0.03373 0.81835 0.0
C2517 C 0.30087 0.00712 0.81483 0.0
C2518 C 0.29242 0.00192 0.81134 0.0
C2519 C 0.30951 0.00168 0.81774 0.0
C2520 C 0.31851 0.00673 0.8219 0.0
C2521 C 0.31766 0.01325 0.83014 0.0
C2522 C 0.32616 0.01803 0.834 0.0
C2523 C 0.33556 0.01629 0.82971 0.0
C2524 C 0.33649 0.00976 0.82157 0.0
C2525 C 0.32801 0.00497 0.81768 0.0
H2526 H 0.34213 0.01999 0.83271 0.0
H2527 H 0.26009 0.97343 0.79459 0.0
H2528 H 0.95745 0.70796 0.17537 0.0
H2529 H 0.97521 0.70461 0.17275 0.0
H2530 H 0.97175 0.67528 0.18592 0.0
H2531 H 0.95393 0.67867 0.18877 0.0
H2532 H 0.98685 0.68484 0.19427 0.0
H2533 H 0.97717 0.67816 0.16067 0.0
H2534 H 0.96869 0.68105 0.14451 0.0
H2535 H 0.98572 0.70802 0.14022 0.0
H2536 H 0.9942 0.70537 0.15643 0.0
H2537 H 0.03911 0.67773 0.18741 0.0
H2538 H 0.02116 0.67478 0.1849 0.0
H2539 H 0.01776 0.70486 0.17355 0.0
H2540 H 0.03566 0.70783 0.17591 0.0
H2541 H 0.00611 0.69164 0.1632 0.0
H2542 H 0.01326 0.6997 0.19799 0.0
H2543 H 0.02156 0.69715 0.21432 0.0
H2544 H 0.00899 0.66759 0.21626 0.0
H2545 H 0.00072 0.66992 0.19987 0.0
C2546 C 0.96041 0.70072 0.17757 0.0
C2547 C 0.95428 0.6936 0.18234 0.0
C2548 C 0.97058 0.69879 0.176 0.0
C2549 C 0.97482 0.68965 0.17906 0.0
C2550 C 0.96864 0.68238 0.18349 0.0
C2551 C 0.95845 0.68432 0.18509 0.0
C2552 C 0.98585 0.68817 0.1785 0.0
C2553 C 0.99104 0.68607 0.18741 0.0
C2554 C 0.99135 0.68997 0.16959 0.0
C2555 C 0.98628 0.69159 0.15981 0.0
C2556 C 0.97906 0.68474 0.15632 0.0
C2557 C 0.97426 0.68634 0.14714 0.0
C2558 C 0.97665 0.69472 0.14135 0.0
C2559 C 0.98387 0.70152 0.14472 0.0
C2560 C 0.98869 0.69997 0.15389 0.0
C2561 C 0.03457 0.68366 0.18422 0.0
C2562 C 0.03879 0.69306 0.18197 0.0
C2563 C 0.02431 0.68197 0.18282 0.0
C2564 C 0.0181 0.68965 0.17917 0.0
C2565 C 0.02241 0.69883 0.17638 0.0
C2566 C 0.03264 0.70053 0.17779 0.0
C2567 C 0.00704 0.68851 0.179 0.0
C2568 C 0.00188 0.69017 0.16998 0.0
C2569 C 0.00154 0.68632 0.1878 0.0
C2570 C 0.00648 0.68493 0.19766 0.0
C2571 C 0.01233 0.69262 0.20187 0.0
C2572 C 0.01702 0.69123 0.21114 0.0
C2573 C 0.01583 0.6822 0.21631 0.0
C2574 C 0.00993 0.67456 0.21223 0.0
C2575 C 0.00524 0.67592 0.20296 0.0
H2576 H 0.01946 0.68113 0.22349 0.0
H2577 H 0.97293 0.69594 0.13424 0.0
H2578 H 0.30505 0.53964 0.68082 0.0
H2579 H 0.30811 0.52177 0.67798 0.0
H2580 H 0.31998 0.51902 0.70794 0.0
H2581 H 0.31715 0.53686 0.71076 0.0
H2582 H 0.33036 0.50743 0.69513 0.0
H2583 H 0.29538 0.51372 0.70279 0.0
H2584 H 0.27883 0.52154 0.70014 0.0
H2585 H 0.27735 0.5088 0.67061 0.0
H2586 H 0.29396 0.50099 0.67305 0.0
H2587 H 0.3187 0.45835 0.71117 0.0
H2588 H 0.32118 0.47617 0.708 0.0
H2589 H 0.30902 0.47265 0.67823 0.0
H2590 H 0.30637 0.45479 0.68141 0.0
H2591 H 0.29987 0.48737 0.68794 0.0
H2592 H 0.33388 0.47858 0.68178 0.0
H2593 H 0.35021 0.47052 0.685 0.0
H2594 H 0.35351 0.48763 0.71207 0.0
H2595 H 0.33714 0.4957 0.70909 0.0
C2596 C 0.30846 0.53526 0.68674 0.0
C2597 C 0.31073 0.53965 0.69606 0.0
C2598 C 0.31018 0.52505 0.68512 0.0
C2599 C 0.31412 0.51902 0.69281 0.0
C2600 C 0.31692 0.52351 0.7019 0.0
C2601 C 0.31525 0.53372 0.70352 0.0
C2602 C 0.31458 0.50795 0.69177 0.0
C2603 C 0.32371 0.50302 0.69358 0.0
C2604 C 0.30594 0.50222 0.68951 0.0
C2605 C 0.29595 0.50688 0.68805 0.0
C2606 C 0.29155 0.51265 0.69571 0.0
C2607 C 0.28216 0.51707 0.69425 0.0
C2608 C 0.27705 0.5157 0.6852 0.0
C2609 C 0.28132 0.50987 0.67761 0.0
C2610 C 0.29072 0.50545 0.67902 0.0
C2611 C 0.31671 0.46131 0.70388 0.0
C2612 C 0.31226 0.45515 0.69657 0.0
C2613 C 0.3182 0.47151 0.70205 0.0
C2614 C 0.31535 0.47575 0.69285 0.0
C2615 C 0.31129 0.46953 0.68538 0.0
C2616 C 0.3098 0.45932 0.68721 0.0
C2617 C 0.31564 0.48679 0.69147 0.0
C2618 C 0.30661 0.49174 0.68926 0.0
C2619 C 0.32436 0.49251 0.69342 0.0
C2620 C 0.33424 0.4877 0.69524 0.0
C2621 C 0.33805 0.48057 0.68846 0.0
C2622 C 0.34732 0.47601 0.69024 0.0
C2623 C 0.35288 0.47855 0.69874 0.0
C2624 C 0.34919 0.48567 0.70548 0.0
C2625 C 0.33992 0.49025 0.70374 0.0
H2626 H 0.36006 0.47501 0.70011 0.0
H2627 H 0.26978 0.51912 0.68409 0.0
H2628 H 0.53758 0.82074 0.20176 0.0
H2629 H 0.51965 0.8245 0.2013 0.0
H2630 H 0.51571 0.80318 0.17731 0.0
H2631 H 0.53366 0.79949 0.17759 0.0
H2632 H 0.50349 0.81941 0.17489 0.0
H2633 H 0.51195 0.79609 0.20121 0.0
H2634 H 0.52107 0.79036 0.21625 0.0
H2635 H 0.50966 0.81543 0.23292 0.0
H2636 H 0.50058 0.82138 0.21793 0.0
H2637 H 0.45357 0.80206 0.1826 0.0
H2638 H 0.47145 0.80493 0.17992 0.0
H2639 H 0.47195 0.82562 0.20477 0.0
H2640 H 0.45409 0.82269 0.20761 0.0
H2641 H 0.48599 0.81169 0.20678 0.0
H2642 H 0.47562 0.83373 0.18062 0.0
H2643 H 0.46632 0.83892 0.16551 0.0
H2644 H 0.48094 0.81588 0.14841 0.0
H2645 H 0.49022 0.81046 0.16346 0.0
C2646 C 0.53294 0.81698 0.19626 0.0
C2647 C 0.53703 0.8097 0.18981 0.0
C2648 C 0.52269 0.81912 0.19602 0.0
C2649 C 0.51632 0.81398 0.1894 0.0
C2650 C 0.52048 0.80721 0.1825 0.0
C2651 C 0.53075 0.80509 0.1827 0.0
C2652 C 0.50527 0.81492 0.19028 0.0
C2653 C 0.49963 0.81769 0.18184 0.0
C2654 C 0.50027 0.81283 0.19941 0.0
C2655 C 0.50569 0.80924 0.20843 0.0
C2656 C 0.51145 0.80042 0.20807 0.0
C2657 C 0.5166 0.79712 0.21658 0.0
C2658 C 0.51597 0.80254 0.22552 0.0
C2659 C 0.51016 0.81125 0.22598 0.0
C2660 C 0.50501 0.81459 0.21748 0.0
C2661 C 0.45744 0.80737 0.18739 0.0
C2662 C 0.45242 0.81208 0.19538 0.0
C2663 C 0.46766 0.80904 0.18581 0.0
C2664 C 0.47305 0.81552 0.19213 0.0
C2665 C 0.46795 0.82058 0.19982 0.0
C2666 C 0.45773 0.81891 0.20141 0.0
C2667 C 0.48414 0.81618 0.19138 0.0
C2668 C 0.48981 0.81361 0.19986 0.0
C2669 C 0.48912 0.8184 0.18227 0.0
C2670 C 0.48356 0.82164 0.1732 0.0
C2671 C 0.47679 0.82972 0.17366 0.0
C2672 C 0.47154 0.83271 0.1651 0.0
C2673 C 0.47302 0.82772 0.15601 0.0
C2674 C 0.47979 0.81973 0.15546 0.0
C2675 C 0.48506 0.81671 0.164 0.0
H2676 H 0.46895 0.83004 0.14939 0.0
H2677 H 0.51995 0.79998 0.23211 0.0
H2678 H 0.21329 0.03452 0.68285 0.0
H2679 H 0.21017 0.01673 0.68029 0.0
H2680 H 0.17835 0.02174 0.68334 0.0
H2681 H 0.18144 0.03964 0.68614 0.0
H2682 H 0.18413 0.00654 0.69467 0.0
H2683 H 0.18874 0.01525 0.66045 0.0
H2684 H 0.19693 0.02313 0.64588 0.0
H2685 H 0.22327 0.00528 0.65079 0.0
H2686 H 0.2153 -0.00261 0.66548 0.0
H2687 H 0.17855 0.95391 0.68715 0.0
H2688 H 0.17672 0.97189 0.68386 0.0
H2689 H 0.20887 0.97477 0.6817 0.0
H2690 H 0.21075 0.95687 0.68479 0.0
H2691 H 0.19974 0.9861 0.6678 0.0
H2692 H 0.19622 0.97999 0.70358 0.0
H2693 H 0.18838 0.97233 0.71847 0.0
H2694 H 0.16009 0.98552 0.71056 0.0
H2695 H 0.16775 0.99316 0.69555 0.0
C2696 C 0.2056 0.03189 0.68286 0.0
C2697 C 0.19762 0.03851 0.68473 0.0
C2698 C 0.20383 0.0217 0.68132 0.0
C2699 C 0.19401 0.0179 0.68149 0.0
C2700 C 0.18598 0.02451 0.68313 0.0
C2701 C 0.18776 0.03474 0.68471 0.0
C2702 C 0.19232 0.00691 0.68075 0.0
C2703 C 0.18733 0.00209 0.68865 0.0
C2704 C 0.19662 0.00108 0.67299 0.0
C2705 C 0.20143 0.00576 0.66411 0.0
C2706 C 0.1963 0.01305 0.65847 0.0
C2707 C 0.2009 0.01751 0.65018 0.0
C2708 C 0.21061 0.01472 0.64742 0.0
C2709 C 0.21574 0.00744 0.65293 0.0
C2710 C 0.21118 0.00295 0.66123 0.0
C2711 C 0.18522 0.95835 0.68584 0.0
C2712 C 0.19481 0.95397 0.68633 0.0
C2713 C 0.18416 0.96863 0.684 0.0
C2714 C 0.19267 0.9747 0.68267 0.0
C2715 C 0.2022 0.97024 0.68271 0.0
C2716 C 0.20326 0.96 0.68452 0.0
C2717 C 0.19182 0.98576 0.68185 0.0
C2718 C 0.19634 0.99058 0.67367 0.0
C2719 C 0.18711 0.9916 0.68936 0.0
C2720 C 0.18252 0.98703 0.69839 0.0
C2721 C 0.18831 0.98119 0.70498 0.0
C2722 C 0.18391 0.97687 0.71344 0.0
C2723 C 0.17373 0.97841 0.71544 0.0
C2724 C 0.16796 0.98431 0.70899 0.0
C2725 C 0.17233 0.98864 0.70051 0.0
H2726 H 0.17034 0.97506 0.722 0.0
H2727 H 0.21416 0.01818 0.641 0.0
H2728 H 0.80414 0.31509 0.03925 0.0
H2729 H 0.80597 0.31886 0.02139 0.0
H2730 H 0.82125 0.2907 0.01696 0.0
H2731 H 0.81963 0.28697 0.03478 0.0
H2732 H 0.8295 0.30511 0.00555 0.0
H2733 H 0.796 0.29299 0.01283 0.0
H2734 H 0.77958 0.29333 0.02134 0.0
H2735 H 0.77399 0.32284 0.00976 0.0
H2736 H 0.79044 0.32271 0.00128 0.0
H2737 H 0.81792 0.28907 0.95651 0.0
H2738 H 0.82058 0.29204 0.97434 0.0
H2739 H 0.80496 0.32027 0.97209 0.0
H2740 H 0.80215 0.31729 0.9542 0.0
H2741 H 0.79756 0.30909 0.9869 0.0
H2742 H 0.83013 0.31966 0.97707 0.0
H2743 H 0.84637 0.31873 0.96828 0.0
H2744 H 0.85372 0.2918 0.9843 0.0
H2745 H 0.83746 0.29248 0.99308 0.0
C2746 C 0.80803 0.30977 0.0345 0.0
C2747 C 0.81163 0.30067 0.03842 0.0
C2748 C 0.80904 0.31193 0.02429 0.0
C2749 C 0.8136 0.30498 0.01781 0.0
C2750 C 0.81769 0.29616 0.02181 0.0
C2751 C 0.81671 0.29402 0.03201 0.0
C2752 C 0.81346 0.30645 0.00678 0.0
C2753 C 0.82253 0.30596 0.00145 0.0
C2754 C 0.80438 0.30782 0.00145 0.0
C2755 C 0.79449 0.30789 0.00653 0.0
C2756 C 0.7913 0.29958 0.01217 0.0
C2757 C 0.78198 0.29973 0.01697 0.0
C2758 C 0.77576 0.30811 0.01612 0.0
C2759 C 0.77883 0.31636 0.01043 0.0
C2760 C 0.78814 0.31625 0.00563 0.0
C2761 C 0.81518 0.29599 0.95975 0.0
C2762 C 0.80976 0.30291 0.95394 0.0
C2763 C 0.81677 0.29771 0.96996 0.0
C2764 C 0.81303 0.30641 0.97455 0.0
C2765 C 0.80793 0.31351 0.9687 0.0
C2766 C 0.80635 0.31181 0.95847 0.0
C2767 C 0.81359 0.30754 0.98562 0.0
C2768 C 0.80458 0.30848 0.99097 0.0
C2769 C 0.82272 0.30653 0.99093 0.0
C2770 C 0.83254 0.30609 0.98569 0.0
C2771 C 0.83518 0.3135 0.97867 0.0
C2772 C 0.84439 0.31302 0.9737 0.0
C2773 C 0.85107 0.30521 0.97572 0.0
C2774 C 0.84854 0.29786 0.98274 0.0
C2775 C 0.83933 0.29829 0.98773 0.0
H2776 H 0.8582 0.30485 0.97186 0.0
H2777 H 0.76855 0.30821 0.01984 0.0
H2778 H 0.79056 0.16753 0.45791 0.0
H2779 H 0.79193 0.16376 0.47578 0.0
H2780 H 0.81332 0.18774 0.4793 0.0
H2781 H 0.81214 0.19146 0.46141 0.0
H2782 H 0.81795 0.17193 0.49137 0.0
H2783 H 0.78876 0.19192 0.48359 0.0
H2784 H 0.77291 0.19576 0.47486 0.0
H2785 H 0.75972 0.16886 0.4866 0.0
H2786 H 0.77555 0.16479 0.49529 0.0
H2787 H 0.80949 0.18873 0.54128 0.0
H2788 H 0.81206 0.18594 0.52338 0.0
H2789 H 0.78975 0.16253 0.52374 0.0
H2790 H 0.78702 0.16537 0.54163 0.0
H2791 H 0.78578 0.17588 0.50963 0.0
H2792 H 0.81466 0.15724 0.51945 0.0
H2793 H 0.83052 0.15397 0.52838 0.0
H2794 H 0.84437 0.17873 0.5132 0.0
H2795 H 0.82855 0.18224 0.50428 0.0
C2796 C 0.7957 0.17189 0.46244 0.0
C2797 C 0.80112 0.1799 0.45825 0.0
C2798 C 0.79646 0.16973 0.47266 0.0
C2799 C 0.80258 0.1756 0.4789 0.0
C2800 C 0.80853 0.18314 0.47463 0.0
C2801 C 0.80781 0.18528 0.46439 0.0
C2802 C 0.80208 0.17454 0.48996 0.0
C2803 C 0.81093 0.17283 0.49539 0.0
C2804 C 0.79289 0.17554 0.49518 0.0
C2805 C 0.78336 0.17799 0.48999 0.0
C2806 C 0.7825 0.18678 0.48425 0.0
C2807 C 0.77352 0.18901 0.47931 0.0
C2808 C 0.76533 0.18254 0.48015 0.0
C2809 C 0.76608 0.17385 0.48594 0.0
C2810 C 0.77505 0.17158 0.49087 0.0
C2811 C 0.80526 0.18285 0.53761 0.0
C2812 C 0.79798 0.17733 0.54288 0.0
C2813 C 0.80678 0.18123 0.52736 0.0
C2814 C 0.80112 0.17399 0.52221 0.0
C2815 C 0.79419 0.16816 0.52756 0.0
C2816 C 0.79265 0.16979 0.53779 0.0
C2817 C 0.80166 0.17329 0.51111 0.0
C2818 C 0.79279 0.17477 0.50565 0.0
C2819 C 0.81084 0.17213 0.50591 0.0
C2820 C 0.82038 0.17004 0.51125 0.0
C2821 C 0.82106 0.16204 0.51807 0.0
C2822 C 0.83005 0.16013 0.52312 0.0
C2823 C 0.83844 0.16615 0.52137 0.0
C2824 C 0.83786 0.17408 0.51455 0.0
C2825 C 0.82889 0.17602 0.50949 0.0
H2826 H 0.84539 0.16467 0.52528 0.0
H2827 H 0.75838 0.18428 0.47633 0.0
H2828 H 0.71169 0.31245 0.53974 0.0
H2829 H 0.70869 0.31478 0.5219 0.0
H2830 H 0.67689 0.3112 0.52663 0.0
H2831 H 0.67987 0.30864 0.54458 0.0
H2832 H 0.68309 0.29973 0.51165 0.0
H2833 H 0.68691 0.33418 0.52 0.0
H2834 H 0.69477 0.34899 0.52776 0.0
H2835 H 0.7213 0.34437 0.51012 0.0
H2836 H 0.71366 0.32944 0.50235 0.0
H2837 H 0.67745 0.30619 0.45902 0.0
H2838 H 0.67552 0.3098 0.47692 0.0
H2839 H 0.70758 0.31311 0.47973 0.0
H2840 H 0.70955 0.30973 0.46189 0.0
H2841 H 0.69816 0.32672 0.49099 0.0
H2842 H 0.69555 0.29082 0.48525 0.0
H2843 H 0.68815 0.27563 0.47774 0.0
H2844 H 0.6596 0.28293 0.49073 0.0
H2845 H 0.66682 0.29824 0.49822 0.0
C2846 C 0.70403 0.31228 0.53703 0.0
C2847 C 0.69602 0.31032 0.54359 0.0
C2848 C 0.70232 0.31369 0.52681 0.0
C2849 C 0.69255 0.31329 0.52292 0.0
C2850 C 0.68449 0.31158 0.52948 0.0
C2851 C 0.6862 0.31014 0.53973 0.0
C2852 C 0.69094 0.31385 0.51191 0.0
C2853 C 0.68616 0.30577 0.50715 0.0
C2854 C 0.6951 0.32163 0.50602 0.0
C2855 C 0.69971 0.33065 0.51063 0.0
C2856 C 0.69444 0.33628 0.51782 0.0
C2857 C 0.69886 0.34471 0.52222 0.0
C2858 C 0.70853 0.34762 0.51945 0.0
C2859 C 0.7138 0.34211 0.51226 0.0
C2860 C 0.70942 0.33368 0.50784 0.0
C2861 C 0.68408 0.30783 0.46343 0.0
C2862 C 0.69367 0.30757 0.45905 0.0
C2863 C 0.68296 0.30986 0.47366 0.0
C2864 C 0.69142 0.31157 0.4797 0.0
C2865 C 0.70095 0.3118 0.47523 0.0
C2866 C 0.70206 0.30982 0.46502 0.0
C2867 C 0.69055 0.31249 0.49076 0.0
C2868 C 0.69488 0.32082 0.49552 0.0
C2869 C 0.68602 0.30493 0.49667 0.0
C2870 C 0.68169 0.29573 0.49219 0.0
C2871 C 0.68768 0.28922 0.48644 0.0
C2872 C 0.68352 0.28059 0.4822 0.0
C2873 C 0.67341 0.27833 0.48373 0.0
C2874 C 0.66743 0.2847 0.48953 0.0
C2875 C 0.67155 0.29335 0.49378 0.0
H2876 H 0.6702 0.27165 0.48044 0.0
H2877 H 0.71194 0.35414 0.52286 0.0
H2878 H 0.68723 0.17869 0.03987 0.0
H2879 H 0.68478 0.1756 0.02193 0.0
H2880 H 0.67763 0.20683 0.01753 0.0
H2881 H 0.67984 0.20993 0.0354 0.0
H2882 H 0.66594 0.19529 0.00602 0.0
H2883 H 0.7015 0.19763 0.01366 0.0
H2884 H 0.71708 0.19261 0.02227 0.0
H2885 H 0.71428 0.16285 0.01032 0.0
H2886 H 0.69861 0.16768 0.00173 0.0
H2887 H 0.68146 0.20854 0.95748 0.0
H2888 H 0.67819 0.20598 0.97525 0.0
H2889 H 0.68606 0.17475 0.9723 0.0
H2890 H 0.68955 0.17731 0.95446 0.0
H2891 H 0.69578 0.18303 0.98749 0.0
H2892 H 0.66165 0.18198 0.97722 0.0
H2893 H 0.6464 0.18751 0.96835 0.0
H2894 H 0.64654 0.2151 0.98494 0.0
H2895 H 0.66188 0.2098 0.99381 0.0
C2896 C 0.68499 0.18486 0.0351 0.0
C2897 C 0.68384 0.19458 0.03905 0.0
C2898 C 0.68363 0.1831 0.02485 0.0
C2899 C 0.68118 0.19102 0.01836 0.0
C2900 C 0.67953 0.2006 0.02238 0.0
C2901 C 0.68085 0.20237 0.03261 0.0
C2902 C 0.681 0.18961 0.00732 0.0
C2903 C 0.67246 0.19262 0.00195 0.0
C2904 C 0.6894 0.18587 0.00203 0.0
C2905 C 0.69883 0.18298 0.00716 0.0
C2906 C 0.70417 0.19 0.01293 0.0
C2907 C 0.71302 0.18719 0.0178 0.0
C2908 C 0.71665 0.17741 0.01687 0.0
C2909 C 0.71145 0.17042 0.01105 0.0
C2910 C 0.70258 0.17318 0.00618 0.0
C2911 C 0.68236 0.20109 0.96055 0.0
C2912 C 0.68582 0.19314 0.95455 0.0
C2913 C 0.68041 0.19961 0.97073 0.0
C2914 C 0.68178 0.19015 0.97511 0.0
C2915 C 0.68493 0.18211 0.96907 0.0
C2916 C 0.6869 0.18359 0.95887 0.0
C2917 C 0.6808 0.18895 0.98614 0.0
C2918 C 0.68914 0.18547 0.99152 0.0
C2919 C 0.67222 0.1923 0.99143 0.0
C2920 C 0.66296 0.19551 0.98615 0.0
C2921 C 0.65847 0.18926 0.97893 0.0
C2922 C 0.6498 0.19234 0.97391 0.0
C2923 C 0.64551 0.20165 0.97607 0.0
C2924 C 0.64987 0.20789 0.98328 0.0
C2925 C 0.65854 0.20484 0.98832 0.0
H2926 H 0.63881 0.20403 0.97217 0.0
H2927 H 0.7235 0.17525 0.02065 0.0
H2928 H 0.10765 0.16695 0.69851 0.0
H2929 H 0.11754 0.15167 0.70079 0.0
H2930 H 0.14155 0.16448 0.68334 0.0
H2931 H 0.13172 0.1798 0.68103 0.0
H2932 H 0.13698 0.14492 0.67781 0.0
H2933 H 0.14392 0.16342 0.70798 0.0
H2934 H 0.13956 0.17277 0.72332 0.0
H2935 H 0.12422 0.14695 0.73488 0.0
H2936 H 0.12837 0.13749 0.71953 0.0
H2937 H 0.17496 0.10965 0.68946 0.0
H2938 H 0.16503 0.12485 0.68711 0.0
H2939 H 0.14275 0.11357 0.70767 0.0
H2940 H 0.15281 0.09847 0.71028 0.0
H2941 H 0.14629 0.13242 0.71158 0.0
H2942 H 0.13906 0.11381 0.68173 0.0
H2943 H 0.14291 0.10429 0.66636 0.0
H2944 H 0.15807 0.1299 0.6541 0.0
H2945 H 0.15442 0.13954 0.66946 0.0
C2946 C 0.11504 0.16653 0.69517 0.0
C2947 C 0.11891 0.1746 0.6896 0.0
C2948 C 0.12069 0.1578 0.69651 0.0
C2949 C 0.1303 0.15698 0.69229 0.0
C2950 C 0.13415 0.16498 0.68666 0.0
C2951 C 0.12854 0.17374 0.68538 0.0
C2952 C 0.13629 0.14773 0.69368 0.0
C2953 C 0.13914 0.14224 0.68518 0.0
C2954 C 0.13885 0.14412 0.70332 0.0
C2955 C 0.13637 0.14978 0.71256 0.0
C2956 C 0.13954 0.15976 0.71375 0.0
C2957 C 0.13712 0.16508 0.72246 0.0
C2958 C 0.13159 0.16046 0.73006 0.0
C2959 C 0.12849 0.15052 0.72898 0.0
C2960 C 0.13088 0.14517 0.72029 0.0
C2961 C 0.16793 0.11038 0.69345 0.0
C2962 C 0.16466 0.10284 0.70004 0.0
C2963 C 0.16223 0.11907 0.69207 0.0
C2964 C 0.15306 0.12031 0.69711 0.0
C2965 C 0.14979 0.11278 0.70369 0.0
C2966 C 0.15553 0.10414 0.70516 0.0
C2967 C 0.147 0.12955 0.69569 0.0
C2968 C 0.14413 0.13506 0.70419 0.0
C2969 C 0.14435 0.13313 0.68605 0.0
C2970 C 0.14655 0.12736 0.67679 0.0
C2971 C 0.14328 0.11739 0.67579 0.0
C2972 C 0.14542 0.11198 0.66707 0.0
C2973 C 0.15075 0.11648 0.65927 0.0
C2974 C 0.15394 0.12642 0.66016 0.0
C2975 C 0.15184 0.13186 0.66886 0.0
H2976 H 0.1524 0.11228 0.65252 0.0
H2977 H 0.12973 0.16459 0.7368 0.0
H2978 H 0.88502 0.67378 0.19019 0.0
H2979 H 0.86965 0.66406 0.18781 0.0
H2980 H 0.88002 0.64227 0.20931 0.0
H2981 H 0.89542 0.65195 0.21177 0.0
H2982 H 0.87203 0.63364 0.19198 0.0
H2983 H 0.86297 0.6586 0.2164 0.0
H2984 H 0.86137 0.67577 0.22304 0.0
H2985 H 0.84254 0.68381 0.1982 0.0
H2986 H 0.84414 0.66671 0.19132 0.0
H2987 H 0.82617 0.60781 0.19897 0.0
H2988 H 0.8416 0.61733 0.2016 0.0
H2989 H 0.83002 0.64127 0.18319 0.0
H2990 H 0.81446 0.63191 0.18075 0.0
H2991 H 0.83879 0.6488 0.19907 0.0
H2992 H 0.84779 0.6243 0.17438 0.0
H2993 H 0.84949 0.60736 0.16718 0.0
H2994 H 0.86849 0.59869 0.19168 0.0
H2995 H 0.86679 0.61555 0.1991 0.0
C2996 C 0.88405 0.6669 0.19439 0.0
C2997 C 0.89143 0.66365 0.20119 0.0
C2998 C 0.87525 0.66138 0.19305 0.0
C2999 C 0.87367 0.6525 0.19845 0.0
C3000 C 0.8811 0.64912 0.20509 0.0
C3001 C 0.88988 0.65467 0.2065 0.0
C3002 C 0.86424 0.64677 0.19721 0.0
C3003 C 0.86476 0.63689 0.19365 0.0
C3004 C 0.85476 0.65112 0.19916 0.0
C3005 C 0.85376 0.6614 0.2033 0.0
C3006 C 0.85855 0.66405 0.21231 0.0
C3007 C 0.85763 0.67377 0.21612 0.0
C3008 C 0.85188 0.68089 0.21103 0.0
C3009 C 0.84701 0.67829 0.20213 0.0
C3010 C 0.84791 0.66859 0.19827 0.0
C3011 C 0.8269 0.61511 0.19549 0.0
C3012 C 0.8191 0.61909 0.18962 0.0
C3013 C 0.83575 0.62052 0.19696 0.0
C3014 C 0.83705 0.62995 0.19246 0.0
C3015 C 0.82921 0.634 0.18672 0.0
C3016 C 0.82032 0.62863 0.18531 0.0
C3017 C 0.84654 0.63563 0.19379 0.0
C3018 C 0.84604 0.64552 0.19738 0.0
C3019 C 0.85604 0.63131 0.19179 0.0
C3020 C 0.85708 0.62116 0.18734 0.0
C3021 C 0.85227 0.61876 0.17827 0.0
C3022 C 0.85324 0.60917 0.17415 0.0
C3023 C 0.85908 0.60194 0.17899 0.0
C3024 C 0.86397 0.60429 0.18795 0.0
C3025 C 0.86301 0.61387 0.19211 0.0
H3026 H 0.85982 0.59453 0.17578 0.0
H3027 H 0.85117 0.6884 0.214 0.0
H3028 H 0.32675 0.39207 0.68832 0.0
H3029 H 0.33569 0.37632 0.68548 0.0
H3030 H 0.34056 0.37331 0.71732 0.0
H3031 H 0.332 0.38926 0.72016 0.0
H3032 H 0.35649 0.36765 0.7083 0.0
H3033 H 0.32171 0.36005 0.70441 0.0
H3034 H 0.3046 0.36187 0.69764 0.0
H3035 H 0.31547 0.35561 0.66799 0.0
H3036 H 0.33268 0.35388 0.67457 0.0
H3037 H 0.35382 0.31032 0.69491 0.0
H3038 H 0.34575 0.32631 0.69869 0.0
H3039 H 0.37246 0.34201 0.68935 0.0
H3040 H 0.38071 0.32601 0.68596 0.0
H3041 H 0.34042 0.34105 0.68787 0.0
H3042 H 0.37488 0.36402 0.70141 0.0
H3043 H 0.39089 0.36125 0.71027 0.0
H3044 H 0.37872 0.33503 0.7244 0.0
H3045 H 0.36261 0.33771 0.71573 0.0
C3046 C 0.32977 0.38807 0.69471 0.0
C3047 C 0.32863 0.39187 0.70447 0.0
C3048 C 0.33484 0.37904 0.69308 0.0
C3049 C 0.33864 0.37351 0.7012 0.0
C3050 C 0.33769 0.37742 0.71093 0.0
C3051 C 0.33277 0.38653 0.71255 0.0
C3052 C 0.3435 0.36361 0.69959 0.0
C3053 C 0.35298 0.36184 0.70383 0.0
C3054 C 0.33884 0.35591 0.69395 0.0
C3055 C 0.3285 0.35693 0.68997 0.0
C3056 C 0.32046 0.35913 0.69643 0.0
C3057 C 0.31074 0.36013 0.69264 0.0
C3058 C 0.30895 0.35888 0.68239 0.0
C3059 C 0.31687 0.35659 0.67593 0.0
C3060 C 0.32661 0.35559 0.67968 0.0
C3061 C 0.358 0.31718 0.69372 0.0
C3062 C 0.36792 0.31691 0.69018 0.0
C3063 C 0.35336 0.32633 0.69586 0.0
C3064 C 0.35851 0.33539 0.69441 0.0
C3065 C 0.36839 0.33513 0.69075 0.0
C3066 C 0.37309 0.32597 0.68877 0.0
C3067 C 0.35345 0.34511 0.69653 0.0
C3068 C 0.34395 0.34686 0.69235 0.0
C3069 C 0.35793 0.35264 0.70253 0.0
C3070 C 0.36757 0.35101 0.70784 0.0
C3071 C 0.37561 0.35768 0.70644 0.0
C3072 C 0.38471 0.35612 0.71142 0.0
C3073 C 0.38583 0.34795 0.71787 0.0
C3074 C 0.37785 0.34133 0.71937 0.0
C3075 C 0.36874 0.34286 0.71442 0.0
H3076 H 0.39288 0.34676 0.72171 0.0
H3077 H 0.30142 0.35966 0.67947 0.0
H3078 H 0.6083 0.81379 0.1856 0.0
H3079 H 0.62351 0.82396 0.18434 0.0
H3080 H 0.61158 0.84464 0.20616 0.0
H3081 H 0.59635 0.83448 0.20751 0.0
H3082 H 0.61996 0.85406 0.18932 0.0
H3083 H 0.62883 0.82876 0.21343 0.0
H3084 H 0.63073 0.81148 0.21967 0.0
H3085 H 0.65087 0.80476 0.19547 0.0
H3086 H 0.64897 0.82197 0.189 0.0
H3087 H 0.66456 0.88125 0.19865 0.0
H3088 H 0.64941 0.87114 0.20053 0.0
H3089 H 0.66251 0.848 0.18209 0.0
H3090 H 0.6778 0.85796 0.18042 0.0
H3091 H 0.65337 0.83983 0.1974 0.0
H3092 H 0.64453 0.86456 0.17294 0.0
H3093 H 0.64255 0.8816 0.16605 0.0
H3094 H 0.62234 0.88911 0.18996 0.0
H3095 H 0.62431 0.87215 0.19707 0.0
C3096 C 0.6089 0.82051 0.19012 0.0
C3097 C 0.60113 0.82332 0.19668 0.0
C3098 C 0.61761 0.82629 0.18942 0.0
C3099 C 0.61869 0.835 0.19521 0.0
C3100 C 0.61089 0.83793 0.20164 0.0
C3101 C 0.60221 0.8321 0.20242 0.0
C3102 C 0.62797 0.84107 0.19456 0.0
C3103 C 0.62726 0.85101 0.19122 0.0
C3104 C 0.6375 0.83698 0.19678 0.0
C3105 C 0.63867 0.82663 0.20067 0.0
C3106 C 0.63359 0.82357 0.20939 0.0
C3107 C 0.63469 0.81379 0.21298 0.0
C3108 C 0.6409 0.80701 0.20796 0.0
C3109 C 0.64605 0.81001 0.19935 0.0
C3110 C 0.64497 0.81978 0.19572 0.0
C3111 C 0.66422 0.874 0.19501 0.0
C3112 C 0.67237 0.87042 0.18935 0.0
C3113 C 0.65553 0.86825 0.19605 0.0
C3114 C 0.65474 0.85887 0.19132 0.0
C3115 C 0.66293 0.85522 0.18579 0.0
C3116 C 0.67166 0.86093 0.18483 0.0
C3117 C 0.6454 0.85286 0.19214 0.0
C3118 C 0.64609 0.84291 0.19551 0.0
C3119 C 0.63586 0.85692 0.18985 0.0
C3120 C 0.63465 0.86712 0.18559 0.0
C3121 C 0.63973 0.86987 0.17677 0.0
C3122 C 0.6386 0.87951 0.17282 0.0
C3123 C 0.63235 0.88644 0.17758 0.0
C3124 C 0.62719 0.88374 0.18629 0.0
C3125 C 0.6283 0.87411 0.19028 0.0
H3126 H 0.63148 0.8939 0.17451 0.0
H3127 H 0.64174 0.79944 0.21075 0.0
H3128 H 0.14916 0.3989 0.77648 0.0
H3129 H 0.13903 0.38387 0.77926 0.0
H3130 H 0.159 0.37472 0.80299 0.0
H3131 H 0.16918 0.38974 0.80027 0.0
H3132 H 0.15462 0.35935 0.78969 0.0
H3133 H 0.13681 0.38405 0.80893 0.0
H3134 H 0.12822 0.40018 0.81178 0.0
H3135 H 0.10657 0.39285 0.78911 0.0
H3136 H 0.11511 0.37673 0.78602 0.0
H3137 H 0.12459 0.32028 0.80961 0.0
H3138 H 0.13468 0.33539 0.80731 0.0
H3139 H 0.11311 0.34658 0.78595 0.0
H3140 H 0.10284 0.33161 0.78843 0.0
H3141 H 0.11843 0.36101 0.7982 0.0
H3142 H 0.13608 0.33659 0.7786 0.0
H3143 H 0.14464 0.32054 0.77528 0.0
H3144 H 0.16654 0.32734 0.79788 0.0
H3145 H 0.15803 0.34338 0.80143 0.0
C3146 C 0.15138 0.39371 0.78232 0.0
C3147 C 0.15996 0.39552 0.78817 0.0
C3148 C 0.14557 0.38515 0.78391 0.0
C3149 C 0.14824 0.37822 0.79137 0.0
C3150 C 0.15681 0.37998 0.7972 0.0
C3151 C 0.16259 0.38859 0.79566 0.0
C3152 C 0.14215 0.36907 0.79298 0.0
C3153 C 0.14674 0.35969 0.79169 0.0
C3154 C 0.13182 0.36955 0.79532 0.0
C3155 C 0.12666 0.37923 0.79718 0.0
C3156 C 0.13027 0.38592 0.80449 0.0
C3157 C 0.1254 0.39505 0.80616 0.0
C3158 C 0.11687 0.39755 0.80061 0.0
C3159 C 0.11318 0.39091 0.79339 0.0
C3160 C 0.11803 0.38177 0.79169 0.0
C3161 C 0.12201 0.32594 0.8044 0.0
C3162 C 0.11293 0.32473 0.79918 0.0
C3163 C 0.12781 0.33456 0.80306 0.0
C3164 C 0.12473 0.34207 0.79635 0.0
C3165 C 0.11564 0.34089 0.79116 0.0
C3166 C 0.1098 0.33231 0.79256 0.0
C3167 C 0.13088 0.35124 0.79487 0.0
C3168 C 0.12631 0.36063 0.7962 0.0
C3169 C 0.14122 0.35077 0.79248 0.0
C3170 C 0.14636 0.34114 0.79035 0.0
C3171 C 0.14268 0.33462 0.78292 0.0
C3172 C 0.14753 0.32554 0.78098 0.0
C3173 C 0.15611 0.32291 0.78638 0.0
C3174 C 0.15988 0.32938 0.79371 0.0
C3175 C 0.15505 0.33847 0.79568 0.0
H3176 H 0.15986 0.31587 0.78488 0.0
H3177 H 0.11311 0.40462 0.80192 0.0
H3178 H 0.67974 0.63192 0.31172 0.0
H3179 H 0.66519 0.64306 0.31132 0.0
H3180 H 0.64864 0.621 0.29444 0.0
H3181 H 0.66318 0.60982 0.29473 0.0
H3182 H 0.64615 0.63982 0.28687 0.0
H3183 H 0.64431 0.62387 0.31913 0.0
H3184 H 0.65066 0.61861 0.33567 0.0
H3185 H 0.65514 0.6494 0.34395 0.0
H3186 H 0.64895 0.65484 0.32739 0.0
H3187 H 0.5975 0.66026 0.29314 0.0
H3188 H 0.61211 0.6492 0.29343 0.0
H3189 H 0.62808 0.67065 0.31162 0.0
H3190 H 0.61343 0.68167 0.31154 0.0
H3191 H 0.63095 0.65218 0.3185 0.0
H3192 H 0.63287 0.66826 0.28645 0.0
H3193 H 0.62672 0.67372 0.26989 0.0
H3194 H 0.62237 0.64304 0.26118 0.0
H3195 H 0.62837 0.63739 0.27774 0.0
C3196 C 0.67302 0.62944 0.30789 0.0
C3197 C 0.67261 0.61996 0.30329 0.0
C3198 C 0.66469 0.6358 0.30771 0.0
C3199 C 0.65579 0.63281 0.30295 0.0
C3200 C 0.65543 0.62344 0.29817 0.0
C3201 C 0.66374 0.61706 0.29837 0.0
C3202 C 0.64685 0.63942 0.30299 0.0
C3203 C 0.64274 0.64242 0.29378 0.0
C3204 C 0.64256 0.64301 0.31201 0.0
C3205 C 0.64626 0.63975 0.32198 0.0
C3206 C 0.64673 0.62952 0.32445 0.0
C3207 C 0.65029 0.6265 0.33383 0.0
C3208 C 0.65333 0.63366 0.34085 0.0
C3209 C 0.6528 0.64386 0.3385 0.0
C3210 C 0.64925 0.64691 0.32912 0.0
C3211 C 0.60411 0.66262 0.29722 0.0
C3212 C 0.60431 0.67186 0.30229 0.0
C3213 C 0.61248 0.65631 0.29734 0.0
C3214 C 0.62125 0.65916 0.30243 0.0
C3215 C 0.62141 0.66831 0.30763 0.0
C3216 C 0.61303 0.67461 0.30755 0.0
C3217 C 0.63024 0.65258 0.30237 0.0
C3218 C 0.63436 0.64959 0.31158 0.0
C3219 C 0.63457 0.64904 0.29335 0.0
C3220 C 0.63097 0.65241 0.28337 0.0
C3221 C 0.63053 0.66268 0.28103 0.0
C3222 C 0.62708 0.66581 0.27164 0.0
C3223 C 0.62413 0.65873 0.2645 0.0
C3224 C 0.62465 0.64851 0.26673 0.0
C3225 C 0.62807 0.64534 0.27611 0.0
H3226 H 0.62147 0.66117 0.25723 0.0
H3227 H 0.65608 0.63132 0.34811 0.0
H3228 H 0.36783 0.17346 0.80789 0.0
H3229 H 0.35745 0.15843 0.80627 0.0
H3230 H 0.37894 0.14569 0.78574 0.0
H3231 H 0.38939 0.16069 0.78732 0.0
H3232 H 0.35924 0.14366 0.77923 0.0
H3233 H 0.37849 0.13756 0.80913 0.0
H3234 H 0.38511 0.14152 0.82594 0.0
H3235 H 0.35513 0.14289 0.8376 0.0
H3236 H 0.34832 0.13908 0.82083 0.0
H3237 H 0.34092 0.09387 0.77889 0.0
H3238 H 0.35152 0.10871 0.78057 0.0
H3239 H 0.33206 0.12006 0.8038 0.0
H3240 H 0.32159 0.1051 0.80236 0.0
H3241 H 0.35083 0.1229 0.80891 0.0
H3242 H 0.33136 0.12926 0.77942 0.0
H3243 H 0.32433 0.12573 0.76269 0.0
H3244 H 0.35402 0.12441 0.75031 0.0
H3245 H 0.36124 0.1278 0.767 0.0
C3246 C 0.37035 0.16747 0.80302 0.0
C3247 C 0.37945 0.16825 0.79776 0.0
C3248 C 0.36442 0.15887 0.80213 0.0
C3249 C 0.36748 0.15092 0.79595 0.0
C3250 C 0.37647 0.15175 0.79056 0.0
C3251 C 0.38244 0.16031 0.7915 0.0
C3252 C 0.36129 0.14173 0.79512 0.0
C3253 C 0.3575 0.13903 0.78569 0.0
C3254 C 0.35881 0.13587 0.8036 0.0
C3255 C 0.36289 0.13814 0.8137 0.0
C3256 C 0.3733 0.13879 0.81526 0.0
C3257 C 0.37709 0.14099 0.82478 0.0
C3258 C 0.37054 0.14248 0.83283 0.0
C3259 C 0.36019 0.14175 0.83136 0.0
C3260 C 0.35637 0.13956 0.82185 0.0
C3261 C 0.33891 0.09951 0.78437 0.0
C3262 C 0.33039 0.09832 0.79047 0.0
C3263 C 0.34495 0.10803 0.78528 0.0
C3264 C 0.34251 0.11559 0.7922 0.0
C3265 C 0.33409 0.11434 0.7984 0.0
C3266 C 0.3281 0.10579 0.79755 0.0
C3267 C 0.34874 0.12479 0.79301 0.0
C3268 C 0.35255 0.1275 0.80244 0.0
C3269 C 0.35116 0.13071 0.78453 0.0
C3270 C 0.34684 0.12868 0.77448 0.0
C3271 C 0.33639 0.12814 0.77315 0.0
C3272 C 0.33237 0.12617 0.76367 0.0
C3273 C 0.33872 0.12482 0.75545 0.0
C3274 C 0.34911 0.12545 0.75669 0.0
C3275 C 0.35317 0.1274 0.76615 0.0
H3276 H 0.3356 0.1233 0.74812 0.0
H3277 H 0.37349 0.14418 0.84019 0.0
H3278 H 0.82926 0.88643 0.29036 0.0
H3279 H 0.84439 0.87622 0.28853 0.0
H3280 H 0.83187 0.85401 0.3084 0.0
H3281 H 0.8167 0.86416 0.31026 0.0
H3282 H 0.85164 0.85887 0.31297 0.0
H3283 H 0.83221 0.84944 0.28406 0.0
H3284 H 0.82247 0.85251 0.26865 0.0
H3285 H 0.8481 0.86645 0.25506 0.0
H3286 H 0.85796 0.86358 0.27045 0.0
H3287 H 0.8862 0.81958 0.30385 0.0
H3288 H 0.87115 0.82986 0.30568 0.0
H3289 H 0.8821 0.85004 0.2829 0.0
H3290 H 0.89705 0.83962 0.28083 0.0
H3291 H 0.86309 0.84639 0.27984 0.0
H3292 H 0.88262 0.85608 0.30835 0.0
H3293 H 0.89256 0.85355 0.32373 0.0
H3294 H 0.86718 0.83991 0.33807 0.0
H3295 H 0.85712 0.84224 0.32272 0.0
C3296 C 0.82971 0.87937 0.29433 0.0
C3297 C 0.82177 0.8761 0.30044 0.0
C3298 C 0.83835 0.87353 0.29325 0.0
C3299 C 0.83921 0.86433 0.29828 0.0
C3300 C 0.83134 0.86108 0.30445 0.0
C3301 C 0.82266 0.86688 0.30547 0.0
C3302 C 0.84838 0.85814 0.29718 0.0
C3303 C 0.85409 0.85602 0.30575 0.0
C3304 C 0.8517 0.85468 0.28772 0.0
C3305 C 0.84579 0.85638 0.27845 0.0
C3306 C 0.83575 0.85323 0.27782 0.0
C3307 C 0.83021 0.85492 0.26908 0.0
C3308 C 0.83466 0.85969 0.26089 0.0
C3309 C 0.84466 0.86276 0.26141 0.0
C3310 C 0.85023 0.8611 0.27014 0.0
C3311 C 0.88543 0.82623 0.29926 0.0
C3312 C 0.89283 0.8288 0.29222 0.0
C3313 C 0.87683 0.83213 0.30034 0.0
C3314 C 0.87554 0.84081 0.29453 0.0
C3315 C 0.88293 0.84338 0.28748 0.0
C3316 C 0.89148 0.83743 0.28632 0.0
C3317 C 0.8664 0.84709 0.29565 0.0
C3318 C 0.86068 0.84924 0.28707 0.0
C3319 C 0.86312 0.85065 0.3051 0.0
C3320 C 0.86915 0.84925 0.31435 0.0
C3321 C 0.87918 0.85247 0.31475 0.0
C3322 C 0.88483 0.85109 0.32347 0.0
C3323 C 0.88051 0.84655 0.33186 0.0
C3324 C 0.87052 0.84341 0.33156 0.0
C3325 C 0.86484 0.84477 0.32286 0.0
H3326 H 0.8849 0.84549 0.3386 0.0
H3327 H 0.83036 0.86099 0.25413 0.0
H3328 H 0.70016 0.10626 0.16523 0.0
H3329 H 0.70251 0.11594 0.14983 0.0
H3330 H 0.6844 0.13981 0.16199 0.0
H3331 H 0.68203 0.1302 0.17744 0.0
H3332 H 0.67927 0.1347 0.14235 0.0
H3333 H 0.7089 0.14269 0.16134 0.0
H3334 H 0.72416 0.13885 0.17104 0.0
H3335 H 0.7366 0.1234 0.14567 0.0
H3336 H 0.72134 0.12704 0.13586 0.0
H3337 H 0.69066 0.17259 0.10698 0.0
H3338 H 0.68826 0.16273 0.1222 0.0
H3339 H 0.70959 0.14088 0.11148 0.0
H3340 H 0.71225 0.15087 0.09635 0.0
H3341 H 0.71304 0.14471 0.1304 0.0
H3342 H 0.68383 0.13648 0.11128 0.0
H3343 H 0.66856 0.13977 0.10138 0.0
H3344 H 0.65529 0.15486 0.12654 0.0
H3345 H 0.67054 0.15177 0.13655 0.0
C3346 C 0.69669 0.11358 0.16464 0.0
C3347 C 0.69093 0.11748 0.17256 0.0
C3348 C 0.69806 0.1191 0.15585 0.0
C3349 C 0.69367 0.12861 0.1548 0.0
C3350 C 0.68785 0.13249 0.16266 0.0
C3351 C 0.68654 0.127 0.17149 0.0
C3352 C 0.6951 0.13447 0.14548 0.0
C3353 C 0.68663 0.13701 0.13978 0.0
C3354 C 0.70474 0.13722 0.14202 0.0
C3355 C 0.71393 0.13505 0.1479 0.0
C3356 C 0.71485 0.1384 0.15786 0.0
C3357 C 0.72351 0.13627 0.16337 0.0
C3358 C 0.73133 0.13086 0.15899 0.0
C3359 C 0.73053 0.12758 0.14907 0.0
C3360 C 0.72188 0.12968 0.14352 0.0
C3361 C 0.69481 0.16567 0.10784 0.0
C3362 C 0.70163 0.1625 0.10044 0.0
C3363 C 0.6934 0.16001 0.11653 0.0
C3364 C 0.69864 0.15098 0.11794 0.0
C3365 C 0.70545 0.14781 0.11056 0.0
C3366 C 0.70694 0.15352 0.10191 0.0
C3367 C 0.6972 0.14497 0.12721 0.0
C3368 C 0.70566 0.1424 0.13292 0.0
C3369 C 0.68755 0.14211 0.13063 0.0
C3370 C 0.67837 0.14398 0.12463 0.0
C3371 C 0.67769 0.14057 0.11468 0.0
C3372 C 0.66903 0.14238 0.10905 0.0
C3373 C 0.66097 0.14754 0.11332 0.0
C3374 C 0.66154 0.15087 0.12324 0.0
C3375 C 0.67019 0.14908 0.1289 0.0
H3376 H 0.65427 0.14894 0.10895 0.0
H3377 H 0.73803 0.12922 0.16327 0.0
H3378 H 0.83873 0.20961 0.5982 0.0
H3379 H 0.84945 0.20751 0.61294 0.0
H3380 H 0.82871 0.18585 0.62501 0.0
H3381 H 0.81794 0.1879 0.61029 0.0
H3382 H 0.8346 0.20004 0.63897 0.0
H3383 H 0.85007 0.17789 0.61513 0.0
H3384 H 0.85766 0.17329 0.59891 0.0
H3385 H 0.88084 0.19518 0.60337 0.0
H3386 H 0.8733 0.20002 0.61956 0.0
H3387 H 0.86538 0.18143 0.6781 0.0
H3388 H 0.85474 0.18309 0.66328 0.0
H3389 H 0.87678 0.20239 0.64957 0.0
H3390 H 0.88758 0.20056 0.66427 0.0
H3391 H 0.87013 0.18932 0.63636 0.0
H3392 H 0.85486 0.21174 0.6599 0.0
H3393 H 0.84732 0.21682 0.676 0.0
H3394 H 0.82387 0.19512 0.67205 0.0
H3395 H 0.83134 0.18982 0.65598 0.0
C3396 C 0.83646 0.20437 0.60397 0.0
C3397 C 0.8275 0.1989 0.60307 0.0
C3398 C 0.84261 0.20316 0.61237 0.0
C3399 C 0.8399 0.19647 0.62003 0.0
C3400 C 0.83093 0.19104 0.61918 0.0
C3401 C 0.82481 0.1922 0.61075 0.0
C3402 C 0.84635 0.19526 0.62899 0.0
C3403 C 0.84233 0.19756 0.63843 0.0
C3404 C 0.85651 0.19229 0.62823 0.0
C3405 C 0.86106 0.18938 0.61851 0.0
C3406 C 0.85674 0.18179 0.61261 0.0
C3407 C 0.86104 0.17912 0.60343 0.0
C3408 C 0.86971 0.18396 0.6001 0.0
C3409 C 0.87412 0.19145 0.60595 0.0
C3410 C 0.86984 0.19415 0.61513 0.0
C3411 C 0.86796 0.18604 0.67194 0.0
C3412 C 0.87731 0.19088 0.67238 0.0
C3413 C 0.86185 0.18702 0.66349 0.0
C3414 C 0.8649 0.19298 0.65536 0.0
C3415 C 0.87426 0.19776 0.65575 0.0
C3416 C 0.88041 0.19673 0.66418 0.0
C3417 C 0.85839 0.1941 0.64639 0.0
C3418 C 0.8624 0.19179 0.63693 0.0
C3419 C 0.84824 0.19714 0.64713 0.0
C3420 C 0.84372 0.20031 0.65679 0.0
C3421 C 0.84814 0.208 0.66251 0.0
C3422 C 0.84387 0.21093 0.67162 0.0
C3423 C 0.83513 0.20628 0.67506 0.0
C3424 C 0.83064 0.19871 0.66938 0.0
C3425 C 0.83489 0.19574 0.66027 0.0
H3426 H 0.83184 0.20856 0.68211 0.0
H3427 H 0.87304 0.18189 0.59299 0.0
H3428 H 0.79184 0.38521 0.1645 0.0
H3429 H 0.78956 0.3751 0.14936 0.0
H3430 H 0.80905 0.35234 0.16152 0.0
H3431 H 0.81134 0.36238 0.17672 0.0
H3432 H 0.81347 0.35741 0.14162 0.0
H3433 H 0.78482 0.34818 0.1615 0.0
H3434 H 0.76965 0.35139 0.17156 0.0
H3435 H 0.75573 0.36577 0.14635 0.0
H3436 H 0.77089 0.36278 0.13617 0.0
H3437 H 0.80325 0.31885 0.10657 0.0
H3438 H 0.80546 0.3288 0.12178 0.0
H3439 H 0.78262 0.34939 0.11171 0.0
H3440 H 0.78015 0.33928 0.09661 0.0
H3441 H 0.77995 0.34552 0.13067 0.0
H3442 H 0.80819 0.35514 0.11073 0.0
H3443 H 0.82334 0.35255 0.10045 0.0
H3444 H 0.83801 0.33832 0.12532 0.0
H3445 H 0.8229 0.3407 0.13571 0.0
C3446 C 0.79563 0.37804 0.16397 0.0
C3447 C 0.80176 0.37458 0.17182 0.0
C3448 C 0.79429 0.37227 0.15533 0.0
C3449 C 0.79909 0.36296 0.15436 0.0
C3450 C 0.80527 0.35951 0.16213 0.0
C3451 C 0.80654 0.36524 0.17082 0.0
C3452 C 0.79773 0.35686 0.14517 0.0
C3453 C 0.80617 0.35468 0.13928 0.0
C3454 C 0.78816 0.35357 0.142 0.0
C3455 C 0.77903 0.35535 0.1481 0.0
C3456 C 0.77856 0.35211 0.15812 0.0
C3457 C 0.76996 0.35387 0.16385 0.0
C3458 C 0.76174 0.3588 0.15961 0.0
C3459 C 0.76211 0.36196 0.14963 0.0
C3460 C 0.7707 0.36023 0.14388 0.0
C3461 C 0.79872 0.32552 0.10757 0.0
C3462 C 0.79155 0.3283 0.10037 0.0
C3463 C 0.80003 0.33123 0.11626 0.0
C3464 C 0.79431 0.33994 0.11784 0.0
C3465 C 0.78713 0.34271 0.11066 0.0
C3466 C 0.78574 0.33694 0.10202 0.0
C3467 C 0.7957 0.34605 0.12705 0.0
C3468 C 0.78727 0.34824 0.13297 0.0
C3469 C 0.80527 0.34944 0.13019 0.0
C3470 C 0.81438 0.34801 0.12397 0.0
C3471 C 0.81462 0.35139 0.11398 0.0
C3472 C 0.82321 0.34997 0.10814 0.0
C3473 C 0.83163 0.34525 0.11222 0.0
C3474 C 0.83148 0.34196 0.12216 0.0
C3475 C 0.82291 0.34335 0.12804 0.0
H3476 H 0.83827 0.34416 0.10768 0.0
H3477 H 0.75509 0.36016 0.16405 0.0
H3478 H 0.60459 0.29045 0.66688 0.0
H3479 H 0.61492 0.28864 0.65183 0.0
H3480 H 0.63746 0.30779 0.6649 0.0
H3481 H 0.62719 0.30963 0.68 0.0
H3482 H 0.63292 0.3128 0.64521 0.0
H3483 H 0.64147 0.28333 0.66413 0.0
H3484 H 0.63796 0.26783 0.67354 0.0
H3485 H 0.62391 0.25504 0.64755 0.0
H3486 H 0.62722 0.27053 0.63802 0.0
H3487 H 0.67222 0.30332 0.61074 0.0
H3488 H 0.6619 0.30514 0.62575 0.0
H3489 H 0.64116 0.28315 0.61422 0.0
H3490 H 0.65161 0.28109 0.5993 0.0
H3491 H 0.64465 0.27961 0.6332 0.0
H3492 H 0.63581 0.30873 0.61419 0.0
H3493 H 0.63882 0.32424 0.60459 0.0
H3494 H 0.65268 0.3377 0.63035 0.0
H3495 H 0.64987 0.32222 0.64006 0.0
C3496 C 0.61176 0.29426 0.66657 0.0
C3497 C 0.61508 0.30017 0.67464 0.0
C3498 C 0.61766 0.29319 0.65797 0.0
C3499 C 0.62697 0.29803 0.65729 0.0
C3500 C 0.63029 0.30399 0.6653 0.0
C3501 C 0.62442 0.305 0.67393 0.0
C3502 C 0.63322 0.29695 0.64816 0.0
C3503 C 0.63561 0.30557 0.64264 0.0
C3504 C 0.63647 0.28747 0.64468 0.0
C3505 C 0.6345 0.27813 0.65039 0.0
C3506 C 0.63756 0.27725 0.66044 0.0
C3507 C 0.63562 0.26845 0.6658 0.0
C3508 C 0.63069 0.26046 0.66115 0.0
C3509 C 0.62771 0.26124 0.65114 0.0
C3510 C 0.62963 0.27002 0.64576 0.0
C3511 C 0.66544 0.2989 0.61137 0.0
C3512 C 0.66272 0.29208 0.60381 0.0
C3513 C 0.65952 0.29998 0.61995 0.0
C3514 C 0.65067 0.29438 0.62107 0.0
C3515 C 0.64795 0.28755 0.61353 0.0
C3516 C 0.65391 0.28641 0.60499 0.0
C3517 C 0.64437 0.29548 0.6302 0.0
C3518 C 0.64197 0.28686 0.63573 0.0
C3519 C 0.64103 0.30496 0.63364 0.0
C3520 C 0.64272 0.31428 0.62782 0.0
C3521 C 0.63957 0.31497 0.61778 0.0
C3522 C 0.64123 0.32376 0.61233 0.0
C3523 C 0.64596 0.33194 0.61685 0.0
C3524 C 0.64902 0.33135 0.62685 0.0
C3525 C 0.6474 0.32258 0.63234 0.0
H3526 H 0.64723 0.33873 0.61261 0.0
H3527 H 0.62919 0.25366 0.66531 0.0
H3528 H 0.68284 0.31559 0.38106 0.0
H3529 H 0.68181 0.326 0.36601 0.0
H3530 H 0.70307 0.34673 0.37883 0.0
H3531 H 0.70415 0.33635 0.39392 0.0
H3532 H 0.68672 0.35621 0.37016 0.0
H3533 H 0.71078 0.33084 0.36139 0.0
H3534 H 0.71696 0.31354 0.35934 0.0
H3535 H 0.69309 0.30729 0.33865 0.0
H3536 H 0.68669 0.32452 0.34069 0.0
H3537 H 0.69748 0.38384 0.32616 0.0
H3538 H 0.69885 0.37349 0.3412 0.0
H3539 H 0.68014 0.35096 0.32745 0.0
H3540 H 0.67895 0.36116 0.31228 0.0
H3541 H 0.6953 0.34237 0.33671 0.0
H3542 H 0.67096 0.36733 0.34542 0.0
H3543 H 0.66429 0.38444 0.34752 0.0
H3544 H 0.68789 0.39128 0.36832 0.0
H3545 H 0.69479 0.37424 0.36625 0.0
C3546 C 0.68729 0.32237 0.38069 0.0
C3547 C 0.6936 0.32513 0.38867 0.0
C3548 C 0.68672 0.32829 0.37207 0.0
C3549 C 0.69243 0.33708 0.37128 0.0
C3550 C 0.69861 0.33996 0.3793 0.0
C3551 C 0.69924 0.334 0.38789 0.0
C3552 C 0.69197 0.34328 0.36207 0.0
C3553 C 0.68872 0.35324 0.36286 0.0
C3554 C 0.69434 0.3393 0.35253 0.0
C3555 C 0.6982 0.32894 0.35127 0.0
C3556 C 0.7068 0.32575 0.35647 0.0
C3557 C 0.71036 0.31596 0.35529 0.0
C3558 C 0.70541 0.30931 0.34889 0.0
C3559 C 0.69691 0.31244 0.34362 0.0
C3560 C 0.69332 0.32222 0.34477 0.0
C3561 C 0.69367 0.37667 0.32633 0.0
C3562 C 0.68807 0.37334 0.31804 0.0
C3563 C 0.69442 0.37078 0.33495 0.0
C3564 C 0.68947 0.36151 0.33552 0.0
C3565 C 0.68401 0.3581 0.32719 0.0
C3566 C 0.68331 0.36395 0.31853 0.0
C3567 C 0.69002 0.35534 0.34477 0.0
C3568 C 0.69329 0.34537 0.344 0.0
C3569 C 0.68759 0.35929 0.35433 0.0
C3570 C 0.68345 0.36954 0.3556 0.0
C3571 C 0.67478 0.37251 0.35039 0.0
C3572 C 0.67094 0.38219 0.35158 0.0
C3573 C 0.67568 0.38895 0.35803 0.0
C3574 C 0.68424 0.38604 0.36332 0.0
C3575 C 0.68811 0.37637 0.36214 0.0
H3576 H 0.6727 0.39645 0.35894 0.0
H3577 H 0.70817 0.30173 0.34799 0.0
H3578 H 0.61168 0.19549 0.82658 0.0
H3579 H 0.62095 0.19784 0.84224 0.0
H3580 H 0.64626 0.18209 0.82972 0.0
H3581 H 0.63708 0.17973 0.81401 0.0
H3582 H 0.64106 0.17556 0.84893 0.0
H3583 H 0.64741 0.20664 0.83171 0.0
H3584 H 0.6427 0.22212 0.82278 0.0
H3585 H 0.62604 0.23208 0.84847 0.0
H3586 H 0.63054 0.21659 0.85751 0.0
H3587 H 0.67765 0.18733 0.88549 0.0
H3588 H 0.6681 0.1851 0.87004 0.0
H3589 H 0.64495 0.20463 0.88145 0.0
H3590 H 0.65464 0.20715 0.89681 0.0
H3591 H 0.64868 0.2092 0.86285 0.0
H3592 H 0.64205 0.1786 0.88025 0.0
H3593 H 0.64612 0.16307 0.8894 0.0
H3594 H 0.66234 0.15205 0.86386 0.0
H3595 H 0.65848 0.16759 0.8546 0.0
C3596 C 0.61923 0.19256 0.82714 0.0
C3597 C 0.62365 0.18744 0.81905 0.0
C3598 C 0.62452 0.19393 0.83608 0.0
C3599 C 0.6343 0.19018 0.83711 0.0
C3600 C 0.63872 0.18504 0.82906 0.0
C3601 C 0.63347 0.18374 0.82009 0.0
C3602 C 0.63987 0.19148 0.84663 0.0
C3603 C 0.64285 0.18291 0.85193 0.0
C3604 C 0.64192 0.20107 0.85066 0.0
C3605 C 0.63923 0.21041 0.84525 0.0
C3606 C 0.64267 0.21209 0.83543 0.0
C3607 C 0.64005 0.22088 0.83035 0.0
C3608 C 0.63405 0.22807 0.83505 0.0
C3609 C 0.63068 0.2265 0.84484 0.0
C3610 C 0.63327 0.21772 0.84994 0.0
C3611 C 0.6705 0.19111 0.88474 0.0
C3612 C 0.66689 0.1974 0.89239 0.0
C3613 C 0.66502 0.18979 0.87591 0.0
C3614 C 0.65572 0.19458 0.87462 0.0
C3615 C 0.6521 0.20085 0.88227 0.0
C3616 C 0.65763 0.20226 0.89106 0.0
C3617 C 0.64992 0.19326 0.8652 0.0
C3618 C 0.64689 0.20184 0.8599 0.0
C3619 C 0.64773 0.18366 0.86122 0.0
C3620 C 0.65006 0.1743 0.86677 0.0
C3621 C 0.64655 0.1729 0.87661 0.0
C3622 C 0.64881 0.16409 0.88182 0.0
C3623 C 0.65451 0.15659 0.87723 0.0
C3624 C 0.65794 0.15787 0.86741 0.0
C3625 C 0.65571 0.16668 0.86218 0.0
H3626 H 0.65624 0.14977 0.88127 0.0
H3627 H 0.63203 0.23487 0.83111 0.0
H3628 H 0.79644 0.11175 0.32449 0.0
H3629 H 0.79486 0.12211 0.33954 0.0
H3630 H 0.8123 0.14539 0.32544 0.0
H3631 H 0.81392 0.13508 0.31035 0.0
H3632 H 0.81861 0.14116 0.34475 0.0
H3633 H 0.78769 0.14831 0.32762 0.0
H3634 H 0.7718 0.14409 0.31915 0.0
H3635 H 0.76121 0.12963 0.34588 0.0
H3636 H 0.7771 0.13364 0.35446 0.0
H3637 H 0.80953 0.18011 0.37965 0.0
H3638 H 0.81076 0.16987 0.36452 0.0
H3639 H 0.79066 0.14812 0.37752 0.0
H3640 H 0.78919 0.15847 0.39259 0.0
H3641 H 0.78569 0.15143 0.35874 0.0
H3642 H 0.81629 0.14397 0.37596 0.0
H3643 H 0.8322 0.14769 0.38461 0.0
H3644 H 0.84346 0.16204 0.3581 0.0
H3645 H 0.82756 0.15852 0.34932 0.0
C3646 C 0.79991 0.11909 0.32457 0.0
C3647 C 0.80529 0.1226 0.31622 0.0
C3648 C 0.79897 0.12501 0.33317 0.0
C3649 C 0.80341 0.13454 0.33358 0.0
C3650 C 0.80881 0.13806 0.32527 0.0
C3651 C 0.80969 0.13217 0.31664 0.0
C3652 C 0.80259 0.14076 0.34275 0.0
C3653 C 0.81142 0.14353 0.34774 0.0
C3654 C 0.7932 0.14358 0.34679 0.0
C3655 C 0.78363 0.14119 0.34165 0.0
C3656 C 0.78201 0.14415 0.33166 0.0
C3657 C 0.773 0.14182 0.32685 0.0
C3658 C 0.76551 0.13657 0.33197 0.0
C3659 C 0.76702 0.13368 0.34192 0.0
C3660 C 0.77603 0.13599 0.34677 0.0
C3661 C 0.80539 0.17314 0.37931 0.0
C3662 C 0.79928 0.17009 0.38734 0.0
C3663 C 0.80613 0.16726 0.37067 0.0
C3664 C 0.80091 0.15815 0.36993 0.0
C3665 C 0.79477 0.15512 0.37792 0.0
C3666 C 0.79396 0.16103 0.38654 0.0
C3667 C 0.80172 0.15187 0.36077 0.0
C3668 C 0.79289 0.14907 0.35577 0.0
C3669 C 0.81112 0.14895 0.35676 0.0
C3670 C 0.82069 0.15107 0.36202 0.0
C3671 C 0.82213 0.14799 0.372 0.0
C3672 C 0.83115 0.15005 0.37692 0.0
C3673 C 0.83883 0.15512 0.37192 0.0
C3674 C 0.8375 0.15812 0.36197 0.0
C3675 C 0.82849 0.15609 0.35701 0.0
H3676 H 0.84581 0.15671 0.37574 0.0
H3677 H 0.75854 0.13477 0.32823 0.0
H3678 H 0.81808 0.30502 0.88549 0.0
H3679 H 0.82801 0.3068 0.87018 0.0
H3680 H 0.84931 0.28519 0.88137 0.0
H3681 H 0.83941 0.28334 0.89671 0.0
H3682 H 0.85833 0.30216 0.87313 0.0
H3683 H 0.83311 0.278 0.86421 0.0
H3684 H 0.81585 0.2716 0.86248 0.0
H3685 H 0.80851 0.29613 0.84298 0.0
H3686 H 0.8257 0.30275 0.84471 0.0
H3687 H 0.88477 0.29386 0.82785 0.0
H3688 H 0.87495 0.29163 0.84315 0.0
H3689 H 0.85149 0.31024 0.83088 0.0
H3690 H 0.86116 0.31227 0.81545 0.0
H3691 H 0.84357 0.29463 0.83982 0.0
H3692 H 0.86831 0.3191 0.84872 0.0
H3693 H 0.88535 0.32605 0.85054 0.0
H3694 H 0.89335 0.30179 0.87012 0.0
H3695 H 0.8764 0.29462 0.8683 0.0
C3696 C 0.82489 0.30066 0.88471 0.0
C3697 C 0.82795 0.29402 0.8923 0.0
C3698 C 0.83053 0.30166 0.87594 0.0
C3699 C 0.83934 0.29606 0.87461 0.0
C3700 C 0.84252 0.28957 0.88225 0.0
C3701 C 0.83684 0.2885 0.89099 0.0
C3702 C 0.84524 0.29698 0.86524 0.0
C3703 C 0.85517 0.30039 0.86585 0.0
C3704 C 0.84099 0.29491 0.85575 0.0
C3705 C 0.83066 0.29092 0.85467 0.0
C3706 C 0.82779 0.28207 0.85962 0.0
C3707 C 0.81802 0.2784 0.85863 0.0
C3708 C 0.81108 0.28347 0.85264 0.0
C3709 C 0.8139 0.29222 0.84762 0.0
C3710 C 0.82365 0.29593 0.8486 0.0
C3711 C 0.87751 0.29746 0.8284 0.0
C3712 C 0.87376 0.30328 0.82045 0.0
C3713 C 0.87192 0.29622 0.83718 0.0
C3714 C 0.86254 0.3009 0.83824 0.0
C3715 C 0.85872 0.30658 0.83025 0.0
C3716 C 0.86426 0.30775 0.82144 0.0
C3717 C 0.8567 0.29985 0.84766 0.0
C3718 C 0.84676 0.29641 0.84708 0.0
C3719 C 0.86092 0.30197 0.85718 0.0
C3720 C 0.87112 0.30627 0.85829 0.0
C3721 C 0.87373 0.31521 0.85335 0.0
C3722 C 0.88337 0.31919 0.85439 0.0
C3723 C 0.89044 0.31435 0.86042 0.0
C3724 C 0.88787 0.30553 0.86544 0.0
C3725 C 0.87825 0.3015 0.86441 0.0
H3726 H 0.8979 0.31745 0.86122 0.0
H3727 H 0.80352 0.28061 0.85188 0.0
H3728 H 0.10664 0.68945 0.17313 0.0
H3729 H 0.12204 0.68723 0.16341 0.0
H3730 H 0.11144 0.70858 0.14159 0.0
H3731 H 0.09602 0.71089 0.15127 0.0
H3732 H 0.1196 0.69122 0.13302 0.0
H3733 H 0.12838 0.71591 0.15784 0.0
H3734 H 0.12992 0.72265 0.17498 0.0
H3735 H 0.14912 0.69811 0.18307 0.0
H3736 H 0.14756 0.69114 0.166 0.0
H3737 H 0.16519 0.69914 0.10702 0.0
H3738 H 0.14971 0.70134 0.11657 0.0
H3739 H 0.16185 0.68325 0.14048 0.0
H3740 H 0.17746 0.68125 0.13108 0.0
H3741 H 0.15276 0.69892 0.14803 0.0
H3742 H 0.14416 0.67401 0.12367 0.0
H3743 H 0.14252 0.6667 0.10676 0.0
H3744 H 0.12297 0.69075 0.09807 0.0
H3745 H 0.1246 0.69829 0.11489 0.0
C3746 C 0.10757 0.69366 0.16625 0.0
C3747 C 0.10012 0.70037 0.16298 0.0
C3748 C 0.11639 0.6924 0.16073 0.0
C3749 C 0.1179 0.6978 0.15183 0.0
C3750 C 0.11041 0.70436 0.14845 0.0
C3751 C 0.10162 0.70569 0.154 0.0
C3752 C 0.12734 0.69665 0.14609 0.0
C3753 C 0.12685 0.69302 0.13624 0.0
C3754 C 0.1368 0.69876 0.15042 0.0
C3755 C 0.13777 0.70295 0.16067 0.0
C3756 C 0.13286 0.7119 0.1633 0.0
C3757 C 0.13375 0.71578 0.173 0.0
C3758 C 0.13959 0.7108 0.18012 0.0
C3759 C 0.14458 0.70195 0.17755 0.0
C3760 C 0.1437 0.69804 0.16786 0.0
C3761 C 0.16456 0.69563 0.11431 0.0
C3762 C 0.17254 0.68999 0.11828 0.0
C3763 C 0.15569 0.69685 0.11974 0.0
C3764 C 0.15455 0.69233 0.12918 0.0
C3765 C 0.16254 0.68679 0.13321 0.0
C3766 C 0.17146 0.68564 0.12782 0.0
C3767 C 0.14506 0.69347 0.13491 0.0
C3768 C 0.14553 0.6971 0.14478 0.0
C3769 C 0.13558 0.69128 0.13063 0.0
C3770 C 0.13458 0.68676 0.12051 0.0
C3771 C 0.13957 0.67778 0.11813 0.0
C3772 C 0.13863 0.67359 0.10857 0.0
C3773 C 0.13267 0.67827 0.10134 0.0
C3774 C 0.1276 0.68714 0.10367 0.0
C3775 C 0.12852 0.69137 0.11322 0.0
H3776 H 0.13195 0.67502 0.09394 0.0
H3777 H 0.14028 0.71381 0.18763 0.0
H3778 H 0.09607 0.78471 0.3369 0.0
H3779 H 0.11131 0.78668 0.34694 0.0
H3780 H 0.12264 0.80819 0.32564 0.0
H3781 H 0.10743 0.80627 0.31556 0.0
H3782 H 0.13674 0.79387 0.33094 0.0
H3783 H 0.11374 0.81627 0.34737 0.0
H3784 H 0.09791 0.82099 0.35567 0.0
H3785 H 0.10328 0.79915 0.37869 0.0
H3786 H 0.11909 0.7942 0.37045 0.0
H3787 H 0.17717 0.81302 0.35966 0.0
H3788 H 0.16198 0.81089 0.34965 0.0
H3789 H 0.14932 0.7921 0.37272 0.0
H3790 H 0.16438 0.79442 0.3829 0.0
H3791 H 0.1358 0.80489 0.36646 0.0
H3792 H 0.15862 0.78233 0.35036 0.0
H3793 H 0.17434 0.77714 0.34212 0.0
H3794 H 0.16925 0.79852 0.31861 0.0
H3795 H 0.15356 0.80393 0.32678 0.0
C3796 C 0.10179 0.78988 0.33437 0.0
C3797 C 0.10053 0.79535 0.32544 0.0
C3798 C 0.11047 0.79102 0.34012 0.0
C3799 C 0.11807 0.79762 0.33706 0.0
C3800 C 0.11686 0.80305 0.32813 0.0
C3801 C 0.10815 0.80198 0.32241 0.0
C3802 C 0.12732 0.79878 0.3431 0.0
C3803 C 0.13656 0.7964 0.33867 0.0
C3804 C 0.12704 0.80182 0.35326 0.0
C3805 C 0.11755 0.8048 0.35823 0.0
C3806 C 0.11151 0.81241 0.35416 0.0
C3807 C 0.10254 0.81514 0.35886 0.0
C3808 C 0.09958 0.81035 0.36769 0.0
C3809 C 0.10558 0.80284 0.37184 0.0
C3810 C 0.11455 0.80008 0.36716 0.0
C3811 C 0.17117 0.80839 0.36259 0.0
C3812 C 0.17199 0.80387 0.37207 0.0
C3813 C 0.1625 0.80714 0.35683 0.0
C3814 C 0.15454 0.80123 0.36037 0.0
C3815 C 0.15536 0.79669 0.36983 0.0
C3816 C 0.16399 0.798 0.37563 0.0
C3817 C 0.14527 0.79997 0.35432 0.0
C3818 C 0.13601 0.80233 0.35874 0.0
C3819 C 0.14553 0.79684 0.34417 0.0
C3820 C 0.15496 0.7936 0.33923 0.0
C3821 C 0.16089 0.78598 0.34347 0.0
C3822 C 0.16979 0.78299 0.33881 0.0
C3823 C 0.17281 0.78752 0.32986 0.0
C3824 C 0.16692 0.79503 0.32554 0.0
C3825 C 0.15801 0.79805 0.33018 0.0
H3826 H 0.1797 0.78519 0.32626 0.0
H3827 H 0.09263 0.81248 0.37132 0.0
H3828 H 0.18796 0.60484 0.82005 0.0
H3829 H 0.18602 0.62002 0.83015 0.0
H3830 H 0.20927 0.60978 0.85015 0.0
H3831 H 0.21129 0.59457 0.84008 0.0
H3832 H 0.19248 0.61735 0.86014 0.0
H3833 H 0.21483 0.62712 0.83357 0.0
H3834 H 0.22012 0.62904 0.81596 0.0
H3835 H 0.19444 0.64755 0.81009 0.0
H3836 H 0.18892 0.64563 0.82764 0.0
H3837 H 0.20082 0.66287 0.88611 0.0
H3838 H 0.20293 0.64765 0.87614 0.0
H3839 H 0.18259 0.65934 0.85387 0.0
H3840 H 0.18066 0.67471 0.86367 0.0
H3841 H 0.19794 0.65088 0.84501 0.0
H3842 H 0.17531 0.64121 0.87114 0.0
H3843 H 0.16944 0.63918 0.88855 0.0
H3844 H 0.19478 0.62042 0.89507 0.0
H3845 H 0.20087 0.62244 0.87773 0.0
C3846 C 0.19264 0.60579 0.82662 0.0
C3847 C 0.1998 0.59851 0.82925 0.0
C3848 C 0.19154 0.61449 0.83236 0.0
C3849 C 0.19756 0.61605 0.84084 0.0
C3850 C 0.20457 0.60871 0.84362 0.0
C3851 C 0.20572 0.60004 0.83784 0.0
C3852 C 0.1966 0.62539 0.84678 0.0
C3853 C 0.1938 0.62469 0.85689 0.0
C3854 C 0.19807 0.63495 0.84243 0.0
C3855 C 0.20141 0.63615 0.83189 0.0
C3856 C 0.21027 0.63153 0.8285 0.0
C3857 C 0.21332 0.63263 0.81854 0.0
C3858 C 0.20761 0.63839 0.81191 0.0
C3859 C 0.19885 0.64308 0.81523 0.0
C3860 C 0.19576 0.642 0.82519 0.0
C3861 C 0.19681 0.66221 0.87908 0.0
C3862 C 0.19054 0.66998 0.8757 0.0
C3863 C 0.19798 0.65348 0.87342 0.0
C3864 C 0.19279 0.65227 0.86433 0.0
C3865 C 0.18665 0.66008 0.86086 0.0
C3866 C 0.18555 0.66886 0.86648 0.0
C3867 C 0.19379 0.64288 0.85841 0.0
C3868 C 0.19661 0.64356 0.84829 0.0
C3869 C 0.19225 0.6333 0.86273 0.0
C3870 C 0.1886 0.63206 0.87316 0.0
C3871 C 0.17967 0.63671 0.87631 0.0
C3872 C 0.1763 0.63555 0.88616 0.0
C3873 C 0.18175 0.6297 0.89292 0.0
C3874 C 0.19057 0.62496 0.88983 0.0
C3875 C 0.19399 0.62611 0.87999 0.0
H3876 H 0.17913 0.62881 0.90055 0.0
H3877 H 0.20999 0.63924 0.8042 0.0
H3878 H 0.38402 0.6863 0.3205 0.0
H3879 H 0.36916 0.68523 0.33121 0.0
H3880 H 0.38127 0.70823 0.35045 0.0
H3881 H 0.39616 0.70936 0.33978 0.0
H3882 H 0.37355 0.69206 0.36101 0.0
H3883 H 0.36327 0.71417 0.33444 0.0
H3884 H 0.36063 0.71918 0.31684 0.0
H3885 H 0.34091 0.69413 0.31246 0.0
H3886 H 0.34354 0.68888 0.33 0.0
H3887 H 0.32977 0.70309 0.38887 0.0
H3888 H 0.34455 0.70419 0.37811 0.0
H3889 H 0.33094 0.68362 0.35718 0.0
H3890 H 0.31601 0.68269 0.36777 0.0
H3891 H 0.33951 0.69844 0.3474 0.0
H3892 H 0.34962 0.67611 0.3736 0.0
H3893 H 0.3523 0.67059 0.39103 0.0
H3894 H 0.37237 0.69526 0.39596 0.0
H3895 H 0.3697 0.70102 0.37858 0.0
C3896 C 0.38353 0.69112 0.32702 0.0
C3897 C 0.39126 0.69794 0.32928 0.0
C3898 C 0.37502 0.69053 0.3331 0.0
C3899 C 0.37409 0.69671 0.34157 0.0
C3900 C 0.38185 0.7034 0.34394 0.0
C3901 C 0.39033 0.70406 0.33782 0.0
C3902 C 0.36501 0.6962 0.34796 0.0
C3903 C 0.36611 0.69359 0.35808 0.0
C3904 C 0.3553 0.69792 0.34404 0.0
C3905 C 0.35368 0.70108 0.3335 0.0
C3906 C 0.35844 0.70968 0.3297 0.0
C3907 C 0.35693 0.71257 0.31974 0.0
C3908 C 0.35063 0.70696 0.31353 0.0
C3909 C 0.3458 0.69846 0.31727 0.0
C3910 C 0.34729 0.69553 0.32723 0.0
C3911 C 0.32991 0.6988 0.38197 0.0
C3912 C 0.32172 0.69277 0.37919 0.0
C3913 C 0.33839 0.6994 0.37585 0.0
C3914 C 0.33893 0.69387 0.3669 0.0
C3915 C 0.33071 0.68794 0.36405 0.0
C3916 C 0.32219 0.6874 0.37013 0.0
C3917 C 0.34803 0.69431 0.36049 0.0
C3918 C 0.34693 0.69691 0.35035 0.0
C3919 C 0.35775 0.69249 0.36437 0.0
C3920 C 0.35938 0.68905 0.37482 0.0
C3921 C 0.35454 0.6804 0.37842 0.0
C3922 C 0.35607 0.67722 0.38829 0.0
C3923 C 0.36248 0.68259 0.39461 0.0
C3924 C 0.3674 0.69113 0.39106 0.0
C3925 C 0.36589 0.69434 0.3812 0.0
H3926 H 0.36366 0.68011 0.40224 0.0
H3927 H 0.34947 0.70921 0.30582 0.0
H3928 H 0.28511 0.89505 0.83853 0.0
H3929 H 0.28693 0.87971 0.84842 0.0
H3930 H 0.30708 0.86767 0.82618 0.0
H3931 H 0.30533 0.88299 0.81625 0.0
H3932 H 0.29224 0.8542 0.83198 0.0
H3933 H 0.31647 0.87595 0.8475 0.0
H3934 H 0.32229 0.89147 0.85569 0.0
H3935 H 0.30133 0.88689 0.87968 0.0
H3936 H 0.29528 0.87141 0.87155 0.0
H3937 H 0.31071 0.81259 0.85926 0.0
H3938 H 0.30896 0.82803 0.84959 0.0
H3939 H 0.29188 0.84127 0.87368 0.0
H3940 H 0.29384 0.82593 0.88351 0.0
H3941 H 0.305 0.85426 0.86692 0.0
H3942 H 0.2806 0.83276 0.8518 0.0
H3943 H 0.27424 0.81739 0.84372 0.0
H3944 H 0.29465 0.82161 0.81919 0.0
H3945 H 0.30123 0.83693 0.82719 0.0
C3946 C 0.28996 0.88916 0.83576 0.0
C3947 C 0.29509 0.89024 0.82661 0.0
C3948 C 0.29101 0.88041 0.84143 0.0
C3949 C 0.29718 0.87259 0.83805 0.0
C3950 C 0.30229 0.87363 0.82891 0.0
C3951 C 0.30131 0.8824 0.82328 0.0
C3952 C 0.29818 0.86324 0.84396 0.0
C3953 C 0.29515 0.85417 0.83958 0.0
C3954 C 0.30171 0.86328 0.85396 0.0
C3955 C 0.30535 0.87258 0.85886 0.0
C3956 C 0.31304 0.8783 0.85447 0.0
C3957 C 0.3164 0.88708 0.85911 0.0
C3958 C 0.31217 0.89018 0.86818 0.0
C3959 C 0.30459 0.88449 0.87265 0.0
C3960 C 0.3012 0.87571 0.86803 0.0
C3961 C 0.30655 0.81877 0.86249 0.0
C3962 C 0.30239 0.81802 0.87215 0.0
C3963 C 0.30552 0.82758 0.85693 0.0
C3964 C 0.30017 0.83578 0.86085 0.0
C3965 C 0.29603 0.83505 0.8705 0.0
C3966 C 0.29713 0.82626 0.8761 0.0
C3967 C 0.29906 0.84516 0.85496 0.0
C3968 C 0.30207 0.85425 0.85934 0.0
C3969 C 0.29542 0.84515 0.84498 0.0
C3970 C 0.29147 0.83594 0.84014 0.0
C3971 C 0.28379 0.83036 0.84472 0.0
C3972 C 0.28013 0.82167 0.84015 0.0
C3973 C 0.28405 0.81851 0.83097 0.0
C3974 C 0.29162 0.82405 0.82632 0.0
C3975 C 0.29531 0.83275 0.83086 0.0
H3976 H 0.28121 0.81178 0.82744 0.0
H3977 H 0.31478 0.89697 0.87177 0.0
H3978 H 0.33059 0.79143 0.10675 0.0
H3979 H 0.34571 0.78934 0.11692 0.0
H3980 H 0.33276 0.80784 0.14008 0.0
H3981 H 0.31761 0.80999 0.12994 0.0
H3982 H 0.3524 0.81293 0.13579 0.0
H3983 H 0.33348 0.78316 0.14322 0.0
H3984 H 0.32407 0.76779 0.13913 0.0
H3985 H 0.35005 0.75553 0.12458 0.0
H3986 H 0.35959 0.7709 0.12846 0.0
H3987 H 0.38662 0.80181 0.17491 0.0
H3988 H 0.37171 0.80411 0.16453 0.0
H3989 H 0.38343 0.78306 0.14293 0.0
H3990 H 0.39825 0.78052 0.15342 0.0
H3991 H 0.36441 0.77932 0.14624 0.0
H3992 H 0.38344 0.80878 0.13866 0.0
H3993 H 0.39302 0.82416 0.14233 0.0
H3994 H 0.36717 0.83705 0.15657 0.0
H3995 H 0.35748 0.82169 0.1531 0.0
C3996 C 0.33095 0.79504 0.11401 0.0
C3997 C 0.32289 0.80086 0.11755 0.0
C3998 C 0.33958 0.79382 0.11982 0.0
C3999 C 0.34032 0.79838 0.12928 0.0
C4000 C 0.33233 0.80426 0.1328 0.0
C4001 C 0.32367 0.80544 0.12702 0.0
C4002 C 0.34945 0.79707 0.13547 0.0
C4003 C 0.35497 0.8056 0.1382 0.0
C4004 C 0.35293 0.78748 0.13836 0.0
C4005 C 0.34722 0.77822 0.13604 0.0
C4006 C 0.33717 0.77722 0.13907 0.0
C4007 C 0.33181 0.7685 0.13681 0.0
C4008 C 0.33645 0.7607 0.13157 0.0
C4009 C 0.34646 0.76159 0.12862 0.0
C4010 C 0.35185 0.7703 0.13086 0.0
C4011 C 0.38605 0.7977 0.16793 0.0
C4012 C 0.39363 0.79099 0.16498 0.0
C4013 C 0.37754 0.79906 0.16198 0.0
C4014 C 0.3765 0.79385 0.15288 0.0
C4015 C 0.38406 0.78716 0.14991 0.0
C4016 C 0.39255 0.78574 0.1559 0.0
C4017 C 0.3674 0.79519 0.14658 0.0
C4018 C 0.36188 0.78667 0.14383 0.0
C4019 C 0.36396 0.80479 0.14361 0.0
C4020 C 0.36976 0.81404 0.1457 0.0
C4021 C 0.37982 0.81487 0.14264 0.0
C4022 C 0.38527 0.82359 0.14467 0.0
C4023 C 0.38071 0.83157 0.1497 0.0
C4024 C 0.3707 0.83086 0.15268 0.0
C4025 C 0.36522 0.82215 0.15068 0.0
H4026 H 0.38494 0.83832 0.15127 0.0
H4027 H 0.33229 0.75395 0.12983 0.0
H4028 H 0.20445 0.83293 0.6038 0.0
H4029 H 0.20588 0.8475 0.61484 0.0
H4030 H 0.18449 0.83431 0.63517 0.0
H4031 H 0.18298 0.81971 0.62416 0.0
H4032 H 0.18046 0.85413 0.63137 0.0
H4033 H 0.20883 0.83416 0.64105 0.0
H4034 H 0.22432 0.82446 0.63827 0.0
H4035 H 0.23872 0.85059 0.6262 0.0
H4036 H 0.22326 0.86041 0.62878 0.0
H4037 H 0.18834 0.88699 0.67246 0.0
H4038 H 0.18684 0.87233 0.66158 0.0
H4039 H 0.21006 0.88412 0.64239 0.0
H4040 H 0.21178 0.89869 0.65339 0.0
H4041 H 0.2131 0.86488 0.64563 0.0
H4042 H 0.18493 0.88489 0.6357 0.0
H4043 H 0.16946 0.89472 0.63816 0.0
H4044 H 0.15471 0.86879 0.65025 0.0
H4045 H 0.17015 0.85884 0.64798 0.0
C4046 C 0.20006 0.83311 0.61063 0.0
C4047 C 0.19361 0.82515 0.61312 0.0
C4048 C 0.20091 0.84143 0.61695 0.0
C4049 C 0.19535 0.84194 0.62586 0.0
C4050 C 0.18885 0.83405 0.62833 0.0
C4051 C 0.18803 0.8257 0.62204 0.0
C4052 C 0.19621 0.85078 0.63255 0.0
C4053 C 0.18757 0.85642 0.6346 0.0
C4054 C 0.20554 0.85389 0.63655 0.0
C4055 C 0.21485 0.848 0.63502 0.0
C4056 C 0.21527 0.83782 0.63772 0.0
C4057 C 0.22405 0.8323 0.6362 0.0
C4058 C 0.23249 0.8369 0.63204 0.0
C4059 C 0.23217 0.84703 0.62941 0.0
C4060 C 0.22341 0.85258 0.63091 0.0
C4061 C 0.19311 0.88648 0.66591 0.0
C4062 C 0.20016 0.89402 0.66378 0.0
C4063 C 0.19221 0.87812 0.65966 0.0
C4064 C 0.19825 0.87718 0.65109 0.0
C4065 C 0.20532 0.88468 0.64896 0.0
C4066 C 0.20627 0.89302 0.65524 0.0
C4067 C 0.19735 0.86829 0.64444 0.0
C4068 C 0.20599 0.86262 0.64239 0.0
C4069 C 0.18802 0.86519 0.6404 0.0
C4070 C 0.17873 0.87115 0.64176 0.0
C4071 C 0.17841 0.88131 0.63896 0.0
C4072 C 0.16965 0.88689 0.6403 0.0
C4073 C 0.16112 0.88239 0.64438 0.0
C4074 C 0.16133 0.87228 0.6471 0.0
C4075 C 0.17008 0.86666 0.64578 0.0
H4076 H 0.15434 0.88673 0.64542 0.0
H4077 H 0.23929 0.83261 0.63087 0.0
H4078 H 0.27581 0.59914 0.65616 0.0
H4079 H 0.27825 0.61418 0.64597 0.0
H4080 H 0.30727 0.61872 0.65951 0.0
H4081 H 0.30491 0.60368 0.66972 0.0
H4082 H 0.28098 0.63356 0.652 0.0
H4083 H 0.32282 0.62878 0.64158 0.0
H4084 H 0.33501 0.61518 0.63857 0.0
H4085 H 0.31108 0.59543 0.62998 0.0
H4086 H 0.29878 0.60894 0.63279 0.0
H4087 H 0.30278 0.6793 0.63567 0.0
H4088 H 0.29973 0.66332 0.6441 0.0
H4089 H 0.29846 0.64834 0.61548 0.0
H4090 H 0.3015 0.6643 0.60696 0.0
H4091 H 0.31009 0.63816 0.62929 0.0
H4092 H 0.2773 0.65278 0.62734 0.0
H4093 H 0.2646 0.66603 0.62961 0.0
H4094 H 0.26931 0.66533 0.66145 0.0
H4095 H 0.28215 0.65217 0.65935 0.0
C4096 C 0.28274 0.6033 0.65694 0.0
C4097 C 0.29017 0.60021 0.66374 0.0
C4098 C 0.2841 0.61192 0.65114 0.0
C4099 C 0.29296 0.61753 0.65195 0.0
C4100 C 0.30042 0.61443 0.65869 0.0
C4101 C 0.29904 0.60585 0.66454 0.0
C4102 C 0.2943 0.62675 0.6459 0.0
C4103 C 0.28734 0.63456 0.64703 0.0
C4104 C 0.30253 0.628 0.63932 0.0
C4105 C 0.30987 0.61985 0.63749 0.0
C4106 C 0.32017 0.62155 0.63901 0.0
C4107 C 0.32709 0.61385 0.63734 0.0
C4108 C 0.32382 0.60444 0.63412 0.0
C4109 C 0.31361 0.60271 0.63252 0.0
C4110 C 0.30665 0.61038 0.63416 0.0
C4111 C 0.30185 0.67261 0.63116 0.0
C4112 C 0.30236 0.67307 0.62064 0.0
C4113 C 0.30008 0.6635 0.63599 0.0
C4114 C 0.29881 0.65467 0.63041 0.0
C4115 C 0.29942 0.65508 0.61992 0.0
C4116 C 0.30111 0.66421 0.61507 0.0
C4117 C 0.29687 0.64501 0.63553 0.0
C4118 C 0.30372 0.63714 0.63425 0.0
C4119 C 0.28848 0.64366 0.64189 0.0
C4120 C 0.28075 0.65155 0.64318 0.0
C4121 C 0.27569 0.65551 0.63482 0.0
C4122 C 0.26845 0.66299 0.63607 0.0
C4123 C 0.26617 0.66654 0.64566 0.0
C4124 C 0.2711 0.66259 0.65402 0.0
C4125 C 0.27835 0.65511 0.6528 0.0
H4126 H 0.26057 0.67233 0.64662 0.0
H4127 H 0.32919 0.59849 0.63284 0.0
loop_
_geom_bond_atom_site_label_1
_geom_bond_atom_site_label_2
_geom_bond_distance
_geom_bond_site_symmetry_2
_ccdc_geom_bond_type
O0 Cd1 2.300 . S
O0 C7 1.275 . S
Cd1 O0 2.300 . S
Cd1 O9 2.381 . S
Cd1 O10 2.378 . S
O2 Cd3 2.385 . S
O2 C7 1.255 . S
Cd3 O2 2.385 . S
Cd3 O4 2.317 . S
O4 Cd3 2.317 . S
O4 C5 1.232 . S
C5 O4 1.232 . S
C5 O6 1.218 . S
O6 C5 1.218 . S
C7 O0 1.275 . S
C7 O2 1.255 . S
C8 O9 1.258 . S
C8 O10 1.256 . S
O9 Cd1 2.381 . S
O9 C8 1.258 . S
O10 Cd1 2.378 . S
O10 C8 1.256 . S
O11 Cd12 2.300 . S
O11 C18 1.275 . S
Cd12 O11 2.300 . S
Cd12 O20 2.381 . S
Cd12 O21 2.378 . S
O13 Cd14 2.385 . S
O13 C18 1.255 . S
Cd14 O13 2.385 . S
Cd14 O15 2.317 . S
O15 Cd14 2.317 . S
O15 C16 1.232 . S
C16 O15 1.232 . S
C16 O17 1.218 . S
O17 C16 1.218 . S
C18 O11 1.275 . S
C18 O13 1.255 . S
C19 O20 1.258 . S
C19 O21 1.256 . S
O20 Cd12 2.381 . S
O20 C19 1.258 . S
O21 Cd12 2.378 . S
O21 C19 1.256 . S
O22 Cd23 2.300 . S
O22 C29 1.275 . S
Cd23 O22 2.300 . S
Cd23 O31 2.381 . S
Cd23 O32 2.378 . S
O24 Cd25 2.385 . S
O24 C29 1.255 . S
Cd25 O24 2.385 . S
Cd25 O26 2.317 . S
O26 Cd25 2.317 . S
O26 C27 1.232 . S
C27 O26 1.232 . S
C27 O28 1.218 . S
O28 C27 1.218 . S
C29 O22 1.275 . S
C29 O24 1.255 . S
C30 O31 1.258 . S
C30 O32 1.256 . S
O31 Cd23 2.381 . S
O31 C30 1.258 . S
O32 Cd23 2.378 . S
O32 C30 1.256 . S
O33 Cd34 2.300 . S
O33 C40 1.275 . S
Cd34 O33 2.300 . S
Cd34 O42 2.381 . S
Cd34 O43 2.378 . S
O35 Cd36 2.385 . S
O35 C40 1.255 . S
Cd36 O35 2.385 . S
Cd36 O37 2.317 . S
O37 Cd36 2.317 . S
O37 C38 1.232 . S
C38 O37 1.232 . S
C38 O39 1.218 . S
O39 C38 1.218 . S
C40 O33 1.275 . S
C40 O35 1.255 . S
C41 O42 1.258 . S
C41 O43 1.256 . S
O42 Cd34 2.381 . S
O42 C41 1.258 . S
O43 Cd34 2.378 . S
O43 C41 1.256 . S
O44 Cd45 2.300 . S
O44 C51 1.275 . S
Cd45 O44 2.300 . S
Cd45 O53 2.381 . S
Cd45 O54 2.378 . S
O46 Cd47 2.385 . S
O46 C51 1.255 . S
Cd47 O46 2.385 . S
Cd47 O48 2.317 . S
O48 Cd47 2.317 . S
O48 C49 1.232 . S
C49 O48 1.232 . S
C49 O50 1.218 . S
O50 C49 1.218 . S
C51 O44 1.275 . S
C51 O46 1.255 . S
C52 O53 1.258 . S
C52 O54 1.256 . S
O53 Cd45 2.381 . S
O53 C52 1.258 . S
O54 Cd45 2.378 . S
O54 C52 1.256 . S
O55 Cd56 2.300 . S
O55 C62 1.275 . S
Cd56 O55 2.300 . S
Cd56 O64 2.381 . S
Cd56 O65 2.378 . S
O57 Cd58 2.385 . S
O57 C62 1.255 . S
Cd58 O57 2.385 . S
Cd58 O59 2.317 . S
O59 Cd58 2.317 . S
O59 C60 1.232 . S
C60 O59 1.232 . S
C60 O61 1.218 . S
O61 C60 1.218 . S
C62 O55 1.275 . S
C62 O57 1.255 . S
C63 O64 1.258 . S
C63 O65 1.256 . S
O64 Cd56 2.381 . S
O64 C63 1.258 . S
O65 Cd56 2.378 . S
O65 C63 1.256 . S
O66 Cd67 2.300 . S
O66 C73 1.275 . S
Cd67 O66 2.300 . S
Cd67 O75 2.381 . S
Cd67 O76 2.378 . S
O68 Cd69 2.385 . S
O68 C73 1.255 . S
Cd69 O68 2.385 . S
Cd69 O70 2.317 . S
O70 Cd69 2.317 . S
O70 C71 1.232 . S
C71 O70 1.232 . S
C71 O72 1.218 . S
O72 C71 1.218 . S
C73 O66 1.275 . S
C73 O68 1.255 . S
C74 O75 1.258 . S
C74 O76 1.256 . S
O75 Cd67 2.381 . S
O75 C74 1.258 . S
O76 Cd67 2.378 . S
O76 C74 1.256 . S
O77 Cd78 2.300 . S
O77 C84 1.275 . S
Cd78 O77 2.300 . S
Cd78 O86 2.381 . S
Cd78 O87 2.378 . S
O79 Cd80 2.385 . S
O79 C84 1.255 . S
Cd80 O79 2.385 . S
Cd80 O81 2.317 . S
O81 Cd80 2.317 . S
O81 C82 1.232 . S
C82 O81 1.232 . S
C82 O83 1.218 . S
O83 C82 1.218 . S
C84 O77 1.275 . S
C84 O79 1.255 . S
C85 O86 1.258 . S
C85 O87 1.256 . S
O86 Cd78 2.381 . S
O86 C85 1.258 . S
O87 Cd78 2.378 . S
O87 C85 1.256 . S
O88 Cd89 2.300 . S
O88 C95 1.275 . S
Cd89 O88 2.300 . S
Cd89 O97 2.381 . S
Cd89 O98 2.378 . S
O90 Cd91 2.385 . S
O90 C95 1.255 . S
Cd91 O90 2.385 . S
Cd91 O92 2.317 . S
O92 Cd91 2.317 . S
O92 C93 1.232 . S
C93 O92 1.232 . S
C93 O94 1.218 . S
O94 C93 1.218 . S
C95 O88 1.275 . S
C95 O90 1.255 . S
C96 O97 1.258 . S
C96 O98 1.256 . S
O97 Cd89 2.381 . S
O97 C96 1.258 . S
O98 Cd89 2.378 . S
O98 C96 1.256 . S
O99 Cd100 2.300 . S
O99 C106 1.275 . S
Cd100 O99 2.300 . S
Cd100 O108 2.381 . S
Cd100 O109 2.378 . S
O101 Cd102 2.385 . S
O101 C106 1.255 . S
Cd102 O101 2.385 . S
Cd102 O103 2.317 . S
O103 Cd102 2.317 . S
O103 C104 1.232 . S
C104 O103 1.232 . S
C104 O105 1.218 . S
O105 C104 1.218 . S
C106 O99 1.275 . S
C106 O101 1.255 . S
C107 O108 1.258 . S
C107 O109 1.256 . S
O108 Cd100 2.381 . S
O108 C107 1.258 . S
O109 Cd100 2.378 . S
O109 C107 1.256 . S
O110 Cd111 2.300 . S
O110 C117 1.275 . S
Cd111 O110 2.300 . S
Cd111 O119 2.381 . S
Cd111 O120 2.378 . S
O112 Cd113 2.385 . S
O112 C117 1.255 . S
Cd113 O112 2.385 . S
Cd113 O114 2.317 . S
O114 Cd113 2.317 . S
O114 C115 1.232 . S
C115 O114 1.232 . S
C115 O116 1.218 . S
O116 C115 1.218 . S
C117 O110 1.275 . S
C117 O112 1.255 . S
C118 O119 1.258 . S
C118 O120 1.256 . S
O119 Cd111 2.381 . S
O119 C118 1.258 . S
O120 Cd111 2.378 . S
O120 C118 1.256 . S
O121 Cd122 2.300 . S
O121 C128 1.275 . S
Cd122 O121 2.300 . S
Cd122 O130 2.381 . S
Cd122 O131 2.378 . S
O123 Cd124 2.385 . S
O123 C128 1.255 . S
Cd124 O123 2.385 . S
Cd124 O125 2.317 . S
O125 Cd124 2.317 . S
O125 C126 1.232 . S
C126 O125 1.232 . S
C126 O127 1.218 . S
O127 C126 1.218 . S
C128 O121 1.275 . S
C128 O123 1.255 . S
C129 O130 1.258 . S
C129 O131 1.256 . S
O130 Cd122 2.381 . S
O130 C129 1.258 . S
O131 Cd122 2.378 . S
O131 C129 1.256 . S
O132 Cd133 2.300 . S
O132 C139 1.275 . S
Cd133 O132 2.300 . S
Cd133 O141 2.381 . S
Cd133 O142 2.378 . S
O134 Cd135 2.385 . S
O134 C139 1.255 . S
Cd135 O134 2.385 . S
Cd135 O136 2.317 . S
O136 Cd135 2.317 . S
O136 C137 1.232 . S
C137 O136 1.232 . S
C137 O138 1.218 . S
O138 C137 1.218 . S
C139 O132 1.275 . S
C139 O134 1.255 . S
C140 O141 1.258 . S
C140 O142 1.256 . S
O141 Cd133 2.381 . S
O141 C140 1.258 . S
O142 Cd133 2.378 . S
O142 C140 1.256 . S
O143 Cd144 2.300 . S
O143 C150 1.275 . S
Cd144 O143 2.300 . S
Cd144 O152 2.381 . S
Cd144 O153 2.378 . S
O145 Cd146 2.385 . S
O145 C150 1.255 . S
Cd146 O145 2.385 . S
Cd146 O147 2.317 . S
O147 Cd146 2.317 . S
O147 C148 1.232 . S
C148 O147 1.232 . S
C148 O149 1.218 . S
O149 C148 1.218 . S
C150 O143 1.275 . S
C150 O145 1.255 . S
C151 O152 1.258 . S
C151 O153 1.256 . S
O152 Cd144 2.381 . S
O152 C151 1.258 . S
O153 Cd144 2.378 . S
O153 C151 1.256 . S
O154 Cd155 2.300 . S
O154 C161 1.275 . S
Cd155 O154 2.300 . S
Cd155 O163 2.381 . S
Cd155 O164 2.378 . S
O156 Cd157 2.385 . S
O156 C161 1.255 . S
Cd157 O156 2.385 . S
Cd157 O158 2.317 . S
O158 Cd157 2.317 . S
O158 C159 1.232 . S
C159 O158 1.232 . S
C159 O160 1.218 . S
O160 C159 1.218 . S
C161 O154 1.275 . S
C161 O156 1.255 . S
C162 O163 1.258 . S
C162 O164 1.256 . S
O163 Cd155 2.381 . S
O163 C162 1.258 . S
O164 Cd155 2.378 . S
O164 C162 1.256 . S
O165 Cd166 2.300 . S
O165 C172 1.275 . S
Cd166 O165 2.300 . S
Cd166 O174 2.381 . S
Cd166 O175 2.378 . S
O167 Cd168 2.385 . S
O167 C172 1.255 . S
Cd168 O167 2.385 . S
Cd168 O169 2.317 . S
O169 Cd168 2.317 . S
O169 C170 1.232 . S
C170 O169 1.232 . S
C170 O171 1.218 . S
O171 C170 1.218 . S
C172 O165 1.275 . S
C172 O167 1.255 . S
C173 O174 1.258 . S
C173 O175 1.256 . S
O174 Cd166 2.381 . S
O174 C173 1.258 . S
O175 Cd166 2.378 . S
O175 C173 1.256 . S
O176 Cd177 2.300 . S
O176 C183 1.275 . S
Cd177 O176 2.300 . S
Cd177 O185 2.381 . S
Cd177 O186 2.378 . S
O178 Cd179 2.385 . S
O178 C183 1.255 . S
Cd179 O178 2.385 . S
Cd179 O180 2.317 . S
O180 Cd179 2.317 . S
O180 C181 1.232 . S
C181 O180 1.232 . S
C181 O182 1.218 . S
O182 C181 1.218 . S
C183 O176 1.275 . S
C183 O178 1.255 . S
C184 O185 1.258 . S
C184 O186 1.256 . S
O185 Cd177 2.381 . S
O185 C184 1.258 . S
O186 Cd177 2.378 . S
O186 C184 1.256 . S
O187 Cd188 2.300 . S
O187 C194 1.275 . S
Cd188 O187 2.300 . S
Cd188 O196 2.381 . S
Cd188 O197 2.378 . S
O189 Cd190 2.385 . S
O189 C194 1.255 . S
Cd190 O189 2.385 . S
Cd190 O191 2.317 . S
O191 Cd190 2.317 . S
O191 C192 1.232 . S
C192 O191 1.232 . S
C192 O193 1.218 . S
O193 C192 1.218 . S
C194 O187 1.275 . S
C194 O189 1.255 . S
C195 O196 1.258 . S
C195 O197 1.256 . S
O196 Cd188 2.381 . S
O196 C195 1.258 . S
O197 Cd188 2.378 . S
O197 C195 1.256 . S
O198 Cd199 2.300 . S
O198 C205 1.275 . S
Cd199 O198 2.300 . S
Cd199 O207 2.381 . S
Cd199 O208 2.378 . S
O200 Cd201 2.385 . S
O200 C205 1.255 . S
Cd201 O200 2.385 . S
Cd201 O202 2.317 . S
O202 Cd201 2.317 . S
O202 C203 1.232 . S
C203 O202 1.232 . S
C203 O204 1.218 . S
O204 C203 1.218 . S
C205 O198 1.275 . S
C205 O200 1.255 . S
C206 O207 1.258 . S
C206 O208 1.256 . S
O207 Cd199 2.381 . S
O207 C206 1.258 . S
O208 Cd199 2.378 . S
O208 C206 1.256 . S
O209 Cd210 2.300 . S
O209 C216 1.275 . S
Cd210 O209 2.300 . S
Cd210 O218 2.381 . S
Cd210 O219 2.378 . S
O211 Cd212 2.385 . S
O211 C216 1.255 . S
Cd212 O211 2.385 . S
Cd212 O213 2.317 . S
O213 Cd212 2.317 . S
O213 C214 1.232 . S
C214 O213 1.232 . S
C214 O215 1.218 . S
O215 C214 1.218 . S
C216 O209 1.275 . S
C216 O211 1.255 . S
C217 O218 1.258 . S
C217 O219 1.256 . S
O218 Cd210 2.381 . S
O218 C217 1.258 . S
O219 Cd210 2.378 . S
O219 C217 1.256 . S
O220 Cd221 2.300 . S
O220 C227 1.275 . S
Cd221 O220 2.300 . S
Cd221 O229 2.381 . S
Cd221 O230 2.378 . S
O222 Cd223 2.385 . S
O222 C227 1.255 . S
Cd223 O222 2.385 . S
Cd223 O224 2.317 . S
O224 Cd223 2.317 . S
O224 C225 1.232 . S
C225 O224 1.232 . S
C225 O226 1.218 . S
O226 C225 1.218 . S
C227 O220 1.275 . S
C227 O222 1.255 . S
C228 O229 1.258 . S
C228 O230 1.256 . S
O229 Cd221 2.381 . S
O229 C228 1.258 . S
O230 Cd221 2.378 . S
O230 C228 1.256 . S
O231 Cd232 2.300 . S
O231 C238 1.275 . S
Cd232 O231 2.300 . S
Cd232 O240 2.381 . S
Cd232 O241 2.378 . S
O233 Cd234 2.385 . S
O233 C238 1.255 . S
Cd234 O233 2.385 . S
Cd234 O235 2.317 . S
O235 Cd234 2.317 . S
O235 C236 1.232 . S
C236 O235 1.232 . S
C236 O237 1.218 . S
O237 C236 1.218 . S
C238 O231 1.275 . S
C238 O233 1.255 . S
C239 O240 1.258 . S
C239 O241 1.256 . S
O240 Cd232 2.381 . S
O240 C239 1.258 . S
O241 Cd232 2.378 . S
O241 C239 1.256 . S
O242 Cd243 2.300 . S
O242 C249 1.275 . S
Cd243 O242 2.300 . S
Cd243 O251 2.381 . S
Cd243 O252 2.378 . S
O244 Cd245 2.385 . S
O244 C249 1.255 . S
Cd245 O244 2.385 . S
Cd245 O246 2.317 . S
O246 Cd245 2.317 . S
O246 C247 1.232 . S
C247 O246 1.232 . S
C247 O248 1.218 . S
O248 C247 1.218 . S
C249 O242 1.275 . S
C249 O244 1.255 . S
C250 O251 1.258 . S
C250 O252 1.256 . S
O251 Cd243 2.381 . S
O251 C250 1.258 . S
O252 Cd243 2.378 . S
O252 C250 1.256 . S
O253 Cd254 2.300 . S
O253 C260 1.275 . S
Cd254 O253 2.300 . S
Cd254 O262 2.381 . S
Cd254 O263 2.378 . S
O255 Cd256 2.385 . S
O255 C260 1.255 . S
Cd256 O255 2.385 . S
Cd256 O257 2.317 . S
O257 Cd256 2.317 . S
O257 C258 1.232 . S
C258 O257 1.232 . S
C258 O259 1.218 . S
O259 C258 1.218 . S
C260 O253 1.275 . S
C260 O255 1.255 . S
C261 O262 1.258 . S
C261 O263 1.256 . S
O262 Cd254 2.381 . S
O262 C261 1.258 . S
O263 Cd254 2.378 . S
O263 C261 1.256 . S
O264 Cd265 2.300 . S
O264 C271 1.275 . S
Cd265 O264 2.300 . S
Cd265 O273 2.381 . S
Cd265 O274 2.378 . S
O266 Cd267 2.385 . S
O266 C271 1.255 . S
Cd267 O266 2.385 . S
Cd267 O268 2.317 . S
O268 Cd267 2.317 . S
O268 C269 1.232 . S
C269 O268 1.232 . S
C269 O270 1.218 . S
O270 C269 1.218 . S
C271 O264 1.275 . S
C271 O266 1.255 . S
C272 O273 1.258 . S
C272 O274 1.256 . S
O273 Cd265 2.381 . S
O273 C272 1.258 . S
O274 Cd265 2.378 . S
O274 C272 1.256 . S
O275 Cd276 2.300 . S
O275 C282 1.275 . S
Cd276 O275 2.300 . S
Cd276 O284 2.381 . S
Cd276 O285 2.378 . S
O277 Cd278 2.385 . S
O277 C282 1.255 . S
Cd278 O277 2.385 . S
Cd278 O279 2.317 . S
O279 Cd278 2.317 . S
O279 C280 1.232 . S
C280 O279 1.232 . S
C280 O281 1.218 . S
O281 C280 1.218 . S
C282 O275 1.275 . S
C282 O277 1.255 . S
C283 O284 1.258 . S
C283 O285 1.256 . S
O284 Cd276 2.381 . S
O284 C283 1.258 . S
O285 Cd276 2.378 . S
O285 C283 1.256 . S
O286 Cd287 2.300 . S
O286 C293 1.275 . S
Cd287 O286 2.300 . S
Cd287 O295 2.381 . S
Cd287 O296 2.378 . S
O288 Cd289 2.385 . S
O288 C293 1.255 . S
Cd289 O288 2.385 . S
Cd289 O290 2.317 . S
O290 Cd289 2.317 . S
O290 C291 1.232 . S
C291 O290 1.232 . S
C291 O292 1.218 . S
O292 C291 1.218 . S
C293 O286 1.275 . S
C293 O288 1.255 . S
C294 O295 1.258 . S
C294 O296 1.256 . S
O295 Cd287 2.381 . S
O295 C294 1.258 . S
O296 Cd287 2.378 . S
O296 C294 1.256 . S
O297 Cd298 2.300 . S
O297 C304 1.275 . S
Cd298 O297 2.300 . S
Cd298 O306 2.381 . S
Cd298 O307 2.378 . S
O299 Cd300 2.385 . S
O299 C304 1.255 . S
Cd300 O299 2.385 . S
Cd300 O301 2.317 . S
O301 Cd300 2.317 . S
O301 C302 1.232 . S
C302 O301 1.232 . S
C302 O303 1.218 . S
O303 C302 1.218 . S
C304 O297 1.275 . S
C304 O299 1.255 . S
C305 O306 1.258 . S
C305 O307 1.256 . S
O306 Cd298 2.381 . S
O306 C305 1.258 . S
O307 Cd298 2.378 . S
O307 C305 1.256 . S
O308 Cd309 2.300 . S
O308 C315 1.275 . S
Cd309 O308 2.300 . S
Cd309 O317 2.381 . S
Cd309 O318 2.378 . S
O310 Cd311 2.385 . S
O310 C315 1.255 . S
Cd311 O310 2.385 . S
Cd311 O312 2.317 . S
O312 Cd311 2.317 . S
O312 C313 1.232 . S
C313 O312 1.232 . S
C313 O314 1.218 . S
O314 C313 1.218 . S
C315 O308 1.275 . S
C315 O310 1.255 . S
C316 O317 1.258 . S
C316 O318 1.256 . S
O317 Cd309 2.381 . S
O317 C316 1.258 . S
O318 Cd309 2.378 . S
O318 C316 1.256 . S
O319 Cd320 2.300 . S
O319 C326 1.275 . S
Cd320 O319 2.300 . S
Cd320 O328 2.381 . S
Cd320 O329 2.378 . S
O321 Cd322 2.385 . S
O321 C326 1.255 . S
Cd322 O321 2.385 . S
Cd322 O323 2.317 . S
O323 Cd322 2.317 . S
O323 C324 1.232 . S
C324 O323 1.232 . S
C324 O325 1.218 . S
O325 C324 1.218 . S
C326 O319 1.275 . S
C326 O321 1.255 . S
C327 O328 1.258 . S
C327 O329 1.256 . S
O328 Cd320 2.381 . S
O328 C327 1.258 . S
O329 Cd320 2.378 . S
O329 C327 1.256 . S
O330 Cd331 2.300 . S
O330 C337 1.275 . S
Cd331 O330 2.300 . S
Cd331 O339 2.381 . S
Cd331 O340 2.378 . S
O332 Cd333 2.385 . S
O332 C337 1.255 . S
Cd333 O332 2.385 . S
Cd333 O334 2.317 . S
O334 Cd333 2.317 . S
O334 C335 1.232 . S
C335 O334 1.232 . S
C335 O336 1.218 . S
O336 C335 1.218 . S
C337 O330 1.275 . S
C337 O332 1.255 . S
C338 O339 1.258 . S
C338 O340 1.256 . S
O339 Cd331 2.381 . S
O339 C338 1.258 . S
O340 Cd331 2.378 . S
O340 C338 1.256 . S
O341 Cd342 2.300 . S
O341 C348 1.275 . S
Cd342 O341 2.300 . S
Cd342 O350 2.381 . S
Cd342 O351 2.378 . S
O343 Cd344 2.385 . S
O343 C348 1.255 . S
Cd344 O343 2.385 . S
Cd344 O345 2.317 . S
O345 Cd344 2.317 . S
O345 C346 1.232 . S
C346 O345 1.232 . S
C346 O347 1.218 . S
O347 C346 1.218 . S
C348 O341 1.275 . S
C348 O343 1.255 . S
C349 O350 1.258 . S
C349 O351 1.256 . S
O350 Cd342 2.381 . S
O350 C349 1.258 . S
O351 Cd342 2.378 . S
O351 C349 1.256 . S
O352 Cd353 2.300 . S
O352 C359 1.275 . S
Cd353 O352 2.300 . S
Cd353 O361 2.381 . S
Cd353 O362 2.378 . S
O354 Cd355 2.385 . S
O354 C359 1.255 . S
Cd355 O354 2.385 . S
Cd355 O356 2.317 . S
O356 Cd355 2.317 . S
O356 C357 1.232 . S
C357 O356 1.232 . S
C357 O358 1.218 . S
O358 C357 1.218 . S
C359 O352 1.275 . S
C359 O354 1.255 . S
C360 O361 1.258 . S
C360 O362 1.256 . S
O361 Cd353 2.381 . S
O361 C360 1.258 . S
O362 Cd353 2.378 . S
O362 C360 1.256 . S
O363 Cd364 2.300 . S
O363 C370 1.275 . S
Cd364 O363 2.300 . S
Cd364 O372 2.381 . S
Cd364 O373 2.378 . S
O365 Cd366 2.385 . S
O365 C370 1.255 . S
Cd366 O365 2.385 . S
Cd366 O367 2.317 . S
O367 Cd366 2.317 . S
O367 C368 1.232 . S
C368 O367 1.232 . S
C368 O369 1.218 . S
O369 C368 1.218 . S
C370 O363 1.275 . S
C370 O365 1.255 . S
C371 O372 1.258 . S
C371 O373 1.256 . S
O372 Cd364 2.381 . S
O372 C371 1.258 . S
O373 Cd364 2.378 . S
O373 C371 1.256 . S
O374 Cd375 2.300 . S
O374 C381 1.275 . S
Cd375 O374 2.300 . S
Cd375 O383 2.381 . S
Cd375 O384 2.378 . S
O376 Cd377 2.385 . S
O376 C381 1.255 . S
Cd377 O376 2.385 . S
Cd377 O378 2.317 . S
O378 Cd377 2.317 . S
O378 C379 1.232 . S
C379 O378 1.232 . S
C379 O380 1.218 . S
O380 C379 1.218 . S
C381 O374 1.275 . S
C381 O376 1.255 . S
C382 O383 1.258 . S
C382 O384 1.256 . S
O383 Cd375 2.381 . S
O383 C382 1.258 . S
O384 Cd375 2.378 . S
O384 C382 1.256 . S
O385 Cd386 2.300 . S
O385 C392 1.275 . S
Cd386 O385 2.300 . S
Cd386 O394 2.381 . S
Cd386 O395 2.378 . S
O387 Cd388 2.385 . S
O387 C392 1.255 . S
Cd388 O387 2.385 . S
Cd388 O389 2.317 . S
O389 Cd388 2.317 . S
O389 C390 1.232 . S
C390 O389 1.232 . S
C390 O391 1.218 . S
O391 C390 1.218 . S
C392 O385 1.275 . S
C392 O387 1.255 . S
C393 O394 1.258 . S
C393 O395 1.256 . S
O394 Cd386 2.381 . S
O394 C393 1.258 . S
O395 Cd386 2.378 . S
O395 C393 1.256 . S
O396 Cd397 2.300 . S
O396 C403 1.275 . S
Cd397 O396 2.300 . S
Cd397 O405 2.381 . S
Cd397 O406 2.378 . S
O398 Cd399 2.385 . S
O398 C403 1.255 . S
Cd399 O398 2.385 . S
Cd399 O400 2.317 . S
O400 Cd399 2.317 . S
O400 C401 1.232 . S
C401 O400 1.232 . S
C401 O402 1.218 . S
O402 C401 1.218 . S
C403 O396 1.275 . S
C403 O398 1.255 . S
C404 O405 1.258 . S
C404 O406 1.256 . S
O405 Cd397 2.381 . S
O405 C404 1.258 . S
O406 Cd397 2.378 . S
O406 C404 1.256 . S
O407 Cd408 2.300 . S
O407 C414 1.275 . S
Cd408 O407 2.300 . S
Cd408 O416 2.381 . S
Cd408 O417 2.378 . S
O409 Cd410 2.385 . S
O409 C414 1.255 . S
Cd410 O409 2.385 . S
Cd410 O411 2.317 . S
O411 Cd410 2.317 . S
O411 C412 1.232 . S
C412 O411 1.232 . S
C412 O413 1.218 . S
O413 C412 1.218 . S
C414 O407 1.275 . S
C414 O409 1.255 . S
C415 O416 1.258 . S
C415 O417 1.256 . S
O416 Cd408 2.381 . S
O416 C415 1.258 . S
O417 Cd408 2.378 . S
O417 C415 1.256 . S
O418 Cd419 2.300 . S
O418 C425 1.275 . S
Cd419 O418 2.300 . S
Cd419 O427 2.381 . S
Cd419 O428 2.378 . S
O420 Cd421 2.385 . S
O420 C425 1.255 . S
Cd421 O420 2.385 . S
Cd421 O422 2.317 . S
O422 Cd421 2.317 . S
O422 C423 1.232 . S
C423 O422 1.232 . S
C423 O424 1.218 . S
O424 C423 1.218 . S
C425 O418 1.275 . S
C425 O420 1.255 . S
C426 O427 1.258 . S
C426 O428 1.256 . S
O427 Cd419 2.381 . S
O427 C426 1.258 . S
O428 Cd419 2.378 . S
O428 C426 1.256 . S
O429 Cd430 2.300 . S
O429 C436 1.275 . S
Cd430 O429 2.300 . S
Cd430 O438 2.381 . S
Cd430 O439 2.378 . S
O431 Cd432 2.385 . S
O431 C436 1.255 . S
Cd432 O431 2.385 . S
Cd432 O433 2.317 . S
O433 Cd432 2.317 . S
O433 C434 1.232 . S
C434 O433 1.232 . S
C434 O435 1.218 . S
O435 C434 1.218 . S
C436 O429 1.275 . S
C436 O431 1.255 . S
C437 O438 1.258 . S
C437 O439 1.256 . S
O438 Cd430 2.381 . S
O438 C437 1.258 . S
O439 Cd430 2.378 . S
O439 C437 1.256 . S
O440 Cd441 2.300 . S
O440 C447 1.275 . S
Cd441 O440 2.300 . S
Cd441 O449 2.381 . S
Cd441 O450 2.378 . S
O442 Cd443 2.385 . S
O442 C447 1.255 . S
Cd443 O442 2.385 . S
Cd443 O444 2.317 . S
O444 Cd443 2.317 . S
O444 C445 1.232 . S
C445 O444 1.232 . S
C445 O446 1.218 . S
O446 C445 1.218 . S
C447 O440 1.275 . S
C447 O442 1.255 . S
C448 O449 1.258 . S
C448 O450 1.256 . S
O449 Cd441 2.381 . S
O449 C448 1.258 . S
O450 Cd441 2.378 . S
O450 C448 1.256 . S
O451 Cd452 2.300 . S
O451 C458 1.275 . S
Cd452 O451 2.300 . S
Cd452 O460 2.381 . S
Cd452 O461 2.378 . S
O453 Cd454 2.385 . S
O453 C458 1.255 . S
Cd454 O453 2.385 . S
Cd454 O455 2.317 . S
O455 Cd454 2.317 . S
O455 C456 1.232 . S
C456 O455 1.232 . S
C456 O457 1.218 . S
O457 C456 1.218 . S
C458 O451 1.275 . S
C458 O453 1.255 . S
C459 O460 1.258 . S
C459 O461 1.256 . S
O460 Cd452 2.381 . S
O460 C459 1.258 . S
O461 Cd452 2.378 . S
O461 C459 1.256 . S
O462 Cd463 2.300 . S
O462 C469 1.275 . S
Cd463 O462 2.300 . S
Cd463 O471 2.381 . S
Cd463 O472 2.378 . S
O464 Cd465 2.385 . S
O464 C469 1.255 . S
Cd465 O464 2.385 . S
Cd465 O466 2.317 . S
O466 Cd465 2.317 . S
O466 C467 1.232 . S
C467 O466 1.232 . S
C467 O468 1.218 . S
O468 C467 1.218 . S
C469 O462 1.275 . S
C469 O464 1.255 . S
C470 O471 1.258 . S
C470 O472 1.256 . S
O471 Cd463 2.381 . S
O471 C470 1.258 . S
O472 Cd463 2.378 . S
O472 C470 1.256 . S
O473 Cd474 2.300 . S
O473 C480 1.275 . S
Cd474 O473 2.300 . S
Cd474 O482 2.381 . S
Cd474 O483 2.378 . S
O475 Cd476 2.385 . S
O475 C480 1.255 . S
Cd476 O475 2.385 . S
Cd476 O477 2.317 . S
O477 Cd476 2.317 . S
O477 C478 1.232 . S
C478 O477 1.232 . S
C478 O479 1.218 . S
O479 C478 1.218 . S
C480 O473 1.275 . S
C480 O475 1.255 . S
C481 O482 1.258 . S
C481 O483 1.256 . S
O482 Cd474 2.381 . S
O482 C481 1.258 . S
O483 Cd474 2.378 . S
O483 C481 1.256 . S
O484 Cd485 2.300 . S
O484 C491 1.275 . S
Cd485 O484 2.300 . S
Cd485 O493 2.381 . S
Cd485 O494 2.378 . S
O486 Cd487 2.385 . S
O486 C491 1.255 . S
Cd487 O486 2.385 . S
Cd487 O488 2.317 . S
O488 Cd487 2.317 . S
O488 C489 1.232 . S
C489 O488 1.232 . S
C489 O490 1.218 . S
O490 C489 1.218 . S
C491 O484 1.275 . S
C491 O486 1.255 . S
C492 O493 1.258 . S
C492 O494 1.256 . S
O493 Cd485 2.381 . S
O493 C492 1.258 . S
O494 Cd485 2.378 . S
O494 C492 1.256 . S
O495 Cd496 2.300 . S
O495 C502 1.275 . S
Cd496 O495 2.300 . S
Cd496 O504 2.381 . S
Cd496 O505 2.378 . S
O497 Cd498 2.385 . S
O497 C502 1.255 . S
Cd498 O497 2.385 . S
Cd498 O499 2.317 . S
O499 Cd498 2.317 . S
O499 C500 1.232 . S
C500 O499 1.232 . S
C500 O501 1.218 . S
O501 C500 1.218 . S
C502 O495 1.275 . S
C502 O497 1.255 . S
C503 O504 1.258 . S
C503 O505 1.256 . S
O504 Cd496 2.381 . S
O504 C503 1.258 . S
O505 Cd496 2.378 . S
O505 C503 1.256 . S
O506 Cd507 2.300 . S
O506 C513 1.275 . S
Cd507 O506 2.300 . S
Cd507 O515 2.381 . S
Cd507 O516 2.378 . S
O508 Cd509 2.385 . S
O508 C513 1.255 . S
Cd509 O508 2.385 . S
Cd509 O510 2.317 . S
O510 Cd509 2.317 . S
O510 C511 1.232 . S
C511 O510 1.232 . S
C511 O512 1.218 . S
O512 C511 1.218 . S
C513 O506 1.275 . S
C513 O508 1.255 . S
C514 O515 1.258 . S
C514 O516 1.256 . S
O515 Cd507 2.381 . S
O515 C514 1.258 . S
O516 Cd507 2.378 . S
O516 C514 1.256 . S
O517 Cd518 2.300 . S
O517 C524 1.275 . S
Cd518 O517 2.300 . S
Cd518 O526 2.381 . S
Cd518 O527 2.378 . S
O519 Cd520 2.385 . S
O519 C524 1.255 . S
Cd520 O519 2.385 . S
Cd520 O521 2.317 . S
O521 Cd520 2.317 . S
O521 C522 1.232 . S
C522 O521 1.232 . S
C522 O523 1.218 . S
O523 C522 1.218 . S
C524 O517 1.275 . S
C524 O519 1.255 . S
C525 O526 1.258 . S
C525 O527 1.256 . S
O526 Cd518 2.381 . S
O526 C525 1.258 . S
O527 Cd518 2.378 . S
O527 C525 1.256 . S
H528 C546 0.951 . S
H529 C548 0.951 . S
H530 C550 0.950 . S
H531 C551 0.950 . S
H532 C553 0.950 . S
H533 C556 0.950 . S
H534 C557 0.950 . S
H535 C559 0.950 . S
H536 C560 0.950 . S
H537 C561 0.951 . S
H538 C563 0.951 . S
H539 C565 0.950 . S
H540 C566 0.950 . S
H541 C568 0.950 . S
H542 C571 0.950 . S
H543 C572 0.950 . S
H544 C574 0.950 . S
H545 C575 0.950 . S
C546 H528 0.951 . S
C546 C547 1.366 . S
C546 C548 1.388 . S
C547 C546 1.366 . S
C547 C551 1.385 . S
C548 H529 0.951 . S
C548 C546 1.388 . S
C548 C549 1.366 . S
C549 C548 1.366 . S
C549 C550 1.414 . S
C549 C552 1.499 . S
C550 H530 0.950 . S
C550 C549 1.414 . S
C550 C551 1.374 . S
C551 H531 0.950 . S
C551 C547 1.385 . S
C551 C550 1.374 . S
C552 C549 1.499 . S
C552 C553 1.373 . S
C552 C554 1.389 . S
C553 H532 0.950 . S
C553 C552 1.373 . S
C553 C569 1.377 . S
C554 C552 1.389 . S
C554 C555 1.524 . S
C554 C568 1.377 . S
C555 C554 1.524 . S
C555 C556 1.397 . S
C555 C560 1.363 . S
C556 H533 0.950 . S
C556 C555 1.397 . S
C556 C557 1.334 . S
C557 H534 0.950 . S
C557 C556 1.334 . S
C557 C558 1.287 . S
C558 C557 1.287 . S
C558 C559 1.524 . S
C558 H577 0.913 . S
C559 H535 0.950 . S
C559 C558 1.524 . S
C559 C560 1.415 . S
C560 H536 0.950 . S
C560 C555 1.363 . S
C560 C559 1.415 . S
C561 H537 0.951 . S
C561 C562 1.366 . S
C561 C563 1.388 . S
C562 C561 1.366 . S
C562 C566 1.385 . S
C563 H538 0.951 . S
C563 C561 1.388 . S
C563 C564 1.366 . S
C564 C563 1.366 . S
C564 C565 1.414 . S
C564 C567 1.499 . S
C565 H539 0.950 . S
C565 C564 1.414 . S
C565 C566 1.374 . S
C566 H540 0.950 . S
C566 C562 1.385 . S
C566 C565 1.374 . S
C567 C564 1.499 . S
C567 C568 1.373 . S
C567 C569 1.389 . S
C568 H541 0.950 . S
C568 C554 1.377 . S
C568 C567 1.373 . S
C569 C553 1.377 . S
C569 C567 1.389 . S
C569 C570 1.524 . S
C570 C569 1.524 . S
C570 C571 1.397 . S
C570 C575 1.363 . S
C571 H542 0.950 . S
C571 C570 1.397 . S
C571 C572 1.334 . S
C572 H543 0.950 . S
C572 C571 1.334 . S
C572 C573 1.287 . S
C573 C572 1.287 . S
C573 C574 1.524 . S
C573 H576 0.999 . S
C574 H544 0.950 . S
C574 C573 1.524 . S
C574 C575 1.415 . S
C575 H545 0.950 . S
C575 C570 1.363 . S
C575 C574 1.415 . S
H576 C573 0.999 . S
H577 C558 0.913 . S
H578 C596 0.951 . S
H579 C598 0.951 . S
H580 C600 0.950 . S
H581 C601 0.950 . S
H582 C603 0.950 . S
H583 C606 0.950 . S
H584 C607 0.950 . S
H585 C609 0.950 . S
H586 C610 0.950 . S
H587 C611 0.951 . S
H588 C613 0.951 . S
H589 C615 0.950 . S
H590 C616 0.950 . S
H591 C618 0.950 . S
H592 C621 0.950 . S
H593 C622 0.950 . S
H594 C624 0.950 . S
H595 C625 0.950 . S
C596 H578 0.951 . S
C596 C597 1.366 . S
C596 C598 1.388 . S
C597 C596 1.366 . S
C597 C601 1.385 . S
C598 H579 0.951 . S
C598 C596 1.388 . S
C598 C599 1.366 . S
C599 C598 1.366 . S
C599 C600 1.414 . S
C599 C602 1.499 . S
C600 H580 0.950 . S
C600 C599 1.414 . S
C600 C601 1.374 . S
C601 H581 0.950 . S
C601 C597 1.385 . S
C601 C600 1.374 . S
C602 C599 1.499 . S
C602 C603 1.373 . S
C602 C604 1.389 . S
C603 H582 0.950 . S
C603 C602 1.373 . S
C603 C619 1.377 . S
C604 C602 1.389 . S
C604 C605 1.524 . S
C604 C618 1.377 . S
C605 C604 1.524 . S
C605 C606 1.397 . S
C605 C610 1.363 . S
C606 H583 0.950 . S
C606 C605 1.397 . S
C606 C607 1.334 . S
C607 H584 0.950 . S
C607 C606 1.334 . S
C607 C608 1.287 . S
C608 C607 1.287 . S
C608 C609 1.524 . S
C608 H627 0.913 . S
C609 H585 0.950 . S
C609 C608 1.524 . S
C609 C610 1.415 . S
C610 H586 0.950 . S
C610 C605 1.363 . S
C610 C609 1.415 . S
C611 H587 0.951 . S
C611 C612 1.366 . S
C611 C613 1.388 . S
C612 C611 1.366 . S
C612 C616 1.385 . S
C613 H588 0.951 . S
C613 C611 1.388 . S
C613 C614 1.366 . S
C614 C613 1.366 . S
C614 C615 1.414 . S
C614 C617 1.499 . S
C615 H589 0.950 . S
C615 C614 1.414 . S
C615 C616 1.374 . S
C616 H590 0.950 . S
C616 C612 1.385 . S
C616 C615 1.374 . S
C617 C614 1.499 . S
C617 C618 1.373 . S
C617 C619 1.389 . S
C618 H591 0.950 . S
C618 C604 1.377 . S
C618 C617 1.373 . S
C619 C603 1.377 . S
C619 C617 1.389 . S
C619 C620 1.524 . S
C620 C619 1.524 . S
C620 C621 1.397 . S
C620 C625 1.363 . S
C621 H592 0.950 . S
C621 C620 1.397 . S
C621 C622 1.334 . S
C622 H593 0.950 . S
C622 C621 1.334 . S
C622 C623 1.287 . S
C623 C622 1.287 . S
C623 C624 1.524 . S
C623 H626 0.999 . S
C624 H594 0.950 . S
C624 C623 1.524 . S
C624 C625 1.415 . S
C625 H595 0.950 . S
C625 C620 1.363 . S
C625 C624 1.415 . S
H626 C623 0.999 . S
H627 C608 0.913 . S
H628 C646 0.951 . S
H629 C648 0.951 . S
H630 C650 0.950 . S
H631 C651 0.950 . S
H632 C653 0.950 . S
H633 C656 0.950 . S
H634 C657 0.950 . S
H635 C659 0.950 . S
H636 C660 0.950 . S
H637 C661 0.951 . S
H638 C663 0.951 . S
H639 C665 0.950 . S
H640 C666 0.950 . S
H641 C668 0.950 . S
H642 C671 0.950 . S
H643 C672 0.950 . S
H644 C674 0.950 . S
H645 C675 0.950 . S
C646 H628 0.951 . S
C646 C647 1.366 . S
C646 C648 1.388 . S
C647 C646 1.366 . S
C647 C651 1.385 . S
C648 H629 0.951 . S
C648 C646 1.388 . S
C648 C649 1.366 . S
C649 C648 1.366 . S
C649 C650 1.414 . S
C649 C652 1.499 . S
C650 H630 0.950 . S
C650 C649 1.414 . S
C650 C651 1.374 . S
C651 H631 0.950 . S
C651 C647 1.385 . S
C651 C650 1.374 . S
C652 C649 1.499 . S
C652 C653 1.373 . S
C652 C654 1.389 . S
C653 H632 0.950 . S
C653 C652 1.373 . S
C653 C669 1.377 . S
C654 C652 1.389 . S
C654 C655 1.524 . S
C654 C668 1.377 . S
C655 C654 1.524 . S
C655 C656 1.397 . S
C655 C660 1.363 . S
C656 H633 0.950 . S
C656 C655 1.397 . S
C656 C657 1.334 . S
C657 H634 0.950 . S
C657 C656 1.334 . S
C657 C658 1.287 . S
C658 C657 1.287 . S
C658 C659 1.524 . S
C658 H677 0.913 . S
C659 H635 0.950 . S
C659 C658 1.524 . S
C659 C660 1.415 . S
C660 H636 0.950 . S
C660 C655 1.363 . S
C660 C659 1.415 . S
C661 H637 0.951 . S
C661 C662 1.366 . S
C661 C663 1.388 . S
C662 C661 1.366 . S
C662 C666 1.385 . S
C663 H638 0.951 . S
C663 C661 1.388 . S
C663 C664 1.366 . S
C664 C663 1.366 . S
C664 C665 1.414 . S
C664 C667 1.499 . S
C665 H639 0.950 . S
C665 C664 1.414 . S
C665 C666 1.374 . S
C666 H640 0.950 . S
C666 C662 1.385 . S
C666 C665 1.374 . S
C667 C664 1.499 . S
C667 C668 1.373 . S
C667 C669 1.389 . S
C668 H641 0.950 . S
C668 C654 1.377 . S
C668 C667 1.373 . S
C669 C653 1.377 . S
C669 C667 1.389 . S
C669 C670 1.524 . S
C670 C669 1.524 . S
C670 C671 1.397 . S
C670 C675 1.363 . S
C671 H642 0.950 . S
C671 C670 1.397 . S
C671 C672 1.334 . S
C672 H643 0.950 . S
C672 C671 1.334 . S
C672 C673 1.287 . S
C673 C672 1.287 . S
C673 C674 1.524 . S
C673 H676 0.999 . S
C674 H644 0.950 . S
C674 C673 1.524 . S
C674 C675 1.415 . S
C675 H645 0.950 . S
C675 C670 1.363 . S
C675 C674 1.415 . S
H676 C673 0.999 . S
H677 C658 0.913 . S
H678 C696 0.951 . S
H679 C698 0.951 . S
H680 C700 0.950 . S
H681 C701 0.950 . S
H682 C703 0.950 . S
H683 C706 0.950 . S
H684 C707 0.950 . S
H685 C709 0.950 . S
H686 C710 0.950 . S
H687 C711 0.951 . S
H688 C713 0.951 . S
H689 C715 0.950 . S
H690 C716 0.950 . S
H691 C718 0.950 . S
H692 C721 0.950 . S
H693 C722 0.950 . S
H694 C724 0.950 . S
H695 C725 0.950 . S
C696 H678 0.951 . S
C696 C697 1.366 . S
C696 C698 1.388 . S
C697 C696 1.366 . S
C697 C701 1.385 . S
C698 H679 0.951 . S
C698 C696 1.388 . S
C698 C699 1.366 . S
C699 C698 1.366 . S
C699 C700 1.414 . S
C699 C702 1.499 . S
C700 H680 0.950 . S
C700 C699 1.414 . S
C700 C701 1.374 . S
C701 H681 0.950 . S
C701 C697 1.385 . S
C701 C700 1.374 . S
C702 C699 1.499 . S
C702 C703 1.373 . S
C702 C704 1.389 . S
C703 H682 0.950 . S
C703 C702 1.373 . S
C703 C719 1.377 . S
C704 C702 1.389 . S
C704 C705 1.524 . S
C704 C718 1.377 . S
C705 C704 1.524 . S
C705 C706 1.397 . S
C705 C710 1.363 . S
C706 H683 0.950 . S
C706 C705 1.397 . S
C706 C707 1.334 . S
C707 H684 0.950 . S
C707 C706 1.334 . S
C707 C708 1.287 . S
C708 C707 1.287 . S
C708 C709 1.524 . S
C708 H727 0.913 . S
C709 H685 0.950 . S
C709 C708 1.524 . S
C709 C710 1.415 . S
C710 H686 0.950 . S
C710 C705 1.363 . S
C710 C709 1.415 . S
C711 H687 0.951 . S
C711 C712 1.366 . S
C711 C713 1.388 . S
C712 C711 1.366 . S
C712 C716 1.385 . S
C713 H688 0.951 . S
C713 C711 1.388 . S
C713 C714 1.366 . S
C714 C713 1.366 . S
C714 C715 1.414 . S
C714 C717 1.499 . S
C715 H689 0.950 . S
C715 C714 1.414 . S
C715 C716 1.374 . S
C716 H690 0.950 . S
C716 C712 1.385 . S
C716 C715 1.374 . S
C717 C714 1.499 . S
C717 C718 1.373 . S
C717 C719 1.389 . S
C718 H691 0.950 . S
C718 C704 1.377 . S
C718 C717 1.373 . S
C719 C703 1.377 . S
C719 C717 1.389 . S
C719 C720 1.524 . S
C720 C719 1.524 . S
C720 C721 1.397 . S
C720 C725 1.363 . S
C721 H692 0.950 . S
C721 C720 1.397 . S
C721 C722 1.334 . S
C722 H693 0.950 . S
C722 C721 1.334 . S
C722 C723 1.287 . S
C723 C722 1.287 . S
C723 C724 1.524 . S
C723 H726 0.999 . S
C724 H694 0.950 . S
C724 C723 1.524 . S
C724 C725 1.415 . S
C725 H695 0.950 . S
C725 C720 1.363 . S
C725 C724 1.415 . S
H726 C723 0.999 . S
H727 C708 0.913 . S
H728 C746 0.951 . S
H729 C748 0.951 . S
H730 C750 0.950 . S
H731 C751 0.950 . S
H732 C753 0.950 . S
H733 C756 0.950 . S
H734 C757 0.950 . S
H735 C759 0.950 . S
H736 C760 0.950 . S
H737 C761 0.951 . S
H738 C763 0.951 . S
H739 C765 0.950 . S
H740 C766 0.950 . S
H741 C768 0.950 . S
H742 C771 0.950 . S
H743 C772 0.950 . S
H744 C774 0.950 . S
H745 C775 0.950 . S
C746 H728 0.951 . S
C746 C747 1.366 . S
C746 C748 1.388 . S
C747 C746 1.366 . S
C747 C751 1.385 . S
C748 H729 0.951 . S
C748 C746 1.388 . S
C748 C749 1.366 . S
C749 C748 1.366 . S
C749 C750 1.414 . S
C749 C752 1.499 . S
C750 H730 0.950 . S
C750 C749 1.414 . S
C750 C751 1.374 . S
C751 H731 0.950 . S
C751 C747 1.385 . S
C751 C750 1.374 . S
C752 C749 1.499 . S
C752 C753 1.373 . S
C752 C754 1.389 . S
C753 H732 0.950 . S
C753 C752 1.373 . S
C753 C769 1.377 . S
C754 C752 1.389 . S
C754 C755 1.524 . S
C754 C768 1.377 . S
C755 C754 1.524 . S
C755 C756 1.397 . S
C755 C760 1.363 . S
C756 H733 0.950 . S
C756 C755 1.397 . S
C756 C757 1.334 . S
C757 H734 0.950 . S
C757 C756 1.334 . S
C757 C758 1.287 . S
C758 C757 1.287 . S
C758 C759 1.524 . S
C758 H777 0.913 . S
C759 H735 0.950 . S
C759 C758 1.524 . S
C759 C760 1.415 . S
C760 H736 0.950 . S
C760 C755 1.363 . S
C760 C759 1.415 . S
C761 H737 0.951 . S
C761 C762 1.366 . S
C761 C763 1.388 . S
C762 C761 1.366 . S
C762 C766 1.385 . S
C763 H738 0.951 . S
C763 C761 1.388 . S
C763 C764 1.366 . S
C764 C763 1.366 . S
C764 C765 1.414 . S
C764 C767 1.499 . S
C765 H739 0.950 . S
C765 C764 1.414 . S
C765 C766 1.374 . S
C766 H740 0.950 . S
C766 C762 1.385 . S
C766 C765 1.374 . S
C767 C764 1.499 . S
C767 C768 1.373 . S
C767 C769 1.389 . S
C768 H741 0.950 . S
C768 C754 1.377 . S
C768 C767 1.373 . S
C769 C753 1.377 . S
C769 C767 1.389 . S
C769 C770 1.524 . S
C770 C769 1.524 . S
C770 C771 1.397 . S
C770 C775 1.363 . S
C771 H742 0.950 . S
C771 C770 1.397 . S
C771 C772 1.334 . S
C772 H743 0.950 . S
C772 C771 1.334 . S
C772 C773 1.287 . S
C773 C772 1.287 . S
C773 C774 1.524 . S
C773 H776 0.999 . S
C774 H744 0.950 . S
C774 C773 1.524 . S
C774 C775 1.415 . S
C775 H745 0.950 . S
C775 C770 1.363 . S
C775 C774 1.415 . S
H776 C773 0.999 . S
H777 C758 0.913 . S
H778 C796 0.951 . S
H779 C798 0.951 . S
H780 C800 0.950 . S
H781 C801 0.950 . S
H782 C803 0.950 . S
H783 C806 0.950 . S
H784 C807 0.950 . S
H785 C809 0.950 . S
H786 C810 0.950 . S
H787 C811 0.951 . S
H788 C813 0.951 . S
H789 C815 0.950 . S
H790 C816 0.950 . S
H791 C818 0.950 . S
H792 C821 0.950 . S
H793 C822 0.950 . S
H794 C824 0.950 . S
H795 C825 0.950 . S
C796 H778 0.951 . S
C796 C797 1.366 . S
C796 C798 1.388 . S
C797 C796 1.366 . S
C797 C801 1.385 . S
C798 H779 0.951 . S
C798 C796 1.388 . S
C798 C799 1.366 . S
C799 C798 1.366 . S
C799 C800 1.414 . S
C799 C802 1.499 . S
C800 H780 0.950 . S
C800 C799 1.414 . S
C800 C801 1.374 . S
C801 H781 0.950 . S
C801 C797 1.385 . S
C801 C800 1.374 . S
C802 C799 1.499 . S
C802 C803 1.373 . S
C802 C804 1.389 . S
C803 H782 0.950 . S
C803 C802 1.373 . S
C803 C819 1.377 . S
C804 C802 1.389 . S
C804 C805 1.524 . S
C804 C818 1.377 . S
C805 C804 1.524 . S
C805 C806 1.397 . S
C805 C810 1.363 . S
C806 H783 0.950 . S
C806 C805 1.397 . S
C806 C807 1.334 . S
C807 H784 0.950 . S
C807 C806 1.334 . S
C807 C808 1.287 . S
C808 C807 1.287 . S
C808 C809 1.524 . S
C808 H827 0.913 . S
C809 H785 0.950 . S
C809 C808 1.524 . S
C809 C810 1.415 . S
C810 H786 0.950 . S
C810 C805 1.363 . S
C810 C809 1.415 . S
C811 H787 0.951 . S
C811 C812 1.366 . S
C811 C813 1.388 . S
C812 C811 1.366 . S
C812 C816 1.385 . S
C813 H788 0.951 . S
C813 C811 1.388 . S
C813 C814 1.366 . S
C814 C813 1.366 . S
C814 C815 1.414 . S
C814 C817 1.499 . S
C815 H789 0.950 . S
C815 C814 1.414 . S
C815 C816 1.374 . S
C816 H790 0.950 . S
C816 C812 1.385 . S
C816 C815 1.374 . S
C817 C814 1.499 . S
C817 C818 1.373 . S
C817 C819 1.389 . S
C818 H791 0.950 . S
C818 C804 1.377 . S
C818 C817 1.373 . S
C819 C803 1.377 . S
C819 C817 1.389 . S
C819 C820 1.524 . S
C820 C819 1.524 . S
C820 C821 1.397 . S
C820 C825 1.363 . S
C821 H792 0.950 . S
C821 C820 1.397 . S
C821 C822 1.334 . S
C822 H793 0.950 . S
C822 C821 1.334 . S
C822 C823 1.287 . S
C823 C822 1.287 . S
C823 C824 1.524 . S
C823 H826 0.999 . S
C824 H794 0.950 . S
C824 C823 1.524 . S
C824 C825 1.415 . S
C825 H795 0.950 . S
C825 C820 1.363 . S
C825 C824 1.415 . S
H826 C823 0.999 . S
H827 C808 0.913 . S
H828 C846 0.951 . S
H829 C848 0.951 . S
H830 C850 0.950 . S
H831 C851 0.950 . S
H832 C853 0.950 . S
H833 C856 0.950 . S
H834 C857 0.950 . S
H835 C859 0.950 . S
H836 C860 0.950 . S
H837 C861 0.951 . S
H838 C863 0.951 . S
H839 C865 0.950 . S
H840 C866 0.950 . S
H841 C868 0.950 . S
H842 C871 0.950 . S
H843 C872 0.950 . S
H844 C874 0.950 . S
H845 C875 0.950 . S
C846 H828 0.951 . S
C846 C847 1.366 . S
C846 C848 1.388 . S
C847 C846 1.366 . S
C847 C851 1.385 . S
C848 H829 0.951 . S
C848 C846 1.388 . S
C848 C849 1.366 . S
C849 C848 1.366 . S
C849 C850 1.414 . S
C849 C852 1.499 . S
C850 H830 0.950 . S
C850 C849 1.414 . S
C850 C851 1.374 . S
C851 H831 0.950 . S
C851 C847 1.385 . S
C851 C850 1.374 . S
C852 C849 1.499 . S
C852 C853 1.373 . S
C852 C854 1.389 . S
C853 H832 0.950 . S
C853 C852 1.373 . S
C853 C869 1.377 . S
C854 C852 1.389 . S
C854 C855 1.524 . S
C854 C868 1.377 . S
C855 C854 1.524 . S
C855 C856 1.397 . S
C855 C860 1.363 . S
C856 H833 0.950 . S
C856 C855 1.397 . S
C856 C857 1.334 . S
C857 H834 0.950 . S
C857 C856 1.334 . S
C857 C858 1.287 . S
C858 C857 1.287 . S
C858 C859 1.524 . S
C858 H877 0.913 . S
C859 H835 0.950 . S
C859 C858 1.524 . S
C859 C860 1.415 . S
C860 H836 0.950 . S
C860 C855 1.363 . S
C860 C859 1.415 . S
C861 H837 0.951 . S
C861 C862 1.366 . S
C861 C863 1.388 . S
C862 C861 1.366 . S
C862 C866 1.385 . S
C863 H838 0.951 . S
C863 C861 1.388 . S
C863 C864 1.366 . S
C864 C863 1.366 . S
C864 C865 1.414 . S
C864 C867 1.499 . S
C865 H839 0.950 . S
C865 C864 1.414 . S
C865 C866 1.374 . S
C866 H840 0.950 . S
C866 C862 1.385 . S
C866 C865 1.374 . S
C867 C864 1.499 . S
C867 C868 1.373 . S
C867 C869 1.389 . S
C868 H841 0.950 . S
C868 C854 1.377 . S
C868 C867 1.373 . S
C869 C853 1.377 . S
C869 C867 1.389 . S
C869 C870 1.524 . S
C870 C869 1.524 . S
C870 C871 1.397 . S
C870 C875 1.363 . S
C871 H842 0.950 . S
C871 C870 1.397 . S
C871 C872 1.334 . S
C872 H843 0.950 . S
C872 C871 1.334 . S
C872 C873 1.287 . S
C873 C872 1.287 . S
C873 C874 1.524 . S
C873 H876 0.999 . S
C874 H844 0.950 . S
C874 C873 1.524 . S
C874 C875 1.415 . S
C875 H845 0.950 . S
C875 C870 1.363 . S
C875 C874 1.415 . S
H876 C873 0.999 . S
H877 C858 0.913 . S
H878 C896 0.951 . S
H879 C898 0.951 . S
H880 C900 0.950 . S
H881 C901 0.950 . S
H882 C903 0.950 . S
H883 C906 0.950 . S
H884 C907 0.950 . S
H885 C909 0.950 . S
H886 C910 0.950 . S
H887 C911 0.951 . S
H888 C913 0.951 . S
H889 C915 0.950 . S
H890 C916 0.950 . S
H891 C918 0.950 . S
H892 C921 0.950 . S
H893 C922 0.950 . S
H894 C924 0.950 . S
H895 C925 0.950 . S
C896 H878 0.951 . S
C896 C897 1.366 . S
C896 C898 1.388 . S
C897 C896 1.366 . S
C897 C901 1.385 . S
C898 H879 0.951 . S
C898 C896 1.388 . S
C898 C899 1.366 . S
C899 C898 1.366 . S
C899 C900 1.414 . S
C899 C902 1.499 . S
C900 H880 0.950 . S
C900 C899 1.414 . S
C900 C901 1.374 . S
C901 H881 0.950 . S
C901 C897 1.385 . S
C901 C900 1.374 . S
C902 C899 1.499 . S
C902 C903 1.373 . S
C902 C904 1.389 . S
C903 H882 0.950 . S
C903 C902 1.373 . S
C903 C919 1.377 . S
C904 C902 1.389 . S
C904 C905 1.524 . S
C904 C918 1.377 . S
C905 C904 1.524 . S
C905 C906 1.397 . S
C905 C910 1.363 . S
C906 H883 0.950 . S
C906 C905 1.397 . S
C906 C907 1.334 . S
C907 H884 0.950 . S
C907 C906 1.334 . S
C907 C908 1.287 . S
C908 C907 1.287 . S
C908 C909 1.524 . S
C908 H927 0.913 . S
C909 H885 0.950 . S
C909 C908 1.524 . S
C909 C910 1.415 . S
C910 H886 0.950 . S
C910 C905 1.363 . S
C910 C909 1.415 . S
C911 H887 0.951 . S
C911 C912 1.366 . S
C911 C913 1.388 . S
C912 C911 1.366 . S
C912 C916 1.385 . S
C913 H888 0.951 . S
C913 C911 1.388 . S
C913 C914 1.366 . S
C914 C913 1.366 . S
C914 C915 1.414 . S
C914 C917 1.499 . S
C915 H889 0.950 . S
C915 C914 1.414 . S
C915 C916 1.374 . S
C916 H890 0.950 . S
C916 C912 1.385 . S
C916 C915 1.374 . S
C917 C914 1.499 . S
C917 C918 1.373 . S
C917 C919 1.389 . S
C918 H891 0.950 . S
C918 C904 1.377 . S
C918 C917 1.373 . S
C919 C903 1.377 . S
C919 C917 1.389 . S
C919 C920 1.524 . S
C920 C919 1.524 . S
C920 C921 1.397 . S
C920 C925 1.363 . S
C921 H892 0.950 . S
C921 C920 1.397 . S
C921 C922 1.334 . S
C922 H893 0.950 . S
C922 C921 1.334 . S
C922 C923 1.287 . S
C923 C922 1.287 . S
C923 C924 1.524 . S
C923 H926 0.999 . S
C924 H894 0.950 . S
C924 C923 1.524 . S
C924 C925 1.415 . S
C925 H895 0.950 . S
C925 C920 1.363 . S
C925 C924 1.415 . S
H926 C923 0.999 . S
H927 C908 0.913 . S
H928 C946 0.951 . S
H929 C948 0.951 . S
H930 C950 0.950 . S
H931 C951 0.950 . S
H932 C953 0.950 . S
H933 C956 0.950 . S
H934 C957 0.950 . S
H935 C959 0.950 . S
H936 C960 0.950 . S
H937 C961 0.951 . S
H938 C963 0.951 . S
H939 C965 0.950 . S
H940 C966 0.950 . S
H941 C968 0.950 . S
H942 C971 0.950 . S
H943 C972 0.950 . S
H944 C974 0.950 . S
H945 C975 0.950 . S
C946 H928 0.951 . S
C946 C947 1.366 . S
C946 C948 1.388 . S
C947 C946 1.366 . S
C947 C951 1.385 . S
C948 H929 0.951 . S
C948 C946 1.388 . S
C948 C949 1.366 . S
C949 C948 1.366 . S
C949 C950 1.414 . S
C949 C952 1.499 . S
C950 H930 0.950 . S
C950 C949 1.414 . S
C950 C951 1.374 . S
C951 H931 0.950 . S
C951 C947 1.385 . S
C951 C950 1.374 . S
C952 C949 1.499 . S
C952 C953 1.373 . S
C952 C954 1.389 . S
C953 H932 0.950 . S
C953 C952 1.373 . S
C953 C969 1.377 . S
C954 C952 1.389 . S
C954 C955 1.524 . S
C954 C968 1.377 . S
C955 C954 1.524 . S
C955 C956 1.397 . S
C955 C960 1.363 . S
C956 H933 0.950 . S
C956 C955 1.397 . S
C956 C957 1.334 . S
C957 H934 0.950 . S
C957 C956 1.334 . S
C957 C958 1.287 . S
C958 C957 1.287 . S
C958 C959 1.524 . S
C958 H977 0.913 . S
C959 H935 0.950 . S
C959 C958 1.524 . S
C959 C960 1.415 . S
C960 H936 0.950 . S
C960 C955 1.363 . S
C960 C959 1.415 . S
C961 H937 0.951 . S
C961 C962 1.366 . S
C961 C963 1.388 . S
C962 C961 1.366 . S
C962 C966 1.385 . S
C963 H938 0.951 . S
C963 C961 1.388 . S
C963 C964 1.366 . S
C964 C963 1.366 . S
C964 C965 1.414 . S
C964 C967 1.499 . S
C965 H939 0.950 . S
C965 C964 1.414 . S
C965 C966 1.374 . S
C966 H940 0.950 . S
C966 C962 1.385 . S
C966 C965 1.374 . S
C967 C964 1.499 . S
C967 C968 1.373 . S
C967 C969 1.389 . S
C968 H941 0.950 . S
C968 C954 1.377 . S
C968 C967 1.373 . S
C969 C953 1.377 . S
C969 C967 1.389 . S
C969 C970 1.524 . S
C970 C969 1.524 . S
C970 C971 1.397 . S
C970 C975 1.363 . S
C971 H942 0.950 . S
C971 C970 1.397 . S
C971 C972 1.334 . S
C972 H943 0.950 . S
C972 C971 1.334 . S
C972 C973 1.287 . S
C973 C972 1.287 . S
C973 C974 1.524 . S
C973 H976 0.999 . S
C974 H944 0.950 . S
C974 C973 1.524 . S
C974 C975 1.415 . S
C975 H945 0.950 . S
C975 C970 1.363 . S
C975 C974 1.415 . S
H976 C973 0.999 . S
H977 C958 0.913 . S
H978 C996 0.951 . S
H979 C998 0.951 . S
H980 C1000 0.950 . S
H981 C1001 0.950 . S
H982 C1003 0.950 . S
H983 C1006 0.950 . S
H984 C1007 0.950 . S
H985 C1009 0.950 . S
H986 C1010 0.950 . S
H987 C1011 0.951 . S
H988 C1013 0.951 . S
H989 C1015 0.950 . S
H990 C1016 0.950 . S
H991 C1018 0.950 . S
H992 C1021 0.950 . S
H993 C1022 0.950 . S
H994 C1024 0.950 . S
H995 C1025 0.950 . S
C996 H978 0.951 . S
C996 C997 1.366 . S
C996 C998 1.388 . S
C997 C996 1.366 . S
C997 C1001 1.385 . S
C998 H979 0.951 . S
C998 C996 1.388 . S
C998 C999 1.366 . S
C999 C998 1.366 . S
C999 C1000 1.414 . S
C999 C1002 1.499 . S
C1000 H980 0.950 . S
C1000 C999 1.414 . S
C1000 C1001 1.374 . S
C1001 H981 0.950 . S
C1001 C997 1.385 . S
C1001 C1000 1.374 . S
C1002 C999 1.499 . S
C1002 C1003 1.373 . S
C1002 C1004 1.389 . S
C1003 H982 0.950 . S
C1003 C1002 1.373 . S
C1003 C1019 1.377 . S
C1004 C1002 1.389 . S
C1004 C1005 1.524 . S
C1004 C1018 1.377 . S
C1005 C1004 1.524 . S
C1005 C1006 1.397 . S
C1005 C1010 1.363 . S
C1006 H983 0.950 . S
C1006 C1005 1.397 . S
C1006 C1007 1.334 . S
C1007 H984 0.950 . S
C1007 C1006 1.334 . S
C1007 C1008 1.287 . S
C1008 C1007 1.287 . S
C1008 C1009 1.524 . S
C1008 H1027 0.913 . S
C1009 H985 0.950 . S
C1009 C1008 1.524 . S
C1009 C1010 1.415 . S
C1010 H986 0.950 . S
C1010 C1005 1.363 . S
C1010 C1009 1.415 . S
C1011 H987 0.951 . S
C1011 C1012 1.366 . S
C1011 C1013 1.388 . S
C1012 C1011 1.366 . S
C1012 C1016 1.385 . S
C1013 H988 0.951 . S
C1013 C1011 1.388 . S
C1013 C1014 1.366 . S
C1014 C1013 1.366 . S
C1014 C1015 1.414 . S
C1014 C1017 1.499 . S
C1015 H989 0.950 . S
C1015 C1014 1.414 . S
C1015 C1016 1.374 . S
C1016 H990 0.950 . S
C1016 C1012 1.385 . S
C1016 C1015 1.374 . S
C1017 C1014 1.499 . S
C1017 C1018 1.373 . S
C1017 C1019 1.389 . S
C1018 H991 0.950 . S
C1018 C1004 1.377 . S
C1018 C1017 1.373 . S
C1019 C1003 1.377 . S
C1019 C1017 1.389 . S
C1019 C1020 1.524 . S
C1020 C1019 1.524 . S
C1020 C1021 1.397 . S
C1020 C1025 1.363 . S
C1021 H992 0.950 . S
C1021 C1020 1.397 . S
C1021 C1022 1.334 . S
C1022 H993 0.950 . S
C1022 C1021 1.334 . S
C1022 C1023 1.287 . S
C1023 C1022 1.287 . S
C1023 C1024 1.524 . S
C1023 H1026 0.999 . S
C1024 H994 0.950 . S
C1024 C1023 1.524 . S
C1024 C1025 1.415 . S
C1025 H995 0.950 . S
C1025 C1020 1.363 . S
C1025 C1024 1.415 . S
H1026 C1023 0.999 . S
H1027 C1008 0.913 . S
H1028 C1046 0.951 . S
H1029 C1048 0.951 . S
H1030 C1050 0.950 . S
H1031 C1051 0.950 . S
H1032 C1053 0.950 . S
H1033 C1056 0.950 . S
H1034 C1057 0.950 . S
H1035 C1059 0.950 . S
H1036 C1060 0.950 . S
H1037 C1061 0.951 . S
H1038 C1063 0.951 . S
H1039 C1065 0.950 . S
H1040 C1066 0.950 . S
H1041 C1068 0.950 . S
H1042 C1071 0.950 . S
H1043 C1072 0.950 . S
H1044 C1074 0.950 . S
H1045 C1075 0.950 . S
C1046 H1028 0.951 . S
C1046 C1047 1.366 . S
C1046 C1048 1.388 . S
C1047 C1046 1.366 . S
C1047 C1051 1.385 . S
C1048 H1029 0.951 . S
C1048 C1046 1.388 . S
C1048 C1049 1.366 . S
C1049 C1048 1.366 . S
C1049 C1050 1.414 . S
C1049 C1052 1.499 . S
C1050 H1030 0.950 . S
C1050 C1049 1.414 . S
C1050 C1051 1.374 . S
C1051 H1031 0.950 . S
C1051 C1047 1.385 . S
C1051 C1050 1.374 . S
C1052 C1049 1.499 . S
C1052 C1053 1.373 . S
C1052 C1054 1.389 . S
C1053 H1032 0.950 . S
C1053 C1052 1.373 . S
C1053 C1069 1.377 . S
C1054 C1052 1.389 . S
C1054 C1055 1.524 . S
C1054 C1068 1.377 . S
C1055 C1054 1.524 . S
C1055 C1056 1.397 . S
C1055 C1060 1.363 . S
C1056 H1033 0.950 . S
C1056 C1055 1.397 . S
C1056 C1057 1.334 . S
C1057 H1034 0.950 . S
C1057 C1056 1.334 . S
C1057 C1058 1.287 . S
C1058 C1057 1.287 . S
C1058 C1059 1.524 . S
C1058 H1077 0.913 . S
C1059 H1035 0.950 . S
C1059 C1058 1.524 . S
C1059 C1060 1.415 . S
C1060 H1036 0.950 . S
C1060 C1055 1.363 . S
C1060 C1059 1.415 . S
C1061 H1037 0.951 . S
C1061 C1062 1.366 . S
C1061 C1063 1.388 . S
C1062 C1061 1.366 . S
C1062 C1066 1.385 . S
C1063 H1038 0.951 . S
C1063 C1061 1.388 . S
C1063 C1064 1.366 . S
C1064 C1063 1.366 . S
C1064 C1065 1.414 . S
C1064 C1067 1.499 . S
C1065 H1039 0.950 . S
C1065 C1064 1.414 . S
C1065 C1066 1.374 . S
C1066 H1040 0.950 . S
C1066 C1062 1.385 . S
C1066 C1065 1.374 . S
C1067 C1064 1.499 . S
C1067 C1068 1.373 . S
C1067 C1069 1.389 . S
C1068 H1041 0.950 . S
C1068 C1054 1.377 . S
C1068 C1067 1.373 . S
C1069 C1053 1.377 . S
C1069 C1067 1.389 . S
C1069 C1070 1.524 . S
C1070 C1069 1.524 . S
C1070 C1071 1.397 . S
C1070 C1075 1.363 . S
C1071 H1042 0.950 . S
C1071 C1070 1.397 . S
C1071 C1072 1.334 . S
C1072 H1043 0.950 . S
C1072 C1071 1.334 . S
C1072 C1073 1.287 . S
C1073 C1072 1.287 . S
C1073 C1074 1.524 . S
C1073 H1076 0.999 . S
C1074 H1044 0.950 . S
C1074 C1073 1.524 . S
C1074 C1075 1.415 . S
C1075 H1045 0.950 . S
C1075 C1070 1.363 . S
C1075 C1074 1.415 . S
H1076 C1073 0.999 . S
H1077 C1058 0.913 . S
H1078 C1096 0.951 . S
H1079 C1098 0.951 . S
H1080 C1100 0.950 . S
H1081 C1101 0.950 . S
H1082 C1103 0.950 . S
H1083 C1106 0.950 . S
H1084 C1107 0.950 . S
H1085 C1109 0.950 . S
H1086 C1110 0.950 . S
H1087 C1111 0.951 . S
H1088 C1113 0.951 . S
H1089 C1115 0.950 . S
H1090 C1116 0.950 . S
H1091 C1118 0.950 . S
H1092 C1121 0.950 . S
H1093 C1122 0.950 . S
H1094 C1124 0.950 . S
H1095 C1125 0.950 . S
C1096 H1078 0.951 . S
C1096 C1097 1.366 . S
C1096 C1098 1.388 . S
C1097 C1096 1.366 . S
C1097 C1101 1.385 . S
C1098 H1079 0.951 . S
C1098 C1096 1.388 . S
C1098 C1099 1.366 . S
C1099 C1098 1.366 . S
C1099 C1100 1.414 . S
C1099 C1102 1.499 . S
C1100 H1080 0.950 . S
C1100 C1099 1.414 . S
C1100 C1101 1.374 . S
C1101 H1081 0.950 . S
C1101 C1097 1.385 . S
C1101 C1100 1.374 . S
C1102 C1099 1.499 . S
C1102 C1103 1.373 . S
C1102 C1104 1.389 . S
C1103 H1082 0.950 . S
C1103 C1102 1.373 . S
C1103 C1119 1.377 . S
C1104 C1102 1.389 . S
C1104 C1105 1.524 . S
C1104 C1118 1.377 . S
C1105 C1104 1.524 . S
C1105 C1106 1.397 . S
C1105 C1110 1.363 . S
C1106 H1083 0.950 . S
C1106 C1105 1.397 . S
C1106 C1107 1.334 . S
C1107 H1084 0.950 . S
C1107 C1106 1.334 . S
C1107 C1108 1.287 . S
C1108 C1107 1.287 . S
C1108 C1109 1.524 . S
C1108 H1127 0.913 . S
C1109 H1085 0.950 . S
C1109 C1108 1.524 . S
C1109 C1110 1.415 . S
C1110 H1086 0.950 . S
C1110 C1105 1.363 . S
C1110 C1109 1.415 . S
C1111 H1087 0.951 . S
C1111 C1112 1.366 . S
C1111 C1113 1.388 . S
C1112 C1111 1.366 . S
C1112 C1116 1.385 . S
C1113 H1088 0.951 . S
C1113 C1111 1.388 . S
C1113 C1114 1.366 . S
C1114 C1113 1.366 . S
C1114 C1115 1.414 . S
C1114 C1117 1.499 . S
C1115 H1089 0.950 . S
C1115 C1114 1.414 . S
C1115 C1116 1.374 . S
C1116 H1090 0.950 . S
C1116 C1112 1.385 . S
C1116 C1115 1.374 . S
C1117 C1114 1.499 . S
C1117 C1118 1.373 . S
C1117 C1119 1.389 . S
C1118 H1091 0.950 . S
C1118 C1104 1.377 . S
C1118 C1117 1.373 . S
C1119 C1103 1.377 . S
C1119 C1117 1.389 . S
C1119 C1120 1.524 . S
C1120 C1119 1.524 . S
C1120 C1121 1.397 . S
C1120 C1125 1.363 . S
C1121 H1092 0.950 . S
C1121 C1120 1.397 . S
C1121 C1122 1.334 . S
C1122 H1093 0.950 . S
C1122 C1121 1.334 . S
C1122 C1123 1.287 . S
C1123 C1122 1.287 . S
C1123 C1124 1.524 . S
C1123 H1126 0.999 . S
C1124 H1094 0.950 . S
C1124 C1123 1.524 . S
C1124 C1125 1.415 . S
C1125 H1095 0.950 . S
C1125 C1120 1.363 . S
C1125 C1124 1.415 . S
H1126 C1123 0.999 . S
H1127 C1108 0.913 . S
H1128 C1146 0.951 . S
H1129 C1148 0.951 . S
H1130 C1150 0.950 . S
H1131 C1151 0.950 . S
H1132 C1153 0.950 . S
H1133 C1156 0.950 . S
H1134 C1157 0.950 . S
H1135 C1159 0.950 . S
H1136 C1160 0.950 . S
H1137 C1161 0.951 . S
H1138 C1163 0.951 . S
H1139 C1165 0.950 . S
H1140 C1166 0.950 . S
H1141 C1168 0.950 . S
H1142 C1171 0.950 . S
H1143 C1172 0.950 . S
H1144 C1174 0.950 . S
H1145 C1175 0.950 . S
C1146 H1128 0.951 . S
C1146 C1147 1.366 . S
C1146 C1148 1.388 . S
C1147 C1146 1.366 . S
C1147 C1151 1.385 . S
C1148 H1129 0.951 . S
C1148 C1146 1.388 . S
C1148 C1149 1.366 . S
C1149 C1148 1.366 . S
C1149 C1150 1.414 . S
C1149 C1152 1.499 . S
C1150 H1130 0.950 . S
C1150 C1149 1.414 . S
C1150 C1151 1.374 . S
C1151 H1131 0.950 . S
C1151 C1147 1.385 . S
C1151 C1150 1.374 . S
C1152 C1149 1.499 . S
C1152 C1153 1.373 . S
C1152 C1154 1.389 . S
C1153 H1132 0.950 . S
C1153 C1152 1.373 . S
C1153 C1169 1.377 . S
C1154 C1152 1.389 . S
C1154 C1155 1.524 . S
C1154 C1168 1.377 . S
C1155 C1154 1.524 . S
C1155 C1156 1.397 . S
C1155 C1160 1.363 . S
C1156 H1133 0.950 . S
C1156 C1155 1.397 . S
C1156 C1157 1.334 . S
C1157 H1134 0.950 . S
C1157 C1156 1.334 . S
C1157 C1158 1.287 . S
C1158 C1157 1.287 . S
C1158 C1159 1.524 . S
C1158 H1177 0.913 . S
C1159 H1135 0.950 . S
C1159 C1158 1.524 . S
C1159 C1160 1.415 . S
C1160 H1136 0.950 . S
C1160 C1155 1.363 . S
C1160 C1159 1.415 . S
C1161 H1137 0.951 . S
C1161 C1162 1.366 . S
C1161 C1163 1.388 . S
C1162 C1161 1.366 . S
C1162 C1166 1.385 . S
C1163 H1138 0.951 . S
C1163 C1161 1.388 . S
C1163 C1164 1.366 . S
C1164 C1163 1.366 . S
C1164 C1165 1.414 . S
C1164 C1167 1.499 . S
C1165 H1139 0.950 . S
C1165 C1164 1.414 . S
C1165 C1166 1.374 . S
C1166 H1140 0.950 . S
C1166 C1162 1.385 . S
C1166 C1165 1.374 . S
C1167 C1164 1.499 . S
C1167 C1168 1.373 . S
C1167 C1169 1.389 . S
C1168 H1141 0.950 . S
C1168 C1154 1.377 . S
C1168 C1167 1.373 . S
C1169 C1153 1.377 . S
C1169 C1167 1.389 . S
C1169 C1170 1.524 . S
C1170 C1169 1.524 . S
C1170 C1171 1.397 . S
C1170 C1175 1.363 . S
C1171 H1142 0.950 . S
C1171 C1170 1.397 . S
C1171 C1172 1.334 . S
C1172 H1143 0.950 . S
C1172 C1171 1.334 . S
C1172 C1173 1.287 . S
C1173 C1172 1.287 . S
C1173 C1174 1.524 . S
C1173 H1176 0.999 . S
C1174 H1144 0.950 . S
C1174 C1173 1.524 . S
C1174 C1175 1.415 . S
C1175 H1145 0.950 . S
C1175 C1170 1.363 . S
C1175 C1174 1.415 . S
H1176 C1173 0.999 . S
H1177 C1158 0.913 . S
H1178 C1196 0.951 . S
H1179 C1198 0.951 . S
H1180 C1200 0.950 . S
H1181 C1201 0.950 . S
H1182 C1203 0.950 . S
H1183 C1206 0.950 . S
H1184 C1207 0.950 . S
H1185 C1209 0.950 . S
H1186 C1210 0.950 . S
H1187 C1211 0.951 . S
H1188 C1213 0.951 . S
H1189 C1215 0.950 . S
H1190 C1216 0.950 . S
H1191 C1218 0.950 . S
H1192 C1221 0.950 . S
H1193 C1222 0.950 . S
H1194 C1224 0.950 . S
H1195 C1225 0.950 . S
C1196 H1178 0.951 . S
C1196 C1197 1.366 . S
C1196 C1198 1.388 . S
C1197 C1196 1.366 . S
C1197 C1201 1.385 . S
C1198 H1179 0.951 . S
C1198 C1196 1.388 . S
C1198 C1199 1.366 . S
C1199 C1198 1.366 . S
C1199 C1200 1.414 . S
C1199 C1202 1.499 . S
C1200 H1180 0.950 . S
C1200 C1199 1.414 . S
C1200 C1201 1.374 . S
C1201 H1181 0.950 . S
C1201 C1197 1.385 . S
C1201 C1200 1.374 . S
C1202 C1199 1.499 . S
C1202 C1203 1.373 . S
C1202 C1204 1.389 . S
C1203 H1182 0.950 . S
C1203 C1202 1.373 . S
C1203 C1219 1.377 . S
C1204 C1202 1.389 . S
C1204 C1205 1.524 . S
C1204 C1218 1.377 . S
C1205 C1204 1.524 . S
C1205 C1206 1.397 . S
C1205 C1210 1.363 . S
C1206 H1183 0.950 . S
C1206 C1205 1.397 . S
C1206 C1207 1.334 . S
C1207 H1184 0.950 . S
C1207 C1206 1.334 . S
C1207 C1208 1.287 . S
C1208 C1207 1.287 . S
C1208 C1209 1.524 . S
C1208 H1227 0.913 . S
C1209 H1185 0.950 . S
C1209 C1208 1.524 . S
C1209 C1210 1.415 . S
C1210 H1186 0.950 . S
C1210 C1205 1.363 . S
C1210 C1209 1.415 . S
C1211 H1187 0.951 . S
C1211 C1212 1.366 . S
C1211 C1213 1.388 . S
C1212 C1211 1.366 . S
C1212 C1216 1.385 . S
C1213 H1188 0.951 . S
C1213 C1211 1.388 . S
C1213 C1214 1.366 . S
C1214 C1213 1.366 . S
C1214 C1215 1.414 . S
C1214 C1217 1.499 . S
C1215 H1189 0.950 . S
C1215 C1214 1.414 . S
C1215 C1216 1.374 . S
C1216 H1190 0.950 . S
C1216 C1212 1.385 . S
C1216 C1215 1.374 . S
C1217 C1214 1.499 . S
C1217 C1218 1.373 . S
C1217 C1219 1.389 . S
C1218 H1191 0.950 . S
C1218 C1204 1.377 . S
C1218 C1217 1.373 . S
C1219 C1203 1.377 . S
C1219 C1217 1.389 . S
C1219 C1220 1.524 . S
C1220 C1219 1.524 . S
C1220 C1221 1.397 . S
C1220 C1225 1.363 . S
C1221 H1192 0.950 . S
C1221 C1220 1.397 . S
C1221 C1222 1.334 . S
C1222 H1193 0.950 . S
C1222 C1221 1.334 . S
C1222 C1223 1.287 . S
C1223 C1222 1.287 . S
C1223 C1224 1.524 . S
C1223 H1226 0.999 . S
C1224 H1194 0.950 . S
C1224 C1223 1.524 . S
C1224 C1225 1.415 . S
C1225 H1195 0.950 . S
C1225 C1220 1.363 . S
C1225 C1224 1.415 . S
H1226 C1223 0.999 . S
H1227 C1208 0.913 . S
H1228 C1246 0.951 . S
H1229 C1248 0.951 . S
H1230 C1250 0.950 . S
H1231 C1251 0.950 . S
H1232 C1253 0.950 . S
H1233 C1256 0.950 . S
H1234 C1257 0.950 . S
H1235 C1259 0.950 . S
H1236 C1260 0.950 . S
H1237 C1261 0.951 . S
H1238 C1263 0.951 . S
H1239 C1265 0.950 . S
H1240 C1266 0.950 . S
H1241 C1268 0.950 . S
H1242 C1271 0.950 . S
H1243 C1272 0.950 . S
H1244 C1274 0.950 . S
H1245 C1275 0.950 . S
C1246 H1228 0.951 . S
C1246 C1247 1.366 . S
C1246 C1248 1.388 . S
C1247 C1246 1.366 . S
C1247 C1251 1.385 . S
C1248 H1229 0.951 . S
C1248 C1246 1.388 . S
C1248 C1249 1.366 . S
C1249 C1248 1.366 . S
C1249 C1250 1.414 . S
C1249 C1252 1.499 . S
C1250 H1230 0.950 . S
C1250 C1249 1.414 . S
C1250 C1251 1.374 . S
C1251 H1231 0.950 . S
C1251 C1247 1.385 . S
C1251 C1250 1.374 . S
C1252 C1249 1.499 . S
C1252 C1253 1.373 . S
C1252 C1254 1.389 . S
C1253 H1232 0.950 . S
C1253 C1252 1.373 . S
C1253 C1269 1.377 . S
C1254 C1252 1.389 . S
C1254 C1255 1.524 . S
C1254 C1268 1.377 . S
C1255 C1254 1.524 . S
C1255 C1256 1.397 . S
C1255 C1260 1.363 . S
C1256 H1233 0.950 . S
C1256 C1255 1.397 . S
C1256 C1257 1.334 . S
C1257 H1234 0.950 . S
C1257 C1256 1.334 . S
C1257 C1258 1.287 . S
C1258 C1257 1.287 . S
C1258 C1259 1.524 . S
C1258 H1277 0.913 . S
C1259 H1235 0.950 . S
C1259 C1258 1.524 . S
C1259 C1260 1.415 . S
C1260 H1236 0.950 . S
C1260 C1255 1.363 . S
C1260 C1259 1.415 . S
C1261 H1237 0.951 . S
C1261 C1262 1.366 . S
C1261 C1263 1.388 . S
C1262 C1261 1.366 . S
C1262 C1266 1.385 . S
C1263 H1238 0.951 . S
C1263 C1261 1.388 . S
C1263 C1264 1.366 . S
C1264 C1263 1.366 . S
C1264 C1265 1.414 . S
C1264 C1267 1.499 . S
C1265 H1239 0.950 . S
C1265 C1264 1.414 . S
C1265 C1266 1.374 . S
C1266 H1240 0.950 . S
C1266 C1262 1.385 . S
C1266 C1265 1.374 . S
C1267 C1264 1.499 . S
C1267 C1268 1.373 . S
C1267 C1269 1.389 . S
C1268 H1241 0.950 . S
C1268 C1254 1.377 . S
C1268 C1267 1.373 . S
C1269 C1253 1.377 . S
C1269 C1267 1.389 . S
C1269 C1270 1.524 . S
C1270 C1269 1.524 . S
C1270 C1271 1.397 . S
C1270 C1275 1.363 . S
C1271 H1242 0.950 . S
C1271 C1270 1.397 . S
C1271 C1272 1.334 . S
C1272 H1243 0.950 . S
C1272 C1271 1.334 . S
C1272 C1273 1.287 . S
C1273 C1272 1.287 . S
C1273 C1274 1.524 . S
C1273 H1276 0.999 . S
C1274 H1244 0.950 . S
C1274 C1273 1.524 . S
C1274 C1275 1.415 . S
C1275 H1245 0.950 . S
C1275 C1270 1.363 . S
C1275 C1274 1.415 . S
H1276 C1273 0.999 . S
H1277 C1258 0.913 . S
H1278 C1296 0.951 . S
H1279 C1298 0.951 . S
H1280 C1300 0.950 . S
H1281 C1301 0.950 . S
H1282 C1303 0.950 . S
H1283 C1306 0.950 . S
H1284 C1307 0.950 . S
H1285 C1309 0.950 . S
H1286 C1310 0.950 . S
H1287 C1311 0.951 . S
H1288 C1313 0.951 . S
H1289 C1315 0.950 . S
H1290 C1316 0.950 . S
H1291 C1318 0.950 . S
H1292 C1321 0.950 . S
H1293 C1322 0.950 . S
H1294 C1324 0.950 . S
H1295 C1325 0.950 . S
C1296 H1278 0.951 . S
C1296 C1297 1.366 . S
C1296 C1298 1.388 . S
C1297 C1296 1.366 . S
C1297 C1301 1.385 . S
C1298 H1279 0.951 . S
C1298 C1296 1.388 . S
C1298 C1299 1.366 . S
C1299 C1298 1.366 . S
C1299 C1300 1.414 . S
C1299 C1302 1.499 . S
C1300 H1280 0.950 . S
C1300 C1299 1.414 . S
C1300 C1301 1.374 . S
C1301 H1281 0.950 . S
C1301 C1297 1.385 . S
C1301 C1300 1.374 . S
C1302 C1299 1.499 . S
C1302 C1303 1.373 . S
C1302 C1304 1.389 . S
C1303 H1282 0.950 . S
C1303 C1302 1.373 . S
C1303 C1319 1.377 . S
C1304 C1302 1.389 . S
C1304 C1305 1.524 . S
C1304 C1318 1.377 . S
C1305 C1304 1.524 . S
C1305 C1306 1.397 . S
C1305 C1310 1.363 . S
C1306 H1283 0.950 . S
C1306 C1305 1.397 . S
C1306 C1307 1.334 . S
C1307 H1284 0.950 . S
C1307 C1306 1.334 . S
C1307 C1308 1.287 . S
C1308 C1307 1.287 . S
C1308 C1309 1.524 . S
C1308 H1327 0.913 . S
C1309 H1285 0.950 . S
C1309 C1308 1.524 . S
C1309 C1310 1.415 . S
C1310 H1286 0.950 . S
C1310 C1305 1.363 . S
C1310 C1309 1.415 . S
C1311 H1287 0.951 . S
C1311 C1312 1.366 . S
C1311 C1313 1.388 . S
C1312 C1311 1.366 . S
C1312 C1316 1.385 . S
C1313 H1288 0.951 . S
C1313 C1311 1.388 . S
C1313 C1314 1.366 . S
C1314 C1313 1.366 . S
C1314 C1315 1.414 . S
C1314 C1317 1.499 . S
C1315 H1289 0.950 . S
C1315 C1314 1.414 . S
C1315 C1316 1.374 . S
C1316 H1290 0.950 . S
C1316 C1312 1.385 . S
C1316 C1315 1.374 . S
C1317 C1314 1.499 . S
C1317 C1318 1.373 . S
C1317 C1319 1.389 . S
C1318 H1291 0.950 . S
C1318 C1304 1.377 . S
C1318 C1317 1.373 . S
C1319 C1303 1.377 . S
C1319 C1317 1.389 . S
C1319 C1320 1.524 . S
C1320 C1319 1.524 . S
C1320 C1321 1.397 . S
C1320 C1325 1.363 . S
C1321 H1292 0.950 . S
C1321 C1320 1.397 . S
C1321 C1322 1.334 . S
C1322 H1293 0.950 . S
C1322 C1321 1.334 . S
C1322 C1323 1.287 . S
C1323 C1322 1.287 . S
C1323 C1324 1.524 . S
C1323 H1326 0.999 . S
C1324 H1294 0.950 . S
C1324 C1323 1.524 . S
C1324 C1325 1.415 . S
C1325 H1295 0.950 . S
C1325 C1320 1.363 . S
C1325 C1324 1.415 . S
H1326 C1323 0.999 . S
H1327 C1308 0.913 . S
H1328 C1346 0.951 . S
H1329 C1348 0.951 . S
H1330 C1350 0.950 . S
H1331 C1351 0.950 . S
H1332 C1353 0.950 . S
H1333 C1356 0.950 . S
H1334 C1357 0.950 . S
H1335 C1359 0.950 . S
H1336 C1360 0.950 . S
H1337 C1361 0.951 . S
H1338 C1363 0.951 . S
H1339 C1365 0.950 . S
H1340 C1366 0.950 . S
H1341 C1368 0.950 . S
H1342 C1371 0.950 . S
H1343 C1372 0.950 . S
H1344 C1374 0.950 . S
H1345 C1375 0.950 . S
C1346 H1328 0.951 . S
C1346 C1347 1.366 . S
C1346 C1348 1.388 . S
C1347 C1346 1.366 . S
C1347 C1351 1.385 . S
C1348 H1329 0.951 . S
C1348 C1346 1.388 . S
C1348 C1349 1.366 . S
C1349 C1348 1.366 . S
C1349 C1350 1.414 . S
C1349 C1352 1.499 . S
C1350 H1330 0.950 . S
C1350 C1349 1.414 . S
C1350 C1351 1.374 . S
C1351 H1331 0.950 . S
C1351 C1347 1.385 . S
C1351 C1350 1.374 . S
C1352 C1349 1.499 . S
C1352 C1353 1.373 . S
C1352 C1354 1.389 . S
C1353 H1332 0.950 . S
C1353 C1352 1.373 . S
C1353 C1369 1.377 . S
C1354 C1352 1.389 . S
C1354 C1355 1.524 . S
C1354 C1368 1.377 . S
C1355 C1354 1.524 . S
C1355 C1356 1.397 . S
C1355 C1360 1.363 . S
C1356 H1333 0.950 . S
C1356 C1355 1.397 . S
C1356 C1357 1.334 . S
C1357 H1334 0.950 . S
C1357 C1356 1.334 . S
C1357 C1358 1.287 . S
C1358 C1357 1.287 . S
C1358 C1359 1.524 . S
C1358 H1377 0.913 . S
C1359 H1335 0.950 . S
C1359 C1358 1.524 . S
C1359 C1360 1.415 . S
C1360 H1336 0.950 . S
C1360 C1355 1.363 . S
C1360 C1359 1.415 . S
C1361 H1337 0.951 . S
C1361 C1362 1.366 . S
C1361 C1363 1.388 . S
C1362 C1361 1.366 . S
C1362 C1366 1.385 . S
C1363 H1338 0.951 . S
C1363 C1361 1.388 . S
C1363 C1364 1.366 . S
C1364 C1363 1.366 . S
C1364 C1365 1.414 . S
C1364 C1367 1.499 . S
C1365 H1339 0.950 . S
C1365 C1364 1.414 . S
C1365 C1366 1.374 . S
C1366 H1340 0.950 . S
C1366 C1362 1.385 . S
C1366 C1365 1.374 . S
C1367 C1364 1.499 . S
C1367 C1368 1.373 . S
C1367 C1369 1.389 . S
C1368 H1341 0.950 . S
C1368 C1354 1.377 . S
C1368 C1367 1.373 . S
C1369 C1353 1.377 . S
C1369 C1367 1.389 . S
C1369 C1370 1.524 . S
C1370 C1369 1.524 . S
C1370 C1371 1.397 . S
C1370 C1375 1.363 . S
C1371 H1342 0.950 . S
C1371 C1370 1.397 . S
C1371 C1372 1.334 . S
C1372 H1343 0.950 . S
C1372 C1371 1.334 . S
C1372 C1373 1.287 . S
C1373 C1372 1.287 . S
C1373 C1374 1.524 . S
C1373 H1376 0.999 . S
C1374 H1344 0.950 . S
C1374 C1373 1.524 . S
C1374 C1375 1.415 . S
C1375 H1345 0.950 . S
C1375 C1370 1.363 . S
C1375 C1374 1.415 . S
H1376 C1373 0.999 . S
H1377 C1358 0.913 . S
H1378 C1396 0.951 . S
H1379 C1398 0.951 . S
H1380 C1400 0.950 . S
H1381 C1401 0.950 . S
H1382 C1403 0.950 . S
H1383 C1406 0.950 . S
H1384 C1407 0.950 . S
H1385 C1409 0.950 . S
H1386 C1410 0.950 . S
H1387 C1411 0.951 . S
H1388 C1413 0.951 . S
H1389 C1415 0.950 . S
H1390 C1416 0.950 . S
H1391 C1418 0.950 . S
H1392 C1421 0.950 . S
H1393 C1422 0.950 . S
H1394 C1424 0.950 . S
H1395 C1425 0.950 . S
C1396 H1378 0.951 . S
C1396 C1397 1.366 . S
C1396 C1398 1.388 . S
C1397 C1396 1.366 . S
C1397 C1401 1.385 . S
C1398 H1379 0.951 . S
C1398 C1396 1.388 . S
C1398 C1399 1.366 . S
C1399 C1398 1.366 . S
C1399 C1400 1.414 . S
C1399 C1402 1.499 . S
C1400 H1380 0.950 . S
C1400 C1399 1.414 . S
C1400 C1401 1.374 . S
C1401 H1381 0.950 . S
C1401 C1397 1.385 . S
C1401 C1400 1.374 . S
C1402 C1399 1.499 . S
C1402 C1403 1.373 . S
C1402 C1404 1.389 . S
C1403 H1382 0.950 . S
C1403 C1402 1.373 . S
C1403 C1419 1.377 . S
C1404 C1402 1.389 . S
C1404 C1405 1.524 . S
C1404 C1418 1.377 . S
C1405 C1404 1.524 . S
C1405 C1406 1.397 . S
C1405 C1410 1.363 . S
C1406 H1383 0.950 . S
C1406 C1405 1.397 . S
C1406 C1407 1.334 . S
C1407 H1384 0.950 . S
C1407 C1406 1.334 . S
C1407 C1408 1.287 . S
C1408 C1407 1.287 . S
C1408 C1409 1.524 . S
C1408 H1427 0.913 . S
C1409 H1385 0.950 . S
C1409 C1408 1.524 . S
C1409 C1410 1.415 . S
C1410 H1386 0.950 . S
C1410 C1405 1.363 . S
C1410 C1409 1.415 . S
C1411 H1387 0.951 . S
C1411 C1412 1.366 . S
C1411 C1413 1.388 . S
C1412 C1411 1.366 . S
C1412 C1416 1.385 . S
C1413 H1388 0.951 . S
C1413 C1411 1.388 . S
C1413 C1414 1.366 . S
C1414 C1413 1.366 . S
C1414 C1415 1.414 . S
C1414 C1417 1.499 . S
C1415 H1389 0.950 . S
C1415 C1414 1.414 . S
C1415 C1416 1.374 . S
C1416 H1390 0.950 . S
C1416 C1412 1.385 . S
C1416 C1415 1.374 . S
C1417 C1414 1.499 . S
C1417 C1418 1.373 . S
C1417 C1419 1.389 . S
C1418 H1391 0.950 . S
C1418 C1404 1.377 . S
C1418 C1417 1.373 . S
C1419 C1403 1.377 . S
C1419 C1417 1.389 . S
C1419 C1420 1.524 . S
C1420 C1419 1.524 . S
C1420 C1421 1.397 . S
C1420 C1425 1.363 . S
C1421 H1392 0.950 . S
C1421 C1420 1.397 . S
C1421 C1422 1.334 . S
C1422 H1393 0.950 . S
C1422 C1421 1.334 . S
C1422 C1423 1.287 . S
C1423 C1422 1.287 . S
C1423 C1424 1.524 . S
C1423 H1426 0.999 . S
C1424 H1394 0.950 . S
C1424 C1423 1.524 . S
C1424 C1425 1.415 . S
C1425 H1395 0.950 . S
C1425 C1420 1.363 . S
C1425 C1424 1.415 . S
H1426 C1423 0.999 . S
H1427 C1408 0.913 . S
H1428 C1446 0.951 . S
H1429 C1448 0.951 . S
H1430 C1450 0.950 . S
H1431 C1451 0.950 . S
H1432 C1453 0.950 . S
H1433 C1456 0.950 . S
H1434 C1457 0.950 . S
H1435 C1459 0.950 . S
H1436 C1460 0.950 . S
H1437 C1461 0.951 . S
H1438 C1463 0.951 . S
H1439 C1465 0.950 . S
H1440 C1466 0.950 . S
H1441 C1468 0.950 . S
H1442 C1471 0.950 . S
H1443 C1472 0.950 . S
H1444 C1474 0.950 . S
H1445 C1475 0.950 . S
C1446 H1428 0.951 . S
C1446 C1447 1.366 . S
C1446 C1448 1.388 . S
C1447 C1446 1.366 . S
C1447 C1451 1.385 . S
C1448 H1429 0.951 . S
C1448 C1446 1.388 . S
C1448 C1449 1.366 . S
C1449 C1448 1.366 . S
C1449 C1450 1.414 . S
C1449 C1452 1.499 . S
C1450 H1430 0.950 . S
C1450 C1449 1.414 . S
C1450 C1451 1.374 . S
C1451 H1431 0.950 . S
C1451 C1447 1.385 . S
C1451 C1450 1.374 . S
C1452 C1449 1.499 . S
C1452 C1453 1.373 . S
C1452 C1454 1.389 . S
C1453 H1432 0.950 . S
C1453 C1452 1.373 . S
C1453 C1469 1.377 . S
C1454 C1452 1.389 . S
C1454 C1455 1.524 . S
C1454 C1468 1.377 . S
C1455 C1454 1.524 . S
C1455 C1456 1.397 . S
C1455 C1460 1.363 . S
C1456 H1433 0.950 . S
C1456 C1455 1.397 . S
C1456 C1457 1.334 . S
C1457 H1434 0.950 . S
C1457 C1456 1.334 . S
C1457 C1458 1.287 . S
C1458 C1457 1.287 . S
C1458 C1459 1.524 . S
C1458 H1477 0.913 . S
C1459 H1435 0.950 . S
C1459 C1458 1.524 . S
C1459 C1460 1.415 . S
C1460 H1436 0.950 . S
C1460 C1455 1.363 . S
C1460 C1459 1.415 . S
C1461 H1437 0.951 . S
C1461 C1462 1.366 . S
C1461 C1463 1.388 . S
C1462 C1461 1.366 . S
C1462 C1466 1.385 . S
C1463 H1438 0.951 . S
C1463 C1461 1.388 . S
C1463 C1464 1.366 . S
C1464 C1463 1.366 . S
C1464 C1465 1.414 . S
C1464 C1467 1.499 . S
C1465 H1439 0.950 . S
C1465 C1464 1.414 . S
C1465 C1466 1.374 . S
C1466 H1440 0.950 . S
C1466 C1462 1.385 . S
C1466 C1465 1.374 . S
C1467 C1464 1.499 . S
C1467 C1468 1.373 . S
C1467 C1469 1.389 . S
C1468 H1441 0.950 . S
C1468 C1454 1.377 . S
C1468 C1467 1.373 . S
C1469 C1453 1.377 . S
C1469 C1467 1.389 . S
C1469 C1470 1.524 . S
C1470 C1469 1.524 . S
C1470 C1471 1.397 . S
C1470 C1475 1.363 . S
C1471 H1442 0.950 . S
C1471 C1470 1.397 . S
C1471 C1472 1.334 . S
C1472 H1443 0.950 . S
C1472 C1471 1.334 . S
C1472 C1473 1.287 . S
C1473 C1472 1.287 . S
C1473 C1474 1.524 . S
C1473 H1476 0.999 . S
C1474 H1444 0.950 . S
C1474 C1473 1.524 . S
C1474 C1475 1.415 . S
C1475 H1445 0.950 . S
C1475 C1470 1.363 . S
C1475 C1474 1.415 . S
H1476 C1473 0.999 . S
H1477 C1458 0.913 . S
H1478 C1496 0.951 . S
H1479 C1498 0.951 . S
H1480 C1500 0.950 . S
H1481 C1501 0.950 . S
H1482 C1503 0.950 . S
H1483 C1506 0.950 . S
H1484 C1507 0.950 . S
H1485 C1509 0.950 . S
H1486 C1510 0.950 . S
H1487 C1511 0.951 . S
H1488 C1513 0.951 . S
H1489 C1515 0.950 . S
H1490 C1516 0.950 . S
H1491 C1518 0.950 . S
H1492 C1521 0.950 . S
H1493 C1522 0.950 . S
H1494 C1524 0.950 . S
H1495 C1525 0.950 . S
C1496 H1478 0.951 . S
C1496 C1497 1.366 . S
C1496 C1498 1.388 . S
C1497 C1496 1.366 . S
C1497 C1501 1.385 . S
C1498 H1479 0.951 . S
C1498 C1496 1.388 . S
C1498 C1499 1.366 . S
C1499 C1498 1.366 . S
C1499 C1500 1.414 . S
C1499 C1502 1.499 . S
C1500 H1480 0.950 . S
C1500 C1499 1.414 . S
C1500 C1501 1.374 . S
C1501 H1481 0.950 . S
C1501 C1497 1.385 . S
C1501 C1500 1.374 . S
C1502 C1499 1.499 . S
C1502 C1503 1.373 . S
C1502 C1504 1.389 . S
C1503 H1482 0.950 . S
C1503 C1502 1.373 . S
C1503 C1519 1.377 . S
C1504 C1502 1.389 . S
C1504 C1505 1.524 . S
C1504 C1518 1.377 . S
C1505 C1504 1.524 . S
C1505 C1506 1.397 . S
C1505 C1510 1.363 . S
C1506 H1483 0.950 . S
C1506 C1505 1.397 . S
C1506 C1507 1.334 . S
C1507 H1484 0.950 . S
C1507 C1506 1.334 . S
C1507 C1508 1.287 . S
C1508 C1507 1.287 . S
C1508 C1509 1.524 . S
C1508 H1527 0.913 . S
C1509 H1485 0.950 . S
C1509 C1508 1.524 . S
C1509 C1510 1.415 . S
C1510 H1486 0.950 . S
C1510 C1505 1.363 . S
C1510 C1509 1.415 . S
C1511 H1487 0.951 . S
C1511 C1512 1.366 . S
C1511 C1513 1.388 . S
C1512 C1511 1.366 . S
C1512 C1516 1.385 . S
C1513 H1488 0.951 . S
C1513 C1511 1.388 . S
C1513 C1514 1.366 . S
C1514 C1513 1.366 . S
C1514 C1515 1.414 . S
C1514 C1517 1.499 . S
C1515 H1489 0.950 . S
C1515 C1514 1.414 . S
C1515 C1516 1.374 . S
C1516 H1490 0.950 . S
C1516 C1512 1.385 . S
C1516 C1515 1.374 . S
C1517 C1514 1.499 . S
C1517 C1518 1.373 . S
C1517 C1519 1.389 . S
C1518 H1491 0.950 . S
C1518 C1504 1.377 . S
C1518 C1517 1.373 . S
C1519 C1503 1.377 . S
C1519 C1517 1.389 . S
C1519 C1520 1.524 . S
C1520 C1519 1.524 . S
C1520 C1521 1.397 . S
C1520 C1525 1.363 . S
C1521 H1492 0.950 . S
C1521 C1520 1.397 . S
C1521 C1522 1.334 . S
C1522 H1493 0.950 . S
C1522 C1521 1.334 . S
C1522 C1523 1.287 . S
C1523 C1522 1.287 . S
C1523 C1524 1.524 . S
C1523 H1526 0.999 . S
C1524 H1494 0.950 . S
C1524 C1523 1.524 . S
C1524 C1525 1.415 . S
C1525 H1495 0.950 . S
C1525 C1520 1.363 . S
C1525 C1524 1.415 . S
H1526 C1523 0.999 . S
H1527 C1508 0.913 . S
H1528 C1546 0.951 . S
H1529 C1548 0.951 . S
H1530 C1550 0.950 . S
H1531 C1551 0.950 . S
H1532 C1553 0.950 . S
H1533 C1556 0.950 . S
H1534 C1557 0.950 . S
H1535 C1559 0.950 . S
H1536 C1560 0.950 . S
H1537 C1561 0.951 . S
H1538 C1563 0.951 . S
H1539 C1565 0.950 . S
H1540 C1566 0.950 . S
H1541 C1568 0.950 . S
H1542 C1571 0.950 . S
H1543 C1572 0.950 . S
H1544 C1574 0.950 . S
H1545 C1575 0.950 . S
C1546 H1528 0.951 . S
C1546 C1547 1.366 . S
C1546 C1548 1.388 . S
C1547 C1546 1.366 . S
C1547 C1551 1.385 . S
C1548 H1529 0.951 . S
C1548 C1546 1.388 . S
C1548 C1549 1.366 . S
C1549 C1548 1.366 . S
C1549 C1550 1.414 . S
C1549 C1552 1.499 . S
C1550 H1530 0.950 . S
C1550 C1549 1.414 . S
C1550 C1551 1.374 . S
C1551 H1531 0.950 . S
C1551 C1547 1.385 . S
C1551 C1550 1.374 . S
C1552 C1549 1.499 . S
C1552 C1553 1.373 . S
C1552 C1554 1.389 . S
C1553 H1532 0.950 . S
C1553 C1552 1.373 . S
C1553 C1569 1.377 . S
C1554 C1552 1.389 . S
C1554 C1555 1.524 . S
C1554 C1568 1.377 . S
C1555 C1554 1.524 . S
C1555 C1556 1.397 . S
C1555 C1560 1.363 . S
C1556 H1533 0.950 . S
C1556 C1555 1.397 . S
C1556 C1557 1.334 . S
C1557 H1534 0.950 . S
C1557 C1556 1.334 . S
C1557 C1558 1.287 . S
C1558 C1557 1.287 . S
C1558 C1559 1.524 . S
C1558 H1577 0.913 . S
C1559 H1535 0.950 . S
C1559 C1558 1.524 . S
C1559 C1560 1.415 . S
C1560 H1536 0.950 . S
C1560 C1555 1.363 . S
C1560 C1559 1.415 . S
C1561 H1537 0.951 . S
C1561 C1562 1.366 . S
C1561 C1563 1.388 . S
C1562 C1561 1.366 . S
C1562 C1566 1.385 . S
C1563 H1538 0.951 . S
C1563 C1561 1.388 . S
C1563 C1564 1.366 . S
C1564 C1563 1.366 . S
C1564 C1565 1.414 . S
C1564 C1567 1.499 . S
C1565 H1539 0.950 . S
C1565 C1564 1.414 . S
C1565 C1566 1.374 . S
C1566 H1540 0.950 . S
C1566 C1562 1.385 . S
C1566 C1565 1.374 . S
C1567 C1564 1.499 . S
C1567 C1568 1.373 . S
C1567 C1569 1.389 . S
C1568 H1541 0.950 . S
C1568 C1554 1.377 . S
C1568 C1567 1.373 . S
C1569 C1553 1.377 . S
C1569 C1567 1.389 . S
C1569 C1570 1.524 . S
C1570 C1569 1.524 . S
C1570 C1571 1.397 . S
C1570 C1575 1.363 . S
C1571 H1542 0.950 . S
C1571 C1570 1.397 . S
C1571 C1572 1.334 . S
C1572 H1543 0.950 . S
C1572 C1571 1.334 . S
C1572 C1573 1.287 . S
C1573 C1572 1.287 . S
C1573 C1574 1.524 . S
C1573 H1576 0.999 . S
C1574 H1544 0.950 . S
C1574 C1573 1.524 . S
C1574 C1575 1.415 . S
C1575 H1545 0.950 . S
C1575 C1570 1.363 . S
C1575 C1574 1.415 . S
H1576 C1573 0.999 . S
H1577 C1558 0.913 . S
H1578 C1596 0.951 . S
H1579 C1598 0.951 . S
H1580 C1600 0.950 . S
H1581 C1601 0.950 . S
H1582 C1603 0.950 . S
H1583 C1606 0.950 . S
H1584 C1607 0.950 . S
H1585 C1609 0.950 . S
H1586 C1610 0.950 . S
H1587 C1611 0.951 . S
H1588 C1613 0.951 . S
H1589 C1615 0.950 . S
H1590 C1616 0.950 . S
H1591 C1618 0.950 . S
H1592 C1621 0.950 . S
H1593 C1622 0.950 . S
H1594 C1624 0.950 . S
H1595 C1625 0.950 . S
C1596 H1578 0.951 . S
C1596 C1597 1.366 . S
C1596 C1598 1.388 . S
C1597 C1596 1.366 . S
C1597 C1601 1.385 . S
C1598 H1579 0.951 . S
C1598 C1596 1.388 . S
C1598 C1599 1.366 . S
C1599 C1598 1.366 . S
C1599 C1600 1.414 . S
C1599 C1602 1.499 . S
C1600 H1580 0.950 . S
C1600 C1599 1.414 . S
C1600 C1601 1.374 . S
C1601 H1581 0.950 . S
C1601 C1597 1.385 . S
C1601 C1600 1.374 . S
C1602 C1599 1.499 . S
C1602 C1603 1.373 . S
C1602 C1604 1.389 . S
C1603 H1582 0.950 . S
C1603 C1602 1.373 . S
C1603 C1619 1.377 . S
C1604 C1602 1.389 . S
C1604 C1605 1.524 . S
C1604 C1618 1.377 . S
C1605 C1604 1.524 . S
C1605 C1606 1.397 . S
C1605 C1610 1.363 . S
C1606 H1583 0.950 . S
C1606 C1605 1.397 . S
C1606 C1607 1.334 . S
C1607 H1584 0.950 . S
C1607 C1606 1.334 . S
C1607 C1608 1.287 . S
C1608 C1607 1.287 . S
C1608 C1609 1.524 . S
C1608 H1627 0.913 . S
C1609 H1585 0.950 . S
C1609 C1608 1.524 . S
C1609 C1610 1.415 . S
C1610 H1586 0.950 . S
C1610 C1605 1.363 . S
C1610 C1609 1.415 . S
C1611 H1587 0.951 . S
C1611 C1612 1.366 . S
C1611 C1613 1.388 . S
C1612 C1611 1.366 . S
C1612 C1616 1.385 . S
C1613 H1588 0.951 . S
C1613 C1611 1.388 . S
C1613 C1614 1.366 . S
C1614 C1613 1.366 . S
C1614 C1615 1.414 . S
C1614 C1617 1.499 . S
C1615 H1589 0.950 . S
C1615 C1614 1.414 . S
C1615 C1616 1.374 . S
C1616 H1590 0.950 . S
C1616 C1612 1.385 . S
C1616 C1615 1.374 . S
C1617 C1614 1.499 . S
C1617 C1618 1.373 . S
C1617 C1619 1.389 . S
C1618 H1591 0.950 . S
C1618 C1604 1.377 . S
C1618 C1617 1.373 . S
C1619 C1603 1.377 . S
C1619 C1617 1.389 . S
C1619 C1620 1.524 . S
C1620 C1619 1.524 . S
C1620 C1621 1.397 . S
C1620 C1625 1.363 . S
C1621 H1592 0.950 . S
C1621 C1620 1.397 . S
C1621 C1622 1.334 . S
C1622 H1593 0.950 . S
C1622 C1621 1.334 . S
C1622 C1623 1.287 . S
C1623 C1622 1.287 . S
C1623 C1624 1.524 . S
C1623 H1626 0.999 . S
C1624 H1594 0.950 . S
C1624 C1623 1.524 . S
C1624 C1625 1.415 . S
C1625 H1595 0.950 . S
C1625 C1620 1.363 . S
C1625 C1624 1.415 . S
H1626 C1623 0.999 . S
H1627 C1608 0.913 . S
H1628 C1646 0.951 . S
H1629 C1648 0.951 . S
H1630 C1650 0.950 . S
H1631 C1651 0.950 . S
H1632 C1653 0.950 . S
H1633 C1656 0.950 . S
H1634 C1657 0.950 . S
H1635 C1659 0.950 . S
H1636 C1660 0.950 . S
H1637 C1661 0.951 . S
H1638 C1663 0.951 . S
H1639 C1665 0.950 . S
H1640 C1666 0.950 . S
H1641 C1668 0.950 . S
H1642 C1671 0.950 . S
H1643 C1672 0.950 . S
H1644 C1674 0.950 . S
H1645 C1675 0.950 . S
C1646 H1628 0.951 . S
C1646 C1647 1.366 . S
C1646 C1648 1.388 . S
C1647 C1646 1.366 . S
C1647 C1651 1.385 . S
C1648 H1629 0.951 . S
C1648 C1646 1.388 . S
C1648 C1649 1.366 . S
C1649 C1648 1.366 . S
C1649 C1650 1.414 . S
C1649 C1652 1.499 . S
C1650 H1630 0.950 . S
C1650 C1649 1.414 . S
C1650 C1651 1.374 . S
C1651 H1631 0.950 . S
C1651 C1647 1.385 . S
C1651 C1650 1.374 . S
C1652 C1649 1.499 . S
C1652 C1653 1.373 . S
C1652 C1654 1.389 . S
C1653 H1632 0.950 . S
C1653 C1652 1.373 . S
C1653 C1669 1.377 . S
C1654 C1652 1.389 . S
C1654 C1655 1.524 . S
C1654 C1668 1.377 . S
C1655 C1654 1.524 . S
C1655 C1656 1.397 . S
C1655 C1660 1.363 . S
C1656 H1633 0.950 . S
C1656 C1655 1.397 . S
C1656 C1657 1.334 . S
C1657 H1634 0.950 . S
C1657 C1656 1.334 . S
C1657 C1658 1.287 . S
C1658 C1657 1.287 . S
C1658 C1659 1.524 . S
C1658 H1677 0.913 . S
C1659 H1635 0.950 . S
C1659 C1658 1.524 . S
C1659 C1660 1.415 . S
C1660 H1636 0.950 . S
C1660 C1655 1.363 . S
C1660 C1659 1.415 . S
C1661 H1637 0.951 . S
C1661 C1662 1.366 . S
C1661 C1663 1.388 . S
C1662 C1661 1.366 . S
C1662 C1666 1.385 . S
C1663 H1638 0.951 . S
C1663 C1661 1.388 . S
C1663 C1664 1.366 . S
C1664 C1663 1.366 . S
C1664 C1665 1.414 . S
C1664 C1667 1.499 . S
C1665 H1639 0.950 . S
C1665 C1664 1.414 . S
C1665 C1666 1.374 . S
C1666 H1640 0.950 . S
C1666 C1662 1.385 . S
C1666 C1665 1.374 . S
C1667 C1664 1.499 . S
C1667 C1668 1.373 . S
C1667 C1669 1.389 . S
C1668 H1641 0.950 . S
C1668 C1654 1.377 . S
C1668 C1667 1.373 . S
C1669 C1653 1.377 . S
C1669 C1667 1.389 . S
C1669 C1670 1.524 . S
C1670 C1669 1.524 . S
C1670 C1671 1.397 . S
C1670 C1675 1.363 . S
C1671 H1642 0.950 . S
C1671 C1670 1.397 . S
C1671 C1672 1.334 . S
C1672 H1643 0.950 . S
C1672 C1671 1.334 . S
C1672 C1673 1.287 . S
C1673 C1672 1.287 . S
C1673 C1674 1.524 . S
C1673 H1676 0.999 . S
C1674 H1644 0.950 . S
C1674 C1673 1.524 . S
C1674 C1675 1.415 . S
C1675 H1645 0.950 . S
C1675 C1670 1.363 . S
C1675 C1674 1.415 . S
H1676 C1673 0.999 . S
H1677 C1658 0.913 . S
H1678 C1696 0.951 . S
H1679 C1698 0.951 . S
H1680 C1700 0.950 . S
H1681 C1701 0.950 . S
H1682 C1703 0.950 . S
H1683 C1706 0.950 . S
H1684 C1707 0.950 . S
H1685 C1709 0.950 . S
H1686 C1710 0.950 . S
H1687 C1711 0.951 . S
H1688 C1713 0.951 . S
H1689 C1715 0.950 . S
H1690 C1716 0.950 . S
H1691 C1718 0.950 . S
H1692 C1721 0.950 . S
H1693 C1722 0.950 . S
H1694 C1724 0.950 . S
H1695 C1725 0.950 . S
C1696 H1678 0.951 . S
C1696 C1697 1.366 . S
C1696 C1698 1.388 . S
C1697 C1696 1.366 . S
C1697 C1701 1.385 . S
C1698 H1679 0.951 . S
C1698 C1696 1.388 . S
C1698 C1699 1.366 . S
C1699 C1698 1.366 . S
C1699 C1700 1.414 . S
C1699 C1702 1.499 . S
C1700 H1680 0.950 . S
C1700 C1699 1.414 . S
C1700 C1701 1.374 . S
C1701 H1681 0.950 . S
C1701 C1697 1.385 . S
C1701 C1700 1.374 . S
C1702 C1699 1.499 . S
C1702 C1703 1.373 . S
C1702 C1704 1.389 . S
C1703 H1682 0.950 . S
C1703 C1702 1.373 . S
C1703 C1719 1.377 . S
C1704 C1702 1.389 . S
C1704 C1705 1.524 . S
C1704 C1718 1.377 . S
C1705 C1704 1.524 . S
C1705 C1706 1.397 . S
C1705 C1710 1.363 . S
C1706 H1683 0.950 . S
C1706 C1705 1.397 . S
C1706 C1707 1.334 . S
C1707 H1684 0.950 . S
C1707 C1706 1.334 . S
C1707 C1708 1.287 . S
C1708 C1707 1.287 . S
C1708 C1709 1.524 . S
C1708 H1727 0.913 . S
C1709 H1685 0.950 . S
C1709 C1708 1.524 . S
C1709 C1710 1.415 . S
C1710 H1686 0.950 . S
C1710 C1705 1.363 . S
C1710 C1709 1.415 . S
C1711 H1687 0.951 . S
C1711 C1712 1.366 . S
C1711 C1713 1.388 . S
C1712 C1711 1.366 . S
C1712 C1716 1.385 . S
C1713 H1688 0.951 . S
C1713 C1711 1.388 . S
C1713 C1714 1.366 . S
C1714 C1713 1.366 . S
C1714 C1715 1.414 . S
C1714 C1717 1.499 . S
C1715 H1689 0.950 . S
C1715 C1714 1.414 . S
C1715 C1716 1.374 . S
C1716 H1690 0.950 . S
C1716 C1712 1.385 . S
C1716 C1715 1.374 . S
C1717 C1714 1.499 . S
C1717 C1718 1.373 . S
C1717 C1719 1.389 . S
C1718 H1691 0.950 . S
C1718 C1704 1.377 . S
C1718 C1717 1.373 . S
C1719 C1703 1.377 . S
C1719 C1717 1.389 . S
C1719 C1720 1.524 . S
C1720 C1719 1.524 . S
C1720 C1721 1.397 . S
C1720 C1725 1.363 . S
C1721 H1692 0.950 . S
C1721 C1720 1.397 . S
C1721 C1722 1.334 . S
C1722 H1693 0.950 . S
C1722 C1721 1.334 . S
C1722 C1723 1.287 . S
C1723 C1722 1.287 . S
C1723 C1724 1.524 . S
C1723 H1726 0.999 . S
C1724 H1694 0.950 . S
C1724 C1723 1.524 . S
C1724 C1725 1.415 . S
C1725 H1695 0.950 . S
C1725 C1720 1.363 . S
C1725 C1724 1.415 . S
H1726 C1723 0.999 . S
H1727 C1708 0.913 . S
H1728 C1746 0.951 . S
H1729 C1748 0.951 . S
H1730 C1750 0.950 . S
H1731 C1751 0.950 . S
H1732 C1753 0.950 . S
H1733 C1756 0.950 . S
H1734 C1757 0.950 . S
H1735 C1759 0.950 . S
H1736 C1760 0.950 . S
H1737 C1761 0.951 . S
H1738 C1763 0.951 . S
H1739 C1765 0.950 . S
H1740 C1766 0.950 . S
H1741 C1768 0.950 . S
H1742 C1771 0.950 . S
H1743 C1772 0.950 . S
H1744 C1774 0.950 . S
H1745 C1775 0.950 . S
C1746 H1728 0.951 . S
C1746 C1747 1.366 . S
C1746 C1748 1.388 . S
C1747 C1746 1.366 . S
C1747 C1751 1.385 . S
C1748 H1729 0.951 . S
C1748 C1746 1.388 . S
C1748 C1749 1.366 . S
C1749 C1748 1.366 . S
C1749 C1750 1.414 . S
C1749 C1752 1.499 . S
C1750 H1730 0.950 . S
C1750 C1749 1.414 . S
C1750 C1751 1.374 . S
C1751 H1731 0.950 . S
C1751 C1747 1.385 . S
C1751 C1750 1.374 . S
C1752 C1749 1.499 . S
C1752 C1753 1.373 . S
C1752 C1754 1.389 . S
C1753 H1732 0.950 . S
C1753 C1752 1.373 . S
C1753 C1769 1.377 1_455 S
C1754 C1752 1.389 . S
C1754 C1755 1.524 . S
C1754 C1768 1.377 1_455 S
C1755 C1754 1.524 . S
C1755 C1756 1.397 . S
C1755 C1760 1.363 . S
C1756 H1733 0.950 . S
C1756 C1755 1.397 . S
C1756 C1757 1.334 . S
C1757 H1734 0.950 . S
C1757 C1756 1.334 . S
C1757 C1758 1.287 . S
C1758 C1757 1.287 . S
C1758 C1759 1.524 . S
C1758 H1777 0.913 . S
C1759 H1735 0.950 . S
C1759 C1758 1.524 . S
C1759 C1760 1.415 . S
C1760 H1736 0.950 . S
C1760 C1755 1.363 . S
C1760 C1759 1.415 . S
C1761 H1737 0.951 . S
C1761 C1762 1.366 . S
C1761 C1763 1.388 . S
C1762 C1761 1.366 . S
C1762 C1766 1.385 . S
C1763 H1738 0.951 . S
C1763 C1761 1.388 . S
C1763 C1764 1.366 . S
C1764 C1763 1.366 . S
C1764 C1765 1.414 . S
C1764 C1767 1.499 . S
C1765 H1739 0.950 . S
C1765 C1764 1.414 . S
C1765 C1766 1.374 . S
C1766 H1740 0.950 . S
C1766 C1762 1.385 . S
C1766 C1765 1.374 . S
C1767 C1764 1.499 . S
C1767 C1768 1.373 . S
C1767 C1769 1.389 . S
C1768 H1741 0.950 . S
C1768 C1754 1.377 1_655 S
C1768 C1767 1.373 . S
C1769 C1753 1.377 1_655 S
C1769 C1767 1.389 . S
C1769 C1770 1.524 . S
C1770 C1769 1.524 . S
C1770 C1771 1.397 . S
C1770 C1775 1.363 . S
C1771 H1742 0.950 . S
C1771 C1770 1.397 . S
C1771 C1772 1.334 . S
C1772 H1743 0.950 . S
C1772 C1771 1.334 . S
C1772 C1773 1.287 . S
C1773 C1772 1.287 . S
C1773 C1774 1.524 . S
C1773 H1776 0.999 . S
C1774 H1744 0.950 . S
C1774 C1773 1.524 . S
C1774 C1775 1.415 . S
C1775 H1745 0.950 . S
C1775 C1770 1.363 . S
C1775 C1774 1.415 . S
H1776 C1773 0.999 . S
H1777 C1758 0.913 . S
H1778 C1796 0.951 . S
H1779 C1798 0.951 . S
H1780 C1800 0.950 . S
H1781 C1801 0.950 . S
H1782 C1803 0.950 . S
H1783 C1806 0.950 . S
H1784 C1807 0.950 . S
H1785 C1809 0.950 . S
H1786 C1810 0.950 . S
H1787 C1811 0.951 . S
H1788 C1813 0.951 . S
H1789 C1815 0.950 . S
H1790 C1816 0.950 . S
H1791 C1818 0.950 . S
H1792 C1821 0.950 . S
H1793 C1822 0.950 . S
H1794 C1824 0.950 . S
H1795 C1825 0.950 . S
C1796 H1778 0.951 . S
C1796 C1797 1.366 . S
C1796 C1798 1.388 . S
C1797 C1796 1.366 . S
C1797 C1801 1.385 . S
C1798 H1779 0.951 . S
C1798 C1796 1.388 . S
C1798 C1799 1.366 . S
C1799 C1798 1.366 . S
C1799 C1800 1.414 . S
C1799 C1802 1.499 . S
C1800 H1780 0.950 . S
C1800 C1799 1.414 . S
C1800 C1801 1.374 . S
C1801 H1781 0.950 . S
C1801 C1797 1.385 . S
C1801 C1800 1.374 . S
C1802 C1799 1.499 . S
C1802 C1803 1.373 . S
C1802 C1804 1.389 . S
C1803 H1782 0.950 . S
C1803 C1802 1.373 . S
C1803 C1819 1.377 . S
C1804 C1802 1.389 . S
C1804 C1805 1.524 . S
C1804 C1818 1.377 . S
C1805 C1804 1.524 . S
C1805 C1806 1.397 . S
C1805 C1810 1.363 . S
C1806 H1783 0.950 . S
C1806 C1805 1.397 . S
C1806 C1807 1.334 . S
C1807 H1784 0.950 . S
C1807 C1806 1.334 . S
C1807 C1808 1.287 . S
C1808 C1807 1.287 . S
C1808 C1809 1.524 . S
C1808 H1827 0.913 . S
C1809 H1785 0.950 . S
C1809 C1808 1.524 . S
C1809 C1810 1.415 . S
C1810 H1786 0.950 . S
C1810 C1805 1.363 . S
C1810 C1809 1.415 . S
C1811 H1787 0.951 . S
C1811 C1812 1.366 . S
C1811 C1813 1.388 . S
C1812 C1811 1.366 . S
C1812 C1816 1.385 . S
C1813 H1788 0.951 . S
C1813 C1811 1.388 . S
C1813 C1814 1.366 . S
C1814 C1813 1.366 . S
C1814 C1815 1.414 . S
C1814 C1817 1.499 . S
C1815 H1789 0.950 . S
C1815 C1814 1.414 . S
C1815 C1816 1.374 . S
C1816 H1790 0.950 . S
C1816 C1812 1.385 . S
C1816 C1815 1.374 . S
C1817 C1814 1.499 . S
C1817 C1818 1.373 . S
C1817 C1819 1.389 . S
C1818 H1791 0.950 . S
C1818 C1804 1.377 . S
C1818 C1817 1.373 . S
C1819 C1803 1.377 . S
C1819 C1817 1.389 . S
C1819 C1820 1.524 . S
C1820 C1819 1.524 . S
C1820 C1821 1.397 . S
C1820 C1825 1.363 . S
C1821 H1792 0.950 . S
C1821 C1820 1.397 . S
C1821 C1822 1.334 . S
C1822 H1793 0.950 . S
C1822 C1821 1.334 . S
C1822 C1823 1.287 . S
C1823 C1822 1.287 . S
C1823 C1824 1.524 . S
C1823 H1826 0.999 . S
C1824 H1794 0.950 . S
C1824 C1823 1.524 . S
C1824 C1825 1.415 . S
C1825 H1795 0.950 . S
C1825 C1820 1.363 . S
C1825 C1824 1.415 . S
H1826 C1823 0.999 . S
H1827 C1808 0.913 . S
H1828 C1846 0.951 . S
H1829 C1848 0.951 . S
H1830 C1850 0.950 . S
H1831 C1851 0.950 . S
H1832 C1853 0.950 . S
H1833 C1856 0.950 . S
H1834 C1857 0.950 . S
H1835 C1859 0.950 . S
H1836 C1860 0.950 . S
H1837 C1861 0.951 . S
H1838 C1863 0.951 . S
H1839 C1865 0.950 . S
H1840 C1866 0.950 . S
H1841 C1868 0.950 . S
H1842 C1871 0.950 . S
H1843 C1872 0.950 . S
H1844 C1874 0.950 . S
H1845 C1875 0.950 . S
C1846 H1828 0.951 . S
C1846 C1847 1.366 . S
C1846 C1848 1.388 . S
C1847 C1846 1.366 . S
C1847 C1851 1.385 . S
C1848 H1829 0.951 . S
C1848 C1846 1.388 . S
C1848 C1849 1.366 . S
C1849 C1848 1.366 . S
C1849 C1850 1.414 . S
C1849 C1852 1.499 . S
C1850 H1830 0.950 . S
C1850 C1849 1.414 . S
C1850 C1851 1.374 . S
C1851 H1831 0.950 . S
C1851 C1847 1.385 . S
C1851 C1850 1.374 . S
C1852 C1849 1.499 . S
C1852 C1853 1.373 . S
C1852 C1854 1.389 . S
C1853 H1832 0.950 . S
C1853 C1852 1.373 . S
C1853 C1869 1.377 . S
C1854 C1852 1.389 . S
C1854 C1855 1.524 . S
C1854 C1868 1.377 . S
C1855 C1854 1.524 . S
C1855 C1856 1.397 . S
C1855 C1860 1.363 . S
C1856 H1833 0.950 . S
C1856 C1855 1.397 . S
C1856 C1857 1.334 . S
C1857 H1834 0.950 . S
C1857 C1856 1.334 . S
C1857 C1858 1.287 . S
C1858 C1857 1.287 . S
C1858 C1859 1.524 . S
C1858 H1877 0.913 . S
C1859 H1835 0.950 . S
C1859 C1858 1.524 . S
C1859 C1860 1.415 . S
C1860 H1836 0.950 . S
C1860 C1855 1.363 . S
C1860 C1859 1.415 . S
C1861 H1837 0.951 . S
C1861 C1862 1.366 . S
C1861 C1863 1.388 . S
C1862 C1861 1.366 . S
C1862 C1866 1.385 . S
C1863 H1838 0.951 . S
C1863 C1861 1.388 . S
C1863 C1864 1.366 . S
C1864 C1863 1.366 . S
C1864 C1865 1.414 . S
C1864 C1867 1.499 . S
C1865 H1839 0.950 . S
C1865 C1864 1.414 . S
C1865 C1866 1.374 . S
C1866 H1840 0.950 . S
C1866 C1862 1.385 . S
C1866 C1865 1.374 . S
C1867 C1864 1.499 . S
C1867 C1868 1.373 . S
C1867 C1869 1.389 . S
C1868 H1841 0.950 . S
C1868 C1854 1.377 . S
C1868 C1867 1.373 . S
C1869 C1853 1.377 . S
C1869 C1867 1.389 . S
C1869 C1870 1.524 . S
C1870 C1869 1.524 . S
C1870 C1871 1.397 . S
C1870 C1875 1.363 . S
C1871 H1842 0.950 . S
C1871 C1870 1.397 . S
C1871 C1872 1.334 . S
C1872 H1843 0.950 . S
C1872 C1871 1.334 . S
C1872 C1873 1.287 . S
C1873 C1872 1.287 . S
C1873 C1874 1.524 . S
C1873 H1876 0.999 . S
C1874 H1844 0.950 . S
C1874 C1873 1.524 . S
C1874 C1875 1.415 . S
C1875 H1845 0.950 . S
C1875 C1870 1.363 . S
C1875 C1874 1.415 . S
H1876 C1873 0.999 . S
H1877 C1858 0.913 . S
H1878 C1896 0.951 . S
H1879 C1898 0.951 . S
H1880 C1900 0.950 . S
H1881 C1901 0.950 . S
H1882 C1903 0.950 . S
H1883 C1906 0.950 . S
H1884 C1907 0.950 . S
H1885 C1909 0.950 . S
H1886 C1910 0.950 . S
H1887 C1911 0.951 . S
H1888 C1913 0.951 . S
H1889 C1915 0.950 . S
H1890 C1916 0.950 . S
H1891 C1918 0.950 . S
H1892 C1921 0.950 . S
H1893 C1922 0.950 . S
H1894 C1924 0.950 . S
H1895 C1925 0.950 . S
C1896 H1878 0.951 . S
C1896 C1897 1.366 . S
C1896 C1898 1.388 . S
C1897 C1896 1.366 . S
C1897 C1901 1.385 . S
C1898 H1879 0.951 . S
C1898 C1896 1.388 . S
C1898 C1899 1.366 . S
C1899 C1898 1.366 . S
C1899 C1900 1.414 . S
C1899 C1902 1.499 . S
C1900 H1880 0.950 . S
C1900 C1899 1.414 . S
C1900 C1901 1.374 . S
C1901 H1881 0.950 . S
C1901 C1897 1.385 . S
C1901 C1900 1.374 . S
C1902 C1899 1.499 . S
C1902 C1903 1.373 . S
C1902 C1904 1.389 . S
C1903 H1882 0.950 . S
C1903 C1902 1.373 . S
C1903 C1919 1.377 1_565 S
C1904 C1902 1.389 . S
C1904 C1905 1.524 . S
C1904 C1918 1.377 1_565 S
C1905 C1904 1.524 . S
C1905 C1906 1.397 . S
C1905 C1910 1.363 . S
C1906 H1883 0.950 . S
C1906 C1905 1.397 . S
C1906 C1907 1.334 . S
C1907 H1884 0.950 . S
C1907 C1906 1.334 . S
C1907 C1908 1.287 . S
C1908 C1907 1.287 . S
C1908 C1909 1.524 . S
C1908 H1927 0.913 . S
C1909 H1885 0.950 . S
C1909 C1908 1.524 . S
C1909 C1910 1.415 . S
C1910 H1886 0.950 . S
C1910 C1905 1.363 . S
C1910 C1909 1.415 . S
C1911 H1887 0.951 . S
C1911 C1912 1.366 . S
C1911 C1913 1.388 . S
C1912 C1911 1.366 . S
C1912 C1916 1.385 . S
C1913 H1888 0.951 . S
C1913 C1911 1.388 . S
C1913 C1914 1.366 . S
C1914 C1913 1.366 . S
C1914 C1915 1.414 . S
C1914 C1917 1.499 . S
C1915 H1889 0.950 . S
C1915 C1914 1.414 . S
C1915 C1916 1.374 . S
C1916 H1890 0.950 . S
C1916 C1912 1.385 . S
C1916 C1915 1.374 . S
C1917 C1914 1.499 . S
C1917 C1918 1.373 . S
C1917 C1919 1.389 . S
C1918 H1891 0.950 . S
C1918 C1904 1.377 1_545 S
C1918 C1917 1.373 . S
C1919 C1903 1.377 1_545 S
C1919 C1917 1.389 . S
C1919 C1920 1.524 . S
C1920 C1919 1.524 . S
C1920 C1921 1.397 . S
C1920 C1925 1.363 . S
C1921 H1892 0.950 . S
C1921 C1920 1.397 . S
C1921 C1922 1.334 . S
C1922 H1893 0.950 . S
C1922 C1921 1.334 . S
C1922 C1923 1.287 . S
C1923 C1922 1.287 . S
C1923 C1924 1.524 . S
C1923 H1926 0.999 . S
C1924 H1894 0.950 . S
C1924 C1923 1.524 . S
C1924 C1925 1.415 . S
C1925 H1895 0.950 . S
C1925 C1920 1.363 . S
C1925 C1924 1.415 . S
H1926 C1923 0.999 . S
H1927 C1908 0.913 . S
H1928 C1946 0.951 . S
H1929 C1948 0.951 . S
H1930 C1950 0.950 . S
H1931 C1951 0.950 . S
H1932 C1953 0.950 . S
H1933 C1956 0.950 . S
H1934 C1957 0.950 . S
H1935 C1959 0.950 . S
H1936 C1960 0.950 . S
H1937 C1961 0.951 . S
H1938 C1963 0.951 . S
H1939 C1965 0.950 . S
H1940 C1966 0.950 . S
H1941 C1968 0.950 . S
H1942 C1971 0.950 . S
H1943 C1972 0.950 . S
H1944 C1974 0.950 . S
H1945 C1975 0.950 . S
C1946 H1928 0.951 . S
C1946 C1947 1.366 . S
C1946 C1948 1.388 . S
C1947 C1946 1.366 . S
C1947 C1951 1.385 . S
C1948 H1929 0.951 . S
C1948 C1946 1.388 . S
C1948 C1949 1.366 . S
C1949 C1948 1.366 . S
C1949 C1950 1.414 . S
C1949 C1952 1.499 . S
C1950 H1930 0.950 . S
C1950 C1949 1.414 . S
C1950 C1951 1.374 . S
C1951 H1931 0.950 . S
C1951 C1947 1.385 . S
C1951 C1950 1.374 . S
C1952 C1949 1.499 . S
C1952 C1953 1.373 . S
C1952 C1954 1.389 . S
C1953 H1932 0.950 . S
C1953 C1952 1.373 . S
C1953 C1969 1.377 1_655 S
C1954 C1952 1.389 . S
C1954 C1955 1.524 . S
C1954 C1968 1.377 1_655 S
C1955 C1954 1.524 . S
C1955 C1956 1.397 . S
C1955 C1960 1.363 . S
C1956 H1933 0.950 . S
C1956 C1955 1.397 . S
C1956 C1957 1.334 . S
C1957 H1934 0.950 . S
C1957 C1956 1.334 . S
C1957 C1958 1.287 . S
C1958 C1957 1.287 . S
C1958 C1959 1.524 . S
C1958 H1977 0.913 . S
C1959 H1935 0.950 . S
C1959 C1958 1.524 . S
C1959 C1960 1.415 . S
C1960 H1936 0.950 . S
C1960 C1955 1.363 . S
C1960 C1959 1.415 . S
C1961 H1937 0.951 . S
C1961 C1962 1.366 . S
C1961 C1963 1.388 . S
C1962 C1961 1.366 . S
C1962 C1966 1.385 . S
C1963 H1938 0.951 . S
C1963 C1961 1.388 . S
C1963 C1964 1.366 . S
C1964 C1963 1.366 . S
C1964 C1965 1.414 . S
C1964 C1967 1.499 . S
C1965 H1939 0.950 . S
C1965 C1964 1.414 . S
C1965 C1966 1.374 . S
C1966 H1940 0.950 . S
C1966 C1962 1.385 . S
C1966 C1965 1.374 . S
C1967 C1964 1.499 . S
C1967 C1968 1.373 . S
C1967 C1969 1.389 . S
C1968 H1941 0.950 . S
C1968 C1954 1.377 1_455 S
C1968 C1967 1.373 . S
C1969 C1953 1.377 1_455 S
C1969 C1967 1.389 . S
C1969 C1970 1.524 . S
C1970 C1969 1.524 . S
C1970 C1971 1.397 . S
C1970 C1975 1.363 . S
C1971 H1942 0.950 . S
C1971 C1970 1.397 . S
C1971 C1972 1.334 . S
C1972 H1943 0.950 . S
C1972 C1971 1.334 . S
C1972 C1973 1.287 . S
C1973 C1972 1.287 . S
C1973 C1974 1.524 . S
C1973 H1976 0.999 . S
C1974 H1944 0.950 . S
C1974 C1973 1.524 . S
C1974 C1975 1.415 . S
C1975 H1945 0.950 . S
C1975 C1970 1.363 . S
C1975 C1974 1.415 . S
H1976 C1973 0.999 . S
H1977 C1958 0.913 . S
H1978 C1996 0.951 . S
H1979 C1998 0.951 . S
H1980 C2000 0.950 . S
H1981 C2001 0.950 . S
H1982 C2003 0.950 . S
H1983 C2006 0.950 . S
H1984 C2007 0.950 . S
H1985 C2009 0.950 . S
H1986 C2010 0.950 . S
H1987 C2011 0.951 . S
H1988 C2013 0.951 . S
H1989 C2015 0.950 . S
H1990 C2016 0.950 . S
H1991 C2018 0.950 . S
H1992 C2021 0.950 . S
H1993 C2022 0.950 . S
H1994 C2024 0.950 . S
H1995 C2025 0.950 . S
C1996 H1978 0.951 . S
C1996 C1997 1.366 . S
C1996 C1998 1.388 . S
C1997 C1996 1.366 . S
C1997 C2001 1.385 . S
C1998 H1979 0.951 . S
C1998 C1996 1.388 . S
C1998 C1999 1.366 . S
C1999 C1998 1.366 . S
C1999 C2000 1.414 . S
C1999 C2002 1.499 . S
C2000 H1980 0.950 . S
C2000 C1999 1.414 . S
C2000 C2001 1.374 . S
C2001 H1981 0.950 . S
C2001 C1997 1.385 . S
C2001 C2000 1.374 . S
C2002 C1999 1.499 . S
C2002 C2003 1.373 . S
C2002 C2004 1.389 . S
C2003 H1982 0.950 . S
C2003 C2002 1.373 . S
C2003 C2019 1.377 . S
C2004 C2002 1.389 . S
C2004 C2005 1.524 . S
C2004 C2018 1.377 . S
C2005 C2004 1.524 . S
C2005 C2006 1.397 . S
C2005 C2010 1.363 . S
C2006 H1983 0.950 . S
C2006 C2005 1.397 . S
C2006 C2007 1.334 . S
C2007 H1984 0.950 . S
C2007 C2006 1.334 . S
C2007 C2008 1.287 . S
C2008 C2007 1.287 . S
C2008 C2009 1.524 . S
C2008 H2027 0.913 . S
C2009 H1985 0.950 . S
C2009 C2008 1.524 . S
C2009 C2010 1.415 . S
C2010 H1986 0.950 . S
C2010 C2005 1.363 . S
C2010 C2009 1.415 . S
C2011 H1987 0.951 . S
C2011 C2012 1.366 . S
C2011 C2013 1.388 . S
C2012 C2011 1.366 . S
C2012 C2016 1.385 . S
C2013 H1988 0.951 . S
C2013 C2011 1.388 . S
C2013 C2014 1.366 . S
C2014 C2013 1.366 . S
C2014 C2015 1.414 . S
C2014 C2017 1.499 . S
C2015 H1989 0.950 . S
C2015 C2014 1.414 . S
C2015 C2016 1.374 . S
C2016 H1990 0.950 . S
C2016 C2012 1.385 . S
C2016 C2015 1.374 . S
C2017 C2014 1.499 . S
C2017 C2018 1.373 . S
C2017 C2019 1.389 . S
C2018 H1991 0.950 . S
C2018 C2004 1.377 . S
C2018 C2017 1.373 . S
C2019 C2003 1.377 . S
C2019 C2017 1.389 . S
C2019 C2020 1.524 . S
C2020 C2019 1.524 . S
C2020 C2021 1.397 . S
C2020 C2025 1.363 . S
C2021 H1992 0.950 . S
C2021 C2020 1.397 . S
C2021 C2022 1.334 . S
C2022 H1993 0.950 . S
C2022 C2021 1.334 . S
C2022 C2023 1.287 . S
C2023 C2022 1.287 . S
C2023 C2024 1.524 . S
C2023 H2026 0.999 . S
C2024 H1994 0.950 . S
C2024 C2023 1.524 . S
C2024 C2025 1.415 . S
C2025 H1995 0.950 . S
C2025 C2020 1.363 . S
C2025 C2024 1.415 . S
H2026 C2023 0.999 . S
H2027 C2008 0.913 . S
H2028 C2046 0.951 . S
H2029 C2048 0.951 . S
H2030 C2050 0.950 . S
H2031 C2051 0.950 . S
H2032 C2053 0.950 . S
H2033 C2056 0.950 . S
H2034 C2057 0.950 . S
H2035 C2059 0.950 . S
H2036 C2060 0.950 . S
H2037 C2061 0.951 . S
H2038 C2063 0.951 . S
H2039 C2065 0.950 . S
H2040 C2066 0.950 . S
H2041 C2068 0.950 . S
H2042 C2071 0.950 . S
H2043 C2072 0.950 . S
H2044 C2074 0.950 . S
H2045 C2075 0.950 . S
C2046 H2028 0.951 . S
C2046 C2047 1.366 . S
C2046 C2048 1.388 . S
C2047 C2046 1.366 . S
C2047 C2051 1.385 . S
C2048 H2029 0.951 . S
C2048 C2046 1.388 . S
C2048 C2049 1.366 . S
C2049 C2048 1.366 . S
C2049 C2050 1.414 . S
C2049 C2052 1.499 . S
C2050 H2030 0.950 . S
C2050 C2049 1.414 . S
C2050 C2051 1.374 . S
C2051 H2031 0.950 . S
C2051 C2047 1.385 . S
C2051 C2050 1.374 . S
C2052 C2049 1.499 . S
C2052 C2053 1.373 . S
C2052 C2054 1.389 . S
C2053 H2032 0.950 . S
C2053 C2052 1.373 . S
C2053 C2069 1.377 . S
C2054 C2052 1.389 . S
C2054 C2055 1.524 . S
C2054 C2068 1.377 . S
C2055 C2054 1.524 . S
C2055 C2056 1.397 . S
C2055 C2060 1.363 . S
C2056 H2033 0.950 . S
C2056 C2055 1.397 . S
C2056 C2057 1.334 . S
C2057 H2034 0.950 . S
C2057 C2056 1.334 . S
C2057 C2058 1.287 . S
C2058 C2057 1.287 . S
C2058 C2059 1.524 . S
C2058 H2077 0.913 . S
C2059 H2035 0.950 . S
C2059 C2058 1.524 . S
C2059 C2060 1.415 . S
C2060 H2036 0.950 . S
C2060 C2055 1.363 . S
C2060 C2059 1.415 . S
C2061 H2037 0.951 . S
C2061 C2062 1.366 . S
C2061 C2063 1.388 . S
C2062 C2061 1.366 . S
C2062 C2066 1.385 . S
C2063 H2038 0.951 . S
C2063 C2061 1.388 . S
C2063 C2064 1.366 . S
C2064 C2063 1.366 . S
C2064 C2065 1.414 . S
C2064 C2067 1.499 . S
C2065 H2039 0.950 . S
C2065 C2064 1.414 . S
C2065 C2066 1.374 . S
C2066 H2040 0.950 . S
C2066 C2062 1.385 . S
C2066 C2065 1.374 . S
C2067 C2064 1.499 . S
C2067 C2068 1.373 . S
C2067 C2069 1.389 . S
C2068 H2041 0.950 . S
C2068 C2054 1.377 . S
C2068 C2067 1.373 . S
C2069 C2053 1.377 . S
C2069 C2067 1.389 . S
C2069 C2070 1.524 . S
C2070 C2069 1.524 . S
C2070 C2071 1.397 . S
C2070 C2075 1.363 . S
C2071 H2042 0.950 . S
C2071 C2070 1.397 . S
C2071 C2072 1.334 . S
C2072 H2043 0.950 . S
C2072 C2071 1.334 . S
C2072 C2073 1.287 . S
C2073 C2072 1.287 . S
C2073 C2074 1.524 . S
C2073 H2076 0.999 . S
C2074 H2044 0.950 . S
C2074 C2073 1.524 . S
C2074 C2075 1.415 . S
C2075 H2045 0.950 . S
C2075 C2070 1.363 . S
C2075 C2074 1.415 . S
H2076 C2073 0.999 . S
H2077 C2058 0.913 . S
H2078 C2096 0.951 . S
H2079 C2098 0.951 . S
H2080 C2100 0.950 . S
H2081 C2101 0.950 . S
H2082 C2103 0.950 . S
H2083 C2106 0.950 . S
H2084 C2107 0.950 . S
H2085 C2109 0.950 . S
H2086 C2110 0.950 . S
H2087 C2111 0.951 . S
H2088 C2113 0.951 . S
H2089 C2115 0.950 . S
H2090 C2116 0.950 . S
H2091 C2118 0.950 . S
H2092 C2121 0.950 . S
H2093 C2122 0.950 . S
H2094 C2124 0.950 . S
H2095 C2125 0.950 . S
C2096 H2078 0.951 . S
C2096 C2097 1.366 . S
C2096 C2098 1.388 . S
C2097 C2096 1.366 . S
C2097 C2101 1.385 . S
C2098 H2079 0.951 . S
C2098 C2096 1.388 . S
C2098 C2099 1.366 . S
C2099 C2098 1.366 . S
C2099 C2100 1.414 . S
C2099 C2102 1.499 . S
C2100 H2080 0.950 . S
C2100 C2099 1.414 . S
C2100 C2101 1.374 . S
C2101 H2081 0.950 . S
C2101 C2097 1.385 . S
C2101 C2100 1.374 . S
C2102 C2099 1.499 . S
C2102 C2103 1.373 . S
C2102 C2104 1.389 . S
C2103 H2082 0.950 . S
C2103 C2102 1.373 . S
C2103 C2119 1.377 1_545 S
C2104 C2102 1.389 . S
C2104 C2105 1.524 . S
C2104 C2118 1.377 1_545 S
C2105 C2104 1.524 . S
C2105 C2106 1.397 . S
C2105 C2110 1.363 . S
C2106 H2083 0.950 . S
C2106 C2105 1.397 . S
C2106 C2107 1.334 . S
C2107 H2084 0.950 . S
C2107 C2106 1.334 . S
C2107 C2108 1.287 . S
C2108 C2107 1.287 . S
C2108 C2109 1.524 . S
C2108 H2127 0.913 . S
C2109 H2085 0.950 . S
C2109 C2108 1.524 . S
C2109 C2110 1.415 . S
C2110 H2086 0.950 . S
C2110 C2105 1.363 . S
C2110 C2109 1.415 . S
C2111 H2087 0.951 . S
C2111 C2112 1.366 . S
C2111 C2113 1.388 . S
C2112 C2111 1.366 . S
C2112 C2116 1.385 . S
C2113 H2088 0.951 . S
C2113 C2111 1.388 . S
C2113 C2114 1.366 . S
C2114 C2113 1.366 . S
C2114 C2115 1.414 . S
C2114 C2117 1.499 . S
C2115 H2089 0.950 . S
C2115 C2114 1.414 . S
C2115 C2116 1.374 . S
C2116 H2090 0.950 . S
C2116 C2112 1.385 . S
C2116 C2115 1.374 . S
C2117 C2114 1.499 . S
C2117 C2118 1.373 . S
C2117 C2119 1.389 . S
C2118 H2091 0.950 . S
C2118 C2104 1.377 1_565 S
C2118 C2117 1.373 . S
C2119 C2103 1.377 1_565 S
C2119 C2117 1.389 . S
C2119 C2120 1.524 . S
C2120 C2119 1.524 . S
C2120 C2121 1.397 . S
C2120 C2125 1.363 . S
C2121 H2092 0.950 . S
C2121 C2120 1.397 . S
C2121 C2122 1.334 . S
C2122 H2093 0.950 . S
C2122 C2121 1.334 . S
C2122 C2123 1.287 . S
C2123 C2122 1.287 . S
C2123 C2124 1.524 . S
C2123 H2126 0.999 . S
C2124 H2094 0.950 . S
C2124 C2123 1.524 . S
C2124 C2125 1.415 . S
C2125 H2095 0.950 . S
C2125 C2120 1.363 . S
C2125 C2124 1.415 . S
H2126 C2123 0.999 . S
H2127 C2108 0.913 . S
H2128 C2146 0.951 . S
H2129 C2148 0.951 . S
H2130 C2150 0.950 . S
H2131 C2151 0.950 . S
H2132 C2153 0.950 . S
H2133 C2156 0.950 . S
H2134 C2157 0.950 . S
H2135 C2159 0.950 . S
H2136 C2160 0.950 . S
H2137 C2161 0.951 . S
H2138 C2163 0.951 . S
H2139 C2165 0.950 . S
H2140 C2166 0.950 . S
H2141 C2168 0.950 . S
H2142 C2171 0.950 . S
H2143 C2172 0.950 . S
H2144 C2174 0.950 . S
H2145 C2175 0.950 . S
C2146 H2128 0.951 . S
C2146 C2147 1.366 . S
C2146 C2148 1.388 . S
C2147 C2146 1.366 . S
C2147 C2151 1.385 . S
C2148 H2129 0.951 . S
C2148 C2146 1.388 . S
C2148 C2149 1.366 . S
C2149 C2148 1.366 . S
C2149 C2150 1.414 . S
C2149 C2152 1.499 . S
C2150 H2130 0.950 . S
C2150 C2149 1.414 . S
C2150 C2151 1.374 . S
C2151 H2131 0.950 . S
C2151 C2147 1.385 . S
C2151 C2150 1.374 . S
C2152 C2149 1.499 . S
C2152 C2153 1.373 . S
C2152 C2154 1.389 . S
C2153 H2132 0.950 . S
C2153 C2152 1.373 . S
C2153 C2169 1.377 1_554 S
C2154 C2152 1.389 . S
C2154 C2155 1.524 . S
C2154 C2168 1.377 1_554 S
C2155 C2154 1.524 . S
C2155 C2156 1.397 . S
C2155 C2160 1.363 . S
C2156 H2133 0.950 . S
C2156 C2155 1.397 . S
C2156 C2157 1.334 . S
C2157 H2134 0.950 . S
C2157 C2156 1.334 . S
C2157 C2158 1.287 . S
C2158 C2157 1.287 . S
C2158 C2159 1.524 . S
C2158 H2177 0.913 . S
C2159 H2135 0.950 . S
C2159 C2158 1.524 . S
C2159 C2160 1.415 . S
C2160 H2136 0.950 . S
C2160 C2155 1.363 . S
C2160 C2159 1.415 . S
C2161 H2137 0.951 . S
C2161 C2162 1.366 . S
C2161 C2163 1.388 . S
C2162 C2161 1.366 . S
C2162 C2166 1.385 . S
C2163 H2138 0.951 . S
C2163 C2161 1.388 . S
C2163 C2164 1.366 . S
C2164 C2163 1.366 . S
C2164 C2165 1.414 . S
C2164 C2167 1.499 . S
C2165 H2139 0.950 . S
C2165 C2164 1.414 . S
C2165 C2166 1.374 . S
C2166 H2140 0.950 . S
C2166 C2162 1.385 . S
C2166 C2165 1.374 . S
C2167 C2164 1.499 . S
C2167 C2168 1.373 . S
C2167 C2169 1.389 . S
C2168 H2141 0.950 . S
C2168 C2154 1.377 1_556 S
C2168 C2167 1.373 . S
C2169 C2153 1.377 1_556 S
C2169 C2167 1.389 . S
C2169 C2170 1.524 . S
C2170 C2169 1.524 . S
C2170 C2171 1.397 . S
C2170 C2175 1.363 . S
C2171 H2142 0.950 . S
C2171 C2170 1.397 . S
C2171 C2172 1.334 . S
C2172 H2143 0.950 . S
C2172 C2171 1.334 . S
C2172 C2173 1.287 . S
C2173 C2172 1.287 . S
C2173 C2174 1.524 . S
C2173 H2176 0.999 . S
C2174 H2144 0.950 . S
C2174 C2173 1.524 . S
C2174 C2175 1.415 . S
C2175 H2145 0.950 . S
C2175 C2170 1.363 . S
C2175 C2174 1.415 . S
H2176 C2173 0.999 . S
H2177 C2158 0.913 . S
H2178 C2196 0.951 . S
H2179 C2198 0.951 . S
H2180 C2200 0.950 . S
H2181 C2201 0.950 . S
H2182 C2203 0.950 . S
H2183 C2206 0.950 . S
H2184 C2207 0.950 . S
H2185 C2209 0.950 . S
H2186 C2210 0.950 . S
H2187 C2211 0.951 . S
H2188 C2213 0.951 . S
H2189 C2215 0.950 . S
H2190 C2216 0.950 . S
H2191 C2218 0.950 . S
H2192 C2221 0.950 . S
H2193 C2222 0.950 . S
H2194 C2224 0.950 . S
H2195 C2225 0.950 . S
C2196 H2178 0.951 . S
C2196 C2197 1.366 . S
C2196 C2198 1.388 . S
C2197 C2196 1.366 . S
C2197 C2201 1.385 . S
C2198 H2179 0.951 . S
C2198 C2196 1.388 . S
C2198 C2199 1.366 . S
C2199 C2198 1.366 . S
C2199 C2200 1.414 . S
C2199 C2202 1.499 . S
C2200 H2180 0.950 . S
C2200 C2199 1.414 . S
C2200 C2201 1.374 . S
C2201 H2181 0.950 . S
C2201 C2197 1.385 . S
C2201 C2200 1.374 . S
C2202 C2199 1.499 . S
C2202 C2203 1.373 . S
C2202 C2204 1.389 . S
C2203 H2182 0.950 . S
C2203 C2202 1.373 . S
C2203 C2219 1.377 . S
C2204 C2202 1.389 . S
C2204 C2205 1.524 . S
C2204 C2218 1.377 . S
C2205 C2204 1.524 . S
C2205 C2206 1.397 . S
C2205 C2210 1.363 . S
C2206 H2183 0.950 . S
C2206 C2205 1.397 . S
C2206 C2207 1.334 . S
C2207 H2184 0.950 . S
C2207 C2206 1.334 . S
C2207 C2208 1.287 . S
C2208 C2207 1.287 . S
C2208 C2209 1.524 . S
C2208 H2227 0.913 . S
C2209 H2185 0.950 . S
C2209 C2208 1.524 . S
C2209 C2210 1.415 . S
C2210 H2186 0.950 . S
C2210 C2205 1.363 . S
C2210 C2209 1.415 . S
C2211 H2187 0.951 . S
C2211 C2212 1.366 . S
C2211 C2213 1.388 . S
C2212 C2211 1.366 . S
C2212 C2216 1.385 . S
C2213 H2188 0.951 . S
C2213 C2211 1.388 . S
C2213 C2214 1.366 . S
C2214 C2213 1.366 . S
C2214 C2215 1.414 . S
C2214 C2217 1.499 . S
C2215 H2189 0.950 . S
C2215 C2214 1.414 . S
C2215 C2216 1.374 . S
C2216 H2190 0.950 . S
C2216 C2212 1.385 . S
C2216 C2215 1.374 . S
C2217 C2214 1.499 . S
C2217 C2218 1.373 . S
C2217 C2219 1.389 . S
C2218 H2191 0.950 . S
C2218 C2204 1.377 . S
C2218 C2217 1.373 . S
C2219 C2203 1.377 . S
C2219 C2217 1.389 . S
C2219 C2220 1.524 . S
C2220 C2219 1.524 . S
C2220 C2221 1.397 . S
C2220 C2225 1.363 . S
C2221 H2192 0.950 . S
C2221 C2220 1.397 . S
C2221 C2222 1.334 . S
C2222 H2193 0.950 . S
C2222 C2221 1.334 . S
C2222 C2223 1.287 . S
C2223 C2222 1.287 . S
C2223 C2224 1.524 . S
C2223 H2226 0.999 . S
C2224 H2194 0.950 . S
C2224 C2223 1.524 . S
C2224 C2225 1.415 . S
C2225 H2195 0.950 . S
C2225 C2220 1.363 . S
C2225 C2224 1.415 . S
H2226 C2223 0.999 . S
H2227 C2208 0.913 . S
H2228 C2246 0.951 . S
H2229 C2248 0.951 . S
H2230 C2250 0.950 . S
H2231 C2251 0.950 . S
H2232 C2253 0.950 . S
H2233 C2256 0.950 . S
H2234 C2257 0.950 . S
H2235 C2259 0.950 . S
H2236 C2260 0.950 . S
H2237 C2261 0.951 . S
H2238 C2263 0.951 . S
H2239 C2265 0.950 . S
H2240 C2266 0.950 . S
H2241 C2268 0.950 . S
H2242 C2271 0.950 . S
H2243 C2272 0.950 . S
H2244 C2274 0.950 . S
H2245 C2275 0.950 . S
C2246 H2228 0.951 . S
C2246 C2247 1.366 . S
C2246 C2248 1.388 . S
C2247 C2246 1.366 . S
C2247 C2251 1.385 . S
C2248 H2229 0.951 . S
C2248 C2246 1.388 . S
C2248 C2249 1.366 . S
C2249 C2248 1.366 . S
C2249 C2250 1.414 . S
C2249 C2252 1.499 . S
C2250 H2230 0.950 . S
C2250 C2249 1.414 . S
C2250 C2251 1.374 . S
C2251 H2231 0.950 . S
C2251 C2247 1.385 . S
C2251 C2250 1.374 . S
C2252 C2249 1.499 . S
C2252 C2253 1.373 . S
C2252 C2254 1.389 . S
C2253 H2232 0.950 . S
C2253 C2252 1.373 . S
C2253 C2269 1.377 . S
C2254 C2252 1.389 . S
C2254 C2255 1.524 . S
C2254 C2268 1.377 . S
C2255 C2254 1.524 . S
C2255 C2256 1.397 . S
C2255 C2260 1.363 . S
C2256 H2233 0.950 . S
C2256 C2255 1.397 . S
C2256 C2257 1.334 . S
C2257 H2234 0.950 . S
C2257 C2256 1.334 . S
C2257 C2258 1.287 . S
C2258 C2257 1.287 . S
C2258 C2259 1.524 . S
C2258 H2277 0.913 . S
C2259 H2235 0.950 . S
C2259 C2258 1.524 . S
C2259 C2260 1.415 . S
C2260 H2236 0.950 . S
C2260 C2255 1.363 . S
C2260 C2259 1.415 . S
C2261 H2237 0.951 . S
C2261 C2262 1.366 . S
C2261 C2263 1.388 . S
C2262 C2261 1.366 . S
C2262 C2266 1.385 . S
C2263 H2238 0.951 . S
C2263 C2261 1.388 . S
C2263 C2264 1.366 . S
C2264 C2263 1.366 . S
C2264 C2265 1.414 . S
C2264 C2267 1.499 . S
C2265 H2239 0.950 . S
C2265 C2264 1.414 . S
C2265 C2266 1.374 . S
C2266 H2240 0.950 . S
C2266 C2262 1.385 . S
C2266 C2265 1.374 . S
C2267 C2264 1.499 . S
C2267 C2268 1.373 . S
C2267 C2269 1.389 . S
C2268 H2241 0.950 . S
C2268 C2254 1.377 . S
C2268 C2267 1.373 . S
C2269 C2253 1.377 . S
C2269 C2267 1.389 . S
C2269 C2270 1.524 . S
C2270 C2269 1.524 . S
C2270 C2271 1.397 . S
C2270 C2275 1.363 . S
C2271 H2242 0.950 . S
C2271 C2270 1.397 . S
C2271 C2272 1.334 . S
C2272 H2243 0.950 . S
C2272 C2271 1.334 . S
C2272 C2273 1.287 . S
C2273 C2272 1.287 . S
C2273 C2274 1.524 . S
C2273 H2276 0.999 . S
C2274 H2244 0.950 . S
C2274 C2273 1.524 . S
C2274 C2275 1.415 . S
C2275 H2245 0.950 . S
C2275 C2270 1.363 . S
C2275 C2274 1.415 . S
H2276 C2273 0.999 . S
H2277 C2258 0.913 . S
H2278 C2296 0.951 . S
H2279 C2298 0.951 . S
H2280 C2300 0.950 . S
H2281 C2301 0.950 . S
H2282 C2303 0.950 . S
H2283 C2306 0.950 . S
H2284 C2307 0.950 . S
H2285 C2309 0.950 . S
H2286 C2310 0.950 . S
H2287 C2311 0.951 . S
H2288 C2313 0.951 . S
H2289 C2315 0.950 . S
H2290 C2316 0.950 . S
H2291 C2318 0.950 . S
H2292 C2321 0.950 . S
H2293 C2322 0.950 . S
H2294 C2324 0.950 . S
H2295 C2325 0.950 . S
C2296 H2278 0.951 . S
C2296 C2297 1.366 . S
C2296 C2298 1.388 . S
C2297 C2296 1.366 . S
C2297 C2301 1.385 . S
C2298 H2279 0.951 . S
C2298 C2296 1.388 . S
C2298 C2299 1.366 . S
C2299 C2298 1.366 . S
C2299 C2300 1.414 . S
C2299 C2302 1.499 . S
C2300 H2280 0.950 . S
C2300 C2299 1.414 . S
C2300 C2301 1.374 . S
C2301 H2281 0.950 . S
C2301 C2297 1.385 . S
C2301 C2300 1.374 . S
C2302 C2299 1.499 . S
C2302 C2303 1.373 . S
C2302 C2304 1.389 . S
C2303 H2282 0.950 . S
C2303 C2302 1.373 . S
C2303 C2319 1.377 1_556 S
C2304 C2302 1.389 . S
C2304 C2305 1.524 . S
C2304 C2318 1.377 1_556 S
C2305 C2304 1.524 . S
C2305 C2306 1.397 . S
C2305 C2310 1.363 . S
C2306 H2283 0.950 . S
C2306 C2305 1.397 . S
C2306 C2307 1.334 . S
C2307 H2284 0.950 . S
C2307 C2306 1.334 . S
C2307 C2308 1.287 . S
C2308 C2307 1.287 . S
C2308 C2309 1.524 . S
C2308 H2327 0.913 . S
C2309 H2285 0.950 . S
C2309 C2308 1.524 . S
C2309 C2310 1.415 . S
C2310 H2286 0.950 . S
C2310 C2305 1.363 . S
C2310 C2309 1.415 . S
C2311 H2287 0.951 . S
C2311 C2312 1.366 . S
C2311 C2313 1.388 . S
C2312 C2311 1.366 . S
C2312 C2316 1.385 . S
C2313 H2288 0.951 . S
C2313 C2311 1.388 . S
C2313 C2314 1.366 . S
C2314 C2313 1.366 . S
C2314 C2315 1.414 . S
C2314 C2317 1.499 . S
C2315 H2289 0.950 . S
C2315 C2314 1.414 . S
C2315 C2316 1.374 . S
C2316 H2290 0.950 . S
C2316 C2312 1.385 . S
C2316 C2315 1.374 . S
C2317 C2314 1.499 . S
C2317 C2318 1.373 . S
C2317 C2319 1.389 . S
C2318 H2291 0.950 . S
C2318 C2304 1.377 1_554 S
C2318 C2317 1.373 . S
C2319 C2303 1.377 1_554 S
C2319 C2317 1.389 . S
C2319 C2320 1.524 . S
C2320 C2319 1.524 . S
C2320 C2321 1.397 . S
C2320 C2325 1.363 . S
C2321 H2292 0.950 . S
C2321 C2320 1.397 . S
C2321 C2322 1.334 . S
C2322 H2293 0.950 . S
C2322 C2321 1.334 . S
C2322 C2323 1.287 . S
C2323 C2322 1.287 . S
C2323 C2324 1.524 . S
C2323 H2326 0.999 . S
C2324 H2294 0.950 . S
C2324 C2323 1.524 . S
C2324 C2325 1.415 . S
C2325 H2295 0.950 . S
C2325 C2320 1.363 . S
C2325 C2324 1.415 . S
H2326 C2323 0.999 . S
H2327 C2308 0.913 . S
H2328 C2346 0.951 . S
H2329 C2348 0.951 . S
H2330 C2350 0.950 . S
H2331 C2351 0.950 . S
H2332 C2353 0.950 . S
H2333 C2356 0.950 . S
H2334 C2357 0.950 . S
H2335 C2359 0.950 . S
H2336 C2360 0.950 . S
H2337 C2361 0.951 . S
H2338 C2363 0.951 . S
H2339 C2365 0.950 . S
H2340 C2366 0.950 . S
H2341 C2368 0.950 . S
H2342 C2371 0.950 . S
H2343 C2372 0.950 . S
H2344 C2374 0.950 . S
H2345 C2375 0.950 . S
C2346 H2328 0.951 . S
C2346 C2347 1.366 . S
C2346 C2348 1.388 . S
C2347 C2346 1.366 . S
C2347 C2351 1.385 . S
C2348 H2329 0.951 . S
C2348 C2346 1.388 . S
C2348 C2349 1.366 . S
C2349 C2348 1.366 . S
C2349 C2350 1.414 . S
C2349 C2352 1.499 . S
C2350 H2330 0.950 . S
C2350 C2349 1.414 . S
C2350 C2351 1.374 . S
C2351 H2331 0.950 . S
C2351 C2347 1.385 . S
C2351 C2350 1.374 . S
C2352 C2349 1.499 . S
C2352 C2353 1.373 . S
C2352 C2354 1.389 . S
C2353 H2332 0.950 . S
C2353 C2352 1.373 . S
C2353 C2369 1.377 1_655 S
C2354 C2352 1.389 . S
C2354 C2355 1.524 . S
C2354 C2368 1.377 1_655 S
C2355 C2354 1.524 . S
C2355 C2356 1.397 . S
C2355 C2360 1.363 . S
C2356 H2333 0.950 . S
C2356 C2355 1.397 . S
C2356 C2357 1.334 . S
C2357 H2334 0.950 . S
C2357 C2356 1.334 . S
C2357 C2358 1.287 . S
C2358 C2357 1.287 . S
C2358 C2359 1.524 . S
C2358 H2377 0.913 . S
C2359 H2335 0.950 . S
C2359 C2358 1.524 . S
C2359 C2360 1.415 . S
C2360 H2336 0.950 . S
C2360 C2355 1.363 . S
C2360 C2359 1.415 . S
C2361 H2337 0.951 . S
C2361 C2362 1.366 . S
C2361 C2363 1.388 . S
C2362 C2361 1.366 . S
C2362 C2366 1.385 . S
C2363 H2338 0.951 . S
C2363 C2361 1.388 . S
C2363 C2364 1.366 . S
C2364 C2363 1.366 . S
C2364 C2365 1.414 . S
C2364 C2367 1.499 . S
C2365 H2339 0.950 . S
C2365 C2364 1.414 . S
C2365 C2366 1.374 . S
C2366 H2340 0.950 . S
C2366 C2362 1.385 . S
C2366 C2365 1.374 . S
C2367 C2364 1.499 . S
C2367 C2368 1.373 . S
C2367 C2369 1.389 . S
C2368 H2341 0.950 . S
C2368 C2354 1.377 1_455 S
C2368 C2367 1.373 . S
C2369 C2353 1.377 1_455 S
C2369 C2367 1.389 . S
C2369 C2370 1.524 . S
C2370 C2369 1.524 . S
C2370 C2371 1.397 . S
C2370 C2375 1.363 . S
C2371 H2342 0.950 . S
C2371 C2370 1.397 . S
C2371 C2372 1.334 . S
C2372 H2343 0.950 . S
C2372 C2371 1.334 . S
C2372 C2373 1.287 . S
C2373 C2372 1.287 . S
C2373 C2374 1.524 . S
C2373 H2376 0.999 . S
C2374 H2344 0.950 . S
C2374 C2373 1.524 . S
C2374 C2375 1.415 . S
C2375 H2345 0.950 . S
C2375 C2370 1.363 . S
C2375 C2374 1.415 . S
H2376 C2373 0.999 . S
H2377 C2358 0.913 . S
H2378 C2396 0.951 . S
H2379 C2398 0.951 . S
H2380 C2400 0.950 . S
H2381 C2401 0.950 . S
H2382 C2403 0.950 . S
H2383 C2406 0.950 . S
H2384 C2407 0.950 . S
H2385 C2409 0.950 . S
H2386 C2410 0.950 . S
H2387 C2411 0.951 . S
H2388 C2413 0.951 . S
H2389 C2415 0.950 . S
H2390 C2416 0.950 . S
H2391 C2418 0.950 . S
H2392 C2421 0.950 . S
H2393 C2422 0.950 . S
H2394 C2424 0.950 . S
H2395 C2425 0.950 . S
C2396 H2378 0.951 . S
C2396 C2397 1.366 . S
C2396 C2398 1.388 . S
C2397 C2396 1.366 . S
C2397 C2401 1.385 . S
C2398 H2379 0.951 . S
C2398 C2396 1.388 . S
C2398 C2399 1.366 . S
C2399 C2398 1.366 . S
C2399 C2400 1.414 . S
C2399 C2402 1.499 . S
C2400 H2380 0.950 . S
C2400 C2399 1.414 . S
C2400 C2401 1.374 . S
C2401 H2381 0.950 . S
C2401 C2397 1.385 . S
C2401 C2400 1.374 . S
C2402 C2399 1.499 . S
C2402 C2403 1.373 . S
C2402 C2404 1.389 . S
C2403 H2382 0.950 . S
C2403 C2402 1.373 . S
C2403 C2419 1.377 . S
C2404 C2402 1.389 . S
C2404 C2405 1.524 . S
C2404 C2418 1.377 . S
C2405 C2404 1.524 . S
C2405 C2406 1.397 . S
C2405 C2410 1.363 . S
C2406 H2383 0.950 . S
C2406 C2405 1.397 . S
C2406 C2407 1.334 . S
C2407 H2384 0.950 . S
C2407 C2406 1.334 . S
C2407 C2408 1.287 . S
C2408 C2407 1.287 . S
C2408 C2409 1.524 . S
C2408 H2427 0.913 . S
C2409 H2385 0.950 . S
C2409 C2408 1.524 . S
C2409 C2410 1.415 . S
C2410 H2386 0.950 . S
C2410 C2405 1.363 . S
C2410 C2409 1.415 . S
C2411 H2387 0.951 . S
C2411 C2412 1.366 . S
C2411 C2413 1.388 . S
C2412 C2411 1.366 . S
C2412 C2416 1.385 . S
C2413 H2388 0.951 . S
C2413 C2411 1.388 . S
C2413 C2414 1.366 . S
C2414 C2413 1.366 . S
C2414 C2415 1.414 . S
C2414 C2417 1.499 . S
C2415 H2389 0.950 . S
C2415 C2414 1.414 . S
C2415 C2416 1.374 . S
C2416 H2390 0.950 . S
C2416 C2412 1.385 . S
C2416 C2415 1.374 . S
C2417 C2414 1.499 . S
C2417 C2418 1.373 . S
C2417 C2419 1.389 . S
C2418 H2391 0.950 . S
C2418 C2404 1.377 . S
C2418 C2417 1.373 . S
C2419 C2403 1.377 . S
C2419 C2417 1.389 . S
C2419 C2420 1.524 . S
C2420 C2419 1.524 . S
C2420 C2421 1.397 . S
C2420 C2425 1.363 . S
C2421 H2392 0.950 . S
C2421 C2420 1.397 . S
C2421 C2422 1.334 . S
C2422 H2393 0.950 . S
C2422 C2421 1.334 . S
C2422 C2423 1.287 . S
C2423 C2422 1.287 . S
C2423 C2424 1.524 . S
C2423 H2426 0.999 . S
C2424 H2394 0.950 . S
C2424 C2423 1.524 . S
C2424 C2425 1.415 . S
C2425 H2395 0.950 . S
C2425 C2420 1.363 . S
C2425 C2424 1.415 . S
H2426 C2423 0.999 . S
H2427 C2408 0.913 . S
H2428 C2446 0.951 . S
H2429 C2448 0.951 . S
H2430 C2450 0.950 . S
H2431 C2451 0.950 . S
H2432 C2453 0.950 . S
H2433 C2456 0.950 . S
H2434 C2457 0.950 . S
H2435 C2459 0.950 . S
H2436 C2460 0.950 . S
H2437 C2461 0.951 . S
H2438 C2463 0.951 . S
H2439 C2465 0.950 . S
H2440 C2466 0.950 . S
H2441 C2468 0.950 . S
H2442 C2471 0.950 . S
H2443 C2472 0.950 . S
H2444 C2474 0.950 . S
H2445 C2475 0.950 . S
C2446 H2428 0.951 . S
C2446 C2447 1.366 . S
C2446 C2448 1.388 . S
C2447 C2446 1.366 . S
C2447 C2451 1.385 . S
C2448 H2429 0.951 . S
C2448 C2446 1.388 . S
C2448 C2449 1.366 . S
C2449 C2448 1.366 . S
C2449 C2450 1.414 . S
C2449 C2452 1.499 . S
C2450 H2430 0.950 . S
C2450 C2449 1.414 . S
C2450 C2451 1.374 . S
C2451 H2431 0.950 . S
C2451 C2447 1.385 . S
C2451 C2450 1.374 . S
C2452 C2449 1.499 . S
C2452 C2453 1.373 . S
C2452 C2454 1.389 . S
C2453 H2432 0.950 . S
C2453 C2452 1.373 . S
C2453 C2469 1.377 . S
C2454 C2452 1.389 . S
C2454 C2455 1.524 . S
C2454 C2468 1.377 . S
C2455 C2454 1.524 . S
C2455 C2456 1.397 . S
C2455 C2460 1.363 . S
C2456 H2433 0.950 . S
C2456 C2455 1.397 . S
C2456 C2457 1.334 . S
C2457 H2434 0.950 . S
C2457 C2456 1.334 . S
C2457 C2458 1.287 . S
C2458 C2457 1.287 . S
C2458 C2459 1.524 . S
C2458 H2477 0.913 . S
C2459 H2435 0.950 . S
C2459 C2458 1.524 . S
C2459 C2460 1.415 . S
C2460 H2436 0.950 . S
C2460 C2455 1.363 . S
C2460 C2459 1.415 . S
C2461 H2437 0.951 . S
C2461 C2462 1.366 . S
C2461 C2463 1.388 . S
C2462 C2461 1.366 . S
C2462 C2466 1.385 . S
C2463 H2438 0.951 . S
C2463 C2461 1.388 . S
C2463 C2464 1.366 . S
C2464 C2463 1.366 . S
C2464 C2465 1.414 . S
C2464 C2467 1.499 . S
C2465 H2439 0.950 . S
C2465 C2464 1.414 . S
C2465 C2466 1.374 . S
C2466 H2440 0.950 . S
C2466 C2462 1.385 . S
C2466 C2465 1.374 . S
C2467 C2464 1.499 . S
C2467 C2468 1.373 . S
C2467 C2469 1.389 . S
C2468 H2441 0.950 . S
C2468 C2454 1.377 . S
C2468 C2467 1.373 . S
C2469 C2453 1.377 . S
C2469 C2467 1.389 . S
C2469 C2470 1.524 . S
C2470 C2469 1.524 . S
C2470 C2471 1.397 . S
C2470 C2475 1.363 . S
C2471 H2442 0.950 . S
C2471 C2470 1.397 . S
C2471 C2472 1.334 . S
C2472 H2443 0.950 . S
C2472 C2471 1.334 . S
C2472 C2473 1.287 . S
C2473 C2472 1.287 . S
C2473 C2474 1.524 . S
C2473 H2476 0.999 . S
C2474 H2444 0.950 . S
C2474 C2473 1.524 . S
C2474 C2475 1.415 . S
C2475 H2445 0.950 . S
C2475 C2470 1.363 . S
C2475 C2474 1.415 . S
H2476 C2473 0.999 . S
H2477 C2458 0.913 . S
H2478 C2496 0.951 . S
H2479 C2498 0.951 . S
H2480 C2500 0.950 . S
H2481 C2501 0.950 . S
H2482 C2503 0.950 . S
H2483 C2506 0.950 . S
H2484 C2507 0.950 . S
H2485 C2509 0.950 . S
H2486 C2510 0.950 . S
H2487 C2511 0.951 . S
H2488 C2513 0.951 . S
H2489 C2515 0.950 . S
H2490 C2516 0.950 . S
H2491 C2518 0.950 . S
H2492 C2521 0.950 . S
H2493 C2522 0.950 . S
H2494 C2524 0.950 . S
H2495 C2525 0.950 . S
C2496 H2478 0.951 . S
C2496 C2497 1.366 . S
C2496 C2498 1.388 . S
C2497 C2496 1.366 . S
C2497 C2501 1.385 . S
C2498 H2479 0.951 . S
C2498 C2496 1.388 . S
C2498 C2499 1.366 . S
C2499 C2498 1.366 . S
C2499 C2500 1.414 . S
C2499 C2502 1.499 . S
C2500 H2480 0.950 . S
C2500 C2499 1.414 . S
C2500 C2501 1.374 . S
C2501 H2481 0.950 . S
C2501 C2497 1.385 . S
C2501 C2500 1.374 . S
C2502 C2499 1.499 . S
C2502 C2503 1.373 . S
C2502 C2504 1.389 . S
C2503 H2482 0.950 . S
C2503 C2502 1.373 . S
C2503 C2519 1.377 1_565 S
C2504 C2502 1.389 . S
C2504 C2505 1.524 . S
C2504 C2518 1.377 1_565 S
C2505 C2504 1.524 . S
C2505 C2506 1.397 . S
C2505 C2510 1.363 . S
C2506 H2483 0.950 . S
C2506 C2505 1.397 . S
C2506 C2507 1.334 . S
C2507 H2484 0.950 . S
C2507 C2506 1.334 . S
C2507 C2508 1.287 . S
C2508 C2507 1.287 . S
C2508 C2509 1.524 . S
C2508 H2527 0.913 . S
C2509 H2485 0.950 . S
C2509 C2508 1.524 . S
C2509 C2510 1.415 . S
C2510 H2486 0.950 . S
C2510 C2505 1.363 . S
C2510 C2509 1.415 . S
C2511 H2487 0.951 . S
C2511 C2512 1.366 . S
C2511 C2513 1.388 . S
C2512 C2511 1.366 . S
C2512 C2516 1.385 . S
C2513 H2488 0.951 . S
C2513 C2511 1.388 . S
C2513 C2514 1.366 . S
C2514 C2513 1.366 . S
C2514 C2515 1.414 . S
C2514 C2517 1.499 . S
C2515 H2489 0.950 . S
C2515 C2514 1.414 . S
C2515 C2516 1.374 . S
C2516 H2490 0.950 . S
C2516 C2512 1.385 . S
C2516 C2515 1.374 . S
C2517 C2514 1.499 . S
C2517 C2518 1.373 . S
C2517 C2519 1.389 . S
C2518 H2491 0.950 . S
C2518 C2504 1.377 1_545 S
C2518 C2517 1.373 . S
C2519 C2503 1.377 1_545 S
C2519 C2517 1.389 . S
C2519 C2520 1.524 . S
C2520 C2519 1.524 . S
C2520 C2521 1.397 . S
C2520 C2525 1.363 . S
C2521 H2492 0.950 . S
C2521 C2520 1.397 . S
C2521 C2522 1.334 . S
C2522 H2493 0.950 . S
C2522 C2521 1.334 . S
C2522 C2523 1.287 . S
C2523 C2522 1.287 . S
C2523 C2524 1.524 . S
C2523 H2526 0.999 . S
C2524 H2494 0.950 . S
C2524 C2523 1.524 . S
C2524 C2525 1.415 . S
C2525 H2495 0.950 . S
C2525 C2520 1.363 . S
C2525 C2524 1.415 . S
H2526 C2523 0.999 . S
H2527 C2508 0.913 . S
H2528 C2546 0.951 . S
H2529 C2548 0.951 . S
H2530 C2550 0.950 . S
H2531 C2551 0.950 . S
H2532 C2553 0.950 . S
H2533 C2556 0.950 . S
H2534 C2557 0.950 . S
H2535 C2559 0.950 . S
H2536 C2560 0.950 . S
H2537 C2561 0.951 . S
H2538 C2563 0.951 . S
H2539 C2565 0.950 . S
H2540 C2566 0.950 . S
H2541 C2568 0.950 . S
H2542 C2571 0.950 . S
H2543 C2572 0.950 . S
H2544 C2574 0.950 . S
H2545 C2575 0.950 . S
C2546 H2528 0.951 . S
C2546 C2547 1.366 . S
C2546 C2548 1.388 . S
C2547 C2546 1.366 . S
C2547 C2551 1.385 . S
C2548 H2529 0.951 . S
C2548 C2546 1.388 . S
C2548 C2549 1.366 . S
C2549 C2548 1.366 . S
C2549 C2550 1.414 . S
C2549 C2552 1.499 . S
C2550 H2530 0.950 . S
C2550 C2549 1.414 . S
C2550 C2551 1.374 . S
C2551 H2531 0.950 . S
C2551 C2547 1.385 . S
C2551 C2550 1.374 . S
C2552 C2549 1.499 . S
C2552 C2553 1.373 . S
C2552 C2554 1.389 . S
C2553 H2532 0.950 . S
C2553 C2552 1.373 . S
C2553 C2569 1.377 1_655 S
C2554 C2552 1.389 . S
C2554 C2555 1.524 . S
C2554 C2568 1.377 1_655 S
C2555 C2554 1.524 . S
C2555 C2556 1.397 . S
C2555 C2560 1.363 . S
C2556 H2533 0.950 . S
C2556 C2555 1.397 . S
C2556 C2557 1.334 . S
C2557 H2534 0.950 . S
C2557 C2556 1.334 . S
C2557 C2558 1.287 . S
C2558 C2557 1.287 . S
C2558 C2559 1.524 . S
C2558 H2577 0.913 . S
C2559 H2535 0.950 . S
C2559 C2558 1.524 . S
C2559 C2560 1.415 . S
C2560 H2536 0.950 . S
C2560 C2555 1.363 . S
C2560 C2559 1.415 . S
C2561 H2537 0.951 . S
C2561 C2562 1.366 . S
C2561 C2563 1.388 . S
C2562 C2561 1.366 . S
C2562 C2566 1.385 . S
C2563 H2538 0.951 . S
C2563 C2561 1.388 . S
C2563 C2564 1.366 . S
C2564 C2563 1.366 . S
C2564 C2565 1.414 . S
C2564 C2567 1.499 . S
C2565 H2539 0.950 . S
C2565 C2564 1.414 . S
C2565 C2566 1.374 . S
C2566 H2540 0.950 . S
C2566 C2562 1.385 . S
C2566 C2565 1.374 . S
C2567 C2564 1.499 . S
C2567 C2568 1.373 . S
C2567 C2569 1.389 . S
C2568 H2541 0.950 . S
C2568 C2554 1.377 1_455 S
C2568 C2567 1.373 . S
C2569 C2553 1.377 1_455 S
C2569 C2567 1.389 . S
C2569 C2570 1.524 . S
C2570 C2569 1.524 . S
C2570 C2571 1.397 . S
C2570 C2575 1.363 . S
C2571 H2542 0.950 . S
C2571 C2570 1.397 . S
C2571 C2572 1.334 . S
C2572 H2543 0.950 . S
C2572 C2571 1.334 . S
C2572 C2573 1.287 . S
C2573 C2572 1.287 . S
C2573 C2574 1.524 . S
C2573 H2576 0.999 . S
C2574 H2544 0.950 . S
C2574 C2573 1.524 . S
C2574 C2575 1.415 . S
C2575 H2545 0.950 . S
C2575 C2570 1.363 . S
C2575 C2574 1.415 . S
H2576 C2573 0.999 . S
H2577 C2558 0.913 . S
H2578 C2596 0.951 . S
H2579 C2598 0.951 . S
H2580 C2600 0.950 . S
H2581 C2601 0.950 . S
H2582 C2603 0.950 . S
H2583 C2606 0.950 . S
H2584 C2607 0.950 . S
H2585 C2609 0.950 . S
H2586 C2610 0.950 . S
H2587 C2611 0.951 . S
H2588 C2613 0.951 . S
H2589 C2615 0.950 . S
H2590 C2616 0.950 . S
H2591 C2618 0.950 . S
H2592 C2621 0.950 . S
H2593 C2622 0.950 . S
H2594 C2624 0.950 . S
H2595 C2625 0.950 . S
C2596 H2578 0.951 . S
C2596 C2597 1.366 . S
C2596 C2598 1.388 . S
C2597 C2596 1.366 . S
C2597 C2601 1.385 . S
C2598 H2579 0.951 . S
C2598 C2596 1.388 . S
C2598 C2599 1.366 . S
C2599 C2598 1.366 . S
C2599 C2600 1.414 . S
C2599 C2602 1.499 . S
C2600 H2580 0.950 . S
C2600 C2599 1.414 . S
C2600 C2601 1.374 . S
C2601 H2581 0.950 . S
C2601 C2597 1.385 . S
C2601 C2600 1.374 . S
C2602 C2599 1.499 . S
C2602 C2603 1.373 . S
C2602 C2604 1.389 . S
C2603 H2582 0.950 . S
C2603 C2602 1.373 . S
C2603 C2619 1.377 . S
C2604 C2602 1.389 . S
C2604 C2605 1.524 . S
C2604 C2618 1.377 . S
C2605 C2604 1.524 . S
C2605 C2606 1.397 . S
C2605 C2610 1.363 . S
C2606 H2583 0.950 . S
C2606 C2605 1.397 . S
C2606 C2607 1.334 . S
C2607 H2584 0.950 . S
C2607 C2606 1.334 . S
C2607 C2608 1.287 . S
C2608 C2607 1.287 . S
C2608 C2609 1.524 . S
C2608 H2627 0.913 . S
C2609 H2585 0.950 . S
C2609 C2608 1.524 . S
C2609 C2610 1.415 . S
C2610 H2586 0.950 . S
C2610 C2605 1.363 . S
C2610 C2609 1.415 . S
C2611 H2587 0.951 . S
C2611 C2612 1.366 . S
C2611 C2613 1.388 . S
C2612 C2611 1.366 . S
C2612 C2616 1.385 . S
C2613 H2588 0.951 . S
C2613 C2611 1.388 . S
C2613 C2614 1.366 . S
C2614 C2613 1.366 . S
C2614 C2615 1.414 . S
C2614 C2617 1.499 . S
C2615 H2589 0.950 . S
C2615 C2614 1.414 . S
C2615 C2616 1.374 . S
C2616 H2590 0.950 . S
C2616 C2612 1.385 . S
C2616 C2615 1.374 . S
C2617 C2614 1.499 . S
C2617 C2618 1.373 . S
C2617 C2619 1.389 . S
C2618 H2591 0.950 . S
C2618 C2604 1.377 . S
C2618 C2617 1.373 . S
C2619 C2603 1.377 . S
C2619 C2617 1.389 . S
C2619 C2620 1.524 . S
C2620 C2619 1.524 . S
C2620 C2621 1.397 . S
C2620 C2625 1.363 . S
C2621 H2592 0.950 . S
C2621 C2620 1.397 . S
C2621 C2622 1.334 . S
C2622 H2593 0.950 . S
C2622 C2621 1.334 . S
C2622 C2623 1.287 . S
C2623 C2622 1.287 . S
C2623 C2624 1.524 . S
C2623 H2626 0.999 . S
C2624 H2594 0.950 . S
C2624 C2623 1.524 . S
C2624 C2625 1.415 . S
C2625 H2595 0.950 . S
C2625 C2620 1.363 . S
C2625 C2624 1.415 . S
H2626 C2623 0.999 . S
H2627 C2608 0.913 . S
H2628 C2646 0.951 . S
H2629 C2648 0.951 . S
H2630 C2650 0.950 . S
H2631 C2651 0.950 . S
H2632 C2653 0.950 . S
H2633 C2656 0.950 . S
H2634 C2657 0.950 . S
H2635 C2659 0.950 . S
H2636 C2660 0.950 . S
H2637 C2661 0.951 . S
H2638 C2663 0.951 . S
H2639 C2665 0.950 . S
H2640 C2666 0.950 . S
H2641 C2668 0.950 . S
H2642 C2671 0.950 . S
H2643 C2672 0.950 . S
H2644 C2674 0.950 . S
H2645 C2675 0.950 . S
C2646 H2628 0.951 . S
C2646 C2647 1.366 . S
C2646 C2648 1.388 . S
C2647 C2646 1.366 . S
C2647 C2651 1.385 . S
C2648 H2629 0.951 . S
C2648 C2646 1.388 . S
C2648 C2649 1.366 . S
C2649 C2648 1.366 . S
C2649 C2650 1.414 . S
C2649 C2652 1.499 . S
C2650 H2630 0.950 . S
C2650 C2649 1.414 . S
C2650 C2651 1.374 . S
C2651 H2631 0.950 . S
C2651 C2647 1.385 . S
C2651 C2650 1.374 . S
C2652 C2649 1.499 . S
C2652 C2653 1.373 . S
C2652 C2654 1.389 . S
C2653 H2632 0.950 . S
C2653 C2652 1.373 . S
C2653 C2669 1.377 . S
C2654 C2652 1.389 . S
C2654 C2655 1.524 . S
C2654 C2668 1.377 . S
C2655 C2654 1.524 . S
C2655 C2656 1.397 . S
C2655 C2660 1.363 . S
C2656 H2633 0.950 . S
C2656 C2655 1.397 . S
C2656 C2657 1.334 . S
C2657 H2634 0.950 . S
C2657 C2656 1.334 . S
C2657 C2658 1.287 . S
C2658 C2657 1.287 . S
C2658 C2659 1.524 . S
C2658 H2677 0.913 . S
C2659 H2635 0.950 . S
C2659 C2658 1.524 . S
C2659 C2660 1.415 . S
C2660 H2636 0.950 . S
C2660 C2655 1.363 . S
C2660 C2659 1.415 . S
C2661 H2637 0.951 . S
C2661 C2662 1.366 . S
C2661 C2663 1.388 . S
C2662 C2661 1.366 . S
C2662 C2666 1.385 . S
C2663 H2638 0.951 . S
C2663 C2661 1.388 . S
C2663 C2664 1.366 . S
C2664 C2663 1.366 . S
C2664 C2665 1.414 . S
C2664 C2667 1.499 . S
C2665 H2639 0.950 . S
C2665 C2664 1.414 . S
C2665 C2666 1.374 . S
C2666 H2640 0.950 . S
C2666 C2662 1.385 . S
C2666 C2665 1.374 . S
C2667 C2664 1.499 . S
C2667 C2668 1.373 . S
C2667 C2669 1.389 . S
C2668 H2641 0.950 . S
C2668 C2654 1.377 . S
C2668 C2667 1.373 . S
C2669 C2653 1.377 . S
C2669 C2667 1.389 . S
C2669 C2670 1.524 . S
C2670 C2669 1.524 . S
C2670 C2671 1.397 . S
C2670 C2675 1.363 . S
C2671 H2642 0.950 . S
C2671 C2670 1.397 . S
C2671 C2672 1.334 . S
C2672 H2643 0.950 . S
C2672 C2671 1.334 . S
C2672 C2673 1.287 . S
C2673 C2672 1.287 . S
C2673 C2674 1.524 . S
C2673 H2676 0.999 . S
C2674 H2644 0.950 . S
C2674 C2673 1.524 . S
C2674 C2675 1.415 . S
C2675 H2645 0.950 . S
C2675 C2670 1.363 . S
C2675 C2674 1.415 . S
H2676 C2673 0.999 . S
H2677 C2658 0.913 . S
H2678 C2696 0.951 . S
H2679 C2698 0.951 . S
H2680 C2700 0.950 . S
H2681 C2701 0.950 . S
H2682 C2703 0.950 . S
H2683 C2706 0.950 . S
H2684 C2707 0.950 . S
H2685 C2709 0.950 . S
H2686 C2710 0.950 . S
H2687 C2711 0.951 . S
H2688 C2713 0.951 . S
H2689 C2715 0.950 . S
H2690 C2716 0.950 . S
H2691 C2718 0.950 . S
H2692 C2721 0.950 . S
H2693 C2722 0.950 . S
H2694 C2724 0.950 . S
H2695 C2725 0.950 . S
C2696 H2678 0.951 . S
C2696 C2697 1.366 . S
C2696 C2698 1.388 . S
C2697 C2696 1.366 . S
C2697 C2701 1.385 . S
C2698 H2679 0.951 . S
C2698 C2696 1.388 . S
C2698 C2699 1.366 . S
C2699 C2698 1.366 . S
C2699 C2700 1.414 . S
C2699 C2702 1.499 . S
C2700 H2680 0.950 . S
C2700 C2699 1.414 . S
C2700 C2701 1.374 . S
C2701 H2681 0.950 . S
C2701 C2697 1.385 . S
C2701 C2700 1.374 . S
C2702 C2699 1.499 . S
C2702 C2703 1.373 . S
C2702 C2704 1.389 . S
C2703 H2682 0.950 . S
C2703 C2702 1.373 . S
C2703 C2719 1.377 1_545 S
C2704 C2702 1.389 . S
C2704 C2705 1.524 . S
C2704 C2718 1.377 1_545 S
C2705 C2704 1.524 . S
C2705 C2706 1.397 . S
C2705 C2710 1.363 . S
C2706 H2683 0.950 . S
C2706 C2705 1.397 . S
C2706 C2707 1.334 . S
C2707 H2684 0.950 . S
C2707 C2706 1.334 . S
C2707 C2708 1.287 . S
C2708 C2707 1.287 . S
C2708 C2709 1.524 . S
C2708 H2727 0.913 . S
C2709 H2685 0.950 . S
C2709 C2708 1.524 . S
C2709 C2710 1.415 . S
C2710 H2686 0.950 . S
C2710 C2705 1.363 . S
C2710 C2709 1.415 . S
C2711 H2687 0.951 . S
C2711 C2712 1.366 . S
C2711 C2713 1.388 . S
C2712 C2711 1.366 . S
C2712 C2716 1.385 . S
C2713 H2688 0.951 . S
C2713 C2711 1.388 . S
C2713 C2714 1.366 . S
C2714 C2713 1.366 . S
C2714 C2715 1.414 . S
C2714 C2717 1.499 . S
C2715 H2689 0.950 . S
C2715 C2714 1.414 . S
C2715 C2716 1.374 . S
C2716 H2690 0.950 . S
C2716 C2712 1.385 . S
C2716 C2715 1.374 . S
C2717 C2714 1.499 . S
C2717 C2718 1.373 . S
C2717 C2719 1.389 . S
C2718 H2691 0.950 . S
C2718 C2704 1.377 1_565 S
C2718 C2717 1.373 . S
C2719 C2703 1.377 1_565 S
C2719 C2717 1.389 . S
C2719 C2720 1.524 . S
C2720 C2719 1.524 . S
C2720 C2721 1.397 . S
C2720 C2725 1.363 . S
C2721 H2692 0.950 . S
C2721 C2720 1.397 . S
C2721 C2722 1.334 . S
C2722 H2693 0.950 . S
C2722 C2721 1.334 . S
C2722 C2723 1.287 . S
C2723 C2722 1.287 . S
C2723 C2724 1.524 . S
C2723 H2726 0.999 . S
C2724 H2694 0.950 . S
C2724 C2723 1.524 . S
C2724 C2725 1.415 . S
C2725 H2695 0.950 . S
C2725 C2720 1.363 . S
C2725 C2724 1.415 . S
H2726 C2723 0.999 . S
H2727 C2708 0.913 . S
H2728 C2746 0.951 . S
H2729 C2748 0.951 . S
H2730 C2750 0.950 . S
H2731 C2751 0.950 . S
H2732 C2753 0.950 . S
H2733 C2756 0.950 . S
H2734 C2757 0.950 . S
H2735 C2759 0.950 . S
H2736 C2760 0.950 . S
H2737 C2761 0.951 . S
H2738 C2763 0.951 . S
H2739 C2765 0.950 . S
H2740 C2766 0.950 . S
H2741 C2768 0.950 . S
H2742 C2771 0.950 . S
H2743 C2772 0.950 . S
H2744 C2774 0.950 . S
H2745 C2775 0.950 . S
C2746 H2728 0.951 . S
C2746 C2747 1.366 . S
C2746 C2748 1.388 . S
C2747 C2746 1.366 . S
C2747 C2751 1.385 . S
C2748 H2729 0.951 . S
C2748 C2746 1.388 . S
C2748 C2749 1.366 . S
C2749 C2748 1.366 . S
C2749 C2750 1.414 . S
C2749 C2752 1.499 . S
C2750 H2730 0.950 . S
C2750 C2749 1.414 . S
C2750 C2751 1.374 . S
C2751 H2731 0.950 . S
C2751 C2747 1.385 . S
C2751 C2750 1.374 . S
C2752 C2749 1.499 . S
C2752 C2753 1.373 . S
C2752 C2754 1.389 . S
C2753 H2732 0.950 . S
C2753 C2752 1.373 . S
C2753 C2769 1.377 1_554 S
C2754 C2752 1.389 . S
C2754 C2755 1.524 . S
C2754 C2768 1.377 1_554 S
C2755 C2754 1.524 . S
C2755 C2756 1.397 . S
C2755 C2760 1.363 . S
C2756 H2733 0.950 . S
C2756 C2755 1.397 . S
C2756 C2757 1.334 . S
C2757 H2734 0.950 . S
C2757 C2756 1.334 . S
C2757 C2758 1.287 . S
C2758 C2757 1.287 . S
C2758 C2759 1.524 . S
C2758 H2777 0.913 . S
C2759 H2735 0.950 . S
C2759 C2758 1.524 . S
C2759 C2760 1.415 . S
C2760 H2736 0.950 . S
C2760 C2755 1.363 . S
C2760 C2759 1.415 . S
C2761 H2737 0.951 . S
C2761 C2762 1.366 . S
C2761 C2763 1.388 . S
C2762 C2761 1.366 . S
C2762 C2766 1.385 . S
C2763 H2738 0.951 . S
C2763 C2761 1.388 . S
C2763 C2764 1.366 . S
C2764 C2763 1.366 . S
C2764 C2765 1.414 . S
C2764 C2767 1.499 . S
C2765 H2739 0.950 . S
C2765 C2764 1.414 . S
C2765 C2766 1.374 . S
C2766 H2740 0.950 . S
C2766 C2762 1.385 . S
C2766 C2765 1.374 . S
C2767 C2764 1.499 . S
C2767 C2768 1.373 . S
C2767 C2769 1.389 . S
C2768 H2741 0.950 . S
C2768 C2754 1.377 1_556 S
C2768 C2767 1.373 . S
C2769 C2753 1.377 1_556 S
C2769 C2767 1.389 . S
C2769 C2770 1.524 . S
C2770 C2769 1.524 . S
C2770 C2771 1.397 . S
C2770 C2775 1.363 . S
C2771 H2742 0.950 . S
C2771 C2770 1.397 . S
C2771 C2772 1.334 . S
C2772 H2743 0.950 . S
C2772 C2771 1.334 . S
C2772 C2773 1.287 . S
C2773 C2772 1.287 . S
C2773 C2774 1.524 . S
C2773 H2776 0.999 . S
C2774 H2744 0.950 . S
C2774 C2773 1.524 . S
C2774 C2775 1.415 . S
C2775 H2745 0.950 . S
C2775 C2770 1.363 . S
C2775 C2774 1.415 . S
H2776 C2773 0.999 . S
H2777 C2758 0.913 . S
H2778 C2796 0.951 . S
H2779 C2798 0.951 . S
H2780 C2800 0.950 . S
H2781 C2801 0.950 . S
H2782 C2803 0.950 . S
H2783 C2806 0.950 . S
H2784 C2807 0.950 . S
H2785 C2809 0.950 . S
H2786 C2810 0.950 . S
H2787 C2811 0.951 . S
H2788 C2813 0.951 . S
H2789 C2815 0.950 . S
H2790 C2816 0.950 . S
H2791 C2818 0.950 . S
H2792 C2821 0.950 . S
H2793 C2822 0.950 . S
H2794 C2824 0.950 . S
H2795 C2825 0.950 . S
C2796 H2778 0.951 . S
C2796 C2797 1.366 . S
C2796 C2798 1.388 . S
C2797 C2796 1.366 . S
C2797 C2801 1.385 . S
C2798 H2779 0.951 . S
C2798 C2796 1.388 . S
C2798 C2799 1.366 . S
C2799 C2798 1.366 . S
C2799 C2800 1.414 . S
C2799 C2802 1.499 . S
C2800 H2780 0.950 . S
C2800 C2799 1.414 . S
C2800 C2801 1.374 . S
C2801 H2781 0.950 . S
C2801 C2797 1.385 . S
C2801 C2800 1.374 . S
C2802 C2799 1.499 . S
C2802 C2803 1.373 . S
C2802 C2804 1.389 . S
C2803 H2782 0.950 . S
C2803 C2802 1.373 . S
C2803 C2819 1.377 . S
C2804 C2802 1.389 . S
C2804 C2805 1.524 . S
C2804 C2818 1.377 . S
C2805 C2804 1.524 . S
C2805 C2806 1.397 . S
C2805 C2810 1.363 . S
C2806 H2783 0.950 . S
C2806 C2805 1.397 . S
C2806 C2807 1.334 . S
C2807 H2784 0.950 . S
C2807 C2806 1.334 . S
C2807 C2808 1.287 . S
C2808 C2807 1.287 . S
C2808 C2809 1.524 . S
C2808 H2827 0.913 . S
C2809 H2785 0.950 . S
C2809 C2808 1.524 . S
C2809 C2810 1.415 . S
C2810 H2786 0.950 . S
C2810 C2805 1.363 . S
C2810 C2809 1.415 . S
C2811 H2787 0.951 . S
C2811 C2812 1.366 . S
C2811 C2813 1.388 . S
C2812 C2811 1.366 . S
C2812 C2816 1.385 . S
C2813 H2788 0.951 . S
C2813 C2811 1.388 . S
C2813 C2814 1.366 . S
C2814 C2813 1.366 . S
C2814 C2815 1.414 . S
C2814 C2817 1.499 . S
C2815 H2789 0.950 . S
C2815 C2814 1.414 . S
C2815 C2816 1.374 . S
C2816 H2790 0.950 . S
C2816 C2812 1.385 . S
C2816 C2815 1.374 . S
C2817 C2814 1.499 . S
C2817 C2818 1.373 . S
C2817 C2819 1.389 . S
C2818 H2791 0.950 . S
C2818 C2804 1.377 . S
C2818 C2817 1.373 . S
C2819 C2803 1.377 . S
C2819 C2817 1.389 . S
C2819 C2820 1.524 . S
C2820 C2819 1.524 . S
C2820 C2821 1.397 . S
C2820 C2825 1.363 . S
C2821 H2792 0.950 . S
C2821 C2820 1.397 . S
C2821 C2822 1.334 . S
C2822 H2793 0.950 . S
C2822 C2821 1.334 . S
C2822 C2823 1.287 . S
C2823 C2822 1.287 . S
C2823 C2824 1.524 . S
C2823 H2826 0.999 . S
C2824 H2794 0.950 . S
C2824 C2823 1.524 . S
C2824 C2825 1.415 . S
C2825 H2795 0.950 . S
C2825 C2820 1.363 . S
C2825 C2824 1.415 . S
H2826 C2823 0.999 . S
H2827 C2808 0.913 . S
H2828 C2846 0.951 . S
H2829 C2848 0.951 . S
H2830 C2850 0.950 . S
H2831 C2851 0.950 . S
H2832 C2853 0.950 . S
H2833 C2856 0.950 . S
H2834 C2857 0.950 . S
H2835 C2859 0.950 . S
H2836 C2860 0.950 . S
H2837 C2861 0.951 . S
H2838 C2863 0.951 . S
H2839 C2865 0.950 . S
H2840 C2866 0.950 . S
H2841 C2868 0.950 . S
H2842 C2871 0.950 . S
H2843 C2872 0.950 . S
H2844 C2874 0.950 . S
H2845 C2875 0.950 . S
C2846 H2828 0.951 . S
C2846 C2847 1.366 . S
C2846 C2848 1.388 . S
C2847 C2846 1.366 . S
C2847 C2851 1.385 . S
C2848 H2829 0.951 . S
C2848 C2846 1.388 . S
C2848 C2849 1.366 . S
C2849 C2848 1.366 . S
C2849 C2850 1.414 . S
C2849 C2852 1.499 . S
C2850 H2830 0.950 . S
C2850 C2849 1.414 . S
C2850 C2851 1.374 . S
C2851 H2831 0.950 . S
C2851 C2847 1.385 . S
C2851 C2850 1.374 . S
C2852 C2849 1.499 . S
C2852 C2853 1.373 . S
C2852 C2854 1.389 . S
C2853 H2832 0.950 . S
C2853 C2852 1.373 . S
C2853 C2869 1.377 . S
C2854 C2852 1.389 . S
C2854 C2855 1.524 . S
C2854 C2868 1.377 . S
C2855 C2854 1.524 . S
C2855 C2856 1.397 . S
C2855 C2860 1.363 . S
C2856 H2833 0.950 . S
C2856 C2855 1.397 . S
C2856 C2857 1.334 . S
C2857 H2834 0.950 . S
C2857 C2856 1.334 . S
C2857 C2858 1.287 . S
C2858 C2857 1.287 . S
C2858 C2859 1.524 . S
C2858 H2877 0.913 . S
C2859 H2835 0.950 . S
C2859 C2858 1.524 . S
C2859 C2860 1.415 . S
C2860 H2836 0.950 . S
C2860 C2855 1.363 . S
C2860 C2859 1.415 . S
C2861 H2837 0.951 . S
C2861 C2862 1.366 . S
C2861 C2863 1.388 . S
C2862 C2861 1.366 . S
C2862 C2866 1.385 . S
C2863 H2838 0.951 . S
C2863 C2861 1.388 . S
C2863 C2864 1.366 . S
C2864 C2863 1.366 . S
C2864 C2865 1.414 . S
C2864 C2867 1.499 . S
C2865 H2839 0.950 . S
C2865 C2864 1.414 . S
C2865 C2866 1.374 . S
C2866 H2840 0.950 . S
C2866 C2862 1.385 . S
C2866 C2865 1.374 . S
C2867 C2864 1.499 . S
C2867 C2868 1.373 . S
C2867 C2869 1.389 . S
C2868 H2841 0.950 . S
C2868 C2854 1.377 . S
C2868 C2867 1.373 . S
C2869 C2853 1.377 . S
C2869 C2867 1.389 . S
C2869 C2870 1.524 . S
C2870 C2869 1.524 . S
C2870 C2871 1.397 . S
C2870 C2875 1.363 . S
C2871 H2842 0.950 . S
C2871 C2870 1.397 . S
C2871 C2872 1.334 . S
C2872 H2843 0.950 . S
C2872 C2871 1.334 . S
C2872 C2873 1.287 . S
C2873 C2872 1.287 . S
C2873 C2874 1.524 . S
C2873 H2876 0.999 . S
C2874 H2844 0.950 . S
C2874 C2873 1.524 . S
C2874 C2875 1.415 . S
C2875 H2845 0.950 . S
C2875 C2870 1.363 . S
C2875 C2874 1.415 . S
H2876 C2873 0.999 . S
H2877 C2858 0.913 . S
H2878 C2896 0.951 . S
H2879 C2898 0.951 . S
H2880 C2900 0.950 . S
H2881 C2901 0.950 . S
H2882 C2903 0.950 . S
H2883 C2906 0.950 . S
H2884 C2907 0.950 . S
H2885 C2909 0.950 . S
H2886 C2910 0.950 . S
H2887 C2911 0.951 . S
H2888 C2913 0.951 . S
H2889 C2915 0.950 . S
H2890 C2916 0.950 . S
H2891 C2918 0.950 . S
H2892 C2921 0.950 . S
H2893 C2922 0.950 . S
H2894 C2924 0.950 . S
H2895 C2925 0.950 . S
C2896 H2878 0.951 . S
C2896 C2897 1.366 . S
C2896 C2898 1.388 . S
C2897 C2896 1.366 . S
C2897 C2901 1.385 . S
C2898 H2879 0.951 . S
C2898 C2896 1.388 . S
C2898 C2899 1.366 . S
C2899 C2898 1.366 . S
C2899 C2900 1.414 . S
C2899 C2902 1.499 . S
C2900 H2880 0.950 . S
C2900 C2899 1.414 . S
C2900 C2901 1.374 . S
C2901 H2881 0.950 . S
C2901 C2897 1.385 . S
C2901 C2900 1.374 . S
C2902 C2899 1.499 . S
C2902 C2903 1.373 . S
C2902 C2904 1.389 . S
C2903 H2882 0.950 . S
C2903 C2902 1.373 . S
C2903 C2919 1.377 1_554 S
C2904 C2902 1.389 . S
C2904 C2905 1.524 . S
C2904 C2918 1.377 1_554 S
C2905 C2904 1.524 . S
C2905 C2906 1.397 . S
C2905 C2910 1.363 . S
C2906 H2883 0.950 . S
C2906 C2905 1.397 . S
C2906 C2907 1.334 . S
C2907 H2884 0.950 . S
C2907 C2906 1.334 . S
C2907 C2908 1.287 . S
C2908 C2907 1.287 . S
C2908 C2909 1.524 . S
C2908 H2927 0.913 . S
C2909 H2885 0.950 . S
C2909 C2908 1.524 . S
C2909 C2910 1.415 . S
C2910 H2886 0.950 . S
C2910 C2905 1.363 . S
C2910 C2909 1.415 . S
C2911 H2887 0.951 . S
C2911 C2912 1.366 . S
C2911 C2913 1.388 . S
C2912 C2911 1.366 . S
C2912 C2916 1.385 . S
C2913 H2888 0.951 . S
C2913 C2911 1.388 . S
C2913 C2914 1.366 . S
C2914 C2913 1.366 . S
C2914 C2915 1.414 . S
C2914 C2917 1.499 . S
C2915 H2889 0.950 . S
C2915 C2914 1.414 . S
C2915 C2916 1.374 . S
C2916 H2890 0.950 . S
C2916 C2912 1.385 . S
C2916 C2915 1.374 . S
C2917 C2914 1.499 . S
C2917 C2918 1.373 . S
C2917 C2919 1.389 . S
C2918 H2891 0.950 . S
C2918 C2904 1.377 1_556 S
C2918 C2917 1.373 . S
C2919 C2903 1.377 1_556 S
C2919 C2917 1.389 . S
C2919 C2920 1.524 . S
C2920 C2919 1.524 . S
C2920 C2921 1.397 . S
C2920 C2925 1.363 . S
C2921 H2892 0.950 . S
C2921 C2920 1.397 . S
C2921 C2922 1.334 . S
C2922 H2893 0.950 . S
C2922 C2921 1.334 . S
C2922 C2923 1.287 . S
C2923 C2922 1.287 . S
C2923 C2924 1.524 . S
C2923 H2926 0.999 . S
C2924 H2894 0.950 . S
C2924 C2923 1.524 . S
C2924 C2925 1.415 . S
C2925 H2895 0.950 . S
C2925 C2920 1.363 . S
C2925 C2924 1.415 . S
H2926 C2923 0.999 . S
H2927 C2908 0.913 . S
H2928 C2946 0.951 . S
H2929 C2948 0.951 . S
H2930 C2950 0.950 . S
H2931 C2951 0.950 . S
H2932 C2953 0.950 . S
H2933 C2956 0.950 . S
H2934 C2957 0.950 . S
H2935 C2959 0.950 . S
H2936 C2960 0.950 . S
H2937 C2961 0.951 . S
H2938 C2963 0.951 . S
H2939 C2965 0.950 . S
H2940 C2966 0.950 . S
H2941 C2968 0.950 . S
H2942 C2971 0.950 . S
H2943 C2972 0.950 . S
H2944 C2974 0.950 . S
H2945 C2975 0.950 . S
C2946 H2928 0.951 . S
C2946 C2947 1.366 . S
C2946 C2948 1.388 . S
C2947 C2946 1.366 . S
C2947 C2951 1.385 . S
C2948 H2929 0.951 . S
C2948 C2946 1.388 . S
C2948 C2949 1.366 . S
C2949 C2948 1.366 . S
C2949 C2950 1.414 . S
C2949 C2952 1.499 . S
C2950 H2930 0.950 . S
C2950 C2949 1.414 . S
C2950 C2951 1.374 . S
C2951 H2931 0.950 . S
C2951 C2947 1.385 . S
C2951 C2950 1.374 . S
C2952 C2949 1.499 . S
C2952 C2953 1.373 . S
C2952 C2954 1.389 . S
C2953 H2932 0.950 . S
C2953 C2952 1.373 . S
C2953 C2969 1.377 . S
C2954 C2952 1.389 . S
C2954 C2955 1.524 . S
C2954 C2968 1.377 . S
C2955 C2954 1.524 . S
C2955 C2956 1.397 . S
C2955 C2960 1.363 . S
C2956 H2933 0.950 . S
C2956 C2955 1.397 . S
C2956 C2957 1.334 . S
C2957 H2934 0.950 . S
C2957 C2956 1.334 . S
C2957 C2958 1.287 . S
C2958 C2957 1.287 . S
C2958 C2959 1.524 . S
C2958 H2977 0.913 . S
C2959 H2935 0.950 . S
C2959 C2958 1.524 . S
C2959 C2960 1.415 . S
C2960 H2936 0.950 . S
C2960 C2955 1.363 . S
C2960 C2959 1.415 . S
C2961 H2937 0.951 . S
C2961 C2962 1.366 . S
C2961 C2963 1.388 . S
C2962 C2961 1.366 . S
C2962 C2966 1.385 . S
C2963 H2938 0.951 . S
C2963 C2961 1.388 . S
C2963 C2964 1.366 . S
C2964 C2963 1.366 . S
C2964 C2965 1.414 . S
C2964 C2967 1.499 . S
C2965 H2939 0.950 . S
C2965 C2964 1.414 . S
C2965 C2966 1.374 . S
C2966 H2940 0.950 . S
C2966 C2962 1.385 . S
C2966 C2965 1.374 . S
C2967 C2964 1.499 . S
C2967 C2968 1.373 . S
C2967 C2969 1.389 . S
C2968 H2941 0.950 . S
C2968 C2954 1.377 . S
C2968 C2967 1.373 . S
C2969 C2953 1.377 . S
C2969 C2967 1.389 . S
C2969 C2970 1.524 . S
C2970 C2969 1.524 . S
C2970 C2971 1.397 . S
C2970 C2975 1.363 . S
C2971 H2942 0.950 . S
C2971 C2970 1.397 . S
C2971 C2972 1.334 . S
C2972 H2943 0.950 . S
C2972 C2971 1.334 . S
C2972 C2973 1.287 . S
C2973 C2972 1.287 . S
C2973 C2974 1.524 . S
C2973 H2976 0.999 . S
C2974 H2944 0.950 . S
C2974 C2973 1.524 . S
C2974 C2975 1.415 . S
C2975 H2945 0.950 . S
C2975 C2970 1.363 . S
C2975 C2974 1.415 . S
H2976 C2973 0.999 . S
H2977 C2958 0.913 . S
H2978 C2996 0.951 . S
H2979 C2998 0.951 . S
H2980 C3000 0.950 . S
H2981 C3001 0.950 . S
H2982 C3003 0.950 . S
H2983 C3006 0.950 . S
H2984 C3007 0.950 . S
H2985 C3009 0.950 . S
H2986 C3010 0.950 . S
H2987 C3011 0.951 . S
H2988 C3013 0.951 . S
H2989 C3015 0.950 . S
H2990 C3016 0.950 . S
H2991 C3018 0.950 . S
H2992 C3021 0.950 . S
H2993 C3022 0.950 . S
H2994 C3024 0.950 . S
H2995 C3025 0.950 . S
C2996 H2978 0.951 . S
C2996 C2997 1.366 . S
C2996 C2998 1.388 . S
C2997 C2996 1.366 . S
C2997 C3001 1.385 . S
C2998 H2979 0.951 . S
C2998 C2996 1.388 . S
C2998 C2999 1.366 . S
C2999 C2998 1.366 . S
C2999 C3000 1.414 . S
C2999 C3002 1.499 . S
C3000 H2980 0.950 . S
C3000 C2999 1.414 . S
C3000 C3001 1.374 . S
C3001 H2981 0.950 . S
C3001 C2997 1.385 . S
C3001 C3000 1.374 . S
C3002 C2999 1.499 . S
C3002 C3003 1.373 . S
C3002 C3004 1.389 . S
C3003 H2982 0.950 . S
C3003 C3002 1.373 . S
C3003 C3019 1.377 . S
C3004 C3002 1.389 . S
C3004 C3005 1.524 . S
C3004 C3018 1.377 . S
C3005 C3004 1.524 . S
C3005 C3006 1.397 . S
C3005 C3010 1.363 . S
C3006 H2983 0.950 . S
C3006 C3005 1.397 . S
C3006 C3007 1.334 . S
C3007 H2984 0.950 . S
C3007 C3006 1.334 . S
C3007 C3008 1.287 . S
C3008 C3007 1.287 . S
C3008 C3009 1.524 . S
C3008 H3027 0.913 . S
C3009 H2985 0.950 . S
C3009 C3008 1.524 . S
C3009 C3010 1.415 . S
C3010 H2986 0.950 . S
C3010 C3005 1.363 . S
C3010 C3009 1.415 . S
C3011 H2987 0.951 . S
C3011 C3012 1.366 . S
C3011 C3013 1.388 . S
C3012 C3011 1.366 . S
C3012 C3016 1.385 . S
C3013 H2988 0.951 . S
C3013 C3011 1.388 . S
C3013 C3014 1.366 . S
C3014 C3013 1.366 . S
C3014 C3015 1.414 . S
C3014 C3017 1.499 . S
C3015 H2989 0.950 . S
C3015 C3014 1.414 . S
C3015 C3016 1.374 . S
C3016 H2990 0.950 . S
C3016 C3012 1.385 . S
C3016 C3015 1.374 . S
C3017 C3014 1.499 . S
C3017 C3018 1.373 . S
C3017 C3019 1.389 . S
C3018 H2991 0.950 . S
C3018 C3004 1.377 . S
C3018 C3017 1.373 . S
C3019 C3003 1.377 . S
C3019 C3017 1.389 . S
C3019 C3020 1.524 . S
C3020 C3019 1.524 . S
C3020 C3021 1.397 . S
C3020 C3025 1.363 . S
C3021 H2992 0.950 . S
C3021 C3020 1.397 . S
C3021 C3022 1.334 . S
C3022 H2993 0.950 . S
C3022 C3021 1.334 . S
C3022 C3023 1.287 . S
C3023 C3022 1.287 . S
C3023 C3024 1.524 . S
C3023 H3026 0.999 . S
C3024 H2994 0.950 . S
C3024 C3023 1.524 . S
C3024 C3025 1.415 . S
C3025 H2995 0.950 . S
C3025 C3020 1.363 . S
C3025 C3024 1.415 . S
H3026 C3023 0.999 . S
H3027 C3008 0.913 . S
H3028 C3046 0.951 . S
H3029 C3048 0.951 . S
H3030 C3050 0.950 . S
H3031 C3051 0.950 . S
H3032 C3053 0.950 . S
H3033 C3056 0.950 . S
H3034 C3057 0.950 . S
H3035 C3059 0.950 . S
H3036 C3060 0.950 . S
H3037 C3061 0.951 . S
H3038 C3063 0.951 . S
H3039 C3065 0.950 . S
H3040 C3066 0.950 . S
H3041 C3068 0.950 . S
H3042 C3071 0.950 . S
H3043 C3072 0.950 . S
H3044 C3074 0.950 . S
H3045 C3075 0.950 . S
C3046 H3028 0.951 . S
C3046 C3047 1.366 . S
C3046 C3048 1.388 . S
C3047 C3046 1.366 . S
C3047 C3051 1.385 . S
C3048 H3029 0.951 . S
C3048 C3046 1.388 . S
C3048 C3049 1.366 . S
C3049 C3048 1.366 . S
C3049 C3050 1.414 . S
C3049 C3052 1.499 . S
C3050 H3030 0.950 . S
C3050 C3049 1.414 . S
C3050 C3051 1.374 . S
C3051 H3031 0.950 . S
C3051 C3047 1.385 . S
C3051 C3050 1.374 . S
C3052 C3049 1.499 . S
C3052 C3053 1.373 . S
C3052 C3054 1.389 . S
C3053 H3032 0.950 . S
C3053 C3052 1.373 . S
C3053 C3069 1.377 . S
C3054 C3052 1.389 . S
C3054 C3055 1.524 . S
C3054 C3068 1.377 . S
C3055 C3054 1.524 . S
C3055 C3056 1.397 . S
C3055 C3060 1.363 . S
C3056 H3033 0.950 . S
C3056 C3055 1.397 . S
C3056 C3057 1.334 . S
C3057 H3034 0.950 . S
C3057 C3056 1.334 . S
C3057 C3058 1.287 . S
C3058 C3057 1.287 . S
C3058 C3059 1.524 . S
C3058 H3077 0.913 . S
C3059 H3035 0.950 . S
C3059 C3058 1.524 . S
C3059 C3060 1.415 . S
C3060 H3036 0.950 . S
C3060 C3055 1.363 . S
C3060 C3059 1.415 . S
C3061 H3037 0.951 . S
C3061 C3062 1.366 . S
C3061 C3063 1.388 . S
C3062 C3061 1.366 . S
C3062 C3066 1.385 . S
C3063 H3038 0.951 . S
C3063 C3061 1.388 . S
C3063 C3064 1.366 . S
C3064 C3063 1.366 . S
C3064 C3065 1.414 . S
C3064 C3067 1.499 . S
C3065 H3039 0.950 . S
C3065 C3064 1.414 . S
C3065 C3066 1.374 . S
C3066 H3040 0.950 . S
C3066 C3062 1.385 . S
C3066 C3065 1.374 . S
C3067 C3064 1.499 . S
C3067 C3068 1.373 . S
C3067 C3069 1.389 . S
C3068 H3041 0.950 . S
C3068 C3054 1.377 . S
C3068 C3067 1.373 . S
C3069 C3053 1.377 . S
C3069 C3067 1.389 . S
C3069 C3070 1.524 . S
C3070 C3069 1.524 . S
C3070 C3071 1.397 . S
C3070 C3075 1.363 . S
C3071 H3042 0.950 . S
C3071 C3070 1.397 . S
C3071 C3072 1.334 . S
C3072 H3043 0.950 . S
C3072 C3071 1.334 . S
C3072 C3073 1.287 . S
C3073 C3072 1.287 . S
C3073 C3074 1.524 . S
C3073 H3076 0.999 . S
C3074 H3044 0.950 . S
C3074 C3073 1.524 . S
C3074 C3075 1.415 . S
C3075 H3045 0.950 . S
C3075 C3070 1.363 . S
C3075 C3074 1.415 . S
H3076 C3073 0.999 . S
H3077 C3058 0.913 . S
H3078 C3096 0.951 . S
H3079 C3098 0.951 . S
H3080 C3100 0.950 . S
H3081 C3101 0.950 . S
H3082 C3103 0.950 . S
H3083 C3106 0.950 . S
H3084 C3107 0.950 . S
H3085 C3109 0.950 . S
H3086 C3110 0.950 . S
H3087 C3111 0.951 . S
H3088 C3113 0.951 . S
H3089 C3115 0.950 . S
H3090 C3116 0.950 . S
H3091 C3118 0.950 . S
H3092 C3121 0.950 . S
H3093 C3122 0.950 . S
H3094 C3124 0.950 . S
H3095 C3125 0.950 . S
C3096 H3078 0.951 . S
C3096 C3097 1.366 . S
C3096 C3098 1.388 . S
C3097 C3096 1.366 . S
C3097 C3101 1.385 . S
C3098 H3079 0.951 . S
C3098 C3096 1.388 . S
C3098 C3099 1.366 . S
C3099 C3098 1.366 . S
C3099 C3100 1.414 . S
C3099 C3102 1.499 . S
C3100 H3080 0.950 . S
C3100 C3099 1.414 . S
C3100 C3101 1.374 . S
C3101 H3081 0.950 . S
C3101 C3097 1.385 . S
C3101 C3100 1.374 . S
C3102 C3099 1.499 . S
C3102 C3103 1.373 . S
C3102 C3104 1.389 . S
C3103 H3082 0.950 . S
C3103 C3102 1.373 . S
C3103 C3119 1.377 . S
C3104 C3102 1.389 . S
C3104 C3105 1.524 . S
C3104 C3118 1.377 . S
C3105 C3104 1.524 . S
C3105 C3106 1.397 . S
C3105 C3110 1.363 . S
C3106 H3083 0.950 . S
C3106 C3105 1.397 . S
C3106 C3107 1.334 . S
C3107 H3084 0.950 . S
C3107 C3106 1.334 . S
C3107 C3108 1.287 . S
C3108 C3107 1.287 . S
C3108 C3109 1.524 . S
C3108 H3127 0.913 . S
C3109 H3085 0.950 . S
C3109 C3108 1.524 . S
C3109 C3110 1.415 . S
C3110 H3086 0.950 . S
C3110 C3105 1.363 . S
C3110 C3109 1.415 . S
C3111 H3087 0.951 . S
C3111 C3112 1.366 . S
C3111 C3113 1.388 . S
C3112 C3111 1.366 . S
C3112 C3116 1.385 . S
C3113 H3088 0.951 . S
C3113 C3111 1.388 . S
C3113 C3114 1.366 . S
C3114 C3113 1.366 . S
C3114 C3115 1.414 . S
C3114 C3117 1.499 . S
C3115 H3089 0.950 . S
C3115 C3114 1.414 . S
C3115 C3116 1.374 . S
C3116 H3090 0.950 . S
C3116 C3112 1.385 . S
C3116 C3115 1.374 . S
C3117 C3114 1.499 . S
C3117 C3118 1.373 . S
C3117 C3119 1.389 . S
C3118 H3091 0.950 . S
C3118 C3104 1.377 . S
C3118 C3117 1.373 . S
C3119 C3103 1.377 . S
C3119 C3117 1.389 . S
C3119 C3120 1.524 . S
C3120 C3119 1.524 . S
C3120 C3121 1.397 . S
C3120 C3125 1.363 . S
C3121 H3092 0.950 . S
C3121 C3120 1.397 . S
C3121 C3122 1.334 . S
C3122 H3093 0.950 . S
C3122 C3121 1.334 . S
C3122 C3123 1.287 . S
C3123 C3122 1.287 . S
C3123 C3124 1.524 . S
C3123 H3126 0.999 . S
C3124 H3094 0.950 . S
C3124 C3123 1.524 . S
C3124 C3125 1.415 . S
C3125 H3095 0.950 . S
C3125 C3120 1.363 . S
C3125 C3124 1.415 . S
H3126 C3123 0.999 . S
H3127 C3108 0.913 . S
H3128 C3146 0.951 . S
H3129 C3148 0.951 . S
H3130 C3150 0.950 . S
H3131 C3151 0.950 . S
H3132 C3153 0.950 . S
H3133 C3156 0.950 . S
H3134 C3157 0.950 . S
H3135 C3159 0.950 . S
H3136 C3160 0.950 . S
H3137 C3161 0.951 . S
H3138 C3163 0.951 . S
H3139 C3165 0.950 . S
H3140 C3166 0.950 . S
H3141 C3168 0.950 . S
H3142 C3171 0.950 . S
H3143 C3172 0.950 . S
H3144 C3174 0.950 . S
H3145 C3175 0.950 . S
C3146 H3128 0.951 . S
C3146 C3147 1.366 . S
C3146 C3148 1.388 . S
C3147 C3146 1.366 . S
C3147 C3151 1.385 . S
C3148 H3129 0.951 . S
C3148 C3146 1.388 . S
C3148 C3149 1.366 . S
C3149 C3148 1.366 . S
C3149 C3150 1.414 . S
C3149 C3152 1.499 . S
C3150 H3130 0.950 . S
C3150 C3149 1.414 . S
C3150 C3151 1.374 . S
C3151 H3131 0.950 . S
C3151 C3147 1.385 . S
C3151 C3150 1.374 . S
C3152 C3149 1.499 . S
C3152 C3153 1.373 . S
C3152 C3154 1.389 . S
C3153 H3132 0.950 . S
C3153 C3152 1.373 . S
C3153 C3169 1.377 . S
C3154 C3152 1.389 . S
C3154 C3155 1.524 . S
C3154 C3168 1.377 . S
C3155 C3154 1.524 . S
C3155 C3156 1.397 . S
C3155 C3160 1.363 . S
C3156 H3133 0.950 . S
C3156 C3155 1.397 . S
C3156 C3157 1.334 . S
C3157 H3134 0.950 . S
C3157 C3156 1.334 . S
C3157 C3158 1.287 . S
C3158 C3157 1.287 . S
C3158 C3159 1.524 . S
C3158 H3177 0.913 . S
C3159 H3135 0.950 . S
C3159 C3158 1.524 . S
C3159 C3160 1.415 . S
C3160 H3136 0.950 . S
C3160 C3155 1.363 . S
C3160 C3159 1.415 . S
C3161 H3137 0.951 . S
C3161 C3162 1.366 . S
C3161 C3163 1.388 . S
C3162 C3161 1.366 . S
C3162 C3166 1.385 . S
C3163 H3138 0.951 . S
C3163 C3161 1.388 . S
C3163 C3164 1.366 . S
C3164 C3163 1.366 . S
C3164 C3165 1.414 . S
C3164 C3167 1.499 . S
C3165 H3139 0.950 . S
C3165 C3164 1.414 . S
C3165 C3166 1.374 . S
C3166 H3140 0.950 . S
C3166 C3162 1.385 . S
C3166 C3165 1.374 . S
C3167 C3164 1.499 . S
C3167 C3168 1.373 . S
C3167 C3169 1.389 . S
C3168 H3141 0.950 . S
C3168 C3154 1.377 . S
C3168 C3167 1.373 . S
C3169 C3153 1.377 . S
C3169 C3167 1.389 . S
C3169 C3170 1.524 . S
C3170 C3169 1.524 . S
C3170 C3171 1.397 . S
C3170 C3175 1.363 . S
C3171 H3142 0.950 . S
C3171 C3170 1.397 . S
C3171 C3172 1.334 . S
C3172 H3143 0.950 . S
C3172 C3171 1.334 . S
C3172 C3173 1.287 . S
C3173 C3172 1.287 . S
C3173 C3174 1.524 . S
C3173 H3176 0.999 . S
C3174 H3144 0.950 . S
C3174 C3173 1.524 . S
C3174 C3175 1.415 . S
C3175 H3145 0.950 . S
C3175 C3170 1.363 . S
C3175 C3174 1.415 . S
H3176 C3173 0.999 . S
H3177 C3158 0.913 . S
H3178 C3196 0.951 . S
H3179 C3198 0.951 . S
H3180 C3200 0.950 . S
H3181 C3201 0.950 . S
H3182 C3203 0.950 . S
H3183 C3206 0.950 . S
H3184 C3207 0.950 . S
H3185 C3209 0.950 . S
H3186 C3210 0.950 . S
H3187 C3211 0.951 . S
H3188 C3213 0.951 . S
H3189 C3215 0.950 . S
H3190 C3216 0.950 . S
H3191 C3218 0.950 . S
H3192 C3221 0.950 . S
H3193 C3222 0.950 . S
H3194 C3224 0.950 . S
H3195 C3225 0.950 . S
C3196 H3178 0.951 . S
C3196 C3197 1.366 . S
C3196 C3198 1.388 . S
C3197 C3196 1.366 . S
C3197 C3201 1.385 . S
C3198 H3179 0.951 . S
C3198 C3196 1.388 . S
C3198 C3199 1.366 . S
C3199 C3198 1.366 . S
C3199 C3200 1.414 . S
C3199 C3202 1.499 . S
C3200 H3180 0.950 . S
C3200 C3199 1.414 . S
C3200 C3201 1.374 . S
C3201 H3181 0.950 . S
C3201 C3197 1.385 . S
C3201 C3200 1.374 . S
C3202 C3199 1.499 . S
C3202 C3203 1.373 . S
C3202 C3204 1.389 . S
C3203 H3182 0.950 . S
C3203 C3202 1.373 . S
C3203 C3219 1.377 . S
C3204 C3202 1.389 . S
C3204 C3205 1.524 . S
C3204 C3218 1.377 . S
C3205 C3204 1.524 . S
C3205 C3206 1.397 . S
C3205 C3210 1.363 . S
C3206 H3183 0.950 . S
C3206 C3205 1.397 . S
C3206 C3207 1.334 . S
C3207 H3184 0.950 . S
C3207 C3206 1.334 . S
C3207 C3208 1.287 . S
C3208 C3207 1.287 . S
C3208 C3209 1.524 . S
C3208 H3227 0.913 . S
C3209 H3185 0.950 . S
C3209 C3208 1.524 . S
C3209 C3210 1.415 . S
C3210 H3186 0.950 . S
C3210 C3205 1.363 . S
C3210 C3209 1.415 . S
C3211 H3187 0.951 . S
C3211 C3212 1.366 . S
C3211 C3213 1.388 . S
C3212 C3211 1.366 . S
C3212 C3216 1.385 . S
C3213 H3188 0.951 . S
C3213 C3211 1.388 . S
C3213 C3214 1.366 . S
C3214 C3213 1.366 . S
C3214 C3215 1.414 . S
C3214 C3217 1.499 . S
C3215 H3189 0.950 . S
C3215 C3214 1.414 . S
C3215 C3216 1.374 . S
C3216 H3190 0.950 . S
C3216 C3212 1.385 . S
C3216 C3215 1.374 . S
C3217 C3214 1.499 . S
C3217 C3218 1.373 . S
C3217 C3219 1.389 . S
C3218 H3191 0.950 . S
C3218 C3204 1.377 . S
C3218 C3217 1.373 . S
C3219 C3203 1.377 . S
C3219 C3217 1.389 . S
C3219 C3220 1.524 . S
C3220 C3219 1.524 . S
C3220 C3221 1.397 . S
C3220 C3225 1.363 . S
C3221 H3192 0.950 . S
C3221 C3220 1.397 . S
C3221 C3222 1.334 . S
C3222 H3193 0.950 . S
C3222 C3221 1.334 . S
C3222 C3223 1.287 . S
C3223 C3222 1.287 . S
C3223 C3224 1.524 . S
C3223 H3226 0.999 . S
C3224 H3194 0.950 . S
C3224 C3223 1.524 . S
C3224 C3225 1.415 . S
C3225 H3195 0.950 . S
C3225 C3220 1.363 . S
C3225 C3224 1.415 . S
H3226 C3223 0.999 . S
H3227 C3208 0.913 . S
H3228 C3246 0.951 . S
H3229 C3248 0.951 . S
H3230 C3250 0.950 . S
H3231 C3251 0.950 . S
H3232 C3253 0.950 . S
H3233 C3256 0.950 . S
H3234 C3257 0.950 . S
H3235 C3259 0.950 . S
H3236 C3260 0.950 . S
H3237 C3261 0.951 . S
H3238 C3263 0.951 . S
H3239 C3265 0.950 . S
H3240 C3266 0.950 . S
H3241 C3268 0.950 . S
H3242 C3271 0.950 . S
H3243 C3272 0.950 . S
H3244 C3274 0.950 . S
H3245 C3275 0.950 . S
C3246 H3228 0.951 . S
C3246 C3247 1.366 . S
C3246 C3248 1.388 . S
C3247 C3246 1.366 . S
C3247 C3251 1.385 . S
C3248 H3229 0.951 . S
C3248 C3246 1.388 . S
C3248 C3249 1.366 . S
C3249 C3248 1.366 . S
C3249 C3250 1.414 . S
C3249 C3252 1.499 . S
C3250 H3230 0.950 . S
C3250 C3249 1.414 . S
C3250 C3251 1.374 . S
C3251 H3231 0.950 . S
C3251 C3247 1.385 . S
C3251 C3250 1.374 . S
C3252 C3249 1.499 . S
C3252 C3253 1.373 . S
C3252 C3254 1.389 . S
C3253 H3232 0.950 . S
C3253 C3252 1.373 . S
C3253 C3269 1.377 . S
C3254 C3252 1.389 . S
C3254 C3255 1.524 . S
C3254 C3268 1.377 . S
C3255 C3254 1.524 . S
C3255 C3256 1.397 . S
C3255 C3260 1.363 . S
C3256 H3233 0.950 . S
C3256 C3255 1.397 . S
C3256 C3257 1.334 . S
C3257 H3234 0.950 . S
C3257 C3256 1.334 . S
C3257 C3258 1.287 . S
C3258 C3257 1.287 . S
C3258 C3259 1.524 . S
C3258 H3277 0.913 . S
C3259 H3235 0.950 . S
C3259 C3258 1.524 . S
C3259 C3260 1.415 . S
C3260 H3236 0.950 . S
C3260 C3255 1.363 . S
C3260 C3259 1.415 . S
C3261 H3237 0.951 . S
C3261 C3262 1.366 . S
C3261 C3263 1.388 . S
C3262 C3261 1.366 . S
C3262 C3266 1.385 . S
C3263 H3238 0.951 . S
C3263 C3261 1.388 . S
C3263 C3264 1.366 . S
C3264 C3263 1.366 . S
C3264 C3265 1.414 . S
C3264 C3267 1.499 . S
C3265 H3239 0.950 . S
C3265 C3264 1.414 . S
C3265 C3266 1.374 . S
C3266 H3240 0.950 . S
C3266 C3262 1.385 . S
C3266 C3265 1.374 . S
C3267 C3264 1.499 . S
C3267 C3268 1.373 . S
C3267 C3269 1.389 . S
C3268 H3241 0.950 . S
C3268 C3254 1.377 . S
C3268 C3267 1.373 . S
C3269 C3253 1.377 . S
C3269 C3267 1.389 . S
C3269 C3270 1.524 . S
C3270 C3269 1.524 . S
C3270 C3271 1.397 . S
C3270 C3275 1.363 . S
C3271 H3242 0.950 . S
C3271 C3270 1.397 . S
C3271 C3272 1.334 . S
C3272 H3243 0.950 . S
C3272 C3271 1.334 . S
C3272 C3273 1.287 . S
C3273 C3272 1.287 . S
C3273 C3274 1.524 . S
C3273 H3276 0.999 . S
C3274 H3244 0.950 . S
C3274 C3273 1.524 . S
C3274 C3275 1.415 . S
C3275 H3245 0.950 . S
C3275 C3270 1.363 . S
C3275 C3274 1.415 . S
H3276 C3273 0.999 . S
H3277 C3258 0.913 . S
H3278 C3296 0.951 . S
H3279 C3298 0.951 . S
H3280 C3300 0.950 . S
H3281 C3301 0.950 . S
H3282 C3303 0.950 . S
H3283 C3306 0.950 . S
H3284 C3307 0.950 . S
H3285 C3309 0.950 . S
H3286 C3310 0.950 . S
H3287 C3311 0.951 . S
H3288 C3313 0.951 . S
H3289 C3315 0.950 . S
H3290 C3316 0.950 . S
H3291 C3318 0.950 . S
H3292 C3321 0.950 . S
H3293 C3322 0.950 . S
H3294 C3324 0.950 . S
H3295 C3325 0.950 . S
C3296 H3278 0.951 . S
C3296 C3297 1.366 . S
C3296 C3298 1.388 . S
C3297 C3296 1.366 . S
C3297 C3301 1.385 . S
C3298 H3279 0.951 . S
C3298 C3296 1.388 . S
C3298 C3299 1.366 . S
C3299 C3298 1.366 . S
C3299 C3300 1.414 . S
C3299 C3302 1.499 . S
C3300 H3280 0.950 . S
C3300 C3299 1.414 . S
C3300 C3301 1.374 . S
C3301 H3281 0.950 . S
C3301 C3297 1.385 . S
C3301 C3300 1.374 . S
C3302 C3299 1.499 . S
C3302 C3303 1.373 . S
C3302 C3304 1.389 . S
C3303 H3282 0.950 . S
C3303 C3302 1.373 . S
C3303 C3319 1.377 . S
C3304 C3302 1.389 . S
C3304 C3305 1.524 . S
C3304 C3318 1.377 . S
C3305 C3304 1.524 . S
C3305 C3306 1.397 . S
C3305 C3310 1.363 . S
C3306 H3283 0.950 . S
C3306 C3305 1.397 . S
C3306 C3307 1.334 . S
C3307 H3284 0.950 . S
C3307 C3306 1.334 . S
C3307 C3308 1.287 . S
C3308 C3307 1.287 . S
C3308 C3309 1.524 . S
C3308 H3327 0.913 . S
C3309 H3285 0.950 . S
C3309 C3308 1.524 . S
C3309 C3310 1.415 . S
C3310 H3286 0.950 . S
C3310 C3305 1.363 . S
C3310 C3309 1.415 . S
C3311 H3287 0.951 . S
C3311 C3312 1.366 . S
C3311 C3313 1.388 . S
C3312 C3311 1.366 . S
C3312 C3316 1.385 . S
C3313 H3288 0.951 . S
C3313 C3311 1.388 . S
C3313 C3314 1.366 . S
C3314 C3313 1.366 . S
C3314 C3315 1.414 . S
C3314 C3317 1.499 . S
C3315 H3289 0.950 . S
C3315 C3314 1.414 . S
C3315 C3316 1.374 . S
C3316 H3290 0.950 . S
C3316 C3312 1.385 . S
C3316 C3315 1.374 . S
C3317 C3314 1.499 . S
C3317 C3318 1.373 . S
C3317 C3319 1.389 . S
C3318 H3291 0.950 . S
C3318 C3304 1.377 . S
C3318 C3317 1.373 . S
C3319 C3303 1.377 . S
C3319 C3317 1.389 . S
C3319 C3320 1.524 . S
C3320 C3319 1.524 . S
C3320 C3321 1.397 . S
C3320 C3325 1.363 . S
C3321 H3292 0.950 . S
C3321 C3320 1.397 . S
C3321 C3322 1.334 . S
C3322 H3293 0.950 . S
C3322 C3321 1.334 . S
C3322 C3323 1.287 . S
C3323 C3322 1.287 . S
C3323 C3324 1.524 . S
C3323 H3326 0.999 . S
C3324 H3294 0.950 . S
C3324 C3323 1.524 . S
C3324 C3325 1.415 . S
C3325 H3295 0.950 . S
C3325 C3320 1.363 . S
C3325 C3324 1.415 . S
H3326 C3323 0.999 . S
H3327 C3308 0.913 . S
H3328 C3346 0.951 . S
H3329 C3348 0.951 . S
H3330 C3350 0.950 . S
H3331 C3351 0.950 . S
H3332 C3353 0.950 . S
H3333 C3356 0.950 . S
H3334 C3357 0.950 . S
H3335 C3359 0.950 . S
H3336 C3360 0.950 . S
H3337 C3361 0.951 . S
H3338 C3363 0.951 . S
H3339 C3365 0.950 . S
H3340 C3366 0.950 . S
H3341 C3368 0.950 . S
H3342 C3371 0.950 . S
H3343 C3372 0.950 . S
H3344 C3374 0.950 . S
H3345 C3375 0.950 . S
C3346 H3328 0.951 . S
C3346 C3347 1.366 . S
C3346 C3348 1.388 . S
C3347 C3346 1.366 . S
C3347 C3351 1.385 . S
C3348 H3329 0.951 . S
C3348 C3346 1.388 . S
C3348 C3349 1.366 . S
C3349 C3348 1.366 . S
C3349 C3350 1.414 . S
C3349 C3352 1.499 . S
C3350 H3330 0.950 . S
C3350 C3349 1.414 . S
C3350 C3351 1.374 . S
C3351 H3331 0.950 . S
C3351 C3347 1.385 . S
C3351 C3350 1.374 . S
C3352 C3349 1.499 . S
C3352 C3353 1.373 . S
C3352 C3354 1.389 . S
C3353 H3332 0.950 . S
C3353 C3352 1.373 . S
C3353 C3369 1.377 . S
C3354 C3352 1.389 . S
C3354 C3355 1.524 . S
C3354 C3368 1.377 . S
C3355 C3354 1.524 . S
C3355 C3356 1.397 . S
C3355 C3360 1.363 . S
C3356 H3333 0.950 . S
C3356 C3355 1.397 . S
C3356 C3357 1.334 . S
C3357 H3334 0.950 . S
C3357 C3356 1.334 . S
C3357 C3358 1.287 . S
C3358 C3357 1.287 . S
C3358 C3359 1.524 . S
C3358 H3377 0.913 . S
C3359 H3335 0.950 . S
C3359 C3358 1.524 . S
C3359 C3360 1.415 . S
C3360 H3336 0.950 . S
C3360 C3355 1.363 . S
C3360 C3359 1.415 . S
C3361 H3337 0.951 . S
C3361 C3362 1.366 . S
C3361 C3363 1.388 . S
C3362 C3361 1.366 . S
C3362 C3366 1.385 . S
C3363 H3338 0.951 . S
C3363 C3361 1.388 . S
C3363 C3364 1.366 . S
C3364 C3363 1.366 . S
C3364 C3365 1.414 . S
C3364 C3367 1.499 . S
C3365 H3339 0.950 . S
C3365 C3364 1.414 . S
C3365 C3366 1.374 . S
C3366 H3340 0.950 . S
C3366 C3362 1.385 . S
C3366 C3365 1.374 . S
C3367 C3364 1.499 . S
C3367 C3368 1.373 . S
C3367 C3369 1.389 . S
C3368 H3341 0.950 . S
C3368 C3354 1.377 . S
C3368 C3367 1.373 . S
C3369 C3353 1.377 . S
C3369 C3367 1.389 . S
C3369 C3370 1.524 . S
C3370 C3369 1.524 . S
C3370 C3371 1.397 . S
C3370 C3375 1.363 . S
C3371 H3342 0.950 . S
C3371 C3370 1.397 . S
C3371 C3372 1.334 . S
C3372 H3343 0.950 . S
C3372 C3371 1.334 . S
C3372 C3373 1.287 . S
C3373 C3372 1.287 . S
C3373 C3374 1.524 . S
C3373 H3376 0.999 . S
C3374 H3344 0.950 . S
C3374 C3373 1.524 . S
C3374 C3375 1.415 . S
C3375 H3345 0.950 . S
C3375 C3370 1.363 . S
C3375 C3374 1.415 . S
H3376 C3373 0.999 . S
H3377 C3358 0.913 . S
H3378 C3396 0.951 . S
H3379 C3398 0.951 . S
H3380 C3400 0.950 . S
H3381 C3401 0.950 . S
H3382 C3403 0.950 . S
H3383 C3406 0.950 . S
H3384 C3407 0.950 . S
H3385 C3409 0.950 . S
H3386 C3410 0.950 . S
H3387 C3411 0.951 . S
H3388 C3413 0.951 . S
H3389 C3415 0.950 . S
H3390 C3416 0.950 . S
H3391 C3418 0.950 . S
H3392 C3421 0.950 . S
H3393 C3422 0.950 . S
H3394 C3424 0.950 . S
H3395 C3425 0.950 . S
C3396 H3378 0.951 . S
C3396 C3397 1.366 . S
C3396 C3398 1.388 . S
C3397 C3396 1.366 . S
C3397 C3401 1.385 . S
C3398 H3379 0.951 . S
C3398 C3396 1.388 . S
C3398 C3399 1.366 . S
C3399 C3398 1.366 . S
C3399 C3400 1.414 . S
C3399 C3402 1.499 . S
C3400 H3380 0.950 . S
C3400 C3399 1.414 . S
C3400 C3401 1.374 . S
C3401 H3381 0.950 . S
C3401 C3397 1.385 . S
C3401 C3400 1.374 . S
C3402 C3399 1.499 . S
C3402 C3403 1.373 . S
C3402 C3404 1.389 . S
C3403 H3382 0.950 . S
C3403 C3402 1.373 . S
C3403 C3419 1.377 . S
C3404 C3402 1.389 . S
C3404 C3405 1.524 . S
C3404 C3418 1.377 . S
C3405 C3404 1.524 . S
C3405 C3406 1.397 . S
C3405 C3410 1.363 . S
C3406 H3383 0.950 . S
C3406 C3405 1.397 . S
C3406 C3407 1.334 . S
C3407 H3384 0.950 . S
C3407 C3406 1.334 . S
C3407 C3408 1.287 . S
C3408 C3407 1.287 . S
C3408 C3409 1.524 . S
C3408 H3427 0.913 . S
C3409 H3385 0.950 . S
C3409 C3408 1.524 . S
C3409 C3410 1.415 . S
C3410 H3386 0.950 . S
C3410 C3405 1.363 . S
C3410 C3409 1.415 . S
C3411 H3387 0.951 . S
C3411 C3412 1.366 . S
C3411 C3413 1.388 . S
C3412 C3411 1.366 . S
C3412 C3416 1.385 . S
C3413 H3388 0.951 . S
C3413 C3411 1.388 . S
C3413 C3414 1.366 . S
C3414 C3413 1.366 . S
C3414 C3415 1.414 . S
C3414 C3417 1.499 . S
C3415 H3389 0.950 . S
C3415 C3414 1.414 . S
C3415 C3416 1.374 . S
C3416 H3390 0.950 . S
C3416 C3412 1.385 . S
C3416 C3415 1.374 . S
C3417 C3414 1.499 . S
C3417 C3418 1.373 . S
C3417 C3419 1.389 . S
C3418 H3391 0.950 . S
C3418 C3404 1.377 . S
C3418 C3417 1.373 . S
C3419 C3403 1.377 . S
C3419 C3417 1.389 . S
C3419 C3420 1.524 . S
C3420 C3419 1.524 . S
C3420 C3421 1.397 . S
C3420 C3425 1.363 . S
C3421 H3392 0.950 . S
C3421 C3420 1.397 . S
C3421 C3422 1.334 . S
C3422 H3393 0.950 . S
C3422 C3421 1.334 . S
C3422 C3423 1.287 . S
C3423 C3422 1.287 . S
C3423 C3424 1.524 . S
C3423 H3426 0.999 . S
C3424 H3394 0.950 . S
C3424 C3423 1.524 . S
C3424 C3425 1.415 . S
C3425 H3395 0.950 . S
C3425 C3420 1.363 . S
C3425 C3424 1.415 . S
H3426 C3423 0.999 . S
H3427 C3408 0.913 . S
H3428 C3446 0.951 . S
H3429 C3448 0.951 . S
H3430 C3450 0.950 . S
H3431 C3451 0.950 . S
H3432 C3453 0.950 . S
H3433 C3456 0.950 . S
H3434 C3457 0.950 . S
H3435 C3459 0.950 . S
H3436 C3460 0.950 . S
H3437 C3461 0.951 . S
H3438 C3463 0.951 . S
H3439 C3465 0.950 . S
H3440 C3466 0.950 . S
H3441 C3468 0.950 . S
H3442 C3471 0.950 . S
H3443 C3472 0.950 . S
H3444 C3474 0.950 . S
H3445 C3475 0.950 . S
C3446 H3428 0.951 . S
C3446 C3447 1.366 . S
C3446 C3448 1.388 . S
C3447 C3446 1.366 . S
C3447 C3451 1.385 . S
C3448 H3429 0.951 . S
C3448 C3446 1.388 . S
C3448 C3449 1.366 . S
C3449 C3448 1.366 . S
C3449 C3450 1.414 . S
C3449 C3452 1.499 . S
C3450 H3430 0.950 . S
C3450 C3449 1.414 . S
C3450 C3451 1.374 . S
C3451 H3431 0.950 . S
C3451 C3447 1.385 . S
C3451 C3450 1.374 . S
C3452 C3449 1.499 . S
C3452 C3453 1.373 . S
C3452 C3454 1.389 . S
C3453 H3432 0.950 . S
C3453 C3452 1.373 . S
C3453 C3469 1.377 . S
C3454 C3452 1.389 . S
C3454 C3455 1.524 . S
C3454 C3468 1.377 . S
C3455 C3454 1.524 . S
C3455 C3456 1.397 . S
C3455 C3460 1.363 . S
C3456 H3433 0.950 . S
C3456 C3455 1.397 . S
C3456 C3457 1.334 . S
C3457 H3434 0.950 . S
C3457 C3456 1.334 . S
C3457 C3458 1.287 . S
C3458 C3457 1.287 . S
C3458 C3459 1.524 . S
C3458 H3477 0.913 . S
C3459 H3435 0.950 . S
C3459 C3458 1.524 . S
C3459 C3460 1.415 . S
C3460 H3436 0.950 . S
C3460 C3455 1.363 . S
C3460 C3459 1.415 . S
C3461 H3437 0.951 . S
C3461 C3462 1.366 . S
C3461 C3463 1.388 . S
C3462 C3461 1.366 . S
C3462 C3466 1.385 . S
C3463 H3438 0.951 . S
C3463 C3461 1.388 . S
C3463 C3464 1.366 . S
C3464 C3463 1.366 . S
C3464 C3465 1.414 . S
C3464 C3467 1.499 . S
C3465 H3439 0.950 . S
C3465 C3464 1.414 . S
C3465 C3466 1.374 . S
C3466 H3440 0.950 . S
C3466 C3462 1.385 . S
C3466 C3465 1.374 . S
C3467 C3464 1.499 . S
C3467 C3468 1.373 . S
C3467 C3469 1.389 . S
C3468 H3441 0.950 . S
C3468 C3454 1.377 . S
C3468 C3467 1.373 . S
C3469 C3453 1.377 . S
C3469 C3467 1.389 . S
C3469 C3470 1.524 . S
C3470 C3469 1.524 . S
C3470 C3471 1.397 . S
C3470 C3475 1.363 . S
C3471 H3442 0.950 . S
C3471 C3470 1.397 . S
C3471 C3472 1.334 . S
C3472 H3443 0.950 . S
C3472 C3471 1.334 . S
C3472 C3473 1.287 . S
C3473 C3472 1.287 . S
C3473 C3474 1.524 . S
C3473 H3476 0.999 . S
C3474 H3444 0.950 . S
C3474 C3473 1.524 . S
C3474 C3475 1.415 . S
C3475 H3445 0.950 . S
C3475 C3470 1.363 . S
C3475 C3474 1.415 . S
H3476 C3473 0.999 . S
H3477 C3458 0.913 . S
H3478 C3496 0.951 . S
H3479 C3498 0.951 . S
H3480 C3500 0.950 . S
H3481 C3501 0.950 . S
H3482 C3503 0.950 . S
H3483 C3506 0.950 . S
H3484 C3507 0.950 . S
H3485 C3509 0.950 . S
H3486 C3510 0.950 . S
H3487 C3511 0.951 . S
H3488 C3513 0.951 . S
H3489 C3515 0.950 . S
H3490 C3516 0.950 . S
H3491 C3518 0.950 . S
H3492 C3521 0.950 . S
H3493 C3522 0.950 . S
H3494 C3524 0.950 . S
H3495 C3525 0.950 . S
C3496 H3478 0.951 . S
C3496 C3497 1.366 . S
C3496 C3498 1.388 . S
C3497 C3496 1.366 . S
C3497 C3501 1.385 . S
C3498 H3479 0.951 . S
C3498 C3496 1.388 . S
C3498 C3499 1.366 . S
C3499 C3498 1.366 . S
C3499 C3500 1.414 . S
C3499 C3502 1.499 . S
C3500 H3480 0.950 . S
C3500 C3499 1.414 . S
C3500 C3501 1.374 . S
C3501 H3481 0.950 . S
C3501 C3497 1.385 . S
C3501 C3500 1.374 . S
C3502 C3499 1.499 . S
C3502 C3503 1.373 . S
C3502 C3504 1.389 . S
C3503 H3482 0.950 . S
C3503 C3502 1.373 . S
C3503 C3519 1.377 . S
C3504 C3502 1.389 . S
C3504 C3505 1.524 . S
C3504 C3518 1.377 . S
C3505 C3504 1.524 . S
C3505 C3506 1.397 . S
C3505 C3510 1.363 . S
C3506 H3483 0.950 . S
C3506 C3505 1.397 . S
C3506 C3507 1.334 . S
C3507 H3484 0.950 . S
C3507 C3506 1.334 . S
C3507 C3508 1.287 . S
C3508 C3507 1.287 . S
C3508 C3509 1.524 . S
C3508 H3527 0.913 . S
C3509 H3485 0.950 . S
C3509 C3508 1.524 . S
C3509 C3510 1.415 . S
C3510 H3486 0.950 . S
C3510 C3505 1.363 . S
C3510 C3509 1.415 . S
C3511 H3487 0.951 . S
C3511 C3512 1.366 . S
C3511 C3513 1.388 . S
C3512 C3511 1.366 . S
C3512 C3516 1.385 . S
C3513 H3488 0.951 . S
C3513 C3511 1.388 . S
C3513 C3514 1.366 . S
C3514 C3513 1.366 . S
C3514 C3515 1.414 . S
C3514 C3517 1.499 . S
C3515 H3489 0.950 . S
C3515 C3514 1.414 . S
C3515 C3516 1.374 . S
C3516 H3490 0.950 . S
C3516 C3512 1.385 . S
C3516 C3515 1.374 . S
C3517 C3514 1.499 . S
C3517 C3518 1.373 . S
C3517 C3519 1.389 . S
C3518 H3491 0.950 . S
C3518 C3504 1.377 . S
C3518 C3517 1.373 . S
C3519 C3503 1.377 . S
C3519 C3517 1.389 . S
C3519 C3520 1.524 . S
C3520 C3519 1.524 . S
C3520 C3521 1.397 . S
C3520 C3525 1.363 . S
C3521 H3492 0.950 . S
C3521 C3520 1.397 . S
C3521 C3522 1.334 . S
C3522 H3493 0.950 . S
C3522 C3521 1.334 . S
C3522 C3523 1.287 . S
C3523 C3522 1.287 . S
C3523 C3524 1.524 . S
C3523 H3526 0.999 . S
C3524 H3494 0.950 . S
C3524 C3523 1.524 . S
C3524 C3525 1.415 . S
C3525 H3495 0.950 . S
C3525 C3520 1.363 . S
C3525 C3524 1.415 . S
H3526 C3523 0.999 . S
H3527 C3508 0.913 . S
H3528 C3546 0.951 . S
H3529 C3548 0.951 . S
H3530 C3550 0.950 . S
H3531 C3551 0.950 . S
H3532 C3553 0.950 . S
H3533 C3556 0.950 . S
H3534 C3557 0.950 . S
H3535 C3559 0.950 . S
H3536 C3560 0.950 . S
H3537 C3561 0.951 . S
H3538 C3563 0.951 . S
H3539 C3565 0.950 . S
H3540 C3566 0.950 . S
H3541 C3568 0.950 . S
H3542 C3571 0.950 . S
H3543 C3572 0.950 . S
H3544 C3574 0.950 . S
H3545 C3575 0.950 . S
C3546 H3528 0.951 . S
C3546 C3547 1.366 . S
C3546 C3548 1.388 . S
C3547 C3546 1.366 . S
C3547 C3551 1.385 . S
C3548 H3529 0.951 . S
C3548 C3546 1.388 . S
C3548 C3549 1.366 . S
C3549 C3548 1.366 . S
C3549 C3550 1.414 . S
C3549 C3552 1.499 . S
C3550 H3530 0.950 . S
C3550 C3549 1.414 . S
C3550 C3551 1.374 . S
C3551 H3531 0.950 . S
C3551 C3547 1.385 . S
C3551 C3550 1.374 . S
C3552 C3549 1.499 . S
C3552 C3553 1.373 . S
C3552 C3554 1.389 . S
C3553 H3532 0.950 . S
C3553 C3552 1.373 . S
C3553 C3569 1.377 . S
C3554 C3552 1.389 . S
C3554 C3555 1.524 . S
C3554 C3568 1.377 . S
C3555 C3554 1.524 . S
C3555 C3556 1.397 . S
C3555 C3560 1.363 . S
C3556 H3533 0.950 . S
C3556 C3555 1.397 . S
C3556 C3557 1.334 . S
C3557 H3534 0.950 . S
C3557 C3556 1.334 . S
C3557 C3558 1.287 . S
C3558 C3557 1.287 . S
C3558 C3559 1.524 . S
C3558 H3577 0.913 . S
C3559 H3535 0.950 . S
C3559 C3558 1.524 . S
C3559 C3560 1.415 . S
C3560 H3536 0.950 . S
C3560 C3555 1.363 . S
C3560 C3559 1.415 . S
C3561 H3537 0.951 . S
C3561 C3562 1.366 . S
C3561 C3563 1.388 . S
C3562 C3561 1.366 . S
C3562 C3566 1.385 . S
C3563 H3538 0.951 . S
C3563 C3561 1.388 . S
C3563 C3564 1.366 . S
C3564 C3563 1.366 . S
C3564 C3565 1.414 . S
C3564 C3567 1.499 . S
C3565 H3539 0.950 . S
C3565 C3564 1.414 . S
C3565 C3566 1.374 . S
C3566 H3540 0.950 . S
C3566 C3562 1.385 . S
C3566 C3565 1.374 . S
C3567 C3564 1.499 . S
C3567 C3568 1.373 . S
C3567 C3569 1.389 . S
C3568 H3541 0.950 . S
C3568 C3554 1.377 . S
C3568 C3567 1.373 . S
C3569 C3553 1.377 . S
C3569 C3567 1.389 . S
C3569 C3570 1.524 . S
C3570 C3569 1.524 . S
C3570 C3571 1.397 . S
C3570 C3575 1.363 . S
C3571 H3542 0.950 . S
C3571 C3570 1.397 . S
C3571 C3572 1.334 . S
C3572 H3543 0.950 . S
C3572 C3571 1.334 . S
C3572 C3573 1.287 . S
C3573 C3572 1.287 . S
C3573 C3574 1.524 . S
C3573 H3576 0.999 . S
C3574 H3544 0.950 . S
C3574 C3573 1.524 . S
C3574 C3575 1.415 . S
C3575 H3545 0.950 . S
C3575 C3570 1.363 . S
C3575 C3574 1.415 . S
H3576 C3573 0.999 . S
H3577 C3558 0.913 . S
H3578 C3596 0.951 . S
H3579 C3598 0.951 . S
H3580 C3600 0.950 . S
H3581 C3601 0.950 . S
H3582 C3603 0.950 . S
H3583 C3606 0.950 . S
H3584 C3607 0.950 . S
H3585 C3609 0.950 . S
H3586 C3610 0.950 . S
H3587 C3611 0.951 . S
H3588 C3613 0.951 . S
H3589 C3615 0.950 . S
H3590 C3616 0.950 . S
H3591 C3618 0.950 . S
H3592 C3621 0.950 . S
H3593 C3622 0.950 . S
H3594 C3624 0.950 . S
H3595 C3625 0.950 . S
C3596 H3578 0.951 . S
C3596 C3597 1.366 . S
C3596 C3598 1.388 . S
C3597 C3596 1.366 . S
C3597 C3601 1.385 . S
C3598 H3579 0.951 . S
C3598 C3596 1.388 . S
C3598 C3599 1.366 . S
C3599 C3598 1.366 . S
C3599 C3600 1.414 . S
C3599 C3602 1.499 . S
C3600 H3580 0.950 . S
C3600 C3599 1.414 . S
C3600 C3601 1.374 . S
C3601 H3581 0.950 . S
C3601 C3597 1.385 . S
C3601 C3600 1.374 . S
C3602 C3599 1.499 . S
C3602 C3603 1.373 . S
C3602 C3604 1.389 . S
C3603 H3582 0.950 . S
C3603 C3602 1.373 . S
C3603 C3619 1.377 . S
C3604 C3602 1.389 . S
C3604 C3605 1.524 . S
C3604 C3618 1.377 . S
C3605 C3604 1.524 . S
C3605 C3606 1.397 . S
C3605 C3610 1.363 . S
C3606 H3583 0.950 . S
C3606 C3605 1.397 . S
C3606 C3607 1.334 . S
C3607 H3584 0.950 . S
C3607 C3606 1.334 . S
C3607 C3608 1.287 . S
C3608 C3607 1.287 . S
C3608 C3609 1.524 . S
C3608 H3627 0.913 . S
C3609 H3585 0.950 . S
C3609 C3608 1.524 . S
C3609 C3610 1.415 . S
C3610 H3586 0.950 . S
C3610 C3605 1.363 . S
C3610 C3609 1.415 . S
C3611 H3587 0.951 . S
C3611 C3612 1.366 . S
C3611 C3613 1.388 . S
C3612 C3611 1.366 . S
C3612 C3616 1.385 . S
C3613 H3588 0.951 . S
C3613 C3611 1.388 . S
C3613 C3614 1.366 . S
C3614 C3613 1.366 . S
C3614 C3615 1.414 . S
C3614 C3617 1.499 . S
C3615 H3589 0.950 . S
C3615 C3614 1.414 . S
C3615 C3616 1.374 . S
C3616 H3590 0.950 . S
C3616 C3612 1.385 . S
C3616 C3615 1.374 . S
C3617 C3614 1.499 . S
C3617 C3618 1.373 . S
C3617 C3619 1.389 . S
C3618 H3591 0.950 . S
C3618 C3604 1.377 . S
C3618 C3617 1.373 . S
C3619 C3603 1.377 . S
C3619 C3617 1.389 . S
C3619 C3620 1.524 . S
C3620 C3619 1.524 . S
C3620 C3621 1.397 . S
C3620 C3625 1.363 . S
C3621 H3592 0.950 . S
C3621 C3620 1.397 . S
C3621 C3622 1.334 . S
C3622 H3593 0.950 . S
C3622 C3621 1.334 . S
C3622 C3623 1.287 . S
C3623 C3622 1.287 . S
C3623 C3624 1.524 . S
C3623 H3626 0.999 . S
C3624 H3594 0.950 . S
C3624 C3623 1.524 . S
C3624 C3625 1.415 . S
C3625 H3595 0.950 . S
C3625 C3620 1.363 . S
C3625 C3624 1.415 . S
H3626 C3623 0.999 . S
H3627 C3608 0.913 . S
H3628 C3646 0.951 . S
H3629 C3648 0.951 . S
H3630 C3650 0.950 . S
H3631 C3651 0.950 . S
H3632 C3653 0.950 . S
H3633 C3656 0.950 . S
H3634 C3657 0.950 . S
H3635 C3659 0.950 . S
H3636 C3660 0.950 . S
H3637 C3661 0.951 . S
H3638 C3663 0.951 . S
H3639 C3665 0.950 . S
H3640 C3666 0.950 . S
H3641 C3668 0.950 . S
H3642 C3671 0.950 . S
H3643 C3672 0.950 . S
H3644 C3674 0.950 . S
H3645 C3675 0.950 . S
C3646 H3628 0.951 . S
C3646 C3647 1.366 . S
C3646 C3648 1.388 . S
C3647 C3646 1.366 . S
C3647 C3651 1.385 . S
C3648 H3629 0.951 . S
C3648 C3646 1.388 . S
C3648 C3649 1.366 . S
C3649 C3648 1.366 . S
C3649 C3650 1.414 . S
C3649 C3652 1.499 . S
C3650 H3630 0.950 . S
C3650 C3649 1.414 . S
C3650 C3651 1.374 . S
C3651 H3631 0.950 . S
C3651 C3647 1.385 . S
C3651 C3650 1.374 . S
C3652 C3649 1.499 . S
C3652 C3653 1.373 . S
C3652 C3654 1.389 . S
C3653 H3632 0.950 . S
C3653 C3652 1.373 . S
C3653 C3669 1.377 . S
C3654 C3652 1.389 . S
C3654 C3655 1.524 . S
C3654 C3668 1.377 . S
C3655 C3654 1.524 . S
C3655 C3656 1.397 . S
C3655 C3660 1.363 . S
C3656 H3633 0.950 . S
C3656 C3655 1.397 . S
C3656 C3657 1.334 . S
C3657 H3634 0.950 . S
C3657 C3656 1.334 . S
C3657 C3658 1.287 . S
C3658 C3657 1.287 . S
C3658 C3659 1.524 . S
C3658 H3677 0.913 . S
C3659 H3635 0.950 . S
C3659 C3658 1.524 . S
C3659 C3660 1.415 . S
C3660 H3636 0.950 . S
C3660 C3655 1.363 . S
C3660 C3659 1.415 . S
C3661 H3637 0.951 . S
C3661 C3662 1.366 . S
C3661 C3663 1.388 . S
C3662 C3661 1.366 . S
C3662 C3666 1.385 . S
C3663 H3638 0.951 . S
C3663 C3661 1.388 . S
C3663 C3664 1.366 . S
C3664 C3663 1.366 . S
C3664 C3665 1.414 . S
C3664 C3667 1.499 . S
C3665 H3639 0.950 . S
C3665 C3664 1.414 . S
C3665 C3666 1.374 . S
C3666 H3640 0.950 . S
C3666 C3662 1.385 . S
C3666 C3665 1.374 . S
C3667 C3664 1.499 . S
C3667 C3668 1.373 . S
C3667 C3669 1.389 . S
C3668 H3641 0.950 . S
C3668 C3654 1.377 . S
C3668 C3667 1.373 . S
C3669 C3653 1.377 . S
C3669 C3667 1.389 . S
C3669 C3670 1.524 . S
C3670 C3669 1.524 . S
C3670 C3671 1.397 . S
C3670 C3675 1.363 . S
C3671 H3642 0.950 . S
C3671 C3670 1.397 . S
C3671 C3672 1.334 . S
C3672 H3643 0.950 . S
C3672 C3671 1.334 . S
C3672 C3673 1.287 . S
C3673 C3672 1.287 . S
C3673 C3674 1.524 . S
C3673 H3676 0.999 . S
C3674 H3644 0.950 . S
C3674 C3673 1.524 . S
C3674 C3675 1.415 . S
C3675 H3645 0.950 . S
C3675 C3670 1.363 . S
C3675 C3674 1.415 . S
H3676 C3673 0.999 . S
H3677 C3658 0.913 . S
H3678 C3696 0.951 . S
H3679 C3698 0.951 . S
H3680 C3700 0.950 . S
H3681 C3701 0.950 . S
H3682 C3703 0.950 . S
H3683 C3706 0.950 . S
H3684 C3707 0.950 . S
H3685 C3709 0.950 . S
H3686 C3710 0.950 . S
H3687 C3711 0.951 . S
H3688 C3713 0.951 . S
H3689 C3715 0.950 . S
H3690 C3716 0.950 . S
H3691 C3718 0.950 . S
H3692 C3721 0.950 . S
H3693 C3722 0.950 . S
H3694 C3724 0.950 . S
H3695 C3725 0.950 . S
C3696 H3678 0.951 . S
C3696 C3697 1.366 . S
C3696 C3698 1.388 . S
C3697 C3696 1.366 . S
C3697 C3701 1.385 . S
C3698 H3679 0.951 . S
C3698 C3696 1.388 . S
C3698 C3699 1.366 . S
C3699 C3698 1.366 . S
C3699 C3700 1.414 . S
C3699 C3702 1.499 . S
C3700 H3680 0.950 . S
C3700 C3699 1.414 . S
C3700 C3701 1.374 . S
C3701 H3681 0.950 . S
C3701 C3697 1.385 . S
C3701 C3700 1.374 . S
C3702 C3699 1.499 . S
C3702 C3703 1.373 . S
C3702 C3704 1.389 . S
C3703 H3682 0.950 . S
C3703 C3702 1.373 . S
C3703 C3719 1.377 . S
C3704 C3702 1.389 . S
C3704 C3705 1.524 . S
C3704 C3718 1.377 . S
C3705 C3704 1.524 . S
C3705 C3706 1.397 . S
C3705 C3710 1.363 . S
C3706 H3683 0.950 . S
C3706 C3705 1.397 . S
C3706 C3707 1.334 . S
C3707 H3684 0.950 . S
C3707 C3706 1.334 . S
C3707 C3708 1.287 . S
C3708 C3707 1.287 . S
C3708 C3709 1.524 . S
C3708 H3727 0.913 . S
C3709 H3685 0.950 . S
C3709 C3708 1.524 . S
C3709 C3710 1.415 . S
C3710 H3686 0.950 . S
C3710 C3705 1.363 . S
C3710 C3709 1.415 . S
C3711 H3687 0.951 . S
C3711 C3712 1.366 . S
C3711 C3713 1.388 . S
C3712 C3711 1.366 . S
C3712 C3716 1.385 . S
C3713 H3688 0.951 . S
C3713 C3711 1.388 . S
C3713 C3714 1.366 . S
C3714 C3713 1.366 . S
C3714 C3715 1.414 . S
C3714 C3717 1.499 . S
C3715 H3689 0.950 . S
C3715 C3714 1.414 . S
C3715 C3716 1.374 . S
C3716 H3690 0.950 . S
C3716 C3712 1.385 . S
C3716 C3715 1.374 . S
C3717 C3714 1.499 . S
C3717 C3718 1.373 . S
C3717 C3719 1.389 . S
C3718 H3691 0.950 . S
C3718 C3704 1.377 . S
C3718 C3717 1.373 . S
C3719 C3703 1.377 . S
C3719 C3717 1.389 . S
C3719 C3720 1.524 . S
C3720 C3719 1.524 . S
C3720 C3721 1.397 . S
C3720 C3725 1.363 . S
C3721 H3692 0.950 . S
C3721 C3720 1.397 . S
C3721 C3722 1.334 . S
C3722 H3693 0.950 . S
C3722 C3721 1.334 . S
C3722 C3723 1.287 . S
C3723 C3722 1.287 . S
C3723 C3724 1.524 . S
C3723 H3726 0.999 . S
C3724 H3694 0.950 . S
C3724 C3723 1.524 . S
C3724 C3725 1.415 . S
C3725 H3695 0.950 . S
C3725 C3720 1.363 . S
C3725 C3724 1.415 . S
H3726 C3723 0.999 . S
H3727 C3708 0.913 . S
H3728 C3746 0.951 . S
H3729 C3748 0.951 . S
H3730 C3750 0.950 . S
H3731 C3751 0.950 . S
H3732 C3753 0.950 . S
H3733 C3756 0.950 . S
H3734 C3757 0.950 . S
H3735 C3759 0.950 . S
H3736 C3760 0.950 . S
H3737 C3761 0.951 . S
H3738 C3763 0.951 . S
H3739 C3765 0.950 . S
H3740 C3766 0.950 . S
H3741 C3768 0.950 . S
H3742 C3771 0.950 . S
H3743 C3772 0.950 . S
H3744 C3774 0.950 . S
H3745 C3775 0.950 . S
C3746 H3728 0.951 . S
C3746 C3747 1.366 . S
C3746 C3748 1.388 . S
C3747 C3746 1.366 . S
C3747 C3751 1.385 . S
C3748 H3729 0.951 . S
C3748 C3746 1.388 . S
C3748 C3749 1.366 . S
C3749 C3748 1.366 . S
C3749 C3750 1.414 . S
C3749 C3752 1.499 . S
C3750 H3730 0.950 . S
C3750 C3749 1.414 . S
C3750 C3751 1.374 . S
C3751 H3731 0.950 . S
C3751 C3747 1.385 . S
C3751 C3750 1.374 . S
C3752 C3749 1.499 . S
C3752 C3753 1.373 . S
C3752 C3754 1.389 . S
C3753 H3732 0.950 . S
C3753 C3752 1.373 . S
C3753 C3769 1.377 . S
C3754 C3752 1.389 . S
C3754 C3755 1.524 . S
C3754 C3768 1.377 . S
C3755 C3754 1.524 . S
C3755 C3756 1.397 . S
C3755 C3760 1.363 . S
C3756 H3733 0.950 . S
C3756 C3755 1.397 . S
C3756 C3757 1.334 . S
C3757 H3734 0.950 . S
C3757 C3756 1.334 . S
C3757 C3758 1.287 . S
C3758 C3757 1.287 . S
C3758 C3759 1.524 . S
C3758 H3777 0.913 . S
C3759 H3735 0.950 . S
C3759 C3758 1.524 . S
C3759 C3760 1.415 . S
C3760 H3736 0.950 . S
C3760 C3755 1.363 . S
C3760 C3759 1.415 . S
C3761 H3737 0.951 . S
C3761 C3762 1.366 . S
C3761 C3763 1.388 . S
C3762 C3761 1.366 . S
C3762 C3766 1.385 . S
C3763 H3738 0.951 . S
C3763 C3761 1.388 . S
C3763 C3764 1.366 . S
C3764 C3763 1.366 . S
C3764 C3765 1.414 . S
C3764 C3767 1.499 . S
C3765 H3739 0.950 . S
C3765 C3764 1.414 . S
C3765 C3766 1.374 . S
C3766 H3740 0.950 . S
C3766 C3762 1.385 . S
C3766 C3765 1.374 . S
C3767 C3764 1.499 . S
C3767 C3768 1.373 . S
C3767 C3769 1.389 . S
C3768 H3741 0.950 . S
C3768 C3754 1.377 . S
C3768 C3767 1.373 . S
C3769 C3753 1.377 . S
C3769 C3767 1.389 . S
C3769 C3770 1.524 . S
C3770 C3769 1.524 . S
C3770 C3771 1.397 . S
C3770 C3775 1.363 . S
C3771 H3742 0.950 . S
C3771 C3770 1.397 . S
C3771 C3772 1.334 . S
C3772 H3743 0.950 . S
C3772 C3771 1.334 . S
C3772 C3773 1.287 . S
C3773 C3772 1.287 . S
C3773 C3774 1.524 . S
C3773 H3776 0.999 . S
C3774 H3744 0.950 . S
C3774 C3773 1.524 . S
C3774 C3775 1.415 . S
C3775 H3745 0.950 . S
C3775 C3770 1.363 . S
C3775 C3774 1.415 . S
H3776 C3773 0.999 . S
H3777 C3758 0.913 . S
H3778 C3796 0.951 . S
H3779 C3798 0.951 . S
H3780 C3800 0.950 . S
H3781 C3801 0.950 . S
H3782 C3803 0.950 . S
H3783 C3806 0.950 . S
H3784 C3807 0.950 . S
H3785 C3809 0.950 . S
H3786 C3810 0.950 . S
H3787 C3811 0.951 . S
H3788 C3813 0.951 . S
H3789 C3815 0.950 . S
H3790 C3816 0.950 . S
H3791 C3818 0.950 . S
H3792 C3821 0.950 . S
H3793 C3822 0.950 . S
H3794 C3824 0.950 . S
H3795 C3825 0.950 . S
C3796 H3778 0.951 . S
C3796 C3797 1.366 . S
C3796 C3798 1.388 . S
C3797 C3796 1.366 . S
C3797 C3801 1.385 . S
C3798 H3779 0.951 . S
C3798 C3796 1.388 . S
C3798 C3799 1.366 . S
C3799 C3798 1.366 . S
C3799 C3800 1.414 . S
C3799 C3802 1.499 . S
C3800 H3780 0.950 . S
C3800 C3799 1.414 . S
C3800 C3801 1.374 . S
C3801 H3781 0.950 . S
C3801 C3797 1.385 . S
C3801 C3800 1.374 . S
C3802 C3799 1.499 . S
C3802 C3803 1.373 . S
C3802 C3804 1.389 . S
C3803 H3782 0.950 . S
C3803 C3802 1.373 . S
C3803 C3819 1.377 . S
C3804 C3802 1.389 . S
C3804 C3805 1.524 . S
C3804 C3818 1.377 . S
C3805 C3804 1.524 . S
C3805 C3806 1.397 . S
C3805 C3810 1.363 . S
C3806 H3783 0.950 . S
C3806 C3805 1.397 . S
C3806 C3807 1.334 . S
C3807 H3784 0.950 . S
C3807 C3806 1.334 . S
C3807 C3808 1.287 . S
C3808 C3807 1.287 . S
C3808 C3809 1.524 . S
C3808 H3827 0.913 . S
C3809 H3785 0.950 . S
C3809 C3808 1.524 . S
C3809 C3810 1.415 . S
C3810 H3786 0.950 . S
C3810 C3805 1.363 . S
C3810 C3809 1.415 . S
C3811 H3787 0.951 . S
C3811 C3812 1.366 . S
C3811 C3813 1.388 . S
C3812 C3811 1.366 . S
C3812 C3816 1.385 . S
C3813 H3788 0.951 . S
C3813 C3811 1.388 . S
C3813 C3814 1.366 . S
C3814 C3813 1.366 . S
C3814 C3815 1.414 . S
C3814 C3817 1.499 . S
C3815 H3789 0.950 . S
C3815 C3814 1.414 . S
C3815 C3816 1.374 . S
C3816 H3790 0.950 . S
C3816 C3812 1.385 . S
C3816 C3815 1.374 . S
C3817 C3814 1.499 . S
C3817 C3818 1.373 . S
C3817 C3819 1.389 . S
C3818 H3791 0.950 . S
C3818 C3804 1.377 . S
C3818 C3817 1.373 . S
C3819 C3803 1.377 . S
C3819 C3817 1.389 . S
C3819 C3820 1.524 . S
C3820 C3819 1.524 . S
C3820 C3821 1.397 . S
C3820 C3825 1.363 . S
C3821 H3792 0.950 . S
C3821 C3820 1.397 . S
C3821 C3822 1.334 . S
C3822 H3793 0.950 . S
C3822 C3821 1.334 . S
C3822 C3823 1.287 . S
C3823 C3822 1.287 . S
C3823 C3824 1.524 . S
C3823 H3826 0.999 . S
C3824 H3794 0.950 . S
C3824 C3823 1.524 . S
C3824 C3825 1.415 . S
C3825 H3795 0.950 . S
C3825 C3820 1.363 . S
C3825 C3824 1.415 . S
H3826 C3823 0.999 . S
H3827 C3808 0.913 . S
H3828 C3846 0.951 . S
H3829 C3848 0.951 . S
H3830 C3850 0.950 . S
H3831 C3851 0.950 . S
H3832 C3853 0.950 . S
H3833 C3856 0.950 . S
H3834 C3857 0.950 . S
H3835 C3859 0.950 . S
H3836 C3860 0.950 . S
H3837 C3861 0.951 . S
H3838 C3863 0.951 . S
H3839 C3865 0.950 . S
H3840 C3866 0.950 . S
H3841 C3868 0.950 . S
H3842 C3871 0.950 . S
H3843 C3872 0.950 . S
H3844 C3874 0.950 . S
H3845 C3875 0.950 . S
C3846 H3828 0.951 . S
C3846 C3847 1.366 . S
C3846 C3848 1.388 . S
C3847 C3846 1.366 . S
C3847 C3851 1.385 . S
C3848 H3829 0.951 . S
C3848 C3846 1.388 . S
C3848 C3849 1.366 . S
C3849 C3848 1.366 . S
C3849 C3850 1.414 . S
C3849 C3852 1.499 . S
C3850 H3830 0.950 . S
C3850 C3849 1.414 . S
C3850 C3851 1.374 . S
C3851 H3831 0.950 . S
C3851 C3847 1.385 . S
C3851 C3850 1.374 . S
C3852 C3849 1.499 . S
C3852 C3853 1.373 . S
C3852 C3854 1.389 . S
C3853 H3832 0.950 . S
C3853 C3852 1.373 . S
C3853 C3869 1.377 . S
C3854 C3852 1.389 . S
C3854 C3855 1.524 . S
C3854 C3868 1.377 . S
C3855 C3854 1.524 . S
C3855 C3856 1.397 . S
C3855 C3860 1.363 . S
C3856 H3833 0.950 . S
C3856 C3855 1.397 . S
C3856 C3857 1.334 . S
C3857 H3834 0.950 . S
C3857 C3856 1.334 . S
C3857 C3858 1.287 . S
C3858 C3857 1.287 . S
C3858 C3859 1.524 . S
C3858 H3877 0.913 . S
C3859 H3835 0.950 . S
C3859 C3858 1.524 . S
C3859 C3860 1.415 . S
C3860 H3836 0.950 . S
C3860 C3855 1.363 . S
C3860 C3859 1.415 . S
C3861 H3837 0.951 . S
C3861 C3862 1.366 . S
C3861 C3863 1.388 . S
C3862 C3861 1.366 . S
C3862 C3866 1.385 . S
C3863 H3838 0.951 . S
C3863 C3861 1.388 . S
C3863 C3864 1.366 . S
C3864 C3863 1.366 . S
C3864 C3865 1.414 . S
C3864 C3867 1.499 . S
C3865 H3839 0.950 . S
C3865 C3864 1.414 . S
C3865 C3866 1.374 . S
C3866 H3840 0.950 . S
C3866 C3862 1.385 . S
C3866 C3865 1.374 . S
C3867 C3864 1.499 . S
C3867 C3868 1.373 . S
C3867 C3869 1.389 . S
C3868 H3841 0.950 . S
C3868 C3854 1.377 . S
C3868 C3867 1.373 . S
C3869 C3853 1.377 . S
C3869 C3867 1.389 . S
C3869 C3870 1.524 . S
C3870 C3869 1.524 . S
C3870 C3871 1.397 . S
C3870 C3875 1.363 . S
C3871 H3842 0.950 . S
C3871 C3870 1.397 . S
C3871 C3872 1.334 . S
C3872 H3843 0.950 . S
C3872 C3871 1.334 . S
C3872 C3873 1.287 . S
C3873 C3872 1.287 . S
C3873 C3874 1.524 . S
C3873 H3876 0.999 . S
C3874 H3844 0.950 . S
C3874 C3873 1.524 . S
C3874 C3875 1.415 . S
C3875 H3845 0.950 . S
C3875 C3870 1.363 . S
C3875 C3874 1.415 . S
H3876 C3873 0.999 . S
H3877 C3858 0.913 . S
H3878 C3896 0.951 . S
H3879 C3898 0.951 . S
H3880 C3900 0.950 . S
H3881 C3901 0.950 . S
H3882 C3903 0.950 . S
H3883 C3906 0.950 . S
H3884 C3907 0.950 . S
H3885 C3909 0.950 . S
H3886 C3910 0.950 . S
H3887 C3911 0.951 . S
H3888 C3913 0.951 . S
H3889 C3915 0.950 . S
H3890 C3916 0.950 . S
H3891 C3918 0.950 . S
H3892 C3921 0.950 . S
H3893 C3922 0.950 . S
H3894 C3924 0.950 . S
H3895 C3925 0.950 . S
C3896 H3878 0.951 . S
C3896 C3897 1.366 . S
C3896 C3898 1.388 . S
C3897 C3896 1.366 . S
C3897 C3901 1.385 . S
C3898 H3879 0.951 . S
C3898 C3896 1.388 . S
C3898 C3899 1.366 . S
C3899 C3898 1.366 . S
C3899 C3900 1.414 . S
C3899 C3902 1.499 . S
C3900 H3880 0.950 . S
C3900 C3899 1.414 . S
C3900 C3901 1.374 . S
C3901 H3881 0.950 . S
C3901 C3897 1.385 . S
C3901 C3900 1.374 . S
C3902 C3899 1.499 . S
C3902 C3903 1.373 . S
C3902 C3904 1.389 . S
C3903 H3882 0.950 . S
C3903 C3902 1.373 . S
C3903 C3919 1.377 . S
C3904 C3902 1.389 . S
C3904 C3905 1.524 . S
C3904 C3918 1.377 . S
C3905 C3904 1.524 . S
C3905 C3906 1.397 . S
C3905 C3910 1.363 . S
C3906 H3883 0.950 . S
C3906 C3905 1.397 . S
C3906 C3907 1.334 . S
C3907 H3884 0.950 . S
C3907 C3906 1.334 . S
C3907 C3908 1.287 . S
C3908 C3907 1.287 . S
C3908 C3909 1.524 . S
C3908 H3927 0.913 . S
C3909 H3885 0.950 . S
C3909 C3908 1.524 . S
C3909 C3910 1.415 . S
C3910 H3886 0.950 . S
C3910 C3905 1.363 . S
C3910 C3909 1.415 . S
C3911 H3887 0.951 . S
C3911 C3912 1.366 . S
C3911 C3913 1.388 . S
C3912 C3911 1.366 . S
C3912 C3916 1.385 . S
C3913 H3888 0.951 . S
C3913 C3911 1.388 . S
C3913 C3914 1.366 . S
C3914 C3913 1.366 . S
C3914 C3915 1.414 . S
C3914 C3917 1.499 . S
C3915 H3889 0.950 . S
C3915 C3914 1.414 . S
C3915 C3916 1.374 . S
C3916 H3890 0.950 . S
C3916 C3912 1.385 . S
C3916 C3915 1.374 . S
C3917 C3914 1.499 . S
C3917 C3918 1.373 . S
C3917 C3919 1.389 . S
C3918 H3891 0.950 . S
C3918 C3904 1.377 . S
C3918 C3917 1.373 . S
C3919 C3903 1.377 . S
C3919 C3917 1.389 . S
C3919 C3920 1.524 . S
C3920 C3919 1.524 . S
C3920 C3921 1.397 . S
C3920 C3925 1.363 . S
C3921 H3892 0.950 . S
C3921 C3920 1.397 . S
C3921 C3922 1.334 . S
C3922 H3893 0.950 . S
C3922 C3921 1.334 . S
C3922 C3923 1.287 . S
C3923 C3922 1.287 . S
C3923 C3924 1.524 . S
C3923 H3926 0.999 . S
C3924 H3894 0.950 . S
C3924 C3923 1.524 . S
C3924 C3925 1.415 . S
C3925 H3895 0.950 . S
C3925 C3920 1.363 . S
C3925 C3924 1.415 . S
H3926 C3923 0.999 . S
H3927 C3908 0.913 . S
H3928 C3946 0.951 . S
H3929 C3948 0.951 . S
H3930 C3950 0.950 . S
H3931 C3951 0.950 . S
H3932 C3953 0.950 . S
H3933 C3956 0.950 . S
H3934 C3957 0.950 . S
H3935 C3959 0.950 . S
H3936 C3960 0.950 . S
H3937 C3961 0.951 . S
H3938 C3963 0.951 . S
H3939 C3965 0.950 . S
H3940 C3966 0.950 . S
H3941 C3968 0.950 . S
H3942 C3971 0.950 . S
H3943 C3972 0.950 . S
H3944 C3974 0.950 . S
H3945 C3975 0.950 . S
C3946 H3928 0.951 . S
C3946 C3947 1.366 . S
C3946 C3948 1.388 . S
C3947 C3946 1.366 . S
C3947 C3951 1.385 . S
C3948 H3929 0.951 . S
C3948 C3946 1.388 . S
C3948 C3949 1.366 . S
C3949 C3948 1.366 . S
C3949 C3950 1.414 . S
C3949 C3952 1.499 . S
C3950 H3930 0.950 . S
C3950 C3949 1.414 . S
C3950 C3951 1.374 . S
C3951 H3931 0.950 . S
C3951 C3947 1.385 . S
C3951 C3950 1.374 . S
C3952 C3949 1.499 . S
C3952 C3953 1.373 . S
C3952 C3954 1.389 . S
C3953 H3932 0.950 . S
C3953 C3952 1.373 . S
C3953 C3969 1.377 . S
C3954 C3952 1.389 . S
C3954 C3955 1.524 . S
C3954 C3968 1.377 . S
C3955 C3954 1.524 . S
C3955 C3956 1.397 . S
C3955 C3960 1.363 . S
C3956 H3933 0.950 . S
C3956 C3955 1.397 . S
C3956 C3957 1.334 . S
C3957 H3934 0.950 . S
C3957 C3956 1.334 . S
C3957 C3958 1.287 . S
C3958 C3957 1.287 . S
C3958 C3959 1.524 . S
C3958 H3977 0.913 . S
C3959 H3935 0.950 . S
C3959 C3958 1.524 . S
C3959 C3960 1.415 . S
C3960 H3936 0.950 . S
C3960 C3955 1.363 . S
C3960 C3959 1.415 . S
C3961 H3937 0.951 . S
C3961 C3962 1.366 . S
C3961 C3963 1.388 . S
C3962 C3961 1.366 . S
C3962 C3966 1.385 . S
C3963 H3938 0.951 . S
C3963 C3961 1.388 . S
C3963 C3964 1.366 . S
C3964 C3963 1.366 . S
C3964 C3965 1.414 . S
C3964 C3967 1.499 . S
C3965 H3939 0.950 . S
C3965 C3964 1.414 . S
C3965 C3966 1.374 . S
C3966 H3940 0.950 . S
C3966 C3962 1.385 . S
C3966 C3965 1.374 . S
C3967 C3964 1.499 . S
C3967 C3968 1.373 . S
C3967 C3969 1.389 . S
C3968 H3941 0.950 . S
C3968 C3954 1.377 . S
C3968 C3967 1.373 . S
C3969 C3953 1.377 . S
C3969 C3967 1.389 . S
C3969 C3970 1.524 . S
C3970 C3969 1.524 . S
C3970 C3971 1.397 . S
C3970 C3975 1.363 . S
C3971 H3942 0.950 . S
C3971 C3970 1.397 . S
C3971 C3972 1.334 . S
C3972 H3943 0.950 . S
C3972 C3971 1.334 . S
C3972 C3973 1.287 . S
C3973 C3972 1.287 . S
C3973 C3974 1.524 . S
C3973 H3976 0.999 . S
C3974 H3944 0.950 . S
C3974 C3973 1.524 . S
C3974 C3975 1.415 . S
C3975 H3945 0.950 . S
C3975 C3970 1.363 . S
C3975 C3974 1.415 . S
H3976 C3973 0.999 . S
H3977 C3958 0.913 . S
H3978 C3996 0.951 . S
H3979 C3998 0.951 . S
H3980 C4000 0.950 . S
H3981 C4001 0.950 . S
H3982 C4003 0.950 . S
H3983 C4006 0.950 . S
H3984 C4007 0.950 . S
H3985 C4009 0.950 . S
H3986 C4010 0.950 . S
H3987 C4011 0.951 . S
H3988 C4013 0.951 . S
H3989 C4015 0.950 . S
H3990 C4016 0.950 . S
H3991 C4018 0.950 . S
H3992 C4021 0.950 . S
H3993 C4022 0.950 . S
H3994 C4024 0.950 . S
H3995 C4025 0.950 . S
C3996 H3978 0.951 . S
C3996 C3997 1.366 . S
C3996 C3998 1.388 . S
C3997 C3996 1.366 . S
C3997 C4001 1.385 . S
C3998 H3979 0.951 . S
C3998 C3996 1.388 . S
C3998 C3999 1.366 . S
C3999 C3998 1.366 . S
C3999 C4000 1.414 . S
C3999 C4002 1.499 . S
C4000 H3980 0.950 . S
C4000 C3999 1.414 . S
C4000 C4001 1.374 . S
C4001 H3981 0.950 . S
C4001 C3997 1.385 . S
C4001 C4000 1.374 . S
C4002 C3999 1.499 . S
C4002 C4003 1.373 . S
C4002 C4004 1.389 . S
C4003 H3982 0.950 . S
C4003 C4002 1.373 . S
C4003 C4019 1.377 . S
C4004 C4002 1.389 . S
C4004 C4005 1.524 . S
C4004 C4018 1.377 . S
C4005 C4004 1.524 . S
C4005 C4006 1.397 . S
C4005 C4010 1.363 . S
C4006 H3983 0.950 . S
C4006 C4005 1.397 . S
C4006 C4007 1.334 . S
C4007 H3984 0.950 . S
C4007 C4006 1.334 . S
C4007 C4008 1.287 . S
C4008 C4007 1.287 . S
C4008 C4009 1.524 . S
C4008 H4027 0.913 . S
C4009 H3985 0.950 . S
C4009 C4008 1.524 . S
C4009 C4010 1.415 . S
C4010 H3986 0.950 . S
C4010 C4005 1.363 . S
C4010 C4009 1.415 . S
C4011 H3987 0.951 . S
C4011 C4012 1.366 . S
C4011 C4013 1.388 . S
C4012 C4011 1.366 . S
C4012 C4016 1.385 . S
C4013 H3988 0.951 . S
C4013 C4011 1.388 . S
C4013 C4014 1.366 . S
C4014 C4013 1.366 . S
C4014 C4015 1.414 . S
C4014 C4017 1.499 . S
C4015 H3989 0.950 . S
C4015 C4014 1.414 . S
C4015 C4016 1.374 . S
C4016 H3990 0.950 . S
C4016 C4012 1.385 . S
C4016 C4015 1.374 . S
C4017 C4014 1.499 . S
C4017 C4018 1.373 . S
C4017 C4019 1.389 . S
C4018 H3991 0.950 . S
C4018 C4004 1.377 . S
C4018 C4017 1.373 . S
C4019 C4003 1.377 . S
C4019 C4017 1.389 . S
C4019 C4020 1.524 . S
C4020 C4019 1.524 . S
C4020 C4021 1.397 . S
C4020 C4025 1.363 . S
C4021 H3992 0.950 . S
C4021 C4020 1.397 . S
C4021 C4022 1.334 . S
C4022 H3993 0.950 . S
C4022 C4021 1.334 . S
C4022 C4023 1.287 . S
C4023 C4022 1.287 . S
C4023 C4024 1.524 . S
C4023 H4026 0.999 . S
C4024 H3994 0.950 . S
C4024 C4023 1.524 . S
C4024 C4025 1.415 . S
C4025 H3995 0.950 . S
C4025 C4020 1.363 . S
C4025 C4024 1.415 . S
H4026 C4023 0.999 . S
H4027 C4008 0.913 . S
H4028 C4046 0.951 . S
H4029 C4048 0.951 . S
H4030 C4050 0.950 . S
H4031 C4051 0.950 . S
H4032 C4053 0.950 . S
H4033 C4056 0.950 . S
H4034 C4057 0.950 . S
H4035 C4059 0.950 . S
H4036 C4060 0.950 . S
H4037 C4061 0.951 . S
H4038 C4063 0.951 . S
H4039 C4065 0.950 . S
H4040 C4066 0.950 . S
H4041 C4068 0.950 . S
H4042 C4071 0.950 . S
H4043 C4072 0.950 . S
H4044 C4074 0.950 . S
H4045 C4075 0.950 . S
C4046 H4028 0.951 . S
C4046 C4047 1.366 . S
C4046 C4048 1.388 . S
C4047 C4046 1.366 . S
C4047 C4051 1.385 . S
C4048 H4029 0.951 . S
C4048 C4046 1.388 . S
C4048 C4049 1.366 . S
C4049 C4048 1.366 . S
C4049 C4050 1.414 . S
C4049 C4052 1.499 . S
C4050 H4030 0.950 . S
C4050 C4049 1.414 . S
C4050 C4051 1.374 . S
C4051 H4031 0.950 . S
C4051 C4047 1.385 . S
C4051 C4050 1.374 . S
C4052 C4049 1.499 . S
C4052 C4053 1.373 . S
C4052 C4054 1.389 . S
C4053 H4032 0.950 . S
C4053 C4052 1.373 . S
C4053 C4069 1.377 . S
C4054 C4052 1.389 . S
C4054 C4055 1.524 . S
C4054 C4068 1.377 . S
C4055 C4054 1.524 . S
C4055 C4056 1.397 . S
C4055 C4060 1.363 . S
C4056 H4033 0.950 . S
C4056 C4055 1.397 . S
C4056 C4057 1.334 . S
C4057 H4034 0.950 . S
C4057 C4056 1.334 . S
C4057 C4058 1.287 . S
C4058 C4057 1.287 . S
C4058 C4059 1.524 . S
C4058 H4077 0.913 . S
C4059 H4035 0.950 . S
C4059 C4058 1.524 . S
C4059 C4060 1.415 . S
C4060 H4036 0.950 . S
C4060 C4055 1.363 . S
C4060 C4059 1.415 . S
C4061 H4037 0.951 . S
C4061 C4062 1.366 . S
C4061 C4063 1.388 . S
C4062 C4061 1.366 . S
C4062 C4066 1.385 . S
C4063 H4038 0.951 . S
C4063 C4061 1.388 . S
C4063 C4064 1.366 . S
C4064 C4063 1.366 . S
C4064 C4065 1.414 . S
C4064 C4067 1.499 . S
C4065 H4039 0.950 . S
C4065 C4064 1.414 . S
C4065 C4066 1.374 . S
C4066 H4040 0.950 . S
C4066 C4062 1.385 . S
C4066 C4065 1.374 . S
C4067 C4064 1.499 . S
C4067 C4068 1.373 . S
C4067 C4069 1.389 . S
C4068 H4041 0.950 . S
C4068 C4054 1.377 . S
C4068 C4067 1.373 . S
C4069 C4053 1.377 . S
C4069 C4067 1.389 . S
C4069 C4070 1.524 . S
C4070 C4069 1.524 . S
C4070 C4071 1.397 . S
C4070 C4075 1.363 . S
C4071 H4042 0.950 . S
C4071 C4070 1.397 . S
C4071 C4072 1.334 . S
C4072 H4043 0.950 . S
C4072 C4071 1.334 . S
C4072 C4073 1.287 . S
C4073 C4072 1.287 . S
C4073 C4074 1.524 . S
C4073 H4076 0.999 . S
C4074 H4044 0.950 . S
C4074 C4073 1.524 . S
C4074 C4075 1.415 . S
C4075 H4045 0.950 . S
C4075 C4070 1.363 . S
C4075 C4074 1.415 . S
H4076 C4073 0.999 . S
H4077 C4058 0.913 . S
H4078 C4096 0.951 . S
H4079 C4098 0.951 . S
H4080 C4100 0.950 . S
H4081 C4101 0.950 . S
H4082 C4103 0.950 . S
H4083 C4106 0.950 . S
H4084 C4107 0.950 . S
H4085 C4109 0.950 . S
H4086 C4110 0.950 . S
H4087 C4111 0.951 . S
H4088 C4113 0.951 . S
H4089 C4115 0.950 . S
H4090 C4116 0.950 . S
H4091 C4118 0.950 . S
H4092 C4121 0.950 . S
H4093 C4122 0.950 . S
H4094 C4124 0.950 . S
H4095 C4125 0.950 . S
C4096 H4078 0.951 . S
C4096 C4097 1.366 . S
C4096 C4098 1.388 . S
C4097 C4096 1.366 . S
C4097 C4101 1.385 . S
C4098 H4079 0.951 . S
C4098 C4096 1.388 . S
C4098 C4099 1.366 . S
C4099 C4098 1.366 . S
C4099 C4100 1.414 . S
C4099 C4102 1.499 . S
C4100 H4080 0.950 . S
C4100 C4099 1.414 . S
C4100 C4101 1.374 . S
C4101 H4081 0.950 . S
C4101 C4097 1.385 . S
C4101 C4100 1.374 . S
C4102 C4099 1.499 . S
C4102 C4103 1.373 . S
C4102 C4104 1.389 . S
C4103 H4082 0.950 . S
C4103 C4102 1.373 . S
C4103 C4119 1.377 . S
C4104 C4102 1.389 . S
C4104 C4105 1.524 . S
C4104 C4118 1.377 . S
C4105 C4104 1.524 . S
C4105 C4106 1.397 . S
C4105 C4110 1.363 . S
C4106 H4083 0.950 . S
C4106 C4105 1.397 . S
C4106 C4107 1.334 . S
C4107 H4084 0.950 . S
C4107 C4106 1.334 . S
C4107 C4108 1.287 . S
C4108 C4107 1.287 . S
C4108 C4109 1.524 . S
C4108 H4127 0.913 . S
C4109 H4085 0.950 . S
C4109 C4108 1.524 . S
C4109 C4110 1.415 . S
C4110 H4086 0.950 . S
C4110 C4105 1.363 . S
C4110 C4109 1.415 . S
C4111 H4087 0.951 . S
C4111 C4112 1.366 . S
C4111 C4113 1.388 . S
C4112 C4111 1.366 . S
C4112 C4116 1.385 . S
C4113 H4088 0.951 . S
C4113 C4111 1.388 . S
C4113 C4114 1.366 . S
C4114 C4113 1.366 . S
C4114 C4115 1.414 . S
C4114 C4117 1.499 . S
C4115 H4089 0.950 . S
C4115 C4114 1.414 . S
C4115 C4116 1.374 . S
C4116 H4090 0.950 . S
C4116 C4112 1.385 . S
C4116 C4115 1.374 . S
C4117 C4114 1.499 . S
C4117 C4118 1.373 . S
C4117 C4119 1.389 . S
C4118 H4091 0.950 . S
C4118 C4104 1.377 . S
C4118 C4117 1.373 . S
C4119 C4103 1.377 . S
C4119 C4117 1.389 . S
C4119 C4120 1.524 . S
C4120 C4119 1.524 . S
C4120 C4121 1.397 . S
C4120 C4125 1.363 . S
C4121 H4092 0.950 . S
C4121 C4120 1.397 . S
C4121 C4122 1.334 . S
C4122 H4093 0.950 . S
C4122 C4121 1.334 . S
C4122 C4123 1.287 . S
C4123 C4122 1.287 . S
C4123 C4124 1.524 . S
C4123 H4126 0.999 . S
C4124 H4094 0.950 . S
C4124 C4123 1.524 . S
C4124 C4125 1.415 . S
C4125 H4095 0.950 . S
C4125 C4120 1.363 . S
C4125 C4124 1.415 . S
H4126 C4123 0.999 . S
H4127 C4108 0.913 . S
C547 C51 1.475 . S
C562 C7 1.475 . S
C597 C62 1.476 . S
C612 C18 1.476 . S
C647 C73 1.475 . S
C662 C29 1.475 . S
C697 C40 1.476 . S
C712 C84 1.476 . S
C747 C161 1.476 . S
C762 C95 1.476 . S
C797 C172 1.475 . S
C812 C106 1.476 . S
C847 C117 1.476 . S
C862 C139 1.475 . S
C897 C150 1.476 . S
C912 C128 1.476 . S
C947 C238 1.475 . S
C962 C183 1.475 . S
C997 C216 1.476 . S
C1012 C194 1.475 . S
C1047 C205 1.476 . S
C1062 C227 1.476 . S
C1097 C260 1.475 . S
C1112 C249 1.475 . S
C1147 C271 1.550 . S
C1162 C315 1.549 . S
C1197 C282 1.549 . S
C1212 C326 1.549 . S
C1247 C337 1.549 . S
C1262 C293 1.549 . S
C1297 C304 1.549 . S
C1312 C348 1.549 . S
C1347 C425 1.549 . S
C1362 C359 1.549 . S
C1397 C436 1.549 . S
C1412 C370 1.549 . S
C1447 C381 1.550 . S
C1462 C403 1.549 . S
C1497 C392 1.550 . S
C1512 C414 1.549 . S
C1547 C447 1.549 . S
C1562 C502 1.550 . S
C1597 C480 1.549 . S
C1612 C458 1.550 . S
C1647 C469 1.550 . S
C1662 C491 1.549 . S
C1697 C524 1.549 . S
C1712 C513 1.549 . S
C1747 C5 1.333 . S
C1762 C104 1.334 . S
C1797 C16 1.333 . S
C1812 C115 1.334 . S
C1847 C126 1.333 . S
C1862 C27 1.334 . S
C1897 C38 1.333 . S
C1912 C93 1.332 . S
C1947 C170 1.333 . S
C1962 C49 1.334 . S
C1997 C137 1.334 . S
C2012 C60 1.335 . S
C2047 C71 1.333 . S
C2062 C148 1.334 . S
C2097 C159 1.334 . S
C2112 C82 1.334 . S
C2147 C181 1.333 . S
C2162 C203 1.332 . S
C2197 C192 1.333 . S
C2212 C247 1.334 . S
C2247 C214 1.335 . S
C2262 C258 1.334 . S
C2297 C225 1.332 . S
C2312 C236 1.334 . S
C2347 C269 1.549 . S
C2362 C368 1.549 . S
C2397 C379 1.547 . S
C2412 C280 1.547 . S
C2447 C291 1.549 . S
C2462 C390 1.549 . S
C2497 C357 1.548 . S
C2512 C302 1.548 . S
C2547 C313 1.549 . S
C2562 C434 1.549 . S
C2597 C401 1.547 . S
C2612 C324 1.547 . S
C2647 C335 1.548 . S
C2662 C412 1.548 . S
C2697 C346 1.549 . S
C2712 C423 1.549 . S
C2747 C467 1.548 . S
C2762 C445 1.547 . S
C2797 C511 1.548 . S
C2812 C456 1.548 . S
C2847 C478 1.549 . S
C2862 C522 1.549 . S
C2897 C489 1.547 . S
C2912 C500 1.547 . S
C2947 C8 1.593 . S
C2962 C349 1.622 . S
C2997 C316 1.622 . S
C3012 C19 1.592 . S
C3047 C327 1.622 . S
C3062 C30 1.593 . S
C3097 C338 1.622 . S
C3112 C41 1.592 . S
C3147 C283 1.622 . S
C3162 C52 1.592 . S
C3197 C63 1.592 . S
C3212 C294 1.622 . S
C3247 C74 1.592 . S
C3262 C305 1.622 . S
C3297 C85 1.593 . S
C3312 C272 1.622 . S
C3347 C96 1.592 . S
C3362 C492 1.622 . S
C3397 C459 1.622 . S
C3412 C107 1.593 . S
C3447 C118 1.593 . S
C3462 C470 1.622 . S
C3497 C129 1.593 . S
C3512 C481 1.622 . S
C3547 C525 1.622 . S
C3562 C140 1.592 . S
C3597 C151 1.593 . S
C3612 C503 1.622 . S
C3647 C162 1.592 . S
C3662 C514 1.622 . S
C3697 C448 1.622 . S
C3712 C173 1.592 . S
C3747 C437 1.622 . S
C3762 C184 1.592 . S
C3797 C371 1.622 . S
C3812 C195 1.592 . S
C3847 C382 1.622 . S
C3862 C206 1.593 . S
C3897 C393 1.622 . S
C3912 C217 1.592 . S
C3947 C360 1.622 . S
C3962 C228 1.593 . S
C3997 C239 1.593 . S
C4012 C415 1.622 . S
C4047 C250 1.593 . S
C4062 C426 1.622 . S
C4097 C404 1.622 . S
C4112 C261 1.593 . S
