# Generated by pormake.
# Topology wiu, (6)-cn, num edge types: 1
# Building blocks:
#     Node 0, Type 0, BuildingBlock: VOLQOD_clean_sbu_1, # of connection points: 6
#     Node 1, Type 0, BuildingBlock: VOLQOD_clean_sbu_1, # of connection points: 6
#     Node 2, Type 0, BuildingBlock: VOLQOD_clean_sbu_1, # of connection points: 6
#     Node 3, Type 0, BuildingBlock: VOLQOD_clean_sbu_1, # of connection points: 6
#     Node 4, Type 0, BuildingBlock: VOLQOD_clean_sbu_1, # of connection points: 6
#     Node 5, Type 0, BuildingBlock: VOLQOD_clean_sbu_1, # of connection points: 6
#     Node 6, Type 0, BuildingBlock: VOLQOD_clean_sbu_1, # of connection points: 6
#     Node 7, Type 0, BuildingBlock: VOLQOD_clean_sbu_1, # of connection points: 6
#     Node 8, Type 0, BuildingBlock: VOLQOD_clean_sbu_1, # of connection points: 6
#     Node 9, Type 0, BuildingBlock: VOLQOD_clean_sbu_1, # of connection points: 6
#     Node 10, Type 0, BuildingBlock: VOLQOD_clean_sbu_1, # of connection points: 6
#     Node 11, Type 0, BuildingBlock: VOLQOD_clean_sbu_1, # of connection points: 6
#     Node 12, Type 0, BuildingBlock: VOLQOD_clean_sbu_1, # of connection points: 6
#     Node 13, Type 0, BuildingBlock: VOLQOD_clean_sbu_1, # of connection points: 6
#     Node 14, Type 0, BuildingBlock: VOLQOD_clean_sbu_1, # of connection points: 6
#     Node 15, Type 0, BuildingBlock: VOLQOD_clean_sbu_1, # of connection points: 6
#     Edge 16, Type (0, 0), BuildingBlock: ZUJKAS_clean_linker_0, # of connection points: 2
#     Edge 17, Type (0, 0), BuildingBlock: ZUJKAS_clean_linker_0, # of connection points: 2
#     Edge 18, Type (0, 0), BuildingBlock: ZUJKAS_clean_linker_0, # of connection points: 2
#     Edge 19, Type (0, 0), BuildingBlock: ZUJKAS_clean_linker_0, # of connection points: 2
#     Edge 20, Type (0, 0), BuildingBlock: ZUJKAS_clean_linker_0, # of connection points: 2
#     Edge 21, Type (0, 0), BuildingBlock: ZUJKAS_clean_linker_0, # of connection points: 2
#     Edge 22, Type (0, 0), BuildingBlock: ZUJKAS_clean_linker_0, # of connection points: 2
#     Edge 23, Type (0, 0), BuildingBlock: ZUJKAS_clean_linker_0, # of connection points: 2
#     Edge 24, Type (0, 0), BuildingBlock: ZUJKAS_clean_linker_0, # of connection points: 2
#     Edge 25, Type (0, 0), BuildingBlock: ZUJKAS_clean_linker_0, # of connection points: 2
#     Edge 26, Type (0, 0), BuildingBlock: ZUJKAS_clean_linker_0, # of connection points: 2
#     Edge 27, Type (0, 0), BuildingBlock: ZUJKAS_clean_linker_0, # of connection points: 2
#     Edge 28, Type (0, 0), BuildingBlock: ZUJKAS_clean_linker_0, # of connection points: 2
#     Edge 29, Type (0, 0), BuildingBlock: ZUJKAS_clean_linker_0, # of connection points: 2
#     Edge 30, Type (0, 0), BuildingBlock: ZUJKAS_clean_linker_0, # of connection points: 2
#     Edge 31, Type (0, 0), BuildingBlock: ZUJKAS_clean_linker_0, # of connection points: 2
#     Edge 32, Type (0, 0), BuildingBlock: ZUJKAS_clean_linker_0, # of connection points: 2
#     Edge 33, Type (0, 0), BuildingBlock: ZUJKAS_clean_linker_0, # of connection points: 2
#     Edge 34, Type (0, 0), BuildingBlock: ZUJKAS_clean_linker_0, # of connection points: 2
#     Edge 35, Type (0, 0), BuildingBlock: ZUJKAS_clean_linker_0, # of connection points: 2
#     Edge 36, Type (0, 0), BuildingBlock: ZUJKAS_clean_linker_0, # of connection points: 2
#     Edge 37, Type (0, 0), BuildingBlock: ZUJKAS_clean_linker_0, # of connection points: 2
#     Edge 38, Type (0, 0), BuildingBlock: ZUJKAS_clean_linker_0, # of connection points: 2
#     Edge 39, Type (0, 0), BuildingBlock: ZUJKAS_clean_linker_0, # of connection points: 2
#     Edge 40, Type (0, 0), BuildingBlock: ZUJKAS_clean_linker_0, # of connection points: 2
#     Edge 41, Type (0, 0), BuildingBlock: ZUJKAS_clean_linker_0, # of connection points: 2
#     Edge 42, Type (0, 0), BuildingBlock: ZUJKAS_clean_linker_0, # of connection points: 2
#     Edge 43, Type (0, 0), BuildingBlock: ZUJKAS_clean_linker_0, # of connection points: 2
#     Edge 44, Type (0, 0), BuildingBlock: ZUJKAS_clean_linker_0, # of connection points: 2
#     Edge 45, Type (0, 0), BuildingBlock: ZUJKAS_clean_linker_0, # of connection points: 2
#     Edge 46, Type (0, 0), BuildingBlock: ZUJKAS_clean_linker_0, # of connection points: 2
#     Edge 47, Type (0, 0), BuildingBlock: ZUJKAS_clean_linker_0, # of connection points: 2
#     Edge 48, Type (0, 0), BuildingBlock: ZUJKAS_clean_linker_0, # of connection points: 2
#     Edge 49, Type (0, 0), BuildingBlock: ZUJKAS_clean_linker_0, # of connection points: 2
#     Edge 50, Type (0, 0), BuildingBlock: ZUJKAS_clean_linker_0, # of connection points: 2
#     Edge 51, Type (0, 0), BuildingBlock: ZUJKAS_clean_linker_0, # of connection points: 2
#     Edge 52, Type (0, 0), BuildingBlock: ZUJKAS_clean_linker_0, # of connection points: 2
#     Edge 53, Type (0, 0), BuildingBlock: ZUJKAS_clean_linker_0, # of connection points: 2
#     Edge 54, Type (0, 0), BuildingBlock: ZUJKAS_clean_linker_0, # of connection points: 2
#     Edge 55, Type (0, 0), BuildingBlock: ZUJKAS_clean_linker_0, # of connection points: 2
#     Edge 56, Type (0, 0), BuildingBlock: ZUJKAS_clean_linker_0, # of connection points: 2
#     Edge 57, Type (0, 0), BuildingBlock: ZUJKAS_clean_linker_0, # of connection points: 2
#     Edge 58, Type (0, 0), BuildingBlock: ZUJKAS_clean_linker_0, # of connection points: 2
#     Edge 59, Type (0, 0), BuildingBlock: ZUJKAS_clean_linker_0, # of connection points: 2
#     Edge 60, Type (0, 0), BuildingBlock: ZUJKAS_clean_linker_0, # of connection points: 2
#     Edge 61, Type (0, 0), BuildingBlock: ZUJKAS_clean_linker_0, # of connection points: 2
#     Edge 62, Type (0, 0), BuildingBlock: ZUJKAS_clean_linker_0, # of connection points: 2
#     Edge 63, Type (0, 0), BuildingBlock: ZUJKAS_clean_linker_0, # of connection points: 2
# Relax obj value: 0.180
# Max RMSD: 0.175
# Mean RMSD: 0.175
data_MOF--net-wiu--node1-VOLQOD_clean_sbu_1--edge1-ZUJKAS_clean_linker_0
_symmetry_space_group_name_H-M    P1
_symmetry_Int_Tables_number       1
_symmetry_cell_setting            triclinic
loop_
_symmetry_equiv_pos_as_xyz
'x, y, z'
_cell_length_a     42.022492
_cell_length_b     41.981506
_cell_length_c     73.178082
_cell_angle_alpha  90.061758
_cell_angle_beta   89.931034
_cell_angle_gamma 89.98491
loop_
_atom_site_label
_atom_site_type_symbol
_atom_site_fract_x
_atom_site_fract_y
_atom_site_fract_z
_atom_type_partial_charge
O0 O 0.34684 0.20517 0.02994 0.0
Zn1 Zn 0.31185 0.18894 0.04582 0.0
O2 O 0.3275 0.15414 0.06049 0.0
Zn3 Zn 0.31532 0.1129 0.04969 0.0
Zn4 Zn 0.37327 0.15799 0.06228 0.0
Zn5 Zn 0.309 0.16019 0.08425 0.0
O6 O 0.28541 0.08906 0.06773 0.0
O7 O 0.27556 0.12721 0.08819 0.0
O8 O 0.27744 0.17361 0.02955 0.0
O9 O 0.28708 0.12152 0.02761 0.0
O10 O 0.35576 0.08766 0.04098 0.0
O11 O 0.39403 0.12061 0.05002 0.0
O12 O 0.38834 0.15799 0.08859 0.0
O13 O 0.29573 0.22617 0.06088 0.0
O14 O 0.34213 0.15472 0.10325 0.0
O15 O 0.29145 0.20449 0.08831 0.0
C16 C 0.37597 0.2091 0.034 0.0
C17 C 0.26978 0.09975 0.08152 0.0
C18 C 0.38535 0.09497 0.04216 0.0
C19 C 0.27206 0.14643 0.02252 0.0
C20 C 0.37238 0.15547 0.10334 0.0
C21 C 0.28853 0.22837 0.07774 0.0
O22 O 0.38845 0.19621 0.04805 0.0
O23 O 0.57096 0.61464 0.28643 0.0
Zn24 Zn 0.58462 0.5773 0.30119 0.0
O25 O 0.62301 0.58834 0.31437 0.0
Zn26 Zn 0.66089 0.573 0.30116 0.0
Zn27 Zn 0.6251 0.63429 0.31717 0.0
Zn28 Zn 0.61862 0.56885 0.33803 0.0
O29 O 0.68438 0.53994 0.31718 0.0
O30 O 0.65027 0.53359 0.34025 0.0
O31 O 0.59383 0.54301 0.28318 0.0
O32 O 0.64614 0.54744 0.27915 0.0
O33 O 0.68889 0.6111 0.29197 0.0
O34 O 0.66487 0.65166 0.30579 0.0
O35 O 0.62496 0.64802 0.34369 0.0
O36 O 0.54823 0.56344 0.31762 0.0
O37 O 0.62734 0.60091 0.35742 0.0
O38 O 0.57398 0.55273 0.34325 0.0
C39 C 0.57433 0.64439 0.28901 0.0
C40 C 0.67549 0.52545 0.33173 0.0
C41 C 0.68697 0.64095 0.29559 0.0
C42 C 0.61924 0.53563 0.2747 0.0
C43 C 0.62765 0.6312 0.35811 0.0
C44 C 0.54826 0.55345 0.33406 0.0
O45 O 0.59116 0.65523 0.3021 0.0
O46 O 0.18004 0.82068 0.5343 0.0
Zn47 Zn 0.21369 0.84172 0.54916 0.0
O48 O 0.19655 0.87926 0.5613 0.0
Zn49 Zn 0.21212 0.91874 0.54966 0.0
Zn50 Zn 0.15027 0.87846 0.56008 0.0
Zn51 Zn 0.21043 0.87599 0.58651 0.0
O52 O 0.24218 0.94194 0.5674 0.0
O53 O 0.24367 0.90934 0.59143 0.0
O54 O 0.2475 0.85412 0.53165 0.0
O55 O 0.24061 0.90634 0.52832 0.0
O56 O 0.17483 0.94672 0.53938 0.0
O57 O 0.13376 0.91512 0.54547 0.0
O58 O 0.13031 0.88137 0.58529 0.0
O59 O 0.23057 0.80821 0.56645 0.0
O60 O 0.17346 0.88313 0.60295 0.0
O61 O 0.22769 0.8323 0.59328 0.0
C62 C 0.14985 0.82171 0.53497 0.0
C63 C 0.25336 0.93416 0.58305 0.0
C64 C 0.14506 0.9403 0.53837 0.0
C65 C 0.25406 0.88025 0.52372 0.0
C66 C 0.14343 0.88369 0.60092 0.0
C67 C 0.23429 0.80782 0.5837 0.0
O68 O 0.13527 0.84067 0.54572 0.0
O69 O 0.95242 0.41139 0.78549 0.0
Zn70 Zn 0.94082 0.44902 0.8007 0.0
O71 O 0.90447 0.43836 0.81572 0.0
Zn72 Zn 0.86449 0.45307 0.8046 0.0
Zn73 Zn 0.90341 0.39257 0.81869 0.0
Zn74 Zn 0.91189 0.45864 0.8389 0.0
O75 O 0.84169 0.48453 0.8221 0.0
O76 O 0.88042 0.49379 0.8422 0.0
O77 O 0.92884 0.48346 0.78334 0.0
O78 O 0.87596 0.48039 0.78279 0.0
O79 O 0.83701 0.41463 0.79543 0.0
O80 O 0.8639 0.37436 0.80755 0.0
O81 O 0.90436 0.37971 0.84526 0.0
O82 O 0.97941 0.46276 0.81546 0.0
O83 O 0.90582 0.427 0.85892 0.0
O84 O 0.95671 0.47559 0.8418 0.0
C85 C 0.95116 0.38184 0.78917 0.0
C86 C 0.85325 0.50048 0.83549 0.0
C87 C 0.8406 0.38467 0.79818 0.0
C88 C 0.90208 0.49188 0.77679 0.0
C89 C 0.90425 0.39675 0.85968 0.0
C90 C 0.98126 0.47398 0.83161 0.0
O91 O 0.93742 0.37168 0.80358 0.0
O92 O 0.6665 0.82061 0.95661 0.0
Zn93 Zn 0.70425 0.83324 0.94185 0.0
O94 O 0.69414 0.8701 0.92714 0.0
Zn95 Zn 0.7094 0.90969 0.93877 0.0
Zn96 Zn 0.64834 0.87166 0.92433 0.0
Zn97 Zn 0.71407 0.86262 0.90372 0.0
O98 O 0.74051 0.93254 0.92114 0.0
O99 O 0.74769 0.89559 0.89961 0.0
O100 O 0.73827 0.84439 0.95951 0.0
O101 O 0.73706 0.89737 0.96044 0.0
O102 O 0.67112 0.93774 0.94806 0.0
O103 O 0.63075 0.9107 0.9362 0.0
O104 O 0.63512 0.8725 0.89787 0.0
O105 O 0.71822 0.79511 0.92679 0.0
O106 O 0.68187 0.86707 0.88389 0.0
O107 O 0.73211 0.81813 0.90076 0.0
C108 C 0.63714 0.82163 0.95256 0.0
C109 C 0.7548 0.92236 0.90678 0.0
C110 C 0.64113 0.93412 0.94548 0.0
C111 C 0.74764 0.87071 0.96625 0.0
C112 C 0.65181 0.87039 0.88339 0.0
C113 C 0.73002 0.79342 0.91077 0.0
O114 O 0.62726 0.8365 0.93848 0.0
O115 O 0.44944 0.41617 0.7022 0.0
Zn116 Zn 0.43797 0.45555 0.68829 0.0
O117 O 0.39968 0.44758 0.67442 0.0
Zn118 Zn 0.36192 0.46217 0.68789 0.0
Zn119 Zn 0.39701 0.40222 0.66996 0.0
Zn120 Zn 0.40491 0.46977 0.65161 0.0
O121 O 0.33821 0.49613 0.67251 0.0
O122 O 0.37291 0.50482 0.64995 0.0
O123 O 0.42959 0.48971 0.70667 0.0
O124 O 0.37698 0.48666 0.71009 0.0
O125 O 0.33433 0.42354 0.69666 0.0
O126 O 0.35813 0.38399 0.68181 0.0
O127 O 0.39588 0.39154 0.64309 0.0
O128 O 0.47514 0.46853 0.67216 0.0
O129 O 0.39671 0.43999 0.63097 0.0
O130 O 0.44986 0.48603 0.64757 0.0
C131 C 0.44694 0.38714 0.69742 0.0
C132 C 0.34725 0.51176 0.65838 0.0
C133 C 0.33644 0.39389 0.69256 0.0
C134 C 0.40405 0.49764 0.71487 0.0
C135 C 0.39479 0.4099 0.62925 0.0
C136 C 0.47555 0.48174 0.65648 0.0
O137 O 0.43172 0.37908 0.6831 0.0
O138 O 0.8477 0.20925 0.452 0.0
Zn139 Zn 0.81336 0.1913 0.43633 0.0
O140 O 0.82995 0.15563 0.4225 0.0
Zn141 Zn 0.81751 0.11536 0.43419 0.0
Zn142 Zn 0.87595 0.15921 0.42116 0.0
Zn143 Zn 0.81234 0.15981 0.39833 0.0
O144 O 0.78719 0.0906 0.4169 0.0
O145 O 0.77993 0.12574 0.39446 0.0
O146 O 0.7789 0.1771 0.45311 0.0
O147 O 0.79015 0.12556 0.45626 0.0
O148 O 0.85746 0.0904 0.44342 0.0
O149 O 0.89653 0.12184 0.43367 0.0
O150 O 0.89193 0.15942 0.39503 0.0
O151 O 0.79743 0.22716 0.42028 0.0
O152 O 0.84651 0.15451 0.3798 0.0
O153 O 0.79358 0.20343 0.39337 0.0
C154 C 0.8772 0.21219 0.44863 0.0
C155 C 0.77314 0.0994 0.40219 0.0
C156 C 0.88718 0.09693 0.44202 0.0
C157 C 0.77469 0.15042 0.46098 0.0
C158 C 0.87673 0.15612 0.38009 0.0
C159 C 0.79032 0.22805 0.40338 0.0
O160 O 0.89063 0.19763 0.43539 0.0
O161 O 0.06488 0.6046 0.19766 0.0
Zn162 Zn 0.08317 0.56953 0.18297 0.0
O163 O 0.12098 0.5841 0.17037 0.0
Zn164 Zn 0.15961 0.5693 0.18319 0.0
Zn165 Zn 0.12063 0.63047 0.1693 0.0
Zn166 Zn 0.11756 0.56664 0.14597 0.0
O167 O 0.18423 0.53872 0.16624 0.0
O168 O 0.15179 0.5341 0.14227 0.0
O169 O 0.09411 0.53583 0.20066 0.0
O170 O 0.14632 0.5411 0.20452 0.0
O171 O 0.18648 0.60783 0.19309 0.0
O172 O 0.15938 0.64838 0.18141 0.0
O173 O 0.12042 0.6468 0.14321 0.0
O174 O 0.04863 0.55325 0.16632 0.0
O175 O 0.12326 0.60117 0.12782 0.0
O176 O 0.07417 0.54783 0.14008 0.0
C177 C 0.06665 0.63469 0.19636 0.0
C178 C 0.17688 0.52603 0.15088 0.0
C179 C 0.18268 0.63788 0.19072 0.0
C180 C 0.11972 0.52844 0.20884 0.0
C181 C 0.12267 0.63144 0.12821 0.0
C182 C 0.04887 0.54522 0.14956 0.0
O183 O 0.08481 0.64802 0.18467 0.0
O184 O 0.87552 0.6952 0.53539 0.0
Zn185 Zn 0.83339 0.68907 0.54777 0.0
O186 O 0.83354 0.649 0.56108 0.0
Zn187 Zn 0.81452 0.61426 0.54701 0.0
Zn188 Zn 0.87677 0.63616 0.5663 0.0
Zn189 Zn 0.81063 0.65714 0.58332 0.0
O190 O 0.78064 0.59128 0.56291 0.0
O191 O 0.7734 0.62768 0.58474 0.0
O192 O 0.8006 0.68618 0.52811 0.0
O193 O 0.78973 0.63435 0.52629 0.0
O194 O 0.85046 0.58521 0.53613 0.0
O195 O 0.88729 0.59229 0.55736 0.0
O196 O 0.88692 0.63859 0.59313 0.0
O197 O 0.82236 0.72734 0.56377 0.0
O198 O 0.83896 0.6485 0.60465 0.0
O199 O 0.79667 0.70311 0.58626 0.0
C200 C 0.90236 0.68218 0.53836 0.0
C201 C 0.76515 0.60199 0.57674 0.0
C202 C 0.87776 0.57844 0.5429 0.0
C203 C 0.78581 0.66296 0.52081 0.0
C204 C 0.86846 0.64264 0.60676 0.0
C205 C 0.80541 0.72857 0.57822 0.0
O206 O 0.90631 0.66133 0.55074 0.0
O207 O 0.06746 0.11026 0.78205 0.0
Zn208 Zn 0.08152 0.07251 0.79645 0.0
O209 O 0.11928 0.08372 0.81027 0.0
Zn210 Zn 0.15811 0.0693 0.79755 0.0
Zn211 Zn 0.12095 0.12963 0.81337 0.0
Zn212 Zn 0.11386 0.06346 0.83371 0.0
O213 O 0.18199 0.03729 0.81406 0.0
O214 O 0.14738 0.03019 0.83682 0.0
O215 O 0.0922 0.03881 0.7783 0.0
O216 O 0.14476 0.04346 0.77537 0.0
O217 O 0.18569 0.10781 0.78858 0.0
O218 O 0.16023 0.1478 0.80199 0.0
O219 O 0.12067 0.14283 0.83996 0.0
O220 O 0.04471 0.05728 0.81222 0.0
O221 O 0.11864 0.09546 0.85354 0.0
O222 O 0.06997 0.04487 0.83774 0.0
C223 C 0.07013 0.13993 0.7852 0.0
C224 C 0.17328 0.02299 0.82871 0.0
C225 C 0.18287 0.13763 0.79202 0.0
C226 C 0.11818 0.03159 0.77037 0.0
C227 C 0.12017 0.12566 0.8543 0.0
C228 C 0.04451 0.04587 0.82835 0.0
O229 O 0.08658 0.15037 0.79856 0.0
O230 O 0.6609 0.31872 0.03666 0.0
Zn231 Zn 0.69924 0.33312 0.05031 0.0
O232 O 0.68982 0.37224 0.06319 0.0
Zn233 Zn 0.70477 0.40927 0.04912 0.0
Zn234 Zn 0.64413 0.37465 0.06679 0.0
Zn235 Zn 0.71095 0.3688 0.08652 0.0
O236 O 0.73808 0.43393 0.0643 0.0
O237 O 0.74533 0.40157 0.08809 0.0
O238 O 0.7329 0.34081 0.03172 0.0
O239 O 0.72993 0.39315 0.02729 0.0
O240 O 0.6665 0.43672 0.0398 0.0
O241 O 0.62636 0.41297 0.05409 0.0
O242 O 0.63218 0.37755 0.09352 0.0
O243 O 0.71322 0.2976 0.06714 0.0
O244 O 0.67992 0.37712 0.10654 0.0
O245 O 0.72842 0.32463 0.09163 0.0
C246 C 0.63157 0.32124 0.04063 0.0
C247 C 0.75281 0.42635 0.07899 0.0
C248 C 0.63671 0.4346 0.04346 0.0
C249 C 0.74094 0.36578 0.02303 0.0
C250 C 0.64977 0.37907 0.10767 0.0
C251 C 0.7256 0.2984 0.08302 0.0
O252 O 0.62211 0.33858 0.05388 0.0
O253 O 0.45521 0.91529 0.28035 0.0
Zn254 Zn 0.44285 0.95403 0.29437 0.0
O255 O 0.40455 0.94516 0.3082 0.0
Zn256 Zn 0.36644 0.96061 0.29528 0.0
Zn257 Zn 0.40138 0.89947 0.31199 0.0
Zn258 Zn 0.41043 0.96636 0.33129 0.0
O259 O 0.34268 0.99311 0.3117 0.0
O260 O 0.37791 1.00065 0.33404 0.0
O261 O 0.4339 0.9875 0.27593 0.0
O262 O 0.38113 0.98654 0.27339 0.0
O263 O 0.33853 0.92241 0.28605 0.0
O264 O 0.36179 0.88217 0.30046 0.0
O265 O 0.40101 0.88752 0.33881 0.0
O266 O 0.4801 0.96817 0.3101 0.0
O267 O 0.40392 0.93555 0.35146 0.0
O268 O 0.45498 0.98344 0.33522 0.0
C269 C 0.4517 0.88592 0.28402 0.0
C270 C 0.3519 1.00785 0.32611 0.0
C271 C 0.34015 0.89265 0.28991 0.0
C272 C 0.40837 0.9966 0.2682 0.0
C273 C 0.40148 0.90548 0.35287 0.0
C274 C 0.48054 0.98061 0.32599 0.0
O275 O 0.43524 0.87673 0.29768 0.0
O276 O 0.16204 0.32039 0.44881 0.0
Zn277 Zn 0.20125 0.33418 0.43578 0.0
O278 O 0.19265 0.37303 0.42244 0.0
Zn279 Zn 0.20686 0.41085 0.4361 0.0
Zn280 Zn 0.14721 0.37527 0.41781 0.0
Zn281 Zn 0.21535 0.36888 0.39976 0.0
O282 O 0.23968 0.43617 0.42063 0.0
O283 O 0.25009 0.40112 0.39854 0.0
O284 O 0.2336 0.34273 0.45487 0.0
O285 O 0.23274 0.39551 0.45779 0.0
O286 O 0.16755 0.43717 0.44547 0.0
O287 O 0.12841 0.41372 0.43012 0.0
O288 O 0.13712 0.37732 0.39074 0.0
O289 O 0.21666 0.29799 0.41961 0.0
O290 O 0.18602 0.3775 0.37923 0.0
O291 O 0.23218 0.32446 0.39503 0.0
C292 C 0.133 0.32271 0.44419 0.0
C293 C 0.25611 0.4272 0.40676 0.0
C294 C 0.13799 0.435 0.44124 0.0
C295 C 0.24263 0.36812 0.46282 0.0
C296 C 0.15604 0.37915 0.37715 0.0
C297 C 0.22938 0.29842 0.4038 0.0
O298 O 0.12445 0.3394 0.4305 0.0
O299 O 0.95143 0.9092 0.20604 0.0
Zn300 Zn 0.94412 0.94999 0.19273 0.0
O301 O 0.90424 0.94755 0.17951 0.0
Zn302 Zn 0.86896 0.96556 0.19353 0.0
Zn303 Zn 0.89373 0.90354 0.17459 0.0
Zn304 Zn 0.91147 0.97029 0.15717 0.0
O305 O 0.84534 0.99883 0.17769 0.0
O306 O 0.88144 1.00706 0.15583 0.0
O307 O 0.9403 0.98377 0.21177 0.0
O308 O 0.88799 0.99088 0.21448 0.0
O309 O 0.84038 0.92896 0.20389 0.0
O310 O 0.85001 0.89161 0.18317 0.0
O311 O 0.89726 0.8928 0.14773 0.0
O312 O 0.98195 0.96044 0.17646 0.0
O313 O 0.90282 0.94139 0.13612 0.0
O314 O 0.95719 0.98465 0.15365 0.0
C315 C 0.93979 0.88161 0.20352 0.0
C316 C 0.85561 0.01462 0.1639 0.0
C317 C 0.83478 0.90132 0.19715 0.0
C318 C 0.91648 0.99688 0.21948 0.0
C319 C 0.89918 0.9115 0.13405 0.0
C320 C 0.98282 0.97649 0.16169 0.0
O321 O 0.91966 0.87581 0.19097 0.0
O322 O 0.35901 0.7106 0.95224 0.0
Zn323 Zn 0.32195 0.69638 0.93742 0.0
O324 O 0.33302 0.65803 0.9241 0.0
Zn325 Zn 0.3171 0.61974 0.93681 0.0
Zn326 Zn 0.37896 0.65592 0.92192 0.0
Zn327 Zn 0.31421 0.66303 0.90023 0.0
O328 O 0.28548 0.596 0.91992 0.0
O329 O 0.27924 0.63111 0.89735 0.0
O330 O 0.28765 0.68691 0.95517 0.0
O331 O 0.29019 0.63428 0.9585 0.0
O332 O 0.3547 0.59158 0.9465 0.0
O333 O 0.39576 0.61685 0.93411 0.0
O334 O 0.3934 0.65445 0.89564 0.0
O335 O 0.30795 0.7329 0.92118 0.0
O336 O 0.34706 0.65593 0.88093 0.0
O337 O 0.29751 0.70742 0.89541 0.0
C338 C 0.38872 0.70804 0.94934 0.0
C339 C 0.27122 0.60542 0.90541 0.0
C340 C 0.38474 0.59421 0.94375 0.0
C341 C 0.27906 0.66143 0.96316 0.0
C342 C 0.37726 0.65403 0.88093 0.0
C343 C 0.29799 0.733 0.90475 0.0
O344 O 0.39961 0.6911 0.93628 0.0
O345 O 0.57461 0.10541 0.70442 0.0
Zn346 Zn 0.58939 0.06742 0.69017 0.0
O347 O 0.62642 0.0789 0.67562 0.0
Zn348 Zn 0.66622 0.06419 0.68713 0.0
Zn349 Zn 0.62801 0.12482 0.67295 0.0
Zn350 Zn 0.6198 0.05934 0.65204 0.0
O351 O 0.68928 0.03281 0.66962 0.0
O352 O 0.65212 0.02483 0.64838 0.0
O353 O 0.60145 0.0338 0.70803 0.0
O354 O 0.65435 0.03739 0.70913 0.0
O355 O 0.69387 0.10242 0.6965 0.0
O356 O 0.66674 0.14295 0.68491 0.0
O357 O 0.6287 0.13851 0.64651 0.0
O358 O 0.55212 0.05149 0.67504 0.0
O359 O 0.62538 0.09162 0.63241 0.0
O360 O 0.57517 0.04251 0.64833 0.0
C361 C 0.57635 0.13496 0.70069 0.0
C362 C 0.67888 0.01782 0.65555 0.0
C363 C 0.69008 0.13245 0.69415 0.0
C364 C 0.6281 0.02588 0.7149 0.0
C365 C 0.62777 0.12179 0.63199 0.0
C366 C 0.5506 0.04204 0.65851 0.0
O367 O 0.59276 0.1451 0.68724 0.0
H368 H 0.42089 0.25222 0.04301 0.0
H369 H 0.46069 0.27555 0.02275 0.0
H370 H 0.41869 0.22728 0.97661 0.0
H371 H 0.37763 0.20483 -0.00308 0.0
H372 H 0.48796 0.21318 0.98823 0.0
H373 H 0.4634 0.34053 0.97719 0.0
H374 H 0.44895 0.32749 -0.00096 0.0
H375 H 0.43232 0.31065 0.97851 0.0
C376 C 0.41958 0.24743 0.02848 0.0
C377 C 0.39647 0.22685 0.02144 0.0
C378 C 0.44206 0.2609 0.01689 0.0
C379 C 0.44222 0.2534 -0.00182 0.0
C380 C 0.41845 0.23375 0.99095 0.0
H381 H 0.64048 0.29848 0.00584 0.0
H382 H 0.59903 0.28177 0.98421 0.0
C383 C 0.39523 0.22095 0.00253 0.0
C384 C 0.47097 0.26155 0.98772 0.0
H385 H 0.51779 0.32728 0.98848 0.0
C386 C 0.49468 0.23806 0.98709 0.0
C387 C 0.47947 0.29381 0.98566 0.0
C388 C 0.45456 0.31955 0.98492 0.0
C389 C 0.52678 0.2465 0.98894 0.0
C390 C 0.53456 0.27898 0.99106 0.0
C391 C 0.51153 0.30229 0.98732 0.0
C392 C 0.56051 0.28816 0.00346 0.0
C393 C 0.55127 0.22076 0.99178 0.0
C394 C 0.55241 0.29644 0.02146 0.0
C395 C 0.57572 0.30589 0.03376 0.0
C396 C 0.6077 0.30705 0.02833 0.0
C397 C 0.61599 0.2976 0.01045 0.0
C398 C 0.59244 0.28829 -0.00197 0.0
H399 H 0.54244 0.19709 0.98725 0.0
H400 H 0.57338 0.22651 0.98416 0.0
H401 H 0.55734 0.21932 0.00653 0.0
H402 H 0.52781 0.29593 0.02594 0.0
H403 H 0.56858 0.31287 0.04742 0.0
H404 H 0.54713 0.63042 0.25586 0.0
H405 H 0.53028 0.66829 0.23229 0.0
H406 H 0.55674 0.74624 0.26767 0.0
H407 H 0.57393 0.70904 0.29088 0.0
H408 H 0.48415 0.71044 0.23387 0.0
H409 H 0.59048 0.78024 0.22045 0.0
H410 H 0.59288 0.73972 0.2288 0.0
H411 H 0.59117 0.77295 0.24453 0.0
C412 C 0.54942 0.65569 0.25854 0.0
C413 C 0.56181 0.66679 0.27527 0.0
C414 C 0.54021 0.6772 0.24495 0.0
C415 C 0.54351 0.71004 0.24786 0.0
C416 C 0.55541 0.72099 0.26468 0.0
H417 H 0.45103 0.82161 0.28813 0.0
H418 H 0.46827 0.78167 0.26643 0.0
C419 C 0.56463 0.69967 0.27817 0.0
C420 C 0.52997 0.73363 0.23509 0.0
H421 H 0.54201 0.81322 0.23194 0.0
C422 C 0.49696 0.73271 0.23236 0.0
C423 C 0.5465 0.76231 0.23161 0.0
C424 C 0.58232 0.7636 0.23128 0.0
C425 C 0.47971 0.76117 0.23129 0.0
C426 C 0.49612 0.79024 0.23371 0.0
C427 C 0.52922 0.79081 0.23126 0.0
C428 C 0.48222 0.81536 0.2454 0.0
C429 C 0.44391 0.7598 0.23065 0.0
C430 C 0.4858 0.84777 0.24128 0.0
C431 C 0.47654 0.8709 0.254 0.0
C432 C 0.46384 0.86187 0.27106 0.0
C433 C 0.46059 0.82942 0.27513 0.0
C434 C 0.46984 0.8065 0.26251 0.0
H435 H 0.43612 0.74183 0.22044 0.0
H436 H 0.43459 0.75212 0.24415 0.0
H437 H 0.43344 0.7833 0.22712 0.0
H438 H 0.49609 0.85511 0.22837 0.0
H439 H 0.47917 0.89579 0.25041 0.0
H440 H 0.17036 0.76958 0.51569 0.0
H441 H 0.13781 0.73364 0.49704 0.0
H442 H 0.05557 0.7926 0.50744 0.0
H443 H 0.0876 0.82828 0.52587 0.0
H444 H 0.09068 0.70203 0.51341 0.0
H445 H 0.03747 0.76479 0.45562 0.0
H446 H 0.07512 0.7768 0.46548 0.0
H447 H 0.03804 0.7917 0.47462 0.0
C448 C 0.14544 0.77515 0.51366 0.0
C449 C 0.1313 0.80134 0.52253 0.0
C450 C 0.12705 0.75484 0.50282 0.0
C451 C 0.09447 0.76082 0.50048 0.0
C452 C 0.08087 0.788 0.50853 0.0
H453 H 0.92667 0.73927 0.52786 0.0
H454 H 0.97478 0.74778 0.50961 0.0
C455 C 0.09907 0.80804 0.51944 0.0
C456 C 0.07281 0.73574 0.49384 0.0
H457 H 0.99851 0.73455 0.47559 0.0
C458 C 0.071 0.70809 0.50448 0.0
C459 C 0.0478 0.74307 0.4817 0.0
C460 C 0.04999 0.77059 0.46857 0.0
C461 C 0.04217 0.69174 0.50638 0.0
C462 C 0.01512 0.70305 0.4968 0.0
C463 C 0.01899 0.72658 0.48336 0.0
C464 C 0.98279 0.69758 0.50409 0.0
C465 C 0.04007 0.66566 0.52055 0.0
C466 C 0.97075 0.66675 0.50649 0.0
C467 C 0.9442 0.66191 0.51758 0.0
C468 C 0.92865 0.68796 0.52572 0.0
C469 C 0.93872 0.71895 0.52187 0.0
C470 C 0.9659 0.72373 0.51129 0.0
H471 H 0.06309 0.66157 0.52763 0.0
H472 H 0.0219 0.67171 0.53102 0.0
H473 H 0.03304 0.64299 0.5139 0.0
H474 H 0.98278 0.6464 0.50059 0.0
H475 H 0.93607 0.63779 0.52005 0.0
H476 H 0.03975 0.12744 0.75271 0.0
H477 H 0.02099 0.16641 0.73019 0.0
H478 H 0.05245 0.24269 0.76541 0.0
H479 H 0.07135 0.20449 0.78757 0.0
H480 H 0.97544 0.2093 0.73453 0.0
H481 H 0.08065 0.27832 0.71731 0.0
H482 H 0.08349 0.23722 0.72463 0.0
H483 H 0.08472 0.26936 0.74109 0.0
C484 C 0.04278 0.15258 0.75556 0.0
C485 C 0.05696 0.16291 0.77198 0.0
C486 C 0.03245 0.17472 0.74256 0.0
C487 C 0.03651 0.20741 0.74573 0.0
C488 C 0.05041 0.21757 0.76219 0.0
H489 H 0.9532 0.31743 0.79262 0.0
H490 H 0.96746 0.27863 0.76955 0.0
C491 C 0.06064 0.19565 0.7751 0.0
C492 C 0.02168 0.23169 0.73388 0.0
H493 H 0.03462 0.31126 0.73184 0.0
C494 C 0.98837 0.23145 0.73281 0.0
C495 C 0.03812 0.26033 0.73017 0.0
C496 C 0.07379 0.26108 0.72812 0.0
C497 C 0.97154 0.26022 0.7333 0.0
C498 C 0.9888 0.28886 0.73545 0.0
C499 C 0.02139 0.2891 0.73132 0.0
C500 C 0.9772 0.31338 0.74831 0.0
C501 C 0.93578 0.25944 0.73464 0.0
C502 C 0.97961 0.34598 0.74445 0.0
C503 C 0.972 0.36846 0.7579 0.0
C504 C 0.96223 0.35857 0.77544 0.0
C505 C 0.96048 0.32591 0.77928 0.0
C506 C 0.96802 0.30364 0.76592 0.0
H507 H 0.92596 0.24191 0.72476 0.0
H508 H 0.92866 0.25155 0.74853 0.0
H509 H 0.9252 0.28322 0.73192 0.0
H510 H 0.98752 0.35396 0.73112 0.0
H511 H 0.97347 0.39352 0.7545 0.0
H512 H 0.64599 0.80504 0.98845 0.0
H513 H 0.60494 0.788 0.01032 0.0
H514 H 0.53481 0.79129 0.96733 0.0
H515 H 0.57509 0.80861 0.94568 0.0
H516 H 0.51899 0.82446 0.00325 0.0
H517 H 0.55743 0.69857 0.01011 0.0
H518 H 0.58422 0.73176 0.01346 0.0
H519 H 0.57314 0.71992 0.99074 0.0
C520 C 0.62182 0.80183 0.98368 0.0
C521 C 0.61366 0.80817 0.96535 0.0
C522 C 0.59848 0.79236 -0.00378 0.0
C523 C 0.56691 0.78898 0.99046 0.0
C524 C 0.55904 0.79444 0.97209 0.0
H525 H 0.45199 0.71789 0.94451 0.0
H526 H 0.49023 0.73622 0.96707 0.0
C527 C 0.5821 0.80408 0.95968 0.0
C528 C 0.54128 0.77833 0.00274 0.0
H529 H 0.5021 0.70783 0.00387 0.0
C530 C 0.51521 0.799 0.00456 0.0
C531 C 0.53675 0.74537 0.00533 0.0
C532 C 0.56437 0.7225 0.00499 0.0
C533 C 0.48414 0.787 0.00377 0.0
C534 C 0.47993 0.75388 0.00157 0.0
C535 C 0.50567 0.73337 0.00488 0.0
C536 C 0.45554 0.74232 0.98875 0.0
C537 C 0.45673 0.80989 0.0018 0.0
C538 C 0.42323 0.74067 -0.00667 0.0
C539 C 0.4011 0.73069 0.98024 0.0
C540 C 0.41118 0.72206 0.96252 0.0
C541 C 0.4435 0.72427 0.95801 0.0
C542 C 0.46539 0.73445 0.97096 0.0
H543 H 0.46332 0.83438 0.00614 0.0
H544 H 0.44909 0.81068 0.98729 0.0
H545 H 0.43619 0.80175 0.01012 0.0
H546 H 0.41524 0.74682 0.00696 0.0
H547 H 0.3763 0.72891 0.98415 0.0
H548 H 0.57794 0.19938 0.69765 0.0
H549 H 0.55465 0.23846 0.71789 0.0
H550 H 0.51783 0.16369 0.75239 0.0
H551 H 0.54114 0.12374 0.73179 0.0
H552 H 0.47271 0.20595 0.7442 0.0
H553 H 0.57428 0.27598 0.76701 0.0
H554 H 0.5818 0.26698 0.7435 0.0
H555 H 0.57856 0.23489 0.75986 0.0
C556 C 0.56517 0.19103 0.70959 0.0
C557 C 0.56131 0.1584 0.71304 0.0
C558 C 0.55234 0.2135 0.72141 0.0
C559 C 0.53554 0.20404 0.73709 0.0
C560 C 0.53142 0.17147 0.74063 0.0
H561 H 0.46827 0.3931 0.73276 0.0
H562 H 0.48244 0.34982 0.75377 0.0
C563 C 0.54443 0.14876 0.72874 0.0
C564 C 0.51836 0.22878 0.74755 0.0
H565 H 0.52983 0.30847 0.75151 0.0
C566 C 0.48502 0.22819 0.74684 0.0
C567 C 0.5339 0.25751 0.75223 0.0
C568 C 0.56914 0.25864 0.75592 0.0
C569 C 0.46787 0.25676 0.74619 0.0
C570 C 0.48487 0.28581 0.74567 0.0
C571 C 0.51694 0.28611 0.75092 0.0
C572 C 0.47352 0.31232 0.73414 0.0
C573 C 0.43234 0.25553 0.74347 0.0
C574 C 0.46513 0.30562 0.71596 0.0
C575 C 0.45745 0.33003 0.70396 0.0
C576 C 0.45836 0.36186 0.70976 0.0
C577 C 0.46751 0.36876 0.72786 0.0
C578 C 0.47518 0.34412 0.73995 0.0
H579 H 0.42171 0.23691 0.75236 0.0
H580 H 0.42095 0.27881 0.74656 0.0
H581 H 0.42702 0.24891 0.72911 0.0
H582 H 0.46519 0.28139 0.71085 0.0
H583 H 0.45073 0.32385 0.69012 0.0
H584 H 0.13952 0.30304 0.4797 0.0
H585 H 0.09656 0.28878 0.50096 0.0
H586 H 0.02824 0.29905 0.45741 0.0
H587 H 0.07054 0.31362 0.43627 0.0
H588 H 0.01602 0.33446 0.49332 0.0
H589 H 0.03949 0.20454 0.49993 0.0
H590 H 0.0704 0.23408 0.50271 0.0
H591 H 0.05604 0.22445 0.48028 0.0
C592 C 0.11535 0.30178 0.47462 0.0
C593 C 0.10831 0.30951 0.45631 0.0
C594 C 0.09094 0.29389 0.48682 0.0
C595 C 0.05938 0.29343 0.48076 0.0
C596 C 0.05254 0.29986 0.46236 0.0
H597 H 0.92345 0.25366 0.43929 0.0
H598 H 0.96165 0.27906 0.45972 0.0
C599 C 0.07672 0.30792 0.45026 0.0
C600 C 0.03255 0.28586 0.49293 0.0
H601 H 0.98529 0.22081 0.49719 0.0
C602 C 1.00947 0.30969 0.49528 0.0
C603 C 0.02438 0.25375 0.4961 0.0
C604 C 0.04885 0.2276 0.49478 0.0
C605 C 0.97725 0.30159 0.49651 0.0
C606 C 0.96865 0.26921 0.49544 0.0
C607 C 0.99211 0.24573 0.49755 0.0
C608 C 0.94079 0.26003 0.48452 0.0
C609 C 0.95253 0.32752 0.49565 0.0
C610 C 0.91621 0.24144 0.49181 0.0
C611 C 0.89392 0.22745 0.48009 0.0
C612 C 0.8969 0.23108 0.46105 0.0
C613 C 0.92082 0.25059 0.45392 0.0
C614 C 0.94237 0.26527 0.46559 0.0
H615 H 0.96095 0.34932 0.50278 0.0
H616 H 0.9481 0.33377 0.48114 0.0
H617 H 0.92974 0.31953 0.50184 0.0
H618 H 0.91511 0.23669 0.50634 0.0
H619 H 0.87566 0.21218 0.4858 0.0
H620 H 0.02583 0.61445 0.22318 0.0
H621 H 0.99517 0.64755 0.24443 0.0
H622 H 0.03623 0.73195 0.2205 0.0
H623 H 0.06703 0.69937 0.19941 0.0
H624 H 0.02818 0.73144 0.26185 0.0
H625 H 0.91956 0.69944 0.22221 0.0
H626 H 0.94459 0.66952 0.23245 0.0
H627 H 0.9578 0.69018 0.21235 0.0
C628 C 0.02849 0.64008 0.22253 0.0
C629 C 0.04846 0.65438 0.20939 0.0
C630 C 1.01117 0.65883 0.2348 0.0
C631 C 0.01367 0.69203 0.23405 0.0
C632 C 0.03439 0.70624 0.22141 0.0
H633 H 0.99738 0.86038 0.21499 0.0
H634 H 1.00734 0.81424 0.2343 0.0
C635 C 0.05162 0.68763 0.20919 0.0
C636 C 0.99169 0.71295 0.24409 0.0
H637 H 0.92513 0.75258 0.23144 0.0
C638 C 1.00487 0.73562 0.25596 0.0
C639 C 0.9607 0.71761 0.23719 0.0
C640 C 0.94457 0.69291 0.22541 0.0
C641 C 0.99048 0.76549 0.2581 0.0
C642 C 0.96327 0.77269 0.24754 0.0
C643 C 0.94676 0.74768 0.23899 0.0
C644 C 0.95747 0.80526 0.24049 0.0
C645 C 1.00631 0.78993 0.27013 0.0
C646 C 0.92625 0.81581 0.23732 0.0
C647 C 0.92066 0.84105 0.22539 0.0
C648 C 0.94623 0.85673 0.21694 0.0
C649 C 0.97744 0.84828 0.22132 0.0
C650 C 0.98304 0.82233 0.23274 0.0
H651 H 0.01307 0.77891 0.28336 0.0
H652 H 0.02862 0.79827 0.26356 0.0
H653 H 0.99058 0.81068 0.27283 0.0
H654 H 0.90612 0.80316 0.24307 0.0
H655 H 0.89632 0.84788 0.22243 0.0
H656 H 0.38013 0.04873 0.01515 0.0
H657 H 0.42384 0.02133 -0.00093 0.0
H658 H 0.4921 0.06979 0.03306 0.0
H659 H 0.44908 0.09679 0.04912 0.0
H660 H 0.47438 0.05041 0.97926 0.0
H661 H 0.52288 0.97772 0.03593 0.0
H662 H 0.48379 0.99554 0.03682 0.0
H663 H 0.51856 0.01918 0.04143 0.0
C664 C 0.40441 0.05307 0.01942 0.0
C665 C 0.41087 0.07498 0.03353 0.0
C666 C 0.42945 0.03753 0.01014 0.0
C667 C 0.46145 0.04315 0.01493 0.0
C668 C 0.46778 0.06447 0.02925 0.0
H669 H 0.64831 0.97764 0.97391 0.0
H670 H 0.60575 1.00631 0.9903 0.0
C671 C 0.44296 0.08009 0.03839 0.0
C672 C 0.48842 0.02828 0.00449 0.0
H673 H 0.55495 0.98177 0.00925 0.0
C674 C 0.49183 0.0352 0.98581 0.0
C675 C 0.51164 1.00878 0.013 0.0
C676 C 0.50899 0.99959 0.03286 0.0
C677 C 0.51784 0.02363 0.97552 0.0
C678 C 0.54092 1.00383 0.98397 0.0
C679 C 0.53756 0.99704 0.00269 0.0
C680 C 0.56745 0.98835 0.9734 0.0
C681 C 0.52064 0.03344 0.95576 0.0
C682 C 0.56043 0.96875 0.9584 0.0
C683 C 0.5846 0.95265 0.94899 0.0
C684 C 0.61676 0.95522 0.95436 0.0
C685 C 0.62399 0.9753 0.96922 0.0
C686 C 0.59958 0.99153 0.97869 0.0
H687 H 0.5082 0.05635 0.95316 0.0
H688 H 0.54591 0.03597 0.95155 0.0
H689 H 0.50934 0.01502 0.94703 0.0
H690 H 0.536 0.96508 0.95421 0.0
H691 H 0.5778 0.93738 0.93772 0.0
H692 H 0.70192 0.70048 0.30779 0.0
H693 H 0.72772 0.74365 0.29104 0.0
H694 H 0.74438 0.68043 0.24561 0.0
H695 H 0.71847 0.63675 0.26243 0.0
H696 H 0.78998 0.74992 0.27445 0.0
H697 H 0.69196 0.75583 0.22361 0.0
H698 H 0.68789 0.73517 0.24511 0.0
H699 H 0.71016 0.71745 0.22679 0.0
C700 C 0.71153 0.69547 0.29435 0.0
C701 C 0.70802 0.66497 0.2865 0.0
C702 C 0.72627 0.72032 0.28475 0.0
C703 C 0.73758 0.71562 0.26691 0.0
C704 C 0.73545 0.68486 0.25927 0.0
H705 H 0.8132 0.8441 0.18427 0.0
H706 H 0.7894 0.80052 0.20146 0.0
C707 C 0.72095 0.65975 0.26899 0.0
C708 C 0.75039 0.74332 0.25625 0.0
H709 H 0.73478 0.79138 0.21953 0.0
C710 C 0.77793 0.75897 0.26243 0.0
C711 C 0.73466 0.75534 0.24059 0.0
C712 C 0.70439 0.74034 0.23362 0.0
C713 C 0.79047 0.78575 0.25323 0.0
C714 C 0.77453 0.79805 0.23767 0.0
C715 C 0.74698 0.78231 0.2315 0.0
C716 C 0.78686 0.82615 0.22707 0.0
C717 C 0.82127 0.79999 0.25998 0.0
C718 C 0.79241 0.85593 0.23541 0.0
C719 C 0.80615 0.88124 0.22551 0.0
C720 C 0.8145 0.87743 0.20699 0.0
C721 C 0.80725 0.84812 0.1985 0.0
C722 C 0.79362 0.82297 0.20836 0.0
H723 H 0.83468 0.78303 0.26872 0.0
H724 H 0.83674 0.80722 0.2484 0.0
H725 H 0.81596 0.82145 0.2683 0.0
H726 H 0.78667 0.85947 0.24969 0.0
H727 H 0.81141 0.9033 0.23257 0.0
H728 H 0.12573 1.0026 0.54361 0.0
H729 H 0.08116 0.02969 0.52817 0.0
H730 H 0.06966 0.9485 0.49261 0.0
H731 H 0.11276 0.92113 0.50854 0.0
H732 H 0.06702 0.05005 0.49546 0.0
H733 H 0.98129 0.95439 0.51088 0.0
H734 H 0.02068 0.95505 0.52059 0.0
H735 H 0.01415 0.93892 0.49804 0.0
C736 C 0.11391 0.99086 0.53232 0.0
C737 C 0.12279 0.95981 0.52723 0.0
C738 C 0.08827 1.00623 0.52355 0.0
C739 C 0.07107 0.99085 0.50951 0.0
C740 C 0.08142 0.96058 0.5038 0.0
H741 H 0.9482 0.08674 0.43085 0.0
H742 H 0.99138 0.06085 0.44744 0.0
C743 C 0.1065 0.9451 0.51273 0.0
C744 C 0.04239 1.0061 0.50082 0.0
H745 H 0.96547 0.99142 0.48766 0.0
C746 C 0.04477 0.03725 0.49391 0.0
C747 C 1.01276 0.99004 0.49911 0.0
C748 C 1.00693 0.95792 0.50775 0.0
C749 C 0.0191 0.05216 0.48487 0.0
C750 C 0.9903 0.03513 0.48194 0.0
C751 C 0.98754 1.00444 0.48945 0.0
C752 C 0.96296 0.04864 0.47112 0.0
C753 C 0.02309 0.08637 0.47898 0.0
C754 C 0.93163 0.04852 0.47808 0.0
C755 C 0.90642 0.06247 0.46822 0.0
C756 C 0.91201 0.07713 0.45123 0.0
C757 C 0.94304 0.07598 0.44397 0.0
C758 C 0.96797 0.06153 0.45362 0.0
H759 H 0.04077 0.09895 0.48766 0.0
H760 H 0.03203 0.08699 0.46472 0.0
H761 H 1.00024 0.0996 0.47966 0.0
H762 H 0.92678 0.03848 0.49142 0.0
H763 H 0.88291 0.06312 0.47429 0.0
H764 H 0.80144 0.39155 0.76796 0.0
H765 H 0.77523 0.34882 0.75049 0.0
H766 H 0.80906 0.27964 0.78936 0.0
H767 H 0.83461 0.32178 0.80685 0.0
H768 H 0.80449 0.29686 0.73383 0.0
H769 H 0.71699 0.25317 0.78453 0.0
H770 H 0.73699 0.29098 0.78697 0.0
H771 H 0.75677 0.25463 0.79334 0.0
C772 C 0.80257 0.36735 0.77303 0.0
C773 C 0.82007 0.36032 0.78893 0.0
C774 C 0.78779 0.34284 0.76294 0.0
C775 C 0.78979 0.31083 0.76864 0.0
C776 C 0.80647 0.30402 0.78477 0.0
H777 H 0.72921 0.12502 0.72437 0.0
H778 H 0.75566 0.16744 0.74199 0.0
C779 C 0.82127 0.32832 0.79477 0.0
C780 C 0.77631 0.28423 0.7573 0.0
H781 H 0.72671 0.21948 0.75888 0.0
C782 C 0.78727 0.28014 0.73928 0.0
C783 C 0.7541 0.26198 0.76437 0.0
C784 C 0.74028 0.26551 0.7833 0.0
C785 C 0.77712 0.25436 0.72834 0.0
C786 C 0.75486 0.23214 0.73541 0.0
C787 C 0.74394 0.2362 0.75343 0.0
C788 C 0.74121 0.20571 0.72401 0.0
C789 C 0.79096 0.25081 0.70942 0.0
C790 C 0.72448 0.21278 0.70792 0.0
C791 C 0.70954 0.18867 0.69786 0.0
C792 C 0.71064 0.1566 0.70356 0.0
C793 C 0.72815 0.14929 0.71941 0.0
C794 C 0.74307 0.17362 0.72958 0.0
H795 H 0.81432 0.26303 0.70822 0.0
H796 H 0.79411 0.22535 0.70572 0.0
H797 H 0.77454 0.26183 0.69938 0.0
H798 H 0.722 0.23723 0.70343 0.0
H799 H 0.6962 0.19543 0.68581 0.0
H800 H 0.29871 0.39932 0.72359 0.0
H801 H 0.27328 0.35573 0.74073 0.0
H802 H 0.30397 0.28869 0.69973 0.0
H803 H 0.32925 0.33158 0.68269 0.0
H804 H 0.22628 0.30956 0.73127 0.0
H805 H 0.34134 0.2507 0.74656 0.0
H806 H 0.33888 0.29103 0.73815 0.0
H807 H 0.33492 0.25797 0.72268 0.0
C808 C 0.2996 0.37539 0.71808 0.0
C809 C 0.31632 0.36914 0.70176 0.0
C810 C 0.28521 0.3504 0.72796 0.0
C811 C 0.2874 0.31865 0.72181 0.0
C812 C 0.30264 0.31271 0.70508 0.0
H813 H 0.22148 0.13177 0.76138 0.0
H814 H 0.2476 0.17516 0.74439 0.0
C815 C 0.31691 0.33749 0.69525 0.0
C816 C 0.2741 0.29155 0.73277 0.0
H817 H 0.29453 0.2214 0.7537 0.0
C818 C 0.24126 0.29043 0.73628 0.0
C819 C 0.29352 0.26629 0.73924 0.0
C820 C 0.32916 0.26657 0.73664 0.0
C821 C 0.22729 0.26467 0.74571 0.0
C822 C 0.2467 0.23943 0.75222 0.0
C823 C 0.27955 0.24053 0.7487 0.0
C824 C 0.23332 0.21238 0.76319 0.0
C825 C 0.19164 0.26437 0.74824 0.0
C826 C 0.21777 0.21844 0.77981 0.0
C827 C 0.20304 0.19379 0.78953 0.0
C828 C 0.20354 0.16214 0.78302 0.0
C829 C 0.22067 0.15572 0.76687 0.0
C830 C 0.23546 0.1806 0.75708 0.0
H831 H 0.17951 0.28011 0.73824 0.0
H832 H 0.18195 0.23989 0.7468 0.0
H833 H 0.18579 0.27314 0.76216 0.0
H834 H 0.21647 0.24248 0.78514 0.0
H835 H 0.19042 0.1998 0.80198 0.0
H836 H 0.33157 0.83046 0.29961 0.0
H837 H 0.30536 0.78821 0.28251 0.0
H838 H 0.27529 0.85635 0.24204 0.0
H839 H 0.30233 0.89909 0.25902 0.0
H840 H 0.24505 0.7765 0.27211 0.0
H841 H 0.32032 0.79112 0.21037 0.0
H842 H 0.32921 0.81075 0.2317 0.0
H843 H 0.29892 0.82639 0.21686 0.0
C844 C 0.31919 0.83674 0.28714 0.0
C845 C 0.31938 0.86842 0.2807 0.0
C846 C 0.30414 0.81235 0.27733 0.0
C847 C 0.28886 0.81868 0.26069 0.0
C848 C 0.28759 0.85053 0.25459 0.0
H849 H 0.18943 0.70055 0.1818 0.0
H850 H 0.21624 0.74254 0.19885 0.0
C851 C 0.30271 0.87512 0.26446 0.0
C852 C 0.27486 0.79168 0.24983 0.0
H853 H 0.27858 0.7534 0.20848 0.0
C854 C 0.25248 0.77146 0.25821 0.0
C855 C 0.28461 0.78469 0.2317 0.0
C856 C 0.3098 0.80415 0.22214 0.0
C857 C 0.23919 0.74513 0.24893 0.0
C858 C 0.24882 0.73824 0.23078 0.0
C859 C 0.27122 0.75843 0.2224 0.0
C860 C 0.23456 0.71146 0.21989 0.0
C861 C 0.21423 0.72542 0.25851 0.0
C862 C 0.23661 0.67943 0.22558 0.0
C863 C 0.22125 0.65499 0.2157 0.0
C864 C 0.20344 0.66209 0.19992 0.0
C865 C 0.2027 0.69401 0.19392 0.0
C866 C 0.21809 0.71822 0.20368 0.0
H867 H 0.20422 0.73795 0.27061 0.0
H868 H 0.19445 0.7194 0.24907 0.0
H869 H 0.22512 0.70283 0.26328 0.0
H870 H 0.24972 0.67335 0.23781 0.0
H871 H 0.22234 0.6308 0.22079 0.0
H872 H 0.14105 0.46747 0.47426 0.0
H873 H 0.09645 0.49152 0.49123 0.0
H874 H 0.03351 0.47079 0.44633 0.0
H875 H 0.0774 0.44649 0.42957 0.0
H876 H 0.05402 0.54073 0.48497 0.0
H877 H 0.98748 0.42699 0.48773 0.0
H878 H 0.0285 0.42907 0.48054 0.0
H879 H 0.99705 0.43884 0.46483 0.0
C880 C 0.11782 0.46849 0.46789 0.0
C881 C 0.11296 0.45472 0.45055 0.0
C882 C 0.09222 0.4821 0.47767 0.0
C883 C 0.06118 0.4822 0.47035 0.0
C884 C 0.05681 0.47017 0.45262 0.0
H885 H 0.87472 0.55458 0.50751 0.0
H886 H 0.91844 0.53067 0.48973 0.0
C887 C 0.08218 0.45649 0.44294 0.0
C888 C 0.03323 0.49436 0.48118 0.0
H889 H 0.95928 0.4734 0.49714 0.0
C890 C 0.03344 0.52589 0.48769 0.0
C891 C 1.0061 0.47517 0.48484 0.0
C892 C 1.00479 0.44055 0.47929 0.0
C893 C 1.00729 0.5388 0.49734 0.0
C894 C 0.98013 0.51969 0.50083 0.0
C895 C 0.97987 0.4882 0.49435 0.0
C896 C 0.9525 0.5317 0.51186 0.0
C897 C 1.00869 0.57308 0.50351 0.0
C898 C 0.95653 0.5391 0.53041 0.0
C899 C 0.93156 0.55227 0.54064 0.0
C900 C 0.90166 0.55865 0.53265 0.0
C901 C 0.89717 0.54987 0.51423 0.0
C902 C 0.92229 0.53639 0.50399 0.0
H903 H 0.0274 0.58667 0.49613 0.0
H904 H 0.98542 0.58505 0.50139 0.0
H905 H 0.0142 0.5739 0.51833 0.0
H906 H 0.97933 0.53524 0.53694 0.0
H907 H 0.93618 0.55852 0.55475 0.0
H908 H 0.57416 0.44206 0.05262 0.0
H909 H 0.53223 0.46856 0.03546 0.0
H910 H 0.60116 0.50025 -0.0042 0.0
H911 H 0.6436 0.47303 0.01286 0.0
H912 H 0.52119 0.52989 0.02551 0.0
H913 H 0.53652 0.45527 0.96349 0.0
H914 H 0.55549 0.44583 0.98491 0.0
H915 H 0.57169 0.47633 0.9704 0.0
C916 C 0.58066 0.45483 0.04031 0.0
C917 C 0.61248 0.45509 0.03412 0.0
C918 C 0.55648 0.47004 0.03048 0.0
C919 C 0.56317 0.48592 0.01406 0.0
C920 C 0.59511 0.48753 0.00819 0.0
H921 H 0.44717 0.58599 0.93478 0.0
H922 H 0.48854 0.55871 0.95197 0.0
C923 C 0.6195 0.47227 0.01809 0.0
C924 C 0.53646 0.50017 0.00318 0.0
H925 H 0.49879 0.49699 0.96172 0.0
C926 C 0.51629 0.52262 0.01157 0.0
C927 C 0.52971 0.49063 0.985 0.0
C928 C 0.54926 0.46548 0.97543 0.0
C929 C 0.49023 0.5362 0.00224 0.0
C930 C 0.48354 0.52671 0.98405 0.0
C931 C 0.50366 0.50422 0.97567 0.0
C932 C 0.45708 0.54126 0.9731 0.0
C933 C 0.47067 0.56134 0.01181 0.0
C934 C 0.42503 0.53984 0.97879 0.0
C935 C 0.40095 0.55554 0.96885 0.0
C936 C 0.40844 0.573 0.953 0.0
C937 C 0.44034 0.57302 0.94696 0.0
C938 C 0.4642 0.55736 0.95681 0.0
H939 H 0.48324 0.57132 0.02388 0.0
H940 H 0.46475 0.58115 0.00237 0.0
H941 H 0.44806 0.55058 0.01664 0.0
H942 H 0.41867 0.52698 0.99107 0.0
H943 H 0.37676 0.555 0.97395 0.0
H944 H 0.28112 0.24479 0.11377 0.0
H945 H 0.26551 0.29656 0.12636 0.0
H946 H 0.25668 0.33434 0.07187 0.0
H947 H 0.27249 0.28274 0.05909 0.0
H948 H 0.29708 0.36065 0.11786 0.0
H949 H 0.16886 0.35147 0.09963 0.0
H950 H 0.1941 0.31687 0.10198 0.0
H951 H 0.19728 0.3416 0.08209 0.0
C952 C 0.27573 0.26402 0.10442 0.0
C953 C 0.27794 0.25948 0.08538 0.0
C954 C 0.26696 0.29364 0.11167 0.0
C955 C 0.25986 0.3192 0.10005 0.0
C956 C 0.26192 0.31483 0.08107 0.0
H957 H 0.18089 0.50718 0.11537 0.0
H958 H 0.20449 0.45836 0.10336 0.0
C959 C 0.27096 0.2853 0.07379 0.0
C960 C 0.25011 0.35044 0.10775 0.0
H961 H 0.18625 0.40003 0.11225 0.0
C962 C 0.27285 0.36934 0.1167 0.0
C963 C 0.21854 0.36163 0.10618 0.0
C964 C 0.1931 0.34187 0.09707 0.0
C965 C 0.26497 0.39956 0.12376 0.0
C966 C 0.23329 0.41078 0.12222 0.0
C967 C 0.21056 0.39159 0.1134 0.0
C968 C 0.22291 0.44239 0.12939 0.0
C969 C 0.29086 0.41949 0.1323 0.0
C970 C 0.22609 0.45029 0.148 0.0
C971 C 0.21297 0.47863 0.15488 0.0
C972 C 0.1959 0.49924 0.14335 0.0
C973 C 0.1938 0.49179 0.12464 0.0
C974 C 0.20721 0.46379 0.11776 0.0
H975 H 0.31486 0.41184 0.12765 0.0
H976 H 0.28775 0.44511 0.129 0.0
H977 H 0.28991 0.41672 0.14737 0.0
H978 H 0.23746 0.43393 0.15736 0.0
H979 H 0.21463 0.48346 0.16939 0.0
H980 H 0.48831 0.55253 0.31909 0.0
H981 H 0.43856 0.53589 0.33359 0.0
H982 H 0.4892 0.51487 0.38334 0.0
H983 H 0.53914 0.53107 0.3689 0.0
H984 H 0.44886 0.4669 0.37353 0.0
H985 H 0.3847 0.58214 0.37165 0.0
H986 H 0.39946 0.56991 0.3497 0.0
H987 H 0.42703 0.57903 0.36775 0.0
C988 C 0.48893 0.54448 0.33314 0.0
C989 C 0.51787 0.54321 0.3428 0.0
C990 C 0.46034 0.53523 0.34148 0.0
C991 C 0.45996 0.52468 0.3597 0.0
C992 C 0.48881 0.52316 0.36932 0.0
H993 H 0.28702 0.47763 0.42359 0.0
H994 H 0.3366 0.5036 0.4135 0.0
C995 C 0.5174 0.53241 0.36101 0.0
C996 C 0.4298 0.51364 0.36838 0.0
H997 H 0.3533 0.53592 0.3783 0.0
C998 C 0.42811 0.48213 0.37472 0.0
C999 C 0.40275 0.53359 0.37022 0.0
C1000 C 0.40357 0.56815 0.36464 0.0
C1001 C 0.39987 0.46969 0.38213 0.0
C1002 C 0.37237 0.48911 0.38308 0.0
C1003 C 0.37432 0.52099 0.37744 0.0
C1004 C 0.34106 0.47578 0.38871 0.0
C1005 C 0.39957 0.43565 0.38873 0.0
C1006 C 0.32666 0.45238 0.37787 0.0
C1007 C 0.29855 0.43769 0.38351 0.0
C1008 C 0.28392 0.44604 0.40019 0.0
C1009 C 0.2976 0.47059 0.4107 0.0
C1010 C 0.32595 0.48539 0.40497 0.0
H1011 H 0.42399 0.42674 0.39151 0.0
H1012 H 0.38508 0.43324 0.40136 0.0
H1013 H 0.38886 0.42026 0.37805 0.0
H1014 H 0.33757 0.44499 0.36513 0.0
H1015 H 0.28864 0.4192 0.37489 0.0
H1016 H 0.23521 0.79387 0.62041 0.0
H1017 H 0.25167 0.74391 0.63499 0.0
H1018 H 0.27435 0.70428 0.58222 0.0
H1019 H 0.25785 0.75387 0.5675 0.0
H1020 H 0.22692 0.67774 0.62644 0.0
H1021 H 0.35667 0.69377 0.61493 0.0
H1022 H 0.32896 0.72669 0.61476 0.0
H1023 H 0.3316 0.7005 0.59541 0.0
C1024 C 0.24386 0.7746 0.61189 0.0
C1025 C 0.24532 0.77803 0.59275 0.0
C1026 C 0.25311 0.74602 0.62026 0.0
C1027 C 0.26437 0.72046 0.6097 0.0
C1028 C 0.26594 0.7238 0.59064 0.0
H1029 H 0.34625 0.53544 0.62388 0.0
H1030 H 0.32325 0.5854 0.61335 0.0
C1031 C 0.25646 0.7522 0.58225 0.0
C1032 C 0.27461 0.69021 0.61847 0.0
H1033 H 0.33978 0.64323 0.62535 0.0
C1034 C 0.25161 0.67021 0.62637 0.0
C1035 C 0.3068 0.68052 0.61836 0.0
C1036 C 0.33258 0.70152 0.61055 0.0
C1037 C 0.25984 0.64014 0.63351 0.0
C1038 C 0.29205 0.63016 0.63309 0.0
C1039 C 0.31507 0.65069 0.62562 0.0
C1040 C 0.30256 0.59807 0.63945 0.0
C1041 C 0.23382 0.61886 0.64076 0.0
C1042 C 0.29798 0.5879 0.6576 0.0
C1043 C 0.31086 0.55885 0.66365 0.0
C1044 C 0.329 0.53978 0.65173 0.0
C1045 C 0.33257 0.5496 0.63346 0.0
C1046 C 0.31947 0.57826 0.62741 0.0
H1047 H 0.20996 0.62648 0.63591 0.0
H1048 H 0.23778 0.59373 0.63659 0.0
H1049 H 0.23379 0.61991 0.65591 0.0
H1050 H 0.28556 0.60296 0.66728 0.0
H1051 H 0.308 0.55214 0.67785 0.0
H1052 H 0.99219 0.51449 0.86021 0.0
H1053 H 0.04338 0.5323 0.87229 0.0
H1054 H 0.09216 0.4741 0.83251 0.0
H1055 H 0.04097 0.45744 0.81979 0.0
H1056 H 0.09049 0.50302 0.88813 0.0
H1057 H 0.13683 0.55587 0.82407 0.0
H1058 H 0.09626 0.54255 0.82629 0.0
H1059 H 0.12764 0.51439 0.82171 0.0
C1060 C 0.01382 0.50566 0.85393 0.0
C1061 C 1.01246 0.48482 0.83889 0.0
C1062 C 0.04314 0.51579 0.8609 0.0
C1063 C 0.07184 0.50506 0.85315 0.0
C1064 C 0.07051 0.48358 0.83841 0.0
H1065 H 0.25309 0.54299 0.91176 0.0
H1066 H 0.20654 0.51522 0.89912 0.0
C1067 C 0.04116 0.47391 0.83119 0.0
C1068 C 0.10293 0.51638 0.86063 0.0
H1069 H 0.17266 0.55292 0.84887 0.0
C1070 C 0.10845 0.51396 0.87954 0.0
C1071 C 0.12639 0.53091 0.84949 0.0
C1072 C 0.12141 0.53641 0.82931 0.0
C1073 C 0.1363 0.52615 0.88763 0.0
C1074 C 0.15996 0.54022 0.87644 0.0
C1075 C 0.15473 0.54194 0.85749 0.0
C1076 C 0.1889 0.55602 0.88409 0.0
C1077 C 0.13933 0.52506 0.90817 0.0
C1078 C 0.19526 0.58781 0.87944 0.0
C1079 C 0.22211 0.60334 0.88623 0.0
C1080 C 0.24334 0.58768 0.89808 0.0
C1081 C 0.23712 0.5558 0.90278 0.0
C1082 C 0.21034 0.53999 0.89567 0.0
H1083 H 0.11593 0.52129 0.91492 0.0
H1084 H 0.15507 0.50496 0.91204 0.0
H1085 H 0.14986 0.54743 0.91354 0.0
H1086 H 0.17921 0.60086 0.87061 0.0
H1087 H 0.22588 0.62795 0.88238 0.0
H1088 H 0.79018 0.51832 0.83118 0.0
H1089 H 0.76386 0.56564 0.84409 0.0
H1090 H 0.85236 0.59423 0.86901 0.0
H1091 H 0.87814 0.54703 0.85695 0.0
H1092 H 0.8064 0.60113 0.89245 0.0
H1093 H 0.76885 0.65609 0.82697 0.0
H1094 H 0.75303 0.61695 0.83078 0.0
H1095 H 0.79521 0.62224 0.82785 0.0
C1096 C 0.80392 0.53473 0.83944 0.0
C1097 C 0.83626 0.52871 0.84304 0.0
C1098 C 0.78893 0.56192 0.8467 0.0
C1099 C 0.80619 0.58389 0.85736 0.0
C1100 C 0.8384 0.57775 0.86091 0.0
H1101 H 0.76895 0.78188 0.88145 0.0
H1102 H 0.78545 0.73031 0.86908 0.0
C1103 C 0.85316 0.55058 0.85395 0.0
C1104 C 0.79129 0.61317 0.86521 0.0
H1105 H 0.75393 0.68285 0.85405 0.0
C1106 C 0.79482 0.61894 0.88404 0.0
C1107 C 0.77648 0.63668 0.85425 0.0
C1108 C 0.77338 0.63293 0.83382 0.0
C1109 C 0.78483 0.64765 0.8921 0.0
C1110 C 0.7696 0.67098 0.88121 0.0
C1111 C 0.76542 0.66497 0.86245 0.0
C1112 C 0.75914 0.70231 0.88881 0.0
C1113 C 0.7921 0.65314 0.91206 0.0
C1114 C 0.73863 0.70399 0.90398 0.0
C1115 C 0.72968 0.7335 0.91132 0.0
C1116 C 0.7404 0.76207 0.90338 0.0
C1117 C 0.76033 0.76037 0.88795 0.0
C1118 C 0.76969 0.73085 0.88081 0.0
H1119 H 0.81179 0.63761 0.91688 0.0
H1120 H 0.79879 0.67832 0.91469 0.0
H1121 H 0.77071 0.64743 0.92033 0.0
H1122 H 0.72933 0.68245 0.9101 0.0
H1123 H 0.71388 0.73392 0.92302 0.0
H1124 H 0.48558 0.52151 0.62736 0.0
H1125 H 0.53622 0.53622 0.6133 0.0
H1126 H 0.58615 0.47699 0.65195 0.0
H1127 H 0.53562 0.46321 0.66655 0.0
H1128 H 0.61612 0.53017 0.64863 0.0
H1129 H 0.59093 0.48796 0.57868 0.0
H1130 H 0.56157 0.51623 0.58595 0.0
H1131 H 0.56527 0.47871 0.59773 0.0
C1132 C 0.50732 0.51155 0.63286 0.0
C1133 C 0.50645 0.49112 0.64809 0.0
C1134 C 0.53633 0.51972 0.62466 0.0
C1135 C 0.56514 0.5071 0.63119 0.0
C1136 C 0.56432 0.4869 0.64651 0.0
H1137 H 0.74513 0.53995 0.57054 0.0
H1138 H 0.69824 0.51342 0.58386 0.0
C1139 C 0.53536 0.47908 0.65489 0.0
C1140 C 0.59618 0.5163 0.62271 0.0
H1141 H 0.63472 0.52468 0.58175 0.0
C1142 C 0.62023 0.52856 0.63402 0.0
C1143 C 0.60215 0.51359 0.60368 0.0
C1144 C 0.57872 0.49806 0.59085 0.0
C1145 C 0.64927 0.53943 0.62683 0.0
C1146 C 0.65419 0.53912 0.60766 0.0
C1147 C 0.63084 0.52547 0.5964 0.0
C1148 C 0.68241 0.55474 0.59912 0.0
C1149 C 0.67441 0.55114 0.63993 0.0
C1150 C 0.68866 0.5869 0.60281 0.0
C1151 C 0.71536 0.60186 0.59543 0.0
C1152 C 0.7364 0.5853 0.58382 0.0
C1153 C 0.72956 0.55335 0.5795 0.0
C1154 C 0.70278 0.53818 0.58711 0.0
H1155 H 0.672 0.53954 0.65351 0.0
H1156 H 0.69876 0.54653 0.63464 0.0
H1157 H 0.67152 0.57717 0.64198 0.0
H1158 H 0.6728 0.60059 0.61146 0.0
H1159 H 0.71938 0.62666 0.59883 0.0
H1160 H 0.7714 0.23878 0.36802 0.0
H1161 H 0.75635 0.28951 0.35402 0.0
H1162 H 0.77015 0.33722 0.40559 0.0
H1163 H 0.78541 0.28672 0.41971 0.0
H1164 H 0.70657 0.33051 0.36338 0.0
H1165 H 0.82303 0.39151 0.36999 0.0
H1166 H 0.81859 0.34895 0.37252 0.0
H1167 H 0.80831 0.37519 0.39105 0.0
C1168 C 0.77125 0.26003 0.37642 0.0
C1169 C 0.77972 0.25858 0.39502 0.0
C1170 C 0.76269 0.28905 0.36836 0.0
C1171 C 0.7627 0.31729 0.37866 0.0
C1172 C 0.77066 0.31588 0.39727 0.0
H1173 H 0.6657 0.4936 0.36369 0.0
H1174 H 0.68906 0.44344 0.37351 0.0
C1175 C 0.77911 0.28687 0.40536 0.0
C1176 C 0.75324 0.34802 0.37012 0.0
H1177 H 0.77854 0.42421 0.36205 0.0
C1178 C 0.72242 0.35087 0.36294 0.0
C1179 C 0.77407 0.37453 0.36932 0.0
C1180 C 0.80796 0.37242 0.37597 0.0
C1181 C 0.71146 0.37982 0.35566 0.0
C1182 C 0.73175 0.40671 0.35566 0.0
C1183 C 0.76298 0.40361 0.36217 0.0
C1184 C 0.71996 0.43858 0.35005 0.0
C1185 C 0.67803 0.38159 0.34823 0.0
C1186 C 0.73041 0.45314 0.33384 0.0
C1187 C 0.71699 0.48211 0.32807 0.0
C1188 C 0.69303 0.49698 0.33851 0.0
C1189 C 0.68385 0.48284 0.35516 0.0
C1190 C 0.69713 0.45404 0.36083 0.0
H1191 H 0.66815 0.35757 0.34534 0.0
H1192 H 0.66243 0.39337 0.35845 0.0
H1193 H 0.67734 0.39594 0.33549 0.0
H1194 H 0.74818 0.44161 0.32538 0.0
H1195 H 0.72463 0.49227 0.31519 0.0
H1196 H 0.79283 0.46469 0.05881 0.0
H1197 H 0.84391 0.48739 0.06881 0.0
H1198 H 0.8269 0.45259 0.12336 0.0
H1199 H 0.77658 0.42946 0.11348 0.0
H1200 H 0.86271 0.53059 0.09601 0.0
H1201 H 0.91105 0.41046 0.11034 0.0
H1202 H 0.87468 0.4165 0.09772 0.0
H1203 H 0.87455 0.41807 0.12231 0.0
C1204 C 0.79979 0.46234 0.07299 0.0
C1205 C 0.78083 0.44491 0.08529 0.0
C1206 C 0.82903 0.47519 0.07867 0.0
C1207 C 0.83966 0.47088 0.09672 0.0
C1208 C 0.81969 0.45538 0.10925 0.0
H1209 H 0.99249 0.53037 0.16633 0.0
H1210 H 0.94276 0.51317 0.15204 0.0
C1211 C 0.79079 0.44234 0.10358 0.0
C1212 C 0.87194 0.48144 0.10251 0.0
H1213 H 0.94048 0.45447 0.1224 0.0
C1214 C 0.87986 0.51391 0.10157 0.0
C1215 C 0.89451 0.45962 0.10962 0.0
C1216 C 0.88844 0.42418 0.1099 0.0
C1217 C 0.90916 0.52522 0.10828 0.0
C1218 C 0.93098 0.50354 0.11608 0.0
C1219 C 0.92352 0.47104 0.11653 0.0
C1220 C 0.96123 0.51429 0.12448 0.0
C1221 C 0.91645 0.56034 0.1075 0.0
C1222 C 0.98818 0.52023 0.11368 0.0
C1223 C 0.01682 0.52983 0.12181 0.0
C1224 C 0.01895 0.53379 0.14089 0.0
C1225 C 0.99179 0.52763 0.15161 0.0
C1226 C 0.96329 0.51784 0.14349 0.0
H1227 H 0.89661 0.57432 0.10149 0.0
H1228 H 0.92137 0.56942 0.12147 0.0
H1229 H 0.9382 0.56428 0.09917 0.0
H1230 H 0.98704 0.51741 0.09898 0.0
H1231 H 0.03717 0.53447 0.11311 0.0
H1232 H 0.82923 0.78787 0.57 0.0
H1233 H 0.81467 0.83905 0.58377 0.0
H1234 H 0.74504 0.79174 0.61752 0.0
H1235 H 0.76025 0.74055 0.60434 0.0
H1236 H 0.76216 0.87188 0.58371 0.0
H1237 H 0.78854 0.84324 0.65568 0.0
H1238 H 0.80061 0.81763 0.63712 0.0
H1239 H 0.76086 0.8152 0.64631 0.0
C1240 C 0.81093 0.78834 0.58042 0.0
C1241 C 0.79611 0.75997 0.58613 0.0
C1242 C 0.80263 0.81766 0.58833 0.0
C1243 C 0.77924 0.81936 0.60207 0.0
C1244 C 0.76393 0.79113 0.60745 0.0
H1245 H 0.65912 0.97688 0.62895 0.0
H1246 H 0.68675 0.9312 0.61627 0.0
C1247 C 0.77246 0.7618 0.59974 0.0
C1248 C 0.76975 0.85071 0.61015 0.0
H1249 H 0.75422 0.88841 0.65068 0.0
C1250 C 0.76084 0.87555 0.59836 0.0
C1251 C 0.76867 0.85608 0.62929 0.0
C1252 C 0.78054 0.83172 0.6428 0.0
C1253 C 0.7495 0.90482 0.60512 0.0
C1254 C 0.74597 0.90921 0.62423 0.0
C1255 C 0.75637 0.88501 0.63604 0.0
C1256 C 0.7297 0.93777 0.6321 0.0
C1257 C 0.74151 0.93076 0.59161 0.0
C1258 C 0.74401 0.95636 0.64585 0.0
C1259 C 0.72789 0.9826 0.65347 0.0
C1260 C 0.69711 0.99071 0.64749 0.0
C1261 C 0.68293 0.97182 0.6338 0.0
C1262 C 0.69885 0.94565 0.62636 0.0
H1263 H 0.75597 0.92843 0.57896 0.0
H1264 H 0.71611 0.92868 0.58765 0.0
H1265 H 0.74554 0.9548 0.5975 0.0
H1266 H 0.76769 0.95061 0.65067 0.0
H1267 H 0.73949 0.99642 0.66404 0.0
H1268 H 0.78816 0.9734 0.92109 0.0
H1269 H 0.8363 0.99826 0.90837 0.0
H1270 H 0.83031 0.93698 0.8612 0.0
H1271 H 0.78278 0.91208 0.87369 0.0
H1272 H 0.88971 0.93592 0.87796 0.0
H1273 H 0.84955 0.06003 0.86498 0.0
H1274 H 0.84229 0.04493 0.88759 0.0
H1275 H 0.82202 0.02755 0.86845 0.0
C1276 C 0.79679 0.96563 0.90786 0.0
C1277 C 0.78159 0.9406 0.89849 0.0
C1278 C 0.8243 0.9799 0.90059 0.0
C1279 C 0.83691 0.96954 0.88378 0.0
C1280 C 0.82113 0.94533 0.87419 0.0
H1281 H 0.98471 0.0456 0.8131 0.0
H1282 H 0.93484 0.02772 0.8271 0.0
C1283 C 0.79385 0.93112 0.8814 0.0
C1284 C 0.86758 0.9821 0.87654 0.0
H1285 H 0.90394 0.04868 0.85955 0.0
C1286 C 0.89285 0.96061 0.874 0.0
C1287 C 0.87157 0.01423 0.8712 0.0
C1288 C 0.84491 0.03808 0.87302 0.0
C1289 C 0.92187 0.97028 0.86624 0.0
C1290 C 0.92604 1.00249 0.86108 0.0
C1291 C 0.90079 0.02404 0.8636 0.0
C1292 C 0.9563 0.01401 0.85277 0.0
C1293 C 0.94756 0.9457 0.86319 0.0
C1294 C 0.98495 1.01251 0.86257 0.0
C1295 C 0.01353 0.02258 0.85459 0.0
C1296 C 0.01412 0.03456 0.83662 0.0
C1297 C 0.98526 0.03635 0.8269 0.0
C1298 C 0.95667 0.02627 0.83492 0.0
H1299 H 0.93796 0.92105 0.86367 0.0
H1300 H 0.95948 0.94932 0.8498 0.0
H1301 H 0.96577 0.94799 0.87408 0.0
H1302 H 0.98522 1.00363 0.87646 0.0
H1303 H 0.03515 0.02107 0.86258 0.0
H1304 H 0.79294 0.03228 0.16987 0.0
H1305 H 0.76492 0.07831 0.15659 0.0
H1306 H 0.85153 0.10741 0.12973 0.0
H1307 H 0.8791 0.06164 0.14232 0.0
H1308 H 0.77386 0.14248 0.15895 0.0
H1309 H 0.79119 0.10524 0.08728 0.0
H1310 H 0.79879 0.07885 0.10622 0.0
H1311 H 0.8285 0.10719 0.09905 0.0
C1312 C 0.8059 0.04849 0.16109 0.0
C1313 C 0.83813 0.04291 0.15693 0.0
C1314 C 0.78989 0.07477 0.15351 0.0
C1315 C 0.8059 0.09587 0.14172 0.0
C1316 C 0.83833 0.09094 0.13823 0.0
H1317 H 0.76491 0.29096 0.11258 0.0
H1318 H 0.78143 0.24125 0.12711 0.0
C1319 C 0.85413 0.06472 0.14557 0.0
C1320 C 0.78933 0.12339 0.1331 0.0
H1321 H 0.77932 0.16067 0.09205 0.0
C1322 C 0.77464 0.14628 0.1443 0.0
C1323 C 0.78969 0.12813 0.11394 0.0
C1324 C 0.80258 0.10334 0.10093 0.0
C1325 C 0.76168 0.1744 0.13693 0.0
C1326 C 0.76432 0.18025 0.1179 0.0
C1327 C 0.77771 0.15664 0.10666 0.0
C1328 C 0.75381 0.21071 0.10929 0.0
C1329 C 0.74508 0.19734 0.14965 0.0
C1330 C 0.73379 0.21029 0.09391 0.0
C1331 C 0.72499 0.23867 0.08527 0.0
C1332 C 0.7358 0.26823 0.09187 0.0
C1333 C 0.75591 0.26865 0.10723 0.0
C1334 C 0.76511 0.2402 0.1157 0.0
H1335 H 0.73547 0.18488 0.16185 0.0
H1336 H 0.76244 0.21535 0.15452 0.0
H1337 H 0.72523 0.20986 0.14269 0.0
H1338 H 0.72488 0.18792 0.08859 0.0
H1339 H 0.70937 0.23745 0.07352 0.0
H1340 H 0.73766 0.05154 0.41828 0.0
H1341 H 0.68901 0.02684 0.40613 0.0
H1342 H 0.69977 0.08019 0.3562 0.0
H1343 H 0.74785 0.10487 0.36812 0.0
H1344 H 0.63998 0.08727 0.37274 0.0
H1345 H 0.67327 0.95967 0.36537 0.0
H1346 H 0.68132 0.97773 0.38719 0.0
H1347 H 0.70257 0.99097 0.36732 0.0
C1348 C 0.73002 0.05746 0.40457 0.0
C1349 C 0.74664 0.08035 0.39425 0.0
C1350 C 0.7022 0.04332 0.39763 0.0
C1351 C 0.69072 0.05166 0.38023 0.0
C1352 C 0.70806 0.07345 0.36967 0.0
H1353 H 0.54062 0.97617 0.31127 0.0
H1354 H 0.59104 0.99271 0.32511 0.0
C1355 C 0.73564 0.08754 0.37655 0.0
C1356 C 0.65953 0.03988 0.37333 0.0
H1357 H 0.61988 0.97341 0.35878 0.0
C1358 C 0.63555 0.06234 0.36976 0.0
C1359 C 0.65387 1.00742 0.36929 0.0
C1360 C 0.67911 0.98246 0.37233 0.0
C1361 C 0.60618 0.05332 0.36219 0.0
C1362 C 0.60036 0.02082 0.35828 0.0
C1363 C 0.62431 0.99829 0.36186 0.0
C1364 C 0.56974 1.01002 0.35014 0.0
C1365 C 0.58193 0.0788 0.358 0.0
C1366 C 0.54098 0.014 0.35965 0.0
C1367 C 0.5121 1.00468 0.35177 0.0
C1368 C 0.51129 0.99103 0.33418 0.0
C1369 C 0.54024 0.98676 0.32477 0.0
C1370 C 0.56914 0.99606 0.3327 0.0
H1371 H 0.59277 0.10293 0.35775 0.0
H1372 H 0.57032 0.07431 0.34462 0.0
H1373 H 0.56322 0.07863 0.36872 0.0
H1374 H 0.54088 0.02428 0.37324 0.0
H1375 H 0.49039 1.00814 0.35952 0.0
H1376 H 0.22628 0.23775 0.41777 0.0
H1377 H 0.24366 0.18811 0.40325 0.0
H1378 H 0.27348 0.24053 0.3556 0.0
H1379 H 0.25655 0.29026 0.37002 0.0
H1380 H 0.22468 0.15975 0.36964 0.0
H1381 H 0.35336 0.19008 0.36988 0.0
H1382 H 0.3245 0.21169 0.38333 0.0
H1383 H 0.32816 0.21922 0.35925 0.0
C1384 C 0.23665 0.23879 0.40423 0.0
C1385 C 0.24023 0.26815 0.39517 0.0
C1386 C 0.24644 0.21034 0.39592 0.0
C1387 C 0.26017 0.21061 0.37841 0.0
C1388 C 0.26341 0.23977 0.36923 0.0
H1389 H 0.30377 0.04276 0.30988 0.0
H1390 H 0.27872 0.09154 0.3218 0.0
C1391 C 0.25364 0.26821 0.37751 0.0
C1392 C 0.27154 0.18047 0.36989 0.0
H1393 H 0.33857 0.14272 0.3547 0.0
C1394 C 0.24956 0.156 0.36632 0.0
C1395 C 0.30405 0.17554 0.36568 0.0
C1396 C 0.32899 0.20036 0.36985 0.0
C1397 C 0.25927 0.12674 0.35868 0.0
C1398 C 0.29175 0.12195 0.35438 0.0
C1399 C 0.31363 0.1465 0.35787 0.0
C1400 C 0.30421 0.09099 0.34749 0.0
C1401 C 0.23493 0.10085 0.35576 0.0
C1402 C 0.3266 0.07437 0.35797 0.0
C1403 C 0.34092 0.04678 0.35122 0.0
C1404 C 0.33335 0.03502 0.33373 0.0
C1405 C 0.31003 0.05103 0.32343 0.0
C1406 C 0.29567 0.07889 0.33024 0.0
H1407 H 0.21216 0.1061 0.36288 0.0
H1408 H 0.22996 0.09856 0.34093 0.0
H1409 H 0.24414 0.07759 0.36066 0.0
H1410 H 0.33351 0.08314 0.37133 0.0
H1411 H 0.35856 0.03504 0.35965 0.0
H1412 H 0.99457 0.02062 0.13498 0.0
H1413 H 0.04557 0.03454 0.12114 0.0
H1414 H 0.09272 0.96517 0.1551 0.0
H1415 H 0.04183 0.95201 0.16955 0.0
H1416 H 0.12624 0.01674 0.15452 0.0
H1417 H 0.09555 0.98954 0.08291 0.0
H1418 H 0.06824 0.01798 0.09228 0.0
H1419 H 0.07011 0.97836 0.10171 0.0
C1420 C 0.01576 1.00822 0.13949 0.0
C1421 C 0.01401 0.98511 0.15337 0.0
C1422 C 0.04496 0.01598 0.13139 0.0
C1423 C 0.07307 1.00034 0.13666 0.0
C1424 C 0.07142 0.97744 0.15064 0.0
H1425 H 0.24913 0.03859 0.07332 0.0
H1426 H 0.20384 1.01004 0.08702 0.0
C1427 C 0.04227 0.96996 0.15893 0.0
C1428 C 0.10432 1.00911 0.12827 0.0
H1429 H 0.14123 0.02354 0.08739 0.0
C1430 C 0.12956 0.01777 0.13983 0.0
C1431 C 0.10926 1.00978 0.10909 0.0
C1432 C 0.08444 0.99805 0.09581 0.0
C1433 C 0.15878 0.02856 0.13281 0.0
C1434 C 0.16272 0.03184 0.11367 0.0
C1435 C 0.13816 0.02158 0.10207 0.0
C1436 C 0.19098 0.04815 0.10558 0.0
C1437 C 0.18512 0.0364 0.14608 0.0
C1438 C 0.19864 0.07913 0.11122 0.0
C1439 C 0.22446 0.09523 0.10361 0.0
C1440 C 0.24323 0.08111 0.08984 0.0
C1441 C 0.23539 0.05014 0.08397 0.0
C1442 C 0.20946 0.03383 0.09176 0.0
H1443 H 0.18305 0.02195 0.15874 0.0
H1444 H 0.20895 0.0322 0.13996 0.0
H1445 H 0.18332 0.06184 0.15008 0.0
H1446 H 0.18426 0.09121 0.12138 0.0
H1447 H 0.2293 0.11916 0.1084 0.0
H1448 H 0.22324 0.99026 0.81274 0.0
H1449 H 0.24882 0.94143 0.82416 0.0
H1450 H 0.19106 0.94564 0.87279 0.0
H1451 H 0.1656 0.99394 0.8617 0.0
H1452 H 0.28129 0.92728 0.85978 0.0
H1453 H 0.17091 0.85748 0.84826 0.0
H1454 H 0.17807 0.89551 0.83749 0.0
H1455 H 0.16537 0.89377 0.86092 0.0
C1456 C 0.21633 0.98103 0.82598 0.0
C1457 C 0.19207 0.99591 0.83618 0.0
C1458 C 0.23092 0.95311 0.83246 0.0
C1459 C 0.2214 0.93966 0.84917 0.0
C1460 C 0.19838 0.95532 0.85973 0.0
H1461 H 0.29713 0.79296 0.91987 0.0
H1462 H 0.28054 0.8428 0.90542 0.0
C1463 C 0.18388 0.98304 0.85333 0.0
C1464 C 0.23423 0.90857 0.85546 0.0
H1465 H 0.21124 0.83273 0.86601 0.0
C1466 C 0.26612 0.90649 0.861 0.0
C1467 C 0.21446 0.8814 0.85687 0.0
C1468 C 0.18036 0.88191 0.85043 0.0
C1469 C 0.27846 0.87817 0.86849 0.0
C1470 C 0.25824 0.85143 0.87066 0.0
C1471 C 0.22666 0.85329 0.86453 0.0
C1472 C 0.26916 0.8213 0.87935 0.0
C1473 C 0.31305 0.87709 0.87393 0.0
C1474 C 0.26753 0.79245 0.86968 0.0
C1475 C 0.27676 0.76385 0.87794 0.0
C1476 C 0.28763 0.7634 0.89614 0.0
C1477 C 0.28899 0.79235 0.90584 0.0
C1478 C 0.27977 0.82097 0.89754 0.0
H1479 H 0.3271 0.89587 0.86691 0.0
H1480 H 0.31501 0.88113 0.88887 0.0
H1481 H 0.32369 0.85351 0.87074 0.0
H1482 H 0.2592 0.79206 0.85568 0.0
H1483 H 0.27536 0.74209 0.87002 0.0
H1484 H 0.49517 0.02802 0.67678 0.0
H1485 H 0.44398 1.0121 0.66366 0.0
H1486 H 0.48401 0.01861 0.6095 0.0
H1487 H 0.53539 0.03338 0.62249 0.0
H1488 H 0.40401 0.04228 0.64134 0.0
H1489 H 0.44484 0.93214 0.6068 0.0
H1490 H 0.46933 0.95331 0.62297 0.0
H1491 H 0.4668 0.96651 0.5996 0.0
C1492 C 0.49317 0.02576 0.66208 0.0
C1493 C 0.51957 0.03165 0.65072 0.0
C1494 C 0.46382 0.01674 0.65458 0.0
C1495 C 0.46015 0.01352 0.63558 0.0
C1496 C 0.48635 0.01993 0.62422 0.0
H1497 H 0.29621 0.97304 0.56554 0.0
H1498 H 0.3455 0.9954 0.5782 0.0
C1499 C 0.51576 0.02856 0.63169 0.0
C1500 C 0.42881 1.00417 0.62763 0.0
H1501 H 0.39292 0.95041 0.59914 0.0
C1502 C 0.40163 0.02211 0.63217 0.0
C1503 C 0.42551 0.97776 0.61568 0.0
C1504 C 0.4531 0.95613 0.61112 0.0
C1505 C 0.37151 0.01455 0.62498 0.0
C1506 C 0.36844 0.98853 0.61287 0.0
C1507 C 0.39548 0.97064 0.60825 0.0
C1508 C 0.33708 0.97824 0.60563 0.0
C1509 C 0.34306 0.03443 0.63026 0.0
C1510 C 0.31587 0.96162 0.61692 0.0
C1511 C 0.2879 0.94862 0.60973 0.0
C1512 C 0.28042 0.95217 0.59109 0.0
C1513 C 0.30107 0.9701 0.57997 0.0
C1514 C 0.32932 0.98276 0.58715 0.0
H1515 H 0.34999 0.05642 0.63772 0.0
H1516 H 0.3293 0.04116 0.61791 0.0
H1517 H 0.32713 0.02019 0.63919 0.0
H1518 H 0.32153 0.9577 0.63119 0.0
H1519 H 0.27256 0.93498 0.61869 0.0
H1520 H 0.22016 0.184 0.01779 0.0
H1521 H 0.18356 0.18434 0.99189 0.0
H1522 H 0.23571 0.10669 0.9673 0.0
H1523 H 0.2714 0.10524 -0.00634 0.0
H1524 H 0.19528 0.19802 0.95832 0.0
H1525 H 0.14767 0.07569 0.95978 0.0
H1526 H 0.17027 0.092 0.97852 0.0
H1527 H 0.19025 0.07463 0.95908 0.0
C1528 C 0.22343 0.16662 0.00699 0.0
C1529 C 0.2485 0.14449 0.0077 0.0
C1530 C 0.20254 0.16688 0.9922 0.0
C1531 C 0.20658 0.14529 0.97775 0.0
C1532 C 0.23148 0.12295 0.97854 0.0
H1533 H 0.16728 0.16535 0.86509 0.0
H1534 H 0.18291 0.17575 0.89668 0.0
C1535 C 0.25199 0.12223 -0.00646 0.0
C1536 C 0.18629 0.14767 0.96126 0.0
H1537 H 0.14497 0.10275 0.9307 0.0
C1538 C 0.18375 0.17729 0.95244 0.0
C1539 C 0.17053 0.12092 0.95381 0.0
C1540 C 0.16952 0.08915 0.96344 0.0
C1541 C 0.16733 0.18048 0.93587 0.0
C1542 C 0.15418 0.15307 0.92756 0.0
C1543 C 0.15531 0.12382 0.93689 0.0
C1544 C 0.14141 0.15318 0.90867 0.0
C1545 C 0.1644 0.21319 0.92751 0.0
C1546 C 0.11272 0.13742 0.90479 0.0
C1547 C 0.10443 0.13055 0.88677 0.0
C1548 C 0.12423 0.14013 0.87235 0.0
C1549 C 0.1514 0.15834 0.87605 0.0
C1550 C 0.16023 0.1644 0.89412 0.0
H1551 H 0.16348 0.23185 0.93828 0.0
H1552 H 0.18567 0.218 0.91895 0.0
H1553 H 0.1428 0.2153 0.91887 0.0
H1554 H 0.09778 0.12859 0.91574 0.0
H1555 H 0.08345 0.11627 0.88413 0.0
H1556 H 0.67664 0.36809 0.14079 0.0
H1557 H 0.65823 0.38721 0.17034 0.0
H1558 H 0.57289 0.42395 0.14533 0.0
H1559 H 0.59137 0.40494 0.11543 0.0
H1560 H 0.60802 0.4693 0.16368 0.0
H1561 H 0.59066 0.36425 0.20803 0.0
H1562 H 0.62775 0.36235 0.19592 0.0
H1563 H 0.59091 0.36156 0.18337 0.0
C1564 C 0.65359 0.37958 0.1416 0.0
C1565 C 0.6356 0.38537 0.12577 0.0
C1566 C 0.64293 0.39018 0.15856 0.0
C1567 C 0.61406 0.40668 0.16005 0.0
C1568 C 0.59512 0.41096 0.14445 0.0
H1569 H 0.56796 0.50001 0.26421 0.0
H1570 H 0.56261 0.4676 0.2366 0.0
C1571 C 0.6057 0.40011 0.12741 0.0
C1572 C 0.60676 0.42373 0.17721 0.0
H1573 H 0.60435 0.41373 0.22347 0.0
C1574 C 0.60643 0.45713 0.17672 0.0
C1575 C 0.60461 0.40781 0.19419 0.0
C1576 C 0.60317 0.37199 0.19541 0.0
C1577 C 0.60617 0.47506 0.19286 0.0
C1578 C 0.60653 0.45911 0.20983 0.0
C1579 C 0.60465 0.42578 0.21036 0.0
C1580 C 0.61041 0.47681 0.22707 0.0
C1581 C 0.60657 0.51094 0.19168 0.0
C1582 C 0.63937 0.49198 0.23093 0.0
C1583 C 0.64264 0.5104 0.24671 0.0
C1584 C 0.61689 0.51402 0.25881 0.0
C1585 C 0.5882 0.49791 0.25511 0.0
C1586 C 0.58506 0.47933 0.23939 0.0
H1587 H 0.59903 0.51947 0.17798 0.0
H1588 H 0.59071 0.52159 0.20219 0.0
H1589 H 0.63111 0.51963 0.19424 0.0
H1590 H 0.65928 0.48995 0.22158 0.0
H1591 H 0.66504 0.52241 0.24917 0.0
H1592 H 0.28978 0.8299 0.51193 0.0
H1593 H 0.32165 0.82651 0.48412 0.0
H1594 H 0.30055 0.92479 0.4721 0.0
H1595 H 0.26825 0.92848 0.49987 0.0
H1596 H 0.28632 0.87995 0.44372 0.0
H1597 H 0.40933 0.86577 0.47064 0.0
H1598 H 0.37942 0.84001 0.48017 0.0
H1599 H 0.37729 0.88212 0.48421 0.0
C1600 C 0.29221 0.85099 0.50353 0.0
C1601 C 0.27628 0.87946 0.50806 0.0
C1602 C 0.31061 0.84899 0.4877 0.0
C1603 C 0.31354 0.87543 0.4762 0.0
C1604 C 0.29857 0.90417 0.48092 0.0
H1605 H 0.41822 0.93246 0.38511 0.0
H1606 H 0.39987 0.91727 0.41543 0.0
C1607 C 0.28019 0.90624 0.49678 0.0
C1608 C 0.32994 0.87245 0.45846 0.0
H1609 H 0.40281 0.86266 0.43862 0.0
C1610 C 0.31175 0.87593 0.44255 0.0
C1611 C 0.36304 0.86702 0.45713 0.0
C1612 C 0.38359 0.86371 0.47391 0.0
C1613 C 0.32594 0.87517 0.42525 0.0
C1614 C 0.35916 0.87025 0.42388 0.0
C1615 C 0.37727 0.86589 0.43978 0.0
C1616 C 0.37581 0.8746 0.4063 0.0
C1617 C 0.30552 0.88127 0.40865 0.0
C1618 C 0.36966 0.85468 0.39129 0.0
C1619 C 0.38007 0.86338 0.37382 0.0
C1620 C 0.3966 0.89213 0.37128 0.0
C1621 C 0.40506 0.91043 0.38662 0.0
C1622 C 0.39479 0.90169 0.40398 0.0
H1623 H 0.28118 0.88938 0.41237 0.0
H1624 H 0.31662 0.89959 0.39975 0.0
H1625 H 0.30331 0.85898 0.40059 0.0
H1626 H 0.35532 0.83343 0.39293 0.0
H1627 H 0.37337 0.84877 0.36224 0.0
H1628 H 0.92448 0.61459 0.6171 0.0
H1629 H 0.93851 0.59661 0.64788 0.0
H1630 H 0.8535 0.64044 0.66932 0.0
H1631 H 0.83929 0.65862 0.63876 0.0
H1632 H 0.91203 0.64334 0.69283 0.0
H1633 H 0.87762 0.52326 0.66689 0.0
H1634 H 0.90736 0.54466 0.65416 0.0
H1635 H 0.8673 0.5594 0.65497 0.0
C1636 C 0.90921 0.62113 0.62843 0.0
C1637 C 0.88045 0.63746 0.62547 0.0
C1638 C 0.91727 0.61084 0.64597 0.0
C1639 C 0.89678 0.61693 0.66071 0.0
C1640 C 0.86953 0.63553 0.65805 0.0
H1641 H 0.85082 0.51051 0.75642 0.0
H1642 H 0.85124 0.54411 0.72916 0.0
C1643 C 0.86137 0.64569 0.64056 0.0
C1644 C 0.90092 0.60023 0.67822 0.0
H1645 H 0.89107 0.52732 0.69788 0.0
C1646 C 0.90785 0.61793 0.69399 0.0
C1647 C 0.89482 0.56721 0.67956 0.0
C1648 C 0.88614 0.5474 0.66306 0.0
C1649 C 0.90869 0.60328 0.71122 0.0
C1650 C 0.90239 0.57031 0.71252 0.0
C1651 C 0.89582 0.55264 0.69672 0.0
C1652 C 0.90183 0.55345 0.73014 0.0
C1653 C 0.91535 0.62314 0.72796 0.0
C1654 C 0.93014 0.54796 0.73969 0.0
C1655 C 0.93005 0.52866 0.7552 0.0
C1656 C 0.90162 0.5145 0.76135 0.0
C1657 C 0.87311 0.52099 0.75204 0.0
C1658 C 0.87327 0.54019 0.7365 0.0
H1659 H 0.91464 0.64907 0.72497 0.0
H1660 H 0.89779 0.61776 0.73889 0.0
H1661 H 0.93934 0.61718 0.73328 0.0
H1662 H 0.95244 0.55768 0.73479 0.0
H1663 H 0.95242 0.52424 0.76209 0.0
H1664 H 0.88339 0.85069 0.12345 0.0
H1665 H 0.86852 0.83319 0.09268 0.0
H1666 H 0.88895 0.92713 0.07188 0.0
H1667 H 0.90458 0.94445 0.10218 0.0
H1668 H 0.81893 0.85789 0.07525 0.0
H1669 H 0.92453 0.87383 0.03143 0.0
H1670 H 0.92721 0.87278 0.05606 0.0
H1671 H 0.91723 0.90928 0.04442 0.0
C1672 C 0.88552 0.86734 0.11222 0.0
C1673 C 0.89485 0.89905 0.11531 0.0
C1674 C 0.87706 0.8573 0.09466 0.0
C1675 C 0.87801 0.87874 0.07994 0.0
C1676 C 0.88883 0.90989 0.08289 0.0
H1677 H 0.77414 0.9212 0.98457 0.0
H1678 H 0.80911 0.91894 0.01131 0.0
C1679 C 0.89738 0.91989 0.10034 0.0
C1680 C 0.86319 0.87055 0.06223 0.0
H1681 H 0.87305 0.87859 0.01614 0.0
C1682 C 0.83101 0.86159 0.06232 0.0
C1683 C 0.87894 0.87549 0.04536 0.0
C1684 C 0.91399 0.88305 0.04433 0.0
C1685 C 0.81365 0.85942 0.04605 0.0
C1686 C 0.82893 0.86633 0.02934 0.0
C1687 C 0.86143 0.87372 0.02909 0.0
C1688 C 0.81082 0.86748 0.01216 0.0
C1689 C 0.77868 0.85131 0.04684 0.0
C1690 C 0.80085 0.83926 0.00378 0.0
C1691 C 0.78091 0.84041 0.98859 0.0
C1692 C 0.77055 0.86987 0.98156 0.0
C1693 C 0.78152 0.89816 0.98969 0.0
C1694 C 0.80158 0.89694 0.00489 0.0
H1695 H 0.76979 0.84925 0.0611 0.0
H1696 H 0.76459 0.8698 0.03964 0.0
H1697 H 0.77451 0.82829 0.03977 0.0
H1698 H 0.80787 0.81636 0.00928 0.0
H1699 H 0.77309 0.81813 0.98262 0.0
H1700 H 0.41483 0.60435 0.8717 0.0
H1701 H 0.42938 0.58836 0.84073 0.0
H1702 H 0.39047 0.67634 0.81981 0.0
H1703 H 0.37359 0.69094 0.85073 0.0
H1704 H 0.36562 0.63238 0.8026 0.0
H1705 H 0.49298 0.60332 0.80273 0.0
H1706 H 0.47472 0.58186 0.82104 0.0
H1707 H 0.47479 0.6249 0.82135 0.0
C1708 C 0.41038 0.62063 0.86051 0.0
C1709 C 0.39321 0.64877 0.86341 0.0
C1710 C 0.41894 0.61166 0.84279 0.0
C1711 C 0.41143 0.63129 0.82783 0.0
C1712 C 0.39652 0.66075 0.83107 0.0
H1713 H 0.44978 0.54239 0.72119 0.0
H1714 H 0.45265 0.57995 0.74675 0.0
C1715 C 0.387 0.66917 0.8487 0.0
C1716 C 0.41394 0.61866 0.80893 0.0
H1717 H 0.46009 0.57194 0.78146 0.0
C1718 C 0.38667 0.61991 0.79784 0.0
C1719 C 0.44143 0.60286 0.80235 0.0
C1720 C 0.47268 0.60355 0.81247 0.0
C1721 C 0.38542 0.60407 0.78103 0.0
C1722 C 0.41156 0.58513 0.77554 0.0
C1723 C 0.43966 0.58572 0.78591 0.0
C1724 C 0.40948 0.56316 0.75973 0.0
C1725 C 0.35588 0.60763 0.76949 0.0
C1726 C 0.3845 0.541 0.75866 0.0
C1727 C 0.38245 0.52004 0.74392 0.0
C1728 C 0.40592 0.52016 0.73027 0.0
C1729 C 0.43137 0.54179 0.73156 0.0
C1730 C 0.43303 0.56324 0.74613 0.0
H1731 H 0.34455 0.63123 0.77174 0.0
H1732 H 0.36122 0.60501 0.7547 0.0
H1733 H 0.3383 0.58918 0.7735 0.0
H1734 H 0.3667 0.53965 0.76934 0.0
H1735 H 0.36286 0.50329 0.74342 0.0
H1736 H 0.59068 0.11555 0.602 0.0
H1737 H 0.60575 0.12893 0.57058 0.0
H1738 H 0.69266 0.17145 0.59041 0.0
H1739 H 0.67641 0.16015 0.62187 0.0
H1740 H 0.67398 0.20074 0.56056 0.0
H1741 H 0.66948 0.07012 0.54872 0.0
H1742 H 0.63151 0.08703 0.55425 0.0
H1743 H 0.66303 0.08746 0.57091 0.0
C1744 C 0.61241 0.12879 0.59959 0.0
C1745 C 0.63258 0.13674 0.61415 0.0
C1746 C 0.62118 0.13607 0.58169 0.0
C1747 C 0.65091 0.15 0.57813 0.0
C1748 C 0.66975 0.1604 0.59283 0.0
H1749 H 0.77781 0.11061 0.49022 0.0
H1750 H 0.74491 0.11218 0.51773 0.0
C1751 C 0.66047 0.15403 0.61078 0.0
C1752 C 0.66412 0.15048 0.55936 0.0
H1753 H 0.68521 0.10185 0.52397 0.0
C1754 C 0.67632 0.17918 0.55249 0.0
C1755 C 0.66766 0.12213 0.54901 0.0
C1756 C 0.65753 0.0899 0.55615 0.0
C1757 C 0.69272 0.18021 0.53578 0.0
C1758 C 0.69577 0.15194 0.52533 0.0
C1759 C 0.68266 0.12349 0.53195 0.0
C1760 C 0.71464 0.15057 0.50824 0.0
C1761 C 0.70797 0.21119 0.53004 0.0
C1762 C 0.70811 0.17108 0.4936 0.0
C1763 C 0.72735 0.17066 0.47803 0.0
C1764 C 0.75279 0.14904 0.47666 0.0
C1765 C 0.75828 0.12742 0.49091 0.0
C1766 C 0.73952 0.12837 0.50663 0.0
H1767 H 0.71085 0.22777 0.54177 0.0
H1768 H 0.73171 0.20707 0.52381 0.0
H1769 H 0.6926 0.2231 0.5198 0.0
H1770 H 0.68839 0.18763 0.49426 0.0
H1771 H 0.7224 0.18731 0.4671 0.0
H1772 H 0.19057 0.38317 0.34585 0.0
H1773 H 0.17239 0.39903 0.31584 0.0
H1774 H 0.07561 0.40283 0.33549 0.0
H1775 H 0.09389 0.38781 0.36616 0.0
H1776 H 0.13084 0.37558 0.29084 0.0
H1777 H 0.09013 0.49311 0.31778 0.0
H1778 H 0.11288 0.46575 0.33152 0.0
H1779 H 0.07144 0.45836 0.32724 0.0
C1780 C 0.16533 0.38713 0.3439 0.0
C1781 C 0.14374 0.38484 0.35853 0.0
C1782 C 0.15496 0.39601 0.32663 0.0
C1783 C 0.12277 0.40262 0.32352 0.0
C1784 C 0.10069 0.39845 0.33775 0.0
H1785 H 0.06598 0.50454 0.22458 0.0
H1786 H 0.06215 0.46948 0.25103 0.0
C1787 C 0.11114 0.38976 0.35521 0.0
C1788 C 0.11363 0.41645 0.30573 0.0
H1789 H 0.09244 0.48699 0.2861 0.0
C1790 C 0.12186 0.39973 0.28977 0.0
C1791 C 0.10202 0.44802 0.30441 0.0
C1792 C 0.09377 0.46755 0.3211 0.0
C1793 C 0.12048 0.41439 0.27259 0.0
C1794 C 0.11053 0.44639 0.27146 0.0
C1795 C 0.10022 0.46242 0.28719 0.0
C1796 C 0.11299 0.46467 0.25437 0.0
C1797 C 0.13068 0.39604 0.25586 0.0
C1798 C 0.14298 0.47346 0.24759 0.0
C1799 C 0.14538 0.49382 0.23256 0.0
C1800 C 0.11776 0.50556 0.22411 0.0
C1801 C 0.08778 0.49593 0.23074 0.0
C1802 C 0.08544 0.47585 0.24582 0.0
H1803 H 0.13092 0.36994 0.25838 0.0
H1804 H 0.11463 0.40118 0.24418 0.0
H1805 H 0.15508 0.40349 0.25192 0.0
H1806 H 0.16449 0.46533 0.25427 0.0
H1807 H 0.16877 0.50072 0.22776 0.0
H1808 H 0.64126 0.69414 0.36527 0.0
H1809 H 0.65881 0.71661 0.39455 0.0
H1810 H 0.64545 0.62512 0.42022 0.0
H1811 H 0.62727 0.60286 0.39146 0.0
H1812 H 0.62824 0.67547 0.44275 0.0
H1813 H 0.74828 0.69337 0.41165 0.0
H1814 H 0.71529 0.71395 0.40145 0.0
H1815 H 0.71752 0.6713 0.40007 0.0
C1816 C 0.64148 0.67903 0.37726 0.0
C1817 C 0.63349 0.64656 0.37597 0.0
C1818 C 0.65163 0.69187 0.39393 0.0
C1819 C 0.65402 0.67233 0.40943 0.0
C1820 C 0.64389 0.64059 0.40841 0.0
H1821 H 0.74388 0.62173 0.5048 0.0
H1822 H 0.70839 0.63231 0.47913 0.0
C1823 C 0.6337 0.62783 0.39188 0.0
C1824 C 0.67009 0.68309 0.42629 0.0
H1825 H 0.74456 0.69547 0.4434 0.0
C1826 C 0.65353 0.68064 0.4429 0.0
C1827 C 0.70309 0.68988 0.42642 0.0
C1828 C 0.72228 0.69216 0.409 0.0
C1829 C 0.66953 0.68253 0.45966 0.0
C1830 C 0.70285 0.6868 0.45971 0.0
C1831 C 0.71898 0.69201 0.44321 0.0
C1832 C 0.72203 0.68179 0.47634 0.0
C1833 C 0.65092 0.67853 0.47714 0.0
C1834 C 0.74175 0.70601 0.48304 0.0
C1835 C 0.76218 0.70001 0.49768 0.0
C1836 C 0.76352 0.66953 0.50566 0.0
C1837 C 0.74349 0.64542 0.49896 0.0
C1838 C 0.72295 0.65151 0.48442 0.0
H1839 H 0.62558 0.68537 0.47529 0.0
H1840 H 0.65161 0.65314 0.48131 0.0
H1841 H 0.66128 0.69306 0.48834 0.0
H1842 H 0.74162 0.72939 0.47679 0.0
H1843 H 0.77731 0.71913 0.5025 0.0
H1844 H 0.11329 0.93846 0.60921 0.0
H1845 H 0.09901 0.95574 0.6401 0.0
H1846 H 0.11714 0.86089 0.6603 0.0
H1847 H 0.13333 0.84421 0.62953 0.0
H1848 H 0.06075 0.94247 0.6683 0.0
H1849 H 0.18557 0.91057 0.68554 0.0
H1850 H 0.17054 0.90879 0.66254 0.0
H1851 H 0.16164 0.87741 0.67851 0.0
C1852 C 0.11302 0.9211 0.62016 0.0
C1853 C 0.12433 0.89013 0.6172 0.0
C1854 C 0.10501 0.93096 0.6378 0.0
C1855 C 0.10801 0.90983 0.65257 0.0
C1856 C 0.11561 0.87779 0.64916 0.0
H1857 H 0.07296 0.98705 0.76264 0.0
H1858 H 0.069 0.95385 0.73527 0.0
C1859 C 0.1244 0.86816 0.63161 0.0
C1860 C 0.1076 0.92254 0.67146 0.0
H1861 H 0.15504 0.9339 0.70873 0.0
C1862 C 0.08122 0.94041 0.67724 0.0
C1863 C 0.13468 0.9203 0.68292 0.0
C1864 C 0.16483 0.90351 0.67704 0.0
C1865 C 0.08147 0.95684 0.69396 0.0
C1866 C 0.10846 0.95435 0.70545 0.0
C1867 C 0.13436 0.93563 0.69992 0.0
C1868 C 0.11152 0.97284 0.72261 0.0
C1869 C 0.05354 0.97797 0.69864 0.0
C1870 C 0.13765 0.9933 0.72501 0.0
C1871 C 0.14045 1.01163 0.74085 0.0
C1872 C 0.11693 1.01011 0.75444 0.0
C1873 C 0.09123 0.989 0.75225 0.0
C1874 C 0.08877 0.97022 0.73656 0.0
H1875 H 0.03907 0.98374 0.68638 0.0
H1876 H 0.03789 0.96547 0.70852 0.0
H1877 H 0.06159 1.00062 0.70497 0.0
H1878 H 0.1556 0.99557 0.71445 0.0
H1879 H 0.16046 0.02774 0.74216 0.0
H1880 H 0.91484 0.42306 0.8931 0.0
H1881 H 0.89562 0.4036 0.92238 0.0
H1882 H 0.8622 0.31749 0.89655 0.0
H1883 H 0.88117 0.33704 0.86695 0.0
H1884 H 0.8152 0.3511 0.91369 0.0
H1885 H 0.9169 0.33724 0.96077 0.0
H1886 H 0.91871 0.37446 0.94882 0.0
H1887 H 0.92165 0.3377 0.93621 0.0
C1888 C 0.90417 0.39959 0.89368 0.0
C1889 C 0.89907 0.38178 0.87768 0.0
C1890 C 0.89352 0.38833 0.9105 0.0
C1891 C 0.87773 0.35899 0.91166 0.0
C1892 C 0.87458 0.3401 0.89592 0.0
H1893 H 0.7756 0.31336 0.01322 0.0
H1894 H 0.81003 0.30715 0.98648 0.0
C1895 C 0.88541 0.35131 0.87904 0.0
C1896 C 0.85964 0.35138 0.9284 0.0
H1897 H 0.86592 0.35029 0.97489 0.0
C1898 C 0.82635 0.35007 0.92704 0.0
C1899 C 0.8742 0.35002 0.94579 0.0
C1900 C 0.90987 0.3496 0.94797 0.0
C1901 C 0.80718 0.34971 0.94268 0.0
C1902 C 0.82172 0.35089 0.96004 0.0
C1903 C 0.85496 0.34992 0.96148 0.0
C1904 C 0.80255 0.35511 0.97671 0.0
C1905 C 0.77146 0.34931 0.94058 0.0
C1906 C 0.78754 0.38436 0.98009 0.0
C1907 C 0.76797 0.38812 -0.00464 0.0
C1908 C 0.76301 0.36256 0.00741 0.0
C1909 C 0.77873 0.33346 0.00413 0.0
C1910 C 0.79848 0.32984 0.98893 0.0
H1911 H 0.76417 0.34167 0.92666 0.0
H1912 H 0.76043 0.33311 0.95077 0.0
H1913 H 0.76202 0.37364 0.94302 0.0
H1914 H 0.79069 0.40416 0.97078 0.0
H1915 H 0.75628 0.41082 -0.0025 0.0
H1916 H 0.46158 0.02698 0.25564 0.0
H1917 H 0.46648 0.06032 0.22844 0.0
H1918 H 0.36622 0.0491 0.21786 0.0
H1919 H 0.36091 0.01562 0.24503 0.0
H1920 H 0.41185 0.03335 0.18795 0.0
H1921 H 0.4297 0.15312 0.21925 0.0
H1922 H 0.45236 0.12003 0.22798 0.0
H1923 H 0.41012 0.12114 0.23135 0.0
C1924 C 0.44046 0.03178 0.24763 0.0
C1925 C 0.41082 0.01851 0.25247 0.0
C1926 C 0.44335 0.05096 0.23216 0.0
C1927 C 0.4167 0.0572 0.2213 0.0
C1928 C 0.38701 0.04453 0.2262 0.0
H1929 H 0.34912 0.16804 0.13713 0.0
H1930 H 0.36935 0.14776 0.16603 0.0
C1931 C 0.38403 0.02546 0.24172 0.0
C1932 C 0.41992 0.0753 0.20417 0.0
H1933 H 0.42725 0.15053 0.18713 0.0
C1934 C 0.4157 0.0589 0.18768 0.0
C1935 C 0.42509 0.10852 0.20405 0.0
C1936 C 0.42947 0.12697 0.22156 0.0
C1937 C 0.41502 0.07512 0.17098 0.0
C1938 C 0.41908 0.10858 0.17085 0.0
C1939 C 0.42462 0.12483 0.18732 0.0
C1940 C 0.41194 0.12722 0.15428 0.0
C1941 C 0.40797 0.05659 0.15375 0.0
C1942 C 0.43014 0.12383 0.13829 0.0
C1943 C 0.41856 0.13542 0.12165 0.0
C1944 C 0.38862 0.1503 0.12092 0.0
C1945 C 0.37204 0.15622 0.13726 0.0
C1946 C 0.38366 0.14483 0.1538 0.0
H1947 H 0.40148 0.03143 0.15662 0.0
H1948 H 0.38816 0.06789 0.1461 0.0
H1949 H 0.42931 0.05663 0.1448 0.0
H1950 H 0.45224 0.11054 0.1385 0.0
H1951 H 0.43187 0.13066 0.10926 0.0
H1952 H 0.39081 0.44262 0.59728 0.0
H1953 H 0.37441 0.42248 0.56766 0.0
H1954 H 0.37054 0.32701 0.58931 0.0
H1955 H 0.3862 0.34719 0.61945 0.0
H1956 H 0.39703 0.37785 0.5433 0.0
H1957 H 0.27957 0.34222 0.57244 0.0
H1958 H 0.30767 0.36582 0.5852 0.0
H1959 H 0.31427 0.32387 0.58215 0.0
C1960 C 0.38679 0.41726 0.5958 0.0
C1961 C 0.38919 0.39659 0.61084 0.0
C1962 C 0.37759 0.40577 0.57879 0.0
C1963 C 0.37074 0.37338 0.5764 0.0
C1964 C 0.37513 0.35222 0.59102 0.0
H1965 H 0.26105 0.31388 0.48044 0.0
H1966 H 0.29658 0.30939 0.50671 0.0
C1967 C 0.38417 0.36377 0.60818 0.0
C1968 C 0.35623 0.36307 0.55901 0.0
H1969 H 0.28468 0.34192 0.54069 0.0
C1970 C 0.37267 0.36937 0.5427 0.0
C1971 C 0.32442 0.35203 0.55832 0.0
C1972 C 0.30526 0.34574 0.57541 0.0
C1973 C 0.35753 0.36669 0.52572 0.0
C1974 C 0.32523 0.35757 0.52516 0.0
C1975 C 0.30947 0.34905 0.54131 0.0
C1976 C 0.30631 0.35987 0.50829 0.0
C1977 C 0.37576 0.37471 0.50857 0.0
C1978 C 0.29995 0.38984 0.50066 0.0
C1979 C 0.2794 0.39262 0.48578 0.0
C1980 C 0.26495 0.3654 0.4783 0.0
C1981 C 0.27183 0.33534 0.48585 0.0
C1982 C 0.29217 0.33265 0.50081 0.0
H1983 H 0.40187 0.3728 0.51071 0.0
H1984 H 0.36877 0.35877 0.49714 0.0
H1985 H 0.3703 0.39958 0.50453 0.0
H1986 H 0.31023 0.41118 0.50653 0.0
H1987 H 0.27466 0.41607 0.48025 0.0
H1988 H 0.93918 0.13894 0.37489 0.0
H1989 H 0.9638 0.12259 0.34593 0.0
H1990 H 0.87718 0.14635 0.31741 0.0
H1991 H 0.85291 0.16312 0.3459 0.0
H1992 H 0.94067 0.07308 0.32728 0.0
H1993 H 0.94164 0.17614 0.28097 0.0
H1994 H 0.93792 0.18061 0.30545 0.0
H1995 H 0.90329 0.17314 0.29152 0.0
C1996 C 0.92583 0.14161 0.36234 0.0
C1997 C 0.894 0.15193 0.36268 0.0
C1998 C 0.93991 0.13229 0.34583 0.0
C1999 C 0.92249 0.13363 0.32947 0.0
C2000 C 0.89144 0.14586 0.32973 0.0
H2001 H 0.87279 0.03352 0.23762 0.0
H2002 H 0.88234 0.06907 0.26353 0.0
C2003 C 0.8774 0.15504 0.34612 0.0
C2004 C 0.93381 0.11722 0.31279 0.0
H2005 H 0.93171 0.12395 0.26635 0.0
C2006 C 0.93988 0.0844 0.31397 0.0
C2007 C 0.93284 0.132 0.29543 0.0
C2008 C 0.9289 0.1675 0.29332 0.0
C2009 C 0.94182 0.06547 0.29823 0.0
C2010 C 0.93774 0.07988 0.28097 0.0
C2011 C 0.93438 0.11301 0.27968 0.0
C2012 C 0.93306 0.06042 0.26443 0.0
C2013 C 0.94571 0.02989 0.30015 0.0
C2014 C 0.95856 0.04418 0.25636 0.0
C2015 C 0.95321 0.02383 0.24158 0.0
C2016 C 0.92223 0.01934 0.2347 0.0
C2017 C 0.89687 0.03627 0.24264 0.0
C2018 C 0.90229 0.0567 0.25736 0.0
H2019 H 0.94673 0.02225 0.31467 0.0
H2020 H 0.92562 0.01743 0.29337 0.0
H2021 H 0.96799 0.02225 0.29327 0.0
H2022 H 0.98245 0.04689 0.26169 0.0
H2023 H 0.97332 1.01125 0.23575 0.0
H2024 H 0.15096 0.68938 0.12253 0.0
H2025 H 0.16983 0.70994 0.09304 0.0
H2026 H 0.12459 0.63119 0.06546 0.0
H2027 H 0.10564 0.61087 0.09459 0.0
H2028 H 0.21132 0.67298 0.07383 0.0
H2029 H 0.10949 0.70262 0.02945 0.0
H2030 H 0.10599 0.70041 0.05404 0.0
H2031 H 0.10364 0.66482 0.04032 0.0
C2032 C 0.14406 0.67723 0.11008 0.0
C2033 C 0.12722 0.64837 0.1108 0.0
C2034 C 0.15486 0.68894 0.09328 0.0
C2035 C 0.14841 0.6722 0.07706 0.0
C2036 C 0.12931 0.64487 0.07772 0.0
H2037 H 0.26363 0.61571 0.98837 0.0
H2038 H 0.23095 0.62253 0.01583 0.0
C2039 C 0.11878 0.63308 0.09442 0.0
C2040 C 0.16632 0.67904 0.06013 0.0
H2041 H 0.1574 0.68373 0.01387 0.0
C2042 C 0.19957 0.67616 0.06076 0.0
C2043 C 0.15101 0.68325 0.04311 0.0
C2044 C 0.11557 0.68828 0.04171 0.0
C2045 C 0.21771 0.67515 0.04472 0.0
C2046 C 0.20209 0.67666 0.02767 0.0
C2047 C 0.16915 0.68186 0.02701 0.0
C2048 C 0.21968 0.67194 0.01043 0.0
C2049 C 0.25336 0.67155 0.04611 0.0
C2050 C 0.22313 0.69717 -0.00188 0.0
C2051 C 0.24172 0.69338 0.98248 0.0
C2052 C 0.25699 0.66417 0.97882 0.0
C2053 C 0.2523 0.63849 0.99082 0.0
C2054 C 0.2338 0.6424 0.00654 0.0
H2055 H 0.26226 0.67867 0.05981 0.0
H2056 H 0.25983 0.64622 0.04383 0.0
H2057 H 0.2656 0.68611 0.03558 0.0
H2058 H 0.21218 0.72005 0.00089 0.0
H2059 H 0.2446 0.71358 0.97343 0.0
H2060 H 0.6581 0.83429 0.85284 0.0
H2061 H 0.64505 0.85073 0.8216 0.0
H2062 H 0.60331 0.93738 0.84261 0.0
H2063 H 0.61404 0.91968 0.87381 0.0
H2064 H 0.57431 0.92132 0.81277 0.0
H2065 H 0.70449 0.91366 0.80031 0.0
H2066 H 0.68663 0.87583 0.80511 0.0
H2067 H 0.68727 0.9064 0.82243 0.0
C2068 C 0.6451 0.85627 0.8507 0.0
C2069 C 0.63718 0.87592 0.86554 0.0
C2070 C 0.63803 0.86584 0.83291 0.0
C2071 C 0.62446 0.89589 0.82974 0.0
C2072 C 0.61409 0.91422 0.8447 0.0
H2073 H 0.66833 0.02558 0.74394 0.0
H2074 H 0.66546 0.99144 0.77092 0.0
C2075 C 0.62015 0.90412 0.86251 0.0
C2076 C 0.6242 0.90997 0.81118 0.0
H2077 H 0.67301 0.93165 0.77604 0.0
C2078 C 0.59584 0.92349 0.80468 0.0
C2079 C 0.65251 0.91327 0.80079 0.0
C2080 C 0.68449 0.90182 0.80757 0.0
C2081 C 0.59518 0.94111 0.7884 0.0
C2082 C 0.62339 0.94392 0.77789 0.0
C2083 C 0.65141 0.92936 0.78407 0.0
C2084 C 0.62522 0.96386 0.76123 0.0
C2085 C 0.5647 0.9579 0.78324 0.0
C2086 C 0.60399 0.95938 0.74667 0.0
C2087 C 0.60509 0.97947 0.73149 0.0
C2088 C 0.62818 1.00358 0.73036 0.0
C2089 C 0.65039 1.00708 0.74449 0.0
C2090 C 0.64871 0.98759 0.75988 0.0
H2091 H 0.54861 0.96082 0.79519 0.0
H2092 H 0.56956 0.98181 0.77741 0.0
H2093 H 0.5519 0.94352 0.77286 0.0
H2094 H 0.58643 0.94054 0.74707 0.0
H2095 H 0.58797 0.97608 0.7206 0.0
loop_
_geom_bond_atom_site_label_1
_geom_bond_atom_site_label_2
_geom_bond_distance
_geom_bond_site_symmetry_2
_ccdc_geom_bond_type
O0 Zn1 1.953 . S
O0 C16 1.225 . S
Zn1 O0 1.953 . S
Zn1 O2 1.949 . S
Zn1 O8 1.919 . S
Zn1 O13 1.924 . S
O2 Zn1 1.949 . S
O2 Zn3 1.923 . S
O2 Zn4 1.950 . S
O2 Zn5 1.945 . S
Zn3 O2 1.923 . S
Zn3 O6 1.933 . S
Zn3 O9 1.941 . S
Zn3 O10 1.965 . S
Zn4 O2 1.950 . S
Zn4 O11 1.938 . S
Zn4 O12 1.906 . S
Zn4 O22 1.953 . S
Zn5 O2 1.945 . S
Zn5 O7 1.932 . S
Zn5 O14 1.977 . S
Zn5 O15 1.910 . S
O6 Zn3 1.933 . S
O6 C17 1.226 . S
O7 Zn5 1.932 . S
O7 C17 1.307 . S
O8 Zn1 1.919 . S
O8 C19 1.253 . S
O9 Zn3 1.941 . S
O9 C19 1.283 . S
O10 Zn3 1.965 . S
O10 C18 1.303 . S
O11 Zn4 1.938 . S
O11 C18 1.247 . S
O12 Zn4 1.906 . S
O12 C20 1.304 . S
O13 Zn1 1.924 . S
O13 C21 1.311 . S
O14 Zn5 1.977 . S
O14 C20 1.272 . S
O15 Zn5 1.910 . S
O15 C21 1.231 . S
C16 O0 1.225 . S
C16 O22 1.298 . S
C17 O6 1.226 . S
C17 O7 1.307 . S
C18 O10 1.303 . S
C18 O11 1.247 . S
C19 O8 1.253 . S
C19 O9 1.283 . S
C20 O12 1.304 . S
C20 O14 1.272 . S
C21 O13 1.311 . S
C21 O15 1.231 . S
O22 Zn4 1.953 . S
O22 C16 1.298 . S
O23 Zn24 1.953 . S
O23 C39 1.225 . S
Zn24 O23 1.953 . S
Zn24 O25 1.949 . S
Zn24 O31 1.919 . S
Zn24 O36 1.924 . S
O25 Zn24 1.949 . S
O25 Zn26 1.923 . S
O25 Zn27 1.950 . S
O25 Zn28 1.945 . S
Zn26 O25 1.923 . S
Zn26 O29 1.933 . S
Zn26 O32 1.941 . S
Zn26 O33 1.965 . S
Zn27 O25 1.950 . S
Zn27 O34 1.938 . S
Zn27 O35 1.906 . S
Zn27 O45 1.953 . S
Zn28 O25 1.945 . S
Zn28 O30 1.932 . S
Zn28 O37 1.977 . S
Zn28 O38 1.910 . S
O29 Zn26 1.933 . S
O29 C40 1.226 . S
O30 Zn28 1.932 . S
O30 C40 1.307 . S
O31 Zn24 1.919 . S
O31 C42 1.253 . S
O32 Zn26 1.941 . S
O32 C42 1.283 . S
O33 Zn26 1.965 . S
O33 C41 1.303 . S
O34 Zn27 1.938 . S
O34 C41 1.247 . S
O35 Zn27 1.906 . S
O35 C43 1.304 . S
O36 Zn24 1.924 . S
O36 C44 1.311 . S
O37 Zn28 1.977 . S
O37 C43 1.272 . S
O38 Zn28 1.910 . S
O38 C44 1.231 . S
C39 O23 1.225 . S
C39 O45 1.298 . S
C40 O29 1.226 . S
C40 O30 1.307 . S
C41 O33 1.303 . S
C41 O34 1.247 . S
C42 O31 1.253 . S
C42 O32 1.283 . S
C43 O35 1.304 . S
C43 O37 1.272 . S
C44 O36 1.311 . S
C44 O38 1.231 . S
O45 Zn27 1.953 . S
O45 C39 1.298 . S
O46 Zn47 1.953 . S
O46 C62 1.225 . S
Zn47 O46 1.953 . S
Zn47 O48 1.949 . S
Zn47 O54 1.919 . S
Zn47 O59 1.924 . S
O48 Zn47 1.949 . S
O48 Zn49 1.923 . S
O48 Zn50 1.950 . S
O48 Zn51 1.945 . S
Zn49 O48 1.923 . S
Zn49 O52 1.933 . S
Zn49 O55 1.941 . S
Zn49 O56 1.965 . S
Zn50 O48 1.950 . S
Zn50 O57 1.938 . S
Zn50 O58 1.906 . S
Zn50 O68 1.953 . S
Zn51 O48 1.945 . S
Zn51 O53 1.932 . S
Zn51 O60 1.977 . S
Zn51 O61 1.910 . S
O52 Zn49 1.933 . S
O52 C63 1.226 . S
O53 Zn51 1.932 . S
O53 C63 1.307 . S
O54 Zn47 1.919 . S
O54 C65 1.253 . S
O55 Zn49 1.941 . S
O55 C65 1.283 . S
O56 Zn49 1.965 . S
O56 C64 1.303 . S
O57 Zn50 1.938 . S
O57 C64 1.247 . S
O58 Zn50 1.906 . S
O58 C66 1.304 . S
O59 Zn47 1.924 . S
O59 C67 1.311 . S
O60 Zn51 1.977 . S
O60 C66 1.272 . S
O61 Zn51 1.910 . S
O61 C67 1.231 . S
C62 O46 1.225 . S
C62 O68 1.298 . S
C63 O52 1.226 . S
C63 O53 1.307 . S
C64 O56 1.303 . S
C64 O57 1.247 . S
C65 O54 1.253 . S
C65 O55 1.283 . S
C66 O58 1.304 . S
C66 O60 1.272 . S
C67 O59 1.311 . S
C67 O61 1.231 . S
O68 Zn50 1.953 . S
O68 C62 1.298 . S
O69 Zn70 1.953 . S
O69 C85 1.225 . S
Zn70 O69 1.953 . S
Zn70 O71 1.949 . S
Zn70 O77 1.919 . S
Zn70 O82 1.924 . S
O71 Zn70 1.949 . S
O71 Zn72 1.923 . S
O71 Zn73 1.950 . S
O71 Zn74 1.945 . S
Zn72 O71 1.923 . S
Zn72 O75 1.933 . S
Zn72 O78 1.941 . S
Zn72 O79 1.965 . S
Zn73 O71 1.950 . S
Zn73 O80 1.938 . S
Zn73 O81 1.906 . S
Zn73 O91 1.953 . S
Zn74 O71 1.945 . S
Zn74 O76 1.932 . S
Zn74 O83 1.977 . S
Zn74 O84 1.910 . S
O75 Zn72 1.933 . S
O75 C86 1.226 . S
O76 Zn74 1.932 . S
O76 C86 1.307 . S
O77 Zn70 1.919 . S
O77 C88 1.253 . S
O78 Zn72 1.941 . S
O78 C88 1.283 . S
O79 Zn72 1.965 . S
O79 C87 1.303 . S
O80 Zn73 1.938 . S
O80 C87 1.247 . S
O81 Zn73 1.906 . S
O81 C89 1.304 . S
O82 Zn70 1.924 . S
O82 C90 1.311 . S
O83 Zn74 1.977 . S
O83 C89 1.272 . S
O84 Zn74 1.910 . S
O84 C90 1.231 . S
C85 O69 1.225 . S
C85 O91 1.298 . S
C86 O75 1.226 . S
C86 O76 1.307 . S
C87 O79 1.303 . S
C87 O80 1.247 . S
C88 O77 1.253 . S
C88 O78 1.283 . S
C89 O81 1.304 . S
C89 O83 1.272 . S
C90 O82 1.311 . S
C90 O84 1.231 . S
O91 Zn73 1.953 . S
O91 C85 1.298 . S
O92 Zn93 1.953 . S
O92 C108 1.225 . S
Zn93 O92 1.953 . S
Zn93 O94 1.949 . S
Zn93 O100 1.919 . S
Zn93 O105 1.924 . S
O94 Zn93 1.949 . S
O94 Zn95 1.923 . S
O94 Zn96 1.950 . S
O94 Zn97 1.945 . S
Zn95 O94 1.923 . S
Zn95 O98 1.933 . S
Zn95 O101 1.941 . S
Zn95 O102 1.965 . S
Zn96 O94 1.950 . S
Zn96 O103 1.938 . S
Zn96 O104 1.906 . S
Zn96 O114 1.953 . S
Zn97 O94 1.945 . S
Zn97 O99 1.932 . S
Zn97 O106 1.977 . S
Zn97 O107 1.910 . S
O98 Zn95 1.933 . S
O98 C109 1.226 . S
O99 Zn97 1.932 . S
O99 C109 1.307 . S
O100 Zn93 1.919 . S
O100 C111 1.253 . S
O101 Zn95 1.941 . S
O101 C111 1.283 . S
O102 Zn95 1.965 . S
O102 C110 1.303 . S
O103 Zn96 1.938 . S
O103 C110 1.247 . S
O104 Zn96 1.906 . S
O104 C112 1.304 . S
O105 Zn93 1.924 . S
O105 C113 1.311 . S
O106 Zn97 1.977 . S
O106 C112 1.272 . S
O107 Zn97 1.910 . S
O107 C113 1.231 . S
C108 O92 1.225 . S
C108 O114 1.298 . S
C109 O98 1.226 . S
C109 O99 1.307 . S
C110 O102 1.303 . S
C110 O103 1.247 . S
C111 O100 1.253 . S
C111 O101 1.283 . S
C112 O104 1.304 . S
C112 O106 1.272 . S
C113 O105 1.311 . S
C113 O107 1.231 . S
O114 Zn96 1.953 . S
O114 C108 1.298 . S
O115 Zn116 1.953 . S
O115 C131 1.225 . S
Zn116 O115 1.953 . S
Zn116 O117 1.949 . S
Zn116 O123 1.919 . S
Zn116 O128 1.924 . S
O117 Zn116 1.949 . S
O117 Zn118 1.923 . S
O117 Zn119 1.950 . S
O117 Zn120 1.945 . S
Zn118 O117 1.923 . S
Zn118 O121 1.933 . S
Zn118 O124 1.941 . S
Zn118 O125 1.965 . S
Zn119 O117 1.950 . S
Zn119 O126 1.938 . S
Zn119 O127 1.906 . S
Zn119 O137 1.953 . S
Zn120 O117 1.945 . S
Zn120 O122 1.932 . S
Zn120 O129 1.977 . S
Zn120 O130 1.910 . S
O121 Zn118 1.933 . S
O121 C132 1.226 . S
O122 Zn120 1.932 . S
O122 C132 1.307 . S
O123 Zn116 1.919 . S
O123 C134 1.253 . S
O124 Zn118 1.941 . S
O124 C134 1.283 . S
O125 Zn118 1.965 . S
O125 C133 1.303 . S
O126 Zn119 1.938 . S
O126 C133 1.247 . S
O127 Zn119 1.906 . S
O127 C135 1.304 . S
O128 Zn116 1.924 . S
O128 C136 1.311 . S
O129 Zn120 1.977 . S
O129 C135 1.272 . S
O130 Zn120 1.910 . S
O130 C136 1.231 . S
C131 O115 1.225 . S
C131 O137 1.298 . S
C132 O121 1.226 . S
C132 O122 1.307 . S
C133 O125 1.303 . S
C133 O126 1.247 . S
C134 O123 1.253 . S
C134 O124 1.283 . S
C135 O127 1.304 . S
C135 O129 1.272 . S
C136 O128 1.311 . S
C136 O130 1.231 . S
O137 Zn119 1.953 . S
O137 C131 1.298 . S
O138 Zn139 1.953 . S
O138 C154 1.225 . S
Zn139 O138 1.953 . S
Zn139 O140 1.949 . S
Zn139 O146 1.919 . S
Zn139 O151 1.924 . S
O140 Zn139 1.949 . S
O140 Zn141 1.923 . S
O140 Zn142 1.950 . S
O140 Zn143 1.945 . S
Zn141 O140 1.923 . S
Zn141 O144 1.933 . S
Zn141 O147 1.941 . S
Zn141 O148 1.965 . S
Zn142 O140 1.950 . S
Zn142 O149 1.938 . S
Zn142 O150 1.906 . S
Zn142 O160 1.953 . S
Zn143 O140 1.945 . S
Zn143 O145 1.932 . S
Zn143 O152 1.977 . S
Zn143 O153 1.910 . S
O144 Zn141 1.933 . S
O144 C155 1.226 . S
O145 Zn143 1.932 . S
O145 C155 1.307 . S
O146 Zn139 1.919 . S
O146 C157 1.253 . S
O147 Zn141 1.941 . S
O147 C157 1.283 . S
O148 Zn141 1.965 . S
O148 C156 1.303 . S
O149 Zn142 1.938 . S
O149 C156 1.247 . S
O150 Zn142 1.906 . S
O150 C158 1.304 . S
O151 Zn139 1.924 . S
O151 C159 1.311 . S
O152 Zn143 1.977 . S
O152 C158 1.272 . S
O153 Zn143 1.910 . S
O153 C159 1.231 . S
C154 O138 1.225 . S
C154 O160 1.298 . S
C155 O144 1.226 . S
C155 O145 1.307 . S
C156 O148 1.303 . S
C156 O149 1.247 . S
C157 O146 1.253 . S
C157 O147 1.283 . S
C158 O150 1.304 . S
C158 O152 1.272 . S
C159 O151 1.311 . S
C159 O153 1.231 . S
O160 Zn142 1.953 . S
O160 C154 1.298 . S
O161 Zn162 1.953 . S
O161 C177 1.225 . S
Zn162 O161 1.953 . S
Zn162 O163 1.949 . S
Zn162 O169 1.919 . S
Zn162 O174 1.924 . S
O163 Zn162 1.949 . S
O163 Zn164 1.923 . S
O163 Zn165 1.950 . S
O163 Zn166 1.945 . S
Zn164 O163 1.923 . S
Zn164 O167 1.933 . S
Zn164 O170 1.941 . S
Zn164 O171 1.965 . S
Zn165 O163 1.950 . S
Zn165 O172 1.938 . S
Zn165 O173 1.906 . S
Zn165 O183 1.953 . S
Zn166 O163 1.945 . S
Zn166 O168 1.932 . S
Zn166 O175 1.977 . S
Zn166 O176 1.910 . S
O167 Zn164 1.933 . S
O167 C178 1.226 . S
O168 Zn166 1.932 . S
O168 C178 1.307 . S
O169 Zn162 1.919 . S
O169 C180 1.253 . S
O170 Zn164 1.941 . S
O170 C180 1.283 . S
O171 Zn164 1.965 . S
O171 C179 1.303 . S
O172 Zn165 1.938 . S
O172 C179 1.247 . S
O173 Zn165 1.906 . S
O173 C181 1.304 . S
O174 Zn162 1.924 . S
O174 C182 1.311 . S
O175 Zn166 1.977 . S
O175 C181 1.272 . S
O176 Zn166 1.910 . S
O176 C182 1.231 . S
C177 O161 1.225 . S
C177 O183 1.298 . S
C178 O167 1.226 . S
C178 O168 1.307 . S
C179 O171 1.303 . S
C179 O172 1.247 . S
C180 O169 1.253 . S
C180 O170 1.283 . S
C181 O173 1.304 . S
C181 O175 1.272 . S
C182 O174 1.311 . S
C182 O176 1.231 . S
O183 Zn165 1.953 . S
O183 C177 1.298 . S
O184 Zn185 1.953 . S
O184 C200 1.225 . S
Zn185 O184 1.953 . S
Zn185 O186 1.949 . S
Zn185 O192 1.919 . S
Zn185 O197 1.924 . S
O186 Zn185 1.949 . S
O186 Zn187 1.923 . S
O186 Zn188 1.950 . S
O186 Zn189 1.945 . S
Zn187 O186 1.923 . S
Zn187 O190 1.933 . S
Zn187 O193 1.941 . S
Zn187 O194 1.965 . S
Zn188 O186 1.950 . S
Zn188 O195 1.938 . S
Zn188 O196 1.906 . S
Zn188 O206 1.953 . S
Zn189 O186 1.945 . S
Zn189 O191 1.932 . S
Zn189 O198 1.977 . S
Zn189 O199 1.910 . S
O190 Zn187 1.933 . S
O190 C201 1.226 . S
O191 Zn189 1.932 . S
O191 C201 1.307 . S
O192 Zn185 1.919 . S
O192 C203 1.253 . S
O193 Zn187 1.941 . S
O193 C203 1.283 . S
O194 Zn187 1.965 . S
O194 C202 1.303 . S
O195 Zn188 1.938 . S
O195 C202 1.247 . S
O196 Zn188 1.906 . S
O196 C204 1.304 . S
O197 Zn185 1.924 . S
O197 C205 1.311 . S
O198 Zn189 1.977 . S
O198 C204 1.272 . S
O199 Zn189 1.910 . S
O199 C205 1.231 . S
C200 O184 1.225 . S
C200 O206 1.298 . S
C201 O190 1.226 . S
C201 O191 1.307 . S
C202 O194 1.303 . S
C202 O195 1.247 . S
C203 O192 1.253 . S
C203 O193 1.283 . S
C204 O196 1.304 . S
C204 O198 1.272 . S
C205 O197 1.311 . S
C205 O199 1.231 . S
O206 Zn188 1.953 . S
O206 C200 1.298 . S
O207 Zn208 1.953 . S
O207 C223 1.225 . S
Zn208 O207 1.953 . S
Zn208 O209 1.949 . S
Zn208 O215 1.919 . S
Zn208 O220 1.924 . S
O209 Zn208 1.949 . S
O209 Zn210 1.923 . S
O209 Zn211 1.950 . S
O209 Zn212 1.945 . S
Zn210 O209 1.923 . S
Zn210 O213 1.933 . S
Zn210 O216 1.941 . S
Zn210 O217 1.965 . S
Zn211 O209 1.950 . S
Zn211 O218 1.938 . S
Zn211 O219 1.906 . S
Zn211 O229 1.953 . S
Zn212 O209 1.945 . S
Zn212 O214 1.932 . S
Zn212 O221 1.977 . S
Zn212 O222 1.910 . S
O213 Zn210 1.933 . S
O213 C224 1.226 . S
O214 Zn212 1.932 . S
O214 C224 1.307 . S
O215 Zn208 1.919 . S
O215 C226 1.253 . S
O216 Zn210 1.941 . S
O216 C226 1.283 . S
O217 Zn210 1.965 . S
O217 C225 1.303 . S
O218 Zn211 1.938 . S
O218 C225 1.247 . S
O219 Zn211 1.906 . S
O219 C227 1.304 . S
O220 Zn208 1.924 . S
O220 C228 1.311 . S
O221 Zn212 1.977 . S
O221 C227 1.272 . S
O222 Zn212 1.910 . S
O222 C228 1.231 . S
C223 O207 1.225 . S
C223 O229 1.298 . S
C224 O213 1.226 . S
C224 O214 1.307 . S
C225 O217 1.303 . S
C225 O218 1.247 . S
C226 O215 1.253 . S
C226 O216 1.283 . S
C227 O219 1.304 . S
C227 O221 1.272 . S
C228 O220 1.311 . S
C228 O222 1.231 . S
O229 Zn211 1.953 . S
O229 C223 1.298 . S
O230 Zn231 1.953 . S
O230 C246 1.225 . S
Zn231 O230 1.953 . S
Zn231 O232 1.949 . S
Zn231 O238 1.919 . S
Zn231 O243 1.924 . S
O232 Zn231 1.949 . S
O232 Zn233 1.923 . S
O232 Zn234 1.950 . S
O232 Zn235 1.945 . S
Zn233 O232 1.923 . S
Zn233 O236 1.933 . S
Zn233 O239 1.941 . S
Zn233 O240 1.965 . S
Zn234 O232 1.950 . S
Zn234 O241 1.938 . S
Zn234 O242 1.906 . S
Zn234 O252 1.953 . S
Zn235 O232 1.945 . S
Zn235 O237 1.932 . S
Zn235 O244 1.977 . S
Zn235 O245 1.910 . S
O236 Zn233 1.933 . S
O236 C247 1.226 . S
O237 Zn235 1.932 . S
O237 C247 1.307 . S
O238 Zn231 1.919 . S
O238 C249 1.253 . S
O239 Zn233 1.941 . S
O239 C249 1.283 . S
O240 Zn233 1.965 . S
O240 C248 1.303 . S
O241 Zn234 1.938 . S
O241 C248 1.247 . S
O242 Zn234 1.906 . S
O242 C250 1.304 . S
O243 Zn231 1.924 . S
O243 C251 1.311 . S
O244 Zn235 1.977 . S
O244 C250 1.272 . S
O245 Zn235 1.910 . S
O245 C251 1.231 . S
C246 O230 1.225 . S
C246 O252 1.298 . S
C247 O236 1.226 . S
C247 O237 1.307 . S
C248 O240 1.303 . S
C248 O241 1.247 . S
C249 O238 1.253 . S
C249 O239 1.283 . S
C250 O242 1.304 . S
C250 O244 1.272 . S
C251 O243 1.311 . S
C251 O245 1.231 . S
O252 Zn234 1.953 . S
O252 C246 1.298 . S
O253 Zn254 1.953 . S
O253 C269 1.225 . S
Zn254 O253 1.953 . S
Zn254 O255 1.949 . S
Zn254 O261 1.919 . S
Zn254 O266 1.924 . S
O255 Zn254 1.949 . S
O255 Zn256 1.923 . S
O255 Zn257 1.950 . S
O255 Zn258 1.945 . S
Zn256 O255 1.923 . S
Zn256 O259 1.933 . S
Zn256 O262 1.941 . S
Zn256 O263 1.965 . S
Zn257 O255 1.950 . S
Zn257 O264 1.938 . S
Zn257 O265 1.906 . S
Zn257 O275 1.953 . S
Zn258 O255 1.945 . S
Zn258 O260 1.932 . S
Zn258 O267 1.977 . S
Zn258 O268 1.910 . S
O259 Zn256 1.933 . S
O259 C270 1.226 . S
O260 Zn258 1.932 . S
O260 C270 1.307 . S
O261 Zn254 1.919 . S
O261 C272 1.253 . S
O262 Zn256 1.941 . S
O262 C272 1.283 . S
O263 Zn256 1.965 . S
O263 C271 1.303 . S
O264 Zn257 1.938 . S
O264 C271 1.247 . S
O265 Zn257 1.906 . S
O265 C273 1.304 . S
O266 Zn254 1.924 . S
O266 C274 1.311 . S
O267 Zn258 1.977 . S
O267 C273 1.272 . S
O268 Zn258 1.910 . S
O268 C274 1.231 . S
C269 O253 1.225 . S
C269 O275 1.298 . S
C270 O259 1.226 . S
C270 O260 1.307 . S
C271 O263 1.303 . S
C271 O264 1.247 . S
C272 O261 1.253 . S
C272 O262 1.283 . S
C273 O265 1.304 . S
C273 O267 1.272 . S
C274 O266 1.311 . S
C274 O268 1.231 . S
O275 Zn257 1.953 . S
O275 C269 1.298 . S
O276 Zn277 1.953 . S
O276 C292 1.225 . S
Zn277 O276 1.953 . S
Zn277 O278 1.949 . S
Zn277 O284 1.919 . S
Zn277 O289 1.924 . S
O278 Zn277 1.949 . S
O278 Zn279 1.923 . S
O278 Zn280 1.950 . S
O278 Zn281 1.945 . S
Zn279 O278 1.923 . S
Zn279 O282 1.933 . S
Zn279 O285 1.941 . S
Zn279 O286 1.965 . S
Zn280 O278 1.950 . S
Zn280 O287 1.938 . S
Zn280 O288 1.906 . S
Zn280 O298 1.953 . S
Zn281 O278 1.945 . S
Zn281 O283 1.932 . S
Zn281 O290 1.977 . S
Zn281 O291 1.910 . S
O282 Zn279 1.933 . S
O282 C293 1.226 . S
O283 Zn281 1.932 . S
O283 C293 1.307 . S
O284 Zn277 1.919 . S
O284 C295 1.253 . S
O285 Zn279 1.941 . S
O285 C295 1.283 . S
O286 Zn279 1.965 . S
O286 C294 1.303 . S
O287 Zn280 1.938 . S
O287 C294 1.247 . S
O288 Zn280 1.906 . S
O288 C296 1.304 . S
O289 Zn277 1.924 . S
O289 C297 1.311 . S
O290 Zn281 1.977 . S
O290 C296 1.272 . S
O291 Zn281 1.910 . S
O291 C297 1.231 . S
C292 O276 1.225 . S
C292 O298 1.298 . S
C293 O282 1.226 . S
C293 O283 1.307 . S
C294 O286 1.303 . S
C294 O287 1.247 . S
C295 O284 1.253 . S
C295 O285 1.283 . S
C296 O288 1.304 . S
C296 O290 1.272 . S
C297 O289 1.311 . S
C297 O291 1.231 . S
O298 Zn280 1.953 . S
O298 C292 1.298 . S
O299 Zn300 1.953 . S
O299 C315 1.225 . S
Zn300 O299 1.953 . S
Zn300 O301 1.949 . S
Zn300 O307 1.919 . S
Zn300 O312 1.924 . S
O301 Zn300 1.949 . S
O301 Zn302 1.923 . S
O301 Zn303 1.950 . S
O301 Zn304 1.945 . S
Zn302 O301 1.923 . S
Zn302 O305 1.933 . S
Zn302 O308 1.941 . S
Zn302 O309 1.965 . S
Zn303 O301 1.950 . S
Zn303 O310 1.938 . S
Zn303 O311 1.906 . S
Zn303 O321 1.953 . S
Zn304 O301 1.945 . S
Zn304 O306 1.932 . S
Zn304 O313 1.977 . S
Zn304 O314 1.910 . S
O305 Zn302 1.933 . S
O305 C316 1.226 . S
O306 Zn304 1.932 . S
O306 C316 1.307 . S
O307 Zn300 1.919 . S
O307 C318 1.253 . S
O308 Zn302 1.941 . S
O308 C318 1.283 . S
O309 Zn302 1.965 . S
O309 C317 1.303 . S
O310 Zn303 1.938 . S
O310 C317 1.247 . S
O311 Zn303 1.906 . S
O311 C319 1.304 . S
O312 Zn300 1.924 . S
O312 C320 1.311 . S
O313 Zn304 1.977 . S
O313 C319 1.272 . S
O314 Zn304 1.910 . S
O314 C320 1.231 . S
C315 O299 1.225 . S
C315 O321 1.298 . S
C316 O305 1.226 . S
C316 O306 1.307 . S
C317 O309 1.303 . S
C317 O310 1.247 . S
C318 O307 1.253 . S
C318 O308 1.283 . S
C319 O311 1.304 . S
C319 O313 1.272 . S
C320 O312 1.311 . S
C320 O314 1.231 . S
O321 Zn303 1.953 . S
O321 C315 1.298 . S
O322 Zn323 1.953 . S
O322 C338 1.225 . S
Zn323 O322 1.953 . S
Zn323 O324 1.949 . S
Zn323 O330 1.919 . S
Zn323 O335 1.924 . S
O324 Zn323 1.949 . S
O324 Zn325 1.923 . S
O324 Zn326 1.950 . S
O324 Zn327 1.945 . S
Zn325 O324 1.923 . S
Zn325 O328 1.933 . S
Zn325 O331 1.941 . S
Zn325 O332 1.965 . S
Zn326 O324 1.950 . S
Zn326 O333 1.938 . S
Zn326 O334 1.906 . S
Zn326 O344 1.953 . S
Zn327 O324 1.945 . S
Zn327 O329 1.932 . S
Zn327 O336 1.977 . S
Zn327 O337 1.910 . S
O328 Zn325 1.933 . S
O328 C339 1.226 . S
O329 Zn327 1.932 . S
O329 C339 1.307 . S
O330 Zn323 1.919 . S
O330 C341 1.253 . S
O331 Zn325 1.941 . S
O331 C341 1.283 . S
O332 Zn325 1.965 . S
O332 C340 1.303 . S
O333 Zn326 1.938 . S
O333 C340 1.247 . S
O334 Zn326 1.906 . S
O334 C342 1.304 . S
O335 Zn323 1.924 . S
O335 C343 1.311 . S
O336 Zn327 1.977 . S
O336 C342 1.272 . S
O337 Zn327 1.910 . S
O337 C343 1.231 . S
C338 O322 1.225 . S
C338 O344 1.298 . S
C339 O328 1.226 . S
C339 O329 1.307 . S
C340 O332 1.303 . S
C340 O333 1.247 . S
C341 O330 1.253 . S
C341 O331 1.283 . S
C342 O334 1.304 . S
C342 O336 1.272 . S
C343 O335 1.311 . S
C343 O337 1.231 . S
O344 Zn326 1.953 . S
O344 C338 1.298 . S
O345 Zn346 1.953 . S
O345 C361 1.225 . S
Zn346 O345 1.953 . S
Zn346 O347 1.949 . S
Zn346 O353 1.919 . S
Zn346 O358 1.924 . S
O347 Zn346 1.949 . S
O347 Zn348 1.923 . S
O347 Zn349 1.950 . S
O347 Zn350 1.945 . S
Zn348 O347 1.923 . S
Zn348 O351 1.933 . S
Zn348 O354 1.941 . S
Zn348 O355 1.965 . S
Zn349 O347 1.950 . S
Zn349 O356 1.938 . S
Zn349 O357 1.906 . S
Zn349 O367 1.953 . S
Zn350 O347 1.945 . S
Zn350 O352 1.932 . S
Zn350 O359 1.977 . S
Zn350 O360 1.910 . S
O351 Zn348 1.933 . S
O351 C362 1.226 . S
O352 Zn350 1.932 . S
O352 C362 1.307 . S
O353 Zn346 1.919 . S
O353 C364 1.253 . S
O354 Zn348 1.941 . S
O354 C364 1.283 . S
O355 Zn348 1.965 . S
O355 C363 1.303 . S
O356 Zn349 1.938 . S
O356 C363 1.247 . S
O357 Zn349 1.906 . S
O357 C365 1.304 . S
O358 Zn346 1.924 . S
O358 C366 1.311 . S
O359 Zn350 1.977 . S
O359 C365 1.272 . S
O360 Zn350 1.910 . S
O360 C366 1.231 . S
C361 O345 1.225 . S
C361 O367 1.298 . S
C362 O351 1.226 . S
C362 O352 1.307 . S
C363 O355 1.303 . S
C363 O356 1.247 . S
C364 O353 1.253 . S
C364 O354 1.283 . S
C365 O357 1.304 . S
C365 O359 1.272 . S
C366 O358 1.311 . S
C366 O360 1.231 . S
O367 Zn349 1.953 . S
O367 C361 1.298 . S
H368 C376 0.929 . S
H369 C378 0.930 . S
H370 C380 0.930 . S
H371 C383 0.929 . S
H372 C386 0.930 . S
H373 C388 0.960 . S
H374 C388 0.960 . S
H375 C388 0.960 . S
C376 H368 0.929 . S
C376 C377 1.377 . S
C376 C378 1.384 . S
C377 C376 1.377 . S
C377 C383 1.390 . S
C378 H369 0.930 . S
C378 C376 1.384 . S
C378 C379 1.372 . S
C379 C378 1.372 . S
C379 C380 1.400 . S
C379 C384 1.490 . S
C380 H370 0.930 . S
C380 C379 1.400 . S
C380 C383 1.386 . S
H381 C397 0.930 . S
H382 C398 0.931 . S
C383 H371 0.929 . S
C383 C377 1.390 . S
C383 C380 1.386 . S
C384 C379 1.490 . S
C384 C386 1.395 . S
C384 C387 1.403 . S
H385 C391 0.930 . S
C386 H372 0.930 . S
C386 C384 1.395 . S
C386 C389 1.403 . S
C387 C384 1.403 . S
C387 C388 1.524 . S
C387 C391 1.400 . S
C388 H373 0.960 . S
C388 H374 0.960 . S
C388 H375 0.960 . S
C388 C387 1.524 . S
C389 C386 1.403 . S
C389 C390 1.392 . S
C389 C393 1.495 . S
C390 C389 1.392 . S
C390 C391 1.385 . S
C390 C392 1.478 . S
C391 H385 0.930 . S
C391 C387 1.400 . S
C391 C390 1.385 . S
C392 C390 1.478 . S
C392 C394 1.381 . S
C392 C398 1.383 . S
C393 C389 1.495 . S
C393 H399 0.959 . S
C393 H400 0.961 . S
C393 H401 0.960 . S
C394 C392 1.381 . S
C394 C395 1.394 . S
C394 H402 0.930 . S
C395 C394 1.394 . S
C395 C396 1.383 . S
C395 H403 0.929 . S
C396 C395 1.383 . S
C396 C397 1.377 . S
C397 H381 0.930 . S
C397 C396 1.377 . S
C397 C398 1.379 . S
C398 H382 0.931 . S
C398 C392 1.383 . S
C398 C397 1.379 . S
H399 C393 0.959 . S
H400 C393 0.961 . S
H401 C393 0.960 . S
H402 C394 0.930 . S
H403 C395 0.929 . S
H404 C412 0.929 . S
H405 C414 0.930 . S
H406 C416 0.930 . S
H407 C419 0.929 . S
H408 C422 0.930 . S
H409 C424 0.960 . S
H410 C424 0.960 . S
H411 C424 0.960 . S
C412 H404 0.929 . S
C412 C413 1.377 . S
C412 C414 1.384 . S
C413 C412 1.377 . S
C413 C419 1.390 . S
C414 H405 0.930 . S
C414 C412 1.384 . S
C414 C415 1.372 . S
C415 C414 1.372 . S
C415 C416 1.400 . S
C415 C420 1.490 . S
C416 H406 0.930 . S
C416 C415 1.400 . S
C416 C419 1.386 . S
H417 C433 0.930 . S
H418 C434 0.931 . S
C419 H407 0.929 . S
C419 C413 1.390 . S
C419 C416 1.386 . S
C420 C415 1.490 . S
C420 C422 1.395 . S
C420 C423 1.403 . S
H421 C427 0.930 . S
C422 H408 0.930 . S
C422 C420 1.395 . S
C422 C425 1.403 . S
C423 C420 1.403 . S
C423 C424 1.524 . S
C423 C427 1.400 . S
C424 H409 0.960 . S
C424 H410 0.960 . S
C424 H411 0.960 . S
C424 C423 1.524 . S
C425 C422 1.403 . S
C425 C426 1.392 . S
C425 C429 1.495 . S
C426 C425 1.392 . S
C426 C427 1.385 . S
C426 C428 1.478 . S
C427 H421 0.930 . S
C427 C423 1.400 . S
C427 C426 1.385 . S
C428 C426 1.478 . S
C428 C430 1.381 . S
C428 C434 1.383 . S
C429 C425 1.495 . S
C429 H435 0.959 . S
C429 H436 0.961 . S
C429 H437 0.960 . S
C430 C428 1.381 . S
C430 C431 1.394 . S
C430 H438 0.930 . S
C431 C430 1.394 . S
C431 C432 1.383 . S
C431 H439 0.929 . S
C432 C431 1.383 . S
C432 C433 1.377 . S
C433 H417 0.930 . S
C433 C432 1.377 . S
C433 C434 1.379 . S
C434 H418 0.931 . S
C434 C428 1.383 . S
C434 C433 1.379 . S
H435 C429 0.959 . S
H436 C429 0.961 . S
H437 C429 0.960 . S
H438 C430 0.930 . S
H439 C431 0.929 . S
H440 C448 0.929 . S
H441 C450 0.930 . S
H442 C452 0.930 . S
H443 C455 0.929 . S
H444 C458 0.930 . S
H445 C460 0.960 . S
H446 C460 0.960 . S
H447 C460 0.960 . S
C448 H440 0.929 . S
C448 C449 1.377 . S
C448 C450 1.384 . S
C449 C448 1.377 . S
C449 C455 1.390 . S
C450 H441 0.930 . S
C450 C448 1.384 . S
C450 C451 1.372 . S
C451 C450 1.372 . S
C451 C452 1.400 . S
C451 C456 1.490 . S
C452 H442 0.930 . S
C452 C451 1.400 . S
C452 C455 1.386 . S
H453 C469 0.930 . S
H454 C470 0.931 . S
C455 H443 0.929 . S
C455 C449 1.390 . S
C455 C452 1.386 . S
C456 C451 1.490 . S
C456 C458 1.395 . S
C456 C459 1.403 . S
H457 C463 0.930 . S
C458 H444 0.930 . S
C458 C456 1.395 . S
C458 C461 1.403 1_455 S
C459 C456 1.403 . S
C459 C460 1.524 . S
C459 C463 1.400 1_455 S
C460 H445 0.960 . S
C460 H446 0.960 . S
C460 H447 0.960 . S
C460 C459 1.524 . S
C461 C458 1.403 1_655 S
C461 C462 1.392 . S
C461 C465 1.495 . S
C462 C461 1.392 . S
C462 C463 1.385 . S
C462 C464 1.478 . S
C463 H457 0.930 . S
C463 C459 1.400 1_655 S
C463 C462 1.385 . S
C464 C462 1.478 . S
C464 C466 1.381 . S
C464 C470 1.383 . S
C465 C461 1.495 . S
C465 H471 0.959 . S
C465 H472 0.961 . S
C465 H473 0.960 . S
C466 C464 1.381 . S
C466 C467 1.394 . S
C466 H474 0.930 . S
C467 C466 1.394 . S
C467 C468 1.383 . S
C467 H475 0.929 . S
C468 C467 1.383 . S
C468 C469 1.377 . S
C469 H453 0.930 . S
C469 C468 1.377 . S
C469 C470 1.379 . S
C470 H454 0.931 . S
C470 C464 1.383 . S
C470 C469 1.379 . S
H471 C465 0.959 . S
H472 C465 0.961 . S
H473 C465 0.960 . S
H474 C466 0.930 . S
H475 C467 0.929 . S
H476 C484 0.929 . S
H477 C486 0.930 . S
H478 C488 0.930 . S
H479 C491 0.929 . S
H480 C494 0.930 . S
H481 C496 0.960 . S
H482 C496 0.960 . S
H483 C496 0.960 . S
C484 H476 0.929 . S
C484 C485 1.377 . S
C484 C486 1.384 . S
C485 C484 1.377 . S
C485 C491 1.390 . S
C486 H477 0.930 . S
C486 C484 1.384 . S
C486 C487 1.372 . S
C487 C486 1.372 . S
C487 C488 1.400 . S
C487 C492 1.490 . S
C488 H478 0.930 . S
C488 C487 1.400 . S
C488 C491 1.386 . S
H489 C505 0.930 . S
H490 C506 0.931 . S
C491 H479 0.929 . S
C491 C485 1.390 . S
C491 C488 1.386 . S
C492 C487 1.490 . S
C492 C494 1.395 1_455 S
C492 C495 1.403 . S
H493 C499 0.930 . S
C494 H480 0.930 . S
C494 C492 1.395 1_655 S
C494 C497 1.403 . S
C495 C492 1.403 . S
C495 C496 1.524 . S
C495 C499 1.400 . S
C496 H481 0.960 . S
C496 H482 0.960 . S
C496 H483 0.960 . S
C496 C495 1.524 . S
C497 C494 1.403 . S
C497 C498 1.392 . S
C497 C501 1.495 . S
C498 C497 1.392 . S
C498 C499 1.385 1_655 S
C498 C500 1.478 . S
C499 H493 0.930 . S
C499 C495 1.400 . S
C499 C498 1.385 1_455 S
C500 C498 1.478 . S
C500 C502 1.381 . S
C500 C506 1.383 . S
C501 C497 1.495 . S
C501 H507 0.959 . S
C501 H508 0.961 . S
C501 H509 0.960 . S
C502 C500 1.381 . S
C502 C503 1.394 . S
C502 H510 0.930 . S
C503 C502 1.394 . S
C503 C504 1.383 . S
C503 H511 0.929 . S
C504 C503 1.383 . S
C504 C505 1.377 . S
C505 H489 0.930 . S
C505 C504 1.377 . S
C505 C506 1.379 . S
C506 H490 0.931 . S
C506 C500 1.383 . S
C506 C505 1.379 . S
H507 C501 0.959 . S
H508 C501 0.961 . S
H509 C501 0.960 . S
H510 C502 0.930 . S
H511 C503 0.929 . S
H512 C520 0.929 . S
H513 C522 0.930 . S
H514 C524 0.930 . S
H515 C527 0.929 . S
H516 C530 0.930 . S
H517 C532 0.960 . S
H518 C532 0.960 . S
H519 C532 0.960 . S
C520 H512 0.929 . S
C520 C521 1.377 . S
C520 C522 1.384 . S
C521 C520 1.377 . S
C521 C527 1.390 . S
C522 H513 0.930 . S
C522 C520 1.384 . S
C522 C523 1.372 . S
C523 C522 1.372 . S
C523 C524 1.400 . S
C523 C528 1.490 . S
C524 H514 0.930 . S
C524 C523 1.400 . S
C524 C527 1.386 . S
H525 C541 0.930 . S
H526 C542 0.931 . S
C527 H515 0.929 . S
C527 C521 1.390 . S
C527 C524 1.386 . S
C528 C523 1.490 . S
C528 C530 1.395 . S
C528 C531 1.403 . S
H529 C535 0.930 . S
C530 H516 0.930 . S
C530 C528 1.395 . S
C530 C533 1.403 . S
C531 C528 1.403 . S
C531 C532 1.524 . S
C531 C535 1.400 . S
C532 H517 0.960 . S
C532 H518 0.960 . S
C532 H519 0.960 . S
C532 C531 1.524 . S
C533 C530 1.403 . S
C533 C534 1.392 . S
C533 C537 1.495 . S
C534 C533 1.392 . S
C534 C535 1.385 . S
C534 C536 1.478 . S
C535 H529 0.930 . S
C535 C531 1.400 . S
C535 C534 1.385 . S
C536 C534 1.478 . S
C536 C538 1.381 . S
C536 C542 1.383 . S
C537 C533 1.495 . S
C537 H543 0.959 . S
C537 H544 0.961 . S
C537 H545 0.960 . S
C538 C536 1.381 . S
C538 C539 1.394 . S
C538 H546 0.930 . S
C539 C538 1.394 . S
C539 C540 1.383 . S
C539 H547 0.929 . S
C540 C539 1.383 . S
C540 C541 1.377 . S
C541 H525 0.930 . S
C541 C540 1.377 . S
C541 C542 1.379 . S
C542 H526 0.931 . S
C542 C536 1.383 . S
C542 C541 1.379 . S
H543 C537 0.959 . S
H544 C537 0.961 . S
H545 C537 0.960 . S
H546 C538 0.930 . S
H547 C539 0.929 . S
H548 C556 0.929 . S
H549 C558 0.930 . S
H550 C560 0.930 . S
H551 C563 0.929 . S
H552 C566 0.930 . S
H553 C568 0.960 . S
H554 C568 0.960 . S
H555 C568 0.960 . S
C556 H548 0.929 . S
C556 C557 1.377 . S
C556 C558 1.384 . S
C557 C556 1.377 . S
C557 C563 1.390 . S
C558 H549 0.930 . S
C558 C556 1.384 . S
C558 C559 1.372 . S
C559 C558 1.372 . S
C559 C560 1.400 . S
C559 C564 1.490 . S
C560 H550 0.930 . S
C560 C559 1.400 . S
C560 C563 1.386 . S
H561 C577 0.930 . S
H562 C578 0.931 . S
C563 H551 0.929 . S
C563 C557 1.390 . S
C563 C560 1.386 . S
C564 C559 1.490 . S
C564 C566 1.395 . S
C564 C567 1.403 . S
H565 C571 0.930 . S
C566 H552 0.930 . S
C566 C564 1.395 . S
C566 C569 1.403 . S
C567 C564 1.403 . S
C567 C568 1.524 . S
C567 C571 1.400 . S
C568 H553 0.960 . S
C568 H554 0.960 . S
C568 H555 0.960 . S
C568 C567 1.524 . S
C569 C566 1.403 . S
C569 C570 1.392 . S
C569 C573 1.495 . S
C570 C569 1.392 . S
C570 C571 1.385 . S
C570 C572 1.478 . S
C571 H565 0.930 . S
C571 C567 1.400 . S
C571 C570 1.385 . S
C572 C570 1.478 . S
C572 C574 1.381 . S
C572 C578 1.383 . S
C573 C569 1.495 . S
C573 H579 0.959 . S
C573 H580 0.961 . S
C573 H581 0.960 . S
C574 C572 1.381 . S
C574 C575 1.394 . S
C574 H582 0.930 . S
C575 C574 1.394 . S
C575 C576 1.383 . S
C575 H583 0.929 . S
C576 C575 1.383 . S
C576 C577 1.377 . S
C577 H561 0.930 . S
C577 C576 1.377 . S
C577 C578 1.379 . S
C578 H562 0.931 . S
C578 C572 1.383 . S
C578 C577 1.379 . S
H579 C573 0.959 . S
H580 C573 0.961 . S
H581 C573 0.960 . S
H582 C574 0.930 . S
H583 C575 0.929 . S
H584 C592 0.929 . S
H585 C594 0.930 . S
H586 C596 0.930 . S
H587 C599 0.929 . S
H588 C602 0.930 . S
H589 C604 0.960 . S
H590 C604 0.960 . S
H591 C604 0.960 . S
C592 H584 0.929 . S
C592 C593 1.377 . S
C592 C594 1.384 . S
C593 C592 1.377 . S
C593 C599 1.390 . S
C594 H585 0.930 . S
C594 C592 1.384 . S
C594 C595 1.372 . S
C595 C594 1.372 . S
C595 C596 1.400 . S
C595 C600 1.490 . S
C596 H586 0.930 . S
C596 C595 1.400 . S
C596 C599 1.386 . S
H597 C613 0.930 . S
H598 C614 0.931 . S
C599 H587 0.929 . S
C599 C593 1.390 . S
C599 C596 1.386 . S
C600 C595 1.490 . S
C600 C602 1.395 . S
C600 C603 1.403 . S
H601 C607 0.930 . S
C602 H588 0.930 . S
C602 C600 1.395 . S
C602 C605 1.403 1_455 S
C603 C600 1.403 . S
C603 C604 1.524 . S
C603 C607 1.400 1_455 S
C604 H589 0.960 . S
C604 H590 0.960 . S
C604 H591 0.960 . S
C604 C603 1.524 . S
C605 C602 1.403 1_655 S
C605 C606 1.392 . S
C605 C609 1.495 . S
C606 C605 1.392 . S
C606 C607 1.385 . S
C606 C608 1.478 . S
C607 H601 0.930 . S
C607 C603 1.400 1_655 S
C607 C606 1.385 . S
C608 C606 1.478 . S
C608 C610 1.381 . S
C608 C614 1.383 . S
C609 C605 1.495 . S
C609 H615 0.959 . S
C609 H616 0.961 . S
C609 H617 0.960 . S
C610 C608 1.381 . S
C610 C611 1.394 . S
C610 H618 0.930 . S
C611 C610 1.394 . S
C611 C612 1.383 . S
C611 H619 0.929 . S
C612 C611 1.383 . S
C612 C613 1.377 . S
C613 H597 0.930 . S
C613 C612 1.377 . S
C613 C614 1.379 . S
C614 H598 0.931 . S
C614 C608 1.383 . S
C614 C613 1.379 . S
H615 C609 0.959 . S
H616 C609 0.961 . S
H617 C609 0.960 . S
H618 C610 0.930 . S
H619 C611 0.929 . S
H620 C628 0.929 . S
H621 C630 0.930 . S
H622 C632 0.930 . S
H623 C635 0.929 . S
H624 C638 0.930 . S
H625 C640 0.960 . S
H626 C640 0.960 . S
H627 C640 0.960 . S
C628 H620 0.929 . S
C628 C629 1.377 . S
C628 C630 1.384 . S
C629 C628 1.377 . S
C629 C635 1.390 . S
C630 H621 0.930 . S
C630 C628 1.384 . S
C630 C631 1.372 . S
C631 C630 1.372 . S
C631 C632 1.400 . S
C631 C636 1.490 . S
C632 H622 0.930 . S
C632 C631 1.400 . S
C632 C635 1.386 . S
H633 C649 0.930 . S
H634 C650 0.931 . S
C635 H623 0.929 . S
C635 C629 1.390 . S
C635 C632 1.386 . S
C636 C631 1.490 . S
C636 C638 1.395 1_455 S
C636 C639 1.403 . S
H637 C643 0.930 . S
C638 H624 0.930 . S
C638 C636 1.395 1_655 S
C638 C641 1.403 . S
C639 C636 1.403 . S
C639 C640 1.524 . S
C639 C643 1.400 . S
C640 H625 0.960 . S
C640 H626 0.960 . S
C640 H627 0.960 . S
C640 C639 1.524 . S
C641 C638 1.403 . S
C641 C642 1.392 . S
C641 C645 1.495 . S
C642 C641 1.392 . S
C642 C643 1.385 1_655 S
C642 C644 1.478 . S
C643 H637 0.930 . S
C643 C639 1.400 . S
C643 C642 1.385 1_455 S
C644 C642 1.478 . S
C644 C646 1.381 . S
C644 C650 1.383 . S
C645 C641 1.495 . S
C645 H651 0.959 . S
C645 H652 0.961 . S
C645 H653 0.960 . S
C646 C644 1.381 . S
C646 C647 1.394 . S
C646 H654 0.930 . S
C647 C646 1.394 . S
C647 C648 1.383 . S
C647 H655 0.929 . S
C648 C647 1.383 . S
C648 C649 1.377 . S
C649 H633 0.930 . S
C649 C648 1.377 . S
C649 C650 1.379 . S
C650 H634 0.931 . S
C650 C644 1.383 . S
C650 C649 1.379 . S
H651 C645 0.959 . S
H652 C645 0.961 . S
H653 C645 0.960 . S
H654 C646 0.930 . S
H655 C647 0.929 . S
H656 C664 0.929 . S
H657 C666 0.930 1_565 S
H658 C668 0.930 . S
H659 C671 0.929 . S
H660 C674 0.929 . S
H661 C676 0.960 . S
H662 C676 0.960 . S
H663 C676 0.960 . S
C664 H656 0.929 . S
C664 C665 1.377 . S
C664 C666 1.384 . S
C665 C664 1.377 . S
C665 C671 1.390 . S
C666 H657 0.930 1_545 S
C666 C664 1.384 . S
C666 C667 1.372 . S
C667 C666 1.372 . S
C667 C668 1.400 . S
C667 C672 1.490 . S
C668 H658 0.930 . S
C668 C667 1.400 . S
C668 C671 1.386 . S
H669 C685 0.930 . S
H670 C686 0.931 1_545 S
C671 H659 0.929 . S
C671 C665 1.390 . S
C671 C668 1.386 . S
C672 C667 1.490 . S
C672 C674 1.397 1_545 S
C672 C675 1.403 . S
H673 C679 0.930 . S
C674 H660 0.929 . S
C674 C672 1.397 1_565 S
C674 C677 1.400 1_554 S
C675 C672 1.403 . S
C675 C676 1.524 . S
C675 C679 1.400 1_554 S
C676 H661 0.960 . S
C676 H662 0.960 . S
C676 H663 0.960 . S
C676 C675 1.524 . S
C677 C674 1.400 1_556 S
C677 C678 1.392 . S
C677 C681 1.495 . S
C678 C677 1.392 . S
C678 C679 1.385 1_565 S
C678 C680 1.478 . S
C679 H673 0.930 . S
C679 C675 1.400 1_556 S
C679 C678 1.385 1_545 S
C680 C678 1.478 . S
C680 C682 1.381 . S
C680 C686 1.383 . S
C681 C677 1.495 . S
C681 H687 0.959 . S
C681 H688 0.961 . S
C681 H689 0.960 . S
C682 C680 1.381 . S
C682 C683 1.394 . S
C682 H690 0.930 . S
C683 C682 1.394 . S
C683 C684 1.383 . S
C683 H691 0.929 . S
C684 C683 1.383 . S
C684 C685 1.377 . S
C685 H669 0.930 . S
C685 C684 1.377 . S
C685 C686 1.379 . S
C686 H670 0.931 1_565 S
C686 C680 1.383 . S
C686 C685 1.379 . S
H687 C681 0.959 . S
H688 C681 0.961 . S
H689 C681 0.960 . S
H690 C682 0.930 . S
H691 C683 0.929 . S
H692 C700 0.929 . S
H693 C702 0.930 . S
H694 C704 0.930 . S
H695 C707 0.929 . S
H696 C710 0.930 . S
H697 C712 0.960 . S
H698 C712 0.960 . S
H699 C712 0.960 . S
C700 H692 0.929 . S
C700 C701 1.377 . S
C700 C702 1.384 . S
C701 C700 1.377 . S
C701 C707 1.390 . S
C702 H693 0.930 . S
C702 C700 1.384 . S
C702 C703 1.372 . S
C703 C702 1.372 . S
C703 C704 1.400 . S
C703 C708 1.490 . S
C704 H694 0.930 . S
C704 C703 1.400 . S
C704 C707 1.386 . S
H705 C721 0.930 . S
H706 C722 0.931 . S
C707 H695 0.929 . S
C707 C701 1.390 . S
C707 C704 1.386 . S
C708 C703 1.490 . S
C708 C710 1.395 . S
C708 C711 1.403 . S
H709 C715 0.930 . S
C710 H696 0.930 . S
C710 C708 1.395 . S
C710 C713 1.403 . S
C711 C708 1.403 . S
C711 C712 1.524 . S
C711 C715 1.400 . S
C712 H697 0.960 . S
C712 H698 0.960 . S
C712 H699 0.960 . S
C712 C711 1.524 . S
C713 C710 1.403 . S
C713 C714 1.392 . S
C713 C717 1.495 . S
C714 C713 1.392 . S
C714 C715 1.385 . S
C714 C716 1.478 . S
C715 H709 0.930 . S
C715 C711 1.400 . S
C715 C714 1.385 . S
C716 C714 1.478 . S
C716 C718 1.381 . S
C716 C722 1.383 . S
C717 C713 1.495 . S
C717 H723 0.959 . S
C717 H724 0.961 . S
C717 H725 0.960 . S
C718 C716 1.381 . S
C718 C719 1.394 . S
C718 H726 0.930 . S
C719 C718 1.394 . S
C719 C720 1.383 . S
C719 H727 0.929 . S
C720 C719 1.383 . S
C720 C721 1.377 . S
C721 H705 0.930 . S
C721 C720 1.377 . S
C721 C722 1.379 . S
C722 H706 0.931 . S
C722 C716 1.383 . S
C722 C721 1.379 . S
H723 C717 0.959 . S
H724 C717 0.961 . S
H725 C717 0.960 . S
H726 C718 0.930 . S
H727 C719 0.929 . S
H728 C736 0.929 . S
H729 C738 0.930 1_545 S
H730 C740 0.930 . S
H731 C743 0.929 . S
H732 C746 0.930 . S
H733 C748 0.960 . S
H734 C748 0.960 . S
H735 C748 0.960 1_455 S
C736 H728 0.929 . S
C736 C737 1.377 . S
C736 C738 1.384 . S
C737 C736 1.377 . S
C737 C743 1.390 . S
C738 H729 0.930 1_565 S
C738 C736 1.384 . S
C738 C739 1.372 . S
C739 C738 1.372 . S
C739 C740 1.400 . S
C739 C744 1.490 . S
C740 H730 0.930 . S
C740 C739 1.400 . S
C740 C743 1.386 . S
H741 C757 0.930 . S
H742 C758 0.931 . S
C743 H731 0.929 . S
C743 C737 1.390 . S
C743 C740 1.386 . S
C744 C739 1.490 . S
C744 C746 1.395 1_565 S
C744 C747 1.403 1_455 S
H745 C751 0.930 . S
C746 H732 0.930 . S
C746 C744 1.395 1_545 S
C746 C749 1.403 . S
C747 C744 1.403 1_655 S
C747 C748 1.524 . S
C747 C751 1.400 . S
C748 H733 0.960 . S
C748 H734 0.960 . S
C748 H735 0.960 1_655 S
C748 C747 1.524 . S
C749 C746 1.403 . S
C749 C750 1.392 1_455 S
C749 C753 1.495 . S
C750 C749 1.392 1_655 S
C750 C751 1.385 1_545 S
C750 C752 1.478 . S
C751 H745 0.930 . S
C751 C747 1.400 . S
C751 C750 1.385 1_565 S
C752 C750 1.478 . S
C752 C754 1.381 . S
C752 C758 1.383 . S
C753 C749 1.495 . S
C753 H759 0.959 . S
C753 H760 0.961 . S
C753 H761 0.960 1_455 S
C754 C752 1.381 . S
C754 C755 1.394 . S
C754 H762 0.930 . S
C755 C754 1.394 . S
C755 C756 1.383 . S
C755 H763 0.929 . S
C756 C755 1.383 . S
C756 C757 1.377 . S
C757 H741 0.930 . S
C757 C756 1.377 . S
C757 C758 1.379 . S
C758 H742 0.931 . S
C758 C752 1.383 . S
C758 C757 1.379 . S
H759 C753 0.959 . S
H760 C753 0.961 . S
H761 C753 0.960 1_655 S
H762 C754 0.930 . S
H763 C755 0.929 . S
H764 C772 0.929 . S
H765 C774 0.930 . S
H766 C776 0.930 . S
H767 C779 0.929 . S
H768 C782 0.930 . S
H769 C784 0.960 . S
H770 C784 0.960 . S
H771 C784 0.960 . S
C772 H764 0.929 . S
C772 C773 1.377 . S
C772 C774 1.384 . S
C773 C772 1.377 . S
C773 C779 1.390 . S
C774 H765 0.930 . S
C774 C772 1.384 . S
C774 C775 1.372 . S
C775 C774 1.372 . S
C775 C776 1.400 . S
C775 C780 1.490 . S
C776 H766 0.930 . S
C776 C775 1.400 . S
C776 C779 1.386 . S
H777 C793 0.930 . S
H778 C794 0.931 . S
C779 H767 0.929 . S
C779 C773 1.390 . S
C779 C776 1.386 . S
C780 C775 1.490 . S
C780 C782 1.395 . S
C780 C783 1.403 . S
H781 C787 0.930 . S
C782 H768 0.930 . S
C782 C780 1.395 . S
C782 C785 1.403 . S
C783 C780 1.403 . S
C783 C784 1.524 . S
C783 C787 1.400 . S
C784 H769 0.960 . S
C784 H770 0.960 . S
C784 H771 0.960 . S
C784 C783 1.524 . S
C785 C782 1.403 . S
C785 C786 1.392 . S
C785 C789 1.495 . S
C786 C785 1.392 . S
C786 C787 1.385 . S
C786 C788 1.478 . S
C787 H781 0.930 . S
C787 C783 1.400 . S
C787 C786 1.385 . S
C788 C786 1.478 . S
C788 C790 1.381 . S
C788 C794 1.383 . S
C789 C785 1.495 . S
C789 H795 0.959 . S
C789 H796 0.961 . S
C789 H797 0.960 . S
C790 C788 1.381 . S
C790 C791 1.394 . S
C790 H798 0.930 . S
C791 C790 1.394 . S
C791 C792 1.383 . S
C791 H799 0.929 . S
C792 C791 1.383 . S
C792 C793 1.377 . S
C793 H777 0.930 . S
C793 C792 1.377 . S
C793 C794 1.379 . S
C794 H778 0.931 . S
C794 C788 1.383 . S
C794 C793 1.379 . S
H795 C789 0.959 . S
H796 C789 0.961 . S
H797 C789 0.960 . S
H798 C790 0.930 . S
H799 C791 0.929 . S
H800 C808 0.929 . S
H801 C810 0.930 . S
H802 C812 0.930 . S
H803 C815 0.929 . S
H804 C818 0.930 . S
H805 C820 0.960 . S
H806 C820 0.960 . S
H807 C820 0.960 . S
C808 H800 0.929 . S
C808 C809 1.377 . S
C808 C810 1.384 . S
C809 C808 1.377 . S
C809 C815 1.390 . S
C810 H801 0.930 . S
C810 C808 1.384 . S
C810 C811 1.372 . S
C811 C810 1.372 . S
C811 C812 1.400 . S
C811 C816 1.490 . S
C812 H802 0.930 . S
C812 C811 1.400 . S
C812 C815 1.386 . S
H813 C829 0.930 . S
H814 C830 0.931 . S
C815 H803 0.929 . S
C815 C809 1.390 . S
C815 C812 1.386 . S
C816 C811 1.490 . S
C816 C818 1.395 . S
C816 C819 1.403 . S
H817 C823 0.930 . S
C818 H804 0.930 . S
C818 C816 1.395 . S
C818 C821 1.403 . S
C819 C816 1.403 . S
C819 C820 1.524 . S
C819 C823 1.400 . S
C820 H805 0.960 . S
C820 H806 0.960 . S
C820 H807 0.960 . S
C820 C819 1.524 . S
C821 C818 1.403 . S
C821 C822 1.392 . S
C821 C825 1.495 . S
C822 C821 1.392 . S
C822 C823 1.385 . S
C822 C824 1.478 . S
C823 H817 0.930 . S
C823 C819 1.400 . S
C823 C822 1.385 . S
C824 C822 1.478 . S
C824 C826 1.381 . S
C824 C830 1.383 . S
C825 C821 1.495 . S
C825 H831 0.959 . S
C825 H832 0.961 . S
C825 H833 0.960 . S
C826 C824 1.381 . S
C826 C827 1.394 . S
C826 H834 0.930 . S
C827 C826 1.394 . S
C827 C828 1.383 . S
C827 H835 0.929 . S
C828 C827 1.383 . S
C828 C829 1.377 . S
C829 H813 0.930 . S
C829 C828 1.377 . S
C829 C830 1.379 . S
C830 H814 0.931 . S
C830 C824 1.383 . S
C830 C829 1.379 . S
H831 C825 0.959 . S
H832 C825 0.961 . S
H833 C825 0.960 . S
H834 C826 0.930 . S
H835 C827 0.929 . S
H836 C844 0.929 . S
H837 C846 0.930 . S
H838 C848 0.930 . S
H839 C851 0.929 . S
H840 C854 0.930 . S
H841 C856 0.960 . S
H842 C856 0.960 . S
H843 C856 0.960 . S
C844 H836 0.929 . S
C844 C845 1.377 . S
C844 C846 1.384 . S
C845 C844 1.377 . S
C845 C851 1.390 . S
C846 H837 0.930 . S
C846 C844 1.384 . S
C846 C847 1.372 . S
C847 C846 1.372 . S
C847 C848 1.400 . S
C847 C852 1.490 . S
C848 H838 0.930 . S
C848 C847 1.400 . S
C848 C851 1.386 . S
H849 C865 0.930 . S
H850 C866 0.931 . S
C851 H839 0.929 . S
C851 C845 1.390 . S
C851 C848 1.386 . S
C852 C847 1.490 . S
C852 C854 1.395 . S
C852 C855 1.403 . S
H853 C859 0.930 . S
C854 H840 0.930 . S
C854 C852 1.395 . S
C854 C857 1.403 . S
C855 C852 1.403 . S
C855 C856 1.524 . S
C855 C859 1.400 . S
C856 H841 0.960 . S
C856 H842 0.960 . S
C856 H843 0.960 . S
C856 C855 1.524 . S
C857 C854 1.403 . S
C857 C858 1.392 . S
C857 C861 1.495 . S
C858 C857 1.392 . S
C858 C859 1.385 . S
C858 C860 1.478 . S
C859 H853 0.930 . S
C859 C855 1.400 . S
C859 C858 1.385 . S
C860 C858 1.478 . S
C860 C862 1.381 . S
C860 C866 1.383 . S
C861 C857 1.495 . S
C861 H867 0.959 . S
C861 H868 0.961 . S
C861 H869 0.960 . S
C862 C860 1.381 . S
C862 C863 1.394 . S
C862 H870 0.930 . S
C863 C862 1.394 . S
C863 C864 1.383 . S
C863 H871 0.929 . S
C864 C863 1.383 . S
C864 C865 1.377 . S
C865 H849 0.930 . S
C865 C864 1.377 . S
C865 C866 1.379 . S
C866 H850 0.931 . S
C866 C860 1.383 . S
C866 C865 1.379 . S
H867 C861 0.959 . S
H868 C861 0.961 . S
H869 C861 0.960 . S
H870 C862 0.930 . S
H871 C863 0.929 . S
H872 C880 0.929 . S
H873 C882 0.930 . S
H874 C884 0.930 . S
H875 C887 0.929 . S
H876 C890 0.930 . S
H877 C892 0.960 . S
H878 C892 0.960 . S
H879 C892 0.960 . S
C880 H872 0.929 . S
C880 C881 1.377 . S
C880 C882 1.384 . S
C881 C880 1.377 . S
C881 C887 1.390 . S
C882 H873 0.930 . S
C882 C880 1.384 . S
C882 C883 1.372 . S
C883 C882 1.372 . S
C883 C884 1.400 . S
C883 C888 1.490 . S
C884 H874 0.930 . S
C884 C883 1.400 . S
C884 C887 1.386 . S
H885 C901 0.930 . S
H886 C902 0.931 . S
C887 H875 0.929 . S
C887 C881 1.390 . S
C887 C884 1.386 . S
C888 C883 1.490 . S
C888 C890 1.395 . S
C888 C891 1.403 1_455 S
H889 C895 0.930 . S
C890 H876 0.930 . S
C890 C888 1.395 . S
C890 C893 1.403 . S
C891 C888 1.403 1_655 S
C891 C892 1.524 . S
C891 C895 1.400 . S
C892 H877 0.960 . S
C892 H878 0.960 . S
C892 H879 0.960 . S
C892 C891 1.524 . S
C893 C890 1.403 . S
C893 C894 1.392 1_455 S
C893 C897 1.495 . S
C894 C893 1.392 1_655 S
C894 C895 1.385 . S
C894 C896 1.478 . S
C895 H889 0.930 . S
C895 C891 1.400 . S
C895 C894 1.385 . S
C896 C894 1.478 . S
C896 C898 1.381 . S
C896 C902 1.383 . S
C897 C893 1.495 . S
C897 H903 0.959 . S
C897 H904 0.961 . S
C897 H905 0.960 . S
C898 C896 1.381 . S
C898 C899 1.394 . S
C898 H906 0.930 . S
C899 C898 1.394 . S
C899 C900 1.383 . S
C899 H907 0.929 . S
C900 C899 1.383 . S
C900 C901 1.377 . S
C901 H885 0.930 . S
C901 C900 1.377 . S
C901 C902 1.379 . S
C902 H886 0.931 . S
C902 C896 1.383 . S
C902 C901 1.379 . S
H903 C897 0.959 . S
H904 C897 0.961 . S
H905 C897 0.960 . S
H906 C898 0.930 . S
H907 C899 0.929 . S
H908 C916 0.929 . S
H909 C918 0.930 . S
H910 C920 0.930 . S
H911 C923 0.929 . S
H912 C926 0.930 . S
H913 C928 0.960 . S
H914 C928 0.960 . S
H915 C928 0.960 . S
C916 H908 0.929 . S
C916 C917 1.377 . S
C916 C918 1.384 . S
C917 C916 1.377 . S
C917 C923 1.390 . S
C918 H909 0.930 . S
C918 C916 1.384 . S
C918 C919 1.372 . S
C919 C918 1.372 . S
C919 C920 1.400 . S
C919 C924 1.490 . S
C920 H910 0.930 . S
C920 C919 1.400 . S
C920 C923 1.386 . S
H921 C937 0.930 . S
H922 C938 0.931 . S
C923 H911 0.929 . S
C923 C917 1.390 . S
C923 C920 1.386 . S
C924 C919 1.490 . S
C924 C926 1.395 . S
C924 C927 1.403 1_554 S
H925 C931 0.930 . S
C926 H912 0.930 . S
C926 C924 1.395 . S
C926 C929 1.403 . S
C927 C924 1.403 1_556 S
C927 C928 1.524 . S
C927 C931 1.400 . S
C928 H913 0.960 . S
C928 H914 0.960 . S
C928 H915 0.960 . S
C928 C927 1.524 . S
C929 C926 1.403 . S
C929 C930 1.392 1_554 S
C929 C933 1.495 . S
C930 C929 1.392 1_556 S
C930 C931 1.385 . S
C930 C932 1.478 . S
C931 H925 0.930 . S
C931 C927 1.400 . S
C931 C930 1.385 . S
C932 C930 1.478 . S
C932 C934 1.381 . S
C932 C938 1.383 . S
C933 C929 1.495 . S
C933 H939 0.959 . S
C933 H940 0.961 . S
C933 H941 0.960 . S
C934 C932 1.381 . S
C934 C935 1.394 . S
C934 H942 0.930 . S
C935 C934 1.394 . S
C935 C936 1.383 . S
C935 H943 0.929 . S
C936 C935 1.383 . S
C936 C937 1.377 . S
C937 H921 0.930 . S
C937 C936 1.377 . S
C937 C938 1.379 . S
C938 H922 0.931 . S
C938 C932 1.383 . S
C938 C937 1.379 . S
H939 C933 0.959 . S
H940 C933 0.961 . S
H941 C933 0.960 . S
H942 C934 0.930 . S
H943 C935 0.929 . S
H944 C952 0.929 . S
H945 C954 0.930 . S
H946 C956 0.930 . S
H947 C959 0.929 . S
H948 C962 0.930 . S
H949 C964 0.960 . S
H950 C964 0.960 . S
H951 C964 0.960 . S
C952 H944 0.929 . S
C952 C953 1.377 . S
C952 C954 1.384 . S
C953 C952 1.377 . S
C953 C959 1.390 . S
C954 H945 0.930 . S
C954 C952 1.384 . S
C954 C955 1.372 . S
C955 C954 1.372 . S
C955 C956 1.400 . S
C955 C960 1.490 . S
C956 H946 0.930 . S
C956 C955 1.400 . S
C956 C959 1.386 . S
H957 C973 0.930 . S
H958 C974 0.931 . S
C959 H947 0.929 . S
C959 C953 1.390 . S
C959 C956 1.386 . S
C960 C955 1.490 . S
C960 C962 1.395 . S
C960 C963 1.403 . S
H961 C967 0.930 . S
C962 H948 0.930 . S
C962 C960 1.395 . S
C962 C965 1.403 . S
C963 C960 1.403 . S
C963 C964 1.524 . S
C963 C967 1.400 . S
C964 H949 0.960 . S
C964 H950 0.960 . S
C964 H951 0.960 . S
C964 C963 1.524 . S
C965 C962 1.403 . S
C965 C966 1.392 . S
C965 C969 1.495 . S
C966 C965 1.392 . S
C966 C967 1.385 . S
C966 C968 1.478 . S
C967 H961 0.930 . S
C967 C963 1.400 . S
C967 C966 1.385 . S
C968 C966 1.478 . S
C968 C970 1.381 . S
C968 C974 1.383 . S
C969 C965 1.495 . S
C969 H975 0.959 . S
C969 H976 0.961 . S
C969 H977 0.960 . S
C970 C968 1.381 . S
C970 C971 1.394 . S
C970 H978 0.930 . S
C971 C970 1.394 . S
C971 C972 1.383 . S
C971 H979 0.929 . S
C972 C971 1.383 . S
C972 C973 1.377 . S
C973 H957 0.930 . S
C973 C972 1.377 . S
C973 C974 1.379 . S
C974 H958 0.931 . S
C974 C968 1.383 . S
C974 C973 1.379 . S
H975 C969 0.959 . S
H976 C969 0.961 . S
H977 C969 0.960 . S
H978 C970 0.930 . S
H979 C971 0.929 . S
H980 C988 0.929 . S
H981 C990 0.930 . S
H982 C992 0.930 . S
H983 C995 0.929 . S
H984 C998 0.930 . S
H985 C1000 0.960 . S
H986 C1000 0.960 . S
H987 C1000 0.960 . S
C988 H980 0.929 . S
C988 C989 1.377 . S
C988 C990 1.384 . S
C989 C988 1.377 . S
C989 C995 1.390 . S
C990 H981 0.930 . S
C990 C988 1.384 . S
C990 C991 1.372 . S
C991 C990 1.372 . S
C991 C992 1.400 . S
C991 C996 1.490 . S
C992 H982 0.930 . S
C992 C991 1.400 . S
C992 C995 1.386 . S
H993 C1009 0.930 . S
H994 C1010 0.931 . S
C995 H983 0.929 . S
C995 C989 1.390 . S
C995 C992 1.386 . S
C996 C991 1.490 . S
C996 C998 1.395 . S
C996 C999 1.403 . S
H997 C1003 0.930 . S
C998 H984 0.930 . S
C998 C996 1.395 . S
C998 C1001 1.403 . S
C999 C996 1.403 . S
C999 C1000 1.524 . S
C999 C1003 1.400 . S
C1000 H985 0.960 . S
C1000 H986 0.960 . S
C1000 H987 0.960 . S
C1000 C999 1.524 . S
C1001 C998 1.403 . S
C1001 C1002 1.392 . S
C1001 C1005 1.495 . S
C1002 C1001 1.392 . S
C1002 C1003 1.385 . S
C1002 C1004 1.478 . S
C1003 H997 0.930 . S
C1003 C999 1.400 . S
C1003 C1002 1.385 . S
C1004 C1002 1.478 . S
C1004 C1006 1.381 . S
C1004 C1010 1.383 . S
C1005 C1001 1.495 . S
C1005 H1011 0.959 . S
C1005 H1012 0.961 . S
C1005 H1013 0.960 . S
C1006 C1004 1.381 . S
C1006 C1007 1.394 . S
C1006 H1014 0.930 . S
C1007 C1006 1.394 . S
C1007 C1008 1.383 . S
C1007 H1015 0.929 . S
C1008 C1007 1.383 . S
C1008 C1009 1.377 . S
C1009 H993 0.930 . S
C1009 C1008 1.377 . S
C1009 C1010 1.379 . S
C1010 H994 0.931 . S
C1010 C1004 1.383 . S
C1010 C1009 1.379 . S
H1011 C1005 0.959 . S
H1012 C1005 0.961 . S
H1013 C1005 0.960 . S
H1014 C1006 0.930 . S
H1015 C1007 0.929 . S
H1016 C1024 0.929 . S
H1017 C1026 0.930 . S
H1018 C1028 0.930 . S
H1019 C1031 0.929 . S
H1020 C1034 0.930 . S
H1021 C1036 0.960 . S
H1022 C1036 0.960 . S
H1023 C1036 0.960 . S
C1024 H1016 0.929 . S
C1024 C1025 1.377 . S
C1024 C1026 1.384 . S
C1025 C1024 1.377 . S
C1025 C1031 1.390 . S
C1026 H1017 0.930 . S
C1026 C1024 1.384 . S
C1026 C1027 1.372 . S
C1027 C1026 1.372 . S
C1027 C1028 1.400 . S
C1027 C1032 1.490 . S
C1028 H1018 0.930 . S
C1028 C1027 1.400 . S
C1028 C1031 1.386 . S
H1029 C1045 0.930 . S
H1030 C1046 0.931 . S
C1031 H1019 0.929 . S
C1031 C1025 1.390 . S
C1031 C1028 1.386 . S
C1032 C1027 1.490 . S
C1032 C1034 1.395 . S
C1032 C1035 1.403 . S
H1033 C1039 0.930 . S
C1034 H1020 0.930 . S
C1034 C1032 1.395 . S
C1034 C1037 1.403 . S
C1035 C1032 1.403 . S
C1035 C1036 1.524 . S
C1035 C1039 1.400 . S
C1036 H1021 0.960 . S
C1036 H1022 0.960 . S
C1036 H1023 0.960 . S
C1036 C1035 1.524 . S
C1037 C1034 1.403 . S
C1037 C1038 1.392 . S
C1037 C1041 1.495 . S
C1038 C1037 1.392 . S
C1038 C1039 1.385 . S
C1038 C1040 1.478 . S
C1039 H1033 0.930 . S
C1039 C1035 1.400 . S
C1039 C1038 1.385 . S
C1040 C1038 1.478 . S
C1040 C1042 1.381 . S
C1040 C1046 1.383 . S
C1041 C1037 1.495 . S
C1041 H1047 0.959 . S
C1041 H1048 0.961 . S
C1041 H1049 0.960 . S
C1042 C1040 1.381 . S
C1042 C1043 1.394 . S
C1042 H1050 0.930 . S
C1043 C1042 1.394 . S
C1043 C1044 1.383 . S
C1043 H1051 0.929 . S
C1044 C1043 1.383 . S
C1044 C1045 1.377 . S
C1045 H1029 0.930 . S
C1045 C1044 1.377 . S
C1045 C1046 1.379 . S
C1046 H1030 0.931 . S
C1046 C1040 1.383 . S
C1046 C1045 1.379 . S
H1047 C1041 0.959 . S
H1048 C1041 0.961 . S
H1049 C1041 0.960 . S
H1050 C1042 0.930 . S
H1051 C1043 0.929 . S
H1052 C1060 0.929 . S
H1053 C1062 0.930 . S
H1054 C1064 0.930 . S
H1055 C1067 0.929 . S
H1056 C1070 0.930 . S
H1057 C1072 0.960 . S
H1058 C1072 0.960 . S
H1059 C1072 0.960 . S
C1060 H1052 0.929 . S
C1060 C1061 1.377 . S
C1060 C1062 1.384 1_655 S
C1061 C1060 1.377 . S
C1061 C1067 1.390 1_655 S
C1062 H1053 0.930 . S
C1062 C1060 1.384 1_455 S
C1062 C1063 1.372 . S
C1063 C1062 1.372 . S
C1063 C1064 1.400 . S
C1063 C1068 1.490 . S
C1064 H1054 0.930 . S
C1064 C1063 1.400 . S
C1064 C1067 1.386 . S
H1065 C1081 0.930 . S
H1066 C1082 0.931 . S
C1067 H1055 0.929 . S
C1067 C1061 1.390 1_455 S
C1067 C1064 1.386 . S
C1068 C1063 1.490 . S
C1068 C1070 1.395 . S
C1068 C1071 1.403 . S
H1069 C1075 0.930 . S
C1070 H1056 0.930 . S
C1070 C1068 1.395 . S
C1070 C1073 1.403 . S
C1071 C1068 1.403 . S
C1071 C1072 1.524 . S
C1071 C1075 1.400 . S
C1072 H1057 0.960 . S
C1072 H1058 0.960 . S
C1072 H1059 0.960 . S
C1072 C1071 1.524 . S
C1073 C1070 1.403 . S
C1073 C1074 1.392 . S
C1073 C1077 1.495 . S
C1074 C1073 1.392 . S
C1074 C1075 1.385 . S
C1074 C1076 1.478 . S
C1075 H1069 0.930 . S
C1075 C1071 1.400 . S
C1075 C1074 1.385 . S
C1076 C1074 1.478 . S
C1076 C1078 1.381 . S
C1076 C1082 1.383 . S
C1077 C1073 1.495 . S
C1077 H1083 0.959 . S
C1077 H1084 0.961 . S
C1077 H1085 0.960 . S
C1078 C1076 1.381 . S
C1078 C1079 1.394 . S
C1078 H1086 0.930 . S
C1079 C1078 1.394 . S
C1079 C1080 1.383 . S
C1079 H1087 0.929 . S
C1080 C1079 1.383 . S
C1080 C1081 1.377 . S
C1081 H1065 0.930 . S
C1081 C1080 1.377 . S
C1081 C1082 1.379 . S
C1082 H1066 0.931 . S
C1082 C1076 1.383 . S
C1082 C1081 1.379 . S
H1083 C1077 0.959 . S
H1084 C1077 0.961 . S
H1085 C1077 0.960 . S
H1086 C1078 0.930 . S
H1087 C1079 0.929 . S
H1088 C1096 0.929 . S
H1089 C1098 0.930 . S
H1090 C1100 0.930 . S
H1091 C1103 0.929 . S
H1092 C1106 0.930 . S
H1093 C1108 0.960 . S
H1094 C1108 0.960 . S
H1095 C1108 0.960 . S
C1096 H1088 0.929 . S
C1096 C1097 1.377 . S
C1096 C1098 1.384 . S
C1097 C1096 1.377 . S
C1097 C1103 1.390 . S
C1098 H1089 0.930 . S
C1098 C1096 1.384 . S
C1098 C1099 1.372 . S
C1099 C1098 1.372 . S
C1099 C1100 1.400 . S
C1099 C1104 1.490 . S
C1100 H1090 0.930 . S
C1100 C1099 1.400 . S
C1100 C1103 1.386 . S
H1101 C1117 0.930 . S
H1102 C1118 0.931 . S
C1103 H1091 0.929 . S
C1103 C1097 1.390 . S
C1103 C1100 1.386 . S
C1104 C1099 1.490 . S
C1104 C1106 1.395 . S
C1104 C1107 1.403 . S
H1105 C1111 0.930 . S
C1106 H1092 0.930 . S
C1106 C1104 1.395 . S
C1106 C1109 1.403 . S
C1107 C1104 1.403 . S
C1107 C1108 1.524 . S
C1107 C1111 1.400 . S
C1108 H1093 0.960 . S
C1108 H1094 0.960 . S
C1108 H1095 0.960 . S
C1108 C1107 1.524 . S
C1109 C1106 1.403 . S
C1109 C1110 1.392 . S
C1109 C1113 1.495 . S
C1110 C1109 1.392 . S
C1110 C1111 1.385 . S
C1110 C1112 1.478 . S
C1111 H1105 0.930 . S
C1111 C1107 1.400 . S
C1111 C1110 1.385 . S
C1112 C1110 1.478 . S
C1112 C1114 1.381 . S
C1112 C1118 1.383 . S
C1113 C1109 1.495 . S
C1113 H1119 0.959 . S
C1113 H1120 0.961 . S
C1113 H1121 0.960 . S
C1114 C1112 1.381 . S
C1114 C1115 1.394 . S
C1114 H1122 0.930 . S
C1115 C1114 1.394 . S
C1115 C1116 1.383 . S
C1115 H1123 0.929 . S
C1116 C1115 1.383 . S
C1116 C1117 1.377 . S
C1117 H1101 0.930 . S
C1117 C1116 1.377 . S
C1117 C1118 1.379 . S
C1118 H1102 0.931 . S
C1118 C1112 1.383 . S
C1118 C1117 1.379 . S
H1119 C1113 0.959 . S
H1120 C1113 0.961 . S
H1121 C1113 0.960 . S
H1122 C1114 0.930 . S
H1123 C1115 0.929 . S
H1124 C1132 0.929 . S
H1125 C1134 0.930 . S
H1126 C1136 0.930 . S
H1127 C1139 0.929 . S
H1128 C1142 0.930 . S
H1129 C1144 0.960 . S
H1130 C1144 0.960 . S
H1131 C1144 0.960 . S
C1132 H1124 0.929 . S
C1132 C1133 1.377 . S
C1132 C1134 1.384 . S
C1133 C1132 1.377 . S
C1133 C1139 1.390 . S
C1134 H1125 0.930 . S
C1134 C1132 1.384 . S
C1134 C1135 1.372 . S
C1135 C1134 1.372 . S
C1135 C1136 1.400 . S
C1135 C1140 1.490 . S
C1136 H1126 0.930 . S
C1136 C1135 1.400 . S
C1136 C1139 1.386 . S
H1137 C1153 0.930 . S
H1138 C1154 0.931 . S
C1139 H1127 0.929 . S
C1139 C1133 1.390 . S
C1139 C1136 1.386 . S
C1140 C1135 1.490 . S
C1140 C1142 1.395 . S
C1140 C1143 1.403 . S
H1141 C1147 0.930 . S
C1142 H1128 0.930 . S
C1142 C1140 1.395 . S
C1142 C1145 1.403 . S
C1143 C1140 1.403 . S
C1143 C1144 1.524 . S
C1143 C1147 1.400 . S
C1144 H1129 0.960 . S
C1144 H1130 0.960 . S
C1144 H1131 0.960 . S
C1144 C1143 1.524 . S
C1145 C1142 1.403 . S
C1145 C1146 1.392 . S
C1145 C1149 1.495 . S
C1146 C1145 1.392 . S
C1146 C1147 1.385 . S
C1146 C1148 1.478 . S
C1147 H1141 0.930 . S
C1147 C1143 1.400 . S
C1147 C1146 1.385 . S
C1148 C1146 1.478 . S
C1148 C1150 1.381 . S
C1148 C1154 1.383 . S
C1149 C1145 1.495 . S
C1149 H1155 0.959 . S
C1149 H1156 0.961 . S
C1149 H1157 0.960 . S
C1150 C1148 1.381 . S
C1150 C1151 1.394 . S
C1150 H1158 0.930 . S
C1151 C1150 1.394 . S
C1151 C1152 1.383 . S
C1151 H1159 0.929 . S
C1152 C1151 1.383 . S
C1152 C1153 1.377 . S
C1153 H1137 0.930 . S
C1153 C1152 1.377 . S
C1153 C1154 1.379 . S
C1154 H1138 0.931 . S
C1154 C1148 1.383 . S
C1154 C1153 1.379 . S
H1155 C1149 0.959 . S
H1156 C1149 0.961 . S
H1157 C1149 0.960 . S
H1158 C1150 0.930 . S
H1159 C1151 0.929 . S
H1160 C1168 0.929 . S
H1161 C1170 0.930 . S
H1162 C1172 0.930 . S
H1163 C1175 0.929 . S
H1164 C1178 0.930 . S
H1165 C1180 0.960 . S
H1166 C1180 0.960 . S
H1167 C1180 0.960 . S
C1168 H1160 0.929 . S
C1168 C1169 1.377 . S
C1168 C1170 1.384 . S
C1169 C1168 1.377 . S
C1169 C1175 1.390 . S
C1170 H1161 0.930 . S
C1170 C1168 1.384 . S
C1170 C1171 1.372 . S
C1171 C1170 1.372 . S
C1171 C1172 1.400 . S
C1171 C1176 1.490 . S
C1172 H1162 0.930 . S
C1172 C1171 1.400 . S
C1172 C1175 1.386 . S
H1173 C1189 0.930 . S
H1174 C1190 0.931 . S
C1175 H1163 0.929 . S
C1175 C1169 1.390 . S
C1175 C1172 1.386 . S
C1176 C1171 1.490 . S
C1176 C1178 1.395 . S
C1176 C1179 1.403 . S
H1177 C1183 0.930 . S
C1178 H1164 0.930 . S
C1178 C1176 1.395 . S
C1178 C1181 1.403 . S
C1179 C1176 1.403 . S
C1179 C1180 1.524 . S
C1179 C1183 1.400 . S
C1180 H1165 0.960 . S
C1180 H1166 0.960 . S
C1180 H1167 0.960 . S
C1180 C1179 1.524 . S
C1181 C1178 1.403 . S
C1181 C1182 1.392 . S
C1181 C1185 1.495 . S
C1182 C1181 1.392 . S
C1182 C1183 1.385 . S
C1182 C1184 1.478 . S
C1183 H1177 0.930 . S
C1183 C1179 1.400 . S
C1183 C1182 1.385 . S
C1184 C1182 1.478 . S
C1184 C1186 1.381 . S
C1184 C1190 1.383 . S
C1185 C1181 1.495 . S
C1185 H1191 0.959 . S
C1185 H1192 0.961 . S
C1185 H1193 0.960 . S
C1186 C1184 1.381 . S
C1186 C1187 1.394 . S
C1186 H1194 0.930 . S
C1187 C1186 1.394 . S
C1187 C1188 1.383 . S
C1187 H1195 0.929 . S
C1188 C1187 1.383 . S
C1188 C1189 1.377 . S
C1189 H1173 0.930 . S
C1189 C1188 1.377 . S
C1189 C1190 1.379 . S
C1190 H1174 0.931 . S
C1190 C1184 1.383 . S
C1190 C1189 1.379 . S
H1191 C1185 0.959 . S
H1192 C1185 0.961 . S
H1193 C1185 0.960 . S
H1194 C1186 0.930 . S
H1195 C1187 0.929 . S
H1196 C1204 0.929 . S
H1197 C1206 0.930 . S
H1198 C1208 0.930 . S
H1199 C1211 0.929 . S
H1200 C1214 0.930 . S
H1201 C1216 0.960 . S
H1202 C1216 0.960 . S
H1203 C1216 0.960 . S
C1204 H1196 0.929 . S
C1204 C1205 1.377 . S
C1204 C1206 1.384 . S
C1205 C1204 1.377 . S
C1205 C1211 1.390 . S
C1206 H1197 0.930 . S
C1206 C1204 1.384 . S
C1206 C1207 1.372 . S
C1207 C1206 1.372 . S
C1207 C1208 1.400 . S
C1207 C1212 1.490 . S
C1208 H1198 0.930 . S
C1208 C1207 1.400 . S
C1208 C1211 1.386 . S
H1209 C1225 0.930 . S
H1210 C1226 0.931 . S
C1211 H1199 0.929 . S
C1211 C1205 1.390 . S
C1211 C1208 1.386 . S
C1212 C1207 1.490 . S
C1212 C1214 1.395 . S
C1212 C1215 1.403 . S
H1213 C1219 0.930 . S
C1214 H1200 0.930 . S
C1214 C1212 1.395 . S
C1214 C1217 1.403 . S
C1215 C1212 1.403 . S
C1215 C1216 1.524 . S
C1215 C1219 1.400 . S
C1216 H1201 0.960 . S
C1216 H1202 0.960 . S
C1216 H1203 0.960 . S
C1216 C1215 1.524 . S
C1217 C1214 1.403 . S
C1217 C1218 1.392 . S
C1217 C1221 1.495 . S
C1218 C1217 1.392 . S
C1218 C1219 1.385 . S
C1218 C1220 1.478 . S
C1219 H1213 0.930 . S
C1219 C1215 1.400 . S
C1219 C1218 1.385 . S
C1220 C1218 1.478 . S
C1220 C1222 1.381 . S
C1220 C1226 1.383 . S
C1221 C1217 1.495 . S
C1221 H1227 0.959 . S
C1221 H1228 0.961 . S
C1221 H1229 0.960 . S
C1222 C1220 1.381 . S
C1222 C1223 1.394 1_655 S
C1222 H1230 0.930 . S
C1223 C1222 1.394 1_455 S
C1223 C1224 1.383 . S
C1223 H1231 0.929 . S
C1224 C1223 1.383 . S
C1224 C1225 1.377 1_455 S
C1225 H1209 0.930 . S
C1225 C1224 1.377 1_655 S
C1225 C1226 1.379 . S
C1226 H1210 0.931 . S
C1226 C1220 1.383 . S
C1226 C1225 1.379 . S
H1227 C1221 0.959 . S
H1228 C1221 0.961 . S
H1229 C1221 0.960 . S
H1230 C1222 0.930 . S
H1231 C1223 0.929 . S
H1232 C1240 0.929 . S
H1233 C1242 0.930 . S
H1234 C1244 0.930 . S
H1235 C1247 0.929 . S
H1236 C1250 0.930 . S
H1237 C1252 0.960 . S
H1238 C1252 0.960 . S
H1239 C1252 0.960 . S
C1240 H1232 0.929 . S
C1240 C1241 1.377 . S
C1240 C1242 1.384 . S
C1241 C1240 1.377 . S
C1241 C1247 1.390 . S
C1242 H1233 0.930 . S
C1242 C1240 1.384 . S
C1242 C1243 1.372 . S
C1243 C1242 1.372 . S
C1243 C1244 1.400 . S
C1243 C1248 1.490 . S
C1244 H1234 0.930 . S
C1244 C1243 1.400 . S
C1244 C1247 1.386 . S
H1245 C1261 0.930 . S
H1246 C1262 0.931 . S
C1247 H1235 0.929 . S
C1247 C1241 1.390 . S
C1247 C1244 1.386 . S
C1248 C1243 1.490 . S
C1248 C1250 1.395 . S
C1248 C1251 1.403 . S
H1249 C1255 0.930 . S
C1250 H1236 0.930 . S
C1250 C1248 1.395 . S
C1250 C1253 1.403 . S
C1251 C1248 1.403 . S
C1251 C1252 1.524 . S
C1251 C1255 1.400 . S
C1252 H1237 0.960 . S
C1252 H1238 0.960 . S
C1252 H1239 0.960 . S
C1252 C1251 1.524 . S
C1253 C1250 1.403 . S
C1253 C1254 1.392 . S
C1253 C1257 1.495 . S
C1254 C1253 1.392 . S
C1254 C1255 1.385 . S
C1254 C1256 1.478 . S
C1255 H1249 0.930 . S
C1255 C1251 1.400 . S
C1255 C1254 1.385 . S
C1256 C1254 1.478 . S
C1256 C1258 1.381 . S
C1256 C1262 1.383 . S
C1257 C1253 1.495 . S
C1257 H1263 0.959 . S
C1257 H1264 0.961 . S
C1257 H1265 0.960 . S
C1258 C1256 1.381 . S
C1258 C1259 1.394 . S
C1258 H1266 0.930 . S
C1259 C1258 1.394 . S
C1259 C1260 1.383 . S
C1259 H1267 0.929 . S
C1260 C1259 1.383 . S
C1260 C1261 1.377 . S
C1261 H1245 0.930 . S
C1261 C1260 1.377 . S
C1261 C1262 1.379 . S
C1262 H1246 0.931 . S
C1262 C1256 1.383 . S
C1262 C1261 1.379 . S
H1263 C1257 0.959 . S
H1264 C1257 0.961 . S
H1265 C1257 0.960 . S
H1266 C1258 0.930 . S
H1267 C1259 0.929 . S
H1268 C1276 0.929 . S
H1269 C1278 0.930 . S
H1270 C1280 0.930 . S
H1271 C1283 0.929 . S
H1272 C1286 0.930 . S
H1273 C1288 0.960 1_545 S
H1274 C1288 0.960 1_545 S
H1275 C1288 0.960 . S
C1276 H1268 0.929 . S
C1276 C1277 1.377 . S
C1276 C1278 1.384 . S
C1277 C1276 1.377 . S
C1277 C1283 1.390 . S
C1278 H1269 0.930 . S
C1278 C1276 1.384 . S
C1278 C1279 1.372 . S
C1279 C1278 1.372 . S
C1279 C1280 1.400 . S
C1279 C1284 1.490 . S
C1280 H1270 0.930 . S
C1280 C1279 1.400 . S
C1280 C1283 1.386 . S
H1281 C1297 0.928 1_465 S
H1282 C1298 0.931 . S
C1283 H1271 0.929 . S
C1283 C1277 1.390 . S
C1283 C1280 1.386 . S
C1284 C1279 1.490 . S
C1284 C1286 1.395 . S
C1284 C1287 1.403 . S
H1285 C1291 0.930 1_545 S
C1286 H1272 0.930 . S
C1286 C1284 1.395 . S
C1286 C1289 1.403 . S
C1287 C1284 1.403 . S
C1287 C1288 1.524 . S
C1287 C1291 1.400 . S
C1288 H1273 0.960 1_565 S
C1288 H1274 0.960 1_565 S
C1288 H1275 0.960 . S
C1288 C1287 1.524 . S
C1289 C1286 1.403 . S
C1289 C1290 1.392 . S
C1289 C1293 1.495 . S
C1290 C1289 1.392 . S
C1290 C1291 1.385 . S
C1290 C1292 1.478 1_565 S
C1291 H1285 0.930 1_565 S
C1291 C1287 1.400 . S
C1291 C1290 1.385 . S
C1292 C1290 1.478 1_545 S
C1292 C1294 1.381 . S
C1292 C1298 1.383 1_545 S
C1293 C1289 1.495 . S
C1293 H1299 0.959 . S
C1293 H1300 0.961 . S
C1293 H1301 0.960 . S
C1294 C1292 1.381 . S
C1294 C1295 1.423 . S
C1294 H1302 0.930 . S
C1295 C1294 1.423 . S
C1295 C1296 1.368 1_655 S
C1295 H1303 0.916 1_655 S
C1296 C1295 1.368 1_455 S
C1296 C1297 1.375 1_455 S
C1297 H1281 0.928 1_645 S
C1297 C1296 1.375 1_655 S
C1297 C1298 1.382 1_545 S
C1298 H1282 0.931 . S
C1298 C1292 1.383 1_565 S
C1298 C1297 1.382 1_565 S
H1299 C1293 0.959 . S
H1300 C1293 0.961 . S
H1301 C1293 0.960 . S
H1302 C1294 0.930 . S
H1303 C1295 0.916 1_455 S
H1304 C1312 0.929 . S
H1305 C1314 0.930 . S
H1306 C1316 0.930 . S
H1307 C1319 0.929 . S
H1308 C1322 0.930 . S
H1309 C1324 0.960 . S
H1310 C1324 0.960 . S
H1311 C1324 0.960 . S
C1312 H1304 0.929 . S
C1312 C1313 1.377 . S
C1312 C1314 1.384 . S
C1313 C1312 1.377 . S
C1313 C1319 1.390 . S
C1314 H1305 0.930 . S
C1314 C1312 1.384 . S
C1314 C1315 1.372 . S
C1315 C1314 1.372 . S
C1315 C1316 1.400 . S
C1315 C1320 1.490 . S
C1316 H1306 0.930 . S
C1316 C1315 1.400 . S
C1316 C1319 1.386 . S
H1317 C1333 0.930 . S
H1318 C1334 0.931 . S
C1319 H1307 0.929 . S
C1319 C1313 1.390 . S
C1319 C1316 1.386 . S
C1320 C1315 1.490 . S
C1320 C1322 1.395 . S
C1320 C1323 1.403 . S
H1321 C1327 0.930 . S
C1322 H1308 0.930 . S
C1322 C1320 1.395 . S
C1322 C1325 1.403 . S
C1323 C1320 1.403 . S
C1323 C1324 1.524 . S
C1323 C1327 1.400 . S
C1324 H1309 0.960 . S
C1324 H1310 0.960 . S
C1324 H1311 0.960 . S
C1324 C1323 1.524 . S
C1325 C1322 1.403 . S
C1325 C1326 1.392 . S
C1325 C1329 1.495 . S
C1326 C1325 1.392 . S
C1326 C1327 1.385 . S
C1326 C1328 1.478 . S
C1327 H1321 0.930 . S
C1327 C1323 1.400 . S
C1327 C1326 1.385 . S
C1328 C1326 1.478 . S
C1328 C1330 1.381 . S
C1328 C1334 1.383 . S
C1329 C1325 1.495 . S
C1329 H1335 0.959 . S
C1329 H1336 0.961 . S
C1329 H1337 0.960 . S
C1330 C1328 1.381 . S
C1330 C1331 1.394 . S
C1330 H1338 0.930 . S
C1331 C1330 1.394 . S
C1331 C1332 1.383 . S
C1331 H1339 0.929 . S
C1332 C1331 1.383 . S
C1332 C1333 1.377 . S
C1333 H1317 0.930 . S
C1333 C1332 1.377 . S
C1333 C1334 1.379 . S
C1334 H1318 0.931 . S
C1334 C1328 1.383 . S
C1334 C1333 1.379 . S
H1335 C1329 0.959 . S
H1336 C1329 0.961 . S
H1337 C1329 0.960 . S
H1338 C1330 0.930 . S
H1339 C1331 0.929 . S
H1340 C1348 0.929 . S
H1341 C1350 0.930 . S
H1342 C1352 0.930 . S
H1343 C1355 0.929 . S
H1344 C1358 0.930 . S
H1345 C1360 0.960 . S
H1346 C1360 0.960 . S
H1347 C1360 0.960 . S
C1348 H1340 0.929 . S
C1348 C1349 1.377 . S
C1348 C1350 1.384 . S
C1349 C1348 1.377 . S
C1349 C1355 1.390 . S
C1350 H1341 0.930 . S
C1350 C1348 1.384 . S
C1350 C1351 1.372 . S
C1351 C1350 1.372 . S
C1351 C1352 1.400 . S
C1351 C1356 1.490 . S
C1352 H1342 0.930 . S
C1352 C1351 1.400 . S
C1352 C1355 1.386 . S
H1353 C1369 0.930 . S
H1354 C1370 0.931 1_545 S
C1355 H1343 0.929 . S
C1355 C1349 1.390 . S
C1355 C1352 1.386 . S
C1356 C1351 1.490 . S
C1356 C1358 1.395 . S
C1356 C1359 1.410 . S
H1357 C1363 0.930 . S
C1358 H1344 0.930 . S
C1358 C1356 1.395 . S
C1358 C1361 1.403 . S
C1359 C1356 1.410 . S
C1359 C1360 1.519 1_545 S
C1359 C1363 1.398 1_545 S
C1360 H1345 0.960 . S
C1360 H1346 0.960 . S
C1360 H1347 0.960 . S
C1360 C1359 1.519 1_565 S
C1361 C1358 1.403 . S
C1361 C1362 1.392 . S
C1361 C1365 1.495 . S
C1362 C1361 1.392 . S
C1362 C1363 1.385 1_545 S
C1362 C1364 1.478 1_545 S
C1363 H1357 0.930 . S
C1363 C1359 1.398 1_565 S
C1363 C1362 1.385 1_565 S
C1364 C1362 1.478 1_565 S
C1364 C1366 1.381 . S
C1364 C1370 1.383 . S
C1365 C1361 1.495 . S
C1365 H1371 0.959 . S
C1365 H1372 0.961 . S
C1365 H1373 0.960 . S
C1366 C1364 1.381 . S
C1366 C1367 1.394 . S
C1366 H1374 0.930 . S
C1367 C1366 1.394 . S
C1367 C1368 1.383 . S
C1367 H1375 0.929 . S
C1368 C1367 1.383 . S
C1368 C1369 1.377 . S
C1369 H1353 0.930 . S
C1369 C1368 1.377 . S
C1369 C1370 1.379 . S
C1370 H1354 0.931 1_565 S
C1370 C1364 1.383 . S
C1370 C1369 1.379 . S
H1371 C1365 0.959 . S
H1372 C1365 0.961 . S
H1373 C1365 0.960 . S
H1374 C1366 0.930 . S
H1375 C1367 0.929 . S
H1376 C1384 0.929 . S
H1377 C1386 0.930 . S
H1378 C1388 0.930 . S
H1379 C1391 0.929 . S
H1380 C1394 0.930 . S
H1381 C1396 0.960 . S
H1382 C1396 0.960 . S
H1383 C1396 0.960 . S
C1384 H1376 0.929 . S
C1384 C1385 1.377 . S
C1384 C1386 1.384 . S
C1385 C1384 1.377 . S
C1385 C1391 1.390 . S
C1386 H1377 0.930 . S
C1386 C1384 1.384 . S
C1386 C1387 1.372 . S
C1387 C1386 1.372 . S
C1387 C1388 1.400 . S
C1387 C1392 1.490 . S
C1388 H1378 0.930 . S
C1388 C1387 1.400 . S
C1388 C1391 1.386 . S
H1389 C1405 0.930 . S
H1390 C1406 0.931 . S
C1391 H1379 0.929 . S
C1391 C1385 1.390 . S
C1391 C1388 1.386 . S
C1392 C1387 1.490 . S
C1392 C1394 1.395 . S
C1392 C1395 1.403 . S
H1393 C1399 0.930 . S
C1394 H1380 0.930 . S
C1394 C1392 1.395 . S
C1394 C1397 1.403 . S
C1395 C1392 1.403 . S
C1395 C1396 1.524 . S
C1395 C1399 1.400 . S
C1396 H1381 0.960 . S
C1396 H1382 0.960 . S
C1396 H1383 0.960 . S
C1396 C1395 1.524 . S
C1397 C1394 1.403 . S
C1397 C1398 1.392 . S
C1397 C1401 1.495 . S
C1398 C1397 1.392 . S
C1398 C1399 1.385 . S
C1398 C1400 1.478 . S
C1399 H1393 0.930 . S
C1399 C1395 1.400 . S
C1399 C1398 1.385 . S
C1400 C1398 1.478 . S
C1400 C1402 1.381 . S
C1400 C1406 1.383 . S
C1401 C1397 1.495 . S
C1401 H1407 0.959 . S
C1401 H1408 0.961 . S
C1401 H1409 0.960 . S
C1402 C1400 1.381 . S
C1402 C1403 1.394 . S
C1402 H1410 0.930 . S
C1403 C1402 1.394 . S
C1403 C1404 1.383 . S
C1403 H1411 0.929 . S
C1404 C1403 1.383 . S
C1404 C1405 1.377 . S
C1405 H1389 0.930 . S
C1405 C1404 1.377 . S
C1405 C1406 1.379 . S
C1406 H1390 0.931 . S
C1406 C1400 1.383 . S
C1406 C1405 1.379 . S
H1407 C1401 0.959 . S
H1408 C1401 0.961 . S
H1409 C1401 0.960 . S
H1410 C1402 0.930 . S
H1411 C1403 0.929 . S
H1412 C1420 0.944 . S
H1413 C1422 0.930 . S
H1414 C1424 0.930 . S
H1415 C1427 0.929 . S
H1416 C1430 0.930 . S
H1417 C1432 0.960 . S
H1418 C1432 0.960 1_545 S
H1419 C1432 0.960 . S
C1420 H1412 0.944 . S
C1420 C1421 1.355 1_545 S
C1420 C1422 1.393 1_655 S
C1421 C1420 1.355 1_565 S
C1421 C1427 1.390 1_655 S
C1422 H1413 0.930 . S
C1422 C1420 1.393 1_455 S
C1422 C1423 1.372 1_545 S
C1423 C1422 1.372 1_565 S
C1423 C1424 1.400 . S
C1423 C1428 1.490 1_565 S
C1424 H1414 0.930 . S
C1424 C1423 1.400 . S
C1424 C1427 1.386 . S
H1425 C1441 0.930 . S
H1426 C1442 0.933 . S
C1427 H1415 0.929 . S
C1427 C1421 1.390 1_455 S
C1427 C1424 1.386 . S
C1428 C1423 1.490 1_545 S
C1428 C1430 1.395 . S
C1428 C1431 1.403 . S
H1429 C1435 0.930 . S
C1430 H1416 0.930 . S
C1430 C1428 1.395 . S
C1430 C1433 1.403 . S
C1431 C1428 1.403 . S
C1431 C1432 1.524 1_545 S
C1431 C1435 1.400 . S
C1432 H1417 0.960 . S
C1432 H1418 0.960 1_565 S
C1432 H1419 0.960 . S
C1432 C1431 1.524 1_565 S
C1433 C1430 1.403 . S
C1433 C1434 1.392 . S
C1433 C1437 1.495 . S
C1434 C1433 1.392 . S
C1434 C1435 1.385 . S
C1434 C1436 1.478 . S
C1435 H1429 0.930 . S
C1435 C1431 1.400 . S
C1435 C1434 1.385 . S
C1436 C1434 1.478 . S
C1436 C1438 1.381 . S
C1436 C1442 1.383 . S
C1437 C1433 1.495 . S
C1437 H1443 0.959 . S
C1437 H1444 0.961 . S
C1437 H1445 0.960 . S
C1438 C1436 1.381 . S
C1438 C1439 1.394 . S
C1438 H1446 0.930 . S
C1439 C1438 1.394 . S
C1439 C1440 1.383 . S
C1439 H1447 0.929 . S
C1440 C1439 1.383 . S
C1440 C1441 1.377 . S
C1441 H1425 0.930 . S
C1441 C1440 1.377 . S
C1441 C1442 1.379 . S
C1442 H1426 0.933 . S
C1442 C1436 1.383 . S
C1442 C1441 1.379 . S
H1443 C1437 0.959 . S
H1444 C1437 0.961 . S
H1445 C1437 0.960 . S
H1446 C1438 0.930 . S
H1447 C1439 0.929 . S
H1448 C1456 0.929 . S
H1449 C1458 0.930 . S
H1450 C1460 0.930 . S
H1451 C1463 0.929 . S
H1452 C1466 0.930 . S
H1453 C1468 0.960 . S
H1454 C1468 0.960 . S
H1455 C1468 0.960 . S
C1456 H1448 0.929 . S
C1456 C1457 1.377 . S
C1456 C1458 1.384 . S
C1457 C1456 1.377 . S
C1457 C1463 1.390 . S
C1458 H1449 0.930 . S
C1458 C1456 1.384 . S
C1458 C1459 1.372 . S
C1459 C1458 1.372 . S
C1459 C1460 1.400 . S
C1459 C1464 1.490 . S
C1460 H1450 0.930 . S
C1460 C1459 1.400 . S
C1460 C1463 1.386 . S
H1461 C1477 0.930 . S
H1462 C1478 0.931 . S
C1463 H1451 0.929 . S
C1463 C1457 1.390 . S
C1463 C1460 1.386 . S
C1464 C1459 1.490 . S
C1464 C1466 1.395 . S
C1464 C1467 1.403 . S
H1465 C1471 0.930 . S
C1466 H1452 0.930 . S
C1466 C1464 1.395 . S
C1466 C1469 1.403 . S
C1467 C1464 1.403 . S
C1467 C1468 1.524 . S
C1467 C1471 1.400 . S
C1468 H1453 0.960 . S
C1468 H1454 0.960 . S
C1468 H1455 0.960 . S
C1468 C1467 1.524 . S
C1469 C1466 1.403 . S
C1469 C1470 1.392 . S
C1469 C1473 1.495 . S
C1470 C1469 1.392 . S
C1470 C1471 1.385 . S
C1470 C1472 1.478 . S
C1471 H1465 0.930 . S
C1471 C1467 1.400 . S
C1471 C1470 1.385 . S
C1472 C1470 1.478 . S
C1472 C1474 1.381 . S
C1472 C1478 1.383 . S
C1473 C1469 1.495 . S
C1473 H1479 0.959 . S
C1473 H1480 0.961 . S
C1473 H1481 0.960 . S
C1474 C1472 1.381 . S
C1474 C1475 1.394 . S
C1474 H1482 0.930 . S
C1475 C1474 1.394 . S
C1475 C1476 1.383 . S
C1475 H1483 0.929 . S
C1476 C1475 1.383 . S
C1476 C1477 1.377 . S
C1477 H1461 0.930 . S
C1477 C1476 1.377 . S
C1477 C1478 1.379 . S
C1478 H1462 0.931 . S
C1478 C1472 1.383 . S
C1478 C1477 1.379 . S
H1479 C1473 0.959 . S
H1480 C1473 0.961 . S
H1481 C1473 0.960 . S
H1482 C1474 0.930 . S
H1483 C1475 0.929 . S
H1484 C1492 0.929 . S
H1485 C1494 0.930 . S
H1486 C1496 0.930 . S
H1487 C1499 0.929 . S
H1488 C1502 0.930 . S
H1489 C1504 0.960 . S
H1490 C1504 0.960 . S
H1491 C1504 0.960 . S
C1492 H1484 0.929 . S
C1492 C1493 1.377 . S
C1492 C1494 1.384 . S
C1493 C1492 1.377 . S
C1493 C1499 1.390 . S
C1494 H1485 0.930 . S
C1494 C1492 1.384 . S
C1494 C1495 1.372 . S
C1495 C1494 1.372 . S
C1495 C1496 1.400 . S
C1495 C1500 1.490 1_545 S
C1496 H1486 0.930 . S
C1496 C1495 1.400 . S
C1496 C1499 1.386 . S
H1497 C1513 0.930 . S
H1498 C1514 0.931 . S
C1499 H1487 0.929 . S
C1499 C1493 1.390 . S
C1499 C1496 1.386 . S
C1500 C1495 1.490 1_565 S
C1500 C1502 1.395 1_565 S
C1500 C1503 1.403 . S
H1501 C1507 0.930 . S
C1502 H1488 0.930 . S
C1502 C1500 1.395 1_545 S
C1502 C1505 1.403 . S
C1503 C1500 1.403 . S
C1503 C1504 1.524 . S
C1503 C1507 1.400 . S
C1504 H1489 0.960 . S
C1504 H1490 0.960 . S
C1504 H1491 0.960 . S
C1504 C1503 1.524 . S
C1505 C1502 1.403 . S
C1505 C1506 1.392 1_545 S
C1505 C1509 1.495 . S
C1506 C1505 1.392 1_565 S
C1506 C1507 1.385 . S
C1506 C1508 1.478 . S
C1507 H1501 0.930 . S
C1507 C1503 1.400 . S
C1507 C1506 1.385 . S
C1508 C1506 1.478 . S
C1508 C1510 1.381 . S
C1508 C1514 1.383 . S
C1509 C1505 1.495 . S
C1509 H1515 0.959 . S
C1509 H1516 0.961 . S
C1509 H1517 0.960 . S
C1510 C1508 1.381 . S
C1510 C1511 1.394 . S
C1510 H1518 0.930 . S
C1511 C1510 1.394 . S
C1511 C1512 1.383 . S
C1511 H1519 0.929 . S
C1512 C1511 1.383 . S
C1512 C1513 1.377 . S
C1513 H1497 0.930 . S
C1513 C1512 1.377 . S
C1513 C1514 1.379 . S
C1514 H1498 0.931 . S
C1514 C1508 1.383 . S
C1514 C1513 1.379 . S
H1515 C1509 0.959 . S
H1516 C1509 0.961 . S
H1517 C1509 0.960 . S
H1518 C1510 0.930 . S
H1519 C1511 0.929 . S
H1520 C1528 0.929 . S
H1521 C1530 0.930 . S
H1522 C1532 0.930 . S
H1523 C1535 0.929 . S
H1524 C1538 0.930 . S
H1525 C1540 0.960 . S
H1526 C1540 0.960 . S
H1527 C1540 0.960 . S
C1528 H1520 0.929 . S
C1528 C1529 1.377 . S
C1528 C1530 1.384 . S
C1529 C1528 1.377 . S
C1529 C1535 1.390 . S
C1530 H1521 0.930 . S
C1530 C1528 1.384 . S
C1530 C1531 1.372 1_554 S
C1531 C1530 1.372 1_556 S
C1531 C1532 1.400 . S
C1531 C1536 1.490 . S
C1532 H1522 0.930 . S
C1532 C1531 1.400 . S
C1532 C1535 1.386 1_556 S
H1533 C1549 0.930 . S
H1534 C1550 0.931 . S
C1535 H1523 0.929 . S
C1535 C1529 1.390 . S
C1535 C1532 1.386 1_554 S
C1536 C1531 1.490 . S
C1536 C1538 1.395 . S
C1536 C1539 1.403 . S
H1537 C1543 0.930 . S
C1538 H1524 0.930 . S
C1538 C1536 1.395 . S
C1538 C1541 1.403 . S
C1539 C1536 1.403 . S
C1539 C1540 1.524 . S
C1539 C1543 1.400 . S
C1540 H1525 0.960 . S
C1540 H1526 0.960 . S
C1540 H1527 0.960 . S
C1540 C1539 1.524 . S
C1541 C1538 1.403 . S
C1541 C1542 1.392 . S
C1541 C1545 1.495 . S
C1542 C1541 1.392 . S
C1542 C1543 1.385 . S
C1542 C1544 1.478 . S
C1543 H1537 0.930 . S
C1543 C1539 1.400 . S
C1543 C1542 1.385 . S
C1544 C1542 1.478 . S
C1544 C1546 1.381 . S
C1544 C1550 1.383 . S
C1545 C1541 1.495 . S
C1545 H1551 0.959 . S
C1545 H1552 0.961 . S
C1545 H1553 0.960 . S
C1546 C1544 1.381 . S
C1546 C1547 1.394 . S
C1546 H1554 0.930 . S
C1547 C1546 1.394 . S
C1547 C1548 1.383 . S
C1547 H1555 0.929 . S
C1548 C1547 1.383 . S
C1548 C1549 1.377 . S
C1549 H1533 0.930 . S
C1549 C1548 1.377 . S
C1549 C1550 1.379 . S
C1550 H1534 0.931 . S
C1550 C1544 1.383 . S
C1550 C1549 1.379 . S
H1551 C1545 0.959 . S
H1552 C1545 0.961 . S
H1553 C1545 0.960 . S
H1554 C1546 0.930 . S
H1555 C1547 0.929 . S
H1556 C1564 0.929 . S
H1557 C1566 0.930 . S
H1558 C1568 0.930 . S
H1559 C1571 0.929 . S
H1560 C1574 0.930 . S
H1561 C1576 0.960 . S
H1562 C1576 0.960 . S
H1563 C1576 0.960 . S
C1564 H1556 0.929 . S
C1564 C1565 1.377 . S
C1564 C1566 1.384 . S
C1565 C1564 1.377 . S
C1565 C1571 1.390 . S
C1566 H1557 0.930 . S
C1566 C1564 1.384 . S
C1566 C1567 1.372 . S
C1567 C1566 1.372 . S
C1567 C1568 1.400 . S
C1567 C1572 1.490 . S
C1568 H1558 0.930 . S
C1568 C1567 1.400 . S
C1568 C1571 1.386 . S
H1569 C1585 0.930 . S
H1570 C1586 0.931 . S
C1571 H1559 0.929 . S
C1571 C1565 1.390 . S
C1571 C1568 1.386 . S
C1572 C1567 1.490 . S
C1572 C1574 1.395 . S
C1572 C1575 1.403 . S
H1573 C1579 0.930 . S
C1574 H1560 0.930 . S
C1574 C1572 1.395 . S
C1574 C1577 1.403 . S
C1575 C1572 1.403 . S
C1575 C1576 1.524 . S
C1575 C1579 1.400 . S
C1576 H1561 0.960 . S
C1576 H1562 0.960 . S
C1576 H1563 0.960 . S
C1576 C1575 1.524 . S
C1577 C1574 1.403 . S
C1577 C1578 1.392 . S
C1577 C1581 1.495 . S
C1578 C1577 1.392 . S
C1578 C1579 1.385 . S
C1578 C1580 1.478 . S
C1579 H1573 0.930 . S
C1579 C1575 1.400 . S
C1579 C1578 1.385 . S
C1580 C1578 1.478 . S
C1580 C1582 1.381 . S
C1580 C1586 1.383 . S
C1581 C1577 1.495 . S
C1581 H1587 0.959 . S
C1581 H1588 0.961 . S
C1581 H1589 0.960 . S
C1582 C1580 1.381 . S
C1582 C1583 1.394 . S
C1582 H1590 0.930 . S
C1583 C1582 1.394 . S
C1583 C1584 1.383 . S
C1583 H1591 0.929 . S
C1584 C1583 1.383 . S
C1584 C1585 1.377 . S
C1585 H1569 0.930 . S
C1585 C1584 1.377 . S
C1585 C1586 1.379 . S
C1586 H1570 0.931 . S
C1586 C1580 1.383 . S
C1586 C1585 1.379 . S
H1587 C1581 0.959 . S
H1588 C1581 0.961 . S
H1589 C1581 0.960 . S
H1590 C1582 0.930 . S
H1591 C1583 0.929 . S
H1592 C1600 0.929 . S
H1593 C1602 0.930 . S
H1594 C1604 0.930 . S
H1595 C1607 0.929 . S
H1596 C1610 0.930 . S
H1597 C1612 0.960 . S
H1598 C1612 0.960 . S
H1599 C1612 0.960 . S
C1600 H1592 0.929 . S
C1600 C1601 1.377 . S
C1600 C1602 1.384 . S
C1601 C1600 1.377 . S
C1601 C1607 1.390 . S
C1602 H1593 0.930 . S
C1602 C1600 1.384 . S
C1602 C1603 1.372 . S
C1603 C1602 1.372 . S
C1603 C1604 1.400 . S
C1603 C1608 1.490 . S
C1604 H1594 0.930 . S
C1604 C1603 1.400 . S
C1604 C1607 1.386 . S
H1605 C1621 0.930 . S
H1606 C1622 0.931 . S
C1607 H1595 0.929 . S
C1607 C1601 1.390 . S
C1607 C1604 1.386 . S
C1608 C1603 1.490 . S
C1608 C1610 1.395 . S
C1608 C1611 1.403 . S
H1609 C1615 0.930 . S
C1610 H1596 0.930 . S
C1610 C1608 1.395 . S
C1610 C1613 1.403 . S
C1611 C1608 1.403 . S
C1611 C1612 1.524 . S
C1611 C1615 1.400 . S
C1612 H1597 0.960 . S
C1612 H1598 0.960 . S
C1612 H1599 0.960 . S
C1612 C1611 1.524 . S
C1613 C1610 1.403 . S
C1613 C1614 1.392 . S
C1613 C1617 1.495 . S
C1614 C1613 1.392 . S
C1614 C1615 1.385 . S
C1614 C1616 1.478 . S
C1615 H1609 0.930 . S
C1615 C1611 1.400 . S
C1615 C1614 1.385 . S
C1616 C1614 1.478 . S
C1616 C1618 1.381 . S
C1616 C1622 1.383 . S
C1617 C1613 1.495 . S
C1617 H1623 0.959 . S
C1617 H1624 0.961 . S
C1617 H1625 0.960 . S
C1618 C1616 1.381 . S
C1618 C1619 1.394 . S
C1618 H1626 0.930 . S
C1619 C1618 1.394 . S
C1619 C1620 1.383 . S
C1619 H1627 0.929 . S
C1620 C1619 1.383 . S
C1620 C1621 1.377 . S
C1621 H1605 0.930 . S
C1621 C1620 1.377 . S
C1621 C1622 1.379 . S
C1622 H1606 0.931 . S
C1622 C1616 1.383 . S
C1622 C1621 1.379 . S
H1623 C1617 0.959 . S
H1624 C1617 0.961 . S
H1625 C1617 0.960 . S
H1626 C1618 0.930 . S
H1627 C1619 0.929 . S
H1628 C1636 0.929 . S
H1629 C1638 0.930 . S
H1630 C1640 0.930 . S
H1631 C1643 0.929 . S
H1632 C1646 0.930 . S
H1633 C1648 0.960 . S
H1634 C1648 0.960 . S
H1635 C1648 0.960 . S
C1636 H1628 0.929 . S
C1636 C1637 1.377 . S
C1636 C1638 1.384 . S
C1637 C1636 1.377 . S
C1637 C1643 1.390 . S
C1638 H1629 0.930 . S
C1638 C1636 1.384 . S
C1638 C1639 1.372 . S
C1639 C1638 1.372 . S
C1639 C1640 1.400 . S
C1639 C1644 1.490 . S
C1640 H1630 0.930 . S
C1640 C1639 1.400 . S
C1640 C1643 1.386 . S
H1641 C1657 0.930 . S
H1642 C1658 0.931 . S
C1643 H1631 0.929 . S
C1643 C1637 1.390 . S
C1643 C1640 1.386 . S
C1644 C1639 1.490 . S
C1644 C1646 1.395 . S
C1644 C1647 1.403 . S
H1645 C1651 0.930 . S
C1646 H1632 0.930 . S
C1646 C1644 1.395 . S
C1646 C1649 1.403 . S
C1647 C1644 1.403 . S
C1647 C1648 1.524 . S
C1647 C1651 1.400 . S
C1648 H1633 0.960 . S
C1648 H1634 0.960 . S
C1648 H1635 0.960 . S
C1648 C1647 1.524 . S
C1649 C1646 1.403 . S
C1649 C1650 1.392 . S
C1649 C1653 1.495 . S
C1650 C1649 1.392 . S
C1650 C1651 1.385 . S
C1650 C1652 1.478 . S
C1651 H1645 0.930 . S
C1651 C1647 1.400 . S
C1651 C1650 1.385 . S
C1652 C1650 1.478 . S
C1652 C1654 1.381 . S
C1652 C1658 1.383 . S
C1653 C1649 1.495 . S
C1653 H1659 0.959 . S
C1653 H1660 0.961 . S
C1653 H1661 0.960 . S
C1654 C1652 1.381 . S
C1654 C1655 1.394 . S
C1654 H1662 0.930 . S
C1655 C1654 1.394 . S
C1655 C1656 1.383 . S
C1655 H1663 0.929 . S
C1656 C1655 1.383 . S
C1656 C1657 1.377 . S
C1657 H1641 0.930 . S
C1657 C1656 1.377 . S
C1657 C1658 1.379 . S
C1658 H1642 0.931 . S
C1658 C1652 1.383 . S
C1658 C1657 1.379 . S
H1659 C1653 0.959 . S
H1660 C1653 0.961 . S
H1661 C1653 0.960 . S
H1662 C1654 0.930 . S
H1663 C1655 0.929 . S
H1664 C1672 0.929 . S
H1665 C1674 0.930 . S
H1666 C1676 0.930 . S
H1667 C1679 0.929 . S
H1668 C1682 0.930 . S
H1669 C1684 0.960 . S
H1670 C1684 0.960 . S
H1671 C1684 0.960 . S
C1672 H1664 0.929 . S
C1672 C1673 1.377 . S
C1672 C1674 1.384 . S
C1673 C1672 1.377 . S
C1673 C1679 1.390 . S
C1674 H1665 0.930 . S
C1674 C1672 1.384 . S
C1674 C1675 1.372 . S
C1675 C1674 1.372 . S
C1675 C1676 1.400 . S
C1675 C1680 1.490 . S
C1676 H1666 0.930 . S
C1676 C1675 1.400 . S
C1676 C1679 1.386 . S
H1677 C1693 0.930 . S
H1678 C1694 0.931 1_554 S
C1679 H1667 0.929 . S
C1679 C1673 1.390 . S
C1679 C1676 1.386 . S
C1680 C1675 1.490 . S
C1680 C1682 1.395 . S
C1680 C1683 1.403 . S
H1681 C1687 0.930 . S
C1682 H1668 0.930 . S
C1682 C1680 1.395 . S
C1682 C1685 1.403 . S
C1683 C1680 1.403 . S
C1683 C1684 1.524 . S
C1683 C1687 1.400 . S
C1684 H1669 0.960 . S
C1684 H1670 0.960 . S
C1684 H1671 0.960 . S
C1684 C1683 1.524 . S
C1685 C1682 1.403 . S
C1685 C1686 1.392 . S
C1685 C1689 1.495 . S
C1686 C1685 1.392 . S
C1686 C1687 1.385 . S
C1686 C1688 1.478 . S
C1687 H1681 0.930 . S
C1687 C1683 1.400 . S
C1687 C1686 1.385 . S
C1688 C1686 1.478 . S
C1688 C1690 1.381 1_554 S
C1688 C1694 1.383 1_554 S
C1689 C1685 1.495 . S
C1689 H1695 0.959 . S
C1689 H1696 0.961 . S
C1689 H1697 0.960 . S
C1690 C1688 1.381 1_556 S
C1690 C1691 1.394 . S
C1690 H1698 0.930 1_556 S
C1691 C1690 1.394 . S
C1691 C1692 1.383 . S
C1691 H1699 0.929 . S
C1692 C1691 1.383 . S
C1692 C1693 1.377 . S
C1693 H1677 0.930 . S
C1693 C1692 1.377 . S
C1693 C1694 1.379 . S
C1694 H1678 0.931 1_556 S
C1694 C1688 1.383 1_556 S
C1694 C1693 1.379 . S
H1695 C1689 0.959 . S
H1696 C1689 0.961 . S
H1697 C1689 0.960 . S
H1698 C1690 0.930 1_554 S
H1699 C1691 0.929 . S
H1700 C1708 0.929 . S
H1701 C1710 0.930 . S
H1702 C1712 0.930 . S
H1703 C1715 0.929 . S
H1704 C1718 0.930 . S
H1705 C1720 0.960 . S
H1706 C1720 0.960 . S
H1707 C1720 0.960 . S
C1708 H1700 0.929 . S
C1708 C1709 1.377 . S
C1708 C1710 1.384 . S
C1709 C1708 1.377 . S
C1709 C1715 1.390 . S
C1710 H1701 0.930 . S
C1710 C1708 1.384 . S
C1710 C1711 1.372 . S
C1711 C1710 1.372 . S
C1711 C1712 1.400 . S
C1711 C1716 1.490 . S
C1712 H1702 0.930 . S
C1712 C1711 1.400 . S
C1712 C1715 1.386 . S
H1713 C1729 0.930 . S
H1714 C1730 0.931 . S
C1715 H1703 0.929 . S
C1715 C1709 1.390 . S
C1715 C1712 1.386 . S
C1716 C1711 1.490 . S
C1716 C1718 1.395 . S
C1716 C1719 1.403 . S
H1717 C1723 0.930 . S
C1718 H1704 0.930 . S
C1718 C1716 1.395 . S
C1718 C1721 1.403 . S
C1719 C1716 1.403 . S
C1719 C1720 1.524 . S
C1719 C1723 1.400 . S
C1720 H1705 0.960 . S
C1720 H1706 0.960 . S
C1720 H1707 0.960 . S
C1720 C1719 1.524 . S
C1721 C1718 1.403 . S
C1721 C1722 1.392 . S
C1721 C1725 1.495 . S
C1722 C1721 1.392 . S
C1722 C1723 1.385 . S
C1722 C1724 1.478 . S
C1723 H1717 0.930 . S
C1723 C1719 1.400 . S
C1723 C1722 1.385 . S
C1724 C1722 1.478 . S
C1724 C1726 1.381 . S
C1724 C1730 1.383 . S
C1725 C1721 1.495 . S
C1725 H1731 0.959 . S
C1725 H1732 0.961 . S
C1725 H1733 0.960 . S
C1726 C1724 1.381 . S
C1726 C1727 1.394 . S
C1726 H1734 0.930 . S
C1727 C1726 1.394 . S
C1727 C1728 1.383 . S
C1727 H1735 0.929 . S
C1728 C1727 1.383 . S
C1728 C1729 1.377 . S
C1729 H1713 0.930 . S
C1729 C1728 1.377 . S
C1729 C1730 1.379 . S
C1730 H1714 0.931 . S
C1730 C1724 1.383 . S
C1730 C1729 1.379 . S
H1731 C1725 0.959 . S
H1732 C1725 0.961 . S
H1733 C1725 0.960 . S
H1734 C1726 0.930 . S
H1735 C1727 0.929 . S
H1736 C1744 0.929 . S
H1737 C1746 0.930 . S
H1738 C1748 0.930 . S
H1739 C1751 0.929 . S
H1740 C1754 0.930 . S
H1741 C1756 0.960 . S
H1742 C1756 0.960 . S
H1743 C1756 0.960 . S
C1744 H1736 0.929 . S
C1744 C1745 1.377 . S
C1744 C1746 1.384 . S
C1745 C1744 1.377 . S
C1745 C1751 1.390 . S
C1746 H1737 0.930 . S
C1746 C1744 1.384 . S
C1746 C1747 1.372 . S
C1747 C1746 1.372 . S
C1747 C1748 1.400 . S
C1747 C1752 1.490 . S
C1748 H1738 0.930 . S
C1748 C1747 1.400 . S
C1748 C1751 1.386 . S
H1749 C1765 0.930 . S
H1750 C1766 0.931 . S
C1751 H1739 0.929 . S
C1751 C1745 1.390 . S
C1751 C1748 1.386 . S
C1752 C1747 1.490 . S
C1752 C1754 1.395 . S
C1752 C1755 1.403 . S
H1753 C1759 0.930 . S
C1754 H1740 0.930 . S
C1754 C1752 1.395 . S
C1754 C1757 1.403 . S
C1755 C1752 1.403 . S
C1755 C1756 1.524 . S
C1755 C1759 1.400 . S
C1756 H1741 0.960 . S
C1756 H1742 0.960 . S
C1756 H1743 0.960 . S
C1756 C1755 1.524 . S
C1757 C1754 1.403 . S
C1757 C1758 1.392 . S
C1757 C1761 1.495 . S
C1758 C1757 1.392 . S
C1758 C1759 1.385 . S
C1758 C1760 1.478 . S
C1759 H1753 0.930 . S
C1759 C1755 1.400 . S
C1759 C1758 1.385 . S
C1760 C1758 1.478 . S
C1760 C1762 1.381 . S
C1760 C1766 1.383 . S
C1761 C1757 1.495 . S
C1761 H1767 0.959 . S
C1761 H1768 0.961 . S
C1761 H1769 0.960 . S
C1762 C1760 1.381 . S
C1762 C1763 1.394 . S
C1762 H1770 0.930 . S
C1763 C1762 1.394 . S
C1763 C1764 1.383 . S
C1763 H1771 0.929 . S
C1764 C1763 1.383 . S
C1764 C1765 1.377 . S
C1765 H1749 0.930 . S
C1765 C1764 1.377 . S
C1765 C1766 1.379 . S
C1766 H1750 0.931 . S
C1766 C1760 1.383 . S
C1766 C1765 1.379 . S
H1767 C1761 0.959 . S
H1768 C1761 0.961 . S
H1769 C1761 0.960 . S
H1770 C1762 0.930 . S
H1771 C1763 0.929 . S
H1772 C1780 0.929 . S
H1773 C1782 0.930 . S
H1774 C1784 0.930 . S
H1775 C1787 0.929 . S
H1776 C1790 0.930 . S
H1777 C1792 0.960 . S
H1778 C1792 0.960 . S
H1779 C1792 0.960 . S
C1780 H1772 0.929 . S
C1780 C1781 1.377 . S
C1780 C1782 1.384 . S
C1781 C1780 1.377 . S
C1781 C1787 1.390 . S
C1782 H1773 0.930 . S
C1782 C1780 1.384 . S
C1782 C1783 1.372 . S
C1783 C1782 1.372 . S
C1783 C1784 1.400 . S
C1783 C1788 1.490 . S
C1784 H1774 0.930 . S
C1784 C1783 1.400 . S
C1784 C1787 1.386 . S
H1785 C1801 0.930 . S
H1786 C1802 0.931 . S
C1787 H1775 0.929 . S
C1787 C1781 1.390 . S
C1787 C1784 1.386 . S
C1788 C1783 1.490 . S
C1788 C1790 1.395 . S
C1788 C1791 1.403 . S
H1789 C1795 0.930 . S
C1790 H1776 0.930 . S
C1790 C1788 1.395 . S
C1790 C1793 1.403 . S
C1791 C1788 1.403 . S
C1791 C1792 1.524 . S
C1791 C1795 1.400 . S
C1792 H1777 0.960 . S
C1792 H1778 0.960 . S
C1792 H1779 0.960 . S
C1792 C1791 1.524 . S
C1793 C1790 1.403 . S
C1793 C1794 1.392 . S
C1793 C1797 1.495 . S
C1794 C1793 1.392 . S
C1794 C1795 1.385 . S
C1794 C1796 1.478 . S
C1795 H1789 0.930 . S
C1795 C1791 1.400 . S
C1795 C1794 1.385 . S
C1796 C1794 1.478 . S
C1796 C1798 1.381 . S
C1796 C1802 1.383 . S
C1797 C1793 1.495 . S
C1797 H1803 0.959 . S
C1797 H1804 0.961 . S
C1797 H1805 0.960 . S
C1798 C1796 1.381 . S
C1798 C1799 1.394 . S
C1798 H1806 0.930 . S
C1799 C1798 1.394 . S
C1799 C1800 1.383 . S
C1799 H1807 0.929 . S
C1800 C1799 1.383 . S
C1800 C1801 1.377 . S
C1801 H1785 0.930 . S
C1801 C1800 1.377 . S
C1801 C1802 1.379 . S
C1802 H1786 0.931 . S
C1802 C1796 1.383 . S
C1802 C1801 1.379 . S
H1803 C1797 0.959 . S
H1804 C1797 0.961 . S
H1805 C1797 0.960 . S
H1806 C1798 0.930 . S
H1807 C1799 0.929 . S
H1808 C1816 0.929 . S
H1809 C1818 0.930 . S
H1810 C1820 0.930 . S
H1811 C1823 0.929 . S
H1812 C1826 0.930 . S
H1813 C1828 0.960 . S
H1814 C1828 0.960 . S
H1815 C1828 0.960 . S
C1816 H1808 0.929 . S
C1816 C1817 1.377 . S
C1816 C1818 1.384 . S
C1817 C1816 1.377 . S
C1817 C1823 1.390 . S
C1818 H1809 0.930 . S
C1818 C1816 1.384 . S
C1818 C1819 1.372 . S
C1819 C1818 1.372 . S
C1819 C1820 1.400 . S
C1819 C1824 1.490 . S
C1820 H1810 0.930 . S
C1820 C1819 1.400 . S
C1820 C1823 1.386 . S
H1821 C1837 0.930 . S
H1822 C1838 0.931 . S
C1823 H1811 0.929 . S
C1823 C1817 1.390 . S
C1823 C1820 1.386 . S
C1824 C1819 1.490 . S
C1824 C1826 1.395 . S
C1824 C1827 1.403 . S
H1825 C1831 0.930 . S
C1826 H1812 0.930 . S
C1826 C1824 1.395 . S
C1826 C1829 1.403 . S
C1827 C1824 1.403 . S
C1827 C1828 1.524 . S
C1827 C1831 1.400 . S
C1828 H1813 0.960 . S
C1828 H1814 0.960 . S
C1828 H1815 0.960 . S
C1828 C1827 1.524 . S
C1829 C1826 1.403 . S
C1829 C1830 1.392 . S
C1829 C1833 1.495 . S
C1830 C1829 1.392 . S
C1830 C1831 1.385 . S
C1830 C1832 1.478 . S
C1831 H1825 0.930 . S
C1831 C1827 1.400 . S
C1831 C1830 1.385 . S
C1832 C1830 1.478 . S
C1832 C1834 1.381 . S
C1832 C1838 1.383 . S
C1833 C1829 1.495 . S
C1833 H1839 0.959 . S
C1833 H1840 0.961 . S
C1833 H1841 0.960 . S
C1834 C1832 1.381 . S
C1834 C1835 1.394 . S
C1834 H1842 0.930 . S
C1835 C1834 1.394 . S
C1835 C1836 1.383 . S
C1835 H1843 0.929 . S
C1836 C1835 1.383 . S
C1836 C1837 1.377 . S
C1837 H1821 0.930 . S
C1837 C1836 1.377 . S
C1837 C1838 1.379 . S
C1838 H1822 0.931 . S
C1838 C1832 1.383 . S
C1838 C1837 1.379 . S
H1839 C1833 0.959 . S
H1840 C1833 0.961 . S
H1841 C1833 0.960 . S
H1842 C1834 0.930 . S
H1843 C1835 0.929 . S
H1844 C1852 0.929 . S
H1845 C1854 0.930 . S
H1846 C1856 0.930 . S
H1847 C1859 0.929 . S
H1848 C1862 0.930 . S
H1849 C1864 0.960 . S
H1850 C1864 0.960 . S
H1851 C1864 0.960 . S
C1852 H1844 0.929 . S
C1852 C1853 1.377 . S
C1852 C1854 1.384 . S
C1853 C1852 1.377 . S
C1853 C1859 1.390 . S
C1854 H1845 0.930 . S
C1854 C1852 1.384 . S
C1854 C1855 1.372 . S
C1855 C1854 1.372 . S
C1855 C1856 1.400 . S
C1855 C1860 1.490 . S
C1856 H1846 0.930 . S
C1856 C1855 1.400 . S
C1856 C1859 1.386 . S
H1857 C1873 0.939 . S
H1858 C1874 0.931 . S
C1859 H1847 0.929 . S
C1859 C1853 1.390 . S
C1859 C1856 1.386 . S
C1860 C1855 1.490 . S
C1860 C1862 1.395 . S
C1860 C1863 1.403 . S
H1861 C1867 0.930 . S
C1862 H1848 0.930 . S
C1862 C1860 1.395 . S
C1862 C1865 1.403 . S
C1863 C1860 1.403 . S
C1863 C1864 1.524 . S
C1863 C1867 1.400 . S
C1864 H1849 0.960 . S
C1864 H1850 0.960 . S
C1864 H1851 0.960 . S
C1864 C1863 1.524 . S
C1865 C1862 1.403 . S
C1865 C1866 1.392 . S
C1865 C1869 1.495 . S
C1866 C1865 1.392 . S
C1866 C1867 1.385 . S
C1866 C1868 1.478 1_565 S
C1867 H1861 0.930 . S
C1867 C1863 1.400 . S
C1867 C1866 1.385 . S
C1868 C1866 1.478 1_545 S
C1868 C1870 1.381 . S
C1868 C1874 1.383 1_545 S
C1869 C1865 1.495 . S
C1869 H1875 0.959 . S
C1869 H1876 0.961 . S
C1869 H1877 0.960 1_565 S
C1870 C1868 1.381 . S
C1870 C1871 1.394 . S
C1870 H1878 0.930 . S
C1871 C1870 1.394 . S
C1871 C1872 1.383 . S
C1871 H1879 0.929 . S
C1872 C1871 1.383 . S
C1872 C1873 1.359 1_545 S
C1873 H1857 0.939 . S
C1873 C1872 1.359 1_565 S
C1873 C1874 1.388 . S
C1874 H1858 0.931 . S
C1874 C1868 1.383 1_565 S
C1874 C1873 1.388 . S
H1875 C1869 0.959 . S
H1876 C1869 0.961 . S
H1877 C1869 0.960 1_545 S
H1878 C1870 0.930 . S
H1879 C1871 0.929 . S
H1880 C1888 0.929 . S
H1881 C1890 0.930 . S
H1882 C1892 0.930 . S
H1883 C1895 0.929 . S
H1884 C1898 0.930 . S
H1885 C1900 0.960 . S
H1886 C1900 0.960 . S
H1887 C1900 0.960 . S
C1888 H1880 0.929 . S
C1888 C1889 1.377 . S
C1888 C1890 1.384 . S
C1889 C1888 1.377 . S
C1889 C1895 1.390 . S
C1890 H1881 0.930 . S
C1890 C1888 1.384 . S
C1890 C1891 1.372 . S
C1891 C1890 1.372 . S
C1891 C1892 1.400 . S
C1891 C1896 1.490 . S
C1892 H1882 0.930 . S
C1892 C1891 1.400 . S
C1892 C1895 1.386 . S
H1893 C1909 0.930 . S
H1894 C1910 0.931 . S
C1895 H1883 0.929 . S
C1895 C1889 1.390 . S
C1895 C1892 1.386 . S
C1896 C1891 1.490 . S
C1896 C1898 1.395 . S
C1896 C1899 1.403 . S
H1897 C1903 0.930 . S
C1898 H1884 0.930 . S
C1898 C1896 1.395 . S
C1898 C1901 1.403 . S
C1899 C1896 1.403 . S
C1899 C1900 1.524 . S
C1899 C1903 1.400 . S
C1900 H1885 0.960 . S
C1900 H1886 0.960 . S
C1900 H1887 0.960 . S
C1900 C1899 1.524 . S
C1901 C1898 1.403 . S
C1901 C1902 1.392 . S
C1901 C1905 1.495 . S
C1902 C1901 1.392 . S
C1902 C1903 1.385 . S
C1902 C1904 1.478 . S
C1903 H1897 0.930 . S
C1903 C1899 1.400 . S
C1903 C1902 1.385 . S
C1904 C1902 1.478 . S
C1904 C1906 1.381 . S
C1904 C1910 1.383 1_556 S
C1905 C1901 1.495 . S
C1905 H1911 0.959 . S
C1905 H1912 0.961 . S
C1905 H1913 0.960 . S
C1906 C1904 1.381 . S
C1906 C1907 1.394 1_556 S
C1906 H1914 0.930 . S
C1907 C1906 1.394 1_554 S
C1907 C1908 1.383 . S
C1907 H1915 0.929 . S
C1908 C1907 1.383 . S
C1908 C1909 1.377 . S
C1909 H1893 0.930 . S
C1909 C1908 1.377 . S
C1909 C1910 1.379 . S
C1910 H1894 0.931 . S
C1910 C1904 1.383 1_554 S
C1910 C1909 1.379 . S
H1911 C1905 0.959 . S
H1912 C1905 0.961 . S
H1913 C1905 0.960 . S
H1914 C1906 0.930 . S
H1915 C1907 0.929 . S
H1916 C1924 0.929 . S
H1917 C1926 0.930 . S
H1918 C1928 0.930 1_545 S
H1919 C1931 0.929 . S
H1920 C1934 0.930 . S
H1921 C1936 0.960 . S
H1922 C1936 0.960 . S
H1923 C1936 0.960 . S
C1924 H1916 0.929 . S
C1924 C1925 1.377 . S
C1924 C1926 1.384 . S
C1925 C1924 1.377 . S
C1925 C1931 1.390 . S
C1926 H1917 0.930 . S
C1926 C1924 1.384 . S
C1926 C1927 1.370 1_565 S
C1927 C1926 1.370 1_545 S
C1927 C1928 1.399 1_545 S
C1927 C1932 1.492 . S
C1928 H1918 0.930 1_565 S
C1928 C1927 1.399 1_565 S
C1928 C1931 1.386 . S
H1929 C1945 0.930 . S
H1930 C1946 0.931 . S
C1931 H1919 0.929 . S
C1931 C1925 1.390 . S
C1931 C1928 1.386 . S
C1932 C1927 1.492 . S
C1932 C1934 1.395 1_545 S
C1932 C1935 1.403 . S
H1933 C1939 0.930 . S
C1934 H1920 0.930 . S
C1934 C1932 1.395 1_565 S
C1934 C1937 1.403 1_565 S
C1935 C1932 1.403 . S
C1935 C1936 1.524 . S
C1935 C1939 1.400 . S
C1936 H1921 0.960 . S
C1936 H1922 0.960 . S
C1936 H1923 0.960 . S
C1936 C1935 1.524 . S
C1937 C1934 1.403 1_545 S
C1937 C1938 1.392 . S
C1937 C1941 1.495 1_545 S
C1938 C1937 1.392 . S
C1938 C1939 1.385 . S
C1938 C1940 1.478 . S
C1939 H1933 0.930 . S
C1939 C1935 1.400 . S
C1939 C1938 1.385 . S
C1940 C1938 1.478 . S
C1940 C1942 1.381 . S
C1940 C1946 1.383 . S
C1941 C1937 1.495 1_565 S
C1941 H1947 0.959 . S
C1941 H1948 0.961 . S
C1941 H1949 0.963 . S
C1942 C1940 1.381 . S
C1942 C1943 1.394 . S
C1942 H1950 0.930 . S
C1943 C1942 1.394 . S
C1943 C1944 1.383 . S
C1943 H1951 0.929 . S
C1944 C1943 1.383 . S
C1944 C1945 1.377 . S
C1945 H1929 0.930 . S
C1945 C1944 1.377 . S
C1945 C1946 1.379 . S
C1946 H1930 0.931 . S
C1946 C1940 1.383 . S
C1946 C1945 1.379 . S
H1947 C1941 0.959 . S
H1948 C1941 0.961 . S
H1949 C1941 0.963 . S
H1950 C1942 0.930 . S
H1951 C1943 0.929 . S
H1952 C1960 0.929 . S
H1953 C1962 0.930 . S
H1954 C1964 0.930 . S
H1955 C1967 0.929 . S
H1956 C1970 0.930 . S
H1957 C1972 0.960 . S
H1958 C1972 0.960 . S
H1959 C1972 0.960 . S
C1960 H1952 0.929 . S
C1960 C1961 1.377 . S
C1960 C1962 1.384 . S
C1961 C1960 1.377 . S
C1961 C1967 1.390 . S
C1962 H1953 0.930 . S
C1962 C1960 1.384 . S
C1962 C1963 1.372 . S
C1963 C1962 1.372 . S
C1963 C1964 1.400 . S
C1963 C1968 1.490 . S
C1964 H1954 0.930 . S
C1964 C1963 1.400 . S
C1964 C1967 1.386 . S
H1965 C1981 0.930 . S
H1966 C1982 0.931 . S
C1967 H1955 0.929 . S
C1967 C1961 1.390 . S
C1967 C1964 1.386 . S
C1968 C1963 1.490 . S
C1968 C1970 1.395 . S
C1968 C1971 1.403 . S
H1969 C1975 0.930 . S
C1970 H1956 0.930 . S
C1970 C1968 1.395 . S
C1970 C1973 1.403 . S
C1971 C1968 1.403 . S
C1971 C1972 1.524 . S
C1971 C1975 1.400 . S
C1972 H1957 0.960 . S
C1972 H1958 0.960 . S
C1972 H1959 0.960 . S
C1972 C1971 1.524 . S
C1973 C1970 1.403 . S
C1973 C1974 1.392 . S
C1973 C1977 1.495 . S
C1974 C1973 1.392 . S
C1974 C1975 1.385 . S
C1974 C1976 1.478 . S
C1975 H1969 0.930 . S
C1975 C1971 1.400 . S
C1975 C1974 1.385 . S
C1976 C1974 1.478 . S
C1976 C1978 1.381 . S
C1976 C1982 1.383 . S
C1977 C1973 1.495 . S
C1977 H1983 0.959 . S
C1977 H1984 0.961 . S
C1977 H1985 0.960 . S
C1978 C1976 1.381 . S
C1978 C1979 1.394 . S
C1978 H1986 0.930 . S
C1979 C1978 1.394 . S
C1979 C1980 1.383 . S
C1979 H1987 0.929 . S
C1980 C1979 1.383 . S
C1980 C1981 1.377 . S
C1981 H1965 0.930 . S
C1981 C1980 1.377 . S
C1981 C1982 1.379 . S
C1982 H1966 0.931 . S
C1982 C1976 1.383 . S
C1982 C1981 1.379 . S
H1983 C1977 0.959 . S
H1984 C1977 0.961 . S
H1985 C1977 0.960 . S
H1986 C1978 0.930 . S
H1987 C1979 0.929 . S
H1988 C1996 0.929 . S
H1989 C1998 0.930 . S
H1990 C2000 0.930 . S
H1991 C2003 0.929 . S
H1992 C2006 0.930 . S
H1993 C2008 0.960 . S
H1994 C2008 0.960 . S
H1995 C2008 0.960 . S
C1996 H1988 0.929 . S
C1996 C1997 1.377 . S
C1996 C1998 1.384 . S
C1997 C1996 1.377 . S
C1997 C2003 1.390 . S
C1998 H1989 0.930 . S
C1998 C1996 1.384 . S
C1998 C1999 1.372 . S
C1999 C1998 1.372 . S
C1999 C2000 1.400 . S
C1999 C2004 1.490 . S
C2000 H1990 0.930 . S
C2000 C1999 1.400 . S
C2000 C2003 1.386 . S
H2001 C2017 0.930 1_545 S
H2002 C2018 0.931 . S
C2003 H1991 0.929 . S
C2003 C1997 1.390 . S
C2003 C2000 1.386 . S
C2004 C1999 1.490 . S
C2004 C2006 1.395 . S
C2004 C2007 1.403 . S
H2005 C2011 0.930 . S
C2006 H1992 0.930 . S
C2006 C2004 1.395 . S
C2006 C2009 1.403 . S
C2007 C2004 1.403 . S
C2007 C2008 1.524 . S
C2007 C2011 1.400 . S
C2008 H1993 0.960 . S
C2008 H1994 0.960 . S
C2008 H1995 0.960 . S
C2008 C2007 1.524 . S
C2009 C2006 1.403 . S
C2009 C2010 1.392 . S
C2009 C2013 1.495 1_545 S
C2010 C2009 1.392 . S
C2010 C2011 1.385 . S
C2010 C2012 1.478 1_545 S
C2011 H2005 0.930 . S
C2011 C2007 1.400 . S
C2011 C2010 1.385 . S
C2012 C2010 1.478 1_565 S
C2012 C2014 1.381 . S
C2012 C2018 1.383 1_565 S
C2013 C2009 1.495 1_565 S
C2013 H2019 0.959 . S
C2013 H2020 0.961 . S
C2013 H2021 0.960 . S
C2014 C2012 1.381 . S
C2014 C2015 1.394 . S
C2014 H2022 0.930 . S
C2015 C2014 1.394 . S
C2015 C2016 1.383 . S
C2015 H2023 0.929 . S
C2016 C2015 1.383 . S
C2016 C2017 1.377 . S
C2017 H2001 0.930 1_565 S
C2017 C2016 1.377 . S
C2017 C2018 1.379 1_565 S
C2018 H2002 0.931 . S
C2018 C2012 1.383 1_545 S
C2018 C2017 1.379 1_545 S
H2019 C2013 0.959 . S
H2020 C2013 0.961 . S
H2021 C2013 0.960 . S
H2022 C2014 0.930 . S
H2023 C2015 0.929 . S
H2024 C2032 0.929 . S
H2025 C2034 0.930 . S
H2026 C2036 0.930 . S
H2027 C2039 0.929 . S
H2028 C2042 0.930 . S
H2029 C2044 0.960 . S
H2030 C2044 0.960 . S
H2031 C2044 0.960 . S
C2032 H2024 0.929 . S
C2032 C2033 1.377 . S
C2032 C2034 1.384 . S
C2033 C2032 1.377 . S
C2033 C2039 1.390 . S
C2034 H2025 0.930 . S
C2034 C2032 1.384 . S
C2034 C2035 1.372 . S
C2035 C2034 1.372 . S
C2035 C2036 1.400 . S
C2035 C2040 1.490 . S
C2036 H2026 0.930 . S
C2036 C2035 1.400 . S
C2036 C2039 1.386 . S
H2037 C2053 0.930 . S
H2038 C2054 0.931 . S
C2039 H2027 0.929 . S
C2039 C2033 1.390 . S
C2039 C2036 1.386 . S
C2040 C2035 1.490 . S
C2040 C2042 1.395 . S
C2040 C2043 1.403 . S
H2041 C2047 0.930 . S
C2042 H2028 0.930 . S
C2042 C2040 1.395 . S
C2042 C2045 1.403 . S
C2043 C2040 1.403 . S
C2043 C2044 1.524 . S
C2043 C2047 1.400 . S
C2044 H2029 0.960 . S
C2044 H2030 0.960 . S
C2044 H2031 0.960 . S
C2044 C2043 1.524 . S
C2045 C2042 1.403 . S
C2045 C2046 1.392 . S
C2045 C2049 1.495 . S
C2046 C2045 1.392 . S
C2046 C2047 1.385 . S
C2046 C2048 1.478 . S
C2047 H2041 0.930 . S
C2047 C2043 1.400 . S
C2047 C2046 1.385 . S
C2048 C2046 1.478 . S
C2048 C2050 1.381 . S
C2048 C2054 1.383 1_554 S
C2049 C2045 1.495 . S
C2049 H2055 0.959 . S
C2049 H2056 0.961 . S
C2049 H2057 0.960 . S
C2050 C2048 1.381 . S
C2050 C2051 1.394 1_554 S
C2050 H2058 0.930 . S
C2051 C2050 1.394 1_556 S
C2051 C2052 1.383 . S
C2051 H2059 0.929 . S
C2052 C2051 1.383 . S
C2052 C2053 1.377 . S
C2053 H2037 0.930 . S
C2053 C2052 1.377 . S
C2053 C2054 1.379 . S
C2054 H2038 0.931 . S
C2054 C2048 1.383 1_556 S
C2054 C2053 1.379 . S
H2055 C2049 0.959 . S
H2056 C2049 0.961 . S
H2057 C2049 0.960 . S
H2058 C2050 0.930 . S
H2059 C2051 0.929 . S
H2060 C2068 0.929 . S
H2061 C2070 0.930 . S
H2062 C2072 0.930 . S
H2063 C2075 0.929 . S
H2064 C2078 0.930 . S
H2065 C2080 0.960 . S
H2066 C2080 0.960 . S
H2067 C2080 0.960 . S
C2068 H2060 0.929 . S
C2068 C2069 1.377 . S
C2068 C2070 1.384 . S
C2069 C2068 1.377 . S
C2069 C2075 1.390 . S
C2070 H2061 0.930 . S
C2070 C2068 1.384 . S
C2070 C2071 1.372 . S
C2071 C2070 1.372 . S
C2071 C2072 1.400 . S
C2071 C2076 1.490 . S
C2072 H2062 0.930 . S
C2072 C2071 1.400 . S
C2072 C2075 1.386 . S
H2073 C2089 0.930 . S
H2074 C2090 0.931 . S
C2075 H2063 0.929 . S
C2075 C2069 1.390 . S
C2075 C2072 1.386 . S
C2076 C2071 1.490 . S
C2076 C2078 1.395 . S
C2076 C2079 1.403 . S
H2077 C2083 0.930 . S
C2078 H2064 0.930 . S
C2078 C2076 1.395 . S
C2078 C2081 1.403 . S
C2079 C2076 1.403 . S
C2079 C2080 1.524 . S
C2079 C2083 1.400 . S
C2080 H2065 0.960 . S
C2080 H2066 0.960 . S
C2080 H2067 0.960 . S
C2080 C2079 1.524 . S
C2081 C2078 1.403 . S
C2081 C2082 1.392 . S
C2081 C2085 1.495 . S
C2082 C2081 1.392 . S
C2082 C2083 1.385 . S
C2082 C2084 1.478 . S
C2083 H2077 0.930 . S
C2083 C2079 1.400 . S
C2083 C2082 1.385 . S
C2084 C2082 1.478 . S
C2084 C2086 1.381 . S
C2084 C2090 1.383 1_565 S
C2085 C2081 1.495 . S
C2085 H2091 0.959 . S
C2085 H2092 0.961 . S
C2085 H2093 0.960 . S
C2086 C2084 1.381 . S
C2086 C2087 1.394 . S
C2086 H2094 0.930 . S
C2087 C2086 1.394 . S
C2087 C2088 1.383 1_565 S
C2087 H2095 0.929 . S
C2088 C2087 1.383 1_545 S
C2088 C2089 1.377 . S
C2089 H2073 0.930 . S
C2089 C2088 1.377 . S
C2089 C2090 1.379 . S
C2090 H2074 0.931 . S
C2090 C2084 1.383 1_545 S
C2090 C2089 1.379 . S
H2091 C2085 0.959 . S
H2092 C2085 0.961 . S
H2093 C2085 0.960 . S
H2094 C2086 0.930 . S
H2095 C2087 0.929 . S
C377 C16 0.068 . S
C396 C246 0.146 . S
C413 C39 0.103 . S
C432 C269 0.104 . S
C449 C62 0.092 . S
C468 C200 0.059 . S
C485 C223 0.103 . S
C504 C85 0.105 . S
C521 C108 0.101 . S
C540 C338 0.154 . S
C557 C361 0.071 . S
C576 C131 0.096 . S
C593 C292 0.098 . S
C612 C154 0.166 . S
C629 C177 0.065 . S
C648 C315 0.153 . S
C665 C18 2.139 . S
C684 C110 2.134 . S
C701 C41 2.139 . S
C720 C317 2.135 . S
C737 C64 2.139 . S
C756 C156 2.135 . S
C773 C87 2.140 . S
C792 C363 2.133 . S
C809 C133 2.140 . S
C828 C225 2.135 . S
C845 C271 2.140 . S
C864 C179 2.137 . S
C881 C294 2.140 . S
C900 C202 2.134 . S
C917 C248 2.140 . S
C936 C340 2.138 . S
C953 C21 1.852 . S
C972 C178 1.860 . S
C989 C44 1.853 . S
C1008 C293 1.844 . S
C1025 C67 1.852 . S
C1044 C132 1.860 . S
C1061 C90 1.851 . S
C1080 C339 1.853 . S
C1097 C86 1.859 . S
C1116 C113 1.847 . S
C1133 C136 1.851 . S
C1152 C201 1.843 . S
C1169 C159 1.854 . S
C1188 C40 1.845 . S
C1205 C247 1.856 . S
C1224 C182 1.860 . S
C1241 C205 1.855 . S
C1260 C362 1.848 1_565 S
C1277 C109 1.858 . S
C1296 C228 1.847 . S
C1313 C316 1.855 1_545 S
C1332 C251 1.860 . S
C1349 C155 1.858 . S
C1368 C274 1.840 . S
C1385 C297 1.851 . S
C1404 C270 1.862 1_545 S
C1421 C320 1.851 . S
C1440 C17 1.844 . S
C1457 C224 1.858 1_565 S
C1476 C343 1.857 . S
C1493 C366 1.850 . S
C1512 C63 1.856 . S
C1529 C19 1.022 . S
C1548 C227 1.024 . S
C1565 C250 1.032 . S
C1584 C42 1.014 . S
C1601 C65 1.023 . S
C1620 C273 1.036 . S
C1637 C204 1.032 . S
C1656 C88 1.037 . S
C1673 C319 1.029 . S
C1692 C111 1.008 . S
C1709 C342 1.031 . S
C1728 C134 1.002 . S
C1745 C365 1.030 . S
C1764 C157 1.037 . S
C1781 C296 1.031 . S
C1800 C180 1.042 . S
C1817 C43 1.029 . S
C1836 C203 1.025 . S
C1853 C66 1.032 . S
C1872 C226 1.029 . S
C1889 C89 1.032 . S
C1908 C249 1.012 . S
C1925 C272 1.025 . S
C1944 C20 1.034 . S
C1961 C135 1.031 . S
C1980 C295 1.040 . S
C1997 C158 1.030 . S
C2016 C318 0.994 . S
C2033 C181 1.030 . S
C2052 C341 0.993 . S
C2069 C112 1.030 . S
C2088 C364 1.034 . S
