# Generated by pormake.
# Topology bcg, (8)-cn, num edge types: 1
# Building blocks:
#     Node 0, Type 0, BuildingBlock: EYACOX_clean_sbu_0, # of connection points: 8
#     Node 1, Type 0, BuildingBlock: EYACOX_clean_sbu_0, # of connection points: 8
#     Node 2, Type 0, BuildingBlock: EYACOX_clean_sbu_0, # of connection points: 8
#     Node 3, Type 0, BuildingBlock: EYACOX_clean_sbu_0, # of connection points: 8
#     Edge 4, Type (0, 0), BuildingBlock: CIFDUS_clean_linker_0, # of connection points: 2
#     Edge 5, Type (0, 0), BuildingBlock: CIFDUS_clean_linker_0, # of connection points: 2
#     Edge 6, Type (0, 0), BuildingBlock: CIFDUS_clean_linker_0, # of connection points: 2
#     Edge 7, Type (0, 0), BuildingBlock: CIFDUS_clean_linker_0, # of connection points: 2
#     Edge 8, Type (0, 0), BuildingBlock: CIFDUS_clean_linker_0, # of connection points: 2
#     Edge 9, Type (0, 0), BuildingBlock: CIFDUS_clean_linker_0, # of connection points: 2
#     Edge 10, Type (0, 0), BuildingBlock: CIFDUS_clean_linker_0, # of connection points: 2
#     Edge 11, Type (0, 0), BuildingBlock: CIFDUS_clean_linker_0, # of connection points: 2
#     Edge 12, Type (0, 0), BuildingBlock: CIFDUS_clean_linker_0, # of connection points: 2
#     Edge 13, Type (0, 0), BuildingBlock: CIFDUS_clean_linker_0, # of connection points: 2
#     Edge 14, Type (0, 0), BuildingBlock: CIFDUS_clean_linker_0, # of connection points: 2
#     Edge 15, Type (0, 0), BuildingBlock: CIFDUS_clean_linker_0, # of connection points: 2
#     Edge 16, Type (0, 0), BuildingBlock: CIFDUS_clean_linker_0, # of connection points: 2
#     Edge 17, Type (0, 0), BuildingBlock: CIFDUS_clean_linker_0, # of connection points: 2
#     Edge 18, Type (0, 0), BuildingBlock: CIFDUS_clean_linker_0, # of connection points: 2
#     Edge 19, Type (0, 0), BuildingBlock: CIFDUS_clean_linker_0, # of connection points: 2
# Relax obj value: 0.123
# Max RMSD: 0.230
# Mean RMSD: 0.230
data_MOF--net-bcg--node1-EYACOX_clean_sbu_0--edge1-CIFDUS_clean_linker_0
_symmetry_space_group_name_H-M    P1
_symmetry_Int_Tables_number       1
_symmetry_cell_setting            triclinic
loop_
_symmetry_equiv_pos_as_xyz
'x, y, z'
_cell_length_a     19.988116
_cell_length_b     16.755567
_cell_length_c     29.360069
_cell_angle_alpha  91.015041
_cell_angle_beta   118.65877
_cell_angle_gamma 90.333066
loop_
_atom_site_label
_atom_site_type_symbol
_atom_site_fract_x
_atom_site_fract_y
_atom_site_fract_z
_atom_type_partial_charge
Eu0 Eu 0.30944 0.11169 0.92022 0.0
Eu1 Eu 0.21609 0.23698 0.96253 0.0
O2 O 0.33314 0.07688 0.85716 0.0
O3 O 0.37551 0.00512 0.92597 0.0
O4 O 0.14619 0.12698 0.92689 0.0
O5 O 0.24087 0.03703 0.94642 0.0
O6 O 0.39016 0.1412 0.0038 0.0
O7 O 0.29927 0.16221 0.02919 0.0
C8 C 0.44241 -0.00165 0.87681 0.0
C9 C 0.57078 -0.0489 0.87004 0.0
C10 C 0.57992 0.00029 0.91164 0.0
C11 C 0.51557 0.02098 0.91647 0.0
C12 C 0.4995 -0.05737 0.82539 0.0
C13 C 0.43459 -0.03672 0.83031 0.0
C14 C 0.37289 0.01496 0.8811 0.0
C15 C 0.17225 0.05473 0.93828 0.0
O16 O 0.20748 0.30113 0.02553 0.0
O17 O 0.11275 0.30017 0.94749 0.0
C18 C 0.37038 0.14841 0.04037 0.0
O19 O 0.31527 0.31054 0.97201 0.0
O20 O 0.36136 0.23342 0.92672 0.0
O21 O 0.1895 0.27402 0.88202 0.0
O22 O 0.1971 0.14743 0.85428 0.0
C23 C 0.08231 0.31136 0.01671 0.0
C24 C 0.04098 0.35047 0.08015 0.0
C25 C 0.09412 0.35539 0.06151 0.0
C26 C 0.97626 0.3014 0.05347 0.0
C27 C 0.96421 0.25559 0.00986 0.0
C28 C 1.01724 0.26111 -0.0087 0.0
C29 C 0.13671 0.32083 -0.00402 0.0
C30 C 0.36097 0.29913 0.95204 0.0
C31 C 0.17508 0.22159 0.84454 0.0
H32 H 0.62186 0.92928 0.87047 0.0
H33 H 0.522 0.05739 0.94925 0.0
H34 H 0.37783 -0.04469 0.79791 0.0
H35 H 0.14441 0.39339 0.08173 0.0
H36 H 0.93536 0.2972 0.06766 0.0
H37 H 1.0081 0.22596 0.95741 0.0
Eu38 Eu 0.85104 0.63604 -0.01653 0.0
Eu39 Eu 0.75659 0.75922 0.02714 0.0
O40 O 0.8965 0.62719 0.92918 0.0
O41 O 0.90573 0.52612 -0.02309 0.0
O42 O 0.72156 0.63361 0.03192 0.0
O43 O 0.74804 0.56779 0.97245 0.0
O44 O 0.90216 0.61168 0.06938 0.0
O45 O 0.86921 0.7299 0.09485 0.0
C46 C 0.98948 0.53065 0.93928 0.0
C47 C 0.11867 0.48246 0.93368 0.0
C48 C 0.12729 0.53254 0.97472 0.0
C49 C 0.0625 0.55409 -0.02105 0.0
C50 C 0.04764 0.47164 0.8895 0.0
C51 C 0.98235 0.49286 0.8936 0.0
C52 C 0.91904 0.55389 0.94064 0.0
C53 C 0.71366 0.5724 0.00091 0.0
O54 O 0.74918 0.81129 0.09338 0.0
O55 O 0.66981 0.84756 0.01599 0.0
C56 C 0.90591 0.66219 0.10554 0.0
O57 O 0.82285 0.83283 -0.00163 0.0
O58 O 0.92015 0.74506 0.02216 0.0
O59 O 0.67183 0.72508 0.94496 0.0
O60 O 0.75834 0.70216 0.91595 0.0
C61 C 0.62692 0.84791 0.07919 0.0
C62 C 0.57373 0.89163 0.13537 0.0
C63 C 0.62966 0.89831 0.11923 0.0
C64 C 0.51575 0.83369 0.11074 0.0
C65 C 0.51195 0.78315 0.07115 0.0
C66 C 0.56761 0.79069 0.05514 0.0
C67 C 0.68879 0.8526 0.06515 0.0
C68 C 0.89249 0.81621 0.00795 0.0
C69 C 0.6884 0.71677 0.90698 0.0
H70 H 0.16976 0.46109 0.93372 0.0
H71 H 0.06838 0.59239 0.01083 0.0
H72 H 0.92605 0.48434 0.86064 0.0
H73 H 0.6758 -0.0583 0.13808 0.0
H74 H 0.47308 0.82635 0.12306 0.0
H75 H 0.56567 0.75126 0.02483 0.0
Eu76 Eu 0.25472 0.62021 0.51979 0.0
Eu77 Eu 0.34496 0.75675 0.48145 0.0
O78 O 0.24456 0.55511 0.58065 0.0
O79 O 0.15611 0.54272 0.50086 0.0
O80 O 0.38501 0.63674 0.47286 0.0
O81 O 0.357 0.55681 0.52549 0.0
O82 O 0.22386 0.58933 0.43672 0.0
O83 O 0.23434 0.71683 0.41286 0.0
C84 C 0.11712 0.53302 0.56595 0.0
C85 C 1.00575 0.53936 0.5982 0.0
C86 C 0.99193 0.57627 0.55224 0.0
C87 C 0.04735 0.57203 0.53564 0.0
C88 C 0.07457 0.50177 0.62951 0.0
C89 C 0.13029 0.49855 0.61306 0.0
C90 C 0.17642 0.52696 0.54904 0.0
C91 C 0.39359 0.57158 0.49924 0.0
O92 O 0.35453 0.81263 0.41795 0.0
O93 O 0.43071 0.85051 0.497 0.0
C94 C 0.20991 0.64256 0.40106 0.0
O95 O 0.27072 0.82589 0.5051 0.0
O96 O 0.18175 0.72707 0.49027 0.0
O97 O 0.42534 0.72439 0.56377 0.0
O98 O 0.3359 0.69656 0.58919 0.0
C99 C 0.47751 0.857 0.4358 0.0
C100 C 0.52778 0.89889 0.37804 0.0
C101 C 0.4707 0.90154 0.39334 0.0
C102 C 0.59115 0.85073 0.406 0.0
C103 C 0.59969 0.80713 0.44853 0.0
C104 C 0.5429 0.8107 0.46374 0.0
C105 C 0.41391 0.85644 0.4484 0.0
C106 C 0.20236 0.80244 0.49556 0.0
C107 C 0.40651 0.71445 0.60046 0.0
H108 H 0.96299 0.5428 0.6108 0.0
H109 H 1.03676 0.60034 0.49995 0.0
H110 H 0.18395 0.46957 0.63695 0.0
H111 H 0.4206 -0.06263 0.3721 0.0
H112 H 0.63469 0.84561 0.39426 0.0
H113 H 0.54869 0.77613 0.49626 0.0
Eu114 Eu 0.71527 0.12288 0.46292 0.0
Eu115 Eu 0.8124 0.25503 0.42735 0.0
O116 O 0.70448 0.06091 0.52425 0.0
O117 O 0.61692 0.04495 0.44463 0.0
O118 O 0.87511 0.14124 0.44848 0.0
O119 O 0.77886 0.04954 0.43156 0.0
O120 O 0.63324 0.16815 0.38425 0.0
O121 O 0.72029 0.19079 0.35621 0.0
C122 C 0.57878 0.03758 0.51037 0.0
C123 C 0.47199 0.05015 0.54634 0.0
C124 C 0.46414 0.09775 0.50545 0.0
C125 C 0.51738 0.09067 0.48701 0.0
C126 C 0.53292 -0.00196 0.57074 0.0
C127 C 0.58629 -0.00816 0.55243 0.0
C128 C 0.6373 0.03073 0.49305 0.0
C129 C 0.84711 0.06811 0.43815 0.0
O130 O 0.83867 0.29191 0.36635 0.0
O131 O 0.88875 0.35737 0.43963 0.0
C132 C 0.64992 0.17654 0.34653 0.0
O133 O 0.7152 0.32127 0.42711 0.0
O134 O 0.70321 0.24579 0.48772 0.0
O135 O 0.86782 0.26226 0.51537 0.0
O136 O 0.83322 0.13736 0.52967 0.0
C137 C 0.95479 0.36307 0.38945 0.0
C138 C 1.01299 0.41407 0.33813 0.0
C139 C 0.94768 0.39587 0.34325 0.0
C140 C 0.08419 0.40638 0.3823 0.0
C141 C 0.09219 0.35792 0.42279 0.0
C142 C 1.02744 0.3394 0.42804 0.0
C143 C 0.88467 0.34988 0.39404 0.0
C144 C 0.69047 0.31076 0.46077 0.0
C145 C 0.87295 0.2042 0.54658 0.0
H146 H 0.43104 0.05561 0.56042 0.0
H147 H 0.51197 0.12739 0.45544 0.0
H148 H 0.63415 -0.04781 0.57125 0.0
H149 H 0.89112 0.40403 0.31112 0.0
H150 H 0.13563 0.42699 0.38236 0.0
H151 H 1.03297 0.30402 0.46017 0.0
H152 H 0.64862 0.08377 0.86884 0.0
H153 H 0.6747 0.01711 0.01758 0.0
H154 H 0.80038 0.08484 0.06104 0.0
H155 H 0.90181 0.16195 0.05553 0.0
H156 H 0.86912 0.23457 0.90582 0.0
H157 H 0.74766 0.16142 0.86334 0.0
C158 C 0.68205 0.08361 0.91087 0.0
C159 C 0.65343 0.04445 0.94015 0.0
C160 C 0.75306 0.12246 0.93501 0.0
C161 C 0.69608 0.04635 -0.00556 0.0
C162 C 0.76776 0.08473 0.01905 0.0
C163 C 0.86789 0.16231 0.01359 0.0
C164 C 0.89452 0.20412 -0.01614 0.0
C165 C 0.79675 0.12276 -0.01041 0.0
C166 C 0.8506 0.20232 0.92956 0.0
C167 C 0.78076 0.16131 0.90532 0.0
H168 H 0.19794 0.61207 0.93167 0.0
H169 H 0.22226 0.54942 0.08062 0.0
H170 H 0.34982 0.61352 0.12379 0.0
H171 H 0.45241 0.68801 0.11791 0.0
H172 H 0.42345 0.75145 0.96761 0.0
H173 H 0.30101 0.68001 0.92553 0.0
C174 C 0.23143 0.61174 0.97368 0.0
C175 C 0.20132 0.57576 0.00314 0.0
C176 C 0.30418 0.64659 -0.00247 0.0
C177 C 0.2443 0.57724 0.05739 0.0
C178 C 0.31724 0.61298 0.08179 0.0
C179 C 0.41935 0.68598 0.07589 0.0
C180 C 0.44655 0.72601 0.04586 0.0
C181 C 0.34762 0.64769 0.05211 0.0
C182 C 0.40417 0.72094 -0.00846 0.0
C183 C 0.33367 0.6812 0.96755 0.0
H184 H 0.66182 0.7049 0.40681 0.0
H185 H 0.69681 0.80686 0.55272 0.0
H186 H 0.82429 0.74951 0.59675 0.0
H187 H 0.92728 0.67688 0.59272 0.0
H188 H 0.89235 0.57203 0.44748 0.0
H189 H 0.76444 0.62892 0.40322 0.0
C190 C 0.69728 0.71405 0.44836 0.0
C191 C 0.6701 0.76014 0.47659 0.0
C192 C 0.77098 0.68279 0.47297 0.0
C193 C 0.71605 0.77077 0.53038 0.0
C194 C 0.78926 0.73908 0.55531 0.0
C195 C 0.89159 0.66602 0.55135 0.0
C196 C 0.91911 0.61965 0.52346 0.0
C197 C 0.81761 0.69623 0.5268 0.0
C198 C 0.87288 0.60801 0.46972 0.0
C199 C 0.79944 0.63954 0.44463 0.0
H200 H 0.15407 0.2722 0.37536 0.0
H201 H 0.19101 0.34195 0.52785 0.0
H202 H 0.31442 0.27353 0.56689 0.0
H203 H 0.41042 0.19411 0.55648 0.0
H204 H 0.36939 0.12417 0.4028 0.0
H205 H 0.25009 0.19747 0.36486 0.0
C206 C 0.18936 0.27297 0.41726 0.0
C207 C 0.16397 0.31248 0.44885 0.0
C208 C 0.25977 0.2352 0.43883 0.0
C209 C 0.20931 0.31164 0.50293 0.0
C210 C 0.27992 0.27323 0.52501 0.0
C211 C 0.3753 0.19481 0.51463 0.0
C212 C 0.3985 0.15285 0.48243 0.0
C213 C 0.30563 0.235 0.49321 0.0
C214 C 0.3534 0.15627 0.42837 0.0
C215 C 0.28471 0.19725 0.40675 0.0
H216 H 0.59188 0.58778 0.0163 0.0
H217 H 0.70827 0.41965 0.9666 0.0
H218 H 0.6069 0.32066 0.94532 0.0
H219 H 0.48529 0.28365 0.93949 0.0
H220 H 0.36739 0.45221 -0.01209 0.0
H221 H 0.46988 0.55027 0.01075 0.0
C222 C 0.59554 0.52907 0.0015 0.0
C223 C 0.6572 0.5105 -0.00684 0.0
C224 C 0.53667 0.47337 -0.01152 0.0
C225 C 0.66097 0.43493 0.97321 0.0
C226 C 0.6031 0.37859 0.9609 0.0
C227 C 0.48145 0.34208 0.95453 0.0
C228 C 0.41894 0.36077 0.96188 0.0
C229 C 0.5404 0.39765 0.96784 0.0
C230 C 0.41516 0.43642 -0.01807 0.0
C231 C 0.47368 0.49242 -0.00489 0.0
H232 H 0.59247 0.28626 0.49733 0.0
H233 H 0.68218 0.46901 0.43836 0.0
H234 H 0.59912 0.56712 0.44771 0.0
H235 H 0.50022 0.59848 0.47032 0.0
H236 H 0.40724 0.41476 0.52656 0.0
H237 H 0.49467 0.31823 0.5212 0.0
C238 C 0.59446 0.34775 0.48694 0.0
C239 C 0.64311 0.37093 0.46728 0.0
C240 C 0.54642 0.40285 0.49183 0.0
C241 C 0.64459 0.4502 0.45329 0.0
C242 C 0.59745 0.50602 0.45873 0.0
C243 C 0.49864 0.53725 0.48127 0.0
C244 C 0.44711 0.51329 0.4984 0.0
C245 C 0.54783 0.48256 0.47749 0.0
C246 C 0.44663 0.43431 0.5133 0.0
C247 C 0.49622 0.37928 0.51007 0.0
H248 H 1.03206 0.07761 0.92742 0.0
H249 H 0.20984 0.90263 0.97334 0.0
H250 H 0.13917 0.8147 0.00132 0.0
H251 H 1.03048 0.791 0.01549 0.0
H252 H 0.85273 -0.034 0.96944 0.0
H253 H 0.9222 0.05233 0.93964 0.0
C254 C 0.05542 0.02003 0.9432 0.0
C255 C 0.12626 -0.00333 0.94857 0.0
C256 C 1.01565 -0.02896 0.96013 0.0
C257 C 0.15532 0.92177 0.96878 0.0
C258 C 0.11535 0.87192 -0.01484 0.0
C259 C 1.00693 0.84838 -0.00061 0.0
C260 C 0.93682 0.87254 -0.00501 0.0
C261 C 0.0462 0.89675 -0.01826 0.0
C262 C 0.90704 -0.05332 0.97374 0.0
C263 C 0.94634 -0.00431 0.95644 0.0
H264 H 0.98172 0.08995 0.44067 0.0
H265 H 0.83082 0.90577 0.4427 0.0
H266 H 0.9295 0.80636 0.46119 0.0
H267 H 0.06048 0.77514 0.48205 0.0
H268 H 0.21183 -0.03744 0.48409 0.0
H269 H 0.11042 0.05912 0.46028 0.0
C270 C 0.96992 0.02805 0.44498 0.0
C271 C 0.89958 0.00522 0.44106 0.0
C272 C 1.02716 -0.02735 0.4573 0.0
C273 C 0.88474 0.92464 0.44567 0.0
C274 C 0.94124 0.86813 0.45667 0.0
C275 C 0.07147 0.83714 0.47738 0.0
C276 C 0.14356 0.8619 0.48495 0.0
C277 C 1.0131 0.89206 0.46365 0.0
C278 C 0.15699 -0.05772 0.47889 0.0
C279 C 0.09898 -0.00271 0.4649 0.0
H280 H 0.66518 0.15994 0.25974 0.0
H281 H 0.4959 0.17415 0.31089 0.0
H282 H 0.39429 0.16397 0.22094 0.0
H283 H 0.35345 0.15491 0.12742 0.0
H284 H 0.52371 0.13509 0.07725 0.0
H285 H 0.62453 0.14243 0.1671 0.0
C286 C 0.60609 0.16124 0.25126 0.0
C287 C 0.58833 0.16894 0.29202 0.0
C288 C 0.54791 0.15417 0.19954 0.0
C289 C 0.51133 0.16886 0.28029 0.0
C290 C 0.45309 0.16304 0.22882 0.0
C291 C 0.41256 0.15185 0.1361 0.0
C292 C 0.43067 0.14537 0.0954 0.0
C293 C 0.47069 0.15615 0.18807 0.0
C294 C 0.50775 0.14058 0.10758 0.0
C295 C 0.56571 0.14518 0.15905 0.0
H296 H 0.45579 -0.05337 0.14972 0.0
H297 H 0.70174 -0.06097 0.226 0.0
H298 H 0.70661 -0.03165 0.30922 0.0
H299 H 0.64169 -0.03786 0.3617 0.0
H300 H 0.39718 0.92708 0.28585 0.0
H301 H 0.39059 -0.04941 0.20213 0.0
C302 C 0.51075 -0.04922 0.18452 0.0
C303 C 0.57819 -0.06377 0.18151 0.0
C304 C 0.51301 -0.04134 0.23289 0.0
C305 C 0.64867 -0.05169 0.22666 0.0
C306 C 0.65148 -0.03616 0.2746 0.0
C307 C 0.58669 -0.04119 0.32694 0.0
C308 C 0.52047 -0.06163 0.33038 0.0
C309 C 0.58404 -0.03669 0.27843 0.0
C310 C 0.4495 -0.05898 0.28501 0.0
C311 C 0.44576 -0.0467 0.23678 0.0
H312 H 0.39109 0.70615 0.68799 0.0
H313 H 0.55924 0.73728 0.63693 0.0
H314 H 0.66044 0.74288 0.72672 0.0
H315 H 0.70233 0.73487 0.81988 0.0
H316 H 0.53455 0.70976 0.87163 0.0
H317 H 0.43253 0.70711 0.78169 0.0
C318 C 0.44985 0.71403 0.69646 0.0
C319 C 0.46722 0.72054 0.65551 0.0
C320 C 0.50814 0.71834 0.74845 0.0
C321 C 0.54384 0.73164 0.66744 0.0
C322 C 0.60201 0.73491 0.7189 0.0
C323 C 0.64346 0.72887 0.81154 0.0
C324 C 0.62638 0.72141 0.85253 0.0
C325 C 0.58494 0.7277 0.75971 0.0
C326 C 0.54956 0.71519 0.84093 0.0
C327 C 0.49108 0.71326 0.78943 0.0
H328 H 0.61546 -0.04202 0.79955 0.0
H329 H 0.3757 0.89281 0.73064 0.0
H330 H 0.36742 0.89368 0.64525 0.0
H331 H 0.42559 0.92573 0.58988 0.0
H332 H 0.66523 -0.01222 0.66188 0.0
H333 H 0.67703 -0.03393 0.74718 0.0
C334 C 0.56128 -0.05987 0.76719 0.0
C335 C 0.49599 0.92646 0.77341 0.0
C336 C 0.55708 -0.06147 0.7182 0.0
C337 C 0.42691 0.9066 0.72843 0.0
C338 C 0.42206 0.9063 0.67913 0.0
C339 C 0.48072 0.93331 0.62427 0.0
C340 C 0.54418 -0.03977 0.61943 0.0
C341 C 0.48643 0.92432 0.67355 0.0
C342 C 0.61551 -0.03282 0.6642 0.0
C343 C 0.62198 -0.04394 0.71314 0.0
H344 H 0.05814 0.65243 0.34801 0.0
H345 H 0.25443 0.5907 0.33189 0.0
H346 H 0.17558 0.5827 0.23696 0.0
H347 H 0.05243 0.60854 0.15825 0.0
H348 H 0.85912 0.67755 0.17667 0.0
H349 H 0.93429 0.66705 0.27059 0.0
C350 C 0.08289 0.63541 0.32352 0.0
C351 C 0.16109 0.62144 0.34615 0.0
C352 C 0.03785 0.63356 0.26937 0.0
C353 C 0.19371 0.60074 0.31469 0.0
C354 C 0.14889 0.59702 0.26059 0.0
C355 C 1.02691 0.61993 0.18299 0.0
C356 C 0.95074 0.64405 0.16093 0.0
C357 C 0.07117 0.61555 0.23737 0.0
C358 C 0.91799 0.65935 0.19311 0.0
C359 C 0.96084 0.65348 0.24675 0.0
H360 H 0.12563 0.38603 0.31097 0.0
H361 H 0.89273 0.46709 0.24524 0.0
H362 H 0.88414 0.46447 0.15956 0.0
H363 H 0.93977 0.42842 0.10273 0.0
H364 H 0.17324 0.35145 0.17179 0.0
H365 H 0.18632 0.37197 0.25809 0.0
C366 C 0.07328 0.40698 0.27929 0.0
C367 C 1.00975 0.4266 0.28626 0.0
C368 C 0.06918 0.40741 0.23035 0.0
C369 C 0.94241 0.44958 0.24218 0.0
C370 C 0.9375 0.44876 0.19284 0.0
C371 C 0.99394 0.41736 0.13678 0.0
C372 C 0.05514 0.38688 0.13071 0.0
C373 C 1.0001 0.42602 0.1864 0.0
C374 C 0.12539 0.37503 0.17512 0.0
C375 C 0.13242 0.38541 0.22452 0.0
H376 H 1.02529 0.19415 0.78952 0.0
H377 H 0.21761 0.28824 0.7786 0.0
H378 H 0.13979 0.29589 0.68381 0.0
H379 H 1.0176 0.2672 0.60331 0.0
H380 H 0.82916 0.1652 0.61654 0.0
H381 H 0.90354 0.17123 0.71086 0.0
C382 C 0.04922 0.21821 0.76627 0.0
C383 C 0.12594 0.24198 0.79032 0.0
C384 C 1.00475 0.22066 0.71219 0.0
C385 C 0.15783 0.27107 0.76037 0.0
C386 C 0.11368 0.27452 0.70632 0.0
C387 C 0.99305 0.24705 0.62708 0.0
C388 C 0.91847 0.21523 0.60328 0.0
C389 C 0.03715 0.24837 0.68163 0.0
C390 C 0.88693 0.18908 0.63421 0.0
C391 C 0.92927 0.19257 0.6881 0.0
H392 H 0.97633 0.42528 0.65571 0.0
H393 H 0.20511 0.52322 0.72164 0.0
H394 H 0.2185 0.51467 0.80833 0.0
H395 H 0.15828 0.5032 0.86177 0.0
H396 H 0.93124 0.40028 0.79954 0.0
H397 H 0.9231 0.39135 0.71376 0.0
C398 C 1.0295 0.44405 0.68913 0.0
C399 C 0.08927 0.47629 0.68188 0.0
C400 C 1.0362 0.44078 0.73898 0.0
C401 C 0.15841 0.49781 0.72576 0.0
C402 C 0.16568 0.49397 0.77538 0.0
C403 C 0.10761 0.47524 0.83078 0.0
C404 C 0.04518 0.45278 0.83834 0.0
C405 C 0.10389 0.46866 0.78206 0.0
C406 C 0.97976 0.41996 0.79553 0.0
C407 C 0.97519 0.41436 0.74633 0.0
loop_
_geom_bond_atom_site_label_1
_geom_bond_atom_site_label_2
_geom_bond_distance
_geom_bond_site_symmetry_2
_ccdc_geom_bond_type
Eu0 O2 2.472 . S
Eu0 O3 2.507 1_556 S
Eu0 O5 2.336 1_556 S
Eu0 O6 2.389 1_556 S
Eu0 C14 2.835 . S
Eu0 O20 2.396 1_556 S
Eu0 O22 2.323 . S
Eu1 O4 2.396 1_554 S
Eu1 O7 2.323 . S
Eu1 O16 2.472 . S
Eu1 O17 2.507 1_554 S
Eu1 O19 2.336 1_554 S
Eu1 O21 2.389 1_554 S
Eu1 C29 2.835 . S
O2 Eu0 2.472 . S
O2 C14 1.258 . S
O3 Eu0 2.507 1_554 S
O3 C14 1.246 1_554 S
O4 Eu1 2.396 1_556 S
O4 C15 1.223 1_556 S
O5 Eu0 2.336 1_554 S
O5 C15 1.270 . S
O6 Eu0 2.389 1_554 S
O6 C18 1.239 . S
O7 Eu1 2.323 . S
O7 C18 1.249 . S
C8 C11 1.390 . S
C8 C13 1.370 . S
C8 C14 1.489 . S
C9 C10 1.344 . S
C9 C12 1.413 . S
C9 H32 0.931 . S
C10 C9 1.344 . S
C10 C11 1.423 . S
C11 C8 1.390 . S
C11 C10 1.423 . S
C11 H33 0.930 1_556 S
C12 C9 1.413 . S
C12 C13 1.397 . S
C13 C8 1.370 . S
C13 C12 1.397 . S
C13 H34 0.932 . S
C14 Eu0 2.835 . S
C14 O2 1.258 . S
C14 O3 1.246 1_556 S
C14 C8 1.489 . S
C15 O4 1.223 1_554 S
C15 O5 1.270 . S
O16 Eu1 2.472 . S
O16 C29 1.258 . S
O17 Eu1 2.507 1_556 S
O17 C29 1.246 1_556 S
C18 O6 1.239 . S
C18 O7 1.249 . S
O19 Eu1 2.336 1_556 S
O19 C30 1.279 1_556 S
O20 Eu0 2.396 1_554 S
O20 C30 1.216 . S
O21 Eu1 2.389 1_556 S
O21 C31 1.239 . S
O22 Eu0 2.323 . S
O22 C31 1.249 . S
C23 C25 1.370 . S
C23 C28 1.390 1_455 S
C23 C29 1.489 . S
C24 C25 1.397 . S
C24 C26 1.413 1_455 S
C25 C23 1.370 . S
C25 C24 1.397 . S
C25 H35 0.932 . S
C26 C24 1.413 1_655 S
C26 C27 1.344 . S
C26 H36 0.931 . S
C27 C26 1.344 . S
C27 C28 1.423 . S
C28 C23 1.390 1_655 S
C28 C27 1.423 . S
C28 H37 0.930 1_554 S
C29 Eu1 2.835 . S
C29 O16 1.258 . S
C29 O17 1.246 1_554 S
C29 C23 1.489 . S
C30 O19 1.279 1_554 S
C30 O20 1.216 . S
C31 O21 1.239 . S
C31 O22 1.249 . S
H32 C9 0.931 . S
H33 C11 0.930 1_554 S
H34 C13 0.932 . S
H35 C25 0.932 . S
H36 C26 0.931 . S
H37 C28 0.930 1_556 S
Eu38 O40 2.472 . S
Eu38 O41 2.507 1_556 S
Eu38 O43 2.336 1_556 S
Eu38 O44 2.389 1_556 S
Eu38 C52 2.835 . S
Eu38 O58 2.396 1_556 S
Eu38 O60 2.323 . S
Eu39 O42 2.396 1_554 S
Eu39 O45 2.323 . S
Eu39 O54 2.472 . S
Eu39 O55 2.507 1_554 S
Eu39 O57 2.336 1_554 S
Eu39 O59 2.389 1_554 S
Eu39 C67 2.835 . S
O40 Eu38 2.472 . S
O40 C52 1.258 . S
O41 Eu38 2.507 1_554 S
O41 C52 1.246 1_554 S
O42 Eu39 2.396 1_556 S
O42 C53 1.223 1_556 S
O43 Eu38 2.336 1_554 S
O43 C53 1.270 . S
O44 Eu38 2.389 1_554 S
O44 C56 1.239 . S
O45 Eu39 2.323 . S
O45 C56 1.249 . S
C46 C49 1.390 1_655 S
C46 C51 1.370 . S
C46 C52 1.489 . S
C47 C48 1.344 . S
C47 C50 1.413 1_455 S
C47 H70 0.931 . S
C48 C47 1.344 . S
C48 C49 1.423 . S
C49 C46 1.390 1_455 S
C49 C48 1.423 . S
C49 H71 0.930 1_556 S
C50 C47 1.413 1_655 S
C50 C51 1.397 . S
C51 C46 1.370 . S
C51 C50 1.397 . S
C51 H72 0.932 . S
C52 Eu38 2.835 . S
C52 O40 1.258 . S
C52 O41 1.246 1_556 S
C52 C46 1.489 . S
C53 O42 1.223 1_554 S
C53 O43 1.270 . S
O54 Eu39 2.472 . S
O54 C67 1.258 . S
O55 Eu39 2.507 1_556 S
O55 C67 1.246 1_556 S
C56 O44 1.239 . S
C56 O45 1.249 . S
O57 Eu39 2.336 1_556 S
O57 C68 1.279 1_556 S
O58 Eu38 2.396 1_554 S
O58 C68 1.216 . S
O59 Eu39 2.389 1_556 S
O59 C69 1.239 . S
O60 Eu38 2.323 . S
O60 C69 1.249 . S
C61 C63 1.370 . S
C61 C66 1.390 . S
C61 C67 1.489 . S
C62 C63 1.397 . S
C62 C64 1.413 . S
C63 C61 1.370 . S
C63 C62 1.397 . S
C63 H73 0.932 . S
C64 C62 1.413 . S
C64 C65 1.344 . S
C64 H74 0.931 . S
C65 C64 1.344 . S
C65 C66 1.423 . S
C66 C61 1.390 . S
C66 C65 1.423 . S
C66 H75 0.930 1_554 S
C67 Eu39 2.835 . S
C67 O54 1.258 . S
C67 O55 1.246 1_554 S
C67 C61 1.489 . S
C68 O57 1.279 1_554 S
C68 O58 1.216 . S
C69 O59 1.239 . S
C69 O60 1.249 . S
H70 C47 0.931 . S
H71 C49 0.930 1_554 S
H72 C51 0.932 . S
H73 C63 0.932 . S
H74 C64 0.931 . S
H75 C66 0.930 1_556 S
Eu76 O78 2.472 . S
Eu76 O79 2.507 . S
Eu76 O81 2.336 . S
Eu76 O82 2.389 . S
Eu76 C90 2.835 . S
Eu76 O96 2.396 . S
Eu76 O98 2.323 . S
Eu77 O80 2.396 . S
Eu77 O83 2.323 . S
Eu77 O92 2.472 . S
Eu77 O93 2.507 . S
Eu77 O95 2.336 . S
Eu77 O97 2.389 . S
Eu77 C105 2.835 . S
O78 Eu76 2.472 . S
O78 C90 1.258 . S
O79 Eu76 2.507 . S
O79 C90 1.246 . S
O80 Eu77 2.396 . S
O80 C91 1.216 . S
O81 Eu76 2.336 . S
O81 C91 1.279 . S
O82 Eu76 2.389 . S
O82 C94 1.239 . S
O83 Eu77 2.323 . S
O83 C94 1.249 . S
C84 C87 1.390 1_455 S
C84 C89 1.370 . S
C84 C90 1.489 . S
C85 C86 1.344 . S
C85 C88 1.413 1_655 S
C85 H108 0.931 . S
C86 C85 1.344 . S
C86 C87 1.423 . S
C87 C84 1.390 1_655 S
C87 C86 1.423 . S
C87 H109 0.930 . S
C88 C85 1.413 1_455 S
C88 C89 1.397 . S
C89 C84 1.370 . S
C89 C88 1.397 . S
C89 H110 0.932 . S
C90 Eu76 2.835 . S
C90 O78 1.258 . S
C90 O79 1.246 . S
C90 C84 1.489 . S
C91 O80 1.216 . S
C91 O81 1.279 . S
O92 Eu77 2.472 . S
O92 C105 1.258 . S
O93 Eu77 2.507 . S
O93 C105 1.246 . S
C94 O82 1.239 . S
C94 O83 1.249 . S
O95 Eu77 2.336 . S
O95 C106 1.279 . S
O96 Eu76 2.396 . S
O96 C106 1.216 . S
O97 Eu77 2.389 . S
O97 C107 1.239 . S
O98 Eu76 2.323 . S
O98 C107 1.249 . S
C99 C101 1.370 . S
C99 C104 1.390 . S
C99 C105 1.489 . S
C100 C101 1.397 . S
C100 C102 1.413 . S
C101 C99 1.370 . S
C101 C100 1.397 . S
C101 H111 0.932 . S
C102 C100 1.413 . S
C102 C103 1.344 . S
C102 H112 0.931 . S
C103 C102 1.344 . S
C103 C104 1.423 . S
C104 C99 1.390 . S
C104 C103 1.423 . S
C104 H113 0.930 . S
C105 Eu77 2.835 . S
C105 O92 1.258 . S
C105 O93 1.246 . S
C105 C99 1.489 . S
C106 O95 1.279 . S
C106 O96 1.216 . S
C107 O97 1.239 . S
C107 O98 1.249 . S
H108 C85 0.931 . S
H109 C87 0.930 . S
H110 C89 0.932 . S
H111 C101 0.932 . S
H112 C102 0.931 . S
H113 C104 0.930 . S
Eu114 O116 2.472 . S
Eu114 O117 2.507 . S
Eu114 O119 2.336 . S
Eu114 O120 2.389 . S
Eu114 C128 2.835 . S
Eu114 O134 2.396 . S
Eu114 O136 2.323 . S
Eu115 O118 2.396 . S
Eu115 O121 2.323 . S
Eu115 O130 2.472 . S
Eu115 O131 2.507 . S
Eu115 O133 2.336 . S
Eu115 O135 2.389 . S
Eu115 C143 2.835 . S
O116 Eu114 2.472 . S
O116 C128 1.258 . S
O117 Eu114 2.507 . S
O117 C128 1.246 . S
O118 Eu115 2.396 . S
O118 C129 1.216 . S
O119 Eu114 2.336 . S
O119 C129 1.279 . S
O120 Eu114 2.389 . S
O120 C132 1.239 . S
O121 Eu115 2.323 . S
O121 C132 1.249 . S
C122 C125 1.390 . S
C122 C127 1.370 . S
C122 C128 1.489 . S
C123 C124 1.344 . S
C123 C126 1.413 . S
C123 H146 0.931 . S
C124 C123 1.344 . S
C124 C125 1.423 . S
C125 C122 1.390 . S
C125 C124 1.423 . S
C125 H147 0.930 . S
C126 C123 1.413 . S
C126 C127 1.397 . S
C127 C122 1.370 . S
C127 C126 1.397 . S
C127 H148 0.932 . S
C128 Eu114 2.835 . S
C128 O116 1.258 . S
C128 O117 1.246 . S
C128 C122 1.489 . S
C129 O118 1.216 . S
C129 O119 1.279 . S
O130 Eu115 2.472 . S
O130 C143 1.258 . S
O131 Eu115 2.507 . S
O131 C143 1.246 . S
C132 O120 1.239 . S
C132 O121 1.249 . S
O133 Eu115 2.336 . S
O133 C144 1.279 . S
O134 Eu114 2.396 . S
O134 C144 1.216 . S
O135 Eu115 2.389 . S
O135 C145 1.239 . S
O136 Eu114 2.323 . S
O136 C145 1.249 . S
C137 C139 1.370 . S
C137 C142 1.390 1_655 S
C137 C143 1.489 . S
C138 C139 1.397 . S
C138 C140 1.413 1_655 S
C139 C137 1.370 . S
C139 C138 1.397 . S
C139 H149 0.932 . S
C140 C138 1.413 1_455 S
C140 C141 1.344 . S
C140 H150 0.931 . S
C141 C140 1.344 . S
C141 C142 1.423 . S
C142 C137 1.390 1_455 S
C142 C141 1.423 . S
C142 H151 0.930 . S
C143 Eu115 2.835 . S
C143 O130 1.258 . S
C143 O131 1.246 . S
C143 C137 1.489 . S
C144 O133 1.279 . S
C144 O134 1.216 . S
C145 O135 1.239 . S
C145 O136 1.249 . S
H146 C123 0.931 . S
H147 C125 0.930 . S
H148 C127 0.932 . S
H149 C139 0.932 . S
H150 C140 0.931 . S
H151 C142 0.930 . S
H152 C158 0.930 . S
H153 C161 0.930 . S
H154 C162 0.930 . S
H155 C163 0.930 . S
H156 C166 0.930 . S
H157 C167 0.930 . S
C158 H152 0.930 . S
C158 C159 1.355 1_554 S
C158 C160 1.415 . S
C159 C158 1.355 1_556 S
C159 C161 1.419 . S
C160 C158 1.415 . S
C160 C165 1.425 1_554 S
C160 C167 1.409 . S
C161 H153 0.930 . S
C161 C159 1.419 . S
C161 C162 1.362 . S
C162 H154 0.930 . S
C162 C161 1.362 . S
C162 C165 1.409 . S
C163 H155 0.930 . S
C163 C164 1.355 1_556 S
C163 C165 1.415 . S
C164 C163 1.355 1_554 S
C164 C166 1.419 . S
C165 C160 1.425 1_556 S
C165 C162 1.409 . S
C165 C163 1.415 . S
C166 H156 0.930 . S
C166 C164 1.419 . S
C166 C167 1.362 . S
C167 H157 0.930 . S
C167 C160 1.409 . S
C167 C166 1.362 . S
H168 C174 0.930 . S
H169 C177 0.930 . S
H170 C178 0.930 . S
H171 C179 0.930 . S
H172 C182 0.930 . S
H173 C183 0.930 . S
C174 H168 0.930 . S
C174 C175 1.355 . S
C174 C176 1.415 . S
C175 C174 1.355 . S
C175 C177 1.419 . S
C176 C174 1.415 . S
C176 C181 1.425 1_556 S
C176 C183 1.409 . S
C177 H169 0.930 . S
C177 C175 1.419 . S
C177 C178 1.362 1_556 S
C178 H170 0.930 . S
C178 C177 1.362 1_554 S
C178 C181 1.409 . S
C179 H171 0.930 . S
C179 C180 1.355 . S
C179 C181 1.415 . S
C180 C179 1.355 . S
C180 C182 1.419 . S
C181 C176 1.425 1_554 S
C181 C178 1.409 . S
C181 C179 1.415 . S
C182 H172 0.930 . S
C182 C180 1.419 . S
C182 C183 1.362 1_554 S
C183 H173 0.930 . S
C183 C176 1.409 . S
C183 C182 1.362 1_556 S
H184 C190 0.930 . S
H185 C193 0.930 . S
H186 C194 0.930 . S
H187 C195 0.930 . S
H188 C198 0.930 . S
H189 C199 0.930 . S
C190 H184 0.930 . S
C190 C191 1.355 . S
C190 C192 1.415 . S
C191 C190 1.355 . S
C191 C193 1.419 . S
C192 C190 1.415 . S
C192 C197 1.425 . S
C192 C199 1.409 . S
C193 H185 0.930 . S
C193 C191 1.419 . S
C193 C194 1.362 . S
C194 H186 0.930 . S
C194 C193 1.362 . S
C194 C197 1.409 . S
C195 H187 0.930 . S
C195 C196 1.355 . S
C195 C197 1.415 . S
C196 C195 1.355 . S
C196 C198 1.419 . S
C197 C192 1.425 . S
C197 C194 1.409 . S
C197 C195 1.415 . S
C198 H188 0.930 . S
C198 C196 1.419 . S
C198 C199 1.362 . S
C199 H189 0.930 . S
C199 C192 1.409 . S
C199 C198 1.362 . S
H200 C206 0.930 . S
H201 C209 0.930 . S
H202 C210 0.930 . S
H203 C211 0.930 . S
H204 C214 0.930 . S
H205 C215 0.930 . S
C206 H200 0.930 . S
C206 C207 1.355 . S
C206 C208 1.415 . S
C207 C206 1.355 . S
C207 C209 1.419 . S
C208 C206 1.415 . S
C208 C213 1.425 . S
C208 C215 1.409 . S
C209 H201 0.930 . S
C209 C207 1.419 . S
C209 C210 1.362 . S
C210 H202 0.930 . S
C210 C209 1.362 . S
C210 C213 1.409 . S
C211 H203 0.930 . S
C211 C212 1.355 . S
C211 C213 1.415 . S
C212 C211 1.355 . S
C212 C214 1.419 . S
C213 C208 1.425 . S
C213 C210 1.409 . S
C213 C211 1.415 . S
C214 H204 0.930 . S
C214 C212 1.419 . S
C214 C215 1.362 . S
C215 H205 0.930 . S
C215 C208 1.409 . S
C215 C214 1.362 . S
H216 C222 0.930 . S
H217 C225 0.930 . S
H218 C226 0.930 . S
H219 C227 0.930 . S
H220 C230 0.930 . S
H221 C231 0.930 . S
C222 H216 0.930 . S
C222 C223 1.355 1_554 S
C222 C224 1.415 . S
C223 C222 1.355 1_556 S
C223 C225 1.419 . S
C224 C222 1.415 . S
C224 C229 1.425 1_554 S
C224 C231 1.409 . S
C225 H217 0.930 . S
C225 C223 1.419 . S
C225 C226 1.362 . S
C226 H218 0.930 . S
C226 C225 1.362 . S
C226 C229 1.409 . S
C227 H219 0.930 . S
C227 C228 1.355 1_556 S
C227 C229 1.415 . S
C228 C227 1.355 1_554 S
C228 C230 1.419 . S
C229 C224 1.425 1_556 S
C229 C226 1.409 . S
C229 C227 1.415 . S
C230 H220 0.930 . S
C230 C228 1.419 . S
C230 C231 1.362 . S
C231 H221 0.930 . S
C231 C224 1.409 . S
C231 C230 1.362 . S
H232 C238 0.930 . S
H233 C241 0.930 . S
H234 C242 0.930 . S
H235 C243 0.930 . S
H236 C246 0.930 . S
H237 C247 0.930 . S
C238 H232 0.930 . S
C238 C239 1.355 . S
C238 C240 1.415 . S
C239 C238 1.355 . S
C239 C241 1.419 . S
C240 C238 1.415 . S
C240 C245 1.425 . S
C240 C247 1.409 . S
C241 H233 0.930 . S
C241 C239 1.419 . S
C241 C242 1.362 . S
C242 H234 0.930 . S
C242 C241 1.362 . S
C242 C245 1.409 . S
C243 H235 0.930 . S
C243 C244 1.355 . S
C243 C245 1.415 . S
C244 C243 1.355 . S
C244 C246 1.419 . S
C245 C240 1.425 . S
C245 C242 1.409 . S
C245 C243 1.415 . S
C246 H236 0.930 . S
C246 C244 1.419 . S
C246 C247 1.362 . S
C247 H237 0.930 . S
C247 C240 1.409 . S
C247 C246 1.362 . S
H248 C254 0.930 . S
H249 C257 0.930 . S
H250 C258 0.930 . S
H251 C259 0.930 . S
H252 C262 0.930 . S
H253 C263 0.930 . S
C254 H248 0.930 . S
C254 C255 1.356 1_556 S
C254 C256 1.415 1_455 S
C255 C254 1.356 1_554 S
C255 C257 1.421 1_545 S
C256 C254 1.415 1_655 S
C256 C261 1.425 1_646 S
C256 C263 1.409 . S
C257 H249 0.930 . S
C257 C255 1.421 1_565 S
C257 C258 1.362 . S
C258 H250 0.930 . S
C258 C257 1.362 . S
C258 C261 1.409 . S
C259 H251 0.930 . S
C259 C260 1.355 . S
C259 C261 1.415 1_655 S
C260 C259 1.355 . S
C260 C262 1.419 1_564 S
C261 C256 1.425 1_464 S
C261 C258 1.409 . S
C261 C259 1.415 1_455 S
C262 H252 0.930 . S
C262 C260 1.419 1_546 S
C262 C263 1.362 . S
C263 H253 0.930 . S
C263 C256 1.409 . S
C263 C262 1.362 . S
H264 C270 0.930 . S
H265 C273 0.930 . S
H266 C274 0.930 . S
H267 C275 0.930 . S
H268 C278 0.930 . S
H269 C279 0.930 . S
C270 H264 0.930 . S
C270 C271 1.355 . S
C270 C272 1.415 1_655 S
C271 C270 1.355 . S
C271 C273 1.419 1_545 S
C272 C270 1.415 1_455 S
C272 C277 1.425 1_445 S
C272 C279 1.409 . S
C273 H265 0.930 . S
C273 C271 1.419 1_565 S
C273 C274 1.362 . S
C274 H266 0.930 . S
C274 C273 1.362 . S
C274 C277 1.409 . S
C275 H267 0.930 . S
C275 C276 1.355 . S
C275 C277 1.415 1_455 S
C276 C275 1.355 . S
C276 C278 1.419 1_565 S
C277 C272 1.425 1_665 S
C277 C274 1.409 . S
C277 C275 1.415 1_655 S
C278 H268 0.930 . S
C278 C276 1.419 1_545 S
C278 C279 1.362 . S
C279 H269 0.930 . S
C279 C272 1.409 . S
C279 C278 1.362 . S
H280 C286 0.930 . S
H281 C289 0.930 . S
H282 C290 0.930 . S
H283 C291 0.930 . S
H284 C294 0.930 . S
H285 C295 0.930 . S
C286 H280 0.930 . S
C286 C287 1.355 . S
C286 C288 1.415 . S
C287 C286 1.355 . S
C287 C289 1.419 . S
C288 C286 1.415 . S
C288 C293 1.425 . S
C288 C295 1.409 . S
C289 H281 0.930 . S
C289 C287 1.419 . S
C289 C290 1.362 . S
C290 H282 0.930 . S
C290 C289 1.362 . S
C290 C293 1.409 . S
C291 H283 0.930 . S
C291 C292 1.355 . S
C291 C293 1.415 . S
C292 C291 1.355 . S
C292 C294 1.419 . S
C293 C288 1.425 . S
C293 C290 1.409 . S
C293 C291 1.415 . S
C294 H284 0.930 . S
C294 C292 1.419 . S
C294 C295 1.362 . S
C295 H285 0.930 . S
C295 C288 1.409 . S
C295 C294 1.362 . S
H296 C302 0.930 . S
H297 C305 0.930 . S
H298 C306 0.930 . S
H299 C307 0.930 . S
H300 C310 0.930 . S
H301 C311 0.930 . S
C302 H296 0.930 . S
C302 C303 1.355 . S
C302 C304 1.415 . S
C303 C302 1.355 . S
C303 C305 1.419 . S
C304 C302 1.415 . S
C304 C309 1.425 . S
C304 C311 1.409 . S
C305 H297 0.930 . S
C305 C303 1.419 . S
C305 C306 1.362 . S
C306 H298 0.930 . S
C306 C305 1.362 . S
C306 C309 1.409 . S
C307 H299 0.930 . S
C307 C308 1.355 . S
C307 C309 1.415 . S
C308 C307 1.355 . S
C308 C310 1.419 . S
C309 C304 1.425 . S
C309 C306 1.409 . S
C309 C307 1.415 . S
C310 H300 0.930 . S
C310 C308 1.419 . S
C310 C311 1.362 . S
C311 H301 0.930 . S
C311 C304 1.409 . S
C311 C310 1.362 . S
H312 C318 0.930 . S
H313 C321 0.930 . S
H314 C322 0.930 . S
H315 C323 0.930 . S
H316 C326 0.930 . S
H317 C327 0.930 . S
C318 H312 0.930 . S
C318 C319 1.355 . S
C318 C320 1.415 . S
C319 C318 1.355 . S
C319 C321 1.419 . S
C320 C318 1.415 . S
C320 C325 1.425 . S
C320 C327 1.409 . S
C321 H313 0.930 . S
C321 C319 1.419 . S
C321 C322 1.362 . S
C322 H314 0.930 . S
C322 C321 1.362 . S
C322 C325 1.409 . S
C323 H315 0.930 . S
C323 C324 1.355 . S
C323 C325 1.415 . S
C324 C323 1.355 . S
C324 C326 1.419 . S
C325 C320 1.425 . S
C325 C322 1.409 . S
C325 C323 1.415 . S
C326 H316 0.930 . S
C326 C324 1.419 . S
C326 C327 1.362 . S
C327 H317 0.930 . S
C327 C320 1.409 . S
C327 C326 1.362 . S
H328 C334 0.930 . S
H329 C337 0.930 . S
H330 C338 0.930 1_565 S
H331 C339 0.930 . S
H332 C342 0.930 . S
H333 C343 0.930 . S
C334 H328 0.930 . S
C334 C335 1.355 . S
C334 C336 1.415 . S
C335 C334 1.355 . S
C335 C337 1.419 . S
C336 C334 1.415 . S
C336 C341 1.425 . S
C336 C343 1.409 . S
C337 H329 0.930 . S
C337 C335 1.419 . S
C337 C338 1.362 . S
C338 H330 0.930 1_545 S
C338 C337 1.362 . S
C338 C341 1.409 . S
C339 H331 0.930 . S
C339 C340 1.355 . S
C339 C341 1.415 . S
C340 C339 1.355 . S
C340 C342 1.419 . S
C341 C336 1.425 . S
C341 C338 1.409 . S
C341 C339 1.415 . S
C342 H332 0.930 . S
C342 C340 1.419 . S
C342 C343 1.362 . S
C343 H333 0.930 . S
C343 C336 1.409 . S
C343 C342 1.362 . S
H344 C350 0.930 . S
H345 C353 0.930 . S
H346 C354 0.930 . S
H347 C355 0.930 . S
H348 C358 0.930 . S
H349 C359 0.930 . S
C350 H344 0.930 . S
C350 C351 1.355 . S
C350 C352 1.415 1_455 S
C351 C350 1.355 . S
C351 C353 1.419 . S
C352 C350 1.415 1_655 S
C352 C357 1.425 1_655 S
C352 C359 1.409 . S
C353 H345 0.930 . S
C353 C351 1.419 . S
C353 C354 1.362 . S
C354 H346 0.930 . S
C354 C353 1.362 . S
C354 C357 1.409 . S
C355 H347 0.930 . S
C355 C356 1.355 . S
C355 C357 1.415 1_655 S
C356 C355 1.355 . S
C356 C358 1.419 . S
C357 C352 1.425 1_455 S
C357 C354 1.409 . S
C357 C355 1.415 1_455 S
C358 H348 0.930 . S
C358 C356 1.419 . S
C358 C359 1.362 . S
C359 H349 0.930 . S
C359 C352 1.409 . S
C359 C358 1.362 . S
H360 C366 0.930 . S
H361 C369 0.930 . S
H362 C370 0.930 . S
H363 C371 0.930 . S
H364 C374 0.930 . S
H365 C375 0.930 . S
C366 H360 0.930 . S
C366 C367 1.355 . S
C366 C368 1.415 . S
C367 C366 1.355 . S
C367 C369 1.419 1_655 S
C368 C366 1.415 . S
C368 C373 1.425 1_655 S
C368 C375 1.409 . S
C369 H361 0.930 . S
C369 C367 1.419 1_455 S
C369 C370 1.362 . S
C370 H362 0.930 . S
C370 C369 1.362 . S
C370 C373 1.409 . S
C371 H363 0.930 . S
C371 C372 1.355 . S
C371 C373 1.415 . S
C372 C371 1.355 . S
C372 C374 1.419 1_455 S
C373 C368 1.425 1_455 S
C373 C370 1.409 . S
C373 C371 1.415 . S
C374 H364 0.930 . S
C374 C372 1.419 1_655 S
C374 C375 1.362 . S
C375 H365 0.930 . S
C375 C368 1.409 . S
C375 C374 1.362 . S
H376 C382 0.930 . S
H377 C385 0.930 . S
H378 C386 0.930 . S
H379 C387 0.930 . S
H380 C390 0.930 . S
H381 C391 0.930 . S
C382 H376 0.930 . S
C382 C383 1.355 . S
C382 C384 1.415 1_455 S
C383 C382 1.355 . S
C383 C385 1.419 . S
C384 C382 1.415 1_655 S
C384 C389 1.425 1_655 S
C384 C391 1.409 . S
C385 H377 0.930 . S
C385 C383 1.419 . S
C385 C386 1.362 . S
C386 H378 0.930 . S
C386 C385 1.362 . S
C386 C389 1.409 . S
C387 H379 0.930 . S
C387 C388 1.355 . S
C387 C389 1.415 1_655 S
C388 C387 1.355 . S
C388 C390 1.419 . S
C389 C384 1.425 1_455 S
C389 C386 1.409 . S
C389 C387 1.415 1_455 S
C390 H380 0.930 . S
C390 C388 1.419 . S
C390 C391 1.362 . S
C391 H381 0.930 . S
C391 C384 1.409 . S
C391 C390 1.362 . S
H392 C398 0.930 . S
H393 C401 0.930 . S
H394 C402 0.930 . S
H395 C403 0.930 . S
H396 C406 0.930 . S
H397 C407 0.930 . S
C398 H392 0.930 . S
C398 C399 1.355 . S
C398 C400 1.415 1_455 S
C399 C398 1.355 . S
C399 C401 1.419 . S
C400 C398 1.415 1_655 S
C400 C405 1.425 1_655 S
C400 C407 1.409 . S
C401 H393 0.930 . S
C401 C399 1.419 . S
C401 C402 1.362 . S
C402 H394 0.930 . S
C402 C401 1.362 . S
C402 C405 1.409 . S
C403 H395 0.930 . S
C403 C404 1.355 . S
C403 C405 1.415 1_655 S
C404 C403 1.355 . S
C404 C406 1.419 . S
C405 C400 1.425 1_455 S
C405 C402 1.409 . S
C405 C403 1.415 1_455 S
C406 H396 0.930 . S
C406 C404 1.419 . S
C406 C407 1.362 . S
C407 H397 0.930 . S
C407 C400 1.409 . S
C407 C406 1.362 . S
C159 C10 1.163 . S
C164 C27 1.163 . S
C175 C48 1.251 . S
C180 C65 1.251 . S
C191 C103 1.265 . S
C196 C86 1.265 . S
C207 C141 1.215 . S
C212 C124 1.215 . S
C223 C53 1.809 1_556 S
C228 C30 1.798 . S
C239 C144 1.795 . S
C244 C91 1.795 . S
C255 C15 1.786 . S
C260 C68 1.776 . S
C271 C129 1.748 . S
C276 C106 1.748 . S
C287 C132 1.092 . S
C292 C18 1.087 . S
C303 C62 1.718 . S
C308 C100 1.718 . S
C319 C107 1.081 . S
C324 C69 1.086 . S
C335 C12 1.736 . S
C340 C126 1.735 . S
C351 C94 1.135 . S
C356 C56 1.139 . S
C367 C138 1.697 . S
C372 C24 1.697 . S
C383 C31 1.139 . S
C388 C145 1.143 . S
C399 C88 1.736 . S
C404 C50 1.736 . S
