# Generated by pormake.
# Topology wfy, (7)-cn, num edge types: 1
# Building blocks:
#     Node 0, Type 0, BuildingBlock: HICVOG_clean_sbu_0, # of connection points: 7
#     Node 1, Type 0, BuildingBlock: HICVOG_clean_sbu_0, # of connection points: 7
#     Node 2, Type 0, BuildingBlock: HICVOG_clean_sbu_0, # of connection points: 7
#     Node 3, Type 0, BuildingBlock: HICVOG_clean_sbu_0, # of connection points: 7
#     Node 4, Type 0, BuildingBlock: HICVOG_clean_sbu_0, # of connection points: 7
#     Node 5, Type 0, BuildingBlock: HICVOG_clean_sbu_0, # of connection points: 7
#     Node 6, Type 0, BuildingBlock: HICVOG_clean_sbu_0, # of connection points: 7
#     Node 7, Type 0, BuildingBlock: HICVOG_clean_sbu_0, # of connection points: 7
#     Edge 8, Type (0, 0), BuildingBlock: CIFDUS_clean_linker_0, # of connection points: 2
#     Edge 9, Type (0, 0), BuildingBlock: CIFDUS_clean_linker_0, # of connection points: 2
#     Edge 10, Type (0, 0), BuildingBlock: CIFDUS_clean_linker_0, # of connection points: 2
#     Edge 11, Type (0, 0), BuildingBlock: CIFDUS_clean_linker_0, # of connection points: 2
#     Edge 12, Type (0, 0), BuildingBlock: CIFDUS_clean_linker_0, # of connection points: 2
#     Edge 13, Type (0, 0), BuildingBlock: CIFDUS_clean_linker_0, # of connection points: 2
#     Edge 14, Type (0, 0), BuildingBlock: CIFDUS_clean_linker_0, # of connection points: 2
#     Edge 15, Type (0, 0), BuildingBlock: CIFDUS_clean_linker_0, # of connection points: 2
#     Edge 16, Type (0, 0), BuildingBlock: CIFDUS_clean_linker_0, # of connection points: 2
#     Edge 17, Type (0, 0), BuildingBlock: CIFDUS_clean_linker_0, # of connection points: 2
#     Edge 18, Type (0, 0), BuildingBlock: CIFDUS_clean_linker_0, # of connection points: 2
#     Edge 19, Type (0, 0), BuildingBlock: CIFDUS_clean_linker_0, # of connection points: 2
#     Edge 20, Type (0, 0), BuildingBlock: CIFDUS_clean_linker_0, # of connection points: 2
#     Edge 21, Type (0, 0), BuildingBlock: CIFDUS_clean_linker_0, # of connection points: 2
#     Edge 22, Type (0, 0), BuildingBlock: CIFDUS_clean_linker_0, # of connection points: 2
#     Edge 23, Type (0, 0), BuildingBlock: CIFDUS_clean_linker_0, # of connection points: 2
#     Edge 24, Type (0, 0), BuildingBlock: CIFDUS_clean_linker_0, # of connection points: 2
#     Edge 25, Type (0, 0), BuildingBlock: CIFDUS_clean_linker_0, # of connection points: 2
#     Edge 26, Type (0, 0), BuildingBlock: CIFDUS_clean_linker_0, # of connection points: 2
#     Edge 27, Type (0, 0), BuildingBlock: CIFDUS_clean_linker_0, # of connection points: 2
#     Edge 28, Type (0, 0), BuildingBlock: CIFDUS_clean_linker_0, # of connection points: 2
#     Edge 29, Type (0, 0), BuildingBlock: CIFDUS_clean_linker_0, # of connection points: 2
#     Edge 30, Type (0, 0), BuildingBlock: CIFDUS_clean_linker_0, # of connection points: 2
#     Edge 31, Type (0, 0), BuildingBlock: CIFDUS_clean_linker_0, # of connection points: 2
#     Edge 32, Type (0, 0), BuildingBlock: CIFDUS_clean_linker_0, # of connection points: 2
#     Edge 33, Type (0, 0), BuildingBlock: CIFDUS_clean_linker_0, # of connection points: 2
#     Edge 34, Type (0, 0), BuildingBlock: CIFDUS_clean_linker_0, # of connection points: 2
#     Edge 35, Type (0, 0), BuildingBlock: CIFDUS_clean_linker_0, # of connection points: 2
# Relax obj value: 0.130
# Max RMSD: 0.239
# Mean RMSD: 0.239
data_MOF--net-wfy--node1-HICVOG_clean_sbu_0--edge1-CIFDUS_clean_linker_0
_symmetry_space_group_name_H-M    P1
_symmetry_Int_Tables_number       1
_symmetry_cell_setting            triclinic
loop_
_symmetry_equiv_pos_as_xyz
'x, y, z'
_cell_length_a     34.503269
_cell_length_b     34.605805
_cell_length_c     22.212822
_cell_angle_alpha  89.861499
_cell_angle_beta   90.060977
_cell_angle_gamma 90.059368
loop_
_atom_site_label
_atom_site_type_symbol
_atom_site_fract_x
_atom_site_fract_y
_atom_site_fract_z
_atom_type_partial_charge
Zn0 Zn 0.33068 0.08243 0.09261 0.0
C1 C 0.29936 0.19039 0.07005 0.0
N2 N 0.33777 0.19668 0.07595 0.0
C3 C 0.35338 0.16145 0.07084 0.0
N4 N 0.32589 0.13441 0.06299 0.0
N5 N 0.29207 0.15241 0.05971 0.0
C6 C 0.16978 0.14314 0.0363 0.0
O7 O 0.17419 0.1081 0.05809 0.0
O8 O 0.3828 0.05683 0.07804 0.0
Zn9 Zn 0.25138 0.13173 1.00633 0.0
N10 N 0.32241 0.08388 0.17851 0.0
C11 C 0.29324 0.11082 0.2656 0.0
C12 C 0.29904 0.11098 0.20362 0.0
C13 C 0.33981 0.0563 0.2126 0.0
N14 N 0.30975 0.08261 0.29952 0.0
C15 C 0.33274 0.05474 0.27506 0.0
O16 O 0.24046 0.07302 0.01535 0.0
C17 C 0.25836 0.04324 0.03494 0.0
O18 O 0.29098 0.04616 0.06099 0.0
H19 H 0.28524 0.13262 0.17591 0.0
H20 H 0.35831 0.03586 0.19013 0.0
C21 C 0.26641 0.17041 0.89034 0.0
C22 C 0.2836 0.17275 0.83255 0.0
C23 C 0.31075 0.11039 0.8477 0.0
C24 C 0.294 0.10841 0.90463 0.0
N25 N 0.2719 0.13815 0.92481 0.0
N26 N 0.30511 0.14226 0.81315 0.0
H27 H 0.24857 0.19354 0.9076 0.0
C28 C 0.40769 0.06169 0.03656 0.0
O29 O 0.40187 0.08787 0.99466 0.0
O30 O 0.19909 0.16019 0.01325 0.0
H31 H 0.29874 0.08334 0.93281 0.0
H32 H 0.27506 0.13241 0.2865 0.0
H33 H 0.32824 0.08679 0.8311 0.0
Zn34 Zn 0.13396 0.76207 0.01445 0.0
C35 C 0.16814 0.66343 0.9553 0.0
N36 N 0.20327 0.67978 0.95375 0.0
C37 C 0.19585 0.71808 0.95429 0.0
N38 N 0.15714 0.72453 0.9592 0.0
N39 N 0.14017 0.69031 0.95649 0.0
C40 C 0.07443 0.60921 0.9875 0.0
O41 O 0.09233 0.62573 0.03291 0.0
O42 O 0.15992 0.81529 0.0102 0.0
Zn43 Zn 0.08897 0.68257 0.92517 0.0
N44 N 0.14145 0.7404 0.09504 0.0
C45 C 0.11601 0.69913 0.1713 0.0
C46 C 0.11294 0.71643 0.11482 0.0
C47 C 0.17353 0.74727 0.12944 0.0
N48 N 0.1477 0.70615 0.20582 0.0
C49 C 0.17697 0.72957 0.18675 0.0
O50 O 0.04948 0.71848 0.95833 0.0
C51 C 0.04539 0.75062 0.98507 0.0
O52 O 0.07457 0.76961 1.00477 0.0
H53 H 0.088 0.71072 0.08671 0.0
H54 H 0.19565 0.7666 0.11252 0.0
C55 C 0.06143 0.67596 0.80541 0.0
C56 C 0.05955 0.68393 0.74322 0.0
C57 C 0.11666 0.72212 0.75257 0.0
C58 C 0.11729 0.71532 0.81435 0.0
N59 N 0.08979 0.69223 0.83941 0.0
N60 N 0.08775 0.70669 0.71879 0.0
H61 H 0.0407 0.65743 0.82759 0.0
C62 C 0.14291 0.84394 0.98546 0.0
O63 O 0.10899 0.83846 0.95996 0.0
O64 O 0.07019 0.62782 0.93856 0.0
H65 H 0.13963 0.72812 0.84191 0.0
H66 H 0.09339 0.68015 0.18759 0.0
H67 H 0.13853 0.74012 0.73174 0.0
Zn68 Zn 0.69112 0.93818 0.07499 0.0
C69 C 0.71411 0.82536 0.07885 0.0
N70 N 0.67681 0.82358 0.09622 0.0
C71 C 0.66378 0.8595 0.08713 0.0
N72 N 0.69182 0.88276 0.06549 0.0
N73 N 0.72339 0.86131 0.05881 0.0
C74 C 0.84269 0.8595 0.03718 0.0
O75 O 0.83697 0.8925 0.06486 0.0
O76 O 0.63986 0.96409 0.05483 0.0
Zn77 Zn 0.76405 0.87527 1.00072 0.0
N78 N 0.70059 0.94666 0.15885 0.0
C79 C 0.73592 0.93273 0.24796 0.0
C80 C 0.72885 0.92623 0.18715 0.0
C81 C 0.67938 0.97363 0.1883 0.0
N82 N 0.71544 0.9604 0.27714 0.0
C83 C 0.68738 0.9816 0.2491 0.0
O84 O 0.78088 0.93193 1.0014 0.0
C85 C 0.76643 0.96508 0.01189 0.0
O86 O 0.73298 0.96872 0.0349 0.0
H87 H 0.74546 0.90494 0.16271 0.0
H88 H 0.65698 0.98858 0.16374 0.0
C89 C 0.74847 0.83652 0.88551 0.0
C90 C 0.72996 0.8336 0.82884 0.0
C91 C 0.69748 0.89277 0.84804 0.0
C92 C 0.7156 0.89534 0.90395 0.0
N93 N 0.74095 0.86748 0.92151 0.0
N94 N 0.70514 0.86219 0.81186 0.0
H95 H 0.76899 0.81494 0.90057 0.0
C96 C 0.61143 0.95317 0.0227 0.0
O97 O 0.61256 0.91973 0.99503 0.0
O98 O 0.81449 0.8442 1.00854 0.0
H99 H 0.70956 0.91947 0.93333 0.0
H100 H 0.75803 0.91651 0.27155 0.0
H101 H 0.67743 0.91491 0.83347 0.0
Zn102 Zn 0.93377 0.33171 0.92768 0.0
C103 C 0.82459 0.30202 0.9461 0.0
N104 N 0.81963 0.33912 0.92913 0.0
C105 C 0.85515 0.35437 0.93336 0.0
N106 N 0.88101 0.32786 0.95137 0.0
N107 N 0.86214 0.29518 0.96123 0.0
C108 C 0.86613 0.17402 0.99705 0.0
O109 O 0.90283 0.17216 0.98169 0.0
O110 O 0.95203 0.38717 0.93325 0.0
Zn111 Zn 0.8826 0.25658 0.01761 0.0
N112 N 0.93604 0.3171 0.84424 0.0
C113 C 0.91532 0.27796 0.76261 0.0
C114 C 0.91303 0.2883 0.82304 0.0
C115 C 0.96165 0.33565 0.80791 0.0
N116 N 0.94167 0.29574 0.7266 0.0
C117 C 0.96548 0.32419 0.74747 0.0
O118 O 0.94175 0.24519 0.01132 0.0
C119 C 0.97235 0.26377 0.99614 0.0
O120 O 0.97046 0.29632 0.96965 0.0
H121 H 0.89295 0.27373 0.85268 0.0
H122 H 0.97889 0.35868 0.82679 0.0
C123 C 0.84365 0.26893 0.13306 0.0
C124 C 0.83905 0.28684 0.18988 0.0
C125 C 0.89682 0.3226 0.17205 0.0
C126 C 0.90092 0.30511 0.11599 0.0
N127 N 0.8745 0.27852 0.0976 0.0
N128 N 0.86621 0.31309 0.20747 0.0
H129 H 0.82342 0.24735 0.1172 0.0
C130 C 0.97738 0.39947 0.97007 0.0
O131 O 0.99254 0.37542 1.0094 0.0
O132 O 0.85192 0.2064 0.01287 0.0
H133 H 0.92497 0.31271 0.08709 0.0
H134 H 0.89693 0.2554 0.74473 0.0
H135 H 0.91776 0.34372 0.18728 0.0
Zn136 Zn 0.83278 0.5838 0.58527 0.0
C137 C 0.80262 0.69485 0.57635 0.0
N138 N 0.83943 0.69977 0.59503 0.0
C139 C 0.85504 0.66451 0.58946 0.0
N140 N 0.82895 0.63867 0.5695 0.0
N141 N 0.79628 0.65776 0.55979 0.0
C142 C 0.67696 0.66143 0.52365 0.0
O143 O 0.67537 0.62591 0.54448 0.0
O144 O 0.88794 0.56318 0.57267 0.0
Zn145 Zn 0.75872 0.64171 0.49919 0.0
N146 N 0.82068 0.57847 0.66951 0.0
C147 C 0.78151 0.59776 0.75209 0.0
C148 C 0.79054 0.59948 0.69109 0.0
C149 C 0.84135 0.55455 0.70596 0.0
N150 N 0.8017 0.57346 0.78843 0.0
C151 C 0.83116 0.55119 0.76711 0.0
O152 O 0.74498 0.58414 0.50241 0.0
C153 C 0.76035 0.55183 0.51689 0.0
O154 O 0.79312 0.55002 0.54333 0.0
H155 H 0.77382 0.61752 0.66105 0.0
H156 H 0.86504 0.53815 0.68708 0.0
C157 C 0.76774 0.67176 0.37544 0.0
C158 C 0.78983 0.67945 0.32326 0.0
C159 C 0.84258 0.64511 0.36589 0.0
C160 C 0.82054 0.63718 0.41698 0.0
N161 N 0.78391 0.65121 0.42158 0.0
N162 N 0.82685 0.66614 0.32041 0.0
H163 H 0.73843 0.68254 0.3797 0.0
C164 C 0.91122 0.57554 0.5326 0.0
O165 O 0.89946 0.6024 0.495 0.0
O166 O 0.70915 0.6743 0.50373 0.0
H167 H 0.83257 0.62021 0.4532 0.0
H168 H 0.75804 0.61487 0.77017 0.0
H169 H 0.87198 0.63453 0.36232 0.0
Zn170 Zn 0.64436 0.25907 0.52657 0.0
C171 C 0.66946 0.16516 0.44694 0.0
N172 N 0.70477 0.18093 0.4412 0.0
C173 C 0.69829 0.21893 0.44975 0.0
N174 N 0.66028 0.22558 0.46115 0.0
N175 N 0.64227 0.19199 0.45659 0.0
C176 C 0.53799 0.1176 0.47468 0.0
O177 O 0.5116 0.14426 0.48408 0.0
O178 O 0.67636 0.30889 0.52574 0.0
Zn179 Zn 0.58746 0.18431 0.44388 0.0
N180 N 0.65479 0.23057 0.60154 0.0
C181 C 0.65133 0.17023 0.65343 0.0
C182 C 0.64232 0.19328 0.60382 0.0
C183 C 0.67454 0.24624 0.64886 0.0
N184 N 0.67159 0.18557 0.7 0.0
C185 C 0.68315 0.22313 0.69964 0.0
O186 O 0.55265 0.2229 0.48623 0.0
C187 C 0.55422 0.25582 0.51191 0.0
O188 O 0.5865 0.2719 0.52504 0.0
H189 H 0.62559 0.18132 0.56726 0.0
H190 H 0.68387 0.27609 0.64671 0.0
C191 C 0.54817 0.17397 0.33214 0.0
C192 C 0.53939 0.18163 0.27137 0.0
C193 C 0.59274 0.22516 0.26756 0.0
C194 C 0.60005 0.21869 0.32841 0.0
N195 N 0.57789 0.19297 0.35927 0.0
N196 N 0.56249 0.20689 0.24076 0.0
H197 H 0.53154 0.15357 0.3583 0.0
C198 C 0.66445 0.3404 0.50239 0.0
O199 O 0.63019 0.34115 0.47654 0.0
O200 O 0.5722 0.12804 0.4605 0.0
H201 H 0.62301 0.23412 0.351 0.0
H202 H 0.64207 0.14037 0.6551 0.0
H203 H 0.61037 0.24525 0.24212 0.0
Zn204 Zn 0.18868 0.42992 0.58433 0.0
C205 C 0.21955 0.31872 0.58397 0.0
N206 N 0.18279 0.31452 0.60331 0.0
C207 C 0.16777 0.34992 0.59648 0.0
N208 N 0.1941 0.37506 0.57561 0.0
N209 N 0.22646 0.35558 0.5661 0.0
C210 C 0.34178 0.34977 0.52663 0.0
O211 O 0.3425 0.38417 0.55149 0.0
O212 O 0.13244 0.44592 0.56993 0.0
Zn213 Zn 0.26077 0.37007 0.50026 0.0
N214 N 0.20021 0.44048 0.66743 0.0
C215 C 0.23741 0.42806 0.75539 0.0
C216 C 0.22867 0.42016 0.69547 0.0
C217 C 0.18053 0.46883 0.69636 0.0
N218 N 0.21847 0.45709 0.78392 0.0
C219 C 0.1904 0.47828 0.75601 0.0
O220 O 0.27474 0.42793 0.4982 0.0
C221 C 0.25934 0.46056 0.51066 0.0
O222 O 0.22696 0.46288 0.53798 0.0
H223 H 0.24433 0.39802 0.67145 0.0
H224 H 0.15788 0.48389 0.67241 0.0
C225 C 0.24866 0.33863 0.37857 0.0
C226 C 0.22538 0.32823 0.32876 0.0
C227 C 0.17118 0.35725 0.37599 0.0
C228 C 0.19432 0.36785 0.42471 0.0
N229 N 0.23241 0.35779 0.42592 0.0
N230 N 0.18712 0.33761 0.32942 0.0
H231 H 0.27905 0.33096 0.38013 0.0
C232 C 0.12243 0.47967 0.55315 0.0
O233 O 0.14948 0.5052 0.54066 0.0
O234 O 0.3103 0.33776 0.50315 0.0
H235 H 0.18177 0.38373 0.46162 0.0
H236 H 0.25968 0.41188 0.77868 0.0
H237 H 0.14073 0.36465 0.37514 0.0
Zn238 Zn 0.37415 0.75402 0.5149 0.0
C239 C 0.3532 0.85 0.42369 0.0
N240 N 0.31785 0.83466 0.41638 0.0
C241 C 0.3223 0.79786 0.43487 0.0
N242 N 0.35924 0.79122 0.45282 0.0
N243 N 0.3787 0.82381 0.4443 0.0
C244 C 0.44165 0.90636 0.48433 0.0
O245 O 0.41424 0.89434 0.52077 0.0
O246 O 0.34161 0.70434 0.50937 0.0
Zn247 Zn 0.43402 0.8281 0.43088 0.0
N248 N 0.36294 0.77968 0.59167 0.0
C249 C 0.36718 0.83917 0.64518 0.0
C250 C 0.37629 0.81653 0.5954 0.0
C251 C 0.34202 0.76384 0.63773 0.0
N252 N 0.34586 0.82375 0.69053 0.0
C253 C 0.33325 0.78653 0.68879 0.0
O254 O 0.46705 0.7886 0.47468 0.0
C255 C 0.46481 0.75604 0.5015 0.0
O256 O 0.43216 0.74067 0.51469 0.0
H257 H 0.39369 0.82829 0.55953 0.0
H258 H 0.33191 0.7343 0.63435 0.0
C259 C 0.4644 0.83676 0.31032 0.0
C260 C 0.46804 0.82639 0.24922 0.0
C261 C 0.42224 0.7759 0.26478 0.0
C262 C 0.41993 0.78542 0.32542 0.0
N263 N 0.44061 0.81586 0.34682 0.0
N264 N 0.44634 0.79629 0.22845 0.0
H265 H 0.48001 0.86097 0.32911 0.0
C266 C 0.35463 0.67222 0.48988 0.0
O267 O 0.39046 0.67063 0.4701 0.0
O268 O 0.45457 0.88336 0.44445 0.0
H269 H 0.40157 0.76887 0.35527 0.0
H270 H 0.3772 0.86874 0.64793 0.0
H271 H 0.40554 0.75208 0.24686 0.0
H272 H 0.36548 0.98455 0.24142 0.0
H273 H 0.33012 0.05005 0.39785 0.0
H274 H 0.33877 0.99295 0.4605 0.0
H275 H 0.34598 0.92211 0.46758 0.0
H276 H 0.37915 0.85786 0.31027 0.0
H277 H 0.38258 0.91729 0.25138 0.0
C278 C 0.36043 0.98736 0.28916 0.0
C279 C 0.34611 0.02204 0.31394 0.0
C280 C 0.36507 0.95434 0.32506 0.0
C281 C 0.34027 0.02378 0.3767 0.0
C282 C 0.34519 0.99106 0.41284 0.0
C283 C 0.35531 0.92156 0.42096 0.0
C284 C 0.36372 0.88612 0.39353 0.0
C285 C 0.356 0.95582 0.38702 0.0
C286 C 0.37439 0.88514 0.33274 0.0
C287 C 0.37565 0.91906 0.29888 0.0
H288 H 0.98732 0.65628 0.77753 0.0
H289 H 0.05622 0.68358 0.62034 0.0
H290 H 0.99943 0.67487 0.55665 0.0
H291 H 0.92831 0.66905 0.5477 0.0
H292 H 0.86077 0.64262 0.70528 0.0
H293 H 0.91939 0.6404 0.76662 0.0
C294 C 0.99086 0.65929 0.72941 0.0
C295 C 0.02651 0.67125 0.70447 0.0
C296 C 0.95806 0.65439 0.69286 0.0
C297 C 0.02921 0.67513 0.64142 0.0
C298 C 0.99669 0.67013 0.60471 0.0
C299 C 0.92684 0.6614 0.59503 0.0
C300 C 0.89069 0.65458 0.62181 0.0
C301 C 0.96068 0.66118 0.63023 0.0
C302 C 0.88857 0.64619 0.68346 0.0
C303 C 0.92203 0.64559 0.71866 0.0
H304 H 0.63824 0.14476 0.34178 0.0
H305 H 0.68627 0.09867 0.50559 0.0
H306 H 0.68898 0.03406 0.46062 0.0
H307 H 0.68816 0.99447 0.36951 0.0
H308 H 0.64599 0.04432 0.20281 0.0
H309 H 0.62882 0.1028 0.25479 0.0
C310 C 0.64758 0.12017 0.36829 0.0
C311 C 0.66146 0.12584 0.4268 0.0
C312 C 0.65054 0.08381 0.3413 0.0
C313 C 0.67511 0.09441 0.46047 0.0
C314 C 0.67689 0.0577 0.43463 0.0
C315 C 0.67471 0.01782 0.34445 0.0
C316 C 0.66922 0.01448 0.28181 0.0
C317 C 0.6664 0.05255 0.37409 0.0
C318 C 0.65091 0.04508 0.25077 0.0
C319 C 0.64124 0.07915 0.28047 0.0
H320 H 0.03442 0.35864 0.78021 0.0
H321 H 0.96834 0.32242 0.6247 0.0
H322 H 0.02459 0.33384 0.56065 0.0
H323 H 0.09534 0.34366 0.55224 0.0
H324 H 0.16041 0.37653 0.7094 0.0
H325 H 0.10121 0.37858 0.76905 0.0
C326 C 0.03134 0.35447 0.7322 0.0
C327 C 0.99688 0.33917 0.70779 0.0
C328 C 0.06387 0.36058 0.69573 0.0
C329 C 0.99458 0.33355 0.64513 0.0
C330 C 0.02676 0.34009 0.60833 0.0
C331 C 0.09606 0.35254 0.59904 0.0
C332 C 0.13171 0.36082 0.62643 0.0
C333 C 0.06201 0.35201 0.63359 0.0
C334 C 0.13297 0.37141 0.68721 0.0
C335 C 0.0992 0.37191 0.72149 0.0
H336 H 0.85878 0.48029 0.73535 0.0
H337 H 0.83969 0.55384 0.88916 0.0
H338 H 0.85262 0.49949 0.95673 0.0
H339 H 0.85804 0.4287 0.97086 0.0
H340 H 0.87038 0.356 0.81517 0.0
H341 H 0.87304 0.41238 0.74968 0.0
C342 C 0.85886 0.48507 0.78353 0.0
C343 C 0.84807 0.52118 0.80703 0.0
C344 C 0.86508 0.45353 0.82195 0.0
C345 C 0.84755 0.52622 0.86986 0.0
C346 C 0.85483 0.49513 0.90856 0.0
C347 C 0.86257 0.4256 0.9228 0.0
C348 C 0.86526 0.38857 0.89772 0.0
C349 C 0.86189 0.45826 0.88502 0.0
C350 C 0.86997 0.38437 0.83542 0.0
C351 C 0.87077 0.41661 0.79789 0.0
H352 H 0.52598 0.17567 0.15113 0.0
H353 H 0.472 0.15333 0.32355 0.0
H354 H 0.41166 0.1379 0.27387 0.0
H355 H 0.37114 0.14219 0.18411 0.0
H356 H 0.42199 0.1692 0.01255 0.0
H357 H 0.48644 0.17208 0.05915 0.0
C358 C 0.50123 0.16689 0.17794 0.0
C359 C 0.50414 0.16588 0.24126 0.0
C360 C 0.46575 0.15936 0.14918 0.0
C361 C 0.47157 0.15403 0.27493 0.0
C362 C 0.43654 0.14554 0.24652 0.0
C363 C 0.39655 0.14658 0.15652 0.0
C364 C 0.39227 0.15392 0.09484 0.0
C365 C 0.43297 0.14945 0.18403 0.0
C366 C 0.42502 0.16245 0.05997 0.0
C367 C 0.46169 0.16442 0.08672 0.0
H368 H 0.18844 0.49169 0.87651 0.0
H369 H 0.15656 0.54344 0.70589 0.0
H370 H 0.14023 0.60298 0.75612 0.0
H371 H 0.1464 0.64392 0.84441 0.0
H372 H 0.18191 0.59581 0.01416 0.0
H373 H 0.18635 0.53142 0.9683 0.0
C374 C 0.17736 0.51576 0.85032 0.0
C375 C 0.17395 0.51253 0.78726 0.0
C376 C 0.16928 0.55087 0.87925 0.0
C377 C 0.15915 0.54414 0.75436 0.0
C378 C 0.15015 0.57873 0.78301 0.0
C379 C 0.15307 0.61905 0.87193 0.0
C380 C 0.16261 0.62409 0.93263 0.0
C381 C 0.15647 0.58279 0.84489 0.0
C382 C 0.17383 0.59215 0.96738 0.0
C383 C 0.17655 0.55554 0.94108 0.0
H384 H 0.53502 0.86605 0.27801 0.0
H385 H 0.46701 0.82653 0.12657 0.0
H386 H 0.52068 0.84089 0.05903 0.0
H387 H 0.59069 0.85211 0.04677 0.0
H388 H 0.65831 0.88853 0.19912 0.0
H389 H 0.60072 0.88937 0.26204 0.0
C390 C 0.53101 0.8618 0.23016 0.0
C391 C 0.49694 0.84438 0.20797 0.0
C392 C 0.56219 0.86967 0.19143 0.0
C393 C 0.49312 0.83905 0.14539 0.0
C394 C 0.52383 0.84727 0.10654 0.0
C395 C 0.59225 0.86219 0.09293 0.0
C396 C 0.62831 0.87227 0.11754 0.0
C397 C 0.55912 0.86079 0.12952 0.0
C398 C 0.63056 0.8832 0.1782 0.0
C399 C 0.59767 0.88265 0.21464 0.0
H400 H 0.48154 0.0814 1.00691 0.0
H401 H 0.41065 0.98517 0.06266 0.0
H402 H 0.4669 0.94223 0.05901 0.0
H403 H 0.53678 0.93219 0.04148 0.0
H404 H 0.60907 0.0298 0.99763 0.0
H405 H 0.5521 0.07202 0.99467 0.0
C406 C 0.47853 0.05097 0.01785 0.0
C407 C 0.44207 0.0363 0.03437 0.0
C408 C 0.51128 0.02673 0.01764 0.0
C409 C 0.43851 0.99704 0.04975 0.0
C410 C 0.47061 0.97247 0.04753 0.0
C411 C 0.53982 0.96264 0.03071 0.0
C412 C 0.57674 0.9779 0.01875 0.0
C413 C 0.50717 0.98698 0.03161 0.0
C414 C 0.58073 0.01752 1.00645 0.0
C415 C 0.54822 0.04162 1.00485 0.0
H416 H 0.02971 0.43562 0.04277 0.0
H417 H 0.95549 0.45481 0.88891 0.0
H418 H 0.97931 0.52099 0.88031 0.0
H419 H 0.02175 0.57334 0.91564 0.0
H420 H 0.09465 0.55488 0.07102 0.0
H421 H 0.07097 0.4885 0.07957 0.0
C422 C 0.01866 0.45427 1.00742 0.0
C423 C 0.99094 0.44011 0.96648 0.0
C424 C 0.03238 0.49244 1.00281 0.0
C425 C 0.97687 0.46483 0.92107 0.0
C426 C 0.99053 0.50273 0.916 0.0
C427 C 0.03249 0.55478 0.95135 0.0
C428 C 0.05992 0.56905 0.99266 0.0
C429 C 0.01841 0.51679 0.95643 0.0
C430 C 0.07337 0.5447 0.03886 0.0
C431 C 0.05989 0.5067 0.04372 0.0
H432 H 0.94177 0.509 0.57985 0.0
H433 H 0.97273 0.6123 0.48178 0.0
H434 H 0.04032 0.59187 0.47945 0.0
H435 H 0.09095 0.54493 0.50522 0.0
H436 H 0.06038 0.44028 0.59999 0.0
H437 H 0.99258 0.4607 0.60306 0.0
C438 C 0.96333 0.52697 0.5579 0.0
C439 C 0.95209 0.56212 0.53091 0.0
C440 C 1.00229 0.5147 0.55583 0.0
C441 C 0.98041 0.58497 0.50246 0.0
C442 C 0.01917 0.57336 0.50122 0.0
C443 C 0.06948 0.52649 0.5264 0.0
C444 C 0.08088 0.49111 0.55231 0.0
C445 C 0.03046 0.53828 0.52764 0.0
C446 C 0.0525 0.46756 0.57935 0.0
C447 C 0.01367 0.4793 0.58135 0.0
H448 H 0.47125 0.0855 0.51678 0.0
H449 H 0.57945 0.05607 0.43124 0.0
H450 H 0.55918 0.98841 0.42516 0.0
H451 H 0.50992 0.93735 0.44298 0.0
H452 H 0.40312 0.96733 0.53226 0.0
H453 H 0.42345 0.03471 0.53747 0.0
C454 C 0.49053 0.0643 0.49703 0.0
C455 C 0.52684 0.07601 0.47454 0.0
C456 C 0.4788 0.02537 0.49404 0.0
C457 C 0.55143 0.04796 0.44927 0.0
C458 C 0.53976 0.00921 0.44552 0.0
C459 C 0.49117 0.95867 0.4636 0.0
C460 C 0.45504 0.94718 0.48727 0.0
C461 C 0.5034 0.99755 0.46751 0.0
C462 C 0.43118 0.97518 0.5141 0.0
C463 C 0.44275 0.01384 0.51702 0.0
H464 H 0.24739 0.32831 0.69439 0.0
H465 H 0.25154 0.25171 0.54231 0.0
H466 H 0.27555 0.19947 0.60737 0.0
H467 H 0.28428 0.17326 0.70998 0.0
H468 H 0.27325 0.24933 0.86289 0.0
H469 H 0.26211 0.30388 0.79542 0.0
C470 C 0.25543 0.30069 0.67508 0.0
C471 C 0.24879 0.29407 0.6134 0.0
C472 C 0.2662 0.27025 0.71354 0.0
C473 C 0.25754 0.25773 0.58924 0.0
C474 C 0.27044 0.22771 0.62678 0.0
C475 C 0.27985 0.20184 0.72865 0.0
C476 C 0.27864 0.20677 0.79177 0.0
C477 C 0.27302 0.23318 0.68944 0.0
C478 C 0.27305 0.24417 0.81485 0.0
C479 C 0.26717 0.27558 0.77617 0.0
H480 H 0.17789 0.7285 0.30938 0.0
H481 H 0.25302 0.7437 0.15571 0.0
H482 H 0.30745 0.75707 0.2226 0.0
H483 H 0.33176 0.77217 0.32341 0.0
H484 H 0.25598 0.76364 0.47653 0.0
H485 H 0.20422 0.73805 0.41183 0.0
C486 C 0.20626 0.73435 0.29044 0.0
C487 C 0.21092 0.73601 0.22728 0.0
C488 C 0.23751 0.74248 0.32934 0.0
C489 C 0.24804 0.74346 0.20381 0.0
C490 C 0.27939 0.75065 0.24215 0.0
C491 C 0.30449 0.76291 0.34299 0.0
C492 C 0.29795 0.76866 0.40487 0.0
C493 C 0.27426 0.75108 0.30483 0.0
C494 C 0.26197 0.75835 0.4294 0.0
C495 C 0.2322 0.7445 0.3921 0.0
H496 H 0.77617 0.6834 0.68673 0.0
H497 H 0.76858 0.76176 0.53665 0.0
H498 H 0.74141 0.81168 0.60285 0.0
H499 H 0.73005 0.83557 0.70632 0.0
H500 H 0.74459 0.75761 0.85675 0.0
H501 H 0.75935 0.70497 0.78775 0.0
C502 C 0.76664 0.7107 0.66795 0.0
C503 C 0.77309 0.71854 0.6066 0.0
C504 C 0.75388 0.73979 0.707 0.0
C505 C 0.76272 0.75477 0.58333 0.0
C506 C 0.74795 0.78347 0.62149 0.0
C507 C 0.73605 0.80695 0.72398 0.0
C508 C 0.7371 0.80089 0.78687 0.0
C509 C 0.74509 0.7768 0.6839 0.0
C510 C 0.74476 0.76355 0.80887 0.0
C511 C 0.75277 0.73326 0.76935 0.0
H512 H 0.83732 0.29386 0.31227 0.0
H513 H 0.76548 0.26097 0.16128 0.0
H514 H 0.71329 0.24368 0.22977 0.0
H515 H 0.69026 0.23173 0.33226 0.0
H516 H 0.76194 0.26097 0.48407 0.0
H517 H 0.81151 0.28718 0.41569 0.0
C518 C 0.81015 0.28323 0.29415 0.0
C519 C 0.80608 0.27781 0.23134 0.0
C520 C 0.77996 0.27325 0.33405 0.0
C521 C 0.77038 0.26422 0.20912 0.0
C522 C 0.74015 0.25475 0.24835 0.0
C523 C 0.71597 0.24546 0.35044 0.0
C524 C 0.72199 0.24561 0.41312 0.0
C525 C 0.74488 0.25848 0.31081 0.0
C526 C 0.75628 0.26159 0.4361 0.0
C527 C 0.7848 0.27596 0.39689 0.0
H528 H 0.82057 0.74196 0.26618 0.0
H529 H 0.72359 0.66337 0.26226 0.0
H530 H 0.69742 0.69666 0.17384 0.0
H531 H 0.69886 0.75118 0.10414 0.0
H532 H 0.78781 0.83777 0.12145 0.0
H533 H 0.822 0.79732 0.19467 0.0
C534 C 0.79375 0.73222 0.24569 0.0
C535 C 0.77369 0.70059 0.27093 0.0
C536 C 0.77818 0.75241 0.19605 0.0
C537 C 0.73905 0.68808 0.24421 0.0
C538 C 0.72434 0.70687 0.19337 0.0
C539 C 0.72638 0.76071 0.1226 0.0
C540 C 0.74146 0.79699 0.1055 0.0
C541 C 0.74332 0.73939 0.16954 0.0
C542 C 0.77668 0.80921 0.1309 0.0
C543 C 0.79551 0.78656 0.17449 0.0
H544 H 0.74896 0.3123 0.92412 0.0
H545 H 0.84076 0.22908 0.90309 0.0
H546 H 0.80216 0.19431 0.82841 0.0
H547 H 0.74706 0.19445 0.75605 0.0
H548 H 0.66292 0.28627 0.76441 0.0
H549 H 0.69435 0.31196 0.85461 0.0
C550 C 0.76012 0.28586 0.90449 0.0
C551 C 0.79752 0.27299 0.92037 0.0
C552 C 0.73975 0.26872 0.8568 0.0
C553 C 0.8116 0.23891 0.89393 0.0
C554 C 0.78993 0.21969 0.84962 0.0
C555 C 0.7357 0.22003 0.77792 0.0
C556 C 0.70308 0.23886 0.75334 0.0
C557 C 0.75483 0.23545 0.82862 0.0
C558 C 0.68843 0.27185 0.7819 0.0
C559 C 0.70616 0.28626 0.83376 0.0
H560 H 0.19619 0.26507 0.27158 0.0
H561 H 0.28969 0.34773 0.26484 0.0
H562 H 0.31497 0.31692 0.17405 0.0
H563 H 0.31335 0.26426 0.10157 0.0
H564 H 0.22759 0.1742 0.11914 0.0
H565 H 0.19487 0.21122 0.1977 0.0
C566 C 0.2221 0.27623 0.25005 0.0
C567 C 0.24138 0.30835 0.2752 0.0
C568 C 0.23717 0.25755 0.1988 0.0
C569 C 0.27484 0.32264 0.247 0.0
C570 C 0.28903 0.30526 0.19477 0.0
C571 C 0.287 0.25294 0.12159 0.0
C572 C 0.27265 0.21661 0.10323 0.0
C573 C 0.27073 0.27245 0.17078 0.0
C574 C 0.23859 0.20256 0.13028 0.0
C575 C 0.22046 0.22332 0.17658 0.0
H576 H 0.26879 0.70147 0.91844 0.0
H577 H 0.18095 0.78965 0.90328 0.0
H578 H 0.21752 0.8203 0.82174 0.0
H579 H 0.27071 0.81719 0.74614 0.0
H580 H 0.35045 0.72139 0.75146 0.0
H581 H 0.31978 0.69737 0.84344 0.0
C582 C 0.25768 0.72777 0.89813 0.0
C583 C 0.22206 0.74331 0.9179 0.0
C584 C 0.27679 0.74292 0.8476 0.0
C585 C 0.20858 0.77747 0.89059 0.0
C586 C 0.22912 0.7945 0.84281 0.0
C587 C 0.28113 0.79096 0.76749 0.0
C588 C 0.31249 0.77074 0.74178 0.0
C589 C 0.26251 0.77665 0.81949 0.0
C590 C 0.32592 0.73694 0.76977 0.0
C591 C 0.30866 0.72349 0.82269 0.0
H592 H 0.18961 0.02144 0.98129 0.0
H593 H 0.28948 0.97542 0.07446 0.0
H594 H 0.26342 0.91051 0.06625 0.0
H595 H 0.21209 0.86609 0.03432 0.0
H596 H 0.11195 0.911 0.94115 0.0
H597 H 0.13833 0.97635 0.94753 0.0
C598 C 0.20568 0.99723 0.99973 0.0
C599 C 0.2415 1.00373 0.02855 0.0
C600 C 0.19051 0.95943 0.9949 0.0
C601 C 0.26184 0.97172 0.05204 0.0
C602 C 0.24698 0.93433 0.04742 0.0
C603 C 0.19605 0.89011 0.01521 0.0
C604 C 0.16003 0.88343 0.98743 0.0
C605 C 0.21132 0.92778 0.01915 0.0
C606 C 0.13977 0.9151 0.96286 0.0
C607 C 0.15481 0.95262 0.96655 0.0
H608 H 0.02064 0.81448 0.04788 0.0
H609 H 0.97912 0.72101 0.93646 0.0
H610 H 0.91326 0.74515 0.9444 0.0
H611 H 0.86688 0.79359 0.98065 0.0
H612 H 0.90777 0.88698 0.09244 0.0
H613 H 0.97368 0.86198 0.0869 0.0
C614 C 0.99721 0.79937 0.0254 0.0
C615 C 1.00523 0.76598 0.99153 0.0
C616 C 0.95892 0.81335 0.0302 0.0
C617 C 0.97419 0.74677 0.96295 0.0
C618 C 0.93628 0.76055 0.96738 0.0
C619 C 0.89014 0.80834 1.00413 0.0
C620 C 0.88217 0.84221 0.03671 0.0
C621 C 0.92825 0.79389 1.00063 0.0
C622 C 0.91285 0.86087 0.06687 0.0
C623 C 0.95073 0.84664 0.06366 0.0
H624 H 0.74318 0.03982 0.02406 0.0
H625 H 0.8423 0.97058 0.97527 0.0
H626 H 0.88146 0.02912 0.96432 0.0
H627 H 0.88829 0.09985 0.97294 0.0
H628 H 0.78891 0.16845 0.02266 0.0
H629 H 0.74924 0.11019 0.02876 0.0
C630 C 0.7733 0.03738 0.0107 0.0
C631 C 0.7897 1.00063 1.00077 0.0
C632 C 0.79572 0.0711 1.00491 0.0
C633 C 0.8288 0.99834 0.98321 0.0
C634 C 0.85128 0.03185 0.9771 0.0
C635 C 0.85791 0.10212 0.98484 0.0
C636 C 0.84176 0.13858 0.99775 0.0
C637 C 0.83517 0.06837 0.98851 0.0
C638 C 0.80226 0.14085 0.01287 0.0
C639 C 0.77949 0.10751 0.01635 0.0
H640 H 0.99233 0.19147 0.03874 0.0
H641 H 0.0419 0.29865 0.97479 0.0
H642 H 0.10659 0.27163 0.98269 0.0
H643 H 0.14985 0.21691 1.00389 0.0
H644 H 0.10111 0.10977 0.06873 0.0
H645 H 0.03617 0.13741 0.06452 0.0
C646 C 0.01726 0.20902 0.02698 0.0
C647 C 0.01178 0.24704 1.00581 0.0
C648 C 0.05494 0.19325 0.03148 0.0
C649 C 0.04477 0.26921 0.99088 0.0
C650 C 0.08205 0.2538 0.99532 0.0
C651 C 0.12506 0.19963 0.0173 0.0
C652 C 0.13058 0.16121 0.03624 0.0
C653 C 0.08755 0.21572 0.01488 0.0
C654 C 0.09796 0.13942 0.05384 0.0
C655 C 0.06063 0.15519 0.05139 0.0
H656 H 0.645 0.41307 0.46479 0.0
H657 H 0.73758 0.34863 0.54873 0.0
H658 H 0.77572 0.4078 0.55852 0.0
H659 H 0.78213 0.47812 0.54617 0.0
H660 H 0.68923 0.54277 0.46324 0.0
H661 H 0.65214 0.48325 0.45003 0.0
C662 C 0.67359 0.41186 0.48503 0.0
C663 C 0.68822 0.37629 0.50621 0.0
C664 C 0.69538 0.44613 0.49081 0.0
C665 C 0.7254 0.37549 0.53224 0.0
C666 C 0.74729 0.40938 0.53786 0.0
C667 C 0.75386 0.47931 0.52485 0.0
C668 C 0.73864 0.51518 0.50583 0.0
C669 C 0.73247 0.44492 0.51773 0.0
C670 C 0.70185 0.5158 0.47838 0.0
C671 C 0.68052 0.48169 0.47087 0.0
H672 H 0.41449 0.36956 0.5642 0.0
H673 H 0.35018 0.2766 0.48173 0.0
H674 H 0.40968 0.23888 0.47228 0.0
H675 H 0.48033 0.23311 0.48403 0.0
H676 H 0.54473 0.32655 0.56531 0.0
H677 H 0.48485 0.36297 0.57876 0.0
C678 C 0.41337 0.34097 0.54441 0.0
C679 C 0.37776 0.32611 0.52347 0.0
C680 C 0.44781 0.31945 0.53876 0.0
C681 C 0.37708 0.28893 0.49802 0.0
C682 C 0.41116 0.26729 0.49258 0.0
C683 C 0.48137 0.26133 0.50508 0.0
C684 C 0.51729 0.27694 0.52349 0.0
C685 C 0.44676 0.28238 0.51229 0.0
C686 C 0.51773 0.31366 0.55061 0.0
C687 C 0.48341 0.33462 0.55826 0.0
H688 H 0.23592 0.5349 0.53152 0.0
H689 H 0.33158 0.46892 0.46032 0.0
H690 H 0.36862 0.52839 0.44565 0.0
H691 H 0.37518 0.59891 0.45712 0.0
H692 H 0.27971 0.66469 0.52915 0.0
H693 H 0.24145 0.60556 0.53912 0.0
C694 C 0.26478 0.53339 0.51237 0.0
C695 C 0.28081 0.49713 0.49725 0.0
C696 C 0.28614 0.56777 0.50442 0.0
C697 C 0.31831 0.49616 0.47241 0.0
C698 C 0.33963 0.53025 0.46413 0.0
C699 C 0.34592 0.60044 0.47471 0.0
C700 C 0.33055 0.6364 0.49266 0.0
C701 C 0.32404 0.56619 0.48061 0.0
C702 C 0.29248 0.63757 0.51519 0.0
C703 C 0.27052 0.60369 0.52095 0.0
H704 H 0.6034 0.64087 0.55627 0.0
H705 H 0.66952 0.73586 0.48286 0.0
H706 H 0.61023 0.77379 0.47187 0.0
H707 H 0.53935 0.77923 0.47938 0.0
H708 H 0.47309 0.68402 0.55205 0.0
H709 H 0.53268 0.64723 0.56721 0.0
C710 C 0.60496 0.66995 0.53815 0.0
C711 C 0.64106 0.6853 0.52014 0.0
C712 C 0.57063 0.69163 0.53165 0.0
C713 C 0.64229 0.72313 0.49689 0.0
C714 C 0.60832 0.74489 0.49055 0.0
C715 C 0.53781 0.75051 0.49889 0.0
C716 C 0.50145 0.73454 0.51434 0.0
C717 C 0.57227 0.72931 0.5072 0.0
C718 C 0.50042 0.69723 0.53965 0.0
C719 C 0.53457 0.67606 0.54825 0.0
loop_
_geom_bond_atom_site_label_1
_geom_bond_atom_site_label_2
_geom_bond_distance
_geom_bond_site_symmetry_2
_ccdc_geom_bond_type
Zn0 N4 2.020 . S
Zn0 O8 2.019 . S
Zn0 N10 2.119 . S
Zn0 O18 1.975 . S
C1 N2 1.334 . S
C1 N5 1.336 . S
N2 C1 1.334 . S
N2 C3 1.334 . S
C3 N2 1.334 . S
C3 N4 1.336 . S
N4 Zn0 2.020 . S
N4 C3 1.336 . S
N4 N5 1.354 . S
N5 C1 1.336 . S
N5 N4 1.354 . S
N5 Zn9 2.020 . S
C6 O7 1.244 . S
C6 O30 1.257 . S
O7 C6 1.244 . S
O8 Zn0 2.019 . S
O8 C28 1.257 . S
Zn9 N5 2.020 . S
Zn9 O16 1.975 . S
Zn9 N25 2.119 1_554 S
Zn9 O30 2.019 . S
N10 Zn0 2.119 . S
N10 C12 1.334 . S
N10 C13 1.328 1_545 S
C11 C12 1.391 1_565 S
C11 N14 1.329 . S
C11 H32 0.930 1_565 S
C12 N10 1.334 . S
C12 C11 1.391 1_545 S
C12 H19 0.930 . S
C13 N10 1.328 1_565 S
C13 C15 1.392 . S
C13 H20 0.930 . S
N14 C11 1.329 . S
N14 C15 1.331 . S
C15 C13 1.392 . S
C15 N14 1.331 . S
O16 Zn9 1.975 . S
O16 C17 1.252 1_554 S
C17 O16 1.252 1_556 S
C17 O18 1.252 1_556 S
O18 Zn0 1.975 . S
O18 C17 1.252 1_554 S
H19 C12 0.930 . S
H20 C13 0.930 . S
C21 C22 1.392 . S
C21 N25 1.328 . S
C21 H27 0.930 . S
C22 C21 1.392 . S
C22 N26 1.331 . S
C23 C24 1.391 . S
C23 N26 1.329 . S
C23 H33 0.930 . S
C24 C23 1.391 . S
C24 N25 1.334 . S
C24 H31 0.930 . S
N25 Zn9 2.119 1_556 S
N25 C21 1.328 . S
N25 C24 1.334 . S
N26 C22 1.331 . S
N26 C23 1.329 . S
H27 C21 0.930 . S
C28 O8 1.257 . S
C28 O29 1.244 . S
O29 C28 1.244 . S
O30 C6 1.257 . S
O30 Zn9 2.019 . S
H31 C24 0.930 . S
H32 C11 0.930 1_545 S
H33 C23 0.930 . S
Zn34 N38 2.020 . S
Zn34 O42 2.019 . S
Zn34 N44 2.119 1_556 S
Zn34 O52 1.975 . S
C35 N36 1.334 . S
C35 N39 1.336 . S
N36 C35 1.334 . S
N36 C37 1.334 . S
C37 N36 1.334 . S
C37 N38 1.336 . S
N38 Zn34 2.020 . S
N38 C37 1.336 . S
N38 N39 1.354 . S
N39 C35 1.336 . S
N39 N38 1.354 . S
N39 Zn43 2.020 . S
C40 O41 1.244 . S
C40 O64 1.257 . S
O41 C40 1.244 . S
O42 Zn34 2.019 . S
O42 C62 1.257 . S
Zn43 N39 2.020 . S
Zn43 O50 1.975 . S
Zn43 N59 2.119 . S
Zn43 O64 2.019 . S
N44 Zn34 2.119 1_554 S
N44 C46 1.334 . S
N44 C47 1.328 . S
C45 C46 1.391 . S
C45 N48 1.329 . S
C45 H66 0.930 . S
C46 N44 1.334 . S
C46 C45 1.391 . S
C46 H53 0.930 . S
C47 N44 1.328 . S
C47 C49 1.392 . S
C47 H54 0.930 . S
N48 C45 1.329 . S
N48 C49 1.331 . S
C49 C47 1.392 . S
C49 N48 1.331 . S
O50 Zn43 1.975 . S
O50 C51 1.252 1_556 S
C51 O50 1.252 1_554 S
C51 O52 1.252 1_554 S
O52 Zn34 1.975 . S
O52 C51 1.252 1_556 S
H53 C46 0.930 . S
H54 C47 0.930 . S
C55 C56 1.392 . S
C55 N59 1.328 1_655 S
C55 H61 0.930 . S
C56 C55 1.392 . S
C56 N60 1.331 . S
C57 C58 1.391 1_655 S
C57 N60 1.329 . S
C57 H67 0.930 1_655 S
C58 C57 1.391 1_455 S
C58 N59 1.334 . S
C58 H65 0.930 . S
N59 Zn43 2.119 . S
N59 C55 1.328 1_455 S
N59 C58 1.334 . S
N60 C56 1.331 . S
N60 C57 1.329 . S
H61 C55 0.930 . S
C62 O42 1.257 . S
C62 O63 1.244 . S
O63 C62 1.244 . S
O64 C40 1.257 . S
O64 Zn43 2.019 . S
H65 C58 0.930 . S
H66 C45 0.930 . S
H67 C57 0.930 1_455 S
Zn68 N72 2.020 . S
Zn68 O76 2.019 . S
Zn68 N78 2.119 . S
Zn68 O86 1.975 . S
C69 N70 1.334 . S
C69 N73 1.336 . S
N70 C69 1.334 . S
N70 C71 1.334 . S
C71 N70 1.334 . S
C71 N72 1.336 . S
N72 Zn68 2.020 . S
N72 C71 1.336 . S
N72 N73 1.354 . S
N73 C69 1.336 . S
N73 N72 1.354 . S
N73 Zn77 2.020 . S
C74 O75 1.244 . S
C74 O98 1.257 . S
O75 C74 1.244 . S
O76 Zn68 2.019 . S
O76 C96 1.257 . S
Zn77 N73 2.020 . S
Zn77 O84 1.975 . S
Zn77 N93 2.119 1_554 S
Zn77 O98 2.019 . S
N78 Zn68 2.119 . S
N78 C80 1.334 . S
N78 C81 1.328 1_565 S
C79 C80 1.391 1_545 S
C79 N82 1.329 . S
C79 H100 0.930 1_545 S
C80 N78 1.334 . S
C80 C79 1.391 1_565 S
C80 H87 0.930 . S
C81 N78 1.328 1_545 S
C81 C83 1.392 . S
C81 H88 0.930 . S
N82 C79 1.329 . S
N82 C83 1.331 . S
C83 C81 1.392 . S
C83 N82 1.331 . S
O84 Zn77 1.975 . S
O84 C85 1.252 1_554 S
C85 O84 1.252 1_556 S
C85 O86 1.252 1_556 S
O86 Zn68 1.975 . S
O86 C85 1.252 1_554 S
H87 C80 0.930 . S
H88 C81 0.930 . S
C89 C90 1.392 . S
C89 N93 1.328 . S
C89 H95 0.930 . S
C90 C89 1.392 . S
C90 N94 1.331 . S
C91 C92 1.391 . S
C91 N94 1.329 . S
C91 H101 0.930 . S
C92 C91 1.391 . S
C92 N93 1.334 . S
C92 H99 0.930 . S
N93 Zn77 2.119 1_556 S
N93 C89 1.328 . S
N93 C92 1.334 . S
N94 C90 1.331 . S
N94 C91 1.329 . S
H95 C89 0.930 . S
C96 O76 1.257 . S
C96 O97 1.244 . S
O97 C96 1.244 . S
O98 C74 1.257 . S
O98 Zn77 2.019 . S
H99 C92 0.930 . S
H100 C79 0.930 1_565 S
H101 C91 0.930 . S
Zn102 N106 2.020 . S
Zn102 O110 2.019 . S
Zn102 N112 2.119 . S
Zn102 O120 1.975 . S
C103 N104 1.334 . S
C103 N107 1.336 . S
N104 C103 1.334 . S
N104 C105 1.334 . S
C105 N104 1.334 . S
C105 N106 1.336 . S
N106 Zn102 2.020 . S
N106 C105 1.336 . S
N106 N107 1.354 . S
N107 C103 1.336 . S
N107 N106 1.354 . S
N107 Zn111 2.020 . S
C108 O109 1.244 . S
C108 O132 1.257 . S
O109 C108 1.244 . S
O110 Zn102 2.019 . S
O110 C130 1.257 . S
Zn111 N107 2.020 . S
Zn111 O118 1.975 . S
Zn111 N127 2.119 1_556 S
Zn111 O132 2.019 . S
N112 Zn102 2.119 . S
N112 C114 1.334 . S
N112 C115 1.328 1_655 S
C113 C114 1.391 1_455 S
C113 N116 1.329 . S
C113 H134 0.930 1_455 S
C114 N112 1.334 . S
C114 C113 1.391 1_655 S
C114 H121 0.930 . S
C115 N112 1.328 1_455 S
C115 C117 1.392 . S
C115 H122 0.930 . S
N116 C113 1.329 . S
N116 C117 1.331 . S
C117 C115 1.392 . S
C117 N116 1.331 . S
O118 Zn111 1.975 . S
O118 C119 1.252 1_556 S
C119 O118 1.252 1_554 S
C119 O120 1.252 1_554 S
O120 Zn102 1.975 . S
O120 C119 1.252 1_556 S
H121 C114 0.930 . S
H122 C115 0.930 . S
C123 C124 1.392 . S
C123 N127 1.328 . S
C123 H129 0.930 . S
C124 C123 1.392 . S
C124 N128 1.331 . S
C125 C126 1.391 . S
C125 N128 1.329 . S
C125 H135 0.930 . S
C126 C125 1.391 . S
C126 N127 1.334 . S
C126 H133 0.930 . S
N127 Zn111 2.119 1_554 S
N127 C123 1.328 . S
N127 C126 1.334 . S
N128 C124 1.331 . S
N128 C125 1.329 . S
H129 C123 0.930 . S
C130 O110 1.257 . S
C130 O131 1.244 . S
O131 C130 1.244 . S
O132 C108 1.257 . S
O132 Zn111 2.019 . S
H133 C126 0.930 . S
H134 C113 0.930 1_655 S
H135 C125 0.930 . S
Zn136 N140 2.020 . S
Zn136 O144 2.019 . S
Zn136 N146 2.119 . S
Zn136 O154 1.975 . S
C137 N138 1.334 . S
C137 N141 1.336 . S
N138 C137 1.334 . S
N138 C139 1.334 . S
C139 N138 1.334 . S
C139 N140 1.336 . S
N140 Zn136 2.020 . S
N140 C139 1.336 . S
N140 N141 1.354 . S
N141 C137 1.336 . S
N141 N140 1.354 . S
N141 Zn145 2.020 . S
C142 O143 1.244 . S
C142 O166 1.257 . S
O143 C142 1.244 . S
O144 Zn136 2.019 . S
O144 C164 1.257 . S
Zn145 N141 2.020 . S
Zn145 O152 1.975 . S
Zn145 N161 2.119 . S
Zn145 O166 2.019 . S
N146 Zn136 2.119 . S
N146 C148 1.334 . S
N146 C149 1.328 . S
C147 C148 1.391 . S
C147 N150 1.329 . S
C147 H168 0.930 . S
C148 N146 1.334 . S
C148 C147 1.391 . S
C148 H155 0.930 . S
C149 N146 1.328 . S
C149 C151 1.392 . S
C149 H156 0.930 . S
N150 C147 1.329 . S
N150 C151 1.331 . S
C151 C149 1.392 . S
C151 N150 1.331 . S
O152 Zn145 1.975 . S
O152 C153 1.252 . S
C153 O152 1.252 . S
C153 O154 1.252 . S
O154 Zn136 1.975 . S
O154 C153 1.252 . S
H155 C148 0.930 . S
H156 C149 0.930 . S
C157 C158 1.392 . S
C157 N161 1.328 . S
C157 H163 0.930 . S
C158 C157 1.392 . S
C158 N162 1.331 . S
C159 C160 1.391 . S
C159 N162 1.329 . S
C159 H169 0.930 . S
C160 C159 1.391 . S
C160 N161 1.334 . S
C160 H167 0.930 . S
N161 Zn145 2.119 . S
N161 C157 1.328 . S
N161 C160 1.334 . S
N162 C158 1.331 . S
N162 C159 1.329 . S
H163 C157 0.930 . S
C164 O144 1.257 . S
C164 O165 1.244 . S
O165 C164 1.244 . S
O166 C142 1.257 . S
O166 Zn145 2.019 . S
H167 C160 0.930 . S
H168 C147 0.930 . S
H169 C159 0.930 . S
Zn170 N174 2.020 . S
Zn170 O178 2.019 . S
Zn170 N180 2.119 . S
Zn170 O188 1.975 . S
C171 N172 1.334 . S
C171 N175 1.336 . S
N172 C171 1.334 . S
N172 C173 1.334 . S
C173 N172 1.334 . S
C173 N174 1.336 . S
N174 Zn170 2.020 . S
N174 C173 1.336 . S
N174 N175 1.354 . S
N175 C171 1.336 . S
N175 N174 1.354 . S
N175 Zn179 2.020 . S
C176 O177 1.244 . S
C176 O200 1.257 . S
O177 C176 1.244 . S
O178 Zn170 2.019 . S
O178 C198 1.257 . S
Zn179 N175 2.020 . S
Zn179 O186 1.975 . S
Zn179 N195 2.119 . S
Zn179 O200 2.019 . S
N180 Zn170 2.119 . S
N180 C182 1.334 . S
N180 C183 1.328 . S
C181 C182 1.391 . S
C181 N184 1.329 . S
C181 H202 0.930 . S
C182 N180 1.334 . S
C182 C181 1.391 . S
C182 H189 0.930 . S
C183 N180 1.328 . S
C183 C185 1.392 . S
C183 H190 0.930 . S
N184 C181 1.329 . S
N184 C185 1.331 . S
C185 C183 1.392 . S
C185 N184 1.331 . S
O186 Zn179 1.975 . S
O186 C187 1.252 . S
C187 O186 1.252 . S
C187 O188 1.252 . S
O188 Zn170 1.975 . S
O188 C187 1.252 . S
H189 C182 0.930 . S
H190 C183 0.930 . S
C191 C192 1.392 . S
C191 N195 1.328 . S
C191 H197 0.930 . S
C192 C191 1.392 . S
C192 N196 1.331 . S
C193 C194 1.391 . S
C193 N196 1.329 . S
C193 H203 0.930 . S
C194 C193 1.391 . S
C194 N195 1.334 . S
C194 H201 0.930 . S
N195 Zn179 2.119 . S
N195 C191 1.328 . S
N195 C194 1.334 . S
N196 C192 1.331 . S
N196 C193 1.329 . S
H197 C191 0.930 . S
C198 O178 1.257 . S
C198 O199 1.244 . S
O199 C198 1.244 . S
O200 C176 1.257 . S
O200 Zn179 2.019 . S
H201 C194 0.930 . S
H202 C181 0.930 . S
H203 C193 0.930 . S
Zn204 N208 2.020 . S
Zn204 O212 2.019 . S
Zn204 N214 2.119 . S
Zn204 O222 1.975 . S
C205 N206 1.334 . S
C205 N209 1.336 . S
N206 C205 1.334 . S
N206 C207 1.334 . S
C207 N206 1.334 . S
C207 N208 1.336 . S
N208 Zn204 2.020 . S
N208 C207 1.336 . S
N208 N209 1.354 . S
N209 C205 1.336 . S
N209 N208 1.354 . S
N209 Zn213 2.020 . S
C210 O211 1.244 . S
C210 O234 1.257 . S
O211 C210 1.244 . S
O212 Zn204 2.019 . S
O212 C232 1.257 . S
Zn213 N209 2.020 . S
Zn213 O220 1.975 . S
Zn213 N229 2.119 . S
Zn213 O234 2.019 . S
N214 Zn204 2.119 . S
N214 C216 1.334 . S
N214 C217 1.328 . S
C215 C216 1.391 . S
C215 N218 1.329 . S
C215 H236 0.930 . S
C216 N214 1.334 . S
C216 C215 1.391 . S
C216 H223 0.930 . S
C217 N214 1.328 . S
C217 C219 1.392 . S
C217 H224 0.930 . S
N218 C215 1.329 . S
N218 C219 1.331 . S
C219 C217 1.392 . S
C219 N218 1.331 . S
O220 Zn213 1.975 . S
O220 C221 1.252 . S
C221 O220 1.252 . S
C221 O222 1.252 . S
O222 Zn204 1.975 . S
O222 C221 1.252 . S
H223 C216 0.930 . S
H224 C217 0.930 . S
C225 C226 1.392 . S
C225 N229 1.328 . S
C225 H231 0.930 . S
C226 C225 1.392 . S
C226 N230 1.331 . S
C227 C228 1.391 . S
C227 N230 1.329 . S
C227 H237 0.930 . S
C228 C227 1.391 . S
C228 N229 1.334 . S
C228 H235 0.930 . S
N229 Zn213 2.119 . S
N229 C225 1.328 . S
N229 C228 1.334 . S
N230 C226 1.331 . S
N230 C227 1.329 . S
H231 C225 0.930 . S
C232 O212 1.257 . S
C232 O233 1.244 . S
O233 C232 1.244 . S
O234 C210 1.257 . S
O234 Zn213 2.019 . S
H235 C228 0.930 . S
H236 C215 0.930 . S
H237 C227 0.930 . S
Zn238 N242 2.020 . S
Zn238 O246 2.019 . S
Zn238 N248 2.119 . S
Zn238 O256 1.975 . S
C239 N240 1.334 . S
C239 N243 1.336 . S
N240 C239 1.334 . S
N240 C241 1.334 . S
C241 N240 1.334 . S
C241 N242 1.336 . S
N242 Zn238 2.020 . S
N242 C241 1.336 . S
N242 N243 1.354 . S
N243 C239 1.336 . S
N243 N242 1.354 . S
N243 Zn247 2.020 . S
C244 O245 1.244 . S
C244 O268 1.257 . S
O245 C244 1.244 . S
O246 Zn238 2.019 . S
O246 C266 1.257 . S
Zn247 N243 2.020 . S
Zn247 O254 1.975 . S
Zn247 N263 2.119 . S
Zn247 O268 2.019 . S
N248 Zn238 2.119 . S
N248 C250 1.334 . S
N248 C251 1.328 . S
C249 C250 1.391 . S
C249 N252 1.329 . S
C249 H270 0.930 . S
C250 N248 1.334 . S
C250 C249 1.391 . S
C250 H257 0.930 . S
C251 N248 1.328 . S
C251 C253 1.392 . S
C251 H258 0.930 . S
N252 C249 1.329 . S
N252 C253 1.331 . S
C253 C251 1.392 . S
C253 N252 1.331 . S
O254 Zn247 1.975 . S
O254 C255 1.252 . S
C255 O254 1.252 . S
C255 O256 1.252 . S
O256 Zn238 1.975 . S
O256 C255 1.252 . S
H257 C250 0.930 . S
H258 C251 0.930 . S
C259 C260 1.392 . S
C259 N263 1.328 . S
C259 H265 0.930 . S
C260 C259 1.392 . S
C260 N264 1.331 . S
C261 C262 1.391 . S
C261 N264 1.329 . S
C261 H271 0.930 . S
C262 C261 1.391 . S
C262 N263 1.334 . S
C262 H269 0.930 . S
N263 Zn247 2.119 . S
N263 C259 1.328 . S
N263 C262 1.334 . S
N264 C260 1.331 . S
N264 C261 1.329 . S
H265 C259 0.930 . S
C266 O246 1.257 . S
C266 O267 1.244 . S
O267 C266 1.244 . S
O268 C244 1.257 . S
O268 Zn247 2.019 . S
H269 C262 0.930 . S
H270 C249 0.930 . S
H271 C261 0.930 . S
H272 C278 0.930 . S
H273 C281 0.930 . S
H274 C282 0.930 . S
H275 C283 0.930 . S
H276 C286 0.930 . S
H277 C287 0.930 . S
C278 H272 0.930 . S
C278 C279 1.355 . S
C278 C280 1.415 . S
C279 C278 1.355 . S
C279 C281 1.419 . S
C280 C278 1.415 . S
C280 C285 1.425 . S
C280 C287 1.409 . S
C281 H273 0.930 . S
C281 C279 1.419 . S
C281 C282 1.362 . S
C282 H274 0.930 . S
C282 C281 1.362 . S
C282 C285 1.409 . S
C283 H275 0.930 . S
C283 C284 1.355 . S
C283 C285 1.415 . S
C284 C283 1.355 . S
C284 C286 1.419 . S
C285 C280 1.425 . S
C285 C282 1.409 . S
C285 C283 1.415 . S
C286 H276 0.930 . S
C286 C284 1.419 . S
C286 C287 1.362 . S
C287 H277 0.930 . S
C287 C280 1.409 . S
C287 C286 1.362 . S
H288 C294 0.930 . S
H289 C297 0.930 . S
H290 C298 0.930 . S
H291 C299 0.930 . S
H292 C302 0.930 . S
H293 C303 0.930 . S
C294 H288 0.930 . S
C294 C295 1.355 . S
C294 C296 1.415 . S
C295 C294 1.355 . S
C295 C297 1.419 . S
C296 C294 1.415 . S
C296 C301 1.425 . S
C296 C303 1.409 . S
C297 H289 0.930 . S
C297 C295 1.419 . S
C297 C298 1.362 . S
C298 H290 0.930 . S
C298 C297 1.362 . S
C298 C301 1.409 . S
C299 H291 0.930 . S
C299 C300 1.355 . S
C299 C301 1.415 . S
C300 C299 1.355 . S
C300 C302 1.419 . S
C301 C296 1.425 . S
C301 C298 1.409 . S
C301 C299 1.415 . S
C302 H292 0.930 . S
C302 C300 1.419 . S
C302 C303 1.362 . S
C303 H293 0.930 . S
C303 C296 1.409 . S
C303 C302 1.362 . S
H304 C310 0.930 . S
H305 C313 0.930 . S
H306 C314 0.930 . S
H307 C315 0.930 . S
H308 C318 0.930 . S
H309 C319 0.930 . S
C310 H304 0.930 . S
C310 C311 1.355 . S
C310 C312 1.415 . S
C311 C310 1.355 . S
C311 C313 1.419 . S
C312 C310 1.415 . S
C312 C317 1.425 . S
C312 C319 1.409 . S
C313 H305 0.930 . S
C313 C311 1.419 . S
C313 C314 1.362 . S
C314 H306 0.930 . S
C314 C313 1.362 . S
C314 C317 1.409 . S
C315 H307 0.930 . S
C315 C316 1.355 . S
C315 C317 1.415 . S
C316 C315 1.355 . S
C316 C318 1.419 . S
C317 C312 1.425 . S
C317 C314 1.409 . S
C317 C315 1.415 . S
C318 H308 0.930 . S
C318 C316 1.419 . S
C318 C319 1.362 . S
C319 H309 0.930 . S
C319 C312 1.409 . S
C319 C318 1.362 . S
H320 C326 0.930 . S
H321 C329 0.930 . S
H322 C330 0.930 . S
H323 C331 0.930 . S
H324 C334 0.930 . S
H325 C335 0.930 . S
C326 H320 0.930 . S
C326 C327 1.355 . S
C326 C328 1.415 . S
C327 C326 1.355 . S
C327 C329 1.419 . S
C328 C326 1.415 . S
C328 C333 1.425 . S
C328 C335 1.409 . S
C329 H321 0.930 . S
C329 C327 1.419 . S
C329 C330 1.362 . S
C330 H322 0.930 . S
C330 C329 1.362 . S
C330 C333 1.409 . S
C331 H323 0.930 . S
C331 C332 1.355 . S
C331 C333 1.415 . S
C332 C331 1.355 . S
C332 C334 1.419 . S
C333 C328 1.425 . S
C333 C330 1.409 . S
C333 C331 1.415 . S
C334 H324 0.930 . S
C334 C332 1.419 . S
C334 C335 1.362 . S
C335 H325 0.930 . S
C335 C328 1.409 . S
C335 C334 1.362 . S
H336 C342 0.930 . S
H337 C345 0.930 . S
H338 C346 0.930 . S
H339 C347 0.930 . S
H340 C350 0.930 . S
H341 C351 0.930 . S
C342 H336 0.930 . S
C342 C343 1.355 . S
C342 C344 1.415 . S
C343 C342 1.355 . S
C343 C345 1.419 . S
C344 C342 1.415 . S
C344 C349 1.425 . S
C344 C351 1.409 . S
C345 H337 0.930 . S
C345 C343 1.419 . S
C345 C346 1.362 . S
C346 H338 0.930 . S
C346 C345 1.362 . S
C346 C349 1.409 . S
C347 H339 0.930 . S
C347 C348 1.355 . S
C347 C349 1.415 . S
C348 C347 1.355 . S
C348 C350 1.419 . S
C349 C344 1.425 . S
C349 C346 1.409 . S
C349 C347 1.415 . S
C350 H340 0.930 . S
C350 C348 1.419 . S
C350 C351 1.362 . S
C351 H341 0.930 . S
C351 C344 1.409 . S
C351 C350 1.362 . S
H352 C358 0.930 . S
H353 C361 0.930 . S
H354 C362 0.930 . S
H355 C363 0.930 . S
H356 C366 0.930 . S
H357 C367 0.930 . S
C358 H352 0.930 . S
C358 C359 1.355 . S
C358 C360 1.415 . S
C359 C358 1.355 . S
C359 C361 1.419 . S
C360 C358 1.415 . S
C360 C365 1.425 . S
C360 C367 1.409 . S
C361 H353 0.930 . S
C361 C359 1.419 . S
C361 C362 1.362 . S
C362 H354 0.930 . S
C362 C361 1.362 . S
C362 C365 1.409 . S
C363 H355 0.930 . S
C363 C364 1.355 . S
C363 C365 1.415 . S
C364 C363 1.355 . S
C364 C366 1.419 . S
C365 C360 1.425 . S
C365 C362 1.409 . S
C365 C363 1.415 . S
C366 H356 0.930 . S
C366 C364 1.419 . S
C366 C367 1.362 . S
C367 H357 0.930 . S
C367 C360 1.409 . S
C367 C366 1.362 . S
H368 C374 0.930 . S
H369 C377 0.930 . S
H370 C378 0.930 . S
H371 C379 0.930 . S
H372 C382 0.930 . S
H373 C383 0.930 . S
C374 H368 0.930 . S
C374 C375 1.355 . S
C374 C376 1.415 . S
C375 C374 1.355 . S
C375 C377 1.419 . S
C376 C374 1.415 . S
C376 C381 1.425 . S
C376 C383 1.409 . S
C377 H369 0.930 . S
C377 C375 1.419 . S
C377 C378 1.362 . S
C378 H370 0.930 . S
C378 C377 1.362 . S
C378 C381 1.409 . S
C379 H371 0.930 . S
C379 C380 1.355 . S
C379 C381 1.415 . S
C380 C379 1.355 . S
C380 C382 1.419 . S
C381 C376 1.425 . S
C381 C378 1.409 . S
C381 C379 1.415 . S
C382 H372 0.930 . S
C382 C380 1.419 . S
C382 C383 1.362 . S
C383 H373 0.930 . S
C383 C376 1.409 . S
C383 C382 1.362 . S
H384 C390 0.930 . S
H385 C393 0.930 . S
H386 C394 0.930 . S
H387 C395 0.930 . S
H388 C398 0.930 . S
H389 C399 0.930 . S
C390 H384 0.930 . S
C390 C391 1.355 . S
C390 C392 1.415 . S
C391 C390 1.355 . S
C391 C393 1.419 . S
C392 C390 1.415 . S
C392 C397 1.425 . S
C392 C399 1.409 . S
C393 H385 0.930 . S
C393 C391 1.419 . S
C393 C394 1.362 . S
C394 H386 0.930 . S
C394 C393 1.362 . S
C394 C397 1.409 . S
C395 H387 0.930 . S
C395 C396 1.355 . S
C395 C397 1.415 . S
C396 C395 1.355 . S
C396 C398 1.419 . S
C397 C392 1.425 . S
C397 C394 1.409 . S
C397 C395 1.415 . S
C398 H388 0.930 . S
C398 C396 1.419 . S
C398 C399 1.362 . S
C399 H389 0.930 . S
C399 C392 1.409 . S
C399 C398 1.362 . S
H400 C406 0.930 . S
H401 C409 0.930 . S
H402 C410 0.930 . S
H403 C411 0.930 . S
H404 C414 0.930 . S
H405 C415 0.930 . S
C406 H400 0.930 . S
C406 C407 1.355 . S
C406 C408 1.415 . S
C407 C406 1.355 . S
C407 C409 1.419 1_545 S
C408 C406 1.415 . S
C408 C413 1.425 1_545 S
C408 C415 1.409 . S
C409 H401 0.930 . S
C409 C407 1.419 1_565 S
C409 C410 1.362 . S
C410 H402 0.930 . S
C410 C409 1.362 . S
C410 C413 1.409 . S
C411 H403 0.930 . S
C411 C412 1.355 . S
C411 C413 1.415 . S
C412 C411 1.355 . S
C412 C414 1.419 1_565 S
C413 C408 1.425 1_565 S
C413 C410 1.409 . S
C413 C411 1.415 . S
C414 H404 0.930 . S
C414 C412 1.419 1_545 S
C414 C415 1.362 . S
C415 H405 0.930 . S
C415 C408 1.409 . S
C415 C414 1.362 . S
H416 C422 0.935 . S
H417 C425 0.930 . S
H418 C426 0.930 . S
H419 C427 0.930 . S
H420 C430 0.929 . S
H421 C431 0.930 1_554 S
C422 H416 0.935 . S
C422 C423 1.355 1_455 S
C422 C424 1.415 . S
C423 C422 1.355 1_655 S
C423 C425 1.419 . S
C424 C422 1.415 . S
C424 C429 1.425 1_455 S
C424 C431 1.409 . S
C425 H417 0.930 . S
C425 C423 1.419 . S
C425 C426 1.362 . S
C426 H418 0.930 . S
C426 C425 1.362 . S
C426 C429 1.409 . S
C427 H419 0.930 . S
C427 C428 1.355 1_655 S
C427 C429 1.415 . S
C428 C427 1.355 1_455 S
C428 C430 1.419 . S
C429 C424 1.425 1_655 S
C429 C426 1.409 . S
C429 C427 1.415 . S
C430 H420 0.929 . S
C430 C428 1.419 . S
C430 C431 1.362 . S
C431 H421 0.930 1_556 S
C431 C424 1.409 . S
C431 C430 1.362 . S
H432 C438 0.930 . S
H433 C441 0.930 . S
H434 C442 0.930 1_455 S
H435 C443 0.930 . S
H436 C446 0.930 . S
H437 C447 0.930 1_655 S
C438 H432 0.930 . S
C438 C439 1.355 . S
C438 C440 1.415 . S
C439 C438 1.355 . S
C439 C441 1.419 . S
C440 C438 1.415 . S
C440 C445 1.425 1_655 S
C440 C447 1.409 1_655 S
C441 H433 0.930 . S
C441 C439 1.419 . S
C441 C442 1.362 . S
C442 H434 0.930 1_655 S
C442 C441 1.362 . S
C442 C445 1.409 1_655 S
C443 H435 0.930 . S
C443 C444 1.355 . S
C443 C445 1.415 . S
C444 C443 1.355 . S
C444 C446 1.419 . S
C445 C440 1.425 1_455 S
C445 C442 1.409 1_455 S
C445 C443 1.415 . S
C446 H436 0.930 . S
C446 C444 1.419 . S
C446 C447 1.362 . S
C447 H437 0.930 1_455 S
C447 C440 1.409 1_455 S
C447 C446 1.362 . S
H448 C454 0.930 . S
H449 C457 0.930 . S
H450 C458 0.930 1_565 S
H451 C459 0.930 . S
H452 C462 0.930 . S
H453 C463 0.930 1_545 S
C454 H448 0.930 . S
C454 C455 1.355 . S
C454 C456 1.415 . S
C455 C454 1.355 . S
C455 C457 1.419 . S
C456 C454 1.415 . S
C456 C461 1.425 1_545 S
C456 C463 1.409 1_545 S
C457 H449 0.930 . S
C457 C455 1.419 . S
C457 C458 1.362 . S
C458 H450 0.930 1_545 S
C458 C457 1.362 . S
C458 C461 1.409 1_545 S
C459 H451 0.930 . S
C459 C460 1.355 . S
C459 C461 1.415 . S
C460 C459 1.355 . S
C460 C462 1.419 . S
C461 C456 1.425 1_565 S
C461 C458 1.409 1_565 S
C461 C459 1.415 . S
C462 H452 0.930 . S
C462 C460 1.419 . S
C462 C463 1.362 . S
C463 H453 0.930 1_565 S
C463 C456 1.409 1_565 S
C463 C462 1.362 . S
H464 C470 0.930 . S
H465 C473 0.930 . S
H466 C474 0.930 . S
H467 C475 0.930 . S
H468 C478 0.930 . S
H469 C479 0.930 . S
C470 H464 0.930 . S
C470 C471 1.355 . S
C470 C472 1.415 . S
C471 C470 1.355 . S
C471 C473 1.419 . S
C472 C470 1.415 . S
C472 C477 1.425 . S
C472 C479 1.409 . S
C473 H465 0.930 . S
C473 C471 1.419 . S
C473 C474 1.362 . S
C474 H466 0.930 . S
C474 C473 1.362 . S
C474 C477 1.409 . S
C475 H467 0.930 . S
C475 C476 1.355 . S
C475 C477 1.415 . S
C476 C475 1.355 . S
C476 C478 1.419 . S
C477 C472 1.425 . S
C477 C474 1.409 . S
C477 C475 1.415 . S
C478 H468 0.930 . S
C478 C476 1.419 . S
C478 C479 1.362 . S
C479 H469 0.930 . S
C479 C472 1.409 . S
C479 C478 1.362 . S
H480 C486 0.930 . S
H481 C489 0.930 . S
H482 C490 0.930 . S
H483 C491 0.930 . S
H484 C494 0.930 . S
H485 C495 0.930 . S
C486 H480 0.930 . S
C486 C487 1.355 . S
C486 C488 1.415 . S
C487 C486 1.355 . S
C487 C489 1.419 . S
C488 C486 1.415 . S
C488 C493 1.425 . S
C488 C495 1.409 . S
C489 H481 0.930 . S
C489 C487 1.419 . S
C489 C490 1.362 . S
C490 H482 0.930 . S
C490 C489 1.362 . S
C490 C493 1.409 . S
C491 H483 0.930 . S
C491 C492 1.355 . S
C491 C493 1.415 . S
C492 C491 1.355 . S
C492 C494 1.419 . S
C493 C488 1.425 . S
C493 C490 1.409 . S
C493 C491 1.415 . S
C494 H484 0.930 . S
C494 C492 1.419 . S
C494 C495 1.362 . S
C495 H485 0.930 . S
C495 C488 1.409 . S
C495 C494 1.362 . S
H496 C502 0.930 . S
H497 C505 0.930 . S
H498 C506 0.930 . S
H499 C507 0.930 . S
H500 C510 0.930 . S
H501 C511 0.930 . S
C502 H496 0.930 . S
C502 C503 1.355 . S
C502 C504 1.415 . S
C503 C502 1.355 . S
C503 C505 1.419 . S
C504 C502 1.415 . S
C504 C509 1.425 . S
C504 C511 1.409 . S
C505 H497 0.930 . S
C505 C503 1.419 . S
C505 C506 1.362 . S
C506 H498 0.930 . S
C506 C505 1.362 . S
C506 C509 1.409 . S
C507 H499 0.930 . S
C507 C508 1.355 . S
C507 C509 1.415 . S
C508 C507 1.355 . S
C508 C510 1.419 . S
C509 C504 1.425 . S
C509 C506 1.409 . S
C509 C507 1.415 . S
C510 H500 0.930 . S
C510 C508 1.419 . S
C510 C511 1.362 . S
C511 H501 0.930 . S
C511 C504 1.409 . S
C511 C510 1.362 . S
H512 C518 0.930 . S
H513 C521 0.930 . S
H514 C522 0.930 . S
H515 C523 0.930 . S
H516 C526 0.930 . S
H517 C527 0.930 . S
C518 H512 0.930 . S
C518 C519 1.355 . S
C518 C520 1.415 . S
C519 C518 1.355 . S
C519 C521 1.419 . S
C520 C518 1.415 . S
C520 C525 1.425 . S
C520 C527 1.409 . S
C521 H513 0.930 . S
C521 C519 1.419 . S
C521 C522 1.362 . S
C522 H514 0.930 . S
C522 C521 1.362 . S
C522 C525 1.409 . S
C523 H515 0.930 . S
C523 C524 1.355 . S
C523 C525 1.415 . S
C524 C523 1.355 . S
C524 C526 1.419 . S
C525 C520 1.425 . S
C525 C522 1.409 . S
C525 C523 1.415 . S
C526 H516 0.930 . S
C526 C524 1.419 . S
C526 C527 1.362 . S
C527 H517 0.930 . S
C527 C520 1.409 . S
C527 C526 1.362 . S
H528 C534 0.930 . S
H529 C537 0.930 . S
H530 C538 0.930 . S
H531 C539 0.930 . S
H532 C542 0.930 . S
H533 C543 0.930 . S
C534 H528 0.930 . S
C534 C535 1.355 . S
C534 C536 1.415 . S
C535 C534 1.355 . S
C535 C537 1.419 . S
C536 C534 1.415 . S
C536 C541 1.425 . S
C536 C543 1.409 . S
C537 H529 0.930 . S
C537 C535 1.419 . S
C537 C538 1.362 . S
C538 H530 0.930 . S
C538 C537 1.362 . S
C538 C541 1.409 . S
C539 H531 0.930 . S
C539 C540 1.355 . S
C539 C541 1.415 . S
C540 C539 1.355 . S
C540 C542 1.419 . S
C541 C536 1.425 . S
C541 C538 1.409 . S
C541 C539 1.415 . S
C542 H532 0.930 . S
C542 C540 1.419 . S
C542 C543 1.362 . S
C543 H533 0.930 . S
C543 C536 1.409 . S
C543 C542 1.362 . S
H544 C550 0.930 . S
H545 C553 0.930 . S
H546 C554 0.930 . S
H547 C555 0.930 . S
H548 C558 0.930 . S
H549 C559 0.930 . S
C550 H544 0.930 . S
C550 C551 1.355 . S
C550 C552 1.415 . S
C551 C550 1.355 . S
C551 C553 1.419 . S
C552 C550 1.415 . S
C552 C557 1.425 . S
C552 C559 1.409 . S
C553 H545 0.930 . S
C553 C551 1.419 . S
C553 C554 1.362 . S
C554 H546 0.930 . S
C554 C553 1.362 . S
C554 C557 1.409 . S
C555 H547 0.930 . S
C555 C556 1.355 . S
C555 C557 1.415 . S
C556 C555 1.355 . S
C556 C558 1.419 . S
C557 C552 1.425 . S
C557 C554 1.409 . S
C557 C555 1.415 . S
C558 H548 0.930 . S
C558 C556 1.419 . S
C558 C559 1.362 . S
C559 H549 0.930 . S
C559 C552 1.409 . S
C559 C558 1.362 . S
H560 C566 0.930 . S
H561 C569 0.930 . S
H562 C570 0.930 . S
H563 C571 0.930 . S
H564 C574 0.930 . S
H565 C575 0.930 . S
C566 H560 0.930 . S
C566 C567 1.355 . S
C566 C568 1.415 . S
C567 C566 1.355 . S
C567 C569 1.419 . S
C568 C566 1.415 . S
C568 C573 1.425 . S
C568 C575 1.409 . S
C569 H561 0.930 . S
C569 C567 1.419 . S
C569 C570 1.362 . S
C570 H562 0.930 . S
C570 C569 1.362 . S
C570 C573 1.409 . S
C571 H563 0.930 . S
C571 C572 1.355 . S
C571 C573 1.415 . S
C572 C571 1.355 . S
C572 C574 1.419 . S
C573 C568 1.425 . S
C573 C570 1.409 . S
C573 C571 1.415 . S
C574 H564 0.930 . S
C574 C572 1.419 . S
C574 C575 1.362 . S
C575 H565 0.930 . S
C575 C568 1.409 . S
C575 C574 1.362 . S
H576 C582 0.930 . S
H577 C585 0.930 . S
H578 C586 0.930 . S
H579 C587 0.930 . S
H580 C590 0.930 . S
H581 C591 0.930 . S
C582 H576 0.930 . S
C582 C583 1.355 . S
C582 C584 1.415 . S
C583 C582 1.355 . S
C583 C585 1.419 . S
C584 C582 1.415 . S
C584 C589 1.425 . S
C584 C591 1.409 . S
C585 H577 0.930 . S
C585 C583 1.419 . S
C585 C586 1.362 . S
C586 H578 0.930 . S
C586 C585 1.362 . S
C586 C589 1.409 . S
C587 H579 0.930 . S
C587 C588 1.355 . S
C587 C589 1.415 . S
C588 C587 1.355 . S
C588 C590 1.419 . S
C589 C584 1.425 . S
C589 C586 1.409 . S
C589 C587 1.415 . S
C590 H580 0.930 . S
C590 C588 1.419 . S
C590 C591 1.362 . S
C591 H581 0.930 . S
C591 C584 1.409 . S
C591 C590 1.362 . S
H592 C598 0.930 1_545 S
H593 C601 0.930 1_554 S
H594 C602 0.930 1_554 S
H595 C603 0.930 . S
H596 C606 0.930 . S
H597 C607 0.930 . S
C598 H592 0.930 1_565 S
C598 C599 1.355 . S
C598 C600 1.415 . S
C599 C598 1.355 . S
C599 C601 1.419 . S
C600 C598 1.415 . S
C600 C605 1.425 . S
C600 C607 1.409 . S
C601 H593 0.930 1_556 S
C601 C599 1.419 . S
C601 C602 1.362 . S
C602 H594 0.930 1_556 S
C602 C601 1.362 . S
C602 C605 1.409 . S
C603 H595 0.930 . S
C603 C604 1.355 . S
C603 C605 1.415 . S
C604 C603 1.355 . S
C604 C606 1.419 . S
C605 C600 1.425 . S
C605 C602 1.409 . S
C605 C603 1.415 . S
C606 H596 0.930 . S
C606 C604 1.419 . S
C606 C607 1.362 . S
C607 H597 0.930 . S
C607 C600 1.409 . S
C607 C606 1.362 . S
H608 C614 0.930 1_455 S
H609 C617 0.930 . S
H610 C618 0.930 . S
H611 C619 0.930 . S
H612 C622 0.930 . S
H613 C623 0.930 . S
C614 H608 0.930 1_655 S
C614 C615 1.355 . S
C614 C616 1.415 . S
C615 C614 1.355 . S
C615 C617 1.419 . S
C616 C614 1.415 . S
C616 C621 1.425 . S
C616 C623 1.409 . S
C617 H609 0.930 . S
C617 C615 1.419 . S
C617 C618 1.362 . S
C618 H610 0.930 . S
C618 C617 1.362 . S
C618 C621 1.409 . S
C619 H611 0.930 . S
C619 C620 1.355 . S
C619 C621 1.415 . S
C620 C619 1.355 . S
C620 C622 1.419 . S
C621 C616 1.425 . S
C621 C618 1.409 . S
C621 C619 1.415 . S
C622 H612 0.930 . S
C622 C620 1.419 . S
C622 C623 1.362 . S
C623 H613 0.930 . S
C623 C616 1.409 . S
C623 C622 1.362 . S
H624 C630 0.930 . S
H625 C633 0.930 . S
H626 C634 0.930 . S
H627 C635 0.930 . S
H628 C638 0.930 . S
H629 C639 0.930 . S
C630 H624 0.930 . S
C630 C631 1.355 1_554 S
C630 C632 1.415 1_554 S
C631 C630 1.355 1_556 S
C631 C633 1.419 . S
C632 C630 1.415 1_556 S
C632 C637 1.425 . S
C632 C639 1.409 1_556 S
C633 H625 0.930 . S
C633 C631 1.419 . S
C633 C634 1.362 . S
C634 H626 0.930 . S
C634 C633 1.362 . S
C634 C637 1.409 . S
C635 H627 0.930 . S
C635 C636 1.355 . S
C635 C637 1.415 . S
C636 C635 1.355 . S
C636 C638 1.419 1_556 S
C637 C632 1.425 . S
C637 C634 1.409 . S
C637 C635 1.415 . S
C638 H628 0.930 . S
C638 C636 1.419 1_554 S
C638 C639 1.362 . S
C639 H629 0.930 . S
C639 C632 1.409 1_554 S
C639 C638 1.362 . S
H640 C646 0.930 1_655 S
H641 C649 0.930 . S
H642 C650 0.930 . S
H643 C651 0.930 1_556 S
H644 C654 0.930 . S
H645 C655 0.930 . S
C646 H640 0.930 1_455 S
C646 C647 1.355 . S
C646 C648 1.415 . S
C647 C646 1.355 . S
C647 C649 1.419 1_554 S
C648 C646 1.415 . S
C648 C653 1.425 . S
C648 C655 1.409 . S
C649 H641 0.930 . S
C649 C647 1.419 1_556 S
C649 C650 1.362 . S
C650 H642 0.930 . S
C650 C649 1.362 . S
C650 C653 1.409 1_556 S
C651 H643 0.930 1_554 S
C651 C652 1.355 . S
C651 C653 1.415 . S
C652 C651 1.355 . S
C652 C654 1.419 . S
C653 C648 1.425 . S
C653 C650 1.409 1_554 S
C653 C651 1.415 . S
C654 H644 0.930 . S
C654 C652 1.419 . S
C654 C655 1.362 . S
C655 H645 0.930 . S
C655 C648 1.409 . S
C655 C654 1.362 . S
H656 C662 0.930 . S
H657 C665 0.930 . S
H658 C666 0.930 . S
H659 C667 0.930 . S
H660 C670 0.930 . S
H661 C671 0.930 . S
C662 H656 0.930 . S
C662 C663 1.355 . S
C662 C664 1.415 . S
C663 C662 1.355 . S
C663 C665 1.419 . S
C664 C662 1.415 . S
C664 C669 1.425 . S
C664 C671 1.409 . S
C665 H657 0.930 . S
C665 C663 1.419 . S
C665 C666 1.362 . S
C666 H658 0.930 . S
C666 C665 1.362 . S
C666 C669 1.409 . S
C667 H659 0.930 . S
C667 C668 1.355 . S
C667 C669 1.415 . S
C668 C667 1.355 . S
C668 C670 1.419 . S
C669 C664 1.425 . S
C669 C666 1.409 . S
C669 C667 1.415 . S
C670 H660 0.930 . S
C670 C668 1.419 . S
C670 C671 1.362 . S
C671 H661 0.930 . S
C671 C664 1.409 . S
C671 C670 1.362 . S
H672 C678 0.930 . S
H673 C681 0.930 . S
H674 C682 0.930 . S
H675 C683 0.930 . S
H676 C686 0.930 . S
H677 C687 0.930 . S
C678 H672 0.930 . S
C678 C679 1.355 . S
C678 C680 1.415 . S
C679 C678 1.355 . S
C679 C681 1.419 . S
C680 C678 1.415 . S
C680 C685 1.425 . S
C680 C687 1.409 . S
C681 H673 0.930 . S
C681 C679 1.419 . S
C681 C682 1.362 . S
C682 H674 0.930 . S
C682 C681 1.362 . S
C682 C685 1.409 . S
C683 H675 0.930 . S
C683 C684 1.355 . S
C683 C685 1.415 . S
C684 C683 1.355 . S
C684 C686 1.419 . S
C685 C680 1.425 . S
C685 C682 1.409 . S
C685 C683 1.415 . S
C686 H676 0.930 . S
C686 C684 1.419 . S
C686 C687 1.362 . S
C687 H677 0.930 . S
C687 C680 1.409 . S
C687 C686 1.362 . S
H688 C694 0.930 . S
H689 C697 0.930 . S
H690 C698 0.930 . S
H691 C699 0.930 . S
H692 C702 0.930 . S
H693 C703 0.930 . S
C694 H688 0.930 . S
C694 C695 1.355 . S
C694 C696 1.415 . S
C695 C694 1.355 . S
C695 C697 1.419 . S
C696 C694 1.415 . S
C696 C701 1.425 . S
C696 C703 1.409 . S
C697 H689 0.930 . S
C697 C695 1.419 . S
C697 C698 1.362 . S
C698 H690 0.930 . S
C698 C697 1.362 . S
C698 C701 1.409 . S
C699 H691 0.930 . S
C699 C700 1.355 . S
C699 C701 1.415 . S
C700 C699 1.355 . S
C700 C702 1.419 . S
C701 C696 1.425 . S
C701 C698 1.409 . S
C701 C699 1.415 . S
C702 H692 0.930 . S
C702 C700 1.419 . S
C702 C703 1.362 . S
C703 H693 0.930 . S
C703 C696 1.409 . S
C703 C702 1.362 . S
H704 C710 0.930 . S
H705 C713 0.930 . S
H706 C714 0.930 . S
H707 C715 0.930 . S
H708 C718 0.930 . S
H709 C719 0.930 . S
C710 H704 0.930 . S
C710 C711 1.355 . S
C710 C712 1.415 . S
C711 C710 1.355 . S
C711 C713 1.419 . S
C712 C710 1.415 . S
C712 C717 1.425 . S
C712 C719 1.409 . S
C713 H705 0.930 . S
C713 C711 1.419 . S
C713 C714 1.362 . S
C714 H706 0.930 . S
C714 C713 1.362 . S
C714 C717 1.409 . S
C715 H707 0.930 . S
C715 C716 1.355 . S
C715 C717 1.415 . S
C716 C715 1.355 . S
C716 C718 1.419 . S
C717 C712 1.425 . S
C717 C714 1.409 . S
C717 C715 1.415 . S
C718 H708 0.930 . S
C718 C716 1.419 . S
C718 C719 1.362 . S
C719 H709 0.930 . S
C719 C712 1.409 . S
C719 C718 1.362 . S
C279 C15 0.747 . S
C284 C239 0.839 . S
C295 C56 0.750 . S
C300 C139 0.786 . S
C311 C171 0.692 . S
C316 C83 0.777 . S
C327 C117 0.776 . S
C332 C207 0.654 . S
C343 C151 0.763 . S
C348 C105 0.695 . S
C359 C192 0.760 . S
C364 C3 0.828 . S
C375 C219 0.777 . S
C380 C35 0.686 . S
C391 C260 0.747 . S
C396 C71 0.850 . S
C407 C28 1.554 . S
C412 C96 1.543 . S
C423 C130 1.528 . S
C428 C40 1.527 . S
C439 C164 1.527 . S
C444 C232 1.528 . S
C455 C176 1.526 . S
C460 C244 1.529 . S
C471 C205 1.522 . S
C476 C22 1.656 . S
C487 C49 1.665 . S
C492 C241 1.536 . S
C503 C137 1.555 . S
C508 C90 1.694 . S
C519 C124 1.640 . S
C524 C173 1.493 . S
C535 C158 1.639 . S
C540 C69 1.449 . S
C551 C103 1.507 . S
C556 C185 1.677 . S
C567 C226 1.674 . S
C572 C1 1.501 . S
C583 C37 1.475 . S
C588 C253 1.659 . S
C599 C17 1.902 1_565 S
C604 C62 1.966 . S
C615 C51 1.930 1_655 S
C620 C74 1.960 . S
C631 C85 1.940 1_545 S
C636 C108 1.950 . S
C647 C119 1.903 1_455 S
C652 C6 1.966 . S
C663 C198 1.960 . S
C668 C153 1.892 . S
C679 C210 1.943 . S
C684 C187 1.944 . S
C695 C221 1.899 . S
C700 C266 1.934 . S
C711 C142 1.925 . S
C716 C255 1.929 . S
