# Generated by pormake.
# Topology pcl, (4)-cn, num edge types: 1
# Building blocks:
#     Node 0, Type 0, BuildingBlock: NAHDIM_clean_sbu_0, # of connection points: 4
#     Node 1, Type 0, BuildingBlock: NAHDIM_clean_sbu_0, # of connection points: 4
#     Node 2, Type 0, BuildingBlock: NAHDIM_clean_sbu_0, # of connection points: 4
#     Node 3, Type 0, BuildingBlock: NAHDIM_clean_sbu_0, # of connection points: 4
#     Node 4, Type 0, BuildingBlock: NAHDIM_clean_sbu_0, # of connection points: 4
#     Node 5, Type 0, BuildingBlock: NAHDIM_clean_sbu_0, # of connection points: 4
#     Node 6, Type 0, BuildingBlock: NAHDIM_clean_sbu_0, # of connection points: 4
#     Node 7, Type 0, BuildingBlock: NAHDIM_clean_sbu_0, # of connection points: 4
#     Node 8, Type 0, BuildingBlock: NAHDIM_clean_sbu_0, # of connection points: 4
#     Node 9, Type 0, BuildingBlock: NAHDIM_clean_sbu_0, # of connection points: 4
#     Node 10, Type 0, BuildingBlock: NAHDIM_clean_sbu_0, # of connection points: 4
#     Node 11, Type 0, BuildingBlock: NAHDIM_clean_sbu_0, # of connection points: 4
#     Node 12, Type 0, BuildingBlock: NAHDIM_clean_sbu_0, # of connection points: 4
#     Node 13, Type 0, BuildingBlock: NAHDIM_clean_sbu_0, # of connection points: 4
#     Node 14, Type 0, BuildingBlock: NAHDIM_clean_sbu_0, # of connection points: 4
#     Node 15, Type 0, BuildingBlock: NAHDIM_clean_sbu_0, # of connection points: 4
#     Edge 16, Type (0, 0), BuildingBlock: MIFKUJ_clean_linker_0, # of connection points: 2
#     Edge 17, Type (0, 0), BuildingBlock: MIFKUJ_clean_linker_0, # of connection points: 2
#     Edge 18, Type (0, 0), BuildingBlock: MIFKUJ_clean_linker_0, # of connection points: 2
#     Edge 19, Type (0, 0), BuildingBlock: MIFKUJ_clean_linker_0, # of connection points: 2
#     Edge 20, Type (0, 0), BuildingBlock: MIFKUJ_clean_linker_0, # of connection points: 2
#     Edge 21, Type (0, 0), BuildingBlock: MIFKUJ_clean_linker_0, # of connection points: 2
#     Edge 22, Type (0, 0), BuildingBlock: MIFKUJ_clean_linker_0, # of connection points: 2
#     Edge 23, Type (0, 0), BuildingBlock: MIFKUJ_clean_linker_0, # of connection points: 2
#     Edge 24, Type (0, 0), BuildingBlock: MIFKUJ_clean_linker_0, # of connection points: 2
#     Edge 25, Type (0, 0), BuildingBlock: MIFKUJ_clean_linker_0, # of connection points: 2
#     Edge 26, Type (0, 0), BuildingBlock: MIFKUJ_clean_linker_0, # of connection points: 2
#     Edge 27, Type (0, 0), BuildingBlock: MIFKUJ_clean_linker_0, # of connection points: 2
#     Edge 28, Type (0, 0), BuildingBlock: MIFKUJ_clean_linker_0, # of connection points: 2
#     Edge 29, Type (0, 0), BuildingBlock: MIFKUJ_clean_linker_0, # of connection points: 2
#     Edge 30, Type (0, 0), BuildingBlock: MIFKUJ_clean_linker_0, # of connection points: 2
#     Edge 31, Type (0, 0), BuildingBlock: MIFKUJ_clean_linker_0, # of connection points: 2
#     Edge 32, Type (0, 0), BuildingBlock: MIFKUJ_clean_linker_0, # of connection points: 2
#     Edge 33, Type (0, 0), BuildingBlock: MIFKUJ_clean_linker_0, # of connection points: 2
#     Edge 34, Type (0, 0), BuildingBlock: MIFKUJ_clean_linker_0, # of connection points: 2
#     Edge 35, Type (0, 0), BuildingBlock: MIFKUJ_clean_linker_0, # of connection points: 2
#     Edge 36, Type (0, 0), BuildingBlock: MIFKUJ_clean_linker_0, # of connection points: 2
#     Edge 37, Type (0, 0), BuildingBlock: MIFKUJ_clean_linker_0, # of connection points: 2
#     Edge 38, Type (0, 0), BuildingBlock: MIFKUJ_clean_linker_0, # of connection points: 2
#     Edge 39, Type (0, 0), BuildingBlock: MIFKUJ_clean_linker_0, # of connection points: 2
#     Edge 40, Type (0, 0), BuildingBlock: MIFKUJ_clean_linker_0, # of connection points: 2
#     Edge 41, Type (0, 0), BuildingBlock: MIFKUJ_clean_linker_0, # of connection points: 2
#     Edge 42, Type (0, 0), BuildingBlock: MIFKUJ_clean_linker_0, # of connection points: 2
#     Edge 43, Type (0, 0), BuildingBlock: MIFKUJ_clean_linker_0, # of connection points: 2
#     Edge 44, Type (0, 0), BuildingBlock: MIFKUJ_clean_linker_0, # of connection points: 2
#     Edge 45, Type (0, 0), BuildingBlock: MIFKUJ_clean_linker_0, # of connection points: 2
#     Edge 46, Type (0, 0), BuildingBlock: MIFKUJ_clean_linker_0, # of connection points: 2
#     Edge 47, Type (0, 0), BuildingBlock: MIFKUJ_clean_linker_0, # of connection points: 2
# Relax obj value: 0.090
# Max RMSD: 0.095
# Mean RMSD: 0.087
data_MOF--net-pcl--node1-NAHDIM_clean_sbu_0--edge1-MIFKUJ_clean_linker_0
_symmetry_space_group_name_H-M    P1
_symmetry_Int_Tables_number       1
_symmetry_cell_setting            triclinic
loop_
_symmetry_equiv_pos_as_xyz
'x, y, z'
_cell_length_a     62.249552
_cell_length_b     61.856071
_cell_length_c     55.464022
_cell_angle_alpha  89.969401
_cell_angle_beta   89.971439
_cell_angle_gamma 90.073423
loop_
_atom_site_label
_atom_site_type_symbol
_atom_site_fract_x
_atom_site_fract_y
_atom_site_fract_z
_atom_type_partial_charge
C0 C 0.20622 0.33471 0.06725 0.0
O1 O 0.21638 0.35145 0.07637 0.0
O2 O 0.17966 0.36509 0.11479 0.0
Zn3 Zn 0.17021 0.36001 0.08073 0.0
O4 O 0.17681 0.38592 0.06042 0.0
C5 C 0.12696 0.35213 0.09847 0.0
O6 O 0.13634 0.35213 0.11967 0.0
O7 O 0.18583 0.33454 0.06726 0.0
C8 C 0.17216 0.3852 0.03814 0.0
O9 O 0.16356 0.36749 0.0293 0.0
C10 C 0.17592 0.38294 0.12528 0.0
O11 O 0.16644 0.39852 0.1132 0.0
O12 O 0.13826 0.35475 0.07959 0.0
C13 C 0.78591 0.66026 0.55218 0.0
O14 O 0.77531 0.64593 0.56504 0.0
O15 O 0.81081 0.63964 0.60533 0.0
Zn16 Zn 0.82025 0.63613 0.57097 0.0
O17 O 0.8122 0.60739 0.55688 0.0
C18 C 0.86363 0.63491 0.58827 0.0
O19 O 0.85388 0.62862 0.60808 0.0
O20 O 0.80628 0.65935 0.55157 0.0
C21 C 0.82105 0.59 0.5639 0.0
O22 O 0.83491 0.59069 0.58173 0.0
C23 C 0.80099 0.6261 0.61858 0.0
O24 O 0.79505 0.60739 0.60958 0.0
O25 O 0.85248 0.63932 0.5697 0.0
C26 C 0.21138 0.65538 0.93439 0.0
O27 O 0.22195 0.64179 0.92061 0.0
O28 O 0.18517 0.63696 0.87905 0.0
Zn29 Zn 0.17552 0.63371 0.91339 0.0
O30 O 0.18099 0.60354 0.92549 0.0
C31 C 0.13191 0.63385 0.89688 0.0
O32 O 0.14092 0.62522 0.87775 0.0
O33 O 0.19098 0.65496 0.93435 0.0
C34 C 0.17524 0.58704 0.91346 0.0
O35 O 0.166 0.58972 0.89239 0.0
C36 C 0.19906 0.62526 0.86851 0.0
O37 O 0.20924 0.61024 0.88074 0.0
O38 O 0.14362 0.63931 0.91465 0.0
C39 C 0.79182 0.3329 0.43345 0.0
O40 O 0.78363 0.35211 0.4293 0.0
O41 O 0.82388 0.35278 0.37617 0.0
Zn42 Zn 0.82856 0.35258 0.41197 0.0
O43 O 0.8217 0.38074 0.42835 0.0
C44 C 0.87237 0.36292 0.41282 0.0
O45 O 0.86403 0.38102 0.40471 0.0
O46 O 0.81111 0.32911 0.42728 0.0
C47 C 0.81557 0.39842 0.41897 0.0
O48 O 0.81242 0.39959 0.3956 0.0
C49 C 0.80653 0.35646 0.36485 0.0
O50 O 0.78904 0.36149 0.37684 0.0
O51 O 0.85996 0.34714 0.41749 0.0
C52 C 0.82335 0.6687 0.93096 0.0
O53 O 0.81345 0.65226 0.92086 0.0
O54 O 0.85203 0.61722 0.93429 0.0
Zn55 Zn 0.85865 0.64417 0.91545 0.0
O56 O 0.84802 0.64122 0.88153 0.0
C57 C 0.90168 0.63435 0.90431 0.0
O58 O 0.8918 0.61797 0.89406 0.0
O59 O 0.84375 0.66913 0.93098 0.0
C60 C 0.84857 0.65724 0.86725 0.0
O61 O 0.85643 0.67573 0.87491 0.0
C62 C 0.84073 0.6019 0.92579 0.0
O63 O 0.83287 0.60357 0.9039 0.0
O64 O 0.89056 0.6486 0.91505 0.0
C65 C 0.17941 0.32693 0.43521 0.0
O66 O 0.18868 0.33691 0.41707 0.0
O67 O 0.15286 0.38536 0.44357 0.0
Zn68 Zn 0.14593 0.35783 0.42625 0.0
O69 O 0.15526 0.36054 0.39171 0.0
C70 C 0.10152 0.36932 0.42759 0.0
O71 O 0.10988 0.38882 0.42692 0.0
O72 O 0.16097 0.33307 0.44221 0.0
C73 C 0.15302 0.37835 0.38056 0.0
O74 O 0.14445 0.3949 0.39183 0.0
C75 C 0.17145 0.39383 0.44414 0.0
O76 O 0.1876 0.38384 0.43374 0.0
O77 O 0.11396 0.35304 0.42748 0.0
C78 C 0.82108 0.33162 0.04825 0.0
O79 O 0.80979 0.346 0.06021 0.0
O80 O 0.84658 0.38618 0.04773 0.0
Zn81 Zn 0.85418 0.35877 0.06493 0.0
O82 O 0.84172 0.35918 0.09832 0.0
C83 C 0.89703 0.36297 0.08414 0.0
O84 O 0.88685 0.37269 0.10182 0.0
O85 O 0.84136 0.33371 0.04728 0.0
C86 C 0.84603 0.34379 0.11268 0.0
O87 O 0.8587 0.32812 0.10539 0.0
C88 C 0.84774 0.40424 0.05853 0.0
O89 O 0.8539 0.40474 0.08117 0.0
O90 O 0.88636 0.35572 0.06636 0.0
C91 C 0.17028 0.66782 0.56225 0.0
O92 O 0.17983 0.65778 0.58015 0.0
O93 O 0.14549 0.60889 0.5542 0.0
Zn94 Zn 0.13777 0.63617 0.5718 0.0
O95 O 0.14742 0.63494 0.60646 0.0
C96 C 0.09418 0.63016 0.58659 0.0
O97 O 0.10362 0.61878 0.60354 0.0
O98 O 0.15181 0.66152 0.55548 0.0
C99 C 0.15611 0.6185 0.61614 0.0
O100 O 0.15904 0.60093 0.60329 0.0
C101 C 0.16447 0.60411 0.54764 0.0
O102 O 0.18032 0.61742 0.55255 0.0
O103 O 0.10564 0.63947 0.57071 0.0
C104 C 0.70355 0.82826 0.06159 0.0
O105 O 0.71316 0.84543 0.07047 0.0
O106 O 0.67875 0.84651 0.11964 0.0
Zn107 Zn 0.66853 0.84765 0.08545 0.0
O108 O 0.67349 0.87687 0.07068 0.0
C109 C 0.62543 0.85717 0.0951 0.0
O110 O 0.63515 0.87402 0.10455 0.0
O111 O 0.68369 0.8254 0.06579 0.0
C112 C 0.66282 0.88125 0.05178 0.0
O113 O 0.65001 0.86645 0.04271 0.0
C114 C 0.68808 0.86206 0.13033 0.0
O115 O 0.69222 0.87994 0.11842 0.0
O116 O 0.63673 0.84236 0.08558 0.0
C117 C 0.29015 0.16232 0.56856 0.0
O118 O 0.27986 0.15033 0.58436 0.0
O119 O 0.31857 0.13982 0.61955 0.0
Zn120 Zn 0.32526 0.13659 0.58441 0.0
O121 O 0.31678 0.10756 0.57141 0.0
C122 C 0.36889 0.12343 0.58498 0.0
O123 O 0.35978 0.10558 0.59283 0.0
O124 O 0.31016 0.15948 0.56553 0.0
C125 C 0.3228 0.10414 0.54987 0.0
O126 O 0.33269 0.11971 0.53813 0.0
C127 C 0.30787 0.12639 0.63205 0.0
O128 O 0.30001 0.10899 0.62172 0.0
O129 O 0.35716 0.13967 0.58017 0.0
C130 C 0.70613 0.15561 0.9399 0.0
O131 O 0.71545 0.14055 0.92689 0.0
O132 O 0.67986 0.13027 0.89084 0.0
Zn133 Zn 0.66876 0.13282 0.92486 0.0
O134 O 0.67168 0.10456 0.94261 0.0
C135 C 0.62626 0.13976 0.90504 0.0
O136 O 0.63555 0.13315 0.88512 0.0
O137 O 0.68581 0.15556 0.94192 0.0
C138 C 0.6565 0.09081 0.94167 0.0
O139 O 0.63932 0.09526 0.92887 0.0
C140 C 0.68032 0.11251 0.87934 0.0
O141 O 0.67432 0.09464 0.89023 0.0
O142 O 0.63737 0.1414 0.9242 0.0
C143 C 0.2868 0.83117 0.43256 0.0
O144 O 0.27717 0.84597 0.41946 0.0
O145 O 0.31208 0.85895 0.38406 0.0
Zn146 Zn 0.32352 0.85512 0.4178 0.0
O147 O 0.32043 0.8825 0.43717 0.0
C148 C 0.36613 0.85253 0.3976 0.0
O149 O 0.35665 0.86195 0.37925 0.0
O150 O 0.30713 0.8316 0.43444 0.0
C151 C 0.33428 0.89751 0.43521 0.0
O152 O 0.35037 0.89509 0.42013 0.0
C153 C 0.30684 0.87717 0.37525 0.0
O154 O 0.30766 0.89448 0.38891 0.0
O155 O 0.35504 0.84749 0.41605 0.0
C156 C 0.31947 0.16181 0.95085 0.0
O157 O 0.30845 0.14628 0.94043 0.0
O158 O 0.34708 0.10954 0.94666 0.0
Zn159 Zn 0.35341 0.13778 0.93049 0.0
O160 O 0.34047 0.1371 0.89744 0.0
C161 C 0.39617 0.13672 0.91024 0.0
O162 O 0.3862 0.12794 0.89182 0.0
O163 O 0.33982 0.1617 0.94923 0.0
C164 C 0.3413 0.15334 0.88347 0.0
O165 O 0.35092 0.17107 0.8908 0.0
C166 C 0.34988 0.0921 0.935 0.0
O167 O 0.35715 0.09306 0.91279 0.0
O168 O 0.38539 0.1423 0.92868 0.0
C169 C 0.6733 0.83719 0.44281 0.0
O170 O 0.68368 0.85236 0.43097 0.0
O171 O 0.64585 0.89048 0.44628 0.0
Zn172 Zn 0.63858 0.86325 0.42832 0.0
O173 O 0.64975 0.86507 0.39451 0.0
C174 C 0.5955 0.868 0.4115 0.0
O175 O 0.60516 0.88059 0.39578 0.0
O176 O 0.65299 0.83836 0.44454 0.0
C177 C 0.65038 0.8485 0.38105 0.0
O178 O 0.64309 0.82997 0.38929 0.0
C179 C 0.65788 0.90495 0.43716 0.0
O180 O 0.66557 0.90226 0.41531 0.0
O181 O 0.60663 0.85872 0.42767 0.0
C182 C 0.31808 0.82274 0.06723 0.0
O183 O 0.30674 0.83631 0.08025 0.0
O184 O 0.34443 0.87821 0.0568 0.0
Zn185 Zn 0.35145 0.8529 0.07805 0.0
O186 O 0.34052 0.85748 0.11184 0.0
C187 C 0.39556 0.86593 0.07823 0.0
O188 O 0.3867 0.88515 0.07688 0.0
O189 O 0.33795 0.82641 0.06397 0.0
C190 C 0.34371 0.87502 0.12321 0.0
O191 O 0.35427 0.89077 0.11261 0.0
C192 C 0.32885 0.89112 0.06009 0.0
O193 O 0.31569 0.88801 0.07828 0.0
O194 O 0.38358 0.84928 0.07886 0.0
C195 C 0.67563 0.16764 0.56012 0.0
O196 O 0.68627 0.15049 0.56735 0.0
O197 O 0.65337 0.11603 0.56188 0.0
Zn198 Zn 0.64193 0.14249 0.57881 0.0
O199 O 0.65004 0.14213 0.61393 0.0
C200 C 0.59899 0.12631 0.57259 0.0
O201 O 0.60915 0.10771 0.57232 0.0
O202 O 0.65545 0.16835 0.56333 0.0
C203 C 0.63958 0.13098 0.6292 0.0
O204 O 0.62288 0.11972 0.62199 0.0
C205 C 0.66006 0.09922 0.57271 0.0
O206 O 0.65995 0.09858 0.59636 0.0
O207 O 0.60973 0.14367 0.57509 0.0
H208 H 0.10286 0.34518 0.05801 0.0
H209 H 0.06371 0.34457 0.05486 0.0
H210 H 0.05853 0.35573 0.13145 0.0
H211 H 0.09764 0.3556 0.13486 0.0
H212 H 0.02953 0.32763 0.11823 0.0
H213 H 0.05246 0.39705 0.0892 0.0
H214 H 0.07321 0.42228 0.06378 0.0
H215 H 0.04427 0.39542 0.00022 0.0
H216 H 0.02355 0.36982 0.02527 0.0
H217 H 0.92361 0.37041 0.12239 0.0
H218 H 0.96263 0.3662 0.12386 0.0
H219 H 0.96288 0.3457 0.04955 0.0
H220 H 0.92379 0.34977 0.04791 0.0
H221 H 0.99399 0.37717 0.06028 0.0
H222 H 0.96937 0.30889 0.09121 0.0
H223 H 0.94831 0.28511 0.11799 0.0
H224 H 0.98018 0.3119 0.17979 0.0
H225 H 0.00122 0.33609 0.15339 0.0
C226 C 0.09337 0.34737 0.0742 0.0
C227 C 0.10333 0.35058 0.09666 0.0
C228 C 0.071 0.34712 0.07236 0.0
C229 C 0.05817 0.35052 0.09285 0.0
C230 C 0.06809 0.35312 0.11539 0.0
C231 C 0.09046 0.35309 0.1173 0.0
C232 C 0.03444 0.35182 0.09079 0.0
C233 C 0.02178 0.33863 0.10573 0.0
C234 C 0.02429 0.36591 0.07418 0.0
C235 C 0.03663 0.38137 0.05909 0.0
C236 C 0.05063 0.39643 0.0698 0.0
C237 C 0.06237 0.41081 0.05546 0.0
C238 C 0.0601 0.41041 0.0304 0.0
C239 C 0.04603 0.39568 0.01963 0.0
C240 C 0.03428 0.38125 0.03389 0.0
C241 C 0.93195 0.36498 0.10635 0.0
C242 C 0.92062 0.36039 0.08503 0.0
C243 C 0.95422 0.36251 0.10726 0.0
C244 C 0.96557 0.35549 0.08686 0.0
C245 C 0.95437 0.35109 0.06549 0.0
C246 C 0.93205 0.35337 0.06462 0.0
C247 C 0.9892 0.35309 0.08779 0.0
C248 C 0.0018 0.3661 0.07266 0.0
C249 C -0.00072 0.33906 0.10443 0.0
C250 C 0.98673 0.32444 0.12033 0.0
C251 C 0.97176 0.30984 0.11052 0.0
C252 C 0.95985 0.29626 0.12563 0.0
C253 C 0.96287 0.29703 0.15058 0.0
C254 C 0.97784 0.31134 0.16047 0.0
C255 C 0.98978 0.32497 0.14544 0.0
H256 H 0.95363 0.28651 0.16225 0.0
H257 H 0.06921 0.42156 0.01933 0.0
H258 H 0.88917 0.64736 0.55047 0.0
H259 H 0.92846 0.64819 0.54917 0.0
H260 H 0.93089 0.62565 0.62276 0.0
H261 H 0.89174 0.62498 0.62428 0.0
H262 H 0.95919 0.65756 0.61551 0.0
H263 H 0.93963 0.59141 0.57638 0.0
H264 H 0.92057 0.56873 0.54676 0.0
H265 H 0.95172 0.60253 0.48881 0.0
H266 H 0.9707 0.6257 0.51811 0.0
H267 H 0.06569 0.61764 0.62131 0.0
H268 H 0.02654 0.6203 0.62022 0.0
H269 H 0.02984 0.64893 0.5494 0.0
H270 H 0.06911 0.64643 0.55034 0.0
H271 H -0.00109 0.6156 0.55366 0.0
H272 H 0.01982 0.68076 0.59461 0.0
H273 H 0.03881 0.70218 0.62545 0.0
H274 H 0.00511 0.66821 0.68145 0.0
H275 H 0.98614 0.64635 0.65093 0.0
C276 C 0.89808 0.64264 0.56639 0.0
C277 C 0.88734 0.63606 0.58747 0.0
C278 C 0.92051 0.64306 0.5656 0.0
C279 C 0.93258 0.63676 0.58579 0.0
C280 C 0.92189 0.63058 0.60697 0.0
C281 C 0.8995 0.63017 0.60779 0.0
C282 C 0.95636 0.63637 0.58486 0.0
C283 C 0.96787 0.64823 0.60213 0.0
C284 C 0.96765 0.62448 0.56712 0.0
C285 C 0.9564 0.61046 0.54944 0.0
C286 C 0.94229 0.59413 0.55731 0.0
C287 C 0.93152 0.58116 0.54058 0.0
C288 C 0.93489 0.58421 0.51591 0.0
C289 C 0.94909 0.60021 0.50792 0.0
C290 C 0.95987 0.61326 0.52459 0.0
C291 C 0.05812 0.62452 0.60549 0.0
C292 C 0.0705 0.63188 0.58593 0.0
C293 C 0.03576 0.62608 0.60494 0.0
C294 C 0.02536 0.63494 0.5848 0.0
C295 C 0.03762 0.64207 0.56511 0.0
C296 C 0.06002 0.6407 0.56573 0.0
C297 C 0.00167 0.63668 0.5844 0.0
C298 C 0.99019 0.62506 0.56691 0.0
C299 C 0.99039 0.64859 0.60209 0.0
C300 C 0.0017 0.66178 0.62048 0.0
C301 C 0.01659 0.67773 0.6135 0.0
C302 C 0.02732 0.68997 0.63092 0.0
C303 C 0.0232 0.68652 0.65539 0.0
C304 C 0.0083 0.67085 0.66249 0.0
C305 C 0.99753 0.65854 0.64514 0.0
H306 H 0.03153 0.69602 0.66885 0.0
H307 H 0.92653 0.57416 0.50298 0.0
H308 H 0.92727 0.66539 0.92474 0.0
H309 H 0.96653 0.66713 0.92447 0.0
H310 H 0.9689 0.60863 0.88222 0.0
H311 H 0.92974 0.60659 0.88271 0.0
H312 H 0.99691 0.60703 0.91853 0.0
H313 H 0.97811 0.65803 0.85671 0.0
H314 H 0.95976 0.68983 0.83959 0.0
H315 H 0.99117 0.73093 0.89107 0.0
H316 H 0.00948 0.6993 0.90873 0.0
H317 H 0.10224 0.61292 0.86944 0.0
H318 H 0.06311 0.61494 0.87268 0.0
H319 H 0.06903 0.66178 0.92983 0.0
H320 H 0.10834 0.65945 0.92719 0.0
H321 H 0.03742 0.67081 0.88864 0.0
H322 H 0.05672 0.6194 0.94976 0.0
H323 H 0.0747 0.58729 0.96662 0.0
H324 H 0.04223 0.54678 0.91541 0.0
H325 H 0.02429 0.57874 0.89797 0.0
C326 C 0.93615 0.65293 0.91533 0.0
C327 C 0.92539 0.63585 0.90373 0.0
C328 C 0.95858 0.654 0.91512 0.0
C329 C 0.97062 0.6381 0.90316 0.0
C330 C 0.95991 0.62106 0.89157 0.0
C331 C 0.93752 0.61996 0.89181 0.0
C332 C 0.99442 0.6389 0.90306 0.0
C333 C 0.00573 0.6209 0.91176 0.0
C334 C 0.00595 0.65723 0.8948 0.0
C335 C 0.99498 0.67626 0.88421 0.0
C336 C 0.98096 0.67382 0.86451 0.0
C337 C 0.97059 0.69182 0.85469 0.0
C338 C 0.97425 0.71238 0.86428 0.0
C339 C 0.98832 0.71498 0.88369 0.0
C340 C -0.00129 0.69703 0.8936 0.0
C341 C 0.09525 0.62372 0.88264 0.0
C342 C 0.10833 0.63597 0.89814 0.0
C343 C 0.07292 0.62482 0.88448 0.0
C344 C 0.06332 0.63844 0.90153 0.0
C345 C 0.07625 0.65118 0.91658 0.0
C346 C 0.09864 0.64976 0.9151 0.0
C347 C 0.0397 0.63888 0.90384 0.0
C348 C 0.0285 0.65705 0.89554 0.0
C349 C 0.02823 0.6207 0.91235 0.0
C350 C 0.03934 0.6015 0.92239 0.0
C351 C 0.05363 0.60369 0.94187 0.0
C352 C 0.06376 0.58551 0.95159 0.0
C353 C 0.05962 0.56503 0.94208 0.0
C354 C 0.04542 0.56268 0.92275 0.0
C355 C 0.03526 0.58081 0.91295 0.0
H356 H 0.06729 0.55096 0.9498 0.0
H357 H 0.96621 0.72629 0.85664 0.0
H358 H 0.07874 0.33151 0.43132 0.0
H359 H 0.03965 0.3272 0.43203 0.0
H360 H 0.03206 0.3963 0.42575 0.0
H361 H 0.07097 0.40078 0.42549 0.0
H362 H 0.00517 0.38038 0.45857 0.0
H363 H 0.02596 0.36248 0.37707 0.0
H364 H 0.04589 0.34237 0.34589 0.0
H365 H 0.01768 0.2829 0.3704 0.0
H366 H 0.99779 0.30265 0.40196 0.0
H367 H 0.90184 0.39541 0.41084 0.0
H368 H 0.94055 0.3929 0.41687 0.0
H369 H 0.93485 0.32429 0.42924 0.0
H370 H 0.89587 0.32663 0.42325 0.0
H371 H 0.96803 0.33549 0.39724 0.0
H372 H 0.94385 0.35498 0.47597 0.0
H373 H 0.92346 0.37606 0.50594 0.0
H374 H 0.95776 0.43352 0.48562 0.0
H375 H 0.97814 0.41285 0.45525 0.0
C376 C 0.06873 0.34578 0.43013 0.0
C377 C 0.07795 0.36649 0.42826 0.0
C378 C 0.04641 0.34328 0.43048 0.0
C379 C 0.03295 0.36142 0.42873 0.0
C380 C 0.04214 0.38209 0.42717 0.0
C381 C 0.06441 0.38461 0.42693 0.0
C382 C 0.00927 0.35904 0.42823 0.0
C383 C 0.99705 0.37067 0.44507 0.0
C384 C -0.0013 0.34587 0.41104 0.0
C385 C 0.0106 0.334 0.39205 0.0
C386 C 0.02415 0.34509 0.37594 0.0
C387 C 0.03541 0.33376 0.35817 0.0
C388 C 0.03311 0.31136 0.35622 0.0
C389 C 0.01949 0.30025 0.37198 0.0
C390 C 0.00821 0.3115 0.38979 0.0
C391 C 0.90876 0.37976 0.41487 0.0
C392 C 0.89579 0.36121 0.41661 0.0
C393 C 0.93088 0.37838 0.41842 0.0
C394 C 0.94049 0.35845 0.42373 0.0
C395 C 0.92768 0.33982 0.42525 0.0
C396 C 0.90545 0.34121 0.42188 0.0
C397 C 0.96401 0.35724 0.4272 0.0
C398 C 0.97618 0.34493 0.41096 0.0
C399 C 0.97455 0.3699 0.44483 0.0
C400 C 0.96242 0.38238 0.4632 0.0
C401 C 0.94694 0.37214 0.47776 0.0
C402 C 0.9354 0.38401 0.49484 0.0
C403 C 0.93928 0.40612 0.49765 0.0
C404 C 0.95476 0.41639 0.48341 0.0
C405 C 0.96633 0.4046 0.46628 0.0
H406 H 0.93033 0.41528 0.51089 0.0
H407 H 0.04184 0.30262 0.34245 0.0
H408 H 0.41962 0.82923 0.07292 0.0
H409 H 0.45874 0.82605 0.0748 0.0
H410 H 0.46385 0.89452 0.08864 0.0
H411 H 0.42488 0.89792 0.08597 0.0
H412 H 0.49307 0.8833 0.05771 0.0
H413 H 0.46907 0.85548 0.13401 0.0
H414 H 0.44821 0.83187 0.16119 0.0
H415 H 0.47829 0.77586 0.13045 0.0
H416 H 0.49914 0.79914 0.10285 0.0
H417 H 0.59728 0.8891 0.10708 0.0
H418 H 0.55821 0.88854 0.10342 0.0
H419 H 0.56075 0.82294 0.0773 0.0
H420 H 0.60001 0.82334 0.08081 0.0
H421 H 0.52821 0.83075 0.11259 0.0
H422 H 0.55404 0.86042 0.03782 0.0
H423 H 0.57567 0.88535 0.01298 0.0
H424 H 0.54233 0.9396 0.04341 0.0
H425 H 0.52074 0.91501 0.06876 0.0
C426 C 0.4291 0.8436 0.07636 0.0
C427 C 0.41918 0.86382 0.07937 0.0
C428 C 0.45145 0.84174 0.07753 0.0
C429 C 0.46423 0.86 0.08219 0.0
C430 C 0.45433 0.88021 0.085 0.0
C431 C 0.43203 0.88212 0.08354 0.0
C432 C 0.48794 0.85818 0.08407 0.0
C433 C 0.50071 0.87195 0.0699 0.0
C434 C 0.49797 0.84305 0.0996 0.0
C435 C 0.48549 0.82903 0.11619 0.0
C436 C 0.47111 0.83812 0.13292 0.0
C437 C 0.45931 0.8248 0.14842 0.0
C438 C 0.46187 0.80238 0.1475 0.0
C439 C 0.47629 0.79323 0.13111 0.0
C440 C 0.48812 0.80648 0.11555 0.0
C441 C 0.58957 0.87449 0.10069 0.0
C442 C 0.60174 0.85629 0.09412 0.0
C443 C 0.56725 0.87423 0.09855 0.0
C444 C 0.55669 0.85577 0.08988 0.0
C445 C 0.56868 0.83734 0.08398 0.0
C446 C 0.59107 0.83764 0.08593 0.0
C447 C 0.53315 0.85603 0.08649 0.0
C448 C 0.52047 0.84197 0.10032 0.0
C449 C 0.52319 0.87106 0.07089 0.0
C450 C 0.53589 0.88587 0.05534 0.0
C451 C 0.55142 0.87767 0.03935 0.0
C452 C 0.56366 0.89175 0.02516 0.0
C453 C 0.56041 0.91405 0.02665 0.0
C454 C 0.54485 0.92232 0.04228 0.0
C455 C 0.53259 0.90832 0.05655 0.0
H456 H 0.56992 0.92492 0.01567 0.0
H457 H 0.45272 0.7921 0.15951 0.0
H458 H 0.57131 0.09218 0.57503 0.0
H459 H 0.53217 0.09309 0.57426 0.0
H460 H 0.53381 0.16242 0.56564 0.0
H461 H 0.57309 0.1617 0.56713 0.0
H462 H 0.50535 0.15189 0.59824 0.0
H463 H 0.52058 0.12782 0.51825 0.0
H464 H 0.53712 0.10511 0.48681 0.0
H465 H 0.50537 0.04908 0.51558 0.0
H466 H 0.48886 0.07141 0.54742 0.0
H467 H 0.39329 0.15876 0.57337 0.0
H468 H 0.43233 0.16037 0.56856 0.0
H469 H 0.43668 0.0922 0.58423 0.0
H470 H 0.39769 0.09038 0.58892 0.0
H471 H 0.46176 0.10408 0.54563 0.0
H472 H 0.44852 0.1284 0.62702 0.0
H473 H 0.43186 0.15148 0.65805 0.0
H474 H 0.45989 0.20781 0.62539 0.0
H475 H 0.47649 0.18507 0.59396 0.0
C476 C 0.56337 0.10762 0.57281 0.0
C477 C 0.5753 0.12687 0.57111 0.0
C478 C 0.54097 0.10811 0.57224 0.0
C479 C 0.53004 0.12779 0.56952 0.0
C480 C 0.54191 0.14704 0.56769 0.0
C481 C 0.56435 0.1466 0.56851 0.0
C482 C 0.50621 0.12833 0.56963 0.0
C483 C 0.49584 0.14173 0.5864 0.0
C484 C 0.49376 0.11476 0.55452 0.0
C485 C 0.50362 0.10128 0.53535 0.0
C486 C 0.51725 0.11063 0.51799 0.0
C487 C 0.5266 0.09783 0.50008 0.0
C488 C 0.52233 0.07566 0.49923 0.0
C489 C 0.50867 0.06625 0.51627 0.0
C490 C 0.49929 0.07898 0.53424 0.0
C491 C 0.40255 0.1441 0.57575 0.0
C492 C 0.39242 0.12447 0.58169 0.0
C493 C 0.42484 0.14507 0.57305 0.0
C494 C 0.43737 0.12644 0.57626 0.0
C495 C 0.42727 0.10675 0.58171 0.0
C496 C 0.405 0.10578 0.5845 0.0
C497 C 0.46106 0.12748 0.57433 0.0
C498 C 0.47136 0.11437 0.55726 0.0
C499 C 0.47344 0.14139 0.58905 0.0
C500 C 0.46355 0.15506 0.608 0.0
C501 C 0.45099 0.14572 0.62635 0.0
C502 C 0.44158 0.15874 0.64403 0.0
C503 C 0.44476 0.18111 0.64365 0.0
C504 C 0.45741 0.19049 0.62563 0.0
C505 C 0.46683 0.17754 0.6079 0.0
H506 H 0.43747 0.19116 0.65736 0.0
H507 H 0.52959 0.06577 0.48535 0.0
H508 H 0.59765 0.13318 0.86854 0.0
H509 H 0.55866 0.13618 0.87018 0.0
H510 H 0.56252 0.15738 0.94416 0.0
H511 H 0.60167 0.15391 0.94285 0.0
H512 H 0.53305 0.12686 0.93939 0.0
H513 H 0.5494 0.1927 0.89795 0.0
H514 H 0.56614 0.21558 0.86672 0.0
H515 H 0.53229 0.18075 0.81159 0.0
H516 H 0.51556 0.15745 0.84246 0.0
H517 H 0.42198 0.15244 0.94612 0.0
H518 H 0.46109 0.15609 0.94564 0.0
H519 H 0.46286 0.13108 0.87308 0.0
H520 H 0.42374 0.12754 0.87329 0.0
H521 H 0.48933 0.16599 0.87868 0.0
H522 H 0.47507 0.09884 0.91966 0.0
H523 H 0.45846 0.07555 0.95061 0.0
H524 H 0.48864 0.11285 0.00642 0.0
H525 H 0.5052 0.13656 0.97579 0.0
C526 C 0.59026 0.1387 0.88511 0.0
C527 C 0.60277 0.1433 0.90558 0.0
C528 C 0.56794 0.14051 0.88597 0.0
C529 C 0.55766 0.14725 0.90721 0.0
C530 C 0.57012 0.15219 0.92757 0.0
C531 C 0.59249 0.15025 0.92677 0.0
C532 C 0.53387 0.14796 0.90846 0.0
C533 C 0.52351 0.13577 0.92639 0.0
C534 C 0.5214 0.15915 0.89114 0.0
C535 C 0.53135 0.17322 0.87252 0.0
C536 C 0.54564 0.18982 0.87915 0.0
C537 C 0.55511 0.20288 0.86152 0.0
C538 C 0.55032 0.19959 0.83718 0.0
C539 C 0.536 0.18327 0.83044 0.0
C540 C 0.5265 0.17015 0.848 0.0
C541 C 0.43067 0.14778 0.93001 0.0
C542 C 0.41976 0.13958 0.90978 0.0
C543 C 0.45302 0.14983 0.92981 0.0
C544 C 0.46486 0.14365 0.90941 0.0
C545 C 0.45399 0.13593 0.889 0.0
C546 C 0.43165 0.13384 0.8892 0.0
C547 C 0.48863 0.14482 0.90949 0.0
C548 C 0.49894 0.1573 0.8918 0.0
C549 C 0.50107 0.13389 0.92701 0.0
C550 C 0.49117 0.11962 0.94545 0.0
C551 C 0.47802 0.10218 0.93854 0.0
C552 C 0.46864 0.08889 0.95602 0.0
C553 C 0.47244 0.09276 0.98047 0.0
C554 C 0.48568 0.1099 0.98748 0.0
C555 C 0.49507 0.12326 0.97007 0.0
H556 H 0.46517 0.08245 0.99398 0.0
H557 H 0.55767 0.20972 0.82356 0.0
H558 H 0.39094 0.83211 0.4314 0.0
H559 H 0.43018 0.83127 0.43349 0.0
H560 H 0.43394 0.86745 0.36709 0.0
H561 H 0.39483 0.86804 0.36464 0.0
H562 H 0.46401 0.83675 0.36815 0.0
H563 H 0.43879 0.89238 0.42171 0.0
H564 H 0.41732 0.90711 0.45526 0.0
H565 H 0.44843 0.86376 0.5046 0.0
H566 H 0.46986 0.84854 0.47124 0.0
H567 H 0.56766 0.88328 0.37749 0.0
H568 H 0.52891 0.87739 0.37524 0.0
H569 H 0.53139 0.8389 0.44004 0.0
H570 H 0.5702 0.84481 0.44256 0.0
H571 H 0.49849 0.86817 0.44081 0.0
H572 H 0.52577 0.81451 0.38648 0.0
H573 H 0.54732 0.80102 0.35236 0.0
H574 H 0.51253 0.84219 0.30382 0.0
H575 H 0.49096 0.85617 0.33772 0.0
C576 C 0.40013 0.83969 0.41711 0.0
C577 C 0.38977 0.85024 0.39792 0.0
C578 C 0.42254 0.83926 0.41838 0.0
C579 C 0.43497 0.84959 0.40064 0.0
C580 C 0.42467 0.85939 0.38098 0.0
C581 C 0.40228 0.85973 0.37963 0.0
C582 C 0.45865 0.85109 0.40302 0.0
C583 C 0.47155 0.84377 0.38395 0.0
C584 C 0.46849 0.85991 0.42383 0.0
C585 C 0.45575 0.86916 0.44394 0.0
C586 C 0.44094 0.88588 0.43968 0.0
C587 C 0.42879 0.89433 0.45867 0.0
C588 C 0.43147 0.88633 0.48204 0.0
C589 C 0.44635 0.86991 0.48648 0.0
C590 C 0.4585 0.86137 0.46754 0.0
C591 C 0.55999 0.87354 0.39127 0.0
C592 C 0.57202 0.86448 0.41018 0.0
C593 C 0.53786 0.87011 0.38988 0.0
C594 C 0.52734 0.85751 0.40732 0.0
C595 C 0.53924 0.84862 0.42636 0.0
C596 C 0.5614 0.85199 0.42774 0.0
C597 C 0.50383 0.85397 0.40587 0.0
C598 C 0.49096 0.86095 0.42511 0.0
C599 C 0.49403 0.84501 0.38514 0.0
C600 C 0.50687 0.83651 0.36468 0.0
C601 C 0.52282 0.8208 0.36856 0.0
C602 C 0.53502 0.81305 0.34925 0.0
C603 C 0.53133 0.82078 0.32595 0.0
C604 C 0.51539 0.83624 0.32189 0.0
C605 C 0.50315 0.84406 0.34114 0.0
H606 H 0.5408 0.81476 0.31102 0.0
H607 H 0.42205 0.8929 0.49671 0.0
H608 H 0.16379 0.4161 0.15492 0.0
H609 H 0.1652 0.41681 0.19893 0.0
H610 H 0.19728 0.35502 0.19905 0.0
H611 H 0.19566 0.35402 0.15509 0.0
H612 H 0.16289 0.35466 0.22759 0.0
H613 H 0.22356 0.40133 0.21607 0.0
H614 H 0.24327 0.43266 0.19969 0.0
H615 H 0.19864 0.47584 0.23374 0.0
H616 H 0.17848 0.44475 0.25006 0.0
H617 H 0.17547 0.34916 0.35356 0.0
H618 H 0.18426 0.35151 0.31071 0.0
H619 H 0.1533 0.41379 0.30675 0.0
H620 H 0.14491 0.4118 0.34974 0.0
H621 H 0.1894 0.4136 0.28044 0.0
H622 H 0.12722 0.36795 0.28886 0.0
H623 H 0.10632 0.3372 0.30481 0.0
H624 H 0.15257 0.29283 0.27576 0.0
H625 H 0.1739 0.32335 0.2599 0.0
C626 C 0.17149 0.40284 0.16428 0.0
C627 C 0.17944 0.38491 0.15153 0.0
C628 C 0.17236 0.40332 0.18944 0.0
C629 C 0.1814 0.38598 0.20225 0.0
C630 C 0.1902 0.36853 0.1895 0.0
C631 C 0.18927 0.36801 0.16438 0.0
C632 C 0.17981 0.38505 0.22887 0.0
C633 C 0.16908 0.36735 0.23917 0.0
C634 C 0.18727 0.40195 0.24389 0.0
C635 C 0.1994 0.42069 0.23413 0.0
C636 C 0.21784 0.41749 0.21991 0.0
C637 C 0.22912 0.43522 0.21066 0.0
C638 C 0.22219 0.45622 0.21562 0.0
C639 C 0.20399 0.45956 0.22989 0.0
C640 C 0.19264 0.44189 0.23917 0.0
C641 C 0.17064 0.36341 0.34361 0.0
C642 C 0.1593 0.3802 0.35496 0.0
C643 C 0.17565 0.36472 0.31912 0.0
C644 C 0.16913 0.38267 0.30548 0.0
C645 C 0.15845 0.39978 0.31694 0.0
C646 C 0.15359 0.39857 0.34149 0.0
C647 C 0.17256 0.38318 0.27905 0.0
C648 C 0.18347 0.40082 0.26882 0.0
C649 C 0.16512 0.36631 0.26399 0.0
C650 C 0.15227 0.34793 0.27342 0.0
C651 C 0.13301 0.35164 0.28603 0.0
C652 C 0.12108 0.33425 0.29503 0.0
C653 C 0.12815 0.31308 0.29136 0.0
C654 C 0.14714 0.30924 0.27862 0.0
C655 C 0.15915 0.32657 0.26961 0.0
H656 H 0.11889 0.29964 0.29834 0.0
H657 H 0.23094 0.46992 0.20845 0.0
H658 H 0.80794 0.66437 0.64147 0.0
H659 H 0.81142 0.67035 0.68471 0.0
H660 H 0.79432 0.60385 0.69823 0.0
H661 H 0.7906 0.59768 0.65476 0.0
H662 H 0.77759 0.63307 0.73284 0.0
H663 H 0.84494 0.61528 0.69561 0.0
H664 H 0.87354 0.61884 0.66511 0.0
H665 H 0.88477 0.68441 0.68719 0.0
H666 H 0.85598 0.68133 0.71762 0.0
H667 H 0.82931 0.622 0.84688 0.0
H668 H 0.81712 0.61791 0.80528 0.0
H669 H 0.83753 0.68309 0.78957 0.0
H670 H 0.84994 0.6873 0.83114 0.0
H671 H 0.85164 0.65442 0.75615 0.0
H672 H 0.7849 0.67148 0.79486 0.0
H673 H 0.75614 0.6675 0.82513 0.0
H674 H 0.74389 0.60282 0.80063 0.0
H675 H 0.7728 0.60629 0.77043 0.0
C676 C 0.80454 0.65107 0.65361 0.0
C677 C 0.79935 0.63044 0.64469 0.0
C678 C 0.80653 0.65454 0.67831 0.0
C679 C 0.80352 0.63744 0.69455 0.0
C680 C 0.79679 0.61722 0.68591 0.0
C681 C 0.79472 0.61372 0.66109 0.0
C682 C 0.80949 0.64023 0.72015 0.0
C683 C 0.79381 0.6375 0.73804 0.0
C684 C 0.83061 0.64632 0.72676 0.0
C685 C 0.84816 0.64814 0.70873 0.0
C686 C 0.85341 0.63051 0.69384 0.0
C687 C 0.86966 0.63243 0.67658 0.0
C688 C 0.88093 0.65187 0.67415 0.0
C689 C 0.87601 0.66938 0.68906 0.0
C690 C 0.85973 0.66755 0.70634 0.0
C691 C 0.83113 0.63552 0.83462 0.0
C692 C 0.84064 0.65498 0.84229 0.0
C693 C 0.82404 0.63318 0.81089 0.0
C694 C 0.82625 0.65026 0.79444 0.0
C695 C 0.83564 0.66973 0.80205 0.0
C696 C 0.84269 0.67212 0.8258 0.0
C697 C 0.81969 0.64747 0.76898 0.0
C698 C 0.83536 0.65009 0.75105 0.0
C699 C 0.7986 0.6412 0.76243 0.0
C700 C 0.78116 0.63908 0.78054 0.0
C701 C 0.7762 0.65634 0.79606 0.0
C702 C 0.75984 0.65419 0.81318 0.0
C703 C 0.74823 0.6349 0.81484 0.0
C704 C 0.75291 0.61774 0.79934 0.0
C705 C 0.76927 0.6198 0.7822 0.0
H706 H 0.73557 0.63327 0.82811 0.0
H707 H 0.89351 0.65333 0.66077 0.0
H708 H 0.18581 0.65787 0.83918 0.0
H709 H 0.18263 0.65696 0.79536 0.0
H710 H 0.21231 0.59399 0.79404 0.0
H711 H 0.21597 0.59496 0.838 0.0
H712 H 0.22394 0.61892 0.75475 0.0
H713 H 0.15947 0.59701 0.79508 0.0
H714 H 0.13022 0.6008 0.82477 0.0
H715 H 0.10912 0.65895 0.7898 0.0
H716 H 0.13852 0.65575 0.76016 0.0
H717 H 0.17772 0.58755 0.6417 0.0
H718 H 0.18829 0.58883 0.68417 0.0
H719 H 0.16011 0.65223 0.69076 0.0
H720 H 0.1494 0.65108 0.64844 0.0
H721 H 0.14825 0.62521 0.72748 0.0
H722 H 0.21359 0.64677 0.68723 0.0
H723 H 0.24339 0.64265 0.65829 0.0
H724 H 0.26257 0.58375 0.69313 0.0
H725 H 0.23268 0.58737 0.72209 0.0
C726 C 0.19205 0.644 0.82955 0.0
C727 C 0.20083 0.62633 0.84203 0.0
C728 C 0.1902 0.6435 0.80453 0.0
C729 C 0.19677 0.62519 0.79159 0.0
C730 C 0.20703 0.60821 0.80376 0.0
C731 C 0.20908 0.60878 0.82886 0.0
C732 C 0.19104 0.62302 0.76583 0.0
C733 C 0.20739 0.62002 0.74876 0.0
C734 C 0.16942 0.62458 0.75812 0.0
C735 C 0.15133 0.62624 0.77551 0.0
C736 C 0.14867 0.61068 0.79379 0.0
C737 C 0.13207 0.61272 0.81062 0.0
C738 C 0.11785 0.63013 0.80921 0.0
C739 C 0.12016 0.64549 0.79089 0.0
C740 C 0.13679 0.64356 0.77406 0.0
C741 C 0.1738 0.60178 0.65218 0.0
C742 C 0.16273 0.61922 0.64171 0.0
C743 C 0.17993 0.60251 0.6764 0.0
C744 C 0.1751 0.62069 0.69051 0.0
C745 C 0.16399 0.63806 0.68014 0.0
C746 C 0.15793 0.63739 0.65594 0.0
C747 C 0.18118 0.62151 0.71628 0.0
C748 C 0.16482 0.62409 0.73342 0.0
C749 C 0.20275 0.61937 0.72401 0.0
C750 C 0.22076 0.61722 0.70667 0.0
C751 C 0.22405 0.63284 0.6886 0.0
C752 C 0.24098 0.63062 0.67222 0.0
C753 C 0.25483 0.61291 0.67383 0.0
C754 C 0.25181 0.59743 0.69188 0.0
C755 C 0.23489 0.59957 0.70829 0.0
H756 H 0.26792 0.61122 0.66113 0.0
H757 H 0.10503 0.63171 0.82228 0.0
H758 H 0.81302 0.36797 0.13066 0.0
H759 H 0.80031 0.36937 0.17236 0.0
H760 H 0.84819 0.32237 0.19274 0.0
H761 H 0.86037 0.32028 0.15097 0.0
H762 H 0.81262 0.31382 0.21519 0.0
H763 H 0.85452 0.37853 0.20161 0.0
H764 H 0.86398 0.41259 0.18102 0.0
H765 H 0.80186 0.43861 0.19796 0.0
H766 H 0.79194 0.40457 0.21841 0.0
H767 H 0.83605 0.3365 0.33647 0.0
H768 H 0.83631 0.33376 0.29263 0.0
H769 H 0.77712 0.36976 0.28904 0.0
H770 H 0.77654 0.37237 0.33326 0.0
H771 H 0.81154 0.3845 0.25746 0.0
H772 H 0.77288 0.32 0.27702 0.0
H773 H 0.766 0.28598 0.29891 0.0
H774 H 0.82507 0.25958 0.27194 0.0
H775 H 0.83248 0.29357 0.25017 0.0
C776 C 0.82075 0.35786 0.14404 0.0
C777 C 0.83778 0.34412 0.13762 0.0
C778 C 0.81352 0.35873 0.16786 0.0
C779 C 0.82352 0.34625 0.18578 0.0
C780 C 0.8402 0.33215 0.17924 0.0
C781 C 0.8472 0.33102 0.15537 0.0
C782 C 0.81717 0.34821 0.21147 0.0
C783 C 0.81248 0.32927 0.22443 0.0
C784 C 0.81642 0.36844 0.22344 0.0
C785 C 0.8224 0.38893 0.21127 0.0
C786 C 0.84283 0.39146 0.20079 0.0
C787 C 0.84828 0.41077 0.18917 0.0
C788 C 0.8335 0.42773 0.18811 0.0
C789 C 0.81327 0.42544 0.19875 0.0
C790 C 0.80773 0.40615 0.21036 0.0
C791 C 0.82302 0.3438 0.32642 0.0
C792 C 0.80627 0.35468 0.33831 0.0
C793 C 0.82316 0.34212 0.30138 0.0
C794 C 0.80666 0.35142 0.2877 0.0
C795 C 0.78993 0.36241 0.29939 0.0
C796 C 0.78961 0.36384 0.32458 0.0
C797 C 0.80758 0.35009 0.26113 0.0
C798 C 0.81127 0.36912 0.24805 0.0
C799 C 0.80775 0.32994 0.24913 0.0
C800 C 0.80329 0.3094 0.26208 0.0
C801 C 0.78449 0.307 0.2759 0.0
C802 C 0.78048 0.28771 0.28826 0.0
C803 C 0.7951 0.27065 0.28685 0.0
C804 C 0.81375 0.27282 0.27302 0.0
C805 C 0.81785 0.29208 0.26064 0.0
H806 H 0.79197 0.25572 0.29643 0.0
H807 H 0.83775 0.44266 0.17911 0.0
H808 H 0.6701 0.88335 0.36044 0.0
H809 H 0.68336 0.88668 0.31917 0.0
H810 H 0.66351 0.82114 0.30449 0.0
H811 H 0.65058 0.81751 0.34593 0.0
H812 H 0.70226 0.82998 0.28437 0.0
H813 H 0.63225 0.86375 0.28815 0.0
H814 H 0.60543 0.88942 0.30397 0.0
H815 H 0.64638 0.94268 0.28495 0.0
H816 H 0.67358 0.91729 0.2693 0.0
H817 H 0.68185 0.82721 0.15963 0.0
H818 H 0.68304 0.82635 0.20348 0.0
H819 H 0.70379 0.89293 0.20462 0.0
H820 H 0.70232 0.89404 0.16053 0.0
H821 H 0.66974 0.88678 0.23287 0.0
H822 H 0.73751 0.85254 0.2233 0.0
H823 H 0.76371 0.82649 0.20702 0.0
H824 H 0.72695 0.77384 0.23619 0.0
H825 H 0.70035 0.79954 0.25236 0.0
C826 C 0.66863 0.8696 0.34847 0.0
C827 C 0.65909 0.85022 0.35636 0.0
C828 C 0.67622 0.87154 0.3249 0.0
C829 C 0.67417 0.85425 0.30871 0.0
C830 C 0.66524 0.83467 0.31673 0.0
C831 C 0.65776 0.83267 0.34037 0.0
C832 C 0.68033 0.85684 0.2831 0.0
C833 C 0.6951 0.8423 0.27302 0.0
C834 C 0.67144 0.87335 0.26855 0.0
C835 C 0.65504 0.88862 0.27781 0.0
C836 C 0.6356 0.88093 0.28751 0.0
C837 C 0.62032 0.89542 0.29642 0.0
C838 C 0.62423 0.91766 0.29553 0.0
C839 C 0.6434 0.92545 0.28566 0.0
C840 C 0.65874 0.91102 0.27676 0.0
C841 C 0.68701 0.8416 0.16914 0.0
C842 C 0.6918 0.86077 0.1566 0.0
C843 C 0.68784 0.84102 0.19424 0.0
C844 C 0.69364 0.85953 0.20732 0.0
C845 C 0.69932 0.87845 0.19484 0.0
C846 C 0.69849 0.87905 0.16966 0.0
C847 C 0.69142 0.85965 0.2339 0.0
C848 C 0.6773 0.87469 0.24422 0.0
C849 C 0.70086 0.84355 0.24859 0.0
C850 C 0.71685 0.82799 0.23892 0.0
C851 C 0.73492 0.8354 0.22609 0.0
C852 C 0.74986 0.82069 0.21691 0.0
C853 C 0.74698 0.79852 0.22053 0.0
C854 C 0.72916 0.79102 0.23339 0.0
C855 C 0.71416 0.80565 0.24261 0.0
H856 H 0.75857 0.78717 0.21341 0.0
H857 H 0.61238 0.92886 0.30244 0.0
H858 H 0.31645 0.12106 0.86479 0.0
H859 H 0.30455 0.11686 0.82312 0.0
H860 H 0.33518 0.17719 0.80437 0.0
H861 H 0.34672 0.18178 0.8462 0.0
H862 H 0.29728 0.17295 0.78154 0.0
H863 H 0.36014 0.12871 0.79461 0.0
H864 H 0.38138 0.10057 0.81517 0.0
H865 H 0.33339 0.05315 0.79782 0.0
H866 H 0.31171 0.08109 0.77743 0.0
H867 H 0.3215 0.16112 0.65816 0.0
H868 H 0.32063 0.16564 0.70175 0.0
H869 H 0.28829 0.10427 0.7092 0.0
H870 H 0.28935 0.09942 0.66538 0.0
H871 H 0.32227 0.1072 0.7387 0.0
H872 H 0.26167 0.15137 0.7207 0.0
H873 H 0.24131 0.17988 0.6997 0.0
H874 H 0.28562 0.2278 0.72554 0.0
H875 H 0.30644 0.19954 0.74642 0.0
C876 C 0.32051 0.13354 0.85185 0.0
C877 C 0.33274 0.15165 0.85871 0.0
C878 C 0.31371 0.13109 0.82804 0.0
C879 C 0.3193 0.14652 0.81058 0.0
C880 C 0.33074 0.16506 0.81757 0.0
C881 C 0.33739 0.16762 0.84145 0.0
C882 C 0.31431 0.14281 0.7848 0.0
C883 C 0.30283 0.15865 0.77209 0.0
C884 C 0.32109 0.12387 0.77268 0.0
C885 C 0.3342 0.10703 0.78474 0.0
C886 C 0.35405 0.11231 0.79533 0.0
C887 C 0.36618 0.0964 0.80693 0.0
C888 C 0.35871 0.0751 0.80786 0.0
C889 C 0.33913 0.06966 0.79712 0.0
C890 C 0.32693 0.08552 0.78553 0.0
C891 C 0.31398 0.14865 0.66899 0.0
C892 C 0.30559 0.12984 0.6583 0.0
C893 C 0.31336 0.15135 0.69393 0.0
C894 C 0.3042 0.1354 0.7087 0.0
C895 C 0.29537 0.11681 0.69809 0.0
C896 C 0.29597 0.11408 0.67307 0.0
C897 C 0.30548 0.13749 0.73527 0.0
C898 C 0.31635 0.12135 0.74816 0.0
C899 C 0.29823 0.1562 0.74747 0.0
C900 C 0.2857 0.17329 0.73501 0.0
C901 C 0.26717 0.16796 0.72177 0.0
C902 C 0.25553 0.18409 0.7099 0.0
C903 C 0.26219 0.20563 0.71125 0.0
C904 C 0.28048 0.2111 0.72451 0.0
C905 C 0.29219 0.19504 0.73639 0.0
H906 H 0.25315 0.21809 0.70205 0.0
H907 H 0.36811 0.0628 0.81686 0.0
H908 H 0.66888 0.0815 0.8469 0.0
H909 H 0.66867 0.08468 0.80315 0.0
H910 H 0.69946 0.14709 0.80834 0.0
H911 H 0.69889 0.14435 0.85231 0.0
H912 H 0.6666 0.15053 0.78125 0.0
H913 H 0.72491 0.10131 0.78275 0.0
H914 H 0.74536 0.06875 0.79408 0.0
H915 H 0.69726 0.02851 0.76141 0.0
H916 H 0.67636 0.06081 0.75016 0.0
H917 H 0.66889 0.15675 0.65205 0.0
H918 H 0.68161 0.15362 0.6937 0.0
H919 H 0.64047 0.09831 0.70453 0.0
H920 H 0.6275 0.10141 0.66307 0.0
H921 H 0.6838 0.09319 0.72183 0.0
H922 H 0.62411 0.14372 0.72544 0.0
H923 H 0.60476 0.1769 0.71384 0.0
H924 H 0.65843 0.21547 0.73664 0.0
H925 H 0.67821 0.18247 0.74808 0.0
C926 C 0.67604 0.0957 0.83873 0.0
C927 C 0.68375 0.11275 0.85302 0.0
C928 C 0.67602 0.09745 0.81365 0.0
C929 C 0.68419 0.11607 0.80237 0.0
C930 C 0.69301 0.1326 0.81662 0.0
C931 C 0.69272 0.131 0.84174 0.0
C932 C 0.68126 0.11926 0.77605 0.0
C933 C 0.67089 0.13817 0.76824 0.0
C934 C 0.68647 0.10303 0.75902 0.0
C935 C 0.69899 0.08351 0.76575 0.0
C936 C 0.71861 0.08552 0.77813 0.0
C937 C 0.7303 0.0671 0.78451 0.0
C938 C 0.7226 0.04658 0.77851 0.0
C939 C 0.70321 0.04442 0.76606 0.0
C940 C 0.69144 0.06278 0.75964 0.0
C941 C 0.66255 0.14393 0.66331 0.0
C942 C 0.64711 0.12939 0.65436 0.0
C943 C 0.66985 0.14217 0.68704 0.0
C944 C 0.66196 0.12573 0.70207 0.0
C945 C 0.64678 0.11104 0.69311 0.0
C946 C 0.63929 0.11294 0.6695 0.0
C947 C 0.66897 0.12418 0.72744 0.0
C948 C 0.68 0.10562 0.73495 0.0
C949 C 0.66463 0.14081 0.74417 0.0
C950 C 0.65273 0.16063 0.73733 0.0
C951 C 0.63186 0.15927 0.72776 0.0
C952 C 0.6208 0.17804 0.72126 0.0
C953 C 0.63039 0.19828 0.72442 0.0
C954 C 0.65104 0.19978 0.73415 0.0
C955 C 0.66217 0.18105 0.74066 0.0
H956 H 0.62179 0.21279 0.71939 0.0
H957 H 0.73167 0.03234 0.78346 0.0
H958 H 0.32188 0.84544 0.15049 0.0
H959 H 0.31063 0.849 0.19247 0.0
H960 H 0.33641 0.91375 0.19449 0.0
H961 H 0.34802 0.91023 0.15257 0.0
H962 H 0.34948 0.89077 0.23238 0.0
H963 H 0.28226 0.90509 0.19421 0.0
H964 H 0.25205 0.89861 0.1664 0.0
H965 H 0.2376 0.839 0.20267 0.0
H966 H 0.26793 0.84496 0.23051 0.0
H967 H 0.30919 0.91385 0.34805 0.0
H968 H 0.30999 0.91614 0.30404 0.0
H969 H 0.29784 0.84766 0.29911 0.0
H970 H 0.29733 0.8451 0.34317 0.0
H971 H 0.27598 0.87532 0.26269 0.0
H972 H 0.34566 0.85874 0.29659 0.0
H973 H 0.37569 0.86463 0.32476 0.0
H974 H 0.38511 0.92849 0.29617 0.0
H975 H 0.35488 0.92303 0.26799 0.0
C976 C 0.32503 0.8605 0.1598 0.0
C977 C 0.33592 0.87753 0.14822 0.0
C978 C 0.31846 0.86256 0.18375 0.0
C979 C 0.32249 0.88172 0.19652 0.0
C980 C 0.33311 0.89884 0.18493 0.0
C981 C 0.33972 0.8968 0.16097 0.0
C982 C 0.31681 0.88336 0.2224 0.0
C983 C 0.3333 0.88782 0.2389 0.0
C984 C 0.2958 0.87901 0.23099 0.0
C985 C 0.27749 0.87539 0.21433 0.0
C986 C 0.27275 0.89051 0.19614 0.0
C987 C 0.25558 0.88695 0.18039 0.0
C988 C 0.24294 0.86838 0.18273 0.0
C989 C 0.24741 0.85337 0.20087 0.0
C990 C 0.26458 0.85684 0.21666 0.0
C991 C 0.30619 0.89935 0.33763 0.0
C992 C 0.30344 0.87924 0.34903 0.0
C993 C 0.30665 0.90071 0.31251 0.0
C994 C 0.3041 0.88204 0.29847 0.0
C995 C 0.29978 0.86222 0.30973 0.0
C996 C 0.29962 0.86079 0.33486 0.0
C997 C 0.30863 0.88271 0.27236 0.0
C998 C 0.29202 0.87857 0.25595 0.0
C999 C 0.32952 0.88732 0.26376 0.0
C1000 C 0.34787 0.89058 0.28041 0.0
C1001 C 0.35402 0.87411 0.29646 0.0
C1002 C 0.37109 0.87736 0.31241 0.0
C1003 C 0.38226 0.89697 0.31234 0.0
C1004 C 0.37642 0.91333 0.29624 0.0
C1005 C 0.35932 0.91016 0.28026 0.0
H1006 H 0.39547 0.89946 0.32472 0.0
H1007 H 0.22966 0.86566 0.17052 0.0
H1008 H 0.27626 0.16727 0.95651 0.0
H1009 H 0.25785 0.19678 0.97716 0.0
H1010 H 0.31892 0.22567 0.99496 0.0
H1011 H 0.33753 0.19607 0.97454 0.0
H1012 H 0.29143 0.22609 0.0331 0.0
H1013 H 0.28981 0.2461 0.94975 0.0
H1014 H 0.28293 0.24098 0.90635 0.0
H1015 H 0.21571 0.23204 0.9207 0.0
H1016 H 0.22223 0.23681 0.96425 0.0
H1017 H 0.24981 0.32974 0.06475 0.0
H1018 H 0.26967 0.30012 0.04594 0.0
H1019 H 0.20994 0.26913 0.0268 0.0
H1020 H 0.18996 0.29873 0.04532 0.0
H1021 H 0.23773 0.2704 0.98924 0.0
H1022 H 0.23976 0.25013 0.07296 0.0
H1023 H 0.247 0.25546 0.11626 0.0
H1024 H 0.31393 0.26543 0.10102 0.0
H1025 H 0.30703 0.26044 0.05757 0.0
C1026 C 0.2858 0.17987 0.96485 0.0
C1027 C 0.30835 0.17939 0.96379 0.0
C1028 C 0.27525 0.19675 0.97657 0.0
C1029 C 0.28704 0.21351 0.98732 0.0
C1030 C 0.30955 0.21289 0.98672 0.0
C1031 C 0.32013 0.196 0.97498 0.0
C1032 C 0.27583 0.23178 -0.00097 0.0
C1033 C 0.2799 0.23599 0.02345 0.0
C1034 C 0.26055 0.24441 0.98648 0.0
C1035 C 0.25655 0.2416 0.96029 0.0
C1036 C 0.27358 0.24287 0.94367 0.0
C1037 C 0.26974 0.24006 0.91904 0.0
C1038 C 0.2489 0.23613 0.91078 0.0
C1039 C 0.23185 0.23506 0.92713 0.0
C1040 C 0.2356 0.23783 0.95179 0.0
C1041 C 0.2409 0.31658 0.05662 0.0
C1042 C 0.21831 0.31657 0.05653 0.0
C1043 C 0.25227 0.29964 0.04597 0.0
C1044 C 0.24125 0.28238 0.03515 0.0
C1045 C 0.21873 0.28232 0.03506 0.0
C1046 C 0.20735 0.29922 0.04571 0.0
C1047 C 0.25317 0.2646 0.02339 0.0
C1048 C 0.24927 0.26052 -0.0011 0.0
C1049 C 0.26865 0.25216 0.03587 0.0
C1050 C 0.27284 0.25513 0.06199 0.0
C1051 C 0.25599 0.25364 0.07882 0.0
C1052 C 0.26004 0.25656 0.1034 0.0
C1053 C 0.2809 0.26084 0.11138 0.0
C1054 C 0.29777 0.26215 0.09481 0.0
C1055 C 0.2938 0.25925 0.07021 0.0
H1056 H 0.28401 0.2631 0.13041 0.0
H1057 H 0.24596 0.23397 0.8917 0.0
H1058 H 0.80288 0.69145 0.52287 0.0
H1059 H 0.78382 0.72098 0.50298 0.0
H1060 H 0.72394 0.69818 0.53291 0.0
H1061 H 0.74281 0.66836 0.55253 0.0
H1062 H 0.71941 0.70967 0.48634 0.0
H1063 H 0.75018 0.7408 0.55797 0.0
H1064 H 0.77939 0.74969 0.58631 0.0
H1065 H 0.81223 0.78492 0.53063 0.0
H1066 H 0.78333 0.77598 0.50185 0.0
H1067 H 0.65689 0.8041 0.46983 0.0
H1068 H 0.67638 0.77359 0.48716 0.0
H1069 H 0.73555 0.79795 0.45697 0.0
H1070 H 0.71625 0.82874 0.43992 0.0
H1071 H 0.74089 0.78553 0.5028 0.0
H1072 H 0.70962 0.75521 0.43137 0.0
H1073 H 0.68031 0.74642 0.40312 0.0
H1074 H 0.64836 0.70979 0.45831 0.0
H1075 H 0.67733 0.71862 0.48702 0.0
C1076 C 0.78565 0.69266 0.52516 0.0
C1077 C 0.77436 0.67765 0.5394 0.0
C1078 C 0.7748 0.70959 0.51384 0.0
C1079 C 0.75253 0.71192 0.51677 0.0
C1080 C 0.74115 0.69667 0.53048 0.0
C1081 C 0.75197 0.67969 0.54173 0.0
C1082 C 0.74111 0.73044 0.50582 0.0
C1083 C 0.72393 0.72628 0.49014 0.0
C1084 C 0.74736 0.75205 0.51039 0.0
C1085 C 0.7647 0.75753 0.5277 0.0
C1086 C 0.76371 0.7503 0.55172 0.0
C1087 C 0.78019 0.75537 0.56787 0.0
C1088 C 0.79768 0.76781 0.56026 0.0
C1089 C 0.79869 0.77526 0.53649 0.0
C1090 C 0.78225 0.77021 0.52026 0.0
C1091 C 0.67405 0.80298 0.46686 0.0
C1092 C 0.68503 0.81881 0.45346 0.0
C1093 C 0.68514 0.78547 0.47668 0.0
C1094 C 0.70735 0.78338 0.47307 0.0
C1095 C 0.71839 0.79927 0.45991 0.0
C1096 C 0.70733 0.81682 0.45015 0.0
C1097 C 0.71915 0.76479 0.48334 0.0
C1098 C 0.7364 0.76894 0.49892 0.0
C1099 C 0.71295 0.74317 0.47867 0.0
C1100 C 0.69556 0.73774 0.46141 0.0
C1101 C 0.69626 0.74541 0.43754 0.0
C1102 C 0.67972 0.7404 0.42143 0.0
C1103 C 0.66246 0.72759 0.42893 0.0
C1104 C 0.66173 0.71973 0.45254 0.0
C1105 C 0.67822 0.72471 0.46873 0.0
H1106 H 0.64967 0.72373 0.41644 0.0
H1107 H 0.81043 0.77172 0.57279 0.0
H1108 H 0.33671 0.79271 0.03782 0.0
H1109 H 0.31916 0.7628 0.01689 0.0
H1110 H 0.25853 0.78042 0.04899 0.0
H1111 H 0.27599 0.8103 0.07023 0.0
H1112 H 0.26491 0.73662 0.04925 0.0
H1113 H 0.26905 0.79497 0.99233 0.0
H1114 H 0.28702 0.8236 0.96881 0.0
H1115 H 0.32745 0.77619 0.93515 0.0
H1116 H 0.30991 0.74729 0.95873 0.0
H1117 H 0.19456 0.68302 0.96783 0.0
H1118 H 0.21379 0.70971 0.9921 0.0
H1119 H 0.27363 0.69024 0.95949 0.0
H1120 H 0.25453 0.66351 0.93505 0.0
H1121 H 0.26841 0.7342 0.95989 0.0
H1122 H 0.26303 0.67556 0.01598 0.0
H1123 H 0.24461 0.64716 0.03939 0.0
H1124 H 0.20593 0.69525 0.07443 0.0
H1125 H 0.22392 0.72393 0.05096 0.0
C1126 C 0.31966 0.79018 0.04055 0.0
C1127 C 0.3077 0.80398 0.05555 0.0
C1128 C 0.30966 0.77311 0.02853 0.0
C1129 C 0.28752 0.7696 0.03118 0.0
C1130 C 0.27564 0.78292 0.04669 0.0
C1131 C 0.28563 0.80002 0.05873 0.0
C1132 C 0.27666 0.7524 0.01722 0.0
C1133 C 0.26545 0.7362 0.0297 0.0
C1134 C 0.27778 0.75167 0.99175 0.0
C1135 C 0.28832 0.769 0.97749 0.0
C1136 C 0.28189 0.79067 0.98006 0.0
C1137 C 0.29198 0.80694 0.96669 0.0
C1138 C 0.30841 0.80172 0.95055 0.0
C1139 C 0.31475 0.78021 0.94769 0.0
C1140 C 0.30473 0.76388 0.96104 0.0
C1141 C 0.21182 0.68435 0.96587 0.0
C1142 C 0.22303 0.67116 0.94951 0.0
C1143 C 0.22279 0.69953 0.97984 0.0
C1144 C 0.24513 0.7018 0.9777 0.0
C1145 C 0.25638 0.68868 0.9614 0.0
C1146 C 0.24544 0.6734 0.94751 0.0
C1147 C 0.25665 0.7184 0.9919 0.0
C1148 C 0.26795 0.73454 0.97944 0.0
C1149 C 0.25553 0.71909 0.01736 0.0
C1150 C 0.24468 0.70188 0.03153 0.0
C1151 C 0.25047 0.68007 0.02852 0.0
C1152 C 0.24013 0.66392 0.04183 0.0
C1153 C 0.22407 0.66939 0.05834 0.0
C1154 C 0.21836 0.69103 0.06161 0.0
C1155 C 0.22863 0.70724 0.04832 0.0
H1156 H 0.21609 0.65687 0.06864 0.0
H1157 H 0.3162 0.81434 0.94021 0.0
H1158 H 0.71765 0.16897 0.5463 0.0
H1159 H 0.73626 0.19815 0.52532 0.0
H1160 H 0.67813 0.23607 0.5255 0.0
H1161 H 0.65919 0.20668 0.54607 0.0
H1162 H 0.69699 0.23764 0.48253 0.0
H1163 H 0.71951 0.24775 0.5641 0.0
H1164 H 0.73426 0.23712 0.60361 0.0
H1165 H 0.7941 0.22005 0.57017 0.0
H1166 H 0.77961 0.2303 0.53039 0.0
H1167 H 0.75001 0.33549 0.44824 0.0
H1168 H 0.72929 0.30811 0.46998 0.0
H1169 H 0.78385 0.2652 0.46856 0.0
H1170 H 0.80476 0.2925 0.44699 0.0
H1171 H 0.76564 0.26777 0.51322 0.0
H1172 H 0.74209 0.25682 0.43132 0.0
H1173 H 0.72701 0.26795 0.39213 0.0
H1174 H 0.6686 0.28757 0.42698 0.0
H1175 H 0.68345 0.27682 0.46644 0.0
C1176 C 0.70882 0.18354 0.54198 0.0
C1177 C 0.68696 0.18555 0.54791 0.0
C1178 C 0.71951 0.20024 0.53006 0.0
C1179 C 0.70865 0.2194 0.52416 0.0
C1180 C 0.68681 0.22143 0.52996 0.0
C1181 C 0.67604 0.20465 0.54175 0.0
C1182 C 0.72006 0.23708 0.51148 0.0
C1183 C 0.71182 0.24449 0.48943 0.0
C1184 C 0.7396 0.24573 0.52031 0.0
C1185 C 0.7484 0.23962 0.54423 0.0
C1186 C 0.73576 0.24157 0.56514 0.0
C1187 C 0.74409 0.23565 0.58759 0.0
C1188 C 0.76509 0.22787 0.58939 0.0
C1189 C 0.77783 0.22606 0.56874 0.0
C1190 C 0.76958 0.23195 0.54624 0.0
C1191 C 0.75758 0.3202 0.45247 0.0
C1192 C 0.77902 0.31615 0.44589 0.0
C1193 C 0.74569 0.30456 0.46482 0.0
C1194 C 0.75502 0.28461 0.47072 0.0
C1195 C 0.77639 0.28052 0.46416 0.0
C1196 C 0.78828 0.29611 0.45178 0.0
C1197 C 0.74268 0.26811 0.48418 0.0
C1198 C 0.75075 0.26098 0.50641 0.0
C1199 C 0.72294 0.25982 0.47558 0.0
C1200 C 0.71397 0.26623 0.45186 0.0
C1201 C 0.7261 0.26368 0.43065 0.0
C1202 C 0.71758 0.26988 0.40839 0.0
C1203 C 0.69688 0.27852 0.40707 0.0
C1204 C 0.68464 0.28091 0.42803 0.0
C1205 C 0.69309 0.27474 0.45034 0.0
H1206 H 0.69031 0.28332 0.38982 0.0
H1207 H 0.77151 0.22329 0.60679 0.0
H1208 H 0.74634 0.82884 0.05066 0.0
H1209 H 0.76636 0.80242 0.02688 0.0
H1210 H 0.70819 0.76585 0.01541 0.0
H1211 H 0.6881 0.79199 0.03948 0.0
H1212 H 0.74059 0.74006 0.02809 0.0
H1213 H 0.72959 0.79678 0.9706 0.0
H1214 H 0.7306 0.83419 0.95526 0.0
H1215 H 0.79933 0.83493 0.96173 0.0
H1216 H 0.79871 0.79761 0.97745 0.0
H1217 H 0.77987 0.67101 0.93666 0.0
H1218 H 0.75943 0.69903 0.9575 0.0
H1219 H 0.8181 0.73357 0.97277 0.0
H1220 H 0.83873 0.70566 0.95181 0.0
H1221 H 0.78537 0.76051 0.95759 0.0
H1222 H 0.79596 0.70385 0.01581 0.0
H1223 H 0.79466 0.66638 0.03094 0.0
H1224 H 0.72609 0.66561 0.02265 0.0
H1225 H 0.72701 0.70299 0.00713 0.0
C1226 C 0.73779 0.81521 0.04303 0.0
C1227 C 0.71564 0.8125 0.04695 0.0
C1228 C 0.74924 0.80019 0.02935 0.0
C1229 C 0.7387 0.78232 0.01918 0.0
C1230 C 0.7166 0.77956 0.02309 0.0
C1231 C 0.70516 0.79453 0.03682 0.0
C1232 C 0.75083 0.76615 0.00501 0.0
C1233 C 0.75012 0.74449 0.01246 0.0
C1234 C 0.76364 0.77205 0.98496 0.0
C1235 C 0.76408 0.79447 0.97543 0.0
C1236 C 0.7449 0.80498 0.96894 0.0
C1237 C 0.74541 0.82616 0.96014 0.0
C1238 C 0.76501 0.83695 0.95758 0.0
C1239 C 0.78415 0.82656 0.96375 0.0
C1240 C 0.78374 0.80539 0.97259 0.0
C1241 C 0.78844 0.6846 0.94436 0.0
C1242 C 0.81093 0.68605 0.94274 0.0
C1243 C 0.77674 0.70056 0.9563 0.0
C1244 C 0.78731 0.7182 0.96687 0.0
C1245 C 0.80969 0.72003 0.96475 0.0
C1246 C 0.82143 0.70403 0.95285 0.0
C1247 C 0.77505 0.73448 0.98067 0.0
C1248 C 0.77577 0.75613 0.97319 0.0
C1249 C 0.76218 0.72859 0.00065 0.0
C1250 C 0.76158 0.70614 0.01008 0.0
C1251 C 0.78062 0.69563 0.01703 0.0
C1252 C 0.77995 0.67442 0.02571 0.0
C1253 C 0.76031 0.6636 0.0277 0.0
C1254 C 0.74129 0.67399 0.02107 0.0
C1255 C 0.74188 0.6952 0.01234 0.0
H1256 H 0.75982 0.64718 0.03442 0.0
H1257 H 0.76536 0.85335 0.95077 0.0
H1258 H 0.24838 0.1752 0.57337 0.0
H1259 H 0.22946 0.2025 0.54966 0.0
H1260 H 0.2867 0.21352 0.50746 0.0
H1261 H 0.30587 0.18661 0.5314 0.0
H1262 H 0.26898 0.25068 0.51996 0.0
H1263 H 0.2441 0.18436 0.48502 0.0
H1264 H 0.22814 0.14785 0.48499 0.0
H1265 H 0.16952 0.1733 0.51426 0.0
H1266 H 0.18524 0.20994 0.51477 0.0
H1267 H 0.21969 0.3112 0.42654 0.0
H1268 H 0.23831 0.2824 0.4483 0.0
H1269 H 0.18294 0.27365 0.4941 0.0
H1270 H 0.16412 0.30228 0.47234 0.0
H1271 H 0.19981 0.23511 0.47901 0.0
H1272 H 0.22532 0.30139 0.51445 0.0
H1273 H 0.24143 0.33783 0.51395 0.0
H1274 H 0.29921 0.3121 0.48294 0.0
H1275 H 0.28332 0.27553 0.48295 0.0
C1276 C 0.25694 0.18341 0.55902 0.0
C1277 C 0.27861 0.17874 0.55424 0.0
C1278 C 0.24607 0.19893 0.54542 0.0
C1279 C 0.25661 0.20983 0.5266 0.0
C1280 C 0.27827 0.20527 0.52189 0.0
C1281 C 0.28918 0.18987 0.53557 0.0
C1282 C 0.24519 0.22633 0.51213 0.0
C1283 C 0.25402 0.24718 0.51071 0.0
C1284 C 0.22544 0.22187 0.50049 0.0
C1285 C 0.21593 0.19986 0.50014 0.0
C1286 C 0.22786 0.18214 0.49162 0.0
C1287 C 0.21885 0.16143 0.49149 0.0
C1288 C 0.19785 0.15825 0.49968 0.0
C1289 C 0.1858 0.17579 0.50795 0.0
C1290 C 0.19474 0.19653 0.50815 0.0
C1291 C 0.21144 0.30311 0.44118 0.0
C1292 C 0.19048 0.3091 0.44781 0.0
C1293 C 0.22212 0.28671 0.45363 0.0
C1294 C 0.21206 0.27609 0.47295 0.0
C1295 C 0.19097 0.28169 0.47925 0.0
C1296 C 0.18029 0.2981 0.46685 0.0
C1297 C 0.22363 0.25938 0.48688 0.0
C1298 C 0.21481 0.23853 0.48821 0.0
C1299 C 0.24342 0.26381 0.49837 0.0
C1300 C 0.25305 0.28576 0.49848 0.0
C1301 C 0.2414 0.30353 0.50735 0.0
C1302 C 0.2505 0.3242 0.50719 0.0
C1303 C 0.27131 0.32729 0.49836 0.0
C1304 C 0.28308 0.30969 0.48974 0.0
C1305 C 0.27404 0.28898 0.48984 0.0
H1306 H 0.27833 0.3433 0.49825 0.0
H1307 H 0.1909 0.1422 0.49956 0.0
H1308 H 0.77845 0.32142 0.04939 0.0
H1309 H 0.76078 0.29024 0.0311 0.0
H1310 H 0.82158 0.2684 0.00289 0.0
H1311 H 0.83944 0.29971 0.021 0.0
H1312 H 0.78939 0.26594 0.96939 0.0
H1313 H 0.80089 0.24375 0.05089 0.0
H1314 H 0.79964 0.24704 0.09517 0.0
H1315 H 0.73074 0.24946 0.09294 0.0
H1316 H 0.73158 0.24651 0.04859 0.0
H1317 H 0.74958 0.16177 0.93713 0.0
H1318 H 0.7707 0.19065 0.95574 0.0
H1319 H 0.71308 0.21707 0.9873 0.0
H1320 H 0.69188 0.18818 0.969 0.0
H1321 H 0.74598 0.21568 0.01943 0.0
H1322 H 0.73473 0.23982 0.93777 0.0
H1323 H 0.73603 0.23684 0.89346 0.0
H1324 H 0.8047 0.23068 0.89608 0.0
H1325 H 0.80377 0.23334 0.94047 0.0
C1326 C 0.78809 0.31002 0.03927 0.0
C1327 C 0.81036 0.31299 0.03672 0.0
C1328 C 0.77797 0.29217 0.02892 0.0
C1329 C 0.78993 0.27691 0.01592 0.0
C1330 C 0.8121 0.27999 0.01294 0.0
C1331 C 0.82226 0.29784 0.02334 0.0
C1332 C 0.77918 0.25779 0.00538 0.0
C1333 C 0.78019 0.25472 0.98035 0.0
C1334 C 0.7669 0.24342 0.0197 0.0
C1335 C 0.76631 0.2451 0.04639 0.0
C1336 C 0.78548 0.24516 0.05982 0.0
C1337 C 0.78484 0.24693 0.08494 0.0
C1338 C 0.76513 0.24851 0.09686 0.0
C1339 C 0.746 0.24826 0.08368 0.0
C1340 C 0.74655 0.24651 0.05855 0.0
C1341 C 0.74141 0.17369 0.94808 0.0
C1342 C 0.71904 0.17273 0.95153 0.0
C1343 C 0.75349 0.19021 0.95862 0.0
C1344 C 0.7434 0.20609 0.97269 0.0
C1345 C 0.72115 0.20496 0.97649 0.0
C1346 C 0.70906 0.18848 0.96595 0.0
C1347 C 0.75595 0.22399 0.9834 0.0
C1348 C 0.7553 0.2268 0.00848 0.0
C1349 C 0.76857 0.2381 0.96913 0.0
C1350 C 0.76916 0.23653 0.94245 0.0
C1351 C 0.75009 0.23764 0.92891 0.0
C1352 C 0.75076 0.23605 0.90378 0.0
C1353 C 0.77043 0.2335 0.89197 0.0
C1354 C 0.78947 0.23261 0.90526 0.0
C1355 C 0.78888 0.23417 0.9304 0.0
H1356 H 0.77092 0.23228 0.87251 0.0
H1357 H 0.76467 0.24987 0.1163 0.0
H1358 H 0.15344 0.69547 0.52876 0.0
H1359 H 0.17214 0.72421 0.50693 0.0
H1360 H 0.23085 0.70861 0.54444 0.0
H1361 H 0.21212 0.6803 0.56683 0.0
H1362 H 0.22619 0.7507 0.5421 0.0
H1363 H 0.22121 0.69202 0.48558 0.0
H1364 H 0.20272 0.66403 0.46167 0.0
H1365 H 0.16535 0.7129 0.42619 0.0
H1366 H 0.18343 0.74118 0.45014 0.0
H1367 H 0.30144 0.80084 0.46437 0.0
H1368 H 0.28033 0.77401 0.48641 0.0
H1369 H 0.22253 0.79711 0.45221 0.0
H1370 H 0.24352 0.82401 0.42996 0.0
H1371 H 0.22547 0.75243 0.45265 0.0
H1372 H 0.23225 0.81121 0.5087 0.0
H1373 H 0.25179 0.83863 0.53238 0.0
H1374 H 0.28711 0.78859 0.56848 0.0
H1375 H 0.26799 0.76087 0.54475 0.0
C1376 C 0.17032 0.6982 0.5324 0.0
C1377 C 0.18134 0.68556 0.54944 0.0
C1378 C 0.18101 0.71457 0.51983 0.0
C1379 C 0.20298 0.71833 0.52378 0.0
C1380 C 0.2139 0.70597 0.54108 0.0
C1381 C 0.20318 0.68976 0.55383 0.0
C1382 C 0.21467 0.73509 0.50986 0.0
C1383 C 0.22622 0.75091 0.52254 0.0
C1384 C 0.21433 0.73565 0.48433 0.0
C1385 C 0.20352 0.71869 0.46983 0.0
C1386 C 0.20894 0.69678 0.47281 0.0
C1387 C 0.19855 0.68087 0.45923 0.0
C1388 C 0.18283 0.68668 0.44247 0.0
C1389 C 0.17751 0.70842 0.4392 0.0
C1390 C 0.18783 0.7244 0.45276 0.0
C1391 C 0.28424 0.80021 0.46148 0.0
C1392 C 0.27413 0.81461 0.44548 0.0
C1393 C 0.2722 0.78493 0.47416 0.0
C1394 C 0.24986 0.78377 0.4711 0.0
C1395 C 0.23976 0.79782 0.45483 0.0
C1396 C 0.25177 0.8132 0.44221 0.0
C1397 C 0.23709 0.76784 0.48491 0.0
C1398 C 0.22534 0.75221 0.47221 0.0
C1399 C 0.23738 0.76734 0.5104 0.0
C1400 C 0.24882 0.78398 0.52479 0.0
C1401 C 0.2443 0.80606 0.52155 0.0
C1402 C 0.25528 0.82166 0.53501 0.0
C1403 C 0.27072 0.81536 0.55188 0.0
C1404 C 0.27516 0.79345 0.55538 0.0
C1405 C 0.26424 0.77779 0.54195 0.0
H1406 H 0.2792 0.82746 0.56228 0.0
H1407 H 0.1748 0.67433 0.43197 0.0
H1408 H 0.16491 0.54851 0.89232 0.0
H1409 H 0.16749 0.51242 0.91002 0.0
H1410 H 0.19425 0.53981 0.97493 0.0
H1411 H 0.19205 0.57593 0.95726 0.0
H1412 H 0.21453 0.50252 0.96219 0.0
H1413 H 0.14144 0.52765 0.97138 0.0
H1414 H 0.1069 0.54183 0.95652 0.0
H1415 H 0.09879 0.48553 0.91215 0.0
H1416 H 0.13351 0.47119 0.92645 0.0
H1417 H 0.18997 0.42397 0.05074 0.0
H1418 H 0.19348 0.45629 0.02576 0.0
H1419 H 0.16533 0.42227 0.96566 0.0
H1420 H 0.16154 0.38987 0.99061 0.0
H1421 H 0.14684 0.46101 0.97227 0.0
H1422 H 0.21827 0.43421 0.96545 0.0
H1423 H 0.253 0.41998 0.97969 0.0
H1424 H 0.26444 0.47868 0.01895 0.0
H1425 H 0.22962 0.49316 0.00524 0.0
C1426 C 0.1715 0.54685 0.91029 0.0
C1427 C 0.17808 0.5651 0.92349 0.0
C1428 C 0.17293 0.52622 0.92038 0.0
C1429 C 0.18079 0.52351 0.9439 0.0
C1430 C 0.18811 0.54159 0.95676 0.0
C1431 C 0.18675 0.56222 0.94667 0.0
C1432 C 0.18045 0.502 0.9556 0.0
C1433 C 0.19973 0.49349 0.96458 0.0
C1434 C 0.1612 0.49001 0.95809 0.0
C1435 C 0.14018 0.49847 0.94978 0.0
C1436 C 0.13236 0.51837 0.95833 0.0
C1437 C 0.11274 0.52642 0.95002 0.0
C1438 C 0.10068 0.51461 0.93334 0.0
C1439 C 0.10818 0.49468 0.92503 0.0
C1440 C 0.12782 0.48658 0.93323 0.0
C1441 C 0.18467 0.42329 0.03215 0.0
C1442 C 0.17543 0.40437 0.02266 0.0
C1443 C 0.1868 0.44174 0.01787 0.0
C1444 C 0.17985 0.4416 0.9938 0.0
C1445 C 0.17084 0.42268 0.98419 0.0
C1446 C 0.16873 0.40419 -0.00154 0.0
C1447 C 0.1809 0.4616 0.97916 0.0
C1448 C 0.16172 0.46988 0.96966 0.0
C1449 C 0.20026 0.47333 0.97617 0.0
C1450 C 0.22123 0.4647 0.98447 0.0
C1451 C 0.2281 0.44402 0.97728 0.0
C1452 C 0.24782 0.43592 0.98523 0.0
C1453 C 0.26089 0.4484 0.00026 0.0
C1454 C 0.25429 0.46902 0.00733 0.0
C1455 C 0.23457 0.4772 -0.00055 0.0
H1456 H 0.27616 0.4421 0.00639 0.0
H1457 H 0.08551 0.52086 0.92687 0.0
H1458 H 0.83599 0.54969 0.57502 0.0
H1459 H 0.8325 0.51679 0.55099 0.0
H1460 H 0.79476 0.55144 0.49846 0.0
H1461 H 0.79772 0.58429 0.52266 0.0
H1462 H 0.77887 0.51193 0.5051 0.0
H1463 H 0.84817 0.54256 0.48955 0.0
H1464 H 0.88387 0.55729 0.49971 0.0
H1465 H 0.90153 0.49678 0.53203 0.0
H1466 H 0.86579 0.48179 0.52242 0.0
H1467 H 0.79808 0.43772 0.40722 0.0
H1468 H 0.79644 0.47013 0.43263 0.0
H1469 H 0.82717 0.43538 0.49051 0.0
H1470 H 0.82875 0.40302 0.4655 0.0
H1471 H 0.8462 0.47536 0.48011 0.0
H1472 H 0.77601 0.44516 0.49499 0.0
H1473 H 0.74043 0.431 0.48344 0.0
H1474 H 0.72487 0.49167 0.45013 0.0
H1475 H 0.7605 0.50609 0.46119 0.0
C1476 C 0.82677 0.55027 0.55848 0.0
C1477 C 0.81732 0.56965 0.55062 0.0
C1478 C 0.82486 0.53147 0.54472 0.0
C1479 C 0.81373 0.53179 0.52271 0.0
C1480 C 0.8035 0.55087 0.51534 0.0
C1481 C 0.80526 0.56964 0.52917 0.0
C1482 C 0.81346 0.51248 0.50693 0.0
C1483 C 0.7936 0.50408 0.4994 0.0
C1484 C 0.83269 0.50214 0.49968 0.0
C1485 C 0.85421 0.51112 0.50547 0.0
C1486 C 0.8596 0.53245 0.49901 0.0
C1487 C 0.87985 0.54084 0.50464 0.0
C1488 C 0.89494 0.52799 0.51655 0.0
C1489 C 0.88981 0.50672 0.52283 0.0
C1490 C 0.86956 0.49827 0.51729 0.0
C1491 C 0.80437 0.43697 0.4254 0.0
C1492 C 0.81356 0.41782 0.43433 0.0
C1493 C 0.80335 0.45545 0.43989 0.0
C1494 C 0.81166 0.45506 0.46342 0.0
C1495 C 0.8207 0.43596 0.47239 0.0
C1496 C 0.82151 0.41747 0.45807 0.0
C1497 C 0.81165 0.47473 0.47853 0.0
C1498 C 0.83149 0.48324 0.48584 0.0
C1499 C 0.79245 0.48526 0.48533 0.0
C1500 C 0.77102 0.47662 0.47868 0.0
C1501 C 0.76509 0.45541 0.485 0.0
C1502 C 0.74489 0.44735 0.47859 0.0
C1503 C 0.73042 0.4604 0.466 0.0
C1504 C 0.73611 0.48156 0.45985 0.0
C1505 C 0.75629 0.48969 0.4662 0.0
H1506 H 0.71479 0.45414 0.46106 0.0
H1507 H 0.91063 0.53449 0.52084 0.0
H1508 H 0.85271 0.44569 0.07465 0.0
H1509 H 0.84692 0.47908 0.05207 0.0
H1510 H 0.82606 0.44208 0.99042 0.0
H1511 H 0.83224 0.40859 0.0127 0.0
H1512 H 0.85433 0.47138 0.97729 0.0
H1513 H 0.7903 0.47161 0.02446 0.0
H1514 H 0.76834 0.46947 0.06139 0.0
H1515 H 0.80008 0.52569 0.0896 0.0
H1516 H 0.82246 0.528 0.05297 0.0
H1517 H 0.82267 0.56392 0.91079 0.0
H1518 H 0.81945 0.53023 0.93365 0.0
H1519 H 0.84788 0.5611 0.99563 0.0
H1520 H 0.85117 0.59485 0.97297 0.0
H1521 H 0.81284 0.53434 0.00725 0.0
H1522 H 0.8787 0.53169 0.96108 0.0
H1523 H 0.90023 0.53374 0.9238 0.0
H1524 H 0.86379 0.48147 0.89336 0.0
H1525 H 0.84184 0.47932 0.93036 0.0
C1526 C 0.84672 0.44465 0.05635 0.0
C1527 C 0.84301 0.42449 0.04543 0.0
C1528 C 0.8433 0.46376 0.04351 0.0
C1529 C 0.83586 0.46308 0.01963 0.0
C1530 C 0.8318 0.44298 0.00883 0.0
C1531 C 0.83533 0.42386 0.02161 0.0
C1532 C 0.83359 0.48326 0.00545 0.0
C1533 C 0.8449 0.48498 0.98364 0.0
C1534 C 0.82163 0.50116 0.01396 0.0
C1535 C 0.8082 0.49986 0.03604 0.0
C1536 C 0.79273 0.48342 0.03861 0.0
C1537 C 0.78018 0.4822 0.05948 0.0
C1538 C 0.78285 0.49741 0.07785 0.0
C1539 C 0.79804 0.51391 0.07537 0.0
C1540 C 0.81065 0.51519 0.05454 0.0
C1541 C 0.82806 0.56361 0.92935 0.0
C1542 C 0.83736 0.58198 0.94001 0.0
C1543 C 0.82622 0.54435 0.94236 0.0
C1544 C 0.8336 0.54319 0.96622 0.0
C1545 C 0.8421 0.56172 0.97722 0.0
C1546 C 0.84407 0.58093 0.9642 0.0
C1547 C 0.83365 0.52236 0.97929 0.0
C1548 C 0.82201 0.52059 0.00086 0.0
C1549 C 0.84521 0.50434 0.97054 0.0
C1550 C 0.85848 0.50551 0.94836 0.0
C1551 C 0.87517 0.52076 0.94635 0.0
C1552 C 0.88747 0.52191 0.92529 0.0
C1553 C 0.88334 0.50779 0.9062 0.0
C1554 C 0.86695 0.49243 0.90815 0.0
C1555 C 0.85458 0.49122 0.92916 0.0
H1556 H 0.89288 0.5087 0.88991 0.0
H1557 H 0.77311 0.49644 0.09399 0.0
H1558 H 0.20892 0.4166 0.45033 0.0
H1559 H 0.21279 0.45353 0.4659 0.0
H1560 H 0.14429 0.45699 0.47694 0.0
H1561 H 0.14025 0.42036 0.46154 0.0
H1562 H 0.16078 0.49244 0.45251 0.0
H1563 H 0.17673 0.44926 0.52364 0.0
H1564 H 0.19716 0.42195 0.5465 0.0
H1565 H 0.2552 0.45833 0.53589 0.0
H1566 H 0.23514 0.48572 0.51268 0.0
H1567 H 0.13496 0.57423 0.53328 0.0
H1568 H 0.14151 0.53994 0.51305 0.0
H1569 H 0.20966 0.55265 0.51331 0.0
H1570 H 0.20326 0.58716 0.53385 0.0
H1571 H 0.20015 0.51112 0.52745 0.0
H1572 H 0.18357 0.55698 0.46155 0.0
H1573 H 0.16351 0.58454 0.4387 0.0
H1574 H 0.10773 0.54364 0.43832 0.0
H1575 H 0.12734 0.51595 0.4615 0.0
C1576 C 0.19472 0.4252 0.45621 0.0
C1577 C 0.17428 0.41557 0.45468 0.0
C1578 C 0.19697 0.44625 0.46511 0.0
C1579 C 0.17881 0.45793 0.4725 0.0
C1580 C 0.15847 0.44825 0.4712 0.0
C1581 C 0.15623 0.42726 0.46249 0.0
C1582 C 0.18061 0.48039 0.48132 0.0
C1583 C 0.16932 0.49655 0.46893 0.0
C1584 C 0.19248 0.48582 0.50219 0.0
C1585 C 0.2045 0.46938 0.51617 0.0
C1586 C 0.19389 0.45132 0.52599 0.0
C1587 C 0.20539 0.43585 0.53906 0.0
C1588 C 0.22747 0.43836 0.54257 0.0
C1589 C 0.2381 0.45638 0.5331 0.0
C1590 C 0.22667 0.47189 0.52 0.0
C1591 C 0.15136 0.56983 0.529 0.0
C1592 C 0.16859 0.58346 0.5351 0.0
C1593 C 0.15506 0.55025 0.51734 0.0
C1594 C 0.17604 0.54392 0.51141 0.0
C1595 C 0.19335 0.55733 0.51765 0.0
C1596 C 0.18964 0.57703 0.52931 0.0
C1597 C 0.1796 0.523 0.49913 0.0
C1598 C 0.19195 0.50716 0.51077 0.0
C1599 C 0.16881 0.51785 0.47745 0.0
C1600 C 0.15692 0.53443 0.46341 0.0
C1601 C 0.16698 0.55392 0.45676 0.0
C1602 C 0.15569 0.56956 0.44372 0.0
C1603 C 0.13435 0.56586 0.43709 0.0
C1604 C 0.12426 0.54649 0.44347 0.0
C1605 C 0.13547 0.5308 0.45653 0.0
H1606 H 0.12564 0.57799 0.427 0.0
H1607 H 0.23635 0.42637 0.5527 0.0
H1608 H 0.62857 0.0569 0.93977 0.0
H1609 H 0.63134 0.02227 0.9605 0.0
H1610 H 0.69088 0.04265 0.99324 0.0
H1611 H 0.68846 0.07732 0.97208 0.0
H1612 H 0.69398 0.00221 0.97719 0.0
H1613 H 0.64447 0.04128 0.02597 0.0
H1614 H 0.61265 0.06354 0.03499 0.0
H1615 H 0.57143 0.01339 0.00797 0.0
H1616 H 0.60303 0.99094 -0.00156 0.0
H1617 H 0.69154 0.91365 0.06141 0.0
H1618 H 0.69209 0.95013 0.04412 0.0
H1619 H 0.63659 0.93455 0.00093 0.0
H1620 H 0.63597 0.89813 0.01793 0.0
H1621 H 0.63312 0.97385 0.02567 0.0
H1622 H 0.68374 0.936 0.97487 0.0
H1623 H 0.71597 0.914 0.96689 0.0
H1624 H 0.75563 0.96257 -0.00023 0.0
H1625 H 0.72357 0.98473 0.00827 0.0
C1626 C 0.64225 0.05408 0.95141 0.0
C1627 C 0.65825 0.06989 0.95437 0.0
C1628 C 0.64376 0.03429 0.96334 0.0
C1629 C 0.66114 0.03002 0.97871 0.0
C1630 C 0.67729 0.04567 0.98152 0.0
C1631 C 0.67585 0.06547 0.96947 0.0
C1632 C 0.6625 0.00903 0.9915 0.0
C1633 C 0.68083 0.99618 0.98815 0.0
C1634 C 0.64523 0.00106 0.00556 0.0
C1635 C 0.62615 0.0145 0.0113 0.0
C1636 C 0.62863 0.03506 0.02177 0.0
C1637 C 0.61063 0.0477 0.02701 0.0
C1638 C 0.59003 0.03991 0.02201 0.0
C1639 C 0.5874 0.01942 0.01181 0.0
C1640 C 0.60535 0.00672 0.00651 0.0
C1641 C 0.67952 0.91799 0.04815 0.0
C1642 C 0.66375 0.90303 0.04096 0.0
C1643 C 0.67988 0.93878 0.03828 0.0
C1644 C 0.66442 0.94493 0.02123 0.0
C1645 C 0.64865 0.93006 0.01409 0.0
C1646 C 0.6484 0.90924 0.02374 0.0
C1647 C 0.66438 0.96698 0.01097 0.0
C1648 C 0.64632 0.98003 0.01488 0.0
C1649 C 0.68195 0.97518 -0.00237 0.0
C1650 C 0.70123 0.9619 0.99246 0.0
C1651 C 0.69931 0.9419 0.9806 0.0
C1652 C 0.71755 0.92942 0.97594 0.0
C1653 C 0.73783 0.93685 0.98289 0.0
C1654 C 0.73991 0.95682 0.99444 0.0
C1655 C 0.72171 0.96935 -0.00083 0.0
H1656 H 0.75194 0.92717 0.97926 0.0
H1657 H 0.57611 0.04972 0.02608 0.0
H1658 H 0.30522 0.90657 0.47086 0.0
H1659 H 0.30146 0.94034 0.4934 0.0
H1660 H 0.35411 0.96798 0.45312 0.0
H1661 H 0.35832 0.93418 0.43103 0.0
H1662 H 0.35785 0.97796 0.49891 0.0
H1663 H 0.30089 0.97972 0.4402 0.0
H1664 H 0.26877 0.96602 0.41912 0.0
H1665 H 0.23334 0.96679 0.48556 0.0
H1666 H 0.26536 0.98023 0.50711 0.0
H1667 H 0.34191 0.08975 0.50882 0.0
H1668 H 0.34148 0.05314 0.49251 0.0
H1669 H 0.29914 0.03272 0.54972 0.0
H1670 H 0.29966 0.06945 0.5665 0.0
H1671 H 0.28856 0.01758 0.50015 0.0
H1672 H 0.34624 0.01957 0.55761 0.0
H1673 H 0.37848 0.03543 0.57644 0.0
H1674 H 0.41294 0.02916 0.50973 0.0
H1675 H 0.38076 0.01363 0.49036 0.0
C1676 C 0.31601 0.91984 0.46684 0.0
C1677 C 0.33201 0.91775 0.44909 0.0
C1678 C 0.3138 0.93914 0.47968 0.0
C1679 C 0.32734 0.95677 0.47474 0.0
C1680 C 0.34349 0.95459 0.45725 0.0
C1681 C 0.34582 0.93527 0.44457 0.0
C1682 C 0.32473 0.97761 0.48758 0.0
C1683 C 0.34272 0.98665 0.49904 0.0
C1684 C 0.30486 0.98875 0.48824 0.0
C1685 C 0.28558 0.98073 0.47531 0.0
C1686 C 0.28629 0.9768 0.45035 0.0
C1687 C 0.2681 0.96911 0.43831 0.0
C1688 C 0.24904 0.96547 0.451 0.0
C1689 C 0.24812 0.96957 0.47576 0.0
C1690 C 0.26628 0.97723 0.48789 0.0
C1691 C 0.33232 0.07757 0.51785 0.0
C1692 C 0.3209 0.08244 0.53902 0.0
C1693 C 0.33214 0.05667 0.50853 0.0
C1694 C 0.32042 0.0403 0.52006 0.0
C1695 C 0.30829 0.04521 0.54064 0.0
C1696 C 0.30867 0.06613 0.5502 0.0
C1697 C 0.32174 0.01793 0.51097 0.0
C1698 C 0.30356 0.00866 0.50026 0.0
C1699 C 0.34148 0.00667 0.51075 0.0
C1700 C 0.36102 0.01559 0.52248 0.0
C1701 C 0.36064 0.02172 0.5469 0.0
C1702 C 0.37891 0.03064 0.55768 0.0
C1703 C 0.39773 0.03335 0.54427 0.0
C1704 C 0.39834 0.02707 0.52008 0.0
C1705 C 0.38009 0.01819 0.5092 0.0
H1706 H 0.41185 0.04028 0.55264 0.0
H1707 H 0.23497 0.95953 0.44165 0.0
H1708 H 0.3078 0.92875 0.0703 0.0
H1709 H 0.3084 0.9622 0.04683 0.0
H1710 H 0.34584 0.93055 0.99166 0.0
H1711 H 0.34601 0.89737 0.0155 0.0
H1712 H 0.36356 0.96676 0.00211 0.0
H1713 H 0.29143 0.94547 0.98388 0.0
H1714 H 0.25433 0.93382 0.99259 0.0
H1715 H 0.24321 0.99239 0.03217 0.0
H1716 H 0.28034 0.00427 0.02397 0.0
H1717 H 0.35832 0.05192 0.917 0.0
H1718 H 0.35173 0.01707 0.93645 0.0
H1719 H 0.32432 0.0496 -0.00206 0.0
H1720 H 0.33083 0.08459 0.97864 0.0
H1721 H 0.30073 0.01296 0.98302 0.0
H1722 H 0.37383 0.033 0.00188 0.0
H1723 H 0.41073 0.04448 0.99189 0.0
H1724 H 0.41949 0.98722 0.94929 0.0
H1725 H 0.38251 0.97555 0.95874 0.0
C1726 C 0.31589 0.92886 0.053 0.0
C1727 C 0.32695 0.91051 0.04477 0.0
C1728 C 0.31614 0.94796 0.03954 0.0
C1729 C 0.32704 0.94887 0.01736 0.0
C1730 C 0.33741 0.93027 0.00875 0.0
C1731 C 0.33746 0.91131 0.02236 0.0
C1732 C 0.32905 0.96956 0.00398 0.0
C1733 C 0.34974 0.97663 -0.00242 0.0
C1734 C 0.31111 0.98276 -0.00144 0.0
C1735 C 0.28875 0.97567 0.00349 0.0
C1736 C 0.28113 0.9558 0.9946 0.0
C1737 C 0.26008 0.94916 -0.00058 0.0
C1738 C 0.24644 0.96234 0.01297 0.0
C1739 C 0.2538 0.9822 0.02169 0.0
C1740 C 0.27484 0.9889 0.01694 0.0
C1741 C 0.3508 0.05169 0.93461 0.0
C1742 C 0.34525 0.07101 0.94637 0.0
C1743 C 0.34706 0.03177 0.94568 0.0
C1744 C 0.33769 0.03084 0.96867 0.0
C1745 C 0.33156 0.05004 0.98018 0.0
C1746 C 0.33541 0.06998 0.96918 0.0
C1747 C 0.33513 0.00987 0.98114 0.0
C1748 C 0.31443 0.00289 0.98744 0.0
C1749 C 0.35301 0.99662 0.98632 0.0
C1750 C 0.37533 0.00351 0.98082 0.0
C1751 C 0.38357 0.02294 0.99023 0.0
C1752 C 0.40451 0.02947 0.98469 0.0
C1753 C 0.41743 0.01662 0.96991 0.0
C1754 C 0.40945 -0.00283 0.9607 0.0
C1755 C 0.38851 0.99058 0.96616 0.0
H1756 H 0.43363 0.0217 0.96563 0.0
H1757 H 0.23015 0.95717 0.01668 0.0
H1758 H 0.66128 0.05751 0.58835 0.0
H1759 H 0.66712 0.02517 0.56414 0.0
H1760 H 0.67868 0.06489 0.5014 0.0
H1761 H 0.67185 0.09731 0.5254 0.0
H1762 H 0.65227 0.03537 0.49006 0.0
H1763 H 0.71956 0.03428 0.53029 0.0
H1764 H 0.74477 0.03569 0.56453 0.0
H1765 H 0.71613 0.97851 0.59455 0.0
H1766 H 0.69053 0.97691 0.56067 0.0
H1767 H 0.67672 0.94192 0.42037 0.0
H1768 H 0.6831 0.97547 0.44261 0.0
H1769 H 0.65683 0.94642 0.50689 0.0
H1770 H 0.65026 0.91284 0.48482 0.0
H1771 H 0.69518 0.97147 0.51449 0.0
H1772 H 0.62534 0.97655 0.47539 0.0
H1773 H 0.60123 0.97551 0.44013 0.0
H1774 H 0.63751 0.02639 0.40656 0.0
H1775 H 0.66202 0.0275 0.44151 0.0
C1776 C 0.66538 0.05936 0.56948 0.0
C1777 C 0.666 0.07989 0.55871 0.0
C1778 C 0.66887 0.04085 0.55566 0.0
C1779 C 0.67362 0.04256 0.53097 0.0
C1780 C 0.67503 0.06315 0.52041 0.0
C1781 C 0.67113 0.08166 0.53412 0.0
C1782 C 0.6751 0.02286 0.5158 0.0
C1783 C 0.66209 0.02163 0.49517 0.0
C1784 C 0.68761 0.00473 0.52258 0.0
C1785 C 0.70302 0.00557 0.54299 0.0
C1786 C 0.71853 0.02209 0.54428 0.0
C1787 C 0.73291 0.02291 0.56361 0.0
C1788 C 0.73203 0.00722 0.58172 0.0
C1789 C 0.71679 0.99065 0.58051 0.0
C1790 C 0.70236 0.98977 0.56122 0.0
C1791 C 0.67245 0.9426 0.43929 0.0
C1792 C 0.66281 0.92481 0.45081 0.0
C1793 C 0.67613 0.96176 0.45193 0.0
C1794 C 0.67035 0.96336 0.47631 0.0
C1795 C 0.66144 0.94541 0.48809 0.0
C1796 C 0.65757 0.92632 0.47541 0.0
C1797 C 0.67224 0.98415 0.48919 0.0
C1798 C 0.68577 0.98548 0.50932 0.0
C1799 C 0.66046 0.00251 0.48182 0.0
C1800 C 0.64564 0.00193 0.46092 0.0
C1801 C 0.62827 0.98738 0.46039 0.0
C1802 C 0.61452 0.98681 0.44049 0.0
C1803 C 0.61787 0.00083 0.42108 0.0
C1804 C 0.63495 0.01551 0.42158 0.0
C1805 C 0.64877 0.01613 0.44144 0.0
H1806 H 0.60721 0.00036 0.40569 0.0
H1807 H 0.74317 0.00789 0.59667 0.0
loop_
_geom_bond_atom_site_label_1
_geom_bond_atom_site_label_2
_geom_bond_distance
_geom_bond_site_symmetry_2
_ccdc_geom_bond_type
C0 O1 1.160 . S
C0 O7 1.185 . S
O1 C0 1.160 . S
O2 Zn3 1.899 . S
O2 C10 1.284 . S
Zn3 O2 1.899 . S
Zn3 O4 2.032 . S
Zn3 O7 2.086 . S
Zn3 O12 1.977 . S
O4 Zn3 2.032 . S
O4 C8 1.278 . S
C5 O6 1.203 . S
C5 O12 1.267 . S
O6 C5 1.203 . S
O7 C0 1.185 . S
O7 Zn3 2.086 . S
C8 O4 1.278 . S
C8 O9 1.211 . S
O9 C8 1.211 . S
C10 O2 1.284 . S
C10 O11 1.273 . S
O11 C10 1.273 . S
O12 Zn3 1.977 . S
O12 C5 1.267 . S
C13 O14 1.160 . S
C13 O20 1.185 . S
O14 C13 1.160 . S
O15 Zn16 1.899 . S
O15 C23 1.284 . S
Zn16 O15 1.899 . S
Zn16 O17 2.032 . S
Zn16 O20 2.086 . S
Zn16 O25 1.977 . S
O17 Zn16 2.032 . S
O17 C21 1.278 . S
C18 O19 1.203 . S
C18 O25 1.267 . S
O19 C18 1.203 . S
O20 C13 1.185 . S
O20 Zn16 2.086 . S
C21 O17 1.278 . S
C21 O22 1.211 . S
O22 C21 1.211 . S
C23 O15 1.284 . S
C23 O24 1.273 . S
O24 C23 1.273 . S
O25 Zn16 1.977 . S
O25 C18 1.267 . S
C26 O27 1.160 . S
C26 O33 1.185 . S
O27 C26 1.160 . S
O28 Zn29 1.899 . S
O28 C36 1.284 . S
Zn29 O28 1.899 . S
Zn29 O30 2.032 . S
Zn29 O33 2.086 . S
Zn29 O38 1.977 . S
O30 Zn29 2.032 . S
O30 C34 1.278 . S
C31 O32 1.203 . S
C31 O38 1.267 . S
O32 C31 1.203 . S
O33 C26 1.185 . S
O33 Zn29 2.086 . S
C34 O30 1.278 . S
C34 O35 1.211 . S
O35 C34 1.211 . S
C36 O28 1.284 . S
C36 O37 1.273 . S
O37 C36 1.273 . S
O38 Zn29 1.977 . S
O38 C31 1.267 . S
C39 O40 1.160 . S
C39 O46 1.185 . S
O40 C39 1.160 . S
O41 Zn42 1.899 . S
O41 C49 1.284 . S
Zn42 O41 1.899 . S
Zn42 O43 2.032 . S
Zn42 O46 2.086 . S
Zn42 O51 1.977 . S
O43 Zn42 2.032 . S
O43 C47 1.278 . S
C44 O45 1.203 . S
C44 O51 1.267 . S
O45 C44 1.203 . S
O46 C39 1.185 . S
O46 Zn42 2.086 . S
C47 O43 1.278 . S
C47 O48 1.211 . S
O48 C47 1.211 . S
C49 O41 1.284 . S
C49 O50 1.273 . S
O50 C49 1.273 . S
O51 Zn42 1.977 . S
O51 C44 1.267 . S
C52 O53 1.160 . S
C52 O59 1.185 . S
O53 C52 1.160 . S
O54 Zn55 1.899 . S
O54 C62 1.284 . S
Zn55 O54 1.899 . S
Zn55 O56 2.032 . S
Zn55 O59 2.086 . S
Zn55 O64 1.977 . S
O56 Zn55 2.032 . S
O56 C60 1.278 . S
C57 O58 1.203 . S
C57 O64 1.267 . S
O58 C57 1.203 . S
O59 C52 1.185 . S
O59 Zn55 2.086 . S
C60 O56 1.278 . S
C60 O61 1.211 . S
O61 C60 1.211 . S
C62 O54 1.284 . S
C62 O63 1.273 . S
O63 C62 1.273 . S
O64 Zn55 1.977 . S
O64 C57 1.267 . S
C65 O66 1.160 . S
C65 O72 1.185 . S
O66 C65 1.160 . S
O67 Zn68 1.899 . S
O67 C75 1.284 . S
Zn68 O67 1.899 . S
Zn68 O69 2.032 . S
Zn68 O72 2.086 . S
Zn68 O77 1.977 . S
O69 Zn68 2.032 . S
O69 C73 1.278 . S
C70 O71 1.203 . S
C70 O77 1.267 . S
O71 C70 1.203 . S
O72 C65 1.185 . S
O72 Zn68 2.086 . S
C73 O69 1.278 . S
C73 O74 1.211 . S
O74 C73 1.211 . S
C75 O67 1.284 . S
C75 O76 1.273 . S
O76 C75 1.273 . S
O77 Zn68 1.977 . S
O77 C70 1.267 . S
C78 O79 1.160 . S
C78 O85 1.185 . S
O79 C78 1.160 . S
O80 Zn81 1.899 . S
O80 C88 1.284 . S
Zn81 O80 1.899 . S
Zn81 O82 2.032 . S
Zn81 O85 2.086 . S
Zn81 O90 1.977 . S
O82 Zn81 2.032 . S
O82 C86 1.278 . S
C83 O84 1.203 . S
C83 O90 1.267 . S
O84 C83 1.203 . S
O85 C78 1.185 . S
O85 Zn81 2.086 . S
C86 O82 1.278 . S
C86 O87 1.211 . S
O87 C86 1.211 . S
C88 O80 1.284 . S
C88 O89 1.273 . S
O89 C88 1.273 . S
O90 Zn81 1.977 . S
O90 C83 1.267 . S
C91 O92 1.160 . S
C91 O98 1.185 . S
O92 C91 1.160 . S
O93 Zn94 1.899 . S
O93 C101 1.284 . S
Zn94 O93 1.899 . S
Zn94 O95 2.032 . S
Zn94 O98 2.086 . S
Zn94 O103 1.977 . S
O95 Zn94 2.032 . S
O95 C99 1.278 . S
C96 O97 1.203 . S
C96 O103 1.267 . S
O97 C96 1.203 . S
O98 C91 1.185 . S
O98 Zn94 2.086 . S
C99 O95 1.278 . S
C99 O100 1.211 . S
O100 C99 1.211 . S
C101 O93 1.284 . S
C101 O102 1.273 . S
O102 C101 1.273 . S
O103 Zn94 1.977 . S
O103 C96 1.267 . S
C104 O105 1.160 . S
C104 O111 1.185 . S
O105 C104 1.160 . S
O106 Zn107 1.899 . S
O106 C114 1.284 . S
Zn107 O106 1.899 . S
Zn107 O108 2.032 . S
Zn107 O111 2.086 . S
Zn107 O116 1.977 . S
O108 Zn107 2.032 . S
O108 C112 1.278 . S
C109 O110 1.203 . S
C109 O116 1.267 . S
O110 C109 1.203 . S
O111 C104 1.185 . S
O111 Zn107 2.086 . S
C112 O108 1.278 . S
C112 O113 1.211 . S
O113 C112 1.211 . S
C114 O106 1.284 . S
C114 O115 1.273 . S
O115 C114 1.273 . S
O116 Zn107 1.977 . S
O116 C109 1.267 . S
C117 O118 1.160 . S
C117 O124 1.185 . S
O118 C117 1.160 . S
O119 Zn120 1.899 . S
O119 C127 1.284 . S
Zn120 O119 1.899 . S
Zn120 O121 2.032 . S
Zn120 O124 2.086 . S
Zn120 O129 1.977 . S
O121 Zn120 2.032 . S
O121 C125 1.278 . S
C122 O123 1.203 . S
C122 O129 1.267 . S
O123 C122 1.203 . S
O124 C117 1.185 . S
O124 Zn120 2.086 . S
C125 O121 1.278 . S
C125 O126 1.211 . S
O126 C125 1.211 . S
C127 O119 1.284 . S
C127 O128 1.273 . S
O128 C127 1.273 . S
O129 Zn120 1.977 . S
O129 C122 1.267 . S
C130 O131 1.160 . S
C130 O137 1.185 . S
O131 C130 1.160 . S
O132 Zn133 1.899 . S
O132 C140 1.284 . S
Zn133 O132 1.899 . S
Zn133 O134 2.032 . S
Zn133 O137 2.086 . S
Zn133 O142 1.977 . S
O134 Zn133 2.032 . S
O134 C138 1.278 . S
C135 O136 1.203 . S
C135 O142 1.267 . S
O136 C135 1.203 . S
O137 C130 1.185 . S
O137 Zn133 2.086 . S
C138 O134 1.278 . S
C138 O139 1.211 . S
O139 C138 1.211 . S
C140 O132 1.284 . S
C140 O141 1.273 . S
O141 C140 1.273 . S
O142 Zn133 1.977 . S
O142 C135 1.267 . S
C143 O144 1.160 . S
C143 O150 1.185 . S
O144 C143 1.160 . S
O145 Zn146 1.899 . S
O145 C153 1.284 . S
Zn146 O145 1.899 . S
Zn146 O147 2.032 . S
Zn146 O150 2.086 . S
Zn146 O155 1.977 . S
O147 Zn146 2.032 . S
O147 C151 1.278 . S
C148 O149 1.203 . S
C148 O155 1.267 . S
O149 C148 1.203 . S
O150 C143 1.185 . S
O150 Zn146 2.086 . S
C151 O147 1.278 . S
C151 O152 1.211 . S
O152 C151 1.211 . S
C153 O145 1.284 . S
C153 O154 1.273 . S
O154 C153 1.273 . S
O155 Zn146 1.977 . S
O155 C148 1.267 . S
C156 O157 1.160 . S
C156 O163 1.185 . S
O157 C156 1.160 . S
O158 Zn159 1.899 . S
O158 C166 1.284 . S
Zn159 O158 1.899 . S
Zn159 O160 2.032 . S
Zn159 O163 2.086 . S
Zn159 O168 1.977 . S
O160 Zn159 2.032 . S
O160 C164 1.278 . S
C161 O162 1.203 . S
C161 O168 1.267 . S
O162 C161 1.203 . S
O163 C156 1.185 . S
O163 Zn159 2.086 . S
C164 O160 1.278 . S
C164 O165 1.211 . S
O165 C164 1.211 . S
C166 O158 1.284 . S
C166 O167 1.273 . S
O167 C166 1.273 . S
O168 Zn159 1.977 . S
O168 C161 1.267 . S
C169 O170 1.160 . S
C169 O176 1.185 . S
O170 C169 1.160 . S
O171 Zn172 1.899 . S
O171 C179 1.284 . S
Zn172 O171 1.899 . S
Zn172 O173 2.032 . S
Zn172 O176 2.086 . S
Zn172 O181 1.977 . S
O173 Zn172 2.032 . S
O173 C177 1.278 . S
C174 O175 1.203 . S
C174 O181 1.267 . S
O175 C174 1.203 . S
O176 C169 1.185 . S
O176 Zn172 2.086 . S
C177 O173 1.278 . S
C177 O178 1.211 . S
O178 C177 1.211 . S
C179 O171 1.284 . S
C179 O180 1.273 . S
O180 C179 1.273 . S
O181 Zn172 1.977 . S
O181 C174 1.267 . S
C182 O183 1.160 . S
C182 O189 1.185 . S
O183 C182 1.160 . S
O184 Zn185 1.899 . S
O184 C192 1.284 . S
Zn185 O184 1.899 . S
Zn185 O186 2.032 . S
Zn185 O189 2.086 . S
Zn185 O194 1.977 . S
O186 Zn185 2.032 . S
O186 C190 1.278 . S
C187 O188 1.203 . S
C187 O194 1.267 . S
O188 C187 1.203 . S
O189 C182 1.185 . S
O189 Zn185 2.086 . S
C190 O186 1.278 . S
C190 O191 1.211 . S
O191 C190 1.211 . S
C192 O184 1.284 . S
C192 O193 1.273 . S
O193 C192 1.273 . S
O194 Zn185 1.977 . S
O194 C187 1.267 . S
C195 O196 1.160 . S
C195 O202 1.185 . S
O196 C195 1.160 . S
O197 Zn198 1.899 . S
O197 C205 1.284 . S
Zn198 O197 1.899 . S
Zn198 O199 2.032 . S
Zn198 O202 2.086 . S
Zn198 O207 1.977 . S
O199 Zn198 2.032 . S
O199 C203 1.278 . S
C200 O201 1.203 . S
C200 O207 1.267 . S
O201 C200 1.203 . S
O202 C195 1.185 . S
O202 Zn198 2.086 . S
C203 O199 1.278 . S
C203 O204 1.211 . S
O204 C203 1.211 . S
C205 O197 1.284 . S
C205 O206 1.273 . S
O206 C205 1.273 . S
O207 Zn198 1.977 . S
O207 C200 1.267 . S
H208 C226 0.951 . S
H209 C228 0.951 . S
H210 C230 0.950 . S
H211 C231 0.950 . S
H212 C233 0.950 . S
H213 C236 0.950 . S
H214 C237 0.950 . S
H215 C239 0.950 . S
H216 C240 0.950 . S
H217 C241 0.951 . S
H218 C243 0.951 . S
H219 C245 0.950 . S
H220 C246 0.950 . S
H221 C248 0.950 . S
H222 C251 0.950 . S
H223 C252 0.950 . S
H224 C254 0.950 . S
H225 C255 0.950 1_455 S
C226 H208 0.951 . S
C226 C227 1.366 . S
C226 C228 1.388 . S
C227 C226 1.366 . S
C227 C231 1.385 . S
C228 H209 0.951 . S
C228 C226 1.388 . S
C228 C229 1.366 . S
C229 C228 1.366 . S
C229 C230 1.414 . S
C229 C232 1.499 . S
C230 H210 0.950 . S
C230 C229 1.414 . S
C230 C231 1.374 . S
C231 H211 0.950 . S
C231 C227 1.385 . S
C231 C230 1.374 . S
C232 C229 1.499 . S
C232 C233 1.373 . S
C232 C234 1.389 . S
C233 H212 0.950 . S
C233 C232 1.373 . S
C233 C249 1.372 . S
C234 C232 1.389 . S
C234 C235 1.524 . S
C234 C248 1.377 1_455 S
C235 C234 1.524 . S
C235 C236 1.397 . S
C235 C240 1.363 . S
C236 H213 0.950 . S
C236 C235 1.397 . S
C236 C237 1.334 . S
C237 H214 0.950 . S
C237 C236 1.334 . S
C237 C238 1.287 . S
C238 C237 1.287 . S
C238 C239 1.524 1_554 S
C238 H257 0.913 1_554 S
C239 H215 0.950 . S
C239 C238 1.524 1_556 S
C239 C240 1.415 1_556 S
C240 H216 0.950 . S
C240 C235 1.363 . S
C240 C239 1.415 1_554 S
C241 H217 0.951 . S
C241 C242 1.366 . S
C241 C243 1.388 . S
C242 C241 1.366 . S
C242 C246 1.385 . S
C243 H218 0.951 . S
C243 C241 1.388 . S
C243 C244 1.366 . S
C244 C243 1.366 . S
C244 C245 1.414 . S
C244 C247 1.499 . S
C245 H219 0.950 . S
C245 C244 1.414 . S
C245 C246 1.374 . S
C246 H220 0.950 . S
C246 C242 1.385 . S
C246 C245 1.374 . S
C247 C244 1.499 . S
C247 C248 1.373 . S
C247 C249 1.392 1_655 S
C248 H221 0.950 . S
C248 C234 1.377 1_655 S
C248 C247 1.373 . S
C249 C233 1.372 . S
C249 C247 1.392 1_455 S
C249 C250 1.526 1_455 S
C250 C249 1.526 1_655 S
C250 C251 1.397 . S
C250 C255 1.363 . S
C251 H222 0.950 . S
C251 C250 1.397 . S
C251 C252 1.334 . S
C252 H223 0.950 . S
C252 C251 1.334 . S
C252 C253 1.287 . S
C253 C252 1.287 . S
C253 C254 1.524 . S
C253 H256 0.999 . S
C254 H224 0.950 . S
C254 C253 1.524 . S
C254 C255 1.415 . S
C255 H225 0.950 1_655 S
C255 C250 1.363 . S
C255 C254 1.415 . S
H256 C253 0.999 . S
H257 C238 0.913 1_556 S
H258 C276 0.951 . S
H259 C278 0.951 . S
H260 C280 0.950 . S
H261 C281 0.950 . S
H262 C283 0.950 . S
H263 C286 0.950 . S
H264 C287 0.950 . S
H265 C289 0.950 . S
H266 C290 0.950 . S
H267 C291 0.951 . S
H268 C293 0.951 . S
H269 C295 0.950 . S
H270 C296 0.950 . S
H271 C298 0.950 . S
H272 C301 0.950 . S
H273 C302 0.950 . S
H274 C304 0.950 . S
H275 C305 0.950 1_655 S
C276 H258 0.951 . S
C276 C277 1.366 . S
C276 C278 1.388 . S
C277 C276 1.366 . S
C277 C281 1.385 . S
C278 H259 0.951 . S
C278 C276 1.388 . S
C278 C279 1.366 . S
C279 C278 1.366 . S
C279 C280 1.414 . S
C279 C282 1.499 . S
C280 H260 0.950 . S
C280 C279 1.414 . S
C280 C281 1.374 . S
C281 H261 0.950 . S
C281 C277 1.385 . S
C281 C280 1.374 . S
C282 C279 1.499 . S
C282 C283 1.373 . S
C282 C284 1.389 . S
C283 H262 0.950 . S
C283 C282 1.373 . S
C283 C299 1.372 . S
C284 C282 1.389 . S
C284 C285 1.524 . S
C284 C298 1.377 1_655 S
C285 C284 1.524 . S
C285 C286 1.397 . S
C285 C290 1.363 . S
C286 H263 0.950 . S
C286 C285 1.397 . S
C286 C287 1.334 . S
C287 H264 0.950 . S
C287 C286 1.334 . S
C287 C288 1.287 . S
C288 C287 1.287 . S
C288 C289 1.524 . S
C288 H307 0.913 . S
C289 H265 0.950 . S
C289 C288 1.524 . S
C289 C290 1.415 . S
C290 H266 0.950 . S
C290 C285 1.363 . S
C290 C289 1.415 . S
C291 H267 0.951 . S
C291 C292 1.366 . S
C291 C293 1.388 . S
C292 C291 1.366 . S
C292 C296 1.385 . S
C293 H268 0.951 . S
C293 C291 1.388 . S
C293 C294 1.366 . S
C294 C293 1.366 . S
C294 C295 1.414 . S
C294 C297 1.499 . S
C295 H269 0.950 . S
C295 C294 1.414 . S
C295 C296 1.374 . S
C296 H270 0.950 . S
C296 C292 1.385 . S
C296 C295 1.374 . S
C297 C294 1.499 . S
C297 C298 1.373 . S
C297 C299 1.392 1_455 S
C298 H271 0.950 . S
C298 C284 1.377 1_455 S
C298 C297 1.373 . S
C299 C283 1.372 . S
C299 C297 1.392 1_655 S
C299 C300 1.526 1_655 S
C300 C299 1.526 1_455 S
C300 C301 1.397 . S
C300 C305 1.363 . S
C301 H272 0.950 . S
C301 C300 1.397 . S
C301 C302 1.334 . S
C302 H273 0.950 . S
C302 C301 1.334 . S
C302 C303 1.287 . S
C303 C302 1.287 . S
C303 C304 1.524 . S
C303 H306 0.999 . S
C304 H274 0.950 . S
C304 C303 1.524 . S
C304 C305 1.415 . S
C305 H275 0.950 1_455 S
C305 C300 1.363 . S
C305 C304 1.415 . S
H306 C303 0.999 . S
H307 C288 0.913 . S
H308 C326 0.951 . S
H309 C328 0.951 . S
H310 C330 0.950 . S
H311 C331 0.950 . S
H312 C333 0.950 . S
H313 C336 0.950 . S
H314 C337 0.950 . S
H315 C339 0.950 . S
H316 C340 0.950 1_455 S
H317 C341 0.951 . S
H318 C343 0.951 . S
H319 C345 0.950 . S
H320 C346 0.950 . S
H321 C348 0.950 . S
H322 C351 0.950 . S
H323 C352 0.950 1_554 S
H324 C354 0.950 . S
H325 C355 0.950 . S
C326 H308 0.951 . S
C326 C327 1.366 . S
C326 C328 1.388 . S
C327 C326 1.366 . S
C327 C331 1.385 . S
C328 H309 0.951 . S
C328 C326 1.388 . S
C328 C329 1.366 . S
C329 C328 1.366 . S
C329 C330 1.414 . S
C329 C332 1.499 . S
C330 H310 0.950 . S
C330 C329 1.414 . S
C330 C331 1.374 . S
C331 H311 0.950 . S
C331 C327 1.385 . S
C331 C330 1.374 . S
C332 C329 1.499 . S
C332 C333 1.373 . S
C332 C334 1.391 1_655 S
C333 H312 0.950 . S
C333 C332 1.373 . S
C333 C349 1.377 1_655 S
C334 C332 1.391 1_455 S
C334 C335 1.525 1_455 S
C334 C348 1.374 . S
C335 C334 1.525 1_655 S
C335 C336 1.397 . S
C335 C340 1.363 . S
C336 H313 0.950 . S
C336 C335 1.397 . S
C336 C337 1.334 . S
C337 H314 0.950 . S
C337 C336 1.334 . S
C337 C338 1.287 . S
C338 C337 1.287 . S
C338 C339 1.524 . S
C338 H357 0.913 . S
C339 H315 0.950 . S
C339 C338 1.524 . S
C339 C340 1.415 . S
C340 H316 0.950 1_655 S
C340 C335 1.363 . S
C340 C339 1.415 . S
C341 H317 0.951 . S
C341 C342 1.366 . S
C341 C343 1.388 . S
C342 C341 1.366 . S
C342 C346 1.385 . S
C343 H318 0.951 . S
C343 C341 1.388 . S
C343 C344 1.366 . S
C344 C343 1.366 . S
C344 C345 1.414 . S
C344 C347 1.499 . S
C345 H319 0.950 . S
C345 C344 1.414 . S
C345 C346 1.374 . S
C346 H320 0.950 . S
C346 C342 1.385 . S
C346 C345 1.374 . S
C347 C344 1.499 . S
C347 C348 1.373 . S
C347 C349 1.389 . S
C348 H321 0.950 . S
C348 C334 1.374 . S
C348 C347 1.373 . S
C349 C333 1.377 1_455 S
C349 C347 1.389 . S
C349 C350 1.524 . S
C350 C349 1.524 . S
C350 C351 1.397 . S
C350 C355 1.363 . S
C351 H322 0.950 . S
C351 C350 1.397 . S
C351 C352 1.334 . S
C352 H323 0.950 1_556 S
C352 C351 1.334 . S
C352 C353 1.287 . S
C353 C352 1.287 . S
C353 C354 1.524 . S
C353 H356 0.999 1_556 S
C354 H324 0.950 . S
C354 C353 1.524 . S
C354 C355 1.415 . S
C355 H325 0.950 . S
C355 C350 1.363 . S
C355 C354 1.415 . S
H356 C353 0.999 1_554 S
H357 C338 0.913 . S
H358 C376 0.951 . S
H359 C378 0.951 . S
H360 C380 0.950 . S
H361 C381 0.950 . S
H362 C383 0.950 . S
H363 C386 0.950 . S
H364 C387 0.950 . S
H365 C389 0.950 . S
H366 C390 0.950 1_655 S
H367 C391 0.951 . S
H368 C393 0.951 . S
H369 C395 0.950 . S
H370 C396 0.950 . S
H371 C398 0.950 . S
H372 C401 0.950 . S
H373 C402 0.950 . S
H374 C404 0.950 . S
H375 C405 0.950 . S
C376 H358 0.951 . S
C376 C377 1.366 . S
C376 C378 1.388 . S
C377 C376 1.366 . S
C377 C381 1.385 . S
C378 H359 0.951 . S
C378 C376 1.388 . S
C378 C379 1.366 . S
C379 C378 1.366 . S
C379 C380 1.414 . S
C379 C382 1.499 . S
C380 H360 0.950 . S
C380 C379 1.414 . S
C380 C381 1.374 . S
C381 H361 0.950 . S
C381 C377 1.385 . S
C381 C380 1.374 . S
C382 C379 1.499 . S
C382 C383 1.373 . S
C382 C384 1.390 1_455 S
C383 H362 0.950 . S
C383 C382 1.373 . S
C383 C399 1.377 1_455 S
C384 C382 1.390 1_655 S
C384 C385 1.525 1_655 S
C384 C398 1.375 . S
C385 C384 1.525 1_455 S
C385 C386 1.397 . S
C385 C390 1.363 . S
C386 H363 0.950 . S
C386 C385 1.397 . S
C386 C387 1.334 . S
C387 H364 0.950 . S
C387 C386 1.334 . S
C387 C388 1.287 . S
C388 C387 1.287 . S
C388 C389 1.524 . S
C388 H407 0.913 . S
C389 H365 0.950 . S
C389 C388 1.524 . S
C389 C390 1.415 . S
C390 H366 0.950 1_455 S
C390 C385 1.363 . S
C390 C389 1.415 . S
C391 H367 0.951 . S
C391 C392 1.366 . S
C391 C393 1.388 . S
C392 C391 1.366 . S
C392 C396 1.385 . S
C393 H368 0.951 . S
C393 C391 1.388 . S
C393 C394 1.366 . S
C394 C393 1.366 . S
C394 C395 1.414 . S
C394 C397 1.499 . S
C395 H369 0.950 . S
C395 C394 1.414 . S
C395 C396 1.374 . S
C396 H370 0.950 . S
C396 C392 1.385 . S
C396 C395 1.374 . S
C397 C394 1.499 . S
C397 C398 1.373 . S
C397 C399 1.389 . S
C398 H371 0.950 . S
C398 C384 1.375 . S
C398 C397 1.373 . S
C399 C383 1.377 1_655 S
C399 C397 1.389 . S
C399 C400 1.524 . S
C400 C399 1.524 . S
C400 C401 1.397 . S
C400 C405 1.363 . S
C401 H372 0.950 . S
C401 C400 1.397 . S
C401 C402 1.334 . S
C402 H373 0.950 . S
C402 C401 1.334 . S
C402 C403 1.287 . S
C403 C402 1.287 . S
C403 C404 1.524 . S
C403 H406 0.999 . S
C404 H374 0.950 . S
C404 C403 1.524 . S
C404 C405 1.415 . S
C405 H375 0.950 . S
C405 C400 1.363 . S
C405 C404 1.415 . S
H406 C403 0.999 . S
H407 C388 0.913 . S
H408 C426 0.951 . S
H409 C428 0.951 . S
H410 C430 0.950 . S
H411 C431 0.950 . S
H412 C433 0.950 . S
H413 C436 0.950 . S
H414 C437 0.950 . S
H415 C439 0.950 . S
H416 C440 0.950 . S
H417 C441 0.951 . S
H418 C443 0.951 . S
H419 C445 0.950 . S
H420 C446 0.950 . S
H421 C448 0.950 . S
H422 C451 0.950 . S
H423 C452 0.950 . S
H424 C454 0.950 . S
H425 C455 0.950 . S
C426 H408 0.951 . S
C426 C427 1.366 . S
C426 C428 1.388 . S
C427 C426 1.366 . S
C427 C431 1.385 . S
C428 H409 0.951 . S
C428 C426 1.388 . S
C428 C429 1.366 . S
C429 C428 1.366 . S
C429 C430 1.414 . S
C429 C432 1.499 . S
C430 H410 0.950 . S
C430 C429 1.414 . S
C430 C431 1.374 . S
C431 H411 0.950 . S
C431 C427 1.385 . S
C431 C430 1.374 . S
C432 C429 1.499 . S
C432 C433 1.373 . S
C432 C434 1.389 . S
C433 H412 0.950 . S
C433 C432 1.373 . S
C433 C449 1.377 . S
C434 C432 1.389 . S
C434 C435 1.524 . S
C434 C448 1.377 . S
C435 C434 1.524 . S
C435 C436 1.397 . S
C435 C440 1.363 . S
C436 H413 0.950 . S
C436 C435 1.397 . S
C436 C437 1.334 . S
C437 H414 0.950 . S
C437 C436 1.334 . S
C437 C438 1.287 . S
C438 C437 1.287 . S
C438 C439 1.524 . S
C438 H457 0.913 . S
C439 H415 0.950 . S
C439 C438 1.524 . S
C439 C440 1.415 . S
C440 H416 0.950 . S
C440 C435 1.363 . S
C440 C439 1.415 . S
C441 H417 0.951 . S
C441 C442 1.366 . S
C441 C443 1.388 . S
C442 C441 1.366 . S
C442 C446 1.385 . S
C443 H418 0.951 . S
C443 C441 1.388 . S
C443 C444 1.366 . S
C444 C443 1.366 . S
C444 C445 1.414 . S
C444 C447 1.499 . S
C445 H419 0.950 . S
C445 C444 1.414 . S
C445 C446 1.374 . S
C446 H420 0.950 . S
C446 C442 1.385 . S
C446 C445 1.374 . S
C447 C444 1.499 . S
C447 C448 1.373 . S
C447 C449 1.389 . S
C448 H421 0.950 . S
C448 C434 1.377 . S
C448 C447 1.373 . S
C449 C433 1.377 . S
C449 C447 1.389 . S
C449 C450 1.524 . S
C450 C449 1.524 . S
C450 C451 1.397 . S
C450 C455 1.363 . S
C451 H422 0.950 . S
C451 C450 1.397 . S
C451 C452 1.334 . S
C452 H423 0.950 . S
C452 C451 1.334 . S
C452 C453 1.287 . S
C453 C452 1.287 . S
C453 C454 1.524 . S
C453 H456 0.999 . S
C454 H424 0.950 . S
C454 C453 1.524 . S
C454 C455 1.415 . S
C455 H425 0.950 . S
C455 C450 1.363 . S
C455 C454 1.415 . S
H456 C453 0.999 . S
H457 C438 0.913 . S
H458 C476 0.951 . S
H459 C478 0.951 . S
H460 C480 0.950 . S
H461 C481 0.950 . S
H462 C483 0.950 . S
H463 C486 0.950 . S
H464 C487 0.950 . S
H465 C489 0.950 . S
H466 C490 0.950 . S
H467 C491 0.951 . S
H468 C493 0.951 . S
H469 C495 0.950 . S
H470 C496 0.950 . S
H471 C498 0.950 . S
H472 C501 0.950 . S
H473 C502 0.950 . S
H474 C504 0.950 . S
H475 C505 0.950 . S
C476 H458 0.951 . S
C476 C477 1.366 . S
C476 C478 1.388 . S
C477 C476 1.366 . S
C477 C481 1.385 . S
C478 H459 0.951 . S
C478 C476 1.388 . S
C478 C479 1.366 . S
C479 C478 1.366 . S
C479 C480 1.414 . S
C479 C482 1.499 . S
C480 H460 0.950 . S
C480 C479 1.414 . S
C480 C481 1.374 . S
C481 H461 0.950 . S
C481 C477 1.385 . S
C481 C480 1.374 . S
C482 C479 1.499 . S
C482 C483 1.373 . S
C482 C484 1.389 . S
C483 H462 0.950 . S
C483 C482 1.373 . S
C483 C499 1.377 . S
C484 C482 1.389 . S
C484 C485 1.524 . S
C484 C498 1.377 . S
C485 C484 1.524 . S
C485 C486 1.397 . S
C485 C490 1.363 . S
C486 H463 0.950 . S
C486 C485 1.397 . S
C486 C487 1.334 . S
C487 H464 0.950 . S
C487 C486 1.334 . S
C487 C488 1.287 . S
C488 C487 1.287 . S
C488 C489 1.524 . S
C488 H507 0.913 . S
C489 H465 0.950 . S
C489 C488 1.524 . S
C489 C490 1.415 . S
C490 H466 0.950 . S
C490 C485 1.363 . S
C490 C489 1.415 . S
C491 H467 0.951 . S
C491 C492 1.366 . S
C491 C493 1.388 . S
C492 C491 1.366 . S
C492 C496 1.385 . S
C493 H468 0.951 . S
C493 C491 1.388 . S
C493 C494 1.366 . S
C494 C493 1.366 . S
C494 C495 1.414 . S
C494 C497 1.499 . S
C495 H469 0.950 . S
C495 C494 1.414 . S
C495 C496 1.374 . S
C496 H470 0.950 . S
C496 C492 1.385 . S
C496 C495 1.374 . S
C497 C494 1.499 . S
C497 C498 1.373 . S
C497 C499 1.389 . S
C498 H471 0.950 . S
C498 C484 1.377 . S
C498 C497 1.373 . S
C499 C483 1.377 . S
C499 C497 1.389 . S
C499 C500 1.524 . S
C500 C499 1.524 . S
C500 C501 1.397 . S
C500 C505 1.363 . S
C501 H472 0.950 . S
C501 C500 1.397 . S
C501 C502 1.334 . S
C502 H473 0.950 . S
C502 C501 1.334 . S
C502 C503 1.287 . S
C503 C502 1.287 . S
C503 C504 1.524 . S
C503 H506 0.999 . S
C504 H474 0.950 . S
C504 C503 1.524 . S
C504 C505 1.415 . S
C505 H475 0.950 . S
C505 C500 1.363 . S
C505 C504 1.415 . S
H506 C503 0.999 . S
H507 C488 0.913 . S
H508 C526 0.951 . S
H509 C528 0.951 . S
H510 C530 0.950 . S
H511 C531 0.950 . S
H512 C533 0.950 . S
H513 C536 0.950 . S
H514 C537 0.950 . S
H515 C539 0.950 . S
H516 C540 0.950 . S
H517 C541 0.951 . S
H518 C543 0.951 . S
H519 C545 0.950 . S
H520 C546 0.950 . S
H521 C548 0.950 . S
H522 C551 0.950 . S
H523 C552 0.950 . S
H524 C554 0.950 . S
H525 C555 0.950 . S
C526 H508 0.951 . S
C526 C527 1.366 . S
C526 C528 1.388 . S
C527 C526 1.366 . S
C527 C531 1.385 . S
C528 H509 0.951 . S
C528 C526 1.388 . S
C528 C529 1.366 . S
C529 C528 1.366 . S
C529 C530 1.414 . S
C529 C532 1.499 . S
C530 H510 0.950 . S
C530 C529 1.414 . S
C530 C531 1.374 . S
C531 H511 0.950 . S
C531 C527 1.385 . S
C531 C530 1.374 . S
C532 C529 1.499 . S
C532 C533 1.373 . S
C532 C534 1.389 . S
C533 H512 0.950 . S
C533 C532 1.373 . S
C533 C549 1.377 . S
C534 C532 1.389 . S
C534 C535 1.524 . S
C534 C548 1.377 . S
C535 C534 1.524 . S
C535 C536 1.397 . S
C535 C540 1.363 . S
C536 H513 0.950 . S
C536 C535 1.397 . S
C536 C537 1.334 . S
C537 H514 0.950 . S
C537 C536 1.334 . S
C537 C538 1.287 . S
C538 C537 1.287 . S
C538 C539 1.524 . S
C538 H557 0.913 . S
C539 H515 0.950 . S
C539 C538 1.524 . S
C539 C540 1.415 . S
C540 H516 0.950 . S
C540 C535 1.363 . S
C540 C539 1.415 . S
C541 H517 0.951 . S
C541 C542 1.366 . S
C541 C543 1.388 . S
C542 C541 1.366 . S
C542 C546 1.385 . S
C543 H518 0.951 . S
C543 C541 1.388 . S
C543 C544 1.366 . S
C544 C543 1.366 . S
C544 C545 1.414 . S
C544 C547 1.499 . S
C545 H519 0.950 . S
C545 C544 1.414 . S
C545 C546 1.374 . S
C546 H520 0.950 . S
C546 C542 1.385 . S
C546 C545 1.374 . S
C547 C544 1.499 . S
C547 C548 1.373 . S
C547 C549 1.389 . S
C548 H521 0.950 . S
C548 C534 1.377 . S
C548 C547 1.373 . S
C549 C533 1.377 . S
C549 C547 1.389 . S
C549 C550 1.524 . S
C550 C549 1.524 . S
C550 C551 1.397 . S
C550 C555 1.363 . S
C551 H522 0.950 . S
C551 C550 1.397 . S
C551 C552 1.334 . S
C552 H523 0.950 . S
C552 C551 1.334 . S
C552 C553 1.287 1_556 S
C553 C552 1.287 1_554 S
C553 C554 1.524 . S
C553 H556 0.999 . S
C554 H524 0.950 . S
C554 C553 1.524 . S
C554 C555 1.415 1_554 S
C555 H525 0.950 . S
C555 C550 1.363 . S
C555 C554 1.415 1_556 S
H556 C553 0.999 . S
H557 C538 0.913 . S
H558 C576 0.951 . S
H559 C578 0.951 . S
H560 C580 0.950 . S
H561 C581 0.950 . S
H562 C583 0.950 . S
H563 C586 0.950 . S
H564 C587 0.950 . S
H565 C589 0.950 . S
H566 C590 0.950 . S
H567 C591 0.951 . S
H568 C593 0.951 . S
H569 C595 0.950 . S
H570 C596 0.950 . S
H571 C598 0.950 . S
H572 C601 0.950 . S
H573 C602 0.950 . S
H574 C604 0.950 . S
H575 C605 0.950 . S
C576 H558 0.951 . S
C576 C577 1.366 . S
C576 C578 1.388 . S
C577 C576 1.366 . S
C577 C581 1.385 . S
C578 H559 0.951 . S
C578 C576 1.388 . S
C578 C579 1.366 . S
C579 C578 1.366 . S
C579 C580 1.414 . S
C579 C582 1.499 . S
C580 H560 0.950 . S
C580 C579 1.414 . S
C580 C581 1.374 . S
C581 H561 0.950 . S
C581 C577 1.385 . S
C581 C580 1.374 . S
C582 C579 1.499 . S
C582 C583 1.373 . S
C582 C584 1.389 . S
C583 H562 0.950 . S
C583 C582 1.373 . S
C583 C599 1.377 . S
C584 C582 1.389 . S
C584 C585 1.524 . S
C584 C598 1.377 . S
C585 C584 1.524 . S
C585 C586 1.397 . S
C585 C590 1.363 . S
C586 H563 0.950 . S
C586 C585 1.397 . S
C586 C587 1.334 . S
C587 H564 0.950 . S
C587 C586 1.334 . S
C587 C588 1.287 . S
C588 C587 1.287 . S
C588 C589 1.524 . S
C588 H607 0.913 . S
C589 H565 0.950 . S
C589 C588 1.524 . S
C589 C590 1.415 . S
C590 H566 0.950 . S
C590 C585 1.363 . S
C590 C589 1.415 . S
C591 H567 0.951 . S
C591 C592 1.366 . S
C591 C593 1.388 . S
C592 C591 1.366 . S
C592 C596 1.385 . S
C593 H568 0.951 . S
C593 C591 1.388 . S
C593 C594 1.366 . S
C594 C593 1.366 . S
C594 C595 1.414 . S
C594 C597 1.499 . S
C595 H569 0.950 . S
C595 C594 1.414 . S
C595 C596 1.374 . S
C596 H570 0.950 . S
C596 C592 1.385 . S
C596 C595 1.374 . S
C597 C594 1.499 . S
C597 C598 1.373 . S
C597 C599 1.389 . S
C598 H571 0.950 . S
C598 C584 1.377 . S
C598 C597 1.373 . S
C599 C583 1.377 . S
C599 C597 1.389 . S
C599 C600 1.524 . S
C600 C599 1.524 . S
C600 C601 1.397 . S
C600 C605 1.363 . S
C601 H572 0.950 . S
C601 C600 1.397 . S
C601 C602 1.334 . S
C602 H573 0.950 . S
C602 C601 1.334 . S
C602 C603 1.287 . S
C603 C602 1.287 . S
C603 C604 1.524 . S
C603 H606 0.999 . S
C604 H574 0.950 . S
C604 C603 1.524 . S
C604 C605 1.415 . S
C605 H575 0.950 . S
C605 C600 1.363 . S
C605 C604 1.415 . S
H606 C603 0.999 . S
H607 C588 0.913 . S
H608 C626 0.951 . S
H609 C628 0.951 . S
H610 C630 0.950 . S
H611 C631 0.950 . S
H612 C633 0.950 . S
H613 C636 0.950 . S
H614 C637 0.950 . S
H615 C639 0.950 . S
H616 C640 0.950 . S
H617 C641 0.951 . S
H618 C643 0.951 . S
H619 C645 0.950 . S
H620 C646 0.950 . S
H621 C648 0.950 . S
H622 C651 0.950 . S
H623 C652 0.950 . S
H624 C654 0.950 . S
H625 C655 0.950 . S
C626 H608 0.951 . S
C626 C627 1.366 . S
C626 C628 1.388 . S
C627 C626 1.366 . S
C627 C631 1.385 . S
C628 H609 0.951 . S
C628 C626 1.388 . S
C628 C629 1.366 . S
C629 C628 1.366 . S
C629 C630 1.414 . S
C629 C632 1.499 . S
C630 H610 0.950 . S
C630 C629 1.414 . S
C630 C631 1.374 . S
C631 H611 0.950 . S
C631 C627 1.385 . S
C631 C630 1.374 . S
C632 C629 1.499 . S
C632 C633 1.373 . S
C632 C634 1.389 . S
C633 H612 0.950 . S
C633 C632 1.373 . S
C633 C649 1.377 . S
C634 C632 1.389 . S
C634 C635 1.524 . S
C634 C648 1.377 . S
C635 C634 1.524 . S
C635 C636 1.397 . S
C635 C640 1.363 . S
C636 H613 0.950 . S
C636 C635 1.397 . S
C636 C637 1.334 . S
C637 H614 0.950 . S
C637 C636 1.334 . S
C637 C638 1.287 . S
C638 C637 1.287 . S
C638 C639 1.524 . S
C638 H657 0.913 . S
C639 H615 0.950 . S
C639 C638 1.524 . S
C639 C640 1.415 . S
C640 H616 0.950 . S
C640 C635 1.363 . S
C640 C639 1.415 . S
C641 H617 0.951 . S
C641 C642 1.366 . S
C641 C643 1.388 . S
C642 C641 1.366 . S
C642 C646 1.385 . S
C643 H618 0.951 . S
C643 C641 1.388 . S
C643 C644 1.366 . S
C644 C643 1.366 . S
C644 C645 1.414 . S
C644 C647 1.499 . S
C645 H619 0.950 . S
C645 C644 1.414 . S
C645 C646 1.374 . S
C646 H620 0.950 . S
C646 C642 1.385 . S
C646 C645 1.374 . S
C647 C644 1.499 . S
C647 C648 1.373 . S
C647 C649 1.389 . S
C648 H621 0.950 . S
C648 C634 1.377 . S
C648 C647 1.373 . S
C649 C633 1.377 . S
C649 C647 1.389 . S
C649 C650 1.524 . S
C650 C649 1.524 . S
C650 C651 1.397 . S
C650 C655 1.363 . S
C651 H622 0.950 . S
C651 C650 1.397 . S
C651 C652 1.334 . S
C652 H623 0.950 . S
C652 C651 1.334 . S
C652 C653 1.287 . S
C653 C652 1.287 . S
C653 C654 1.524 . S
C653 H656 0.999 . S
C654 H624 0.950 . S
C654 C653 1.524 . S
C654 C655 1.415 . S
C655 H625 0.950 . S
C655 C650 1.363 . S
C655 C654 1.415 . S
H656 C653 0.999 . S
H657 C638 0.913 . S
H658 C676 0.951 . S
H659 C678 0.951 . S
H660 C680 0.950 . S
H661 C681 0.950 . S
H662 C683 0.950 . S
H663 C686 0.950 . S
H664 C687 0.950 . S
H665 C689 0.950 . S
H666 C690 0.950 . S
H667 C691 0.951 . S
H668 C693 0.951 . S
H669 C695 0.950 . S
H670 C696 0.950 . S
H671 C698 0.950 . S
H672 C701 0.950 . S
H673 C702 0.950 . S
H674 C704 0.950 . S
H675 C705 0.950 . S
C676 H658 0.951 . S
C676 C677 1.366 . S
C676 C678 1.388 . S
C677 C676 1.366 . S
C677 C681 1.385 . S
C678 H659 0.951 . S
C678 C676 1.388 . S
C678 C679 1.366 . S
C679 C678 1.366 . S
C679 C680 1.414 . S
C679 C682 1.499 . S
C680 H660 0.950 . S
C680 C679 1.414 . S
C680 C681 1.374 . S
C681 H661 0.950 . S
C681 C677 1.385 . S
C681 C680 1.374 . S
C682 C679 1.499 . S
C682 C683 1.373 . S
C682 C684 1.389 . S
C683 H662 0.950 . S
C683 C682 1.373 . S
C683 C699 1.377 . S
C684 C682 1.389 . S
C684 C685 1.524 . S
C684 C698 1.377 . S
C685 C684 1.524 . S
C685 C686 1.397 . S
C685 C690 1.363 . S
C686 H663 0.950 . S
C686 C685 1.397 . S
C686 C687 1.334 . S
C687 H664 0.950 . S
C687 C686 1.334 . S
C687 C688 1.287 . S
C688 C687 1.287 . S
C688 C689 1.524 . S
C688 H707 0.913 . S
C689 H665 0.950 . S
C689 C688 1.524 . S
C689 C690 1.415 . S
C690 H666 0.950 . S
C690 C685 1.363 . S
C690 C689 1.415 . S
C691 H667 0.951 . S
C691 C692 1.366 . S
C691 C693 1.388 . S
C692 C691 1.366 . S
C692 C696 1.385 . S
C693 H668 0.951 . S
C693 C691 1.388 . S
C693 C694 1.366 . S
C694 C693 1.366 . S
C694 C695 1.414 . S
C694 C697 1.499 . S
C695 H669 0.950 . S
C695 C694 1.414 . S
C695 C696 1.374 . S
C696 H670 0.950 . S
C696 C692 1.385 . S
C696 C695 1.374 . S
C697 C694 1.499 . S
C697 C698 1.373 . S
C697 C699 1.389 . S
C698 H671 0.950 . S
C698 C684 1.377 . S
C698 C697 1.373 . S
C699 C683 1.377 . S
C699 C697 1.389 . S
C699 C700 1.524 . S
C700 C699 1.524 . S
C700 C701 1.397 . S
C700 C705 1.363 . S
C701 H672 0.950 . S
C701 C700 1.397 . S
C701 C702 1.334 . S
C702 H673 0.950 . S
C702 C701 1.334 . S
C702 C703 1.287 . S
C703 C702 1.287 . S
C703 C704 1.524 . S
C703 H706 0.999 . S
C704 H674 0.950 . S
C704 C703 1.524 . S
C704 C705 1.415 . S
C705 H675 0.950 . S
C705 C700 1.363 . S
C705 C704 1.415 . S
H706 C703 0.999 . S
H707 C688 0.913 . S
H708 C726 0.951 . S
H709 C728 0.951 . S
H710 C730 0.950 . S
H711 C731 0.950 . S
H712 C733 0.950 . S
H713 C736 0.950 . S
H714 C737 0.950 . S
H715 C739 0.950 . S
H716 C740 0.950 . S
H717 C741 0.951 . S
H718 C743 0.951 . S
H719 C745 0.950 . S
H720 C746 0.950 . S
H721 C748 0.950 . S
H722 C751 0.950 . S
H723 C752 0.950 . S
H724 C754 0.950 . S
H725 C755 0.950 . S
C726 H708 0.951 . S
C726 C727 1.366 . S
C726 C728 1.388 . S
C727 C726 1.366 . S
C727 C731 1.385 . S
C728 H709 0.951 . S
C728 C726 1.388 . S
C728 C729 1.366 . S
C729 C728 1.366 . S
C729 C730 1.414 . S
C729 C732 1.499 . S
C730 H710 0.950 . S
C730 C729 1.414 . S
C730 C731 1.374 . S
C731 H711 0.950 . S
C731 C727 1.385 . S
C731 C730 1.374 . S
C732 C729 1.499 . S
C732 C733 1.373 . S
C732 C734 1.389 . S
C733 H712 0.950 . S
C733 C732 1.373 . S
C733 C749 1.377 . S
C734 C732 1.389 . S
C734 C735 1.524 . S
C734 C748 1.377 . S
C735 C734 1.524 . S
C735 C736 1.397 . S
C735 C740 1.363 . S
C736 H713 0.950 . S
C736 C735 1.397 . S
C736 C737 1.334 . S
C737 H714 0.950 . S
C737 C736 1.334 . S
C737 C738 1.287 . S
C738 C737 1.287 . S
C738 C739 1.524 . S
C738 H757 0.913 . S
C739 H715 0.950 . S
C739 C738 1.524 . S
C739 C740 1.415 . S
C740 H716 0.950 . S
C740 C735 1.363 . S
C740 C739 1.415 . S
C741 H717 0.951 . S
C741 C742 1.366 . S
C741 C743 1.388 . S
C742 C741 1.366 . S
C742 C746 1.385 . S
C743 H718 0.951 . S
C743 C741 1.388 . S
C743 C744 1.366 . S
C744 C743 1.366 . S
C744 C745 1.414 . S
C744 C747 1.499 . S
C745 H719 0.950 . S
C745 C744 1.414 . S
C745 C746 1.374 . S
C746 H720 0.950 . S
C746 C742 1.385 . S
C746 C745 1.374 . S
C747 C744 1.499 . S
C747 C748 1.373 . S
C747 C749 1.389 . S
C748 H721 0.950 . S
C748 C734 1.377 . S
C748 C747 1.373 . S
C749 C733 1.377 . S
C749 C747 1.389 . S
C749 C750 1.524 . S
C750 C749 1.524 . S
C750 C751 1.397 . S
C750 C755 1.363 . S
C751 H722 0.950 . S
C751 C750 1.397 . S
C751 C752 1.334 . S
C752 H723 0.950 . S
C752 C751 1.334 . S
C752 C753 1.287 . S
C753 C752 1.287 . S
C753 C754 1.524 . S
C753 H756 0.999 . S
C754 H724 0.950 . S
C754 C753 1.524 . S
C754 C755 1.415 . S
C755 H725 0.950 . S
C755 C750 1.363 . S
C755 C754 1.415 . S
H756 C753 0.999 . S
H757 C738 0.913 . S
H758 C776 0.951 . S
H759 C778 0.951 . S
H760 C780 0.950 . S
H761 C781 0.950 . S
H762 C783 0.950 . S
H763 C786 0.950 . S
H764 C787 0.950 . S
H765 C789 0.950 . S
H766 C790 0.950 . S
H767 C791 0.951 . S
H768 C793 0.951 . S
H769 C795 0.950 . S
H770 C796 0.950 . S
H771 C798 0.950 . S
H772 C801 0.950 . S
H773 C802 0.950 . S
H774 C804 0.950 . S
H775 C805 0.950 . S
C776 H758 0.951 . S
C776 C777 1.366 . S
C776 C778 1.388 . S
C777 C776 1.366 . S
C777 C781 1.385 . S
C778 H759 0.951 . S
C778 C776 1.388 . S
C778 C779 1.366 . S
C779 C778 1.366 . S
C779 C780 1.414 . S
C779 C782 1.499 . S
C780 H760 0.950 . S
C780 C779 1.414 . S
C780 C781 1.374 . S
C781 H761 0.950 . S
C781 C777 1.385 . S
C781 C780 1.374 . S
C782 C779 1.499 . S
C782 C783 1.373 . S
C782 C784 1.389 . S
C783 H762 0.950 . S
C783 C782 1.373 . S
C783 C799 1.377 . S
C784 C782 1.389 . S
C784 C785 1.524 . S
C784 C798 1.377 . S
C785 C784 1.524 . S
C785 C786 1.397 . S
C785 C790 1.363 . S
C786 H763 0.950 . S
C786 C785 1.397 . S
C786 C787 1.334 . S
C787 H764 0.950 . S
C787 C786 1.334 . S
C787 C788 1.287 . S
C788 C787 1.287 . S
C788 C789 1.524 . S
C788 H807 0.913 . S
C789 H765 0.950 . S
C789 C788 1.524 . S
C789 C790 1.415 . S
C790 H766 0.950 . S
C790 C785 1.363 . S
C790 C789 1.415 . S
C791 H767 0.951 . S
C791 C792 1.366 . S
C791 C793 1.388 . S
C792 C791 1.366 . S
C792 C796 1.385 . S
C793 H768 0.951 . S
C793 C791 1.388 . S
C793 C794 1.366 . S
C794 C793 1.366 . S
C794 C795 1.414 . S
C794 C797 1.499 . S
C795 H769 0.950 . S
C795 C794 1.414 . S
C795 C796 1.374 . S
C796 H770 0.950 . S
C796 C792 1.385 . S
C796 C795 1.374 . S
C797 C794 1.499 . S
C797 C798 1.373 . S
C797 C799 1.389 . S
C798 H771 0.950 . S
C798 C784 1.377 . S
C798 C797 1.373 . S
C799 C783 1.377 . S
C799 C797 1.389 . S
C799 C800 1.524 . S
C800 C799 1.524 . S
C800 C801 1.397 . S
C800 C805 1.363 . S
C801 H772 0.950 . S
C801 C800 1.397 . S
C801 C802 1.334 . S
C802 H773 0.950 . S
C802 C801 1.334 . S
C802 C803 1.287 . S
C803 C802 1.287 . S
C803 C804 1.524 . S
C803 H806 0.999 . S
C804 H774 0.950 . S
C804 C803 1.524 . S
C804 C805 1.415 . S
C805 H775 0.950 . S
C805 C800 1.363 . S
C805 C804 1.415 . S
H806 C803 0.999 . S
H807 C788 0.913 . S
H808 C826 0.951 . S
H809 C828 0.951 . S
H810 C830 0.950 . S
H811 C831 0.950 . S
H812 C833 0.950 . S
H813 C836 0.950 . S
H814 C837 0.950 . S
H815 C839 0.950 . S
H816 C840 0.950 . S
H817 C841 0.951 . S
H818 C843 0.951 . S
H819 C845 0.950 . S
H820 C846 0.950 . S
H821 C848 0.950 . S
H822 C851 0.950 . S
H823 C852 0.950 . S
H824 C854 0.950 . S
H825 C855 0.950 . S
C826 H808 0.951 . S
C826 C827 1.366 . S
C826 C828 1.388 . S
C827 C826 1.366 . S
C827 C831 1.385 . S
C828 H809 0.951 . S
C828 C826 1.388 . S
C828 C829 1.366 . S
C829 C828 1.366 . S
C829 C830 1.414 . S
C829 C832 1.499 . S
C830 H810 0.950 . S
C830 C829 1.414 . S
C830 C831 1.374 . S
C831 H811 0.950 . S
C831 C827 1.385 . S
C831 C830 1.374 . S
C832 C829 1.499 . S
C832 C833 1.373 . S
C832 C834 1.389 . S
C833 H812 0.950 . S
C833 C832 1.373 . S
C833 C849 1.377 . S
C834 C832 1.389 . S
C834 C835 1.524 . S
C834 C848 1.377 . S
C835 C834 1.524 . S
C835 C836 1.397 . S
C835 C840 1.363 . S
C836 H813 0.950 . S
C836 C835 1.397 . S
C836 C837 1.334 . S
C837 H814 0.950 . S
C837 C836 1.334 . S
C837 C838 1.287 . S
C838 C837 1.287 . S
C838 C839 1.524 . S
C838 H857 0.913 . S
C839 H815 0.950 . S
C839 C838 1.524 . S
C839 C840 1.415 . S
C840 H816 0.950 . S
C840 C835 1.363 . S
C840 C839 1.415 . S
C841 H817 0.951 . S
C841 C842 1.366 . S
C841 C843 1.388 . S
C842 C841 1.366 . S
C842 C846 1.385 . S
C843 H818 0.951 . S
C843 C841 1.388 . S
C843 C844 1.366 . S
C844 C843 1.366 . S
C844 C845 1.414 . S
C844 C847 1.499 . S
C845 H819 0.950 . S
C845 C844 1.414 . S
C845 C846 1.374 . S
C846 H820 0.950 . S
C846 C842 1.385 . S
C846 C845 1.374 . S
C847 C844 1.499 . S
C847 C848 1.373 . S
C847 C849 1.389 . S
C848 H821 0.950 . S
C848 C834 1.377 . S
C848 C847 1.373 . S
C849 C833 1.377 . S
C849 C847 1.389 . S
C849 C850 1.524 . S
C850 C849 1.524 . S
C850 C851 1.397 . S
C850 C855 1.363 . S
C851 H822 0.950 . S
C851 C850 1.397 . S
C851 C852 1.334 . S
C852 H823 0.950 . S
C852 C851 1.334 . S
C852 C853 1.287 . S
C853 C852 1.287 . S
C853 C854 1.524 . S
C853 H856 0.999 . S
C854 H824 0.950 . S
C854 C853 1.524 . S
C854 C855 1.415 . S
C855 H825 0.950 . S
C855 C850 1.363 . S
C855 C854 1.415 . S
H856 C853 0.999 . S
H857 C838 0.913 . S
H858 C876 0.951 . S
H859 C878 0.951 . S
H860 C880 0.950 . S
H861 C881 0.950 . S
H862 C883 0.950 . S
H863 C886 0.950 . S
H864 C887 0.950 . S
H865 C889 0.950 . S
H866 C890 0.950 . S
H867 C891 0.951 . S
H868 C893 0.951 . S
H869 C895 0.950 . S
H870 C896 0.950 . S
H871 C898 0.950 . S
H872 C901 0.950 . S
H873 C902 0.950 . S
H874 C904 0.950 . S
H875 C905 0.950 . S
C876 H858 0.951 . S
C876 C877 1.366 . S
C876 C878 1.388 . S
C877 C876 1.366 . S
C877 C881 1.385 . S
C878 H859 0.951 . S
C878 C876 1.388 . S
C878 C879 1.366 . S
C879 C878 1.366 . S
C879 C880 1.414 . S
C879 C882 1.499 . S
C880 H860 0.950 . S
C880 C879 1.414 . S
C880 C881 1.374 . S
C881 H861 0.950 . S
C881 C877 1.385 . S
C881 C880 1.374 . S
C882 C879 1.499 . S
C882 C883 1.373 . S
C882 C884 1.389 . S
C883 H862 0.950 . S
C883 C882 1.373 . S
C883 C899 1.377 . S
C884 C882 1.389 . S
C884 C885 1.524 . S
C884 C898 1.377 . S
C885 C884 1.524 . S
C885 C886 1.397 . S
C885 C890 1.363 . S
C886 H863 0.950 . S
C886 C885 1.397 . S
C886 C887 1.334 . S
C887 H864 0.950 . S
C887 C886 1.334 . S
C887 C888 1.287 . S
C888 C887 1.287 . S
C888 C889 1.524 . S
C888 H907 0.913 . S
C889 H865 0.950 . S
C889 C888 1.524 . S
C889 C890 1.415 . S
C890 H866 0.950 . S
C890 C885 1.363 . S
C890 C889 1.415 . S
C891 H867 0.951 . S
C891 C892 1.366 . S
C891 C893 1.388 . S
C892 C891 1.366 . S
C892 C896 1.385 . S
C893 H868 0.951 . S
C893 C891 1.388 . S
C893 C894 1.366 . S
C894 C893 1.366 . S
C894 C895 1.414 . S
C894 C897 1.499 . S
C895 H869 0.950 . S
C895 C894 1.414 . S
C895 C896 1.374 . S
C896 H870 0.950 . S
C896 C892 1.385 . S
C896 C895 1.374 . S
C897 C894 1.499 . S
C897 C898 1.373 . S
C897 C899 1.389 . S
C898 H871 0.950 . S
C898 C884 1.377 . S
C898 C897 1.373 . S
C899 C883 1.377 . S
C899 C897 1.389 . S
C899 C900 1.524 . S
C900 C899 1.524 . S
C900 C901 1.397 . S
C900 C905 1.363 . S
C901 H872 0.950 . S
C901 C900 1.397 . S
C901 C902 1.334 . S
C902 H873 0.950 . S
C902 C901 1.334 . S
C902 C903 1.287 . S
C903 C902 1.287 . S
C903 C904 1.524 . S
C903 H906 0.999 . S
C904 H874 0.950 . S
C904 C903 1.524 . S
C904 C905 1.415 . S
C905 H875 0.950 . S
C905 C900 1.363 . S
C905 C904 1.415 . S
H906 C903 0.999 . S
H907 C888 0.913 . S
H908 C926 0.951 . S
H909 C928 0.951 . S
H910 C930 0.950 . S
H911 C931 0.950 . S
H912 C933 0.950 . S
H913 C936 0.950 . S
H914 C937 0.950 . S
H915 C939 0.950 . S
H916 C940 0.950 . S
H917 C941 0.951 . S
H918 C943 0.951 . S
H919 C945 0.950 . S
H920 C946 0.950 . S
H921 C948 0.950 . S
H922 C951 0.950 . S
H923 C952 0.950 . S
H924 C954 0.950 . S
H925 C955 0.950 . S
C926 H908 0.951 . S
C926 C927 1.366 . S
C926 C928 1.388 . S
C927 C926 1.366 . S
C927 C931 1.385 . S
C928 H909 0.951 . S
C928 C926 1.388 . S
C928 C929 1.366 . S
C929 C928 1.366 . S
C929 C930 1.414 . S
C929 C932 1.499 . S
C930 H910 0.950 . S
C930 C929 1.414 . S
C930 C931 1.374 . S
C931 H911 0.950 . S
C931 C927 1.385 . S
C931 C930 1.374 . S
C932 C929 1.499 . S
C932 C933 1.373 . S
C932 C934 1.389 . S
C933 H912 0.950 . S
C933 C932 1.373 . S
C933 C949 1.377 . S
C934 C932 1.389 . S
C934 C935 1.524 . S
C934 C948 1.377 . S
C935 C934 1.524 . S
C935 C936 1.397 . S
C935 C940 1.363 . S
C936 H913 0.950 . S
C936 C935 1.397 . S
C936 C937 1.334 . S
C937 H914 0.950 . S
C937 C936 1.334 . S
C937 C938 1.287 . S
C938 C937 1.287 . S
C938 C939 1.524 . S
C938 H957 0.913 . S
C939 H915 0.950 . S
C939 C938 1.524 . S
C939 C940 1.415 . S
C940 H916 0.950 . S
C940 C935 1.363 . S
C940 C939 1.415 . S
C941 H917 0.951 . S
C941 C942 1.366 . S
C941 C943 1.388 . S
C942 C941 1.366 . S
C942 C946 1.385 . S
C943 H918 0.951 . S
C943 C941 1.388 . S
C943 C944 1.366 . S
C944 C943 1.366 . S
C944 C945 1.414 . S
C944 C947 1.499 . S
C945 H919 0.950 . S
C945 C944 1.414 . S
C945 C946 1.374 . S
C946 H920 0.950 . S
C946 C942 1.385 . S
C946 C945 1.374 . S
C947 C944 1.499 . S
C947 C948 1.373 . S
C947 C949 1.389 . S
C948 H921 0.950 . S
C948 C934 1.377 . S
C948 C947 1.373 . S
C949 C933 1.377 . S
C949 C947 1.389 . S
C949 C950 1.524 . S
C950 C949 1.524 . S
C950 C951 1.397 . S
C950 C955 1.363 . S
C951 H922 0.950 . S
C951 C950 1.397 . S
C951 C952 1.334 . S
C952 H923 0.950 . S
C952 C951 1.334 . S
C952 C953 1.287 . S
C953 C952 1.287 . S
C953 C954 1.524 . S
C953 H956 0.999 . S
C954 H924 0.950 . S
C954 C953 1.524 . S
C954 C955 1.415 . S
C955 H925 0.950 . S
C955 C950 1.363 . S
C955 C954 1.415 . S
H956 C953 0.999 . S
H957 C938 0.913 . S
H958 C976 0.951 . S
H959 C978 0.951 . S
H960 C980 0.950 . S
H961 C981 0.950 . S
H962 C983 0.950 . S
H963 C986 0.950 . S
H964 C987 0.950 . S
H965 C989 0.950 . S
H966 C990 0.950 . S
H967 C991 0.951 . S
H968 C993 0.951 . S
H969 C995 0.950 . S
H970 C996 0.950 . S
H971 C998 0.950 . S
H972 C1001 0.950 . S
H973 C1002 0.950 . S
H974 C1004 0.950 . S
H975 C1005 0.950 . S
C976 H958 0.951 . S
C976 C977 1.366 . S
C976 C978 1.388 . S
C977 C976 1.366 . S
C977 C981 1.385 . S
C978 H959 0.951 . S
C978 C976 1.388 . S
C978 C979 1.366 . S
C979 C978 1.366 . S
C979 C980 1.414 . S
C979 C982 1.499 . S
C980 H960 0.950 . S
C980 C979 1.414 . S
C980 C981 1.374 . S
C981 H961 0.950 . S
C981 C977 1.385 . S
C981 C980 1.374 . S
C982 C979 1.499 . S
C982 C983 1.373 . S
C982 C984 1.389 . S
C983 H962 0.950 . S
C983 C982 1.373 . S
C983 C999 1.377 . S
C984 C982 1.389 . S
C984 C985 1.524 . S
C984 C998 1.377 . S
C985 C984 1.524 . S
C985 C986 1.397 . S
C985 C990 1.363 . S
C986 H963 0.950 . S
C986 C985 1.397 . S
C986 C987 1.334 . S
C987 H964 0.950 . S
C987 C986 1.334 . S
C987 C988 1.287 . S
C988 C987 1.287 . S
C988 C989 1.524 . S
C988 H1007 0.913 . S
C989 H965 0.950 . S
C989 C988 1.524 . S
C989 C990 1.415 . S
C990 H966 0.950 . S
C990 C985 1.363 . S
C990 C989 1.415 . S
C991 H967 0.951 . S
C991 C992 1.366 . S
C991 C993 1.388 . S
C992 C991 1.366 . S
C992 C996 1.385 . S
C993 H968 0.951 . S
C993 C991 1.388 . S
C993 C994 1.366 . S
C994 C993 1.366 . S
C994 C995 1.414 . S
C994 C997 1.499 . S
C995 H969 0.950 . S
C995 C994 1.414 . S
C995 C996 1.374 . S
C996 H970 0.950 . S
C996 C992 1.385 . S
C996 C995 1.374 . S
C997 C994 1.499 . S
C997 C998 1.373 . S
C997 C999 1.389 . S
C998 H971 0.950 . S
C998 C984 1.377 . S
C998 C997 1.373 . S
C999 C983 1.377 . S
C999 C997 1.389 . S
C999 C1000 1.524 . S
C1000 C999 1.524 . S
C1000 C1001 1.397 . S
C1000 C1005 1.363 . S
C1001 H972 0.950 . S
C1001 C1000 1.397 . S
C1001 C1002 1.334 . S
C1002 H973 0.950 . S
C1002 C1001 1.334 . S
C1002 C1003 1.287 . S
C1003 C1002 1.287 . S
C1003 C1004 1.524 . S
C1003 H1006 0.999 . S
C1004 H974 0.950 . S
C1004 C1003 1.524 . S
C1004 C1005 1.415 . S
C1005 H975 0.950 . S
C1005 C1000 1.363 . S
C1005 C1004 1.415 . S
H1006 C1003 0.999 . S
H1007 C988 0.913 . S
H1008 C1026 0.951 . S
H1009 C1028 0.951 . S
H1010 C1030 0.950 . S
H1011 C1031 0.950 . S
H1012 C1033 0.950 . S
H1013 C1036 0.950 . S
H1014 C1037 0.950 . S
H1015 C1039 0.950 . S
H1016 C1040 0.950 . S
H1017 C1041 0.951 . S
H1018 C1043 0.951 . S
H1019 C1045 0.950 . S
H1020 C1046 0.950 . S
H1021 C1048 0.950 . S
H1022 C1051 0.950 . S
H1023 C1052 0.950 . S
H1024 C1054 0.950 . S
H1025 C1055 0.950 . S
C1026 H1008 0.951 . S
C1026 C1027 1.366 . S
C1026 C1028 1.388 . S
C1027 C1026 1.366 . S
C1027 C1031 1.385 . S
C1028 H1009 0.951 . S
C1028 C1026 1.388 . S
C1028 C1029 1.366 . S
C1029 C1028 1.366 . S
C1029 C1030 1.414 . S
C1029 C1032 1.499 . S
C1030 H1010 0.950 . S
C1030 C1029 1.414 . S
C1030 C1031 1.374 . S
C1031 H1011 0.950 . S
C1031 C1027 1.385 . S
C1031 C1030 1.374 . S
C1032 C1029 1.499 . S
C1032 C1033 1.373 1_556 S
C1032 C1034 1.389 . S
C1033 H1012 0.950 . S
C1033 C1032 1.373 1_554 S
C1033 C1049 1.377 . S
C1034 C1032 1.389 . S
C1034 C1035 1.524 . S
C1034 C1048 1.377 . S
C1035 C1034 1.524 . S
C1035 C1036 1.397 . S
C1035 C1040 1.363 . S
C1036 H1013 0.950 . S
C1036 C1035 1.397 . S
C1036 C1037 1.334 . S
C1037 H1014 0.950 . S
C1037 C1036 1.334 . S
C1037 C1038 1.287 . S
C1038 C1037 1.287 . S
C1038 C1039 1.524 . S
C1038 H1057 0.913 . S
C1039 H1015 0.950 . S
C1039 C1038 1.524 . S
C1039 C1040 1.415 . S
C1040 H1016 0.950 . S
C1040 C1035 1.363 . S
C1040 C1039 1.415 . S
C1041 H1017 0.951 . S
C1041 C1042 1.366 . S
C1041 C1043 1.388 . S
C1042 C1041 1.366 . S
C1042 C1046 1.385 . S
C1043 H1018 0.951 . S
C1043 C1041 1.388 . S
C1043 C1044 1.366 . S
C1044 C1043 1.366 . S
C1044 C1045 1.414 . S
C1044 C1047 1.499 . S
C1045 H1019 0.950 . S
C1045 C1044 1.414 . S
C1045 C1046 1.374 . S
C1046 H1020 0.950 . S
C1046 C1042 1.385 . S
C1046 C1045 1.374 . S
C1047 C1044 1.499 . S
C1047 C1048 1.373 1_554 S
C1047 C1049 1.389 . S
C1048 H1021 0.950 . S
C1048 C1034 1.377 . S
C1048 C1047 1.373 1_556 S
C1049 C1033 1.377 . S
C1049 C1047 1.389 . S
C1049 C1050 1.524 . S
C1050 C1049 1.524 . S
C1050 C1051 1.397 . S
C1050 C1055 1.363 . S
C1051 H1022 0.950 . S
C1051 C1050 1.397 . S
C1051 C1052 1.334 . S
C1052 H1023 0.950 . S
C1052 C1051 1.334 . S
C1052 C1053 1.287 . S
C1053 C1052 1.287 . S
C1053 C1054 1.524 . S
C1053 H1056 0.999 . S
C1054 H1024 0.950 . S
C1054 C1053 1.524 . S
C1054 C1055 1.415 . S
C1055 H1025 0.950 . S
C1055 C1050 1.363 . S
C1055 C1054 1.415 . S
H1056 C1053 0.999 . S
H1057 C1038 0.913 . S
H1058 C1076 0.951 . S
H1059 C1078 0.951 . S
H1060 C1080 0.950 . S
H1061 C1081 0.950 . S
H1062 C1083 0.950 . S
H1063 C1086 0.950 . S
H1064 C1087 0.950 . S
H1065 C1089 0.950 . S
H1066 C1090 0.950 . S
H1067 C1091 0.951 . S
H1068 C1093 0.951 . S
H1069 C1095 0.950 . S
H1070 C1096 0.950 . S
H1071 C1098 0.950 . S
H1072 C1101 0.950 . S
H1073 C1102 0.950 . S
H1074 C1104 0.950 . S
H1075 C1105 0.950 . S
C1076 H1058 0.951 . S
C1076 C1077 1.366 . S
C1076 C1078 1.388 . S
C1077 C1076 1.366 . S
C1077 C1081 1.385 . S
C1078 H1059 0.951 . S
C1078 C1076 1.388 . S
C1078 C1079 1.366 . S
C1079 C1078 1.366 . S
C1079 C1080 1.414 . S
C1079 C1082 1.499 . S
C1080 H1060 0.950 . S
C1080 C1079 1.414 . S
C1080 C1081 1.374 . S
C1081 H1061 0.950 . S
C1081 C1077 1.385 . S
C1081 C1080 1.374 . S
C1082 C1079 1.499 . S
C1082 C1083 1.373 . S
C1082 C1084 1.389 . S
C1083 H1062 0.950 . S
C1083 C1082 1.373 . S
C1083 C1099 1.377 . S
C1084 C1082 1.389 . S
C1084 C1085 1.524 . S
C1084 C1098 1.377 . S
C1085 C1084 1.524 . S
C1085 C1086 1.397 . S
C1085 C1090 1.363 . S
C1086 H1063 0.950 . S
C1086 C1085 1.397 . S
C1086 C1087 1.334 . S
C1087 H1064 0.950 . S
C1087 C1086 1.334 . S
C1087 C1088 1.287 . S
C1088 C1087 1.287 . S
C1088 C1089 1.524 . S
C1088 H1107 0.913 . S
C1089 H1065 0.950 . S
C1089 C1088 1.524 . S
C1089 C1090 1.415 . S
C1090 H1066 0.950 . S
C1090 C1085 1.363 . S
C1090 C1089 1.415 . S
C1091 H1067 0.951 . S
C1091 C1092 1.366 . S
C1091 C1093 1.388 . S
C1092 C1091 1.366 . S
C1092 C1096 1.385 . S
C1093 H1068 0.951 . S
C1093 C1091 1.388 . S
C1093 C1094 1.366 . S
C1094 C1093 1.366 . S
C1094 C1095 1.414 . S
C1094 C1097 1.499 . S
C1095 H1069 0.950 . S
C1095 C1094 1.414 . S
C1095 C1096 1.374 . S
C1096 H1070 0.950 . S
C1096 C1092 1.385 . S
C1096 C1095 1.374 . S
C1097 C1094 1.499 . S
C1097 C1098 1.373 . S
C1097 C1099 1.389 . S
C1098 H1071 0.950 . S
C1098 C1084 1.377 . S
C1098 C1097 1.373 . S
C1099 C1083 1.377 . S
C1099 C1097 1.389 . S
C1099 C1100 1.524 . S
C1100 C1099 1.524 . S
C1100 C1101 1.397 . S
C1100 C1105 1.363 . S
C1101 H1072 0.950 . S
C1101 C1100 1.397 . S
C1101 C1102 1.334 . S
C1102 H1073 0.950 . S
C1102 C1101 1.334 . S
C1102 C1103 1.287 . S
C1103 C1102 1.287 . S
C1103 C1104 1.524 . S
C1103 H1106 0.999 . S
C1104 H1074 0.950 . S
C1104 C1103 1.524 . S
C1104 C1105 1.415 . S
C1105 H1075 0.950 . S
C1105 C1100 1.363 . S
C1105 C1104 1.415 . S
H1106 C1103 0.999 . S
H1107 C1088 0.913 . S
H1108 C1126 0.951 . S
H1109 C1128 0.951 1_556 S
H1110 C1130 0.950 . S
H1111 C1131 0.950 . S
H1112 C1133 0.950 . S
H1113 C1136 0.950 . S
H1114 C1137 0.950 . S
H1115 C1139 0.950 . S
H1116 C1140 0.950 . S
H1117 C1141 0.951 . S
H1118 C1143 0.951 1_554 S
H1119 C1145 0.950 . S
H1120 C1146 0.950 . S
H1121 C1148 0.950 . S
H1122 C1151 0.958 . S
H1123 C1152 0.950 . S
H1124 C1154 0.950 . S
H1125 C1155 0.950 . S
C1126 H1108 0.951 . S
C1126 C1127 1.366 . S
C1126 C1128 1.388 . S
C1127 C1126 1.366 . S
C1127 C1131 1.385 . S
C1128 H1109 0.951 1_554 S
C1128 C1126 1.388 . S
C1128 C1129 1.366 . S
C1129 C1128 1.366 . S
C1129 C1130 1.414 . S
C1129 C1132 1.499 . S
C1130 H1110 0.950 . S
C1130 C1129 1.414 . S
C1130 C1131 1.374 . S
C1131 H1111 0.950 . S
C1131 C1127 1.385 . S
C1131 C1130 1.374 . S
C1132 C1129 1.499 . S
C1132 C1133 1.373 . S
C1132 C1134 1.389 1_554 S
C1133 H1112 0.950 . S
C1133 C1132 1.373 . S
C1133 C1149 1.377 . S
C1134 C1132 1.389 1_556 S
C1134 C1135 1.524 . S
C1134 C1148 1.377 . S
C1135 C1134 1.524 . S
C1135 C1136 1.397 . S
C1135 C1140 1.363 . S
C1136 H1113 0.950 . S
C1136 C1135 1.397 . S
C1136 C1137 1.334 . S
C1137 H1114 0.950 . S
C1137 C1136 1.334 . S
C1137 C1138 1.287 . S
C1138 C1137 1.287 . S
C1138 C1139 1.524 . S
C1138 H1157 0.913 . S
C1139 H1115 0.950 . S
C1139 C1138 1.524 . S
C1139 C1140 1.415 . S
C1140 H1116 0.950 . S
C1140 C1135 1.363 . S
C1140 C1139 1.415 . S
C1141 H1117 0.951 . S
C1141 C1142 1.366 . S
C1141 C1143 1.388 . S
C1142 C1141 1.366 . S
C1142 C1146 1.385 . S
C1143 H1118 0.951 1_556 S
C1143 C1141 1.388 . S
C1143 C1144 1.366 . S
C1144 C1143 1.366 . S
C1144 C1145 1.414 . S
C1144 C1147 1.499 . S
C1145 H1119 0.950 . S
C1145 C1144 1.414 . S
C1145 C1146 1.374 . S
C1146 H1120 0.950 . S
C1146 C1142 1.385 . S
C1146 C1145 1.374 . S
C1147 C1144 1.499 . S
C1147 C1148 1.373 . S
C1147 C1149 1.389 1_556 S
C1148 H1121 0.950 . S
C1148 C1134 1.377 . S
C1148 C1147 1.373 . S
C1149 C1133 1.377 . S
C1149 C1147 1.389 1_554 S
C1149 C1150 1.524 . S
C1150 C1149 1.524 . S
C1150 C1151 1.397 . S
C1150 C1155 1.363 . S
C1151 H1122 0.958 . S
C1151 C1150 1.397 . S
C1151 C1152 1.334 . S
C1152 H1123 0.950 . S
C1152 C1151 1.334 . S
C1152 C1153 1.287 . S
C1153 C1152 1.287 . S
C1153 C1154 1.524 . S
C1153 H1156 0.999 . S
C1154 H1124 0.950 . S
C1154 C1153 1.524 . S
C1154 C1155 1.415 . S
C1155 H1125 0.950 . S
C1155 C1150 1.363 . S
C1155 C1154 1.415 . S
H1156 C1153 0.999 . S
H1157 C1138 0.913 . S
H1158 C1176 0.951 . S
H1159 C1178 0.951 . S
H1160 C1180 0.950 . S
H1161 C1181 0.950 . S
H1162 C1183 0.950 . S
H1163 C1186 0.950 . S
H1164 C1187 0.950 . S
H1165 C1189 0.950 . S
H1166 C1190 0.950 . S
H1167 C1191 0.951 . S
H1168 C1193 0.951 . S
H1169 C1195 0.950 . S
H1170 C1196 0.950 . S
H1171 C1198 0.950 . S
H1172 C1201 0.950 . S
H1173 C1202 0.950 . S
H1174 C1204 0.950 . S
H1175 C1205 0.950 . S
C1176 H1158 0.951 . S
C1176 C1177 1.366 . S
C1176 C1178 1.388 . S
C1177 C1176 1.366 . S
C1177 C1181 1.385 . S
C1178 H1159 0.951 . S
C1178 C1176 1.388 . S
C1178 C1179 1.366 . S
C1179 C1178 1.366 . S
C1179 C1180 1.414 . S
C1179 C1182 1.499 . S
C1180 H1160 0.950 . S
C1180 C1179 1.414 . S
C1180 C1181 1.374 . S
C1181 H1161 0.950 . S
C1181 C1177 1.385 . S
C1181 C1180 1.374 . S
C1182 C1179 1.499 . S
C1182 C1183 1.373 . S
C1182 C1184 1.389 . S
C1183 H1162 0.950 . S
C1183 C1182 1.373 . S
C1183 C1199 1.377 . S
C1184 C1182 1.389 . S
C1184 C1185 1.524 . S
C1184 C1198 1.377 . S
C1185 C1184 1.524 . S
C1185 C1186 1.397 . S
C1185 C1190 1.363 . S
C1186 H1163 0.950 . S
C1186 C1185 1.397 . S
C1186 C1187 1.334 . S
C1187 H1164 0.950 . S
C1187 C1186 1.334 . S
C1187 C1188 1.287 . S
C1188 C1187 1.287 . S
C1188 C1189 1.524 . S
C1188 H1207 0.913 . S
C1189 H1165 0.950 . S
C1189 C1188 1.524 . S
C1189 C1190 1.415 . S
C1190 H1166 0.950 . S
C1190 C1185 1.363 . S
C1190 C1189 1.415 . S
C1191 H1167 0.951 . S
C1191 C1192 1.366 . S
C1191 C1193 1.388 . S
C1192 C1191 1.366 . S
C1192 C1196 1.385 . S
C1193 H1168 0.951 . S
C1193 C1191 1.388 . S
C1193 C1194 1.366 . S
C1194 C1193 1.366 . S
C1194 C1195 1.414 . S
C1194 C1197 1.499 . S
C1195 H1169 0.950 . S
C1195 C1194 1.414 . S
C1195 C1196 1.374 . S
C1196 H1170 0.950 . S
C1196 C1192 1.385 . S
C1196 C1195 1.374 . S
C1197 C1194 1.499 . S
C1197 C1198 1.373 . S
C1197 C1199 1.389 . S
C1198 H1171 0.950 . S
C1198 C1184 1.377 . S
C1198 C1197 1.373 . S
C1199 C1183 1.377 . S
C1199 C1197 1.389 . S
C1199 C1200 1.524 . S
C1200 C1199 1.524 . S
C1200 C1201 1.397 . S
C1200 C1205 1.363 . S
C1201 H1172 0.950 . S
C1201 C1200 1.397 . S
C1201 C1202 1.334 . S
C1202 H1173 0.950 . S
C1202 C1201 1.334 . S
C1202 C1203 1.287 . S
C1203 C1202 1.287 . S
C1203 C1204 1.524 . S
C1203 H1206 0.999 . S
C1204 H1174 0.950 . S
C1204 C1203 1.524 . S
C1204 C1205 1.415 . S
C1205 H1175 0.950 . S
C1205 C1200 1.363 . S
C1205 C1204 1.415 . S
H1206 C1203 0.999 . S
H1207 C1188 0.913 . S
H1208 C1226 0.951 . S
H1209 C1228 0.951 . S
H1210 C1230 0.950 . S
H1211 C1231 0.950 . S
H1212 C1233 0.950 . S
H1213 C1236 0.950 . S
H1214 C1237 0.950 . S
H1215 C1239 0.950 . S
H1216 C1240 0.950 . S
H1217 C1241 0.951 . S
H1218 C1243 0.951 . S
H1219 C1245 0.950 . S
H1220 C1246 0.950 . S
H1221 C1248 0.950 . S
H1222 C1251 0.950 . S
H1223 C1252 0.950 . S
H1224 C1254 0.950 . S
H1225 C1255 0.950 . S
C1226 H1208 0.951 . S
C1226 C1227 1.366 . S
C1226 C1228 1.388 . S
C1227 C1226 1.366 . S
C1227 C1231 1.385 . S
C1228 H1209 0.951 . S
C1228 C1226 1.388 . S
C1228 C1229 1.366 . S
C1229 C1228 1.366 . S
C1229 C1230 1.414 . S
C1229 C1232 1.499 . S
C1230 H1210 0.950 . S
C1230 C1229 1.414 . S
C1230 C1231 1.374 . S
C1231 H1211 0.950 . S
C1231 C1227 1.385 . S
C1231 C1230 1.374 . S
C1232 C1229 1.499 . S
C1232 C1233 1.373 . S
C1232 C1234 1.389 1_554 S
C1233 H1212 0.950 . S
C1233 C1232 1.373 . S
C1233 C1249 1.377 . S
C1234 C1232 1.389 1_556 S
C1234 C1235 1.524 . S
C1234 C1248 1.377 . S
C1235 C1234 1.524 . S
C1235 C1236 1.397 . S
C1235 C1240 1.363 . S
C1236 H1213 0.950 . S
C1236 C1235 1.397 . S
C1236 C1237 1.334 . S
C1237 H1214 0.950 . S
C1237 C1236 1.334 . S
C1237 C1238 1.287 . S
C1238 C1237 1.287 . S
C1238 C1239 1.524 . S
C1238 H1257 0.913 . S
C1239 H1215 0.950 . S
C1239 C1238 1.524 . S
C1239 C1240 1.415 . S
C1240 H1216 0.950 . S
C1240 C1235 1.363 . S
C1240 C1239 1.415 . S
C1241 H1217 0.951 . S
C1241 C1242 1.366 . S
C1241 C1243 1.388 . S
C1242 C1241 1.366 . S
C1242 C1246 1.385 . S
C1243 H1218 0.951 . S
C1243 C1241 1.388 . S
C1243 C1244 1.366 . S
C1244 C1243 1.366 . S
C1244 C1245 1.414 . S
C1244 C1247 1.499 . S
C1245 H1219 0.950 . S
C1245 C1244 1.414 . S
C1245 C1246 1.374 . S
C1246 H1220 0.950 . S
C1246 C1242 1.385 . S
C1246 C1245 1.374 . S
C1247 C1244 1.499 . S
C1247 C1248 1.373 . S
C1247 C1249 1.389 1_556 S
C1248 H1221 0.950 . S
C1248 C1234 1.377 . S
C1248 C1247 1.373 . S
C1249 C1233 1.377 . S
C1249 C1247 1.389 1_554 S
C1249 C1250 1.524 . S
C1250 C1249 1.524 . S
C1250 C1251 1.397 . S
C1250 C1255 1.363 . S
C1251 H1222 0.950 . S
C1251 C1250 1.397 . S
C1251 C1252 1.334 . S
C1252 H1223 0.950 . S
C1252 C1251 1.334 . S
C1252 C1253 1.287 . S
C1253 C1252 1.287 . S
C1253 C1254 1.524 . S
C1253 H1256 0.999 . S
C1254 H1224 0.950 . S
C1254 C1253 1.524 . S
C1254 C1255 1.415 . S
C1255 H1225 0.950 . S
C1255 C1250 1.363 . S
C1255 C1254 1.415 . S
H1256 C1253 0.999 . S
H1257 C1238 0.913 . S
H1258 C1276 0.951 . S
H1259 C1278 0.951 . S
H1260 C1280 0.950 . S
H1261 C1281 0.950 . S
H1262 C1283 0.950 . S
H1263 C1286 0.950 . S
H1264 C1287 0.950 . S
H1265 C1289 0.950 . S
H1266 C1290 0.950 . S
H1267 C1291 0.951 . S
H1268 C1293 0.951 . S
H1269 C1295 0.950 . S
H1270 C1296 0.950 . S
H1271 C1298 0.950 . S
H1272 C1301 0.950 . S
H1273 C1302 0.950 . S
H1274 C1304 0.950 . S
H1275 C1305 0.950 . S
C1276 H1258 0.951 . S
C1276 C1277 1.366 . S
C1276 C1278 1.388 . S
C1277 C1276 1.366 . S
C1277 C1281 1.385 . S
C1278 H1259 0.951 . S
C1278 C1276 1.388 . S
C1278 C1279 1.366 . S
C1279 C1278 1.366 . S
C1279 C1280 1.414 . S
C1279 C1282 1.499 . S
C1280 H1260 0.950 . S
C1280 C1279 1.414 . S
C1280 C1281 1.374 . S
C1281 H1261 0.950 . S
C1281 C1277 1.385 . S
C1281 C1280 1.374 . S
C1282 C1279 1.499 . S
C1282 C1283 1.373 . S
C1282 C1284 1.389 . S
C1283 H1262 0.950 . S
C1283 C1282 1.373 . S
C1283 C1299 1.377 . S
C1284 C1282 1.389 . S
C1284 C1285 1.524 . S
C1284 C1298 1.377 . S
C1285 C1284 1.524 . S
C1285 C1286 1.397 . S
C1285 C1290 1.363 . S
C1286 H1263 0.950 . S
C1286 C1285 1.397 . S
C1286 C1287 1.334 . S
C1287 H1264 0.950 . S
C1287 C1286 1.334 . S
C1287 C1288 1.287 . S
C1288 C1287 1.287 . S
C1288 C1289 1.524 . S
C1288 H1307 0.913 . S
C1289 H1265 0.950 . S
C1289 C1288 1.524 . S
C1289 C1290 1.415 . S
C1290 H1266 0.950 . S
C1290 C1285 1.363 . S
C1290 C1289 1.415 . S
C1291 H1267 0.951 . S
C1291 C1292 1.366 . S
C1291 C1293 1.388 . S
C1292 C1291 1.366 . S
C1292 C1296 1.385 . S
C1293 H1268 0.951 . S
C1293 C1291 1.388 . S
C1293 C1294 1.366 . S
C1294 C1293 1.366 . S
C1294 C1295 1.414 . S
C1294 C1297 1.499 . S
C1295 H1269 0.950 . S
C1295 C1294 1.414 . S
C1295 C1296 1.374 . S
C1296 H1270 0.950 . S
C1296 C1292 1.385 . S
C1296 C1295 1.374 . S
C1297 C1294 1.499 . S
C1297 C1298 1.373 . S
C1297 C1299 1.389 . S
C1298 H1271 0.950 . S
C1298 C1284 1.377 . S
C1298 C1297 1.373 . S
C1299 C1283 1.377 . S
C1299 C1297 1.389 . S
C1299 C1300 1.524 . S
C1300 C1299 1.524 . S
C1300 C1301 1.397 . S
C1300 C1305 1.363 . S
C1301 H1272 0.950 . S
C1301 C1300 1.397 . S
C1301 C1302 1.334 . S
C1302 H1273 0.950 . S
C1302 C1301 1.334 . S
C1302 C1303 1.287 . S
C1303 C1302 1.287 . S
C1303 C1304 1.524 . S
C1303 H1306 0.999 . S
C1304 H1274 0.950 . S
C1304 C1303 1.524 . S
C1304 C1305 1.415 . S
C1305 H1275 0.950 . S
C1305 C1300 1.363 . S
C1305 C1304 1.415 . S
H1306 C1303 0.999 . S
H1307 C1288 0.913 . S
H1308 C1326 0.951 . S
H1309 C1328 0.951 . S
H1310 C1330 0.937 1_556 S
H1311 C1331 0.950 . S
H1312 C1333 0.950 . S
H1313 C1336 0.950 . S
H1314 C1337 0.950 . S
H1315 C1339 0.950 . S
H1316 C1340 0.950 . S
H1317 C1341 0.951 . S
H1318 C1343 0.951 . S
H1319 C1345 0.978 . S
H1320 C1346 0.950 . S
H1321 C1348 0.950 . S
H1322 C1351 0.950 . S
H1323 C1352 0.950 . S
H1324 C1354 0.950 . S
H1325 C1355 0.950 . S
C1326 H1308 0.951 . S
C1326 C1327 1.366 . S
C1326 C1328 1.388 . S
C1327 C1326 1.366 . S
C1327 C1331 1.385 . S
C1328 H1309 0.951 . S
C1328 C1326 1.388 . S
C1328 C1329 1.366 . S
C1329 C1328 1.366 . S
C1329 C1330 1.414 . S
C1329 C1332 1.499 . S
C1330 H1310 0.937 1_554 S
C1330 C1329 1.414 . S
C1330 C1331 1.374 . S
C1331 H1311 0.950 . S
C1331 C1327 1.385 . S
C1331 C1330 1.374 . S
C1332 C1329 1.499 . S
C1332 C1333 1.373 1_554 S
C1332 C1334 1.389 . S
C1333 H1312 0.950 . S
C1333 C1332 1.373 1_556 S
C1333 C1349 1.377 . S
C1334 C1332 1.389 . S
C1334 C1335 1.524 . S
C1334 C1348 1.377 . S
C1335 C1334 1.524 . S
C1335 C1336 1.397 . S
C1335 C1340 1.363 . S
C1336 H1313 0.950 . S
C1336 C1335 1.397 . S
C1336 C1337 1.334 . S
C1337 H1314 0.950 . S
C1337 C1336 1.334 . S
C1337 C1338 1.287 . S
C1338 C1337 1.287 . S
C1338 C1339 1.524 . S
C1338 H1357 0.913 . S
C1339 H1315 0.950 . S
C1339 C1338 1.524 . S
C1339 C1340 1.415 . S
C1340 H1316 0.950 . S
C1340 C1335 1.363 . S
C1340 C1339 1.415 . S
C1341 H1317 0.951 . S
C1341 C1342 1.366 . S
C1341 C1343 1.388 . S
C1342 C1341 1.366 . S
C1342 C1346 1.385 . S
C1343 H1318 0.951 . S
C1343 C1341 1.388 . S
C1343 C1344 1.366 . S
C1344 C1343 1.366 . S
C1344 C1345 1.414 . S
C1344 C1347 1.499 . S
C1345 H1319 0.978 . S
C1345 C1344 1.414 . S
C1345 C1346 1.374 . S
C1346 H1320 0.950 . S
C1346 C1342 1.385 . S
C1346 C1345 1.374 . S
C1347 C1344 1.499 . S
C1347 C1348 1.373 1_556 S
C1347 C1349 1.389 . S
C1348 H1321 0.950 . S
C1348 C1334 1.377 . S
C1348 C1347 1.373 1_554 S
C1349 C1333 1.377 . S
C1349 C1347 1.389 . S
C1349 C1350 1.524 . S
C1350 C1349 1.524 . S
C1350 C1351 1.397 . S
C1350 C1355 1.363 . S
C1351 H1322 0.950 . S
C1351 C1350 1.397 . S
C1351 C1352 1.334 . S
C1352 H1323 0.950 . S
C1352 C1351 1.334 . S
C1352 C1353 1.287 . S
C1353 C1352 1.287 . S
C1353 C1354 1.524 . S
C1353 H1356 0.999 . S
C1354 H1324 0.950 . S
C1354 C1353 1.524 . S
C1354 C1355 1.415 . S
C1355 H1325 0.950 . S
C1355 C1350 1.363 . S
C1355 C1354 1.415 . S
H1356 C1353 0.999 . S
H1357 C1338 0.913 . S
H1358 C1376 0.951 . S
H1359 C1378 0.951 . S
H1360 C1380 0.950 . S
H1361 C1381 0.950 . S
H1362 C1383 0.950 . S
H1363 C1386 0.950 . S
H1364 C1387 0.950 . S
H1365 C1389 0.950 . S
H1366 C1390 0.950 . S
H1367 C1391 0.951 . S
H1368 C1393 0.951 . S
H1369 C1395 0.950 . S
H1370 C1396 0.950 . S
H1371 C1398 0.950 . S
H1372 C1401 0.950 . S
H1373 C1402 0.950 . S
H1374 C1404 0.950 . S
H1375 C1405 0.950 . S
C1376 H1358 0.951 . S
C1376 C1377 1.366 . S
C1376 C1378 1.388 . S
C1377 C1376 1.366 . S
C1377 C1381 1.385 . S
C1378 H1359 0.951 . S
C1378 C1376 1.388 . S
C1378 C1379 1.366 . S
C1379 C1378 1.366 . S
C1379 C1380 1.414 . S
C1379 C1382 1.499 . S
C1380 H1360 0.950 . S
C1380 C1379 1.414 . S
C1380 C1381 1.374 . S
C1381 H1361 0.950 . S
C1381 C1377 1.385 . S
C1381 C1380 1.374 . S
C1382 C1379 1.499 . S
C1382 C1383 1.373 . S
C1382 C1384 1.389 . S
C1383 H1362 0.950 . S
C1383 C1382 1.373 . S
C1383 C1399 1.377 . S
C1384 C1382 1.389 . S
C1384 C1385 1.524 . S
C1384 C1398 1.377 . S
C1385 C1384 1.524 . S
C1385 C1386 1.397 . S
C1385 C1390 1.363 . S
C1386 H1363 0.950 . S
C1386 C1385 1.397 . S
C1386 C1387 1.334 . S
C1387 H1364 0.950 . S
C1387 C1386 1.334 . S
C1387 C1388 1.287 . S
C1388 C1387 1.287 . S
C1388 C1389 1.524 . S
C1388 H1407 0.913 . S
C1389 H1365 0.950 . S
C1389 C1388 1.524 . S
C1389 C1390 1.415 . S
C1390 H1366 0.950 . S
C1390 C1385 1.363 . S
C1390 C1389 1.415 . S
C1391 H1367 0.951 . S
C1391 C1392 1.366 . S
C1391 C1393 1.388 . S
C1392 C1391 1.366 . S
C1392 C1396 1.385 . S
C1393 H1368 0.951 . S
C1393 C1391 1.388 . S
C1393 C1394 1.366 . S
C1394 C1393 1.366 . S
C1394 C1395 1.414 . S
C1394 C1397 1.499 . S
C1395 H1369 0.950 . S
C1395 C1394 1.414 . S
C1395 C1396 1.374 . S
C1396 H1370 0.950 . S
C1396 C1392 1.385 . S
C1396 C1395 1.374 . S
C1397 C1394 1.499 . S
C1397 C1398 1.373 . S
C1397 C1399 1.389 . S
C1398 H1371 0.950 . S
C1398 C1384 1.377 . S
C1398 C1397 1.373 . S
C1399 C1383 1.377 . S
C1399 C1397 1.389 . S
C1399 C1400 1.524 . S
C1400 C1399 1.524 . S
C1400 C1401 1.397 . S
C1400 C1405 1.363 . S
C1401 H1372 0.950 . S
C1401 C1400 1.397 . S
C1401 C1402 1.334 . S
C1402 H1373 0.950 . S
C1402 C1401 1.334 . S
C1402 C1403 1.287 . S
C1403 C1402 1.287 . S
C1403 C1404 1.524 . S
C1403 H1406 0.999 . S
C1404 H1374 0.950 . S
C1404 C1403 1.524 . S
C1404 C1405 1.415 . S
C1405 H1375 0.950 . S
C1405 C1400 1.363 . S
C1405 C1404 1.415 . S
H1406 C1403 0.999 . S
H1407 C1388 0.913 . S
H1408 C1426 0.951 . S
H1409 C1428 0.951 . S
H1410 C1430 0.950 . S
H1411 C1431 0.950 . S
H1412 C1433 0.950 . S
H1413 C1436 0.950 . S
H1414 C1437 0.950 . S
H1415 C1439 0.950 . S
H1416 C1440 0.950 . S
H1417 C1441 0.951 . S
H1418 C1443 0.951 . S
H1419 C1445 0.950 . S
H1420 C1446 0.950 . S
H1421 C1448 0.950 . S
H1422 C1451 0.950 . S
H1423 C1452 0.950 . S
H1424 C1454 0.950 . S
H1425 C1455 0.950 . S
C1426 H1408 0.951 . S
C1426 C1427 1.366 . S
C1426 C1428 1.388 . S
C1427 C1426 1.366 . S
C1427 C1431 1.385 . S
C1428 H1409 0.951 . S
C1428 C1426 1.388 . S
C1428 C1429 1.366 . S
C1429 C1428 1.366 . S
C1429 C1430 1.414 . S
C1429 C1432 1.499 . S
C1430 H1410 0.950 . S
C1430 C1429 1.414 . S
C1430 C1431 1.374 . S
C1431 H1411 0.950 . S
C1431 C1427 1.385 . S
C1431 C1430 1.374 . S
C1432 C1429 1.499 . S
C1432 C1433 1.373 . S
C1432 C1434 1.389 . S
C1433 H1412 0.950 . S
C1433 C1432 1.373 . S
C1433 C1449 1.377 1_556 S
C1434 C1432 1.389 . S
C1434 C1435 1.524 . S
C1434 C1448 1.377 1_556 S
C1435 C1434 1.524 . S
C1435 C1436 1.397 1_556 S
C1435 C1440 1.363 . S
C1436 H1413 0.950 . S
C1436 C1435 1.397 1_554 S
C1436 C1437 1.334 . S
C1437 H1414 0.950 . S
C1437 C1436 1.334 . S
C1437 C1438 1.287 . S
C1438 C1437 1.287 . S
C1438 C1439 1.524 1_554 S
C1438 H1457 0.913 . S
C1439 H1415 0.950 . S
C1439 C1438 1.524 1_556 S
C1439 C1440 1.415 . S
C1440 H1416 0.950 . S
C1440 C1435 1.363 . S
C1440 C1439 1.415 . S
C1441 H1417 0.951 . S
C1441 C1442 1.366 . S
C1441 C1443 1.388 . S
C1442 C1441 1.366 . S
C1442 C1446 1.385 . S
C1443 H1418 0.951 . S
C1443 C1441 1.388 . S
C1443 C1444 1.366 . S
C1444 C1443 1.366 . S
C1444 C1445 1.414 . S
C1444 C1447 1.499 . S
C1445 H1419 0.950 . S
C1445 C1444 1.414 . S
C1445 C1446 1.374 . S
C1446 H1420 0.950 . S
C1446 C1442 1.385 . S
C1446 C1445 1.374 . S
C1447 C1444 1.499 . S
C1447 C1448 1.373 . S
C1447 C1449 1.389 . S
C1448 H1421 0.950 . S
C1448 C1434 1.377 1_554 S
C1448 C1447 1.373 . S
C1449 C1433 1.377 1_554 S
C1449 C1447 1.389 . S
C1449 C1450 1.524 . S
C1450 C1449 1.524 . S
C1450 C1451 1.397 1_554 S
C1450 C1455 1.363 . S
C1451 H1422 0.950 . S
C1451 C1450 1.397 1_556 S
C1451 C1452 1.334 . S
C1452 H1423 0.950 . S
C1452 C1451 1.334 . S
C1452 C1453 1.287 . S
C1453 C1452 1.287 . S
C1453 C1454 1.524 1_556 S
C1453 H1456 0.999 . S
C1454 H1424 0.950 . S
C1454 C1453 1.524 1_554 S
C1454 C1455 1.415 . S
C1455 H1425 0.950 . S
C1455 C1450 1.363 . S
C1455 C1454 1.415 . S
H1456 C1453 0.999 . S
H1457 C1438 0.913 . S
H1458 C1476 0.951 . S
H1459 C1478 0.951 . S
H1460 C1480 0.950 . S
H1461 C1481 0.950 . S
H1462 C1483 0.950 . S
H1463 C1486 0.950 . S
H1464 C1487 0.950 . S
H1465 C1489 0.950 . S
H1466 C1490 0.950 . S
H1467 C1491 0.951 . S
H1468 C1493 0.951 . S
H1469 C1495 0.950 . S
H1470 C1496 0.950 . S
H1471 C1498 0.950 . S
H1472 C1501 0.950 . S
H1473 C1502 0.950 . S
H1474 C1504 0.950 . S
H1475 C1505 0.950 . S
C1476 H1458 0.951 . S
C1476 C1477 1.366 . S
C1476 C1478 1.388 . S
C1477 C1476 1.366 . S
C1477 C1481 1.385 . S
C1478 H1459 0.951 . S
C1478 C1476 1.388 . S
C1478 C1479 1.366 . S
C1479 C1478 1.366 . S
C1479 C1480 1.414 . S
C1479 C1482 1.499 . S
C1480 H1460 0.950 . S
C1480 C1479 1.414 . S
C1480 C1481 1.374 . S
C1481 H1461 0.950 . S
C1481 C1477 1.385 . S
C1481 C1480 1.374 . S
C1482 C1479 1.499 . S
C1482 C1483 1.373 . S
C1482 C1484 1.389 . S
C1483 H1462 0.950 . S
C1483 C1482 1.373 . S
C1483 C1499 1.377 . S
C1484 C1482 1.389 . S
C1484 C1485 1.524 . S
C1484 C1498 1.377 . S
C1485 C1484 1.524 . S
C1485 C1486 1.397 . S
C1485 C1490 1.363 . S
C1486 H1463 0.950 . S
C1486 C1485 1.397 . S
C1486 C1487 1.334 . S
C1487 H1464 0.950 . S
C1487 C1486 1.334 . S
C1487 C1488 1.287 . S
C1488 C1487 1.287 . S
C1488 C1489 1.524 . S
C1488 H1507 0.913 . S
C1489 H1465 0.950 . S
C1489 C1488 1.524 . S
C1489 C1490 1.415 . S
C1490 H1466 0.950 . S
C1490 C1485 1.363 . S
C1490 C1489 1.415 . S
C1491 H1467 0.951 . S
C1491 C1492 1.366 . S
C1491 C1493 1.388 . S
C1492 C1491 1.366 . S
C1492 C1496 1.385 . S
C1493 H1468 0.951 . S
C1493 C1491 1.388 . S
C1493 C1494 1.366 . S
C1494 C1493 1.366 . S
C1494 C1495 1.414 . S
C1494 C1497 1.499 . S
C1495 H1469 0.950 . S
C1495 C1494 1.414 . S
C1495 C1496 1.374 . S
C1496 H1470 0.950 . S
C1496 C1492 1.385 . S
C1496 C1495 1.374 . S
C1497 C1494 1.499 . S
C1497 C1498 1.373 . S
C1497 C1499 1.389 . S
C1498 H1471 0.950 . S
C1498 C1484 1.377 . S
C1498 C1497 1.373 . S
C1499 C1483 1.377 . S
C1499 C1497 1.389 . S
C1499 C1500 1.524 . S
C1500 C1499 1.524 . S
C1500 C1501 1.397 . S
C1500 C1505 1.363 . S
C1501 H1472 0.950 . S
C1501 C1500 1.397 . S
C1501 C1502 1.334 . S
C1502 H1473 0.950 . S
C1502 C1501 1.334 . S
C1502 C1503 1.287 . S
C1503 C1502 1.287 . S
C1503 C1504 1.524 . S
C1503 H1506 0.999 . S
C1504 H1474 0.950 . S
C1504 C1503 1.524 . S
C1504 C1505 1.415 . S
C1505 H1475 0.950 . S
C1505 C1500 1.363 . S
C1505 C1504 1.415 . S
H1506 C1503 0.999 . S
H1507 C1488 0.913 . S
H1508 C1526 0.951 . S
H1509 C1528 0.951 . S
H1510 C1530 0.950 1_556 S
H1511 C1531 0.950 . S
H1512 C1533 0.950 . S
H1513 C1536 0.950 . S
H1514 C1537 0.950 . S
H1515 C1539 0.950 . S
H1516 C1540 0.950 . S
H1517 C1541 0.951 . S
H1518 C1543 0.951 . S
H1519 C1545 0.950 1_554 S
H1520 C1546 0.950 . S
H1521 C1548 0.950 . S
H1522 C1551 0.950 . S
H1523 C1552 0.950 . S
H1524 C1554 0.950 . S
H1525 C1555 0.950 . S
C1526 H1508 0.951 . S
C1526 C1527 1.366 . S
C1526 C1528 1.388 . S
C1527 C1526 1.366 . S
C1527 C1531 1.385 . S
C1528 H1509 0.951 . S
C1528 C1526 1.388 . S
C1528 C1529 1.366 . S
C1529 C1528 1.366 . S
C1529 C1530 1.414 . S
C1529 C1532 1.499 . S
C1530 H1510 0.950 1_554 S
C1530 C1529 1.414 . S
C1530 C1531 1.374 . S
C1531 H1511 0.950 . S
C1531 C1527 1.385 . S
C1531 C1530 1.374 . S
C1532 C1529 1.499 . S
C1532 C1533 1.373 1_554 S
C1532 C1534 1.389 . S
C1533 H1512 0.950 . S
C1533 C1532 1.373 1_556 S
C1533 C1549 1.377 . S
C1534 C1532 1.389 . S
C1534 C1535 1.524 . S
C1534 C1548 1.377 . S
C1535 C1534 1.524 . S
C1535 C1536 1.397 . S
C1535 C1540 1.363 . S
C1536 H1513 0.950 . S
C1536 C1535 1.397 . S
C1536 C1537 1.334 . S
C1537 H1514 0.950 . S
C1537 C1536 1.334 . S
C1537 C1538 1.287 . S
C1538 C1537 1.287 . S
C1538 C1539 1.524 . S
C1538 H1557 0.913 . S
C1539 H1515 0.950 . S
C1539 C1538 1.524 . S
C1539 C1540 1.415 . S
C1540 H1516 0.950 . S
C1540 C1535 1.363 . S
C1540 C1539 1.415 . S
C1541 H1517 0.951 . S
C1541 C1542 1.366 . S
C1541 C1543 1.388 . S
C1542 C1541 1.366 . S
C1542 C1546 1.385 . S
C1543 H1518 0.951 . S
C1543 C1541 1.388 . S
C1543 C1544 1.366 . S
C1544 C1543 1.366 . S
C1544 C1545 1.414 . S
C1544 C1547 1.499 . S
C1545 H1519 0.950 1_556 S
C1545 C1544 1.414 . S
C1545 C1546 1.374 . S
C1546 H1520 0.950 . S
C1546 C1542 1.385 . S
C1546 C1545 1.374 . S
C1547 C1544 1.499 . S
C1547 C1548 1.373 1_556 S
C1547 C1549 1.389 . S
C1548 H1521 0.950 . S
C1548 C1534 1.377 . S
C1548 C1547 1.373 1_554 S
C1549 C1533 1.377 . S
C1549 C1547 1.389 . S
C1549 C1550 1.524 . S
C1550 C1549 1.524 . S
C1550 C1551 1.397 . S
C1550 C1555 1.363 . S
C1551 H1522 0.950 . S
C1551 C1550 1.397 . S
C1551 C1552 1.334 . S
C1552 H1523 0.950 . S
C1552 C1551 1.334 . S
C1552 C1553 1.287 . S
C1553 C1552 1.287 . S
C1553 C1554 1.524 . S
C1553 H1556 0.999 . S
C1554 H1524 0.950 . S
C1554 C1553 1.524 . S
C1554 C1555 1.415 . S
C1555 H1525 0.950 . S
C1555 C1550 1.363 . S
C1555 C1554 1.415 . S
H1556 C1553 0.999 . S
H1557 C1538 0.913 . S
H1558 C1576 0.951 . S
H1559 C1578 0.951 . S
H1560 C1580 0.950 . S
H1561 C1581 0.950 . S
H1562 C1583 0.950 . S
H1563 C1586 0.950 . S
H1564 C1587 0.950 . S
H1565 C1589 0.950 . S
H1566 C1590 0.950 . S
H1567 C1591 0.951 . S
H1568 C1593 0.951 . S
H1569 C1595 0.950 . S
H1570 C1596 0.950 . S
H1571 C1598 0.950 . S
H1572 C1601 0.950 . S
H1573 C1602 0.950 . S
H1574 C1604 0.950 . S
H1575 C1605 0.950 . S
C1576 H1558 0.951 . S
C1576 C1577 1.366 . S
C1576 C1578 1.388 . S
C1577 C1576 1.366 . S
C1577 C1581 1.385 . S
C1578 H1559 0.951 . S
C1578 C1576 1.388 . S
C1578 C1579 1.366 . S
C1579 C1578 1.366 . S
C1579 C1580 1.414 . S
C1579 C1582 1.499 . S
C1580 H1560 0.950 . S
C1580 C1579 1.414 . S
C1580 C1581 1.374 . S
C1581 H1561 0.950 . S
C1581 C1577 1.385 . S
C1581 C1580 1.374 . S
C1582 C1579 1.499 . S
C1582 C1583 1.373 . S
C1582 C1584 1.389 . S
C1583 H1562 0.950 . S
C1583 C1582 1.373 . S
C1583 C1599 1.377 . S
C1584 C1582 1.389 . S
C1584 C1585 1.524 . S
C1584 C1598 1.377 . S
C1585 C1584 1.524 . S
C1585 C1586 1.397 . S
C1585 C1590 1.363 . S
C1586 H1563 0.950 . S
C1586 C1585 1.397 . S
C1586 C1587 1.334 . S
C1587 H1564 0.950 . S
C1587 C1586 1.334 . S
C1587 C1588 1.287 . S
C1588 C1587 1.287 . S
C1588 C1589 1.524 . S
C1588 H1607 0.913 . S
C1589 H1565 0.950 . S
C1589 C1588 1.524 . S
C1589 C1590 1.415 . S
C1590 H1566 0.950 . S
C1590 C1585 1.363 . S
C1590 C1589 1.415 . S
C1591 H1567 0.951 . S
C1591 C1592 1.366 . S
C1591 C1593 1.388 . S
C1592 C1591 1.366 . S
C1592 C1596 1.385 . S
C1593 H1568 0.951 . S
C1593 C1591 1.388 . S
C1593 C1594 1.366 . S
C1594 C1593 1.366 . S
C1594 C1595 1.414 . S
C1594 C1597 1.499 . S
C1595 H1569 0.950 . S
C1595 C1594 1.414 . S
C1595 C1596 1.374 . S
C1596 H1570 0.950 . S
C1596 C1592 1.385 . S
C1596 C1595 1.374 . S
C1597 C1594 1.499 . S
C1597 C1598 1.373 . S
C1597 C1599 1.389 . S
C1598 H1571 0.950 . S
C1598 C1584 1.377 . S
C1598 C1597 1.373 . S
C1599 C1583 1.377 . S
C1599 C1597 1.389 . S
C1599 C1600 1.524 . S
C1600 C1599 1.524 . S
C1600 C1601 1.397 . S
C1600 C1605 1.363 . S
C1601 H1572 0.950 . S
C1601 C1600 1.397 . S
C1601 C1602 1.334 . S
C1602 H1573 0.950 . S
C1602 C1601 1.334 . S
C1602 C1603 1.287 . S
C1603 C1602 1.287 . S
C1603 C1604 1.524 . S
C1603 H1606 0.999 . S
C1604 H1574 0.950 . S
C1604 C1603 1.524 . S
C1604 C1605 1.415 . S
C1605 H1575 0.950 . S
C1605 C1600 1.363 . S
C1605 C1604 1.415 . S
H1606 C1603 0.999 . S
H1607 C1588 0.913 . S
H1608 C1626 0.951 . S
H1609 C1628 0.951 . S
H1610 C1630 0.950 . S
H1611 C1631 0.950 . S
H1612 C1633 0.950 . S
H1613 C1636 0.950 . S
H1614 C1637 0.950 . S
H1615 C1639 0.950 . S
H1616 C1640 0.950 . S
H1617 C1641 0.951 . S
H1618 C1643 0.951 . S
H1619 C1645 0.950 . S
H1620 C1646 0.950 . S
H1621 C1648 0.950 . S
H1622 C1651 0.950 . S
H1623 C1652 0.950 . S
H1624 C1654 0.950 . S
H1625 C1655 0.950 . S
C1626 H1608 0.951 . S
C1626 C1627 1.366 . S
C1626 C1628 1.388 . S
C1627 C1626 1.366 . S
C1627 C1631 1.385 . S
C1628 H1609 0.951 . S
C1628 C1626 1.388 . S
C1628 C1629 1.366 . S
C1629 C1628 1.366 . S
C1629 C1630 1.414 . S
C1629 C1632 1.499 . S
C1630 H1610 0.950 . S
C1630 C1629 1.414 . S
C1630 C1631 1.374 . S
C1631 H1611 0.950 . S
C1631 C1627 1.385 . S
C1631 C1630 1.374 . S
C1632 C1629 1.499 . S
C1632 C1633 1.373 . S
C1632 C1634 1.389 1_556 S
C1633 H1612 0.950 . S
C1633 C1632 1.373 . S
C1633 C1649 1.377 1_545 S
C1634 C1632 1.389 1_554 S
C1634 C1635 1.524 . S
C1634 C1648 1.377 1_545 S
C1635 C1634 1.524 . S
C1635 C1636 1.397 . S
C1635 C1640 1.363 . S
C1636 H1613 0.950 . S
C1636 C1635 1.397 . S
C1636 C1637 1.334 . S
C1637 H1614 0.950 . S
C1637 C1636 1.334 . S
C1637 C1638 1.287 . S
C1638 C1637 1.287 . S
C1638 C1639 1.524 . S
C1638 H1657 0.913 . S
C1639 H1615 0.950 . S
C1639 C1638 1.524 . S
C1639 C1640 1.415 . S
C1640 H1616 0.950 . S
C1640 C1635 1.363 . S
C1640 C1639 1.415 . S
C1641 H1617 0.951 . S
C1641 C1642 1.366 . S
C1641 C1643 1.388 . S
C1642 C1641 1.366 . S
C1642 C1646 1.385 . S
C1643 H1618 0.951 . S
C1643 C1641 1.388 . S
C1643 C1644 1.366 . S
C1644 C1643 1.366 . S
C1644 C1645 1.414 . S
C1644 C1647 1.499 . S
C1645 H1619 0.950 . S
C1645 C1644 1.414 . S
C1645 C1646 1.374 . S
C1646 H1620 0.950 . S
C1646 C1642 1.385 . S
C1646 C1645 1.374 . S
C1647 C1644 1.499 . S
C1647 C1648 1.373 . S
C1647 C1649 1.389 1_554 S
C1648 H1621 0.950 . S
C1648 C1634 1.377 1_565 S
C1648 C1647 1.373 . S
C1649 C1633 1.377 1_565 S
C1649 C1647 1.389 1_556 S
C1649 C1650 1.524 . S
C1650 C1649 1.524 . S
C1650 C1651 1.397 . S
C1650 C1655 1.363 . S
C1651 H1622 0.950 . S
C1651 C1650 1.397 . S
C1651 C1652 1.334 . S
C1652 H1623 0.950 . S
C1652 C1651 1.334 . S
C1652 C1653 1.287 . S
C1653 C1652 1.287 . S
C1653 C1654 1.524 . S
C1653 H1656 0.999 . S
C1654 H1624 0.950 . S
C1654 C1653 1.524 . S
C1654 C1655 1.415 . S
C1655 H1625 0.950 . S
C1655 C1650 1.363 . S
C1655 C1654 1.415 . S
H1656 C1653 0.999 . S
H1657 C1638 0.913 . S
H1658 C1676 0.951 . S
H1659 C1678 0.951 . S
H1660 C1680 0.950 . S
H1661 C1681 0.950 . S
H1662 C1683 0.950 . S
H1663 C1686 0.950 . S
H1664 C1687 0.950 . S
H1665 C1689 0.950 . S
H1666 C1690 0.951 . S
H1667 C1691 0.951 . S
H1668 C1693 0.951 . S
H1669 C1695 0.950 . S
H1670 C1696 0.950 . S
H1671 C1698 0.950 . S
H1672 C1701 0.950 . S
H1673 C1702 0.950 . S
H1674 C1704 0.950 . S
H1675 C1705 0.951 . S
C1676 H1658 0.951 . S
C1676 C1677 1.366 . S
C1676 C1678 1.388 . S
C1677 C1676 1.366 . S
C1677 C1681 1.385 . S
C1678 H1659 0.951 . S
C1678 C1676 1.388 . S
C1678 C1679 1.366 . S
C1679 C1678 1.366 . S
C1679 C1680 1.414 . S
C1679 C1682 1.499 . S
C1680 H1660 0.950 . S
C1680 C1679 1.414 . S
C1680 C1681 1.374 . S
C1681 H1661 0.950 . S
C1681 C1677 1.385 . S
C1681 C1680 1.374 . S
C1682 C1679 1.499 . S
C1682 C1683 1.373 . S
C1682 C1684 1.389 . S
C1683 H1662 0.950 . S
C1683 C1682 1.373 . S
C1683 C1699 1.377 1_565 S
C1684 C1682 1.389 . S
C1684 C1685 1.524 . S
C1684 C1698 1.377 1_565 S
C1685 C1684 1.524 . S
C1685 C1686 1.397 . S
C1685 C1690 1.363 . S
C1686 H1663 0.950 . S
C1686 C1685 1.397 . S
C1686 C1687 1.334 . S
C1687 H1664 0.950 . S
C1687 C1686 1.334 . S
C1687 C1688 1.287 . S
C1688 C1687 1.287 . S
C1688 C1689 1.524 . S
C1688 H1707 0.913 . S
C1689 H1665 0.950 . S
C1689 C1688 1.524 . S
C1689 C1690 1.415 . S
C1690 H1666 0.951 . S
C1690 C1685 1.363 . S
C1690 C1689 1.415 . S
C1691 H1667 0.951 . S
C1691 C1692 1.366 . S
C1691 C1693 1.388 . S
C1692 C1691 1.366 . S
C1692 C1696 1.385 . S
C1693 H1668 0.951 . S
C1693 C1691 1.388 . S
C1693 C1694 1.366 . S
C1694 C1693 1.366 . S
C1694 C1695 1.414 . S
C1694 C1697 1.499 . S
C1695 H1669 0.950 . S
C1695 C1694 1.414 . S
C1695 C1696 1.374 . S
C1696 H1670 0.950 . S
C1696 C1692 1.385 . S
C1696 C1695 1.374 . S
C1697 C1694 1.499 . S
C1697 C1698 1.373 . S
C1697 C1699 1.389 . S
C1698 H1671 0.950 . S
C1698 C1684 1.377 1_545 S
C1698 C1697 1.373 . S
C1699 C1683 1.377 1_545 S
C1699 C1697 1.389 . S
C1699 C1700 1.524 . S
C1700 C1699 1.524 . S
C1700 C1701 1.397 . S
C1700 C1705 1.363 . S
C1701 H1672 0.950 . S
C1701 C1700 1.397 . S
C1701 C1702 1.334 . S
C1702 H1673 0.950 . S
C1702 C1701 1.334 . S
C1702 C1703 1.287 . S
C1703 C1702 1.287 . S
C1703 C1704 1.524 . S
C1703 H1706 0.999 . S
C1704 H1674 0.950 . S
C1704 C1703 1.524 . S
C1704 C1705 1.415 . S
C1705 H1675 0.951 . S
C1705 C1700 1.363 . S
C1705 C1704 1.415 . S
H1706 C1703 0.999 . S
H1707 C1688 0.913 . S
H1708 C1726 0.951 . S
H1709 C1728 0.951 . S
H1710 C1730 0.950 1_556 S
H1711 C1731 0.950 . S
H1712 C1733 0.954 . S
H1713 C1736 0.948 1_556 S
H1714 C1737 0.950 . S
H1715 C1739 0.950 1_545 S
H1716 C1740 0.928 1_545 S
H1717 C1741 0.951 . S
H1718 C1743 0.951 . S
H1719 C1745 0.950 1_554 S
H1720 C1746 0.950 . S
H1721 C1748 0.954 . S
H1722 C1751 0.948 1_554 S
H1723 C1752 0.950 . S
H1724 C1754 0.950 1_565 S
H1725 C1755 0.928 1_565 S
C1726 H1708 0.951 . S
C1726 C1727 1.366 . S
C1726 C1728 1.388 . S
C1727 C1726 1.366 . S
C1727 C1731 1.385 . S
C1728 H1709 0.951 . S
C1728 C1726 1.388 . S
C1728 C1729 1.366 . S
C1729 C1728 1.366 . S
C1729 C1730 1.414 . S
C1729 C1732 1.499 . S
C1730 H1710 0.950 1_554 S
C1730 C1729 1.414 . S
C1730 C1731 1.374 . S
C1731 H1711 0.950 . S
C1731 C1727 1.385 . S
C1731 C1730 1.374 . S
C1732 C1729 1.499 . S
C1732 C1733 1.352 1_554 S
C1732 C1734 1.389 . S
C1733 H1712 0.954 . S
C1733 C1732 1.352 1_556 S
C1733 C1749 1.397 1_565 S
C1734 C1732 1.389 . S
C1734 C1735 1.524 . S
C1734 C1748 1.397 1_565 S
C1735 C1734 1.524 . S
C1735 C1736 1.397 . S
C1735 C1740 1.379 . S
C1736 H1713 0.948 1_554 S
C1736 C1735 1.397 . S
C1736 C1737 1.334 . S
C1737 H1714 0.950 . S
C1737 C1736 1.334 . S
C1737 C1738 1.287 . S
C1738 C1737 1.287 . S
C1738 C1739 1.524 . S
C1738 H1757 0.913 . S
C1739 H1715 0.950 1_565 S
C1739 C1738 1.524 . S
C1739 C1740 1.422 . S
C1740 H1716 0.928 1_565 S
C1740 C1735 1.379 . S
C1740 C1739 1.422 . S
C1741 H1717 0.951 . S
C1741 C1742 1.366 . S
C1741 C1743 1.388 . S
C1742 C1741 1.366 . S
C1742 C1746 1.385 . S
C1743 H1718 0.951 . S
C1743 C1741 1.388 . S
C1743 C1744 1.366 . S
C1744 C1743 1.366 . S
C1744 C1745 1.414 . S
C1744 C1747 1.499 . S
C1745 H1719 0.950 1_556 S
C1745 C1744 1.414 . S
C1745 C1746 1.374 . S
C1746 H1720 0.950 . S
C1746 C1742 1.385 . S
C1746 C1745 1.374 . S
C1747 C1744 1.499 . S
C1747 C1748 1.352 1_556 S
C1747 C1749 1.389 . S
C1748 H1721 0.954 . S
C1748 C1734 1.397 1_545 S
C1748 C1747 1.352 1_554 S
C1749 C1733 1.397 1_545 S
C1749 C1747 1.389 . S
C1749 C1750 1.524 . S
C1750 C1749 1.524 . S
C1750 C1751 1.397 . S
C1750 C1755 1.379 . S
C1751 H1722 0.948 1_556 S
C1751 C1750 1.397 . S
C1751 C1752 1.334 . S
C1752 H1723 0.950 . S
C1752 C1751 1.334 . S
C1752 C1753 1.287 . S
C1753 C1752 1.287 . S
C1753 C1754 1.524 . S
C1753 H1756 0.999 . S
C1754 H1724 0.950 1_545 S
C1754 C1753 1.524 . S
C1754 C1755 1.422 . S
C1755 H1725 0.928 1_545 S
C1755 C1750 1.379 . S
C1755 C1754 1.422 . S
H1756 C1753 0.999 . S
H1757 C1738 0.913 . S
H1758 C1776 0.951 . S
H1759 C1778 0.951 . S
H1760 C1780 0.950 . S
H1761 C1781 0.950 . S
H1762 C1783 0.950 . S
H1763 C1786 0.950 . S
H1764 C1787 0.950 . S
H1765 C1789 0.950 . S
H1766 C1790 0.950 . S
H1767 C1791 0.951 . S
H1768 C1793 0.951 . S
H1769 C1795 0.950 . S
H1770 C1796 0.950 . S
H1771 C1798 0.950 . S
H1772 C1801 0.950 . S
H1773 C1802 0.950 . S
H1774 C1804 0.950 . S
H1775 C1805 0.950 . S
C1776 H1758 0.951 . S
C1776 C1777 1.366 . S
C1776 C1778 1.388 . S
C1777 C1776 1.366 . S
C1777 C1781 1.385 . S
C1778 H1759 0.951 . S
C1778 C1776 1.388 . S
C1778 C1779 1.366 . S
C1779 C1778 1.366 . S
C1779 C1780 1.414 . S
C1779 C1782 1.499 . S
C1780 H1760 0.950 . S
C1780 C1779 1.414 . S
C1780 C1781 1.374 . S
C1781 H1761 0.950 . S
C1781 C1777 1.385 . S
C1781 C1780 1.374 . S
C1782 C1779 1.499 . S
C1782 C1783 1.373 . S
C1782 C1784 1.389 . S
C1783 H1762 0.950 . S
C1783 C1782 1.373 . S
C1783 C1799 1.377 1_545 S
C1784 C1782 1.389 . S
C1784 C1785 1.524 . S
C1784 C1798 1.377 1_545 S
C1785 C1784 1.524 . S
C1785 C1786 1.397 . S
C1785 C1790 1.363 1_545 S
C1786 H1763 0.950 . S
C1786 C1785 1.397 . S
C1786 C1787 1.334 . S
C1787 H1764 0.950 . S
C1787 C1786 1.334 . S
C1787 C1788 1.287 . S
C1788 C1787 1.287 . S
C1788 C1789 1.524 1_545 S
C1788 H1807 0.913 . S
C1789 H1765 0.950 . S
C1789 C1788 1.524 1_565 S
C1789 C1790 1.415 . S
C1790 H1766 0.950 . S
C1790 C1785 1.363 1_565 S
C1790 C1789 1.415 . S
C1791 H1767 0.951 . S
C1791 C1792 1.366 . S
C1791 C1793 1.388 . S
C1792 C1791 1.366 . S
C1792 C1796 1.385 . S
C1793 H1768 0.951 . S
C1793 C1791 1.388 . S
C1793 C1794 1.366 . S
C1794 C1793 1.366 . S
C1794 C1795 1.414 . S
C1794 C1797 1.499 . S
C1795 H1769 0.950 . S
C1795 C1794 1.414 . S
C1795 C1796 1.374 . S
C1796 H1770 0.950 . S
C1796 C1792 1.385 . S
C1796 C1795 1.374 . S
C1797 C1794 1.499 . S
C1797 C1798 1.373 . S
C1797 C1799 1.389 . S
C1798 H1771 0.950 . S
C1798 C1784 1.377 1_565 S
C1798 C1797 1.373 . S
C1799 C1783 1.377 1_565 S
C1799 C1797 1.389 . S
C1799 C1800 1.524 . S
C1800 C1799 1.524 . S
C1800 C1801 1.397 . S
C1800 C1805 1.363 1_565 S
C1801 H1772 0.950 . S
C1801 C1800 1.397 . S
C1801 C1802 1.334 . S
C1802 H1773 0.950 . S
C1802 C1801 1.334 . S
C1802 C1803 1.287 . S
C1803 C1802 1.287 . S
C1803 C1804 1.524 1_565 S
C1803 H1806 0.999 . S
C1804 H1774 0.950 . S
C1804 C1803 1.524 1_545 S
C1804 C1805 1.415 . S
C1805 H1775 0.950 . S
C1805 C1800 1.363 1_545 S
C1805 C1804 1.415 . S
H1806 C1803 0.999 . S
H1807 C1788 0.913 . S
C227 C5 1.391 . S
C242 C83 1.391 . S
C277 C18 1.391 . S
C292 C96 1.391 . S
C327 C57 1.392 . S
C342 C31 1.390 . S
C377 C70 1.391 . S
C392 C44 1.390 . S
C427 C187 1.391 . S
C442 C109 1.391 . S
C477 C200 1.392 . S
C492 C122 1.391 . S
C527 C135 1.391 . S
C542 C161 1.392 . S
C577 C148 1.390 . S
C592 C174 1.391 . S
C627 C10 1.353 . S
C642 C73 1.312 . S
C677 C23 1.353 . S
C692 C60 1.311 . S
C727 C36 1.353 . S
C742 C99 1.311 . S
C777 C86 1.312 . S
C792 C49 1.352 . S
C827 C177 1.312 . S
C842 C114 1.352 . S
C877 C164 1.312 . S
C892 C127 1.352 . S
C927 C140 1.352 . S
C942 C203 1.312 . S
C977 C190 1.311 . S
C992 C153 1.352 . S
C1027 C156 1.196 . S
C1042 C0 1.200 . S
C1077 C13 1.199 . S
C1092 C169 1.196 . S
C1127 C182 1.197 . S
C1142 C26 1.199 . S
C1177 C195 1.197 . S
C1192 C39 1.200 . S
C1227 C104 1.199 . S
C1242 C52 1.197 . S
C1277 C117 1.199 . S
C1292 C65 1.197 . S
C1327 C78 1.196 . S
C1342 C130 1.200 . S
C1377 C91 1.197 . S
C1392 C143 1.199 . S
C1427 C34 1.295 . S
C1442 C8 1.294 . S
C1477 C21 1.295 . S
C1492 C47 1.294 . S
C1527 C88 1.367 . S
C1542 C62 1.367 . S
C1577 C75 1.367 . S
C1592 C101 1.367 . S
C1627 C138 1.294 . S
C1642 C112 1.294 . S
C1677 C151 1.294 . S
C1692 C125 1.295 . S
C1727 C192 1.367 . S
C1742 C166 1.367 . S
C1777 C205 1.367 . S
C1792 C179 1.367 . S
