# Generated by pormake.
# Topology rob, (6)-cn, num edge types: 1
# Building blocks:
#     Node 0, Type 0, BuildingBlock: INOVEN_clean_sbu_0, # of connection points: 6
#     Node 1, Type 0, BuildingBlock: INOVEN_clean_sbu_0, # of connection points: 6
#     Node 2, Type 0, BuildingBlock: INOVEN_clean_sbu_0, # of connection points: 6
#     Node 3, Type 0, BuildingBlock: INOVEN_clean_sbu_0, # of connection points: 6
#     Edge 4, Type (0, 0), BuildingBlock: ZUJKAS_clean_linker_0, # of connection points: 2
#     Edge 5, Type (0, 0), BuildingBlock: ZUJKAS_clean_linker_0, # of connection points: 2
#     Edge 6, Type (0, 0), BuildingBlock: ZUJKAS_clean_linker_0, # of connection points: 2
#     Edge 7, Type (0, 0), BuildingBlock: ZUJKAS_clean_linker_0, # of connection points: 2
#     Edge 8, Type (0, 0), BuildingBlock: ZUJKAS_clean_linker_0, # of connection points: 2
#     Edge 9, Type (0, 0), BuildingBlock: ZUJKAS_clean_linker_0, # of connection points: 2
#     Edge 10, Type (0, 0), BuildingBlock: ZUJKAS_clean_linker_0, # of connection points: 2
#     Edge 11, Type (0, 0), BuildingBlock: ZUJKAS_clean_linker_0, # of connection points: 2
#     Edge 12, Type (0, 0), BuildingBlock: ZUJKAS_clean_linker_0, # of connection points: 2
#     Edge 13, Type (0, 0), BuildingBlock: ZUJKAS_clean_linker_0, # of connection points: 2
#     Edge 14, Type (0, 0), BuildingBlock: ZUJKAS_clean_linker_0, # of connection points: 2
#     Edge 15, Type (0, 0), BuildingBlock: ZUJKAS_clean_linker_0, # of connection points: 2
# Relax obj value: 0.084
# Max RMSD: 0.164
# Mean RMSD: 0.164
data_MOF--net-rob--node1-INOVEN_clean_sbu_0--edge1-ZUJKAS_clean_linker_0
_symmetry_space_group_name_H-M    P1
_symmetry_Int_Tables_number       1
_symmetry_cell_setting            triclinic
loop_
_symmetry_equiv_pos_as_xyz
'x, y, z'
_cell_length_a     19.43289
_cell_length_b     32.065679
_cell_length_c     45.799554
_cell_angle_alpha  89.958323
_cell_angle_beta   120.67145
_cell_angle_gamma 90.025451
loop_
_atom_site_label
_atom_site_type_symbol
_atom_site_fract_x
_atom_site_fract_y
_atom_site_fract_z
_atom_type_partial_charge
Gd0 Gd 0.17595 0.28079 0.99411 0.0
Gd1 Gd 0.33151 0.25443 -0.00228 0.0
C2 C 0.33768 0.26199 0.06713 0.0
C3 C 0.05879 0.28747 0.00538 0.0
C4 C 0.05008 0.28389 0.03557 0.0
C5 C 0.01127 0.31577 0.04264 0.0
C6 C 0.08183 0.24984 0.058 0.0
C7 C 0.03612 0.2799 0.09409 0.0
C8 C 0.07453 0.24778 0.08687 0.0
C9 C 1.00459 0.3139 0.07162 0.0
C10 C 0.26409 0.34373 0.99116 0.0
C11 C 0.16748 0.27117 0.92428 0.0
C12 C 0.44994 0.24993 0.98702 0.0
C13 C 0.45835 0.24923 0.95667 0.0
C14 C 0.40535 0.22636 0.92757 0.0
C15 C 0.51912 0.27258 0.95645 0.0
C16 C 0.47412 0.25021 0.89846 0.0
C17 C 0.52701 0.27307 0.92771 0.0
C18 C 0.41314 0.22685 0.8988 0.0
C19 C 0.24335 0.19135 0.00053 0.0
O20 O 0.25875 0.26285 0.04869 0.0
O21 O 0.38287 0.26379 0.0533 0.0
O22 O 0.1001 0.31944 0.00498 0.0
O23 O 0.07423 0.2532 0.99421 0.0
O24 O 0.1864 0.34319 0.97413 0.0
O25 O 0.29125 0.31214 0.01019 0.0
O26 O 0.24638 0.26816 0.94229 0.0
O27 O 0.12305 0.27227 0.93847 0.0
O28 O 0.41719 0.21722 0.99218 0.0
O29 O 0.42502 0.28506 0.99294 0.0
O30 O 0.32111 0.1915 0.01717 0.0
O31 O 0.21648 0.22311 0.98172 0.0
H32 H 0.98646 0.34234 0.02578 0.0
H33 H 0.11293 0.22498 0.05344 0.0
H34 H 0.10025 0.22143 0.10388 0.0
H35 H 0.97399 0.33893 0.07628 0.0
H36 H 0.35774 0.20814 0.927 0.0
H37 H 0.56031 0.2907 0.9785 0.0
H38 H 0.5739 0.29194 0.92826 0.0
H39 H 0.37184 0.20848 0.87697 0.0
Gd40 Gd 0.67777 0.77995 -0.00375 0.0
Gd41 Gd 0.82909 0.75596 -0.00413 0.0
C42 C 0.84164 0.75549 0.0667 0.0
C43 C 0.56318 0.78402 0.00937 0.0
C44 C 0.55715 0.78135 0.04031 0.0
C45 C 0.52435 0.81486 0.04886 0.0
C46 C 0.58481 0.74628 0.06179 0.0
C47 C 0.54747 0.77866 0.09993 0.0
C48 C 0.57973 0.74491 0.09121 0.0
C49 C 0.51983 0.81364 0.07838 0.0
C50 C 0.76812 0.84458 -0.00254 0.0
C51 C 0.66523 0.78193 0.92581 0.0
C52 C 0.94419 0.75077 0.98295 0.0
C53 C 0.95057 0.75277 0.95216 0.0
C54 C 0.00788 0.7284 0.95014 0.0
C55 C 0.89829 0.77751 0.92422 0.0
C56 C 0.95983 0.75294 0.89236 0.0
C57 C 0.90265 0.77753 0.89461 0.0
C58 C 0.01267 0.72854 0.92064 0.0
C59 C 0.73843 0.69146 0.99476 0.0
O60 O 0.76262 0.75662 0.04916 0.0
O61 O 0.88469 0.76061 0.0521 0.0
O62 O 0.5996 0.81694 0.00689 0.0
O63 O 0.58159 0.74986 -0.00078 0.0
O64 O 0.69047 0.84501 0.98095 0.0
O65 O 0.79432 0.81097 0.01381 0.0
O66 O 0.74425 0.78062 0.9433 0.0
O67 O 0.62198 0.77574 0.94013 0.0
O68 O 0.90672 0.71829 0.98533 0.0
O69 O 0.92528 0.78533 0.99241 0.0
O70 O 0.81606 0.69107 0.01144 0.0
O71 O 0.7126 0.72498 0.97825 0.0
H72 H 0.50243 0.84219 0.03271 0.0
H73 H 0.61094 0.72 0.05606 0.0
H74 H 0.60229 0.71771 0.10746 0.0
H75 H 0.49381 0.83993 0.08414 0.0
H76 H 0.04886 0.70908 0.97139 0.0
H77 H 0.85374 0.79661 0.92521 0.0
H78 H 0.86027 0.79631 0.8733 0.0
H79 H 0.05832 0.70974 0.92014 0.0
Gd80 Gd 0.33538 0.77812 0.49928 0.0
Gd81 Gd 0.17911 0.75243 0.49515 0.0
C82 C 0.17387 0.76036 0.4259 0.0
C83 C 0.45255 0.78388 0.48791 0.0
C84 C 0.46028 0.7827 0.45723 0.0
C85 C 0.45418 0.81951 0.43933 0.0
C86 C 0.47436 0.74486 0.44561 0.0
C87 C 0.47479 0.78064 0.39862 0.0
C88 C 0.48135 0.74384 0.41666 0.0
C89 C 0.46103 0.81847 0.41037 0.0
C90 C 0.24706 0.84154 0.50143 0.0
C91 C 0.3427 0.76908 0.56878 0.0
C92 C 0.06022 0.74836 0.50561 0.0
C93 C 0.05171 0.74758 0.53593 0.0
C94 C 0.10546 0.72521 0.56521 0.0
C95 C 0.99021 0.77043 0.53596 0.0
C96 C 0.03612 0.7486 0.59417 0.0
C97 C 0.98242 0.77094 0.56473 0.0
C98 C 0.09777 0.72572 0.594 0.0
C99 C 0.26713 0.68888 0.49294 0.0
O100 O 0.25275 0.76115 0.44453 0.0
O101 O 0.12835 0.76207 0.43958 0.0
O102 O 0.41632 0.81632 0.49129 0.0
O103 O 0.43303 0.74902 0.49679 0.0
O104 O 0.32474 0.84089 0.5187 0.0
O105 O 0.22009 0.80981 0.48258 0.0
O106 O 0.26373 0.76661 0.55057 0.0
O107 O 0.3876 0.7693 0.55482 0.0
O108 O 0.09248 0.71554 0.50035 0.0
O109 O 0.0859 0.7834 0.49991 0.0
O110 O 0.18939 0.68936 0.47599 0.0
O111 O 0.2941 0.72065 0.51173 0.0
H112 H 0.44381 0.84926 0.4476 0.0
H113 H 0.48021 0.71595 0.45894 0.0
H114 H 0.49316 0.71422 0.40872 0.0
H115 H 0.45462 0.84737 0.39697 0.0
H116 H 0.15384 0.70756 0.56596 0.0
H117 H 0.94816 0.78797 0.51369 0.0
H118 H 0.93369 0.78849 0.56375 0.0
H119 H 0.14096 0.70867 0.61633 0.0
Gd120 Gd 0.82959 0.27627 0.49609 0.0
Gd121 Gd 0.67833 0.25197 0.49632 0.0
C122 C 0.66658 0.25069 0.42569 0.0
C123 C 0.9434 0.28021 0.48247 0.0
C124 C 0.94793 0.27899 0.45102 0.0
C125 C 0.94879 0.31623 0.43497 0.0
C126 C 0.95213 0.24084 0.43683 0.0
C127 C 0.9572 0.27729 0.39112 0.0
C128 C 0.95659 0.24 0.40726 0.0
C129 C 0.95298 0.31539 0.40537 0.0
C130 C 0.73831 0.34082 0.4942 0.0
C131 C 0.84186 0.27813 0.56649 0.0
C132 C 0.56268 0.24664 0.50887 0.0
C133 C 0.55516 0.24932 0.53937 0.0
C134 C 0.50146 0.22297 0.54235 0.0
C135 C 0.60271 0.27679 0.56607 0.0
C136 C 0.54357 0.25106 0.59855 0.0
C137 C 0.59727 0.27755 0.59542 0.0
C138 C 0.49551 0.22388 0.57156 0.0
C139 C 0.77004 0.1877 0.49798 0.0
O140 O 0.74548 0.25257 0.44332 0.0
O141 O 0.62298 0.25583 0.44002 0.0
O142 O 0.91017 0.31318 0.48692 0.0
O143 O 0.92317 0.24568 0.49148 0.0
O144 O 0.81595 0.34148 0.51071 0.0
O145 O 0.71252 0.30702 0.47809 0.0
O146 O 0.76278 0.27692 0.5489 0.0
O147 O 0.88517 0.27187 0.5522 0.0
O148 O 0.60145 0.21425 0.50732 0.0
O149 O 0.58072 0.28105 0.49883 0.0
O150 O 0.6924 0.18706 0.48112 0.0
O151 O 0.79526 0.22134 0.51433 0.0
H152 H 0.94604 0.34618 0.44524 0.0
H153 H 0.95233 0.21151 0.44864 0.0
H154 H 0.96101 0.21008 0.3974 0.0
H155 H 0.95217 0.34473 0.39348 0.0
H156 H 0.46449 0.20137 0.52215 0.0
H157 H 0.64409 0.29764 0.56423 0.0
H158 H 0.63451 0.2992 0.61549 0.0
H159 H 0.45425 0.2027 0.57324 0.0
H160 H 0.78817 0.62015 0.03196 0.0
H161 H 0.70656 0.56121 0.03051 0.0
H162 H 0.49389 0.62396 0.95422 0.0
H163 H 0.57552 0.68341 0.95584 0.0
H164 H 0.47652 0.58905 0.00577 0.0
H165 H 0.60359 0.47308 0.95641 0.0
H166 H 0.67769 0.49923 0.99409 0.0
H167 H 0.61916 0.52846 0.95558 0.0
C168 C 0.72403 0.62135 0.01479 0.0
C169 C 0.68819 0.65626 0.99388 0.0
C170 C 0.67751 0.58753 0.01385 0.0
C171 C 0.59426 0.58776 0.99178 0.0
C172 C 0.5581 0.62296 0.97126 0.0
H173 H 0.21205 0.41263 0.95089 0.0
H174 H 0.29151 0.4719 0.95089 0.0
C175 C 0.60471 0.65689 0.97222 0.0
C176 C 0.54503 0.5516 0.99068 0.0
H177 H 0.52059 0.44653 0.97635 0.0
C178 C 0.48575 0.55794 -0.00089 0.0
C179 C 0.55724 0.51098 0.98205 0.0
C180 C 0.61733 0.50247 0.9712 0.0
C181 C 0.43958 0.52464 -0.00014 0.0
C182 C 0.45221 0.48399 0.99147 0.0
C183 C 0.51124 0.47767 0.98291 0.0
C184 C 0.40427 0.44768 0.99115 0.0
C185 C 0.37893 0.53308 0.01041 0.0
C186 C 0.44153 0.41382 0.01316 0.0
C187 C 0.3962 0.37982 0.01316 0.0
C188 C 0.31294 0.37897 0.99089 0.0
C189 C 0.27604 0.41255 0.96849 0.0
C190 C 0.32129 0.44653 0.96856 0.0
H191 H 0.39039 0.56324 0.02405 0.0
H192 H 0.31834 0.53451 0.98744 0.0
H193 H 0.37914 0.50777 0.02701 0.0
H194 H 0.50556 0.41397 0.03067 0.0
H195 H 0.42619 0.35443 0.03076 0.0
H196 H 0.21527 0.61943 0.45335 0.0
H197 H 0.29494 0.56009 0.45372 0.0
H198 H 0.50935 0.61981 0.53169 0.0
H199 H 0.42952 0.67885 0.532 0.0
H200 H 0.41816 0.55643 0.44062 0.0
H201 H 0.52344 0.50522 0.57259 0.0
H202 H 0.44333 0.54237 0.55059 0.0
H203 H 0.5458 0.55871 0.5692 0.0
C204 C 0.27938 0.61984 0.47066 0.0
C205 C 0.31617 0.65368 0.49275 0.0
C206 C 0.32486 0.58595 0.47079 0.0
C207 C 0.408 0.58511 0.49311 0.0
C208 C 0.4451 0.6193 0.51477 0.0
H209 H 0.78789 0.41242 0.53099 0.0
H210 H 0.70592 0.47109 0.52975 0.0
C211 C 0.39954 0.65319 0.51472 0.0
C212 C 0.45563 0.5486 0.49338 0.0
H213 H 0.58201 0.4718 0.54428 0.0
C214 C 0.45369 0.53779 0.46324 0.0
C215 C 0.50185 0.52421 0.52288 0.0
C216 C 0.50335 0.53288 0.55558 0.0
C217 C 0.49797 0.50387 0.46199 0.0
C218 C 0.54457 0.47968 0.49155 0.0
C219 C 0.54631 0.49038 0.52165 0.0
C220 C 0.59346 0.4437 0.49204 0.0
C221 C 0.49607 0.49483 0.42926 0.0
C222 C 0.55743 0.40849 0.47155 0.0
C223 C 0.60426 0.37485 0.47221 0.0
C224 C 0.68788 0.37583 0.49348 0.0
C225 C 0.72362 0.41086 0.51422 0.0
C226 C 0.67686 0.44438 0.5136 0.0
H227 H 0.47315 0.5218 0.41156 0.0
H228 H 0.55664 0.48668 0.43421 0.0
H229 H 0.45599 0.46787 0.41649 0.0
H230 H 0.49305 0.40693 0.45518 0.0
H231 H 0.57511 0.34821 0.456 0.0
H232 H 0.08122 0.18125 0.96102 0.0
H233 H 1.00077 0.12268 0.96176 0.0
H234 H 0.21421 0.06396 0.0413 0.0
H235 H 0.29449 0.12268 0.0411 0.0
H236 H 0.01336 0.03868 0.94944 0.0
H237 H 0.06461 0.06008 0.07928 0.0
H238 H 0.08705 0.10015 0.05767 0.0
H239 H 0.15482 0.05726 0.07762 0.0
C240 C 0.11075 0.15605 0.97891 0.0
C241 C 0.19401 0.15661 0.00115 0.0
C242 C 0.06483 0.12256 0.97923 0.0
C243 C 0.10128 0.08919 0.00192 0.0
C244 C 0.18451 0.08973 0.02407 0.0
H245 H 0.93094 0.85268 0.03622 0.0
H246 H 0.01276 0.91142 0.03671 0.0
C247 C 0.23039 0.12317 0.02377 0.0
C248 C 0.05281 0.05308 0.00157 0.0
H249 H 1.00124 0.99702 0.05108 0.0
C250 C 0.01033 0.02971 0.9716 0.0
C251 C 0.0492 0.04128 0.03055 0.0
C252 C 0.09072 0.06619 0.06303 0.0
C253 C 0.96535 0.99452 0.96997 0.0
C254 C 0.96175 0.98273 -0.00105 0.0
C255 C 1.00434 1.00602 0.02894 0.0
C256 C 0.91253 0.94691 -0.00164 0.0
C257 C 0.92326 0.96975 0.93744 0.0
C258 C 0.82909 0.94756 0.97688 0.0
C259 C 0.78243 0.91417 0.97659 0.0
C260 C 0.81828 0.87952 -0.00216 0.0
C261 C 0.90179 0.87891 0.01945 0.0
C262 C 0.9485 0.91244 0.01981 0.0
H263 H 0.94825 0.97627 0.92084 0.0
H264 H 0.92775 0.93575 0.94277 0.0
H265 H 0.85894 0.97832 0.92328 0.0
H266 H 0.79991 0.97412 0.96056 0.0
H267 H 0.71818 0.91554 0.95974 0.0
H268 H 0.93294 0.17998 0.53732 0.0
H269 H 0.01589 0.12186 0.53779 0.0
H270 H 0.80456 0.05923 0.46054 0.0
H271 H 0.72175 0.11718 0.45976 0.0
H272 H 1.00452 0.03584 0.55138 0.0
H273 H 0.95526 0.05874 0.42193 0.0
H274 H 0.93395 0.09876 0.44392 0.0
H275 H 0.86521 0.05633 0.42378 0.0
C276 C 0.90438 0.15391 0.52031 0.0
C277 C 0.82097 0.15314 0.4984 0.0
C278 C 0.95173 0.12073 0.52064 0.0
C279 C 0.91653 0.08645 0.49888 0.0
C280 C 0.83319 0.08566 0.47711 0.0
H281 H 0.08525 0.85262 0.46109 0.0
H282 H 0.00527 0.91156 0.46158 0.0
C283 C 0.7859 0.11869 0.47684 0.0
C284 C 0.96632 0.0509 0.49949 0.0
H285 H 0.01934 0.99585 0.45009 0.0
C286 C 0.00826 0.02723 0.52933 0.0
C287 C 0.97079 0.03961 0.47064 0.0
C288 C 0.92953 0.06485 0.43831 0.0
C289 C 0.05315 0.99203 0.53087 0.0
C290 C 0.05747 0.98065 0.50197 0.0
C291 C 0.01577 1.00446 0.47218 0.0
C292 C 0.10573 0.94448 0.50224 0.0
C293 C 0.09387 0.9667 0.56316 0.0
C294 C 0.18881 0.94352 0.52471 0.0
C295 C 0.23442 0.90987 0.52453 0.0
C296 C 0.19795 0.87661 0.50174 0.0
C297 C 0.11486 0.87766 0.47911 0.0
C298 C 0.06921 0.91136 0.4793 0.0
H299 H 0.06734 0.97259 0.57927 0.0
H300 H 0.08993 0.93281 0.55754 0.0
H301 H 0.15805 0.97543 0.57801 0.0
H302 H 0.21862 0.96907 0.54214 0.0
H303 H 0.29839 0.91003 0.54216 0.0
H304 H 0.73635 0.21946 0.39206 0.0
H305 H 0.68017 0.21583 0.33094 0.0
H306 H 0.45571 0.2637 0.31453 0.0
H307 H 0.51142 0.26702 0.37617 0.0
H308 H 0.44352 0.19616 0.27064 0.0
H309 H 0.64446 0.3229 0.27545 0.0
H310 H 0.69454 0.27947 0.30298 0.0
H311 H 0.62949 0.31177 0.31046 0.0
C312 C 0.67477 0.22899 0.37552 0.0
C313 C 0.62844 0.24413 0.38885 0.0
C314 C 0.64298 0.22696 0.34063 0.0
C315 C 0.56467 0.24042 0.31844 0.0
C316 C 0.51667 0.25353 0.33147 0.0
H317 H 0.26535 0.27489 0.10375 0.0
H318 H 0.32277 0.26719 0.16461 0.0
C319 C 0.54838 0.25534 0.36656 0.0
C320 C 0.53427 0.24217 0.2817 0.0
H321 H 0.56454 0.28967 0.22253 0.0
C322 C 0.4697 0.21661 0.26002 0.0
C323 C 0.56944 0.26866 0.2682 0.0
C324 C 0.6379 0.29754 0.2904 0.0
C325 C 0.43932 0.21665 0.22493 0.0
C326 C 0.47347 0.24374 0.21133 0.0
C327 C 0.53876 0.26889 0.23312 0.0
C328 C 0.43957 0.24823 0.17441 0.0
C329 C 0.37171 0.18729 0.20288 0.0
C330 C 0.48736 0.24184 0.15993 0.0
C331 C 0.45499 0.24688 0.125 0.0
C332 C 0.37442 0.25833 0.10419 0.0
C333 C 0.32739 0.26545 0.11899 0.0
C334 C 0.35987 0.26076 0.15378 0.0
H335 H 0.37042 0.16005 0.2176 0.0
H336 H 0.31393 0.20401 0.1927 0.0
H337 H 0.37662 0.17576 0.18116 0.0
H338 H 0.54942 0.23262 0.17562 0.0
H339 H 0.49255 0.24123 0.11427 0.0
H340 H 0.58556 0.8407 0.14678 0.0
H341 H 0.57534 0.83928 0.19787 0.0
H342 H 0.486 0.7132 0.17474 0.0
H343 H 0.49739 0.71423 0.12392 0.0
H344 H 0.4465 0.82971 0.20433 0.0
H345 H 0.65935 0.70096 0.27255 0.0
H346 H 0.65179 0.72567 0.23562 0.0
H347 H 0.58064 0.68639 0.23093 0.0
C348 C 0.56383 0.81265 0.15261 0.0
C349 C 0.54256 0.77751 0.13134 0.0
C350 C 0.55822 0.81183 0.18188 0.0
C351 C 0.53115 0.77591 0.19056 0.0
C352 C 0.5092 0.74089 0.16919 0.0
H353 H 0.41785 0.72164 0.348 0.0
H354 H 0.43136 0.72044 0.29768 0.0
C355 C 0.51547 0.74156 0.14005 0.0
C356 C 0.52328 0.77575 0.22126 0.0
H357 H 0.58022 0.72396 0.29553 0.0
C358 C 0.47614 0.8067 0.22434 0.0
C359 C 0.56191 0.74573 0.24745 0.0
C360 C 0.61689 0.71306 0.24672 0.0
C361 C 0.46576 0.80811 0.25253 0.0
C362 C 0.5039 0.77796 0.27851 0.0
C363 C 0.55077 0.74692 0.27547 0.0
C364 C 0.49667 0.77853 0.30927 0.0
C365 C 0.41306 0.84149 0.25412 0.0
C366 C 0.52986 0.81131 0.33271 0.0
C367 C 0.523 0.81192 0.36168 0.0
C368 C 0.48271 0.77971 0.36785 0.0
C369 C 0.45009 0.7467 0.34436 0.0
C370 C 0.45734 0.74606 0.31546 0.0
H371 H 0.37486 0.85669 0.22909 0.0
H372 H 0.374 0.82824 0.26296 0.0
H373 H 0.4512 0.86581 0.27253 0.0
H374 H 0.56167 0.83633 0.32872 0.0
H375 H 0.55026 0.8374 0.37947 0.0
H376 H 0.51818 0.75505 0.8759 0.0
H377 H 0.46409 0.75956 0.81441 0.0
H378 H 0.67079 0.83037 0.83218 0.0
H379 H 0.72454 0.82631 0.89327 0.0
H380 H 0.43453 0.83149 0.76983 0.0
H381 H 0.67144 0.72465 0.77972 0.0
H382 H 0.64932 0.72998 0.81334 0.0
H383 H 0.70553 0.76963 0.8069 0.0
C384 C 0.55122 0.77211 0.86657 0.0
C385 C 0.62628 0.78946 0.88916 0.0
C386 C 0.52056 0.77456 0.83161 0.0
C387 C 0.56466 0.79444 0.81909 0.0
C388 C 0.63705 0.81407 0.84155 0.0
H389 H 0.49257 0.79784 0.61465 0.0
H390 H 0.54901 0.80752 0.67586 0.0
C391 C 0.66769 0.81156 0.87636 0.0
C392 C 0.5369 0.79308 0.78264 0.0
H393 H 0.58057 0.7515 0.72549 0.0
C394 C 0.4663 0.8141 0.76003 0.0
C395 C 0.5795 0.77073 0.77028 0.0
C396 C 0.65539 0.74718 0.79371 0.0
C397 C 0.43659 0.81321 0.72503 0.0
C398 C 0.47765 0.78965 0.71251 0.0
C399 C 0.54932 0.76943 0.73525 0.0
C400 C 0.44474 0.7836 0.67583 0.0
C401 C 0.36195 0.83779 0.7019 0.0
C402 C 0.36876 0.76584 0.65599 0.0
C403 C 0.33645 0.76064 0.62128 0.0
C404 C 0.38014 0.77232 0.60584 0.0
C405 C 0.45764 0.78858 0.62593 0.0
C406 C 0.48972 0.79425 0.66077 0.0
H407 H 0.35397 0.86428 0.71552 0.0
H408 H 0.3635 0.8502 0.6796 0.0
H409 H 0.30898 0.81715 0.69263 0.0
H410 H 0.33426 0.75606 0.66735 0.0
H411 H 0.2771 0.74745 0.60656 0.0
H412 H 0.66557 0.25598 0.66505 0.0
H413 H 0.6553 0.2554 0.71619 0.0
H414 H 0.3984 0.24731 0.65405 0.0
H415 H 0.40816 0.24768 0.60292 0.0
H416 H 0.57986 0.30891 0.7375 0.0
H417 H 0.44755 0.1511 0.71906 0.0
H418 H 0.49135 0.16979 0.69498 0.0
H419 H 0.39134 0.18488 0.68333 0.0
C420 C 0.60682 0.25425 0.66225 0.0
C421 C 0.53769 0.25155 0.62981 0.0
C422 C 0.60108 0.25376 0.69154 0.0
C423 C 0.52617 0.25046 0.68906 0.0
C424 C 0.45702 0.24866 0.65672 0.0
H425 H 0.35502 0.25216 0.83125 0.0
H426 H 0.36941 0.25253 0.78119 0.0
C427 C 0.4627 0.24896 0.62745 0.0
C428 C 0.52011 0.24976 0.72022 0.0
H429 H 0.44746 0.19299 0.76194 0.0
C430 C 0.5514 0.28343 0.74295 0.0
C431 C 0.48302 0.21648 0.72742 0.0
C432 C 0.45209 0.17832 0.7051 0.0
C433 C 0.54492 0.28519 0.77216 0.0
C434 C 0.50701 0.25216 0.7791 0.0
C435 C 0.47614 0.21839 0.75651 0.0
C436 C 0.4988 0.252 0.80969 0.0
C437 C 0.57703 0.32289 0.79494 0.0
C438 C 0.56673 0.25102 0.8424 0.0
C439 C 0.55876 0.25047 0.87112 0.0
C440 C 0.48258 0.25074 0.86779 0.0
C441 C 0.41461 0.25142 0.83489 0.0
C442 C 0.42269 0.25187 0.80619 0.0
H443 H 0.58667 0.34964 0.782 0.0
H444 H 0.53558 0.33275 0.80362 0.0
H445 H 0.63536 0.31491 0.81769 0.0
H446 H 0.62605 0.25018 0.84574 0.0
H447 H 0.61242 0.24914 0.89595 0.0
H448 H 0.77026 0.73523 0.10265 0.0
H449 H 0.83077 0.73279 0.16397 0.0
H450 H 0.06167 0.76003 0.17642 0.0
H451 H 1.00112 0.76334 0.11457 0.0
H452 H 0.95568 0.68397 0.21371 0.0
H453 H 0.02631 0.85353 0.22932 0.0
H454 H 0.95993 0.8302 0.18852 0.0
H455 H 0.06636 0.82462 0.20773 0.0
C456 C 0.83403 0.7406 0.11829 0.0
C457 C 0.88085 0.75006 0.10375 0.0
C458 C 0.86845 0.73899 0.15336 0.0
C459 C 0.95021 0.74686 0.17456 0.0
C460 C 0.99804 0.75457 0.16029 0.0
H461 H 0.25112 0.76566 0.39053 0.0
H462 H 0.19402 0.76088 0.32951 0.0
C463 C 0.96354 0.75621 0.12504 0.0
C464 C 0.98401 0.74843 0.21155 0.0
H465 H 0.06799 0.81445 0.27935 0.0
C466 C 0.98033 0.71243 0.22814 0.0
C467 C 0.01511 0.78583 0.23001 0.0
C468 C 0.01671 0.8259 0.21304 0.0
C469 C 0.00831 0.71269 0.26304 0.0
C470 C 0.03973 0.75002 0.28145 0.0
C471 C 0.04346 0.78598 0.2649 0.0
C472 C 0.07265 0.75203 0.31832 0.0
C473 C 0.00549 0.67303 0.28014 0.0
C474 C 0.02271 0.74892 0.33205 0.0
C475 C 0.05508 0.75177 0.36714 0.0
C476 C 0.13775 0.7577 0.38878 0.0
C477 C 0.18718 0.7609 0.37468 0.0
C478 C 0.15482 0.75823 0.33979 0.0
H479 H 0.99177 0.64537 0.26346 0.0
H480 H 0.06346 0.66782 0.30396 0.0
H481 H 0.9584 0.67583 0.28691 0.0
H482 H 0.95882 0.74462 0.31561 0.0
H483 H 0.01561 0.74923 0.37727 0.0
H484 H 0.04207 0.33026 0.37398 0.0
H485 H 0.05127 0.32956 0.32279 0.0
H486 H 0.90017 0.22065 0.28716 0.0
H487 H 0.88714 0.22239 0.33748 0.0
H488 H 0.11198 0.27194 0.29996 0.0
H489 H 0.79064 0.29384 0.20445 0.0
H490 H 0.83009 0.30109 0.24929 0.0
H491 H 0.80916 0.24948 0.23136 0.0
C492 C 0.00947 0.30657 0.35501 0.0
C493 C 0.96333 0.27656 0.35989 0.0
C494 C 0.01542 0.30601 0.32583 0.0
C495 C 0.97545 0.27546 0.30076 0.0
C496 C 0.93015 0.24512 0.3057 0.0
H497 H 0.99246 0.21335 0.11871 0.0
H498 H 0.97882 0.21123 0.16914 0.0
C499 C 0.92372 0.24581 0.33481 0.0
C500 C 0.9833 0.27485 0.27004 0.0
H501 H 0.87634 0.27713 0.18319 0.0
C502 C 0.06038 0.27322 0.27447 0.0
C503 C 0.91601 0.27662 0.23666 0.0
C504 C 0.83187 0.28077 0.23007 0.0
C505 C 0.07188 0.27297 0.24655 0.0
C506 C 1.0047 0.27437 0.21334 0.0
C507 C 0.92766 0.27578 0.20876 0.0
C508 C 0.01362 0.27551 0.18306 0.0
C509 C 0.1557 0.27101 0.25257 0.0
C510 C 0.03748 0.3124 0.17423 0.0
C511 C 0.04491 0.31378 0.14541 0.0
C512 C 0.02912 0.27818 0.12498 0.0
C513 C 0.00575 0.24116 0.13409 0.0
C514 C 0.99754 0.23995 0.16275 0.0
H515 H 0.20091 0.26476 0.2796 0.0
H516 H 0.15991 0.24629 0.23657 0.0
H517 H 0.17043 0.30117 0.24514 0.0
H518 H 0.05001 0.34018 0.18958 0.0
H519 H 0.06375 0.34263 0.13928 0.0
H520 H 0.7787 0.31775 0.59968 0.0
H521 H 0.83496 0.32257 0.66082 0.0
H522 H 0.04939 0.26084 0.67756 0.0
H523 H 0.99289 0.25563 0.61602 0.0
H524 H 0.87799 0.25163 0.70263 0.0
H525 H 0.13301 0.36092 0.74355 0.0
H526 H 0.05225 0.35703 0.69999 0.0
H527 H 0.13017 0.31845 0.71738 0.0
C528 C 0.83793 0.30531 0.61634 0.0
C529 C 0.88098 0.28566 0.6032 0.0
C530 C 0.87013 0.30839 0.65121 0.0
C531 C 0.94619 0.29219 0.67353 0.0
C532 C 0.99093 0.27405 0.66059 0.0
H533 H 0.23308 0.24897 0.88661 0.0
H534 H 0.17414 0.2548 0.82551 0.0
C535 C 0.95864 0.27101 0.62554 0.0
C536 C 0.97541 0.29113 0.71016 0.0
H537 H 0.12553 0.32461 0.78707 0.0
C538 C 0.93183 0.26777 0.72118 0.0
C539 C 0.04543 0.31231 0.73399 0.0
C540 C 0.09271 0.33891 0.72322 0.0
C541 C 0.95796 0.26387 0.75575 0.0
C542 C 0.0286 0.2847 0.7797 0.0
C543 C 0.07135 0.3087 0.76856 0.0
C544 C 0.06188 0.28032 0.81656 0.0
C545 C 0.91129 0.23635 0.76629 0.0
C546 C 0.01805 0.29263 0.83176 0.0
C547 C 0.05137 0.28881 0.86684 0.0
C548 C 0.12945 0.27336 0.88712 0.0
C549 C 0.17294 0.26115 0.87171 0.0
C550 C 0.1394 0.2645 0.83678 0.0
H551 H 0.87102 0.21465 0.74567 0.0
H552 H 0.95204 0.21775 0.78915 0.0
H553 H 0.87365 0.25616 0.77248 0.0
H554 H 0.95869 0.30575 0.81661 0.0
H555 H 0.01688 0.29885 0.87812 0.0
H556 H 0.99826 0.81491 0.62134 0.0
H557 H 0.98452 0.81555 0.67157 0.0
H558 H 0.04106 0.68445 0.68675 0.0
H559 H 0.05459 0.68346 0.63651 0.0
H560 H 0.88181 0.77061 0.68523 0.0
H561 H 0.19797 0.73317 0.77964 0.0
H562 H 0.16627 0.74925 0.73682 0.0
H563 H 0.15113 0.69637 0.74543 0.0
C564 C 0.00739 0.78613 0.63523 0.0
C565 C 0.02791 0.74916 0.62487 0.0
C566 C 0.99983 0.7866 0.66406 0.0
C567 C 0.01298 0.75022 0.6833 0.0
C568 C 0.03252 0.71317 0.67283 0.0
H569 H 0.98936 0.68638 0.86254 0.0
H570 H 1.00002 0.68629 0.8116 0.0
C571 C 0.04023 0.71266 0.64405 0.0
C572 C 1.00481 0.75088 0.71392 0.0
H573 H 0.10627 0.73215 0.79938 0.0
C574 C 0.93101 0.76242 0.71023 0.0
C575 C 0.06899 0.74017 0.74656 0.0
C576 C 0.1508 0.72941 0.75253 0.0
C577 C 0.9192 0.76272 0.7381 0.0
C578 C 0.9833 0.75183 0.77068 0.0
C579 C 0.05711 0.74038 0.77439 0.0
C580 C 0.97521 0.7521 0.80131 0.0
C581 C 0.83766 0.77376 0.73229 0.0
C582 C 0.95837 0.78923 0.8127 0.0
C583 C 0.95283 0.78949 0.84203 0.0
C584 C 0.96441 0.75263 0.86075 0.0
C585 C 0.98124 0.71549 0.84916 0.0
C586 C 0.9869 0.7153 0.81989 0.0
H587 H 0.79045 0.77105 0.7051 0.0
H588 H 0.82155 0.75335 0.7475 0.0
H589 H 0.83839 0.80649 0.74029 0.0
H590 H 0.95077 0.8182 0.79921 0.0
H591 H 0.94114 0.8188 0.85041 0.0
loop_
_geom_bond_atom_site_label_1
_geom_bond_atom_site_label_2
_geom_bond_distance
_geom_bond_site_symmetry_2
_ccdc_geom_bond_type
Gd0 C3 2.818 . S
Gd0 O20 2.377 . S
Gd0 O22 2.448 . S
Gd0 O23 2.506 . S
Gd0 O24 2.435 . S
Gd0 O25 2.717 1_554 S
Gd0 O27 2.395 1_554 S
Gd0 O31 2.327 . S
Gd1 C12 2.810 1_554 S
Gd1 O21 2.404 . S
Gd1 O25 2.329 1_554 S
Gd1 O26 2.372 1_554 S
Gd1 O28 2.441 1_554 S
Gd1 O29 2.498 1_554 S
Gd1 O30 2.437 1_554 S
Gd1 O31 2.722 . S
C2 O20 1.240 . S
C2 O21 1.240 . S
C3 Gd0 2.818 . S
C3 C4 1.510 . S
C3 O22 1.249 . S
C3 O23 1.252 . S
C4 C3 1.510 . S
C4 C5 1.404 . S
C4 C6 1.352 . S
C5 C4 1.404 . S
C5 C9 1.389 . S
C5 H32 0.930 . S
C6 C4 1.352 . S
C6 C8 1.374 . S
C6 H33 0.931 . S
C7 C8 1.359 . S
C7 C9 1.364 . S
C8 C6 1.374 . S
C8 C7 1.359 . S
C8 H34 0.931 . S
C9 C5 1.389 . S
C9 C7 1.364 . S
C9 H35 0.931 . S
C10 O24 1.256 . S
C10 O25 1.257 1_554 S
C11 O26 1.240 . S
C11 O27 1.240 . S
C12 Gd1 2.810 1_556 S
C12 C13 1.510 . S
C12 O28 1.249 . S
C12 O29 1.252 . S
C13 C12 1.510 . S
C13 C14 1.404 . S
C13 C15 1.352 . S
C14 C13 1.404 . S
C14 C18 1.389 . S
C14 H36 0.930 . S
C15 C13 1.352 . S
C15 C17 1.374 . S
C15 H37 0.931 . S
C16 C17 1.359 . S
C16 C18 1.364 . S
C17 C15 1.374 . S
C17 C16 1.359 . S
C17 H38 0.931 . S
C18 C14 1.389 . S
C18 C16 1.364 . S
C18 H39 0.931 . S
C19 O30 1.256 . S
C19 O31 1.257 1_556 S
O20 Gd0 2.377 . S
O20 C2 1.240 . S
O21 Gd1 2.404 . S
O21 C2 1.240 . S
O22 Gd0 2.448 . S
O22 C3 1.249 . S
O23 Gd0 2.506 . S
O23 C3 1.252 . S
O24 Gd0 2.435 . S
O24 C10 1.256 . S
O25 Gd0 2.717 1_556 S
O25 Gd1 2.329 1_556 S
O25 C10 1.257 1_556 S
O26 Gd1 2.372 1_556 S
O26 C11 1.240 . S
O27 Gd0 2.395 1_556 S
O27 C11 1.240 . S
O28 Gd1 2.441 1_556 S
O28 C12 1.249 . S
O29 Gd1 2.498 1_556 S
O29 C12 1.252 . S
O30 Gd1 2.437 1_556 S
O30 C19 1.256 . S
O31 Gd0 2.327 . S
O31 Gd1 2.722 . S
O31 C19 1.257 1_554 S
H32 C5 0.930 . S
H33 C6 0.931 . S
H34 C8 0.931 . S
H35 C9 0.931 . S
H36 C14 0.930 . S
H37 C15 0.931 . S
H38 C17 0.931 . S
H39 C18 0.931 . S
Gd40 C43 2.818 . S
Gd40 O60 2.377 . S
Gd40 O62 2.448 . S
Gd40 O63 2.506 . S
Gd40 O64 2.435 . S
Gd40 O65 2.717 1_554 S
Gd40 O67 2.395 1_554 S
Gd40 O71 2.327 . S
Gd41 C52 2.810 1_554 S
Gd41 O61 2.404 . S
Gd41 O65 2.329 1_554 S
Gd41 O66 2.372 1_554 S
Gd41 O68 2.441 1_554 S
Gd41 O69 2.498 1_554 S
Gd41 O70 2.437 1_554 S
Gd41 O71 2.722 . S
C42 O60 1.240 . S
C42 O61 1.240 . S
C43 Gd40 2.818 . S
C43 C44 1.510 . S
C43 O62 1.249 . S
C43 O63 1.252 . S
C44 C43 1.510 . S
C44 C45 1.404 . S
C44 C46 1.352 . S
C45 C44 1.404 . S
C45 C49 1.389 . S
C45 H72 0.930 . S
C46 C44 1.352 . S
C46 C48 1.374 . S
C46 H73 0.931 . S
C47 C48 1.359 . S
C47 C49 1.364 . S
C48 C46 1.374 . S
C48 C47 1.359 . S
C48 H74 0.931 . S
C49 C45 1.389 . S
C49 C47 1.364 . S
C49 H75 0.931 . S
C50 O64 1.256 . S
C50 O65 1.257 1_554 S
C51 O66 1.240 . S
C51 O67 1.240 . S
C52 Gd41 2.810 1_556 S
C52 C53 1.510 . S
C52 O68 1.249 . S
C52 O69 1.252 . S
C53 C52 1.510 . S
C53 C54 1.404 . S
C53 C55 1.352 . S
C54 C53 1.404 . S
C54 C58 1.389 . S
C54 H76 0.930 . S
C55 C53 1.352 . S
C55 C57 1.374 . S
C55 H77 0.931 . S
C56 C57 1.359 . S
C56 C58 1.364 . S
C57 C55 1.374 . S
C57 C56 1.359 . S
C57 H78 0.931 . S
C58 C54 1.389 . S
C58 C56 1.364 . S
C58 H79 0.931 . S
C59 O70 1.256 . S
C59 O71 1.257 1_556 S
O60 Gd40 2.377 . S
O60 C42 1.240 . S
O61 Gd41 2.404 . S
O61 C42 1.240 . S
O62 Gd40 2.448 . S
O62 C43 1.249 . S
O63 Gd40 2.506 . S
O63 C43 1.252 . S
O64 Gd40 2.435 . S
O64 C50 1.256 . S
O65 Gd40 2.717 1_556 S
O65 Gd41 2.329 1_556 S
O65 C50 1.257 1_556 S
O66 Gd41 2.372 1_556 S
O66 C51 1.240 . S
O67 Gd40 2.395 1_556 S
O67 C51 1.240 . S
O68 Gd41 2.441 1_556 S
O68 C52 1.249 . S
O69 Gd41 2.498 1_556 S
O69 C52 1.252 . S
O70 Gd41 2.437 1_556 S
O70 C59 1.256 . S
O71 Gd40 2.327 . S
O71 Gd41 2.722 . S
O71 C59 1.257 1_554 S
H72 C45 0.930 . S
H73 C46 0.931 . S
H74 C48 0.931 . S
H75 C49 0.931 . S
H76 C54 0.930 . S
H77 C55 0.931 . S
H78 C57 0.931 . S
H79 C58 0.931 . S
Gd80 C83 2.818 . S
Gd80 O100 2.377 . S
Gd80 O102 2.448 . S
Gd80 O103 2.506 . S
Gd80 O104 2.435 . S
Gd80 O105 2.717 . S
Gd80 O107 2.395 . S
Gd80 O111 2.327 . S
Gd81 C92 2.818 . S
Gd81 O101 2.395 . S
Gd81 O105 2.327 . S
Gd81 O106 2.377 . S
Gd81 O108 2.448 . S
Gd81 O109 2.506 . S
Gd81 O110 2.435 . S
Gd81 O111 2.717 . S
C82 O100 1.240 . S
C82 O101 1.240 . S
C83 Gd80 2.818 . S
C83 C84 1.510 . S
C83 O102 1.249 . S
C83 O103 1.252 . S
C84 C83 1.510 . S
C84 C85 1.404 . S
C84 C86 1.352 . S
C85 C84 1.404 . S
C85 C89 1.389 . S
C85 H112 0.930 . S
C86 C84 1.352 . S
C86 C88 1.374 . S
C86 H113 0.931 . S
C87 C88 1.359 . S
C87 C89 1.364 . S
C88 C86 1.374 . S
C88 C87 1.359 . S
C88 H114 0.931 . S
C89 C85 1.389 . S
C89 C87 1.364 . S
C89 H115 0.931 . S
C90 O104 1.256 . S
C90 O105 1.257 . S
C91 O106 1.240 . S
C91 O107 1.240 . S
C92 Gd81 2.818 . S
C92 C93 1.510 . S
C92 O108 1.249 . S
C92 O109 1.252 . S
C93 C92 1.510 . S
C93 C94 1.404 . S
C93 C95 1.352 . S
C94 C93 1.404 . S
C94 C98 1.389 . S
C94 H116 0.930 . S
C95 C93 1.352 . S
C95 C97 1.374 . S
C95 H117 0.931 . S
C96 C97 1.359 . S
C96 C98 1.364 . S
C97 C95 1.374 . S
C97 C96 1.359 . S
C97 H118 0.931 . S
C98 C94 1.389 . S
C98 C96 1.364 . S
C98 H119 0.931 . S
C99 O110 1.256 . S
C99 O111 1.257 . S
O100 Gd80 2.377 . S
O100 C82 1.240 . S
O101 Gd81 2.395 . S
O101 C82 1.240 . S
O102 Gd80 2.448 . S
O102 C83 1.249 . S
O103 Gd80 2.506 . S
O103 C83 1.252 . S
O104 Gd80 2.435 . S
O104 C90 1.256 . S
O105 Gd80 2.717 . S
O105 Gd81 2.327 . S
O105 C90 1.257 . S
O106 Gd81 2.377 . S
O106 C91 1.240 . S
O107 Gd80 2.395 . S
O107 C91 1.240 . S
O108 Gd81 2.448 . S
O108 C92 1.249 . S
O109 Gd81 2.506 . S
O109 C92 1.252 . S
O110 Gd81 2.435 . S
O110 C99 1.256 . S
O111 Gd80 2.327 . S
O111 Gd81 2.717 . S
O111 C99 1.257 . S
H112 C85 0.930 . S
H113 C86 0.931 . S
H114 C88 0.931 . S
H115 C89 0.931 . S
H116 C94 0.930 . S
H117 C95 0.931 . S
H118 C97 0.931 . S
H119 C98 0.931 . S
Gd120 C123 2.818 . S
Gd120 O140 2.377 . S
Gd120 O142 2.448 . S
Gd120 O143 2.506 . S
Gd120 O144 2.435 . S
Gd120 O145 2.717 . S
Gd120 O147 2.395 . S
Gd120 O151 2.327 . S
Gd121 C132 2.818 . S
Gd121 O141 2.395 . S
Gd121 O145 2.327 . S
Gd121 O146 2.377 . S
Gd121 O148 2.448 . S
Gd121 O149 2.506 . S
Gd121 O150 2.435 . S
Gd121 O151 2.717 . S
C122 O140 1.240 . S
C122 O141 1.240 . S
C123 Gd120 2.818 . S
C123 C124 1.510 . S
C123 O142 1.249 . S
C123 O143 1.252 . S
C124 C123 1.510 . S
C124 C125 1.404 . S
C124 C126 1.352 . S
C125 C124 1.404 . S
C125 C129 1.389 . S
C125 H152 0.930 . S
C126 C124 1.352 . S
C126 C128 1.374 . S
C126 H153 0.931 . S
C127 C128 1.359 . S
C127 C129 1.364 . S
C128 C126 1.374 . S
C128 C127 1.359 . S
C128 H154 0.931 . S
C129 C125 1.389 . S
C129 C127 1.364 . S
C129 H155 0.931 . S
C130 O144 1.256 . S
C130 O145 1.257 . S
C131 O146 1.240 . S
C131 O147 1.240 . S
C132 Gd121 2.818 . S
C132 C133 1.510 . S
C132 O148 1.249 . S
C132 O149 1.252 . S
C133 C132 1.510 . S
C133 C134 1.404 . S
C133 C135 1.352 . S
C134 C133 1.404 . S
C134 C138 1.389 . S
C134 H156 0.930 . S
C135 C133 1.352 . S
C135 C137 1.374 . S
C135 H157 0.931 . S
C136 C137 1.359 . S
C136 C138 1.364 . S
C137 C135 1.374 . S
C137 C136 1.359 . S
C137 H158 0.931 . S
C138 C134 1.389 . S
C138 C136 1.364 . S
C138 H159 0.931 . S
C139 O150 1.256 . S
C139 O151 1.257 . S
O140 Gd120 2.377 . S
O140 C122 1.240 . S
O141 Gd121 2.395 . S
O141 C122 1.240 . S
O142 Gd120 2.448 . S
O142 C123 1.249 . S
O143 Gd120 2.506 . S
O143 C123 1.252 . S
O144 Gd120 2.435 . S
O144 C130 1.256 . S
O145 Gd120 2.717 . S
O145 Gd121 2.327 . S
O145 C130 1.257 . S
O146 Gd121 2.377 . S
O146 C131 1.240 . S
O147 Gd120 2.395 . S
O147 C131 1.240 . S
O148 Gd121 2.448 . S
O148 C132 1.249 . S
O149 Gd121 2.506 . S
O149 C132 1.252 . S
O150 Gd121 2.435 . S
O150 C139 1.256 . S
O151 Gd120 2.327 . S
O151 Gd121 2.717 . S
O151 C139 1.257 . S
H152 C125 0.930 . S
H153 C126 0.931 . S
H154 C128 0.931 . S
H155 C129 0.931 . S
H156 C134 0.930 . S
H157 C135 0.931 . S
H158 C137 0.931 . S
H159 C138 0.931 . S
H160 C168 0.929 . S
H161 C170 0.930 . S
H162 C172 0.930 . S
H163 C175 0.929 . S
H164 C178 0.930 . S
H165 C180 0.960 . S
H166 C180 0.960 1_554 S
H167 C180 0.960 . S
C168 H160 0.929 . S
C168 C169 1.375 1_554 S
C168 C170 1.384 . S
C169 C168 1.375 1_556 S
C169 C175 1.391 . S
C170 H161 0.930 . S
C170 C168 1.384 . S
C170 C171 1.372 . S
C171 C170 1.372 . S
C171 C172 1.400 1_554 S
C171 C176 1.490 . S
C172 H162 0.930 . S
C172 C171 1.400 1_556 S
C172 C175 1.386 . S
H173 C189 0.930 . S
H174 C190 0.931 . S
C175 H163 0.929 . S
C175 C169 1.391 . S
C175 C172 1.386 . S
C176 C171 1.490 . S
C176 C178 1.395 . S
C176 C179 1.403 1_554 S
H177 C183 0.930 . S
C178 H164 0.930 . S
C178 C176 1.395 . S
C178 C181 1.403 . S
C179 C176 1.403 1_556 S
C179 C180 1.524 . S
C179 C183 1.400 . S
C180 H165 0.960 . S
C180 H166 0.960 1_556 S
C180 H167 0.960 . S
C180 C179 1.524 . S
C181 C178 1.403 . S
C181 C182 1.392 . S
C181 C185 1.495 . S
C182 C181 1.392 . S
C182 C183 1.385 1_554 S
C182 C184 1.478 . S
C183 H177 0.930 . S
C183 C179 1.400 . S
C183 C182 1.385 1_556 S
C184 C182 1.478 . S
C184 C186 1.381 . S
C184 C190 1.383 1_554 S
C185 C181 1.495 . S
C185 H191 0.959 . S
C185 H192 0.961 . S
C185 H193 0.960 . S
C186 C184 1.381 . S
C186 C187 1.394 . S
C186 H194 0.930 . S
C187 C186 1.394 . S
C187 C188 1.383 . S
C187 H195 0.929 . S
C188 C187 1.383 . S
C188 C189 1.377 1_554 S
C189 H173 0.930 . S
C189 C188 1.377 1_556 S
C189 C190 1.379 . S
C190 H174 0.931 . S
C190 C184 1.383 1_556 S
C190 C189 1.379 . S
H191 C185 0.959 . S
H192 C185 0.961 . S
H193 C185 0.960 . S
H194 C186 0.930 . S
H195 C187 0.929 . S
H196 C204 0.929 . S
H197 C206 0.930 . S
H198 C208 0.930 . S
H199 C211 0.929 . S
H200 C214 0.930 . S
H201 C216 0.960 . S
H202 C216 0.960 . S
H203 C216 0.960 . S
C204 H196 0.929 . S
C204 C205 1.377 . S
C204 C206 1.384 . S
C205 C204 1.377 . S
C205 C211 1.390 . S
C206 H197 0.930 . S
C206 C204 1.384 . S
C206 C207 1.372 . S
C207 C206 1.372 . S
C207 C208 1.400 . S
C207 C212 1.490 . S
C208 H198 0.930 . S
C208 C207 1.400 . S
C208 C211 1.386 . S
H209 C225 0.930 . S
H210 C226 0.931 . S
C211 H199 0.929 . S
C211 C205 1.390 . S
C211 C208 1.386 . S
C212 C207 1.490 . S
C212 C214 1.395 . S
C212 C215 1.403 . S
H213 C219 0.930 . S
C214 H200 0.930 . S
C214 C212 1.395 . S
C214 C217 1.403 . S
C215 C212 1.403 . S
C215 C216 1.524 . S
C215 C219 1.400 . S
C216 H201 0.960 . S
C216 H202 0.960 . S
C216 H203 0.960 . S
C216 C215 1.524 . S
C217 C214 1.403 . S
C217 C218 1.392 . S
C217 C221 1.495 . S
C218 C217 1.392 . S
C218 C219 1.385 . S
C218 C220 1.478 . S
C219 H213 0.930 . S
C219 C215 1.400 . S
C219 C218 1.385 . S
C220 C218 1.478 . S
C220 C222 1.381 . S
C220 C226 1.383 . S
C221 C217 1.495 . S
C221 H227 0.959 . S
C221 H228 0.961 . S
C221 H229 0.960 . S
C222 C220 1.381 . S
C222 C223 1.394 . S
C222 H230 0.930 . S
C223 C222 1.394 . S
C223 C224 1.383 . S
C223 H231 0.929 . S
C224 C223 1.383 . S
C224 C225 1.377 . S
C225 H209 0.930 . S
C225 C224 1.377 . S
C225 C226 1.379 . S
C226 H210 0.931 . S
C226 C220 1.383 . S
C226 C225 1.379 . S
H227 C221 0.959 . S
H228 C221 0.961 . S
H229 C221 0.960 . S
H230 C222 0.930 . S
H231 C223 0.929 . S
H232 C240 0.929 . S
H233 C242 0.930 1_655 S
H234 C244 0.930 . S
H235 C247 0.929 . S
H236 C250 0.930 . S
H237 C252 0.960 1_655 S
H238 C252 0.960 1_655 S
H239 C252 0.960 . S
C240 H232 0.929 . S
C240 C241 1.390 . S
C240 C242 1.384 . S
C241 C240 1.390 . S
C241 C247 1.368 1_556 S
C242 H233 0.930 1_455 S
C242 C240 1.384 . S
C242 C243 1.372 . S
C243 C242 1.372 . S
C243 C244 1.400 1_556 S
C243 C248 1.490 . S
C244 H234 0.930 . S
C244 C243 1.400 1_554 S
C244 C247 1.386 . S
H245 C261 0.930 . S
H246 C262 0.931 1_455 S
C247 H235 0.929 . S
C247 C241 1.368 1_554 S
C247 C244 1.386 . S
C248 C243 1.490 . S
C248 C250 1.395 . S
C248 C251 1.403 1_556 S
H249 C255 0.930 . S
C250 H236 0.930 . S
C250 C248 1.395 . S
C250 C253 1.403 1_445 S
C251 C248 1.403 1_554 S
C251 C252 1.524 . S
C251 C255 1.400 1_445 S
C252 H237 0.960 1_455 S
C252 H238 0.960 1_455 S
C252 H239 0.960 . S
C252 C251 1.524 . S
C253 C250 1.403 1_665 S
C253 C254 1.392 . S
C253 C257 1.495 . S
C254 C253 1.392 . S
C254 C255 1.385 1_556 S
C254 C256 1.478 . S
C255 H249 0.930 . S
C255 C251 1.400 1_665 S
C255 C254 1.385 1_554 S
C256 C254 1.478 . S
C256 C258 1.381 . S
C256 C262 1.383 1_556 S
C257 C253 1.495 . S
C257 H263 0.959 . S
C257 H264 0.961 1_655 S
C257 H265 0.960 . S
C258 C256 1.381 . S
C258 C259 1.394 . S
C258 H266 0.930 . S
C259 C258 1.394 . S
C259 C260 1.383 1_556 S
C259 H267 0.929 . S
C260 C259 1.383 1_554 S
C260 C261 1.377 . S
C261 H245 0.930 . S
C261 C260 1.377 . S
C261 C262 1.379 . S
C262 H246 0.931 1_655 S
C262 C256 1.383 1_554 S
C262 C261 1.379 . S
H263 C257 0.959 . S
H264 C257 0.961 1_455 S
H265 C257 0.960 . S
H266 C258 0.930 . S
H267 C259 0.929 . S
H268 C276 0.929 . S
H269 C278 0.930 . S
H270 C280 0.930 . S
H271 C283 0.929 . S
H272 C286 0.930 . S
H273 C288 0.960 1_565 S
H274 C288 0.960 . S
H275 C288 0.960 . S
C276 H268 0.929 . S
C276 C277 1.377 . S
C276 C278 1.384 . S
C277 C276 1.377 . S
C277 C283 1.390 . S
C278 H269 0.930 . S
C278 C276 1.384 . S
C278 C279 1.372 . S
C279 C278 1.372 . S
C279 C280 1.400 . S
C279 C284 1.490 . S
C280 H270 0.930 . S
C280 C279 1.400 . S
C280 C283 1.386 . S
H281 C297 0.930 . S
H282 C298 0.931 . S
C283 H271 0.929 . S
C283 C277 1.390 . S
C283 C280 1.386 . S
C284 C279 1.490 . S
C284 C286 1.395 1_655 S
C284 C287 1.403 . S
H285 C291 0.930 . S
C286 H272 0.930 . S
C286 C284 1.395 1_455 S
C286 C289 1.381 1_545 S
C287 C284 1.403 . S
C287 C288 1.524 . S
C287 C291 1.400 1_545 S
C288 H273 0.960 1_545 S
C288 H274 0.960 . S
C288 H275 0.960 . S
C288 C287 1.524 . S
C289 C286 1.381 1_565 S
C289 C290 1.413 . S
C289 C293 1.497 . S
C290 C289 1.413 . S
C290 C291 1.385 1_455 S
C290 C292 1.478 . S
C291 H285 0.930 . S
C291 C287 1.400 1_565 S
C291 C290 1.385 1_655 S
C292 C290 1.478 . S
C292 C294 1.381 . S
C292 C298 1.383 . S
C293 C289 1.497 . S
C293 H299 0.959 1_565 S
C293 H300 0.961 . S
C293 H301 0.960 . S
C294 C292 1.381 . S
C294 C295 1.394 . S
C294 H302 0.930 . S
C295 C294 1.394 . S
C295 C296 1.383 . S
C295 H303 0.929 . S
C296 C295 1.383 . S
C296 C297 1.377 . S
C297 H281 0.930 . S
C297 C296 1.377 . S
C297 C298 1.379 . S
C298 H282 0.931 . S
C298 C292 1.383 . S
C298 C297 1.379 . S
H299 C293 0.959 1_545 S
H300 C293 0.961 . S
H301 C293 0.960 . S
H302 C294 0.930 . S
H303 C295 0.929 . S
H304 C312 0.929 . S
H305 C314 0.930 . S
H306 C316 0.930 . S
H307 C319 0.929 . S
H308 C322 0.930 . S
H309 C324 0.960 . S
H310 C324 0.960 . S
H311 C324 0.960 . S
C312 H304 0.929 . S
C312 C313 1.377 . S
C312 C314 1.384 . S
C313 C312 1.377 . S
C313 C319 1.390 . S
C314 H305 0.930 . S
C314 C312 1.384 . S
C314 C315 1.372 . S
C315 C314 1.372 . S
C315 C316 1.400 . S
C315 C320 1.490 . S
C316 H306 0.930 . S
C316 C315 1.400 . S
C316 C319 1.386 . S
H317 C333 0.930 . S
H318 C334 0.931 . S
C319 H307 0.929 . S
C319 C313 1.390 . S
C319 C316 1.386 . S
C320 C315 1.490 . S
C320 C322 1.395 . S
C320 C323 1.403 . S
H321 C327 0.930 . S
C322 H308 0.930 . S
C322 C320 1.395 . S
C322 C325 1.403 . S
C323 C320 1.403 . S
C323 C324 1.524 . S
C323 C327 1.400 . S
C324 H309 0.960 . S
C324 H310 0.960 . S
C324 H311 0.960 . S
C324 C323 1.524 . S
C325 C322 1.403 . S
C325 C326 1.392 . S
C325 C329 1.495 . S
C326 C325 1.392 . S
C326 C327 1.385 . S
C326 C328 1.478 . S
C327 H321 0.930 . S
C327 C323 1.400 . S
C327 C326 1.385 . S
C328 C326 1.478 . S
C328 C330 1.381 . S
C328 C334 1.383 . S
C329 C325 1.495 . S
C329 H335 0.959 . S
C329 H336 0.961 . S
C329 H337 0.960 . S
C330 C328 1.381 . S
C330 C331 1.394 . S
C330 H338 0.930 . S
C331 C330 1.394 . S
C331 C332 1.383 . S
C331 H339 0.929 . S
C332 C331 1.383 . S
C332 C333 1.377 . S
C333 H317 0.930 . S
C333 C332 1.377 . S
C333 C334 1.379 . S
C334 H318 0.931 . S
C334 C328 1.383 . S
C334 C333 1.379 . S
H335 C329 0.959 . S
H336 C329 0.961 . S
H337 C329 0.960 . S
H338 C330 0.930 . S
H339 C331 0.929 . S
H340 C348 0.929 . S
H341 C350 0.930 . S
H342 C352 0.930 . S
H343 C355 0.929 . S
H344 C358 0.930 . S
H345 C360 0.960 . S
H346 C360 0.960 . S
H347 C360 0.960 . S
C348 H340 0.929 . S
C348 C349 1.377 . S
C348 C350 1.384 . S
C349 C348 1.377 . S
C349 C355 1.390 . S
C350 H341 0.930 . S
C350 C348 1.384 . S
C350 C351 1.372 . S
C351 C350 1.372 . S
C351 C352 1.400 . S
C351 C356 1.490 . S
C352 H342 0.930 . S
C352 C351 1.400 . S
C352 C355 1.386 . S
H353 C369 0.930 . S
H354 C370 0.931 . S
C355 H343 0.929 . S
C355 C349 1.390 . S
C355 C352 1.386 . S
C356 C351 1.490 . S
C356 C358 1.395 . S
C356 C359 1.403 . S
H357 C363 0.930 . S
C358 H344 0.930 . S
C358 C356 1.395 . S
C358 C361 1.403 . S
C359 C356 1.403 . S
C359 C360 1.524 . S
C359 C363 1.400 . S
C360 H345 0.960 . S
C360 H346 0.960 . S
C360 H347 0.960 . S
C360 C359 1.524 . S
C361 C358 1.403 . S
C361 C362 1.392 . S
C361 C365 1.495 . S
C362 C361 1.392 . S
C362 C363 1.385 . S
C362 C364 1.478 . S
C363 H357 0.930 . S
C363 C359 1.400 . S
C363 C362 1.385 . S
C364 C362 1.478 . S
C364 C366 1.381 . S
C364 C370 1.383 . S
C365 C361 1.495 . S
C365 H371 0.959 . S
C365 H372 0.961 . S
C365 H373 0.960 . S
C366 C364 1.381 . S
C366 C367 1.394 . S
C366 H374 0.930 . S
C367 C366 1.394 . S
C367 C368 1.383 . S
C367 H375 0.929 . S
C368 C367 1.383 . S
C368 C369 1.377 . S
C369 H353 0.930 . S
C369 C368 1.377 . S
C369 C370 1.379 . S
C370 H354 0.931 . S
C370 C364 1.383 . S
C370 C369 1.379 . S
H371 C365 0.959 . S
H372 C365 0.961 . S
H373 C365 0.960 . S
H374 C366 0.930 . S
H375 C367 0.929 . S
H376 C384 0.929 . S
H377 C386 0.930 . S
H378 C388 0.930 . S
H379 C391 0.929 . S
H380 C394 0.930 . S
H381 C396 0.960 . S
H382 C396 0.960 . S
H383 C396 0.960 . S
C384 H376 0.929 . S
C384 C385 1.377 . S
C384 C386 1.384 . S
C385 C384 1.377 . S
C385 C391 1.390 . S
C386 H377 0.930 . S
C386 C384 1.384 . S
C386 C387 1.372 . S
C387 C386 1.372 . S
C387 C388 1.400 . S
C387 C392 1.490 . S
C388 H378 0.930 . S
C388 C387 1.400 . S
C388 C391 1.386 . S
H389 C405 0.930 . S
H390 C406 0.931 . S
C391 H379 0.929 . S
C391 C385 1.390 . S
C391 C388 1.386 . S
C392 C387 1.490 . S
C392 C394 1.395 . S
C392 C395 1.403 . S
H393 C399 0.930 . S
C394 H380 0.930 . S
C394 C392 1.395 . S
C394 C397 1.403 . S
C395 C392 1.403 . S
C395 C396 1.524 . S
C395 C399 1.400 . S
C396 H381 0.960 . S
C396 H382 0.960 . S
C396 H383 0.960 . S
C396 C395 1.524 . S
C397 C394 1.403 . S
C397 C398 1.392 . S
C397 C401 1.495 . S
C398 C397 1.392 . S
C398 C399 1.385 . S
C398 C400 1.478 . S
C399 H393 0.930 . S
C399 C395 1.400 . S
C399 C398 1.385 . S
C400 C398 1.478 . S
C400 C402 1.381 . S
C400 C406 1.383 . S
C401 C397 1.495 . S
C401 H407 0.959 . S
C401 H408 0.961 . S
C401 H409 0.960 . S
C402 C400 1.381 . S
C402 C403 1.394 . S
C402 H410 0.930 . S
C403 C402 1.394 . S
C403 C404 1.383 . S
C403 H411 0.929 . S
C404 C403 1.383 . S
C404 C405 1.377 . S
C405 H389 0.930 . S
C405 C404 1.377 . S
C405 C406 1.379 . S
C406 H390 0.931 . S
C406 C400 1.383 . S
C406 C405 1.379 . S
H407 C401 0.959 . S
H408 C401 0.961 . S
H409 C401 0.960 . S
H410 C402 0.930 . S
H411 C403 0.929 . S
H412 C420 0.929 . S
H413 C422 0.930 . S
H414 C424 0.930 . S
H415 C427 0.929 . S
H416 C430 0.930 . S
H417 C432 0.960 . S
H418 C432 0.960 . S
H419 C432 0.960 . S
C420 H412 0.929 . S
C420 C421 1.377 . S
C420 C422 1.384 . S
C421 C420 1.377 . S
C421 C427 1.390 . S
C422 H413 0.930 . S
C422 C420 1.384 . S
C422 C423 1.372 . S
C423 C422 1.372 . S
C423 C424 1.400 . S
C423 C428 1.490 . S
C424 H414 0.930 . S
C424 C423 1.400 . S
C424 C427 1.386 . S
H425 C441 0.930 . S
H426 C442 0.931 . S
C427 H415 0.929 . S
C427 C421 1.390 . S
C427 C424 1.386 . S
C428 C423 1.490 . S
C428 C430 1.395 . S
C428 C431 1.403 . S
H429 C435 0.930 . S
C430 H416 0.930 . S
C430 C428 1.395 . S
C430 C433 1.403 . S
C431 C428 1.403 . S
C431 C432 1.524 . S
C431 C435 1.400 . S
C432 H417 0.960 . S
C432 H418 0.960 . S
C432 H419 0.960 . S
C432 C431 1.524 . S
C433 C430 1.403 . S
C433 C434 1.392 . S
C433 C437 1.495 . S
C434 C433 1.392 . S
C434 C435 1.385 . S
C434 C436 1.478 . S
C435 H429 0.930 . S
C435 C431 1.400 . S
C435 C434 1.385 . S
C436 C434 1.478 . S
C436 C438 1.381 . S
C436 C442 1.383 . S
C437 C433 1.495 . S
C437 H443 0.959 . S
C437 H444 0.961 . S
C437 H445 0.960 . S
C438 C436 1.381 . S
C438 C439 1.394 . S
C438 H446 0.930 . S
C439 C438 1.394 . S
C439 C440 1.383 . S
C439 H447 0.929 . S
C440 C439 1.383 . S
C440 C441 1.377 . S
C441 H425 0.930 . S
C441 C440 1.377 . S
C441 C442 1.379 . S
C442 H426 0.931 . S
C442 C436 1.383 . S
C442 C441 1.379 . S
H443 C437 0.959 . S
H444 C437 0.961 . S
H445 C437 0.960 . S
H446 C438 0.930 . S
H447 C439 0.929 . S
H448 C456 0.929 . S
H449 C458 0.930 . S
H450 C460 0.930 . S
H451 C463 0.929 . S
H452 C466 0.930 . S
H453 C468 0.960 . S
H454 C468 0.960 . S
H455 C468 0.960 . S
C456 H448 0.929 . S
C456 C457 1.377 . S
C456 C458 1.384 . S
C457 C456 1.377 . S
C457 C463 1.390 . S
C458 H449 0.930 . S
C458 C456 1.384 . S
C458 C459 1.372 . S
C459 C458 1.372 . S
C459 C460 1.400 . S
C459 C464 1.490 . S
C460 H450 0.930 . S
C460 C459 1.400 . S
C460 C463 1.386 . S
H461 C477 0.930 . S
H462 C478 0.931 . S
C463 H451 0.929 . S
C463 C457 1.390 . S
C463 C460 1.386 . S
C464 C459 1.490 . S
C464 C466 1.395 1_655 S
C464 C467 1.403 . S
H465 C471 0.930 . S
C466 H452 0.930 . S
C466 C464 1.395 1_455 S
C466 C469 1.403 . S
C467 C464 1.403 . S
C467 C468 1.524 . S
C467 C471 1.400 . S
C468 H453 0.960 . S
C468 H454 0.960 . S
C468 H455 0.960 . S
C468 C467 1.524 . S
C469 C466 1.403 . S
C469 C470 1.392 . S
C469 C473 1.495 . S
C470 C469 1.392 . S
C470 C471 1.385 1_455 S
C470 C472 1.478 . S
C471 H465 0.930 . S
C471 C467 1.400 . S
C471 C470 1.385 1_655 S
C472 C470 1.478 . S
C472 C474 1.381 . S
C472 C478 1.383 . S
C473 C469 1.495 . S
C473 H479 0.959 . S
C473 H480 0.961 . S
C473 H481 0.960 . S
C474 C472 1.381 . S
C474 C475 1.394 . S
C474 H482 0.930 . S
C475 C474 1.394 . S
C475 C476 1.383 . S
C475 H483 0.929 . S
C476 C475 1.383 . S
C476 C477 1.377 . S
C477 H461 0.930 . S
C477 C476 1.377 . S
C477 C478 1.379 . S
C478 H462 0.931 . S
C478 C472 1.383 . S
C478 C477 1.379 . S
H479 C473 0.959 . S
H480 C473 0.961 . S
H481 C473 0.960 . S
H482 C474 0.930 . S
H483 C475 0.929 . S
H484 C492 0.929 1_455 S
H485 C494 0.930 . S
H486 C496 0.930 . S
H487 C499 0.929 . S
H488 C502 0.930 . S
H489 C504 0.960 . S
H490 C504 0.960 . S
H491 C504 0.960 . S
C492 H484 0.929 1_655 S
C492 C493 1.377 . S
C492 C494 1.384 1_655 S
C493 C492 1.377 . S
C493 C499 1.390 . S
C494 H485 0.930 . S
C494 C492 1.384 1_455 S
C494 C495 1.372 1_455 S
C495 C494 1.372 1_655 S
C495 C496 1.400 . S
C495 C500 1.490 . S
C496 H486 0.930 . S
C496 C495 1.400 . S
C496 C499 1.386 . S
H497 C513 0.930 . S
H498 C514 0.931 1_655 S
C499 H487 0.929 . S
C499 C493 1.390 . S
C499 C496 1.386 . S
C500 C495 1.490 . S
C500 C502 1.395 1_655 S
C500 C503 1.403 . S
H501 C507 0.930 . S
C502 H488 0.930 . S
C502 C500 1.395 1_455 S
C502 C505 1.403 . S
C503 C500 1.403 . S
C503 C504 1.524 . S
C503 C507 1.400 . S
C504 H489 0.960 . S
C504 H490 0.960 . S
C504 H491 0.960 . S
C504 C503 1.524 . S
C505 C502 1.403 . S
C505 C506 1.392 . S
C505 C509 1.495 . S
C506 C505 1.392 . S
C506 C507 1.385 1_455 S
C506 C508 1.478 . S
C507 H501 0.930 . S
C507 C503 1.400 . S
C507 C506 1.385 1_655 S
C508 C506 1.478 . S
C508 C510 1.381 . S
C508 C514 1.383 . S
C509 C505 1.495 . S
C509 H515 0.959 . S
C509 H516 0.961 . S
C509 H517 0.960 . S
C510 C508 1.381 . S
C510 C511 1.394 . S
C510 H518 0.930 . S
C511 C510 1.394 . S
C511 C512 1.383 . S
C511 H519 0.929 . S
C512 C511 1.383 . S
C512 C513 1.377 . S
C513 H497 0.930 . S
C513 C512 1.377 . S
C513 C514 1.379 . S
C514 H498 0.931 1_455 S
C514 C508 1.383 . S
C514 C513 1.379 . S
H515 C509 0.959 . S
H516 C509 0.961 . S
H517 C509 0.960 . S
H518 C510 0.930 . S
H519 C511 0.929 . S
H520 C528 0.929 . S
H521 C530 0.930 . S
H522 C532 0.930 . S
H523 C535 0.929 . S
H524 C538 0.930 . S
H525 C540 0.960 . S
H526 C540 0.960 . S
H527 C540 0.960 . S
C528 H520 0.929 . S
C528 C529 1.377 . S
C528 C530 1.384 . S
C529 C528 1.377 . S
C529 C535 1.390 . S
C530 H521 0.930 . S
C530 C528 1.384 . S
C530 C531 1.372 . S
C531 C530 1.372 . S
C531 C532 1.400 . S
C531 C536 1.490 . S
C532 H522 0.930 . S
C532 C531 1.400 . S
C532 C535 1.386 . S
H533 C549 0.930 . S
H534 C550 0.931 . S
C535 H523 0.929 . S
C535 C529 1.390 . S
C535 C532 1.386 . S
C536 C531 1.490 . S
C536 C538 1.395 . S
C536 C539 1.403 1_655 S
H537 C543 0.930 . S
C538 H524 0.930 . S
C538 C536 1.395 . S
C538 C541 1.403 . S
C539 C536 1.403 1_455 S
C539 C540 1.524 . S
C539 C543 1.400 . S
C540 H525 0.960 . S
C540 H526 0.960 . S
C540 H527 0.960 . S
C540 C539 1.524 . S
C541 C538 1.403 . S
C541 C542 1.392 1_655 S
C541 C545 1.495 . S
C542 C541 1.392 1_455 S
C542 C543 1.385 . S
C542 C544 1.478 . S
C543 H537 0.930 . S
C543 C539 1.400 . S
C543 C542 1.385 . S
C544 C542 1.478 . S
C544 C546 1.381 . S
C544 C550 1.383 . S
C545 C541 1.495 . S
C545 H551 0.959 . S
C545 H552 0.961 . S
C545 H553 0.960 . S
C546 C544 1.381 . S
C546 C547 1.394 . S
C546 H554 0.930 . S
C547 C546 1.394 . S
C547 C548 1.383 . S
C547 H555 0.929 . S
C548 C547 1.383 . S
C548 C549 1.377 . S
C549 H533 0.930 . S
C549 C548 1.377 . S
C549 C550 1.379 . S
C550 H534 0.931 . S
C550 C544 1.383 . S
C550 C549 1.379 . S
H551 C545 0.959 . S
H552 C545 0.961 . S
H553 C545 0.960 . S
H554 C546 0.930 . S
H555 C547 0.929 . S
H556 C564 0.929 . S
H557 C566 0.930 . S
H558 C568 0.930 . S
H559 C571 0.929 . S
H560 C574 0.930 . S
H561 C576 0.960 . S
H562 C576 0.960 . S
H563 C576 0.960 . S
C564 H556 0.929 . S
C564 C565 1.377 . S
C564 C566 1.384 . S
C565 C564 1.377 . S
C565 C571 1.390 . S
C566 H557 0.930 . S
C566 C564 1.384 . S
C566 C567 1.372 . S
C567 C566 1.372 . S
C567 C568 1.400 . S
C567 C572 1.490 . S
C568 H558 0.930 . S
C568 C567 1.400 . S
C568 C571 1.386 . S
H569 C585 0.930 . S
H570 C586 0.931 . S
C571 H559 0.929 . S
C571 C565 1.390 . S
C571 C568 1.386 . S
C572 C567 1.490 . S
C572 C574 1.395 1_455 S
C572 C575 1.403 . S
H573 C579 0.930 . S
C574 H560 0.930 . S
C574 C572 1.395 1_655 S
C574 C577 1.403 . S
C575 C572 1.403 . S
C575 C576 1.524 . S
C575 C579 1.400 . S
C576 H561 0.960 . S
C576 H562 0.960 . S
C576 H563 0.960 . S
C576 C575 1.524 . S
C577 C574 1.403 . S
C577 C578 1.392 . S
C577 C581 1.495 . S
C578 C577 1.392 . S
C578 C579 1.385 1_655 S
C578 C580 1.478 . S
C579 H573 0.930 . S
C579 C575 1.400 . S
C579 C578 1.385 1_455 S
C580 C578 1.478 . S
C580 C582 1.381 . S
C580 C586 1.383 . S
C581 C577 1.495 . S
C581 H587 0.959 . S
C581 H588 0.961 . S
C581 H589 0.960 . S
C582 C580 1.381 . S
C582 C583 1.394 . S
C582 H590 0.930 . S
C583 C582 1.394 . S
C583 C584 1.383 . S
C583 H591 0.929 . S
C584 C583 1.383 . S
C584 C585 1.377 . S
C585 H569 0.930 . S
C585 C584 1.377 . S
C585 C586 1.379 . S
C586 H570 0.931 . S
C586 C580 1.383 . S
C586 C585 1.379 . S
H587 C581 0.959 . S
H588 C581 0.961 . S
H589 C581 0.960 . S
H590 C582 0.930 . S
H591 C583 0.929 . S
C169 C59 1.527 . S
C188 C10 1.511 . S
C205 C99 1.525 . S
C224 C130 1.512 . S
C241 C19 1.542 . S
C260 C50 1.535 . S
C277 C139 1.529 . S
C296 C90 1.518 . S
C313 C122 1.494 . S
C332 C2 1.497 . S
C349 C47 0.946 . S
C368 C87 0.957 . S
C385 C51 1.491 . S
C404 C91 1.493 . S
C421 C136 0.948 . S
C440 C16 0.931 . S
C457 C42 1.494 . S
C476 C82 1.499 . S
C493 C127 0.951 . S
C512 C7 0.935 . S
C529 C131 1.495 . S
C548 C11 1.492 . S
C565 C96 0.945 . S
C584 C56 0.929 . S
