# Generated by pormake.
# Topology gie, (4)-cn, num edge types: 1
# Building blocks:
#     Node 0, Type 0, BuildingBlock: CEKHIL_clean_sbu_0, # of connection points: 4
#     Node 1, Type 0, BuildingBlock: CEKHIL_clean_sbu_0, # of connection points: 4
#     Node 2, Type 0, BuildingBlock: CEKHIL_clean_sbu_0, # of connection points: 4
#     Node 3, Type 0, BuildingBlock: CEKHIL_clean_sbu_0, # of connection points: 4
#     Node 4, Type 0, BuildingBlock: CEKHIL_clean_sbu_0, # of connection points: 4
#     Node 5, Type 0, BuildingBlock: CEKHIL_clean_sbu_0, # of connection points: 4
#     Node 6, Type 0, BuildingBlock: CEKHIL_clean_sbu_0, # of connection points: 4
#     Node 7, Type 0, BuildingBlock: CEKHIL_clean_sbu_0, # of connection points: 4
#     Node 8, Type 0, BuildingBlock: CEKHIL_clean_sbu_0, # of connection points: 4
#     Node 9, Type 0, BuildingBlock: CEKHIL_clean_sbu_0, # of connection points: 4
#     Node 10, Type 0, BuildingBlock: CEKHIL_clean_sbu_0, # of connection points: 4
#     Node 11, Type 0, BuildingBlock: CEKHIL_clean_sbu_0, # of connection points: 4
#     Node 12, Type 0, BuildingBlock: CEKHIL_clean_sbu_0, # of connection points: 4
#     Node 13, Type 0, BuildingBlock: CEKHIL_clean_sbu_0, # of connection points: 4
#     Node 14, Type 0, BuildingBlock: CEKHIL_clean_sbu_0, # of connection points: 4
#     Node 15, Type 0, BuildingBlock: CEKHIL_clean_sbu_0, # of connection points: 4
#     Node 16, Type 0, BuildingBlock: CEKHIL_clean_sbu_0, # of connection points: 4
#     Node 17, Type 0, BuildingBlock: CEKHIL_clean_sbu_0, # of connection points: 4
#     Node 18, Type 0, BuildingBlock: CEKHIL_clean_sbu_0, # of connection points: 4
#     Node 19, Type 0, BuildingBlock: CEKHIL_clean_sbu_0, # of connection points: 4
#     Node 20, Type 0, BuildingBlock: CEKHIL_clean_sbu_0, # of connection points: 4
#     Node 21, Type 0, BuildingBlock: CEKHIL_clean_sbu_0, # of connection points: 4
#     Node 22, Type 0, BuildingBlock: CEKHIL_clean_sbu_0, # of connection points: 4
#     Node 23, Type 0, BuildingBlock: CEKHIL_clean_sbu_0, # of connection points: 4
#     Node 24, Type 0, BuildingBlock: CEKHIL_clean_sbu_0, # of connection points: 4
#     Node 25, Type 0, BuildingBlock: CEKHIL_clean_sbu_0, # of connection points: 4
#     Node 26, Type 0, BuildingBlock: CEKHIL_clean_sbu_0, # of connection points: 4
#     Node 27, Type 0, BuildingBlock: CEKHIL_clean_sbu_0, # of connection points: 4
#     Node 28, Type 0, BuildingBlock: CEKHIL_clean_sbu_0, # of connection points: 4
#     Node 29, Type 0, BuildingBlock: CEKHIL_clean_sbu_0, # of connection points: 4
#     Node 30, Type 0, BuildingBlock: CEKHIL_clean_sbu_0, # of connection points: 4
#     Node 31, Type 0, BuildingBlock: CEKHIL_clean_sbu_0, # of connection points: 4
#     Node 32, Type 0, BuildingBlock: CEKHIL_clean_sbu_0, # of connection points: 4
#     Node 33, Type 0, BuildingBlock: CEKHIL_clean_sbu_0, # of connection points: 4
#     Node 34, Type 0, BuildingBlock: CEKHIL_clean_sbu_0, # of connection points: 4
#     Node 35, Type 0, BuildingBlock: CEKHIL_clean_sbu_0, # of connection points: 4
#     Node 36, Type 0, BuildingBlock: CEKHIL_clean_sbu_0, # of connection points: 4
#     Node 37, Type 0, BuildingBlock: CEKHIL_clean_sbu_0, # of connection points: 4
#     Node 38, Type 0, BuildingBlock: CEKHIL_clean_sbu_0, # of connection points: 4
#     Node 39, Type 0, BuildingBlock: CEKHIL_clean_sbu_0, # of connection points: 4
#     Node 40, Type 0, BuildingBlock: CEKHIL_clean_sbu_0, # of connection points: 4
#     Node 41, Type 0, BuildingBlock: CEKHIL_clean_sbu_0, # of connection points: 4
#     Node 42, Type 0, BuildingBlock: CEKHIL_clean_sbu_0, # of connection points: 4
#     Node 43, Type 0, BuildingBlock: CEKHIL_clean_sbu_0, # of connection points: 4
#     Node 44, Type 0, BuildingBlock: CEKHIL_clean_sbu_0, # of connection points: 4
#     Node 45, Type 0, BuildingBlock: CEKHIL_clean_sbu_0, # of connection points: 4
#     Node 46, Type 0, BuildingBlock: CEKHIL_clean_sbu_0, # of connection points: 4
#     Node 47, Type 0, BuildingBlock: CEKHIL_clean_sbu_0, # of connection points: 4
#     Node 48, Type 0, BuildingBlock: CEKHIL_clean_sbu_0, # of connection points: 4
#     Node 49, Type 0, BuildingBlock: CEKHIL_clean_sbu_0, # of connection points: 4
#     Node 50, Type 0, BuildingBlock: CEKHIL_clean_sbu_0, # of connection points: 4
#     Node 51, Type 0, BuildingBlock: CEKHIL_clean_sbu_0, # of connection points: 4
#     Node 52, Type 0, BuildingBlock: CEKHIL_clean_sbu_0, # of connection points: 4
#     Node 53, Type 0, BuildingBlock: CEKHIL_clean_sbu_0, # of connection points: 4
#     Node 54, Type 0, BuildingBlock: CEKHIL_clean_sbu_0, # of connection points: 4
#     Node 55, Type 0, BuildingBlock: CEKHIL_clean_sbu_0, # of connection points: 4
#     Node 56, Type 0, BuildingBlock: CEKHIL_clean_sbu_0, # of connection points: 4
#     Node 57, Type 0, BuildingBlock: CEKHIL_clean_sbu_0, # of connection points: 4
#     Node 58, Type 0, BuildingBlock: CEKHIL_clean_sbu_0, # of connection points: 4
#     Node 59, Type 0, BuildingBlock: CEKHIL_clean_sbu_0, # of connection points: 4
#     Node 60, Type 0, BuildingBlock: CEKHIL_clean_sbu_0, # of connection points: 4
#     Node 61, Type 0, BuildingBlock: CEKHIL_clean_sbu_0, # of connection points: 4
#     Node 62, Type 0, BuildingBlock: CEKHIL_clean_sbu_0, # of connection points: 4
#     Node 63, Type 0, BuildingBlock: CEKHIL_clean_sbu_0, # of connection points: 4
#     Node 64, Type 0, BuildingBlock: CEKHIL_clean_sbu_0, # of connection points: 4
#     Node 65, Type 0, BuildingBlock: CEKHIL_clean_sbu_0, # of connection points: 4
#     Node 66, Type 0, BuildingBlock: CEKHIL_clean_sbu_0, # of connection points: 4
#     Node 67, Type 0, BuildingBlock: CEKHIL_clean_sbu_0, # of connection points: 4
#     Node 68, Type 0, BuildingBlock: CEKHIL_clean_sbu_0, # of connection points: 4
#     Node 69, Type 0, BuildingBlock: CEKHIL_clean_sbu_0, # of connection points: 4
#     Node 70, Type 0, BuildingBlock: CEKHIL_clean_sbu_0, # of connection points: 4
#     Node 71, Type 0, BuildingBlock: CEKHIL_clean_sbu_0, # of connection points: 4
#     Node 72, Type 0, BuildingBlock: CEKHIL_clean_sbu_0, # of connection points: 4
#     Node 73, Type 0, BuildingBlock: CEKHIL_clean_sbu_0, # of connection points: 4
#     Node 74, Type 0, BuildingBlock: CEKHIL_clean_sbu_0, # of connection points: 4
#     Node 75, Type 0, BuildingBlock: CEKHIL_clean_sbu_0, # of connection points: 4
#     Node 76, Type 0, BuildingBlock: CEKHIL_clean_sbu_0, # of connection points: 4
#     Node 77, Type 0, BuildingBlock: CEKHIL_clean_sbu_0, # of connection points: 4
#     Node 78, Type 0, BuildingBlock: CEKHIL_clean_sbu_0, # of connection points: 4
#     Node 79, Type 0, BuildingBlock: CEKHIL_clean_sbu_0, # of connection points: 4
#     Node 80, Type 0, BuildingBlock: CEKHIL_clean_sbu_0, # of connection points: 4
#     Node 81, Type 0, BuildingBlock: CEKHIL_clean_sbu_0, # of connection points: 4
#     Node 82, Type 0, BuildingBlock: CEKHIL_clean_sbu_0, # of connection points: 4
#     Node 83, Type 0, BuildingBlock: CEKHIL_clean_sbu_0, # of connection points: 4
#     Node 84, Type 0, BuildingBlock: CEKHIL_clean_sbu_0, # of connection points: 4
#     Node 85, Type 0, BuildingBlock: CEKHIL_clean_sbu_0, # of connection points: 4
#     Node 86, Type 0, BuildingBlock: CEKHIL_clean_sbu_0, # of connection points: 4
#     Node 87, Type 0, BuildingBlock: CEKHIL_clean_sbu_0, # of connection points: 4
#     Node 88, Type 0, BuildingBlock: CEKHIL_clean_sbu_0, # of connection points: 4
#     Node 89, Type 0, BuildingBlock: CEKHIL_clean_sbu_0, # of connection points: 4
#     Node 90, Type 0, BuildingBlock: CEKHIL_clean_sbu_0, # of connection points: 4
#     Node 91, Type 0, BuildingBlock: CEKHIL_clean_sbu_0, # of connection points: 4
#     Node 92, Type 0, BuildingBlock: CEKHIL_clean_sbu_0, # of connection points: 4
#     Node 93, Type 0, BuildingBlock: CEKHIL_clean_sbu_0, # of connection points: 4
#     Node 94, Type 0, BuildingBlock: CEKHIL_clean_sbu_0, # of connection points: 4
#     Node 95, Type 0, BuildingBlock: CEKHIL_clean_sbu_0, # of connection points: 4
#     Edge 96, Type (0, 0), BuildingBlock: ZUJKAS_clean_linker_0, # of connection points: 2
#     Edge 97, Type (0, 0), BuildingBlock: ZUJKAS_clean_linker_0, # of connection points: 2
#     Edge 98, Type (0, 0), BuildingBlock: ZUJKAS_clean_linker_0, # of connection points: 2
#     Edge 99, Type (0, 0), BuildingBlock: ZUJKAS_clean_linker_0, # of connection points: 2
#     Edge 100, Type (0, 0), BuildingBlock: ZUJKAS_clean_linker_0, # of connection points: 2
#     Edge 101, Type (0, 0), BuildingBlock: ZUJKAS_clean_linker_0, # of connection points: 2
#     Edge 102, Type (0, 0), BuildingBlock: ZUJKAS_clean_linker_0, # of connection points: 2
#     Edge 103, Type (0, 0), BuildingBlock: ZUJKAS_clean_linker_0, # of connection points: 2
#     Edge 104, Type (0, 0), BuildingBlock: ZUJKAS_clean_linker_0, # of connection points: 2
#     Edge 105, Type (0, 0), BuildingBlock: ZUJKAS_clean_linker_0, # of connection points: 2
#     Edge 106, Type (0, 0), BuildingBlock: ZUJKAS_clean_linker_0, # of connection points: 2
#     Edge 107, Type (0, 0), BuildingBlock: ZUJKAS_clean_linker_0, # of connection points: 2
#     Edge 108, Type (0, 0), BuildingBlock: ZUJKAS_clean_linker_0, # of connection points: 2
#     Edge 109, Type (0, 0), BuildingBlock: ZUJKAS_clean_linker_0, # of connection points: 2
#     Edge 110, Type (0, 0), BuildingBlock: ZUJKAS_clean_linker_0, # of connection points: 2
#     Edge 111, Type (0, 0), BuildingBlock: ZUJKAS_clean_linker_0, # of connection points: 2
#     Edge 112, Type (0, 0), BuildingBlock: ZUJKAS_clean_linker_0, # of connection points: 2
#     Edge 113, Type (0, 0), BuildingBlock: ZUJKAS_clean_linker_0, # of connection points: 2
#     Edge 114, Type (0, 0), BuildingBlock: ZUJKAS_clean_linker_0, # of connection points: 2
#     Edge 115, Type (0, 0), BuildingBlock: ZUJKAS_clean_linker_0, # of connection points: 2
#     Edge 116, Type (0, 0), BuildingBlock: ZUJKAS_clean_linker_0, # of connection points: 2
#     Edge 117, Type (0, 0), BuildingBlock: ZUJKAS_clean_linker_0, # of connection points: 2
#     Edge 118, Type (0, 0), BuildingBlock: ZUJKAS_clean_linker_0, # of connection points: 2
#     Edge 119, Type (0, 0), BuildingBlock: ZUJKAS_clean_linker_0, # of connection points: 2
#     Edge 120, Type (0, 0), BuildingBlock: ZUJKAS_clean_linker_0, # of connection points: 2
#     Edge 121, Type (0, 0), BuildingBlock: ZUJKAS_clean_linker_0, # of connection points: 2
#     Edge 122, Type (0, 0), BuildingBlock: ZUJKAS_clean_linker_0, # of connection points: 2
#     Edge 123, Type (0, 0), BuildingBlock: ZUJKAS_clean_linker_0, # of connection points: 2
#     Edge 124, Type (0, 0), BuildingBlock: ZUJKAS_clean_linker_0, # of connection points: 2
#     Edge 125, Type (0, 0), BuildingBlock: ZUJKAS_clean_linker_0, # of connection points: 2
#     Edge 126, Type (0, 0), BuildingBlock: ZUJKAS_clean_linker_0, # of connection points: 2
#     Edge 127, Type (0, 0), BuildingBlock: ZUJKAS_clean_linker_0, # of connection points: 2
#     Edge 128, Type (0, 0), BuildingBlock: ZUJKAS_clean_linker_0, # of connection points: 2
#     Edge 129, Type (0, 0), BuildingBlock: ZUJKAS_clean_linker_0, # of connection points: 2
#     Edge 130, Type (0, 0), BuildingBlock: ZUJKAS_clean_linker_0, # of connection points: 2
#     Edge 131, Type (0, 0), BuildingBlock: ZUJKAS_clean_linker_0, # of connection points: 2
#     Edge 132, Type (0, 0), BuildingBlock: ZUJKAS_clean_linker_0, # of connection points: 2
#     Edge 133, Type (0, 0), BuildingBlock: ZUJKAS_clean_linker_0, # of connection points: 2
#     Edge 134, Type (0, 0), BuildingBlock: ZUJKAS_clean_linker_0, # of connection points: 2
#     Edge 135, Type (0, 0), BuildingBlock: ZUJKAS_clean_linker_0, # of connection points: 2
#     Edge 136, Type (0, 0), BuildingBlock: ZUJKAS_clean_linker_0, # of connection points: 2
#     Edge 137, Type (0, 0), BuildingBlock: ZUJKAS_clean_linker_0, # of connection points: 2
#     Edge 138, Type (0, 0), BuildingBlock: ZUJKAS_clean_linker_0, # of connection points: 2
#     Edge 139, Type (0, 0), BuildingBlock: ZUJKAS_clean_linker_0, # of connection points: 2
#     Edge 140, Type (0, 0), BuildingBlock: ZUJKAS_clean_linker_0, # of connection points: 2
#     Edge 141, Type (0, 0), BuildingBlock: ZUJKAS_clean_linker_0, # of connection points: 2
#     Edge 142, Type (0, 0), BuildingBlock: ZUJKAS_clean_linker_0, # of connection points: 2
#     Edge 143, Type (0, 0), BuildingBlock: ZUJKAS_clean_linker_0, # of connection points: 2
#     Edge 144, Type (0, 0), BuildingBlock: ZUJKAS_clean_linker_0, # of connection points: 2
#     Edge 145, Type (0, 0), BuildingBlock: ZUJKAS_clean_linker_0, # of connection points: 2
#     Edge 146, Type (0, 0), BuildingBlock: ZUJKAS_clean_linker_0, # of connection points: 2
#     Edge 147, Type (0, 0), BuildingBlock: ZUJKAS_clean_linker_0, # of connection points: 2
#     Edge 148, Type (0, 0), BuildingBlock: ZUJKAS_clean_linker_0, # of connection points: 2
#     Edge 149, Type (0, 0), BuildingBlock: ZUJKAS_clean_linker_0, # of connection points: 2
#     Edge 150, Type (0, 0), BuildingBlock: ZUJKAS_clean_linker_0, # of connection points: 2
#     Edge 151, Type (0, 0), BuildingBlock: ZUJKAS_clean_linker_0, # of connection points: 2
#     Edge 152, Type (0, 0), BuildingBlock: ZUJKAS_clean_linker_0, # of connection points: 2
#     Edge 153, Type (0, 0), BuildingBlock: ZUJKAS_clean_linker_0, # of connection points: 2
#     Edge 154, Type (0, 0), BuildingBlock: ZUJKAS_clean_linker_0, # of connection points: 2
#     Edge 155, Type (0, 0), BuildingBlock: ZUJKAS_clean_linker_0, # of connection points: 2
#     Edge 156, Type (0, 0), BuildingBlock: ZUJKAS_clean_linker_0, # of connection points: 2
#     Edge 157, Type (0, 0), BuildingBlock: ZUJKAS_clean_linker_0, # of connection points: 2
#     Edge 158, Type (0, 0), BuildingBlock: ZUJKAS_clean_linker_0, # of connection points: 2
#     Edge 159, Type (0, 0), BuildingBlock: ZUJKAS_clean_linker_0, # of connection points: 2
#     Edge 160, Type (0, 0), BuildingBlock: ZUJKAS_clean_linker_0, # of connection points: 2
#     Edge 161, Type (0, 0), BuildingBlock: ZUJKAS_clean_linker_0, # of connection points: 2
#     Edge 162, Type (0, 0), BuildingBlock: ZUJKAS_clean_linker_0, # of connection points: 2
#     Edge 163, Type (0, 0), BuildingBlock: ZUJKAS_clean_linker_0, # of connection points: 2
#     Edge 164, Type (0, 0), BuildingBlock: ZUJKAS_clean_linker_0, # of connection points: 2
#     Edge 165, Type (0, 0), BuildingBlock: ZUJKAS_clean_linker_0, # of connection points: 2
#     Edge 166, Type (0, 0), BuildingBlock: ZUJKAS_clean_linker_0, # of connection points: 2
#     Edge 167, Type (0, 0), BuildingBlock: ZUJKAS_clean_linker_0, # of connection points: 2
#     Edge 168, Type (0, 0), BuildingBlock: ZUJKAS_clean_linker_0, # of connection points: 2
#     Edge 169, Type (0, 0), BuildingBlock: ZUJKAS_clean_linker_0, # of connection points: 2
#     Edge 170, Type (0, 0), BuildingBlock: ZUJKAS_clean_linker_0, # of connection points: 2
#     Edge 171, Type (0, 0), BuildingBlock: ZUJKAS_clean_linker_0, # of connection points: 2
#     Edge 172, Type (0, 0), BuildingBlock: ZUJKAS_clean_linker_0, # of connection points: 2
#     Edge 173, Type (0, 0), BuildingBlock: ZUJKAS_clean_linker_0, # of connection points: 2
#     Edge 174, Type (0, 0), BuildingBlock: ZUJKAS_clean_linker_0, # of connection points: 2
#     Edge 175, Type (0, 0), BuildingBlock: ZUJKAS_clean_linker_0, # of connection points: 2
#     Edge 176, Type (0, 0), BuildingBlock: ZUJKAS_clean_linker_0, # of connection points: 2
#     Edge 177, Type (0, 0), BuildingBlock: ZUJKAS_clean_linker_0, # of connection points: 2
#     Edge 178, Type (0, 0), BuildingBlock: ZUJKAS_clean_linker_0, # of connection points: 2
#     Edge 179, Type (0, 0), BuildingBlock: ZUJKAS_clean_linker_0, # of connection points: 2
#     Edge 180, Type (0, 0), BuildingBlock: ZUJKAS_clean_linker_0, # of connection points: 2
#     Edge 181, Type (0, 0), BuildingBlock: ZUJKAS_clean_linker_0, # of connection points: 2
#     Edge 182, Type (0, 0), BuildingBlock: ZUJKAS_clean_linker_0, # of connection points: 2
#     Edge 183, Type (0, 0), BuildingBlock: ZUJKAS_clean_linker_0, # of connection points: 2
#     Edge 184, Type (0, 0), BuildingBlock: ZUJKAS_clean_linker_0, # of connection points: 2
#     Edge 185, Type (0, 0), BuildingBlock: ZUJKAS_clean_linker_0, # of connection points: 2
#     Edge 186, Type (0, 0), BuildingBlock: ZUJKAS_clean_linker_0, # of connection points: 2
#     Edge 187, Type (0, 0), BuildingBlock: ZUJKAS_clean_linker_0, # of connection points: 2
#     Edge 188, Type (0, 0), BuildingBlock: ZUJKAS_clean_linker_0, # of connection points: 2
#     Edge 189, Type (0, 0), BuildingBlock: ZUJKAS_clean_linker_0, # of connection points: 2
#     Edge 190, Type (0, 0), BuildingBlock: ZUJKAS_clean_linker_0, # of connection points: 2
#     Edge 191, Type (0, 0), BuildingBlock: ZUJKAS_clean_linker_0, # of connection points: 2
#     Edge 192, Type (0, 0), BuildingBlock: ZUJKAS_clean_linker_0, # of connection points: 2
#     Edge 193, Type (0, 0), BuildingBlock: ZUJKAS_clean_linker_0, # of connection points: 2
#     Edge 194, Type (0, 0), BuildingBlock: ZUJKAS_clean_linker_0, # of connection points: 2
#     Edge 195, Type (0, 0), BuildingBlock: ZUJKAS_clean_linker_0, # of connection points: 2
#     Edge 196, Type (0, 0), BuildingBlock: ZUJKAS_clean_linker_0, # of connection points: 2
#     Edge 197, Type (0, 0), BuildingBlock: ZUJKAS_clean_linker_0, # of connection points: 2
#     Edge 198, Type (0, 0), BuildingBlock: ZUJKAS_clean_linker_0, # of connection points: 2
#     Edge 199, Type (0, 0), BuildingBlock: ZUJKAS_clean_linker_0, # of connection points: 2
#     Edge 200, Type (0, 0), BuildingBlock: ZUJKAS_clean_linker_0, # of connection points: 2
#     Edge 201, Type (0, 0), BuildingBlock: ZUJKAS_clean_linker_0, # of connection points: 2
#     Edge 202, Type (0, 0), BuildingBlock: ZUJKAS_clean_linker_0, # of connection points: 2
#     Edge 203, Type (0, 0), BuildingBlock: ZUJKAS_clean_linker_0, # of connection points: 2
#     Edge 204, Type (0, 0), BuildingBlock: ZUJKAS_clean_linker_0, # of connection points: 2
#     Edge 205, Type (0, 0), BuildingBlock: ZUJKAS_clean_linker_0, # of connection points: 2
#     Edge 206, Type (0, 0), BuildingBlock: ZUJKAS_clean_linker_0, # of connection points: 2
#     Edge 207, Type (0, 0), BuildingBlock: ZUJKAS_clean_linker_0, # of connection points: 2
#     Edge 208, Type (0, 0), BuildingBlock: ZUJKAS_clean_linker_0, # of connection points: 2
#     Edge 209, Type (0, 0), BuildingBlock: ZUJKAS_clean_linker_0, # of connection points: 2
#     Edge 210, Type (0, 0), BuildingBlock: ZUJKAS_clean_linker_0, # of connection points: 2
#     Edge 211, Type (0, 0), BuildingBlock: ZUJKAS_clean_linker_0, # of connection points: 2
#     Edge 212, Type (0, 0), BuildingBlock: ZUJKAS_clean_linker_0, # of connection points: 2
#     Edge 213, Type (0, 0), BuildingBlock: ZUJKAS_clean_linker_0, # of connection points: 2
#     Edge 214, Type (0, 0), BuildingBlock: ZUJKAS_clean_linker_0, # of connection points: 2
#     Edge 215, Type (0, 0), BuildingBlock: ZUJKAS_clean_linker_0, # of connection points: 2
#     Edge 216, Type (0, 0), BuildingBlock: ZUJKAS_clean_linker_0, # of connection points: 2
#     Edge 217, Type (0, 0), BuildingBlock: ZUJKAS_clean_linker_0, # of connection points: 2
#     Edge 218, Type (0, 0), BuildingBlock: ZUJKAS_clean_linker_0, # of connection points: 2
#     Edge 219, Type (0, 0), BuildingBlock: ZUJKAS_clean_linker_0, # of connection points: 2
#     Edge 220, Type (0, 0), BuildingBlock: ZUJKAS_clean_linker_0, # of connection points: 2
#     Edge 221, Type (0, 0), BuildingBlock: ZUJKAS_clean_linker_0, # of connection points: 2
#     Edge 222, Type (0, 0), BuildingBlock: ZUJKAS_clean_linker_0, # of connection points: 2
#     Edge 223, Type (0, 0), BuildingBlock: ZUJKAS_clean_linker_0, # of connection points: 2
#     Edge 224, Type (0, 0), BuildingBlock: ZUJKAS_clean_linker_0, # of connection points: 2
#     Edge 225, Type (0, 0), BuildingBlock: ZUJKAS_clean_linker_0, # of connection points: 2
#     Edge 226, Type (0, 0), BuildingBlock: ZUJKAS_clean_linker_0, # of connection points: 2
#     Edge 227, Type (0, 0), BuildingBlock: ZUJKAS_clean_linker_0, # of connection points: 2
#     Edge 228, Type (0, 0), BuildingBlock: ZUJKAS_clean_linker_0, # of connection points: 2
#     Edge 229, Type (0, 0), BuildingBlock: ZUJKAS_clean_linker_0, # of connection points: 2
#     Edge 230, Type (0, 0), BuildingBlock: ZUJKAS_clean_linker_0, # of connection points: 2
#     Edge 231, Type (0, 0), BuildingBlock: ZUJKAS_clean_linker_0, # of connection points: 2
#     Edge 232, Type (0, 0), BuildingBlock: ZUJKAS_clean_linker_0, # of connection points: 2
#     Edge 233, Type (0, 0), BuildingBlock: ZUJKAS_clean_linker_0, # of connection points: 2
#     Edge 234, Type (0, 0), BuildingBlock: ZUJKAS_clean_linker_0, # of connection points: 2
#     Edge 235, Type (0, 0), BuildingBlock: ZUJKAS_clean_linker_0, # of connection points: 2
#     Edge 236, Type (0, 0), BuildingBlock: ZUJKAS_clean_linker_0, # of connection points: 2
#     Edge 237, Type (0, 0), BuildingBlock: ZUJKAS_clean_linker_0, # of connection points: 2
#     Edge 238, Type (0, 0), BuildingBlock: ZUJKAS_clean_linker_0, # of connection points: 2
#     Edge 239, Type (0, 0), BuildingBlock: ZUJKAS_clean_linker_0, # of connection points: 2
#     Edge 240, Type (0, 0), BuildingBlock: ZUJKAS_clean_linker_0, # of connection points: 2
#     Edge 241, Type (0, 0), BuildingBlock: ZUJKAS_clean_linker_0, # of connection points: 2
#     Edge 242, Type (0, 0), BuildingBlock: ZUJKAS_clean_linker_0, # of connection points: 2
#     Edge 243, Type (0, 0), BuildingBlock: ZUJKAS_clean_linker_0, # of connection points: 2
#     Edge 244, Type (0, 0), BuildingBlock: ZUJKAS_clean_linker_0, # of connection points: 2
#     Edge 245, Type (0, 0), BuildingBlock: ZUJKAS_clean_linker_0, # of connection points: 2
#     Edge 246, Type (0, 0), BuildingBlock: ZUJKAS_clean_linker_0, # of connection points: 2
#     Edge 247, Type (0, 0), BuildingBlock: ZUJKAS_clean_linker_0, # of connection points: 2
#     Edge 248, Type (0, 0), BuildingBlock: ZUJKAS_clean_linker_0, # of connection points: 2
#     Edge 249, Type (0, 0), BuildingBlock: ZUJKAS_clean_linker_0, # of connection points: 2
#     Edge 250, Type (0, 0), BuildingBlock: ZUJKAS_clean_linker_0, # of connection points: 2
#     Edge 251, Type (0, 0), BuildingBlock: ZUJKAS_clean_linker_0, # of connection points: 2
#     Edge 252, Type (0, 0), BuildingBlock: ZUJKAS_clean_linker_0, # of connection points: 2
#     Edge 253, Type (0, 0), BuildingBlock: ZUJKAS_clean_linker_0, # of connection points: 2
#     Edge 254, Type (0, 0), BuildingBlock: ZUJKAS_clean_linker_0, # of connection points: 2
#     Edge 255, Type (0, 0), BuildingBlock: ZUJKAS_clean_linker_0, # of connection points: 2
#     Edge 256, Type (0, 0), BuildingBlock: ZUJKAS_clean_linker_0, # of connection points: 2
#     Edge 257, Type (0, 0), BuildingBlock: ZUJKAS_clean_linker_0, # of connection points: 2
#     Edge 258, Type (0, 0), BuildingBlock: ZUJKAS_clean_linker_0, # of connection points: 2
#     Edge 259, Type (0, 0), BuildingBlock: ZUJKAS_clean_linker_0, # of connection points: 2
#     Edge 260, Type (0, 0), BuildingBlock: ZUJKAS_clean_linker_0, # of connection points: 2
#     Edge 261, Type (0, 0), BuildingBlock: ZUJKAS_clean_linker_0, # of connection points: 2
#     Edge 262, Type (0, 0), BuildingBlock: ZUJKAS_clean_linker_0, # of connection points: 2
#     Edge 263, Type (0, 0), BuildingBlock: ZUJKAS_clean_linker_0, # of connection points: 2
#     Edge 264, Type (0, 0), BuildingBlock: ZUJKAS_clean_linker_0, # of connection points: 2
#     Edge 265, Type (0, 0), BuildingBlock: ZUJKAS_clean_linker_0, # of connection points: 2
#     Edge 266, Type (0, 0), BuildingBlock: ZUJKAS_clean_linker_0, # of connection points: 2
#     Edge 267, Type (0, 0), BuildingBlock: ZUJKAS_clean_linker_0, # of connection points: 2
#     Edge 268, Type (0, 0), BuildingBlock: ZUJKAS_clean_linker_0, # of connection points: 2
#     Edge 269, Type (0, 0), BuildingBlock: ZUJKAS_clean_linker_0, # of connection points: 2
#     Edge 270, Type (0, 0), BuildingBlock: ZUJKAS_clean_linker_0, # of connection points: 2
#     Edge 271, Type (0, 0), BuildingBlock: ZUJKAS_clean_linker_0, # of connection points: 2
#     Edge 272, Type (0, 0), BuildingBlock: ZUJKAS_clean_linker_0, # of connection points: 2
#     Edge 273, Type (0, 0), BuildingBlock: ZUJKAS_clean_linker_0, # of connection points: 2
#     Edge 274, Type (0, 0), BuildingBlock: ZUJKAS_clean_linker_0, # of connection points: 2
#     Edge 275, Type (0, 0), BuildingBlock: ZUJKAS_clean_linker_0, # of connection points: 2
#     Edge 276, Type (0, 0), BuildingBlock: ZUJKAS_clean_linker_0, # of connection points: 2
#     Edge 277, Type (0, 0), BuildingBlock: ZUJKAS_clean_linker_0, # of connection points: 2
#     Edge 278, Type (0, 0), BuildingBlock: ZUJKAS_clean_linker_0, # of connection points: 2
#     Edge 279, Type (0, 0), BuildingBlock: ZUJKAS_clean_linker_0, # of connection points: 2
#     Edge 280, Type (0, 0), BuildingBlock: ZUJKAS_clean_linker_0, # of connection points: 2
#     Edge 281, Type (0, 0), BuildingBlock: ZUJKAS_clean_linker_0, # of connection points: 2
#     Edge 282, Type (0, 0), BuildingBlock: ZUJKAS_clean_linker_0, # of connection points: 2
#     Edge 283, Type (0, 0), BuildingBlock: ZUJKAS_clean_linker_0, # of connection points: 2
#     Edge 284, Type (0, 0), BuildingBlock: ZUJKAS_clean_linker_0, # of connection points: 2
#     Edge 285, Type (0, 0), BuildingBlock: ZUJKAS_clean_linker_0, # of connection points: 2
#     Edge 286, Type (0, 0), BuildingBlock: ZUJKAS_clean_linker_0, # of connection points: 2
#     Edge 287, Type (0, 0), BuildingBlock: ZUJKAS_clean_linker_0, # of connection points: 2
# Relax obj value: 0.129
# Max RMSD: 0.216
# Mean RMSD: 0.209
data_MOF--net-gie--node1-CEKHIL_clean_sbu_0--edge1-ZUJKAS_clean_linker_0
_symmetry_space_group_name_H-M    P1
_symmetry_Int_Tables_number       1
_symmetry_cell_setting            triclinic
loop_
_symmetry_equiv_pos_as_xyz
'x, y, z'
_cell_length_a     110.37864
_cell_length_b     109.70203
_cell_length_c     109.64165
_cell_angle_alpha  89.998776
_cell_angle_beta   90.000865
_cell_angle_gamma 89.998646
loop_
_atom_site_label
_atom_site_type_symbol
_atom_site_fract_x
_atom_site_fract_y
_atom_site_fract_z
_atom_type_partial_charge
Co0 Co 0.99669 0.13599 0.40869 0.0
O1 O 0.98777 0.1214 0.41221 0.0
O2 O 0.99139 0.12863 0.39367 0.0
C3 C 0.0124 0.13255 0.42104 0.0
O4 O 0.00602 0.15016 0.40143 0.0
Co5 Co 0.00095 0.1555 0.42862 0.0
O6 O 0.01218 0.1627 0.41643 0.0
C7 C 0.9772 0.15417 0.41665 0.0
C8 C 0.9867 0.12015 0.40048 0.0
C9 C 0.01216 0.15933 0.4053 0.0
O10 O 0.98143 0.14596 0.40946 0.0
O11 O 0.98327 0.15859 0.42557 0.0
O12 O 0.01186 0.12739 0.4104 0.0
O13 O 0.00279 0.13837 0.42454 0.0
Co14 Co 0.11467 0.74756 0.65667 0.0
O15 O 0.12785 0.73672 0.66021 0.0
O16 O 0.12277 0.74309 0.64172 0.0
C17 C 0.11854 0.76142 0.67118 0.0
O18 O 0.10213 0.75914 0.64957 0.0
Co19 Co 0.09421 0.75148 0.6757 0.0
O20 O 0.08885 0.7644 0.66424 0.0
C21 C 0.09439 0.72904 0.66108 0.0
C22 C 0.13001 0.73671 0.64857 0.0
C23 C 0.09308 0.76543 0.65347 0.0
O24 O 0.1033 0.73334 0.65487 0.0
O25 O 0.08999 0.73446 0.67043 0.0
O26 O 0.12454 0.76152 0.66098 0.0
O27 O 0.11154 0.75211 0.67287 0.0
Co28 Co 0.50052 0.85919 0.90857 0.0
O29 O 0.51079 0.87281 0.91231 0.0
O30 O 0.50594 0.86663 0.89366 0.0
C31 C 0.48562 0.86352 0.9217 0.0
O32 O 0.48983 0.84616 0.90105 0.0
Co33 Co 0.49479 0.83923 0.92774 0.0
O34 O 0.4823 0.83409 0.91575 0.0
C35 C 0.5184 0.83904 0.91526 0.0
C36 C 0.51157 0.8744 0.90058 0.0
C37 C 0.48265 0.83768 0.9047 0.0
O38 O 0.51485 0.84792 0.90851 0.0
O39 O 0.51205 0.83471 0.92403 0.0
O40 O 0.48625 0.86908 0.91126 0.0
O41 O 0.49473 0.85662 0.92446 0.0
Co42 Co 0.38248 0.24921 0.15878 0.0
O43 O 0.3696 0.26034 0.16261 0.0
O44 O 0.37511 0.255 0.14391 0.0
C45 C 0.37761 0.23467 0.1723 0.0
O46 O 0.39477 0.2376 0.1513 0.0
Co47 Co 0.40215 0.24281 0.17802 0.0
O48 O 0.4064 0.22978 0.1662 0.0
C49 C 0.40368 0.26612 0.1648 0.0
C50 C 0.36788 0.26121 0.15093 0.0
C51 C 0.40285 0.23006 0.15514 0.0
O52 O 0.39451 0.26298 0.15828 0.0
O53 O 0.40765 0.25971 0.17371 0.0
O54 O 0.3719 0.2354 0.16195 0.0
O55 O 0.38494 0.24354 0.1747 0.0
Co56 Co 0.9971 0.86009 0.08843 0.0
O57 O 0.9868 0.87361 0.08436 0.0
O58 O 0.99094 0.86733 0.10314 0.0
C59 C 0.01247 0.86474 0.07597 0.0
O60 O 0.00769 0.84716 0.09632 0.0
Co61 Co 0.00397 0.84033 0.06946 0.0
O62 O 0.01655 0.836 0.08165 0.0
C63 C 0.98012 0.83926 0.08141 0.0
C64 C 0.9855 0.87509 0.09605 0.0
C65 C 0.01553 0.83925 0.09276 0.0
O66 O 0.98295 0.84864 0.08783 0.0
O67 O 0.98704 0.8347 0.07323 0.0
O68 O 0.01131 0.87021 0.08641 0.0
O69 O 0.00359 0.85772 0.07278 0.0
Co70 Co 0.38264 0.7489 0.34018 0.0
O71 O 0.36974 0.73779 0.33635 0.0
O72 O 0.37467 0.74383 0.355 0.0
C73 C 0.37835 0.76301 0.32601 0.0
O74 O 0.39486 0.76064 0.34765 0.0
Co75 Co 0.40301 0.75419 0.32131 0.0
O76 O 0.40791 0.7669 0.33316 0.0
C77 C 0.40375 0.73146 0.33552 0.0
C78 C 0.36758 0.73746 0.34799 0.0
C79 C 0.40369 0.76736 0.34398 0.0
O80 O 0.39439 0.73494 0.34156 0.0
O81 O 0.40824 0.73749 0.32661 0.0
O82 O 0.37236 0.76268 0.33621 0.0
O83 O 0.38567 0.75399 0.32411 0.0
Co84 Co 0.49921 0.13709 0.58864 0.0
O85 O 0.50859 0.12298 0.58434 0.0
O86 O 0.50476 0.12913 0.60324 0.0
C87 C 0.48372 0.13393 0.57585 0.0
O88 O 0.48953 0.15058 0.59669 0.0
Co89 Co 0.49429 0.15768 0.56994 0.0
O90 O 0.48242 0.16332 0.58235 0.0
C91 C 0.51813 0.15627 0.58183 0.0
C92 C 0.50983 0.12126 0.596 0.0
C93 C 0.48281 0.15954 0.59334 0.0
O94 O 0.51415 0.14752 0.58852 0.0
O95 O 0.5119 0.16107 0.57322 0.0
O96 O 0.48429 0.12811 0.58617 0.0
O97 O 0.49316 0.14029 0.57299 0.0
Co98 Co 0.11497 0.24787 0.84074 0.0
O99 O 0.12747 0.25925 0.8364 0.0
O100 O 0.12337 0.25317 0.85524 0.0
C101 C 0.11905 0.23385 0.82645 0.0
O102 O 0.10326 0.23594 0.84866 0.0
Co103 Co 0.09408 0.24196 0.82272 0.0
O104 O 0.09118 0.22816 0.8341 0.0
C105 C 0.09354 0.26497 0.83654 0.0
C106 C 0.13006 0.25967 0.84795 0.0
C107 C 0.0953 0.2282 0.84497 0.0
O108 O 0.10295 0.26151 0.84252 0.0
O109 O 0.08908 0.25889 0.82763 0.0
O110 O 0.12538 0.23428 0.83642 0.0
O111 O 0.11149 0.24271 0.82482 0.0
Co112 Co 0.40228 0.00366 0.12928 0.0
O113 O 0.41016 0.01734 0.12196 0.0
O114 O 0.41534 0.00918 0.13972 0.0
C115 C 0.4015 0.99247 0.11217 0.0
O116 O 0.39649 0.98919 0.13935 0.0
Co117 Co 0.37675 0.99546 0.12053 0.0
O118 O 0.38118 0.98021 0.12923 0.0
C119 C 0.3792 0.01701 0.13652 0.0
C120 C 0.41728 0.01738 0.13136 0.0
C121 C 0.38913 0.98024 0.13766 0.0
O122 O 0.39058 0.01481 0.13783 0.0
O123 O 0.37232 0.01086 0.1294 0.0
O124 O 0.41133 0.99256 0.11871 0.0
O125 O 0.39302 -0.00025 0.11567 0.0
Co126 Co 0.24844 0.15817 0.38331 0.0
O127 O 0.25882 0.16182 0.36973 0.0
O128 O 0.25336 0.14324 0.37557 0.0
C129 C 0.23391 0.17183 0.37935 0.0
O130 O 0.23749 0.1508 0.39621 0.0
Co131 Co 0.24351 0.17718 0.40364 0.0
O132 O 0.23038 0.1657 0.40829 0.0
C133 C 0.26665 0.16385 0.40351 0.0
C134 C 0.25923 0.15011 0.36793 0.0
C135 C 0.23031 0.15468 0.40459 0.0
O136 O 0.26279 0.15737 0.39456 0.0
O137 O 0.26066 0.1728 0.40797 0.0
O138 O 0.23424 0.16154 0.3735 0.0
O139 O 0.24316 0.17416 0.38621 0.0
Co140 Co 0.09498 0.99213 0.63051 0.0
O141 O 0.08663 0.97936 0.62214 0.0
O142 O 0.0808 0.98744 0.63975 0.0
C143 C 0.09807 0.00385 0.61403 0.0
O144 O 0.10101 0.00579 0.64145 0.0
Co145 Co 0.12181 0.99805 0.62408 0.0
O146 O 0.11877 0.01276 0.6342 0.0
C147 C 0.11588 0.9758 0.63777 0.0
C148 C 0.07887 0.97964 0.63102 0.0
C149 C 0.10975 0.01355 0.64144 0.0
O150 O 0.10505 0.97977 0.63952 0.0
O151 O 0.12357 0.98112 0.63083 0.0
O152 O 0.08771 0.00425 0.61967 0.0
O153 O 0.10559 0.99572 0.61786 0.0
Co154 Co 0.24727 0.8402 0.88505 0.0
O155 O 0.2376 0.83684 0.87087 0.0
O156 O 0.24258 0.85529 0.87749 0.0
C157 C 0.2621 0.82677 0.88144 0.0
O158 O 0.25744 0.84732 0.89868 0.0
Co159 Co 0.25143 0.82068 0.90509 0.0
O160 O 0.26402 0.83227 0.91089 0.0
C161 C 0.22817 0.83375 0.90414 0.0
C162 C 0.23718 0.84859 0.86937 0.0
C163 C 0.26413 0.84337 0.90742 0.0
O164 O 0.23241 0.84055 0.89561 0.0
O165 O 0.23399 0.82467 0.90858 0.0
O166 O 0.26197 0.83722 0.87587 0.0
O167 O 0.25256 0.82418 0.88778 0.0
Co168 Co 0.39984 0.99244 0.36862 0.0
O169 O 0.40632 0.97786 0.37563 0.0
O170 O 0.41348 0.98688 0.35903 0.0
C171 C 0.39802 0.00277 0.38621 0.0
O172 O 0.39562 0.00771 0.35897 0.0
Co173 Co 0.37389 0.00101 0.37552 0.0
O174 O 0.37864 0.01603 0.36665 0.0
C175 C 0.37711 0.98001 0.3591 0.0
C176 C 0.4141 0.9779 0.36676 0.0
C177 C 0.38774 0.01635 0.35948 0.0
O178 O 0.3885 0.98236 0.35844 0.0
O179 O 0.36986 0.98577 0.36618 0.0
O180 O 0.4084 0.00244 0.38059 0.0
O181 O 0.38958 0.99606 0.38161 0.0
Co182 Co 0.24659 0.16221 0.61166 0.0
O183 O 0.2359 0.16709 0.62463 0.0
O184 O 0.23965 0.14798 0.61914 0.0
C185 C 0.26212 0.17444 0.61643 0.0
O186 O 0.25743 0.15349 0.59946 0.0
Co187 Co 0.25487 0.18013 0.59143 0.0
O188 O 0.2674 0.1675 0.5884 0.0
C189 C 0.23064 0.16905 0.58993 0.0
C190 C 0.23413 0.15551 0.62641 0.0
C191 C 0.26584 0.15655 0.59194 0.0
O192 O 0.23291 0.16281 0.59959 0.0
O193 O 0.23799 0.17686 0.58541 0.0
O194 O 0.26047 0.16429 0.6223 0.0
O195 O 0.25363 0.17751 0.6089 0.0
Co196 Co 0.09553 0.00316 0.86645 0.0
O197 O 0.08673 0.01642 0.87351 0.0
O198 O 0.08241 0.00783 0.8557 0.0
C199 C 0.09671 0.99207 0.88363 0.0
O200 O 0.1023 0.989 0.85664 0.0
Co201 Co 0.12143 0.99686 0.87567 0.0
O202 O 0.11853 0.98148 0.86651 0.0
C203 C 0.11776 0.0181 0.85965 0.0
C204 C 0.07986 0.01599 0.86393 0.0
C205 C 0.11051 0.98081 0.85817 0.0
O206 O 0.1067 0.01485 0.85789 0.0
O207 O 0.12484 0.01278 0.86722 0.0
O208 O 0.08697 0.99163 0.87698 0.0
O209 O 0.10478 -0.00013 0.88026 0.0
Co210 Co 0.24934 0.83748 0.11103 0.0
O211 O 0.2594 0.83367 0.12481 0.0
O212 O 0.25424 0.85232 0.11893 0.0
C213 C 0.2346 0.82396 0.11456 0.0
O214 O 0.23875 0.84504 0.09794 0.0
Co215 Co 0.24475 0.81861 0.09045 0.0
O216 O 0.23243 0.83058 0.08489 0.0
C217 C 0.26801 0.83163 0.09129 0.0
C218 C 0.25988 0.84537 0.12667 0.0
C219 C 0.23218 0.84146 0.08895 0.0
O220 O 0.26394 0.83818 0.1001 0.0
O221 O 0.26209 0.82271 0.08668 0.0
O222 O 0.23492 0.8342 0.12051 0.0
O223 O 0.24397 0.82157 0.10789 0.0
Co224 Co 0.13248 0.40591 -0.00152 0.0
O225 O 0.12024 0.40984 0.98668 0.0
O226 O 0.12484 0.39114 0.99279 0.0
C227 C 0.12728 0.41992 0.01243 0.0
O228 O 0.14405 0.39838 0.01084 0.0
Co229 Co 0.15243 0.4247 0.00513 0.0
O230 O 0.15571 0.41321 0.01872 0.0
C231 C 0.15444 0.41089 0.98221 0.0
C232 C 0.11809 0.39821 0.98613 0.0
C233 C 0.15189 0.40224 0.01863 0.0
O234 O 0.14503 0.40469 0.98525 0.0
O235 O 0.15846 0.41984 0.98853 0.0
O236 O 0.12139 0.4097 0.01166 0.0
O237 O 0.13513 0.42192 0.0039 0.0
Co238 Co 0.63087 0.08937 -0.00097 0.0
O239 O 0.61794 0.0858 0.01019 0.0
O240 O 0.6232 0.10434 0.00412 0.0
C241 C 0.62626 0.07526 0.98497 0.0
O242 O 0.6432 0.09654 0.98726 0.0
Co243 Co 0.65082 0.07015 0.99365 0.0
O244 O 0.655 0.08144 0.98014 0.0
C245 C 0.65177 0.08413 0.01655 0.0
C246 C 0.616 0.09747 0.01052 0.0
C247 C 0.65135 0.09246 0.97992 0.0
O248 O 0.64271 0.09055 0.01292 0.0
O249 O 0.65587 0.07499 0.01058 0.0
O250 O 0.62048 0.08557 0.98526 0.0
O251 O 0.63355 0.07326 0.99399 0.0
Co252 Co 0.15433 0.37976 0.24314 0.0
O253 O 0.16268 0.37202 0.22998 0.0
O254 O 0.16785 0.38981 0.23806 0.0
C255 C 0.15259 0.363 0.25474 0.0
O256 O 0.14806 0.39022 0.25706 0.0
Co257 Co 0.12811 0.37162 0.24969 0.0
O258 O 0.13074 0.38212 0.26423 0.0
C259 C 0.13237 0.38664 0.22791 0.0
C260 C 0.16995 0.3813 0.23006 0.0
C261 C 0.13935 0.38986 0.26486 0.0
O262 O 0.14339 0.38839 0.23128 0.0
O263 O 0.12513 0.37931 0.23333 0.0
O264 O 0.16259 0.36927 0.2549 0.0
O265 O 0.1446 0.36643 0.24688 0.0
Co266 Co 0.8649 0.90725 0.49755 0.0
O267 O 0.87839 0.91072 0.50805 0.0
O268 O 0.87296 0.89226 0.5019 0.0
C269 C 0.86853 0.92163 0.48347 0.0
O270 O 0.85203 0.9002 0.48633 0.0
Co271 Co 0.84449 0.92643 0.49404 0.0
O272 O 0.83868 0.9149 0.48138 0.0
C273 C 0.84511 0.9119 0.51653 0.0
C274 C 0.88042 0.89906 0.50806 0.0
C275 C 0.84282 0.9041 0.4803 0.0
O276 O 0.85384 0.90558 0.51203 0.0
O277 O 0.84071 0.92131 0.51122 0.0
O278 O 0.87448 0.91141 0.48332 0.0
O279 O 0.86177 0.92343 0.49295 0.0
Co280 Co 0.84487 0.11702 0.24263 0.0
O281 O 0.8361 0.12436 0.22952 0.0
O282 O 0.83121 0.1068 0.23827 0.0
C283 C 0.84698 0.13409 0.2537 0.0
O284 O 0.85163 0.10705 0.25671 0.0
Co285 Co 0.8713 0.12545 0.24794 0.0
O286 O 0.86898 0.11575 0.26308 0.0
C287 C 0.86637 0.1095 0.22697 0.0
C288 C 0.82885 0.11508 0.23009 0.0
C289 C 0.8605 0.10794 0.2643 0.0
O290 O 0.85543 0.10801 0.23071 0.0
O291 O 0.87382 0.11698 0.23189 0.0
O292 O 0.83697 0.12786 0.25434 0.0
O293 O 0.85468 0.13047 0.24564 0.0
Co294 Co 0.36473 0.58948 0.49796 0.0
O295 O 0.37753 0.58559 0.48675 0.0
O296 O 0.37226 0.60429 0.49228 0.0
C297 C 0.36965 0.57586 0.51238 0.0
O298 O 0.35257 0.59707 0.50968 0.0
Co299 Co 0.34484 0.57057 0.50444 0.0
O300 O 0.34096 0.58226 0.51767 0.0
C301 C 0.34323 0.58401 0.48126 0.0
C302 C 0.37944 0.59726 0.48605 0.0
C303 C 0.34458 0.59329 0.51736 0.0
O304 O 0.35271 0.59016 0.4842 0.0
O305 O 0.3389 0.57539 0.4878 0.0
O306 O 0.37537 0.58618 0.51163 0.0
O307 O 0.36214 0.57353 0.50362 0.0
Co308 Co 0.15044 0.61608 0.25387 0.0
O309 O 0.15715 0.62362 0.26806 0.0
O310 O 0.1638 0.60635 0.25997 0.0
C311 C 0.14924 0.63321 0.24271 0.0
O312 O 0.14584 0.60591 0.23905 0.0
Co313 Co 0.12472 0.62361 0.24502 0.0
O314 O 0.12992 0.61498 0.22994 0.0
C315 C 0.1275 0.60846 0.26701 0.0
C316 C 0.16471 0.61458 0.26849 0.0
C317 C 0.13848 0.60716 0.23003 0.0
O318 O 0.13874 0.6068 0.26441 0.0
O319 O 0.1206 0.61575 0.26109 0.0
O320 O 0.15941 0.62725 0.24329 0.0
O321 O 0.14067 0.62922 0.24962 0.0
Co322 Co 0.3423 0.38029 0.75235 0.0
O323 O 0.33447 0.37336 0.76629 0.0
O324 O 0.32952 0.39108 0.75784 0.0
C325 C 0.34276 0.36289 0.74159 0.0
O326 O 0.34801 0.39001 0.7376 0.0
Co327 Co 0.36757 0.3712 0.74385 0.0
O328 O 0.36302 0.3796 0.72847 0.0
C329 C 0.3657 0.38781 0.76499 0.0
C330 C 0.32759 0.38294 0.76625 0.0
C331 C 0.35518 0.38813 0.72854 0.0
O332 O 0.35424 0.38892 0.76318 0.0
O333 O 0.37249 0.3807 0.75872 0.0
O334 O 0.33301 0.36956 0.74158 0.0
O335 O 0.35138 0.36651 0.74864 0.0
Co336 Co -0.001 0.86412 0.59099 0.0
O337 O 0.00967 0.87779 0.58867 0.0
O338 O 0.00344 0.87078 0.60657 0.0
C339 C 0.98506 0.86926 0.57702 0.0
O340 O 0.98766 0.85102 0.59725 0.0
Co341 Co 0.99401 0.84497 0.57086 0.0
O342 O 0.98059 0.83974 0.58174 0.0
C343 C 0.01666 0.84352 0.58503 0.0
C344 C 0.0096 0.87883 0.60049 0.0
C345 C 0.98044 0.84292 0.59291 0.0
O346 O 0.0132 0.85262 0.59155 0.0
O347 O 0.01058 0.83938 0.57599 0.0
O348 O 0.98506 0.87435 0.58771 0.0
O349 O 0.99422 0.86228 0.57462 0.0
Co350 Co 0.88485 0.25019 0.34203 0.0
O351 O 0.87284 0.26195 0.33747 0.0
O352 O 0.87831 0.25769 0.35649 0.0
C353 C 0.87823 0.23526 0.3298 0.0
O354 O 0.89624 0.23825 0.3503 0.0
Co355 Co 0.90354 0.24052 0.32342 0.0
O356 O 0.90643 0.2278 0.336 0.0
C357 C 0.90713 0.26478 0.33427 0.0
C358 C 0.87134 0.26375 0.34908 0.0
C359 C 0.90321 0.22944 0.34704 0.0
O360 O 0.8979 0.26289 0.34115 0.0
O361 O 0.91053 0.25727 0.326 0.0
O362 O 0.87308 0.23722 0.34026 0.0
O363 O 0.88641 0.24308 0.32654 0.0
Co364 Co 0.49743 0.13309 0.09392 0.0
O365 O 0.4865 0.11959 0.09191 0.0
O366 O 0.49281 0.12688 0.10968 0.0
C367 C 0.51127 0.1273 0.08009 0.0
O368 O 0.50901 0.1462 0.09978 0.0
Co369 Co 0.50262 0.15149 0.07313 0.0
O370 O 0.51636 0.15651 0.08371 0.0
C371 C 0.47984 0.15346 0.08703 0.0
C372 C 0.4865 0.11882 0.10375 0.0
C373 C 0.51648 0.15384 0.09502 0.0
O374 O 0.48346 0.14488 0.09413 0.0
O375 O 0.48581 0.15696 0.07765 0.0
O376 O 0.51119 0.12251 0.09092 0.0
O377 O 0.50223 0.13436 0.07753 0.0
Co378 Co 0.61334 0.74562 0.83972 0.0
O379 O 0.62541 0.73338 0.83669 0.0
O380 O 0.61926 0.73943 0.85498 0.0
C381 C 0.6205 0.75944 0.82653 0.0
O382 O 0.60181 0.75823 0.84666 0.0
Co383 Co 0.59527 0.75416 0.81998 0.0
O384 O 0.59135 0.76736 0.83169 0.0
C385 C 0.59082 0.73103 0.83286 0.0
C386 C 0.62644 0.73266 0.84848 0.0
C387 C 0.5945 0.7665 0.84284 0.0
O388 O 0.60023 0.73297 0.83947 0.0
O389 O 0.58745 0.73813 0.82423 0.0
O390 O 0.62529 0.75828 0.83729 0.0
O391 O 0.61231 0.75148 0.82363 0.0
Co392 Co -0.00064 0.13005 0.90311 0.0
O393 O 0.0105 0.11664 0.90453 0.0
O394 O 0.00347 0.12412 0.88711 0.0
C395 C 0.98593 0.12411 0.91728 0.0
O396 O 0.98751 0.14319 0.89793 0.0
Co397 Co 0.9952 0.14811 0.92445 0.0
O398 O 0.98122 0.15358 0.91441 0.0
C399 C 0.0174 0.15015 0.90975 0.0
C400 C 0.01017 0.11613 0.89268 0.0
C401 C 0.98047 0.15096 0.9031 0.0
O402 O 0.01324 0.14192 0.90254 0.0
O403 O 0.01199 0.15335 0.91959 0.0
O404 O 0.98576 0.11936 0.90643 0.0
O405 O 0.99511 0.13107 0.91967 0.0
Co406 Co 0.61309 0.25168 0.65417 0.0
O407 O 0.62526 0.26376 0.65745 0.0
O408 O 0.61937 0.25781 0.63903 0.0
C409 C 0.61985 0.23774 0.66744 0.0
O410 O 0.60154 0.23923 0.64697 0.0
Co411 Co 0.59456 0.24319 0.67348 0.0
O412 O 0.59143 0.22965 0.66189 0.0
C413 C 0.59081 0.26663 0.66094 0.0
C414 C 0.62654 0.26446 0.64568 0.0
C415 C 0.59455 0.23067 0.65075 0.0
O416 O 0.60017 0.26453 0.65431 0.0
O417 O 0.58722 0.2595 0.66945 0.0
O418 O 0.62483 0.23886 0.65677 0.0
O419 O 0.6117 0.24578 0.67021 0.0
Co420 Co 0.49831 0.86447 0.40398 0.0
O421 O 0.48838 0.8787 0.40614 0.0
O422 O 0.49319 0.8705 0.3883 0.0
C423 C 0.51319 0.86984 0.4168 0.0
O424 O 0.50877 0.85051 0.39793 0.0
Co425 Co 0.5035 0.84642 0.42498 0.0
O426 O 0.51642 0.84035 0.41394 0.0
C427 C 0.48022 0.84491 0.41193 0.0
C428 C 0.48772 0.8791 0.39431 0.0
C429 C 0.51609 0.84265 0.40255 0.0
O430 O 0.48364 0.85361 0.40487 0.0
O431 O 0.48661 0.84094 0.42083 0.0
O432 O 0.51285 0.87418 0.40579 0.0
O433 O 0.5039 0.86347 0.42018 0.0
Co434 Co 0.88247 0.7476 0.15546 0.0
O435 O 0.86976 0.73582 0.15723 0.0
O436 O 0.87672 0.74285 0.13959 0.0
C437 C 0.87558 0.76078 0.1694 0.0
O438 O 0.89479 0.76008 0.14989 0.0
Co439 Co 0.90019 0.75344 0.17641 0.0
O440 O 0.90605 0.76671 0.1656 0.0
C441 C 0.90362 0.73097 0.1622 0.0
C442 C 0.86907 0.73597 0.1454 0.0
C443 C 0.90284 0.76718 0.15445 0.0
O444 O 0.89494 0.73429 0.15514 0.0
O445 O 0.9067 0.73696 0.17173 0.0
O446 O 0.87117 0.76071 0.15842 0.0
O447 O 0.88315 0.75215 0.17202 0.0
Co448 Co 0.59031 0.99589 0.86401 0.0
O449 O 0.58715 0.00632 0.87765 0.0
O450 O 0.60545 0.00127 0.87101 0.0
C451 C 0.57716 0.98115 0.86903 0.0
O452 O 0.59702 0.9849 0.85066 0.0
Co453 Co 0.57004 0.99071 0.84509 0.0
O454 O 0.58143 0.97792 0.83944 0.0
C455 C 0.58278 0.01425 0.8445 0.0
C456 C 0.59881 0.00708 0.87892 0.0
C457 C 0.59261 0.97785 0.84238 0.0
O458 O 0.59011 0.01033 0.85272 0.0
O459 O 0.57361 0.00814 0.84079 0.0
O460 O 0.58779 0.98158 0.87409 0.0
O461 O 0.57434 0.99034 0.86221 0.0
Co462 Co 0.74896 0.84345 0.61582 0.0
O463 O 0.73816 0.84136 0.62944 0.0
O464 O 0.74438 0.85915 0.62215 0.0
C465 C 0.76289 0.82961 0.62137 0.0
O466 O 0.76042 0.8494 0.60264 0.0
Co467 Co 0.75407 0.82278 0.59724 0.0
O468 O 0.76783 0.83339 0.59229 0.0
C469 C 0.73122 0.83662 0.59554 0.0
C470 C 0.73814 0.85319 0.63024 0.0
C471 C 0.7679 0.84469 0.59499 0.0
O472 O 0.7349 0.84371 0.60413 0.0
O473 O 0.73718 0.82725 0.592 0.0
O474 O 0.76284 0.84039 0.62627 0.0
O475 O 0.75377 0.8271 0.61439 0.0
Co476 Co 0.90773 -0.00053 0.36426 0.0
O477 O 0.90961 0.98886 0.37802 0.0
O478 O 0.89198 0.99484 0.37039 0.0
C479 C 0.92129 0.01357 0.36996 0.0
O480 O 0.90229 0.01079 0.35062 0.0
Co481 Co 0.92923 0.00371 0.34645 0.0
O482 O 0.91875 0.01707 0.34028 0.0
C483 C 0.91539 0.98085 0.34503 0.0
C484 C 0.89787 0.9887 0.37864 0.0
C485 C 0.90744 0.01765 0.34263 0.0
O486 O 0.90782 0.98509 0.35288 0.0
O487 O 0.92507 0.98648 0.34192 0.0
O488 O 0.91043 0.01363 0.37453 0.0
O489 O 0.924 0.00423 0.3633 0.0
Co490 Co 0.74808 0.15296 0.11528 0.0
O491 O 0.75853 0.15495 0.12918 0.0
O492 O 0.75212 0.13722 0.12192 0.0
C493 C 0.73434 0.1672 0.1203 0.0
O494 O 0.73685 0.14714 0.10185 0.0
Co495 Co 0.74418 0.17352 0.09633 0.0
O496 O 0.73072 0.16301 0.09049 0.0
C497 C 0.76663 0.15903 0.09547 0.0
C498 C 0.75826 0.14313 0.13012 0.0
C499 C 0.73007 0.15182 0.09355 0.0
O500 O 0.76247 0.15219 0.10403 0.0
O501 O 0.76107 0.16853 0.09161 0.0
O502 O 0.734 0.15646 0.12528 0.0
O503 O 0.74371 0.16944 0.11356 0.0
Co504 Co 0.58807 -0.00083 0.63505 0.0
O505 O 0.58536 0.98998 0.62044 0.0
O506 O 0.60332 0.99314 0.62893 0.0
C507 C 0.57649 0.01517 0.63019 0.0
O508 O 0.59449 0.00866 0.64962 0.0
Co509 Co 0.56701 0.00472 0.65285 0.0
O510 O 0.57867 0.01663 0.65973 0.0
C511 C 0.57813 0.98039 0.65305 0.0
C512 C 0.59701 0.98839 0.62011 0.0
C513 C 0.59002 0.01586 0.65771 0.0
O514 O 0.58593 0.98402 0.64514 0.0
O515 O 0.56945 0.98706 0.65696 0.0
O516 O 0.58746 0.01431 0.626 0.0
O517 O 0.5724 0.00577 0.63602 0.0
Co518 Co 0.7473 0.84151 0.3836 0.0
O519 O 0.75827 0.83879 0.37024 0.0
O520 O 0.75236 0.85692 0.37695 0.0
C521 C 0.73317 0.82784 0.37825 0.0
O522 O 0.73578 0.84808 0.39646 0.0
Co523 Co 0.74164 0.82152 0.40272 0.0
O524 O 0.72814 0.83255 0.40735 0.0
C525 C 0.7645 0.83521 0.40453 0.0
C526 C 0.75866 0.85059 0.36919 0.0
C527 C 0.72823 0.84375 0.40428 0.0
O528 O 0.76124 0.84179 0.3954 0.0
O529 O 0.75822 0.82629 0.40862 0.0
O530 O 0.73352 0.83849 0.37306 0.0
O531 O 0.74214 0.8253 0.38542 0.0
Co532 Co 0.90616 0.99641 0.13232 0.0
O533 O 0.90992 0.00726 0.11914 0.0
O534 O 0.89136 0.00225 0.12508 0.0
C535 C 0.91919 0.98155 0.12736 0.0
O536 O 0.89875 0.98514 0.14505 0.0
Co537 Co 0.92554 0.99027 0.15189 0.0
O538 O 0.9136 0.9778 0.15702 0.0
C539 C 0.91308 0.0139 0.15285 0.0
C540 C 0.8983 0.00829 0.11764 0.0
C541 C 0.9026 0.97797 0.15349 0.0
O542 O 0.90624 0.01051 0.14401 0.0
O543 O 0.92181 0.00744 0.15701 0.0
O544 O 0.90878 0.98238 0.12191 0.0
O545 O 0.92196 0.99049 0.13455 0.0
Co546 Co 0.74677 0.15438 0.88303 0.0
O547 O 0.73643 0.15691 0.86915 0.0
O548 O 0.74224 0.13888 0.87618 0.0
C549 C 0.76099 0.16817 0.87822 0.0
O550 O 0.75773 0.14802 0.89643 0.0
Co551 Co 0.75133 0.17462 0.90221 0.0
O552 O 0.76434 0.16353 0.90801 0.0
C553 C 0.72844 0.16081 0.90292 0.0
C554 C 0.73635 0.14511 0.86803 0.0
C555 C 0.7646 0.15236 0.90484 0.0
O556 O 0.73234 0.15396 0.89425 0.0
O557 O 0.73431 0.17007 0.90688 0.0
O558 O 0.76097 0.15748 0.87311 0.0
O559 O 0.75169 0.17066 0.88496 0.0
Co560 Co 0.86266 0.59298 7e-05 0.0
O561 O 0.87485 0.58992 0.01213 0.0
O562 O 0.86875 0.60825 0.00613 0.0
C563 C 0.86955 0.57981 0.98614 0.0
O564 O 0.85094 0.59982 0.98754 0.0
Co565 Co 0.84446 0.57301 0.99226 0.0
O566 O 0.8399 0.58472 0.97928 0.0
C567 C 0.8408 0.58577 0.01551 0.0
C568 C 0.87595 0.60169 0.01284 0.0
C569 C 0.84325 0.59583 0.9797 0.0
O570 O 0.84982 0.59272 0.013 0.0
O571 O 0.8374 0.57693 0.0087 0.0
O572 O 0.87438 0.59054 0.98721 0.0
O573 O 0.86155 0.57689 0.99429 0.0
Co574 Co 0.36594 0.90274 0.99716 0.0
O575 O 0.37783 0.90497 0.98464 0.0
O576 O 0.37111 0.88707 0.99123 0.0
C577 C 0.37391 0.91586 0.01056 0.0
O578 O 0.3543 0.89677 0.01016 0.0
Co579 Co 0.34904 0.92377 0.00513 0.0
O580 O 0.34476 0.91267 0.01876 0.0
C581 C 0.34396 0.91072 0.98226 0.0
C582 C 0.37839 0.89315 0.98416 0.0
C583 C 0.34731 0.90134 0.01835 0.0
O584 O 0.35263 0.90331 0.98473 0.0
O585 O 0.34144 0.92 0.98887 0.0
O586 O 0.37821 0.90489 0.00957 0.0
O587 O 0.3658 0.91896 0.00261 0.0
Co588 Co 0.8393 0.61526 0.75019 0.0
O589 O 0.83637 0.62959 0.74064 0.0
O590 O 0.85454 0.62205 0.74489 0.0
C591 C 0.82662 0.6197 0.7655 0.0
O592 O 0.84583 0.60111 0.76018 0.0
Co593 Co 0.81865 0.59659 0.7546 0.0
O594 O 0.83019 0.58968 0.76664 0.0
C595 C 0.8309 0.59712 0.73082 0.0
C596 C 0.84806 0.63046 0.73966 0.0
C597 C 0.84142 0.59243 0.76669 0.0
O598 O 0.8385 0.60489 0.73512 0.0
O599 O 0.82172 0.59328 0.73684 0.0
O600 O 0.83737 0.62451 0.76513 0.0
O601 O 0.8234 0.61356 0.75596 0.0
Co602 Co 0.13362 0.09337 0.49823 0.0
O603 O 0.12024 0.08951 0.4878 0.0
O604 O 0.1266 0.10823 0.49208 0.0
C605 C 0.12861 0.08075 0.51344 0.0
O606 O 0.14648 0.10091 0.50908 0.0
Co607 Co 0.15284 0.0739 0.50465 0.0
O608 O 0.15857 0.08622 0.51659 0.0
C609 C 0.15378 0.08577 0.48067 0.0
C610 C 0.11886 0.1012 0.48656 0.0
C611 C 0.15502 0.09727 0.51617 0.0
O612 O 0.14509 0.09281 0.48402 0.0
O613 O 0.15772 0.077 0.48727 0.0
O614 O 0.12346 0.09135 0.51247 0.0
O615 O 0.13562 0.07758 0.50452 0.0
Co616 Co 0.1579 0.88177 0.74839 0.0
O617 O 0.16036 0.8673 0.73891 0.0
O618 O 0.14243 0.87464 0.74431 0.0
C619 C 0.17165 0.87781 0.76288 0.0
O620 O 0.15186 0.89598 0.75867 0.0
Co621 Co 0.17856 0.90081 0.75098 0.0
O622 O 0.16768 0.90806 0.76338 0.0
C623 C 0.16456 0.89981 0.72823 0.0
C624 C 0.14865 0.86621 0.7388 0.0
C625 C 0.15658 0.90501 0.76446 0.0
O626 O 0.1575 0.89184 0.73307 0.0
O627 O 0.17395 0.90406 0.73358 0.0
O628 O 0.16098 0.87282 0.76329 0.0
O629 O 0.17414 0.88381 0.75303 0.0
Co630 Co 0.63341 0.40165 0.4992 0.0
O631 O 0.62057 0.4048 0.51057 0.0
O632 O 0.62745 0.38646 0.50558 0.0
C633 C 0.62673 0.41418 0.48454 0.0
O634 O 0.64581 0.3946 0.48749 0.0
Co635 Co 0.65145 0.42153 0.49101 0.0
O636 O 0.65569 0.40972 0.47799 0.0
C637 C 0.6547 0.40983 0.51495 0.0
C638 C 0.61972 0.39303 0.51164 0.0
C639 C 0.653 0.39849 0.47914 0.0
O640 O 0.64571 0.40276 0.51265 0.0
O641 O 0.65826 0.41827 0.50772 0.0
O642 O 0.62219 0.40333 0.48576 0.0
O643 O 0.63437 0.41756 0.49286 0.0
Co644 Co 0.83982 0.38167 0.74749 0.0
O645 O 0.83611 0.36837 0.75823 0.0
O646 O 0.85465 0.37438 0.75325 0.0
C647 C 0.8267 0.37668 0.73271 0.0
O648 O 0.8472 0.39448 0.73628 0.0
Co649 Co 0.82047 0.40119 0.74116 0.0
O650 O 0.83205 0.40536 0.72799 0.0
C651 C 0.83303 0.40234 0.76482 0.0
C652 C 0.84773 0.36679 0.75913 0.0
C653 C 0.84317 0.40225 0.72848 0.0
O654 O 0.83975 0.39331 0.76164 0.0
O655 O 0.82443 0.40654 0.75822 0.0
O656 O 0.83716 0.37131 0.73342 0.0
O657 O 0.824 0.38389 0.74165 0.0
Co658 Co 0.65815 0.61243 0.24776 0.0
O659 O 0.66105 0.6257 0.25876 0.0
O660 O 0.6429 0.6195 0.25268 0.0
C661 C 0.67199 0.61773 0.23379 0.0
O662 O 0.65169 0.59956 0.23604 0.0
Co663 Co 0.67816 0.59326 0.24261 0.0
O664 O 0.66758 0.58914 0.22861 0.0
C665 C 0.66408 0.59168 0.26535 0.0
C666 C 0.64938 0.62715 0.25898 0.0
C667 C 0.65639 0.592 0.2284 0.0
O668 O 0.65755 0.60072 0.26184 0.0
O669 O 0.67309 0.58756 0.25926 0.0
O670 O 0.66142 0.62293 0.23396 0.0
O671 O 0.67433 0.61051 0.24283 0.0
Co672 Co 0.49712 0.63434 0.90847 0.0
O673 O 0.48748 0.62013 0.91178 0.0
O674 O 0.49279 0.62658 0.89336 0.0
C675 C 0.51172 0.63099 0.92223 0.0
O676 O 0.50737 0.64794 0.90139 0.0
Co677 Co 0.50064 0.65463 0.92785 0.0
O678 O 0.51272 0.66115 0.91611 0.0
C679 C 0.4777 0.65334 0.91427 0.0
C680 C 0.4873 0.6185 0.90004 0.0
C681 C 0.51336 0.65724 0.90519 0.0
O682 O 0.48217 0.64476 0.90769 0.0
O683 O 0.48329 0.65797 0.9234 0.0
O684 O 0.5118 0.62532 0.91183 0.0
O685 O 0.50208 0.63729 0.92459 0.0
Co686 Co 0.61551 0.25069 0.1551 0.0
O687 O 0.62832 0.23948 0.15889 0.0
O688 O 0.62366 0.24583 0.14028 0.0
C689 C 0.61964 0.26453 0.16956 0.0
O690 O 0.60339 0.26259 0.14778 0.0
Co691 Co 0.59499 0.25539 0.17393 0.0
O692 O 0.59027 0.26846 0.16236 0.0
C693 C 0.5949 0.23267 0.15977 0.0
C694 C 0.63062 0.23931 0.14728 0.0
C695 C 0.59457 0.26926 0.1516 0.0
O696 O 0.60375 0.23678 0.15334 0.0
O697 O 0.59072 0.23826 0.16911 0.0
O698 O 0.62576 0.26439 0.15944 0.0
O699 O 0.61234 0.25546 0.17121 0.0
Co700 Co -0.00053 0.36185 0.40992 0.0
O701 O 0.00893 0.37574 0.41473 0.0
O702 O 0.00576 0.36983 0.39563 0.0
C703 C 0.98351 0.36527 0.42205 0.0
O704 O 0.98978 0.34865 0.40135 0.0
Co705 Co 0.99321 0.34125 0.42826 0.0
O706 O 0.98153 0.33628 0.4154 0.0
C707 C 0.01749 0.34197 0.41719 0.0
C708 C 0.01058 0.37761 0.40315 0.0
C709 C 0.98252 0.34002 0.40444 0.0
O710 O 0.01415 0.35105 0.41058 0.0
O711 O 0.01073 0.33719 0.42538 0.0
O712 O 0.98467 0.37117 0.41184 0.0
O713 O 0.99268 0.35866 0.42526 0.0
Co714 Co 0.88328 0.74899 0.65627 0.0
O715 O 0.87012 0.75976 0.6601 0.0
O716 O 0.87552 0.75427 0.64141 0.0
C717 C 0.87892 0.73456 0.67006 0.0
O718 O 0.89586 0.73767 0.64882 0.0
Co719 Co 0.90333 0.74353 0.67537 0.0
O720 O 0.90807 0.73061 0.66363 0.0
C721 C 0.90369 0.76685 0.66211 0.0
C722 C 0.86818 0.76034 0.64843 0.0
C723 C 0.90432 0.73055 0.65263 0.0
O724 O 0.89481 0.76314 0.65548 0.0
O725 O 0.90787 0.76075 0.67113 0.0
O726 O 0.87318 0.73493 0.65973 0.0
O727 O 0.88605 0.74365 0.67227 0.0
Co728 Co 0.49698 0.36346 0.58693 0.0
O729 O 0.48686 0.37727 0.5834 0.0
O730 O 0.49236 0.37127 0.60192 0.0
C731 C 0.51152 0.36709 0.5732 0.0
O732 O 0.50771 0.35033 0.5942 0.0
Co733 Co 0.50118 0.34303 0.56785 0.0
O734 O 0.51377 0.33741 0.5795 0.0
C735 C 0.47829 0.34358 0.58154 0.0
C736 C 0.48661 0.37905 0.59512 0.0
C737 C 0.51422 0.34138 0.59042 0.0
O738 O 0.48239 0.35254 0.58786 0.0
O739 O 0.48407 0.33891 0.57256 0.0
O740 O 0.51134 0.37294 0.58349 0.0
O741 O 0.50209 0.36045 0.57086 0.0
Co742 Co 0.88172 0.24777 0.84285 0.0
O743 O 0.86868 0.23677 0.8393 0.0
O744 O 0.87418 0.24259 0.85786 0.0
C745 C 0.87701 0.26199 0.82895 0.0
O746 O 0.89422 0.25935 0.85001 0.0
Co747 Co 0.90147 0.25322 0.82347 0.0
O748 O 0.90592 0.26655 0.83486 0.0
C749 C 0.9025 0.23022 0.83726 0.0
C750 C 0.86686 0.23632 0.85099 0.0
C751 C 0.9024 0.26666 0.84594 0.0
O752 O 0.89345 0.23378 0.84372 0.0
O753 O 0.90664 0.23631 0.8282 0.0
O754 O 0.8714 0.26165 0.83936 0.0
O755 O 0.88422 0.25296 0.82674 0.0
Co756 Co -0.00115 0.63393 0.08902 0.0
O757 O 0.00887 0.62001 0.08577 0.0
O758 O 0.00409 0.62689 0.10419 0.0
C759 C 0.98394 0.62947 0.07596 0.0
O760 O 0.98837 0.6474 0.09606 0.0
Co761 Co 0.99368 0.65339 0.06922 0.0
O762 O 0.98111 0.65904 0.08089 0.0
C763 C 0.01719 0.65351 0.08186 0.0
C764 C 0.0096 0.6188 0.09754 0.0
C765 C 0.98132 0.65582 0.09206 0.0
O766 O 0.01339 0.64489 0.08881 0.0
O767 O 0.01099 0.65775 0.07295 0.0
O768 O 0.98442 0.62424 0.08658 0.0
O769 O 0.99319 0.63611 0.07303 0.0
Co770 Co 0.61386 0.74734 0.33959 0.0
O771 O 0.62688 0.75841 0.33608 0.0
O772 O 0.62125 0.75264 0.35462 0.0
C773 C 0.61867 0.73306 0.32581 0.0
O774 O 0.60142 0.73573 0.34679 0.0
Co775 Co 0.59418 0.74158 0.32023 0.0
O776 O 0.58954 0.72847 0.33182 0.0
C777 C 0.59291 0.76466 0.33388 0.0
C778 C 0.6286 0.7589 0.34779 0.0
C779 C 0.59316 0.72845 0.34286 0.0
O780 O 0.60201 0.76124 0.34036 0.0
O781 O 0.58885 0.75848 0.32485 0.0
O782 O 0.62427 0.73351 0.33622 0.0
O783 O 0.61143 0.74204 0.32351 0.0
Co784 Co 0.89646 0.50413 0.63043 0.0
O785 O 0.90314 0.51807 0.62241 0.0
O786 O 0.91005 0.51037 0.63975 0.0
C787 C 0.89488 0.49247 0.61368 0.0
O788 O 0.89195 0.48953 0.64106 0.0
Co789 Co 0.87042 0.49568 0.62352 0.0
O790 O 0.87476 0.48136 0.63361 0.0
C791 C 0.87369 0.51751 0.6387 0.0
C792 C 0.91086 0.51868 0.6313 0.0
C793 C 0.88375 0.48116 0.64091 0.0
O794 O 0.88505 0.51507 0.63964 0.0
O795 O 0.86642 0.5114 0.63196 0.0
O796 O 0.90516 0.49322 0.61941 0.0
O797 O 0.88643 0.49961 0.61755 0.0
Co798 Co 0.74933 0.6589 0.88693 0.0
O799 O 0.75944 0.66279 0.87321 0.0
O800 O 0.75551 0.64411 0.8799 0.0
C801 C 0.73382 0.67114 0.88221 0.0
O802 O 0.73896 0.65113 0.9001 0.0
Co803 Co 0.74247 0.67808 0.90647 0.0
O804 O 0.73032 0.66573 0.9115 0.0
C805 C 0.76655 0.66662 0.90731 0.0
C806 C 0.76079 0.65108 0.87193 0.0
C807 C 0.73134 0.65463 0.90825 0.0
O808 O 0.76364 0.65988 0.89819 0.0
O809 O 0.75959 0.67481 0.91178 0.0
O810 O 0.73499 0.66059 0.87695 0.0
O811 O 0.74273 0.67454 0.8891 0.0
Co812 Co 0.5958 0.49182 0.1296 0.0
O813 O 0.58681 0.47887 0.12222 0.0
O814 O 0.58249 0.4872 0.14015 0.0
C815 C 0.59729 0.50329 0.11272 0.0
O816 O 0.60271 0.50571 0.1397 0.0
Co817 Co 0.62189 0.49761 0.12066 0.0
O818 O 0.61973 0.51252 0.13073 0.0
C819 C 0.61753 0.47595 0.13581 0.0
C820 C 0.57983 0.47927 0.13173 0.0
C821 C 0.6114 0.51347 0.13874 0.0
O822 O 0.60669 0.47968 0.13795 0.0
O823 O 0.62468 0.48118 0.12825 0.0
O824 O 0.58751 0.50373 0.11932 0.0
O825 O 0.60518 0.49523 0.11591 0.0
Co826 Co 0.74653 0.3377 0.38537 0.0
O827 O 0.73739 0.33388 0.37098 0.0
O828 O 0.73969 0.35242 0.37872 0.0
C829 C 0.76297 0.32672 0.38091 0.0
O830 O 0.75575 0.3453 0.39945 0.0
Co831 Co 0.75327 0.31779 0.40413 0.0
O832 O 0.76449 0.33046 0.41047 0.0
C833 C 0.72869 0.32807 0.40444 0.0
C834 C 0.73523 0.34549 0.37021 0.0
C835 C 0.76311 0.34168 0.40779 0.0
O836 O 0.7318 0.3354 0.39586 0.0
O837 O 0.73574 0.31981 0.40866 0.0
O838 O 0.76146 0.33746 0.37616 0.0
O839 O 0.75393 0.32235 0.38702 0.0
Co840 Co 0.90131 0.49382 0.8666 0.0
O841 O 0.90896 0.48029 0.8744 0.0
O842 O 0.91518 0.48866 0.85707 0.0
C843 C 0.899 0.50498 0.88358 0.0
O844 O 0.89585 0.50818 0.85626 0.0
Co845 Co 0.87486 0.50073 0.87367 0.0
O846 O 0.87849 0.51563 0.86402 0.0
C847 C 0.87943 0.47919 0.85838 0.0
C848 C 0.91666 0.48041 0.86547 0.0
C849 C 0.88741 0.51628 0.85665 0.0
O850 O 0.89055 0.48244 0.85715 0.0
O851 O 0.87197 0.48457 0.86553 0.0
O852 O 0.9093 0.5051 0.87782 0.0
O853 O 0.89103 0.49741 0.87952 0.0
Co854 Co 0.74802 0.66008 0.11275 0.0
O855 O 0.73791 0.66333 0.12664 0.0
O856 O 0.74361 0.64496 0.12038 0.0
C857 C 0.76236 0.67398 0.11649 0.0
O858 O 0.75879 0.65306 0.09954 0.0
Co859 Co 0.75198 0.67932 0.09243 0.0
O860 O 0.76461 0.66782 0.08659 0.0
C861 C 0.72917 0.66553 0.09307 0.0
C862 C 0.7378 0.65158 0.12827 0.0
C863 C 0.76519 0.65691 0.09055 0.0
O864 O 0.73343 0.65909 0.10187 0.0
O865 O 0.73481 0.67465 0.08851 0.0
O866 O 0.76236 0.66362 0.12224 0.0
O867 O 0.75291 0.67622 0.10986 0.0
Co868 Co 0.59235 0.50257 0.36754 0.0
O869 O 0.58369 0.51585 0.37475 0.0
O870 O 0.57886 0.50702 0.35719 0.0
C871 C 0.59426 0.49163 0.38473 0.0
O872 O 0.59883 0.48839 0.35761 0.0
Co873 Co 0.61862 0.49655 0.37582 0.0
O874 O 0.61618 0.48158 0.3659 0.0
C875 C 0.61417 0.51767 0.35988 0.0
C876 C 0.57655 0.51529 0.36537 0.0
C877 C 0.60756 0.48064 0.35821 0.0
O878 O 0.60311 0.51426 0.35848 0.0
O879 O 0.62153 0.5125 0.36729 0.0
O880 O 0.58427 0.49107 0.37846 0.0
O881 O 0.60213 0.49948 0.38102 0.0
Co882 Co 0.75015 0.33767 0.61074 0.0
O883 O 0.76127 0.33408 0.62373 0.0
O884 O 0.7555 0.35263 0.6181 0.0
C885 C 0.73597 0.324 0.61575 0.0
O886 O 0.73846 0.34502 0.59846 0.0
Co887 Co 0.74405 0.31864 0.59077 0.0
O888 O 0.73114 0.33034 0.58621 0.0
C889 C 0.76702 0.33212 0.58937 0.0
C890 C 0.76174 0.3458 0.62547 0.0
C891 C 0.73118 0.34128 0.59011 0.0
O892 O 0.76387 0.33835 0.59876 0.0
O893 O 0.76065 0.32342 0.58495 0.0
O894 O 0.7366 0.33438 0.6214 0.0
O895 O 0.74471 0.32162 0.60824 0.0
Co896 Co 0.63279 0.90777 0.4998 0.0
O897 O 0.61938 0.91217 0.48959 0.0
O898 O 0.62479 0.8932 0.49401 0.0
C899 C 0.62889 0.92096 0.51491 0.0
O900 O 0.64561 0.89981 0.51052 0.0
Co901 Co 0.65307 0.92658 0.50531 0.0
O902 O 0.65776 0.9145 0.51793 0.0
C903 C 0.65304 0.91384 0.4817 0.0
C904 C 0.61734 0.90057 0.48852 0.0
C905 C 0.65409 0.90348 0.5177 0.0
O906 O 0.64398 0.90742 0.48532 0.0
O907 O 0.65755 0.92255 0.48801 0.0
O908 O 0.62307 0.91069 0.51425 0.0
O909 O 0.63578 0.92352 0.50572 0.0
Co910 Co 0.13184 0.59007 0.49728 0.0
O911 O 0.11866 0.58626 0.50805 0.0
O912 O 0.12381 0.60491 0.50222 0.0
C913 C 0.12789 0.57596 0.48303 0.0
O914 O 0.1444 0.59746 0.48589 0.0
Co915 Co 0.15223 0.57115 0.49253 0.0
O916 O 0.15682 0.58262 0.4793 0.0
C917 C 0.15221 0.58501 0.51549 0.0
C918 C 0.11654 0.5979 0.5084 0.0
C919 C 0.15294 0.59356 0.47891 0.0
O920 O 0.14326 0.59139 0.51151 0.0
O921 O 0.15655 0.57587 0.50969 0.0
O922 O 0.12192 0.58616 0.48319 0.0
O923 O 0.13492 0.57403 0.49226 0.0
Co924 Co 0.64852 0.88024 0.74135 0.0
O925 O 0.65505 0.87393 0.72647 0.0
O926 O 0.66175 0.89048 0.73594 0.0
C927 C 0.64753 0.86234 0.7512 0.0
O928 O 0.64417 0.8892 0.75699 0.0
Co929 Co 0.62298 0.87195 0.75006 0.0
O930 O 0.62754 0.8807 0.76525 0.0
C931 C 0.62539 0.88844 0.72905 0.0
C932 C 0.66256 0.88302 0.72674 0.0
C933 C 0.63642 0.88813 0.7657 0.0
O934 O 0.63659 0.89022 0.73174 0.0
O935 O 0.61871 0.88058 0.73446 0.0
O936 O 0.65769 0.86834 0.7509 0.0
O937 O 0.63885 0.86678 0.74472 0.0
Co938 Co 0.36477 0.40712 0.99785 0.0
O939 O 0.37763 0.41156 0.00876 0.0
O940 O 0.37244 0.39259 0.0041 0.0
C941 C 0.36935 0.42027 0.98288 0.0
O942 O 0.35252 0.39906 0.98658 0.0
Co943 Co 0.34475 0.42584 0.99102 0.0
O944 O 0.34064 0.41355 0.97838 0.0
C945 C 0.34359 0.41332 0.01474 0.0
C946 C 0.37956 0.39995 0.01003 0.0
C947 C 0.34434 0.40255 0.97898 0.0
O948 O 0.35283 0.40685 0.01171 0.0
O949 O 0.33945 0.42198 0.0081 0.0
O950 O 0.37519 0.41004 0.98386 0.0
O951 O 0.36202 0.42281 0.99172 0.0
Co952 Co 0.34443 0.61757 0.74382 0.0
O953 O 0.33668 0.6252 0.73025 0.0
O954 O 0.3311 0.6075 0.73822 0.0
C955 C 0.34561 0.6345 0.75527 0.0
O956 O 0.35016 0.60725 0.75812 0.0
Co957 Co 0.37028 0.62583 0.75153 0.0
O958 O 0.36624 0.6166 0.7666 0.0
C959 C 0.36707 0.61042 0.72976 0.0
C960 C 0.32937 0.61595 0.73007 0.0
C961 C 0.35798 0.60847 0.76674 0.0
O962 O 0.35586 0.60887 0.73254 0.0
O963 O 0.37412 0.61769 0.73554 0.0
O964 O 0.33565 0.62817 0.75511 0.0
O965 O 0.35395 0.63097 0.74784 0.0
Co966 Co 0.86501 0.09072 0.99741 0.0
O967 O 0.87734 0.08715 0.98561 0.0
O968 O 0.87224 0.10572 0.99171 0.0
C969 C 0.87067 0.07686 0.01132 0.0
O970 O 0.85319 0.09783 0.00979 0.0
Co971 Co 0.84575 0.07117 0.00412 0.0
O972 O 0.84254 0.08238 0.01796 0.0
C973 C 0.84332 0.08481 0.98112 0.0
C974 C 0.8792 0.09882 0.98506 0.0
C975 C 0.8458 0.09353 0.0178 0.0
O976 O 0.85241 0.09149 0.98418 0.0
O977 O 0.83971 0.07569 0.98743 0.0
O978 O 0.87624 0.08726 0.01059 0.0
O979 O 0.86289 0.07465 0.00278 0.0
Co980 Co 0.64934 0.11806 0.7543 0.0
O981 O 0.65678 0.12587 0.76797 0.0
O982 O 0.66313 0.10858 0.75966 0.0
C983 C 0.64725 0.135 0.74301 0.0
O984 O 0.64419 0.1076 0.73989 0.0
Co985 Co 0.6231 0.1249 0.74663 0.0
O986 O 0.62708 0.11526 0.73184 0.0
C987 C 0.62707 0.10932 0.76817 0.0
C988 C 0.66452 0.11697 0.76794 0.0
C989 C 0.636 0.10787 0.73154 0.0
O990 O 0.63841 0.10865 0.76556 0.0
O991 O 0.61962 0.11609 0.76231 0.0
O992 O 0.65752 0.1292 0.74313 0.0
O993 O 0.63909 0.131 0.75043 0.0
Co994 Co 0.8448 0.88133 0.25308 0.0
O995 O 0.8407 0.87415 0.26845 0.0
O996 O 0.83135 0.89006 0.26026 0.0
C997 C 0.84639 0.8637 0.24288 0.0
O998 O 0.84638 0.891 0.23728 0.0
Co999 Co 0.86968 0.87612 0.24092 0.0
O1000 O 0.86147 0.88277 0.22625 0.0
C1001 C 0.86827 0.8927 0.26206 0.0
C1002 C 0.83229 0.88238 0.26925 0.0
C1003 C 0.85237 0.88983 0.22728 0.0
O1004 O 0.85664 0.89236 0.26151 0.0
O1005 O 0.87515 0.88631 0.25516 0.0
O1006 O 0.8358 0.86861 0.24454 0.0
O1007 O 0.85537 0.86901 0.24821 0.0
Co1008 Co 0.49866 0.36475 0.09427 0.0
O1009 O 0.50811 0.37931 0.09209 0.0
O1010 O 0.50385 0.37077 0.10992 0.0
C1011 C 0.48336 0.3697 0.0818 0.0
O1012 O 0.48877 0.35042 0.1004 0.0
Co1013 Co 0.49361 0.34666 0.07327 0.0
O1014 O 0.48108 0.34013 0.0845 0.0
C1015 C 0.51723 0.34591 0.08573 0.0
C1016 C 0.50896 0.3796 0.10391 0.0
C1017 C 0.48156 0.34239 0.09589 0.0
O1018 O 0.51366 0.35438 0.09299 0.0
O1019 O 0.51079 0.34181 0.07693 0.0
O1020 O 0.48379 0.37398 0.09283 0.0
O1021 O 0.49279 0.36368 0.07817 0.0
Co1022 Co 0.38071 0.74991 0.8449 0.0
O1023 O 0.36863 0.76226 0.84275 0.0
O1024 O 0.37561 0.75584 0.86061 0.0
C1025 C 0.37275 0.73639 0.83186 0.0
O1026 O 0.39258 0.73704 0.85076 0.0
Co1027 Co 0.39743 0.74203 0.82366 0.0
O1028 O 0.40133 0.72812 0.83457 0.0
C1029 C 0.40248 0.76497 0.83664 0.0
C1030 C 0.36817 0.76279 0.85458 0.0
C1031 C 0.39916 0.72863 0.84597 0.0
O1032 O 0.39388 0.76249 0.84415 0.0
O1033 O 0.40496 0.75833 0.82737 0.0
O1034 O 0.36855 0.73734 0.84287 0.0
O1035 O 0.38074 0.74443 0.82868 0.0
Co1036 Co 0.99735 0.63137 0.59155 0.0
O1037 O 0.98629 0.61801 0.58929 0.0
O1038 O 0.9925 0.62501 0.6072 0.0
C1039 C 0.01125 0.62562 0.57773 0.0
O1040 O 0.00905 0.64435 0.59755 0.0
Co1041 Co 0.00265 0.64984 0.5708 0.0
O1042 O 0.01652 0.65445 0.58139 0.0
C1043 C 0.97996 0.65201 0.5848 0.0
C1044 C 0.9861 0.61714 0.60111 0.0
C1045 C 0.01663 0.65183 0.59272 0.0
O1046 O 0.9835 0.64331 0.59182 0.0
O1047 O 0.98595 0.65549 0.57542 0.0
O1048 O 0.01106 0.62068 0.5885 0.0
O1049 O 0.00224 0.63273 0.57521 0.0
Co1050 Co 0.11411 0.24833 0.34418 0.0
O1051 O 0.12613 0.23602 0.34141 0.0
O1052 O 0.11959 0.24199 0.35958 0.0
C1053 C 0.12179 0.26214 0.33128 0.0
O1054 O 0.10247 0.26104 0.35079 0.0
Co1055 Co 0.09678 0.25709 0.32383 0.0
O1056 O 0.09289 0.27045 0.33539 0.0
C1057 C 0.09175 0.23393 0.33643 0.0
C1058 C 0.12689 0.23522 0.35321 0.0
C1059 C 0.09554 0.26951 0.34666 0.0
O1060 O 0.1009 0.2358 0.34343 0.0
O1061 O 0.08877 0.24107 0.3277 0.0
O1062 O 0.12624 0.26091 0.34217 0.0
O1063 O 0.11364 0.25426 0.3281 0.0
Co1064 Co 0.49861 0.63083 0.40354 0.0
O1065 O 0.50972 0.6174 0.40484 0.0
O1066 O 0.5027 0.62504 0.38749 0.0
C1067 C 0.48516 0.62479 0.41762 0.0
O1068 O 0.48672 0.64398 0.39845 0.0
Co1069 Co 0.4945 0.64872 0.42507 0.0
O1070 O 0.48128 0.65527 0.41469 0.0
C1071 C 0.51671 0.6508 0.41043 0.0
C1072 C 0.50934 0.61696 0.39299 0.0
C1073 C 0.48023 0.6523 0.4035 0.0
O1074 O 0.51253 0.64268 0.40309 0.0
O1075 O 0.5113 0.65389 0.42029 0.0
O1076 O 0.48501 0.62012 0.40673 0.0
O1077 O 0.49433 0.63172 0.4201 0.0
Co1078 Co 0.11605 0.74779 0.15112 0.0
O1079 O 0.12818 0.76017 0.15294 0.0
O1080 O 0.1214 0.75302 0.13527 0.0
C1081 C 0.1236 0.73471 0.16485 0.0
O1082 O 0.10422 0.73483 0.14551 0.0
Co1083 Co 0.09875 0.7409 0.17221 0.0
O1084 O 0.09424 0.72699 0.16152 0.0
C1085 C 0.09446 0.76354 0.1585 0.0
C1086 C 0.12873 0.76023 0.14109 0.0
C1087 C 0.09699 0.72696 0.15023 0.0
O1088 O 0.10298 0.76051 0.15111 0.0
O1089 O 0.09184 0.75737 0.16805 0.0
O1090 O 0.12806 0.73522 0.1539 0.0
O1091 O 0.11562 0.74295 0.16754 0.0
Co1092 Co 0.99769 0.36513 0.9044 0.0
O1093 O 0.98667 0.37856 0.90644 0.0
O1094 O 0.99277 0.37109 0.88866 0.0
C1095 C 0.01179 0.37108 0.91788 0.0
O1096 O 0.00921 0.35202 0.89847 0.0
Co1097 Co 0.00335 0.34695 0.92527 0.0
O1098 O 0.0169 0.34186 0.91446 0.0
C1099 C 0.98035 0.34471 0.91179 0.0
C1100 C 0.98642 0.37911 0.89459 0.0
C1101 C 0.01676 0.34443 0.90312 0.0
O1102 O 0.98381 0.35326 0.90456 0.0
O1103 O 0.9865 0.34133 0.92111 0.0
O1104 O 0.01145 0.37582 0.90702 0.0
O1105 O 0.00281 0.36404 0.9207 0.0
Co1106 Co 0.38236 0.24815 0.65345 0.0
O1107 O 0.37106 0.23501 0.65537 0.0
O1108 O 0.37781 0.24206 0.63764 0.0
C1109 C 0.37355 0.2611 0.66649 0.0
O1110 O 0.3935 0.26172 0.64777 0.0
Co1111 Co 0.39852 0.25671 0.67481 0.0
O1112 O 0.40237 0.27063 0.66389 0.0
C1113 C 0.40471 0.2341 0.66187 0.0
C1114 C 0.37087 0.23451 0.64354 0.0
C1115 C 0.40004 0.27018 0.65251 0.0
O1116 O 0.39619 0.23635 0.65423 0.0
O1117 O 0.40677 0.24072 0.67127 0.0
O1118 O 0.36948 0.25995 0.65544 0.0
O1119 O 0.38195 0.2535 0.66971 0.0
Co1120 Co 0.09062 0.49847 0.3623 0.0
O1121 O 0.08801 0.50741 0.37708 0.0
O1122 O 0.10597 0.50403 0.36868 0.0
C1123 C 0.07861 0.48269 0.36696 0.0
O1124 O 0.09689 0.48908 0.34759 0.0
Co1125 Co 0.06953 0.49373 0.34438 0.0
O1126 O 0.08093 0.48176 0.33721 0.0
C1127 C 0.08123 0.5178 0.34459 0.0
C1128 C 0.09969 0.50869 0.37758 0.0
C1129 C 0.09228 0.4822 0.3393 0.0
O1130 O 0.0889 0.51386 0.35248 0.0
O1131 O 0.0724 0.51139 0.34057 0.0
O1132 O 0.08962 0.4832 0.37109 0.0
O1133 O 0.07477 0.49225 0.36122 0.0
Co1134 Co 0.24856 0.34342 0.11351 0.0
O1135 O 0.23929 0.34116 0.12817 0.0
O1136 O 0.24364 0.35904 0.11982 0.0
C1137 C 0.26379 0.33075 0.1181 0.0
O1138 O 0.25833 0.34956 0.09913 0.0
Co1139 Co 0.25298 0.3225 0.09518 0.0
O1140 O 0.26542 0.33369 0.08837 0.0
C1141 C 0.22947 0.33519 0.09501 0.0
C1142 C 0.23863 0.35298 0.12867 0.0
C1143 C 0.26522 0.34504 0.09084 0.0
O1144 O 0.23345 0.3425 0.10326 0.0
O1145 O 0.2356 0.32611 0.09104 0.0
O1146 O 0.26353 0.34172 0.12253 0.0
O1147 O 0.25423 0.32726 0.11221 0.0
Co1148 Co 0.40913 0.49762 0.86203 0.0
O1149 O 0.41184 0.48732 0.87588 0.0
O1150 O 0.39377 0.49285 0.86897 0.0
C1151 C 0.42267 0.51206 0.8668 0.0
O1152 O 0.40288 0.5086 0.84847 0.0
Co1153 Co 0.42966 0.50143 0.84311 0.0
O1154 O 0.41853 0.51397 0.83645 0.0
C1155 C 0.41601 0.4785 0.84294 0.0
C1156 C 0.40014 0.48696 0.87703 0.0
C1157 C 0.40745 0.51481 0.83965 0.0
O1158 O 0.40884 0.483 0.85099 0.0
O1159 O 0.42553 0.48403 0.8392 0.0
O1160 O 0.41203 0.51199 0.87185 0.0
O1161 O 0.4253 0.50262 0.86022 0.0
Co1162 Co 0.24892 0.65352 0.61386 0.0
O1163 O 0.25957 0.65586 0.62754 0.0
O1164 O 0.25356 0.63793 0.62045 0.0
C1165 C 0.23487 0.66733 0.6192 0.0
O1166 O 0.23761 0.64731 0.60066 0.0
Co1167 Co 0.2438 0.67391 0.59501 0.0
O1168 O 0.2303 0.66308 0.58988 0.0
C1169 C 0.26681 0.6603 0.59372 0.0
C1170 C 0.25964 0.64405 0.62854 0.0
C1171 C 0.23024 0.65182 0.59279 0.0
O1172 O 0.2631 0.65325 0.60232 0.0
O1173 O 0.26079 0.66957 0.59001 0.0
O1174 O 0.23494 0.65658 0.62415 0.0
O1175 O 0.244 0.66984 0.61223 0.0
Co1176 Co 0.08856 0.49819 0.13361 0.0
O1177 O 0.08557 0.48731 0.12025 0.0
O1178 O 0.10376 0.49327 0.12646 0.0
C1179 C 0.07481 0.51236 0.12866 0.0
O1180 O 0.09514 0.50974 0.14658 0.0
Co1181 Co 0.06856 0.50296 0.15296 0.0
O1182 O 0.0796 0.5162 0.15819 0.0
C1183 C 0.08226 0.48003 0.15375 0.0
C1184 C 0.09725 0.48696 0.11885 0.0
C1185 C 0.09067 0.5167 0.15491 0.0
O1186 O 0.0891 0.48395 0.14512 0.0
O1187 O 0.07312 0.48594 0.15784 0.0
O1188 O 0.08531 0.51216 0.12331 0.0
O1189 O 0.07244 0.5032 0.1357 0.0
Co1190 Co 0.25017 0.34186 0.8825 0.0
O1191 O 0.26138 0.34022 0.86915 0.0
O1192 O 0.25509 0.35775 0.87698 0.0
C1193 C 0.23623 0.32844 0.87606 0.0
O1194 O 0.23845 0.3474 0.89563 0.0
Co1195 Co 0.24456 0.32052 0.90011 0.0
O1196 O 0.23123 0.33125 0.90587 0.0
C1197 C 0.26741 0.33407 0.90289 0.0
C1198 C 0.2616 0.35207 0.86892 0.0
C1199 C 0.23114 0.3426 0.90338 0.0
O1200 O 0.26392 0.34149 0.89452 0.0
O1201 O 0.26134 0.32461 0.90598 0.0
O1202 O 0.23653 0.33941 0.8716 0.0
O1203 O 0.24516 0.3255 0.88313 0.0
Co1204 Co 0.40747 0.49932 0.63448 0.0
O1205 O 0.41031 0.51015 0.62105 0.0
O1206 O 0.39219 0.50445 0.62769 0.0
C1207 C 0.42091 0.48497 0.62916 0.0
O1208 O 0.401 0.48787 0.64757 0.0
Co1209 Co 0.42777 0.4942 0.65337 0.0
O1210 O 0.41654 0.48137 0.65916 0.0
C1211 C 0.41459 0.51743 0.65439 0.0
C1212 C 0.39861 0.51065 0.61992 0.0
C1213 C 0.40545 0.48099 0.65597 0.0
O1214 O 0.40743 0.5136 0.64599 0.0
O1215 O 0.42373 0.51137 0.65823 0.0
O1216 O 0.41026 0.4853 0.62413 0.0
O1217 O 0.42359 0.49408 0.63617 0.0
Co1218 Co 0.24877 0.65373 0.38177 0.0
O1219 O 0.23809 0.65566 0.36805 0.0
O1220 O 0.2444 0.63795 0.37546 0.0
C1221 C 0.26261 0.66771 0.37635 0.0
O1222 O 0.26022 0.648 0.39506 0.0
Co1223 Co 0.25306 0.6746 0.40034 0.0
O1224 O 0.26607 0.66383 0.40668 0.0
C1225 C 0.23046 0.66045 0.40163 0.0
C1226 C 0.23816 0.64383 0.36731 0.0
C1227 C 0.26681 0.65267 0.40352 0.0
O1228 O 0.23456 0.6533 0.39329 0.0
O1229 O 0.23609 0.67004 0.40514 0.0
O1230 O 0.2627 0.65691 0.37148 0.0
O1231 O 0.25336 0.67017 0.38318 0.0
Co1232 Co 0.36408 0.09489 0.50015 0.0
O1233 O 0.37638 0.0928 0.51232 0.0
O1234 O 0.37011 0.11061 0.50512 0.0
C1235 C 0.371 0.08076 0.48716 0.0
O1236 O 0.35218 0.10069 0.48729 0.0
Co1237 Co 0.34607 0.07419 0.49397 0.0
O1238 O 0.34154 0.08482 0.48003 0.0
C1239 C 0.34262 0.08837 0.51646 0.0
C1240 C 0.37741 0.10459 0.51222 0.0
C1241 C 0.34462 0.09602 0.47969 0.0
O1242 O 0.35123 0.0955 0.5131 0.0
O1243 O 0.33967 0.07875 0.51055 0.0
O1244 O 0.37576 0.09157 0.4874 0.0
O1245 O 0.36309 0.07843 0.49557 0.0
Co1246 Co 0.86413 0.40491 0.4958 0.0
O1247 O 0.8761 0.40662 0.48323 0.0
O1248 O 0.86918 0.38902 0.49038 0.0
C1249 C 0.87201 0.41837 0.50893 0.0
O1250 O 0.85244 0.39944 0.50896 0.0
Co1251 Co 0.84728 0.42634 0.50286 0.0
O1252 O 0.84198 0.41543 0.51628 0.0
C1253 C 0.84212 0.41237 0.48059 0.0
C1254 C 0.87649 0.39478 0.48309 0.0
C1255 C 0.8449 0.4042 0.5165 0.0
O1256 O 0.85083 0.40509 0.48332 0.0
O1257 O 0.83963 0.42193 0.4868 0.0
O1258 O 0.87634 0.40739 0.50821 0.0
O1259 O 0.86405 0.42131 0.50076 0.0
Co1260 Co 0.34149 0.11241 0.24917 0.0
O1261 O 0.33843 0.12626 0.23899 0.0
O1262 O 0.35668 0.11948 0.24402 0.0
C1263 C 0.3282 0.11717 0.26387 0.0
O1264 O 0.34808 0.09885 0.25995 0.0
Co1265 Co 0.32115 0.09345 0.2538 0.0
O1266 O 0.33237 0.0877 0.26673 0.0
C1267 C 0.3339 0.09349 0.23026 0.0
C1268 C 0.3501 0.12751 0.23834 0.0
C1269 C 0.34357 0.09058 0.26693 0.0
O1270 O 0.34137 0.10142 0.23449 0.0
O1271 O 0.32461 0.08978 0.23619 0.0
O1272 O 0.33885 0.1222 0.26368 0.0
O1273 O 0.32548 0.11054 0.25451 0.0
Co1274 Co 0.63164 0.5945 0.99787 0.0
O1275 O 0.61911 0.59227 0.98598 0.0
O1276 O 0.62618 0.61017 0.99216 0.0
C1277 C 0.62432 0.58137 0.01169 0.0
O1278 O 0.64393 0.60048 0.01025 0.0
Co1279 Co 0.64883 0.57345 0.00524 0.0
O1280 O 0.65312 0.58444 0.01898 0.0
C1281 C 0.65286 0.58635 0.98201 0.0
C1282 C 0.61853 0.60409 0.9855 0.0
C1283 C 0.65084 0.59581 0.01845 0.0
O1284 O 0.64434 0.59384 0.98478 0.0
O1285 O 0.65562 0.57712 0.98861 0.0
O1286 O 0.61998 0.59235 0.01092 0.0
O1287 O 0.63203 0.5783 0.00334 0.0
Co1288 Co 0.6565 0.38499 0.2489 0.0
O1289 O 0.65952 0.37013 0.24021 0.0
O1290 O 0.64134 0.37814 0.24339 0.0
C1291 C 0.6685 0.38113 0.26487 0.0
O1292 O 0.6498 0.39966 0.25802 0.0
Co1293 Co 0.67705 0.40364 0.25318 0.0
O1294 O 0.66547 0.41067 0.26507 0.0
C1295 C 0.66534 0.40259 0.22916 0.0
C1296 C 0.64786 0.36936 0.23885 0.0
C1297 C 0.6542 0.40819 0.26476 0.0
O1298 O 0.65795 0.39455 0.23331 0.0
O1299 O 0.67405 0.40705 0.23544 0.0
O1300 O 0.65766 0.37655 0.26434 0.0
O1301 O 0.67228 0.3867 0.25517 0.0
Co1302 Co 0.13298 0.90495 0.00094 0.0
O1303 O 0.12087 0.90815 0.0131 0.0
O1304 O 0.12731 0.88979 0.00759 0.0
C1305 C 0.12561 0.91761 0.98674 0.0
O1306 O 0.14461 0.89783 0.9885 0.0
Co1307 Co 0.15076 0.92462 0.99178 0.0
O1308 O 0.15379 0.91293 0.9783 0.0
C1309 C 0.15533 0.91267 0.01537 0.0
C1310 C 0.12004 0.89638 0.01418 0.0
C1311 C 0.15116 0.90171 0.97964 0.0
O1312 O 0.14605 0.90583 0.0136 0.0
O1313 O 0.15863 0.92107 0.00797 0.0
O1314 O 0.121 0.90682 0.98821 0.0
O1315 O 0.13376 0.92087 0.99461 0.0
Co1316 Co 0.33954 0.88253 0.24728 0.0
O1317 O 0.33733 0.86899 0.2581 0.0
O1318 O 0.35514 0.8762 0.25212 0.0
C1319 C 0.32602 0.87688 0.23313 0.0
O1320 O 0.34532 0.89591 0.23582 0.0
Co1321 Co 0.31837 0.90065 0.24279 0.0
O1322 O 0.32931 0.90726 0.23007 0.0
C1323 C 0.33196 0.90188 0.26579 0.0
C1324 C 0.34906 0.86822 0.2584 0.0
C1325 C 0.34048 0.9044 0.22934 0.0
O1326 O 0.33952 0.89403 0.26156 0.0
O1327 O 0.32235 0.90508 0.26009 0.0
O1328 O 0.3368 0.87214 0.23324 0.0
O1329 O 0.32332 0.8837 0.24236 0.0
Co1330 Co 0.15596 0.11324 0.74791 0.0
O1331 O 0.15898 0.12767 0.75726 0.0
O1332 O 0.14082 0.11968 0.75395 0.0
C1333 C 0.16766 0.11811 0.73196 0.0
O1334 O 0.14927 0.09892 0.73822 0.0
Co1335 Co 0.17671 0.09516 0.74231 0.0
O1336 O 0.16489 0.08821 0.73061 0.0
C1337 C 0.16515 0.09454 0.76644 0.0
C1338 C 0.14734 0.12832 0.75876 0.0
C1339 C 0.1536 0.09055 0.73126 0.0
O1340 O 0.15775 0.10289 0.76296 0.0
O1341 O 0.17377 0.0905 0.75977 0.0
O1342 O 0.15677 0.12245 0.73289 0.0
O1343 O 0.17167 0.11209 0.74129 0.0
H1344 H 0.01937 0.18303 0.40675 0.0
H1345 H 0.03234 0.19412 0.39251 0.0
H1346 H 0.03548 0.16187 0.37018 0.0
H1347 H 0.02205 0.1509 0.38411 0.0
H1348 H 0.05491 0.18998 0.38725 0.0
H1349 H 0.02838 0.1866 0.34446 0.0
H1350 H 0.02216 0.18249 0.35911 0.0
H1351 H 0.03179 0.17201 0.351 0.0
C1352 C 0.02272 0.17835 0.39873 0.0
C1353 C 0.01966 0.16614 0.3965 0.0
C1354 C 0.03012 0.18469 0.3906 0.0
C1355 C 0.03475 0.17888 0.38017 0.0
C1356 C 0.03174 0.16665 0.37795 0.0
H1357 H 0.09808 0.21195 0.34605 0.0
H1358 H 0.08444 0.19677 0.35493 0.0
C1359 C 0.02413 0.16037 0.38597 0.0
C1360 C 0.04331 0.18549 0.37211 0.0
H1361 H 0.04843 0.19437 0.3427 0.0
C1362 C 0.05347 0.19096 0.37751 0.0
C1363 C 0.04138 0.18682 0.35942 0.0
C1364 C 0.03027 0.18177 0.35317 0.0
C1365 C 0.06164 0.19789 0.37065 0.0
C1366 C 0.05993 0.19895 0.35789 0.0
C1367 C 0.04983 0.19338 0.35244 0.0
C1368 C 0.06804 0.20657 0.35029 0.0
C1369 C 0.07173 0.20443 0.37729 0.0
C1370 C 0.0633 0.21653 0.34382 0.0
C1371 C 0.07107 0.225 0.3384 0.0
C1372 C 0.08368 0.22371 0.33955 0.0
C1373 C 0.08838 0.21324 0.34521 0.0
C1374 C 0.08061 0.20463 0.35035 0.0
H1375 H 0.06978 0.20537 0.38719 0.0
H1376 H 0.08024 0.19913 0.37636 0.0
H1377 H 0.07324 0.21368 0.37346 0.0
H1378 H 0.05362 0.21815 0.34357 0.0
H1379 H 0.06721 0.233 0.3341 0.0
H1380 H 0.02111 0.81926 0.58261 0.0
H1381 H 0.03715 0.80754 0.59245 0.0
H1382 H 0.05321 0.84086 0.60576 0.0
H1383 H 0.0367 0.85258 0.59653 0.0
H1384 H 0.06072 0.80553 0.59204 0.0
H1385 H 0.04718 0.82401 0.63718 0.0
H1386 H 0.03867 0.82708 0.62353 0.0
H1387 H 0.05233 0.83547 0.62675 0.0
C1388 C 0.02815 0.8241 0.58749 0.0
C1389 C 0.02756 0.83681 0.58898 0.0
C1390 C 0.03733 0.8174 0.59311 0.0
C1391 C 0.0462 0.82328 0.60017 0.0
C1392 C 0.04622 0.83608 0.60075 0.0
H1393 H 0.10297 0.77742 0.63395 0.0
H1394 H 0.09295 0.79222 0.62056 0.0
C1395 C 0.03685 0.84277 0.5954 0.0
C1396 C 0.05474 0.8159 0.60759 0.0
H1397 H 0.06344 0.81026 0.63692 0.0
C1398 C 0.06137 0.80658 0.60185 0.0
C1399 C 0.05546 0.81719 0.62043 0.0
C1400 C 0.04795 0.82639 0.62736 0.0
C1401 C 0.06837 0.79829 0.60862 0.0
C1402 C 0.06912 0.79965 0.62144 0.0
C1403 C 0.06287 0.80925 0.6271 0.0
C1404 C 0.07544 0.7907 0.62936 0.0
C1405 C 0.07435 0.78782 0.60201 0.0
C1406 C 0.06906 0.78519 0.63898 0.0
C1407 C 0.07483 0.77704 0.6468 0.0
C1408 C 0.08709 0.77406 0.64508 0.0
C1409 C 0.09348 0.77947 0.6354 0.0
C1410 C 0.08774 0.78785 0.6277 0.0
H1411 H 0.07028 0.78629 0.59287 0.0
H1412 H 0.08409 0.78991 0.6007 0.0
H1413 H 0.07361 0.77925 0.60734 0.0
H1414 H 0.05956 0.78721 0.64045 0.0
H1415 H 0.06965 0.77297 0.65413 0.0
H1416 H 0.3985 0.78291 0.85342 0.0
H1417 H 0.41298 0.79792 0.8608 0.0
H1418 H 0.43904 0.78582 0.83411 0.0
H1419 H 0.42461 0.77058 0.82671 0.0
H1420 H 0.44765 0.78491 0.85742 0.0
H1421 H 0.42704 0.83006 0.84902 0.0
H1422 H 0.41659 0.81979 0.85618 0.0
H1423 H 0.42218 0.81646 0.84111 0.0
C1424 C 0.40721 0.78358 0.84892 0.0
C1425 C 0.41044 0.77544 0.83956 0.0
C1426 C 0.41544 0.79227 0.85308 0.0
C1427 C 0.42704 0.79307 0.84793 0.0
C1428 C 0.43009 0.7854 0.83815 0.0
H1429 H 0.48017 0.84314 0.88042 0.0
H1430 H 0.46746 0.83275 0.86539 0.0
C1431 C 0.42183 0.7767 0.83393 0.0
C1432 C 0.4364 0.8006 0.85396 0.0
H1433 H 0.44168 0.82901 0.86547 0.0
C1434 C 0.44648 0.79461 0.85897 0.0
C1435 C 0.43491 0.81325 0.8559 0.0
C1436 C 0.42465 0.82029 0.85015 0.0
C1437 C 0.45471 0.80079 0.86646 0.0
C1438 C 0.4527 0.81322 0.86914 0.0
C1439 C 0.44307 0.81941 0.86354 0.0
C1440 C 0.46016 0.81973 0.87823 0.0
C1441 C 0.46535 0.79389 0.87168 0.0
C1442 C 0.46004 0.81596 0.89046 0.0
C1443 C 0.46726 0.82186 0.89908 0.0
C1444 C 0.47472 0.83166 0.89563 0.0
C1445 C 0.4746 0.83557 0.88339 0.0
C1446 C 0.46734 0.82967 0.87478 0.0
H1447 H 0.46748 0.78565 0.86619 0.0
H1448 H 0.47354 0.79976 0.87212 0.0
H1449 H 0.46311 0.79088 0.88107 0.0
H1450 H 0.45437 0.80843 0.89332 0.0
H1451 H 0.46705 0.81865 0.90842 0.0
H1452 H 0.46355 0.14788 0.10501 0.0
H1453 H 0.44744 0.16085 0.11294 0.0
H1454 H 0.45498 0.18759 0.08514 0.0
H1455 H 0.47121 0.17473 0.07715 0.0
H1456 H 0.45627 0.1966 0.10872 0.0
H1457 H 0.4134 0.17123 0.10197 0.0
H1458 H 0.42519 0.16211 0.10861 0.0
H1459 H 0.427 0.16795 0.09339 0.0
C1460 C 0.46164 0.1564 0.1004 0.0
C1461 C 0.46878 0.16031 0.09051 0.0
C1462 C 0.45233 0.16376 0.10489 0.0
C1463 C 0.44995 0.17513 0.09956 0.0
C1464 C 0.45663 0.1788 0.08932 0.0
H1465 H 0.39795 0.22743 0.1307 0.0
H1466 H 0.40857 0.21439 0.11603 0.0
C1467 C 0.46592 0.17142 0.08478 0.0
C1468 C 0.44174 0.18382 0.10574 0.0
H1469 H 0.4132 0.18691 0.11738 0.0
C1470 C 0.44679 0.19459 0.11042 0.0
C1471 C 0.42938 0.18119 0.10791 0.0
C1472 C 0.42337 0.17005 0.10261 0.0
C1473 C 0.43998 0.20249 0.11773 0.0
C1474 C 0.42784 0.1995 0.12049 0.0
C1475 C 0.42257 0.18908 0.11532 0.0
C1476 C 0.42083 0.20675 0.12936 0.0
C1477 C 0.44589 0.21385 0.12272 0.0
C1478 C 0.42409 0.20653 0.14171 0.0
C1479 C 0.41808 0.21391 0.1501 0.0
C1480 C 0.40867 0.22169 0.1463 0.0
C1481 C 0.40519 0.22161 0.13394 0.0
C1482 C 0.41121 0.21416 0.12554 0.0
H1483 H 0.45424 0.21626 0.11761 0.0
H1484 H 0.43954 0.22169 0.12239 0.0
H1485 H 0.44841 0.2123 0.1324 0.0
H1486 H 0.43144 0.20076 0.14481 0.0
H1487 H 0.42097 0.21365 0.15954 0.0
H1488 H 0.03485 0.8242 0.08866 0.0
H1489 H 0.04768 0.81423 0.10382 0.0
H1490 H 0.02729 0.83112 0.13277 0.0
H1491 H 0.01433 0.84123 0.11768 0.0
H1492 H 0.05978 0.82916 0.12807 0.0
H1493 H 0.02859 0.78963 0.1342 0.0
H1494 H 0.02954 0.79713 0.11957 0.0
H1495 H 0.02287 0.80494 0.13225 0.0
C1496 C 0.03307 0.82585 0.09824 0.0
C1497 C 0.02351 0.83347 0.10195 0.0
C1498 C 0.04044 0.82017 0.10687 0.0
C1499 C 0.03837 0.82198 0.11934 0.0
C1500 C 0.02898 0.82967 0.12314 0.0
H1501 H 0.07432 0.77234 0.17038 0.0
H1502 H 0.06072 0.78857 0.16347 0.0
C1503 C 0.02161 0.83541 0.11451 0.0
C1504 C 0.04588 0.81541 0.12828 0.0
H1505 H 0.04817 0.78791 0.14251 0.0
C1506 C 0.0572 0.82023 0.13144 0.0
C1507 C 0.04236 0.80388 0.13272 0.0
C1508 C 0.03017 0.79851 0.12959 0.0
C1509 C 0.0654 0.81349 0.13853 0.0
C1510 C 0.06224 0.80154 0.14223 0.0
C1511 C 0.0506 0.79706 0.13965 0.0
C1512 C 0.07126 0.793 0.14744 0.0
C1513 C 0.07743 0.81914 0.14176 0.0
C1514 C 0.08173 0.7902 0.14077 0.0
C1515 C 0.08952 0.78099 0.14468 0.0
C1516 C 0.08691 0.77425 0.15528 0.0
C1517 C 0.0766 0.77734 0.16217 0.0
C1518 C 0.06882 0.78661 0.15825 0.0
H1519 H 0.07669 0.82922 0.14241 0.0
H1520 H 0.08097 0.81556 0.15054 0.0
H1521 H 0.08409 0.81705 0.13446 0.0
H1522 H 0.08364 0.79477 0.13223 0.0
H1523 H 0.09735 0.77889 0.13911 0.0
H1524 H 0.42704 0.77507 0.34369 0.0
H1525 H 0.43689 0.78914 0.3577 0.0
H1526 H 0.40338 0.79332 0.37757 0.0
H1527 H 0.39358 0.77868 0.36382 0.0
H1528 H 0.43255 0.81205 0.36138 0.0
H1529 H 0.42617 0.78763 0.40527 0.0
H1530 H 0.42297 0.78063 0.39074 0.0
H1531 H 0.41232 0.7911 0.39742 0.0
C1532 C 0.42177 0.77892 0.35109 0.0
C1533 C 0.40954 0.77578 0.35268 0.0
C1534 C 0.42742 0.78697 0.3591 0.0
C1535 C 0.42093 0.79222 0.36879 0.0
C1536 C 0.40867 0.78916 0.37037 0.0
H1537 H 0.45974 0.8541 0.40138 0.0
H1538 H 0.44289 0.84243 0.39272 0.0
C1539 C 0.40305 0.78087 0.36247 0.0
C1540 C 0.4271 0.80121 0.37679 0.0
H1541 H 0.43566 0.80689 0.40619 0.0
C1542 C 0.43319 0.81095 0.37119 0.0
C1543 C 0.42795 0.79975 0.38959 0.0
C1544 C 0.4221 0.78916 0.39612 0.0
C1545 C 0.44059 0.81889 0.37787 0.0
C1546 C 0.44143 0.81748 0.3907 0.0
C1547 C 0.43492 0.80804 0.39639 0.0
C1548 C 0.45002 0.82483 0.39809 0.0
C1549 C 0.44799 0.82819 0.37095 0.0
C1550 C 0.45904 0.81892 0.40493 0.0
C1551 C 0.46842 0.82561 0.41026 0.0
C1552 C 0.46904 0.8383 0.40867 0.0
C1553 C 0.45956 0.8443 0.40258 0.0
C1554 C 0.44999 0.83763 0.39755 0.0
H1555 H 0.44866 0.82592 0.3611 0.0
H1556 H 0.44359 0.83725 0.3717 0.0
H1557 H 0.45731 0.82887 0.37469 0.0
H1558 H 0.45923 0.80907 0.40556 0.0
H1559 H 0.47561 0.82074 0.41489 0.0
H1560 H 0.42691 0.22889 0.67204 0.0
H1561 H 0.44165 0.21383 0.66476 0.0
H1562 H 0.41599 0.20135 0.63786 0.0
H1563 H 0.40121 0.21608 0.64515 0.0
H1564 H 0.42973 0.18245 0.64825 0.0
H1565 H 0.45823 0.2211 0.63194 0.0
H1566 H 0.45488 0.22067 0.64798 0.0
H1567 H 0.4429 0.22326 0.6372 0.0
C1568 C 0.42433 0.22277 0.66474 0.0
C1569 C 0.41297 0.22385 0.65902 0.0
C1570 C 0.43277 0.21422 0.66057 0.0
C1571 C 0.42997 0.20667 0.65062 0.0
C1572 C 0.41835 0.20714 0.6455 0.0
H1573 H 0.46695 0.17839 0.58992 0.0
H1574 H 0.45498 0.18896 0.60534 0.0
C1575 C 0.40993 0.21564 0.64965 0.0
C1576 C 0.43932 0.19914 0.6446 0.0
H1577 H 0.46403 0.20146 0.62605 0.0
C1578 C 0.43738 0.18653 0.64356 0.0
C1579 C 0.44917 0.20458 0.63839 0.0
C1580 C 0.45144 0.21815 0.63881 0.0
C1581 C 0.44476 0.17929 0.63607 0.0
C1582 C 0.45438 0.18481 0.6296 0.0
C1583 C 0.45663 0.1973 0.63105 0.0
C1584 C 0.46154 0.17808 0.62042 0.0
C1585 C 0.44182 0.16593 0.63459 0.0
C1586 C 0.4692 0.16848 0.62383 0.0
C1587 C 0.47606 0.16238 0.61502 0.0
C1588 C 0.47541 0.16584 0.60267 0.0
C1589 C 0.4677 0.17548 0.59933 0.0
C1590 C 0.46086 0.18155 0.60813 0.0
H1591 H 0.43289 0.16355 0.63862 0.0
H1592 H 0.44177 0.16337 0.6248 0.0
H1593 H 0.44887 0.16041 0.63922 0.0
H1594 H 0.46997 0.1658 0.63331 0.0
H1595 H 0.48193 0.15502 0.61793 0.0
H1596 H 0.09608 0.22913 0.86994 0.0
H1597 H 0.08636 0.2151 0.88434 0.0
H1598 H 0.07354 0.19324 0.85433 0.0
H1599 H 0.0831 0.20718 0.83989 0.0
H1600 H 0.06014 0.2098 0.88325 0.0
H1601 H 0.08881 0.16845 0.87929 0.0
H1602 H 0.09421 0.18354 0.87545 0.0
H1603 H 0.08466 0.17535 0.86501 0.0
C1604 C 0.09133 0.22124 0.86641 0.0
C1605 C 0.09031 0.2193 0.85377 0.0
C1606 C 0.0858 0.21326 0.87465 0.0
C1607 C 0.07937 0.20309 0.87038 0.0
C1608 C 0.07862 0.20094 0.8578 0.0
H1609 H 0.02952 0.14831 0.88811 0.0
H1610 H 0.04594 0.16114 0.88074 0.0
C1611 C 0.08401 0.20898 0.84956 0.0
C1612 C 0.07247 0.19528 0.87887 0.0
H1613 H 0.06908 0.16573 0.88789 0.0
C1614 C 0.06218 0.20021 0.88451 0.0
C1615 C 0.07521 0.18281 0.8804 0.0
C1616 C 0.08638 0.1772 0.87481 0.0
C1617 C 0.05407 0.1928 0.891 0.0
C1618 C 0.05655 0.18018 0.89214 0.0
C1619 C 0.0672 0.17539 0.88701 0.0
C1620 C 0.04756 0.17161 0.89739 0.0
C1621 C 0.04255 0.19842 0.89585 0.0
C1622 C 0.04327 0.17296 0.90936 0.0
C1623 C 0.03372 0.16571 0.91359 0.0
C1624 C 0.02843 0.15687 0.90596 0.0
C1625 C 0.0333 0.15507 0.89424 0.0
C1626 C 0.04273 0.16238 0.89 0.0
H1627 H 0.04087 0.20761 0.89195 0.0
H1628 H 0.03462 0.19255 0.89381 0.0
H1629 H 0.04326 0.1994 0.9059 0.0
H1630 H 0.04709 0.17982 0.91533 0.0
H1631 H 0.03031 0.16724 0.92273 0.0
H1632 H 0.3906 0.03274 0.15219 0.0
H1633 H 0.38114 0.0475 0.16593 0.0
H1634 H 0.34594 0.03809 0.15179 0.0
H1635 H 0.35522 0.0233 0.13797 0.0
H1636 H 0.35896 0.06779 0.15794 0.0
H1637 H 0.3511 0.03114 0.19235 0.0
H1638 H 0.36407 0.03064 0.18232 0.0
H1639 H 0.34922 0.02806 0.17629 0.0
C1640 C 0.38085 0.03388 0.15188 0.0
C1641 C 0.37366 0.02674 0.14403 0.0
C1642 C 0.37549 0.04235 0.1597 0.0
C1643 C 0.36289 0.04381 0.1598 0.0
C1644 C 0.3557 0.03706 0.15175 0.0
H1645 H 0.32029 0.07681 0.21764 0.0
H1646 H 0.32602 0.06581 0.19914 0.0
C1647 C 0.36104 0.0286 0.1439 0.0
C1648 C 0.35719 0.0517 0.16902 0.0
H1649 H 0.34563 0.05107 0.19781 0.0
C1650 C 0.35596 0.06418 0.16664 0.0
C1651 C 0.35324 0.04685 0.18025 0.0
C1652 C 0.35443 0.03344 0.18307 0.0
C1653 C 0.35096 0.07206 0.1754 0.0
C1654 C 0.34736 0.06727 0.18683 0.0
C1655 C 0.34837 0.05471 0.18903 0.0
C1656 C 0.34316 0.07513 0.19695 0.0
C1657 C 0.34953 0.08538 0.17231 0.0
C1658 C 0.35084 0.08412 0.20174 0.0
C1659 C 0.34758 0.09045 0.21228 0.0
C1660 C 0.33665 0.08779 0.21833 0.0
C1661 C 0.3288 0.07906 0.21326 0.0
C1662 C 0.33204 0.07277 0.20268 0.0
H1663 H 0.349 0.08682 0.16229 0.0
H1664 H 0.34128 0.08927 0.17661 0.0
H1665 H 0.35752 0.09047 0.17574 0.0
H1666 H 0.35959 0.08589 0.19763 0.0
H1667 H 0.35387 0.0971 0.21592 0.0
H1668 H 0.17485 0.07575 0.47189 0.0
H1669 H 0.18772 0.08405 0.45575 0.0
H1670 H 0.16076 0.11137 0.44786 0.0
H1671 H 0.14774 0.10309 0.46378 0.0
H1672 H 0.17364 0.10238 0.42677 0.0
H1673 H 0.20365 0.11709 0.46488 0.0
H1674 H 0.20061 0.10103 0.46388 0.0
H1675 H 0.18853 0.11141 0.46743 0.0
C1676 C 0.1715 0.08333 0.46653 0.0
C1677 C 0.16037 0.08893 0.46933 0.0
C1678 C 0.17889 0.08806 0.45732 0.0
C1679 C 0.17527 0.09846 0.45083 0.0
C1680 C 0.16373 0.10337 0.45284 0.0
H1681 H 0.21395 0.1592 0.42277 0.0
H1682 H 0.20057 0.14463 0.43284 0.0
C1683 C 0.15633 0.09865 0.46201 0.0
C1684 C 0.18399 0.10523 0.44317 0.0
H1685 H 0.20907 0.12329 0.44518 0.0
C1686 C 0.18149 0.10684 0.43072 0.0
C1687 C 0.19407 0.11118 0.44846 0.0
C1688 C 0.19688 0.11021 0.46191 0.0
C1689 C 0.18876 0.11441 0.42343 0.0
C1690 C 0.19877 0.12042 0.42878 0.0
C1691 C 0.20139 0.11861 0.44115 0.0
C1692 C 0.20628 0.12922 0.42196 0.0
C1693 C 0.18547 0.11633 0.41022 0.0
C1694 C 0.21388 0.12534 0.41248 0.0
C1695 C 0.22159 0.13365 0.40671 0.0
C1696 C 0.22184 0.14595 0.41036 0.0
C1697 C 0.21404 0.1498 0.41974 0.0
C1698 C 0.20637 0.1415 0.4255 0.0
H1699 H 0.17635 0.11263 0.40802 0.0
H1700 H 0.18565 0.12618 0.40792 0.0
H1701 H 0.19222 0.11166 0.40436 0.0
H1702 H 0.21405 0.11586 0.40975 0.0
H1703 H 0.22746 0.13037 0.39951 0.0
H1704 H 0.13219 0.95862 0.63053 0.0
H1705 H 0.14006 0.94157 0.64254 0.0
H1706 H 0.11729 0.95228 0.67272 0.0
H1707 H 0.10888 0.9688 0.66048 0.0
H1708 H 0.15299 0.94225 0.66137 0.0
H1709 H 0.11204 0.91693 0.67451 0.0
H1710 H 0.11168 0.92863 0.66295 0.0
H1711 H 0.11015 0.93253 0.67888 0.0
C1712 C 0.12871 0.95715 0.63965 0.0
C1713 C 0.11992 0.96497 0.64459 0.0
C1714 C 0.1332 0.94741 0.6465 0.0
C1715 C 0.12914 0.94547 0.65849 0.0
C1716 C 0.12027 0.95326 0.66337 0.0
H1717 H 0.16972 0.92238 0.71938 0.0
H1718 H 0.16195 0.93171 0.70082 0.0
C1719 C 0.11554 0.96279 0.65641 0.0
C1720 C 0.13505 0.93618 0.66634 0.0
H1721 H 0.12912 0.9153 0.68857 0.0
C1722 C 0.14776 0.93616 0.66712 0.0
C1723 C 0.12833 0.92795 0.67363 0.0
C1724 C 0.11481 0.92642 0.67232 0.0
C1725 C 0.15385 0.92876 0.67555 0.0
C1726 C 0.14703 0.92161 0.6838 0.0
C1727 C 0.13439 0.92098 0.68245 0.0
C1728 C 0.15265 0.9155 0.69447 0.0
C1729 C 0.16752 0.92881 0.67551 0.0
C1730 C 0.1498 0.90334 0.6973 0.0
C1731 C 0.15394 0.8981 0.70814 0.0
C1732 C 0.16115 0.90487 0.71625 0.0
C1733 C 0.16433 0.91688 0.71322 0.0
C1734 C 0.15997 0.9222 0.70253 0.0
H1735 H 0.17108 0.93035 0.66616 0.0
H1736 H 0.17083 0.9364 0.68131 0.0
H1737 H 0.17129 0.9201 0.67902 0.0
H1738 H 0.14413 0.898 0.69127 0.0
H1739 H 0.15136 0.88881 0.71026 0.0
H1740 H 0.26594 0.868 0.9037 0.0
H1741 H 0.27885 0.88246 0.9146 0.0
H1742 H 0.29331 0.85313 0.93637 0.0
H1743 H 0.28037 0.8386 0.92567 0.0
H1744 H 0.28548 0.87357 0.94983 0.0
H1745 H 0.31593 0.88661 0.91152 0.0
H1746 H 0.29993 0.88794 0.90872 0.0
H1747 H 0.30651 0.87316 0.91107 0.0
C1748 C 0.2719 0.86459 0.91077 0.0
C1749 C 0.27211 0.85212 0.91382 0.0
C1750 C 0.27931 0.87287 0.91693 0.0
C1751 C 0.2871 0.86882 0.92617 0.0
C1752 C 0.28736 0.85641 0.92923 0.0
H1753 H 0.34813 0.89398 0.96435 0.0
H1754 H 0.3336 0.88615 0.94958 0.0
C1755 C 0.27995 0.84812 0.9231 0.0
C1756 C 0.29473 0.87751 0.93302 0.0
H1757 H 0.31931 0.89621 0.93047 0.0
C1758 C 0.29281 0.87863 0.9456 0.0
C1759 C 0.30427 0.88403 0.92741 0.0
C1760 C 0.30689 0.88286 0.91396 0.0
C1761 C 0.30041 0.88584 0.95285 0.0
C1762 C 0.31006 0.89225 0.94729 0.0
C1763 C 0.3118 0.89139 0.93464 0.0
C1764 C 0.31928 0.89859 0.95472 0.0
C1765 C 0.29843 0.88604 0.96648 0.0
C1766 C 0.31618 0.90855 0.96212 0.0
C1767 C 0.32447 0.91304 0.97066 0.0
C1768 C 0.33597 0.90762 0.97188 0.0
C1769 C 0.3393 0.89825 0.96378 0.0
C1770 C 0.33103 0.89379 0.95528 0.0
H1771 H 0.2919 0.87894 0.96948 0.0
H1772 H 0.30712 0.88461 0.97139 0.0
H1773 H 0.29479 0.89506 0.96919 0.0
H1774 H 0.30719 0.91248 0.96167 0.0
H1775 H 0.32165 0.92032 0.97669 0.0
H1776 H 0.35354 0.9723 0.35733 0.0
H1777 H 0.34524 0.95731 0.34311 0.0
H1778 H 0.38094 0.95104 0.32843 0.0
H1779 H 0.38936 0.96603 0.34252 0.0
H1780 H 0.36279 0.95665 0.31094 0.0
H1781 H 0.34858 0.91956 0.34241 0.0
H1782 H 0.34357 0.93462 0.34646 0.0
H1783 H 0.35946 0.93111 0.34668 0.0
C1784 C 0.35966 0.96766 0.35117 0.0
C1785 C 0.37211 0.97042 0.35104 0.0
C1786 C 0.35491 0.95903 0.34311 0.0
C1787 C 0.36252 0.95301 0.33484 0.0
C1788 C 0.37495 0.95558 0.33481 0.0
H1789 H 0.35012 0.89624 0.28184 0.0
H1790 H 0.35675 0.90818 0.29945 0.0
C1791 C 0.37973 0.96416 0.34287 0.0
C1792 C 0.3574 0.94473 0.32557 0.0
H1793 H 0.34243 0.91776 0.32171 0.0
C1794 C 0.35836 0.94814 0.31328 0.0
C1795 C 0.35169 0.93363 0.32871 0.0
C1796 C 0.35082 0.92941 0.34177 0.0
C1797 C 0.35363 0.94078 0.30401 0.0
C1798 C 0.34772 0.9298 0.30715 0.0
C1799 C 0.34687 0.92628 0.31941 0.0
C1800 C 0.34268 0.92177 0.29764 0.0
C1801 C 0.35507 0.9447 0.2909 0.0
C1802 C 0.33238 0.92534 0.29109 0.0
C1803 C 0.32854 0.91856 0.28103 0.0
C1804 C 0.33501 0.90814 0.27734 0.0
C1805 C 0.34499 0.90428 0.28435 0.0
C1806 C 0.34877 0.91104 0.29444 0.0
H1807 H 0.36152 0.95242 0.28992 0.0
H1808 H 0.35831 0.93697 0.28522 0.0
H1809 H 0.34615 0.94763 0.28726 0.0
H1810 H 0.32756 0.9336 0.29351 0.0
H1811 H 0.3208 0.92177 0.27588 0.0
H1812 H 0.26207 0.13185 0.59174 0.0
H1813 H 0.27497 0.11621 0.5824 0.0
H1814 H 0.30047 0.14393 0.57155 0.0
H1815 H 0.28768 0.15959 0.58072 0.0
H1816 H 0.28225 0.11713 0.55634 0.0
H1817 H 0.32115 0.11628 0.58834 0.0
H1818 H 0.30624 0.12152 0.59272 0.0
H1819 H 0.31612 0.13128 0.58412 0.0
C1820 C 0.27049 0.1346 0.58748 0.0
C1821 C 0.27383 0.14697 0.58692 0.0
C1822 C 0.27783 0.12566 0.58217 0.0
C1823 C 0.2887 0.12894 0.57645 0.0
C1824 C 0.29218 0.14122 0.57609 0.0
H1825 H 0.34465 0.10924 0.52986 0.0
H1826 H 0.33118 0.11651 0.54581 0.0
C1827 C 0.28481 0.15016 0.58125 0.0
C1828 C 0.29605 0.11979 0.56992 0.0
H1829 H 0.32468 0.10824 0.56834 0.0
C1830 C 0.29144 0.11492 0.55905 0.0
C1831 C 0.308 0.11699 0.57355 0.0
C1832 C 0.31317 0.12169 0.58538 0.0
C1833 C 0.29881 0.10805 0.5512 0.0
C1834 C 0.311 0.10576 0.55453 0.0
C1835 C 0.31534 0.11001 0.5658 0.0
C1836 C 0.31978 0.10046 0.5458 0.0
C1837 C 0.29372 0.10408 0.53905 0.0
C1838 C 0.31806 0.08884 0.54073 0.0
C1839 C 0.32571 0.08467 0.53144 0.0
C1840 C 0.33528 0.09202 0.52718 0.0
C1841 C 0.33734 0.10335 0.53281 0.0
C1842 C 0.32966 0.10753 0.54199 0.0
H1843 H 0.28495 0.10858 0.53697 0.0
H1844 H 0.30018 0.10614 0.53157 0.0
H1845 H 0.29217 0.09409 0.53919 0.0
H1846 H 0.31065 0.08312 0.54375 0.0
H1847 H 0.32394 0.07583 0.52741 0.0
H1848 H 0.1106 0.02446 0.83679 0.0
H1849 H 0.12001 0.0393 0.82322 0.0
H1850 H 0.1452 0.04923 0.85166 0.0
H1851 H 0.13623 0.03382 0.86507 0.0
H1852 H 0.1225 0.06261 0.82349 0.0
H1853 H 0.16849 0.04228 0.82505 0.0
H1854 H 0.15553 0.03492 0.83178 0.0
H1855 H 0.16313 0.04709 0.83971 0.0
C1856 C 0.11813 0.02983 0.84017 0.0
C1857 C 0.12277 0.0279 0.85194 0.0
C1858 C 0.1235 0.03832 0.8324 0.0
C1859 C 0.13351 0.04521 0.8363 0.0
C1860 C 0.13778 0.04374 0.84828 0.0
H1861 H 0.15509 0.10457 0.78688 0.0
H1862 H 0.14868 0.09384 0.80538 0.0
C1863 C 0.13258 0.03501 0.85597 0.0
C1864 C 0.13942 0.05379 0.82768 0.0
H1865 H 0.16635 0.06055 0.8139 0.0
C1866 C 0.1321 0.06217 0.82141 0.0
C1867 C 0.15193 0.05314 0.82487 0.0
C1868 C 0.16021 0.0438 0.83061 0.0
C1869 C 0.1368 0.06962 0.81215 0.0
C1870 C 0.14936 0.06912 0.80949 0.0
C1871 C 0.15676 0.06101 0.81603 0.0
C1872 C 0.15477 0.0761 0.79924 0.0
C1873 C 0.1281 0.0774 0.80491 0.0
C1874 C 0.16115 0.06989 0.79005 0.0
C1875 C 0.1652 0.07607 0.7797 0.0
C1876 C 0.16277 0.08855 0.77825 0.0
C1877 C 0.15694 0.0949 0.78771 0.0
C1878 C 0.15317 0.08876 0.79822 0.0
H1879 H 0.1186 0.07417 0.80585 0.0
H1880 H 0.12846 0.08691 0.80834 0.0
H1881 H 0.13047 0.07743 0.79507 0.0
H1882 H 0.16257 0.06013 0.79065 0.0
H1883 H 0.16963 0.07094 0.77254 0.0
H1884 H 0.22425 0.86324 0.09811 0.0
H1885 H 0.21034 0.87771 0.0885 0.0
H1886 H 0.20819 0.85456 0.05676 0.0
H1887 H 0.22173 0.83989 0.06644 0.0
H1888 H 0.21188 0.89088 0.06811 0.0
H1889 H 0.17301 0.85943 0.06428 0.0
H1890 H 0.18621 0.85584 0.07328 0.0
H1891 H 0.18615 0.85313 0.05706 0.0
C1892 C 0.22078 0.86122 0.08909 0.0
C1893 C 0.224 0.85037 0.08307 0.0
C1894 C 0.21284 0.86949 0.08362 0.0
C1895 C 0.20803 0.86709 0.07203 0.0
C1896 C 0.2115 0.85642 0.06587 0.0
H1897 H 0.17994 0.91335 0.01664 0.0
H1898 H 0.19257 0.9042 0.03247 0.0
C1899 C 0.2193 0.84808 0.07139 0.0
C1900 C 0.19954 0.87577 0.06621 0.0
H1901 H 0.17254 0.87704 0.05125 0.0
C1902 C 0.20319 0.88792 0.06457 0.0
C1903 C 0.18806 0.87201 0.0619 0.0
C1904 C 0.18307 0.85943 0.06435 0.0
C1905 C 0.19593 0.89625 0.05814 0.0
C1906 C 0.18492 0.89218 0.05292 0.0
C1907 C 0.18103 0.88018 0.05512 0.0
C1908 C 0.1776 0.89979 0.04448 0.0
C1909 C 0.20015 0.90928 0.05706 0.0
C1910 C 0.16497 0.90044 0.04593 0.0
C1911 C 0.15773 0.90532 0.03671 0.0
C1912 C 0.16301 0.90985 0.02598 0.0
C1913 C 0.17568 0.91005 0.0249 0.0
C1914 C 0.18291 0.90489 0.034 0.0
H1915 H 0.20568 0.91196 0.0651 0.0
H1916 H 0.20597 0.9102 0.04886 0.0
H1917 H 0.19242 0.9157 0.05623 0.0
H1918 H 0.16065 0.8966 0.05393 0.0
H1919 H 0.14797 0.9051 0.03776 0.0
H1920 H 0.21934 0.32433 0.07488 0.0
H1921 H 0.20279 0.3323 0.06239 0.0
H1922 H 0.19702 0.3612 0.08837 0.0
H1923 H 0.21346 0.35331 0.101 0.0
H1924 H 0.17493 0.35112 0.07673 0.0
H1925 H 0.2115 0.36495 0.04452 0.0
H1926 H 0.21086 0.34909 0.0486 0.0
H1927 H 0.21464 0.36024 0.05996 0.0
C1928 C 0.21438 0.3322 0.07813 0.0
C1929 C 0.21791 0.33832 0.08884 0.0
C1930 C 0.20492 0.33674 0.07095 0.0
C1931 C 0.19885 0.34743 0.07439 0.0
C1932 C 0.20165 0.35295 0.08556 0.0
H1933 H 0.16872 0.40703 0.03625 0.0
H1934 H 0.17871 0.39256 0.04977 0.0
C1935 C 0.21109 0.34844 0.09274 0.0
C1936 C 0.19083 0.35383 0.06568 0.0
H1937 H 0.1917 0.37098 0.03973 0.0
C1938 C 0.17852 0.35533 0.06854 0.0
C1939 C 0.19563 0.35942 0.05511 0.0
C1940 C 0.20889 0.35846 0.05184 0.0
C1941 C 0.17091 0.36247 0.06114 0.0
C1942 C 0.1758 0.36821 0.05071 0.0
C1943 C 0.18802 0.36648 0.04773 0.0
C1944 C 0.16873 0.3769 0.04327 0.0
C1945 C 0.15785 0.36427 0.06473 0.0
C1946 C 0.15972 0.37286 0.03522 0.0
C1947 C 0.15398 0.38112 0.02739 0.0
C1948 C 0.1572 0.39354 0.02749 0.0
C1949 C 0.16602 0.39755 0.03586 0.0
C1950 C 0.17174 0.3893 0.04362 0.0
H1951 H 0.15572 0.36005 0.07368 0.0
H1952 H 0.1557 0.37415 0.06516 0.0
H1953 H 0.15189 0.36014 0.05769 0.0
H1954 H 0.15738 0.36328 0.03476 0.0
H1955 H 0.14723 0.37772 0.02108 0.0
H1956 H 0.64699 0.11695 0.97693 0.0
H1957 H 0.65754 0.13106 0.96325 0.0
H1958 H 0.67922 0.10141 0.94949 0.0
H1959 H 0.66885 0.08727 0.96307 0.0
H1960 H 0.69234 0.12243 0.95817 0.0
H1961 H 0.65587 0.13416 0.92507 0.0
H1962 H 0.65228 0.13515 0.94106 0.0
H1963 H 0.65536 0.12056 0.93437 0.0
C1964 C 0.65392 0.1134 0.97091 0.0
C1965 C 0.6571 0.10097 0.97116 0.0
C1966 C 0.65989 0.12147 0.96306 0.0
C1967 C 0.66908 0.11723 0.95533 0.0
C1968 C 0.67212 0.10483 0.95539 0.0
H1969 H 0.7128 0.14238 0.89688 0.0
H1970 H 0.6969 0.13369 0.90969 0.0
C1971 C 0.66617 0.09677 0.96318 0.0
C1972 C 0.67618 0.12574 0.94771 0.0
H1973 H 0.67492 0.14355 0.92219 0.0
C1974 C 0.68852 0.12715 0.95037 0.0
C1975 C 0.67113 0.1318 0.93754 0.0
C1976 C 0.65795 0.13034 0.93422 0.0
C1977 C 0.69605 0.13428 0.94297 0.0
C1978 C 0.69105 0.14027 0.93272 0.0
C1979 C 0.67865 0.13903 0.93014 0.0
C1980 C 0.69888 0.14699 0.92411 0.0
C1981 C 0.7094 0.13498 0.9459 0.0
C1982 C 0.70487 0.15764 0.92779 0.0
C1983 C 0.714 0.16264 0.92051 0.0
C1984 C 0.71729 0.15703 0.90945 0.0
C1985 C 0.71061 0.14687 0.9054 0.0
C1986 C 0.70147 0.14191 0.91268 0.0
H1987 H 0.71212 0.12822 0.95293 0.0
H1988 H 0.7149 0.1334 0.93756 0.0
H1989 H 0.71158 0.14422 0.94937 0.0
H1990 H 0.70289 0.16173 0.93656 0.0
H1991 H 0.71888 0.17051 0.92388 0.0
H1992 H 0.13978 0.40931 0.22127 0.0
H1993 H 0.13026 0.4229 0.20652 0.0
H1994 H 0.10491 0.39455 0.19682 0.0
H1995 H 0.11399 0.38112 0.21214 0.0
H1996 H 0.12712 0.42287 0.18318 0.0
H1997 H 0.08183 0.42102 0.20511 0.0
H1998 H 0.09505 0.41425 0.21194 0.0
H1999 H 0.08708 0.40646 0.19991 0.0
C2000 C 0.13222 0.40594 0.21594 0.0
C2001 C 0.12752 0.39422 0.21794 0.0
C2002 C 0.12678 0.41372 0.20751 0.0
C2003 C 0.11667 0.40986 0.20076 0.0
C2004 C 0.11242 0.39788 0.20222 0.0
H2005 H 0.09262 0.46013 0.14318 0.0
H2006 H 0.09984 0.44166 0.15339 0.0
C2007 C 0.11768 0.39018 0.21088 0.0
C2008 C 0.1105 0.41859 0.19252 0.0
H2009 H 0.08343 0.43262 0.18709 0.0
C2010 C 0.11755 0.42499 0.18401 0.0
C2011 C 0.09803 0.42143 0.19371 0.0
C2012 C 0.09008 0.41552 0.20323 0.0
C2013 C 0.11263 0.43443 0.17696 0.0
C2014 C 0.10013 0.43714 0.17801 0.0
C2015 C 0.09298 0.43046 0.18623 0.0
C2016 C 0.0945 0.44753 0.17148 0.0
C2017 C 0.12107 0.44179 0.16899 0.0
C2018 C 0.08836 0.45658 0.17811 0.0
C2019 C 0.08385 0.46692 0.17224 0.0
C2020 C 0.08561 0.46847 0.15966 0.0
C2021 C 0.09133 0.45921 0.15293 0.0
C2022 C 0.09554 0.44872 0.15877 0.0
H2023 H 0.13067 0.44075 0.17184 0.0
H2024 H 0.12034 0.43855 0.15944 0.0
H2025 H 0.11873 0.45163 0.16924 0.0
H2026 H 0.08738 0.45585 0.18792 0.0
H2027 H 0.0795 0.47394 0.17763 0.0
H2028 H 0.76867 0.83325 0.42891 0.0
H2029 H 0.78489 0.84302 0.44051 0.0
H2030 H 0.80156 0.85491 0.40695 0.0
H2031 H 0.78493 0.84577 0.39534 0.0
H2032 H 0.80861 0.84222 0.44265 0.0
H2033 H 0.79568 0.88695 0.42283 0.0
H2034 H 0.78698 0.87333 0.42019 0.0
H2035 H 0.80065 0.87613 0.41165 0.0
C2036 C 0.7759 0.83779 0.424 0.0
C2037 C 0.77546 0.83895 0.41126 0.0
C2038 C 0.78517 0.84337 0.43063 0.0
C2039 C 0.79425 0.85003 0.42461 0.0
C2040 C 0.79441 0.85021 0.41181 0.0
H2041 H 0.85212 0.88412 0.46861 0.0
H2042 H 0.84155 0.8705 0.45444 0.0
C2043 C 0.78497 0.84491 0.40518 0.0
C2044 C 0.80286 0.85752 0.43181 0.0
H2045 H 0.81209 0.88685 0.43644 0.0
C2046 C 0.80943 0.85197 0.44128 0.0
C2047 C 0.80377 0.8703 0.43011 0.0
C2048 C 0.79631 0.87706 0.42073 0.0
C2049 C 0.81663 0.85887 0.44928 0.0
C2050 C 0.81762 0.87161 0.44748 0.0
C2051 C 0.81136 0.87708 0.43778 0.0
C2052 C 0.82424 0.87968 0.45605 0.0
C2053 C 0.82261 0.85251 0.4599 0.0
C2054 C 0.81816 0.88958 0.46137 0.0
C2055 C 0.82424 0.89753 0.46917 0.0
C2056 C 0.83651 0.89565 0.47196 0.0
C2057 C 0.84262 0.8857 0.46671 0.0
C2058 C 0.83657 0.87787 0.45868 0.0
H2059 H 0.81838 0.84351 0.46179 0.0
H2060 H 0.8323 0.85092 0.45774 0.0
H2061 H 0.82209 0.85813 0.4683 0.0
H2062 H 0.80865 0.89117 0.4595 0.0
H2063 H 0.81927 0.90507 0.47313 0.0
H2064 H 0.85819 0.08688 0.22105 0.0
H2065 H 0.86713 0.07258 0.2066 0.0
H2066 H 0.89331 0.09979 0.19592 0.0
H2067 H 0.88478 0.11396 0.21089 0.0
H2068 H 0.87006 0.07199 0.18316 0.0
H2069 H 0.91551 0.07265 0.20476 0.0
H2070 H 0.90257 0.08 0.21154 0.0
H2071 H 0.91076 0.08731 0.19936 0.0
C2072 C 0.8658 0.08986 0.21557 0.0
C2073 C 0.87089 0.10148 0.21719 0.0
C2074 C 0.87091 0.08167 0.20731 0.0
C2075 C 0.88109 0.085 0.20039 0.0
C2076 C 0.88574 0.09687 0.20147 0.0
H2077 H 0.9033 0.03429 0.14264 0.0
H2078 H 0.89662 0.05277 0.15316 0.0
C2079 C 0.8808 0.10498 0.20994 0.0
C2080 C 0.88688 0.07588 0.19229 0.0
H2081 H 0.91349 0.06101 0.18677 0.0
C2082 C 0.87956 0.0696 0.18393 0.0
C2083 C 0.89926 0.07266 0.19343 0.0
C2084 C 0.90746 0.07842 0.20284 0.0
C2085 C 0.88416 0.05999 0.17689 0.0
C2086 C 0.8966 0.05695 0.17782 0.0
C2087 C 0.904 0.06343 0.18597 0.0
C2088 C 0.90192 0.0465 0.17112 0.0
C2089 C 0.87547 0.05284 0.16901 0.0
C2090 C 0.90786 0.0372 0.17759 0.0
C2091 C 0.91204 0.02683 0.17154 0.0
C2092 C 0.91017 0.0255 0.15895 0.0
C2093 C 0.90469 0.03503 0.15239 0.0
C2094 C 0.90078 0.04553 0.15841 0.0
H2095 H 0.86593 0.05408 0.17199 0.0
H2096 H 0.87615 0.05608 0.15945 0.0
H2097 H 0.87759 0.04295 0.16921 0.0
H2098 H 0.90891 0.03777 0.1874 0.0
H2099 H 0.91622 0.01961 0.17681 0.0
H2100 H 0.28264 0.64183 0.59909 0.0
H2101 H 0.29908 0.6342 0.58637 0.0
H2102 H 0.29289 0.66321 0.56057 0.0
H2103 H 0.27631 0.67088 0.57317 0.0
H2104 H 0.29171 0.64033 0.55038 0.0
H2105 H 0.33358 0.6448 0.57782 0.0
H2106 H 0.3214 0.63783 0.58613 0.0
H2107 H 0.31998 0.65337 0.58111 0.0
C2108 C 0.28491 0.64677 0.59085 0.0
C2109 C 0.27803 0.65691 0.5871 0.0
C2110 C 0.29441 0.64244 0.58363 0.0
C2111 C 0.29727 0.6482 0.57258 0.0
C2112 C 0.29085 0.65868 0.56911 0.0
H2113 H 0.34973 0.61767 0.52011 0.0
H2114 H 0.33925 0.63236 0.53328 0.0
C2115 C 0.28137 0.66304 0.57633 0.0
C2116 C 0.30572 0.64228 0.56393 0.0
H2117 H 0.33406 0.62999 0.56152 0.0
C2118 C 0.30104 0.63829 0.55272 0.0
C2119 C 0.3179 0.63966 0.56697 0.0
C2120 C 0.32356 0.64425 0.57862 0.0
C2121 C 0.30801 0.63118 0.54476 0.0
C2122 C 0.31992 0.62794 0.54815 0.0
C2123 C 0.32486 0.63244 0.55904 0.0
C2124 C 0.32692 0.61908 0.54089 0.0
C2125 C 0.30248 0.62683 0.53296 0.0
C2126 C 0.32354 0.60677 0.54104 0.0
C2127 C 0.32947 0.59838 0.53359 0.0
C2128 C 0.33889 0.60214 0.52581 0.0
C2129 C 0.34248 0.61447 0.52594 0.0
C2130 C 0.33654 0.62287 0.53347 0.0
H2131 H 0.29422 0.63209 0.53053 0.0
H2132 H 0.30911 0.62756 0.52538 0.0
H2133 H 0.29991 0.61709 0.53389 0.0
H2134 H 0.31615 0.60371 0.54678 0.0
H2135 H 0.32648 0.58898 0.5338 0.0
H2136 H 0.10889 0.61499 0.28207 0.0
H2137 H 0.1002 0.60306 0.29881 0.0
H2138 H 0.12509 0.57375 0.29087 0.0
H2139 H 0.13422 0.5859 0.27469 0.0
H2140 H 0.08841 0.58329 0.29894 0.0
H2141 H 0.12915 0.57472 0.32648 0.0
H2142 H 0.12914 0.58557 0.31412 0.0
H2143 H 0.13197 0.56961 0.31125 0.0
C2144 C 0.11257 0.60605 0.28402 0.0
C2145 C 0.12226 0.60138 0.27715 0.0
C2146 C 0.10762 0.59925 0.29359 0.0
C2147 C 0.11217 0.5876 0.29633 0.0
C2148 C 0.12173 0.58289 0.2893 0.0
H2149 H 0.0753 0.52539 0.32175 0.0
H2150 H 0.08156 0.54416 0.31175 0.0
C2151 C 0.12686 0.58979 0.27996 0.0
C2152 C 0.1064 0.57997 0.30589 0.0
H2153 H 0.11306 0.55962 0.32839 0.0
C2154 C 0.09379 0.5783 0.30555 0.0
C2155 C 0.11328 0.57374 0.31484 0.0
C2156 C 0.1266 0.57614 0.31677 0.0
C2157 C 0.08801 0.56996 0.3133 0.0
C2158 C 0.0951 0.56267 0.32121 0.0
C2159 C 0.10759 0.56497 0.32216 0.0
C2160 C 0.09005 0.55197 0.32778 0.0
C2161 C 0.07438 0.56905 0.31284 0.0
C2162 C 0.09291 0.5499 0.3401 0.0
C2163 C 0.08967 0.53894 0.34573 0.0
C2164 C 0.08334 0.52994 0.33921 0.0
C2165 C 0.08001 0.53224 0.32707 0.0
C2166 C 0.08351 0.54305 0.32136 0.0
H2167 H 0.07027 0.57805 0.3107 0.0
H2168 H 0.07172 0.56268 0.30545 0.0
H2169 H 0.07055 0.56573 0.3216 0.0
H2170 H 0.09798 0.5566 0.34525 0.0
H2171 H 0.09234 0.5374 0.35512 0.0
H2172 H 0.39578 0.46482 0.84736 0.0
H2173 H 0.38843 0.44744 0.83564 0.0
H2174 H 0.42057 0.44845 0.81335 0.0
H2175 H 0.42807 0.46595 0.82496 0.0
H2176 H 0.3862 0.4506 0.80801 0.0
H2177 H 0.41387 0.41097 0.82332 0.0
H2178 H 0.41092 0.42389 0.83312 0.0
H2179 H 0.42138 0.42533 0.8207 0.0
C2180 C 0.40143 0.46126 0.84011 0.0
C2181 C 0.41248 0.46689 0.83703 0.0
C2182 C 0.3972 0.45131 0.83345 0.0
C2183 C 0.40399 0.4467 0.8237 0.0
C2184 C 0.41528 0.45185 0.82095 0.0
H2185 H 0.38977 0.39304 0.76775 0.0
H2186 H 0.39897 0.40705 0.78238 0.0
C2187 C 0.41951 0.46187 0.82757 0.0
C2188 C 0.39859 0.43748 0.81557 0.0
H2189 H 0.40012 0.4076 0.80717 0.0
C2190 C 0.38918 0.44117 0.80783 0.0
C2191 C 0.40267 0.4253 0.81533 0.0
C2192 C 0.41273 0.42103 0.82358 0.0
C2193 C 0.38376 0.43298 0.7997 0.0
C2194 C 0.38763 0.42068 0.79961 0.0
C2195 C 0.39711 0.41701 0.80733 0.0
C2196 C 0.3821 0.41159 0.79134 0.0
C2197 C 0.37419 0.4377 0.79105 0.0
C2198 C 0.3696 0.40927 0.79174 0.0
C2199 C 0.36428 0.40139 0.78329 0.0
C2200 C 0.37141 0.39551 0.77445 0.0
C2201 C 0.38402 0.39743 0.77444 0.0
C2202 C 0.3893 0.40542 0.7828 0.0
H2203 H 0.3748 0.44774 0.78989 0.0
H2204 H 0.37499 0.43335 0.78194 0.0
H2205 H 0.36509 0.43559 0.7948 0.0
H2206 H 0.36393 0.41368 0.79848 0.0
H2207 H 0.35457 0.39998 0.78365 0.0
H2208 H 0.92442 0.77658 0.67187 0.0
H2209 H 0.93691 0.79276 0.66315 0.0
H2210 H 0.91037 0.7984 0.63485 0.0
H2211 H 0.89774 0.78241 0.64354 0.0
H2212 H 0.9461 0.79014 0.64007 0.0
H2213 H 0.92018 0.83324 0.64338 0.0
H2214 H 0.91677 0.82006 0.65265 0.0
H2215 H 0.91139 0.82093 0.63719 0.0
C2216 C 0.92107 0.78147 0.66398 0.0
C2217 C 0.91013 0.77807 0.65831 0.0
C2218 C 0.92823 0.79072 0.65902 0.0
C2219 C 0.92453 0.79681 0.6484 0.0
C2220 C 0.91329 0.79397 0.64317 0.0
H2221 H 0.9657 0.82339 0.58822 0.0
H2222 H 0.95227 0.81291 0.60251 0.0
C2223 C 0.90612 0.78473 0.64811 0.0
C2224 C 0.93312 0.80473 0.64176 0.0
H2225 H 0.93606 0.83263 0.62829 0.0
C2226 C 0.94399 0.7995 0.63766 0.0
C2227 C 0.93036 0.81693 0.63867 0.0
C2228 C 0.91909 0.82317 0.6433 0.0
C2229 C 0.95194 0.80597 0.63012 0.0
C2230 C 0.94885 0.81792 0.62648 0.0
C2231 C 0.93827 0.82338 0.63099 0.0
C2232 C 0.95643 0.82472 0.61774 0.0
C2233 C 0.96351 0.79994 0.62595 0.0
C2234 C 0.96297 0.83496 0.62157 0.0
C2235 C 0.97068 0.84096 0.61345 0.0
C2236 C 0.97189 0.83685 0.60134 0.0
C2237 C 0.96503 0.82677 0.59748 0.0
C2238 C 0.95737 0.82075 0.60562 0.0
H2239 H 0.96585 0.79193 0.63169 0.0
H2240 H 0.96238 0.79674 0.61641 0.0
H2241 H 0.97118 0.80648 0.62616 0.0
H2242 H 0.9623 0.83815 0.6309 0.0
H2243 H 0.97576 0.84875 0.61672 0.0
H2244 H 0.9651 0.17241 0.42877 0.0
H2245 H 0.94795 0.18427 0.42115 0.0
H2246 H 0.9459 0.16097 0.38952 0.0
H2247 H 0.96267 0.1489 0.39718 0.0
H2248 H 0.94972 0.19702 0.40089 0.0
H2249 H 0.91068 0.16613 0.39575 0.0
H2250 H 0.92364 0.16222 0.405 0.0
H2251 H 0.92382 0.15957 0.38877 0.0
C2252 C 0.96076 0.16958 0.42038 0.0
C2253 C 0.96538 0.15978 0.41352 0.0
C2254 C 0.95095 0.17637 0.41604 0.0
C2255 C 0.94557 0.17347 0.4048 0.0
C2256 C 0.94968 0.16323 0.39835 0.0
H2257 H 0.91585 0.20825 0.3437 0.0
H2258 H 0.92448 0.195 0.35937 0.0
C2259 C 0.9594 0.15639 0.40271 0.0
C2260 C 0.93713 0.18213 0.39883 0.0
H2261 H 0.91132 0.18344 0.38171 0.0
C2262 C 0.94116 0.19414 0.39698 0.0
C2263 C 0.92597 0.17838 0.3937 0.0
C2264 C 0.92074 0.1659 0.39603 0.0
C2265 C 0.93473 0.20223 0.3895 0.0
C2266 C 0.92401 0.1982 0.38376 0.0
C2267 C 0.91963 0.18643 0.38608 0.0
C2268 C 0.91789 0.20576 0.37451 0.0
C2269 C 0.93979 0.2148 0.38719 0.0
C2270 C 0.91124 0.21609 0.37791 0.0
C2271 C 0.90629 0.2237 0.36898 0.0
C2272 C 0.90798 0.22111 0.35652 0.0
C2273 C 0.91445 0.21057 0.3532 0.0
C2274 C 0.91932 0.20295 0.36213 0.0
H2275 H 0.94875 0.21617 0.39158 0.0
H2276 H 0.94074 0.21639 0.37723 0.0
H2277 H 0.93342 0.22175 0.3908 0.0
H2278 H 0.91006 0.21836 0.38745 0.0
H2279 H 0.90134 0.23172 0.37187 0.0
H2280 H 0.51754 0.15314 0.11996 0.0
H2281 H 0.53176 0.1639 0.13327 0.0
H2282 H 0.54968 0.17906 0.10181 0.0
H2283 H 0.53551 0.1684 0.08837 0.0
H2284 H 0.56487 0.16733 0.1234 0.0
H2285 H 0.53129 0.20346 0.13519 0.0
H2286 H 0.52659 0.18772 0.13541 0.0
H2287 H 0.53024 0.19486 0.12118 0.0
C2288 C 0.52454 0.1587 0.11584 0.0
C2289 C 0.52533 0.15997 0.10309 0.0
C2290 C 0.53264 0.16482 0.12347 0.0
C2291 C 0.54169 0.17224 0.11847 0.0
C2292 C 0.54272 0.17333 0.10579 0.0
H2293 H 0.59858 0.22023 0.13848 0.0
H2294 H 0.58624 0.20389 0.13009 0.0
C2295 C 0.53459 0.16728 0.09814 0.0
C2296 C 0.54977 0.17935 0.12646 0.0
H2297 H 0.55091 0.20555 0.14308 0.0
C2298 C 0.56184 0.17563 0.12782 0.0
C2299 C 0.54568 0.19006 0.13227 0.0
C2300 C 0.53276 0.19437 0.13097 0.0
C2301 C 0.57007 0.18256 0.1347 0.0
C2302 C 0.56613 0.19361 0.14005 0.0
C2303 C 0.55392 0.19707 0.139 0.0
C2304 C 0.57462 0.20228 0.14591 0.0
C2305 C 0.58286 0.17796 0.13615 0.0
C2306 C 0.57218 0.20687 0.1576 0.0
C2307 C 0.57912 0.21639 0.16238 0.0
C2308 C 0.58862 0.22152 0.15552 0.0
C2309 C 0.59137 0.2165 0.14404 0.0
C2310 C 0.58437 0.20705 0.13925 0.0
H2311 H 0.58324 0.16786 0.13547 0.0
H2312 H 0.58857 0.18175 0.12873 0.0
H2313 H 0.5868 0.18077 0.14504 0.0
H2314 H 0.56465 0.20335 0.16287 0.0
H2315 H 0.57677 0.21999 0.17127 0.0
H2316 H 0.59997 0.76861 0.86711 0.0
H2317 H 0.58966 0.78119 0.88234 0.0
H2318 H 0.56632 0.79577 0.85441 0.0
H2319 H 0.57651 0.78327 0.83909 0.0
H2320 H 0.58509 0.80827 0.88254 0.0
H2321 H 0.54389 0.77918 0.88106 0.0
H2322 H 0.55847 0.77404 0.8756 0.0
H2323 H 0.54944 0.78414 0.86646 0.0
C2324 C 0.5927 0.77456 0.86417 0.0
C2325 C 0.58899 0.77485 0.85188 0.0
C2326 C 0.58687 0.78175 0.87289 0.0
C2327 C 0.57719 0.78926 0.86947 0.0
C2328 C 0.57372 0.78991 0.85719 0.0
H2329 H 0.53524 0.84633 0.89849 0.0
H2330 H 0.5515 0.83409 0.88984 0.0
C2331 C 0.57958 0.78278 0.84846 0.0
C2332 C 0.5703 0.79604 0.87878 0.0
H2333 H 0.54218 0.7981 0.89141 0.0
C2334 C 0.57575 0.80601 0.88462 0.0
C2335 C 0.55822 0.79287 0.88159 0.0
C2336 C 0.55215 0.78191 0.87595 0.0
C2337 C 0.56917 0.8133 0.8928 0.0
C2338 C 0.55686 0.81054 0.89505 0.0
C2339 C 0.55162 0.80021 0.88965 0.0
C2340 C 0.54881 0.81878 0.902 0.0
C2341 C 0.57538 0.82396 0.89882 0.0
C2342 C 0.54203 0.81432 0.91186 0.0
C2343 C 0.53263 0.82127 0.91679 0.0
C2344 C 0.52977 0.83275 0.91183 0.0
C2345 C 0.53713 0.8375 0.90249 0.0
C2346 C 0.54652 0.83055 0.89759 0.0
H2347 H 0.58534 0.82255 0.89932 0.0
H2348 H 0.5737 0.83231 0.89336 0.0
H2349 H 0.57184 0.8255 0.90817 0.0
H2350 H 0.54363 0.80522 0.91533 0.0
H2351 H 0.52718 0.81734 0.924 0.0
H2352 H 0.963 0.16699 0.91066 0.0
H2353 H 0.9486 0.17819 0.89799 0.0
H2354 H 0.963 0.16087 0.8658 0.0
H2355 H 0.97735 0.14949 0.87836 0.0
H2356 H 0.955 0.19436 0.87958 0.0
H2357 H 0.92623 0.1569 0.86156 0.0
H2358 H 0.93603 0.15501 0.87462 0.0
H2359 H 0.94224 0.1548 0.85948 0.0
C2360 C 0.96305 0.16546 0.9009 0.0
C2361 C 0.97136 0.15736 0.89553 0.0
C2362 C 0.9548 0.17186 0.89368 0.0
C2363 C 0.95465 0.17024 0.881 0.0
C2364 C 0.96281 0.16206 0.87561 0.0
H2365 H 0.92475 0.22222 0.82958 0.0
H2366 H 0.93719 0.20637 0.83901 0.0
C2367 C 0.97106 0.15563 0.88281 0.0
C2368 C 0.94657 0.17779 0.87336 0.0
H2369 H 0.92315 0.1766 0.85302 0.0
C2370 C 0.94804 0.19048 0.87378 0.0
C2371 C 0.93748 0.17267 0.86585 0.0
C2372 C 0.93529 0.1591 0.86538 0.0
C2373 C 0.94067 0.19822 0.86685 0.0
C2374 C 0.93171 0.1931 0.8592 0.0
C2375 C 0.93016 0.18043 0.8588 0.0
C2376 C 0.92353 0.20099 0.85207 0.0
C2377 C 0.94237 0.21183 0.86789 0.0
C2378 C 0.91159 0.20279 0.85602 0.0
C2379 C 0.90446 0.21186 0.8507 0.0
C2380 C 0.90917 0.21923 0.84131 0.0
C2381 C 0.92085 0.21676 0.83681 0.0
C2382 C 0.92799 0.20772 0.84219 0.0
H2383 H 0.94839 0.21434 0.87561 0.0
H2384 H 0.94645 0.21535 0.85934 0.0
H2385 H 0.93349 0.21643 0.86915 0.0
H2386 H 0.90803 0.19763 0.86364 0.0
H2387 H 0.89546 0.21343 0.85431 0.0
H2388 H 0.53005 0.17507 0.57043 0.0
H2389 H 0.54731 0.18658 0.57835 0.0
H2390 H 0.54953 0.16212 0.60908 0.0
H2391 H 0.53267 0.15039 0.60111 0.0
H2392 H 0.54594 0.19859 0.59909 0.0
H2393 H 0.58471 0.16705 0.6025 0.0
H2394 H 0.57154 0.16362 0.59335 0.0
H2395 H 0.57158 0.16049 0.60949 0.0
C2396 C 0.53444 0.17193 0.57869 0.0
C2397 C 0.52987 0.16187 0.58519 0.0
C2398 C 0.54431 0.17852 0.5832 0.0
C2399 C 0.54979 0.17517 0.59426 0.0
C2400 C 0.54568 0.16473 0.60038 0.0
H2401 H 0.58104 0.21017 0.65508 0.0
H2402 H 0.57171 0.19671 0.63998 0.0
C2403 C 0.53591 0.15808 0.59584 0.0
C2404 C 0.5584 0.1835 0.60041 0.0
H2405 H 0.58471 0.18408 0.61681 0.0
C2406 C 0.55456 0.1955 0.60269 0.0
C2407 C 0.56964 0.17947 0.60516 0.0
C2408 C 0.57465 0.16698 0.60237 0.0
C2409 C 0.56131 0.20332 0.61016 0.0
C2410 C 0.57215 0.19903 0.61545 0.0
C2411 C 0.5763 0.18726 0.61278 0.0
C2412 C 0.5788 0.20647 0.62441 0.0
C2413 C 0.55655 0.21593 0.61285 0.0
C2414 C 0.58597 0.21626 0.62056 0.0
C2415 C 0.59132 0.22397 0.62914 0.0
C2416 C 0.58951 0.22203 0.64171 0.0
C2417 C 0.58256 0.21197 0.64549 0.0
C2418 C 0.57727 0.20424 0.63689 0.0
H2419 H 0.54758 0.21762 0.60858 0.0
H2420 H 0.55573 0.21726 0.62285 0.0
H2421 H 0.56305 0.22284 0.60938 0.0
H2422 H 0.5872 0.21809 0.61093 0.0
H2423 H 0.59664 0.23161 0.62589 0.0
H2424 H 0.53234 0.82478 0.40856 0.0
H2425 H 0.54574 0.81355 0.39486 0.0
H2426 H 0.53189 0.83384 0.3642 0.0
H2427 H 0.51849 0.84523 0.37781 0.0
H2428 H 0.53813 0.7992 0.37459 0.0
H2429 H 0.56934 0.83667 0.36104 0.0
H2430 H 0.55975 0.83756 0.37436 0.0
H2431 H 0.55341 0.83971 0.35945 0.0
C2432 C 0.53216 0.82692 0.39892 0.0
C2433 C 0.52432 0.83591 0.39429 0.0
C2434 C 0.53983 0.82049 0.39111 0.0
C2435 C 0.53988 0.82298 0.37857 0.0
C2436 C 0.53212 0.83195 0.37389 0.0
H2437 H 0.57099 0.77287 0.32543 0.0
H2438 H 0.55809 0.78837 0.3348 0.0
C2439 C 0.52441 0.83838 0.38169 0.0
C2440 C 0.54769 0.81576 0.37036 0.0
H2441 H 0.57227 0.81753 0.35152 0.0
C2442 C 0.54556 0.8032 0.36949 0.0
C2443 C 0.55738 0.82106 0.3638 0.0
C2444 C 0.56022 0.83448 0.36473 0.0
C2445 C 0.55295 0.79572 0.3623 0.0
C2446 C 0.56262 0.801 0.3557 0.0
C2447 C 0.56474 0.81358 0.3565 0.0
C2448 C 0.57111 0.79334 0.34866 0.0
C2449 C 0.55059 0.78216 0.36211 0.0
C2450 C 0.58289 0.79147 0.35303 0.0
C2451 C 0.5903 0.78263 0.34773 0.0
C2452 C 0.58604 0.77553 0.33793 0.0
C2453 C 0.57454 0.7781 0.33301 0.0
C2454 C 0.56713 0.78693 0.33835 0.0
H2455 H 0.54414 0.77932 0.36935 0.0
H2456 H 0.54668 0.77959 0.35315 0.0
H2457 H 0.55917 0.77702 0.36331 0.0
H2458 H 0.58611 0.79639 0.36097 0.0
H2459 H 0.59915 0.781 0.35168 0.0
H2460 H 0.89366 0.77761 0.13388 0.0
H2461 H 0.90408 0.79126 0.11969 0.0
H2462 H 0.93628 0.78947 0.14196 0.0
H2463 H 0.92571 0.77634 0.15648 0.0
H2464 H 0.93272 0.8117 0.13467 0.0
H2465 H 0.92811 0.78123 0.09457 0.0
H2466 H 0.91383 0.78568 0.10095 0.0
H2467 H 0.92409 0.77646 0.10977 0.0
C2468 C 0.90296 0.78018 0.13575 0.0
C2469 C 0.90892 0.77588 0.14623 0.0
C2470 C 0.90893 0.78789 0.12759 0.0
C2471 C 0.92106 0.79113 0.12958 0.0
C2472 C 0.92693 0.78704 0.14019 0.0
H2473 H 0.97654 0.81476 0.08122 0.0
H2474 H 0.9604 0.80372 0.0917 0.0
C2475 C 0.92089 0.77955 0.14849 0.0
C2476 C 0.92772 0.79884 0.12073 0.0
H2477 H 0.93683 0.8006 0.09101 0.0
C2478 C 0.9336 0.80929 0.12511 0.0
C2479 C 0.92894 0.79561 0.10828 0.0
C2480 C 0.92351 0.78407 0.10312 0.0
C2481 C 0.94096 0.81641 0.11753 0.0
C2482 C 0.94201 0.81333 0.10502 0.0
C2483 C 0.93587 0.80305 0.10055 0.0
C2484 C 0.95039 0.81993 0.09678 0.0
C2485 C 0.94804 0.82675 0.12321 0.0
C2486 C 0.94975 0.83265 0.09553 0.0
C2487 C 0.95913 0.83899 0.08981 0.0
C2488 C 0.96903 0.83266 0.08485 0.0
C2489 C 0.96899 0.81986 0.08494 0.0
C2490 C 0.95978 0.81355 0.09096 0.0
H2491 H 0.94866 0.82582 0.13328 0.0
H2492 H 0.95738 0.82719 0.11948 0.0
H2493 H 0.94341 0.8355 0.12122 0.0
H2494 H 0.94235 0.83773 0.09956 0.0
H2495 H 0.95889 0.84887 0.0897 0.0
H2496 H 0.61661 0.97283 0.84707 0.0
H2497 H 0.62984 0.95865 0.83596 0.0
H2498 H 0.60027 0.94949 0.81197 0.0
H2499 H 0.58707 0.96351 0.82285 0.0
H2500 H 0.62592 0.93265 0.83174 0.0
H2501 H 0.62855 0.95912 0.78887 0.0
H2502 H 0.6242 0.96588 0.80325 0.0
H2503 H 0.6133 0.95755 0.79433 0.0
C2504 C 0.61295 0.96784 0.83939 0.0
C2505 C 0.60078 0.96937 0.83582 0.0
C2506 C 0.62051 0.95974 0.83308 0.0
C2507 C 0.61605 0.9532 0.82305 0.0
C2508 C 0.60393 0.95464 0.81956 0.0
H2509 H 0.62217 0.88837 0.78609 0.0
H2510 H 0.62104 0.90418 0.80157 0.0
C2511 C 0.59638 0.96263 0.82585 0.0
C2512 C 0.62377 0.94455 0.81625 0.0
H2513 H 0.63196 0.93746 0.78716 0.0
C2514 C 0.62753 0.93379 0.82204 0.0
C2515 C 0.6261 0.94617 0.80369 0.0
C2516 C 0.62294 0.95787 0.79719 0.0
C2517 C 0.63261 0.92416 0.81533 0.0
C2518 C 0.63374 0.92531 0.80252 0.0
C2519 C 0.63098 0.9365 0.79696 0.0
C2520 C 0.63608 0.91469 0.79449 0.0
C2521 C 0.63633 0.91271 0.82196 0.0
C2522 C 0.64495 0.91528 0.78533 0.0
C2523 C 0.64552 0.90628 0.7763 0.0
C2524 C 0.63715 0.8966 0.77622 0.0
C2525 C 0.62873 0.89571 0.78581 0.0
C2526 C 0.62816 0.9047 0.79479 0.0
H2527 H 0.63937 0.91483 0.83138 0.0
H2528 H 0.62842 0.90652 0.82265 0.0
H2529 H 0.64374 0.90787 0.8171 0.0
H2530 H 0.6511 0.92296 0.78487 0.0
H2531 H 0.65216 0.90724 0.76909 0.0
H2532 H 0.84868 0.89001 0.52787 0.0
H2533 H 0.83628 0.8809 0.54381 0.0
H2534 H 0.81552 0.91409 0.54663 0.0
H2535 H 0.82766 0.92321 0.53035 0.0
H2536 H 0.83046 0.88606 0.56736 0.0
H2537 H 0.78975 0.88948 0.53766 0.0
H2538 H 0.80481 0.89264 0.53214 0.0
H2539 H 0.79683 0.90381 0.54106 0.0
C2540 C 0.84159 0.89547 0.53196 0.0
C2541 C 0.83902 0.90728 0.52765 0.0
C2542 C 0.83451 0.89023 0.5411 0.0
C2543 C 0.82479 0.89671 0.54617 0.0
C2544 C 0.82278 0.90882 0.54258 0.0
H2545 H 0.76786 0.86961 0.5944 0.0
H2546 H 0.78207 0.88299 0.58375 0.0
C2547 C 0.82978 0.91404 0.53333 0.0
C2548 C 0.81632 0.8904 0.55453 0.0
H2549 H 0.78702 0.88068 0.55703 0.0
C2550 C 0.82095 0.88495 0.56515 0.0
C2551 C 0.80391 0.88888 0.55156 0.0
C2552 C 0.79852 0.8939 0.53994 0.0
C2553 C 0.81353 0.87793 0.57281 0.0
C2554 C 0.80121 0.87633 0.56973 0.0
C2555 C 0.79649 0.88201 0.55933 0.0
C2556 C 0.79316 0.86829 0.57684 0.0
C2557 C 0.81888 0.87218 0.58408 0.0
C2558 C 0.7947 0.85561 0.57637 0.0
C2559 C 0.78654 0.84792 0.58233 0.0
C2560 C 0.77672 0.8528 0.58889 0.0
C2561 C 0.77533 0.86554 0.58946 0.0
C2562 C 0.78344 0.87321 0.5834 0.0
H2563 H 0.82782 0.87618 0.58645 0.0
H2564 H 0.81266 0.87327 0.59197 0.0
H2565 H 0.82013 0.86227 0.58248 0.0
H2566 H 0.80209 0.85167 0.57119 0.0
H2567 H 0.7879 0.83816 0.58175 0.0
H2568 H 0.91495 0.03304 0.32457 0.0
H2569 H 0.90282 0.04751 0.31299 0.0
H2570 H 0.87096 0.03694 0.33312 0.0
H2571 H 0.88306 0.02235 0.34491 0.0
H2572 H 0.88161 0.04172 0.29853 0.0
H2573 H 0.87266 0.07511 0.33577 0.0
H2574 H 0.88482 0.06414 0.33665 0.0
H2575 H 0.86944 0.05927 0.33862 0.0
C2576 C 0.90537 0.03376 0.32661 0.0
C2577 C 0.89999 0.0265 0.3357 0.0
C2578 C 0.89846 0.04204 0.31995 0.0
C2579 C 0.88604 0.04332 0.32226 0.0
C2580 C 0.88057 0.03615 0.33131 0.0
H2581 H 0.84624 0.08785 0.26863 0.0
H2582 H 0.8497 0.0718 0.28377 0.0
C2583 C 0.8875 0.0278 0.33799 0.0
C2584 C 0.87895 0.0521 0.31495 0.0
H2585 H 0.86615 0.0804 0.31605 0.0
C2586 C 0.87802 0.05009 0.30235 0.0
C2587 C 0.87436 0.063 0.32003 0.0
C2588 C 0.87538 0.06563 0.3335 0.0
C2589 C 0.87311 0.05895 0.29458 0.0
C2590 C 0.86887 0.07004 0.2996 0.0
C2591 C 0.86933 0.07184 0.31227 0.0
C2592 C 0.86548 0.08042 0.29169 0.0
C2593 C 0.87319 0.05668 0.281 0.0
C2594 C 0.87287 0.0908 0.29152 0.0
C2595 C 0.87091 0.09998 0.28295 0.0
C2596 C 0.86149 0.09897 0.27436 0.0
C2597 C 0.85364 0.08888 0.27503 0.0
C2598 C 0.85562 0.07968 0.28364 0.0
H2599 H 0.87857 0.04849 0.27852 0.0
H2600 H 0.86376 0.05527 0.27778 0.0
H2601 H 0.87697 0.06467 0.27607 0.0
H2602 H 0.88051 0.09156 0.29768 0.0
H2603 H 0.87706 0.10768 0.28281 0.0
H2604 H 0.67277 0.07474 0.02605 0.0
H2605 H 0.68547 0.08374 0.04191 0.0
H2606 H 0.65896 0.11207 0.04746 0.0
H2607 H 0.64612 0.1031 0.03176 0.0
H2608 H 0.69466 0.10695 0.03924 0.0
H2609 H 0.66873 0.10335 0.08237 0.0
H2610 H 0.6654 0.0941 0.06915 0.0
H2611 H 0.66004 0.10956 0.07 0.0
C2612 C 0.66948 0.08271 0.03083 0.0
C2613 C 0.65847 0.08826 0.02752 0.0
C2614 C 0.67676 0.08784 0.0399 0.0
C2615 C 0.67312 0.09853 0.04589 0.0
C2616 C 0.66184 0.10371 0.04309 0.0
H2617 H 0.71584 0.15739 0.07385 0.0
H2618 H 0.70209 0.14382 0.06286 0.0
C2619 C 0.65455 0.0986 0.03403 0.0
C2620 C 0.68172 0.10514 0.05384 0.0
H2621 H 0.68494 0.11796 0.08202 0.0
C2622 C 0.69261 0.10922 0.04864 0.0
C2623 C 0.67903 0.10805 0.0661 0.0
C2624 C 0.66771 0.10344 0.07229 0.0
C2625 C 0.7007 0.1165 0.05526 0.0
C2626 C 0.69773 0.11989 0.06732 0.0
C2627 C 0.68708 0.11545 0.0727 0.0
C2628 C 0.70557 0.1282 0.07438 0.0
C2629 C 0.71232 0.12058 0.04927 0.0
C2630 C 0.71183 0.12393 0.08463 0.0
C2631 C 0.71972 0.13164 0.09093 0.0
C2632 C 0.72139 0.14379 0.08712 0.0
C2633 C 0.71482 0.14809 0.07701 0.0
C2634 C 0.70698 0.14035 0.07069 0.0
H2635 H 0.71454 0.11497 0.04114 0.0
H2636 H 0.71136 0.1302 0.04628 0.0
H2637 H 0.72001 0.1201 0.05579 0.0
H2638 H 0.71079 0.11457 0.08761 0.0
H2639 H 0.72456 0.12804 0.09873 0.0
H2640 H 0.58404 0.03126 0.6763 0.0
H2641 H 0.59731 0.04506 0.6874 0.0
H2642 H 0.62798 0.03228 0.66667 0.0
H2643 H 0.6147 0.0184 0.65531 0.0
H2644 H 0.61853 0.03942 0.70147 0.0
H2645 H 0.62785 0.07004 0.66197 0.0
H2646 H 0.61542 0.05934 0.66189 0.0
H2647 H 0.63067 0.05397 0.66022 0.0
C2648 C 0.59361 0.0313 0.67408 0.0
C2649 C 0.59828 0.02374 0.66485 0.0
C2650 C 0.60118 0.03919 0.68047 0.0
C2651 C 0.61358 0.03974 0.67778 0.0
C2652 C 0.61839 0.03206 0.66877 0.0
H2653 H 0.6516 0.08849 0.72905 0.0
H2654 H 0.64969 0.07139 0.71481 0.0
C2655 C 0.61079 0.02411 0.66234 0.0
C2656 C 0.62121 0.04863 0.68437 0.0
H2657 H 0.63408 0.07674 0.68129 0.0
C2658 C 0.6222 0.04747 0.69706 0.0
C2659 C 0.62592 0.05909 0.67853 0.0
C2660 C 0.62491 0.06081 0.66491 0.0
C2661 C 0.62707 0.05687 0.7042 0.0
C2662 C 0.63123 0.06762 0.69842 0.0
C2663 C 0.63094 0.06845 0.68565 0.0
C2664 C 0.63399 0.07873 0.70556 0.0
C2665 C 0.62688 0.05559 0.71791 0.0
C2666 C 0.6262 0.08877 0.70462 0.0
C2667 C 0.62728 0.09855 0.71265 0.0
C2668 C 0.63619 0.09848 0.72183 0.0
C2669 C 0.64455 0.08878 0.72219 0.0
C2670 C 0.64346 0.07898 0.71409 0.0
H2671 H 0.62174 0.04742 0.72093 0.0
H2672 H 0.6363 0.05474 0.72134 0.0
H2673 H 0.62276 0.06377 0.72219 0.0
H2674 H 0.61886 0.08877 0.69806 0.0
H2675 H 0.62078 0.10592 0.71199 0.0
H2676 H 0.7111 0.83827 0.42147 0.0
H2677 H 0.69755 0.85234 0.432 0.0
H2678 H 0.71219 0.88236 0.41136 0.0
H2679 H 0.72578 0.86837 0.40066 0.0
H2680 H 0.70576 0.87245 0.44608 0.0
H2681 H 0.67482 0.88668 0.40863 0.0
H2682 H 0.68396 0.87304 0.40781 0.0
H2683 H 0.69079 0.8877 0.40553 0.0
C2684 C 0.7114 0.84784 0.41906 0.0
C2685 C 0.71958 0.85218 0.41024 0.0
C2686 C 0.70363 0.85586 0.42509 0.0
C2687 C 0.70381 0.86834 0.42236 0.0
C2688 C 0.71179 0.87272 0.41343 0.0
H2689 H 0.67466 0.92227 0.4727 0.0
H2690 H 0.68692 0.91289 0.45668 0.0
C2691 C 0.7196 0.8647 0.4074 0.0
C2692 C 0.69624 0.87683 0.42953 0.0
H2693 H 0.67218 0.89633 0.42777 0.0
C2694 C 0.69846 0.87773 0.44208 0.0
C2695 C 0.68671 0.88363 0.42423 0.0
C2696 C 0.68381 0.8827 0.41082 0.0
C2697 C 0.69131 0.88516 0.44955 0.0
C2698 C 0.68179 0.892 0.44428 0.0
C2699 C 0.67959 0.89118 0.43171 0.0
C2700 C 0.67355 0.89927 0.45199 0.0
C2701 C 0.69374 0.88536 0.46311 0.0
C2702 C 0.66176 0.89509 0.45416 0.0
C2703 C 0.65471 0.9004 0.4633 0.0
C2704 C 0.65937 0.91001 0.47042 0.0
C2705 C 0.67082 0.91483 0.46748 0.0
C2706 C 0.67786 0.90948 0.45834 0.0
H2707 H 0.70004 0.87798 0.46595 0.0
H2708 H 0.69788 0.89423 0.46562 0.0
H2709 H 0.68516 0.88439 0.46831 0.0
H2710 H 0.65828 0.88723 0.4493 0.0
H2711 H 0.64588 0.89654 0.46521 0.0
H2712 H 0.88026 0.9705 0.1453 0.0
H2713 H 0.86687 0.95533 0.15474 0.0
H2714 H 0.89207 0.95144 0.18457 0.0
H2715 H 0.90553 0.96624 0.17513 0.0
H2716 H 0.88579 0.92977 0.17438 0.0
H2717 H 0.8447 0.95731 0.18467 0.0
H2718 H 0.84997 0.95751 0.16915 0.0
H2719 H 0.85909 0.9642 0.18094 0.0
C2720 C 0.88286 0.96649 0.15393 0.0
C2721 C 0.89399 0.96951 0.15943 0.0
C2722 C 0.87518 0.95788 0.15934 0.0
C2723 C 0.87845 0.95233 0.1704 0.0
C2724 C 0.88939 0.9556 0.17602 0.0
H2725 H 0.8489 0.91422 0.22906 0.0
H2726 H 0.85227 0.92904 0.21277 0.0
C2727 C 0.89709 0.96406 0.17059 0.0
C2728 C 0.87106 0.9425 0.17591 0.0
H2729 H 0.84452 0.93674 0.19085 0.0
C2730 C 0.8767 0.93122 0.17787 0.0
C2731 C 0.85922 0.94447 0.18042 0.0
C2732 C 0.85286 0.95654 0.1788 0.0
C2733 C 0.87119 0.92211 0.18486 0.0
C2734 C 0.8594 0.92411 0.1896 0.0
C2735 C 0.85348 0.93518 0.18711 0.0
C2736 C 0.85394 0.9155 0.19848 0.0
C2737 C 0.87849 0.91081 0.18779 0.0
C2738 C 0.85286 0.90304 0.19573 0.0
C2739 C 0.85132 0.89455 0.2051 0.0
C2740 C 0.85027 0.89847 0.21724 0.0
C2741 C 0.84966 0.911 0.21975 0.0
C2742 C 0.85159 0.91947 0.21044 0.0
H2743 H 0.88827 0.91202 0.18571 0.0
H2744 H 0.87762 0.90836 0.19757 0.0
H2745 H 0.87513 0.90308 0.18222 0.0
H2746 H 0.85421 0.89981 0.1865 0.0
H2747 H 0.85169 0.88492 0.20296 0.0
H2748 H 0.82169 0.07535 0.97328 0.0
H2749 H 0.80832 0.08372 0.95762 0.0
H2750 H 0.83489 0.1113 0.94927 0.0
H2751 H 0.84838 0.10297 0.96477 0.0
H2752 H 0.79953 0.10716 0.95939 0.0
H2753 H 0.82338 0.10084 0.9154 0.0
H2754 H 0.82717 0.09223 0.92893 0.0
H2755 H 0.83283 0.10748 0.92695 0.0
C2756 C 0.82483 0.08302 0.96793 0.0
C2757 C 0.83607 0.08856 0.97038 0.0
C2758 C 0.81717 0.08778 0.95898 0.0
C2759 C 0.82066 0.09806 0.95224 0.0
C2760 C 0.83212 0.10322 0.95422 0.0
H2761 H 0.77929 0.15738 0.92433 0.0
H2762 H 0.79249 0.14327 0.93529 0.0
C2763 C 0.83978 0.09849 0.96317 0.0
C2764 C 0.8118 0.10439 0.94436 0.0
H2765 H 0.80781 0.11621 0.91584 0.0
C2766 C 0.80125 0.10898 0.94982 0.0
C2767 C 0.81403 0.10667 0.93187 0.0
C2768 C 0.82491 0.10144 0.9254 0.0
C2769 C 0.79312 0.11626 0.94326 0.0
C2770 C 0.79572 0.11914 0.93098 0.0
C2771 C 0.80596 0.1141 0.92533 0.0
C2772 C 0.78806 0.1277 0.92402 0.0
C2773 C 0.78189 0.12094 0.94956 0.0
C2774 C 0.78146 0.12364 0.9139 0.0
C2775 C 0.7739 0.13168 0.9076 0.0
C2776 C 0.7729 0.14394 0.91128 0.0
C2777 C 0.77978 0.14801 0.92128 0.0
C2778 C 0.7873 0.13995 0.92758 0.0
H2779 H 0.77968 0.11549 0.95781 0.0
H2780 H 0.78341 0.13051 0.95246 0.0
H2781 H 0.77398 0.12079 0.9433 0.0
H2782 H 0.78201 0.11422 0.911 0.0
H2783 H 0.76879 0.12825 0.89989 0.0
H2784 H 0.77077 0.6672 0.93169 0.0
H2785 H 0.7879 0.65818 0.94239 0.0
H2786 H 0.80539 0.65079 0.90794 0.0
H2787 H 0.7878 0.65909 0.89719 0.0
H2788 H 0.8051 0.63146 0.91989 0.0
H2789 H 0.82108 0.66625 0.95213 0.0
H2790 H 0.80514 0.66432 0.95431 0.0
H2791 H 0.81078 0.66996 0.93991 0.0
C2792 C 0.77843 0.66397 0.92642 0.0
C2793 C 0.77798 0.66379 0.91363 0.0
C2794 C 0.78829 0.65889 0.93256 0.0
C2795 C 0.79807 0.65393 0.92601 0.0
C2796 C 0.79797 0.65455 0.91321 0.0
H2797 H 0.85265 0.61749 0.9718 0.0
H2798 H 0.8435 0.63188 0.95741 0.0
C2799 C 0.78795 0.65931 0.90707 0.0
C2800 C 0.80735 0.64648 0.93241 0.0
H2801 H 0.82403 0.64503 0.95857 0.0
C2802 C 0.80945 0.63457 0.92819 0.0
C2803 C 0.81329 0.65051 0.94312 0.0
C2804 C 0.81255 0.66352 0.94751 0.0
C2805 C 0.81667 0.62638 0.93475 0.0
C2806 C 0.82148 0.63 0.94615 0.0
C2807 C 0.82009 0.64214 0.94998 0.0
C2808 C 0.82729 0.62115 0.95454 0.0
C2809 C 0.81894 0.61391 0.9294 0.0
C2810 C 0.82115 0.61042 0.95782 0.0
C2811 C 0.82644 0.60211 0.96583 0.0
C2812 C 0.83783 0.60453 0.97101 0.0
C2813 C 0.84386 0.61539 0.96794 0.0
C2814 C 0.83865 0.62361 0.95973 0.0
H2815 H 0.81887 0.61423 0.91927 0.0
H2816 H 0.82777 0.61011 0.93244 0.0
H2817 H 0.8116 0.60764 0.93229 0.0
H2818 H 0.81218 0.60853 0.95431 0.0
H2819 H 0.82149 0.59392 0.96818 0.0
H2820 H 0.28385 0.8492 0.09898 0.0
H2821 H 0.30022 0.85837 0.08718 0.0
H2822 H 0.29453 0.83215 0.05847 0.0
H2823 H 0.27803 0.82291 0.07012 0.0
H2824 H 0.32229 0.84929 0.07469 0.0
H2825 H 0.2859 0.86656 0.04399 0.0
H2826 H 0.28272 0.86036 0.05889 0.0
H2827 H 0.28635 0.85036 0.04646 0.0
C2828 C 0.28621 0.84519 0.09026 0.0
C2829 C 0.27945 0.83547 0.08539 0.0
C2830 C 0.29562 0.85043 0.08357 0.0
C2831 C 0.29841 0.84603 0.07191 0.0
C2832 C 0.29238 0.83572 0.06742 0.0
H2833 H 0.3511 0.87682 0.02117 0.0
H2834 H 0.34022 0.86286 0.03468 0.0
C2835 C 0.28297 0.83045 0.07411 0.0
C2836 C 0.30646 0.85321 0.06392 0.0
H2837 H 0.30586 0.87239 0.03945 0.0
C2838 C 0.31877 0.85426 0.06691 0.0
C2839 C 0.30171 0.8598 0.05392 0.0
C2840 C 0.28844 0.85934 0.05062 0.0
C2841 C 0.3265 0.86183 0.06011 0.0
C2842 C 0.32173 0.86842 0.05014 0.0
C2843 C 0.30945 0.86727 0.04711 0.0
C2844 C 0.32916 0.87692 0.04288 0.0
C2845 C 0.33961 0.86301 0.06379 0.0
C2846 C 0.32651 0.88941 0.04306 0.0
C2847 C 0.33267 0.89741 0.03536 0.0
C2848 C 0.34151 0.89303 0.02723 0.0
C2849 C 0.34434 0.88051 0.0273 0.0
C2850 C 0.33819 0.87252 0.03505 0.0
H2851 H 0.34141 0.85887 0.07286 0.0
H2852 H 0.34539 0.85836 0.05694 0.0
H2853 H 0.34232 0.87276 0.06404 0.0
H2854 H 0.31951 0.89293 0.04902 0.0
H2855 H 0.33026 0.90698 0.03557 0.0
H2856 H 0.90245 0.51914 0.83689 0.0
H2857 H 0.90058 0.53421 0.82054 0.0
H2858 H 0.87047 0.5508 0.83932 0.0
H2859 H 0.87235 0.53601 0.85571 0.0
H2860 H 0.88078 0.53595 0.80625 0.0
H2861 H 0.88881 0.58056 0.82797 0.0
H2862 H 0.89348 0.56639 0.83495 0.0
H2863 H 0.87817 0.57182 0.83669 0.0
C2864 C 0.89561 0.52617 0.83768 0.0
C2865 C 0.88748 0.52629 0.84758 0.0
C2866 C 0.89457 0.53478 0.82833 0.0
C2867 C 0.88549 0.54373 0.82878 0.0
C2868 C 0.87773 0.54418 0.8389 0.0
H2869 H 0.83599 0.57201 0.77984 0.0
H2870 H 0.84925 0.56054 0.79336 0.0
C2871 C 0.87874 0.5356 0.84822 0.0
C2872 C 0.88292 0.55152 0.81806 0.0
H2873 H 0.87522 0.58064 0.81035 0.0
C2874 C 0.87988 0.54577 0.80704 0.0
C2875 C 0.88192 0.56434 0.81901 0.0
C2876 C 0.88591 0.57113 0.83027 0.0
C2877 C 0.87487 0.55237 0.79733 0.0
C2878 C 0.87269 0.56498 0.79877 0.0
C2879 C 0.87671 0.57092 0.80936 0.0
C2880 C 0.86502 0.5718 0.79009 0.0
C2881 C 0.87151 0.54569 0.78579 0.0
C2882 C 0.86944 0.58209 0.78395 0.0
C2883 C 0.86184 0.58874 0.7762 0.0
C2884 C 0.84966 0.58527 0.77459 0.0
C2885 C 0.84531 0.57495 0.78081 0.0
C2886 C 0.8529 0.56831 0.78849 0.0
H2887 H 0.87719 0.53742 0.78452 0.0
H2888 H 0.86192 0.54271 0.78638 0.0
H2889 H 0.87251 0.55164 0.77766 0.0
H2890 H 0.87874 0.58498 0.78519 0.0
H2891 H 0.86547 0.59668 0.77159 0.0
H2892 H 0.17759 0.09595 0.52616 0.0
H2893 H 0.18733 0.11072 0.53959 0.0
H2894 H 0.1555 0.13351 0.53811 0.0
H2895 H 0.14588 0.11898 0.52421 0.0
H2896 H 0.17508 0.14702 0.5365 0.0
H2897 H 0.18101 0.1153 0.57507 0.0
H2898 H 0.18805 0.10925 0.56166 0.0
H2899 H 0.17187 0.11151 0.56198 0.0
C2900 C 0.17265 0.10409 0.52872 0.0
C2901 C 0.16094 0.10627 0.52421 0.0
C2902 C 0.17819 0.11248 0.53647 0.0
C2903 C 0.17201 0.12306 0.54014 0.0
C2904 C 0.16039 0.12536 0.53549 0.0
H2905 H 0.20912 0.16093 0.59905 0.0
H2906 H 0.19223 0.15232 0.58747 0.0
C2907 C 0.15491 0.11706 0.52755 0.0
C2908 C 0.17786 0.13179 0.54861 0.0
H2909 H 0.19392 0.13303 0.57509 0.0
C2910 C 0.17904 0.14403 0.54505 0.0
C2911 C 0.18269 0.128 0.55994 0.0
C2912 C 0.18071 0.11533 0.56494 0.0
C2913 C 0.18556 0.15239 0.55218 0.0
C2914 C 0.1914 0.14828 0.56291 0.0
C2915 C 0.1896 0.13621 0.5668 0.0
C2916 C 0.20021 0.15587 0.56976 0.0
C2917 C 0.18611 0.16551 0.54807 0.0
C2918 C 0.21011 0.16116 0.56369 0.0
C2919 C 0.2196 0.16637 0.57029 0.0
C2920 C 0.21955 0.16603 0.58309 0.0
C2921 C 0.2094 0.16127 0.58917 0.0
C2922 C 0.19976 0.15634 0.58256 0.0
H2923 H 0.17769 0.16812 0.54317 0.0
H2924 H 0.18741 0.17183 0.55587 0.0
H2925 H 0.19376 0.16665 0.54161 0.0
H2926 H 0.2109 0.16061 0.55386 0.0
H2927 H 0.22739 0.16983 0.56537 0.0
H2928 H 0.13696 0.89716 0.77756 0.0
H2929 H 0.12624 0.90835 0.79363 0.0
H2930 H 0.14835 0.94 0.78648 0.0
H2931 H 0.15935 0.92875 0.77083 0.0
H2932 H 0.14852 0.93445 0.80982 0.0
H2933 H 0.1009 0.93478 0.79355 0.0
H2934 H 0.10743 0.91984 0.7947 0.0
H2935 H 0.11342 0.93054 0.78384 0.0
C2936 C 0.13937 0.90657 0.7793 0.0
C2937 C 0.14903 0.91208 0.77301 0.0
C2938 C 0.13319 0.91298 0.78844 0.0
C2939 C 0.13642 0.92505 0.7912 0.0
C2940 C 0.14572 0.93068 0.78453 0.0
H2941 H 0.10368 0.98116 0.83427 0.0
H2942 H 0.10874 0.9661 0.81863 0.0
C2943 C 0.15201 0.92425 0.7756 0.0
C2944 C 0.13099 0.93159 0.8017 0.0
H2945 H 0.10445 0.94244 0.81349 0.0
C2946 C 0.13887 0.93619 0.81062 0.0
C2947 C 0.11841 0.93387 0.8027 0.0
C2948 C 0.10954 0.9296 0.79314 0.0
C2949 C 0.13463 0.94329 0.82032 0.0
C2950 C 0.12203 0.94544 0.82146 0.0
C2951 C 0.11408 0.94065 0.81268 0.0
C2952 C 0.11715 0.95344 0.8312 0.0
C2953 C 0.1438 0.94887 0.8289 0.0
C2954 C 0.11968 0.95106 0.84352 0.0
C2955 C 0.11706 0.95977 0.85242 0.0
C2956 C 0.11152 0.97084 0.84919 0.0
C2957 C 0.10799 0.97272 0.83702 0.0
C2958 C 0.11086 0.96411 0.82808 0.0
H2959 H 0.15303 0.94899 0.82488 0.0
H2960 H 0.14127 0.95836 0.83133 0.0
H2961 H 0.14419 0.9434 0.8374 0.0
H2962 H 0.12418 0.9427 0.84618 0.0
H2963 H 0.11967 0.958 0.86178 0.0
H2964 H 0.66898 0.40292 0.46057 0.0
H2965 H 0.67898 0.38801 0.44748 0.0
H2966 H 0.66007 0.35887 0.46574 0.0
H2967 H 0.6499 0.3737 0.47886 0.0
H2968 H 0.69387 0.36892 0.45643 0.0
H2969 H 0.65528 0.35147 0.42883 0.0
H2970 H 0.65466 0.36579 0.43696 0.0
H2971 H 0.6532 0.35168 0.44511 0.0
C2972 C 0.66684 0.39336 0.46176 0.0
C2973 C 0.65866 0.38952 0.47082 0.0
C2974 C 0.67256 0.38486 0.45425 0.0
C2975 C 0.67016 0.37238 0.45558 0.0
C2976 C 0.66188 0.36849 0.46445 0.0
H2977 H 0.72106 0.31913 0.42651 0.0
H2978 H 0.70491 0.32761 0.4392 0.0
C2979 C 0.65615 0.37699 0.47199 0.0
C2980 C 0.67702 0.36345 0.44824 0.0
H2981 H 0.67437 0.34219 0.42563 0.0
C2982 C 0.68961 0.363 0.44976 0.0
C2983 C 0.67138 0.35581 0.43954 0.0
C2984 C 0.65789 0.35621 0.43739 0.0
C2985 C 0.6968 0.35526 0.44265 0.0
C2986 C 0.6912 0.34762 0.43392 0.0
C2987 C 0.67857 0.34794 0.43247 0.0
C2988 C 0.69859 0.34025 0.42547 0.0
C2989 C 0.7104 0.35566 0.44421 0.0
C2990 C 0.6998 0.34403 0.41333 0.0
C2991 C 0.709 0.33922 0.40605 0.0
C2992 C 0.71713 0.33056 0.41082 0.0
C2993 C 0.71504 0.32586 0.42258 0.0
C2994 C 0.70583 0.33071 0.42986 0.0
H2995 H 0.71335 0.3635 0.44989 0.0
H2996 H 0.71348 0.34715 0.4487 0.0
H2997 H 0.71496 0.35629 0.4352 0.0
H2998 H 0.69424 0.35135 0.40978 0.0
H2999 H 0.71024 0.34292 0.39697 0.0
H3000 H 0.90268 0.4744 0.65599 0.0
H3001 H 0.90274 0.45777 0.67108 0.0
H3002 H 0.86588 0.44901 0.66144 0.0
H3003 H 0.86577 0.46518 0.64642 0.0
H3004 H 0.88765 0.45485 0.69117 0.0
H3005 H 0.88162 0.41578 0.66023 0.0
H3006 H 0.88695 0.43043 0.65493 0.0
H3007 H 0.87095 0.42752 0.65656 0.0
C3008 C 0.89464 0.46883 0.65703 0.0
C3009 C 0.88426 0.47106 0.64989 0.0
C3010 C 0.89471 0.45933 0.66562 0.0
C3011 C 0.88443 0.45194 0.66713 0.0
C3012 C 0.87407 0.45429 0.66012 0.0
H3013 H 0.83751 0.41635 0.70885 0.0
H3014 H 0.85128 0.4265 0.69483 0.0
C3015 C 0.87401 0.46364 0.65156 0.0
C3016 C 0.88383 0.44229 0.67657 0.0
H3017 H 0.8721 0.4138 0.68043 0.0
C3018 C 0.8847 0.4457 0.68888 0.0
C3019 C 0.88017 0.4303 0.67357 0.0
C3020 C 0.88001 0.42577 0.66058 0.0
C3021 C 0.88059 0.4379 0.69816 0.0
C3022 C 0.87551 0.42652 0.69497 0.0
C3023 C 0.87589 0.42261 0.68282 0.0
C3024 C 0.86758 0.41985 0.70351 0.0
C3025 C 0.88065 0.44226 0.7112 0.0
C3026 C 0.87224 0.41266 0.71299 0.0
C3027 C 0.86434 0.40677 0.72109 0.0
C3028 C 0.8517 0.40807 0.71982 0.0
C3029 C 0.84716 0.41519 0.71018 0.0
C3030 C 0.85502 0.42098 0.70212 0.0
H3031 H 0.88536 0.45115 0.71225 0.0
H3032 H 0.87119 0.44322 0.71451 0.0
H3033 H 0.88522 0.43542 0.71708 0.0
H3034 H 0.88194 0.41167 0.71415 0.0
H3035 H 0.86813 0.40134 0.7284 0.0
H3036 H 0.66359 0.57779 0.20935 0.0
H3037 H 0.65091 0.56694 0.19479 0.0
H3038 H 0.61884 0.58153 0.21179 0.0
H3039 H 0.6315 0.59257 0.22657 0.0
H3040 H 0.62763 0.55041 0.20547 0.0
H3041 H 0.62096 0.58619 0.17005 0.0
H3042 H 0.63496 0.58584 0.17856 0.0
H3043 H 0.62114 0.58978 0.18615 0.0
C3044 C 0.65385 0.57878 0.21003 0.0
C3045 C 0.64857 0.586 0.21921 0.0
C3046 C 0.64663 0.57259 0.20167 0.0
C3047 C 0.634 0.57348 0.20227 0.0
C3048 C 0.62861 0.58081 0.21122 0.0
H3049 H 0.59582 0.51875 0.15758 0.0
H3050 H 0.59827 0.53445 0.17326 0.0
C3051 C 0.63586 0.58708 0.21963 0.0
C3052 C 0.62668 0.56611 0.19379 0.0
H3053 H 0.61656 0.56583 0.16442 0.0
C3054 C 0.62487 0.55379 0.19659 0.0
C3055 C 0.62326 0.57063 0.18226 0.0
C3056 C 0.62511 0.58385 0.17898 0.0
C3057 C 0.62041 0.54563 0.18783 0.0
C3058 C 0.61755 0.55002 0.17603 0.0
C3059 C 0.61871 0.56252 0.17349 0.0
C3060 C 0.615 0.54156 0.16584 0.0
C3061 C 0.61966 0.53226 0.19099 0.0
C3062 C 0.62334 0.54069 0.15623 0.0
C3063 C 0.62195 0.53181 0.14724 0.0
C3064 C 0.61219 0.52358 0.14768 0.0
C3065 C 0.60352 0.52484 0.15703 0.0
C3066 C 0.60491 0.53379 0.16602 0.0
H3067 H 0.62406 0.53015 0.19986 0.0
H3068 H 0.61001 0.52951 0.19161 0.0
H3069 H 0.62401 0.52665 0.18379 0.0
H3070 H 0.63119 0.54662 0.15593 0.0
H3071 H 0.62875 0.5312 0.14015 0.0
H3072 H 0.56619 0.73005 0.83173 0.0
H3073 H 0.55312 0.71526 0.842 0.0
H3074 H 0.58449 0.69401 0.85195 0.0
H3075 H 0.59765 0.70912 0.84225 0.0
H3076 H 0.54797 0.69144 0.84154 0.0
H3077 H 0.57139 0.70284 0.88485 0.0
H3078 H 0.57414 0.71106 0.87091 0.0
H3079 H 0.58134 0.69657 0.87356 0.0
C3080 C 0.57027 0.72209 0.83588 0.0
C3081 C 0.58292 0.72081 0.83639 0.0
C3082 C 0.5628 0.71365 0.84176 0.0
C3083 C 0.56787 0.70375 0.84807 0.0
C3084 C 0.58043 0.70182 0.8475 0.0
H3085 H 0.52331 0.64834 0.88419 0.0
H3086 H 0.53659 0.65904 0.86991 0.0
C3087 C 0.58792 0.71039 0.84188 0.0
C3088 C 0.56016 0.69617 0.85612 0.0
H3089 H 0.55658 0.6874 0.88576 0.0
C3090 C 0.54984 0.69052 0.85121 0.0
C3091 C 0.56249 0.69521 0.86879 0.0
C3092 C 0.57286 0.70184 0.87488 0.0
C3093 C 0.54177 0.68397 0.85863 0.0
C3094 C 0.54432 0.68273 0.87123 0.0
C3095 C 0.55469 0.68829 0.87609 0.0
C3096 C 0.53615 0.67617 0.87971 0.0
C3097 C 0.5304 0.67884 0.85297 0.0
C3098 C 0.53182 0.6821 0.8902 0.0
C3099 C 0.52448 0.67593 0.89852 0.0
C3100 C 0.52123 0.66373 0.89644 0.0
C3101 C 0.52555 0.65779 0.88594 0.0
C3102 C 0.53307 0.66392 0.87773 0.0
H3103 H 0.5281 0.68354 0.84429 0.0
H3104 H 0.53181 0.66905 0.85088 0.0
H3105 H 0.52256 0.67964 0.85927 0.0
H3106 H 0.53412 0.69155 0.89194 0.0
H3107 H 0.52126 0.68076 0.9065 0.0
H3108 H 0.53751 0.35589 0.09591 0.0
H3109 H 0.55527 0.34499 0.10362 0.0
H3110 H 0.54006 0.31106 0.0908 0.0
H3111 H 0.5228 0.32201 0.0824 0.0
H3112 H 0.55512 0.33054 0.12108 0.0
H3113 H 0.57396 0.30407 0.08304 0.0
H3114 H 0.56315 0.31615 0.08054 0.0
H3115 H 0.5581 0.30086 0.08397 0.0
C3116 C 0.53819 0.34615 0.0944 0.0
C3117 C 0.52881 0.33979 0.08854 0.0
C3118 C 0.54832 0.33991 0.09883 0.0
C3119 C 0.54914 0.32717 0.09772 0.0
C3120 C 0.53994 0.3209 0.09144 0.0
H3121 H 0.57185 0.27876 0.15281 0.0
H3122 H 0.56258 0.29361 0.13922 0.0
C3123 C 0.52998 0.32717 0.08672 0.0
C3124 C 0.55849 0.32026 0.10464 0.0
H3125 H 0.57641 0.29492 0.10336 0.0
C3126 C 0.55998 0.32294 0.11708 0.0
C3127 C 0.56513 0.31047 0.09949 0.0
C3128 C 0.56509 0.30785 0.08599 0.0
C3129 C 0.56721 0.31566 0.12464 0.0
C3130 C 0.57268 0.30506 0.11977 0.0
C3131 C 0.57195 0.30285 0.10718 0.0
C3132 C 0.57841 0.29578 0.12775 0.0
C3133 C 0.56875 0.31937 0.13781 0.0
C3134 C 0.59021 0.29154 0.12548 0.0
C3135 C 0.59546 0.28277 0.13311 0.0
C3136 C 0.58901 0.27818 0.14318 0.0
C3137 C 0.57714 0.28228 0.14527 0.0
C3138 C 0.57185 0.29085 0.13755 0.0
H3139 H 0.56819 0.32943 0.13884 0.0
H3140 H 0.56134 0.31533 0.14332 0.0
H3141 H 0.57757 0.31624 0.14155 0.0
H3142 H 0.59539 0.29511 0.11789 0.0
H3143 H 0.60462 0.27976 0.13126 0.0
H3144 H 0.98239 0.34472 0.37984 0.0
H3145 H 0.97061 0.33427 0.36407 0.0
H3146 H 0.9543 0.31141 0.39151 0.0
H3147 H 0.96604 0.32165 0.40731 0.0
H3148 H 0.96434 0.29884 0.37104 0.0
H3149 H 0.93344 0.33667 0.35754 0.0
H3150 H 0.94945 0.33981 0.35781 0.0
H3151 H 0.94163 0.33672 0.37181 0.0
C3152 C 0.97626 0.3375 0.38254 0.0
C3153 C 0.9752 0.334 0.39485 0.0
C3154 C 0.9695 0.3316 0.37351 0.0
C3155 C 0.96155 0.32215 0.37667 0.0
C3156 C 0.9604 0.3187 0.38892 0.0
H3157 H 0.90235 0.28324 0.35027 0.0
H3158 H 0.91647 0.29855 0.35774 0.0
C3159 C 0.96713 0.32457 0.39793 0.0
C3160 C 0.95467 0.31543 0.36726 0.0
H3161 H 0.93044 0.31766 0.34805 0.0
C3162 C 0.95704 0.30296 0.36585 0.0
C3163 C 0.94517 0.32091 0.36058 0.0
C3164 C 0.94216 0.33424 0.362 0.0
C3165 C 0.94979 0.29564 0.35835 0.0
C3166 C 0.94006 0.30103 0.3519 0.0
C3167 C 0.938 0.31362 0.35292 0.0
C3168 C 0.93099 0.29341 0.34552 0.0
C3169 C 0.95217 0.28209 0.358 0.0
C3170 C 0.93429 0.28583 0.33577 0.0
C3171 C 0.92625 0.27694 0.33152 0.0
C3172 C 0.91478 0.27556 0.33695 0.0
C3173 C 0.91117 0.2839 0.346 0.0
C3174 C 0.91921 0.29273 0.35024 0.0
H3175 H 0.9587 0.27917 0.36514 0.0
H3176 H 0.94361 0.27691 0.35927 0.0
H3177 H 0.956 0.2796 0.34899 0.0
H3178 H 0.94328 0.28639 0.33185 0.0
H3179 H 0.92927 0.27076 0.32444 0.0
H3180 H 0.96429 0.6472 0.60356 0.0
H3181 H 0.94851 0.66052 0.61155 0.0
H3182 H 0.95512 0.68614 0.58248 0.0
H3183 H 0.97105 0.67294 0.57444 0.0
H3184 H 0.95698 0.69629 0.6053 0.0
H3185 H 0.91418 0.67026 0.60156 0.0
H3186 H 0.92617 0.66155 0.60838 0.0
H3187 H 0.92753 0.6665 0.59279 0.0
C3188 C 0.96224 0.65554 0.59868 0.0
C3189 C 0.96905 0.65904 0.58841 0.0
C3190 C 0.95312 0.6631 0.60322 0.0
C3191 C 0.95057 0.67427 0.59755 0.0
C3192 C 0.95691 0.67752 0.58695 0.0
H3193 H 0.89837 0.72647 0.62863 0.0
H3194 H 0.90887 0.71323 0.61404 0.0
C3195 C 0.96602 0.66995 0.58237 0.0
C3196 C 0.94252 0.6832 0.60363 0.0
H3197 H 0.91446 0.68657 0.61633 0.0
C3198 C 0.94762 0.69425 0.60752 0.0
C3199 C 0.93029 0.68057 0.60645 0.0
C3200 C 0.92418 0.66912 0.60197 0.0
C3201 C 0.94101 0.70247 0.61469 0.0
C3202 C 0.92905 0.69948 0.61815 0.0
C3203 C 0.9237 0.68875 0.61375 0.0
C3204 C 0.92232 0.70706 0.62699 0.0
C3205 C 0.94697 0.71416 0.61876 0.0
C3206 C 0.9263 0.70775 0.6391 0.0
C3207 C 0.92035 0.71524 0.64744 0.0
C3208 C 0.91027 0.72221 0.64383 0.0
C3209 C 0.90614 0.72129 0.63171 0.0
C3210 C 0.91209 0.71372 0.62337 0.0
H3211 H 0.95491 0.71649 0.61298 0.0
H3212 H 0.94044 0.72186 0.61851 0.0
H3213 H 0.95017 0.7131 0.6283 0.0
H3214 H 0.93411 0.70255 0.64207 0.0
H3215 H 0.92377 0.71566 0.65669 0.0
H3216 H 0.5229 0.35054 0.6119 0.0
H3217 H 0.53704 0.34077 0.62605 0.0
H3218 H 0.538 0.30888 0.60302 0.0
H3219 H 0.52426 0.31873 0.58866 0.0
H3220 H 0.53542 0.32063 0.63938 0.0
H3221 H 0.57341 0.31551 0.60704 0.0
H3222 H 0.56032 0.32476 0.60365 0.0
H3223 H 0.55997 0.30853 0.60111 0.0
C3224 C 0.52617 0.34146 0.60984 0.0
C3225 C 0.52256 0.33543 0.59911 0.0
C3226 C 0.53424 0.3359 0.61793 0.0
C3227 C 0.53878 0.32421 0.61546 0.0
C3228 C 0.53492 0.31806 0.60492 0.0
H3229 H 0.56624 0.26859 0.66176 0.0
H3230 H 0.55394 0.28462 0.65253 0.0
C3231 C 0.527 0.32367 0.59675 0.0
C3232 C 0.54733 0.31826 0.62398 0.0
H3233 H 0.57392 0.30254 0.62472 0.0
C3234 C 0.54394 0.31683 0.63625 0.0
C3235 C 0.5586 0.3136 0.61998 0.0
C3236 C 0.56334 0.31581 0.60726 0.0
C3237 C 0.55122 0.31027 0.64445 0.0
C3238 C 0.56196 0.30468 0.64015 0.0
C3239 C 0.56562 0.30668 0.62804 0.0
C3240 C 0.56919 0.29609 0.64765 0.0
C3241 C 0.54729 0.30944 0.6576 0.0
C3242 C 0.58187 0.29714 0.64802 0.0
C3243 C 0.58891 0.2878 0.65294 0.0
C3244 C 0.58339 0.27734 0.6578 0.0
C3245 C 0.5707 0.27664 0.65821 0.0
C3246 C 0.56366 0.28586 0.653 0.0
H3247 H 0.54209 0.31767 0.66034 0.0
H3248 H 0.54123 0.30145 0.65875 0.0
H3249 H 0.55515 0.30842 0.66383 0.0
H3250 H 0.58635 0.30494 0.64397 0.0
H3251 H 0.59869 0.28856 0.65256 0.0
H3252 H 0.97155 0.32384 0.92243 0.0
H3253 H 0.95549 0.31062 0.91462 0.0
H3254 H 0.94828 0.33632 0.88578 0.0
H3255 H 0.96418 0.34967 0.89353 0.0
H3256 H 0.92693 0.32455 0.89614 0.0
H3257 H 0.9635 0.29239 0.88225 0.0
H3258 H 0.963 0.29656 0.8981 0.0
H3259 H 0.96662 0.30787 0.88684 0.0
C3260 C 0.9664 0.32682 0.91458 0.0
C3261 C 0.96932 0.33773 0.90848 0.0
C3262 C 0.95724 0.31923 0.91012 0.0
C3263 C 0.95087 0.32243 0.89952 0.0
C3264 C 0.95314 0.33369 0.89395 0.0
H3265 H 0.92033 0.28306 0.84085 0.0
H3266 H 0.93093 0.29641 0.85505 0.0
C3267 C 0.96229 0.34128 0.89838 0.0
C3268 C 0.94285 0.31355 0.89339 0.0
H3269 H 0.94365 0.28739 0.87657 0.0
C3270 C 0.93051 0.31632 0.89199 0.0
C3271 C 0.94764 0.30293 0.88788 0.0
C3272 C 0.96092 0.29974 0.88873 0.0
C3273 C 0.92286 0.30883 0.885 0.0
C3274 C 0.92773 0.29835 0.87934 0.0
C3275 C 0.93998 0.29543 0.88099 0.0
C3276 C 0.92058 0.29079 0.87083 0.0
C3277 C 0.90978 0.3124 0.88328 0.0
C3278 C 0.91121 0.28326 0.87503 0.0
C3279 C 0.90511 0.27555 0.86692 0.0
C3280 C 0.90834 0.27524 0.85449 0.0
C3281 C 0.91761 0.28301 0.85034 0.0
C3282 C 0.92368 0.29066 0.85844 0.0
H3283 H 0.9078 0.32159 0.88704 0.0
H3284 H 0.9074 0.3123 0.87344 0.0
H3285 H 0.90388 0.30567 0.88795 0.0
H3286 H 0.9088 0.28315 0.88461 0.0
H3287 H 0.89802 0.26969 0.87043 0.0
H3288 H 0.97919 0.65176 0.11663 0.0
H3289 H 0.96626 0.6626 0.13112 0.0
H3290 H 0.95239 0.68498 0.10196 0.0
H3291 H 0.96533 0.67431 0.0874 0.0
H3292 H 0.9605 0.69796 0.12291 0.0
H3293 H 0.92888 0.66021 0.13467 0.0
H3294 H 0.9448 0.65695 0.13593 0.0
H3295 H 0.93831 0.65991 0.12121 0.0
C3296 C 0.97336 0.65895 0.11327 0.0
C3297 C 0.97331 0.66217 0.10083 0.0
C3298 C 0.96593 0.66508 0.12157 0.0
C3299 C 0.95831 0.67448 0.11757 0.0
C3300 C 0.95821 0.6777 0.10519 0.0
H3301 H 0.89853 0.71442 0.14432 0.0
H3302 H 0.91232 0.69947 0.13548 0.0
C3303 C 0.96561 0.67159 0.09689 0.0
C3304 C 0.95072 0.68133 0.12629 0.0
H3305 H 0.92593 0.67899 0.14476 0.0
C3306 C 0.953 0.69381 0.12779 0.0
C3307 C 0.94096 0.67584 0.13257 0.0
C3308 C 0.93798 0.66251 0.131 0.0
C3309 C 0.94558 0.70106 0.13519 0.0
C3310 C 0.93574 0.69561 0.14139 0.0
C3311 C 0.93359 0.68307 0.1401 0.0
C3312 C 0.92688 0.70309 0.14817 0.0
C3313 C 0.94801 0.71459 0.1359 0.0
C3314 C 0.93036 0.70969 0.15856 0.0
C3315 C 0.9225 0.71829 0.16364 0.0
C3316 C 0.91106 0.72042 0.15838 0.0
C3317 C 0.90733 0.71313 0.14851 0.0
C3318 C 0.91517 0.70454 0.14347 0.0
H3319 H 0.95465 0.71763 0.12892 0.0
H3320 H 0.93949 0.71983 0.13465 0.0
H3321 H 0.95172 0.71684 0.14503 0.0
H3322 H 0.93933 0.70855 0.1624 0.0
H3323 H 0.92564 0.72369 0.17129 0.0
H3324 H 0.53162 0.64614 0.39104 0.0
H3325 H 0.54772 0.65911 0.38312 0.0
H3326 H 0.5429 0.68385 0.41329 0.0
H3327 H 0.52665 0.671 0.42128 0.0
H3328 H 0.5409 0.6949 0.39086 0.0
H3329 H 0.58265 0.667 0.39257 0.0
H3330 H 0.57015 0.65902 0.3858 0.0
H3331 H 0.56938 0.6635 0.40157 0.0
C3332 C 0.53412 0.65421 0.39616 0.0
C3333 C 0.52774 0.65758 0.40674 0.0
C3334 C 0.54342 0.66156 0.39166 0.0
C3335 C 0.54658 0.67238 0.39768 0.0
C3336 C 0.54064 0.67549 0.40856 0.0
H3337 H 0.59936 0.72403 0.36671 0.0
H3338 H 0.5889 0.71074 0.38127 0.0
C3339 C 0.53135 0.66812 0.4131 0.0
C3340 C 0.55484 0.68117 0.39171 0.0
H3341 H 0.58262 0.68374 0.37824 0.0
C3342 C 0.5501 0.69255 0.38831 0.0
C3343 C 0.56686 0.67811 0.38844 0.0
C3344 C 0.57261 0.66629 0.39239 0.0
C3345 C 0.55683 0.70067 0.38116 0.0
C3346 C 0.56854 0.69728 0.37724 0.0
C3347 C 0.57356 0.68622 0.38117 0.0
C3348 C 0.57529 0.7048 0.3684 0.0
C3349 C 0.55126 0.7127 0.37754 0.0
C3350 C 0.57118 0.70564 0.35633 0.0
C3351 C 0.57711 0.71315 0.348 0.0
C3352 C 0.58727 0.72001 0.35159 0.0
C3353 C 0.59153 0.71893 0.36365 0.0
C3354 C 0.5856 0.71133 0.37198 0.0
H3355 H 0.54344 0.71512 0.38346 0.0
H3356 H 0.55807 0.72014 0.37802 0.0
H3357 H 0.54798 0.71211 0.36799 0.0
H3358 H 0.56327 0.70056 0.35341 0.0
H3359 H 0.5736 0.71371 0.33879 0.0
H3360 H 0.81858 0.57877 0.71918 0.0
H3361 H 0.82507 0.56761 0.70099 0.0
H3362 H 0.85573 0.59161 0.69713 0.0
H3363 H 0.84939 0.60289 0.71523 0.0
H3364 H 0.8336 0.57737 0.67461 0.0
H3365 H 0.86739 0.55426 0.70455 0.0
H3366 H 0.85375 0.56107 0.71059 0.0
H3367 H 0.86596 0.57059 0.70554 0.0
C3368 C 0.82657 0.58185 0.71434 0.0
C3369 C 0.83357 0.59161 0.71879 0.0
C3370 C 0.83022 0.57548 0.70394 0.0
C3371 C 0.84089 0.57878 0.69786 0.0
C3372 C 0.84748 0.58896 0.70178 0.0
H3373 H 0.88622 0.536 0.64961 0.0
H3374 H 0.87813 0.55208 0.6627 0.0
C3375 C 0.84384 0.59535 0.71215 0.0
C3376 C 0.8459 0.57078 0.68833 0.0
H3377 H 0.86705 0.5486 0.68395 0.0
C3378 C 0.84094 0.57109 0.67658 0.0
C3379 C 0.85549 0.5627 0.69102 0.0
C3380 C 0.86098 0.56202 0.70361 0.0
C3381 C 0.8454 0.56345 0.66733 0.0
C3382 C 0.85484 0.55515 0.67008 0.0
C3383 C 0.85984 0.55499 0.68185 0.0
C3384 C 0.85947 0.54622 0.66111 0.0
C3385 C 0.8401 0.56448 0.65469 0.0
C3386 C 0.85165 0.53763 0.65583 0.0
C3387 C 0.85623 0.52849 0.64827 0.0
C3388 C 0.86874 0.52764 0.64604 0.0
C3389 C 0.87654 0.53635 0.65122 0.0
C3390 C 0.87194 0.54557 0.65866 0.0
H3391 H 0.83597 0.57359 0.65316 0.0
H3392 H 0.84709 0.56289 0.64758 0.0
H3393 H 0.83287 0.55755 0.65358 0.0
H3394 H 0.84205 0.53775 0.65787 0.0
H3395 H 0.84999 0.52186 0.6445 0.0
H3396 H 0.71583 0.65791 0.92743 0.0
H3397 H 0.70343 0.64254 0.93757 0.0
H3398 H 0.71681 0.61504 0.91292 0.0
H3399 H 0.7293 0.63036 0.90263 0.0
H3400 H 0.69042 0.61542 0.91704 0.0
H3401 H 0.71757 0.61475 0.95962 0.0
H3402 H 0.71343 0.62977 0.95457 0.0
H3403 H 0.72338 0.62062 0.94537 0.0
C3404 C 0.71617 0.64861 0.92413 0.0
C3405 C 0.72364 0.64536 0.91427 0.0
C3406 C 0.7091 0.63983 0.92997 0.0
C3407 C 0.70936 0.62767 0.92607 0.0
C3408 C 0.71657 0.6244 0.91608 0.0
H3409 H 0.67446 0.57591 0.97532 0.0
H3410 H 0.68846 0.58315 0.95963 0.0
C3411 C 0.72371 0.63316 0.91025 0.0
C3412 C 0.70204 0.61845 0.93253 0.0
H3413 H 0.6977 0.60618 0.96073 0.0
C3414 C 0.69209 0.61321 0.92653 0.0
C3415 C 0.70441 0.61544 0.94482 0.0
C3416 C 0.71534 0.62034 0.95147 0.0
C3417 C 0.68397 0.60561 0.9328 0.0
C3418 C 0.68584 0.60335 0.94536 0.0
C3419 C 0.69623 0.60797 0.95111 0.0
C3420 C 0.67658 0.59741 0.95309 0.0
C3421 C 0.67334 0.60029 0.926 0.0
C3422 C 0.66517 0.60287 0.95442 0.0
C3423 C 0.65717 0.59879 0.96338 0.0
C3424 C 0.66046 0.58922 0.97126 0.0
C3425 C 0.67163 0.58331 0.96943 0.0
C3426 C 0.67965 0.58743 0.96047 0.0
H3427 H 0.67537 0.59932 0.91612 0.0
H3428 H 0.67076 0.59124 0.92972 0.0
H3429 H 0.66545 0.6065 0.92691 0.0
H3430 H 0.66271 0.61075 0.94901 0.0
H3431 H 0.64862 0.60352 0.96448 0.0
H3432 H 0.65456 0.3911 0.20993 0.0
H3433 H 0.6484 0.40017 0.19051 0.0
H3434 H 0.66362 0.43462 0.20182 0.0
H3435 H 0.67038 0.42542 0.22086 0.0
H3436 H 0.63262 0.4165 0.18724 0.0
H3437 H 0.67475 0.43483 0.16777 0.0
H3438 H 0.67488 0.42435 0.18044 0.0
H3439 H 0.67313 0.44052 0.18297 0.0
C3440 C 0.65686 0.40053 0.20811 0.0
C3441 C 0.66299 0.40755 0.21687 0.0
C3442 C 0.65332 0.40571 0.19702 0.0
C3443 C 0.65568 0.41806 0.19458 0.0
C3444 C 0.66205 0.42499 0.20325 0.0
H3445 H 0.61034 0.46868 0.15841 0.0
H3446 H 0.61946 0.45298 0.17116 0.0
C3447 C 0.66583 0.41974 0.2142 0.0
C3448 C 0.65033 0.42407 0.18369 0.0
H3449 H 0.6562 0.44544 0.16191 0.0
C3450 C 0.63786 0.42263 0.18154 0.0
C3451 C 0.65712 0.43184 0.17599 0.0
C3452 C 0.67073 0.43284 0.17684 0.0
C3453 C 0.63189 0.42931 0.17244 0.0
C3454 C 0.63846 0.43808 0.16567 0.0
C3455 C 0.65106 0.43893 0.16727 0.0
C3456 C 0.63239 0.447 0.15753 0.0
C3457 C 0.6186 0.42689 0.17028 0.0
C3458 C 0.63682 0.44918 0.14571 0.0
C3459 C 0.63184 0.45844 0.13853 0.0
C3460 C 0.62224 0.46559 0.14298 0.0
C3461 C 0.61761 0.4632 0.15467 0.0
C3462 C 0.62276 0.45414 0.16193 0.0
H3463 H 0.61632 0.41723 0.17229 0.0
H3464 H 0.61315 0.43266 0.17652 0.0
H3465 H 0.61594 0.42892 0.16073 0.0
H3466 H 0.64427 0.44385 0.14212 0.0
H3467 H 0.63557 0.46007 0.12954 0.0
H3468 H 0.76339 0.36644 0.40431 0.0
H3469 H 0.77563 0.38154 0.41516 0.0
H3470 H 0.79134 0.35302 0.43711 0.0
H3471 H 0.77913 0.33785 0.42644 0.0
H3472 H 0.78297 0.37394 0.45034 0.0
H3473 H 0.81289 0.38596 0.41124 0.0
H3474 H 0.79681 0.3867 0.40866 0.0
H3475 H 0.80386 0.37223 0.41148 0.0
C3476 C 0.76944 0.36336 0.41146 0.0
C3477 C 0.7703 0.35091 0.41448 0.0
C3478 C 0.77645 0.37201 0.4176 0.0
C3479 C 0.78446 0.36835 0.42682 0.0
C3480 C 0.78522 0.35599 0.42998 0.0
H3481 H 0.84591 0.39464 0.46354 0.0
H3482 H 0.83111 0.38616 0.4494 0.0
C3483 C 0.77824 0.34734 0.42385 0.0
C3484 C 0.79205 0.37734 0.43331 0.0
H3485 H 0.81671 0.39581 0.42993 0.0
C3486 C 0.79026 0.37886 0.44588 0.0
C3487 C 0.80155 0.38365 0.42741 0.0
C3488 C 0.80401 0.38205 0.41397 0.0
C3489 C 0.79798 0.38626 0.45282 0.0
C3490 C 0.80762 0.39242 0.44696 0.0
C3491 C 0.80921 0.39117 0.43433 0.0
C3492 C 0.81695 0.39896 0.45407 0.0
C3493 C 0.79613 0.38694 0.46645 0.0
C3494 C 0.81402 0.40929 0.46102 0.0
C3495 C 0.82246 0.41417 0.46917 0.0
C3496 C 0.83396 0.40877 0.4705 0.0
C3497 C 0.8371 0.39894 0.46288 0.0
C3498 C 0.82867 0.3941 0.45474 0.0
H3499 H 0.78951 0.38006 0.46974 0.0
H3500 H 0.80484 0.38554 0.47131 0.0
H3501 H 0.79267 0.39611 0.4689 0.0
H3502 H 0.80505 0.41325 0.46048 0.0
H3503 H 0.81977 0.42178 0.47486 0.0
H3504 H 0.82993 0.42638 0.76999 0.0
H3505 H 0.83719 0.43738 0.7879 0.0
H3506 H 0.84953 0.40354 0.80372 0.0
H3507 H 0.8429 0.39258 0.78545 0.0
H3508 H 0.83244 0.43727 0.81105 0.0
H3509 H 0.88013 0.42249 0.8049 0.0
H3510 H 0.86857 0.41937 0.79374 0.0
H3511 H 0.86989 0.41002 0.80718 0.0
C3512 C 0.83411 0.42128 0.77733 0.0
C3513 C 0.83599 0.40867 0.77629 0.0
C3514 C 0.83826 0.42757 0.78756 0.0
C3515 C 0.84419 0.42133 0.79703 0.0
C3516 C 0.84537 0.40861 0.79635 0.0
H3517 H 0.86083 0.46348 0.8632 0.0
H3518 H 0.85236 0.44803 0.84952 0.0
C3519 C 0.8415 0.40235 0.78596 0.0
C3520 C 0.8494 0.4283 0.80736 0.0
H3521 H 0.87585 0.43431 0.82233 0.0
C3522 C 0.84193 0.43661 0.81354 0.0
C3523 C 0.86183 0.42754 0.81049 0.0
C3524 C 0.8706 0.41947 0.80366 0.0
C3525 C 0.84658 0.44443 0.82251 0.0
C3526 C 0.85895 0.4435 0.8258 0.0
C3527 C 0.86635 0.43494 0.81987 0.0
C3528 C 0.86467 0.45196 0.83464 0.0
C3529 C 0.8383 0.45399 0.82787 0.0
C3530 C 0.87485 0.45877 0.8311 0.0
C3531 C 0.87993 0.46729 0.83903 0.0
C3532 C 0.8748 0.46931 0.85057 0.0
C3533 C 0.86485 0.46223 0.85427 0.0
C3534 C 0.85995 0.45348 0.84643 0.0
H3535 H 0.83028 0.45566 0.82198 0.0
H3536 H 0.83496 0.45082 0.83687 0.0
H3537 H 0.84313 0.46277 0.82917 0.0
H3538 H 0.87869 0.45773 0.82207 0.0
H3539 H 0.88759 0.47264 0.83593 0.0
H3540 H 0.77419 0.63563 0.09978 0.0
H3541 H 0.7882 0.62146 0.0899 0.0
H3542 H 0.78855 0.64417 0.05777 0.0
H3543 H 0.77493 0.65859 0.06773 0.0
H3544 H 0.78618 0.60793 0.07002 0.0
H3545 H 0.82406 0.64017 0.06369 0.0
H3546 H 0.81116 0.6437 0.07314 0.0
H3547 H 0.8105 0.64598 0.05687 0.0
C3548 C 0.7773 0.63763 0.09062 0.0
C3549 C 0.77354 0.64828 0.08455 0.0
C3550 C 0.7853 0.62952 0.085 0.0
C3551 C 0.78962 0.63188 0.07321 0.0
C3552 C 0.78564 0.64236 0.06703 0.0
H3553 H 0.81629 0.58472 0.01787 0.0
H3554 H 0.80418 0.59412 0.03395 0.0
C3555 C 0.7778 0.65056 0.0727 0.0
C3556 C 0.79805 0.62328 0.06719 0.0
H3557 H 0.82437 0.62227 0.05104 0.0
C3558 C 0.79463 0.611 0.06602 0.0
C3559 C 0.80923 0.6272 0.06227 0.0
C3560 C 0.81401 0.63995 0.06418 0.0
C3561 C 0.80181 0.60269 0.0595 0.0
C3562 C 0.81246 0.60689 0.05367 0.0
C3563 C 0.81614 0.61903 0.05538 0.0
C3564 C 0.81958 0.59924 0.04512 0.0
C3565 C 0.79788 0.58953 0.05897 0.0
C3566 C 0.83227 0.59892 0.04601 0.0
C3567 C 0.83919 0.59391 0.03662 0.0
C3568 C 0.83354 0.5889 0.02631 0.0
C3569 C 0.82085 0.5884 0.02581 0.0
C3570 C 0.81392 0.5937 0.03506 0.0
H3571 H 0.79279 0.58694 0.06733 0.0
H3572 H 0.79171 0.58824 0.05109 0.0
H3573 H 0.80573 0.58328 0.05795 0.0
H3574 H 0.83685 0.60311 0.05368 0.0
H3575 H 0.84898 0.59436 0.03722 0.0
H3576 H 0.66564 0.56742 0.27013 0.0
H3577 H 0.65746 0.55659 0.28778 0.0
H3578 H 0.64681 0.59087 0.30388 0.0
H3579 H 0.6543 0.60166 0.28585 0.0
H3580 H 0.66205 0.55604 0.31076 0.0
H3581 H 0.61532 0.57372 0.30518 0.0
H3582 H 0.62699 0.57638 0.29401 0.0
H3583 H 0.62617 0.58563 0.30757 0.0
C3584 C 0.66161 0.57263 0.27748 0.0
C3585 C 0.66048 0.58534 0.27661 0.0
C3586 C 0.65692 0.56645 0.28755 0.0
C3587 C 0.65122 0.57288 0.29704 0.0
C3588 C 0.65075 0.58566 0.29649 0.0
H3589 H 0.63353 0.5327 0.36396 0.0
H3590 H 0.6424 0.54738 0.34974 0.0
C3591 C 0.65513 0.59183 0.28626 0.0
C3592 C 0.64565 0.56611 0.30733 0.0
H3593 H 0.61915 0.56194 0.32283 0.0
C3594 C 0.65266 0.55733 0.3134 0.0
C3595 C 0.63335 0.56768 0.31066 0.0
C3596 C 0.62499 0.57627 0.30393 0.0
C3597 C 0.64768 0.54991 0.32253 0.0
C3598 C 0.63548 0.55172 0.3261 0.0
C3599 C 0.62854 0.56066 0.32019 0.0
C3600 C 0.62949 0.54386 0.33529 0.0
C3601 C 0.65541 0.53984 0.3278 0.0
C3602 C 0.61884 0.53758 0.3322 0.0
C3603 C 0.61355 0.52947 0.34043 0.0
C3604 C 0.61892 0.52736 0.35186 0.0
C3605 C 0.6293 0.53401 0.35514 0.0
C3606 C 0.63444 0.54233 0.34699 0.0
H3607 H 0.66313 0.53753 0.32172 0.0
H3608 H 0.65922 0.54288 0.33666 0.0
H3609 H 0.65001 0.53145 0.32937 0.0
H3610 H 0.61481 0.53866 0.32325 0.0
H3611 H 0.60556 0.52447 0.33762 0.0
H3612 H 0.64623 0.40256 0.53707 0.0
H3613 H 0.65816 0.39491 0.55424 0.0
H3614 H 0.69106 0.40249 0.5343 0.0
H3615 H 0.67916 0.41088 0.51755 0.0
H3616 H 0.67032 0.37575 0.55346 0.0
H3617 H 0.70265 0.41142 0.56694 0.0
H3618 H 0.68982 0.4147 0.55727 0.0
H3619 H 0.70383 0.40913 0.55083 0.0
C3620 C 0.65602 0.40295 0.53657 0.0
C3621 C 0.6618 0.4073 0.52603 0.0
C3622 C 0.66284 0.39857 0.54636 0.0
C3623 C 0.67555 0.39817 0.54566 0.0
C3624 C 0.68132 0.40302 0.5353 0.0
H3625 H 0.71965 0.33942 0.56822 0.0
H3626 H 0.70558 0.35387 0.55907 0.0
C3627 C 0.6745 0.40773 0.52565 0.0
C3628 C 0.68259 0.39103 0.55473 0.0
H3629 H 0.70942 0.39039 0.57021 0.0
C3630 C 0.67873 0.3791 0.55733 0.0
C3631 C 0.69347 0.39536 0.56004 0.0
C3632 C 0.69757 0.40841 0.55872 0.0
C3633 C 0.68575 0.3712 0.56442 0.0
C3634 C 0.69723 0.37512 0.56861 0.0
C3635 C 0.70076 0.38727 0.56673 0.0
C3636 C 0.70595 0.36652 0.57423 0.0
C3637 C 0.68082 0.35867 0.56723 0.0
C3638 C 0.71127 0.36908 0.58557 0.0
C3639 C 0.71956 0.36092 0.59073 0.0
C3640 C 0.72259 0.35005 0.58464 0.0
C3641 C 0.71736 0.34762 0.57323 0.0
C3642 C 0.70924 0.35584 0.56802 0.0
H3643 H 0.67075 0.35874 0.56749 0.0
H3644 H 0.6836 0.35226 0.55992 0.0
H3645 H 0.68423 0.35519 0.5761 0.0
H3646 H 0.70894 0.37733 0.59048 0.0
H3647 H 0.72345 0.36305 0.59954 0.0
H3648 H 0.72115 0.8252 0.57569 0.0
H3649 H 0.7051 0.83302 0.56246 0.0
H3650 H 0.70039 0.86387 0.58634 0.0
H3651 H 0.71628 0.85612 0.59972 0.0
H3652 H 0.67816 0.85416 0.57612 0.0
H3653 H 0.71405 0.86325 0.54154 0.0
H3654 H 0.71274 0.84781 0.54686 0.0
H3655 H 0.71757 0.85956 0.55717 0.0
C3656 C 0.71656 0.83353 0.57828 0.0
C3657 C 0.72018 0.84014 0.58867 0.0
C3658 C 0.7074 0.83798 0.57068 0.0
C3659 C 0.70174 0.84911 0.57333 0.0
C3660 C 0.7047 0.85528 0.58413 0.0
H3661 H 0.67323 0.90755 0.53293 0.0
H3662 H 0.68355 0.89293 0.54602 0.0
C3663 C 0.71383 0.85084 0.59174 0.0
C3664 C 0.69372 0.85507 0.56431 0.0
H3665 H 0.69441 0.86995 0.53698 0.0
C3666 C 0.68163 0.85746 0.56747 0.0
C3667 C 0.69836 0.85945 0.55311 0.0
C3668 C 0.7114 0.8575 0.54944 0.0
C3669 C 0.67411 0.86442 0.55981 0.0
C3670 C 0.67886 0.86902 0.54877 0.0
C3671 C 0.69082 0.86632 0.54545 0.0
C3672 C 0.67206 0.87774 0.54112 0.0
C3673 C 0.66135 0.86729 0.56377 0.0
C3674 C 0.66216 0.874 0.53404 0.0
C3675 C 0.65621 0.88235 0.52646 0.0
C3676 C 0.66009 0.89457 0.52588 0.0
C3677 C 0.66997 0.89824 0.53312 0.0
C3678 C 0.6759 0.8899 0.54062 0.0
H3679 H 0.65939 0.86394 0.57313 0.0
H3680 H 0.65979 0.87729 0.56349 0.0
H3681 H 0.65485 0.86299 0.55736 0.0
H3682 H 0.65916 0.8646 0.53424 0.0
H3683 H 0.64864 0.87922 0.52101 0.0
H3684 H 0.2154 0.64127 0.39657 0.0
H3685 H 0.1991 0.63335 0.40931 0.0
H3686 H 0.2039 0.66323 0.4344 0.0
H3687 H 0.22033 0.6712 0.42178 0.0
H3688 H 0.20574 0.64068 0.44523 0.0
H3689 H 0.16414 0.64294 0.41709 0.0
H3690 H 0.17668 0.63617 0.40917 0.0
H3691 H 0.17748 0.65189 0.41376 0.0
C3692 C 0.21285 0.64632 0.40465 0.0
C3693 C 0.21929 0.65681 0.4082 0.0
C3694 C 0.20344 0.64183 0.41188 0.0
C3695 C 0.20022 0.64776 0.42274 0.0
C3696 C 0.20621 0.65856 0.426 0.0
H3697 H 0.14699 0.61747 0.47439 0.0
H3698 H 0.15758 0.63183 0.46096 0.0
C3699 C 0.21561 0.66309 0.41877 0.0
C3700 C 0.19187 0.64177 0.43144 0.0
H3701 H 0.16388 0.6287 0.43386 0.0
C3702 C 0.19651 0.63826 0.44282 0.0
C3703 C 0.17982 0.63867 0.42831 0.0
C3704 C 0.17418 0.64272 0.41646 0.0
C3705 C 0.18965 0.6312 0.45091 0.0
C3706 C 0.17789 0.62748 0.44748 0.0
C3707 C 0.17297 0.63149 0.43638 0.0
C3708 C 0.17097 0.61875 0.45499 0.0
C3709 C 0.19513 0.62748 0.46296 0.0
C3710 C 0.17491 0.60664 0.45585 0.0
C3711 C 0.16891 0.59843 0.46345 0.0
C3712 C 0.15885 0.60218 0.47038 0.0
C3713 C 0.15474 0.61429 0.46925 0.0
C3714 C 0.16074 0.6225 0.46157 0.0
H3715 H 0.20303 0.63325 0.4654 0.0
H3716 H 0.1883 0.62805 0.47038 0.0
H3717 H 0.19825 0.61788 0.46235 0.0
H3718 H 0.18275 0.60359 0.45074 0.0
H3719 H 0.17231 0.58919 0.46402 0.0
H3720 H 0.60644 0.88255 0.71419 0.0
H3721 H 0.59729 0.89518 0.69827 0.0
H3722 H 0.62226 0.92423 0.70686 0.0
H3723 H 0.63183 0.91141 0.72228 0.0
H3724 H 0.58552 0.91526 0.69939 0.0
H3725 H 0.62575 0.92402 0.67102 0.0
H3726 H 0.62582 0.9128 0.68303 0.0
H3727 H 0.6288 0.92863 0.68637 0.0
C3728 C 0.61004 0.89159 0.71258 0.0
C3729 C 0.61989 0.89599 0.7194 0.0
C3730 C 0.60482 0.89879 0.70348 0.0
C3731 C 0.60925 0.91056 0.70116 0.0
C3732 C 0.61896 0.91502 0.70814 0.0
H3733 H 0.5724 0.97334 0.67612 0.0
H3734 H 0.57856 0.95464 0.68636 0.0
C3735 C 0.62436 0.90773 0.71704 0.0
C3736 C 0.60333 0.91848 0.69196 0.0
H3737 H 0.60954 0.93884 0.66935 0.0
C3738 C 0.59074 0.92025 0.69266 0.0
C3739 C 0.61003 0.92473 0.68291 0.0
C3740 C 0.62332 0.92232 0.6807 0.0
C3741 C 0.58482 0.92864 0.68508 0.0
C3742 C 0.59174 0.93583 0.67694 0.0
C3743 C 0.6042 0.93351 0.67573 0.0
C3744 C 0.58656 0.9464 0.67029 0.0
C3745 C 0.57121 0.92969 0.68593 0.0
C3746 C 0.58912 0.94815 0.65786 0.0
C3747 C 0.58595 0.95904 0.65208 0.0
C3748 C 0.57997 0.96828 0.65859 0.0
C3749 C 0.57685 0.96629 0.67084 0.0
C3750 C 0.58029 0.95553 0.67668 0.0
H3751 H 0.56708 0.92078 0.68838 0.0
H3752 H 0.56883 0.93624 0.69326 0.0
H3753 H 0.56716 0.93287 0.67723 0.0
H3754 H 0.59397 0.94126 0.65272 0.0
H3755 H 0.58843 0.96034 0.64261 0.0
H3756 H 0.34875 0.3779 0.97781 0.0
H3757 H 0.33821 0.36281 0.96518 0.0
H3758 H 0.31641 0.39132 0.94938 0.0
H3759 H 0.32676 0.40644 0.96188 0.0
H3760 H 0.30352 0.37035 0.95977 0.0
H3761 H 0.33998 0.35787 0.92688 0.0
H3762 H 0.34354 0.35813 0.94292 0.0
H3763 H 0.34016 0.3721 0.93516 0.0
C3764 C 0.34178 0.38099 0.97157 0.0
C3765 C 0.33858 0.3934 0.97091 0.0
C3766 C 0.33582 0.37234 0.96434 0.0
C3767 C 0.3266 0.376 0.95634 0.0
C3768 C 0.32353 0.38836 0.95551 0.0
H3769 H 0.28396 0.35192 0.89787 0.0
H3770 H 0.29977 0.35964 0.91136 0.0
C3771 C 0.32947 0.39698 0.96268 0.0
C3772 C 0.31961 0.367 0.94922 0.0
H3773 H 0.32075 0.34907 0.9238 0.0
C3774 C 0.3073 0.36552 0.95202 0.0
C3775 C 0.32463 0.36081 0.93912 0.0
C3776 C 0.33779 0.36228 0.93573 0.0
C3777 C 0.29973 0.35837 0.94468 0.0
C3778 C 0.30466 0.35242 0.93437 0.0
C3779 C 0.31706 0.35356 0.93179 0.0
C3780 C 0.29671 0.34621 0.92547 0.0
C3781 C 0.28638 0.35775 0.94766 0.0
C3782 C 0.29011 0.33579 0.92875 0.0
C3783 C 0.28101 0.33135 0.92107 0.0
C3784 C 0.27837 0.3373 0.91 0.0
C3785 C 0.28563 0.34721 0.90639 0.0
C3786 C 0.29473 0.3516 0.91405 0.0
H3787 H 0.28375 0.3644 0.95483 0.0
H3788 H 0.28087 0.35956 0.93938 0.0
H3789 H 0.28412 0.34847 0.95096 0.0
H3790 H 0.29162 0.33144 0.93749 0.0
H3791 H 0.27566 0.32365 0.9241 0.0
H3792 H 0.40397 0.53729 0.644 0.0
H3793 H 0.39794 0.55624 0.65408 0.0
H3794 H 0.41182 0.54245 0.68823 0.0
H3795 H 0.41852 0.52389 0.67802 0.0
H3796 H 0.38198 0.55944 0.67014 0.0
H3797 H 0.42454 0.57583 0.69047 0.0
H3798 H 0.42431 0.5637 0.67937 0.0
H3799 H 0.42195 0.56048 0.69535 0.0
C3800 C 0.40594 0.53844 0.65361 0.0
C3801 C 0.41176 0.52918 0.66024 0.0
C3802 C 0.40249 0.54926 0.65937 0.0
C3803 C 0.4046 0.55091 0.6719 0.0
C3804 C 0.41048 0.54165 0.67848 0.0
H3805 H 0.35943 0.58814 0.72216 0.0
H3806 H 0.36866 0.5751 0.70679 0.0
C3807 C 0.41421 0.53097 0.67267 0.0
C3808 C 0.39962 0.56172 0.67833 0.0
H3809 H 0.40604 0.58237 0.70066 0.0
C3810 C 0.38733 0.56461 0.67663 0.0
C3811 C 0.4066 0.56873 0.68658 0.0
C3812 C 0.42011 0.5671 0.68792 0.0
C3813 C 0.38169 0.5738 0.68345 0.0
C3814 C 0.38836 0.57989 0.69263 0.0
C3815 C 0.40082 0.57753 0.69382 0.0
C3816 C 0.38249 0.58813 0.70159 0.0
C3817 C 0.36863 0.57682 0.6807 0.0
C3818 C 0.38744 0.59964 0.70416 0.0
C3819 C 0.38239 0.60698 0.71326 0.0
C3820 C 0.37219 0.60299 0.71981 0.0
C3821 C 0.36716 0.59155 0.71712 0.0
C3822 C 0.37238 0.58412 0.70824 0.0
H3823 H 0.36652 0.5752 0.67092 0.0
H3824 H 0.36265 0.57077 0.68614 0.0
H3825 H 0.36647 0.58645 0.68291 0.0
H3826 H 0.39529 0.60291 0.69921 0.0
H3827 H 0.38644 0.61577 0.71515 0.0
H3828 H 0.77683 0.16888 0.07486 0.0
H3829 H 0.79303 0.16008 0.06243 0.0
H3830 H 0.79775 0.13136 0.0888 0.0
H3831 H 0.7816 0.14001 0.10133 0.0
H3832 H 0.82051 0.14812 0.07204 0.0
H3833 H 0.7841 0.11956 0.05131 0.0
H3834 H 0.7811 0.13483 0.05668 0.0
H3835 H 0.78369 0.12281 0.06743 0.0
C3836 C 0.78148 0.16086 0.07819 0.0
C3837 C 0.77778 0.15506 0.08903 0.0
C3838 C 0.79076 0.15588 0.07108 0.0
C3839 C 0.79651 0.1451 0.07474 0.0
C3840 C 0.79341 0.13972 0.08589 0.0
H3841 H 0.83358 0.08729 0.03848 0.0
H3842 H 0.82286 0.10073 0.05248 0.0
C3843 C 0.78413 0.14467 0.093 0.0
C3844 C 0.80453 0.13852 0.06622 0.0
H3845 H 0.80407 0.11569 0.04515 0.0
C3846 C 0.81697 0.14107 0.06608 0.0
C3847 C 0.79979 0.12937 0.05853 0.0
C3848 C 0.78644 0.12642 0.05838 0.0
C3849 C 0.82491 0.13443 0.05855 0.0
C3850 C 0.82017 0.12515 0.05096 0.0
C3851 C 0.80767 0.12279 0.05101 0.0
C3852 C 0.82794 0.11736 0.04319 0.0
C3853 C 0.8383 0.13711 0.05904 0.0
C3854 C 0.83452 0.12227 0.0334 0.0
C3855 C 0.84073 0.11458 0.02534 0.0
C3856 C 0.84032 0.10185 0.02689 0.0
C3857 C 0.83401 0.09703 0.03694 0.0
C3858 C 0.82789 0.1047 0.04498 0.0
H3859 H 0.84075 0.14261 0.06718 0.0
H3860 H 0.84363 0.12852 0.05916 0.0
H3861 H 0.84093 0.14233 0.05079 0.0
H3862 H 0.8345 0.132 0.03173 0.0
H3863 H 0.84547 0.11858 0.01767 0.0
H3864 H 0.60038 0.03073 0.85068 0.0
H3865 H 0.60659 0.04878 0.83925 0.0
H3866 H 0.57799 0.04244 0.81323 0.0
H3867 H 0.57171 0.02431 0.82453 0.0
H3868 H 0.6017 0.04441 0.80321 0.0
H3869 H 0.59094 0.0829 0.83435 0.0
H3870 H 0.59908 0.07044 0.84116 0.0
H3871 H 0.58391 0.06809 0.83573 0.0
C3872 C 0.59527 0.03325 0.84264 0.0
C3873 C 0.58559 0.026 0.83848 0.0
C3874 C 0.59879 0.04363 0.83617 0.0
C3875 C 0.59268 0.04696 0.82547 0.0
C3876 C 0.58277 0.04002 0.82152 0.0
H3877 H 0.6038 0.10813 0.77685 0.0
H3878 H 0.59557 0.0935 0.79148 0.0
C3879 C 0.5792 0.02967 0.828 0.0
C3880 C 0.5974 0.0569 0.81774 0.0
H3881 H 0.60307 0.08749 0.81699 0.0
C3882 C 0.60195 0.05384 0.80619 0.0
C3883 C 0.59767 0.06916 0.82168 0.0
C3884 C 0.59256 0.07292 0.83387 0.0
C3885 C 0.60693 0.06272 0.79851 0.0
C3886 C 0.60746 0.07494 0.80256 0.0
C3887 C 0.60274 0.07806 0.81402 0.0
C3888 C 0.61272 0.08457 0.79481 0.0
C3889 C 0.61151 0.059 0.78609 0.0
C3890 C 0.62513 0.08454 0.79214 0.0
C3891 C 0.62989 0.09287 0.78379 0.0
C3892 C 0.62228 0.10136 0.77796 0.0
C3893 C 0.60991 0.10167 0.78109 0.0
C3894 C 0.60519 0.09335 0.78948 0.0
H3895 H 0.60829 0.04977 0.78344 0.0
H3896 H 0.60856 0.06563 0.77903 0.0
H3897 H 0.62156 0.05889 0.78618 0.0
H3898 H 0.63108 0.07787 0.79629 0.0
H3899 H 0.63946 0.09241 0.78167 0.0
H3900 H 0.89481 0.96717 0.34759 0.0
H3901 H 0.88815 0.95034 0.33467 0.0
H3902 H 0.92174 0.95199 0.31468 0.0
H3903 H 0.92855 0.96885 0.32753 0.0
H3904 H 0.88659 0.95429 0.30834 0.0
H3905 H 0.91551 0.91466 0.32088 0.0
H3906 H 0.91278 0.92723 0.33118 0.0
H3907 H 0.92305 0.92904 0.31863 0.0
C3908 C 0.90092 0.96383 0.34061 0.0
C3909 C 0.91218 0.96947 0.33852 0.0
C3910 C 0.89708 0.9542 0.33325 0.0
C3911 C 0.90448 0.94994 0.32379 0.0
C3912 C 0.91598 0.95508 0.32205 0.0
H3913 H 0.892 0.89999 0.26353 0.0
H3914 H 0.90098 0.91383 0.27853 0.0
C3915 C 0.91982 0.96476 0.32938 0.0
C3916 C 0.89957 0.94118 0.31485 0.0
H3917 H 0.90268 0.91231 0.30373 0.0
C3918 C 0.89005 0.94509 0.30735 0.0
C3919 C 0.90427 0.92929 0.31353 0.0
C3920 C 0.91442 0.92471 0.32151 0.0
C3921 C 0.8851 0.93741 0.29846 0.0
C3922 C 0.8896 0.92539 0.29728 0.0
C3923 C 0.89923 0.92152 0.30471 0.0
C3924 C 0.88429 0.9167 0.28847 0.0
C3925 C 0.87527 0.94234 0.29025 0.0
C3926 C 0.87199 0.9136 0.28924 0.0
C3927 C 0.86681 0.90582 0.28065 0.0
C3928 C 0.87388 0.90084 0.27121 0.0
C3929 C 0.88629 0.9037 0.27066 0.0
C3930 C 0.89145 0.91158 0.27923 0.0
H3931 H 0.8754 0.95246 0.28991 0.0
H3932 H 0.87622 0.93879 0.28081 0.0
H3933 H 0.86631 0.93948 0.29382 0.0
H3934 H 0.86638 0.91722 0.29649 0.0
H3935 H 0.85726 0.90367 0.28146 0.0
H3936 H 0.47902 0.34549 0.12053 0.0
H3937 H 0.46586 0.33411 0.13438 0.0
H3938 H 0.45281 0.31255 0.10424 0.0
H3939 H 0.46595 0.32381 0.09028 0.0
H3940 H 0.43971 0.33108 0.13302 0.0
H3941 H 0.46512 0.28746 0.12999 0.0
H3942 H 0.47156 0.30188 0.12539 0.0
H3943 H 0.4611 0.29409 0.11555 0.0
C3944 C 0.47338 0.33831 0.11682 0.0
C3945 C 0.47361 0.33551 0.10429 0.0
C3946 C 0.46585 0.33185 0.12476 0.0
C3947 C 0.4585 0.32244 0.12032 0.0
C3948 C 0.45857 0.31969 0.10783 0.0
H3949 H 0.39778 0.28289 0.14727 0.0
H3950 H 0.41112 0.29818 0.13829 0.0
C3951 C 0.46607 0.32616 0.09988 0.0
C3952 C 0.45073 0.31544 0.12875 0.0
H3953 H 0.44589 0.28678 0.13968 0.0
C3954 C 0.44109 0.32141 0.13458 0.0
C3955 C 0.4527 0.3029 0.13086 0.0
C3956 C 0.46324 0.29619 0.12521 0.0
C3957 C 0.43306 0.315 0.14216 0.0
C3958 C 0.43473 0.30235 0.14384 0.0
C3959 C 0.44463 0.29649 0.13834 0.0
C3960 C 0.426 0.29476 0.15067 0.0
C3961 C 0.42283 0.32178 0.14826 0.0
C3962 C 0.42989 0.28793 0.16074 0.0
C3963 C 0.4223 0.27915 0.1659 0.0
C3964 C 0.41074 0.27693 0.16095 0.0
C3965 C 0.40664 0.28431 0.15129 0.0
C3966 C 0.41422 0.29312 0.14618 0.0
H3967 H 0.42466 0.33173 0.14872 0.0
H3968 H 0.41439 0.3204 0.14294 0.0
H3969 H 0.42127 0.3183 0.15764 0.0
H3970 H 0.43898 0.28905 0.16429 0.0
H3971 H 0.42577 0.27367 0.17334 0.0
H3972 H 0.40015 0.72881 0.87094 0.0
H3973 H 0.41125 0.71475 0.88416 0.0
H3974 H 0.42213 0.6938 0.85273 0.0
H3975 H 0.41126 0.70789 0.83941 0.0
H3976 H 0.41008 0.68912 0.88771 0.0
H3977 H 0.45428 0.70392 0.86855 0.0
H3978 H 0.44041 0.71221 0.86589 0.0
H3979 H 0.4437 0.69865 0.85729 0.0
C3980 C 0.40483 0.72117 0.86683 0.0
C3981 C 0.40497 0.71958 0.85409 0.0
C3982 C 0.41113 0.71313 0.87441 0.0
C3983 C 0.41765 0.70339 0.86938 0.0
C3984 C 0.41733 0.70143 0.85675 0.0
H3985 H 0.4627 0.64577 0.8959 0.0
H3986 H 0.44633 0.6574 0.88649 0.0
C3987 C 0.4111 0.70948 0.84916 0.0
C3988 C 0.4253 0.69562 0.87726 0.0
H3989 H 0.45461 0.68688 0.88186 0.0
C3990 C 0.41982 0.68865 0.88648 0.0
C3991 C 0.43802 0.69518 0.8757 0.0
C3992 C 0.44449 0.70297 0.86641 0.0
C3993 C 0.42675 0.68096 0.89399 0.0
C3994 C 0.43937 0.68031 0.89216 0.0
C3995 C 0.44487 0.6874 0.88311 0.0
C3996 C 0.4472 0.67223 0.89942 0.0
C3997 C 0.42065 0.67349 0.90374 0.0
C3998 C 0.45281 0.67664 0.90999 0.0
C3999 C 0.46222 0.67006 0.91541 0.0
C4000 C 0.46622 0.65903 0.91021 0.0
C4001 C 0.45995 0.65427 0.90009 0.0
C4002 C 0.45055 0.66086 0.89471 0.0
H4003 H 0.4107 0.67502 0.90402 0.0
H4004 H 0.42241 0.66366 0.9021 0.0
H4005 H 0.42456 0.6758 0.91278 0.0
H4006 H 0.45037 0.68548 0.91365 0.0
H4007 H 0.46681 0.67398 0.92321 0.0
H4008 H 0.01674 0.65304 0.61767 0.0
H4009 H 0.03087 0.66433 0.63064 0.0
H4010 H 0.05104 0.6754 0.59883 0.0
H4011 H 0.03685 0.6644 0.58577 0.0
H4012 H 0.05581 0.66298 0.63404 0.0
H4013 H 0.04246 0.70775 0.6147 0.0
H4014 H 0.03392 0.69401 0.61192 0.0
H4015 H 0.04748 0.6971 0.60335 0.0
C4016 C 0.02421 0.65785 0.61343 0.0
C4017 C 0.02557 0.65798 0.60067 0.0
C4018 C 0.03228 0.66427 0.62086 0.0
C4019 C 0.04185 0.67088 0.61567 0.0
C4020 C 0.04353 0.67059 0.60299 0.0
H4021 H 0.10042 0.71537 0.6411 0.0
H4022 H 0.08812 0.69968 0.6313 0.0
C4023 C 0.03543 0.66428 0.59555 0.0
C4024 C 0.04986 0.67841 0.62343 0.0
H4025 H 0.05981 0.70757 0.62755 0.0
C4026 C 0.05664 0.67274 0.63268 0.0
C4027 C 0.05081 0.69116 0.62172 0.0
C4028 C 0.04319 0.6979 0.61247 0.0
C4029 C 0.06463 0.67949 0.64003 0.0
C4030 C 0.06581 0.69212 0.63801 0.0
C4031 C 0.05891 0.69782 0.62894 0.0
C4032 C 0.07419 0.69976 0.64515 0.0
C4033 C 0.07189 0.67315 0.64979 0.0
C4034 C 0.0705 0.70472 0.65631 0.0
C4035 C 0.07745 0.71377 0.66194 0.0
C4036 C 0.08818 0.71801 0.65642 0.0
C4037 C 0.09219 0.71241 0.64559 0.0
C4038 C 0.08521 0.70341 0.63997 0.0
H4039 H 0.07024 0.66317 0.64995 0.0
H4040 H 0.0817 0.67482 0.64828 0.0
H4041 H 0.06953 0.67701 0.65884 0.0
H4042 H 0.06195 0.70204 0.66035 0.0
H4043 H 0.07411 0.71783 0.67028 0.0
H4044 H 0.0992 0.27083 0.37135 0.0
H4045 H 0.08849 0.28377 0.38599 0.0
H4046 H 0.06845 0.30037 0.35662 0.0
H4047 H 0.07903 0.28751 0.34188 0.0
H4048 H 0.08536 0.31111 0.38662 0.0
H4049 H 0.04299 0.28433 0.38066 0.0
H4050 H 0.05768 0.27857 0.37624 0.0
H4051 H 0.05003 0.28952 0.36681 0.0
C4052 C 0.09259 0.2773 0.36796 0.0
C4053 C 0.08988 0.27804 0.35543 0.0
C4054 C 0.08653 0.2847 0.37635 0.0
C4055 C 0.07764 0.29289 0.37235 0.0
C4056 C 0.07523 0.29399 0.35985 0.0
H4057 H 0.03516 0.35005 0.40165 0.0
H4058 H 0.05168 0.33806 0.39307 0.0
C4059 C 0.0813 0.28664 0.35145 0.0
C4060 C 0.07035 0.29979 0.38125 0.0
H4061 H 0.04152 0.30267 0.39196 0.0
C4062 C 0.0758 0.30924 0.3879 0.0
C4063 C 0.05795 0.29714 0.383 0.0
C4064 C 0.05179 0.28678 0.37639 0.0
C4065 C 0.06898 0.31648 0.39594 0.0
C4066 C 0.05645 0.31417 0.39725 0.0
C4067 C 0.05114 0.30441 0.39094 0.0
C4068 C 0.04836 0.32222 0.40434 0.0
C4069 C 0.07517 0.32658 0.40287 0.0
C4070 C 0.04119 0.31738 0.41373 0.0
C4071 C 0.03167 0.32419 0.41863 0.0
C4072 C 0.02907 0.3359 0.41409 0.0
C4073 C 0.03684 0.34103 0.4053 0.0
C4074 C 0.04638 0.33423 0.40044 0.0
H4075 H 0.08509 0.32501 0.40355 0.0
H4076 H 0.07371 0.33533 0.39801 0.0
H4077 H 0.07137 0.32747 0.41221 0.0
H4078 H 0.04256 0.3081 0.4168 0.0
H4079 H 0.02591 0.31995 0.42541 0.0
H4080 H 0.39451 0.71154 0.34726 0.0
H4081 H 0.40597 0.69511 0.35705 0.0
H4082 H 0.43936 0.71114 0.34428 0.0
H4083 H 0.42794 0.72708 0.33391 0.0
H4084 H 0.44126 0.68759 0.34377 0.0
H4085 H 0.42232 0.70085 0.38876 0.0
H4086 H 0.41102 0.69579 0.37817 0.0
H4087 H 0.41945 0.70951 0.37512 0.0
C4088 C 0.40429 0.7114 0.34639 0.0
C4089 C 0.41036 0.72063 0.33993 0.0
C4090 C 0.41083 0.70209 0.35207 0.0
C4091 C 0.42355 0.70212 0.35175 0.0
C4092 C 0.42956 0.71096 0.34474 0.0
H4093 H 0.47259 0.67574 0.40608 0.0
H4094 H 0.45848 0.68686 0.39301 0.0
C4095 C 0.42302 0.72007 0.3388 0.0
C4096 C 0.43073 0.69346 0.35923 0.0
H4097 H 0.43569 0.68416 0.38851 0.0
C4098 C 0.44003 0.68681 0.35356 0.0
C4099 C 0.42923 0.69259 0.37204 0.0
C4100 C 0.42006 0.70015 0.37891 0.0
C4101 C 0.44807 0.67958 0.36034 0.0
C4102 C 0.44642 0.67854 0.37311 0.0
C4103 C 0.43691 0.68491 0.37872 0.0
C4104 C 0.4549 0.6716 0.38098 0.0
C4105 C 0.45857 0.67365 0.3538 0.0
C4106 C 0.45749 0.65928 0.37867 0.0
C4107 C 0.46579 0.65301 0.38596 0.0
C4108 C 0.47134 0.65884 0.39592 0.0
C4109 C 0.46842 0.67102 0.39848 0.0
C4110 C 0.46036 0.67737 0.39102 0.0
H4111 H 0.46049 0.67816 0.34494 0.0
H4112 H 0.46693 0.67391 0.35942 0.0
H4113 H 0.45631 0.66398 0.35188 0.0
H4114 H 0.4531 0.65451 0.37125 0.0
H4115 H 0.46776 0.64355 0.38391 0.0
H4116 H 0.03399 0.64582 0.09846 0.0
H4117 H 0.0504 0.65783 0.10723 0.0
H4118 H 0.04293 0.68695 0.08192 0.0
H4119 H 0.02633 0.67507 0.07312 0.0
H4120 H 0.07165 0.67076 0.09814 0.0
H4121 H 0.03527 0.70077 0.11656 0.0
H4122 H 0.03212 0.68602 0.11002 0.0
H4123 H 0.03548 0.69874 0.10029 0.0
C4124 C 0.03596 0.65468 0.09457 0.0
C4125 C 0.02866 0.6596 0.08526 0.0
C4126 C 0.04539 0.6615 0.09956 0.0
C4127 C 0.04769 0.67332 0.09535 0.0
C4128 C 0.04115 0.67787 0.08537 0.0
H4129 H 0.10087 0.72364 0.12579 0.0
H4130 H 0.08988 0.71008 0.11201 0.0
C4131 C 0.03169 0.67105 0.08034 0.0
C4132 C 0.05579 0.68134 0.10244 0.0
H4133 H 0.05528 0.70548 0.12204 0.0
C4134 C 0.06814 0.67843 0.10329 0.0
C4135 C 0.05107 0.69118 0.10929 0.0
C4136 C 0.03775 0.69436 0.10912 0.0
C4137 C 0.07592 0.68514 0.11088 0.0
C4138 C 0.07117 0.69497 0.11771 0.0
C4139 C 0.05886 0.69792 0.11676 0.0
C4140 C 0.07868 0.70222 0.12615 0.0
C4141 C 0.08906 0.68148 0.11185 0.0
C4142 C 0.076 0.70225 0.13865 0.0
C4143 C 0.08221 0.71001 0.14656 0.0
C4144 C 0.09115 0.71797 0.14207 0.0
C4145 C 0.09403 0.71766 0.12956 0.0
C4146 C 0.08782 0.70986 0.12167 0.0
H4147 H 0.09075 0.67233 0.10786 0.0
H4148 H 0.09471 0.68821 0.10688 0.0
H4149 H 0.09202 0.68144 0.12153 0.0
H4150 H 0.06892 0.69643 0.14224 0.0
H4151 H 0.07976 0.70999 0.15613 0.0
H4152 H 0.09727 0.27751 0.85773 0.0
H4153 H 0.08454 0.2934 0.86644 0.0
H4154 H 0.06235 0.29338 0.83407 0.0
H4155 H 0.07482 0.27712 0.82537 0.0
H4156 H 0.07786 0.31628 0.86005 0.0
H4157 H 0.03784 0.28545 0.86023 0.0
H4158 H 0.05289 0.28011 0.85673 0.0
H4159 H 0.04422 0.28819 0.84542 0.0
C4160 C 0.08977 0.28095 0.85236 0.0
C4161 C 0.08695 0.27588 0.84092 0.0
C4162 C 0.08251 0.29006 0.85737 0.0
C4163 C 0.07234 0.29435 0.85103 0.0
C4164 C 0.06997 0.28994 0.83925 0.0
H4165 H 0.01595 0.34326 0.87824 0.0
H4166 H 0.02972 0.33227 0.86467 0.0
C4167 C 0.07715 0.2807 0.83427 0.0
C4168 C 0.0639 0.30287 0.85716 0.0
H4169 H 0.03503 0.30518 0.86813 0.0
C4170 C 0.06848 0.3139 0.86174 0.0
C4171 C 0.05166 0.29968 0.85942 0.0
C4172 C 0.04636 0.28768 0.8553 0.0
C4173 C 0.06119 0.32174 0.86869 0.0
C4174 C 0.04907 0.31844 0.87107 0.0
C4175 C 0.04436 0.30764 0.8662 0.0
C4176 C 0.04127 0.32573 0.87918 0.0
C4177 C 0.06648 0.33343 0.87359 0.0
C4178 C 0.04324 0.3256 0.89181 0.0
C4179 C 0.03533 0.33175 0.89962 0.0
C4180 C 0.02536 0.33818 0.89489 0.0
C4181 C 0.02356 0.33843 0.88218 0.0
C4182 C 0.0314 0.33217 0.8744 0.0
H4183 H 0.07526 0.33571 0.86918 0.0
H4184 H 0.06008 0.34111 0.87219 0.0
H4185 H 0.06802 0.33248 0.88355 0.0
H4186 H 0.05076 0.32053 0.89564 0.0
H4187 H 0.037 0.33141 0.90935 0.0
H4188 H 0.46189 0.3522 0.59813 0.0
H4189 H 0.4458 0.34064 0.60815 0.0
H4190 H 0.4532 0.30984 0.58492 0.0
H4191 H 0.46933 0.32129 0.57478 0.0
H4192 H 0.4242 0.32509 0.59839 0.0
H4193 H 0.46166 0.3008 0.6223 0.0
H4194 H 0.46383 0.3154 0.61502 0.0
H4195 H 0.46254 0.30187 0.60593 0.0
C4196 C 0.45994 0.34306 0.59495 0.0
C4197 C 0.46704 0.3376 0.58578 0.0
C4198 C 0.4507 0.33651 0.60065 0.0
C4199 C 0.44845 0.3244 0.59732 0.0
C4200 C 0.45488 0.3192 0.5876 0.0
H4201 H 0.39796 0.2719 0.62767 0.0
H4202 H 0.40872 0.28582 0.61408 0.0
C4203 C 0.46408 0.32576 0.58183 0.0
C4204 C 0.44057 0.31677 0.60504 0.0
H4205 H 0.44177 0.29486 0.62705 0.0
C4206 C 0.42798 0.31843 0.60463 0.0
C4207 C 0.44563 0.30827 0.61327 0.0
C4208 C 0.45916 0.30646 0.61428 0.0
C4209 C 0.42026 0.31166 0.61224 0.0
C4210 C 0.42534 0.30305 0.62037 0.0
C4211 C 0.43793 0.30147 0.62079 0.0
C4212 C 0.41783 0.29552 0.6286 0.0
C4213 C 0.4068 0.31391 0.61172 0.0
C4214 C 0.41941 0.29636 0.64126 0.0
C4215 C 0.41334 0.28839 0.64907 0.0
C4216 C 0.40563 0.27934 0.64434 0.0
C4217 C 0.40382 0.27875 0.63164 0.0
C4218 C 0.40989 0.28675 0.62384 0.0
H4219 H 0.40462 0.32265 0.60709 0.0
H4220 H 0.40241 0.30642 0.60654 0.0
H4221 H 0.40284 0.31405 0.62103 0.0
H4222 H 0.42556 0.30305 0.64508 0.0
H4223 H 0.41494 0.28913 0.65879 0.0
H4224 H 0.08608 0.4679 0.31991 0.0
H4225 H 0.09896 0.45391 0.30858 0.0
H4226 H 0.12968 0.46447 0.33046 0.0
H4227 H 0.11678 0.47852 0.34205 0.0
H4228 H 0.12068 0.4587 0.29517 0.0
H4229 H 0.12758 0.42673 0.33407 0.0
H4230 H 0.11577 0.43811 0.33416 0.0
H4231 H 0.13126 0.44254 0.33637 0.0
C4232 C 0.09557 0.46732 0.32234 0.0
C4233 C 0.10036 0.47429 0.33197 0.0
C4234 C 0.10293 0.45934 0.31581 0.0
C4235 C 0.11522 0.45809 0.31877 0.0
C4236 C 0.12016 0.46521 0.32815 0.0
H4237 H 0.15447 0.40949 0.26819 0.0
H4238 H 0.15162 0.42653 0.28233 0.0
C4239 C 0.11279 0.47326 0.33472 0.0
C4240 C 0.12257 0.449 0.3121 0.0
H4241 H 0.13446 0.42042 0.31485 0.0
C4242 C 0.12394 0.45042 0.29947 0.0
C4243 C 0.12673 0.43823 0.31781 0.0
C4244 C 0.12525 0.43619 0.33134 0.0
C4245 C 0.12875 0.44105 0.29224 0.0
C4246 C 0.13244 0.43005 0.29788 0.0
C4247 C 0.13168 0.4289 0.3106 0.0
C4248 C 0.13541 0.41912 0.29057 0.0
C4249 C 0.12907 0.44268 0.27857 0.0
C4250 C 0.12756 0.40908 0.29093 0.0
C4251 C 0.12918 0.39932 0.28294 0.0
C4252 C 0.13869 0.39941 0.27441 0.0
C4253 C 0.14698 0.40917 0.27456 0.0
C4254 C 0.14535 0.41895 0.2826 0.0
H4255 H 0.12414 0.45099 0.27559 0.0
H4256 H 0.13861 0.44347 0.27552 0.0
H4257 H 0.125 0.43465 0.27394 0.0
H4258 H 0.11985 0.40902 0.29705 0.0
H4259 H 0.12269 0.39192 0.28319 0.0
H4260 H 0.32188 0.42245 0.02273 0.0
H4261 H 0.30865 0.41361 0.03823 0.0
H4262 H 0.33593 0.38678 0.04669 0.0
H4263 H 0.34929 0.39557 0.03134 0.0
H4264 H 0.30082 0.3897 0.03577 0.0
H4265 H 0.32327 0.39649 0.08048 0.0
H4266 H 0.327 0.40545 0.06717 0.0
H4267 H 0.33314 0.39037 0.06899 0.0
C4268 C 0.32522 0.41487 0.0281 0.0
C4269 C 0.33661 0.40963 0.02567 0.0
C4270 C 0.31763 0.40983 0.03695 0.0
C4271 C 0.32133 0.39958 0.04361 0.0
C4272 C 0.33297 0.39481 0.04177 0.0
H4273 H 0.27998 0.33962 0.07149 0.0
H4274 H 0.29324 0.35355 0.06031 0.0
C4275 C 0.34057 0.39982 0.03292 0.0
C4276 C 0.3125 0.39285 0.05119 0.0
H4277 H 0.30786 0.38108 0.07962 0.0
C4278 C 0.30227 0.38795 0.04539 0.0
C4279 C 0.31442 0.39063 0.06374 0.0
C4280 C 0.325 0.39611 0.07051 0.0
C4281 C 0.2941 0.38051 0.05172 0.0
C4282 C 0.29632 0.37782 0.06412 0.0
C4283 C 0.3063 0.38307 0.07005 0.0
C4284 C 0.28844 0.36941 0.071 0.0
C4285 C 0.28319 0.37553 0.04509 0.0
C4286 C 0.28154 0.37372 0.0808 0.0
C4287 C 0.27394 0.36581 0.0872 0.0
C4288 C 0.2732 0.35341 0.08395 0.0
C4289 C 0.28028 0.34911 0.07419 0.0
C4290 C 0.28783 0.35705 0.06778 0.0
H4291 H 0.28125 0.38072 0.03661 0.0
H4292 H 0.28492 0.3659 0.04254 0.0
H4293 H 0.27503 0.37577 0.05102 0.0
H4294 H 0.28194 0.38323 0.08343 0.0
H4295 H 0.26869 0.36943 0.09472 0.0
H4296 H 0.38682 0.52616 0.84768 0.0
H4297 H 0.37523 0.54203 0.8371 0.0
H4298 H 0.3988 0.53861 0.80588 0.0
H4299 H 0.41061 0.52316 0.81652 0.0
H4300 H 0.39674 0.56157 0.8128 0.0
H4301 H 0.35082 0.54114 0.80969 0.0
H4302 H 0.3568 0.54196 0.8249 0.0
H4303 H 0.36404 0.53236 0.81379 0.0
C4304 C 0.3894 0.52869 0.8385 0.0
C4305 C 0.39966 0.52348 0.83295 0.0
C4306 C 0.38273 0.5377 0.83243 0.0
C4307 C 0.38608 0.54143 0.82065 0.0
C4308 C 0.39606 0.5359 0.81498 0.0
H4309 H 0.35246 0.58432 0.76508 0.0
H4310 H 0.3577 0.56843 0.77984 0.0
C4311 C 0.40282 0.52707 0.82108 0.0
C4312 C 0.37994 0.55176 0.81449 0.0
H4313 H 0.35285 0.56165 0.8031 0.0
C4314 C 0.38713 0.56159 0.8107 0.0
C4315 C 0.36741 0.55174 0.81174 0.0
C4316 C 0.35932 0.54119 0.81513 0.0
C4317 C 0.38229 0.57123 0.80392 0.0
C4318 C 0.36972 0.57134 0.80128 0.0
C4319 C 0.36244 0.56162 0.80528 0.0
C4320 C 0.36431 0.58099 0.79354 0.0
C4321 C 0.39084 0.58089 0.79917 0.0
C4322 C 0.36567 0.59334 0.79661 0.0
C4323 C 0.36297 0.6024 0.78809 0.0
C4324 C 0.35848 0.59926 0.77652 0.0
C4325 C 0.35593 0.58698 0.77393 0.0
C4326 C 0.35891 0.5779 0.78236 0.0
H4327 H 0.40041 0.57775 0.7993 0.0
H4328 H 0.3885 0.58354 0.78969 0.0
H4329 H 0.39022 0.5891 0.80504 0.0
H4330 H 0.36945 0.59594 0.80534 0.0
H4331 H 0.36483 0.61182 0.79036 0.0
H4332 H 0.22882 0.62698 0.59475 0.0
H4333 H 0.21479 0.61329 0.58422 0.0
H4334 H 0.19794 0.64406 0.56664 0.0
H4335 H 0.21192 0.65789 0.57706 0.0
H4336 H 0.1828 0.62134 0.5807 0.0
H4337 H 0.21547 0.61159 0.54311 0.0
H4338 H 0.22066 0.61288 0.55867 0.0
H4339 H 0.21549 0.62618 0.55075 0.0
C4340 C 0.2221 0.63088 0.5887 0.0
C4341 C 0.22154 0.64355 0.5867 0.0
C4342 C 0.21409 0.62303 0.58273 0.0
C4343 C 0.20539 0.62773 0.57472 0.0
C4344 C 0.20462 0.64033 0.57284 0.0
H4345 H 0.14768 0.60562 0.52878 0.0
H4346 H 0.16012 0.61425 0.54492 0.0
C4347 C 0.21265 0.64819 0.57877 0.0
C4348 C 0.19741 0.61946 0.56784 0.0
H4349 H 0.19592 0.60339 0.54131 0.0
C4350 C 0.18565 0.61729 0.57214 0.0
C4351 C 0.20128 0.61415 0.5568 0.0
C4352 C 0.21391 0.61625 0.55196 0.0
C4353 C 0.17749 0.6101 0.56545 0.0
C4354 C 0.18117 0.60524 0.55407 0.0
C4355 C 0.19311 0.6071 0.55003 0.0
C4356 C 0.17262 0.59907 0.54569 0.0
C4357 C 0.16503 0.60781 0.57061 0.0
C4358 C 0.17548 0.58763 0.54075 0.0
C4359 C 0.16847 0.58271 0.53134 0.0
C4360 C 0.15848 0.58919 0.52669 0.0
C4361 C 0.15528 0.60036 0.53212 0.0
C4362 C 0.16234 0.60529 0.54146 0.0
H4363 H 0.16509 0.60831 0.58073 0.0
H4364 H 0.15874 0.61494 0.56722 0.0
H4365 H 0.1615 0.59876 0.56782 0.0
H4366 H 0.18341 0.58271 0.54386 0.0
H4367 H 0.17117 0.57407 0.52742 0.0
H4368 H 0.14217 0.5827 0.23129 0.0
H4369 H 0.13858 0.56786 0.2151 0.0
H4370 H 0.13274 0.59719 0.18947 0.0
H4371 H 0.13549 0.612 0.20591 0.0
H4372 H 0.11499 0.58329 0.18829 0.0
H4373 H 0.15462 0.55295 0.18683 0.0
H4374 H 0.14917 0.55361 0.20219 0.0
H4375 H 0.15492 0.56724 0.19499 0.0
C4376 C 0.14045 0.58595 0.22211 0.0
C4377 C 0.13902 0.59845 0.21982 0.0
C4378 C 0.13851 0.57746 0.21281 0.0
C4379 C 0.13551 0.58135 0.20096 0.0
C4380 C 0.13501 0.59392 0.19852 0.0
H4381 H 0.11317 0.52484 0.14774 0.0
H4382 H 0.12531 0.54099 0.15731 0.0
C4383 C 0.13659 0.60239 0.20789 0.0
C4384 C 0.13096 0.57246 0.19178 0.0
H4385 H 0.13531 0.54373 0.18055 0.0
C4386 C 0.11963 0.57478 0.1864 0.0
C4387 C 0.137 0.56139 0.18905 0.0
C4388 C 0.14966 0.55874 0.19348 0.0
C4389 C 0.11387 0.5661 0.17908 0.0
C4390 C 0.11933 0.55456 0.17745 0.0
C4391 C 0.13101 0.55248 0.18206 0.0
C4392 C 0.11253 0.54432 0.1719 0.0
C4393 C 0.10183 0.56929 0.17338 0.0
C4394 C 0.10155 0.54062 0.17715 0.0
C4395 C 0.0946 0.53154 0.17171 0.0
C4396 C 0.09856 0.52579 0.16097 0.0
C4397 C 0.10984 0.52912 0.15599 0.0
C4398 C 0.11678 0.53834 0.16143 0.0
H4399 H 0.10101 0.57928 0.17189 0.0
H4400 H 0.10055 0.56457 0.16452 0.0
H4401 H 0.09442 0.5665 0.17963 0.0
H4402 H 0.09826 0.54489 0.18542 0.0
H4403 H 0.08606 0.52909 0.17591 0.0
H4404 H 0.14812 0.39354 0.96546 0.0
H4405 H 0.16114 0.38422 0.95007 0.0
H4406 H 0.18984 0.40922 0.95931 0.0
H4407 H 0.17694 0.4186 0.97484 0.0
H4408 H 0.1751 0.39366 0.92948 0.0
H4409 H 0.20317 0.37439 0.96703 0.0
H4410 H 0.18834 0.38082 0.96963 0.0
H4411 H 0.2011 0.39065 0.96713 0.0
C4412 C 0.15713 0.39721 0.96412 0.0
C4413 C 0.16155 0.40669 0.97154 0.0
C4414 C 0.16454 0.39189 0.95529 0.0
C4415 C 0.17648 0.39593 0.95373 0.0
C4416 C 0.18067 0.4059 0.96052 0.0
H4417 H 0.22831 0.36728 0.90081 0.0
H4418 H 0.21488 0.38068 0.91237 0.0
C4419 C 0.17327 0.41126 0.96936 0.0
C4420 C 0.18481 0.38893 0.94583 0.0
H4421 H 0.20896 0.36956 0.94697 0.0
C4422 C 0.18257 0.38845 0.93325 0.0
C4423 C 0.1944 0.38203 0.95087 0.0
C4424 C 0.1969 0.38187 0.96441 0.0
C4425 C 0.1897 0.38118 0.92553 0.0
C4426 C 0.19932 0.37431 0.93058 0.0
C4427 C 0.20158 0.37487 0.94315 0.0
C4428 C 0.20696 0.36618 0.92309 0.0
C4429 C 0.18672 0.38061 0.91212 0.0
C4430 C 0.20703 0.3536 0.92539 0.0
C4431 C 0.21472 0.3459 0.91886 0.0
C4432 C 0.22258 0.35066 0.90995 0.0
C4433 C 0.22238 0.36328 0.90759 0.0
C4434 C 0.21466 0.37097 0.91413 0.0
H4435 H 0.17759 0.3844 0.91013 0.0
H4436 H 0.19349 0.38601 0.90695 0.0
H4437 H 0.18711 0.37107 0.90876 0.0
H4438 H 0.20117 0.34975 0.93233 0.0
H4439 H 0.21462 0.33624 0.92091 0.0
H4440 H 0.3846 0.47044 0.64734 0.0
H4441 H 0.3727 0.45427 0.65712 0.0
H4442 H 0.39636 0.45562 0.68843 0.0
H4443 H 0.40845 0.47137 0.67858 0.0
H4444 H 0.39366 0.43298 0.68031 0.0
H4445 H 0.34839 0.45472 0.68473 0.0
H4446 H 0.35443 0.4543 0.66952 0.0
H4447 H 0.36186 0.46329 0.68101 0.0
C4448 C 0.38714 0.46738 0.65638 0.0
C4449 C 0.39749 0.47212 0.66218 0.0
C4450 C 0.3803 0.45819 0.66198 0.0
C4451 C 0.38358 0.4538 0.67355 0.0
C4452 C 0.39368 0.45884 0.67948 0.0
H4453 H 0.35055 0.41249 0.72977 0.0
H4454 H 0.35567 0.42781 0.71441 0.0
C4455 C 0.40059 0.46784 0.67384 0.0
C4456 C 0.37718 0.4434 0.67931 0.0
H4457 H 0.35012 0.43428 0.69136 0.0
C4458 C 0.38412 0.43323 0.68267 0.0
C4459 C 0.36473 0.44378 0.68236 0.0
C4460 C 0.35691 0.45463 0.67933 0.0
C4461 C 0.37915 0.42367 0.68948 0.0
C4462 C 0.3667 0.42402 0.6926 0.0
C4463 C 0.35962 0.43399 0.68886 0.0
C4464 C 0.36128 0.41471 0.70076 0.0
C4465 C 0.38751 0.41367 0.69385 0.0
C4466 C 0.3621 0.40225 0.69796 0.0
C4467 C 0.35947 0.3935 0.70683 0.0
C4468 C 0.35559 0.39707 0.7185 0.0
C4469 C 0.35356 0.40949 0.72086 0.0
C4470 C 0.35647 0.41825 0.71208 0.0
H4471 H 0.3972 0.41638 0.69322 0.0
H4472 H 0.38554 0.41118 0.70346 0.0
H4473 H 0.38624 0.40547 0.68808 0.0
H4474 H 0.36541 0.3993 0.68914 0.0
H4475 H 0.36092 0.38396 0.70472 0.0
H4476 H 0.31891 0.58256 0.47751 0.0
H4477 H 0.3073 0.59229 0.46131 0.0
H4478 H 0.34051 0.60391 0.44406 0.0
H4479 H 0.35216 0.59475 0.46069 0.0
H4480 H 0.32659 0.62213 0.44591 0.0
H4481 H 0.29858 0.58501 0.42727 0.0
H4482 H 0.29637 0.58588 0.44342 0.0
H4483 H 0.31112 0.58208 0.43741 0.0
C4484 C 0.32375 0.58693 0.4701 0.0
C4485 C 0.33643 0.58792 0.47036 0.0
C4486 C 0.31709 0.59242 0.46078 0.0
C4487 C 0.32301 0.59869 0.45132 0.0
C4488 C 0.33573 0.59912 0.45124 0.0
H4489 H 0.27741 0.63194 0.39487 0.0
H4490 H 0.29213 0.61892 0.40528 0.0
C4491 C 0.34238 0.59387 0.46072 0.0
C4492 C 0.31592 0.60602 0.44244 0.0
H4493 H 0.29057 0.60549 0.42463 0.0
C4494 C 0.31885 0.6184 0.44108 0.0
C4495 C 0.30593 0.60119 0.43593 0.0
C4496 C 0.30293 0.58777 0.43599 0.0
C4497 C 0.31178 0.62619 0.43387 0.0
C4498 C 0.30117 0.6216 0.42828 0.0
C4499 C 0.29856 0.60909 0.42913 0.0
C4500 C 0.29247 0.62965 0.42185 0.0
C4501 C 0.31584 0.63924 0.43232 0.0
C4502 C 0.28765 0.63994 0.42774 0.0
C4503 C 0.27943 0.64752 0.42173 0.0
C4504 C 0.27559 0.64474 0.40984 0.0
C4505 C 0.28019 0.63428 0.40405 0.0
C4506 C 0.2886 0.62684 0.40998 0.0
H4507 H 0.32583 0.64006 0.43321 0.0
H4508 H 0.31312 0.64296 0.4233 0.0
H4509 H 0.3117 0.64492 0.43958 0.0
H4510 H 0.29016 0.64207 0.43705 0.0
H4511 H 0.27591 0.65541 0.42648 0.0
H4512 H 0.34997 0.11991 0.47475 0.0
H4513 H 0.33926 0.13366 0.46086 0.0
H4514 H 0.31549 0.10435 0.45024 0.0
H4515 H 0.3261 0.0905 0.46403 0.0
H4516 H 0.33341 0.13035 0.43364 0.0
H4517 H 0.29401 0.13322 0.46514 0.0
H4518 H 0.30889 0.12851 0.47014 0.0
H4519 H 0.29944 0.11812 0.46181 0.0
C4520 C 0.34253 0.11634 0.46939 0.0
C4521 C 0.33882 0.10411 0.4706 0.0
C4522 C 0.33646 0.12421 0.46144 0.0
C4523 C 0.32657 0.12 0.45465 0.0
C4524 C 0.32309 0.10774 0.4555 0.0
H4525 H 0.28186 0.14524 0.39702 0.0
H4526 H 0.2982 0.13655 0.40913 0.0
C4527 C 0.32917 0.09985 0.46338 0.0
C4528 C 0.3194 0.12852 0.44717 0.0
H4529 H 0.29152 0.14173 0.44547 0.0
C4530 C 0.32429 0.13296 0.43624 0.0
C4531 C 0.30761 0.13202 0.45073 0.0
C4532 C 0.30215 0.12782 0.46264 0.0
C4533 C 0.31744 0.14047 0.42848 0.0
C4534 C 0.30542 0.14348 0.43177 0.0
C4535 C 0.30074 0.13941 0.44296 0.0
C4536 C 0.29712 0.15006 0.42347 0.0
C4537 C 0.32309 0.14505 0.41682 0.0
C4538 C 0.29116 0.16064 0.42744 0.0
C4539 C 0.2817 0.1656 0.42058 0.0
C4540 C 0.27797 0.15998 0.40967 0.0
C4541 C 0.28444 0.14979 0.40539 0.0
C4542 C 0.29389 0.14485 0.41226 0.0
H4543 H 0.33313 0.14521 0.41745 0.0
H4544 H 0.32057 0.13885 0.40924 0.0
H4545 H 0.31982 0.15435 0.41455 0.0
H4546 H 0.2935 0.16476 0.43611 0.0
H4547 H 0.27696 0.17347 0.42415 0.0
H4548 H 0.8539 0.38344 0.52678 0.0
H4549 H 0.84349 0.36959 0.54081 0.0
H4550 H 0.81179 0.39262 0.53967 0.0
H4551 H 0.82239 0.40679 0.52623 0.0
H4552 H 0.81547 0.38536 0.56176 0.0
H4553 H 0.81879 0.345 0.53145 0.0
H4554 H 0.83325 0.35105 0.53576 0.0
H4555 H 0.82314 0.36005 0.52654 0.0
C4556 C 0.84472 0.38554 0.52959 0.0
C4557 C 0.83891 0.39614 0.52539 0.0
C4558 C 0.83875 0.37758 0.53752 0.0
C4559 C 0.82674 0.37989 0.54105 0.0
C4560 C 0.82104 0.39061 0.53704 0.0
H4561 H 0.77047 0.33247 0.56484 0.0
H4562 H 0.7866 0.34304 0.55384 0.0
C4563 C 0.8271 0.39871 0.52937 0.0
C4564 C 0.82 0.37123 0.54892 0.0
H4565 H 0.80998 0.34185 0.55082 0.0
C4566 C 0.81428 0.37583 0.55938 0.0
C4567 C 0.81839 0.35882 0.54574 0.0
C4568 C 0.82361 0.35345 0.5342 0.0
C4569 C 0.80666 0.36853 0.56652 0.0
C4570 C 0.8052 0.35606 0.56347 0.0
C4571 C 0.81122 0.35136 0.55322 0.0
C4572 C 0.79657 0.3481 0.5701 0.0
C4573 C 0.79976 0.37449 0.57682 0.0
C4574 C 0.79712 0.34691 0.58284 0.0
C4575 C 0.78773 0.34116 0.58914 0.0
C4576 C 0.77792 0.33609 0.58276 0.0
C4577 C 0.77796 0.33627 0.56996 0.0
C4578 C 0.78717 0.34233 0.56368 0.0
H4579 H 0.7994 0.38456 0.57579 0.0
H4580 H 0.79033 0.37102 0.57733 0.0
H4581 H 0.80436 0.37248 0.58559 0.0
H4582 H 0.80452 0.35089 0.58795 0.0
H4583 H 0.78796 0.34099 0.59902 0.0
H4584 H 0.37327 0.03652 0.35819 0.0
H4585 H 0.37174 0.05092 0.34139 0.0
H4586 H 0.40217 0.03381 0.32363 0.0
H4587 H 0.40364 0.01908 0.34035 0.0
H4588 H 0.38687 0.06759 0.32945 0.0
H4589 H 0.37425 0.0284 0.29967 0.0
H4590 H 0.3754 0.02692 0.316 0.0
H4591 H 0.38887 0.02779 0.30684 0.0
C4592 C 0.37978 0.03588 0.35082 0.0
C4593 C 0.38841 0.02644 0.3505 0.0
C4594 C 0.37893 0.04419 0.34124 0.0
C4595 C 0.38668 0.04327 0.33115 0.0
C4596 C 0.39595 0.03452 0.33124 0.0
H4597 H 0.36809 0.09361 0.2705 0.0
H4598 H 0.38106 0.08268 0.28502 0.0
C4599 C 0.3968 0.02614 0.34083 0.0
C4600 C 0.38397 0.05058 0.32012 0.0
H4601 H 0.37135 0.04794 0.29182 0.0
C4602 C 0.38372 0.06334 0.3211 0.0
C4603 C 0.37979 0.04496 0.30929 0.0
C4604 C 0.37949 0.03127 0.30783 0.0
C4605 C 0.37877 0.0706 0.31179 0.0
C4606 C 0.37407 0.06491 0.30124 0.0
C4607 C 0.37501 0.05223 0.29995 0.0
C4608 C 0.36655 0.07162 0.29233 0.0
C4609 C 0.37784 0.08419 0.31364 0.0
C4610 C 0.35417 0.0689 0.29155 0.0
C4611 C 0.34678 0.07504 0.2833 0.0
C4612 C 0.3516 0.08405 0.27558 0.0
C4613 C 0.36406 0.08674 0.27632 0.0
C4614 C 0.37149 0.08055 0.28463 0.0
H4615 H 0.38079 0.08702 0.32291 0.0
H4616 H 0.38362 0.08892 0.30684 0.0
H4617 H 0.36836 0.08727 0.3122 0.0
H4618 H 0.3502 0.06204 0.29743 0.0
H4619 H 0.33724 0.07271 0.28302 0.0
H4620 H 0.65264 0.62066 0.01734 0.0
H4621 H 0.66393 0.63406 0.03105 0.0
H4622 H 0.67362 0.60315 0.05332 0.0
H4623 H 0.6626 0.58963 0.03952 0.0
H4624 H 0.66237 0.63894 0.0559 0.0
H4625 H 0.70637 0.61746 0.0441 0.0
H4626 H 0.69271 0.61461 0.03553 0.0
H4627 H 0.69535 0.60682 0.04972 0.0
C4628 C 0.65712 0.61671 0.02519 0.0
C4629 C 0.65687 0.60405 0.02724 0.0
C4630 C 0.66354 0.62439 0.03302 0.0
C4631 C 0.66978 0.61955 0.04304 0.0
C4632 C 0.66909 0.60701 0.04545 0.0
H4633 H 0.71401 0.64736 0.10072 0.0
H4634 H 0.69791 0.63767 0.08895 0.0
C4635 C 0.66276 0.59931 0.03757 0.0
C4636 C 0.67742 0.62754 0.05072 0.0
H4637 H 0.70647 0.63153 0.06056 0.0
C4638 C 0.67202 0.63737 0.05689 0.0
C4639 C 0.69004 0.62554 0.05184 0.0
C4640 C 0.6965 0.61561 0.04486 0.0
C4641 C 0.6789 0.64505 0.06443 0.0
C4642 C 0.69139 0.64278 0.06579 0.0
C4643 C 0.69682 0.63311 0.05951 0.0
C4644 C 0.69914 0.6502 0.0738 0.0
C4645 C 0.67287 0.65546 0.07104 0.0
C4646 C 0.70487 0.66064 0.06924 0.0
C4647 C 0.71414 0.66621 0.0759 0.0
C4648 C 0.71786 0.66131 0.08717 0.0
C4649 C 0.71147 0.65132 0.09203 0.0
C4650 C 0.70223 0.64578 0.08536 0.0
H4651 H 0.66299 0.65591 0.06916 0.0
H4652 H 0.67429 0.65446 0.08101 0.0
H4653 H 0.67711 0.6642 0.06822 0.0
H4654 H 0.70262 0.66408 0.06026 0.0
H4655 H 0.71883 0.6739 0.0719 0.0
H4656 H 0.59216 0.47659 0.33899 0.0
H4657 H 0.59483 0.46205 0.32231 0.0
H4658 H 0.62714 0.44821 0.33956 0.0
H4659 H 0.62449 0.46252 0.35631 0.0
H4660 H 0.61421 0.46243 0.30721 0.0
H4661 H 0.6109 0.41698 0.32859 0.0
H4662 H 0.60533 0.43062 0.33594 0.0
H4663 H 0.62114 0.42663 0.33684 0.0
C4664 C 0.5997 0.47028 0.33938 0.0
C4665 C 0.60817 0.47081 0.34896 0.0
C4666 C 0.60119 0.46197 0.32983 0.0
C4667 C 0.61109 0.45396 0.32976 0.0
C4668 C 0.61927 0.45411 0.33956 0.0
H4669 H 0.6593 0.42907 0.27724 0.0
H4670 H 0.64636 0.43987 0.2916 0.0
C4671 C 0.6178 0.4624 0.34909 0.0
C4672 C 0.61386 0.44656 0.31881 0.0
H4673 H 0.62293 0.41816 0.31003 0.0
C4674 C 0.61584 0.45269 0.30775 0.0
C4675 C 0.61581 0.43384 0.31945 0.0
C4676 C 0.61305 0.42662 0.33083 0.0
C4677 C 0.62061 0.4466 0.29759 0.0
C4678 C 0.62362 0.43413 0.29861 0.0
C4679 C 0.62076 0.42778 0.30934 0.0
C4680 C 0.63096 0.4279 0.28922 0.0
C4681 C 0.62279 0.45367 0.286 0.0
C4682 C 0.62662 0.4175 0.28321 0.0
C4683 C 0.63403 0.41126 0.27494 0.0
C4684 C 0.64595 0.41524 0.27272 0.0
C4685 C 0.65018 0.42575 0.2787 0.0
C4686 C 0.64276 0.432 0.28687 0.0
H4687 H 0.61665 0.46167 0.28534 0.0
H4688 H 0.63225 0.4571 0.28595 0.0
H4689 H 0.62147 0.44783 0.27783 0.0
H4690 H 0.61756 0.41416 0.285 0.0
H4691 H 0.63052 0.40315 0.27055 0.0
H4692 H 0.16227 0.90617 0.95777 0.0
H4693 H 0.17163 0.89132 0.94408 0.0
H4694 H 0.1611 0.86214 0.96819 0.0
H4695 H 0.15165 0.87689 0.98196 0.0
H4696 H 0.18669 0.86367 0.96158 0.0
H4697 H 0.15605 0.86467 0.92144 0.0
H4698 H 0.16032 0.87936 0.92732 0.0
H4699 H 0.15128 0.86932 0.93652 0.0
C4700 C 0.16183 0.89659 0.96012 0.0
C4701 C 0.15625 0.89272 0.97098 0.0
C4702 C 0.16709 0.88812 0.95224 0.0
C4703 C 0.16689 0.87566 0.95508 0.0
C4704 C 0.16121 0.87173 0.96581 0.0
H4705 H 0.21511 0.82147 0.9216 0.0
H4706 H 0.19817 0.82945 0.93359 0.0
C4707 C 0.15584 0.88018 0.97366 0.0
C4708 C 0.17363 0.86694 0.94741 0.0
H4709 H 0.17559 0.85579 0.91845 0.0
C4710 C 0.18419 0.86173 0.95221 0.0
C4711 C 0.17028 0.86453 0.93522 0.0
C4712 C 0.15881 0.86967 0.92981 0.0
C4713 C 0.19194 0.85473 0.94491 0.0
C4714 C 0.1888 0.8526 0.93256 0.0
C4715 C 0.17794 0.85739 0.92792 0.0
C4716 C 0.19737 0.84669 0.92402 0.0
C4717 C 0.20377 0.85036 0.95029 0.0
C4718 C 0.20193 0.85339 0.91416 0.0
C4719 C 0.21144 0.8488 0.90717 0.0
C4720 C 0.21665 0.83744 0.90999 0.0
C4721 C 0.21144 0.83034 0.91931 0.0
C4722 C 0.20181 0.8349 0.92621 0.0
H4723 H 0.2059 0.85499 0.95904 0.0
H4724 H 0.20318 0.84043 0.95209 0.0
H4725 H 0.21138 0.85196 0.94386 0.0
H4726 H 0.19857 0.86248 0.91225 0.0
H4727 H 0.21513 0.85449 0.9 0.0
H4728 H 0.36153 0.89694 0.21833 0.0
H4729 H 0.37302 0.90778 0.20254 0.0
H4730 H 0.34824 0.93809 0.20515 0.0
H4731 H 0.33654 0.92719 0.22051 0.0
H4732 H 0.35121 0.93116 0.18225 0.0
H4733 H 0.39634 0.93612 0.20411 0.0
H4734 H 0.39091 0.92072 0.20309 0.0
H4735 H 0.38304 0.93154 0.21251 0.0
C4736 C 0.35864 0.90598 0.21562 0.0
C4737 C 0.3481 0.91119 0.22059 0.0
C4738 C 0.36526 0.91219 0.20666 0.0
C4739 C 0.36156 0.9238 0.20275 0.0
C4740 C 0.35125 0.92913 0.208 0.0
H4741 H 0.39369 0.98154 0.16205 0.0
H4742 H 0.38869 0.96613 0.17738 0.0
C4743 C 0.34456 0.92288 0.21677 0.0
C4744 C 0.36776 0.93019 0.19259 0.0
H4745 H 0.39454 0.94304 0.18373 0.0
C4746 C 0.3607 0.93372 0.18256 0.0
C4747 C 0.38013 0.93353 0.19304 0.0
C4748 C 0.38805 0.93039 0.2038 0.0
C4749 C 0.36551 0.94088 0.17316 0.0
C4750 C 0.37791 0.94418 0.17352 0.0
C4751 C 0.38508 0.94038 0.1834 0.0
C4752 C 0.3832 0.95246 0.16424 0.0
C4753 C 0.35703 0.94534 0.1633 0.0
C4754 C 0.3824 0.94966 0.15177 0.0
C4755 C 0.38495 0.95855 0.14303 0.0
C4756 C 0.38875 0.97024 0.14662 0.0
C4757 C 0.39075 0.97261 0.15905 0.0
C4758 C 0.38791 0.9638 0.16781 0.0
H4759 H 0.34738 0.94461 0.16609 0.0
H4760 H 0.35892 0.95499 0.16092 0.0
H4761 H 0.35826 0.9397 0.155 0.0
H4762 H 0.37916 0.94083 0.14882 0.0
H4763 H 0.38353 0.95644 0.13348 0.0
H4764 H 0.12972 0.09523 0.72595 0.0
H4765 H 0.11638 0.08351 0.71239 0.0
H4766 H 0.14532 0.05796 0.70569 0.0
H4767 H 0.15861 0.06947 0.71912 0.0
H4768 H 0.12099 0.07835 0.68721 0.0
H4769 H 0.11607 0.03608 0.7142 0.0
H4770 H 0.12073 0.0504 0.72089 0.0
H4771 H 0.13158 0.04089 0.71314 0.0
C4772 C 0.13318 0.08703 0.72169 0.0
C4773 C 0.14523 0.08329 0.72362 0.0
C4774 C 0.12556 0.08037 0.71396 0.0
C4775 C 0.12983 0.06978 0.70822 0.0
C4776 C 0.14178 0.06597 0.71024 0.0
H4777 H 0.12575 0.03245 0.64347 0.0
H4778 H 0.12704 0.04746 0.65973 0.0
C4779 C 0.1494 0.07264 0.71785 0.0
C4780 C 0.12226 0.06301 0.69941 0.0
H4781 H 0.11384 0.03399 0.69231 0.0
C4782 C 0.11912 0.06872 0.68841 0.0
C4783 C 0.11961 0.05052 0.7011 0.0
C4784 C 0.12206 0.04414 0.71303 0.0
C4785 C 0.11439 0.06197 0.67863 0.0
C4786 C 0.113 0.04921 0.67989 0.0
C4787 C 0.11507 0.04375 0.69128 0.0
C4788 C 0.11103 0.04115 0.66925 0.0
C4789 C 0.11139 0.06849 0.6669 0.0
C4790 C 0.10165 0.03252 0.66922 0.0
C4791 C 0.10095 0.02379 0.65994 0.0
C4792 C 0.10971 0.02347 0.65062 0.0
C4793 C 0.11886 0.03239 0.6505 0.0
C4794 C 0.11954 0.04109 0.65974 0.0
H4795 H 0.10862 0.07806 0.66869 0.0
H4796 H 0.11957 0.06874 0.66102 0.0
H4797 H 0.10402 0.0638 0.66186 0.0
H4798 H 0.09506 0.03235 0.67654 0.0
H4799 H 0.09377 0.01708 0.66032 0.0
H4800 H 0.0153 0.13242 0.44576 0.0
H4801 H 0.03443 0.13003 0.4569 0.0
H4802 H 0.0541 0.13137 0.42287 0.0
H4803 H 0.03502 0.13302 0.41177 0.0
H4804 H 0.06063 0.11259 0.43484 0.0
H4805 H 0.0617 0.15157 0.46677 0.0
H4806 H 0.04807 0.14287 0.46849 0.0
H4807 H 0.05101 0.15069 0.45435 0.0
C4808 C 0.02376 0.13238 0.44074 0.0
C4809 C 0.02376 0.13273 0.42796 0.0
C4810 C 0.03468 0.13114 0.44709 0.0
C4811 C 0.04574 0.13065 0.44073 0.0
C4812 C 0.0457 0.13169 0.42797 0.0
H4813 H 0.11605 0.12432 0.47759 0.0
H4814 H 0.09874 0.13222 0.46594 0.0
C4815 C 0.03481 0.1326 0.42164 0.0
C4816 C 0.05718 0.12758 0.4471 0.0
H4817 H 0.07502 0.13478 0.47149 0.0
C4818 C 0.06384 0.11758 0.44275 0.0
C4819 C 0.06148 0.13415 0.45733 0.0
C4820 C 0.05525 0.14549 0.46192 0.0
C4821 C 0.0745 0.11378 0.44849 0.0
C4822 C 0.07835 0.11981 0.4592 0.0
C4823 C 0.07194 0.13006 0.46337 0.0
C4824 C 0.08871 0.11526 0.46643 0.0
C4825 C 0.08154 0.10335 0.44294 0.0
C4826 C 0.08868 0.10322 0.47071 0.0
C4827 C 0.09858 0.09865 0.4771 0.0
C4828 C 0.10858 0.10615 0.47962 0.0
C4829 C 0.10847 0.11834 0.4757 0.0
C4830 C 0.0986 0.12286 0.46909 0.0
H4831 H 0.07985 0.10264 0.43297 0.0
H4832 H 0.09143 0.10441 0.44444 0.0
H4833 H 0.07857 0.09467 0.44718 0.0
H4834 H 0.08097 0.09732 0.46909 0.0
H4835 H 0.09832 0.08929 0.48022 0.0
H4836 H 0.15978 0.84754 0.72702 0.0
H4837 H 0.15043 0.82968 0.71776 0.0
H4838 H 0.11508 0.84276 0.72821 0.0
H4839 H 0.1244 0.86085 0.73751 0.0
H4840 H 0.13485 0.81203 0.72969 0.0
H4841 H 0.11297 0.83609 0.69067 0.0
H4842 H 0.12507 0.84295 0.69936 0.0
H4843 H 0.11021 0.8417 0.70585 0.0
C4844 C 0.15001 0.84667 0.72733 0.0
C4845 C 0.14282 0.85561 0.73296 0.0
C4846 C 0.14469 0.83643 0.72208 0.0
C4847 C 0.13209 0.83494 0.7223 0.0
C4848 C 0.12483 0.84382 0.72789 0.0
H4849 H 0.10619 0.76442 0.69269 0.0
H4850 H 0.10699 0.78214 0.70639 0.0
C4851 C 0.13016 0.85412 0.73319 0.0
C4852 C 0.12677 0.82405 0.71649 0.0
H4853 H 0.11269 0.81472 0.69043 0.0
C4854 C 0.12977 0.81256 0.72124 0.0
C4855 C 0.12019 0.82488 0.70547 0.0
C4856 C 0.11692 0.83704 0.69994 0.0
C4857 C 0.12695 0.80184 0.71488 0.0
C4858 C 0.1209 0.8027 0.70355 0.0
C4859 C 0.11729 0.81415 0.69915 0.0
C4860 C 0.11987 0.7921 0.69534 0.0
C4861 C 0.13117 0.78975 0.71988 0.0
C4862 C 0.12674 0.79195 0.68459 0.0
C4863 C 0.12632 0.78192 0.67682 0.0
C4864 C 0.11897 0.77186 0.67963 0.0
C4865 C 0.11198 0.77204 0.69035 0.0
C4866 C 0.11243 0.78212 0.69817 0.0
H4867 H 0.13691 0.79082 0.72813 0.0
H4868 H 0.12318 0.78412 0.72233 0.0
H4869 H 0.13641 0.78471 0.71285 0.0
H4870 H 0.13256 0.79956 0.68229 0.0
H4871 H 0.13177 0.78208 0.66861 0.0
H4872 H 0.39335 0.90354 0.96749 0.0
H4873 H 0.41104 0.89432 0.95787 0.0
H4874 H 0.40274 0.85992 0.97496 0.0
H4875 H 0.38487 0.86907 0.98463 0.0
H4876 H 0.43 0.8828 0.97347 0.0
H4877 H 0.41055 0.85246 0.93763 0.0
H4878 H 0.40231 0.86549 0.94336 0.0
H4879 H 0.40417 0.85228 0.95277 0.0
C4880 C 0.39514 0.89396 0.96904 0.0
C4881 C 0.38779 0.88704 0.97687 0.0
C4882 C 0.40525 0.88872 0.96356 0.0
C4883 C 0.40815 0.87649 0.96578 0.0
C4884 C 0.40055 0.86936 0.97311 0.0
H4885 H 0.48143 0.85261 0.94378 0.0
H4886 H 0.46271 0.85348 0.95588 0.0
C4887 C 0.39037 0.8746 0.97861 0.0
C4888 C 0.41968 0.87166 0.96109 0.0
H4889 H 0.43174 0.85484 0.93795 0.0
C4890 C 0.43045 0.87649 0.96586 0.0
C4891 C 0.4201 0.86343 0.95121 0.0
C4892 C 0.4087 0.85808 0.94585 0.0
C4893 C 0.44166 0.87382 0.96054 0.0
C4894 C 0.44204 0.86607 0.95027 0.0
C4895 C 0.43134 0.86073 0.94589 0.0
C4896 C 0.45315 0.86487 0.94296 0.0
C4897 C 0.45294 0.87988 0.96542 0.0
C4898 C 0.45385 0.87095 0.93176 0.0
C4899 C 0.46446 0.87055 0.92492 0.0
C4900 C 0.47454 0.86399 0.92915 0.0
C4901 C 0.4738 0.85777 0.94034 0.0
C4902 C 0.46315 0.85823 0.94723 0.0
H4903 H 0.45093 0.88633 0.97297 0.0
H4904 H 0.45929 0.87283 0.96886 0.0
H4905 H 0.45761 0.88492 0.958 0.0
H4906 H 0.44621 0.87617 0.92839 0.0
H4907 H 0.46474 0.8754 0.91632 0.0
H4908 H 0.38934 0.2303 0.19381 0.0
H4909 H 0.38872 0.21161 0.20606 0.0
H4910 H 0.36395 0.19553 0.18022 0.0
H4911 H 0.36459 0.21407 0.16792 0.0
H4912 H 0.36833 0.20096 0.21671 0.0
H4913 H 0.39009 0.16919 0.18418 0.0
H4914 H 0.39127 0.18556 0.18277 0.0
H4915 H 0.37799 0.17773 0.17736 0.0
C4916 C 0.3838 0.22276 0.19074 0.0
C4917 C 0.37702 0.22362 0.17991 0.0
C4918 C 0.38349 0.2121 0.19771 0.0
C4919 C 0.3765 0.20213 0.19389 0.0
C4920 C 0.36965 0.20302 0.18315 0.0
H4921 H 0.33806 0.14595 0.22714 0.0
H4922 H 0.34661 0.16395 0.21739 0.0
C4923 C 0.36993 0.21366 0.1762 0.0
C4924 C 0.37566 0.19102 0.20145 0.0
H4925 H 0.37776 0.16002 0.19991 0.0
C4926 C 0.37062 0.19203 0.21315 0.0
C4927 C 0.37883 0.17941 0.19685 0.0
C4928 C 0.38496 0.17789 0.18465 0.0
C4929 C 0.36786 0.18162 0.22001 0.0
C4930 C 0.37011 0.16999 0.21498 0.0
C4931 C 0.37594 0.16899 0.20366 0.0
C4932 C 0.36525 0.15886 0.22072 0.0
C4933 C 0.36216 0.18313 0.23243 0.0
C4934 C 0.37296 0.1499 0.2255 0.0
C4935 C 0.36809 0.13954 0.23112 0.0
C4936 C 0.35546 0.138 0.23187 0.0
C4937 C 0.34783 0.14687 0.22675 0.0
C4938 C 0.35268 0.1572 0.22123 0.0
H4939 H 0.36407 0.19228 0.23633 0.0
H4940 H 0.35219 0.18213 0.23159 0.0
H4941 H 0.36549 0.17606 0.23885 0.0
H4942 H 0.3827 0.15103 0.22507 0.0
H4943 H 0.37419 0.13282 0.23497 0.0
H4944 H 0.01773 0.85421 0.05395 0.0
H4945 H 0.03696 0.85539 0.04274 0.0
H4946 H 0.05201 0.87782 0.07128 0.0
H4947 H 0.03299 0.87668 0.08248 0.0
H4948 H 0.04805 0.87699 0.0346 0.0
H4949 H 0.07821 0.85168 0.06597 0.0
H4950 H 0.06189 0.85035 0.06647 0.0
H4951 H 0.06935 0.86302 0.0737 0.0
C4952 C 0.02518 0.85933 0.05784 0.0
C4953 C 0.02388 0.86537 0.06907 0.0
C4954 C 0.03613 0.85995 0.05147 0.0
C4955 C 0.04594 0.86647 0.05634 0.0
C4956 C 0.04464 0.87248 0.06753 0.0
H4957 H 0.10296 0.908 0.02779 0.0
H4958 H 0.08529 0.8989 0.03762 0.0
C4959 C 0.03372 0.87193 0.07386 0.0
C4960 C 0.05726 0.86797 0.04938 0.0
H4961 H 0.08798 0.86585 0.05222 0.0
C4962 C 0.05677 0.87434 0.03831 0.0
C4963 C 0.0686 0.86435 0.05419 0.0
C4964 C 0.06956 0.85686 0.06568 0.0
C4965 C 0.06739 0.87794 0.03234 0.0
C4966 C 0.07871 0.8752 0.03768 0.0
C4967 C 0.07924 0.86809 0.04829 0.0
C4968 C 0.09001 0.88038 0.03278 0.0
C4969 C 0.06643 0.88498 0.02056 0.0
C4970 C 0.09871 0.87287 0.0273 0.0
C4971 C 0.10885 0.87804 0.02169 0.0
C4972 C 0.1104 0.89077 0.02158 0.0
C4973 C 0.10198 0.89818 0.02767 0.0
C4974 C 0.09186 0.89301 0.03323 0.0
H4975 H 0.05748 0.88362 0.01611 0.0
H4976 H 0.06749 0.89486 0.02249 0.0
H4977 H 0.07367 0.88224 0.01409 0.0
H4978 H 0.09743 0.86309 0.02698 0.0
H4979 H 0.11523 0.87211 0.0171 0.0
H4980 H 0.36244 0.78177 0.32741 0.0
H4981 H 0.36159 0.79991 0.31461 0.0
H4982 H 0.39207 0.78684 0.29374 0.0
H4983 H 0.39281 0.76842 0.30642 0.0
H4984 H 0.3795 0.81736 0.31132 0.0
H4985 H 0.36699 0.79499 0.26744 0.0
H4986 H 0.36591 0.78719 0.28189 0.0
H4987 H 0.38044 0.78952 0.2749 0.0
C4988 C 0.36892 0.7827 0.32005 0.0
C4989 C 0.37767 0.77367 0.31788 0.0
C4990 C 0.36845 0.79309 0.31277 0.0
C4991 C 0.37672 0.79468 0.3032 0.0
C4992 C 0.38549 0.78569 0.30097 0.0
H4993 H 0.37277 0.8609 0.25706 0.0
H4994 H 0.38209 0.84346 0.2676 0.0
C4995 C 0.38592 0.7752 0.30823 0.0
C4996 C 0.37603 0.80589 0.29575 0.0
H4997 H 0.36764 0.8164 0.26768 0.0
C4998 C 0.37713 0.81716 0.30172 0.0
C4999 C 0.37295 0.80557 0.28323 0.0
C5000 C 0.37141 0.7937 0.27645 0.0
C5001 C 0.3746 0.82811 0.29565 0.0
C5002 C 0.37095 0.82772 0.28334 0.0
C5003 C 0.37053 0.81656 0.27714 0.0
C5004 C 0.36578 0.83854 0.27735 0.0
C5005 C 0.37523 0.83998 0.30254 0.0
C5006 C 0.35362 0.84146 0.27947 0.0
C5007 C 0.34829 0.85128 0.27347 0.0
C5008 C 0.35507 0.85838 0.26528 0.0
C5009 C 0.36736 0.8556 0.26336 0.0
C5010 C 0.37268 0.84566 0.26932 0.0
H5011 H 0.37999 0.83898 0.31141 0.0
H5012 H 0.37995 0.84701 0.297 0.0
H5013 H 0.3659 0.8433 0.30432 0.0
H5014 H 0.3482 0.83601 0.28565 0.0
H5015 H 0.33881 0.85322 0.27516 0.0
H5016 H 0.38313 0.1289 0.51245 0.0
H5017 H 0.40097 0.13837 0.52193 0.0
H5018 H 0.41156 0.1035 0.53661 0.0
H5019 H 0.39387 0.09399 0.52727 0.0
H5020 H 0.40939 0.13721 0.54834 0.0
H5021 H 0.44061 0.11636 0.5146 0.0
H5022 H 0.4246 0.11836 0.51175 0.0
H5023 H 0.42981 0.10594 0.52105 0.0
C5024 C 0.38919 0.1233 0.51783 0.0
C5025 C 0.38717 0.11069 0.51904 0.0
C5026 C 0.39935 0.12871 0.5232 0.0
C5027 C 0.40761 0.12155 0.52975 0.0
C5028 C 0.40533 0.1091 0.53141 0.0
H5029 H 0.46197 0.12398 0.58178 0.0
H5030 H 0.44344 0.12401 0.56968 0.0
C5031 C 0.3952 0.10371 0.52611 0.0
C5032 C 0.41886 0.12682 0.53468 0.0
H5033 H 0.4495 0.12335 0.53326 0.0
C5034 C 0.41819 0.13442 0.54493 0.0
C5035 C 0.43028 0.12332 0.53003 0.0
C5036 C 0.43143 0.11564 0.51867 0.0
C5037 C 0.42871 0.13785 0.55123 0.0
C5038 C 0.44006 0.13343 0.54719 0.0
C5039 C 0.44077 0.12663 0.53639 0.0
C5040 C 0.45105 0.13444 0.55478 0.0
C5041 C 0.42757 0.14583 0.56237 0.0
C5042 C 0.46154 0.14009 0.55027 0.0
C5043 C 0.4722 0.14004 0.55716 0.0
C5044 C 0.47252 0.13418 0.56856 0.0
C5045 C 0.46199 0.12856 0.57303 0.0
C5046 C 0.45136 0.12868 0.56619 0.0
H5047 H 0.41925 0.15152 0.56197 0.0
H5048 H 0.42696 0.13998 0.5706 0.0
H5049 H 0.43556 0.15189 0.56337 0.0
H5050 H 0.46149 0.14443 0.5414 0.0
H5051 H 0.4802 0.14444 0.55351 0.0
H5052 H 0.12321 0.13336 0.76208 0.0
H5053 H 0.11446 0.1516 0.77165 0.0
H5054 H 0.15038 0.16501 0.77934 0.0
H5055 H 0.15916 0.14701 0.76981 0.0
H5056 H 0.11784 0.16057 0.79579 0.0
H5057 H 0.13405 0.19354 0.76125 0.0
H5058 H 0.13338 0.17733 0.75842 0.0
H5059 H 0.14592 0.18377 0.7667 0.0
C5060 C 0.12922 0.1402 0.76584 0.0
C5061 C 0.14186 0.1388 0.76513 0.0
C5062 C 0.12421 0.1506 0.77126 0.0
C5063 C 0.1318 0.15974 0.77592 0.0
C5064 C 0.14439 0.15819 0.7755 0.0
H5065 H 0.13148 0.2128 0.83008 0.0
H5066 H 0.13195 0.19483 0.81699 0.0
C5067 C 0.14938 0.14784 0.77013 0.0
C5068 C 0.12674 0.17081 0.78164 0.0
H5069 H 0.12919 0.2018 0.78106 0.0
C5070 C 0.12008 0.1696 0.79246 0.0
C5071 C 0.1295 0.18257 0.77713 0.0
C5072 C 0.136 0.1844 0.76516 0.0
C5073 C 0.11692 0.17985 0.79939 0.0
C5074 C 0.12065 0.19153 0.79542 0.0
C5075 C 0.12648 0.19281 0.78414 0.0
C5076 C 0.11979 0.2023 0.80343 0.0
C5077 C 0.10997 0.17811 0.8111 0.0
C5078 C 0.11301 0.21255 0.79997 0.0
C5079 C 0.11274 0.22287 0.80744 0.0
C5080 C 0.1194 0.22312 0.81837 0.0
C5081 C 0.12626 0.21288 0.82172 0.0
C5082 C 0.12645 0.20257 0.81431 0.0
H5083 H 0.10473 0.16946 0.811 0.0
H5084 H 0.11645 0.17769 0.81884 0.0
H5085 H 0.10365 0.18581 0.81274 0.0
H5086 H 0.10793 0.21253 0.79151 0.0
H5087 H 0.10738 0.23066 0.80465 0.0
H5088 H 0.47323 0.10061 0.09349 0.0
H5089 H 0.46421 0.08305 0.1037 0.0
H5090 H 0.47678 0.09642 0.13845 0.0
H5091 H 0.48584 0.11416 0.12829 0.0
H5092 H 0.47828 0.0659 0.11941 0.0
H5093 H 0.4394 0.08859 0.14272 0.0
H5094 H 0.44655 0.09539 0.12956 0.0
H5095 H 0.45435 0.09509 0.14389 0.0
C5096 C 0.47399 0.09991 0.10332 0.0
C5097 C 0.48024 0.10876 0.11009 0.0
C5098 C 0.46887 0.08985 0.10913 0.0
C5099 C 0.46985 0.08848 0.1218 0.0
C5100 C 0.47588 0.09739 0.12866 0.0
H5101 H 0.42891 0.02577 0.15191 0.0
H5102 H 0.44404 0.0423 0.15286 0.0
C5103 C 0.48104 0.10749 0.12284 0.0
C5104 C 0.46475 0.07746 0.12757 0.0
H5105 H 0.43935 0.06718 0.14198 0.0
C5106 C 0.46993 0.06616 0.12462 0.0
C5107 C 0.45397 0.07788 0.13449 0.0
C5108 C 0.44815 0.08985 0.13789 0.0
C5109 C 0.46408 0.05524 0.12761 0.0
C5110 C 0.45273 0.05568 0.13353 0.0
C5111 C 0.44808 0.06692 0.13744 0.0
C5112 C 0.44452 0.04508 0.13333 0.0
C5113 C 0.46969 0.04332 0.12373 0.0
C5114 C 0.43984 0.04129 0.12207 0.0
C5115 C 0.43119 0.0321 0.12153 0.0
C5116 C 0.42708 0.02644 0.13224 0.0
C5117 C 0.43199 0.02997 0.14353 0.0
C5118 C 0.44059 0.03938 0.14409 0.0
H5119 H 0.47968 0.04412 0.12281 0.0
H5120 H 0.46756 0.03596 0.13035 0.0
H5121 H 0.46596 0.04065 0.11471 0.0
H5122 H 0.44265 0.04571 0.1137 0.0
H5123 H 0.42761 0.02954 0.1127 0.0
H5124 H 0.23015 0.19346 0.39127 0.0
H5125 H 0.21129 0.20533 0.39198 0.0
H5126 H 0.19392 0.17874 0.36887 0.0
H5127 H 0.21256 0.1669 0.36812 0.0
H5128 H 0.19898 0.21514 0.3717 0.0
H5129 H 0.16965 0.18307 0.39705 0.0
H5130 H 0.186 0.18214 0.39732 0.0
H5131 H 0.17759 0.17572 0.38481 0.0
C5132 C 0.22228 0.19015 0.38638 0.0
C5133 C 0.22281 0.17927 0.37963 0.0
C5134 C 0.21153 0.19689 0.38685 0.0
C5135 C 0.20118 0.19273 0.38071 0.0
C5136 C 0.20174 0.18192 0.37393 0.0
H5137 H 0.14366 0.22102 0.34192 0.0
H5138 H 0.16142 0.2115 0.35111 0.0
C5139 C 0.21244 0.17524 0.3734 0.0
C5140 C 0.18998 0.20005 0.38042 0.0
H5141 H 0.15935 0.19739 0.38369 0.0
C5142 C 0.19034 0.21142 0.37461 0.0
C5143 C 0.17875 0.19524 0.38437 0.0
C5144 C 0.17797 0.18342 0.39135 0.0
C5145 C 0.17964 0.21762 0.3717 0.0
C5146 C 0.16838 0.21223 0.37461 0.0
C5147 C 0.16803 0.20138 0.38133 0.0
C5148 C 0.15703 0.21707 0.36951 0.0
C5149 C 0.1804 0.22962 0.36501 0.0
C5150 C 0.1485 0.22291 0.37695 0.0
C5151 C 0.1383 0.22837 0.37172 0.0
C5152 C 0.13653 0.22798 0.35902 0.0
C5153 C 0.1448 0.22154 0.35172 0.0
C5154 C 0.15496 0.21614 0.35694 0.0
H5155 H 0.18942 0.23396 0.36616 0.0
H5156 H 0.17892 0.22801 0.35512 0.0
H5157 H 0.1733 0.23602 0.36825 0.0
H5158 H 0.14995 0.2236 0.38669 0.0
H5159 H 0.13205 0.23326 0.37756 0.0
H5160 H 0.02259 0.89715 0.59002 0.0
H5161 H 0.03121 0.91503 0.60007 0.0
H5162 H 0.01843 0.90198 0.63487 0.0
H5163 H 0.00984 0.88394 0.6249 0.0
H5164 H 0.01749 0.93242 0.61479 0.0
H5165 H 0.0551 0.90981 0.64021 0.0
H5166 H 0.04784 0.90259 0.62734 0.0
H5167 H 0.04002 0.90371 0.64162 0.0
C5168 C 0.02171 0.89801 0.59983 0.0
C5169 C 0.01556 0.88914 0.60668 0.0
C5170 C 0.02658 0.90825 0.60554 0.0
C5171 C 0.02545 0.90978 0.61819 0.0
C5172 C 0.01947 0.90088 0.62511 0.0
H5173 H 0.06586 0.97132 0.65067 0.0
H5174 H 0.05015 0.95536 0.65042 0.0
C5175 C 0.01458 0.89061 0.61939 0.0
C5176 C 0.03043 0.92087 0.62391 0.0
H5177 H 0.0549 0.93118 0.63983 0.0
C5178 C 0.02552 0.93217 0.62049 0.0
C5179 C 0.04077 0.92047 0.63149 0.0
C5180 C 0.04633 0.90853 0.63539 0.0
C5181 C 0.03123 0.94309 0.62373 0.0
C5182 C 0.04216 0.94266 0.6304 0.0
C5183 C 0.0465 0.93143 0.63471 0.0
C5184 C 0.05039 0.95324 0.6308 0.0
C5185 C 0.0259 0.955 0.61943 0.0
C5186 C 0.05563 0.95724 0.61988 0.0
C5187 C 0.06463 0.96611 0.62001 0.0
C5188 C 0.06851 0.97121 0.63108 0.0
C5189 C 0.06296 0.96756 0.64202 0.0
C5190 C 0.05403 0.95847 0.6419 0.0
H5191 H 0.01596 0.95424 0.61805 0.0
H5192 H 0.02775 0.96244 0.62605 0.0
H5193 H 0.03005 0.95751 0.61056 0.0
H5194 H 0.05309 0.95315 0.61125 0.0
H5195 H 0.06872 0.9688 0.61144 0.0
H5196 H 0.36305 0.76371 0.87903 0.0
H5197 H 0.3454 0.77344 0.88861 0.0
H5198 H 0.33433 0.78753 0.85364 0.0
H5199 H 0.35183 0.77796 0.84402 0.0
H5200 H 0.33647 0.80048 0.88623 0.0
H5201 H 0.30599 0.76449 0.86815 0.0
H5202 H 0.32205 0.76215 0.87044 0.0
H5203 H 0.31674 0.77041 0.85734 0.0
C5204 C 0.35696 0.76906 0.87343 0.0
C5205 C 0.35874 0.77 0.86076 0.0
C5206 C 0.3469 0.77456 0.87891 0.0
C5207 C 0.33855 0.78099 0.87175 0.0
C5208 C 0.34065 0.78245 0.85924 0.0
H5209 H 0.28375 0.83185 0.87088 0.0
H5210 H 0.30229 0.81986 0.87176 0.0
C5211 C 0.35067 0.77701 0.85378 0.0
C5212 C 0.32728 0.78583 0.87702 0.0
H5213 H 0.29667 0.78331 0.874 0.0
C5214 C 0.32775 0.79661 0.88383 0.0
C5215 C 0.31597 0.78059 0.87404 0.0
C5216 C 0.3151 0.76871 0.86718 0.0
C5217 C 0.31709 0.80286 0.8869 0.0
C5218 C 0.30582 0.79822 0.88287 0.0
C5219 C 0.30534 0.7869 0.87697 0.0
C5220 C 0.2947 0.80568 0.88317 0.0
C5221 C 0.31801 0.81459 0.89401 0.0
C5222 C 0.28419 0.80148 0.889 0.0
C5223 C 0.2735 0.8083 0.88843 0.0
C5224 C 0.27318 0.81932 0.8819 0.0
C5225 C 0.28371 0.82341 0.876 0.0
C5226 C 0.29436 0.81664 0.87661 0.0
H5227 H 0.32625 0.81471 0.89982 0.0
H5228 H 0.31866 0.82234 0.88754 0.0
H5229 H 0.30992 0.816 0.89987 0.0
H5230 H 0.28426 0.79293 0.89395 0.0
H5231 H 0.2655 0.80494 0.89307 0.0
H5232 H 0.48389 0.88192 0.36978 0.0
H5233 H 0.47398 0.89913 0.35951 0.0
H5234 H 0.46764 0.91618 0.39438 0.0
H5235 H 0.47749 0.89914 0.40466 0.0
H5236 H 0.45003 0.90751 0.36306 0.0
H5237 H 0.48332 0.94353 0.37399 0.0
H5238 H 0.48692 0.92747 0.3748 0.0
H5239 H 0.47918 0.93486 0.38723 0.0
C5240 C 0.4804 0.88936 0.37524 0.0
C5241 C 0.48148 0.8892 0.38802 0.0
C5242 C 0.4748 0.89918 0.36936 0.0
C5243 C 0.47035 0.90903 0.37618 0.0
C5244 C 0.47131 0.9088 0.38894 0.0
H5245 H 0.41415 0.95657 0.37916 0.0
H5246 H 0.42863 0.93994 0.37767 0.0
C5247 C 0.47683 0.899 0.3948 0.0
C5248 C 0.46396 0.91926 0.37023 0.0
H5249 H 0.46267 0.95032 0.37035 0.0
C5250 C 0.45293 0.91687 0.36434 0.0
C5251 C 0.46789 0.93144 0.37167 0.0
C5252 C 0.48005 0.93448 0.37715 0.0
C5253 C 0.44518 0.92641 0.36095 0.0
C5254 C 0.44853 0.93855 0.36366 0.0
C5255 C 0.46006 0.94098 0.36842 0.0
C5256 C 0.4395 0.94848 0.36365 0.0
C5257 C 0.43318 0.9234 0.35511 0.0
C5258 C 0.44096 0.95892 0.35639 0.0
C5259 C 0.43262 0.96853 0.35722 0.0
C5260 C 0.4229 0.96786 0.36549 0.0
C5261 C 0.42155 0.95739 0.37272 0.0
C5262 C 0.42975 0.94781 0.3718 0.0
H5263 H 0.43363 0.91463 0.35007 0.0
H5264 H 0.42619 0.92247 0.36233 0.0
H5265 H 0.43028 0.93071 0.34874 0.0
H5266 H 0.44854 0.95964 0.35016 0.0
H5267 H 0.43388 0.97652 0.35155 0.0
H5268 H 0.28037 0.1708 0.63262 0.0
H5269 H 0.30009 0.18085 0.63313 0.0
H5270 H 0.29021 0.20228 0.60165 0.0
H5271 H 0.27026 0.19254 0.60136 0.0
H5272 H 0.31793 0.18117 0.61591 0.0
H5273 H 0.30143 0.22821 0.62527 0.0
H5274 H 0.29172 0.21504 0.62651 0.0
H5275 H 0.29539 0.22121 0.61178 0.0
C5276 C 0.28236 0.17773 0.62588 0.0
C5277 C 0.27377 0.18094 0.617 0.0
C5278 C 0.29364 0.18342 0.62614 0.0
C5279 C 0.29657 0.19237 0.61749 0.0
C5280 C 0.28804 0.19555 0.60855 0.0
H5281 H 0.36292 0.23637 0.62005 0.0
H5282 H 0.34601 0.22517 0.61081 0.0
C5283 C 0.27667 0.18996 0.60837 0.0
C5284 C 0.30858 0.19829 0.61799 0.0
H5285 H 0.32247 0.22546 0.62378 0.0
C5286 C 0.31894 0.19088 0.6175 0.0
C5287 C 0.30984 0.21097 0.61999 0.0
C5288 C 0.29902 0.21933 0.62102 0.0
C5289 C 0.33052 0.19573 0.61947 0.0
C5290 C 0.3317 0.20828 0.62196 0.0
C5291 C 0.32145 0.21582 0.62178 0.0
C5292 C 0.34314 0.21352 0.62645 0.0
C5293 C 0.34137 0.18738 0.61925 0.0
C5294 C 0.34716 0.21048 0.63819 0.0
C5295 C 0.35664 0.21693 0.64353 0.0
C5296 C 0.3623 0.22647 0.63716 0.0
C5297 C 0.35874 0.22902 0.62512 0.0
C5298 C 0.34911 0.22266 0.61984 0.0
H5299 H 0.33943 0.17881 0.61421 0.0
H5300 H 0.34927 0.19197 0.61498 0.0
H5301 H 0.34387 0.18496 0.62875 0.0
H5302 H 0.34252 0.20356 0.64347 0.0
H5303 H 0.35924 0.21477 0.65281 0.0
H5304 H 0.06614 0.02532 0.88197 0.0
H5305 H 0.05163 0.04206 0.88057 0.0
H5306 H 0.05701 0.04374 0.84165 0.0
H5307 H 0.07141 0.02659 0.84296 0.0
H5308 H 0.06219 0.06643 0.85925 0.0
H5309 H 0.0165 0.04538 0.86217 0.0
H5310 H 0.02807 0.03855 0.87153 0.0
H5311 H 0.02932 0.03778 0.85522 0.0
C5312 C 0.06402 0.02906 0.87307 0.0
C5313 C 0.06987 0.02474 0.86257 0.0
C5314 C 0.05571 0.03857 0.87228 0.0
C5315 C 0.05325 0.04404 0.86101 0.0
C5316 C 0.05874 0.0395 0.8504 0.0
H5317 H 0.00753 0.10972 0.86872 0.0
H5318 H 0.01776 0.093 0.85794 0.0
C5319 C 0.06691 0.02974 0.85115 0.0
C5320 C 0.04614 0.0554 0.8609 0.0
H5321 H 0.01825 0.06617 0.86879 0.0
C5322 C 0.0525 0.06646 0.86093 0.0
C5323 C 0.03355 0.05533 0.86314 0.0
C5324 C 0.02639 0.04364 0.86294 0.0
C5325 C 0.04674 0.07738 0.86416 0.0
C5326 C 0.03436 0.07714 0.86737 0.0
C5327 C 0.02777 0.06626 0.86635 0.0
C5328 C 0.0286 0.08762 0.87346 0.0
C5329 C 0.05405 0.08897 0.86488 0.0
C5330 C 0.03135 0.09003 0.8857 0.0
C5331 C 0.02548 0.09943 0.8919 0.0
C5332 C 0.0168 0.10663 0.88591 0.0
C5333 C 0.01422 0.10434 0.87355 0.0
C5334 C 0.02002 0.09481 0.86739 0.0
H5335 H 0.06267 0.08824 0.85971 0.0
H5336 H 0.04875 0.0968 0.8613 0.0
H5337 H 0.05626 0.09089 0.87457 0.0
H5338 H 0.03791 0.08448 0.89053 0.0
H5339 H 0.02766 0.10098 0.90141 0.0
H5340 H 0.23021 0.80345 0.10099 0.0
H5341 H 0.21117 0.79192 0.09983 0.0
H5342 H 0.195 0.8164 0.12597 0.0
H5343 H 0.21379 0.82795 0.12708 0.0
H5344 H 0.19931 0.78016 0.11871 0.0
H5345 H 0.16966 0.81558 0.09895 0.0
H5346 H 0.18599 0.81651 0.09835 0.0
H5347 H 0.17793 0.82134 0.1118 0.0
C5348 C 0.22257 0.80637 0.10644 0.0
C5349 C 0.22345 0.81661 0.11409 0.0
C5350 C 0.21171 0.79983 0.10572 0.0
C5351 C 0.20162 0.80353 0.11256 0.0
C5352 C 0.20258 0.81363 0.12033 0.0
H5353 H 0.14397 0.77704 0.15088 0.0
H5354 H 0.16105 0.78704 0.14086 0.0
C5355 C 0.21337 0.82014 0.12105 0.0
C5356 C 0.19027 0.79641 0.11246 0.0
H5357 H 0.1596 0.80011 0.11135 0.0
C5358 C 0.19063 0.78438 0.11674 0.0
C5359 C 0.17899 0.80191 0.10977 0.0
C5360 C 0.17812 0.81451 0.10433 0.0
C5361 C 0.17993 0.77808 0.11945 0.0
C5362 C 0.1687 0.78403 0.11785 0.0
C5363 C 0.16829 0.79567 0.11264 0.0
C5364 C 0.1576 0.77896 0.12321 0.0
C5365 C 0.18064 0.76543 0.12479 0.0
C5366 C 0.14993 0.77139 0.11643 0.0
C5367 C 0.14013 0.76566 0.12213 0.0
C5368 C 0.13798 0.76744 0.13465 0.0
C5369 C 0.14543 0.77546 0.14124 0.0
C5370 C 0.15516 0.78118 0.13555 0.0
H5371 H 0.18988 0.76149 0.12402 0.0
H5372 H 0.1781 0.76578 0.13458 0.0
H5373 H 0.17411 0.7593 0.12012 0.0
H5374 H 0.15175 0.76962 0.10689 0.0
H5375 H 0.13453 0.75952 0.11684 0.0
H5376 H 0.10996 0.41857 0.0299 0.0
H5377 H 0.10803 0.43103 0.0482 0.0
H5378 H 0.13974 0.45153 0.03778 0.0
H5379 H 0.14156 0.43923 0.01918 0.0
H5380 H 0.12452 0.43327 0.06682 0.0
H5381 H 0.11518 0.47829 0.0453 0.0
H5382 H 0.11432 0.46417 0.03689 0.0
H5383 H 0.1288 0.47074 0.04044 0.0
C5384 C 0.11647 0.42579 0.03143 0.0
C5385 C 0.1259 0.42795 0.02311 0.0
C5386 C 0.11537 0.43288 0.04191 0.0
C5387 C 0.12369 0.44224 0.0443 0.0
C5388 C 0.13311 0.44448 0.03599 0.0
H5389 H 0.12048 0.48834 0.11024 0.0
H5390 H 0.12897 0.47754 0.09255 0.0
C5391 C 0.13416 0.43743 0.02541 0.0
C5392 C 0.1225 0.44935 0.0557 0.0
H5393 H 0.11542 0.47756 0.06676 0.0
C5394 C 0.12268 0.44299 0.06682 0.0
C5395 C 0.12013 0.46202 0.05565 0.0
C5396 C 0.11949 0.46924 0.04395 0.0
C5397 C 0.12008 0.44888 0.07785 0.0
C5398 C 0.11727 0.46141 0.07772 0.0
C5399 C 0.11765 0.46793 0.06673 0.0
C5400 C 0.11253 0.46755 0.08867 0.0
C5401 C 0.11994 0.44162 0.08953 0.0
C5402 C 0.10054 0.46543 0.09225 0.0
C5403 C 0.09566 0.47161 0.1022 0.0
C5404 C 0.10273 0.47996 0.10879 0.0
C5405 C 0.11485 0.4819 0.10534 0.0
C5406 C 0.1197 0.47579 0.09526 0.0
H5407 H 0.12445 0.43263 0.08846 0.0
H5408 H 0.12449 0.44676 0.09695 0.0
H5409 H 0.11041 0.44003 0.09234 0.0
H5410 H 0.09489 0.45912 0.08719 0.0
H5411 H 0.0863 0.46991 0.10467 0.0
H5412 H 0.58674 0.02008 0.89611 0.0
H5413 H 0.5951 0.03019 0.91401 0.0
H5414 H 0.63112 0.01927 0.90339 0.0
H5415 H 0.62279 0.00909 0.88527 0.0
H5416 H 0.6097 0.01817 0.93272 0.0
H5417 H 0.6328 0.05712 0.90975 0.0
H5418 H 0.62093 0.04855 0.90235 0.0
H5419 H 0.63566 0.04193 0.90423 0.0
C5420 C 0.59645 0.01987 0.8975 0.0
C5421 C 0.60412 0.01379 0.88928 0.0
C5422 C 0.6012 0.02563 0.90775 0.0
C5423 C 0.61369 0.02546 0.90998 0.0
C5424 C 0.62144 0.01955 0.90174 0.0
H5425 H 0.63806 0.0536 0.9814 0.0
H5426 H 0.63706 0.04046 0.96329 0.0
C5427 C 0.61668 0.01375 0.89142 0.0
C5428 C 0.61836 0.03137 0.92111 0.0
H5429 H 0.63215 0.05731 0.93117 0.0
C5430 C 0.61481 0.02661 0.93244 0.0
C5431 C 0.62497 0.04238 0.92061 0.0
C5432 C 0.62881 0.0479 0.90861 0.0
C5433 C 0.61722 0.03289 0.9433 0.0
C5434 C 0.62341 0.04415 0.94277 0.0
C5435 C 0.62745 0.04864 0.93149 0.0
C5436 C 0.62448 0.05207 0.95359 0.0
C5437 C 0.61252 0.02782 0.9552 0.0
C5438 C 0.61783 0.06293 0.95401 0.0
C5439 C 0.61834 0.07039 0.96428 0.0
C5440 C 0.62559 0.06714 0.97429 0.0
C5441 C 0.63234 0.05628 0.97383 0.0
C5442 C 0.6318 0.04879 0.96352 0.0
H5443 H 0.60658 0.01976 0.95382 0.0
H5444 H 0.62028 0.02504 0.961 0.0
H5445 H 0.60735 0.03491 0.96022 0.0
H5446 H 0.61211 0.06557 0.94642 0.0
H5447 H 0.61307 0.07872 0.96435 0.0
H5448 H 0.18303 0.40146 0.22299 0.0
H5449 H 0.19834 0.40236 0.20663 0.0
H5450 H 0.19448 0.36367 0.20091 0.0
H5451 H 0.17931 0.36269 0.21698 0.0
H5452 H 0.22011 0.37476 0.2022 0.0
H5453 H 0.18776 0.39567 0.16914 0.0
H5454 H 0.18945 0.40178 0.18433 0.0
H5455 H 0.18217 0.38734 0.18218 0.0
C5456 C 0.18559 0.39315 0.21832 0.0
C5457 C 0.17993 0.38202 0.22117 0.0
C5458 C 0.19428 0.39369 0.209 0.0
C5459 C 0.19744 0.38308 0.20259 0.0
C5460 C 0.19213 0.37194 0.20578 0.0
H5461 H 0.22857 0.34246 0.14871 0.0
H5462 H 0.22047 0.35261 0.16673 0.0
C5463 C 0.18343 0.37141 0.21493 0.0
C5464 C 0.20573 0.38331 0.19206 0.0
H5465 H 0.20479 0.38561 0.16106 0.0
C5466 C 0.21697 0.37747 0.19322 0.0
C5467 C 0.20159 0.38692 0.18042 0.0
C5468 C 0.18959 0.39329 0.17882 0.0
C5469 C 0.22374 0.37428 0.18291 0.0
C5470 C 0.219 0.37676 0.17119 0.0
C5471 C 0.20832 0.38361 0.17007 0.0
C5472 C 0.22402 0.37088 0.16018 0.0
C5473 C 0.23563 0.36772 0.18462 0.0
C5474 C 0.22828 0.37781 0.15033 0.0
C5475 C 0.23286 0.37202 0.13993 0.0
C5476 C 0.23312 0.35921 0.13923 0.0
C5477 C 0.22855 0.35233 0.149 0.0
C5478 C 0.22402 0.35812 0.15935 0.0
H5479 H 0.23988 0.37017 0.19348 0.0
H5480 H 0.23399 0.35774 0.18465 0.0
H5481 H 0.24207 0.36986 0.17714 0.0
H5482 H 0.22818 0.38768 0.15075 0.0
H5483 H 0.2363 0.37755 0.13252 0.0
H5484 H 0.88247 0.91966 0.46323 0.0
H5485 H 0.88257 0.93285 0.44536 0.0
H5486 H 0.85477 0.95527 0.46154 0.0
H5487 H 0.85473 0.9421 0.47968 0.0
H5488 H 0.86299 0.93858 0.42946 0.0
H5489 H 0.88217 0.9795 0.45269 0.0
H5490 H 0.88273 0.96456 0.45955 0.0
H5491 H 0.86869 0.97277 0.45899 0.0
C5492 C 0.87639 0.92741 0.46303 0.0
C5493 C 0.86863 0.92989 0.47287 0.0
C5494 C 0.87642 0.9349 0.45279 0.0
C5495 C 0.86871 0.94503 0.45216 0.0
C5496 C 0.86087 0.94755 0.46192 0.0
H5497 H 0.87349 0.98792 0.3836 0.0
H5498 H 0.86364 0.97815 0.40121 0.0
C5499 C 0.86086 0.94003 0.47225 0.0
C5500 C 0.86926 0.95294 0.44127 0.0
H5501 H 0.88096 0.97997 0.43136 0.0
C5502 C 0.86663 0.94775 0.42986 0.0
C5503 C 0.87405 0.96488 0.44188 0.0
C5504 C 0.87715 0.9708 0.4539 0.0
C5505 C 0.86935 0.95392 0.419 0.0
C5506 C 0.8748 0.96553 0.41963 0.0
C5507 C 0.87673 0.97105 0.431 0.0
C5508 C 0.88035 0.97118 0.40879 0.0
C5509 C 0.86723 0.94769 0.40693 0.0
C5510 C 0.89291 0.97034 0.40727 0.0
C5511 C 0.89852 0.97581 0.3973 0.0
C5512 C 0.89165 0.98228 0.38867 0.0
C5513 C 0.879 0.98297 0.3901 0.0
C5514 C 0.87337 0.97744 0.40013 0.0
H5515 H 0.86267 0.93873 0.408 0.0
H5516 H 0.86156 0.95358 0.40099 0.0
H5517 H 0.87602 0.94628 0.40222 0.0
H5518 H 0.8984 0.96549 0.41388 0.0
H5519 H 0.90827 0.9751 0.39647 0.0
H5520 H 0.81676 0.09448 0.22255 0.0
H5521 H 0.80135 0.09331 0.20628 0.0
H5522 H 0.80275 0.13238 0.2022 0.0
H5523 H 0.81804 0.13361 0.21816 0.0
H5524 H 0.77793 0.11988 0.20279 0.0
H5525 H 0.81157 0.10208 0.16922 0.0
H5526 H 0.8101 0.09519 0.18408 0.0
H5527 H 0.81657 0.1101 0.18268 0.0
C5528 C 0.8136 0.1028 0.21828 0.0
C5529 C 0.81863 0.11413 0.22151 0.0
C5530 C 0.80487 0.10211 0.209 0.0
C5531 C 0.80101 0.11276 0.20306 0.0
C5532 C 0.80564 0.12407 0.2067 0.0
H5533 H 0.76911 0.15345 0.14985 0.0
H5534 H 0.77777 0.14312 0.16752 0.0
C5535 C 0.8144 0.12475 0.21579 0.0
C5536 C 0.79278 0.11245 0.19247 0.0
H5537 H 0.79396 0.11127 0.16139 0.0
C5538 C 0.78125 0.11764 0.19375 0.0
C5539 C 0.79717 0.10949 0.18072 0.0
C5540 C 0.80953 0.1039 0.17897 0.0
C5541 C 0.77436 0.12083 0.1835 0.0
C5542 C 0.77926 0.11896 0.17174 0.0
C5543 C 0.7903 0.11276 0.17045 0.0
C5544 C 0.77395 0.12493 0.16092 0.0
C5545 C 0.76218 0.12679 0.18532 0.0
C5546 C 0.76926 0.11808 0.15121 0.0
C5547 C 0.76428 0.12398 0.14106 0.0
C5548 C 0.7641 0.1368 0.14044 0.0
C5549 C 0.7691 0.14358 0.15006 0.0
C5550 C 0.77397 0.13769 0.16021 0.0
H5551 H 0.75817 0.12427 0.19427 0.0
H5552 H 0.76331 0.13684 0.18513 0.0
H5553 H 0.75578 0.12418 0.17796 0.0
H5554 H 0.76932 0.10822 0.15157 0.0
H5555 H 0.76052 0.11852 0.13376 0.0
H5556 H 0.38636 0.5778 0.53038 0.0
H5557 H 0.38786 0.5657 0.54897 0.0
H5558 H 0.35674 0.54461 0.53793 0.0
H5559 H 0.35537 0.55653 0.51905 0.0
H5560 H 0.37093 0.5635 0.56714 0.0
H5561 H 0.38134 0.5183 0.54652 0.0
H5562 H 0.38223 0.5323 0.53792 0.0
H5563 H 0.36775 0.5256 0.54123 0.0
C5564 C 0.37989 0.57052 0.53185 0.0
C5565 C 0.37077 0.56808 0.52327 0.0
C5566 C 0.38074 0.56364 0.54249 0.0
C5567 C 0.37246 0.55422 0.54479 0.0
C5568 C 0.36334 0.55171 0.53623 0.0
H5569 H 0.37532 0.50912 0.61148 0.0
H5570 H 0.36672 0.51969 0.59369 0.0
C5571 C 0.36255 0.55855 0.52548 0.0
C5572 C 0.37342 0.5473 0.55632 0.0
H5573 H 0.38065 0.51936 0.56794 0.0
C5574 C 0.3729 0.55382 0.56733 0.0
C5575 C 0.37595 0.53465 0.55651 0.0
C5576 C 0.37695 0.52728 0.54493 0.0
C5577 C 0.37535 0.54813 0.57849 0.0
C5578 C 0.37835 0.53564 0.57862 0.0
C5579 C 0.37827 0.52895 0.56773 0.0
C5580 C 0.38308 0.52977 0.58971 0.0
C5581 C 0.37518 0.55556 0.59006 0.0
C5582 C 0.39506 0.53204 0.59326 0.0
C5583 C 0.4 0.52599 0.60326 0.0
C5584 C 0.39301 0.51762 0.60992 0.0
C5585 C 0.38089 0.51558 0.60653 0.0
C5586 C 0.37598 0.52155 0.59639 0.0
H5587 H 0.37057 0.56447 0.58877 0.0
H5588 H 0.37055 0.55047 0.59748 0.0
H5589 H 0.38464 0.55731 0.59304 0.0
H5590 H 0.40065 0.53834 0.58812 0.0
H5591 H 0.40935 0.52778 0.60568 0.0
H5592 H 0.23449 0.61927 0.36476 0.0
H5593 H 0.22431 0.60879 0.34782 0.0
H5594 H 0.21759 0.6434 0.33046 0.0
H5595 H 0.22759 0.65393 0.3473 0.0
H5596 H 0.19909 0.61406 0.33938 0.0
H5597 H 0.23411 0.62093 0.30378 0.0
H5598 H 0.23749 0.62114 0.31993 0.0
H5599 H 0.23093 0.63429 0.31272 0.0
C5600 C 0.23085 0.62463 0.35732 0.0
C5601 C 0.23183 0.63742 0.35734 0.0
C5602 C 0.22508 0.61863 0.34766 0.0
C5603 C 0.22042 0.62533 0.33784 0.0
C5604 C 0.22134 0.63808 0.33788 0.0
H5605 H 0.16681 0.62994 0.28768 0.0
H5606 H 0.18111 0.62895 0.30449 0.0
C5607 C 0.22697 0.64408 0.34755 0.0
C5608 C 0.21394 0.61926 0.32776 0.0
H5609 H 0.21372 0.61745 0.2967 0.0
C5610 C 0.2024 0.61446 0.33008 0.0
C5611 C 0.21837 0.61966 0.31567 0.0
C5612 C 0.23096 0.62418 0.31284 0.0
C5613 C 0.19473 0.61108 0.32046 0.0
C5614 C 0.19873 0.61262 0.30831 0.0
C5615 C 0.21067 0.61635 0.30605 0.0
C5616 C 0.19005 0.61262 0.29809 0.0
C5617 C 0.18213 0.60661 0.32332 0.0
C5618 C 0.19053 0.60386 0.28877 0.0
C5619 C 0.18228 0.60437 0.27905 0.0
C5620 C 0.17361 0.61376 0.27851 0.0
C5621 C 0.17333 0.62256 0.28782 0.0
C5622 C 0.18146 0.62199 0.29748 0.0
H5623 H 0.18161 0.60265 0.33263 0.0
H5624 H 0.17572 0.61439 0.32286 0.0
H5625 H 0.17916 0.59964 0.3166 0.0
H5626 H 0.19722 0.59664 0.28906 0.0
H5627 H 0.1827 0.59749 0.27198 0.0
H5628 H 0.2782 0.34282 0.85302 0.0
H5629 H 0.28879 0.35365 0.83672 0.0
H5630 H 0.27122 0.38716 0.84718 0.0
H5631 H 0.26061 0.3764 0.86364 0.0
H5632 H 0.26964 0.37968 0.82105 0.0
H5633 H 0.31646 0.38009 0.83949 0.0
H5634 H 0.30887 0.36564 0.84071 0.0
H5635 H 0.30323 0.37853 0.84909 0.0
C5636 C 0.27668 0.35251 0.85195 0.0
C5637 C 0.26858 0.35876 0.8596 0.0
C5638 C 0.28277 0.35869 0.84268 0.0
C5639 C 0.28085 0.3712 0.84086 0.0
C5640 C 0.27286 0.37751 0.84853 0.0
H5641 H 0.32234 0.40324 0.77968 0.0
H5642 H 0.30949 0.40397 0.79808 0.0
C5643 C 0.26684 0.37136 0.85791 0.0
C5644 C 0.28664 0.37735 0.83041 0.0
H5645 H 0.31438 0.38265 0.81782 0.0
C5646 C 0.2794 0.38065 0.82042 0.0
C5647 C 0.29935 0.37868 0.82971 0.0
C5648 C 0.30745 0.37566 0.84036 0.0
C5649 C 0.28466 0.38431 0.80936 0.0
C5650 C 0.2974 0.38472 0.80839 0.0
C5651 C 0.30459 0.38235 0.81866 0.0
C5652 C 0.30345 0.38528 0.79642 0.0
C5653 C 0.27667 0.38703 0.79856 0.0
C5654 C 0.3041 0.37461 0.78945 0.0
C5655 C 0.31154 0.37411 0.77921 0.0
C5656 C 0.31826 0.38435 0.77567 0.0
C5657 C 0.31707 0.3953 0.7822 0.0
C5658 C 0.30981 0.39571 0.79268 0.0
H5659 H 0.26714 0.38875 0.80135 0.0
H5660 H 0.28012 0.39508 0.79349 0.0
H5661 H 0.27679 0.37912 0.79225 0.0
H5662 H 0.29933 0.36645 0.7923 0.0
H5663 H 0.31237 0.36558 0.77429 0.0
H5664 H 0.89797 0.91149 0.52024 0.0
H5665 H 0.91599 0.90322 0.53012 0.0
H5666 H 0.90506 0.86681 0.5202 0.0
H5667 H 0.88688 0.87503 0.51025 0.0
H5668 H 0.91262 0.86989 0.54517 0.0
H5669 H 0.94591 0.88872 0.51236 0.0
H5670 H 0.93529 0.89985 0.51783 0.0
H5671 H 0.92999 0.88721 0.50884 0.0
C5672 C 0.89937 0.90172 0.52015 0.0
C5673 C 0.89104 0.89391 0.51442 0.0
C5674 C 0.90971 0.89702 0.52573 0.0
C5675 C 0.91194 0.88445 0.52567 0.0
C5676 C 0.90353 0.87656 0.52021 0.0
H5677 H 0.98224 0.8594 0.55423 0.0
H5678 H 0.96438 0.86097 0.54096 0.0
C5679 C 0.89317 0.88127 0.51456 0.0
C5680 C 0.92293 0.87965 0.53166 0.0
H5681 H 0.95369 0.88269 0.53191 0.0
C5682 C 0.92162 0.8725 0.54217 0.0
C5683 C 0.93465 0.8829 0.52759 0.0
C5684 C 0.93659 0.88999 0.51597 0.0
C5685 C 0.93172 0.86917 0.54919 0.0
C5686 C 0.94335 0.87324 0.54562 0.0
C5687 C 0.94474 0.8797 0.53468 0.0
C5688 C 0.954 0.87186 0.55367 0.0
C5689 C 0.92984 0.86159 0.56051 0.0
C5690 C 0.95411 0.87765 0.56506 0.0
C5691 C 0.96426 0.87685 0.57258 0.0
C5692 C 0.97452 0.87027 0.56882 0.0
C5693 C 0.97445 0.86453 0.55736 0.0
C5694 C 0.96427 0.86538 0.54979 0.0
H5695 H 0.92132 0.85622 0.55997 0.0
H5696 H 0.93754 0.85524 0.56199 0.0
H5697 H 0.92918 0.86771 0.56854 0.0
H5698 H 0.94637 0.88292 0.56809 0.0
H5699 H 0.96404 0.88139 0.58135 0.0
H5700 H 0.88881 0.22773 0.30855 0.0
H5701 H 0.88306 0.21009 0.29607 0.0
H5702 H 0.85472 0.20124 0.32165 0.0
H5703 H 0.86037 0.21878 0.33416 0.0
H5704 H 0.88121 0.18422 0.3049 0.0
H5705 H 0.83814 0.20368 0.28699 0.0
H5706 H 0.8502 0.2131 0.29294 0.0
H5707 H 0.84062 0.20475 0.30318 0.0
C5708 C 0.88135 0.22203 0.31149 0.0
C5709 C 0.875 0.22464 0.32228 0.0
C5710 C 0.8781 0.21198 0.30438 0.0
C5711 C 0.86841 0.20452 0.30792 0.0
C5712 C 0.86214 0.20703 0.31873 0.0
H5713 H 0.83377 0.1421 0.27326 0.0
H5714 H 0.83896 0.15883 0.28717 0.0
C5715 C 0.86541 0.21701 0.32587 0.0
C5716 C 0.86491 0.19398 0.30039 0.0
H5717 H 0.84254 0.18327 0.28181 0.0
C5718 C 0.87278 0.18398 0.29982 0.0
C5719 C 0.85384 0.19374 0.29394 0.0
C5720 C 0.8452 0.2044 0.29417 0.0
C5721 C 0.86984 0.17364 0.29293 0.0
C5722 C 0.85888 0.17349 0.28625 0.0
C5723 C 0.85093 0.18344 0.28696 0.0
C5724 C 0.85575 0.16332 0.27801 0.0
C5725 C 0.87841 0.16292 0.29301 0.0
C5726 C 0.86338 0.1605 0.26819 0.0
C5727 C 0.86047 0.15098 0.26032 0.0
C5728 C 0.84981 0.14421 0.26204 0.0
C5729 C 0.84205 0.14716 0.27175 0.0
C5730 C 0.84501 0.15669 0.27969 0.0
H5731 H 0.88428 0.16296 0.30124 0.0
H5732 H 0.87339 0.15415 0.29269 0.0
H5733 H 0.88438 0.16343 0.28489 0.0
H5734 H 0.87155 0.16572 0.26657 0.0
H5735 H 0.86657 0.14898 0.25284 0.0
H5736 H 0.51472 0.13753 0.05756 0.0
H5737 H 0.53255 0.13541 0.04435 0.0
H5738 H 0.54928 0.11188 0.07098 0.0
H5739 H 0.53163 0.114 0.08422 0.0
H5740 H 0.56462 0.1309 0.06155 0.0
H5741 H 0.54159 0.10391 0.02526 0.0
H5742 H 0.53473 0.11814 0.0296 0.0
H5743 H 0.53517 0.10576 0.04029 0.0
C5744 C 0.52219 0.13188 0.06056 0.0
C5745 C 0.52177 0.12588 0.07189 0.0
C5746 C 0.53234 0.13068 0.05301 0.0
C5747 C 0.54217 0.12344 0.05669 0.0
C5748 C 0.54178 0.11752 0.06801 0.0
H5749 H 0.59946 0.08492 0.02393 0.0
H5750 H 0.58173 0.09296 0.0345 0.0
C5751 C 0.53166 0.1187 0.07553 0.0
C5752 C 0.55288 0.12179 0.04879 0.0
H5753 H 0.56249 0.10724 0.02305 0.0
C5754 C 0.56417 0.12588 0.05304 0.0
C5755 C 0.5522 0.1152 0.03774 0.0
C5756 C 0.54031 0.11041 0.03292 0.0
C5757 C 0.57489 0.12317 0.04671 0.0
C5758 C 0.57423 0.11627 0.03586 0.0
C5759 C 0.56291 0.11256 0.03138 0.0
C5760 C 0.58522 0.11175 0.02966 0.0
C5761 C 0.58688 0.12718 0.05195 0.0
C5762 C 0.59308 0.1197 0.02351 0.0
C5763 C 0.60327 0.11513 0.01744 0.0
C5764 C 0.6057 0.10254 0.01745 0.0
C5765 C 0.59786 0.09466 0.02376 0.0
C5766 C 0.5877 0.09922 0.02977 0.0
H5767 H 0.58591 0.13116 0.06122 0.0
H5768 H 0.59324 0.11934 0.05242 0.0
H5769 H 0.59099 0.13416 0.0459 0.0
H5770 H 0.59123 0.12939 0.02326 0.0
H5771 H 0.60913 0.12141 0.01262 0.0
H5772 H 0.60972 0.76634 0.80516 0.0
H5773 H 0.6153 0.78367 0.79217 0.0
H5774 H 0.64452 0.79263 0.81669 0.0
H5775 H 0.63901 0.77543 0.82973 0.0
H5776 H 0.61746 0.8096 0.80184 0.0
H5777 H 0.65949 0.79082 0.7809 0.0
H5778 H 0.64765 0.78115 0.78691 0.0
H5779 H 0.65761 0.78906 0.79712 0.0
C5780 C 0.61738 0.77196 0.80773 0.0
C5781 C 0.62394 0.76956 0.81844 0.0
C5782 C 0.62054 0.78183 0.80032 0.0
C5783 C 0.63038 0.78928 0.80346 0.0
C5784 C 0.63699 0.78685 0.81408 0.0
H5785 H 0.66251 0.85317 0.7689 0.0
H5786 H 0.65858 0.83554 0.78214 0.0
C5787 C 0.63379 0.77707 0.82153 0.0
C5788 C 0.63341 0.79998 0.79597 0.0
H5789 H 0.65459 0.81128 0.77636 0.0
C5790 C 0.62555 0.80999 0.79623 0.0
C5791 C 0.64407 0.80043 0.78887 0.0
C5792 C 0.6527 0.78979 0.78832 0.0
C5793 C 0.62808 0.82055 0.78953 0.0
C5794 C 0.63859 0.82092 0.78213 0.0
C5795 C 0.64654 0.81094 0.78202 0.0
C5796 C 0.64116 0.83138 0.77407 0.0
C5797 C 0.61959 0.83129 0.79059 0.0
C5798 C 0.6328 0.83464 0.76503 0.0
C5799 C 0.63496 0.84469 0.75759 0.0
C5800 C 0.64563 0.85153 0.75892 0.0
C5801 C 0.6542 0.84805 0.76772 0.0
C5802 C 0.65197 0.83802 0.77526 0.0
H5803 H 0.61433 0.83099 0.79923 0.0
H5804 H 0.6246 0.84006 0.79018 0.0
H5805 H 0.61303 0.83105 0.78292 0.0
H5806 H 0.62456 0.82943 0.76375 0.0
H5807 H 0.62826 0.84707 0.75078 0.0
H5808 H 0.88704 0.12253 0.98373 0.0
H5809 H 0.90529 0.13006 0.97332 0.0
H5810 H 0.9126 0.09381 0.96003 0.0
H5811 H 0.89453 0.08623 0.97034 0.0
H5812 H 0.93244 0.10639 0.97304 0.0
H5813 H 0.91166 0.13334 0.93533 0.0
H5814 H 0.90617 0.13557 0.95065 0.0
H5815 H 0.90346 0.12136 0.94306 0.0
C5816 C 0.89246 0.11622 0.97845 0.0
C5817 C 0.88938 0.10379 0.97788 0.0
C5818 C 0.90286 0.12053 0.97253 0.0
C5819 C 0.91024 0.11247 0.96595 0.0
C5820 C 0.907 0.10015 0.96512 0.0
H5821 H 0.96504 0.11174 0.91303 0.0
H5822 H 0.9471 0.1107 0.92598 0.0
C5823 C 0.89666 0.09585 0.97099 0.0
C5824 C 0.92166 0.11657 0.96025 0.0
H5825 H 0.93286 0.13122 0.93523 0.0
C5826 C 0.9326 0.11199 0.96489 0.0
C5827 C 0.92173 0.12384 0.94963 0.0
C5828 C 0.91016 0.12882 0.94427 0.0
C5829 C 0.94362 0.11409 0.95888 0.0
C5830 C 0.94364 0.12098 0.948 0.0
C5831 C 0.93276 0.12597 0.94362 0.0
C5832 C 0.9546 0.12194 0.94032 0.0
C5833 C 0.95505 0.10838 0.96381 0.0
C5834 C 0.96477 0.12859 0.94415 0.0
C5835 C 0.9751 0.12918 0.93676 0.0
C5836 C 0.97536 0.12312 0.92546 0.0
C5837 C 0.96515 0.11647 0.92171 0.0
C5838 C 0.95486 0.11591 0.92905 0.0
H5839 H 0.9532 0.10204 0.97149 0.0
H5840 H 0.95983 0.1033 0.95649 0.0
H5841 H 0.96121 0.11565 0.96712 0.0
H5842 H 0.96468 0.13336 0.9528 0.0
H5843 H 0.98282 0.13444 0.93985 0.0
H5844 H 0.62709 0.14918 0.74251 0.0
H5845 H 0.62316 0.16678 0.72945 0.0
H5846 H 0.65796 0.16207 0.71222 0.0
H5847 H 0.66204 0.14438 0.72532 0.0
H5848 H 0.63941 0.18863 0.72743 0.0
H5849 H 0.63149 0.16342 0.68404 0.0
H5850 H 0.62998 0.15626 0.6988 0.0
H5851 H 0.64474 0.15949 0.69278 0.0
C5852 C 0.63391 0.15185 0.73592 0.0
C5853 C 0.64487 0.14542 0.73491 0.0
C5854 C 0.63164 0.16191 0.7285 0.0
C5855 C 0.64025 0.16562 0.71989 0.0
C5856 C 0.65119 0.15922 0.71879 0.0
H5857 H 0.63859 0.22195 0.66485 0.0
H5858 H 0.6439 0.20486 0.67806 0.0
C5859 C 0.65351 0.14917 0.72627 0.0
C5860 C 0.63777 0.17635 0.71222 0.0
H5861 H 0.6306 0.18485 0.68322 0.0
C5862 C 0.6375 0.18786 0.71776 0.0
C5863 C 0.63533 0.1752 0.69964 0.0
C5864 C 0.63531 0.16294 0.6934 0.0
C5865 C 0.63493 0.19837 0.71097 0.0
C5866 C 0.63226 0.19722 0.6984 0.0
C5867 C 0.63262 0.18568 0.69287 0.0
C5868 C 0.62918 0.20787 0.69075 0.0
C5869 C 0.63533 0.2106 0.71726 0.0
C5870 C 0.61911 0.21519 0.6935 0.0
C5871 C 0.61612 0.22505 0.68602 0.0
C5872 C 0.62306 0.22759 0.67559 0.0
C5873 C 0.63308 0.22019 0.67283 0.0
C5874 C 0.63612 0.21043 0.68035 0.0
H5875 H 0.64079 0.21024 0.72577 0.0
H5876 H 0.63919 0.21771 0.71119 0.0
H5877 H 0.62598 0.21336 0.71977 0.0
H5878 H 0.61347 0.21318 0.70132 0.0
H5879 H 0.60829 0.23056 0.68829 0.0
H5880 H 0.5146 0.86896 0.44166 0.0
H5881 H 0.53254 0.87295 0.45428 0.0
H5882 H 0.55418 0.87698 0.42175 0.0
H5883 H 0.53623 0.87367 0.40918 0.0
H5884 H 0.55407 0.86253 0.45727 0.0
H5885 H 0.56084 0.9087 0.4381 0.0
H5886 H 0.54748 0.89981 0.43497 0.0
H5887 H 0.56123 0.89722 0.42649 0.0
C5888 C 0.5232 0.87072 0.43725 0.0
C5889 C 0.52402 0.87128 0.42449 0.0
C5890 C 0.53344 0.87296 0.44444 0.0
C5891 C 0.54464 0.8756 0.43895 0.0
C5892 C 0.54556 0.87541 0.42619 0.0
H5893 H 0.61411 0.8783 0.47768 0.0
H5894 H 0.59651 0.87156 0.46578 0.0
C5895 C 0.53531 0.87346 0.41902 0.0
C5896 C 0.55528 0.87891 0.44651 0.0
H5897 H 0.57688 0.90082 0.45018 0.0
C5898 C 0.55903 0.87093 0.45579 0.0
C5899 C 0.56162 0.88998 0.4447 0.0
C5900 C 0.55751 0.89947 0.43562 0.0
C5901 C 0.56902 0.87368 0.46325 0.0
C5902 C 0.57566 0.88451 0.46107 0.0
C5903 C 0.57187 0.89246 0.4518 0.0
C5904 C 0.58625 0.88818 0.46857 0.0
C5905 C 0.57208 0.86514 0.47359 0.0
C5906 C 0.58652 0.89986 0.4738 0.0
C5907 C 0.59667 0.90383 0.48021 0.0
C5908 C 0.60671 0.89613 0.48173 0.0
C5909 C 0.60643 0.88436 0.4767 0.0
C5910 C 0.59634 0.88048 0.47001 0.0
H5911 H 0.56415 0.8595 0.47626 0.0
H5912 H 0.57939 0.85885 0.47062 0.0
H5913 H 0.57529 0.87022 0.48173 0.0
H5914 H 0.57887 0.90598 0.47284 0.0
H5915 H 0.59661 0.91292 0.48407 0.0
H5916 H 0.83042 0.84504 0.23969 0.0
H5917 H 0.83428 0.82557 0.22939 0.0
H5918 H 0.86988 0.83825 0.21911 0.0
H5919 H 0.86635 0.85725 0.23006 0.0
H5920 H 0.83827 0.81929 0.20744 0.0
H5921 H 0.87911 0.80661 0.23334 0.0
H5922 H 0.8697 0.8193 0.23774 0.0
H5923 H 0.88143 0.82119 0.22642 0.0
C5924 C 0.83906 0.8436 0.23523 0.0
C5925 C 0.84815 0.85253 0.23574 0.0
C5926 C 0.84128 0.83249 0.22939 0.0
C5927 C 0.85253 0.83028 0.22382 0.0
C5928 C 0.86135 0.8395 0.22381 0.0
H5929 H 0.86725 0.78335 0.16414 0.0
H5930 H 0.86101 0.79917 0.1784 0.0
C5931 C 0.85927 0.85043 0.22992 0.0
C5932 C 0.85498 0.81853 0.21761 0.0
H5933 H 0.87691 0.79701 0.21353 0.0
C5934 C 0.84663 0.81431 0.20893 0.0
C5935 C 0.86569 0.81175 0.2198 0.0
C5936 C 0.87439 0.81489 0.22995 0.0
C5937 C 0.84904 0.80394 0.20188 0.0
C5938 C 0.86035 0.79798 0.20314 0.0
C5939 C 0.86836 0.80174 0.21234 0.0
C5940 C 0.86434 0.78833 0.19459 0.0
C5941 C 0.8394 0.79951 0.19318 0.0
C5942 C 0.86899 0.77722 0.19894 0.0
C5943 C 0.87296 0.76829 0.19076 0.0
C5944 C 0.87218 0.77032 0.17815 0.0
C5945 C 0.86775 0.7815 0.17383 0.0
C5946 C 0.86405 0.79049 0.18198 0.0
H5947 H 0.8302 0.80176 0.19662 0.0
H5948 H 0.84052 0.80417 0.18427 0.0
H5949 H 0.83995 0.78951 0.19173 0.0
H5950 H 0.86944 0.77542 0.20864 0.0
H5951 H 0.87637 0.75973 0.19428 0.0
H5952 H 0.55473 0.97737 0.85903 0.0
H5953 H 0.5419 0.95922 0.86134 0.0
H5954 H 0.56912 0.94262 0.88416 0.0
H5955 H 0.58196 0.96057 0.88187 0.0
H5956 H 0.55936 0.92726 0.86506 0.0
H5957 H 0.52412 0.94979 0.8937 0.0
H5958 H 0.52802 0.95686 0.87941 0.0
H5959 H 0.53896 0.95636 0.8915 0.0
C5960 C 0.55795 0.96984 0.86454 0.0
C5961 C 0.5693 0.97038 0.87032 0.0
C5962 C 0.55062 0.95952 0.86586 0.0
C5963 C 0.55458 0.94966 0.87297 0.0
C5964 C 0.56595 0.95016 0.87862 0.0
H5965 H 0.52425 0.89174 0.91293 0.0
H5966 H 0.53395 0.90991 0.90455 0.0
C5967 C 0.57324 0.96043 0.87733 0.0
C5968 C 0.54692 0.93881 0.87482 0.0
H5969 H 0.52235 0.92868 0.8907 0.0
C5970 C 0.55115 0.92755 0.87051 0.0
C5971 C 0.5363 0.93931 0.88198 0.0
C5972 C 0.53155 0.95119 0.88701 0.0
C5973 C 0.54527 0.91665 0.87358 0.0
C5974 C 0.53486 0.91711 0.88105 0.0
C5975 C 0.53035 0.92842 0.88496 0.0
C5976 C 0.52913 0.90594 0.88584 0.0
C5977 C 0.55056 0.90469 0.86933 0.0
C5978 C 0.52328 0.8977 0.87804 0.0
C5979 C 0.51778 0.88725 0.88279 0.0
C5980 C 0.518 0.88498 0.89542 0.0
C5981 C 0.52395 0.89323 0.90317 0.0
C5982 C 0.52944 0.90363 0.89841 0.0
H5983 H 0.55973 0.90584 0.8653 0.0
H5984 H 0.55117 0.89815 0.87704 0.0
H5985 H 0.54456 0.90065 0.86229 0.0
H5986 H 0.52284 0.89943 0.86833 0.0
H5987 H 0.5132 0.88109 0.87662 0.0
H5988 H 0.85093 0.77244 0.66134 0.0
H5989 H 0.83295 0.7827 0.6535 0.0
H5990 H 0.84357 0.7739 0.6167 0.0
H5991 H 0.86172 0.76353 0.62448 0.0
H5992 H 0.83585 0.79895 0.62086 0.0
H5993 H 0.8031 0.76492 0.63845 0.0
H5994 H 0.81383 0.76996 0.64968 0.0
H5995 H 0.81903 0.76165 0.63655 0.0
C5996 C 0.84949 0.77269 0.65157 0.0
C5997 C 0.85771 0.76712 0.64352 0.0
C5998 C 0.83917 0.7785 0.64712 0.0
C5999 C 0.83686 0.77884 0.63456 0.0
C6000 C 0.84518 0.7736 0.62644 0.0
H6001 H 0.76598 0.80705 0.61119 0.0
H6002 H 0.78406 0.79409 0.61231 0.0
C6003 C 0.85553 0.76771 0.6309 0.0
C6004 C 0.82577 0.78489 0.63006 0.0
H6005 H 0.79504 0.78457 0.6333 0.0
C6006 C 0.8269 0.79573 0.62339 0.0
C6007 C 0.81413 0.78052 0.6332 0.0
C6008 C 0.8124 0.76855 0.63976 0.0
C6009 C 0.81668 0.80274 0.62044 0.0
C6010 C 0.80513 0.79884 0.62443 0.0
C6011 C 0.80393 0.7876 0.6304 0.0
C6012 C 0.79432 0.80673 0.62338 0.0
C6013 C 0.81836 0.81438 0.61331 0.0
C6014 C 0.79406 0.81798 0.62944 0.0
C6015 C 0.78378 0.82534 0.62889 0.0
C6016 C 0.77354 0.82155 0.6223 0.0
C6017 C 0.77375 0.8102 0.61634 0.0
C6018 C 0.78406 0.80282 0.61693 0.0
H6019 H 0.82683 0.81415 0.60783 0.0
H6020 H 0.81058 0.81604 0.60711 0.0
H6021 H 0.81902 0.82215 0.61976 0.0
H6022 H 0.80179 0.82103 0.63472 0.0
H6023 H 0.78387 0.83402 0.6336 0.0
H6024 H 0.91668 0.03471 0.38198 0.0
H6025 H 0.92967 0.05262 0.38349 0.0
H6026 H 0.95702 0.03457 0.36196 0.0
H6027 H 0.94404 0.01646 0.36046 0.0
H6028 H 0.9659 0.04569 0.38319 0.0
H6029 H 0.93739 0.07761 0.3567 0.0
H6030 H 0.92894 0.06982 0.36831 0.0
H6031 H 0.93552 0.06126 0.35597 0.0
C6032 C 0.92544 0.03454 0.37754 0.0
C6033 C 0.92935 0.02421 0.37108 0.0
C6034 C 0.93281 0.04482 0.37832 0.0
C6035 C 0.94417 0.04499 0.37261 0.0
C6036 C 0.9482 0.03463 0.3663 0.0
H6037 H 0.98395 0.11442 0.37634 0.0
H6038 H 0.97508 0.09576 0.36781 0.0
C6039 C 0.94081 0.02432 0.36548 0.0
C6040 C 0.95198 0.05583 0.37388 0.0
H6041 H 0.95166 0.08674 0.37069 0.0
C6042 C 0.96293 0.05465 0.38026 0.0
C6043 C 0.94818 0.06745 0.36982 0.0
C6044 C 0.93693 0.06911 0.3622 0.0
C6045 C 0.96974 0.06493 0.38347 0.0
C6046 C 0.96536 0.07664 0.38038 0.0
C6047 C 0.95489 0.07775 0.37322 0.0
C6048 C 0.97089 0.08783 0.38538 0.0
C6049 C 0.98142 0.06319 0.39042 0.0
C6050 C 0.97118 0.08961 0.39803 0.0
C6051 C 0.97617 0.10021 0.40291 0.0
C6052 C 0.98089 0.10926 0.3952 0.0
C6053 C 0.98038 0.10758 0.38249 0.0
C6054 C 0.97537 0.09694 0.37761 0.0
H6055 H 0.98541 0.05407 0.38862 0.0
H6056 H 0.98817 0.07029 0.38798 0.0
H6057 H 0.97955 0.06384 0.40034 0.0
H6058 H 0.96747 0.08282 0.40416 0.0
H6059 H 0.97638 0.10126 0.41273 0.0
H6060 H 0.63825 0.23748 0.12353 0.0
H6061 H 0.65616 0.22657 0.11594 0.0
H6062 H 0.66431 0.21467 0.15252 0.0
H6063 H 0.64658 0.2255 0.16016 0.0
H6064 H 0.68427 0.22559 0.13908 0.0
H6065 H 0.66049 0.18862 0.11371 0.0
H6066 H 0.65604 0.20413 0.11072 0.0
H6067 H 0.65303 0.19751 0.12536 0.0
C6068 C 0.64383 0.23247 0.12993 0.0
C6069 C 0.64101 0.23233 0.14244 0.0
C6070 C 0.65403 0.22624 0.12558 0.0
C6071 C 0.6615 0.21981 0.13368 0.0
C6072 C 0.65865 0.21961 0.14614 0.0
H6073 H 0.71333 0.16365 0.13272 0.0
H6074 H 0.69605 0.17743 0.13426 0.0
C6075 C 0.64849 0.22578 0.15047 0.0
C6076 C 0.67245 0.21335 0.1294 0.0
H6077 H 0.68173 0.18759 0.11468 0.0
C6078 C 0.68377 0.21738 0.13359 0.0
C6079 C 0.67168 0.20264 0.12229 0.0
C6080 C 0.65968 0.19787 0.11777 0.0
C6081 C 0.69436 0.21071 0.13122 0.0
C6082 C 0.69355 0.1998 0.12442 0.0
C6083 C 0.68228 0.196 0.11985 0.0
C6084 C 0.70404 0.19154 0.12307 0.0
C6085 C 0.70622 0.21503 0.13653 0.0
C6086 C 0.71424 0.19492 0.11622 0.0
C6087 C 0.72419 0.18705 0.11534 0.0
C6088 C 0.72403 0.1757 0.12129 0.0
C6089 C 0.71375 0.17235 0.12807 0.0
C6090 C 0.70385 0.18018 0.12892 0.0
H6091 H 0.70497 0.22268 0.14304 0.0
H6092 H 0.71089 0.20743 0.14131 0.0
H6093 H 0.71222 0.21818 0.12905 0.0
H6094 H 0.71449 0.20362 0.11154 0.0
H6095 H 0.73196 0.18984 0.11 0.0
H6096 H 0.58549 0.03807 0.62882 0.0
H6097 H 0.57421 0.05699 0.62585 0.0
H6098 H 0.54071 0.03665 0.6253 0.0
H6099 H 0.55198 0.01778 0.62903 0.0
H6100 H 0.56211 0.06316 0.60715 0.0
H6101 H 0.53048 0.06422 0.64618 0.0
H6102 H 0.54299 0.05366 0.64544 0.0
H6103 H 0.52893 0.0503 0.63777 0.0
C6104 C 0.5757 0.03769 0.62824 0.0
C6105 C 0.56956 0.02653 0.62909 0.0
C6106 C 0.56926 0.04849 0.62657 0.0
C6107 C 0.55658 0.04829 0.62548 0.0
C6108 C 0.55043 0.03711 0.62647 0.0
H6109 H 0.51635 0.10079 0.58369 0.0
H6110 H 0.52771 0.08336 0.59147 0.0
C6111 C 0.55687 0.02632 0.62847 0.0
C6112 C 0.55001 0.05961 0.62218 0.0
H6113 H 0.52535 0.07706 0.6291 0.0
C6114 C 0.55417 0.06627 0.61207 0.0
C6115 C 0.53974 0.0638 0.62868 0.0
C6116 C 0.53536 0.05768 0.6402 0.0
C6117 C 0.5482 0.0768 0.60811 0.0
C6118 C 0.53746 0.08049 0.61408 0.0
C6119 C 0.53348 0.07408 0.62441 0.0
C6120 C 0.53014 0.09086 0.60958 0.0
C6121 C 0.5536 0.08392 0.59764 0.0
C6122 C 0.52726 0.10062 0.61733 0.0
C6123 C 0.52053 0.11049 0.61297 0.0
C6124 C 0.51666 0.11076 0.60076 0.0
C6125 C 0.51938 0.10089 0.59309 0.0
C6126 C 0.52592 0.09097 0.5975 0.0
H6127 H 0.56353 0.08239 0.59694 0.0
H6128 H 0.54944 0.08082 0.58897 0.0
H6129 H 0.55194 0.09385 0.59866 0.0
H6130 H 0.53035 0.10067 0.62671 0.0
H6131 H 0.51852 0.11797 0.61909 0.0
H6132 H 0.64592 0.77145 0.33539 0.0
H6133 H 0.66367 0.78175 0.34374 0.0
H6134 H 0.65244 0.77222 0.38018 0.0
H6135 H 0.63455 0.76183 0.37188 0.0
H6136 H 0.66009 0.79738 0.37661 0.0
H6137 H 0.69331 0.76378 0.35904 0.0
H6138 H 0.68277 0.76905 0.34772 0.0
H6139 H 0.67735 0.76042 0.36055 0.0
C6140 C 0.64718 0.77156 0.34519 0.0
C6141 C 0.63888 0.76577 0.35298 0.0
C6142 C 0.65736 0.77739 0.34993 0.0
C6143 C 0.65944 0.77753 0.36254 0.0
C6144 C 0.65101 0.77209 0.37041 0.0
H6145 H 0.72966 0.8053 0.38837 0.0
H6146 H 0.71156 0.79241 0.38666 0.0
C6147 C 0.64081 0.76618 0.36566 0.0
C6148 C 0.67041 0.78352 0.36736 0.0
H6149 H 0.70122 0.78325 0.36495 0.0
C6150 C 0.6691 0.79421 0.37425 0.0
C6151 C 0.68213 0.77922 0.36444 0.0
C6152 C 0.68402 0.76742 0.35763 0.0
C6153 C 0.67924 0.80114 0.37763 0.0
C6154 C 0.69089 0.79731 0.37389 0.0
C6155 C 0.69224 0.78622 0.36769 0.0
C6156 C 0.70166 0.80517 0.37539 0.0
C6157 C 0.67738 0.81264 0.38494 0.0
C6158 C 0.70212 0.81647 0.36943 0.0
C6159 C 0.71241 0.82377 0.37032 0.0
C6160 C 0.72246 0.81989 0.37714 0.0
C6161 C 0.72203 0.80852 0.38305 0.0
C6162 C 0.71171 0.80118 0.38212 0.0
H6163 H 0.66873 0.81235 0.39013 0.0
H6164 H 0.68496 0.81412 0.39143 0.0
H6165 H 0.67698 0.82055 0.37865 0.0
H6166 H 0.69455 0.81958 0.36396 0.0
H6167 H 0.71248 0.83247 0.36564 0.0
H6168 H 0.97494 0.8936 0.08336 0.0
H6169 H 0.96493 0.91165 0.09162 0.0
H6170 H 0.97087 0.89845 0.12819 0.0
H6171 H 0.98091 0.88028 0.11999 0.0
H6172 H 0.94693 0.90725 0.12338 0.0
H6173 H 0.98244 0.94011 0.10929 0.0
H6174 H 0.97744 0.93032 0.09716 0.0
H6175 H 0.98508 0.92388 0.11013 0.0
C6176 C 0.97409 0.8945 0.09316 0.0
C6177 C 0.97876 0.88556 0.10104 0.0
C6178 C 0.96845 0.90485 0.09786 0.0
C6179 C 0.9674 0.90645 0.1105 0.0
C6180 C 0.97173 0.8974 0.1184 0.0
H6181 H 0.941 0.9768 0.1383 0.0
H6182 H 0.95331 0.95827 0.13621 0.0
C6183 C 0.97743 0.88704 0.11371 0.0
C6184 C 0.96154 0.91751 0.11536 0.0
H6185 H 0.96309 0.94855 0.11454 0.0
C6186 C 0.95053 0.91629 0.12162 0.0
C6187 C 0.9664 0.92924 0.11325 0.0
C6188 C 0.97855 0.93101 0.1072 0.0
C6189 C 0.94387 0.92657 0.12518 0.0
C6190 C 0.9483 0.9383 0.12224 0.0
C6191 C 0.95966 0.93952 0.11665 0.0
C6192 C 0.94083 0.94933 0.12391 0.0
C6193 C 0.93204 0.92479 0.13182 0.0
C6194 C 0.92989 0.95045 0.11751 0.0
C6195 C 0.92291 0.96096 0.11864 0.0
C6196 C 0.92678 0.97058 0.12614 0.0
C6197 C 0.9378 0.96951 0.13247 0.0
C6198 C 0.94481 0.95895 0.13132 0.0
H6199 H 0.93177 0.91587 0.13662 0.0
H6200 H 0.93048 0.93217 0.13857 0.0
H6201 H 0.92449 0.92494 0.12513 0.0
H6202 H 0.92682 0.94323 0.11152 0.0
H6203 H 0.91449 0.96154 0.1136 0.0
H6204 H 0.85969 0.23471 0.87489 0.0
H6205 H 0.84158 0.2244 0.88282 0.0
H6206 H 0.8326 0.21239 0.84648 0.0
H6207 H 0.85053 0.22264 0.83849 0.0
H6208 H 0.81331 0.22448 0.86002 0.0
H6209 H 0.83559 0.18665 0.88552 0.0
H6210 H 0.8408 0.20198 0.8882 0.0
H6211 H 0.84333 0.19499 0.87364 0.0
C6212 C 0.85391 0.22977 0.86863 0.0
C6213 C 0.85652 0.22948 0.85607 0.0
C6214 C 0.84359 0.2239 0.87317 0.0
C6215 C 0.83581 0.21765 0.86522 0.0
C6216 C 0.83851 0.21721 0.85274 0.0
H6217 H 0.78191 0.16394 0.86589 0.0
H6218 H 0.79972 0.17703 0.86465 0.0
C6219 C 0.84878 0.22304 0.8482 0.0
C6220 C 0.82464 0.21175 0.86966 0.0
H6221 H 0.81433 0.18646 0.88448 0.0
C6222 C 0.81348 0.21627 0.86553 0.0
C6223 C 0.82498 0.20105 0.87682 0.0
C6224 C 0.83679 0.19578 0.8813 0.0
C6225 C 0.80263 0.21008 0.86795 0.0
C6226 C 0.80301 0.19914 0.87475 0.0
C6227 C 0.81412 0.19489 0.87931 0.0
C6228 C 0.79223 0.19128 0.876 0.0
C6229 C 0.79095 0.21488 0.86266 0.0
C6230 C 0.78213 0.19499 0.88284 0.0
C6231 C 0.77188 0.18752 0.88354 0.0
C6232 C 0.77163 0.17626 0.87742 0.0
C6233 C 0.7818 0.17258 0.87066 0.0
C6234 C 0.79201 0.18001 0.86999 0.0
H6235 H 0.79248 0.22255 0.85622 0.0
H6236 H 0.78603 0.20751 0.85779 0.0
H6237 H 0.78504 0.21817 0.87015 0.0
H6238 H 0.7822 0.20363 0.88762 0.0
H6239 H 0.76418 0.19054 0.88887 0.0
H6240 H 0.85855 0.55856 0.97916 0.0
H6241 H 0.86403 0.54561 0.96173 0.0
H6242 H 0.89344 0.56993 0.95291 0.0
H6243 H 0.88804 0.58291 0.97016 0.0
H6244 H 0.8666 0.55559 0.9356 0.0
H6245 H 0.90791 0.53381 0.95503 0.0
H6246 H 0.89591 0.53981 0.96451 0.0
H6247 H 0.90622 0.55001 0.95704 0.0
C6248 C 0.86622 0.56109 0.97354 0.0
C6249 C 0.87288 0.57172 0.97598 0.0
C6250 C 0.86932 0.55371 0.96362 0.0
C6251 C 0.87918 0.55682 0.95619 0.0
C6252 C 0.88588 0.56736 0.95867 0.0
H6253 H 0.91313 0.52322 0.89298 0.0
H6254 H 0.90829 0.53648 0.91036 0.0
C6255 C 0.88274 0.57477 0.96848 0.0
C6256 C 0.88226 0.54935 0.94549 0.0
H6257 H 0.90358 0.52987 0.9343 0.0
C6258 C 0.87464 0.5499 0.93529 0.0
C6259 C 0.89285 0.54216 0.94517 0.0
C6260 C 0.90121 0.5413 0.95602 0.0
C6261 C 0.87741 0.54344 0.92464 0.0
C6262 C 0.8879 0.53603 0.92437 0.0
C6263 C 0.89556 0.53558 0.93456 0.0
C6264 C 0.89078 0.52827 0.91377 0.0
C6265 C 0.8692 0.54479 0.91371 0.0
C6266 C 0.8826 0.51922 0.91011 0.0
C6267 C 0.88529 0.51175 0.90022 0.0
C6268 C 0.89629 0.51307 0.89392 0.0
C6269 C 0.90457 0.52204 0.89768 0.0
C6270 C 0.90183 0.52959 0.90757 0.0
H6271 H 0.86391 0.5534 0.9141 0.0
H6272 H 0.87446 0.54464 0.90507 0.0
H6273 H 0.86267 0.5371 0.91354 0.0
H6274 H 0.87417 0.51787 0.91498 0.0
H6275 H 0.87877 0.50484 0.8976 0.0
H6276 H 0.36402 0.93771 0.01722 0.0
H6277 H 0.36996 0.9505 0.0346 0.0
H6278 H 0.39808 0.92484 0.04388 0.0
H6279 H 0.39222 0.91202 0.02664 0.0
H6280 H 0.3713 0.94081 0.06046 0.0
H6281 H 0.41455 0.95984 0.04246 0.0
H6282 H 0.40267 0.95429 0.03255 0.0
H6283 H 0.41202 0.94371 0.04073 0.0
C6284 C 0.37152 0.93486 0.02292 0.0
C6285 C 0.37767 0.92389 0.02061 0.0
C6286 C 0.37488 0.94214 0.0328 0.0
C6287 C 0.3845 0.93861 0.04038 0.0
C6288 C 0.39073 0.92775 0.03802 0.0
H6289 H 0.41607 0.97369 0.10459 0.0
H6290 H 0.41228 0.95973 0.08747 0.0
C6291 C 0.38733 0.92043 0.02821 0.0
C6292 C 0.38767 0.94596 0.05113 0.0
H6293 H 0.40932 0.96488 0.06271 0.0
C6294 C 0.37959 0.94609 0.06098 0.0
C6295 C 0.3986 0.95262 0.05177 0.0
C6296 C 0.40748 0.95272 0.04131 0.0
C6297 C 0.38213 0.95283 0.07151 0.0
C6298 C 0.39287 0.95985 0.07202 0.0
C6299 C 0.40109 0.95949 0.06226 0.0
C6300 C 0.39533 0.96819 0.08227 0.0
C6301 C 0.37333 0.9523 0.08204 0.0
C6302 C 0.38718 0.97765 0.08479 0.0
C6303 C 0.38927 0.98551 0.09451 0.0
C6304 C 0.39965 0.98417 0.1018 0.0
C6305 C 0.40799 0.97488 0.09911 0.0
C6306 C 0.40584 0.96693 0.08938 0.0
H6307 H 0.36783 0.94382 0.0818 0.0
H6308 H 0.37811 0.95278 0.09093 0.0
H6309 H 0.36701 0.96014 0.08143 0.0
H6310 H 0.37919 0.97896 0.0792 0.0
H6311 H 0.38275 0.99267 0.09628 0.0
H6312 H 0.77235 0.6635 0.85384 0.0
H6313 H 0.78208 0.65503 0.83572 0.0
H6314 H 0.7737 0.61864 0.84802 0.0
H6315 H 0.76403 0.62704 0.86629 0.0
H6316 H 0.79745 0.62138 0.83954 0.0
H6317 H 0.76422 0.63989 0.80654 0.0
H6318 H 0.7702 0.65137 0.81653 0.0
H6319 H 0.76127 0.63912 0.82273 0.0
C6320 C 0.77261 0.6537 0.85272 0.0
C6321 C 0.76738 0.64593 0.86144 0.0
C6322 C 0.77808 0.64888 0.84233 0.0
C6323 C 0.77834 0.63624 0.84044 0.0
C6324 C 0.77345 0.62843 0.84928 0.0
H6325 H 0.8039 0.61035 0.76904 0.0
H6326 H 0.7914 0.61206 0.78748 0.0
C6327 C 0.76797 0.63325 0.85971 0.0
C6328 C 0.78398 0.63125 0.8293 0.0
H6329 H 0.78341 0.63359 0.7983 0.0
C6330 C 0.79429 0.62388 0.83051 0.0
C6331 C 0.77966 0.6343 0.81756 0.0
C6332 C 0.76815 0.6415 0.81573 0.0
C6333 C 0.80086 0.62013 0.82023 0.0
C6334 C 0.7971 0.62404 0.80855 0.0
C6335 C 0.78634 0.63073 0.8073 0.0
C6336 C 0.80476 0.62231 0.79766 0.0
C6337 C 0.81191 0.61223 0.822 0.0
C6338 C 0.81629 0.62764 0.79728 0.0
C6339 C 0.82339 0.62673 0.78682 0.0
C6340 C 0.81903 0.62053 0.77651 0.0
C6341 C 0.80747 0.61518 0.77688 0.0
C6342 C 0.80035 0.61612 0.78738 0.0
H6343 H 0.81132 0.60689 0.83059 0.0
H6344 H 0.81313 0.60584 0.81424 0.0
H6345 H 0.82006 0.61813 0.82259 0.0
H6346 H 0.81973 0.63271 0.80502 0.0
H6347 H 0.83225 0.63097 0.78679 0.0
H6348 H 0.11702 0.08694 0.53438 0.0
H6349 H 0.11274 0.07388 0.5519 0.0
H6350 H 0.13111 0.04398 0.5343 0.0
H6351 H 0.13551 0.05704 0.51666 0.0
H6352 H 0.10609 0.03961 0.54381 0.0
H6353 H 0.13784 0.06005 0.57751 0.0
H6354 H 0.12873 0.07058 0.5689 0.0
H6355 H 0.13993 0.06153 0.56123 0.0
C6356 C 0.12022 0.0776 0.53426 0.0
C6357 C 0.12657 0.07296 0.52416 0.0
C6358 C 0.11781 0.0702 0.54428 0.0
C6359 C 0.12169 0.05805 0.54436 0.0
C6360 C 0.12811 0.05338 0.53436 0.0
H6361 H 0.11987 0.00577 0.60275 0.0
H6362 H 0.12532 0.01915 0.58586 0.0
C6363 C 0.13061 0.06083 0.52434 0.0
C6364 C 0.11852 0.05011 0.5547 0.0
H6365 H 0.1236 0.04574 0.58506 0.0
C6366 C 0.10993 0.04089 0.55283 0.0
C6367 C 0.12361 0.05187 0.56638 0.0
C6368 C 0.13311 0.06148 0.56868 0.0
C6369 C 0.10614 0.03342 0.56247 0.0
C6370 C 0.11105 0.03533 0.57421 0.0
C6371 C 0.11978 0.04444 0.57603 0.0
C6372 C 0.10765 0.02757 0.58462 0.0
C6373 C 0.09706 0.02344 0.56003 0.0
C6374 C 0.09594 0.02805 0.58957 0.0
C6375 C 0.09278 0.02043 0.59928 0.0
C6376 C 0.10132 0.01225 0.60411 0.0
C6377 C 0.11308 0.01195 0.5992 0.0
C6378 C 0.11623 0.01959 0.58957 0.0
H6379 H 0.09578 0.0218 0.55011 0.0
H6380 H 0.09996 0.01479 0.56441 0.0
H6381 H 0.08818 0.02605 0.564 0.0
H6382 H 0.08926 0.03428 0.58589 0.0
H6383 H 0.08367 0.02086 0.60292 0.0
H6384 H 0.23616 0.87268 0.863 0.0
H6385 H 0.22721 0.88141 0.8445 0.0
H6386 H 0.21613 0.84552 0.83295 0.0
H6387 H 0.22514 0.83671 0.85127 0.0
H6388 H 0.22817 0.85978 0.8147 0.0
H6389 H 0.19041 0.88467 0.8375 0.0
H6390 H 0.20554 0.88746 0.84293 0.0
H6391 H 0.19878 0.87274 0.84509 0.0
C6392 C 0.23175 0.86666 0.85655 0.0
C6393 C 0.2313 0.85401 0.85859 0.0
C6394 C 0.22665 0.87167 0.84601 0.0
C6395 C 0.22098 0.8641 0.83743 0.0
C6396 C 0.2205 0.85149 0.83948 0.0
H6397 H 0.16787 0.86595 0.78421 0.0
H6398 H 0.18124 0.86497 0.80184 0.0
C6399 C 0.2256 0.84649 0.84997 0.0
C6400 C 0.21546 0.86914 0.82627 0.0
H6401 H 0.19064 0.8846 0.81612 0.0
C6402 C 0.22008 0.86539 0.81495 0.0
C6403 C 0.20494 0.87645 0.82673 0.0
C6404 C 0.19953 0.88055 0.83869 0.0
C6405 C 0.21406 0.86821 0.80406 0.0
C6406 C 0.20323 0.87505 0.80456 0.0
C6407 C 0.19898 0.87938 0.81582 0.0
C6408 C 0.19524 0.87623 0.79384 0.0
C6409 C 0.21888 0.86321 0.79219 0.0
C6410 C 0.1987 0.88294 0.78352 0.0
C6411 C 0.19106 0.88347 0.77334 0.0
C6412 C 0.17988 0.87733 0.77343 0.0
C6413 C 0.17644 0.87075 0.78385 0.0
C6414 C 0.18404 0.87022 0.79395 0.0
H6415 H 0.22657 0.85683 0.79359 0.0
H6416 H 0.2116 0.85836 0.78715 0.0
H6417 H 0.22206 0.87085 0.78638 0.0
H6418 H 0.20728 0.88773 0.78334 0.0
H6419 H 0.19389 0.88867 0.76544 0.0
H6420 H 0.58115 0.47193 0.39257 0.0
H6421 H 0.58595 0.45848 0.40984 0.0
H6422 H 0.61787 0.47978 0.41752 0.0
H6423 H 0.61324 0.49315 0.40035 0.0
H6424 H 0.61058 0.44564 0.41309 0.0
H6425 H 0.59728 0.47727 0.45046 0.0
H6426 H 0.59108 0.47837 0.43523 0.0
H6427 H 0.60619 0.48358 0.43824 0.0
C6428 C 0.58915 0.47375 0.39798 0.0
C6429 C 0.59682 0.48357 0.39515 0.0
C6430 C 0.59188 0.46608 0.4078 0.0
C6431 C 0.60219 0.46827 0.41495 0.0
C6432 C 0.60981 0.47807 0.41215 0.0
H6433 H 0.63605 0.43649 0.47853 0.0
H6434 H 0.63018 0.4494 0.46126 0.0
C6435 C 0.60717 0.48565 0.40232 0.0
C6436 C 0.60529 0.46015 0.42516 0.0
H6437 H 0.60765 0.45928 0.45615 0.0
C6438 C 0.60986 0.44853 0.42252 0.0
C6439 C 0.60444 0.4641 0.43738 0.0
C6440 C 0.59941 0.47648 0.44058 0.0
C6441 C 0.61387 0.44078 0.43185 0.0
C6442 C 0.61298 0.44471 0.44411 0.0
C6443 C 0.60833 0.45632 0.44673 0.0
C6444 C 0.61668 0.43684 0.45439 0.0
C6445 C 0.61933 0.42863 0.42848 0.0
C6446 C 0.61094 0.42561 0.45626 0.0
C6447 C 0.61431 0.41822 0.46603 0.0
C6448 C 0.62338 0.42202 0.47418 0.0
C6449 C 0.62905 0.43333 0.47237 0.0
C6450 C 0.62571 0.44071 0.46254 0.0
H6451 H 0.62246 0.42849 0.41885 0.0
H6452 H 0.62711 0.42637 0.43448 0.0
H6453 H 0.61238 0.4214 0.42956 0.0
H6454 H 0.60376 0.4226 0.45024 0.0
H6455 H 0.60972 0.40958 0.46725 0.0
H6456 H 0.76362 0.36979 0.63194 0.0
H6457 H 0.77344 0.37812 0.65019 0.0
H6458 H 0.78454 0.34193 0.66071 0.0
H6459 H 0.77474 0.33352 0.6426 0.0
H6460 H 0.7721 0.35652 0.67933 0.0
H6461 H 0.81087 0.38025 0.657 0.0
H6462 H 0.79588 0.38301 0.65115 0.0
H6463 H 0.80257 0.36821 0.64949 0.0
C6464 C 0.76826 0.36363 0.63808 0.0
C6465 C 0.76843 0.35101 0.63585 0.0
C6466 C 0.77385 0.3684 0.64847 0.0
C6467 C 0.7797 0.36061 0.65672 0.0
C6468 C 0.78003 0.34805 0.65442 0.0
H6469 H 0.83122 0.36299 0.71261 0.0
H6470 H 0.81868 0.36094 0.69441 0.0
C6471 C 0.77448 0.34328 0.64406 0.0
C6472 C 0.78531 0.36538 0.66794 0.0
H6473 H 0.81028 0.38035 0.67842 0.0
C6474 C 0.78035 0.36189 0.67919 0.0
C6475 C 0.79605 0.37236 0.6676 0.0
C6476 C 0.80175 0.37617 0.65569 0.0
C6477 C 0.78616 0.36479 0.69018 0.0
C6478 C 0.79713 0.3714 0.68982 0.0
C6479 C 0.80183 0.37532 0.6786 0.0
C6480 C 0.80461 0.37306 0.70084 0.0
C6481 C 0.78088 0.36024 0.70203 0.0
C6482 C 0.8008 0.3806 0.71043 0.0
C6483 C 0.80795 0.38178 0.72089 0.0
C6484 C 0.81898 0.37544 0.72184 0.0
C6485 C 0.82276 0.36797 0.71216 0.0
C6486 C 0.81564 0.36682 0.70174 0.0
H6487 H 0.77313 0.35394 0.70056 0.0
H6488 H 0.78792 0.35543 0.70744 0.0
H6489 H 0.77765 0.3681 0.7075 0.0
H6490 H 0.79234 0.38556 0.70981 0.0
H6491 H 0.80486 0.38764 0.72821 0.0
H6492 H 0.73594 0.62738 0.13388 0.0
H6493 H 0.72659 0.61838 0.15205 0.0
H6494 H 0.71688 0.65425 0.16482 0.0
H6495 H 0.72623 0.66334 0.14678 0.0
H6496 H 0.72874 0.63811 0.18255 0.0
H6497 H 0.68917 0.61729 0.15876 0.0
H6498 H 0.70406 0.61421 0.1528 0.0
H6499 H 0.69802 0.62937 0.15198 0.0
C6500 C 0.73176 0.63334 0.14054 0.0
C6501 C 0.73177 0.64606 0.13891 0.0
C6502 C 0.72644 0.62819 0.15088 0.0
C6503 C 0.72105 0.63568 0.15969 0.0
C6504 C 0.72104 0.64835 0.15809 0.0
H6505 H 0.66866 0.63239 0.21419 0.0
H6506 H 0.68183 0.63475 0.19652 0.0
C6507 C 0.72633 0.65351 0.14776 0.0
C6508 C 0.71527 0.63043 0.17062 0.0
H6509 H 0.68967 0.61589 0.18012 0.0
C6510 C 0.7203 0.63308 0.18207 0.0
C6511 C 0.70428 0.6239 0.16984 0.0
C6512 C 0.69847 0.62104 0.15771 0.0
C6513 C 0.7143 0.6298 0.19285 0.0
C6514 C 0.70306 0.62368 0.19207 0.0
C6515 C 0.69833 0.62055 0.18062 0.0
C6516 C 0.69531 0.62193 0.20288 0.0
C6517 C 0.71964 0.6335 0.20496 0.0
C6518 C 0.69859 0.61392 0.2123 0.0
C6519 C 0.69107 0.61258 0.22249 0.0
C6520 C 0.68019 0.61921 0.22331 0.0
C6521 C 0.67698 0.62717 0.21382 0.0
C6522 C 0.68447 0.62851 0.20371 0.0
H6523 H 0.72768 0.6395 0.20389 0.0
H6524 H 0.71277 0.63834 0.21056 0.0
H6525 H 0.72246 0.62523 0.21005 0.0
H6526 H 0.70689 0.60869 0.21173 0.0
H6527 H 0.69372 0.60633 0.22965 0.0
H6528 H 0.53319 0.6198 0.91796 0.0
H6529 H 0.55135 0.62022 0.93056 0.0
H6530 H 0.53322 0.64334 0.95663 0.0
H6531 H 0.51482 0.64293 0.944 0.0
H6532 H 0.56509 0.6414 0.93907 0.0
H6533 H 0.54535 0.61277 0.97616 0.0
H6534 H 0.53857 0.61347 0.96119 0.0
H6535 H 0.53727 0.6262 0.97136 0.0
C6536 C 0.53302 0.62498 0.92637 0.0
C6537 C 0.52256 0.63127 0.93005 0.0
C6538 C 0.54343 0.62527 0.93351 0.0
C6539 C 0.54358 0.6318 0.94448 0.0
C6540 C 0.53322 0.6382 0.94819 0.0
H6541 H 0.61253 0.62832 0.98565 0.0
H6542 H 0.59452 0.63768 0.97641 0.0
C6543 C 0.52274 0.63794 0.94099 0.0
C6544 C 0.55456 0.63127 0.95213 0.0
H6545 H 0.5663 0.61607 0.97652 0.0
C6546 C 0.56536 0.63613 0.94743 0.0
C6547 C 0.55479 0.62434 0.96298 0.0
C6548 C 0.54342 0.61882 0.96827 0.0
C6549 C 0.57655 0.63359 0.95295 0.0
C6550 C 0.57683 0.62604 0.96336 0.0
C6551 C 0.56596 0.62185 0.9685 0.0
C6552 C 0.58826 0.62097 0.96807 0.0
C6553 C 0.58805 0.63826 0.94718 0.0
C6554 C 0.5907 0.60858 0.96621 0.0
C6555 C 0.6009 0.60324 0.97142 0.0
C6556 C 0.60881 0.6102 0.97863 0.0
C6557 C 0.6066 0.62275 0.9801 0.0
C6558 C 0.59634 0.62811 0.97486 0.0
H6559 H 0.58628 0.64361 0.93877 0.0
H6560 H 0.59295 0.64414 0.95378 0.0
H6561 H 0.59409 0.63049 0.94488 0.0
H6562 H 0.58455 0.60297 0.96093 0.0
H6563 H 0.60237 0.59356 0.9701 0.0
H6564 H 0.6348 0.28393 0.1681 0.0
H6565 H 0.63564 0.30162 0.18153 0.0
H6566 H 0.60649 0.28684 0.20316 0.0
H6567 H 0.60571 0.26889 0.1898 0.0
H6568 H 0.61698 0.31843 0.18676 0.0
H6569 H 0.6334 0.29419 0.22827 0.0
H6570 H 0.63396 0.28732 0.21332 0.0
H6571 H 0.61978 0.28857 0.22123 0.0
C6572 C 0.62859 0.28439 0.17574 0.0
C6573 C 0.62023 0.27501 0.17794 0.0
C6574 C 0.62905 0.29453 0.18337 0.0
C6575 C 0.62117 0.29549 0.19335 0.0
C6576 C 0.61275 0.28617 0.19558 0.0
H6577 H 0.62383 0.36518 0.234 0.0
H6578 H 0.61504 0.34728 0.22383 0.0
C6579 C 0.61231 0.27596 0.18794 0.0
C6580 C 0.62202 0.3063 0.20133 0.0
H6581 H 0.63221 0.31552 0.22922 0.0
C6582 C 0.62009 0.31783 0.19612 0.0
C6583 C 0.62611 0.30541 0.21351 0.0
C6584 C 0.62852 0.29324 0.21946 0.0
C6585 C 0.62275 0.32853 0.20258 0.0
C6586 C 0.62732 0.32762 0.21458 0.0
C6587 C 0.62866 0.31612 0.22001 0.0
C6588 C 0.63228 0.33833 0.221 0.0
C6589 C 0.6214 0.34069 0.19629 0.0
C6590 C 0.64482 0.33911 0.22281 0.0
C6591 C 0.64983 0.34924 0.22854 0.0
C6592 C 0.64238 0.35879 0.23264 0.0
C6593 C 0.62978 0.35798 0.23089 0.0
C6594 C 0.62476 0.34779 0.2251 0.0
H6595 H 0.619 0.3397 0.1865 0.0
H6596 H 0.61415 0.34603 0.20085 0.0
H6597 H 0.62994 0.34598 0.197 0.0
H6598 H 0.65075 0.33189 0.21967 0.0
H6599 H 0.65956 0.34957 0.22978 0.0
H6600 H 0.97808 0.35277 0.44294 0.0
H6601 H 0.95858 0.35233 0.45368 0.0
H6602 H 0.94344 0.37666 0.42679 0.0
H6603 H 0.96273 0.37705 0.416 0.0
H6604 H 0.94696 0.37209 0.46366 0.0
H6605 H 0.91747 0.35041 0.42921 0.0
H6606 H 0.9338 0.34949 0.42857 0.0
H6607 H 0.92603 0.36271 0.42275 0.0
C6608 C 0.97055 0.35795 0.43929 0.0
C6609 C 0.9719 0.36496 0.42865 0.0
C6610 C 0.95943 0.35764 0.44539 0.0
C6611 C 0.94952 0.36423 0.44085 0.0
C6612 C 0.95088 0.37122 0.43024 0.0
H6613 H 0.89226 0.40458 0.46678 0.0
H6614 H 0.90931 0.3944 0.4569 0.0
C6615 C 0.96195 0.37155 0.42416 0.0
C6616 C 0.93804 0.36487 0.44773 0.0
H6617 H 0.90738 0.36368 0.44386 0.0
C6618 C 0.93831 0.36994 0.45947 0.0
C6619 C 0.92678 0.36194 0.4423 0.0
C6620 C 0.926 0.35571 0.43006 0.0
C6621 C 0.92758 0.37308 0.4655 0.0
C6622 C 0.91639 0.37115 0.45958 0.0
C6623 C 0.91604 0.36525 0.44827 0.0
C6624 C 0.90523 0.37664 0.46439 0.0
C6625 C 0.92824 0.37911 0.47785 0.0
C6626 C 0.89718 0.36986 0.47156 0.0
C6627 C 0.8874 0.37565 0.47724 0.0
C6628 C 0.88564 0.38827 0.4758 0.0
C6629 C 0.89342 0.39486 0.46811 0.0
C6630 C 0.90315 0.38908 0.46246 0.0
H6631 H 0.93735 0.37816 0.48205 0.0
H6632 H 0.92619 0.38897 0.47686 0.0
H6633 H 0.92138 0.37513 0.48409 0.0
H6634 H 0.89872 0.36023 0.47311 0.0
H6635 H 0.88154 0.37034 0.48311 0.0
H6636 H 0.8364 0.6489 0.72803 0.0
H6637 H 0.84535 0.66639 0.71771 0.0
H6638 H 0.88114 0.65318 0.72633 0.0
H6639 H 0.87223 0.63546 0.73668 0.0
H6640 H 0.86153 0.68405 0.72831 0.0
H6641 H 0.88136 0.6592 0.6887 0.0
H6642 H 0.86976 0.65255 0.69821 0.0
H6643 H 0.88498 0.65382 0.70378 0.0
C6644 C 0.84618 0.64965 0.72771 0.0
C6645 C 0.85362 0.6408 0.73314 0.0
C6646 C 0.85127 0.65967 0.72184 0.0
C6647 C 0.86388 0.66102 0.72125 0.0
C6648 C 0.87138 0.6522 0.72662 0.0
H6649 H 0.89091 0.73072 0.69157 0.0
H6650 H 0.88941 0.71283 0.70492 0.0
C6651 C 0.86628 0.64213 0.73252 0.0
C6652 C 0.86896 0.67176 0.71497 0.0
H6653 H 0.88241 0.68057 0.6884 0.0
C6654 C 0.86629 0.68334 0.71969 0.0
C6655 C 0.8751 0.67069 0.70372 0.0
C6656 C 0.87795 0.65842 0.6982 0.0
C6657 C 0.86911 0.69394 0.71315 0.0
C6658 C 0.87487 0.69287 0.70169 0.0
C6659 C 0.87803 0.6813 0.69723 0.0
C6660 C 0.87635 0.70348 0.69356 0.0
C6661 C 0.86529 0.70615 0.7182 0.0
C6662 C 0.86965 0.70399 0.68271 0.0
C6663 C 0.8705 0.71413 0.67511 0.0
C6664 C 0.87809 0.72392 0.67821 0.0
C6665 C 0.88493 0.72333 0.68901 0.0
C6666 C 0.88408 0.71315 0.69663 0.0
H6667 H 0.85933 0.70522 0.72631 0.0
H6668 H 0.87345 0.71138 0.72093 0.0
H6669 H 0.86042 0.71151 0.71114 0.0
H6670 H 0.86362 0.69661 0.68022 0.0
H6671 H 0.86515 0.7143 0.66682 0.0
H6672 H 0.51509 0.35534 0.55139 0.0
H6673 H 0.53393 0.35463 0.53943 0.0
H6674 H 0.55157 0.37721 0.5663 0.0
H6675 H 0.53298 0.37797 0.5782 0.0
H6676 H 0.54652 0.37508 0.52992 0.0
H6677 H 0.57549 0.34878 0.56154 0.0
H6678 H 0.55914 0.34861 0.56238 0.0
H6679 H 0.56761 0.36088 0.56917 0.0
C6680 C 0.52302 0.3601 0.55473 0.0
C6681 C 0.52259 0.36671 0.56571 0.0
C6682 C 0.53375 0.35964 0.54794 0.0
C6683 C 0.54417 0.36563 0.55216 0.0
C6684 C 0.5437 0.37226 0.56307 0.0
H6685 H 0.6019 0.40468 0.52418 0.0
H6686 H 0.5837 0.39567 0.533 0.0
C6687 C 0.53303 0.37279 0.56979 0.0
C6688 C 0.55538 0.36595 0.54485 0.0
H6689 H 0.58597 0.36248 0.54767 0.0
C6690 C 0.55512 0.37205 0.53363 0.0
C6691 C 0.56655 0.36182 0.54964 0.0
C6692 C 0.56722 0.35454 0.56129 0.0
C6693 C 0.56588 0.37507 0.52758 0.0
C6694 C 0.5771 0.37201 0.53301 0.0
C6695 C 0.57733 0.36498 0.54367 0.0
C6696 C 0.58855 0.37713 0.52838 0.0
C6697 C 0.5652 0.38198 0.5157 0.0
C6698 C 0.5975 0.36958 0.52337 0.0
C6699 C 0.60797 0.37471 0.51835 0.0
C6700 C 0.60961 0.38743 0.51838 0.0
C6701 C 0.60087 0.39487 0.52396 0.0
C6702 C 0.59043 0.38975 0.52893 0.0
H6703 H 0.55634 0.38059 0.51111 0.0
H6704 H 0.56624 0.39187 0.51756 0.0
H6705 H 0.57257 0.37915 0.50941 0.0
H6706 H 0.59621 0.3598 0.52302 0.0
H6707 H 0.61457 0.36875 0.51412 0.0
H6708 H 0.87155 0.3603 0.76178 0.0
H6709 H 0.87952 0.34214 0.7721 0.0
H6710 H 0.84321 0.33175 0.78225 0.0
H6711 H 0.83518 0.34973 0.77196 0.0
H6712 H 0.87671 0.3348 0.79692 0.0
H6713 H 0.85683 0.3013 0.76481 0.0
H6714 H 0.85834 0.31729 0.76116 0.0
H6715 H 0.84598 0.31209 0.7705 0.0
C6716 C 0.86528 0.35416 0.76625 0.0
C6717 C 0.85274 0.35639 0.766 0.0
C6718 C 0.86984 0.3438 0.77211 0.0
C6719 C 0.86191 0.33552 0.77769 0.0
C6720 C 0.84944 0.33791 0.77774 0.0
H6721 H 0.86501 0.28314 0.83338 0.0
H6722 H 0.86349 0.30094 0.82013 0.0
C6723 C 0.84488 0.34824 0.77193 0.0
C6724 C 0.86656 0.32444 0.78372 0.0
H6725 H 0.86316 0.29354 0.78428 0.0
C6726 C 0.87393 0.32576 0.79405 0.0
C6727 C 0.86307 0.31267 0.77982 0.0
C6728 C 0.85572 0.31071 0.76839 0.0
C6729 C 0.87727 0.3156 0.80106 0.0
C6730 C 0.87302 0.30394 0.79766 0.0
C6731 C 0.8663 0.30254 0.7869 0.0
C6732 C 0.87448 0.29327 0.80571 0.0
C6733 C 0.88507 0.31746 0.8122 0.0
C6734 C 0.88097 0.28298 0.80184 0.0
C6735 C 0.88186 0.27275 0.80941 0.0
C6736 C 0.87611 0.27265 0.82085 0.0
C6737 C 0.86954 0.28295 0.82462 0.0
C6738 C 0.86874 0.29316 0.81711 0.0
H6739 H 0.89035 0.32607 0.81161 0.0
H6740 H 0.87919 0.31799 0.82039 0.0
H6741 H 0.89146 0.30973 0.81345 0.0
H6742 H 0.88535 0.28288 0.793 0.0
H6743 H 0.88696 0.26492 0.80628 0.0
H6744 H 0.8904 0.59045 0.02944 0.0
H6745 H 0.90847 0.59875 0.0392 0.0
H6746 H 0.90209 0.63351 0.02196 0.0
H6747 H 0.88382 0.62531 0.01225 0.0
H6748 H 0.92821 0.60821 0.02514 0.0
H6749 H 0.90963 0.64203 0.05818 0.0
H6750 H 0.90048 0.6299 0.05191 0.0
H6751 H 0.90439 0.64279 0.04265 0.0
C6752 C 0.89271 0.59992 0.02789 0.0
C6753 C 0.88575 0.60723 0.02006 0.0
C6754 C 0.90304 0.60463 0.03344 0.0
C6755 C 0.90658 0.61671 0.03127 0.0
C6756 C 0.89941 0.6242 0.02384 0.0
H6757 H 0.98003 0.63974 0.05353 0.0
H6758 H 0.96143 0.63855 0.04124 0.0
C6759 C 0.889 0.6195 0.01831 0.0
C6760 C 0.91825 0.62102 0.03615 0.0
H6761 H 0.93078 0.63918 0.05801 0.0
C6762 C 0.92882 0.61513 0.03219 0.0
C6763 C 0.91893 0.63006 0.0453 0.0
C6764 C 0.90778 0.63656 0.04986 0.0
C6765 C 0.94005 0.61764 0.03756 0.0
C6766 C 0.94065 0.6263 0.04705 0.0
C6767 C 0.9302 0.6326 0.05065 0.0
C6768 C 0.9517 0.62762 0.05442 0.0
C6769 C 0.95108 0.61056 0.03359 0.0
C6770 C 0.95224 0.62187 0.0658 0.0
C6771 C 0.96279 0.62244 0.07273 0.0
C6772 C 0.97294 0.62884 0.06842 0.0
C6773 C 0.97234 0.63471 0.05704 0.0
C6774 C 0.96176 0.63409 0.05005 0.0
H6775 H 0.94899 0.60391 0.02624 0.0
H6776 H 0.95813 0.61694 0.03024 0.0
H6777 H 0.95494 0.60555 0.04149 0.0
H6778 H 0.94455 0.61679 0.06923 0.0
H6779 H 0.96296 0.61785 0.08148 0.0
H6780 H 0.62546 0.63387 0.25973 0.0
H6781 H 0.61693 0.6522 0.26932 0.0
H6782 H 0.65242 0.66209 0.28243 0.0
H6783 H 0.661 0.64396 0.27292 0.0
H6784 H 0.61811 0.65992 0.29453 0.0
H6785 H 0.64062 0.69244 0.26317 0.0
H6786 H 0.63891 0.67643 0.25966 0.0
H6787 H 0.65082 0.68146 0.26966 0.0
C6788 C 0.63141 0.63992 0.26473 0.0
C6789 C 0.64391 0.63753 0.26551 0.0
C6790 C 0.62654 0.65038 0.27015 0.0
C6791 C 0.63411 0.65858 0.27633 0.0
C6792 C 0.64649 0.65599 0.27745 0.0
H6793 H 0.63005 0.71168 0.33078 0.0
H6794 H 0.63148 0.69369 0.31778 0.0
C6795 C 0.65136 0.64558 0.27207 0.0
C6796 C 0.62922 0.66984 0.2818 0.0
H6797 H 0.63336 0.70065 0.28213 0.0
C6798 C 0.62124 0.66885 0.2917 0.0
C6799 C 0.6332 0.68147 0.27793 0.0
C6800 C 0.64127 0.68306 0.26694 0.0
C6801 C 0.6178 0.67919 0.29838 0.0
C6802 C 0.62254 0.69069 0.29507 0.0
C6803 C 0.62984 0.69177 0.28468 0.0
C6804 C 0.62106 0.70146 0.30298 0.0
C6805 C 0.6094 0.67771 0.30913 0.0
C6806 C 0.61492 0.71186 0.29883 0.0
C6807 C 0.61408 0.72219 0.30626 0.0
C6808 C 0.61955 0.72229 0.31784 0.0
C6809 C 0.62576 0.71188 0.32189 0.0
C6810 C 0.6265 0.70156 0.31453 0.0
H6811 H 0.604 0.66919 0.30844 0.0
H6812 H 0.61485 0.67725 0.31762 0.0
H6813 H 0.60312 0.68558 0.30988 0.0
H6814 H 0.61079 0.71196 0.28987 0.0
H6815 H 0.60925 0.7301 0.30291 0.0
H6816 H 0.91218 0.538 0.61601 0.0
H6817 H 0.92685 0.55453 0.61608 0.0
H6818 H 0.9446 0.53878 0.64736 0.0
H6819 H 0.92976 0.52198 0.64741 0.0
H6820 H 0.93267 0.57114 0.63706 0.0
H6821 H 0.97113 0.54338 0.61919 0.0
H6822 H 0.95563 0.53852 0.61715 0.0
H6823 H 0.96241 0.53792 0.63199 0.0
C6824 C 0.91917 0.538 0.62294 0.0
C6825 C 0.91985 0.52865 0.63168 0.0
C6826 C 0.92752 0.54749 0.62299 0.0
C6827 C 0.93677 0.54784 0.63171 0.0
C6828 C 0.9375 0.53861 0.64054 0.0
H6829 H 0.98347 0.61326 0.62567 0.0
H6830 H 0.97258 0.59647 0.63564 0.0
C6831 C 0.92905 0.52905 0.64055 0.0
C6832 C 0.9457 0.55784 0.63105 0.0
H6833 H 0.97317 0.56467 0.61855 0.0
C6834 C 0.94168 0.56976 0.63334 0.0
C6835 C 0.95736 0.55593 0.62611 0.0
C6836 C 0.96198 0.54327 0.62341 0.0
C6837 C 0.94875 0.57988 0.63012 0.0
C6838 C 0.96011 0.57797 0.6245 0.0
C6839 C 0.96444 0.56605 0.62288 0.0
C6840 C 0.96683 0.58809 0.61875 0.0
C6841 C 0.94372 0.59254 0.63193 0.0
C6842 C 0.96718 0.58887 0.60599 0.0
C6843 C 0.97331 0.59841 0.6003 0.0
C6844 C 0.97927 0.60733 0.60726 0.0
C6845 C 0.97892 0.60654 0.62007 0.0
C6846 C 0.97273 0.59698 0.62578 0.0
H6847 H 0.93434 0.59241 0.63561 0.0
H6848 H 0.94957 0.59764 0.63838 0.0
H6849 H 0.94372 0.59757 0.62313 0.0
H6850 H 0.96264 0.5821 0.60044 0.0
H6851 H 0.97344 0.59874 0.59042 0.0
H6852 H 0.63174 0.73066 0.87274 0.0
H6853 H 0.64966 0.72104 0.88178 0.0
H6854 H 0.66104 0.70898 0.84614 0.0
H6855 H 0.64325 0.71857 0.83702 0.0
H6856 H 0.65866 0.69604 0.88025 0.0
H6857 H 0.68955 0.73019 0.85962 0.0
H6858 H 0.67342 0.7326 0.86098 0.0
H6859 H 0.67935 0.72326 0.84891 0.0
C6860 C 0.63799 0.72582 0.86685 0.0
C6861 C 0.63618 0.72546 0.85416 0.0
C6862 C 0.6482 0.72037 0.87203 0.0
C6863 C 0.65673 0.71456 0.86456 0.0
C6864 C 0.65463 0.71364 0.85199 0.0
H6865 H 0.71314 0.66416 0.8708 0.0
H6866 H 0.69428 0.67555 0.86899 0.0
C6867 C 0.64444 0.71906 0.84681 0.0
C6868 C 0.66804 0.70969 0.86976 0.0
H6869 H 0.69874 0.71198 0.86728 0.0
C6870 C 0.66743 0.69961 0.87759 0.0
C6871 C 0.67943 0.71457 0.86646 0.0
C6872 C 0.68052 0.72583 0.85863 0.0
C6873 C 0.67801 0.69376 0.88156 0.0
C6874 C 0.68938 0.69808 0.87747 0.0
C6875 C 0.68999 0.70864 0.87031 0.0
C6876 C 0.7006 0.69106 0.87939 0.0
C6877 C 0.67695 0.68284 0.88985 0.0
C6878 C 0.71047 0.69616 0.88562 0.0
C6879 C 0.72133 0.68967 0.88665 0.0
C6880 C 0.72245 0.67809 0.88129 0.0
C6881 C 0.71254 0.67306 0.87503 0.0
C6882 C 0.70172 0.6795 0.87408 0.0
H6883 H 0.66832 0.68298 0.89505 0.0
H6884 H 0.67709 0.67441 0.88425 0.0
H6885 H 0.68463 0.68244 0.89638 0.0
H6886 H 0.70978 0.70516 0.88964 0.0
H6887 H 0.72884 0.69375 0.89151 0.0
H6888 H 0.56767 0.4689 0.11312 0.0
H6889 H 0.55198 0.45334 0.11421 0.0
H6890 H 0.55309 0.45469 0.15351 0.0
H6891 H 0.56884 0.4706 0.15247 0.0
H6892 H 0.55662 0.43064 0.14169 0.0
H6893 H 0.51569 0.45449 0.12506 0.0
H6894 H 0.52896 0.45806 0.11627 0.0
H6895 H 0.52828 0.46238 0.13209 0.0
C6896 C 0.56445 0.46605 0.122 0.0
C6897 C 0.56947 0.4709 0.13271 0.0
C6898 C 0.55543 0.45723 0.12261 0.0
C6899 C 0.5513 0.453 0.13393 0.0
C6900 C 0.55609 0.45798 0.1447 0.0
H6901 H 0.51097 0.38341 0.12852 0.0
H6902 H 0.51993 0.40112 0.1388 0.0
C6903 C 0.56504 0.46703 0.14409 0.0
C6904 C 0.543 0.44246 0.13413 0.0
H6905 H 0.51684 0.43281 0.12075 0.0
C6906 C 0.54772 0.43108 0.13751 0.0
C6907 C 0.53143 0.44314 0.12868 0.0
C6908 C 0.52573 0.4552 0.12542 0.0
C6909 C 0.54168 0.42025 0.13443 0.0
C6910 C 0.53063 0.42093 0.12797 0.0
C6911 C 0.5254 0.43234 0.1256 0.0
C6912 C 0.52524 0.41011 0.12207 0.0
C6913 C 0.54763 0.40817 0.13718 0.0
C6914 C 0.52525 0.40936 0.1093 0.0
C6915 C 0.52017 0.39932 0.10343 0.0
C6916 C 0.51493 0.38985 0.11023 0.0
C6917 C 0.515 0.39055 0.12305 0.0
C6918 C 0.52011 0.40064 0.12893 0.0
H6919 H 0.55679 0.40928 0.14123 0.0
H6920 H 0.54193 0.40298 0.14371 0.0
H6921 H 0.54843 0.40267 0.12872 0.0
H6922 H 0.52922 0.41658 0.10386 0.0
H6923 H 0.52024 0.39906 0.09355 0.0
H6924 H 0.78509 0.33728 0.38065 0.0
H6925 H 0.80469 0.32728 0.37796 0.0
H6926 H 0.78684 0.29229 0.37636 0.0
H6927 H 0.76724 0.30228 0.37984 0.0
H6928 H 0.80769 0.29034 0.38795 0.0
H6929 H 0.81525 0.31612 0.34516 0.0
H6930 H 0.81368 0.32596 0.35811 0.0
H6931 H 0.8011 0.31666 0.35331 0.0
C6932 C 0.78539 0.32745 0.3798 0.0
C6933 C 0.77472 0.32052 0.3802 0.0
C6934 C 0.79656 0.32175 0.37822 0.0
C6935 C 0.79718 0.30909 0.37653 0.0
C6936 C 0.78655 0.3021 0.37752 0.0
H6937 H 0.85157 0.27106 0.33646 0.0
H6938 H 0.8341 0.28219 0.34413 0.0
C6939 C 0.77538 0.30778 0.37946 0.0
C6940 C 0.80879 0.30322 0.37318 0.0
H6941 H 0.83157 0.3041 0.3522 0.0
C6942 C 0.81292 0.29331 0.38013 0.0
C6943 C 0.8155 0.30703 0.36285 0.0
C6944 C 0.8111 0.31693 0.35436 0.0
C6945 C 0.82353 0.28701 0.37695 0.0
C6946 C 0.83041 0.29105 0.36682 0.0
C6947 C 0.82636 0.30109 0.36003 0.0
C6948 C 0.84125 0.28444 0.36239 0.0
C6949 C 0.82694 0.2758 0.38416 0.0
C6950 C 0.8512 0.28215 0.37005 0.0
C6951 C 0.86115 0.27555 0.36572 0.0
C6952 C 0.8614 0.27145 0.35359 0.0
C6953 C 0.85165 0.27417 0.34584 0.0
C6954 C 0.84165 0.28051 0.35022 0.0
H6955 H 0.81911 0.27212 0.38936 0.0
H6956 H 0.83046 0.2685 0.37811 0.0
H6957 H 0.83413 0.27821 0.39082 0.0
H6958 H 0.85126 0.28542 0.37937 0.0
H6959 H 0.86861 0.27363 0.37185 0.0
H6960 H 0.92566 0.46761 0.8844 0.0
H6961 H 0.93945 0.45029 0.88368 0.0
H6962 H 0.94304 0.45453 0.84475 0.0
H6963 H 0.92917 0.47216 0.8454 0.0
H6964 H 0.93279 0.42895 0.86482 0.0
H6965 H 0.97898 0.44943 0.86319 0.0
H6966 H 0.967 0.45747 0.871 0.0
H6967 H 0.96644 0.45585 0.85475 0.0
C6968 C 0.9295 0.46499 0.87569 0.0
C6969 C 0.92629 0.47114 0.86494 0.0
C6970 C 0.93739 0.45513 0.87531 0.0
C6971 C 0.94217 0.45117 0.86417 0.0
C6972 C 0.93943 0.45755 0.85343 0.0
H6973 H 0.98762 0.38518 0.87044 0.0
H6974 H 0.97698 0.40191 0.8601 0.0
C6975 C 0.93156 0.46758 0.85382 0.0
C6976 C 0.94909 0.4397 0.86403 0.0
H6977 H 0.97751 0.42874 0.86931 0.0
C6978 C 0.9426 0.42881 0.86543 0.0
C6979 C 0.96185 0.43963 0.86483 0.0
C6980 C 0.96907 0.45119 0.86334 0.0
C6981 C 0.94851 0.41795 0.86852 0.0
C6982 C 0.96117 0.41808 0.87031 0.0
C6983 C 0.96778 0.42874 0.86795 0.0
C6984 C 0.96736 0.40776 0.87624 0.0
C6985 C 0.94112 0.40656 0.87055 0.0
C6986 C 0.96543 0.40562 0.8887 0.0
C6987 C 0.97151 0.39619 0.89463 0.0
C6988 C 0.97959 0.38871 0.88817 0.0
C6989 C 0.98139 0.39078 0.87563 0.0
C6990 C 0.97538 0.40032 0.86972 0.0
H6991 H 0.93212 0.40715 0.86606 0.0
H6992 H 0.94598 0.39841 0.86705 0.0
H6993 H 0.93965 0.40529 0.88049 0.0
H6994 H 0.95931 0.41137 0.89387 0.0
H6995 H 0.96995 0.39482 0.90428 0.0
H6996 H 0.7833 0.67016 0.12881 0.0
H6997 H 0.80155 0.68261 0.12853 0.0
H6998 H 0.78453 0.70772 0.10358 0.0
H6999 H 0.76601 0.69525 0.10385 0.0
H7000 H 0.81608 0.68984 0.10751 0.0
H7001 H 0.79591 0.72863 0.13346 0.0
H7002 H 0.78892 0.71376 0.13328 0.0
H7003 H 0.78826 0.72326 0.11999 0.0
C7004 C 0.78339 0.67834 0.12326 0.0
C7005 C 0.77321 0.68179 0.1164 0.0
C7006 C 0.79385 0.68539 0.12306 0.0
C7007 C 0.79435 0.69604 0.11604 0.0
C7008 C 0.78425 0.69953 0.1091 0.0
H7009 H 0.86353 0.73665 0.12105 0.0
H7010 H 0.84566 0.7277 0.11113 0.0
C7011 C 0.77371 0.69244 0.10928 0.0
C7012 C 0.8054 0.70355 0.11657 0.0
H7013 H 0.817 0.72842 0.13108 0.0
C7014 C 0.81629 0.69845 0.11237 0.0
C7015 C 0.80556 0.71473 0.12296 0.0
C7016 C 0.79408 0.72047 0.12776 0.0
C7017 C 0.82747 0.70388 0.1151 0.0
C7018 C 0.82764 0.71462 0.12216 0.0
C7019 C 0.81673 0.72016 0.12565 0.0
C7020 C 0.83893 0.71923 0.1276 0.0
C7021 C 0.83905 0.6977 0.11122 0.0
C7022 C 0.84104 0.7172 0.14003 0.0
C7023 C 0.85116 0.72223 0.14568 0.0
C7024 C 0.8593 0.72943 0.139 0.0
C7025 C 0.8574 0.73111 0.12642 0.0
C7026 C 0.84723 0.72604 0.12075 0.0
H7027 H 0.83734 0.68935 0.10576 0.0
H7028 H 0.84459 0.7041 0.10571 0.0
H7029 H 0.84443 0.6952 0.1194 0.0
H7030 H 0.8347 0.7119 0.14541 0.0
H7031 H 0.85239 0.72075 0.15537 0.0
H7032 H 0.52616 0.60105 0.4017 0.0
H7033 H 0.53548 0.58398 0.39086 0.0
H7034 H 0.51602 0.59366 0.35818 0.0
H7035 H 0.50669 0.61093 0.36893 0.0
H7036 H 0.5158 0.5659 0.37237 0.0
H7037 H 0.55873 0.58709 0.35622 0.0
H7038 H 0.55311 0.59157 0.371 0.0
H7039 H 0.54475 0.5956 0.35757 0.0
C7040 C 0.52395 0.59964 0.39217 0.0
C7041 C 0.51568 0.6073 0.38616 0.0
C7042 C 0.52928 0.58991 0.38601 0.0
C7043 C 0.52639 0.58764 0.37377 0.0
C7044 C 0.51834 0.59536 0.36763 0.0
H7045 H 0.56715 0.52488 0.34435 0.0
H7046 H 0.55267 0.54193 0.34285 0.0
C7047 C 0.51306 0.6052 0.37377 0.0
C7048 C 0.53142 0.57674 0.36781 0.0
H7049 H 0.55813 0.56541 0.35716 0.0
C7050 C 0.52492 0.56579 0.36869 0.0
C7051 C 0.54326 0.57673 0.36298 0.0
C7052 C 0.55041 0.58837 0.36178 0.0
C7053 C 0.53039 0.55464 0.36576 0.0
C7054 C 0.5426 0.55453 0.36194 0.0
C7055 C 0.54873 0.56557 0.36005 0.0
C7056 C 0.54984 0.54325 0.36233 0.0
C7057 C 0.52337 0.54298 0.36751 0.0
C7058 C 0.55289 0.5384 0.37374 0.0
C7059 C 0.56124 0.52894 0.37462 0.0
C7060 C 0.56657 0.52405 0.36409 0.0
C7061 C 0.56306 0.52847 0.35258 0.0
C7062 C 0.55485 0.53817 0.35172 0.0
H7063 H 0.51344 0.54462 0.36727 0.0
H7064 H 0.52578 0.5362 0.36039 0.0
H7065 H 0.52568 0.53902 0.37654 0.0
H7066 H 0.54922 0.54233 0.38203 0.0
H7067 H 0.56379 0.52566 0.38359 0.0
H7068 H 0.64195 0.28003 0.65717 0.0
H7069 H 0.66044 0.289 0.64885 0.0
H7070 H 0.65266 0.27306 0.61374 0.0
H7071 H 0.63401 0.26421 0.62194 0.0
H7072 H 0.67924 0.27447 0.63911 0.0
H7073 H 0.66222 0.30848 0.60546 0.0
H7074 H 0.65275 0.30239 0.61744 0.0
H7075 H 0.65626 0.29326 0.60433 0.0
C7076 C 0.64404 0.27864 0.64762 0.0
C7077 C 0.63658 0.27139 0.64021 0.0
C7078 C 0.65461 0.28373 0.64289 0.0
C7079 C 0.65787 0.28168 0.6307 0.0
C7080 C 0.6502 0.27487 0.62313 0.0
H7081 H 0.72926 0.30446 0.60164 0.0
H7082 H 0.71059 0.29233 0.60361 0.0
C7083 C 0.63957 0.26981 0.62784 0.0
C7084 C 0.66977 0.28594 0.62631 0.0
H7085 H 0.68338 0.30675 0.60769 0.0
C7086 C 0.68016 0.28141 0.63212 0.0
C7087 C 0.6709 0.29491 0.61713 0.0
C7088 C 0.65996 0.30014 0.61074 0.0
C7089 C 0.69166 0.28603 0.62937 0.0
C7090 C 0.69272 0.29537 0.62061 0.0
C7091 C 0.68244 0.29949 0.61434 0.0
C7092 C 0.70405 0.30225 0.61933 0.0
C7093 C 0.70256 0.28136 0.63622 0.0
C7094 C 0.70643 0.31169 0.62757 0.0
C7095 C 0.71694 0.31858 0.62647 0.0
C7096 C 0.72527 0.31612 0.61712 0.0
C7097 C 0.72298 0.30651 0.60896 0.0
C7098 C 0.71236 0.29963 0.61003 0.0
H7099 H 0.70052 0.27289 0.64138 0.0
H7100 H 0.71013 0.27954 0.6298 0.0
H7101 H 0.70566 0.28843 0.64275 0.0
H7102 H 0.70007 0.31377 0.63482 0.0
H7103 H 0.71848 0.3259 0.63292 0.0
H7104 H 0.61545 0.91697 0.53525 0.0
H7105 H 0.61394 0.92982 0.55333 0.0
H7106 H 0.63947 0.95514 0.53766 0.0
H7107 H 0.64093 0.94233 0.51936 0.0
H7108 H 0.63234 0.93781 0.56966 0.0
H7109 H 0.60932 0.9761 0.54558 0.0
H7110 H 0.61069 0.96113 0.53891 0.0
H7111 H 0.6236 0.97106 0.5395 0.0
C7112 C 0.62075 0.92527 0.53563 0.0
C7113 C 0.62823 0.92871 0.52586 0.0
C7114 C 0.61993 0.93256 0.54599 0.0
C7115 C 0.62653 0.94345 0.54677 0.0
C7116 C 0.6342 0.94683 0.53714 0.0
H7117 H 0.62124 0.98496 0.61576 0.0
H7118 H 0.63045 0.9748 0.59808 0.0
C7119 C 0.63503 0.93951 0.52673 0.0
C7120 C 0.62491 0.95133 0.55756 0.0
H7121 H 0.61129 0.97766 0.56681 0.0
C7122 C 0.62792 0.94663 0.56907 0.0
C7123 C 0.61909 0.96278 0.55668 0.0
C7124 C 0.61539 0.96809 0.54453 0.0
C7125 C 0.62477 0.95284 0.5798 0.0
C7126 C 0.61858 0.96407 0.57891 0.0
C7127 C 0.61607 0.96904 0.56739 0.0
C7128 C 0.61332 0.97009 0.58972 0.0
C7129 C 0.62746 0.94703 0.59198 0.0
C7130 C 0.60069 0.97084 0.59078 0.0
C7131 C 0.59544 0.97662 0.60077 0.0
C7132 C 0.60273 0.98181 0.60989 0.0
C7133 C 0.6154 0.98098 0.60889 0.0
C7134 C 0.62067 0.97518 0.59883 0.0
H7135 H 0.63081 0.93753 0.59102 0.0
H7136 H 0.63449 0.95244 0.59677 0.0
H7137 H 0.61921 0.94697 0.59778 0.0
H7138 H 0.59487 0.96693 0.58384 0.0
H7139 H 0.58565 0.9771 0.60127 0.0
H7140 H 0.14036 0.55465 0.47959 0.0
H7141 H 0.14024 0.54168 0.46134 0.0
H7142 H 0.11489 0.56615 0.44412 0.0
H7143 H 0.11503 0.57914 0.46215 0.0
H7144 H 0.12041 0.52997 0.45087 0.0
H7145 H 0.14111 0.56204 0.41804 0.0
H7146 H 0.14219 0.56408 0.43436 0.0
H7147 H 0.12884 0.56893 0.42627 0.0
C7148 C 0.13481 0.55727 0.47188 0.0
C7149 C 0.12772 0.56791 0.47226 0.0
C7150 C 0.13478 0.54989 0.46148 0.0
C7151 C 0.12777 0.55312 0.45131 0.0
C7152 C 0.12061 0.56368 0.45175 0.0
H7153 H 0.08841 0.51792 0.39753 0.0
H7154 H 0.09763 0.52726 0.4154 0.0
C7155 C 0.12061 0.57102 0.46211 0.0
C7156 C 0.12718 0.54517 0.44045 0.0
H7157 H 0.12851 0.54614 0.40938 0.0
C7158 C 0.12244 0.53339 0.44181 0.0
C7159 C 0.13006 0.54955 0.42867 0.0
C7160 C 0.13596 0.5618 0.42675 0.0
C7161 C 0.11956 0.52626 0.43161 0.0
C7162 C 0.12133 0.53114 0.41981 0.0
C7163 C 0.127 0.5425 0.41846 0.0
C7164 C 0.11604 0.52529 0.40892 0.0
C7165 C 0.11422 0.51375 0.43354 0.0
C7166 C 0.12335 0.52144 0.39918 0.0
C7167 C 0.11808 0.51611 0.38885 0.0
C7168 C 0.10543 0.51471 0.38813 0.0
C7169 C 0.09818 0.51882 0.39782 0.0
C7170 C 0.10343 0.52407 0.40809 0.0
H7171 H 0.11702 0.50987 0.44247 0.0
H7172 H 0.10419 0.51443 0.4335 0.0
H7173 H 0.117 0.50739 0.42617 0.0
H7174 H 0.1331 0.52247 0.39961 0.0
H7175 H 0.12388 0.51305 0.3815 0.0
H7176 H 0.68363 0.89638 0.72702 0.0
H7177 H 0.69902 0.89734 0.71077 0.0
H7178 H 0.67679 0.87422 0.68816 0.0
H7179 H 0.6616 0.87314 0.70419 0.0
H7180 H 0.71078 0.87607 0.70104 0.0
H7181 H 0.68724 0.90198 0.6649 0.0
H7182 H 0.68299 0.90291 0.68081 0.0
H7183 H 0.67768 0.8905 0.6715 0.0
C7184 C 0.68199 0.89167 0.7185 0.0
C7185 C 0.67147 0.88464 0.71687 0.0
C7186 C 0.69075 0.89224 0.70925 0.0
C7187 C 0.68892 0.88601 0.69822 0.0
C7188 C 0.67826 0.8793 0.69651 0.0
H7189 H 0.72546 0.84291 0.6489 0.0
H7190 H 0.71549 0.85327 0.66584 0.0
C7191 C 0.66964 0.87859 0.70573 0.0
C7192 C 0.6985 0.88525 0.68884 0.0
H7193 H 0.70214 0.88714 0.65802 0.0
C7194 C 0.70909 0.87879 0.69168 0.0
C7195 C 0.69636 0.88897 0.67669 0.0
C7196 C 0.6855 0.89659 0.67331 0.0
C7197 C 0.71703 0.87495 0.68246 0.0
C7198 C 0.71416 0.87752 0.67016 0.0
C7199 C 0.7042 0.88499 0.66745 0.0
C7200 C 0.72052 0.87142 0.65998 0.0
C7201 C 0.72813 0.86773 0.68594 0.0
C7202 C 0.72631 0.87823 0.65085 0.0
C7203 C 0.73196 0.87232 0.64108 0.0
C7204 C 0.73178 0.85952 0.64025 0.0
C7205 C 0.72579 0.85277 0.6493 0.0
C7206 C 0.72019 0.85867 0.65905 0.0
H7207 H 0.73118 0.87 0.69533 0.0
H7208 H 0.72592 0.85786 0.68573 0.0
H7209 H 0.73571 0.86942 0.6795 0.0
H7210 H 0.72652 0.88809 0.65134 0.0
H7211 H 0.7365 0.87776 0.63423 0.0
H7212 H 0.37593 0.48393 0.88185 0.0
H7213 H 0.36691 0.47392 0.89974 0.0
H7214 H 0.40262 0.46558 0.91332 0.0
H7215 H 0.41167 0.47545 0.89563 0.0
H7216 H 0.37111 0.44872 0.90836 0.0
H7217 H 0.38497 0.48412 0.94166 0.0
H7218 H 0.38406 0.48697 0.92545 0.0
H7219 H 0.39699 0.47924 0.93174 0.0
C7220 C 0.38183 0.47993 0.88865 0.0
C7221 C 0.3945 0.48052 0.88738 0.0
C7222 C 0.37668 0.47424 0.89883 0.0
C7223 C 0.38413 0.46923 0.90789 0.0
C7224 C 0.39674 0.4696 0.90651 0.0
H7225 H 0.38236 0.41561 0.96233 0.0
H7226 H 0.38352 0.42801 0.94387 0.0
C7227 C 0.40188 0.47519 0.89635 0.0
C7228 C 0.37893 0.46337 0.9188 0.0
H7229 H 0.38001 0.46446 0.94985 0.0
C7230 C 0.37283 0.45225 0.91744 0.0
C7231 C 0.38104 0.46811 0.93059 0.0
C7232 C 0.38702 0.48033 0.93249 0.0
C7233 C 0.3695 0.44532 0.92766 0.0
C7234 C 0.3725 0.44962 0.93944 0.0
C7235 C 0.37784 0.46113 0.94079 0.0
C7236 C 0.37117 0.44189 0.95039 0.0
C7237 C 0.36308 0.43333 0.92576 0.0
C7238 C 0.36407 0.44576 0.96026 0.0
C7239 C 0.36345 0.43872 0.97087 0.0
C7240 C 0.37004 0.42779 0.97178 0.0
C7241 C 0.37717 0.42399 0.96188 0.0
C7242 C 0.37775 0.43099 0.95129 0.0
H7243 H 0.35818 0.43316 0.91691 0.0
H7244 H 0.36985 0.42586 0.92566 0.0
H7245 H 0.35652 0.43151 0.93323 0.0
H7246 H 0.35904 0.45423 0.95976 0.0
H7247 H 0.35788 0.44187 0.97836 0.0
H7248 H 0.31549 0.59616 0.72338 0.0
H7249 H 0.30036 0.59545 0.70682 0.0
H7250 H 0.30651 0.63357 0.69955 0.0
H7251 H 0.32147 0.63437 0.7158 0.0
H7252 H 0.28022 0.62393 0.70176 0.0
H7253 H 0.31076 0.60038 0.66876 0.0
H7254 H 0.30922 0.59501 0.68425 0.0
H7255 H 0.31709 0.60898 0.68127 0.0
C7256 C 0.31351 0.60438 0.71828 0.0
C7257 C 0.3197 0.6153 0.72081 0.0
C7258 C 0.30492 0.60395 0.70886 0.0
C7259 C 0.30241 0.61446 0.702 0.0
C7260 C 0.30835 0.62538 0.70476 0.0
H7261 H 0.27178 0.65479 0.64728 0.0
H7262 H 0.28045 0.64494 0.66521 0.0
C7263 C 0.31693 0.6258 0.71403 0.0
C7264 C 0.29395 0.61438 0.6916 0.0
H7265 H 0.29413 0.61116 0.66066 0.0
C7266 C 0.28304 0.62081 0.69281 0.0
C7267 C 0.29767 0.61026 0.67999 0.0
C7268 C 0.30932 0.60325 0.67837 0.0
C7269 C 0.27622 0.62406 0.68253 0.0
C7270 C 0.28058 0.62098 0.67081 0.0
C7271 C 0.2909 0.6136 0.66968 0.0
C7272 C 0.27547 0.62666 0.65973 0.0
C7273 C 0.26473 0.63129 0.68428 0.0
C7274 C 0.27022 0.61958 0.65049 0.0
C7275 C 0.26528 0.6252 0.64016 0.0
C7276 C 0.26566 0.63796 0.6389 0.0
C7277 C 0.27129 0.64495 0.648 0.0
C7278 C 0.27617 0.63935 0.6583 0.0
H7279 H 0.26066 0.62955 0.69338 0.0
H7280 H 0.26685 0.64116 0.68368 0.0
H7281 H 0.25794 0.62906 0.67713 0.0
H7282 H 0.26974 0.60976 0.65139 0.0
H7283 H 0.26102 0.61957 0.63328 0.0
H7284 H 0.88758 0.07879 0.02917 0.0
H7285 H 0.8895 0.06635 0.04752 0.0
H7286 H 0.85862 0.04495 0.0364 0.0
H7287 H 0.85685 0.05718 0.01779 0.0
H7288 H 0.87297 0.06339 0.06587 0.0
H7289 H 0.88368 0.0189 0.04398 0.0
H7290 H 0.88416 0.03312 0.03573 0.0
H7291 H 0.86987 0.02598 0.039 0.0
C7292 C 0.88126 0.07137 0.03057 0.0
C7293 C 0.87209 0.06892 0.02205 0.0
C7294 C 0.88234 0.0643 0.04107 0.0
C7295 C 0.87426 0.05468 0.04326 0.0
C7296 C 0.86508 0.05219 0.03477 0.0
H7297 H 0.87504 0.0085 0.10901 0.0
H7298 H 0.86732 0.01991 0.09136 0.0
C7299 C 0.86406 0.0592 0.02417 0.0
C7300 C 0.87545 0.04749 0.0546 0.0
H7301 H 0.88246 0.01919 0.06545 0.0
C7302 C 0.87492 0.0537 0.06579 0.0
C7303 C 0.87799 0.03485 0.05443 0.0
C7304 C 0.87906 0.0278 0.04265 0.0
C7305 C 0.87725 0.04767 0.0768 0.0
C7306 C 0.88011 0.03516 0.07657 0.0
C7307 C 0.88017 0.02881 0.06549 0.0
C7308 C 0.88438 0.02882 0.08758 0.0
C7309 C 0.87703 0.05473 0.0886 0.0
C7310 C 0.89646 0.03018 0.0912 0.0
C7311 C 0.90091 0.02366 0.10114 0.0
C7312 C 0.8933 0.01572 0.10765 0.0
C7313 C 0.88109 0.01459 0.10417 0.0
C7314 C 0.87667 0.02105 0.09411 0.0
H7315 H 0.87298 0.06393 0.08745 0.0
H7316 H 0.87182 0.04966 0.09562 0.0
H7317 H 0.88643 0.05581 0.09202 0.0
H7318 H 0.90251 0.03614 0.08619 0.0
H7319 H 0.91034 0.02474 0.10364 0.0
H7320 H 0.73504 0.12069 0.863 0.0
H7321 H 0.72621 0.11106 0.84486 0.0
H7322 H 0.71554 0.1464 0.83138 0.0
H7323 H 0.72435 0.15607 0.84933 0.0
H7324 H 0.70207 0.1123 0.83626 0.0
H7325 H 0.73405 0.13138 0.80251 0.0
H7326 H 0.7373 0.131 0.81867 0.0
H7327 H 0.72805 0.14296 0.81235 0.0
C7328 C 0.7308 0.12639 0.85617 0.0
C7329 C 0.73043 0.13914 0.85755 0.0
C7330 C 0.7258 0.12088 0.84581 0.0
C7331 C 0.7205 0.12806 0.83668 0.0
C7332 C 0.71989 0.14074 0.83819 0.0
H7333 H 0.67097 0.13498 0.78349 0.0
H7334 H 0.68642 0.13441 0.79931 0.0
C7335 C 0.72483 0.14624 0.84851 0.0
C7336 C 0.71507 0.12245 0.82572 0.0
H7337 H 0.71412 0.12584 0.79482 0.0
C7338 C 0.70491 0.11491 0.82716 0.0
C7339 C 0.71892 0.12575 0.81386 0.0
C7340 C 0.73026 0.13311 0.81174 0.0
C7341 C 0.69778 0.11161 0.81709 0.0
C7342 C 0.70097 0.11596 0.80541 0.0
C7343 C 0.71172 0.12257 0.80384 0.0
C7344 C 0.6921 0.11597 0.79538 0.0
C7345 C 0.68634 0.10436 0.81906 0.0
C7346 C 0.69032 0.10576 0.78789 0.0
C7347 C 0.68146 0.10606 0.77874 0.0
C7348 C 0.67429 0.11654 0.7771 0.0
C7349 C 0.67629 0.12674 0.78456 0.0
C7350 C 0.68513 0.12646 0.79358 0.0
H7351 H 0.68559 0.10089 0.82855 0.0
H7352 H 0.67836 0.1102 0.81709 0.0
H7353 H 0.68607 0.09652 0.81267 0.0
H7354 H 0.69567 0.09759 0.78921 0.0
H7355 H 0.68009 0.09806 0.77311 0.0
H7356 H 0.83425 0.86896 0.28992 0.0
H7357 H 0.82031 0.86825 0.3071 0.0
H7358 H 0.79803 0.89577 0.29018 0.0
H7359 H 0.81203 0.89651 0.27274 0.0
H7360 H 0.81193 0.88733 0.32321 0.0
H7361 H 0.77531 0.86575 0.29558 0.0
H7362 H 0.79079 0.86637 0.29031 0.0
H7363 H 0.78166 0.87989 0.29025 0.0
C7364 C 0.82643 0.87493 0.28984 0.0
C7365 C 0.82416 0.88271 0.27992 0.0
C7366 C 0.81851 0.87455 0.2997 0.0
C7367 C 0.80813 0.88188 0.29984 0.0
C7368 C 0.80597 0.88996 0.29015 0.0
H7369 H 0.76142 0.87502 0.36496 0.0
H7370 H 0.77257 0.88469 0.3482 0.0
C7371 C 0.81396 0.89039 0.28024 0.0
C7372 C 0.79937 0.88037 0.30991 0.0
H7373 H 0.77261 0.8664 0.31677 0.0
C7374 C 0.8032 0.88301 0.32183 0.0
C7375 C 0.78807 0.87463 0.308 0.0
C7376 C 0.78366 0.87141 0.29538 0.0
C7377 C 0.79627 0.8795 0.33196 0.0
C7378 C 0.78523 0.87328 0.33005 0.0
C7379 C 0.7811 0.87119 0.31813 0.0
C7380 C 0.7785 0.86766 0.34023 0.0
C7381 C 0.80111 0.8818 0.34462 0.0
C7382 C 0.77812 0.85493 0.34121 0.0
C7383 C 0.77181 0.84939 0.35072 0.0
C7384 C 0.76568 0.85652 0.3594 0.0
C7385 C 0.76608 0.8693 0.35842 0.0
C7386 C 0.77245 0.87484 0.34889 0.0
H7387 H 0.81048 0.88549 0.34449 0.0
H7388 H 0.79518 0.88845 0.34936 0.0
H7389 H 0.80105 0.87322 0.35001 0.0
H7390 H 0.78277 0.84926 0.33459 0.0
H7391 H 0.77165 0.83953 0.35121 0.0
H7392 H 0.46034 0.37104 0.0902 0.0
H7393 H 0.44178 0.37326 0.07831 0.0
H7394 H 0.4628 0.37329 0.04509 0.0
H7395 H 0.48135 0.37028 0.057 0.0
H7396 H 0.4352 0.39119 0.0655 0.0
H7397 H 0.43631 0.35143 0.03464 0.0
H7398 H 0.44648 0.35286 0.04744 0.0
H7399 H 0.44989 0.36025 0.03316 0.0
C7400 C 0.46096 0.37137 0.08034 0.0
C7401 C 0.47223 0.37055 0.07448 0.0
C7402 C 0.45036 0.37261 0.07355 0.0
C7403 C 0.45082 0.3733 0.06077 0.0
C7404 C 0.46212 0.37241 0.0549 0.0
H7405 H 0.39909 0.41278 0.01782 0.0
H7406 H 0.41591 0.40556 0.03027 0.0
C7407 C 0.47273 0.37083 0.0617 0.0
C7408 C 0.43962 0.37605 0.05377 0.0
H7409 H 0.42321 0.36797 0.02863 0.0
C7410 C 0.43252 0.38598 0.05754 0.0
C7411 C 0.43594 0.36916 0.04349 0.0
C7412 C 0.44249 0.35776 0.03954 0.0
C7413 C 0.42208 0.38943 0.05116 0.0
C7414 C 0.41892 0.38313 0.04036 0.0
C7415 C 0.42576 0.37294 0.03679 0.0
C7416 C 0.40883 0.38728 0.03245 0.0
C7417 C 0.41449 0.39972 0.05619 0.0
C7418 C 0.39952 0.37925 0.02904 0.0
C7419 C 0.38999 0.3833 0.02165 0.0
C7420 C 0.38961 0.39546 0.01766 0.0
C7421 C 0.39903 0.40341 0.02094 0.0
C7422 C 0.40862 0.39931 0.02811 0.0
H7423 H 0.41554 0.40051 0.06624 0.0
H7424 H 0.41754 0.40845 0.05211 0.0
H7425 H 0.40473 0.39844 0.05408 0.0
H7426 H 0.39955 0.36989 0.0322 0.0
H7427 H 0.38285 0.37697 0.01922 0.0
H7428 H 0.33074 0.6426 0.77355 0.0
H7429 H 0.33413 0.66026 0.78693 0.0
H7430 H 0.36803 0.66748 0.76879 0.0
H7431 H 0.36481 0.64992 0.7555 0.0
H7432 H 0.35773 0.66443 0.80204 0.0
H7433 H 0.34633 0.70009 0.76777 0.0
H7434 H 0.34044 0.68473 0.76691 0.0
H7435 H 0.35588 0.68774 0.76278 0.0
C7436 C 0.3389 0.64797 0.77243 0.0
C7437 C 0.3475 0.64493 0.76348 0.0
C7438 C 0.34081 0.658 0.78006 0.0
C7439 C 0.35125 0.66515 0.7787 0.0
C7440 C 0.35986 0.66209 0.76985 0.0
H7441 H 0.38259 0.72989 0.80992 0.0
H7442 H 0.37698 0.71238 0.79723 0.0
C7443 C 0.35802 0.65205 0.76231 0.0
C7444 C 0.35339 0.67575 0.78663 0.0
H7445 H 0.35513 0.70677 0.78628 0.0
C7446 C 0.35705 0.67371 0.79869 0.0
C7447 C 0.3526 0.68776 0.78209 0.0
C7448 C 0.34853 0.6903 0.7692 0.0
C7449 C 0.36029 0.68345 0.8063 0.0
C7450 C 0.35953 0.6955 0.80175 0.0
C7451 C 0.3557 0.69752 0.78972 0.0
C7452 C 0.36276 0.70615 0.80932 0.0
C7453 C 0.36489 0.68071 0.81897 0.0
C7454 C 0.35647 0.70852 0.82016 0.0
C7455 C 0.3597 0.71842 0.82743 0.0
C7456 C 0.36917 0.72621 0.82389 0.0
C7457 C 0.37527 0.72402 0.81287 0.0
C7458 C 0.37207 0.71404 0.80563 0.0
H7459 H 0.36801 0.67112 0.81983 0.0
H7460 H 0.3725 0.68685 0.82146 0.0
H7461 H 0.35746 0.68214 0.82563 0.0
H7462 H 0.34905 0.70271 0.823 0.0
H7463 H 0.35477 0.71996 0.83584 0.0
H7464 H 0.09927 0.58498 0.52045 0.0
H7465 H 0.08132 0.5928 0.53081 0.0
H7466 H 0.09193 0.6296 0.52204 0.0
H7467 H 0.11004 0.62183 0.51157 0.0
H7468 H 0.08436 0.62516 0.54729 0.0
H7469 H 0.05141 0.60815 0.51313 0.0
H7470 H 0.06219 0.59689 0.51801 0.0
H7471 H 0.06732 0.6101 0.5098 0.0
C7472 C 0.09783 0.59474 0.52072 0.0
C7473 C 0.10603 0.60279 0.51514 0.0
C7474 C 0.08753 0.59918 0.52659 0.0
C7475 C 0.08523 0.61174 0.52699 0.0
C7476 C 0.09353 0.61986 0.52171 0.0
H7477 H 0.01465 0.63587 0.55523 0.0
H7478 H 0.03277 0.6345 0.54235 0.0
C7479 C 0.10385 0.61541 0.51576 0.0
C7480 C 0.07419 0.61623 0.53312 0.0
H7481 H 0.04342 0.61336 0.53276 0.0
C7482 C 0.07539 0.62277 0.54404 0.0
C7483 C 0.06252 0.61326 0.52873 0.0
C7484 C 0.06073 0.60681 0.51671 0.0
C7485 C 0.0652 0.62577 0.55108 0.0
C7486 C 0.0536 0.62198 0.54713 0.0
C7487 C 0.05235 0.61612 0.53584 0.0
C7488 C 0.04277 0.62318 0.55498 0.0
C7489 C 0.06696 0.63276 0.5628 0.0
C7490 C 0.04235 0.61707 0.56621 0.0
C7491 C 0.03203 0.61777 0.57352 0.0
C7492 C 0.02193 0.62456 0.56971 0.0
C7493 C 0.02231 0.63057 0.5584 0.0
C7494 C 0.03265 0.62984 0.55106 0.0
H7495 H 0.07552 0.63809 0.56266 0.0
H7496 H 0.05928 0.63908 0.56449 0.0
H7497 H 0.06746 0.62624 0.57052 0.0
H7498 H 0.04997 0.61164 0.56927 0.0
H7499 H 0.03201 0.61301 0.58218 0.0
H7500 H 0.11199 0.26893 0.30941 0.0
H7501 H 0.11829 0.28599 0.29648 0.0
H7502 H 0.1466 0.29491 0.32211 0.0
H7503 H 0.14019 0.2781 0.33519 0.0
H7504 H 0.13369 0.31482 0.31512 0.0
H7505 H 0.14789 0.28811 0.27461 0.0
H7506 H 0.13264 0.28499 0.27934 0.0
H7507 H 0.14505 0.28114 0.28925 0.0
C7508 C 0.11959 0.2745 0.31224 0.0
C7509 C 0.12563 0.27219 0.32327 0.0
C7510 C 0.12323 0.28417 0.30482 0.0
C7511 C 0.13305 0.29156 0.30825 0.0
C7512 C 0.13905 0.28927 0.31928 0.0
H7513 H 0.16683 0.35484 0.2735 0.0
H7514 H 0.16273 0.33748 0.28704 0.0
C7515 C 0.13537 0.27967 0.32673 0.0
C7516 C 0.13681 0.30196 0.30059 0.0
H7517 H 0.1462 0.30964 0.27196 0.0
C7518 C 0.13655 0.31369 0.30572 0.0
C7519 C 0.14058 0.30041 0.28836 0.0
C7520 C 0.14168 0.28797 0.28259 0.0
C7521 C 0.13962 0.32397 0.2988 0.0
C7522 C 0.14307 0.32243 0.28651 0.0
C7523 C 0.14352 0.31071 0.28142 0.0
C7524 C 0.14561 0.33293 0.27857 0.0
C7525 C 0.13882 0.33646 0.30452 0.0
C7526 C 0.13736 0.33597 0.26937 0.0
C7527 C 0.13963 0.34583 0.26171 0.0
C7528 C 0.15026 0.35274 0.26306 0.0
C7529 C 0.15856 0.34966 0.27227 0.0
C7530 C 0.15623 0.3398 0.28001 0.0
H7531 H 0.13454 0.3362 0.31369 0.0
H7532 H 0.14807 0.34031 0.30547 0.0
H7533 H 0.13354 0.3427 0.29858 0.0
H7534 H 0.12913 0.33072 0.26815 0.0
H7535 H 0.13308 0.34797 0.25467 0.0
H7536 H 0.46474 0.61159 0.41361 0.0
H7537 H 0.44675 0.61036 0.42644 0.0
H7538 H 0.46344 0.63425 0.45277 0.0
H7539 H 0.48165 0.63548 0.43995 0.0
H7540 H 0.4526 0.61334 0.46291 0.0
H7541 H 0.42107 0.63697 0.43157 0.0
H7542 H 0.42932 0.62494 0.4242 0.0
H7543 H 0.43734 0.63797 0.43005 0.0
C7544 C 0.46461 0.6166 0.42213 0.0
C7545 C 0.47459 0.62367 0.42577 0.0
C7546 C 0.45428 0.61597 0.42939 0.0
C7547 C 0.45368 0.62244 0.44039 0.0
C7548 C 0.46371 0.62931 0.44422 0.0
H7549 H 0.38556 0.62119 0.48241 0.0
H7550 H 0.40371 0.62903 0.47209 0.0
C7551 C 0.47409 0.62997 0.43692 0.0
C7552 C 0.44271 0.62146 0.44806 0.0
H7553 H 0.41192 0.62419 0.44693 0.0
C7554 C 0.44372 0.61591 0.45953 0.0
C7555 C 0.43117 0.625 0.44369 0.0
C7556 C 0.42965 0.63167 0.43175 0.0
C7557 C 0.43339 0.61306 0.4664 0.0
C7558 C 0.42181 0.61574 0.46158 0.0
C7559 C 0.42083 0.62202 0.4505 0.0
C7560 C 0.41067 0.61119 0.46747 0.0
C7561 C 0.4349 0.60691 0.47861 0.0
C7562 C 0.40849 0.59862 0.46795 0.0
C7563 C 0.39815 0.59413 0.47371 0.0
C7564 C 0.38981 0.60216 0.47912 0.0
C7565 C 0.39185 0.61479 0.47835 0.0
C7566 C 0.4022 0.61928 0.4725 0.0
H7567 H 0.44412 0.60838 0.4824 0.0
H7568 H 0.42811 0.61033 0.48526 0.0
H7569 H 0.43351 0.59695 0.47751 0.0
H7570 H 0.41485 0.59226 0.46392 0.0
H7571 H 0.39683 0.58436 0.47411 0.0
H7572 H 0.1417 0.71816 0.16207 0.0
H7573 H 0.14672 0.70111 0.17552 0.0
H7574 H 0.11797 0.71165 0.19995 0.0
H7575 H 0.11291 0.72886 0.18658 0.0
H7576 H 0.15121 0.70303 0.20404 0.0
H7577 H 0.1131 0.67396 0.1877 0.0
H7578 H 0.11961 0.68587 0.17838 0.0
H7579 H 0.11009 0.68976 0.19103 0.0
C7580 C 0.13648 0.7169 0.17033 0.0
C7581 C 0.12689 0.7248 0.17327 0.0
C7582 C 0.13938 0.70718 0.178 0.0
C7583 C 0.13267 0.70517 0.18863 0.0
C7584 C 0.12321 0.71312 0.19172 0.0
H7585 H 0.12933 0.64763 0.24144 0.0
H7586 H 0.12601 0.66517 0.22821 0.0
C7587 C 0.12035 0.72291 0.1841 0.0
C7588 C 0.1354 0.69454 0.19634 0.0
H7589 H 0.12535 0.66604 0.20339 0.0
C7590 C 0.14561 0.69491 0.20393 0.0
C7591 C 0.12803 0.68404 0.19607 0.0
C7592 C 0.1171 0.68325 0.18783 0.0
C7593 C 0.14851 0.68505 0.21154 0.0
C7594 C 0.14114 0.6745 0.21126 0.0
C7595 C 0.13099 0.67413 0.20355 0.0
C7596 C 0.14344 0.66391 0.21927 0.0
C7597 C 0.1592 0.68615 0.22004 0.0
C7598 C 0.15432 0.65732 0.21853 0.0
C7599 C 0.15629 0.6473 0.22617 0.0
C7600 C 0.14734 0.64368 0.23452 0.0
C7601 C 0.13641 0.65021 0.23509 0.0
C7602 C 0.13448 0.66023 0.22754 0.0
H7603 H 0.162 0.6958 0.22131 0.0
H7604 H 0.15709 0.68218 0.22911 0.0
H7605 H 0.167 0.6811 0.21614 0.0
H7606 H 0.16124 0.65986 0.21201 0.0
H7607 H 0.16477 0.64236 0.22549 0.0
H7608 H 0.10215 0.41127 0.97244 0.0
H7609 H 0.08418 0.40378 0.96187 0.0
H7610 H 0.09275 0.36702 0.97278 0.0
H7611 H 0.11087 0.37445 0.98346 0.0
H7612 H 0.08543 0.37073 0.94699 0.0
H7613 H 0.0536 0.39074 0.98068 0.0
H7614 H 0.06497 0.40114 0.97522 0.0
H7615 H 0.06941 0.38806 0.98401 0.0
C7616 C 0.10029 0.40157 0.97255 0.0
C7617 C 0.10787 0.39345 0.97886 0.0
C7618 C 0.08998 0.39733 0.96655 0.0
C7619 C 0.08707 0.3849 0.96675 0.0
C7620 C 0.09484 0.37667 0.97263 0.0
H7621 H 0.01544 0.36158 0.94067 0.0
H7622 H 0.03384 0.36307 0.95315 0.0
C7623 C 0.10516 0.38092 0.9787 0.0
C7624 C 0.0758 0.38067 0.96087 0.0
H7625 H 0.04516 0.38466 0.96156 0.0
C7626 C 0.0766 0.37361 0.95025 0.0
C7627 C 0.06431 0.38429 0.96528 0.0
C7628 C 0.06296 0.39138 0.97699 0.0
C7629 C 0.0662 0.37065 0.94351 0.0
C7630 C 0.05479 0.37499 0.94748 0.0
C7631 C 0.05394 0.38145 0.95848 0.0
C7632 C 0.04379 0.37374 0.93991 0.0
C7633 C 0.0675 0.36308 0.9321 0.0
C7634 C 0.04325 0.37945 0.92848 0.0
C7635 C 0.03278 0.3787 0.92141 0.0
C7636 C 0.02263 0.37224 0.92566 0.0
C7637 C 0.02313 0.36662 0.93717 0.0
C7638 C 0.03362 0.36742 0.94428 0.0
H7639 H 0.07596 0.35758 0.93226 0.0
H7640 H 0.05966 0.35685 0.93093 0.0
H7641 H 0.0679 0.36921 0.92407 0.0
H7642 H 0.05091 0.3846 0.92508 0.0
H7643 H 0.03267 0.38314 0.91259 0.0
H7644 H 0.35503 0.27684 0.66215 0.0
H7645 H 0.34851 0.29396 0.67482 0.0
H7646 H 0.37586 0.28495 0.70142 0.0
H7647 H 0.38248 0.26774 0.68878 0.0
H7648 H 0.3409 0.29376 0.7008 0.0
H7649 H 0.38198 0.32143 0.69091 0.0
H7650 H 0.3774 0.30872 0.68151 0.0
H7651 H 0.38464 0.30605 0.69593 0.0
C7652 C 0.35963 0.27846 0.67072 0.0
C7653 C 0.36931 0.27102 0.67447 0.0
C7654 C 0.35587 0.28821 0.67794 0.0
C7655 C 0.36178 0.29072 0.68894 0.0
C7656 C 0.37128 0.28317 0.69286 0.0
H7657 H 0.3606 0.34612 0.74319 0.0
H7658 H 0.36402 0.32853 0.73013 0.0
C7659 C 0.37502 0.27336 0.68567 0.0
C7660 C 0.35823 0.30146 0.69617 0.0
H7661 H 0.36841 0.32919 0.70565 0.0
C7662 C 0.34685 0.30156 0.70186 0.0
C7663 C 0.36603 0.31158 0.69737 0.0
C7664 C 0.37817 0.31206 0.69104 0.0
C7665 C 0.34323 0.31141 0.70916 0.0
C7666 C 0.35113 0.32146 0.71054 0.0
C7667 C 0.36239 0.32145 0.70458 0.0
C7668 C 0.34835 0.33178 0.71872 0.0
C7669 C 0.3312 0.3108 0.71567 0.0
C7670 C 0.33834 0.33941 0.71666 0.0
C7671 C 0.33629 0.34949 0.72422 0.0
C7672 C 0.34433 0.35209 0.7338 0.0
C7673 C 0.35427 0.34437 0.73584 0.0
C7674 C 0.35624 0.33431 0.72839 0.0
H7675 H 0.32748 0.30139 0.7158 0.0
H7676 H 0.33206 0.31409 0.72521 0.0
H7677 H 0.3246 0.31675 0.7109 0.0
H7678 H 0.33228 0.33773 0.70908 0.0
H7679 H 0.32859 0.35535 0.72243 0.0
H7680 H 0.05393 0.48128 0.36752 0.0
H7681 H 0.0417 0.46337 0.37286 0.0
H7682 H 0.0742 0.44159 0.37505 0.0
H7683 H 0.08643 0.45954 0.37034 0.0
H7684 H 0.03799 0.44138 0.36336 0.0
H7685 H 0.06032 0.43615 0.40824 0.0
H7686 H 0.06272 0.4493 0.39869 0.0
H7687 H 0.07102 0.43541 0.39598 0.0
C7688 C 0.05842 0.47264 0.3691 0.0
C7689 C 0.0711 0.47178 0.36876 0.0
C7690 C 0.05145 0.46243 0.37214 0.0
C7691 C 0.05708 0.45124 0.3747 0.0
C7692 C 0.0697 0.45024 0.37355 0.0
H7693 H 0.02078 0.38105 0.38074 0.0
H7694 H 0.03178 0.39906 0.37356 0.0
C7695 C 0.07667 0.46047 0.37079 0.0
C7696 C 0.04985 0.44069 0.37894 0.0
H7697 H 0.04801 0.41958 0.40169 0.0
C7698 C 0.04011 0.43664 0.37178 0.0
C7699 C 0.05247 0.43469 0.39007 0.0
C7700 C 0.06212 0.43919 0.39875 0.0
C7701 C 0.03306 0.4266 0.37533 0.0
C7702 C 0.03613 0.4202 0.38611 0.0
C7703 C 0.04575 0.42438 0.39335 0.0
C7704 C 0.02938 0.40929 0.39029 0.0
C7705 C 0.02225 0.42317 0.36763 0.0
C7706 C 0.02479 0.40886 0.40222 0.0
C7707 C 0.01884 0.39847 0.40644 0.0
C7708 C 0.01724 0.38837 0.39875 0.0
C7709 C 0.02182 0.38877 0.38681 0.0
C7710 C 0.02798 0.3991 0.38266 0.0
H7711 H 0.01894 0.43104 0.36219 0.0
H7712 H 0.0249 0.41588 0.36115 0.0
H7713 H 0.01467 0.41975 0.37335 0.0
H7714 H 0.0258 0.41659 0.40829 0.0
H7715 H 0.01535 0.39842 0.41568 0.0
H7716 H 0.2868 0.33906 0.11694 0.0
H7717 H 0.30547 0.32732 0.11907 0.0
H7718 H 0.28448 0.29437 0.12335 0.0
H7719 H 0.26579 0.30607 0.12037 0.0
H7720 H 0.31282 0.31647 0.13786 0.0
H7721 H 0.31007 0.28153 0.10174 0.0
H7722 H 0.29992 0.29441 0.10222 0.0
H7723 H 0.29687 0.281 0.11122 0.0
C7724 C 0.28621 0.32927 0.11814 0.0
C7725 C 0.27492 0.32342 0.11857 0.0
C7726 C 0.29688 0.32256 0.11934 0.0
C7727 C 0.29645 0.30991 0.12126 0.0
C7728 C 0.28512 0.30404 0.12151 0.0
H7729 H 0.34883 0.27072 0.16337 0.0
H7730 H 0.33206 0.2827 0.15531 0.0
C7731 C 0.27443 0.31073 0.11994 0.0
C7732 C 0.30776 0.3032 0.12426 0.0
H7733 H 0.32373 0.27718 0.1184 0.0
C7734 C 0.31526 0.30797 0.13344 0.0
C7735 C 0.31114 0.2922 0.1184 0.0
C7736 C 0.30413 0.28708 0.10776 0.0
C7737 C 0.32578 0.30191 0.1372 0.0
C7738 C 0.32863 0.29045 0.13203 0.0
C7739 C 0.32142 0.28586 0.12252 0.0
C7740 C 0.33874 0.28291 0.13674 0.0
C7741 C 0.33376 0.30793 0.14662 0.0
C7742 C 0.34784 0.2786 0.12889 0.0
C7743 C 0.35736 0.27151 0.13346 0.0
C7744 C 0.35793 0.26869 0.14595 0.0
C7745 C 0.34874 0.2729 0.15374 0.0
C7746 C 0.33917 0.27981 0.14915 0.0
H7747 H 0.33281 0.31801 0.14635 0.0
H7748 H 0.33099 0.30485 0.15585 0.0
H7749 H 0.34345 0.30559 0.14523 0.0
H7750 H 0.34764 0.28081 0.11926 0.0
H7751 H 0.36431 0.26834 0.12725 0.0
H7752 H 0.44529 0.51526 0.8569 0.0
H7753 H 0.45849 0.53318 0.85917 0.0
H7754 H 0.43142 0.5505 0.88163 0.0
H7755 H 0.41825 0.53284 0.87937 0.0
H7756 H 0.44152 0.56553 0.86263 0.0
H7757 H 0.47626 0.54257 0.89154 0.0
H7758 H 0.47232 0.5356 0.87722 0.0
H7759 H 0.46136 0.53619 0.88928 0.0
C7760 C 0.4422 0.52291 0.86232 0.0
C7761 C 0.43078 0.52265 0.86801 0.0
C7762 C 0.44973 0.53309 0.86362 0.0
C7763 C 0.44591 0.54309 0.87062 0.0
C7764 C 0.43449 0.54287 0.87617 0.0
H7765 H 0.47505 0.60045 0.91181 0.0
H7766 H 0.46609 0.58215 0.90289 0.0
C7767 C 0.42701 0.53275 0.87491 0.0
C7768 C 0.45373 0.55384 0.87249 0.0
H7769 H 0.47802 0.56373 0.88896 0.0
C7770 C 0.44963 0.56516 0.8682 0.0
C7771 C 0.46424 0.55323 0.87982 0.0
C7772 C 0.46884 0.54128 0.88482 0.0
C7773 C 0.45547 0.57601 0.87153 0.0
C7774 C 0.46572 0.57544 0.87922 0.0
C7775 C 0.47014 0.56408 0.88305 0.0
C7776 C 0.47126 0.58655 0.88437 0.0
C7777 C 0.45023 0.58802 0.86737 0.0
C7778 C 0.47711 0.59507 0.87688 0.0
C7779 C 0.48219 0.60559 0.88194 0.0
C7780 C 0.48153 0.60768 0.89458 0.0
C7781 C 0.47567 0.59911 0.90204 0.0
C7782 C 0.4706 0.58863 0.89697 0.0
H7783 H 0.44115 0.58692 0.86313 0.0
H7784 H 0.44945 0.59444 0.87516 0.0
H7785 H 0.45636 0.59219 0.86052 0.0
H7786 H 0.47783 0.59353 0.86714 0.0
H7787 H 0.48672 0.612 0.87597 0.0
H7788 H 0.23186 0.69004 0.60926 0.0
H7789 H 0.21413 0.70341 0.61127 0.0
H7790 H 0.19655 0.67648 0.63379 0.0
H7791 H 0.2141 0.66309 0.63181 0.0
H7792 H 0.1818 0.68678 0.61442 0.0
H7793 H 0.20467 0.7216 0.64341 0.0
H7794 H 0.21189 0.71748 0.62928 0.0
H7795 H 0.21079 0.70648 0.64134 0.0
C7796 C 0.22421 0.687 0.61466 0.0
C7797 C 0.22438 0.67556 0.62044 0.0
C7798 C 0.21412 0.69464 0.61579 0.0
C7799 C 0.2041 0.69092 0.62272 0.0
C7800 C 0.20421 0.67947 0.62839 0.0
H7801 H 0.14642 0.72311 0.66107 0.0
H7802 H 0.16431 0.7128 0.65306 0.0
C7803 C 0.21427 0.67187 0.62729 0.0
C7804 C 0.19347 0.69895 0.62436 0.0
H7805 H 0.18388 0.72421 0.63971 0.0
C7806 C 0.18224 0.69507 0.61979 0.0
C7807 C 0.19415 0.7097 0.63142 0.0
C7808 C 0.20599 0.71409 0.63674 0.0
C7809 C 0.17155 0.70146 0.62246 0.0
C7810 C 0.17219 0.712 0.62983 0.0
C7811 C 0.18348 0.71612 0.63403 0.0
C7812 C 0.16117 0.71817 0.63434 0.0
C7813 C 0.1596 0.69658 0.61791 0.0
C7814 C 0.15348 0.72457 0.62643 0.0
C7815 C 0.14319 0.73048 0.63098 0.0
C7816 C 0.14051 0.73008 0.64352 0.0
C7817 C 0.14822 0.72359 0.65137 0.0
C7818 C 0.15847 0.71772 0.64682 0.0
H7819 H 0.16052 0.68741 0.61371 0.0
H7820 H 0.15297 0.69601 0.62552 0.0
H7821 H 0.15585 0.7029 0.61097 0.0
H7822 H 0.1555 0.7251 0.61677 0.0
H7823 H 0.13743 0.73547 0.62473 0.0
H7824 H 0.05377 0.51692 0.14115 0.0
H7825 H 0.04101 0.53521 0.13967 0.0
H7826 H 0.06508 0.54998 0.11242 0.0
H7827 H 0.07787 0.53196 0.11394 0.0
H7828 H 0.05876 0.5665 0.13142 0.0
H7829 H 0.01865 0.54373 0.11048 0.0
H7830 H 0.02442 0.53756 0.12453 0.0
H7831 H 0.03337 0.53656 0.11091 0.0
C7832 C 0.05628 0.52406 0.13482 0.0
C7833 C 0.06678 0.52302 0.12763 0.0
C7834 C 0.049 0.53447 0.13398 0.0
C7835 C 0.05211 0.54388 0.1259 0.0
C7836 C 0.06257 0.54282 0.11874 0.0
H7837 H 0.02073 0.60011 0.08571 0.0
H7838 H 0.03026 0.58217 0.09473 0.0
C7839 C 0.06984 0.53249 0.11959 0.0
C7840 C 0.04455 0.55489 0.12463 0.0
H7841 H 0.01825 0.56507 0.11188 0.0
C7842 C 0.0498 0.56622 0.12736 0.0
C7843 C 0.0329 0.5544 0.1193 0.0
C7844 C 0.02697 0.54245 0.11605 0.0
C7845 C 0.04394 0.57714 0.12433 0.0
C7846 C 0.03254 0.57664 0.11853 0.0
C7847 C 0.02701 0.56533 0.11635 0.0
C7848 C 0.02685 0.58764 0.11337 0.0
C7849 C 0.05026 0.58911 0.12667 0.0
C7850 C 0.02188 0.59664 0.12093 0.0
C7851 C 0.01643 0.60694 0.1158 0.0
C7852 C 0.01591 0.60833 0.10306 0.0
C7853 C 0.02102 0.59932 0.09556 0.0
C7854 C 0.02641 0.58904 0.10068 0.0
H7855 H 0.05962 0.58784 0.13018 0.0
H7856 H 0.05066 0.59456 0.11815 0.0
H7857 H 0.04504 0.59444 0.13348 0.0
H7858 H 0.0221 0.59563 0.13076 0.0
H7859 H 0.01252 0.61373 0.1218 0.0
H7860 H 0.21505 0.33418 0.86475 0.0
H7861 H 0.19708 0.32139 0.86247 0.0
H7862 H 0.21514 0.29209 0.88136 0.0
H7863 H 0.23324 0.30489 0.88374 0.0
H7864 H 0.20339 0.28572 0.85848 0.0
H7865 H 0.17312 0.3109 0.89008 0.0
H7866 H 0.18098 0.32038 0.87929 0.0
H7867 H 0.18944 0.31215 0.89062 0.0
C7868 C 0.21522 0.32502 0.86843 0.0
C7869 C 0.22554 0.32052 0.87443 0.0
C7870 C 0.20491 0.31776 0.8672 0.0
C7871 C 0.20475 0.30589 0.87192 0.0
C7872 C 0.21509 0.30129 0.87776 0.0
H7873 H 0.13871 0.26123 0.87133 0.0
H7874 H 0.15709 0.27179 0.8782 0.0
C7875 C 0.2254 0.30859 0.87909 0.0
C7876 C 0.1939 0.2982 0.87023 0.0
H7877 H 0.16358 0.29702 0.87627 0.0
C7878 C 0.19471 0.28807 0.86248 0.0
C7879 C 0.18265 0.30124 0.87561 0.0
C7880 C 0.18146 0.31169 0.88446 0.0
C7881 C 0.18441 0.28123 0.85948 0.0
C7882 C 0.17302 0.28472 0.86427 0.0
C7883 C 0.17231 0.29447 0.87251 0.0
C7884 C 0.16169 0.27871 0.86031 0.0
C7885 C 0.18576 0.27042 0.85108 0.0
C7886 C 0.15808 0.27942 0.84808 0.0
C7887 C 0.14763 0.27346 0.84415 0.0
C7888 C 0.14057 0.26671 0.8524 0.0
C7889 C 0.14399 0.26633 0.86475 0.0
C7890 C 0.15447 0.27233 0.86869 0.0
H7891 H 0.19522 0.26697 0.85095 0.0
H7892 H 0.17963 0.26287 0.85384 0.0
H7893 H 0.18334 0.2732 0.84166 0.0
H7894 H 0.1634 0.28453 0.84154 0.0
H7895 H 0.14519 0.274 0.83459 0.0
H7896 H 0.44374 0.48163 0.63843 0.0
H7897 H 0.45692 0.46381 0.63549 0.0
H7898 H 0.42935 0.4468 0.61342 0.0
H7899 H 0.4162 0.46441 0.61629 0.0
H7900 H 0.44018 0.43164 0.63244 0.0
H7901 H 0.4736 0.45477 0.60212 0.0
H7902 H 0.46991 0.46188 0.61645 0.0
H7903 H 0.45863 0.46089 0.60472 0.0
C7904 C 0.44053 0.47408 0.63295 0.0
C7905 C 0.42898 0.47441 0.62754 0.0
C7906 C 0.44805 0.46395 0.63128 0.0
C7907 C 0.44408 0.45407 0.6242 0.0
C7908 C 0.43253 0.45436 0.61892 0.0
H7909 H 0.47356 0.39638 0.58312 0.0
H7910 H 0.46417 0.4146 0.59174 0.0
C7911 C 0.42506 0.46444 0.62054 0.0
C7912 C 0.45188 0.44338 0.62203 0.0
H7913 H 0.47579 0.43366 0.60492 0.0
C7914 C 0.44809 0.43206 0.62659 0.0
C7915 C 0.46211 0.44405 0.61433 0.0
C7916 C 0.46634 0.45601 0.60903 0.0
C7917 C 0.45402 0.42126 0.62326 0.0
C7918 C 0.46403 0.42189 0.61525 0.0
C7919 C 0.4681 0.43327 0.61107 0.0
C7920 C 0.46976 0.4108 0.61027 0.0
C7921 C 0.44915 0.40923 0.6278 0.0
C7922 C 0.47598 0.40266 0.61787 0.0
C7923 C 0.4813 0.39219 0.61298 0.0
C7924 C 0.48053 0.38978 0.60041 0.0
C7925 C 0.47428 0.39797 0.59284 0.0
C7926 C 0.46896 0.4084 0.59774 0.0
H7927 H 0.44011 0.41021 0.63215 0.0
H7928 H 0.44841 0.40259 0.62019 0.0
H7929 H 0.45549 0.4054 0.63466 0.0
H7930 H 0.47682 0.40446 0.62755 0.0
H7931 H 0.48614 0.38607 0.61902 0.0
H7932 H 0.2655 0.69045 0.3863 0.0
H7933 H 0.28323 0.70385 0.38442 0.0
H7934 H 0.30095 0.67698 0.36193 0.0
H7935 H 0.28341 0.66358 0.36378 0.0
H7936 H 0.31556 0.68709 0.38142 0.0
H7937 H 0.29303 0.72221 0.3525 0.0
H7938 H 0.28572 0.71803 0.36656 0.0
H7939 H 0.28682 0.70711 0.35443 0.0
C7940 C 0.27317 0.68743 0.38093 0.0
C7941 C 0.27305 0.676 0.37513 0.0
C7942 C 0.28326 0.69509 0.37987 0.0
C7943 C 0.29334 0.69139 0.37299 0.0
C7944 C 0.29325 0.67996 0.36729 0.0
H7945 H 0.3514 0.7238 0.33521 0.0
H7946 H 0.33349 0.71331 0.34297 0.0
C7947 C 0.2832 0.67235 0.36832 0.0
C7948 C 0.304 0.69938 0.37147 0.0
H7949 H 0.31383 0.72464 0.35626 0.0
C7950 C 0.31519 0.69541 0.37608 0.0
C7951 C 0.30343 0.71016 0.36445 0.0
C7952 C 0.29165 0.71466 0.35911 0.0
C7953 C 0.32594 0.70173 0.37347 0.0
C7954 C 0.3254 0.71231 0.36614 0.0
C7955 C 0.31416 0.71652 0.36191 0.0
C7956 C 0.33648 0.71848 0.36177 0.0
C7957 C 0.33784 0.69676 0.37806 0.0
C7958 C 0.34411 0.72479 0.36982 0.0
C7959 C 0.3544 0.73079 0.36541 0.0
C7960 C 0.35716 0.73058 0.35288 0.0
C7961 C 0.34954 0.72413 0.3449 0.0
C7962 C 0.33928 0.71816 0.34931 0.0
H7963 H 0.33684 0.68755 0.38217 0.0
H7964 H 0.34452 0.69623 0.37051 0.0
H7965 H 0.34155 0.70299 0.3851 0.0
H7966 H 0.34201 0.72521 0.37946 0.0
H7967 H 0.36008 0.73574 0.37176 0.0
H7968 H 0.38889 0.08289 0.4703 0.0
H7969 H 0.39376 0.06877 0.45376 0.0
H7970 H 0.36506 0.04483 0.46547 0.0
H7971 H 0.36013 0.05889 0.48219 0.0
H7972 H 0.39775 0.03973 0.45716 0.0
H7973 H 0.36059 0.05639 0.42697 0.0
H7974 H 0.36746 0.06608 0.43836 0.0
H7975 H 0.35759 0.05397 0.44296 0.0
C7976 C 0.38364 0.07459 0.4694 0.0
C7977 C 0.3741 0.07199 0.47749 0.0
C7978 C 0.38646 0.06655 0.45999 0.0
C7979 C 0.37974 0.05585 0.45847 0.0
C7980 C 0.37031 0.0531 0.46658 0.0
H7981 H 0.3776 0.0035 0.39996 0.0
H7982 H 0.37366 0.01607 0.41787 0.0
C7983 C 0.36752 0.06111 0.47608 0.0
C7984 C 0.38241 0.04776 0.44811 0.0
H7985 H 0.37313 0.04085 0.4193 0.0
C7986 C 0.39239 0.03991 0.44887 0.0
C7987 C 0.37535 0.04812 0.4374 0.0
C7988 C 0.36465 0.0566 0.43624 0.0
C7989 C 0.39545 0.03222 0.43912 0.0
C7990 C 0.38848 0.03269 0.4283 0.0
C7991 C 0.37847 0.04056 0.4276 0.0
C7992 C 0.39119 0.0249 0.41765 0.0
C7993 C 0.40593 0.02352 0.44057 0.0
C7994 C 0.40233 0.02579 0.41154 0.0
C7995 C 0.40465 0.01855 0.4013 0.0
C7996 C 0.39578 0.01044 0.39699 0.0
C7997 C 0.38461 0.00967 0.40308 0.0
C7998 C 0.38234 0.01684 0.41331 0.0
H7999 H 0.40824 0.02204 0.45033 0.0
H8000 H 0.40388 0.01457 0.43633 0.0
H8001 H 0.41403 0.02738 0.43599 0.0
H8002 H 0.40918 0.03217 0.41459 0.0
H8003 H 0.41331 0.01937 0.39673 0.0
H8004 H 0.86399 0.44158 0.51339 0.0
H8005 H 0.86873 0.45431 0.53119 0.0
H8006 H 0.8917 0.4259 0.54545 0.0
H8007 H 0.88713 0.41318 0.52777 0.0
H8008 H 0.87144 0.43686 0.56154 0.0
H8009 H 0.90403 0.46948 0.54049 0.0
H8010 H 0.89044 0.46567 0.53219 0.0
H8011 H 0.90181 0.45426 0.53458 0.0
C8012 C 0.87013 0.43811 0.52027 0.0
C8013 C 0.87519 0.4264 0.51921 0.0
C8014 C 0.87283 0.44538 0.53039 0.0
C8015 C 0.88058 0.441 0.53953 0.0
C8016 C 0.88572 0.42939 0.53843 0.0
H8017 H 0.9115 0.47781 0.60244 0.0
H8018 H 0.90817 0.46467 0.58465 0.0
C8019 C 0.88309 0.42217 0.52833 0.0
C8020 C 0.88295 0.44827 0.55055 0.0
H8021 H 0.89881 0.47275 0.56111 0.0
C8022 C 0.87741 0.44472 0.56148 0.0
C8023 C 0.89086 0.45837 0.55037 0.0
C8024 C 0.89722 0.46222 0.53882 0.0
C8025 C 0.87945 0.45118 0.57231 0.0
C8026 C 0.88717 0.46145 0.57209 0.0
C8027 C 0.89288 0.46487 0.56119 0.0
C8028 C 0.88912 0.46901 0.58303 0.0
C8029 C 0.87342 0.44694 0.58391 0.0
C8030 C 0.8795 0.47575 0.58792 0.0
C8031 C 0.88137 0.48325 0.598 0.0
C8032 C 0.8929 0.48413 0.60335 0.0
C8033 C 0.90252 0.47728 0.59851 0.0
C8034 C 0.90065 0.4698 0.58836 0.0
H8035 H 0.87013 0.43739 0.58315 0.0
H8036 H 0.87975 0.44758 0.59175 0.0
H8037 H 0.86551 0.45287 0.58586 0.0
H8038 H 0.87058 0.47536 0.5838 0.0
H8039 H 0.87379 0.48845 0.60152 0.0
H8040 H 0.33306 0.12866 0.28526 0.0
H8041 H 0.3197 0.13098 0.30283 0.0
H8042 H 0.29176 0.11079 0.28416 0.0
H8043 H 0.30513 0.10843 0.26643 0.0
H8044 H 0.28408 0.13323 0.29455 0.0
H8045 H 0.3092 0.10493 0.32788 0.0
H8046 H 0.31868 0.11573 0.32011 0.0
H8047 H 0.31148 0.10372 0.31161 0.0
C8048 C 0.3241 0.12465 0.2849 0.0
C8049 C 0.32012 0.11837 0.27449 0.0
C8050 C 0.31652 0.1259 0.29498 0.0
C8051 C 0.30485 0.12087 0.29484 0.0
C8052 C 0.3008 0.11462 0.28445 0.0
H8053 H 0.26106 0.12612 0.36146 0.0
H8054 H 0.27091 0.11772 0.34328 0.0
C8055 C 0.30842 0.1133 0.27435 0.0
C8056 C 0.29673 0.12286 0.30533 0.0
H8057 H 0.29524 0.11957 0.33622 0.0
C8058 C 0.28638 0.13008 0.30364 0.0
C8059 C 0.29968 0.11857 0.31712 0.0
C8060 C 0.3103 0.1102 0.3193 0.0
C8061 C 0.2793 0.13375 0.31359 0.0
C8062 C 0.2828 0.13024 0.32548 0.0
C8063 C 0.2927 0.12239 0.32709 0.0
C8064 C 0.27678 0.13524 0.33641 0.0
C8065 C 0.26827 0.14156 0.3113 0.0
C8066 C 0.27708 0.14782 0.33865 0.0
C8067 C 0.27152 0.15263 0.349 0.0
C8068 C 0.26562 0.14492 0.35733 0.0
C8069 C 0.26553 0.13228 0.35519 0.0
C8070 C 0.27112 0.12747 0.34482 0.0
H8071 H 0.26481 0.14037 0.30186 0.0
H8072 H 0.26089 0.13936 0.31783 0.0
H8073 H 0.27074 0.15129 0.31249 0.0
H8074 H 0.28167 0.15392 0.3324 0.0
H8075 H 0.27178 0.1624 0.35043 0.0
H8076 H 0.60725 0.58528 0.02913 0.0
H8077 H 0.60232 0.57218 0.0465 0.0
H8078 H 0.62936 0.54631 0.03487 0.0
H8079 H 0.63436 0.55934 0.01741 0.0
H8080 H 0.59518 0.54588 0.04526 0.0
H8081 H 0.63721 0.55541 0.07165 0.0
H8082 H 0.63175 0.56545 0.0598 0.0
H8083 H 0.6391 0.55141 0.05585 0.0
C8084 C 0.61215 0.57679 0.03026 0.0
C8085 C 0.62121 0.57332 0.02196 0.0
C8086 C 0.6093 0.56934 0.04016 0.0
C8087 C 0.61556 0.55839 0.04196 0.0
C8088 C 0.62454 0.55482 0.03364 0.0
H8089 H 0.61592 0.50242 0.0966 0.0
H8090 H 0.61972 0.51602 0.07943 0.0
C8091 C 0.62734 0.56223 0.02368 0.0
C8092 C 0.61264 0.55066 0.05254 0.0
H8093 H 0.62399 0.54045 0.07957 0.0
C8094 C 0.60142 0.54469 0.05281 0.0
C8095 C 0.62086 0.54922 0.0623 0.0
C8096 C 0.63289 0.55576 0.06251 0.0
C8097 C 0.5983 0.53699 0.06252 0.0
C8098 C 0.60653 0.53551 0.0723 0.0
C8099 C 0.6177 0.54162 0.07206 0.0
C8100 C 0.60397 0.52731 0.08267 0.0
C8101 C 0.5864 0.53023 0.06202 0.0
C8102 C 0.59389 0.52922 0.09024 0.0
C8103 C 0.59163 0.52138 0.10003 0.0
C8104 C 0.59952 0.51163 0.10245 0.0
C8105 C 0.60968 0.50986 0.09495 0.0
C8106 C 0.61187 0.51762 0.08514 0.0
H8107 H 0.58266 0.52993 0.05262 0.0
H8108 H 0.58744 0.52074 0.06539 0.0
H8109 H 0.57971 0.53494 0.06792 0.0
H8110 H 0.58784 0.53683 0.08864 0.0
H8111 H 0.58378 0.523 0.10573 0.0
H8112 H 0.65984 0.38038 0.2879 0.0
H8113 H 0.67131 0.37745 0.30669 0.0
H8114 H 0.70459 0.37672 0.28599 0.0
H8115 H 0.6931 0.38036 0.2672 0.0
H8116 H 0.68329 0.35822 0.31212 0.0
H8117 H 0.71522 0.39702 0.31408 0.0
H8118 H 0.70259 0.39667 0.30364 0.0
H8119 H 0.71649 0.38888 0.29996 0.0
C8120 C 0.66963 0.37981 0.28741 0.0
C8121 C 0.67563 0.3805 0.27615 0.0
C8122 C 0.67617 0.37816 0.29814 0.0
C8123 C 0.68883 0.37694 0.2978 0.0
C8124 C 0.69487 0.37795 0.28655 0.0
H8125 H 0.72914 0.33396 0.34916 0.0
H8126 H 0.71791 0.34225 0.33191 0.0
C8127 C 0.68832 0.37991 0.27581 0.0
C8128 C 0.69542 0.37332 0.30901 0.0
H8129 H 0.71997 0.3798 0.32681 0.0
C8130 C 0.69122 0.36306 0.3154 0.0
C8131 C 0.7057 0.37968 0.31339 0.0
C8132 C 0.71018 0.39125 0.30747 0.0
C8133 C 0.69712 0.35883 0.32587 0.0
C8134 C 0.70781 0.36473 0.32981 0.0
C8135 C 0.71186 0.37519 0.32365 0.0
C8136 C 0.71503 0.35996 0.34013 0.0
C8137 C 0.69173 0.34815 0.33265 0.0
C8138 C 0.71754 0.36733 0.35028 0.0
C8139 C 0.72415 0.36266 0.36011 0.0
C8140 C 0.72829 0.35055 0.35991 0.0
C8141 C 0.72591 0.34327 0.34965 0.0
C8142 C 0.71945 0.34798 0.3398 0.0
H8143 H 0.68184 0.34734 0.33094 0.0
H8144 H 0.69607 0.3396 0.32944 0.0
H8145 H 0.69321 0.34896 0.34264 0.0
H8146 H 0.71427 0.37663 0.35067 0.0
H8147 H 0.72592 0.36848 0.36789 0.0
H8148 H 0.11577 0.99257 0.89925 0.0
H8149 H 0.11933 0.97946 0.91686 0.0
H8150 H 0.08599 0.9603 0.9096 0.0
H8151 H 0.08231 0.97346 0.89184 0.0
H8152 H 0.10236 0.97606 0.93759 0.0
H8153 H 0.11363 0.9336 0.91209 0.0
H8154 H 0.11456 0.94851 0.90516 0.0
H8155 H 0.10005 0.94165 0.90781 0.0
C8156 C 0.10919 0.98555 0.90136 0.0
C8157 C 0.09876 0.98401 0.89417 0.0
C8158 C 0.11124 0.9781 0.91143 0.0
C8159 C 0.10296 0.96892 0.91443 0.0
C8160 C 0.09252 0.9673 0.90731 0.0
H8161 H 0.10725 0.91357 0.97075 0.0
H8162 H 0.10113 0.9263 0.95356 0.0
C8163 C 0.09042 0.97483 0.89722 0.0
C8164 C 0.1053 0.96117 0.92515 0.0
H8165 H 0.11416 0.93261 0.93352 0.0
C8166 C 0.10489 0.96654 0.93675 0.0
C8167 C 0.10855 0.94879 0.92393 0.0
C8168 C 0.10932 0.94274 0.9116 0.0
C8169 C 0.10768 0.95981 0.94724 0.0
C8170 C 0.11126 0.94749 0.94601 0.0
C8171 C 0.11146 0.94208 0.93441 0.0
C8172 C 0.11487 0.94003 0.95663 0.0
C8173 C 0.10663 0.96591 0.95953 0.0
C8174 C 0.12469 0.9435 0.96399 0.0
C8175 C 0.12817 0.93628 0.97389 0.0
C8176 C 0.12196 0.92541 0.97645 0.0
C8177 C 0.11221 0.92191 0.96899 0.0
C8178 C 0.10869 0.92916 0.95917 0.0
H8179 H 0.10054 0.97397 0.95918 0.0
H8180 H 0.10314 0.95948 0.96652 0.0
H8181 H 0.11571 0.96909 0.96247 0.0
H8182 H 0.12976 0.95171 0.96199 0.0
H8183 H 0.13578 0.93913 0.97943 0.0
H8184 H 0.30352 0.88685 0.22965 0.0
H8185 H 0.29043 0.88449 0.21168 0.0
H8186 H 0.31725 0.8613 0.19494 0.0
H8187 H 0.33035 0.86366 0.21269 0.0
H8188 H 0.30772 0.88034 0.17959 0.0
H8189 H 0.27202 0.85256 0.20244 0.0
H8190 H 0.27616 0.86684 0.20937 0.0
H8191 H 0.2869 0.85457 0.20898 0.0
C8192 C 0.30658 0.88123 0.22214 0.0
C8193 C 0.31792 0.8754 0.22257 0.0
C8194 C 0.29911 0.87989 0.21192 0.0
C8195 C 0.30289 0.87268 0.20206 0.0
C8196 C 0.31421 0.86692 0.20247 0.0
H8197 H 0.27215 0.83293 0.14425 0.0
H8198 H 0.28173 0.84125 0.16253 0.0
C8199 C 0.32165 0.86824 0.21264 0.0
C8200 C 0.29514 0.8709 0.19125 0.0
H8201 H 0.27024 0.85544 0.18129 0.0
C8202 C 0.29942 0.87506 0.17994 0.0
C8203 C 0.28438 0.86397 0.19183 0.0
C8204 C 0.27956 0.85914 0.20377 0.0
C8205 C 0.29344 0.87203 0.16907 0.0
C8206 C 0.28289 0.86476 0.16962 0.0
C8207 C 0.27835 0.86102 0.18097 0.0
C8208 C 0.27709 0.85998 0.15849 0.0
C8209 C 0.29879 0.87608 0.15707 0.0
C8210 C 0.27135 0.8678 0.15019 0.0
C8211 C 0.2659 0.86308 0.1397 0.0
C8212 C 0.26609 0.85047 0.13741 0.0
C8213 C 0.27188 0.84269 0.14575 0.0
C8214 C 0.27731 0.84741 0.15621 0.0
H8215 H 0.30801 0.88 0.15817 0.0
H8216 H 0.29929 0.8683 0.1506 0.0
H8217 H 0.29288 0.88314 0.15295 0.0
H8218 H 0.27098 0.87752 0.1519 0.0
H8219 H 0.26144 0.86929 0.13347 0.0
H8220 H 0.15881 0.1206 0.70912 0.0
H8221 H 0.17011 0.12483 0.69047 0.0
H8222 H 0.20356 0.12423 0.71089 0.0
H8223 H 0.19225 0.11928 0.72949 0.0
H8224 H 0.18226 0.1441 0.68566 0.0
H8225 H 0.21371 0.10502 0.68197 0.0
H8226 H 0.20119 0.10513 0.69254 0.0
H8227 H 0.2152 0.11265 0.69634 0.0
C8228 C 0.1686 0.12118 0.70957 0.0
C8229 C 0.1747 0.11966 0.72069 0.0
C8230 C 0.17505 0.12359 0.69893 0.0
C8231 C 0.18771 0.12476 0.69923 0.0
C8232 C 0.19384 0.12305 0.71034 0.0
H8233 H 0.22735 0.16806 0.64669 0.0
H8234 H 0.21601 0.16037 0.66419 0.0
C8235 C 0.18738 0.12032 0.72098 0.0
C8236 C 0.19425 0.12878 0.68811 0.0
H8237 H 0.21833 0.12245 0.66965 0.0
C8238 C 0.19007 0.13928 0.6821 0.0
C8239 C 0.20436 0.12242 0.68336 0.0
C8240 C 0.20879 0.11061 0.68882 0.0
C8241 C 0.19576 0.14367 0.67157 0.0
C8242 C 0.20627 0.13771 0.6672 0.0
C8243 C 0.21036 0.1271 0.67309 0.0
C8244 C 0.21317 0.14237 0.65659 0.0
C8245 C 0.19027 0.15451 0.66512 0.0
C8246 C 0.21572 0.13469 0.64667 0.0
C8247 C 0.22246 0.13899 0.63678 0.0
C8248 C 0.22665 0.15107 0.6366 0.0
C8249 C 0.22406 0.15876 0.64651 0.0
C8250 C 0.21753 0.15439 0.65648 0.0
H8251 H 0.18043 0.15531 0.66707 0.0
H8252 H 0.1947 0.16297 0.66841 0.0
H8253 H 0.19152 0.15389 0.65509 0.0
H8254 H 0.2125 0.12536 0.64658 0.0
H8255 H 0.22435 0.13286 0.62927 0.0
loop_
_geom_bond_atom_site_label_1
_geom_bond_atom_site_label_2
_geom_bond_distance
_geom_bond_site_symmetry_2
_ccdc_geom_bond_type
Co0 O1 2.216 1_455 S
Co0 O2 2.076 1_455 S
Co0 O4 2.004 . S
Co0 O10 2.021 1_455 S
Co0 O12 2.137 . S
Co0 O13 2.244 . S
O1 Co0 2.216 1_655 S
O1 C8 1.247 . S
O2 Co0 2.076 1_655 S
O2 C8 1.305 . S
C3 O12 1.247 . S
C3 O13 1.272 . S
O4 Co0 2.004 . S
O4 C9 1.259 . S
Co5 O6 2.061 . S
Co5 O11 2.052 1_455 S
Co5 O13 2.135 . S
O6 Co5 2.061 . S
O6 C9 1.235 . S
C7 O10 1.238 . S
C7 O11 1.241 . S
C8 O1 1.247 . S
C8 O2 1.305 . S
C9 O4 1.259 . S
C9 O6 1.235 . S
O10 Co0 2.021 1_655 S
O10 C7 1.238 . S
O11 Co5 2.052 1_655 S
O11 C7 1.241 . S
O12 Co0 2.137 . S
O12 C3 1.247 . S
O13 Co0 2.244 . S
O13 C3 1.272 . S
O13 Co5 2.135 . S
Co14 O15 2.216 . S
Co14 O16 2.091 . S
Co14 O18 2.004 . S
Co14 O24 2.021 . S
Co14 O26 2.137 . S
Co14 O27 2.244 . S
O15 Co14 2.216 . S
O15 C22 1.247 . S
O16 Co14 2.091 . S
O16 C22 1.261 . S
C17 O26 1.247 . S
C17 O27 1.272 . S
O18 Co14 2.004 . S
O18 C23 1.259 . S
Co19 O20 2.061 . S
Co19 O25 2.052 . S
Co19 O27 2.135 . S
O20 Co19 2.061 . S
O20 C23 1.235 . S
C21 O24 1.238 . S
C21 O25 1.241 . S
C22 O15 1.247 . S
C22 O16 1.261 . S
C23 O18 1.259 . S
C23 O20 1.235 . S
O24 Co14 2.021 . S
O24 C21 1.238 . S
O25 Co19 2.052 . S
O25 C21 1.241 . S
O26 Co14 2.137 . S
O26 C17 1.247 . S
O27 Co14 2.244 . S
O27 C17 1.272 . S
O27 Co19 2.135 . S
Co28 O29 2.216 . S
Co28 O30 2.091 . S
Co28 O32 2.004 . S
Co28 O38 2.021 . S
Co28 O40 2.137 . S
Co28 O41 2.244 . S
O29 Co28 2.216 . S
O29 C36 1.247 . S
O30 Co28 2.091 . S
O30 C36 1.261 . S
C31 O40 1.247 . S
C31 O41 1.272 . S
O32 Co28 2.004 . S
O32 C37 1.259 . S
Co33 O34 2.061 . S
Co33 O39 2.052 . S
Co33 O41 2.135 . S
O34 Co33 2.061 . S
O34 C37 1.235 . S
C35 O38 1.238 . S
C35 O39 1.241 . S
C36 O29 1.247 . S
C36 O30 1.261 . S
C37 O32 1.259 . S
C37 O34 1.235 . S
O38 Co28 2.021 . S
O38 C35 1.238 . S
O39 Co33 2.052 . S
O39 C35 1.241 . S
O40 Co28 2.137 . S
O40 C31 1.247 . S
O41 Co28 2.244 . S
O41 C31 1.272 . S
O41 Co33 2.135 . S
Co42 O43 2.216 . S
Co42 O44 2.091 . S
Co42 O46 2.004 . S
Co42 O52 2.021 . S
Co42 O54 2.137 . S
Co42 O55 2.244 . S
O43 Co42 2.216 . S
O43 C50 1.247 . S
O44 Co42 2.091 . S
O44 C50 1.261 . S
C45 O54 1.247 . S
C45 O55 1.272 . S
O46 Co42 2.004 . S
O46 C51 1.259 . S
Co47 O48 2.061 . S
Co47 O53 2.052 . S
Co47 O55 2.135 . S
O48 Co47 2.061 . S
O48 C51 1.235 . S
C49 O52 1.238 . S
C49 O53 1.241 . S
C50 O43 1.247 . S
C50 O44 1.261 . S
C51 O46 1.259 . S
C51 O48 1.235 . S
O52 Co42 2.021 . S
O52 C49 1.238 . S
O53 Co47 2.052 . S
O53 C49 1.241 . S
O54 Co42 2.137 . S
O54 C45 1.247 . S
O55 Co42 2.244 . S
O55 C45 1.272 . S
O55 Co47 2.135 . S
Co56 O57 2.216 1_455 S
Co56 O58 2.077 1_455 S
Co56 O60 2.004 . S
Co56 O66 2.021 1_455 S
Co56 O68 2.137 . S
Co56 O69 2.244 . S
O57 Co56 2.216 1_655 S
O57 C64 1.247 . S
O58 Co56 2.077 1_655 S
O58 C64 1.304 . S
C59 O68 1.247 . S
C59 O69 1.272 . S
O60 Co56 2.004 . S
O60 C65 1.259 . S
Co61 O62 2.061 . S
Co61 O67 2.052 1_455 S
Co61 O69 2.135 . S
O62 Co61 2.061 . S
O62 C65 1.235 . S
C63 O66 1.238 . S
C63 O67 1.241 . S
C64 O57 1.247 . S
C64 O58 1.304 . S
C65 O60 1.259 . S
C65 O62 1.235 . S
O66 Co56 2.021 1_655 S
O66 C63 1.238 . S
O67 Co61 2.052 1_655 S
O67 C63 1.241 . S
O68 Co56 2.137 . S
O68 C59 1.247 . S
O69 Co56 2.244 . S
O69 C59 1.272 . S
O69 Co61 2.135 . S
Co70 O71 2.216 . S
Co70 O72 2.091 . S
Co70 O74 2.004 . S
Co70 O80 2.021 . S
Co70 O82 2.137 . S
Co70 O83 2.244 . S
O71 Co70 2.216 . S
O71 C78 1.247 . S
O72 Co70 2.091 . S
O72 C78 1.261 . S
C73 O82 1.247 . S
C73 O83 1.272 . S
O74 Co70 2.004 . S
O74 C79 1.259 . S
Co75 O76 2.061 . S
Co75 O81 2.052 . S
Co75 O83 2.135 . S
O76 Co75 2.061 . S
O76 C79 1.235 . S
C77 O80 1.238 . S
C77 O81 1.241 . S
C78 O71 1.247 . S
C78 O72 1.261 . S
C79 O74 1.259 . S
C79 O76 1.235 . S
O80 Co70 2.021 . S
O80 C77 1.238 . S
O81 Co75 2.052 . S
O81 C77 1.241 . S
O82 Co70 2.137 . S
O82 C73 1.247 . S
O83 Co70 2.244 . S
O83 C73 1.272 . S
O83 Co75 2.135 . S
Co84 O85 2.216 . S
Co84 O86 2.091 . S
Co84 O88 2.004 . S
Co84 O94 2.021 . S
Co84 O96 2.137 . S
Co84 O97 2.244 . S
O85 Co84 2.216 . S
O85 C92 1.247 . S
O86 Co84 2.091 . S
O86 C92 1.261 . S
C87 O96 1.247 . S
C87 O97 1.272 . S
O88 Co84 2.004 . S
O88 C93 1.259 . S
Co89 O90 2.061 . S
Co89 O95 2.052 . S
Co89 O97 2.135 . S
O90 Co89 2.061 . S
O90 C93 1.235 . S
C91 O94 1.238 . S
C91 O95 1.241 . S
C92 O85 1.247 . S
C92 O86 1.261 . S
C93 O88 1.259 . S
C93 O90 1.235 . S
O94 Co84 2.021 . S
O94 C91 1.238 . S
O95 Co89 2.052 . S
O95 C91 1.241 . S
O96 Co84 2.137 . S
O96 C87 1.247 . S
O97 Co84 2.244 . S
O97 C87 1.272 . S
O97 Co89 2.135 . S
Co98 O99 2.216 . S
Co98 O100 2.091 . S
Co98 O102 2.004 . S
Co98 O108 2.021 . S
Co98 O110 2.137 . S
Co98 O111 2.244 . S
O99 Co98 2.216 . S
O99 C106 1.247 . S
O100 Co98 2.091 . S
O100 C106 1.261 . S
C101 O110 1.247 . S
C101 O111 1.272 . S
O102 Co98 2.004 . S
O102 C107 1.259 . S
Co103 O104 2.061 . S
Co103 O109 2.052 . S
Co103 O111 2.135 . S
O104 Co103 2.061 . S
O104 C107 1.235 . S
C105 O108 1.238 . S
C105 O109 1.241 . S
C106 O99 1.247 . S
C106 O100 1.261 . S
C107 O102 1.259 . S
C107 O104 1.235 . S
O108 Co98 2.021 . S
O108 C105 1.238 . S
O109 Co103 2.052 . S
O109 C105 1.241 . S
O110 Co98 2.137 . S
O110 C101 1.247 . S
O111 Co98 2.244 . S
O111 C101 1.272 . S
O111 Co103 2.135 . S
Co112 O113 2.216 . S
Co112 O114 2.091 . S
Co112 O116 2.004 1_545 S
Co112 O122 2.021 . S
Co112 O124 2.137 1_545 S
Co112 O125 2.244 1_545 S
O113 Co112 2.216 . S
O113 C120 1.247 . S
O114 Co112 2.091 . S
O114 C120 1.261 . S
C115 O124 1.247 . S
C115 O125 1.272 . S
O116 Co112 2.004 1_565 S
O116 C121 1.259 . S
Co117 O118 2.061 . S
Co117 O123 2.052 1_565 S
Co117 O125 2.135 . S
O118 Co117 2.061 . S
O118 C121 1.235 . S
C119 O122 1.238 . S
C119 O123 1.241 . S
C120 O113 1.247 . S
C120 O114 1.261 . S
C121 O116 1.259 . S
C121 O118 1.235 . S
O122 Co112 2.021 . S
O122 C119 1.238 . S
O123 Co117 2.052 1_545 S
O123 C119 1.241 . S
O124 Co112 2.137 1_565 S
O124 C115 1.247 . S
O125 Co112 2.244 1_565 S
O125 C115 1.272 . S
O125 Co117 2.135 . S
Co126 O127 2.216 . S
Co126 O128 2.091 . S
Co126 O130 2.004 . S
Co126 O136 2.021 . S
Co126 O138 2.137 . S
Co126 O139 2.244 . S
O127 Co126 2.216 . S
O127 C134 1.247 . S
O128 Co126 2.091 . S
O128 C134 1.261 . S
C129 O138 1.247 . S
C129 O139 1.272 . S
O130 Co126 2.004 . S
O130 C135 1.259 . S
Co131 O132 2.061 . S
Co131 O137 2.052 . S
Co131 O139 2.135 . S
O132 Co131 2.061 . S
O132 C135 1.235 . S
C133 O136 1.238 . S
C133 O137 1.241 . S
C134 O127 1.247 . S
C134 O128 1.261 . S
C135 O130 1.259 . S
C135 O132 1.235 . S
O136 Co126 2.021 . S
O136 C133 1.238 . S
O137 Co131 2.052 . S
O137 C133 1.241 . S
O138 Co126 2.137 . S
O138 C129 1.247 . S
O139 Co126 2.244 . S
O139 C129 1.272 . S
O139 Co131 2.135 . S
Co140 O141 2.216 . S
Co140 O142 2.091 . S
Co140 O144 2.004 1_565 S
Co140 O150 2.021 . S
Co140 O152 2.137 1_565 S
Co140 O153 2.244 1_565 S
O141 Co140 2.216 . S
O141 C148 1.247 . S
O142 Co140 2.091 . S
O142 C148 1.261 . S
C143 O152 1.247 . S
C143 O153 1.272 . S
O144 Co140 2.004 1_545 S
O144 C149 1.259 . S
Co145 O146 2.061 . S
Co145 O151 2.052 1_545 S
Co145 O153 2.135 . S
O146 Co145 2.061 . S
O146 C149 1.235 . S
C147 O150 1.238 . S
C147 O151 1.241 . S
C148 O141 1.247 . S
C148 O142 1.261 . S
C149 O144 1.259 . S
C149 O146 1.235 . S
O150 Co140 2.021 . S
O150 C147 1.238 . S
O151 Co145 2.052 1_565 S
O151 C147 1.241 . S
O152 Co140 2.137 1_545 S
O152 C143 1.247 . S
O153 Co140 2.244 1_545 S
O153 C143 1.272 . S
O153 Co145 2.135 . S
Co154 O155 2.216 . S
Co154 O156 2.091 . S
Co154 O158 2.004 . S
Co154 O164 2.021 . S
Co154 O166 2.137 . S
Co154 O167 2.244 . S
O155 Co154 2.216 . S
O155 C162 1.247 . S
O156 Co154 2.091 . S
O156 C162 1.261 . S
C157 O166 1.247 . S
C157 O167 1.272 . S
O158 Co154 2.004 . S
O158 C163 1.259 . S
Co159 O160 2.061 . S
Co159 O165 2.052 . S
Co159 O167 2.135 . S
O160 Co159 2.061 . S
O160 C163 1.235 . S
C161 O164 1.238 . S
C161 O165 1.241 . S
C162 O155 1.247 . S
C162 O156 1.261 . S
C163 O158 1.259 . S
C163 O160 1.235 . S
O164 Co154 2.021 . S
O164 C161 1.238 . S
O165 Co159 2.052 . S
O165 C161 1.241 . S
O166 Co154 2.137 . S
O166 C157 1.247 . S
O167 Co154 2.244 . S
O167 C157 1.272 . S
O167 Co159 2.135 . S
Co168 O169 2.216 . S
Co168 O170 2.091 . S
Co168 O172 2.004 1_565 S
Co168 O178 2.021 . S
Co168 O180 2.137 1_565 S
Co168 O181 2.244 1_565 S
O169 Co168 2.216 . S
O169 C176 1.247 . S
O170 Co168 2.091 . S
O170 C176 1.261 . S
C171 O180 1.247 . S
C171 O181 1.272 . S
O172 Co168 2.004 1_545 S
O172 C177 1.259 . S
Co173 O174 2.061 . S
Co173 O179 2.052 1_545 S
Co173 O181 2.135 . S
O174 Co173 2.061 . S
O174 C177 1.235 . S
C175 O178 1.238 . S
C175 O179 1.241 . S
C176 O169 1.247 . S
C176 O170 1.261 . S
C177 O172 1.259 . S
C177 O174 1.235 . S
O178 Co168 2.021 . S
O178 C175 1.238 . S
O179 Co173 2.052 1_565 S
O179 C175 1.241 . S
O180 Co168 2.137 1_545 S
O180 C171 1.247 . S
O181 Co168 2.244 1_545 S
O181 C171 1.272 . S
O181 Co173 2.135 . S
Co182 O183 2.216 . S
Co182 O184 2.091 . S
Co182 O186 2.004 . S
Co182 O192 2.021 . S
Co182 O194 2.137 . S
Co182 O195 2.244 . S
O183 Co182 2.216 . S
O183 C190 1.247 . S
O184 Co182 2.091 . S
O184 C190 1.261 . S
C185 O194 1.247 . S
C185 O195 1.272 . S
O186 Co182 2.004 . S
O186 C191 1.259 . S
Co187 O188 2.061 . S
Co187 O193 2.052 . S
Co187 O195 2.135 . S
O188 Co187 2.061 . S
O188 C191 1.235 . S
C189 O192 1.238 . S
C189 O193 1.241 . S
C190 O183 1.247 . S
C190 O184 1.261 . S
C191 O186 1.259 . S
C191 O188 1.235 . S
O192 Co182 2.021 . S
O192 C189 1.238 . S
O193 Co187 2.052 . S
O193 C189 1.241 . S
O194 Co182 2.137 . S
O194 C185 1.247 . S
O195 Co182 2.244 . S
O195 C185 1.272 . S
O195 Co187 2.135 . S
Co196 O197 2.216 . S
Co196 O198 2.091 . S
Co196 O200 2.004 1_545 S
Co196 O206 2.021 . S
Co196 O208 2.137 1_545 S
Co196 O209 2.244 1_545 S
O197 Co196 2.216 . S
O197 C204 1.247 . S
O198 Co196 2.091 . S
O198 C204 1.261 . S
C199 O208 1.247 . S
C199 O209 1.272 . S
O200 Co196 2.004 1_565 S
O200 C205 1.259 . S
Co201 O202 2.061 . S
Co201 O207 2.052 1_565 S
Co201 O209 2.135 . S
O202 Co201 2.061 . S
O202 C205 1.235 . S
C203 O206 1.238 . S
C203 O207 1.241 . S
C204 O197 1.247 . S
C204 O198 1.261 . S
C205 O200 1.259 . S
C205 O202 1.235 . S
O206 Co196 2.021 . S
O206 C203 1.238 . S
O207 Co201 2.052 1_545 S
O207 C203 1.241 . S
O208 Co196 2.137 1_565 S
O208 C199 1.247 . S
O209 Co196 2.244 1_565 S
O209 C199 1.272 . S
O209 Co201 2.135 . S
Co210 O211 2.216 . S
Co210 O212 2.091 . S
Co210 O214 2.004 . S
Co210 O220 2.021 . S
Co210 O222 2.137 . S
Co210 O223 2.244 . S
O211 Co210 2.216 . S
O211 C218 1.247 . S
O212 Co210 2.091 . S
O212 C218 1.261 . S
C213 O222 1.247 . S
C213 O223 1.272 . S
O214 Co210 2.004 . S
O214 C219 1.259 . S
Co215 O216 2.061 . S
Co215 O221 2.052 . S
Co215 O223 2.135 . S
O216 Co215 2.061 . S
O216 C219 1.235 . S
C217 O220 1.238 . S
C217 O221 1.241 . S
C218 O211 1.247 . S
C218 O212 1.261 . S
C219 O214 1.259 . S
C219 O216 1.235 . S
O220 Co210 2.021 . S
O220 C217 1.238 . S
O221 Co215 2.052 . S
O221 C217 1.241 . S
O222 Co210 2.137 . S
O222 C213 1.247 . S
O223 Co210 2.244 . S
O223 C213 1.272 . S
O223 Co215 2.135 . S
Co224 O225 2.216 1_554 S
Co224 O226 2.091 1_554 S
Co224 O228 2.004 . S
Co224 O234 2.021 1_554 S
Co224 O236 2.137 . S
Co224 O237 2.244 . S
O225 Co224 2.216 1_556 S
O225 C232 1.247 . S
O226 Co224 2.091 1_556 S
O226 C232 1.261 . S
C227 O236 1.247 . S
C227 O237 1.272 . S
O228 Co224 2.004 . S
O228 C233 1.259 . S
Co229 O230 2.061 . S
Co229 O235 2.052 1_554 S
Co229 O237 2.135 . S
O230 Co229 2.061 . S
O230 C233 1.235 . S
C231 O234 1.238 . S
C231 O235 1.241 . S
C232 O225 1.247 . S
C232 O226 1.261 . S
C233 O228 1.259 . S
C233 O230 1.235 . S
O234 Co224 2.021 1_556 S
O234 C231 1.238 . S
O235 Co229 2.052 1_556 S
O235 C231 1.241 . S
O236 Co224 2.137 . S
O236 C227 1.247 . S
O237 Co224 2.244 . S
O237 C227 1.272 . S
O237 Co229 2.135 . S
Co238 O239 2.216 1_556 S
Co238 O240 2.091 1_556 S
Co238 O242 2.004 . S
Co238 O248 2.021 1_556 S
Co238 O250 2.137 . S
Co238 O251 2.244 . S
O239 Co238 2.216 1_554 S
O239 C246 1.247 . S
O240 Co238 2.091 1_554 S
O240 C246 1.261 . S
C241 O250 1.247 . S
C241 O251 1.272 . S
O242 Co238 2.004 . S
O242 C247 1.259 . S
Co243 O244 2.061 . S
Co243 O249 2.052 1_556 S
Co243 O251 2.135 . S
O244 Co243 2.061 . S
O244 C247 1.235 . S
C245 O248 1.238 . S
C245 O249 1.241 . S
C246 O239 1.247 . S
C246 O240 1.261 . S
C247 O242 1.259 . S
C247 O244 1.235 . S
O248 Co238 2.021 1_554 S
O248 C245 1.238 . S
O249 Co243 2.052 1_554 S
O249 C245 1.241 . S
O250 Co238 2.137 . S
O250 C241 1.247 . S
O251 Co238 2.244 . S
O251 C241 1.272 . S
O251 Co243 2.135 . S
Co252 O253 2.216 . S
Co252 O254 2.091 . S
Co252 O256 2.004 . S
Co252 O262 2.021 . S
Co252 O264 2.137 . S
Co252 O265 2.244 . S
O253 Co252 2.216 . S
O253 C260 1.247 . S
O254 Co252 2.091 . S
O254 C260 1.261 . S
C255 O264 1.247 . S
C255 O265 1.272 . S
O256 Co252 2.004 . S
O256 C261 1.259 . S
Co257 O258 2.061 . S
Co257 O263 2.052 . S
Co257 O265 2.135 . S
O258 Co257 2.061 . S
O258 C261 1.235 . S
C259 O262 1.238 . S
C259 O263 1.241 . S
C260 O253 1.247 . S
C260 O254 1.261 . S
C261 O256 1.259 . S
C261 O258 1.235 . S
O262 Co252 2.021 . S
O262 C259 1.238 . S
O263 Co257 2.052 . S
O263 C259 1.241 . S
O264 Co252 2.137 . S
O264 C255 1.247 . S
O265 Co252 2.244 . S
O265 C255 1.272 . S
O265 Co257 2.135 . S
Co266 O267 2.216 . S
Co266 O268 2.091 . S
Co266 O270 2.004 . S
Co266 O276 2.021 . S
Co266 O278 2.137 . S
Co266 O279 2.244 . S
O267 Co266 2.216 . S
O267 C274 1.247 . S
O268 Co266 2.091 . S
O268 C274 1.261 . S
C269 O278 1.247 . S
C269 O279 1.272 . S
O270 Co266 2.004 . S
O270 C275 1.259 . S
Co271 O272 2.061 . S
Co271 O277 2.052 . S
Co271 O279 2.135 . S
O272 Co271 2.061 . S
O272 C275 1.235 . S
C273 O276 1.238 . S
C273 O277 1.241 . S
C274 O267 1.247 . S
C274 O268 1.261 . S
C275 O270 1.259 . S
C275 O272 1.235 . S
O276 Co266 2.021 . S
O276 C273 1.238 . S
O277 Co271 2.052 . S
O277 C273 1.241 . S
O278 Co266 2.137 . S
O278 C269 1.247 . S
O279 Co266 2.244 . S
O279 C269 1.272 . S
O279 Co271 2.135 . S
Co280 O281 2.216 . S
Co280 O282 2.091 . S
Co280 O284 2.004 . S
Co280 O290 2.021 . S
Co280 O292 2.137 . S
Co280 O293 2.244 . S
O281 Co280 2.216 . S
O281 C288 1.247 . S
O282 Co280 2.091 . S
O282 C288 1.261 . S
C283 O292 1.247 . S
C283 O293 1.272 . S
O284 Co280 2.004 . S
O284 C289 1.259 . S
Co285 O286 2.061 . S
Co285 O291 2.052 . S
Co285 O293 2.135 . S
O286 Co285 2.061 . S
O286 C289 1.235 . S
C287 O290 1.238 . S
C287 O291 1.241 . S
C288 O281 1.247 . S
C288 O282 1.261 . S
C289 O284 1.259 . S
C289 O286 1.235 . S
O290 Co280 2.021 . S
O290 C287 1.238 . S
O291 Co285 2.052 . S
O291 C287 1.241 . S
O292 Co280 2.137 . S
O292 C283 1.247 . S
O293 Co280 2.244 . S
O293 C283 1.272 . S
O293 Co285 2.135 . S
Co294 O295 2.216 . S
Co294 O296 2.091 . S
Co294 O298 2.004 . S
Co294 O304 2.021 . S
Co294 O306 2.137 . S
Co294 O307 2.244 . S
O295 Co294 2.216 . S
O295 C302 1.247 . S
O296 Co294 2.091 . S
O296 C302 1.261 . S
C297 O306 1.247 . S
C297 O307 1.272 . S
O298 Co294 2.004 . S
O298 C303 1.259 . S
Co299 O300 2.061 . S
Co299 O305 2.052 . S
Co299 O307 2.135 . S
O300 Co299 2.061 . S
O300 C303 1.235 . S
C301 O304 1.238 . S
C301 O305 1.241 . S
C302 O295 1.247 . S
C302 O296 1.261 . S
C303 O298 1.259 . S
C303 O300 1.235 . S
O304 Co294 2.021 . S
O304 C301 1.238 . S
O305 Co299 2.052 . S
O305 C301 1.241 . S
O306 Co294 2.137 . S
O306 C297 1.247 . S
O307 Co294 2.244 . S
O307 C297 1.272 . S
O307 Co299 2.135 . S
Co308 O309 2.216 . S
Co308 O310 2.091 . S
Co308 O312 2.004 . S
Co308 O318 2.021 . S
Co308 O320 2.137 . S
Co308 O321 2.244 . S
O309 Co308 2.216 . S
O309 C316 1.247 . S
O310 Co308 2.091 . S
O310 C316 1.261 . S
C311 O320 1.247 . S
C311 O321 1.272 . S
O312 Co308 2.004 . S
O312 C317 1.259 . S
Co313 O314 2.061 . S
Co313 O319 2.052 . S
Co313 O321 2.135 . S
O314 Co313 2.061 . S
O314 C317 1.235 . S
C315 O318 1.238 . S
C315 O319 1.241 . S
C316 O309 1.247 . S
C316 O310 1.261 . S
C317 O312 1.259 . S
C317 O314 1.235 . S
O318 Co308 2.021 . S
O318 C315 1.238 . S
O319 Co313 2.052 . S
O319 C315 1.241 . S
O320 Co308 2.137 . S
O320 C311 1.247 . S
O321 Co308 2.244 . S
O321 C311 1.272 . S
O321 Co313 2.135 . S
Co322 O323 2.216 . S
Co322 O324 2.091 . S
Co322 O326 2.004 . S
Co322 O332 2.021 . S
Co322 O334 2.137 . S
Co322 O335 2.244 . S
O323 Co322 2.216 . S
O323 C330 1.247 . S
O324 Co322 2.091 . S
O324 C330 1.261 . S
C325 O334 1.247 . S
C325 O335 1.272 . S
O326 Co322 2.004 . S
O326 C331 1.259 . S
Co327 O328 2.061 . S
Co327 O333 2.052 . S
Co327 O335 2.135 . S
O328 Co327 2.061 . S
O328 C331 1.235 . S
C329 O332 1.238 . S
C329 O333 1.241 . S
C330 O323 1.247 . S
C330 O324 1.261 . S
C331 O326 1.259 . S
C331 O328 1.235 . S
O332 Co322 2.021 . S
O332 C329 1.238 . S
O333 Co327 2.052 . S
O333 C329 1.241 . S
O334 Co322 2.137 . S
O334 C325 1.247 . S
O335 Co322 2.244 . S
O335 C325 1.272 . S
O335 Co327 2.135 . S
Co336 O337 2.216 1_655 S
Co336 O338 2.091 1_655 S
Co336 O340 2.004 . S
Co336 O346 2.021 1_655 S
Co336 O348 2.137 . S
Co336 O349 2.244 . S
O337 Co336 2.216 1_455 S
O337 C344 1.247 . S
O338 Co336 2.091 1_455 S
O338 C344 1.261 . S
C339 O348 1.247 . S
C339 O349 1.272 . S
O340 Co336 2.004 . S
O340 C345 1.259 . S
Co341 O342 2.061 . S
Co341 O347 2.052 1_655 S
Co341 O349 2.135 . S
O342 Co341 2.061 . S
O342 C345 1.235 . S
C343 O346 1.238 . S
C343 O347 1.241 . S
C344 O337 1.247 . S
C344 O338 1.261 . S
C345 O340 1.259 . S
C345 O342 1.235 . S
O346 Co336 2.021 1_455 S
O346 C343 1.238 . S
O347 Co341 2.052 1_455 S
O347 C343 1.241 . S
O348 Co336 2.137 . S
O348 C339 1.247 . S
O349 Co336 2.244 . S
O349 C339 1.272 . S
O349 Co341 2.135 . S
Co350 O351 2.216 . S
Co350 O352 2.091 . S
Co350 O354 2.004 . S
Co350 O360 2.021 . S
Co350 O362 2.137 . S
Co350 O363 2.244 . S
O351 Co350 2.216 . S
O351 C358 1.247 . S
O352 Co350 2.091 . S
O352 C358 1.261 . S
C353 O362 1.247 . S
C353 O363 1.272 . S
O354 Co350 2.004 . S
O354 C359 1.259 . S
Co355 O356 2.061 . S
Co355 O361 2.052 . S
Co355 O363 2.135 . S
O356 Co355 2.061 . S
O356 C359 1.235 . S
C357 O360 1.238 . S
C357 O361 1.241 . S
C358 O351 1.247 . S
C358 O352 1.261 . S
C359 O354 1.259 . S
C359 O356 1.235 . S
O360 Co350 2.021 . S
O360 C357 1.238 . S
O361 Co355 2.052 . S
O361 C357 1.241 . S
O362 Co350 2.137 . S
O362 C353 1.247 . S
O363 Co350 2.244 . S
O363 C353 1.272 . S
O363 Co355 2.135 . S
Co364 O365 2.216 . S
Co364 O366 2.091 . S
Co364 O368 2.004 . S
Co364 O374 2.021 . S
Co364 O376 2.137 . S
Co364 O377 2.244 . S
O365 Co364 2.216 . S
O365 C372 1.247 . S
O366 Co364 2.091 . S
O366 C372 1.261 . S
C367 O376 1.247 . S
C367 O377 1.272 . S
O368 Co364 2.004 . S
O368 C373 1.259 . S
Co369 O370 2.061 . S
Co369 O375 2.052 . S
Co369 O377 2.135 . S
O370 Co369 2.061 . S
O370 C373 1.235 . S
C371 O374 1.238 . S
C371 O375 1.241 . S
C372 O365 1.247 . S
C372 O366 1.261 . S
C373 O368 1.259 . S
C373 O370 1.235 . S
O374 Co364 2.021 . S
O374 C371 1.238 . S
O375 Co369 2.052 . S
O375 C371 1.241 . S
O376 Co364 2.137 . S
O376 C367 1.247 . S
O377 Co364 2.244 . S
O377 C367 1.272 . S
O377 Co369 2.135 . S
Co378 O379 2.216 . S
Co378 O380 2.091 . S
Co378 O382 2.004 . S
Co378 O388 2.021 . S
Co378 O390 2.137 . S
Co378 O391 2.244 . S
O379 Co378 2.216 . S
O379 C386 1.247 . S
O380 Co378 2.091 . S
O380 C386 1.261 . S
C381 O390 1.247 . S
C381 O391 1.272 . S
O382 Co378 2.004 . S
O382 C387 1.259 . S
Co383 O384 2.061 . S
Co383 O389 2.052 . S
Co383 O391 2.135 . S
O384 Co383 2.061 . S
O384 C387 1.235 . S
C385 O388 1.238 . S
C385 O389 1.241 . S
C386 O379 1.247 . S
C386 O380 1.261 . S
C387 O382 1.259 . S
C387 O384 1.235 . S
O388 Co378 2.021 . S
O388 C385 1.238 . S
O389 Co383 2.052 . S
O389 C385 1.241 . S
O390 Co378 2.137 . S
O390 C381 1.247 . S
O391 Co378 2.244 . S
O391 C381 1.272 . S
O391 Co383 2.135 . S
Co392 O393 2.216 1_655 S
Co392 O394 2.091 1_655 S
Co392 O396 2.004 . S
Co392 O402 2.021 1_655 S
Co392 O404 2.137 . S
Co392 O405 2.244 . S
O393 Co392 2.216 1_455 S
O393 C400 1.247 . S
O394 Co392 2.091 1_455 S
O394 C400 1.261 . S
C395 O404 1.247 . S
C395 O405 1.272 . S
O396 Co392 2.004 . S
O396 C401 1.259 . S
Co397 O398 2.061 . S
Co397 O403 2.052 1_655 S
Co397 O405 2.135 . S
O398 Co397 2.061 . S
O398 C401 1.235 . S
C399 O402 1.238 . S
C399 O403 1.241 . S
C400 O393 1.247 . S
C400 O394 1.261 . S
C401 O396 1.259 . S
C401 O398 1.235 . S
O402 Co392 2.021 1_455 S
O402 C399 1.238 . S
O403 Co397 2.052 1_455 S
O403 C399 1.241 . S
O404 Co392 2.137 . S
O404 C395 1.247 . S
O405 Co392 2.244 . S
O405 C395 1.272 . S
O405 Co397 2.135 . S
Co406 O407 2.216 . S
Co406 O408 2.091 . S
Co406 O410 2.004 . S
Co406 O416 2.021 . S
Co406 O418 2.137 . S
Co406 O419 2.244 . S
O407 Co406 2.216 . S
O407 C414 1.247 . S
O408 Co406 2.091 . S
O408 C414 1.261 . S
C409 O418 1.247 . S
C409 O419 1.272 . S
O410 Co406 2.004 . S
O410 C415 1.259 . S
Co411 O412 2.061 . S
Co411 O417 2.052 . S
Co411 O419 2.135 . S
O412 Co411 2.061 . S
O412 C415 1.235 . S
C413 O416 1.238 . S
C413 O417 1.241 . S
C414 O407 1.247 . S
C414 O408 1.261 . S
C415 O410 1.259 . S
C415 O412 1.235 . S
O416 Co406 2.021 . S
O416 C413 1.238 . S
O417 Co411 2.052 . S
O417 C413 1.241 . S
O418 Co406 2.137 . S
O418 C409 1.247 . S
O419 Co406 2.244 . S
O419 C409 1.272 . S
O419 Co411 2.135 . S
Co420 O421 2.216 . S
Co420 O422 2.091 . S
Co420 O424 2.004 . S
Co420 O430 2.021 . S
Co420 O432 2.137 . S
Co420 O433 2.244 . S
O421 Co420 2.216 . S
O421 C428 1.247 . S
O422 Co420 2.091 . S
O422 C428 1.261 . S
C423 O432 1.247 . S
C423 O433 1.272 . S
O424 Co420 2.004 . S
O424 C429 1.259 . S
Co425 O426 2.061 . S
Co425 O431 2.052 . S
Co425 O433 2.135 . S
O426 Co425 2.061 . S
O426 C429 1.235 . S
C427 O430 1.238 . S
C427 O431 1.241 . S
C428 O421 1.247 . S
C428 O422 1.261 . S
C429 O424 1.259 . S
C429 O426 1.235 . S
O430 Co420 2.021 . S
O430 C427 1.238 . S
O431 Co425 2.052 . S
O431 C427 1.241 . S
O432 Co420 2.137 . S
O432 C423 1.247 . S
O433 Co420 2.244 . S
O433 C423 1.272 . S
O433 Co425 2.135 . S
Co434 O435 2.216 . S
Co434 O436 2.091 . S
Co434 O438 2.004 . S
Co434 O444 2.021 . S
Co434 O446 2.137 . S
Co434 O447 2.244 . S
O435 Co434 2.216 . S
O435 C442 1.247 . S
O436 Co434 2.091 . S
O436 C442 1.261 . S
C437 O446 1.247 . S
C437 O447 1.272 . S
O438 Co434 2.004 . S
O438 C443 1.259 . S
Co439 O440 2.061 . S
Co439 O445 2.052 . S
Co439 O447 2.135 . S
O440 Co439 2.061 . S
O440 C443 1.235 . S
C441 O444 1.238 . S
C441 O445 1.241 . S
C442 O435 1.247 . S
C442 O436 1.261 . S
C443 O438 1.259 . S
C443 O440 1.235 . S
O444 Co434 2.021 . S
O444 C441 1.238 . S
O445 Co439 2.052 . S
O445 C441 1.241 . S
O446 Co434 2.137 . S
O446 C437 1.247 . S
O447 Co434 2.244 . S
O447 C437 1.272 . S
O447 Co439 2.135 . S
Co448 O449 2.216 1_565 S
Co448 O450 2.091 1_565 S
Co448 O452 2.004 . S
Co448 O458 2.021 1_565 S
Co448 O460 2.137 . S
Co448 O461 2.244 . S
O449 Co448 2.216 1_545 S
O449 C456 1.247 . S
O450 Co448 2.091 1_545 S
O450 C456 1.261 . S
C451 O460 1.247 . S
C451 O461 1.272 . S
O452 Co448 2.004 . S
O452 C457 1.259 . S
Co453 O454 2.061 . S
Co453 O459 2.052 1_565 S
Co453 O461 2.135 . S
O454 Co453 2.061 . S
O454 C457 1.235 . S
C455 O458 1.238 . S
C455 O459 1.241 . S
C456 O449 1.247 . S
C456 O450 1.261 . S
C457 O452 1.259 . S
C457 O454 1.235 . S
O458 Co448 2.021 1_545 S
O458 C455 1.238 . S
O459 Co453 2.052 1_545 S
O459 C455 1.241 . S
O460 Co448 2.137 . S
O460 C451 1.247 . S
O461 Co448 2.244 . S
O461 C451 1.272 . S
O461 Co453 2.135 . S
Co462 O463 2.216 . S
Co462 O464 2.091 . S
Co462 O466 2.004 . S
Co462 O472 2.021 . S
Co462 O474 2.137 . S
Co462 O475 2.244 . S
O463 Co462 2.216 . S
O463 C470 1.247 . S
O464 Co462 2.091 . S
O464 C470 1.261 . S
C465 O474 1.247 . S
C465 O475 1.272 . S
O466 Co462 2.004 . S
O466 C471 1.259 . S
Co467 O468 2.061 . S
Co467 O473 2.052 . S
Co467 O475 2.135 . S
O468 Co467 2.061 . S
O468 C471 1.235 . S
C469 O472 1.238 . S
C469 O473 1.241 . S
C470 O463 1.247 . S
C470 O464 1.261 . S
C471 O466 1.259 . S
C471 O468 1.235 . S
O472 Co462 2.021 . S
O472 C469 1.238 . S
O473 Co467 2.052 . S
O473 C469 1.241 . S
O474 Co462 2.137 . S
O474 C465 1.247 . S
O475 Co462 2.244 . S
O475 C465 1.272 . S
O475 Co467 2.135 . S
Co476 O477 2.216 1_545 S
Co476 O478 2.091 1_545 S
Co476 O480 2.004 . S
Co476 O486 2.021 1_545 S
Co476 O488 2.137 . S
Co476 O489 2.244 . S
O477 Co476 2.216 1_565 S
O477 C484 1.247 . S
O478 Co476 2.091 1_565 S
O478 C484 1.261 . S
C479 O488 1.247 . S
C479 O489 1.272 . S
O480 Co476 2.004 . S
O480 C485 1.259 . S
Co481 O482 2.061 . S
Co481 O487 2.052 1_545 S
Co481 O489 2.135 . S
O482 Co481 2.061 . S
O482 C485 1.235 . S
C483 O486 1.238 . S
C483 O487 1.241 . S
C484 O477 1.247 . S
C484 O478 1.261 . S
C485 O480 1.259 . S
C485 O482 1.235 . S
O486 Co476 2.021 1_565 S
O486 C483 1.238 . S
O487 Co481 2.052 1_565 S
O487 C483 1.241 . S
O488 Co476 2.137 . S
O488 C479 1.247 . S
O489 Co476 2.244 . S
O489 C479 1.272 . S
O489 Co481 2.135 . S
Co490 O491 2.216 . S
Co490 O492 2.091 . S
Co490 O494 2.004 . S
Co490 O500 2.021 . S
Co490 O502 2.137 . S
Co490 O503 2.244 . S
O491 Co490 2.216 . S
O491 C498 1.247 . S
O492 Co490 2.091 . S
O492 C498 1.261 . S
C493 O502 1.247 . S
C493 O503 1.272 . S
O494 Co490 2.004 . S
O494 C499 1.259 . S
Co495 O496 2.061 . S
Co495 O501 2.052 . S
Co495 O503 2.135 . S
O496 Co495 2.061 . S
O496 C499 1.235 . S
C497 O500 1.238 . S
C497 O501 1.241 . S
C498 O491 1.247 . S
C498 O492 1.261 . S
C499 O494 1.259 . S
C499 O496 1.235 . S
O500 Co490 2.021 . S
O500 C497 1.238 . S
O501 Co495 2.052 . S
O501 C497 1.241 . S
O502 Co490 2.137 . S
O502 C493 1.247 . S
O503 Co490 2.244 . S
O503 C493 1.272 . S
O503 Co495 2.135 . S
Co504 O505 2.216 1_545 S
Co504 O506 2.091 1_545 S
Co504 O508 2.004 . S
Co504 O514 2.021 1_545 S
Co504 O516 2.137 . S
Co504 O517 2.244 . S
O505 Co504 2.216 1_565 S
O505 C512 1.247 . S
O506 Co504 2.091 1_565 S
O506 C512 1.261 . S
C507 O516 1.247 . S
C507 O517 1.272 . S
O508 Co504 2.004 . S
O508 C513 1.259 . S
Co509 O510 2.061 . S
Co509 O515 2.052 1_545 S
Co509 O517 2.135 . S
O510 Co509 2.061 . S
O510 C513 1.235 . S
C511 O514 1.238 . S
C511 O515 1.241 . S
C512 O505 1.247 . S
C512 O506 1.261 . S
C513 O508 1.259 . S
C513 O510 1.235 . S
O514 Co504 2.021 1_565 S
O514 C511 1.238 . S
O515 Co509 2.052 1_565 S
O515 C511 1.241 . S
O516 Co504 2.137 . S
O516 C507 1.247 . S
O517 Co504 2.244 . S
O517 C507 1.272 . S
O517 Co509 2.135 . S
Co518 O519 2.216 . S
Co518 O520 2.091 . S
Co518 O522 2.004 . S
Co518 O528 2.021 . S
Co518 O530 2.137 . S
Co518 O531 2.244 . S
O519 Co518 2.216 . S
O519 C526 1.247 . S
O520 Co518 2.091 . S
O520 C526 1.261 . S
C521 O530 1.247 . S
C521 O531 1.272 . S
O522 Co518 2.004 . S
O522 C527 1.259 . S
Co523 O524 2.061 . S
Co523 O529 2.052 . S
Co523 O531 2.135 . S
O524 Co523 2.061 . S
O524 C527 1.235 . S
C525 O528 1.238 . S
C525 O529 1.241 . S
C526 O519 1.247 . S
C526 O520 1.261 . S
C527 O522 1.259 . S
C527 O524 1.235 . S
O528 Co518 2.021 . S
O528 C525 1.238 . S
O529 Co523 2.052 . S
O529 C525 1.241 . S
O530 Co518 2.137 . S
O530 C521 1.247 . S
O531 Co518 2.244 . S
O531 C521 1.272 . S
O531 Co523 2.135 . S
Co532 O533 2.216 1_565 S
Co532 O534 2.091 1_565 S
Co532 O536 2.004 . S
Co532 O542 2.021 1_565 S
Co532 O544 2.137 . S
Co532 O545 2.244 . S
O533 Co532 2.216 1_545 S
O533 C540 1.247 . S
O534 Co532 2.091 1_545 S
O534 C540 1.261 . S
C535 O544 1.247 . S
C535 O545 1.272 . S
O536 Co532 2.004 . S
O536 C541 1.259 . S
Co537 O538 2.061 . S
Co537 O543 2.052 1_565 S
Co537 O545 2.135 . S
O538 Co537 2.061 . S
O538 C541 1.235 . S
C539 O542 1.238 . S
C539 O543 1.241 . S
C540 O533 1.247 . S
C540 O534 1.261 . S
C541 O536 1.259 . S
C541 O538 1.235 . S
O542 Co532 2.021 1_545 S
O542 C539 1.238 . S
O543 Co537 2.052 1_545 S
O543 C539 1.241 . S
O544 Co532 2.137 . S
O544 C535 1.247 . S
O545 Co532 2.244 . S
O545 C535 1.272 . S
O545 Co537 2.135 . S
Co546 O547 2.216 . S
Co546 O548 2.091 . S
Co546 O550 2.004 . S
Co546 O556 2.021 . S
Co546 O558 2.137 . S
Co546 O559 2.244 . S
O547 Co546 2.216 . S
O547 C554 1.247 . S
O548 Co546 2.091 . S
O548 C554 1.261 . S
C549 O558 1.247 . S
C549 O559 1.272 . S
O550 Co546 2.004 . S
O550 C555 1.259 . S
Co551 O552 2.061 . S
Co551 O557 2.052 . S
Co551 O559 2.135 . S
O552 Co551 2.061 . S
O552 C555 1.235 . S
C553 O556 1.238 . S
C553 O557 1.241 . S
C554 O547 1.247 . S
C554 O548 1.261 . S
C555 O550 1.259 . S
C555 O552 1.235 . S
O556 Co546 2.021 . S
O556 C553 1.238 . S
O557 Co551 2.052 . S
O557 C553 1.241 . S
O558 Co546 2.137 . S
O558 C549 1.247 . S
O559 Co546 2.244 . S
O559 C549 1.272 . S
O559 Co551 2.135 . S
Co560 O561 2.216 1_556 S
Co560 O562 2.099 . S
Co560 O564 2.004 . S
Co560 O570 2.021 1_556 S
Co560 O572 2.137 . S
Co560 O573 2.244 . S
O561 Co560 2.216 1_554 S
O561 C568 1.247 . S
O562 Co560 2.099 . S
O562 C568 1.242 1_556 S
C563 O572 1.247 . S
C563 O573 1.272 . S
O564 Co560 2.004 . S
O564 C569 1.259 . S
Co565 O566 2.061 . S
Co565 O571 2.052 1_556 S
Co565 O573 2.135 . S
O566 Co565 2.061 . S
O566 C569 1.235 . S
C567 O570 1.238 . S
C567 O571 1.241 . S
C568 O561 1.247 . S
C568 O562 1.242 1_554 S
C569 O564 1.259 . S
C569 O566 1.235 . S
O570 Co560 2.021 1_554 S
O570 C567 1.238 . S
O571 Co565 2.052 1_554 S
O571 C567 1.241 . S
O572 Co560 2.137 . S
O572 C563 1.247 . S
O573 Co560 2.244 . S
O573 C563 1.272 . S
O573 Co565 2.135 . S
Co574 O575 2.216 1_554 S
Co574 O576 2.093 . S
Co574 O578 2.004 . S
Co574 O584 2.021 1_554 S
Co574 O586 2.137 . S
Co574 O587 2.244 . S
O575 Co574 2.216 1_556 S
O575 C582 1.247 . S
O576 Co574 2.093 . S
O576 C582 1.256 1_554 S
C577 O586 1.247 . S
C577 O587 1.272 . S
O578 Co574 2.004 . S
O578 C583 1.259 . S
Co579 O580 2.061 . S
Co579 O585 2.052 1_554 S
Co579 O587 2.135 . S
O580 Co579 2.061 . S
O580 C583 1.235 . S
C581 O584 1.238 . S
C581 O585 1.241 . S
C582 O575 1.247 . S
C582 O576 1.256 1_556 S
C583 O578 1.259 . S
C583 O580 1.235 . S
O584 Co574 2.021 1_556 S
O584 C581 1.238 . S
O585 Co579 2.052 1_556 S
O585 C581 1.241 . S
O586 Co574 2.137 . S
O586 C577 1.247 . S
O587 Co574 2.244 . S
O587 C577 1.272 . S
O587 Co579 2.135 . S
Co588 O589 2.216 . S
Co588 O590 2.091 . S
Co588 O592 2.004 . S
Co588 O598 2.021 . S
Co588 O600 2.137 . S
Co588 O601 2.244 . S
O589 Co588 2.216 . S
O589 C596 1.247 . S
O590 Co588 2.091 . S
O590 C596 1.261 . S
C591 O600 1.247 . S
C591 O601 1.272 . S
O592 Co588 2.004 . S
O592 C597 1.259 . S
Co593 O594 2.061 . S
Co593 O599 2.052 . S
Co593 O601 2.135 . S
O594 Co593 2.061 . S
O594 C597 1.235 . S
C595 O598 1.238 . S
C595 O599 1.241 . S
C596 O589 1.247 . S
C596 O590 1.261 . S
C597 O592 1.259 . S
C597 O594 1.235 . S
O598 Co588 2.021 . S
O598 C595 1.238 . S
O599 Co593 2.052 . S
O599 C595 1.241 . S
O600 Co588 2.137 . S
O600 C591 1.247 . S
O601 Co588 2.244 . S
O601 C591 1.272 . S
O601 Co593 2.135 . S
Co602 O603 2.216 . S
Co602 O604 2.091 . S
Co602 O606 2.004 . S
Co602 O612 2.021 . S
Co602 O614 2.137 . S
Co602 O615 2.244 . S
O603 Co602 2.216 . S
O603 C610 1.247 . S
O604 Co602 2.091 . S
O604 C610 1.261 . S
C605 O614 1.247 . S
C605 O615 1.272 . S
O606 Co602 2.004 . S
O606 C611 1.259 . S
Co607 O608 2.061 . S
Co607 O613 2.052 . S
Co607 O615 2.135 . S
O608 Co607 2.061 . S
O608 C611 1.235 . S
C609 O612 1.238 . S
C609 O613 1.241 . S
C610 O603 1.247 . S
C610 O604 1.261 . S
C611 O606 1.259 . S
C611 O608 1.235 . S
O612 Co602 2.021 . S
O612 C609 1.238 . S
O613 Co607 2.052 . S
O613 C609 1.241 . S
O614 Co602 2.137 . S
O614 C605 1.247 . S
O615 Co602 2.244 . S
O615 C605 1.272 . S
O615 Co607 2.135 . S
Co616 O617 2.216 . S
Co616 O618 2.091 . S
Co616 O620 2.004 . S
Co616 O626 2.021 . S
Co616 O628 2.137 . S
Co616 O629 2.244 . S
O617 Co616 2.216 . S
O617 C624 1.247 . S
O618 Co616 2.091 . S
O618 C624 1.261 . S
C619 O628 1.247 . S
C619 O629 1.272 . S
O620 Co616 2.004 . S
O620 C625 1.259 . S
Co621 O622 2.061 . S
Co621 O627 2.052 . S
Co621 O629 2.135 . S
O622 Co621 2.061 . S
O622 C625 1.235 . S
C623 O626 1.238 . S
C623 O627 1.241 . S
C624 O617 1.247 . S
C624 O618 1.261 . S
C625 O620 1.259 . S
C625 O622 1.235 . S
O626 Co616 2.021 . S
O626 C623 1.238 . S
O627 Co621 2.052 . S
O627 C623 1.241 . S
O628 Co616 2.137 . S
O628 C619 1.247 . S
O629 Co616 2.244 . S
O629 C619 1.272 . S
O629 Co621 2.135 . S
Co630 O631 2.216 . S
Co630 O632 2.091 . S
Co630 O634 2.004 . S
Co630 O640 2.021 . S
Co630 O642 2.137 . S
Co630 O643 2.244 . S
O631 Co630 2.216 . S
O631 C638 1.247 . S
O632 Co630 2.091 . S
O632 C638 1.261 . S
C633 O642 1.247 . S
C633 O643 1.272 . S
O634 Co630 2.004 . S
O634 C639 1.259 . S
Co635 O636 2.061 . S
Co635 O641 2.052 . S
Co635 O643 2.135 . S
O636 Co635 2.061 . S
O636 C639 1.235 . S
C637 O640 1.238 . S
C637 O641 1.241 . S
C638 O631 1.247 . S
C638 O632 1.261 . S
C639 O634 1.259 . S
C639 O636 1.235 . S
O640 Co630 2.021 . S
O640 C637 1.238 . S
O641 Co635 2.052 . S
O641 C637 1.241 . S
O642 Co630 2.137 . S
O642 C633 1.247 . S
O643 Co630 2.244 . S
O643 C633 1.272 . S
O643 Co635 2.135 . S
Co644 O645 2.216 . S
Co644 O646 2.091 . S
Co644 O648 2.004 . S
Co644 O654 2.021 . S
Co644 O656 2.137 . S
Co644 O657 2.244 . S
O645 Co644 2.216 . S
O645 C652 1.247 . S
O646 Co644 2.091 . S
O646 C652 1.261 . S
C647 O656 1.247 . S
C647 O657 1.272 . S
O648 Co644 2.004 . S
O648 C653 1.259 . S
Co649 O650 2.061 . S
Co649 O655 2.052 . S
Co649 O657 2.135 . S
O650 Co649 2.061 . S
O650 C653 1.235 . S
C651 O654 1.238 . S
C651 O655 1.241 . S
C652 O645 1.247 . S
C652 O646 1.261 . S
C653 O648 1.259 . S
C653 O650 1.235 . S
O654 Co644 2.021 . S
O654 C651 1.238 . S
O655 Co649 2.052 . S
O655 C651 1.241 . S
O656 Co644 2.137 . S
O656 C647 1.247 . S
O657 Co644 2.244 . S
O657 C647 1.272 . S
O657 Co649 2.135 . S
Co658 O659 2.216 . S
Co658 O660 2.091 . S
Co658 O662 2.004 . S
Co658 O668 2.021 . S
Co658 O670 2.137 . S
Co658 O671 2.244 . S
O659 Co658 2.216 . S
O659 C666 1.247 . S
O660 Co658 2.091 . S
O660 C666 1.261 . S
C661 O670 1.247 . S
C661 O671 1.272 . S
O662 Co658 2.004 . S
O662 C667 1.259 . S
Co663 O664 2.061 . S
Co663 O669 2.052 . S
Co663 O671 2.135 . S
O664 Co663 2.061 . S
O664 C667 1.235 . S
C665 O668 1.238 . S
C665 O669 1.241 . S
C666 O659 1.247 . S
C666 O660 1.261 . S
C667 O662 1.259 . S
C667 O664 1.235 . S
O668 Co658 2.021 . S
O668 C665 1.238 . S
O669 Co663 2.052 . S
O669 C665 1.241 . S
O670 Co658 2.137 . S
O670 C661 1.247 . S
O671 Co658 2.244 . S
O671 C661 1.272 . S
O671 Co663 2.135 . S
Co672 O673 2.216 . S
Co672 O674 2.091 . S
Co672 O676 2.004 . S
Co672 O682 2.021 . S
Co672 O684 2.137 . S
Co672 O685 2.244 . S
O673 Co672 2.216 . S
O673 C680 1.247 . S
O674 Co672 2.091 . S
O674 C680 1.261 . S
C675 O684 1.247 . S
C675 O685 1.272 . S
O676 Co672 2.004 . S
O676 C681 1.259 . S
Co677 O678 2.061 . S
Co677 O683 2.052 . S
Co677 O685 2.135 . S
O678 Co677 2.061 . S
O678 C681 1.235 . S
C679 O682 1.238 . S
C679 O683 1.241 . S
C680 O673 1.247 . S
C680 O674 1.261 . S
C681 O676 1.259 . S
C681 O678 1.235 . S
O682 Co672 2.021 . S
O682 C679 1.238 . S
O683 Co677 2.052 . S
O683 C679 1.241 . S
O684 Co672 2.137 . S
O684 C675 1.247 . S
O685 Co672 2.244 . S
O685 C675 1.272 . S
O685 Co677 2.135 . S
Co686 O687 2.216 . S
Co686 O688 2.091 . S
Co686 O690 2.004 . S
Co686 O696 2.021 . S
Co686 O698 2.137 . S
Co686 O699 2.244 . S
O687 Co686 2.216 . S
O687 C694 1.247 . S
O688 Co686 2.091 . S
O688 C694 1.261 . S
C689 O698 1.247 . S
C689 O699 1.272 . S
O690 Co686 2.004 . S
O690 C695 1.259 . S
Co691 O692 2.061 . S
Co691 O697 2.052 . S
Co691 O699 2.135 . S
O692 Co691 2.061 . S
O692 C695 1.235 . S
C693 O696 1.238 . S
C693 O697 1.241 . S
C694 O687 1.247 . S
C694 O688 1.261 . S
C695 O690 1.259 . S
C695 O692 1.235 . S
O696 Co686 2.021 . S
O696 C693 1.238 . S
O697 Co691 2.052 . S
O697 C693 1.241 . S
O698 Co686 2.137 . S
O698 C689 1.247 . S
O699 Co686 2.244 . S
O699 C689 1.272 . S
O699 Co691 2.135 . S
Co700 O701 2.216 1_655 S
Co700 O702 2.086 1_655 S
Co700 O704 2.004 . S
Co700 O710 2.021 1_655 S
Co700 O712 2.137 . S
Co700 O713 2.244 . S
O701 Co700 2.216 1_455 S
O701 C708 1.247 . S
O702 Co700 2.086 1_455 S
O702 C708 1.276 . S
C703 O712 1.247 . S
C703 O713 1.272 . S
O704 Co700 2.004 . S
O704 C709 1.259 . S
Co705 O706 2.061 . S
Co705 O711 2.052 1_655 S
Co705 O713 2.135 . S
O706 Co705 2.061 . S
O706 C709 1.235 . S
C707 O710 1.238 . S
C707 O711 1.241 . S
C708 O701 1.247 . S
C708 O702 1.276 . S
C709 O704 1.259 . S
C709 O706 1.235 . S
O710 Co700 2.021 1_455 S
O710 C707 1.238 . S
O711 Co705 2.052 1_455 S
O711 C707 1.241 . S
O712 Co700 2.137 . S
O712 C703 1.247 . S
O713 Co700 2.244 . S
O713 C703 1.272 . S
O713 Co705 2.135 . S
Co714 O715 2.216 . S
Co714 O716 2.091 . S
Co714 O718 2.004 . S
Co714 O724 2.021 . S
Co714 O726 2.137 . S
Co714 O727 2.244 . S
O715 Co714 2.216 . S
O715 C722 1.247 . S
O716 Co714 2.091 . S
O716 C722 1.261 . S
C717 O726 1.247 . S
C717 O727 1.272 . S
O718 Co714 2.004 . S
O718 C723 1.259 . S
Co719 O720 2.061 . S
Co719 O725 2.052 . S
Co719 O727 2.135 . S
O720 Co719 2.061 . S
O720 C723 1.235 . S
C721 O724 1.238 . S
C721 O725 1.241 . S
C722 O715 1.247 . S
C722 O716 1.261 . S
C723 O718 1.259 . S
C723 O720 1.235 . S
O724 Co714 2.021 . S
O724 C721 1.238 . S
O725 Co719 2.052 . S
O725 C721 1.241 . S
O726 Co714 2.137 . S
O726 C717 1.247 . S
O727 Co714 2.244 . S
O727 C717 1.272 . S
O727 Co719 2.135 . S
Co728 O729 2.216 . S
Co728 O730 2.091 . S
Co728 O732 2.004 . S
Co728 O738 2.021 . S
Co728 O740 2.137 . S
Co728 O741 2.244 . S
O729 Co728 2.216 . S
O729 C736 1.247 . S
O730 Co728 2.091 . S
O730 C736 1.261 . S
C731 O740 1.247 . S
C731 O741 1.272 . S
O732 Co728 2.004 . S
O732 C737 1.259 . S
Co733 O734 2.061 . S
Co733 O739 2.052 . S
Co733 O741 2.135 . S
O734 Co733 2.061 . S
O734 C737 1.235 . S
C735 O738 1.238 . S
C735 O739 1.241 . S
C736 O729 1.247 . S
C736 O730 1.261 . S
C737 O732 1.259 . S
C737 O734 1.235 . S
O738 Co728 2.021 . S
O738 C735 1.238 . S
O739 Co733 2.052 . S
O739 C735 1.241 . S
O740 Co728 2.137 . S
O740 C731 1.247 . S
O741 Co728 2.244 . S
O741 C731 1.272 . S
O741 Co733 2.135 . S
Co742 O743 2.216 . S
Co742 O744 2.091 . S
Co742 O746 2.004 . S
Co742 O752 2.021 . S
Co742 O754 2.137 . S
Co742 O755 2.244 . S
O743 Co742 2.216 . S
O743 C750 1.247 . S
O744 Co742 2.091 . S
O744 C750 1.261 . S
C745 O754 1.247 . S
C745 O755 1.272 . S
O746 Co742 2.004 . S
O746 C751 1.259 . S
Co747 O748 2.061 . S
Co747 O753 2.052 . S
Co747 O755 2.135 . S
O748 Co747 2.061 . S
O748 C751 1.235 . S
C749 O752 1.238 . S
C749 O753 1.241 . S
C750 O743 1.247 . S
C750 O744 1.261 . S
C751 O746 1.259 . S
C751 O748 1.235 . S
O752 Co742 2.021 . S
O752 C749 1.238 . S
O753 Co747 2.052 . S
O753 C749 1.241 . S
O754 Co742 2.137 . S
O754 C745 1.247 . S
O755 Co742 2.244 . S
O755 C745 1.272 . S
O755 Co747 2.135 . S
Co756 O757 2.216 1_655 S
Co756 O758 2.086 1_655 S
Co756 O760 2.004 . S
Co756 O766 2.021 1_655 S
Co756 O768 2.137 . S
Co756 O769 2.244 . S
O757 Co756 2.216 1_455 S
O757 C764 1.247 . S
O758 Co756 2.086 1_455 S
O758 C764 1.275 . S
C759 O768 1.247 . S
C759 O769 1.272 . S
O760 Co756 2.004 . S
O760 C765 1.259 . S
Co761 O762 2.061 . S
Co761 O767 2.052 1_655 S
Co761 O769 2.135 . S
O762 Co761 2.061 . S
O762 C765 1.235 . S
C763 O766 1.238 . S
C763 O767 1.241 . S
C764 O757 1.247 . S
C764 O758 1.275 . S
C765 O760 1.259 . S
C765 O762 1.235 . S
O766 Co756 2.021 1_455 S
O766 C763 1.238 . S
O767 Co761 2.052 1_455 S
O767 C763 1.241 . S
O768 Co756 2.137 . S
O768 C759 1.247 . S
O769 Co756 2.244 . S
O769 C759 1.272 . S
O769 Co761 2.135 . S
Co770 O771 2.216 . S
Co770 O772 2.091 . S
Co770 O774 2.004 . S
Co770 O780 2.021 . S
Co770 O782 2.137 . S
Co770 O783 2.244 . S
O771 Co770 2.216 . S
O771 C778 1.247 . S
O772 Co770 2.091 . S
O772 C778 1.261 . S
C773 O782 1.247 . S
C773 O783 1.272 . S
O774 Co770 2.004 . S
O774 C779 1.259 . S
Co775 O776 2.061 . S
Co775 O781 2.052 . S
Co775 O783 2.135 . S
O776 Co775 2.061 . S
O776 C779 1.235 . S
C777 O780 1.238 . S
C777 O781 1.241 . S
C778 O771 1.247 . S
C778 O772 1.261 . S
C779 O774 1.259 . S
C779 O776 1.235 . S
O780 Co770 2.021 . S
O780 C777 1.238 . S
O781 Co775 2.052 . S
O781 C777 1.241 . S
O782 Co770 2.137 . S
O782 C773 1.247 . S
O783 Co770 2.244 . S
O783 C773 1.272 . S
O783 Co775 2.135 . S
Co784 O785 2.216 . S
Co784 O786 2.091 . S
Co784 O788 2.004 . S
Co784 O794 2.021 . S
Co784 O796 2.137 . S
Co784 O797 2.244 . S
O785 Co784 2.216 . S
O785 C792 1.247 . S
O786 Co784 2.091 . S
O786 C792 1.261 . S
C787 O796 1.247 . S
C787 O797 1.272 . S
O788 Co784 2.004 . S
O788 C793 1.259 . S
Co789 O790 2.061 . S
Co789 O795 2.052 . S
Co789 O797 2.135 . S
O790 Co789 2.061 . S
O790 C793 1.235 . S
C791 O794 1.238 . S
C791 O795 1.241 . S
C792 O785 1.247 . S
C792 O786 1.261 . S
C793 O788 1.259 . S
C793 O790 1.235 . S
O794 Co784 2.021 . S
O794 C791 1.238 . S
O795 Co789 2.052 . S
O795 C791 1.241 . S
O796 Co784 2.137 . S
O796 C787 1.247 . S
O797 Co784 2.244 . S
O797 C787 1.272 . S
O797 Co789 2.135 . S
Co798 O799 2.216 . S
Co798 O800 2.091 . S
Co798 O802 2.004 . S
Co798 O808 2.021 . S
Co798 O810 2.137 . S
Co798 O811 2.244 . S
O799 Co798 2.216 . S
O799 C806 1.247 . S
O800 Co798 2.091 . S
O800 C806 1.261 . S
C801 O810 1.247 . S
C801 O811 1.272 . S
O802 Co798 2.004 . S
O802 C807 1.259 . S
Co803 O804 2.061 . S
Co803 O809 2.052 . S
Co803 O811 2.135 . S
O804 Co803 2.061 . S
O804 C807 1.235 . S
C805 O808 1.238 . S
C805 O809 1.241 . S
C806 O799 1.247 . S
C806 O800 1.261 . S
C807 O802 1.259 . S
C807 O804 1.235 . S
O808 Co798 2.021 . S
O808 C805 1.238 . S
O809 Co803 2.052 . S
O809 C805 1.241 . S
O810 Co798 2.137 . S
O810 C801 1.247 . S
O811 Co798 2.244 . S
O811 C801 1.272 . S
O811 Co803 2.135 . S
Co812 O813 2.216 . S
Co812 O814 2.091 . S
Co812 O816 2.004 . S
Co812 O822 2.021 . S
Co812 O824 2.137 . S
Co812 O825 2.244 . S
O813 Co812 2.216 . S
O813 C820 1.247 . S
O814 Co812 2.091 . S
O814 C820 1.261 . S
C815 O824 1.247 . S
C815 O825 1.272 . S
O816 Co812 2.004 . S
O816 C821 1.259 . S
Co817 O818 2.061 . S
Co817 O823 2.052 . S
Co817 O825 2.135 . S
O818 Co817 2.061 . S
O818 C821 1.235 . S
C819 O822 1.238 . S
C819 O823 1.241 . S
C820 O813 1.247 . S
C820 O814 1.261 . S
C821 O816 1.259 . S
C821 O818 1.235 . S
O822 Co812 2.021 . S
O822 C819 1.238 . S
O823 Co817 2.052 . S
O823 C819 1.241 . S
O824 Co812 2.137 . S
O824 C815 1.247 . S
O825 Co812 2.244 . S
O825 C815 1.272 . S
O825 Co817 2.135 . S
Co826 O827 2.216 . S
Co826 O828 2.091 . S
Co826 O830 2.004 . S
Co826 O836 2.021 . S
Co826 O838 2.137 . S
Co826 O839 2.244 . S
O827 Co826 2.216 . S
O827 C834 1.247 . S
O828 Co826 2.091 . S
O828 C834 1.261 . S
C829 O838 1.247 . S
C829 O839 1.272 . S
O830 Co826 2.004 . S
O830 C835 1.259 . S
Co831 O832 2.061 . S
Co831 O837 2.052 . S
Co831 O839 2.135 . S
O832 Co831 2.061 . S
O832 C835 1.235 . S
C833 O836 1.238 . S
C833 O837 1.241 . S
C834 O827 1.247 . S
C834 O828 1.261 . S
C835 O830 1.259 . S
C835 O832 1.235 . S
O836 Co826 2.021 . S
O836 C833 1.238 . S
O837 Co831 2.052 . S
O837 C833 1.241 . S
O838 Co826 2.137 . S
O838 C829 1.247 . S
O839 Co826 2.244 . S
O839 C829 1.272 . S
O839 Co831 2.135 . S
Co840 O841 2.216 . S
Co840 O842 2.091 . S
Co840 O844 2.004 . S
Co840 O850 2.021 . S
Co840 O852 2.137 . S
Co840 O853 2.244 . S
O841 Co840 2.216 . S
O841 C848 1.247 . S
O842 Co840 2.091 . S
O842 C848 1.261 . S
C843 O852 1.247 . S
C843 O853 1.272 . S
O844 Co840 2.004 . S
O844 C849 1.259 . S
Co845 O846 2.061 . S
Co845 O851 2.052 . S
Co845 O853 2.135 . S
O846 Co845 2.061 . S
O846 C849 1.235 . S
C847 O850 1.238 . S
C847 O851 1.241 . S
C848 O841 1.247 . S
C848 O842 1.261 . S
C849 O844 1.259 . S
C849 O846 1.235 . S
O850 Co840 2.021 . S
O850 C847 1.238 . S
O851 Co845 2.052 . S
O851 C847 1.241 . S
O852 Co840 2.137 . S
O852 C843 1.247 . S
O853 Co840 2.244 . S
O853 C843 1.272 . S
O853 Co845 2.135 . S
Co854 O855 2.216 . S
Co854 O856 2.091 . S
Co854 O858 2.004 . S
Co854 O864 2.021 . S
Co854 O866 2.137 . S
Co854 O867 2.244 . S
O855 Co854 2.216 . S
O855 C862 1.247 . S
O856 Co854 2.091 . S
O856 C862 1.261 . S
C857 O866 1.247 . S
C857 O867 1.272 . S
O858 Co854 2.004 . S
O858 C863 1.259 . S
Co859 O860 2.061 . S
Co859 O865 2.052 . S
Co859 O867 2.135 . S
O860 Co859 2.061 . S
O860 C863 1.235 . S
C861 O864 1.238 . S
C861 O865 1.241 . S
C862 O855 1.247 . S
C862 O856 1.261 . S
C863 O858 1.259 . S
C863 O860 1.235 . S
O864 Co854 2.021 . S
O864 C861 1.238 . S
O865 Co859 2.052 . S
O865 C861 1.241 . S
O866 Co854 2.137 . S
O866 C857 1.247 . S
O867 Co854 2.244 . S
O867 C857 1.272 . S
O867 Co859 2.135 . S
Co868 O869 2.216 . S
Co868 O870 2.091 . S
Co868 O872 2.004 . S
Co868 O878 2.021 . S
Co868 O880 2.137 . S
Co868 O881 2.244 . S
O869 Co868 2.216 . S
O869 C876 1.247 . S
O870 Co868 2.091 . S
O870 C876 1.261 . S
C871 O880 1.247 . S
C871 O881 1.272 . S
O872 Co868 2.004 . S
O872 C877 1.259 . S
Co873 O874 2.061 . S
Co873 O879 2.052 . S
Co873 O881 2.135 . S
O874 Co873 2.061 . S
O874 C877 1.235 . S
C875 O878 1.238 . S
C875 O879 1.241 . S
C876 O869 1.247 . S
C876 O870 1.261 . S
C877 O872 1.259 . S
C877 O874 1.235 . S
O878 Co868 2.021 . S
O878 C875 1.238 . S
O879 Co873 2.052 . S
O879 C875 1.241 . S
O880 Co868 2.137 . S
O880 C871 1.247 . S
O881 Co868 2.244 . S
O881 C871 1.272 . S
O881 Co873 2.135 . S
Co882 O883 2.216 . S
Co882 O884 2.091 . S
Co882 O886 2.004 . S
Co882 O892 2.021 . S
Co882 O894 2.137 . S
Co882 O895 2.244 . S
O883 Co882 2.216 . S
O883 C890 1.247 . S
O884 Co882 2.091 . S
O884 C890 1.261 . S
C885 O894 1.247 . S
C885 O895 1.272 . S
O886 Co882 2.004 . S
O886 C891 1.259 . S
Co887 O888 2.061 . S
Co887 O893 2.052 . S
Co887 O895 2.135 . S
O888 Co887 2.061 . S
O888 C891 1.235 . S
C889 O892 1.238 . S
C889 O893 1.241 . S
C890 O883 1.247 . S
C890 O884 1.261 . S
C891 O886 1.259 . S
C891 O888 1.235 . S
O892 Co882 2.021 . S
O892 C889 1.238 . S
O893 Co887 2.052 . S
O893 C889 1.241 . S
O894 Co882 2.137 . S
O894 C885 1.247 . S
O895 Co882 2.244 . S
O895 C885 1.272 . S
O895 Co887 2.135 . S
Co896 O897 2.216 . S
Co896 O898 2.091 . S
Co896 O900 2.004 . S
Co896 O906 2.021 . S
Co896 O908 2.137 . S
Co896 O909 2.244 . S
O897 Co896 2.216 . S
O897 C904 1.247 . S
O898 Co896 2.091 . S
O898 C904 1.261 . S
C899 O908 1.247 . S
C899 O909 1.272 . S
O900 Co896 2.004 . S
O900 C905 1.259 . S
Co901 O902 2.061 . S
Co901 O907 2.052 . S
Co901 O909 2.135 . S
O902 Co901 2.061 . S
O902 C905 1.235 . S
C903 O906 1.238 . S
C903 O907 1.241 . S
C904 O897 1.247 . S
C904 O898 1.261 . S
C905 O900 1.259 . S
C905 O902 1.235 . S
O906 Co896 2.021 . S
O906 C903 1.238 . S
O907 Co901 2.052 . S
O907 C903 1.241 . S
O908 Co896 2.137 . S
O908 C899 1.247 . S
O909 Co896 2.244 . S
O909 C899 1.272 . S
O909 Co901 2.135 . S
Co910 O911 2.216 . S
Co910 O912 2.091 . S
Co910 O914 2.004 . S
Co910 O920 2.021 . S
Co910 O922 2.137 . S
Co910 O923 2.244 . S
O911 Co910 2.216 . S
O911 C918 1.247 . S
O912 Co910 2.091 . S
O912 C918 1.261 . S
C913 O922 1.247 . S
C913 O923 1.272 . S
O914 Co910 2.004 . S
O914 C919 1.259 . S
Co915 O916 2.061 . S
Co915 O921 2.052 . S
Co915 O923 2.135 . S
O916 Co915 2.061 . S
O916 C919 1.235 . S
C917 O920 1.238 . S
C917 O921 1.241 . S
C918 O911 1.247 . S
C918 O912 1.261 . S
C919 O914 1.259 . S
C919 O916 1.235 . S
O920 Co910 2.021 . S
O920 C917 1.238 . S
O921 Co915 2.052 . S
O921 C917 1.241 . S
O922 Co910 2.137 . S
O922 C913 1.247 . S
O923 Co910 2.244 . S
O923 C913 1.272 . S
O923 Co915 2.135 . S
Co924 O925 2.216 . S
Co924 O926 2.091 . S
Co924 O928 2.004 . S
Co924 O934 2.021 . S
Co924 O936 2.137 . S
Co924 O937 2.244 . S
O925 Co924 2.216 . S
O925 C932 1.247 . S
O926 Co924 2.091 . S
O926 C932 1.261 . S
C927 O936 1.247 . S
C927 O937 1.272 . S
O928 Co924 2.004 . S
O928 C933 1.259 . S
Co929 O930 2.061 . S
Co929 O935 2.052 . S
Co929 O937 2.135 . S
O930 Co929 2.061 . S
O930 C933 1.235 . S
C931 O934 1.238 . S
C931 O935 1.241 . S
C932 O925 1.247 . S
C932 O926 1.261 . S
C933 O928 1.259 . S
C933 O930 1.235 . S
O934 Co924 2.021 . S
O934 C931 1.238 . S
O935 Co929 2.052 . S
O935 C931 1.241 . S
O936 Co924 2.137 . S
O936 C927 1.247 . S
O937 Co924 2.244 . S
O937 C927 1.272 . S
O937 Co929 2.135 . S
Co938 O939 2.216 1_556 S
Co938 O940 2.091 1_556 S
Co938 O942 2.004 . S
Co938 O948 2.021 1_556 S
Co938 O950 2.137 . S
Co938 O951 2.244 . S
O939 Co938 2.216 1_554 S
O939 C946 1.247 . S
O940 Co938 2.091 1_554 S
O940 C946 1.261 . S
C941 O950 1.247 . S
C941 O951 1.272 . S
O942 Co938 2.004 . S
O942 C947 1.259 . S
Co943 O944 2.061 . S
Co943 O949 2.052 1_556 S
Co943 O951 2.135 . S
O944 Co943 2.061 . S
O944 C947 1.235 . S
C945 O948 1.238 . S
C945 O949 1.241 . S
C946 O939 1.247 . S
C946 O940 1.261 . S
C947 O942 1.259 . S
C947 O944 1.235 . S
O948 Co938 2.021 1_554 S
O948 C945 1.238 . S
O949 Co943 2.052 1_554 S
O949 C945 1.241 . S
O950 Co938 2.137 . S
O950 C941 1.247 . S
O951 Co938 2.244 . S
O951 C941 1.272 . S
O951 Co943 2.135 . S
Co952 O953 2.216 . S
Co952 O954 2.091 . S
Co952 O956 2.004 . S
Co952 O962 2.021 . S
Co952 O964 2.137 . S
Co952 O965 2.244 . S
O953 Co952 2.216 . S
O953 C960 1.247 . S
O954 Co952 2.091 . S
O954 C960 1.261 . S
C955 O964 1.247 . S
C955 O965 1.272 . S
O956 Co952 2.004 . S
O956 C961 1.259 . S
Co957 O958 2.061 . S
Co957 O963 2.052 . S
Co957 O965 2.135 . S
O958 Co957 2.061 . S
O958 C961 1.235 . S
C959 O962 1.238 . S
C959 O963 1.241 . S
C960 O953 1.247 . S
C960 O954 1.261 . S
C961 O956 1.259 . S
C961 O958 1.235 . S
O962 Co952 2.021 . S
O962 C959 1.238 . S
O963 Co957 2.052 . S
O963 C959 1.241 . S
O964 Co952 2.137 . S
O964 C955 1.247 . S
O965 Co952 2.244 . S
O965 C955 1.272 . S
O965 Co957 2.135 . S
Co966 O967 2.216 1_554 S
Co966 O968 2.091 1_554 S
Co966 O970 2.004 . S
Co966 O976 2.021 1_554 S
Co966 O978 2.137 . S
Co966 O979 2.244 . S
O967 Co966 2.216 1_556 S
O967 C974 1.247 . S
O968 Co966 2.091 1_556 S
O968 C974 1.261 . S
C969 O978 1.247 . S
C969 O979 1.272 . S
O970 Co966 2.004 . S
O970 C975 1.259 . S
Co971 O972 2.061 . S
Co971 O977 2.052 1_554 S
Co971 O979 2.135 . S
O972 Co971 2.061 . S
O972 C975 1.235 . S
C973 O976 1.238 . S
C973 O977 1.241 . S
C974 O967 1.247 . S
C974 O968 1.261 . S
C975 O970 1.259 . S
C975 O972 1.235 . S
O976 Co966 2.021 1_556 S
O976 C973 1.238 . S
O977 Co971 2.052 1_556 S
O977 C973 1.241 . S
O978 Co966 2.137 . S
O978 C969 1.247 . S
O979 Co966 2.244 . S
O979 C969 1.272 . S
O979 Co971 2.135 . S
Co980 O981 2.216 . S
Co980 O982 2.091 . S
Co980 O984 2.004 . S
Co980 O990 2.021 . S
Co980 O992 2.137 . S
Co980 O993 2.244 . S
O981 Co980 2.216 . S
O981 C988 1.247 . S
O982 Co980 2.091 . S
O982 C988 1.261 . S
C983 O992 1.247 . S
C983 O993 1.272 . S
O984 Co980 2.004 . S
O984 C989 1.259 . S
Co985 O986 2.061 . S
Co985 O991 2.052 . S
Co985 O993 2.135 . S
O986 Co985 2.061 . S
O986 C989 1.235 . S
C987 O990 1.238 . S
C987 O991 1.241 . S
C988 O981 1.247 . S
C988 O982 1.261 . S
C989 O984 1.259 . S
C989 O986 1.235 . S
O990 Co980 2.021 . S
O990 C987 1.238 . S
O991 Co985 2.052 . S
O991 C987 1.241 . S
O992 Co980 2.137 . S
O992 C983 1.247 . S
O993 Co980 2.244 . S
O993 C983 1.272 . S
O993 Co985 2.135 . S
Co994 O995 2.216 . S
Co994 O996 2.091 . S
Co994 O998 2.004 . S
Co994 O1004 2.021 . S
Co994 O1006 2.137 . S
Co994 O1007 2.244 . S
O995 Co994 2.216 . S
O995 C1002 1.247 . S
O996 Co994 2.091 . S
O996 C1002 1.261 . S
C997 O1006 1.247 . S
C997 O1007 1.272 . S
O998 Co994 2.004 . S
O998 C1003 1.259 . S
Co999 O1000 2.061 . S
Co999 O1005 2.052 . S
Co999 O1007 2.135 . S
O1000 Co999 2.061 . S
O1000 C1003 1.235 . S
C1001 O1004 1.238 . S
C1001 O1005 1.241 . S
C1002 O995 1.247 . S
C1002 O996 1.261 . S
C1003 O998 1.259 . S
C1003 O1000 1.235 . S
O1004 Co994 2.021 . S
O1004 C1001 1.238 . S
O1005 Co999 2.052 . S
O1005 C1001 1.241 . S
O1006 Co994 2.137 . S
O1006 C997 1.247 . S
O1007 Co994 2.244 . S
O1007 C997 1.272 . S
O1007 Co999 2.135 . S
Co1008 O1009 2.216 . S
Co1008 O1010 2.091 . S
Co1008 O1012 2.004 . S
Co1008 O1018 2.021 . S
Co1008 O1020 2.137 . S
Co1008 O1021 2.244 . S
O1009 Co1008 2.216 . S
O1009 C1016 1.247 . S
O1010 Co1008 2.091 . S
O1010 C1016 1.261 . S
C1011 O1020 1.247 . S
C1011 O1021 1.272 . S
O1012 Co1008 2.004 . S
O1012 C1017 1.259 . S
Co1013 O1014 2.061 . S
Co1013 O1019 2.052 . S
Co1013 O1021 2.135 . S
O1014 Co1013 2.061 . S
O1014 C1017 1.235 . S
C1015 O1018 1.238 . S
C1015 O1019 1.241 . S
C1016 O1009 1.247 . S
C1016 O1010 1.261 . S
C1017 O1012 1.259 . S
C1017 O1014 1.235 . S
O1018 Co1008 2.021 . S
O1018 C1015 1.238 . S
O1019 Co1013 2.052 . S
O1019 C1015 1.241 . S
O1020 Co1008 2.137 . S
O1020 C1011 1.247 . S
O1021 Co1008 2.244 . S
O1021 C1011 1.272 . S
O1021 Co1013 2.135 . S
Co1022 O1023 2.216 . S
Co1022 O1024 2.091 . S
Co1022 O1026 2.004 . S
Co1022 O1032 2.021 . S
Co1022 O1034 2.137 . S
Co1022 O1035 2.244 . S
O1023 Co1022 2.216 . S
O1023 C1030 1.247 . S
O1024 Co1022 2.091 . S
O1024 C1030 1.261 . S
C1025 O1034 1.247 . S
C1025 O1035 1.272 . S
O1026 Co1022 2.004 . S
O1026 C1031 1.259 . S
Co1027 O1028 2.061 . S
Co1027 O1033 2.052 . S
Co1027 O1035 2.135 . S
O1028 Co1027 2.061 . S
O1028 C1031 1.235 . S
C1029 O1032 1.238 . S
C1029 O1033 1.241 . S
C1030 O1023 1.247 . S
C1030 O1024 1.261 . S
C1031 O1026 1.259 . S
C1031 O1028 1.235 . S
O1032 Co1022 2.021 . S
O1032 C1029 1.238 . S
O1033 Co1027 2.052 . S
O1033 C1029 1.241 . S
O1034 Co1022 2.137 . S
O1034 C1025 1.247 . S
O1035 Co1022 2.244 . S
O1035 C1025 1.272 . S
O1035 Co1027 2.135 . S
Co1036 O1037 2.216 1_455 S
Co1036 O1038 2.091 1_455 S
Co1036 O1040 2.004 . S
Co1036 O1046 2.021 1_455 S
Co1036 O1048 2.137 . S
Co1036 O1049 2.244 . S
O1037 Co1036 2.216 1_655 S
O1037 C1044 1.247 . S
O1038 Co1036 2.091 1_655 S
O1038 C1044 1.261 . S
C1039 O1048 1.247 . S
C1039 O1049 1.272 . S
O1040 Co1036 2.004 . S
O1040 C1045 1.259 . S
Co1041 O1042 2.061 . S
Co1041 O1047 2.052 1_455 S
Co1041 O1049 2.135 . S
O1042 Co1041 2.061 . S
O1042 C1045 1.235 . S
C1043 O1046 1.238 . S
C1043 O1047 1.241 . S
C1044 O1037 1.247 . S
C1044 O1038 1.261 . S
C1045 O1040 1.259 . S
C1045 O1042 1.235 . S
O1046 Co1036 2.021 1_655 S
O1046 C1043 1.238 . S
O1047 Co1041 2.052 1_655 S
O1047 C1043 1.241 . S
O1048 Co1036 2.137 . S
O1048 C1039 1.247 . S
O1049 Co1036 2.244 . S
O1049 C1039 1.272 . S
O1049 Co1041 2.135 . S
Co1050 O1051 2.216 . S
Co1050 O1052 2.091 . S
Co1050 O1054 2.004 . S
Co1050 O1060 2.021 . S
Co1050 O1062 2.137 . S
Co1050 O1063 2.244 . S
O1051 Co1050 2.216 . S
O1051 C1058 1.247 . S
O1052 Co1050 2.091 . S
O1052 C1058 1.261 . S
C1053 O1062 1.247 . S
C1053 O1063 1.272 . S
O1054 Co1050 2.004 . S
O1054 C1059 1.259 . S
Co1055 O1056 2.061 . S
Co1055 O1061 2.052 . S
Co1055 O1063 2.135 . S
O1056 Co1055 2.061 . S
O1056 C1059 1.235 . S
C1057 O1060 1.238 . S
C1057 O1061 1.241 . S
C1058 O1051 1.247 . S
C1058 O1052 1.261 . S
C1059 O1054 1.259 . S
C1059 O1056 1.235 . S
O1060 Co1050 2.021 . S
O1060 C1057 1.238 . S
O1061 Co1055 2.052 . S
O1061 C1057 1.241 . S
O1062 Co1050 2.137 . S
O1062 C1053 1.247 . S
O1063 Co1050 2.244 . S
O1063 C1053 1.272 . S
O1063 Co1055 2.135 . S
Co1064 O1065 2.216 . S
Co1064 O1066 2.091 . S
Co1064 O1068 2.004 . S
Co1064 O1074 2.021 . S
Co1064 O1076 2.137 . S
Co1064 O1077 2.244 . S
O1065 Co1064 2.216 . S
O1065 C1072 1.247 . S
O1066 Co1064 2.091 . S
O1066 C1072 1.261 . S
C1067 O1076 1.247 . S
C1067 O1077 1.272 . S
O1068 Co1064 2.004 . S
O1068 C1073 1.259 . S
Co1069 O1070 2.061 . S
Co1069 O1075 2.052 . S
Co1069 O1077 2.135 . S
O1070 Co1069 2.061 . S
O1070 C1073 1.235 . S
C1071 O1074 1.238 . S
C1071 O1075 1.241 . S
C1072 O1065 1.247 . S
C1072 O1066 1.261 . S
C1073 O1068 1.259 . S
C1073 O1070 1.235 . S
O1074 Co1064 2.021 . S
O1074 C1071 1.238 . S
O1075 Co1069 2.052 . S
O1075 C1071 1.241 . S
O1076 Co1064 2.137 . S
O1076 C1067 1.247 . S
O1077 Co1064 2.244 . S
O1077 C1067 1.272 . S
O1077 Co1069 2.135 . S
Co1078 O1079 2.216 . S
Co1078 O1080 2.091 . S
Co1078 O1082 2.004 . S
Co1078 O1088 2.021 . S
Co1078 O1090 2.137 . S
Co1078 O1091 2.244 . S
O1079 Co1078 2.216 . S
O1079 C1086 1.247 . S
O1080 Co1078 2.091 . S
O1080 C1086 1.261 . S
C1081 O1090 1.247 . S
C1081 O1091 1.272 . S
O1082 Co1078 2.004 . S
O1082 C1087 1.259 . S
Co1083 O1084 2.061 . S
Co1083 O1089 2.052 . S
Co1083 O1091 2.135 . S
O1084 Co1083 2.061 . S
O1084 C1087 1.235 . S
C1085 O1088 1.238 . S
C1085 O1089 1.241 . S
C1086 O1079 1.247 . S
C1086 O1080 1.261 . S
C1087 O1082 1.259 . S
C1087 O1084 1.235 . S
O1088 Co1078 2.021 . S
O1088 C1085 1.238 . S
O1089 Co1083 2.052 . S
O1089 C1085 1.241 . S
O1090 Co1078 2.137 . S
O1090 C1081 1.247 . S
O1091 Co1078 2.244 . S
O1091 C1081 1.272 . S
O1091 Co1083 2.135 . S
Co1092 O1093 2.216 1_455 S
Co1092 O1094 2.091 1_455 S
Co1092 O1096 2.004 . S
Co1092 O1102 2.021 1_455 S
Co1092 O1104 2.137 . S
Co1092 O1105 2.244 . S
O1093 Co1092 2.216 1_655 S
O1093 C1100 1.247 . S
O1094 Co1092 2.091 1_655 S
O1094 C1100 1.261 . S
C1095 O1104 1.247 . S
C1095 O1105 1.272 . S
O1096 Co1092 2.004 . S
O1096 C1101 1.259 . S
Co1097 O1098 2.061 . S
Co1097 O1103 2.052 1_455 S
Co1097 O1105 2.135 . S
O1098 Co1097 2.061 . S
O1098 C1101 1.235 . S
C1099 O1102 1.238 . S
C1099 O1103 1.241 . S
C1100 O1093 1.247 . S
C1100 O1094 1.261 . S
C1101 O1096 1.259 . S
C1101 O1098 1.235 . S
O1102 Co1092 2.021 1_655 S
O1102 C1099 1.238 . S
O1103 Co1097 2.052 1_655 S
O1103 C1099 1.241 . S
O1104 Co1092 2.137 . S
O1104 C1095 1.247 . S
O1105 Co1092 2.244 . S
O1105 C1095 1.272 . S
O1105 Co1097 2.135 . S
Co1106 O1107 2.216 . S
Co1106 O1108 2.091 . S
Co1106 O1110 2.004 . S
Co1106 O1116 2.021 . S
Co1106 O1118 2.137 . S
Co1106 O1119 2.244 . S
O1107 Co1106 2.216 . S
O1107 C1114 1.247 . S
O1108 Co1106 2.091 . S
O1108 C1114 1.261 . S
C1109 O1118 1.247 . S
C1109 O1119 1.272 . S
O1110 Co1106 2.004 . S
O1110 C1115 1.259 . S
Co1111 O1112 2.061 . S
Co1111 O1117 2.052 . S
Co1111 O1119 2.135 . S
O1112 Co1111 2.061 . S
O1112 C1115 1.235 . S
C1113 O1116 1.238 . S
C1113 O1117 1.241 . S
C1114 O1107 1.247 . S
C1114 O1108 1.261 . S
C1115 O1110 1.259 . S
C1115 O1112 1.235 . S
O1116 Co1106 2.021 . S
O1116 C1113 1.238 . S
O1117 Co1111 2.052 . S
O1117 C1113 1.241 . S
O1118 Co1106 2.137 . S
O1118 C1109 1.247 . S
O1119 Co1106 2.244 . S
O1119 C1109 1.272 . S
O1119 Co1111 2.135 . S
Co1120 O1121 2.216 . S
Co1120 O1122 2.091 . S
Co1120 O1124 2.004 . S
Co1120 O1130 2.021 . S
Co1120 O1132 2.137 . S
Co1120 O1133 2.244 . S
O1121 Co1120 2.216 . S
O1121 C1128 1.247 . S
O1122 Co1120 2.091 . S
O1122 C1128 1.261 . S
C1123 O1132 1.247 . S
C1123 O1133 1.272 . S
O1124 Co1120 2.004 . S
O1124 C1129 1.259 . S
Co1125 O1126 2.061 . S
Co1125 O1131 2.052 . S
Co1125 O1133 2.135 . S
O1126 Co1125 2.061 . S
O1126 C1129 1.235 . S
C1127 O1130 1.238 . S
C1127 O1131 1.241 . S
C1128 O1121 1.247 . S
C1128 O1122 1.261 . S
C1129 O1124 1.259 . S
C1129 O1126 1.235 . S
O1130 Co1120 2.021 . S
O1130 C1127 1.238 . S
O1131 Co1125 2.052 . S
O1131 C1127 1.241 . S
O1132 Co1120 2.137 . S
O1132 C1123 1.247 . S
O1133 Co1120 2.244 . S
O1133 C1123 1.272 . S
O1133 Co1125 2.135 . S
Co1134 O1135 2.216 . S
Co1134 O1136 2.091 . S
Co1134 O1138 2.004 . S
Co1134 O1144 2.021 . S
Co1134 O1146 2.137 . S
Co1134 O1147 2.244 . S
O1135 Co1134 2.216 . S
O1135 C1142 1.247 . S
O1136 Co1134 2.091 . S
O1136 C1142 1.261 . S
C1137 O1146 1.247 . S
C1137 O1147 1.272 . S
O1138 Co1134 2.004 . S
O1138 C1143 1.259 . S
Co1139 O1140 2.061 . S
Co1139 O1145 2.052 . S
Co1139 O1147 2.135 . S
O1140 Co1139 2.061 . S
O1140 C1143 1.235 . S
C1141 O1144 1.238 . S
C1141 O1145 1.241 . S
C1142 O1135 1.247 . S
C1142 O1136 1.261 . S
C1143 O1138 1.259 . S
C1143 O1140 1.235 . S
O1144 Co1134 2.021 . S
O1144 C1141 1.238 . S
O1145 Co1139 2.052 . S
O1145 C1141 1.241 . S
O1146 Co1134 2.137 . S
O1146 C1137 1.247 . S
O1147 Co1134 2.244 . S
O1147 C1137 1.272 . S
O1147 Co1139 2.135 . S
Co1148 O1149 2.216 . S
Co1148 O1150 2.091 . S
Co1148 O1152 2.004 . S
Co1148 O1158 2.021 . S
Co1148 O1160 2.137 . S
Co1148 O1161 2.244 . S
O1149 Co1148 2.216 . S
O1149 C1156 1.247 . S
O1150 Co1148 2.091 . S
O1150 C1156 1.261 . S
C1151 O1160 1.247 . S
C1151 O1161 1.272 . S
O1152 Co1148 2.004 . S
O1152 C1157 1.259 . S
Co1153 O1154 2.061 . S
Co1153 O1159 2.052 . S
Co1153 O1161 2.135 . S
O1154 Co1153 2.061 . S
O1154 C1157 1.235 . S
C1155 O1158 1.238 . S
C1155 O1159 1.241 . S
C1156 O1149 1.247 . S
C1156 O1150 1.261 . S
C1157 O1152 1.259 . S
C1157 O1154 1.235 . S
O1158 Co1148 2.021 . S
O1158 C1155 1.238 . S
O1159 Co1153 2.052 . S
O1159 C1155 1.241 . S
O1160 Co1148 2.137 . S
O1160 C1151 1.247 . S
O1161 Co1148 2.244 . S
O1161 C1151 1.272 . S
O1161 Co1153 2.135 . S
Co1162 O1163 2.216 . S
Co1162 O1164 2.091 . S
Co1162 O1166 2.004 . S
Co1162 O1172 2.021 . S
Co1162 O1174 2.137 . S
Co1162 O1175 2.244 . S
O1163 Co1162 2.216 . S
O1163 C1170 1.247 . S
O1164 Co1162 2.091 . S
O1164 C1170 1.261 . S
C1165 O1174 1.247 . S
C1165 O1175 1.272 . S
O1166 Co1162 2.004 . S
O1166 C1171 1.259 . S
Co1167 O1168 2.061 . S
Co1167 O1173 2.052 . S
Co1167 O1175 2.135 . S
O1168 Co1167 2.061 . S
O1168 C1171 1.235 . S
C1169 O1172 1.238 . S
C1169 O1173 1.241 . S
C1170 O1163 1.247 . S
C1170 O1164 1.261 . S
C1171 O1166 1.259 . S
C1171 O1168 1.235 . S
O1172 Co1162 2.021 . S
O1172 C1169 1.238 . S
O1173 Co1167 2.052 . S
O1173 C1169 1.241 . S
O1174 Co1162 2.137 . S
O1174 C1165 1.247 . S
O1175 Co1162 2.244 . S
O1175 C1165 1.272 . S
O1175 Co1167 2.135 . S
Co1176 O1177 2.216 . S
Co1176 O1178 2.091 . S
Co1176 O1180 2.004 . S
Co1176 O1186 2.021 . S
Co1176 O1188 2.137 . S
Co1176 O1189 2.244 . S
O1177 Co1176 2.216 . S
O1177 C1184 1.247 . S
O1178 Co1176 2.091 . S
O1178 C1184 1.261 . S
C1179 O1188 1.247 . S
C1179 O1189 1.272 . S
O1180 Co1176 2.004 . S
O1180 C1185 1.259 . S
Co1181 O1182 2.061 . S
Co1181 O1187 2.052 . S
Co1181 O1189 2.135 . S
O1182 Co1181 2.061 . S
O1182 C1185 1.235 . S
C1183 O1186 1.238 . S
C1183 O1187 1.241 . S
C1184 O1177 1.247 . S
C1184 O1178 1.261 . S
C1185 O1180 1.259 . S
C1185 O1182 1.235 . S
O1186 Co1176 2.021 . S
O1186 C1183 1.238 . S
O1187 Co1181 2.052 . S
O1187 C1183 1.241 . S
O1188 Co1176 2.137 . S
O1188 C1179 1.247 . S
O1189 Co1176 2.244 . S
O1189 C1179 1.272 . S
O1189 Co1181 2.135 . S
Co1190 O1191 2.216 . S
Co1190 O1192 2.091 . S
Co1190 O1194 2.004 . S
Co1190 O1200 2.021 . S
Co1190 O1202 2.137 . S
Co1190 O1203 2.244 . S
O1191 Co1190 2.216 . S
O1191 C1198 1.247 . S
O1192 Co1190 2.091 . S
O1192 C1198 1.261 . S
C1193 O1202 1.247 . S
C1193 O1203 1.272 . S
O1194 Co1190 2.004 . S
O1194 C1199 1.259 . S
Co1195 O1196 2.061 . S
Co1195 O1201 2.052 . S
Co1195 O1203 2.135 . S
O1196 Co1195 2.061 . S
O1196 C1199 1.235 . S
C1197 O1200 1.238 . S
C1197 O1201 1.241 . S
C1198 O1191 1.247 . S
C1198 O1192 1.261 . S
C1199 O1194 1.259 . S
C1199 O1196 1.235 . S
O1200 Co1190 2.021 . S
O1200 C1197 1.238 . S
O1201 Co1195 2.052 . S
O1201 C1197 1.241 . S
O1202 Co1190 2.137 . S
O1202 C1193 1.247 . S
O1203 Co1190 2.244 . S
O1203 C1193 1.272 . S
O1203 Co1195 2.135 . S
Co1204 O1205 2.216 . S
Co1204 O1206 2.091 . S
Co1204 O1208 2.004 . S
Co1204 O1214 2.021 . S
Co1204 O1216 2.137 . S
Co1204 O1217 2.244 . S
O1205 Co1204 2.216 . S
O1205 C1212 1.247 . S
O1206 Co1204 2.091 . S
O1206 C1212 1.261 . S
C1207 O1216 1.247 . S
C1207 O1217 1.272 . S
O1208 Co1204 2.004 . S
O1208 C1213 1.259 . S
Co1209 O1210 2.061 . S
Co1209 O1215 2.052 . S
Co1209 O1217 2.135 . S
O1210 Co1209 2.061 . S
O1210 C1213 1.235 . S
C1211 O1214 1.238 . S
C1211 O1215 1.241 . S
C1212 O1205 1.247 . S
C1212 O1206 1.261 . S
C1213 O1208 1.259 . S
C1213 O1210 1.235 . S
O1214 Co1204 2.021 . S
O1214 C1211 1.238 . S
O1215 Co1209 2.052 . S
O1215 C1211 1.241 . S
O1216 Co1204 2.137 . S
O1216 C1207 1.247 . S
O1217 Co1204 2.244 . S
O1217 C1207 1.272 . S
O1217 Co1209 2.135 . S
Co1218 O1219 2.216 . S
Co1218 O1220 2.091 . S
Co1218 O1222 2.004 . S
Co1218 O1228 2.021 . S
Co1218 O1230 2.137 . S
Co1218 O1231 2.244 . S
O1219 Co1218 2.216 . S
O1219 C1226 1.247 . S
O1220 Co1218 2.091 . S
O1220 C1226 1.261 . S
C1221 O1230 1.247 . S
C1221 O1231 1.272 . S
O1222 Co1218 2.004 . S
O1222 C1227 1.259 . S
Co1223 O1224 2.061 . S
Co1223 O1229 2.052 . S
Co1223 O1231 2.135 . S
O1224 Co1223 2.061 . S
O1224 C1227 1.235 . S
C1225 O1228 1.238 . S
C1225 O1229 1.241 . S
C1226 O1219 1.247 . S
C1226 O1220 1.261 . S
C1227 O1222 1.259 . S
C1227 O1224 1.235 . S
O1228 Co1218 2.021 . S
O1228 C1225 1.238 . S
O1229 Co1223 2.052 . S
O1229 C1225 1.241 . S
O1230 Co1218 2.137 . S
O1230 C1221 1.247 . S
O1231 Co1218 2.244 . S
O1231 C1221 1.272 . S
O1231 Co1223 2.135 . S
Co1232 O1233 2.216 . S
Co1232 O1234 2.091 . S
Co1232 O1236 2.004 . S
Co1232 O1242 2.021 . S
Co1232 O1244 2.137 . S
Co1232 O1245 2.244 . S
O1233 Co1232 2.216 . S
O1233 C1240 1.247 . S
O1234 Co1232 2.091 . S
O1234 C1240 1.261 . S
C1235 O1244 1.247 . S
C1235 O1245 1.272 . S
O1236 Co1232 2.004 . S
O1236 C1241 1.259 . S
Co1237 O1238 2.061 . S
Co1237 O1243 2.052 . S
Co1237 O1245 2.135 . S
O1238 Co1237 2.061 . S
O1238 C1241 1.235 . S
C1239 O1242 1.238 . S
C1239 O1243 1.241 . S
C1240 O1233 1.247 . S
C1240 O1234 1.261 . S
C1241 O1236 1.259 . S
C1241 O1238 1.235 . S
O1242 Co1232 2.021 . S
O1242 C1239 1.238 . S
O1243 Co1237 2.052 . S
O1243 C1239 1.241 . S
O1244 Co1232 2.137 . S
O1244 C1235 1.247 . S
O1245 Co1232 2.244 . S
O1245 C1235 1.272 . S
O1245 Co1237 2.135 . S
Co1246 O1247 2.216 . S
Co1246 O1248 2.091 . S
Co1246 O1250 2.004 . S
Co1246 O1256 2.021 . S
Co1246 O1258 2.137 . S
Co1246 O1259 2.244 . S
O1247 Co1246 2.216 . S
O1247 C1254 1.247 . S
O1248 Co1246 2.091 . S
O1248 C1254 1.261 . S
C1249 O1258 1.247 . S
C1249 O1259 1.272 . S
O1250 Co1246 2.004 . S
O1250 C1255 1.259 . S
Co1251 O1252 2.061 . S
Co1251 O1257 2.052 . S
Co1251 O1259 2.135 . S
O1252 Co1251 2.061 . S
O1252 C1255 1.235 . S
C1253 O1256 1.238 . S
C1253 O1257 1.241 . S
C1254 O1247 1.247 . S
C1254 O1248 1.261 . S
C1255 O1250 1.259 . S
C1255 O1252 1.235 . S
O1256 Co1246 2.021 . S
O1256 C1253 1.238 . S
O1257 Co1251 2.052 . S
O1257 C1253 1.241 . S
O1258 Co1246 2.137 . S
O1258 C1249 1.247 . S
O1259 Co1246 2.244 . S
O1259 C1249 1.272 . S
O1259 Co1251 2.135 . S
Co1260 O1261 2.216 . S
Co1260 O1262 2.091 . S
Co1260 O1264 2.004 . S
Co1260 O1270 2.021 . S
Co1260 O1272 2.137 . S
Co1260 O1273 2.244 . S
O1261 Co1260 2.216 . S
O1261 C1268 1.247 . S
O1262 Co1260 2.091 . S
O1262 C1268 1.261 . S
C1263 O1272 1.247 . S
C1263 O1273 1.272 . S
O1264 Co1260 2.004 . S
O1264 C1269 1.259 . S
Co1265 O1266 2.061 . S
Co1265 O1271 2.052 . S
Co1265 O1273 2.135 . S
O1266 Co1265 2.061 . S
O1266 C1269 1.235 . S
C1267 O1270 1.238 . S
C1267 O1271 1.241 . S
C1268 O1261 1.247 . S
C1268 O1262 1.261 . S
C1269 O1264 1.259 . S
C1269 O1266 1.235 . S
O1270 Co1260 2.021 . S
O1270 C1267 1.238 . S
O1271 Co1265 2.052 . S
O1271 C1267 1.241 . S
O1272 Co1260 2.137 . S
O1272 C1263 1.247 . S
O1273 Co1260 2.244 . S
O1273 C1263 1.272 . S
O1273 Co1265 2.135 . S
Co1274 O1275 2.216 1_554 S
Co1274 O1276 2.094 . S
Co1274 O1278 2.004 . S
Co1274 O1284 2.021 1_554 S
Co1274 O1286 2.137 . S
Co1274 O1287 2.244 . S
O1275 Co1274 2.216 1_556 S
O1275 C1282 1.247 . S
O1276 Co1274 2.094 . S
O1276 C1282 1.254 1_554 S
C1277 O1286 1.247 . S
C1277 O1287 1.272 . S
O1278 Co1274 2.004 . S
O1278 C1283 1.259 . S
Co1279 O1280 2.061 . S
Co1279 O1285 2.052 1_554 S
Co1279 O1287 2.135 . S
O1280 Co1279 2.061 . S
O1280 C1283 1.235 . S
C1281 O1284 1.238 . S
C1281 O1285 1.241 . S
C1282 O1275 1.247 . S
C1282 O1276 1.254 1_556 S
C1283 O1278 1.259 . S
C1283 O1280 1.235 . S
O1284 Co1274 2.021 1_556 S
O1284 C1281 1.238 . S
O1285 Co1279 2.052 1_556 S
O1285 C1281 1.241 . S
O1286 Co1274 2.137 . S
O1286 C1277 1.247 . S
O1287 Co1274 2.244 . S
O1287 C1277 1.272 . S
O1287 Co1279 2.135 . S
Co1288 O1289 2.216 . S
Co1288 O1290 2.091 . S
Co1288 O1292 2.004 . S
Co1288 O1298 2.021 . S
Co1288 O1300 2.137 . S
Co1288 O1301 2.244 . S
O1289 Co1288 2.216 . S
O1289 C1296 1.247 . S
O1290 Co1288 2.091 . S
O1290 C1296 1.261 . S
C1291 O1300 1.247 . S
C1291 O1301 1.272 . S
O1292 Co1288 2.004 . S
O1292 C1297 1.259 . S
Co1293 O1294 2.061 . S
Co1293 O1299 2.052 . S
Co1293 O1301 2.135 . S
O1294 Co1293 2.061 . S
O1294 C1297 1.235 . S
C1295 O1298 1.238 . S
C1295 O1299 1.241 . S
C1296 O1289 1.247 . S
C1296 O1290 1.261 . S
C1297 O1292 1.259 . S
C1297 O1294 1.235 . S
O1298 Co1288 2.021 . S
O1298 C1295 1.238 . S
O1299 Co1293 2.052 . S
O1299 C1295 1.241 . S
O1300 Co1288 2.137 . S
O1300 C1291 1.247 . S
O1301 Co1288 2.244 . S
O1301 C1291 1.272 . S
O1301 Co1293 2.135 . S
Co1302 O1303 2.216 1_556 S
Co1302 O1304 2.098 . S
Co1302 O1306 2.004 . S
Co1302 O1312 2.021 1_556 S
Co1302 O1314 2.137 . S
Co1302 O1315 2.244 . S
O1303 Co1302 2.216 1_554 S
O1303 C1310 1.247 . S
O1304 Co1302 2.098 . S
O1304 C1310 1.243 1_556 S
C1305 O1314 1.247 . S
C1305 O1315 1.272 . S
O1306 Co1302 2.004 . S
O1306 C1311 1.259 . S
Co1307 O1308 2.061 . S
Co1307 O1313 2.052 1_556 S
Co1307 O1315 2.135 . S
O1308 Co1307 2.061 . S
O1308 C1311 1.235 . S
C1309 O1312 1.238 . S
C1309 O1313 1.241 . S
C1310 O1303 1.247 . S
C1310 O1304 1.243 1_554 S
C1311 O1306 1.259 . S
C1311 O1308 1.235 . S
O1312 Co1302 2.021 1_554 S
O1312 C1309 1.238 . S
O1313 Co1307 2.052 1_554 S
O1313 C1309 1.241 . S
O1314 Co1302 2.137 . S
O1314 C1305 1.247 . S
O1315 Co1302 2.244 . S
O1315 C1305 1.272 . S
O1315 Co1307 2.135 . S
Co1316 O1317 2.216 . S
Co1316 O1318 2.091 . S
Co1316 O1320 2.004 . S
Co1316 O1326 2.021 . S
Co1316 O1328 2.137 . S
Co1316 O1329 2.244 . S
O1317 Co1316 2.216 . S
O1317 C1324 1.247 . S
O1318 Co1316 2.091 . S
O1318 C1324 1.261 . S
C1319 O1328 1.247 . S
C1319 O1329 1.272 . S
O1320 Co1316 2.004 . S
O1320 C1325 1.259 . S
Co1321 O1322 2.061 . S
Co1321 O1327 2.052 . S
Co1321 O1329 2.135 . S
O1322 Co1321 2.061 . S
O1322 C1325 1.235 . S
C1323 O1326 1.238 . S
C1323 O1327 1.241 . S
C1324 O1317 1.247 . S
C1324 O1318 1.261 . S
C1325 O1320 1.259 . S
C1325 O1322 1.235 . S
O1326 Co1316 2.021 . S
O1326 C1323 1.238 . S
O1327 Co1321 2.052 . S
O1327 C1323 1.241 . S
O1328 Co1316 2.137 . S
O1328 C1319 1.247 . S
O1329 Co1316 2.244 . S
O1329 C1319 1.272 . S
O1329 Co1321 2.135 . S
Co1330 O1331 2.216 . S
Co1330 O1332 2.091 . S
Co1330 O1334 2.004 . S
Co1330 O1340 2.021 . S
Co1330 O1342 2.137 . S
Co1330 O1343 2.244 . S
O1331 Co1330 2.216 . S
O1331 C1338 1.247 . S
O1332 Co1330 2.091 . S
O1332 C1338 1.261 . S
C1333 O1342 1.247 . S
C1333 O1343 1.272 . S
O1334 Co1330 2.004 . S
O1334 C1339 1.259 . S
Co1335 O1336 2.061 . S
Co1335 O1341 2.052 . S
Co1335 O1343 2.135 . S
O1336 Co1335 2.061 . S
O1336 C1339 1.235 . S
C1337 O1340 1.238 . S
C1337 O1341 1.241 . S
C1338 O1331 1.247 . S
C1338 O1332 1.261 . S
C1339 O1334 1.259 . S
C1339 O1336 1.235 . S
O1340 Co1330 2.021 . S
O1340 C1337 1.238 . S
O1341 Co1335 2.052 . S
O1341 C1337 1.241 . S
O1342 Co1330 2.137 . S
O1342 C1333 1.247 . S
O1343 Co1330 2.244 . S
O1343 C1333 1.272 . S
O1343 Co1335 2.135 . S
H1344 C1352 0.929 . S
H1345 C1354 0.930 . S
H1346 C1356 0.930 . S
H1347 C1359 0.929 . S
H1348 C1362 0.930 . S
H1349 C1364 0.960 . S
H1350 C1364 0.960 . S
H1351 C1364 0.960 . S
C1352 H1344 0.929 . S
C1352 C1353 1.377 . S
C1352 C1354 1.384 . S
C1353 C1352 1.377 . S
C1353 C1359 1.390 . S
C1354 H1345 0.930 . S
C1354 C1352 1.384 . S
C1354 C1355 1.372 . S
C1355 C1354 1.372 . S
C1355 C1356 1.400 . S
C1355 C1360 1.490 . S
C1356 H1346 0.930 . S
C1356 C1355 1.400 . S
C1356 C1359 1.386 . S
H1357 C1373 0.930 . S
H1358 C1374 0.931 . S
C1359 H1347 0.929 . S
C1359 C1353 1.390 . S
C1359 C1356 1.386 . S
C1360 C1355 1.490 . S
C1360 C1362 1.395 . S
C1360 C1363 1.403 . S
H1361 C1367 0.930 . S
C1362 H1348 0.930 . S
C1362 C1360 1.395 . S
C1362 C1365 1.403 . S
C1363 C1360 1.403 . S
C1363 C1364 1.524 . S
C1363 C1367 1.400 . S
C1364 H1349 0.960 . S
C1364 H1350 0.960 . S
C1364 H1351 0.960 . S
C1364 C1363 1.524 . S
C1365 C1362 1.403 . S
C1365 C1366 1.392 . S
C1365 C1369 1.495 . S
C1366 C1365 1.392 . S
C1366 C1367 1.385 . S
C1366 C1368 1.478 . S
C1367 H1361 0.930 . S
C1367 C1363 1.400 . S
C1367 C1366 1.385 . S
C1368 C1366 1.478 . S
C1368 C1370 1.381 . S
C1368 C1374 1.383 . S
C1369 C1365 1.495 . S
C1369 H1375 0.959 . S
C1369 H1376 0.961 . S
C1369 H1377 0.960 . S
C1370 C1368 1.381 . S
C1370 C1371 1.394 . S
C1370 H1378 0.930 . S
C1371 C1370 1.394 . S
C1371 C1372 1.383 . S
C1371 H1379 0.929 . S
C1372 C1371 1.383 . S
C1372 C1373 1.377 . S
C1373 H1357 0.930 . S
C1373 C1372 1.377 . S
C1373 C1374 1.379 . S
C1374 H1358 0.931 . S
C1374 C1368 1.383 . S
C1374 C1373 1.379 . S
H1375 C1369 0.959 . S
H1376 C1369 0.961 . S
H1377 C1369 0.960 . S
H1378 C1370 0.930 . S
H1379 C1371 0.929 . S
H1380 C1388 0.929 . S
H1381 C1390 0.930 . S
H1382 C1392 0.930 . S
H1383 C1395 0.929 . S
H1384 C1398 0.930 . S
H1385 C1400 0.960 . S
H1386 C1400 0.960 . S
H1387 C1400 0.960 . S
C1388 H1380 0.929 . S
C1388 C1389 1.377 . S
C1388 C1390 1.384 . S
C1389 C1388 1.377 . S
C1389 C1395 1.390 . S
C1390 H1381 0.930 . S
C1390 C1388 1.384 . S
C1390 C1391 1.372 . S
C1391 C1390 1.372 . S
C1391 C1392 1.400 . S
C1391 C1396 1.490 . S
C1392 H1382 0.930 . S
C1392 C1391 1.400 . S
C1392 C1395 1.386 . S
H1393 C1409 0.930 . S
H1394 C1410 0.931 . S
C1395 H1383 0.929 . S
C1395 C1389 1.390 . S
C1395 C1392 1.386 . S
C1396 C1391 1.490 . S
C1396 C1398 1.395 . S
C1396 C1399 1.403 . S
H1397 C1403 0.930 . S
C1398 H1384 0.930 . S
C1398 C1396 1.395 . S
C1398 C1401 1.403 . S
C1399 C1396 1.403 . S
C1399 C1400 1.524 . S
C1399 C1403 1.400 . S
C1400 H1385 0.960 . S
C1400 H1386 0.960 . S
C1400 H1387 0.960 . S
C1400 C1399 1.524 . S
C1401 C1398 1.403 . S
C1401 C1402 1.392 . S
C1401 C1405 1.495 . S
C1402 C1401 1.392 . S
C1402 C1403 1.385 . S
C1402 C1404 1.478 . S
C1403 H1397 0.930 . S
C1403 C1399 1.400 . S
C1403 C1402 1.385 . S
C1404 C1402 1.478 . S
C1404 C1406 1.381 . S
C1404 C1410 1.383 . S
C1405 C1401 1.495 . S
C1405 H1411 0.959 . S
C1405 H1412 0.961 . S
C1405 H1413 0.960 . S
C1406 C1404 1.381 . S
C1406 C1407 1.394 . S
C1406 H1414 0.930 . S
C1407 C1406 1.394 . S
C1407 C1408 1.383 . S
C1407 H1415 0.929 . S
C1408 C1407 1.383 . S
C1408 C1409 1.377 . S
C1409 H1393 0.930 . S
C1409 C1408 1.377 . S
C1409 C1410 1.379 . S
C1410 H1394 0.931 . S
C1410 C1404 1.383 . S
C1410 C1409 1.379 . S
H1411 C1405 0.959 . S
H1412 C1405 0.961 . S
H1413 C1405 0.960 . S
H1414 C1406 0.930 . S
H1415 C1407 0.929 . S
H1416 C1424 0.929 . S
H1417 C1426 0.930 . S
H1418 C1428 0.930 . S
H1419 C1431 0.929 . S
H1420 C1434 0.930 . S
H1421 C1436 0.960 . S
H1422 C1436 0.960 . S
H1423 C1436 0.960 . S
C1424 H1416 0.929 . S
C1424 C1425 1.377 . S
C1424 C1426 1.384 . S
C1425 C1424 1.377 . S
C1425 C1431 1.390 . S
C1426 H1417 0.930 . S
C1426 C1424 1.384 . S
C1426 C1427 1.372 . S
C1427 C1426 1.372 . S
C1427 C1428 1.400 . S
C1427 C1432 1.490 . S
C1428 H1418 0.930 . S
C1428 C1427 1.400 . S
C1428 C1431 1.386 . S
H1429 C1445 0.930 . S
H1430 C1446 0.931 . S
C1431 H1419 0.929 . S
C1431 C1425 1.390 . S
C1431 C1428 1.386 . S
C1432 C1427 1.490 . S
C1432 C1434 1.395 . S
C1432 C1435 1.403 . S
H1433 C1439 0.930 . S
C1434 H1420 0.930 . S
C1434 C1432 1.395 . S
C1434 C1437 1.403 . S
C1435 C1432 1.403 . S
C1435 C1436 1.524 . S
C1435 C1439 1.400 . S
C1436 H1421 0.960 . S
C1436 H1422 0.960 . S
C1436 H1423 0.960 . S
C1436 C1435 1.524 . S
C1437 C1434 1.403 . S
C1437 C1438 1.392 . S
C1437 C1441 1.495 . S
C1438 C1437 1.392 . S
C1438 C1439 1.385 . S
C1438 C1440 1.478 . S
C1439 H1433 0.930 . S
C1439 C1435 1.400 . S
C1439 C1438 1.385 . S
C1440 C1438 1.478 . S
C1440 C1442 1.381 . S
C1440 C1446 1.383 . S
C1441 C1437 1.495 . S
C1441 H1447 0.959 . S
C1441 H1448 0.961 . S
C1441 H1449 0.960 . S
C1442 C1440 1.381 . S
C1442 C1443 1.394 . S
C1442 H1450 0.930 . S
C1443 C1442 1.394 . S
C1443 C1444 1.383 . S
C1443 H1451 0.929 . S
C1444 C1443 1.383 . S
C1444 C1445 1.377 . S
C1445 H1429 0.930 . S
C1445 C1444 1.377 . S
C1445 C1446 1.379 . S
C1446 H1430 0.931 . S
C1446 C1440 1.383 . S
C1446 C1445 1.379 . S
H1447 C1441 0.959 . S
H1448 C1441 0.961 . S
H1449 C1441 0.960 . S
H1450 C1442 0.930 . S
H1451 C1443 0.929 . S
H1452 C1460 0.929 . S
H1453 C1462 0.930 . S
H1454 C1464 0.930 . S
H1455 C1467 0.929 . S
H1456 C1470 0.930 . S
H1457 C1472 0.960 . S
H1458 C1472 0.960 . S
H1459 C1472 0.960 . S
C1460 H1452 0.929 . S
C1460 C1461 1.377 . S
C1460 C1462 1.384 . S
C1461 C1460 1.377 . S
C1461 C1467 1.390 . S
C1462 H1453 0.930 . S
C1462 C1460 1.384 . S
C1462 C1463 1.372 . S
C1463 C1462 1.372 . S
C1463 C1464 1.400 . S
C1463 C1468 1.490 . S
C1464 H1454 0.930 . S
C1464 C1463 1.400 . S
C1464 C1467 1.386 . S
H1465 C1481 0.930 . S
H1466 C1482 0.931 . S
C1467 H1455 0.929 . S
C1467 C1461 1.390 . S
C1467 C1464 1.386 . S
C1468 C1463 1.490 . S
C1468 C1470 1.395 . S
C1468 C1471 1.403 . S
H1469 C1475 0.930 . S
C1470 H1456 0.930 . S
C1470 C1468 1.395 . S
C1470 C1473 1.403 . S
C1471 C1468 1.403 . S
C1471 C1472 1.524 . S
C1471 C1475 1.400 . S
C1472 H1457 0.960 . S
C1472 H1458 0.960 . S
C1472 H1459 0.960 . S
C1472 C1471 1.524 . S
C1473 C1470 1.403 . S
C1473 C1474 1.392 . S
C1473 C1477 1.495 . S
C1474 C1473 1.392 . S
C1474 C1475 1.385 . S
C1474 C1476 1.478 . S
C1475 H1469 0.930 . S
C1475 C1471 1.400 . S
C1475 C1474 1.385 . S
C1476 C1474 1.478 . S
C1476 C1478 1.381 . S
C1476 C1482 1.383 . S
C1477 C1473 1.495 . S
C1477 H1483 0.959 . S
C1477 H1484 0.961 . S
C1477 H1485 0.960 . S
C1478 C1476 1.381 . S
C1478 C1479 1.394 . S
C1478 H1486 0.930 . S
C1479 C1478 1.394 . S
C1479 C1480 1.383 . S
C1479 H1487 0.929 . S
C1480 C1479 1.383 . S
C1480 C1481 1.377 . S
C1481 H1465 0.930 . S
C1481 C1480 1.377 . S
C1481 C1482 1.379 . S
C1482 H1466 0.931 . S
C1482 C1476 1.383 . S
C1482 C1481 1.379 . S
H1483 C1477 0.959 . S
H1484 C1477 0.961 . S
H1485 C1477 0.960 . S
H1486 C1478 0.930 . S
H1487 C1479 0.929 . S
H1488 C1496 0.929 . S
H1489 C1498 0.930 . S
H1490 C1500 0.930 . S
H1491 C1503 0.929 . S
H1492 C1506 0.930 . S
H1493 C1508 0.960 . S
H1494 C1508 0.960 . S
H1495 C1508 0.960 . S
C1496 H1488 0.929 . S
C1496 C1497 1.377 . S
C1496 C1498 1.384 . S
C1497 C1496 1.377 . S
C1497 C1503 1.390 . S
C1498 H1489 0.930 . S
C1498 C1496 1.384 . S
C1498 C1499 1.372 . S
C1499 C1498 1.372 . S
C1499 C1500 1.400 . S
C1499 C1504 1.490 . S
C1500 H1490 0.930 . S
C1500 C1499 1.400 . S
C1500 C1503 1.386 . S
H1501 C1517 0.930 . S
H1502 C1518 0.931 . S
C1503 H1491 0.929 . S
C1503 C1497 1.390 . S
C1503 C1500 1.386 . S
C1504 C1499 1.490 . S
C1504 C1506 1.395 . S
C1504 C1507 1.403 . S
H1505 C1511 0.930 . S
C1506 H1492 0.930 . S
C1506 C1504 1.395 . S
C1506 C1509 1.403 . S
C1507 C1504 1.403 . S
C1507 C1508 1.524 . S
C1507 C1511 1.400 . S
C1508 H1493 0.960 . S
C1508 H1494 0.960 . S
C1508 H1495 0.960 . S
C1508 C1507 1.524 . S
C1509 C1506 1.403 . S
C1509 C1510 1.392 . S
C1509 C1513 1.495 . S
C1510 C1509 1.392 . S
C1510 C1511 1.385 . S
C1510 C1512 1.478 . S
C1511 H1505 0.930 . S
C1511 C1507 1.400 . S
C1511 C1510 1.385 . S
C1512 C1510 1.478 . S
C1512 C1514 1.381 . S
C1512 C1518 1.383 . S
C1513 C1509 1.495 . S
C1513 H1519 0.959 . S
C1513 H1520 0.961 . S
C1513 H1521 0.960 . S
C1514 C1512 1.381 . S
C1514 C1515 1.394 . S
C1514 H1522 0.930 . S
C1515 C1514 1.394 . S
C1515 C1516 1.383 . S
C1515 H1523 0.929 . S
C1516 C1515 1.383 . S
C1516 C1517 1.377 . S
C1517 H1501 0.930 . S
C1517 C1516 1.377 . S
C1517 C1518 1.379 . S
C1518 H1502 0.931 . S
C1518 C1512 1.383 . S
C1518 C1517 1.379 . S
H1519 C1513 0.959 . S
H1520 C1513 0.961 . S
H1521 C1513 0.960 . S
H1522 C1514 0.930 . S
H1523 C1515 0.929 . S
H1524 C1532 0.929 . S
H1525 C1534 0.930 . S
H1526 C1536 0.930 . S
H1527 C1539 0.929 . S
H1528 C1542 0.930 . S
H1529 C1544 0.960 . S
H1530 C1544 0.960 . S
H1531 C1544 0.960 . S
C1532 H1524 0.929 . S
C1532 C1533 1.377 . S
C1532 C1534 1.384 . S
C1533 C1532 1.377 . S
C1533 C1539 1.390 . S
C1534 H1525 0.930 . S
C1534 C1532 1.384 . S
C1534 C1535 1.372 . S
C1535 C1534 1.372 . S
C1535 C1536 1.400 . S
C1535 C1540 1.490 . S
C1536 H1526 0.930 . S
C1536 C1535 1.400 . S
C1536 C1539 1.386 . S
H1537 C1553 0.930 . S
H1538 C1554 0.931 . S
C1539 H1527 0.929 . S
C1539 C1533 1.390 . S
C1539 C1536 1.386 . S
C1540 C1535 1.490 . S
C1540 C1542 1.395 . S
C1540 C1543 1.403 . S
H1541 C1547 0.930 . S
C1542 H1528 0.930 . S
C1542 C1540 1.395 . S
C1542 C1545 1.403 . S
C1543 C1540 1.403 . S
C1543 C1544 1.524 . S
C1543 C1547 1.400 . S
C1544 H1529 0.960 . S
C1544 H1530 0.960 . S
C1544 H1531 0.960 . S
C1544 C1543 1.524 . S
C1545 C1542 1.403 . S
C1545 C1546 1.392 . S
C1545 C1549 1.495 . S
C1546 C1545 1.392 . S
C1546 C1547 1.385 . S
C1546 C1548 1.478 . S
C1547 H1541 0.930 . S
C1547 C1543 1.400 . S
C1547 C1546 1.385 . S
C1548 C1546 1.478 . S
C1548 C1550 1.381 . S
C1548 C1554 1.383 . S
C1549 C1545 1.495 . S
C1549 H1555 0.959 . S
C1549 H1556 0.961 . S
C1549 H1557 0.960 . S
C1550 C1548 1.381 . S
C1550 C1551 1.394 . S
C1550 H1558 0.930 . S
C1551 C1550 1.394 . S
C1551 C1552 1.383 . S
C1551 H1559 0.929 . S
C1552 C1551 1.383 . S
C1552 C1553 1.377 . S
C1553 H1537 0.930 . S
C1553 C1552 1.377 . S
C1553 C1554 1.379 . S
C1554 H1538 0.931 . S
C1554 C1548 1.383 . S
C1554 C1553 1.379 . S
H1555 C1549 0.959 . S
H1556 C1549 0.961 . S
H1557 C1549 0.960 . S
H1558 C1550 0.930 . S
H1559 C1551 0.929 . S
H1560 C1568 0.929 . S
H1561 C1570 0.930 . S
H1562 C1572 0.930 . S
H1563 C1575 0.929 . S
H1564 C1578 0.930 . S
H1565 C1580 0.960 . S
H1566 C1580 0.960 . S
H1567 C1580 0.960 . S
C1568 H1560 0.929 . S
C1568 C1569 1.377 . S
C1568 C1570 1.384 . S
C1569 C1568 1.377 . S
C1569 C1575 1.390 . S
C1570 H1561 0.930 . S
C1570 C1568 1.384 . S
C1570 C1571 1.372 . S
C1571 C1570 1.372 . S
C1571 C1572 1.400 . S
C1571 C1576 1.490 . S
C1572 H1562 0.930 . S
C1572 C1571 1.400 . S
C1572 C1575 1.386 . S
H1573 C1589 0.930 . S
H1574 C1590 0.931 . S
C1575 H1563 0.929 . S
C1575 C1569 1.390 . S
C1575 C1572 1.386 . S
C1576 C1571 1.490 . S
C1576 C1578 1.395 . S
C1576 C1579 1.403 . S
H1577 C1583 0.930 . S
C1578 H1564 0.930 . S
C1578 C1576 1.395 . S
C1578 C1581 1.403 . S
C1579 C1576 1.403 . S
C1579 C1580 1.524 . S
C1579 C1583 1.400 . S
C1580 H1565 0.960 . S
C1580 H1566 0.960 . S
C1580 H1567 0.960 . S
C1580 C1579 1.524 . S
C1581 C1578 1.403 . S
C1581 C1582 1.392 . S
C1581 C1585 1.495 . S
C1582 C1581 1.392 . S
C1582 C1583 1.385 . S
C1582 C1584 1.478 . S
C1583 H1577 0.930 . S
C1583 C1579 1.400 . S
C1583 C1582 1.385 . S
C1584 C1582 1.478 . S
C1584 C1586 1.381 . S
C1584 C1590 1.383 . S
C1585 C1581 1.495 . S
C1585 H1591 0.959 . S
C1585 H1592 0.961 . S
C1585 H1593 0.960 . S
C1586 C1584 1.381 . S
C1586 C1587 1.394 . S
C1586 H1594 0.930 . S
C1587 C1586 1.394 . S
C1587 C1588 1.383 . S
C1587 H1595 0.929 . S
C1588 C1587 1.383 . S
C1588 C1589 1.377 . S
C1589 H1573 0.930 . S
C1589 C1588 1.377 . S
C1589 C1590 1.379 . S
C1590 H1574 0.931 . S
C1590 C1584 1.383 . S
C1590 C1589 1.379 . S
H1591 C1585 0.959 . S
H1592 C1585 0.961 . S
H1593 C1585 0.960 . S
H1594 C1586 0.930 . S
H1595 C1587 0.929 . S
H1596 C1604 0.929 . S
H1597 C1606 0.930 . S
H1598 C1608 0.930 . S
H1599 C1611 0.929 . S
H1600 C1614 0.930 . S
H1601 C1616 0.960 . S
H1602 C1616 0.960 . S
H1603 C1616 0.960 . S
C1604 H1596 0.929 . S
C1604 C1605 1.377 . S
C1604 C1606 1.384 . S
C1605 C1604 1.377 . S
C1605 C1611 1.390 . S
C1606 H1597 0.930 . S
C1606 C1604 1.384 . S
C1606 C1607 1.372 . S
C1607 C1606 1.372 . S
C1607 C1608 1.400 . S
C1607 C1612 1.490 . S
C1608 H1598 0.930 . S
C1608 C1607 1.400 . S
C1608 C1611 1.386 . S
H1609 C1625 0.930 . S
H1610 C1626 0.931 . S
C1611 H1599 0.929 . S
C1611 C1605 1.390 . S
C1611 C1608 1.386 . S
C1612 C1607 1.490 . S
C1612 C1614 1.395 . S
C1612 C1615 1.403 . S
H1613 C1619 0.930 . S
C1614 H1600 0.930 . S
C1614 C1612 1.395 . S
C1614 C1617 1.403 . S
C1615 C1612 1.403 . S
C1615 C1616 1.524 . S
C1615 C1619 1.400 . S
C1616 H1601 0.960 . S
C1616 H1602 0.960 . S
C1616 H1603 0.960 . S
C1616 C1615 1.524 . S
C1617 C1614 1.403 . S
C1617 C1618 1.392 . S
C1617 C1621 1.495 . S
C1618 C1617 1.392 . S
C1618 C1619 1.385 . S
C1618 C1620 1.478 . S
C1619 H1613 0.930 . S
C1619 C1615 1.400 . S
C1619 C1618 1.385 . S
C1620 C1618 1.478 . S
C1620 C1622 1.381 . S
C1620 C1626 1.383 . S
C1621 C1617 1.495 . S
C1621 H1627 0.959 . S
C1621 H1628 0.961 . S
C1621 H1629 0.960 . S
C1622 C1620 1.381 . S
C1622 C1623 1.394 . S
C1622 H1630 0.930 . S
C1623 C1622 1.394 . S
C1623 C1624 1.383 . S
C1623 H1631 0.929 . S
C1624 C1623 1.383 . S
C1624 C1625 1.377 . S
C1625 H1609 0.930 . S
C1625 C1624 1.377 . S
C1625 C1626 1.379 . S
C1626 H1610 0.931 . S
C1626 C1620 1.383 . S
C1626 C1625 1.379 . S
H1627 C1621 0.959 . S
H1628 C1621 0.961 . S
H1629 C1621 0.960 . S
H1630 C1622 0.930 . S
H1631 C1623 0.929 . S
H1632 C1640 0.929 . S
H1633 C1642 0.930 . S
H1634 C1644 0.930 . S
H1635 C1647 0.929 . S
H1636 C1650 0.930 . S
H1637 C1652 0.960 . S
H1638 C1652 0.960 . S
H1639 C1652 0.960 . S
C1640 H1632 0.929 . S
C1640 C1641 1.377 . S
C1640 C1642 1.384 . S
C1641 C1640 1.377 . S
C1641 C1647 1.390 . S
C1642 H1633 0.930 . S
C1642 C1640 1.384 . S
C1642 C1643 1.372 . S
C1643 C1642 1.372 . S
C1643 C1644 1.400 . S
C1643 C1648 1.490 . S
C1644 H1634 0.930 . S
C1644 C1643 1.400 . S
C1644 C1647 1.386 . S
H1645 C1661 0.930 . S
H1646 C1662 0.931 . S
C1647 H1635 0.929 . S
C1647 C1641 1.390 . S
C1647 C1644 1.386 . S
C1648 C1643 1.490 . S
C1648 C1650 1.395 . S
C1648 C1651 1.403 . S
H1649 C1655 0.930 . S
C1650 H1636 0.930 . S
C1650 C1648 1.395 . S
C1650 C1653 1.403 . S
C1651 C1648 1.403 . S
C1651 C1652 1.524 . S
C1651 C1655 1.400 . S
C1652 H1637 0.960 . S
C1652 H1638 0.960 . S
C1652 H1639 0.960 . S
C1652 C1651 1.524 . S
C1653 C1650 1.403 . S
C1653 C1654 1.392 . S
C1653 C1657 1.495 . S
C1654 C1653 1.392 . S
C1654 C1655 1.385 . S
C1654 C1656 1.478 . S
C1655 H1649 0.930 . S
C1655 C1651 1.400 . S
C1655 C1654 1.385 . S
C1656 C1654 1.478 . S
C1656 C1658 1.381 . S
C1656 C1662 1.383 . S
C1657 C1653 1.495 . S
C1657 H1663 0.959 . S
C1657 H1664 0.961 . S
C1657 H1665 0.960 . S
C1658 C1656 1.381 . S
C1658 C1659 1.394 . S
C1658 H1666 0.930 . S
C1659 C1658 1.394 . S
C1659 C1660 1.383 . S
C1659 H1667 0.929 . S
C1660 C1659 1.383 . S
C1660 C1661 1.377 . S
C1661 H1645 0.930 . S
C1661 C1660 1.377 . S
C1661 C1662 1.379 . S
C1662 H1646 0.931 . S
C1662 C1656 1.383 . S
C1662 C1661 1.379 . S
H1663 C1657 0.959 . S
H1664 C1657 0.961 . S
H1665 C1657 0.960 . S
H1666 C1658 0.930 . S
H1667 C1659 0.929 . S
H1668 C1676 0.929 . S
H1669 C1678 0.930 . S
H1670 C1680 0.930 . S
H1671 C1683 0.929 . S
H1672 C1686 0.930 . S
H1673 C1688 0.960 . S
H1674 C1688 0.960 . S
H1675 C1688 0.960 . S
C1676 H1668 0.929 . S
C1676 C1677 1.377 . S
C1676 C1678 1.384 . S
C1677 C1676 1.377 . S
C1677 C1683 1.390 . S
C1678 H1669 0.930 . S
C1678 C1676 1.384 . S
C1678 C1679 1.372 . S
C1679 C1678 1.372 . S
C1679 C1680 1.400 . S
C1679 C1684 1.490 . S
C1680 H1670 0.930 . S
C1680 C1679 1.400 . S
C1680 C1683 1.386 . S
H1681 C1697 0.930 . S
H1682 C1698 0.931 . S
C1683 H1671 0.929 . S
C1683 C1677 1.390 . S
C1683 C1680 1.386 . S
C1684 C1679 1.490 . S
C1684 C1686 1.395 . S
C1684 C1687 1.403 . S
H1685 C1691 0.930 . S
C1686 H1672 0.930 . S
C1686 C1684 1.395 . S
C1686 C1689 1.403 . S
C1687 C1684 1.403 . S
C1687 C1688 1.524 . S
C1687 C1691 1.400 . S
C1688 H1673 0.960 . S
C1688 H1674 0.960 . S
C1688 H1675 0.960 . S
C1688 C1687 1.524 . S
C1689 C1686 1.403 . S
C1689 C1690 1.392 . S
C1689 C1693 1.495 . S
C1690 C1689 1.392 . S
C1690 C1691 1.385 . S
C1690 C1692 1.478 . S
C1691 H1685 0.930 . S
C1691 C1687 1.400 . S
C1691 C1690 1.385 . S
C1692 C1690 1.478 . S
C1692 C1694 1.381 . S
C1692 C1698 1.383 . S
C1693 C1689 1.495 . S
C1693 H1699 0.959 . S
C1693 H1700 0.961 . S
C1693 H1701 0.960 . S
C1694 C1692 1.381 . S
C1694 C1695 1.394 . S
C1694 H1702 0.930 . S
C1695 C1694 1.394 . S
C1695 C1696 1.383 . S
C1695 H1703 0.929 . S
C1696 C1695 1.383 . S
C1696 C1697 1.377 . S
C1697 H1681 0.930 . S
C1697 C1696 1.377 . S
C1697 C1698 1.379 . S
C1698 H1682 0.931 . S
C1698 C1692 1.383 . S
C1698 C1697 1.379 . S
H1699 C1693 0.959 . S
H1700 C1693 0.961 . S
H1701 C1693 0.960 . S
H1702 C1694 0.930 . S
H1703 C1695 0.929 . S
H1704 C1712 0.929 . S
H1705 C1714 0.930 . S
H1706 C1716 0.930 . S
H1707 C1719 0.929 . S
H1708 C1722 0.930 . S
H1709 C1724 0.960 . S
H1710 C1724 0.960 . S
H1711 C1724 0.960 . S
C1712 H1704 0.929 . S
C1712 C1713 1.377 . S
C1712 C1714 1.384 . S
C1713 C1712 1.377 . S
C1713 C1719 1.390 . S
C1714 H1705 0.930 . S
C1714 C1712 1.384 . S
C1714 C1715 1.372 . S
C1715 C1714 1.372 . S
C1715 C1716 1.400 . S
C1715 C1720 1.490 . S
C1716 H1706 0.930 . S
C1716 C1715 1.400 . S
C1716 C1719 1.386 . S
H1717 C1733 0.930 . S
H1718 C1734 0.931 . S
C1719 H1707 0.929 . S
C1719 C1713 1.390 . S
C1719 C1716 1.386 . S
C1720 C1715 1.490 . S
C1720 C1722 1.395 . S
C1720 C1723 1.403 . S
H1721 C1727 0.930 . S
C1722 H1708 0.930 . S
C1722 C1720 1.395 . S
C1722 C1725 1.403 . S
C1723 C1720 1.403 . S
C1723 C1724 1.524 . S
C1723 C1727 1.400 . S
C1724 H1709 0.960 . S
C1724 H1710 0.960 . S
C1724 H1711 0.960 . S
C1724 C1723 1.524 . S
C1725 C1722 1.403 . S
C1725 C1726 1.392 . S
C1725 C1729 1.495 . S
C1726 C1725 1.392 . S
C1726 C1727 1.385 . S
C1726 C1728 1.478 . S
C1727 H1721 0.930 . S
C1727 C1723 1.400 . S
C1727 C1726 1.385 . S
C1728 C1726 1.478 . S
C1728 C1730 1.381 . S
C1728 C1734 1.383 . S
C1729 C1725 1.495 . S
C1729 H1735 0.959 . S
C1729 H1736 0.961 . S
C1729 H1737 0.960 . S
C1730 C1728 1.381 . S
C1730 C1731 1.394 . S
C1730 H1738 0.930 . S
C1731 C1730 1.394 . S
C1731 C1732 1.383 . S
C1731 H1739 0.929 . S
C1732 C1731 1.383 . S
C1732 C1733 1.377 . S
C1733 H1717 0.930 . S
C1733 C1732 1.377 . S
C1733 C1734 1.379 . S
C1734 H1718 0.931 . S
C1734 C1728 1.383 . S
C1734 C1733 1.379 . S
H1735 C1729 0.959 . S
H1736 C1729 0.961 . S
H1737 C1729 0.960 . S
H1738 C1730 0.930 . S
H1739 C1731 0.929 . S
H1740 C1748 0.929 . S
H1741 C1750 0.930 . S
H1742 C1752 0.930 . S
H1743 C1755 0.929 . S
H1744 C1758 0.930 . S
H1745 C1760 0.960 . S
H1746 C1760 0.960 . S
H1747 C1760 0.960 . S
C1748 H1740 0.929 . S
C1748 C1749 1.377 . S
C1748 C1750 1.384 . S
C1749 C1748 1.377 . S
C1749 C1755 1.390 . S
C1750 H1741 0.930 . S
C1750 C1748 1.384 . S
C1750 C1751 1.372 . S
C1751 C1750 1.372 . S
C1751 C1752 1.400 . S
C1751 C1756 1.490 . S
C1752 H1742 0.930 . S
C1752 C1751 1.400 . S
C1752 C1755 1.386 . S
H1753 C1769 0.930 . S
H1754 C1770 0.931 . S
C1755 H1743 0.929 . S
C1755 C1749 1.390 . S
C1755 C1752 1.386 . S
C1756 C1751 1.490 . S
C1756 C1758 1.395 . S
C1756 C1759 1.403 . S
H1757 C1763 0.930 . S
C1758 H1744 0.930 . S
C1758 C1756 1.395 . S
C1758 C1761 1.403 . S
C1759 C1756 1.403 . S
C1759 C1760 1.524 . S
C1759 C1763 1.400 . S
C1760 H1745 0.960 . S
C1760 H1746 0.960 . S
C1760 H1747 0.960 . S
C1760 C1759 1.524 . S
C1761 C1758 1.403 . S
C1761 C1762 1.392 . S
C1761 C1765 1.495 . S
C1762 C1761 1.392 . S
C1762 C1763 1.385 . S
C1762 C1764 1.478 . S
C1763 H1757 0.930 . S
C1763 C1759 1.400 . S
C1763 C1762 1.385 . S
C1764 C1762 1.478 . S
C1764 C1766 1.381 . S
C1764 C1770 1.383 . S
C1765 C1761 1.495 . S
C1765 H1771 0.959 . S
C1765 H1772 0.961 . S
C1765 H1773 0.960 . S
C1766 C1764 1.381 . S
C1766 C1767 1.394 . S
C1766 H1774 0.930 . S
C1767 C1766 1.394 . S
C1767 C1768 1.383 . S
C1767 H1775 0.929 . S
C1768 C1767 1.383 . S
C1768 C1769 1.377 . S
C1769 H1753 0.930 . S
C1769 C1768 1.377 . S
C1769 C1770 1.379 . S
C1770 H1754 0.931 . S
C1770 C1764 1.383 . S
C1770 C1769 1.379 . S
H1771 C1765 0.959 . S
H1772 C1765 0.961 . S
H1773 C1765 0.960 . S
H1774 C1766 0.930 . S
H1775 C1767 0.929 . S
H1776 C1784 0.929 . S
H1777 C1786 0.930 . S
H1778 C1788 0.930 . S
H1779 C1791 0.929 . S
H1780 C1794 0.930 . S
H1781 C1796 0.960 . S
H1782 C1796 0.960 . S
H1783 C1796 0.960 . S
C1784 H1776 0.929 . S
C1784 C1785 1.377 . S
C1784 C1786 1.384 . S
C1785 C1784 1.377 . S
C1785 C1791 1.390 . S
C1786 H1777 0.930 . S
C1786 C1784 1.384 . S
C1786 C1787 1.372 . S
C1787 C1786 1.372 . S
C1787 C1788 1.400 . S
C1787 C1792 1.490 . S
C1788 H1778 0.930 . S
C1788 C1787 1.400 . S
C1788 C1791 1.386 . S
H1789 C1805 0.930 . S
H1790 C1806 0.931 . S
C1791 H1779 0.929 . S
C1791 C1785 1.390 . S
C1791 C1788 1.386 . S
C1792 C1787 1.490 . S
C1792 C1794 1.395 . S
C1792 C1795 1.403 . S
H1793 C1799 0.930 . S
C1794 H1780 0.930 . S
C1794 C1792 1.395 . S
C1794 C1797 1.403 . S
C1795 C1792 1.403 . S
C1795 C1796 1.524 . S
C1795 C1799 1.400 . S
C1796 H1781 0.960 . S
C1796 H1782 0.960 . S
C1796 H1783 0.960 . S
C1796 C1795 1.524 . S
C1797 C1794 1.403 . S
C1797 C1798 1.392 . S
C1797 C1801 1.495 . S
C1798 C1797 1.392 . S
C1798 C1799 1.385 . S
C1798 C1800 1.478 . S
C1799 H1793 0.930 . S
C1799 C1795 1.400 . S
C1799 C1798 1.385 . S
C1800 C1798 1.478 . S
C1800 C1802 1.381 . S
C1800 C1806 1.383 . S
C1801 C1797 1.495 . S
C1801 H1807 0.959 . S
C1801 H1808 0.961 . S
C1801 H1809 0.960 . S
C1802 C1800 1.381 . S
C1802 C1803 1.394 . S
C1802 H1810 0.930 . S
C1803 C1802 1.394 . S
C1803 C1804 1.383 . S
C1803 H1811 0.929 . S
C1804 C1803 1.383 . S
C1804 C1805 1.377 . S
C1805 H1789 0.930 . S
C1805 C1804 1.377 . S
C1805 C1806 1.379 . S
C1806 H1790 0.931 . S
C1806 C1800 1.383 . S
C1806 C1805 1.379 . S
H1807 C1801 0.959 . S
H1808 C1801 0.961 . S
H1809 C1801 0.960 . S
H1810 C1802 0.930 . S
H1811 C1803 0.929 . S
H1812 C1820 0.929 . S
H1813 C1822 0.930 . S
H1814 C1824 0.930 . S
H1815 C1827 0.929 . S
H1816 C1830 0.930 . S
H1817 C1832 0.960 . S
H1818 C1832 0.960 . S
H1819 C1832 0.960 . S
C1820 H1812 0.929 . S
C1820 C1821 1.377 . S
C1820 C1822 1.384 . S
C1821 C1820 1.377 . S
C1821 C1827 1.390 . S
C1822 H1813 0.930 . S
C1822 C1820 1.384 . S
C1822 C1823 1.372 . S
C1823 C1822 1.372 . S
C1823 C1824 1.400 . S
C1823 C1828 1.490 . S
C1824 H1814 0.930 . S
C1824 C1823 1.400 . S
C1824 C1827 1.386 . S
H1825 C1841 0.930 . S
H1826 C1842 0.931 . S
C1827 H1815 0.929 . S
C1827 C1821 1.390 . S
C1827 C1824 1.386 . S
C1828 C1823 1.490 . S
C1828 C1830 1.395 . S
C1828 C1831 1.403 . S
H1829 C1835 0.930 . S
C1830 H1816 0.930 . S
C1830 C1828 1.395 . S
C1830 C1833 1.403 . S
C1831 C1828 1.403 . S
C1831 C1832 1.524 . S
C1831 C1835 1.400 . S
C1832 H1817 0.960 . S
C1832 H1818 0.960 . S
C1832 H1819 0.960 . S
C1832 C1831 1.524 . S
C1833 C1830 1.403 . S
C1833 C1834 1.392 . S
C1833 C1837 1.495 . S
C1834 C1833 1.392 . S
C1834 C1835 1.385 . S
C1834 C1836 1.478 . S
C1835 H1829 0.930 . S
C1835 C1831 1.400 . S
C1835 C1834 1.385 . S
C1836 C1834 1.478 . S
C1836 C1838 1.381 . S
C1836 C1842 1.383 . S
C1837 C1833 1.495 . S
C1837 H1843 0.959 . S
C1837 H1844 0.961 . S
C1837 H1845 0.960 . S
C1838 C1836 1.381 . S
C1838 C1839 1.394 . S
C1838 H1846 0.930 . S
C1839 C1838 1.394 . S
C1839 C1840 1.383 . S
C1839 H1847 0.929 . S
C1840 C1839 1.383 . S
C1840 C1841 1.377 . S
C1841 H1825 0.930 . S
C1841 C1840 1.377 . S
C1841 C1842 1.379 . S
C1842 H1826 0.931 . S
C1842 C1836 1.383 . S
C1842 C1841 1.379 . S
H1843 C1837 0.959 . S
H1844 C1837 0.961 . S
H1845 C1837 0.960 . S
H1846 C1838 0.930 . S
H1847 C1839 0.929 . S
H1848 C1856 0.929 . S
H1849 C1858 0.930 . S
H1850 C1860 0.930 . S
H1851 C1863 0.929 . S
H1852 C1866 0.930 . S
H1853 C1868 0.960 . S
H1854 C1868 0.960 . S
H1855 C1868 0.960 . S
C1856 H1848 0.929 . S
C1856 C1857 1.377 . S
C1856 C1858 1.384 . S
C1857 C1856 1.377 . S
C1857 C1863 1.390 . S
C1858 H1849 0.930 . S
C1858 C1856 1.384 . S
C1858 C1859 1.372 . S
C1859 C1858 1.372 . S
C1859 C1860 1.400 . S
C1859 C1864 1.490 . S
C1860 H1850 0.930 . S
C1860 C1859 1.400 . S
C1860 C1863 1.386 . S
H1861 C1877 0.930 . S
H1862 C1878 0.931 . S
C1863 H1851 0.929 . S
C1863 C1857 1.390 . S
C1863 C1860 1.386 . S
C1864 C1859 1.490 . S
C1864 C1866 1.395 . S
C1864 C1867 1.403 . S
H1865 C1871 0.930 . S
C1866 H1852 0.930 . S
C1866 C1864 1.395 . S
C1866 C1869 1.403 . S
C1867 C1864 1.403 . S
C1867 C1868 1.524 . S
C1867 C1871 1.400 . S
C1868 H1853 0.960 . S
C1868 H1854 0.960 . S
C1868 H1855 0.960 . S
C1868 C1867 1.524 . S
C1869 C1866 1.403 . S
C1869 C1870 1.392 . S
C1869 C1873 1.495 . S
C1870 C1869 1.392 . S
C1870 C1871 1.385 . S
C1870 C1872 1.478 . S
C1871 H1865 0.930 . S
C1871 C1867 1.400 . S
C1871 C1870 1.385 . S
C1872 C1870 1.478 . S
C1872 C1874 1.381 . S
C1872 C1878 1.383 . S
C1873 C1869 1.495 . S
C1873 H1879 0.959 . S
C1873 H1880 0.961 . S
C1873 H1881 0.960 . S
C1874 C1872 1.381 . S
C1874 C1875 1.394 . S
C1874 H1882 0.930 . S
C1875 C1874 1.394 . S
C1875 C1876 1.383 . S
C1875 H1883 0.929 . S
C1876 C1875 1.383 . S
C1876 C1877 1.377 . S
C1877 H1861 0.930 . S
C1877 C1876 1.377 . S
C1877 C1878 1.379 . S
C1878 H1862 0.931 . S
C1878 C1872 1.383 . S
C1878 C1877 1.379 . S
H1879 C1873 0.959 . S
H1880 C1873 0.961 . S
H1881 C1873 0.960 . S
H1882 C1874 0.930 . S
H1883 C1875 0.929 . S
H1884 C1892 0.929 . S
H1885 C1894 0.930 . S
H1886 C1896 0.930 . S
H1887 C1899 0.929 . S
H1888 C1902 0.930 . S
H1889 C1904 0.960 . S
H1890 C1904 0.960 . S
H1891 C1904 0.960 . S
C1892 H1884 0.929 . S
C1892 C1893 1.377 . S
C1892 C1894 1.384 . S
C1893 C1892 1.377 . S
C1893 C1899 1.390 . S
C1894 H1885 0.930 . S
C1894 C1892 1.384 . S
C1894 C1895 1.372 . S
C1895 C1894 1.372 . S
C1895 C1896 1.400 . S
C1895 C1900 1.490 . S
C1896 H1886 0.930 . S
C1896 C1895 1.400 . S
C1896 C1899 1.386 . S
H1897 C1913 0.930 . S
H1898 C1914 0.931 . S
C1899 H1887 0.929 . S
C1899 C1893 1.390 . S
C1899 C1896 1.386 . S
C1900 C1895 1.490 . S
C1900 C1902 1.395 . S
C1900 C1903 1.403 . S
H1901 C1907 0.930 . S
C1902 H1888 0.930 . S
C1902 C1900 1.395 . S
C1902 C1905 1.403 . S
C1903 C1900 1.403 . S
C1903 C1904 1.524 . S
C1903 C1907 1.400 . S
C1904 H1889 0.960 . S
C1904 H1890 0.960 . S
C1904 H1891 0.960 . S
C1904 C1903 1.524 . S
C1905 C1902 1.403 . S
C1905 C1906 1.392 . S
C1905 C1909 1.495 . S
C1906 C1905 1.392 . S
C1906 C1907 1.385 . S
C1906 C1908 1.478 . S
C1907 H1901 0.930 . S
C1907 C1903 1.400 . S
C1907 C1906 1.385 . S
C1908 C1906 1.478 . S
C1908 C1910 1.381 . S
C1908 C1914 1.383 . S
C1909 C1905 1.495 . S
C1909 H1915 0.959 . S
C1909 H1916 0.961 . S
C1909 H1917 0.960 . S
C1910 C1908 1.381 . S
C1910 C1911 1.394 . S
C1910 H1918 0.930 . S
C1911 C1910 1.394 . S
C1911 C1912 1.383 . S
C1911 H1919 0.929 . S
C1912 C1911 1.383 . S
C1912 C1913 1.377 . S
C1913 H1897 0.930 . S
C1913 C1912 1.377 . S
C1913 C1914 1.379 . S
C1914 H1898 0.931 . S
C1914 C1908 1.383 . S
C1914 C1913 1.379 . S
H1915 C1909 0.959 . S
H1916 C1909 0.961 . S
H1917 C1909 0.960 . S
H1918 C1910 0.930 . S
H1919 C1911 0.929 . S
H1920 C1928 0.929 . S
H1921 C1930 0.930 . S
H1922 C1932 0.930 . S
H1923 C1935 0.929 . S
H1924 C1938 0.930 . S
H1925 C1940 0.960 . S
H1926 C1940 0.960 . S
H1927 C1940 0.960 . S
C1928 H1920 0.929 . S
C1928 C1929 1.377 . S
C1928 C1930 1.384 . S
C1929 C1928 1.377 . S
C1929 C1935 1.390 . S
C1930 H1921 0.930 . S
C1930 C1928 1.384 . S
C1930 C1931 1.372 . S
C1931 C1930 1.372 . S
C1931 C1932 1.400 . S
C1931 C1936 1.490 . S
C1932 H1922 0.930 . S
C1932 C1931 1.400 . S
C1932 C1935 1.386 . S
H1933 C1949 0.930 . S
H1934 C1950 0.931 . S
C1935 H1923 0.929 . S
C1935 C1929 1.390 . S
C1935 C1932 1.386 . S
C1936 C1931 1.490 . S
C1936 C1938 1.395 . S
C1936 C1939 1.403 . S
H1937 C1943 0.930 . S
C1938 H1924 0.930 . S
C1938 C1936 1.395 . S
C1938 C1941 1.403 . S
C1939 C1936 1.403 . S
C1939 C1940 1.524 . S
C1939 C1943 1.400 . S
C1940 H1925 0.960 . S
C1940 H1926 0.960 . S
C1940 H1927 0.960 . S
C1940 C1939 1.524 . S
C1941 C1938 1.403 . S
C1941 C1942 1.392 . S
C1941 C1945 1.495 . S
C1942 C1941 1.392 . S
C1942 C1943 1.385 . S
C1942 C1944 1.478 . S
C1943 H1937 0.930 . S
C1943 C1939 1.400 . S
C1943 C1942 1.385 . S
C1944 C1942 1.478 . S
C1944 C1946 1.381 . S
C1944 C1950 1.383 . S
C1945 C1941 1.495 . S
C1945 H1951 0.959 . S
C1945 H1952 0.961 . S
C1945 H1953 0.960 . S
C1946 C1944 1.381 . S
C1946 C1947 1.394 . S
C1946 H1954 0.930 . S
C1947 C1946 1.394 . S
C1947 C1948 1.383 . S
C1947 H1955 0.929 . S
C1948 C1947 1.383 . S
C1948 C1949 1.377 . S
C1949 H1933 0.930 . S
C1949 C1948 1.377 . S
C1949 C1950 1.379 . S
C1950 H1934 0.931 . S
C1950 C1944 1.383 . S
C1950 C1949 1.379 . S
H1951 C1945 0.959 . S
H1952 C1945 0.961 . S
H1953 C1945 0.960 . S
H1954 C1946 0.930 . S
H1955 C1947 0.929 . S
H1956 C1964 0.929 . S
H1957 C1966 0.930 . S
H1958 C1968 0.930 . S
H1959 C1971 0.929 . S
H1960 C1974 0.930 . S
H1961 C1976 0.960 . S
H1962 C1976 0.960 . S
H1963 C1976 0.960 . S
C1964 H1956 0.929 . S
C1964 C1965 1.377 . S
C1964 C1966 1.384 . S
C1965 C1964 1.377 . S
C1965 C1971 1.390 . S
C1966 H1957 0.930 . S
C1966 C1964 1.384 . S
C1966 C1967 1.372 . S
C1967 C1966 1.372 . S
C1967 C1968 1.400 . S
C1967 C1972 1.490 . S
C1968 H1958 0.930 . S
C1968 C1967 1.400 . S
C1968 C1971 1.386 . S
H1969 C1985 0.930 . S
H1970 C1986 0.931 . S
C1971 H1959 0.929 . S
C1971 C1965 1.390 . S
C1971 C1968 1.386 . S
C1972 C1967 1.490 . S
C1972 C1974 1.395 . S
C1972 C1975 1.403 . S
H1973 C1979 0.930 . S
C1974 H1960 0.930 . S
C1974 C1972 1.395 . S
C1974 C1977 1.403 . S
C1975 C1972 1.403 . S
C1975 C1976 1.524 . S
C1975 C1979 1.400 . S
C1976 H1961 0.960 . S
C1976 H1962 0.960 . S
C1976 H1963 0.960 . S
C1976 C1975 1.524 . S
C1977 C1974 1.403 . S
C1977 C1978 1.392 . S
C1977 C1981 1.495 . S
C1978 C1977 1.392 . S
C1978 C1979 1.385 . S
C1978 C1980 1.478 . S
C1979 H1973 0.930 . S
C1979 C1975 1.400 . S
C1979 C1978 1.385 . S
C1980 C1978 1.478 . S
C1980 C1982 1.381 . S
C1980 C1986 1.383 . S
C1981 C1977 1.495 . S
C1981 H1987 0.959 . S
C1981 H1988 0.961 . S
C1981 H1989 0.960 . S
C1982 C1980 1.381 . S
C1982 C1983 1.394 . S
C1982 H1990 0.930 . S
C1983 C1982 1.394 . S
C1983 C1984 1.383 . S
C1983 H1991 0.929 . S
C1984 C1983 1.383 . S
C1984 C1985 1.377 . S
C1985 H1969 0.930 . S
C1985 C1984 1.377 . S
C1985 C1986 1.379 . S
C1986 H1970 0.931 . S
C1986 C1980 1.383 . S
C1986 C1985 1.379 . S
H1987 C1981 0.959 . S
H1988 C1981 0.961 . S
H1989 C1981 0.960 . S
H1990 C1982 0.930 . S
H1991 C1983 0.929 . S
H1992 C2000 0.929 . S
H1993 C2002 0.930 . S
H1994 C2004 0.930 . S
H1995 C2007 0.929 . S
H1996 C2010 0.930 . S
H1997 C2012 0.960 . S
H1998 C2012 0.960 . S
H1999 C2012 0.960 . S
C2000 H1992 0.929 . S
C2000 C2001 1.377 . S
C2000 C2002 1.384 . S
C2001 C2000 1.377 . S
C2001 C2007 1.390 . S
C2002 H1993 0.930 . S
C2002 C2000 1.384 . S
C2002 C2003 1.372 . S
C2003 C2002 1.372 . S
C2003 C2004 1.400 . S
C2003 C2008 1.490 . S
C2004 H1994 0.930 . S
C2004 C2003 1.400 . S
C2004 C2007 1.386 . S
H2005 C2021 0.930 . S
H2006 C2022 0.931 . S
C2007 H1995 0.929 . S
C2007 C2001 1.390 . S
C2007 C2004 1.386 . S
C2008 C2003 1.490 . S
C2008 C2010 1.395 . S
C2008 C2011 1.403 . S
H2009 C2015 0.930 . S
C2010 H1996 0.930 . S
C2010 C2008 1.395 . S
C2010 C2013 1.403 . S
C2011 C2008 1.403 . S
C2011 C2012 1.524 . S
C2011 C2015 1.400 . S
C2012 H1997 0.960 . S
C2012 H1998 0.960 . S
C2012 H1999 0.960 . S
C2012 C2011 1.524 . S
C2013 C2010 1.403 . S
C2013 C2014 1.392 . S
C2013 C2017 1.495 . S
C2014 C2013 1.392 . S
C2014 C2015 1.385 . S
C2014 C2016 1.478 . S
C2015 H2009 0.930 . S
C2015 C2011 1.400 . S
C2015 C2014 1.385 . S
C2016 C2014 1.478 . S
C2016 C2018 1.381 . S
C2016 C2022 1.383 . S
C2017 C2013 1.495 . S
C2017 H2023 0.959 . S
C2017 H2024 0.961 . S
C2017 H2025 0.960 . S
C2018 C2016 1.381 . S
C2018 C2019 1.394 . S
C2018 H2026 0.930 . S
C2019 C2018 1.394 . S
C2019 C2020 1.383 . S
C2019 H2027 0.929 . S
C2020 C2019 1.383 . S
C2020 C2021 1.377 . S
C2021 H2005 0.930 . S
C2021 C2020 1.377 . S
C2021 C2022 1.379 . S
C2022 H2006 0.931 . S
C2022 C2016 1.383 . S
C2022 C2021 1.379 . S
H2023 C2017 0.959 . S
H2024 C2017 0.961 . S
H2025 C2017 0.960 . S
H2026 C2018 0.930 . S
H2027 C2019 0.929 . S
H2028 C2036 0.929 . S
H2029 C2038 0.930 . S
H2030 C2040 0.930 . S
H2031 C2043 0.929 . S
H2032 C2046 0.930 . S
H2033 C2048 0.960 . S
H2034 C2048 0.960 . S
H2035 C2048 0.960 . S
C2036 H2028 0.929 . S
C2036 C2037 1.377 . S
C2036 C2038 1.384 . S
C2037 C2036 1.377 . S
C2037 C2043 1.390 . S
C2038 H2029 0.930 . S
C2038 C2036 1.384 . S
C2038 C2039 1.372 . S
C2039 C2038 1.372 . S
C2039 C2040 1.400 . S
C2039 C2044 1.490 . S
C2040 H2030 0.930 . S
C2040 C2039 1.400 . S
C2040 C2043 1.386 . S
H2041 C2057 0.930 . S
H2042 C2058 0.931 . S
C2043 H2031 0.929 . S
C2043 C2037 1.390 . S
C2043 C2040 1.386 . S
C2044 C2039 1.490 . S
C2044 C2046 1.395 . S
C2044 C2047 1.403 . S
H2045 C2051 0.930 . S
C2046 H2032 0.930 . S
C2046 C2044 1.395 . S
C2046 C2049 1.403 . S
C2047 C2044 1.403 . S
C2047 C2048 1.524 . S
C2047 C2051 1.400 . S
C2048 H2033 0.960 . S
C2048 H2034 0.960 . S
C2048 H2035 0.960 . S
C2048 C2047 1.524 . S
C2049 C2046 1.403 . S
C2049 C2050 1.392 . S
C2049 C2053 1.495 . S
C2050 C2049 1.392 . S
C2050 C2051 1.385 . S
C2050 C2052 1.478 . S
C2051 H2045 0.930 . S
C2051 C2047 1.400 . S
C2051 C2050 1.385 . S
C2052 C2050 1.478 . S
C2052 C2054 1.381 . S
C2052 C2058 1.383 . S
C2053 C2049 1.495 . S
C2053 H2059 0.959 . S
C2053 H2060 0.961 . S
C2053 H2061 0.960 . S
C2054 C2052 1.381 . S
C2054 C2055 1.394 . S
C2054 H2062 0.930 . S
C2055 C2054 1.394 . S
C2055 C2056 1.383 . S
C2055 H2063 0.929 . S
C2056 C2055 1.383 . S
C2056 C2057 1.377 . S
C2057 H2041 0.930 . S
C2057 C2056 1.377 . S
C2057 C2058 1.379 . S
C2058 H2042 0.931 . S
C2058 C2052 1.383 . S
C2058 C2057 1.379 . S
H2059 C2053 0.959 . S
H2060 C2053 0.961 . S
H2061 C2053 0.960 . S
H2062 C2054 0.930 . S
H2063 C2055 0.929 . S
H2064 C2072 0.929 . S
H2065 C2074 0.930 . S
H2066 C2076 0.930 . S
H2067 C2079 0.929 . S
H2068 C2082 0.930 . S
H2069 C2084 0.960 . S
H2070 C2084 0.960 . S
H2071 C2084 0.960 . S
C2072 H2064 0.929 . S
C2072 C2073 1.377 . S
C2072 C2074 1.384 . S
C2073 C2072 1.377 . S
C2073 C2079 1.390 . S
C2074 H2065 0.930 . S
C2074 C2072 1.384 . S
C2074 C2075 1.372 . S
C2075 C2074 1.372 . S
C2075 C2076 1.400 . S
C2075 C2080 1.490 . S
C2076 H2066 0.930 . S
C2076 C2075 1.400 . S
C2076 C2079 1.386 . S
H2077 C2093 0.930 . S
H2078 C2094 0.931 . S
C2079 H2067 0.929 . S
C2079 C2073 1.390 . S
C2079 C2076 1.386 . S
C2080 C2075 1.490 . S
C2080 C2082 1.395 . S
C2080 C2083 1.403 . S
H2081 C2087 0.930 . S
C2082 H2068 0.930 . S
C2082 C2080 1.395 . S
C2082 C2085 1.403 . S
C2083 C2080 1.403 . S
C2083 C2084 1.524 . S
C2083 C2087 1.400 . S
C2084 H2069 0.960 . S
C2084 H2070 0.960 . S
C2084 H2071 0.960 . S
C2084 C2083 1.524 . S
C2085 C2082 1.403 . S
C2085 C2086 1.392 . S
C2085 C2089 1.495 . S
C2086 C2085 1.392 . S
C2086 C2087 1.385 . S
C2086 C2088 1.478 . S
C2087 H2081 0.930 . S
C2087 C2083 1.400 . S
C2087 C2086 1.385 . S
C2088 C2086 1.478 . S
C2088 C2090 1.381 . S
C2088 C2094 1.383 . S
C2089 C2085 1.495 . S
C2089 H2095 0.959 . S
C2089 H2096 0.961 . S
C2089 H2097 0.960 . S
C2090 C2088 1.381 . S
C2090 C2091 1.394 . S
C2090 H2098 0.930 . S
C2091 C2090 1.394 . S
C2091 C2092 1.383 . S
C2091 H2099 0.929 . S
C2092 C2091 1.383 . S
C2092 C2093 1.377 . S
C2093 H2077 0.930 . S
C2093 C2092 1.377 . S
C2093 C2094 1.379 . S
C2094 H2078 0.931 . S
C2094 C2088 1.383 . S
C2094 C2093 1.379 . S
H2095 C2089 0.959 . S
H2096 C2089 0.961 . S
H2097 C2089 0.960 . S
H2098 C2090 0.930 . S
H2099 C2091 0.929 . S
H2100 C2108 0.929 . S
H2101 C2110 0.930 . S
H2102 C2112 0.930 . S
H2103 C2115 0.929 . S
H2104 C2118 0.930 . S
H2105 C2120 0.960 . S
H2106 C2120 0.960 . S
H2107 C2120 0.960 . S
C2108 H2100 0.929 . S
C2108 C2109 1.377 . S
C2108 C2110 1.384 . S
C2109 C2108 1.377 . S
C2109 C2115 1.390 . S
C2110 H2101 0.930 . S
C2110 C2108 1.384 . S
C2110 C2111 1.372 . S
C2111 C2110 1.372 . S
C2111 C2112 1.400 . S
C2111 C2116 1.490 . S
C2112 H2102 0.930 . S
C2112 C2111 1.400 . S
C2112 C2115 1.386 . S
H2113 C2129 0.930 . S
H2114 C2130 0.931 . S
C2115 H2103 0.929 . S
C2115 C2109 1.390 . S
C2115 C2112 1.386 . S
C2116 C2111 1.490 . S
C2116 C2118 1.395 . S
C2116 C2119 1.403 . S
H2117 C2123 0.930 . S
C2118 H2104 0.930 . S
C2118 C2116 1.395 . S
C2118 C2121 1.403 . S
C2119 C2116 1.403 . S
C2119 C2120 1.524 . S
C2119 C2123 1.400 . S
C2120 H2105 0.960 . S
C2120 H2106 0.960 . S
C2120 H2107 0.960 . S
C2120 C2119 1.524 . S
C2121 C2118 1.403 . S
C2121 C2122 1.392 . S
C2121 C2125 1.495 . S
C2122 C2121 1.392 . S
C2122 C2123 1.385 . S
C2122 C2124 1.478 . S
C2123 H2117 0.930 . S
C2123 C2119 1.400 . S
C2123 C2122 1.385 . S
C2124 C2122 1.478 . S
C2124 C2126 1.381 . S
C2124 C2130 1.383 . S
C2125 C2121 1.495 . S
C2125 H2131 0.959 . S
C2125 H2132 0.961 . S
C2125 H2133 0.960 . S
C2126 C2124 1.381 . S
C2126 C2127 1.394 . S
C2126 H2134 0.930 . S
C2127 C2126 1.394 . S
C2127 C2128 1.383 . S
C2127 H2135 0.929 . S
C2128 C2127 1.383 . S
C2128 C2129 1.377 . S
C2129 H2113 0.930 . S
C2129 C2128 1.377 . S
C2129 C2130 1.379 . S
C2130 H2114 0.931 . S
C2130 C2124 1.383 . S
C2130 C2129 1.379 . S
H2131 C2125 0.959 . S
H2132 C2125 0.961 . S
H2133 C2125 0.960 . S
H2134 C2126 0.930 . S
H2135 C2127 0.929 . S
H2136 C2144 0.929 . S
H2137 C2146 0.930 . S
H2138 C2148 0.930 . S
H2139 C2151 0.929 . S
H2140 C2154 0.930 . S
H2141 C2156 0.960 . S
H2142 C2156 0.960 . S
H2143 C2156 0.960 . S
C2144 H2136 0.929 . S
C2144 C2145 1.377 . S
C2144 C2146 1.384 . S
C2145 C2144 1.377 . S
C2145 C2151 1.390 . S
C2146 H2137 0.930 . S
C2146 C2144 1.384 . S
C2146 C2147 1.372 . S
C2147 C2146 1.372 . S
C2147 C2148 1.400 . S
C2147 C2152 1.490 . S
C2148 H2138 0.930 . S
C2148 C2147 1.400 . S
C2148 C2151 1.386 . S
H2149 C2165 0.930 . S
H2150 C2166 0.931 . S
C2151 H2139 0.929 . S
C2151 C2145 1.390 . S
C2151 C2148 1.386 . S
C2152 C2147 1.490 . S
C2152 C2154 1.395 . S
C2152 C2155 1.403 . S
H2153 C2159 0.930 . S
C2154 H2140 0.930 . S
C2154 C2152 1.395 . S
C2154 C2157 1.403 . S
C2155 C2152 1.403 . S
C2155 C2156 1.524 . S
C2155 C2159 1.400 . S
C2156 H2141 0.960 . S
C2156 H2142 0.960 . S
C2156 H2143 0.960 . S
C2156 C2155 1.524 . S
C2157 C2154 1.403 . S
C2157 C2158 1.392 . S
C2157 C2161 1.495 . S
C2158 C2157 1.392 . S
C2158 C2159 1.385 . S
C2158 C2160 1.478 . S
C2159 H2153 0.930 . S
C2159 C2155 1.400 . S
C2159 C2158 1.385 . S
C2160 C2158 1.478 . S
C2160 C2162 1.381 . S
C2160 C2166 1.383 . S
C2161 C2157 1.495 . S
C2161 H2167 0.959 . S
C2161 H2168 0.961 . S
C2161 H2169 0.960 . S
C2162 C2160 1.381 . S
C2162 C2163 1.394 . S
C2162 H2170 0.930 . S
C2163 C2162 1.394 . S
C2163 C2164 1.383 . S
C2163 H2171 0.929 . S
C2164 C2163 1.383 . S
C2164 C2165 1.377 . S
C2165 H2149 0.930 . S
C2165 C2164 1.377 . S
C2165 C2166 1.379 . S
C2166 H2150 0.931 . S
C2166 C2160 1.383 . S
C2166 C2165 1.379 . S
H2167 C2161 0.959 . S
H2168 C2161 0.961 . S
H2169 C2161 0.960 . S
H2170 C2162 0.930 . S
H2171 C2163 0.929 . S
H2172 C2180 0.929 . S
H2173 C2182 0.930 . S
H2174 C2184 0.930 . S
H2175 C2187 0.929 . S
H2176 C2190 0.930 . S
H2177 C2192 0.960 . S
H2178 C2192 0.960 . S
H2179 C2192 0.960 . S
C2180 H2172 0.929 . S
C2180 C2181 1.377 . S
C2180 C2182 1.384 . S
C2181 C2180 1.377 . S
C2181 C2187 1.390 . S
C2182 H2173 0.930 . S
C2182 C2180 1.384 . S
C2182 C2183 1.372 . S
C2183 C2182 1.372 . S
C2183 C2184 1.400 . S
C2183 C2188 1.490 . S
C2184 H2174 0.930 . S
C2184 C2183 1.400 . S
C2184 C2187 1.386 . S
H2185 C2201 0.930 . S
H2186 C2202 0.931 . S
C2187 H2175 0.929 . S
C2187 C2181 1.390 . S
C2187 C2184 1.386 . S
C2188 C2183 1.490 . S
C2188 C2190 1.395 . S
C2188 C2191 1.403 . S
H2189 C2195 0.930 . S
C2190 H2176 0.930 . S
C2190 C2188 1.395 . S
C2190 C2193 1.403 . S
C2191 C2188 1.403 . S
C2191 C2192 1.524 . S
C2191 C2195 1.400 . S
C2192 H2177 0.960 . S
C2192 H2178 0.960 . S
C2192 H2179 0.960 . S
C2192 C2191 1.524 . S
C2193 C2190 1.403 . S
C2193 C2194 1.392 . S
C2193 C2197 1.495 . S
C2194 C2193 1.392 . S
C2194 C2195 1.385 . S
C2194 C2196 1.478 . S
C2195 H2189 0.930 . S
C2195 C2191 1.400 . S
C2195 C2194 1.385 . S
C2196 C2194 1.478 . S
C2196 C2198 1.381 . S
C2196 C2202 1.383 . S
C2197 C2193 1.495 . S
C2197 H2203 0.959 . S
C2197 H2204 0.961 . S
C2197 H2205 0.960 . S
C2198 C2196 1.381 . S
C2198 C2199 1.394 . S
C2198 H2206 0.930 . S
C2199 C2198 1.394 . S
C2199 C2200 1.383 . S
C2199 H2207 0.929 . S
C2200 C2199 1.383 . S
C2200 C2201 1.377 . S
C2201 H2185 0.930 . S
C2201 C2200 1.377 . S
C2201 C2202 1.379 . S
C2202 H2186 0.931 . S
C2202 C2196 1.383 . S
C2202 C2201 1.379 . S
H2203 C2197 0.959 . S
H2204 C2197 0.961 . S
H2205 C2197 0.960 . S
H2206 C2198 0.930 . S
H2207 C2199 0.929 . S
H2208 C2216 0.929 . S
H2209 C2218 0.930 . S
H2210 C2220 0.930 . S
H2211 C2223 0.929 . S
H2212 C2226 0.930 . S
H2213 C2228 0.960 . S
H2214 C2228 0.960 . S
H2215 C2228 0.960 . S
C2216 H2208 0.929 . S
C2216 C2217 1.377 . S
C2216 C2218 1.384 . S
C2217 C2216 1.377 . S
C2217 C2223 1.390 . S
C2218 H2209 0.930 . S
C2218 C2216 1.384 . S
C2218 C2219 1.372 . S
C2219 C2218 1.372 . S
C2219 C2220 1.400 . S
C2219 C2224 1.490 . S
C2220 H2210 0.930 . S
C2220 C2219 1.400 . S
C2220 C2223 1.386 . S
H2221 C2237 0.930 . S
H2222 C2238 0.931 . S
C2223 H2211 0.929 . S
C2223 C2217 1.390 . S
C2223 C2220 1.386 . S
C2224 C2219 1.490 . S
C2224 C2226 1.395 . S
C2224 C2227 1.403 . S
H2225 C2231 0.930 . S
C2226 H2212 0.930 . S
C2226 C2224 1.395 . S
C2226 C2229 1.403 . S
C2227 C2224 1.403 . S
C2227 C2228 1.524 . S
C2227 C2231 1.400 . S
C2228 H2213 0.960 . S
C2228 H2214 0.960 . S
C2228 H2215 0.960 . S
C2228 C2227 1.524 . S
C2229 C2226 1.403 . S
C2229 C2230 1.392 . S
C2229 C2233 1.495 . S
C2230 C2229 1.392 . S
C2230 C2231 1.385 . S
C2230 C2232 1.478 . S
C2231 H2225 0.930 . S
C2231 C2227 1.400 . S
C2231 C2230 1.385 . S
C2232 C2230 1.478 . S
C2232 C2234 1.381 . S
C2232 C2238 1.383 . S
C2233 C2229 1.495 . S
C2233 H2239 0.959 . S
C2233 H2240 0.961 . S
C2233 H2241 0.960 . S
C2234 C2232 1.381 . S
C2234 C2235 1.394 . S
C2234 H2242 0.930 . S
C2235 C2234 1.394 . S
C2235 C2236 1.383 . S
C2235 H2243 0.929 . S
C2236 C2235 1.383 . S
C2236 C2237 1.377 . S
C2237 H2221 0.930 . S
C2237 C2236 1.377 . S
C2237 C2238 1.379 . S
C2238 H2222 0.931 . S
C2238 C2232 1.383 . S
C2238 C2237 1.379 . S
H2239 C2233 0.959 . S
H2240 C2233 0.961 . S
H2241 C2233 0.960 . S
H2242 C2234 0.930 . S
H2243 C2235 0.929 . S
H2244 C2252 0.929 . S
H2245 C2254 0.930 . S
H2246 C2256 0.930 . S
H2247 C2259 0.929 . S
H2248 C2262 0.930 . S
H2249 C2264 0.960 . S
H2250 C2264 0.960 . S
H2251 C2264 0.960 . S
C2252 H2244 0.929 . S
C2252 C2253 1.377 . S
C2252 C2254 1.384 . S
C2253 C2252 1.377 . S
C2253 C2259 1.390 . S
C2254 H2245 0.930 . S
C2254 C2252 1.384 . S
C2254 C2255 1.372 . S
C2255 C2254 1.372 . S
C2255 C2256 1.400 . S
C2255 C2260 1.490 . S
C2256 H2246 0.930 . S
C2256 C2255 1.400 . S
C2256 C2259 1.386 . S
H2257 C2273 0.930 . S
H2258 C2274 0.931 . S
C2259 H2247 0.929 . S
C2259 C2253 1.390 . S
C2259 C2256 1.386 . S
C2260 C2255 1.490 . S
C2260 C2262 1.395 . S
C2260 C2263 1.403 . S
H2261 C2267 0.930 . S
C2262 H2248 0.930 . S
C2262 C2260 1.395 . S
C2262 C2265 1.403 . S
C2263 C2260 1.403 . S
C2263 C2264 1.524 . S
C2263 C2267 1.400 . S
C2264 H2249 0.960 . S
C2264 H2250 0.960 . S
C2264 H2251 0.960 . S
C2264 C2263 1.524 . S
C2265 C2262 1.403 . S
C2265 C2266 1.392 . S
C2265 C2269 1.495 . S
C2266 C2265 1.392 . S
C2266 C2267 1.385 . S
C2266 C2268 1.478 . S
C2267 H2261 0.930 . S
C2267 C2263 1.400 . S
C2267 C2266 1.385 . S
C2268 C2266 1.478 . S
C2268 C2270 1.381 . S
C2268 C2274 1.383 . S
C2269 C2265 1.495 . S
C2269 H2275 0.959 . S
C2269 H2276 0.961 . S
C2269 H2277 0.960 . S
C2270 C2268 1.381 . S
C2270 C2271 1.394 . S
C2270 H2278 0.930 . S
C2271 C2270 1.394 . S
C2271 C2272 1.383 . S
C2271 H2279 0.929 . S
C2272 C2271 1.383 . S
C2272 C2273 1.377 . S
C2273 H2257 0.930 . S
C2273 C2272 1.377 . S
C2273 C2274 1.379 . S
C2274 H2258 0.931 . S
C2274 C2268 1.383 . S
C2274 C2273 1.379 . S
H2275 C2269 0.959 . S
H2276 C2269 0.961 . S
H2277 C2269 0.960 . S
H2278 C2270 0.930 . S
H2279 C2271 0.929 . S
H2280 C2288 0.929 . S
H2281 C2290 0.930 . S
H2282 C2292 0.930 . S
H2283 C2295 0.929 . S
H2284 C2298 0.930 . S
H2285 C2300 0.960 . S
H2286 C2300 0.960 . S
H2287 C2300 0.960 . S
C2288 H2280 0.929 . S
C2288 C2289 1.377 . S
C2288 C2290 1.384 . S
C2289 C2288 1.377 . S
C2289 C2295 1.390 . S
C2290 H2281 0.930 . S
C2290 C2288 1.384 . S
C2290 C2291 1.372 . S
C2291 C2290 1.372 . S
C2291 C2292 1.400 . S
C2291 C2296 1.490 . S
C2292 H2282 0.930 . S
C2292 C2291 1.400 . S
C2292 C2295 1.386 . S
H2293 C2309 0.930 . S
H2294 C2310 0.931 . S
C2295 H2283 0.929 . S
C2295 C2289 1.390 . S
C2295 C2292 1.386 . S
C2296 C2291 1.490 . S
C2296 C2298 1.395 . S
C2296 C2299 1.403 . S
H2297 C2303 0.930 . S
C2298 H2284 0.930 . S
C2298 C2296 1.395 . S
C2298 C2301 1.403 . S
C2299 C2296 1.403 . S
C2299 C2300 1.524 . S
C2299 C2303 1.400 . S
C2300 H2285 0.960 . S
C2300 H2286 0.960 . S
C2300 H2287 0.960 . S
C2300 C2299 1.524 . S
C2301 C2298 1.403 . S
C2301 C2302 1.392 . S
C2301 C2305 1.495 . S
C2302 C2301 1.392 . S
C2302 C2303 1.385 . S
C2302 C2304 1.478 . S
C2303 H2297 0.930 . S
C2303 C2299 1.400 . S
C2303 C2302 1.385 . S
C2304 C2302 1.478 . S
C2304 C2306 1.381 . S
C2304 C2310 1.383 . S
C2305 C2301 1.495 . S
C2305 H2311 0.959 . S
C2305 H2312 0.961 . S
C2305 H2313 0.960 . S
C2306 C2304 1.381 . S
C2306 C2307 1.394 . S
C2306 H2314 0.930 . S
C2307 C2306 1.394 . S
C2307 C2308 1.383 . S
C2307 H2315 0.929 . S
C2308 C2307 1.383 . S
C2308 C2309 1.377 . S
C2309 H2293 0.930 . S
C2309 C2308 1.377 . S
C2309 C2310 1.379 . S
C2310 H2294 0.931 . S
C2310 C2304 1.383 . S
C2310 C2309 1.379 . S
H2311 C2305 0.959 . S
H2312 C2305 0.961 . S
H2313 C2305 0.960 . S
H2314 C2306 0.930 . S
H2315 C2307 0.929 . S
H2316 C2324 0.929 . S
H2317 C2326 0.930 . S
H2318 C2328 0.930 . S
H2319 C2331 0.929 . S
H2320 C2334 0.930 . S
H2321 C2336 0.960 . S
H2322 C2336 0.960 . S
H2323 C2336 0.960 . S
C2324 H2316 0.929 . S
C2324 C2325 1.377 . S
C2324 C2326 1.384 . S
C2325 C2324 1.377 . S
C2325 C2331 1.390 . S
C2326 H2317 0.930 . S
C2326 C2324 1.384 . S
C2326 C2327 1.372 . S
C2327 C2326 1.372 . S
C2327 C2328 1.400 . S
C2327 C2332 1.490 . S
C2328 H2318 0.930 . S
C2328 C2327 1.400 . S
C2328 C2331 1.386 . S
H2329 C2345 0.930 . S
H2330 C2346 0.931 . S
C2331 H2319 0.929 . S
C2331 C2325 1.390 . S
C2331 C2328 1.386 . S
C2332 C2327 1.490 . S
C2332 C2334 1.395 . S
C2332 C2335 1.403 . S
H2333 C2339 0.930 . S
C2334 H2320 0.930 . S
C2334 C2332 1.395 . S
C2334 C2337 1.403 . S
C2335 C2332 1.403 . S
C2335 C2336 1.524 . S
C2335 C2339 1.400 . S
C2336 H2321 0.960 . S
C2336 H2322 0.960 . S
C2336 H2323 0.960 . S
C2336 C2335 1.524 . S
C2337 C2334 1.403 . S
C2337 C2338 1.392 . S
C2337 C2341 1.495 . S
C2338 C2337 1.392 . S
C2338 C2339 1.385 . S
C2338 C2340 1.478 . S
C2339 H2333 0.930 . S
C2339 C2335 1.400 . S
C2339 C2338 1.385 . S
C2340 C2338 1.478 . S
C2340 C2342 1.381 . S
C2340 C2346 1.383 . S
C2341 C2337 1.495 . S
C2341 H2347 0.959 . S
C2341 H2348 0.961 . S
C2341 H2349 0.960 . S
C2342 C2340 1.381 . S
C2342 C2343 1.394 . S
C2342 H2350 0.930 . S
C2343 C2342 1.394 . S
C2343 C2344 1.383 . S
C2343 H2351 0.929 . S
C2344 C2343 1.383 . S
C2344 C2345 1.377 . S
C2345 H2329 0.930 . S
C2345 C2344 1.377 . S
C2345 C2346 1.379 . S
C2346 H2330 0.931 . S
C2346 C2340 1.383 . S
C2346 C2345 1.379 . S
H2347 C2341 0.959 . S
H2348 C2341 0.961 . S
H2349 C2341 0.960 . S
H2350 C2342 0.930 . S
H2351 C2343 0.929 . S
H2352 C2360 0.929 . S
H2353 C2362 0.930 . S
H2354 C2364 0.930 . S
H2355 C2367 0.929 . S
H2356 C2370 0.930 . S
H2357 C2372 0.960 . S
H2358 C2372 0.960 . S
H2359 C2372 0.960 . S
C2360 H2352 0.929 . S
C2360 C2361 1.377 . S
C2360 C2362 1.384 . S
C2361 C2360 1.377 . S
C2361 C2367 1.390 . S
C2362 H2353 0.930 . S
C2362 C2360 1.384 . S
C2362 C2363 1.372 . S
C2363 C2362 1.372 . S
C2363 C2364 1.400 . S
C2363 C2368 1.490 . S
C2364 H2354 0.930 . S
C2364 C2363 1.400 . S
C2364 C2367 1.386 . S
H2365 C2381 0.930 . S
H2366 C2382 0.931 . S
C2367 H2355 0.929 . S
C2367 C2361 1.390 . S
C2367 C2364 1.386 . S
C2368 C2363 1.490 . S
C2368 C2370 1.395 . S
C2368 C2371 1.403 . S
H2369 C2375 0.930 . S
C2370 H2356 0.930 . S
C2370 C2368 1.395 . S
C2370 C2373 1.403 . S
C2371 C2368 1.403 . S
C2371 C2372 1.524 . S
C2371 C2375 1.400 . S
C2372 H2357 0.960 . S
C2372 H2358 0.960 . S
C2372 H2359 0.960 . S
C2372 C2371 1.524 . S
C2373 C2370 1.403 . S
C2373 C2374 1.392 . S
C2373 C2377 1.495 . S
C2374 C2373 1.392 . S
C2374 C2375 1.385 . S
C2374 C2376 1.478 . S
C2375 H2369 0.930 . S
C2375 C2371 1.400 . S
C2375 C2374 1.385 . S
C2376 C2374 1.478 . S
C2376 C2378 1.381 . S
C2376 C2382 1.383 . S
C2377 C2373 1.495 . S
C2377 H2383 0.959 . S
C2377 H2384 0.961 . S
C2377 H2385 0.960 . S
C2378 C2376 1.381 . S
C2378 C2379 1.394 . S
C2378 H2386 0.930 . S
C2379 C2378 1.394 . S
C2379 C2380 1.383 . S
C2379 H2387 0.929 . S
C2380 C2379 1.383 . S
C2380 C2381 1.377 . S
C2381 H2365 0.930 . S
C2381 C2380 1.377 . S
C2381 C2382 1.379 . S
C2382 H2366 0.931 . S
C2382 C2376 1.383 . S
C2382 C2381 1.379 . S
H2383 C2377 0.959 . S
H2384 C2377 0.961 . S
H2385 C2377 0.960 . S
H2386 C2378 0.930 . S
H2387 C2379 0.929 . S
H2388 C2396 0.929 . S
H2389 C2398 0.930 . S
H2390 C2400 0.930 . S
H2391 C2403 0.929 . S
H2392 C2406 0.930 . S
H2393 C2408 0.960 . S
H2394 C2408 0.960 . S
H2395 C2408 0.960 . S
C2396 H2388 0.929 . S
C2396 C2397 1.377 . S
C2396 C2398 1.384 . S
C2397 C2396 1.377 . S
C2397 C2403 1.390 . S
C2398 H2389 0.930 . S
C2398 C2396 1.384 . S
C2398 C2399 1.372 . S
C2399 C2398 1.372 . S
C2399 C2400 1.400 . S
C2399 C2404 1.490 . S
C2400 H2390 0.930 . S
C2400 C2399 1.400 . S
C2400 C2403 1.386 . S
H2401 C2417 0.930 . S
H2402 C2418 0.931 . S
C2403 H2391 0.929 . S
C2403 C2397 1.390 . S
C2403 C2400 1.386 . S
C2404 C2399 1.490 . S
C2404 C2406 1.395 . S
C2404 C2407 1.403 . S
H2405 C2411 0.930 . S
C2406 H2392 0.930 . S
C2406 C2404 1.395 . S
C2406 C2409 1.403 . S
C2407 C2404 1.403 . S
C2407 C2408 1.524 . S
C2407 C2411 1.400 . S
C2408 H2393 0.960 . S
C2408 H2394 0.960 . S
C2408 H2395 0.960 . S
C2408 C2407 1.524 . S
C2409 C2406 1.403 . S
C2409 C2410 1.392 . S
C2409 C2413 1.495 . S
C2410 C2409 1.392 . S
C2410 C2411 1.385 . S
C2410 C2412 1.478 . S
C2411 H2405 0.930 . S
C2411 C2407 1.400 . S
C2411 C2410 1.385 . S
C2412 C2410 1.478 . S
C2412 C2414 1.381 . S
C2412 C2418 1.383 . S
C2413 C2409 1.495 . S
C2413 H2419 0.959 . S
C2413 H2420 0.961 . S
C2413 H2421 0.960 . S
C2414 C2412 1.381 . S
C2414 C2415 1.394 . S
C2414 H2422 0.930 . S
C2415 C2414 1.394 . S
C2415 C2416 1.383 . S
C2415 H2423 0.929 . S
C2416 C2415 1.383 . S
C2416 C2417 1.377 . S
C2417 H2401 0.930 . S
C2417 C2416 1.377 . S
C2417 C2418 1.379 . S
C2418 H2402 0.931 . S
C2418 C2412 1.383 . S
C2418 C2417 1.379 . S
H2419 C2413 0.959 . S
H2420 C2413 0.961 . S
H2421 C2413 0.960 . S
H2422 C2414 0.930 . S
H2423 C2415 0.929 . S
H2424 C2432 0.929 . S
H2425 C2434 0.930 . S
H2426 C2436 0.930 . S
H2427 C2439 0.929 . S
H2428 C2442 0.930 . S
H2429 C2444 0.960 . S
H2430 C2444 0.960 . S
H2431 C2444 0.960 . S
C2432 H2424 0.929 . S
C2432 C2433 1.377 . S
C2432 C2434 1.384 . S
C2433 C2432 1.377 . S
C2433 C2439 1.390 . S
C2434 H2425 0.930 . S
C2434 C2432 1.384 . S
C2434 C2435 1.372 . S
C2435 C2434 1.372 . S
C2435 C2436 1.400 . S
C2435 C2440 1.490 . S
C2436 H2426 0.930 . S
C2436 C2435 1.400 . S
C2436 C2439 1.386 . S
H2437 C2453 0.930 . S
H2438 C2454 0.931 . S
C2439 H2427 0.929 . S
C2439 C2433 1.390 . S
C2439 C2436 1.386 . S
C2440 C2435 1.490 . S
C2440 C2442 1.395 . S
C2440 C2443 1.403 . S
H2441 C2447 0.930 . S
C2442 H2428 0.930 . S
C2442 C2440 1.395 . S
C2442 C2445 1.403 . S
C2443 C2440 1.403 . S
C2443 C2444 1.524 . S
C2443 C2447 1.400 . S
C2444 H2429 0.960 . S
C2444 H2430 0.960 . S
C2444 H2431 0.960 . S
C2444 C2443 1.524 . S
C2445 C2442 1.403 . S
C2445 C2446 1.392 . S
C2445 C2449 1.495 . S
C2446 C2445 1.392 . S
C2446 C2447 1.385 . S
C2446 C2448 1.478 . S
C2447 H2441 0.930 . S
C2447 C2443 1.400 . S
C2447 C2446 1.385 . S
C2448 C2446 1.478 . S
C2448 C2450 1.381 . S
C2448 C2454 1.383 . S
C2449 C2445 1.495 . S
C2449 H2455 0.959 . S
C2449 H2456 0.961 . S
C2449 H2457 0.960 . S
C2450 C2448 1.381 . S
C2450 C2451 1.394 . S
C2450 H2458 0.930 . S
C2451 C2450 1.394 . S
C2451 C2452 1.383 . S
C2451 H2459 0.929 . S
C2452 C2451 1.383 . S
C2452 C2453 1.377 . S
C2453 H2437 0.930 . S
C2453 C2452 1.377 . S
C2453 C2454 1.379 . S
C2454 H2438 0.931 . S
C2454 C2448 1.383 . S
C2454 C2453 1.379 . S
H2455 C2449 0.959 . S
H2456 C2449 0.961 . S
H2457 C2449 0.960 . S
H2458 C2450 0.930 . S
H2459 C2451 0.929 . S
H2460 C2468 0.929 . S
H2461 C2470 0.930 . S
H2462 C2472 0.930 . S
H2463 C2475 0.929 . S
H2464 C2478 0.930 . S
H2465 C2480 0.960 . S
H2466 C2480 0.960 . S
H2467 C2480 0.960 . S
C2468 H2460 0.929 . S
C2468 C2469 1.377 . S
C2468 C2470 1.384 . S
C2469 C2468 1.377 . S
C2469 C2475 1.390 . S
C2470 H2461 0.930 . S
C2470 C2468 1.384 . S
C2470 C2471 1.372 . S
C2471 C2470 1.372 . S
C2471 C2472 1.400 . S
C2471 C2476 1.490 . S
C2472 H2462 0.930 . S
C2472 C2471 1.400 . S
C2472 C2475 1.386 . S
H2473 C2489 0.930 . S
H2474 C2490 0.931 . S
C2475 H2463 0.929 . S
C2475 C2469 1.390 . S
C2475 C2472 1.386 . S
C2476 C2471 1.490 . S
C2476 C2478 1.395 . S
C2476 C2479 1.403 . S
H2477 C2483 0.930 . S
C2478 H2464 0.930 . S
C2478 C2476 1.395 . S
C2478 C2481 1.403 . S
C2479 C2476 1.403 . S
C2479 C2480 1.524 . S
C2479 C2483 1.400 . S
C2480 H2465 0.960 . S
C2480 H2466 0.960 . S
C2480 H2467 0.960 . S
C2480 C2479 1.524 . S
C2481 C2478 1.403 . S
C2481 C2482 1.392 . S
C2481 C2485 1.495 . S
C2482 C2481 1.392 . S
C2482 C2483 1.385 . S
C2482 C2484 1.478 . S
C2483 H2477 0.930 . S
C2483 C2479 1.400 . S
C2483 C2482 1.385 . S
C2484 C2482 1.478 . S
C2484 C2486 1.381 . S
C2484 C2490 1.383 . S
C2485 C2481 1.495 . S
C2485 H2491 0.959 . S
C2485 H2492 0.961 . S
C2485 H2493 0.960 . S
C2486 C2484 1.381 . S
C2486 C2487 1.394 . S
C2486 H2494 0.930 . S
C2487 C2486 1.394 . S
C2487 C2488 1.383 . S
C2487 H2495 0.929 . S
C2488 C2487 1.383 . S
C2488 C2489 1.377 . S
C2489 H2473 0.930 . S
C2489 C2488 1.377 . S
C2489 C2490 1.379 . S
C2490 H2474 0.931 . S
C2490 C2484 1.383 . S
C2490 C2489 1.379 . S
H2491 C2485 0.959 . S
H2492 C2485 0.961 . S
H2493 C2485 0.960 . S
H2494 C2486 0.930 . S
H2495 C2487 0.929 . S
H2496 C2504 0.929 . S
H2497 C2506 0.930 . S
H2498 C2508 0.930 . S
H2499 C2511 0.929 . S
H2500 C2514 0.930 . S
H2501 C2516 0.960 . S
H2502 C2516 0.960 . S
H2503 C2516 0.960 . S
C2504 H2496 0.929 . S
C2504 C2505 1.377 . S
C2504 C2506 1.384 . S
C2505 C2504 1.377 . S
C2505 C2511 1.390 . S
C2506 H2497 0.930 . S
C2506 C2504 1.384 . S
C2506 C2507 1.372 . S
C2507 C2506 1.372 . S
C2507 C2508 1.400 . S
C2507 C2512 1.490 . S
C2508 H2498 0.930 . S
C2508 C2507 1.400 . S
C2508 C2511 1.386 . S
H2509 C2525 0.930 . S
H2510 C2526 0.931 . S
C2511 H2499 0.929 . S
C2511 C2505 1.390 . S
C2511 C2508 1.386 . S
C2512 C2507 1.490 . S
C2512 C2514 1.395 . S
C2512 C2515 1.403 . S
H2513 C2519 0.930 . S
C2514 H2500 0.930 . S
C2514 C2512 1.395 . S
C2514 C2517 1.403 . S
C2515 C2512 1.403 . S
C2515 C2516 1.524 . S
C2515 C2519 1.400 . S
C2516 H2501 0.960 . S
C2516 H2502 0.960 . S
C2516 H2503 0.960 . S
C2516 C2515 1.524 . S
C2517 C2514 1.403 . S
C2517 C2518 1.392 . S
C2517 C2521 1.495 . S
C2518 C2517 1.392 . S
C2518 C2519 1.385 . S
C2518 C2520 1.478 . S
C2519 H2513 0.930 . S
C2519 C2515 1.400 . S
C2519 C2518 1.385 . S
C2520 C2518 1.478 . S
C2520 C2522 1.381 . S
C2520 C2526 1.383 . S
C2521 C2517 1.495 . S
C2521 H2527 0.959 . S
C2521 H2528 0.961 . S
C2521 H2529 0.960 . S
C2522 C2520 1.381 . S
C2522 C2523 1.394 . S
C2522 H2530 0.930 . S
C2523 C2522 1.394 . S
C2523 C2524 1.383 . S
C2523 H2531 0.929 . S
C2524 C2523 1.383 . S
C2524 C2525 1.377 . S
C2525 H2509 0.930 . S
C2525 C2524 1.377 . S
C2525 C2526 1.379 . S
C2526 H2510 0.931 . S
C2526 C2520 1.383 . S
C2526 C2525 1.379 . S
H2527 C2521 0.959 . S
H2528 C2521 0.961 . S
H2529 C2521 0.960 . S
H2530 C2522 0.930 . S
H2531 C2523 0.929 . S
H2532 C2540 0.929 . S
H2533 C2542 0.930 . S
H2534 C2544 0.930 . S
H2535 C2547 0.929 . S
H2536 C2550 0.930 . S
H2537 C2552 0.960 . S
H2538 C2552 0.960 . S
H2539 C2552 0.960 . S
C2540 H2532 0.929 . S
C2540 C2541 1.377 . S
C2540 C2542 1.384 . S
C2541 C2540 1.377 . S
C2541 C2547 1.390 . S
C2542 H2533 0.930 . S
C2542 C2540 1.384 . S
C2542 C2543 1.372 . S
C2543 C2542 1.372 . S
C2543 C2544 1.400 . S
C2543 C2548 1.490 . S
C2544 H2534 0.930 . S
C2544 C2543 1.400 . S
C2544 C2547 1.386 . S
H2545 C2561 0.930 . S
H2546 C2562 0.931 . S
C2547 H2535 0.929 . S
C2547 C2541 1.390 . S
C2547 C2544 1.386 . S
C2548 C2543 1.490 . S
C2548 C2550 1.395 . S
C2548 C2551 1.403 . S
H2549 C2555 0.930 . S
C2550 H2536 0.930 . S
C2550 C2548 1.395 . S
C2550 C2553 1.403 . S
C2551 C2548 1.403 . S
C2551 C2552 1.524 . S
C2551 C2555 1.400 . S
C2552 H2537 0.960 . S
C2552 H2538 0.960 . S
C2552 H2539 0.960 . S
C2552 C2551 1.524 . S
C2553 C2550 1.403 . S
C2553 C2554 1.392 . S
C2553 C2557 1.495 . S
C2554 C2553 1.392 . S
C2554 C2555 1.385 . S
C2554 C2556 1.478 . S
C2555 H2549 0.930 . S
C2555 C2551 1.400 . S
C2555 C2554 1.385 . S
C2556 C2554 1.478 . S
C2556 C2558 1.381 . S
C2556 C2562 1.383 . S
C2557 C2553 1.495 . S
C2557 H2563 0.959 . S
C2557 H2564 0.961 . S
C2557 H2565 0.960 . S
C2558 C2556 1.381 . S
C2558 C2559 1.394 . S
C2558 H2566 0.930 . S
C2559 C2558 1.394 . S
C2559 C2560 1.383 . S
C2559 H2567 0.929 . S
C2560 C2559 1.383 . S
C2560 C2561 1.377 . S
C2561 H2545 0.930 . S
C2561 C2560 1.377 . S
C2561 C2562 1.379 . S
C2562 H2546 0.931 . S
C2562 C2556 1.383 . S
C2562 C2561 1.379 . S
H2563 C2557 0.959 . S
H2564 C2557 0.961 . S
H2565 C2557 0.960 . S
H2566 C2558 0.930 . S
H2567 C2559 0.929 . S
H2568 C2576 0.929 . S
H2569 C2578 0.930 . S
H2570 C2580 0.930 . S
H2571 C2583 0.929 . S
H2572 C2586 0.930 . S
H2573 C2588 0.960 . S
H2574 C2588 0.960 . S
H2575 C2588 0.960 . S
C2576 H2568 0.929 . S
C2576 C2577 1.377 . S
C2576 C2578 1.384 . S
C2577 C2576 1.377 . S
C2577 C2583 1.390 . S
C2578 H2569 0.930 . S
C2578 C2576 1.384 . S
C2578 C2579 1.372 . S
C2579 C2578 1.372 . S
C2579 C2580 1.400 . S
C2579 C2584 1.490 . S
C2580 H2570 0.930 . S
C2580 C2579 1.400 . S
C2580 C2583 1.386 . S
H2581 C2597 0.930 . S
H2582 C2598 0.931 . S
C2583 H2571 0.929 . S
C2583 C2577 1.390 . S
C2583 C2580 1.386 . S
C2584 C2579 1.490 . S
C2584 C2586 1.395 . S
C2584 C2587 1.403 . S
H2585 C2591 0.930 . S
C2586 H2572 0.930 . S
C2586 C2584 1.395 . S
C2586 C2589 1.403 . S
C2587 C2584 1.403 . S
C2587 C2588 1.524 . S
C2587 C2591 1.400 . S
C2588 H2573 0.960 . S
C2588 H2574 0.960 . S
C2588 H2575 0.960 . S
C2588 C2587 1.524 . S
C2589 C2586 1.403 . S
C2589 C2590 1.392 . S
C2589 C2593 1.495 . S
C2590 C2589 1.392 . S
C2590 C2591 1.385 . S
C2590 C2592 1.478 . S
C2591 H2585 0.930 . S
C2591 C2587 1.400 . S
C2591 C2590 1.385 . S
C2592 C2590 1.478 . S
C2592 C2594 1.381 . S
C2592 C2598 1.383 . S
C2593 C2589 1.495 . S
C2593 H2599 0.959 . S
C2593 H2600 0.961 . S
C2593 H2601 0.960 . S
C2594 C2592 1.381 . S
C2594 C2595 1.394 . S
C2594 H2602 0.930 . S
C2595 C2594 1.394 . S
C2595 C2596 1.383 . S
C2595 H2603 0.929 . S
C2596 C2595 1.383 . S
C2596 C2597 1.377 . S
C2597 H2581 0.930 . S
C2597 C2596 1.377 . S
C2597 C2598 1.379 . S
C2598 H2582 0.931 . S
C2598 C2592 1.383 . S
C2598 C2597 1.379 . S
H2599 C2593 0.959 . S
H2600 C2593 0.961 . S
H2601 C2593 0.960 . S
H2602 C2594 0.930 . S
H2603 C2595 0.929 . S
H2604 C2612 0.929 . S
H2605 C2614 0.930 . S
H2606 C2616 0.930 . S
H2607 C2619 0.929 . S
H2608 C2622 0.930 . S
H2609 C2624 0.960 . S
H2610 C2624 0.960 . S
H2611 C2624 0.960 . S
C2612 H2604 0.929 . S
C2612 C2613 1.377 . S
C2612 C2614 1.384 . S
C2613 C2612 1.377 . S
C2613 C2619 1.390 . S
C2614 H2605 0.930 . S
C2614 C2612 1.384 . S
C2614 C2615 1.372 . S
C2615 C2614 1.372 . S
C2615 C2616 1.400 . S
C2615 C2620 1.490 . S
C2616 H2606 0.930 . S
C2616 C2615 1.400 . S
C2616 C2619 1.386 . S
H2617 C2633 0.930 . S
H2618 C2634 0.931 . S
C2619 H2607 0.929 . S
C2619 C2613 1.390 . S
C2619 C2616 1.386 . S
C2620 C2615 1.490 . S
C2620 C2622 1.395 . S
C2620 C2623 1.403 . S
H2621 C2627 0.930 . S
C2622 H2608 0.930 . S
C2622 C2620 1.395 . S
C2622 C2625 1.403 . S
C2623 C2620 1.403 . S
C2623 C2624 1.524 . S
C2623 C2627 1.400 . S
C2624 H2609 0.960 . S
C2624 H2610 0.960 . S
C2624 H2611 0.960 . S
C2624 C2623 1.524 . S
C2625 C2622 1.403 . S
C2625 C2626 1.392 . S
C2625 C2629 1.495 . S
C2626 C2625 1.392 . S
C2626 C2627 1.385 . S
C2626 C2628 1.478 . S
C2627 H2621 0.930 . S
C2627 C2623 1.400 . S
C2627 C2626 1.385 . S
C2628 C2626 1.478 . S
C2628 C2630 1.381 . S
C2628 C2634 1.383 . S
C2629 C2625 1.495 . S
C2629 H2635 0.959 . S
C2629 H2636 0.961 . S
C2629 H2637 0.960 . S
C2630 C2628 1.381 . S
C2630 C2631 1.394 . S
C2630 H2638 0.930 . S
C2631 C2630 1.394 . S
C2631 C2632 1.383 . S
C2631 H2639 0.929 . S
C2632 C2631 1.383 . S
C2632 C2633 1.377 . S
C2633 H2617 0.930 . S
C2633 C2632 1.377 . S
C2633 C2634 1.379 . S
C2634 H2618 0.931 . S
C2634 C2628 1.383 . S
C2634 C2633 1.379 . S
H2635 C2629 0.959 . S
H2636 C2629 0.961 . S
H2637 C2629 0.960 . S
H2638 C2630 0.930 . S
H2639 C2631 0.929 . S
H2640 C2648 0.929 . S
H2641 C2650 0.930 . S
H2642 C2652 0.930 . S
H2643 C2655 0.929 . S
H2644 C2658 0.930 . S
H2645 C2660 0.960 . S
H2646 C2660 0.960 . S
H2647 C2660 0.960 . S
C2648 H2640 0.929 . S
C2648 C2649 1.377 . S
C2648 C2650 1.384 . S
C2649 C2648 1.377 . S
C2649 C2655 1.390 . S
C2650 H2641 0.930 . S
C2650 C2648 1.384 . S
C2650 C2651 1.372 . S
C2651 C2650 1.372 . S
C2651 C2652 1.400 . S
C2651 C2656 1.490 . S
C2652 H2642 0.930 . S
C2652 C2651 1.400 . S
C2652 C2655 1.386 . S
H2653 C2669 0.930 . S
H2654 C2670 0.931 . S
C2655 H2643 0.929 . S
C2655 C2649 1.390 . S
C2655 C2652 1.386 . S
C2656 C2651 1.490 . S
C2656 C2658 1.395 . S
C2656 C2659 1.403 . S
H2657 C2663 0.930 . S
C2658 H2644 0.930 . S
C2658 C2656 1.395 . S
C2658 C2661 1.403 . S
C2659 C2656 1.403 . S
C2659 C2660 1.524 . S
C2659 C2663 1.400 . S
C2660 H2645 0.960 . S
C2660 H2646 0.960 . S
C2660 H2647 0.960 . S
C2660 C2659 1.524 . S
C2661 C2658 1.403 . S
C2661 C2662 1.392 . S
C2661 C2665 1.495 . S
C2662 C2661 1.392 . S
C2662 C2663 1.385 . S
C2662 C2664 1.478 . S
C2663 H2657 0.930 . S
C2663 C2659 1.400 . S
C2663 C2662 1.385 . S
C2664 C2662 1.478 . S
C2664 C2666 1.381 . S
C2664 C2670 1.383 . S
C2665 C2661 1.495 . S
C2665 H2671 0.959 . S
C2665 H2672 0.961 . S
C2665 H2673 0.960 . S
C2666 C2664 1.381 . S
C2666 C2667 1.394 . S
C2666 H2674 0.930 . S
C2667 C2666 1.394 . S
C2667 C2668 1.383 . S
C2667 H2675 0.929 . S
C2668 C2667 1.383 . S
C2668 C2669 1.377 . S
C2669 H2653 0.930 . S
C2669 C2668 1.377 . S
C2669 C2670 1.379 . S
C2670 H2654 0.931 . S
C2670 C2664 1.383 . S
C2670 C2669 1.379 . S
H2671 C2665 0.959 . S
H2672 C2665 0.961 . S
H2673 C2665 0.960 . S
H2674 C2666 0.930 . S
H2675 C2667 0.929 . S
H2676 C2684 0.929 . S
H2677 C2686 0.930 . S
H2678 C2688 0.930 . S
H2679 C2691 0.929 . S
H2680 C2694 0.930 . S
H2681 C2696 0.960 . S
H2682 C2696 0.960 . S
H2683 C2696 0.960 . S
C2684 H2676 0.929 . S
C2684 C2685 1.377 . S
C2684 C2686 1.384 . S
C2685 C2684 1.377 . S
C2685 C2691 1.390 . S
C2686 H2677 0.930 . S
C2686 C2684 1.384 . S
C2686 C2687 1.372 . S
C2687 C2686 1.372 . S
C2687 C2688 1.400 . S
C2687 C2692 1.490 . S
C2688 H2678 0.930 . S
C2688 C2687 1.400 . S
C2688 C2691 1.386 . S
H2689 C2705 0.930 . S
H2690 C2706 0.931 . S
C2691 H2679 0.929 . S
C2691 C2685 1.390 . S
C2691 C2688 1.386 . S
C2692 C2687 1.490 . S
C2692 C2694 1.395 . S
C2692 C2695 1.403 . S
H2693 C2699 0.930 . S
C2694 H2680 0.930 . S
C2694 C2692 1.395 . S
C2694 C2697 1.403 . S
C2695 C2692 1.403 . S
C2695 C2696 1.524 . S
C2695 C2699 1.400 . S
C2696 H2681 0.960 . S
C2696 H2682 0.960 . S
C2696 H2683 0.960 . S
C2696 C2695 1.524 . S
C2697 C2694 1.403 . S
C2697 C2698 1.392 . S
C2697 C2701 1.495 . S
C2698 C2697 1.392 . S
C2698 C2699 1.385 . S
C2698 C2700 1.478 . S
C2699 H2693 0.930 . S
C2699 C2695 1.400 . S
C2699 C2698 1.385 . S
C2700 C2698 1.478 . S
C2700 C2702 1.381 . S
C2700 C2706 1.383 . S
C2701 C2697 1.495 . S
C2701 H2707 0.959 . S
C2701 H2708 0.961 . S
C2701 H2709 0.960 . S
C2702 C2700 1.381 . S
C2702 C2703 1.394 . S
C2702 H2710 0.930 . S
C2703 C2702 1.394 . S
C2703 C2704 1.383 . S
C2703 H2711 0.929 . S
C2704 C2703 1.383 . S
C2704 C2705 1.377 . S
C2705 H2689 0.930 . S
C2705 C2704 1.377 . S
C2705 C2706 1.379 . S
C2706 H2690 0.931 . S
C2706 C2700 1.383 . S
C2706 C2705 1.379 . S
H2707 C2701 0.959 . S
H2708 C2701 0.961 . S
H2709 C2701 0.960 . S
H2710 C2702 0.930 . S
H2711 C2703 0.929 . S
H2712 C2720 0.929 . S
H2713 C2722 0.930 . S
H2714 C2724 0.930 . S
H2715 C2727 0.929 . S
H2716 C2730 0.930 . S
H2717 C2732 0.960 . S
H2718 C2732 0.960 . S
H2719 C2732 0.960 . S
C2720 H2712 0.929 . S
C2720 C2721 1.377 . S
C2720 C2722 1.384 . S
C2721 C2720 1.377 . S
C2721 C2727 1.390 . S
C2722 H2713 0.930 . S
C2722 C2720 1.384 . S
C2722 C2723 1.372 . S
C2723 C2722 1.372 . S
C2723 C2724 1.400 . S
C2723 C2728 1.490 . S
C2724 H2714 0.930 . S
C2724 C2723 1.400 . S
C2724 C2727 1.386 . S
H2725 C2741 0.930 . S
H2726 C2742 0.931 . S
C2727 H2715 0.929 . S
C2727 C2721 1.390 . S
C2727 C2724 1.386 . S
C2728 C2723 1.490 . S
C2728 C2730 1.395 . S
C2728 C2731 1.403 . S
H2729 C2735 0.930 . S
C2730 H2716 0.930 . S
C2730 C2728 1.395 . S
C2730 C2733 1.403 . S
C2731 C2728 1.403 . S
C2731 C2732 1.524 . S
C2731 C2735 1.400 . S
C2732 H2717 0.960 . S
C2732 H2718 0.960 . S
C2732 H2719 0.960 . S
C2732 C2731 1.524 . S
C2733 C2730 1.403 . S
C2733 C2734 1.392 . S
C2733 C2737 1.495 . S
C2734 C2733 1.392 . S
C2734 C2735 1.385 . S
C2734 C2736 1.478 . S
C2735 H2729 0.930 . S
C2735 C2731 1.400 . S
C2735 C2734 1.385 . S
C2736 C2734 1.478 . S
C2736 C2738 1.381 . S
C2736 C2742 1.383 . S
C2737 C2733 1.495 . S
C2737 H2743 0.959 . S
C2737 H2744 0.961 . S
C2737 H2745 0.960 . S
C2738 C2736 1.381 . S
C2738 C2739 1.394 . S
C2738 H2746 0.930 . S
C2739 C2738 1.394 . S
C2739 C2740 1.383 . S
C2739 H2747 0.929 . S
C2740 C2739 1.383 . S
C2740 C2741 1.377 . S
C2741 H2725 0.930 . S
C2741 C2740 1.377 . S
C2741 C2742 1.379 . S
C2742 H2726 0.931 . S
C2742 C2736 1.383 . S
C2742 C2741 1.379 . S
H2743 C2737 0.959 . S
H2744 C2737 0.961 . S
H2745 C2737 0.960 . S
H2746 C2738 0.930 . S
H2747 C2739 0.929 . S
H2748 C2756 0.929 . S
H2749 C2758 0.930 . S
H2750 C2760 0.930 . S
H2751 C2763 0.929 . S
H2752 C2766 0.930 . S
H2753 C2768 0.960 . S
H2754 C2768 0.960 . S
H2755 C2768 0.960 . S
C2756 H2748 0.929 . S
C2756 C2757 1.377 . S
C2756 C2758 1.384 . S
C2757 C2756 1.377 . S
C2757 C2763 1.390 . S
C2758 H2749 0.930 . S
C2758 C2756 1.384 . S
C2758 C2759 1.372 . S
C2759 C2758 1.372 . S
C2759 C2760 1.400 . S
C2759 C2764 1.490 . S
C2760 H2750 0.930 . S
C2760 C2759 1.400 . S
C2760 C2763 1.386 . S
H2761 C2777 0.930 . S
H2762 C2778 0.931 . S
C2763 H2751 0.929 . S
C2763 C2757 1.390 . S
C2763 C2760 1.386 . S
C2764 C2759 1.490 . S
C2764 C2766 1.395 . S
C2764 C2767 1.403 . S
H2765 C2771 0.930 . S
C2766 H2752 0.930 . S
C2766 C2764 1.395 . S
C2766 C2769 1.403 . S
C2767 C2764 1.403 . S
C2767 C2768 1.524 . S
C2767 C2771 1.400 . S
C2768 H2753 0.960 . S
C2768 H2754 0.960 . S
C2768 H2755 0.960 . S
C2768 C2767 1.524 . S
C2769 C2766 1.403 . S
C2769 C2770 1.392 . S
C2769 C2773 1.495 . S
C2770 C2769 1.392 . S
C2770 C2771 1.385 . S
C2770 C2772 1.478 . S
C2771 H2765 0.930 . S
C2771 C2767 1.400 . S
C2771 C2770 1.385 . S
C2772 C2770 1.478 . S
C2772 C2774 1.381 . S
C2772 C2778 1.383 . S
C2773 C2769 1.495 . S
C2773 H2779 0.959 . S
C2773 H2780 0.961 . S
C2773 H2781 0.960 . S
C2774 C2772 1.381 . S
C2774 C2775 1.394 . S
C2774 H2782 0.930 . S
C2775 C2774 1.394 . S
C2775 C2776 1.383 . S
C2775 H2783 0.929 . S
C2776 C2775 1.383 . S
C2776 C2777 1.377 . S
C2777 H2761 0.930 . S
C2777 C2776 1.377 . S
C2777 C2778 1.379 . S
C2778 H2762 0.931 . S
C2778 C2772 1.383 . S
C2778 C2777 1.379 . S
H2779 C2773 0.959 . S
H2780 C2773 0.961 . S
H2781 C2773 0.960 . S
H2782 C2774 0.930 . S
H2783 C2775 0.929 . S
H2784 C2792 0.929 . S
H2785 C2794 0.930 . S
H2786 C2796 0.930 . S
H2787 C2799 0.929 . S
H2788 C2802 0.930 . S
H2789 C2804 0.960 . S
H2790 C2804 0.960 . S
H2791 C2804 0.960 . S
C2792 H2784 0.929 . S
C2792 C2793 1.377 . S
C2792 C2794 1.384 . S
C2793 C2792 1.377 . S
C2793 C2799 1.390 . S
C2794 H2785 0.930 . S
C2794 C2792 1.384 . S
C2794 C2795 1.372 . S
C2795 C2794 1.372 . S
C2795 C2796 1.400 . S
C2795 C2800 1.490 . S
C2796 H2786 0.930 . S
C2796 C2795 1.400 . S
C2796 C2799 1.386 . S
H2797 C2813 0.930 . S
H2798 C2814 0.931 . S
C2799 H2787 0.929 . S
C2799 C2793 1.390 . S
C2799 C2796 1.386 . S
C2800 C2795 1.490 . S
C2800 C2802 1.395 . S
C2800 C2803 1.403 . S
H2801 C2807 0.930 . S
C2802 H2788 0.930 . S
C2802 C2800 1.395 . S
C2802 C2805 1.403 . S
C2803 C2800 1.403 . S
C2803 C2804 1.524 . S
C2803 C2807 1.400 . S
C2804 H2789 0.960 . S
C2804 H2790 0.960 . S
C2804 H2791 0.960 . S
C2804 C2803 1.524 . S
C2805 C2802 1.403 . S
C2805 C2806 1.392 . S
C2805 C2809 1.495 . S
C2806 C2805 1.392 . S
C2806 C2807 1.385 . S
C2806 C2808 1.478 . S
C2807 H2801 0.930 . S
C2807 C2803 1.400 . S
C2807 C2806 1.385 . S
C2808 C2806 1.478 . S
C2808 C2810 1.381 . S
C2808 C2814 1.383 . S
C2809 C2805 1.495 . S
C2809 H2815 0.959 . S
C2809 H2816 0.961 . S
C2809 H2817 0.960 . S
C2810 C2808 1.381 . S
C2810 C2811 1.394 . S
C2810 H2818 0.930 . S
C2811 C2810 1.394 . S
C2811 C2812 1.383 . S
C2811 H2819 0.929 . S
C2812 C2811 1.383 . S
C2812 C2813 1.377 . S
C2813 H2797 0.930 . S
C2813 C2812 1.377 . S
C2813 C2814 1.379 . S
C2814 H2798 0.931 . S
C2814 C2808 1.383 . S
C2814 C2813 1.379 . S
H2815 C2809 0.959 . S
H2816 C2809 0.961 . S
H2817 C2809 0.960 . S
H2818 C2810 0.930 . S
H2819 C2811 0.929 . S
H2820 C2828 0.929 . S
H2821 C2830 0.930 . S
H2822 C2832 0.930 . S
H2823 C2835 0.929 . S
H2824 C2838 0.930 . S
H2825 C2840 0.960 . S
H2826 C2840 0.960 . S
H2827 C2840 0.960 . S
C2828 H2820 0.929 . S
C2828 C2829 1.377 . S
C2828 C2830 1.384 . S
C2829 C2828 1.377 . S
C2829 C2835 1.390 . S
C2830 H2821 0.930 . S
C2830 C2828 1.384 . S
C2830 C2831 1.372 . S
C2831 C2830 1.372 . S
C2831 C2832 1.400 . S
C2831 C2836 1.490 . S
C2832 H2822 0.930 . S
C2832 C2831 1.400 . S
C2832 C2835 1.386 . S
H2833 C2849 0.930 . S
H2834 C2850 0.931 . S
C2835 H2823 0.929 . S
C2835 C2829 1.390 . S
C2835 C2832 1.386 . S
C2836 C2831 1.490 . S
C2836 C2838 1.395 . S
C2836 C2839 1.403 . S
H2837 C2843 0.930 . S
C2838 H2824 0.930 . S
C2838 C2836 1.395 . S
C2838 C2841 1.403 . S
C2839 C2836 1.403 . S
C2839 C2840 1.524 . S
C2839 C2843 1.400 . S
C2840 H2825 0.960 . S
C2840 H2826 0.960 . S
C2840 H2827 0.960 . S
C2840 C2839 1.524 . S
C2841 C2838 1.403 . S
C2841 C2842 1.392 . S
C2841 C2845 1.495 . S
C2842 C2841 1.392 . S
C2842 C2843 1.385 . S
C2842 C2844 1.478 . S
C2843 H2837 0.930 . S
C2843 C2839 1.400 . S
C2843 C2842 1.385 . S
C2844 C2842 1.478 . S
C2844 C2846 1.381 . S
C2844 C2850 1.383 . S
C2845 C2841 1.495 . S
C2845 H2851 0.959 . S
C2845 H2852 0.961 . S
C2845 H2853 0.960 . S
C2846 C2844 1.381 . S
C2846 C2847 1.394 . S
C2846 H2854 0.930 . S
C2847 C2846 1.394 . S
C2847 C2848 1.383 . S
C2847 H2855 0.929 . S
C2848 C2847 1.383 . S
C2848 C2849 1.377 . S
C2849 H2833 0.930 . S
C2849 C2848 1.377 . S
C2849 C2850 1.379 . S
C2850 H2834 0.931 . S
C2850 C2844 1.383 . S
C2850 C2849 1.379 . S
H2851 C2845 0.959 . S
H2852 C2845 0.961 . S
H2853 C2845 0.960 . S
H2854 C2846 0.930 . S
H2855 C2847 0.929 . S
H2856 C2864 0.929 . S
H2857 C2866 0.930 . S
H2858 C2868 0.930 . S
H2859 C2871 0.929 . S
H2860 C2874 0.930 . S
H2861 C2876 0.960 . S
H2862 C2876 0.960 . S
H2863 C2876 0.960 . S
C2864 H2856 0.929 . S
C2864 C2865 1.377 . S
C2864 C2866 1.384 . S
C2865 C2864 1.377 . S
C2865 C2871 1.390 . S
C2866 H2857 0.930 . S
C2866 C2864 1.384 . S
C2866 C2867 1.372 . S
C2867 C2866 1.372 . S
C2867 C2868 1.400 . S
C2867 C2872 1.490 . S
C2868 H2858 0.930 . S
C2868 C2867 1.400 . S
C2868 C2871 1.386 . S
H2869 C2885 0.930 . S
H2870 C2886 0.931 . S
C2871 H2859 0.929 . S
C2871 C2865 1.390 . S
C2871 C2868 1.386 . S
C2872 C2867 1.490 . S
C2872 C2874 1.395 . S
C2872 C2875 1.403 . S
H2873 C2879 0.930 . S
C2874 H2860 0.930 . S
C2874 C2872 1.395 . S
C2874 C2877 1.403 . S
C2875 C2872 1.403 . S
C2875 C2876 1.524 . S
C2875 C2879 1.400 . S
C2876 H2861 0.960 . S
C2876 H2862 0.960 . S
C2876 H2863 0.960 . S
C2876 C2875 1.524 . S
C2877 C2874 1.403 . S
C2877 C2878 1.392 . S
C2877 C2881 1.495 . S
C2878 C2877 1.392 . S
C2878 C2879 1.385 . S
C2878 C2880 1.478 . S
C2879 H2873 0.930 . S
C2879 C2875 1.400 . S
C2879 C2878 1.385 . S
C2880 C2878 1.478 . S
C2880 C2882 1.381 . S
C2880 C2886 1.383 . S
C2881 C2877 1.495 . S
C2881 H2887 0.959 . S
C2881 H2888 0.961 . S
C2881 H2889 0.960 . S
C2882 C2880 1.381 . S
C2882 C2883 1.394 . S
C2882 H2890 0.930 . S
C2883 C2882 1.394 . S
C2883 C2884 1.383 . S
C2883 H2891 0.929 . S
C2884 C2883 1.383 . S
C2884 C2885 1.377 . S
C2885 H2869 0.930 . S
C2885 C2884 1.377 . S
C2885 C2886 1.379 . S
C2886 H2870 0.931 . S
C2886 C2880 1.383 . S
C2886 C2885 1.379 . S
H2887 C2881 0.959 . S
H2888 C2881 0.961 . S
H2889 C2881 0.960 . S
H2890 C2882 0.930 . S
H2891 C2883 0.929 . S
H2892 C2900 0.929 . S
H2893 C2902 0.930 . S
H2894 C2904 0.930 . S
H2895 C2907 0.929 . S
H2896 C2910 0.930 . S
H2897 C2912 0.960 . S
H2898 C2912 0.960 . S
H2899 C2912 0.960 . S
C2900 H2892 0.929 . S
C2900 C2901 1.377 . S
C2900 C2902 1.384 . S
C2901 C2900 1.377 . S
C2901 C2907 1.390 . S
C2902 H2893 0.930 . S
C2902 C2900 1.384 . S
C2902 C2903 1.372 . S
C2903 C2902 1.372 . S
C2903 C2904 1.400 . S
C2903 C2908 1.490 . S
C2904 H2894 0.930 . S
C2904 C2903 1.400 . S
C2904 C2907 1.386 . S
H2905 C2921 0.930 . S
H2906 C2922 0.931 . S
C2907 H2895 0.929 . S
C2907 C2901 1.390 . S
C2907 C2904 1.386 . S
C2908 C2903 1.490 . S
C2908 C2910 1.395 . S
C2908 C2911 1.403 . S
H2909 C2915 0.930 . S
C2910 H2896 0.930 . S
C2910 C2908 1.395 . S
C2910 C2913 1.403 . S
C2911 C2908 1.403 . S
C2911 C2912 1.524 . S
C2911 C2915 1.400 . S
C2912 H2897 0.960 . S
C2912 H2898 0.960 . S
C2912 H2899 0.960 . S
C2912 C2911 1.524 . S
C2913 C2910 1.403 . S
C2913 C2914 1.392 . S
C2913 C2917 1.495 . S
C2914 C2913 1.392 . S
C2914 C2915 1.385 . S
C2914 C2916 1.478 . S
C2915 H2909 0.930 . S
C2915 C2911 1.400 . S
C2915 C2914 1.385 . S
C2916 C2914 1.478 . S
C2916 C2918 1.381 . S
C2916 C2922 1.383 . S
C2917 C2913 1.495 . S
C2917 H2923 0.959 . S
C2917 H2924 0.961 . S
C2917 H2925 0.960 . S
C2918 C2916 1.381 . S
C2918 C2919 1.394 . S
C2918 H2926 0.930 . S
C2919 C2918 1.394 . S
C2919 C2920 1.383 . S
C2919 H2927 0.929 . S
C2920 C2919 1.383 . S
C2920 C2921 1.377 . S
C2921 H2905 0.930 . S
C2921 C2920 1.377 . S
C2921 C2922 1.379 . S
C2922 H2906 0.931 . S
C2922 C2916 1.383 . S
C2922 C2921 1.379 . S
H2923 C2917 0.959 . S
H2924 C2917 0.961 . S
H2925 C2917 0.960 . S
H2926 C2918 0.930 . S
H2927 C2919 0.929 . S
H2928 C2936 0.929 . S
H2929 C2938 0.930 . S
H2930 C2940 0.930 . S
H2931 C2943 0.929 . S
H2932 C2946 0.930 . S
H2933 C2948 0.960 . S
H2934 C2948 0.960 . S
H2935 C2948 0.960 . S
C2936 H2928 0.929 . S
C2936 C2937 1.377 . S
C2936 C2938 1.384 . S
C2937 C2936 1.377 . S
C2937 C2943 1.390 . S
C2938 H2929 0.930 . S
C2938 C2936 1.384 . S
C2938 C2939 1.372 . S
C2939 C2938 1.372 . S
C2939 C2940 1.400 . S
C2939 C2944 1.490 . S
C2940 H2930 0.930 . S
C2940 C2939 1.400 . S
C2940 C2943 1.386 . S
H2941 C2957 0.930 . S
H2942 C2958 0.931 . S
C2943 H2931 0.929 . S
C2943 C2937 1.390 . S
C2943 C2940 1.386 . S
C2944 C2939 1.490 . S
C2944 C2946 1.395 . S
C2944 C2947 1.403 . S
H2945 C2951 0.930 . S
C2946 H2932 0.930 . S
C2946 C2944 1.395 . S
C2946 C2949 1.403 . S
C2947 C2944 1.403 . S
C2947 C2948 1.524 . S
C2947 C2951 1.400 . S
C2948 H2933 0.960 . S
C2948 H2934 0.960 . S
C2948 H2935 0.960 . S
C2948 C2947 1.524 . S
C2949 C2946 1.403 . S
C2949 C2950 1.392 . S
C2949 C2953 1.495 . S
C2950 C2949 1.392 . S
C2950 C2951 1.385 . S
C2950 C2952 1.478 . S
C2951 H2945 0.930 . S
C2951 C2947 1.400 . S
C2951 C2950 1.385 . S
C2952 C2950 1.478 . S
C2952 C2954 1.381 . S
C2952 C2958 1.383 . S
C2953 C2949 1.495 . S
C2953 H2959 0.959 . S
C2953 H2960 0.961 . S
C2953 H2961 0.960 . S
C2954 C2952 1.381 . S
C2954 C2955 1.394 . S
C2954 H2962 0.930 . S
C2955 C2954 1.394 . S
C2955 C2956 1.383 . S
C2955 H2963 0.929 . S
C2956 C2955 1.383 . S
C2956 C2957 1.377 . S
C2957 H2941 0.930 . S
C2957 C2956 1.377 . S
C2957 C2958 1.379 . S
C2958 H2942 0.931 . S
C2958 C2952 1.383 . S
C2958 C2957 1.379 . S
H2959 C2953 0.959 . S
H2960 C2953 0.961 . S
H2961 C2953 0.960 . S
H2962 C2954 0.930 . S
H2963 C2955 0.929 . S
H2964 C2972 0.929 . S
H2965 C2974 0.930 . S
H2966 C2976 0.930 . S
H2967 C2979 0.929 . S
H2968 C2982 0.930 . S
H2969 C2984 0.960 . S
H2970 C2984 0.960 . S
H2971 C2984 0.960 . S
C2972 H2964 0.929 . S
C2972 C2973 1.377 . S
C2972 C2974 1.384 . S
C2973 C2972 1.377 . S
C2973 C2979 1.390 . S
C2974 H2965 0.930 . S
C2974 C2972 1.384 . S
C2974 C2975 1.372 . S
C2975 C2974 1.372 . S
C2975 C2976 1.400 . S
C2975 C2980 1.490 . S
C2976 H2966 0.930 . S
C2976 C2975 1.400 . S
C2976 C2979 1.386 . S
H2977 C2993 0.930 . S
H2978 C2994 0.931 . S
C2979 H2967 0.929 . S
C2979 C2973 1.390 . S
C2979 C2976 1.386 . S
C2980 C2975 1.490 . S
C2980 C2982 1.395 . S
C2980 C2983 1.403 . S
H2981 C2987 0.930 . S
C2982 H2968 0.930 . S
C2982 C2980 1.395 . S
C2982 C2985 1.403 . S
C2983 C2980 1.403 . S
C2983 C2984 1.524 . S
C2983 C2987 1.400 . S
C2984 H2969 0.960 . S
C2984 H2970 0.960 . S
C2984 H2971 0.960 . S
C2984 C2983 1.524 . S
C2985 C2982 1.403 . S
C2985 C2986 1.392 . S
C2985 C2989 1.495 . S
C2986 C2985 1.392 . S
C2986 C2987 1.385 . S
C2986 C2988 1.478 . S
C2987 H2981 0.930 . S
C2987 C2983 1.400 . S
C2987 C2986 1.385 . S
C2988 C2986 1.478 . S
C2988 C2990 1.381 . S
C2988 C2994 1.383 . S
C2989 C2985 1.495 . S
C2989 H2995 0.959 . S
C2989 H2996 0.961 . S
C2989 H2997 0.960 . S
C2990 C2988 1.381 . S
C2990 C2991 1.394 . S
C2990 H2998 0.930 . S
C2991 C2990 1.394 . S
C2991 C2992 1.383 . S
C2991 H2999 0.929 . S
C2992 C2991 1.383 . S
C2992 C2993 1.377 . S
C2993 H2977 0.930 . S
C2993 C2992 1.377 . S
C2993 C2994 1.379 . S
C2994 H2978 0.931 . S
C2994 C2988 1.383 . S
C2994 C2993 1.379 . S
H2995 C2989 0.959 . S
H2996 C2989 0.961 . S
H2997 C2989 0.960 . S
H2998 C2990 0.930 . S
H2999 C2991 0.929 . S
H3000 C3008 0.929 . S
H3001 C3010 0.930 . S
H3002 C3012 0.930 . S
H3003 C3015 0.929 . S
H3004 C3018 0.930 . S
H3005 C3020 0.960 . S
H3006 C3020 0.960 . S
H3007 C3020 0.960 . S
C3008 H3000 0.929 . S
C3008 C3009 1.377 . S
C3008 C3010 1.384 . S
C3009 C3008 1.377 . S
C3009 C3015 1.390 . S
C3010 H3001 0.930 . S
C3010 C3008 1.384 . S
C3010 C3011 1.372 . S
C3011 C3010 1.372 . S
C3011 C3012 1.400 . S
C3011 C3016 1.490 . S
C3012 H3002 0.930 . S
C3012 C3011 1.400 . S
C3012 C3015 1.386 . S
H3013 C3029 0.930 . S
H3014 C3030 0.931 . S
C3015 H3003 0.929 . S
C3015 C3009 1.390 . S
C3015 C3012 1.386 . S
C3016 C3011 1.490 . S
C3016 C3018 1.395 . S
C3016 C3019 1.403 . S
H3017 C3023 0.930 . S
C3018 H3004 0.930 . S
C3018 C3016 1.395 . S
C3018 C3021 1.403 . S
C3019 C3016 1.403 . S
C3019 C3020 1.524 . S
C3019 C3023 1.400 . S
C3020 H3005 0.960 . S
C3020 H3006 0.960 . S
C3020 H3007 0.960 . S
C3020 C3019 1.524 . S
C3021 C3018 1.403 . S
C3021 C3022 1.392 . S
C3021 C3025 1.495 . S
C3022 C3021 1.392 . S
C3022 C3023 1.385 . S
C3022 C3024 1.478 . S
C3023 H3017 0.930 . S
C3023 C3019 1.400 . S
C3023 C3022 1.385 . S
C3024 C3022 1.478 . S
C3024 C3026 1.381 . S
C3024 C3030 1.383 . S
C3025 C3021 1.495 . S
C3025 H3031 0.959 . S
C3025 H3032 0.961 . S
C3025 H3033 0.960 . S
C3026 C3024 1.381 . S
C3026 C3027 1.394 . S
C3026 H3034 0.930 . S
C3027 C3026 1.394 . S
C3027 C3028 1.383 . S
C3027 H3035 0.929 . S
C3028 C3027 1.383 . S
C3028 C3029 1.377 . S
C3029 H3013 0.930 . S
C3029 C3028 1.377 . S
C3029 C3030 1.379 . S
C3030 H3014 0.931 . S
C3030 C3024 1.383 . S
C3030 C3029 1.379 . S
H3031 C3025 0.959 . S
H3032 C3025 0.961 . S
H3033 C3025 0.960 . S
H3034 C3026 0.930 . S
H3035 C3027 0.929 . S
H3036 C3044 0.929 . S
H3037 C3046 0.930 . S
H3038 C3048 0.930 . S
H3039 C3051 0.929 . S
H3040 C3054 0.930 . S
H3041 C3056 0.960 . S
H3042 C3056 0.960 . S
H3043 C3056 0.960 . S
C3044 H3036 0.929 . S
C3044 C3045 1.377 . S
C3044 C3046 1.384 . S
C3045 C3044 1.377 . S
C3045 C3051 1.390 . S
C3046 H3037 0.930 . S
C3046 C3044 1.384 . S
C3046 C3047 1.372 . S
C3047 C3046 1.372 . S
C3047 C3048 1.400 . S
C3047 C3052 1.490 . S
C3048 H3038 0.930 . S
C3048 C3047 1.400 . S
C3048 C3051 1.386 . S
H3049 C3065 0.930 . S
H3050 C3066 0.931 . S
C3051 H3039 0.929 . S
C3051 C3045 1.390 . S
C3051 C3048 1.386 . S
C3052 C3047 1.490 . S
C3052 C3054 1.395 . S
C3052 C3055 1.403 . S
H3053 C3059 0.930 . S
C3054 H3040 0.930 . S
C3054 C3052 1.395 . S
C3054 C3057 1.403 . S
C3055 C3052 1.403 . S
C3055 C3056 1.524 . S
C3055 C3059 1.400 . S
C3056 H3041 0.960 . S
C3056 H3042 0.960 . S
C3056 H3043 0.960 . S
C3056 C3055 1.524 . S
C3057 C3054 1.403 . S
C3057 C3058 1.392 . S
C3057 C3061 1.495 . S
C3058 C3057 1.392 . S
C3058 C3059 1.385 . S
C3058 C3060 1.478 . S
C3059 H3053 0.930 . S
C3059 C3055 1.400 . S
C3059 C3058 1.385 . S
C3060 C3058 1.478 . S
C3060 C3062 1.381 . S
C3060 C3066 1.383 . S
C3061 C3057 1.495 . S
C3061 H3067 0.959 . S
C3061 H3068 0.961 . S
C3061 H3069 0.960 . S
C3062 C3060 1.381 . S
C3062 C3063 1.394 . S
C3062 H3070 0.930 . S
C3063 C3062 1.394 . S
C3063 C3064 1.383 . S
C3063 H3071 0.929 . S
C3064 C3063 1.383 . S
C3064 C3065 1.377 . S
C3065 H3049 0.930 . S
C3065 C3064 1.377 . S
C3065 C3066 1.379 . S
C3066 H3050 0.931 . S
C3066 C3060 1.383 . S
C3066 C3065 1.379 . S
H3067 C3061 0.959 . S
H3068 C3061 0.961 . S
H3069 C3061 0.960 . S
H3070 C3062 0.930 . S
H3071 C3063 0.929 . S
H3072 C3080 0.929 . S
H3073 C3082 0.930 . S
H3074 C3084 0.930 . S
H3075 C3087 0.929 . S
H3076 C3090 0.930 . S
H3077 C3092 0.960 . S
H3078 C3092 0.960 . S
H3079 C3092 0.960 . S
C3080 H3072 0.929 . S
C3080 C3081 1.377 . S
C3080 C3082 1.384 . S
C3081 C3080 1.377 . S
C3081 C3087 1.390 . S
C3082 H3073 0.930 . S
C3082 C3080 1.384 . S
C3082 C3083 1.372 . S
C3083 C3082 1.372 . S
C3083 C3084 1.400 . S
C3083 C3088 1.490 . S
C3084 H3074 0.930 . S
C3084 C3083 1.400 . S
C3084 C3087 1.386 . S
H3085 C3101 0.930 . S
H3086 C3102 0.931 . S
C3087 H3075 0.929 . S
C3087 C3081 1.390 . S
C3087 C3084 1.386 . S
C3088 C3083 1.490 . S
C3088 C3090 1.395 . S
C3088 C3091 1.403 . S
H3089 C3095 0.930 . S
C3090 H3076 0.930 . S
C3090 C3088 1.395 . S
C3090 C3093 1.403 . S
C3091 C3088 1.403 . S
C3091 C3092 1.524 . S
C3091 C3095 1.400 . S
C3092 H3077 0.960 . S
C3092 H3078 0.960 . S
C3092 H3079 0.960 . S
C3092 C3091 1.524 . S
C3093 C3090 1.403 . S
C3093 C3094 1.392 . S
C3093 C3097 1.495 . S
C3094 C3093 1.392 . S
C3094 C3095 1.385 . S
C3094 C3096 1.478 . S
C3095 H3089 0.930 . S
C3095 C3091 1.400 . S
C3095 C3094 1.385 . S
C3096 C3094 1.478 . S
C3096 C3098 1.381 . S
C3096 C3102 1.383 . S
C3097 C3093 1.495 . S
C3097 H3103 0.959 . S
C3097 H3104 0.961 . S
C3097 H3105 0.960 . S
C3098 C3096 1.381 . S
C3098 C3099 1.394 . S
C3098 H3106 0.930 . S
C3099 C3098 1.394 . S
C3099 C3100 1.383 . S
C3099 H3107 0.929 . S
C3100 C3099 1.383 . S
C3100 C3101 1.377 . S
C3101 H3085 0.930 . S
C3101 C3100 1.377 . S
C3101 C3102 1.379 . S
C3102 H3086 0.931 . S
C3102 C3096 1.383 . S
C3102 C3101 1.379 . S
H3103 C3097 0.959 . S
H3104 C3097 0.961 . S
H3105 C3097 0.960 . S
H3106 C3098 0.930 . S
H3107 C3099 0.929 . S
H3108 C3116 0.929 . S
H3109 C3118 0.930 . S
H3110 C3120 0.930 . S
H3111 C3123 0.929 . S
H3112 C3126 0.930 . S
H3113 C3128 0.960 . S
H3114 C3128 0.960 . S
H3115 C3128 0.960 . S
C3116 H3108 0.929 . S
C3116 C3117 1.377 . S
C3116 C3118 1.384 . S
C3117 C3116 1.377 . S
C3117 C3123 1.390 . S
C3118 H3109 0.930 . S
C3118 C3116 1.384 . S
C3118 C3119 1.372 . S
C3119 C3118 1.372 . S
C3119 C3120 1.400 . S
C3119 C3124 1.490 . S
C3120 H3110 0.930 . S
C3120 C3119 1.400 . S
C3120 C3123 1.386 . S
H3121 C3137 0.930 . S
H3122 C3138 0.931 . S
C3123 H3111 0.929 . S
C3123 C3117 1.390 . S
C3123 C3120 1.386 . S
C3124 C3119 1.490 . S
C3124 C3126 1.395 . S
C3124 C3127 1.403 . S
H3125 C3131 0.930 . S
C3126 H3112 0.930 . S
C3126 C3124 1.395 . S
C3126 C3129 1.403 . S
C3127 C3124 1.403 . S
C3127 C3128 1.524 . S
C3127 C3131 1.400 . S
C3128 H3113 0.960 . S
C3128 H3114 0.960 . S
C3128 H3115 0.960 . S
C3128 C3127 1.524 . S
C3129 C3126 1.403 . S
C3129 C3130 1.392 . S
C3129 C3133 1.495 . S
C3130 C3129 1.392 . S
C3130 C3131 1.385 . S
C3130 C3132 1.478 . S
C3131 H3125 0.930 . S
C3131 C3127 1.400 . S
C3131 C3130 1.385 . S
C3132 C3130 1.478 . S
C3132 C3134 1.381 . S
C3132 C3138 1.383 . S
C3133 C3129 1.495 . S
C3133 H3139 0.959 . S
C3133 H3140 0.961 . S
C3133 H3141 0.960 . S
C3134 C3132 1.381 . S
C3134 C3135 1.394 . S
C3134 H3142 0.930 . S
C3135 C3134 1.394 . S
C3135 C3136 1.383 . S
C3135 H3143 0.929 . S
C3136 C3135 1.383 . S
C3136 C3137 1.377 . S
C3137 H3121 0.930 . S
C3137 C3136 1.377 . S
C3137 C3138 1.379 . S
C3138 H3122 0.931 . S
C3138 C3132 1.383 . S
C3138 C3137 1.379 . S
H3139 C3133 0.959 . S
H3140 C3133 0.961 . S
H3141 C3133 0.960 . S
H3142 C3134 0.930 . S
H3143 C3135 0.929 . S
H3144 C3152 0.929 . S
H3145 C3154 0.930 . S
H3146 C3156 0.930 . S
H3147 C3159 0.929 . S
H3148 C3162 0.930 . S
H3149 C3164 0.960 . S
H3150 C3164 0.960 . S
H3151 C3164 0.960 . S
C3152 H3144 0.929 . S
C3152 C3153 1.377 . S
C3152 C3154 1.384 . S
C3153 C3152 1.377 . S
C3153 C3159 1.390 . S
C3154 H3145 0.930 . S
C3154 C3152 1.384 . S
C3154 C3155 1.372 . S
C3155 C3154 1.372 . S
C3155 C3156 1.400 . S
C3155 C3160 1.490 . S
C3156 H3146 0.930 . S
C3156 C3155 1.400 . S
C3156 C3159 1.386 . S
H3157 C3173 0.930 . S
H3158 C3174 0.931 . S
C3159 H3147 0.929 . S
C3159 C3153 1.390 . S
C3159 C3156 1.386 . S
C3160 C3155 1.490 . S
C3160 C3162 1.395 . S
C3160 C3163 1.403 . S
H3161 C3167 0.930 . S
C3162 H3148 0.930 . S
C3162 C3160 1.395 . S
C3162 C3165 1.403 . S
C3163 C3160 1.403 . S
C3163 C3164 1.524 . S
C3163 C3167 1.400 . S
C3164 H3149 0.960 . S
C3164 H3150 0.960 . S
C3164 H3151 0.960 . S
C3164 C3163 1.524 . S
C3165 C3162 1.403 . S
C3165 C3166 1.392 . S
C3165 C3169 1.495 . S
C3166 C3165 1.392 . S
C3166 C3167 1.385 . S
C3166 C3168 1.478 . S
C3167 H3161 0.930 . S
C3167 C3163 1.400 . S
C3167 C3166 1.385 . S
C3168 C3166 1.478 . S
C3168 C3170 1.381 . S
C3168 C3174 1.383 . S
C3169 C3165 1.495 . S
C3169 H3175 0.959 . S
C3169 H3176 0.961 . S
C3169 H3177 0.960 . S
C3170 C3168 1.381 . S
C3170 C3171 1.394 . S
C3170 H3178 0.930 . S
C3171 C3170 1.394 . S
C3171 C3172 1.383 . S
C3171 H3179 0.929 . S
C3172 C3171 1.383 . S
C3172 C3173 1.377 . S
C3173 H3157 0.930 . S
C3173 C3172 1.377 . S
C3173 C3174 1.379 . S
C3174 H3158 0.931 . S
C3174 C3168 1.383 . S
C3174 C3173 1.379 . S
H3175 C3169 0.959 . S
H3176 C3169 0.961 . S
H3177 C3169 0.960 . S
H3178 C3170 0.930 . S
H3179 C3171 0.929 . S
H3180 C3188 0.929 . S
H3181 C3190 0.930 . S
H3182 C3192 0.930 . S
H3183 C3195 0.929 . S
H3184 C3198 0.930 . S
H3185 C3200 0.960 . S
H3186 C3200 0.960 . S
H3187 C3200 0.960 . S
C3188 H3180 0.929 . S
C3188 C3189 1.377 . S
C3188 C3190 1.384 . S
C3189 C3188 1.377 . S
C3189 C3195 1.390 . S
C3190 H3181 0.930 . S
C3190 C3188 1.384 . S
C3190 C3191 1.372 . S
C3191 C3190 1.372 . S
C3191 C3192 1.400 . S
C3191 C3196 1.490 . S
C3192 H3182 0.930 . S
C3192 C3191 1.400 . S
C3192 C3195 1.386 . S
H3193 C3209 0.930 . S
H3194 C3210 0.931 . S
C3195 H3183 0.929 . S
C3195 C3189 1.390 . S
C3195 C3192 1.386 . S
C3196 C3191 1.490 . S
C3196 C3198 1.395 . S
C3196 C3199 1.403 . S
H3197 C3203 0.930 . S
C3198 H3184 0.930 . S
C3198 C3196 1.395 . S
C3198 C3201 1.403 . S
C3199 C3196 1.403 . S
C3199 C3200 1.524 . S
C3199 C3203 1.400 . S
C3200 H3185 0.960 . S
C3200 H3186 0.960 . S
C3200 H3187 0.960 . S
C3200 C3199 1.524 . S
C3201 C3198 1.403 . S
C3201 C3202 1.392 . S
C3201 C3205 1.495 . S
C3202 C3201 1.392 . S
C3202 C3203 1.385 . S
C3202 C3204 1.478 . S
C3203 H3197 0.930 . S
C3203 C3199 1.400 . S
C3203 C3202 1.385 . S
C3204 C3202 1.478 . S
C3204 C3206 1.381 . S
C3204 C3210 1.383 . S
C3205 C3201 1.495 . S
C3205 H3211 0.959 . S
C3205 H3212 0.961 . S
C3205 H3213 0.960 . S
C3206 C3204 1.381 . S
C3206 C3207 1.394 . S
C3206 H3214 0.930 . S
C3207 C3206 1.394 . S
C3207 C3208 1.383 . S
C3207 H3215 0.929 . S
C3208 C3207 1.383 . S
C3208 C3209 1.377 . S
C3209 H3193 0.930 . S
C3209 C3208 1.377 . S
C3209 C3210 1.379 . S
C3210 H3194 0.931 . S
C3210 C3204 1.383 . S
C3210 C3209 1.379 . S
H3211 C3205 0.959 . S
H3212 C3205 0.961 . S
H3213 C3205 0.960 . S
H3214 C3206 0.930 . S
H3215 C3207 0.929 . S
H3216 C3224 0.929 . S
H3217 C3226 0.930 . S
H3218 C3228 0.930 . S
H3219 C3231 0.929 . S
H3220 C3234 0.930 . S
H3221 C3236 0.960 . S
H3222 C3236 0.960 . S
H3223 C3236 0.960 . S
C3224 H3216 0.929 . S
C3224 C3225 1.377 . S
C3224 C3226 1.384 . S
C3225 C3224 1.377 . S
C3225 C3231 1.390 . S
C3226 H3217 0.930 . S
C3226 C3224 1.384 . S
C3226 C3227 1.372 . S
C3227 C3226 1.372 . S
C3227 C3228 1.400 . S
C3227 C3232 1.490 . S
C3228 H3218 0.930 . S
C3228 C3227 1.400 . S
C3228 C3231 1.386 . S
H3229 C3245 0.930 . S
H3230 C3246 0.931 . S
C3231 H3219 0.929 . S
C3231 C3225 1.390 . S
C3231 C3228 1.386 . S
C3232 C3227 1.490 . S
C3232 C3234 1.395 . S
C3232 C3235 1.403 . S
H3233 C3239 0.930 . S
C3234 H3220 0.930 . S
C3234 C3232 1.395 . S
C3234 C3237 1.403 . S
C3235 C3232 1.403 . S
C3235 C3236 1.524 . S
C3235 C3239 1.400 . S
C3236 H3221 0.960 . S
C3236 H3222 0.960 . S
C3236 H3223 0.960 . S
C3236 C3235 1.524 . S
C3237 C3234 1.403 . S
C3237 C3238 1.392 . S
C3237 C3241 1.495 . S
C3238 C3237 1.392 . S
C3238 C3239 1.385 . S
C3238 C3240 1.478 . S
C3239 H3233 0.930 . S
C3239 C3235 1.400 . S
C3239 C3238 1.385 . S
C3240 C3238 1.478 . S
C3240 C3242 1.381 . S
C3240 C3246 1.383 . S
C3241 C3237 1.495 . S
C3241 H3247 0.959 . S
C3241 H3248 0.961 . S
C3241 H3249 0.960 . S
C3242 C3240 1.381 . S
C3242 C3243 1.394 . S
C3242 H3250 0.930 . S
C3243 C3242 1.394 . S
C3243 C3244 1.383 . S
C3243 H3251 0.929 . S
C3244 C3243 1.383 . S
C3244 C3245 1.377 . S
C3245 H3229 0.930 . S
C3245 C3244 1.377 . S
C3245 C3246 1.379 . S
C3246 H3230 0.931 . S
C3246 C3240 1.383 . S
C3246 C3245 1.379 . S
H3247 C3241 0.959 . S
H3248 C3241 0.961 . S
H3249 C3241 0.960 . S
H3250 C3242 0.930 . S
H3251 C3243 0.929 . S
H3252 C3260 0.929 . S
H3253 C3262 0.930 . S
H3254 C3264 0.930 . S
H3255 C3267 0.929 . S
H3256 C3270 0.930 . S
H3257 C3272 0.960 . S
H3258 C3272 0.960 . S
H3259 C3272 0.960 . S
C3260 H3252 0.929 . S
C3260 C3261 1.377 . S
C3260 C3262 1.384 . S
C3261 C3260 1.377 . S
C3261 C3267 1.390 . S
C3262 H3253 0.930 . S
C3262 C3260 1.384 . S
C3262 C3263 1.372 . S
C3263 C3262 1.372 . S
C3263 C3264 1.400 . S
C3263 C3268 1.490 . S
C3264 H3254 0.930 . S
C3264 C3263 1.400 . S
C3264 C3267 1.386 . S
H3265 C3281 0.930 . S
H3266 C3282 0.931 . S
C3267 H3255 0.929 . S
C3267 C3261 1.390 . S
C3267 C3264 1.386 . S
C3268 C3263 1.490 . S
C3268 C3270 1.395 . S
C3268 C3271 1.403 . S
H3269 C3275 0.930 . S
C3270 H3256 0.930 . S
C3270 C3268 1.395 . S
C3270 C3273 1.403 . S
C3271 C3268 1.403 . S
C3271 C3272 1.524 . S
C3271 C3275 1.400 . S
C3272 H3257 0.960 . S
C3272 H3258 0.960 . S
C3272 H3259 0.960 . S
C3272 C3271 1.524 . S
C3273 C3270 1.403 . S
C3273 C3274 1.392 . S
C3273 C3277 1.495 . S
C3274 C3273 1.392 . S
C3274 C3275 1.385 . S
C3274 C3276 1.478 . S
C3275 H3269 0.930 . S
C3275 C3271 1.400 . S
C3275 C3274 1.385 . S
C3276 C3274 1.478 . S
C3276 C3278 1.381 . S
C3276 C3282 1.383 . S
C3277 C3273 1.495 . S
C3277 H3283 0.959 . S
C3277 H3284 0.961 . S
C3277 H3285 0.960 . S
C3278 C3276 1.381 . S
C3278 C3279 1.394 . S
C3278 H3286 0.930 . S
C3279 C3278 1.394 . S
C3279 C3280 1.383 . S
C3279 H3287 0.929 . S
C3280 C3279 1.383 . S
C3280 C3281 1.377 . S
C3281 H3265 0.930 . S
C3281 C3280 1.377 . S
C3281 C3282 1.379 . S
C3282 H3266 0.931 . S
C3282 C3276 1.383 . S
C3282 C3281 1.379 . S
H3283 C3277 0.959 . S
H3284 C3277 0.961 . S
H3285 C3277 0.960 . S
H3286 C3278 0.930 . S
H3287 C3279 0.929 . S
H3288 C3296 0.929 . S
H3289 C3298 0.930 . S
H3290 C3300 0.930 . S
H3291 C3303 0.929 . S
H3292 C3306 0.930 . S
H3293 C3308 0.960 . S
H3294 C3308 0.960 . S
H3295 C3308 0.960 . S
C3296 H3288 0.929 . S
C3296 C3297 1.377 . S
C3296 C3298 1.384 . S
C3297 C3296 1.377 . S
C3297 C3303 1.390 . S
C3298 H3289 0.930 . S
C3298 C3296 1.384 . S
C3298 C3299 1.372 . S
C3299 C3298 1.372 . S
C3299 C3300 1.400 . S
C3299 C3304 1.490 . S
C3300 H3290 0.930 . S
C3300 C3299 1.400 . S
C3300 C3303 1.386 . S
H3301 C3317 0.930 . S
H3302 C3318 0.931 . S
C3303 H3291 0.929 . S
C3303 C3297 1.390 . S
C3303 C3300 1.386 . S
C3304 C3299 1.490 . S
C3304 C3306 1.395 . S
C3304 C3307 1.403 . S
H3305 C3311 0.930 . S
C3306 H3292 0.930 . S
C3306 C3304 1.395 . S
C3306 C3309 1.403 . S
C3307 C3304 1.403 . S
C3307 C3308 1.524 . S
C3307 C3311 1.400 . S
C3308 H3293 0.960 . S
C3308 H3294 0.960 . S
C3308 H3295 0.960 . S
C3308 C3307 1.524 . S
C3309 C3306 1.403 . S
C3309 C3310 1.392 . S
C3309 C3313 1.495 . S
C3310 C3309 1.392 . S
C3310 C3311 1.385 . S
C3310 C3312 1.478 . S
C3311 H3305 0.930 . S
C3311 C3307 1.400 . S
C3311 C3310 1.385 . S
C3312 C3310 1.478 . S
C3312 C3314 1.381 . S
C3312 C3318 1.383 . S
C3313 C3309 1.495 . S
C3313 H3319 0.959 . S
C3313 H3320 0.961 . S
C3313 H3321 0.960 . S
C3314 C3312 1.381 . S
C3314 C3315 1.394 . S
C3314 H3322 0.930 . S
C3315 C3314 1.394 . S
C3315 C3316 1.383 . S
C3315 H3323 0.929 . S
C3316 C3315 1.383 . S
C3316 C3317 1.377 . S
C3317 H3301 0.930 . S
C3317 C3316 1.377 . S
C3317 C3318 1.379 . S
C3318 H3302 0.931 . S
C3318 C3312 1.383 . S
C3318 C3317 1.379 . S
H3319 C3313 0.959 . S
H3320 C3313 0.961 . S
H3321 C3313 0.960 . S
H3322 C3314 0.930 . S
H3323 C3315 0.929 . S
H3324 C3332 0.929 . S
H3325 C3334 0.930 . S
H3326 C3336 0.930 . S
H3327 C3339 0.929 . S
H3328 C3342 0.930 . S
H3329 C3344 0.960 . S
H3330 C3344 0.960 . S
H3331 C3344 0.960 . S
C3332 H3324 0.929 . S
C3332 C3333 1.377 . S
C3332 C3334 1.384 . S
C3333 C3332 1.377 . S
C3333 C3339 1.390 . S
C3334 H3325 0.930 . S
C3334 C3332 1.384 . S
C3334 C3335 1.372 . S
C3335 C3334 1.372 . S
C3335 C3336 1.400 . S
C3335 C3340 1.490 . S
C3336 H3326 0.930 . S
C3336 C3335 1.400 . S
C3336 C3339 1.386 . S
H3337 C3353 0.930 . S
H3338 C3354 0.931 . S
C3339 H3327 0.929 . S
C3339 C3333 1.390 . S
C3339 C3336 1.386 . S
C3340 C3335 1.490 . S
C3340 C3342 1.395 . S
C3340 C3343 1.403 . S
H3341 C3347 0.930 . S
C3342 H3328 0.930 . S
C3342 C3340 1.395 . S
C3342 C3345 1.403 . S
C3343 C3340 1.403 . S
C3343 C3344 1.524 . S
C3343 C3347 1.400 . S
C3344 H3329 0.960 . S
C3344 H3330 0.960 . S
C3344 H3331 0.960 . S
C3344 C3343 1.524 . S
C3345 C3342 1.403 . S
C3345 C3346 1.392 . S
C3345 C3349 1.495 . S
C3346 C3345 1.392 . S
C3346 C3347 1.385 . S
C3346 C3348 1.478 . S
C3347 H3341 0.930 . S
C3347 C3343 1.400 . S
C3347 C3346 1.385 . S
C3348 C3346 1.478 . S
C3348 C3350 1.381 . S
C3348 C3354 1.383 . S
C3349 C3345 1.495 . S
C3349 H3355 0.959 . S
C3349 H3356 0.961 . S
C3349 H3357 0.960 . S
C3350 C3348 1.381 . S
C3350 C3351 1.394 . S
C3350 H3358 0.930 . S
C3351 C3350 1.394 . S
C3351 C3352 1.383 . S
C3351 H3359 0.929 . S
C3352 C3351 1.383 . S
C3352 C3353 1.377 . S
C3353 H3337 0.930 . S
C3353 C3352 1.377 . S
C3353 C3354 1.379 . S
C3354 H3338 0.931 . S
C3354 C3348 1.383 . S
C3354 C3353 1.379 . S
H3355 C3349 0.959 . S
H3356 C3349 0.961 . S
H3357 C3349 0.960 . S
H3358 C3350 0.930 . S
H3359 C3351 0.929 . S
H3360 C3368 0.929 . S
H3361 C3370 0.930 . S
H3362 C3372 0.930 . S
H3363 C3375 0.929 . S
H3364 C3378 0.930 . S
H3365 C3380 0.960 . S
H3366 C3380 0.960 . S
H3367 C3380 0.960 . S
C3368 H3360 0.929 . S
C3368 C3369 1.377 . S
C3368 C3370 1.384 . S
C3369 C3368 1.377 . S
C3369 C3375 1.390 . S
C3370 H3361 0.930 . S
C3370 C3368 1.384 . S
C3370 C3371 1.372 . S
C3371 C3370 1.372 . S
C3371 C3372 1.400 . S
C3371 C3376 1.490 . S
C3372 H3362 0.930 . S
C3372 C3371 1.400 . S
C3372 C3375 1.386 . S
H3373 C3389 0.930 . S
H3374 C3390 0.931 . S
C3375 H3363 0.929 . S
C3375 C3369 1.390 . S
C3375 C3372 1.386 . S
C3376 C3371 1.490 . S
C3376 C3378 1.395 . S
C3376 C3379 1.403 . S
H3377 C3383 0.930 . S
C3378 H3364 0.930 . S
C3378 C3376 1.395 . S
C3378 C3381 1.403 . S
C3379 C3376 1.403 . S
C3379 C3380 1.524 . S
C3379 C3383 1.400 . S
C3380 H3365 0.960 . S
C3380 H3366 0.960 . S
C3380 H3367 0.960 . S
C3380 C3379 1.524 . S
C3381 C3378 1.403 . S
C3381 C3382 1.392 . S
C3381 C3385 1.495 . S
C3382 C3381 1.392 . S
C3382 C3383 1.385 . S
C3382 C3384 1.478 . S
C3383 H3377 0.930 . S
C3383 C3379 1.400 . S
C3383 C3382 1.385 . S
C3384 C3382 1.478 . S
C3384 C3386 1.381 . S
C3384 C3390 1.383 . S
C3385 C3381 1.495 . S
C3385 H3391 0.959 . S
C3385 H3392 0.961 . S
C3385 H3393 0.960 . S
C3386 C3384 1.381 . S
C3386 C3387 1.394 . S
C3386 H3394 0.930 . S
C3387 C3386 1.394 . S
C3387 C3388 1.383 . S
C3387 H3395 0.929 . S
C3388 C3387 1.383 . S
C3388 C3389 1.377 . S
C3389 H3373 0.930 . S
C3389 C3388 1.377 . S
C3389 C3390 1.379 . S
C3390 H3374 0.931 . S
C3390 C3384 1.383 . S
C3390 C3389 1.379 . S
H3391 C3385 0.959 . S
H3392 C3385 0.961 . S
H3393 C3385 0.960 . S
H3394 C3386 0.930 . S
H3395 C3387 0.929 . S
H3396 C3404 0.929 . S
H3397 C3406 0.930 . S
H3398 C3408 0.930 . S
H3399 C3411 0.929 . S
H3400 C3414 0.930 . S
H3401 C3416 0.960 . S
H3402 C3416 0.960 . S
H3403 C3416 0.960 . S
C3404 H3396 0.929 . S
C3404 C3405 1.377 . S
C3404 C3406 1.384 . S
C3405 C3404 1.377 . S
C3405 C3411 1.390 . S
C3406 H3397 0.930 . S
C3406 C3404 1.384 . S
C3406 C3407 1.372 . S
C3407 C3406 1.372 . S
C3407 C3408 1.400 . S
C3407 C3412 1.490 . S
C3408 H3398 0.930 . S
C3408 C3407 1.400 . S
C3408 C3411 1.386 . S
H3409 C3425 0.930 . S
H3410 C3426 0.931 . S
C3411 H3399 0.929 . S
C3411 C3405 1.390 . S
C3411 C3408 1.386 . S
C3412 C3407 1.490 . S
C3412 C3414 1.395 . S
C3412 C3415 1.403 . S
H3413 C3419 0.930 . S
C3414 H3400 0.930 . S
C3414 C3412 1.395 . S
C3414 C3417 1.403 . S
C3415 C3412 1.403 . S
C3415 C3416 1.524 . S
C3415 C3419 1.400 . S
C3416 H3401 0.960 . S
C3416 H3402 0.960 . S
C3416 H3403 0.960 . S
C3416 C3415 1.524 . S
C3417 C3414 1.403 . S
C3417 C3418 1.392 . S
C3417 C3421 1.495 . S
C3418 C3417 1.392 . S
C3418 C3419 1.385 . S
C3418 C3420 1.478 . S
C3419 H3413 0.930 . S
C3419 C3415 1.400 . S
C3419 C3418 1.385 . S
C3420 C3418 1.478 . S
C3420 C3422 1.381 . S
C3420 C3426 1.383 . S
C3421 C3417 1.495 . S
C3421 H3427 0.959 . S
C3421 H3428 0.961 . S
C3421 H3429 0.960 . S
C3422 C3420 1.381 . S
C3422 C3423 1.394 . S
C3422 H3430 0.930 . S
C3423 C3422 1.394 . S
C3423 C3424 1.383 . S
C3423 H3431 0.929 . S
C3424 C3423 1.383 . S
C3424 C3425 1.377 . S
C3425 H3409 0.930 . S
C3425 C3424 1.377 . S
C3425 C3426 1.379 . S
C3426 H3410 0.931 . S
C3426 C3420 1.383 . S
C3426 C3425 1.379 . S
H3427 C3421 0.959 . S
H3428 C3421 0.961 . S
H3429 C3421 0.960 . S
H3430 C3422 0.930 . S
H3431 C3423 0.929 . S
H3432 C3440 0.929 . S
H3433 C3442 0.930 . S
H3434 C3444 0.930 . S
H3435 C3447 0.929 . S
H3436 C3450 0.930 . S
H3437 C3452 0.960 . S
H3438 C3452 0.960 . S
H3439 C3452 0.960 . S
C3440 H3432 0.929 . S
C3440 C3441 1.377 . S
C3440 C3442 1.384 . S
C3441 C3440 1.377 . S
C3441 C3447 1.390 . S
C3442 H3433 0.930 . S
C3442 C3440 1.384 . S
C3442 C3443 1.372 . S
C3443 C3442 1.372 . S
C3443 C3444 1.400 . S
C3443 C3448 1.490 . S
C3444 H3434 0.930 . S
C3444 C3443 1.400 . S
C3444 C3447 1.386 . S
H3445 C3461 0.930 . S
H3446 C3462 0.931 . S
C3447 H3435 0.929 . S
C3447 C3441 1.390 . S
C3447 C3444 1.386 . S
C3448 C3443 1.490 . S
C3448 C3450 1.395 . S
C3448 C3451 1.403 . S
H3449 C3455 0.930 . S
C3450 H3436 0.930 . S
C3450 C3448 1.395 . S
C3450 C3453 1.403 . S
C3451 C3448 1.403 . S
C3451 C3452 1.524 . S
C3451 C3455 1.400 . S
C3452 H3437 0.960 . S
C3452 H3438 0.960 . S
C3452 H3439 0.960 . S
C3452 C3451 1.524 . S
C3453 C3450 1.403 . S
C3453 C3454 1.392 . S
C3453 C3457 1.495 . S
C3454 C3453 1.392 . S
C3454 C3455 1.385 . S
C3454 C3456 1.478 . S
C3455 H3449 0.930 . S
C3455 C3451 1.400 . S
C3455 C3454 1.385 . S
C3456 C3454 1.478 . S
C3456 C3458 1.381 . S
C3456 C3462 1.383 . S
C3457 C3453 1.495 . S
C3457 H3463 0.959 . S
C3457 H3464 0.961 . S
C3457 H3465 0.960 . S
C3458 C3456 1.381 . S
C3458 C3459 1.394 . S
C3458 H3466 0.930 . S
C3459 C3458 1.394 . S
C3459 C3460 1.383 . S
C3459 H3467 0.929 . S
C3460 C3459 1.383 . S
C3460 C3461 1.377 . S
C3461 H3445 0.930 . S
C3461 C3460 1.377 . S
C3461 C3462 1.379 . S
C3462 H3446 0.931 . S
C3462 C3456 1.383 . S
C3462 C3461 1.379 . S
H3463 C3457 0.959 . S
H3464 C3457 0.961 . S
H3465 C3457 0.960 . S
H3466 C3458 0.930 . S
H3467 C3459 0.929 . S
H3468 C3476 0.929 . S
H3469 C3478 0.930 . S
H3470 C3480 0.930 . S
H3471 C3483 0.929 . S
H3472 C3486 0.930 . S
H3473 C3488 0.960 . S
H3474 C3488 0.960 . S
H3475 C3488 0.960 . S
C3476 H3468 0.929 . S
C3476 C3477 1.377 . S
C3476 C3478 1.384 . S
C3477 C3476 1.377 . S
C3477 C3483 1.390 . S
C3478 H3469 0.930 . S
C3478 C3476 1.384 . S
C3478 C3479 1.372 . S
C3479 C3478 1.372 . S
C3479 C3480 1.400 . S
C3479 C3484 1.490 . S
C3480 H3470 0.930 . S
C3480 C3479 1.400 . S
C3480 C3483 1.386 . S
H3481 C3497 0.930 . S
H3482 C3498 0.931 . S
C3483 H3471 0.929 . S
C3483 C3477 1.390 . S
C3483 C3480 1.386 . S
C3484 C3479 1.490 . S
C3484 C3486 1.395 . S
C3484 C3487 1.403 . S
H3485 C3491 0.930 . S
C3486 H3472 0.930 . S
C3486 C3484 1.395 . S
C3486 C3489 1.403 . S
C3487 C3484 1.403 . S
C3487 C3488 1.524 . S
C3487 C3491 1.400 . S
C3488 H3473 0.960 . S
C3488 H3474 0.960 . S
C3488 H3475 0.960 . S
C3488 C3487 1.524 . S
C3489 C3486 1.403 . S
C3489 C3490 1.392 . S
C3489 C3493 1.495 . S
C3490 C3489 1.392 . S
C3490 C3491 1.385 . S
C3490 C3492 1.478 . S
C3491 H3485 0.930 . S
C3491 C3487 1.400 . S
C3491 C3490 1.385 . S
C3492 C3490 1.478 . S
C3492 C3494 1.381 . S
C3492 C3498 1.383 . S
C3493 C3489 1.495 . S
C3493 H3499 0.959 . S
C3493 H3500 0.961 . S
C3493 H3501 0.960 . S
C3494 C3492 1.381 . S
C3494 C3495 1.394 . S
C3494 H3502 0.930 . S
C3495 C3494 1.394 . S
C3495 C3496 1.383 . S
C3495 H3503 0.929 . S
C3496 C3495 1.383 . S
C3496 C3497 1.377 . S
C3497 H3481 0.930 . S
C3497 C3496 1.377 . S
C3497 C3498 1.379 . S
C3498 H3482 0.931 . S
C3498 C3492 1.383 . S
C3498 C3497 1.379 . S
H3499 C3493 0.959 . S
H3500 C3493 0.961 . S
H3501 C3493 0.960 . S
H3502 C3494 0.930 . S
H3503 C3495 0.929 . S
H3504 C3512 0.929 . S
H3505 C3514 0.930 . S
H3506 C3516 0.930 . S
H3507 C3519 0.929 . S
H3508 C3522 0.930 . S
H3509 C3524 0.960 . S
H3510 C3524 0.960 . S
H3511 C3524 0.960 . S
C3512 H3504 0.929 . S
C3512 C3513 1.377 . S
C3512 C3514 1.384 . S
C3513 C3512 1.377 . S
C3513 C3519 1.390 . S
C3514 H3505 0.930 . S
C3514 C3512 1.384 . S
C3514 C3515 1.372 . S
C3515 C3514 1.372 . S
C3515 C3516 1.400 . S
C3515 C3520 1.490 . S
C3516 H3506 0.930 . S
C3516 C3515 1.400 . S
C3516 C3519 1.386 . S
H3517 C3533 0.930 . S
H3518 C3534 0.931 . S
C3519 H3507 0.929 . S
C3519 C3513 1.390 . S
C3519 C3516 1.386 . S
C3520 C3515 1.490 . S
C3520 C3522 1.395 . S
C3520 C3523 1.403 . S
H3521 C3527 0.930 . S
C3522 H3508 0.930 . S
C3522 C3520 1.395 . S
C3522 C3525 1.403 . S
C3523 C3520 1.403 . S
C3523 C3524 1.524 . S
C3523 C3527 1.400 . S
C3524 H3509 0.960 . S
C3524 H3510 0.960 . S
C3524 H3511 0.960 . S
C3524 C3523 1.524 . S
C3525 C3522 1.403 . S
C3525 C3526 1.392 . S
C3525 C3529 1.495 . S
C3526 C3525 1.392 . S
C3526 C3527 1.385 . S
C3526 C3528 1.478 . S
C3527 H3521 0.930 . S
C3527 C3523 1.400 . S
C3527 C3526 1.385 . S
C3528 C3526 1.478 . S
C3528 C3530 1.381 . S
C3528 C3534 1.383 . S
C3529 C3525 1.495 . S
C3529 H3535 0.959 . S
C3529 H3536 0.961 . S
C3529 H3537 0.960 . S
C3530 C3528 1.381 . S
C3530 C3531 1.394 . S
C3530 H3538 0.930 . S
C3531 C3530 1.394 . S
C3531 C3532 1.383 . S
C3531 H3539 0.929 . S
C3532 C3531 1.383 . S
C3532 C3533 1.377 . S
C3533 H3517 0.930 . S
C3533 C3532 1.377 . S
C3533 C3534 1.379 . S
C3534 H3518 0.931 . S
C3534 C3528 1.383 . S
C3534 C3533 1.379 . S
H3535 C3529 0.959 . S
H3536 C3529 0.961 . S
H3537 C3529 0.960 . S
H3538 C3530 0.930 . S
H3539 C3531 0.929 . S
H3540 C3548 0.929 . S
H3541 C3550 0.930 . S
H3542 C3552 0.930 . S
H3543 C3555 0.929 . S
H3544 C3558 0.930 . S
H3545 C3560 0.960 . S
H3546 C3560 0.960 . S
H3547 C3560 0.960 . S
C3548 H3540 0.929 . S
C3548 C3549 1.377 . S
C3548 C3550 1.384 . S
C3549 C3548 1.377 . S
C3549 C3555 1.390 . S
C3550 H3541 0.930 . S
C3550 C3548 1.384 . S
C3550 C3551 1.372 . S
C3551 C3550 1.372 . S
C3551 C3552 1.400 . S
C3551 C3556 1.490 . S
C3552 H3542 0.930 . S
C3552 C3551 1.400 . S
C3552 C3555 1.386 . S
H3553 C3569 0.930 . S
H3554 C3570 0.931 . S
C3555 H3543 0.929 . S
C3555 C3549 1.390 . S
C3555 C3552 1.386 . S
C3556 C3551 1.490 . S
C3556 C3558 1.395 . S
C3556 C3559 1.403 . S
H3557 C3563 0.930 . S
C3558 H3544 0.930 . S
C3558 C3556 1.395 . S
C3558 C3561 1.403 . S
C3559 C3556 1.403 . S
C3559 C3560 1.524 . S
C3559 C3563 1.400 . S
C3560 H3545 0.960 . S
C3560 H3546 0.960 . S
C3560 H3547 0.960 . S
C3560 C3559 1.524 . S
C3561 C3558 1.403 . S
C3561 C3562 1.392 . S
C3561 C3565 1.495 . S
C3562 C3561 1.392 . S
C3562 C3563 1.385 . S
C3562 C3564 1.478 . S
C3563 H3557 0.930 . S
C3563 C3559 1.400 . S
C3563 C3562 1.385 . S
C3564 C3562 1.478 . S
C3564 C3566 1.381 . S
C3564 C3570 1.383 . S
C3565 C3561 1.495 . S
C3565 H3571 0.959 . S
C3565 H3572 0.961 . S
C3565 H3573 0.960 . S
C3566 C3564 1.381 . S
C3566 C3567 1.394 . S
C3566 H3574 0.930 . S
C3567 C3566 1.394 . S
C3567 C3568 1.383 . S
C3567 H3575 0.929 . S
C3568 C3567 1.383 . S
C3568 C3569 1.377 . S
C3569 H3553 0.930 . S
C3569 C3568 1.377 . S
C3569 C3570 1.379 . S
C3570 H3554 0.931 . S
C3570 C3564 1.383 . S
C3570 C3569 1.379 . S
H3571 C3565 0.959 . S
H3572 C3565 0.961 . S
H3573 C3565 0.960 . S
H3574 C3566 0.930 . S
H3575 C3567 0.929 . S
H3576 C3584 0.929 . S
H3577 C3586 0.930 . S
H3578 C3588 0.930 . S
H3579 C3591 0.929 . S
H3580 C3594 0.930 . S
H3581 C3596 0.960 . S
H3582 C3596 0.960 . S
H3583 C3596 0.960 . S
C3584 H3576 0.929 . S
C3584 C3585 1.377 . S
C3584 C3586 1.384 . S
C3585 C3584 1.377 . S
C3585 C3591 1.390 . S
C3586 H3577 0.930 . S
C3586 C3584 1.384 . S
C3586 C3587 1.372 . S
C3587 C3586 1.372 . S
C3587 C3588 1.400 . S
C3587 C3592 1.490 . S
C3588 H3578 0.930 . S
C3588 C3587 1.400 . S
C3588 C3591 1.386 . S
H3589 C3605 0.930 . S
H3590 C3606 0.931 . S
C3591 H3579 0.929 . S
C3591 C3585 1.390 . S
C3591 C3588 1.386 . S
C3592 C3587 1.490 . S
C3592 C3594 1.395 . S
C3592 C3595 1.403 . S
H3593 C3599 0.930 . S
C3594 H3580 0.930 . S
C3594 C3592 1.395 . S
C3594 C3597 1.403 . S
C3595 C3592 1.403 . S
C3595 C3596 1.524 . S
C3595 C3599 1.400 . S
C3596 H3581 0.960 . S
C3596 H3582 0.960 . S
C3596 H3583 0.960 . S
C3596 C3595 1.524 . S
C3597 C3594 1.403 . S
C3597 C3598 1.392 . S
C3597 C3601 1.495 . S
C3598 C3597 1.392 . S
C3598 C3599 1.385 . S
C3598 C3600 1.478 . S
C3599 H3593 0.930 . S
C3599 C3595 1.400 . S
C3599 C3598 1.385 . S
C3600 C3598 1.478 . S
C3600 C3602 1.381 . S
C3600 C3606 1.383 . S
C3601 C3597 1.495 . S
C3601 H3607 0.959 . S
C3601 H3608 0.961 . S
C3601 H3609 0.960 . S
C3602 C3600 1.381 . S
C3602 C3603 1.394 . S
C3602 H3610 0.930 . S
C3603 C3602 1.394 . S
C3603 C3604 1.383 . S
C3603 H3611 0.929 . S
C3604 C3603 1.383 . S
C3604 C3605 1.377 . S
C3605 H3589 0.930 . S
C3605 C3604 1.377 . S
C3605 C3606 1.379 . S
C3606 H3590 0.931 . S
C3606 C3600 1.383 . S
C3606 C3605 1.379 . S
H3607 C3601 0.959 . S
H3608 C3601 0.961 . S
H3609 C3601 0.960 . S
H3610 C3602 0.930 . S
H3611 C3603 0.929 . S
H3612 C3620 0.929 . S
H3613 C3622 0.930 . S
H3614 C3624 0.930 . S
H3615 C3627 0.929 . S
H3616 C3630 0.930 . S
H3617 C3632 0.960 . S
H3618 C3632 0.960 . S
H3619 C3632 0.960 . S
C3620 H3612 0.929 . S
C3620 C3621 1.377 . S
C3620 C3622 1.384 . S
C3621 C3620 1.377 . S
C3621 C3627 1.390 . S
C3622 H3613 0.930 . S
C3622 C3620 1.384 . S
C3622 C3623 1.372 . S
C3623 C3622 1.372 . S
C3623 C3624 1.400 . S
C3623 C3628 1.490 . S
C3624 H3614 0.930 . S
C3624 C3623 1.400 . S
C3624 C3627 1.386 . S
H3625 C3641 0.930 . S
H3626 C3642 0.931 . S
C3627 H3615 0.929 . S
C3627 C3621 1.390 . S
C3627 C3624 1.386 . S
C3628 C3623 1.490 . S
C3628 C3630 1.395 . S
C3628 C3631 1.403 . S
H3629 C3635 0.930 . S
C3630 H3616 0.930 . S
C3630 C3628 1.395 . S
C3630 C3633 1.403 . S
C3631 C3628 1.403 . S
C3631 C3632 1.524 . S
C3631 C3635 1.400 . S
C3632 H3617 0.960 . S
C3632 H3618 0.960 . S
C3632 H3619 0.960 . S
C3632 C3631 1.524 . S
C3633 C3630 1.403 . S
C3633 C3634 1.392 . S
C3633 C3637 1.495 . S
C3634 C3633 1.392 . S
C3634 C3635 1.385 . S
C3634 C3636 1.478 . S
C3635 H3629 0.930 . S
C3635 C3631 1.400 . S
C3635 C3634 1.385 . S
C3636 C3634 1.478 . S
C3636 C3638 1.381 . S
C3636 C3642 1.383 . S
C3637 C3633 1.495 . S
C3637 H3643 0.959 . S
C3637 H3644 0.961 . S
C3637 H3645 0.960 . S
C3638 C3636 1.381 . S
C3638 C3639 1.394 . S
C3638 H3646 0.930 . S
C3639 C3638 1.394 . S
C3639 C3640 1.383 . S
C3639 H3647 0.929 . S
C3640 C3639 1.383 . S
C3640 C3641 1.377 . S
C3641 H3625 0.930 . S
C3641 C3640 1.377 . S
C3641 C3642 1.379 . S
C3642 H3626 0.931 . S
C3642 C3636 1.383 . S
C3642 C3641 1.379 . S
H3643 C3637 0.959 . S
H3644 C3637 0.961 . S
H3645 C3637 0.960 . S
H3646 C3638 0.930 . S
H3647 C3639 0.929 . S
H3648 C3656 0.929 . S
H3649 C3658 0.930 . S
H3650 C3660 0.930 . S
H3651 C3663 0.929 . S
H3652 C3666 0.930 . S
H3653 C3668 0.960 . S
H3654 C3668 0.960 . S
H3655 C3668 0.960 . S
C3656 H3648 0.929 . S
C3656 C3657 1.377 . S
C3656 C3658 1.384 . S
C3657 C3656 1.377 . S
C3657 C3663 1.390 . S
C3658 H3649 0.930 . S
C3658 C3656 1.384 . S
C3658 C3659 1.372 . S
C3659 C3658 1.372 . S
C3659 C3660 1.400 . S
C3659 C3664 1.490 . S
C3660 H3650 0.930 . S
C3660 C3659 1.400 . S
C3660 C3663 1.386 . S
H3661 C3677 0.930 . S
H3662 C3678 0.931 . S
C3663 H3651 0.929 . S
C3663 C3657 1.390 . S
C3663 C3660 1.386 . S
C3664 C3659 1.490 . S
C3664 C3666 1.395 . S
C3664 C3667 1.403 . S
H3665 C3671 0.930 . S
C3666 H3652 0.930 . S
C3666 C3664 1.395 . S
C3666 C3669 1.403 . S
C3667 C3664 1.403 . S
C3667 C3668 1.524 . S
C3667 C3671 1.400 . S
C3668 H3653 0.960 . S
C3668 H3654 0.960 . S
C3668 H3655 0.960 . S
C3668 C3667 1.524 . S
C3669 C3666 1.403 . S
C3669 C3670 1.392 . S
C3669 C3673 1.495 . S
C3670 C3669 1.392 . S
C3670 C3671 1.385 . S
C3670 C3672 1.478 . S
C3671 H3665 0.930 . S
C3671 C3667 1.400 . S
C3671 C3670 1.385 . S
C3672 C3670 1.478 . S
C3672 C3674 1.381 . S
C3672 C3678 1.383 . S
C3673 C3669 1.495 . S
C3673 H3679 0.959 . S
C3673 H3680 0.961 . S
C3673 H3681 0.960 . S
C3674 C3672 1.381 . S
C3674 C3675 1.394 . S
C3674 H3682 0.930 . S
C3675 C3674 1.394 . S
C3675 C3676 1.383 . S
C3675 H3683 0.929 . S
C3676 C3675 1.383 . S
C3676 C3677 1.377 . S
C3677 H3661 0.930 . S
C3677 C3676 1.377 . S
C3677 C3678 1.379 . S
C3678 H3662 0.931 . S
C3678 C3672 1.383 . S
C3678 C3677 1.379 . S
H3679 C3673 0.959 . S
H3680 C3673 0.961 . S
H3681 C3673 0.960 . S
H3682 C3674 0.930 . S
H3683 C3675 0.929 . S
H3684 C3692 0.929 . S
H3685 C3694 0.930 . S
H3686 C3696 0.930 . S
H3687 C3699 0.929 . S
H3688 C3702 0.930 . S
H3689 C3704 0.960 . S
H3690 C3704 0.960 . S
H3691 C3704 0.960 . S
C3692 H3684 0.929 . S
C3692 C3693 1.377 . S
C3692 C3694 1.384 . S
C3693 C3692 1.377 . S
C3693 C3699 1.390 . S
C3694 H3685 0.930 . S
C3694 C3692 1.384 . S
C3694 C3695 1.372 . S
C3695 C3694 1.372 . S
C3695 C3696 1.400 . S
C3695 C3700 1.490 . S
C3696 H3686 0.930 . S
C3696 C3695 1.400 . S
C3696 C3699 1.386 . S
H3697 C3713 0.930 . S
H3698 C3714 0.931 . S
C3699 H3687 0.929 . S
C3699 C3693 1.390 . S
C3699 C3696 1.386 . S
C3700 C3695 1.490 . S
C3700 C3702 1.395 . S
C3700 C3703 1.403 . S
H3701 C3707 0.930 . S
C3702 H3688 0.930 . S
C3702 C3700 1.395 . S
C3702 C3705 1.403 . S
C3703 C3700 1.403 . S
C3703 C3704 1.524 . S
C3703 C3707 1.400 . S
C3704 H3689 0.960 . S
C3704 H3690 0.960 . S
C3704 H3691 0.960 . S
C3704 C3703 1.524 . S
C3705 C3702 1.403 . S
C3705 C3706 1.392 . S
C3705 C3709 1.495 . S
C3706 C3705 1.392 . S
C3706 C3707 1.385 . S
C3706 C3708 1.478 . S
C3707 H3701 0.930 . S
C3707 C3703 1.400 . S
C3707 C3706 1.385 . S
C3708 C3706 1.478 . S
C3708 C3710 1.381 . S
C3708 C3714 1.383 . S
C3709 C3705 1.495 . S
C3709 H3715 0.959 . S
C3709 H3716 0.961 . S
C3709 H3717 0.960 . S
C3710 C3708 1.381 . S
C3710 C3711 1.394 . S
C3710 H3718 0.930 . S
C3711 C3710 1.394 . S
C3711 C3712 1.383 . S
C3711 H3719 0.929 . S
C3712 C3711 1.383 . S
C3712 C3713 1.377 . S
C3713 H3697 0.930 . S
C3713 C3712 1.377 . S
C3713 C3714 1.379 . S
C3714 H3698 0.931 . S
C3714 C3708 1.383 . S
C3714 C3713 1.379 . S
H3715 C3709 0.959 . S
H3716 C3709 0.961 . S
H3717 C3709 0.960 . S
H3718 C3710 0.930 . S
H3719 C3711 0.929 . S
H3720 C3728 0.929 . S
H3721 C3730 0.930 . S
H3722 C3732 0.930 . S
H3723 C3735 0.929 . S
H3724 C3738 0.930 . S
H3725 C3740 0.960 . S
H3726 C3740 0.960 . S
H3727 C3740 0.960 . S
C3728 H3720 0.929 . S
C3728 C3729 1.377 . S
C3728 C3730 1.384 . S
C3729 C3728 1.377 . S
C3729 C3735 1.390 . S
C3730 H3721 0.930 . S
C3730 C3728 1.384 . S
C3730 C3731 1.372 . S
C3731 C3730 1.372 . S
C3731 C3732 1.400 . S
C3731 C3736 1.490 . S
C3732 H3722 0.930 . S
C3732 C3731 1.400 . S
C3732 C3735 1.386 . S
H3733 C3749 0.930 . S
H3734 C3750 0.931 . S
C3735 H3723 0.929 . S
C3735 C3729 1.390 . S
C3735 C3732 1.386 . S
C3736 C3731 1.490 . S
C3736 C3738 1.395 . S
C3736 C3739 1.403 . S
H3737 C3743 0.930 . S
C3738 H3724 0.930 . S
C3738 C3736 1.395 . S
C3738 C3741 1.403 . S
C3739 C3736 1.403 . S
C3739 C3740 1.524 . S
C3739 C3743 1.400 . S
C3740 H3725 0.960 . S
C3740 H3726 0.960 . S
C3740 H3727 0.960 . S
C3740 C3739 1.524 . S
C3741 C3738 1.403 . S
C3741 C3742 1.392 . S
C3741 C3745 1.495 . S
C3742 C3741 1.392 . S
C3742 C3743 1.385 . S
C3742 C3744 1.478 . S
C3743 H3737 0.930 . S
C3743 C3739 1.400 . S
C3743 C3742 1.385 . S
C3744 C3742 1.478 . S
C3744 C3746 1.381 . S
C3744 C3750 1.383 . S
C3745 C3741 1.495 . S
C3745 H3751 0.959 . S
C3745 H3752 0.961 . S
C3745 H3753 0.960 . S
C3746 C3744 1.381 . S
C3746 C3747 1.394 . S
C3746 H3754 0.930 . S
C3747 C3746 1.394 . S
C3747 C3748 1.383 . S
C3747 H3755 0.929 . S
C3748 C3747 1.383 . S
C3748 C3749 1.377 . S
C3749 H3733 0.930 . S
C3749 C3748 1.377 . S
C3749 C3750 1.379 . S
C3750 H3734 0.931 . S
C3750 C3744 1.383 . S
C3750 C3749 1.379 . S
H3751 C3745 0.959 . S
H3752 C3745 0.961 . S
H3753 C3745 0.960 . S
H3754 C3746 0.930 . S
H3755 C3747 0.929 . S
H3756 C3764 0.929 . S
H3757 C3766 0.930 . S
H3758 C3768 0.930 . S
H3759 C3771 0.929 . S
H3760 C3774 0.930 . S
H3761 C3776 0.960 . S
H3762 C3776 0.960 . S
H3763 C3776 0.960 . S
C3764 H3756 0.929 . S
C3764 C3765 1.377 . S
C3764 C3766 1.384 . S
C3765 C3764 1.377 . S
C3765 C3771 1.390 . S
C3766 H3757 0.930 . S
C3766 C3764 1.384 . S
C3766 C3767 1.372 . S
C3767 C3766 1.372 . S
C3767 C3768 1.400 . S
C3767 C3772 1.490 . S
C3768 H3758 0.930 . S
C3768 C3767 1.400 . S
C3768 C3771 1.386 . S
H3769 C3785 0.930 . S
H3770 C3786 0.931 . S
C3771 H3759 0.929 . S
C3771 C3765 1.390 . S
C3771 C3768 1.386 . S
C3772 C3767 1.490 . S
C3772 C3774 1.395 . S
C3772 C3775 1.403 . S
H3773 C3779 0.930 . S
C3774 H3760 0.930 . S
C3774 C3772 1.395 . S
C3774 C3777 1.403 . S
C3775 C3772 1.403 . S
C3775 C3776 1.524 . S
C3775 C3779 1.400 . S
C3776 H3761 0.960 . S
C3776 H3762 0.960 . S
C3776 H3763 0.960 . S
C3776 C3775 1.524 . S
C3777 C3774 1.403 . S
C3777 C3778 1.392 . S
C3777 C3781 1.495 . S
C3778 C3777 1.392 . S
C3778 C3779 1.385 . S
C3778 C3780 1.478 . S
C3779 H3773 0.930 . S
C3779 C3775 1.400 . S
C3779 C3778 1.385 . S
C3780 C3778 1.478 . S
C3780 C3782 1.381 . S
C3780 C3786 1.383 . S
C3781 C3777 1.495 . S
C3781 H3787 0.959 . S
C3781 H3788 0.961 . S
C3781 H3789 0.960 . S
C3782 C3780 1.381 . S
C3782 C3783 1.394 . S
C3782 H3790 0.930 . S
C3783 C3782 1.394 . S
C3783 C3784 1.383 . S
C3783 H3791 0.929 . S
C3784 C3783 1.383 . S
C3784 C3785 1.377 . S
C3785 H3769 0.930 . S
C3785 C3784 1.377 . S
C3785 C3786 1.379 . S
C3786 H3770 0.931 . S
C3786 C3780 1.383 . S
C3786 C3785 1.379 . S
H3787 C3781 0.959 . S
H3788 C3781 0.961 . S
H3789 C3781 0.960 . S
H3790 C3782 0.930 . S
H3791 C3783 0.929 . S
H3792 C3800 0.929 . S
H3793 C3802 0.930 . S
H3794 C3804 0.930 . S
H3795 C3807 0.929 . S
H3796 C3810 0.930 . S
H3797 C3812 0.960 . S
H3798 C3812 0.960 . S
H3799 C3812 0.960 . S
C3800 H3792 0.929 . S
C3800 C3801 1.377 . S
C3800 C3802 1.384 . S
C3801 C3800 1.377 . S
C3801 C3807 1.390 . S
C3802 H3793 0.930 . S
C3802 C3800 1.384 . S
C3802 C3803 1.372 . S
C3803 C3802 1.372 . S
C3803 C3804 1.400 . S
C3803 C3808 1.490 . S
C3804 H3794 0.930 . S
C3804 C3803 1.400 . S
C3804 C3807 1.386 . S
H3805 C3821 0.930 . S
H3806 C3822 0.931 . S
C3807 H3795 0.929 . S
C3807 C3801 1.390 . S
C3807 C3804 1.386 . S
C3808 C3803 1.490 . S
C3808 C3810 1.395 . S
C3808 C3811 1.403 . S
H3809 C3815 0.930 . S
C3810 H3796 0.930 . S
C3810 C3808 1.395 . S
C3810 C3813 1.403 . S
C3811 C3808 1.403 . S
C3811 C3812 1.524 . S
C3811 C3815 1.400 . S
C3812 H3797 0.960 . S
C3812 H3798 0.960 . S
C3812 H3799 0.960 . S
C3812 C3811 1.524 . S
C3813 C3810 1.403 . S
C3813 C3814 1.392 . S
C3813 C3817 1.495 . S
C3814 C3813 1.392 . S
C3814 C3815 1.385 . S
C3814 C3816 1.478 . S
C3815 H3809 0.930 . S
C3815 C3811 1.400 . S
C3815 C3814 1.385 . S
C3816 C3814 1.478 . S
C3816 C3818 1.381 . S
C3816 C3822 1.383 . S
C3817 C3813 1.495 . S
C3817 H3823 0.959 . S
C3817 H3824 0.961 . S
C3817 H3825 0.960 . S
C3818 C3816 1.381 . S
C3818 C3819 1.394 . S
C3818 H3826 0.930 . S
C3819 C3818 1.394 . S
C3819 C3820 1.383 . S
C3819 H3827 0.929 . S
C3820 C3819 1.383 . S
C3820 C3821 1.377 . S
C3821 H3805 0.930 . S
C3821 C3820 1.377 . S
C3821 C3822 1.379 . S
C3822 H3806 0.931 . S
C3822 C3816 1.383 . S
C3822 C3821 1.379 . S
H3823 C3817 0.959 . S
H3824 C3817 0.961 . S
H3825 C3817 0.960 . S
H3826 C3818 0.930 . S
H3827 C3819 0.929 . S
H3828 C3836 0.929 . S
H3829 C3838 0.930 . S
H3830 C3840 0.930 . S
H3831 C3843 0.929 . S
H3832 C3846 0.930 . S
H3833 C3848 0.960 . S
H3834 C3848 0.960 . S
H3835 C3848 0.960 . S
C3836 H3828 0.929 . S
C3836 C3837 1.377 . S
C3836 C3838 1.384 . S
C3837 C3836 1.377 . S
C3837 C3843 1.390 . S
C3838 H3829 0.930 . S
C3838 C3836 1.384 . S
C3838 C3839 1.372 . S
C3839 C3838 1.372 . S
C3839 C3840 1.400 . S
C3839 C3844 1.490 . S
C3840 H3830 0.930 . S
C3840 C3839 1.400 . S
C3840 C3843 1.386 . S
H3841 C3857 0.930 . S
H3842 C3858 0.931 . S
C3843 H3831 0.929 . S
C3843 C3837 1.390 . S
C3843 C3840 1.386 . S
C3844 C3839 1.490 . S
C3844 C3846 1.395 . S
C3844 C3847 1.403 . S
H3845 C3851 0.930 . S
C3846 H3832 0.930 . S
C3846 C3844 1.395 . S
C3846 C3849 1.403 . S
C3847 C3844 1.403 . S
C3847 C3848 1.524 . S
C3847 C3851 1.400 . S
C3848 H3833 0.960 . S
C3848 H3834 0.960 . S
C3848 H3835 0.960 . S
C3848 C3847 1.524 . S
C3849 C3846 1.403 . S
C3849 C3850 1.392 . S
C3849 C3853 1.495 . S
C3850 C3849 1.392 . S
C3850 C3851 1.385 . S
C3850 C3852 1.478 . S
C3851 H3845 0.930 . S
C3851 C3847 1.400 . S
C3851 C3850 1.385 . S
C3852 C3850 1.478 . S
C3852 C3854 1.381 . S
C3852 C3858 1.383 . S
C3853 C3849 1.495 . S
C3853 H3859 0.959 . S
C3853 H3860 0.961 . S
C3853 H3861 0.960 . S
C3854 C3852 1.381 . S
C3854 C3855 1.394 . S
C3854 H3862 0.930 . S
C3855 C3854 1.394 . S
C3855 C3856 1.383 . S
C3855 H3863 0.929 . S
C3856 C3855 1.383 . S
C3856 C3857 1.377 . S
C3857 H3841 0.930 . S
C3857 C3856 1.377 . S
C3857 C3858 1.379 . S
C3858 H3842 0.931 . S
C3858 C3852 1.383 . S
C3858 C3857 1.379 . S
H3859 C3853 0.959 . S
H3860 C3853 0.961 . S
H3861 C3853 0.960 . S
H3862 C3854 0.930 . S
H3863 C3855 0.929 . S
H3864 C3872 0.929 . S
H3865 C3874 0.930 . S
H3866 C3876 0.930 . S
H3867 C3879 0.929 . S
H3868 C3882 0.930 . S
H3869 C3884 0.960 . S
H3870 C3884 0.960 . S
H3871 C3884 0.960 . S
C3872 H3864 0.929 . S
C3872 C3873 1.377 . S
C3872 C3874 1.384 . S
C3873 C3872 1.377 . S
C3873 C3879 1.390 . S
C3874 H3865 0.930 . S
C3874 C3872 1.384 . S
C3874 C3875 1.372 . S
C3875 C3874 1.372 . S
C3875 C3876 1.400 . S
C3875 C3880 1.490 . S
C3876 H3866 0.930 . S
C3876 C3875 1.400 . S
C3876 C3879 1.386 . S
H3877 C3893 0.930 . S
H3878 C3894 0.931 . S
C3879 H3867 0.929 . S
C3879 C3873 1.390 . S
C3879 C3876 1.386 . S
C3880 C3875 1.490 . S
C3880 C3882 1.395 . S
C3880 C3883 1.403 . S
H3881 C3887 0.930 . S
C3882 H3868 0.930 . S
C3882 C3880 1.395 . S
C3882 C3885 1.403 . S
C3883 C3880 1.403 . S
C3883 C3884 1.524 . S
C3883 C3887 1.400 . S
C3884 H3869 0.960 . S
C3884 H3870 0.960 . S
C3884 H3871 0.960 . S
C3884 C3883 1.524 . S
C3885 C3882 1.403 . S
C3885 C3886 1.392 . S
C3885 C3889 1.495 . S
C3886 C3885 1.392 . S
C3886 C3887 1.385 . S
C3886 C3888 1.478 . S
C3887 H3881 0.930 . S
C3887 C3883 1.400 . S
C3887 C3886 1.385 . S
C3888 C3886 1.478 . S
C3888 C3890 1.381 . S
C3888 C3894 1.383 . S
C3889 C3885 1.495 . S
C3889 H3895 0.959 . S
C3889 H3896 0.961 . S
C3889 H3897 0.960 . S
C3890 C3888 1.381 . S
C3890 C3891 1.394 . S
C3890 H3898 0.930 . S
C3891 C3890 1.394 . S
C3891 C3892 1.383 . S
C3891 H3899 0.929 . S
C3892 C3891 1.383 . S
C3892 C3893 1.377 . S
C3893 H3877 0.930 . S
C3893 C3892 1.377 . S
C3893 C3894 1.379 . S
C3894 H3878 0.931 . S
C3894 C3888 1.383 . S
C3894 C3893 1.379 . S
H3895 C3889 0.959 . S
H3896 C3889 0.961 . S
H3897 C3889 0.960 . S
H3898 C3890 0.930 . S
H3899 C3891 0.929 . S
H3900 C3908 0.929 . S
H3901 C3910 0.930 . S
H3902 C3912 0.930 . S
H3903 C3915 0.929 . S
H3904 C3918 0.930 . S
H3905 C3920 0.960 . S
H3906 C3920 0.960 . S
H3907 C3920 0.960 . S
C3908 H3900 0.929 . S
C3908 C3909 1.377 . S
C3908 C3910 1.384 . S
C3909 C3908 1.377 . S
C3909 C3915 1.390 . S
C3910 H3901 0.930 . S
C3910 C3908 1.384 . S
C3910 C3911 1.372 . S
C3911 C3910 1.372 . S
C3911 C3912 1.400 . S
C3911 C3916 1.490 . S
C3912 H3902 0.930 . S
C3912 C3911 1.400 . S
C3912 C3915 1.386 . S
H3913 C3929 0.930 . S
H3914 C3930 0.931 . S
C3915 H3903 0.929 . S
C3915 C3909 1.390 . S
C3915 C3912 1.386 . S
C3916 C3911 1.490 . S
C3916 C3918 1.395 . S
C3916 C3919 1.403 . S
H3917 C3923 0.930 . S
C3918 H3904 0.930 . S
C3918 C3916 1.395 . S
C3918 C3921 1.403 . S
C3919 C3916 1.403 . S
C3919 C3920 1.524 . S
C3919 C3923 1.400 . S
C3920 H3905 0.960 . S
C3920 H3906 0.960 . S
C3920 H3907 0.960 . S
C3920 C3919 1.524 . S
C3921 C3918 1.403 . S
C3921 C3922 1.392 . S
C3921 C3925 1.495 . S
C3922 C3921 1.392 . S
C3922 C3923 1.385 . S
C3922 C3924 1.478 . S
C3923 H3917 0.930 . S
C3923 C3919 1.400 . S
C3923 C3922 1.385 . S
C3924 C3922 1.478 . S
C3924 C3926 1.381 . S
C3924 C3930 1.383 . S
C3925 C3921 1.495 . S
C3925 H3931 0.959 . S
C3925 H3932 0.961 . S
C3925 H3933 0.960 . S
C3926 C3924 1.381 . S
C3926 C3927 1.394 . S
C3926 H3934 0.930 . S
C3927 C3926 1.394 . S
C3927 C3928 1.383 . S
C3927 H3935 0.929 . S
C3928 C3927 1.383 . S
C3928 C3929 1.377 . S
C3929 H3913 0.930 . S
C3929 C3928 1.377 . S
C3929 C3930 1.379 . S
C3930 H3914 0.931 . S
C3930 C3924 1.383 . S
C3930 C3929 1.379 . S
H3931 C3925 0.959 . S
H3932 C3925 0.961 . S
H3933 C3925 0.960 . S
H3934 C3926 0.930 . S
H3935 C3927 0.929 . S
H3936 C3944 0.929 . S
H3937 C3946 0.930 . S
H3938 C3948 0.930 . S
H3939 C3951 0.929 . S
H3940 C3954 0.930 . S
H3941 C3956 0.960 . S
H3942 C3956 0.960 . S
H3943 C3956 0.960 . S
C3944 H3936 0.929 . S
C3944 C3945 1.377 . S
C3944 C3946 1.384 . S
C3945 C3944 1.377 . S
C3945 C3951 1.390 . S
C3946 H3937 0.930 . S
C3946 C3944 1.384 . S
C3946 C3947 1.372 . S
C3947 C3946 1.372 . S
C3947 C3948 1.400 . S
C3947 C3952 1.490 . S
C3948 H3938 0.930 . S
C3948 C3947 1.400 . S
C3948 C3951 1.386 . S
H3949 C3965 0.930 . S
H3950 C3966 0.931 . S
C3951 H3939 0.929 . S
C3951 C3945 1.390 . S
C3951 C3948 1.386 . S
C3952 C3947 1.490 . S
C3952 C3954 1.395 . S
C3952 C3955 1.403 . S
H3953 C3959 0.930 . S
C3954 H3940 0.930 . S
C3954 C3952 1.395 . S
C3954 C3957 1.403 . S
C3955 C3952 1.403 . S
C3955 C3956 1.524 . S
C3955 C3959 1.400 . S
C3956 H3941 0.960 . S
C3956 H3942 0.960 . S
C3956 H3943 0.960 . S
C3956 C3955 1.524 . S
C3957 C3954 1.403 . S
C3957 C3958 1.392 . S
C3957 C3961 1.495 . S
C3958 C3957 1.392 . S
C3958 C3959 1.385 . S
C3958 C3960 1.478 . S
C3959 H3953 0.930 . S
C3959 C3955 1.400 . S
C3959 C3958 1.385 . S
C3960 C3958 1.478 . S
C3960 C3962 1.381 . S
C3960 C3966 1.383 . S
C3961 C3957 1.495 . S
C3961 H3967 0.959 . S
C3961 H3968 0.961 . S
C3961 H3969 0.960 . S
C3962 C3960 1.381 . S
C3962 C3963 1.394 . S
C3962 H3970 0.930 . S
C3963 C3962 1.394 . S
C3963 C3964 1.383 . S
C3963 H3971 0.929 . S
C3964 C3963 1.383 . S
C3964 C3965 1.377 . S
C3965 H3949 0.930 . S
C3965 C3964 1.377 . S
C3965 C3966 1.379 . S
C3966 H3950 0.931 . S
C3966 C3960 1.383 . S
C3966 C3965 1.379 . S
H3967 C3961 0.959 . S
H3968 C3961 0.961 . S
H3969 C3961 0.960 . S
H3970 C3962 0.930 . S
H3971 C3963 0.929 . S
H3972 C3980 0.929 . S
H3973 C3982 0.930 . S
H3974 C3984 0.930 . S
H3975 C3987 0.929 . S
H3976 C3990 0.930 . S
H3977 C3992 0.960 . S
H3978 C3992 0.960 . S
H3979 C3992 0.960 . S
C3980 H3972 0.929 . S
C3980 C3981 1.377 . S
C3980 C3982 1.384 . S
C3981 C3980 1.377 . S
C3981 C3987 1.390 . S
C3982 H3973 0.930 . S
C3982 C3980 1.384 . S
C3982 C3983 1.372 . S
C3983 C3982 1.372 . S
C3983 C3984 1.400 . S
C3983 C3988 1.490 . S
C3984 H3974 0.930 . S
C3984 C3983 1.400 . S
C3984 C3987 1.386 . S
H3985 C4001 0.930 . S
H3986 C4002 0.931 . S
C3987 H3975 0.929 . S
C3987 C3981 1.390 . S
C3987 C3984 1.386 . S
C3988 C3983 1.490 . S
C3988 C3990 1.395 . S
C3988 C3991 1.403 . S
H3989 C3995 0.930 . S
C3990 H3976 0.930 . S
C3990 C3988 1.395 . S
C3990 C3993 1.403 . S
C3991 C3988 1.403 . S
C3991 C3992 1.524 . S
C3991 C3995 1.400 . S
C3992 H3977 0.960 . S
C3992 H3978 0.960 . S
C3992 H3979 0.960 . S
C3992 C3991 1.524 . S
C3993 C3990 1.403 . S
C3993 C3994 1.392 . S
C3993 C3997 1.495 . S
C3994 C3993 1.392 . S
C3994 C3995 1.385 . S
C3994 C3996 1.478 . S
C3995 H3989 0.930 . S
C3995 C3991 1.400 . S
C3995 C3994 1.385 . S
C3996 C3994 1.478 . S
C3996 C3998 1.381 . S
C3996 C4002 1.383 . S
C3997 C3993 1.495 . S
C3997 H4003 0.959 . S
C3997 H4004 0.961 . S
C3997 H4005 0.960 . S
C3998 C3996 1.381 . S
C3998 C3999 1.394 . S
C3998 H4006 0.930 . S
C3999 C3998 1.394 . S
C3999 C4000 1.383 . S
C3999 H4007 0.929 . S
C4000 C3999 1.383 . S
C4000 C4001 1.377 . S
C4001 H3985 0.930 . S
C4001 C4000 1.377 . S
C4001 C4002 1.379 . S
C4002 H3986 0.931 . S
C4002 C3996 1.383 . S
C4002 C4001 1.379 . S
H4003 C3997 0.959 . S
H4004 C3997 0.961 . S
H4005 C3997 0.960 . S
H4006 C3998 0.930 . S
H4007 C3999 0.929 . S
H4008 C4016 0.929 . S
H4009 C4018 0.930 . S
H4010 C4020 0.930 . S
H4011 C4023 0.929 . S
H4012 C4026 0.930 . S
H4013 C4028 0.960 . S
H4014 C4028 0.960 . S
H4015 C4028 0.960 . S
C4016 H4008 0.929 . S
C4016 C4017 1.377 . S
C4016 C4018 1.384 . S
C4017 C4016 1.377 . S
C4017 C4023 1.390 . S
C4018 H4009 0.930 . S
C4018 C4016 1.384 . S
C4018 C4019 1.372 . S
C4019 C4018 1.372 . S
C4019 C4020 1.400 . S
C4019 C4024 1.490 . S
C4020 H4010 0.930 . S
C4020 C4019 1.400 . S
C4020 C4023 1.386 . S
H4021 C4037 0.930 . S
H4022 C4038 0.931 . S
C4023 H4011 0.929 . S
C4023 C4017 1.390 . S
C4023 C4020 1.386 . S
C4024 C4019 1.490 . S
C4024 C4026 1.395 . S
C4024 C4027 1.403 . S
H4025 C4031 0.930 . S
C4026 H4012 0.930 . S
C4026 C4024 1.395 . S
C4026 C4029 1.403 . S
C4027 C4024 1.403 . S
C4027 C4028 1.524 . S
C4027 C4031 1.400 . S
C4028 H4013 0.960 . S
C4028 H4014 0.960 . S
C4028 H4015 0.960 . S
C4028 C4027 1.524 . S
C4029 C4026 1.403 . S
C4029 C4030 1.392 . S
C4029 C4033 1.495 . S
C4030 C4029 1.392 . S
C4030 C4031 1.385 . S
C4030 C4032 1.478 . S
C4031 H4025 0.930 . S
C4031 C4027 1.400 . S
C4031 C4030 1.385 . S
C4032 C4030 1.478 . S
C4032 C4034 1.381 . S
C4032 C4038 1.383 . S
C4033 C4029 1.495 . S
C4033 H4039 0.959 . S
C4033 H4040 0.961 . S
C4033 H4041 0.960 . S
C4034 C4032 1.381 . S
C4034 C4035 1.394 . S
C4034 H4042 0.930 . S
C4035 C4034 1.394 . S
C4035 C4036 1.383 . S
C4035 H4043 0.929 . S
C4036 C4035 1.383 . S
C4036 C4037 1.377 . S
C4037 H4021 0.930 . S
C4037 C4036 1.377 . S
C4037 C4038 1.379 . S
C4038 H4022 0.931 . S
C4038 C4032 1.383 . S
C4038 C4037 1.379 . S
H4039 C4033 0.959 . S
H4040 C4033 0.961 . S
H4041 C4033 0.960 . S
H4042 C4034 0.930 . S
H4043 C4035 0.929 . S
H4044 C4052 0.929 . S
H4045 C4054 0.930 . S
H4046 C4056 0.930 . S
H4047 C4059 0.929 . S
H4048 C4062 0.930 . S
H4049 C4064 0.960 . S
H4050 C4064 0.960 . S
H4051 C4064 0.960 . S
C4052 H4044 0.929 . S
C4052 C4053 1.377 . S
C4052 C4054 1.384 . S
C4053 C4052 1.377 . S
C4053 C4059 1.390 . S
C4054 H4045 0.930 . S
C4054 C4052 1.384 . S
C4054 C4055 1.372 . S
C4055 C4054 1.372 . S
C4055 C4056 1.400 . S
C4055 C4060 1.490 . S
C4056 H4046 0.930 . S
C4056 C4055 1.400 . S
C4056 C4059 1.386 . S
H4057 C4073 0.930 . S
H4058 C4074 0.931 . S
C4059 H4047 0.929 . S
C4059 C4053 1.390 . S
C4059 C4056 1.386 . S
C4060 C4055 1.490 . S
C4060 C4062 1.395 . S
C4060 C4063 1.403 . S
H4061 C4067 0.930 . S
C4062 H4048 0.930 . S
C4062 C4060 1.395 . S
C4062 C4065 1.403 . S
C4063 C4060 1.403 . S
C4063 C4064 1.524 . S
C4063 C4067 1.400 . S
C4064 H4049 0.960 . S
C4064 H4050 0.960 . S
C4064 H4051 0.960 . S
C4064 C4063 1.524 . S
C4065 C4062 1.403 . S
C4065 C4066 1.392 . S
C4065 C4069 1.495 . S
C4066 C4065 1.392 . S
C4066 C4067 1.385 . S
C4066 C4068 1.478 . S
C4067 H4061 0.930 . S
C4067 C4063 1.400 . S
C4067 C4066 1.385 . S
C4068 C4066 1.478 . S
C4068 C4070 1.381 . S
C4068 C4074 1.383 . S
C4069 C4065 1.495 . S
C4069 H4075 0.959 . S
C4069 H4076 0.961 . S
C4069 H4077 0.960 . S
C4070 C4068 1.381 . S
C4070 C4071 1.394 . S
C4070 H4078 0.930 . S
C4071 C4070 1.394 . S
C4071 C4072 1.383 . S
C4071 H4079 0.929 . S
C4072 C4071 1.383 . S
C4072 C4073 1.377 . S
C4073 H4057 0.930 . S
C4073 C4072 1.377 . S
C4073 C4074 1.379 . S
C4074 H4058 0.931 . S
C4074 C4068 1.383 . S
C4074 C4073 1.379 . S
H4075 C4069 0.959 . S
H4076 C4069 0.961 . S
H4077 C4069 0.960 . S
H4078 C4070 0.930 . S
H4079 C4071 0.929 . S
H4080 C4088 0.929 . S
H4081 C4090 0.930 . S
H4082 C4092 0.930 . S
H4083 C4095 0.929 . S
H4084 C4098 0.930 . S
H4085 C4100 0.960 . S
H4086 C4100 0.960 . S
H4087 C4100 0.960 . S
C4088 H4080 0.929 . S
C4088 C4089 1.377 . S
C4088 C4090 1.384 . S
C4089 C4088 1.377 . S
C4089 C4095 1.390 . S
C4090 H4081 0.930 . S
C4090 C4088 1.384 . S
C4090 C4091 1.372 . S
C4091 C4090 1.372 . S
C4091 C4092 1.400 . S
C4091 C4096 1.490 . S
C4092 H4082 0.930 . S
C4092 C4091 1.400 . S
C4092 C4095 1.386 . S
H4093 C4109 0.930 . S
H4094 C4110 0.931 . S
C4095 H4083 0.929 . S
C4095 C4089 1.390 . S
C4095 C4092 1.386 . S
C4096 C4091 1.490 . S
C4096 C4098 1.395 . S
C4096 C4099 1.403 . S
H4097 C4103 0.930 . S
C4098 H4084 0.930 . S
C4098 C4096 1.395 . S
C4098 C4101 1.403 . S
C4099 C4096 1.403 . S
C4099 C4100 1.524 . S
C4099 C4103 1.400 . S
C4100 H4085 0.960 . S
C4100 H4086 0.960 . S
C4100 H4087 0.960 . S
C4100 C4099 1.524 . S
C4101 C4098 1.403 . S
C4101 C4102 1.392 . S
C4101 C4105 1.495 . S
C4102 C4101 1.392 . S
C4102 C4103 1.385 . S
C4102 C4104 1.478 . S
C4103 H4097 0.930 . S
C4103 C4099 1.400 . S
C4103 C4102 1.385 . S
C4104 C4102 1.478 . S
C4104 C4106 1.381 . S
C4104 C4110 1.383 . S
C4105 C4101 1.495 . S
C4105 H4111 0.959 . S
C4105 H4112 0.961 . S
C4105 H4113 0.960 . S
C4106 C4104 1.381 . S
C4106 C4107 1.394 . S
C4106 H4114 0.930 . S
C4107 C4106 1.394 . S
C4107 C4108 1.383 . S
C4107 H4115 0.929 . S
C4108 C4107 1.383 . S
C4108 C4109 1.377 . S
C4109 H4093 0.930 . S
C4109 C4108 1.377 . S
C4109 C4110 1.379 . S
C4110 H4094 0.931 . S
C4110 C4104 1.383 . S
C4110 C4109 1.379 . S
H4111 C4105 0.959 . S
H4112 C4105 0.961 . S
H4113 C4105 0.960 . S
H4114 C4106 0.930 . S
H4115 C4107 0.929 . S
H4116 C4124 0.929 . S
H4117 C4126 0.930 . S
H4118 C4128 0.930 . S
H4119 C4131 0.929 . S
H4120 C4134 0.930 . S
H4121 C4136 0.960 . S
H4122 C4136 0.960 . S
H4123 C4136 0.960 . S
C4124 H4116 0.929 . S
C4124 C4125 1.377 . S
C4124 C4126 1.384 . S
C4125 C4124 1.377 . S
C4125 C4131 1.390 . S
C4126 H4117 0.930 . S
C4126 C4124 1.384 . S
C4126 C4127 1.372 . S
C4127 C4126 1.372 . S
C4127 C4128 1.400 . S
C4127 C4132 1.490 . S
C4128 H4118 0.930 . S
C4128 C4127 1.400 . S
C4128 C4131 1.386 . S
H4129 C4145 0.930 . S
H4130 C4146 0.931 . S
C4131 H4119 0.929 . S
C4131 C4125 1.390 . S
C4131 C4128 1.386 . S
C4132 C4127 1.490 . S
C4132 C4134 1.395 . S
C4132 C4135 1.403 . S
H4133 C4139 0.930 . S
C4134 H4120 0.930 . S
C4134 C4132 1.395 . S
C4134 C4137 1.403 . S
C4135 C4132 1.403 . S
C4135 C4136 1.524 . S
C4135 C4139 1.400 . S
C4136 H4121 0.960 . S
C4136 H4122 0.960 . S
C4136 H4123 0.960 . S
C4136 C4135 1.524 . S
C4137 C4134 1.403 . S
C4137 C4138 1.392 . S
C4137 C4141 1.495 . S
C4138 C4137 1.392 . S
C4138 C4139 1.385 . S
C4138 C4140 1.478 . S
C4139 H4133 0.930 . S
C4139 C4135 1.400 . S
C4139 C4138 1.385 . S
C4140 C4138 1.478 . S
C4140 C4142 1.381 . S
C4140 C4146 1.383 . S
C4141 C4137 1.495 . S
C4141 H4147 0.959 . S
C4141 H4148 0.961 . S
C4141 H4149 0.960 . S
C4142 C4140 1.381 . S
C4142 C4143 1.394 . S
C4142 H4150 0.930 . S
C4143 C4142 1.394 . S
C4143 C4144 1.383 . S
C4143 H4151 0.929 . S
C4144 C4143 1.383 . S
C4144 C4145 1.377 . S
C4145 H4129 0.930 . S
C4145 C4144 1.377 . S
C4145 C4146 1.379 . S
C4146 H4130 0.931 . S
C4146 C4140 1.383 . S
C4146 C4145 1.379 . S
H4147 C4141 0.959 . S
H4148 C4141 0.961 . S
H4149 C4141 0.960 . S
H4150 C4142 0.930 . S
H4151 C4143 0.929 . S
H4152 C4160 0.929 . S
H4153 C4162 0.930 . S
H4154 C4164 0.930 . S
H4155 C4167 0.929 . S
H4156 C4170 0.930 . S
H4157 C4172 0.960 . S
H4158 C4172 0.960 . S
H4159 C4172 0.960 . S
C4160 H4152 0.929 . S
C4160 C4161 1.377 . S
C4160 C4162 1.384 . S
C4161 C4160 1.377 . S
C4161 C4167 1.390 . S
C4162 H4153 0.930 . S
C4162 C4160 1.384 . S
C4162 C4163 1.372 . S
C4163 C4162 1.372 . S
C4163 C4164 1.400 . S
C4163 C4168 1.490 . S
C4164 H4154 0.930 . S
C4164 C4163 1.400 . S
C4164 C4167 1.386 . S
H4165 C4181 0.930 . S
H4166 C4182 0.931 . S
C4167 H4155 0.929 . S
C4167 C4161 1.390 . S
C4167 C4164 1.386 . S
C4168 C4163 1.490 . S
C4168 C4170 1.395 . S
C4168 C4171 1.403 . S
H4169 C4175 0.930 . S
C4170 H4156 0.930 . S
C4170 C4168 1.395 . S
C4170 C4173 1.403 . S
C4171 C4168 1.403 . S
C4171 C4172 1.524 . S
C4171 C4175 1.400 . S
C4172 H4157 0.960 . S
C4172 H4158 0.960 . S
C4172 H4159 0.960 . S
C4172 C4171 1.524 . S
C4173 C4170 1.403 . S
C4173 C4174 1.392 . S
C4173 C4177 1.495 . S
C4174 C4173 1.392 . S
C4174 C4175 1.385 . S
C4174 C4176 1.478 . S
C4175 H4169 0.930 . S
C4175 C4171 1.400 . S
C4175 C4174 1.385 . S
C4176 C4174 1.478 . S
C4176 C4178 1.381 . S
C4176 C4182 1.383 . S
C4177 C4173 1.495 . S
C4177 H4183 0.959 . S
C4177 H4184 0.961 . S
C4177 H4185 0.960 . S
C4178 C4176 1.381 . S
C4178 C4179 1.394 . S
C4178 H4186 0.930 . S
C4179 C4178 1.394 . S
C4179 C4180 1.383 . S
C4179 H4187 0.929 . S
C4180 C4179 1.383 . S
C4180 C4181 1.377 . S
C4181 H4165 0.930 . S
C4181 C4180 1.377 . S
C4181 C4182 1.379 . S
C4182 H4166 0.931 . S
C4182 C4176 1.383 . S
C4182 C4181 1.379 . S
H4183 C4177 0.959 . S
H4184 C4177 0.961 . S
H4185 C4177 0.960 . S
H4186 C4178 0.930 . S
H4187 C4179 0.929 . S
H4188 C4196 0.929 . S
H4189 C4198 0.930 . S
H4190 C4200 0.930 . S
H4191 C4203 0.929 . S
H4192 C4206 0.930 . S
H4193 C4208 0.960 . S
H4194 C4208 0.960 . S
H4195 C4208 0.960 . S
C4196 H4188 0.929 . S
C4196 C4197 1.377 . S
C4196 C4198 1.384 . S
C4197 C4196 1.377 . S
C4197 C4203 1.390 . S
C4198 H4189 0.930 . S
C4198 C4196 1.384 . S
C4198 C4199 1.372 . S
C4199 C4198 1.372 . S
C4199 C4200 1.400 . S
C4199 C4204 1.490 . S
C4200 H4190 0.930 . S
C4200 C4199 1.400 . S
C4200 C4203 1.386 . S
H4201 C4217 0.930 . S
H4202 C4218 0.931 . S
C4203 H4191 0.929 . S
C4203 C4197 1.390 . S
C4203 C4200 1.386 . S
C4204 C4199 1.490 . S
C4204 C4206 1.395 . S
C4204 C4207 1.403 . S
H4205 C4211 0.930 . S
C4206 H4192 0.930 . S
C4206 C4204 1.395 . S
C4206 C4209 1.403 . S
C4207 C4204 1.403 . S
C4207 C4208 1.524 . S
C4207 C4211 1.400 . S
C4208 H4193 0.960 . S
C4208 H4194 0.960 . S
C4208 H4195 0.960 . S
C4208 C4207 1.524 . S
C4209 C4206 1.403 . S
C4209 C4210 1.392 . S
C4209 C4213 1.495 . S
C4210 C4209 1.392 . S
C4210 C4211 1.385 . S
C4210 C4212 1.478 . S
C4211 H4205 0.930 . S
C4211 C4207 1.400 . S
C4211 C4210 1.385 . S
C4212 C4210 1.478 . S
C4212 C4214 1.381 . S
C4212 C4218 1.383 . S
C4213 C4209 1.495 . S
C4213 H4219 0.959 . S
C4213 H4220 0.961 . S
C4213 H4221 0.960 . S
C4214 C4212 1.381 . S
C4214 C4215 1.394 . S
C4214 H4222 0.930 . S
C4215 C4214 1.394 . S
C4215 C4216 1.383 . S
C4215 H4223 0.929 . S
C4216 C4215 1.383 . S
C4216 C4217 1.377 . S
C4217 H4201 0.930 . S
C4217 C4216 1.377 . S
C4217 C4218 1.379 . S
C4218 H4202 0.931 . S
C4218 C4212 1.383 . S
C4218 C4217 1.379 . S
H4219 C4213 0.959 . S
H4220 C4213 0.961 . S
H4221 C4213 0.960 . S
H4222 C4214 0.930 . S
H4223 C4215 0.929 . S
H4224 C4232 0.929 . S
H4225 C4234 0.930 . S
H4226 C4236 0.930 . S
H4227 C4239 0.929 . S
H4228 C4242 0.930 . S
H4229 C4244 0.960 . S
H4230 C4244 0.960 . S
H4231 C4244 0.960 . S
C4232 H4224 0.929 . S
C4232 C4233 1.377 . S
C4232 C4234 1.384 . S
C4233 C4232 1.377 . S
C4233 C4239 1.390 . S
C4234 H4225 0.930 . S
C4234 C4232 1.384 . S
C4234 C4235 1.372 . S
C4235 C4234 1.372 . S
C4235 C4236 1.400 . S
C4235 C4240 1.490 . S
C4236 H4226 0.930 . S
C4236 C4235 1.400 . S
C4236 C4239 1.386 . S
H4237 C4253 0.930 . S
H4238 C4254 0.931 . S
C4239 H4227 0.929 . S
C4239 C4233 1.390 . S
C4239 C4236 1.386 . S
C4240 C4235 1.490 . S
C4240 C4242 1.395 . S
C4240 C4243 1.403 . S
H4241 C4247 0.930 . S
C4242 H4228 0.930 . S
C4242 C4240 1.395 . S
C4242 C4245 1.403 . S
C4243 C4240 1.403 . S
C4243 C4244 1.524 . S
C4243 C4247 1.400 . S
C4244 H4229 0.960 . S
C4244 H4230 0.960 . S
C4244 H4231 0.960 . S
C4244 C4243 1.524 . S
C4245 C4242 1.403 . S
C4245 C4246 1.392 . S
C4245 C4249 1.495 . S
C4246 C4245 1.392 . S
C4246 C4247 1.385 . S
C4246 C4248 1.478 . S
C4247 H4241 0.930 . S
C4247 C4243 1.400 . S
C4247 C4246 1.385 . S
C4248 C4246 1.478 . S
C4248 C4250 1.381 . S
C4248 C4254 1.383 . S
C4249 C4245 1.495 . S
C4249 H4255 0.959 . S
C4249 H4256 0.961 . S
C4249 H4257 0.960 . S
C4250 C4248 1.381 . S
C4250 C4251 1.394 . S
C4250 H4258 0.930 . S
C4251 C4250 1.394 . S
C4251 C4252 1.383 . S
C4251 H4259 0.929 . S
C4252 C4251 1.383 . S
C4252 C4253 1.377 . S
C4253 H4237 0.930 . S
C4253 C4252 1.377 . S
C4253 C4254 1.379 . S
C4254 H4238 0.931 . S
C4254 C4248 1.383 . S
C4254 C4253 1.379 . S
H4255 C4249 0.959 . S
H4256 C4249 0.961 . S
H4257 C4249 0.960 . S
H4258 C4250 0.930 . S
H4259 C4251 0.929 . S
H4260 C4268 0.929 . S
H4261 C4270 0.930 . S
H4262 C4272 0.930 . S
H4263 C4275 0.929 . S
H4264 C4278 0.930 . S
H4265 C4280 0.960 . S
H4266 C4280 0.960 . S
H4267 C4280 0.960 . S
C4268 H4260 0.929 . S
C4268 C4269 1.377 . S
C4268 C4270 1.384 . S
C4269 C4268 1.377 . S
C4269 C4275 1.390 . S
C4270 H4261 0.930 . S
C4270 C4268 1.384 . S
C4270 C4271 1.372 . S
C4271 C4270 1.372 . S
C4271 C4272 1.400 . S
C4271 C4276 1.490 . S
C4272 H4262 0.930 . S
C4272 C4271 1.400 . S
C4272 C4275 1.386 . S
H4273 C4289 0.930 . S
H4274 C4290 0.931 . S
C4275 H4263 0.929 . S
C4275 C4269 1.390 . S
C4275 C4272 1.386 . S
C4276 C4271 1.490 . S
C4276 C4278 1.395 . S
C4276 C4279 1.403 . S
H4277 C4283 0.930 . S
C4278 H4264 0.930 . S
C4278 C4276 1.395 . S
C4278 C4281 1.403 . S
C4279 C4276 1.403 . S
C4279 C4280 1.524 . S
C4279 C4283 1.400 . S
C4280 H4265 0.960 . S
C4280 H4266 0.960 . S
C4280 H4267 0.960 . S
C4280 C4279 1.524 . S
C4281 C4278 1.403 . S
C4281 C4282 1.392 . S
C4281 C4285 1.495 . S
C4282 C4281 1.392 . S
C4282 C4283 1.385 . S
C4282 C4284 1.478 . S
C4283 H4277 0.930 . S
C4283 C4279 1.400 . S
C4283 C4282 1.385 . S
C4284 C4282 1.478 . S
C4284 C4286 1.381 . S
C4284 C4290 1.383 . S
C4285 C4281 1.495 . S
C4285 H4291 0.959 . S
C4285 H4292 0.961 . S
C4285 H4293 0.960 . S
C4286 C4284 1.381 . S
C4286 C4287 1.394 . S
C4286 H4294 0.930 . S
C4287 C4286 1.394 . S
C4287 C4288 1.383 . S
C4287 H4295 0.929 . S
C4288 C4287 1.383 . S
C4288 C4289 1.377 . S
C4289 H4273 0.930 . S
C4289 C4288 1.377 . S
C4289 C4290 1.379 . S
C4290 H4274 0.931 . S
C4290 C4284 1.383 . S
C4290 C4289 1.379 . S
H4291 C4285 0.959 . S
H4292 C4285 0.961 . S
H4293 C4285 0.960 . S
H4294 C4286 0.930 . S
H4295 C4287 0.929 . S
H4296 C4304 0.929 . S
H4297 C4306 0.930 . S
H4298 C4308 0.930 . S
H4299 C4311 0.929 . S
H4300 C4314 0.930 . S
H4301 C4316 0.960 . S
H4302 C4316 0.960 . S
H4303 C4316 0.960 . S
C4304 H4296 0.929 . S
C4304 C4305 1.377 . S
C4304 C4306 1.384 . S
C4305 C4304 1.377 . S
C4305 C4311 1.390 . S
C4306 H4297 0.930 . S
C4306 C4304 1.384 . S
C4306 C4307 1.372 . S
C4307 C4306 1.372 . S
C4307 C4308 1.400 . S
C4307 C4312 1.490 . S
C4308 H4298 0.930 . S
C4308 C4307 1.400 . S
C4308 C4311 1.386 . S
H4309 C4325 0.930 . S
H4310 C4326 0.931 . S
C4311 H4299 0.929 . S
C4311 C4305 1.390 . S
C4311 C4308 1.386 . S
C4312 C4307 1.490 . S
C4312 C4314 1.395 . S
C4312 C4315 1.403 . S
H4313 C4319 0.930 . S
C4314 H4300 0.930 . S
C4314 C4312 1.395 . S
C4314 C4317 1.403 . S
C4315 C4312 1.403 . S
C4315 C4316 1.524 . S
C4315 C4319 1.400 . S
C4316 H4301 0.960 . S
C4316 H4302 0.960 . S
C4316 H4303 0.960 . S
C4316 C4315 1.524 . S
C4317 C4314 1.403 . S
C4317 C4318 1.392 . S
C4317 C4321 1.495 . S
C4318 C4317 1.392 . S
C4318 C4319 1.385 . S
C4318 C4320 1.478 . S
C4319 H4313 0.930 . S
C4319 C4315 1.400 . S
C4319 C4318 1.385 . S
C4320 C4318 1.478 . S
C4320 C4322 1.381 . S
C4320 C4326 1.383 . S
C4321 C4317 1.495 . S
C4321 H4327 0.959 . S
C4321 H4328 0.961 . S
C4321 H4329 0.960 . S
C4322 C4320 1.381 . S
C4322 C4323 1.394 . S
C4322 H4330 0.930 . S
C4323 C4322 1.394 . S
C4323 C4324 1.383 . S
C4323 H4331 0.929 . S
C4324 C4323 1.383 . S
C4324 C4325 1.377 . S
C4325 H4309 0.930 . S
C4325 C4324 1.377 . S
C4325 C4326 1.379 . S
C4326 H4310 0.931 . S
C4326 C4320 1.383 . S
C4326 C4325 1.379 . S
H4327 C4321 0.959 . S
H4328 C4321 0.961 . S
H4329 C4321 0.960 . S
H4330 C4322 0.930 . S
H4331 C4323 0.929 . S
H4332 C4340 0.929 . S
H4333 C4342 0.930 . S
H4334 C4344 0.930 . S
H4335 C4347 0.929 . S
H4336 C4350 0.930 . S
H4337 C4352 0.960 . S
H4338 C4352 0.960 . S
H4339 C4352 0.960 . S
C4340 H4332 0.929 . S
C4340 C4341 1.377 . S
C4340 C4342 1.384 . S
C4341 C4340 1.377 . S
C4341 C4347 1.390 . S
C4342 H4333 0.930 . S
C4342 C4340 1.384 . S
C4342 C4343 1.372 . S
C4343 C4342 1.372 . S
C4343 C4344 1.400 . S
C4343 C4348 1.490 . S
C4344 H4334 0.930 . S
C4344 C4343 1.400 . S
C4344 C4347 1.386 . S
H4345 C4361 0.930 . S
H4346 C4362 0.931 . S
C4347 H4335 0.929 . S
C4347 C4341 1.390 . S
C4347 C4344 1.386 . S
C4348 C4343 1.490 . S
C4348 C4350 1.395 . S
C4348 C4351 1.403 . S
H4349 C4355 0.930 . S
C4350 H4336 0.930 . S
C4350 C4348 1.395 . S
C4350 C4353 1.403 . S
C4351 C4348 1.403 . S
C4351 C4352 1.524 . S
C4351 C4355 1.400 . S
C4352 H4337 0.960 . S
C4352 H4338 0.960 . S
C4352 H4339 0.960 . S
C4352 C4351 1.524 . S
C4353 C4350 1.403 . S
C4353 C4354 1.392 . S
C4353 C4357 1.495 . S
C4354 C4353 1.392 . S
C4354 C4355 1.385 . S
C4354 C4356 1.478 . S
C4355 H4349 0.930 . S
C4355 C4351 1.400 . S
C4355 C4354 1.385 . S
C4356 C4354 1.478 . S
C4356 C4358 1.381 . S
C4356 C4362 1.383 . S
C4357 C4353 1.495 . S
C4357 H4363 0.959 . S
C4357 H4364 0.961 . S
C4357 H4365 0.960 . S
C4358 C4356 1.381 . S
C4358 C4359 1.394 . S
C4358 H4366 0.930 . S
C4359 C4358 1.394 . S
C4359 C4360 1.383 . S
C4359 H4367 0.929 . S
C4360 C4359 1.383 . S
C4360 C4361 1.377 . S
C4361 H4345 0.930 . S
C4361 C4360 1.377 . S
C4361 C4362 1.379 . S
C4362 H4346 0.931 . S
C4362 C4356 1.383 . S
C4362 C4361 1.379 . S
H4363 C4357 0.959 . S
H4364 C4357 0.961 . S
H4365 C4357 0.960 . S
H4366 C4358 0.930 . S
H4367 C4359 0.929 . S
H4368 C4376 0.929 . S
H4369 C4378 0.930 . S
H4370 C4380 0.930 . S
H4371 C4383 0.929 . S
H4372 C4386 0.930 . S
H4373 C4388 0.960 . S
H4374 C4388 0.960 . S
H4375 C4388 0.960 . S
C4376 H4368 0.929 . S
C4376 C4377 1.377 . S
C4376 C4378 1.384 . S
C4377 C4376 1.377 . S
C4377 C4383 1.390 . S
C4378 H4369 0.930 . S
C4378 C4376 1.384 . S
C4378 C4379 1.372 . S
C4379 C4378 1.372 . S
C4379 C4380 1.400 . S
C4379 C4384 1.490 . S
C4380 H4370 0.930 . S
C4380 C4379 1.400 . S
C4380 C4383 1.386 . S
H4381 C4397 0.930 . S
H4382 C4398 0.931 . S
C4383 H4371 0.929 . S
C4383 C4377 1.390 . S
C4383 C4380 1.386 . S
C4384 C4379 1.490 . S
C4384 C4386 1.395 . S
C4384 C4387 1.403 . S
H4385 C4391 0.930 . S
C4386 H4372 0.930 . S
C4386 C4384 1.395 . S
C4386 C4389 1.403 . S
C4387 C4384 1.403 . S
C4387 C4388 1.524 . S
C4387 C4391 1.400 . S
C4388 H4373 0.960 . S
C4388 H4374 0.960 . S
C4388 H4375 0.960 . S
C4388 C4387 1.524 . S
C4389 C4386 1.403 . S
C4389 C4390 1.392 . S
C4389 C4393 1.495 . S
C4390 C4389 1.392 . S
C4390 C4391 1.385 . S
C4390 C4392 1.478 . S
C4391 H4385 0.930 . S
C4391 C4387 1.400 . S
C4391 C4390 1.385 . S
C4392 C4390 1.478 . S
C4392 C4394 1.381 . S
C4392 C4398 1.383 . S
C4393 C4389 1.495 . S
C4393 H4399 0.959 . S
C4393 H4400 0.961 . S
C4393 H4401 0.960 . S
C4394 C4392 1.381 . S
C4394 C4395 1.394 . S
C4394 H4402 0.930 . S
C4395 C4394 1.394 . S
C4395 C4396 1.383 . S
C4395 H4403 0.929 . S
C4396 C4395 1.383 . S
C4396 C4397 1.377 . S
C4397 H4381 0.930 . S
C4397 C4396 1.377 . S
C4397 C4398 1.379 . S
C4398 H4382 0.931 . S
C4398 C4392 1.383 . S
C4398 C4397 1.379 . S
H4399 C4393 0.959 . S
H4400 C4393 0.961 . S
H4401 C4393 0.960 . S
H4402 C4394 0.930 . S
H4403 C4395 0.929 . S
H4404 C4412 0.929 . S
H4405 C4414 0.930 . S
H4406 C4416 0.930 . S
H4407 C4419 0.929 . S
H4408 C4422 0.930 . S
H4409 C4424 0.960 . S
H4410 C4424 0.960 . S
H4411 C4424 0.960 . S
C4412 H4404 0.929 . S
C4412 C4413 1.377 . S
C4412 C4414 1.384 . S
C4413 C4412 1.377 . S
C4413 C4419 1.390 . S
C4414 H4405 0.930 . S
C4414 C4412 1.384 . S
C4414 C4415 1.372 . S
C4415 C4414 1.372 . S
C4415 C4416 1.400 . S
C4415 C4420 1.490 . S
C4416 H4406 0.930 . S
C4416 C4415 1.400 . S
C4416 C4419 1.386 . S
H4417 C4433 0.930 . S
H4418 C4434 0.931 . S
C4419 H4407 0.929 . S
C4419 C4413 1.390 . S
C4419 C4416 1.386 . S
C4420 C4415 1.490 . S
C4420 C4422 1.395 . S
C4420 C4423 1.403 . S
H4421 C4427 0.930 . S
C4422 H4408 0.930 . S
C4422 C4420 1.395 . S
C4422 C4425 1.403 . S
C4423 C4420 1.403 . S
C4423 C4424 1.524 . S
C4423 C4427 1.400 . S
C4424 H4409 0.960 . S
C4424 H4410 0.960 . S
C4424 H4411 0.960 . S
C4424 C4423 1.524 . S
C4425 C4422 1.403 . S
C4425 C4426 1.392 . S
C4425 C4429 1.495 . S
C4426 C4425 1.392 . S
C4426 C4427 1.385 . S
C4426 C4428 1.478 . S
C4427 H4421 0.930 . S
C4427 C4423 1.400 . S
C4427 C4426 1.385 . S
C4428 C4426 1.478 . S
C4428 C4430 1.381 . S
C4428 C4434 1.383 . S
C4429 C4425 1.495 . S
C4429 H4435 0.959 . S
C4429 H4436 0.961 . S
C4429 H4437 0.960 . S
C4430 C4428 1.381 . S
C4430 C4431 1.394 . S
C4430 H4438 0.930 . S
C4431 C4430 1.394 . S
C4431 C4432 1.383 . S
C4431 H4439 0.929 . S
C4432 C4431 1.383 . S
C4432 C4433 1.377 . S
C4433 H4417 0.930 . S
C4433 C4432 1.377 . S
C4433 C4434 1.379 . S
C4434 H4418 0.931 . S
C4434 C4428 1.383 . S
C4434 C4433 1.379 . S
H4435 C4429 0.959 . S
H4436 C4429 0.961 . S
H4437 C4429 0.960 . S
H4438 C4430 0.930 . S
H4439 C4431 0.929 . S
H4440 C4448 0.929 . S
H4441 C4450 0.930 . S
H4442 C4452 0.930 . S
H4443 C4455 0.929 . S
H4444 C4458 0.930 . S
H4445 C4460 0.960 . S
H4446 C4460 0.960 . S
H4447 C4460 0.960 . S
C4448 H4440 0.929 . S
C4448 C4449 1.377 . S
C4448 C4450 1.384 . S
C4449 C4448 1.377 . S
C4449 C4455 1.390 . S
C4450 H4441 0.930 . S
C4450 C4448 1.384 . S
C4450 C4451 1.372 . S
C4451 C4450 1.372 . S
C4451 C4452 1.400 . S
C4451 C4456 1.490 . S
C4452 H4442 0.930 . S
C4452 C4451 1.400 . S
C4452 C4455 1.386 . S
H4453 C4469 0.930 . S
H4454 C4470 0.931 . S
C4455 H4443 0.929 . S
C4455 C4449 1.390 . S
C4455 C4452 1.386 . S
C4456 C4451 1.490 . S
C4456 C4458 1.395 . S
C4456 C4459 1.403 . S
H4457 C4463 0.930 . S
C4458 H4444 0.930 . S
C4458 C4456 1.395 . S
C4458 C4461 1.403 . S
C4459 C4456 1.403 . S
C4459 C4460 1.524 . S
C4459 C4463 1.400 . S
C4460 H4445 0.960 . S
C4460 H4446 0.960 . S
C4460 H4447 0.960 . S
C4460 C4459 1.524 . S
C4461 C4458 1.403 . S
C4461 C4462 1.392 . S
C4461 C4465 1.495 . S
C4462 C4461 1.392 . S
C4462 C4463 1.385 . S
C4462 C4464 1.478 . S
C4463 H4457 0.930 . S
C4463 C4459 1.400 . S
C4463 C4462 1.385 . S
C4464 C4462 1.478 . S
C4464 C4466 1.381 . S
C4464 C4470 1.383 . S
C4465 C4461 1.495 . S
C4465 H4471 0.959 . S
C4465 H4472 0.961 . S
C4465 H4473 0.960 . S
C4466 C4464 1.381 . S
C4466 C4467 1.394 . S
C4466 H4474 0.930 . S
C4467 C4466 1.394 . S
C4467 C4468 1.383 . S
C4467 H4475 0.929 . S
C4468 C4467 1.383 . S
C4468 C4469 1.377 . S
C4469 H4453 0.930 . S
C4469 C4468 1.377 . S
C4469 C4470 1.379 . S
C4470 H4454 0.931 . S
C4470 C4464 1.383 . S
C4470 C4469 1.379 . S
H4471 C4465 0.959 . S
H4472 C4465 0.961 . S
H4473 C4465 0.960 . S
H4474 C4466 0.930 . S
H4475 C4467 0.929 . S
H4476 C4484 0.929 . S
H4477 C4486 0.930 . S
H4478 C4488 0.930 . S
H4479 C4491 0.929 . S
H4480 C4494 0.930 . S
H4481 C4496 0.960 . S
H4482 C4496 0.960 . S
H4483 C4496 0.960 . S
C4484 H4476 0.929 . S
C4484 C4485 1.377 . S
C4484 C4486 1.384 . S
C4485 C4484 1.377 . S
C4485 C4491 1.390 . S
C4486 H4477 0.930 . S
C4486 C4484 1.384 . S
C4486 C4487 1.372 . S
C4487 C4486 1.372 . S
C4487 C4488 1.400 . S
C4487 C4492 1.490 . S
C4488 H4478 0.930 . S
C4488 C4487 1.400 . S
C4488 C4491 1.386 . S
H4489 C4505 0.930 . S
H4490 C4506 0.931 . S
C4491 H4479 0.929 . S
C4491 C4485 1.390 . S
C4491 C4488 1.386 . S
C4492 C4487 1.490 . S
C4492 C4494 1.395 . S
C4492 C4495 1.403 . S
H4493 C4499 0.930 . S
C4494 H4480 0.930 . S
C4494 C4492 1.395 . S
C4494 C4497 1.403 . S
C4495 C4492 1.403 . S
C4495 C4496 1.524 . S
C4495 C4499 1.400 . S
C4496 H4481 0.960 . S
C4496 H4482 0.960 . S
C4496 H4483 0.960 . S
C4496 C4495 1.524 . S
C4497 C4494 1.403 . S
C4497 C4498 1.392 . S
C4497 C4501 1.495 . S
C4498 C4497 1.392 . S
C4498 C4499 1.385 . S
C4498 C4500 1.478 . S
C4499 H4493 0.930 . S
C4499 C4495 1.400 . S
C4499 C4498 1.385 . S
C4500 C4498 1.478 . S
C4500 C4502 1.381 . S
C4500 C4506 1.383 . S
C4501 C4497 1.495 . S
C4501 H4507 0.959 . S
C4501 H4508 0.961 . S
C4501 H4509 0.960 . S
C4502 C4500 1.381 . S
C4502 C4503 1.394 . S
C4502 H4510 0.930 . S
C4503 C4502 1.394 . S
C4503 C4504 1.383 . S
C4503 H4511 0.929 . S
C4504 C4503 1.383 . S
C4504 C4505 1.377 . S
C4505 H4489 0.930 . S
C4505 C4504 1.377 . S
C4505 C4506 1.379 . S
C4506 H4490 0.931 . S
C4506 C4500 1.383 . S
C4506 C4505 1.379 . S
H4507 C4501 0.959 . S
H4508 C4501 0.961 . S
H4509 C4501 0.960 . S
H4510 C4502 0.930 . S
H4511 C4503 0.929 . S
H4512 C4520 0.929 . S
H4513 C4522 0.930 . S
H4514 C4524 0.930 . S
H4515 C4527 0.929 . S
H4516 C4530 0.930 . S
H4517 C4532 0.960 . S
H4518 C4532 0.960 . S
H4519 C4532 0.960 . S
C4520 H4512 0.929 . S
C4520 C4521 1.377 . S
C4520 C4522 1.384 . S
C4521 C4520 1.377 . S
C4521 C4527 1.390 . S
C4522 H4513 0.930 . S
C4522 C4520 1.384 . S
C4522 C4523 1.372 . S
C4523 C4522 1.372 . S
C4523 C4524 1.400 . S
C4523 C4528 1.490 . S
C4524 H4514 0.930 . S
C4524 C4523 1.400 . S
C4524 C4527 1.386 . S
H4525 C4541 0.930 . S
H4526 C4542 0.931 . S
C4527 H4515 0.929 . S
C4527 C4521 1.390 . S
C4527 C4524 1.386 . S
C4528 C4523 1.490 . S
C4528 C4530 1.395 . S
C4528 C4531 1.403 . S
H4529 C4535 0.930 . S
C4530 H4516 0.930 . S
C4530 C4528 1.395 . S
C4530 C4533 1.403 . S
C4531 C4528 1.403 . S
C4531 C4532 1.524 . S
C4531 C4535 1.400 . S
C4532 H4517 0.960 . S
C4532 H4518 0.960 . S
C4532 H4519 0.960 . S
C4532 C4531 1.524 . S
C4533 C4530 1.403 . S
C4533 C4534 1.392 . S
C4533 C4537 1.495 . S
C4534 C4533 1.392 . S
C4534 C4535 1.385 . S
C4534 C4536 1.478 . S
C4535 H4529 0.930 . S
C4535 C4531 1.400 . S
C4535 C4534 1.385 . S
C4536 C4534 1.478 . S
C4536 C4538 1.381 . S
C4536 C4542 1.383 . S
C4537 C4533 1.495 . S
C4537 H4543 0.959 . S
C4537 H4544 0.961 . S
C4537 H4545 0.960 . S
C4538 C4536 1.381 . S
C4538 C4539 1.394 . S
C4538 H4546 0.930 . S
C4539 C4538 1.394 . S
C4539 C4540 1.383 . S
C4539 H4547 0.929 . S
C4540 C4539 1.383 . S
C4540 C4541 1.377 . S
C4541 H4525 0.930 . S
C4541 C4540 1.377 . S
C4541 C4542 1.379 . S
C4542 H4526 0.931 . S
C4542 C4536 1.383 . S
C4542 C4541 1.379 . S
H4543 C4537 0.959 . S
H4544 C4537 0.961 . S
H4545 C4537 0.960 . S
H4546 C4538 0.930 . S
H4547 C4539 0.929 . S
H4548 C4556 0.929 . S
H4549 C4558 0.930 . S
H4550 C4560 0.930 . S
H4551 C4563 0.929 . S
H4552 C4566 0.930 . S
H4553 C4568 0.960 . S
H4554 C4568 0.960 . S
H4555 C4568 0.960 . S
C4556 H4548 0.929 . S
C4556 C4557 1.377 . S
C4556 C4558 1.384 . S
C4557 C4556 1.377 . S
C4557 C4563 1.390 . S
C4558 H4549 0.930 . S
C4558 C4556 1.384 . S
C4558 C4559 1.372 . S
C4559 C4558 1.372 . S
C4559 C4560 1.400 . S
C4559 C4564 1.490 . S
C4560 H4550 0.930 . S
C4560 C4559 1.400 . S
C4560 C4563 1.386 . S
H4561 C4577 0.930 . S
H4562 C4578 0.931 . S
C4563 H4551 0.929 . S
C4563 C4557 1.390 . S
C4563 C4560 1.386 . S
C4564 C4559 1.490 . S
C4564 C4566 1.395 . S
C4564 C4567 1.403 . S
H4565 C4571 0.930 . S
C4566 H4552 0.930 . S
C4566 C4564 1.395 . S
C4566 C4569 1.403 . S
C4567 C4564 1.403 . S
C4567 C4568 1.524 . S
C4567 C4571 1.400 . S
C4568 H4553 0.960 . S
C4568 H4554 0.960 . S
C4568 H4555 0.960 . S
C4568 C4567 1.524 . S
C4569 C4566 1.403 . S
C4569 C4570 1.392 . S
C4569 C4573 1.495 . S
C4570 C4569 1.392 . S
C4570 C4571 1.385 . S
C4570 C4572 1.478 . S
C4571 H4565 0.930 . S
C4571 C4567 1.400 . S
C4571 C4570 1.385 . S
C4572 C4570 1.478 . S
C4572 C4574 1.381 . S
C4572 C4578 1.383 . S
C4573 C4569 1.495 . S
C4573 H4579 0.959 . S
C4573 H4580 0.961 . S
C4573 H4581 0.960 . S
C4574 C4572 1.381 . S
C4574 C4575 1.394 . S
C4574 H4582 0.930 . S
C4575 C4574 1.394 . S
C4575 C4576 1.383 . S
C4575 H4583 0.929 . S
C4576 C4575 1.383 . S
C4576 C4577 1.377 . S
C4577 H4561 0.930 . S
C4577 C4576 1.377 . S
C4577 C4578 1.379 . S
C4578 H4562 0.931 . S
C4578 C4572 1.383 . S
C4578 C4577 1.379 . S
H4579 C4573 0.959 . S
H4580 C4573 0.961 . S
H4581 C4573 0.960 . S
H4582 C4574 0.930 . S
H4583 C4575 0.929 . S
H4584 C4592 0.929 . S
H4585 C4594 0.930 . S
H4586 C4596 0.930 . S
H4587 C4599 0.929 . S
H4588 C4602 0.930 . S
H4589 C4604 0.960 . S
H4590 C4604 0.960 . S
H4591 C4604 0.960 . S
C4592 H4584 0.929 . S
C4592 C4593 1.377 . S
C4592 C4594 1.384 . S
C4593 C4592 1.377 . S
C4593 C4599 1.390 . S
C4594 H4585 0.930 . S
C4594 C4592 1.384 . S
C4594 C4595 1.372 . S
C4595 C4594 1.372 . S
C4595 C4596 1.400 . S
C4595 C4600 1.490 . S
C4596 H4586 0.930 . S
C4596 C4595 1.400 . S
C4596 C4599 1.386 . S
H4597 C4613 0.930 . S
H4598 C4614 0.931 . S
C4599 H4587 0.929 . S
C4599 C4593 1.390 . S
C4599 C4596 1.386 . S
C4600 C4595 1.490 . S
C4600 C4602 1.395 . S
C4600 C4603 1.403 . S
H4601 C4607 0.930 . S
C4602 H4588 0.930 . S
C4602 C4600 1.395 . S
C4602 C4605 1.403 . S
C4603 C4600 1.403 . S
C4603 C4604 1.524 . S
C4603 C4607 1.400 . S
C4604 H4589 0.960 . S
C4604 H4590 0.960 . S
C4604 H4591 0.960 . S
C4604 C4603 1.524 . S
C4605 C4602 1.403 . S
C4605 C4606 1.392 . S
C4605 C4609 1.495 . S
C4606 C4605 1.392 . S
C4606 C4607 1.385 . S
C4606 C4608 1.478 . S
C4607 H4601 0.930 . S
C4607 C4603 1.400 . S
C4607 C4606 1.385 . S
C4608 C4606 1.478 . S
C4608 C4610 1.381 . S
C4608 C4614 1.383 . S
C4609 C4605 1.495 . S
C4609 H4615 0.959 . S
C4609 H4616 0.961 . S
C4609 H4617 0.960 . S
C4610 C4608 1.381 . S
C4610 C4611 1.394 . S
C4610 H4618 0.930 . S
C4611 C4610 1.394 . S
C4611 C4612 1.383 . S
C4611 H4619 0.929 . S
C4612 C4611 1.383 . S
C4612 C4613 1.377 . S
C4613 H4597 0.930 . S
C4613 C4612 1.377 . S
C4613 C4614 1.379 . S
C4614 H4598 0.931 . S
C4614 C4608 1.383 . S
C4614 C4613 1.379 . S
H4615 C4609 0.959 . S
H4616 C4609 0.961 . S
H4617 C4609 0.960 . S
H4618 C4610 0.930 . S
H4619 C4611 0.929 . S
H4620 C4628 0.929 . S
H4621 C4630 0.930 . S
H4622 C4632 0.930 . S
H4623 C4635 0.929 . S
H4624 C4638 0.930 . S
H4625 C4640 0.960 . S
H4626 C4640 0.960 . S
H4627 C4640 0.960 . S
C4628 H4620 0.929 . S
C4628 C4629 1.377 . S
C4628 C4630 1.384 . S
C4629 C4628 1.377 . S
C4629 C4635 1.390 . S
C4630 H4621 0.930 . S
C4630 C4628 1.384 . S
C4630 C4631 1.372 . S
C4631 C4630 1.372 . S
C4631 C4632 1.400 . S
C4631 C4636 1.490 . S
C4632 H4622 0.930 . S
C4632 C4631 1.400 . S
C4632 C4635 1.386 . S
H4633 C4649 0.930 . S
H4634 C4650 0.931 . S
C4635 H4623 0.929 . S
C4635 C4629 1.390 . S
C4635 C4632 1.386 . S
C4636 C4631 1.490 . S
C4636 C4638 1.395 . S
C4636 C4639 1.403 . S
H4637 C4643 0.930 . S
C4638 H4624 0.930 . S
C4638 C4636 1.395 . S
C4638 C4641 1.403 . S
C4639 C4636 1.403 . S
C4639 C4640 1.524 . S
C4639 C4643 1.400 . S
C4640 H4625 0.960 . S
C4640 H4626 0.960 . S
C4640 H4627 0.960 . S
C4640 C4639 1.524 . S
C4641 C4638 1.403 . S
C4641 C4642 1.392 . S
C4641 C4645 1.495 . S
C4642 C4641 1.392 . S
C4642 C4643 1.385 . S
C4642 C4644 1.478 . S
C4643 H4637 0.930 . S
C4643 C4639 1.400 . S
C4643 C4642 1.385 . S
C4644 C4642 1.478 . S
C4644 C4646 1.381 . S
C4644 C4650 1.383 . S
C4645 C4641 1.495 . S
C4645 H4651 0.959 . S
C4645 H4652 0.961 . S
C4645 H4653 0.960 . S
C4646 C4644 1.381 . S
C4646 C4647 1.394 . S
C4646 H4654 0.930 . S
C4647 C4646 1.394 . S
C4647 C4648 1.383 . S
C4647 H4655 0.929 . S
C4648 C4647 1.383 . S
C4648 C4649 1.377 . S
C4649 H4633 0.930 . S
C4649 C4648 1.377 . S
C4649 C4650 1.379 . S
C4650 H4634 0.931 . S
C4650 C4644 1.383 . S
C4650 C4649 1.379 . S
H4651 C4645 0.959 . S
H4652 C4645 0.961 . S
H4653 C4645 0.960 . S
H4654 C4646 0.930 . S
H4655 C4647 0.929 . S
H4656 C4664 0.929 . S
H4657 C4666 0.930 . S
H4658 C4668 0.930 . S
H4659 C4671 0.929 . S
H4660 C4674 0.930 . S
H4661 C4676 0.960 . S
H4662 C4676 0.960 . S
H4663 C4676 0.960 . S
C4664 H4656 0.929 . S
C4664 C4665 1.377 . S
C4664 C4666 1.384 . S
C4665 C4664 1.377 . S
C4665 C4671 1.390 . S
C4666 H4657 0.930 . S
C4666 C4664 1.384 . S
C4666 C4667 1.372 . S
C4667 C4666 1.372 . S
C4667 C4668 1.400 . S
C4667 C4672 1.490 . S
C4668 H4658 0.930 . S
C4668 C4667 1.400 . S
C4668 C4671 1.386 . S
H4669 C4685 0.930 . S
H4670 C4686 0.931 . S
C4671 H4659 0.929 . S
C4671 C4665 1.390 . S
C4671 C4668 1.386 . S
C4672 C4667 1.490 . S
C4672 C4674 1.395 . S
C4672 C4675 1.403 . S
H4673 C4679 0.930 . S
C4674 H4660 0.930 . S
C4674 C4672 1.395 . S
C4674 C4677 1.403 . S
C4675 C4672 1.403 . S
C4675 C4676 1.524 . S
C4675 C4679 1.400 . S
C4676 H4661 0.960 . S
C4676 H4662 0.960 . S
C4676 H4663 0.960 . S
C4676 C4675 1.524 . S
C4677 C4674 1.403 . S
C4677 C4678 1.392 . S
C4677 C4681 1.495 . S
C4678 C4677 1.392 . S
C4678 C4679 1.385 . S
C4678 C4680 1.478 . S
C4679 H4673 0.930 . S
C4679 C4675 1.400 . S
C4679 C4678 1.385 . S
C4680 C4678 1.478 . S
C4680 C4682 1.381 . S
C4680 C4686 1.383 . S
C4681 C4677 1.495 . S
C4681 H4687 0.959 . S
C4681 H4688 0.961 . S
C4681 H4689 0.960 . S
C4682 C4680 1.381 . S
C4682 C4683 1.394 . S
C4682 H4690 0.930 . S
C4683 C4682 1.394 . S
C4683 C4684 1.383 . S
C4683 H4691 0.929 . S
C4684 C4683 1.383 . S
C4684 C4685 1.377 . S
C4685 H4669 0.930 . S
C4685 C4684 1.377 . S
C4685 C4686 1.379 . S
C4686 H4670 0.931 . S
C4686 C4680 1.383 . S
C4686 C4685 1.379 . S
H4687 C4681 0.959 . S
H4688 C4681 0.961 . S
H4689 C4681 0.960 . S
H4690 C4682 0.930 . S
H4691 C4683 0.929 . S
H4692 C4700 0.929 . S
H4693 C4702 0.930 . S
H4694 C4704 0.930 . S
H4695 C4707 0.929 . S
H4696 C4710 0.930 . S
H4697 C4712 0.960 . S
H4698 C4712 0.960 . S
H4699 C4712 0.960 . S
C4700 H4692 0.929 . S
C4700 C4701 1.377 . S
C4700 C4702 1.384 . S
C4701 C4700 1.377 . S
C4701 C4707 1.390 . S
C4702 H4693 0.930 . S
C4702 C4700 1.384 . S
C4702 C4703 1.372 . S
C4703 C4702 1.372 . S
C4703 C4704 1.400 . S
C4703 C4708 1.490 . S
C4704 H4694 0.930 . S
C4704 C4703 1.400 . S
C4704 C4707 1.386 . S
H4705 C4721 0.930 . S
H4706 C4722 0.931 . S
C4707 H4695 0.929 . S
C4707 C4701 1.390 . S
C4707 C4704 1.386 . S
C4708 C4703 1.490 . S
C4708 C4710 1.395 . S
C4708 C4711 1.403 . S
H4709 C4715 0.930 . S
C4710 H4696 0.930 . S
C4710 C4708 1.395 . S
C4710 C4713 1.403 . S
C4711 C4708 1.403 . S
C4711 C4712 1.524 . S
C4711 C4715 1.400 . S
C4712 H4697 0.960 . S
C4712 H4698 0.960 . S
C4712 H4699 0.960 . S
C4712 C4711 1.524 . S
C4713 C4710 1.403 . S
C4713 C4714 1.392 . S
C4713 C4717 1.495 . S
C4714 C4713 1.392 . S
C4714 C4715 1.385 . S
C4714 C4716 1.478 . S
C4715 H4709 0.930 . S
C4715 C4711 1.400 . S
C4715 C4714 1.385 . S
C4716 C4714 1.478 . S
C4716 C4718 1.381 . S
C4716 C4722 1.383 . S
C4717 C4713 1.495 . S
C4717 H4723 0.959 . S
C4717 H4724 0.961 . S
C4717 H4725 0.960 . S
C4718 C4716 1.381 . S
C4718 C4719 1.394 . S
C4718 H4726 0.930 . S
C4719 C4718 1.394 . S
C4719 C4720 1.383 . S
C4719 H4727 0.929 . S
C4720 C4719 1.383 . S
C4720 C4721 1.377 . S
C4721 H4705 0.930 . S
C4721 C4720 1.377 . S
C4721 C4722 1.379 . S
C4722 H4706 0.931 . S
C4722 C4716 1.383 . S
C4722 C4721 1.379 . S
H4723 C4717 0.959 . S
H4724 C4717 0.961 . S
H4725 C4717 0.960 . S
H4726 C4718 0.930 . S
H4727 C4719 0.929 . S
H4728 C4736 0.929 . S
H4729 C4738 0.930 . S
H4730 C4740 0.930 . S
H4731 C4743 0.929 . S
H4732 C4746 0.930 . S
H4733 C4748 0.960 . S
H4734 C4748 0.960 . S
H4735 C4748 0.960 . S
C4736 H4728 0.929 . S
C4736 C4737 1.377 . S
C4736 C4738 1.384 . S
C4737 C4736 1.377 . S
C4737 C4743 1.390 . S
C4738 H4729 0.930 . S
C4738 C4736 1.384 . S
C4738 C4739 1.372 . S
C4739 C4738 1.372 . S
C4739 C4740 1.400 . S
C4739 C4744 1.490 . S
C4740 H4730 0.930 . S
C4740 C4739 1.400 . S
C4740 C4743 1.386 . S
H4741 C4757 0.930 . S
H4742 C4758 0.931 . S
C4743 H4731 0.929 . S
C4743 C4737 1.390 . S
C4743 C4740 1.386 . S
C4744 C4739 1.490 . S
C4744 C4746 1.395 . S
C4744 C4747 1.403 . S
H4745 C4751 0.930 . S
C4746 H4732 0.930 . S
C4746 C4744 1.395 . S
C4746 C4749 1.403 . S
C4747 C4744 1.403 . S
C4747 C4748 1.524 . S
C4747 C4751 1.400 . S
C4748 H4733 0.960 . S
C4748 H4734 0.960 . S
C4748 H4735 0.960 . S
C4748 C4747 1.524 . S
C4749 C4746 1.403 . S
C4749 C4750 1.392 . S
C4749 C4753 1.495 . S
C4750 C4749 1.392 . S
C4750 C4751 1.385 . S
C4750 C4752 1.478 . S
C4751 H4745 0.930 . S
C4751 C4747 1.400 . S
C4751 C4750 1.385 . S
C4752 C4750 1.478 . S
C4752 C4754 1.381 . S
C4752 C4758 1.383 . S
C4753 C4749 1.495 . S
C4753 H4759 0.959 . S
C4753 H4760 0.961 . S
C4753 H4761 0.960 . S
C4754 C4752 1.381 . S
C4754 C4755 1.394 . S
C4754 H4762 0.930 . S
C4755 C4754 1.394 . S
C4755 C4756 1.383 . S
C4755 H4763 0.929 . S
C4756 C4755 1.383 . S
C4756 C4757 1.377 . S
C4757 H4741 0.930 . S
C4757 C4756 1.377 . S
C4757 C4758 1.379 . S
C4758 H4742 0.931 . S
C4758 C4752 1.383 . S
C4758 C4757 1.379 . S
H4759 C4753 0.959 . S
H4760 C4753 0.961 . S
H4761 C4753 0.960 . S
H4762 C4754 0.930 . S
H4763 C4755 0.929 . S
H4764 C4772 0.929 . S
H4765 C4774 0.930 . S
H4766 C4776 0.930 . S
H4767 C4779 0.929 . S
H4768 C4782 0.930 . S
H4769 C4784 0.960 . S
H4770 C4784 0.960 . S
H4771 C4784 0.960 . S
C4772 H4764 0.929 . S
C4772 C4773 1.377 . S
C4772 C4774 1.384 . S
C4773 C4772 1.377 . S
C4773 C4779 1.390 . S
C4774 H4765 0.930 . S
C4774 C4772 1.384 . S
C4774 C4775 1.372 . S
C4775 C4774 1.372 . S
C4775 C4776 1.400 . S
C4775 C4780 1.490 . S
C4776 H4766 0.930 . S
C4776 C4775 1.400 . S
C4776 C4779 1.386 . S
H4777 C4793 0.930 . S
H4778 C4794 0.931 . S
C4779 H4767 0.929 . S
C4779 C4773 1.390 . S
C4779 C4776 1.386 . S
C4780 C4775 1.490 . S
C4780 C4782 1.395 . S
C4780 C4783 1.403 . S
H4781 C4787 0.930 . S
C4782 H4768 0.930 . S
C4782 C4780 1.395 . S
C4782 C4785 1.403 . S
C4783 C4780 1.403 . S
C4783 C4784 1.524 . S
C4783 C4787 1.400 . S
C4784 H4769 0.960 . S
C4784 H4770 0.960 . S
C4784 H4771 0.960 . S
C4784 C4783 1.524 . S
C4785 C4782 1.403 . S
C4785 C4786 1.392 . S
C4785 C4789 1.495 . S
C4786 C4785 1.392 . S
C4786 C4787 1.385 . S
C4786 C4788 1.478 . S
C4787 H4781 0.930 . S
C4787 C4783 1.400 . S
C4787 C4786 1.385 . S
C4788 C4786 1.478 . S
C4788 C4790 1.381 . S
C4788 C4794 1.383 . S
C4789 C4785 1.495 . S
C4789 H4795 0.959 . S
C4789 H4796 0.961 . S
C4789 H4797 0.960 . S
C4790 C4788 1.381 . S
C4790 C4791 1.394 . S
C4790 H4798 0.930 . S
C4791 C4790 1.394 . S
C4791 C4792 1.383 . S
C4791 H4799 0.929 . S
C4792 C4791 1.383 . S
C4792 C4793 1.377 . S
C4793 H4777 0.930 . S
C4793 C4792 1.377 . S
C4793 C4794 1.379 . S
C4794 H4778 0.931 . S
C4794 C4788 1.383 . S
C4794 C4793 1.379 . S
H4795 C4789 0.959 . S
H4796 C4789 0.961 . S
H4797 C4789 0.960 . S
H4798 C4790 0.930 . S
H4799 C4791 0.929 . S
H4800 C4808 0.929 . S
H4801 C4810 0.930 . S
H4802 C4812 0.930 . S
H4803 C4815 0.929 . S
H4804 C4818 0.930 . S
H4805 C4820 0.960 . S
H4806 C4820 0.960 . S
H4807 C4820 0.960 . S
C4808 H4800 0.929 . S
C4808 C4809 1.377 . S
C4808 C4810 1.384 . S
C4809 C4808 1.377 . S
C4809 C4815 1.390 . S
C4810 H4801 0.930 . S
C4810 C4808 1.384 . S
C4810 C4811 1.372 . S
C4811 C4810 1.372 . S
C4811 C4812 1.400 . S
C4811 C4816 1.490 . S
C4812 H4802 0.930 . S
C4812 C4811 1.400 . S
C4812 C4815 1.386 . S
H4813 C4829 0.930 . S
H4814 C4830 0.931 . S
C4815 H4803 0.929 . S
C4815 C4809 1.390 . S
C4815 C4812 1.386 . S
C4816 C4811 1.490 . S
C4816 C4818 1.395 . S
C4816 C4819 1.403 . S
H4817 C4823 0.930 . S
C4818 H4804 0.930 . S
C4818 C4816 1.395 . S
C4818 C4821 1.403 . S
C4819 C4816 1.403 . S
C4819 C4820 1.524 . S
C4819 C4823 1.400 . S
C4820 H4805 0.960 . S
C4820 H4806 0.960 . S
C4820 H4807 0.960 . S
C4820 C4819 1.524 . S
C4821 C4818 1.403 . S
C4821 C4822 1.392 . S
C4821 C4825 1.495 . S
C4822 C4821 1.392 . S
C4822 C4823 1.385 . S
C4822 C4824 1.478 . S
C4823 H4817 0.930 . S
C4823 C4819 1.400 . S
C4823 C4822 1.385 . S
C4824 C4822 1.478 . S
C4824 C4826 1.381 . S
C4824 C4830 1.383 . S
C4825 C4821 1.495 . S
C4825 H4831 0.959 . S
C4825 H4832 0.961 . S
C4825 H4833 0.960 . S
C4826 C4824 1.381 . S
C4826 C4827 1.394 . S
C4826 H4834 0.930 . S
C4827 C4826 1.394 . S
C4827 C4828 1.383 . S
C4827 H4835 0.929 . S
C4828 C4827 1.383 . S
C4828 C4829 1.377 . S
C4829 H4813 0.930 . S
C4829 C4828 1.377 . S
C4829 C4830 1.379 . S
C4830 H4814 0.931 . S
C4830 C4824 1.383 . S
C4830 C4829 1.379 . S
H4831 C4825 0.959 . S
H4832 C4825 0.961 . S
H4833 C4825 0.960 . S
H4834 C4826 0.930 . S
H4835 C4827 0.929 . S
H4836 C4844 0.929 . S
H4837 C4846 0.930 . S
H4838 C4848 0.930 . S
H4839 C4851 0.929 . S
H4840 C4854 0.930 . S
H4841 C4856 0.960 . S
H4842 C4856 0.960 . S
H4843 C4856 0.960 . S
C4844 H4836 0.929 . S
C4844 C4845 1.377 . S
C4844 C4846 1.384 . S
C4845 C4844 1.377 . S
C4845 C4851 1.390 . S
C4846 H4837 0.930 . S
C4846 C4844 1.384 . S
C4846 C4847 1.372 . S
C4847 C4846 1.372 . S
C4847 C4848 1.400 . S
C4847 C4852 1.490 . S
C4848 H4838 0.930 . S
C4848 C4847 1.400 . S
C4848 C4851 1.386 . S
H4849 C4865 0.930 . S
H4850 C4866 0.931 . S
C4851 H4839 0.929 . S
C4851 C4845 1.390 . S
C4851 C4848 1.386 . S
C4852 C4847 1.490 . S
C4852 C4854 1.395 . S
C4852 C4855 1.403 . S
H4853 C4859 0.930 . S
C4854 H4840 0.930 . S
C4854 C4852 1.395 . S
C4854 C4857 1.403 . S
C4855 C4852 1.403 . S
C4855 C4856 1.524 . S
C4855 C4859 1.400 . S
C4856 H4841 0.960 . S
C4856 H4842 0.960 . S
C4856 H4843 0.960 . S
C4856 C4855 1.524 . S
C4857 C4854 1.403 . S
C4857 C4858 1.392 . S
C4857 C4861 1.495 . S
C4858 C4857 1.392 . S
C4858 C4859 1.385 . S
C4858 C4860 1.478 . S
C4859 H4853 0.930 . S
C4859 C4855 1.400 . S
C4859 C4858 1.385 . S
C4860 C4858 1.478 . S
C4860 C4862 1.381 . S
C4860 C4866 1.383 . S
C4861 C4857 1.495 . S
C4861 H4867 0.959 . S
C4861 H4868 0.961 . S
C4861 H4869 0.960 . S
C4862 C4860 1.381 . S
C4862 C4863 1.394 . S
C4862 H4870 0.930 . S
C4863 C4862 1.394 . S
C4863 C4864 1.383 . S
C4863 H4871 0.929 . S
C4864 C4863 1.383 . S
C4864 C4865 1.377 . S
C4865 H4849 0.930 . S
C4865 C4864 1.377 . S
C4865 C4866 1.379 . S
C4866 H4850 0.931 . S
C4866 C4860 1.383 . S
C4866 C4865 1.379 . S
H4867 C4861 0.959 . S
H4868 C4861 0.961 . S
H4869 C4861 0.960 . S
H4870 C4862 0.930 . S
H4871 C4863 0.929 . S
H4872 C4880 0.929 . S
H4873 C4882 0.930 . S
H4874 C4884 0.930 . S
H4875 C4887 0.929 . S
H4876 C4890 0.930 . S
H4877 C4892 0.960 . S
H4878 C4892 0.960 . S
H4879 C4892 0.960 . S
C4880 H4872 0.929 . S
C4880 C4881 1.377 . S
C4880 C4882 1.384 . S
C4881 C4880 1.377 . S
C4881 C4887 1.390 . S
C4882 H4873 0.930 . S
C4882 C4880 1.384 . S
C4882 C4883 1.372 . S
C4883 C4882 1.372 . S
C4883 C4884 1.400 . S
C4883 C4888 1.490 . S
C4884 H4874 0.930 . S
C4884 C4883 1.400 . S
C4884 C4887 1.386 . S
H4885 C4901 0.930 . S
H4886 C4902 0.931 . S
C4887 H4875 0.929 . S
C4887 C4881 1.390 . S
C4887 C4884 1.386 . S
C4888 C4883 1.490 . S
C4888 C4890 1.395 . S
C4888 C4891 1.403 . S
H4889 C4895 0.930 . S
C4890 H4876 0.930 . S
C4890 C4888 1.395 . S
C4890 C4893 1.403 . S
C4891 C4888 1.403 . S
C4891 C4892 1.524 . S
C4891 C4895 1.400 . S
C4892 H4877 0.960 . S
C4892 H4878 0.960 . S
C4892 H4879 0.960 . S
C4892 C4891 1.524 . S
C4893 C4890 1.403 . S
C4893 C4894 1.392 . S
C4893 C4897 1.495 . S
C4894 C4893 1.392 . S
C4894 C4895 1.385 . S
C4894 C4896 1.478 . S
C4895 H4889 0.930 . S
C4895 C4891 1.400 . S
C4895 C4894 1.385 . S
C4896 C4894 1.478 . S
C4896 C4898 1.381 . S
C4896 C4902 1.383 . S
C4897 C4893 1.495 . S
C4897 H4903 0.959 . S
C4897 H4904 0.961 . S
C4897 H4905 0.960 . S
C4898 C4896 1.381 . S
C4898 C4899 1.394 . S
C4898 H4906 0.930 . S
C4899 C4898 1.394 . S
C4899 C4900 1.383 . S
C4899 H4907 0.929 . S
C4900 C4899 1.383 . S
C4900 C4901 1.377 . S
C4901 H4885 0.930 . S
C4901 C4900 1.377 . S
C4901 C4902 1.379 . S
C4902 H4886 0.931 . S
C4902 C4896 1.383 . S
C4902 C4901 1.379 . S
H4903 C4897 0.959 . S
H4904 C4897 0.961 . S
H4905 C4897 0.960 . S
H4906 C4898 0.930 . S
H4907 C4899 0.929 . S
H4908 C4916 0.929 . S
H4909 C4918 0.930 . S
H4910 C4920 0.930 . S
H4911 C4923 0.929 . S
H4912 C4926 0.930 . S
H4913 C4928 0.960 . S
H4914 C4928 0.960 . S
H4915 C4928 0.960 . S
C4916 H4908 0.929 . S
C4916 C4917 1.377 . S
C4916 C4918 1.384 . S
C4917 C4916 1.377 . S
C4917 C4923 1.390 . S
C4918 H4909 0.930 . S
C4918 C4916 1.384 . S
C4918 C4919 1.372 . S
C4919 C4918 1.372 . S
C4919 C4920 1.400 . S
C4919 C4924 1.490 . S
C4920 H4910 0.930 . S
C4920 C4919 1.400 . S
C4920 C4923 1.386 . S
H4921 C4937 0.930 . S
H4922 C4938 0.931 . S
C4923 H4911 0.929 . S
C4923 C4917 1.390 . S
C4923 C4920 1.386 . S
C4924 C4919 1.490 . S
C4924 C4926 1.395 . S
C4924 C4927 1.403 . S
H4925 C4931 0.930 . S
C4926 H4912 0.930 . S
C4926 C4924 1.395 . S
C4926 C4929 1.403 . S
C4927 C4924 1.403 . S
C4927 C4928 1.524 . S
C4927 C4931 1.400 . S
C4928 H4913 0.960 . S
C4928 H4914 0.960 . S
C4928 H4915 0.960 . S
C4928 C4927 1.524 . S
C4929 C4926 1.403 . S
C4929 C4930 1.392 . S
C4929 C4933 1.495 . S
C4930 C4929 1.392 . S
C4930 C4931 1.385 . S
C4930 C4932 1.478 . S
C4931 H4925 0.930 . S
C4931 C4927 1.400 . S
C4931 C4930 1.385 . S
C4932 C4930 1.478 . S
C4932 C4934 1.381 . S
C4932 C4938 1.383 . S
C4933 C4929 1.495 . S
C4933 H4939 0.959 . S
C4933 H4940 0.961 . S
C4933 H4941 0.960 . S
C4934 C4932 1.381 . S
C4934 C4935 1.394 . S
C4934 H4942 0.930 . S
C4935 C4934 1.394 . S
C4935 C4936 1.383 . S
C4935 H4943 0.929 . S
C4936 C4935 1.383 . S
C4936 C4937 1.377 . S
C4937 H4921 0.930 . S
C4937 C4936 1.377 . S
C4937 C4938 1.379 . S
C4938 H4922 0.931 . S
C4938 C4932 1.383 . S
C4938 C4937 1.379 . S
H4939 C4933 0.959 . S
H4940 C4933 0.961 . S
H4941 C4933 0.960 . S
H4942 C4934 0.930 . S
H4943 C4935 0.929 . S
H4944 C4952 0.929 . S
H4945 C4954 0.930 . S
H4946 C4956 0.930 . S
H4947 C4959 0.929 . S
H4948 C4962 0.930 . S
H4949 C4964 0.960 . S
H4950 C4964 0.960 . S
H4951 C4964 0.960 . S
C4952 H4944 0.929 . S
C4952 C4953 1.377 . S
C4952 C4954 1.384 . S
C4953 C4952 1.377 . S
C4953 C4959 1.390 . S
C4954 H4945 0.930 . S
C4954 C4952 1.384 . S
C4954 C4955 1.372 . S
C4955 C4954 1.372 . S
C4955 C4956 1.400 . S
C4955 C4960 1.490 . S
C4956 H4946 0.930 . S
C4956 C4955 1.400 . S
C4956 C4959 1.386 . S
H4957 C4973 0.930 . S
H4958 C4974 0.931 . S
C4959 H4947 0.929 . S
C4959 C4953 1.390 . S
C4959 C4956 1.386 . S
C4960 C4955 1.490 . S
C4960 C4962 1.395 . S
C4960 C4963 1.403 . S
H4961 C4967 0.930 . S
C4962 H4948 0.930 . S
C4962 C4960 1.395 . S
C4962 C4965 1.403 . S
C4963 C4960 1.403 . S
C4963 C4964 1.524 . S
C4963 C4967 1.400 . S
C4964 H4949 0.960 . S
C4964 H4950 0.960 . S
C4964 H4951 0.960 . S
C4964 C4963 1.524 . S
C4965 C4962 1.403 . S
C4965 C4966 1.392 . S
C4965 C4969 1.495 . S
C4966 C4965 1.392 . S
C4966 C4967 1.385 . S
C4966 C4968 1.478 . S
C4967 H4961 0.930 . S
C4967 C4963 1.400 . S
C4967 C4966 1.385 . S
C4968 C4966 1.478 . S
C4968 C4970 1.381 . S
C4968 C4974 1.383 . S
C4969 C4965 1.495 . S
C4969 H4975 0.959 . S
C4969 H4976 0.961 . S
C4969 H4977 0.960 . S
C4970 C4968 1.381 . S
C4970 C4971 1.394 . S
C4970 H4978 0.930 . S
C4971 C4970 1.394 . S
C4971 C4972 1.383 . S
C4971 H4979 0.929 1_554 S
C4972 C4971 1.383 . S
C4972 C4973 1.377 . S
C4973 H4957 0.930 . S
C4973 C4972 1.377 . S
C4973 C4974 1.379 . S
C4974 H4958 0.931 . S
C4974 C4968 1.383 . S
C4974 C4973 1.379 . S
H4975 C4969 0.959 . S
H4976 C4969 0.961 . S
H4977 C4969 0.960 . S
H4978 C4970 0.930 . S
H4979 C4971 0.929 1_556 S
H4980 C4988 0.929 . S
H4981 C4990 0.930 . S
H4982 C4992 0.930 . S
H4983 C4995 0.929 . S
H4984 C4998 0.930 . S
H4985 C5000 0.960 . S
H4986 C5000 0.960 . S
H4987 C5000 0.960 . S
C4988 H4980 0.929 . S
C4988 C4989 1.377 . S
C4988 C4990 1.384 . S
C4989 C4988 1.377 . S
C4989 C4995 1.390 . S
C4990 H4981 0.930 . S
C4990 C4988 1.384 . S
C4990 C4991 1.372 . S
C4991 C4990 1.372 . S
C4991 C4992 1.400 . S
C4991 C4996 1.490 . S
C4992 H4982 0.930 . S
C4992 C4991 1.400 . S
C4992 C4995 1.386 . S
H4993 C5009 0.930 . S
H4994 C5010 0.931 . S
C4995 H4983 0.929 . S
C4995 C4989 1.390 . S
C4995 C4992 1.386 . S
C4996 C4991 1.490 . S
C4996 C4998 1.395 . S
C4996 C4999 1.403 . S
H4997 C5003 0.930 . S
C4998 H4984 0.930 . S
C4998 C4996 1.395 . S
C4998 C5001 1.403 . S
C4999 C4996 1.403 . S
C4999 C5000 1.524 . S
C4999 C5003 1.400 . S
C5000 H4985 0.960 . S
C5000 H4986 0.960 . S
C5000 H4987 0.960 . S
C5000 C4999 1.524 . S
C5001 C4998 1.403 . S
C5001 C5002 1.392 . S
C5001 C5005 1.495 . S
C5002 C5001 1.392 . S
C5002 C5003 1.385 . S
C5002 C5004 1.478 . S
C5003 H4997 0.930 . S
C5003 C4999 1.400 . S
C5003 C5002 1.385 . S
C5004 C5002 1.478 . S
C5004 C5006 1.381 . S
C5004 C5010 1.383 . S
C5005 C5001 1.495 . S
C5005 H5011 0.959 . S
C5005 H5012 0.961 . S
C5005 H5013 0.960 . S
C5006 C5004 1.381 . S
C5006 C5007 1.394 . S
C5006 H5014 0.930 . S
C5007 C5006 1.394 . S
C5007 C5008 1.383 . S
C5007 H5015 0.929 . S
C5008 C5007 1.383 . S
C5008 C5009 1.377 . S
C5009 H4993 0.930 . S
C5009 C5008 1.377 . S
C5009 C5010 1.379 . S
C5010 H4994 0.931 . S
C5010 C5004 1.383 . S
C5010 C5009 1.379 . S
H5011 C5005 0.959 . S
H5012 C5005 0.961 . S
H5013 C5005 0.960 . S
H5014 C5006 0.930 . S
H5015 C5007 0.929 . S
H5016 C5024 0.929 . S
H5017 C5026 0.930 . S
H5018 C5028 0.930 . S
H5019 C5031 0.929 . S
H5020 C5034 0.930 . S
H5021 C5036 0.960 . S
H5022 C5036 0.960 . S
H5023 C5036 0.960 . S
C5024 H5016 0.929 . S
C5024 C5025 1.377 . S
C5024 C5026 1.384 . S
C5025 C5024 1.377 . S
C5025 C5031 1.390 . S
C5026 H5017 0.930 . S
C5026 C5024 1.384 . S
C5026 C5027 1.372 . S
C5027 C5026 1.372 . S
C5027 C5028 1.400 . S
C5027 C5032 1.490 . S
C5028 H5018 0.930 . S
C5028 C5027 1.400 . S
C5028 C5031 1.386 . S
H5029 C5045 0.930 . S
H5030 C5046 0.931 . S
C5031 H5019 0.929 . S
C5031 C5025 1.390 . S
C5031 C5028 1.386 . S
C5032 C5027 1.490 . S
C5032 C5034 1.395 . S
C5032 C5035 1.403 . S
H5033 C5039 0.930 . S
C5034 H5020 0.930 . S
C5034 C5032 1.395 . S
C5034 C5037 1.403 . S
C5035 C5032 1.403 . S
C5035 C5036 1.524 . S
C5035 C5039 1.400 . S
C5036 H5021 0.960 . S
C5036 H5022 0.960 . S
C5036 H5023 0.960 . S
C5036 C5035 1.524 . S
C5037 C5034 1.403 . S
C5037 C5038 1.392 . S
C5037 C5041 1.495 . S
C5038 C5037 1.392 . S
C5038 C5039 1.385 . S
C5038 C5040 1.478 . S
C5039 H5033 0.930 . S
C5039 C5035 1.400 . S
C5039 C5038 1.385 . S
C5040 C5038 1.478 . S
C5040 C5042 1.381 . S
C5040 C5046 1.383 . S
C5041 C5037 1.495 . S
C5041 H5047 0.959 . S
C5041 H5048 0.961 . S
C5041 H5049 0.960 . S
C5042 C5040 1.381 . S
C5042 C5043 1.394 . S
C5042 H5050 0.930 . S
C5043 C5042 1.394 . S
C5043 C5044 1.383 . S
C5043 H5051 0.929 . S
C5044 C5043 1.383 . S
C5044 C5045 1.377 . S
C5045 H5029 0.930 . S
C5045 C5044 1.377 . S
C5045 C5046 1.379 . S
C5046 H5030 0.931 . S
C5046 C5040 1.383 . S
C5046 C5045 1.379 . S
H5047 C5041 0.959 . S
H5048 C5041 0.961 . S
H5049 C5041 0.960 . S
H5050 C5042 0.930 . S
H5051 C5043 0.929 . S
H5052 C5060 0.929 . S
H5053 C5062 0.930 . S
H5054 C5064 0.930 . S
H5055 C5067 0.929 . S
H5056 C5070 0.930 . S
H5057 C5072 0.960 . S
H5058 C5072 0.960 . S
H5059 C5072 0.960 . S
C5060 H5052 0.929 . S
C5060 C5061 1.377 . S
C5060 C5062 1.384 . S
C5061 C5060 1.377 . S
C5061 C5067 1.390 . S
C5062 H5053 0.930 . S
C5062 C5060 1.384 . S
C5062 C5063 1.372 . S
C5063 C5062 1.372 . S
C5063 C5064 1.400 . S
C5063 C5068 1.490 . S
C5064 H5054 0.930 . S
C5064 C5063 1.400 . S
C5064 C5067 1.386 . S
H5065 C5081 0.930 . S
H5066 C5082 0.931 . S
C5067 H5055 0.929 . S
C5067 C5061 1.390 . S
C5067 C5064 1.386 . S
C5068 C5063 1.490 . S
C5068 C5070 1.395 . S
C5068 C5071 1.403 . S
H5069 C5075 0.930 . S
C5070 H5056 0.930 . S
C5070 C5068 1.395 . S
C5070 C5073 1.403 . S
C5071 C5068 1.403 . S
C5071 C5072 1.524 . S
C5071 C5075 1.400 . S
C5072 H5057 0.960 . S
C5072 H5058 0.960 . S
C5072 H5059 0.960 . S
C5072 C5071 1.524 . S
C5073 C5070 1.403 . S
C5073 C5074 1.392 . S
C5073 C5077 1.495 . S
C5074 C5073 1.392 . S
C5074 C5075 1.385 . S
C5074 C5076 1.478 . S
C5075 H5069 0.930 . S
C5075 C5071 1.400 . S
C5075 C5074 1.385 . S
C5076 C5074 1.478 . S
C5076 C5078 1.381 . S
C5076 C5082 1.383 . S
C5077 C5073 1.495 . S
C5077 H5083 0.959 . S
C5077 H5084 0.961 . S
C5077 H5085 0.960 . S
C5078 C5076 1.381 . S
C5078 C5079 1.394 . S
C5078 H5086 0.930 . S
C5079 C5078 1.394 . S
C5079 C5080 1.383 . S
C5079 H5087 0.929 . S
C5080 C5079 1.383 . S
C5080 C5081 1.377 . S
C5081 H5065 0.930 . S
C5081 C5080 1.377 . S
C5081 C5082 1.379 . S
C5082 H5066 0.931 . S
C5082 C5076 1.383 . S
C5082 C5081 1.379 . S
H5083 C5077 0.959 . S
H5084 C5077 0.961 . S
H5085 C5077 0.960 . S
H5086 C5078 0.930 . S
H5087 C5079 0.929 . S
H5088 C5096 0.929 . S
H5089 C5098 0.930 . S
H5090 C5100 0.930 . S
H5091 C5103 0.929 . S
H5092 C5106 0.930 . S
H5093 C5108 0.960 . S
H5094 C5108 0.960 . S
H5095 C5108 0.960 . S
C5096 H5088 0.929 . S
C5096 C5097 1.377 . S
C5096 C5098 1.384 . S
C5097 C5096 1.377 . S
C5097 C5103 1.390 . S
C5098 H5089 0.930 . S
C5098 C5096 1.384 . S
C5098 C5099 1.372 . S
C5099 C5098 1.372 . S
C5099 C5100 1.400 . S
C5099 C5104 1.490 . S
C5100 H5090 0.930 . S
C5100 C5099 1.400 . S
C5100 C5103 1.386 . S
H5101 C5117 0.930 . S
H5102 C5118 0.931 . S
C5103 H5091 0.929 . S
C5103 C5097 1.390 . S
C5103 C5100 1.386 . S
C5104 C5099 1.490 . S
C5104 C5106 1.395 . S
C5104 C5107 1.403 . S
H5105 C5111 0.930 . S
C5106 H5092 0.930 . S
C5106 C5104 1.395 . S
C5106 C5109 1.403 . S
C5107 C5104 1.403 . S
C5107 C5108 1.524 . S
C5107 C5111 1.400 . S
C5108 H5093 0.960 . S
C5108 H5094 0.960 . S
C5108 H5095 0.960 . S
C5108 C5107 1.524 . S
C5109 C5106 1.403 . S
C5109 C5110 1.392 . S
C5109 C5113 1.495 . S
C5110 C5109 1.392 . S
C5110 C5111 1.385 . S
C5110 C5112 1.478 . S
C5111 H5105 0.930 . S
C5111 C5107 1.400 . S
C5111 C5110 1.385 . S
C5112 C5110 1.478 . S
C5112 C5114 1.381 . S
C5112 C5118 1.383 . S
C5113 C5109 1.495 . S
C5113 H5119 0.959 . S
C5113 H5120 0.961 . S
C5113 H5121 0.960 . S
C5114 C5112 1.381 . S
C5114 C5115 1.394 . S
C5114 H5122 0.930 . S
C5115 C5114 1.394 . S
C5115 C5116 1.383 . S
C5115 H5123 0.929 . S
C5116 C5115 1.383 . S
C5116 C5117 1.377 . S
C5117 H5101 0.930 . S
C5117 C5116 1.377 . S
C5117 C5118 1.379 . S
C5118 H5102 0.931 . S
C5118 C5112 1.383 . S
C5118 C5117 1.379 . S
H5119 C5113 0.959 . S
H5120 C5113 0.961 . S
H5121 C5113 0.960 . S
H5122 C5114 0.930 . S
H5123 C5115 0.929 . S
H5124 C5132 0.929 . S
H5125 C5134 0.930 . S
H5126 C5136 0.930 . S
H5127 C5139 0.929 . S
H5128 C5142 0.930 . S
H5129 C5144 0.960 . S
H5130 C5144 0.960 . S
H5131 C5144 0.960 . S
C5132 H5124 0.929 . S
C5132 C5133 1.377 . S
C5132 C5134 1.384 . S
C5133 C5132 1.377 . S
C5133 C5139 1.390 . S
C5134 H5125 0.930 . S
C5134 C5132 1.384 . S
C5134 C5135 1.372 . S
C5135 C5134 1.372 . S
C5135 C5136 1.400 . S
C5135 C5140 1.490 . S
C5136 H5126 0.930 . S
C5136 C5135 1.400 . S
C5136 C5139 1.386 . S
H5137 C5153 0.930 . S
H5138 C5154 0.931 . S
C5139 H5127 0.929 . S
C5139 C5133 1.390 . S
C5139 C5136 1.386 . S
C5140 C5135 1.490 . S
C5140 C5142 1.395 . S
C5140 C5143 1.403 . S
H5141 C5147 0.930 . S
C5142 H5128 0.930 . S
C5142 C5140 1.395 . S
C5142 C5145 1.403 . S
C5143 C5140 1.403 . S
C5143 C5144 1.524 . S
C5143 C5147 1.400 . S
C5144 H5129 0.960 . S
C5144 H5130 0.960 . S
C5144 H5131 0.960 . S
C5144 C5143 1.524 . S
C5145 C5142 1.403 . S
C5145 C5146 1.392 . S
C5145 C5149 1.495 . S
C5146 C5145 1.392 . S
C5146 C5147 1.385 . S
C5146 C5148 1.478 . S
C5147 H5141 0.930 . S
C5147 C5143 1.400 . S
C5147 C5146 1.385 . S
C5148 C5146 1.478 . S
C5148 C5150 1.381 . S
C5148 C5154 1.383 . S
C5149 C5145 1.495 . S
C5149 H5155 0.959 . S
C5149 H5156 0.961 . S
C5149 H5157 0.960 . S
C5150 C5148 1.381 . S
C5150 C5151 1.394 . S
C5150 H5158 0.930 . S
C5151 C5150 1.394 . S
C5151 C5152 1.383 . S
C5151 H5159 0.929 . S
C5152 C5151 1.383 . S
C5152 C5153 1.377 . S
C5153 H5137 0.930 . S
C5153 C5152 1.377 . S
C5153 C5154 1.379 . S
C5154 H5138 0.931 . S
C5154 C5148 1.383 . S
C5154 C5153 1.379 . S
H5155 C5149 0.959 . S
H5156 C5149 0.961 . S
H5157 C5149 0.960 . S
H5158 C5150 0.930 . S
H5159 C5151 0.929 . S
H5160 C5168 0.929 . S
H5161 C5170 0.930 . S
H5162 C5172 0.930 . S
H5163 C5175 0.929 . S
H5164 C5178 0.930 . S
H5165 C5180 0.960 . S
H5166 C5180 0.960 . S
H5167 C5180 0.960 . S
C5168 H5160 0.929 . S
C5168 C5169 1.377 . S
C5168 C5170 1.384 . S
C5169 C5168 1.377 . S
C5169 C5175 1.390 . S
C5170 H5161 0.930 . S
C5170 C5168 1.384 . S
C5170 C5171 1.372 . S
C5171 C5170 1.372 . S
C5171 C5172 1.400 . S
C5171 C5176 1.490 . S
C5172 H5162 0.930 . S
C5172 C5171 1.400 . S
C5172 C5175 1.386 . S
H5173 C5189 0.930 . S
H5174 C5190 0.931 . S
C5175 H5163 0.929 . S
C5175 C5169 1.390 . S
C5175 C5172 1.386 . S
C5176 C5171 1.490 . S
C5176 C5178 1.395 . S
C5176 C5179 1.403 . S
H5177 C5183 0.930 . S
C5178 H5164 0.930 . S
C5178 C5176 1.395 . S
C5178 C5181 1.403 . S
C5179 C5176 1.403 . S
C5179 C5180 1.524 . S
C5179 C5183 1.400 . S
C5180 H5165 0.960 . S
C5180 H5166 0.960 . S
C5180 H5167 0.960 . S
C5180 C5179 1.524 . S
C5181 C5178 1.403 . S
C5181 C5182 1.392 . S
C5181 C5185 1.495 . S
C5182 C5181 1.392 . S
C5182 C5183 1.385 . S
C5182 C5184 1.478 . S
C5183 H5177 0.930 . S
C5183 C5179 1.400 . S
C5183 C5182 1.385 . S
C5184 C5182 1.478 . S
C5184 C5186 1.381 . S
C5184 C5190 1.383 . S
C5185 C5181 1.495 . S
C5185 H5191 0.959 . S
C5185 H5192 0.961 . S
C5185 H5193 0.960 . S
C5186 C5184 1.381 . S
C5186 C5187 1.394 . S
C5186 H5194 0.930 . S
C5187 C5186 1.394 . S
C5187 C5188 1.383 . S
C5187 H5195 0.929 . S
C5188 C5187 1.383 . S
C5188 C5189 1.377 . S
C5189 H5173 0.930 . S
C5189 C5188 1.377 . S
C5189 C5190 1.379 . S
C5190 H5174 0.931 . S
C5190 C5184 1.383 . S
C5190 C5189 1.379 . S
H5191 C5185 0.959 . S
H5192 C5185 0.961 . S
H5193 C5185 0.960 . S
H5194 C5186 0.930 . S
H5195 C5187 0.929 . S
H5196 C5204 0.929 . S
H5197 C5206 0.930 . S
H5198 C5208 0.930 . S
H5199 C5211 0.929 . S
H5200 C5214 0.930 . S
H5201 C5216 0.960 . S
H5202 C5216 0.960 . S
H5203 C5216 0.960 . S
C5204 H5196 0.929 . S
C5204 C5205 1.377 . S
C5204 C5206 1.384 . S
C5205 C5204 1.377 . S
C5205 C5211 1.390 . S
C5206 H5197 0.930 . S
C5206 C5204 1.384 . S
C5206 C5207 1.372 . S
C5207 C5206 1.372 . S
C5207 C5208 1.400 . S
C5207 C5212 1.490 . S
C5208 H5198 0.930 . S
C5208 C5207 1.400 . S
C5208 C5211 1.386 . S
H5209 C5225 0.930 . S
H5210 C5226 0.931 . S
C5211 H5199 0.929 . S
C5211 C5205 1.390 . S
C5211 C5208 1.386 . S
C5212 C5207 1.490 . S
C5212 C5214 1.395 . S
C5212 C5215 1.403 . S
H5213 C5219 0.930 . S
C5214 H5200 0.930 . S
C5214 C5212 1.395 . S
C5214 C5217 1.403 . S
C5215 C5212 1.403 . S
C5215 C5216 1.524 . S
C5215 C5219 1.400 . S
C5216 H5201 0.960 . S
C5216 H5202 0.960 . S
C5216 H5203 0.960 . S
C5216 C5215 1.524 . S
C5217 C5214 1.403 . S
C5217 C5218 1.392 . S
C5217 C5221 1.495 . S
C5218 C5217 1.392 . S
C5218 C5219 1.385 . S
C5218 C5220 1.478 . S
C5219 H5213 0.930 . S
C5219 C5215 1.400 . S
C5219 C5218 1.385 . S
C5220 C5218 1.478 . S
C5220 C5222 1.381 . S
C5220 C5226 1.383 . S
C5221 C5217 1.495 . S
C5221 H5227 0.959 . S
C5221 H5228 0.961 . S
C5221 H5229 0.960 . S
C5222 C5220 1.381 . S
C5222 C5223 1.394 . S
C5222 H5230 0.930 . S
C5223 C5222 1.394 . S
C5223 C5224 1.383 . S
C5223 H5231 0.929 . S
C5224 C5223 1.383 . S
C5224 C5225 1.377 . S
C5225 H5209 0.930 . S
C5225 C5224 1.377 . S
C5225 C5226 1.379 . S
C5226 H5210 0.931 . S
C5226 C5220 1.383 . S
C5226 C5225 1.379 . S
H5227 C5221 0.959 . S
H5228 C5221 0.961 . S
H5229 C5221 0.960 . S
H5230 C5222 0.930 . S
H5231 C5223 0.929 . S
H5232 C5240 0.929 . S
H5233 C5242 0.930 . S
H5234 C5244 0.930 . S
H5235 C5247 0.929 . S
H5236 C5250 0.930 . S
H5237 C5252 0.960 . S
H5238 C5252 0.960 . S
H5239 C5252 0.960 . S
C5240 H5232 0.929 . S
C5240 C5241 1.377 . S
C5240 C5242 1.384 . S
C5241 C5240 1.377 . S
C5241 C5247 1.390 . S
C5242 H5233 0.930 . S
C5242 C5240 1.384 . S
C5242 C5243 1.372 . S
C5243 C5242 1.372 . S
C5243 C5244 1.400 . S
C5243 C5248 1.490 . S
C5244 H5234 0.930 . S
C5244 C5243 1.400 . S
C5244 C5247 1.386 . S
H5245 C5261 0.930 . S
H5246 C5262 0.931 . S
C5247 H5235 0.929 . S
C5247 C5241 1.390 . S
C5247 C5244 1.386 . S
C5248 C5243 1.490 . S
C5248 C5250 1.395 . S
C5248 C5251 1.403 . S
H5249 C5255 0.930 . S
C5250 H5236 0.930 . S
C5250 C5248 1.395 . S
C5250 C5253 1.403 . S
C5251 C5248 1.403 . S
C5251 C5252 1.524 . S
C5251 C5255 1.400 . S
C5252 H5237 0.960 . S
C5252 H5238 0.960 . S
C5252 H5239 0.960 . S
C5252 C5251 1.524 . S
C5253 C5250 1.403 . S
C5253 C5254 1.392 . S
C5253 C5257 1.495 . S
C5254 C5253 1.392 . S
C5254 C5255 1.385 . S
C5254 C5256 1.478 . S
C5255 H5249 0.930 . S
C5255 C5251 1.400 . S
C5255 C5254 1.385 . S
C5256 C5254 1.478 . S
C5256 C5258 1.381 . S
C5256 C5262 1.383 . S
C5257 C5253 1.495 . S
C5257 H5263 0.959 . S
C5257 H5264 0.961 . S
C5257 H5265 0.960 . S
C5258 C5256 1.381 . S
C5258 C5259 1.394 . S
C5258 H5266 0.930 . S
C5259 C5258 1.394 . S
C5259 C5260 1.383 . S
C5259 H5267 0.929 . S
C5260 C5259 1.383 . S
C5260 C5261 1.377 . S
C5261 H5245 0.930 . S
C5261 C5260 1.377 . S
C5261 C5262 1.379 . S
C5262 H5246 0.931 . S
C5262 C5256 1.383 . S
C5262 C5261 1.379 . S
H5263 C5257 0.959 . S
H5264 C5257 0.961 . S
H5265 C5257 0.960 . S
H5266 C5258 0.930 . S
H5267 C5259 0.929 . S
H5268 C5276 0.929 . S
H5269 C5278 0.930 . S
H5270 C5280 0.930 . S
H5271 C5283 0.929 . S
H5272 C5286 0.930 . S
H5273 C5288 0.960 . S
H5274 C5288 0.960 . S
H5275 C5288 0.960 . S
C5276 H5268 0.929 . S
C5276 C5277 1.377 . S
C5276 C5278 1.384 . S
C5277 C5276 1.377 . S
C5277 C5283 1.390 . S
C5278 H5269 0.930 . S
C5278 C5276 1.384 . S
C5278 C5279 1.372 . S
C5279 C5278 1.372 . S
C5279 C5280 1.400 . S
C5279 C5284 1.490 . S
C5280 H5270 0.930 . S
C5280 C5279 1.400 . S
C5280 C5283 1.386 . S
H5281 C5297 0.930 . S
H5282 C5298 0.931 . S
C5283 H5271 0.929 . S
C5283 C5277 1.390 . S
C5283 C5280 1.386 . S
C5284 C5279 1.490 . S
C5284 C5286 1.395 . S
C5284 C5287 1.403 . S
H5285 C5291 0.930 . S
C5286 H5272 0.930 . S
C5286 C5284 1.395 . S
C5286 C5289 1.403 . S
C5287 C5284 1.403 . S
C5287 C5288 1.524 . S
C5287 C5291 1.400 . S
C5288 H5273 0.960 . S
C5288 H5274 0.960 . S
C5288 H5275 0.960 . S
C5288 C5287 1.524 . S
C5289 C5286 1.403 . S
C5289 C5290 1.392 . S
C5289 C5293 1.495 . S
C5290 C5289 1.392 . S
C5290 C5291 1.385 . S
C5290 C5292 1.478 . S
C5291 H5285 0.930 . S
C5291 C5287 1.400 . S
C5291 C5290 1.385 . S
C5292 C5290 1.478 . S
C5292 C5294 1.381 . S
C5292 C5298 1.383 . S
C5293 C5289 1.495 . S
C5293 H5299 0.959 . S
C5293 H5300 0.961 . S
C5293 H5301 0.960 . S
C5294 C5292 1.381 . S
C5294 C5295 1.394 . S
C5294 H5302 0.930 . S
C5295 C5294 1.394 . S
C5295 C5296 1.383 . S
C5295 H5303 0.929 . S
C5296 C5295 1.383 . S
C5296 C5297 1.377 . S
C5297 H5281 0.930 . S
C5297 C5296 1.377 . S
C5297 C5298 1.379 . S
C5298 H5282 0.931 . S
C5298 C5292 1.383 . S
C5298 C5297 1.379 . S
H5299 C5293 0.959 . S
H5300 C5293 0.961 . S
H5301 C5293 0.960 . S
H5302 C5294 0.930 . S
H5303 C5295 0.929 . S
H5304 C5312 0.929 . S
H5305 C5314 0.930 . S
H5306 C5316 0.930 . S
H5307 C5319 0.929 . S
H5308 C5322 0.930 . S
H5309 C5324 0.960 . S
H5310 C5324 0.960 . S
H5311 C5324 0.960 . S
C5312 H5304 0.929 . S
C5312 C5313 1.377 . S
C5312 C5314 1.384 . S
C5313 C5312 1.377 . S
C5313 C5319 1.390 . S
C5314 H5305 0.930 . S
C5314 C5312 1.384 . S
C5314 C5315 1.372 . S
C5315 C5314 1.372 . S
C5315 C5316 1.400 . S
C5315 C5320 1.490 . S
C5316 H5306 0.930 . S
C5316 C5315 1.400 . S
C5316 C5319 1.386 . S
H5317 C5333 0.930 . S
H5318 C5334 0.931 . S
C5319 H5307 0.929 . S
C5319 C5313 1.390 . S
C5319 C5316 1.386 . S
C5320 C5315 1.490 . S
C5320 C5322 1.395 . S
C5320 C5323 1.403 . S
H5321 C5327 0.930 . S
C5322 H5308 0.930 . S
C5322 C5320 1.395 . S
C5322 C5325 1.403 . S
C5323 C5320 1.403 . S
C5323 C5324 1.524 . S
C5323 C5327 1.400 . S
C5324 H5309 0.960 . S
C5324 H5310 0.960 . S
C5324 H5311 0.960 . S
C5324 C5323 1.524 . S
C5325 C5322 1.403 . S
C5325 C5326 1.392 . S
C5325 C5329 1.495 . S
C5326 C5325 1.392 . S
C5326 C5327 1.385 . S
C5326 C5328 1.478 . S
C5327 H5321 0.930 . S
C5327 C5323 1.400 . S
C5327 C5326 1.385 . S
C5328 C5326 1.478 . S
C5328 C5330 1.381 . S
C5328 C5334 1.383 . S
C5329 C5325 1.495 . S
C5329 H5335 0.959 . S
C5329 H5336 0.961 . S
C5329 H5337 0.960 . S
C5330 C5328 1.381 . S
C5330 C5331 1.394 . S
C5330 H5338 0.930 . S
C5331 C5330 1.394 . S
C5331 C5332 1.383 . S
C5331 H5339 0.929 . S
C5332 C5331 1.383 . S
C5332 C5333 1.377 . S
C5333 H5317 0.930 . S
C5333 C5332 1.377 . S
C5333 C5334 1.379 . S
C5334 H5318 0.931 . S
C5334 C5328 1.383 . S
C5334 C5333 1.379 . S
H5335 C5329 0.959 . S
H5336 C5329 0.961 . S
H5337 C5329 0.960 . S
H5338 C5330 0.930 . S
H5339 C5331 0.929 . S
H5340 C5348 0.929 . S
H5341 C5350 0.930 . S
H5342 C5352 0.930 . S
H5343 C5355 0.929 . S
H5344 C5358 0.930 . S
H5345 C5360 0.960 . S
H5346 C5360 0.960 . S
H5347 C5360 0.960 . S
C5348 H5340 0.929 . S
C5348 C5349 1.377 . S
C5348 C5350 1.384 . S
C5349 C5348 1.377 . S
C5349 C5355 1.390 . S
C5350 H5341 0.930 . S
C5350 C5348 1.384 . S
C5350 C5351 1.372 . S
C5351 C5350 1.372 . S
C5351 C5352 1.400 . S
C5351 C5356 1.490 . S
C5352 H5342 0.930 . S
C5352 C5351 1.400 . S
C5352 C5355 1.386 . S
H5353 C5369 0.930 . S
H5354 C5370 0.931 . S
C5355 H5343 0.929 . S
C5355 C5349 1.390 . S
C5355 C5352 1.386 . S
C5356 C5351 1.490 . S
C5356 C5358 1.395 . S
C5356 C5359 1.403 . S
H5357 C5363 0.930 . S
C5358 H5344 0.930 . S
C5358 C5356 1.395 . S
C5358 C5361 1.403 . S
C5359 C5356 1.403 . S
C5359 C5360 1.524 . S
C5359 C5363 1.400 . S
C5360 H5345 0.960 . S
C5360 H5346 0.960 . S
C5360 H5347 0.960 . S
C5360 C5359 1.524 . S
C5361 C5358 1.403 . S
C5361 C5362 1.392 . S
C5361 C5365 1.495 . S
C5362 C5361 1.392 . S
C5362 C5363 1.385 . S
C5362 C5364 1.478 . S
C5363 H5357 0.930 . S
C5363 C5359 1.400 . S
C5363 C5362 1.385 . S
C5364 C5362 1.478 . S
C5364 C5366 1.381 . S
C5364 C5370 1.383 . S
C5365 C5361 1.495 . S
C5365 H5371 0.959 . S
C5365 H5372 0.961 . S
C5365 H5373 0.960 . S
C5366 C5364 1.381 . S
C5366 C5367 1.394 . S
C5366 H5374 0.930 . S
C5367 C5366 1.394 . S
C5367 C5368 1.383 . S
C5367 H5375 0.929 . S
C5368 C5367 1.383 . S
C5368 C5369 1.377 . S
C5369 H5353 0.930 . S
C5369 C5368 1.377 . S
C5369 C5370 1.379 . S
C5370 H5354 0.931 . S
C5370 C5364 1.383 . S
C5370 C5369 1.379 . S
H5371 C5365 0.959 . S
H5372 C5365 0.961 . S
H5373 C5365 0.960 . S
H5374 C5366 0.930 . S
H5375 C5367 0.929 . S
H5376 C5384 0.929 . S
H5377 C5386 0.930 . S
H5378 C5388 0.930 . S
H5379 C5391 0.929 . S
H5380 C5394 0.930 . S
H5381 C5396 0.960 . S
H5382 C5396 0.960 . S
H5383 C5396 0.960 . S
C5384 H5376 0.929 . S
C5384 C5385 1.377 . S
C5384 C5386 1.384 . S
C5385 C5384 1.377 . S
C5385 C5391 1.390 . S
C5386 H5377 0.930 . S
C5386 C5384 1.384 . S
C5386 C5387 1.372 . S
C5387 C5386 1.372 . S
C5387 C5388 1.400 . S
C5387 C5392 1.490 . S
C5388 H5378 0.930 . S
C5388 C5387 1.400 . S
C5388 C5391 1.386 . S
H5389 C5405 0.930 . S
H5390 C5406 0.931 . S
C5391 H5379 0.929 . S
C5391 C5385 1.390 . S
C5391 C5388 1.386 . S
C5392 C5387 1.490 . S
C5392 C5394 1.395 . S
C5392 C5395 1.403 . S
H5393 C5399 0.930 . S
C5394 H5380 0.930 . S
C5394 C5392 1.395 . S
C5394 C5397 1.403 . S
C5395 C5392 1.403 . S
C5395 C5396 1.524 . S
C5395 C5399 1.400 . S
C5396 H5381 0.960 . S
C5396 H5382 0.960 . S
C5396 H5383 0.960 . S
C5396 C5395 1.524 . S
C5397 C5394 1.403 . S
C5397 C5398 1.392 . S
C5397 C5401 1.495 . S
C5398 C5397 1.392 . S
C5398 C5399 1.385 . S
C5398 C5400 1.478 . S
C5399 H5393 0.930 . S
C5399 C5395 1.400 . S
C5399 C5398 1.385 . S
C5400 C5398 1.478 . S
C5400 C5402 1.381 . S
C5400 C5406 1.383 . S
C5401 C5397 1.495 . S
C5401 H5407 0.959 . S
C5401 H5408 0.961 . S
C5401 H5409 0.960 . S
C5402 C5400 1.381 . S
C5402 C5403 1.394 . S
C5402 H5410 0.930 . S
C5403 C5402 1.394 . S
C5403 C5404 1.383 . S
C5403 H5411 0.929 . S
C5404 C5403 1.383 . S
C5404 C5405 1.377 . S
C5405 H5389 0.930 . S
C5405 C5404 1.377 . S
C5405 C5406 1.379 . S
C5406 H5390 0.931 . S
C5406 C5400 1.383 . S
C5406 C5405 1.379 . S
H5407 C5401 0.959 . S
H5408 C5401 0.961 . S
H5409 C5401 0.960 . S
H5410 C5402 0.930 . S
H5411 C5403 0.929 . S
H5412 C5420 0.929 . S
H5413 C5422 0.930 . S
H5414 C5424 0.930 . S
H5415 C5427 0.929 . S
H5416 C5430 0.930 . S
H5417 C5432 0.960 . S
H5418 C5432 0.960 . S
H5419 C5432 0.960 . S
C5420 H5412 0.929 . S
C5420 C5421 1.377 . S
C5420 C5422 1.384 . S
C5421 C5420 1.377 . S
C5421 C5427 1.390 . S
C5422 H5413 0.930 . S
C5422 C5420 1.384 . S
C5422 C5423 1.372 . S
C5423 C5422 1.372 . S
C5423 C5424 1.400 . S
C5423 C5428 1.490 . S
C5424 H5414 0.930 . S
C5424 C5423 1.400 . S
C5424 C5427 1.386 . S
H5425 C5441 0.930 . S
H5426 C5442 0.931 . S
C5427 H5415 0.929 . S
C5427 C5421 1.390 . S
C5427 C5424 1.386 . S
C5428 C5423 1.490 . S
C5428 C5430 1.395 . S
C5428 C5431 1.403 . S
H5429 C5435 0.930 . S
C5430 H5416 0.930 . S
C5430 C5428 1.395 . S
C5430 C5433 1.403 . S
C5431 C5428 1.403 . S
C5431 C5432 1.524 . S
C5431 C5435 1.400 . S
C5432 H5417 0.960 . S
C5432 H5418 0.960 . S
C5432 H5419 0.960 . S
C5432 C5431 1.524 . S
C5433 C5430 1.403 . S
C5433 C5434 1.392 . S
C5433 C5437 1.495 . S
C5434 C5433 1.392 . S
C5434 C5435 1.385 . S
C5434 C5436 1.478 . S
C5435 H5429 0.930 . S
C5435 C5431 1.400 . S
C5435 C5434 1.385 . S
C5436 C5434 1.478 . S
C5436 C5438 1.381 . S
C5436 C5442 1.383 . S
C5437 C5433 1.495 . S
C5437 H5443 0.959 . S
C5437 H5444 0.961 . S
C5437 H5445 0.960 . S
C5438 C5436 1.381 . S
C5438 C5439 1.394 . S
C5438 H5446 0.930 . S
C5439 C5438 1.394 . S
C5439 C5440 1.383 . S
C5439 H5447 0.929 . S
C5440 C5439 1.383 . S
C5440 C5441 1.377 . S
C5441 H5425 0.930 . S
C5441 C5440 1.377 . S
C5441 C5442 1.379 . S
C5442 H5426 0.931 . S
C5442 C5436 1.383 . S
C5442 C5441 1.379 . S
H5443 C5437 0.959 . S
H5444 C5437 0.961 . S
H5445 C5437 0.960 . S
H5446 C5438 0.930 . S
H5447 C5439 0.929 . S
H5448 C5456 0.929 . S
H5449 C5458 0.930 . S
H5450 C5460 0.930 . S
H5451 C5463 0.929 . S
H5452 C5466 0.930 . S
H5453 C5468 0.960 . S
H5454 C5468 0.960 . S
H5455 C5468 0.960 . S
C5456 H5448 0.929 . S
C5456 C5457 1.377 . S
C5456 C5458 1.384 . S
C5457 C5456 1.377 . S
C5457 C5463 1.390 . S
C5458 H5449 0.930 . S
C5458 C5456 1.384 . S
C5458 C5459 1.372 . S
C5459 C5458 1.372 . S
C5459 C5460 1.400 . S
C5459 C5464 1.490 . S
C5460 H5450 0.930 . S
C5460 C5459 1.400 . S
C5460 C5463 1.386 . S
H5461 C5477 0.930 . S
H5462 C5478 0.931 . S
C5463 H5451 0.929 . S
C5463 C5457 1.390 . S
C5463 C5460 1.386 . S
C5464 C5459 1.490 . S
C5464 C5466 1.395 . S
C5464 C5467 1.403 . S
H5465 C5471 0.930 . S
C5466 H5452 0.930 . S
C5466 C5464 1.395 . S
C5466 C5469 1.403 . S
C5467 C5464 1.403 . S
C5467 C5468 1.524 . S
C5467 C5471 1.400 . S
C5468 H5453 0.960 . S
C5468 H5454 0.960 . S
C5468 H5455 0.960 . S
C5468 C5467 1.524 . S
C5469 C5466 1.403 . S
C5469 C5470 1.392 . S
C5469 C5473 1.495 . S
C5470 C5469 1.392 . S
C5470 C5471 1.385 . S
C5470 C5472 1.478 . S
C5471 H5465 0.930 . S
C5471 C5467 1.400 . S
C5471 C5470 1.385 . S
C5472 C5470 1.478 . S
C5472 C5474 1.381 . S
C5472 C5478 1.383 . S
C5473 C5469 1.495 . S
C5473 H5479 0.959 . S
C5473 H5480 0.961 . S
C5473 H5481 0.960 . S
C5474 C5472 1.381 . S
C5474 C5475 1.394 . S
C5474 H5482 0.930 . S
C5475 C5474 1.394 . S
C5475 C5476 1.383 . S
C5475 H5483 0.929 . S
C5476 C5475 1.383 . S
C5476 C5477 1.377 . S
C5477 H5461 0.930 . S
C5477 C5476 1.377 . S
C5477 C5478 1.379 . S
C5478 H5462 0.931 . S
C5478 C5472 1.383 . S
C5478 C5477 1.379 . S
H5479 C5473 0.959 . S
H5480 C5473 0.961 . S
H5481 C5473 0.960 . S
H5482 C5474 0.930 . S
H5483 C5475 0.929 . S
H5484 C5492 0.929 . S
H5485 C5494 0.930 . S
H5486 C5496 0.930 . S
H5487 C5499 0.929 . S
H5488 C5502 0.930 . S
H5489 C5504 0.960 . S
H5490 C5504 0.960 . S
H5491 C5504 0.960 . S
C5492 H5484 0.929 . S
C5492 C5493 1.377 . S
C5492 C5494 1.384 . S
C5493 C5492 1.377 . S
C5493 C5499 1.390 . S
C5494 H5485 0.930 . S
C5494 C5492 1.384 . S
C5494 C5495 1.372 . S
C5495 C5494 1.372 . S
C5495 C5496 1.400 . S
C5495 C5500 1.490 . S
C5496 H5486 0.930 . S
C5496 C5495 1.400 . S
C5496 C5499 1.386 . S
H5497 C5513 0.930 . S
H5498 C5514 0.931 . S
C5499 H5487 0.929 . S
C5499 C5493 1.390 . S
C5499 C5496 1.386 . S
C5500 C5495 1.490 . S
C5500 C5502 1.395 . S
C5500 C5503 1.403 . S
H5501 C5507 0.930 . S
C5502 H5488 0.930 . S
C5502 C5500 1.395 . S
C5502 C5505 1.403 . S
C5503 C5500 1.403 . S
C5503 C5504 1.524 . S
C5503 C5507 1.400 . S
C5504 H5489 0.960 . S
C5504 H5490 0.960 . S
C5504 H5491 0.960 . S
C5504 C5503 1.524 . S
C5505 C5502 1.403 . S
C5505 C5506 1.392 . S
C5505 C5509 1.495 . S
C5506 C5505 1.392 . S
C5506 C5507 1.385 . S
C5506 C5508 1.478 . S
C5507 H5501 0.930 . S
C5507 C5503 1.400 . S
C5507 C5506 1.385 . S
C5508 C5506 1.478 . S
C5508 C5510 1.381 . S
C5508 C5514 1.383 . S
C5509 C5505 1.495 . S
C5509 H5515 0.959 . S
C5509 H5516 0.961 . S
C5509 H5517 0.960 . S
C5510 C5508 1.381 . S
C5510 C5511 1.394 . S
C5510 H5518 0.930 . S
C5511 C5510 1.394 . S
C5511 C5512 1.383 . S
C5511 H5519 0.929 . S
C5512 C5511 1.383 . S
C5512 C5513 1.377 . S
C5513 H5497 0.930 . S
C5513 C5512 1.377 . S
C5513 C5514 1.379 . S
C5514 H5498 0.931 . S
C5514 C5508 1.383 . S
C5514 C5513 1.379 . S
H5515 C5509 0.959 . S
H5516 C5509 0.961 . S
H5517 C5509 0.960 . S
H5518 C5510 0.930 . S
H5519 C5511 0.929 . S
H5520 C5528 0.929 . S
H5521 C5530 0.930 . S
H5522 C5532 0.930 . S
H5523 C5535 0.929 . S
H5524 C5538 0.930 . S
H5525 C5540 0.960 . S
H5526 C5540 0.960 . S
H5527 C5540 0.960 . S
C5528 H5520 0.929 . S
C5528 C5529 1.377 . S
C5528 C5530 1.384 . S
C5529 C5528 1.377 . S
C5529 C5535 1.390 . S
C5530 H5521 0.930 . S
C5530 C5528 1.384 . S
C5530 C5531 1.372 . S
C5531 C5530 1.372 . S
C5531 C5532 1.400 . S
C5531 C5536 1.490 . S
C5532 H5522 0.930 . S
C5532 C5531 1.400 . S
C5532 C5535 1.386 . S
H5533 C5549 0.930 . S
H5534 C5550 0.931 . S
C5535 H5523 0.929 . S
C5535 C5529 1.390 . S
C5535 C5532 1.386 . S
C5536 C5531 1.490 . S
C5536 C5538 1.395 . S
C5536 C5539 1.403 . S
H5537 C5543 0.930 . S
C5538 H5524 0.930 . S
C5538 C5536 1.395 . S
C5538 C5541 1.403 . S
C5539 C5536 1.403 . S
C5539 C5540 1.524 . S
C5539 C5543 1.400 . S
C5540 H5525 0.960 . S
C5540 H5526 0.960 . S
C5540 H5527 0.960 . S
C5540 C5539 1.524 . S
C5541 C5538 1.403 . S
C5541 C5542 1.392 . S
C5541 C5545 1.495 . S
C5542 C5541 1.392 . S
C5542 C5543 1.385 . S
C5542 C5544 1.478 . S
C5543 H5537 0.930 . S
C5543 C5539 1.400 . S
C5543 C5542 1.385 . S
C5544 C5542 1.478 . S
C5544 C5546 1.381 . S
C5544 C5550 1.383 . S
C5545 C5541 1.495 . S
C5545 H5551 0.959 . S
C5545 H5552 0.961 . S
C5545 H5553 0.960 . S
C5546 C5544 1.381 . S
C5546 C5547 1.394 . S
C5546 H5554 0.930 . S
C5547 C5546 1.394 . S
C5547 C5548 1.383 . S
C5547 H5555 0.929 . S
C5548 C5547 1.383 . S
C5548 C5549 1.377 . S
C5549 H5533 0.930 . S
C5549 C5548 1.377 . S
C5549 C5550 1.379 . S
C5550 H5534 0.931 . S
C5550 C5544 1.383 . S
C5550 C5549 1.379 . S
H5551 C5545 0.959 . S
H5552 C5545 0.961 . S
H5553 C5545 0.960 . S
H5554 C5546 0.930 . S
H5555 C5547 0.929 . S
H5556 C5564 0.929 . S
H5557 C5566 0.930 . S
H5558 C5568 0.930 . S
H5559 C5571 0.929 . S
H5560 C5574 0.930 . S
H5561 C5576 0.960 . S
H5562 C5576 0.960 . S
H5563 C5576 0.960 . S
C5564 H5556 0.929 . S
C5564 C5565 1.377 . S
C5564 C5566 1.384 . S
C5565 C5564 1.377 . S
C5565 C5571 1.390 . S
C5566 H5557 0.930 . S
C5566 C5564 1.384 . S
C5566 C5567 1.372 . S
C5567 C5566 1.372 . S
C5567 C5568 1.400 . S
C5567 C5572 1.490 . S
C5568 H5558 0.930 . S
C5568 C5567 1.400 . S
C5568 C5571 1.386 . S
H5569 C5585 0.930 . S
H5570 C5586 0.931 . S
C5571 H5559 0.929 . S
C5571 C5565 1.390 . S
C5571 C5568 1.386 . S
C5572 C5567 1.490 . S
C5572 C5574 1.395 . S
C5572 C5575 1.403 . S
H5573 C5579 0.930 . S
C5574 H5560 0.930 . S
C5574 C5572 1.395 . S
C5574 C5577 1.403 . S
C5575 C5572 1.403 . S
C5575 C5576 1.524 . S
C5575 C5579 1.400 . S
C5576 H5561 0.960 . S
C5576 H5562 0.960 . S
C5576 H5563 0.960 . S
C5576 C5575 1.524 . S
C5577 C5574 1.403 . S
C5577 C5578 1.392 . S
C5577 C5581 1.495 . S
C5578 C5577 1.392 . S
C5578 C5579 1.385 . S
C5578 C5580 1.478 . S
C5579 H5573 0.930 . S
C5579 C5575 1.400 . S
C5579 C5578 1.385 . S
C5580 C5578 1.478 . S
C5580 C5582 1.381 . S
C5580 C5586 1.383 . S
C5581 C5577 1.495 . S
C5581 H5587 0.959 . S
C5581 H5588 0.961 . S
C5581 H5589 0.960 . S
C5582 C5580 1.381 . S
C5582 C5583 1.394 . S
C5582 H5590 0.930 . S
C5583 C5582 1.394 . S
C5583 C5584 1.383 . S
C5583 H5591 0.929 . S
C5584 C5583 1.383 . S
C5584 C5585 1.377 . S
C5585 H5569 0.930 . S
C5585 C5584 1.377 . S
C5585 C5586 1.379 . S
C5586 H5570 0.931 . S
C5586 C5580 1.383 . S
C5586 C5585 1.379 . S
H5587 C5581 0.959 . S
H5588 C5581 0.961 . S
H5589 C5581 0.960 . S
H5590 C5582 0.930 . S
H5591 C5583 0.929 . S
H5592 C5600 0.929 . S
H5593 C5602 0.930 . S
H5594 C5604 0.930 . S
H5595 C5607 0.929 . S
H5596 C5610 0.930 . S
H5597 C5612 0.960 . S
H5598 C5612 0.960 . S
H5599 C5612 0.960 . S
C5600 H5592 0.929 . S
C5600 C5601 1.377 . S
C5600 C5602 1.384 . S
C5601 C5600 1.377 . S
C5601 C5607 1.390 . S
C5602 H5593 0.930 . S
C5602 C5600 1.384 . S
C5602 C5603 1.372 . S
C5603 C5602 1.372 . S
C5603 C5604 1.400 . S
C5603 C5608 1.490 . S
C5604 H5594 0.930 . S
C5604 C5603 1.400 . S
C5604 C5607 1.386 . S
H5605 C5621 0.930 . S
H5606 C5622 0.931 . S
C5607 H5595 0.929 . S
C5607 C5601 1.390 . S
C5607 C5604 1.386 . S
C5608 C5603 1.490 . S
C5608 C5610 1.395 . S
C5608 C5611 1.403 . S
H5609 C5615 0.930 . S
C5610 H5596 0.930 . S
C5610 C5608 1.395 . S
C5610 C5613 1.403 . S
C5611 C5608 1.403 . S
C5611 C5612 1.524 . S
C5611 C5615 1.400 . S
C5612 H5597 0.960 . S
C5612 H5598 0.960 . S
C5612 H5599 0.960 . S
C5612 C5611 1.524 . S
C5613 C5610 1.403 . S
C5613 C5614 1.392 . S
C5613 C5617 1.495 . S
C5614 C5613 1.392 . S
C5614 C5615 1.385 . S
C5614 C5616 1.478 . S
C5615 H5609 0.930 . S
C5615 C5611 1.400 . S
C5615 C5614 1.385 . S
C5616 C5614 1.478 . S
C5616 C5618 1.381 . S
C5616 C5622 1.383 . S
C5617 C5613 1.495 . S
C5617 H5623 0.959 . S
C5617 H5624 0.961 . S
C5617 H5625 0.960 . S
C5618 C5616 1.381 . S
C5618 C5619 1.394 . S
C5618 H5626 0.930 . S
C5619 C5618 1.394 . S
C5619 C5620 1.383 . S
C5619 H5627 0.929 . S
C5620 C5619 1.383 . S
C5620 C5621 1.377 . S
C5621 H5605 0.930 . S
C5621 C5620 1.377 . S
C5621 C5622 1.379 . S
C5622 H5606 0.931 . S
C5622 C5616 1.383 . S
C5622 C5621 1.379 . S
H5623 C5617 0.959 . S
H5624 C5617 0.961 . S
H5625 C5617 0.960 . S
H5626 C5618 0.930 . S
H5627 C5619 0.929 . S
H5628 C5636 0.929 . S
H5629 C5638 0.930 . S
H5630 C5640 0.930 . S
H5631 C5643 0.929 . S
H5632 C5646 0.930 . S
H5633 C5648 0.960 . S
H5634 C5648 0.960 . S
H5635 C5648 0.960 . S
C5636 H5628 0.929 . S
C5636 C5637 1.377 . S
C5636 C5638 1.384 . S
C5637 C5636 1.377 . S
C5637 C5643 1.390 . S
C5638 H5629 0.930 . S
C5638 C5636 1.384 . S
C5638 C5639 1.372 . S
C5639 C5638 1.372 . S
C5639 C5640 1.400 . S
C5639 C5644 1.490 . S
C5640 H5630 0.930 . S
C5640 C5639 1.400 . S
C5640 C5643 1.386 . S
H5641 C5657 0.930 . S
H5642 C5658 0.931 . S
C5643 H5631 0.929 . S
C5643 C5637 1.390 . S
C5643 C5640 1.386 . S
C5644 C5639 1.490 . S
C5644 C5646 1.395 . S
C5644 C5647 1.403 . S
H5645 C5651 0.930 . S
C5646 H5632 0.930 . S
C5646 C5644 1.395 . S
C5646 C5649 1.403 . S
C5647 C5644 1.403 . S
C5647 C5648 1.524 . S
C5647 C5651 1.400 . S
C5648 H5633 0.960 . S
C5648 H5634 0.960 . S
C5648 H5635 0.960 . S
C5648 C5647 1.524 . S
C5649 C5646 1.403 . S
C5649 C5650 1.392 . S
C5649 C5653 1.495 . S
C5650 C5649 1.392 . S
C5650 C5651 1.385 . S
C5650 C5652 1.478 . S
C5651 H5645 0.930 . S
C5651 C5647 1.400 . S
C5651 C5650 1.385 . S
C5652 C5650 1.478 . S
C5652 C5654 1.381 . S
C5652 C5658 1.383 . S
C5653 C5649 1.495 . S
C5653 H5659 0.959 . S
C5653 H5660 0.961 . S
C5653 H5661 0.960 . S
C5654 C5652 1.381 . S
C5654 C5655 1.394 . S
C5654 H5662 0.930 . S
C5655 C5654 1.394 . S
C5655 C5656 1.383 . S
C5655 H5663 0.929 . S
C5656 C5655 1.383 . S
C5656 C5657 1.377 . S
C5657 H5641 0.930 . S
C5657 C5656 1.377 . S
C5657 C5658 1.379 . S
C5658 H5642 0.931 . S
C5658 C5652 1.383 . S
C5658 C5657 1.379 . S
H5659 C5653 0.959 . S
H5660 C5653 0.961 . S
H5661 C5653 0.960 . S
H5662 C5654 0.930 . S
H5663 C5655 0.929 . S
H5664 C5672 0.929 . S
H5665 C5674 0.930 . S
H5666 C5676 0.930 . S
H5667 C5679 0.929 . S
H5668 C5682 0.930 . S
H5669 C5684 0.960 . S
H5670 C5684 0.960 . S
H5671 C5684 0.960 . S
C5672 H5664 0.929 . S
C5672 C5673 1.377 . S
C5672 C5674 1.384 . S
C5673 C5672 1.377 . S
C5673 C5679 1.390 . S
C5674 H5665 0.930 . S
C5674 C5672 1.384 . S
C5674 C5675 1.372 . S
C5675 C5674 1.372 . S
C5675 C5676 1.400 . S
C5675 C5680 1.490 . S
C5676 H5666 0.930 . S
C5676 C5675 1.400 . S
C5676 C5679 1.386 . S
H5677 C5693 0.930 . S
H5678 C5694 0.931 . S
C5679 H5667 0.929 . S
C5679 C5673 1.390 . S
C5679 C5676 1.386 . S
C5680 C5675 1.490 . S
C5680 C5682 1.395 . S
C5680 C5683 1.403 . S
H5681 C5687 0.930 . S
C5682 H5668 0.930 . S
C5682 C5680 1.395 . S
C5682 C5685 1.403 . S
C5683 C5680 1.403 . S
C5683 C5684 1.524 . S
C5683 C5687 1.400 . S
C5684 H5669 0.960 . S
C5684 H5670 0.960 . S
C5684 H5671 0.960 . S
C5684 C5683 1.524 . S
C5685 C5682 1.403 . S
C5685 C5686 1.392 . S
C5685 C5689 1.495 . S
C5686 C5685 1.392 . S
C5686 C5687 1.385 . S
C5686 C5688 1.478 . S
C5687 H5681 0.930 . S
C5687 C5683 1.400 . S
C5687 C5686 1.385 . S
C5688 C5686 1.478 . S
C5688 C5690 1.381 . S
C5688 C5694 1.383 . S
C5689 C5685 1.495 . S
C5689 H5695 0.959 . S
C5689 H5696 0.961 . S
C5689 H5697 0.960 . S
C5690 C5688 1.381 . S
C5690 C5691 1.394 . S
C5690 H5698 0.930 . S
C5691 C5690 1.394 . S
C5691 C5692 1.383 . S
C5691 H5699 0.929 . S
C5692 C5691 1.383 . S
C5692 C5693 1.377 . S
C5693 H5677 0.930 . S
C5693 C5692 1.377 . S
C5693 C5694 1.379 . S
C5694 H5678 0.931 . S
C5694 C5688 1.383 . S
C5694 C5693 1.379 . S
H5695 C5689 0.959 . S
H5696 C5689 0.961 . S
H5697 C5689 0.960 . S
H5698 C5690 0.930 . S
H5699 C5691 0.929 . S
H5700 C5708 0.929 . S
H5701 C5710 0.930 . S
H5702 C5712 0.930 . S
H5703 C5715 0.929 . S
H5704 C5718 0.930 . S
H5705 C5720 0.960 . S
H5706 C5720 0.960 . S
H5707 C5720 0.960 . S
C5708 H5700 0.929 . S
C5708 C5709 1.377 . S
C5708 C5710 1.384 . S
C5709 C5708 1.377 . S
C5709 C5715 1.390 . S
C5710 H5701 0.930 . S
C5710 C5708 1.384 . S
C5710 C5711 1.372 . S
C5711 C5710 1.372 . S
C5711 C5712 1.400 . S
C5711 C5716 1.490 . S
C5712 H5702 0.930 . S
C5712 C5711 1.400 . S
C5712 C5715 1.386 . S
H5713 C5729 0.930 . S
H5714 C5730 0.931 . S
C5715 H5703 0.929 . S
C5715 C5709 1.390 . S
C5715 C5712 1.386 . S
C5716 C5711 1.490 . S
C5716 C5718 1.395 . S
C5716 C5719 1.403 . S
H5717 C5723 0.930 . S
C5718 H5704 0.930 . S
C5718 C5716 1.395 . S
C5718 C5721 1.403 . S
C5719 C5716 1.403 . S
C5719 C5720 1.524 . S
C5719 C5723 1.400 . S
C5720 H5705 0.960 . S
C5720 H5706 0.960 . S
C5720 H5707 0.960 . S
C5720 C5719 1.524 . S
C5721 C5718 1.403 . S
C5721 C5722 1.392 . S
C5721 C5725 1.495 . S
C5722 C5721 1.392 . S
C5722 C5723 1.385 . S
C5722 C5724 1.478 . S
C5723 H5717 0.930 . S
C5723 C5719 1.400 . S
C5723 C5722 1.385 . S
C5724 C5722 1.478 . S
C5724 C5726 1.381 . S
C5724 C5730 1.383 . S
C5725 C5721 1.495 . S
C5725 H5731 0.959 . S
C5725 H5732 0.961 . S
C5725 H5733 0.960 . S
C5726 C5724 1.381 . S
C5726 C5727 1.394 . S
C5726 H5734 0.930 . S
C5727 C5726 1.394 . S
C5727 C5728 1.383 . S
C5727 H5735 0.929 . S
C5728 C5727 1.383 . S
C5728 C5729 1.377 . S
C5729 H5713 0.930 . S
C5729 C5728 1.377 . S
C5729 C5730 1.379 . S
C5730 H5714 0.931 . S
C5730 C5724 1.383 . S
C5730 C5729 1.379 . S
H5731 C5725 0.959 . S
H5732 C5725 0.961 . S
H5733 C5725 0.960 . S
H5734 C5726 0.930 . S
H5735 C5727 0.929 . S
H5736 C5744 0.929 . S
H5737 C5746 0.930 . S
H5738 C5748 0.930 . S
H5739 C5751 0.929 . S
H5740 C5754 0.930 . S
H5741 C5756 0.960 . S
H5742 C5756 0.960 . S
H5743 C5756 0.960 . S
C5744 H5736 0.929 . S
C5744 C5745 1.377 . S
C5744 C5746 1.384 . S
C5745 C5744 1.377 . S
C5745 C5751 1.390 . S
C5746 H5737 0.930 . S
C5746 C5744 1.384 . S
C5746 C5747 1.372 . S
C5747 C5746 1.372 . S
C5747 C5748 1.400 . S
C5747 C5752 1.490 . S
C5748 H5738 0.930 . S
C5748 C5747 1.400 . S
C5748 C5751 1.386 . S
H5749 C5765 0.930 . S
H5750 C5766 0.931 . S
C5751 H5739 0.929 . S
C5751 C5745 1.390 . S
C5751 C5748 1.386 . S
C5752 C5747 1.490 . S
C5752 C5754 1.395 . S
C5752 C5755 1.403 . S
H5753 C5759 0.930 . S
C5754 H5740 0.930 . S
C5754 C5752 1.395 . S
C5754 C5757 1.403 . S
C5755 C5752 1.403 . S
C5755 C5756 1.524 . S
C5755 C5759 1.400 . S
C5756 H5741 0.960 . S
C5756 H5742 0.960 . S
C5756 H5743 0.960 . S
C5756 C5755 1.524 . S
C5757 C5754 1.403 . S
C5757 C5758 1.392 . S
C5757 C5761 1.495 . S
C5758 C5757 1.392 . S
C5758 C5759 1.385 . S
C5758 C5760 1.478 . S
C5759 H5753 0.930 . S
C5759 C5755 1.400 . S
C5759 C5758 1.385 . S
C5760 C5758 1.478 . S
C5760 C5762 1.381 . S
C5760 C5766 1.383 . S
C5761 C5757 1.495 . S
C5761 H5767 0.959 . S
C5761 H5768 0.961 . S
C5761 H5769 0.960 . S
C5762 C5760 1.381 . S
C5762 C5763 1.394 . S
C5762 H5770 0.930 . S
C5763 C5762 1.394 . S
C5763 C5764 1.383 . S
C5763 H5771 0.929 . S
C5764 C5763 1.383 . S
C5764 C5765 1.377 . S
C5765 H5749 0.930 . S
C5765 C5764 1.377 . S
C5765 C5766 1.379 . S
C5766 H5750 0.931 . S
C5766 C5760 1.383 . S
C5766 C5765 1.379 . S
H5767 C5761 0.959 . S
H5768 C5761 0.961 . S
H5769 C5761 0.960 . S
H5770 C5762 0.930 . S
H5771 C5763 0.929 . S
H5772 C5780 0.929 . S
H5773 C5782 0.930 . S
H5774 C5784 0.930 . S
H5775 C5787 0.929 . S
H5776 C5790 0.930 . S
H5777 C5792 0.960 . S
H5778 C5792 0.960 . S
H5779 C5792 0.960 . S
C5780 H5772 0.929 . S
C5780 C5781 1.377 . S
C5780 C5782 1.384 . S
C5781 C5780 1.377 . S
C5781 C5787 1.390 . S
C5782 H5773 0.930 . S
C5782 C5780 1.384 . S
C5782 C5783 1.372 . S
C5783 C5782 1.372 . S
C5783 C5784 1.400 . S
C5783 C5788 1.490 . S
C5784 H5774 0.930 . S
C5784 C5783 1.400 . S
C5784 C5787 1.386 . S
H5785 C5801 0.930 . S
H5786 C5802 0.931 . S
C5787 H5775 0.929 . S
C5787 C5781 1.390 . S
C5787 C5784 1.386 . S
C5788 C5783 1.490 . S
C5788 C5790 1.395 . S
C5788 C5791 1.403 . S
H5789 C5795 0.930 . S
C5790 H5776 0.930 . S
C5790 C5788 1.395 . S
C5790 C5793 1.403 . S
C5791 C5788 1.403 . S
C5791 C5792 1.524 . S
C5791 C5795 1.400 . S
C5792 H5777 0.960 . S
C5792 H5778 0.960 . S
C5792 H5779 0.960 . S
C5792 C5791 1.524 . S
C5793 C5790 1.403 . S
C5793 C5794 1.392 . S
C5793 C5797 1.495 . S
C5794 C5793 1.392 . S
C5794 C5795 1.385 . S
C5794 C5796 1.478 . S
C5795 H5789 0.930 . S
C5795 C5791 1.400 . S
C5795 C5794 1.385 . S
C5796 C5794 1.478 . S
C5796 C5798 1.381 . S
C5796 C5802 1.383 . S
C5797 C5793 1.495 . S
C5797 H5803 0.959 . S
C5797 H5804 0.961 . S
C5797 H5805 0.960 . S
C5798 C5796 1.381 . S
C5798 C5799 1.394 . S
C5798 H5806 0.930 . S
C5799 C5798 1.394 . S
C5799 C5800 1.383 . S
C5799 H5807 0.929 . S
C5800 C5799 1.383 . S
C5800 C5801 1.377 . S
C5801 H5785 0.930 . S
C5801 C5800 1.377 . S
C5801 C5802 1.379 . S
C5802 H5786 0.931 . S
C5802 C5796 1.383 . S
C5802 C5801 1.379 . S
H5803 C5797 0.959 . S
H5804 C5797 0.961 . S
H5805 C5797 0.960 . S
H5806 C5798 0.930 . S
H5807 C5799 0.929 . S
H5808 C5816 0.929 . S
H5809 C5818 0.930 . S
H5810 C5820 0.930 . S
H5811 C5823 0.929 . S
H5812 C5826 0.930 . S
H5813 C5828 0.960 . S
H5814 C5828 0.960 . S
H5815 C5828 0.960 . S
C5816 H5808 0.929 . S
C5816 C5817 1.377 . S
C5816 C5818 1.384 . S
C5817 C5816 1.377 . S
C5817 C5823 1.390 . S
C5818 H5809 0.930 . S
C5818 C5816 1.384 . S
C5818 C5819 1.372 . S
C5819 C5818 1.372 . S
C5819 C5820 1.400 . S
C5819 C5824 1.490 . S
C5820 H5810 0.930 . S
C5820 C5819 1.400 . S
C5820 C5823 1.386 . S
H5821 C5837 0.930 . S
H5822 C5838 0.931 . S
C5823 H5811 0.929 . S
C5823 C5817 1.390 . S
C5823 C5820 1.386 . S
C5824 C5819 1.490 . S
C5824 C5826 1.395 . S
C5824 C5827 1.403 . S
H5825 C5831 0.930 . S
C5826 H5812 0.930 . S
C5826 C5824 1.395 . S
C5826 C5829 1.403 . S
C5827 C5824 1.403 . S
C5827 C5828 1.524 . S
C5827 C5831 1.400 . S
C5828 H5813 0.960 . S
C5828 H5814 0.960 . S
C5828 H5815 0.960 . S
C5828 C5827 1.524 . S
C5829 C5826 1.403 . S
C5829 C5830 1.392 . S
C5829 C5833 1.495 . S
C5830 C5829 1.392 . S
C5830 C5831 1.385 . S
C5830 C5832 1.478 . S
C5831 H5825 0.930 . S
C5831 C5827 1.400 . S
C5831 C5830 1.385 . S
C5832 C5830 1.478 . S
C5832 C5834 1.381 . S
C5832 C5838 1.383 . S
C5833 C5829 1.495 . S
C5833 H5839 0.959 . S
C5833 H5840 0.961 . S
C5833 H5841 0.960 . S
C5834 C5832 1.381 . S
C5834 C5835 1.394 . S
C5834 H5842 0.930 . S
C5835 C5834 1.394 . S
C5835 C5836 1.383 . S
C5835 H5843 0.929 . S
C5836 C5835 1.383 . S
C5836 C5837 1.377 . S
C5837 H5821 0.930 . S
C5837 C5836 1.377 . S
C5837 C5838 1.379 . S
C5838 H5822 0.931 . S
C5838 C5832 1.383 . S
C5838 C5837 1.379 . S
H5839 C5833 0.959 . S
H5840 C5833 0.961 . S
H5841 C5833 0.960 . S
H5842 C5834 0.930 . S
H5843 C5835 0.929 . S
H5844 C5852 0.929 . S
H5845 C5854 0.930 . S
H5846 C5856 0.930 . S
H5847 C5859 0.929 . S
H5848 C5862 0.930 . S
H5849 C5864 0.960 . S
H5850 C5864 0.960 . S
H5851 C5864 0.960 . S
C5852 H5844 0.929 . S
C5852 C5853 1.377 . S
C5852 C5854 1.384 . S
C5853 C5852 1.377 . S
C5853 C5859 1.390 . S
C5854 H5845 0.930 . S
C5854 C5852 1.384 . S
C5854 C5855 1.372 . S
C5855 C5854 1.372 . S
C5855 C5856 1.400 . S
C5855 C5860 1.490 . S
C5856 H5846 0.930 . S
C5856 C5855 1.400 . S
C5856 C5859 1.386 . S
H5857 C5873 0.930 . S
H5858 C5874 0.931 . S
C5859 H5847 0.929 . S
C5859 C5853 1.390 . S
C5859 C5856 1.386 . S
C5860 C5855 1.490 . S
C5860 C5862 1.395 . S
C5860 C5863 1.403 . S
H5861 C5867 0.930 . S
C5862 H5848 0.930 . S
C5862 C5860 1.395 . S
C5862 C5865 1.403 . S
C5863 C5860 1.403 . S
C5863 C5864 1.524 . S
C5863 C5867 1.400 . S
C5864 H5849 0.960 . S
C5864 H5850 0.960 . S
C5864 H5851 0.960 . S
C5864 C5863 1.524 . S
C5865 C5862 1.403 . S
C5865 C5866 1.392 . S
C5865 C5869 1.495 . S
C5866 C5865 1.392 . S
C5866 C5867 1.385 . S
C5866 C5868 1.478 . S
C5867 H5861 0.930 . S
C5867 C5863 1.400 . S
C5867 C5866 1.385 . S
C5868 C5866 1.478 . S
C5868 C5870 1.381 . S
C5868 C5874 1.383 . S
C5869 C5865 1.495 . S
C5869 H5875 0.959 . S
C5869 H5876 0.961 . S
C5869 H5877 0.960 . S
C5870 C5868 1.381 . S
C5870 C5871 1.394 . S
C5870 H5878 0.930 . S
C5871 C5870 1.394 . S
C5871 C5872 1.383 . S
C5871 H5879 0.929 . S
C5872 C5871 1.383 . S
C5872 C5873 1.377 . S
C5873 H5857 0.930 . S
C5873 C5872 1.377 . S
C5873 C5874 1.379 . S
C5874 H5858 0.931 . S
C5874 C5868 1.383 . S
C5874 C5873 1.379 . S
H5875 C5869 0.959 . S
H5876 C5869 0.961 . S
H5877 C5869 0.960 . S
H5878 C5870 0.930 . S
H5879 C5871 0.929 . S
H5880 C5888 0.929 . S
H5881 C5890 0.930 . S
H5882 C5892 0.930 . S
H5883 C5895 0.929 . S
H5884 C5898 0.930 . S
H5885 C5900 0.960 . S
H5886 C5900 0.960 . S
H5887 C5900 0.960 . S
C5888 H5880 0.929 . S
C5888 C5889 1.377 . S
C5888 C5890 1.384 . S
C5889 C5888 1.377 . S
C5889 C5895 1.390 . S
C5890 H5881 0.930 . S
C5890 C5888 1.384 . S
C5890 C5891 1.372 . S
C5891 C5890 1.372 . S
C5891 C5892 1.400 . S
C5891 C5896 1.490 . S
C5892 H5882 0.930 . S
C5892 C5891 1.400 . S
C5892 C5895 1.386 . S
H5893 C5909 0.930 . S
H5894 C5910 0.931 . S
C5895 H5883 0.929 . S
C5895 C5889 1.390 . S
C5895 C5892 1.386 . S
C5896 C5891 1.490 . S
C5896 C5898 1.395 . S
C5896 C5899 1.403 . S
H5897 C5903 0.930 . S
C5898 H5884 0.930 . S
C5898 C5896 1.395 . S
C5898 C5901 1.403 . S
C5899 C5896 1.403 . S
C5899 C5900 1.524 . S
C5899 C5903 1.400 . S
C5900 H5885 0.960 . S
C5900 H5886 0.960 . S
C5900 H5887 0.960 . S
C5900 C5899 1.524 . S
C5901 C5898 1.403 . S
C5901 C5902 1.392 . S
C5901 C5905 1.495 . S
C5902 C5901 1.392 . S
C5902 C5903 1.385 . S
C5902 C5904 1.478 . S
C5903 H5897 0.930 . S
C5903 C5899 1.400 . S
C5903 C5902 1.385 . S
C5904 C5902 1.478 . S
C5904 C5906 1.381 . S
C5904 C5910 1.383 . S
C5905 C5901 1.495 . S
C5905 H5911 0.959 . S
C5905 H5912 0.961 . S
C5905 H5913 0.960 . S
C5906 C5904 1.381 . S
C5906 C5907 1.394 . S
C5906 H5914 0.930 . S
C5907 C5906 1.394 . S
C5907 C5908 1.383 . S
C5907 H5915 0.929 . S
C5908 C5907 1.383 . S
C5908 C5909 1.377 . S
C5909 H5893 0.930 . S
C5909 C5908 1.377 . S
C5909 C5910 1.379 . S
C5910 H5894 0.931 . S
C5910 C5904 1.383 . S
C5910 C5909 1.379 . S
H5911 C5905 0.959 . S
H5912 C5905 0.961 . S
H5913 C5905 0.960 . S
H5914 C5906 0.930 . S
H5915 C5907 0.929 . S
H5916 C5924 0.929 . S
H5917 C5926 0.930 . S
H5918 C5928 0.930 . S
H5919 C5931 0.929 . S
H5920 C5934 0.930 . S
H5921 C5936 0.960 . S
H5922 C5936 0.960 . S
H5923 C5936 0.960 . S
C5924 H5916 0.929 . S
C5924 C5925 1.377 . S
C5924 C5926 1.384 . S
C5925 C5924 1.377 . S
C5925 C5931 1.390 . S
C5926 H5917 0.930 . S
C5926 C5924 1.384 . S
C5926 C5927 1.372 . S
C5927 C5926 1.372 . S
C5927 C5928 1.400 . S
C5927 C5932 1.490 . S
C5928 H5918 0.930 . S
C5928 C5927 1.400 . S
C5928 C5931 1.386 . S
H5929 C5945 0.930 . S
H5930 C5946 0.931 . S
C5931 H5919 0.929 . S
C5931 C5925 1.390 . S
C5931 C5928 1.386 . S
C5932 C5927 1.490 . S
C5932 C5934 1.395 . S
C5932 C5935 1.403 . S
H5933 C5939 0.930 . S
C5934 H5920 0.930 . S
C5934 C5932 1.395 . S
C5934 C5937 1.403 . S
C5935 C5932 1.403 . S
C5935 C5936 1.524 . S
C5935 C5939 1.400 . S
C5936 H5921 0.960 . S
C5936 H5922 0.960 . S
C5936 H5923 0.960 . S
C5936 C5935 1.524 . S
C5937 C5934 1.403 . S
C5937 C5938 1.392 . S
C5937 C5941 1.495 . S
C5938 C5937 1.392 . S
C5938 C5939 1.385 . S
C5938 C5940 1.478 . S
C5939 H5933 0.930 . S
C5939 C5935 1.400 . S
C5939 C5938 1.385 . S
C5940 C5938 1.478 . S
C5940 C5942 1.381 . S
C5940 C5946 1.383 . S
C5941 C5937 1.495 . S
C5941 H5947 0.959 . S
C5941 H5948 0.961 . S
C5941 H5949 0.960 . S
C5942 C5940 1.381 . S
C5942 C5943 1.394 . S
C5942 H5950 0.930 . S
C5943 C5942 1.394 . S
C5943 C5944 1.383 . S
C5943 H5951 0.929 . S
C5944 C5943 1.383 . S
C5944 C5945 1.377 . S
C5945 H5929 0.930 . S
C5945 C5944 1.377 . S
C5945 C5946 1.379 . S
C5946 H5930 0.931 . S
C5946 C5940 1.383 . S
C5946 C5945 1.379 . S
H5947 C5941 0.959 . S
H5948 C5941 0.961 . S
H5949 C5941 0.960 . S
H5950 C5942 0.930 . S
H5951 C5943 0.929 . S
H5952 C5960 0.929 . S
H5953 C5962 0.930 . S
H5954 C5964 0.930 . S
H5955 C5967 0.929 . S
H5956 C5970 0.930 . S
H5957 C5972 0.960 . S
H5958 C5972 0.960 . S
H5959 C5972 0.960 . S
C5960 H5952 0.929 . S
C5960 C5961 1.377 . S
C5960 C5962 1.384 . S
C5961 C5960 1.377 . S
C5961 C5967 1.390 . S
C5962 H5953 0.930 . S
C5962 C5960 1.384 . S
C5962 C5963 1.372 . S
C5963 C5962 1.372 . S
C5963 C5964 1.400 . S
C5963 C5968 1.490 . S
C5964 H5954 0.930 . S
C5964 C5963 1.400 . S
C5964 C5967 1.386 . S
H5965 C5981 0.930 . S
H5966 C5982 0.931 . S
C5967 H5955 0.929 . S
C5967 C5961 1.390 . S
C5967 C5964 1.386 . S
C5968 C5963 1.490 . S
C5968 C5970 1.395 . S
C5968 C5971 1.403 . S
H5969 C5975 0.930 . S
C5970 H5956 0.930 . S
C5970 C5968 1.395 . S
C5970 C5973 1.403 . S
C5971 C5968 1.403 . S
C5971 C5972 1.524 . S
C5971 C5975 1.400 . S
C5972 H5957 0.960 . S
C5972 H5958 0.960 . S
C5972 H5959 0.960 . S
C5972 C5971 1.524 . S
C5973 C5970 1.403 . S
C5973 C5974 1.392 . S
C5973 C5977 1.495 . S
C5974 C5973 1.392 . S
C5974 C5975 1.385 . S
C5974 C5976 1.478 . S
C5975 H5969 0.930 . S
C5975 C5971 1.400 . S
C5975 C5974 1.385 . S
C5976 C5974 1.478 . S
C5976 C5978 1.381 . S
C5976 C5982 1.383 . S
C5977 C5973 1.495 . S
C5977 H5983 0.959 . S
C5977 H5984 0.961 . S
C5977 H5985 0.960 . S
C5978 C5976 1.381 . S
C5978 C5979 1.394 . S
C5978 H5986 0.930 . S
C5979 C5978 1.394 . S
C5979 C5980 1.383 . S
C5979 H5987 0.929 . S
C5980 C5979 1.383 . S
C5980 C5981 1.377 . S
C5981 H5965 0.930 . S
C5981 C5980 1.377 . S
C5981 C5982 1.379 . S
C5982 H5966 0.931 . S
C5982 C5976 1.383 . S
C5982 C5981 1.379 . S
H5983 C5977 0.959 . S
H5984 C5977 0.961 . S
H5985 C5977 0.960 . S
H5986 C5978 0.930 . S
H5987 C5979 0.929 . S
H5988 C5996 0.929 . S
H5989 C5998 0.930 . S
H5990 C6000 0.930 . S
H5991 C6003 0.929 . S
H5992 C6006 0.930 . S
H5993 C6008 0.960 . S
H5994 C6008 0.960 . S
H5995 C6008 0.960 . S
C5996 H5988 0.929 . S
C5996 C5997 1.377 . S
C5996 C5998 1.384 . S
C5997 C5996 1.377 . S
C5997 C6003 1.390 . S
C5998 H5989 0.930 . S
C5998 C5996 1.384 . S
C5998 C5999 1.372 . S
C5999 C5998 1.372 . S
C5999 C6000 1.400 . S
C5999 C6004 1.490 . S
C6000 H5990 0.930 . S
C6000 C5999 1.400 . S
C6000 C6003 1.386 . S
H6001 C6017 0.930 . S
H6002 C6018 0.931 . S
C6003 H5991 0.929 . S
C6003 C5997 1.390 . S
C6003 C6000 1.386 . S
C6004 C5999 1.490 . S
C6004 C6006 1.395 . S
C6004 C6007 1.403 . S
H6005 C6011 0.930 . S
C6006 H5992 0.930 . S
C6006 C6004 1.395 . S
C6006 C6009 1.403 . S
C6007 C6004 1.403 . S
C6007 C6008 1.524 . S
C6007 C6011 1.400 . S
C6008 H5993 0.960 . S
C6008 H5994 0.960 . S
C6008 H5995 0.960 . S
C6008 C6007 1.524 . S
C6009 C6006 1.403 . S
C6009 C6010 1.392 . S
C6009 C6013 1.495 . S
C6010 C6009 1.392 . S
C6010 C6011 1.385 . S
C6010 C6012 1.478 . S
C6011 H6005 0.930 . S
C6011 C6007 1.400 . S
C6011 C6010 1.385 . S
C6012 C6010 1.478 . S
C6012 C6014 1.381 . S
C6012 C6018 1.383 . S
C6013 C6009 1.495 . S
C6013 H6019 0.959 . S
C6013 H6020 0.961 . S
C6013 H6021 0.960 . S
C6014 C6012 1.381 . S
C6014 C6015 1.394 . S
C6014 H6022 0.930 . S
C6015 C6014 1.394 . S
C6015 C6016 1.383 . S
C6015 H6023 0.929 . S
C6016 C6015 1.383 . S
C6016 C6017 1.377 . S
C6017 H6001 0.930 . S
C6017 C6016 1.377 . S
C6017 C6018 1.379 . S
C6018 H6002 0.931 . S
C6018 C6012 1.383 . S
C6018 C6017 1.379 . S
H6019 C6013 0.959 . S
H6020 C6013 0.961 . S
H6021 C6013 0.960 . S
H6022 C6014 0.930 . S
H6023 C6015 0.929 . S
H6024 C6032 0.929 . S
H6025 C6034 0.930 . S
H6026 C6036 0.930 . S
H6027 C6039 0.929 . S
H6028 C6042 0.930 . S
H6029 C6044 0.960 . S
H6030 C6044 0.960 . S
H6031 C6044 0.960 . S
C6032 H6024 0.929 . S
C6032 C6033 1.377 . S
C6032 C6034 1.384 . S
C6033 C6032 1.377 . S
C6033 C6039 1.390 . S
C6034 H6025 0.930 . S
C6034 C6032 1.384 . S
C6034 C6035 1.372 . S
C6035 C6034 1.372 . S
C6035 C6036 1.400 . S
C6035 C6040 1.490 . S
C6036 H6026 0.930 . S
C6036 C6035 1.400 . S
C6036 C6039 1.386 . S
H6037 C6053 0.930 . S
H6038 C6054 0.931 . S
C6039 H6027 0.929 . S
C6039 C6033 1.390 . S
C6039 C6036 1.386 . S
C6040 C6035 1.490 . S
C6040 C6042 1.395 . S
C6040 C6043 1.403 . S
H6041 C6047 0.930 . S
C6042 H6028 0.930 . S
C6042 C6040 1.395 . S
C6042 C6045 1.403 . S
C6043 C6040 1.403 . S
C6043 C6044 1.524 . S
C6043 C6047 1.400 . S
C6044 H6029 0.960 . S
C6044 H6030 0.960 . S
C6044 H6031 0.960 . S
C6044 C6043 1.524 . S
C6045 C6042 1.403 . S
C6045 C6046 1.392 . S
C6045 C6049 1.495 . S
C6046 C6045 1.392 . S
C6046 C6047 1.385 . S
C6046 C6048 1.478 . S
C6047 H6041 0.930 . S
C6047 C6043 1.400 . S
C6047 C6046 1.385 . S
C6048 C6046 1.478 . S
C6048 C6050 1.381 . S
C6048 C6054 1.383 . S
C6049 C6045 1.495 . S
C6049 H6055 0.959 . S
C6049 H6056 0.961 . S
C6049 H6057 0.960 . S
C6050 C6048 1.381 . S
C6050 C6051 1.394 . S
C6050 H6058 0.930 . S
C6051 C6050 1.394 . S
C6051 C6052 1.383 . S
C6051 H6059 0.929 . S
C6052 C6051 1.383 . S
C6052 C6053 1.377 . S
C6053 H6037 0.930 . S
C6053 C6052 1.377 . S
C6053 C6054 1.379 . S
C6054 H6038 0.931 . S
C6054 C6048 1.383 . S
C6054 C6053 1.379 . S
H6055 C6049 0.959 . S
H6056 C6049 0.961 . S
H6057 C6049 0.960 . S
H6058 C6050 0.930 . S
H6059 C6051 0.929 . S
H6060 C6068 0.929 . S
H6061 C6070 0.930 . S
H6062 C6072 0.930 . S
H6063 C6075 0.929 . S
H6064 C6078 0.930 . S
H6065 C6080 0.960 . S
H6066 C6080 0.960 . S
H6067 C6080 0.960 . S
C6068 H6060 0.929 . S
C6068 C6069 1.377 . S
C6068 C6070 1.384 . S
C6069 C6068 1.377 . S
C6069 C6075 1.390 . S
C6070 H6061 0.930 . S
C6070 C6068 1.384 . S
C6070 C6071 1.372 . S
C6071 C6070 1.372 . S
C6071 C6072 1.400 . S
C6071 C6076 1.490 . S
C6072 H6062 0.930 . S
C6072 C6071 1.400 . S
C6072 C6075 1.386 . S
H6073 C6089 0.930 . S
H6074 C6090 0.931 . S
C6075 H6063 0.929 . S
C6075 C6069 1.390 . S
C6075 C6072 1.386 . S
C6076 C6071 1.490 . S
C6076 C6078 1.395 . S
C6076 C6079 1.403 . S
H6077 C6083 0.930 . S
C6078 H6064 0.930 . S
C6078 C6076 1.395 . S
C6078 C6081 1.403 . S
C6079 C6076 1.403 . S
C6079 C6080 1.524 . S
C6079 C6083 1.400 . S
C6080 H6065 0.960 . S
C6080 H6066 0.960 . S
C6080 H6067 0.960 . S
C6080 C6079 1.524 . S
C6081 C6078 1.403 . S
C6081 C6082 1.392 . S
C6081 C6085 1.495 . S
C6082 C6081 1.392 . S
C6082 C6083 1.385 . S
C6082 C6084 1.478 . S
C6083 H6077 0.930 . S
C6083 C6079 1.400 . S
C6083 C6082 1.385 . S
C6084 C6082 1.478 . S
C6084 C6086 1.381 . S
C6084 C6090 1.383 . S
C6085 C6081 1.495 . S
C6085 H6091 0.959 . S
C6085 H6092 0.961 . S
C6085 H6093 0.960 . S
C6086 C6084 1.381 . S
C6086 C6087 1.394 . S
C6086 H6094 0.930 . S
C6087 C6086 1.394 . S
C6087 C6088 1.383 . S
C6087 H6095 0.929 . S
C6088 C6087 1.383 . S
C6088 C6089 1.377 . S
C6089 H6073 0.930 . S
C6089 C6088 1.377 . S
C6089 C6090 1.379 . S
C6090 H6074 0.931 . S
C6090 C6084 1.383 . S
C6090 C6089 1.379 . S
H6091 C6085 0.959 . S
H6092 C6085 0.961 . S
H6093 C6085 0.960 . S
H6094 C6086 0.930 . S
H6095 C6087 0.929 . S
H6096 C6104 0.929 . S
H6097 C6106 0.930 . S
H6098 C6108 0.930 . S
H6099 C6111 0.929 . S
H6100 C6114 0.930 . S
H6101 C6116 0.960 . S
H6102 C6116 0.960 . S
H6103 C6116 0.960 . S
C6104 H6096 0.929 . S
C6104 C6105 1.377 . S
C6104 C6106 1.384 . S
C6105 C6104 1.377 . S
C6105 C6111 1.390 . S
C6106 H6097 0.930 . S
C6106 C6104 1.384 . S
C6106 C6107 1.372 . S
C6107 C6106 1.372 . S
C6107 C6108 1.400 . S
C6107 C6112 1.490 . S
C6108 H6098 0.930 . S
C6108 C6107 1.400 . S
C6108 C6111 1.386 . S
H6109 C6125 0.930 . S
H6110 C6126 0.931 . S
C6111 H6099 0.929 . S
C6111 C6105 1.390 . S
C6111 C6108 1.386 . S
C6112 C6107 1.490 . S
C6112 C6114 1.395 . S
C6112 C6115 1.403 . S
H6113 C6119 0.930 . S
C6114 H6100 0.930 . S
C6114 C6112 1.395 . S
C6114 C6117 1.403 . S
C6115 C6112 1.403 . S
C6115 C6116 1.524 . S
C6115 C6119 1.400 . S
C6116 H6101 0.960 . S
C6116 H6102 0.960 . S
C6116 H6103 0.960 . S
C6116 C6115 1.524 . S
C6117 C6114 1.403 . S
C6117 C6118 1.392 . S
C6117 C6121 1.495 . S
C6118 C6117 1.392 . S
C6118 C6119 1.385 . S
C6118 C6120 1.478 . S
C6119 H6113 0.930 . S
C6119 C6115 1.400 . S
C6119 C6118 1.385 . S
C6120 C6118 1.478 . S
C6120 C6122 1.381 . S
C6120 C6126 1.383 . S
C6121 C6117 1.495 . S
C6121 H6127 0.959 . S
C6121 H6128 0.961 . S
C6121 H6129 0.960 . S
C6122 C6120 1.381 . S
C6122 C6123 1.394 . S
C6122 H6130 0.930 . S
C6123 C6122 1.394 . S
C6123 C6124 1.383 . S
C6123 H6131 0.929 . S
C6124 C6123 1.383 . S
C6124 C6125 1.377 . S
C6125 H6109 0.930 . S
C6125 C6124 1.377 . S
C6125 C6126 1.379 . S
C6126 H6110 0.931 . S
C6126 C6120 1.383 . S
C6126 C6125 1.379 . S
H6127 C6121 0.959 . S
H6128 C6121 0.961 . S
H6129 C6121 0.960 . S
H6130 C6122 0.930 . S
H6131 C6123 0.929 . S
H6132 C6140 0.929 . S
H6133 C6142 0.930 . S
H6134 C6144 0.930 . S
H6135 C6147 0.929 . S
H6136 C6150 0.930 . S
H6137 C6152 0.960 . S
H6138 C6152 0.960 . S
H6139 C6152 0.960 . S
C6140 H6132 0.929 . S
C6140 C6141 1.377 . S
C6140 C6142 1.384 . S
C6141 C6140 1.377 . S
C6141 C6147 1.390 . S
C6142 H6133 0.930 . S
C6142 C6140 1.384 . S
C6142 C6143 1.372 . S
C6143 C6142 1.372 . S
C6143 C6144 1.400 . S
C6143 C6148 1.490 . S
C6144 H6134 0.930 . S
C6144 C6143 1.400 . S
C6144 C6147 1.386 . S
H6145 C6161 0.930 . S
H6146 C6162 0.931 . S
C6147 H6135 0.929 . S
C6147 C6141 1.390 . S
C6147 C6144 1.386 . S
C6148 C6143 1.490 . S
C6148 C6150 1.395 . S
C6148 C6151 1.403 . S
H6149 C6155 0.930 . S
C6150 H6136 0.930 . S
C6150 C6148 1.395 . S
C6150 C6153 1.403 . S
C6151 C6148 1.403 . S
C6151 C6152 1.524 . S
C6151 C6155 1.400 . S
C6152 H6137 0.960 . S
C6152 H6138 0.960 . S
C6152 H6139 0.960 . S
C6152 C6151 1.524 . S
C6153 C6150 1.403 . S
C6153 C6154 1.392 . S
C6153 C6157 1.495 . S
C6154 C6153 1.392 . S
C6154 C6155 1.385 . S
C6154 C6156 1.478 . S
C6155 H6149 0.930 . S
C6155 C6151 1.400 . S
C6155 C6154 1.385 . S
C6156 C6154 1.478 . S
C6156 C6158 1.381 . S
C6156 C6162 1.383 . S
C6157 C6153 1.495 . S
C6157 H6163 0.959 . S
C6157 H6164 0.961 . S
C6157 H6165 0.960 . S
C6158 C6156 1.381 . S
C6158 C6159 1.394 . S
C6158 H6166 0.930 . S
C6159 C6158 1.394 . S
C6159 C6160 1.383 . S
C6159 H6167 0.929 . S
C6160 C6159 1.383 . S
C6160 C6161 1.377 . S
C6161 H6145 0.930 . S
C6161 C6160 1.377 . S
C6161 C6162 1.379 . S
C6162 H6146 0.931 . S
C6162 C6156 1.383 . S
C6162 C6161 1.379 . S
H6163 C6157 0.959 . S
H6164 C6157 0.961 . S
H6165 C6157 0.960 . S
H6166 C6158 0.930 . S
H6167 C6159 0.929 . S
H6168 C6176 0.929 . S
H6169 C6178 0.930 . S
H6170 C6180 0.930 . S
H6171 C6183 0.929 . S
H6172 C6186 0.930 . S
H6173 C6188 0.960 . S
H6174 C6188 0.960 . S
H6175 C6188 0.960 . S
C6176 H6168 0.929 . S
C6176 C6177 1.377 . S
C6176 C6178 1.384 . S
C6177 C6176 1.377 . S
C6177 C6183 1.390 . S
C6178 H6169 0.930 . S
C6178 C6176 1.384 . S
C6178 C6179 1.372 . S
C6179 C6178 1.372 . S
C6179 C6180 1.400 . S
C6179 C6184 1.490 . S
C6180 H6170 0.930 . S
C6180 C6179 1.400 . S
C6180 C6183 1.386 . S
H6181 C6197 0.930 . S
H6182 C6198 0.931 . S
C6183 H6171 0.929 . S
C6183 C6177 1.390 . S
C6183 C6180 1.386 . S
C6184 C6179 1.490 . S
C6184 C6186 1.395 . S
C6184 C6187 1.403 . S
H6185 C6191 0.930 . S
C6186 H6172 0.930 . S
C6186 C6184 1.395 . S
C6186 C6189 1.403 . S
C6187 C6184 1.403 . S
C6187 C6188 1.524 . S
C6187 C6191 1.400 . S
C6188 H6173 0.960 . S
C6188 H6174 0.960 . S
C6188 H6175 0.960 . S
C6188 C6187 1.524 . S
C6189 C6186 1.403 . S
C6189 C6190 1.392 . S
C6189 C6193 1.495 . S
C6190 C6189 1.392 . S
C6190 C6191 1.385 . S
C6190 C6192 1.478 . S
C6191 H6185 0.930 . S
C6191 C6187 1.400 . S
C6191 C6190 1.385 . S
C6192 C6190 1.478 . S
C6192 C6194 1.381 . S
C6192 C6198 1.383 . S
C6193 C6189 1.495 . S
C6193 H6199 0.959 . S
C6193 H6200 0.961 . S
C6193 H6201 0.960 . S
C6194 C6192 1.381 . S
C6194 C6195 1.394 . S
C6194 H6202 0.930 . S
C6195 C6194 1.394 . S
C6195 C6196 1.383 . S
C6195 H6203 0.929 . S
C6196 C6195 1.383 . S
C6196 C6197 1.377 . S
C6197 H6181 0.930 . S
C6197 C6196 1.377 . S
C6197 C6198 1.379 . S
C6198 H6182 0.931 . S
C6198 C6192 1.383 . S
C6198 C6197 1.379 . S
H6199 C6193 0.959 . S
H6200 C6193 0.961 . S
H6201 C6193 0.960 . S
H6202 C6194 0.930 . S
H6203 C6195 0.929 . S
H6204 C6212 0.929 . S
H6205 C6214 0.930 . S
H6206 C6216 0.930 . S
H6207 C6219 0.929 . S
H6208 C6222 0.930 . S
H6209 C6224 0.960 . S
H6210 C6224 0.960 . S
H6211 C6224 0.960 . S
C6212 H6204 0.929 . S
C6212 C6213 1.377 . S
C6212 C6214 1.384 . S
C6213 C6212 1.377 . S
C6213 C6219 1.390 . S
C6214 H6205 0.930 . S
C6214 C6212 1.384 . S
C6214 C6215 1.372 . S
C6215 C6214 1.372 . S
C6215 C6216 1.400 . S
C6215 C6220 1.490 . S
C6216 H6206 0.930 . S
C6216 C6215 1.400 . S
C6216 C6219 1.386 . S
H6217 C6233 0.930 . S
H6218 C6234 0.931 . S
C6219 H6207 0.929 . S
C6219 C6213 1.390 . S
C6219 C6216 1.386 . S
C6220 C6215 1.490 . S
C6220 C6222 1.395 . S
C6220 C6223 1.403 . S
H6221 C6227 0.930 . S
C6222 H6208 0.930 . S
C6222 C6220 1.395 . S
C6222 C6225 1.403 . S
C6223 C6220 1.403 . S
C6223 C6224 1.524 . S
C6223 C6227 1.400 . S
C6224 H6209 0.960 . S
C6224 H6210 0.960 . S
C6224 H6211 0.960 . S
C6224 C6223 1.524 . S
C6225 C6222 1.403 . S
C6225 C6226 1.392 . S
C6225 C6229 1.495 . S
C6226 C6225 1.392 . S
C6226 C6227 1.385 . S
C6226 C6228 1.478 . S
C6227 H6221 0.930 . S
C6227 C6223 1.400 . S
C6227 C6226 1.385 . S
C6228 C6226 1.478 . S
C6228 C6230 1.381 . S
C6228 C6234 1.383 . S
C6229 C6225 1.495 . S
C6229 H6235 0.959 . S
C6229 H6236 0.961 . S
C6229 H6237 0.960 . S
C6230 C6228 1.381 . S
C6230 C6231 1.394 . S
C6230 H6238 0.930 . S
C6231 C6230 1.394 . S
C6231 C6232 1.383 . S
C6231 H6239 0.929 . S
C6232 C6231 1.383 . S
C6232 C6233 1.377 . S
C6233 H6217 0.930 . S
C6233 C6232 1.377 . S
C6233 C6234 1.379 . S
C6234 H6218 0.931 . S
C6234 C6228 1.383 . S
C6234 C6233 1.379 . S
H6235 C6229 0.959 . S
H6236 C6229 0.961 . S
H6237 C6229 0.960 . S
H6238 C6230 0.930 . S
H6239 C6231 0.929 . S
H6240 C6248 0.929 . S
H6241 C6250 0.930 . S
H6242 C6252 0.930 . S
H6243 C6255 0.929 . S
H6244 C6258 0.930 . S
H6245 C6260 0.960 . S
H6246 C6260 0.960 . S
H6247 C6260 0.960 . S
C6248 H6240 0.929 . S
C6248 C6249 1.377 . S
C6248 C6250 1.384 . S
C6249 C6248 1.377 . S
C6249 C6255 1.390 . S
C6250 H6241 0.930 . S
C6250 C6248 1.384 . S
C6250 C6251 1.372 . S
C6251 C6250 1.372 . S
C6251 C6252 1.400 . S
C6251 C6256 1.490 . S
C6252 H6242 0.930 . S
C6252 C6251 1.400 . S
C6252 C6255 1.386 . S
H6253 C6269 0.930 . S
H6254 C6270 0.931 . S
C6255 H6243 0.929 . S
C6255 C6249 1.390 . S
C6255 C6252 1.386 . S
C6256 C6251 1.490 . S
C6256 C6258 1.395 . S
C6256 C6259 1.403 . S
H6257 C6263 0.930 . S
C6258 H6244 0.930 . S
C6258 C6256 1.395 . S
C6258 C6261 1.403 . S
C6259 C6256 1.403 . S
C6259 C6260 1.524 . S
C6259 C6263 1.400 . S
C6260 H6245 0.960 . S
C6260 H6246 0.960 . S
C6260 H6247 0.960 . S
C6260 C6259 1.524 . S
C6261 C6258 1.403 . S
C6261 C6262 1.392 . S
C6261 C6265 1.495 . S
C6262 C6261 1.392 . S
C6262 C6263 1.385 . S
C6262 C6264 1.478 . S
C6263 H6257 0.930 . S
C6263 C6259 1.400 . S
C6263 C6262 1.385 . S
C6264 C6262 1.478 . S
C6264 C6266 1.381 . S
C6264 C6270 1.383 . S
C6265 C6261 1.495 . S
C6265 H6271 0.959 . S
C6265 H6272 0.961 . S
C6265 H6273 0.960 . S
C6266 C6264 1.381 . S
C6266 C6267 1.394 . S
C6266 H6274 0.930 . S
C6267 C6266 1.394 . S
C6267 C6268 1.383 . S
C6267 H6275 0.929 . S
C6268 C6267 1.383 . S
C6268 C6269 1.377 . S
C6269 H6253 0.930 . S
C6269 C6268 1.377 . S
C6269 C6270 1.379 . S
C6270 H6254 0.931 . S
C6270 C6264 1.383 . S
C6270 C6269 1.379 . S
H6271 C6265 0.959 . S
H6272 C6265 0.961 . S
H6273 C6265 0.960 . S
H6274 C6266 0.930 . S
H6275 C6267 0.929 . S
H6276 C6284 0.929 . S
H6277 C6286 0.930 . S
H6278 C6288 0.930 . S
H6279 C6291 0.929 . S
H6280 C6294 0.930 . S
H6281 C6296 0.960 . S
H6282 C6296 0.960 . S
H6283 C6296 0.960 . S
C6284 H6276 0.929 . S
C6284 C6285 1.377 . S
C6284 C6286 1.384 . S
C6285 C6284 1.377 . S
C6285 C6291 1.390 . S
C6286 H6277 0.930 . S
C6286 C6284 1.384 . S
C6286 C6287 1.372 . S
C6287 C6286 1.372 . S
C6287 C6288 1.400 . S
C6287 C6292 1.490 . S
C6288 H6278 0.930 . S
C6288 C6287 1.400 . S
C6288 C6291 1.386 . S
H6289 C6305 0.930 . S
H6290 C6306 0.931 . S
C6291 H6279 0.929 . S
C6291 C6285 1.390 . S
C6291 C6288 1.386 . S
C6292 C6287 1.490 . S
C6292 C6294 1.395 . S
C6292 C6295 1.403 . S
H6293 C6299 0.930 . S
C6294 H6280 0.930 . S
C6294 C6292 1.395 . S
C6294 C6297 1.403 . S
C6295 C6292 1.403 . S
C6295 C6296 1.524 . S
C6295 C6299 1.400 . S
C6296 H6281 0.960 . S
C6296 H6282 0.960 . S
C6296 H6283 0.960 . S
C6296 C6295 1.524 . S
C6297 C6294 1.403 . S
C6297 C6298 1.392 . S
C6297 C6301 1.495 . S
C6298 C6297 1.392 . S
C6298 C6299 1.385 . S
C6298 C6300 1.478 . S
C6299 H6293 0.930 . S
C6299 C6295 1.400 . S
C6299 C6298 1.385 . S
C6300 C6298 1.478 . S
C6300 C6302 1.381 . S
C6300 C6306 1.383 . S
C6301 C6297 1.495 . S
C6301 H6307 0.959 . S
C6301 H6308 0.961 . S
C6301 H6309 0.960 . S
C6302 C6300 1.381 . S
C6302 C6303 1.394 . S
C6302 H6310 0.930 . S
C6303 C6302 1.394 . S
C6303 C6304 1.383 . S
C6303 H6311 0.923 . S
C6304 C6303 1.383 . S
C6304 C6305 1.377 . S
C6305 H6289 0.930 . S
C6305 C6304 1.377 . S
C6305 C6306 1.379 . S
C6306 H6290 0.931 . S
C6306 C6300 1.383 . S
C6306 C6305 1.379 . S
H6307 C6301 0.959 . S
H6308 C6301 0.961 . S
H6309 C6301 0.960 . S
H6310 C6302 0.930 . S
H6311 C6303 0.923 . S
H6312 C6320 0.929 . S
H6313 C6322 0.930 . S
H6314 C6324 0.930 . S
H6315 C6327 0.929 . S
H6316 C6330 0.930 . S
H6317 C6332 0.960 . S
H6318 C6332 0.960 . S
H6319 C6332 0.960 . S
C6320 H6312 0.929 . S
C6320 C6321 1.377 . S
C6320 C6322 1.384 . S
C6321 C6320 1.377 . S
C6321 C6327 1.390 . S
C6322 H6313 0.930 . S
C6322 C6320 1.384 . S
C6322 C6323 1.372 . S
C6323 C6322 1.372 . S
C6323 C6324 1.400 . S
C6323 C6328 1.490 . S
C6324 H6314 0.930 . S
C6324 C6323 1.400 . S
C6324 C6327 1.386 . S
H6325 C6341 0.930 . S
H6326 C6342 0.931 . S
C6327 H6315 0.929 . S
C6327 C6321 1.390 . S
C6327 C6324 1.386 . S
C6328 C6323 1.490 . S
C6328 C6330 1.395 . S
C6328 C6331 1.403 . S
H6329 C6335 0.930 . S
C6330 H6316 0.930 . S
C6330 C6328 1.395 . S
C6330 C6333 1.403 . S
C6331 C6328 1.403 . S
C6331 C6332 1.524 . S
C6331 C6335 1.400 . S
C6332 H6317 0.960 . S
C6332 H6318 0.960 . S
C6332 H6319 0.960 . S
C6332 C6331 1.524 . S
C6333 C6330 1.403 . S
C6333 C6334 1.392 . S
C6333 C6337 1.495 . S
C6334 C6333 1.392 . S
C6334 C6335 1.385 . S
C6334 C6336 1.478 . S
C6335 H6329 0.930 . S
C6335 C6331 1.400 . S
C6335 C6334 1.385 . S
C6336 C6334 1.478 . S
C6336 C6338 1.381 . S
C6336 C6342 1.383 . S
C6337 C6333 1.495 . S
C6337 H6343 0.959 . S
C6337 H6344 0.961 . S
C6337 H6345 0.960 . S
C6338 C6336 1.381 . S
C6338 C6339 1.394 . S
C6338 H6346 0.930 . S
C6339 C6338 1.394 . S
C6339 C6340 1.383 . S
C6339 H6347 0.929 . S
C6340 C6339 1.383 . S
C6340 C6341 1.377 . S
C6341 H6325 0.930 . S
C6341 C6340 1.377 . S
C6341 C6342 1.379 . S
C6342 H6326 0.931 . S
C6342 C6336 1.383 . S
C6342 C6341 1.379 . S
H6343 C6337 0.959 . S
H6344 C6337 0.961 . S
H6345 C6337 0.960 . S
H6346 C6338 0.930 . S
H6347 C6339 0.929 . S
H6348 C6356 0.929 . S
H6349 C6358 0.930 . S
H6350 C6360 0.930 . S
H6351 C6363 0.929 . S
H6352 C6366 0.930 . S
H6353 C6368 0.960 . S
H6354 C6368 0.960 . S
H6355 C6368 0.960 . S
C6356 H6348 0.929 . S
C6356 C6357 1.377 . S
C6356 C6358 1.384 . S
C6357 C6356 1.377 . S
C6357 C6363 1.390 . S
C6358 H6349 0.930 . S
C6358 C6356 1.384 . S
C6358 C6359 1.372 . S
C6359 C6358 1.372 . S
C6359 C6360 1.400 . S
C6359 C6364 1.490 . S
C6360 H6350 0.930 . S
C6360 C6359 1.400 . S
C6360 C6363 1.386 . S
H6361 C6377 0.930 . S
H6362 C6378 0.931 . S
C6363 H6351 0.929 . S
C6363 C6357 1.390 . S
C6363 C6360 1.386 . S
C6364 C6359 1.490 . S
C6364 C6366 1.395 . S
C6364 C6367 1.403 . S
H6365 C6371 0.930 . S
C6366 H6352 0.930 . S
C6366 C6364 1.395 . S
C6366 C6369 1.403 . S
C6367 C6364 1.403 . S
C6367 C6368 1.524 . S
C6367 C6371 1.400 . S
C6368 H6353 0.960 . S
C6368 H6354 0.960 . S
C6368 H6355 0.960 . S
C6368 C6367 1.524 . S
C6369 C6366 1.403 . S
C6369 C6370 1.392 . S
C6369 C6373 1.495 . S
C6370 C6369 1.392 . S
C6370 C6371 1.385 . S
C6370 C6372 1.478 . S
C6371 H6365 0.930 . S
C6371 C6367 1.400 . S
C6371 C6370 1.385 . S
C6372 C6370 1.478 . S
C6372 C6374 1.381 . S
C6372 C6378 1.383 . S
C6373 C6369 1.495 . S
C6373 H6379 0.959 . S
C6373 H6380 0.961 . S
C6373 H6381 0.960 . S
C6374 C6372 1.381 . S
C6374 C6375 1.394 . S
C6374 H6382 0.930 . S
C6375 C6374 1.394 . S
C6375 C6376 1.383 . S
C6375 H6383 0.929 . S
C6376 C6375 1.383 . S
C6376 C6377 1.377 . S
C6377 H6361 0.930 . S
C6377 C6376 1.377 . S
C6377 C6378 1.379 . S
C6378 H6362 0.931 . S
C6378 C6372 1.383 . S
C6378 C6377 1.379 . S
H6379 C6373 0.959 . S
H6380 C6373 0.961 . S
H6381 C6373 0.960 . S
H6382 C6374 0.930 . S
H6383 C6375 0.929 . S
H6384 C6392 0.929 . S
H6385 C6394 0.930 . S
H6386 C6396 0.930 . S
H6387 C6399 0.929 . S
H6388 C6402 0.930 . S
H6389 C6404 0.960 . S
H6390 C6404 0.960 . S
H6391 C6404 0.960 . S
C6392 H6384 0.929 . S
C6392 C6393 1.377 . S
C6392 C6394 1.384 . S
C6393 C6392 1.377 . S
C6393 C6399 1.390 . S
C6394 H6385 0.930 . S
C6394 C6392 1.384 . S
C6394 C6395 1.372 . S
C6395 C6394 1.372 . S
C6395 C6396 1.400 . S
C6395 C6400 1.490 . S
C6396 H6386 0.930 . S
C6396 C6395 1.400 . S
C6396 C6399 1.386 . S
H6397 C6413 0.930 . S
H6398 C6414 0.931 . S
C6399 H6387 0.929 . S
C6399 C6393 1.390 . S
C6399 C6396 1.386 . S
C6400 C6395 1.490 . S
C6400 C6402 1.395 . S
C6400 C6403 1.403 . S
H6401 C6407 0.930 . S
C6402 H6388 0.930 . S
C6402 C6400 1.395 . S
C6402 C6405 1.403 . S
C6403 C6400 1.403 . S
C6403 C6404 1.524 . S
C6403 C6407 1.400 . S
C6404 H6389 0.960 . S
C6404 H6390 0.960 . S
C6404 H6391 0.960 . S
C6404 C6403 1.524 . S
C6405 C6402 1.403 . S
C6405 C6406 1.392 . S
C6405 C6409 1.495 . S
C6406 C6405 1.392 . S
C6406 C6407 1.385 . S
C6406 C6408 1.478 . S
C6407 H6401 0.930 . S
C6407 C6403 1.400 . S
C6407 C6406 1.385 . S
C6408 C6406 1.478 . S
C6408 C6410 1.381 . S
C6408 C6414 1.383 . S
C6409 C6405 1.495 . S
C6409 H6415 0.959 . S
C6409 H6416 0.961 . S
C6409 H6417 0.960 . S
C6410 C6408 1.381 . S
C6410 C6411 1.394 . S
C6410 H6418 0.930 . S
C6411 C6410 1.394 . S
C6411 C6412 1.383 . S
C6411 H6419 0.929 . S
C6412 C6411 1.383 . S
C6412 C6413 1.377 . S
C6413 H6397 0.930 . S
C6413 C6412 1.377 . S
C6413 C6414 1.379 . S
C6414 H6398 0.931 . S
C6414 C6408 1.383 . S
C6414 C6413 1.379 . S
H6415 C6409 0.959 . S
H6416 C6409 0.961 . S
H6417 C6409 0.960 . S
H6418 C6410 0.930 . S
H6419 C6411 0.929 . S
H6420 C6428 0.929 . S
H6421 C6430 0.930 . S
H6422 C6432 0.930 . S
H6423 C6435 0.929 . S
H6424 C6438 0.930 . S
H6425 C6440 0.960 . S
H6426 C6440 0.960 . S
H6427 C6440 0.960 . S
C6428 H6420 0.929 . S
C6428 C6429 1.377 . S
C6428 C6430 1.384 . S
C6429 C6428 1.377 . S
C6429 C6435 1.390 . S
C6430 H6421 0.930 . S
C6430 C6428 1.384 . S
C6430 C6431 1.372 . S
C6431 C6430 1.372 . S
C6431 C6432 1.400 . S
C6431 C6436 1.490 . S
C6432 H6422 0.930 . S
C6432 C6431 1.400 . S
C6432 C6435 1.386 . S
H6433 C6449 0.930 . S
H6434 C6450 0.931 . S
C6435 H6423 0.929 . S
C6435 C6429 1.390 . S
C6435 C6432 1.386 . S
C6436 C6431 1.490 . S
C6436 C6438 1.395 . S
C6436 C6439 1.403 . S
H6437 C6443 0.930 . S
C6438 H6424 0.930 . S
C6438 C6436 1.395 . S
C6438 C6441 1.403 . S
C6439 C6436 1.403 . S
C6439 C6440 1.524 . S
C6439 C6443 1.400 . S
C6440 H6425 0.960 . S
C6440 H6426 0.960 . S
C6440 H6427 0.960 . S
C6440 C6439 1.524 . S
C6441 C6438 1.403 . S
C6441 C6442 1.392 . S
C6441 C6445 1.495 . S
C6442 C6441 1.392 . S
C6442 C6443 1.385 . S
C6442 C6444 1.478 . S
C6443 H6437 0.930 . S
C6443 C6439 1.400 . S
C6443 C6442 1.385 . S
C6444 C6442 1.478 . S
C6444 C6446 1.381 . S
C6444 C6450 1.383 . S
C6445 C6441 1.495 . S
C6445 H6451 0.959 . S
C6445 H6452 0.961 . S
C6445 H6453 0.960 . S
C6446 C6444 1.381 . S
C6446 C6447 1.394 . S
C6446 H6454 0.930 . S
C6447 C6446 1.394 . S
C6447 C6448 1.383 . S
C6447 H6455 0.929 . S
C6448 C6447 1.383 . S
C6448 C6449 1.377 . S
C6449 H6433 0.930 . S
C6449 C6448 1.377 . S
C6449 C6450 1.379 . S
C6450 H6434 0.931 . S
C6450 C6444 1.383 . S
C6450 C6449 1.379 . S
H6451 C6445 0.959 . S
H6452 C6445 0.961 . S
H6453 C6445 0.960 . S
H6454 C6446 0.930 . S
H6455 C6447 0.929 . S
H6456 C6464 0.929 . S
H6457 C6466 0.930 . S
H6458 C6468 0.930 . S
H6459 C6471 0.929 . S
H6460 C6474 0.930 . S
H6461 C6476 0.960 . S
H6462 C6476 0.960 . S
H6463 C6476 0.960 . S
C6464 H6456 0.929 . S
C6464 C6465 1.377 . S
C6464 C6466 1.384 . S
C6465 C6464 1.377 . S
C6465 C6471 1.390 . S
C6466 H6457 0.930 . S
C6466 C6464 1.384 . S
C6466 C6467 1.372 . S
C6467 C6466 1.372 . S
C6467 C6468 1.400 . S
C6467 C6472 1.490 . S
C6468 H6458 0.930 . S
C6468 C6467 1.400 . S
C6468 C6471 1.386 . S
H6469 C6485 0.930 . S
H6470 C6486 0.931 . S
C6471 H6459 0.929 . S
C6471 C6465 1.390 . S
C6471 C6468 1.386 . S
C6472 C6467 1.490 . S
C6472 C6474 1.395 . S
C6472 C6475 1.403 . S
H6473 C6479 0.930 . S
C6474 H6460 0.930 . S
C6474 C6472 1.395 . S
C6474 C6477 1.403 . S
C6475 C6472 1.403 . S
C6475 C6476 1.524 . S
C6475 C6479 1.400 . S
C6476 H6461 0.960 . S
C6476 H6462 0.960 . S
C6476 H6463 0.960 . S
C6476 C6475 1.524 . S
C6477 C6474 1.403 . S
C6477 C6478 1.392 . S
C6477 C6481 1.495 . S
C6478 C6477 1.392 . S
C6478 C6479 1.385 . S
C6478 C6480 1.478 . S
C6479 H6473 0.930 . S
C6479 C6475 1.400 . S
C6479 C6478 1.385 . S
C6480 C6478 1.478 . S
C6480 C6482 1.381 . S
C6480 C6486 1.383 . S
C6481 C6477 1.495 . S
C6481 H6487 0.959 . S
C6481 H6488 0.961 . S
C6481 H6489 0.960 . S
C6482 C6480 1.381 . S
C6482 C6483 1.394 . S
C6482 H6490 0.930 . S
C6483 C6482 1.394 . S
C6483 C6484 1.383 . S
C6483 H6491 0.929 . S
C6484 C6483 1.383 . S
C6484 C6485 1.377 . S
C6485 H6469 0.930 . S
C6485 C6484 1.377 . S
C6485 C6486 1.379 . S
C6486 H6470 0.931 . S
C6486 C6480 1.383 . S
C6486 C6485 1.379 . S
H6487 C6481 0.959 . S
H6488 C6481 0.961 . S
H6489 C6481 0.960 . S
H6490 C6482 0.930 . S
H6491 C6483 0.929 . S
H6492 C6500 0.929 . S
H6493 C6502 0.930 . S
H6494 C6504 0.930 . S
H6495 C6507 0.929 . S
H6496 C6510 0.930 . S
H6497 C6512 0.960 . S
H6498 C6512 0.960 . S
H6499 C6512 0.960 . S
C6500 H6492 0.929 . S
C6500 C6501 1.377 . S
C6500 C6502 1.384 . S
C6501 C6500 1.377 . S
C6501 C6507 1.390 . S
C6502 H6493 0.930 . S
C6502 C6500 1.384 . S
C6502 C6503 1.372 . S
C6503 C6502 1.372 . S
C6503 C6504 1.400 . S
C6503 C6508 1.490 . S
C6504 H6494 0.930 . S
C6504 C6503 1.400 . S
C6504 C6507 1.386 . S
H6505 C6521 0.930 . S
H6506 C6522 0.931 . S
C6507 H6495 0.929 . S
C6507 C6501 1.390 . S
C6507 C6504 1.386 . S
C6508 C6503 1.490 . S
C6508 C6510 1.395 . S
C6508 C6511 1.403 . S
H6509 C6515 0.930 . S
C6510 H6496 0.930 . S
C6510 C6508 1.395 . S
C6510 C6513 1.403 . S
C6511 C6508 1.403 . S
C6511 C6512 1.524 . S
C6511 C6515 1.400 . S
C6512 H6497 0.960 . S
C6512 H6498 0.960 . S
C6512 H6499 0.960 . S
C6512 C6511 1.524 . S
C6513 C6510 1.403 . S
C6513 C6514 1.392 . S
C6513 C6517 1.495 . S
C6514 C6513 1.392 . S
C6514 C6515 1.385 . S
C6514 C6516 1.478 . S
C6515 H6509 0.930 . S
C6515 C6511 1.400 . S
C6515 C6514 1.385 . S
C6516 C6514 1.478 . S
C6516 C6518 1.381 . S
C6516 C6522 1.383 . S
C6517 C6513 1.495 . S
C6517 H6523 0.959 . S
C6517 H6524 0.961 . S
C6517 H6525 0.960 . S
C6518 C6516 1.381 . S
C6518 C6519 1.394 . S
C6518 H6526 0.930 . S
C6519 C6518 1.394 . S
C6519 C6520 1.383 . S
C6519 H6527 0.929 . S
C6520 C6519 1.383 . S
C6520 C6521 1.377 . S
C6521 H6505 0.930 . S
C6521 C6520 1.377 . S
C6521 C6522 1.379 . S
C6522 H6506 0.931 . S
C6522 C6516 1.383 . S
C6522 C6521 1.379 . S
H6523 C6517 0.959 . S
H6524 C6517 0.961 . S
H6525 C6517 0.960 . S
H6526 C6518 0.930 . S
H6527 C6519 0.929 . S
H6528 C6536 0.929 . S
H6529 C6538 0.930 . S
H6530 C6540 0.930 . S
H6531 C6543 0.929 . S
H6532 C6546 0.930 . S
H6533 C6548 0.960 . S
H6534 C6548 0.960 . S
H6535 C6548 0.960 . S
C6536 H6528 0.929 . S
C6536 C6537 1.377 . S
C6536 C6538 1.384 . S
C6537 C6536 1.377 . S
C6537 C6543 1.390 . S
C6538 H6529 0.930 . S
C6538 C6536 1.384 . S
C6538 C6539 1.372 . S
C6539 C6538 1.372 . S
C6539 C6540 1.400 . S
C6539 C6544 1.490 . S
C6540 H6530 0.930 . S
C6540 C6539 1.400 . S
C6540 C6543 1.386 . S
H6541 C6557 0.877 1_554 S
H6542 C6558 0.931 . S
C6543 H6531 0.929 . S
C6543 C6537 1.390 . S
C6543 C6540 1.386 . S
C6544 C6539 1.490 . S
C6544 C6546 1.395 . S
C6544 C6547 1.403 . S
H6545 C6551 0.930 . S
C6546 H6532 0.930 . S
C6546 C6544 1.395 . S
C6546 C6549 1.403 . S
C6547 C6544 1.403 . S
C6547 C6548 1.524 . S
C6547 C6551 1.400 . S
C6548 H6533 0.960 . S
C6548 H6534 0.960 . S
C6548 H6535 0.960 . S
C6548 C6547 1.524 . S
C6549 C6546 1.403 . S
C6549 C6550 1.392 . S
C6549 C6553 1.495 . S
C6550 C6549 1.392 . S
C6550 C6551 1.385 . S
C6550 C6552 1.478 . S
C6551 H6545 0.930 . S
C6551 C6547 1.400 . S
C6551 C6550 1.385 . S
C6552 C6550 1.478 . S
C6552 C6554 1.381 . S
C6552 C6558 1.383 . S
C6553 C6549 1.495 . S
C6553 H6559 0.959 . S
C6553 H6560 0.961 . S
C6553 H6561 0.960 . S
C6554 C6552 1.381 . S
C6554 C6555 1.394 . S
C6554 H6562 0.930 . S
C6555 C6554 1.394 . S
C6555 C6556 1.383 . S
C6555 H6563 0.929 . S
C6556 C6555 1.383 . S
C6556 C6557 1.377 . S
C6557 H6541 0.877 1_556 S
C6557 C6556 1.377 . S
C6557 C6558 1.379 . S
C6558 H6542 0.931 . S
C6558 C6552 1.383 . S
C6558 C6557 1.379 . S
H6559 C6553 0.959 . S
H6560 C6553 0.961 . S
H6561 C6553 0.960 . S
H6562 C6554 0.930 . S
H6563 C6555 0.929 . S
H6564 C6572 0.929 . S
H6565 C6574 0.930 . S
H6566 C6576 0.930 . S
H6567 C6579 0.929 . S
H6568 C6582 0.930 . S
H6569 C6584 0.960 . S
H6570 C6584 0.960 . S
H6571 C6584 0.960 . S
C6572 H6564 0.929 . S
C6572 C6573 1.377 . S
C6572 C6574 1.384 . S
C6573 C6572 1.377 . S
C6573 C6579 1.390 . S
C6574 H6565 0.930 . S
C6574 C6572 1.384 . S
C6574 C6575 1.372 . S
C6575 C6574 1.372 . S
C6575 C6576 1.400 . S
C6575 C6580 1.490 . S
C6576 H6566 0.930 . S
C6576 C6575 1.400 . S
C6576 C6579 1.386 . S
H6577 C6593 0.930 . S
H6578 C6594 0.931 . S
C6579 H6567 0.929 . S
C6579 C6573 1.390 . S
C6579 C6576 1.386 . S
C6580 C6575 1.490 . S
C6580 C6582 1.395 . S
C6580 C6583 1.403 . S
H6581 C6587 0.930 . S
C6582 H6568 0.930 . S
C6582 C6580 1.395 . S
C6582 C6585 1.403 . S
C6583 C6580 1.403 . S
C6583 C6584 1.524 . S
C6583 C6587 1.400 . S
C6584 H6569 0.960 . S
C6584 H6570 0.960 . S
C6584 H6571 0.960 . S
C6584 C6583 1.524 . S
C6585 C6582 1.403 . S
C6585 C6586 1.392 . S
C6585 C6589 1.495 . S
C6586 C6585 1.392 . S
C6586 C6587 1.385 . S
C6586 C6588 1.478 . S
C6587 H6581 0.930 . S
C6587 C6583 1.400 . S
C6587 C6586 1.385 . S
C6588 C6586 1.478 . S
C6588 C6590 1.381 . S
C6588 C6594 1.383 . S
C6589 C6585 1.495 . S
C6589 H6595 0.959 . S
C6589 H6596 0.961 . S
C6589 H6597 0.960 . S
C6590 C6588 1.381 . S
C6590 C6591 1.394 . S
C6590 H6598 0.930 . S
C6591 C6590 1.394 . S
C6591 C6592 1.383 . S
C6591 H6599 0.929 . S
C6592 C6591 1.383 . S
C6592 C6593 1.377 . S
C6593 H6577 0.930 . S
C6593 C6592 1.377 . S
C6593 C6594 1.379 . S
C6594 H6578 0.931 . S
C6594 C6588 1.383 . S
C6594 C6593 1.379 . S
H6595 C6589 0.959 . S
H6596 C6589 0.961 . S
H6597 C6589 0.960 . S
H6598 C6590 0.930 . S
H6599 C6591 0.929 . S
H6600 C6608 0.929 . S
H6601 C6610 0.930 . S
H6602 C6612 0.930 . S
H6603 C6615 0.929 . S
H6604 C6618 0.930 . S
H6605 C6620 0.960 . S
H6606 C6620 0.960 . S
H6607 C6620 0.960 . S
C6608 H6600 0.929 . S
C6608 C6609 1.377 . S
C6608 C6610 1.384 . S
C6609 C6608 1.377 . S
C6609 C6615 1.390 . S
C6610 H6601 0.930 . S
C6610 C6608 1.384 . S
C6610 C6611 1.372 . S
C6611 C6610 1.372 . S
C6611 C6612 1.400 . S
C6611 C6616 1.490 . S
C6612 H6602 0.930 . S
C6612 C6611 1.400 . S
C6612 C6615 1.386 . S
H6613 C6629 0.930 . S
H6614 C6630 0.931 . S
C6615 H6603 0.929 . S
C6615 C6609 1.390 . S
C6615 C6612 1.386 . S
C6616 C6611 1.490 . S
C6616 C6618 1.395 . S
C6616 C6619 1.403 . S
H6617 C6623 0.930 . S
C6618 H6604 0.930 . S
C6618 C6616 1.395 . S
C6618 C6621 1.403 . S
C6619 C6616 1.403 . S
C6619 C6620 1.524 . S
C6619 C6623 1.400 . S
C6620 H6605 0.960 . S
C6620 H6606 0.960 . S
C6620 H6607 0.960 . S
C6620 C6619 1.524 . S
C6621 C6618 1.403 . S
C6621 C6622 1.392 . S
C6621 C6625 1.495 . S
C6622 C6621 1.392 . S
C6622 C6623 1.385 . S
C6622 C6624 1.478 . S
C6623 H6617 0.930 . S
C6623 C6619 1.400 . S
C6623 C6622 1.385 . S
C6624 C6622 1.478 . S
C6624 C6626 1.381 . S
C6624 C6630 1.383 . S
C6625 C6621 1.495 . S
C6625 H6631 0.959 . S
C6625 H6632 0.961 . S
C6625 H6633 0.960 . S
C6626 C6624 1.381 . S
C6626 C6627 1.394 . S
C6626 H6634 0.930 . S
C6627 C6626 1.394 . S
C6627 C6628 1.383 . S
C6627 H6635 0.929 . S
C6628 C6627 1.383 . S
C6628 C6629 1.377 . S
C6629 H6613 0.930 . S
C6629 C6628 1.377 . S
C6629 C6630 1.379 . S
C6630 H6614 0.931 . S
C6630 C6624 1.383 . S
C6630 C6629 1.379 . S
H6631 C6625 0.959 . S
H6632 C6625 0.961 . S
H6633 C6625 0.960 . S
H6634 C6626 0.930 . S
H6635 C6627 0.929 . S
H6636 C6644 0.929 . S
H6637 C6646 0.930 . S
H6638 C6648 0.930 . S
H6639 C6651 0.929 . S
H6640 C6654 0.930 . S
H6641 C6656 0.960 . S
H6642 C6656 0.960 . S
H6643 C6656 0.960 . S
C6644 H6636 0.929 . S
C6644 C6645 1.377 . S
C6644 C6646 1.384 . S
C6645 C6644 1.377 . S
C6645 C6651 1.390 . S
C6646 H6637 0.930 . S
C6646 C6644 1.384 . S
C6646 C6647 1.372 . S
C6647 C6646 1.372 . S
C6647 C6648 1.400 . S
C6647 C6652 1.490 . S
C6648 H6638 0.930 . S
C6648 C6647 1.400 . S
C6648 C6651 1.386 . S
H6649 C6665 0.930 . S
H6650 C6666 0.931 . S
C6651 H6639 0.929 . S
C6651 C6645 1.390 . S
C6651 C6648 1.386 . S
C6652 C6647 1.490 . S
C6652 C6654 1.395 . S
C6652 C6655 1.403 . S
H6653 C6659 0.930 . S
C6654 H6640 0.930 . S
C6654 C6652 1.395 . S
C6654 C6657 1.403 . S
C6655 C6652 1.403 . S
C6655 C6656 1.524 . S
C6655 C6659 1.400 . S
C6656 H6641 0.960 . S
C6656 H6642 0.960 . S
C6656 H6643 0.960 . S
C6656 C6655 1.524 . S
C6657 C6654 1.403 . S
C6657 C6658 1.392 . S
C6657 C6661 1.495 . S
C6658 C6657 1.392 . S
C6658 C6659 1.385 . S
C6658 C6660 1.478 . S
C6659 H6653 0.930 . S
C6659 C6655 1.400 . S
C6659 C6658 1.385 . S
C6660 C6658 1.478 . S
C6660 C6662 1.381 . S
C6660 C6666 1.383 . S
C6661 C6657 1.495 . S
C6661 H6667 0.959 . S
C6661 H6668 0.961 . S
C6661 H6669 0.960 . S
C6662 C6660 1.381 . S
C6662 C6663 1.394 . S
C6662 H6670 0.930 . S
C6663 C6662 1.394 . S
C6663 C6664 1.383 . S
C6663 H6671 0.929 . S
C6664 C6663 1.383 . S
C6664 C6665 1.377 . S
C6665 H6649 0.930 . S
C6665 C6664 1.377 . S
C6665 C6666 1.379 . S
C6666 H6650 0.931 . S
C6666 C6660 1.383 . S
C6666 C6665 1.379 . S
H6667 C6661 0.959 . S
H6668 C6661 0.961 . S
H6669 C6661 0.960 . S
H6670 C6662 0.930 . S
H6671 C6663 0.929 . S
H6672 C6680 0.929 . S
H6673 C6682 0.930 . S
H6674 C6684 0.930 . S
H6675 C6687 0.929 . S
H6676 C6690 0.930 . S
H6677 C6692 0.960 . S
H6678 C6692 0.960 . S
H6679 C6692 0.960 . S
C6680 H6672 0.929 . S
C6680 C6681 1.377 . S
C6680 C6682 1.384 . S
C6681 C6680 1.377 . S
C6681 C6687 1.390 . S
C6682 H6673 0.930 . S
C6682 C6680 1.384 . S
C6682 C6683 1.372 . S
C6683 C6682 1.372 . S
C6683 C6684 1.400 . S
C6683 C6688 1.490 . S
C6684 H6674 0.930 . S
C6684 C6683 1.400 . S
C6684 C6687 1.386 . S
H6685 C6701 0.930 . S
H6686 C6702 0.931 . S
C6687 H6675 0.929 . S
C6687 C6681 1.390 . S
C6687 C6684 1.386 . S
C6688 C6683 1.490 . S
C6688 C6690 1.395 . S
C6688 C6691 1.403 . S
H6689 C6695 0.930 . S
C6690 H6676 0.930 . S
C6690 C6688 1.395 . S
C6690 C6693 1.403 . S
C6691 C6688 1.403 . S
C6691 C6692 1.524 . S
C6691 C6695 1.400 . S
C6692 H6677 0.960 . S
C6692 H6678 0.960 . S
C6692 H6679 0.960 . S
C6692 C6691 1.524 . S
C6693 C6690 1.403 . S
C6693 C6694 1.392 . S
C6693 C6697 1.495 . S
C6694 C6693 1.392 . S
C6694 C6695 1.385 . S
C6694 C6696 1.478 . S
C6695 H6689 0.930 . S
C6695 C6691 1.400 . S
C6695 C6694 1.385 . S
C6696 C6694 1.478 . S
C6696 C6698 1.381 . S
C6696 C6702 1.383 . S
C6697 C6693 1.495 . S
C6697 H6703 0.959 . S
C6697 H6704 0.961 . S
C6697 H6705 0.960 . S
C6698 C6696 1.381 . S
C6698 C6699 1.394 . S
C6698 H6706 0.930 . S
C6699 C6698 1.394 . S
C6699 C6700 1.383 . S
C6699 H6707 0.929 . S
C6700 C6699 1.383 . S
C6700 C6701 1.377 . S
C6701 H6685 0.930 . S
C6701 C6700 1.377 . S
C6701 C6702 1.379 . S
C6702 H6686 0.931 . S
C6702 C6696 1.383 . S
C6702 C6701 1.379 . S
H6703 C6697 0.959 . S
H6704 C6697 0.961 . S
H6705 C6697 0.960 . S
H6706 C6698 0.930 . S
H6707 C6699 0.929 . S
H6708 C6716 0.929 . S
H6709 C6718 0.930 . S
H6710 C6720 0.930 . S
H6711 C6723 0.929 . S
H6712 C6726 0.930 . S
H6713 C6728 0.960 . S
H6714 C6728 0.960 . S
H6715 C6728 0.960 . S
C6716 H6708 0.929 . S
C6716 C6717 1.377 . S
C6716 C6718 1.384 . S
C6717 C6716 1.377 . S
C6717 C6723 1.390 . S
C6718 H6709 0.930 . S
C6718 C6716 1.384 . S
C6718 C6719 1.372 . S
C6719 C6718 1.372 . S
C6719 C6720 1.400 . S
C6719 C6724 1.490 . S
C6720 H6710 0.930 . S
C6720 C6719 1.400 . S
C6720 C6723 1.386 . S
H6721 C6737 0.930 . S
H6722 C6738 0.931 . S
C6723 H6711 0.929 . S
C6723 C6717 1.390 . S
C6723 C6720 1.386 . S
C6724 C6719 1.490 . S
C6724 C6726 1.395 . S
C6724 C6727 1.403 . S
H6725 C6731 0.930 . S
C6726 H6712 0.930 . S
C6726 C6724 1.395 . S
C6726 C6729 1.403 . S
C6727 C6724 1.403 . S
C6727 C6728 1.524 . S
C6727 C6731 1.400 . S
C6728 H6713 0.960 . S
C6728 H6714 0.960 . S
C6728 H6715 0.960 . S
C6728 C6727 1.524 . S
C6729 C6726 1.403 . S
C6729 C6730 1.392 . S
C6729 C6733 1.495 . S
C6730 C6729 1.392 . S
C6730 C6731 1.385 . S
C6730 C6732 1.478 . S
C6731 H6725 0.930 . S
C6731 C6727 1.400 . S
C6731 C6730 1.385 . S
C6732 C6730 1.478 . S
C6732 C6734 1.381 . S
C6732 C6738 1.383 . S
C6733 C6729 1.495 . S
C6733 H6739 0.959 . S
C6733 H6740 0.961 . S
C6733 H6741 0.960 . S
C6734 C6732 1.381 . S
C6734 C6735 1.394 . S
C6734 H6742 0.930 . S
C6735 C6734 1.394 . S
C6735 C6736 1.383 . S
C6735 H6743 0.929 . S
C6736 C6735 1.383 . S
C6736 C6737 1.377 . S
C6737 H6721 0.930 . S
C6737 C6736 1.377 . S
C6737 C6738 1.379 . S
C6738 H6722 0.931 . S
C6738 C6732 1.383 . S
C6738 C6737 1.379 . S
H6739 C6733 0.959 . S
H6740 C6733 0.961 . S
H6741 C6733 0.960 . S
H6742 C6734 0.930 . S
H6743 C6735 0.929 . S
H6744 C6752 0.929 . S
H6745 C6754 0.930 . S
H6746 C6756 0.930 . S
H6747 C6759 0.876 1_556 S
H6748 C6762 0.930 . S
H6749 C6764 0.960 . S
H6750 C6764 0.960 . S
H6751 C6764 0.960 . S
C6752 H6744 0.929 . S
C6752 C6753 1.377 . S
C6752 C6754 1.384 . S
C6753 C6752 1.377 . S
C6753 C6759 1.390 . S
C6754 H6745 0.930 . S
C6754 C6752 1.384 . S
C6754 C6755 1.372 . S
C6755 C6754 1.372 . S
C6755 C6756 1.400 . S
C6755 C6760 1.490 . S
C6756 H6746 0.930 . S
C6756 C6755 1.400 . S
C6756 C6759 1.386 . S
H6757 C6773 0.930 . S
H6758 C6774 0.931 . S
C6759 H6747 0.876 1_554 S
C6759 C6753 1.390 . S
C6759 C6756 1.386 . S
C6760 C6755 1.490 . S
C6760 C6762 1.395 . S
C6760 C6763 1.403 . S
H6761 C6767 0.930 . S
C6762 H6748 0.930 . S
C6762 C6760 1.395 . S
C6762 C6765 1.403 . S
C6763 C6760 1.403 . S
C6763 C6764 1.524 . S
C6763 C6767 1.400 . S
C6764 H6749 0.960 . S
C6764 H6750 0.960 . S
C6764 H6751 0.960 . S
C6764 C6763 1.524 . S
C6765 C6762 1.403 . S
C6765 C6766 1.392 . S
C6765 C6769 1.495 . S
C6766 C6765 1.392 . S
C6766 C6767 1.385 . S
C6766 C6768 1.478 . S
C6767 H6761 0.930 . S
C6767 C6763 1.400 . S
C6767 C6766 1.385 . S
C6768 C6766 1.478 . S
C6768 C6770 1.381 . S
C6768 C6774 1.383 . S
C6769 C6765 1.495 . S
C6769 H6775 0.959 . S
C6769 H6776 0.961 . S
C6769 H6777 0.960 . S
C6770 C6768 1.381 . S
C6770 C6771 1.394 . S
C6770 H6778 0.930 . S
C6771 C6770 1.394 . S
C6771 C6772 1.383 . S
C6771 H6779 0.929 . S
C6772 C6771 1.383 . S
C6772 C6773 1.377 . S
C6773 H6757 0.930 . S
C6773 C6772 1.377 . S
C6773 C6774 1.379 . S
C6774 H6758 0.931 . S
C6774 C6768 1.383 . S
C6774 C6773 1.379 . S
H6775 C6769 0.959 . S
H6776 C6769 0.961 . S
H6777 C6769 0.960 . S
H6778 C6770 0.930 . S
H6779 C6771 0.929 . S
H6780 C6788 0.929 . S
H6781 C6790 0.930 . S
H6782 C6792 0.930 . S
H6783 C6795 0.929 . S
H6784 C6798 0.930 . S
H6785 C6800 0.960 . S
H6786 C6800 0.960 . S
H6787 C6800 0.960 . S
C6788 H6780 0.929 . S
C6788 C6789 1.377 . S
C6788 C6790 1.384 . S
C6789 C6788 1.377 . S
C6789 C6795 1.390 . S
C6790 H6781 0.930 . S
C6790 C6788 1.384 . S
C6790 C6791 1.372 . S
C6791 C6790 1.372 . S
C6791 C6792 1.400 . S
C6791 C6796 1.490 . S
C6792 H6782 0.930 . S
C6792 C6791 1.400 . S
C6792 C6795 1.386 . S
H6793 C6809 0.930 . S
H6794 C6810 0.931 . S
C6795 H6783 0.929 . S
C6795 C6789 1.390 . S
C6795 C6792 1.386 . S
C6796 C6791 1.490 . S
C6796 C6798 1.395 . S
C6796 C6799 1.403 . S
H6797 C6803 0.930 . S
C6798 H6784 0.930 . S
C6798 C6796 1.395 . S
C6798 C6801 1.403 . S
C6799 C6796 1.403 . S
C6799 C6800 1.524 . S
C6799 C6803 1.400 . S
C6800 H6785 0.960 . S
C6800 H6786 0.960 . S
C6800 H6787 0.960 . S
C6800 C6799 1.524 . S
C6801 C6798 1.403 . S
C6801 C6802 1.392 . S
C6801 C6805 1.495 . S
C6802 C6801 1.392 . S
C6802 C6803 1.385 . S
C6802 C6804 1.478 . S
C6803 H6797 0.930 . S
C6803 C6799 1.400 . S
C6803 C6802 1.385 . S
C6804 C6802 1.478 . S
C6804 C6806 1.381 . S
C6804 C6810 1.383 . S
C6805 C6801 1.495 . S
C6805 H6811 0.959 . S
C6805 H6812 0.961 . S
C6805 H6813 0.960 . S
C6806 C6804 1.381 . S
C6806 C6807 1.394 . S
C6806 H6814 0.930 . S
C6807 C6806 1.394 . S
C6807 C6808 1.383 . S
C6807 H6815 0.929 . S
C6808 C6807 1.383 . S
C6808 C6809 1.377 . S
C6809 H6793 0.930 . S
C6809 C6808 1.377 . S
C6809 C6810 1.379 . S
C6810 H6794 0.931 . S
C6810 C6804 1.383 . S
C6810 C6809 1.379 . S
H6811 C6805 0.959 . S
H6812 C6805 0.961 . S
H6813 C6805 0.960 . S
H6814 C6806 0.930 . S
H6815 C6807 0.929 . S
H6816 C6824 0.929 . S
H6817 C6826 0.930 . S
H6818 C6828 0.930 . S
H6819 C6831 0.929 . S
H6820 C6834 0.930 . S
H6821 C6836 0.960 . S
H6822 C6836 0.960 . S
H6823 C6836 0.960 . S
C6824 H6816 0.929 . S
C6824 C6825 1.377 . S
C6824 C6826 1.384 . S
C6825 C6824 1.377 . S
C6825 C6831 1.390 . S
C6826 H6817 0.930 . S
C6826 C6824 1.384 . S
C6826 C6827 1.372 . S
C6827 C6826 1.372 . S
C6827 C6828 1.400 . S
C6827 C6832 1.490 . S
C6828 H6818 0.930 . S
C6828 C6827 1.400 . S
C6828 C6831 1.386 . S
H6829 C6845 0.930 . S
H6830 C6846 0.931 . S
C6831 H6819 0.929 . S
C6831 C6825 1.390 . S
C6831 C6828 1.386 . S
C6832 C6827 1.490 . S
C6832 C6834 1.395 . S
C6832 C6835 1.403 . S
H6833 C6839 0.930 . S
C6834 H6820 0.930 . S
C6834 C6832 1.395 . S
C6834 C6837 1.403 . S
C6835 C6832 1.403 . S
C6835 C6836 1.524 . S
C6835 C6839 1.400 . S
C6836 H6821 0.960 . S
C6836 H6822 0.960 . S
C6836 H6823 0.960 . S
C6836 C6835 1.524 . S
C6837 C6834 1.403 . S
C6837 C6838 1.392 . S
C6837 C6841 1.495 . S
C6838 C6837 1.392 . S
C6838 C6839 1.385 . S
C6838 C6840 1.478 . S
C6839 H6833 0.930 . S
C6839 C6835 1.400 . S
C6839 C6838 1.385 . S
C6840 C6838 1.478 . S
C6840 C6842 1.381 . S
C6840 C6846 1.383 . S
C6841 C6837 1.495 . S
C6841 H6847 0.959 . S
C6841 H6848 0.961 . S
C6841 H6849 0.960 . S
C6842 C6840 1.381 . S
C6842 C6843 1.394 . S
C6842 H6850 0.930 . S
C6843 C6842 1.394 . S
C6843 C6844 1.383 . S
C6843 H6851 0.929 . S
C6844 C6843 1.383 . S
C6844 C6845 1.377 . S
C6845 H6829 0.930 . S
C6845 C6844 1.377 . S
C6845 C6846 1.379 . S
C6846 H6830 0.931 . S
C6846 C6840 1.383 . S
C6846 C6845 1.379 . S
H6847 C6841 0.959 . S
H6848 C6841 0.961 . S
H6849 C6841 0.960 . S
H6850 C6842 0.930 . S
H6851 C6843 0.929 . S
H6852 C6860 0.929 . S
H6853 C6862 0.930 . S
H6854 C6864 0.930 . S
H6855 C6867 0.929 . S
H6856 C6870 0.930 . S
H6857 C6872 0.960 . S
H6858 C6872 0.960 . S
H6859 C6872 0.960 . S
C6860 H6852 0.929 . S
C6860 C6861 1.377 . S
C6860 C6862 1.384 . S
C6861 C6860 1.377 . S
C6861 C6867 1.390 . S
C6862 H6853 0.930 . S
C6862 C6860 1.384 . S
C6862 C6863 1.372 . S
C6863 C6862 1.372 . S
C6863 C6864 1.400 . S
C6863 C6868 1.490 . S
C6864 H6854 0.930 . S
C6864 C6863 1.400 . S
C6864 C6867 1.386 . S
H6865 C6881 0.930 . S
H6866 C6882 0.931 . S
C6867 H6855 0.929 . S
C6867 C6861 1.390 . S
C6867 C6864 1.386 . S
C6868 C6863 1.490 . S
C6868 C6870 1.395 . S
C6868 C6871 1.403 . S
H6869 C6875 0.930 . S
C6870 H6856 0.930 . S
C6870 C6868 1.395 . S
C6870 C6873 1.403 . S
C6871 C6868 1.403 . S
C6871 C6872 1.524 . S
C6871 C6875 1.400 . S
C6872 H6857 0.960 . S
C6872 H6858 0.960 . S
C6872 H6859 0.960 . S
C6872 C6871 1.524 . S
C6873 C6870 1.403 . S
C6873 C6874 1.392 . S
C6873 C6877 1.495 . S
C6874 C6873 1.392 . S
C6874 C6875 1.385 . S
C6874 C6876 1.478 . S
C6875 H6869 0.930 . S
C6875 C6871 1.400 . S
C6875 C6874 1.385 . S
C6876 C6874 1.478 . S
C6876 C6878 1.381 . S
C6876 C6882 1.383 . S
C6877 C6873 1.495 . S
C6877 H6883 0.959 . S
C6877 H6884 0.961 . S
C6877 H6885 0.960 . S
C6878 C6876 1.381 . S
C6878 C6879 1.394 . S
C6878 H6886 0.930 . S
C6879 C6878 1.394 . S
C6879 C6880 1.383 . S
C6879 H6887 0.929 . S
C6880 C6879 1.383 . S
C6880 C6881 1.377 . S
C6881 H6865 0.930 . S
C6881 C6880 1.377 . S
C6881 C6882 1.379 . S
C6882 H6866 0.931 . S
C6882 C6876 1.383 . S
C6882 C6881 1.379 . S
H6883 C6877 0.959 . S
H6884 C6877 0.961 . S
H6885 C6877 0.960 . S
H6886 C6878 0.930 . S
H6887 C6879 0.929 . S
H6888 C6896 0.929 . S
H6889 C6898 0.930 . S
H6890 C6900 0.930 . S
H6891 C6903 0.929 . S
H6892 C6906 0.930 . S
H6893 C6908 0.960 . S
H6894 C6908 0.960 . S
H6895 C6908 0.960 . S
C6896 H6888 0.929 . S
C6896 C6897 1.377 . S
C6896 C6898 1.384 . S
C6897 C6896 1.377 . S
C6897 C6903 1.390 . S
C6898 H6889 0.930 . S
C6898 C6896 1.384 . S
C6898 C6899 1.372 . S
C6899 C6898 1.372 . S
C6899 C6900 1.400 . S
C6899 C6904 1.490 . S
C6900 H6890 0.930 . S
C6900 C6899 1.400 . S
C6900 C6903 1.386 . S
H6901 C6917 0.930 . S
H6902 C6918 0.931 . S
C6903 H6891 0.929 . S
C6903 C6897 1.390 . S
C6903 C6900 1.386 . S
C6904 C6899 1.490 . S
C6904 C6906 1.395 . S
C6904 C6907 1.403 . S
H6905 C6911 0.930 . S
C6906 H6892 0.930 . S
C6906 C6904 1.395 . S
C6906 C6909 1.403 . S
C6907 C6904 1.403 . S
C6907 C6908 1.524 . S
C6907 C6911 1.400 . S
C6908 H6893 0.960 . S
C6908 H6894 0.960 . S
C6908 H6895 0.960 . S
C6908 C6907 1.524 . S
C6909 C6906 1.403 . S
C6909 C6910 1.392 . S
C6909 C6913 1.495 . S
C6910 C6909 1.392 . S
C6910 C6911 1.385 . S
C6910 C6912 1.478 . S
C6911 H6905 0.930 . S
C6911 C6907 1.400 . S
C6911 C6910 1.385 . S
C6912 C6910 1.478 . S
C6912 C6914 1.381 . S
C6912 C6918 1.383 . S
C6913 C6909 1.495 . S
C6913 H6919 0.959 . S
C6913 H6920 0.961 . S
C6913 H6921 0.960 . S
C6914 C6912 1.381 . S
C6914 C6915 1.394 . S
C6914 H6922 0.930 . S
C6915 C6914 1.394 . S
C6915 C6916 1.383 . S
C6915 H6923 0.929 . S
C6916 C6915 1.383 . S
C6916 C6917 1.377 . S
C6917 H6901 0.930 . S
C6917 C6916 1.377 . S
C6917 C6918 1.379 . S
C6918 H6902 0.931 . S
C6918 C6912 1.383 . S
C6918 C6917 1.379 . S
H6919 C6913 0.959 . S
H6920 C6913 0.961 . S
H6921 C6913 0.960 . S
H6922 C6914 0.930 . S
H6923 C6915 0.929 . S
H6924 C6932 0.929 . S
H6925 C6934 0.930 . S
H6926 C6936 0.930 . S
H6927 C6939 0.929 . S
H6928 C6942 0.930 . S
H6929 C6944 0.960 . S
H6930 C6944 0.960 . S
H6931 C6944 0.960 . S
C6932 H6924 0.929 . S
C6932 C6933 1.377 . S
C6932 C6934 1.384 . S
C6933 C6932 1.377 . S
C6933 C6939 1.390 . S
C6934 H6925 0.930 . S
C6934 C6932 1.384 . S
C6934 C6935 1.372 . S
C6935 C6934 1.372 . S
C6935 C6936 1.400 . S
C6935 C6940 1.490 . S
C6936 H6926 0.930 . S
C6936 C6935 1.400 . S
C6936 C6939 1.386 . S
H6937 C6953 0.930 . S
H6938 C6954 0.931 . S
C6939 H6927 0.929 . S
C6939 C6933 1.390 . S
C6939 C6936 1.386 . S
C6940 C6935 1.490 . S
C6940 C6942 1.395 . S
C6940 C6943 1.403 . S
H6941 C6947 0.930 . S
C6942 H6928 0.930 . S
C6942 C6940 1.395 . S
C6942 C6945 1.403 . S
C6943 C6940 1.403 . S
C6943 C6944 1.524 . S
C6943 C6947 1.400 . S
C6944 H6929 0.960 . S
C6944 H6930 0.960 . S
C6944 H6931 0.960 . S
C6944 C6943 1.524 . S
C6945 C6942 1.403 . S
C6945 C6946 1.392 . S
C6945 C6949 1.495 . S
C6946 C6945 1.392 . S
C6946 C6947 1.385 . S
C6946 C6948 1.478 . S
C6947 H6941 0.930 . S
C6947 C6943 1.400 . S
C6947 C6946 1.385 . S
C6948 C6946 1.478 . S
C6948 C6950 1.381 . S
C6948 C6954 1.383 . S
C6949 C6945 1.495 . S
C6949 H6955 0.959 . S
C6949 H6956 0.961 . S
C6949 H6957 0.960 . S
C6950 C6948 1.381 . S
C6950 C6951 1.394 . S
C6950 H6958 0.930 . S
C6951 C6950 1.394 . S
C6951 C6952 1.383 . S
C6951 H6959 0.929 . S
C6952 C6951 1.383 . S
C6952 C6953 1.377 . S
C6953 H6937 0.930 . S
C6953 C6952 1.377 . S
C6953 C6954 1.379 . S
C6954 H6938 0.931 . S
C6954 C6948 1.383 . S
C6954 C6953 1.379 . S
H6955 C6949 0.959 . S
H6956 C6949 0.961 . S
H6957 C6949 0.960 . S
H6958 C6950 0.930 . S
H6959 C6951 0.929 . S
H6960 C6968 0.929 . S
H6961 C6970 0.930 . S
H6962 C6972 0.930 . S
H6963 C6975 0.929 . S
H6964 C6978 0.930 . S
H6965 C6980 0.960 . S
H6966 C6980 0.960 . S
H6967 C6980 0.960 . S
C6968 H6960 0.929 . S
C6968 C6969 1.377 . S
C6968 C6970 1.384 . S
C6969 C6968 1.377 . S
C6969 C6975 1.390 . S
C6970 H6961 0.930 . S
C6970 C6968 1.384 . S
C6970 C6971 1.372 . S
C6971 C6970 1.372 . S
C6971 C6972 1.400 . S
C6971 C6976 1.490 . S
C6972 H6962 0.930 . S
C6972 C6971 1.400 . S
C6972 C6975 1.386 . S
H6973 C6989 0.930 . S
H6974 C6990 0.931 . S
C6975 H6963 0.929 . S
C6975 C6969 1.390 . S
C6975 C6972 1.386 . S
C6976 C6971 1.490 . S
C6976 C6978 1.395 . S
C6976 C6979 1.403 . S
H6977 C6983 0.930 . S
C6978 H6964 0.930 . S
C6978 C6976 1.395 . S
C6978 C6981 1.403 . S
C6979 C6976 1.403 . S
C6979 C6980 1.524 . S
C6979 C6983 1.400 . S
C6980 H6965 0.960 . S
C6980 H6966 0.960 . S
C6980 H6967 0.960 . S
C6980 C6979 1.524 . S
C6981 C6978 1.403 . S
C6981 C6982 1.392 . S
C6981 C6985 1.495 . S
C6982 C6981 1.392 . S
C6982 C6983 1.385 . S
C6982 C6984 1.478 . S
C6983 H6977 0.930 . S
C6983 C6979 1.400 . S
C6983 C6982 1.385 . S
C6984 C6982 1.478 . S
C6984 C6986 1.381 . S
C6984 C6990 1.383 . S
C6985 C6981 1.495 . S
C6985 H6991 0.959 . S
C6985 H6992 0.961 . S
C6985 H6993 0.960 . S
C6986 C6984 1.381 . S
C6986 C6987 1.394 . S
C6986 H6994 0.930 . S
C6987 C6986 1.394 . S
C6987 C6988 1.383 . S
C6987 H6995 0.929 . S
C6988 C6987 1.383 . S
C6988 C6989 1.377 . S
C6989 H6973 0.930 . S
C6989 C6988 1.377 . S
C6989 C6990 1.379 . S
C6990 H6974 0.931 . S
C6990 C6984 1.383 . S
C6990 C6989 1.379 . S
H6991 C6985 0.959 . S
H6992 C6985 0.961 . S
H6993 C6985 0.960 . S
H6994 C6986 0.930 . S
H6995 C6987 0.929 . S
H6996 C7004 0.929 . S
H6997 C7006 0.930 . S
H6998 C7008 0.930 . S
H6999 C7011 0.929 . S
H7000 C7014 0.930 . S
H7001 C7016 0.960 . S
H7002 C7016 0.960 . S
H7003 C7016 0.960 . S
C7004 H6996 0.929 . S
C7004 C7005 1.377 . S
C7004 C7006 1.384 . S
C7005 C7004 1.377 . S
C7005 C7011 1.390 . S
C7006 H6997 0.930 . S
C7006 C7004 1.384 . S
C7006 C7007 1.372 . S
C7007 C7006 1.372 . S
C7007 C7008 1.400 . S
C7007 C7012 1.490 . S
C7008 H6998 0.930 . S
C7008 C7007 1.400 . S
C7008 C7011 1.386 . S
H7009 C7025 0.930 . S
H7010 C7026 0.931 . S
C7011 H6999 0.929 . S
C7011 C7005 1.390 . S
C7011 C7008 1.386 . S
C7012 C7007 1.490 . S
C7012 C7014 1.395 . S
C7012 C7015 1.403 . S
H7013 C7019 0.930 . S
C7014 H7000 0.930 . S
C7014 C7012 1.395 . S
C7014 C7017 1.403 . S
C7015 C7012 1.403 . S
C7015 C7016 1.524 . S
C7015 C7019 1.400 . S
C7016 H7001 0.960 . S
C7016 H7002 0.960 . S
C7016 H7003 0.960 . S
C7016 C7015 1.524 . S
C7017 C7014 1.403 . S
C7017 C7018 1.392 . S
C7017 C7021 1.495 . S
C7018 C7017 1.392 . S
C7018 C7019 1.385 . S
C7018 C7020 1.478 . S
C7019 H7013 0.930 . S
C7019 C7015 1.400 . S
C7019 C7018 1.385 . S
C7020 C7018 1.478 . S
C7020 C7022 1.381 . S
C7020 C7026 1.383 . S
C7021 C7017 1.495 . S
C7021 H7027 0.959 . S
C7021 H7028 0.961 . S
C7021 H7029 0.960 . S
C7022 C7020 1.381 . S
C7022 C7023 1.394 . S
C7022 H7030 0.930 . S
C7023 C7022 1.394 . S
C7023 C7024 1.383 . S
C7023 H7031 0.929 . S
C7024 C7023 1.383 . S
C7024 C7025 1.377 . S
C7025 H7009 0.930 . S
C7025 C7024 1.377 . S
C7025 C7026 1.379 . S
C7026 H7010 0.931 . S
C7026 C7020 1.383 . S
C7026 C7025 1.379 . S
H7027 C7021 0.959 . S
H7028 C7021 0.961 . S
H7029 C7021 0.960 . S
H7030 C7022 0.930 . S
H7031 C7023 0.929 . S
H7032 C7040 0.929 . S
H7033 C7042 0.930 . S
H7034 C7044 0.930 . S
H7035 C7047 0.929 . S
H7036 C7050 0.930 . S
H7037 C7052 0.960 . S
H7038 C7052 0.960 . S
H7039 C7052 0.960 . S
C7040 H7032 0.929 . S
C7040 C7041 1.377 . S
C7040 C7042 1.384 . S
C7041 C7040 1.377 . S
C7041 C7047 1.390 . S
C7042 H7033 0.930 . S
C7042 C7040 1.384 . S
C7042 C7043 1.372 . S
C7043 C7042 1.372 . S
C7043 C7044 1.400 . S
C7043 C7048 1.490 . S
C7044 H7034 0.930 . S
C7044 C7043 1.400 . S
C7044 C7047 1.386 . S
H7045 C7061 0.930 . S
H7046 C7062 0.931 . S
C7047 H7035 0.929 . S
C7047 C7041 1.390 . S
C7047 C7044 1.386 . S
C7048 C7043 1.490 . S
C7048 C7050 1.395 . S
C7048 C7051 1.403 . S
H7049 C7055 0.930 . S
C7050 H7036 0.930 . S
C7050 C7048 1.395 . S
C7050 C7053 1.403 . S
C7051 C7048 1.403 . S
C7051 C7052 1.524 . S
C7051 C7055 1.400 . S
C7052 H7037 0.960 . S
C7052 H7038 0.960 . S
C7052 H7039 0.960 . S
C7052 C7051 1.524 . S
C7053 C7050 1.403 . S
C7053 C7054 1.392 . S
C7053 C7057 1.495 . S
C7054 C7053 1.392 . S
C7054 C7055 1.385 . S
C7054 C7056 1.478 . S
C7055 H7049 0.930 . S
C7055 C7051 1.400 . S
C7055 C7054 1.385 . S
C7056 C7054 1.478 . S
C7056 C7058 1.381 . S
C7056 C7062 1.383 . S
C7057 C7053 1.495 . S
C7057 H7063 0.959 . S
C7057 H7064 0.961 . S
C7057 H7065 0.960 . S
C7058 C7056 1.381 . S
C7058 C7059 1.394 . S
C7058 H7066 0.930 . S
C7059 C7058 1.394 . S
C7059 C7060 1.383 . S
C7059 H7067 0.929 . S
C7060 C7059 1.383 . S
C7060 C7061 1.377 . S
C7061 H7045 0.930 . S
C7061 C7060 1.377 . S
C7061 C7062 1.379 . S
C7062 H7046 0.931 . S
C7062 C7056 1.383 . S
C7062 C7061 1.379 . S
H7063 C7057 0.959 . S
H7064 C7057 0.961 . S
H7065 C7057 0.960 . S
H7066 C7058 0.930 . S
H7067 C7059 0.929 . S
H7068 C7076 0.929 . S
H7069 C7078 0.930 . S
H7070 C7080 0.930 . S
H7071 C7083 0.929 . S
H7072 C7086 0.930 . S
H7073 C7088 0.960 . S
H7074 C7088 0.960 . S
H7075 C7088 0.960 . S
C7076 H7068 0.929 . S
C7076 C7077 1.377 . S
C7076 C7078 1.384 . S
C7077 C7076 1.377 . S
C7077 C7083 1.390 . S
C7078 H7069 0.930 . S
C7078 C7076 1.384 . S
C7078 C7079 1.372 . S
C7079 C7078 1.372 . S
C7079 C7080 1.400 . S
C7079 C7084 1.490 . S
C7080 H7070 0.930 . S
C7080 C7079 1.400 . S
C7080 C7083 1.386 . S
H7081 C7097 0.930 . S
H7082 C7098 0.931 . S
C7083 H7071 0.929 . S
C7083 C7077 1.390 . S
C7083 C7080 1.386 . S
C7084 C7079 1.490 . S
C7084 C7086 1.395 . S
C7084 C7087 1.403 . S
H7085 C7091 0.930 . S
C7086 H7072 0.930 . S
C7086 C7084 1.395 . S
C7086 C7089 1.403 . S
C7087 C7084 1.403 . S
C7087 C7088 1.524 . S
C7087 C7091 1.400 . S
C7088 H7073 0.960 . S
C7088 H7074 0.960 . S
C7088 H7075 0.960 . S
C7088 C7087 1.524 . S
C7089 C7086 1.403 . S
C7089 C7090 1.392 . S
C7089 C7093 1.495 . S
C7090 C7089 1.392 . S
C7090 C7091 1.385 . S
C7090 C7092 1.478 . S
C7091 H7085 0.930 . S
C7091 C7087 1.400 . S
C7091 C7090 1.385 . S
C7092 C7090 1.478 . S
C7092 C7094 1.381 . S
C7092 C7098 1.383 . S
C7093 C7089 1.495 . S
C7093 H7099 0.959 . S
C7093 H7100 0.961 . S
C7093 H7101 0.960 . S
C7094 C7092 1.381 . S
C7094 C7095 1.394 . S
C7094 H7102 0.930 . S
C7095 C7094 1.394 . S
C7095 C7096 1.383 . S
C7095 H7103 0.929 . S
C7096 C7095 1.383 . S
C7096 C7097 1.377 . S
C7097 H7081 0.930 . S
C7097 C7096 1.377 . S
C7097 C7098 1.379 . S
C7098 H7082 0.931 . S
C7098 C7092 1.383 . S
C7098 C7097 1.379 . S
H7099 C7093 0.959 . S
H7100 C7093 0.961 . S
H7101 C7093 0.960 . S
H7102 C7094 0.930 . S
H7103 C7095 0.929 . S
H7104 C7112 0.929 . S
H7105 C7114 0.930 . S
H7106 C7116 0.930 . S
H7107 C7119 0.929 . S
H7108 C7122 0.930 . S
H7109 C7124 0.960 . S
H7110 C7124 0.960 . S
H7111 C7124 0.960 . S
C7112 H7104 0.929 . S
C7112 C7113 1.377 . S
C7112 C7114 1.384 . S
C7113 C7112 1.377 . S
C7113 C7119 1.390 . S
C7114 H7105 0.930 . S
C7114 C7112 1.384 . S
C7114 C7115 1.372 . S
C7115 C7114 1.372 . S
C7115 C7116 1.400 . S
C7115 C7120 1.490 . S
C7116 H7106 0.930 . S
C7116 C7115 1.400 . S
C7116 C7119 1.386 . S
H7117 C7133 0.930 . S
H7118 C7134 0.931 . S
C7119 H7107 0.929 . S
C7119 C7113 1.390 . S
C7119 C7116 1.386 . S
C7120 C7115 1.490 . S
C7120 C7122 1.395 . S
C7120 C7123 1.403 . S
H7121 C7127 0.930 . S
C7122 H7108 0.930 . S
C7122 C7120 1.395 . S
C7122 C7125 1.403 . S
C7123 C7120 1.403 . S
C7123 C7124 1.524 . S
C7123 C7127 1.400 . S
C7124 H7109 0.960 . S
C7124 H7110 0.960 . S
C7124 H7111 0.960 . S
C7124 C7123 1.524 . S
C7125 C7122 1.403 . S
C7125 C7126 1.392 . S
C7125 C7129 1.495 . S
C7126 C7125 1.392 . S
C7126 C7127 1.385 . S
C7126 C7128 1.478 . S
C7127 H7121 0.930 . S
C7127 C7123 1.400 . S
C7127 C7126 1.385 . S
C7128 C7126 1.478 . S
C7128 C7130 1.381 . S
C7128 C7134 1.383 . S
C7129 C7125 1.495 . S
C7129 H7135 0.959 . S
C7129 H7136 0.961 . S
C7129 H7137 0.960 . S
C7130 C7128 1.381 . S
C7130 C7131 1.394 . S
C7130 H7138 0.930 . S
C7131 C7130 1.394 . S
C7131 C7132 1.383 . S
C7131 H7139 0.929 . S
C7132 C7131 1.383 . S
C7132 C7133 1.377 . S
C7133 H7117 0.930 . S
C7133 C7132 1.377 . S
C7133 C7134 1.379 . S
C7134 H7118 0.931 . S
C7134 C7128 1.383 . S
C7134 C7133 1.379 . S
H7135 C7129 0.959 . S
H7136 C7129 0.961 . S
H7137 C7129 0.960 . S
H7138 C7130 0.930 . S
H7139 C7131 0.929 . S
H7140 C7148 0.929 . S
H7141 C7150 0.930 . S
H7142 C7152 0.930 . S
H7143 C7155 0.929 . S
H7144 C7158 0.930 . S
H7145 C7160 0.960 . S
H7146 C7160 0.960 . S
H7147 C7160 0.960 . S
C7148 H7140 0.929 . S
C7148 C7149 1.377 . S
C7148 C7150 1.384 . S
C7149 C7148 1.377 . S
C7149 C7155 1.390 . S
C7150 H7141 0.930 . S
C7150 C7148 1.384 . S
C7150 C7151 1.372 . S
C7151 C7150 1.372 . S
C7151 C7152 1.400 . S
C7151 C7156 1.490 . S
C7152 H7142 0.930 . S
C7152 C7151 1.400 . S
C7152 C7155 1.386 . S
H7153 C7169 0.930 . S
H7154 C7170 0.931 . S
C7155 H7143 0.929 . S
C7155 C7149 1.390 . S
C7155 C7152 1.386 . S
C7156 C7151 1.490 . S
C7156 C7158 1.395 . S
C7156 C7159 1.403 . S
H7157 C7163 0.930 . S
C7158 H7144 0.930 . S
C7158 C7156 1.395 . S
C7158 C7161 1.403 . S
C7159 C7156 1.403 . S
C7159 C7160 1.524 . S
C7159 C7163 1.400 . S
C7160 H7145 0.960 . S
C7160 H7146 0.960 . S
C7160 H7147 0.960 . S
C7160 C7159 1.524 . S
C7161 C7158 1.403 . S
C7161 C7162 1.392 . S
C7161 C7165 1.495 . S
C7162 C7161 1.392 . S
C7162 C7163 1.385 . S
C7162 C7164 1.478 . S
C7163 H7157 0.930 . S
C7163 C7159 1.400 . S
C7163 C7162 1.385 . S
C7164 C7162 1.478 . S
C7164 C7166 1.381 . S
C7164 C7170 1.383 . S
C7165 C7161 1.495 . S
C7165 H7171 0.959 . S
C7165 H7172 0.961 . S
C7165 H7173 0.960 . S
C7166 C7164 1.381 . S
C7166 C7167 1.394 . S
C7166 H7174 0.930 . S
C7167 C7166 1.394 . S
C7167 C7168 1.383 . S
C7167 H7175 0.929 . S
C7168 C7167 1.383 . S
C7168 C7169 1.377 . S
C7169 H7153 0.930 . S
C7169 C7168 1.377 . S
C7169 C7170 1.379 . S
C7170 H7154 0.931 . S
C7170 C7164 1.383 . S
C7170 C7169 1.379 . S
H7171 C7165 0.959 . S
H7172 C7165 0.961 . S
H7173 C7165 0.960 . S
H7174 C7166 0.930 . S
H7175 C7167 0.929 . S
H7176 C7184 0.929 . S
H7177 C7186 0.930 . S
H7178 C7188 0.930 . S
H7179 C7191 0.929 . S
H7180 C7194 0.930 . S
H7181 C7196 0.960 . S
H7182 C7196 0.960 . S
H7183 C7196 0.960 . S
C7184 H7176 0.929 . S
C7184 C7185 1.377 . S
C7184 C7186 1.384 . S
C7185 C7184 1.377 . S
C7185 C7191 1.390 . S
C7186 H7177 0.930 . S
C7186 C7184 1.384 . S
C7186 C7187 1.372 . S
C7187 C7186 1.372 . S
C7187 C7188 1.400 . S
C7187 C7192 1.490 . S
C7188 H7178 0.930 . S
C7188 C7187 1.400 . S
C7188 C7191 1.386 . S
H7189 C7205 0.930 . S
H7190 C7206 0.931 . S
C7191 H7179 0.929 . S
C7191 C7185 1.390 . S
C7191 C7188 1.386 . S
C7192 C7187 1.490 . S
C7192 C7194 1.395 . S
C7192 C7195 1.403 . S
H7193 C7199 0.930 . S
C7194 H7180 0.930 . S
C7194 C7192 1.395 . S
C7194 C7197 1.403 . S
C7195 C7192 1.403 . S
C7195 C7196 1.524 . S
C7195 C7199 1.400 . S
C7196 H7181 0.960 . S
C7196 H7182 0.960 . S
C7196 H7183 0.960 . S
C7196 C7195 1.524 . S
C7197 C7194 1.403 . S
C7197 C7198 1.392 . S
C7197 C7201 1.495 . S
C7198 C7197 1.392 . S
C7198 C7199 1.385 . S
C7198 C7200 1.478 . S
C7199 H7193 0.930 . S
C7199 C7195 1.400 . S
C7199 C7198 1.385 . S
C7200 C7198 1.478 . S
C7200 C7202 1.381 . S
C7200 C7206 1.383 . S
C7201 C7197 1.495 . S
C7201 H7207 0.959 . S
C7201 H7208 0.961 . S
C7201 H7209 0.960 . S
C7202 C7200 1.381 . S
C7202 C7203 1.394 . S
C7202 H7210 0.930 . S
C7203 C7202 1.394 . S
C7203 C7204 1.383 . S
C7203 H7211 0.929 . S
C7204 C7203 1.383 . S
C7204 C7205 1.377 . S
C7205 H7189 0.930 . S
C7205 C7204 1.377 . S
C7205 C7206 1.379 . S
C7206 H7190 0.931 . S
C7206 C7200 1.383 . S
C7206 C7205 1.379 . S
H7207 C7201 0.959 . S
H7208 C7201 0.961 . S
H7209 C7201 0.960 . S
H7210 C7202 0.930 . S
H7211 C7203 0.929 . S
H7212 C7220 0.929 . S
H7213 C7222 0.930 . S
H7214 C7224 0.930 . S
H7215 C7227 0.929 . S
H7216 C7230 0.930 . S
H7217 C7232 0.960 . S
H7218 C7232 0.960 . S
H7219 C7232 0.960 . S
C7220 H7212 0.929 . S
C7220 C7221 1.377 . S
C7220 C7222 1.384 . S
C7221 C7220 1.377 . S
C7221 C7227 1.390 . S
C7222 H7213 0.930 . S
C7222 C7220 1.384 . S
C7222 C7223 1.372 . S
C7223 C7222 1.372 . S
C7223 C7224 1.400 . S
C7223 C7228 1.490 . S
C7224 H7214 0.930 . S
C7224 C7223 1.400 . S
C7224 C7227 1.386 . S
H7225 C7241 0.930 . S
H7226 C7242 0.931 . S
C7227 H7215 0.929 . S
C7227 C7221 1.390 . S
C7227 C7224 1.386 . S
C7228 C7223 1.490 . S
C7228 C7230 1.395 . S
C7228 C7231 1.403 . S
H7229 C7235 0.930 . S
C7230 H7216 0.930 . S
C7230 C7228 1.395 . S
C7230 C7233 1.403 . S
C7231 C7228 1.403 . S
C7231 C7232 1.524 . S
C7231 C7235 1.400 . S
C7232 H7217 0.960 . S
C7232 H7218 0.960 . S
C7232 H7219 0.960 . S
C7232 C7231 1.524 . S
C7233 C7230 1.403 . S
C7233 C7234 1.392 . S
C7233 C7237 1.495 . S
C7234 C7233 1.392 . S
C7234 C7235 1.385 . S
C7234 C7236 1.478 . S
C7235 H7229 0.930 . S
C7235 C7231 1.400 . S
C7235 C7234 1.385 . S
C7236 C7234 1.478 . S
C7236 C7238 1.381 . S
C7236 C7242 1.383 . S
C7237 C7233 1.495 . S
C7237 H7243 0.959 . S
C7237 H7244 0.961 . S
C7237 H7245 0.960 . S
C7238 C7236 1.381 . S
C7238 C7239 1.394 . S
C7238 H7246 0.930 . S
C7239 C7238 1.394 . S
C7239 C7240 1.383 . S
C7239 H7247 0.929 . S
C7240 C7239 1.383 . S
C7240 C7241 1.377 . S
C7241 H7225 0.930 . S
C7241 C7240 1.377 . S
C7241 C7242 1.379 . S
C7242 H7226 0.931 . S
C7242 C7236 1.383 . S
C7242 C7241 1.379 . S
H7243 C7237 0.959 . S
H7244 C7237 0.961 . S
H7245 C7237 0.960 . S
H7246 C7238 0.930 . S
H7247 C7239 0.929 . S
H7248 C7256 0.929 . S
H7249 C7258 0.930 . S
H7250 C7260 0.930 . S
H7251 C7263 0.929 . S
H7252 C7266 0.930 . S
H7253 C7268 0.960 . S
H7254 C7268 0.960 . S
H7255 C7268 0.960 . S
C7256 H7248 0.929 . S
C7256 C7257 1.377 . S
C7256 C7258 1.384 . S
C7257 C7256 1.377 . S
C7257 C7263 1.390 . S
C7258 H7249 0.930 . S
C7258 C7256 1.384 . S
C7258 C7259 1.372 . S
C7259 C7258 1.372 . S
C7259 C7260 1.400 . S
C7259 C7264 1.490 . S
C7260 H7250 0.930 . S
C7260 C7259 1.400 . S
C7260 C7263 1.386 . S
H7261 C7277 0.930 . S
H7262 C7278 0.931 . S
C7263 H7251 0.929 . S
C7263 C7257 1.390 . S
C7263 C7260 1.386 . S
C7264 C7259 1.490 . S
C7264 C7266 1.395 . S
C7264 C7267 1.403 . S
H7265 C7271 0.930 . S
C7266 H7252 0.930 . S
C7266 C7264 1.395 . S
C7266 C7269 1.403 . S
C7267 C7264 1.403 . S
C7267 C7268 1.524 . S
C7267 C7271 1.400 . S
C7268 H7253 0.960 . S
C7268 H7254 0.960 . S
C7268 H7255 0.960 . S
C7268 C7267 1.524 . S
C7269 C7266 1.403 . S
C7269 C7270 1.392 . S
C7269 C7273 1.495 . S
C7270 C7269 1.392 . S
C7270 C7271 1.385 . S
C7270 C7272 1.478 . S
C7271 H7265 0.930 . S
C7271 C7267 1.400 . S
C7271 C7270 1.385 . S
C7272 C7270 1.478 . S
C7272 C7274 1.381 . S
C7272 C7278 1.383 . S
C7273 C7269 1.495 . S
C7273 H7279 0.959 . S
C7273 H7280 0.961 . S
C7273 H7281 0.960 . S
C7274 C7272 1.381 . S
C7274 C7275 1.394 . S
C7274 H7282 0.930 . S
C7275 C7274 1.394 . S
C7275 C7276 1.383 . S
C7275 H7283 0.929 . S
C7276 C7275 1.383 . S
C7276 C7277 1.377 . S
C7277 H7261 0.930 . S
C7277 C7276 1.377 . S
C7277 C7278 1.379 . S
C7278 H7262 0.931 . S
C7278 C7272 1.383 . S
C7278 C7277 1.379 . S
H7279 C7273 0.959 . S
H7280 C7273 0.961 . S
H7281 C7273 0.960 . S
H7282 C7274 0.930 . S
H7283 C7275 0.929 . S
H7284 C7292 0.929 . S
H7285 C7294 0.930 . S
H7286 C7296 0.930 . S
H7287 C7299 0.929 . S
H7288 C7302 0.930 . S
H7289 C7304 0.960 . S
H7290 C7304 0.960 . S
H7291 C7304 0.960 . S
C7292 H7284 0.929 . S
C7292 C7293 1.377 . S
C7292 C7294 1.384 . S
C7293 C7292 1.377 . S
C7293 C7299 1.390 . S
C7294 H7285 0.930 . S
C7294 C7292 1.384 . S
C7294 C7295 1.372 . S
C7295 C7294 1.372 . S
C7295 C7296 1.400 . S
C7295 C7300 1.490 . S
C7296 H7286 0.930 . S
C7296 C7295 1.400 . S
C7296 C7299 1.386 . S
H7297 C7313 0.930 . S
H7298 C7314 0.931 . S
C7299 H7287 0.929 . S
C7299 C7293 1.390 . S
C7299 C7296 1.386 . S
C7300 C7295 1.490 . S
C7300 C7302 1.395 . S
C7300 C7303 1.403 . S
H7301 C7307 0.930 . S
C7302 H7288 0.930 . S
C7302 C7300 1.395 . S
C7302 C7305 1.403 . S
C7303 C7300 1.403 . S
C7303 C7304 1.524 . S
C7303 C7307 1.400 . S
C7304 H7289 0.960 . S
C7304 H7290 0.960 . S
C7304 H7291 0.960 . S
C7304 C7303 1.524 . S
C7305 C7302 1.403 . S
C7305 C7306 1.392 . S
C7305 C7309 1.495 . S
C7306 C7305 1.392 . S
C7306 C7307 1.385 . S
C7306 C7308 1.478 . S
C7307 H7301 0.930 . S
C7307 C7303 1.400 . S
C7307 C7306 1.385 . S
C7308 C7306 1.478 . S
C7308 C7310 1.381 . S
C7308 C7314 1.383 . S
C7309 C7305 1.495 . S
C7309 H7315 0.959 . S
C7309 H7316 0.961 . S
C7309 H7317 0.960 . S
C7310 C7308 1.381 . S
C7310 C7311 1.394 . S
C7310 H7318 0.930 . S
C7311 C7310 1.394 . S
C7311 C7312 1.383 . S
C7311 H7319 0.929 . S
C7312 C7311 1.383 . S
C7312 C7313 1.377 . S
C7313 H7297 0.930 . S
C7313 C7312 1.377 . S
C7313 C7314 1.379 . S
C7314 H7298 0.931 . S
C7314 C7308 1.383 . S
C7314 C7313 1.379 . S
H7315 C7309 0.959 . S
H7316 C7309 0.961 . S
H7317 C7309 0.960 . S
H7318 C7310 0.930 . S
H7319 C7311 0.929 . S
H7320 C7328 0.929 . S
H7321 C7330 0.930 . S
H7322 C7332 0.930 . S
H7323 C7335 0.929 . S
H7324 C7338 0.930 . S
H7325 C7340 0.960 . S
H7326 C7340 0.960 . S
H7327 C7340 0.960 . S
C7328 H7320 0.929 . S
C7328 C7329 1.377 . S
C7328 C7330 1.384 . S
C7329 C7328 1.377 . S
C7329 C7335 1.390 . S
C7330 H7321 0.930 . S
C7330 C7328 1.384 . S
C7330 C7331 1.372 . S
C7331 C7330 1.372 . S
C7331 C7332 1.400 . S
C7331 C7336 1.490 . S
C7332 H7322 0.930 . S
C7332 C7331 1.400 . S
C7332 C7335 1.386 . S
H7333 C7349 0.930 . S
H7334 C7350 0.931 . S
C7335 H7323 0.929 . S
C7335 C7329 1.390 . S
C7335 C7332 1.386 . S
C7336 C7331 1.490 . S
C7336 C7338 1.395 . S
C7336 C7339 1.403 . S
H7337 C7343 0.930 . S
C7338 H7324 0.930 . S
C7338 C7336 1.395 . S
C7338 C7341 1.403 . S
C7339 C7336 1.403 . S
C7339 C7340 1.524 . S
C7339 C7343 1.400 . S
C7340 H7325 0.960 . S
C7340 H7326 0.960 . S
C7340 H7327 0.960 . S
C7340 C7339 1.524 . S
C7341 C7338 1.403 . S
C7341 C7342 1.392 . S
C7341 C7345 1.495 . S
C7342 C7341 1.392 . S
C7342 C7343 1.385 . S
C7342 C7344 1.478 . S
C7343 H7337 0.930 . S
C7343 C7339 1.400 . S
C7343 C7342 1.385 . S
C7344 C7342 1.478 . S
C7344 C7346 1.381 . S
C7344 C7350 1.383 . S
C7345 C7341 1.495 . S
C7345 H7351 0.959 . S
C7345 H7352 0.961 . S
C7345 H7353 0.960 . S
C7346 C7344 1.381 . S
C7346 C7347 1.394 . S
C7346 H7354 0.930 . S
C7347 C7346 1.394 . S
C7347 C7348 1.383 . S
C7347 H7355 0.929 . S
C7348 C7347 1.383 . S
C7348 C7349 1.377 . S
C7349 H7333 0.930 . S
C7349 C7348 1.377 . S
C7349 C7350 1.379 . S
C7350 H7334 0.931 . S
C7350 C7344 1.383 . S
C7350 C7349 1.379 . S
H7351 C7345 0.959 . S
H7352 C7345 0.961 . S
H7353 C7345 0.960 . S
H7354 C7346 0.930 . S
H7355 C7347 0.929 . S
H7356 C7364 0.929 . S
H7357 C7366 0.930 . S
H7358 C7368 0.930 . S
H7359 C7371 0.929 . S
H7360 C7374 0.930 . S
H7361 C7376 0.960 . S
H7362 C7376 0.960 . S
H7363 C7376 0.960 . S
C7364 H7356 0.929 . S
C7364 C7365 1.377 . S
C7364 C7366 1.384 . S
C7365 C7364 1.377 . S
C7365 C7371 1.390 . S
C7366 H7357 0.930 . S
C7366 C7364 1.384 . S
C7366 C7367 1.372 . S
C7367 C7366 1.372 . S
C7367 C7368 1.400 . S
C7367 C7372 1.490 . S
C7368 H7358 0.930 . S
C7368 C7367 1.400 . S
C7368 C7371 1.386 . S
H7369 C7385 0.930 . S
H7370 C7386 0.931 . S
C7371 H7359 0.929 . S
C7371 C7365 1.390 . S
C7371 C7368 1.386 . S
C7372 C7367 1.490 . S
C7372 C7374 1.395 . S
C7372 C7375 1.403 . S
H7373 C7379 0.930 . S
C7374 H7360 0.930 . S
C7374 C7372 1.395 . S
C7374 C7377 1.403 . S
C7375 C7372 1.403 . S
C7375 C7376 1.524 . S
C7375 C7379 1.400 . S
C7376 H7361 0.960 . S
C7376 H7362 0.960 . S
C7376 H7363 0.960 . S
C7376 C7375 1.524 . S
C7377 C7374 1.403 . S
C7377 C7378 1.392 . S
C7377 C7381 1.495 . S
C7378 C7377 1.392 . S
C7378 C7379 1.385 . S
C7378 C7380 1.478 . S
C7379 H7373 0.930 . S
C7379 C7375 1.400 . S
C7379 C7378 1.385 . S
C7380 C7378 1.478 . S
C7380 C7382 1.381 . S
C7380 C7386 1.383 . S
C7381 C7377 1.495 . S
C7381 H7387 0.959 . S
C7381 H7388 0.961 . S
C7381 H7389 0.960 . S
C7382 C7380 1.381 . S
C7382 C7383 1.394 . S
C7382 H7390 0.930 . S
C7383 C7382 1.394 . S
C7383 C7384 1.383 . S
C7383 H7391 0.929 . S
C7384 C7383 1.383 . S
C7384 C7385 1.377 . S
C7385 H7369 0.930 . S
C7385 C7384 1.377 . S
C7385 C7386 1.379 . S
C7386 H7370 0.931 . S
C7386 C7380 1.383 . S
C7386 C7385 1.379 . S
H7387 C7381 0.959 . S
H7388 C7381 0.961 . S
H7389 C7381 0.960 . S
H7390 C7382 0.930 . S
H7391 C7383 0.929 . S
H7392 C7400 0.929 . S
H7393 C7402 0.930 . S
H7394 C7404 0.930 . S
H7395 C7407 0.929 . S
H7396 C7410 0.930 . S
H7397 C7412 0.960 . S
H7398 C7412 0.960 . S
H7399 C7412 0.960 . S
C7400 H7392 0.929 . S
C7400 C7401 1.377 . S
C7400 C7402 1.384 . S
C7401 C7400 1.377 . S
C7401 C7407 1.390 . S
C7402 H7393 0.930 . S
C7402 C7400 1.384 . S
C7402 C7403 1.372 . S
C7403 C7402 1.372 . S
C7403 C7404 1.400 . S
C7403 C7408 1.490 . S
C7404 H7394 0.930 . S
C7404 C7403 1.400 . S
C7404 C7407 1.386 . S
H7405 C7421 0.930 . S
H7406 C7422 0.931 . S
C7407 H7395 0.929 . S
C7407 C7401 1.390 . S
C7407 C7404 1.386 . S
C7408 C7403 1.490 . S
C7408 C7410 1.395 . S
C7408 C7411 1.403 . S
H7409 C7415 0.930 . S
C7410 H7396 0.930 . S
C7410 C7408 1.395 . S
C7410 C7413 1.403 . S
C7411 C7408 1.403 . S
C7411 C7412 1.524 . S
C7411 C7415 1.400 . S
C7412 H7397 0.960 . S
C7412 H7398 0.960 . S
C7412 H7399 0.960 . S
C7412 C7411 1.524 . S
C7413 C7410 1.403 . S
C7413 C7414 1.392 . S
C7413 C7417 1.495 . S
C7414 C7413 1.392 . S
C7414 C7415 1.385 . S
C7414 C7416 1.478 . S
C7415 H7409 0.930 . S
C7415 C7411 1.400 . S
C7415 C7414 1.385 . S
C7416 C7414 1.478 . S
C7416 C7418 1.381 . S
C7416 C7422 1.383 . S
C7417 C7413 1.495 . S
C7417 H7423 0.959 . S
C7417 H7424 0.961 . S
C7417 H7425 0.960 . S
C7418 C7416 1.381 . S
C7418 C7419 1.394 . S
C7418 H7426 0.930 . S
C7419 C7418 1.394 . S
C7419 C7420 1.383 . S
C7419 H7427 0.929 . S
C7420 C7419 1.383 . S
C7420 C7421 1.377 . S
C7421 H7405 0.930 . S
C7421 C7420 1.377 . S
C7421 C7422 1.379 . S
C7422 H7406 0.931 . S
C7422 C7416 1.383 . S
C7422 C7421 1.379 . S
H7423 C7417 0.959 . S
H7424 C7417 0.961 . S
H7425 C7417 0.960 . S
H7426 C7418 0.930 . S
H7427 C7419 0.929 . S
H7428 C7436 0.929 . S
H7429 C7438 0.930 . S
H7430 C7440 0.930 . S
H7431 C7443 0.929 . S
H7432 C7446 0.930 . S
H7433 C7448 0.960 . S
H7434 C7448 0.960 . S
H7435 C7448 0.960 . S
C7436 H7428 0.929 . S
C7436 C7437 1.377 . S
C7436 C7438 1.384 . S
C7437 C7436 1.377 . S
C7437 C7443 1.390 . S
C7438 H7429 0.930 . S
C7438 C7436 1.384 . S
C7438 C7439 1.372 . S
C7439 C7438 1.372 . S
C7439 C7440 1.400 . S
C7439 C7444 1.490 . S
C7440 H7430 0.930 . S
C7440 C7439 1.400 . S
C7440 C7443 1.386 . S
H7441 C7457 0.930 . S
H7442 C7458 0.931 . S
C7443 H7431 0.929 . S
C7443 C7437 1.390 . S
C7443 C7440 1.386 . S
C7444 C7439 1.490 . S
C7444 C7446 1.395 . S
C7444 C7447 1.403 . S
H7445 C7451 0.930 . S
C7446 H7432 0.930 . S
C7446 C7444 1.395 . S
C7446 C7449 1.403 . S
C7447 C7444 1.403 . S
C7447 C7448 1.524 . S
C7447 C7451 1.400 . S
C7448 H7433 0.960 . S
C7448 H7434 0.960 . S
C7448 H7435 0.960 . S
C7448 C7447 1.524 . S
C7449 C7446 1.403 . S
C7449 C7450 1.392 . S
C7449 C7453 1.495 . S
C7450 C7449 1.392 . S
C7450 C7451 1.385 . S
C7450 C7452 1.478 . S
C7451 H7445 0.930 . S
C7451 C7447 1.400 . S
C7451 C7450 1.385 . S
C7452 C7450 1.478 . S
C7452 C7454 1.381 . S
C7452 C7458 1.383 . S
C7453 C7449 1.495 . S
C7453 H7459 0.959 . S
C7453 H7460 0.961 . S
C7453 H7461 0.960 . S
C7454 C7452 1.381 . S
C7454 C7455 1.394 . S
C7454 H7462 0.930 . S
C7455 C7454 1.394 . S
C7455 C7456 1.383 . S
C7455 H7463 0.929 . S
C7456 C7455 1.383 . S
C7456 C7457 1.377 . S
C7457 H7441 0.930 . S
C7457 C7456 1.377 . S
C7457 C7458 1.379 . S
C7458 H7442 0.931 . S
C7458 C7452 1.383 . S
C7458 C7457 1.379 . S
H7459 C7453 0.959 . S
H7460 C7453 0.961 . S
H7461 C7453 0.960 . S
H7462 C7454 0.930 . S
H7463 C7455 0.929 . S
H7464 C7472 0.929 . S
H7465 C7474 0.930 . S
H7466 C7476 0.930 . S
H7467 C7479 0.929 . S
H7468 C7482 0.930 . S
H7469 C7484 0.960 . S
H7470 C7484 0.960 . S
H7471 C7484 0.960 . S
C7472 H7464 0.929 . S
C7472 C7473 1.377 . S
C7472 C7474 1.384 . S
C7473 C7472 1.377 . S
C7473 C7479 1.390 . S
C7474 H7465 0.930 . S
C7474 C7472 1.384 . S
C7474 C7475 1.372 . S
C7475 C7474 1.372 . S
C7475 C7476 1.400 . S
C7475 C7480 1.490 . S
C7476 H7466 0.930 . S
C7476 C7475 1.400 . S
C7476 C7479 1.386 . S
H7477 C7493 0.930 . S
H7478 C7494 0.931 . S
C7479 H7467 0.929 . S
C7479 C7473 1.390 . S
C7479 C7476 1.386 . S
C7480 C7475 1.490 . S
C7480 C7482 1.395 . S
C7480 C7483 1.403 . S
H7481 C7487 0.930 . S
C7482 H7468 0.930 . S
C7482 C7480 1.395 . S
C7482 C7485 1.403 . S
C7483 C7480 1.403 . S
C7483 C7484 1.524 . S
C7483 C7487 1.400 . S
C7484 H7469 0.960 . S
C7484 H7470 0.960 . S
C7484 H7471 0.960 . S
C7484 C7483 1.524 . S
C7485 C7482 1.403 . S
C7485 C7486 1.392 . S
C7485 C7489 1.495 . S
C7486 C7485 1.392 . S
C7486 C7487 1.385 . S
C7486 C7488 1.478 . S
C7487 H7481 0.930 . S
C7487 C7483 1.400 . S
C7487 C7486 1.385 . S
C7488 C7486 1.478 . S
C7488 C7490 1.381 . S
C7488 C7494 1.383 . S
C7489 C7485 1.495 . S
C7489 H7495 0.959 . S
C7489 H7496 0.961 . S
C7489 H7497 0.960 . S
C7490 C7488 1.381 . S
C7490 C7491 1.394 . S
C7490 H7498 0.930 . S
C7491 C7490 1.394 . S
C7491 C7492 1.383 . S
C7491 H7499 0.929 . S
C7492 C7491 1.383 . S
C7492 C7493 1.377 . S
C7493 H7477 0.930 . S
C7493 C7492 1.377 . S
C7493 C7494 1.379 . S
C7494 H7478 0.931 . S
C7494 C7488 1.383 . S
C7494 C7493 1.379 . S
H7495 C7489 0.959 . S
H7496 C7489 0.961 . S
H7497 C7489 0.960 . S
H7498 C7490 0.930 . S
H7499 C7491 0.929 . S
H7500 C7508 0.929 . S
H7501 C7510 0.930 . S
H7502 C7512 0.930 . S
H7503 C7515 0.929 . S
H7504 C7518 0.930 . S
H7505 C7520 0.960 . S
H7506 C7520 0.960 . S
H7507 C7520 0.960 . S
C7508 H7500 0.929 . S
C7508 C7509 1.377 . S
C7508 C7510 1.384 . S
C7509 C7508 1.377 . S
C7509 C7515 1.390 . S
C7510 H7501 0.930 . S
C7510 C7508 1.384 . S
C7510 C7511 1.372 . S
C7511 C7510 1.372 . S
C7511 C7512 1.400 . S
C7511 C7516 1.490 . S
C7512 H7502 0.930 . S
C7512 C7511 1.400 . S
C7512 C7515 1.386 . S
H7513 C7529 0.930 . S
H7514 C7530 0.931 . S
C7515 H7503 0.929 . S
C7515 C7509 1.390 . S
C7515 C7512 1.386 . S
C7516 C7511 1.490 . S
C7516 C7518 1.395 . S
C7516 C7519 1.403 . S
H7517 C7523 0.930 . S
C7518 H7504 0.930 . S
C7518 C7516 1.395 . S
C7518 C7521 1.403 . S
C7519 C7516 1.403 . S
C7519 C7520 1.524 . S
C7519 C7523 1.400 . S
C7520 H7505 0.960 . S
C7520 H7506 0.960 . S
C7520 H7507 0.960 . S
C7520 C7519 1.524 . S
C7521 C7518 1.403 . S
C7521 C7522 1.392 . S
C7521 C7525 1.495 . S
C7522 C7521 1.392 . S
C7522 C7523 1.385 . S
C7522 C7524 1.478 . S
C7523 H7517 0.930 . S
C7523 C7519 1.400 . S
C7523 C7522 1.385 . S
C7524 C7522 1.478 . S
C7524 C7526 1.381 . S
C7524 C7530 1.383 . S
C7525 C7521 1.495 . S
C7525 H7531 0.959 . S
C7525 H7532 0.961 . S
C7525 H7533 0.960 . S
C7526 C7524 1.381 . S
C7526 C7527 1.394 . S
C7526 H7534 0.930 . S
C7527 C7526 1.394 . S
C7527 C7528 1.383 . S
C7527 H7535 0.929 . S
C7528 C7527 1.383 . S
C7528 C7529 1.377 . S
C7529 H7513 0.930 . S
C7529 C7528 1.377 . S
C7529 C7530 1.379 . S
C7530 H7514 0.931 . S
C7530 C7524 1.383 . S
C7530 C7529 1.379 . S
H7531 C7525 0.959 . S
H7532 C7525 0.961 . S
H7533 C7525 0.960 . S
H7534 C7526 0.930 . S
H7535 C7527 0.929 . S
H7536 C7544 0.929 . S
H7537 C7546 0.930 . S
H7538 C7548 0.930 . S
H7539 C7551 0.929 . S
H7540 C7554 0.930 . S
H7541 C7556 0.960 . S
H7542 C7556 0.960 . S
H7543 C7556 0.960 . S
C7544 H7536 0.929 . S
C7544 C7545 1.377 . S
C7544 C7546 1.384 . S
C7545 C7544 1.377 . S
C7545 C7551 1.390 . S
C7546 H7537 0.930 . S
C7546 C7544 1.384 . S
C7546 C7547 1.372 . S
C7547 C7546 1.372 . S
C7547 C7548 1.400 . S
C7547 C7552 1.490 . S
C7548 H7538 0.930 . S
C7548 C7547 1.400 . S
C7548 C7551 1.386 . S
H7549 C7565 0.930 . S
H7550 C7566 0.931 . S
C7551 H7539 0.929 . S
C7551 C7545 1.390 . S
C7551 C7548 1.386 . S
C7552 C7547 1.490 . S
C7552 C7554 1.395 . S
C7552 C7555 1.403 . S
H7553 C7559 0.930 . S
C7554 H7540 0.930 . S
C7554 C7552 1.395 . S
C7554 C7557 1.403 . S
C7555 C7552 1.403 . S
C7555 C7556 1.524 . S
C7555 C7559 1.400 . S
C7556 H7541 0.960 . S
C7556 H7542 0.960 . S
C7556 H7543 0.960 . S
C7556 C7555 1.524 . S
C7557 C7554 1.403 . S
C7557 C7558 1.392 . S
C7557 C7561 1.495 . S
C7558 C7557 1.392 . S
C7558 C7559 1.385 . S
C7558 C7560 1.478 . S
C7559 H7553 0.930 . S
C7559 C7555 1.400 . S
C7559 C7558 1.385 . S
C7560 C7558 1.478 . S
C7560 C7562 1.381 . S
C7560 C7566 1.383 . S
C7561 C7557 1.495 . S
C7561 H7567 0.959 . S
C7561 H7568 0.961 . S
C7561 H7569 0.960 . S
C7562 C7560 1.381 . S
C7562 C7563 1.394 . S
C7562 H7570 0.930 . S
C7563 C7562 1.394 . S
C7563 C7564 1.383 . S
C7563 H7571 0.929 . S
C7564 C7563 1.383 . S
C7564 C7565 1.377 . S
C7565 H7549 0.930 . S
C7565 C7564 1.377 . S
C7565 C7566 1.379 . S
C7566 H7550 0.931 . S
C7566 C7560 1.383 . S
C7566 C7565 1.379 . S
H7567 C7561 0.959 . S
H7568 C7561 0.961 . S
H7569 C7561 0.960 . S
H7570 C7562 0.930 . S
H7571 C7563 0.929 . S
H7572 C7580 0.929 . S
H7573 C7582 0.930 . S
H7574 C7584 0.930 . S
H7575 C7587 0.929 . S
H7576 C7590 0.930 . S
H7577 C7592 0.960 . S
H7578 C7592 0.960 . S
H7579 C7592 0.960 . S
C7580 H7572 0.929 . S
C7580 C7581 1.377 . S
C7580 C7582 1.384 . S
C7581 C7580 1.377 . S
C7581 C7587 1.390 . S
C7582 H7573 0.930 . S
C7582 C7580 1.384 . S
C7582 C7583 1.372 . S
C7583 C7582 1.372 . S
C7583 C7584 1.400 . S
C7583 C7588 1.490 . S
C7584 H7574 0.930 . S
C7584 C7583 1.400 . S
C7584 C7587 1.386 . S
H7585 C7601 0.930 . S
H7586 C7602 0.931 . S
C7587 H7575 0.929 . S
C7587 C7581 1.390 . S
C7587 C7584 1.386 . S
C7588 C7583 1.490 . S
C7588 C7590 1.395 . S
C7588 C7591 1.403 . S
H7589 C7595 0.930 . S
C7590 H7576 0.930 . S
C7590 C7588 1.395 . S
C7590 C7593 1.403 . S
C7591 C7588 1.403 . S
C7591 C7592 1.524 . S
C7591 C7595 1.400 . S
C7592 H7577 0.960 . S
C7592 H7578 0.960 . S
C7592 H7579 0.960 . S
C7592 C7591 1.524 . S
C7593 C7590 1.403 . S
C7593 C7594 1.392 . S
C7593 C7597 1.495 . S
C7594 C7593 1.392 . S
C7594 C7595 1.385 . S
C7594 C7596 1.478 . S
C7595 H7589 0.930 . S
C7595 C7591 1.400 . S
C7595 C7594 1.385 . S
C7596 C7594 1.478 . S
C7596 C7598 1.381 . S
C7596 C7602 1.383 . S
C7597 C7593 1.495 . S
C7597 H7603 0.959 . S
C7597 H7604 0.961 . S
C7597 H7605 0.960 . S
C7598 C7596 1.381 . S
C7598 C7599 1.394 . S
C7598 H7606 0.930 . S
C7599 C7598 1.394 . S
C7599 C7600 1.383 . S
C7599 H7607 0.929 . S
C7600 C7599 1.383 . S
C7600 C7601 1.377 . S
C7601 H7585 0.930 . S
C7601 C7600 1.377 . S
C7601 C7602 1.379 . S
C7602 H7586 0.931 . S
C7602 C7596 1.383 . S
C7602 C7601 1.379 . S
H7603 C7597 0.959 . S
H7604 C7597 0.961 . S
H7605 C7597 0.960 . S
H7606 C7598 0.930 . S
H7607 C7599 0.929 . S
H7608 C7616 0.929 . S
H7609 C7618 0.930 . S
H7610 C7620 0.930 . S
H7611 C7623 0.929 . S
H7612 C7626 0.930 . S
H7613 C7628 0.960 . S
H7614 C7628 0.960 . S
H7615 C7628 0.960 . S
C7616 H7608 0.929 . S
C7616 C7617 1.377 . S
C7616 C7618 1.384 . S
C7617 C7616 1.377 . S
C7617 C7623 1.390 . S
C7618 H7609 0.930 . S
C7618 C7616 1.384 . S
C7618 C7619 1.372 . S
C7619 C7618 1.372 . S
C7619 C7620 1.400 . S
C7619 C7624 1.490 . S
C7620 H7610 0.930 . S
C7620 C7619 1.400 . S
C7620 C7623 1.386 . S
H7621 C7637 0.930 . S
H7622 C7638 0.931 . S
C7623 H7611 0.929 . S
C7623 C7617 1.390 . S
C7623 C7620 1.386 . S
C7624 C7619 1.490 . S
C7624 C7626 1.395 . S
C7624 C7627 1.403 . S
H7625 C7631 0.930 . S
C7626 H7612 0.930 . S
C7626 C7624 1.395 . S
C7626 C7629 1.403 . S
C7627 C7624 1.403 . S
C7627 C7628 1.524 . S
C7627 C7631 1.400 . S
C7628 H7613 0.960 . S
C7628 H7614 0.960 . S
C7628 H7615 0.960 . S
C7628 C7627 1.524 . S
C7629 C7626 1.403 . S
C7629 C7630 1.392 . S
C7629 C7633 1.495 . S
C7630 C7629 1.392 . S
C7630 C7631 1.385 . S
C7630 C7632 1.478 . S
C7631 H7625 0.930 . S
C7631 C7627 1.400 . S
C7631 C7630 1.385 . S
C7632 C7630 1.478 . S
C7632 C7634 1.381 . S
C7632 C7638 1.383 . S
C7633 C7629 1.495 . S
C7633 H7639 0.959 . S
C7633 H7640 0.961 . S
C7633 H7641 0.960 . S
C7634 C7632 1.381 . S
C7634 C7635 1.394 . S
C7634 H7642 0.930 . S
C7635 C7634 1.394 . S
C7635 C7636 1.383 . S
C7635 H7643 0.929 . S
C7636 C7635 1.383 . S
C7636 C7637 1.377 . S
C7637 H7621 0.930 . S
C7637 C7636 1.377 . S
C7637 C7638 1.379 . S
C7638 H7622 0.931 . S
C7638 C7632 1.383 . S
C7638 C7637 1.379 . S
H7639 C7633 0.959 . S
H7640 C7633 0.961 . S
H7641 C7633 0.960 . S
H7642 C7634 0.930 . S
H7643 C7635 0.929 . S
H7644 C7652 0.929 . S
H7645 C7654 0.930 . S
H7646 C7656 0.930 . S
H7647 C7659 0.929 . S
H7648 C7662 0.930 . S
H7649 C7664 0.960 . S
H7650 C7664 0.960 . S
H7651 C7664 0.960 . S
C7652 H7644 0.929 . S
C7652 C7653 1.377 . S
C7652 C7654 1.384 . S
C7653 C7652 1.377 . S
C7653 C7659 1.390 . S
C7654 H7645 0.930 . S
C7654 C7652 1.384 . S
C7654 C7655 1.372 . S
C7655 C7654 1.372 . S
C7655 C7656 1.400 . S
C7655 C7660 1.490 . S
C7656 H7646 0.930 . S
C7656 C7655 1.400 . S
C7656 C7659 1.386 . S
H7657 C7673 0.930 . S
H7658 C7674 0.931 . S
C7659 H7647 0.929 . S
C7659 C7653 1.390 . S
C7659 C7656 1.386 . S
C7660 C7655 1.490 . S
C7660 C7662 1.395 . S
C7660 C7663 1.403 . S
H7661 C7667 0.930 . S
C7662 H7648 0.930 . S
C7662 C7660 1.395 . S
C7662 C7665 1.403 . S
C7663 C7660 1.403 . S
C7663 C7664 1.524 . S
C7663 C7667 1.400 . S
C7664 H7649 0.960 . S
C7664 H7650 0.960 . S
C7664 H7651 0.960 . S
C7664 C7663 1.524 . S
C7665 C7662 1.403 . S
C7665 C7666 1.392 . S
C7665 C7669 1.495 . S
C7666 C7665 1.392 . S
C7666 C7667 1.385 . S
C7666 C7668 1.478 . S
C7667 H7661 0.930 . S
C7667 C7663 1.400 . S
C7667 C7666 1.385 . S
C7668 C7666 1.478 . S
C7668 C7670 1.381 . S
C7668 C7674 1.383 . S
C7669 C7665 1.495 . S
C7669 H7675 0.959 . S
C7669 H7676 0.961 . S
C7669 H7677 0.960 . S
C7670 C7668 1.381 . S
C7670 C7671 1.394 . S
C7670 H7678 0.930 . S
C7671 C7670 1.394 . S
C7671 C7672 1.383 . S
C7671 H7679 0.929 . S
C7672 C7671 1.383 . S
C7672 C7673 1.377 . S
C7673 H7657 0.930 . S
C7673 C7672 1.377 . S
C7673 C7674 1.379 . S
C7674 H7658 0.931 . S
C7674 C7668 1.383 . S
C7674 C7673 1.379 . S
H7675 C7669 0.959 . S
H7676 C7669 0.961 . S
H7677 C7669 0.960 . S
H7678 C7670 0.930 . S
H7679 C7671 0.929 . S
H7680 C7688 0.929 . S
H7681 C7690 0.930 . S
H7682 C7692 0.930 . S
H7683 C7695 0.929 . S
H7684 C7698 0.930 . S
H7685 C7700 0.960 . S
H7686 C7700 0.960 . S
H7687 C7700 0.960 . S
C7688 H7680 0.929 . S
C7688 C7689 1.377 . S
C7688 C7690 1.384 . S
C7689 C7688 1.377 . S
C7689 C7695 1.390 . S
C7690 H7681 0.930 . S
C7690 C7688 1.384 . S
C7690 C7691 1.372 . S
C7691 C7690 1.372 . S
C7691 C7692 1.400 . S
C7691 C7696 1.490 . S
C7692 H7682 0.930 . S
C7692 C7691 1.400 . S
C7692 C7695 1.386 . S
H7693 C7709 0.930 . S
H7694 C7710 0.931 . S
C7695 H7683 0.929 . S
C7695 C7689 1.390 . S
C7695 C7692 1.386 . S
C7696 C7691 1.490 . S
C7696 C7698 1.395 . S
C7696 C7699 1.403 . S
H7697 C7703 0.930 . S
C7698 H7684 0.930 . S
C7698 C7696 1.395 . S
C7698 C7701 1.403 . S
C7699 C7696 1.403 . S
C7699 C7700 1.524 . S
C7699 C7703 1.400 . S
C7700 H7685 0.960 . S
C7700 H7686 0.960 . S
C7700 H7687 0.960 . S
C7700 C7699 1.524 . S
C7701 C7698 1.403 . S
C7701 C7702 1.392 . S
C7701 C7705 1.495 . S
C7702 C7701 1.392 . S
C7702 C7703 1.385 . S
C7702 C7704 1.478 . S
C7703 H7697 0.930 . S
C7703 C7699 1.400 . S
C7703 C7702 1.385 . S
C7704 C7702 1.478 . S
C7704 C7706 1.381 . S
C7704 C7710 1.383 . S
C7705 C7701 1.495 . S
C7705 H7711 0.959 . S
C7705 H7712 0.961 . S
C7705 H7713 0.960 . S
C7706 C7704 1.381 . S
C7706 C7707 1.394 . S
C7706 H7714 0.930 . S
C7707 C7706 1.394 . S
C7707 C7708 1.383 . S
C7707 H7715 0.929 . S
C7708 C7707 1.383 . S
C7708 C7709 1.377 . S
C7709 H7693 0.930 . S
C7709 C7708 1.377 . S
C7709 C7710 1.379 . S
C7710 H7694 0.931 . S
C7710 C7704 1.383 . S
C7710 C7709 1.379 . S
H7711 C7705 0.959 . S
H7712 C7705 0.961 . S
H7713 C7705 0.960 . S
H7714 C7706 0.930 . S
H7715 C7707 0.929 . S
H7716 C7724 0.929 . S
H7717 C7726 0.930 . S
H7718 C7728 0.930 . S
H7719 C7731 0.929 . S
H7720 C7734 0.930 . S
H7721 C7736 0.960 . S
H7722 C7736 0.960 . S
H7723 C7736 0.960 . S
C7724 H7716 0.929 . S
C7724 C7725 1.377 . S
C7724 C7726 1.384 . S
C7725 C7724 1.377 . S
C7725 C7731 1.390 . S
C7726 H7717 0.930 . S
C7726 C7724 1.384 . S
C7726 C7727 1.372 . S
C7727 C7726 1.372 . S
C7727 C7728 1.400 . S
C7727 C7732 1.490 . S
C7728 H7718 0.930 . S
C7728 C7727 1.400 . S
C7728 C7731 1.386 . S
H7729 C7745 0.930 . S
H7730 C7746 0.931 . S
C7731 H7719 0.929 . S
C7731 C7725 1.390 . S
C7731 C7728 1.386 . S
C7732 C7727 1.490 . S
C7732 C7734 1.395 . S
C7732 C7735 1.403 . S
H7733 C7739 0.930 . S
C7734 H7720 0.930 . S
C7734 C7732 1.395 . S
C7734 C7737 1.403 . S
C7735 C7732 1.403 . S
C7735 C7736 1.524 . S
C7735 C7739 1.400 . S
C7736 H7721 0.960 . S
C7736 H7722 0.960 . S
C7736 H7723 0.960 . S
C7736 C7735 1.524 . S
C7737 C7734 1.403 . S
C7737 C7738 1.392 . S
C7737 C7741 1.495 . S
C7738 C7737 1.392 . S
C7738 C7739 1.385 . S
C7738 C7740 1.478 . S
C7739 H7733 0.930 . S
C7739 C7735 1.400 . S
C7739 C7738 1.385 . S
C7740 C7738 1.478 . S
C7740 C7742 1.381 . S
C7740 C7746 1.383 . S
C7741 C7737 1.495 . S
C7741 H7747 0.959 . S
C7741 H7748 0.961 . S
C7741 H7749 0.960 . S
C7742 C7740 1.381 . S
C7742 C7743 1.394 . S
C7742 H7750 0.930 . S
C7743 C7742 1.394 . S
C7743 C7744 1.383 . S
C7743 H7751 0.929 . S
C7744 C7743 1.383 . S
C7744 C7745 1.377 . S
C7745 H7729 0.930 . S
C7745 C7744 1.377 . S
C7745 C7746 1.379 . S
C7746 H7730 0.931 . S
C7746 C7740 1.383 . S
C7746 C7745 1.379 . S
H7747 C7741 0.959 . S
H7748 C7741 0.961 . S
H7749 C7741 0.960 . S
H7750 C7742 0.930 . S
H7751 C7743 0.929 . S
H7752 C7760 0.929 . S
H7753 C7762 0.930 . S
H7754 C7764 0.930 . S
H7755 C7767 0.929 . S
H7756 C7770 0.930 . S
H7757 C7772 0.960 . S
H7758 C7772 0.960 . S
H7759 C7772 0.960 . S
C7760 H7752 0.929 . S
C7760 C7761 1.377 . S
C7760 C7762 1.384 . S
C7761 C7760 1.377 . S
C7761 C7767 1.390 . S
C7762 H7753 0.930 . S
C7762 C7760 1.384 . S
C7762 C7763 1.372 . S
C7763 C7762 1.372 . S
C7763 C7764 1.400 . S
C7763 C7768 1.490 . S
C7764 H7754 0.930 . S
C7764 C7763 1.400 . S
C7764 C7767 1.386 . S
H7765 C7781 0.930 . S
H7766 C7782 0.931 . S
C7767 H7755 0.929 . S
C7767 C7761 1.390 . S
C7767 C7764 1.386 . S
C7768 C7763 1.490 . S
C7768 C7770 1.395 . S
C7768 C7771 1.403 . S
H7769 C7775 0.930 . S
C7770 H7756 0.930 . S
C7770 C7768 1.395 . S
C7770 C7773 1.403 . S
C7771 C7768 1.403 . S
C7771 C7772 1.524 . S
C7771 C7775 1.400 . S
C7772 H7757 0.960 . S
C7772 H7758 0.960 . S
C7772 H7759 0.960 . S
C7772 C7771 1.524 . S
C7773 C7770 1.403 . S
C7773 C7774 1.392 . S
C7773 C7777 1.495 . S
C7774 C7773 1.392 . S
C7774 C7775 1.385 . S
C7774 C7776 1.478 . S
C7775 H7769 0.930 . S
C7775 C7771 1.400 . S
C7775 C7774 1.385 . S
C7776 C7774 1.478 . S
C7776 C7778 1.381 . S
C7776 C7782 1.383 . S
C7777 C7773 1.495 . S
C7777 H7783 0.959 . S
C7777 H7784 0.961 . S
C7777 H7785 0.960 . S
C7778 C7776 1.381 . S
C7778 C7779 1.394 . S
C7778 H7786 0.930 . S
C7779 C7778 1.394 . S
C7779 C7780 1.383 . S
C7779 H7787 0.929 . S
C7780 C7779 1.383 . S
C7780 C7781 1.377 . S
C7781 H7765 0.930 . S
C7781 C7780 1.377 . S
C7781 C7782 1.379 . S
C7782 H7766 0.931 . S
C7782 C7776 1.383 . S
C7782 C7781 1.379 . S
H7783 C7777 0.959 . S
H7784 C7777 0.961 . S
H7785 C7777 0.960 . S
H7786 C7778 0.930 . S
H7787 C7779 0.929 . S
H7788 C7796 0.929 . S
H7789 C7798 0.930 . S
H7790 C7800 0.930 . S
H7791 C7803 0.929 . S
H7792 C7806 0.930 . S
H7793 C7808 0.960 . S
H7794 C7808 0.960 . S
H7795 C7808 0.960 . S
C7796 H7788 0.929 . S
C7796 C7797 1.377 . S
C7796 C7798 1.384 . S
C7797 C7796 1.377 . S
C7797 C7803 1.390 . S
C7798 H7789 0.930 . S
C7798 C7796 1.384 . S
C7798 C7799 1.372 . S
C7799 C7798 1.372 . S
C7799 C7800 1.400 . S
C7799 C7804 1.490 . S
C7800 H7790 0.930 . S
C7800 C7799 1.400 . S
C7800 C7803 1.386 . S
H7801 C7817 0.930 . S
H7802 C7818 0.931 . S
C7803 H7791 0.929 . S
C7803 C7797 1.390 . S
C7803 C7800 1.386 . S
C7804 C7799 1.490 . S
C7804 C7806 1.395 . S
C7804 C7807 1.403 . S
H7805 C7811 0.930 . S
C7806 H7792 0.930 . S
C7806 C7804 1.395 . S
C7806 C7809 1.403 . S
C7807 C7804 1.403 . S
C7807 C7808 1.524 . S
C7807 C7811 1.400 . S
C7808 H7793 0.960 . S
C7808 H7794 0.960 . S
C7808 H7795 0.960 . S
C7808 C7807 1.524 . S
C7809 C7806 1.403 . S
C7809 C7810 1.392 . S
C7809 C7813 1.495 . S
C7810 C7809 1.392 . S
C7810 C7811 1.385 . S
C7810 C7812 1.478 . S
C7811 H7805 0.930 . S
C7811 C7807 1.400 . S
C7811 C7810 1.385 . S
C7812 C7810 1.478 . S
C7812 C7814 1.381 . S
C7812 C7818 1.383 . S
C7813 C7809 1.495 . S
C7813 H7819 0.959 . S
C7813 H7820 0.961 . S
C7813 H7821 0.960 . S
C7814 C7812 1.381 . S
C7814 C7815 1.394 . S
C7814 H7822 0.930 . S
C7815 C7814 1.394 . S
C7815 C7816 1.383 . S
C7815 H7823 0.929 . S
C7816 C7815 1.383 . S
C7816 C7817 1.377 . S
C7817 H7801 0.930 . S
C7817 C7816 1.377 . S
C7817 C7818 1.379 . S
C7818 H7802 0.931 . S
C7818 C7812 1.383 . S
C7818 C7817 1.379 . S
H7819 C7813 0.959 . S
H7820 C7813 0.961 . S
H7821 C7813 0.960 . S
H7822 C7814 0.930 . S
H7823 C7815 0.929 . S
H7824 C7832 0.929 . S
H7825 C7834 0.930 . S
H7826 C7836 0.930 . S
H7827 C7839 0.929 . S
H7828 C7842 0.930 . S
H7829 C7844 0.960 . S
H7830 C7844 0.960 . S
H7831 C7844 0.960 . S
C7832 H7824 0.929 . S
C7832 C7833 1.377 . S
C7832 C7834 1.384 . S
C7833 C7832 1.377 . S
C7833 C7839 1.390 . S
C7834 H7825 0.930 . S
C7834 C7832 1.384 . S
C7834 C7835 1.372 . S
C7835 C7834 1.372 . S
C7835 C7836 1.400 . S
C7835 C7840 1.490 . S
C7836 H7826 0.930 . S
C7836 C7835 1.400 . S
C7836 C7839 1.386 . S
H7837 C7853 0.930 . S
H7838 C7854 0.931 . S
C7839 H7827 0.929 . S
C7839 C7833 1.390 . S
C7839 C7836 1.386 . S
C7840 C7835 1.490 . S
C7840 C7842 1.395 . S
C7840 C7843 1.403 . S
H7841 C7847 0.930 . S
C7842 H7828 0.930 . S
C7842 C7840 1.395 . S
C7842 C7845 1.403 . S
C7843 C7840 1.403 . S
C7843 C7844 1.524 . S
C7843 C7847 1.400 . S
C7844 H7829 0.960 . S
C7844 H7830 0.960 . S
C7844 H7831 0.960 . S
C7844 C7843 1.524 . S
C7845 C7842 1.403 . S
C7845 C7846 1.392 . S
C7845 C7849 1.495 . S
C7846 C7845 1.392 . S
C7846 C7847 1.385 . S
C7846 C7848 1.478 . S
C7847 H7841 0.930 . S
C7847 C7843 1.400 . S
C7847 C7846 1.385 . S
C7848 C7846 1.478 . S
C7848 C7850 1.381 . S
C7848 C7854 1.383 . S
C7849 C7845 1.495 . S
C7849 H7855 0.959 . S
C7849 H7856 0.961 . S
C7849 H7857 0.960 . S
C7850 C7848 1.381 . S
C7850 C7851 1.394 . S
C7850 H7858 0.930 . S
C7851 C7850 1.394 . S
C7851 C7852 1.383 . S
C7851 H7859 0.929 . S
C7852 C7851 1.383 . S
C7852 C7853 1.377 . S
C7853 H7837 0.930 . S
C7853 C7852 1.377 . S
C7853 C7854 1.379 . S
C7854 H7838 0.931 . S
C7854 C7848 1.383 . S
C7854 C7853 1.379 . S
H7855 C7849 0.959 . S
H7856 C7849 0.961 . S
H7857 C7849 0.960 . S
H7858 C7850 0.930 . S
H7859 C7851 0.929 . S
H7860 C7868 0.929 . S
H7861 C7870 0.930 . S
H7862 C7872 0.930 . S
H7863 C7875 0.929 . S
H7864 C7878 0.930 . S
H7865 C7880 0.960 . S
H7866 C7880 0.960 . S
H7867 C7880 0.960 . S
C7868 H7860 0.929 . S
C7868 C7869 1.377 . S
C7868 C7870 1.384 . S
C7869 C7868 1.377 . S
C7869 C7875 1.390 . S
C7870 H7861 0.930 . S
C7870 C7868 1.384 . S
C7870 C7871 1.372 . S
C7871 C7870 1.372 . S
C7871 C7872 1.400 . S
C7871 C7876 1.490 . S
C7872 H7862 0.930 . S
C7872 C7871 1.400 . S
C7872 C7875 1.386 . S
H7873 C7889 0.930 . S
H7874 C7890 0.931 . S
C7875 H7863 0.929 . S
C7875 C7869 1.390 . S
C7875 C7872 1.386 . S
C7876 C7871 1.490 . S
C7876 C7878 1.395 . S
C7876 C7879 1.403 . S
H7877 C7883 0.930 . S
C7878 H7864 0.930 . S
C7878 C7876 1.395 . S
C7878 C7881 1.403 . S
C7879 C7876 1.403 . S
C7879 C7880 1.524 . S
C7879 C7883 1.400 . S
C7880 H7865 0.960 . S
C7880 H7866 0.960 . S
C7880 H7867 0.960 . S
C7880 C7879 1.524 . S
C7881 C7878 1.403 . S
C7881 C7882 1.392 . S
C7881 C7885 1.495 . S
C7882 C7881 1.392 . S
C7882 C7883 1.385 . S
C7882 C7884 1.478 . S
C7883 H7877 0.930 . S
C7883 C7879 1.400 . S
C7883 C7882 1.385 . S
C7884 C7882 1.478 . S
C7884 C7886 1.381 . S
C7884 C7890 1.383 . S
C7885 C7881 1.495 . S
C7885 H7891 0.959 . S
C7885 H7892 0.961 . S
C7885 H7893 0.960 . S
C7886 C7884 1.381 . S
C7886 C7887 1.394 . S
C7886 H7894 0.930 . S
C7887 C7886 1.394 . S
C7887 C7888 1.383 . S
C7887 H7895 0.929 . S
C7888 C7887 1.383 . S
C7888 C7889 1.377 . S
C7889 H7873 0.930 . S
C7889 C7888 1.377 . S
C7889 C7890 1.379 . S
C7890 H7874 0.931 . S
C7890 C7884 1.383 . S
C7890 C7889 1.379 . S
H7891 C7885 0.959 . S
H7892 C7885 0.961 . S
H7893 C7885 0.960 . S
H7894 C7886 0.930 . S
H7895 C7887 0.929 . S
H7896 C7904 0.929 . S
H7897 C7906 0.930 . S
H7898 C7908 0.930 . S
H7899 C7911 0.929 . S
H7900 C7914 0.930 . S
H7901 C7916 0.960 . S
H7902 C7916 0.960 . S
H7903 C7916 0.960 . S
C7904 H7896 0.929 . S
C7904 C7905 1.377 . S
C7904 C7906 1.384 . S
C7905 C7904 1.377 . S
C7905 C7911 1.390 . S
C7906 H7897 0.930 . S
C7906 C7904 1.384 . S
C7906 C7907 1.372 . S
C7907 C7906 1.372 . S
C7907 C7908 1.400 . S
C7907 C7912 1.490 . S
C7908 H7898 0.930 . S
C7908 C7907 1.400 . S
C7908 C7911 1.386 . S
H7909 C7925 0.930 . S
H7910 C7926 0.931 . S
C7911 H7899 0.929 . S
C7911 C7905 1.390 . S
C7911 C7908 1.386 . S
C7912 C7907 1.490 . S
C7912 C7914 1.395 . S
C7912 C7915 1.403 . S
H7913 C7919 0.930 . S
C7914 H7900 0.930 . S
C7914 C7912 1.395 . S
C7914 C7917 1.403 . S
C7915 C7912 1.403 . S
C7915 C7916 1.524 . S
C7915 C7919 1.400 . S
C7916 H7901 0.960 . S
C7916 H7902 0.960 . S
C7916 H7903 0.960 . S
C7916 C7915 1.524 . S
C7917 C7914 1.403 . S
C7917 C7918 1.392 . S
C7917 C7921 1.495 . S
C7918 C7917 1.392 . S
C7918 C7919 1.385 . S
C7918 C7920 1.478 . S
C7919 H7913 0.930 . S
C7919 C7915 1.400 . S
C7919 C7918 1.385 . S
C7920 C7918 1.478 . S
C7920 C7922 1.381 . S
C7920 C7926 1.383 . S
C7921 C7917 1.495 . S
C7921 H7927 0.959 . S
C7921 H7928 0.961 . S
C7921 H7929 0.960 . S
C7922 C7920 1.381 . S
C7922 C7923 1.394 . S
C7922 H7930 0.930 . S
C7923 C7922 1.394 . S
C7923 C7924 1.383 . S
C7923 H7931 0.929 . S
C7924 C7923 1.383 . S
C7924 C7925 1.377 . S
C7925 H7909 0.930 . S
C7925 C7924 1.377 . S
C7925 C7926 1.379 . S
C7926 H7910 0.931 . S
C7926 C7920 1.383 . S
C7926 C7925 1.379 . S
H7927 C7921 0.959 . S
H7928 C7921 0.961 . S
H7929 C7921 0.960 . S
H7930 C7922 0.930 . S
H7931 C7923 0.929 . S
H7932 C7940 0.929 . S
H7933 C7942 0.930 . S
H7934 C7944 0.930 . S
H7935 C7947 0.929 . S
H7936 C7950 0.930 . S
H7937 C7952 0.960 . S
H7938 C7952 0.960 . S
H7939 C7952 0.960 . S
C7940 H7932 0.929 . S
C7940 C7941 1.377 . S
C7940 C7942 1.384 . S
C7941 C7940 1.377 . S
C7941 C7947 1.390 . S
C7942 H7933 0.930 . S
C7942 C7940 1.384 . S
C7942 C7943 1.372 . S
C7943 C7942 1.372 . S
C7943 C7944 1.400 . S
C7943 C7948 1.490 . S
C7944 H7934 0.930 . S
C7944 C7943 1.400 . S
C7944 C7947 1.386 . S
H7945 C7961 0.930 . S
H7946 C7962 0.931 . S
C7947 H7935 0.929 . S
C7947 C7941 1.390 . S
C7947 C7944 1.386 . S
C7948 C7943 1.490 . S
C7948 C7950 1.395 . S
C7948 C7951 1.403 . S
H7949 C7955 0.930 . S
C7950 H7936 0.930 . S
C7950 C7948 1.395 . S
C7950 C7953 1.403 . S
C7951 C7948 1.403 . S
C7951 C7952 1.524 . S
C7951 C7955 1.400 . S
C7952 H7937 0.960 . S
C7952 H7938 0.960 . S
C7952 H7939 0.960 . S
C7952 C7951 1.524 . S
C7953 C7950 1.403 . S
C7953 C7954 1.392 . S
C7953 C7957 1.495 . S
C7954 C7953 1.392 . S
C7954 C7955 1.385 . S
C7954 C7956 1.478 . S
C7955 H7949 0.930 . S
C7955 C7951 1.400 . S
C7955 C7954 1.385 . S
C7956 C7954 1.478 . S
C7956 C7958 1.381 . S
C7956 C7962 1.383 . S
C7957 C7953 1.495 . S
C7957 H7963 0.959 . S
C7957 H7964 0.961 . S
C7957 H7965 0.960 . S
C7958 C7956 1.381 . S
C7958 C7959 1.394 . S
C7958 H7966 0.930 . S
C7959 C7958 1.394 . S
C7959 C7960 1.383 . S
C7959 H7967 0.929 . S
C7960 C7959 1.383 . S
C7960 C7961 1.377 . S
C7961 H7945 0.930 . S
C7961 C7960 1.377 . S
C7961 C7962 1.379 . S
C7962 H7946 0.931 . S
C7962 C7956 1.383 . S
C7962 C7961 1.379 . S
H7963 C7957 0.959 . S
H7964 C7957 0.961 . S
H7965 C7957 0.960 . S
H7966 C7958 0.930 . S
H7967 C7959 0.929 . S
H7968 C7976 0.929 . S
H7969 C7978 0.930 . S
H7970 C7980 0.930 . S
H7971 C7983 0.929 . S
H7972 C7986 0.930 . S
H7973 C7988 0.960 . S
H7974 C7988 0.960 . S
H7975 C7988 0.960 . S
C7976 H7968 0.929 . S
C7976 C7977 1.377 . S
C7976 C7978 1.384 . S
C7977 C7976 1.377 . S
C7977 C7983 1.390 . S
C7978 H7969 0.930 . S
C7978 C7976 1.384 . S
C7978 C7979 1.372 . S
C7979 C7978 1.372 . S
C7979 C7980 1.400 . S
C7979 C7984 1.490 . S
C7980 H7970 0.930 . S
C7980 C7979 1.400 . S
C7980 C7983 1.386 . S
H7981 C7997 0.930 . S
H7982 C7998 0.931 . S
C7983 H7971 0.929 . S
C7983 C7977 1.390 . S
C7983 C7980 1.386 . S
C7984 C7979 1.490 . S
C7984 C7986 1.395 . S
C7984 C7987 1.403 . S
H7985 C7991 0.930 . S
C7986 H7972 0.930 . S
C7986 C7984 1.395 . S
C7986 C7989 1.403 . S
C7987 C7984 1.403 . S
C7987 C7988 1.524 . S
C7987 C7991 1.400 . S
C7988 H7973 0.960 . S
C7988 H7974 0.960 . S
C7988 H7975 0.960 . S
C7988 C7987 1.524 . S
C7989 C7986 1.403 . S
C7989 C7990 1.392 . S
C7989 C7993 1.495 . S
C7990 C7989 1.392 . S
C7990 C7991 1.385 . S
C7990 C7992 1.478 . S
C7991 H7985 0.930 . S
C7991 C7987 1.400 . S
C7991 C7990 1.385 . S
C7992 C7990 1.478 . S
C7992 C7994 1.381 . S
C7992 C7998 1.383 . S
C7993 C7989 1.495 . S
C7993 H7999 0.959 . S
C7993 H8000 0.961 . S
C7993 H8001 0.960 . S
C7994 C7992 1.381 . S
C7994 C7995 1.394 . S
C7994 H8002 0.930 . S
C7995 C7994 1.394 . S
C7995 C7996 1.383 . S
C7995 H8003 0.929 . S
C7996 C7995 1.383 . S
C7996 C7997 1.377 . S
C7997 H7981 0.930 . S
C7997 C7996 1.377 . S
C7997 C7998 1.379 . S
C7998 H7982 0.931 . S
C7998 C7992 1.383 . S
C7998 C7997 1.379 . S
H7999 C7993 0.959 . S
H8000 C7993 0.961 . S
H8001 C7993 0.960 . S
H8002 C7994 0.930 . S
H8003 C7995 0.929 . S
H8004 C8012 0.929 . S
H8005 C8014 0.930 . S
H8006 C8016 0.930 . S
H8007 C8019 0.929 . S
H8008 C8022 0.930 . S
H8009 C8024 0.960 . S
H8010 C8024 0.960 . S
H8011 C8024 0.960 . S
C8012 H8004 0.929 . S
C8012 C8013 1.377 . S
C8012 C8014 1.384 . S
C8013 C8012 1.377 . S
C8013 C8019 1.390 . S
C8014 H8005 0.930 . S
C8014 C8012 1.384 . S
C8014 C8015 1.372 . S
C8015 C8014 1.372 . S
C8015 C8016 1.400 . S
C8015 C8020 1.490 . S
C8016 H8006 0.930 . S
C8016 C8015 1.400 . S
C8016 C8019 1.386 . S
H8017 C8033 0.930 . S
H8018 C8034 0.931 . S
C8019 H8007 0.929 . S
C8019 C8013 1.390 . S
C8019 C8016 1.386 . S
C8020 C8015 1.490 . S
C8020 C8022 1.395 . S
C8020 C8023 1.403 . S
H8021 C8027 0.930 . S
C8022 H8008 0.930 . S
C8022 C8020 1.395 . S
C8022 C8025 1.403 . S
C8023 C8020 1.403 . S
C8023 C8024 1.524 . S
C8023 C8027 1.400 . S
C8024 H8009 0.960 . S
C8024 H8010 0.960 . S
C8024 H8011 0.960 . S
C8024 C8023 1.524 . S
C8025 C8022 1.403 . S
C8025 C8026 1.392 . S
C8025 C8029 1.495 . S
C8026 C8025 1.392 . S
C8026 C8027 1.385 . S
C8026 C8028 1.478 . S
C8027 H8021 0.930 . S
C8027 C8023 1.400 . S
C8027 C8026 1.385 . S
C8028 C8026 1.478 . S
C8028 C8030 1.381 . S
C8028 C8034 1.383 . S
C8029 C8025 1.495 . S
C8029 H8035 0.959 . S
C8029 H8036 0.961 . S
C8029 H8037 0.960 . S
C8030 C8028 1.381 . S
C8030 C8031 1.394 . S
C8030 H8038 0.930 . S
C8031 C8030 1.394 . S
C8031 C8032 1.383 . S
C8031 H8039 0.929 . S
C8032 C8031 1.383 . S
C8032 C8033 1.377 . S
C8033 H8017 0.930 . S
C8033 C8032 1.377 . S
C8033 C8034 1.379 . S
C8034 H8018 0.931 . S
C8034 C8028 1.383 . S
C8034 C8033 1.379 . S
H8035 C8029 0.959 . S
H8036 C8029 0.961 . S
H8037 C8029 0.960 . S
H8038 C8030 0.930 . S
H8039 C8031 0.929 . S
H8040 C8048 0.929 . S
H8041 C8050 0.930 . S
H8042 C8052 0.930 . S
H8043 C8055 0.929 . S
H8044 C8058 0.930 . S
H8045 C8060 0.960 . S
H8046 C8060 0.960 . S
H8047 C8060 0.960 . S
C8048 H8040 0.929 . S
C8048 C8049 1.377 . S
C8048 C8050 1.384 . S
C8049 C8048 1.377 . S
C8049 C8055 1.390 . S
C8050 H8041 0.930 . S
C8050 C8048 1.384 . S
C8050 C8051 1.372 . S
C8051 C8050 1.372 . S
C8051 C8052 1.400 . S
C8051 C8056 1.490 . S
C8052 H8042 0.930 . S
C8052 C8051 1.400 . S
C8052 C8055 1.386 . S
H8053 C8069 0.930 . S
H8054 C8070 0.931 . S
C8055 H8043 0.929 . S
C8055 C8049 1.390 . S
C8055 C8052 1.386 . S
C8056 C8051 1.490 . S
C8056 C8058 1.395 . S
C8056 C8059 1.403 . S
H8057 C8063 0.930 . S
C8058 H8044 0.930 . S
C8058 C8056 1.395 . S
C8058 C8061 1.403 . S
C8059 C8056 1.403 . S
C8059 C8060 1.524 . S
C8059 C8063 1.400 . S
C8060 H8045 0.960 . S
C8060 H8046 0.960 . S
C8060 H8047 0.960 . S
C8060 C8059 1.524 . S
C8061 C8058 1.403 . S
C8061 C8062 1.392 . S
C8061 C8065 1.495 . S
C8062 C8061 1.392 . S
C8062 C8063 1.385 . S
C8062 C8064 1.478 . S
C8063 H8057 0.930 . S
C8063 C8059 1.400 . S
C8063 C8062 1.385 . S
C8064 C8062 1.478 . S
C8064 C8066 1.381 . S
C8064 C8070 1.383 . S
C8065 C8061 1.495 . S
C8065 H8071 0.959 . S
C8065 H8072 0.961 . S
C8065 H8073 0.960 . S
C8066 C8064 1.381 . S
C8066 C8067 1.394 . S
C8066 H8074 0.930 . S
C8067 C8066 1.394 . S
C8067 C8068 1.383 . S
C8067 H8075 0.929 . S
C8068 C8067 1.383 . S
C8068 C8069 1.377 . S
C8069 H8053 0.930 . S
C8069 C8068 1.377 . S
C8069 C8070 1.379 . S
C8070 H8054 0.931 . S
C8070 C8064 1.383 . S
C8070 C8069 1.379 . S
H8071 C8065 0.959 . S
H8072 C8065 0.961 . S
H8073 C8065 0.960 . S
H8074 C8066 0.930 . S
H8075 C8067 0.929 . S
H8076 C8084 0.929 . S
H8077 C8086 0.930 . S
H8078 C8088 0.930 . S
H8079 C8091 0.929 . S
H8080 C8094 0.930 . S
H8081 C8096 0.960 . S
H8082 C8096 0.960 . S
H8083 C8096 0.960 . S
C8084 H8076 0.929 . S
C8084 C8085 1.377 . S
C8084 C8086 1.384 . S
C8085 C8084 1.377 . S
C8085 C8091 1.390 . S
C8086 H8077 0.930 . S
C8086 C8084 1.384 . S
C8086 C8087 1.372 . S
C8087 C8086 1.372 . S
C8087 C8088 1.400 . S
C8087 C8092 1.490 . S
C8088 H8078 0.930 . S
C8088 C8087 1.400 . S
C8088 C8091 1.386 . S
H8089 C8105 0.930 . S
H8090 C8106 0.931 . S
C8091 H8079 0.929 . S
C8091 C8085 1.390 . S
C8091 C8088 1.386 . S
C8092 C8087 1.490 . S
C8092 C8094 1.395 . S
C8092 C8095 1.403 . S
H8093 C8099 0.930 . S
C8094 H8080 0.930 . S
C8094 C8092 1.395 . S
C8094 C8097 1.403 . S
C8095 C8092 1.403 . S
C8095 C8096 1.524 . S
C8095 C8099 1.400 . S
C8096 H8081 0.960 . S
C8096 H8082 0.960 . S
C8096 H8083 0.960 . S
C8096 C8095 1.524 . S
C8097 C8094 1.403 . S
C8097 C8098 1.392 . S
C8097 C8101 1.495 . S
C8098 C8097 1.392 . S
C8098 C8099 1.385 . S
C8098 C8100 1.478 . S
C8099 H8093 0.930 . S
C8099 C8095 1.400 . S
C8099 C8098 1.385 . S
C8100 C8098 1.478 . S
C8100 C8102 1.381 . S
C8100 C8106 1.383 . S
C8101 C8097 1.495 . S
C8101 H8107 0.959 . S
C8101 H8108 0.961 . S
C8101 H8109 0.960 . S
C8102 C8100 1.381 . S
C8102 C8103 1.394 . S
C8102 H8110 0.930 . S
C8103 C8102 1.394 . S
C8103 C8104 1.383 . S
C8103 H8111 0.929 . S
C8104 C8103 1.383 . S
C8104 C8105 1.377 . S
C8105 H8089 0.930 . S
C8105 C8104 1.377 . S
C8105 C8106 1.379 . S
C8106 H8090 0.931 . S
C8106 C8100 1.383 . S
C8106 C8105 1.379 . S
H8107 C8101 0.959 . S
H8108 C8101 0.961 . S
H8109 C8101 0.960 . S
H8110 C8102 0.930 . S
H8111 C8103 0.929 . S
H8112 C8120 0.929 . S
H8113 C8122 0.930 . S
H8114 C8124 0.930 . S
H8115 C8127 0.929 . S
H8116 C8130 0.930 . S
H8117 C8132 0.960 . S
H8118 C8132 0.960 . S
H8119 C8132 0.960 . S
C8120 H8112 0.929 . S
C8120 C8121 1.377 . S
C8120 C8122 1.384 . S
C8121 C8120 1.377 . S
C8121 C8127 1.390 . S
C8122 H8113 0.930 . S
C8122 C8120 1.384 . S
C8122 C8123 1.372 . S
C8123 C8122 1.372 . S
C8123 C8124 1.400 . S
C8123 C8128 1.490 . S
C8124 H8114 0.930 . S
C8124 C8123 1.400 . S
C8124 C8127 1.386 . S
H8125 C8141 0.930 . S
H8126 C8142 0.931 . S
C8127 H8115 0.929 . S
C8127 C8121 1.390 . S
C8127 C8124 1.386 . S
C8128 C8123 1.490 . S
C8128 C8130 1.395 . S
C8128 C8131 1.403 . S
H8129 C8135 0.930 . S
C8130 H8116 0.930 . S
C8130 C8128 1.395 . S
C8130 C8133 1.403 . S
C8131 C8128 1.403 . S
C8131 C8132 1.524 . S
C8131 C8135 1.400 . S
C8132 H8117 0.960 . S
C8132 H8118 0.960 . S
C8132 H8119 0.960 . S
C8132 C8131 1.524 . S
C8133 C8130 1.403 . S
C8133 C8134 1.392 . S
C8133 C8137 1.495 . S
C8134 C8133 1.392 . S
C8134 C8135 1.385 . S
C8134 C8136 1.478 . S
C8135 H8129 0.930 . S
C8135 C8131 1.400 . S
C8135 C8134 1.385 . S
C8136 C8134 1.478 . S
C8136 C8138 1.381 . S
C8136 C8142 1.383 . S
C8137 C8133 1.495 . S
C8137 H8143 0.959 . S
C8137 H8144 0.961 . S
C8137 H8145 0.960 . S
C8138 C8136 1.381 . S
C8138 C8139 1.394 . S
C8138 H8146 0.930 . S
C8139 C8138 1.394 . S
C8139 C8140 1.383 . S
C8139 H8147 0.929 . S
C8140 C8139 1.383 . S
C8140 C8141 1.377 . S
C8141 H8125 0.930 . S
C8141 C8140 1.377 . S
C8141 C8142 1.379 . S
C8142 H8126 0.931 . S
C8142 C8136 1.383 . S
C8142 C8141 1.379 . S
H8143 C8137 0.959 . S
H8144 C8137 0.961 . S
H8145 C8137 0.960 . S
H8146 C8138 0.930 . S
H8147 C8139 0.929 . S
H8148 C8156 0.929 . S
H8149 C8158 0.930 . S
H8150 C8160 0.930 . S
H8151 C8163 0.929 . S
H8152 C8166 0.930 . S
H8153 C8168 0.960 . S
H8154 C8168 0.960 . S
H8155 C8168 0.960 . S
C8156 H8148 0.929 . S
C8156 C8157 1.377 . S
C8156 C8158 1.384 . S
C8157 C8156 1.377 . S
C8157 C8163 1.390 . S
C8158 H8149 0.930 . S
C8158 C8156 1.384 . S
C8158 C8159 1.372 . S
C8159 C8158 1.372 . S
C8159 C8160 1.400 . S
C8159 C8164 1.490 . S
C8160 H8150 0.930 . S
C8160 C8159 1.400 . S
C8160 C8163 1.386 . S
H8161 C8177 0.930 . S
H8162 C8178 0.931 . S
C8163 H8151 0.929 . S
C8163 C8157 1.390 . S
C8163 C8160 1.386 . S
C8164 C8159 1.490 . S
C8164 C8166 1.395 . S
C8164 C8167 1.403 . S
H8165 C8171 0.930 . S
C8166 H8152 0.930 . S
C8166 C8164 1.395 . S
C8166 C8169 1.403 . S
C8167 C8164 1.403 . S
C8167 C8168 1.524 . S
C8167 C8171 1.400 . S
C8168 H8153 0.960 . S
C8168 H8154 0.960 . S
C8168 H8155 0.960 . S
C8168 C8167 1.524 . S
C8169 C8166 1.403 . S
C8169 C8170 1.392 . S
C8169 C8173 1.495 . S
C8170 C8169 1.392 . S
C8170 C8171 1.385 . S
C8170 C8172 1.478 . S
C8171 H8165 0.930 . S
C8171 C8167 1.400 . S
C8171 C8170 1.385 . S
C8172 C8170 1.478 . S
C8172 C8174 1.381 . S
C8172 C8178 1.383 . S
C8173 C8169 1.495 . S
C8173 H8179 0.959 . S
C8173 H8180 0.961 . S
C8173 H8181 0.960 . S
C8174 C8172 1.381 . S
C8174 C8175 1.394 . S
C8174 H8182 0.930 . S
C8175 C8174 1.394 . S
C8175 C8176 1.383 . S
C8175 H8183 0.929 . S
C8176 C8175 1.383 . S
C8176 C8177 1.377 . S
C8177 H8161 0.930 . S
C8177 C8176 1.377 . S
C8177 C8178 1.379 . S
C8178 H8162 0.931 . S
C8178 C8172 1.383 . S
C8178 C8177 1.379 . S
H8179 C8173 0.959 . S
H8180 C8173 0.961 . S
H8181 C8173 0.960 . S
H8182 C8174 0.930 . S
H8183 C8175 0.929 . S
H8184 C8192 0.929 . S
H8185 C8194 0.930 . S
H8186 C8196 0.930 . S
H8187 C8199 0.929 . S
H8188 C8202 0.930 . S
H8189 C8204 0.960 . S
H8190 C8204 0.960 . S
H8191 C8204 0.960 . S
C8192 H8184 0.929 . S
C8192 C8193 1.377 . S
C8192 C8194 1.384 . S
C8193 C8192 1.377 . S
C8193 C8199 1.390 . S
C8194 H8185 0.930 . S
C8194 C8192 1.384 . S
C8194 C8195 1.372 . S
C8195 C8194 1.372 . S
C8195 C8196 1.400 . S
C8195 C8200 1.490 . S
C8196 H8186 0.930 . S
C8196 C8195 1.400 . S
C8196 C8199 1.386 . S
H8197 C8213 0.930 . S
H8198 C8214 0.931 . S
C8199 H8187 0.929 . S
C8199 C8193 1.390 . S
C8199 C8196 1.386 . S
C8200 C8195 1.490 . S
C8200 C8202 1.395 . S
C8200 C8203 1.403 . S
H8201 C8207 0.930 . S
C8202 H8188 0.930 . S
C8202 C8200 1.395 . S
C8202 C8205 1.403 . S
C8203 C8200 1.403 . S
C8203 C8204 1.524 . S
C8203 C8207 1.400 . S
C8204 H8189 0.960 . S
C8204 H8190 0.960 . S
C8204 H8191 0.960 . S
C8204 C8203 1.524 . S
C8205 C8202 1.403 . S
C8205 C8206 1.392 . S
C8205 C8209 1.495 . S
C8206 C8205 1.392 . S
C8206 C8207 1.385 . S
C8206 C8208 1.478 . S
C8207 H8201 0.930 . S
C8207 C8203 1.400 . S
C8207 C8206 1.385 . S
C8208 C8206 1.478 . S
C8208 C8210 1.381 . S
C8208 C8214 1.383 . S
C8209 C8205 1.495 . S
C8209 H8215 0.959 . S
C8209 H8216 0.961 . S
C8209 H8217 0.960 . S
C8210 C8208 1.381 . S
C8210 C8211 1.394 . S
C8210 H8218 0.930 . S
C8211 C8210 1.394 . S
C8211 C8212 1.383 . S
C8211 H8219 0.929 . S
C8212 C8211 1.383 . S
C8212 C8213 1.377 . S
C8213 H8197 0.930 . S
C8213 C8212 1.377 . S
C8213 C8214 1.379 . S
C8214 H8198 0.931 . S
C8214 C8208 1.383 . S
C8214 C8213 1.379 . S
H8215 C8209 0.959 . S
H8216 C8209 0.961 . S
H8217 C8209 0.960 . S
H8218 C8210 0.930 . S
H8219 C8211 0.929 . S
H8220 C8228 0.929 . S
H8221 C8230 0.930 . S
H8222 C8232 0.930 . S
H8223 C8235 0.929 . S
H8224 C8238 0.930 . S
H8225 C8240 0.960 . S
H8226 C8240 0.960 . S
H8227 C8240 0.960 . S
C8228 H8220 0.929 . S
C8228 C8229 1.377 . S
C8228 C8230 1.384 . S
C8229 C8228 1.377 . S
C8229 C8235 1.390 . S
C8230 H8221 0.930 . S
C8230 C8228 1.384 . S
C8230 C8231 1.372 . S
C8231 C8230 1.372 . S
C8231 C8232 1.400 . S
C8231 C8236 1.490 . S
C8232 H8222 0.930 . S
C8232 C8231 1.400 . S
C8232 C8235 1.386 . S
H8233 C8249 0.930 . S
H8234 C8250 0.931 . S
C8235 H8223 0.929 . S
C8235 C8229 1.390 . S
C8235 C8232 1.386 . S
C8236 C8231 1.490 . S
C8236 C8238 1.395 . S
C8236 C8239 1.403 . S
H8237 C8243 0.930 . S
C8238 H8224 0.930 . S
C8238 C8236 1.395 . S
C8238 C8241 1.403 . S
C8239 C8236 1.403 . S
C8239 C8240 1.524 . S
C8239 C8243 1.400 . S
C8240 H8225 0.960 . S
C8240 H8226 0.960 . S
C8240 H8227 0.960 . S
C8240 C8239 1.524 . S
C8241 C8238 1.403 . S
C8241 C8242 1.392 . S
C8241 C8245 1.495 . S
C8242 C8241 1.392 . S
C8242 C8243 1.385 . S
C8242 C8244 1.478 . S
C8243 H8237 0.930 . S
C8243 C8239 1.400 . S
C8243 C8242 1.385 . S
C8244 C8242 1.478 . S
C8244 C8246 1.381 . S
C8244 C8250 1.383 . S
C8245 C8241 1.495 . S
C8245 H8251 0.959 . S
C8245 H8252 0.961 . S
C8245 H8253 0.960 . S
C8246 C8244 1.381 . S
C8246 C8247 1.394 . S
C8246 H8254 0.930 . S
C8247 C8246 1.394 . S
C8247 C8248 1.383 . S
C8247 H8255 0.929 . S
C8248 C8247 1.383 . S
C8248 C8249 1.377 . S
C8249 H8233 0.930 . S
C8249 C8248 1.377 . S
C8249 C8250 1.379 . S
C8250 H8234 0.931 . S
C8250 C8244 1.383 . S
C8250 C8249 1.379 . S
H8251 C8245 0.959 . S
H8252 C8245 0.961 . S
H8253 C8245 0.960 . S
H8254 C8246 0.930 . S
H8255 C8247 0.929 . S
C1353 C9 1.215 . S
C1372 C1057 1.198 . S
C1389 C343 1.171 . S
C1408 C23 1.189 . S
C1425 C1029 1.210 . S
C1444 C37 1.194 . S
C1461 C371 1.180 . S
C1480 C51 1.160 . S
C1497 C65 1.214 . S
C1516 C1085 1.209 . S
C1533 C79 1.186 . S
C1552 C427 1.153 . S
C1569 C1113 1.206 . S
C1588 C93 1.225 . S
C1605 C107 1.188 . S
C1624 C399 1.167 . S
C1641 C119 1.187 . S
C1660 C1267 1.194 . S
C1677 C609 1.210 . S
C1696 C135 1.240 . S
C1713 C147 1.192 . S
C1732 C623 1.195 . S
C1749 C163 1.226 . S
C1768 C581 1.186 . S
C1785 C175 1.183 . S
C1804 C1323 1.146 . S
C1821 C191 1.228 . S
C1840 C1239 1.189 . S
C1857 C203 1.182 . S
C1876 C1337 1.158 . S
C1893 C219 1.224 . S
C1912 C1309 1.221 . S
C1929 C1141 1.172 . S
C1948 C233 1.200 . S
C1965 C247 1.190 . S
C1984 C553 1.152 . S
C2001 C259 1.179 . S
C2020 C1183 1.164 . S
C2037 C525 1.172 . S
C2056 C275 1.200 . S
C2073 C287 1.211 . S
C2092 C539 1.201 . S
C2109 C1169 1.178 . S
C2128 C303 1.161 . S
C2145 C315 1.188 . S
C2164 C1127 1.192 . S
C2181 C1155 1.179 . S
C2200 C329 1.197 . S
C2217 C721 1.124 . S
C2236 C345 1.117 . S
C2253 C7 1.156 . S
C2272 C359 1.160 . S
C2289 C373 1.136 . S
C2308 C693 1.130 . S
C2325 C387 1.160 . S
C2344 C35 1.176 . S
C2361 C401 1.136 . S
C2380 C749 1.105 . S
C2397 C91 1.156 . S
C2416 C415 1.164 . S
C2433 C429 1.133 . S
C2452 C777 1.087 . S
C2469 C443 1.166 . S
C2488 C63 1.157 . S
C2505 C457 1.144 . S
C2524 C933 1.126 . S
C2541 C273 1.103 . S
C2560 C471 1.126 . S
C2577 C485 1.146 . S
C2596 C289 1.065 . S
C2613 C245 1.116 . S
C2632 C499 1.113 . S
C2649 C513 1.146 . S
C2668 C989 1.064 . S
C2685 C527 1.124 . S
C2704 C903 1.077 . S
C2721 C541 1.149 . S
C2740 C1003 1.087 . S
C2757 C973 1.112 . S
C2776 C555 1.100 . S
C2793 C805 1.145 . S
C2812 C569 1.144 . S
C2829 C217 1.144 . S
C2848 C583 1.175 . S
C2865 C849 1.151 . S
C2884 C597 1.163 . S
C2901 C611 1.154 . S
C2920 C189 1.148 . S
C2937 C625 1.185 . S
C2956 C205 1.099 . S
C2973 C639 1.163 . S
C2992 C833 1.120 . S
C3009 C793 1.147 . S
C3028 C653 1.182 . S
C3045 C667 1.183 . S
C3064 C821 1.133 . S
C3081 C385 1.209 . S
C3100 C681 1.221 . S
C3117 C1015 1.178 . S
C3136 C695 1.164 . S
C3153 C709 1.227 . S
C3172 C357 1.184 . S
C3189 C1043 1.175 . S
C3208 C723 1.160 . S
C3225 C737 1.221 . S
C3244 C413 1.229 . S
C3261 C1099 1.171 . S
C3280 C751 1.197 . S
C3297 C765 1.226 . S
C3316 C441 1.184 . S
C3333 C1071 1.172 . S
C3352 C779 1.171 . S
C3369 C595 1.169 . S
C3388 C791 1.169 . S
C3405 C807 1.224 . S
C3424 C1281 1.241 . S
C3441 C1295 1.180 . S
C3460 C819 1.208 . S
C3477 C835 1.232 . S
C3496 C1253 1.189 . S
C3513 C651 1.169 . S
C3532 C847 1.163 . S
C3549 C863 1.229 . S
C3568 C567 1.227 . S
C3585 C665 1.172 . S
C3604 C875 1.159 . S
C3621 C637 1.222 . S
C3640 C891 1.222 . S
C3657 C469 1.178 . S
C3676 C905 1.195 . S
C3693 C1225 1.177 . S
C3712 C919 1.161 . S
C3729 C931 1.221 . S
C3748 C511 1.233 . S
C3765 C947 1.186 . S
C3784 C1197 1.147 . S
C3801 C1211 1.178 . S
C3820 C959 1.205 . S
C3837 C497 1.172 . S
C3856 C975 1.206 . S
C3873 C455 1.208 . S
C3892 C987 1.209 . S
C3909 C483 1.212 . S
C3928 C1001 1.229 . S
C3945 C1017 1.129 . S
C3964 C49 1.142 . S
C3981 C1031 1.151 . S
C4000 C679 1.166 . S
C4017 C1045 1.128 . S
C4036 C21 1.136 . S
C4053 C1059 1.151 . S
C4072 C707 1.164 . S
C4089 C77 1.121 . S
C4108 C1073 1.149 . S
C4125 C763 1.140 . S
C4144 C1087 1.169 . S
C4161 C105 1.111 . S
C4180 C1101 1.134 . S
C4197 C735 1.145 . S
C4216 C1115 1.175 . S
C4233 C1129 1.179 . S
C4252 C261 1.116 . S
C4269 C945 1.114 . S
C4288 C1143 1.101 . S
C4305 C1157 1.184 . S
C4324 C961 1.104 . S
C4341 C1171 1.130 . S
C4360 C917 1.126 . S
C4377 C317 1.135 . S
C4396 C1185 1.171 . S
C4413 C231 1.113 . S
C4432 C1199 1.147 . S
C4449 C1213 1.184 . S
C4468 C331 1.102 . S
C4485 C301 1.110 . S
C4504 C1227 1.102 . S
C4521 C1241 1.163 . S
C4540 C133 1.165 . S
C4557 C1255 1.166 . S
C4576 C889 1.159 . S
C4593 C177 1.131 . S
C4612 C1269 1.198 . S
C4629 C1283 1.157 . S
C4648 C861 1.163 . S
C4665 C877 1.148 . S
C4684 C1297 1.178 . S
C4701 C1311 1.155 . S
C4720 C161 1.129 . S
C4737 C1325 1.185 . S
C4756 C121 1.106 . S
C4773 C1339 1.183 . S
C4792 C149 1.137 . S
C4809 C3 1.217 . S
C4828 C610 1.246 . S
C4845 C624 1.246 . S
C4864 C17 1.235 . S
C4881 C582 1.246 . S
C4900 C31 1.214 . S
C4917 C45 1.204 . S
C4936 C1268 1.238 . S
C4953 C59 1.215 . S
C4972 C1310 1.245 . S
C4989 C73 1.213 . S
C5008 C1324 1.248 . S
C5025 C1240 1.246 . S
C5044 C87 1.217 . S
C5061 C1338 1.245 . S
C5080 C101 1.219 . S
C5097 C372 1.201 . S
C5116 C120 1.205 . S
C5133 C129 1.208 . S
C5152 C1058 1.238 . S
C5169 C344 1.201 . S
C5188 C148 1.205 . S
C5205 C1030 1.240 . S
C5224 C157 1.179 . S
C5241 C428 1.200 . S
C5260 C176 1.170 . S
C5277 C185 1.211 . S
C5296 C1114 1.239 . S
C5313 C204 1.193 . S
C5332 C400 1.200 . S
C5349 C213 1.204 . S
C5368 C1086 1.237 . S
C5385 C227 1.209 . S
C5404 C1184 1.243 . S
C5421 C456 1.252 . S
C5440 C241 1.242 . S
C5457 C260 1.187 . S
C5476 C1142 1.198 . S
C5493 C269 1.217 . S
C5512 C484 1.257 . S
C5529 C288 1.170 . S
C5548 C498 1.180 . S
C5565 C297 1.209 . S
C5584 C1212 1.243 . S
C5601 C1226 1.201 . S
C5620 C316 1.171 . S
C5637 C1198 1.201 . S
C5656 C330 1.196 . S
C5673 C274 1.223 . S
C5692 C339 1.169 . S
C5709 C353 1.257 . S
C5728 C283 1.290 . S
C5745 C367 1.192 . S
C5764 C246 1.222 . S
C5781 C381 1.256 . S
C5800 C927 1.291 . S
C5817 C974 1.221 . S
C5836 C395 1.197 . S
C5853 C983 1.283 . S
C5872 C409 1.274 . S
C5889 C423 1.190 . S
C5908 C904 1.216 . S
C5925 C997 1.286 . S
C5944 C437 1.253 . S
C5961 C451 1.202 . S
C5980 C36 1.221 . S
C5997 C722 1.222 . S
C6016 C465 1.158 . S
C6033 C479 1.188 . S
C6052 C8 1.220 . S
C6069 C694 1.221 . S
C6088 C493 1.202 . S
C6105 C507 1.196 . S
C6124 C92 1.224 . S
C6141 C778 1.223 . S
C6160 C521 1.161 . S
C6177 C64 1.233 . S
C6196 C535 1.160 . S
C6213 C750 1.221 . S
C6232 C549 1.199 . S
C6249 C563 1.254 . S
C6268 C843 1.285 . S
C6285 C577 1.252 . S
C6304 C115 1.288 . S
C6321 C806 1.263 . S
C6340 C591 1.193 . S
C6357 C605 1.245 . S
C6376 C143 1.280 . S
C6393 C162 1.263 . S
C6412 C619 1.248 . S
C6429 C871 1.278 . S
C6448 C633 1.222 . S
C6465 C890 1.262 . S
C6484 C647 1.245 . S
C6501 C862 1.263 . S
C6520 C661 1.250 . S
C6537 C675 1.208 . S
C6556 C1282 1.242 . S
C6573 C689 1.220 . S
C6592 C1296 1.253 . S
C6609 C703 1.212 . S
C6628 C1254 1.243 . S
C6645 C596 1.252 . S
C6664 C717 1.240 . S
C6681 C731 1.215 . S
C6700 C638 1.244 . S
C6717 C652 1.250 . S
C6736 C745 1.216 . S
C6753 C568 1.246 . S
C6772 C759 1.193 . S
C6789 C666 1.251 . S
C6808 C773 1.224 . S
C6825 C792 1.197 . S
C6844 C1044 1.206 . S
C6861 C386 1.252 . S
C6880 C801 1.225 . S
C6897 C820 1.197 . S
C6916 C1016 1.206 . S
C6933 C829 1.211 . S
C6952 C358 1.247 . S
C6969 C848 1.200 . S
C6988 C1100 1.207 . S
C7005 C857 1.216 . S
C7024 C442 1.249 . S
C7041 C1072 1.208 . S
C7060 C876 1.207 . S
C7077 C414 1.252 . S
C7096 C885 1.235 . S
C7113 C899 1.213 . S
C7132 C512 1.255 . S
C7149 C913 1.199 . S
C7168 C1128 1.232 . S
C7185 C932 1.175 . S
C7204 C470 1.183 . S
C7221 C1156 1.239 . S
C7240 C941 1.171 . S
C7257 C960 1.188 . S
C7276 C1170 1.198 . S
C7293 C969 1.217 . S
C7312 C540 1.258 . S
C7329 C554 1.183 . S
C7348 C988 1.153 . S
C7365 C1002 1.174 . S
C7384 C526 1.182 . S
C7401 C1011 1.182 . S
C7420 C946 1.219 . S
C7437 C955 1.271 . S
C7456 C1025 1.211 . S
C7473 C918 1.219 . S
C7492 C1039 1.154 . S
C7509 C1053 1.243 . S
C7528 C255 1.263 . S
C7545 C1067 1.183 . S
C7564 C302 1.213 . S
C7581 C1081 1.236 . S
C7600 C311 1.270 . S
C7617 C232 1.219 . S
C7636 C1095 1.167 . S
C7653 C1109 1.238 . S
C7672 C325 1.260 . S
C7689 C1123 1.217 . S
C7708 C708 1.252 . S
C7725 C1137 1.188 . S
C7744 C50 1.221 . S
C7761 C1151 1.224 . S
C7780 C680 1.255 . S
C7797 C1165 1.192 . S
C7816 C22 1.217 . S
C7833 C1179 1.220 . S
C7852 C764 1.259 . S
C7869 C1193 1.183 . S
C7888 C106 1.221 . S
C7905 C1207 1.222 . S
C7924 C736 1.252 . S
C7941 C1221 1.192 . S
C7960 C78 1.218 . S
C7977 C1235 1.245 . S
C7996 C171 1.278 . S
C8013 C1249 1.254 . S
C8032 C787 1.279 . S
C8049 C1263 1.219 . S
C8068 C134 1.264 . S
C8085 C1277 1.245 . S
C8104 C815 1.269 . S
C8121 C1291 1.223 . S
C8140 C834 1.263 . S
C8157 C199 1.281 . S
C8176 C1305 1.274 . S
C8193 C1319 1.228 . S
C8212 C218 1.262 . S
C8229 C1333 1.220 . S
C8248 C190 1.264 . S
