# Generated by pormake.
# Topology ukd, (4)-cn, num edge types: 1
# Building blocks:
#     Node 0, Type 0, BuildingBlock: TATPOV_clean_sbu_0, # of connection points: 4
#     Node 1, Type 0, BuildingBlock: TATPOV_clean_sbu_0, # of connection points: 4
#     Node 2, Type 0, BuildingBlock: TATPOV_clean_sbu_0, # of connection points: 4
#     Node 3, Type 0, BuildingBlock: TATPOV_clean_sbu_0, # of connection points: 4
#     Node 4, Type 0, BuildingBlock: TATPOV_clean_sbu_0, # of connection points: 4
#     Node 5, Type 0, BuildingBlock: TATPOV_clean_sbu_0, # of connection points: 4
#     Node 6, Type 0, BuildingBlock: TATPOV_clean_sbu_0, # of connection points: 4
#     Node 7, Type 0, BuildingBlock: TATPOV_clean_sbu_0, # of connection points: 4
#     Node 8, Type 0, BuildingBlock: TATPOV_clean_sbu_0, # of connection points: 4
#     Node 9, Type 0, BuildingBlock: TATPOV_clean_sbu_0, # of connection points: 4
#     Node 10, Type 0, BuildingBlock: TATPOV_clean_sbu_0, # of connection points: 4
#     Node 11, Type 0, BuildingBlock: TATPOV_clean_sbu_0, # of connection points: 4
#     Node 12, Type 0, BuildingBlock: TATPOV_clean_sbu_0, # of connection points: 4
#     Node 13, Type 0, BuildingBlock: TATPOV_clean_sbu_0, # of connection points: 4
#     Node 14, Type 0, BuildingBlock: TATPOV_clean_sbu_0, # of connection points: 4
#     Node 15, Type 0, BuildingBlock: TATPOV_clean_sbu_0, # of connection points: 4
#     Node 16, Type 0, BuildingBlock: TATPOV_clean_sbu_0, # of connection points: 4
#     Node 17, Type 0, BuildingBlock: TATPOV_clean_sbu_0, # of connection points: 4
#     Node 18, Type 0, BuildingBlock: TATPOV_clean_sbu_0, # of connection points: 4
#     Node 19, Type 0, BuildingBlock: TATPOV_clean_sbu_0, # of connection points: 4
#     Node 20, Type 0, BuildingBlock: TATPOV_clean_sbu_0, # of connection points: 4
#     Node 21, Type 0, BuildingBlock: TATPOV_clean_sbu_0, # of connection points: 4
#     Node 22, Type 0, BuildingBlock: TATPOV_clean_sbu_0, # of connection points: 4
#     Node 23, Type 0, BuildingBlock: TATPOV_clean_sbu_0, # of connection points: 4
#     Node 24, Type 0, BuildingBlock: TATPOV_clean_sbu_0, # of connection points: 4
#     Node 25, Type 0, BuildingBlock: TATPOV_clean_sbu_0, # of connection points: 4
#     Node 26, Type 0, BuildingBlock: TATPOV_clean_sbu_0, # of connection points: 4
#     Node 27, Type 0, BuildingBlock: TATPOV_clean_sbu_0, # of connection points: 4
#     Node 28, Type 0, BuildingBlock: TATPOV_clean_sbu_0, # of connection points: 4
#     Node 29, Type 0, BuildingBlock: TATPOV_clean_sbu_0, # of connection points: 4
#     Node 30, Type 0, BuildingBlock: TATPOV_clean_sbu_0, # of connection points: 4
#     Node 31, Type 0, BuildingBlock: TATPOV_clean_sbu_0, # of connection points: 4
#     Edge 32, Type (0, 0), BuildingBlock: UVAHIK_clean_linker_0, # of connection points: 2
#     Edge 33, Type (0, 0), BuildingBlock: UVAHIK_clean_linker_0, # of connection points: 2
#     Edge 34, Type (0, 0), BuildingBlock: UVAHIK_clean_linker_0, # of connection points: 2
#     Edge 35, Type (0, 0), BuildingBlock: UVAHIK_clean_linker_0, # of connection points: 2
#     Edge 36, Type (0, 0), BuildingBlock: UVAHIK_clean_linker_0, # of connection points: 2
#     Edge 37, Type (0, 0), BuildingBlock: UVAHIK_clean_linker_0, # of connection points: 2
#     Edge 38, Type (0, 0), BuildingBlock: UVAHIK_clean_linker_0, # of connection points: 2
#     Edge 39, Type (0, 0), BuildingBlock: UVAHIK_clean_linker_0, # of connection points: 2
#     Edge 40, Type (0, 0), BuildingBlock: UVAHIK_clean_linker_0, # of connection points: 2
#     Edge 41, Type (0, 0), BuildingBlock: UVAHIK_clean_linker_0, # of connection points: 2
#     Edge 42, Type (0, 0), BuildingBlock: UVAHIK_clean_linker_0, # of connection points: 2
#     Edge 43, Type (0, 0), BuildingBlock: UVAHIK_clean_linker_0, # of connection points: 2
#     Edge 44, Type (0, 0), BuildingBlock: UVAHIK_clean_linker_0, # of connection points: 2
#     Edge 45, Type (0, 0), BuildingBlock: UVAHIK_clean_linker_0, # of connection points: 2
#     Edge 46, Type (0, 0), BuildingBlock: UVAHIK_clean_linker_0, # of connection points: 2
#     Edge 47, Type (0, 0), BuildingBlock: UVAHIK_clean_linker_0, # of connection points: 2
#     Edge 48, Type (0, 0), BuildingBlock: UVAHIK_clean_linker_0, # of connection points: 2
#     Edge 49, Type (0, 0), BuildingBlock: UVAHIK_clean_linker_0, # of connection points: 2
#     Edge 50, Type (0, 0), BuildingBlock: UVAHIK_clean_linker_0, # of connection points: 2
#     Edge 51, Type (0, 0), BuildingBlock: UVAHIK_clean_linker_0, # of connection points: 2
#     Edge 52, Type (0, 0), BuildingBlock: UVAHIK_clean_linker_0, # of connection points: 2
#     Edge 53, Type (0, 0), BuildingBlock: UVAHIK_clean_linker_0, # of connection points: 2
#     Edge 54, Type (0, 0), BuildingBlock: UVAHIK_clean_linker_0, # of connection points: 2
#     Edge 55, Type (0, 0), BuildingBlock: UVAHIK_clean_linker_0, # of connection points: 2
#     Edge 56, Type (0, 0), BuildingBlock: UVAHIK_clean_linker_0, # of connection points: 2
#     Edge 57, Type (0, 0), BuildingBlock: UVAHIK_clean_linker_0, # of connection points: 2
#     Edge 58, Type (0, 0), BuildingBlock: UVAHIK_clean_linker_0, # of connection points: 2
#     Edge 59, Type (0, 0), BuildingBlock: UVAHIK_clean_linker_0, # of connection points: 2
#     Edge 60, Type (0, 0), BuildingBlock: UVAHIK_clean_linker_0, # of connection points: 2
#     Edge 61, Type (0, 0), BuildingBlock: UVAHIK_clean_linker_0, # of connection points: 2
#     Edge 62, Type (0, 0), BuildingBlock: UVAHIK_clean_linker_0, # of connection points: 2
#     Edge 63, Type (0, 0), BuildingBlock: UVAHIK_clean_linker_0, # of connection points: 2
#     Edge 64, Type (0, 0), BuildingBlock: UVAHIK_clean_linker_0, # of connection points: 2
#     Edge 65, Type (0, 0), BuildingBlock: UVAHIK_clean_linker_0, # of connection points: 2
#     Edge 66, Type (0, 0), BuildingBlock: UVAHIK_clean_linker_0, # of connection points: 2
#     Edge 67, Type (0, 0), BuildingBlock: UVAHIK_clean_linker_0, # of connection points: 2
#     Edge 68, Type (0, 0), BuildingBlock: UVAHIK_clean_linker_0, # of connection points: 2
#     Edge 69, Type (0, 0), BuildingBlock: UVAHIK_clean_linker_0, # of connection points: 2
#     Edge 70, Type (0, 0), BuildingBlock: UVAHIK_clean_linker_0, # of connection points: 2
#     Edge 71, Type (0, 0), BuildingBlock: UVAHIK_clean_linker_0, # of connection points: 2
#     Edge 72, Type (0, 0), BuildingBlock: UVAHIK_clean_linker_0, # of connection points: 2
#     Edge 73, Type (0, 0), BuildingBlock: UVAHIK_clean_linker_0, # of connection points: 2
#     Edge 74, Type (0, 0), BuildingBlock: UVAHIK_clean_linker_0, # of connection points: 2
#     Edge 75, Type (0, 0), BuildingBlock: UVAHIK_clean_linker_0, # of connection points: 2
#     Edge 76, Type (0, 0), BuildingBlock: UVAHIK_clean_linker_0, # of connection points: 2
#     Edge 77, Type (0, 0), BuildingBlock: UVAHIK_clean_linker_0, # of connection points: 2
#     Edge 78, Type (0, 0), BuildingBlock: UVAHIK_clean_linker_0, # of connection points: 2
#     Edge 79, Type (0, 0), BuildingBlock: UVAHIK_clean_linker_0, # of connection points: 2
#     Edge 80, Type (0, 0), BuildingBlock: UVAHIK_clean_linker_0, # of connection points: 2
#     Edge 81, Type (0, 0), BuildingBlock: UVAHIK_clean_linker_0, # of connection points: 2
#     Edge 82, Type (0, 0), BuildingBlock: UVAHIK_clean_linker_0, # of connection points: 2
#     Edge 83, Type (0, 0), BuildingBlock: UVAHIK_clean_linker_0, # of connection points: 2
#     Edge 84, Type (0, 0), BuildingBlock: UVAHIK_clean_linker_0, # of connection points: 2
#     Edge 85, Type (0, 0), BuildingBlock: UVAHIK_clean_linker_0, # of connection points: 2
#     Edge 86, Type (0, 0), BuildingBlock: UVAHIK_clean_linker_0, # of connection points: 2
#     Edge 87, Type (0, 0), BuildingBlock: UVAHIK_clean_linker_0, # of connection points: 2
#     Edge 88, Type (0, 0), BuildingBlock: UVAHIK_clean_linker_0, # of connection points: 2
#     Edge 89, Type (0, 0), BuildingBlock: UVAHIK_clean_linker_0, # of connection points: 2
#     Edge 90, Type (0, 0), BuildingBlock: UVAHIK_clean_linker_0, # of connection points: 2
#     Edge 91, Type (0, 0), BuildingBlock: UVAHIK_clean_linker_0, # of connection points: 2
#     Edge 92, Type (0, 0), BuildingBlock: UVAHIK_clean_linker_0, # of connection points: 2
#     Edge 93, Type (0, 0), BuildingBlock: UVAHIK_clean_linker_0, # of connection points: 2
#     Edge 94, Type (0, 0), BuildingBlock: UVAHIK_clean_linker_0, # of connection points: 2
#     Edge 95, Type (0, 0), BuildingBlock: UVAHIK_clean_linker_0, # of connection points: 2
# Relax obj value: 0.129
# Max RMSD: 0.183
# Mean RMSD: 0.176
data_MOF--net-ukd--node1-TATPOV_clean_sbu_0--edge1-UVAHIK_clean_linker_0
_symmetry_space_group_name_H-M    P1
_symmetry_Int_Tables_number       1
_symmetry_cell_setting            triclinic
loop_
_symmetry_equiv_pos_as_xyz
'x, y, z'
_cell_length_a     55.682396
_cell_length_b     54.80853
_cell_length_c     98.989998
_cell_angle_alpha  90.008863
_cell_angle_beta   89.988583
_cell_angle_gamma 90.007366
loop_
_atom_site_label
_atom_site_type_symbol
_atom_site_fract_x
_atom_site_fract_y
_atom_site_fract_z
_atom_type_partial_charge
Zn0 Zn 0.11449 0.22186 0.32554 0.0
Zn1 Zn 0.16085 0.21414 0.33305 0.0
O2 O 0.14528 0.18022 0.3344 0.0
O3 O 0.10819 0.1857 0.32737 0.0
O4 O 0.19541 0.20721 0.33744 0.0
O5 O 0.12584 0.23608 0.30771 0.0
O6 O 0.16301 0.22917 0.31424 0.0
C7 C 0.12455 0.17168 0.3317 0.0
C8 C 0.12955 0.2479 0.34986 0.0
O9 O 0.14995 0.23833 0.34749 0.0
O10 O 0.11178 0.24339 0.34223 0.0
C11 C 0.20234 0.20155 0.34926 0.0
O12 O 0.18654 0.20081 0.35912 0.0
C13 C 0.14822 0.23709 0.30546 0.0
Zn14 Zn 0.07044 0.98714 0.63756 0.0
Zn15 Zn 0.06228 0.99767 0.61119 0.0
O16 O 0.02915 0.99087 0.61913 0.0
O17 O 0.03466 0.98189 0.64054 0.0
O18 O 0.05369 0.00348 0.59184 0.0
O19 O 0.08516 0.02091 0.6391 0.0
O20 O 0.07901 0.02887 0.61756 0.0
C21 C 0.02067 0.9848 0.63058 0.0
C22 C 0.09472 0.95475 0.61886 0.0
O23 O 0.08457 0.96818 0.61007 0.0
O24 O 0.09152 0.95888 0.63133 0.0
C25 C 0.04473 0.98549 0.58548 0.0
O26 O 0.04252 0.96444 0.59171 0.0
C27 C 0.08707 0.0352 0.62909 0.0
Zn28 Zn 0.37421 0.78635 0.80587 0.0
Zn29 Zn 0.32935 0.79565 0.81624 0.0
O30 O 0.34859 0.82556 0.82187 0.0
O31 O 0.38457 0.81962 0.81324 0.0
O32 O 0.29635 0.80242 0.82343 0.0
O33 O 0.35892 0.78353 0.7872 0.0
O34 O 0.32363 0.79188 0.79611 0.0
C35 C 0.37004 0.83277 0.81991 0.0
C36 C 0.35726 0.75058 0.82542 0.0
O37 O 0.33874 0.76413 0.8256 0.0
O38 O 0.37508 0.75614 0.81804 0.0
C39 C 0.29109 0.79979 0.83584 0.0
O40 O 0.30777 0.79257 0.84433 0.0
C41 C 0.33652 0.7869 0.78587 0.0
Zn42 Zn 0.43474 0.99753 0.138 0.0
Zn43 Zn 0.43666 0.99709 0.1108 0.0
O44 O 0.47147 0.00078 0.11725 0.0
O45 O 0.47059 0.00257 0.13942 0.0
O46 O 0.44192 0.99714 0.09077 0.0
O47 O 0.42113 0.96336 0.13714 0.0
O48 O 0.41998 0.96448 0.11489 0.0
C49 C 0.48238 0.00294 0.12848 0.0
C50 C 0.40669 0.03581 0.12502 0.0
O51 O 0.41502 0.02661 0.11418 0.0
O52 O 0.41224 0.02667 0.13637 0.0
C53 C 0.44934 0.01665 0.08521 0.0
O54 O 0.45155 0.03649 0.09256 0.0
C55 C 0.41564 0.95351 0.12597 0.0
Zn56 Zn 0.13738 0.77355 0.18041 0.0
Zn57 Zn 0.18091 0.78623 0.17002 0.0
O58 O 0.15955 0.81452 0.16414 0.0
O59 O 0.12373 0.80425 0.17164 0.0
O60 O 0.2135 0.79578 0.1632 0.0
O61 O 0.1512 0.77461 0.19928 0.0
O62 O 0.1865 0.78285 0.19037 0.0
C63 C 0.13722 0.81901 0.16534 0.0
C64 C 0.15749 0.73843 0.16158 0.0
O65 O 0.17399 0.75429 0.1602 0.0
O66 O 0.14036 0.74189 0.16979 0.0
C67 C 0.2172 0.8016 0.15096 0.0
O68 O 0.19921 0.80121 0.14237 0.0
C69 C 0.17347 0.77852 0.20068 0.0
Zn70 Zn 0.41725 0.00228 0.35468 0.0
Zn71 Zn 0.42597 0.00925 0.38142 0.0
O72 O 0.45826 0.00043 0.37292 0.0
O73 O 0.45249 0.99507 0.35116 0.0
O74 O 0.43587 0.01284 0.40079 0.0
O75 O 0.40489 0.03711 0.35419 0.0
O76 O 0.41041 0.04175 0.3761 0.0
C77 C 0.46644 0.99527 0.36126 0.0
C78 C 0.39134 0.96925 0.37273 0.0
O79 O 0.40216 0.98117 0.38192 0.0
O80 O 0.39469 0.97456 0.3604 0.0
C81 C 0.4441 0.99377 0.40645 0.0
O82 O 0.44445 0.97318 0.39965 0.0
C83 C 0.40322 0.05004 0.36477 0.0
Zn84 Zn 0.36266 0.20804 0.68493 0.0
Zn85 Zn 0.31931 0.20036 0.67274 0.0
O86 O 0.3384 0.1693 0.66861 0.0
O87 O 0.37297 0.174 0.67908 0.0
O88 O 0.28712 0.19399 0.66427 0.0
O89 O 0.34537 0.21299 0.70273 0.0
O90 O 0.31081 0.20649 0.69254 0.0
C91 C 0.35906 0.16123 0.67182 0.0
C92 C 0.35058 0.24299 0.66378 0.0
O93 O 0.33141 0.23047 0.66288 0.0
O94 O 0.3667 0.23711 0.67223 0.0
C95 C 0.28539 0.18357 0.65284 0.0
O96 O 0.30503 0.17729 0.64636 0.0
C97 C 0.32268 0.2114 0.70319 0.0
Zn98 Zn 0.08202 0.99219 0.85322 0.0
Zn99 Zn 0.07231 0.98507 0.87982 0.0
O100 O 0.04004 0.99252 0.87099 0.0
O101 O 0.04682 -0.0008 0.84944 0.0
O102 O 0.06188 0.98154 0.89907 0.0
O103 O 0.09447 0.95734 0.85303 0.0
O104 O 0.08789 0.95257 0.87483 0.0
C105 C 0.03232 -0.00213 0.85927 0.0
C106 C 0.10719 0.0253 0.8713 0.0
O107 O 0.09597 0.01346 0.88038 0.0
O108 O 0.10434 0.01988 0.85895 0.0
C109 C 0.05408 0.00061 0.90492 0.0
O110 O 0.05467 0.02152 0.89844 0.0
C111 C 0.09555 0.94431 0.8636 0.0
Zn112 Zn 0.82556 0.78112 0.65013 0.0
Zn113 Zn 0.78543 0.79643 0.63848 0.0
O114 O 0.80832 0.8263 0.63745 0.0
O115 O 0.83951 0.81462 0.64948 0.0
O116 O 0.75462 0.80981 0.6308 0.0
O117 O 0.80725 0.77071 0.66667 0.0
O118 O 0.77479 0.78659 0.65757 0.0
C119 C 0.82859 0.83093 0.64287 0.0
C120 C 0.81325 0.75376 0.6264 0.0
O121 O 0.79405 0.76641 0.62683 0.0
O122 O 0.83012 0.75766 0.63469 0.0
C123 C 0.75247 0.81835 0.61893 0.0
O124 O 0.77097 0.81762 0.6107 0.0
C125 C 0.78518 0.77603 0.66743 0.0
Zn126 Zn 0.96406 0.06356 0.4296 0.0
Zn127 Zn 0.95009 0.01972 0.42196 0.0
O128 O 0.92565 0.04381 0.4136 0.0
O129 O 0.93587 0.08013 0.4211 0.0
O130 O 0.93507 0.98738 0.41726 0.0
O131 O 0.96321 0.05502 0.44904 0.0
O132 O 0.95365 0.01772 0.44286 0.0
C133 C 0.92204 0.06674 0.4142 0.0
C134 C 0.99794 0.03797 0.41199 0.0
O135 O 0.98233 0.02096 0.4119 0.0
O136 O 0.99424 0.05725 0.41877 0.0
C137 C 0.92861 0.98289 0.4052 0.0
O138 O 0.93348 -0.00112 0.3957 0.0
C139 C 0.95866 0.03313 0.45211 0.0
Zn140 Zn 0.6744 0.20136 0.14915 0.0
Zn141 Zn 0.715 0.18923 0.13649 0.0
O142 O 0.69452 0.1578 0.1357 0.0
O143 O 0.66326 0.16662 0.14843 0.0
O144 O 0.74662 0.17816 0.12888 0.0
O145 O 0.69252 0.21328 0.16545 0.0
O146 O 0.72547 0.20101 0.15526 0.0
C147 C 0.67498 0.15145 0.14142 0.0
C148 C 0.68359 0.22889 0.12457 0.0
O149 O 0.70344 0.21731 0.1244 0.0
O150 O 0.66806 0.2244 0.1336 0.0
C151 C 0.75076 0.1729 0.1166 0.0
O152 O 0.73356 0.17546 0.10763 0.0
C153 C 0.71507 0.21043 0.16547 0.0
Zn154 Zn 0.52111 0.94512 0.92878 0.0
Zn155 Zn 0.54447 0.98489 0.92132 0.0
O156 O 0.56785 0.9571 0.91646 0.0
O157 O 0.548 0.9239 0.92205 0.0
O158 O 0.56399 0.01467 0.91653 0.0
O159 O 0.52056 0.95536 0.94798 0.0
O160 O 0.53702 0.99009 0.94175 0.0
C161 C 0.56654 0.93392 0.91716 0.0
C162 C 0.49653 0.97223 0.90814 0.0
O163 O 0.51542 0.98537 0.90834 0.0
O164 O 0.4941 0.95469 0.91635 0.0
C165 C 0.57017 0.01884 0.90438 0.0
O166 O 0.56267 0.00408 0.89481 0.0
C167 C 0.52813 0.97644 0.95093 0.0
Zn168 Zn 0.84192 0.20592 0.83633 0.0
Zn169 Zn 0.80131 0.19127 0.84798 0.0
O170 O 0.82364 0.16099 0.84864 0.0
O171 O 0.85514 0.17209 0.83668 0.0
O172 O 0.77042 0.17806 0.8557 0.0
O173 O 0.82361 0.21725 0.81995 0.0
O174 O 0.7907 0.20241 0.82911 0.0
C175 C 0.84381 0.15595 0.84321 0.0
C176 C 0.83017 0.23278 0.86042 0.0
O177 O 0.8107 0.2206 0.8599 0.0
O178 O 0.84691 0.22878 0.85206 0.0
C179 C 0.76595 0.1756 0.86821 0.0
O180 O 0.78199 0.18272 0.87712 0.0
C181 C 0.80131 0.21291 0.8193 0.0
Zn182 Zn 0.51932 0.06272 0.56319 0.0
Zn183 Zn 0.53938 0.02032 0.57017 0.0
O184 O 0.56307 0.04634 0.57703 0.0
O185 O 0.54748 0.08138 0.57062 0.0
O186 O 0.55737 0.98929 0.57437 0.0
O187 O 0.51886 0.05362 0.54377 0.0
O188 O 0.53373 0.01785 0.54944 0.0
C189 C 0.56401 0.06953 0.57643 0.0
C190 C 0.49149 0.03472 0.58259 0.0
O191 O 0.50895 0.01973 0.58196 0.0
O192 O 0.49145 0.05378 0.57533 0.0
C193 C 0.55946 0.98114 0.58633 0.0
O194 O 0.54848 0.99252 0.59625 0.0
C195 C 0.52589 0.03253 0.54045 0.0
Zn196 Zn 0.66132 0.77146 0.35096 0.0
Zn197 Zn 0.70011 0.79576 0.35914 0.0
O198 O 0.67295 0.82162 0.35998 0.0
O199 O 0.6417 0.80194 0.35182 0.0
O200 O 0.72953 0.8146 0.36487 0.0
O201 O 0.6787 0.76203 0.33379 0.0
O202 O 0.70903 0.7853 0.33994 0.0
C203 C 0.65094 0.82134 0.35639 0.0
C204 C 0.68219 0.75043 0.37442 0.0
O205 O 0.69848 0.76627 0.37223 0.0
O206 O 0.66351 0.74977 0.36718 0.0
C207 C 0.73753 0.81541 0.37689 0.0
O208 O 0.72618 0.8035 0.38647 0.0
C209 C 0.6991 0.77126 0.33134 0.0
Zn210 Zn 0.95896 0.92285 0.05678 0.0
Zn211 Zn 0.95067 0.96828 0.06527 0.0
O212 O 0.92351 0.94751 0.07339 0.0
O213 O 0.92857 0.91045 0.06537 0.0
O214 O 0.9398 0.00201 0.07036 0.0
O215 O 0.95921 0.93314 0.03745 0.0
O216 O 0.95391 0.97081 0.04451 0.0
C217 C 0.91682 0.92535 0.07255 0.0
C218 C 0.99559 0.94308 0.07494 0.0
O219 O 0.9824 0.96208 0.07517 0.0
O220 O 0.98956 0.92476 0.06788 0.0
C221 C 0.93883 0.0092 0.08255 0.0
O222 O 0.94698 0.99488 0.09216 0.0
C223 C 0.95704 0.95564 0.0349 0.0
Zn224 Zn 0.62684 0.71667 0.81141 0.0
Zn225 Zn 0.67145 0.7057 0.82111 0.0
O226 O 0.6519 0.67555 0.82622 0.0
O227 O 0.61563 0.6838 0.81863 0.0
O228 O 0.70482 0.69736 0.82713 0.0
O229 O 0.64058 0.71964 0.79247 0.0
O230 O 0.67616 0.71119 0.80095 0.0
C231 C 0.63002 0.66948 0.8246 0.0
C232 C 0.64517 0.75073 0.83154 0.0
O233 O 0.66323 0.7365 0.83172 0.0
O234 O 0.62756 0.74632 0.82379 0.0
C235 C 0.71038 0.69309 0.83934 0.0
O236 O 0.6937 0.69434 0.84871 0.0
C237 C 0.66294 0.71648 0.79088 0.0
Zn238 Zn 0.57436 0.49054 0.1366 0.0
Zn239 Zn 0.56436 0.49892 0.11024 0.0
O240 O 0.53209 0.49105 0.11911 0.0
O241 O 0.53944 0.48292 0.14044 0.0
O242 O 0.55371 0.5032 0.09108 0.0
O243 O 0.58609 0.52551 0.13747 0.0
O244 O 0.58048 0.53111 0.11563 0.0
C245 C 0.52469 0.48485 0.13077 0.0
C246 C 0.59929 0.45832 0.11798 0.0
O247 O 0.58768 0.47035 0.10915 0.0
O248 O 0.597 0.46346 0.13041 0.0
C249 C 0.54546 0.48431 0.08524 0.0
O250 O 0.54567 0.46338 0.09171 0.0
C251 C 0.58761 0.53892 0.12708 0.0
Zn252 Zn 0.88115 0.28582 0.3036 0.0
Zn253 Zn 0.83677 0.29577 0.31427 0.0
O254 O 0.85589 0.32641 0.31877 0.0
O255 O 0.89215 0.31888 0.31094 0.0
O256 O 0.80376 0.30283 0.32137 0.0
O257 O 0.86595 0.28348 0.28501 0.0
O258 O 0.83057 0.29015 0.29423 0.0
C259 C 0.87756 0.33301 0.31691 0.0
C260 C 0.86445 0.25083 0.32362 0.0
O261 O 0.84663 0.26526 0.32455 0.0
O262 O 0.88133 0.2552 0.31536 0.0
C263 C 0.79928 0.30559 0.33387 0.0
O264 O 0.81689 0.30401 0.34265 0.0
C265 C 0.84338 0.28567 0.28388 0.0
Zn266 Zn 0.92891 0.48331 0.63584 0.0
Zn267 Zn 0.94063 0.48142 0.60899 0.0
O268 O 0.97241 0.48555 0.61888 0.0
O269 O 0.96426 0.48766 0.64059 0.0
O270 O 0.95145 0.48355 0.58968 0.0
O271 O 0.91548 0.44927 0.63313 0.0
O272 O 0.92338 0.44863 0.61129 0.0
C273 C 0.9794 0.48795 0.63103 0.0
C274 C 0.90668 0.52114 0.61974 0.0
O275 O 0.91842 0.5107 0.61037 0.0
O276 O 0.9077 0.51303 0.63173 0.0
C277 C 0.96032 0.50411 0.58638 0.0
O278 O 0.96156 0.52145 0.59553 0.0
C279 C 0.91466 0.43851 0.62179 0.0
Zn280 Zn 0.63519 0.29179 0.68175 0.0
Zn281 Zn 0.67908 0.29799 0.66976 0.0
O282 O 0.66144 0.32946 0.6651 0.0
O283 O 0.6257 0.32517 0.6743 0.0
O284 O 0.71156 0.30279 0.66136 0.0
O285 O 0.6518 0.28903 0.69986 0.0
O286 O 0.68683 0.29288 0.68975 0.0
C287 C 0.64051 0.33772 0.66749 0.0
C288 C 0.64738 0.25493 0.6618 0.0
O289 O 0.66618 0.26781 0.66024 0.0
O290 O 0.6316 0.26091 0.67042 0.0
C291 C 0.71438 0.30293 0.64862 0.0
O292 O 0.69561 0.29976 0.64076 0.0
C293 C 0.67452 0.28967 0.70045 0.0
Zn294 Zn 0.93864 0.50545 0.85215 0.0
Zn295 Zn 0.94344 0.5125 0.87927 0.0
O296 O 0.97777 0.51042 0.87229 0.0
O297 O 0.97503 0.50237 0.85059 0.0
O298 O 0.94879 0.51514 0.89924 0.0
O299 O 0.92265 0.53876 0.85165 0.0
O300 O 0.92402 0.54262 0.87381 0.0
C301 C 0.98777 0.50581 0.86103 0.0
C302 C 0.91577 0.46829 0.86843 0.0
O303 O 0.92486 0.48068 0.878 0.0
O304 O 0.91831 0.47518 0.85628 0.0
C305 C 0.96018 0.49748 0.90457 0.0
O306 O 0.96737 0.4794 0.89684 0.0
C307 C 0.91766 0.55065 0.86228 0.0
Zn308 Zn 0.85829 0.72084 0.18693 0.0
Zn309 Zn 0.81489 0.71045 0.17537 0.0
O310 O 0.83539 0.68094 0.17038 0.0
O311 O 0.87095 0.6889 0.17905 0.0
O312 O 0.78244 0.70193 0.16798 0.0
O313 O 0.84259 0.72105 0.20542 0.0
O314 O 0.80773 0.71543 0.19539 0.0
C315 C 0.85719 0.67494 0.17238 0.0
C316 C 0.84141 0.75631 0.16697 0.0
O317 O 0.8241 0.74143 0.16546 0.0
O318 O 0.85776 0.75214 0.1756 0.0
C319 C 0.77865 0.69743 0.15557 0.0
O320 O 0.79658 0.69871 0.14697 0.0
C321 C 0.81996 0.71902 0.20607 0.0
Zn322 Zn 0.58297 0.4899 0.35538 0.0
Zn323 Zn 0.56997 0.48068 0.38139 0.0
O324 O 0.53896 0.48923 0.37144 0.0
O325 O 0.54841 0.49739 0.35034 0.0
O326 O 0.55729 0.47669 0.40022 0.0
O327 O 0.59462 0.45496 0.35478 0.0
O328 O 0.5867 0.44854 0.37634 0.0
C329 C 0.53276 0.49553 0.35957 0.0
C330 C 0.60585 0.52138 0.37522 0.0
O331 O 0.59314 0.50905 0.38341 0.0
O332 O 0.60512 0.51678 0.36266 0.0
C333 C 0.5479 0.49582 0.40524 0.0
O334 O 0.54802 0.51606 0.39813 0.0
C335 C 0.59502 0.44118 0.36506 0.0
Zn336 Zn 0.31459 0.29656 0.17232 0.0
Zn337 Zn 0.27917 0.30959 0.15567 0.0
O338 O 0.30463 0.33655 0.15268 0.0
O339 O 0.33381 0.32551 0.1664 0.0
O340 O 0.25069 0.32153 0.14502 0.0
O341 O 0.29382 0.29948 0.18864 0.0
O342 O 0.26413 0.30802 0.17479 0.0
C343 C 0.32531 0.34028 0.15782 0.0
C344 C 0.30288 0.26006 0.15213 0.0
O345 O 0.28806 0.27591 0.14772 0.0
O346 O 0.31569 0.26455 0.16241 0.0
C347 C 0.24876 0.32329 0.13227 0.0
O348 O 0.26666 0.31627 0.12454 0.0
C349 C 0.27188 0.30429 0.18673 0.0
Zn350 Zn 0.46703 0.56575 0.93243 0.0
Zn351 Zn 0.4508 0.52334 0.92344 0.0
O352 O 0.4264 0.54851 0.9162 0.0
O353 O 0.4394 0.58362 0.92409 0.0
O354 O 0.4357 0.49148 0.91794 0.0
O355 O 0.46532 0.55524 0.95163 0.0
O356 O 0.45394 0.51922 0.9442 0.0
C357 C 0.42427 0.57158 0.91727 0.0
C358 C 0.49937 0.54135 0.91377 0.0
O359 O 0.48285 0.52528 0.91314 0.0
O360 O 0.49701 0.55966 0.92148 0.0
C361 C 0.42994 0.48695 0.90578 0.0
O362 O 0.43511 0.503 0.89636 0.0
C363 C 0.45944 0.53337 0.95395 0.0
Zn364 Zn 0.16376 0.70675 0.65172 0.0
Zn365 Zn 0.20278 0.68784 0.6404 0.0
O366 O 0.17941 0.65853 0.6423 0.0
O367 O 0.14822 0.67407 0.65288 0.0
O368 O 0.2326 0.67195 0.63292 0.0
O369 O 0.18337 0.7194 0.6673 0.0
O370 O 0.21518 0.70204 0.65828 0.0
C371 C 0.15877 0.6559 0.6477 0.0
C372 C 0.17486 0.72825 0.62602 0.0
O373 O 0.19346 0.71473 0.62668 0.0
O374 O 0.15904 0.7273 0.63519 0.0
C375 C 0.23769 0.6697 0.62047 0.0
O376 O 0.22292 0.67855 0.61136 0.0
C377 C 0.20554 0.71438 0.66775 0.0
Zn378 Zn 0.99503 0.46752 0.42829 0.0
Zn379 Zn 0.03041 0.49694 0.42037 0.0
O380 O 0.04757 0.46399 0.42053 0.0
O381 O 0.01844 0.43922 0.4267 0.0
O382 O 0.05653 0.52055 0.41506 0.0
O383 O 0.99076 0.48549 0.44559 0.0
O384 O 0.02069 0.50931 0.43942 0.0
C385 C 0.04007 0.44255 0.42314 0.0
C386 C 0.98454 0.49029 0.40322 0.0
O387 O 0.00573 0.49875 0.40466 0.0
O388 O 0.97524 0.47719 0.41234 0.0
C389 C 0.06533 0.52101 0.40322 0.0
O390 O 0.05698 0.50586 0.39406 0.0
C391 C 0.00471 0.50314 0.448 0.0
Zn392 Zn 0.34071 0.71578 0.3396 0.0
Zn393 Zn 0.3022 0.69424 0.35021 0.0
O394 O 0.328 0.66689 0.34951 0.0
O395 O 0.35905 0.68461 0.33988 0.0
O396 O 0.27299 0.67635 0.35711 0.0
O397 O 0.32178 0.72536 0.32309 0.0
O398 O 0.29046 0.70656 0.33178 0.0
C399 C 0.34943 0.66584 0.34497 0.0
C400 C 0.32519 0.73792 0.36444 0.0
O401 O 0.30801 0.7226 0.36364 0.0
O402 O 0.34179 0.73792 0.3557 0.0
C403 C 0.26678 0.67461 0.36943 0.0
O404 O 0.27985 0.6853 0.37877 0.0
C405 C 0.30003 0.7188 0.32225 0.0
Zn406 Zn 0.02257 0.56118 0.06602 0.0
Zn407 Zn 0.03865 0.51668 0.07232 0.0
O408 O 0.06593 0.54012 0.07755 0.0
O409 O 0.05391 0.57669 0.07139 0.0
O410 O 0.05422 0.48427 0.07639 0.0
O411 O 0.01675 0.55117 0.04703 0.0
O412 O 0.02931 0.51417 0.05202 0.0
C413 C 0.06971 0.56296 0.07655 0.0
C414 C 0.99487 0.53682 0.08685 0.0
O415 O 0.01003 0.51959 0.08545 0.0
O416 O 0.99631 0.55598 0.07976 0.0
C417 C 0.05915 0.47883 0.08857 0.0
O418 O 0.05239 0.49372 0.09825 0.0
C419 C 0.02086 0.52939 0.0435 0.0
Zn420 Zn 0.16423 0.28746 0.84461 0.0
Zn421 Zn 0.20703 0.30179 0.85447 0.0
O422 O 0.18483 0.33166 0.85709 0.0
O423 O 0.14975 0.31983 0.84915 0.0
O424 O 0.23889 0.31491 0.86078 0.0
O425 O 0.1795 0.28114 0.82637 0.0
O426 O 0.21424 0.29256 0.83487 0.0
C427 C 0.16279 0.33598 0.85458 0.0
C428 C 0.18159 0.25768 0.86671 0.0
O429 O 0.19996 0.27156 0.8663 0.0
O430 O 0.16413 0.26116 0.85874 0.0
C431 C 0.24552 0.31583 0.87305 0.0
O432 O 0.2314 0.30689 0.88246 0.0
C433 C 0.20184 0.28466 0.82498 0.0
Zn434 Zn 0.48315 0.43611 0.56272 0.0
Zn435 Zn 0.45829 0.47537 0.56959 0.0
O436 O 0.43716 0.44709 0.57638 0.0
O437 O 0.45849 0.41448 0.57146 0.0
O438 O 0.43801 0.50472 0.57403 0.0
O439 O 0.48033 0.44367 0.54319 0.0
O440 O 0.46274 0.47818 0.54878 0.0
C441 C 0.43989 0.42401 0.57658 0.0
C442 C 0.5085 0.46745 0.5811 0.0
O443 O 0.48877 0.47922 0.58124 0.0
O444 O 0.51109 0.44909 0.57347 0.0
C445 C 0.43202 0.50924 0.58617 0.0
O446 O 0.44006 0.49503 0.59586 0.0
C447 C 0.4711 0.46382 0.53979 0.0
C448 C 0.0801 0.42432 0.41724 0.0
C449 C 0.05584 0.42123 0.42079 0.0
C450 C 0.09398 0.40428 0.41326 0.0
C451 C 0.09305 0.33596 0.41062 0.0
H452 H 0.12996 0.34789 0.37806 0.0
C453 C 0.10369 0.26807 0.36711 0.0
C454 C 0.12648 0.26485 0.3613 0.0
C455 C 0.10019 0.28531 0.37727 0.0
C456 C 0.12014 0.34433 0.3873 0.0
H457 H 0.02754 0.39451 0.42366 0.0
H458 H 0.05125 0.35998 0.41634 0.0
H459 H 0.11458 0.38227 0.391 0.0
H460 H 0.16363 0.2767 0.36177 0.0
H461 H 0.15722 0.30769 0.37932 0.0
H462 H 0.09712 0.29789 0.40618 0.0
C463 C 0.0599 0.37764 0.41687 0.0
C464 C 0.11137 0.36403 0.39478 0.0
C465 C 0.04616 0.39757 0.42098 0.0
C466 C 0.14588 0.2788 0.3661 0.0
C467 C 0.14224 0.29649 0.37609 0.0
C468 C 0.10149 0.31629 0.40302 0.0
C469 C 0.08382 0.38079 0.41263 0.0
C470 C 0.09698 0.36009 0.40628 0.0
C471 C 0.11931 0.30001 0.38166 0.0
C472 C 0.11447 0.32034 0.39108 0.0
H473 H 0.08817 0.44229 0.41712 0.0
H474 H 0.11246 0.40733 0.41031 0.0
H475 H 0.0826 0.33222 0.41961 0.0
H476 H 0.08846 0.25746 0.36365 0.0
H477 H 0.08228 0.28788 0.38131 0.0
C478 C 0.97932 0.98165 0.62072 0.0
C479 C 0.99475 0.97927 0.6319 0.0
C480 C 0.95556 0.97352 0.62144 0.0
C481 C 0.90865 0.95086 0.64527 0.0
H482 H 0.89182 0.90808 0.61553 0.0
C483 C 0.856 0.86298 0.6516 0.0
C484 C 0.83984 0.85519 0.6416 0.0
C485 C 0.86884 0.88458 0.65003 0.0
C486 C 0.89586 0.92043 0.62377 0.0
H487 H 0.9969 0.96776 0.65283 0.0
H488 H 0.95574 0.95321 0.65402 0.0
H489 H 0.92641 0.93493 0.61348 0.0
H490 H 0.8236 0.86436 0.62237 0.0
H491 H 0.84678 0.90219 0.61941 0.0
H492 H 0.87893 0.93505 0.65586 0.0
C493 C 0.96181 0.96164 0.64473 0.0
C494 C 0.91574 0.93585 0.62261 0.0
C495 C 0.98553 0.96981 0.64402 0.0
C496 C 0.83598 0.86999 0.63022 0.0
C497 C 0.84923 0.89153 0.62852 0.0
C498 C 0.88886 0.93535 0.64645 0.0
C499 C 0.94673 0.96281 0.63335 0.0
C500 C 0.92294 0.9505 0.63356 0.0
C501 C 0.86607 0.89878 0.63833 0.0
C502 C 0.88289 0.91927 0.63591 0.0
H503 H 0.98578 0.98906 0.61125 0.0
H504 H 0.94431 0.975 0.61256 0.0
H505 H 0.9134 0.96233 0.65377 0.0
H506 H 0.85918 0.85204 0.66054 0.0
H507 H 0.8819 0.88947 0.65767 0.0
C508 C 0.40194 0.60977 0.91195 0.0
C509 C 0.40615 0.58497 0.90928 0.0
C510 C 0.38889 0.624 0.90289 0.0
C511 C 0.37829 0.62694 0.86672 0.0
H512 H 0.34253 0.68488 0.87673 0.0
C513 C 0.33782 0.72165 0.84169 0.0
C514 C 0.35792 0.72838 0.83392 0.0
C515 C 0.33862 0.70112 0.85004 0.0
C516 C 0.35212 0.66859 0.87368 0.0
H517 H 0.39828 0.55513 0.89558 0.0
H518 H 0.37531 0.5801 0.8797 0.0
H519 H 0.35022 0.65347 0.89358 0.0
H520 H 0.39446 0.7185 0.82864 0.0
H521 H 0.39603 0.68301 0.84338 0.0
H522 H 0.38056 0.64225 0.84687 0.0
C523 C 0.38242 0.58855 0.88875 0.0
C524 C 0.35668 0.65068 0.88338 0.0
C525 C 0.39541 0.57423 0.89788 0.0
C526 C 0.37866 0.71384 0.83448 0.0
C527 C 0.37948 0.69335 0.84285 0.0
C528 C 0.37367 0.64482 0.85701 0.0
C529 C 0.37979 0.61378 0.89092 0.0
C530 C 0.37055 0.63007 0.88012 0.0
C531 C 0.35955 0.68686 0.85082 0.0
C532 C 0.36125 0.66623 0.8605 0.0
H533 H 0.40981 0.61854 0.9207 0.0
H534 H 0.38741 0.64338 0.90484 0.0
H535 H 0.38917 0.61138 0.86388 0.0
H536 H 0.32147 0.73235 0.84142 0.0
H537 H 0.32288 0.69648 0.85593 0.0
C538 C 0.52192 0.00788 0.11664 0.0
C539 C 0.50856 0.00755 0.1287 0.0
C540 C 0.54604 0.01496 0.1167 0.0
C541 C 0.59736 0.03013 0.13963 0.0
H542 H 0.61098 0.07943 0.11261 0.0
C543 C 0.65029 0.11674 0.14961 0.0
C544 C 0.66504 0.12676 0.13954 0.0
C545 C 0.63783 0.09511 0.14729 0.0
C546 C 0.60782 0.06526 0.12003 0.0
H547 H 0.51045 0.01311 0.15037 0.0
H548 H 0.5521 0.02603 0.15045 0.0
H549 H 0.57565 0.05378 0.11018 0.0
H550 H 0.6794 0.12147 0.11941 0.0
H551 H 0.65684 0.08372 0.11515 0.0
H552 H 0.62866 0.04311 0.14998 0.0
C553 C 0.54421 0.02043 0.14095 0.0
C554 C 0.58752 0.05051 0.11865 0.0
C555 C 0.52018 0.01323 0.14089 0.0
C556 C 0.66814 0.11406 0.12734 0.0
C557 C 0.65524 0.09257 0.12489 0.0
C558 C 0.61754 0.04506 0.14107 0.0
C559 C 0.55729 0.02197 0.12881 0.0
C560 C 0.58147 0.03351 0.12875 0.0
C561 C 0.63954 0.08324 0.13475 0.0
C562 C 0.62236 0.06344 0.13157 0.0
H563 H 0.51357 0.00337 0.10707 0.0
H564 H 0.55569 0.0156 0.10721 0.0
H565 H 0.59356 0.0168 0.14742 0.0
H566 H 0.64772 0.12609 0.15915 0.0
H567 H 0.62566 0.08854 0.15501 0.0
C568 C 0.151 0.69375 0.15913 0.0
C569 C 0.15792 0.71604 0.15341 0.0
C570 C 0.14964 0.67277 0.15118 0.0
C571 C 0.12973 0.63669 0.13153 0.0
H572 H 0.16257 0.62932 0.09722 0.0
C573 C 0.09822 0.59769 0.0795 0.0
C574 C 0.09078 0.5741 0.08315 0.0
C575 C 0.1143 0.61055 0.08765 0.0
C576 C 0.15356 0.631 0.10687 0.0
H577 H 0.16952 0.73403 0.13509 0.0
H578 H 0.16542 0.69799 0.12091 0.0
H579 H 0.17637 0.66015 0.1133 0.0
H580 H 0.09577 0.54468 0.09753 0.0
H581 H 0.12331 0.56757 0.11202 0.0
H582 H 0.10705 0.60748 0.12506 0.0
C583 C 0.16202 0.69615 0.13162 0.0
C584 C 0.16121 0.64884 0.11604 0.0
C585 C 0.16416 0.71695 0.13971 0.0
C586 C 0.1012 0.56284 0.09447 0.0
C587 C 0.11691 0.57589 0.10277 0.0
C588 C 0.12255 0.61854 0.12254 0.0
C589 C 0.15426 0.67382 0.1372 0.0
C590 C 0.14885 0.65249 0.12831 0.0
C591 C 0.12284 0.60015 0.09968 0.0
C592 C 0.13392 0.61602 0.10999 0.0
H593 H 0.14651 0.69257 0.16977 0.0
H594 H 0.14442 0.65586 0.156 0.0
H595 H 0.11928 0.63906 0.14065 0.0
H596 H 0.09056 0.60673 0.07078 0.0
H597 H 0.1185 0.6293 0.08512 0.0
C598 C 0.50465 0.97977 0.37136 0.0
C599 C 0.49153 0.98675 0.35986 0.0
C600 C 0.52661 0.96771 0.37003 0.0
C601 C 0.57552 0.94513 0.36533 0.0
H602 H 0.57267 0.8956 0.33743 0.0
C603 C 0.64605 0.86673 0.35963 0.0
C604 C 0.63599 0.84365 0.35703 0.0
C605 C 0.63166 0.88773 0.35925 0.0
C606 C 0.57378 0.90934 0.34528 0.0
H607 H 0.49224 0.98866 0.33799 0.0
H608 H 0.53096 0.96834 0.33566 0.0
H609 H 0.5425 0.92737 0.33799 0.0
H610 H 0.60279 0.82448 0.35253 0.0
H611 H 0.57794 0.86068 0.35211 0.0
H612 H 0.60607 0.92582 0.37307 0.0
C613 C 0.52389 0.9714 0.34571 0.0
C614 C 0.55665 0.92786 0.34548 0.0
C615 C 0.50175 0.98317 0.34704 0.0
C616 C 0.61124 0.84196 0.35442 0.0
C617 C 0.59697 0.86278 0.35407 0.0
C618 C 0.59264 0.92641 0.36517 0.0
C619 C 0.53612 0.96261 0.35717 0.0
C620 C 0.55684 0.94562 0.35574 0.0
C621 C 0.60702 0.88595 0.35624 0.0
C622 C 0.59142 0.90786 0.35539 0.0
H623 H 0.49732 0.98229 0.3814 0.0
H624 H 0.53531 0.96107 0.37909 0.0
H625 H 0.57648 0.95876 0.37323 0.0
H626 H 0.66506 0.86862 0.36167 0.0
H627 H 0.63989 0.90535 0.361 0.0
C628 C 0.37437 0.27943 0.65645 0.0
C629 C 0.35409 0.26443 0.65491 0.0
C630 C 0.37801 0.29932 0.64789 0.0
C631 C 0.36365 0.3209 0.61395 0.0
H632 H 0.39162 0.38123 0.62706 0.0
C633 C 0.40629 0.41799 0.59313 0.0
C634 C 0.4224 0.40823 0.58363 0.0
C635 C 0.39226 0.40251 0.60114 0.0
C636 C 0.38339 0.3647 0.62324 0.0
H637 H 0.32146 0.25886 0.6433 0.0
H638 H 0.32792 0.29361 0.62832 0.0
H639 H 0.37786 0.35058 0.64316 0.0
H640 H 0.43529 0.37477 0.57442 0.0
H641 H 0.41089 0.34791 0.5883 0.0
H642 H 0.36977 0.33476 0.59402 0.0
C643 C 0.34103 0.28985 0.63613 0.0
C644 C 0.37579 0.34703 0.63246 0.0
C645 C 0.33733 0.27 0.64473 0.0
C646 C 0.42316 0.38285 0.58172 0.0
C647 C 0.40902 0.36744 0.58961 0.0
C648 C 0.37134 0.33853 0.60473 0.0
C649 C 0.36149 0.30463 0.63757 0.0
C650 C 0.36646 0.32467 0.6279 0.0
C651 C 0.39389 0.37705 0.59964 0.0
C652 C 0.38191 0.36032 0.60928 0.0
H653 H 0.38762 0.27569 0.66419 0.0
H654 H 0.39413 0.31014 0.64912 0.0
H655 H 0.35662 0.30381 0.61012 0.0
H656 H 0.4053 0.4375 0.59482 0.0
H657 H 0.3806 0.4104 0.60873 0.0
C658 C 0.99854 0.01372 0.84506 0.0
C659 C 0.00671 0.00427 0.85742 0.0
C660 C 0.97513 0.02258 0.84384 0.0
C661 C 0.92825 0.04987 0.86492 0.0
H662 H 0.89363 0.05114 0.83095 0.0
C663 C 0.84995 0.1167 0.85585 0.0
C664 C 0.8546 0.13149 0.84456 0.0
C665 C 0.86282 0.095 0.85774 0.0
C666 C 0.90295 0.05072 0.84055 0.0
H667 H 0.99619 0.99522 0.87794 0.0
H668 H 0.95524 0.0104 0.87572 0.0
H669 H 0.92743 0.02322 0.83378 0.0
H670 H 0.87496 0.13445 0.82595 0.0
H671 H 0.89705 0.09671 0.82915 0.0
H672 H 0.90438 0.07808 0.87148 0.0
C673 C 0.96708 0.0114 0.86706 0.0
C674 C 0.92236 0.03485 0.84215 0.0
C675 C 0.99054 0.00262 0.86831 0.0
C676 C 0.87116 0.12351 0.83481 0.0
C677 C 0.88364 0.10175 0.83658 0.0
C678 C 0.90874 0.06563 0.86334 0.0
C679 C 0.95931 0.02208 0.85492 0.0
C680 C 0.93587 0.03499 0.85415 0.0
C681 C 0.8801 0.08757 0.84822 0.0
C682 C 0.89656 0.06693 0.85095 0.0
H683 H 0.0105 0.01523 0.83648 0.0
H684 H 0.96989 0.03097 0.83438 0.0
H685 H 0.93833 0.05064 0.87426 0.0
H686 H 0.83726 0.12246 0.86351 0.0
H687 H 0.85975 0.08435 0.8668 0.0
C688 C 0.89812 0.55704 0.60496 0.0
C689 C 0.89274 0.54339 0.61661 0.0
C690 C 0.8862 0.57895 0.60236 0.0
C691 C 0.83263 0.61494 0.6087 0.0
H692 H 0.87508 0.67094 0.60865 0.0
C693 C 0.80015 0.7117 0.6214 0.0
C694 C 0.81476 0.73164 0.61812 0.0
C695 C 0.8066 0.68819 0.6173 0.0
C696 C 0.8628 0.65567 0.60819 0.0
H697 H 0.86991 0.54142 0.63432 0.0
H698 H 0.84864 0.57964 0.62955 0.0
H699 H 0.89192 0.63024 0.60911 0.0
H700 H 0.84596 0.74344 0.60691 0.0
H701 H 0.8561 0.70282 0.59864 0.0
H702 H 0.80343 0.64018 0.60758 0.0
C703 C 0.86224 0.57333 0.62255 0.0
C704 C 0.87258 0.63227 0.6086 0.0
C705 C 0.87452 0.55162 0.62532 0.0
C706 C 0.83441 0.72823 0.6095 0.0
C707 C 0.84043 0.70485 0.60501 0.0
C708 C 0.82277 0.6384 0.60795 0.0
C709 C 0.86832 0.58736 0.61118 0.0
C710 C 0.85761 0.61176 0.60921 0.0
C711 C 0.82755 0.68429 0.6096 0.0
C712 C 0.83771 0.65918 0.60806 0.0
H713 H 0.91209 0.55121 0.59806 0.0
H714 H 0.89119 0.58953 0.59355 0.0
H715 H 0.82077 0.59928 0.60904 0.0
H716 H 0.78513 0.71394 0.62825 0.0
H717 H 0.79619 0.67305 0.62117 0.0
C718 C 0.09481 0.13784 0.33401 0.0
C719 C 0.11867 0.14598 0.33493 0.0
C720 C 0.08818 0.11522 0.33925 0.0
C721 C 0.07601 0.06596 0.35021 0.0
H722 H 0.10382 0.05759 0.38576 0.0
C723 C 0.02055 0.02153 0.39195 0.0
C724 C 0.01961 0.03671 0.40339 0.0
C725 C 0.03903 0.0243 0.38245 0.0
C726 C 0.0959 0.0595 0.37583 0.0
H727 H 0.15477 0.13565 0.34085 0.0
H728 H 0.1433 0.09575 0.3497 0.0
H729 H 0.1239 0.08333 0.36942 0.0
H730 H 0.03849 0.06485 0.41454 0.0
H731 H 0.07004 0.07001 0.3981 0.0
H732 H 0.04659 0.04442 0.3572 0.0
C733 C 0.12953 0.10722 0.3453 0.0
C734 C 0.10764 0.07407 0.36632 0.0
C735 C 0.13614 0.13007 0.34017 0.0
C736 C 0.03852 0.05309 0.40574 0.0
C737 C 0.05689 0.05582 0.39633 0.0
C738 C 0.06401 0.05182 0.35983 0.0
C739 C 0.10528 0.09994 0.34543 0.0
C740 C 0.09703 0.07877 0.35369 0.0
C741 C 0.0569 0.0422 0.38428 0.0
C742 C 0.07306 0.04977 0.37304 0.0
H743 H 0.08088 0.14953 0.32996 0.0
H744 H 0.06928 0.11062 0.33927 0.0
H745 H 0.06777 0.06837 0.34039 0.0
H746 H 0.00627 0.00862 0.38992 0.0
H747 H 0.03868 0.01325 0.37338 0.0
C748 C 0.61508 0.42978 0.10024 0.0
C749 C 0.61463 0.4376 0.11378 0.0
C750 C 0.62791 0.40888 0.09654 0.0
C751 C 0.63874 0.35444 0.09515 0.0
H752 H 0.69677 0.33477 0.11383 0.0
C753 C 0.65591 0.25829 0.11347 0.0
C754 C 0.67943 0.24979 0.11546 0.0
C755 C 0.65185 0.28117 0.10778 0.0
C756 C 0.68092 0.34005 0.10821 0.0
H757 H 0.62823 0.43025 0.13391 0.0
H758 H 0.65027 0.3938 0.12752 0.0
H759 H 0.68385 0.37714 0.11476 0.0
H760 H 0.71708 0.2575 0.1119 0.0
H761 H 0.70996 0.29776 0.10196 0.0
H762 H 0.63534 0.31714 0.08902 0.0
C763 C 0.64097 0.4039 0.11971 0.0
C764 C 0.67333 0.3643 0.10891 0.0
C765 C 0.62811 0.4247 0.12341 0.0
C766 C 0.69876 0.26364 0.11051 0.0
C767 C 0.69469 0.28673 0.10491 0.0
C768 C 0.64635 0.33019 0.09443 0.0
C769 C 0.64065 0.39547 0.10629 0.0
C770 C 0.65156 0.37149 0.10294 0.0
C771 C 0.67123 0.29615 0.10404 0.0
C772 C 0.66688 0.32249 0.10151 0.0
H773 H 0.60498 0.43938 0.09255 0.0
H774 H 0.62748 0.40295 0.08611 0.0
H775 H 0.62188 0.35936 0.09042 0.0
H776 H 0.64065 0.2479 0.11708 0.0
H777 H 0.63356 0.28784 0.10737 0.0
C778 C 0.48672 0.97228 0.88371 0.0
C779 C 0.47896 0.97429 0.89714 0.0
C780 C 0.47049 0.96559 0.87357 0.0
C781 C 0.41433 0.93003 0.87194 0.0
H782 H 0.42419 0.93623 0.83333 0.0
C783 C 0.36327 0.86889 0.83495 0.0
C784 C 0.37833 0.85592 0.82609 0.0
C785 C 0.37185 0.88925 0.84193 0.0
C786 C 0.42116 0.93446 0.8441 0.0
H787 H 0.44806 0.974 0.91036 0.0
H788 H 0.41936 0.96426 0.89258 0.0
H789 H 0.44503 0.96393 0.84877 0.0
H790 H 0.41377 0.85512 0.81698 0.0
H791 H 0.42876 0.89065 0.82923 0.0
H792 H 0.39087 0.90037 0.86732 0.0
C793 C 0.43807 0.96647 0.88987 0.0
C794 C 0.43313 0.95026 0.85295 0.0
C795 C 0.45441 0.97242 0.90005 0.0
C796 C 0.40175 0.86459 0.8238 0.0
C797 C 0.41029 0.88507 0.83073 0.0
C798 C 0.40218 0.91455 0.86311 0.0
C799 C 0.44615 0.96127 0.8767 0.0
C800 C 0.4304 0.94779 0.86704 0.0
C801 C 0.39563 0.8972 0.84013 0.0
C802 C 0.40594 0.91614 0.84913 0.0
H803 H 0.50567 0.97339 0.88128 0.0
H804 H 0.47753 0.96175 0.86361 0.0
H805 H 0.41207 0.92697 0.88267 0.0
H806 H 0.34506 0.86285 0.83688 0.0
H807 H 0.36009 0.8984 0.84903 0.0
C808 C 0.90822 0.43259 0.88353 0.0
C809 C 0.90302 0.44534 0.87155 0.0
C810 C 0.89742 0.41008 0.88615 0.0
C811 C 0.84661 0.37117 0.88029 0.0
H812 H 0.89118 0.31708 0.87783 0.0
C813 C 0.8164 0.27411 0.86671 0.0
C814 C 0.83212 0.25458 0.86895 0.0
C815 C 0.82247 0.29756 0.87109 0.0
C816 C 0.87837 0.33176 0.87901 0.0
H817 H 0.88168 0.4451 0.85323 0.0
H818 H 0.86225 0.40589 0.85806 0.0
H819 H 0.90631 0.35852 0.87767 0.0
H820 H 0.86503 0.24329 0.87868 0.0
H821 H 0.87463 0.28366 0.88748 0.0
H822 H 0.8186 0.34466 0.88189 0.0
C823 C 0.87488 0.41334 0.86529 0.0
C824 C 0.88716 0.35558 0.87876 0.0
C825 C 0.88611 0.4356 0.8625 0.0
C826 C 0.85266 0.2582 0.87686 0.0
C827 C 0.85833 0.28147 0.88166 0.0
C828 C 0.83778 0.34728 0.88092 0.0
C829 C 0.88078 0.40027 0.87702 0.0
C830 C 0.87133 0.37541 0.87903 0.0
C831 C 0.84415 0.30178 0.87807 0.0
C832 C 0.85349 0.32717 0.87986 0.0
H833 H 0.92124 0.43962 0.89067 0.0
H834 H 0.9023 0.40015 0.89521 0.0
H835 H 0.83414 0.38632 0.88061 0.0
H836 H 0.80063 0.27173 0.86044 0.0
H837 H 0.81104 0.3125 0.86799 0.0
C838 C 0.38714 0.12554 0.67203 0.0
C839 C 0.36766 0.13785 0.66615 0.0
C840 C 0.39714 0.10511 0.6657 0.0
C841 C 0.38943 0.06263 0.63609 0.0
H842 H 0.45901 0.06465 0.6361 0.0
C843 C 0.45007 0.04277 0.59088 0.0
C844 C 0.47272 0.03218 0.593 0.0
C845 C 0.43429 0.04621 0.60166 0.0
C846 C 0.43959 0.06335 0.63621 0.0
H847 H 0.34262 0.13776 0.64939 0.0
H848 H 0.36065 0.1031 0.63803 0.0
H849 H 0.43691 0.08954 0.65202 0.0
H850 H 0.49592 0.01508 0.60781 0.0
H851 H 0.46846 0.02169 0.62681 0.0
H852 H 0.39249 0.03792 0.61936 0.0
C853 C 0.36791 0.10854 0.64771 0.0
C854 C 0.42681 0.07766 0.64539 0.0
C855 C 0.35763 0.12864 0.65418 0.0
C856 C 0.47851 0.02321 0.60589 0.0
C857 C 0.46288 0.02709 0.61676 0.0
C858 C 0.40226 0.04862 0.62674 0.0
C859 C 0.38823 0.09686 0.65319 0.0
C860 C 0.40153 0.07818 0.64516 0.0
C861 C 0.44106 0.03951 0.61482 0.0
C862 C 0.42746 0.04946 0.62645 0.0
H863 H 0.39503 0.13201 0.68137 0.0
H864 H 0.41233 0.09625 0.67045 0.0
H865 H 0.37 0.06201 0.63583 0.0
H866 H 0.44515 0.04977 0.58102 0.0
H867 H 0.41768 0.05598 0.59987 0.0
C868 C 0.70184 0.7111 0.37893 0.0
C869 C 0.68645 0.72963 0.38339 0.0
C870 C 0.6991 0.68732 0.38376 0.0
C871 C 0.68897 0.63625 0.39336 0.0
H872 H 0.62063 0.62398 0.39658 0.0
C873 C 0.61593 0.55175 0.39321 0.0
C874 C 0.62053 0.54188 0.38035 0.0
C875 C 0.6281 0.57258 0.3976 0.0
C876 C 0.63983 0.62706 0.39595 0.0
H877 H 0.6583 0.73898 0.39748 0.0
H878 H 0.65492 0.69801 0.40692 0.0
H879 H 0.63538 0.6653 0.39817 0.0
H880 H 0.64252 0.54521 0.36236 0.0
H881 H 0.66401 0.58151 0.37014 0.0
H882 H 0.69264 0.59775 0.38984 0.0
C883 C 0.66821 0.70126 0.39914 0.0
C884 C 0.64845 0.65086 0.39698 0.0
C885 C 0.67041 0.72488 0.39396 0.0
C886 C 0.63847 0.5525 0.37227 0.0
C887 C 0.65092 0.57311 0.37677 0.0
C888 C 0.6802 0.61243 0.39201 0.0
C889 C 0.68116 0.68178 0.39334 0.0
C890 C 0.67308 0.65599 0.39526 0.0
C891 C 0.64541 0.58367 0.38933 0.0
C892 C 0.65547 0.60778 0.39294 0.0
H893 H 0.71408 0.71436 0.37061 0.0
H894 H 0.70947 0.67308 0.37894 0.0
H895 H 0.70809 0.63924 0.39233 0.0
H896 H 0.60224 0.54398 0.39969 0.0
H897 H 0.62353 0.58043 0.40731 0.0
C898 C 0.14146 0.85725 0.1516 0.0
C899 C 0.12675 0.84069 0.15863 0.0
C900 C 0.13131 0.87626 0.1441 0.0
C901 C 0.10455 0.89969 0.12082 0.0
H902 H 0.04331 0.92895 0.13003 0.0
C903 C 0.03346 0.92214 0.08161 0.0
C904 C 0.0169 0.94106 0.08378 0.0
C905 C 0.05133 0.91723 0.09107 0.0
C906 C 0.06067 0.92146 0.12736 0.0
H907 H 0.0899 0.83185 0.16381 0.0
H908 H 0.07224 0.86447 0.15054 0.0
H909 H 0.06599 0.90721 0.14726 0.0
H910 H 0.00711 0.9708 0.09714 0.0
H911 H 0.03854 0.96219 0.11377 0.0
H912 H 0.09902 0.91356 0.10087 0.0
C913 C 0.09163 0.86314 0.15096 0.0
C914 C 0.07352 0.90868 0.13721 0.0
C915 C 0.10177 0.84423 0.1585 0.0
C916 C 0.01958 0.95604 0.09521 0.0
C917 C 0.03747 0.95102 0.10477 0.0
C918 C 0.09177 0.91258 0.11101 0.0
C919 C 0.10623 0.87907 0.14343 0.0
C920 C 0.0951 0.89675 0.1339 0.0
C921 C 0.05309 0.93109 0.10298 0.0
C922 C 0.06918 0.92268 0.11401 0.0
H923 H 0.1608 0.85519 0.15158 0.0
H924 H 0.14309 0.88841 0.13858 0.0
H925 H 0.12107 0.89073 0.11788 0.0
H926 H 0.032 0.91036 0.07286 0.0
H927 H 0.06281 0.90157 0.08941 0.0
C928 C 0.62577 0.78942 0.83927 0.0
C929 C 0.6446 0.77249 0.84039 0.0
C930 C 0.62473 0.80965 0.8478 0.0
C931 C 0.64315 0.82997 0.88129 0.0
H932 H 0.61801 0.89177 0.86849 0.0
C933 C 0.60184 0.92812 0.90173 0.0
C934 C 0.58537 0.91841 0.91106 0.0
C935 C 0.61659 0.91261 0.89416 0.0
C936 C 0.62556 0.87487 0.87224 0.0
H937 H 0.67742 0.7638 0.8512 0.0
H938 H 0.67547 0.79921 0.8662 0.0
H939 H 0.6297 0.86056 0.85227 0.0
H940 H 0.5729 0.8851 0.92059 0.0
H941 H 0.59836 0.8582 0.90742 0.0
H942 H 0.63833 0.84405 0.90129 0.0
C943 C 0.6615 0.7967 0.85871 0.0
C944 C 0.63197 0.85687 0.86294 0.0
C945 C 0.66262 0.77647 0.85011 0.0
C946 C 0.58525 0.89314 0.9134 0.0
C947 C 0.60004 0.8777 0.90591 0.0
C948 C 0.63673 0.84799 0.8906 0.0
C949 C 0.64246 0.81343 0.85768 0.0
C950 C 0.63996 0.83391 0.86738 0.0
C951 C 0.61526 0.88717 0.89587 0.0
C952 C 0.62701 0.87028 0.88619 0.0
H953 H 0.61162 0.78696 0.83189 0.0
H954 H 0.6096 0.82195 0.8469 0.0
H955 H 0.64924 0.81246 0.88503 0.0
H956 H 0.60242 0.94755 0.89974 0.0
H957 H 0.62835 0.92045 0.8866 0.0
C958 C 0.49089 0.47092 0.14554 0.0
C959 C 0.49913 0.47838 0.13279 0.0
C960 C 0.46742 0.4625 0.14719 0.0
C961 C 0.41965 0.4326 0.12799 0.0
H962 H 0.3848 0.44053 0.16162 0.0
C963 C 0.33633 0.37399 0.14172 0.0
C964 C 0.3396 0.36196 0.15412 0.0
C965 C 0.35139 0.39342 0.13808 0.0
C966 C 0.39421 0.43834 0.15211 0.0
H967 H 0.48879 0.48391 0.11186 0.0
H968 H 0.44772 0.46929 0.11479 0.0
H969 H 0.41976 0.46609 0.15704 0.0
H970 H 0.36031 0.36152 0.17269 0.0
H971 H 0.38617 0.39532 0.16644 0.0
H972 H 0.39457 0.40418 0.12332 0.0
C973 C 0.45955 0.46971 0.12347 0.0
C974 C 0.41427 0.45287 0.14952 0.0
C975 C 0.48305 0.47817 0.12182 0.0
C976 C 0.35746 0.37029 0.16301 0.0
C977 C 0.37213 0.38984 0.1595 0.0
C978 C 0.39949 0.41814 0.13056 0.0
C979 C 0.45161 0.46135 0.13613 0.0
C980 C 0.42779 0.44948 0.13768 0.0
C981 C 0.36952 0.40139 0.14694 0.0
C982 C 0.38719 0.42021 0.14289 0.0
H983 H 0.50277 0.47087 0.15421 0.0
H984 H 0.46204 0.45587 0.15704 0.0
H985 H 0.42975 0.4294 0.1188 0.0
H986 H 0.3227 0.36792 0.13468 0.0
H987 H 0.34906 0.40204 0.12832 0.0
C988 C 0.90017 0.06908 0.39227 0.0
C989 C 0.90435 0.07851 0.40526 0.0
C990 C 0.88896 0.08347 0.38247 0.0
C991 C 0.85435 0.1389 0.37546 0.0
H992 H 0.9032 0.15252 0.34859 0.0
C993 C 0.85413 0.22804 0.34468 0.0
C994 C 0.86505 0.22851 0.33191 0.0
C995 C 0.85497 0.20695 0.35259 0.0
C996 C 0.88894 0.14865 0.3557 0.0
H997 H 0.89787 0.10908 0.41865 0.0
H998 H 0.87755 0.13389 0.40163 0.0
H999 H 0.90865 0.11883 0.36413 0.0
H1000 H 0.88433 0.20711 0.31706 0.0
H1001 H 0.88469 0.16993 0.33046 0.0
H1002 H 0.83446 0.16857 0.36704 0.0
C1003 C 0.88323 0.11559 0.39898 0.0
C1004 C 0.89217 0.1293 0.36465 0.0
C1005 C 0.89492 0.10145 0.40869 0.0
C1006 C 0.87616 0.20734 0.327 0.0
C1007 C 0.87643 0.18604 0.33474 0.0
C1008 C 0.8508 0.15797 0.36628 0.0
C1009 C 0.88124 0.10718 0.38564 0.0
C1010 C 0.87522 0.12465 0.37481 0.0
C1011 C 0.86621 0.18563 0.34776 0.0
C1012 C 0.8684 0.16357 0.35651 0.0
H1013 H 0.90738 0.05149 0.38935 0.0
H1014 H 0.88759 0.07667 0.37222 0.0
H1015 H 0.84107 0.13561 0.38325 0.0
H1016 H 0.84546 0.24418 0.3487 0.0
H1017 H 0.84732 0.20767 0.36263 0.0
C1018 C 0.1232 0.63019 0.65314 0.0
C1019 C 0.1466 0.63189 0.64792 0.0
C1020 C 0.11099 0.60806 0.65313 0.0
C1021 C 0.09089 0.5583 0.65737 0.0
H1022 H 0.09161 0.52071 0.62425 0.0
C1023 C 0.0143 0.49204 0.64689 0.0
C1024 C 0.00484 0.4938 0.63378 0.0
C1025 C 0.03724 0.50108 0.64975 0.0
C1026 C 0.09113 0.531 0.63358 0.0
H1027 H 0.17577 0.61142 0.63884 0.0
H1028 H 0.15434 0.57233 0.63896 0.0
H1029 H 0.12102 0.55299 0.62754 0.0
H1030 H 0.01252 0.50501 0.61322 0.0
H1031 H 0.05161 0.52183 0.61825 0.0
H1032 H 0.05972 0.53823 0.66292 0.0
C1033 C 0.14543 0.58836 0.64293 0.0
C1034 C 0.10829 0.5493 0.63555 0.0
C1035 C 0.15771 0.61071 0.64289 0.0
C1036 C 0.01929 0.50339 0.62344 0.0
C1037 C 0.04194 0.51288 0.62634 0.0
C1038 C 0.07349 0.54039 0.6553 0.0
C1039 C 0.12186 0.58684 0.64801 0.0
C1040 C 0.10761 0.56394 0.6472 0.0
C1041 C 0.05095 0.51261 0.63962 0.0
C1042 C 0.07268 0.52725 0.6431 0.0
H1043 H 0.11399 0.6461 0.65704 0.0
H1044 H 0.09266 0.60784 0.65678 0.0
H1045 H 0.09032 0.56873 0.66666 0.0
H1046 H 0.00371 0.48437 0.65503 0.0
H1047 H 0.04379 0.49988 0.66002 0.0
C1048 C 0.58913 0.10664 0.57991 0.0
C1049 C 0.5825 0.08304 0.584 0.0
C1050 C 0.60267 0.12152 0.58846 0.0
C1051 C 0.60364 0.13652 0.6225 0.0
H1052 H 0.66296 0.17182 0.6164 0.0
C1053 C 0.63234 0.21239 0.65906 0.0
C1054 C 0.64406 0.23276 0.6536 0.0
C1055 C 0.62905 0.19138 0.6513 0.0
C1056 C 0.6462 0.16237 0.6182 0.0
H1057 H 0.58588 0.05593 0.59983 0.0
H1058 H 0.60882 0.08245 0.61504 0.0
H1059 H 0.65097 0.13948 0.60077 0.0
H1060 H 0.66164 0.24734 0.63585 0.0
H1061 H 0.65444 0.21147 0.62194 0.0
H1062 H 0.59742 0.16031 0.63911 0.0
C1063 C 0.60394 0.08912 0.6051 0.0
C1064 C 0.63957 0.14367 0.60933 0.0
C1065 C 0.59091 0.074 0.59641 0.0
C1066 C 0.65259 0.23178 0.64029 0.0
C1067 C 0.64866 0.21105 0.63237 0.0
C1068 C 0.60987 0.15557 0.63114 0.0
C1069 C 0.6093 0.11318 0.60132 0.0
C1070 C 0.61817 0.13077 0.6114 0.0
C1071 C 0.63671 0.19055 0.63774 0.0
C1072 C 0.63113 0.16901 0.62906 0.0
H1073 H 0.58288 0.114 0.57038 0.0
H1074 H 0.60648 0.14011 0.58542 0.0
H1075 H 0.5868 0.12703 0.62411 0.0
H1076 H 0.62597 0.21258 0.6694 0.0
H1077 H 0.62042 0.17585 0.65598 0.0
C1078 C 0.16532 0.38145 0.85749 0.0
C1079 C 0.15195 0.3597 0.85803 0.0
C1080 C 0.15399 0.40397 0.85963 0.0
C1081 C 0.11626 0.44495 0.85324 0.0
H1082 H 0.07138 0.45214 0.88293 0.0
C1083 C 0.02468 0.49111 0.84906 0.0
C1084 C 0.01396 0.50115 0.86064 0.0
C1085 C 0.04795 0.48163 0.84965 0.0
C1086 C 0.0842 0.45091 0.87473 0.0
H1087 H 0.11676 0.34423 0.86184 0.0
H1088 H 0.09728 0.38326 0.86592 0.0
H1089 H 0.10078 0.41936 0.88339 0.0
H1090 H 0.02023 0.51167 0.88149 0.0
H1091 H 0.06085 0.49527 0.88246 0.0
H1092 H 0.0986 0.47561 0.84415 0.0
C1093 C 0.11635 0.38303 0.86372 0.0
C1094 C 0.10093 0.432 0.87498 0.0
C1095 C 0.12745 0.36072 0.86129 0.0
C1096 C 0.02782 0.50369 0.87244 0.0
C1097 C 0.0511 0.49426 0.87301 0.0
C1098 C 0.09934 0.46383 0.85293 0.0
C1099 C 0.12938 0.40487 0.86272 0.0
C1100 C 0.1164 0.42825 0.86399 0.0
C1101 C 0.06096 0.48208 0.86183 0.0
C1102 C 0.08249 0.46636 0.86343 0.0
H1103 H 0.18423 0.38109 0.85494 0.0
H1104 H 0.16433 0.42064 0.85876 0.0
H1105 H 0.12798 0.44233 0.84462 0.0
H1106 H 0.01457 0.48903 0.83978 0.0
H1107 H 0.05494 0.47225 0.84086 0.0
C1108 C 0.88675 0.89351 0.07879 0.0
C1109 C 0.89787 0.91596 0.08159 0.0
C1110 C 0.87326 0.88169 0.08871 0.0
C1111 C 0.87801 0.87229 0.12389 0.0
H1112 H 0.81804 0.83679 0.12098 0.0
C1113 C 0.85386 0.79959 0.16331 0.0
C1114 C 0.84261 0.7784 0.15851 0.0
C1115 C 0.85557 0.82027 0.15512 0.0
C1116 C 0.83495 0.84639 0.12192 0.0
H1117 H 0.90202 0.94459 0.09654 0.0
H1118 H 0.87898 0.92348 0.11402 0.0
H1119 H 0.82866 0.8669 0.10378 0.0
H1120 H 0.82404 0.76218 0.14151 0.0
H1121 H 0.82833 0.79753 0.1269 0.0
H1122 H 0.88562 0.85069 0.14122 0.0
C1123 C 0.88053 0.91524 0.10411 0.0
C1124 C 0.84083 0.86381 0.11214 0.0
C1125 C 0.89363 0.92731 0.0941 0.0
C1126 C 0.83275 0.77835 0.14547 0.0
C1127 C 0.83502 0.79878 0.13714 0.0
C1128 C 0.87245 0.85453 0.13347 0.0
C1129 C 0.87103 0.89194 0.10164 0.0
C1130 C 0.86259 0.87659 0.11295 0.0
C1131 C 0.84668 0.81999 0.1418 0.0
C1132 C 0.85107 0.84093 0.13248 0.0
H1133 H 0.88964 0.88442 0.06921 0.0
H1134 H 0.8662 0.86365 0.08661 0.0
H1135 H 0.89512 0.88163 0.12459 0.0
H1136 H 0.86126 0.80021 0.17342 0.0
H1137 H 0.8641 0.83638 0.15924 0.0
C1138 C 0.49325 0.51119 0.36768 0.0
C1139 C 0.50774 0.5031 0.35697 0.0
C1140 C 0.47106 0.5221 0.36512 0.0
C1141 C 0.42234 0.54256 0.35824 0.0
H1142 H 0.42517 0.58599 0.32741 0.0
C1143 C 0.35301 0.62064 0.34936 0.0
C1144 C 0.36345 0.64292 0.34547 0.0
C1145 C 0.36673 0.59917 0.34947 0.0
C1146 C 0.42406 0.57397 0.33607 0.0
H1147 H 0.50944 0.49787 0.3353 0.0
H1148 H 0.47018 0.51581 0.33084 0.0
H1149 H 0.45583 0.55523 0.33022 0.0
H1150 H 0.39659 0.66017 0.3389 0.0
H1151 H 0.42031 0.62334 0.3394 0.0
H1152 H 0.39154 0.56299 0.36461 0.0
C1153 C 0.47634 0.51477 0.34119 0.0
C1154 C 0.44148 0.55595 0.33758 0.0
C1155 C 0.4988 0.50435 0.34373 0.0
C1156 C 0.38783 0.64333 0.34183 0.0
C1157 C 0.40145 0.62208 0.34199 0.0
C1158 C 0.40504 0.56092 0.35682 0.0
C1159 C 0.46262 0.52475 0.3518 0.0
C1160 C 0.44141 0.54053 0.34894 0.0
C1161 C 0.39109 0.59968 0.34568 0.0
C1162 C 0.40632 0.57743 0.34599 0.0
H1163 H 0.49967 0.51049 0.37801 0.0
H1164 H 0.46131 0.52976 0.37358 0.0
H1165 H 0.4213 0.53063 0.36694 0.0
H1166 H 0.33425 0.61974 0.35222 0.0
H1167 H 0.35823 0.58219 0.35237 0.0
C1168 C 0.37882 0.0652 0.13627 0.0
C1169 C 0.39038 0.05713 0.12447 0.0
C1170 C 0.36374 0.08548 0.13596 0.0
C1171 C 0.35331 0.14228 0.11774 0.0
H1172 H 0.29727 0.14451 0.14099 0.0
C1173 C 0.30437 0.23264 0.13176 0.0
C1174 C 0.30493 0.23579 0.14584 0.0
C1175 C 0.30935 0.20969 0.12611 0.0
C1176 C 0.31267 0.14408 0.1343 0.0
H1177 H 0.39491 0.06394 0.10302 0.0
H1178 H 0.36855 0.09971 0.10254 0.0
H1179 H 0.31686 0.10551 0.13652 0.0
H1180 H 0.30966 0.21748 0.16506 0.0
H1181 H 0.31764 0.17764 0.1553 0.0
H1182 H 0.34967 0.18113 0.11607 0.0
C1183 C 0.37125 0.0902 0.11201 0.0
C1184 C 0.32396 0.12182 0.1318 0.0
C1185 C 0.38628 0.06972 0.11229 0.0
C1186 C 0.30924 0.21555 0.15417 0.0
C1187 C 0.31362 0.1927 0.14858 0.0
C1188 C 0.34191 0.16461 0.1202 0.0
C1189 C 0.35984 0.0983 0.12386 0.0
C1190 C 0.34505 0.12084 0.12402 0.0
C1191 C 0.31422 0.18959 0.13451 0.0
C1192 C 0.32215 0.16581 0.129 0.0
H1193 H 0.38153 0.05595 0.14581 0.0
H1194 H 0.35562 0.09152 0.14532 0.0
H1195 H 0.36955 0.14213 0.11171 0.0
H1196 H 0.30118 0.24806 0.12515 0.0
H1197 H 0.30979 0.20771 0.11522 0.0
C1198 C 0.51958 0.52687 0.89253 0.0
C1199 C 0.52019 0.54063 0.90451 0.0
C1200 C 0.53692 0.5306 0.88248 0.0
C1201 C 0.55966 0.56015 0.85995 0.0
H1202 H 0.62234 0.58749 0.8677 0.0
C1203 C 0.59621 0.64192 0.83118 0.0
C1204 C 0.62101 0.64633 0.8304 0.0
C1205 C 0.58746 0.62142 0.83793 0.0
C1206 C 0.60516 0.57946 0.86515 0.0
H1207 H 0.54076 0.56717 0.91593 0.0
H1208 H 0.57039 0.574 0.89853 0.0
H1209 H 0.60249 0.5624 0.88451 0.0
H1210 H 0.65617 0.63179 0.83533 0.0
H1211 H 0.64089 0.59562 0.84685 0.0
H1212 H 0.56229 0.57727 0.8406 0.0
C1213 C 0.55683 0.56021 0.89676 0.0
C1214 C 0.59361 0.56527 0.87491 0.0
C1215 C 0.5396 0.55648 0.90674 0.0
C1216 C 0.63693 0.62906 0.8359 0.0
C1217 C 0.62816 0.60836 0.84254 0.0
C1218 C 0.57137 0.57401 0.85011 0.0
C1219 C 0.55517 0.54811 0.88426 0.0
C1220 C 0.57013 0.55667 0.87273 0.0
C1221 C 0.60328 0.60461 0.84396 0.0
C1222 C 0.59366 0.58501 0.85288 0.0
H1223 H 0.5049 0.51439 0.89055 0.0
H1224 H 0.53535 0.52066 0.87307 0.0
H1225 H 0.54163 0.55381 0.85784 0.0
H1226 H 0.58343 0.65483 0.82707 0.0
H1227 H 0.5682 0.61952 0.83899 0.0
C1228 C 0.1497 0.7561 0.61229 0.0
C1229 C 0.17265 0.74761 0.61576 0.0
C1230 C 0.14686 0.7787 0.60606 0.0
C1231 C 0.17661 0.837 0.60833 0.0
H1232 H 0.11955 0.85765 0.58903 0.0
C1233 C 0.11137 0.92731 0.60081 0.0
C1234 C 0.10979 0.93391 0.61452 0.0
C1235 C 0.12442 0.90667 0.59688 0.0
C1236 C 0.13589 0.85239 0.59419 0.0
H1237 H 0.2108 0.75468 0.61409 0.0
H1238 H 0.20588 0.79446 0.60316 0.0
H1239 H 0.13325 0.81558 0.5871 0.0
H1240 H 0.12142 0.92451 0.63478 0.0
H1241 H 0.14379 0.88853 0.62799 0.0
H1242 H 0.17873 0.87355 0.61582 0.0
C1243 C 0.19005 0.7837 0.60538 0.0
C1244 C 0.14365 0.8282 0.59316 0.0
C1245 C 0.19289 0.76086 0.61154 0.0
C1246 C 0.12219 0.91993 0.62414 0.0
C1247 C 0.13527 0.89941 0.62022 0.0
C1248 C 0.16891 0.86118 0.60932 0.0
C1249 C 0.16694 0.79341 0.60326 0.0
C1250 C 0.16331 0.81992 0.60081 0.0
C1251 C 0.13626 0.89232 0.60657 0.0
C1252 C 0.14773 0.86878 0.60285 0.0
H1253 H 0.13379 0.74612 0.61534 0.0
H1254 H 0.12878 0.78554 0.60466 0.0
H1255 H 0.19179 0.83133 0.6144 0.0
H1256 H 0.1021 0.93776 0.59312 0.0
H1257 H 0.12495 0.90175 0.58629 0.0
C1258 C 0.98427 0.48352 0.37846 0.0
C1259 C 0.97216 0.49127 0.39012 0.0
C1260 C 0.97126 0.47492 0.36733 0.0
C1261 C 0.91344 0.444 0.36296 0.0
H1262 H 0.93594 0.435 0.32625 0.0
C1263 C 0.86964 0.37279 0.32858 0.0
C1264 C 0.88583 0.35694 0.32211 0.0
C1265 C 0.87769 0.39456 0.33435 0.0
C1266 C 0.92942 0.43741 0.33647 0.0
H1267 H 0.93739 0.49951 0.39872 0.0
H1268 H 0.91469 0.48613 0.37902 0.0
H1269 H 0.95419 0.46649 0.34046 0.0
H1270 H 0.92301 0.35214 0.31609 0.0
H1271 H 0.9371 0.38993 0.32638 0.0
H1272 H 0.88932 0.41454 0.35922 0.0
C1273 C 0.93411 0.48546 0.37862 0.0
C1274 C 0.93985 0.45545 0.34461 0.0
C1275 C 0.94708 0.49346 0.38984 0.0
C1276 C 0.91008 0.36387 0.32105 0.0
C1277 C 0.91813 0.38566 0.32685 0.0
C1278 C 0.90298 0.42616 0.35484 0.0
C1279 C 0.94597 0.47437 0.36766 0.0
C1280 C 0.93238 0.45856 0.35808 0.0
C1281 C 0.90211 0.40099 0.33381 0.0
C1282 C 0.91122 0.42222 0.34162 0.0
H1283 H 0.00363 0.48147 0.3785 0.0
H1284 H 0.98109 0.46657 0.3591 0.0
H1285 H 0.90752 0.44529 0.37335 0.0
H1286 H 0.85079 0.36817 0.32945 0.0
H1287 H 0.86484 0.40614 0.33948 0.0
C1288 C 0.30323 0.77001 0.37747 0.0
C1289 C 0.3248 0.758 0.37433 0.0
C1290 C 0.30374 0.79333 0.38326 0.0
C1291 C 0.34525 0.8413 0.39686 0.0
H1292 H 0.31047 0.88367 0.37236 0.0
C1293 C 0.36487 0.93411 0.36641 0.0
C1294 C 0.37583 0.94835 0.37647 0.0
C1295 C 0.3522 0.91302 0.36984 0.0
C1296 C 0.32018 0.87213 0.37936 0.0
H1297 H 0.36351 0.75935 0.37623 0.0
H1298 H 0.3645 0.79958 0.38635 0.0
H1299 H 0.30019 0.8406 0.37353 0.0
H1300 H 0.38093 0.95229 0.3981 0.0
H1301 H 0.35866 0.91551 0.40407 0.0
H1302 H 0.36664 0.8724 0.40181 0.0
C1303 C 0.34715 0.7914 0.38437 0.0
C1304 C 0.31405 0.84747 0.3802 0.0
C1305 C 0.34663 0.76833 0.37848 0.0
C1306 C 0.37287 0.94162 0.39009 0.0
C1307 C 0.36015 0.92051 0.39352 0.0
C1308 C 0.35147 0.86594 0.39597 0.0
C1309 C 0.32582 0.80475 0.38613 0.0
C1310 C 0.32735 0.83151 0.38843 0.0
C1311 C 0.35011 0.90567 0.38341 0.0
C1312 C 0.3398 0.88135 0.38671 0.0
H1313 H 0.28615 0.76241 0.37434 0.0
H1314 H 0.28699 0.80306 0.38467 0.0
H1315 H 0.35559 0.82955 0.40346 0.0
H1316 H 0.36673 0.93877 0.35583 0.0
H1317 H 0.34505 0.90185 0.36176 0.0
C1318 C 0.98338 0.53921 0.11098 0.0
C1319 C 0.97655 0.53608 0.09748 0.0
C1320 C 0.96639 0.5463 0.12063 0.0
C1321 C 0.90935 0.58055 0.12087 0.0
H1322 H 0.916 0.57412 0.15969 0.0
C1323 C 0.85299 0.63907 0.15686 0.0
C1324 C 0.86681 0.65233 0.16621 0.0
C1325 C 0.86293 0.6193 0.14992 0.0
C1326 C 0.91387 0.57595 0.14886 0.0
H1327 H 0.94672 0.53558 0.08352 0.0
H1328 H 0.91666 0.54622 0.10046 0.0
H1329 H 0.93897 0.54728 0.14475 0.0
H1330 H 0.90144 0.65427 0.17621 0.0
H1331 H 0.91876 0.61975 0.16407 0.0
H1332 H 0.88461 0.6094 0.12495 0.0
C1333 C 0.93518 0.5443 0.10362 0.0
C1334 C 0.92707 0.56066 0.14029 0.0
C1335 C 0.95227 0.53784 0.09394 0.0
C1336 C 0.89036 0.64455 0.169 0.0
C1337 C 0.90023 0.62465 0.16213 0.0
C1338 C 0.89599 0.59553 0.12941 0.0
C1339 C 0.94222 0.55006 0.11691 0.0
C1340 C 0.92547 0.56321 0.12616 0.0
C1341 C 0.88682 0.61223 0.15227 0.0
C1342 C 0.89854 0.59384 0.14347 0.0
H1343 H 0.00215 0.53832 0.11384 0.0
H1344 H 0.97265 0.55069 0.13069 0.0
H1345 H 0.90793 0.58362 0.1101 0.0
H1346 H 0.83475 0.64447 0.15451 0.0
H1347 H 0.85212 0.60992 0.14244 0.0
C1348 C 0.20198 0.22233 0.87795 0.0
C1349 C 0.18101 0.23578 0.87536 0.0
C1350 C 0.20037 0.19849 0.883 0.0
C1351 C 0.15679 0.15195 0.89601 0.0
H1352 H 0.18983 0.1088 0.87117 0.0
C1353 C 0.12574 0.05267 0.88877 0.0
C1354 C 0.12282 0.04604 0.87514 0.0
C1355 C 0.13896 0.07343 0.89227 0.0
C1356 C 0.18056 0.12055 0.87825 0.0
H1357 H 0.14227 0.23611 0.87737 0.0
H1358 H 0.1394 0.19498 0.88613 0.0
H1359 H 0.20173 0.15141 0.87259 0.0
H1360 H 0.13238 0.05549 0.85454 0.0
H1361 H 0.15487 0.09181 0.86058 0.0
H1362 H 0.13426 0.12161 0.9008 0.0
C1363 C 0.15711 0.20246 0.88431 0.0
C1364 C 0.18763 0.14495 0.87923 0.0
C1365 C 0.15871 0.22604 0.87917 0.0
C1366 C 0.1342 0.06007 0.86514 0.0
C1367 C 0.14735 0.08082 0.86863 0.0
C1368 C 0.14962 0.12759 0.89497 0.0
C1369 C 0.17779 0.18796 0.88568 0.0
C1370 C 0.17502 0.16121 0.88762 0.0
C1371 C 0.14953 0.08802 0.88222 0.0
C1372 C 0.16067 0.11193 0.88559 0.0
H1373 H 0.21941 0.22945 0.87509 0.0
H1374 H 0.21664 0.18786 0.8841 0.0
H1375 H 0.14699 0.16392 0.90275 0.0
H1376 H 0.11736 0.04214 0.89675 0.0
H1377 H 0.1405 0.07832 0.90284 0.0
C1378 C 0.55139 0.47094 0.58756 0.0
C1379 C 0.52714 0.47205 0.59128 0.0
C1380 C 0.56908 0.46723 0.59733 0.0
C1381 C 0.57839 0.45532 0.63452 0.0
H1382 H 0.61992 0.40465 0.62034 0.0
C1383 C 0.61007 0.37095 0.66424 0.0
C1384 C 0.63298 0.36131 0.66154 0.0
C1385 C 0.60191 0.39162 0.65737 0.0
C1386 C 0.60889 0.41911 0.62448 0.0
H1387 H 0.50232 0.47231 0.60808 0.0
H1388 H 0.53283 0.46446 0.6251 0.0
H1389 H 0.59734 0.42978 0.60491 0.0
H1390 H 0.66588 0.36682 0.65017 0.0
H1391 H 0.65149 0.40274 0.63811 0.0
H1392 H 0.58889 0.44289 0.65422 0.0
C1393 C 0.5386 0.46722 0.61477 0.0
C1394 C 0.59592 0.43375 0.61559 0.0
C1395 C 0.52099 0.47171 0.60501 0.0
C1396 C 0.64805 0.37362 0.6524 0.0
C1397 C 0.63983 0.3942 0.64549 0.0
C1398 C 0.59119 0.44036 0.64344 0.0
C1399 C 0.56271 0.46349 0.61095 0.0
C1400 C 0.57991 0.45161 0.62046 0.0
C1401 C 0.61644 0.40299 0.64762 0.0
C1402 C 0.60606 0.42167 0.63849 0.0
H1403 H 0.5565 0.47131 0.57699 0.0
H1404 H 0.58755 0.46546 0.59404 0.0
H1405 H 0.56664 0.46917 0.63866 0.0
H1406 H 0.59808 0.36202 0.67129 0.0
H1407 H 0.58371 0.39784 0.65914 0.0
C1408 C 0.2303 0.30421 0.19661 0.0
C1409 C 0.25535 0.30444 0.19841 0.0
C1410 C 0.21499 0.30201 0.20777 0.0
C1411 C 0.2137 0.30658 0.24521 0.0
H1412 H 0.16576 0.25539 0.24299 0.0
C1413 C 0.18191 0.25323 0.29142 0.0
C1414 C 0.15733 0.24806 0.29282 0.0
C1415 C 0.19065 0.26393 0.27963 0.0
C1416 C 0.17876 0.27004 0.2437 0.0
H1417 H 0.28392 0.30367 0.21332 0.0
H1418 H 0.25742 0.29971 0.23261 0.0
H1419 H 0.18669 0.26852 0.22256 0.0
H1420 H 0.12262 0.24999 0.2829 0.0
H1421 H 0.1381 0.26845 0.26213 0.0
H1422 H 0.20656 0.30731 0.26644 0.0
C1423 C 0.24949 0.30139 0.22267 0.0
C1424 C 0.1907 0.27761 0.23201 0.0
C1425 C 0.26471 0.30344 0.21157 0.0
C1426 C 0.14166 0.25376 0.28213 0.0
C1427 C 0.15049 0.26427 0.27024 0.0
C1428 C 0.20188 0.29894 0.25688 0.0
C1429 C 0.22449 0.30026 0.2209 0.0
C1430 C 0.20885 0.2954 0.23272 0.0
C1431 C 0.17506 0.26955 0.26893 0.0
C1432 C 0.18484 0.28008 0.25631 0.0
H1433 H 0.22255 0.30498 0.18659 0.0
H1434 H 0.19577 0.30134 0.20612 0.0
H1435 H 0.22726 0.32068 0.24603 0.0
H1436 H 0.19447 0.24911 0.29946 0.0
H1437 H 0.20975 0.26743 0.2788 0.0
C1438 C 0.02792 0.96808 0.56411 0.0
C1439 C 0.0358 0.98842 0.57154 0.0
C1440 C 0.01878 0.97095 0.55106 0.0
C1441 C 0.01769 0.01478 0.52263 0.0
H1442 H 0.96155 0.9783 0.51111 0.0
C1443 C 0.96485 0.04338 0.47633 0.0
C1444 C 0.96168 0.02547 0.46632 0.0
C1445 C 0.97205 0.03691 0.48929 0.0
C1446 C 0.97734 0.98842 0.5142 0.0
H1447 H 0.04017 0.02774 0.57116 0.0
H1448 H 0.02382 0.03284 0.54857 0.0
H1449 H 0.97879 0.97086 0.53351 0.0
H1450 H 0.96179 0.98654 0.46236 0.0
H1451 H 0.97429 0.97517 0.48529 0.0
H1452 H 0.01589 0.03275 0.50351 0.0
C1453 C 0.02515 0.01457 0.55267 0.0
C1454 C 0.98727 0.98414 0.52697 0.0
C1455 C 0.03443 0.01168 0.56566 0.0
C1456 C 0.96415 0.00074 0.46985 0.0
C1457 C 0.97131 0.99423 0.48294 0.0
C1458 C 0.00765 0.01919 0.50999 0.0
C1459 C 0.01724 0.99425 0.5452 0.0
C1460 C 0.00737 0.99756 0.53139 0.0
C1461 C 0.97614 0.01239 0.49259 0.0
C1462 C 0.9872 0.00633 0.50573 0.0
H1463 H 0.02881 0.94989 0.56836 0.0
H1464 H 0.01313 0.9549 0.54553 0.0
H1465 H 0.03352 0.02497 0.52556 0.0
H1466 H 0.96275 0.06258 0.47402 0.0
H1467 H 0.97519 0.05119 0.49666 0.0
C1468 C 0.20928 0.7363 0.68978 0.0
C1469 C 0.22013 0.72302 0.67928 0.0
C1470 C 0.22281 0.74437 0.70075 0.0
C1471 C 0.2844 0.75787 0.71192 0.0
H1472 H 0.25685 0.74987 0.74763 0.0
C1473 C 0.3374 0.7728 0.76175 0.0
C1474 C 0.32485 0.78338 0.7726 0.0
C1475 C 0.32546 0.76698 0.74975 0.0
C1476 C 0.26468 0.75256 0.73772 0.0
H1477 H 0.25381 0.70805 0.672 0.0
H1478 H 0.27746 0.72206 0.6913 0.0
H1479 H 0.23451 0.7362 0.72794 0.0
H1480 H 0.29026 0.79746 0.77906 0.0
H1481 H 0.26962 0.7877 0.75811 0.0
H1482 H 0.31465 0.77423 0.72179 0.0
C1483 C 0.25848 0.72635 0.69093 0.0
C1484 C 0.25189 0.74468 0.72644 0.0
C1485 C 0.24491 0.7182 0.67994 0.0
C1486 C 0.30041 0.78906 0.77096 0.0
C1487 C 0.28853 0.78333 0.75898 0.0
C1488 C 0.29723 0.76582 0.72324 0.0
C1489 C 0.24751 0.73936 0.70149 0.0
C1490 C 0.26153 0.74736 0.71342 0.0
C1491 C 0.30076 0.77169 0.74837 0.0
C1492 C 0.28741 0.76338 0.73626 0.0
H1493 H 0.19027 0.74047 0.68957 0.0
H1494 H 0.21392 0.75468 0.70864 0.0
H1495 H 0.29218 0.76036 0.70199 0.0
H1496 H 0.35625 0.7682 0.7627 0.0
H1497 H 0.33534 0.75791 0.74178 0.0
C1498 C 0.46493 0.03801 0.06459 0.0
C1499 C 0.45815 0.01628 0.07112 0.0
C1500 C 0.47523 0.03735 0.0517 0.0
C1501 C 0.50977 0.99681 0.02979 0.0
H1502 H 0.4857 0.03524 -0.00019 0.0
C1503 C 0.52216 0.96747 0.97528 0.0
C1504 C 0.52595 0.98481 0.96506 0.0
C1505 C 0.51791 0.97475 0.98852 0.0
C1506 C 0.493 0.02481 0.00814 0.0
H1507 H 0.45628 0.97689 0.06911 0.0
H1508 H 0.47434 0.97579 0.04672 0.0
H1509 H 0.46924 0.04154 0.02249 0.0
H1510 H 0.52897 0.02347 0.96077 0.0
H1511 H 0.52132 0.03637 0.98417 0.0
H1512 H 0.53316 0.97973 0.01553 0.0
C1513 C 0.47184 0.9933 0.0516 0.0
C1514 C 0.4835 0.02834 0.02109 0.0
C1515 C 0.46132 0.99396 0.06438 0.0
C1516 C 0.52613 0.00971 0.96846 0.0
C1517 C 0.52163 0.01708 0.9818 0.0
C1518 C 0.51936 0.99343 0.01692 0.0
C1519 C 0.4792 0.01493 0.04522 0.0
C1520 C 0.49125 0.01375 0.03191 0.0
C1521 C 0.51726 -0.00039 0.99193 0.0
C1522 C 0.51047 0.00674 0.00587 0.0
H1523 H 0.46266 0.05551 0.06952 0.0
H1524 H 0.48072 0.05428 0.04696 0.0
H1525 H 0.51643 0.98572 0.03803 0.0
H1526 H 0.52201 0.94812 0.97303 0.0
H1527 H 0.51423 0.96083 0.99601 0.0
C1528 C 0.29671 0.73795 0.2994 0.0
C1529 C 0.2857 0.72595 0.31032 0.0
C1530 C 0.28322 0.74526 0.28825 0.0
C1531 C 0.22635 0.73321 0.27044 0.0
H1532 H 0.24048 0.79498 0.25303 0.0
C1533 C 0.17109 0.76842 0.22531 0.0
C1534 C 0.18464 0.77647 0.21418 0.0
C1535 C 0.18211 0.76431 0.23777 0.0
C1536 C 0.23642 0.77765 0.25776 0.0
H1537 H 0.25184 0.71226 0.31808 0.0
H1538 H 0.2282 0.72531 0.29864 0.0
H1539 H 0.26215 0.78344 0.27347 0.0
H1540 H 0.2202 0.78744 0.20756 0.0
H1541 H 0.23939 0.78024 0.22932 0.0
H1542 H 0.20072 0.72738 0.25467 0.0
C1543 C 0.24735 0.72877 0.29865 0.0
C1544 C 0.24885 0.771 0.26944 0.0
C1545 C 0.26088 0.72136 0.30981 0.0
C1546 C 0.20926 0.78119 0.21592 0.0
C1547 C 0.22024 0.77719 0.2284 0.0
C1548 C 0.21385 0.73992 0.2588 0.0
C1549 C 0.25837 0.74085 0.28776 0.0
C1550 C 0.24418 0.74855 0.27581 0.0
C1551 C 0.20686 0.76831 0.23938 0.0
C1552 C 0.21896 0.76207 0.25225 0.0
H1553 H 0.31581 0.74168 0.29944 0.0
H1554 H 0.29235 0.75411 0.27992 0.0
H1555 H 0.22255 0.71566 0.27499 0.0
H1556 H 0.15207 0.76469 0.22433 0.0
H1557 H 0.17131 0.75775 0.24612 0.0
C1558 C 0.4586 0.01758 0.42641 0.0
C1559 C 0.45471 0.99496 0.42011 0.0
C1560 C 0.46985 0.01877 0.43898 0.0
C1561 C 0.48196 0.98379 0.46964 0.0
H1562 H 0.53035 0.03356 0.47554 0.0
C1563 C 0.52449 0.0005 0.52224 0.0
C1564 C 0.52403 0.02516 0.52613 0.0
C1565 C 0.52015 0.99395 0.50877 0.0
C1566 C 0.51688 0.01955 0.47405 0.0
H1567 H 0.45916 0.95579 0.42219 0.0
H1568 H 0.47859 0.95792 0.44429 0.0
H1569 H 0.5136 0.02781 0.45301 0.0
H1570 H 0.51988 0.0623 0.51887 0.0
H1571 H 0.51227 0.05096 0.49564 0.0
H1572 H 0.48456 0.97618 0.49081 0.0
C1573 C 0.47299 0.97469 0.43943 0.0
C1574 C 0.50727 0.01631 0.46117 0.0
C1575 C 0.46192 0.97351 0.42678 0.0
C1576 C 0.52022 0.04312 0.51624 0.0
C1577 C 0.51607 0.03662 0.50285 0.0
C1578 C 0.4915 0.98713 0.48258 0.0
C1579 C 0.47729 0.99735 0.44558 0.0
C1580 C 0.48926 -0.00114 0.45891 0.0
C1581 C 0.51558 0.01198 0.49899 0.0
C1582 C 0.50856 0.00553 0.48498 0.0
H1583 H 0.45326 0.03443 0.42154 0.0
H1584 H 0.4726 0.03647 0.4436 0.0
H1585 H 0.46805 0.97023 0.46818 0.0
H1586 H 0.5274 0.98627 0.52966 0.0
H1587 H 0.52003 0.97481 0.50605 0.0
C1588 C 0.23887 0.27988 0.81087 0.0
C1589 C 0.21376 0.27834 0.81209 0.0
C1590 C 0.25028 0.27235 0.79902 0.0
C1591 C 0.24003 0.26019 0.76291 0.0
H1592 H 0.29726 0.22028 0.76622 0.0
C1593 C 0.28472 0.21521 0.71664 0.0
C1594 C 0.30991 0.21655 0.71598 0.0
C1595 C 0.27261 0.22166 0.72848 0.0
C1596 C 0.28142 0.2316 0.76512 0.0
H1597 H 0.18091 0.26822 0.8017 0.0
H1598 H 0.20088 0.25508 0.78103 0.0
H1599 H 0.27693 0.23474 0.78651 0.0
H1600 H 0.34214 0.22525 0.72734 0.0
H1601 H 0.32101 0.23674 0.74788 0.0
H1602 H 0.24463 0.25726 0.74152 0.0
C1603 C 0.2117 0.26221 0.78922 0.0
C1604 C 0.26981 0.23989 0.77674 0.0
C1605 C 0.20028 0.26965 0.80109 0.0
C1606 C 0.32273 0.22395 0.72751 0.0
C1607 C 0.31062 0.23043 0.73932 0.0
C1608 C 0.25168 0.25196 0.75128 0.0
C1609 C 0.23683 0.26321 0.78813 0.0
C1610 C 0.24905 0.25435 0.77576 0.0
C1611 C 0.28542 0.22961 0.7399 0.0
C1612 C 0.27257 0.23765 0.75226 0.0
H1613 H 0.24979 0.28654 0.81914 0.0
H1614 H 0.26966 0.27367 0.79839 0.0
H1615 H 0.2242 0.27153 0.76184 0.0
H1616 H 0.2743 0.20948 0.70797 0.0
H1617 H 0.2532 0.22047 0.72867 0.0
C1618 C 0.03619 0.02024 0.92541 0.0
C1619 C 0.04245 -0.00103 0.91829 0.0
C1620 C 0.02387 0.01869 0.93769 0.0
C1621 C 0.9841 0.97824 0.95681 0.0
H1622 H 0.00746 0.01214 0.98858 0.0
C1623 C 0.96197 0.94703 0.01033 0.0
C1624 C 0.96007 0.96416 0.02084 0.0
C1625 C 0.96788 0.95443 -0.0027 0.0
C1626 C 0.00033 0.00299 0.97975 0.0
H1627 H 0.04095 0.95941 0.91851 0.0
H1628 H 0.01938 0.95675 0.93989 0.0
H1629 H 0.02679 0.01905 0.96678 0.0
H1630 H 0.96164 0.00271 0.02573 0.0
H1631 H 0.97182 0.01573 0.0028 0.0
H1632 H 0.95786 0.96192 0.96972 0.0
C1633 C 0.02388 0.9746 0.93593 0.0
C1634 C 0.0115 0.00687 0.96729 0.0
C1635 C 0.03641 0.97613 0.92375 0.0
C1636 C 0.96305 0.98906 0.01786 0.0
C1637 C 0.96903 0.99649 0.00476 0.0
C1638 C 0.97281 0.97452 0.96921 0.0
C1639 C 0.01735 0.99586 0.94296 0.0
C1640 C 0.0039 0.99398 0.9558 0.0
C1641 C 0.972 0.97917 0.9944 0.0
C1642 C 0.98127 0.98627 0.98091 0.0
H1643 H 0.04062 0.03811 0.92146 0.0
H1644 H 0.01903 0.03534 0.94292 0.0
H1645 H 0.9776 0.96846 0.94802 0.0
H1646 H 0.95969 0.92771 0.01225 0.0
H1647 H 0.97033 0.94054 0.98964 0.0
C1648 C 0.78332 0.75876 0.69076 0.0
C1649 C 0.77156 0.76972 0.67977 0.0
C1650 C 0.77066 0.75271 0.70243 0.0
C1651 C 0.71014 0.7399 0.71537 0.0
H1652 H 0.73944 0.75417 0.75002 0.0
C1653 C 0.66057 0.72937 0.7666 0.0
C1654 C 0.67406 0.72018 0.77747 0.0
C1655 C 0.67168 0.73469 0.75428 0.0
C1656 C 0.73114 0.74979 0.74043 0.0
H1657 H 0.73719 0.78279 0.67238 0.0
H1658 H 0.71505 0.77229 0.69289 0.0
H1659 H 0.76022 0.76543 0.72932 0.0
H1660 H 0.70956 0.70835 0.78375 0.0
H1661 H 0.72876 0.71728 0.76225 0.0
H1662 H 0.68104 0.72417 0.72655 0.0
C1663 C 0.73408 0.76825 0.69238 0.0
C1664 C 0.74302 0.75628 0.72858 0.0
C1665 C 0.74678 0.77439 0.68068 0.0
C1666 C 0.69868 0.71563 0.77562 0.0
C1667 C 0.70973 0.72089 0.76333 0.0
C1668 C 0.69822 0.73335 0.72727 0.0
C1669 C 0.74593 0.75745 0.70339 0.0
C1670 C 0.73275 0.75125 0.71593 0.0
C1671 C 0.69646 0.73088 0.7526 0.0
C1672 C 0.70871 0.73806 0.73992 0.0
H1673 H 0.80237 0.7548 0.69038 0.0
H1674 H 0.78022 0.74407 0.71068 0.0
H1675 H 0.7019 0.7356 0.70575 0.0
H1676 H 0.64157 0.73308 0.7677 0.0
H1677 H 0.66101 0.74251 0.74622 0.0
C1678 C 0.75455 0.21714 0.17705 0.0
C1679 C 0.72936 0.21882 0.17717 0.0
C1680 C 0.76801 0.22584 0.18794 0.0
C1681 C 0.76439 0.26773 0.21708 0.0
H1682 H 0.81762 0.22955 0.23089 0.0
C1683 C 0.80666 0.2841 0.26935 0.0
C1684 C 0.83168 0.28164 0.27066 0.0
C1685 C 0.7953 0.27843 0.25719 0.0
C1686 C 0.80304 0.24062 0.22702 0.0
H1687 H 0.69854 0.23068 0.1889 0.0
H1688 H 0.722 0.24551 0.20793 0.0
H1689 H 0.79553 0.21521 0.21117 0.0
H1690 H 0.86448 0.27205 0.26006 0.0
H1691 H 0.84457 0.26226 0.23878 0.0
H1692 H 0.77167 0.29294 0.23307 0.0
C1693 C 0.73137 0.23786 0.19932 0.0
C1694 C 0.79038 0.23238 0.21573 0.0
C1695 C 0.71792 0.22918 0.18845 0.0
C1696 C 0.84517 0.27406 0.25941 0.0
C1697 C 0.83377 0.26831 0.24724 0.0
C1698 C 0.77703 0.27595 0.22837 0.0
C1699 C 0.75656 0.2364 0.19916 0.0
C1700 C 0.77075 0.24572 0.21074 0.0
C1701 C 0.80868 0.27013 0.24608 0.0
C1702 C 0.79633 0.26234 0.23354 0.0
H1703 H 0.76392 0.20933 0.16849 0.0
H1704 H 0.78741 0.22465 0.18747 0.0
H1705 H 0.74962 0.27865 0.21331 0.0
H1706 H 0.79573 0.28991 0.27782 0.0
H1707 H 0.77591 0.27977 0.25665 0.0
C1708 C 0.79954 0.23082 0.7961 0.0
C1709 C 0.78756 0.22087 0.80732 0.0
C1710 C 0.78662 0.23927 0.78498 0.0
C1711 C 0.72777 0.23463 0.76809 0.0
H1712 H 0.74848 0.29414 0.75035 0.0
C1713 C 0.67349 0.27852 0.72496 0.0
C1714 C 0.68677 0.28518 0.71346 0.0
C1715 C 0.68516 0.27225 0.73695 0.0
C1716 C 0.74258 0.27744 0.75516 0.0
H1717 H 0.75259 0.21187 0.81562 0.0
H1718 H 0.73 0.22695 0.79624 0.0
H1719 H 0.76997 0.27961 0.77025 0.0
H1720 H 0.72272 0.29131 0.70567 0.0
H1721 H 0.74305 0.28038 0.72662 0.0
H1722 H 0.70039 0.23248 0.75297 0.0
C1723 C 0.74943 0.2279 0.79599 0.0
C1724 C 0.7549 0.26906 0.76653 0.0
C1725 C 0.76237 0.21933 0.80711 0.0
C1726 C 0.71195 0.28623 0.71434 0.0
C1727 C 0.7236 0.28008 0.72636 0.0
C1728 C 0.71538 0.24307 0.75675 0.0
C1729 C 0.76142 0.23809 0.78483 0.0
C1730 C 0.74777 0.24744 0.77305 0.0
C1731 C 0.71034 0.27266 0.73771 0.0
C1732 C 0.72278 0.26444 0.75012 0.0
H1733 H 0.81894 0.23215 0.79589 0.0
H1734 H 0.79643 0.24659 0.77644 0.0
H1735 H 0.72202 0.21774 0.77276 0.0
H1736 H 0.65406 0.27759 0.72465 0.0
H1737 H 0.67448 0.26691 0.74561 0.0
C1738 C 0.70541 0.74402 0.31145 0.0
C1739 C 0.71158 0.7652 0.31863 0.0
C1740 C 0.71749 0.73791 0.29956 0.0
C1741 C 0.77281 0.7521 0.27991 0.0
H1742 H 0.73739 0.72054 0.25109 0.0
C1743 C 0.78312 0.72825 0.21949 0.0
C1744 C 0.80756 0.72198 0.21915 0.0
C1745 C 0.7716 0.73249 0.23178 0.0
C1746 C 0.74754 0.7296 0.25895 0.0
H1747 H 0.73496 0.79681 0.31894 0.0
H1748 H 0.75532 0.78682 0.29788 0.0
H1749 H 0.71687 0.73133 0.27184 0.0
H1750 H 0.83895 0.71445 0.2314 0.0
H1751 H 0.81862 0.72078 0.25292 0.0
H1752 H 0.80314 0.75166 0.26671 0.0
C1753 C 0.74172 0.77442 0.30162 0.0
C1754 C 0.73583 0.73543 0.27099 0.0
C1755 C 0.72993 0.78028 0.31365 0.0
C1756 C 0.82012 0.71945 0.23136 0.0
C1757 C 0.80849 0.72327 0.24369 0.0
C1758 C 0.78443 0.74663 0.26778 0.0
C1759 C 0.73572 0.75309 0.29444 0.0
C1760 C 0.74829 0.74677 0.28164 0.0
C1761 C 0.78413 0.73013 0.24406 0.0
C1762 C 0.77194 0.73534 0.25713 0.0
H1763 H 0.69152 0.73189 0.31513 0.0
H1764 H 0.71268 0.72109 0.29451 0.0
H1765 H 0.78314 0.76044 0.28794 0.0
H1766 H 0.773 0.73056 0.21023 0.0
H1767 H 0.75299 0.7382 0.23161 0.0
C1768 C 0.52745 0.46492 0.06471 0.0
C1769 C 0.53404 0.48611 0.07182 0.0
C1770 C 0.51556 0.46663 0.05232 0.0
C1771 C 0.47783 0.50801 0.03244 0.0
H1772 H 0.50211 0.4733 0.00115 0.0
C1773 C 0.46251 0.54106 0.97866 0.0
C1774 C 0.4605 0.52429 0.96799 0.0
C1775 C 0.4666 0.53303 0.99179 0.0
C1776 C 0.49471 0.48267 0.00984 0.0
H1777 H 0.53346 0.52569 0.07148 0.0
H1778 H 0.51263 0.52863 0.04988 0.0
H1779 H 0.5197 0.46568 0.02335 0.0
H1780 H 0.45996 0.48585 0.96281 0.0
H1781 H 0.46712 0.47171 0.98595 0.0
H1782 H 0.45318 0.52537 0.01897 0.0
C1783 C 0.51655 0.51072 0.05395 0.0
C1784 C 0.50487 0.47839 0.02253 0.0
C1785 C 0.52866 0.50903 0.06625 0.0
C1786 C 0.46148 0.49919 0.97084 0.0
C1787 C 0.46572 0.49112 0.98405 0.0
C1788 C 0.46755 0.51215 0.0198 0.0
C1789 C 0.50976 0.48955 0.04691 0.0
C1790 C 0.49703 0.49162 0.03385 0.0
C1791 C 0.4688 0.50802 0.99461 0.0
C1792 C 0.47644 0.50016 0.00829 0.0
H1793 H 0.53138 0.44699 0.06875 0.0
H1794 H 0.51051 0.45004 0.04709 0.0
H1795 H 0.47112 0.51807 0.04108 0.0
H1796 H 0.46169 0.56052 0.97682 0.0
H1797 H 0.4692 0.54657 -0.00037 0.0
C1798 C 0.02438 0.52112 0.46839 0.0
C1799 C 0.00338 0.51487 0.46135 0.0
C1800 C 0.02324 0.52688 0.48216 0.0
C1801 C 0.98241 0.54271 0.51024 0.0
H1802 H 0.0196 0.49624 0.53113 0.0
C1803 C 0.97333 0.53284 0.56821 0.0
C1804 C 0.96882 0.50881 0.5725 0.0
C1805 C 0.98086 0.53751 0.55501 0.0
C1806 C 0.00928 0.50946 0.52543 0.0
H1807 H 0.96466 0.51177 0.46268 0.0
H1808 H 0.9626 0.52248 0.48654 0.0
H1809 H 0.02702 0.50048 0.5069 0.0
H1810 H 0.96915 0.4708 0.56643 0.0
H1811 H 0.98257 0.47897 0.54335 0.0
H1812 H 0.96404 0.55101 0.52868 0.0
C1813 C 0.97992 0.52271 0.48155 0.0
C1814 C 0.0137 0.51209 0.51162 0.0
C1815 C 0.98111 0.51648 0.46793 0.0
C1816 C 0.97242 0.4895 0.5634 0.0
C1817 C 0.98027 0.49415 0.55024 0.0
C1818 C 0.97821 0.54032 0.52408 0.0
C1819 C 0.00104 0.52702 0.48892 0.0
C1820 C -0.00021 0.52819 0.50383 0.0
C1821 C 0.98436 0.51821 0.5459 0.0
C1822 C 0.9911 0.52312 0.53171 0.0
H1823 H 0.04177 0.51984 0.46354 0.0
H1824 H 0.03976 0.5302 0.48765 0.0
H1825 H 0.97145 0.55523 0.50443 0.0
H1826 H 0.97071 0.54812 0.57499 0.0
H1827 H 0.98395 0.5562 0.5519 0.0
C1828 C 0.02099 0.49887 0.02442 0.0
C1829 C 0.01466 0.52191 0.02957 0.0
C1830 C 0.01443 0.49226 0.01123 0.0
C1831 C 0.97057 0.50735 0.98472 0.0
H1832 H 0.01835 0.48429 0.95926 0.0
C1833 C 0.95776 0.51636 0.92755 0.0
C1834 C 0.96543 0.49718 0.9192 0.0
C1835 C 0.96291 0.5161 0.94134 0.0
C1836 C 0.00469 0.49032 0.9663 0.0
H1837 H 0.99652 0.55601 0.02491 0.0
H1838 H 0.9852 0.54447 0.00219 0.0
H1839 H 0.02897 0.48885 0.98311 0.0
H1840 H 0.98443 0.46259 0.91878 0.0
H1841 H 0.99328 0.46213 0.94291 0.0
H1842 H 0.94641 0.50933 0.96799 0.0
C1843 C 0.99502 0.53145 0.0083 0.0
C1844 C 0.01079 0.49289 0.97994 0.0
C1845 C 0.00172 0.53811 0.02131 0.0
C1846 C 0.9783 0.47769 0.92494 0.0
C1847 C 0.98347 0.47745 0.93875 0.0
C1848 C 0.96448 0.50473 0.97115 0.0
C1849 C 0.00117 0.50846 0.00313 0.0
C1850 C 0.99395 0.50209 0.98919 0.0
C1851 C 0.97582 0.49665 0.9471 0.0
C1852 C 0.98164 0.49683 0.96172 0.0
H1853 H 0.03097 0.48602 0.03054 0.0
H1854 H 0.01941 0.47442 0.00745 0.0
H1855 H 0.95713 0.51408 0.99171 0.0
H1856 H 0.94788 0.53167 0.92343 0.0
H1857 H 0.95711 0.53138 0.94747 0.0
C1858 C 0.5283 0.51706 0.4247 0.0
C1859 C 0.53616 0.49528 0.41862 0.0
C1860 C 0.51673 0.51661 0.43722 0.0
C1861 C 0.48309 0.47612 0.45999 0.0
H1862 H 0.50595 0.5186 0.48857 0.0
C1863 C 0.47437 0.45213 0.51562 0.0
C1864 C 0.47097 0.47047 0.52534 0.0
C1865 C 0.47699 0.45804 0.50204 0.0
C1866 C 0.49892 0.50702 0.48063 0.0
H1867 H 0.538 0.45596 0.42087 0.0
H1868 H 0.5178 0.45519 0.44273 0.0
H1869 H 0.52164 0.52336 0.46569 0.0
H1870 H 0.46655 0.50937 0.52839 0.0
H1871 H 0.4713 0.51983 0.50443 0.0
H1872 H 0.46084 0.45935 0.47495 0.0
C1873 C 0.52043 0.47259 0.43775 0.0
C1874 C 0.508 0.50968 0.46755 0.0
C1875 C 0.53218 0.47304 0.42529 0.0
C1876 C 0.46918 0.49487 0.52111 0.0
C1877 C 0.47202 0.50085 0.50743 0.0
C1878 C 0.47393 0.47356 0.47302 0.0
C1879 C 0.51258 0.49436 0.44383 0.0
C1880 C 0.50073 0.49372 0.45721 0.0
C1881 C 0.47635 0.48247 0.4978 0.0
C1882 C 0.48236 0.48841 0.48359 0.0
H1883 H 0.53109 0.5345 0.4198 0.0
H1884 H 0.5108 0.53364 0.44166 0.0
H1885 H 0.4768 0.46392 0.45213 0.0
H1886 H 0.47566 0.43312 0.51853 0.0
H1887 H 0.48064 0.44346 0.49494 0.0
C1888 C 0.23474 0.18481 0.36423 0.0
C1889 C 0.22744 0.19367 0.35156 0.0
C1890 C 0.2577 0.17492 0.36595 0.0
C1891 C 0.30342 0.14351 0.34612 0.0
H1892 H 0.34245 0.14959 0.37838 0.0
C1893 C 0.3877 0.08548 0.35158 0.0
C1894 C 0.39036 0.07358 0.36404 0.0
C1895 C 0.37197 0.10516 0.35026 0.0
C1896 C 0.33171 0.14764 0.36932 0.0
H1897 H 0.23903 0.20047 0.33096 0.0
H1898 H 0.27901 0.18331 0.33399 0.0
H1899 H 0.30656 0.17493 0.37578 0.0
H1900 H 0.37987 0.07394 0.38513 0.0
H1901 H 0.35178 0.10776 0.38277 0.0
H1902 H 0.32761 0.11561 0.33985 0.0
C1903 C 0.26687 0.18367 0.34254 0.0
C1904 C 0.3112 0.16218 0.36784 0.0
C1905 C 0.24398 0.19356 0.34083 0.0
C1906 C 0.3782 0.08279 0.37539 0.0
C1907 C 0.36214 0.10226 0.37403 0.0
C1908 C 0.32374 0.12893 0.34763 0.0
C1909 C 0.27377 0.17368 0.35502 0.0
C1910 C 0.2967 0.16004 0.35627 0.0
C1911 C 0.35818 0.11309 0.36134 0.0
C1912 C 0.33803 0.13056 0.35931 0.0
H1913 H 0.22247 0.18472 0.37272 0.0
H1914 H 0.26242 0.16721 0.37567 0.0
H1915 H 0.29239 0.14106 0.33721 0.0
H1916 H 0.39712 0.07901 0.34269 0.0
H1917 H 0.3699 0.11352 0.34042 0.0
C1918 C 0.11185 0.06367 0.643 0.0
C1919 C 0.10062 0.05828 0.63065 0.0
C1920 C 0.1273 0.08357 0.64413 0.0
C1921 C 0.16683 0.12147 0.62305 0.0
H1922 H 0.17847 0.15286 0.65751 0.0
C1923 C 0.24058 0.18707 0.65282 0.0
C1924 C 0.26157 0.17642 0.64761 0.0
C1925 C 0.21799 0.17853 0.64887 0.0
C1926 C 0.1753 0.14479 0.64769 0.0
H1927 H 0.0956 0.07057 0.61001 0.0
H1928 H 0.12224 0.10579 0.61208 0.0
H1929 H 0.14252 0.12859 0.65442 0.0
H1930 H 0.27541 0.14917 0.63379 0.0
H1931 H 0.23626 0.13356 0.62735 0.0
H1932 H 0.19948 0.13794 0.61627 0.0
C1933 C 0.11952 0.09421 0.62081 0.0
C1934 C 0.15478 0.1305 0.64599 0.0
C1935 C 0.10414 0.07411 0.61964 0.0
C1936 C 0.25955 0.15778 0.63796 0.0
C1937 C 0.237 0.14896 0.63418 0.0
C1938 C 0.1872 0.13608 0.62468 0.0
C1939 C 0.13177 0.09881 0.63298 0.0
C1940 C 0.1508 0.11782 0.63385 0.0
C1941 C 0.21591 0.15886 0.6398 0.0
C1942 C 0.19221 0.14712 0.6372 0.0
H1943 H 0.10956 0.05191 0.6517 0.0
H1944 H 0.13664 0.08621 0.65361 0.0
H1945 H 0.16444 0.11199 0.61355 0.0
H1946 H 0.24159 0.20172 0.66014 0.0
H1947 H 0.20219 0.18701 0.65318 0.0
C1948 C 0.26126 0.80563 0.85456 0.0
C1949 C 0.26672 0.80594 0.8407 0.0
C1950 C 0.2387 0.81325 0.85914 0.0
C1951 C 0.1768 0.82838 0.84765 0.0
H1952 H 0.17965 0.87733 0.87587 0.0
C1953 C 0.1138 0.91017 0.85043 0.0
C1954 C 0.10781 0.9204 0.863 0.0
C1955 C 0.12865 0.88973 0.84969 0.0
C1956 C 0.17832 0.86327 0.86822 0.0
H1957 H 0.25244 0.81343 0.82072 0.0
H1958 H 0.21341 0.82698 0.82868 0.0
H1959 H 0.21501 0.85293 0.8709 0.0
H1960 H 0.11131 0.91617 0.8847 0.0
H1961 H 0.13745 0.88041 0.88339 0.0
H1962 H 0.14042 0.83971 0.84451 0.0
C1963 C 0.22636 0.82061 0.83604 0.0
C1964 C 0.19864 0.84927 0.86536 0.0
C1965 C 0.24887 0.81307 0.83148 0.0
C1966 C 0.11571 0.90879 0.87486 0.0
C1967 C 0.13075 0.88839 0.87412 0.0
C1968 C 0.15648 0.84241 0.8505 0.0
C1969 C 0.22115 0.82121 0.84993 0.0
C1970 C 0.19838 0.83235 0.85469 0.0
C1971 C 0.13794 0.87911 0.86151 0.0
C1972 C 0.15733 0.86065 0.86047 0.0
H1973 H 0.27457 0.80007 0.86192 0.0
H1974 H 0.23514 0.81332 0.8699 0.0
H1975 H 0.17591 0.81511 0.83955 0.0
H1976 H 0.10785 0.91855 0.8411 0.0
H1977 H 0.13402 0.88321 0.83982 0.0
C1978 C 0.24458 0.82121 0.134 0.0
C1979 C 0.24117 0.81039 0.14674 0.0
C1980 C 0.26671 0.83164 0.13061 0.0
C1981 C 0.31841 0.85963 0.14735 0.0
H1982 H 0.34681 0.85962 0.11157 0.0
C1983 C 0.40268 0.91539 0.13759 0.0
C1984 C 0.40195 0.93044 0.12612 0.0
C1985 C 0.38657 0.89608 0.13899 0.0
C1986 C 0.33905 0.85982 0.12161 0.0
H1987 H 0.25873 0.80063 0.16554 0.0
H1988 H 0.29728 0.81852 0.15957 0.0
H1989 H 0.31148 0.83429 0.11614 0.0
H1990 H 0.38496 0.93604 0.10667 0.0
H1991 H 0.35626 0.90269 0.10927 0.0
H1992 H 0.34516 0.88563 0.15279 0.0
C1993 C 0.28275 0.81944 0.15231 0.0
C1994 C 0.31884 0.84534 0.12422 0.0
C1995 C 0.26066 0.80913 0.15572 0.0
C1996 C 0.38592 0.92473 0.11563 0.0
C1997 C 0.36952 0.90556 0.11711 0.0
C1998 C 0.33846 0.87408 0.14475 0.0
C1999 C 0.28585 0.83137 0.13987 0.0
C2000 C 0.30822 0.84525 0.13711 0.0
C2001 C 0.36908 0.89163 0.12905 0.0
C2002 C 0.34896 0.87452 0.13184 0.0
H2003 H 0.22993 0.82241 0.12684 0.0
H2004 H 0.26847 0.84085 0.12098 0.0
H2005 H 0.31037 0.86045 0.15731 0.0
H2006 H 0.41512 0.91912 0.14575 0.0
H2007 H 0.38717 0.88527 0.14814 0.0
C2008 C 0.71147 0.83438 0.6244 0.0
C2009 C 0.73 0.83093 0.61494 0.0
C2010 C 0.6911 0.84797 0.62106 0.0
C2011 C 0.65584 0.8725 0.59255 0.0
H2012 H 0.63688 0.92193 0.61848 0.0
C2013 C 0.59133 0.95155 0.57913 0.0
C2014 C 0.57589 0.96052 0.58921 0.0
C2015 C 0.60834 0.93359 0.58214 0.0
C2016 C 0.64158 0.90795 0.61121 0.0
H2017 H 0.7412 0.83833 0.59435 0.0
H2018 H 0.70553 0.86205 0.58851 0.0
H2019 H 0.66966 0.89428 0.62386 0.0
H2020 H 0.56546 0.95682 0.61022 0.0
H2021 H 0.59468 0.92509 0.61539 0.0
H2022 H 0.62775 0.88619 0.57988 0.0
C2023 C 0.7068 0.85416 0.59851 0.0
C2024 C 0.66045 0.89213 0.6143 0.0
C2025 C 0.72728 0.84068 0.60189 0.0
C2026 C 0.57723 0.95047 0.60224 0.0
C2027 C 0.59411 0.93238 0.60523 0.0
C2028 C 0.63681 0.88824 0.58949 0.0
C2029 C 0.68869 0.85831 0.60814 0.0
C2030 C 0.66792 0.87434 0.60498 0.0
C2031 C 0.6102 0.92402 0.59528 0.0
C2032 C 0.62955 0.90631 0.59875 0.0
H2033 H 0.71289 0.82704 0.63453 0.0
H2034 H 0.67729 0.85057 0.62863 0.0
H2035 H 0.66103 0.8588 0.58523 0.0
H2036 H 0.59082 0.95893 0.56898 0.0
H2037 H 0.62057 0.92785 0.57425 0.0
C2038 C 0.9058 0.94578 0.41265 0.0
C2039 C 0.91324 0.96148 0.40222 0.0
C2040 C 0.88919 0.92721 0.41011 0.0
C2041 C 0.86003 0.89161 0.38278 0.0
H2042 H 0.8074 0.88672 0.4083 0.0
C2043 C 0.77088 0.84337 0.36985 0.0
C2044 C 0.75935 0.82983 0.38002 0.0
C2045 C 0.79121 0.85734 0.3728 0.0
C2046 C 0.82214 0.88753 0.40118 0.0
H2047 H 0.9098 0.96929 0.38082 0.0
H2048 H 0.88076 0.93702 0.37642 0.0
H2049 H 0.8407 0.91423 0.41298 0.0
H2050 H 0.76041 0.82005 0.40124 0.0
H2051 H 0.79603 0.84425 0.40637 0.0
H2052 H 0.84127 0.86512 0.37089 0.0
C2053 C 0.88787 0.93895 0.38655 0.0
C2054 C 0.84126 0.90332 0.40386 0.0
C2055 C 0.90445 0.95755 0.38909 0.0
C2056 C 0.76878 0.83037 0.39319 0.0
C2057 C 0.78915 0.84433 0.39614 0.0
C2058 C 0.84092 0.87577 0.38011 0.0
C2059 C 0.87968 0.92388 0.39708 0.0
C2060 C 0.8603 0.90575 0.39463 0.0
C2061 C 0.80053 0.85808 0.38599 0.0
C2062 C 0.8216 0.87376 0.3892 0.0
H2063 H 0.91231 0.94821 0.42287 0.0
H2064 H 0.88352 0.91567 0.4184 0.0
H2065 H 0.87459 0.89282 0.37555 0.0
H2066 H 0.76408 0.84341 0.3596 0.0
H2067 H 0.7993 0.86798 0.36478 0.0
C2068 C 0.77873 0.15455 0.09947 0.0
C2069 C 0.77408 0.16182 0.11283 0.0
C2070 C 0.79992 0.14209 0.09627 0.0
C2071 C 0.84388 0.1016 0.112 0.0
H2072 H 0.8808 0.11215 0.07931 0.0
C2073 C 0.92417 0.03997 0.09939 0.0
C2074 C 0.92545 0.03172 0.08598 0.0
C2075 C 0.90903 0.05934 0.10286 0.0
C2076 C 0.8706 0.10888 0.08845 0.0
H2077 H 0.78859 0.16269 0.1332 0.0
H2078 H 0.82538 0.14096 0.12759 0.0
H2079 H 0.8476 0.13958 0.08482 0.0
H2080 H 0.91273 0.03816 0.06556 0.0
H2081 H 0.88598 0.07138 0.07164 0.0
H2082 H 0.86604 0.07045 0.11545 0.0
C2083 C 0.81255 0.14466 0.11962 0.0
C2084 C 0.85162 0.12462 0.0916 0.0
C2085 C 0.79148 0.15719 0.12281 0.0
C2086 C 0.91217 0.04403 0.076 0.0
C2087 C 0.8969 0.06324 0.07949 0.0
C2088 C 0.86269 0.08579 0.10882 0.0
C2089 C 0.81679 0.13656 0.10638 0.0
C2090 C 0.83793 0.12099 0.10335 0.0
C2091 C 0.89468 0.07076 0.09301 0.0
C2092 C 0.87614 0.08903 0.09693 0.0
H2093 H 0.76574 0.15789 0.09154 0.0
H2094 H 0.80263 0.13593 0.08598 0.0
H2095 H 0.83343 0.09809 0.12103 0.0
H2096 H 0.93435 0.03104 0.10729 0.0
H2097 H 0.90818 0.065 0.11333 0.0
C2098 C 0.59348 0.04394 0.88775 0.0
C2099 C 0.58717 0.03885 0.90121 0.0
C2100 C 0.6108 0.06162 0.8848 0.0
C2101 C 0.66336 0.09164 0.89968 0.0
H2102 H 0.65708 0.1359 0.86933 0.0
C2103 C 0.73796 0.1609 0.88638 0.0
C2104 C 0.7435 0.16341 0.8726 0.0
C2105 C 0.71739 0.1482 0.89046 0.0
C2106 C 0.65921 0.12353 0.87778 0.0
H2107 H 0.59368 0.04885 0.92211 0.0
H2108 H 0.62395 0.07967 0.91692 0.0
H2109 H 0.6237 0.10913 0.8753 0.0
H2110 H 0.73147 0.15491 0.85228 0.0
H2111 H 0.69601 0.13247 0.85937 0.0
H2112 H 0.69904 0.10545 0.90196 0.0
C2113 C 0.6156 0.06983 0.90867 0.0
C2114 C 0.64005 0.10823 0.8812 0.0
C2115 C 0.59816 0.05226 0.91163 0.0
C2116 C 0.72774 0.15339 0.86299 0.0
C2117 C 0.70727 0.14062 0.86706 0.0
C2118 C 0.68256 0.10683 0.89621 0.0
C2119 C 0.62231 0.07451 0.89523 0.0
C2120 C 0.64201 0.09193 0.8921 0.0
C2121 C 0.70192 0.13766 0.88085 0.0
C2122 C 0.68085 0.12278 0.88511 0.0
H2123 H 0.58536 0.03397 0.87949 0.0
H2124 H 0.61574 0.06464 0.87434 0.0
H2125 H 0.66555 0.07906 0.90802 0.0
H2126 H 0.74964 0.16852 0.89405 0.0
H2127 H 0.71364 0.1466 0.90116 0.0
C2128 C 0.75286 0.68469 0.83266 0.0
C2129 C 0.73503 0.68508 0.84271 0.0
C2130 C 0.77552 0.67506 0.83538 0.0
C2131 C 0.81691 0.65529 0.86254 0.0
H2132 H 0.83848 0.60932 0.83536 0.0
C2133 C 0.88822 0.58026 0.87215 0.0
C2134 C 0.9024 0.57261 0.8612 0.0
C2135 C 0.87068 0.59826 0.87036 0.0
C2136 C 0.83309 0.62246 0.84295 0.0
H2137 H 0.72742 0.67679 0.8637 0.0
H2138 H 0.76704 0.65961 0.86841 0.0
H2139 H 0.80241 0.63296 0.83143 0.0
H2140 H 0.91095 0.57933 0.84015 0.0
H2141 H 0.881 0.6112 0.83715 0.0
H2142 H 0.84755 0.64432 0.87417 0.0
C2143 C 0.76348 0.66695 0.85845 0.0
C2144 C 0.81232 0.63599 0.8407 0.0
C2145 C 0.74074 0.67665 0.85573 0.0
C2146 C 0.90001 0.58457 0.84873 0.0
C2147 C 0.88274 0.60274 0.84699 0.0
C2148 C 0.83786 0.64175 0.86479 0.0
C2149 C 0.7809 0.66553 0.8482 0.0
C2150 C 0.80386 0.65243 0.85049 0.0
C2151 C 0.86721 0.6091 0.85763 0.0
C2152 C 0.84609 0.62503 0.85504 0.0
H2153 H 0.74916 0.69132 0.82256 0.0
H2154 H 0.78872 0.67461 0.82734 0.0
H2155 H 0.8109 0.66796 0.87023 0.0
H2156 H 0.88966 0.57136 0.88188 0.0
H2157 H 0.85898 0.60262 0.87876 0.0
C2158 C 0.75115 0.67945 0.13812 0.0
C2159 C 0.75475 0.68868 0.15121 0.0
C2160 C 0.72928 0.6686 0.1346 0.0
C2161 C 0.6807 0.63529 0.15094 0.0
H2162 H 0.64886 0.63939 0.11618 0.0
C2163 C 0.59973 0.57508 0.14066 0.0
C2164 C 0.59978 0.56272 0.12825 0.0
C2165 C 0.61464 0.59519 0.14269 0.0
C2166 C 0.65761 0.63799 0.12591 0.0
H2167 H 0.73765 0.69532 0.17058 0.0
H2168 H 0.6996 0.67655 0.16442 0.0
H2169 H 0.68306 0.66611 0.12106 0.0
H2170 H 0.61421 0.56255 0.10793 0.0
H2171 H 0.64105 0.59715 0.1116 0.0
H2172 H 0.65632 0.60665 0.1557 0.0
C2173 C 0.7138 0.67729 0.15695 0.0
C2174 C 0.67714 0.65331 0.1287 0.0
C2175 C 0.7356 0.68808 0.16046 0.0
C2176 C 0.61382 0.57181 0.1176 0.0
C2177 C 0.62914 0.5917 0.11971 0.0
C2178 C 0.66141 0.61995 0.14814 0.0
C2179 C 0.71064 0.6668 0.14413 0.0
C2180 C 0.68895 0.65198 0.14124 0.0
C2181 C 0.63037 0.60303 0.13245 0.0
C2182 C 0.64966 0.62096 0.13557 0.0
H2183 H 0.76552 0.67973 0.13074 0.0
H2184 H 0.72741 0.66055 0.12466 0.0
H2185 H 0.68974 0.63342 0.16057 0.0
H2186 H 0.58877 0.56866 0.14898 0.0
H2187 H 0.61455 0.60395 0.1525 0.0
C2188 C 0.77006 0.3194 0.35161 0.0
C2189 C 0.77465 0.31181 0.33829 0.0
C2190 C 0.74713 0.32736 0.35535 0.0
C2191 C 0.69433 0.35531 0.3398 0.0
H2192 H 0.66455 0.34555 0.37481 0.0
C2193 C 0.60794 0.40522 0.35164 0.0
C2194 C 0.60779 0.41773 0.364 0.0
C2195 C 0.62428 0.3864 0.34937 0.0
C2196 C 0.67267 0.34845 0.365 0.0
H2197 H 0.75842 0.30507 0.31871 0.0
H2198 H 0.71851 0.31865 0.32527 0.0
H2199 H 0.70159 0.32366 0.36916 0.0
H2200 H 0.62316 0.41923 0.38408 0.0
H2201 H 0.65245 0.38688 0.37998 0.0
H2202 H 0.66635 0.38068 0.33572 0.0
C2203 C 0.73271 0.31898 0.33275 0.0
C2204 C 0.69386 0.33593 0.36177 0.0
C2205 C 0.75559 0.31116 0.329 0.0
C2206 C 0.6229 0.40978 0.37446 0.0
C2207 C 0.63965 0.39121 0.3721 0.0
C2208 C 0.67334 0.3678 0.34302 0.0
C2209 C 0.72836 0.32779 0.34586 0.0
C2210 C 0.705 0.33941 0.34916 0.0
C2211 C 0.64125 0.38012 0.3593 0.0
C2212 C 0.66229 0.36472 0.35568 0.0
H2213 H 0.78436 0.32002 0.35902 0.0
H2214 H 0.7444 0.3342 0.3655 0.0
H2215 H 0.70272 0.35887 0.33013 0.0
H2216 H 0.59621 0.41082 0.34348 0.0
H2217 H 0.6245 0.37771 0.33955 0.0
C2218 C 0.8911 0.40769 0.60853 0.0
C2219 C 0.90144 0.41519 0.6208 0.0
C2220 C 0.87482 0.38822 0.60827 0.0
C2221 C 0.84922 0.33769 0.62898 0.0
H2222 H 0.78863 0.35841 0.61348 0.0
C2223 C 0.75834 0.31096 0.65123 0.0
C2224 C 0.7383 0.30807 0.64276 0.0
C2225 C 0.78055 0.31775 0.64589 0.0
C2226 C 0.80548 0.35194 0.61759 0.0
H2227 H 0.90458 0.40689 0.64214 0.0
H2228 H 0.87641 0.37311 0.6417 0.0
H2229 H 0.82503 0.3811 0.60839 0.0
H2230 H 0.72614 0.30891 0.62194 0.0
H2231 H 0.76504 0.32082 0.61261 0.0
H2232 H 0.82938 0.30924 0.63873 0.0
C2233 C 0.88071 0.38214 0.63227 0.0
C2234 C 0.82641 0.36496 0.61465 0.0
C2235 C 0.89672 0.40168 0.63255 0.0
C2236 C 0.74119 0.31116 0.62875 0.0
C2237 C 0.76345 0.31803 0.6234 0.0
C2238 C 0.8283 0.32466 0.63191 0.0
C2239 C 0.8689 0.37575 0.62024 0.0
C2240 C 0.84831 0.35858 0.62076 0.0
C2241 C 0.78327 0.32181 0.63195 0.0
C2242 C 0.80604 0.33226 0.62669 0.0
H2243 H 0.89444 0.41775 0.5993 0.0
H2244 H 0.86614 0.38355 0.59883 0.0
H2245 H 0.86592 0.33211 0.63365 0.0
H2246 H 0.75677 0.30863 0.66206 0.0
H2247 H 0.79532 0.32086 0.65279 0.0
C2248 C 0.08677 0.44504 0.08135 0.0
C2249 C 0.07465 0.4576 0.0917 0.0
C2250 C 0.1034 0.42675 0.08447 0.0
C2251 C 0.12367 0.38533 0.11169 0.0
H2252 H 0.18617 0.3914 0.09473 0.0
C2253 C 0.20867 0.34335 0.13487 0.0
C2254 C 0.22691 0.33449 0.12637 0.0
C2255 C 0.18861 0.35514 0.12952 0.0
C2256 C 0.16872 0.38907 0.09938 0.0
H2257 H 0.06972 0.46006 0.1134 0.0
H2258 H 0.09858 0.42811 0.11881 0.0
H2259 H 0.15323 0.41743 0.08732 0.0
H2260 H 0.23798 0.33047 0.10548 0.0
H2261 H 0.20268 0.35082 0.09608 0.0
H2262 H 0.13917 0.3572 0.12387 0.0
C2263 C 0.09523 0.43237 0.10829 0.0
C2264 C 0.14983 0.40404 0.09514 0.0
C2265 C 0.07878 0.45078 0.10519 0.0
C2266 C 0.22431 0.33719 0.11232 0.0
C2267 C 0.20414 0.34896 0.10694 0.0
C2268 C 0.1425 0.37026 0.11587 0.0
C2269 C 0.10807 0.42047 0.09798 0.0
C2270 C 0.12725 0.40269 0.10145 0.0
C2271 C 0.18614 0.3583 0.11549 0.0
C2272 C 0.16542 0.37232 0.10999 0.0
H2273 H 0.08399 0.44984 0.07086 0.0
H2274 H 0.11286 0.41773 0.07631 0.0
H2275 H 0.10636 0.38361 0.11659 0.0
H2276 H 0.21007 0.34165 0.14575 0.0
H2277 H 0.17537 0.36244 0.13644 0.0
C2278 C 0.4081 0.46039 0.88919 0.0
C2279 C 0.41545 0.46504 0.90253 0.0
C2280 C 0.39261 0.44096 0.88634 0.0
C2281 C 0.34583 0.40403 0.90245 0.0
H2282 H 0.35146 0.36389 0.87035 0.0
C2283 C 0.27573 0.32984 0.8902 0.0
C2284 C 0.26801 0.32868 0.8767 0.0
C2285 C 0.29598 0.34355 0.89372 0.0
C2286 C 0.34954 0.37505 0.87931 0.0
H2287 H 0.41307 0.45231 0.92325 0.0
H2288 H 0.38612 0.41845 0.91824 0.0
H2289 H 0.38298 0.39332 0.87572 0.0
H2290 H 0.27597 0.34046 0.85625 0.0
H2291 H 0.31086 0.36466 0.8624 0.0
H2292 H 0.31212 0.38644 0.90587 0.0
C2293 C 0.39211 0.42999 0.91002 0.0
C2294 C 0.36762 0.39188 0.88239 0.0
C2295 C 0.40765 0.44933 0.91287 0.0
C2296 C 0.28141 0.34093 0.86675 0.0
C2297 C 0.30156 0.35471 0.87027 0.0
C2298 C 0.32771 0.38733 0.89934 0.0
C2299 C 0.38409 0.42584 0.89676 0.0
C2300 C 0.36583 0.40674 0.89392 0.0
C2301 C 0.30892 0.35648 0.88383 0.0
C2302 C 0.32918 0.37282 0.88765 0.0
H2303 H 0.41379 0.47211 0.88099 0.0
H2304 H 0.38661 0.43837 0.87603 0.0
H2305 H 0.34373 0.41547 0.9113 0.0
H2306 H 0.26592 0.32048 0.8981 0.0
H2307 H 0.30137 0.34418 0.90422 0.0
C2308 C 0.40419 0.54265 0.57876 0.0
C2309 C 0.41484 0.52913 0.58924 0.0
C2310 C 0.38676 0.56028 0.58161 0.0
C2311 C 0.36185 0.59852 0.60904 0.0
H2312 H 0.30381 0.59733 0.5874 0.0
C2313 C 0.27433 0.64528 0.62616 0.0
C2314 C 0.25965 0.65634 0.61636 0.0
C2315 C 0.29453 0.63185 0.62235 0.0
C2316 C 0.32004 0.59823 0.59341 0.0
H2317 H 0.41601 0.52405 0.61096 0.0
H2318 H 0.3856 0.55475 0.61591 0.0
H2319 H 0.33707 0.57038 0.58166 0.0
H2320 H 0.25505 0.66242 0.59487 0.0
H2321 H 0.29055 0.63923 0.58821 0.0
H2322 H 0.34477 0.62622 0.62086 0.0
C2323 C 0.39082 0.55182 0.6055 0.0
C2324 C 0.33911 0.58274 0.59012 0.0
C2325 C 0.40816 0.53412 0.60265 0.0
C2326 C 0.2659 0.65402 0.60267 0.0
C2327 C 0.28618 0.64062 0.59885 0.0
C2328 C 0.34282 0.61408 0.6123 0.0
C2329 C 0.37969 0.56488 0.595 0.0
C2330 C 0.36011 0.58249 0.598 0.0
C2331 C 0.30065 0.62921 0.60864 0.0
C2332 C 0.32155 0.6139 0.60463 0.0
H2333 H 0.40898 0.53933 0.56831 0.0
H2334 H 0.37874 0.57025 0.57331 0.0
H2335 H 0.37795 0.59902 0.61518 0.0
H2336 H 0.27003 0.64663 0.6368 0.0
H2337 H 0.30502 0.62302 0.63015 0.0
C2338 C 0.09548 0.55278 0.40996 0.0
C2339 C 0.0851 0.53808 0.39988 0.0
C2340 C 0.11448 0.5685 0.40687 0.0
C2341 C 0.14378 0.60048 0.37852 0.0
H2342 H 0.19878 0.60294 0.40252 0.0
C2343 C 0.23249 0.6472 0.36324 0.0
C2344 C 0.24525 0.66021 0.37316 0.0
C2345 C 0.21244 0.63323 0.36672 0.0
C2346 C 0.18342 0.60276 0.3958 0.0
H2347 H 0.08644 0.52858 0.37862 0.0
H2348 H 0.1196 0.55601 0.37325 0.0
H2349 H 0.16467 0.57696 0.40816 0.0
H2350 H 0.2467 0.66894 0.39452 0.0
H2351 H 0.21145 0.64484 0.40056 0.0
H2352 H 0.16245 0.62629 0.36617 0.0
C2353 C 0.11292 0.55547 0.38352 0.0
C2354 C 0.16389 0.58783 0.39903 0.0
C2355 C 0.09401 0.53965 0.38662 0.0
C2356 C 0.23735 0.65906 0.38664 0.0
C2357 C 0.21721 0.64513 0.39011 0.0
C2358 C 0.16327 0.61549 0.37532 0.0
C2359 C 0.12345 0.56999 0.39363 0.0
C2360 C 0.14391 0.5864 0.39038 0.0
C2361 C 0.20455 0.63197 0.38019 0.0
C2362 C 0.18342 0.61669 0.38387 0.0
H2363 H 0.08904 0.55206 0.42027 0.0
H2364 H 0.12203 0.57965 0.41485 0.0
H2365 H 0.1285 0.60007 0.37176 0.0
H2366 H 0.23812 0.64758 0.35277 0.0
H2367 H 0.20339 0.62304 0.35885 0.0
loop_
_geom_bond_atom_site_label_1
_geom_bond_atom_site_label_2
_geom_bond_distance
_geom_bond_site_symmetry_2
_ccdc_geom_bond_type
Zn0 O3 2.031 . S
Zn0 O5 2.049 . S
Zn0 O10 2.067 . S
Zn1 O2 1.962 . S
Zn1 O4 1.986 . S
Zn1 O6 1.996 . S
Zn1 O9 1.943 . S
O2 Zn1 1.962 . S
O2 C7 1.254 . S
O3 Zn0 2.031 . S
O3 C7 1.269 . S
O4 Zn1 1.986 . S
O4 C11 1.262 . S
O5 Zn0 2.049 . S
O5 C13 1.260 . S
O6 Zn1 1.996 . S
O6 C13 1.257 . S
C7 O2 1.254 . S
C7 O3 1.269 . S
C8 O9 1.249 . S
C8 O10 1.270 . S
O9 Zn1 1.943 . S
O9 C8 1.249 . S
O10 Zn0 2.067 . S
O10 C8 1.270 . S
C11 O4 1.262 . S
C11 O12 1.232 . S
O12 C11 1.232 . S
C13 O5 1.260 . S
C13 O6 1.257 . S
Zn14 O17 2.031 . S
Zn14 O19 2.049 . S
Zn14 O24 2.067 . S
Zn15 O16 1.962 . S
Zn15 O18 1.986 . S
Zn15 O20 1.996 . S
Zn15 O23 1.943 . S
O16 Zn15 1.962 . S
O16 C21 1.254 . S
O17 Zn14 2.031 . S
O17 C21 1.269 . S
O18 Zn15 1.986 . S
O18 C25 1.262 . S
O19 Zn14 2.049 . S
O19 C27 1.260 1_565 S
O20 Zn15 1.996 . S
O20 C27 1.257 1_565 S
C21 O16 1.254 . S
C21 O17 1.269 . S
C22 O23 1.249 . S
C22 O24 1.270 . S
O23 Zn15 1.943 . S
O23 C22 1.249 . S
O24 Zn14 2.067 . S
O24 C22 1.270 . S
C25 O18 1.262 . S
C25 O26 1.232 . S
O26 C25 1.232 . S
C27 O19 1.260 1_545 S
C27 O20 1.257 1_545 S
Zn28 O31 2.031 . S
Zn28 O33 2.049 . S
Zn28 O38 2.067 . S
Zn29 O30 1.962 . S
Zn29 O32 1.986 . S
Zn29 O34 1.996 . S
Zn29 O37 1.943 . S
O30 Zn29 1.962 . S
O30 C35 1.254 . S
O31 Zn28 2.031 . S
O31 C35 1.269 . S
O32 Zn29 1.986 . S
O32 C39 1.262 . S
O33 Zn28 2.049 . S
O33 C41 1.260 . S
O34 Zn29 1.996 . S
O34 C41 1.257 . S
C35 O30 1.254 . S
C35 O31 1.269 . S
C36 O37 1.249 . S
C36 O38 1.270 . S
O37 Zn29 1.943 . S
O37 C36 1.249 . S
O38 Zn28 2.067 . S
O38 C36 1.270 . S
C39 O32 1.262 . S
C39 O40 1.232 . S
O40 C39 1.232 . S
C41 O33 1.260 . S
C41 O34 1.257 . S
Zn42 O45 2.031 . S
Zn42 O47 2.049 . S
Zn42 O52 2.067 . S
Zn43 O44 1.962 . S
Zn43 O46 1.986 . S
Zn43 O48 1.996 . S
Zn43 O51 1.943 . S
O44 Zn43 1.962 . S
O44 C49 1.254 . S
O45 Zn42 2.031 . S
O45 C49 1.269 . S
O46 Zn43 1.986 . S
O46 C53 1.262 . S
O47 Zn42 2.049 . S
O47 C55 1.260 1_545 S
O48 Zn43 1.996 . S
O48 C55 1.257 1_545 S
C49 O44 1.254 . S
C49 O45 1.269 . S
C50 O51 1.249 . S
C50 O52 1.270 . S
O51 Zn43 1.943 . S
O51 C50 1.249 . S
O52 Zn42 2.067 . S
O52 C50 1.270 . S
C53 O46 1.262 . S
C53 O54 1.232 . S
O54 C53 1.232 . S
C55 O47 1.260 1_565 S
C55 O48 1.257 1_565 S
Zn56 O59 2.031 . S
Zn56 O61 2.049 . S
Zn56 O66 2.067 . S
Zn57 O58 1.962 . S
Zn57 O60 1.986 . S
Zn57 O62 1.996 . S
Zn57 O65 1.943 . S
O58 Zn57 1.962 . S
O58 C63 1.254 . S
O59 Zn56 2.031 . S
O59 C63 1.269 . S
O60 Zn57 1.986 . S
O60 C67 1.262 . S
O61 Zn56 2.049 . S
O61 C69 1.260 . S
O62 Zn57 1.996 . S
O62 C69 1.257 . S
C63 O58 1.254 . S
C63 O59 1.269 . S
C64 O65 1.249 . S
C64 O66 1.270 . S
O65 Zn57 1.943 . S
O65 C64 1.249 . S
O66 Zn56 2.067 . S
O66 C64 1.270 . S
C67 O60 1.262 . S
C67 O68 1.232 . S
O68 C67 1.232 . S
C69 O61 1.260 . S
C69 O62 1.257 . S
Zn70 O73 2.031 . S
Zn70 O75 2.049 . S
Zn70 O80 2.067 . S
Zn71 O72 1.962 . S
Zn71 O74 1.986 . S
Zn71 O76 1.996 . S
Zn71 O79 1.943 . S
O72 Zn71 1.962 . S
O72 C77 1.254 . S
O73 Zn70 2.031 . S
O73 C77 1.269 . S
O74 Zn71 1.986 . S
O74 C81 1.262 . S
O75 Zn70 2.049 . S
O75 C83 1.260 1_565 S
O76 Zn71 1.996 . S
O76 C83 1.257 1_565 S
C77 O72 1.254 . S
C77 O73 1.269 . S
C78 O79 1.249 . S
C78 O80 1.270 . S
O79 Zn71 1.943 . S
O79 C78 1.249 . S
O80 Zn70 2.067 . S
O80 C78 1.270 . S
C81 O74 1.262 . S
C81 O82 1.232 . S
O82 C81 1.232 . S
C83 O75 1.260 1_545 S
C83 O76 1.257 1_545 S
Zn84 O87 2.031 . S
Zn84 O89 2.049 . S
Zn84 O94 2.067 . S
Zn85 O86 1.962 . S
Zn85 O88 1.986 . S
Zn85 O90 1.996 . S
Zn85 O93 1.943 . S
O86 Zn85 1.962 . S
O86 C91 1.254 . S
O87 Zn84 2.031 . S
O87 C91 1.269 . S
O88 Zn85 1.986 . S
O88 C95 1.262 . S
O89 Zn84 2.049 . S
O89 C97 1.260 . S
O90 Zn85 1.996 . S
O90 C97 1.257 . S
C91 O86 1.254 . S
C91 O87 1.269 . S
C92 O93 1.249 . S
C92 O94 1.270 . S
O93 Zn85 1.943 . S
O93 C92 1.249 . S
O94 Zn84 2.067 . S
O94 C92 1.270 . S
C95 O88 1.262 . S
C95 O96 1.232 . S
O96 C95 1.232 . S
C97 O89 1.260 . S
C97 O90 1.257 . S
Zn98 O101 2.031 . S
Zn98 O103 2.049 . S
Zn98 O108 2.067 . S
Zn99 O100 1.962 . S
Zn99 O102 1.986 . S
Zn99 O104 1.996 . S
Zn99 O107 1.943 . S
O100 Zn99 1.962 . S
O100 C105 1.254 . S
O101 Zn98 2.031 . S
O101 C105 1.269 . S
O102 Zn99 1.986 . S
O102 C109 1.262 . S
O103 Zn98 2.049 . S
O103 C111 1.260 1_545 S
O104 Zn99 1.996 . S
O104 C111 1.257 1_545 S
C105 O100 1.254 . S
C105 O101 1.269 . S
C106 O107 1.249 . S
C106 O108 1.270 . S
O107 Zn99 1.943 . S
O107 C106 1.249 . S
O108 Zn98 2.067 . S
O108 C106 1.270 . S
C109 O102 1.262 . S
C109 O110 1.232 . S
O110 C109 1.232 . S
C111 O103 1.260 1_565 S
C111 O104 1.257 1_565 S
Zn112 O115 2.031 . S
Zn112 O117 2.049 . S
Zn112 O122 2.067 . S
Zn113 O114 1.962 . S
Zn113 O116 1.986 . S
Zn113 O118 1.996 . S
Zn113 O121 1.943 . S
O114 Zn113 1.962 . S
O114 C119 1.254 . S
O115 Zn112 2.031 . S
O115 C119 1.269 . S
O116 Zn113 1.986 . S
O116 C123 1.262 . S
O117 Zn112 2.049 . S
O117 C125 1.260 . S
O118 Zn113 1.996 . S
O118 C125 1.257 . S
C119 O114 1.254 . S
C119 O115 1.269 . S
C120 O121 1.249 . S
C120 O122 1.270 . S
O121 Zn113 1.943 . S
O121 C120 1.249 . S
O122 Zn112 2.067 . S
O122 C120 1.270 . S
C123 O116 1.262 . S
C123 O124 1.232 . S
O124 C123 1.232 . S
C125 O117 1.260 . S
C125 O118 1.257 . S
Zn126 O129 2.031 . S
Zn126 O131 2.049 . S
Zn126 O136 2.067 . S
Zn127 O128 1.962 . S
Zn127 O130 1.986 1_545 S
Zn127 O132 1.996 . S
Zn127 O135 1.943 . S
O128 Zn127 1.962 . S
O128 C133 1.254 . S
O129 Zn126 2.031 . S
O129 C133 1.269 . S
O130 Zn127 1.986 1_565 S
O130 C137 1.262 . S
O131 Zn126 2.049 . S
O131 C139 1.260 . S
O132 Zn127 1.996 . S
O132 C139 1.257 . S
C133 O128 1.254 . S
C133 O129 1.269 . S
C134 O135 1.249 . S
C134 O136 1.270 . S
O135 Zn127 1.943 . S
O135 C134 1.249 . S
O136 Zn126 2.067 . S
O136 C134 1.270 . S
C137 O130 1.262 . S
C137 O138 1.232 1_565 S
O138 C137 1.232 1_545 S
C139 O131 1.260 . S
C139 O132 1.257 . S
Zn140 O143 2.031 . S
Zn140 O145 2.049 . S
Zn140 O150 2.067 . S
Zn141 O142 1.962 . S
Zn141 O144 1.986 . S
Zn141 O146 1.996 . S
Zn141 O149 1.943 . S
O142 Zn141 1.962 . S
O142 C147 1.254 . S
O143 Zn140 2.031 . S
O143 C147 1.269 . S
O144 Zn141 1.986 . S
O144 C151 1.262 . S
O145 Zn140 2.049 . S
O145 C153 1.260 . S
O146 Zn141 1.996 . S
O146 C153 1.257 . S
C147 O142 1.254 . S
C147 O143 1.269 . S
C148 O149 1.249 . S
C148 O150 1.270 . S
O149 Zn141 1.943 . S
O149 C148 1.249 . S
O150 Zn140 2.067 . S
O150 C148 1.270 . S
C151 O144 1.262 . S
C151 O152 1.232 . S
O152 C151 1.232 . S
C153 O145 1.260 . S
C153 O146 1.257 . S
Zn154 O157 2.031 . S
Zn154 O159 2.049 . S
Zn154 O164 2.067 . S
Zn155 O156 1.962 . S
Zn155 O158 1.986 1_565 S
Zn155 O160 1.996 . S
Zn155 O163 1.943 . S
O156 Zn155 1.962 . S
O156 C161 1.254 . S
O157 Zn154 2.031 . S
O157 C161 1.269 . S
O158 Zn155 1.986 1_545 S
O158 C165 1.262 . S
O159 Zn154 2.049 . S
O159 C167 1.260 . S
O160 Zn155 1.996 . S
O160 C167 1.257 . S
C161 O156 1.254 . S
C161 O157 1.269 . S
C162 O163 1.249 . S
C162 O164 1.270 . S
O163 Zn155 1.943 . S
O163 C162 1.249 . S
O164 Zn154 2.067 . S
O164 C162 1.270 . S
C165 O158 1.262 . S
C165 O166 1.232 1_545 S
O166 C165 1.232 1_565 S
C167 O159 1.260 . S
C167 O160 1.257 . S
Zn168 O171 2.031 . S
Zn168 O173 2.049 . S
Zn168 O178 2.067 . S
Zn169 O170 1.962 . S
Zn169 O172 1.986 . S
Zn169 O174 1.996 . S
Zn169 O177 1.943 . S
O170 Zn169 1.962 . S
O170 C175 1.254 . S
O171 Zn168 2.031 . S
O171 C175 1.269 . S
O172 Zn169 1.986 . S
O172 C179 1.262 . S
O173 Zn168 2.049 . S
O173 C181 1.260 . S
O174 Zn169 1.996 . S
O174 C181 1.257 . S
C175 O170 1.254 . S
C175 O171 1.269 . S
C176 O177 1.249 . S
C176 O178 1.270 . S
O177 Zn169 1.943 . S
O177 C176 1.249 . S
O178 Zn168 2.067 . S
O178 C176 1.270 . S
C179 O172 1.262 . S
C179 O180 1.232 . S
O180 C179 1.232 . S
C181 O173 1.260 . S
C181 O174 1.257 . S
Zn182 O185 2.031 . S
Zn182 O187 2.049 . S
Zn182 O192 2.067 . S
Zn183 O184 1.962 . S
Zn183 O186 1.986 1_545 S
Zn183 O188 1.996 . S
Zn183 O191 1.943 . S
O184 Zn183 1.962 . S
O184 C189 1.254 . S
O185 Zn182 2.031 . S
O185 C189 1.269 . S
O186 Zn183 1.986 1_565 S
O186 C193 1.262 . S
O187 Zn182 2.049 . S
O187 C195 1.260 . S
O188 Zn183 1.996 . S
O188 C195 1.257 . S
C189 O184 1.254 . S
C189 O185 1.269 . S
C190 O191 1.249 . S
C190 O192 1.270 . S
O191 Zn183 1.943 . S
O191 C190 1.249 . S
O192 Zn182 2.067 . S
O192 C190 1.270 . S
C193 O186 1.262 . S
C193 O194 1.232 1_565 S
O194 C193 1.232 1_545 S
C195 O187 1.260 . S
C195 O188 1.257 . S
Zn196 O199 2.031 . S
Zn196 O201 2.049 . S
Zn196 O206 2.067 . S
Zn197 O198 1.962 . S
Zn197 O200 1.986 . S
Zn197 O202 1.996 . S
Zn197 O205 1.943 . S
O198 Zn197 1.962 . S
O198 C203 1.254 . S
O199 Zn196 2.031 . S
O199 C203 1.269 . S
O200 Zn197 1.986 . S
O200 C207 1.262 . S
O201 Zn196 2.049 . S
O201 C209 1.260 . S
O202 Zn197 1.996 . S
O202 C209 1.257 . S
C203 O198 1.254 . S
C203 O199 1.269 . S
C204 O205 1.249 . S
C204 O206 1.270 . S
O205 Zn197 1.943 . S
O205 C204 1.249 . S
O206 Zn196 2.067 . S
O206 C204 1.270 . S
C207 O200 1.262 . S
C207 O208 1.232 . S
O208 C207 1.232 . S
C209 O201 1.260 . S
C209 O202 1.257 . S
Zn210 O213 2.031 . S
Zn210 O215 2.049 . S
Zn210 O220 2.067 . S
Zn211 O212 1.962 . S
Zn211 O214 1.986 1_565 S
Zn211 O216 1.996 . S
Zn211 O219 1.943 . S
O212 Zn211 1.962 . S
O212 C217 1.254 . S
O213 Zn210 2.031 . S
O213 C217 1.269 . S
O214 Zn211 1.986 1_545 S
O214 C221 1.262 . S
O215 Zn210 2.049 . S
O215 C223 1.260 . S
O216 Zn211 1.996 . S
O216 C223 1.257 . S
C217 O212 1.254 . S
C217 O213 1.269 . S
C218 O219 1.249 . S
C218 O220 1.270 . S
O219 Zn211 1.943 . S
O219 C218 1.249 . S
O220 Zn210 2.067 . S
O220 C218 1.270 . S
C221 O214 1.262 . S
C221 O222 1.232 1_545 S
O222 C221 1.232 1_565 S
C223 O215 1.260 . S
C223 O216 1.257 . S
Zn224 O227 2.031 . S
Zn224 O229 2.049 . S
Zn224 O234 2.067 . S
Zn225 O226 1.962 . S
Zn225 O228 1.986 . S
Zn225 O230 1.996 . S
Zn225 O233 1.943 . S
O226 Zn225 1.962 . S
O226 C231 1.254 . S
O227 Zn224 2.031 . S
O227 C231 1.269 . S
O228 Zn225 1.986 . S
O228 C235 1.262 . S
O229 Zn224 2.049 . S
O229 C237 1.260 . S
O230 Zn225 1.996 . S
O230 C237 1.257 . S
C231 O226 1.254 . S
C231 O227 1.269 . S
C232 O233 1.249 . S
C232 O234 1.270 . S
O233 Zn225 1.943 . S
O233 C232 1.249 . S
O234 Zn224 2.067 . S
O234 C232 1.270 . S
C235 O228 1.262 . S
C235 O236 1.232 . S
O236 C235 1.232 . S
C237 O229 1.260 . S
C237 O230 1.257 . S
Zn238 O241 2.031 . S
Zn238 O243 2.049 . S
Zn238 O248 2.067 . S
Zn239 O240 1.962 . S
Zn239 O242 1.986 . S
Zn239 O244 1.996 . S
Zn239 O247 1.943 . S
O240 Zn239 1.962 . S
O240 C245 1.254 . S
O241 Zn238 2.031 . S
O241 C245 1.269 . S
O242 Zn239 1.986 . S
O242 C249 1.262 . S
O243 Zn238 2.049 . S
O243 C251 1.260 . S
O244 Zn239 1.996 . S
O244 C251 1.257 . S
C245 O240 1.254 . S
C245 O241 1.269 . S
C246 O247 1.249 . S
C246 O248 1.270 . S
O247 Zn239 1.943 . S
O247 C246 1.249 . S
O248 Zn238 2.067 . S
O248 C246 1.270 . S
C249 O242 1.262 . S
C249 O250 1.232 . S
O250 C249 1.232 . S
C251 O243 1.260 . S
C251 O244 1.257 . S
Zn252 O255 2.031 . S
Zn252 O257 2.049 . S
Zn252 O262 2.067 . S
Zn253 O254 1.962 . S
Zn253 O256 1.986 . S
Zn253 O258 1.996 . S
Zn253 O261 1.943 . S
O254 Zn253 1.962 . S
O254 C259 1.254 . S
O255 Zn252 2.031 . S
O255 C259 1.269 . S
O256 Zn253 1.986 . S
O256 C263 1.262 . S
O257 Zn252 2.049 . S
O257 C265 1.260 . S
O258 Zn253 1.996 . S
O258 C265 1.257 . S
C259 O254 1.254 . S
C259 O255 1.269 . S
C260 O261 1.249 . S
C260 O262 1.270 . S
O261 Zn253 1.943 . S
O261 C260 1.249 . S
O262 Zn252 2.067 . S
O262 C260 1.270 . S
C263 O256 1.262 . S
C263 O264 1.232 . S
O264 C263 1.232 . S
C265 O257 1.260 . S
C265 O258 1.257 . S
Zn266 O269 2.031 . S
Zn266 O271 2.049 . S
Zn266 O276 2.067 . S
Zn267 O268 1.962 . S
Zn267 O270 1.986 . S
Zn267 O272 1.996 . S
Zn267 O275 1.943 . S
O268 Zn267 1.962 . S
O268 C273 1.254 . S
O269 Zn266 2.031 . S
O269 C273 1.269 . S
O270 Zn267 1.986 . S
O270 C277 1.262 . S
O271 Zn266 2.049 . S
O271 C279 1.260 . S
O272 Zn267 1.996 . S
O272 C279 1.257 . S
C273 O268 1.254 . S
C273 O269 1.269 . S
C274 O275 1.249 . S
C274 O276 1.270 . S
O275 Zn267 1.943 . S
O275 C274 1.249 . S
O276 Zn266 2.067 . S
O276 C274 1.270 . S
C277 O270 1.262 . S
C277 O278 1.232 . S
O278 C277 1.232 . S
C279 O271 1.260 . S
C279 O272 1.257 . S
Zn280 O283 2.031 . S
Zn280 O285 2.049 . S
Zn280 O290 2.067 . S
Zn281 O282 1.962 . S
Zn281 O284 1.986 . S
Zn281 O286 1.996 . S
Zn281 O289 1.943 . S
O282 Zn281 1.962 . S
O282 C287 1.254 . S
O283 Zn280 2.031 . S
O283 C287 1.269 . S
O284 Zn281 1.986 . S
O284 C291 1.262 . S
O285 Zn280 2.049 . S
O285 C293 1.260 . S
O286 Zn281 1.996 . S
O286 C293 1.257 . S
C287 O282 1.254 . S
C287 O283 1.269 . S
C288 O289 1.249 . S
C288 O290 1.270 . S
O289 Zn281 1.943 . S
O289 C288 1.249 . S
O290 Zn280 2.067 . S
O290 C288 1.270 . S
C291 O284 1.262 . S
C291 O292 1.232 . S
O292 C291 1.232 . S
C293 O285 1.260 . S
C293 O286 1.257 . S
Zn294 O297 2.031 . S
Zn294 O299 2.049 . S
Zn294 O304 2.067 . S
Zn295 O296 1.962 . S
Zn295 O298 1.986 . S
Zn295 O300 1.996 . S
Zn295 O303 1.943 . S
O296 Zn295 1.962 . S
O296 C301 1.254 . S
O297 Zn294 2.031 . S
O297 C301 1.269 . S
O298 Zn295 1.986 . S
O298 C305 1.262 . S
O299 Zn294 2.049 . S
O299 C307 1.260 . S
O300 Zn295 1.996 . S
O300 C307 1.257 . S
C301 O296 1.254 . S
C301 O297 1.269 . S
C302 O303 1.249 . S
C302 O304 1.270 . S
O303 Zn295 1.943 . S
O303 C302 1.249 . S
O304 Zn294 2.067 . S
O304 C302 1.270 . S
C305 O298 1.262 . S
C305 O306 1.232 . S
O306 C305 1.232 . S
C307 O299 1.260 . S
C307 O300 1.257 . S
Zn308 O311 2.031 . S
Zn308 O313 2.049 . S
Zn308 O318 2.067 . S
Zn309 O310 1.962 . S
Zn309 O312 1.986 . S
Zn309 O314 1.996 . S
Zn309 O317 1.943 . S
O310 Zn309 1.962 . S
O310 C315 1.254 . S
O311 Zn308 2.031 . S
O311 C315 1.269 . S
O312 Zn309 1.986 . S
O312 C319 1.262 . S
O313 Zn308 2.049 . S
O313 C321 1.260 . S
O314 Zn309 1.996 . S
O314 C321 1.257 . S
C315 O310 1.254 . S
C315 O311 1.269 . S
C316 O317 1.249 . S
C316 O318 1.270 . S
O317 Zn309 1.943 . S
O317 C316 1.249 . S
O318 Zn308 2.067 . S
O318 C316 1.270 . S
C319 O312 1.262 . S
C319 O320 1.232 . S
O320 C319 1.232 . S
C321 O313 1.260 . S
C321 O314 1.257 . S
Zn322 O325 2.031 . S
Zn322 O327 2.049 . S
Zn322 O332 2.067 . S
Zn323 O324 1.962 . S
Zn323 O326 1.986 . S
Zn323 O328 1.996 . S
Zn323 O331 1.943 . S
O324 Zn323 1.962 . S
O324 C329 1.254 . S
O325 Zn322 2.031 . S
O325 C329 1.269 . S
O326 Zn323 1.986 . S
O326 C333 1.262 . S
O327 Zn322 2.049 . S
O327 C335 1.260 . S
O328 Zn323 1.996 . S
O328 C335 1.257 . S
C329 O324 1.254 . S
C329 O325 1.269 . S
C330 O331 1.249 . S
C330 O332 1.270 . S
O331 Zn323 1.943 . S
O331 C330 1.249 . S
O332 Zn322 2.067 . S
O332 C330 1.270 . S
C333 O326 1.262 . S
C333 O334 1.232 . S
O334 C333 1.232 . S
C335 O327 1.260 . S
C335 O328 1.257 . S
Zn336 O339 2.031 . S
Zn336 O341 2.049 . S
Zn336 O346 2.067 . S
Zn337 O338 1.962 . S
Zn337 O340 1.986 . S
Zn337 O342 1.996 . S
Zn337 O345 1.943 . S
O338 Zn337 1.962 . S
O338 C343 1.254 . S
O339 Zn336 2.031 . S
O339 C343 1.269 . S
O340 Zn337 1.986 . S
O340 C347 1.262 . S
O341 Zn336 2.049 . S
O341 C349 1.260 . S
O342 Zn337 1.996 . S
O342 C349 1.257 . S
C343 O338 1.254 . S
C343 O339 1.269 . S
C344 O345 1.249 . S
C344 O346 1.270 . S
O345 Zn337 1.943 . S
O345 C344 1.249 . S
O346 Zn336 2.067 . S
O346 C344 1.270 . S
C347 O340 1.262 . S
C347 O348 1.232 . S
O348 C347 1.232 . S
C349 O341 1.260 . S
C349 O342 1.257 . S
Zn350 O353 2.031 . S
Zn350 O355 2.049 . S
Zn350 O360 2.067 . S
Zn351 O352 1.962 . S
Zn351 O354 1.986 . S
Zn351 O356 1.996 . S
Zn351 O359 1.943 . S
O352 Zn351 1.962 . S
O352 C357 1.254 . S
O353 Zn350 2.031 . S
O353 C357 1.269 . S
O354 Zn351 1.986 . S
O354 C361 1.262 . S
O355 Zn350 2.049 . S
O355 C363 1.260 . S
O356 Zn351 1.996 . S
O356 C363 1.257 . S
C357 O352 1.254 . S
C357 O353 1.269 . S
C358 O359 1.249 . S
C358 O360 1.270 . S
O359 Zn351 1.943 . S
O359 C358 1.249 . S
O360 Zn350 2.067 . S
O360 C358 1.270 . S
C361 O354 1.262 . S
C361 O362 1.232 . S
O362 C361 1.232 . S
C363 O355 1.260 . S
C363 O356 1.257 . S
Zn364 O367 2.031 . S
Zn364 O369 2.049 . S
Zn364 O374 2.067 . S
Zn365 O366 1.962 . S
Zn365 O368 1.986 . S
Zn365 O370 1.996 . S
Zn365 O373 1.943 . S
O366 Zn365 1.962 . S
O366 C371 1.254 . S
O367 Zn364 2.031 . S
O367 C371 1.269 . S
O368 Zn365 1.986 . S
O368 C375 1.262 . S
O369 Zn364 2.049 . S
O369 C377 1.260 . S
O370 Zn365 1.996 . S
O370 C377 1.257 . S
C371 O366 1.254 . S
C371 O367 1.269 . S
C372 O373 1.249 . S
C372 O374 1.270 . S
O373 Zn365 1.943 . S
O373 C372 1.249 . S
O374 Zn364 2.067 . S
O374 C372 1.270 . S
C375 O368 1.262 . S
C375 O376 1.232 . S
O376 C375 1.232 . S
C377 O369 1.260 . S
C377 O370 1.257 . S
Zn378 O381 2.031 . S
Zn378 O383 2.049 . S
Zn378 O388 2.067 . S
Zn379 O380 1.962 . S
Zn379 O382 1.986 . S
Zn379 O384 1.996 . S
Zn379 O387 1.943 . S
O380 Zn379 1.962 . S
O380 C385 1.254 . S
O381 Zn378 2.031 . S
O381 C385 1.269 . S
O382 Zn379 1.986 . S
O382 C389 1.262 . S
O383 Zn378 2.049 . S
O383 C391 1.260 . S
O384 Zn379 1.996 . S
O384 C391 1.257 . S
C385 O380 1.254 . S
C385 O381 1.269 . S
C386 O387 1.249 . S
C386 O388 1.270 . S
O387 Zn379 1.943 . S
O387 C386 1.249 . S
O388 Zn378 2.067 . S
O388 C386 1.270 . S
C389 O382 1.262 . S
C389 O390 1.232 . S
O390 C389 1.232 . S
C391 O383 1.260 . S
C391 O384 1.257 . S
Zn392 O395 2.031 . S
Zn392 O397 2.049 . S
Zn392 O402 2.067 . S
Zn393 O394 1.962 . S
Zn393 O396 1.986 . S
Zn393 O398 1.996 . S
Zn393 O401 1.943 . S
O394 Zn393 1.962 . S
O394 C399 1.254 . S
O395 Zn392 2.031 . S
O395 C399 1.269 . S
O396 Zn393 1.986 . S
O396 C403 1.262 . S
O397 Zn392 2.049 . S
O397 C405 1.260 . S
O398 Zn393 1.996 . S
O398 C405 1.257 . S
C399 O394 1.254 . S
C399 O395 1.269 . S
C400 O401 1.249 . S
C400 O402 1.270 . S
O401 Zn393 1.943 . S
O401 C400 1.249 . S
O402 Zn392 2.067 . S
O402 C400 1.270 . S
C403 O396 1.262 . S
C403 O404 1.232 . S
O404 C403 1.232 . S
C405 O397 1.260 . S
C405 O398 1.257 . S
Zn406 O409 2.031 . S
Zn406 O411 2.049 . S
Zn406 O416 2.067 . S
Zn407 O408 1.962 . S
Zn407 O410 1.986 . S
Zn407 O412 1.996 . S
Zn407 O415 1.943 . S
O408 Zn407 1.962 . S
O408 C413 1.254 . S
O409 Zn406 2.031 . S
O409 C413 1.269 . S
O410 Zn407 1.986 . S
O410 C417 1.262 . S
O411 Zn406 2.049 . S
O411 C419 1.260 . S
O412 Zn407 1.996 . S
O412 C419 1.257 . S
C413 O408 1.254 . S
C413 O409 1.269 . S
C414 O415 1.249 . S
C414 O416 1.270 . S
O415 Zn407 1.943 . S
O415 C414 1.249 . S
O416 Zn406 2.067 . S
O416 C414 1.270 . S
C417 O410 1.262 . S
C417 O418 1.232 . S
O418 C417 1.232 . S
C419 O411 1.260 . S
C419 O412 1.257 . S
Zn420 O423 2.031 . S
Zn420 O425 2.049 . S
Zn420 O430 2.067 . S
Zn421 O422 1.962 . S
Zn421 O424 1.986 . S
Zn421 O426 1.996 . S
Zn421 O429 1.943 . S
O422 Zn421 1.962 . S
O422 C427 1.254 . S
O423 Zn420 2.031 . S
O423 C427 1.269 . S
O424 Zn421 1.986 . S
O424 C431 1.262 . S
O425 Zn420 2.049 . S
O425 C433 1.260 . S
O426 Zn421 1.996 . S
O426 C433 1.257 . S
C427 O422 1.254 . S
C427 O423 1.269 . S
C428 O429 1.249 . S
C428 O430 1.270 . S
O429 Zn421 1.943 . S
O429 C428 1.249 . S
O430 Zn420 2.067 . S
O430 C428 1.270 . S
C431 O424 1.262 . S
C431 O432 1.232 . S
O432 C431 1.232 . S
C433 O425 1.260 . S
C433 O426 1.257 . S
Zn434 O437 2.031 . S
Zn434 O439 2.049 . S
Zn434 O444 2.067 . S
Zn435 O436 1.962 . S
Zn435 O438 1.986 . S
Zn435 O440 1.996 . S
Zn435 O443 1.943 . S
O436 Zn435 1.962 . S
O436 C441 1.254 . S
O437 Zn434 2.031 . S
O437 C441 1.269 . S
O438 Zn435 1.986 . S
O438 C445 1.262 . S
O439 Zn434 2.049 . S
O439 C447 1.260 . S
O440 Zn435 1.996 . S
O440 C447 1.257 . S
C441 O436 1.254 . S
C441 O437 1.269 . S
C442 O443 1.249 . S
C442 O444 1.270 . S
O443 Zn435 1.943 . S
O443 C442 1.249 . S
O444 Zn434 2.067 . S
O444 C442 1.270 . S
C445 O438 1.262 . S
C445 O446 1.232 . S
O446 C445 1.232 . S
C447 O439 1.260 . S
C447 O440 1.257 . S
C448 C449 1.349 . S
C448 C450 1.327 . S
C448 H473 0.950 . S
C449 C448 1.349 . S
C449 C465 1.349 . S
C450 C448 1.327 . S
C450 C469 1.429 . S
C450 H474 0.950 . S
C451 C468 1.574 . S
C451 C470 1.368 . S
C451 H475 0.949 . S
H452 C456 0.949 . S
C453 C454 1.349 . S
C453 C455 1.327 . S
C453 H476 0.950 . S
C454 C453 1.349 . S
C454 C466 1.349 . S
C455 C453 1.327 . S
C455 C471 1.429 . S
C455 H477 0.950 . S
C456 H452 0.949 . S
C456 C464 1.574 . S
C456 C472 1.368 . S
H457 C465 0.950 . S
H458 C463 0.950 . S
H459 C464 0.949 . S
H460 C466 0.950 . S
H461 C467 0.950 . S
H462 C468 0.949 . S
C463 H458 0.950 . S
C463 C465 1.327 . S
C463 C469 1.429 . S
C464 C456 1.574 . S
C464 H459 0.949 . S
C464 C470 1.368 . S
C465 C449 1.349 . S
C465 H457 0.950 . S
C465 C463 1.327 . S
C466 C454 1.349 . S
C466 H460 0.950 . S
C466 C467 1.327 . S
C467 H461 0.950 . S
C467 C466 1.327 . S
C467 C471 1.429 . S
C468 C451 1.574 . S
C468 H462 0.949 . S
C468 C472 1.368 . S
C469 C450 1.429 . S
C469 C463 1.429 . S
C469 C470 1.523 . S
C470 C451 1.368 . S
C470 C464 1.368 . S
C470 C469 1.523 . S
C471 C455 1.429 . S
C471 C467 1.429 . S
C471 C472 1.523 . S
C472 C456 1.368 . S
C472 C468 1.368 . S
C472 C471 1.523 . S
H473 C448 0.950 . S
H474 C450 0.950 . S
H475 C451 0.949 . S
H476 C453 0.950 . S
H477 C455 0.950 . S
C478 C479 1.349 . S
C478 C480 1.327 . S
C478 H503 0.950 1_655 S
C479 C478 1.349 . S
C479 C495 1.349 . S
C480 C478 1.327 . S
C480 C499 1.429 . S
C480 H504 0.950 . S
C481 C498 1.574 . S
C481 C500 1.368 . S
C481 H505 0.949 . S
H482 C486 0.949 . S
C483 C484 1.349 . S
C483 C485 1.327 . S
C483 H506 0.950 . S
C484 C483 1.349 . S
C484 C496 1.349 . S
C485 C483 1.327 . S
C485 C501 1.429 . S
C485 H507 0.950 . S
C486 H482 0.949 . S
C486 C494 1.574 . S
C486 C502 1.368 . S
H487 C495 0.950 . S
H488 C493 0.950 . S
H489 C494 0.949 . S
H490 C496 0.950 . S
H491 C497 0.950 . S
H492 C498 0.949 . S
C493 H488 0.950 . S
C493 C495 1.327 . S
C493 C499 1.429 . S
C494 C486 1.574 . S
C494 H489 0.949 . S
C494 C500 1.368 . S
C495 C479 1.349 . S
C495 H487 0.950 . S
C495 C493 1.327 . S
C496 C484 1.349 . S
C496 H490 0.950 . S
C496 C497 1.327 . S
C497 H491 0.950 . S
C497 C496 1.327 . S
C497 C501 1.429 . S
C498 C481 1.574 . S
C498 H492 0.949 . S
C498 C502 1.368 . S
C499 C480 1.429 . S
C499 C493 1.429 . S
C499 C500 1.523 . S
C500 C481 1.368 . S
C500 C494 1.368 . S
C500 C499 1.523 . S
C501 C485 1.429 . S
C501 C497 1.429 . S
C501 C502 1.523 . S
C502 C486 1.368 . S
C502 C498 1.368 . S
C502 C501 1.523 . S
H503 C478 0.950 1_455 S
H504 C480 0.950 . S
H505 C481 0.949 . S
H506 C483 0.950 . S
H507 C485 0.950 . S
C508 C509 1.349 . S
C508 C510 1.327 . S
C508 H533 0.950 . S
C509 C508 1.349 . S
C509 C525 1.349 . S
C510 C508 1.327 . S
C510 C529 1.429 . S
C510 H534 0.950 . S
C511 C528 1.574 . S
C511 C530 1.368 . S
C511 H535 0.949 . S
H512 C516 0.949 . S
C513 C514 1.349 . S
C513 C515 1.327 . S
C513 H536 0.950 . S
C514 C513 1.349 . S
C514 C526 1.349 . S
C515 C513 1.327 . S
C515 C531 1.429 . S
C515 H537 0.950 . S
C516 H512 0.949 . S
C516 C524 1.574 . S
C516 C532 1.368 . S
H517 C525 0.950 . S
H518 C523 0.950 . S
H519 C524 0.949 . S
H520 C526 0.950 . S
H521 C527 0.950 . S
H522 C528 0.949 . S
C523 H518 0.950 . S
C523 C525 1.327 . S
C523 C529 1.429 . S
C524 C516 1.574 . S
C524 H519 0.949 . S
C524 C530 1.368 . S
C525 C509 1.349 . S
C525 H517 0.950 . S
C525 C523 1.327 . S
C526 C514 1.349 . S
C526 H520 0.950 . S
C526 C527 1.327 . S
C527 H521 0.950 . S
C527 C526 1.327 . S
C527 C531 1.429 . S
C528 C511 1.574 . S
C528 H522 0.949 . S
C528 C532 1.368 . S
C529 C510 1.429 . S
C529 C523 1.429 . S
C529 C530 1.523 . S
C530 C511 1.368 . S
C530 C524 1.368 . S
C530 C529 1.523 . S
C531 C515 1.429 . S
C531 C527 1.429 . S
C531 C532 1.523 . S
C532 C516 1.368 . S
C532 C528 1.368 . S
C532 C531 1.523 . S
H533 C508 0.950 . S
H534 C510 0.950 . S
H535 C511 0.949 . S
H536 C513 0.950 . S
H537 C515 0.950 . S
C538 C539 1.349 . S
C538 C540 1.327 . S
C538 H563 0.950 . S
C539 C538 1.349 . S
C539 C555 1.349 . S
C540 C538 1.327 . S
C540 C559 1.429 . S
C540 H564 0.950 . S
C541 C558 1.574 . S
C541 C560 1.368 . S
C541 H565 0.949 . S
H542 C546 0.949 . S
C543 C544 1.349 . S
C543 C545 1.327 . S
C543 H566 0.950 . S
C544 C543 1.349 . S
C544 C556 1.349 . S
C545 C543 1.327 . S
C545 C561 1.429 . S
C545 H567 0.950 . S
C546 H542 0.949 . S
C546 C554 1.574 . S
C546 C562 1.368 . S
H547 C555 0.950 . S
H548 C553 0.950 . S
H549 C554 0.949 . S
H550 C556 0.950 . S
H551 C557 0.950 . S
H552 C558 0.949 . S
C553 H548 0.950 . S
C553 C555 1.327 . S
C553 C559 1.429 . S
C554 C546 1.574 . S
C554 H549 0.949 . S
C554 C560 1.368 . S
C555 C539 1.349 . S
C555 H547 0.950 . S
C555 C553 1.327 . S
C556 C544 1.349 . S
C556 H550 0.950 . S
C556 C557 1.327 . S
C557 H551 0.950 . S
C557 C556 1.327 . S
C557 C561 1.429 . S
C558 C541 1.574 . S
C558 H552 0.949 . S
C558 C562 1.368 . S
C559 C540 1.429 . S
C559 C553 1.429 . S
C559 C560 1.523 . S
C560 C541 1.368 . S
C560 C554 1.368 . S
C560 C559 1.523 . S
C561 C545 1.429 . S
C561 C557 1.429 . S
C561 C562 1.523 . S
C562 C546 1.368 . S
C562 C558 1.368 . S
C562 C561 1.523 . S
H563 C538 0.950 . S
H564 C540 0.950 . S
H565 C541 0.949 . S
H566 C543 0.950 . S
H567 C545 0.950 . S
C568 C569 1.349 . S
C568 C570 1.327 . S
C568 H593 0.950 . S
C569 C568 1.349 . S
C569 C585 1.349 . S
C570 C568 1.327 . S
C570 C589 1.429 . S
C570 H594 0.950 . S
C571 C588 1.574 . S
C571 C590 1.368 . S
C571 H595 0.949 . S
H572 C576 0.949 . S
C573 C574 1.349 . S
C573 C575 1.327 . S
C573 H596 0.950 . S
C574 C573 1.349 . S
C574 C586 1.349 . S
C575 C573 1.327 . S
C575 C591 1.429 . S
C575 H597 0.950 . S
C576 H572 0.949 . S
C576 C584 1.574 . S
C576 C592 1.368 . S
H577 C585 0.950 . S
H578 C583 0.950 . S
H579 C584 0.949 . S
H580 C586 0.950 . S
H581 C587 0.950 . S
H582 C588 0.949 . S
C583 H578 0.950 . S
C583 C585 1.327 . S
C583 C589 1.429 . S
C584 C576 1.574 . S
C584 H579 0.949 . S
C584 C590 1.368 . S
C585 C569 1.349 . S
C585 H577 0.950 . S
C585 C583 1.327 . S
C586 C574 1.349 . S
C586 H580 0.950 . S
C586 C587 1.327 . S
C587 H581 0.950 . S
C587 C586 1.327 . S
C587 C591 1.429 . S
C588 C571 1.574 . S
C588 H582 0.949 . S
C588 C592 1.368 . S
C589 C570 1.429 . S
C589 C583 1.429 . S
C589 C590 1.523 . S
C590 C571 1.368 . S
C590 C584 1.368 . S
C590 C589 1.523 . S
C591 C575 1.429 . S
C591 C587 1.429 . S
C591 C592 1.523 . S
C592 C576 1.368 . S
C592 C588 1.368 . S
C592 C591 1.523 . S
H593 C568 0.950 . S
H594 C570 0.950 . S
H595 C571 0.949 . S
H596 C573 0.950 . S
H597 C575 0.950 . S
C598 C599 1.349 . S
C598 C600 1.327 . S
C598 H623 0.950 . S
C599 C598 1.349 . S
C599 C615 1.349 . S
C600 C598 1.327 . S
C600 C619 1.429 . S
C600 H624 0.950 . S
C601 C618 1.574 . S
C601 C620 1.368 . S
C601 H625 0.949 . S
H602 C606 0.949 . S
C603 C604 1.349 . S
C603 C605 1.327 . S
C603 H626 0.950 . S
C604 C603 1.349 . S
C604 C616 1.349 . S
C605 C603 1.327 . S
C605 C621 1.429 . S
C605 H627 0.950 . S
C606 H602 0.949 . S
C606 C614 1.574 . S
C606 C622 1.368 . S
H607 C615 0.950 . S
H608 C613 0.950 . S
H609 C614 0.949 . S
H610 C616 0.950 . S
H611 C617 0.950 . S
H612 C618 0.949 . S
C613 H608 0.950 . S
C613 C615 1.327 . S
C613 C619 1.429 . S
C614 C606 1.574 . S
C614 H609 0.949 . S
C614 C620 1.368 . S
C615 C599 1.349 . S
C615 H607 0.950 . S
C615 C613 1.327 . S
C616 C604 1.349 . S
C616 H610 0.950 . S
C616 C617 1.327 . S
C617 H611 0.950 . S
C617 C616 1.327 . S
C617 C621 1.429 . S
C618 C601 1.574 . S
C618 H612 0.949 . S
C618 C622 1.368 . S
C619 C600 1.429 . S
C619 C613 1.429 . S
C619 C620 1.523 . S
C620 C601 1.368 . S
C620 C614 1.368 . S
C620 C619 1.523 . S
C621 C605 1.429 . S
C621 C617 1.429 . S
C621 C622 1.523 . S
C622 C606 1.368 . S
C622 C618 1.368 . S
C622 C621 1.523 . S
H623 C598 0.950 . S
H624 C600 0.950 . S
H625 C601 0.949 . S
H626 C603 0.950 . S
H627 C605 0.950 . S
C628 C629 1.349 . S
C628 C630 1.327 . S
C628 H653 0.950 . S
C629 C628 1.349 . S
C629 C645 1.349 . S
C630 C628 1.327 . S
C630 C649 1.429 . S
C630 H654 0.950 . S
C631 C648 1.574 . S
C631 C650 1.368 . S
C631 H655 0.949 . S
H632 C636 0.949 . S
C633 C634 1.349 . S
C633 C635 1.327 . S
C633 H656 0.950 . S
C634 C633 1.349 . S
C634 C646 1.349 . S
C635 C633 1.327 . S
C635 C651 1.429 . S
C635 H657 0.950 . S
C636 H632 0.949 . S
C636 C644 1.574 . S
C636 C652 1.368 . S
H637 C645 0.950 . S
H638 C643 0.950 . S
H639 C644 0.949 . S
H640 C646 0.950 . S
H641 C647 0.950 . S
H642 C648 0.949 . S
C643 H638 0.950 . S
C643 C645 1.327 . S
C643 C649 1.429 . S
C644 C636 1.574 . S
C644 H639 0.949 . S
C644 C650 1.368 . S
C645 C629 1.349 . S
C645 H637 0.950 . S
C645 C643 1.327 . S
C646 C634 1.349 . S
C646 H640 0.950 . S
C646 C647 1.327 . S
C647 H641 0.950 . S
C647 C646 1.327 . S
C647 C651 1.429 . S
C648 C631 1.574 . S
C648 H642 0.949 . S
C648 C652 1.368 . S
C649 C630 1.429 . S
C649 C643 1.429 . S
C649 C650 1.523 . S
C650 C631 1.368 . S
C650 C644 1.368 . S
C650 C649 1.523 . S
C651 C635 1.429 . S
C651 C647 1.429 . S
C651 C652 1.523 . S
C652 C636 1.368 . S
C652 C648 1.368 . S
C652 C651 1.523 . S
H653 C628 0.950 . S
H654 C630 0.950 . S
H655 C631 0.949 . S
H656 C633 0.950 . S
H657 C635 0.950 . S
C658 C659 1.349 . S
C658 C660 1.327 . S
C658 H683 0.950 . S
C659 C658 1.349 . S
C659 C675 1.349 . S
C660 C658 1.327 . S
C660 C679 1.429 . S
C660 H684 0.950 . S
C661 C678 1.574 . S
C661 C680 1.368 . S
C661 H685 0.949 . S
H662 C666 0.949 . S
C663 C664 1.349 . S
C663 C665 1.327 . S
C663 H686 0.950 . S
C664 C663 1.349 . S
C664 C676 1.349 . S
C665 C663 1.327 . S
C665 C681 1.429 . S
C665 H687 0.950 . S
C666 H662 0.949 . S
C666 C674 1.574 . S
C666 C682 1.368 . S
H667 C675 0.950 1_455 S
H668 C673 0.950 . S
H669 C674 0.949 . S
H670 C676 0.950 . S
H671 C677 0.950 . S
H672 C678 0.949 . S
C673 H668 0.950 . S
C673 C675 1.327 . S
C673 C679 1.429 . S
C674 C666 1.574 . S
C674 H669 0.949 . S
C674 C680 1.368 . S
C675 C659 1.349 . S
C675 H667 0.950 1_655 S
C675 C673 1.327 . S
C676 C664 1.349 . S
C676 H670 0.950 . S
C676 C677 1.327 . S
C677 H671 0.950 . S
C677 C676 1.327 . S
C677 C681 1.429 . S
C678 C661 1.574 . S
C678 H672 0.949 . S
C678 C682 1.368 . S
C679 C660 1.429 . S
C679 C673 1.429 . S
C679 C680 1.523 . S
C680 C661 1.368 . S
C680 C674 1.368 . S
C680 C679 1.523 . S
C681 C665 1.429 . S
C681 C677 1.429 . S
C681 C682 1.523 . S
C682 C666 1.368 . S
C682 C678 1.368 . S
C682 C681 1.523 . S
H683 C658 0.950 . S
H684 C660 0.950 . S
H685 C661 0.949 . S
H686 C663 0.950 . S
H687 C665 0.950 . S
C688 C689 1.349 . S
C688 C690 1.327 . S
C688 H713 0.950 . S
C689 C688 1.349 . S
C689 C705 1.349 . S
C690 C688 1.327 . S
C690 C709 1.429 . S
C690 H714 0.950 . S
C691 C708 1.574 . S
C691 C710 1.368 . S
C691 H715 0.949 . S
H692 C696 0.949 . S
C693 C694 1.349 . S
C693 C695 1.327 . S
C693 H716 0.950 . S
C694 C693 1.349 . S
C694 C706 1.349 . S
C695 C693 1.327 . S
C695 C711 1.429 . S
C695 H717 0.950 . S
C696 H692 0.949 . S
C696 C704 1.574 . S
C696 C712 1.368 . S
H697 C705 0.950 . S
H698 C703 0.950 . S
H699 C704 0.949 . S
H700 C706 0.950 . S
H701 C707 0.950 . S
H702 C708 0.949 . S
C703 H698 0.950 . S
C703 C705 1.327 . S
C703 C709 1.429 . S
C704 C696 1.574 . S
C704 H699 0.949 . S
C704 C710 1.368 . S
C705 C689 1.349 . S
C705 H697 0.950 . S
C705 C703 1.327 . S
C706 C694 1.349 . S
C706 H700 0.950 . S
C706 C707 1.327 . S
C707 H701 0.950 . S
C707 C706 1.327 . S
C707 C711 1.429 . S
C708 C691 1.574 . S
C708 H702 0.949 . S
C708 C712 1.368 . S
C709 C690 1.429 . S
C709 C703 1.429 . S
C709 C710 1.523 . S
C710 C691 1.368 . S
C710 C704 1.368 . S
C710 C709 1.523 . S
C711 C695 1.429 . S
C711 C707 1.429 . S
C711 C712 1.523 . S
C712 C696 1.368 . S
C712 C708 1.368 . S
C712 C711 1.523 . S
H713 C688 0.950 . S
H714 C690 0.950 . S
H715 C691 0.949 . S
H716 C693 0.950 . S
H717 C695 0.950 . S
C718 C719 1.349 . S
C718 C720 1.327 . S
C718 H743 0.950 . S
C719 C718 1.349 . S
C719 C735 1.349 . S
C720 C718 1.327 . S
C720 C739 1.429 . S
C720 H744 0.950 . S
C721 C738 1.574 . S
C721 C740 1.368 . S
C721 H745 0.949 . S
H722 C726 0.949 . S
C723 C724 1.331 1_455 S
C723 C725 1.327 . S
C723 H746 0.950 . S
C724 C723 1.331 1_655 S
C724 C736 1.339 1_655 S
C725 C723 1.327 . S
C725 C741 1.429 . S
C725 H747 0.950 . S
C726 H722 0.949 . S
C726 C734 1.574 . S
C726 C742 1.368 . S
H727 C735 0.950 . S
H728 C733 0.950 . S
H729 C734 0.949 . S
H730 C736 0.950 1_655 S
H731 C737 0.950 . S
H732 C738 0.949 . S
C733 H728 0.950 . S
C733 C735 1.327 . S
C733 C739 1.429 . S
C734 C726 1.574 . S
C734 H729 0.949 . S
C734 C740 1.368 . S
C735 C719 1.349 . S
C735 H727 0.950 . S
C735 C733 1.327 . S
C736 C724 1.339 1_455 S
C736 H730 0.950 1_455 S
C736 C737 1.327 . S
C737 H731 0.950 . S
C737 C736 1.327 . S
C737 C741 1.429 . S
C738 C721 1.574 . S
C738 H732 0.949 . S
C738 C742 1.368 . S
C739 C720 1.429 . S
C739 C733 1.429 . S
C739 C740 1.523 . S
C740 C721 1.368 . S
C740 C734 1.368 . S
C740 C739 1.523 . S
C741 C725 1.429 . S
C741 C737 1.429 . S
C741 C742 1.523 . S
C742 C726 1.368 . S
C742 C738 1.368 . S
C742 C741 1.523 . S
H743 C718 0.950 . S
H744 C720 0.950 . S
H745 C721 0.949 . S
H746 C723 0.950 . S
H747 C725 0.950 . S
C748 C749 1.349 . S
C748 C750 1.327 . S
C748 H773 0.950 . S
C749 C748 1.349 . S
C749 C765 1.349 . S
C750 C748 1.327 . S
C750 C769 1.429 . S
C750 H774 0.950 . S
C751 C768 1.574 . S
C751 C770 1.368 . S
C751 H775 0.949 . S
H752 C756 0.949 . S
C753 C754 1.349 . S
C753 C755 1.327 . S
C753 H776 0.950 . S
C754 C753 1.349 . S
C754 C766 1.349 . S
C755 C753 1.327 . S
C755 C771 1.429 . S
C755 H777 0.950 . S
C756 H752 0.949 . S
C756 C764 1.574 . S
C756 C772 1.368 . S
H757 C765 0.950 . S
H758 C763 0.950 . S
H759 C764 0.949 . S
H760 C766 0.950 . S
H761 C767 0.950 . S
H762 C768 0.949 . S
C763 H758 0.950 . S
C763 C765 1.327 . S
C763 C769 1.429 . S
C764 C756 1.574 . S
C764 H759 0.949 . S
C764 C770 1.368 . S
C765 C749 1.349 . S
C765 H757 0.950 . S
C765 C763 1.327 . S
C766 C754 1.349 . S
C766 H760 0.950 . S
C766 C767 1.327 . S
C767 H761 0.950 . S
C767 C766 1.327 . S
C767 C771 1.429 . S
C768 C751 1.574 . S
C768 H762 0.949 . S
C768 C772 1.368 . S
C769 C750 1.429 . S
C769 C763 1.429 . S
C769 C770 1.523 . S
C770 C751 1.368 . S
C770 C764 1.368 . S
C770 C769 1.523 . S
C771 C755 1.429 . S
C771 C767 1.429 . S
C771 C772 1.523 . S
C772 C756 1.368 . S
C772 C768 1.368 . S
C772 C771 1.523 . S
H773 C748 0.950 . S
H774 C750 0.950 . S
H775 C751 0.949 . S
H776 C753 0.950 . S
H777 C755 0.950 . S
C778 C779 1.349 . S
C778 C780 1.327 . S
C778 H803 0.950 . S
C779 C778 1.349 . S
C779 C795 1.349 . S
C780 C778 1.327 . S
C780 C799 1.429 . S
C780 H804 0.950 . S
C781 C798 1.574 . S
C781 C800 1.368 . S
C781 H805 0.949 . S
H782 C786 0.949 . S
C783 C784 1.349 . S
C783 C785 1.327 . S
C783 H806 0.950 . S
C784 C783 1.349 . S
C784 C796 1.349 . S
C785 C783 1.327 . S
C785 C801 1.429 . S
C785 H807 0.950 . S
C786 H782 0.949 . S
C786 C794 1.574 . S
C786 C802 1.368 . S
H787 C795 0.950 . S
H788 C793 0.950 . S
H789 C794 0.949 . S
H790 C796 0.950 . S
H791 C797 0.950 . S
H792 C798 0.949 . S
C793 H788 0.950 . S
C793 C795 1.327 . S
C793 C799 1.429 . S
C794 C786 1.574 . S
C794 H789 0.949 . S
C794 C800 1.368 . S
C795 C779 1.349 . S
C795 H787 0.950 . S
C795 C793 1.327 . S
C796 C784 1.349 . S
C796 H790 0.950 . S
C796 C797 1.327 . S
C797 H791 0.950 . S
C797 C796 1.327 . S
C797 C801 1.429 . S
C798 C781 1.574 . S
C798 H792 0.949 . S
C798 C802 1.368 . S
C799 C780 1.429 . S
C799 C793 1.429 . S
C799 C800 1.523 . S
C800 C781 1.368 . S
C800 C794 1.368 . S
C800 C799 1.523 . S
C801 C785 1.429 . S
C801 C797 1.429 . S
C801 C802 1.523 . S
C802 C786 1.368 . S
C802 C798 1.368 . S
C802 C801 1.523 . S
H803 C778 0.950 . S
H804 C780 0.950 . S
H805 C781 0.949 . S
H806 C783 0.950 . S
H807 C785 0.950 . S
C808 C809 1.349 . S
C808 C810 1.327 . S
C808 H833 0.950 . S
C809 C808 1.349 . S
C809 C825 1.349 . S
C810 C808 1.327 . S
C810 C829 1.429 . S
C810 H834 0.950 . S
C811 C828 1.574 . S
C811 C830 1.368 . S
C811 H835 0.949 . S
H812 C816 0.949 . S
C813 C814 1.349 . S
C813 C815 1.327 . S
C813 H836 0.950 . S
C814 C813 1.349 . S
C814 C826 1.349 . S
C815 C813 1.327 . S
C815 C831 1.429 . S
C815 H837 0.950 . S
C816 H812 0.949 . S
C816 C824 1.574 . S
C816 C832 1.368 . S
H817 C825 0.950 . S
H818 C823 0.950 . S
H819 C824 0.949 . S
H820 C826 0.950 . S
H821 C827 0.950 . S
H822 C828 0.949 . S
C823 H818 0.950 . S
C823 C825 1.327 . S
C823 C829 1.429 . S
C824 C816 1.574 . S
C824 H819 0.949 . S
C824 C830 1.368 . S
C825 C809 1.349 . S
C825 H817 0.950 . S
C825 C823 1.327 . S
C826 C814 1.349 . S
C826 H820 0.950 . S
C826 C827 1.327 . S
C827 H821 0.950 . S
C827 C826 1.327 . S
C827 C831 1.429 . S
C828 C811 1.574 . S
C828 H822 0.949 . S
C828 C832 1.368 . S
C829 C810 1.429 . S
C829 C823 1.429 . S
C829 C830 1.523 . S
C830 C811 1.368 . S
C830 C824 1.368 . S
C830 C829 1.523 . S
C831 C815 1.429 . S
C831 C827 1.429 . S
C831 C832 1.523 . S
C832 C816 1.368 . S
C832 C828 1.368 . S
C832 C831 1.523 . S
H833 C808 0.950 . S
H834 C810 0.950 . S
H835 C811 0.949 . S
H836 C813 0.950 . S
H837 C815 0.950 . S
C838 C839 1.349 . S
C838 C840 1.327 . S
C838 H863 0.950 . S
C839 C838 1.349 . S
C839 C855 1.349 . S
C840 C838 1.327 . S
C840 C859 1.429 . S
C840 H864 0.950 . S
C841 C858 1.574 . S
C841 C860 1.368 . S
C841 H865 0.949 . S
H842 C846 0.949 . S
C843 C844 1.349 . S
C843 C845 1.327 . S
C843 H866 0.950 . S
C844 C843 1.349 . S
C844 C856 1.349 . S
C845 C843 1.327 . S
C845 C861 1.429 . S
C845 H867 0.950 . S
C846 H842 0.949 . S
C846 C854 1.574 . S
C846 C862 1.368 . S
H847 C855 0.950 . S
H848 C853 0.950 . S
H849 C854 0.949 . S
H850 C856 0.950 . S
H851 C857 0.950 . S
H852 C858 0.949 . S
C853 H848 0.950 . S
C853 C855 1.327 . S
C853 C859 1.429 . S
C854 C846 1.574 . S
C854 H849 0.949 . S
C854 C860 1.368 . S
C855 C839 1.349 . S
C855 H847 0.950 . S
C855 C853 1.327 . S
C856 C844 1.349 . S
C856 H850 0.950 . S
C856 C857 1.327 . S
C857 H851 0.950 . S
C857 C856 1.327 . S
C857 C861 1.429 . S
C858 C841 1.574 . S
C858 H852 0.949 . S
C858 C862 1.368 . S
C859 C840 1.429 . S
C859 C853 1.429 . S
C859 C860 1.523 . S
C860 C841 1.368 . S
C860 C854 1.368 . S
C860 C859 1.523 . S
C861 C845 1.429 . S
C861 C857 1.429 . S
C861 C862 1.523 . S
C862 C846 1.368 . S
C862 C858 1.368 . S
C862 C861 1.523 . S
H863 C838 0.950 . S
H864 C840 0.950 . S
H865 C841 0.949 . S
H866 C843 0.950 . S
H867 C845 0.950 . S
C868 C869 1.349 . S
C868 C870 1.327 . S
C868 H893 0.950 . S
C869 C868 1.349 . S
C869 C885 1.349 . S
C870 C868 1.327 . S
C870 C889 1.429 . S
C870 H894 0.950 . S
C871 C888 1.574 . S
C871 C890 1.368 . S
C871 H895 0.949 . S
H872 C876 0.949 . S
C873 C874 1.349 . S
C873 C875 1.327 . S
C873 H896 0.950 . S
C874 C873 1.349 . S
C874 C886 1.349 . S
C875 C873 1.327 . S
C875 C891 1.429 . S
C875 H897 0.950 . S
C876 H872 0.949 . S
C876 C884 1.574 . S
C876 C892 1.368 . S
H877 C885 0.950 . S
H878 C883 0.950 . S
H879 C884 0.949 . S
H880 C886 0.950 . S
H881 C887 0.950 . S
H882 C888 0.949 . S
C883 H878 0.950 . S
C883 C885 1.327 . S
C883 C889 1.429 . S
C884 C876 1.574 . S
C884 H879 0.949 . S
C884 C890 1.368 . S
C885 C869 1.349 . S
C885 H877 0.950 . S
C885 C883 1.327 . S
C886 C874 1.349 . S
C886 H880 0.950 . S
C886 C887 1.327 . S
C887 H881 0.950 . S
C887 C886 1.327 . S
C887 C891 1.429 . S
C888 C871 1.574 . S
C888 H882 0.949 . S
C888 C892 1.368 . S
C889 C870 1.429 . S
C889 C883 1.429 . S
C889 C890 1.523 . S
C890 C871 1.368 . S
C890 C884 1.368 . S
C890 C889 1.523 . S
C891 C875 1.429 . S
C891 C887 1.429 . S
C891 C892 1.523 . S
C892 C876 1.368 . S
C892 C888 1.368 . S
C892 C891 1.523 . S
H893 C868 0.950 . S
H894 C870 0.950 . S
H895 C871 0.949 . S
H896 C873 0.950 . S
H897 C875 0.950 . S
C898 C899 1.349 . S
C898 C900 1.327 . S
C898 H923 0.950 . S
C899 C898 1.349 . S
C899 C915 1.349 . S
C900 C898 1.327 . S
C900 C919 1.429 . S
C900 H924 0.950 . S
C901 C918 1.574 . S
C901 C920 1.368 . S
C901 H925 0.949 . S
H902 C906 0.949 . S
C903 C904 1.340 1_455 S
C903 C905 1.327 . S
C903 H926 0.950 1_455 S
C904 C903 1.340 1_655 S
C904 C916 1.330 1_655 S
C905 C903 1.327 . S
C905 C921 1.429 . S
C905 H927 0.950 . S
C906 H902 0.949 . S
C906 C914 1.574 . S
C906 C922 1.368 . S
H907 C915 0.950 . S
H908 C913 0.950 . S
H909 C914 0.949 . S
H910 C916 0.950 . S
H911 C917 0.950 . S
H912 C918 0.949 . S
C913 H908 0.950 . S
C913 C915 1.327 . S
C913 C919 1.429 . S
C914 C906 1.574 . S
C914 H909 0.949 . S
C914 C920 1.368 . S
C915 C899 1.349 . S
C915 H907 0.950 . S
C915 C913 1.327 . S
C916 C904 1.330 1_455 S
C916 H910 0.950 . S
C916 C917 1.327 . S
C917 H911 0.950 . S
C917 C916 1.327 . S
C917 C921 1.429 . S
C918 C901 1.574 . S
C918 H912 0.949 . S
C918 C922 1.368 . S
C919 C900 1.429 . S
C919 C913 1.429 . S
C919 C920 1.523 . S
C920 C901 1.368 . S
C920 C914 1.368 . S
C920 C919 1.523 . S
C921 C905 1.429 . S
C921 C917 1.429 . S
C921 C922 1.523 . S
C922 C906 1.368 . S
C922 C918 1.368 . S
C922 C921 1.523 . S
H923 C898 0.950 . S
H924 C900 0.950 . S
H925 C901 0.949 . S
H926 C903 0.950 1_655 S
H927 C905 0.950 . S
C928 C929 1.349 . S
C928 C930 1.327 . S
C928 H953 0.950 . S
C929 C928 1.349 . S
C929 C945 1.349 . S
C930 C928 1.327 . S
C930 C949 1.429 . S
C930 H954 0.950 . S
C931 C948 1.574 . S
C931 C950 1.368 . S
C931 H955 0.949 . S
H932 C936 0.949 . S
C933 C934 1.349 . S
C933 C935 1.327 . S
C933 H956 0.950 . S
C934 C933 1.349 . S
C934 C946 1.349 . S
C935 C933 1.327 . S
C935 C951 1.429 . S
C935 H957 0.950 . S
C936 H932 0.949 . S
C936 C944 1.574 . S
C936 C952 1.368 . S
H937 C945 0.950 . S
H938 C943 0.950 . S
H939 C944 0.949 . S
H940 C946 0.950 . S
H941 C947 0.950 . S
H942 C948 0.949 . S
C943 H938 0.950 . S
C943 C945 1.327 . S
C943 C949 1.429 . S
C944 C936 1.574 . S
C944 H939 0.949 . S
C944 C950 1.368 . S
C945 C929 1.349 . S
C945 H937 0.950 . S
C945 C943 1.327 . S
C946 C934 1.349 . S
C946 H940 0.950 . S
C946 C947 1.327 . S
C947 H941 0.950 . S
C947 C946 1.327 . S
C947 C951 1.429 . S
C948 C931 1.574 . S
C948 H942 0.949 . S
C948 C952 1.368 . S
C949 C930 1.429 . S
C949 C943 1.429 . S
C949 C950 1.523 . S
C950 C931 1.368 . S
C950 C944 1.368 . S
C950 C949 1.523 . S
C951 C935 1.429 . S
C951 C947 1.429 . S
C951 C952 1.523 . S
C952 C936 1.368 . S
C952 C948 1.368 . S
C952 C951 1.523 . S
H953 C928 0.950 . S
H954 C930 0.950 . S
H955 C931 0.949 . S
H956 C933 0.950 . S
H957 C935 0.950 . S
C958 C959 1.349 . S
C958 C960 1.327 . S
C958 H983 0.950 . S
C959 C958 1.349 . S
C959 C975 1.349 . S
C960 C958 1.327 . S
C960 C979 1.429 . S
C960 H984 0.950 . S
C961 C978 1.574 . S
C961 C980 1.368 . S
C961 H985 0.949 . S
H962 C966 0.949 . S
C963 C964 1.349 . S
C963 C965 1.327 . S
C963 H986 0.950 . S
C964 C963 1.349 . S
C964 C976 1.349 . S
C965 C963 1.327 . S
C965 C981 1.429 . S
C965 H987 0.950 . S
C966 H962 0.949 . S
C966 C974 1.574 . S
C966 C982 1.368 . S
H967 C975 0.950 . S
H968 C973 0.950 . S
H969 C974 0.949 . S
H970 C976 0.950 . S
H971 C977 0.950 . S
H972 C978 0.949 . S
C973 H968 0.950 . S
C973 C975 1.327 . S
C973 C979 1.429 . S
C974 C966 1.574 . S
C974 H969 0.949 . S
C974 C980 1.368 . S
C975 C959 1.349 . S
C975 H967 0.950 . S
C975 C973 1.327 . S
C976 C964 1.349 . S
C976 H970 0.950 . S
C976 C977 1.327 . S
C977 H971 0.950 . S
C977 C976 1.327 . S
C977 C981 1.429 . S
C978 C961 1.574 . S
C978 H972 0.949 . S
C978 C982 1.368 . S
C979 C960 1.429 . S
C979 C973 1.429 . S
C979 C980 1.523 . S
C980 C961 1.368 . S
C980 C974 1.368 . S
C980 C979 1.523 . S
C981 C965 1.429 . S
C981 C977 1.429 . S
C981 C982 1.523 . S
C982 C966 1.368 . S
C982 C978 1.368 . S
C982 C981 1.523 . S
H983 C958 0.950 . S
H984 C960 0.950 . S
H985 C961 0.949 . S
H986 C963 0.950 . S
H987 C965 0.950 . S
C988 C989 1.349 . S
C988 C990 1.327 . S
C988 H1013 0.950 . S
C989 C988 1.349 . S
C989 C1005 1.349 . S
C990 C988 1.327 . S
C990 C1009 1.429 . S
C990 H1014 0.950 . S
C991 C1008 1.574 . S
C991 C1010 1.368 . S
C991 H1015 0.949 . S
H992 C996 0.949 . S
C993 C994 1.349 . S
C993 C995 1.327 . S
C993 H1016 0.950 . S
C994 C993 1.349 . S
C994 C1006 1.349 . S
C995 C993 1.327 . S
C995 C1011 1.429 . S
C995 H1017 0.950 . S
C996 H992 0.949 . S
C996 C1004 1.574 . S
C996 C1012 1.368 . S
H997 C1005 0.950 . S
H998 C1003 0.950 . S
H999 C1004 0.949 . S
H1000 C1006 0.950 . S
H1001 C1007 0.950 . S
H1002 C1008 0.949 . S
C1003 H998 0.950 . S
C1003 C1005 1.327 . S
C1003 C1009 1.429 . S
C1004 C996 1.574 . S
C1004 H999 0.949 . S
C1004 C1010 1.368 . S
C1005 C989 1.349 . S
C1005 H997 0.950 . S
C1005 C1003 1.327 . S
C1006 C994 1.349 . S
C1006 H1000 0.950 . S
C1006 C1007 1.327 . S
C1007 H1001 0.950 . S
C1007 C1006 1.327 . S
C1007 C1011 1.429 . S
C1008 C991 1.574 . S
C1008 H1002 0.949 . S
C1008 C1012 1.368 . S
C1009 C990 1.429 . S
C1009 C1003 1.429 . S
C1009 C1010 1.523 . S
C1010 C991 1.368 . S
C1010 C1004 1.368 . S
C1010 C1009 1.523 . S
C1011 C995 1.429 . S
C1011 C1007 1.429 . S
C1011 C1012 1.523 . S
C1012 C996 1.368 . S
C1012 C1008 1.368 . S
C1012 C1011 1.523 . S
H1013 C988 0.950 . S
H1014 C990 0.950 . S
H1015 C991 0.949 . S
H1016 C993 0.950 . S
H1017 C995 0.950 . S
C1018 C1019 1.349 . S
C1018 C1020 1.327 . S
C1018 H1043 0.950 . S
C1019 C1018 1.349 . S
C1019 C1035 1.349 . S
C1020 C1018 1.327 . S
C1020 C1039 1.429 . S
C1020 H1044 0.950 . S
C1021 C1038 1.574 . S
C1021 C1040 1.368 . S
C1021 H1045 0.949 . S
H1022 C1026 0.949 . S
C1023 C1024 1.349 . S
C1023 C1025 1.327 . S
C1023 H1046 0.950 1_455 S
C1024 C1023 1.349 . S
C1024 C1036 1.349 . S
C1025 C1023 1.327 . S
C1025 C1041 1.429 . S
C1025 H1047 0.950 . S
C1026 H1022 0.949 . S
C1026 C1034 1.574 . S
C1026 C1042 1.368 . S
H1027 C1035 0.950 . S
H1028 C1033 0.950 . S
H1029 C1034 0.949 . S
H1030 C1036 0.950 . S
H1031 C1037 0.950 . S
H1032 C1038 0.949 . S
C1033 H1028 0.950 . S
C1033 C1035 1.327 . S
C1033 C1039 1.429 . S
C1034 C1026 1.574 . S
C1034 H1029 0.949 . S
C1034 C1040 1.368 . S
C1035 C1019 1.349 . S
C1035 H1027 0.950 . S
C1035 C1033 1.327 . S
C1036 C1024 1.349 . S
C1036 H1030 0.950 . S
C1036 C1037 1.327 . S
C1037 H1031 0.950 . S
C1037 C1036 1.327 . S
C1037 C1041 1.429 . S
C1038 C1021 1.574 . S
C1038 H1032 0.949 . S
C1038 C1042 1.368 . S
C1039 C1020 1.429 . S
C1039 C1033 1.429 . S
C1039 C1040 1.523 . S
C1040 C1021 1.368 . S
C1040 C1034 1.368 . S
C1040 C1039 1.523 . S
C1041 C1025 1.429 . S
C1041 C1037 1.429 . S
C1041 C1042 1.523 . S
C1042 C1026 1.368 . S
C1042 C1038 1.368 . S
C1042 C1041 1.523 . S
H1043 C1018 0.950 . S
H1044 C1020 0.950 . S
H1045 C1021 0.949 . S
H1046 C1023 0.950 1_655 S
H1047 C1025 0.950 . S
C1048 C1049 1.349 . S
C1048 C1050 1.327 . S
C1048 H1073 0.950 . S
C1049 C1048 1.349 . S
C1049 C1065 1.349 . S
C1050 C1048 1.327 . S
C1050 C1069 1.429 . S
C1050 H1074 0.950 . S
C1051 C1068 1.574 . S
C1051 C1070 1.368 . S
C1051 H1075 0.949 . S
H1052 C1056 0.949 . S
C1053 C1054 1.349 . S
C1053 C1055 1.327 . S
C1053 H1076 0.950 . S
C1054 C1053 1.349 . S
C1054 C1066 1.349 . S
C1055 C1053 1.327 . S
C1055 C1071 1.429 . S
C1055 H1077 0.950 . S
C1056 H1052 0.949 . S
C1056 C1064 1.574 . S
C1056 C1072 1.368 . S
H1057 C1065 0.950 . S
H1058 C1063 0.950 . S
H1059 C1064 0.949 . S
H1060 C1066 0.950 . S
H1061 C1067 0.950 . S
H1062 C1068 0.949 . S
C1063 H1058 0.950 . S
C1063 C1065 1.327 . S
C1063 C1069 1.429 . S
C1064 C1056 1.574 . S
C1064 H1059 0.949 . S
C1064 C1070 1.368 . S
C1065 C1049 1.349 . S
C1065 H1057 0.950 . S
C1065 C1063 1.327 . S
C1066 C1054 1.349 . S
C1066 H1060 0.950 . S
C1066 C1067 1.327 . S
C1067 H1061 0.950 . S
C1067 C1066 1.327 . S
C1067 C1071 1.429 . S
C1068 C1051 1.574 . S
C1068 H1062 0.949 . S
C1068 C1072 1.368 . S
C1069 C1050 1.429 . S
C1069 C1063 1.429 . S
C1069 C1070 1.523 . S
C1070 C1051 1.368 . S
C1070 C1064 1.368 . S
C1070 C1069 1.523 . S
C1071 C1055 1.429 . S
C1071 C1067 1.429 . S
C1071 C1072 1.523 . S
C1072 C1056 1.368 . S
C1072 C1068 1.368 . S
C1072 C1071 1.523 . S
H1073 C1048 0.950 . S
H1074 C1050 0.950 . S
H1075 C1051 0.949 . S
H1076 C1053 0.950 . S
H1077 C1055 0.950 . S
C1078 C1079 1.349 . S
C1078 C1080 1.327 . S
C1078 H1103 0.950 . S
C1079 C1078 1.349 . S
C1079 C1095 1.349 . S
C1080 C1078 1.327 . S
C1080 C1099 1.429 . S
C1080 H1104 0.950 . S
C1081 C1098 1.574 . S
C1081 C1100 1.368 . S
C1081 H1105 0.949 . S
H1082 C1086 0.949 . S
C1083 C1084 1.349 . S
C1083 C1085 1.327 . S
C1083 H1106 0.950 1_455 S
C1084 C1083 1.349 . S
C1084 C1096 1.349 . S
C1085 C1083 1.327 . S
C1085 C1101 1.429 . S
C1085 H1107 0.950 . S
C1086 H1082 0.949 . S
C1086 C1094 1.574 . S
C1086 C1102 1.368 . S
H1087 C1095 0.950 . S
H1088 C1093 0.950 . S
H1089 C1094 0.949 . S
H1090 C1096 0.950 . S
H1091 C1097 0.950 . S
H1092 C1098 0.949 . S
C1093 H1088 0.950 . S
C1093 C1095 1.327 . S
C1093 C1099 1.429 . S
C1094 C1086 1.574 . S
C1094 H1089 0.949 . S
C1094 C1100 1.368 . S
C1095 C1079 1.349 . S
C1095 H1087 0.950 . S
C1095 C1093 1.327 . S
C1096 C1084 1.349 . S
C1096 H1090 0.950 . S
C1096 C1097 1.327 . S
C1097 H1091 0.950 . S
C1097 C1096 1.327 . S
C1097 C1101 1.429 . S
C1098 C1081 1.574 . S
C1098 H1092 0.949 . S
C1098 C1102 1.368 . S
C1099 C1080 1.429 . S
C1099 C1093 1.429 . S
C1099 C1100 1.523 . S
C1100 C1081 1.368 . S
C1100 C1094 1.368 . S
C1100 C1099 1.523 . S
C1101 C1085 1.429 . S
C1101 C1097 1.429 . S
C1101 C1102 1.523 . S
C1102 C1086 1.368 . S
C1102 C1098 1.368 . S
C1102 C1101 1.523 . S
H1103 C1078 0.950 . S
H1104 C1080 0.950 . S
H1105 C1081 0.949 . S
H1106 C1083 0.950 1_655 S
H1107 C1085 0.950 . S
C1108 C1109 1.349 . S
C1108 C1110 1.327 . S
C1108 H1133 0.950 . S
C1109 C1108 1.349 . S
C1109 C1125 1.349 . S
C1110 C1108 1.327 . S
C1110 C1129 1.429 . S
C1110 H1134 0.950 . S
C1111 C1128 1.574 . S
C1111 C1130 1.368 . S
C1111 H1135 0.949 . S
H1112 C1116 0.949 . S
C1113 C1114 1.349 . S
C1113 C1115 1.327 . S
C1113 H1136 0.950 . S
C1114 C1113 1.349 . S
C1114 C1126 1.349 . S
C1115 C1113 1.327 . S
C1115 C1131 1.429 . S
C1115 H1137 0.950 . S
C1116 H1112 0.949 . S
C1116 C1124 1.574 . S
C1116 C1132 1.368 . S
H1117 C1125 0.950 . S
H1118 C1123 0.950 . S
H1119 C1124 0.949 . S
H1120 C1126 0.950 . S
H1121 C1127 0.950 . S
H1122 C1128 0.949 . S
C1123 H1118 0.950 . S
C1123 C1125 1.327 . S
C1123 C1129 1.429 . S
C1124 C1116 1.574 . S
C1124 H1119 0.949 . S
C1124 C1130 1.368 . S
C1125 C1109 1.349 . S
C1125 H1117 0.950 . S
C1125 C1123 1.327 . S
C1126 C1114 1.349 . S
C1126 H1120 0.950 . S
C1126 C1127 1.327 . S
C1127 H1121 0.950 . S
C1127 C1126 1.327 . S
C1127 C1131 1.429 . S
C1128 C1111 1.574 . S
C1128 H1122 0.949 . S
C1128 C1132 1.368 . S
C1129 C1110 1.429 . S
C1129 C1123 1.429 . S
C1129 C1130 1.523 . S
C1130 C1111 1.368 . S
C1130 C1124 1.368 . S
C1130 C1129 1.523 . S
C1131 C1115 1.429 . S
C1131 C1127 1.429 . S
C1131 C1132 1.523 . S
C1132 C1116 1.368 . S
C1132 C1128 1.368 . S
C1132 C1131 1.523 . S
H1133 C1108 0.950 . S
H1134 C1110 0.950 . S
H1135 C1111 0.949 . S
H1136 C1113 0.950 . S
H1137 C1115 0.950 . S
C1138 C1139 1.349 . S
C1138 C1140 1.327 . S
C1138 H1163 0.950 . S
C1139 C1138 1.349 . S
C1139 C1155 1.349 . S
C1140 C1138 1.327 . S
C1140 C1159 1.429 . S
C1140 H1164 0.950 . S
C1141 C1158 1.574 . S
C1141 C1160 1.368 . S
C1141 H1165 0.949 . S
H1142 C1146 0.949 . S
C1143 C1144 1.349 . S
C1143 C1145 1.327 . S
C1143 H1166 0.950 . S
C1144 C1143 1.349 . S
C1144 C1156 1.349 . S
C1145 C1143 1.327 . S
C1145 C1161 1.429 . S
C1145 H1167 0.950 . S
C1146 H1142 0.949 . S
C1146 C1154 1.574 . S
C1146 C1162 1.368 . S
H1147 C1155 0.950 . S
H1148 C1153 0.950 . S
H1149 C1154 0.949 . S
H1150 C1156 0.950 . S
H1151 C1157 0.950 . S
H1152 C1158 0.949 . S
C1153 H1148 0.950 . S
C1153 C1155 1.327 . S
C1153 C1159 1.429 . S
C1154 C1146 1.574 . S
C1154 H1149 0.949 . S
C1154 C1160 1.368 . S
C1155 C1139 1.349 . S
C1155 H1147 0.950 . S
C1155 C1153 1.327 . S
C1156 C1144 1.349 . S
C1156 H1150 0.950 . S
C1156 C1157 1.327 . S
C1157 H1151 0.950 . S
C1157 C1156 1.327 . S
C1157 C1161 1.429 . S
C1158 C1141 1.574 . S
C1158 H1152 0.949 . S
C1158 C1162 1.368 . S
C1159 C1140 1.429 . S
C1159 C1153 1.429 . S
C1159 C1160 1.523 . S
C1160 C1141 1.368 . S
C1160 C1154 1.368 . S
C1160 C1159 1.523 . S
C1161 C1145 1.429 . S
C1161 C1157 1.429 . S
C1161 C1162 1.523 . S
C1162 C1146 1.368 . S
C1162 C1158 1.368 . S
C1162 C1161 1.523 . S
H1163 C1138 0.950 . S
H1164 C1140 0.950 . S
H1165 C1141 0.949 . S
H1166 C1143 0.950 . S
H1167 C1145 0.950 . S
C1168 C1169 1.349 . S
C1168 C1170 1.327 . S
C1168 H1193 0.950 . S
C1169 C1168 1.349 . S
C1169 C1185 1.349 . S
C1170 C1168 1.327 . S
C1170 C1189 1.429 . S
C1170 H1194 0.950 . S
C1171 C1188 1.574 . S
C1171 C1190 1.368 . S
C1171 H1195 0.949 . S
H1172 C1176 0.949 . S
C1173 C1174 1.349 . S
C1173 C1175 1.327 . S
C1173 H1196 0.950 . S
C1174 C1173 1.349 . S
C1174 C1186 1.349 . S
C1175 C1173 1.327 . S
C1175 C1191 1.429 . S
C1175 H1197 0.950 . S
C1176 H1172 0.949 . S
C1176 C1184 1.574 . S
C1176 C1192 1.368 . S
H1177 C1185 0.950 . S
H1178 C1183 0.950 . S
H1179 C1184 0.949 . S
H1180 C1186 0.950 . S
H1181 C1187 0.950 . S
H1182 C1188 0.949 . S
C1183 H1178 0.950 . S
C1183 C1185 1.327 . S
C1183 C1189 1.429 . S
C1184 C1176 1.574 . S
C1184 H1179 0.949 . S
C1184 C1190 1.368 . S
C1185 C1169 1.349 . S
C1185 H1177 0.950 . S
C1185 C1183 1.327 . S
C1186 C1174 1.349 . S
C1186 H1180 0.950 . S
C1186 C1187 1.327 . S
C1187 H1181 0.950 . S
C1187 C1186 1.327 . S
C1187 C1191 1.429 . S
C1188 C1171 1.574 . S
C1188 H1182 0.949 . S
C1188 C1192 1.368 . S
C1189 C1170 1.429 . S
C1189 C1183 1.429 . S
C1189 C1190 1.523 . S
C1190 C1171 1.368 . S
C1190 C1184 1.368 . S
C1190 C1189 1.523 . S
C1191 C1175 1.429 . S
C1191 C1187 1.429 . S
C1191 C1192 1.523 . S
C1192 C1176 1.368 . S
C1192 C1188 1.368 . S
C1192 C1191 1.523 . S
H1193 C1168 0.950 . S
H1194 C1170 0.950 . S
H1195 C1171 0.949 . S
H1196 C1173 0.950 . S
H1197 C1175 0.950 . S
C1198 C1199 1.349 . S
C1198 C1200 1.327 . S
C1198 H1223 0.950 . S
C1199 C1198 1.349 . S
C1199 C1215 1.349 . S
C1200 C1198 1.327 . S
C1200 C1219 1.429 . S
C1200 H1224 0.950 . S
C1201 C1218 1.574 . S
C1201 C1220 1.368 . S
C1201 H1225 0.949 . S
H1202 C1206 0.949 . S
C1203 C1204 1.349 . S
C1203 C1205 1.327 . S
C1203 H1226 0.950 . S
C1204 C1203 1.349 . S
C1204 C1216 1.349 . S
C1205 C1203 1.327 . S
C1205 C1221 1.429 . S
C1205 H1227 0.950 . S
C1206 H1202 0.949 . S
C1206 C1214 1.574 . S
C1206 C1222 1.368 . S
H1207 C1215 0.950 . S
H1208 C1213 0.950 . S
H1209 C1214 0.949 . S
H1210 C1216 0.950 . S
H1211 C1217 0.950 . S
H1212 C1218 0.949 . S
C1213 H1208 0.950 . S
C1213 C1215 1.327 . S
C1213 C1219 1.429 . S
C1214 C1206 1.574 . S
C1214 H1209 0.949 . S
C1214 C1220 1.368 . S
C1215 C1199 1.349 . S
C1215 H1207 0.950 . S
C1215 C1213 1.327 . S
C1216 C1204 1.349 . S
C1216 H1210 0.950 . S
C1216 C1217 1.327 . S
C1217 H1211 0.950 . S
C1217 C1216 1.327 . S
C1217 C1221 1.429 . S
C1218 C1201 1.574 . S
C1218 H1212 0.949 . S
C1218 C1222 1.368 . S
C1219 C1200 1.429 . S
C1219 C1213 1.429 . S
C1219 C1220 1.523 . S
C1220 C1201 1.368 . S
C1220 C1214 1.368 . S
C1220 C1219 1.523 . S
C1221 C1205 1.429 . S
C1221 C1217 1.429 . S
C1221 C1222 1.523 . S
C1222 C1206 1.368 . S
C1222 C1218 1.368 . S
C1222 C1221 1.523 . S
H1223 C1198 0.950 . S
H1224 C1200 0.950 . S
H1225 C1201 0.949 . S
H1226 C1203 0.950 . S
H1227 C1205 0.950 . S
C1228 C1229 1.349 . S
C1228 C1230 1.327 . S
C1228 H1253 0.950 . S
C1229 C1228 1.349 . S
C1229 C1245 1.349 . S
C1230 C1228 1.327 . S
C1230 C1249 1.429 . S
C1230 H1254 0.950 . S
C1231 C1248 1.574 . S
C1231 C1250 1.368 . S
C1231 H1255 0.949 . S
H1232 C1236 0.949 . S
C1233 C1234 1.349 . S
C1233 C1235 1.327 . S
C1233 H1256 0.950 . S
C1234 C1233 1.349 . S
C1234 C1246 1.349 . S
C1235 C1233 1.327 . S
C1235 C1251 1.429 . S
C1235 H1257 0.950 . S
C1236 H1232 0.949 . S
C1236 C1244 1.574 . S
C1236 C1252 1.368 . S
H1237 C1245 0.950 . S
H1238 C1243 0.950 . S
H1239 C1244 0.949 . S
H1240 C1246 0.950 . S
H1241 C1247 0.950 . S
H1242 C1248 0.949 . S
C1243 H1238 0.950 . S
C1243 C1245 1.327 . S
C1243 C1249 1.429 . S
C1244 C1236 1.574 . S
C1244 H1239 0.949 . S
C1244 C1250 1.368 . S
C1245 C1229 1.349 . S
C1245 H1237 0.950 . S
C1245 C1243 1.327 . S
C1246 C1234 1.349 . S
C1246 H1240 0.950 . S
C1246 C1247 1.327 . S
C1247 H1241 0.950 . S
C1247 C1246 1.327 . S
C1247 C1251 1.429 . S
C1248 C1231 1.574 . S
C1248 H1242 0.949 . S
C1248 C1252 1.368 . S
C1249 C1230 1.429 . S
C1249 C1243 1.429 . S
C1249 C1250 1.523 . S
C1250 C1231 1.368 . S
C1250 C1244 1.368 . S
C1250 C1249 1.523 . S
C1251 C1235 1.429 . S
C1251 C1247 1.429 . S
C1251 C1252 1.523 . S
C1252 C1236 1.368 . S
C1252 C1248 1.368 . S
C1252 C1251 1.523 . S
H1253 C1228 0.950 . S
H1254 C1230 0.950 . S
H1255 C1231 0.949 . S
H1256 C1233 0.950 . S
H1257 C1235 0.950 . S
C1258 C1259 1.348 1_655 S
C1258 C1260 1.334 . S
C1258 H1283 0.943 1_655 S
C1259 C1258 1.348 1_455 S
C1259 C1275 1.323 1_455 S
C1260 C1258 1.334 . S
C1260 C1279 1.429 . S
C1260 H1284 0.950 . S
C1261 C1278 1.574 . S
C1261 C1280 1.368 . S
C1261 H1285 0.949 . S
H1262 C1266 0.949 . S
C1263 C1264 1.349 . S
C1263 C1265 1.327 . S
C1263 H1286 0.950 . S
C1264 C1263 1.349 . S
C1264 C1276 1.349 . S
C1265 C1263 1.327 . S
C1265 C1281 1.429 . S
C1265 H1287 0.950 . S
C1266 H1262 0.949 . S
C1266 C1274 1.574 . S
C1266 C1282 1.368 . S
H1267 C1275 0.950 . S
H1268 C1273 0.950 . S
H1269 C1274 0.949 . S
H1270 C1276 0.950 . S
H1271 C1277 0.950 . S
H1272 C1278 0.949 . S
C1273 H1268 0.950 . S
C1273 C1275 1.327 . S
C1273 C1279 1.429 . S
C1274 C1266 1.574 . S
C1274 H1269 0.949 . S
C1274 C1280 1.368 . S
C1275 C1259 1.323 1_655 S
C1275 H1267 0.950 . S
C1275 C1273 1.327 . S
C1276 C1264 1.349 . S
C1276 H1270 0.950 . S
C1276 C1277 1.327 . S
C1277 H1271 0.950 . S
C1277 C1276 1.327 . S
C1277 C1281 1.429 . S
C1278 C1261 1.574 . S
C1278 H1272 0.949 . S
C1278 C1282 1.368 . S
C1279 C1260 1.429 . S
C1279 C1273 1.429 . S
C1279 C1280 1.523 . S
C1280 C1261 1.368 . S
C1280 C1274 1.368 . S
C1280 C1279 1.523 . S
C1281 C1265 1.429 . S
C1281 C1277 1.429 . S
C1281 C1282 1.523 . S
C1282 C1266 1.368 . S
C1282 C1278 1.368 . S
C1282 C1281 1.523 . S
H1283 C1258 0.943 1_455 S
H1284 C1260 0.950 . S
H1285 C1261 0.949 . S
H1286 C1263 0.950 . S
H1287 C1265 0.950 . S
C1288 C1289 1.349 . S
C1288 C1290 1.327 . S
C1288 H1313 0.950 . S
C1289 C1288 1.349 . S
C1289 C1305 1.349 . S
C1290 C1288 1.327 . S
C1290 C1309 1.429 . S
C1290 H1314 0.950 . S
C1291 C1308 1.574 . S
C1291 C1310 1.368 . S
C1291 H1315 0.949 . S
H1292 C1296 0.949 . S
C1293 C1294 1.349 . S
C1293 C1295 1.327 . S
C1293 H1316 0.950 . S
C1294 C1293 1.349 . S
C1294 C1306 1.349 . S
C1295 C1293 1.327 . S
C1295 C1311 1.429 . S
C1295 H1317 0.950 . S
C1296 H1292 0.949 . S
C1296 C1304 1.574 . S
C1296 C1312 1.368 . S
H1297 C1305 0.950 . S
H1298 C1303 0.950 . S
H1299 C1304 0.949 . S
H1300 C1306 0.950 . S
H1301 C1307 0.950 . S
H1302 C1308 0.949 . S
C1303 H1298 0.950 . S
C1303 C1305 1.327 . S
C1303 C1309 1.429 . S
C1304 C1296 1.574 . S
C1304 H1299 0.949 . S
C1304 C1310 1.368 . S
C1305 C1289 1.349 . S
C1305 H1297 0.950 . S
C1305 C1303 1.327 . S
C1306 C1294 1.349 . S
C1306 H1300 0.950 . S
C1306 C1307 1.327 . S
C1307 H1301 0.950 . S
C1307 C1306 1.327 . S
C1307 C1311 1.429 . S
C1308 C1291 1.574 . S
C1308 H1302 0.949 . S
C1308 C1312 1.368 . S
C1309 C1290 1.429 . S
C1309 C1303 1.429 . S
C1309 C1310 1.523 . S
C1310 C1291 1.368 . S
C1310 C1304 1.368 . S
C1310 C1309 1.523 . S
C1311 C1295 1.429 . S
C1311 C1307 1.429 . S
C1311 C1312 1.523 . S
C1312 C1296 1.368 . S
C1312 C1308 1.368 . S
C1312 C1311 1.523 . S
H1313 C1288 0.950 . S
H1314 C1290 0.950 . S
H1315 C1291 0.949 . S
H1316 C1293 0.950 . S
H1317 C1295 0.950 . S
C1318 C1319 1.353 . S
C1318 C1320 1.327 1_455 S
C1318 H1343 0.950 . S
C1319 C1318 1.353 . S
C1319 C1335 1.317 1_455 S
C1320 C1318 1.327 1_655 S
C1320 C1339 1.429 . S
C1320 H1344 0.950 . S
C1321 C1338 1.574 . S
C1321 C1340 1.368 . S
C1321 H1345 0.949 . S
H1322 C1326 0.949 . S
C1323 C1324 1.349 . S
C1323 C1325 1.327 . S
C1323 H1346 0.950 . S
C1324 C1323 1.349 . S
C1324 C1336 1.349 . S
C1325 C1323 1.327 . S
C1325 C1341 1.429 . S
C1325 H1347 0.950 . S
C1326 H1322 0.949 . S
C1326 C1334 1.574 . S
C1326 C1342 1.368 . S
H1327 C1335 0.950 . S
H1328 C1333 0.950 . S
H1329 C1334 0.949 . S
H1330 C1336 0.950 . S
H1331 C1337 0.950 . S
H1332 C1338 0.949 . S
C1333 H1328 0.950 . S
C1333 C1335 1.327 . S
C1333 C1339 1.429 . S
C1334 C1326 1.574 . S
C1334 H1329 0.949 . S
C1334 C1340 1.368 . S
C1335 C1319 1.317 1_655 S
C1335 H1327 0.950 . S
C1335 C1333 1.327 . S
C1336 C1324 1.349 . S
C1336 H1330 0.950 . S
C1336 C1337 1.327 . S
C1337 H1331 0.950 . S
C1337 C1336 1.327 . S
C1337 C1341 1.429 . S
C1338 C1321 1.574 . S
C1338 H1332 0.949 . S
C1338 C1342 1.368 . S
C1339 C1320 1.429 . S
C1339 C1333 1.429 . S
C1339 C1340 1.523 . S
C1340 C1321 1.368 . S
C1340 C1334 1.368 . S
C1340 C1339 1.523 . S
C1341 C1325 1.429 . S
C1341 C1337 1.429 . S
C1341 C1342 1.523 . S
C1342 C1326 1.368 . S
C1342 C1338 1.368 . S
C1342 C1341 1.523 . S
H1343 C1318 0.950 . S
H1344 C1320 0.950 . S
H1345 C1321 0.949 . S
H1346 C1323 0.950 . S
H1347 C1325 0.950 . S
C1348 C1349 1.349 . S
C1348 C1350 1.327 . S
C1348 H1373 0.950 . S
C1349 C1348 1.349 . S
C1349 C1365 1.349 . S
C1350 C1348 1.327 . S
C1350 C1369 1.429 . S
C1350 H1374 0.950 . S
C1351 C1368 1.574 . S
C1351 C1370 1.368 . S
C1351 H1375 0.949 . S
H1352 C1356 0.949 . S
C1353 C1354 1.349 . S
C1353 C1355 1.327 . S
C1353 H1376 0.950 . S
C1354 C1353 1.349 . S
C1354 C1366 1.349 . S
C1355 C1353 1.327 . S
C1355 C1371 1.429 . S
C1355 H1377 0.950 . S
C1356 H1352 0.949 . S
C1356 C1364 1.574 . S
C1356 C1372 1.368 . S
H1357 C1365 0.950 . S
H1358 C1363 0.950 . S
H1359 C1364 0.949 . S
H1360 C1366 0.950 . S
H1361 C1367 0.950 . S
H1362 C1368 0.949 . S
C1363 H1358 0.950 . S
C1363 C1365 1.327 . S
C1363 C1369 1.429 . S
C1364 C1356 1.574 . S
C1364 H1359 0.949 . S
C1364 C1370 1.368 . S
C1365 C1349 1.349 . S
C1365 H1357 0.950 . S
C1365 C1363 1.327 . S
C1366 C1354 1.349 . S
C1366 H1360 0.950 . S
C1366 C1367 1.327 . S
C1367 H1361 0.950 . S
C1367 C1366 1.327 . S
C1367 C1371 1.429 . S
C1368 C1351 1.574 . S
C1368 H1362 0.949 . S
C1368 C1372 1.368 . S
C1369 C1350 1.429 . S
C1369 C1363 1.429 . S
C1369 C1370 1.523 . S
C1370 C1351 1.368 . S
C1370 C1364 1.368 . S
C1370 C1369 1.523 . S
C1371 C1355 1.429 . S
C1371 C1367 1.429 . S
C1371 C1372 1.523 . S
C1372 C1356 1.368 . S
C1372 C1368 1.368 . S
C1372 C1371 1.523 . S
H1373 C1348 0.950 . S
H1374 C1350 0.950 . S
H1375 C1351 0.949 . S
H1376 C1353 0.950 . S
H1377 C1355 0.950 . S
C1378 C1379 1.349 . S
C1378 C1380 1.327 . S
C1378 H1403 0.950 . S
C1379 C1378 1.349 . S
C1379 C1395 1.349 . S
C1380 C1378 1.327 . S
C1380 C1399 1.429 . S
C1380 H1404 0.950 . S
C1381 C1398 1.574 . S
C1381 C1400 1.368 . S
C1381 H1405 0.949 . S
H1382 C1386 0.949 . S
C1383 C1384 1.349 . S
C1383 C1385 1.327 . S
C1383 H1406 0.950 . S
C1384 C1383 1.349 . S
C1384 C1396 1.349 . S
C1385 C1383 1.327 . S
C1385 C1401 1.429 . S
C1385 H1407 0.950 . S
C1386 H1382 0.949 . S
C1386 C1394 1.574 . S
C1386 C1402 1.368 . S
H1387 C1395 0.950 . S
H1388 C1393 0.950 . S
H1389 C1394 0.949 . S
H1390 C1396 0.950 . S
H1391 C1397 0.950 . S
H1392 C1398 0.949 . S
C1393 H1388 0.950 . S
C1393 C1395 1.327 . S
C1393 C1399 1.429 . S
C1394 C1386 1.574 . S
C1394 H1389 0.949 . S
C1394 C1400 1.368 . S
C1395 C1379 1.349 . S
C1395 H1387 0.950 . S
C1395 C1393 1.327 . S
C1396 C1384 1.349 . S
C1396 H1390 0.950 . S
C1396 C1397 1.327 . S
C1397 H1391 0.950 . S
C1397 C1396 1.327 . S
C1397 C1401 1.429 . S
C1398 C1381 1.574 . S
C1398 H1392 0.949 . S
C1398 C1402 1.368 . S
C1399 C1380 1.429 . S
C1399 C1393 1.429 . S
C1399 C1400 1.523 . S
C1400 C1381 1.368 . S
C1400 C1394 1.368 . S
C1400 C1399 1.523 . S
C1401 C1385 1.429 . S
C1401 C1397 1.429 . S
C1401 C1402 1.523 . S
C1402 C1386 1.368 . S
C1402 C1398 1.368 . S
C1402 C1401 1.523 . S
H1403 C1378 0.950 . S
H1404 C1380 0.950 . S
H1405 C1381 0.949 . S
H1406 C1383 0.950 . S
H1407 C1385 0.950 . S
C1408 C1409 1.349 . S
C1408 C1410 1.327 . S
C1408 H1433 0.950 . S
C1409 C1408 1.349 . S
C1409 C1425 1.349 . S
C1410 C1408 1.327 . S
C1410 C1429 1.429 . S
C1410 H1434 0.950 . S
C1411 C1428 1.574 . S
C1411 C1430 1.368 . S
C1411 H1435 0.949 . S
H1412 C1416 0.949 . S
C1413 C1414 1.349 . S
C1413 C1415 1.327 . S
C1413 H1436 0.950 . S
C1414 C1413 1.349 . S
C1414 C1426 1.349 . S
C1415 C1413 1.327 . S
C1415 C1431 1.429 . S
C1415 H1437 0.950 . S
C1416 H1412 0.949 . S
C1416 C1424 1.574 . S
C1416 C1432 1.368 . S
H1417 C1425 0.950 . S
H1418 C1423 0.950 . S
H1419 C1424 0.949 . S
H1420 C1426 0.950 . S
H1421 C1427 0.950 . S
H1422 C1428 0.949 . S
C1423 H1418 0.950 . S
C1423 C1425 1.327 . S
C1423 C1429 1.429 . S
C1424 C1416 1.574 . S
C1424 H1419 0.949 . S
C1424 C1430 1.368 . S
C1425 C1409 1.349 . S
C1425 H1417 0.950 . S
C1425 C1423 1.327 . S
C1426 C1414 1.349 . S
C1426 H1420 0.950 . S
C1426 C1427 1.327 . S
C1427 H1421 0.950 . S
C1427 C1426 1.327 . S
C1427 C1431 1.429 . S
C1428 C1411 1.574 . S
C1428 H1422 0.949 . S
C1428 C1432 1.368 . S
C1429 C1410 1.429 . S
C1429 C1423 1.429 . S
C1429 C1430 1.523 . S
C1430 C1411 1.368 . S
C1430 C1424 1.368 . S
C1430 C1429 1.523 . S
C1431 C1415 1.429 . S
C1431 C1427 1.429 . S
C1431 C1432 1.523 . S
C1432 C1416 1.368 . S
C1432 C1428 1.368 . S
C1432 C1431 1.523 . S
H1433 C1408 0.950 . S
H1434 C1410 0.950 . S
H1435 C1411 0.949 . S
H1436 C1413 0.950 . S
H1437 C1415 0.950 . S
C1438 C1439 1.349 . S
C1438 C1440 1.327 . S
C1438 H1463 0.950 . S
C1439 C1438 1.349 . S
C1439 C1455 1.349 . S
C1440 C1438 1.327 . S
C1440 C1459 1.429 . S
C1440 H1464 0.950 1_455 S
C1441 C1458 1.574 . S
C1441 C1460 1.368 1_545 S
C1441 H1465 0.949 . S
H1442 C1446 0.949 . S
C1443 C1444 1.349 . S
C1443 C1445 1.327 . S
C1443 H1466 0.950 . S
C1444 C1443 1.349 . S
C1444 C1456 1.349 . S
C1445 C1443 1.327 . S
C1445 C1461 1.429 . S
C1445 H1467 0.950 1_655 S
C1446 H1442 0.949 . S
C1446 C1454 1.574 . S
C1446 C1462 1.368 1_565 S
H1447 C1455 0.950 . S
H1448 C1453 0.950 1_545 S
H1449 C1454 0.949 . S
H1450 C1456 0.950 . S
H1451 C1457 0.950 1_565 S
H1452 C1458 0.949 . S
C1453 H1448 0.950 1_565 S
C1453 C1455 1.327 . S
C1453 C1459 1.429 . S
C1454 C1446 1.574 . S
C1454 H1449 0.949 . S
C1454 C1460 1.368 1_655 S
C1455 C1439 1.349 . S
C1455 H1447 0.950 . S
C1455 C1453 1.327 . S
C1456 C1444 1.349 . S
C1456 H1450 0.950 . S
C1456 C1457 1.327 . S
C1457 H1451 0.950 1_545 S
C1457 C1456 1.327 . S
C1457 C1461 1.429 . S
C1458 C1441 1.574 . S
C1458 H1452 0.949 . S
C1458 C1462 1.368 1_455 S
C1459 C1440 1.429 . S
C1459 C1453 1.429 . S
C1459 C1460 1.523 . S
C1460 C1441 1.368 1_565 S
C1460 C1454 1.368 1_455 S
C1460 C1459 1.523 . S
C1461 C1445 1.429 . S
C1461 C1457 1.429 . S
C1461 C1462 1.523 . S
C1462 C1446 1.368 1_545 S
C1462 C1458 1.368 1_655 S
C1462 C1461 1.523 . S
H1463 C1438 0.950 . S
H1464 C1440 0.950 1_655 S
H1465 C1441 0.949 . S
H1466 C1443 0.950 . S
H1467 C1445 0.950 1_455 S
C1468 C1469 1.349 . S
C1468 C1470 1.327 . S
C1468 H1493 0.950 . S
C1469 C1468 1.349 . S
C1469 C1485 1.349 . S
C1470 C1468 1.327 . S
C1470 C1489 1.429 . S
C1470 H1494 0.950 . S
C1471 C1488 1.574 . S
C1471 C1490 1.368 . S
C1471 H1495 0.949 . S
H1472 C1476 0.949 . S
C1473 C1474 1.349 . S
C1473 C1475 1.327 . S
C1473 H1496 0.950 . S
C1474 C1473 1.349 . S
C1474 C1486 1.349 . S
C1475 C1473 1.327 . S
C1475 C1491 1.429 . S
C1475 H1497 0.950 . S
C1476 H1472 0.949 . S
C1476 C1484 1.574 . S
C1476 C1492 1.368 . S
H1477 C1485 0.950 . S
H1478 C1483 0.950 . S
H1479 C1484 0.949 . S
H1480 C1486 0.950 . S
H1481 C1487 0.950 . S
H1482 C1488 0.949 . S
C1483 H1478 0.950 . S
C1483 C1485 1.327 . S
C1483 C1489 1.429 . S
C1484 C1476 1.574 . S
C1484 H1479 0.949 . S
C1484 C1490 1.368 . S
C1485 C1469 1.349 . S
C1485 H1477 0.950 . S
C1485 C1483 1.327 . S
C1486 C1474 1.349 . S
C1486 H1480 0.950 . S
C1486 C1487 1.327 . S
C1487 H1481 0.950 . S
C1487 C1486 1.327 . S
C1487 C1491 1.429 . S
C1488 C1471 1.574 . S
C1488 H1482 0.949 . S
C1488 C1492 1.368 . S
C1489 C1470 1.429 . S
C1489 C1483 1.429 . S
C1489 C1490 1.523 . S
C1490 C1471 1.368 . S
C1490 C1484 1.368 . S
C1490 C1489 1.523 . S
C1491 C1475 1.429 . S
C1491 C1487 1.429 . S
C1491 C1492 1.523 . S
C1492 C1476 1.368 . S
C1492 C1488 1.368 . S
C1492 C1491 1.523 . S
H1493 C1468 0.950 . S
H1494 C1470 0.950 . S
H1495 C1471 0.949 . S
H1496 C1473 0.950 . S
H1497 C1475 0.950 . S
C1498 C1499 1.349 . S
C1498 C1500 1.327 . S
C1498 H1523 0.950 . S
C1499 C1498 1.349 . S
C1499 C1515 1.381 . S
C1500 C1498 1.327 . S
C1500 C1519 1.429 . S
C1500 H1524 0.950 . S
C1501 C1518 1.574 1_554 S
C1501 C1520 1.368 1_565 S
C1501 H1525 0.949 . S
H1502 C1506 0.949 . S
C1503 C1504 1.349 . S
C1503 C1505 1.327 . S
C1503 H1526 0.950 . S
C1504 C1503 1.349 . S
C1504 C1516 1.383 . S
C1505 C1503 1.327 . S
C1505 C1521 1.429 . S
C1505 H1527 0.950 . S
C1506 H1502 0.949 . S
C1506 C1514 1.574 1_556 S
C1506 C1522 1.368 1_545 S
H1507 C1515 0.927 1_565 S
H1508 C1513 0.950 . S
H1509 C1514 0.949 . S
H1510 C1516 0.926 1_545 S
H1511 C1517 0.950 . S
H1512 C1518 0.949 . S
C1513 H1508 0.950 . S
C1513 C1515 1.319 1_565 S
C1513 C1519 1.429 1_565 S
C1514 C1506 1.574 1_554 S
C1514 H1509 0.949 . S
C1514 C1520 1.368 . S
C1515 C1499 1.381 . S
C1515 H1507 0.927 1_545 S
C1515 C1513 1.319 1_545 S
C1516 C1504 1.383 . S
C1516 H1510 0.926 1_565 S
C1516 C1517 1.319 1_565 S
C1517 H1511 0.950 . S
C1517 C1516 1.319 1_545 S
C1517 C1521 1.429 1_545 S
C1518 C1501 1.574 1_556 S
C1518 H1512 0.949 . S
C1518 C1522 1.368 . S
C1519 C1500 1.429 . S
C1519 C1513 1.429 1_545 S
C1519 C1520 1.523 . S
C1520 C1501 1.368 1_545 S
C1520 C1514 1.368 . S
C1520 C1519 1.523 . S
C1521 C1505 1.429 . S
C1521 C1517 1.429 1_565 S
C1521 C1522 1.523 . S
C1522 C1506 1.368 1_565 S
C1522 C1518 1.368 . S
C1522 C1521 1.523 . S
H1523 C1498 0.950 . S
H1524 C1500 0.950 . S
H1525 C1501 0.949 . S
H1526 C1503 0.950 . S
H1527 C1505 0.950 . S
C1528 C1529 1.349 . S
C1528 C1530 1.327 . S
C1528 H1553 0.950 . S
C1529 C1528 1.349 . S
C1529 C1545 1.349 . S
C1530 C1528 1.327 . S
C1530 C1549 1.429 . S
C1530 H1554 0.950 . S
C1531 C1548 1.574 . S
C1531 C1550 1.368 . S
C1531 H1555 0.949 . S
H1532 C1536 0.949 . S
C1533 C1534 1.349 . S
C1533 C1535 1.327 . S
C1533 H1556 0.950 . S
C1534 C1533 1.349 . S
C1534 C1546 1.349 . S
C1535 C1533 1.327 . S
C1535 C1551 1.429 . S
C1535 H1557 0.950 . S
C1536 H1532 0.949 . S
C1536 C1544 1.574 . S
C1536 C1552 1.368 . S
H1537 C1545 0.950 . S
H1538 C1543 0.950 . S
H1539 C1544 0.949 . S
H1540 C1546 0.950 . S
H1541 C1547 0.950 . S
H1542 C1548 0.949 . S
C1543 H1538 0.950 . S
C1543 C1545 1.327 . S
C1543 C1549 1.429 . S
C1544 C1536 1.574 . S
C1544 H1539 0.949 . S
C1544 C1550 1.368 . S
C1545 C1529 1.349 . S
C1545 H1537 0.950 . S
C1545 C1543 1.327 . S
C1546 C1534 1.349 . S
C1546 H1540 0.950 . S
C1546 C1547 1.327 . S
C1547 H1541 0.950 . S
C1547 C1546 1.327 . S
C1547 C1551 1.429 . S
C1548 C1531 1.574 . S
C1548 H1542 0.949 . S
C1548 C1552 1.368 . S
C1549 C1530 1.429 . S
C1549 C1543 1.429 . S
C1549 C1550 1.523 . S
C1550 C1531 1.368 . S
C1550 C1544 1.368 . S
C1550 C1549 1.523 . S
C1551 C1535 1.429 . S
C1551 C1547 1.429 . S
C1551 C1552 1.523 . S
C1552 C1536 1.368 . S
C1552 C1548 1.368 . S
C1552 C1551 1.523 . S
H1553 C1528 0.950 . S
H1554 C1530 0.950 . S
H1555 C1531 0.949 . S
H1556 C1533 0.950 . S
H1557 C1535 0.950 . S
C1558 C1559 1.349 . S
C1558 C1560 1.327 1_565 S
C1558 H1583 0.950 1_565 S
C1559 C1558 1.349 . S
C1559 C1575 1.349 . S
C1560 C1558 1.327 1_545 S
C1560 C1579 1.429 1_545 S
C1560 H1584 0.950 . S
C1561 C1578 1.574 . S
C1561 C1580 1.368 . S
C1561 H1585 0.949 . S
H1562 C1566 0.949 . S
C1563 C1564 1.349 . S
C1563 C1565 1.327 1_545 S
C1563 H1586 0.950 1_545 S
C1564 C1563 1.349 . S
C1564 C1576 1.349 . S
C1565 C1563 1.327 1_565 S
C1565 C1581 1.429 1_565 S
C1565 H1587 0.950 . S
C1566 H1562 0.949 . S
C1566 C1574 1.574 . S
C1566 C1582 1.368 . S
H1567 C1575 0.950 . S
H1568 C1573 0.950 . S
H1569 C1574 0.949 . S
H1570 C1576 0.950 . S
H1571 C1577 0.950 . S
H1572 C1578 0.949 . S
C1573 H1568 0.950 . S
C1573 C1575 1.327 . S
C1573 C1579 1.429 . S
C1574 C1566 1.574 . S
C1574 H1569 0.949 . S
C1574 C1580 1.368 1_545 S
C1575 C1559 1.349 . S
C1575 H1567 0.950 . S
C1575 C1573 1.327 . S
C1576 C1564 1.349 . S
C1576 H1570 0.950 . S
C1576 C1577 1.327 . S
C1577 H1571 0.950 . S
C1577 C1576 1.327 . S
C1577 C1581 1.429 . S
C1578 C1561 1.574 . S
C1578 H1572 0.949 . S
C1578 C1582 1.368 1_565 S
C1579 C1560 1.429 1_565 S
C1579 C1573 1.429 . S
C1579 C1580 1.523 . S
C1580 C1561 1.368 . S
C1580 C1574 1.368 1_565 S
C1580 C1579 1.523 . S
C1581 C1565 1.429 1_545 S
C1581 C1577 1.429 . S
C1581 C1582 1.523 . S
C1582 C1566 1.368 . S
C1582 C1578 1.368 1_545 S
C1582 C1581 1.523 . S
H1583 C1558 0.950 1_545 S
H1584 C1560 0.950 . S
H1585 C1561 0.949 . S
H1586 C1563 0.950 1_565 S
H1587 C1565 0.950 . S
C1588 C1589 1.349 . S
C1588 C1590 1.327 . S
C1588 H1613 0.950 . S
C1589 C1588 1.349 . S
C1589 C1605 1.349 . S
C1590 C1588 1.327 . S
C1590 C1609 1.429 . S
C1590 H1614 0.950 . S
C1591 C1608 1.574 . S
C1591 C1610 1.368 . S
C1591 H1615 0.949 . S
H1592 C1596 0.949 . S
C1593 C1594 1.349 . S
C1593 C1595 1.327 . S
C1593 H1616 0.950 . S
C1594 C1593 1.349 . S
C1594 C1606 1.349 . S
C1595 C1593 1.327 . S
C1595 C1611 1.429 . S
C1595 H1617 0.950 . S
C1596 H1592 0.949 . S
C1596 C1604 1.574 . S
C1596 C1612 1.368 . S
H1597 C1605 0.950 . S
H1598 C1603 0.950 . S
H1599 C1604 0.949 . S
H1600 C1606 0.950 . S
H1601 C1607 0.950 . S
H1602 C1608 0.949 . S
C1603 H1598 0.950 . S
C1603 C1605 1.327 . S
C1603 C1609 1.429 . S
C1604 C1596 1.574 . S
C1604 H1599 0.949 . S
C1604 C1610 1.368 . S
C1605 C1589 1.349 . S
C1605 H1597 0.950 . S
C1605 C1603 1.327 . S
C1606 C1594 1.349 . S
C1606 H1600 0.950 . S
C1606 C1607 1.327 . S
C1607 H1601 0.950 . S
C1607 C1606 1.327 . S
C1607 C1611 1.429 . S
C1608 C1591 1.574 . S
C1608 H1602 0.949 . S
C1608 C1612 1.368 . S
C1609 C1590 1.429 . S
C1609 C1603 1.429 . S
C1609 C1610 1.523 . S
C1610 C1591 1.368 . S
C1610 C1604 1.368 . S
C1610 C1609 1.523 . S
C1611 C1595 1.429 . S
C1611 C1607 1.429 . S
C1611 C1612 1.523 . S
C1612 C1596 1.368 . S
C1612 C1608 1.368 . S
C1612 C1611 1.523 . S
H1613 C1588 0.950 . S
H1614 C1590 0.950 . S
H1615 C1591 0.949 . S
H1616 C1593 0.950 . S
H1617 C1595 0.950 . S
C1618 C1619 1.349 . S
C1618 C1620 1.327 . S
C1618 H1643 0.950 . S
C1619 C1618 1.349 . S
C1619 C1635 1.349 1_545 S
C1620 C1618 1.327 . S
C1620 C1639 1.429 . S
C1620 H1644 0.950 . S
C1621 C1638 1.574 1_556 S
C1621 C1640 1.368 1_565 S
C1621 H1645 0.949 . S
H1622 C1626 0.949 . S
C1623 C1624 1.349 . S
C1623 C1625 1.327 . S
C1623 H1646 0.950 . S
C1624 C1623 1.349 . S
C1624 C1636 1.349 1_565 S
C1625 C1623 1.327 . S
C1625 C1641 1.429 . S
C1625 H1647 0.950 . S
C1626 H1622 0.949 . S
C1626 C1634 1.574 1_554 S
C1626 C1642 1.368 1_545 S
H1627 C1635 0.950 . S
H1628 C1633 0.950 . S
H1629 C1634 0.949 . S
H1630 C1636 0.950 . S
H1631 C1637 0.950 . S
H1632 C1638 0.949 . S
C1633 H1628 0.950 . S
C1633 C1635 1.327 . S
C1633 C1639 1.429 1_565 S
C1634 C1626 1.574 1_556 S
C1634 H1629 0.949 . S
C1634 C1640 1.368 1_655 S
C1635 C1619 1.349 1_565 S
C1635 H1627 0.950 . S
C1635 C1633 1.327 . S
C1636 C1624 1.349 1_545 S
C1636 H1630 0.950 . S
C1636 C1637 1.327 . S
C1637 H1631 0.950 . S
C1637 C1636 1.327 . S
C1637 C1641 1.429 1_545 S
C1638 C1621 1.574 1_554 S
C1638 H1632 0.949 . S
C1638 C1642 1.368 1_455 S
C1639 C1620 1.429 . S
C1639 C1633 1.429 1_545 S
C1639 C1640 1.523 . S
C1640 C1621 1.368 1_545 S
C1640 C1634 1.368 1_455 S
C1640 C1639 1.523 . S
C1641 C1625 1.429 . S
C1641 C1637 1.429 1_565 S
C1641 C1642 1.523 . S
C1642 C1626 1.368 1_565 S
C1642 C1638 1.368 1_655 S
C1642 C1641 1.523 . S
H1643 C1618 0.950 . S
H1644 C1620 0.950 . S
H1645 C1621 0.949 . S
H1646 C1623 0.950 . S
H1647 C1625 0.950 . S
C1648 C1649 1.349 . S
C1648 C1650 1.327 . S
C1648 H1673 0.950 . S
C1649 C1648 1.349 . S
C1649 C1665 1.349 . S
C1650 C1648 1.327 . S
C1650 C1669 1.429 . S
C1650 H1674 0.950 . S
C1651 C1668 1.574 . S
C1651 C1670 1.368 . S
C1651 H1675 0.949 . S
H1652 C1656 0.949 . S
C1653 C1654 1.349 . S
C1653 C1655 1.327 . S
C1653 H1676 0.950 . S
C1654 C1653 1.349 . S
C1654 C1666 1.349 . S
C1655 C1653 1.327 . S
C1655 C1671 1.429 . S
C1655 H1677 0.950 . S
C1656 H1652 0.949 . S
C1656 C1664 1.574 . S
C1656 C1672 1.368 . S
H1657 C1665 0.950 . S
H1658 C1663 0.950 . S
H1659 C1664 0.949 . S
H1660 C1666 0.950 . S
H1661 C1667 0.950 . S
H1662 C1668 0.949 . S
C1663 H1658 0.950 . S
C1663 C1665 1.327 . S
C1663 C1669 1.429 . S
C1664 C1656 1.574 . S
C1664 H1659 0.949 . S
C1664 C1670 1.368 . S
C1665 C1649 1.349 . S
C1665 H1657 0.950 . S
C1665 C1663 1.327 . S
C1666 C1654 1.349 . S
C1666 H1660 0.950 . S
C1666 C1667 1.327 . S
C1667 H1661 0.950 . S
C1667 C1666 1.327 . S
C1667 C1671 1.429 . S
C1668 C1651 1.574 . S
C1668 H1662 0.949 . S
C1668 C1672 1.368 . S
C1669 C1650 1.429 . S
C1669 C1663 1.429 . S
C1669 C1670 1.523 . S
C1670 C1651 1.368 . S
C1670 C1664 1.368 . S
C1670 C1669 1.523 . S
C1671 C1655 1.429 . S
C1671 C1667 1.429 . S
C1671 C1672 1.523 . S
C1672 C1656 1.368 . S
C1672 C1668 1.368 . S
C1672 C1671 1.523 . S
H1673 C1648 0.950 . S
H1674 C1650 0.950 . S
H1675 C1651 0.949 . S
H1676 C1653 0.950 . S
H1677 C1655 0.950 . S
C1678 C1679 1.349 . S
C1678 C1680 1.327 . S
C1678 H1703 0.950 . S
C1679 C1678 1.349 . S
C1679 C1695 1.349 . S
C1680 C1678 1.327 . S
C1680 C1699 1.429 . S
C1680 H1704 0.950 . S
C1681 C1698 1.574 . S
C1681 C1700 1.368 . S
C1681 H1705 0.949 . S
H1682 C1686 0.949 . S
C1683 C1684 1.349 . S
C1683 C1685 1.327 . S
C1683 H1706 0.950 . S
C1684 C1683 1.349 . S
C1684 C1696 1.349 . S
C1685 C1683 1.327 . S
C1685 C1701 1.429 . S
C1685 H1707 0.950 . S
C1686 H1682 0.949 . S
C1686 C1694 1.574 . S
C1686 C1702 1.368 . S
H1687 C1695 0.950 . S
H1688 C1693 0.950 . S
H1689 C1694 0.949 . S
H1690 C1696 0.950 . S
H1691 C1697 0.950 . S
H1692 C1698 0.949 . S
C1693 H1688 0.950 . S
C1693 C1695 1.327 . S
C1693 C1699 1.429 . S
C1694 C1686 1.574 . S
C1694 H1689 0.949 . S
C1694 C1700 1.368 . S
C1695 C1679 1.349 . S
C1695 H1687 0.950 . S
C1695 C1693 1.327 . S
C1696 C1684 1.349 . S
C1696 H1690 0.950 . S
C1696 C1697 1.327 . S
C1697 H1691 0.950 . S
C1697 C1696 1.327 . S
C1697 C1701 1.429 . S
C1698 C1681 1.574 . S
C1698 H1692 0.949 . S
C1698 C1702 1.368 . S
C1699 C1680 1.429 . S
C1699 C1693 1.429 . S
C1699 C1700 1.523 . S
C1700 C1681 1.368 . S
C1700 C1694 1.368 . S
C1700 C1699 1.523 . S
C1701 C1685 1.429 . S
C1701 C1697 1.429 . S
C1701 C1702 1.523 . S
C1702 C1686 1.368 . S
C1702 C1698 1.368 . S
C1702 C1701 1.523 . S
H1703 C1678 0.950 . S
H1704 C1680 0.950 . S
H1705 C1681 0.949 . S
H1706 C1683 0.950 . S
H1707 C1685 0.950 . S
C1708 C1709 1.349 . S
C1708 C1710 1.327 . S
C1708 H1733 0.950 . S
C1709 C1708 1.349 . S
C1709 C1725 1.349 . S
C1710 C1708 1.327 . S
C1710 C1729 1.429 . S
C1710 H1734 0.950 . S
C1711 C1728 1.574 . S
C1711 C1730 1.368 . S
C1711 H1735 0.949 . S
H1712 C1716 0.949 . S
C1713 C1714 1.349 . S
C1713 C1715 1.327 . S
C1713 H1736 0.950 . S
C1714 C1713 1.349 . S
C1714 C1726 1.349 . S
C1715 C1713 1.327 . S
C1715 C1731 1.429 . S
C1715 H1737 0.950 . S
C1716 H1712 0.949 . S
C1716 C1724 1.574 . S
C1716 C1732 1.368 . S
H1717 C1725 0.950 . S
H1718 C1723 0.950 . S
H1719 C1724 0.949 . S
H1720 C1726 0.950 . S
H1721 C1727 0.950 . S
H1722 C1728 0.949 . S
C1723 H1718 0.950 . S
C1723 C1725 1.327 . S
C1723 C1729 1.429 . S
C1724 C1716 1.574 . S
C1724 H1719 0.949 . S
C1724 C1730 1.368 . S
C1725 C1709 1.349 . S
C1725 H1717 0.950 . S
C1725 C1723 1.327 . S
C1726 C1714 1.349 . S
C1726 H1720 0.950 . S
C1726 C1727 1.327 . S
C1727 H1721 0.950 . S
C1727 C1726 1.327 . S
C1727 C1731 1.429 . S
C1728 C1711 1.574 . S
C1728 H1722 0.949 . S
C1728 C1732 1.368 . S
C1729 C1710 1.429 . S
C1729 C1723 1.429 . S
C1729 C1730 1.523 . S
C1730 C1711 1.368 . S
C1730 C1724 1.368 . S
C1730 C1729 1.523 . S
C1731 C1715 1.429 . S
C1731 C1727 1.429 . S
C1731 C1732 1.523 . S
C1732 C1716 1.368 . S
C1732 C1728 1.368 . S
C1732 C1731 1.523 . S
H1733 C1708 0.950 . S
H1734 C1710 0.950 . S
H1735 C1711 0.949 . S
H1736 C1713 0.950 . S
H1737 C1715 0.950 . S
C1738 C1739 1.349 . S
C1738 C1740 1.327 . S
C1738 H1763 0.950 . S
C1739 C1738 1.349 . S
C1739 C1755 1.349 . S
C1740 C1738 1.327 . S
C1740 C1759 1.429 . S
C1740 H1764 0.950 . S
C1741 C1758 1.574 . S
C1741 C1760 1.368 . S
C1741 H1765 0.949 . S
H1742 C1746 0.949 . S
C1743 C1744 1.349 . S
C1743 C1745 1.327 . S
C1743 H1766 0.950 . S
C1744 C1743 1.349 . S
C1744 C1756 1.349 . S
C1745 C1743 1.327 . S
C1745 C1761 1.429 . S
C1745 H1767 0.950 . S
C1746 H1742 0.949 . S
C1746 C1754 1.574 . S
C1746 C1762 1.368 . S
H1747 C1755 0.950 . S
H1748 C1753 0.950 . S
H1749 C1754 0.949 . S
H1750 C1756 0.950 . S
H1751 C1757 0.950 . S
H1752 C1758 0.949 . S
C1753 H1748 0.950 . S
C1753 C1755 1.327 . S
C1753 C1759 1.429 . S
C1754 C1746 1.574 . S
C1754 H1749 0.949 . S
C1754 C1760 1.368 . S
C1755 C1739 1.349 . S
C1755 H1747 0.950 . S
C1755 C1753 1.327 . S
C1756 C1744 1.349 . S
C1756 H1750 0.950 . S
C1756 C1757 1.327 . S
C1757 H1751 0.950 . S
C1757 C1756 1.327 . S
C1757 C1761 1.429 . S
C1758 C1741 1.574 . S
C1758 H1752 0.949 . S
C1758 C1762 1.368 . S
C1759 C1740 1.429 . S
C1759 C1753 1.429 . S
C1759 C1760 1.523 . S
C1760 C1741 1.368 . S
C1760 C1754 1.368 . S
C1760 C1759 1.523 . S
C1761 C1745 1.429 . S
C1761 C1757 1.429 . S
C1761 C1762 1.523 . S
C1762 C1746 1.368 . S
C1762 C1758 1.368 . S
C1762 C1761 1.523 . S
H1763 C1738 0.950 . S
H1764 C1740 0.950 . S
H1765 C1741 0.949 . S
H1766 C1743 0.950 . S
H1767 C1745 0.950 . S
C1768 C1769 1.349 . S
C1768 C1770 1.327 . S
C1768 H1793 0.950 . S
C1769 C1768 1.349 . S
C1769 C1785 1.349 . S
C1770 C1768 1.327 . S
C1770 C1789 1.429 . S
C1770 H1794 0.950 . S
C1771 C1788 1.574 1_554 S
C1771 C1790 1.368 . S
C1771 H1795 0.949 . S
H1772 C1776 0.949 . S
C1773 C1774 1.349 . S
C1773 C1775 1.327 . S
C1773 H1796 0.950 . S
C1774 C1773 1.349 . S
C1774 C1786 1.349 . S
C1775 C1773 1.327 . S
C1775 C1791 1.429 . S
C1775 H1797 0.950 . S
C1776 H1772 0.949 . S
C1776 C1784 1.574 1_556 S
C1776 C1792 1.368 . S
H1777 C1785 0.950 . S
H1778 C1783 0.950 . S
H1779 C1784 0.949 . S
H1780 C1786 0.950 . S
H1781 C1787 0.950 . S
H1782 C1788 0.949 . S
C1783 H1778 0.950 . S
C1783 C1785 1.327 . S
C1783 C1789 1.429 . S
C1784 C1776 1.574 1_554 S
C1784 H1779 0.949 . S
C1784 C1790 1.368 . S
C1785 C1769 1.349 . S
C1785 H1777 0.950 . S
C1785 C1783 1.327 . S
C1786 C1774 1.349 . S
C1786 H1780 0.950 . S
C1786 C1787 1.327 . S
C1787 H1781 0.950 . S
C1787 C1786 1.327 . S
C1787 C1791 1.429 . S
C1788 C1771 1.574 1_556 S
C1788 H1782 0.949 . S
C1788 C1792 1.368 . S
C1789 C1770 1.429 . S
C1789 C1783 1.429 . S
C1789 C1790 1.523 . S
C1790 C1771 1.368 . S
C1790 C1784 1.368 . S
C1790 C1789 1.523 . S
C1791 C1775 1.429 . S
C1791 C1787 1.429 . S
C1791 C1792 1.523 . S
C1792 C1776 1.368 . S
C1792 C1788 1.368 . S
C1792 C1791 1.523 . S
H1793 C1768 0.950 . S
H1794 C1770 0.950 . S
H1795 C1771 0.949 . S
H1796 C1773 0.950 . S
H1797 C1775 0.950 . S
C1798 C1799 1.349 . S
C1798 C1800 1.327 . S
C1798 H1823 0.950 . S
C1799 C1798 1.349 . S
C1799 C1815 1.349 . S
C1800 C1798 1.327 . S
C1800 C1819 1.429 . S
C1800 H1824 0.950 . S
C1801 C1818 1.574 . S
C1801 C1820 1.368 1_655 S
C1801 H1825 0.949 . S
H1802 C1806 0.949 . S
C1803 C1804 1.349 . S
C1803 C1805 1.327 . S
C1803 H1826 0.950 . S
C1804 C1803 1.349 . S
C1804 C1816 1.349 . S
C1805 C1803 1.327 . S
C1805 C1821 1.429 . S
C1805 H1827 0.950 . S
C1806 H1802 0.949 . S
C1806 C1814 1.574 . S
C1806 C1822 1.368 1_455 S
H1807 C1815 0.950 . S
H1808 C1813 0.927 1_655 S
H1809 C1814 0.949 . S
H1810 C1816 0.950 . S
H1811 C1817 0.950 1_455 S
H1812 C1818 0.949 . S
C1813 H1808 0.927 1_455 S
C1813 C1815 1.327 . S
C1813 C1819 1.429 . S
C1814 C1806 1.574 . S
C1814 H1809 0.949 . S
C1814 C1820 1.368 . S
C1815 C1799 1.349 . S
C1815 H1807 0.950 . S
C1815 C1813 1.327 . S
C1816 C1804 1.349 . S
C1816 H1810 0.950 . S
C1816 C1817 1.327 . S
C1817 H1811 0.950 1_655 S
C1817 C1816 1.327 . S
C1817 C1821 1.429 . S
C1818 C1801 1.574 . S
C1818 H1812 0.949 . S
C1818 C1822 1.368 . S
C1819 C1800 1.429 . S
C1819 C1813 1.429 . S
C1819 C1820 1.523 . S
C1820 C1801 1.368 1_455 S
C1820 C1814 1.368 . S
C1820 C1819 1.523 . S
C1821 C1805 1.429 . S
C1821 C1817 1.429 . S
C1821 C1822 1.523 . S
C1822 C1806 1.368 1_655 S
C1822 C1818 1.368 . S
C1822 C1821 1.523 . S
H1823 C1798 0.950 . S
H1824 C1800 0.950 . S
H1825 C1801 0.949 . S
H1826 C1803 0.950 . S
H1827 C1805 0.950 . S
C1828 C1829 1.349 . S
C1828 C1830 1.327 . S
C1828 H1853 0.950 . S
C1829 C1828 1.349 . S
C1829 C1845 1.349 . S
C1830 C1828 1.327 . S
C1830 C1849 1.429 . S
C1830 H1854 0.957 . S
C1831 C1848 1.574 1_554 S
C1831 C1850 1.368 . S
C1831 H1855 0.949 . S
H1832 C1836 0.950 . S
C1833 C1834 1.349 . S
C1833 C1835 1.327 . S
C1833 H1856 0.950 . S
C1834 C1833 1.349 . S
C1834 C1846 1.349 . S
C1835 C1833 1.327 . S
C1835 C1851 1.429 . S
C1835 H1857 0.933 1_655 S
C1836 H1832 0.950 . S
C1836 C1844 1.571 1_556 S
C1836 C1852 1.370 . S
H1837 C1845 0.950 . S
H1838 C1843 0.950 . S
H1839 C1844 0.949 . S
H1840 C1846 0.950 . S
H1841 C1847 0.950 . S
H1842 C1848 0.949 . S
C1843 H1838 0.950 . S
C1843 C1845 1.327 . S
C1843 C1849 1.429 . S
C1844 C1836 1.571 1_554 S
C1844 H1839 0.949 . S
C1844 C1850 1.368 1_655 S
C1845 C1829 1.349 . S
C1845 H1837 0.950 . S
C1845 C1843 1.327 . S
C1846 C1834 1.349 . S
C1846 H1840 0.950 . S
C1846 C1847 1.327 . S
C1847 H1841 0.950 . S
C1847 C1846 1.327 . S
C1847 C1851 1.429 . S
C1848 C1831 1.574 1_556 S
C1848 H1842 0.949 . S
C1848 C1852 1.368 1_455 S
C1849 C1830 1.429 . S
C1849 C1843 1.429 . S
C1849 C1850 1.523 . S
C1850 C1831 1.368 . S
C1850 C1844 1.368 1_455 S
C1850 C1849 1.523 . S
C1851 C1835 1.429 . S
C1851 C1847 1.429 . S
C1851 C1852 1.523 . S
C1852 C1836 1.370 . S
C1852 C1848 1.368 1_655 S
C1852 C1851 1.523 . S
H1853 C1828 0.950 . S
H1854 C1830 0.957 . S
H1855 C1831 0.949 . S
H1856 C1833 0.950 . S
H1857 C1835 0.933 1_455 S
C1858 C1859 1.349 . S
C1858 C1860 1.327 . S
C1858 H1883 0.950 . S
C1859 C1858 1.349 . S
C1859 C1875 1.349 . S
C1860 C1858 1.327 . S
C1860 C1879 1.429 . S
C1860 H1884 0.950 . S
C1861 C1878 1.574 . S
C1861 C1880 1.368 . S
C1861 H1885 0.949 . S
H1862 C1866 0.949 . S
C1863 C1864 1.349 . S
C1863 C1865 1.327 . S
C1863 H1886 0.950 . S
C1864 C1863 1.349 . S
C1864 C1876 1.349 . S
C1865 C1863 1.327 . S
C1865 C1881 1.429 . S
C1865 H1887 0.950 . S
C1866 H1862 0.949 . S
C1866 C1874 1.574 . S
C1866 C1882 1.368 . S
H1867 C1875 0.950 . S
H1868 C1873 0.950 . S
H1869 C1874 0.949 . S
H1870 C1876 0.950 . S
H1871 C1877 0.950 . S
H1872 C1878 0.949 . S
C1873 H1868 0.950 . S
C1873 C1875 1.327 . S
C1873 C1879 1.429 . S
C1874 C1866 1.574 . S
C1874 H1869 0.949 . S
C1874 C1880 1.368 . S
C1875 C1859 1.349 . S
C1875 H1867 0.950 . S
C1875 C1873 1.327 . S
C1876 C1864 1.349 . S
C1876 H1870 0.950 . S
C1876 C1877 1.327 . S
C1877 H1871 0.950 . S
C1877 C1876 1.327 . S
C1877 C1881 1.429 . S
C1878 C1861 1.574 . S
C1878 H1872 0.949 . S
C1878 C1882 1.368 . S
C1879 C1860 1.429 . S
C1879 C1873 1.429 . S
C1879 C1880 1.523 . S
C1880 C1861 1.368 . S
C1880 C1874 1.368 . S
C1880 C1879 1.523 . S
C1881 C1865 1.429 . S
C1881 C1877 1.429 . S
C1881 C1882 1.523 . S
C1882 C1866 1.368 . S
C1882 C1878 1.368 . S
C1882 C1881 1.523 . S
H1883 C1858 0.950 . S
H1884 C1860 0.950 . S
H1885 C1861 0.949 . S
H1886 C1863 0.950 . S
H1887 C1865 0.950 . S
C1888 C1889 1.349 . S
C1888 C1890 1.327 . S
C1888 H1913 0.950 . S
C1889 C1888 1.349 . S
C1889 C1905 1.349 . S
C1890 C1888 1.327 . S
C1890 C1909 1.429 . S
C1890 H1914 0.950 . S
C1891 C1908 1.574 . S
C1891 C1910 1.368 . S
C1891 H1915 0.949 . S
H1892 C1896 0.949 . S
C1893 C1894 1.349 . S
C1893 C1895 1.327 . S
C1893 H1916 0.950 . S
C1894 C1893 1.349 . S
C1894 C1906 1.349 . S
C1895 C1893 1.327 . S
C1895 C1911 1.429 . S
C1895 H1917 0.950 . S
C1896 H1892 0.949 . S
C1896 C1904 1.574 . S
C1896 C1912 1.368 . S
H1897 C1905 0.950 . S
H1898 C1903 0.950 . S
H1899 C1904 0.949 . S
H1900 C1906 0.950 . S
H1901 C1907 0.950 . S
H1902 C1908 0.949 . S
C1903 H1898 0.950 . S
C1903 C1905 1.327 . S
C1903 C1909 1.429 . S
C1904 C1896 1.574 . S
C1904 H1899 0.949 . S
C1904 C1910 1.368 . S
C1905 C1889 1.349 . S
C1905 H1897 0.950 . S
C1905 C1903 1.327 . S
C1906 C1894 1.349 . S
C1906 H1900 0.950 . S
C1906 C1907 1.327 . S
C1907 H1901 0.950 . S
C1907 C1906 1.327 . S
C1907 C1911 1.429 . S
C1908 C1891 1.574 . S
C1908 H1902 0.949 . S
C1908 C1912 1.368 . S
C1909 C1890 1.429 . S
C1909 C1903 1.429 . S
C1909 C1910 1.523 . S
C1910 C1891 1.368 . S
C1910 C1904 1.368 . S
C1910 C1909 1.523 . S
C1911 C1895 1.429 . S
C1911 C1907 1.429 . S
C1911 C1912 1.523 . S
C1912 C1896 1.368 . S
C1912 C1908 1.368 . S
C1912 C1911 1.523 . S
H1913 C1888 0.950 . S
H1914 C1890 0.950 . S
H1915 C1891 0.949 . S
H1916 C1893 0.950 . S
H1917 C1895 0.950 . S
C1918 C1919 1.349 . S
C1918 C1920 1.327 . S
C1918 H1943 0.950 1_545 S
C1919 C1918 1.349 . S
C1919 C1935 1.349 . S
C1920 C1918 1.327 . S
C1920 C1939 1.429 . S
C1920 H1944 0.950 . S
C1921 C1938 1.574 . S
C1921 C1940 1.368 . S
C1921 H1945 0.949 . S
H1922 C1926 0.949 . S
C1923 C1924 1.349 . S
C1923 C1925 1.327 . S
C1923 H1946 0.950 . S
C1924 C1923 1.349 . S
C1924 C1936 1.349 . S
C1925 C1923 1.327 . S
C1925 C1941 1.429 . S
C1925 H1947 0.950 . S
C1926 H1922 0.949 . S
C1926 C1934 1.574 . S
C1926 C1942 1.368 . S
H1927 C1935 0.950 . S
H1928 C1933 0.950 . S
H1929 C1934 0.949 . S
H1930 C1936 0.950 . S
H1931 C1937 0.950 . S
H1932 C1938 0.949 . S
C1933 H1928 0.950 . S
C1933 C1935 1.327 . S
C1933 C1939 1.429 . S
C1934 C1926 1.574 . S
C1934 H1929 0.949 . S
C1934 C1940 1.368 . S
C1935 C1919 1.349 . S
C1935 H1927 0.950 . S
C1935 C1933 1.327 . S
C1936 C1924 1.349 . S
C1936 H1930 0.950 . S
C1936 C1937 1.327 . S
C1937 H1931 0.950 . S
C1937 C1936 1.327 . S
C1937 C1941 1.429 . S
C1938 C1921 1.574 . S
C1938 H1932 0.949 . S
C1938 C1942 1.368 . S
C1939 C1920 1.429 . S
C1939 C1933 1.429 . S
C1939 C1940 1.523 . S
C1940 C1921 1.368 . S
C1940 C1934 1.368 . S
C1940 C1939 1.523 . S
C1941 C1925 1.429 . S
C1941 C1937 1.429 . S
C1941 C1942 1.523 . S
C1942 C1926 1.368 . S
C1942 C1938 1.368 . S
C1942 C1941 1.523 . S
H1943 C1918 0.950 1_565 S
H1944 C1920 0.950 . S
H1945 C1921 0.949 . S
H1946 C1923 0.950 . S
H1947 C1925 0.950 . S
C1948 C1949 1.349 . S
C1948 C1950 1.327 . S
C1948 H1973 0.950 . S
C1949 C1948 1.349 . S
C1949 C1965 1.349 . S
C1950 C1948 1.327 . S
C1950 C1969 1.429 . S
C1950 H1974 0.950 . S
C1951 C1968 1.574 . S
C1951 C1970 1.368 . S
C1951 H1975 0.949 . S
H1952 C1956 0.949 . S
C1953 C1954 1.349 . S
C1953 C1955 1.327 . S
C1953 H1976 0.950 . S
C1954 C1953 1.349 . S
C1954 C1966 1.349 . S
C1955 C1953 1.327 . S
C1955 C1971 1.429 . S
C1955 H1977 0.950 . S
C1956 H1952 0.949 . S
C1956 C1964 1.574 . S
C1956 C1972 1.368 . S
H1957 C1965 0.950 . S
H1958 C1963 0.950 . S
H1959 C1964 0.949 . S
H1960 C1966 0.950 . S
H1961 C1967 0.950 . S
H1962 C1968 0.949 . S
C1963 H1958 0.950 . S
C1963 C1965 1.327 . S
C1963 C1969 1.429 . S
C1964 C1956 1.574 . S
C1964 H1959 0.949 . S
C1964 C1970 1.368 . S
C1965 C1949 1.349 . S
C1965 H1957 0.950 . S
C1965 C1963 1.327 . S
C1966 C1954 1.349 . S
C1966 H1960 0.950 . S
C1966 C1967 1.327 . S
C1967 H1961 0.950 . S
C1967 C1966 1.327 . S
C1967 C1971 1.429 . S
C1968 C1951 1.574 . S
C1968 H1962 0.949 . S
C1968 C1972 1.368 . S
C1969 C1950 1.429 . S
C1969 C1963 1.429 . S
C1969 C1970 1.523 . S
C1970 C1951 1.368 . S
C1970 C1964 1.368 . S
C1970 C1969 1.523 . S
C1971 C1955 1.429 . S
C1971 C1967 1.429 . S
C1971 C1972 1.523 . S
C1972 C1956 1.368 . S
C1972 C1968 1.368 . S
C1972 C1971 1.523 . S
H1973 C1948 0.950 . S
H1974 C1950 0.950 . S
H1975 C1951 0.949 . S
H1976 C1953 0.950 . S
H1977 C1955 0.950 . S
C1978 C1979 1.349 . S
C1978 C1980 1.327 . S
C1978 H2003 0.950 . S
C1979 C1978 1.349 . S
C1979 C1995 1.349 . S
C1980 C1978 1.327 . S
C1980 C1999 1.429 . S
C1980 H2004 0.950 . S
C1981 C1998 1.574 . S
C1981 C2000 1.368 . S
C1981 H2005 0.949 . S
H1982 C1986 0.949 . S
C1983 C1984 1.349 . S
C1983 C1985 1.327 . S
C1983 H2006 0.950 . S
C1984 C1983 1.349 . S
C1984 C1996 1.349 . S
C1985 C1983 1.327 . S
C1985 C2001 1.429 . S
C1985 H2007 0.950 . S
C1986 H1982 0.949 . S
C1986 C1994 1.574 . S
C1986 C2002 1.368 . S
H1987 C1995 0.950 . S
H1988 C1993 0.950 . S
H1989 C1994 0.949 . S
H1990 C1996 0.950 . S
H1991 C1997 0.950 . S
H1992 C1998 0.949 . S
C1993 H1988 0.950 . S
C1993 C1995 1.327 . S
C1993 C1999 1.429 . S
C1994 C1986 1.574 . S
C1994 H1989 0.949 . S
C1994 C2000 1.368 . S
C1995 C1979 1.349 . S
C1995 H1987 0.950 . S
C1995 C1993 1.327 . S
C1996 C1984 1.349 . S
C1996 H1990 0.950 . S
C1996 C1997 1.327 . S
C1997 H1991 0.950 . S
C1997 C1996 1.327 . S
C1997 C2001 1.429 . S
C1998 C1981 1.574 . S
C1998 H1992 0.949 . S
C1998 C2002 1.368 . S
C1999 C1980 1.429 . S
C1999 C1993 1.429 . S
C1999 C2000 1.523 . S
C2000 C1981 1.368 . S
C2000 C1994 1.368 . S
C2000 C1999 1.523 . S
C2001 C1985 1.429 . S
C2001 C1997 1.429 . S
C2001 C2002 1.523 . S
C2002 C1986 1.368 . S
C2002 C1998 1.368 . S
C2002 C2001 1.523 . S
H2003 C1978 0.950 . S
H2004 C1980 0.950 . S
H2005 C1981 0.949 . S
H2006 C1983 0.950 . S
H2007 C1985 0.950 . S
C2008 C2009 1.349 . S
C2008 C2010 1.327 . S
C2008 H2033 0.950 . S
C2009 C2008 1.349 . S
C2009 C2025 1.349 . S
C2010 C2008 1.327 . S
C2010 C2029 1.429 . S
C2010 H2034 0.950 . S
C2011 C2028 1.574 . S
C2011 C2030 1.368 . S
C2011 H2035 0.949 . S
H2012 C2016 0.949 . S
C2013 C2014 1.349 . S
C2013 C2015 1.327 . S
C2013 H2036 0.950 . S
C2014 C2013 1.349 . S
C2014 C2026 1.349 . S
C2015 C2013 1.327 . S
C2015 C2031 1.429 . S
C2015 H2037 0.950 . S
C2016 H2012 0.949 . S
C2016 C2024 1.574 . S
C2016 C2032 1.368 . S
H2017 C2025 0.950 . S
H2018 C2023 0.950 . S
H2019 C2024 0.949 . S
H2020 C2026 0.950 . S
H2021 C2027 0.950 . S
H2022 C2028 0.949 . S
C2023 H2018 0.950 . S
C2023 C2025 1.327 . S
C2023 C2029 1.429 . S
C2024 C2016 1.574 . S
C2024 H2019 0.949 . S
C2024 C2030 1.368 . S
C2025 C2009 1.349 . S
C2025 H2017 0.950 . S
C2025 C2023 1.327 . S
C2026 C2014 1.349 . S
C2026 H2020 0.950 . S
C2026 C2027 1.327 . S
C2027 H2021 0.950 . S
C2027 C2026 1.327 . S
C2027 C2031 1.429 . S
C2028 C2011 1.574 . S
C2028 H2022 0.949 . S
C2028 C2032 1.368 . S
C2029 C2010 1.429 . S
C2029 C2023 1.429 . S
C2029 C2030 1.523 . S
C2030 C2011 1.368 . S
C2030 C2024 1.368 . S
C2030 C2029 1.523 . S
C2031 C2015 1.429 . S
C2031 C2027 1.429 . S
C2031 C2032 1.523 . S
C2032 C2016 1.368 . S
C2032 C2028 1.368 . S
C2032 C2031 1.523 . S
H2033 C2008 0.950 . S
H2034 C2010 0.950 . S
H2035 C2011 0.949 . S
H2036 C2013 0.950 . S
H2037 C2015 0.950 . S
C2038 C2039 1.349 . S
C2038 C2040 1.327 . S
C2038 H2063 0.950 . S
C2039 C2038 1.349 . S
C2039 C2055 1.349 . S
C2040 C2038 1.327 . S
C2040 C2059 1.429 . S
C2040 H2064 0.950 . S
C2041 C2058 1.574 . S
C2041 C2060 1.368 . S
C2041 H2065 0.949 . S
H2042 C2046 0.949 . S
C2043 C2044 1.349 . S
C2043 C2045 1.327 . S
C2043 H2066 0.950 . S
C2044 C2043 1.349 . S
C2044 C2056 1.349 . S
C2045 C2043 1.327 . S
C2045 C2061 1.429 . S
C2045 H2067 0.950 . S
C2046 H2042 0.949 . S
C2046 C2054 1.574 . S
C2046 C2062 1.368 . S
H2047 C2055 0.950 . S
H2048 C2053 0.950 . S
H2049 C2054 0.949 . S
H2050 C2056 0.950 . S
H2051 C2057 0.950 . S
H2052 C2058 0.949 . S
C2053 H2048 0.950 . S
C2053 C2055 1.327 . S
C2053 C2059 1.429 . S
C2054 C2046 1.574 . S
C2054 H2049 0.949 . S
C2054 C2060 1.368 . S
C2055 C2039 1.349 . S
C2055 H2047 0.950 . S
C2055 C2053 1.327 . S
C2056 C2044 1.349 . S
C2056 H2050 0.950 . S
C2056 C2057 1.327 . S
C2057 H2051 0.950 . S
C2057 C2056 1.327 . S
C2057 C2061 1.429 . S
C2058 C2041 1.574 . S
C2058 H2052 0.949 . S
C2058 C2062 1.368 . S
C2059 C2040 1.429 . S
C2059 C2053 1.429 . S
C2059 C2060 1.523 . S
C2060 C2041 1.368 . S
C2060 C2054 1.368 . S
C2060 C2059 1.523 . S
C2061 C2045 1.429 . S
C2061 C2057 1.429 . S
C2061 C2062 1.523 . S
C2062 C2046 1.368 . S
C2062 C2058 1.368 . S
C2062 C2061 1.523 . S
H2063 C2038 0.950 . S
H2064 C2040 0.950 . S
H2065 C2041 0.949 . S
H2066 C2043 0.950 . S
H2067 C2045 0.950 . S
C2068 C2069 1.349 . S
C2068 C2070 1.327 . S
C2068 H2093 0.950 . S
C2069 C2068 1.349 . S
C2069 C2085 1.349 . S
C2070 C2068 1.327 . S
C2070 C2089 1.429 . S
C2070 H2094 0.950 . S
C2071 C2088 1.574 . S
C2071 C2090 1.368 . S
C2071 H2095 0.949 . S
H2072 C2076 0.949 . S
C2073 C2074 1.349 . S
C2073 C2075 1.327 . S
C2073 H2096 0.950 . S
C2074 C2073 1.349 . S
C2074 C2086 1.349 . S
C2075 C2073 1.327 . S
C2075 C2091 1.429 . S
C2075 H2097 0.950 . S
C2076 H2072 0.949 . S
C2076 C2084 1.574 . S
C2076 C2092 1.368 . S
H2077 C2085 0.950 . S
H2078 C2083 0.950 . S
H2079 C2084 0.949 . S
H2080 C2086 0.950 . S
H2081 C2087 0.950 . S
H2082 C2088 0.949 . S
C2083 H2078 0.950 . S
C2083 C2085 1.327 . S
C2083 C2089 1.429 . S
C2084 C2076 1.574 . S
C2084 H2079 0.949 . S
C2084 C2090 1.368 . S
C2085 C2069 1.349 . S
C2085 H2077 0.950 . S
C2085 C2083 1.327 . S
C2086 C2074 1.349 . S
C2086 H2080 0.950 . S
C2086 C2087 1.327 . S
C2087 H2081 0.950 . S
C2087 C2086 1.327 . S
C2087 C2091 1.429 . S
C2088 C2071 1.574 . S
C2088 H2082 0.949 . S
C2088 C2092 1.368 . S
C2089 C2070 1.429 . S
C2089 C2083 1.429 . S
C2089 C2090 1.523 . S
C2090 C2071 1.368 . S
C2090 C2084 1.368 . S
C2090 C2089 1.523 . S
C2091 C2075 1.429 . S
C2091 C2087 1.429 . S
C2091 C2092 1.523 . S
C2092 C2076 1.368 . S
C2092 C2088 1.368 . S
C2092 C2091 1.523 . S
H2093 C2068 0.950 . S
H2094 C2070 0.950 . S
H2095 C2071 0.949 . S
H2096 C2073 0.950 . S
H2097 C2075 0.950 . S
C2098 C2099 1.349 . S
C2098 C2100 1.327 . S
C2098 H2123 0.950 . S
C2099 C2098 1.349 . S
C2099 C2115 1.349 . S
C2100 C2098 1.327 . S
C2100 C2119 1.429 . S
C2100 H2124 0.950 . S
C2101 C2118 1.574 . S
C2101 C2120 1.368 . S
C2101 H2125 0.949 . S
H2102 C2106 0.949 . S
C2103 C2104 1.349 . S
C2103 C2105 1.327 . S
C2103 H2126 0.950 . S
C2104 C2103 1.349 . S
C2104 C2116 1.349 . S
C2105 C2103 1.327 . S
C2105 C2121 1.429 . S
C2105 H2127 0.950 . S
C2106 H2102 0.949 . S
C2106 C2114 1.574 . S
C2106 C2122 1.368 . S
H2107 C2115 0.950 . S
H2108 C2113 0.950 . S
H2109 C2114 0.949 . S
H2110 C2116 0.950 . S
H2111 C2117 0.950 . S
H2112 C2118 0.949 . S
C2113 H2108 0.950 . S
C2113 C2115 1.327 . S
C2113 C2119 1.429 . S
C2114 C2106 1.574 . S
C2114 H2109 0.949 . S
C2114 C2120 1.368 . S
C2115 C2099 1.349 . S
C2115 H2107 0.950 . S
C2115 C2113 1.327 . S
C2116 C2104 1.349 . S
C2116 H2110 0.950 . S
C2116 C2117 1.327 . S
C2117 H2111 0.950 . S
C2117 C2116 1.327 . S
C2117 C2121 1.429 . S
C2118 C2101 1.574 . S
C2118 H2112 0.949 . S
C2118 C2122 1.368 . S
C2119 C2100 1.429 . S
C2119 C2113 1.429 . S
C2119 C2120 1.523 . S
C2120 C2101 1.368 . S
C2120 C2114 1.368 . S
C2120 C2119 1.523 . S
C2121 C2105 1.429 . S
C2121 C2117 1.429 . S
C2121 C2122 1.523 . S
C2122 C2106 1.368 . S
C2122 C2118 1.368 . S
C2122 C2121 1.523 . S
H2123 C2098 0.950 . S
H2124 C2100 0.950 . S
H2125 C2101 0.949 . S
H2126 C2103 0.950 . S
H2127 C2105 0.950 . S
C2128 C2129 1.349 . S
C2128 C2130 1.327 . S
C2128 H2153 0.950 . S
C2129 C2128 1.349 . S
C2129 C2145 1.349 . S
C2130 C2128 1.327 . S
C2130 C2149 1.429 . S
C2130 H2154 0.950 . S
C2131 C2148 1.574 . S
C2131 C2150 1.368 . S
C2131 H2155 0.949 . S
H2132 C2136 0.949 . S
C2133 C2134 1.349 . S
C2133 C2135 1.327 . S
C2133 H2156 0.950 . S
C2134 C2133 1.349 . S
C2134 C2146 1.349 . S
C2135 C2133 1.327 . S
C2135 C2151 1.429 . S
C2135 H2157 0.950 . S
C2136 H2132 0.949 . S
C2136 C2144 1.574 . S
C2136 C2152 1.368 . S
H2137 C2145 0.950 . S
H2138 C2143 0.950 . S
H2139 C2144 0.949 . S
H2140 C2146 0.950 . S
H2141 C2147 0.950 . S
H2142 C2148 0.949 . S
C2143 H2138 0.950 . S
C2143 C2145 1.327 . S
C2143 C2149 1.429 . S
C2144 C2136 1.574 . S
C2144 H2139 0.949 . S
C2144 C2150 1.368 . S
C2145 C2129 1.349 . S
C2145 H2137 0.950 . S
C2145 C2143 1.327 . S
C2146 C2134 1.349 . S
C2146 H2140 0.950 . S
C2146 C2147 1.327 . S
C2147 H2141 0.950 . S
C2147 C2146 1.327 . S
C2147 C2151 1.429 . S
C2148 C2131 1.574 . S
C2148 H2142 0.949 . S
C2148 C2152 1.368 . S
C2149 C2130 1.429 . S
C2149 C2143 1.429 . S
C2149 C2150 1.523 . S
C2150 C2131 1.368 . S
C2150 C2144 1.368 . S
C2150 C2149 1.523 . S
C2151 C2135 1.429 . S
C2151 C2147 1.429 . S
C2151 C2152 1.523 . S
C2152 C2136 1.368 . S
C2152 C2148 1.368 . S
C2152 C2151 1.523 . S
H2153 C2128 0.950 . S
H2154 C2130 0.950 . S
H2155 C2131 0.949 . S
H2156 C2133 0.950 . S
H2157 C2135 0.950 . S
C2158 C2159 1.349 . S
C2158 C2160 1.327 . S
C2158 H2183 0.950 . S
C2159 C2158 1.349 . S
C2159 C2175 1.349 . S
C2160 C2158 1.327 . S
C2160 C2179 1.429 . S
C2160 H2184 0.950 . S
C2161 C2178 1.574 . S
C2161 C2180 1.368 . S
C2161 H2185 0.949 . S
H2162 C2166 0.949 . S
C2163 C2164 1.349 . S
C2163 C2165 1.327 . S
C2163 H2186 0.950 . S
C2164 C2163 1.349 . S
C2164 C2176 1.349 . S
C2165 C2163 1.327 . S
C2165 C2181 1.429 . S
C2165 H2187 0.950 . S
C2166 H2162 0.949 . S
C2166 C2174 1.574 . S
C2166 C2182 1.368 . S
H2167 C2175 0.950 . S
H2168 C2173 0.950 . S
H2169 C2174 0.949 . S
H2170 C2176 0.950 . S
H2171 C2177 0.950 . S
H2172 C2178 0.949 . S
C2173 H2168 0.950 . S
C2173 C2175 1.327 . S
C2173 C2179 1.429 . S
C2174 C2166 1.574 . S
C2174 H2169 0.949 . S
C2174 C2180 1.368 . S
C2175 C2159 1.349 . S
C2175 H2167 0.950 . S
C2175 C2173 1.327 . S
C2176 C2164 1.349 . S
C2176 H2170 0.950 . S
C2176 C2177 1.327 . S
C2177 H2171 0.950 . S
C2177 C2176 1.327 . S
C2177 C2181 1.429 . S
C2178 C2161 1.574 . S
C2178 H2172 0.949 . S
C2178 C2182 1.368 . S
C2179 C2160 1.429 . S
C2179 C2173 1.429 . S
C2179 C2180 1.523 . S
C2180 C2161 1.368 . S
C2180 C2174 1.368 . S
C2180 C2179 1.523 . S
C2181 C2165 1.429 . S
C2181 C2177 1.429 . S
C2181 C2182 1.523 . S
C2182 C2166 1.368 . S
C2182 C2178 1.368 . S
C2182 C2181 1.523 . S
H2183 C2158 0.950 . S
H2184 C2160 0.950 . S
H2185 C2161 0.949 . S
H2186 C2163 0.950 . S
H2187 C2165 0.950 . S
C2188 C2189 1.349 . S
C2188 C2190 1.327 . S
C2188 H2213 0.950 . S
C2189 C2188 1.349 . S
C2189 C2205 1.349 . S
C2190 C2188 1.327 . S
C2190 C2209 1.429 . S
C2190 H2214 0.950 . S
C2191 C2208 1.574 . S
C2191 C2210 1.368 . S
C2191 H2215 0.949 . S
H2192 C2196 0.949 . S
C2193 C2194 1.349 . S
C2193 C2195 1.327 . S
C2193 H2216 0.950 . S
C2194 C2193 1.349 . S
C2194 C2206 1.349 . S
C2195 C2193 1.327 . S
C2195 C2211 1.429 . S
C2195 H2217 0.950 . S
C2196 H2192 0.949 . S
C2196 C2204 1.574 . S
C2196 C2212 1.368 . S
H2197 C2205 0.950 . S
H2198 C2203 0.950 . S
H2199 C2204 0.949 . S
H2200 C2206 0.950 . S
H2201 C2207 0.950 . S
H2202 C2208 0.949 . S
C2203 H2198 0.950 . S
C2203 C2205 1.327 . S
C2203 C2209 1.429 . S
C2204 C2196 1.574 . S
C2204 H2199 0.949 . S
C2204 C2210 1.368 . S
C2205 C2189 1.349 . S
C2205 H2197 0.950 . S
C2205 C2203 1.327 . S
C2206 C2194 1.349 . S
C2206 H2200 0.950 . S
C2206 C2207 1.327 . S
C2207 H2201 0.950 . S
C2207 C2206 1.327 . S
C2207 C2211 1.429 . S
C2208 C2191 1.574 . S
C2208 H2202 0.949 . S
C2208 C2212 1.368 . S
C2209 C2190 1.429 . S
C2209 C2203 1.429 . S
C2209 C2210 1.523 . S
C2210 C2191 1.368 . S
C2210 C2204 1.368 . S
C2210 C2209 1.523 . S
C2211 C2195 1.429 . S
C2211 C2207 1.429 . S
C2211 C2212 1.523 . S
C2212 C2196 1.368 . S
C2212 C2208 1.368 . S
C2212 C2211 1.523 . S
H2213 C2188 0.950 . S
H2214 C2190 0.950 . S
H2215 C2191 0.949 . S
H2216 C2193 0.950 . S
H2217 C2195 0.950 . S
C2218 C2219 1.349 . S
C2218 C2220 1.327 . S
C2218 H2243 0.950 . S
C2219 C2218 1.349 . S
C2219 C2235 1.349 . S
C2220 C2218 1.327 . S
C2220 C2239 1.429 . S
C2220 H2244 0.950 . S
C2221 C2238 1.574 . S
C2221 C2240 1.368 . S
C2221 H2245 0.949 . S
H2222 C2226 0.949 . S
C2223 C2224 1.349 . S
C2223 C2225 1.327 . S
C2223 H2246 0.950 . S
C2224 C2223 1.349 . S
C2224 C2236 1.349 . S
C2225 C2223 1.327 . S
C2225 C2241 1.429 . S
C2225 H2247 0.950 . S
C2226 H2222 0.949 . S
C2226 C2234 1.574 . S
C2226 C2242 1.368 . S
H2227 C2235 0.950 . S
H2228 C2233 0.950 . S
H2229 C2234 0.949 . S
H2230 C2236 0.950 . S
H2231 C2237 0.950 . S
H2232 C2238 0.949 . S
C2233 H2228 0.950 . S
C2233 C2235 1.327 . S
C2233 C2239 1.429 . S
C2234 C2226 1.574 . S
C2234 H2229 0.949 . S
C2234 C2240 1.368 . S
C2235 C2219 1.349 . S
C2235 H2227 0.950 . S
C2235 C2233 1.327 . S
C2236 C2224 1.349 . S
C2236 H2230 0.950 . S
C2236 C2237 1.327 . S
C2237 H2231 0.950 . S
C2237 C2236 1.327 . S
C2237 C2241 1.429 . S
C2238 C2221 1.574 . S
C2238 H2232 0.949 . S
C2238 C2242 1.368 . S
C2239 C2220 1.429 . S
C2239 C2233 1.429 . S
C2239 C2240 1.523 . S
C2240 C2221 1.368 . S
C2240 C2234 1.368 . S
C2240 C2239 1.523 . S
C2241 C2225 1.429 . S
C2241 C2237 1.429 . S
C2241 C2242 1.523 . S
C2242 C2226 1.368 . S
C2242 C2238 1.368 . S
C2242 C2241 1.523 . S
H2243 C2218 0.950 . S
H2244 C2220 0.950 . S
H2245 C2221 0.949 . S
H2246 C2223 0.950 . S
H2247 C2225 0.950 . S
C2248 C2249 1.349 . S
C2248 C2250 1.327 . S
C2248 H2273 0.950 . S
C2249 C2248 1.349 . S
C2249 C2265 1.349 . S
C2250 C2248 1.327 . S
C2250 C2269 1.429 . S
C2250 H2274 0.950 . S
C2251 C2268 1.574 . S
C2251 C2270 1.368 . S
C2251 H2275 0.949 . S
H2252 C2256 0.949 . S
C2253 C2254 1.349 . S
C2253 C2255 1.327 . S
C2253 H2276 0.950 . S
C2254 C2253 1.349 . S
C2254 C2266 1.349 . S
C2255 C2253 1.327 . S
C2255 C2271 1.429 . S
C2255 H2277 0.950 . S
C2256 H2252 0.949 . S
C2256 C2264 1.574 . S
C2256 C2272 1.368 . S
H2257 C2265 0.950 . S
H2258 C2263 0.950 . S
H2259 C2264 0.949 . S
H2260 C2266 0.950 . S
H2261 C2267 0.950 . S
H2262 C2268 0.949 . S
C2263 H2258 0.950 . S
C2263 C2265 1.327 . S
C2263 C2269 1.429 . S
C2264 C2256 1.574 . S
C2264 H2259 0.949 . S
C2264 C2270 1.368 . S
C2265 C2249 1.349 . S
C2265 H2257 0.950 . S
C2265 C2263 1.327 . S
C2266 C2254 1.349 . S
C2266 H2260 0.950 . S
C2266 C2267 1.327 . S
C2267 H2261 0.950 . S
C2267 C2266 1.327 . S
C2267 C2271 1.429 . S
C2268 C2251 1.574 . S
C2268 H2262 0.949 . S
C2268 C2272 1.368 . S
C2269 C2250 1.429 . S
C2269 C2263 1.429 . S
C2269 C2270 1.523 . S
C2270 C2251 1.368 . S
C2270 C2264 1.368 . S
C2270 C2269 1.523 . S
C2271 C2255 1.429 . S
C2271 C2267 1.429 . S
C2271 C2272 1.523 . S
C2272 C2256 1.368 . S
C2272 C2268 1.368 . S
C2272 C2271 1.523 . S
H2273 C2248 0.950 . S
H2274 C2250 0.950 . S
H2275 C2251 0.949 . S
H2276 C2253 0.950 . S
H2277 C2255 0.950 . S
C2278 C2279 1.349 . S
C2278 C2280 1.327 . S
C2278 H2303 0.950 . S
C2279 C2278 1.349 . S
C2279 C2295 1.349 . S
C2280 C2278 1.327 . S
C2280 C2299 1.429 . S
C2280 H2304 0.950 . S
C2281 C2298 1.574 . S
C2281 C2300 1.368 . S
C2281 H2305 0.949 . S
H2282 C2286 0.949 . S
C2283 C2284 1.349 . S
C2283 C2285 1.327 . S
C2283 H2306 0.950 . S
C2284 C2283 1.349 . S
C2284 C2296 1.349 . S
C2285 C2283 1.327 . S
C2285 C2301 1.429 . S
C2285 H2307 0.950 . S
C2286 H2282 0.949 . S
C2286 C2294 1.574 . S
C2286 C2302 1.368 . S
H2287 C2295 0.950 . S
H2288 C2293 0.950 . S
H2289 C2294 0.949 . S
H2290 C2296 0.950 . S
H2291 C2297 0.950 . S
H2292 C2298 0.949 . S
C2293 H2288 0.950 . S
C2293 C2295 1.327 . S
C2293 C2299 1.429 . S
C2294 C2286 1.574 . S
C2294 H2289 0.949 . S
C2294 C2300 1.368 . S
C2295 C2279 1.349 . S
C2295 H2287 0.950 . S
C2295 C2293 1.327 . S
C2296 C2284 1.349 . S
C2296 H2290 0.950 . S
C2296 C2297 1.327 . S
C2297 H2291 0.950 . S
C2297 C2296 1.327 . S
C2297 C2301 1.429 . S
C2298 C2281 1.574 . S
C2298 H2292 0.949 . S
C2298 C2302 1.368 . S
C2299 C2280 1.429 . S
C2299 C2293 1.429 . S
C2299 C2300 1.523 . S
C2300 C2281 1.368 . S
C2300 C2294 1.368 . S
C2300 C2299 1.523 . S
C2301 C2285 1.429 . S
C2301 C2297 1.429 . S
C2301 C2302 1.523 . S
C2302 C2286 1.368 . S
C2302 C2298 1.368 . S
C2302 C2301 1.523 . S
H2303 C2278 0.950 . S
H2304 C2280 0.950 . S
H2305 C2281 0.949 . S
H2306 C2283 0.950 . S
H2307 C2285 0.950 . S
C2308 C2309 1.349 . S
C2308 C2310 1.327 . S
C2308 H2333 0.950 . S
C2309 C2308 1.349 . S
C2309 C2325 1.349 . S
C2310 C2308 1.327 . S
C2310 C2329 1.429 . S
C2310 H2334 0.950 . S
C2311 C2328 1.574 . S
C2311 C2330 1.368 . S
C2311 H2335 0.949 . S
H2312 C2316 0.949 . S
C2313 C2314 1.349 . S
C2313 C2315 1.327 . S
C2313 H2336 0.950 . S
C2314 C2313 1.349 . S
C2314 C2326 1.349 . S
C2315 C2313 1.327 . S
C2315 C2331 1.429 . S
C2315 H2337 0.950 . S
C2316 H2312 0.949 . S
C2316 C2324 1.574 . S
C2316 C2332 1.368 . S
H2317 C2325 0.950 . S
H2318 C2323 0.950 . S
H2319 C2324 0.949 . S
H2320 C2326 0.950 . S
H2321 C2327 0.950 . S
H2322 C2328 0.949 . S
C2323 H2318 0.950 . S
C2323 C2325 1.327 . S
C2323 C2329 1.429 . S
C2324 C2316 1.574 . S
C2324 H2319 0.949 . S
C2324 C2330 1.368 . S
C2325 C2309 1.349 . S
C2325 H2317 0.950 . S
C2325 C2323 1.327 . S
C2326 C2314 1.349 . S
C2326 H2320 0.950 . S
C2326 C2327 1.327 . S
C2327 H2321 0.950 . S
C2327 C2326 1.327 . S
C2327 C2331 1.429 . S
C2328 C2311 1.574 . S
C2328 H2322 0.949 . S
C2328 C2332 1.368 . S
C2329 C2310 1.429 . S
C2329 C2323 1.429 . S
C2329 C2330 1.523 . S
C2330 C2311 1.368 . S
C2330 C2324 1.368 . S
C2330 C2329 1.523 . S
C2331 C2315 1.429 . S
C2331 C2327 1.429 . S
C2331 C2332 1.523 . S
C2332 C2316 1.368 . S
C2332 C2328 1.368 . S
C2332 C2331 1.523 . S
H2333 C2308 0.950 . S
H2334 C2310 0.950 . S
H2335 C2311 0.949 . S
H2336 C2313 0.950 . S
H2337 C2315 0.950 . S
C2338 C2339 1.349 . S
C2338 C2340 1.327 . S
C2338 H2363 0.950 . S
C2339 C2338 1.349 . S
C2339 C2355 1.349 . S
C2340 C2338 1.327 . S
C2340 C2359 1.429 . S
C2340 H2364 0.950 . S
C2341 C2358 1.574 . S
C2341 C2360 1.368 . S
C2341 H2365 0.949 . S
H2342 C2346 0.949 . S
C2343 C2344 1.349 . S
C2343 C2345 1.327 . S
C2343 H2366 0.950 . S
C2344 C2343 1.349 . S
C2344 C2356 1.349 . S
C2345 C2343 1.327 . S
C2345 C2361 1.429 . S
C2345 H2367 0.950 . S
C2346 H2342 0.949 . S
C2346 C2354 1.574 . S
C2346 C2362 1.368 . S
H2347 C2355 0.950 . S
H2348 C2353 0.950 . S
H2349 C2354 0.949 . S
H2350 C2356 0.950 . S
H2351 C2357 0.950 . S
H2352 C2358 0.949 . S
C2353 H2348 0.950 . S
C2353 C2355 1.327 . S
C2353 C2359 1.429 . S
C2354 C2346 1.574 . S
C2354 H2349 0.949 . S
C2354 C2360 1.368 . S
C2355 C2339 1.349 . S
C2355 H2347 0.950 . S
C2355 C2353 1.327 . S
C2356 C2344 1.349 . S
C2356 H2350 0.950 . S
C2356 C2357 1.327 . S
C2357 H2351 0.950 . S
C2357 C2356 1.327 . S
C2357 C2361 1.429 . S
C2358 C2341 1.574 . S
C2358 H2352 0.949 . S
C2358 C2362 1.368 . S
C2359 C2340 1.429 . S
C2359 C2353 1.429 . S
C2359 C2360 1.523 . S
C2360 C2341 1.368 . S
C2360 C2354 1.368 . S
C2360 C2359 1.523 . S
C2361 C2345 1.429 . S
C2361 C2357 1.429 . S
C2361 C2362 1.523 . S
C2362 C2346 1.368 . S
C2362 C2358 1.368 . S
C2362 C2361 1.523 . S
H2363 C2338 0.950 . S
H2364 C2340 0.950 . S
H2365 C2341 0.949 . S
H2366 C2343 0.950 . S
H2367 C2345 0.950 . S
C449 C385 1.256 . S
C454 C8 1.196 . S
C479 C21 1.102 1_655 S
C484 C119 1.110 . S
C509 C357 1.257 . S
C514 C36 1.197 . S
C539 C49 1.102 . S
C544 C147 1.110 . S
C569 C64 1.196 . S
C574 C413 1.256 . S
C599 C77 1.102 . S
C604 C203 1.110 . S
C629 C92 1.197 . S
C634 C441 1.256 . S
C659 C105 1.102 1_655 S
C664 C175 1.110 . S
C689 C274 1.135 . S
C694 C120 1.126 . S
C719 C7 1.067 . S
C724 C134 1.048 . S
C749 C246 1.135 . S
C754 C148 1.126 . S
C779 C162 1.023 . S
C784 C35 1.067 . S
C809 C302 1.135 . S
C814 C176 1.126 . S
C839 C91 1.067 . S
C844 C190 1.023 . S
C869 C204 1.126 . S
C874 C330 1.135 . S
C899 C63 1.067 . S
C904 C218 1.048 . S
C929 C232 1.197 . S
C934 C161 1.257 . S
C959 C245 1.102 . S
C964 C343 1.110 . S
C989 C133 1.256 . S
C994 C260 1.196 . S
C1019 C371 1.110 . S
C1024 C273 1.102 1_455 S
C1049 C189 1.257 . S
C1054 C288 1.197 . S
C1079 C427 1.110 . S
C1084 C301 1.102 1_455 S
C1109 C217 1.256 . S
C1114 C316 1.196 . S
C1139 C329 1.102 . S
C1144 C399 1.110 . S
C1169 C50 1.135 . S
C1174 C344 1.126 . S
C1199 C358 1.023 . S
C1204 C231 1.067 . S
C1229 C372 1.126 . S
C1234 C22 1.135 . S
C1259 C386 1.048 . S
C1264 C259 1.067 . S
C1289 C400 1.126 . S
C1294 C78 1.135 . S
C1319 C414 1.048 . S
C1324 C315 1.067 . S
C1349 C428 1.126 . S
C1354 C106 1.135 . S
C1379 C442 1.023 . S
C1384 C287 1.067 . S
C1409 C349 1.378 . S
C1414 C13 1.374 . S
C1439 C25 1.501 . S
C1444 C139 1.418 . S
C1469 C377 1.378 . S
C1474 C41 1.375 . S
C1499 C53 1.501 . S
C1504 C167 1.418 . S
C1529 C405 1.378 . S
C1534 C69 1.375 . S
C1559 C81 1.501 . S
C1564 C195 1.418 . S
C1589 C433 1.378 . S
C1594 C97 1.375 . S
C1619 C109 1.501 . S
C1624 C223 1.418 . S
C1649 C125 1.378 . S
C1654 C237 1.374 . S
C1679 C153 1.378 . S
C1684 C265 1.375 . S
C1709 C181 1.378 . S
C1714 C293 1.375 . S
C1739 C209 1.378 . S
C1744 C321 1.375 . S
C1769 C249 1.501 . S
C1774 C363 1.418 . S
C1799 C391 1.418 . S
C1804 C277 1.501 . S
C1829 C419 1.418 . S
C1834 C305 1.501 . S
C1859 C333 1.501 . S
C1864 C447 1.418 . S
C1889 C11 1.105 . S
C1894 C83 1.068 . S
C1919 C27 1.068 . S
C1924 C95 1.105 . S
C1949 C39 1.105 . S
C1954 C111 1.068 . S
C1979 C67 1.105 . S
C1984 C55 1.068 . S
C2009 C123 1.124 . S
C2014 C193 1.129 . S
C2039 C137 1.129 . S
C2044 C207 1.124 . S
C2069 C151 1.124 . S
C2074 C221 1.129 . S
C2099 C165 1.129 . S
C2104 C179 1.124 . S
C2129 C235 1.105 . S
C2134 C307 1.068 . S
C2159 C319 1.105 . S
C2164 C251 1.068 . S
C2189 C263 1.105 . S
C2194 C335 1.068 . S
C2219 C279 1.068 . S
C2224 C291 1.105 . S
C2249 C417 1.129 . S
C2254 C347 1.124 . S
C2279 C361 1.129 . S
C2284 C431 1.124 . S
C2309 C445 1.129 . S
C2314 C375 1.124 . S
C2339 C389 1.129 . S
C2344 C403 1.124 . S
