# Generated by pormake.
# Topology wht, (6)-cn, num edge types: 1
# Building blocks:
#     Node 0, Type 0, BuildingBlock: OJICUG_clean_sbu_0, # of connection points: 6
#     Node 1, Type 0, BuildingBlock: OJICUG_clean_sbu_0, # of connection points: 6
#     Node 2, Type 0, BuildingBlock: OJICUG_clean_sbu_0, # of connection points: 6
#     Node 3, Type 0, BuildingBlock: OJICUG_clean_sbu_0, # of connection points: 6
#     Node 4, Type 0, BuildingBlock: OJICUG_clean_sbu_0, # of connection points: 6
#     Node 5, Type 0, BuildingBlock: OJICUG_clean_sbu_0, # of connection points: 6
#     Node 6, Type 0, BuildingBlock: OJICUG_clean_sbu_0, # of connection points: 6
#     Node 7, Type 0, BuildingBlock: OJICUG_clean_sbu_0, # of connection points: 6
#     Edge 8, Type (0, 0), BuildingBlock: EZIPEK_clean_linker_0, # of connection points: 2
#     Edge 9, Type (0, 0), BuildingBlock: EZIPEK_clean_linker_0, # of connection points: 2
#     Edge 10, Type (0, 0), BuildingBlock: EZIPEK_clean_linker_0, # of connection points: 2
#     Edge 11, Type (0, 0), BuildingBlock: EZIPEK_clean_linker_0, # of connection points: 2
#     Edge 12, Type (0, 0), BuildingBlock: EZIPEK_clean_linker_0, # of connection points: 2
#     Edge 13, Type (0, 0), BuildingBlock: EZIPEK_clean_linker_0, # of connection points: 2
#     Edge 14, Type (0, 0), BuildingBlock: EZIPEK_clean_linker_0, # of connection points: 2
#     Edge 15, Type (0, 0), BuildingBlock: EZIPEK_clean_linker_0, # of connection points: 2
#     Edge 16, Type (0, 0), BuildingBlock: EZIPEK_clean_linker_0, # of connection points: 2
#     Edge 17, Type (0, 0), BuildingBlock: EZIPEK_clean_linker_0, # of connection points: 2
#     Edge 18, Type (0, 0), BuildingBlock: EZIPEK_clean_linker_0, # of connection points: 2
#     Edge 19, Type (0, 0), BuildingBlock: EZIPEK_clean_linker_0, # of connection points: 2
#     Edge 20, Type (0, 0), BuildingBlock: EZIPEK_clean_linker_0, # of connection points: 2
#     Edge 21, Type (0, 0), BuildingBlock: EZIPEK_clean_linker_0, # of connection points: 2
#     Edge 22, Type (0, 0), BuildingBlock: EZIPEK_clean_linker_0, # of connection points: 2
#     Edge 23, Type (0, 0), BuildingBlock: EZIPEK_clean_linker_0, # of connection points: 2
#     Edge 24, Type (0, 0), BuildingBlock: EZIPEK_clean_linker_0, # of connection points: 2
#     Edge 25, Type (0, 0), BuildingBlock: EZIPEK_clean_linker_0, # of connection points: 2
#     Edge 26, Type (0, 0), BuildingBlock: EZIPEK_clean_linker_0, # of connection points: 2
#     Edge 27, Type (0, 0), BuildingBlock: EZIPEK_clean_linker_0, # of connection points: 2
#     Edge 28, Type (0, 0), BuildingBlock: EZIPEK_clean_linker_0, # of connection points: 2
#     Edge 29, Type (0, 0), BuildingBlock: EZIPEK_clean_linker_0, # of connection points: 2
#     Edge 30, Type (0, 0), BuildingBlock: EZIPEK_clean_linker_0, # of connection points: 2
#     Edge 31, Type (0, 0), BuildingBlock: EZIPEK_clean_linker_0, # of connection points: 2
# Relax obj value: 0.284
# Max RMSD: 0.260
# Mean RMSD: 0.260
data_MOF--net-wht--node1-OJICUG_clean_sbu_0--edge1-EZIPEK_clean_linker_0
_symmetry_space_group_name_H-M    P1
_symmetry_Int_Tables_number       1
_symmetry_cell_setting            triclinic
loop_
_symmetry_equiv_pos_as_xyz
'x, y, z'
_cell_length_a     20.152366
_cell_length_b     20.150594
_cell_length_c     37.358798
_cell_angle_alpha  90.540461
_cell_angle_beta   90.105786
_cell_angle_gamma 89.404876
loop_
_atom_site_label
_atom_site_type_symbol
_atom_site_fract_x
_atom_site_fract_y
_atom_site_fract_z
_atom_type_partial_charge
Sc0 Sc 0.04842 0.17563 0.12805 0.0
Sc1 Sc 0.18126 0.27745 0.14179 0.0
Sc2 Sc 0.02444 0.33311 0.16332 0.0
O3 O 0.08507 0.26096 0.14573 0.0
C4 C 0.94303 0.2807 0.0996 0.0
C5 C 0.14578 0.20956 0.06743 0.0
C6 C 0.13338 0.41425 0.12132 0.0
C7 C 0.19346 0.13294 0.15859 0.0
C8 C 0.96301 0.19839 0.19387 0.0
C9 C 0.13845 0.3408 0.21817 0.0
O10 O 0.95547 0.22168 0.11001 0.0
O11 O 0.18976 0.22855 0.08968 0.0
O12 O 0.08678 0.41539 0.14438 0.0
O13 O 0.13983 0.12009 0.14157 0.0
O14 O 0.95726 0.26003 0.18632 0.0
O15 O 0.1815 0.33048 0.19351 0.0
O16 O 0.00553 0.15968 0.17927 0.0
O17 O 0.2063 0.19034 0.17037 0.0
O18 O 0.07636 0.33532 0.21302 0.0
O19 O 0.08788 0.19303 0.07655 0.0
O20 O 0.9724 0.33073 0.11306 0.0
O21 O 0.15895 0.36067 0.11066 0.0
Sc22 Sc 0.19323 0.53542 0.42388 0.0
Sc23 Sc 0.26382 0.6872 0.4035 0.0
Sc24 Sc 0.34408 0.54045 0.37749 0.0
O25 O 0.26775 0.58729 0.40195 0.0
C26 C 0.32299 0.45772 0.44935 0.0
C27 C 0.21332 0.65799 0.47916 0.0
C28 C 0.42041 0.66402 0.40437 0.0
C29 C 0.11423 0.65257 0.39011 0.0
C30 C 0.22364 0.45017 0.35347 0.0
C31 C 0.30242 0.65668 0.32383 0.0
O32 O 0.26412 0.47899 0.45553 0.0
O33 O 0.2577 0.68754 0.46117 0.0
O34 O 0.41856 0.60118 0.40269 0.0
O35 O 0.11963 0.58993 0.39301 0.0
O36 O 0.27906 0.4771 0.34782 0.0
O37 O 0.2672 0.69 0.34599 0.0
O38 O 0.1907 0.4599 0.38205 0.0
O39 O 0.15864 0.69218 0.40051 0.0
O40 O 0.33714 0.60594 0.3322 0.0
O41 O 0.18342 0.60649 0.46767 0.0
O42 O 0.35542 0.47163 0.42115 0.0
O43 O 0.36872 0.70007 0.40419 0.0
Sc44 Sc 0.93054 0.8183 0.62671 0.0
Sc45 Sc 0.8031 0.70732 0.63602 0.0
Sc46 Sc 0.96564 0.66209 0.65717 0.0
O47 O 0.89929 0.72894 0.6406 0.0
C48 C 0.04742 0.7269 0.59746 0.0
C49 C 0.83686 0.78663 0.56476 0.0
C50 C 0.8658 0.57386 0.60991 0.0
C51 C 0.78222 0.85015 0.65536 0.0
C52 C 0.0129 0.79902 0.69378 0.0
C53 C 0.8477 0.64074 0.70995 0.0
O54 O 0.02873 0.78352 0.60935 0.0
O55 O 0.79388 0.76217 0.58582 0.0
O56 O 0.91466 0.57976 0.6314 0.0
O57 O 0.83482 0.86658 0.63882 0.0
O58 O 0.02368 0.7384 0.68482 0.0
O59 O 0.8043 0.65246 0.68582 0.0
O60 O 0.96764 0.83458 0.67949 0.0
O61 O 0.77433 0.79214 0.66685 0.0
O62 O 0.90985 0.64748 0.70533 0.0
O63 O 0.89573 0.79909 0.57442 0.0
O64 O 0.02249 0.67356 0.609 0.0
O65 O 0.82439 0.62064 0.60493 0.0
Sc66 Sc 0.64465 0.43373 0.87264 0.0
Sc67 Sc 0.73381 0.3025 0.90837 0.0
Sc68 Sc 0.79554 0.46052 0.91637 0.0
O69 O 0.72394 0.39992 0.89906 0.0
C70 C 0.75624 0.52606 0.84166 0.0
C71 C 0.69878 0.30553 0.82764 0.0
C72 C 0.87951 0.33971 0.89273 0.0
C73 C 0.57732 0.31428 0.90515 0.0
C74 C 0.66275 0.53882 0.93722 0.0
C75 C 0.7779 0.35448 0.98023 0.0
O76 O 0.7034 0.49316 0.83788 0.0
O77 O 0.73761 0.2833 0.85184 0.0
O78 O 0.86911 0.40117 0.88779 0.0
O79 O 0.57751 0.377 0.90469 0.0
O80 O 0.72271 0.52179 0.94417 0.0
O81 O 0.73109 0.32287 0.96492 0.0
O82 O 0.62969 0.51503 0.91089 0.0
O83 O 0.6305 0.28063 0.90516 0.0
O84 O 0.8093 0.401 0.96468 0.0
O85 O 0.65707 0.35326 0.83294 0.0
O86 O 0.79216 0.52376 0.86967 0.0
O87 O 0.83941 0.30611 0.91099 0.0
Sc88 Sc 0.52244 0.16219 0.5784 0.0
Sc89 Sc 0.68712 0.19709 0.60045 0.0
Sc90 Sc 0.56144 0.30938 0.62528 0.0
O91 O 0.59014 0.22366 0.60101 0.0
C92 C 0.47221 0.30464 0.55367 0.0
C93 C 0.64394 0.15596 0.52295 0.0
C94 C 0.70002 0.35403 0.59499 0.0
C95 C 0.61942 0.05955 0.61466 0.0
C96 C 0.44343 0.21404 0.64719 0.0
C97 C 0.66622 0.24608 0.68039 0.0
O98 O 0.48015 0.24261 0.54773 0.0
O99 O 0.68543 0.1858 0.54306 0.0
O100 O 0.63963 0.3681 0.60179 0.0
O101 O 0.55979 0.07817 0.60899 0.0
O102 O 0.48247 0.26172 0.65365 0.0
O103 O 0.69245 0.20537 0.65814 0.0
O104 O 0.44876 0.17748 0.61948 0.0
O105 O 0.66899 0.09448 0.60703 0.0
O106 O 0.62249 0.28919 0.67164 0.0
O107 O 0.58665 0.13864 0.53347 0.0
O108 O 0.49645 0.33479 0.58089 0.0
O109 O 0.72287 0.29539 0.59486 0.0
Sc110 Sc 0.12815 0.04255 0.86042 0.0
Sc111 Sc 0.21647 0.18323 0.84047 0.0
Sc112 Sc 0.28998 0.02951 0.82508 0.0
O113 O 0.21133 0.08427 0.84141 0.0
C114 C 0.24314 0.95472 0.895 0.0
C115 C 0.15997 0.15542 0.91662 0.0
C116 C 0.36524 0.14862 0.85896 0.0
C117 C 0.06159 0.16409 0.82779 0.0
C118 C 0.1671 0.94761 0.79537 0.0
C119 C 0.27831 0.14701 0.76698 0.0
O120 O 0.18607 0.98196 0.89599 0.0
O121 O 0.20469 0.18303 0.89796 0.0
O122 O 0.36073 0.08588 0.85658 0.0
O123 O 0.06429 0.10122 0.82658 0.0
O124 O 0.22622 0.96849 0.79179 0.0
O125 O 0.2331 0.18084 0.78309 0.0
O126 O 0.12826 0.96664 0.82015 0.0
O127 O 0.11244 0.19835 0.83429 0.0
O128 O 0.30506 0.09515 0.78047 0.0
O129 O 0.11832 0.11549 0.90304 0.0
O130 O 0.28402 0.96231 0.86954 0.0
O131 O 0.31972 0.1875 0.8488 0.0
Sc132 Sc 0.46177 0.83004 0.08079 0.0
Sc133 Sc 0.29956 0.77763 0.10065 0.0
Sc134 Sc 0.4354 0.67107 0.1124 0.0
O135 O 0.39853 0.75974 0.09756 0.0
C136 C 0.51633 0.69466 0.04288 0.0
C137 C 0.34085 0.84424 0.0268 0.0
C138 C 0.29299 0.6289 0.08017 0.0
C139 C 0.35669 0.91459 0.12775 0.0
C140 C 0.54756 0.76728 0.14215 0.0
C141 C 0.33524 0.70557 0.17426 0.0
O142 O 0.52036 0.75715 0.04922 0.0
O143 O 0.29775 0.82237 0.04846 0.0
O144 O 0.34919 0.61832 0.09467 0.0
O145 O 0.41116 0.90957 0.11057 0.0
O146 O 0.52786 0.70936 0.13399 0.0
O147 O 0.29427 0.73555 0.1538 0.0
O148 O 0.5239 0.81876 0.12733 0.0
O149 O 0.31321 0.87 0.1264 0.0
O150 O 0.39111 0.68265 0.16402 0.0
O151 O 0.40247 0.84847 0.03391 0.0
O152 O 0.47993 0.65649 0.0611 0.0
O153 O 0.27091 0.68696 0.07577 0.0
Sc154 Sc 0.68773 0.95845 0.31992 0.0
Sc155 Sc 0.77964 0.8136 0.33814 0.0
Sc156 Sc 0.83931 0.96779 0.36014 0.0
O157 O 0.76909 0.91225 0.3377 0.0
C158 C 0.81549 0.03995 0.29062 0.0
C159 C 0.70836 0.84061 0.26284 0.0
C160 C 0.92527 0.83959 0.33761 0.0
C161 C 0.62751 0.83211 0.35784 0.0
C162 C 0.72076 0.05055 0.38421 0.0
C163 C 0.81263 0.86272 0.41747 0.0
O164 O 0.75242 0.03332 0.29486 0.0
O165 O 0.74404 0.80534 0.28369 0.0
O166 O 0.9157 0.89269 0.35522 0.0
O167 O 0.61998 0.88882 0.34361 0.0
O168 O 0.77736 0.05369 0.37034 0.0
O169 O 0.81421 0.81679 0.39356 0.0
O170 O 0.67777 0.01291 0.37024 0.0
O171 O 0.68186 0.80008 0.35798 0.0
O172 O 0.81182 0.92427 0.40988 0.0
O173 O 0.688 0.89933 0.27084 0.0
O174 O 0.85873 0.00862 0.30914 0.0
O175 O 0.87907 0.81604 0.31858 0.0
C176 C 0.92901 0.17248 0.25639 0.0
C177 C 0.91592 0.16914 0.21923 0.0
C178 C 0.82654 0.08985 0.22906 0.0
C179 C 0.84106 0.0915 0.26625 0.0
N180 N 0.88932 0.1507 0.31617 0.0
N181 N 0.84182 0.14067 0.17101 0.0
C182 C 0.88709 0.13813 0.28018 0.0
C183 C 0.86105 0.13306 0.20584 0.0
N184 N 0.98295 0.20634 0.26881 0.0
N185 N 0.78259 0.04486 0.21562 0.0
H186 H 0.86612 0.17227 0.15353 0.0
H187 H 0.79844 0.12092 0.16037 0.0
H188 H 0.75476 0.01382 0.2317 0.0
H189 H 0.77614 0.03575 0.18838 0.0
H190 H -0.00023 0.20376 0.29514 0.0
H191 H 0.01353 0.23392 0.25221 0.0
H192 H 0.91751 0.18833 0.32767 0.0
H193 H 0.85733 0.12823 0.33417 0.0
C194 C 0.42034 0.44319 0.49052 0.0
C195 C 0.35862 0.41948 0.47747 0.0
C196 C 0.36719 0.32507 0.51829 0.0
C197 C 0.43291 0.34405 0.52747 0.0
N198 N 0.52683 0.41435 0.51623 0.0
N199 N 0.27788 0.33197 0.47487 0.0
C200 C 0.46085 0.4013 0.51192 0.0
C201 C 0.33311 0.3588 0.49028 0.0
N202 N 0.43925 0.50678 0.48369 0.0
N203 N 0.33619 0.27673 0.53725 0.0
H204 H 0.25204 0.3547 0.45402 0.0
H205 H 0.26129 0.28443 0.48055 0.0
H206 H 0.35849 0.25228 0.55869 0.0
H207 H 0.28614 0.26562 0.53407 0.0
H208 H 0.48074 0.52851 0.49544 0.0
H209 H 0.4096 0.54025 0.46955 0.0
H210 H 0.551 0.45175 0.50245 0.0
H211 H 0.55894 0.38359 0.53056 0.0
C212 C 0.07166 0.8066 0.75336 0.0
C213 C 0.05961 0.83215 0.71862 0.0
C214 C 0.12166 0.93216 0.73375 0.0
C215 C 0.13786 0.90478 0.76745 0.0
N216 N 0.13984 0.81105 0.80692 0.0
N217 N 0.09078 0.90936 0.67253 0.0
C218 C 0.11674 0.84014 0.7764 0.0
C219 C 0.09026 0.8918 0.70777 0.0
N220 N 0.03734 0.7529 0.76513 0.0
N221 N 0.1319 -0.0021 0.72728 0.0
H222 H 0.07052 0.87989 0.65231 0.0
H223 H 0.11785 0.94931 0.66304 0.0
H224 H 0.15185 0.03033 0.74626 0.0
H225 H 0.11442 0.02158 0.70438 0.0
H226 H 0.03906 0.73654 0.79148 0.0
H227 H 0.0025 0.72803 0.74948 0.0
H228 H 0.13112 0.7617 0.81331 0.0
H229 H 0.17305 0.8347 0.82415 0.0
C230 C 0.5584 0.68023 0.97891 0.0
C231 C 0.56003 0.66188 0.01558 0.0
C232 C 0.62227 0.56088 -0.00039 0.0
C233 C 0.6272 0.58216 0.96369 0.0
N234 N 0.60852 0.66774 0.92004 0.0
N235 N 0.61086 0.59449 0.06143 0.0
C236 C 0.59784 0.64368 0.95356 0.0
C237 C 0.59753 0.6053 0.02607 0.0
N238 N 0.5169 0.73008 0.96792 0.0
N239 N 0.63702 0.49668 0.00827 0.0
H240 H 0.59623 0.62756 0.08165 0.0
H241 H 0.64284 0.5569 0.0701 0.0
H242 H 0.65172 0.46109 0.98935 0.0
H243 H 0.62766 0.47718 0.03349 0.0
H244 H 0.50828 0.74078 0.94108 0.0
H245 H 0.48689 0.75737 0.98549 0.0
H246 H 0.59406 0.71524 0.91225 0.0
H247 H 0.6368 0.64215 0.90096 0.0
C248 C 0.20685 0.32969 0.27476 0.0
C249 C 0.16011 0.36569 0.25381 0.0
C250 C 0.13975 0.44119 0.30431 0.0
C251 C 0.19396 0.41247 0.32312 0.0
N252 N 0.28163 0.33046 0.32583 0.0
N253 N 0.0941 0.46534 0.24611 0.0
C254 C 0.22834 0.35694 0.30815 0.0
C255 C 0.12964 0.42395 0.26794 0.0
N256 N 0.22865 0.26854 0.26354 0.0
N257 N 0.09754 0.48496 0.32089 0.0
H258 H 0.08864 0.45692 0.21869 0.0
H259 H 0.07695 0.51201 0.25436 0.0
H260 H 0.10149 0.49799 0.34774 0.0
H261 H 0.05392 0.5023 0.30902 0.0
H262 H 0.25765 0.23722 0.27929 0.0
H263 H 0.21297 0.24649 0.23967 0.0
H264 H 0.31371 0.29539 0.31443 0.0
H265 H 0.29532 0.34596 0.35151 0.0
C266 C 0.09599 0.75696 0.5371 0.0
C267 C 0.10115 0.72197 0.57 0.0
C268 C 0.19345 0.65524 0.54539 0.0
C269 C 0.18693 0.68895 0.51245 0.0
N270 N 0.14582 0.78418 0.48021 0.0
N271 N 0.16821 0.65388 0.60887 0.0
C272 C 0.14325 0.74431 0.50958 0.0
C273 C 0.1543 0.67612 0.57521 0.0
N274 N 0.04339 0.79863 0.53081 0.0
N275 N 0.23582 0.60208 0.5478 0.0
H276 H 0.14208 0.67045 0.63139 0.0
H277 H 0.20959 0.62474 0.61499 0.0
H278 H 0.26794 0.58826 0.52707 0.0
H279 H 0.23701 0.57016 0.56955 0.0
H280 H 0.03171 0.81732 0.50565 0.0
H281 H 0.00837 0.81167 0.54996 0.0
H282 H 0.12029 0.82923 0.47838 0.0
H283 H 0.17831 0.77591 0.45898 0.0
C284 C 0.76964 0.62589 0.80235 0.0
C285 C 0.78308 0.55808 0.80939 0.0
C286 C 0.83499 0.54428 0.75046 0.0
C287 C 0.82522 0.61285 0.7442 0.0
N288 N 0.79146 0.72153 0.7651 0.0
N289 N 0.83784 0.4553 0.79332 0.0
C290 C 0.79475 0.65453 0.77042 0.0
C291 C 0.81856 0.51812 0.78436 0.0
N292 N 0.73168 0.66222 0.8258 0.0
N293 N 0.85745 0.50361 0.72345 0.0
H294 H 0.82556 0.43349 0.81759 0.0
H295 H 0.87093 0.42711 0.77804 0.0
H296 H 0.87035 0.521 0.69823 0.0
H297 H 0.85822 0.45205 0.72492 0.0
H298 H 0.71382 0.70981 0.8206 0.0
H299 H 0.71475 0.64301 0.84991 0.0
H300 H 0.77595 0.75557 0.78454 0.0
H301 H 0.8087 0.7438 0.74184 0.0
C302 C 0.89018 0.25291 0.0396 0.0
C303 C 0.89147 0.29215 0.0715 0.0
C304 C 0.81071 0.36919 0.0449 0.0
C305 C 0.80707 0.32826 0.01387 0.0
N306 N 0.82984 0.22074 0.98651 0.0
N307 N 0.83542 0.37436 0.10828 0.0
C308 C 0.84157 0.26637 0.01303 0.0
C309 C 0.84617 0.34621 0.07535 0.0
N310 N 0.93831 0.20618 0.03293 0.0
N311 N 0.7818 0.43074 0.04511 0.0
H312 H 0.85751 0.35619 0.13154 0.0
H313 H 0.79885 0.41028 0.11305 0.0
H314 H 0.75472 0.44884 0.0235 0.0
H315 H 0.78902 0.46539 0.0656 0.0
H316 H 0.94424 0.18262 0.00818 0.0
H317 H 0.97662 0.19518 0.05048 0.0
H318 H 0.84832 0.17227 0.98734 0.0
H319 H 0.79715 0.22829 0.96537 0.0
C320 C 0.62938 0.15385 0.45581 0.0
C321 C 0.66558 0.13446 0.4867 0.0
C322 C 0.74785 0.07855 0.44876 0.0
C323 C 0.70612 0.08754 0.41825 0.0
N324 N 0.60692 0.13575 0.3926 0.0
N325 N 0.75024 0.06438 0.51272 0.0
C326 C 0.64656 0.12566 0.42179 0.0
C327 C 0.72238 0.09322 0.48323 0.0
N328 N 0.58032 0.20093 0.45881 0.0
N329 N 0.81224 0.0574 0.44557 0.0
H330 H 0.73214 0.07136 0.53862 0.0
H331 H 0.78655 0.02738 0.51084 0.0
H332 H 0.83615 0.04775 0.42151 0.0
H333 H 0.84512 0.05744 0.46715 0.0
H334 H 0.55627 0.22206 0.43695 0.0
H335 H 0.56748 0.22328 0.48316 0.0
H336 H 0.55899 0.15534 0.39421 0.0
H337 H 0.62131 0.12258 0.36667 0.0
C338 C 0.32348 0.23538 0.72506 0.0
C339 C 0.30554 0.16841 0.73182 0.0
C340 C 0.37845 0.13133 0.68324 0.0
C341 C 0.39178 0.19823 0.67426 0.0
N342 N 0.35704 0.31309 0.67974 0.0
N343 N 0.29788 0.057 0.70771 0.0
C344 C 0.35772 0.25009 0.69287 0.0
C345 C 0.32646 0.11808 0.70738 0.0
N346 N 0.31295 0.28447 0.74993 0.0
N347 N 0.41843 0.0804 0.67159 0.0
H348 H 0.25858 0.046 0.72463 0.0
H349 H 0.30843 0.02047 0.68852 0.0
H350 H 0.46228 0.08744 0.65755 0.0
H351 H 0.41276 0.03171 0.68021 0.0
H352 H 0.33201 0.33205 0.74709 0.0
H353 H 0.29155 0.27695 0.77482 0.0
H354 H 0.32846 0.35123 0.69109 0.0
H355 H 0.37829 0.32504 0.65522 0.0
C356 C 0.31109 0.94167 0.9894 0.0
C357 C 0.31706 0.87182 0.9927 0.0
C358 C 0.27178 0.85552 0.93234 0.0
C359 C 0.26856 0.92531 0.9284 0.0
N360 N 0.29115 0.03572 0.95062 0.0
N361 N 0.31263 0.76198 0.96687 0.0
C362 C 0.29002 0.9687 0.95626 0.0
C363 C 0.29995 0.82855 0.96405 0.0
N364 N 0.32443 0.9818 0.0183 0.0
N365 N 0.24621 0.81537 0.90617 0.0
H366 H 0.33268 0.74068 0.9899 0.0
H367 H 0.30784 0.72835 0.94575 0.0
H368 H 0.2264 0.8339 0.88243 0.0
H369 H 0.24051 0.76438 0.90879 0.0
H370 H 0.31694 0.0329 0.01889 0.0
H371 H 0.33999 0.96369 0.04302 0.0
H372 H 0.31071 0.07017 0.9685 0.0
H373 H 0.27552 0.0576 0.92683 0.0
C374 C 0.65227 0.81988 0.16583 0.0
C375 C 0.59859 0.77569 0.17092 0.0
C376 C 0.63937 0.75385 0.23175 0.0
C377 C 0.68206 0.80935 0.22939 0.0
N378 N 0.73606 0.89017 0.19305 0.0
N379 N 0.53767 0.70493 0.21125 0.0
C380 C 0.69063 0.84079 0.19595 0.0
C381 C 0.59195 0.74279 0.20429 0.0
N382 N 0.66801 0.8397 0.13202 0.0
N383 N 0.64286 0.71168 0.26018 0.0
H384 H 0.49923 0.69751 0.19328 0.0
H385 H 0.52701 0.68597 0.2364 0.0
H386 H 0.67425 0.71773 0.28199 0.0
H387 H 0.6185 0.66632 0.26054 0.0
H388 H 0.70965 0.86758 0.12601 0.0
H389 H 0.6431 0.82242 0.10933 0.0
H390 H 0.7395 0.9209 0.17091 0.0
H391 H 0.76968 0.90094 0.21352 0.0
C392 C 0.15789 0.11812 0.9811 0.0
C393 C 0.15592 0.17067 0.95562 0.0
C394 C 0.15479 0.25203 0.00507 0.0
C395 C 0.16274 0.1993 0.02958 0.0
N396 N 0.187 0.08481 0.04132 0.0
N397 N 0.15198 0.28828 0.94338 0.0
C398 C 0.16963 0.13328 0.01755 0.0
C399 C 0.15507 0.23795 0.96765 0.0
N400 N 0.14557 0.05392 0.9713 0.0
N401 N 0.1435 0.315 0.01773 0.0
H402 H 0.14201 0.28056 0.91628 0.0
H403 H 0.16044 0.3378 0.94991 0.0
H404 H 0.14563 0.32699 0.04488 0.0
H405 H 0.12913 0.35472 0.00179 0.0
H406 H 0.13896 0.01595 0.98963 0.0
H407 H 0.13465 0.03853 0.94555 0.0
H408 H 0.19799 0.03604 0.03383 0.0
H409 H 0.19687 0.09497 0.06825 0.0
C410 C 0.27312 0.65112 0.22354 0.0
C411 C 0.3191 0.69956 0.21252 0.0
C412 C 0.3423 0.72961 0.27502 0.0
C413 C 0.30235 0.67608 0.28595 0.0
N414 N 0.2312 0.58393 0.27192 0.0
N415 N 0.40015 0.78333 0.22657 0.0
C416 C 0.26759 0.63664 0.26057 0.0
C417 C 0.35406 0.73883 0.23795 0.0
N418 N 0.23523 0.6188 0.19858 0.0
N419 N 0.369 0.77138 0.30015 0.0
H420 H 0.40817 0.79365 0.19962 0.0
H421 H 0.43322 0.80756 0.24352 0.0
H422 H 0.36349 0.76452 0.32762 0.0
H423 H 0.39281 0.81539 0.29403 0.0
H424 H 0.19603 0.58785 0.20492 0.0
H425 H 0.24004 0.62615 0.17111 0.0
H426 H 0.21163 0.54806 0.25484 0.0
H427 H 0.22322 0.57391 0.2989 0.0
C428 C 0.77575 0.78976 0.46827 0.0
C429 C 0.81391 0.84402 0.45575 0.0
C430 C 0.84377 0.8707 0.51731 0.0
C431 C 0.81812 0.8092 0.52864 0.0
N432 N 0.76577 0.70522 0.51327 0.0
N433 N 0.89864 0.92555 0.46916 0.0
C434 C 0.78531 0.76729 0.5038 0.0
C435 C 0.85185 0.88188 0.48046 0.0
N436 N 0.72866 0.76114 0.44703 0.0
N437 N 0.86049 0.91847 0.54183 0.0
H438 H 0.91054 0.93248 0.44238 0.0
H439 H 0.93132 0.94909 0.4867 0.0
H440 H 0.85071 0.91368 0.5691 0.0
H441 H 0.87689 0.96538 0.53465 0.0
H442 H 0.69556 0.72587 0.45635 0.0
H443 H 0.71713 0.77805 0.42158 0.0
H444 H 0.74866 0.67041 0.49471 0.0
H445 H 0.77144 0.68639 0.53893 0.0
C446 C 0.63059 0.22791 0.74351 0.0
C447 C 0.68249 0.24115 0.71905 0.0
C448 C 0.75406 0.27713 0.76858 0.0
C449 C 0.69889 0.27234 0.79199 0.0
N450 N 0.59846 0.21507 0.8055 0.0
N451 N 0.79984 0.25464 0.70938 0.0
C452 C 0.64119 0.23902 0.78059 0.0
C453 C 0.74663 0.2576 0.73197 0.0
N454 N 0.57068 0.20609 0.73115 0.0
N455 N 0.81253 0.30205 0.78109 0.0
H456 H 0.79591 0.24023 0.68264 0.0
H457 H 0.84877 0.26109 0.71746 0.0
H458 H 0.82022 0.3142 0.80792 0.0
H459 H 0.85317 0.31224 0.76503 0.0
H460 H 0.52845 0.20335 0.74707 0.0
H461 H 0.56275 0.19246 0.70448 0.0
H462 H 0.56044 0.18241 0.79916 0.0
H463 H 0.60654 0.22114 0.83294 0.0
C464 C 0.30622 0.0923 0.13843 0.0
C465 C 0.24771 0.08264 0.1593 0.0
C466 C 0.28685 0.97124 0.17427 0.0
C467 C 0.33662 0.97636 0.14757 0.0
N468 N 0.41463 0.05003 0.12064 0.0
N469 N 0.18572 0.01657 0.20055 0.0
C470 C 0.3531 0.03954 0.1346 0.0
C471 C 0.23965 0.02348 0.17883 0.0
N472 N 0.31554 0.15034 0.1206 0.0
N473 N 0.28647 0.91655 0.19558 0.0
H474 H 0.15231 0.05538 0.20575 0.0
H475 H 0.17261 0.97208 0.21246 0.0
H476 H 0.32307 0.87975 0.19338 0.0
H477 H 0.25488 0.9106 0.21726 0.0
H478 H 0.35058 0.15588 0.10046 0.0
H479 H 0.28684 0.19275 0.12481 0.0
H480 H 0.43163 0.09645 0.11303 0.0
H481 H 0.45234 0.01438 0.12163 0.0
C482 C 0.50919 0.74514 0.42024 0.0
C483 C 0.4824 0.69849 0.39561 0.0
C484 C 0.53687 0.75436 0.34616 0.0
C485 C 0.56948 0.7961 0.37082 0.0
N486 N 0.59047 0.83139 0.43146 0.0
N487 N 0.48512 0.64875 0.33632 0.0
C488 C 0.55687 0.79149 0.40804 0.0
C489 C 0.50087 0.69987 0.35897 0.0
N490 N 0.48812 0.74545 0.45497 0.0
N491 N 0.5391 0.76768 0.31041 0.0
H492 H 0.46237 0.60561 0.34481 0.0
H493 H 0.5021 0.64546 0.31003 0.0
H494 H 0.56465 0.80795 0.30008 0.0
H495 H 0.50969 0.74325 0.29163 0.0
H496 H 0.50009 0.7823 0.47352 0.0
H497 H 0.45633 0.70938 0.46485 0.0
H498 H 0.58892 0.8261 0.45913 0.0
H499 H 0.62256 0.86833 0.42288 0.0
C500 C 0.63403 0.93629 0.61463 0.0
C501 C 0.63563 -0.0027 0.63341 0.0
C502 C 0.72129 0.95422 0.6739 0.0
C503 C 0.7234 0.8949 0.65342 0.0
N504 N 0.66409 0.81985 0.61399 0.0
N505 N 0.66151 0.05675 0.68754 0.0
C506 C 0.67361 0.88252 0.6271 0.0
C507 C 0.67254 0.00318 0.66563 0.0
N508 N 0.59838 0.93114 0.58362 0.0
N509 N 0.76715 0.96446 0.70029 0.0
H510 H 0.62492 0.09213 0.68174 0.0
H511 H 0.68358 0.06275 0.71257 0.0
H512 H 0.80134 0.9279 0.70786 0.0
H513 H 0.77292 0.00963 0.71364 0.0
H514 H 0.60246 0.89091 0.56601 0.0
H515 H 0.56697 0.96901 0.57468 0.0
H516 H 0.62534 0.80755 0.59677 0.0
H517 H 0.68981 0.7786 0.62347 0.0
C518 C 0.44998 0.17738 0.90609 0.0
C519 C 0.42695 0.18159 0.8703 0.0
C520 C 0.48837 0.2842 0.86176 0.0
C521 C 0.51623 0.27745 0.89657 0.0
N522 N 0.52747 0.21607 0.95135 0.0
N523 N 0.43658 0.22824 0.81154 0.0
C524 C 0.49809 0.22342 0.91859 0.0
C525 C 0.45026 0.23179 0.84743 0.0
N526 N 0.42424 0.13103 0.9284 0.0
N527 N 0.49812 0.34015 0.84206 0.0
H528 H 0.41159 0.18826 0.8 0.0
H529 H 0.45618 0.26028 0.79271 0.0
H530 H 0.52596 0.3804 0.85053 0.0
H531 H 0.47271 0.35003 0.81837 0.0
H532 H 0.43206 0.13069 0.95595 0.0
H533 H 0.39296 0.09375 0.9193 0.0
H534 H 0.52301 0.17377 0.96689 0.0
H535 H 0.55858 0.2519 0.96248 0.0
C536 C 0.80213 0.503 0.56646 0.0
C537 C 0.84607 0.50719 0.5962 0.0
C538 C 0.79774 0.40954 0.62225 0.0
C539 C 0.74973 0.40742 0.59434 0.0
N540 N 0.71478 0.44174 0.53566 0.0
N541 N 0.90872 0.44224 0.63842 0.0
C542 C 0.75472 0.45085 0.56485 0.0
C543 C 0.85172 0.45302 0.61951 0.0
N544 N 0.80643 0.54934 0.5402 0.0
N545 N 0.78997 0.37288 0.65244 0.0
H546 H 0.95158 0.46943 0.63388 0.0
H547 H 0.91614 0.40061 0.65437 0.0
H548 H 0.7487 0.34343 0.6567 0.0
H549 H 0.8207 0.37776 0.67476 0.0
H550 H 0.77317 0.55372 0.51904 0.0
H551 H 0.84494 0.58365 0.53991 0.0
H552 H 0.71779 0.46926 0.51232 0.0
H553 H 0.68014 0.40371 0.53415 0.0
C554 C 0.97352 0.18653 0.87101 0.0
C555 C -0.00125 0.19873 0.83653 0.0
C556 C 0.95824 0.31424 0.8407 0.0
C557 C 0.93558 0.30159 0.87601 0.0
N558 N 0.95157 0.23562 0.92879 0.0
N559 N 0.00473 0.26847 0.78529 0.0
C560 C 0.95255 0.24061 0.89237 0.0
C561 C 0.98737 0.26111 0.82033 0.0
N562 N 0.96914 0.12326 0.88343 0.0
N563 N 0.95815 0.37753 0.82806 0.0
H564 H 0.02557 0.22919 0.77054 0.0
H565 H 0.99351 0.31021 0.77019 0.0
H566 H 0.94582 0.41857 0.84385 0.0
H567 H 0.97835 0.39082 0.80358 0.0
H568 H 0.94707 0.1121 0.90786 0.0
H569 H 0.97921 0.0818 0.86742 0.0
H570 H 0.96913 0.19388 0.94224 0.0
H571 H 0.94119 0.27653 0.94532 0.0
C572 C 0.17665 0.57912 0.07718 0.0
C573 C 0.2472 0.57127 0.07667 0.0
C574 C 0.23951 0.46849 0.10849 0.0
C575 C 0.16919 0.47415 0.10975 0.0
N576 N 0.06957 0.52776 0.08813 0.0
N577 N 0.3356 0.49071 0.07262 0.0
C578 C 0.13696 0.52767 0.09208 0.0
C579 C 0.2748 0.50933 0.08543 0.0
N580 N 0.14778 0.63421 0.06271 0.0
N581 N 0.27312 0.42563 0.13026 0.0
H582 H 0.36098 0.51982 0.05424 0.0
H583 H 0.35615 0.44377 0.07713 0.0
H584 H 0.24958 0.3985 0.15006 0.0
H585 H 0.32484 0.42354 0.13138 0.0
H586 H 0.09844 0.64788 0.06696 0.0
H587 H 0.17323 0.66513 0.04535 0.0
H588 H 0.04358 0.56187 0.07258 0.0
H589 H 0.03967 0.49097 0.09877 0.0
C590 C 0.0065 0.74526 0.32457 0.0
C591 C 0.98041 0.79386 0.34882 0.0
C592 C 0.02077 0.72795 0.39907 0.0
C593 C 0.05425 0.68459 0.37541 0.0
N594 N 0.08684 0.65599 0.31521 0.0
N595 N -0.00601 0.8426 0.40831 0.0
C596 C 0.04866 0.6937 0.33788 0.0
C597 C -0.00406 0.78863 0.38595 0.0
N598 N 0.99334 0.74988 0.28881 0.0
N599 N 0.0172 0.7133 0.43461 0.0
H600 H 0.99187 0.89108 0.39905 0.0
H601 H 0.00772 0.84023 0.43519 0.0
H602 H 0.03672 0.66913 0.44485 0.0
H603 H 0.98915 0.74163 0.45268 0.0
H604 H 0.0039 0.7119 0.27052 0.0
H605 H 0.97066 0.79158 0.2776 0.0
H606 H 0.09113 0.66502 0.28792 0.0
H607 H 0.11733 0.61762 0.32433 0.0
loop_
_geom_bond_atom_site_label_1
_geom_bond_atom_site_label_2
_geom_bond_distance
_geom_bond_site_symmetry_2
_ccdc_geom_bond_type
Sc0 O3 2.025 . S
Sc0 O10 2.105 1_455 S
Sc0 O13 2.105 . S
Sc0 O16 2.105 1_455 S
Sc0 O19 2.105 . S
Sc1 O3 2.025 . S
Sc1 O11 2.105 . S
Sc1 O15 2.105 . S
Sc1 O17 2.105 . S
Sc1 O21 2.105 . S
Sc2 O3 2.025 . S
Sc2 O12 2.105 . S
Sc2 O14 2.105 1_455 S
Sc2 O18 2.105 . S
Sc2 O20 2.105 1_455 S
O3 Sc0 2.025 . S
O3 Sc1 2.025 . S
O3 Sc2 2.025 . S
C4 O10 1.268 . S
C4 O20 1.268 . S
C5 O11 1.268 . S
C5 O19 1.268 . S
C6 O12 1.268 . S
C6 O21 1.268 . S
C7 O13 1.268 . S
C7 O17 1.268 . S
C8 O14 1.268 . S
C8 O16 1.268 . S
C9 O15 1.268 . S
C9 O18 1.268 . S
O10 Sc0 2.105 1_655 S
O10 C4 1.268 . S
O11 Sc1 2.105 . S
O11 C5 1.268 . S
O12 Sc2 2.105 . S
O12 C6 1.268 . S
O13 Sc0 2.105 . S
O13 C7 1.268 . S
O14 Sc2 2.105 1_655 S
O14 C8 1.268 . S
O15 Sc1 2.105 . S
O15 C9 1.268 . S
O16 Sc0 2.105 1_655 S
O16 C8 1.268 . S
O17 Sc1 2.105 . S
O17 C7 1.268 . S
O18 Sc2 2.105 . S
O18 C9 1.268 . S
O19 Sc0 2.105 . S
O19 C5 1.268 . S
O20 Sc2 2.105 1_655 S
O20 C4 1.268 . S
O21 Sc1 2.105 . S
O21 C6 1.268 . S
Sc22 O25 2.025 . S
Sc22 O32 2.105 . S
Sc22 O35 2.105 . S
Sc22 O38 2.105 . S
Sc22 O41 2.105 . S
Sc23 O25 2.025 . S
Sc23 O33 2.105 . S
Sc23 O37 2.105 . S
Sc23 O39 2.105 . S
Sc23 O43 2.105 . S
Sc24 O25 2.025 . S
Sc24 O34 2.105 . S
Sc24 O36 2.105 . S
Sc24 O40 2.105 . S
Sc24 O42 2.105 . S
O25 Sc22 2.025 . S
O25 Sc23 2.025 . S
O25 Sc24 2.025 . S
C26 O32 1.268 . S
C26 O42 1.268 . S
C27 O33 1.268 . S
C27 O41 1.268 . S
C28 O34 1.268 . S
C28 O43 1.268 . S
C29 O35 1.268 . S
C29 O39 1.268 . S
C30 O36 1.268 . S
C30 O38 1.268 . S
C31 O37 1.268 . S
C31 O40 1.268 . S
O32 Sc22 2.105 . S
O32 C26 1.268 . S
O33 Sc23 2.105 . S
O33 C27 1.268 . S
O34 Sc24 2.105 . S
O34 C28 1.268 . S
O35 Sc22 2.105 . S
O35 C29 1.268 . S
O36 Sc24 2.105 . S
O36 C30 1.268 . S
O37 Sc23 2.105 . S
O37 C31 1.268 . S
O38 Sc22 2.105 . S
O38 C30 1.268 . S
O39 Sc23 2.105 . S
O39 C29 1.268 . S
O40 Sc24 2.105 . S
O40 C31 1.268 . S
O41 Sc22 2.105 . S
O41 C27 1.268 . S
O42 Sc24 2.105 . S
O42 C26 1.268 . S
O43 Sc23 2.105 . S
O43 C28 1.268 . S
Sc44 O47 2.025 . S
Sc44 O54 2.105 1_655 S
Sc44 O57 2.105 . S
Sc44 O60 2.105 1_655 S
Sc44 O63 2.105 . S
Sc45 O47 2.025 . S
Sc45 O55 2.105 . S
Sc45 O59 2.105 . S
Sc45 O61 2.105 . S
Sc45 O65 2.105 . S
Sc46 O47 2.025 . S
Sc46 O56 2.105 . S
Sc46 O58 2.105 1_655 S
Sc46 O62 2.105 . S
Sc46 O64 2.105 1_655 S
O47 Sc44 2.025 . S
O47 Sc45 2.025 . S
O47 Sc46 2.025 . S
C48 O54 1.268 . S
C48 O64 1.268 . S
C49 O55 1.268 . S
C49 O63 1.268 . S
C50 O56 1.268 . S
C50 O65 1.268 . S
C51 O57 1.268 . S
C51 O61 1.268 . S
C52 O58 1.268 . S
C52 O60 1.268 . S
C53 O59 1.268 . S
C53 O62 1.268 . S
O54 Sc44 2.105 1_455 S
O54 C48 1.268 . S
O55 Sc45 2.105 . S
O55 C49 1.268 . S
O56 Sc46 2.105 . S
O56 C50 1.268 . S
O57 Sc44 2.105 . S
O57 C51 1.268 . S
O58 Sc46 2.105 1_455 S
O58 C52 1.268 . S
O59 Sc45 2.105 . S
O59 C53 1.268 . S
O60 Sc44 2.105 1_455 S
O60 C52 1.268 . S
O61 Sc45 2.105 . S
O61 C51 1.268 . S
O62 Sc46 2.105 . S
O62 C53 1.268 . S
O63 Sc44 2.105 . S
O63 C49 1.268 . S
O64 Sc46 2.105 1_455 S
O64 C48 1.268 . S
O65 Sc45 2.105 . S
O65 C50 1.268 . S
Sc66 O69 2.025 . S
Sc66 O76 2.105 . S
Sc66 O79 2.105 . S
Sc66 O82 2.105 . S
Sc66 O85 2.105 . S
Sc67 O69 2.025 . S
Sc67 O77 2.105 . S
Sc67 O81 2.105 . S
Sc67 O83 2.105 . S
Sc67 O87 2.105 . S
Sc68 O69 2.025 . S
Sc68 O78 2.105 . S
Sc68 O80 2.105 . S
Sc68 O84 2.105 . S
Sc68 O86 2.105 . S
O69 Sc66 2.025 . S
O69 Sc67 2.025 . S
O69 Sc68 2.025 . S
C70 O76 1.268 . S
C70 O86 1.268 . S
C71 O77 1.268 . S
C71 O85 1.268 . S
C72 O78 1.268 . S
C72 O87 1.268 . S
C73 O79 1.268 . S
C73 O83 1.268 . S
C74 O80 1.268 . S
C74 O82 1.268 . S
C75 O81 1.268 . S
C75 O84 1.268 . S
O76 Sc66 2.105 . S
O76 C70 1.268 . S
O77 Sc67 2.105 . S
O77 C71 1.268 . S
O78 Sc68 2.105 . S
O78 C72 1.268 . S
O79 Sc66 2.105 . S
O79 C73 1.268 . S
O80 Sc68 2.105 . S
O80 C74 1.268 . S
O81 Sc67 2.105 . S
O81 C75 1.268 . S
O82 Sc66 2.105 . S
O82 C74 1.268 . S
O83 Sc67 2.105 . S
O83 C73 1.268 . S
O84 Sc68 2.105 . S
O84 C75 1.268 . S
O85 Sc66 2.105 . S
O85 C71 1.268 . S
O86 Sc68 2.105 . S
O86 C70 1.268 . S
O87 Sc67 2.105 . S
O87 C72 1.268 . S
Sc88 O91 2.025 . S
Sc88 O98 2.105 . S
Sc88 O101 2.105 . S
Sc88 O104 2.105 . S
Sc88 O107 2.105 . S
Sc89 O91 2.025 . S
Sc89 O99 2.105 . S
Sc89 O103 2.105 . S
Sc89 O105 2.105 . S
Sc89 O109 2.105 . S
Sc90 O91 2.025 . S
Sc90 O100 2.105 . S
Sc90 O102 2.105 . S
Sc90 O106 2.105 . S
Sc90 O108 2.105 . S
O91 Sc88 2.025 . S
O91 Sc89 2.025 . S
O91 Sc90 2.025 . S
C92 O98 1.268 . S
C92 O108 1.268 . S
C93 O99 1.268 . S
C93 O107 1.268 . S
C94 O100 1.268 . S
C94 O109 1.268 . S
C95 O101 1.268 . S
C95 O105 1.268 . S
C96 O102 1.268 . S
C96 O104 1.268 . S
C97 O103 1.268 . S
C97 O106 1.268 . S
O98 Sc88 2.105 . S
O98 C92 1.268 . S
O99 Sc89 2.105 . S
O99 C93 1.268 . S
O100 Sc90 2.105 . S
O100 C94 1.268 . S
O101 Sc88 2.105 . S
O101 C95 1.268 . S
O102 Sc90 2.105 . S
O102 C96 1.268 . S
O103 Sc89 2.105 . S
O103 C97 1.268 . S
O104 Sc88 2.105 . S
O104 C96 1.268 . S
O105 Sc89 2.105 . S
O105 C95 1.268 . S
O106 Sc90 2.105 . S
O106 C97 1.268 . S
O107 Sc88 2.105 . S
O107 C93 1.268 . S
O108 Sc90 2.105 . S
O108 C92 1.268 . S
O109 Sc89 2.105 . S
O109 C94 1.268 . S
Sc110 O113 2.025 . S
Sc110 O120 2.105 1_545 S
Sc110 O123 2.105 . S
Sc110 O126 2.105 1_545 S
Sc110 O129 2.105 . S
Sc111 O113 2.025 . S
Sc111 O121 2.105 . S
Sc111 O125 2.105 . S
Sc111 O127 2.105 . S
Sc111 O131 2.105 . S
Sc112 O113 2.025 . S
Sc112 O122 2.105 . S
Sc112 O124 2.105 1_545 S
Sc112 O128 2.105 . S
Sc112 O130 2.105 1_545 S
O113 Sc110 2.025 . S
O113 Sc111 2.025 . S
O113 Sc112 2.025 . S
C114 O120 1.268 . S
C114 O130 1.268 . S
C115 O121 1.268 . S
C115 O129 1.268 . S
C116 O122 1.268 . S
C116 O131 1.268 . S
C117 O123 1.268 . S
C117 O127 1.268 . S
C118 O124 1.268 . S
C118 O126 1.268 . S
C119 O125 1.268 . S
C119 O128 1.268 . S
O120 Sc110 2.105 1_565 S
O120 C114 1.268 . S
O121 Sc111 2.105 . S
O121 C115 1.268 . S
O122 Sc112 2.105 . S
O122 C116 1.268 . S
O123 Sc110 2.105 . S
O123 C117 1.268 . S
O124 Sc112 2.105 1_565 S
O124 C118 1.268 . S
O125 Sc111 2.105 . S
O125 C119 1.268 . S
O126 Sc110 2.105 1_565 S
O126 C118 1.268 . S
O127 Sc111 2.105 . S
O127 C117 1.268 . S
O128 Sc112 2.105 . S
O128 C119 1.268 . S
O129 Sc110 2.105 . S
O129 C115 1.268 . S
O130 Sc112 2.105 1_565 S
O130 C114 1.268 . S
O131 Sc111 2.105 . S
O131 C116 1.268 . S
Sc132 O135 2.025 . S
Sc132 O142 2.105 . S
Sc132 O145 2.105 . S
Sc132 O148 2.105 . S
Sc132 O151 2.105 . S
Sc133 O135 2.025 . S
Sc133 O143 2.105 . S
Sc133 O147 2.105 . S
Sc133 O149 2.105 . S
Sc133 O153 2.105 . S
Sc134 O135 2.025 . S
Sc134 O144 2.105 . S
Sc134 O146 2.105 . S
Sc134 O150 2.105 . S
Sc134 O152 2.105 . S
O135 Sc132 2.025 . S
O135 Sc133 2.025 . S
O135 Sc134 2.025 . S
C136 O142 1.268 . S
C136 O152 1.268 . S
C137 O143 1.268 . S
C137 O151 1.268 . S
C138 O144 1.268 . S
C138 O153 1.268 . S
C139 O145 1.268 . S
C139 O149 1.268 . S
C140 O146 1.268 . S
C140 O148 1.268 . S
C141 O147 1.268 . S
C141 O150 1.268 . S
O142 Sc132 2.105 . S
O142 C136 1.268 . S
O143 Sc133 2.105 . S
O143 C137 1.268 . S
O144 Sc134 2.105 . S
O144 C138 1.268 . S
O145 Sc132 2.105 . S
O145 C139 1.268 . S
O146 Sc134 2.105 . S
O146 C140 1.268 . S
O147 Sc133 2.105 . S
O147 C141 1.268 . S
O148 Sc132 2.105 . S
O148 C140 1.268 . S
O149 Sc133 2.105 . S
O149 C139 1.268 . S
O150 Sc134 2.105 . S
O150 C141 1.268 . S
O151 Sc132 2.105 . S
O151 C137 1.268 . S
O152 Sc134 2.105 . S
O152 C136 1.268 . S
O153 Sc133 2.105 . S
O153 C138 1.268 . S
Sc154 O157 2.025 . S
Sc154 O164 2.105 1_565 S
Sc154 O167 2.105 . S
Sc154 O170 2.105 1_565 S
Sc154 O173 2.105 . S
Sc155 O157 2.025 . S
Sc155 O165 2.105 . S
Sc155 O169 2.105 . S
Sc155 O171 2.105 . S
Sc155 O175 2.105 . S
Sc156 O157 2.025 . S
Sc156 O166 2.105 . S
Sc156 O168 2.105 1_565 S
Sc156 O172 2.105 . S
Sc156 O174 2.105 1_565 S
O157 Sc154 2.025 . S
O157 Sc155 2.025 . S
O157 Sc156 2.025 . S
C158 O164 1.268 . S
C158 O174 1.268 . S
C159 O165 1.268 . S
C159 O173 1.268 . S
C160 O166 1.268 . S
C160 O175 1.268 . S
C161 O167 1.268 . S
C161 O171 1.268 . S
C162 O168 1.268 . S
C162 O170 1.268 . S
C163 O169 1.268 . S
C163 O172 1.268 . S
O164 Sc154 2.105 1_545 S
O164 C158 1.268 . S
O165 Sc155 2.105 . S
O165 C159 1.268 . S
O166 Sc156 2.105 . S
O166 C160 1.268 . S
O167 Sc154 2.105 . S
O167 C161 1.268 . S
O168 Sc156 2.105 1_545 S
O168 C162 1.268 . S
O169 Sc155 2.105 . S
O169 C163 1.268 . S
O170 Sc154 2.105 1_545 S
O170 C162 1.268 . S
O171 Sc155 2.105 . S
O171 C161 1.268 . S
O172 Sc156 2.105 . S
O172 C163 1.268 . S
O173 Sc154 2.105 . S
O173 C159 1.268 . S
O174 Sc156 2.105 1_545 S
O174 C158 1.268 . S
O175 Sc155 2.105 . S
O175 C160 1.268 . S
C176 C177 1.363 . S
C176 C182 1.379 . S
C176 N184 1.356 . S
C177 C176 1.363 . S
C177 C183 1.363 . S
C178 C179 1.363 . S
C178 C183 1.379 . S
C178 N185 1.356 . S
C179 C178 1.363 . S
C179 C182 1.363 . S
N180 C182 1.356 . S
N180 H192 0.984 . S
N180 H193 0.985 . S
N181 C183 1.356 . S
N181 H186 0.984 . S
N181 H187 0.985 . S
C182 C176 1.379 . S
C182 C179 1.363 . S
C182 N180 1.356 . S
C183 C177 1.363 . S
C183 C178 1.379 . S
C183 N181 1.356 . S
N184 C176 1.356 . S
N184 H190 0.984 . S
N184 H191 0.984 . S
N185 C178 1.356 . S
N185 H188 0.984 1_545 S
N185 H189 0.985 1_545 S
H186 N181 0.984 . S
H187 N181 0.985 . S
H188 N185 0.984 1_565 S
H189 N185 0.985 1_565 S
H190 N184 0.984 . S
H191 N184 0.984 . S
H192 N180 0.984 . S
H193 N180 0.985 . S
C194 C195 1.363 . S
C194 C200 1.379 . S
C194 N202 1.356 . S
C195 C194 1.363 . S
C195 C201 1.363 . S
C196 C197 1.363 . S
C196 C201 1.379 . S
C196 N203 1.356 . S
C197 C196 1.363 . S
C197 C200 1.363 . S
N198 C200 1.356 . S
N198 H210 0.984 . S
N198 H211 0.985 . S
N199 C201 1.356 . S
N199 H204 0.984 . S
N199 H205 0.985 . S
C200 C194 1.379 . S
C200 C197 1.363 . S
C200 N198 1.356 . S
C201 C195 1.363 . S
C201 C196 1.379 . S
C201 N199 1.356 . S
N202 C194 1.356 . S
N202 H208 0.984 . S
N202 H209 0.984 . S
N203 C196 1.356 . S
N203 H206 0.984 . S
N203 H207 0.985 . S
H204 N199 0.984 . S
H205 N199 0.985 . S
H206 N203 0.984 . S
H207 N203 0.985 . S
H208 N202 0.984 . S
H209 N202 0.984 . S
H210 N198 0.984 . S
H211 N198 0.985 . S
C212 C213 1.363 . S
C212 C218 1.379 . S
C212 N220 1.356 . S
C213 C212 1.363 . S
C213 C219 1.363 . S
C214 C215 1.363 . S
C214 C219 1.379 . S
C214 N221 1.356 . S
C215 C214 1.363 . S
C215 C218 1.363 . S
N216 C218 1.356 . S
N216 H228 0.984 . S
N216 H229 0.985 . S
N217 C219 1.356 . S
N217 H222 0.984 . S
N217 H223 0.985 . S
C218 C212 1.379 . S
C218 C215 1.363 . S
C218 N216 1.356 . S
C219 C213 1.363 . S
C219 C214 1.379 . S
C219 N217 1.356 . S
N220 C212 1.356 . S
N220 H226 0.980 1_455 S
N220 H227 0.984 . S
N221 C214 1.356 . S
N221 H224 0.985 . S
N221 H225 0.985 1_565 S
H222 N217 0.984 . S
H223 N217 0.985 . S
H224 N221 0.985 . S
H225 N221 0.985 1_545 S
H226 N220 0.980 1_655 S
H227 N220 0.984 . S
H228 N216 0.984 . S
H229 N216 0.985 . S
C230 C231 1.363 1_556 S
C230 C236 1.379 . S
C230 N238 1.356 . S
C231 C230 1.363 1_554 S
C231 C237 1.363 . S
C232 C233 1.363 1_554 S
C232 C237 1.379 . S
C232 N239 1.356 . S
C233 C232 1.363 1_556 S
C233 C236 1.363 . S
N234 C236 1.356 . S
N234 H246 0.984 . S
N234 H247 0.985 . S
N235 C237 1.356 . S
N235 H240 0.984 . S
N235 H241 0.985 . S
C236 C230 1.379 . S
C236 C233 1.363 . S
C236 N234 1.356 . S
C237 C231 1.363 . S
C237 C232 1.379 . S
C237 N235 1.356 . S
N238 C230 1.356 . S
N238 H244 0.984 . S
N238 H245 0.984 1_556 S
N239 C232 1.356 . S
N239 H242 0.984 1_554 S
N239 H243 0.985 . S
H240 N235 0.984 . S
H241 N235 0.985 . S
H242 N239 0.984 1_556 S
H243 N239 0.985 . S
H244 N238 0.984 . S
H245 N238 0.984 1_554 S
H246 N234 0.984 . S
H247 N234 0.985 . S
C248 C249 1.363 . S
C248 C254 1.379 . S
C248 N256 1.356 . S
C249 C248 1.363 . S
C249 C255 1.363 . S
C250 C251 1.363 . S
C250 C255 1.379 . S
C250 N257 1.356 . S
C251 C250 1.363 . S
C251 C254 1.363 . S
N252 C254 1.356 . S
N252 H264 0.984 . S
N252 H265 0.985 . S
N253 C255 1.356 . S
N253 H258 0.984 . S
N253 H259 0.985 . S
C254 C248 1.379 . S
C254 C251 1.363 . S
C254 N252 1.356 . S
C255 C249 1.363 . S
C255 C250 1.379 . S
C255 N253 1.356 . S
N256 C248 1.356 . S
N256 H262 0.984 . S
N256 H263 0.984 . S
N257 C250 1.356 . S
N257 H260 0.984 . S
N257 H261 0.985 . S
H258 N253 0.984 . S
H259 N253 0.985 . S
H260 N257 0.984 . S
H261 N257 0.985 . S
H262 N256 0.984 . S
H263 N256 0.984 . S
H264 N252 0.984 . S
H265 N252 0.985 . S
C266 C267 1.363 . S
C266 C272 1.379 . S
C266 N274 1.356 . S
C267 C266 1.363 . S
C267 C273 1.363 . S
C268 C269 1.363 . S
C268 C273 1.379 . S
C268 N275 1.356 . S
C269 C268 1.363 . S
C269 C272 1.363 . S
N270 C272 1.356 . S
N270 H282 0.984 . S
N270 H283 0.985 . S
N271 C273 1.356 . S
N271 H276 0.984 . S
N271 H277 0.985 . S
C272 C266 1.379 . S
C272 C269 1.363 . S
C272 N270 1.356 . S
C273 C267 1.363 . S
C273 C268 1.379 . S
C273 N271 1.356 . S
N274 C266 1.356 . S
N274 H280 0.984 . S
N274 H281 0.984 . S
N275 C268 1.356 . S
N275 H278 0.984 . S
N275 H279 0.985 . S
H276 N271 0.984 . S
H277 N271 0.985 . S
H278 N275 0.984 . S
H279 N275 0.985 . S
H280 N274 0.984 . S
H281 N274 0.984 . S
H282 N270 0.984 . S
H283 N270 0.985 . S
C284 C285 1.363 . S
C284 C290 1.379 . S
C284 N292 1.356 . S
C285 C284 1.363 . S
C285 C291 1.363 . S
C286 C287 1.363 . S
C286 C291 1.379 . S
C286 N293 1.356 . S
C287 C286 1.363 . S
C287 C290 1.363 . S
N288 C290 1.356 . S
N288 H300 0.984 . S
N288 H301 0.985 . S
N289 C291 1.356 . S
N289 H294 0.984 . S
N289 H295 0.985 . S
C290 C284 1.379 . S
C290 C287 1.363 . S
C290 N288 1.356 . S
C291 C285 1.363 . S
C291 C286 1.379 . S
C291 N289 1.356 . S
N292 C284 1.356 . S
N292 H298 0.984 . S
N292 H299 0.984 . S
N293 C286 1.356 . S
N293 H296 0.984 . S
N293 H297 0.985 . S
H294 N289 0.984 . S
H295 N289 0.985 . S
H296 N293 0.984 . S
H297 N293 0.985 . S
H298 N292 0.984 . S
H299 N292 0.984 . S
H300 N288 0.984 . S
H301 N288 0.985 . S
C302 C303 1.363 . S
C302 C308 1.379 . S
C302 N310 1.356 . S
C303 C302 1.363 . S
C303 C309 1.363 . S
C304 C305 1.363 . S
C304 C309 1.379 . S
C304 N311 1.356 . S
C305 C304 1.363 . S
C305 C308 1.363 . S
N306 C308 1.356 1_556 S
N306 H318 0.984 . S
N306 H319 0.985 . S
N307 C309 1.356 . S
N307 H312 0.984 . S
N307 H313 0.985 . S
C308 C302 1.379 . S
C308 C305 1.363 . S
C308 N306 1.356 1_554 S
C309 C303 1.363 . S
C309 C304 1.379 . S
C309 N307 1.356 . S
N310 C302 1.356 . S
N310 H316 0.984 . S
N310 H317 0.984 . S
N311 C304 1.356 . S
N311 H314 0.984 1_554 S
N311 H315 0.985 . S
H312 N307 0.984 . S
H313 N307 0.985 . S
H314 N311 0.984 1_556 S
H315 N311 0.985 . S
H316 N310 0.984 . S
H317 N310 0.984 . S
H318 N306 0.984 . S
H319 N306 0.985 . S
C320 C321 1.363 . S
C320 C326 1.379 . S
C320 N328 1.356 . S
C321 C320 1.363 . S
C321 C327 1.363 . S
C322 C323 1.363 . S
C322 C327 1.379 . S
C322 N329 1.356 . S
C323 C322 1.363 . S
C323 C326 1.363 . S
N324 C326 1.356 . S
N324 H336 0.984 . S
N324 H337 0.985 . S
N325 C327 1.356 . S
N325 H330 0.984 . S
N325 H331 0.985 . S
C326 C320 1.379 . S
C326 C323 1.363 . S
C326 N324 1.356 . S
C327 C321 1.363 . S
C327 C322 1.379 . S
C327 N325 1.356 . S
N328 C320 1.356 . S
N328 H334 0.984 . S
N328 H335 0.984 . S
N329 C322 1.356 . S
N329 H332 0.984 . S
N329 H333 0.985 . S
H330 N325 0.984 . S
H331 N325 0.985 . S
H332 N329 0.984 . S
H333 N329 0.985 . S
H334 N328 0.984 . S
H335 N328 0.984 . S
H336 N324 0.984 . S
H337 N324 0.985 . S
C338 C339 1.363 . S
C338 C344 1.379 . S
C338 N346 1.356 . S
C339 C338 1.363 . S
C339 C345 1.363 . S
C340 C341 1.363 . S
C340 C345 1.379 . S
C340 N347 1.356 . S
C341 C340 1.363 . S
C341 C344 1.363 . S
N342 C344 1.356 . S
N342 H354 0.984 . S
N342 H355 0.985 . S
N343 C345 1.356 . S
N343 H348 0.984 . S
N343 H349 0.985 . S
C344 C338 1.379 . S
C344 C341 1.363 . S
C344 N342 1.356 . S
C345 C339 1.363 . S
C345 C340 1.379 . S
C345 N343 1.356 . S
N346 C338 1.356 . S
N346 H352 0.984 . S
N346 H353 0.984 . S
N347 C340 1.356 . S
N347 H350 0.984 . S
N347 H351 0.985 . S
H348 N343 0.984 . S
H349 N343 0.985 . S
H350 N347 0.984 . S
H351 N347 0.985 . S
H352 N346 0.984 . S
H353 N346 0.984 . S
H354 N342 0.984 . S
H355 N342 0.985 . S
C356 C357 1.363 . S
C356 C362 1.382 . S
C356 N364 1.352 1_556 S
C357 C356 1.363 . S
C357 C363 1.363 . S
C358 C359 1.363 . S
C358 C363 1.379 . S
C358 N365 1.356 . S
C359 C358 1.363 . S
C359 C362 1.363 . S
N360 C362 1.356 . S
N360 H372 0.984 . S
N360 H373 0.985 . S
N361 C363 1.356 . S
N361 H366 0.984 . S
N361 H367 0.985 . S
C362 C356 1.382 . S
C362 C359 1.363 . S
C362 N360 1.356 . S
C363 C357 1.363 . S
C363 C358 1.379 . S
C363 N361 1.356 . S
N364 C356 1.352 1_554 S
N364 H370 0.984 . S
N364 H371 0.984 . S
N365 C358 1.356 . S
N365 H368 0.984 . S
N365 H369 0.985 . S
H366 N361 0.984 . S
H367 N361 0.985 . S
H368 N365 0.984 . S
H369 N365 0.985 . S
H370 N364 0.984 . S
H371 N364 0.984 . S
H372 N360 0.984 . S
H373 N360 0.985 . S
C374 C375 1.363 . S
C374 C380 1.379 . S
C374 N382 1.356 . S
C375 C374 1.363 . S
C375 C381 1.363 . S
C376 C377 1.363 . S
C376 C381 1.379 . S
C376 N383 1.356 . S
C377 C376 1.363 . S
C377 C380 1.363 . S
N378 C380 1.356 . S
N378 H390 0.984 . S
N378 H391 0.985 . S
N379 C381 1.356 . S
N379 H384 0.984 . S
N379 H385 0.985 . S
C380 C374 1.379 . S
C380 C377 1.363 . S
C380 N378 1.356 . S
C381 C375 1.363 . S
C381 C376 1.379 . S
C381 N379 1.356 . S
N382 C374 1.356 . S
N382 H388 0.984 . S
N382 H389 0.984 . S
N383 C376 1.356 . S
N383 H386 0.984 . S
N383 H387 0.985 . S
H384 N379 0.984 . S
H385 N379 0.985 . S
H386 N383 0.984 . S
H387 N383 0.985 . S
H388 N382 0.984 . S
H389 N382 0.984 . S
H390 N378 0.984 . S
H391 N378 0.985 . S
C392 C393 1.363 . S
C392 C398 1.379 1_556 S
C392 N400 1.356 . S
C393 C392 1.363 . S
C393 C399 1.363 . S
C394 C395 1.363 . S
C394 C399 1.379 1_554 S
C394 N401 1.356 . S
C395 C394 1.363 . S
C395 C398 1.363 . S
N396 C398 1.356 . S
N396 H408 0.984 . S
N396 H409 0.985 . S
N397 C399 1.356 . S
N397 H402 0.984 . S
N397 H403 0.985 . S
C398 C392 1.379 1_554 S
C398 C395 1.363 . S
C398 N396 1.356 . S
C399 C393 1.363 . S
C399 C394 1.379 1_556 S
C399 N397 1.356 . S
N400 C392 1.356 . S
N400 H406 0.984 . S
N400 H407 0.984 . S
N401 C394 1.356 . S
N401 H404 0.984 . S
N401 H405 0.985 . S
H402 N397 0.984 . S
H403 N397 0.985 . S
H404 N401 0.984 . S
H405 N401 0.985 . S
H406 N400 0.984 . S
H407 N400 0.984 . S
H408 N396 0.984 . S
H409 N396 0.985 . S
C410 C411 1.363 . S
C410 C416 1.379 . S
C410 N418 1.356 . S
C411 C410 1.363 . S
C411 C417 1.363 . S
C412 C413 1.363 . S
C412 C417 1.379 . S
C412 N419 1.356 . S
C413 C412 1.363 . S
C413 C416 1.363 . S
N414 C416 1.356 . S
N414 H426 0.984 . S
N414 H427 0.985 . S
N415 C417 1.356 . S
N415 H420 0.984 . S
N415 H421 0.985 . S
C416 C410 1.379 . S
C416 C413 1.363 . S
C416 N414 1.356 . S
C417 C411 1.363 . S
C417 C412 1.379 . S
C417 N415 1.356 . S
N418 C410 1.356 . S
N418 H424 0.984 . S
N418 H425 0.984 . S
N419 C412 1.356 . S
N419 H422 0.984 . S
N419 H423 0.985 . S
H420 N415 0.984 . S
H421 N415 0.985 . S
H422 N419 0.984 . S
H423 N419 0.985 . S
H424 N418 0.984 . S
H425 N418 0.984 . S
H426 N414 0.984 . S
H427 N414 0.985 . S
C428 C429 1.363 . S
C428 C434 1.379 . S
C428 N436 1.356 . S
C429 C428 1.363 . S
C429 C435 1.363 . S
C430 C431 1.363 . S
C430 C435 1.379 . S
C430 N437 1.356 . S
C431 C430 1.363 . S
C431 C434 1.363 . S
N432 C434 1.356 . S
N432 H444 0.984 . S
N432 H445 0.985 . S
N433 C435 1.356 . S
N433 H438 0.984 . S
N433 H439 0.985 . S
C434 C428 1.379 . S
C434 C431 1.363 . S
C434 N432 1.356 . S
C435 C429 1.363 . S
C435 C430 1.379 . S
C435 N433 1.356 . S
N436 C428 1.356 . S
N436 H442 0.984 . S
N436 H443 0.984 . S
N437 C430 1.356 . S
N437 H440 0.984 . S
N437 H441 0.985 . S
H438 N433 0.984 . S
H439 N433 0.985 . S
H440 N437 0.984 . S
H441 N437 0.985 . S
H442 N436 0.984 . S
H443 N436 0.984 . S
H444 N432 0.984 . S
H445 N432 0.985 . S
C446 C447 1.363 . S
C446 C452 1.379 . S
C446 N454 1.356 . S
C447 C446 1.363 . S
C447 C453 1.363 . S
C448 C449 1.363 . S
C448 C453 1.379 . S
C448 N455 1.356 . S
C449 C448 1.363 . S
C449 C452 1.363 . S
N450 C452 1.356 . S
N450 H462 0.984 . S
N450 H463 0.985 . S
N451 C453 1.356 . S
N451 H456 0.984 . S
N451 H457 0.985 . S
C452 C446 1.379 . S
C452 C449 1.363 . S
C452 N450 1.356 . S
C453 C447 1.363 . S
C453 C448 1.379 . S
C453 N451 1.356 . S
N454 C446 1.356 . S
N454 H460 0.984 . S
N454 H461 0.984 . S
N455 C448 1.356 . S
N455 H458 0.984 . S
N455 H459 0.985 . S
H456 N451 0.984 . S
H457 N451 0.985 . S
H458 N455 0.984 . S
H459 N455 0.985 . S
H460 N454 0.984 . S
H461 N454 0.984 . S
H462 N450 0.984 . S
H463 N450 0.985 . S
C464 C465 1.363 . S
C464 C470 1.379 1_545 S
C464 N472 1.356 . S
C465 C464 1.363 . S
C465 C471 1.363 . S
C466 C467 1.363 . S
C466 C471 1.379 1_565 S
C466 N473 1.356 . S
C467 C466 1.363 . S
C467 C470 1.363 . S
N468 C470 1.356 . S
N468 H480 0.984 . S
N468 H481 0.985 . S
N469 C471 1.356 . S
N469 H474 0.984 . S
N469 H475 0.985 . S
C470 C464 1.379 1_565 S
C470 C467 1.363 . S
C470 N468 1.356 . S
C471 C465 1.363 . S
C471 C466 1.379 1_545 S
C471 N469 1.356 . S
N472 C464 1.356 . S
N472 H478 0.984 . S
N472 H479 0.984 . S
N473 C466 1.356 . S
N473 H476 0.984 . S
N473 H477 0.985 . S
H474 N469 0.984 . S
H475 N469 0.985 . S
H476 N473 0.984 . S
H477 N473 0.985 . S
H478 N472 0.984 . S
H479 N472 0.984 . S
H480 N468 0.984 . S
H481 N468 0.985 . S
C482 C483 1.363 . S
C482 C488 1.379 . S
C482 N490 1.356 . S
C483 C482 1.363 . S
C483 C489 1.363 . S
C484 C485 1.363 . S
C484 C489 1.379 . S
C484 N491 1.356 . S
C485 C484 1.363 . S
C485 C488 1.363 . S
N486 C488 1.356 . S
N486 H498 0.984 . S
N486 H499 0.985 . S
N487 C489 1.356 . S
N487 H492 0.984 . S
N487 H493 0.985 . S
C488 C482 1.379 . S
C488 C485 1.363 . S
C488 N486 1.356 . S
C489 C483 1.363 . S
C489 C484 1.379 . S
C489 N487 1.356 . S
N490 C482 1.356 . S
N490 H496 0.984 . S
N490 H497 0.984 . S
N491 C484 1.356 . S
N491 H494 0.984 . S
N491 H495 0.985 . S
H492 N487 0.984 . S
H493 N487 0.985 . S
H494 N491 0.984 . S
H495 N491 0.985 . S
H496 N490 0.984 . S
H497 N490 0.984 . S
H498 N486 0.984 . S
H499 N486 0.985 . S
C500 C501 1.363 1_565 S
C500 C506 1.379 . S
C500 N508 1.356 . S
C501 C500 1.363 1_545 S
C501 C507 1.363 . S
C502 C503 1.363 1_545 S
C502 C507 1.379 . S
C502 N509 1.356 . S
C503 C502 1.363 1_565 S
C503 C506 1.363 . S
N504 C506 1.356 . S
N504 H516 0.984 . S
N504 H517 0.985 . S
N505 C507 1.356 . S
N505 H510 0.984 . S
N505 H511 0.985 . S
C506 C500 1.379 . S
C506 C503 1.363 . S
C506 N504 1.356 . S
C507 C501 1.363 . S
C507 C502 1.379 . S
C507 N505 1.356 . S
N508 C500 1.356 . S
N508 H514 0.984 . S
N508 H515 0.984 1_565 S
N509 C502 1.356 . S
N509 H512 0.984 1_545 S
N509 H513 0.985 . S
H510 N505 0.984 . S
H511 N505 0.985 . S
H512 N509 0.984 1_565 S
H513 N509 0.985 . S
H514 N508 0.984 . S
H515 N508 0.984 1_545 S
H516 N504 0.984 . S
H517 N504 0.985 . S
C518 C519 1.363 . S
C518 C524 1.379 . S
C518 N526 1.356 . S
C519 C518 1.363 . S
C519 C525 1.363 . S
C520 C521 1.363 . S
C520 C525 1.379 . S
C520 N527 1.356 . S
C521 C520 1.363 . S
C521 C524 1.363 . S
N522 C524 1.356 . S
N522 H534 0.984 . S
N522 H535 0.985 . S
N523 C525 1.356 . S
N523 H528 0.984 . S
N523 H529 0.985 . S
C524 C518 1.379 . S
C524 C521 1.363 . S
C524 N522 1.356 . S
C525 C519 1.363 . S
C525 C520 1.379 . S
C525 N523 1.356 . S
N526 C518 1.356 . S
N526 H532 0.984 . S
N526 H533 0.984 . S
N527 C520 1.356 . S
N527 H530 0.984 . S
N527 H531 0.985 . S
H528 N523 0.984 . S
H529 N523 0.985 . S
H530 N527 0.984 . S
H531 N527 0.985 . S
H532 N526 0.984 . S
H533 N526 0.984 . S
H534 N522 0.984 . S
H535 N522 0.985 . S
C536 C537 1.363 . S
C536 C542 1.379 . S
C536 N544 1.356 . S
C537 C536 1.363 . S
C537 C543 1.363 . S
C538 C539 1.363 . S
C538 C543 1.379 . S
C538 N545 1.356 . S
C539 C538 1.363 . S
C539 C542 1.363 . S
N540 C542 1.356 . S
N540 H552 0.984 . S
N540 H553 0.985 . S
N541 C543 1.356 . S
N541 H546 0.984 . S
N541 H547 0.985 . S
C542 C536 1.379 . S
C542 C539 1.363 . S
C542 N540 1.356 . S
C543 C537 1.363 . S
C543 C538 1.379 . S
C543 N541 1.356 . S
N544 C536 1.356 . S
N544 H550 0.984 . S
N544 H551 0.984 . S
N545 C538 1.356 . S
N545 H548 0.984 . S
N545 H549 0.985 . S
H546 N541 0.984 . S
H547 N541 0.985 . S
H548 N545 0.984 . S
H549 N545 0.985 . S
H550 N544 0.984 . S
H551 N544 0.984 . S
H552 N540 0.984 . S
H553 N540 0.985 . S
C554 C555 1.363 1_655 S
C554 C560 1.379 . S
C554 N562 1.356 1_655 S
C555 C554 1.363 1_455 S
C555 C561 1.363 . S
C556 C557 1.363 1_455 S
C556 C561 1.379 . S
C556 N563 1.356 1_455 S
C557 C556 1.363 1_655 S
C557 C560 1.363 . S
N558 C560 1.356 . S
N558 H570 0.984 . S
N558 H571 0.985 . S
N559 C561 1.356 . S
N559 H564 0.984 . S
N559 H565 0.985 . S
C560 C554 1.379 . S
C560 C557 1.363 . S
C560 N558 1.356 . S
C561 C555 1.363 . S
C561 C556 1.379 . S
C561 N559 1.356 . S
N562 C554 1.356 1_455 S
N562 H568 0.984 1_455 S
N562 H569 0.984 . S
N563 C556 1.356 1_655 S
N563 H566 0.984 . S
N563 H567 0.985 1_655 S
H564 N559 0.984 . S
H565 N559 0.985 . S
H566 N563 0.984 . S
H567 N563 0.985 1_455 S
H568 N562 0.984 1_655 S
H569 N562 0.984 . S
H570 N558 0.984 . S
H571 N558 0.985 . S
C572 C573 1.363 . S
C572 C578 1.379 . S
C572 N580 1.356 . S
C573 C572 1.363 . S
C573 C579 1.363 . S
C574 C575 1.363 . S
C574 C579 1.379 . S
C574 N581 1.356 . S
C575 C574 1.363 . S
C575 C578 1.363 . S
N576 C578 1.356 . S
N576 H588 0.984 . S
N576 H589 0.985 . S
N577 C579 1.356 . S
N577 H582 0.984 . S
N577 H583 0.985 . S
C578 C572 1.379 . S
C578 C575 1.363 . S
C578 N576 1.356 . S
C579 C573 1.363 . S
C579 C574 1.379 . S
C579 N577 1.356 . S
N580 C572 1.356 . S
N580 H586 0.984 . S
N580 H587 0.984 . S
N581 C574 1.356 . S
N581 H584 0.984 . S
N581 H585 0.985 . S
H582 N577 0.984 . S
H583 N577 0.985 . S
H584 N581 0.984 . S
H585 N581 0.985 . S
H586 N580 0.984 . S
H587 N580 0.984 . S
H588 N576 0.984 . S
H589 N576 0.985 . S
C590 C591 1.363 . S
C590 C596 1.379 1_655 S
C590 N598 1.356 . S
C591 C590 1.363 . S
C591 C597 1.363 . S
C592 C593 1.363 . S
C592 C597 1.379 1_455 S
C592 N599 1.356 . S
C593 C592 1.363 . S
C593 C596 1.363 . S
N594 C596 1.356 . S
N594 H606 0.984 . S
N594 H607 0.985 . S
N595 C597 1.356 . S
N595 H600 0.984 . S
N595 H601 0.985 . S
C596 C590 1.379 1_455 S
C596 C593 1.363 . S
C596 N594 1.356 . S
C597 C591 1.363 . S
C597 C592 1.379 1_655 S
C597 N595 1.356 . S
N598 C590 1.356 . S
N598 H604 0.984 . S
N598 H605 0.984 . S
N599 C592 1.356 . S
N599 H602 0.984 . S
N599 H603 0.986 . S
H600 N595 0.984 . S
H601 N595 0.985 . S
H602 N599 0.984 . S
H603 N599 0.986 . S
H604 N598 0.984 . S
H605 N598 0.984 . S
H606 N594 0.984 . S
H607 N594 0.985 . S
C177 C8 1.671 . S
C179 C158 1.671 . S
C195 C26 1.671 . S
C197 C92 1.671 . S
C213 C52 1.671 . S
C215 C118 1.671 . S
C231 C136 1.671 . S
C233 C74 1.671 . S
C249 C9 1.446 . S
C251 C30 1.529 . S
C267 C48 1.529 . S
C269 C27 1.446 . S
C285 C70 1.529 . S
C287 C53 1.446 . S
C303 C4 1.529 . S
C305 C75 1.446 1_554 S
C321 C93 1.446 . S
C323 C162 1.529 . S
C339 C119 1.446 . S
C341 C96 1.529 . S
C357 C137 1.446 1_556 S
C359 C114 1.529 . S
C375 C140 1.529 . S
C377 C159 1.446 . S
C393 C115 0.958 . S
C395 C5 0.958 . S
C411 C141 0.958 . S
C413 C31 0.958 . S
C429 C163 0.958 . S
C431 C49 0.958 . S
C447 C97 0.958 . S
C449 C71 0.958 . S
C465 C7 1.476 . S
C467 C139 1.537 . S
C483 C28 1.476 . S
C485 C161 1.537 . S
C501 C95 1.537 . S
C503 C51 1.476 . S
C519 C116 1.537 . S
C521 C73 1.476 . S
C537 C50 1.537 . S
C539 C94 1.476 . S
C555 C117 1.476 . S
C557 C72 1.537 . S
C573 C138 1.476 . S
C575 C6 1.537 . S
C591 C160 1.476 . S
C593 C29 1.537 . S
