# Generated by pormake.
# Topology unv, (4)-cn, num edge types: 1
# Building blocks:
#     Node 0, Type 0, BuildingBlock: CEKHIL_clean_sbu_0, # of connection points: 4
#     Node 1, Type 0, BuildingBlock: CEKHIL_clean_sbu_0, # of connection points: 4
#     Node 2, Type 0, BuildingBlock: CEKHIL_clean_sbu_0, # of connection points: 4
#     Node 3, Type 0, BuildingBlock: CEKHIL_clean_sbu_0, # of connection points: 4
#     Node 4, Type 0, BuildingBlock: CEKHIL_clean_sbu_0, # of connection points: 4
#     Node 5, Type 0, BuildingBlock: CEKHIL_clean_sbu_0, # of connection points: 4
#     Node 6, Type 0, BuildingBlock: CEKHIL_clean_sbu_0, # of connection points: 4
#     Node 7, Type 0, BuildingBlock: CEKHIL_clean_sbu_0, # of connection points: 4
#     Node 8, Type 0, BuildingBlock: CEKHIL_clean_sbu_0, # of connection points: 4
#     Node 9, Type 0, BuildingBlock: CEKHIL_clean_sbu_0, # of connection points: 4
#     Node 10, Type 0, BuildingBlock: CEKHIL_clean_sbu_0, # of connection points: 4
#     Node 11, Type 0, BuildingBlock: CEKHIL_clean_sbu_0, # of connection points: 4
#     Node 12, Type 0, BuildingBlock: CEKHIL_clean_sbu_0, # of connection points: 4
#     Node 13, Type 0, BuildingBlock: CEKHIL_clean_sbu_0, # of connection points: 4
#     Node 14, Type 0, BuildingBlock: CEKHIL_clean_sbu_0, # of connection points: 4
#     Node 15, Type 0, BuildingBlock: CEKHIL_clean_sbu_0, # of connection points: 4
#     Node 16, Type 0, BuildingBlock: CEKHIL_clean_sbu_0, # of connection points: 4
#     Node 17, Type 0, BuildingBlock: CEKHIL_clean_sbu_0, # of connection points: 4
#     Node 18, Type 0, BuildingBlock: CEKHIL_clean_sbu_0, # of connection points: 4
#     Node 19, Type 0, BuildingBlock: CEKHIL_clean_sbu_0, # of connection points: 4
#     Node 20, Type 0, BuildingBlock: CEKHIL_clean_sbu_0, # of connection points: 4
#     Node 21, Type 0, BuildingBlock: CEKHIL_clean_sbu_0, # of connection points: 4
#     Node 22, Type 0, BuildingBlock: CEKHIL_clean_sbu_0, # of connection points: 4
#     Node 23, Type 0, BuildingBlock: CEKHIL_clean_sbu_0, # of connection points: 4
#     Edge 24, Type (0, 0), BuildingBlock: XIVTED_clean_linker_0, # of connection points: 2
#     Edge 25, Type (0, 0), BuildingBlock: XIVTED_clean_linker_0, # of connection points: 2
#     Edge 26, Type (0, 0), BuildingBlock: XIVTED_clean_linker_0, # of connection points: 2
#     Edge 27, Type (0, 0), BuildingBlock: XIVTED_clean_linker_0, # of connection points: 2
#     Edge 28, Type (0, 0), BuildingBlock: XIVTED_clean_linker_0, # of connection points: 2
#     Edge 29, Type (0, 0), BuildingBlock: XIVTED_clean_linker_0, # of connection points: 2
#     Edge 30, Type (0, 0), BuildingBlock: XIVTED_clean_linker_0, # of connection points: 2
#     Edge 31, Type (0, 0), BuildingBlock: XIVTED_clean_linker_0, # of connection points: 2
#     Edge 32, Type (0, 0), BuildingBlock: XIVTED_clean_linker_0, # of connection points: 2
#     Edge 33, Type (0, 0), BuildingBlock: XIVTED_clean_linker_0, # of connection points: 2
#     Edge 34, Type (0, 0), BuildingBlock: XIVTED_clean_linker_0, # of connection points: 2
#     Edge 35, Type (0, 0), BuildingBlock: XIVTED_clean_linker_0, # of connection points: 2
#     Edge 36, Type (0, 0), BuildingBlock: XIVTED_clean_linker_0, # of connection points: 2
#     Edge 37, Type (0, 0), BuildingBlock: XIVTED_clean_linker_0, # of connection points: 2
#     Edge 38, Type (0, 0), BuildingBlock: XIVTED_clean_linker_0, # of connection points: 2
#     Edge 39, Type (0, 0), BuildingBlock: XIVTED_clean_linker_0, # of connection points: 2
#     Edge 40, Type (0, 0), BuildingBlock: XIVTED_clean_linker_0, # of connection points: 2
#     Edge 41, Type (0, 0), BuildingBlock: XIVTED_clean_linker_0, # of connection points: 2
#     Edge 42, Type (0, 0), BuildingBlock: XIVTED_clean_linker_0, # of connection points: 2
#     Edge 43, Type (0, 0), BuildingBlock: XIVTED_clean_linker_0, # of connection points: 2
#     Edge 44, Type (0, 0), BuildingBlock: XIVTED_clean_linker_0, # of connection points: 2
#     Edge 45, Type (0, 0), BuildingBlock: XIVTED_clean_linker_0, # of connection points: 2
#     Edge 46, Type (0, 0), BuildingBlock: XIVTED_clean_linker_0, # of connection points: 2
#     Edge 47, Type (0, 0), BuildingBlock: XIVTED_clean_linker_0, # of connection points: 2
#     Edge 48, Type (0, 0), BuildingBlock: XIVTED_clean_linker_0, # of connection points: 2
#     Edge 49, Type (0, 0), BuildingBlock: XIVTED_clean_linker_0, # of connection points: 2
#     Edge 50, Type (0, 0), BuildingBlock: XIVTED_clean_linker_0, # of connection points: 2
#     Edge 51, Type (0, 0), BuildingBlock: XIVTED_clean_linker_0, # of connection points: 2
#     Edge 52, Type (0, 0), BuildingBlock: XIVTED_clean_linker_0, # of connection points: 2
#     Edge 53, Type (0, 0), BuildingBlock: XIVTED_clean_linker_0, # of connection points: 2
#     Edge 54, Type (0, 0), BuildingBlock: XIVTED_clean_linker_0, # of connection points: 2
#     Edge 55, Type (0, 0), BuildingBlock: XIVTED_clean_linker_0, # of connection points: 2
#     Edge 56, Type (0, 0), BuildingBlock: XIVTED_clean_linker_0, # of connection points: 2
#     Edge 57, Type (0, 0), BuildingBlock: XIVTED_clean_linker_0, # of connection points: 2
#     Edge 58, Type (0, 0), BuildingBlock: XIVTED_clean_linker_0, # of connection points: 2
#     Edge 59, Type (0, 0), BuildingBlock: XIVTED_clean_linker_0, # of connection points: 2
#     Edge 60, Type (0, 0), BuildingBlock: XIVTED_clean_linker_0, # of connection points: 2
#     Edge 61, Type (0, 0), BuildingBlock: XIVTED_clean_linker_0, # of connection points: 2
#     Edge 62, Type (0, 0), BuildingBlock: XIVTED_clean_linker_0, # of connection points: 2
#     Edge 63, Type (0, 0), BuildingBlock: XIVTED_clean_linker_0, # of connection points: 2
#     Edge 64, Type (0, 0), BuildingBlock: XIVTED_clean_linker_0, # of connection points: 2
#     Edge 65, Type (0, 0), BuildingBlock: XIVTED_clean_linker_0, # of connection points: 2
#     Edge 66, Type (0, 0), BuildingBlock: XIVTED_clean_linker_0, # of connection points: 2
#     Edge 67, Type (0, 0), BuildingBlock: XIVTED_clean_linker_0, # of connection points: 2
#     Edge 68, Type (0, 0), BuildingBlock: XIVTED_clean_linker_0, # of connection points: 2
#     Edge 69, Type (0, 0), BuildingBlock: XIVTED_clean_linker_0, # of connection points: 2
#     Edge 70, Type (0, 0), BuildingBlock: XIVTED_clean_linker_0, # of connection points: 2
#     Edge 71, Type (0, 0), BuildingBlock: XIVTED_clean_linker_0, # of connection points: 2
# Relax obj value: 0.327
# Max RMSD: 0.239
# Mean RMSD: 0.214
data_MOF--net-unv--node1-CEKHIL_clean_sbu_0--edge1-XIVTED_clean_linker_0
_symmetry_space_group_name_H-M    P1
_symmetry_Int_Tables_number       1
_symmetry_cell_setting            triclinic
loop_
_symmetry_equiv_pos_as_xyz
'x, y, z'
_cell_length_a     47.953916
_cell_length_b     47.980534
_cell_length_c     47.970187
_cell_angle_alpha  89.995635
_cell_angle_beta   89.972708
_cell_angle_gamma 89.984394
loop_
_atom_site_label
_atom_site_type_symbol
_atom_site_fract_x
_atom_site_fract_y
_atom_site_fract_z
_atom_type_partial_charge
Co0 Co 0.0285 0.10958 0.37812 0.0
O1 O 0.04462 0.14162 0.36004 0.0
O2 O 1.00006 0.12999 0.35794 0.0
C3 C 0.04872 0.1164 0.42012 0.0
O4 O 0.00408 0.07921 0.39498 0.0
Co5 Co 0.0656 0.06195 0.4022 0.0
O6 O 0.0307 0.05183 0.42221 0.0
C7 C 0.054 0.06427 0.3416 0.0
C8 C 0.01961 0.14774 0.35173 0.0
C9 C 0.00695 0.06003 0.41352 0.0
O10 O 0.03678 0.08473 0.34486 0.0
O11 O 0.06903 0.05432 0.3613 0.0
O12 O 0.02625 0.12998 0.41349 0.0
O13 O 0.05946 0.10158 0.40047 0.0
Co14 Co 0.96894 0.38511 0.37023 0.0
O15 O 0.95183 0.3539 0.35156 0.0
O16 O 0.99678 0.36404 0.34999 0.0
C17 C 0.94821 0.37809 0.41199 0.0
O18 O 0.99451 0.41404 0.38775 0.0
Co19 Co 0.93407 0.43371 0.3955 0.0
O20 O 0.96921 0.44145 0.41614 0.0
C21 C 0.94594 0.43261 0.33479 0.0
C22 C 0.97676 0.34685 0.3437 0.0
C23 C 0.99256 0.43257 0.40703 0.0
O24 O 0.96188 0.41103 0.33742 0.0
O25 O 0.93155 0.44286 0.35483 0.0
O26 O 0.97019 0.36388 0.40511 0.0
O27 O 0.93817 0.39387 0.39271 0.0
Co28 Co 0.02832 0.89222 0.13926 0.0
O29 O 0.04358 0.85937 0.15671 0.0
O30 O 0.99925 0.87188 0.15862 0.0
C31 C 0.04871 0.88617 0.0972 0.0
O32 O 0.00474 0.92351 0.12276 0.0
Co33 Co 0.06693 0.9396 0.11712 0.0
O34 O 0.03267 0.95061 0.09653 0.0
C35 C 0.05393 0.93625 0.17735 0.0
C36 C 0.01834 0.85353 0.16455 0.0
C37 C 0.00853 0.94283 0.10451 0.0
O38 O 0.03656 0.91609 0.17325 0.0
O39 O 0.06952 0.94644 0.15821 0.0
O40 O 0.02605 0.87273 0.10344 0.0
O41 O 0.05969 0.90012 0.11736 0.0
Co42 Co 0.97202 0.61494 0.14104 0.0
O43 O 0.95466 0.64598 0.15977 0.0
O44 O 0.99963 0.63599 0.16172 0.0
C45 C 0.95194 0.62227 0.09901 0.0
O46 O 0.99758 0.58586 0.12348 0.0
Co47 Co 0.93663 0.56682 0.11544 0.0
O48 O 0.97184 0.55897 0.09496 0.0
C49 C 0.94774 0.56784 0.17621 0.0
C50 C 0.97945 0.65304 0.16798 0.0
C51 C 0.99532 0.56745 0.10408 0.0
O52 O 0.96438 0.58889 0.17364 0.0
O53 O 0.93319 0.55799 0.15612 0.0
O54 O 0.97378 0.63644 0.10634 0.0
O55 O 0.9415 0.60654 0.11814 0.0
Co56 Co 0.37727 0.02961 0.11001 0.0
O57 O 0.35945 0.04536 0.14241 0.0
O58 O 0.35774 1.00084 0.13064 0.0
C59 C 0.41923 0.05016 0.11612 0.0
O60 O 0.39409 0.00564 0.0792 0.0
Co61 Co 0.39994 0.06754 0.06228 0.0
O62 O 0.4205 0.03309 0.05179 0.0
C63 C 0.33961 0.0549 0.06548 0.0
C64 C 0.35156 0.02024 0.14858 0.0
C65 C 0.41242 0.0091 0.05988 0.0
O66 O 0.34351 0.03754 0.08569 0.0
O67 O 0.35887 0.07039 0.05537 0.0
O68 O 0.41295 0.0277 0.12986 0.0
O69 O 0.39915 0.06085 0.10184 0.0
Co70 Co 0.62158 0.48242 0.10656 0.0
O71 O 0.64 0.4632 0.13664 0.0
O72 O 0.64223 0.50865 0.1293 0.0
C73 C 0.57961 0.4618 0.11221 0.0
O74 O 0.60446 0.50981 0.07887 0.0
Co75 Co 0.59599 0.45075 0.056 0.0
O76 O 0.5753 0.48619 0.0508 0.0
C77 C 0.65644 0.46451 0.05646 0.0
C78 C 0.6485 0.48746 0.14505 0.0
C79 C 0.58489 0.50897 0.06051 0.0
O80 O 0.65446 0.47646 0.08053 0.0
O81 O 0.63603 0.45225 0.0444 0.0
O82 O 0.5866 0.48285 0.12769 0.0
O83 O 0.5989 0.45246 0.09599 0.0
Co84 Co 0.37103 0.9691 0.38661 0.0
O85 O 0.35272 0.95204 0.35515 0.0
O86 O 0.35076 0.9969 0.36549 0.0
C87 C 0.41306 0.94881 0.37982 0.0
O88 O 0.38824 0.99454 0.41586 0.0
Co89 Co 0.39594 0.93386 0.43514 0.0
O90 O 0.41651 0.96896 0.44315 0.0
C91 C 0.3352 0.94536 0.43354 0.0
C92 C 0.34476 0.97694 0.34814 0.0
C93 C 0.4075 0.99239 0.43442 0.0
O94 O 0.33802 0.96165 0.41225 0.0
O95 O 0.35517 0.93087 0.44378 0.0
O96 O 0.40607 0.97076 0.36565 0.0
O97 O 0.39369 0.93846 0.39531 0.0
Co98 Co 0.62858 0.51988 0.38544 0.0
O99 O 0.64651 0.53855 0.35475 0.0
O100 O 0.64942 0.49334 0.36319 0.0
C101 C 0.58628 0.53974 0.37928 0.0
O102 O 0.61198 0.49314 0.41391 0.0
Co103 Co 0.60304 0.55315 0.43508 0.0
O104 O 0.58334 0.51736 0.44208 0.0
C105 C 0.66399 0.54279 0.43299 0.0
C106 C 0.6551 0.51418 0.34676 0.0
C107 C 0.59285 0.49438 0.43269 0.0
O108 O 0.66145 0.52711 0.41122 0.0
O109 O 0.64377 0.55657 0.44371 0.0
O110 O 0.59351 0.51829 0.36448 0.0
O111 O 0.60546 0.54979 0.39517 0.0
Co112 Co 0.11059 0.37563 0.02922 0.0
O113 O 0.14309 0.35731 0.04432 0.0
O114 O 0.13023 0.35586 1.00007 0.0
C115 C 0.11769 0.41741 0.04981 0.0
O116 O 0.07989 0.39275 0.00552 0.0
Co117 Co 0.06341 0.39942 0.06702 0.0
O118 O 0.05283 0.41988 0.03253 0.0
C119 C 0.06523 0.33895 0.0545 0.0
C120 C 0.14854 0.3494 0.019 0.0
C121 C 0.0608 0.41132 0.00866 0.0
O122 O 0.08582 0.34228 0.03743 0.0
O123 O 0.05533 0.35855 0.06969 0.0
O124 O 0.13095 0.41099 0.02709 0.0
O125 O 0.10305 0.39764 0.06059 0.0
Co126 Co 0.10969 0.62092 0.484 0.0
O127 O 0.14086 0.63974 0.46694 0.0
O128 O 0.13087 0.64104 0.51191 0.0
C129 C 0.11665 0.57933 0.46295 0.0
O130 O 0.08046 0.60321 0.50937 0.0
Co131 Co 0.06117 0.59595 0.44877 0.0
O132 O 0.05363 0.57478 0.48349 0.0
C133 C 0.06044 0.65598 0.46415 0.0
C134 C 0.14787 0.64769 0.49182 0.0
C135 C 0.06205 0.58382 0.507 0.0
O136 O 0.08389 0.65385 0.47728 0.0
O137 O 0.04923 0.63584 0.4507 0.0
O138 O 0.13085 0.58599 0.48499 0.0
O139 O 0.10099 0.59877 0.45301 0.0
Co140 Co 0.89388 0.86436 0.48658 0.0
O141 O 0.86326 0.84664 0.4675 0.0
O142 O 0.87114 0.84348 0.51277 0.0
C143 C 0.88813 0.90673 0.46673 0.0
O144 O 0.92232 0.88068 0.51376 0.0
Co145 Co 0.944 0.89028 0.45425 0.0
O146 O 0.95009 0.91009 0.49002 0.0
C147 C 0.94353 0.82961 0.46727 0.0
C148 C 0.85497 0.83788 0.49171 0.0
C149 C 0.94087 0.90008 0.51283 0.0
O150 O 0.91958 0.83137 0.47956 0.0
O151 O 0.95542 0.85021 0.45514 0.0
O152 O 0.87309 0.89953 0.48804 0.0
O153 O 0.90407 0.88753 0.45679 0.0
Co154 Co 0.38774 0.62569 0.52385 0.0
O155 O 0.35834 0.64524 0.54308 0.0
O156 O 0.36547 0.64681 0.49758 0.0
C157 C 0.38031 0.58412 0.54479 0.0
O158 O 0.41465 0.60745 0.49639 0.0
Co159 Co 0.43729 0.59792 0.55529 0.0
O160 O 0.442 0.5774 0.51969 0.0
C161 C 0.43941 0.65839 0.54138 0.0
C162 C 0.34985 0.65346 0.51875 0.0
C163 C 0.43255 0.58744 0.49699 0.0
O164 O 0.41516 0.65757 0.52958 0.0
O165 O 0.45053 0.63742 0.55361 0.0
O166 O 0.36523 0.59162 0.52364 0.0
O167 O 0.39746 0.60267 0.55393 0.0
Co168 Co 0.52029 0.61356 0.86089 0.0
O169 O 0.54013 0.64348 0.84287 0.0
O170 O 0.49503 0.63537 0.83808 0.0
C171 C 0.53826 0.6213 0.90376 0.0
O172 O 0.49233 0.58589 0.87715 0.0
Co173 Co 0.55109 0.56467 0.89045 0.0
O174 O 0.51445 0.55959 0.909 0.0
C175 C 0.54109 0.56251 0.82919 0.0
C176 C 0.51625 0.65152 0.83303 0.0
C177 C 0.49218 0.56831 0.89744 0.0
O178 O 0.52875 0.5865 0.82936 0.0
O179 O 0.55222 0.55157 0.85086 0.0
O180 O 0.51724 0.63587 0.89497 0.0
O181 O 0.54902 0.60444 0.88581 0.0
Co182 Co 0.48453 0.89319 0.86382 0.0
O183 O 0.46689 0.86115 0.84731 0.0
O184 O 0.51179 0.87092 0.84377 0.0
C185 C 0.46495 0.88855 0.90643 0.0
O186 O 0.51013 0.92353 0.87904 0.0
Co187 Co 0.44884 0.94264 0.8865 0.0
O188 O 0.48428 0.95226 0.90571 0.0
C189 C 0.45972 0.93777 0.82593 0.0
C190 C 0.4914 0.85376 0.83859 0.0
C191 C 0.50777 0.94335 0.89699 0.0
O192 O 0.47641 0.91699 0.82979 0.0
O193 O 0.44518 0.94888 0.84539 0.0
O194 O 0.48687 0.87406 0.89989 0.0
O195 O 0.45425 0.90291 0.88643 0.0
Co196 Co 0.525 0.38621 0.62877 0.0
O197 O 0.54452 0.35676 0.6479 0.0
O198 O 0.49917 0.36451 0.65095 0.0
C199 C 0.54454 0.37828 0.58662 0.0
O200 O 0.49724 0.41318 0.61119 0.0
Co201 Co 0.55598 0.43525 0.59972 0.0
O202 O 0.51995 0.43958 0.57984 0.0
C203 C 0.54391 0.43793 0.66055 0.0
C204 C 0.52036 0.34867 0.65701 0.0
C205 C 0.49746 0.43049 0.59068 0.0
O206 O 0.53196 0.41376 0.66023 0.0
O207 O 0.55556 0.44886 0.63915 0.0
O208 O 0.52348 0.36346 0.5949 0.0
O209 O 0.55444 0.39546 0.60474 0.0
Co210 Co 0.48346 0.10962 0.62406 0.0
O211 O 0.46591 0.14102 0.64182 0.0
O212 O 0.51081 0.13097 0.64483 0.0
C213 C 0.46387 0.11593 0.5817 0.0
O214 O 0.50901 0.07988 0.60764 0.0
Co215 Co 0.44779 0.06112 0.59951 0.0
O216 O 0.48324 0.05204 0.58002 0.0
C217 C 0.45853 0.06371 0.66022 0.0
C218 C 0.49048 0.14798 0.65071 0.0
C219 C 0.50671 0.06069 0.58901 0.0
O220 O 0.4753 0.08454 0.65715 0.0
O221 O 0.44399 0.05339 0.64036 0.0
O222 O 0.48581 0.13011 0.58874 0.0
O223 O 0.45316 0.10083 0.60115 0.0
Co224 Co 0.85941 0.51961 0.61345 0.0
O225 O 0.8421 0.53892 0.64409 0.0
O226 O 0.83796 0.49376 0.63604 0.0
C227 C 0.90232 0.53819 0.61933 0.0
O228 O 0.87535 0.49242 0.58489 0.0
Co229 Co 0.88534 0.55256 0.56373 0.0
O230 O 0.90449 0.51642 0.55698 0.0
C231 C 0.82428 0.54336 0.56603 0.0
C232 C 0.83296 0.51487 0.65236 0.0
C233 C 0.89463 0.49353 0.56621 0.0
O234 O 0.82664 0.52757 0.58774 0.0
O235 O 0.84467 0.55684 0.55526 0.0
O236 O 0.89444 0.51713 0.63435 0.0
O237 O 0.88332 0.54885 0.6036 0.0
Co238 Co 0.14124 0.97066 0.6162 0.0
O239 O 0.16006 0.95396 0.64756 0.0
O240 O 0.16176 0.99871 0.63675 0.0
C241 C 0.09937 0.95036 0.62391 0.0
O242 O 0.12347 0.99573 0.58691 0.0
Co243 Co 0.11573 0.93476 0.5685 0.0
O244 O 0.09484 0.96967 0.56049 0.0
C245 C 0.17642 0.94667 0.56885 0.0
C246 C 0.16803 0.97893 0.65423 0.0
C247 C 0.1039 0.99325 0.56873 0.0
O248 O 0.17389 0.96302 0.59015 0.0
O249 O 0.15634 0.93208 0.55903 0.0
O250 O 0.10655 0.97248 0.63771 0.0
O251 O 0.11853 0.93986 0.60822 0.0
Co252 Co 0.86734 0.48538 0.89338 0.0
O253 O 0.84936 0.46642 0.8629 0.0
O254 O 0.84654 0.51172 0.87074 0.0
C255 C 0.90955 0.46525 0.88757 0.0
O256 O 0.88404 0.51237 0.9218 0.0
Co257 Co 0.89273 0.45254 0.94339 0.0
O258 O 0.91302 0.48803 0.94952 0.0
C259 C 0.8322 0.46593 0.94273 0.0
C260 C 0.84062 0.49065 0.8547 0.0
C261 C 0.90347 0.51103 0.9403 0.0
O262 O 0.83432 0.47861 0.91905 0.0
O263 O 0.85257 0.45337 0.95457 0.0
O264 O 0.90248 0.48658 0.87252 0.0
O265 O 0.89025 0.45541 0.90346 0.0
Co266 Co 0.13724 0.02792 0.89359 0.0
O267 O 0.15443 0.04389 0.86096 0.0
O268 O 0.15676 0.99938 0.87261 0.0
C269 C 0.09514 0.04833 0.88791 0.0
O270 O 0.12119 0.00366 0.92456 0.0
Co271 Co 0.11463 0.0653 0.94177 0.0
O272 O 0.09473 0.03054 0.95248 0.0
C273 C 0.17511 0.05319 0.93789 0.0
C274 C 0.16249 0.01886 0.85462 0.0
C275 C 0.10316 0.00673 0.94421 0.0
O276 O 0.17124 0.03608 0.91746 0.0
O277 O 0.15574 0.0683 0.94838 0.0
O278 O 0.10127 0.02579 0.87425 0.0
O279 O 0.11524 0.059 0.90215 0.0
Co280 Co 0.61386 0.86088 0.52212 0.0
O281 O 0.64386 0.84226 0.54135 0.0
O282 O 0.63626 0.83957 0.49601 0.0
C283 C 0.62085 0.90297 0.54221 0.0
O284 O 0.58622 0.87813 0.49472 0.0
Co285 Co 0.5643 0.88844 0.55386 0.0
O286 O 0.55924 0.90855 0.51807 0.0
C287 C 0.56291 0.82772 0.54085 0.0
C288 C 0.65226 0.83367 0.51712 0.0
C289 C 0.56833 0.89815 0.49538 0.0
O290 O 0.58704 0.82866 0.5288 0.0
O291 O 0.55165 0.84874 0.55289 0.0
O292 O 0.63575 0.89535 0.52096 0.0
O293 O 0.60415 0.88429 0.55191 0.0
Co294 Co 0.615 0.1424 0.96892 0.0
O295 O 0.64703 0.16076 0.953 0.0
O296 O 0.63528 0.16242 0.99753 0.0
C297 C 0.62228 0.10049 0.9486 0.0
O298 O 0.58487 0.125 0.99327 0.0
Co299 Co 0.56761 0.11804 0.93175 0.0
O300 O 0.55839 0.09716 0.96638 0.0
C301 C 0.56906 0.17858 0.94383 0.0
C302 C 0.65327 0.16854 0.97815 0.0
C303 C 0.56637 0.10581 0.99021 0.0
O304 O 0.5897 0.17551 0.9609 0.0
O305 O 0.55931 0.15884 0.92876 0.0
O306 O 0.63582 0.10733 0.971 0.0
O307 O 0.60726 0.12 0.93784 0.0
Co308 Co 0.3848 0.37109 0.96561 0.0
O309 O 0.35385 0.35138 0.9492 0.0
O310 O 0.36461 0.35077 0.99403 0.0
C311 C 0.37658 0.41252 0.94466 0.0
O312 O 0.41368 0.3897 0.99047 0.0
Co313 Co 0.43227 0.39686 0.92953 0.0
O314 O 0.44007 0.4182 0.96422 0.0
C315 C 0.43279 0.33638 0.94231 0.0
C316 C 0.34734 0.34373 0.97434 0.0
C317 C 0.43173 0.40936 0.98786 0.0
O318 O 0.41142 0.33881 0.95858 0.0
O319 O 0.44234 0.35639 0.92743 0.0
O320 O 0.36272 0.40541 0.96679 0.0
O321 O 0.39255 0.39344 0.93448 0.0
Co322 Co 0.89226 0.13733 0.02989 0.0
O323 O 0.85957 0.15446 0.0459 0.0
O324 O 0.8713 0.15685 0.00139 0.0
C325 C 0.88692 0.09508 0.05004 0.0
O326 O 0.92316 0.12129 0.00554 0.0
Co327 Co 0.94061 0.115 0.0672 0.0
O328 O 0.95144 0.09522 0.03239 0.0
C329 C 0.93638 0.17538 0.05533 0.0
C330 C 0.85326 0.16253 0.02086 0.0
C331 C 0.94296 0.10341 0.00856 0.0
O332 O 0.91612 0.17137 0.03804 0.0
O333 O 0.94686 0.15612 0.07054 0.0
O334 O 0.87295 0.10138 0.02773 0.0
O335 O 0.90096 0.11524 0.06087 0.0
H336 H 0.05185 0.00165 0.54733 0.0
H337 H 0.10065 0.11097 0.44149 0.0
H338 H 0.13157 0.04189 0.55802 0.0
H339 H 0.01373 0.10596 0.46374 0.0
H340 H 0.11276 0.08777 0.48526 0.0
H341 H 0.03676 0.04049 0.51784 0.0
C342 C 0.06601 0.01889 0.54378 0.0
C343 C 0.09311 0.01845 0.55477 0.0
C344 C 0.09109 0.09249 0.48101 0.0
C345 C 0.07616 0.06262 0.52089 0.0
C346 C 0.08421 0.10578 0.4561 0.0
C347 C 0.05622 0.11038 0.4492 0.0
C348 C 0.06973 0.08284 0.49852 0.0
C349 C 0.03559 0.10298 0.46854 0.0
C350 C 0.05733 0.04111 0.52715 0.0
C351 C 0.11055 0.0414 0.54982 0.0
N352 N 0.04269 0.08881 0.49206 0.0
N353 N 0.10201 0.06229 0.53267 0.0
H354 H 0.98278 0.38247 0.45695 0.0
H355 H 0.86305 0.44822 0.55239 0.0
H356 H 0.89633 0.38677 0.43275 0.0
H357 H 0.9468 0.48066 0.54782 0.0
H358 H 0.87659 0.41054 0.52043 0.0
H359 H 0.97053 0.40325 0.50215 0.0
C360 C 0.96109 0.38677 0.4616 0.0
C361 C 0.94047 0.38307 0.44123 0.0
C362 C 0.89211 0.42555 0.52705 0.0
C363 C 0.92644 0.40656 0.49252 0.0
C364 C 0.88447 0.44691 0.54532 0.0
C365 C 0.90378 0.46769 0.55234 0.0
C366 C 0.91933 0.42479 0.51628 0.0
C367 C 0.93123 0.46519 0.54252 0.0
C368 C 0.95418 0.3988 0.48722 0.0
C369 C 0.91277 0.38945 0.44799 0.0
N370 N 0.93817 0.44424 0.52478 0.0
N371 N 0.90654 0.4011 0.47303 0.0
H372 H 0.01332 0.89571 0.05374 0.0
H373 H 0.13256 0.95955 0.95653 0.0
H374 H 0.10045 0.89442 0.07581 0.0
H375 H 0.05196 0.99801 0.96742 0.0
H376 H 0.11839 0.92223 0.98863 0.0
H377 H 0.02535 0.91964 0.01008 0.0
C378 C 0.03506 0.89946 0.04886 0.0
C379 C 0.05601 0.89315 0.06825 0.0
C380 C 0.10369 0.93858 0.98347 0.0
C381 C 0.06975 0.92023 0.01869 0.0
C382 C 0.11167 0.95976 0.96516 0.0
C383 C 0.09348 0.98199 0.95967 0.0
C384 C 0.07715 0.93939 0.99578 0.0
C385 C 0.0667 0.98139 0.97146 0.0
C386 C 0.04184 0.91333 0.02415 0.0
C387 C 0.08378 0.899 0.0613 0.0
N388 N 0.05935 0.96047 0.98908 0.0
N389 N 0.08988 0.91237 0.03709 0.0
H390 H 0.98611 0.62557 0.0534 0.0
H391 H 0.9561 0.52351 0.95719 0.0
H392 H 0.90163 0.60704 0.07805 0.0
H393 H 0.87216 0.55569 0.95655 0.0
H394 H 0.96943 0.56011 0.99001 0.0
H395 H 0.97614 0.60655 0.00695 0.0
C396 C 0.96525 0.61825 0.04876 0.0
C397 C 0.9447 0.61752 0.06956 0.0
C398 C 0.94835 0.55986 0.98194 0.0
C399 C 0.93335 0.59552 0.01695 0.0
C400 C 0.9407 0.53886 0.96337 0.0
C401 C 0.913 0.53663 0.95431 0.0
C402 C 0.92794 0.5783 0.99202 0.0
C403 C 0.89376 0.55685 0.96299 0.0
C404 C 0.95969 0.60713 0.02241 0.0
C405 C 0.91809 0.60765 0.0626 0.0
N406 N 0.90141 0.57641 0.98205 0.0
N407 N 0.91322 0.59682 0.03691 0.0
H408 H 0.46341 0.01481 0.10931 0.0
H409 H 0.54496 0.05367 0.9975 0.0
H410 H 0.43999 0.10145 0.10479 0.0
H411 H 0.55491 0.13276 0.03909 0.0
H412 H 0.5157 0.03764 0.03609 0.0
H413 H 0.50655 0.02571 0.08397 0.0
C414 C 0.46785 0.03627 0.10388 0.0
C415 C 0.44817 0.0573 0.10891 0.0
C416 C 0.52495 0.0582 0.03719 0.0
C417 C 0.49683 0.06973 0.07966 0.0
C418 C 0.54136 0.06746 0.01503 0.0
C419 C 0.55213 0.09464 0.01508 0.0
C420 C 0.51887 0.07646 0.05926 0.0
C421 C 0.54699 0.11165 0.03831 0.0
C422 C 0.49221 0.04238 0.08908 0.0
C423 C 0.45466 0.08468 0.10111 0.0
N424 N 0.53011 0.10252 0.05918 0.0
N425 N 0.47839 0.09011 0.08665 0.0
H426 H 0.53563 0.49774 0.10782 0.0
H427 H 0.45304 0.4615 0.99593 0.0
H428 H 0.55803 0.41102 0.10058 0.0
H429 H 0.44208 0.38211 0.03672 0.0
H430 H 0.48212 0.47691 0.03491 0.0
H431 H 0.49174 0.48788 0.0833 0.0
C432 C 0.53079 0.47646 0.10204 0.0
C433 C 0.55038 0.45511 0.10598 0.0
C434 C 0.47264 0.45644 0.03575 0.0
C435 C 0.50088 0.44388 0.07779 0.0
C436 C 0.45634 0.44754 0.01338 0.0
C437 C 0.44541 0.42042 0.01306 0.0
C438 C 0.47849 0.43786 0.05761 0.0
C439 C 0.45015 0.40318 0.0362 0.0
C440 C 0.50601 0.47095 0.08772 0.0
C441 C 0.54341 0.428 0.09774 0.0
N442 N 0.46698 0.41193 0.05723 0.0
N443 N 0.51927 0.42316 0.08381 0.0
H444 H 0.55477 0.86611 0.45034 0.0
H445 H 0.45762 0.98395 0.38389 0.0
H446 H 0.54978 0.95015 0.48189 0.0
H447 H 0.43441 0.89733 0.38945 0.0
H448 H 0.50304 0.97252 0.40467 0.0
H449 H 0.52241 0.87894 0.4128 0.0
C450 C 0.54756 0.88746 0.44884 0.0
C451 C 0.55458 0.90705 0.46937 0.0
C452 C 0.48827 0.95595 0.40052 0.0
C453 C 0.51798 0.92177 0.42662 0.0
C454 C 0.46252 0.96239 0.38849 0.0
C455 C 0.44237 0.94149 0.3851 0.0
C456 C 0.49393 0.92839 0.40857 0.0
C457 C 0.44946 0.91398 0.39187 0.0
C458 C 0.52903 0.89469 0.42756 0.0
C459 C 0.54453 0.93438 0.46662 0.0
N460 N 0.47464 0.90822 0.40348 0.0
N461 N 0.52651 0.9409 0.44576 0.0
H462 H 0.43854 0.61681 0.44839 0.0
H463 H 0.565 0.5914 0.38681 0.0
H464 H 0.45721 0.53727 0.48605 0.0
H465 H 0.54193 0.50463 0.38533 0.0
H466 H 0.51962 0.60272 0.40701 0.0
H467 H 0.46971 0.60507 0.40961 0.0
C468 C 0.44867 0.59663 0.44819 0.0
C469 C 0.44585 0.57824 0.47077 0.0
C470 C 0.52396 0.58132 0.40128 0.0
C471 C 0.48159 0.56492 0.4268 0.0
C472 C 0.5499 0.57488 0.38987 0.0
C473 C 0.55697 0.54714 0.38429 0.0
C474 C 0.50537 0.55971 0.40795 0.0
C475 C 0.53699 0.52634 0.38904 0.0
C476 C 0.46661 0.59008 0.42619 0.0
C477 C 0.45934 0.5523 0.46934 0.0
N478 N 0.51232 0.53295 0.40142 0.0
N479 N 0.47688 0.54652 0.44787 0.0
H480 H 0.1112 0.43828 0.10187 0.0
H481 H 0.00456 0.54666 0.05198 0.0
H482 H 0.10817 0.46151 0.01514 0.0
H483 H 0.04322 0.55571 0.13265 0.0
H484 H 0.04315 0.51654 0.03742 0.0
H485 H 0.08827 0.48222 0.114 0.0
C486 C 0.10649 0.45312 0.08549 0.0
C487 C 0.1116 0.44644 0.05753 0.0
C488 C 0.04351 0.52563 0.05809 0.0
C489 C 0.08439 0.49601 0.07104 0.0
C490 C 0.02144 0.54264 0.06645 0.0
C491 C 0.02062 0.55338 0.09364 0.0
C492 C 0.06446 0.51871 0.07732 0.0
C493 C 0.04307 0.54777 0.11152 0.0
C494 C 0.09336 0.47812 0.09239 0.0
C495 C 0.10481 0.46609 0.03698 0.0
N496 N 0.06379 0.53025 0.10327 0.0
N497 N 0.09081 0.48973 0.04408 0.0
H498 H 0.04083 0.44192 0.37833 0.0
H499 H 0.1079 0.53567 0.49827 0.0
H500 H 0.00239 0.45435 0.45873 0.0
H501 H 0.10979 0.55783 0.41121 0.0
H502 H 0.08347 0.49232 0.48613 0.0
H503 H 0.08006 0.4712 0.39318 0.0
C504 C 0.04097 0.45026 0.39931 0.0
C505 C 0.01819 0.44616 0.41721 0.0
C506 C 0.09014 0.50628 0.46967 0.0
C507 C 0.06301 0.47902 0.43433 0.0
C508 C 0.1043 0.53079 0.47652 0.0
C509 C 0.11071 0.55021 0.45563 0.0
C510 C 0.08312 0.50104 0.44175 0.0
C511 C 0.10509 0.54329 0.42784 0.0
C512 C 0.06328 0.46695 0.4077 0.0
C513 C 0.01937 0.45745 0.44417 0.0
N514 N 0.09139 0.51931 0.42167 0.0
N515 N 0.04136 0.47356 0.45188 0.0
H516 H 0.89622 0.94986 0.50285 0.0
H517 H 0.95923 0.04873 0.38462 0.0
H518 H 0.89532 0.92915 0.41544 0.0
H519 H 0.99827 0.03679 0.46476 0.0
H520 H 0.92164 0.01705 0.39889 0.0
H521 H 0.91934 0.99418 0.4915 0.0
C522 C 0.89982 0.95521 0.4812 0.0
C523 C 0.89395 0.93602 0.45996 0.0
C524 C 0.93816 0.02192 0.41349 0.0
C525 C 0.92004 0.98626 0.44697 0.0
C526 C 0.95953 0.03998 0.40544 0.0
C527 C 0.98203 0.04498 0.42343 0.0
C528 C 0.93908 0.00935 0.43988 0.0
C529 C 0.98147 0.03307 0.45015 0.0
C530 C 0.91322 0.98027 0.4748 0.0
C531 C 0.89957 0.94352 0.43231 0.0
N532 N 0.96039 0.01564 0.45755 0.0
N533 N 0.91248 0.96804 0.42658 0.0
H534 H 0.38944 0.56286 0.59624 0.0
H535 H 0.48381 0.44899 0.5387 0.0
H536 H 0.38281 0.53938 0.5098 0.0
H537 H 0.45172 0.44237 0.62245 0.0
H538 H 0.44485 0.47973 0.52676 0.0
H539 H 0.40924 0.51707 0.60674 0.0
C540 C 0.39136 0.54765 0.57966 0.0
C541 C 0.38456 0.55472 0.55219 0.0
C542 C 0.44591 0.47094 0.54754 0.0
C543 C 0.40815 0.50293 0.56372 0.0
C544 C 0.46818 0.45354 0.55438 0.0
C545 C 0.47112 0.44352 0.58168 0.0
C546 C 0.42698 0.47897 0.56838 0.0
C547 C 0.45024 0.4498 0.60119 0.0
C548 C 0.40266 0.52156 0.58561 0.0
C549 C 0.38766 0.53452 0.5313 0.0
N550 N 0.42941 0.46778 0.59437 0.0
N551 N 0.40002 0.50973 0.53735 0.0
H552 H 0.61585 0.55541 0.04945 0.0
H553 H 0.50089 0.61769 0.94649 0.0
H554 H 0.53319 0.52118 0.04024 0.0
H555 H 0.58879 0.61446 0.92799 0.0
H556 H 0.51054 0.59832 0.99295 0.0
H557 H 0.60318 0.59309 0.01725 0.0
C558 C 0.59478 0.55634 0.04136 0.0
C559 C 0.57564 0.53499 0.04706 0.0
C560 C 0.52774 0.60276 0.979 0.0
C561 C 0.56109 0.5779 0.01064 0.0
C562 C 0.5223 0.61397 0.95267 0.0
C563 C 0.54415 0.61749 0.93356 0.0
C564 C 0.55521 0.59567 0.98623 0.0
C565 C 0.57146 0.61188 0.94223 0.0
C566 C 0.58764 0.57772 0.02294 0.0
C567 C 0.54865 0.53707 0.03595 0.0
N568 N 0.57624 0.60103 0.96792 0.0
N569 N 0.54223 0.558 0.018 0.0
H570 H 0.46381 0.00208 0.03649 0.0
H571 H 0.41332 0.89559 0.92811 0.0
H572 H 0.38472 0.96079 0.04798 0.0
H573 H 0.5005 0.89912 0.94955 0.0
H574 H 0.40194 0.91853 0.97227 0.0
H575 H 0.47826 0.96457 0.00496 0.0
C576 C 0.44967 0.98487 0.03267 0.0
C577 C 0.42293 0.9846 0.04456 0.0
C578 C 0.4235 0.91358 0.9677 0.0
C579 C 0.43913 0.94204 0.00833 0.0
C580 C 0.42996 0.90047 0.94258 0.0
C581 C 0.45781 0.89538 0.93542 0.0
C582 C 0.44515 0.92257 0.9852 0.0
C583 C 0.47874 0.90243 0.95457 0.0
C584 C 0.45799 0.96343 0.01486 0.0
C585 C 0.40549 0.96177 0.03916 0.0
N586 N 0.47204 0.91638 0.97835 0.0
N587 N 0.41364 0.94168 0.0209 0.0
H588 H 0.50786 0.3824 0.54341 0.0
H589 H 0.62352 0.44756 0.44302 0.0
H590 H 0.59546 0.38542 0.56326 0.0
H591 H 0.54142 0.48268 0.45404 0.0
H592 H 0.61059 0.40913 0.47426 0.0
H593 H 0.51809 0.40333 0.49777 0.0
C594 C 0.52935 0.38635 0.53765 0.0
C595 C 0.55092 0.38237 0.55696 0.0
C596 C 0.59525 0.42492 0.46919 0.0
C597 C 0.56263 0.40596 0.50521 0.0
C598 C 0.60254 0.44674 0.45137 0.0
C599 C 0.58362 0.46848 0.44641 0.0
C600 C 0.56874 0.42465 0.48159 0.0
C601 C 0.55673 0.46651 0.45778 0.0
C602 C 0.53511 0.39847 0.51179 0.0
C603 C 0.57833 0.38831 0.54884 0.0
N604 N 0.55013 0.44508 0.47508 0.0
N605 N 0.58343 0.40005 0.5236 0.0
H606 H 0.49987 0.1053 0.539 0.0
H607 H 0.37939 0.04104 0.44379 0.0
H608 H 0.41243 0.11048 0.55915 0.0
H609 H 0.45924 0.0015 0.45634 0.0
H610 H 0.39472 0.07998 0.47318 0.0
H611 H 0.48784 0.08101 0.49552 0.0
C612 C 0.47811 0.10242 0.53365 0.0
C613 C 0.45702 0.10978 0.55251 0.0
C614 C 0.40902 0.06302 0.46895 0.0
C615 C 0.44326 0.08229 0.50324 0.0
C616 C 0.40036 0.04087 0.4522 0.0
C617 C 0.41795 0.01786 0.4481 0.0
C618 C 0.4356 0.06233 0.48114 0.0
C619 C 0.44489 0.01866 0.45946 0.0
C620 C 0.47131 0.08834 0.50907 0.0
C621 C 0.4292 0.10505 0.54503 0.0
N622 N 0.45287 0.04047 0.47566 0.0
N623 N 0.42309 0.0914 0.52102 0.0
H624 H 0.04205 0.53163 0.51696 0.0
H625 H 0.94635 0.50196 0.62033 0.0
H626 H 0.04734 0.61376 0.55308 0.0
H627 H 0.92501 0.58787 0.60483 0.0
H628 H 0.99275 0.51045 0.60031 0.0
H629 H 0.00889 0.51829 0.55335 0.0
C630 C 0.03676 0.54659 0.53304 0.0
C631 C 0.04724 0.57386 0.53202 0.0
C632 C 0.97804 0.52751 0.60181 0.0
C633 C 0.00926 0.55889 0.57346 0.0
C634 C 0.95176 0.52279 0.61349 0.0
C635 C 0.9319 0.54425 0.61394 0.0
C636 C 0.9844 0.55394 0.5909 0.0
C637 C 0.93975 0.57077 0.60458 0.0
C638 C 0.01802 0.53892 0.55392 0.0
C639 C 0.03975 0.59251 0.55324 0.0
N640 N 0.96538 0.57485 0.59327 0.0
N641 N 0.02055 0.58492 0.57268 0.0
H642 H 0.95595 0.8675 0.55697 0.0
H643 H 0.05442 0.98519 0.62163 0.0
H644 H 0.95917 0.95202 0.52655 0.0
H645 H 0.07813 0.89884 0.61413 0.0
H646 H 0.0084 0.97366 0.60234 0.0
H647 H 0.98948 0.88003 0.5936 0.0
C648 C 0.963 0.88889 0.5586 0.0
C649 C 0.95514 0.90872 0.53862 0.0
C650 C 0.02344 0.95717 0.60573 0.0
C651 C 0.99308 0.9231 0.58028 0.0
C652 C 0.04955 0.96366 0.6169 0.0
C653 C 0.06998 0.94288 0.61931 0.0
C654 C 0.01771 0.92967 0.59753 0.0
C655 C 0.06288 0.91541 0.61243 0.0
C656 C 0.98221 0.89595 0.57933 0.0
C657 C 0.96504 0.93609 0.54143 0.0
N658 N 0.03735 0.90958 0.60166 0.0
N659 N 0.98372 0.94245 0.56174 0.0
H660 H 0.05063 0.38317 0.9603 0.0
H661 H 0.95251 0.50138 0.89644 0.0
H662 H 0.03655 0.46229 1.00071 0.0
H663 H 0.93198 0.41396 0.89452 0.0
H664 H 0.9963 0.48997 0.92054 0.0
H665 H 0.01972 0.39777 0.92226 0.0
C666 C 0.04153 0.40383 0.96085 0.0
C667 C 0.04573 0.42142 0.98383 0.0
C668 C 0.98258 0.47329 0.91396 0.0
C669 C 0.01102 0.43827 0.94033 0.0
C670 C 0.95783 0.47972 0.9 0.0
C671 C 0.93879 0.45849 0.8936 0.0
C672 C 0.98843 0.44545 0.92077 0.0
C673 C 0.94623 0.43083 0.89917 0.0
C674 C 0.02393 0.41207 0.93921 0.0
C675 C 0.03343 0.44796 0.98355 0.0
N676 N 0.97046 0.42506 0.91262 0.0
N677 N 0.01646 0.45557 0.96217 0.0
H678 H 0.07471 0.10062 0.89316 0.0
H679 H 0.94955 0.13003 0.95849 0.0
H680 H 0.05115 0.0142 0.89949 0.0
H681 H 0.97111 0.05433 0.00206 0.0
H682 H 0.98085 0.1163 0.9204 0.0
H683 H 0.03094 0.11379 0.91579 0.0
C684 C 0.05977 0.08452 0.89845 0.0
C685 C 0.06626 0.05638 0.89427 0.0
C686 C 0.97846 0.10264 0.93821 0.0
C687 C 0.01665 0.0711 0.9208 0.0
C688 C 0.96051 0.11033 0.95983 0.0
C689 C 0.95823 0.09355 0.98369 0.0
C690 C 0.9939 0.07786 0.94042 0.0
C691 C 0.97277 0.06815 0.98428 0.0
C692 C 0.0348 0.09201 0.91131 0.0
C693 C 0.0466 0.03617 0.90199 0.0
N694 N 0.99013 0.06114 0.96302 0.0
N695 N 0.02296 0.04388 0.91567 0.0
H696 H 0.51697 0.03908 0.53748 0.0
H697 H 0.61253 0.92487 0.59354 0.0
H698 H 0.55313 0.04776 0.61933 0.0
H699 H 0.61677 0.94713 0.50661 0.0
H700 H 0.59272 0.97074 0.60389 0.0
H701 H 0.55442 0.0067 0.52491 0.0
C702 C 0.53314 0.03455 0.5526 0.0
C703 C 0.53188 0.04578 0.57956 0.0
C704 C 0.59876 0.96594 0.58266 0.0
C705 C 0.57428 0.00849 0.56556 0.0
C706 C 0.61006 0.93982 0.57679 0.0
C707 C 0.61628 0.93241 0.54926 0.0
C708 C 0.59268 0.98425 0.56067 0.0
C709 C 0.61244 0.95227 0.52816 0.0
C710 C 0.55455 0.01623 0.54538 0.0
C711 C 0.55337 0.03945 0.59834 0.0
N712 N 0.60011 0.9771 0.53419 0.0
N713 N 0.57335 0.02062 0.59123 0.0
H714 H 0.6169 0.05619 0.98386 0.0
H715 H 0.55339 0.95729 0.86587 0.0
H716 H 0.61334 0.07904 0.89701 0.0
H717 H 0.51862 0.96462 0.94848 0.0
H718 H 0.59011 0.99054 0.87902 0.0
H719 H 0.59567 0.01107 0.97227 0.0
C720 C 0.61264 0.05126 0.96223 0.0
C721 C 0.61675 0.07123 0.94129 0.0
C722 C 0.57478 0.98429 0.89439 0.0
C723 C 0.59277 0.01999 0.92802 0.0
C724 C 0.55398 0.96529 0.88698 0.0
C725 C 0.53287 0.95856 0.90607 0.0
C726 C 0.5747 0.99603 0.92119 0.0
C727 C 0.53439 0.96962 0.9331 0.0
C728 C 0.60035 0.02568 0.95571 0.0
C729 C 0.61039 0.06411 0.91369 0.0
N730 N 0.55487 0.98796 0.93984 0.0
N731 N 0.59853 0.03908 0.90783 0.0
H732 H 0.44871 0.55406 0.86357 0.0
H733 H 0.3786 0.45737 0.9796 0.0
H734 H 0.47646 0.55031 0.94901 0.0
H735 H 0.38718 0.43379 0.8933 0.0
H736 H 0.39909 0.50295 0.96858 0.0
H737 H 0.41082 0.52162 0.87508 0.0
C738 C 0.44629 0.5471 0.88492 0.0
C739 C 0.46588 0.55448 0.90532 0.0
C740 C 0.39565 0.48807 0.95196 0.0
C741 C 0.42272 0.51778 0.91855 0.0
C742 C 0.38378 0.46221 0.95816 0.0
C743 C 0.38137 0.44189 0.93728 0.0
C744 C 0.40458 0.49367 0.92465 0.0
C745 C 0.38885 0.44895 0.90994 0.0
C746 C 0.42481 0.52852 0.8914 0.0
C747 C 0.46195 0.54475 0.93262 0.0
N748 N 0.40035 0.47423 0.90441 0.0
N749 N 0.44093 0.52668 0.93842 0.0
H750 H 0.89271 0.05072 0.01472 0.0
H751 H 0.00199 0.96492 0.05263 0.0
H752 H 0.89928 0.07439 0.10118 0.0
H753 H 0.96036 0.95631 0.13189 0.0
H754 H 0.96476 0.99611 0.03703 0.0
H755 H 0.91696 0.00693 0.02547 0.0
C756 C 0.89842 0.04626 0.03611 0.0
C757 C 0.8942 0.06613 0.05713 0.0
C758 C 0.96333 0.98677 0.05753 0.0
C759 C 0.92218 0.01666 0.06938 0.0
C760 C 0.9847 0.96923 0.06654 0.0
C761 C 0.98424 0.9582 0.09361 0.0
C762 C 0.94167 0.99378 0.07597 0.0
C763 C 0.96139 0.96436 0.11082 0.0
C764 C 0.91258 0.02151 0.04213 0.0
C765 C 0.90234 0.05958 0.08442 0.0
N766 N 0.94132 0.98233 0.10195 0.0
N767 N 0.91612 0.03543 0.08976 0.0
H768 H 0.05664 0.18813 0.33602 0.0
H769 H 0.93919 0.30563 0.33161 0.0
H770 H 0.96844 0.17101 0.34062 0.0
H771 H 0.02751 0.32273 0.33274 0.0
H772 H 0.94936 0.25618 0.3249 0.0
H773 H 0.04617 0.23669 0.325 0.0
C774 C 0.03503 0.19445 0.33422 0.0
C775 C 0.01338 0.1755 0.33962 0.0
C776 C 0.96653 0.27078 0.32613 0.0
C777 C 1.00122 0.23134 0.32732 0.0
C778 C 0.96074 0.2991 0.32983 0.0
C779 C 0.98254 0.31837 0.33312 0.0
C780 C 0.99434 0.26158 0.32585 0.0
C781 C 0.01003 0.30863 0.33053 0.0
C782 C 0.02906 0.22226 0.32799 0.0
C783 C 0.9858 0.18491 0.3368 0.0
N784 N 0.01514 0.28089 0.32747 0.0
N785 N 0.98051 0.21224 0.33125 0.0
H786 H 0.9414 0.69047 0.18808 0.0
H787 H 0.96664 0.83192 0.17614 0.0
H788 H 0.02938 0.68063 0.17232 0.0
H789 H 0.05408 0.81093 0.17739 0.0
H790 H 0.9553 0.78348 0.1854 0.0
H791 H 0.94875 0.73989 0.19641 0.0
C792 C 0.96239 0.69872 0.18668 0.0
C793 C 0.98473 0.68141 0.17906 0.0
C794 C 0.97704 0.78925 0.18443 0.0
C795 C 0.99333 0.73871 0.18727 0.0
C796 C 0.98351 0.81718 0.17906 0.0
C797 C 0.01133 0.82553 0.17571 0.0
C798 C 0.99862 0.76938 0.18646 0.0
C799 C 0.0323 0.80545 0.1796 0.0
C800 C 0.96658 0.72722 0.19107 0.0
C801 C 0.01149 0.69319 0.17795 0.0
N802 N 0.0255 0.77834 0.18436 0.0
N803 N 0.01494 0.72113 0.18154 0.0
H804 H 0.33593 0.05698 0.18924 0.0
H805 H 0.33309 0.93941 0.30677 0.0
H806 H 0.34148 0.96891 0.17199 0.0
H807 H 0.33378 0.02766 0.32399 0.0
H808 H 0.32642 0.94959 0.25731 0.0
H809 H 0.32556 0.04635 0.23793 0.0
C810 C 0.33448 0.03536 0.19557 0.0
C811 C 0.33993 0.0138 0.17652 0.0
C812 C 0.32756 0.96674 0.27194 0.0
C813 C 0.32836 0.00147 0.23251 0.0
C814 C 0.33124 0.96094 0.30026 0.0
C815 C 0.33435 0.98273 0.31958 0.0
C816 C 0.3271 0.99455 0.26277 0.0
C817 C 0.33168 0.0102 0.30986 0.0
C818 C 0.32862 0.02931 0.22345 0.0
C819 C 0.33759 0.9862 0.18595 0.0
N820 N 0.32861 0.01532 0.28212 0.0
N821 N 0.33237 0.98083 0.21335 0.0
H822 H 0.66293 0.44676 0.18227 0.0
H823 H 0.66952 0.55416 0.30881 0.0
H824 H 0.66101 0.53613 0.17249 0.0
H825 H 0.6645 0.46496 0.31901 0.0
H826 H 0.67681 0.5476 0.25887 0.0
H827 H 0.67369 0.45284 0.23165 0.0
C828 C 0.6653 0.46769 0.19037 0.0
C829 C 0.66068 0.49099 0.17324 0.0
C830 C 0.67459 0.52941 0.27205 0.0
C831 C 0.67271 0.49809 0.23 0.0
C832 C 0.67054 0.53313 0.30065 0.0
C833 C 0.66601 0.51008 0.31812 0.0
C834 C 0.67394 0.50244 0.26072 0.0
C835 C 0.66772 0.48335 0.30633 0.0
C836 C 0.67137 0.47114 0.21865 0.0
C837 C 0.66419 0.51757 0.18493 0.0
N838 N 0.67111 0.48028 0.27832 0.0
N839 N 0.6696 0.5204 0.21264 0.0
H840 H 0.30878 0.3232 0.93765 0.0
H841 H 0.16832 0.33581 0.96715 0.0
H842 H 0.32141 0.33959 0.02511 0.0
H843 H 0.19205 0.33697 0.05384 0.0
H844 H 0.21621 0.32551 0.95455 0.0
H845 H 0.2596 0.31499 0.94667 0.0
C846 C 0.3012 0.32474 0.95887 0.0
C847 C 0.3192 0.33255 0.98057 0.0
C848 C 0.21119 0.32726 0.97641 0.0
C849 C 0.26219 0.32449 0.99111 0.0
C850 C 0.18356 0.33322 0.98362 0.0
C851 C 0.17615 0.33757 0.01157 0.0
C852 C 0.23172 0.32566 0.99737 0.0
C853 C 0.19682 0.334 0.03198 0.0
C854 C 0.27284 0.32042 0.96404 0.0
C855 C 0.30829 0.33385 0.00768 0.0
N856 N 0.22365 0.32867 0.02445 0.0
N857 N 0.28047 0.33035 0.01208 0.0
H858 H 0.17231 0.65917 0.54225 0.0
H859 H 0.31474 0.67363 0.55896 0.0
H860 H 0.18779 0.66229 0.45374 0.0
H861 H 0.31939 0.65801 0.47056 0.0
H862 H 0.26487 0.68168 0.55458 0.0
H863 H 0.22119 0.66929 0.55071 0.0
C864 C 0.1859 0.66272 0.52456 0.0
C865 C 0.17591 0.6596 0.49726 0.0
C866 C 0.27651 0.67644 0.53604 0.0
C867 C 0.23254 0.67136 0.50664 0.0
C868 C 0.30526 0.67222 0.53851 0.0
C869 C 0.32125 0.66469 0.51517 0.0
C870 C 0.26346 0.67254 0.51005 0.0
C871 C 0.30789 0.66357 0.48918 0.0
C872 C 0.21408 0.66859 0.52937 0.0
C873 C 0.19457 0.66429 0.47517 0.0
N874 N 0.27976 0.66697 0.48741 0.0
N875 N 0.22196 0.66952 0.48035 0.0
H876 H 0.68995 0.81998 0.55768 0.0
H877 H 0.81762 0.82365 0.45107 0.0
H878 H 0.68057 0.8235 0.46831 0.0
H879 H 0.82694 0.8266 0.54047 0.0
H880 H 0.76799 0.8139 0.45702 0.0
H881 H 0.73999 0.81255 0.55166 0.0
C882 C 0.6983 0.81859 0.53674 0.0
C883 C 0.681 0.82271 0.51346 0.0
C884 C 0.78093 0.81624 0.47537 0.0
C885 C 0.73856 0.81461 0.50644 0.0
C886 C 0.80935 0.82172 0.472 0.0
C887 C 0.82648 0.82629 0.49531 0.0
C888 C 0.76938 0.81544 0.50227 0.0
C889 C 0.81454 0.82338 0.52189 0.0
C890 C 0.72696 0.81447 0.53333 0.0
C891 C 0.69307 0.82059 0.48687 0.0
N892 N 0.78668 0.81854 0.52464 0.0
N893 N 0.72113 0.8171 0.4841 0.0
H894 H 0.54114 0.82745 0.82733 0.0
H895 H 0.46772 0.67851 0.81894 0.0
H896 H 0.45207 0.81524 0.82409 0.0
H897 H 0.55684 0.69024 0.82272 0.0
H898 H 0.46202 0.72865 0.8116 0.0
H899 H 0.54771 0.77791 0.81681 0.0
C900 C 0.52297 0.81451 0.82385 0.0
C901 C 0.49602 0.82547 0.82696 0.0
C902 C 0.48287 0.72021 0.81354 0.0
C903 C 0.50334 0.76864 0.81525 0.0
C904 C 0.48614 0.6915 0.81757 0.0
C905 C 0.51278 0.68015 0.82184 0.0
C906 C 0.50639 0.73774 0.81397 0.0
C907 C 0.53587 0.69808 0.81983 0.0
C908 C 0.52672 0.78616 0.81795 0.0
C909 C 0.47325 0.80766 0.82221 0.0
N910 N 0.53213 0.72599 0.81649 0.0
N911 N 0.47742 0.78012 0.81697 0.0
H912 H 0.5608 0.31041 0.6695 0.0
H913 H 0.45135 0.18563 0.66783 0.0
H914 H 0.47152 0.32161 0.66967 0.0
H915 H 0.54035 0.17428 0.66109 0.0
H916 H 0.45887 0.23467 0.67902 0.0
H917 H 0.55409 0.26052 0.67712 0.0
C918 C 0.53977 0.3025 0.67179 0.0
C919 C 0.51667 0.32022 0.66853 0.0
C920 C 0.47681 0.22141 0.67554 0.0
C921 C 0.50885 0.26291 0.67684 0.0
C922 C 0.47254 0.19333 0.66921 0.0
C923 C 0.49525 0.17587 0.66313 0.0
C924 C 0.50399 0.23227 0.6756 0.0
C925 C 0.52222 0.187 0.66545 0.0
C926 C 0.53596 0.27393 0.676 0.0
C927 C 0.48994 0.30874 0.67183 0.0
N928 N 0.52582 0.21459 0.67108 0.0
N929 N 0.48676 0.28078 0.67535 0.0
H930 H 0.82519 0.44991 0.81801 0.0
H931 H 0.8197 0.55563 0.6899 0.0
H932 H 0.82925 0.53932 0.8266 0.0
H933 H 0.82301 0.46622 0.68099 0.0
H934 H 0.81296 0.54996 0.74003 0.0
H935 H 0.81436 0.45558 0.76861 0.0
C936 C 0.8233 0.47079 0.80964 0.0
C937 C 0.82849 0.49418 0.82646 0.0
C938 C 0.81468 0.53154 0.72709 0.0
C939 C 0.81639 0.5008 0.76963 0.0
C940 C 0.81841 0.53475 0.69838 0.0
C941 C 0.8223 0.51135 0.68119 0.0
C942 C 0.81498 0.50474 0.73884 0.0
C943 C 0.82027 0.48485 0.69342 0.0
C944 C 0.81719 0.47399 0.78134 0.0
C945 C 0.82557 0.52069 0.81442 0.0
N946 N 0.81718 0.48227 0.72153 0.0
N947 N 0.82011 0.52327 0.78667 0.0
H948 H 0.17975 0.02986 0.67759 0.0
H949 H 0.17457 0.96772 0.83176 0.0
H950 H 0.1795 0.94186 0.69606 0.0
H951 H 0.17546 0.05568 0.81306 0.0
H952 H 0.18468 0.95781 0.78271 0.0
H953 H 0.18677 0.03964 0.72714 0.0
C954 C 0.1818 0.01256 0.69195 0.0
C955 C 0.17868 0.985 0.68264 0.0
C956 C 0.1831 0.9793 0.78941 0.0
C957 C 0.1862 0.99606 0.73959 0.0
C958 C 0.17743 0.98497 0.81748 0.0
C959 C 0.17382 0.01256 0.82651 0.0
C960 C 0.18504 0.00137 0.77019 0.0
C961 C 0.17778 0.03406 0.80701 0.0
C962 C 0.18565 0.01816 0.72032 0.0
C963 C 0.18153 0.96345 0.70228 0.0
N964 N 0.1828 0.02801 0.77977 0.0
N965 N 0.1847 0.96943 0.72982 0.0
H966 H 0.83106 0.17559 0.96971 0.0
H967 H 0.67585 0.17932 0.02965 0.0
H968 H 0.81106 0.17443 0.0574 0.0
H969 H 0.69576 0.1804 0.94193 0.0
H970 H 0.72527 0.18612 0.04032 0.0
H971 H 0.78212 0.1857 0.95931 0.0
C972 C 0.8165 0.17798 0.98682 0.0
C973 C 0.82516 0.17382 0.01445 0.0
C974 C 0.71879 0.18534 0.01872 0.0
C975 C 0.76894 0.18504 0.0027 0.0
C976 C 0.6905 0.18161 0.01261 0.0
C977 C 0.68164 0.17893 0.98485 0.0
C978 C 0.73842 0.18624 0.99693 0.0
C979 C 0.70164 0.18207 0.96365 0.0
C980 C 0.7885 0.18366 0.98087 0.0
C981 C 0.80532 0.17721 0.03576 0.0
N982 N 0.72908 0.18514 0.97013 0.0
N983 N 0.77813 0.18225 0.02942 0.0
H984 H 0.00994 0.94696 0.21235 0.0
H985 H 0.09918 0.04047 0.31705 0.0
H986 H 0.09828 0.96085 0.20271 0.0
H987 H 0.01056 0.05155 0.3067 0.0
H988 H 0.0992 0.00743 0.2783 0.0
H989 H 0.00966 0.97999 0.25158 0.0
C990 C 0.02937 0.9564 0.21894 0.0
C991 C 0.0542 0.9511 0.20437 0.0
C992 C 0.07978 0.01731 0.28425 0.0
C993 C 0.05394 0.98909 0.24868 0.0
C994 C 0.07979 0.0363 0.30623 0.0
C995 C 0.05487 0.04895 0.31489 0.0
C996 C 0.05456 0.01038 0.27113 0.0
C997 C 0.03028 0.04257 0.30036 0.0
C998 C 0.02911 0.97555 0.24099 0.0
C999 C 0.07868 0.96434 0.21339 0.0
N1000 N 0.03066 0.02343 0.27937 0.0
N1001 N 0.07794 0.98269 0.23493 0.0
H1002 H 0.98987 0.44354 0.29969 0.0
H1003 H 0.90228 0.54496 0.20094 0.0
H1004 H 0.90227 0.46013 0.31142 0.0
H1005 H 0.9914 0.55246 0.20982 0.0
H1006 H 0.90181 0.51044 0.23838 0.0
H1007 H 0.99081 0.47857 0.26216 0.0
C1008 C 0.97072 0.45402 0.29388 0.0
C1009 C 0.94591 0.44882 0.30853 0.0
C1010 C 0.92146 0.51985 0.23244 0.0
C1011 C 0.94693 0.4891 0.2662 0.0
C1012 C 0.9217 0.53971 0.21122 0.0
C1013 C 0.94687 0.55181 0.20252 0.0
C1014 C 0.94667 0.51145 0.24472 0.0
C1015 C 0.9715 0.54396 0.21627 0.0
C1016 C 0.97137 0.47429 0.27283 0.0
C1017 C 0.92182 0.46344 0.3006 0.0
N1018 N 0.97085 0.52398 0.23648 0.0
N1019 N 0.92293 0.48285 0.28002 0.0
H1020 H 0.21078 0.00965 0.94817 0.0
H1021 H 0.31362 0.09985 0.04293 0.0
H1022 H 0.19982 0.09766 0.96281 0.0
H1023 H 0.30575 0.01082 0.05221 0.0
H1024 H 0.27475 0.09948 0.01005 0.0
H1025 H 0.24999 0.00969 0.98124 0.0
C1026 C 0.21708 0.02908 0.95779 0.0
C1027 C 0.20215 0.05373 0.95268 0.0
C1028 C 0.28126 0.08004 0.0195 0.0
C1029 C 0.24641 0.05381 0.99075 0.0
C1030 C 0.3033 0.08028 0.03842 0.0
C1031 C 0.3127 0.05537 0.0505 0.0
C1032 C 0.26883 0.05462 0.01207 0.0
C1033 C 0.29882 0.03053 0.04368 0.0
C1034 C 0.23911 0.029 0.97696 0.0
C1035 C 0.21079 0.07822 0.96614 0.0
N1036 N 0.27776 0.03071 0.02461 0.0
N1037 N 0.2323 0.07763 0.98452 0.0
H1038 H 0.70984 0.47413 0.07581 0.0
H1039 H 0.77887 0.47655 0.92355 0.0
H1040 H 0.66302 0.45955 1.00033 0.0
H1041 H 0.82535 0.45885 0.99859 0.0
H1042 H 0.73593 0.47818 0.95158 0.0
H1043 H 0.75271 0.47644 0.04775 0.0
C1044 C 0.70856 0.47144 0.05343 0.0
C1045 C 0.68287 0.46624 0.0405 0.0
C1046 C 0.75562 0.47393 0.96179 0.0
C1047 C 0.73153 0.46931 0.00833 0.0
C1048 C 0.78006 0.47302 0.94582 0.0
C1049 C 0.80569 0.46716 0.95862 0.0
C1050 C 0.75697 0.46948 0.99077 0.0
C1051 C 0.80603 0.46297 0.98767 0.0
C1052 C 0.73297 0.47273 0.03744 0.0
C1053 C 0.68241 0.46312 0.01131 0.0
N1054 N 0.78212 0.46428 0.00272 0.0
N1055 N 0.70631 0.46477 0.99625 0.0
H1056 H 0.30996 0.90044 0.45692 0.0
H1057 H 0.21174 0.99024 0.55707 0.0
H1058 H 0.30187 0.98948 0.44822 0.0
H1059 H 0.19953 0.90251 0.54188 0.0
H1060 H 0.24924 0.9904 0.52196 0.0
H1061 H 0.27242 0.90078 0.49138 0.0
C1062 C 0.29982 0.92001 0.46188 0.0
C1063 C 0.30877 0.94491 0.44945 0.0
C1064 C 0.23847 0.97111 0.52656 0.0
C1065 C 0.26648 0.94565 0.48978 0.0
C1066 C 0.21742 0.97091 0.54688 0.0
C1067 C 0.20263 0.94628 0.5525 0.0
C1068 C 0.24497 0.94642 0.51213 0.0
C1069 C 0.21043 0.92194 0.53824 0.0
C1070 C 0.27855 0.92024 0.48171 0.0
C1071 C 0.29522 0.96976 0.45695 0.0
N1072 N 0.23101 0.92262 0.51878 0.0
N1073 N 0.27496 0.96958 0.47693 0.0
H1074 H 0.80031 0.58842 0.5416 0.0
H1075 H 0.69939 0.49924 0.44412 0.0
H1076 H 0.78957 0.49994 0.55282 0.0
H1077 H 0.68749 0.58698 0.45944 0.0
H1078 H 0.73741 0.49903 0.47864 0.0
H1079 H 0.7624 0.58833 0.50754 0.0
C1080 C 0.78953 0.56906 0.53728 0.0
C1081 C 0.7978 0.54423 0.55029 0.0
C1082 C 0.7266 0.51834 0.47418 0.0
C1083 C 0.75514 0.54373 0.51046 0.0
C1084 C 0.70527 0.51857 0.45419 0.0
C1085 C 0.69046 0.54322 0.4488 0.0
C1086 C 0.73335 0.54303 0.48845 0.0
C1087 C 0.69846 0.56756 0.46291 0.0
C1088 C 0.76805 0.56897 0.51769 0.0
C1089 C 0.78344 0.51961 0.54361 0.0
N1090 N 0.71934 0.56687 0.48202 0.0
N1091 N 0.763 0.5199 0.52385 0.0
H1092 H 0.05487 0.3032 0.01104 0.0
H1093 H 0.95804 0.20172 0.1005 0.0
H1094 H 0.03874 0.31522 0.09868 0.0
H1095 H 0.94991 0.2092 0.01132 0.0
H1096 H 0.99085 0.24067 0.10037 0.0
H1097 H 0.02118 0.26453 0.01085 0.0
C1098 C 0.04476 0.29727 0.03035 0.0
C1099 C 0.04968 0.31233 0.05495 0.0
C1100 C 0.98164 0.23408 0.08085 0.0
C1101 C 0.01092 0.26865 0.05477 0.0
C1102 C 0.96276 0.212 0.08095 0.0
C1103 C 0.95105 0.20245 0.05593 0.0
C1104 C 0.98943 0.24637 0.05545 0.0
C1105 C 0.95814 0.21625 0.03111 0.0
C1106 C 0.02524 0.27554 0.03013 0.0
C1107 C 0.03558 0.30415 0.07926 0.0
N1108 N 0.9772 0.23733 0.03143 0.0
N1109 N 0.0169 0.28291 0.07856 0.0
H1110 H 0.07826 0.70917 0.4774 0.0
H1111 H 0.92474 0.77558 0.47471 0.0
H1112 H 0.00461 0.66208 0.45589 0.0
H1113 H 0.99977 0.82402 0.46346 0.0
H1114 H 0.95348 0.73306 0.47587 0.0
H1115 H 0.0493 0.75139 0.4803 0.0
C1116 C 0.0561 0.70769 0.47328 0.0
C1117 C 0.04398 0.68211 0.46599 0.0
C1118 C 0.96353 0.75308 0.47315 0.0
C1119 C 0.01074 0.73002 0.46978 0.0
C1120 C 0.94715 0.77728 0.47253 0.0
C1121 C 0.95978 0.80334 0.46855 0.0
C1122 C 0.9927 0.75511 0.47034 0.0
C1123 C 0.98902 0.80435 0.46605 0.0
C1124 C 0.03959 0.73173 0.47493 0.0
C1125 C 0.01503 0.68139 0.46111 0.0
N1126 N 0.00444 0.78067 0.46705 0.0
N1127 N 0.99943 0.70491 0.46317 0.0
H1128 H 0.57936 0.77321 0.53096 0.0
H1129 H 0.42311 0.71292 0.53173 0.0
H1130 H 0.50661 0.82391 0.54668 0.0
H1131 H 0.49585 0.66187 0.5462 0.0
H1132 H 0.45359 0.75412 0.52961 0.0
H1133 H 0.54897 0.7319 0.52903 0.0
C1134 C 0.55711 0.77568 0.53399 0.0
C1135 C 0.54565 0.80203 0.53939 0.0
C1136 C 0.46277 0.73382 0.53324 0.0
C1137 C 0.51081 0.75514 0.53673 0.0
C1138 C 0.44538 0.71035 0.53442 0.0
C1139 C 0.45681 0.68394 0.53956 0.0
C1140 C 0.49178 0.73073 0.53672 0.0
C1141 C 0.48595 0.68184 0.54268 0.0
C1142 C 0.53979 0.75215 0.53291 0.0
C1143 C 0.51655 0.804 0.54294 0.0
N1144 N 0.50237 0.70484 0.54116 0.0
N1145 N 0.5002 0.78097 0.54148 0.0
H1146 H 0.53242 0.57842 0.77436 0.0
H1147 H 0.53436 0.42208 0.71521 0.0
H1148 H 0.54864 0.50637 0.82584 0.0
H1149 H 0.55014 0.49426 0.66378 0.0
H1150 H 0.53245 0.4528 0.75621 0.0
H1151 H 0.53185 0.54777 0.73323 0.0
C1152 C 0.5359 0.55627 0.77703 0.0
C1153 C 0.54094 0.54509 0.80358 0.0
C1154 C 0.53638 0.4618 0.73588 0.0
C1155 C 0.5398 0.50993 0.75687 0.0
C1156 C 0.53744 0.44428 0.71252 0.0
C1157 C 0.54278 0.45548 0.68604 0.0
C1158 C 0.54015 0.49073 0.73262 0.0
C1159 C 0.54641 0.48453 0.6838 0.0
C1160 C 0.53558 0.5388 0.75361 0.0
C1161 C 0.5451 0.5161 0.8058 0.0
N1162 N 0.54493 0.5011 0.70669 0.0
N1163 N 0.54433 0.49959 0.78285 0.0
H1164 H 0.50323 0.94746 0.79014 0.0
H1165 H 0.41357 0.0392 0.68444 0.0
H1166 H 0.4152 0.96238 0.80096 0.0
H1167 H 0.50189 0.05188 0.6955 0.0
H1168 H 0.41377 0.00655 0.72356 0.0
H1169 H 0.50319 0.97988 0.75038 0.0
C1170 C 0.48379 0.95699 0.78369 0.0
C1171 C 0.45914 0.95217 0.79871 0.0
C1172 C 0.43306 0.0167 0.71766 0.0
C1173 C 0.45904 0.98942 0.75382 0.0
C1174 C 0.43292 0.03545 0.69548 0.0
C1175 C 0.45769 0.04846 0.68695 0.0
C1176 C 0.45827 0.01035 0.73107 0.0
C1177 C 0.48227 0.04262 0.70174 0.0
C1178 C 0.48387 0.97579 0.76135 0.0
C1179 C 0.43463 0.9655 0.78989 0.0
N1180 N 0.48203 0.02369 0.72292 0.0
N1181 N 0.4352 0.98348 0.76804 0.0
H1182 H 0.44413 0.30133 0.98621 0.0
H1183 H 0.54713 0.20425 0.89843 0.0
H1184 H 0.46098 0.31355 0.89875 0.0
H1185 H 0.55311 0.21152 0.98779 0.0
H1186 H 0.51257 0.24165 0.89808 0.0
H1187 H 0.47957 0.2642 0.98714 0.0
C1188 C 0.45478 0.29574 0.9671 0.0
C1189 C 0.44952 0.31042 0.94233 0.0
C1190 C 0.52167 0.23538 0.91776 0.0
C1191 C 0.49027 0.2685 0.94335 0.0
C1192 C 0.54156 0.21419 0.91794 0.0
C1193 C 0.55323 0.20503 0.94313 0.0
C1194 C 0.51279 0.24717 0.94304 0.0
C1195 C 0.54496 0.21833 0.96787 0.0
C1196 C 0.47529 0.2749 0.96774 0.0
C1197 C 0.46435 0.30274 0.91828 0.0
N1198 N 0.52494 0.23853 0.96727 0.0
N1199 N 0.48398 0.28236 0.91939 0.0
loop_
_geom_bond_atom_site_label_1
_geom_bond_atom_site_label_2
_geom_bond_distance
_geom_bond_site_symmetry_2
_ccdc_geom_bond_type
Co0 O1 2.216 1_655 S
Co0 O2 2.091 . S
Co0 O4 2.004 . S
Co0 O10 2.021 . S
Co0 O12 2.137 1_655 S
Co0 O13 2.244 1_655 S
O1 Co0 2.216 1_455 S
O1 C8 1.247 1_455 S
O2 Co0 2.091 . S
O2 C8 1.261 . S
C3 O12 1.247 . S
C3 O13 1.272 . S
O4 Co0 2.004 . S
O4 C9 1.259 . S
Co5 O6 2.061 1_455 S
Co5 O11 2.052 . S
Co5 O13 2.135 . S
O6 Co5 2.061 1_655 S
O6 C9 1.235 . S
C7 O10 1.238 1_455 S
C7 O11 1.241 . S
C8 O1 1.247 1_655 S
C8 O2 1.261 . S
C9 O4 1.259 . S
C9 O6 1.235 . S
O10 Co0 2.021 . S
O10 C7 1.238 1_655 S
O11 Co5 2.052 . S
O11 C7 1.241 . S
O12 Co0 2.137 1_455 S
O12 C3 1.247 . S
O13 Co0 2.244 1_455 S
O13 C3 1.272 . S
O13 Co5 2.135 . S
Co14 O15 2.216 1_455 S
Co14 O16 2.091 . S
Co14 O18 2.004 . S
Co14 O24 2.021 . S
Co14 O26 2.137 1_455 S
Co14 O27 2.244 1_455 S
O15 Co14 2.216 1_655 S
O15 C22 1.247 1_655 S
O16 Co14 2.091 . S
O16 C22 1.261 . S
C17 O26 1.247 . S
C17 O27 1.272 . S
O18 Co14 2.004 . S
O18 C23 1.259 . S
Co19 O20 2.061 1_655 S
Co19 O25 2.052 . S
Co19 O27 2.135 . S
O20 Co19 2.061 1_455 S
O20 C23 1.235 . S
C21 O24 1.238 1_655 S
C21 O25 1.241 . S
C22 O15 1.247 1_455 S
C22 O16 1.261 . S
C23 O18 1.259 . S
C23 O20 1.235 . S
O24 Co14 2.021 . S
O24 C21 1.238 1_455 S
O25 Co19 2.052 . S
O25 C21 1.241 . S
O26 Co14 2.137 1_655 S
O26 C17 1.247 . S
O27 Co14 2.244 1_655 S
O27 C17 1.272 . S
O27 Co19 2.135 . S
Co28 O29 2.216 1_655 S
Co28 O30 2.091 . S
Co28 O32 2.004 . S
Co28 O38 2.021 . S
Co28 O40 2.137 1_655 S
Co28 O41 2.244 1_655 S
O29 Co28 2.216 1_455 S
O29 C36 1.247 1_455 S
O30 Co28 2.091 . S
O30 C36 1.261 . S
C31 O40 1.247 . S
C31 O41 1.272 . S
O32 Co28 2.004 . S
O32 C37 1.259 . S
Co33 O34 2.061 1_455 S
Co33 O39 2.052 . S
Co33 O41 2.135 . S
O34 Co33 2.061 1_655 S
O34 C37 1.235 . S
C35 O38 1.238 1_455 S
C35 O39 1.241 . S
C36 O29 1.247 1_655 S
C36 O30 1.261 . S
C37 O32 1.259 . S
C37 O34 1.235 . S
O38 Co28 2.021 . S
O38 C35 1.238 1_655 S
O39 Co33 2.052 . S
O39 C35 1.241 . S
O40 Co28 2.137 1_455 S
O40 C31 1.247 . S
O41 Co28 2.244 1_455 S
O41 C31 1.272 . S
O41 Co33 2.135 . S
Co42 O43 2.216 1_455 S
Co42 O44 2.091 . S
Co42 O46 2.004 . S
Co42 O52 2.021 . S
Co42 O54 2.137 1_455 S
Co42 O55 2.244 1_455 S
O43 Co42 2.216 1_655 S
O43 C50 1.247 1_655 S
O44 Co42 2.091 . S
O44 C50 1.261 . S
C45 O54 1.247 . S
C45 O55 1.272 . S
O46 Co42 2.004 . S
O46 C51 1.259 . S
Co47 O48 2.061 1_655 S
Co47 O53 2.052 . S
Co47 O55 2.135 . S
O48 Co47 2.061 1_455 S
O48 C51 1.235 . S
C49 O52 1.238 1_655 S
C49 O53 1.241 . S
C50 O43 1.247 1_455 S
C50 O44 1.261 . S
C51 O46 1.259 . S
C51 O48 1.235 . S
O52 Co42 2.021 . S
O52 C49 1.238 1_455 S
O53 Co47 2.052 . S
O53 C49 1.241 . S
O54 Co42 2.137 1_655 S
O54 C45 1.247 . S
O55 Co42 2.244 1_655 S
O55 C45 1.272 . S
O55 Co47 2.135 . S
Co56 O57 2.216 1_565 S
Co56 O58 2.091 . S
Co56 O60 2.004 . S
Co56 O66 2.021 . S
Co56 O68 2.137 1_565 S
Co56 O69 2.244 1_565 S
O57 Co56 2.216 1_545 S
O57 C64 1.247 1_545 S
O58 Co56 2.091 . S
O58 C64 1.261 . S
C59 O68 1.247 . S
C59 O69 1.272 . S
O60 Co56 2.004 . S
O60 C65 1.259 . S
Co61 O62 2.061 1_545 S
Co61 O67 2.052 . S
Co61 O69 2.135 . S
O62 Co61 2.061 1_565 S
O62 C65 1.235 . S
C63 O66 1.238 1_545 S
C63 O67 1.241 . S
C64 O57 1.247 1_565 S
C64 O58 1.261 . S
C65 O60 1.259 . S
C65 O62 1.235 . S
O66 Co56 2.021 . S
O66 C63 1.238 1_565 S
O67 Co61 2.052 . S
O67 C63 1.241 . S
O68 Co56 2.137 1_545 S
O68 C59 1.247 . S
O69 Co56 2.244 1_545 S
O69 C59 1.272 . S
O69 Co61 2.135 . S
Co70 O71 2.216 . S
Co70 O72 2.091 . S
Co70 O74 2.004 . S
Co70 O80 2.021 . S
Co70 O82 2.137 . S
Co70 O83 2.244 . S
O71 Co70 2.216 . S
O71 C78 1.247 . S
O72 Co70 2.091 . S
O72 C78 1.261 . S
C73 O82 1.247 . S
C73 O83 1.272 . S
O74 Co70 2.004 . S
O74 C79 1.259 . S
Co75 O76 2.061 . S
Co75 O81 2.052 . S
Co75 O83 2.135 . S
O76 Co75 2.061 . S
O76 C79 1.235 . S
C77 O80 1.238 . S
C77 O81 1.241 . S
C78 O71 1.247 . S
C78 O72 1.261 . S
C79 O74 1.259 . S
C79 O76 1.235 . S
O80 Co70 2.021 . S
O80 C77 1.238 . S
O81 Co75 2.052 . S
O81 C77 1.241 . S
O82 Co70 2.137 . S
O82 C73 1.247 . S
O83 Co70 2.244 . S
O83 C73 1.272 . S
O83 Co75 2.135 . S
Co84 O85 2.216 1_545 S
Co84 O86 2.091 . S
Co84 O88 2.004 . S
Co84 O94 2.021 . S
Co84 O96 2.137 1_545 S
Co84 O97 2.244 1_545 S
O85 Co84 2.216 1_565 S
O85 C92 1.247 1_565 S
O86 Co84 2.091 . S
O86 C92 1.261 . S
C87 O96 1.247 . S
C87 O97 1.272 . S
O88 Co84 2.004 . S
O88 C93 1.259 . S
Co89 O90 2.061 1_565 S
Co89 O95 2.052 . S
Co89 O97 2.135 . S
O90 Co89 2.061 1_545 S
O90 C93 1.235 . S
C91 O94 1.238 1_565 S
C91 O95 1.241 . S
C92 O85 1.247 1_545 S
C92 O86 1.261 . S
C93 O88 1.259 . S
C93 O90 1.235 . S
O94 Co84 2.021 . S
O94 C91 1.238 1_545 S
O95 Co89 2.052 . S
O95 C91 1.241 . S
O96 Co84 2.137 1_565 S
O96 C87 1.247 . S
O97 Co84 2.244 1_565 S
O97 C87 1.272 . S
O97 Co89 2.135 . S
Co98 O99 2.216 . S
Co98 O100 2.091 . S
Co98 O102 2.004 . S
Co98 O108 2.021 . S
Co98 O110 2.137 . S
Co98 O111 2.244 . S
O99 Co98 2.216 . S
O99 C106 1.247 . S
O100 Co98 2.091 . S
O100 C106 1.261 . S
C101 O110 1.247 . S
C101 O111 1.272 . S
O102 Co98 2.004 . S
O102 C107 1.259 . S
Co103 O104 2.061 . S
Co103 O109 2.052 . S
Co103 O111 2.135 . S
O104 Co103 2.061 . S
O104 C107 1.235 . S
C105 O108 1.238 . S
C105 O109 1.241 . S
C106 O99 1.247 . S
C106 O100 1.261 . S
C107 O102 1.259 . S
C107 O104 1.235 . S
O108 Co98 2.021 . S
O108 C105 1.238 . S
O109 Co103 2.052 . S
O109 C105 1.241 . S
O110 Co98 2.137 . S
O110 C101 1.247 . S
O111 Co98 2.244 . S
O111 C101 1.272 . S
O111 Co103 2.135 . S
Co112 O113 2.216 1_556 S
Co112 O114 2.091 . S
Co112 O116 2.004 . S
Co112 O122 2.021 . S
Co112 O124 2.137 1_556 S
Co112 O125 2.244 1_556 S
O113 Co112 2.216 1_554 S
O113 C120 1.247 1_554 S
O114 Co112 2.091 . S
O114 C120 1.261 . S
C115 O124 1.247 . S
C115 O125 1.272 . S
O116 Co112 2.004 . S
O116 C121 1.259 . S
Co117 O118 2.061 1_554 S
Co117 O123 2.052 . S
Co117 O125 2.135 . S
O118 Co117 2.061 1_556 S
O118 C121 1.235 . S
C119 O122 1.238 1_554 S
C119 O123 1.241 . S
C120 O113 1.247 1_556 S
C120 O114 1.261 . S
C121 O116 1.259 . S
C121 O118 1.235 . S
O122 Co112 2.021 . S
O122 C119 1.238 1_556 S
O123 Co117 2.052 . S
O123 C119 1.241 . S
O124 Co112 2.137 1_554 S
O124 C115 1.247 . S
O125 Co112 2.244 1_554 S
O125 C115 1.272 . S
O125 Co117 2.135 . S
Co126 O127 2.216 . S
Co126 O128 2.091 . S
Co126 O130 2.004 . S
Co126 O136 2.021 . S
Co126 O138 2.137 . S
Co126 O139 2.244 . S
O127 Co126 2.216 . S
O127 C134 1.247 . S
O128 Co126 2.091 . S
O128 C134 1.261 . S
C129 O138 1.247 . S
C129 O139 1.272 . S
O130 Co126 2.004 . S
O130 C135 1.259 . S
Co131 O132 2.061 . S
Co131 O137 2.052 . S
Co131 O139 2.135 . S
O132 Co131 2.061 . S
O132 C135 1.235 . S
C133 O136 1.238 . S
C133 O137 1.241 . S
C134 O127 1.247 . S
C134 O128 1.261 . S
C135 O130 1.259 . S
C135 O132 1.235 . S
O136 Co126 2.021 . S
O136 C133 1.238 . S
O137 Co131 2.052 . S
O137 C133 1.241 . S
O138 Co126 2.137 . S
O138 C129 1.247 . S
O139 Co126 2.244 . S
O139 C129 1.272 . S
O139 Co131 2.135 . S
Co140 O141 2.216 . S
Co140 O142 2.091 . S
Co140 O144 2.004 . S
Co140 O150 2.021 . S
Co140 O152 2.137 . S
Co140 O153 2.244 . S
O141 Co140 2.216 . S
O141 C148 1.247 . S
O142 Co140 2.091 . S
O142 C148 1.261 . S
C143 O152 1.247 . S
C143 O153 1.272 . S
O144 Co140 2.004 . S
O144 C149 1.259 . S
Co145 O146 2.061 . S
Co145 O151 2.052 . S
Co145 O153 2.135 . S
O146 Co145 2.061 . S
O146 C149 1.235 . S
C147 O150 1.238 . S
C147 O151 1.241 . S
C148 O141 1.247 . S
C148 O142 1.261 . S
C149 O144 1.259 . S
C149 O146 1.235 . S
O150 Co140 2.021 . S
O150 C147 1.238 . S
O151 Co145 2.052 . S
O151 C147 1.241 . S
O152 Co140 2.137 . S
O152 C143 1.247 . S
O153 Co140 2.244 . S
O153 C143 1.272 . S
O153 Co145 2.135 . S
Co154 O155 2.216 . S
Co154 O156 2.091 . S
Co154 O158 2.004 . S
Co154 O164 2.021 . S
Co154 O166 2.137 . S
Co154 O167 2.244 . S
O155 Co154 2.216 . S
O155 C162 1.247 . S
O156 Co154 2.091 . S
O156 C162 1.261 . S
C157 O166 1.247 . S
C157 O167 1.272 . S
O158 Co154 2.004 . S
O158 C163 1.259 . S
Co159 O160 2.061 . S
Co159 O165 2.052 . S
Co159 O167 2.135 . S
O160 Co159 2.061 . S
O160 C163 1.235 . S
C161 O164 1.238 . S
C161 O165 1.241 . S
C162 O155 1.247 . S
C162 O156 1.261 . S
C163 O158 1.259 . S
C163 O160 1.235 . S
O164 Co154 2.021 . S
O164 C161 1.238 . S
O165 Co159 2.052 . S
O165 C161 1.241 . S
O166 Co154 2.137 . S
O166 C157 1.247 . S
O167 Co154 2.244 . S
O167 C157 1.272 . S
O167 Co159 2.135 . S
Co168 O169 2.216 . S
Co168 O170 2.091 . S
Co168 O172 2.004 . S
Co168 O178 2.021 . S
Co168 O180 2.137 . S
Co168 O181 2.244 . S
O169 Co168 2.216 . S
O169 C176 1.247 . S
O170 Co168 2.091 . S
O170 C176 1.261 . S
C171 O180 1.247 . S
C171 O181 1.272 . S
O172 Co168 2.004 . S
O172 C177 1.259 . S
Co173 O174 2.061 . S
Co173 O179 2.052 . S
Co173 O181 2.135 . S
O174 Co173 2.061 . S
O174 C177 1.235 . S
C175 O178 1.238 . S
C175 O179 1.241 . S
C176 O169 1.247 . S
C176 O170 1.261 . S
C177 O172 1.259 . S
C177 O174 1.235 . S
O178 Co168 2.021 . S
O178 C175 1.238 . S
O179 Co173 2.052 . S
O179 C175 1.241 . S
O180 Co168 2.137 . S
O180 C171 1.247 . S
O181 Co168 2.244 . S
O181 C171 1.272 . S
O181 Co173 2.135 . S
Co182 O183 2.216 . S
Co182 O184 2.091 . S
Co182 O186 2.004 . S
Co182 O192 2.021 . S
Co182 O194 2.137 . S
Co182 O195 2.244 . S
O183 Co182 2.216 . S
O183 C190 1.247 . S
O184 Co182 2.091 . S
O184 C190 1.261 . S
C185 O194 1.247 . S
C185 O195 1.272 . S
O186 Co182 2.004 . S
O186 C191 1.259 . S
Co187 O188 2.061 . S
Co187 O193 2.052 . S
Co187 O195 2.135 . S
O188 Co187 2.061 . S
O188 C191 1.235 . S
C189 O192 1.238 . S
C189 O193 1.241 . S
C190 O183 1.247 . S
C190 O184 1.261 . S
C191 O186 1.259 . S
C191 O188 1.235 . S
O192 Co182 2.021 . S
O192 C189 1.238 . S
O193 Co187 2.052 . S
O193 C189 1.241 . S
O194 Co182 2.137 . S
O194 C185 1.247 . S
O195 Co182 2.244 . S
O195 C185 1.272 . S
O195 Co187 2.135 . S
Co196 O197 2.216 . S
Co196 O198 2.091 . S
Co196 O200 2.004 . S
Co196 O206 2.021 . S
Co196 O208 2.137 . S
Co196 O209 2.244 . S
O197 Co196 2.216 . S
O197 C204 1.247 . S
O198 Co196 2.091 . S
O198 C204 1.261 . S
C199 O208 1.247 . S
C199 O209 1.272 . S
O200 Co196 2.004 . S
O200 C205 1.259 . S
Co201 O202 2.061 . S
Co201 O207 2.052 . S
Co201 O209 2.135 . S
O202 Co201 2.061 . S
O202 C205 1.235 . S
C203 O206 1.238 . S
C203 O207 1.241 . S
C204 O197 1.247 . S
C204 O198 1.261 . S
C205 O200 1.259 . S
C205 O202 1.235 . S
O206 Co196 2.021 . S
O206 C203 1.238 . S
O207 Co201 2.052 . S
O207 C203 1.241 . S
O208 Co196 2.137 . S
O208 C199 1.247 . S
O209 Co196 2.244 . S
O209 C199 1.272 . S
O209 Co201 2.135 . S
Co210 O211 2.216 . S
Co210 O212 2.091 . S
Co210 O214 2.004 . S
Co210 O220 2.021 . S
Co210 O222 2.137 . S
Co210 O223 2.244 . S
O211 Co210 2.216 . S
O211 C218 1.247 . S
O212 Co210 2.091 . S
O212 C218 1.261 . S
C213 O222 1.247 . S
C213 O223 1.272 . S
O214 Co210 2.004 . S
O214 C219 1.259 . S
Co215 O216 2.061 . S
Co215 O221 2.052 . S
Co215 O223 2.135 . S
O216 Co215 2.061 . S
O216 C219 1.235 . S
C217 O220 1.238 . S
C217 O221 1.241 . S
C218 O211 1.247 . S
C218 O212 1.261 . S
C219 O214 1.259 . S
C219 O216 1.235 . S
O220 Co210 2.021 . S
O220 C217 1.238 . S
O221 Co215 2.052 . S
O221 C217 1.241 . S
O222 Co210 2.137 . S
O222 C213 1.247 . S
O223 Co210 2.244 . S
O223 C213 1.272 . S
O223 Co215 2.135 . S
Co224 O225 2.216 . S
Co224 O226 2.091 . S
Co224 O228 2.004 . S
Co224 O234 2.021 . S
Co224 O236 2.137 . S
Co224 O237 2.244 . S
O225 Co224 2.216 . S
O225 C232 1.247 . S
O226 Co224 2.091 . S
O226 C232 1.261 . S
C227 O236 1.247 . S
C227 O237 1.272 . S
O228 Co224 2.004 . S
O228 C233 1.259 . S
Co229 O230 2.061 . S
Co229 O235 2.052 . S
Co229 O237 2.135 . S
O230 Co229 2.061 . S
O230 C233 1.235 . S
C231 O234 1.238 . S
C231 O235 1.241 . S
C232 O225 1.247 . S
C232 O226 1.261 . S
C233 O228 1.259 . S
C233 O230 1.235 . S
O234 Co224 2.021 . S
O234 C231 1.238 . S
O235 Co229 2.052 . S
O235 C231 1.241 . S
O236 Co224 2.137 . S
O236 C227 1.247 . S
O237 Co224 2.244 . S
O237 C227 1.272 . S
O237 Co229 2.135 . S
Co238 O239 2.216 1_545 S
Co238 O240 2.091 . S
Co238 O242 2.004 . S
Co238 O248 2.021 . S
Co238 O250 2.137 1_545 S
Co238 O251 2.244 1_545 S
O239 Co238 2.216 1_565 S
O239 C246 1.247 1_565 S
O240 Co238 2.091 . S
O240 C246 1.261 . S
C241 O250 1.247 . S
C241 O251 1.272 . S
O242 Co238 2.004 . S
O242 C247 1.259 . S
Co243 O244 2.061 1_565 S
Co243 O249 2.052 . S
Co243 O251 2.135 . S
O244 Co243 2.061 1_545 S
O244 C247 1.235 . S
C245 O248 1.238 1_565 S
C245 O249 1.241 . S
C246 O239 1.247 1_545 S
C246 O240 1.261 . S
C247 O242 1.259 . S
C247 O244 1.235 . S
O248 Co238 2.021 . S
O248 C245 1.238 1_545 S
O249 Co243 2.052 . S
O249 C245 1.241 . S
O250 Co238 2.137 1_565 S
O250 C241 1.247 . S
O251 Co238 2.244 1_565 S
O251 C241 1.272 . S
O251 Co243 2.135 . S
Co252 O253 2.216 . S
Co252 O254 2.091 . S
Co252 O256 2.004 . S
Co252 O262 2.021 . S
Co252 O264 2.137 . S
Co252 O265 2.244 . S
O253 Co252 2.216 . S
O253 C260 1.247 . S
O254 Co252 2.091 . S
O254 C260 1.261 . S
C255 O264 1.247 . S
C255 O265 1.272 . S
O256 Co252 2.004 . S
O256 C261 1.259 . S
Co257 O258 2.061 . S
Co257 O263 2.052 . S
Co257 O265 2.135 . S
O258 Co257 2.061 . S
O258 C261 1.235 . S
C259 O262 1.238 . S
C259 O263 1.241 . S
C260 O253 1.247 . S
C260 O254 1.261 . S
C261 O256 1.259 . S
C261 O258 1.235 . S
O262 Co252 2.021 . S
O262 C259 1.238 . S
O263 Co257 2.052 . S
O263 C259 1.241 . S
O264 Co252 2.137 . S
O264 C255 1.247 . S
O265 Co252 2.244 . S
O265 C255 1.272 . S
O265 Co257 2.135 . S
Co266 O267 2.216 1_565 S
Co266 O268 2.091 . S
Co266 O270 2.004 . S
Co266 O276 2.021 . S
Co266 O278 2.137 1_565 S
Co266 O279 2.244 1_565 S
O267 Co266 2.216 1_545 S
O267 C274 1.247 1_545 S
O268 Co266 2.091 . S
O268 C274 1.261 . S
C269 O278 1.247 . S
C269 O279 1.272 . S
O270 Co266 2.004 . S
O270 C275 1.259 . S
Co271 O272 2.061 1_545 S
Co271 O277 2.052 . S
Co271 O279 2.135 . S
O272 Co271 2.061 1_565 S
O272 C275 1.235 . S
C273 O276 1.238 1_545 S
C273 O277 1.241 . S
C274 O267 1.247 1_565 S
C274 O268 1.261 . S
C275 O270 1.259 . S
C275 O272 1.235 . S
O276 Co266 2.021 . S
O276 C273 1.238 1_565 S
O277 Co271 2.052 . S
O277 C273 1.241 . S
O278 Co266 2.137 1_545 S
O278 C269 1.247 . S
O279 Co266 2.244 1_545 S
O279 C269 1.272 . S
O279 Co271 2.135 . S
Co280 O281 2.216 . S
Co280 O282 2.091 . S
Co280 O284 2.004 . S
Co280 O290 2.021 . S
Co280 O292 2.137 . S
Co280 O293 2.244 . S
O281 Co280 2.216 . S
O281 C288 1.247 . S
O282 Co280 2.091 . S
O282 C288 1.261 . S
C283 O292 1.247 . S
C283 O293 1.272 . S
O284 Co280 2.004 . S
O284 C289 1.259 . S
Co285 O286 2.061 . S
Co285 O291 2.052 . S
Co285 O293 2.135 . S
O286 Co285 2.061 . S
O286 C289 1.235 . S
C287 O290 1.238 . S
C287 O291 1.241 . S
C288 O281 1.247 . S
C288 O282 1.261 . S
C289 O284 1.259 . S
C289 O286 1.235 . S
O290 Co280 2.021 . S
O290 C287 1.238 . S
O291 Co285 2.052 . S
O291 C287 1.241 . S
O292 Co280 2.137 . S
O292 C283 1.247 . S
O293 Co280 2.244 . S
O293 C283 1.272 . S
O293 Co285 2.135 . S
Co294 O295 2.216 1_554 S
Co294 O296 2.091 . S
Co294 O298 2.004 . S
Co294 O304 2.021 . S
Co294 O306 2.137 1_554 S
Co294 O307 2.244 1_554 S
O295 Co294 2.216 1_556 S
O295 C302 1.247 1_556 S
O296 Co294 2.091 . S
O296 C302 1.261 . S
C297 O306 1.247 . S
C297 O307 1.272 . S
O298 Co294 2.004 . S
O298 C303 1.259 . S
Co299 O300 2.061 1_556 S
Co299 O305 2.052 . S
Co299 O307 2.135 . S
O300 Co299 2.061 1_554 S
O300 C303 1.235 . S
C301 O304 1.238 1_556 S
C301 O305 1.241 . S
C302 O295 1.247 1_554 S
C302 O296 1.261 . S
C303 O298 1.259 . S
C303 O300 1.235 . S
O304 Co294 2.021 . S
O304 C301 1.238 1_554 S
O305 Co299 2.052 . S
O305 C301 1.241 . S
O306 Co294 2.137 1_556 S
O306 C297 1.247 . S
O307 Co294 2.244 1_556 S
O307 C297 1.272 . S
O307 Co299 2.135 . S
Co308 O309 2.216 1_554 S
Co308 O310 2.091 . S
Co308 O312 2.004 . S
Co308 O318 2.021 . S
Co308 O320 2.137 1_554 S
Co308 O321 2.244 1_554 S
O309 Co308 2.216 1_556 S
O309 C316 1.247 1_556 S
O310 Co308 2.091 . S
O310 C316 1.261 . S
C311 O320 1.247 . S
C311 O321 1.272 . S
O312 Co308 2.004 . S
O312 C317 1.259 . S
Co313 O314 2.061 1_556 S
Co313 O319 2.052 . S
Co313 O321 2.135 . S
O314 Co313 2.061 1_554 S
O314 C317 1.235 . S
C315 O318 1.238 1_556 S
C315 O319 1.241 . S
C316 O309 1.247 1_554 S
C316 O310 1.261 . S
C317 O312 1.259 . S
C317 O314 1.235 . S
O318 Co308 2.021 . S
O318 C315 1.238 1_554 S
O319 Co313 2.052 . S
O319 C315 1.241 . S
O320 Co308 2.137 1_556 S
O320 C311 1.247 . S
O321 Co308 2.244 1_556 S
O321 C311 1.272 . S
O321 Co313 2.135 . S
Co322 O323 2.216 1_556 S
Co322 O324 2.091 . S
Co322 O326 2.004 . S
Co322 O332 2.021 . S
Co322 O334 2.137 1_556 S
Co322 O335 2.244 1_556 S
O323 Co322 2.216 1_554 S
O323 C330 1.247 1_554 S
O324 Co322 2.091 . S
O324 C330 1.261 . S
C325 O334 1.247 . S
C325 O335 1.272 . S
O326 Co322 2.004 . S
O326 C331 1.259 . S
Co327 O328 2.061 1_554 S
Co327 O333 2.052 . S
Co327 O335 2.135 . S
O328 Co327 2.061 1_556 S
O328 C331 1.235 . S
C329 O332 1.238 1_554 S
C329 O333 1.241 . S
C330 O323 1.247 1_556 S
C330 O324 1.261 . S
C331 O326 1.259 . S
C331 O328 1.235 . S
O332 Co322 2.021 . S
O332 C329 1.238 1_556 S
O333 Co327 2.052 . S
O333 C329 1.241 . S
O334 Co322 2.137 1_554 S
O334 C325 1.247 . S
O335 Co322 2.244 1_554 S
O335 C325 1.272 . S
O335 Co327 2.135 . S
H336 C342 0.930 . S
H337 C346 0.930 . S
H338 C351 0.929 . S
H339 C349 0.929 . S
H340 C344 0.929 . S
H341 C350 0.929 . S
C342 H336 0.930 . S
C342 C343 1.367 . S
C342 C350 1.378 . S
C343 C342 1.367 . S
C343 C351 1.433 . S
C344 H340 0.929 . S
C344 C346 1.378 . S
C344 C348 1.350 . S
C345 C348 1.463 . S
C345 C350 1.350 . S
C345 N353 1.427 . S
C346 H337 0.930 . S
C346 C344 1.378 . S
C346 C347 1.367 . S
C347 C346 1.367 . S
C347 C349 1.433 . S
C348 C344 1.350 . S
C348 C345 1.463 . S
C348 N352 1.427 . S
C349 H339 0.929 . S
C349 C347 1.433 . S
C349 N352 1.384 . S
C350 H341 0.929 . S
C350 C342 1.378 . S
C350 C345 1.350 . S
C351 H338 0.929 . S
C351 C343 1.433 . S
C351 N353 1.384 . S
N352 C348 1.427 . S
N352 C349 1.384 . S
N353 C345 1.427 . S
N353 C351 1.384 . S
H354 C360 0.930 . S
H355 C364 0.930 . S
H356 C369 0.929 . S
H357 C367 0.929 . S
H358 C362 0.929 . S
H359 C368 0.929 . S
C360 H354 0.930 . S
C360 C361 1.367 . S
C360 C368 1.378 . S
C361 C360 1.367 . S
C361 C369 1.433 . S
C362 H358 0.929 . S
C362 C364 1.378 . S
C362 C366 1.350 . S
C363 C366 1.463 . S
C363 C368 1.350 . S
C363 N371 1.427 . S
C364 H355 0.930 . S
C364 C362 1.378 . S
C364 C365 1.367 . S
C365 C364 1.367 . S
C365 C367 1.433 . S
C366 C362 1.350 . S
C366 C363 1.463 . S
C366 N370 1.427 . S
C367 H357 0.929 . S
C367 C365 1.433 . S
C367 N370 1.384 . S
C368 H359 0.929 . S
C368 C360 1.378 . S
C368 C363 1.350 . S
C369 H356 0.929 . S
C369 C361 1.433 . S
C369 N371 1.384 . S
N370 C366 1.427 . S
N370 C367 1.384 . S
N371 C363 1.427 . S
N371 C369 1.384 . S
H372 C378 0.930 . S
H373 C382 0.930 . S
H374 C387 0.929 . S
H375 C385 0.929 . S
H376 C380 0.929 . S
H377 C386 0.929 . S
C378 H372 0.930 . S
C378 C379 1.367 . S
C378 C386 1.378 . S
C379 C378 1.367 . S
C379 C387 1.433 . S
C380 H376 0.929 . S
C380 C382 1.378 1_554 S
C380 C384 1.350 . S
C381 C384 1.463 . S
C381 C386 1.350 . S
C381 N389 1.427 . S
C382 H373 0.930 . S
C382 C380 1.378 1_556 S
C382 C383 1.367 . S
C383 C382 1.367 . S
C383 C385 1.433 . S
C384 C380 1.350 . S
C384 C381 1.463 . S
C384 N388 1.427 1_554 S
C385 H375 0.929 . S
C385 C383 1.433 . S
C385 N388 1.384 . S
C386 H377 0.929 . S
C386 C378 1.378 . S
C386 C381 1.350 . S
C387 H374 0.929 . S
C387 C379 1.433 . S
C387 N389 1.384 . S
N388 C384 1.427 1_556 S
N388 C385 1.384 . S
N389 C381 1.427 . S
N389 C387 1.384 . S
H390 C396 0.930 . S
H391 C400 0.930 . S
H392 C405 0.929 . S
H393 C403 0.929 . S
H394 C398 0.929 . S
H395 C404 0.929 . S
C396 H390 0.930 . S
C396 C397 1.367 . S
C396 C404 1.378 . S
C397 C396 1.367 . S
C397 C405 1.433 . S
C398 H394 0.929 . S
C398 C400 1.378 1_554 S
C398 C402 1.350 . S
C399 C402 1.463 . S
C399 C404 1.350 . S
C399 N407 1.427 . S
C400 H391 0.930 . S
C400 C398 1.378 1_556 S
C400 C401 1.367 . S
C401 C400 1.367 . S
C401 C403 1.433 . S
C402 C398 1.350 . S
C402 C399 1.463 . S
C402 N406 1.441 . S
C403 H393 0.929 . S
C403 C401 1.433 . S
C403 N406 1.356 1_556 S
C404 H395 0.929 . S
C404 C396 1.378 . S
C404 C399 1.350 . S
C405 H392 0.929 . S
C405 C397 1.433 . S
C405 N407 1.384 . S
N406 C402 1.441 . S
N406 C403 1.356 1_554 S
N407 C399 1.427 . S
N407 C405 1.384 . S
H408 C414 0.930 . S
H409 C418 0.930 . S
H410 C423 0.929 . S
H411 C421 0.929 . S
H412 C416 0.929 . S
H413 C422 0.929 . S
C414 H408 0.930 . S
C414 C415 1.367 . S
C414 C422 1.378 . S
C415 C414 1.367 . S
C415 C423 1.433 . S
C416 H412 0.929 . S
C416 C418 1.378 . S
C416 C420 1.350 . S
C417 C420 1.463 . S
C417 C422 1.350 . S
C417 N425 1.427 . S
C418 H409 0.930 . S
C418 C416 1.378 . S
C418 C419 1.367 . S
C419 C418 1.367 . S
C419 C421 1.433 . S
C420 C416 1.350 . S
C420 C417 1.463 . S
C420 N424 1.427 . S
C421 H411 0.929 . S
C421 C419 1.433 . S
C421 N424 1.384 . S
C422 H413 0.929 . S
C422 C414 1.378 . S
C422 C417 1.350 . S
C423 H410 0.929 . S
C423 C415 1.433 . S
C423 N425 1.384 . S
N424 C420 1.427 . S
N424 C421 1.384 . S
N425 C417 1.427 . S
N425 C423 1.384 . S
H426 C432 0.930 . S
H427 C436 0.930 . S
H428 C441 0.929 . S
H429 C439 0.929 . S
H430 C434 0.929 . S
H431 C440 0.929 . S
C432 H426 0.930 . S
C432 C433 1.367 . S
C432 C440 1.378 . S
C433 C432 1.367 . S
C433 C441 1.433 . S
C434 H430 0.929 . S
C434 C436 1.378 . S
C434 C438 1.350 . S
C435 C438 1.463 . S
C435 C440 1.350 . S
C435 N443 1.427 . S
C436 H427 0.930 . S
C436 C434 1.378 . S
C436 C437 1.367 . S
C437 C436 1.367 . S
C437 C439 1.433 . S
C438 C434 1.350 . S
C438 C435 1.463 . S
C438 N442 1.427 . S
C439 H429 0.929 . S
C439 C437 1.433 . S
C439 N442 1.384 . S
C440 H431 0.929 . S
C440 C432 1.378 . S
C440 C435 1.350 . S
C441 H428 0.929 . S
C441 C433 1.433 . S
C441 N443 1.384 . S
N442 C438 1.427 . S
N442 C439 1.384 . S
N443 C435 1.427 . S
N443 C441 1.384 . S
H444 C450 0.930 . S
H445 C454 0.930 . S
H446 C459 0.929 . S
H447 C457 0.929 . S
H448 C452 0.929 . S
H449 C458 0.929 . S
C450 H444 0.930 . S
C450 C451 1.367 . S
C450 C458 1.378 . S
C451 C450 1.367 . S
C451 C459 1.433 . S
C452 H448 0.929 . S
C452 C454 1.378 . S
C452 C456 1.350 . S
C453 C456 1.463 . S
C453 C458 1.350 . S
C453 N461 1.427 . S
C454 H445 0.930 . S
C454 C452 1.378 . S
C454 C455 1.367 . S
C455 C454 1.367 . S
C455 C457 1.433 . S
C456 C452 1.350 . S
C456 C453 1.463 . S
C456 N460 1.427 . S
C457 H447 0.929 . S
C457 C455 1.433 . S
C457 N460 1.384 . S
C458 H449 0.929 . S
C458 C450 1.378 . S
C458 C453 1.350 . S
C459 H446 0.929 . S
C459 C451 1.433 . S
C459 N461 1.384 . S
N460 C456 1.427 . S
N460 C457 1.384 . S
N461 C453 1.427 . S
N461 C459 1.384 . S
H462 C468 0.930 . S
H463 C472 0.930 . S
H464 C477 0.929 . S
H465 C475 0.929 . S
H466 C470 0.929 . S
H467 C476 0.929 . S
C468 H462 0.930 . S
C468 C469 1.367 . S
C468 C476 1.378 . S
C469 C468 1.367 . S
C469 C477 1.433 . S
C470 H466 0.929 . S
C470 C472 1.378 . S
C470 C474 1.350 . S
C471 C474 1.463 . S
C471 C476 1.350 . S
C471 N479 1.427 . S
C472 H463 0.930 . S
C472 C470 1.378 . S
C472 C473 1.367 . S
C473 C472 1.367 . S
C473 C475 1.433 . S
C474 C470 1.350 . S
C474 C471 1.463 . S
C474 N478 1.427 . S
C475 H465 0.929 . S
C475 C473 1.433 . S
C475 N478 1.384 . S
C476 H467 0.929 . S
C476 C468 1.378 . S
C476 C471 1.350 . S
C477 H464 0.929 . S
C477 C469 1.433 . S
C477 N479 1.384 . S
N478 C474 1.427 . S
N478 C475 1.384 . S
N479 C471 1.427 . S
N479 C477 1.384 . S
H480 C486 0.930 . S
H481 C490 0.930 . S
H482 C495 0.929 . S
H483 C493 0.929 . S
H484 C488 0.929 . S
H485 C494 0.929 . S
C486 H480 0.930 . S
C486 C487 1.367 . S
C486 C494 1.378 . S
C487 C486 1.367 . S
C487 C495 1.433 . S
C488 H484 0.929 . S
C488 C490 1.378 . S
C488 C492 1.350 . S
C489 C492 1.463 . S
C489 C494 1.350 . S
C489 N497 1.427 . S
C490 H481 0.930 . S
C490 C488 1.378 . S
C490 C491 1.367 . S
C491 C490 1.367 . S
C491 C493 1.433 . S
C492 C488 1.350 . S
C492 C489 1.463 . S
C492 N496 1.427 . S
C493 H483 0.929 . S
C493 C491 1.433 . S
C493 N496 1.384 . S
C494 H485 0.929 . S
C494 C486 1.378 . S
C494 C489 1.350 . S
C495 H482 0.929 . S
C495 C487 1.433 . S
C495 N497 1.384 . S
N496 C492 1.427 . S
N496 C493 1.384 . S
N497 C489 1.427 . S
N497 C495 1.384 . S
H498 C504 0.930 . S
H499 C508 0.930 . S
H500 C513 0.929 . S
H501 C511 0.929 . S
H502 C506 0.929 . S
H503 C512 0.929 . S
C504 H498 0.930 . S
C504 C505 1.367 . S
C504 C512 1.378 . S
C505 C504 1.367 . S
C505 C513 1.433 . S
C506 H502 0.929 . S
C506 C508 1.378 . S
C506 C510 1.350 . S
C507 C510 1.463 . S
C507 C512 1.350 . S
C507 N515 1.427 . S
C508 H499 0.930 . S
C508 C506 1.378 . S
C508 C509 1.367 . S
C509 C508 1.367 . S
C509 C511 1.433 . S
C510 C506 1.350 . S
C510 C507 1.463 . S
C510 N514 1.427 . S
C511 H501 0.929 . S
C511 C509 1.433 . S
C511 N514 1.384 . S
C512 H503 0.929 . S
C512 C504 1.378 . S
C512 C507 1.350 . S
C513 H500 0.929 . S
C513 C505 1.433 . S
C513 N515 1.384 . S
N514 C510 1.427 . S
N514 C511 1.384 . S
N515 C507 1.427 . S
N515 C513 1.384 . S
H516 C522 0.930 . S
H517 C526 0.927 1_565 S
H518 C531 0.929 . S
H519 C529 0.929 . S
H520 C524 0.929 . S
H521 C530 0.929 . S
C522 H516 0.930 . S
C522 C523 1.367 . S
C522 C530 1.378 . S
C523 C522 1.367 . S
C523 C531 1.433 . S
C524 H520 0.929 . S
C524 C526 1.350 1_565 S
C524 C528 1.350 . S
C525 C528 1.463 . S
C525 C530 1.350 . S
C525 N533 1.427 . S
C526 H517 0.927 1_545 S
C526 C524 1.350 1_545 S
C526 C527 1.398 . S
C527 C526 1.398 . S
C527 C529 1.433 . S
C528 C524 1.350 . S
C528 C525 1.463 . S
C528 N532 1.427 1_565 S
C529 H519 0.929 . S
C529 C527 1.433 . S
C529 N532 1.384 . S
C530 H521 0.929 . S
C530 C522 1.378 . S
C530 C525 1.350 . S
C531 H518 0.929 . S
C531 C523 1.433 . S
C531 N533 1.384 . S
N532 C528 1.427 1_545 S
N532 C529 1.384 . S
N533 C525 1.427 . S
N533 C531 1.384 . S
H534 C540 0.930 . S
H535 C544 0.930 . S
H536 C549 0.929 . S
H537 C547 0.929 . S
H538 C542 0.929 . S
H539 C548 0.929 . S
C540 H534 0.930 . S
C540 C541 1.367 . S
C540 C548 1.378 . S
C541 C540 1.367 . S
C541 C549 1.433 . S
C542 H538 0.929 . S
C542 C544 1.378 . S
C542 C546 1.350 . S
C543 C546 1.463 . S
C543 C548 1.350 . S
C543 N551 1.427 . S
C544 H535 0.930 . S
C544 C542 1.378 . S
C544 C545 1.367 . S
C545 C544 1.367 . S
C545 C547 1.433 . S
C546 C542 1.350 . S
C546 C543 1.463 . S
C546 N550 1.427 . S
C547 H537 0.929 . S
C547 C545 1.433 . S
C547 N550 1.384 . S
C548 H539 0.929 . S
C548 C540 1.378 . S
C548 C543 1.350 . S
C549 H536 0.929 . S
C549 C541 1.433 . S
C549 N551 1.384 . S
N550 C546 1.427 . S
N550 C547 1.384 . S
N551 C543 1.427 . S
N551 C549 1.384 . S
H552 C558 0.930 . S
H553 C562 0.930 . S
H554 C567 0.929 . S
H555 C565 0.929 . S
H556 C560 0.929 . S
H557 C566 0.929 . S
C558 H552 0.930 . S
C558 C559 1.367 . S
C558 C566 1.378 1_554 S
C559 C558 1.367 . S
C559 C567 1.433 . S
C560 H556 0.929 . S
C560 C562 1.378 . S
C560 C564 1.350 . S
C561 C564 1.463 . S
C561 C566 1.350 . S
C561 N569 1.427 1_556 S
C562 H553 0.930 . S
C562 C560 1.378 . S
C562 C563 1.367 . S
C563 C562 1.367 . S
C563 C565 1.433 . S
C564 C560 1.350 . S
C564 C561 1.463 . S
C564 N568 1.427 . S
C565 H555 0.929 . S
C565 C563 1.433 . S
C565 N568 1.384 . S
C566 H557 0.929 . S
C566 C558 1.378 1_556 S
C566 C561 1.350 . S
C567 H554 0.929 . S
C567 C559 1.433 . S
C567 N569 1.384 . S
N568 C564 1.427 . S
N568 C565 1.384 . S
N569 C561 1.427 1_554 S
N569 C567 1.384 . S
H570 C576 0.930 . S
H571 C580 0.930 . S
H572 C585 0.928 1_556 S
H573 C583 0.929 . S
H574 C578 0.929 . S
H575 C584 0.929 . S
C576 H570 0.930 . S
C576 C577 1.367 . S
C576 C584 1.378 . S
C577 C576 1.367 . S
C577 C585 1.448 . S
C578 H574 0.929 . S
C578 C580 1.378 . S
C578 C582 1.350 . S
C579 C582 1.463 . S
C579 C584 1.350 1_556 S
C579 N587 1.427 . S
C580 H571 0.930 . S
C580 C578 1.378 . S
C580 C581 1.367 . S
C581 C580 1.367 . S
C581 C583 1.433 . S
C582 C578 1.350 . S
C582 C579 1.463 . S
C582 N586 1.427 . S
C583 H573 0.929 . S
C583 C581 1.433 . S
C583 N586 1.384 . S
C584 H575 0.929 . S
C584 C576 1.378 . S
C584 C579 1.350 1_554 S
C585 H572 0.928 1_554 S
C585 C577 1.448 . S
C585 N587 1.370 1_554 S
N586 C582 1.427 . S
N586 C583 1.384 . S
N587 C579 1.427 . S
N587 C585 1.370 1_556 S
H588 C594 0.930 . S
H589 C598 0.930 . S
H590 C603 0.929 . S
H591 C601 0.929 . S
H592 C596 0.929 . S
H593 C602 0.929 . S
C594 H588 0.930 . S
C594 C595 1.367 . S
C594 C602 1.378 . S
C595 C594 1.367 . S
C595 C603 1.433 . S
C596 H592 0.929 . S
C596 C598 1.378 . S
C596 C600 1.350 . S
C597 C600 1.463 . S
C597 C602 1.350 . S
C597 N605 1.427 . S
C598 H589 0.930 . S
C598 C596 1.378 . S
C598 C599 1.367 . S
C599 C598 1.367 . S
C599 C601 1.433 . S
C600 C596 1.350 . S
C600 C597 1.463 . S
C600 N604 1.427 . S
C601 H591 0.929 . S
C601 C599 1.433 . S
C601 N604 1.384 . S
C602 H593 0.929 . S
C602 C594 1.378 . S
C602 C597 1.350 . S
C603 H590 0.929 . S
C603 C595 1.433 . S
C603 N605 1.384 . S
N604 C600 1.427 . S
N604 C601 1.384 . S
N605 C597 1.427 . S
N605 C603 1.384 . S
H606 C612 0.930 . S
H607 C616 0.930 . S
H608 C621 0.929 . S
H609 C619 0.929 . S
H610 C614 0.929 . S
H611 C620 0.929 . S
C612 H606 0.930 . S
C612 C613 1.367 . S
C612 C620 1.378 . S
C613 C612 1.367 . S
C613 C621 1.433 . S
C614 H610 0.929 . S
C614 C616 1.378 . S
C614 C618 1.350 . S
C615 C618 1.463 . S
C615 C620 1.350 . S
C615 N623 1.427 . S
C616 H607 0.930 . S
C616 C614 1.378 . S
C616 C617 1.367 . S
C617 C616 1.367 . S
C617 C619 1.433 . S
C618 C614 1.350 . S
C618 C615 1.463 . S
C618 N622 1.427 . S
C619 H609 0.929 . S
C619 C617 1.433 . S
C619 N622 1.384 . S
C620 H611 0.929 . S
C620 C612 1.378 . S
C620 C615 1.350 . S
C621 H608 0.929 . S
C621 C613 1.433 . S
C621 N623 1.384 . S
N622 C618 1.427 . S
N622 C619 1.384 . S
N623 C615 1.427 . S
N623 C621 1.384 . S
H624 C630 0.930 . S
H625 C634 0.930 . S
H626 C639 0.929 . S
H627 C637 0.929 . S
H628 C632 0.929 . S
H629 C638 0.929 . S
C630 H624 0.930 . S
C630 C631 1.367 . S
C630 C638 1.378 1_455 S
C631 C630 1.367 . S
C631 C639 1.433 . S
C632 H628 0.929 . S
C632 C634 1.378 . S
C632 C636 1.350 . S
C633 C636 1.463 . S
C633 C638 1.350 . S
C633 N641 1.420 1_655 S
C634 H625 0.930 . S
C634 C632 1.378 . S
C634 C635 1.367 . S
C635 C634 1.367 . S
C635 C637 1.433 . S
C636 C632 1.350 . S
C636 C633 1.463 . S
C636 N640 1.427 . S
C637 H627 0.929 . S
C637 C635 1.433 . S
C637 N640 1.384 . S
C638 H629 0.929 . S
C638 C630 1.378 1_655 S
C638 C633 1.350 . S
C639 H626 0.929 . S
C639 C631 1.433 . S
C639 N641 1.395 . S
N640 C636 1.427 . S
N640 C637 1.384 . S
N641 C633 1.420 1_455 S
N641 C639 1.395 . S
H642 C648 0.930 . S
H643 C652 0.930 . S
H644 C657 0.929 . S
H645 C655 0.929 . S
H646 C650 0.929 . S
H647 C656 0.929 . S
C648 H642 0.930 . S
C648 C649 1.367 . S
C648 C656 1.378 1_655 S
C649 C648 1.367 . S
C649 C657 1.433 . S
C650 H646 0.929 . S
C650 C652 1.378 . S
C650 C654 1.350 . S
C651 C654 1.463 . S
C651 C656 1.350 . S
C651 N659 1.427 1_455 S
C652 H643 0.930 . S
C652 C650 1.378 . S
C652 C653 1.367 . S
C653 C652 1.367 . S
C653 C655 1.433 . S
C654 C650 1.350 . S
C654 C651 1.463 . S
C654 N658 1.427 . S
C655 H645 0.929 . S
C655 C653 1.433 . S
C655 N658 1.384 . S
C656 H647 0.929 . S
C656 C648 1.378 1_455 S
C656 C651 1.350 . S
C657 H644 0.929 . S
C657 C649 1.433 . S
C657 N659 1.384 . S
N658 C654 1.427 . S
N658 C655 1.384 . S
N659 C651 1.427 1_655 S
N659 C657 1.384 . S
H660 C666 0.930 . S
H661 C670 0.930 . S
H662 C675 0.929 . S
H663 C673 0.929 . S
H664 C668 0.929 . S
H665 C674 0.929 . S
C666 H660 0.930 . S
C666 C667 1.367 . S
C666 C674 1.378 1_455 S
C667 C666 1.367 . S
C667 C675 1.433 . S
C668 H664 0.929 . S
C668 C670 1.378 . S
C668 C672 1.350 . S
C669 C672 1.463 . S
C669 C674 1.350 . S
C669 N677 1.427 1_655 S
C670 H661 0.930 . S
C670 C668 1.378 . S
C670 C671 1.367 . S
C671 C670 1.367 . S
C671 C673 1.433 . S
C672 C668 1.350 . S
C672 C669 1.463 . S
C672 N676 1.427 . S
C673 H663 0.929 . S
C673 C671 1.433 . S
C673 N676 1.384 . S
C674 H665 0.929 . S
C674 C666 1.378 1_655 S
C674 C669 1.350 . S
C675 H662 0.929 . S
C675 C667 1.433 . S
C675 N677 1.384 . S
N676 C672 1.427 . S
N676 C673 1.384 . S
N677 C669 1.427 1_455 S
N677 C675 1.384 . S
H678 C684 0.930 . S
H679 C688 0.930 . S
H680 C693 0.929 . S
H681 C691 0.929 . S
H682 C686 0.929 . S
H683 C692 0.929 . S
C684 H678 0.930 . S
C684 C685 1.367 . S
C684 C692 1.378 . S
C685 C684 1.367 . S
C685 C693 1.433 . S
C686 H682 0.929 . S
C686 C688 1.378 1_455 S
C686 C690 1.350 . S
C687 C690 1.463 . S
C687 C692 1.350 . S
C687 N695 1.427 . S
C688 H679 0.930 . S
C688 C686 1.378 1_655 S
C688 C689 1.367 . S
C689 C688 1.367 . S
C689 C691 1.433 . S
C690 C686 1.350 . S
C690 C687 1.463 . S
C690 N694 1.427 . S
C691 H681 0.929 . S
C691 C689 1.433 . S
C691 N694 1.384 1_655 S
C692 H683 0.929 . S
C692 C684 1.378 . S
C692 C687 1.350 . S
C693 H680 0.929 . S
C693 C685 1.433 . S
C693 N695 1.384 . S
N694 C690 1.427 . S
N694 C691 1.384 1_455 S
N695 C687 1.427 . S
N695 C693 1.384 . S
H696 C702 0.930 . S
H697 C706 0.930 . S
H698 C711 0.929 . S
H699 C709 0.929 . S
H700 C704 0.929 . S
H701 C710 0.929 . S
C702 H696 0.930 . S
C702 C703 1.367 . S
C702 C710 1.378 . S
C703 C702 1.367 . S
C703 C711 1.433 . S
C704 H700 0.929 . S
C704 C706 1.378 . S
C704 C708 1.350 . S
C705 C708 1.463 . S
C705 C710 1.350 1_565 S
C705 N713 1.427 . S
C706 H697 0.930 . S
C706 C704 1.378 . S
C706 C707 1.367 . S
C707 C706 1.367 . S
C707 C709 1.433 . S
C708 C704 1.350 . S
C708 C705 1.463 . S
C708 N712 1.427 . S
C709 H699 0.929 . S
C709 C707 1.433 . S
C709 N712 1.384 . S
C710 H701 0.929 . S
C710 C702 1.378 . S
C710 C705 1.350 1_545 S
C711 H698 0.929 . S
C711 C703 1.433 . S
C711 N713 1.384 1_545 S
N712 C708 1.427 . S
N712 C709 1.384 . S
N713 C705 1.427 . S
N713 C711 1.384 1_565 S
H714 C720 0.930 . S
H715 C724 0.930 . S
H716 C729 0.929 . S
H717 C727 0.929 . S
H718 C722 0.929 . S
H719 C728 0.929 . S
C720 H714 0.930 . S
C720 C721 1.367 . S
C720 C728 1.378 . S
C721 C720 1.367 . S
C721 C729 1.433 . S
C722 H718 0.929 . S
C722 C724 1.378 1_545 S
C722 C726 1.350 . S
C723 C726 1.463 . S
C723 C728 1.350 . S
C723 N731 1.427 . S
C724 H715 0.930 . S
C724 C722 1.378 1_565 S
C724 C725 1.367 . S
C725 C724 1.367 . S
C725 C727 1.433 . S
C726 C722 1.350 . S
C726 C723 1.463 . S
C726 N730 1.427 1_545 S
C727 H717 0.929 . S
C727 C725 1.433 . S
C727 N730 1.384 . S
C728 H719 0.929 . S
C728 C720 1.378 . S
C728 C723 1.350 . S
C729 H716 0.929 . S
C729 C721 1.433 . S
C729 N731 1.384 . S
N730 C726 1.427 1_565 S
N730 C727 1.384 . S
N731 C723 1.427 . S
N731 C729 1.384 . S
H732 C738 0.930 . S
H733 C742 0.930 . S
H734 C747 0.929 . S
H735 C745 0.929 . S
H736 C740 0.929 . S
H737 C746 0.929 . S
C738 H732 0.930 . S
C738 C739 1.367 . S
C738 C746 1.378 . S
C739 C738 1.367 . S
C739 C747 1.433 . S
C740 H736 0.929 . S
C740 C742 1.378 . S
C740 C744 1.350 . S
C741 C744 1.463 . S
C741 C746 1.350 . S
C741 N749 1.427 . S
C742 H733 0.930 . S
C742 C740 1.378 . S
C742 C743 1.367 . S
C743 C742 1.367 . S
C743 C745 1.433 . S
C744 C740 1.350 . S
C744 C741 1.463 . S
C744 N748 1.427 . S
C745 H735 0.929 . S
C745 C743 1.433 . S
C745 N748 1.384 . S
C746 H737 0.929 . S
C746 C738 1.378 . S
C746 C741 1.350 . S
C747 H734 0.929 . S
C747 C739 1.433 . S
C747 N749 1.384 . S
N748 C744 1.427 . S
N748 C745 1.384 . S
N749 C741 1.427 . S
N749 C747 1.384 . S
H750 C756 0.930 . S
H751 C760 0.930 . S
H752 C765 0.929 . S
H753 C763 0.929 . S
H754 C758 0.929 . S
H755 C764 0.929 . S
C756 H750 0.930 . S
C756 C757 1.367 . S
C756 C764 1.378 . S
C757 C756 1.367 . S
C757 C765 1.433 . S
C758 H754 0.929 . S
C758 C760 1.378 1_545 S
C758 C762 1.350 . S
C759 C762 1.463 . S
C759 C764 1.350 . S
C759 N767 1.427 . S
C760 H751 0.930 . S
C760 C758 1.378 1_565 S
C760 C761 1.367 . S
C761 C760 1.367 . S
C761 C763 1.433 . S
C762 C758 1.350 . S
C762 C759 1.463 . S
C762 N766 1.406 1_545 S
C763 H753 0.929 . S
C763 C761 1.433 . S
C763 N766 1.414 . S
C764 H755 0.929 . S
C764 C756 1.378 . S
C764 C759 1.350 . S
C765 H752 0.929 . S
C765 C757 1.433 . S
C765 N767 1.384 . S
N766 C762 1.406 1_565 S
N766 C763 1.414 . S
N767 C759 1.427 . S
N767 C765 1.384 . S
H768 C774 0.930 . S
H769 C778 0.930 . S
H770 C783 0.929 . S
H771 C781 0.929 . S
H772 C776 0.929 . S
H773 C782 0.929 . S
C774 H768 0.930 . S
C774 C775 1.367 1_455 S
C774 C782 1.378 . S
C775 C774 1.367 1_655 S
C775 C783 1.433 . S
C776 H772 0.929 . S
C776 C778 1.378 . S
C776 C780 1.350 1_655 S
C777 C780 1.463 . S
C777 C782 1.360 . S
C777 N785 1.416 1_455 S
C778 H769 0.930 . S
C778 C776 1.378 . S
C778 C779 1.367 1_655 S
C779 C778 1.367 1_455 S
C779 C781 1.433 . S
C780 C776 1.350 1_455 S
C780 C777 1.463 . S
C780 N784 1.427 . S
C781 H771 0.929 . S
C781 C779 1.433 . S
C781 N784 1.384 . S
C782 H773 0.929 . S
C782 C774 1.378 . S
C782 C777 1.360 . S
C783 H770 0.929 . S
C783 C775 1.433 . S
C783 N785 1.384 . S
N784 C780 1.427 . S
N784 C781 1.384 . S
N785 C777 1.416 1_655 S
N785 C783 1.384 . S
H786 C792 0.930 . S
H787 C796 0.930 . S
H788 C801 0.929 . S
H789 C799 0.929 . S
H790 C794 0.929 . S
H791 C800 0.929 . S
C792 H786 0.930 . S
C792 C793 1.367 . S
C792 C800 1.378 . S
C793 C792 1.367 . S
C793 C801 1.433 1_455 S
C794 H790 0.929 . S
C794 C796 1.378 . S
C794 C798 1.367 . S
C795 C798 1.459 1_455 S
C795 C800 1.350 . S
C795 N803 1.427 1_455 S
C796 H787 0.930 . S
C796 C794 1.378 . S
C796 C797 1.367 . S
C797 C796 1.367 . S
C797 C799 1.433 1_655 S
C798 C794 1.367 . S
C798 C795 1.459 1_655 S
C798 N802 1.414 1_655 S
C799 H789 0.929 . S
C799 C797 1.433 1_455 S
C799 N802 1.384 . S
C800 H791 0.929 . S
C800 C792 1.378 . S
C800 C795 1.350 . S
C801 H788 0.929 . S
C801 C793 1.433 1_655 S
C801 N803 1.384 . S
N802 C798 1.414 1_455 S
N802 C799 1.384 . S
N803 C795 1.427 1_655 S
N803 C801 1.384 . S
H804 C810 0.930 . S
H805 C814 0.930 . S
H806 C819 0.929 . S
H807 C817 0.929 . S
H808 C812 0.929 . S
H809 C818 0.929 . S
C810 H804 0.930 . S
C810 C811 1.367 1_545 S
C810 C818 1.378 . S
C811 C810 1.367 1_565 S
C811 C819 1.433 . S
C812 H808 0.929 . S
C812 C814 1.378 . S
C812 C816 1.350 1_565 S
C813 C816 1.463 . S
C813 C818 1.366 . S
C813 N821 1.409 1_545 S
C814 H805 0.930 . S
C814 C812 1.378 . S
C814 C815 1.367 1_565 S
C815 C814 1.367 1_545 S
C815 C817 1.433 . S
C816 C812 1.350 1_545 S
C816 C813 1.463 . S
C816 N820 1.427 . S
C817 H807 0.929 . S
C817 C815 1.433 . S
C817 N820 1.384 . S
C818 H809 0.929 . S
C818 C810 1.378 . S
C818 C813 1.366 . S
C819 H806 0.929 . S
C819 C811 1.433 . S
C819 N821 1.384 . S
N820 C816 1.427 . S
N820 C817 1.384 . S
N821 C813 1.409 1_565 S
N821 C819 1.384 . S
H822 C828 0.930 . S
H823 C832 0.930 . S
H824 C837 0.929 . S
H825 C835 0.929 . S
H826 C830 0.929 . S
H827 C836 0.929 . S
C828 H822 0.930 . S
C828 C829 1.367 . S
C828 C836 1.378 . S
C829 C828 1.367 . S
C829 C837 1.433 . S
C830 H826 0.929 . S
C830 C832 1.378 . S
C830 C834 1.350 . S
C831 C834 1.463 . S
C831 C836 1.350 . S
C831 N839 1.427 . S
C832 H823 0.930 . S
C832 C830 1.378 . S
C832 C833 1.367 . S
C833 C832 1.367 . S
C833 C835 1.433 . S
C834 C830 1.350 . S
C834 C831 1.463 . S
C834 N838 1.427 . S
C835 H825 0.929 . S
C835 C833 1.433 . S
C835 N838 1.384 . S
C836 H827 0.929 . S
C836 C828 1.378 . S
C836 C831 1.350 . S
C837 H824 0.929 . S
C837 C829 1.433 . S
C837 N839 1.384 . S
N838 C834 1.427 . S
N838 C835 1.384 . S
N839 C831 1.427 . S
N839 C837 1.384 . S
H840 C846 0.930 . S
H841 C850 0.930 . S
H842 C855 0.929 . S
H843 C853 0.929 . S
H844 C848 0.929 . S
H845 C854 0.929 . S
C846 H840 0.930 . S
C846 C847 1.367 . S
C846 C854 1.378 . S
C847 C846 1.367 . S
C847 C855 1.433 1_554 S
C848 H844 0.929 . S
C848 C850 1.378 . S
C848 C852 1.357 . S
C849 C852 1.461 1_554 S
C849 C854 1.350 . S
C849 N857 1.427 1_554 S
C850 H841 0.930 . S
C850 C848 1.378 . S
C850 C851 1.367 . S
C851 C850 1.367 . S
C851 C853 1.433 1_556 S
C852 C848 1.357 . S
C852 C849 1.461 1_556 S
C852 N856 1.422 1_556 S
C853 H843 0.929 . S
C853 C851 1.433 1_554 S
C853 N856 1.384 . S
C854 H845 0.929 . S
C854 C846 1.378 . S
C854 C849 1.350 . S
C855 H842 0.929 . S
C855 C847 1.433 1_556 S
C855 N857 1.384 . S
N856 C852 1.422 1_554 S
N856 C853 1.384 . S
N857 C849 1.427 1_556 S
N857 C855 1.384 . S
H858 C864 0.930 . S
H859 C868 0.930 . S
H860 C873 0.929 . S
H861 C871 0.929 . S
H862 C866 0.929 . S
H863 C872 0.929 . S
C864 H858 0.930 . S
C864 C865 1.367 . S
C864 C872 1.378 . S
C865 C864 1.367 . S
C865 C873 1.433 . S
C866 H862 0.929 . S
C866 C868 1.378 . S
C866 C870 1.350 . S
C867 C870 1.463 . S
C867 C872 1.350 . S
C867 N875 1.427 . S
C868 H859 0.930 . S
C868 C866 1.378 . S
C868 C869 1.367 . S
C869 C868 1.367 . S
C869 C871 1.433 . S
C870 C866 1.350 . S
C870 C867 1.463 . S
C870 N874 1.427 . S
C871 H861 0.929 . S
C871 C869 1.433 . S
C871 N874 1.384 . S
C872 H863 0.929 . S
C872 C864 1.378 . S
C872 C867 1.350 . S
C873 H860 0.929 . S
C873 C865 1.433 . S
C873 N875 1.384 . S
N874 C870 1.427 . S
N874 C871 1.384 . S
N875 C867 1.427 . S
N875 C873 1.384 . S
H876 C882 0.930 . S
H877 C886 0.930 . S
H878 C891 0.929 . S
H879 C889 0.929 . S
H880 C884 0.929 . S
H881 C890 0.929 . S
C882 H876 0.930 . S
C882 C883 1.367 . S
C882 C890 1.378 . S
C883 C882 1.367 . S
C883 C891 1.433 . S
C884 H880 0.929 . S
C884 C886 1.378 . S
C884 C888 1.350 . S
C885 C888 1.463 . S
C885 C890 1.350 . S
C885 N893 1.427 . S
C886 H877 0.930 . S
C886 C884 1.378 . S
C886 C887 1.367 . S
C887 C886 1.367 . S
C887 C889 1.433 . S
C888 C884 1.350 . S
C888 C885 1.463 . S
C888 N892 1.427 . S
C889 H879 0.929 . S
C889 C887 1.433 . S
C889 N892 1.384 . S
C890 H881 0.929 . S
C890 C882 1.378 . S
C890 C885 1.350 . S
C891 H878 0.929 . S
C891 C883 1.433 . S
C891 N893 1.384 . S
N892 C888 1.427 . S
N892 C889 1.384 . S
N893 C885 1.427 . S
N893 C891 1.384 . S
H894 C900 0.930 . S
H895 C904 0.930 . S
H896 C909 0.929 . S
H897 C907 0.929 . S
H898 C902 0.929 . S
H899 C908 0.929 . S
C900 H894 0.930 . S
C900 C901 1.367 . S
C900 C908 1.378 . S
C901 C900 1.367 . S
C901 C909 1.433 . S
C902 H898 0.929 . S
C902 C904 1.378 . S
C902 C906 1.350 . S
C903 C906 1.463 . S
C903 C908 1.350 . S
C903 N911 1.427 . S
C904 H895 0.930 . S
C904 C902 1.378 . S
C904 C905 1.367 . S
C905 C904 1.367 . S
C905 C907 1.433 . S
C906 C902 1.350 . S
C906 C903 1.463 . S
C906 N910 1.427 . S
C907 H897 0.929 . S
C907 C905 1.433 . S
C907 N910 1.384 . S
C908 H899 0.929 . S
C908 C900 1.378 . S
C908 C903 1.350 . S
C909 H896 0.929 . S
C909 C901 1.433 . S
C909 N911 1.384 . S
N910 C906 1.427 . S
N910 C907 1.384 . S
N911 C903 1.427 . S
N911 C909 1.384 . S
H912 C918 0.930 . S
H913 C922 0.930 . S
H914 C927 0.929 . S
H915 C925 0.929 . S
H916 C920 0.929 . S
H917 C926 0.929 . S
C918 H912 0.930 . S
C918 C919 1.367 . S
C918 C926 1.378 . S
C919 C918 1.367 . S
C919 C927 1.433 . S
C920 H916 0.929 . S
C920 C922 1.378 . S
C920 C924 1.350 . S
C921 C924 1.463 . S
C921 C926 1.350 . S
C921 N929 1.427 . S
C922 H913 0.930 . S
C922 C920 1.378 . S
C922 C923 1.367 . S
C923 C922 1.367 . S
C923 C925 1.433 . S
C924 C920 1.350 . S
C924 C921 1.463 . S
C924 N928 1.427 . S
C925 H915 0.929 . S
C925 C923 1.433 . S
C925 N928 1.384 . S
C926 H917 0.929 . S
C926 C918 1.378 . S
C926 C921 1.350 . S
C927 H914 0.929 . S
C927 C919 1.433 . S
C927 N929 1.384 . S
N928 C924 1.427 . S
N928 C925 1.384 . S
N929 C921 1.427 . S
N929 C927 1.384 . S
H930 C936 0.930 . S
H931 C940 0.930 . S
H932 C945 0.929 . S
H933 C943 0.929 . S
H934 C938 0.929 . S
H935 C944 0.929 . S
C936 H930 0.930 . S
C936 C937 1.367 . S
C936 C944 1.378 . S
C937 C936 1.367 . S
C937 C945 1.433 . S
C938 H934 0.929 . S
C938 C940 1.378 . S
C938 C942 1.350 . S
C939 C942 1.463 . S
C939 C944 1.350 . S
C939 N947 1.427 . S
C940 H931 0.930 . S
C940 C938 1.378 . S
C940 C941 1.367 . S
C941 C940 1.367 . S
C941 C943 1.433 . S
C942 C938 1.350 . S
C942 C939 1.463 . S
C942 N946 1.427 . S
C943 H933 0.929 . S
C943 C941 1.433 . S
C943 N946 1.384 . S
C944 H935 0.929 . S
C944 C936 1.378 . S
C944 C939 1.350 . S
C945 H932 0.929 . S
C945 C937 1.433 . S
C945 N947 1.384 . S
N946 C942 1.427 . S
N946 C943 1.384 . S
N947 C939 1.427 . S
N947 C945 1.384 . S
H948 C954 0.930 . S
H949 C958 0.930 . S
H950 C963 0.929 . S
H951 C961 0.929 . S
H952 C956 0.929 . S
H953 C962 0.929 . S
C954 H948 0.930 . S
C954 C955 1.367 . S
C954 C962 1.378 . S
C955 C954 1.367 . S
C955 C963 1.433 1_545 S
C956 H952 0.929 . S
C956 C958 1.378 . S
C956 C960 1.350 . S
C957 C960 1.463 1_545 S
C957 C962 1.350 . S
C957 N965 1.427 1_545 S
C958 H949 0.930 . S
C958 C956 1.378 . S
C958 C959 1.367 . S
C959 C958 1.367 . S
C959 C961 1.433 1_565 S
C960 C956 1.350 . S
C960 C957 1.463 1_565 S
C960 N964 1.427 1_565 S
C961 H951 0.929 . S
C961 C959 1.433 1_545 S
C961 N964 1.384 . S
C962 H953 0.929 . S
C962 C954 1.378 . S
C962 C957 1.350 . S
C963 H950 0.929 . S
C963 C955 1.433 1_565 S
C963 N965 1.384 . S
N964 C960 1.427 1_545 S
N964 C961 1.384 . S
N965 C957 1.427 1_565 S
N965 C963 1.384 . S
H966 C972 0.930 . S
H967 C976 0.930 . S
H968 C981 0.929 . S
H969 C979 0.929 . S
H970 C974 0.929 . S
H971 C980 0.929 . S
C972 H966 0.930 . S
C972 C973 1.367 . S
C972 C980 1.378 . S
C973 C972 1.367 . S
C973 C981 1.433 1_556 S
C974 H970 0.929 . S
C974 C976 1.378 . S
C974 C978 1.350 . S
C975 C978 1.458 1_556 S
C975 C980 1.378 . S
C975 N983 1.403 1_556 S
C976 H967 0.930 . S
C976 C974 1.378 . S
C976 C977 1.367 . S
C977 C976 1.367 . S
C977 C979 1.433 1_554 S
C978 C974 1.350 . S
C978 C975 1.458 1_554 S
C978 N982 1.427 1_554 S
C979 H969 0.929 . S
C979 C977 1.433 1_556 S
C979 N982 1.384 . S
C980 H971 0.929 . S
C980 C972 1.378 . S
C980 C975 1.378 . S
C981 H968 0.929 . S
C981 C973 1.433 1_554 S
C981 N983 1.384 . S
N982 C978 1.427 1_556 S
N982 C979 1.384 . S
N983 C975 1.403 1_554 S
N983 C981 1.384 . S
H984 C990 0.930 . S
H985 C994 0.930 . S
H986 C999 0.929 . S
H987 C997 0.929 . S
H988 C992 0.929 1_565 S
H989 C998 0.929 1_545 S
C990 H984 0.930 . S
C990 C991 1.367 1_655 S
C990 C998 1.378 . S
C991 C990 1.367 1_455 S
C991 C999 1.433 . S
C992 H988 0.929 1_545 S
C992 C994 1.378 . S
C992 C996 1.350 . S
C993 C996 1.463 1_565 S
C993 C998 1.350 1_455 S
C993 N1001 1.427 . S
C994 H985 0.930 . S
C994 C992 1.378 . S
C994 C995 1.387 . S
C995 C994 1.387 . S
C995 C997 1.414 1_455 S
C996 C992 1.350 . S
C996 C993 1.463 1_545 S
C996 N1000 1.427 1_455 S
C997 H987 0.929 . S
C997 C995 1.414 1_655 S
C997 N1000 1.384 . S
C998 H989 0.929 1_565 S
C998 C990 1.378 . S
C998 C993 1.350 1_655 S
C999 H986 0.929 . S
C999 C991 1.433 . S
C999 N1001 1.384 . S
N1000 C996 1.427 1_655 S
N1000 C997 1.384 . S
N1001 C993 1.427 . S
N1001 C999 1.384 . S
H1002 C1008 0.930 . S
H1003 C1012 0.930 . S
H1004 C1017 0.929 . S
H1005 C1015 0.929 . S
H1006 C1010 0.929 . S
H1007 C1016 0.929 . S
C1008 H1002 0.930 . S
C1008 C1009 1.367 1_455 S
C1008 C1016 1.378 . S
C1009 C1008 1.367 1_655 S
C1009 C1017 1.433 . S
C1010 H1006 0.929 . S
C1010 C1012 1.378 . S
C1010 C1014 1.350 . S
C1011 C1014 1.463 . S
C1011 C1016 1.350 1_655 S
C1011 N1019 1.427 . S
C1012 H1003 0.930 . S
C1012 C1010 1.378 . S
C1012 C1013 1.367 . S
C1013 C1012 1.367 . S
C1013 C1015 1.433 1_655 S
C1014 C1010 1.350 . S
C1014 C1011 1.463 . S
C1014 N1018 1.427 1_655 S
C1015 H1005 0.929 . S
C1015 C1013 1.433 1_455 S
C1015 N1018 1.384 . S
C1016 H1007 0.929 . S
C1016 C1008 1.378 . S
C1016 C1011 1.350 1_455 S
C1017 H1004 0.929 . S
C1017 C1009 1.433 . S
C1017 N1019 1.384 . S
N1018 C1014 1.427 1_455 S
N1018 C1015 1.384 . S
N1019 C1011 1.427 . S
N1019 C1017 1.384 . S
H1020 C1026 0.930 . S
H1021 C1030 0.930 . S
H1022 C1035 0.929 . S
H1023 C1033 0.929 . S
H1024 C1028 0.929 . S
H1025 C1034 0.929 . S
C1026 H1020 0.930 . S
C1026 C1027 1.367 1_565 S
C1026 C1034 1.378 . S
C1027 C1026 1.367 1_545 S
C1027 C1035 1.433 . S
C1028 H1024 0.929 . S
C1028 C1030 1.378 . S
C1028 C1032 1.350 . S
C1029 C1032 1.463 1_556 S
C1029 C1034 1.350 1_545 S
C1029 N1037 1.427 . S
C1030 H1021 0.930 . S
C1030 C1028 1.378 . S
C1030 C1031 1.367 . S
C1031 C1030 1.367 . S
C1031 C1033 1.433 1_545 S
C1032 C1028 1.350 . S
C1032 C1029 1.463 1_554 S
C1032 N1036 1.427 1_545 S
C1033 H1023 0.929 . S
C1033 C1031 1.433 1_565 S
C1033 N1036 1.384 . S
C1034 H1025 0.929 . S
C1034 C1026 1.378 . S
C1034 C1029 1.350 1_565 S
C1035 H1022 0.929 . S
C1035 C1027 1.433 . S
C1035 N1037 1.384 . S
N1036 C1032 1.427 1_565 S
N1036 C1033 1.384 . S
N1037 C1029 1.427 . S
N1037 C1035 1.384 . S
H1038 C1044 0.930 . S
H1039 C1048 0.930 . S
H1040 C1053 0.929 . S
H1041 C1051 0.929 . S
H1042 C1046 0.929 . S
H1043 C1052 0.929 . S
C1044 H1038 0.930 . S
C1044 C1045 1.367 . S
C1044 C1052 1.378 . S
C1045 C1044 1.367 . S
C1045 C1053 1.433 . S
C1046 H1042 0.929 . S
C1046 C1048 1.378 . S
C1046 C1050 1.350 . S
C1047 C1050 1.463 1_554 S
C1047 C1052 1.350 . S
C1047 N1055 1.427 . S
C1048 H1039 0.930 . S
C1048 C1046 1.378 . S
C1048 C1049 1.367 . S
C1049 C1048 1.367 . S
C1049 C1051 1.433 . S
C1050 C1046 1.350 . S
C1050 C1047 1.463 1_556 S
C1050 N1054 1.427 . S
C1051 H1041 0.929 . S
C1051 C1049 1.433 . S
C1051 N1054 1.384 . S
C1052 H1043 0.929 . S
C1052 C1044 1.378 . S
C1052 C1047 1.350 . S
C1053 H1040 0.929 . S
C1053 C1045 1.433 . S
C1053 N1055 1.384 . S
N1054 C1050 1.427 . S
N1054 C1051 1.384 . S
N1055 C1047 1.427 . S
N1055 C1053 1.384 . S
H1056 C1062 0.930 . S
H1057 C1066 0.930 . S
H1058 C1071 0.929 . S
H1059 C1069 0.929 . S
H1060 C1064 0.929 . S
H1061 C1070 0.929 . S
C1062 H1056 0.930 . S
C1062 C1063 1.367 . S
C1062 C1070 1.378 . S
C1063 C1062 1.367 . S
C1063 C1071 1.433 1_565 S
C1064 H1060 0.929 . S
C1064 C1066 1.378 . S
C1064 C1068 1.350 1_545 S
C1065 C1068 1.463 . S
C1065 C1070 1.350 . S
C1065 N1073 1.427 1_565 S
C1066 H1057 0.930 . S
C1066 C1064 1.378 . S
C1066 C1067 1.367 1_545 S
C1067 C1066 1.367 1_565 S
C1067 C1069 1.433 . S
C1068 C1064 1.350 1_565 S
C1068 C1065 1.463 . S
C1068 N1072 1.427 . S
C1069 H1059 0.929 . S
C1069 C1067 1.433 . S
C1069 N1072 1.384 . S
C1070 H1061 0.929 . S
C1070 C1062 1.378 . S
C1070 C1065 1.350 . S
C1071 H1058 0.929 . S
C1071 C1063 1.433 1_545 S
C1071 N1073 1.384 . S
N1072 C1068 1.427 . S
N1072 C1069 1.384 . S
N1073 C1065 1.427 1_545 S
N1073 C1071 1.384 . S
H1074 C1080 0.930 . S
H1075 C1084 0.930 . S
H1076 C1089 0.929 . S
H1077 C1087 0.929 . S
H1078 C1082 0.929 . S
H1079 C1088 0.929 . S
C1080 H1074 0.930 . S
C1080 C1081 1.367 . S
C1080 C1088 1.378 . S
C1081 C1080 1.367 . S
C1081 C1089 1.433 . S
C1082 H1078 0.929 . S
C1082 C1084 1.378 . S
C1082 C1086 1.350 . S
C1083 C1086 1.463 . S
C1083 C1088 1.350 . S
C1083 N1091 1.427 . S
C1084 H1075 0.930 . S
C1084 C1082 1.378 . S
C1084 C1085 1.367 . S
C1085 C1084 1.367 . S
C1085 C1087 1.433 . S
C1086 C1082 1.350 . S
C1086 C1083 1.463 . S
C1086 N1090 1.427 . S
C1087 H1077 0.929 . S
C1087 C1085 1.433 . S
C1087 N1090 1.384 . S
C1088 H1079 0.929 . S
C1088 C1080 1.378 . S
C1088 C1083 1.350 . S
C1089 H1076 0.929 . S
C1089 C1081 1.433 . S
C1089 N1091 1.384 . S
N1090 C1086 1.427 . S
N1090 C1087 1.384 . S
N1091 C1083 1.427 . S
N1091 C1089 1.384 . S
H1092 C1098 0.930 . S
H1093 C1102 0.930 . S
H1094 C1107 0.929 . S
H1095 C1105 0.929 . S
H1096 C1100 0.929 . S
H1097 C1106 0.929 . S
C1098 H1092 0.930 . S
C1098 C1099 1.367 1_556 S
C1098 C1106 1.378 . S
C1099 C1098 1.367 1_554 S
C1099 C1107 1.433 . S
C1100 H1096 0.929 . S
C1100 C1102 1.378 . S
C1100 C1104 1.350 . S
C1101 C1104 1.464 1_455 S
C1101 C1106 1.330 1_554 S
C1101 N1109 1.447 . S
C1102 H1093 0.930 . S
C1102 C1100 1.378 . S
C1102 C1103 1.367 . S
C1103 C1102 1.367 . S
C1103 C1105 1.433 1_554 S
C1104 C1100 1.350 . S
C1104 C1101 1.464 1_655 S
C1104 N1108 1.427 1_554 S
C1105 H1095 0.929 . S
C1105 C1103 1.433 1_556 S
C1105 N1108 1.384 . S
C1106 H1097 0.929 . S
C1106 C1098 1.378 . S
C1106 C1101 1.330 1_556 S
C1107 H1094 0.929 . S
C1107 C1099 1.433 . S
C1107 N1109 1.384 . S
N1108 C1104 1.427 1_556 S
N1108 C1105 1.384 . S
N1109 C1101 1.447 . S
N1109 C1107 1.384 . S
H1110 C1116 0.930 . S
H1111 C1120 0.930 . S
H1112 C1125 0.929 . S
H1113 C1123 0.929 . S
H1114 C1118 0.929 . S
H1115 C1124 0.929 . S
C1116 H1110 0.930 . S
C1116 C1117 1.367 . S
C1116 C1124 1.378 . S
C1117 C1116 1.367 . S
C1117 C1125 1.433 . S
C1118 H1114 0.929 . S
C1118 C1120 1.378 . S
C1118 C1122 1.350 . S
C1119 C1122 1.463 1_455 S
C1119 C1124 1.350 . S
C1119 N1127 1.427 . S
C1120 H1111 0.930 . S
C1120 C1118 1.378 . S
C1120 C1121 1.367 . S
C1121 C1120 1.367 . S
C1121 C1123 1.433 . S
C1122 C1118 1.350 . S
C1122 C1119 1.463 1_655 S
C1122 N1126 1.427 . S
C1123 H1113 0.929 . S
C1123 C1121 1.433 . S
C1123 N1126 1.384 . S
C1124 H1115 0.929 . S
C1124 C1116 1.378 . S
C1124 C1119 1.350 . S
C1125 H1112 0.929 . S
C1125 C1117 1.433 . S
C1125 N1127 1.384 . S
N1126 C1122 1.427 . S
N1126 C1123 1.384 . S
N1127 C1119 1.427 . S
N1127 C1125 1.384 . S
H1128 C1134 0.930 . S
H1129 C1138 0.930 . S
H1130 C1143 0.929 . S
H1131 C1141 0.929 . S
H1132 C1136 0.929 . S
H1133 C1142 0.929 . S
C1134 H1128 0.930 . S
C1134 C1135 1.367 . S
C1134 C1142 1.378 . S
C1135 C1134 1.367 . S
C1135 C1143 1.433 . S
C1136 H1132 0.929 . S
C1136 C1138 1.378 . S
C1136 C1140 1.350 . S
C1137 C1140 1.463 . S
C1137 C1142 1.350 . S
C1137 N1145 1.427 . S
C1138 H1129 0.930 . S
C1138 C1136 1.378 . S
C1138 C1139 1.367 . S
C1139 C1138 1.367 . S
C1139 C1141 1.433 . S
C1140 C1136 1.350 . S
C1140 C1137 1.463 . S
C1140 N1144 1.427 . S
C1141 H1131 0.929 . S
C1141 C1139 1.433 . S
C1141 N1144 1.384 . S
C1142 H1133 0.929 . S
C1142 C1134 1.378 . S
C1142 C1137 1.350 . S
C1143 H1130 0.929 . S
C1143 C1135 1.433 . S
C1143 N1145 1.384 . S
N1144 C1140 1.427 . S
N1144 C1141 1.384 . S
N1145 C1137 1.427 . S
N1145 C1143 1.384 . S
H1146 C1152 0.930 . S
H1147 C1156 0.930 . S
H1148 C1161 0.929 . S
H1149 C1159 0.929 . S
H1150 C1154 0.929 . S
H1151 C1160 0.929 . S
C1152 H1146 0.930 . S
C1152 C1153 1.367 . S
C1152 C1160 1.378 . S
C1153 C1152 1.367 . S
C1153 C1161 1.433 . S
C1154 H1150 0.929 . S
C1154 C1156 1.378 . S
C1154 C1158 1.350 . S
C1155 C1158 1.463 . S
C1155 C1160 1.350 . S
C1155 N1163 1.427 . S
C1156 H1147 0.930 . S
C1156 C1154 1.378 . S
C1156 C1157 1.367 . S
C1157 C1156 1.367 . S
C1157 C1159 1.433 . S
C1158 C1154 1.350 . S
C1158 C1155 1.463 . S
C1158 N1162 1.427 . S
C1159 H1149 0.929 . S
C1159 C1157 1.433 . S
C1159 N1162 1.384 . S
C1160 H1151 0.929 . S
C1160 C1152 1.378 . S
C1160 C1155 1.350 . S
C1161 H1148 0.929 . S
C1161 C1153 1.433 . S
C1161 N1163 1.384 . S
N1162 C1158 1.427 . S
N1162 C1159 1.384 . S
N1163 C1155 1.427 . S
N1163 C1161 1.384 . S
H1164 C1170 0.930 . S
H1165 C1174 0.930 . S
H1166 C1179 0.929 . S
H1167 C1177 0.929 . S
H1168 C1172 0.929 1_565 S
H1169 C1178 0.929 1_545 S
C1170 H1164 0.930 . S
C1170 C1171 1.367 . S
C1170 C1178 1.378 . S
C1171 C1170 1.367 . S
C1171 C1179 1.433 . S
C1172 H1168 0.929 1_545 S
C1172 C1174 1.378 . S
C1172 C1176 1.350 . S
C1173 C1176 1.463 1_565 S
C1173 C1178 1.350 . S
C1173 N1181 1.427 . S
C1174 H1165 0.930 . S
C1174 C1172 1.378 . S
C1174 C1175 1.367 . S
C1175 C1174 1.367 . S
C1175 C1177 1.433 . S
C1176 C1172 1.350 . S
C1176 C1173 1.463 1_545 S
C1176 N1180 1.427 . S
C1177 H1167 0.929 . S
C1177 C1175 1.433 . S
C1177 N1180 1.384 . S
C1178 H1169 0.929 1_565 S
C1178 C1170 1.378 . S
C1178 C1173 1.350 . S
C1179 H1166 0.929 . S
C1179 C1171 1.433 . S
C1179 N1181 1.384 . S
N1180 C1176 1.427 . S
N1180 C1177 1.384 . S
N1181 C1173 1.427 . S
N1181 C1179 1.384 . S
H1182 C1188 0.930 . S
H1183 C1192 0.930 . S
H1184 C1197 0.929 . S
H1185 C1195 0.929 . S
H1186 C1190 0.929 . S
H1187 C1196 0.929 . S
C1188 H1182 0.930 . S
C1188 C1189 1.367 1_554 S
C1188 C1196 1.378 . S
C1189 C1188 1.367 1_556 S
C1189 C1197 1.433 . S
C1190 H1186 0.929 . S
C1190 C1192 1.378 . S
C1190 C1194 1.350 . S
C1191 C1194 1.463 . S
C1191 C1196 1.350 1_556 S
C1191 N1199 1.427 . S
C1192 H1183 0.930 . S
C1192 C1190 1.378 . S
C1192 C1193 1.367 . S
C1193 C1192 1.367 . S
C1193 C1195 1.433 1_556 S
C1194 C1190 1.350 . S
C1194 C1191 1.463 . S
C1194 N1198 1.427 1_556 S
C1195 H1185 0.929 . S
C1195 C1193 1.433 1_554 S
C1195 N1198 1.384 . S
C1196 H1187 0.929 . S
C1196 C1188 1.378 . S
C1196 C1191 1.350 1_554 S
C1197 H1184 0.929 . S
C1197 C1189 1.433 . S
C1197 N1199 1.384 . S
N1198 C1194 1.427 1_554 S
N1198 C1195 1.384 . S
N1199 C1191 1.427 . S
N1199 C1197 1.384 . S
C343 C247 0.604 . S
C347 C3 0.596 . S
C361 C17 0.647 . S
C365 C233 0.700 . S
C379 C31 0.752 . S
C383 C275 0.737 . S
C397 C45 0.820 . S
C401 C261 0.774 . S
C415 C59 0.588 . S
C419 C303 0.601 . S
C433 C73 0.730 . S
C437 C317 0.720 . S
C451 C289 0.715 . S
C455 C87 0.650 . S
C469 C163 0.796 . S
C473 C101 0.792 . S
C487 C115 0.598 . S
C491 C51 0.639 . S
C505 C23 0.747 . S
C509 C129 0.725 . S
C523 C143 0.896 . S
C527 C9 0.878 . S
C541 C157 0.791 . S
C545 C205 0.759 . S
C559 C79 0.897 . S
C563 C171 0.952 . S
C577 C65 0.886 . S
C581 C185 0.910 . S
C595 C199 0.780 . S
C599 C107 0.777 . S
C613 C213 0.726 . S
C617 C93 0.723 . S
C631 C135 0.877 . S
C635 C227 0.954 . S
C649 C149 0.790 . S
C653 C241 0.807 . S
C667 C121 0.883 . S
C671 C255 0.897 . S
C685 C269 0.746 . S
C689 C331 0.770 . S
C703 C219 0.902 . S
C707 C283 0.966 . S
C721 C297 0.811 . S
C725 C191 0.788 . S
C739 C177 0.703 . S
C743 C311 0.644 . S
C757 C325 0.755 . S
C761 C37 0.737 . S
C775 C8 1.762 . S
C779 C22 1.753 . S
C793 C50 1.665 . S
C797 C36 1.672 . S
C811 C64 1.765 . S
C815 C92 1.748 . S
C829 C78 1.960 . S
C833 C106 1.940 . S
C847 C316 1.756 . S
C851 C120 1.763 . S
C865 C134 1.959 . S
C869 C162 1.944 . S
C883 C288 1.874 . S
C887 C148 1.886 . S
C901 C190 1.894 . S
C905 C176 1.872 . S
C919 C204 1.940 . S
C923 C218 1.961 . S
C937 C260 1.889 . S
C941 C232 1.868 . S
C955 C246 1.660 . S
C959 C274 1.676 . S
C973 C330 1.676 . S
C977 C302 1.660 . S
C991 C35 1.124 . S
C995 C7 1.128 . S
C1009 C21 1.343 . S
C1013 C49 1.337 . S
C1027 C273 1.148 . S
C1031 C63 1.147 . S
C1045 C77 1.294 . S
C1049 C259 1.297 . S
C1063 C91 1.352 . S
C1067 C245 1.351 . S
C1081 C231 1.497 . S
C1085 C105 1.502 . S
C1099 C119 1.135 . S
C1103 C329 1.129 . S
C1117 C133 1.301 . S
C1121 C147 1.297 . S
C1135 C287 1.511 . S
C1139 C161 1.511 . S
C1153 C175 1.513 . S
C1157 C203 1.514 . S
C1171 C189 1.282 . S
C1175 C217 1.281 . S
C1189 C315 1.358 . S
C1193 C301 1.353 . S
