# Generated by pormake.
# Topology pem, (4)-cn, num edge types: 1
# Building blocks:
#     Node 0, Type 0, BuildingBlock: KUFVIS_clean_sbu_0, # of connection points: 4
#     Node 1, Type 0, BuildingBlock: KUFVIS_clean_sbu_0, # of connection points: 4
#     Node 2, Type 0, BuildingBlock: KUFVIS_clean_sbu_0, # of connection points: 4
#     Node 3, Type 0, BuildingBlock: KUFVIS_clean_sbu_0, # of connection points: 4
#     Node 4, Type 0, BuildingBlock: KUFVIS_clean_sbu_0, # of connection points: 4
#     Node 5, Type 0, BuildingBlock: KUFVIS_clean_sbu_0, # of connection points: 4
#     Node 6, Type 0, BuildingBlock: KUFVIS_clean_sbu_0, # of connection points: 4
#     Node 7, Type 0, BuildingBlock: KUFVIS_clean_sbu_0, # of connection points: 4
#     Node 8, Type 0, BuildingBlock: KUFVIS_clean_sbu_0, # of connection points: 4
#     Node 9, Type 0, BuildingBlock: KUFVIS_clean_sbu_0, # of connection points: 4
#     Node 10, Type 0, BuildingBlock: KUFVIS_clean_sbu_0, # of connection points: 4
#     Node 11, Type 0, BuildingBlock: KUFVIS_clean_sbu_0, # of connection points: 4
#     Node 12, Type 0, BuildingBlock: KUFVIS_clean_sbu_0, # of connection points: 4
#     Node 13, Type 0, BuildingBlock: KUFVIS_clean_sbu_0, # of connection points: 4
#     Node 14, Type 0, BuildingBlock: KUFVIS_clean_sbu_0, # of connection points: 4
#     Node 15, Type 0, BuildingBlock: KUFVIS_clean_sbu_0, # of connection points: 4
#     Node 16, Type 0, BuildingBlock: KUFVIS_clean_sbu_0, # of connection points: 4
#     Node 17, Type 0, BuildingBlock: KUFVIS_clean_sbu_0, # of connection points: 4
#     Node 18, Type 0, BuildingBlock: KUFVIS_clean_sbu_0, # of connection points: 4
#     Node 19, Type 0, BuildingBlock: KUFVIS_clean_sbu_0, # of connection points: 4
#     Node 20, Type 0, BuildingBlock: KUFVIS_clean_sbu_0, # of connection points: 4
#     Node 21, Type 0, BuildingBlock: KUFVIS_clean_sbu_0, # of connection points: 4
#     Node 22, Type 0, BuildingBlock: KUFVIS_clean_sbu_0, # of connection points: 4
#     Node 23, Type 0, BuildingBlock: KUFVIS_clean_sbu_0, # of connection points: 4
#     Node 24, Type 0, BuildingBlock: KUFVIS_clean_sbu_0, # of connection points: 4
#     Node 25, Type 0, BuildingBlock: KUFVIS_clean_sbu_0, # of connection points: 4
#     Node 26, Type 0, BuildingBlock: KUFVIS_clean_sbu_0, # of connection points: 4
#     Node 27, Type 0, BuildingBlock: KUFVIS_clean_sbu_0, # of connection points: 4
#     Node 28, Type 0, BuildingBlock: KUFVIS_clean_sbu_0, # of connection points: 4
#     Node 29, Type 0, BuildingBlock: KUFVIS_clean_sbu_0, # of connection points: 4
#     Node 30, Type 0, BuildingBlock: KUFVIS_clean_sbu_0, # of connection points: 4
#     Node 31, Type 0, BuildingBlock: KUFVIS_clean_sbu_0, # of connection points: 4
#     Edge 32, Type (0, 0), BuildingBlock: MIFKUJ_clean_linker_0, # of connection points: 2
#     Edge 33, Type (0, 0), BuildingBlock: MIFKUJ_clean_linker_0, # of connection points: 2
#     Edge 34, Type (0, 0), BuildingBlock: MIFKUJ_clean_linker_0, # of connection points: 2
#     Edge 35, Type (0, 0), BuildingBlock: MIFKUJ_clean_linker_0, # of connection points: 2
#     Edge 36, Type (0, 0), BuildingBlock: MIFKUJ_clean_linker_0, # of connection points: 2
#     Edge 37, Type (0, 0), BuildingBlock: MIFKUJ_clean_linker_0, # of connection points: 2
#     Edge 38, Type (0, 0), BuildingBlock: MIFKUJ_clean_linker_0, # of connection points: 2
#     Edge 39, Type (0, 0), BuildingBlock: MIFKUJ_clean_linker_0, # of connection points: 2
#     Edge 40, Type (0, 0), BuildingBlock: MIFKUJ_clean_linker_0, # of connection points: 2
#     Edge 41, Type (0, 0), BuildingBlock: MIFKUJ_clean_linker_0, # of connection points: 2
#     Edge 42, Type (0, 0), BuildingBlock: MIFKUJ_clean_linker_0, # of connection points: 2
#     Edge 43, Type (0, 0), BuildingBlock: MIFKUJ_clean_linker_0, # of connection points: 2
#     Edge 44, Type (0, 0), BuildingBlock: MIFKUJ_clean_linker_0, # of connection points: 2
#     Edge 45, Type (0, 0), BuildingBlock: MIFKUJ_clean_linker_0, # of connection points: 2
#     Edge 46, Type (0, 0), BuildingBlock: MIFKUJ_clean_linker_0, # of connection points: 2
#     Edge 47, Type (0, 0), BuildingBlock: MIFKUJ_clean_linker_0, # of connection points: 2
#     Edge 48, Type (0, 0), BuildingBlock: MIFKUJ_clean_linker_0, # of connection points: 2
#     Edge 49, Type (0, 0), BuildingBlock: MIFKUJ_clean_linker_0, # of connection points: 2
#     Edge 50, Type (0, 0), BuildingBlock: MIFKUJ_clean_linker_0, # of connection points: 2
#     Edge 51, Type (0, 0), BuildingBlock: MIFKUJ_clean_linker_0, # of connection points: 2
#     Edge 52, Type (0, 0), BuildingBlock: MIFKUJ_clean_linker_0, # of connection points: 2
#     Edge 53, Type (0, 0), BuildingBlock: MIFKUJ_clean_linker_0, # of connection points: 2
#     Edge 54, Type (0, 0), BuildingBlock: MIFKUJ_clean_linker_0, # of connection points: 2
#     Edge 55, Type (0, 0), BuildingBlock: MIFKUJ_clean_linker_0, # of connection points: 2
#     Edge 56, Type (0, 0), BuildingBlock: MIFKUJ_clean_linker_0, # of connection points: 2
#     Edge 57, Type (0, 0), BuildingBlock: MIFKUJ_clean_linker_0, # of connection points: 2
#     Edge 58, Type (0, 0), BuildingBlock: MIFKUJ_clean_linker_0, # of connection points: 2
#     Edge 59, Type (0, 0), BuildingBlock: MIFKUJ_clean_linker_0, # of connection points: 2
#     Edge 60, Type (0, 0), BuildingBlock: MIFKUJ_clean_linker_0, # of connection points: 2
#     Edge 61, Type (0, 0), BuildingBlock: MIFKUJ_clean_linker_0, # of connection points: 2
#     Edge 62, Type (0, 0), BuildingBlock: MIFKUJ_clean_linker_0, # of connection points: 2
#     Edge 63, Type (0, 0), BuildingBlock: MIFKUJ_clean_linker_0, # of connection points: 2
#     Edge 64, Type (0, 0), BuildingBlock: MIFKUJ_clean_linker_0, # of connection points: 2
#     Edge 65, Type (0, 0), BuildingBlock: MIFKUJ_clean_linker_0, # of connection points: 2
#     Edge 66, Type (0, 0), BuildingBlock: MIFKUJ_clean_linker_0, # of connection points: 2
#     Edge 67, Type (0, 0), BuildingBlock: MIFKUJ_clean_linker_0, # of connection points: 2
#     Edge 68, Type (0, 0), BuildingBlock: MIFKUJ_clean_linker_0, # of connection points: 2
#     Edge 69, Type (0, 0), BuildingBlock: MIFKUJ_clean_linker_0, # of connection points: 2
#     Edge 70, Type (0, 0), BuildingBlock: MIFKUJ_clean_linker_0, # of connection points: 2
#     Edge 71, Type (0, 0), BuildingBlock: MIFKUJ_clean_linker_0, # of connection points: 2
#     Edge 72, Type (0, 0), BuildingBlock: MIFKUJ_clean_linker_0, # of connection points: 2
#     Edge 73, Type (0, 0), BuildingBlock: MIFKUJ_clean_linker_0, # of connection points: 2
#     Edge 74, Type (0, 0), BuildingBlock: MIFKUJ_clean_linker_0, # of connection points: 2
#     Edge 75, Type (0, 0), BuildingBlock: MIFKUJ_clean_linker_0, # of connection points: 2
#     Edge 76, Type (0, 0), BuildingBlock: MIFKUJ_clean_linker_0, # of connection points: 2
#     Edge 77, Type (0, 0), BuildingBlock: MIFKUJ_clean_linker_0, # of connection points: 2
#     Edge 78, Type (0, 0), BuildingBlock: MIFKUJ_clean_linker_0, # of connection points: 2
#     Edge 79, Type (0, 0), BuildingBlock: MIFKUJ_clean_linker_0, # of connection points: 2
#     Edge 80, Type (0, 0), BuildingBlock: MIFKUJ_clean_linker_0, # of connection points: 2
#     Edge 81, Type (0, 0), BuildingBlock: MIFKUJ_clean_linker_0, # of connection points: 2
#     Edge 82, Type (0, 0), BuildingBlock: MIFKUJ_clean_linker_0, # of connection points: 2
#     Edge 83, Type (0, 0), BuildingBlock: MIFKUJ_clean_linker_0, # of connection points: 2
#     Edge 84, Type (0, 0), BuildingBlock: MIFKUJ_clean_linker_0, # of connection points: 2
#     Edge 85, Type (0, 0), BuildingBlock: MIFKUJ_clean_linker_0, # of connection points: 2
#     Edge 86, Type (0, 0), BuildingBlock: MIFKUJ_clean_linker_0, # of connection points: 2
#     Edge 87, Type (0, 0), BuildingBlock: MIFKUJ_clean_linker_0, # of connection points: 2
#     Edge 88, Type (0, 0), BuildingBlock: MIFKUJ_clean_linker_0, # of connection points: 2
#     Edge 89, Type (0, 0), BuildingBlock: MIFKUJ_clean_linker_0, # of connection points: 2
#     Edge 90, Type (0, 0), BuildingBlock: MIFKUJ_clean_linker_0, # of connection points: 2
#     Edge 91, Type (0, 0), BuildingBlock: MIFKUJ_clean_linker_0, # of connection points: 2
#     Edge 92, Type (0, 0), BuildingBlock: MIFKUJ_clean_linker_0, # of connection points: 2
#     Edge 93, Type (0, 0), BuildingBlock: MIFKUJ_clean_linker_0, # of connection points: 2
#     Edge 94, Type (0, 0), BuildingBlock: MIFKUJ_clean_linker_0, # of connection points: 2
#     Edge 95, Type (0, 0), BuildingBlock: MIFKUJ_clean_linker_0, # of connection points: 2
# Relax obj value: 0.174
# Max RMSD: 0.151
# Mean RMSD: 0.131
data_MOF--net-pem--node1-KUFVIS_clean_sbu_0--edge1-MIFKUJ_clean_linker_0
_symmetry_space_group_name_H-M    P1
_symmetry_Int_Tables_number       1
_symmetry_cell_setting            triclinic
loop_
_symmetry_equiv_pos_as_xyz
'x, y, z'
_cell_length_a     57.873536
_cell_length_b     53.93377
_cell_length_c     52.892066
_cell_angle_alpha  91.511535
_cell_angle_beta   91.455793
_cell_angle_gamma 92.706281
loop_
_atom_site_label
_atom_site_type_symbol
_atom_site_fract_x
_atom_site_fract_y
_atom_site_fract_z
_atom_type_partial_charge
Mn0 Mn 0.08919 0.10972 0.1018 0.0
Mn1 Mn 0.10669 0.05285 0.08426 0.0
C2 C 0.08112 0.09395 0.06135 0.0
C3 C 0.06074 0.13523 0.11802 0.0
C4 C 0.13892 0.09893 0.08539 0.0
O5 O 0.09414 0.09291 0.13615 0.0
O6 O 0.10507 0.05564 0.12171 0.0
C7 C 0.06734 0.02105 0.1018 0.0
N8 N 0.08125 0.0288 0.08286 0.0
C9 C 0.06259 0.99903 0.05337 0.0
C10 C 0.04816 0.99069 0.0726 0.0
C11 C 0.0505 0.00182 0.09688 0.0
C12 C 0.07914 0.0182 0.0594 0.0
H13 H 0.06906 0.02941 0.12056 0.0
C14 C 0.09902 0.07027 0.13961 0.0
O15 O 0.08245 0.14263 0.1184 0.0
O16 O 0.0558 0.11288 0.10948 0.0
N17 N 0.10788 0.04732 0.04838 0.0
C18 C 0.12183 0.05877 0.0314 0.0
C19 C 0.12094 0.05047 0.00601 0.0
C20 C 0.10589 0.03036 0.99836 0.0
C21 C 0.09147 0.01906 0.01604 0.0
C22 C 0.09317 0.02807 0.04113 0.0
H23 H 0.13364 0.07405 0.03712 0.0
O24 O 0.08172 0.11774 0.06589 0.0
O25 O 0.08574 0.08025 0.08051 0.0
O26 O 0.12428 0.11431 0.09342 0.0
O27 O 0.13449 0.07555 0.08389 0.0
C28 C 0.07536 0.99934 0.00971 0.0
C29 C 0.06094 0.98933 0.02837 0.0
H30 H 0.03513 0.97588 0.0689 0.0
H31 H 0.03937 0.99554 0.1118 0.0
H32 H 0.13202 0.05938 0.99242 0.0
H33 H 0.10557 0.02373 0.97887 0.0
H34 H 0.07376 0.99186 0.99051 0.0
H35 H 0.04853 0.97428 0.02323 0.0
Mn36 Mn 0.16548 0.84214 0.34436 0.0
Mn37 Mn 0.19451 0.79167 0.35954 0.0
C38 C 0.20081 0.83576 0.3274 0.0
C39 C 0.14261 0.86378 0.3166 0.0
C40 C 0.19254 0.83688 0.39422 0.0
O41 O 0.13953 0.81856 0.35733 0.0
O42 O 0.16121 0.78623 0.36712 0.0
C43 C 0.17304 0.75522 0.322 0.0
N44 N 0.19224 0.7677 0.33215 0.0
C45 C 0.21686 0.74699 0.30316 0.0
C46 C 0.19735 0.73393 0.29241 0.0
C47 C 0.17536 0.73807 0.30189 0.0
C48 C 0.21352 0.76372 0.3233 0.0
H49 H 0.15608 0.7584 0.3291 0.0
C50 C 0.1417 0.79652 0.36547 0.0
O51 O 0.14516 0.87067 0.34029 0.0
O52 O 0.15098 0.8429 0.30979 0.0
N53 N 0.22676 0.79471 0.35229 0.0
C54 C 0.24362 0.80997 0.36361 0.0
C55 C 0.26662 0.80831 0.35619 0.0
C56 C 0.27203 0.79105 0.33718 0.0
C57 C 0.25434 0.77587 0.32544 0.0
C58 C 0.23179 0.77804 0.33395 0.0
H59 H 0.23961 0.82323 0.3783 0.0
O60 O 0.19375 0.85809 0.33015 0.0
O61 O 0.18758 0.81809 0.33631 0.0
O62 O 0.17932 0.84924 0.38016 0.0
O63 O 0.19873 0.81513 0.38855 0.0
C64 C 0.25816 0.75883 0.3055 0.0
C65 C 0.23942 0.74449 0.29428 0.0
H66 H 0.19902 0.72085 0.27675 0.0
H67 H 0.16021 0.72811 0.29364 0.0
H68 H 0.28016 0.82024 0.36517 0.0
H69 H 0.28984 0.78963 0.33177 0.0
H70 H 0.2754 0.75682 0.29842 0.0
H71 H 0.24252 0.73175 0.27869 0.0
Mn72 Mn 0.42539 0.90033 0.61815 0.0
Mn73 Mn 0.40756 0.95548 0.59658 0.0
C74 C 0.43629 0.91341 0.57862 0.0
C75 C 0.45165 0.87436 0.6379 0.0
C76 C 0.37931 0.90676 0.5903 0.0
O77 O 0.41454 0.91746 0.65073 0.0
O78 O 0.40107 0.9515 0.63295 0.0
C79 C 0.44105 0.98732 0.62773 0.0
N80 N 0.43116 0.98072 0.60475 0.0
C81 C 0.45151 0.01473 0.5851 0.0
C82 C 0.46131 0.02232 0.60872 0.0
C83 C 0.45629 0.00833 0.63008 0.0
C84 C 0.43677 0.99331 0.58387 0.0
H85 H 0.4374 0.97658 0.64411 0.0
C86 C 0.40481 0.93827 0.6521 0.0
O87 O 0.42985 0.86799 0.63494 0.0
O88 O 0.45773 0.89692 0.63195 0.0
N89 N 0.41171 0.96465 0.5621 0.0
C90 C 0.3966 0.95944 0.54224 0.0
C91 C 0.39979 0.97114 0.51912 0.0
C92 C 0.41707 0.99003 0.51729 0.0
C93 C 0.43013 0.99778 0.53895 0.0
C94 C 0.42668 0.98467 0.56125 0.0
H95 H 0.38178 0.94698 0.54417 0.0
O96 O 0.43631 0.8903 0.58453 0.0
O97 O 0.43074 0.92927 0.59642 0.0
O98 O 0.39191 0.89406 0.60466 0.0
O99 O 0.38339 0.92983 0.58627 0.0
C100 C 0.44532 0.01899 0.53964 0.0
C101 C 0.45597 0.0275 0.56271 0.0
H102 H 0.47297 0.03861 0.6106 0.0
H103 H 0.46409 0.01378 0.64831 0.0
H104 H 0.38838 0.96625 0.50305 0.0
H105 H 0.41914 0.9995 0.49962 0.0
H106 H 0.44845 0.02928 0.52265 0.0
H107 H 0.46743 0.04398 0.56306 0.0
Mn108 Mn 0.34867 0.14808 0.85201 0.0
Mn109 Mn 0.36062 0.15981 0.79111 0.0
C110 C 0.33315 0.18115 0.83262 0.0
C111 C 0.32599 0.131 0.8842 0.0
C112 C 0.39291 0.17664 0.83485 0.0
O113 O 0.35993 0.11459 0.83864 0.0
O114 O 0.36851 0.12518 0.79887 0.0
C115 C 0.32578 0.12447 0.76613 0.0
N116 N 0.33537 0.14793 0.76933 0.0
C117 C 0.31236 0.16242 0.73469 0.0
C118 C 0.30231 0.13841 0.73096 0.0
C119 C 0.30889 0.1194 0.74692 0.0
C120 C 0.32865 0.1665 0.75458 0.0
H121 H 0.33108 0.10971 0.77799 0.0
C122 C 0.36694 0.10933 0.8164 0.0
O123 O 0.34775 0.13744 0.88765 0.0
O124 O 0.31773 0.13227 0.86128 0.0
N125 N 0.3536 0.19215 0.77995 0.0
C126 C 0.36385 0.21464 0.78701 0.0
C127 C 0.35852 0.23577 0.77349 0.0
C128 C 0.34331 0.23345 0.75235 0.0
C129 C 0.33314 0.21009 0.74532 0.0
C130 C 0.33852 0.18985 0.76001 0.0
H131 H 0.37601 0.21647 0.80283 0.0
O132 O 0.33547 0.18102 0.85706 0.0
O133 O 0.33984 0.16185 0.81999 0.0
O134 O 0.3813 0.16612 0.85221 0.0
O135 O 0.38726 0.17396 0.81146 0.0
C136 C 0.31791 0.20608 0.72426 0.0
C137 C 0.30713 0.18241 0.71925 0.0
H138 H 0.28954 0.13434 0.7159 0.0
H139 H 0.3012 0.10081 0.74418 0.0
H140 H 0.3664 0.25374 0.77909 0.0
H141 H 0.33947 0.24973 0.74174 0.0
H142 H 0.31407 0.22125 0.7121 0.0
H143 H 0.29496 0.17976 0.7034 0.0
Mn144 Mn 0.09126 0.90739 0.40721 0.0
Mn145 Mn 0.07392 0.88956 0.46459 0.0
C146 C 0.05742 0.92029 0.42359 0.0
C147 C 0.10664 0.93682 0.37965 0.0
C148 C 0.06687 0.85694 0.41773 0.0
O149 O 0.12191 0.8969 0.42401 0.0
O150 O 0.1067 0.88205 0.45993 0.0
C151 C 0.10372 0.92607 0.49493 0.0
N152 N 0.08225 0.91643 0.48793 0.0
C153 C 0.06417 0.9458 0.51514 0.0
C154 C 0.08608 0.95603 0.5226 0.0
C155 C 0.10594 0.94613 0.51242 0.0
C156 C 0.06302 0.92594 0.49751 0.0
H157 H 0.11908 0.91858 0.48726 0.0
C158 C 0.12371 0.88618 0.44539 0.0
O159 O 0.10426 0.91345 0.37301 0.0
O160 O 0.10301 0.94253 0.40308 0.0
N161 N 0.04255 0.89641 0.47179 0.0
C162 C 0.0227 0.88393 0.4633 0.0
C163 C 0.0013 0.89125 0.47211 0.0
C164 C 1.00053 0.91117 0.48968 0.0
C165 C 0.0212 0.92342 0.49849 0.0
C166 C 0.04203 0.91518 0.48918 0.0
H167 H 0.02318 0.86857 0.44985 0.0
O168 O 0.05976 0.9189 0.39932 0.0
O169 O 0.07453 0.91306 0.43732 0.0
O170 O 0.0783 0.87118 0.40309 0.0
O171 O 0.06401 0.86189 0.44114 0.0
C172 C 0.02196 0.94339 0.51626 0.0
C173 C 0.04345 0.95452 0.52459 0.0
H174 H 0.08786 0.97147 0.53614 0.0
H175 H 0.12293 0.95391 0.51807 0.0
H176 H 0.98543 0.88161 0.46533 0.0
H177 H 0.98398 0.91685 0.49632 0.0
H178 H 0.00615 0.95028 0.5237 0.0
H179 H 0.04393 0.96964 0.53843 0.0
Mn180 Mn 0.32585 0.81378 0.6534 0.0
Mn181 Mn 0.3345 0.78541 0.7089 0.0
C182 C 0.30606 0.77594 0.66025 0.0
C183 C 0.30386 0.84065 0.62852 0.0
C184 C 0.36952 0.78642 0.66684 0.0
O185 O 0.34071 0.84167 0.6766 0.0
O186 O 0.34117 0.82159 0.71354 0.0
C187 C 0.29789 0.80674 0.7396 0.0
N188 N 0.30783 0.78654 0.72943 0.0
C189 C 0.28254 0.75879 0.75204 0.0
C190 C 0.27222 0.77935 0.76296 0.0
C191 C 0.27999 0.80344 0.75678 0.0
C192 C 0.30051 0.7633 0.73527 0.0
H193 H 0.30355 0.82519 0.73459 0.0
C194 C 0.34421 0.84109 0.7006 0.0
O195 O 0.32479 0.83531 0.62285 0.0
O196 O 0.29637 0.83174 0.6494 0.0
N197 N 0.32868 0.75019 0.70794 0.0
C198 C 0.3413 0.73238 0.69683 0.0
C199 C 0.33601 0.70724 0.70146 0.0
C200 C 0.31808 0.70067 0.71778 0.0
C201 C 0.30568 0.71931 0.72948 0.0
C202 C 0.31176 0.74405 0.72418 0.0
H203 H 0.35536 0.73728 0.68461 0.0
O204 O 0.30958 0.78365 0.63763 0.0
O205 O 0.31506 0.79046 0.67839 0.0
O206 O 0.35724 0.79718 0.65033 0.0
O207 O 0.36301 0.78258 0.68934 0.0
C208 C 0.28747 0.71431 0.7461 0.0
C209 C 0.27584 0.73405 0.75729 0.0
H210 H 0.25806 0.77692 0.77571 0.0
H211 H 0.27196 0.81939 0.76493 0.0
H212 H 0.34581 0.69297 0.69256 0.0
H213 H 0.31404 0.68126 0.72126 0.0
H214 H 0.28226 0.69536 0.75038 0.0
H215 H 0.26189 0.72999 0.77006 0.0
Mn216 Mn 0.42647 0.0937 0.9347 0.0
Mn217 Mn 0.4209 0.03659 0.9575 0.0
C218 C 0.4492 0.08375 0.96951 0.0
C219 C 0.44723 0.11895 0.90719 0.0
C220 C 0.38571 0.07614 0.96554 0.0
O221 O 0.40944 0.0739 0.90601 0.0
O222 O 0.41286 0.03527 0.9206 0.0
C223 C 0.45846 0.01326 0.92996 0.0
N224 N 0.44859 0.01945 0.9522 0.0
C225 C 0.47915 0.00155 0.97618 0.0
C226 C 0.48944 0.99472 0.95352 0.0
C227 C 0.47913 1.00067 0.93031 0.0
C228 C 0.45854 0.01403 0.97465 0.0
H229 H 0.45068 0.01795 0.91212 0.0
C230 C 0.40792 0.05032 0.90313 0.0
O231 O 0.42724 0.12544 0.91525 0.0
O232 O 0.45381 0.09751 0.91365 0.0
N233 N 0.42882 0.03526 0.99284 0.0
C234 C 0.41702 0.04373 0.01306 0.0
C235 C 0.42502 0.03904 0.03768 0.0
C236 C 0.44499 0.02562 0.04132 0.0
C237 C 0.45677 0.01694 0.02026 0.0
C238 C 0.44782 0.02193 0.99615 0.0
H239 H 0.40154 0.05384 0.0105 0.0
O240 O 0.44548 0.10665 0.96473 0.0
O241 O 0.43863 0.0677 0.95403 0.0
O242 O 0.39713 0.0942 0.9557 0.0
O243 O 0.39202 0.05367 0.96475 0.0
C244 C 0.47735 0.00408 0.02224 0.0
C245 C 0.48867 0.99664 1.0002 0.0
H246 H 0.50525 0.98496 0.95374 0.0
H247 H 0.4871 0.99558 0.91274 0.0
H248 H 0.41579 0.04576 0.05384 0.0
H249 H 0.45123 0.02224 0.06034 0.0
H250 H 0.48483 1.00019 0.04061 0.0
H251 H 0.50472 0.98724 0.00192 0.0
Mn252 Mn 0.1744 0.16254 0.14906 0.0
Mn253 Mn 0.15652 0.18121 0.20626 0.0
C254 C 0.18646 0.20103 0.16559 0.0
C255 C 0.20062 0.14208 0.12495 0.0
C256 C 0.12688 0.18364 0.15807 0.0
O257 O 0.16322 0.12986 0.16424 0.0
O258 O 0.15394 0.14447 0.20274 0.0
C259 C 0.19208 0.15935 0.2391 0.0
N260 N 0.18073 0.1795 0.23134 0.0
C261 C 0.20065 0.20581 0.26312 0.0
C262 C 0.21247 0.18534 0.27151 0.0
C263 C 0.20826 0.16204 0.25934 0.0
C264 C 0.18485 0.20205 0.24274 0.0
H265 H 0.18879 0.14134 0.22999 0.0
C266 C 0.15773 0.12666 0.18712 0.0
O267 O 0.18004 0.14592 0.11596 0.0
O268 O 0.20581 0.14968 0.1479 0.0
N269 N 0.15906 0.21634 0.21257 0.0
C270 C 0.14737 0.23452 0.20115 0.0
C271 C 0.15015 0.25906 0.21061 0.0
C272 C 0.16473 0.26459 0.23182 0.0
C273 C 0.17683 0.24566 0.24306 0.0
C274 C 0.17336 0.22155 0.23282 0.0
H275 H 0.13587 0.23037 0.18507 0.0
O276 O 0.187 0.19633 0.14144 0.0
O277 O 0.17919 0.18287 0.17946 0.0
O278 O 0.14151 0.17485 0.14293 0.0
O279 O 0.13021 0.18477 0.18206 0.0
C280 C 0.19209 0.24973 0.26412 0.0
C281 C 0.20399 0.22981 0.27412 0.0
H282 H 0.22491 0.18732 0.28716 0.0
H283 H 0.21736 0.14616 0.26564 0.0
H284 H 0.14084 0.27362 0.20179 0.0
H285 H 0.16631 0.28338 0.23942 0.0
H286 H 0.19485 0.26809 0.27274 0.0
H287 H 0.21567 0.23313 0.2903 0.0
Mn288 Mn 0.59802 0.41535 0.90484 0.0
Mn289 Mn 0.57269 0.40101 0.95981 0.0
C290 C 0.56472 0.43381 0.91674 0.0
C291 C 0.62118 0.44245 0.88029 0.0
C292 C 0.56593 0.36847 0.91222 0.0
O293 O 0.62488 0.40013 0.9251 0.0
O294 O 0.60505 0.39084 0.95998 0.0
C295 C 0.60142 0.43575 0.99332 0.0
N296 N 0.58022 0.42699 0.98436 0.0
C297 C 0.56101 0.45471 0.01238 0.0
C298 C 0.58262 0.46394 0.02198 0.0
C299 C 0.60291 0.45449 0.01231 0.0
C300 C 0.5606 0.43622 0.99327 0.0
H301 H 0.61708 0.42851 0.98606 0.0
C302 C 0.62374 0.39162 0.94755 0.0
O303 O 0.61608 0.41963 0.87304 0.0
O304 O 0.61544 0.44836 0.90306 0.0
N305 N 0.54134 0.41025 0.96294 0.0
C306 C 0.52185 0.39988 0.95118 0.0
C307 C 0.50006 0.40681 0.95913 0.0
C308 C 0.49852 0.42416 0.97919 0.0
C309 C 0.51878 0.43496 0.99068 0.0
C310 C 0.54001 0.42705 0.98221 0.0
H311 H 0.52287 0.38612 0.93611 0.0
O312 O 0.56985 0.43228 0.89308 0.0
O313 O 0.57883 0.42405 0.93262 0.0
O314 O 0.57985 0.38111 0.89837 0.0
O315 O 0.56312 0.37389 0.93554 0.0
C316 C 0.51877 0.45316 0.01028 0.0
C317 C 0.53986 0.46323 0.02093 0.0
H318 H 0.58385 0.47833 0.03669 0.0
H319 H 0.61967 0.46156 0.01956 0.0
H320 H 0.48448 0.39854 0.95006 0.0
H321 H 0.48167 0.42905 0.9856 0.0
H322 H 0.50267 0.45973 0.01716 0.0
H323 H 0.5396 0.47748 0.03573 0.0
Mn324 Mn 0.83273 0.32993 0.15675 0.0
Mn325 Mn 0.84139 0.30625 0.21447 0.0
C326 C 0.8109 0.29503 0.16907 0.0
C327 C 0.81057 0.35355 0.12859 0.0
C328 C 0.87351 0.29761 0.17105 0.0
O329 O 0.84838 0.35985 0.17667 0.0
O330 O 0.85412 0.34079 0.2136 0.0
C331 C 0.81347 0.33883 0.24609 0.0
N332 N 0.81766 0.31572 0.23673 0.0
C333 C 0.79149 0.29666 0.26582 0.0
C334 C 0.78695 0.32021 0.2758 0.0
C335 C 0.79794 0.3414 0.26581 0.0
C336 C 0.80695 0.29523 0.24597 0.0
H337 H 0.82227 0.35519 0.23899 0.0
C338 C 0.85552 0.35992 0.19987 0.0
O339 O 0.83126 0.34712 0.12307 0.0
O340 O 0.80407 0.34853 0.15114 0.0
N341 N 0.82955 0.27294 0.21845 0.0
C342 C 0.83816 0.25147 0.2093 0.0
C343 C 0.82919 0.22857 0.21767 0.0
C344 C 0.81197 0.22798 0.2359 0.0
C345 C 0.80402 0.25032 0.24574 0.0
C346 C 0.81319 0.27258 0.23625 0.0
H347 H 0.85177 0.25178 0.19571 0.0
O348 O 0.81481 0.29895 0.14548 0.0
O349 O 0.82106 0.31104 0.18498 0.0
O350 O 0.8635 0.3112 0.15493 0.0
O351 O 0.86637 0.29501 0.19342 0.0
C352 C 0.78812 0.25136 0.2654 0.0
C353 C 0.78201 0.27451 0.27556 0.0
H354 H 0.77517 0.32224 0.29123 0.0
H355 H 0.79462 0.35966 0.27347 0.0
H356 H 0.83573 0.21142 0.21032 0.0
H357 H 0.80536 0.21029 0.24263 0.0
H358 H 0.78102 0.23443 0.27332 0.0
H359 H 0.77041 0.27513 0.29128 0.0
Mn360 Mn 0.91515 0.60603 0.42669 0.0
Mn361 Mn 0.88787 0.55185 0.44194 0.0
C362 C 0.92711 0.58436 0.46182 0.0
C363 C 0.94541 0.62856 0.40692 0.0
C364 C 0.8671 0.60162 0.45047 0.0
O365 O 0.89971 0.59407 0.39293 0.0
O366 O 0.88249 0.55835 0.4061 0.0
C367 C 0.91169 0.5151 0.41079 0.0
N368 N 0.90528 0.52371 0.4339 0.0
C369 C 0.91202 0.48455 0.45266 0.0
C370 C 0.9189 0.47527 0.42914 0.0
C371 C 0.9191 0.49077 0.40819 0.0
C372 C 0.90606 0.50934 0.45439 0.0
H373 H 0.91064 0.5265 0.39437 0.0
C374 C 0.88757 0.57378 0.38901 0.0
O375 O 0.92631 0.63875 0.41285 0.0
O376 O 0.94652 0.60516 0.41147 0.0
N377 N 0.89215 0.54317 0.47638 0.0
C378 C 0.88561 0.55527 0.49776 0.0
C379 C 0.88611 0.54301 0.52085 0.0
C380 C 0.89233 0.51815 0.52143 0.0
C381 C 0.89873 0.50608 0.49904 0.0
C382 C 0.8993 0.51974 0.47696 0.0
H383 H 0.87971 0.57396 0.49705 0.0
O384 O 0.93078 0.60829 0.46105 0.0
O385 O 0.91543 0.57421 0.44278 0.0
O386 O 0.88363 0.61533 0.44193 0.0
O387 O 0.86766 0.57818 0.45119 0.0
C388 C 0.90354 0.48077 0.49747 0.0
C389 C 0.90985 0.46994 0.4742 0.0
H390 H 0.92383 0.45623 0.42689 0.0
H391 H 0.92418 0.48371 0.38994 0.0
H392 H 0.88098 0.55241 0.53799 0.0
H393 H 0.89186 0.50842 0.53908 0.0
H394 H 0.90212 0.46939 0.51398 0.0
H395 H 0.91306 0.45033 0.47308 0.0
Mn396 Mn 0.84376 0.64496 0.35205 0.0
Mn397 Mn 0.85832 0.66262 0.29325 0.0
C398 C 0.82973 0.68055 0.33498 0.0
C399 C 0.8202 0.62657 0.38252 0.0
C400 C 0.88961 0.67209 0.33938 0.0
O401 O 0.8543 0.6123 0.3355 0.0
O402 O 0.86427 0.62706 0.29743 0.0
C403 C 0.82306 0.63188 0.26334 0.0
N404 N 0.8333 0.65452 0.26974 0.0
C405 C 0.81165 0.67412 0.23706 0.0
C406 C 0.8009 0.65102 0.23009 0.0
C407 C 0.80647 0.62985 0.24347 0.0
C408 C 0.82748 0.67513 0.25755 0.0
H409 H 0.82764 0.61548 0.27318 0.0
C410 C 0.86171 0.60941 0.31293 0.0
O411 O 0.842 0.63185 0.38693 0.0
O412 O 0.8125 0.62959 0.35956 0.0
N413 N 0.85317 0.69652 0.28584 0.0
C414 C 0.86483 0.71751 0.29512 0.0
C415 C 0.86068 0.74043 0.2843 0.0
C416 C 0.84521 0.74143 0.26351 0.0
C417 C 0.83387 0.71952 0.25388 0.0
C418 C 0.83813 0.69733 0.26595 0.0
H419 H 0.87721 0.71682 0.31067 0.0
O420 O 0.83127 0.67832 0.3593 0.0
O421 O 0.83653 0.66212 0.32126 0.0
O422 O 0.87654 0.66088 0.3548 0.0
O423 O 0.88498 0.67289 0.31575 0.0
C424 C 0.81888 0.71875 0.23245 0.0
C425 C 0.80757 0.6961 0.22421 0.0
H426 H 0.78841 0.64931 0.21446 0.0
H427 H 0.79826 0.61195 0.23821 0.0
H428 H 0.86965 0.75723 0.29173 0.0
H429 H 0.84231 0.75909 0.25496 0.0
H430 H 0.81554 0.73554 0.22247 0.0
H431 H 0.79577 0.69581 0.20798 0.0
Mn432 Mn 0.66109 0.34865 0.84893 0.0
Mn433 Mn 0.68622 0.29536 0.86401 0.0
C434 C 0.69255 0.33588 0.82706 0.0
C435 C 0.63469 0.36972 0.82374 0.0
C436 C 0.69525 0.34354 0.89369 0.0
O437 O 0.63609 0.3308 0.86928 0.0
O438 O 0.65507 0.29644 0.87781 0.0
C439 C 0.65444 0.2606 0.83397 0.0
N440 N 0.67632 0.26957 0.84014 0.0
C441 C 0.69283 0.23917 0.81279 0.0
C442 C 0.67049 0.2295 0.80626 0.0
C443 C 0.65121 0.24036 0.81681 0.0
C444 C 0.69496 0.25947 0.82986 0.0
H445 H 0.63958 0.26883 0.84207 0.0
C446 C 0.63723 0.30941 0.879 0.0
O447 O 0.64271 0.37915 0.84527 0.0
O448 O 0.6406 0.34751 0.81793 0.0
N449 N 0.71655 0.29113 0.85161 0.0
C450 C 0.73686 0.30308 0.85939 0.0
C451 C 0.75784 0.29409 0.85122 0.0
C452 C 0.75772 0.27289 0.83523 0.0
C453 C 0.73662 0.26127 0.82694 0.0
C454 C 0.71629 0.27072 0.83619 0.0
H455 H 0.73709 0.31895 0.87225 0.0
O456 O 0.68746 0.35903 0.82764 0.0
O457 O 0.67918 0.32078 0.8395 0.0
O458 O 0.6816 0.35688 0.88105 0.0
O459 O 0.69783 0.32058 0.88904 0.0
C460 C 0.73497 0.24048 0.81016 0.0
C461 C 0.71307 0.2296 0.80289 0.0
H462 H 0.66792 0.21385 0.79307 0.0
H463 H 0.6339 0.23307 0.81181 0.0
H464 H 0.77408 0.30319 0.85765 0.0
H465 H 0.77395 0.2655 0.82967 0.0
H466 H 0.75042 0.23285 0.80259 0.0
H467 H 0.71199 0.21384 0.78971 0.0
Mn468 Mn 0.90939 0.90369 0.89583 0.0
Mn469 Mn 0.88474 0.95277 0.92398 0.0
C470 C 0.93149 0.93846 0.90879 0.0
C471 C 0.92964 0.86643 0.89681 0.0
C472 C 0.88493 0.94504 0.86708 0.0
O473 O 0.87848 0.88803 0.90875 0.0
O474 O 0.86332 0.9229 0.92432 0.0
C475 C 0.88281 0.9337 0.9761 0.0
N476 N 0.8896 0.95169 0.95987 0.0
C477 C 0.90414 0.97838 0.99442 0.0
C478 C 0.89714 0.96022 0.01147 0.0
C479 C 0.88659 0.9377 0.00224 0.0
C480 C 0.90017 0.97324 0.96855 0.0
H481 H 0.8745 0.91645 0.96925 0.0
C482 C 0.86261 0.89934 0.92039 0.0
O483 O 0.91824 0.8728 0.87672 0.0
O484 O 0.92753 0.88046 0.91681 0.0
N485 N 0.90342 0.98306 0.92615 0.0
C486 C 0.91056 0.99807 0.90724 0.0
C487 C 0.9229 0.02055 0.91341 0.0
C488 C 0.92698 0.02787 0.93883 0.0
C489 C 0.91905 0.0124 0.95793 0.0
C490 C 0.9074 0.98988 0.95072 0.0
H491 H 0.90727 0.99275 0.88761 0.0
O492 O 0.9386 0.92384 0.89107 0.0
O493 O 0.91167 0.93245 0.9185 0.0
O494 O 0.89427 0.9239 0.86709 0.0
O495 O 0.87953 0.95652 0.8873 0.0
C496 C 0.92247 0.01834 0.98385 0.0
C497 C 0.91492 0.00138 0.0021 0.0
H498 H 0.89992 0.96332 0.03166 0.0
H499 H 0.88121 0.92353 0.01526 0.0
H500 H 0.92942 0.03216 0.89869 0.0
H501 H 0.93645 0.04527 0.94345 0.0
H502 H 0.93103 0.03586 0.98992 0.0
H503 H 0.91764 0.00611 0.02201 0.0
Mn504 Mn 0.84334 0.172 0.65176 0.0
Mn505 Mn 0.86878 0.19494 0.70616 0.0
C506 C 0.8219 0.18659 0.68464 0.0
C507 C 0.82227 0.17552 0.6135 0.0
C508 C 0.86601 0.14014 0.69219 0.0
O509 O 0.87588 0.18391 0.64016 0.0
O510 O 0.89103 0.19731 0.67852 0.0
C511 C 0.87576 0.24777 0.69269 0.0
N512 N 0.86633 0.23021 0.70792 0.0
C513 C 0.84992 0.26148 0.73434 0.0
C514 C 0.85948 0.27987 0.71897 0.0
C515 C 0.87224 0.27295 0.69791 0.0
C516 C 0.85358 0.23665 0.72792 0.0
H517 H 0.88578 0.24265 0.67661 0.0
C518 C 0.89229 0.19405 0.65449 0.0
O519 O 0.83231 0.15528 0.61917 0.0
O520 O 0.82735 0.19475 0.62816 0.0
N521 N 0.84791 0.1942 0.73369 0.0
C522 C 0.83829 0.17418 0.74541 0.0
C523 C 0.82387 0.1779 0.76598 0.0
C524 C 0.81964 0.20213 0.77442 0.0
C525 C 0.82972 0.22244 0.76205 0.0
C526 C 0.84376 0.21759 0.7415 0.0
H527 H 0.84156 0.15551 0.73909 0.0
O528 O 0.81322 0.16882 0.66979 0.0
O529 O 0.84341 0.19259 0.6815 0.0
O530 O 0.85583 0.14213 0.6707 0.0
O531 O 0.87173 0.15865 0.70685 0.0
C532 C 0.82638 0.2473 0.76931 0.0
C533 C 0.83667 0.26681 0.75562 0.0
H534 H 0.85691 0.29933 0.72299 0.0
H535 H 0.87936 0.28701 0.68573 0.0
H536 H 0.81611 0.16211 0.77539 0.0
H537 H 0.80858 0.20493 0.79036 0.0
H538 H 0.81585 0.25162 0.78534 0.0
H539 H 0.83389 0.28586 0.76129 0.0
Mn540 Mn 0.58702 0.10461 0.41266 0.0
Mn541 Mn 0.61422 0.05712 0.43974 0.0
C542 C 0.56649 0.06793 0.42147 0.0
C543 C 0.5636 0.13976 0.41535 0.0
C544 C 0.61662 0.06715 0.38372 0.0
O545 O 0.61703 0.12246 0.42866 0.0
O546 O 0.63241 0.08877 0.44536 0.0
C547 C 0.6105 0.07349 0.49338 0.0
N548 N 0.6077 0.05547 0.47489 0.0
C549 C 0.59469 0.02534 0.50481 0.0
C550 C 0.59767 0.04349 0.52422 0.0
C551 C 0.60526 0.06775 0.51839 0.0
C552 C 0.59981 0.03222 0.48016 0.0
H553 H 0.61645 0.09214 0.48903 0.0
C554 C 0.6328 0.11215 0.44178 0.0
O555 O 0.57584 0.13525 0.39562 0.0
O556 O 0.56677 0.1254 0.43422 0.0
N557 N 0.59851 0.02513 0.43654 0.0
C558 C 0.59335 0.01093 0.41527 0.0
C559 C 0.58426 0.98652 0.41758 0.0
C560 C 0.5807 0.97694 0.44168 0.0
C561 C 0.58573 0.99204 0.46326 0.0
C562 C 0.59505 0.01609 0.45982 0.0
H563 H 0.59633 0.01808 0.3967 0.0
O564 O 0.55908 0.08233 0.40414 0.0
O565 O 0.58594 0.07505 0.43289 0.0
O566 O 0.60454 0.08656 0.38375 0.0
O567 O 0.62194 0.05602 0.40383 0.0
C568 C 0.58154 0.9843 0.48804 0.0
C569 C 0.58601 1.00095 0.5088 0.0
H570 H 0.59362 0.03919 0.54354 0.0
H571 H 0.60686 0.08202 0.53313 0.0
H572 H 0.58022 0.97503 0.40085 0.0
H573 H 0.57397 0.95801 0.4434 0.0
H574 H 0.57438 0.96577 0.4913 0.0
H575 H 0.58229 0.99497 0.52771 0.0
Mn576 Mn 0.67093 0.8476 0.14977 0.0
Mn577 Mn 0.64621 0.81757 0.19872 0.0
C578 C 0.69303 0.83585 0.18423 0.0
C579 C 0.69211 0.84779 0.11154 0.0
C580 C 0.64407 0.87326 0.19275 0.0
O581 O 0.6399 0.83288 0.13355 0.0
O582 O 0.62542 0.81496 0.16835 0.0
C583 C 0.64564 0.76605 0.17766 0.0
N584 N 0.65185 0.78293 0.19652 0.0
C585 C 0.66853 0.75142 0.22165 0.0
C586 C 0.66222 0.7337 0.20254 0.0
C587 C 0.65084 0.74109 0.1804 0.0
C588 C 0.66284 0.77603 0.21791 0.0
H589 H 0.63683 0.77157 0.16063 0.0
C590 C 0.62412 0.82003 0.14484 0.0
O591 O 0.68046 0.86661 0.11877 0.0
O592 O 0.68974 0.82828 0.12515 0.0
N593 N 0.66476 0.81808 0.22927 0.0
C594 C 0.67163 0.8378 0.24476 0.0
C595 C 0.68441 0.83377 0.26709 0.0
C596 C 0.68982 0.80954 0.27336 0.0
C597 C 0.68242 0.78953 0.25723 0.0
C598 C 0.66965 0.79465 0.23528 0.0
H599 H 0.66757 0.85648 0.24003 0.0
O600 O 0.70013 0.85422 0.17064 0.0
O601 O 0.673 0.82546 0.17785 0.0
O602 O 0.65456 0.87448 0.17162 0.0
O603 O 0.63983 0.85279 0.20361 0.0
C604 C 0.68781 0.76479 0.26169 0.0
C605 C 0.68085 0.74574 0.24393 0.0
H606 H 0.66631 0.71444 0.2045 0.0
H607 H 0.64609 0.72756 0.16548 0.0
H608 H 0.69014 0.84933 0.27939 0.0
H609 H 0.69988 0.80654 0.29047 0.0
H610 H 0.69774 0.76028 0.27845 0.0
H611 H 0.68552 0.72688 0.24731 0.0
Mn612 Mn 0.89949 0.1124 0.57909 0.0
Mn613 Mn 0.87543 0.06247 0.54675 0.0
C614 C 0.92177 0.08153 0.56348 0.0
C615 C 0.91997 0.1513 0.57774 0.0
C616 C 0.87465 0.0679 0.60422 0.0
O617 O 0.86786 0.12481 0.56775 0.0
O618 O 0.85402 0.08978 0.54688 0.0
C619 C 0.87293 0.08292 0.49532 0.0
N620 N 0.88028 0.06535 0.5113 0.0
C621 C 0.89561 0.04181 0.47682 0.0
C622 C 0.88815 0.05962 0.45999 0.0
C623 C 0.87688 0.08035 0.46932 0.0
C624 C 0.89141 0.04552 0.50256 0.0
H625 H 0.86403 0.09869 0.50233 0.0
C626 C 0.85227 0.11228 0.55448 0.0
O627 O 0.91023 0.14402 0.59835 0.0
O628 O 0.91592 0.13728 0.55788 0.0
N629 N 0.89487 0.03476 0.54474 0.0
C630 C 0.90304 0.02061 0.56365 0.0
C631 C 0.91537 0.99955 0.55761 0.0
C632 C 0.91923 0.9933 0.53219 0.0
C633 C 0.91109 0.00844 0.5131 0.0
C634 C 0.89901 0.02925 0.52026 0.0
H635 H 0.90079 0.02578 0.58319 0.0
O636 O 0.92935 0.09533 0.58259 0.0
O637 O 0.90133 0.08562 0.55474 0.0
O638 O 0.88486 0.08956 0.60675 0.0
O639 O 0.87018 0.05738 0.58264 0.0
C640 C 0.91465 0.00379 0.48725 0.0
C641 C 0.90704 0.02051 0.46909 0.0
H642 H 0.89104 0.05762 0.4399 0.0
H643 H 0.87109 0.0942 0.45647 0.0
H644 H 0.92202 0.98828 0.57251 0.0
H645 H 0.9288 0.97708 0.52757 0.0
H646 H 0.92347 0.98751 0.48129 0.0
H647 H 0.91029 0.01694 0.44927 0.0
Mn648 Mn 0.63668 0.16124 0.33769 0.0
Mn649 Mn 0.66996 0.2126 0.35312 0.0
C650 C 0.64337 0.19158 0.30846 0.0
C651 C 0.63279 0.12139 0.32011 0.0
C652 C 0.62014 0.20581 0.36818 0.0
O653 O 0.654 0.1506 0.3696 0.0
O654 O 0.67556 0.18608 0.37722 0.0
C655 C 0.71461 0.19086 0.34147 0.0
N656 N 0.69934 0.20904 0.33811 0.0
C657 C 0.72284 0.22787 0.30631 0.0
C658 C 0.73886 0.20944 0.30953 0.0
C659 C 0.73468 0.19082 0.32712 0.0
C660 C 0.70313 0.22697 0.32111 0.0
H661 H 0.71133 0.17629 0.3547 0.0
C662 C 0.66937 0.16373 0.38239 0.0
O663 O 0.61699 0.12987 0.33462 0.0
O664 O 0.65133 0.13528 0.31734 0.0
N665 N 0.66644 0.23963 0.33086 0.0
C666 C 0.64847 0.25494 0.32864 0.0
C667 C 0.64993 0.27462 0.31181 0.0
C668 C 0.66983 0.27838 0.29749 0.0
C669 C 0.68812 0.26244 0.30019 0.0
C670 C 0.68587 0.24342 0.31759 0.0
H671 H 0.63312 0.25216 0.33959 0.0
O672 O 0.62549 0.17632 0.30573 0.0
O673 O 0.6566 0.18859 0.32817 0.0
O674 O 0.61637 0.18412 0.35814 0.0
O675 O 0.63972 0.21778 0.36818 0.0
C676 C 0.70825 0.26428 0.28584 0.0
C677 C 0.72523 0.24658 0.28837 0.0
H678 H 0.75426 0.20916 0.29835 0.0
H679 H 0.74677 0.17629 0.32938 0.0
H680 H 0.6357 0.28681 0.30981 0.0
H681 H 0.67078 0.2934 0.2843 0.0
H682 H 0.71057 0.27884 0.27232 0.0
H683 H 0.73978 0.24721 0.27601 0.0
Mn684 Mn 0.59139 0.90314 0.0957 0.0
Mn685 Mn 0.56109 0.88588 0.04213 0.0
C686 C 0.58857 0.9302 0.06284 0.0
C687 C 0.59499 0.92207 0.13561 0.0
C688 C 0.61026 0.87239 0.05205 0.0
O689 O 0.57207 0.87298 0.10736 0.0
O690 O 0.55462 0.86298 0.06974 0.0
C691 C 0.51453 0.89508 0.06145 0.0
N692 N 0.53085 0.8985 0.0436 0.0
C693 C 0.5048 0.92085 0.0175 0.0
C694 C 0.48767 0.91752 0.03554 0.0
C695 C 0.49265 0.90481 0.05774 0.0
C696 C 0.52645 0.91127 0.02253 0.0
H697 H 0.51816 0.88499 0.07834 0.0
C698 C 0.55846 0.85911 0.09315 0.0
O699 O 0.60983 0.90636 0.12805 0.0
O700 O 0.57722 0.92532 0.12087 0.0
N701 N 0.5651 0.90616 0.01334 0.0
C702 C 0.58386 0.90878 0.99838 0.0
C703 C 0.58179 0.92113 0.97546 0.0
C704 C 0.56047 0.93039 0.96807 0.0
C705 C 0.54148 0.92761 0.98381 0.0
C706 C 0.54451 0.91505 0.00635 0.0
H707 H 0.60014 0.90112 0.00366 0.0
O708 O 0.60536 0.93274 0.07948 0.0
O709 O 0.57332 0.91207 0.066 0.0
O710 O 0.61224 0.88143 0.07458 0.0
O711 O 0.59183 0.87276 0.03843 0.0
C712 C 0.51956 0.93639 0.97777 0.0
C713 C 0.50128 0.93327 0.99473 0.0
H714 H 0.47069 0.92476 0.03261 0.0
H715 H 0.47958 0.90233 0.07184 0.0
H716 H 0.59638 0.92298 0.96317 0.0
H717 H 0.55874 0.93922 0.95009 0.0
H718 H 0.51662 0.94551 0.9601 0.0
H719 H 0.48458 0.94045 0.99004 0.0
Mn720 Mn 0.83779 0.84195 0.85471 0.0
Mn721 Mn 0.81038 0.78764 0.86812 0.0
C722 C 0.83763 0.80865 0.82645 0.0
C723 C 0.83625 0.88033 0.83557 0.0
C724 C 0.8573 0.8042 0.891 0.0
O725 O 0.81647 0.85207 0.88282 0.0
O726 O 0.79833 0.81478 0.88916 0.0
C727 C 0.76369 0.79862 0.84876 0.0
N728 N 0.78236 0.78416 0.84825 0.0
C729 C 0.76475 0.75792 0.81496 0.0
C730 C 0.74537 0.77256 0.81514 0.0
C731 C 0.74482 0.79295 0.83212 0.0
C732 C 0.78302 0.76443 0.83204 0.0
H733 H 0.76325 0.81443 0.86166 0.0
C734 C 0.8013 0.83821 0.89341 0.0
O735 O 0.85231 0.87627 0.85243 0.0
O736 O 0.82076 0.86267 0.83089 0.0
N737 N 0.82031 0.76008 0.8483 0.0
C738 C 0.84086 0.74877 0.84952 0.0
C739 C 0.84428 0.72812 0.83356 0.0
C740 C 0.82652 0.71926 0.81659 0.0
C741 C 0.80551 0.73115 0.81574 0.0
C742 C 0.80304 0.75156 0.8322 0.0
H743 H 0.85457 0.75548 0.86253 0.0
O744 O 0.85355 0.82628 0.82551 0.0
O745 O 0.82271 0.81109 0.8441 0.0
O746 O 0.85956 0.82487 0.87968 0.0
O747 O 0.83933 0.78955 0.88854 0.0
C748 C 0.78703 0.72378 0.79895 0.0
C749 C 0.76683 0.73738 0.79827 0.0
H750 H 0.73088 0.76849 0.80224 0.0
H751 H 0.72991 0.80434 0.8323 0.0
H752 H 0.86057 0.71908 0.8343 0.0
H753 H 0.82928 0.70343 0.80417 0.0
H754 H 0.78829 0.70787 0.78623 0.0
H755 H 0.75316 0.73198 0.78464 0.0
Mn756 Mn 0.40853 0.60582 0.09034 0.0
Mn757 Mn 0.37214 0.56158 0.06171 0.0
C758 C 0.42241 0.57113 0.07002 0.0
C759 C 0.43418 0.64167 0.0913 0.0
C760 C 0.38329 0.56314 0.1184 0.0
O761 O 0.37891 0.62496 0.08409 0.0
O762 O 0.35591 0.5922 0.07011 0.0
C763 C 0.36341 0.5887 0.01435 0.0
N764 N 0.37024 0.56803 0.02611 0.0
C765 C 0.37607 0.54754 0.98586 0.0
C766 C 0.36899 0.56865 0.9735 0.0
C767 C 0.3627 0.58937 0.98784 0.0
C768 C 0.37666 0.54812 0.0124 0.0
H769 H 0.35856 0.60455 0.02502 0.0
C770 C 0.35939 0.61534 0.0757 0.0
O771 O 0.42502 0.63299 0.11154 0.0
O772 O 0.42731 0.63066 0.07013 0.0
N773 N 0.38459 0.53068 0.05125 0.0
C774 C 0.38827 0.51062 0.06562 0.0
C775 C 0.39402 0.4881 0.05419 0.0
C776 C 0.39471 0.48597 0.0278 0.0
C777 C 0.38958 0.50626 0.01312 0.0
C778 C 0.38398 0.52826 0.02571 0.0
H779 H 0.38524 0.51126 0.08538 0.0
O780 O 0.43447 0.58273 0.08808 0.0
O781 O 0.40244 0.57972 0.06444 0.0
O782 O 0.39419 0.58438 0.11891 0.0
O783 O 0.37449 0.55292 0.09799 0.0
C784 C 0.38894 0.50516 0.98649 0.0
C785 C 0.38244 0.52591 0.97286 0.0
H786 H 0.3683 0.56913 0.95303 0.0
H787 H 0.35722 0.6058 0.97851 0.0
H788 H 0.3969 0.47212 0.06561 0.0
H789 H 0.39793 0.46833 0.01898 0.0
H790 H 0.39319 0.48838 0.9763 0.0
H791 H 0.38206 0.5249 0.95237 0.0
Mn792 Mn 0.14245 0.66137 0.85667 0.0
Mn793 Mn 0.16988 0.71527 0.87677 0.0
C794 C 0.14953 0.69334 0.82933 0.0
C795 C 0.13955 0.62263 0.8349 0.0
C796 C 0.11938 0.70312 0.88644 0.0
O797 O 0.16085 0.65072 0.88856 0.0
O798 O 0.17564 0.68881 0.9013 0.0
C799 C 0.21847 0.70046 0.87332 0.0
N800 N 0.20134 0.7156 0.86634 0.0
C801 C 0.227 0.73837 0.8393 0.0
C802 C 0.24488 0.72308 0.84626 0.0
C803 C 0.24058 0.70405 0.86335 0.0
C804 C 0.20536 0.73413 0.85006 0.0
H805 H 0.21538 0.68572 0.88635 0.0
C806 C 0.17353 0.66518 0.90363 0.0
O807 O 0.124 0.62927 0.85064 0.0
O808 O 0.15813 0.63701 0.8343 0.0
N809 N 0.16632 0.7418 0.8538 0.0
C810 C 0.14685 0.75382 0.84757 0.0
C811 C 0.14805 0.77271 0.82982 0.0
C812 C 0.1692 0.77905 0.81865 0.0
C813 C 0.189 0.76649 0.82539 0.0
C814 C 0.18682 0.74795 0.84336 0.0
H815 H 0.13048 0.74886 0.85585 0.0
O816 O 0.13194 0.67784 0.82523 0.0
O817 O 0.1615 0.69054 0.85 0.0
O818 O 0.11904 0.68106 0.877 0.0
O819 O 0.13754 0.71746 0.88767 0.0
C820 C 0.21071 0.77128 0.81459 0.0
C821 C 0.22971 0.7573 0.82167 0.0
H822 H 0.26191 0.72563 0.8384 0.0
H823 H 0.25427 0.69209 0.86876 0.0
H824 H 0.13266 0.78224 0.82463 0.0
H825 H 0.16999 0.79346 0.80477 0.0
H826 H 0.21294 0.78549 0.80065 0.0
H827 H 0.24631 0.76101 0.81329 0.0
Mn828 Mn 0.10753 0.41467 0.59607 0.0
Mn829 Mn 0.08166 0.39743 0.54047 0.0
C830 C 0.10339 0.44326 0.56379 0.0
C831 C 0.10744 0.43507 0.63575 0.0
C832 C 0.13056 0.38425 0.55476 0.0
O833 O 0.08798 0.38248 0.60553 0.0
O834 O 0.07033 0.37548 0.56733 0.0
C835 C 0.03352 0.40896 0.55177 0.0
N836 N 0.05237 0.41183 0.53706 0.0
C837 C 0.03164 0.43626 0.50761 0.0
C838 C 0.01171 0.43247 0.52179 0.0
C839 C 0.01273 0.41921 0.54421 0.0
C840 C 0.05183 0.42559 0.5161 0.0
H841 H 0.03436 0.39898 0.56913 0.0
C842 C 0.07272 0.37075 0.59085 0.0
O843 O 0.12362 0.42021 0.62984 0.0
O844 O 0.08998 0.43551 0.62003 0.0
N845 N 0.09085 0.4179 0.51309 0.0
C846 C 0.11183 0.42036 0.50202 0.0
C847 C 0.11415 0.4346 0.48032 0.0
C848 C 0.09483 0.44599 0.47006 0.0
C849 C 0.07342 0.44312 0.48172 0.0
C850 C 0.07221 0.42884 0.50342 0.0
H851 H 0.12672 0.41154 0.50962 0.0
O852 O 0.11977 0.44642 0.58083 0.0
O853 O 0.09093 0.42291 0.56568 0.0
O854 O 0.13178 0.39536 0.57642 0.0
O855 O 0.11195 0.38232 0.54129 0.0
C856 C 0.05321 0.45386 0.47267 0.0
C857 C 0.03232 0.45028 0.48551 0.0
H858 H 0.99565 0.44007 0.51598 0.0
H859 H 0.99752 0.41682 0.55555 0.0
H860 H 0.13075 0.43671 0.47146 0.0
H861 H 0.09665 0.45691 0.45327 0.0
H862 H 0.05355 0.4649 0.45586 0.0
H863 H 0.01694 0.45848 0.47825 0.0
Mn864 Mn 0.17742 0.33867 0.6417 0.0
Mn865 Mn 0.14886 0.30656 0.68635 0.0
C866 C 0.19618 0.32792 0.67859 0.0
C867 C 0.20013 0.33722 0.60583 0.0
C868 C 0.14774 0.36279 0.68177 0.0
O869 O 0.14792 0.32609 0.62204 0.0
O870 O 0.13201 0.3038 0.65307 0.0
C871 C 0.15855 0.25821 0.66216 0.0
N872 N 0.15726 0.2727 0.68348 0.0
C873 C 0.17339 0.24102 0.70887 0.0
C874 C 0.17277 0.225 0.68754 0.0
C875 C 0.16574 0.23381 0.66396 0.0
C876 C 0.16558 0.26501 0.70591 0.0
H877 H 0.15524 0.26569 0.64385 0.0
C878 C 0.13236 0.31099 0.63018 0.0
O879 O 0.18946 0.35714 0.61185 0.0
O880 O 0.19659 0.31812 0.61965 0.0
N881 N 0.16279 0.30606 0.7197 0.0
C882 C 0.16345 0.3241 0.73824 0.0
C883 C 0.17288 0.31939 0.76225 0.0
C884 C 0.18052 0.29571 0.76743 0.0
C885 C 0.17805 0.27683 0.74872 0.0
C886 C 0.16851 0.28271 0.72512 0.0
H887 H 0.15599 0.34157 0.73509 0.0
O888 O 0.20494 0.34544 0.66501 0.0
O889 O 0.17723 0.3168 0.66989 0.0
O890 O 0.16004 0.36485 0.66204 0.0
O891 O 0.14136 0.34196 0.69123 0.0
C892 C 0.18494 0.25247 0.7525 0.0
C893 C 0.1827 0.2346 0.73254 0.0
H894 H 0.17875 0.20633 0.6888 0.0
H895 H 0.16649 0.22207 0.64711 0.0
H896 H 0.17383 0.33384 0.77687 0.0
H897 H 0.18786 0.29212 0.78594 0.0
H898 H 0.19247 0.24744 0.7705 0.0
H899 H 0.18878 0.21616 0.7354 0.0
Mn900 Mn 0.33563 0.66549 0.15959 0.0
Mn901 Mn 0.37047 0.68901 0.20725 0.0
C902 C 0.32103 0.68642 0.19348 0.0
C903 C 0.31293 0.67083 0.1233 0.0
C904 C 0.35847 0.63419 0.19964 0.0
O905 O 0.36698 0.66911 0.1427 0.0
O906 O 0.38856 0.68509 0.17632 0.0
C907 C 0.38235 0.73888 0.18775 0.0
N908 N 0.37251 0.72444 0.20569 0.0
C909 C 0.36087 0.76045 0.2291 0.0
C910 C 0.37095 0.77566 0.21091 0.0
C911 C 0.38174 0.76482 0.19015 0.0
C912 C 0.36224 0.7347 0.22587 0.0
H913 H 0.39062 0.73069 0.17173 0.0
C914 C 0.38602 0.67806 0.153 0.0
O915 O 0.31887 0.6489 0.12979 0.0
O916 O 0.32201 0.6896 0.13631 0.0
N917 N 0.35355 0.69406 0.23749 0.0
C918 C 0.34317 0.67678 0.25235 0.0
C919 C 0.33063 0.6846 0.27325 0.0
C920 C 0.32893 0.71006 0.27869 0.0
C921 C 0.33975 0.7275 0.26314 0.0
C922 C 0.35208 0.71862 0.24261 0.0
H923 H 0.34419 0.65717 0.24812 0.0
O924 O 0.30816 0.66947 0.18134 0.0
O925 O 0.3423 0.68836 0.18685 0.0
O926 O 0.34541 0.63566 0.17998 0.0
O927 O 0.36892 0.65288 0.21082 0.0
C928 C 0.33835 0.75334 0.2669 0.0
C929 C 0.34904 0.7698 0.24999 0.0
H930 H 0.37032 0.79568 0.21255 0.0
H931 H 0.38951 0.77644 0.17598 0.0
H932 H 0.32209 0.67105 0.28501 0.0
H933 H 0.31907 0.71601 0.29471 0.0
H934 H 0.32889 0.76076 0.28258 0.0
H935 H 0.34773 0.78962 0.25299 0.0
Mn936 Mn 0.58253 0.59881 0.61403 0.0
Mn937 Mn 0.60112 0.54662 0.5857 0.0
C938 C 0.56984 0.58679 0.57341 0.0
C939 C 0.55492 0.62019 0.63695 0.0
C940 C 0.62884 0.59553 0.58702 0.0
O941 O 0.5954 0.57979 0.64472 0.0
O942 O 0.6071 0.54699 0.6223 0.0
C943 C 0.5689 0.50999 0.6088 0.0
N944 N 0.57854 0.51992 0.5879 0.0
C945 C 0.5632 0.48584 0.56145 0.0
C946 C 0.55302 0.47522 0.58264 0.0
C947 C 0.55564 0.48753 0.60637 0.0
C948 C 0.57534 0.50878 0.56485 0.0
H949 H 0.57161 0.51895 0.62721 0.0
C950 C 0.6046 0.55861 0.64326 0.0
O951 O 0.57599 0.62925 0.63503 0.0
O952 O 0.55069 0.59788 0.62783 0.0
N953 N 0.59662 0.54277 0.5499 0.0
C954 C 0.60706 0.55583 0.53128 0.0
C955 C 0.60561 0.5464 0.50626 0.0
C956 C 0.59442 0.52311 0.50088 0.0
C957 C 0.5842 0.5098 0.52046 0.0
C958 C 0.58522 0.5207 0.54476 0.0
H959 H 0.6166 0.5732 0.53552 0.0
O960 O 0.56902 0.6097 0.58117 0.0
O961 O 0.57765 0.57134 0.58957 0.0
O962 O 0.61526 0.6081 0.60055 0.0
O963 O 0.62522 0.57253 0.58164 0.0
C964 C 0.57325 0.48602 0.51688 0.0
C965 C 0.56239 0.47425 0.53726 0.0
H966 H 0.54332 0.45756 0.58094 0.0
H967 H 0.54793 0.47941 0.62284 0.0
H968 H 0.61365 0.55673 0.49129 0.0
H969 H 0.5938 0.5156 0.48166 0.0
H970 H 0.57269 0.47685 0.49839 0.0
H971 H 0.5537 0.45617 0.5342 0.0
Mn972 Mn 0.93097 0.39451 0.09307 0.0
Mn973 Mn 0.90778 0.45057 0.08542 0.0
C974 C 0.93895 0.41802 0.05786 0.0
C975 C 0.96013 0.36834 0.10682 0.0
C976 C 0.88197 0.40235 0.07087 0.0
O977 O 0.92051 0.40298 0.12929 0.0
O978 O 0.90362 0.43813 0.11919 0.0
C979 C 0.9402 0.47861 0.12112 0.0
N980 N 0.92949 0.47594 0.09792 0.0
C981 C 0.94254 0.517 0.08668 0.0
C982 C 0.95378 0.52025 0.11043 0.0
C983 C 0.95284 0.50083 0.12762 0.0
C984 C 0.93112 0.49405 0.08088 0.0
H985 H 0.93889 0.46403 0.13467 0.0
C986 C 0.90866 0.42171 0.13488 0.0
O987 O 0.93899 0.36 0.10238 0.0
O988 O 0.96416 0.39204 0.10466 0.0
N989 N 0.9098 0.46641 0.05372 0.0
C990 C 0.89769 0.46038 0.03182 0.0
C991 C 0.89634 0.47801 0.01289 0.0
C992 C 0.90658 0.5019 0.01708 0.0
C993 C 0.91897 0.5077 0.03974 0.0
C994 C 0.92025 0.48921 0.05765 0.0
H995 H 0.88867 0.44248 0.02908 0.0
O996 O 0.9413 0.39421 0.05734 0.0
O997 O 0.93269 0.42788 0.0791 0.0
O998 O 0.89702 0.38796 0.07976 0.0
O999 O 0.88463 0.42593 0.07184 0.0
C1000 C 0.9291 0.53144 0.0458 0.0
C1001 C 0.94146 0.53591 0.06892 0.0
H1002 H 0.96294 0.53765 0.11577 0.0
H1003 H 0.96133 0.50321 0.14604 0.0
H1004 H 0.88667 0.47354 0.99553 0.0
H1005 H 0.90429 0.5158 0.00304 0.0
H1006 H 0.92708 0.54657 0.03312 0.0
H1007 H 0.94945 0.55416 0.07315 0.0
Mn1008 Mn 0.66441 0.65966 0.65186 0.0
Mn1009 Mn 0.64848 0.68796 0.70584 0.0
C1010 C 0.68333 0.69665 0.66608 0.0
C1011 C 0.68993 0.63527 0.62894 0.0
C1012 C 0.62172 0.6913 0.65608 0.0
O1013 O 0.64853 0.63073 0.67031 0.0
O1014 O 0.637 0.65255 0.70434 0.0
C1015 C 0.67265 0.65987 0.74507 0.0
N1016 N 0.66978 0.68157 0.73294 0.0
C1017 C 0.69378 0.70429 0.76426 0.0
C1018 C 0.69703 0.68221 0.77694 0.0
C1019 C 0.68631 0.65994 0.76738 0.0
C1020 C 0.6799 0.70317 0.74214 0.0
H1021 H 0.66409 0.64271 0.7383 0.0
C1022 C 0.63885 0.63208 0.69182 0.0
O1023 O 0.66958 0.63983 0.61979 0.0
O1024 O 0.69429 0.64255 0.65207 0.0
N1025 N 0.65904 0.72202 0.71034 0.0
C1026 C 0.65047 0.74234 0.6993 0.0
C1027 C 0.6587 0.76621 0.70737 0.0
C1028 C 0.67508 0.76903 0.72737 0.0
C1029 C 0.68272 0.74794 0.73937 0.0
C1030 C 0.67429 0.72455 0.73012 0.0
H1031 H 0.63717 0.74044 0.68479 0.0
O1032 O 0.68169 0.69054 0.64222 0.0
O1033 O 0.67228 0.68161 0.68093 0.0
O1034 O 0.6335 0.67624 0.64319 0.0
O1035 O 0.62594 0.69656 0.67939 0.0
C1036 C 0.69746 0.74933 0.76095 0.0
C1037 C 0.70276 0.72754 0.77356 0.0
H1038 H 0.70739 0.6822 0.7943 0.0
H1039 H 0.68819 0.64298 0.7775 0.0
H1040 H 0.65215 0.7824 0.69848 0.0
H1041 H 0.68111 0.78748 0.73386 0.0
H1042 H 0.70403 0.7672 0.76852 0.0
H1043 H 0.71306 0.72885 0.79093 0.0
Mn1044 Mn 0.41255 0.40522 0.40099 0.0
Mn1045 Mn 0.38996 0.45275 0.43353 0.0
C1046 C 0.43424 0.4412 0.40918 0.0
C1047 C 0.43358 0.36928 0.40115 0.0
C1048 C 0.38115 0.44317 0.37754 0.0
O1049 O 0.38438 0.38844 0.41711 0.0
O1050 O 0.37144 0.42146 0.43858 0.0
C1051 C 0.39968 0.43541 0.48524 0.0
N1052 N 0.40179 0.45331 0.46764 0.0
C1053 C 0.42381 0.4806 0.49695 0.0
C1054 C 0.42171 0.46252 0.51543 0.0
C1055 C 0.40962 0.43982 0.50952 0.0
C1056 C 0.41338 0.47524 0.47312 0.0
H1057 H 0.39054 0.41786 0.48077 0.0
C1058 C 0.37045 0.39833 0.4323 0.0
O1059 O 0.42018 0.37411 0.38195 0.0
O1060 O 0.43339 0.38433 0.42057 0.0
N1061 N 0.40643 0.48421 0.43088 0.0
C1062 C 0.40822 0.49904 0.41047 0.0
C1063 C 0.42042 0.52213 0.413 0.0
C1064 C 0.4305 0.52985 0.43651 0.0
C1065 C 0.42825 0.51441 0.45729 0.0
C1066 C 0.41568 0.49168 0.4537 0.0
H1067 H 0.40056 0.49325 0.39233 0.0
O1068 O 0.43981 0.42616 0.39109 0.0
O1069 O 0.41649 0.43448 0.4224 0.0
O1070 O 0.3928 0.42367 0.3752 0.0
O1071 O 0.37779 0.45425 0.39864 0.0
C1072 C 0.4385 0.52039 0.48126 0.0
C1073 C 0.43631 0.50348 0.50106 0.0
H1074 H 0.42951 0.46576 0.53413 0.0
H1075 H 0.40805 0.42571 0.52364 0.0
H1076 H 0.42213 0.53392 0.39685 0.0
H1077 H 0.44008 0.54758 0.43832 0.0
H1078 H 0.44847 0.53774 0.48454 0.0
H1079 H 0.44461 0.5081 0.51928 0.0
Mn1080 Mn 0.09869 0.60014 0.91452 0.0
Mn1081 Mn 0.12896 0.55363 0.93914 0.0
C1082 C 0.0812 0.56124 0.91875 0.0
C1083 C 0.07506 0.63417 0.9201 0.0
C1084 C 0.13065 0.56701 0.88404 0.0
O1085 O 0.12647 0.61903 0.93174 0.0
O1086 O 0.14437 0.58647 0.94741 0.0
C1087 C 0.12043 0.56747 0.99258 0.0
N1088 N 0.12063 0.54987 0.97364 0.0
C1089 C 0.10575 0.51832 0.00106 0.0
C1090 C 0.10583 0.536 0.02094 0.0
C1091 C 0.11282 0.56074 0.01653 0.0
C1092 C 0.11316 0.52616 0.97743 0.0
H1093 H 0.12557 0.58659 0.98932 0.0
C1094 C 0.14237 0.60984 0.94518 0.0
O1095 O 0.08696 0.63143 0.89978 0.0
O1096 O 0.07766 0.61778 0.93728 0.0
N1097 N 0.1162 0.52039 0.93386 0.0
C1098 C 0.11505 0.50605 0.9122 0.0
C1099 C 0.10789 0.48087 0.91325 0.0
C1100 C 0.10164 0.47075 0.93638 0.0
C1101 C 0.103 0.48574 0.9584 0.0
C1102 C 0.11114 0.51047 0.95642 0.0
H1103 H 0.11993 0.51358 0.89431 0.0
O1104 O 0.07262 0.57688 0.90328 0.0
O1105 O 0.09943 0.569 0.93206 0.0
O1106 O 0.11771 0.58563 0.88555 0.0
O1107 O 0.13763 0.55532 0.90327 0.0
C1108 C 0.09642 0.47714 0.98221 0.0
C1109 C 0.09759 0.49349 0.00349 0.0
H1110 H 0.0999 0.53096 0.03946 0.0
H1111 H 0.11192 0.57466 0.03146 0.0
H1112 H 0.10742 0.46913 0.89638 0.0
H1113 H 0.0961 0.45138 0.93706 0.0
H1114 H 0.08998 0.45813 0.98425 0.0
H1115 H 0.09183 0.48689 0.02155 0.0
Mn1116 Mn 0.35326 0.34449 0.34771 0.0
Mn1117 Mn 0.32049 0.29297 0.35843 0.0
C1118 C 0.34695 0.31419 0.31589 0.0
C1119 C 0.35658 0.38374 0.32911 0.0
C1120 C 0.37066 0.29961 0.3766 0.0
O1121 O 0.33491 0.35573 0.37857 0.0
O1122 O 0.31514 0.31935 0.38419 0.0
C1123 C 0.27508 0.31433 0.34787 0.0
N1124 N 0.29083 0.29703 0.34263 0.0
C1125 C 0.26638 0.27876 0.30897 0.0
C1126 C 0.24981 0.29619 0.31425 0.0
C1127 C 0.25424 0.31411 0.3337 0.0
C1128 C 0.28681 0.27982 0.32381 0.0
H1129 H 0.27829 0.32818 0.36279 0.0
C1130 C 0.32006 0.34217 0.39021 0.0
O1131 O 0.37241 0.3766 0.34484 0.0
O1132 O 0.33815 0.3695 0.32665 0.0
N1133 N 0.32322 0.26603 0.33455 0.0
C1134 C 0.34014 0.24934 0.3332 0.0
C1135 C 0.33777 0.2294 0.31553 0.0
C1136 C 0.31803 0.22681 0.29948 0.0
C1137 C 0.30062 0.24389 0.30158 0.0
C1138 C 0.30373 0.26311 0.31988 0.0
H1139 H 0.3553 0.25113 0.34558 0.0
O1140 O 0.3652 0.32894 0.31635 0.0
O1141 O 0.33358 0.3169 0.33504 0.0
O1142 O 0.37403 0.32183 0.36881 0.0
O1143 O 0.3512 0.28738 0.3742 0.0
C1144 C 0.28035 0.2427 0.28616 0.0
C1145 C 0.26338 0.2603 0.28966 0.0
H1146 H 0.23352 0.29585 0.30372 0.0
H1147 H 0.24155 0.32765 0.33786 0.0
H1148 H 0.35113 0.21612 0.31419 0.0
H1149 H 0.3164 0.21158 0.28569 0.0
H1150 H 0.27767 0.22837 0.2715 0.0
H1151 H 0.24807 0.25943 0.27745 0.0
H1152 H 0.05007 0.05632 0.06309 0.0
H1153 H 0.02703 0.03694 0.02952 0.0
H1154 H 0.05018 0.0946 0.97921 0.0
H1155 H 0.07795 0.11065 0.01246 0.0
H1156 H 0.9931 0.05253 0.01106 0.0
H1157 H 0.0284 0.08478 0.93074 0.0
H1158 H 0.06274 0.10086 0.90841 0.0
H1159 H 0.1013 0.03996 0.93449 0.0
H1160 H 0.06701 0.02359 0.95689 0.0
H1161 H 0.9404 0.9429 0.9584 0.0
H1162 H 0.96447 0.97276 0.98047 0.0
H1163 H 0.98428 0.00511 0.90921 0.0
H1164 H 0.95929 0.9738 0.88729 0.0
H1165 H 0.01645 0.01681 0.92942 0.0
H1166 H 0.01132 0.98008 0.99748 0.0
H1167 H 0.00557 0.95368 0.03432 0.0
H1168 H 0.95254 1.00033 0.06045 0.0
H1169 H 0.95814 0.02712 0.02385 0.0
C1170 C 0.0517 0.06371 0.04439 0.0
C1171 C 0.06721 0.0835 0.03979 0.0
C1172 C 0.03764 0.0533 0.02521 0.0
C1173 C 0.03639 0.06428 0.00142 0.0
C1174 C 0.0511 0.08516 0.99693 0.0
C1175 C 0.06675 0.09453 0.01601 0.0
C1176 C 0.01884 0.05331 0.98279 0.0
C1177 C 0.99788 0.04478 0.99287 0.0
C1178 C 0.02497 0.04364 0.95901 0.0
C1179 C 0.04548 0.0533 0.94581 0.0
C1180 C 0.04427 0.07493 0.93174 0.0
C1181 C 0.06367 0.08407 0.91909 0.0
C1182 C 0.08425 0.07153 0.9202 0.0
C1183 C 0.0854 0.04975 0.93383 0.0
C1184 C 0.06603 0.04056 0.94653 0.0
C1185 C 0.95016 0.95641 0.9476 0.0
C1186 C 0.9477 0.95657 0.92138 0.0
C1187 C 0.96469 0.97394 0.96039 0.0
C1188 C 0.97797 0.99189 0.9473 0.0
C1189 C 0.97562 0.99131 0.92054 0.0
C1190 C 0.96098 0.97356 0.90773 0.0
C1191 C 0.99303 0.01206 0.96068 0.0
C1192 C 0.0114 0.02391 0.94769 0.0
C1193 C 0.98862 0.0213 0.98546 0.0
C1194 C 0.98413 0.00479 0.00702 0.0
C1195 C 0.99815 0.98447 0.01085 0.0
C1196 C 0.99501 0.9695 0.03177 0.0
C1197 C 0.97842 0.97507 0.0495 0.0
C1198 C 0.9651 0.99577 0.04645 0.0
C1199 C 0.96812 0.01076 0.0255 0.0
H1200 H 0.97609 0.96352 0.06575 0.0
H1201 H 0.09925 0.07862 0.9104 0.0
H1202 H 0.28547 0.6923 0.22585 0.0
H1203 H 0.26613 0.7313 0.23442 0.0
H1204 H 0.31274 0.76993 0.18476 0.0
H1205 H 0.33149 0.73143 0.17576 0.0
H1206 H 0.30767 0.79306 0.23325 0.0
H1207 H 0.26266 0.76136 0.16154 0.0
H1208 H 0.24154 0.72742 0.13718 0.0
H1209 H 0.19303 0.71921 0.19682 0.0
H1210 H 0.21402 0.7528 0.2217 0.0
H1211 H 0.23644 0.86471 0.3091 0.0
H1212 H 0.25628 0.85764 0.26947 0.0
H1213 H 0.21662 0.78784 0.25832 0.0
H1214 H 0.19396 0.79805 0.29383 0.0
H1215 H 0.22366 0.79991 0.21677 0.0
H1216 H 0.2925 0.80256 0.28936 0.0
H1217 H 0.31591 0.82997 0.31948 0.0
H1218 H 0.31859 0.88717 0.26446 0.0
H1219 H 0.29495 0.86006 0.2344 0.0
C1220 C 0.29153 0.70922 0.21703 0.0
C1221 C 0.31029 0.70925 0.20092 0.0
C1222 C 0.28052 0.73127 0.2217 0.0
C1223 C 0.28809 0.75317 0.20992 0.0
C1224 C 0.30678 0.75313 0.19388 0.0
C1225 C 0.31759 0.73122 0.18911 0.0
C1226 C 0.27689 0.77638 0.21513 0.0
C1227 C 0.2893 0.79473 0.2296 0.0
C1228 C 0.25335 0.77898 0.20899 0.0
C1229 C 0.23983 0.75979 0.19339 0.0
C1230 C 0.24743 0.75239 0.16941 0.0
C1231 C 0.23552 0.73315 0.15554 0.0
C1232 C 0.21592 0.72122 0.16541 0.0
C1233 C 0.20814 0.72856 0.18914 0.0
C1234 C 0.22 0.74776 0.2031 0.0
C1235 C 0.2323 0.84785 0.29799 0.0
C1236 C 0.21516 0.83062 0.30571 0.0
C1237 C 0.2438 0.84365 0.27542 0.0
C1238 C 0.23902 0.82159 0.26101 0.0
C1239 C 0.22111 0.80509 0.2686 0.0
C1240 C 0.20875 0.81019 0.28991 0.0
C1241 C 0.25335 0.81355 0.23962 0.0
C1242 C 0.24211 0.79863 0.22029 0.0
C1243 C 0.27777 0.81329 0.2422 0.0
C1244 C 0.29156 0.82966 0.26016 0.0
C1245 C 0.29788 0.82112 0.28403 0.0
C1246 C 0.31121 0.83654 0.30097 0.0
C1247 C 0.31858 0.86038 0.29395 0.0
C1248 C 0.31274 0.86878 0.26994 0.0
C1249 C 0.29937 0.85341 0.25298 0.0
H1250 H 0.32892 0.87231 0.30706 0.0
H1251 H 0.20679 0.70626 0.1547 0.0
H1252 H 0.48258 0.91582 0.57498 0.0
H1253 H 0.5051 0.9316 0.53962 0.0
H1254 H 0.44168 0.94195 0.49738 0.0
H1255 H 0.41986 0.92122 0.53082 0.0
H1256 H 0.47764 0.93863 0.4665 0.0
H1257 H 0.47163 0.975 0.55511 0.0
H1258 H 0.48608 0.97695 0.59938 0.0
H1259 H 0.55404 0.99814 0.57474 0.0
H1260 H 0.54022 0.99429 0.53038 0.0
H1261 H 0.53055 0.03959 0.3983 0.0
H1262 H 0.50308 0.01153 0.41906 0.0
H1263 H 0.54219 0.02549 0.48957 0.0
H1264 H 0.56316 0.05863 0.47045 0.0
H1265 H 0.50889 0.01787 0.50499 0.0
H1266 H 0.53409 0.96005 0.43409 0.0
H1267 H 0.53623 0.94731 0.38905 0.0
H1268 H 0.46342 0.95727 0.37887 0.0
H1269 H 0.46104 0.96988 0.42397 0.0
C1270 C 0.47359 0.92114 0.55788 0.0
C1271 C 0.44934 0.92079 0.55653 0.0
C1272 C 0.48641 0.92983 0.53764 0.0
C1273 C 0.4749 0.94 0.51696 0.0
C1274 C 0.45086 0.93566 0.51394 0.0
C1275 C 0.43826 0.92504 0.53339 0.0
C1276 C 0.48672 0.95876 0.50129 0.0
C1277 C 0.48562 0.95564 0.47485 0.0
C1278 C 0.49717 0.98098 0.51214 0.0
C1279 C 0.50471 0.98419 0.53928 0.0
C1280 C 0.48955 0.98016 0.55915 0.0
C1281 C 0.49771 0.98135 0.58428 0.0
C1282 C 0.52088 0.98801 0.58994 0.0
C1283 C 0.53604 0.99301 0.57042 0.0
C1284 C 0.52807 0.99096 0.54526 0.0
C1285 C 0.53274 0.03656 0.41836 0.0
C1286 C 0.55046 0.04955 0.43257 0.0
C1287 C 0.51736 0.0199 0.43025 0.0
C1288 C 0.52051 0.01476 0.45615 0.0
C1289 C 0.53823 0.02853 0.46986 0.0
C1290 C 0.55158 0.04681 0.45861 0.0
C1291 C 0.50585 0.99599 0.46997 0.0
C1292 C 0.50369 1.00006 0.49618 0.0
C1293 C 0.49619 0.97325 0.45915 0.0
C1294 C 0.49758 0.96632 0.4321 0.0
C1295 C 0.5187 0.95975 0.42208 0.0
C1296 C 0.51991 0.95249 0.39661 0.0
C1297 C 0.50001 0.95169 0.38102 0.0
C1298 C 0.47884 0.958 0.39093 0.0
C1299 C 0.47755 0.96514 0.41645 0.0
H1300 H 0.50096 0.94605 0.3613 0.0
H1301 H 0.52711 0.98916 0.60943 0.0
H1302 H 0.33434 0.23103 0.84186 0.0
H1303 H 0.30948 0.26109 0.82174 0.0
H1304 H 0.2731 0.20098 0.77958 0.0
H1305 H 0.29803 0.17128 0.79919 0.0
H1306 H 0.29235 0.23578 0.75046 0.0
H1307 H 0.247 0.23296 0.82567 0.0
H1308 H 0.2404 0.23799 0.87137 0.0
H1309 H 0.26133 0.31531 0.86875 0.0
H1310 H 0.26837 0.31066 0.82311 0.0
H1311 H 0.2057 0.28031 0.67979 0.0
H1312 H 0.22731 0.25969 0.71211 0.0
H1313 H 0.24451 0.33042 0.74997 0.0
H1314 H 0.21955 0.35077 0.71903 0.0
H1315 H 0.23872 0.29659 0.78388 0.0
H1316 H 0.28489 0.29901 0.70818 0.0
H1317 H 0.29109 0.29321 0.66241 0.0
H1318 H 0.26997 0.21604 0.66647 0.0
H1319 H 0.26345 0.22145 0.71212 0.0
C1320 C 0.32092 0.22445 0.82833 0.0
C1321 C 0.31849 0.19922 0.82111 0.0
C1322 C 0.30662 0.24147 0.81719 0.0
C1323 C 0.2895 0.23315 0.79932 0.0
C1324 C 0.28627 0.20769 0.79336 0.0
C1325 C 0.30069 0.19084 0.80419 0.0
C1326 C 0.27731 0.25079 0.78373 0.0
C1327 C 0.28075 0.24909 0.75774 0.0
C1328 C 0.26267 0.26868 0.79358 0.0
C1329 C 0.25852 0.27138 0.82104 0.0
C1330 C 0.25046 0.25097 0.83489 0.0
C1331 C 0.24657 0.25377 0.86078 0.0
C1332 C 0.25053 0.27693 0.87298 0.0
C1333 C 0.25832 0.29737 0.8593 0.0
C1334 C 0.26225 0.29466 0.83342 0.0
C1335 C 0.21352 0.29132 0.69545 0.0
C1336 C 0.21034 0.31674 0.69778 0.0
C1337 C 0.22637 0.27967 0.71356 0.0
C1338 C 0.23817 0.29361 0.73301 0.0
C1339 C 0.23554 0.31935 0.73506 0.0
C1340 C 0.22158 0.33093 0.71741 0.0
C1341 C 0.25365 0.28094 0.75042 0.0
C1342 C 0.25095 0.2837 0.77667 0.0
C1343 C 0.26938 0.26395 0.74094 0.0
C1344 C 0.27382 0.26063 0.71356 0.0
C1345 C 0.28162 0.28082 0.69928 0.0
C1346 C 0.28514 0.2776 0.67336 0.0
C1347 C 0.28096 0.25427 0.66155 0.0
C1348 C 0.27324 0.2341 0.67562 0.0
C1349 C 0.26967 0.23722 0.70152 0.0
H1350 H 0.28368 0.25183 0.64148 0.0
H1351 H 0.2475 0.27907 0.89301 0.0
H1352 H 0.01045 0.92098 0.4262 0.0
H1353 H 0.98896 0.95324 0.44731 0.0
H1354 H 0.05274 0.99761 0.45983 0.0
H1355 H 0.07417 0.96385 0.44226 0.0
H1356 H 0.03337 0.00219 0.49806 0.0
H1357 H 0.00479 0.01528 0.41451 0.0
H1358 H 0.98917 0.00329 0.37183 0.0
H1359 H 0.92917 0.96826 0.40434 0.0
H1360 H 0.94469 0.9797 0.44707 0.0
H1361 H 0.92899 0.08981 0.51455 0.0
H1362 H 0.95507 0.06853 0.48668 0.0
H1363 H 0.97576 0.02315 0.54878 0.0
H1364 H 0.95106 0.04606 0.57706 0.0
H1365 H 0.95595 0.02669 0.4687 0.0
H1366 H 0.02405 0.00456 0.54775 0.0
H1367 H 0.04503 0.02668 0.58347 0.0
H1368 H 0.03368 0.09647 0.54908 0.0
H1369 H 0.01315 0.07464 0.51293 0.0
C1370 C 0.01964 0.93761 0.43379 0.0
C1371 C 0.04374 0.9399 0.43362 0.0
C1372 C 0.00742 0.95629 0.4453 0.0
C1373 C 0.01916 0.97813 0.45497 0.0
C1374 C 0.04325 0.98085 0.45304 0.0
C1375 C 0.05548 0.96167 0.44289 0.0
C1376 C 0.0067 0.99741 0.46863 0.0
C1377 C 0.01648 0.00755 0.49145 0.0
C1378 C 0.98519 0.00551 0.45968 0.0
C1379 C 0.97572 0.99863 0.43399 0.0
C1380 C 0.98825 0.00505 0.41252 0.0
C1381 C 0.97945 0.99831 0.38831 0.0
C1382 C 0.95814 0.98512 0.38536 0.0
C1383 C 0.94559 0.97864 0.40662 0.0
C1384 C 0.95431 0.98538 0.43084 0.0
C1385 C 0.93943 0.07546 0.52217 0.0
C1386 C 0.93798 0.06902 0.5476 0.0
C1387 C 0.9542 0.0633 0.50628 0.0
C1388 C 0.96752 0.04437 0.51563 0.0
C1389 C 0.96619 0.0382 0.54128 0.0
C1390 C 0.95197 0.05101 0.55738 0.0
C1391 C 0.98217 0.03036 0.49852 0.0
C1392 C 0.97286 0.02132 0.4751 0.0
C1393 C 0.0049 0.02481 0.50586 0.0
C1394 C 0.0173 0.03791 0.52758 0.0
C1395 C 0.02644 0.02455 0.54763 0.0
C1396 C 0.03811 0.03706 0.56801 0.0
C1397 C 0.04074 0.06297 0.56852 0.0
C1398 C 0.03166 0.07641 0.54866 0.0
C1399 C 0.02 0.06397 0.52825 0.0
H1400 H 0.04976 0.07263 0.58432 0.0
H1401 H 0.95138 0.97985 0.36662 0.0
H1402 H 0.26352 0.79118 0.64812 0.0
H1403 H 0.22643 0.77325 0.66164 0.0
H1404 H 0.26221 0.71337 0.69555 0.0
H1405 H 0.29778 0.72826 0.67617 0.0
H1406 H 0.2241 0.69829 0.69348 0.0
H1407 H 0.25163 0.78395 0.71663 0.0
H1408 H 0.25818 0.8291 0.71167 0.0
H1409 H 0.18567 0.83582 0.69591 0.0
H1410 H 0.17884 0.79071 0.70066 0.0
H1411 H 0.19424 0.69167 0.81763 0.0
H1412 H 0.2128 0.7066 0.7799 0.0
H1413 H 0.14775 0.73283 0.75236 0.0
H1414 H 0.1292 0.71907 0.79142 0.0
H1415 H 0.18779 0.76456 0.74317 0.0
H1416 H 0.16305 0.67849 0.73554 0.0
H1417 H 0.16097 0.63669 0.75328 0.0
H1418 H 0.2344 0.63209 0.74693 0.0
H1419 H 0.2373 0.67463 0.73114 0.0
C1420 C 0.26319 0.77376 0.65786 0.0
C1421 C 0.28385 0.76231 0.66394 0.0
C1422 C 0.24203 0.76368 0.6659 0.0
C1423 C 0.24165 0.74341 0.68206 0.0
C1424 C 0.26187 0.72995 0.68451 0.0
C1425 C 0.2826 0.73893 0.67447 0.0
C1426 C 0.22181 0.73792 0.69892 0.0
C1427 C 0.21636 0.71293 0.70432 0.0
C1428 C 0.21047 0.75686 0.71253 0.0
C1429 C 0.21482 0.7839 0.70893 0.0
C1430 C 0.23711 0.79512 0.71239 0.0
C1431 C 0.24089 0.82066 0.70944 0.0
C1432 C 0.22235 0.83533 0.70353 0.0
C1433 C 0.20004 0.82444 0.70043 0.0
C1434 C 0.19624 0.79886 0.70315 0.0
C1435 C 0.18406 0.70149 0.80403 0.0
C1436 C 0.1605 0.70497 0.80767 0.0
C1437 C 0.1946 0.70968 0.78233 0.0
C1438 C 0.18151 0.72038 0.76324 0.0
C1439 C 0.15805 0.72452 0.76697 0.0
C1440 C 0.1475 0.71663 0.78909 0.0
C1441 C 0.19235 0.72547 0.73888 0.0
C1442 C 0.19548 0.75016 0.73189 0.0
C1443 C 0.2024 0.70643 0.72461 0.0
C1444 C 0.20038 0.67995 0.7321 0.0
C1445 C 0.17881 0.66869 0.73805 0.0
C1446 C 0.17751 0.64491 0.74799 0.0
C1447 C 0.19749 0.63167 0.75102 0.0
C1448 C 0.2189 0.64232 0.74445 0.0
C1449 C 0.22041 0.66638 0.7352 0.0
H1450 H 0.19638 0.61316 0.75848 0.0
H1451 H 0.22528 0.85511 0.70133 0.0
H1452 H 0.4632 0.07079 0.01706 0.0
H1453 H 0.50132 0.05656 0.02896 0.0
H1454 H 0.52689 0.07858 0.9563 0.0
H1455 H 0.48796 0.08857 0.94336 0.0
H1456 H 0.54173 0.03967 0.96083 0.0
H1457 H 0.54768 0.10537 0.01942 0.0
H1458 H 0.53628 0.13551 0.05209 0.0
H1459 H 0.52698 0.07686 0.10475 0.0
H1460 H 0.53794 0.04628 0.07234 0.0
H1461 H 0.62091 0.95972 0.04029 0.0
H1462 H 0.61428 0.99909 0.01968 0.0
H1463 H 0.5407 0.98616 0.02734 0.0
H1464 H 0.54753 0.94898 0.0509 0.0
H1465 H 0.57219 0.03582 0.04885 0.0
H1466 H 0.54146 0.99879 0.94523 0.0
H1467 H 0.55738 0.97411 0.91074 0.0
H1468 H 0.62538 0.98446 0.94474 0.0
H1469 H 0.61008 0.0107 0.97848 0.0
C1470 C 0.47696 0.07191 0.00363 0.0
C1471 C 0.4725 0.07897 0.97888 0.0
C1472 C 0.49903 0.06465 0.01063 0.0
C1473 C 0.51734 0.06636 0.99352 0.0
C1474 C 0.51315 0.07632 0.96969 0.0
C1475 C 0.49087 0.08209 0.9623 0.0
C1476 C 0.53957 0.05452 0.999 0.0
C1477 C 0.5486 0.03922 0.98002 0.0
C1478 C 0.54999 0.05517 0.02353 0.0
C1479 C 0.54378 0.07351 0.0434 0.0
C1480 C 0.54319 0.09887 0.03796 0.0
C1481 C 0.53677 0.11604 0.05644 0.0
C1482 C 0.53095 0.10811 0.08049 0.0
C1483 C 0.53158 0.08299 0.08614 0.0
C1484 C 0.53797 0.06573 0.06773 0.0
C1485 C 0.60332 0.96511 0.03694 0.0
C1486 C 0.58453 0.9507 0.04592 0.0
C1487 C 0.59957 0.9874 0.02493 0.0
C1488 C 0.57694 0.99488 0.02097 0.0
C1489 C 0.55823 0.98015 0.02943 0.0
C1490 C 0.56206 0.95866 0.04245 0.0
C1491 C 0.5719 0.01942 0.01138 0.0
C1492 C 0.56591 0.03729 0.02947 0.0
C1493 C 0.5651 0.02187 0.98582 0.0
C1494 C 0.57432 0.00592 0.9653 0.0
C1495 C 0.55976 0.99581 0.94554 0.0
C1496 C 0.56876 0.98181 0.92581 0.0
C1497 C 0.59234 0.97741 0.92571 0.0
C1498 C 0.60704 0.98753 0.94503 0.0
C1499 C 0.59817 0.002 0.96449 0.0
H1500 H 0.59924 0.96634 0.91057 0.0
H1501 H 0.52595 0.12143 0.09476 0.0
H1502 H 0.34616 0.27128 0.28664 0.0
H1503 H 0.32162 0.26242 0.24885 0.0
H1504 H 0.3054 0.33986 0.24727 0.0
H1505 H 0.32633 0.34716 0.28711 0.0
H1506 H 0.26899 0.31834 0.2441 0.0
H1507 H 0.33564 0.30497 0.19711 0.0
H1508 H 0.37388 0.28935 0.18745 0.0
H1509 H 0.34578 0.21429 0.18869 0.0
H1510 H 0.30746 0.2294 0.19872 0.0
H1511 H 0.1905 0.2476 0.14717 0.0
H1512 H 0.22055 0.2797 0.1595 0.0
H1513 H 0.24424 0.23358 0.21938 0.0
H1514 H 0.2164 0.20069 0.20519 0.0
H1515 H 0.27744 0.25369 0.17725 0.0
H1516 H 0.23056 0.2992 0.26008 0.0
H1517 H 0.19474 0.3203 0.26957 0.0
H1518 H 0.18643 0.33798 0.19128 0.0
H1519 H 0.22283 0.31811 0.18177 0.0
C1520 C 0.33667 0.28599 0.2785 0.0
C1521 C 0.33631 0.30917 0.2908 0.0
C1522 C 0.32337 0.2813 0.25631 0.0
C1523 C 0.31124 0.30046 0.24515 0.0
C1524 C 0.31386 0.32453 0.2558 0.0
C1525 C 0.32582 0.32869 0.27868 0.0
C1526 C 0.29299 0.29485 0.22536 0.0
C1527 C 0.27121 0.30473 0.22901 0.0
C1528 C 0.29568 0.27764 0.20513 0.0
C1529 C 0.31862 0.26837 0.19862 0.0
C1530 C 0.33761 0.28513 0.19537 0.0
C1531 C 0.35931 0.27636 0.18985 0.0
C1532 C 0.36225 0.25084 0.18744 0.0
C1533 C 0.34347 0.23405 0.19049 0.0
C1534 C 0.32173 0.24272 0.19602 0.0
C1535 C 0.20181 0.24475 0.16337 0.0
C1536 C 0.20045 0.22226 0.17618 0.0
C1537 C 0.2188 0.26308 0.17044 0.0
C1538 C 0.23411 0.25916 0.19072 0.0
C1539 C 0.23221 0.23704 0.20396 0.0
C1540 C 0.21594 0.21849 0.19629 0.0
C1541 C 0.25389 0.27634 0.1972 0.0
C1542 C 0.27593 0.2684 0.19142 0.0
C1543 C 0.25167 0.29594 0.21488 0.0
C1544 C 0.22908 0.30657 0.22015 0.0
C1545 C 0.22103 0.30756 0.24496 0.0
C1546 C 0.20079 0.31957 0.25038 0.0
C1547 C 0.18826 0.33042 0.23101 0.0
C1548 C 0.19605 0.3294 0.20624 0.0
C1549 C 0.2165 0.31775 0.20084 0.0
H1550 H 0.17251 0.33958 0.2352 0.0
H1551 H 0.37907 0.24409 0.18321 0.0
H1552 H 0.41983 0.57201 0.01938 0.0
H1553 H 0.43907 0.54575 0.98909 0.0
H1554 H 0.47394 0.5107 0.05061 0.0
H1555 H 0.45222 0.5349 0.08118 0.0
H1556 H 0.49267 0.54859 0.99793 0.0
H1557 H 0.4658 0.47127 0.0352 0.0
H1558 H 0.44221 0.43507 0.04829 0.0
H1559 H 0.40991 0.42843 0.9743 0.0
H1560 H 0.43273 0.46538 0.96109 0.0
H1561 H 0.5735 0.4695 0.95227 0.0
H1562 H 0.54614 0.49679 0.97098 0.0
H1563 H 0.49338 0.46906 0.91668 0.0
H1564 H 0.52081 0.44022 0.89902 0.0
H1565 H 0.47816 0.46443 0.95971 0.0
H1566 H 0.51393 0.53336 0.92196 0.0
H1567 H 0.54549 0.56135 0.90746 0.0
H1568 H 0.56787 0.57724 0.98444 0.0
H1569 H 0.53668 0.54906 0.99943 0.0
C1570 C 0.43046 0.55757 0.02641 0.0
C1571 C 0.43353 0.5543 0.05246 0.0
C1572 C 0.44153 0.54271 0.00913 0.0
C1573 C 0.45689 0.52529 0.01762 0.0
C1574 C 0.4609 0.52274 0.04371 0.0
C1575 C 0.44894 0.53693 0.06111 0.0
C1576 C 0.4721 0.51431 0.99907 0.0
C1577 C 0.48997 0.52988 0.98999 0.0
C1578 C 0.46758 0.49045 0.98791 0.0
C1579 C 0.45044 0.47184 0.99743 0.0
C1580 C 0.45292 0.46296 0.02207 0.0
C1581 C 0.43996 0.44194 0.02939 0.0
C1582 C 0.42462 0.42937 0.01213 0.0
C1583 C 0.42184 0.43813 0.98766 0.0
C1584 C 0.4346 0.45928 0.98035 0.0
C1585 C 0.55603 0.46931 0.94437 0.0
C1586 C 0.54867 0.45209 0.92525 0.0
C1587 C 0.54055 0.48542 0.95458 0.0
C1588 C 0.51766 0.48518 0.94516 0.0
C1589 C 0.51095 0.46948 0.92432 0.0
C1590 C 0.52646 0.45299 0.91434 0.0
C1591 C 0.50018 0.49762 0.96016 0.0
C1592 C 0.48125 0.4829 0.96797 0.0
C1593 C 0.50422 0.52182 0.97073 0.0
C1594 C 0.52293 0.53902 0.96182 0.0
C1595 C 0.52564 0.54271 0.93581 0.0
C1596 C 0.54347 0.55863 0.9275 0.0
C1597 C 0.55868 0.57106 0.94502 0.0
C1598 C 0.55606 0.56763 0.97089 0.0
C1599 C 0.53826 0.55173 0.97931 0.0
H1600 H 0.57248 0.58336 0.93854 0.0
H1601 H 0.41479 0.41295 0.01775 0.0
H1602 H 0.77111 0.31814 0.16367 0.0
H1603 H 0.73209 0.30243 0.17237 0.0
H1604 H 0.75959 0.23357 0.19669 0.0
H1605 H 0.79793 0.24796 0.18347 0.0
H1606 H 0.72089 0.22326 0.17652 0.0
H1607 H 0.74601 0.29526 0.23547 0.0
H1608 H 0.75485 0.34023 0.24317 0.0
H1609 H 0.68902 0.35681 0.21071 0.0
H1610 H 0.67995 0.3122 0.20207 0.0
H1611 H 0.6836 0.18286 0.28743 0.0
H1612 H 0.70017 0.20196 0.25054 0.0
H1613 H 0.63985 0.24543 0.24142 0.0
H1614 H 0.62311 0.226 0.27904 0.0
H1615 H 0.67928 0.27364 0.23881 0.0
H1616 H 0.64911 0.20464 0.19501 0.0
H1617 H 0.63609 0.16109 0.18612 0.0
H1618 H 0.70653 0.13944 0.18885 0.0
H1619 H 0.72002 0.18284 0.19817 0.0
C1620 C 0.76874 0.29959 0.17076 0.0
C1621 C 0.78773 0.28474 0.17463 0.0
C1622 C 0.74642 0.2907 0.17595 0.0
C1623 C 0.74286 0.2673 0.18653 0.0
C1624 C 0.7618 0.25196 0.18909 0.0
C1625 C 0.78392 0.26038 0.18236 0.0
C1626 C 0.71993 0.25885 0.19597 0.0
C1627 C 0.71196 0.23425 0.19032 0.0
C1628 C 0.7068 0.27378 0.21224 0.0
C1629 C 0.71248 0.30047 0.21777 0.0
C1630 C 0.73351 0.30853 0.22986 0.0
C1631 C 0.73856 0.3339 0.23438 0.0
C1632 C 0.72258 0.35128 0.22748 0.0
C1633 C 0.70144 0.34335 0.21599 0.0
C1634 C 0.69636 0.31806 0.21118 0.0
C1635 C 0.67388 0.19647 0.27752 0.0
C1636 C 0.6525 0.2036 0.2862 0.0
C1637 C 0.68314 0.20708 0.25622 0.0
C1638 C 0.67103 0.22476 0.24296 0.0
C1639 C 0.64931 0.23161 0.2513 0.0
C1640 C 0.63986 0.22069 0.27269 0.0
C1641 C 0.6827 0.23732 0.22203 0.0
C1642 C 0.68811 0.26278 0.22482 0.0
C1643 C 0.69333 0.22334 0.20304 0.0
C1644 C 0.68559 0.1971 0.19715 0.0
C1645 C 0.66185 0.1906 0.19379 0.0
C1646 C 0.65438 0.16593 0.18868 0.0
C1647 C 0.67047 0.14754 0.18681 0.0
C1648 C 0.69409 0.15375 0.19017 0.0
C1649 C 0.70167 0.17842 0.19529 0.0
H1650 H 0.66458 0.1285 0.18269 0.0
H1651 H 0.72658 0.37088 0.23106 0.0
H1652 H 0.11024 0.47168 0.52148 0.0
H1653 H 0.08362 0.5027 0.50582 0.0
H1654 H 0.04518 0.49655 0.57442 0.0
H1655 H 0.07028 0.46478 0.58886 0.0
H1656 H 0.02041 0.48216 0.53283 0.0
H1657 H 0.07174 0.55003 0.56107 0.0
H1658 H 0.10842 0.57523 0.56326 0.0
H1659 H 0.10223 0.58855 0.48375 0.0
H1660 H 0.06566 0.56308 0.481 0.0
H1661 H 0.94564 0.59344 0.50954 0.0
H1662 H 0.97874 0.57293 0.5287 0.0
H1663 H 0.98102 0.52458 0.4627 0.0
H1664 H 0.94808 0.54416 0.44411 0.0
H1665 H 0.02471 0.5684 0.50298 0.0
H1666 H 0.98505 0.4839 0.47485 0.0
H1667 H 0.9569 0.44835 0.47507 0.0
H1668 H 0.94416 0.46359 0.55348 0.0
H1669 H 0.97287 0.49897 0.55377 0.0
C1670 C 0.0962 0.47728 0.53313 0.0
C1671 C 0.09161 0.46533 0.55582 0.0
C1672 C 0.0813 0.49523 0.52444 0.0
C1673 C 0.06236 0.50176 0.53896 0.0
C1674 C 0.0596 0.49169 0.56289 0.0
C1675 C 0.07389 0.47346 0.57108 0.0
C1676 C 0.04268 0.51453 0.52778 0.0
C1677 C 0.02149 0.50096 0.52612 0.0
C1678 C 0.04411 0.5391 0.51916 0.0
C1679 C 0.06608 0.55441 0.52078 0.0
C1680 C 0.07831 0.5581 0.54399 0.0
C1681 C 0.09906 0.5725 0.54535 0.0
C1682 C 0.10769 0.58343 0.52364 0.0
C1683 C 0.09554 0.58004 0.50054 0.0
C1684 C 0.07479 0.56564 0.49908 0.0
C1685 C 0.95278 0.57782 0.49966 0.0
C1686 C 0.94372 0.56972 0.47583 0.0
C1687 C 0.97173 0.56633 0.51043 0.0
C1688 C 0.98195 0.54688 0.4973 0.0
C1689 C 0.97283 0.5388 0.4736 0.0
C1690 C 0.95382 0.54995 0.46307 0.0
C1691 C 0.00269 0.53554 0.50775 0.0
C1692 C 0.02393 0.54944 0.50935 0.0
C1693 C 0.00169 0.5109 0.5159 0.0
C1694 C 0.98061 0.49443 0.51415 0.0
C1695 C 0.97567 0.48023 0.49189 0.0
C1696 C 0.95996 0.4598 0.49205 0.0
C1697 C 0.94885 0.4536 0.51434 0.0
C1698 C 0.95289 0.46832 0.53628 0.0
C1699 C 0.96885 0.48859 0.53628 0.0
H1700 H 0.93694 0.43753 0.51454 0.0
H1701 H 0.12375 0.59458 0.52473 0.0
H1702 H 0.83417 0.7312 0.33983 0.0
H1703 H 0.81079 0.761 0.31746 0.0
H1704 H 0.76656 0.70017 0.28658 0.0
H1705 H 0.7913 0.67073 0.30665 0.0
H1706 H 0.77814 0.72527 0.2516 0.0
H1707 H 0.75044 0.74866 0.33314 0.0
H1708 H 0.75415 0.76306 0.37779 0.0
H1709 H 0.78863 0.83094 0.35547 0.0
H1710 H 0.78537 0.81683 0.31073 0.0
H1711 H 0.69831 0.78692 0.18353 0.0
H1712 H 0.72089 0.76352 0.21241 0.0
H1713 H 0.75202 0.83185 0.24526 0.0
H1714 H 0.72589 0.85542 0.2186 0.0
H1715 H 0.7478 0.80494 0.28065 0.0
H1716 H 0.7808 0.7841 0.20101 0.0
H1717 H 0.78173 0.77052 0.15612 0.0
H1718 H 0.74736 0.70098 0.17352 0.0
H1719 H 0.74603 0.71422 0.2184 0.0
C1720 C 0.81936 0.72445 0.32827 0.0
C1721 C 0.81479 0.6989 0.32413 0.0
C1722 C 0.80578 0.74143 0.31583 0.0
C1723 C 0.78676 0.73294 0.30031 0.0
C1724 C 0.78127 0.70728 0.29811 0.0
C1725 C 0.79539 0.69044 0.30951 0.0
C1726 C 0.77445 0.74996 0.28354 0.0
C1727 C 0.77198 0.74289 0.25793 0.0
C1728 C 0.76618 0.77303 0.29173 0.0
C1729 C 0.76782 0.78159 0.31861 0.0
C1730 C 0.75893 0.76659 0.33777 0.0
C1731 C 0.76093 0.77472 0.3631 0.0
C1732 C 0.77166 0.79787 0.36947 0.0
C1733 C 0.78033 0.81301 0.35052 0.0
C1734 C 0.77838 0.80497 0.32518 0.0
C1735 C 0.70963 0.79694 0.19731 0.0
C1736 C 0.70952 0.82278 0.1999 0.0
C1737 C 0.72328 0.78352 0.21334 0.0
C1738 C 0.73892 0.79567 0.23082 0.0
C1739 C 0.74003 0.82185 0.23217 0.0
C1740 C 0.72531 0.83535 0.21685 0.0
C1741 C 0.75304 0.7808 0.24824 0.0
C1742 C 0.7553 0.78799 0.27403 0.0
C1743 C 0.76243 0.75824 0.24007 0.0
C1744 C 0.76325 0.75022 0.21304 0.0
C1745 C 0.77337 0.76596 0.19522 0.0
C1746 C 0.77397 0.75831 0.16979 0.0
C1747 C 0.7646 0.73492 0.16198 0.0
C1748 C 0.75462 0.7191 0.17958 0.0
C1749 C 0.75398 0.72664 0.20502 0.0
H1750 H 0.76507 0.72904 0.14228 0.0
H1751 H 0.77323 0.80411 0.38908 0.0
H1752 H 0.78176 0.18463 0.71127 0.0
H1753 H 0.75807 0.22015 0.72173 0.0
H1754 H 0.80502 0.26883 0.68188 0.0
H1755 H 0.82818 0.23389 0.67121 0.0
H1756 H 0.79955 0.28292 0.73089 0.0
H1757 H 0.75428 0.26415 0.65846 0.0
H1758 H 0.73173 0.23859 0.62641 0.0
H1759 H 0.68112 0.21974 0.68158 0.0
H1760 H 0.70358 0.24479 0.71412 0.0
H1761 H 0.73094 0.35916 0.80826 0.0
H1762 H 0.75186 0.34621 0.77095 0.0
H1763 H 0.70761 0.27927 0.76423 0.0
H1764 H 0.68423 0.29502 0.79765 0.0
H1765 H 0.71493 0.29011 0.72164 0.0
H1766 H 0.78098 0.2807 0.78995 0.0
H1767 H 0.80713 0.29908 0.82404 0.0
H1768 H 0.81934 0.36387 0.77992 0.0
H1769 H 0.79333 0.3456 0.7458 0.0
C1770 C 0.78676 0.20291 0.70471 0.0
C1771 C 0.80709 0.20682 0.69135 0.0
C1772 C 0.77319 0.22302 0.71031 0.0
C1773 C 0.77983 0.24693 0.70225 0.0
C1774 C 0.79962 0.2505 0.68805 0.0
C1775 C 0.81301 0.23059 0.68245 0.0
C1776 C 0.76827 0.26866 0.71203 0.0
C1777 C 0.78106 0.28466 0.72885 0.0
C1778 C 0.74441 0.27145 0.70826 0.0
C1779 C 0.73069 0.25635 0.68879 0.0
C1780 C 0.73843 0.25441 0.66384 0.0
C1781 C 0.72565 0.24002 0.64556 0.0
C1782 C 0.705 0.22755 0.65196 0.0
C1783 C 0.6971 0.22944 0.67665 0.0
C1784 C 0.70984 0.24377 0.69501 0.0
C1785 C 0.72598 0.34162 0.79873 0.0
C1786 C 0.70713 0.32695 0.80695 0.0
C1787 C 0.73813 0.33402 0.77762 0.0
C1788 C 0.73215 0.31116 0.76518 0.0
C1789 C 0.71291 0.29694 0.77333 0.0
C1790 C 0.70002 0.30533 0.79324 0.0
C1791 C 0.74565 0.30119 0.74405 0.0
C1792 C 0.73344 0.28832 0.72395 0.0
C1793 C 0.77008 0.30047 0.74541 0.0
C1794 C 0.78454 0.3123 0.76612 0.0
C1795 C 0.78881 0.29913 0.78808 0.0
C1796 C 0.80375 0.30939 0.80718 0.0
C1797 C 0.81458 0.33282 0.80433 0.0
C1798 C 0.81073 0.34585 0.78223 0.0
C1799 C 0.79595 0.33552 0.76301 0.0
H1800 H 0.82614 0.34075 0.81912 0.0
H1801 H 0.69512 0.21643 0.63778 0.0
H1802 H 0.86312 0.77635 0.79891 0.0
H1803 H 0.85063 0.75479 0.7586 0.0
H1804 H 0.78537 0.79026 0.76165 0.0
H1805 H 0.79757 0.81123 0.80122 0.0
H1806 H 0.81059 0.72247 0.75129 0.0
H1807 H 0.77126 0.81073 0.7075 0.0
H1808 H 0.78414 0.85424 0.70095 0.0
H1809 H 0.85507 0.83432 0.7047 0.0
H1810 H 0.84266 0.79068 0.71128 0.0
H1811 H 0.69479 0.74463 0.68227 0.0
H1812 H 0.73235 0.76041 0.69982 0.0
H1813 H 0.76173 0.69076 0.6792 0.0
H1814 H 0.72365 0.67404 0.66608 0.0
H1815 H 0.77237 0.76993 0.68435 0.0
H1816 H 0.80917 0.68035 0.71564 0.0
H1817 H 0.79745 0.637 0.72487 0.0
H1818 H 0.73203 0.66027 0.75045 0.0
H1819 H 0.74344 0.70395 0.74186 0.0
C1820 C 0.84617 0.77935 0.79072 0.0
C1821 C 0.83097 0.79478 0.80316 0.0
C1822 C 0.83917 0.76728 0.76781 0.0
C1823 C 0.81734 0.77146 0.75698 0.0
C1824 C 0.80251 0.78728 0.76938 0.0
C1825 C 0.80931 0.79892 0.79216 0.0
C1826 C 0.80821 0.7579 0.73409 0.0
C1827 C 0.80254 0.7326 0.73626 0.0
C1828 C 0.79854 0.77107 0.71403 0.0
C1829 C 0.806 0.79734 0.70976 0.0
C1830 C 0.7896 0.81555 0.70671 0.0
C1831 C 0.79683 0.84029 0.70313 0.0
C1832 C 0.8204 0.84705 0.70243 0.0
C1833 C 0.83681 0.82909 0.70535 0.0
C1834 C 0.82969 0.80436 0.70908 0.0
C1835 C 0.70901 0.73246 0.6828 0.0
C1836 C 0.70593 0.70765 0.67468 0.0
C1837 C 0.73069 0.7416 0.69204 0.0
C1838 C 0.74985 0.72641 0.69177 0.0
C1839 C 0.74713 0.70247 0.68094 0.0
C1840 C 0.72528 0.69297 0.67321 0.0
C1841 C 0.77215 0.73538 0.70397 0.0
C1842 C 0.78058 0.75957 0.6991 0.0
C1843 C 0.78417 0.72122 0.72188 0.0
C1844 C 0.77705 0.6953 0.72776 0.0
C1845 C 0.7923 0.67623 0.72335 0.0
C1846 C 0.78571 0.65165 0.7285 0.0
C1847 C 0.76395 0.64595 0.73822 0.0
C1848 C 0.74881 0.66484 0.74297 0.0
C1849 C 0.75533 0.68949 0.73799 0.0
H1850 H 0.75881 0.6269 0.7421 0.0
H1851 H 0.82596 0.8662 0.69962 0.0
H1852 H 0.45655 0.47698 0.38207 0.0
H1853 H 0.4862 0.50805 0.39878 0.0
H1854 H 0.47828 0.47857 0.47341 0.0
H1855 H 0.45076 0.44673 0.45649 0.0
H1856 H 0.4843 0.54509 0.43642 0.0
H1857 H 0.5189 0.47367 0.50316 0.0
H1858 H 0.52616 0.42897 0.5032 0.0
H1859 H 0.54039 0.43021 0.42396 0.0
H1860 H 0.53318 0.47499 0.42348 0.0
H1861 H 0.53851 0.54882 0.56898 0.0
H1862 H 0.51899 0.53207 0.53052 0.0
H1863 H 0.55356 0.58868 0.48701 0.0
H1864 H 0.57276 0.60615 0.52622 0.0
H1865 H 0.54486 0.51382 0.49302 0.0
H1866 H 0.5143 0.58856 0.42889 0.0
H1867 H 0.50305 0.63214 0.4302 0.0
H1868 H 0.47926 0.62357 0.50587 0.0
H1869 H 0.49015 0.57986 0.50487 0.0
C1870 C 0.46148 0.47729 0.40198 0.0
C1871 C 0.45107 0.46034 0.41839 0.0
C1872 C 0.47819 0.49494 0.41144 0.0
C1873 C 0.48463 0.49526 0.43717 0.0
C1874 C 0.47406 0.47818 0.45332 0.0
C1875 C 0.45801 0.46035 0.44383 0.0
C1876 C 0.50238 0.51307 0.44803 0.0
C1877 C 0.4982 0.5385 0.44821 0.0
C1878 C 0.52057 0.50439 0.46311 0.0
C1879 C 0.52587 0.47772 0.46337 0.0
C1880 C 0.5239 0.46446 0.48583 0.0
C1881 C 0.52786 0.4391 0.4859 0.0
C1882 C 0.53386 0.42679 0.46363 0.0
C1883 C 0.53582 0.43981 0.44122 0.0
C1884 C 0.53177 0.46517 0.44102 0.0
C1885 C 0.54181 0.55777 0.55124 0.0
C1886 C 0.55755 0.57815 0.55015 0.0
C1887 C 0.53055 0.54838 0.52936 0.0
C1888 C 0.53503 0.55905 0.50595 0.0
C1889 C 0.54986 0.58031 0.50494 0.0
C1890 C 0.56088 0.59009 0.52716 0.0
C1891 C 0.52613 0.54549 0.48293 0.0
C1892 C 0.53216 0.52079 0.48025 0.0
C1893 C 0.50985 0.55494 0.46581 0.0
C1894 C 0.50342 0.58114 0.46694 0.0
C1895 C 0.50672 0.59603 0.44582 0.0
C1896 C 0.50038 0.62072 0.4465 0.0
C1897 C 0.49057 0.63066 0.46816 0.0
C1898 C 0.48701 0.61589 0.48917 0.0
C1899 C 0.49333 0.59117 0.48858 0.0
H1900 H 0.48564 0.64977 0.46864 0.0
H1901 H 0.53691 0.40715 0.46372 0.0
H1902 H 0.07256 0.54456 0.96511 0.0
H1903 H 0.04629 0.51021 0.97616 0.0
H1904 H 0.02551 0.49992 0.89797 0.0
H1905 H 0.0555 0.53098 0.88609 0.0
H1906 H 0.99732 0.52264 0.94876 0.0
H1907 H 0.02637 0.45412 0.90226 0.0
H1908 H 0.05534 0.42532 0.88761 0.0
H1909 H 0.06833 0.40397 0.96412 0.0
H1910 H 0.03977 0.43311 0.97926 0.0
H1911 H 0.93047 0.40744 0.0079 0.0
H1912 H 0.94655 0.42999 0.97211 0.0
H1913 H 0.97999 0.48413 0.02413 0.0
H1914 H 0.96456 0.46128 0.05975 0.0
H1915 H 0.99469 0.43376 0.97032 0.0
H1916 H 0.9877 0.52955 0.00468 0.0
H1917 H 0.9661 0.56748 0.01068 0.0
H1918 H 0.91417 0.53927 0.95656 0.0
H1919 H 0.93564 0.50116 0.95024 0.0
C1920 C 0.06425 0.53317 0.95007 0.0
C1921 C 0.06745 0.53888 0.92472 0.0
C1922 C 0.04899 0.51381 0.95636 0.0
C1923 C 0.03516 0.50138 0.93749 0.0
C1924 C 0.03758 0.50772 0.91222 0.0
C1925 C 0.05415 0.52591 0.9057 0.0
C1926 C 0.01406 0.4881 0.9454 0.0
C1927 C 0.99637 0.50302 0.95304 0.0
C1928 C 0.01311 0.46265 0.95063 0.0
C1929 C 0.0311 0.446 0.94189 0.0
C1930 C 0.03569 0.44363 0.916 0.0
C1931 C 0.05193 0.4271 0.90759 0.0
C1932 C 0.06358 0.41272 0.92491 0.0
C1933 C 0.05919 0.41502 0.95071 0.0
C1934 C 0.043 0.43156 0.95921 0.0
C1935 C 0.94086 0.42446 0.01153 0.0
C1936 C 0.94605 0.43297 0.0364 0.0
C1937 C 0.94975 0.43745 0.99116 0.0
C1938 C 0.96394 0.45906 0.99547 0.0
C1939 C 0.96842 0.46801 0.02034 0.0
C1940 C 0.95977 0.45487 0.04067 0.0
C1941 C 0.97843 0.46877 0.97514 0.0
C1942 C 0.99501 0.45314 0.96526 0.0
C1943 C 0.97892 0.49392 0.96841 0.0
C1944 C 0.96279 0.5122 0.97767 0.0
C1945 C 0.97122 0.53107 0.99479 0.0
C1946 C 0.9593 0.55282 0.99781 0.0
C1947 C 0.93876 0.55578 0.984 0.0
C1948 C 0.93003 0.53689 0.96731 0.0
C1949 C 0.94194 0.51509 0.96419 0.0
H1950 H 0.92958 0.57269 0.98629 0.0
H1951 H 0.07612 0.39991 0.91836 0.0
H1952 H 0.06459 0.07527 0.17559 0.0
H1953 H 0.0595 0.05086 0.21432 0.0
H1954 H 0.12249 0.0146 0.19645 0.0
H1955 H 0.12631 0.03694 0.15959 0.0
H1956 H 0.05424 1.00107 0.22013 0.0
H1957 H 0.17572 0.03987 0.26626 0.0
H1958 H 0.19786 0.05751 0.29943 0.0
H1959 H 0.14266 0.05588 0.35074 0.0
H1960 H 0.13419 0.03378 0.29791 0.0
H1961 H 0.16026 0.87733 0.27141 0.0
H1962 H 0.14851 0.90669 0.2442 0.0
H1963 H 0.08852 0.91469 0.29401 0.0
H1964 H 0.10347 0.88725 0.31922 0.0
H1965 H 0.12781 0.9853 0.21949 0.0
H1966 H 0.03189 0.95555 0.23536 0.0
H1967 H 0.00486 0.93169 0.20597 0.0
H1968 H 0.0577 0.92875 0.15056 0.0
H1969 H 0.08499 0.95258 0.17966 0.0
C1970 C 0.07741 0.06217 0.18067 0.0
C1971 C 0.09647 0.05874 0.1649 0.0
C1972 C 0.07434 0.04792 0.20275 0.0
C1973 C 0.09079 0.03068 0.21021 0.0
C1974 C 0.10903 0.02702 0.19323 0.0
C1975 C 0.11176 0.0406 0.17142 0.0
C1976 C 0.08795 0.01486 0.23389 0.0
C1977 C 0.07034 0.99594 0.22913 0.0
C1978 C 0.10853 0.00761 0.2487 0.0
C1979 C 0.13922 0.03153 0.28726 0.0
C1980 C 0.16628 0.04077 0.28363 0.0
C1981 C 0.18001 0.05203 0.30301 0.0
C1982 C 0.17149 0.05686 0.32665 0.0
C1983 C 0.14866 0.05118 0.33209 0.0
C1984 C 0.13286 0.03975 0.31472 0.0
C1985 C 0.14449 0.88645 0.27583 0.0
C1986 C 0.13308 0.88051 0.29776 0.0
C1987 C 0.13674 0.90501 0.25972 0.0
C1988 C 0.11609 0.92057 0.26319 0.0
C1989 C 0.10476 0.90937 0.28617 0.0
C1990 C 0.11312 0.89196 0.30251 0.0
C1991 C 0.10055 0.9622 0.23444 0.0
C1992 C 0.1127 0.98601 0.23101 0.0
C1993 C 0.0768 0.97048 0.22696 0.0
C1994 C 0.06067 0.95505 0.21 0.0
C1995 C 0.03777 0.94952 0.21702 0.0
C1996 C 0.02241 0.93609 0.20039 0.0
C1997 C 0.02963 0.92848 0.17652 0.0
C1998 C 0.0522 0.93442 0.16916 0.0
C1999 C 0.06764 0.94781 0.18573 0.0
H2000 H 0.01769 0.91814 0.16365 0.0
H2001 H 0.18283 0.06576 0.34112 0.0
H2002 H 0.34388 0.87251 0.6013 0.0
H2003 H 0.31348 0.85523 0.57033 0.0
H2004 H 0.34635 0.89458 0.51107 0.0
H2005 H 0.37864 0.90678 0.53955 0.0
H2006 H 0.3113 0.92147 0.52168 0.0
H2007 H 0.33163 0.83379 0.51766 0.0
H2008 H 0.34154 0.79296 0.53287 0.0
H2009 H 0.26948 0.77228 0.53939 0.0
H2010 H 0.25911 0.81332 0.52486 0.0
H2011 H 0.22456 0.87399 0.39019 0.0
H2012 H 0.25447 0.88678 0.42138 0.0
H2013 H 0.22102 0.84098 0.47645 0.0
H2014 H 0.19271 0.82577 0.44413 0.0
H2015 H 0.26031 0.83264 0.48452 0.0
H2016 H 0.22948 0.9323 0.48385 0.0
H2017 H 0.21194 0.96123 0.45521 0.0
H2018 H 0.26588 0.95095 0.40236 0.0
H2019 H 0.2834 0.92097 0.43014 0.0
C2020 C 0.34446 0.8772 0.58159 0.0
C2021 C 0.36213 0.89343 0.57316 0.0
C2022 C 0.32678 0.86815 0.56447 0.0
C2023 C 0.32586 0.87684 0.53982 0.0
C2024 C 0.34559 0.88934 0.53068 0.0
C2025 C 0.36371 0.89713 0.54713 0.0
C2026 C 0.30399 0.87781 0.52474 0.0
C2027 C 0.30018 0.90623 0.51328 0.0
C2028 C 0.28813 0.85235 0.51334 0.0
C2029 C 0.29458 0.82758 0.52196 0.0
C2030 C 0.31785 0.82111 0.5234 0.0
C2031 C 0.32358 0.79767 0.53155 0.0
C2032 C 0.30618 0.78019 0.53764 0.0
C2033 C 0.283 0.78596 0.5351 0.0
C2034 C 0.27722 0.80936 0.52693 0.0
C2035 C 0.22298 0.86771 0.40939 0.0
C2036 C 0.20567 0.84982 0.41518 0.0
C2037 C 0.23995 0.87559 0.42753 0.0
C2038 C 0.23927 0.86694 0.45229 0.0
C2039 C 0.22174 0.849 0.45794 0.0
C2040 C 0.20527 0.84039 0.43956 0.0
C2041 C 0.2577 0.87432 0.47176 0.0
C2042 C 0.26745 0.85102 0.48969 0.0
C2043 C 0.2685 0.9048 0.47672 0.0
C2044 C 0.25787 0.92382 0.4594 0.0
C2045 C 0.2375 0.9355 0.46599 0.0
C2046 C 0.22755 0.95236 0.44985 0.0
C2047 C 0.23775 0.95793 0.42695 0.0
C2048 C 0.258 0.94669 0.42017 0.0
C2049 C 0.26801 0.9298 0.43622 0.0
H2050 H 0.23001 0.97099 0.41449 0.0
H2051 H 0.31065 0.76205 0.54394 0.0
H2052 H 0.33154 0.07528 0.81392 0.0
H2053 H 0.32974 0.03467 0.79258 0.0
H2054 H 0.4022 0.04317 0.77605 0.0
H2055 H 0.40358 0.08505 0.79633 0.0
H2056 H 0.33684 0.02354 0.74551 0.0
H2057 H 0.43028 0.94862 0.79487 0.0
H2058 H 0.44449 0.93005 0.829 0.0
H2059 H 0.38611 0.94425 0.87236 0.0
H2060 H 0.36673 0.96004 0.83864 0.0
H2061 H 0.42181 0.9775 0.68301 0.0
H2062 H 0.4055 0.99286 0.72262 0.0
H2063 H 0.34999 0.93701 0.71336 0.0
H2064 H 0.36553 0.92278 0.67395 0.0
H2065 H 0.36819 0.93319 0.79694 0.0
H2066 H 0.30906 0.9543 0.73603 0.0
H2067 H 0.28404 0.9453 0.69814 0.0
H2068 H 0.32523 0.99726 0.65611 0.0
H2069 H 0.35056 0.00647 0.69382 0.0
C2070 C 0.34728 0.06823 0.80644 0.0
C2071 C 0.36798 0.08287 0.80798 0.0
C2072 C 0.34622 0.04497 0.79395 0.0
C2073 C 0.36615 0.03486 0.7838 0.0
C2074 C 0.38684 0.04981 0.78473 0.0
C2075 C 0.38768 0.07365 0.79653 0.0
C2076 C 0.3642 0.00953 0.76994 0.0
C2077 C 0.34761 0.0086 0.75117 0.0
C2078 C 0.37427 0.97656 0.77156 0.0
C2079 C 0.39262 0.95733 0.8059 0.0
C2080 C 0.4171 0.9472 0.80871 0.0
C2081 C 0.42713 0.93668 0.82994 0.0
C2082 C 0.41608 0.93551 0.85249 0.0
C2083 C 0.39469 0.94502 0.85441 0.0
C2084 C 0.38369 0.95527 0.83372 0.0
C2085 C 0.40627 0.9683 0.68978 0.0
C2086 C 0.39588 0.9475 0.67645 0.0
C2087 C 0.39697 0.97714 0.71253 0.0
C2088 C 0.37778 0.96465 0.72318 0.0
C2089 C 0.36594 0.94604 0.7075 0.0
C2090 C 0.37486 0.93759 0.68474 0.0
C2091 C 0.36956 0.97196 0.75173 0.0
C2092 C 0.37908 0.95921 0.788 0.0
C2093 C 0.3471 0.98579 0.74034 0.0
C2094 C 0.33189 0.98069 0.71755 0.0
C2095 C 0.3128 0.96374 0.71869 0.0
C2096 C 0.29857 0.95861 0.69726 0.0
C2097 C 0.30311 0.97061 0.67469 0.0
C2098 C 0.32179 0.98792 0.67357 0.0
C2099 C 0.33606 0.99313 0.69496 0.0
H2100 H 0.29212 0.96655 0.6581 0.0
H2101 H 0.42438 0.92759 0.86876 0.0
H2102 H 0.27521 0.12134 0.88225 0.0
H2103 H 0.24264 0.11789 0.91802 0.0
H2104 H 0.32398 0.13239 0.97936 0.0
H2105 H 0.34468 0.13258 0.93471 0.0
H2106 H 0.24639 0.08144 0.97463 0.0
H2107 H 0.24461 0.18613 0.00693 0.0
H2108 H 0.2482 0.22758 0.98833 0.0
H2109 H 0.23094 0.19548 0.91473 0.0
H2110 H 0.22634 0.15411 0.93307 0.0
H2111 H 0.18272 0.08115 0.08641 0.0
H2112 H 0.21287 0.08803 0.05546 0.0
H2113 H 0.17064 0.1405 0.01795 0.0
H2114 H 0.14154 0.13518 0.05028 0.0
H2115 H 0.20861 0.15523 0.00862 0.0
H2116 H 0.17823 0.07196 0.99869 0.0
H2117 H 0.16721 0.02944 0.0116 0.0
H2118 H 0.23804 0.01729 0.03167 0.0
H2119 H 0.24948 0.05976 0.01911 0.0
C2120 C 0.28148 0.12262 0.9017 0.0
C2121 C 0.31111 0.12665 0.90634 0.0
C2122 C 0.26053 0.12095 0.92419 0.0
C2123 C 0.26741 0.12349 0.95637 0.0
C2124 C 0.31275 0.12949 0.96258 0.0
C2125 C 0.32605 0.12975 0.93442 0.0
C2126 C 0.24614 0.12131 0.97394 0.0
C2127 C 0.23862 0.09776 0.98236 0.0
C2128 C 0.23346 0.14194 0.98234 0.0
C2129 C 0.23618 0.16679 0.97118 0.0
C2130 C 0.24161 0.18792 0.98677 0.0
C2131 C 0.24372 0.21143 0.9763 0.0
C2132 C 0.24013 0.21411 0.95031 0.0
C2133 C 0.23412 0.19333 0.93479 0.0
C2134 C 0.23191 0.1698 0.94519 0.0
C2135 C 0.18025 0.09482 0.07207 0.0
C2136 C 0.15977 0.10794 0.07128 0.0
C2137 C 0.19733 0.09831 0.05379 0.0
C2138 C 0.19405 0.11407 0.03322 0.0
C2139 C 0.17404 0.1281 0.03323 0.0
C2140 C 0.15732 0.12525 0.05204 0.0
C2141 C 0.21112 0.11575 0.01176 0.0
C2142 C 0.21701 0.139 0.00156 0.0
C2143 C 0.22149 0.09469 1.00087 0.0
C2144 C 0.21468 0.06906 0.00807 0.0
C2145 C 0.19143 0.06022 0.00591 0.0
C2146 C 0.18511 0.03616 0.01318 0.0
C2147 C 0.20189 0.02072 0.02248 0.0
C2148 C 0.22506 0.02927 0.02446 0.0
C2149 C 0.23148 0.05332 0.01723 0.0
H2150 H 0.19695 0.00211 0.02812 0.0
H2151 H 0.24178 0.23232 0.94222 0.0
H2152 H 0.11669 0.10884 0.19876 0.0
H2153 H 0.10749 0.07458 0.22316 0.0
H2154 H 0.17803 0.05186 0.22318 0.0
H2155 H 0.18777 0.08888 0.19777 0.0
H2156 H 0.16131 0.0039 0.23868 0.0
H2157 H 0.13805 0.08942 0.2748 0.0
H2158 H 0.12642 0.13242 0.28188 0.0
H2159 H 0.05491 0.10819 0.27191 0.0
H2160 H 0.06622 0.06506 0.26446 0.0
H2161 H 0.14443 0.94972 0.35291 0.0
H2162 H 0.14706 0.97799 0.31848 0.0
H2163 H 0.07539 0.99544 0.32692 0.0
H2164 H 0.07372 0.96811 0.36364 0.0
H2165 H 0.08464 0.0332 0.29842 0.0
H2166 H 0.08533 0.96166 0.29043 0.0
H2167 H 0.06105 0.92707 0.25908 0.0
H2168 H 0.12796 0.92167 0.20317 0.0
H2169 H 0.15518 0.95543 0.23534 0.0
C2170 C 0.1303 0.09644 0.20345 0.0
C2171 C 0.15271 0.10149 0.19619 0.0
C2172 C 0.12519 0.07645 0.21828 0.0
C2173 C 0.14189 0.06 0.22651 0.0
C2174 C 0.1645 0.06396 0.21769 0.0
C2175 C 0.16999 0.08493 0.20285 0.0
C2176 C 0.13449 0.0407 0.2453 0.0
C2177 C 0.14789 0.01024 0.25085 0.0
C2178 C 0.10977 0.04846 0.26426 0.0
C2179 C 0.10296 0.07422 0.26859 0.0
C2180 C 0.11986 0.09333 0.27391 0.0
C2181 C 0.11334 0.1177 0.27803 0.0
C2182 C 0.08994 0.12306 0.27721 0.0
C2183 C 0.07303 0.10403 0.27242 0.0
C2184 C 0.07948 0.07963 0.26827 0.0
C2185 C 0.12937 0.95985 0.34768 0.0
C2186 C 0.10884 0.9563 0.3605 0.0
C2187 C 0.13057 0.976 0.32752 0.0
C2188 C 0.11083 0.98805 0.31843 0.0
C2189 C 0.09077 0.98626 0.33287 0.0
C2190 C 0.08979 0.9704 0.3537 0.0
C2191 C 0.11137 0.99927 0.29228 0.0
C2192 C 0.09778 0.02707 0.28578 0.0
C2193 C 0.1348 0.98956 0.27493 0.0
C2194 C 0.12624 0.96247 0.26893 0.0
C2195 C 0.09551 0.95398 0.27584 0.0
C2196 C 0.07882 0.9323 0.25499 0.0
C2197 C 0.09191 0.91988 0.22769 0.0
C2198 C 0.12068 0.92886 0.22035 0.0
C2199 C 0.13806 0.94929 0.24104 0.0
H2200 H 0.08209 0.9068 0.21529 0.0
H2201 H 0.08491 0.14194 0.2804 0.0
H2202 H 0.27431 0.81051 0.60162 0.0
H2203 H 0.24812 0.82015 0.5671 0.0
H2204 H 0.26996 0.8976 0.57434 0.0
H2205 H 0.29543 0.88798 0.61092 0.0
H2206 H 0.21386 0.84734 0.57078 0.0
H2207 H 0.24995 0.92787 0.53041 0.0
H2208 H 0.27647 0.96124 0.50615 0.0
H2209 H 0.32227 0.90795 0.45598 0.0
H2210 H 0.3033 0.86413 0.47159 0.0
H2211 H 0.15952 0.91943 0.45654 0.0
H2212 H 0.19012 0.91466 0.48851 0.0
H2213 H 0.16926 0.83715 0.49423 0.0
H2214 H 0.13765 0.84252 0.46354 0.0
H2215 H 0.2246 0.89341 0.49309 0.0
H2216 H 0.18303 0.8139 0.55198 0.0
H2217 H 0.1441 0.80067 0.56589 0.0
H2218 H 0.12078 0.87408 0.55463 0.0
H2219 H 0.15962 0.88786 0.54108 0.0
C2220 C 0.27358 0.82963 0.59596 0.0
C2221 C 0.28713 0.84836 0.60877 0.0
C2222 C 0.25903 0.83512 0.57564 0.0
C2223 C 0.25809 0.85939 0.56659 0.0
C2224 C 0.27112 0.87852 0.57994 0.0
C2225 C 0.28528 0.87311 0.60118 0.0
C2226 C 0.23973 0.86442 0.54705 0.0
C2227 C 0.21688 0.85622 0.55291 0.0
C2228 C 0.24311 0.87673 0.52364 0.0
C2229 C 0.26551 0.88942 0.51411 0.0
C2230 C 0.26309 0.92102 0.51819 0.0
C2231 C 0.27959 0.94191 0.50231 0.0
C2232 C 0.30025 0.9362 0.48074 0.0
C2233 C 0.30909 0.9084 0.47009 0.0
C2234 C 0.2975 0.88113 0.48068 0.0
C2235 C 0.162 0.90119 0.464 0.0
C2236 C 0.14653 0.88121 0.45703 0.0
C2237 C 0.17932 0.8985 0.48267 0.0
C2238 C 0.18193 0.87562 0.49454 0.0
C2239 C 0.1673 0.85526 0.48631 0.0
C2240 C 0.14963 0.85813 0.46812 0.0
C2241 C 0.20081 0.87266 0.51424 0.0
C2242 C 0.22302 0.88212 0.50935 0.0
C2243 C 0.1976 0.85987 0.53686 0.0
C2244 C 0.17421 0.85181 0.54523 0.0
C2245 C 0.16962 0.82724 0.55256 0.0
C2246 C 0.14756 0.81965 0.56038 0.0
C2247 C 0.12996 0.8365 0.56106 0.0
C2248 C 0.1344 0.86101 0.55401 0.0
C2249 C 0.15643 0.86871 0.54623 0.0
H2250 H 0.11289 0.83058 0.5671 0.0
H2251 H 0.30869 0.95239 0.47275 0.0
H2252 H 0.36655 0.05002 0.87736 0.0
H2253 H 0.35651 0.02844 0.8374 0.0
H2254 H 0.42641 0.00506 0.83175 0.0
H2255 H 0.43645 0.02665 0.87188 0.0
H2256 H 0.40319 0.99738 0.79475 0.0
H2257 H 0.34579 0.98803 0.85595 0.0
H2258 H 0.3111 0.99993 0.87784 0.0
H2259 H 0.27265 0.99802 0.80729 0.0
H2260 H 0.30737 0.9863 0.7847 0.0
H2261 H 0.38303 0.87088 0.69439 0.0
H2262 H 0.3956 0.90767 0.71961 0.0
H2263 H 0.33557 0.89841 0.76576 0.0
H2264 H 0.3229 0.86201 0.7403 0.0
H2265 H 0.32527 0.93975 0.77663 0.0
H2266 H 0.44109 0.97631 0.73708 0.0
H2267 H 0.47574 0.95864 0.71916 0.0
H2268 H 0.45249 0.88603 0.74191 0.0
H2269 H 0.41772 0.90346 0.76004 0.0
C2270 C 0.37975 0.0404 0.86738 0.0
C2271 C 0.40212 0.03957 0.87781 0.0
C2272 C 0.37397 0.02784 0.84443 0.0
C2273 C 0.39046 0.01467 0.83124 0.0
C2274 C 0.41319 0.01504 0.84126 0.0
C2275 C 0.41891 0.02718 0.86439 0.0
C2276 C 0.38438 0.99847 0.80754 0.0
C2277 C 0.41138 0.98644 0.78114 0.0
C2278 C 0.34967 0.97928 0.80402 0.0
C2279 C 0.32955 0.98705 0.81836 0.0
C2280 C 0.33017 0.99033 0.84484 0.0
C2281 C 0.3104 0.99705 0.8575 0.0
C2282 C 0.28971 0.99997 0.84397 0.0
C2283 C 0.28873 0.99597 0.81776 0.0
C2284 C 0.30848 0.9893 0.80505 0.0
C2285 C 0.37265 0.87675 0.71003 0.0
C2286 C 0.35173 0.86393 0.71503 0.0
C2287 C 0.38029 0.89736 0.7252 0.0
C2288 C 0.36682 0.90602 0.74513 0.0
C2289 C 0.34629 0.89259 0.75045 0.0
C2290 C 0.33893 0.87172 0.73573 0.0
C2291 C 0.37152 0.93067 0.75813 0.0
C2292 C 0.34246 0.94851 0.77767 0.0
C2293 C 0.40529 0.95147 0.75946 0.0
C2294 C 0.42573 0.94082 0.74782 0.0
C2295 C 0.44294 0.95646 0.73753 0.0
C2296 C 0.46278 0.94655 0.72757 0.0
C2297 C 0.46604 0.9211 0.72876 0.0
C2298 C 0.44967 0.90563 0.74035 0.0
C2299 C 0.42979 0.91552 0.75025 0.0
H2300 H 0.48143 0.91345 0.72112 0.0
H2301 H 0.27442 0.00517 0.8538 0.0
H2302 H 0.34836 0.0452 0.97535 0.0
H2303 H 0.31741 0.05263 0.00513 0.0
H2304 H 0.34802 0.12546 0.02335 0.0
H2305 H 0.37868 0.11851 0.99312 0.0
H2306 H 0.32956 0.08519 0.06702 0.0
H2307 H 0.28502 0.15422 0.01089 0.0
H2308 H 0.28649 0.18193 0.96958 0.0
H2309 H 0.29596 0.08777 0.92394 0.0
H2310 H 0.29035 0.10154 0.98339 0.0
H2311 H 0.21879 0.16374 0.08451 0.0
H2312 H 0.25182 0.1508 0.06068 0.0
H2313 H 0.25477 0.08472 0.10507 0.0
H2314 H 0.22292 0.09924 0.13053 0.0
H2315 H 0.25786 0.11848 0.03116 0.0
H2316 H 0.3083 0.06019 0.10397 0.0
H2317 H 0.31694 0.06028 0.14991 0.0
H2318 H 0.30434 0.13803 0.15556 0.0
H2319 H 0.29593 0.13848 0.10965 0.0
C2320 C 0.34836 0.06291 0.98549 0.0
C2321 C 0.3657 0.08148 0.98147 0.0
C2322 C 0.33085 0.06698 0.00271 0.0
C2323 C 0.33053 0.08954 0.01645 0.0
C2324 C 0.34805 0.10789 0.01294 0.0
C2325 C 0.3653 0.10406 0.99534 0.0
C2326 C 0.31106 0.0947 0.03314 0.0
C2327 C 0.31355 0.09194 0.05934 0.0
C2328 C 0.29086 0.1048 0.02334 0.0
C2329 C 0.28876 0.1122 0.99479 0.0
C2330 C 0.28643 0.14412 0.99309 0.0
C2331 C 0.28731 0.16203 0.96724 0.0
C2332 C 0.29053 0.14962 0.93772 0.0
C2333 C 0.29371 0.1018 0.93889 0.0
C2334 C 0.29193 0.0912 0.9687 0.0
C2335 C 0.22658 0.14648 0.08907 0.0
C2336 C 0.21847 0.13231 0.10903 0.0
C2337 C 0.24547 0.13903 0.07552 0.0
C2338 C 0.25614 0.11682 0.08117 0.0
C2339 C 0.24742 0.10226 0.10077 0.0
C2340 C 0.22902 0.11028 0.11501 0.0
C2341 C 0.27552 0.10864 0.06553 0.0
C2342 C 0.27326 0.11101 0.03933 0.0
C2343 C 0.29623 0.09938 0.07581 0.0
C2344 C 0.30117 0.09925 0.10344 0.0
C2345 C 0.30739 0.0773 0.11503 0.0
C2346 C 0.31225 0.07726 0.14106 0.0
C2347 C 0.31108 0.09912 0.15566 0.0
C2348 C 0.30512 0.12108 0.14426 0.0
C2349 C 0.30027 0.12123 0.11824 0.0
H2350 H 0.31487 0.09905 0.17581 0.0
H2351 H 0.29108 0.16263 0.92218 0.0
H2352 H 0.89672 0.26625 0.20116 0.0
H2353 H 0.92775 0.23958 0.19056 0.0
H2354 H 0.92766 0.26684 0.11471 0.0
H2355 H 0.89568 0.29368 0.12502 0.0
H2356 H 0.92983 0.2131 0.11917 0.0
H2357 H 0.96136 0.28773 0.16258 0.0
H2358 H 0.96744 0.31682 0.19882 0.0
H2359 H 0.99787 0.25998 0.24207 0.0
H2360 H 0.9915 0.23022 0.20629 0.0
H2361 H 0.02812 0.14946 0.08496 0.0
H2362 H 0.99833 0.17908 0.09161 0.0
H2363 H 0.01894 0.18609 0.17077 0.0
H2364 H 0.05105 0.15917 0.16276 0.0
H2365 H 0.00628 0.22533 0.16315 0.0
H2366 H 0.96441 0.15007 0.13867 0.0
H2367 H 0.95278 0.1126 0.11279 0.0
H2368 H 0.93477 0.15805 0.05052 0.0
H2369 H 0.94651 0.19578 0.07594 0.0
C2370 C 0.90314 0.26685 0.18212 0.0
C2371 C 0.89358 0.28251 0.164 0.0
C2372 C 0.92099 0.25137 0.17613 0.0
C2373 C 0.93028 0.2513 0.15195 0.0
C2374 C 0.9208 0.26663 0.13357 0.0
C2375 C 0.90264 0.28213 0.13953 0.0
C2376 C 0.9502 0.23556 0.14631 0.0
C2377 C 0.94666 0.21586 0.12859 0.0
C2378 C 0.9717 0.23818 0.15994 0.0
C2379 C 0.97587 0.25654 0.18143 0.0
C2380 C 0.9691 0.28118 0.17983 0.0
C2381 C 0.97262 0.29788 0.20037 0.0
C2382 C 0.98294 0.29024 0.22279 0.0
C2383 C 0.98984 0.26589 0.22468 0.0
C2384 C 0.98633 0.24912 0.20418 0.0
C2385 C 0.02636 0.15761 0.10371 0.0
C2386 C 0.04204 0.15234 0.12325 0.0
C2387 C 0.00883 0.1742 0.10775 0.0
C2388 C 0.00533 0.18464 0.132 0.0
C2389 C 0.02095 0.1788 0.15173 0.0
C2390 C 0.03933 0.1632 0.14729 0.0
C2391 C 0.9858 0.20178 0.13668 0.0
C2392 C 0.98943 0.22206 0.15393 0.0
C2393 C 0.96359 0.19834 0.12452 0.0
C2394 C 0.95657 0.17572 0.10912 0.0
C2395 C 0.95809 0.15205 0.11941 0.0
C2396 C 0.95147 0.13078 0.10483 0.0
C2397 C 0.94311 0.13295 0.08 0.0
C2398 C 0.94129 0.1564 0.06973 0.0
C2399 C 0.9479 0.17774 0.08422 0.0
H2400 H 0.938 0.11645 0.06875 0.0
H2401 H 0.98569 0.30321 0.23866 0.0
H2402 H 0.54069 0.33286 0.93697 0.0
H2403 H 0.51029 0.30372 0.91997 0.0
H2404 H 0.52236 0.32944 0.84484 0.0
H2405 H 0.55293 0.35917 0.8618 0.0
H2406 H 0.46793 0.31832 0.88618 0.0
H2407 H 0.54436 0.287 0.83349 0.0
H2408 H 0.58105 0.26053 0.82475 0.0
H2409 H 0.55857 0.18908 0.87132 0.0
H2410 H 0.50382 0.23083 0.88602 0.0
H2411 H 0.42391 0.19899 0.8034 0.0
H2412 H 0.44928 0.23566 0.81188 0.0
H2413 H 0.42931 0.237 0.88984 0.0
H2414 H 0.40312 0.20038 0.88125 0.0
H2415 H 0.48482 0.24043 0.84048 0.0
H2416 H 0.43788 0.29775 0.91589 0.0
H2417 H 0.39783 0.30598 0.92717 0.0
H2418 H 0.37476 0.28975 0.85047 0.0
H2419 H 0.4147 0.28187 0.8386 0.0
C2420 C 0.53719 0.33227 0.91675 0.0
C2421 C 0.54974 0.34832 0.90079 0.0
C2422 C 0.51959 0.3156 0.90709 0.0
C2423 C 0.514 0.31421 0.88112 0.0
C2424 C 0.52644 0.33001 0.86495 0.0
C2425 C 0.54411 0.34687 0.87466 0.0
C2426 C 0.49498 0.29651 0.8712 0.0
C2427 C 0.47171 0.30117 0.8763 0.0
C2428 C 0.49954 0.27399 0.85856 0.0
C2429 C 0.52181 0.26201 0.86087 0.0
C2430 C 0.5449 0.26957 0.84308 0.0
C2431 C 0.5682 0.25222 0.83682 0.0
C2432 C 0.57331 0.22327 0.8469 0.0
C2433 C 0.5543 0.20773 0.8657 0.0
C2434 C 0.51948 0.23447 0.87522 0.0
C2435 C 0.42492 0.20685 0.82248 0.0
C2436 C 0.41143 0.19632 0.84166 0.0
C2437 C 0.43934 0.22815 0.82724 0.0
C2438 C 0.44093 0.23979 0.85137 0.0
C2439 C 0.42798 0.22902 0.87083 0.0
C2440 C 0.41336 0.20764 0.86603 0.0
C2441 C 0.4582 0.26127 0.8565 0.0
C2442 C 0.48103 0.25784 0.84987 0.0
C2443 C 0.45333 0.2836 0.86965 0.0
C2444 C 0.42933 0.28905 0.87641 0.0
C2445 C 0.42431 0.29612 0.90137 0.0
C2446 C 0.4016 0.3007 0.90788 0.0
C2447 C 0.38375 0.29834 0.88956 0.0
C2448 C 0.38859 0.29151 0.86466 0.0
C2449 C 0.41127 0.28697 0.85804 0.0
H2450 H 0.36618 0.30183 0.89466 0.0
H2451 H 0.58887 0.21452 0.84123 0.0
H2452 H 0.94589 0.67358 0.38443 0.0
H2453 H 0.97987 0.69968 0.37315 0.0
H2454 H 0.02479 0.6438 0.39839 0.0
H2455 H 0.99106 0.61715 0.40887 0.0
H2456 H 0.03733 0.68632 0.42007 0.0
H2457 H 0.01667 0.66136 0.33581 0.0
H2458 H 0.99404 0.65441 0.29603 0.0
H2459 H 0.98812 0.73301 0.28928 0.0
H2460 H 0.00962 0.7404 0.32967 0.0
H2461 H 0.14065 0.74993 0.38461 0.0
H2462 H 0.10758 0.72152 0.38996 0.0
H2463 H 0.06187 0.77753 0.36562 0.0
H2464 H 0.09524 0.8063 0.35952 0.0
H2465 H 0.04987 0.73482 0.34294 0.0
H2466 H 0.06888 0.75855 0.42935 0.0
H2467 H 0.09362 0.76472 0.46774 0.0
H2468 H 0.1057 0.68679 0.46764 0.0
H2469 H 0.08118 0.68018 0.42903 0.0
C2470 C 0.96296 0.66657 0.38685 0.0
C2471 C 0.9657 0.64329 0.39748 0.0
C2472 C 0.98229 0.6814 0.38016 0.0
C2473 C 0.00485 0.67389 0.38474 0.0
C2474 C 0.00762 0.65024 0.39468 0.0
C2475 C 0.98828 0.63498 0.40066 0.0
C2476 C 0.02517 0.69188 0.38193 0.0
C2477 C 0.04026 0.69654 0.40296 0.0
C2478 C 0.02864 0.70608 0.35995 0.0
C2479 C 0.01455 0.70145 0.33618 0.0
C2480 C 0.01012 0.67718 0.32623 0.0
C2481 C 0.99749 0.67314 0.30348 0.0
C2482 C 0.98958 0.69324 0.29016 0.0
C2483 C 0.99426 0.71743 0.29957 0.0
C2484 C 0.00654 0.72154 0.32251 0.0
C2485 C 0.1236 0.75654 0.38064 0.0
C2486 C 0.1208 0.78064 0.3716 0.0
C2487 C 0.10456 0.74014 0.3839 0.0
C2488 C 0.082 0.74734 0.37866 0.0
C2489 C 0.07902 0.7715 0.37 0.0
C2490 C 0.09816 0.78803 0.36663 0.0
C2491 C 0.06182 0.72914 0.381 0.0
C2492 C 0.04676 0.72455 0.35998 0.0
C2493 C 0.05841 0.71488 0.40287 0.0
C2494 C 0.07319 0.7189 0.42615 0.0
C2495 C 0.07683 0.74273 0.43741 0.0
C2496 C 0.09084 0.74631 0.45924 0.0
C2497 C 0.10124 0.72616 0.47012 0.0
C2498 C 0.09762 0.70239 0.4592 0.0
C2499 C 0.08364 0.69872 0.43735 0.0
H2500 H 0.11209 0.72897 0.48702 0.0
H2501 H 0.97988 0.69007 0.27251 0.0
H2502 H 0.96581 0.33802 0.14686 0.0
H2503 H 0.99638 0.30861 0.15335 0.0
H2504 H 0.02651 0.32894 0.08303 0.0
H2505 H 0.99685 0.35966 0.07712 0.0
H2506 H 0.02559 0.28157 0.08411 0.0
H2507 H 0.05223 0.3431 0.14426 0.0
H2508 H 0.05115 0.37362 0.17967 0.0
H2509 H 0.03197 0.3154 0.22997 0.0
H2510 H 0.03246 0.28456 0.19473 0.0
H2511 H 0.12456 0.20832 0.11347 0.0
H2512 H 0.09745 0.23985 0.102 0.0
H2513 H 0.05784 0.22313 0.16794 0.0
H2514 H 0.08563 0.19257 0.18014 0.0
H2515 H 0.06553 0.27027 0.16665 0.0
H2516 H 0.04479 0.20836 0.10129 0.0
H2517 H 0.0511 0.18156 0.06373 0.0
H2518 H 0.0663 0.2459 0.02011 0.0
H2519 H 0.06082 0.273 0.05748 0.0
C2520 C 0.97909 0.33638 0.13292 0.0
C2521 C 0.97904 0.35122 0.11156 0.0
C2522 C 0.99641 0.31938 0.13657 0.0
C2523 C 0.0136 0.31597 0.11866 0.0
C2524 C 0.0135 0.33089 0.09721 0.0
C2525 C 0.99661 0.34856 0.0939 0.0
C2526 C 0.03095 0.29626 0.12213 0.0
C2527 C 0.03465 0.27937 0.10205 0.0
C2528 C 0.04278 0.29303 0.14555 0.0
C2529 C 0.04215 0.31154 0.16677 0.0
C2530 C 0.04753 0.33682 0.16281 0.0
C2531 C 0.04705 0.35418 0.18286 0.0
C2532 C 0.04139 0.34646 0.20703 0.0
C2533 C 0.03626 0.32136 0.21121 0.0
C2534 C 0.03664 0.30393 0.19121 0.0
C2535 C 0.10969 0.21081 0.12514 0.0
C2536 C 0.10725 0.19766 0.14767 0.0
C2537 C 0.09415 0.22901 0.11858 0.0
C2538 C 0.07533 0.23406 0.13397 0.0
C2539 C 0.0722 0.21989 0.15572 0.0
C2540 C 0.088 0.20214 0.16258 0.0
C2541 C 0.05988 0.25517 0.12881 0.0
C2542 C 0.05654 0.27241 0.14866 0.0
C2543 C 0.04915 0.25916 0.10485 0.0
C2544 C 0.05241 0.24269 0.08234 0.0
C2545 C 0.04951 0.21675 0.08373 0.0
C2546 C 0.05298 0.20152 0.06248 0.0
C2547 C 0.05898 0.21201 0.03957 0.0
C2548 C 0.06163 0.23777 0.03787 0.0
C2549 C 0.0584 0.25307 0.05911 0.0
H2550 H 0.06161 0.20018 0.02315 0.0
H2551 H 0.04107 0.35993 0.22254 0.0
H2552 H 0.57641 0.67967 0.64184 0.0
H2553 H 0.54622 0.71005 0.63519 0.0
H2554 H 0.599 0.76917 0.63693 0.0
H2555 H 0.62877 0.73884 0.6423 0.0
H2556 H 0.56439 0.77442 0.67441 0.0
H2557 H 0.57173 0.75893 0.58586 0.0
H2558 H 0.57191 0.73407 0.54611 0.0
H2559 H 0.50048 0.71153 0.55511 0.0
H2560 H 0.50016 0.736 0.59513 0.0
H2561 H 0.49896 0.87968 0.63547 0.0
H2562 H 0.52683 0.8468 0.63639 0.0
H2563 H 0.4721 0.79311 0.65221 0.0
H2564 H 0.44391 0.82565 0.65067 0.0
H2565 H 0.50607 0.78397 0.60545 0.0
H2566 H 0.50035 0.79727 0.69578 0.0
H2567 H 0.50041 0.82313 0.73493 0.0
H2568 H 0.5696 0.85082 0.72108 0.0
H2569 H 0.5698 0.82537 0.6816 0.0
C2570 C 0.58138 0.69906 0.64017 0.0
C2571 C 0.60471 0.70699 0.64345 0.0
C2572 C 0.56424 0.71642 0.63648 0.0
C2573 C 0.57027 0.74202 0.63635 0.0
C2574 C 0.59381 0.74963 0.63746 0.0
C2575 C 0.61082 0.73226 0.64054 0.0
C2576 C 0.55228 0.76103 0.63745 0.0
C2577 C 0.55179 0.77657 0.65919 0.0
C2578 C 0.53554 0.76371 0.61783 0.0
C2579 C 0.53594 0.7489 0.59379 0.0
C2580 C 0.55615 0.74838 0.57958 0.0
C2581 C 0.55629 0.73444 0.55692 0.0
C2582 C 0.53626 0.7211 0.54814 0.0
C2583 C 0.51604 0.72177 0.56195 0.0
C2584 C 0.51587 0.73566 0.58462 0.0
C2585 C 0.49282 0.86094 0.63946 0.0
C2586 C 0.4691 0.8554 0.64292 0.0
C2587 C 0.50879 0.84211 0.63977 0.0
C2588 C 0.50143 0.81732 0.64356 0.0
C2589 C 0.478 0.8119 0.64826 0.0
C2590 C 0.46198 0.83067 0.64784 0.0
C2591 C 0.51827 0.79716 0.64241 0.0
C2592 C 0.51861 0.78156 0.62068 0.0
C2593 C 0.53498 0.79441 0.66194 0.0
C2594 C 0.53497 0.80969 0.68561 0.0
C2595 C 0.51548 0.80909 0.70095 0.0
C2596 C 0.51549 0.82362 0.72323 0.0
C2597 C 0.53497 0.83868 0.73045 0.0
C2598 C 0.55451 0.83919 0.71544 0.0
C2599 C 0.55457 0.8247 0.69312 0.0
H2600 H 0.53495 0.84991 0.74771 0.0
H2601 H 0.53639 0.71035 0.53057 0.0
H2602 H 0.93109 0.6844 0.31822 0.0
H2603 H 0.95953 0.71658 0.33305 0.0
H2604 H 0.91686 0.73372 0.39601 0.0
H2605 H 0.88962 0.70003 0.38279 0.0
H2606 H 0.95917 0.76176 0.33684 0.0
H2607 H 0.93301 0.75408 0.43115 0.0
H2608 H 0.92368 0.7273 0.467 0.0
H2609 H 0.98487 0.6872 0.45435 0.0
H2610 H 0.99448 0.71413 0.41879 0.0
H2611 H 0.03135 0.86305 0.38546 0.0
H2612 H 1.00002 0.83298 0.37344 0.0
H2613 H 0.03568 0.776 0.41222 0.0
H2614 H 0.06616 0.807 0.4263 0.0
H2615 H 0.99512 0.77014 0.42281 0.0
H2616 H 0.02855 0.78296 0.3405 0.0
H2617 H 0.04226 0.8085 0.30537 0.0
H2618 H 0.97463 0.83707 0.29615 0.0
H2619 H 0.96067 0.8119 0.33146 0.0
C2620 C 0.92832 0.69437 0.33585 0.0
C2621 C 0.90859 0.68895 0.34988 0.0
C2622 C 0.9445 0.71305 0.34424 0.0
C2623 C 0.94143 0.72705 0.36671 0.0
C2624 C 0.9212 0.72208 0.38018 0.0
C2625 C 0.90528 0.70291 0.37223 0.0
C2626 C 0.95889 0.74751 0.37457 0.0
C2627 C 0.96693 0.7635 0.35574 0.0
C2628 C 0.96924 0.75034 0.39927 0.0
C2629 C 0.9631 0.7342 0.42055 0.0
C2630 C 0.94393 0.73888 0.4354 0.0
C2631 C 0.93877 0.72397 0.45596 0.0
C2632 C 0.95325 0.70499 0.46246 0.0
C2633 C 0.97323 0.70136 0.44885 0.0
C2634 C 0.9784 0.71629 0.42836 0.0
C2635 C 0.03279 0.8439 0.39079 0.0
C2636 C 0.05143 0.83709 0.40617 0.0
C2637 C 0.01485 0.82662 0.38386 0.0
C2638 C 0.0156 0.80181 0.39124 0.0
C2639 C 0.03464 0.79493 0.40618 0.0
C2640 C 0.05222 0.81249 0.41392 0.0
C2641 C 0.99602 0.78339 0.38476 0.0
C2642 C 0.98745 0.76818 0.40389 0.0
C2643 C 0.98541 0.781 0.36031 0.0
C2644 C 0.99368 0.79575 0.33877 0.0
C2645 C 0.01669 0.79481 0.33107 0.0
C2646 C 0.02448 0.80919 0.31111 0.0
C2647 C 0.00934 0.82446 0.29858 0.0
C2648 C 0.98635 0.82526 0.30589 0.0
C2649 C 0.97849 0.8109 0.32584 0.0
H2650 H 0.01541 0.83563 0.28316 0.0
H2651 H 0.94927 0.69348 0.47838 0.0
H2652 H 0.49263 0.11171 0.89998 0.0
H2653 H 0.52238 0.14201 0.88752 0.0
H2654 H 0.47034 0.19506 0.87412 0.0
H2655 H 0.44016 0.16499 0.88768 0.0
H2656 H 0.5068 0.19038 0.83164 0.0
H2657 H 0.4913 0.19671 0.92866 0.0
H2658 H 0.48536 0.17315 0.96754 0.0
H2659 H 0.55715 0.1562 0.96973 0.0
H2660 H 0.56333 0.1793 0.93054 0.0
H2661 H 0.59263 0.32548 0.87995 0.0
H2662 H 0.55774 0.29822 0.88091 0.0
H2663 H 0.59871 0.2357 0.89555 0.0
H2664 H 0.63334 0.26264 0.89747 0.0
H2665 H 0.55761 0.23306 0.92324 0.0
H2666 H 0.55511 0.19841 0.80345 0.0
H2667 H 0.55442 0.20153 0.75711 0.0
H2668 H 0.50873 0.26173 0.76226 0.0
H2669 H 0.50919 0.25914 0.80838 0.0
C2670 C 0.4873 0.12966 0.89397 0.0
C2671 C 0.46396 0.13606 0.895 0.0
C2672 C 0.50443 0.14689 0.88685 0.0
C2673 C 0.49849 0.17061 0.88008 0.0
C2674 C 0.47511 0.17666 0.87933 0.0
C2675 C 0.45792 0.15956 0.88706 0.0
C2676 C 0.5166 0.18997 0.87616 0.0
C2677 C 0.51722 0.20035 0.84624 0.0
C2678 C 0.53124 0.20227 0.90272 0.0
C2679 C 0.52769 0.18937 0.9266 0.0
C2680 C 0.50575 0.18779 0.93735 0.0
C2681 C 0.50235 0.17455 0.95944 0.0
C2682 C 0.52085 0.16309 0.97105 0.0
C2683 C 0.54282 0.16502 0.96068 0.0
C2684 C 0.54628 0.17818 0.93855 0.0
C2685 C 0.59415 0.30607 0.88414 0.0
C2686 C 0.61593 0.29609 0.88739 0.0
C2687 C 0.57416 0.29042 0.88404 0.0
C2688 C 0.57574 0.2646 0.8856 0.0
C2689 C 0.59708 0.25537 0.8927 0.0
C2690 C 0.61695 0.27096 0.89385 0.0
C2691 C 0.5557 0.24599 0.87946 0.0
C2692 C 0.54937 0.22809 0.90509 0.0
C2693 C 0.53321 0.22627 0.83833 0.0
C2694 C 0.5332 0.22937 0.80984 0.0
C2695 C 0.5453 0.2127 0.79481 0.0
C2696 C 0.54482 0.21426 0.76846 0.0
C2697 C 0.53182 0.23207 0.75676 0.0
C2698 C 0.51908 0.24817 0.77137 0.0
C2699 C 0.51952 0.24668 0.79772 0.0
H2700 H 0.53142 0.23323 0.73635 0.0
H2701 H 0.51818 0.15279 0.9881 0.0
H2702 H 0.9052 0.11386 0.69616 0.0
H2703 H 0.90996 0.07531 0.71942 0.0
H2704 H 0.83779 0.0738 0.73784 0.0
H2705 H 0.83283 0.11156 0.71368 0.0
H2706 H 0.8849 0.0756 0.77807 0.0
H2707 H 0.82786 0.03398 0.71451 0.0
H2708 H 0.80539 0.0045 0.6741 0.0
H2709 H 0.87748 0.95987 0.66153 0.0
H2710 H 0.90046 0.99033 0.70103 0.0
H2711 H 0.85079 0.97536 0.85235 0.0
H2712 H 0.85072 0.00384 0.817 0.0
H2713 H 0.91615 0.97768 0.79336 0.0
H2714 H 0.91624 0.94886 0.82884 0.0
H2715 H 0.87863 0.98698 0.75102 0.0
H2716 H 0.92639 0.02961 0.81521 0.0
H2717 H 0.93909 0.04624 0.85738 0.0
H2718 H 0.87432 0.08105 0.86542 0.0
H2719 H 0.86153 0.06509 0.82289 0.0
C2720 C 0.89026 0.10476 0.70448 0.0
C2721 C 0.86853 0.11521 0.70262 0.0
C2722 C 0.89298 0.08284 0.7178 0.0
C2723 C 0.87407 0.07127 0.72978 0.0
C2724 C 0.85242 0.08192 0.7281 0.0
C2725 C 0.8496 0.10344 0.71428 0.0
C2726 C 0.87752 0.05012 0.74662 0.0
C2727 C 0.88306 0.05619 0.77205 0.0
C2728 C 0.87598 0.02475 0.73845 0.0
C2729 C 0.86728 0.01618 0.71258 0.0
C2730 C 0.83743 0.02047 0.7042 0.0
C2731 C 0.82309 1.0013 0.67973 0.0
C2732 C 0.83787 0.97728 0.66447 0.0
C2733 C 0.86818 0.97393 0.67146 0.0
C2734 C 0.88276 0.99359 0.69554 0.0
C2735 C 0.86493 0.97522 0.83933 0.0
C2736 C 0.88322 0.9593 0.84318 0.0
C2737 C 0.86492 0.9916 0.81911 0.0
C2738 C 0.88332 0.99287 0.80223 0.0
C2739 C 0.90159 0.97689 0.80581 0.0
C2740 C 0.90155 0.96031 0.82607 0.0
C2741 C 0.884 0.01253 0.78256 0.0
C2742 C 0.87993 0.00636 0.75666 0.0
C2743 C 0.88621 0.03787 0.78995 0.0
C2744 C 0.89294 0.04594 0.81612 0.0
C2745 C 0.91477 0.04055 0.82614 0.0
C2746 C 0.92204 0.05002 0.85 0.0
C2747 C 0.90745 0.06458 0.86418 0.0
C2748 C 0.88557 0.06974 0.85446 0.0
C2749 C 0.87836 0.06061 0.83042 0.0
H2750 H 0.91313 0.07196 0.88265 0.0
H2751 H 0.82897 0.96543 0.65016 0.0
H2752 H 0.67274 0.09481 0.46077 0.0
H2753 H 0.69933 0.11385 0.49227 0.0
H2754 H 0.66393 0.18212 0.48889 0.0
H2755 H 0.63567 0.1624 0.45765 0.0
H2756 H 0.71489 0.18872 0.492 0.0
H2757 H 0.65545 0.15201 0.53957 0.0
H2758 H 0.6262 0.12107 0.55367 0.0
H2759 H 0.6791 0.06929 0.56658 0.0
H2760 H 0.7087 0.09995 0.55257 0.0
H2761 H 0.7998 0.21483 0.59299 0.0
H2762 H 0.76379 0.2129 0.56728 0.0
H2763 H 0.76167 0.13294 0.56984 0.0
H2764 H 0.7968 0.13501 0.59589 0.0
H2765 H 0.72216 0.14324 0.57162 0.0
H2766 H 0.78237 0.17784 0.51921 0.0
H2767 H 0.81144 0.20869 0.50474 0.0
H2768 H 0.75929 0.26238 0.49817 0.0
H2769 H 0.7299 0.23179 0.5128 0.0
C2770 C 0.67039 0.11397 0.46638 0.0
C2771 C 0.65166 0.12686 0.45652 0.0
C2772 C 0.68582 0.12486 0.48459 0.0
C2773 C 0.68372 0.14936 0.49335 0.0
C2774 C 0.66595 0.1631 0.4826 0.0
C2775 C 0.6499 0.15187 0.46451 0.0
C2776 C 0.70014 0.15942 0.51408 0.0
C2777 C 0.71656 0.17865 0.50927 0.0
C2778 C 0.70207 0.14712 0.53731 0.0
C2779 C 0.68427 0.12825 0.54487 0.0
C2780 C 0.66082 0.13394 0.54518 0.0
C2781 C 0.64419 0.11649 0.55326 0.0
C2782 C 0.65079 0.09322 0.56102 0.0
C2783 C 0.67402 0.08733 0.56061 0.0
C2784 C 0.69074 0.10477 0.55266 0.0
C2785 C 0.7919 0.19684 0.58747 0.0
C2786 C 0.80197 0.17497 0.59541 0.0
C2787 C 0.7712 0.1957 0.5727 0.0
C2788 C 0.76022 0.17264 0.5652 0.0
C2789 C 0.7699 0.15102 0.57424 0.0
C2790 C 0.79038 0.15215 0.58895 0.0
C2791 C 0.73886 0.17034 0.54806 0.0
C2792 C 0.72109 0.15285 0.5539 0.0
C2793 C 0.73613 0.1839 0.52551 0.0
C2794 C 0.75394 0.2025 0.5173 0.0
C2795 C 0.7771 0.19623 0.51481 0.0
C2796 C 0.79366 0.2137 0.5066 0.0
C2797 C 0.78724 0.23754 0.50062 0.0
C2798 C 0.76425 0.24393 0.50288 0.0
C2799 C 0.74764 0.22652 0.51114 0.0
H2800 H 0.80006 0.25102 0.49415 0.0
H2801 H 0.63791 0.07976 0.56741 0.0
H2802 H 0.65784 0.92264 0.18512 0.0
H2803 H 0.65258 0.95841 0.21349 0.0
H2804 H 0.61383 0.91172 0.26374 0.0
H2805 H 0.61793 0.87641 0.23507 0.0
H2806 H 0.59507 0.95257 0.26527 0.0
H2807 H 0.67497 0.94067 0.29717 0.0
H2808 H 0.71416 0.92624 0.28977 0.0
H2809 H 0.71986 0.97255 0.2252 0.0
H2810 H 0.68067 0.98682 0.23202 0.0
H2811 H 0.65278 0.03759 0.37474 0.0
H2812 H 0.65643 0.00738 0.34013 0.0
H2813 H 0.59557 0.03453 0.30353 0.0
H2814 H 0.59138 0.06414 0.33871 0.0
H2815 H 0.66449 0.00326 0.29519 0.0
H2816 H 0.56745 0.00507 0.28036 0.0
H2817 H 0.53234 0.00363 0.30571 0.0
H2818 H 0.56571 0.95784 0.35941 0.0
H2819 H 0.60092 0.95894 0.33415 0.0
C2820 C 0.64797 0.92001 0.20204 0.0
C2821 C 0.63851 0.89634 0.20762 0.0
C2822 C 0.64543 0.94049 0.21874 0.0
C2823 C 0.63352 0.93797 0.2416 0.0
C2824 C 0.62324 0.91455 0.24653 0.0
C2825 C 0.62564 0.89418 0.2299 0.0
C2826 C 0.63171 0.95938 0.26043 0.0
C2827 C 0.61018 0.96417 0.27105 0.0
C2828 C 0.65149 0.97339 0.27006 0.0
C2829 C 0.67502 0.96505 0.2653 0.0
C2830 C 0.68466 0.94779 0.28144 0.0
C2831 C 0.70683 0.93957 0.2773 0.0
C2832 C 0.71954 0.94854 0.25708 0.0
C2833 C 0.71006 0.9657 0.24094 0.0
C2834 C 0.68788 0.97394 0.245 0.0
C2835 C 0.64034 0.03744 0.35907 0.0
C2836 C 0.62186 0.0536 0.35957 0.0
C2837 C 0.64239 0.01993 0.3392 0.0
C2838 C 0.62593 0.01775 0.31913 0.0
C2839 C 0.60801 0.03468 0.31909 0.0
C2840 C 0.60598 0.0523 0.33896 0.0
C2841 C 0.6275 0.99785 0.29852 0.0
C2842 C 0.64909 0.99279 0.28819 0.0
C2843 C 0.60806 0.98244 0.29041 0.0
C2844 C 0.58665 0.98178 0.30514 0.0
C2845 C 0.56712 0.99428 0.29724 0.0
C2846 C 0.54727 0.99375 0.31177 0.0
C2847 C 0.54675 0.98066 0.3342 0.0
C2848 C 0.56609 0.96807 0.34212 0.0
C2849 C 0.586 0.96866 0.32771 0.0
H2850 H 0.53141 0.98035 0.34547 0.0
H2851 H 0.7367 0.94215 0.25389 0.0
H2852 H 0.86851 0.85996 0.95132 0.0
H2853 H 0.84442 0.84833 0.98634 0.0
H2854 H 0.79223 0.89677 0.95982 0.0
H2855 H 0.81733 0.9097 0.92596 0.0
H2856 H 0.79488 0.90497 0.00459 0.0
H2857 H 0.78224 0.80312 0.97651 0.0
H2858 H 0.80427 0.76629 0.96715 0.0
H2859 H 0.8572 0.79212 0.02119 0.0
H2860 H 0.83549 0.8295 0.03045 0.0
H2861 H 0.69446 0.87993 0.07214 0.0
H2862 H 0.72356 0.88321 0.0394 0.0
H2863 H 0.76103 0.8255 0.07475 0.0
H2864 H 0.73016 0.81997 0.10501 0.0
H2865 H 0.77211 0.82067 0.03252 0.0
H2866 H 0.773 0.89571 0.07972 0.0
H2867 H 0.75853 0.93351 0.09984 0.0
H2868 H 0.74124 0.96137 0.0268 0.0
H2869 H 0.75558 0.92367 0.00627 0.0
C2870 C 0.85142 0.86725 0.95232 0.0
C2871 C 0.84476 0.8854 0.93528 0.0
C2872 C 0.83733 0.86047 0.97271 0.0
C2873 C 0.81571 0.87104 0.9764 0.0
C2874 C 0.80874 0.88827 0.95833 0.0
C2875 C 0.82295 0.89534 0.93834 0.0
C2876 C 0.80048 0.86605 0.99909 0.0
C2877 C 0.7897 0.88639 0.01025 0.0
C2878 C 0.79495 0.84219 0.00903 0.0
C2879 C 0.808 0.81997 0.00286 0.0
C2880 C 0.79888 0.80143 0.98579 0.0
C2881 C 0.81122 0.78029 0.98067 0.0
C2882 C 0.83238 0.77709 0.99318 0.0
C2883 C 0.841 0.7948 0.01119 0.0
C2884 C 0.82868 0.81596 0.01634 0.0
C2885 C 0.70851 0.86743 0.07233 0.0
C2886 C 0.70955 0.8494 0.09094 0.0
C2887 C 0.72564 0.8697 0.05392 0.0
C2888 C 0.74543 0.85529 0.05462 0.0
C2889 C 0.74628 0.83704 0.07323 0.0
C2890 C 0.72851 0.83391 0.0908 0.0
C2891 C 0.76521 0.85956 0.03648 0.0
C2892 C 0.77693 0.83923 0.02655 0.0
C2893 C 0.77299 0.88367 0.02912 0.0
C2894 C 0.76489 0.90663 0.04146 0.0
C2895 C 0.76598 0.90983 0.06795 0.0
C2896 C 0.75785 0.93126 0.07944 0.0
C2897 C 0.74884 0.94976 0.06462 0.0
C2898 C 0.74812 0.94697 0.03827 0.0
C2899 C 0.75624 0.92558 0.02671 0.0
H2900 H 0.74251 0.96632 0.07354 0.0
H2901 H 0.84194 0.76073 0.98917 0.0
H2902 H 0.86717 0.01868 0.60281 0.0
H2903 H 0.86219 0.99154 0.63181 0.0
H2904 H 0.8614 0.05315 0.68793 0.0
H2905 H 0.87053 0.0794 0.65602 0.0
H2906 H 0.87155 0.94753 0.70339 0.0
H2907 H 0.79973 0.0162 0.74418 0.0
H2908 H 0.75829 0.02135 0.73453 0.0
H2909 H 0.75589 0.95556 0.68681 0.0
H2910 H 0.79735 0.95013 0.69609 0.0
H2911 H 0.87453 0.90662 0.82121 0.0
H2912 H 0.87692 0.93608 0.78717 0.0
H2913 H 0.80277 0.93086 0.77701 0.0
H2914 H 0.80025 0.90144 0.81139 0.0
H2915 H 0.81527 0.97345 0.76435 0.0
H2916 H 0.83994 0.8938 0.74122 0.0
H2917 H 0.86303 0.8571 0.74811 0.0
H2918 H 0.92576 0.90237 0.74356 0.0
H2919 H 0.90304 0.93942 0.73729 0.0
C2920 C 0.86665 0.02644 0.62188 0.0
C2921 C 0.86972 0.05172 0.62638 0.0
C2922 C 0.86304 0.00977 0.64104 0.0
C2923 C 0.85941 0.01496 0.66877 0.0
C2924 C 0.86308 0.04276 0.67082 0.0
C2925 C 0.86834 0.05973 0.65137 0.0
C2926 C 0.84614 0.97916 0.70715 0.0
C2927 C 0.85818 0.95582 0.71416 0.0
C2928 C 0.8267 0.97937 0.72612 0.0
C2929 C 0.80182 0.98335 0.72001 0.0
C2930 C 0.79041 0.00308 0.73134 0.0
C2931 C 0.76692 0.00597 0.72601 0.0
C2932 C 0.75454 0.98895 0.70983 0.0
C2933 C 0.76556 0.96886 0.69913 0.0
C2934 C 0.78904 0.96588 0.70437 0.0
C2935 C 0.85866 0.91263 0.81254 0.0
C2936 C 0.83721 0.90211 0.81927 0.0
C2937 C 0.86005 0.92944 0.79296 0.0
C2938 C 0.84011 0.93601 0.77952 0.0
C2939 C 0.81846 0.92652 0.78722 0.0
C2940 C 0.81704 0.9096 0.80682 0.0
C2941 C 0.84217 0.94982 0.7555 0.0
C2942 C 0.8281 0.96916 0.75044 0.0
C2943 C 0.85611 0.9419 0.73616 0.0
C2944 C 0.8698 0.91931 0.73871 0.0
C2945 C 0.85865 0.89586 0.74157 0.0
C2946 C 0.87167 0.87504 0.74545 0.0
C2947 C 0.89583 0.87738 0.74612 0.0
C2948 C 0.90705 0.90056 0.74293 0.0
C2949 C 0.89412 0.92147 0.73922 0.0
H2950 H 0.90587 0.86124 0.74917 0.0
H2951 H 0.73635 0.99123 0.70575 0.0
H2952 H 0.80686 0.10394 0.56356 0.0
H2953 H 0.77503 0.11151 0.53429 0.0
H2954 H 0.82331 0.14812 0.48477 0.0
H2955 H 0.85406 0.14421 0.51629 0.0
H2956 H 0.79044 0.16529 0.47227 0.0
H2957 H 0.79613 0.0786 0.48141 0.0
H2958 H 0.79831 0.03905 0.50356 0.0
H2959 H 0.73015 0.0476 0.53185 0.0
H2960 H 0.7277 0.08729 0.51013 0.0
H2961 H 0.68539 0.11642 0.38559 0.0
H2962 H 0.71718 0.10439 0.41405 0.0
H2963 H 0.71633 0.17579 0.45241 0.0
H2964 H 0.68486 0.18741 0.42516 0.0
H2965 H 0.7285 0.09881 0.46199 0.0
H2966 H 0.76058 0.20239 0.46305 0.0
H2967 H 0.76344 0.23662 0.43309 0.0
H2968 H 0.76551 0.18373 0.37118 0.0
H2969 H 0.76237 0.14931 0.40085 0.0
C2970 C 0.81022 0.11506 0.54717 0.0
C2971 C 0.83269 0.12439 0.5427 0.0
C2972 C 0.79217 0.11846 0.52973 0.0
C2973 C 0.79648 0.1293 0.50629 0.0
C2974 C 0.81893 0.13968 0.50245 0.0
C2975 C 0.83666 0.13771 0.5207 0.0
C2976 C 0.7778 0.12981 0.48597 0.0
C2977 C 0.77715 0.15051 0.47035 0.0
C2978 C 0.76061 0.11019 0.48168 0.0
C2979 C 0.76175 0.08594 0.49415 0.0
C2980 C 0.7816 0.07201 0.49232 0.0
C2981 C 0.78291 0.04959 0.50485 0.0
C2982 C 0.76438 0.04081 0.5191 0.0
C2983 C 0.74447 0.05439 0.52077 0.0
C2984 C 0.74309 0.07682 0.5083 0.0
C2985 C 0.6915 0.12906 0.40082 0.0
C2986 C 0.68282 0.15294 0.40308 0.0
C2987 C 0.70982 0.12231 0.41686 0.0
C2988 C 0.7196 0.13947 0.43508 0.0
C2989 C 0.70945 0.16236 0.43843 0.0
C2990 C 0.69131 0.16897 0.4228 0.0
C2991 C 0.74096 0.13471 0.45015 0.0
C2992 C 0.74214 0.11324 0.46435 0.0
C2993 C 0.75953 0.15269 0.45204 0.0
C2994 C 0.76139 0.17338 0.4342 0.0
C2995 C 0.76185 0.19815 0.4431 0.0
C2996 C 0.7633 0.21756 0.42613 0.0
C2997 C 0.76454 0.21236 0.40018 0.0
C2998 C 0.76429 0.18775 0.39121 0.0
C2999 C 0.76259 0.1683 0.4081 0.0
H3000 H 0.76573 0.22739 0.38704 0.0
H3001 H 0.76546 0.02349 0.52884 0.0
H3002 H 0.5811 0.92165 0.18464 0.0
H3003 H 0.58913 0.95443 0.21706 0.0
H3004 H 0.62883 0.99698 0.16378 0.0
H3005 H 0.62189 0.96349 0.13204 0.0
H3006 H 0.64912 0.00467 0.20492 0.0
H3007 H 0.57037 0.02542 0.18403 0.0
H3008 H 0.53004 0.01403 0.17042 0.0
H3009 H 0.52293 0.9661 0.2336 0.0
H3010 H 0.56332 0.97676 0.24705 0.0
H3011 H 0.59558 0.11081 0.28919 0.0
H3012 H 0.59122 0.07798 0.25652 0.0
H3013 H 0.65543 0.04857 0.28286 0.0
H3014 H 0.66104 0.0832 0.31313 0.0
H3015 H 0.58335 0.03528 0.253 0.0
H3016 H 0.67975 0.02267 0.25625 0.0
H3017 H 0.7171 0.04585 0.25236 0.0
H3018 H 0.68508 0.09667 0.20292 0.0
H3019 H 0.64748 0.07342 0.2063 0.0
C3020 C 0.59169 0.93795 0.18011 0.0
C3021 C 0.601 0.94021 0.15611 0.0
C3022 C 0.59593 0.95694 0.19842 0.0
C3023 C 0.60906 0.9787 0.1928 0.0
C3024 C 0.61871 0.98051 0.16878 0.0
C3025 C 0.61476 0.9614 0.15065 0.0
C3026 C 0.61261 0.9996 0.21176 0.0
C3027 C 0.63479 0.01108 0.21575 0.0
C3028 C 0.59386 0.00927 0.22474 0.0
C3029 C 0.56964 0.00231 0.21688 0.0
C3030 C 0.56012 0.01252 0.19504 0.0
C3031 C 0.5373 0.00612 0.18727 0.0
C3032 C 0.52386 0.98949 0.20124 0.0
C3033 C 0.53327 0.97917 0.22293 0.0
C3034 C 0.55608 0.98553 0.23074 0.0
C3035 C 0.60871 0.09719 0.28784 0.0
C3036 C 0.62851 0.09922 0.30371 0.0
C3037 C 0.60632 0.07845 0.26906 0.0
C3038 C 0.62335 0.06082 0.2663 0.0
C3039 C 0.64277 0.06258 0.28299 0.0
C3040 C 0.64562 0.08193 0.30102 0.0
C3041 C 0.62013 0.03995 0.24711 0.0
C3042 C 0.59792 0.02853 0.24287 0.0
C3043 C 0.63857 0.03165 0.23244 0.0
C3044 C 0.66092 0.04607 0.2313 0.0
C3045 C 0.68078 0.03841 0.24412 0.0
C3046 C 0.70192 0.05175 0.24223 0.0
C3047 C 0.70345 0.07275 0.22736 0.0
C3048 C 0.68379 0.08049 0.21451 0.0
C3049 C 0.66256 0.06727 0.21648 0.0
H3050 H 0.71984 0.08305 0.22583 0.0
H3051 H 0.50621 0.98451 0.19519 0.0
H3052 H 0.65271 0.89535 0.05809 0.0
H3053 H 0.68445 0.89336 0.02879 0.0
H3054 H 0.64661 0.83526 0.98533 0.0
H3055 H 0.61448 0.83764 0.01435 0.0
H3056 H 0.68853 0.82403 0.98885 0.0
H3057 H 0.65084 0.89702 0.96845 0.0
H3058 H 0.63417 0.93775 0.97589 0.0
H3059 H 0.70142 0.97005 0.99617 0.0
H3060 H 0.71848 0.92955 0.98923 0.0
H3061 H 0.76909 0.87208 0.88282 0.0
H3062 H 0.7356 0.88101 0.90886 0.0
H3063 H 0.76408 0.83853 0.9688 0.0
H3064 H 0.79632 0.8277 0.94194 0.0
H3065 H 0.72343 0.90022 0.95181 0.0
H3066 H 0.72834 0.80379 0.99742 0.0
H3067 H 0.74308 0.76272 0.98683 0.0
H3068 H 0.7345 0.77639 0.9076 0.0
H3069 H 0.71925 0.81732 0.91771 0.0
C3070 C 0.65149 0.88156 0.04278 0.0
C3071 C 0.63134 0.8663 0.03873 0.0
C3072 C 0.66951 0.88071 0.02581 0.0
C3073 C 0.66792 0.86427 0.00478 0.0
C3074 C 0.64826 0.84811 0.00144 0.0
C3075 C 0.63003 0.84928 0.01814 0.0
C3076 C 0.68685 0.86369 0.98642 0.0
C3077 C 0.69601 0.84071 0.98066 0.0
C3078 C 0.69625 0.88541 0.97516 0.0
C3079 C 0.68598 0.91002 0.97877 0.0
C3080 C 0.66209 0.91272 0.97473 0.0
C3081 C 0.65254 0.93579 0.9788 0.0
C3082 C 0.66667 0.95641 0.9866 0.0
C3083 C 0.69045 0.95404 0.99023 0.0
C3084 C 0.70008 0.93102 0.98625 0.0
C3085 C 0.76833 0.86514 0.90183 0.0
C3086 C 0.7851 0.84925 0.91071 0.0
C3087 C 0.74923 0.87018 0.91665 0.0
C3088 C 0.74705 0.85962 0.94055 0.0
C3089 C 0.76509 0.84587 0.95008 0.0
C3090 C 0.78347 0.83994 0.93498 0.0
C3091 C 0.72531 0.86064 0.95484 0.0
C3092 C 0.71567 0.88361 0.95982 0.0
C3093 C 0.71469 0.83879 0.96463 0.0
C3094 C 0.72267 0.81362 0.95834 0.0
C3095 C 0.72927 0.79787 0.97775 0.0
C3096 C 0.73776 0.77464 0.97183 0.0
C3097 C 0.73972 0.76695 0.94657 0.0
C3098 C 0.73298 0.78237 0.92716 0.0
C3099 C 0.72436 0.80556 0.93297 0.0
H3100 H 0.74647 0.74904 0.94203 0.0
H3101 H 0.65921 0.97423 0.98973 0.0
H3102 H 0.95636 0.85026 0.9361 0.0
H3103 H 0.98678 0.82025 0.93458 0.0
H3104 H 0.97223 0.80661 0.85509 0.0
H3105 H 0.9423 0.8375 0.85612 0.0
H3106 H 0.97862 0.76168 0.90388 0.0
H3107 H 0.01282 0.82797 0.84866 0.0
H3108 H 0.02208 0.8725 0.84241 0.0
H3109 H 0.05763 0.87808 0.91476 0.0
H3110 H 0.04828 0.83362 0.92151 0.0
H3111 H 0.08593 0.70965 0.85134 0.0
H3112 H 0.05144 0.73406 0.8552 0.0
H3113 H 0.06789 0.74815 0.93433 0.0
H3114 H 0.10325 0.72451 0.9302 0.0
H3115 H 0.05906 0.79083 0.88715 0.0
H3116 H 0.01695 0.73975 0.95664 0.0
H3117 H 0.99458 0.69868 0.9811 0.0
H3118 H 0.98737 0.68608 0.89671 0.0
H3119 H 0.99583 0.70583 0.87108 0.0
C3120 C 0.95938 0.84074 0.91829 0.0
C3121 C 0.94657 0.84622 0.89628 0.0
C3122 C 0.97674 0.8234 0.91752 0.0
C3123 C 0.98154 0.8107 0.89488 0.0
C3124 C 0.96876 0.81598 0.87285 0.0
C3125 C 0.95156 0.83362 0.87351 0.0
C3126 C 1.00063 0.79289 0.89416 0.0
C3127 C 0.99613 0.76777 0.89976 0.0
C3128 C 0.02368 0.80117 0.88998 0.0
C3129 C 0.02971 0.82763 0.88564 0.0
C3130 C 0.02248 0.83876 0.86327 0.0
C3131 C 0.02777 0.86396 0.85963 0.0
C3132 C 0.0404 0.87813 0.8782 0.0
C3133 C 0.04784 0.8671 0.9004 0.0
C3134 C 0.04257 0.84191 0.90413 0.0
C3135 C 0.08192 0.71749 0.8697 0.0
C3136 C 0.09695 0.71468 0.89063 0.0
C3137 C 0.06228 0.73154 0.87185 0.0
C3138 C 0.0567 0.74238 0.8952 0.0
C3139 C 0.07153 0.73941 0.91629 0.0
C3140 C 0.09166 0.72589 0.91395 0.0
C3141 C 0.03702 0.75919 0.89634 0.0
C3142 C 0.04147 0.78429 0.8908 0.0
C3143 C 0.01402 0.7508 0.90125 0.0
C3144 C 0.00831 0.72613 0.91192 0.0
C3145 C 0.00913 0.72443 0.94532 0.0
C3146 C 0.99474 0.69898 0.96064 0.0
C3147 C 0.98059 0.67406 0.94221 0.0
C3148 C 0.98125 0.67369 0.90864 0.0
C3149 C 0.99462 0.70117 0.89259 0.0
H3150 H 0.97227 0.65863 0.95163 0.0
H3151 H 0.04446 0.89764 0.87537 0.0
H3152 H 0.44026 0.686 0.0665 0.0
H3153 H 0.47307 0.71654 0.07112 0.0
H3154 H 0.50706 0.66823 0.12264 0.0
H3155 H 0.47345 0.63926 0.11974 0.0
H3156 H 0.51771 0.70695 0.14043 0.0
H3157 H 0.52094 0.68177 0.055 0.0
H3158 H 0.50817 0.67297 0.01073 0.0
H3159 H 0.49855 0.75052 1.0003 0.0
H3160 H 0.51119 0.75975 0.04439 0.0
H3161 H 0.62329 0.79235 0.09994 0.0
H3162 H 0.59272 0.76118 0.08594 0.0
H3163 H 0.54959 0.78665 0.14557 0.0
H3164 H 0.57973 0.81721 0.15949 0.0
H3165 H 0.54914 0.7554 0.06969 0.0
H3166 H 0.53125 0.75521 0.17489 0.0
H3167 H 0.553 0.75396 0.2155 0.0
H3168 H 0.60536 0.71281 0.17952 0.0
H3169 H 0.58379 0.71383 0.13872 0.0
C3170 C 0.45479 0.68205 0.0788 0.0
C3171 C 0.45418 0.66028 0.09289 0.0
C3172 C 0.4738 0.69945 0.08131 0.0
C3173 C 0.4932 0.69503 0.09711 0.0
C3174 C 0.49256 0.67279 0.1106 0.0
C3175 C 0.47327 0.65598 0.10883 0.0
C3176 C 0.51374 0.71357 0.10045 0.0
C3177 C 0.52406 0.7176 0.12477 0.0
C3178 C 0.52376 0.72684 0.08012 0.0
C3179 C 0.5165 0.72141 0.05332 0.0
C3180 C 0.5159 0.69693 0.04335 0.0
C3181 C 0.50876 0.69186 0.01822 0.0
C3182 C 0.5024 0.71114 0.00275 0.0
C3183 C 0.50337 0.73556 0.01232 0.0
C3184 C 0.51054 0.74072 0.03741 0.0
C3185 C 0.60691 0.79186 0.1094 0.0
C3186 C 0.60395 0.80743 0.13079 0.0
C3187 C 0.58951 0.77376 0.10161 0.0
C3188 C 0.56894 0.77077 0.11519 0.0
C3189 C 0.56546 0.78772 0.13522 0.0
C3190 C 0.58263 0.80563 0.14293 0.0
C3191 C 0.5513 0.74967 0.10971 0.0
C3192 C 0.54206 0.74488 0.08512 0.0
C3193 C 0.54296 0.73466 0.12934 0.0
C3194 C 0.55571 0.73425 0.15393 0.0
C3195 C 0.54715 0.74552 0.17577 0.0
C3196 C 0.55959 0.74509 0.19875 0.0
C3197 C 0.58058 0.73333 0.20009 0.0
C3198 C 0.58918 0.72204 0.17844 0.0
C3199 C 0.57688 0.72258 0.15539 0.0
H3200 H 0.5902 0.73299 0.21789 0.0
H3201 H 0.49684 0.70717 0.98331 0.0
H3202 H 0.07371 0.3407 0.63435 0.0
H3203 H 0.04875 0.30267 0.64063 0.0
H3204 H 0.00611 0.32081 0.57715 0.0
H3205 H 0.03135 0.35602 0.56869 0.0
H3206 H 0.9917 0.31571 0.62677 0.0
H3207 H 0.02686 0.23986 0.52841 0.0
H3208 H 0.04997 0.21857 0.50327 0.0
H3209 H 0.08202 0.18427 0.56481 0.0
H3210 H 0.06049 0.20362 0.5933 0.0
H3211 H 0.89355 0.22886 0.61786 0.0
H3212 H 0.92643 0.25769 0.60902 0.0
H3213 H 0.96929 0.21939 0.66166 0.0
H3214 H 0.93683 0.19044 0.66986 0.0
H3215 H 0.98756 0.22659 0.62228 0.0
H3216 H 0.95402 0.27679 0.67692 0.0
H3217 H 0.92269 0.2995 0.69624 0.0
H3218 H 0.91544 0.3419 0.62914 0.0
H3219 H 0.94677 0.31935 0.60938 0.0
C3220 C 0.05931 0.3362 0.62129 0.0
C3221 C 0.05584 0.35083 0.59986 0.0
C3222 C 0.04536 0.31406 0.62453 0.0
C3223 C 0.02771 0.30627 0.60648 0.0
C3224 C 0.02193 0.32359 0.58833 0.0
C3225 C 0.03599 0.34475 0.58446 0.0
C3226 C 0.01035 0.2847 0.6108 0.0
C3227 C 0.99131 0.29578 0.62274 0.0
C3228 C 0.01048 0.25662 0.60364 0.0
C3229 C 0.038 0.22844 0.56863 0.0
C3230 C 0.03785 0.22894 0.54008 0.0
C3231 C 0.05176 0.21611 0.52349 0.0
C3232 C 0.06772 0.20032 0.53227 0.0
C3233 C 0.06963 0.19705 0.55775 0.0
C3234 C 0.05588 0.20975 0.57461 0.0
C3235 C 0.91026 0.22613 0.62679 0.0
C3236 C 0.91289 0.20672 0.64372 0.0
C3237 C 0.92884 0.2431 0.62239 0.0
C3238 C 0.95044 0.24103 0.63486 0.0
C3239 C 0.95296 0.22149 0.65167 0.0
C3240 C 0.93451 0.20462 0.65599 0.0
C3241 C 0.97123 0.25726 0.62816 0.0
C3242 C 0.99082 0.24599 0.61922 0.0
C3243 C 0.9715 0.28275 0.62982 0.0
C3244 C 0.95253 0.29619 0.64156 0.0
C3245 C 0.9456 0.2908 0.66619 0.0
C3246 C 0.92791 0.3037 0.67726 0.0
C3247 C 0.917 0.32205 0.66388 0.0
C3248 C 0.92387 0.32763 0.63945 0.0
C3249 C 0.94164 0.31484 0.62833 0.0
H3250 H 0.90326 0.33199 0.67248 0.0
H3251 H 0.07843 0.19043 0.51931 0.0
H3252 H 0.04801 0.64215 0.95978 0.0
H3253 H 0.01772 0.66526 0.96384 0.0
H3254 H 0.03428 0.69727 0.88992 0.0
H3255 H 0.06302 0.67037 0.88753 0.0
H3256 H 0.9736 0.73411 0.96512 0.0
H3257 H 0.95588 0.70962 0.85519 0.0
H3258 H 0.93957 0.67655 0.82591 0.0
H3259 H 0.91137 0.63723 0.8885 0.0
H3260 H 0.92768 0.67003 0.91816 0.0
H3261 H 0.90311 0.81519 0.88353 0.0
H3262 H 0.93543 0.79033 0.89704 0.0
H3263 H 0.88947 0.74443 0.94013 0.0
H3264 H 0.85702 0.76904 0.92726 0.0
H3265 H 0.92464 0.7311 0.88872 0.0
H3266 H 0.91197 0.74945 0.97872 0.0
H3267 H 0.90704 0.78114 0.0124 0.0
H3268 H 0.97171 0.81765 0.99372 0.0
H3269 H 0.97683 0.78608 0.95985 0.0
C3270 C 0.04448 0.65436 0.9443 0.0
C3271 C 0.05762 0.65346 0.923 0.0
C3272 C 0.02568 0.66961 0.94608 0.0
C3273 C 0.01636 0.68681 0.92655 0.0
C3274 C 0.03428 0.68603 0.90641 0.0
C3275 C 0.05272 0.67 0.90436 0.0
C3276 C 0.97295 0.71243 0.92679 0.0
C3277 C 0.96508 0.73079 0.94679 0.0
C3278 C 0.95278 0.71222 0.90703 0.0
C3279 C 0.9439 0.6917 0.88898 0.0
C3280 C 0.94661 0.69366 0.86271 0.0
C3281 C 0.93725 0.67506 0.84606 0.0
C3282 C 0.92471 0.65465 0.85538 0.0
C3283 C 0.92132 0.6529 0.88135 0.0
C3284 C 0.93064 0.67146 0.8981 0.0
C3285 C 0.90007 0.80066 0.89696 0.0
C3286 C 0.87751 0.79427 0.90448 0.0
C3287 C 0.91858 0.78655 0.90457 0.0
C3288 C 0.91505 0.76621 0.92013 0.0
C3289 C 0.89277 0.76057 0.92879 0.0
C3290 C 0.87421 0.77461 0.92125 0.0
C3291 C 0.9337 0.74852 0.92357 0.0
C3292 C 0.93681 0.73114 0.9048 0.0
C3293 C 0.94725 0.74767 0.94529 0.0
C3294 C 0.94442 0.76598 0.9663 0.0
C3295 C 0.92493 0.76445 0.98157 0.0
C3296 C 0.92217 0.78228 1.0008 0.0
C3297 C 0.93895 0.80154 0.00507 0.0
C3298 C 0.95863 0.80285 0.99029 0.0
C3299 C 0.96144 0.78504 0.97107 0.0
H3300 H 0.93678 0.81534 0.01994 0.0
H3301 H 0.91743 0.64029 0.84244 0.0
H3302 H 0.41302 0.29858 0.35575 0.0
H3303 H 0.44409 0.27076 0.36526 0.0
H3304 H 0.40445 0.2394 0.42547 0.0
H3305 H 0.3731 0.26715 0.41572 0.0
H3306 H 0.44791 0.24296 0.44056 0.0
H3307 H 0.40935 0.20801 0.36709 0.0
H3308 H 0.39162 0.20775 0.32422 0.0
H3309 H 0.45716 0.23017 0.2937 0.0
H3310 H 0.4753 0.23068 0.33649 0.0
H3311 H 0.52996 0.1456 0.45036 0.0
H3312 H 0.49586 0.16966 0.44728 0.0
H3313 H 0.5193 0.19932 0.37701 0.0
H3314 H 0.55243 0.17301 0.3789 0.0
H3315 H 0.47942 0.19402 0.36993 0.0
H3316 H 0.50235 0.24976 0.4555 0.0
H3317 H 0.51338 0.25039 0.50096 0.0
H3318 H 0.46951 0.18515 0.51091 0.0
H3319 H 0.4585 0.18433 0.46545 0.0
C3320 C 0.41125 0.28637 0.37158 0.0
C3321 C 0.39085 0.28562 0.38542 0.0
C3322 C 0.42894 0.27018 0.37681 0.0
C3323 C 0.42686 0.25282 0.39612 0.0
C3324 C 0.40672 0.25258 0.41054 0.0
C3325 C 0.38879 0.26853 0.40501 0.0
C3326 C 0.44543 0.23464 0.40063 0.0
C3327 C 0.45481 0.2322 0.4251 0.0
C3328 C 0.45432 0.2201 0.38077 0.0
C3329 C 0.44364 0.21949 0.35497 0.0
C3330 C 0.41996 0.21297 0.35124 0.0
C3331 C 0.40984 0.21278 0.32696 0.0
C3332 C 0.42323 0.21901 0.30625 0.0
C3333 C 0.44681 0.22534 0.30977 0.0
C3334 C 0.45704 0.22552 0.33402 0.0
C3335 C 0.52816 0.15769 0.43447 0.0
C3336 C 0.54448 0.1577 0.41515 0.0
C3337 C 0.50854 0.17212 0.43297 0.0
C3338 C 0.50482 0.1879 0.41256 0.0
C3339 C 0.52134 0.18783 0.39328 0.0
C3340 C 0.54069 0.17296 0.39448 0.0
C3341 C 0.48346 0.20325 0.40986 0.0
C3342 C 0.47313 0.20502 0.38552 0.0
C3343 C 0.47327 0.21664 0.43009 0.0
C3344 C 0.48122 0.21584 0.45679 0.0
C3345 C 0.49601 0.23497 0.46721 0.0
C3346 C 0.50192 0.23559 0.49303 0.0
C3347 C 0.49267 0.21741 0.5087 0.0
C3348 C 0.47708 0.19892 0.49867 0.0
C3349 C 0.471 0.19841 0.4729 0.0
H3350 H 0.49724 0.21792 0.52868 0.0
H3351 H 0.41533 0.21889 0.28747 0.0
H3352 H 0.96453 0.1407 0.57352 0.0
H3353 H 0.99837 0.16926 0.57157 0.0
H3354 H 0.95497 0.23143 0.57854 0.0
H3355 H 0.92051 0.20262 0.57939 0.0
H3356 H 0.98989 0.24948 0.54703 0.0
H3357 H 0.01357 0.21586 0.65605 0.0
H3358 H 0.01278 0.18024 0.68424 0.0
H3359 H 0.02969 0.13197 0.62229 0.0
H3360 H 0.03094 0.16737 0.59394 0.0
H3361 H 0.1046 0.33075 0.59249 0.0
H3362 H 0.06854 0.31042 0.57496 0.0
H3363 H 0.08826 0.24158 0.60638 0.0
H3364 H 0.12145 0.26183 0.62591 0.0
H3365 H 0.05637 0.2356 0.62749 0.0
H3366 H 0.06726 0.27737 0.54033 0.0
H3367 H 0.07342 0.30558 0.50513 0.0
H3368 H 0.00185 0.32301 0.50556 0.0
H3369 H 0.99549 0.29539 0.54128 0.0
C3370 C 0.96224 0.1605 0.57524 0.0
C3371 C 0.94001 0.16948 0.578 0.0
C3372 C 0.98174 0.17681 0.57458 0.0
C3373 C 0.97962 0.20251 0.57699 0.0
C3374 C 0.95722 0.21162 0.5778 0.0
C3375 C 0.93755 0.19523 0.57858 0.0
C3376 C 1.00053 0.21975 0.58025 0.0
C3377 C 0.00266 0.24695 0.56194 0.0
C3378 C 0.0216 0.21558 0.60564 0.0
C3379 C 0.02048 0.19398 0.62234 0.0
C3380 C 0.01648 0.19754 0.64825 0.0
C3381 C 0.01621 0.17742 0.66438 0.0
C3382 C 0.02062 0.15372 0.65495 0.0
C3383 C 0.02566 0.1502 0.62946 0.0
C3384 C 0.02589 0.17029 0.61328 0.0
C3385 C 0.10082 0.31128 0.59579 0.0
C3386 C 0.1149 0.2985 0.61252 0.0
C3387 C 0.08006 0.29955 0.58577 0.0
C3388 C 0.07331 0.27522 0.59266 0.0
C3389 C 0.0905 0.26135 0.604 0.0
C3390 C 0.11039 0.27295 0.6147 0.0
C3391 C 0.04885 0.26396 0.59137 0.0
C3392 C 0.04455 0.23836 0.61175 0.0
C3393 C 0.02726 0.26894 0.56639 0.0
C3394 C 0.03143 0.28614 0.54528 0.0
C3395 C 0.0531 0.28816 0.53386 0.0
C3396 C 0.05656 0.30376 0.51347 0.0
C3397 C 0.0382 0.31668 0.50357 0.0
C3398 C 0.01623 0.31348 0.51363 0.0
C3399 C 0.01274 0.29786 0.53399 0.0
H3400 H 0.04089 0.32875 0.48778 0.0
H3401 H 0.02053 0.13817 0.66748 0.0
H3402 H 0.43197 0.66999 0.15694 0.0
H3403 H 0.46218 0.70043 0.14558 0.0
H3404 H 0.4109 0.74212 0.10663 0.0
H3405 H 0.38143 0.71026 0.11562 0.0
H3406 H 0.44485 0.75444 0.08703 0.0
H3407 H 0.43288 0.75875 0.17484 0.0
H3408 H 0.42674 0.7423 0.21746 0.0
H3409 H 0.49374 0.71138 0.21686 0.0
H3410 H 0.49993 0.72726 0.1742 0.0
H3411 H 0.53756 0.85597 0.13942 0.0
H3412 H 0.50701 0.82489 0.15035 0.0
H3413 H 0.51682 0.78569 0.0797 0.0
H3414 H 0.54719 0.81564 0.06916 0.0
H3415 H 0.49975 0.77808 0.15815 0.0
H3416 H 0.4683 0.76568 0.05021 0.0
H3417 H 0.46462 0.79276 0.01365 0.0
H3418 H 0.46633 0.85694 0.06351 0.0
H3419 H 0.47009 0.83035 0.10033 0.0
C3420 C 0.42753 0.68492 0.14468 0.0
C3421 C 0.40446 0.68773 0.13699 0.0
C3422 C 0.44463 0.70286 0.13895 0.0
C3423 C 0.43878 0.7245 0.12649 0.0
C3424 C 0.41612 0.72587 0.11648 0.0
C3425 C 0.39921 0.70737 0.12129 0.0
C3426 C 0.45584 0.74604 0.12497 0.0
C3427 C 0.45677 0.75951 0.10265 0.0
C3428 C 0.47056 0.75403 0.1458 0.0
C3429 C 0.46706 0.74449 0.17151 0.0
C3430 C 0.44629 0.74847 0.18387 0.0
C3431 C 0.44274 0.73918 0.20798 0.0
C3432 C 0.45985 0.72586 0.21988 0.0
C3433 C 0.48055 0.72184 0.20771 0.0
C3434 C 0.48415 0.73112 0.18363 0.0
C3435 C 0.53363 0.84016 0.12673 0.0
C3436 C 0.54468 0.8382 0.10343 0.0
C3437 C 0.51605 0.82257 0.13284 0.0
C3438 C 0.50935 0.80304 0.1156 0.0
C3439 C 0.52147 0.80055 0.09317 0.0
C3440 C 0.53892 0.81774 0.0872 0.0
C3441 C 0.48928 0.7855 0.11983 0.0
C3442 C 0.48774 0.77291 0.14264 0.0
C3443 C 0.47242 0.77989 0.10033 0.0
C3444 C 0.46998 0.79596 0.07806 0.0
C3445 C 0.468 0.78557 0.05339 0.0
C3446 C 0.46591 0.80087 0.0326 0.0
C3447 C 0.46546 0.82659 0.03624 0.0
C3448 C 0.46697 0.83706 0.06068 0.0
C3449 C 0.46917 0.82188 0.08152 0.0
H3450 H 0.46379 0.83841 0.02013 0.0
H3451 H 0.45706 0.71862 0.2385 0.0
H3452 H 0.60529 0.40766 0.83076 0.0
H3453 H 0.59703 0.43979 0.80087 0.0
H3454 H 0.62859 0.39748 0.74189 0.0
H3455 H 0.63879 0.36643 0.77262 0.0
H3456 H 0.64841 0.44358 0.74889 0.0
H3457 H 0.55469 0.44942 0.70917 0.0
H3458 H 0.51532 0.43147 0.71181 0.0
H3459 H 0.52618 0.40915 0.78818 0.0
H3460 H 0.56425 0.43571 0.7629 0.0
H3461 H 0.63398 0.52125 0.64509 0.0
H3462 H 0.63487 0.4886 0.67488 0.0
H3463 H 0.59057 0.52885 0.72404 0.0
H3464 H 0.58726 0.5609 0.69201 0.0
H3465 H 0.57673 0.48442 0.7242 0.0
H3466 H 0.6578 0.51669 0.73087 0.0
H3467 H 0.6949 0.52884 0.71088 0.0
H3468 H 0.69955 0.4542 0.68196 0.0
H3469 H 0.66205 0.44247 0.70053 0.0
C3470 C 0.61057 0.40532 0.81155 0.0
C3471 C 0.62359 0.38516 0.80447 0.0
C3472 C 0.6053 0.42345 0.79414 0.0
C3473 C 0.61196 0.42117 0.76887 0.0
C3474 C 0.62307 0.3997 0.76121 0.0
C3475 C 0.62882 0.38187 0.77881 0.0
C3476 C 0.61141 0.4428 0.75191 0.0
C3477 C 0.63263 0.45227 0.74319 0.0
C3478 C 0.59083 0.45381 0.7439 0.0
C3479 C 0.56536 0.44104 0.74934 0.0
C3480 C 0.54927 0.44154 0.72679 0.0
C3481 C 0.5269 0.43107 0.72817 0.0
C3482 C 0.51911 0.41986 0.75012 0.0
C3483 C 0.53319 0.41827 0.77189 0.0
C3484 C 0.556 0.42789 0.77351 0.0
C3485 C 0.62467 0.52366 0.66244 0.0
C3486 C 0.61045 0.54394 0.66594 0.0
C3487 C 0.62556 0.50485 0.67991 0.0
C3488 C 0.61364 0.50629 0.70262 0.0
C3489 C 0.60034 0.52726 0.70696 0.0
C3490 C 0.59867 0.54586 0.68878 0.0
C3491 C 0.61372 0.48503 0.72057 0.0
C3492 C 0.59244 0.47551 0.7295 0.0
C3493 C 0.63406 0.47242 0.72699 0.0
C3494 C 0.65709 0.4791 0.71681 0.0
C3495 C 0.66678 0.50325 0.71997 0.0
C3496 C 0.68778 0.50996 0.7089 0.0
C3497 C 0.69962 0.49227 0.69525 0.0
C3498 C 0.6904 0.46791 0.69255 0.0
C3499 C 0.66921 0.46131 0.70324 0.0
H3500 H 0.71591 0.49745 0.68678 0.0
H3501 H 0.50157 0.41195 0.75023 0.0
H3502 H 0.87466 0.35561 0.04832 0.0
H3503 H 0.84451 0.34311 0.0162 0.0
H3504 H 0.81403 0.4139 0.02631 0.0
H3505 H 0.8432 0.42623 0.05837 0.0
H3506 H 0.79839 0.33758 0.01333 0.0
H3507 H 0.7988 0.43697 0.96736 0.0
H3508 H 0.82734 0.47012 0.95672 0.0
H3509 H 0.88217 0.41976 0.96454 0.0
H3510 H 0.85397 0.38615 0.97474 0.0
H3511 H 0.69395 0.34269 0.94481 0.0
H3512 H 0.72691 0.35179 0.97445 0.0
H3513 H 0.76913 0.37358 0.91207 0.0
H3514 H 0.7356 0.36733 0.88328 0.0
H3515 H 0.78463 0.39824 0.94641 0.0
H3516 H 0.7648 0.31234 0.94324 0.0
H3517 H 0.74006 0.2741 0.94602 0.0
H3518 H 0.73273 0.28811 0.02563 0.0
H3519 H 0.75724 0.32654 0.02327 0.0
C3520 C 0.86116 0.36823 0.04412 0.0
C3521 C 0.86156 0.39204 0.05578 0.0
C3522 C 0.84407 0.36116 0.0256 0.0
C3523 C 0.82738 0.37791 0.01828 0.0
C3524 C 0.82703 0.40096 0.03107 0.0
C3525 C 0.84373 0.40788 0.04963 0.0
C3526 C 0.81017 0.37195 0.99731 0.0
C3527 C 0.79537 0.35071 0.99856 0.0
C3528 C 0.80695 0.38853 0.97733 0.0
C3529 C 0.82418 0.40906 0.9723 0.0
C3530 C 0.81694 0.43295 0.96698 0.0
C3531 C 0.83307 0.45182 0.96089 0.0
C3532 C 0.85653 0.44702 0.95989 0.0
C3533 C 0.86397 0.42344 0.96532 0.0
C3534 C 0.84791 0.40449 0.97135 0.0
C3535 C 0.71007 0.35052 0.93784 0.0
C3536 C 0.71212 0.35516 0.91209 0.0
C3537 C 0.72904 0.35501 0.95458 0.0
C3538 C 0.75087 0.3625 0.94562 0.0
C3539 C 0.75263 0.36788 0.91981 0.0
C3540 C 0.73339 0.36451 0.90331 0.0
C3541 C 0.77183 0.3644 0.96297 0.0
C3542 C 0.78751 0.3849 0.96098 0.0
C3543 C 0.77653 0.34638 0.98138 0.0
C3544 C 0.76247 0.32269 0.98297 0.0
C3545 C 0.7578 0.30737 0.96132 0.0
C3546 C 0.74383 0.28562 0.96282 0.0
C3547 C 0.73473 0.27874 0.98596 0.0
C3548 C 0.73975 0.29348 0.0077 0.0
C3549 C 0.75362 0.31529 0.00627 0.0
H3550 H 0.72384 0.26195 0.98707 0.0
H3551 H 0.86893 0.46156 0.95478 0.0
H3552 H 0.82759 0.57437 0.30206 0.0
H3553 H 0.82997 0.53644 0.27592 0.0
H3554 H 0.90347 0.55075 0.26987 0.0
H3555 H 0.90063 0.59 0.29414 0.0
H3556 H 0.86265 0.53948 0.22508 0.0
H3557 H 0.8841 0.48023 0.34302 0.0
H3558 H 0.87236 0.45893 0.37658 0.0
H3559 H 0.82905 0.40946 0.33159 0.0
H3560 H 0.83863 0.42833 0.29579 0.0
H3561 H 0.93671 0.43039 0.17703 0.0
H3562 H 0.92811 0.46055 0.21091 0.0
H3563 H 0.85801 0.46256 0.18158 0.0
H3564 H 0.8661 0.43159 0.14927 0.0
H3565 H 0.88225 0.48143 0.25709 0.0
H3566 H 0.83679 0.51861 0.18635 0.0
H3567 H 0.83296 0.53113 0.14196 0.0
H3568 H 0.90562 0.52291 0.13226 0.0
H3569 H 0.91002 0.51068 0.17664 0.0
C3570 C 0.84437 0.56894 0.29588 0.0
C3571 C 0.86424 0.58423 0.30169 0.0
C3572 C 0.84575 0.54719 0.28089 0.0
C3573 C 0.86729 0.53937 0.27269 0.0
C3574 C 0.88689 0.5555 0.2772 0.0
C3575 C 0.88533 0.57779 0.2913 0.0
C3576 C 0.86944 0.51608 0.25651 0.0
C3577 C 0.86861 0.52155 0.23064 0.0
C3578 C 0.87655 0.4878 0.26473 0.0
C3579 C 0.86376 0.4606 0.30942 0.0
C3580 C 0.87177 0.46567 0.33658 0.0
C3581 C 0.86518 0.45299 0.35815 0.0
C3582 C 0.84978 0.43299 0.35648 0.0
C3583 C 0.8411 0.42548 0.33311 0.0
C3584 C 0.84757 0.43801 0.31139 0.0
C3585 C 0.91916 0.43621 0.17884 0.0
C3586 C 0.90197 0.4283 0.16076 0.0
C3587 C 0.91445 0.45411 0.19761 0.0
C3588 C 0.89272 0.46483 0.19803 0.0
C3589 C 0.8752 0.45547 0.1811 0.0
C3590 C 0.87961 0.43706 0.16316 0.0
C3591 C 0.88723 0.48402 0.21747 0.0
C3592 C 0.88994 0.47686 0.24218 0.0
C3593 C 0.87591 0.50563 0.21146 0.0
C3594 C 0.87366 0.51352 0.18482 0.0
C3595 C 0.85198 0.5196 0.17479 0.0
C3596 C 0.84972 0.52661 0.14962 0.0
C3597 C 0.86903 0.52772 0.13429 0.0
C3598 C 0.89068 0.52193 0.14413 0.0
C3599 C 0.89306 0.51493 0.1693 0.0
H3600 H 0.86724 0.53311 0.1148 0.0
H3601 H 0.84474 0.42321 0.37323 0.0
H3602 H 0.79274 0.58726 0.39647 0.0
H3603 H 0.76464 0.58522 0.42716 0.0
H3604 H 0.77207 0.63875 0.44084 0.0
H3605 H 0.81472 0.66171 0.4176 0.0
H3606 H 0.72121 0.67525 0.48125 0.0
H3607 H 0.68087 0.64978 0.43659 0.0
H3608 H 0.65452 0.63923 0.40007 0.0
H3609 H 0.65854 0.56163 0.41491 0.0
H3610 H 0.68515 0.57173 0.45132 0.0
H3611 H 0.63179 0.64312 0.56881 0.0
H3612 H 0.65683 0.65743 0.5349 0.0
H3613 H 0.69271 0.58918 0.53781 0.0
H3614 H 0.66722 0.57453 0.57028 0.0
H3615 H 0.67859 0.59664 0.49251 0.0
H3616 H 0.71256 0.65785 0.55576 0.0
H3617 H 0.70978 0.69451 0.58433 0.0
H3618 H 0.6834 0.73589 0.52257 0.0
H3619 H 0.68594 0.69936 0.49387 0.0
C3620 C 0.7902 0.60397 0.4077 0.0
C3621 C 0.80404 0.62514 0.40376 0.0
C3622 C 0.77298 0.60355 0.4258 0.0
C3623 C 0.76529 0.62877 0.44087 0.0
C3624 C 0.78513 0.6489 0.43702 0.0
C3625 C 0.80253 0.64605 0.41958 0.0
C3626 C 0.72222 0.63507 0.46725 0.0
C3627 C 0.71467 0.65629 0.48355 0.0
C3628 C 0.70118 0.61778 0.46862 0.0
C3629 C 0.68528 0.61151 0.44641 0.0
C3630 C 0.67629 0.63046 0.43191 0.0
C3631 C 0.66128 0.62456 0.41127 0.0
C3632 C 0.65494 0.59977 0.40511 0.0
C3633 C 0.66352 0.58082 0.41965 0.0
C3634 C 0.67854 0.58661 0.44029 0.0
C3635 C 0.64568 0.63168 0.56292 0.0
C3636 C 0.64775 0.60785 0.57272 0.0
C3637 C 0.66009 0.63988 0.54343 0.0
C3638 C 0.67725 0.62467 0.53392 0.0
C3639 C 0.67988 0.60149 0.54474 0.0
C3640 C 0.6653 0.59315 0.56357 0.0
C3641 C 0.6907 0.6306 0.51079 0.0
C3642 C 0.69068 0.61259 0.49156 0.0
C3643 C 0.70122 0.65387 0.50555 0.0
C3644 C 0.69944 0.67583 0.5228 0.0
C3645 C 0.70623 0.67478 0.5484 0.0
C3646 C 0.70464 0.6955 0.56458 0.0
C3647 C 0.69641 0.71752 0.55527 0.0
C3648 C 0.68976 0.71882 0.52978 0.0
C3649 C 0.69128 0.6981 0.51356 0.0
H3650 H 0.6952 0.73357 0.56781 0.0
H3651 H 0.64333 0.59525 0.38912 0.0
H3652 H 0.61188 0.49146 0.88328 0.0
H3653 H 0.61576 0.52243 0.85056 0.0
H3654 H 0.64788 0.46934 0.80216 0.0
H3655 H 0.64429 0.43815 0.83524 0.0
H3656 H 0.66911 0.51944 0.80243 0.0
H3657 H 0.59115 0.47984 0.79209 0.0
H3658 H 0.55314 0.467 0.80922 0.0
H3659 H 0.5418 0.54278 0.83016 0.0
H3660 H 0.57997 0.55575 0.81385 0.0
H3661 H 0.65958 0.58742 0.68834 0.0
H3662 H 0.65915 0.5554 0.71969 0.0
H3663 H 0.6074 0.5935 0.76093 0.0
H3664 H 0.60784 0.62556 0.72944 0.0
H3665 H 0.59671 0.55021 0.76553 0.0
H3666 H 0.66947 0.59362 0.77183 0.0
H3667 H 0.70817 0.61 0.76023 0.0
H3668 H 0.73224 0.53615 0.75573 0.0
H3669 H 0.69367 0.51907 0.76617 0.0
C3670 C 0.62025 0.48642 0.86591 0.0
C3671 C 0.6276 0.46212 0.86189 0.0
C3672 C 0.62222 0.50416 0.84704 0.0
C3673 C 0.63175 0.49824 0.82359 0.0
C3674 C 0.64031 0.47441 0.81998 0.0
C3675 C 0.63816 0.45653 0.83887 0.0
C3676 C 0.63209 0.51669 0.80276 0.0
C3677 C 0.65338 0.52593 0.79384 0.0
C3678 C 0.61154 0.52628 0.7927 0.0
C3679 C 0.58846 0.51857 0.80205 0.0
C3680 C 0.58057 0.49357 0.80059 0.0
C3681 C 0.55903 0.48633 0.81006 0.0
C3682 C 0.54507 0.50405 0.82073 0.0
C3683 C 0.55263 0.52905 0.82191 0.0
C3684 C 0.57423 0.53634 0.81258 0.0
C3685 C 0.6475 0.58851 0.70359 0.0
C3686 C 0.63364 0.60909 0.70615 0.0
C3687 C 0.64746 0.57015 0.72196 0.0
C3688 C 0.63343 0.57166 0.74335 0.0
C3689 C 0.6185 0.59149 0.7449 0.0
C3690 C 0.61863 0.60988 0.72666 0.0
C3691 C 0.63398 0.55297 0.76415 0.0
C3692 C 0.61274 0.54379 0.77347 0.0
C3693 C 0.65477 0.54443 0.77531 0.0
C3694 C 0.6782 0.55492 0.76903 0.0
C3695 C 0.6828 0.58075 0.76788 0.0
C3696 C 0.70479 0.59021 0.76161 0.0
C3697 C 0.72255 0.57416 0.75715 0.0
C3698 C 0.71843 0.54859 0.75906 0.0
C3699 C 0.69646 0.539 0.76506 0.0
H3700 H 0.73954 0.58155 0.75235 0.0
H3701 H 0.52839 0.49841 0.82805 0.0
H3702 H 0.8172 0.36522 0.07848 0.0
H3703 H 0.78705 0.37321 0.04627 0.0
H3704 H 0.7349 0.36686 0.10237 0.0
H3705 H 0.7645 0.35964 0.13465 0.0
H3706 H 0.72517 0.33678 0.05903 0.0
H3707 H 0.7498 0.42011 0.0808 0.0
H3708 H 0.77635 0.45693 0.08653 0.0
H3709 H 0.78827 0.45668 0.00684 0.0
H3710 H 0.76277 0.41888 1.00066 0.0
H3711 H 0.62526 0.36681 0.99166 0.0
H3712 H 0.6575 0.3627 0.02055 0.0
H3713 H 0.70331 0.39726 0.96731 0.0
H3714 H 0.67022 0.40291 0.93851 0.0
H3715 H 0.71884 0.41168 0.00755 0.0
H3716 H 0.69648 0.326 0.98567 0.0
H3717 H 0.67094 0.28845 0.98019 0.0
H3718 H 0.6553 0.29205 0.05907 0.0
H3719 H 0.68064 0.32992 0.0649 0.0
C3720 C 0.79939 0.36612 0.08407 0.0
C3721 C 0.79342 0.36194 0.10931 0.0
C3722 C 0.78221 0.37057 0.06559 0.0
C3723 C 0.75873 0.37057 0.07174 0.0
C3724 C 0.75284 0.36693 0.097 0.0
C3725 C 0.76992 0.36293 0.11554 0.0
C3726 C 0.7401 0.37301 0.05182 0.0
C3727 C 0.72364 0.35325 0.04787 0.0
C3728 C 0.73854 0.39413 0.03659 0.0
C3729 C 0.75466 0.41626 0.04035 0.0
C3730 C 0.75851 0.42745 0.06453 0.0
C3731 C 0.77337 0.44854 0.06785 0.0
C3732 C 0.78414 0.45898 0.04706 0.0
C3733 C 0.78004 0.44839 0.0229 0.0
C3734 C 0.76551 0.42702 0.01951 0.0
C3735 C 0.64223 0.37314 0.98561 0.0
C3736 C 0.64495 0.38489 0.96227 0.0
C3737 C 0.66098 0.37041 0.00229 0.0
C3738 C 0.68354 0.37832 0.99602 0.0
C3739 C 0.68637 0.39022 0.9727 0.0
C3740 C 0.6674 0.39325 0.95593 0.0
C3741 C 0.70367 0.37525 0.01436 0.0
C3742 C 0.72043 0.39493 0.01821 0.0
C3743 C 0.70584 0.35375 0.02922 0.0
C3744 C 0.69035 0.33107 0.02561 0.0
C3745 C 0.68745 0.31903 0.00176 0.0
C3746 C 0.67303 0.2976 0.99862 0.0
C3747 C 0.66142 0.2879 0.01925 0.0
C3748 C 0.66428 0.2996 0.04308 0.0
C3749 C 0.67872 0.32103 0.04631 0.0
H3750 H 0.65026 0.2713 0.01679 0.0
H3751 H 0.79554 0.47539 0.04965 0.0
H3752 H 0.91919 0.56607 0.35323 0.0
H3753 H 0.91499 0.5342 0.31992 0.0
H3754 H 0.84281 0.52256 0.33668 0.0
H3755 H 0.84684 0.55527 0.36932 0.0
H3756 H 0.85953 0.50025 0.30046 0.0
H3757 H 0.92974 0.50831 0.27423 0.0
H3758 H 0.97051 0.51926 0.28641 0.0
H3759 H 0.96246 0.48046 0.35576 0.0
H3760 H 0.92192 0.46894 0.34374 0.0
H3761 H 0.84078 0.40677 0.19142 0.0
H3762 H 0.8446 0.44251 0.22089 0.0
H3763 H 0.8866 0.40112 0.27152 0.0
H3764 H 0.88406 0.36596 0.24151 0.0
H3765 H 0.90832 0.44169 0.2801 0.0
H3766 H 0.81715 0.42102 0.26188 0.0
H3767 H 0.77978 0.41535 0.23946 0.0
H3768 H 0.7785 0.49379 0.22828 0.0
H3769 H 0.81614 0.50016 0.25059 0.0
C3770 C 0.90223 0.55737 0.34897 0.0
C3771 C 0.88319 0.56353 0.36337 0.0
C3772 C 0.90008 0.53805 0.33073 0.0
C3773 C 0.87877 0.52487 0.3263 0.0
C3774 C 0.85951 0.53222 0.33974 0.0
C3775 C 0.86164 0.55136 0.35796 0.0
C3776 C 0.87469 0.5025 0.30626 0.0
C3777 C 0.84562 0.49315 0.29156 0.0
C3778 C 0.89858 0.48188 0.30077 0.0
C3779 C 0.9226 0.48869 0.30857 0.0
C3780 C 0.93669 0.50227 0.29214 0.0
C3781 C 0.95977 0.5085 0.29897 0.0
C3782 C 0.96899 0.50082 0.322 0.0
C3783 C 0.95521 0.48669 0.3381 0.0
C3784 C 0.93212 0.4804 0.33132 0.0
C3785 C 0.85137 0.40552 0.20848 0.0
C3786 C 0.86219 0.38349 0.21395 0.0
C3787 C 0.85293 0.42573 0.22582 0.0
C3788 C 0.86489 0.4242 0.24919 0.0
C3789 C 0.87686 0.40277 0.25394 0.0
C3790 C 0.87554 0.38269 0.23659 0.0
C3791 C 0.86619 0.44532 0.26801 0.0
C3792 C 0.89384 0.45323 0.28339 0.0
C3793 C 0.84236 0.46573 0.27191 0.0
C3794 C 0.81972 0.46122 0.25834 0.0
C3795 C 0.8091 0.43726 0.25497 0.0
C3796 C 0.78775 0.43384 0.24208 0.0
C3797 C 0.77671 0.45419 0.23251 0.0
C3798 C 0.78702 0.47802 0.23579 0.0
C3799 C 0.80836 0.48155 0.24865 0.0
H3800 H 0.76019 0.45149 0.22251 0.0
H3801 H 0.98687 0.50565 0.32727 0.0
H3802 H 0.8238 0.58086 0.44857 0.0
H3803 H 0.79267 0.5893 0.47682 0.0
H3804 H 0.83146 0.65402 0.50724 0.0
H3805 H 0.86362 0.64481 0.47936 0.0
H3806 H 0.81877 0.62568 0.54398 0.0
H3807 H 0.76539 0.67207 0.48539 0.0
H3808 H 0.74234 0.68273 0.43789 0.0
H3809 H 0.7363 0.59985 0.44962 0.0
H3810 H 0.74651 0.58199 0.47583 0.0
H3811 H 0.72683 0.66563 0.61983 0.0
H3812 H 0.75679 0.66011 0.5887 0.0
H3813 H 0.72701 0.58723 0.56878 0.0
H3814 H 0.69743 0.59247 0.60122 0.0
H3815 H 0.73427 0.61943 0.52588 0.0
H3816 H 0.77686 0.59011 0.59709 0.0
H3817 H 0.79227 0.59212 0.64102 0.0
H3818 H 0.83052 0.66013 0.62626 0.0
H3819 H 0.81508 0.65872 0.58231 0.0
C3820 C 0.82553 0.59738 0.46072 0.0
C3821 C 0.8463 0.61211 0.46178 0.0
C3822 C 0.80749 0.60231 0.4768 0.0
C3823 C 0.8094 0.62245 0.49411 0.0
C3824 C 0.82945 0.6384 0.49395 0.0
C3825 C 0.84776 0.63332 0.47783 0.0
C3826 C 0.79217 0.62413 0.51459 0.0
C3827 C 0.80028 0.62489 0.53992 0.0
C3828 C 0.76799 0.62211 0.50952 0.0
C3829 C 0.75818 0.62599 0.48391 0.0
C3830 C 0.75745 0.65708 0.47371 0.0
C3831 C 0.74281 0.66379 0.44402 0.0
C3832 C 0.72961 0.6392 0.42474 0.0
C3833 C 0.72989 0.60755 0.43421 0.0
C3834 C 0.7446 0.6007 0.46539 0.0
C3835 C 0.72689 0.64823 0.60914 0.0
C3836 C 0.70929 0.62978 0.61216 0.0
C3837 C 0.74404 0.6451 0.59129 0.0
C3838 C 0.74387 0.62349 0.57586 0.0
C3839 C 0.72707 0.60438 0.5799 0.0
C3840 C 0.71007 0.60742 0.59816 0.0
C3841 C 0.76084 0.62155 0.55512 0.0
C3842 C 0.75271 0.62038 0.52978 0.0
C3843 C 0.78498 0.62375 0.56016 0.0
C3844 C 0.79467 0.6244 0.58644 0.0
C3845 C 0.78845 0.60558 0.60325 0.0
C3846 C 0.7972 0.6066 0.62815 0.0
C3847 C 0.81232 0.62627 0.63645 0.0
C3848 C 0.81879 0.64491 0.61981 0.0
C3849 C 0.81007 0.64399 0.59489 0.0
H3850 H 0.81904 0.62706 0.65575 0.0
H3851 H 0.72133 0.64345 0.40692 0.0
H3852 H 0.55447 0.65869 0.67242 0.0
H3853 H 0.52446 0.68916 0.67696 0.0
H3854 H 0.48169 0.6482 0.62077 0.0
H3855 H 0.51173 0.61826 0.61583 0.0
H3856 H 0.48315 0.69581 0.61032 0.0
H3857 H 0.46895 0.6488 0.68451 0.0
H3858 H 0.47909 0.62961 0.72486 0.0
H3859 H 0.49974 0.70131 0.75732 0.0
H3860 H 0.48999 0.7209 0.71702 0.0
H3861 H 0.37634 0.75489 0.62688 0.0
H3862 H 0.40921 0.72859 0.62109 0.0
H3863 H 0.44501 0.76613 0.68485 0.0
H3864 H 0.41139 0.79114 0.69157 0.0
H3865 H 0.44874 0.72133 0.69117 0.0
H3866 H 0.46056 0.76913 0.61741 0.0
H3867 H 0.45258 0.78822 0.57657 0.0
H3868 H 0.43797 0.71601 0.54213 0.0
H3869 H 0.44559 0.69655 0.58298 0.0
C3870 C 0.53858 0.65616 0.6612 0.0
C3871 C 0.53561 0.63623 0.64358 0.0
C3872 C 0.52134 0.67349 0.6639 0.0
C3873 C 0.50071 0.67117 0.64909 0.0
C3874 C 0.49743 0.65064 0.63227 0.0
C3875 C 0.51456 0.63333 0.62968 0.0
C3876 C 0.48281 0.69034 0.65042 0.0
C3877 C 0.47545 0.70131 0.62796 0.0
C3878 C 0.4731 0.69798 0.67346 0.0
C3879 C 0.47897 0.68627 0.69769 0.0
C3880 C 0.47583 0.66044 0.70019 0.0
C3881 C 0.48147 0.6495 0.72306 0.0
C3882 C 0.49012 0.66422 0.74362 0.0
C3883 C 0.49308 0.68993 0.74137 0.0
C3884 C 0.48748 0.70096 0.71853 0.0
C3885 C 0.39153 0.75798 0.63916 0.0
C3886 C 0.3914 0.77523 0.65951 0.0
C3887 C 0.41043 0.7429 0.63586 0.0
C3888 C 0.42997 0.74526 0.6524 0.0
C3889 C 0.43025 0.76361 0.67187 0.0
C3890 C 0.41111 0.77814 0.67558 0.0
C3891 C 0.44905 0.72729 0.65098 0.0
C3892 C 0.45656 0.71631 0.67345 0.0
C3893 C 0.45895 0.71976 0.62788 0.0
C3894 C 0.45333 0.73143 0.60347 0.0
C3895 C 0.4553 0.75736 0.60128 0.0
C3896 C 0.45094 0.76824 0.57807 0.0
C3897 C 0.44467 0.75334 0.55677 0.0
C3898 C 0.44276 0.72754 0.55867 0.0
C3899 C 0.44711 0.71659 0.58187 0.0
H3900 H 0.44135 0.76178 0.53878 0.0
H3901 H 0.49447 0.65571 0.76131 0.0
H3902 H 0.32392 0.59846 0.20406 0.0
H3903 H 0.3237 0.56388 0.2334 0.0
H3904 H 0.39526 0.58217 0.25374 0.0
H3905 H 0.39537 0.61699 0.22514 0.0
H3906 H 0.35171 0.5227 0.23669 0.0
H3907 H 0.4042 0.57506 0.3156 0.0
H3908 H 0.4131 0.61822 0.33053 0.0
H3909 H 0.34647 0.63908 0.30329 0.0
H3910 H 0.33706 0.59599 0.28836 0.0
H3911 H 0.40815 0.4516 0.33716 0.0
H3912 H 0.40284 0.48266 0.30489 0.0
H3913 H 0.33661 0.49876 0.33516 0.0
H3914 H 0.3426 0.46898 0.36866 0.0
H3915 H 0.37178 0.54068 0.32718 0.0
H3916 H 0.32096 0.45931 0.24897 0.0
H3917 H 0.33802 0.40768 0.21737 0.0
H3918 H 0.43089 0.44079 0.22835 0.0
H3919 H 0.41447 0.4671 0.24616 0.0
C3920 C 0.3397 0.59473 0.21444 0.0
C3921 C 0.35965 0.61038 0.21247 0.0
C3922 C 0.33946 0.57522 0.23138 0.0
C3923 C 0.35923 0.57106 0.24631 0.0
C3924 C 0.37961 0.5856 0.24299 0.0
C3925 C 0.37974 0.60526 0.22642 0.0
C3926 C 0.35893 0.55131 0.26519 0.0
C3927 C 0.35561 0.5266 0.25655 0.0
C3928 C 0.36505 0.55651 0.29093 0.0
C3929 C 0.36993 0.58227 0.30086 0.0
C3930 C 0.39134 0.5888 0.31302 0.0
C3931 C 0.39651 0.61328 0.32139 0.0
C3932 C 0.38037 0.6314 0.31781 0.0
C3933 C 0.35897 0.62504 0.30596 0.0
C3934 C 0.35371 0.60059 0.29753 0.0
C3935 C 0.39211 0.46117 0.33639 0.0
C3936 C 0.37537 0.45722 0.35486 0.0
C3937 C 0.3891 0.47892 0.31787 0.0
C3938 C 0.3689 0.49233 0.31692 0.0
C3939 C 0.35209 0.48823 0.33522 0.0
C3940 C 0.35541 0.47108 0.35419 0.0
C3941 C 0.36575 0.51205 0.2983 0.0
C3942 C 0.36753 0.53676 0.30733 0.0
C3943 C 0.36021 0.50697 0.27237 0.0
C3944 C 0.36586 0.4836 0.25968 0.0
C3945 C 0.33897 0.4568 0.24508 0.0
C3946 C 0.35033 0.42256 0.22337 0.0
C3947 C 0.38665 0.41963 0.21678 0.0
C3948 C 0.41283 0.44528 0.2321 0.0
C3949 C 0.40242 0.4791 0.25492 0.0
H3950 H 0.39202 0.4036 0.20614 0.0
H3951 H 0.38443 0.65037 0.32422 0.0
H3952 H 0.30912 0.67608 0.07207 0.0
H3953 H 0.27261 0.6758 0.04671 0.0
H3954 H 0.23369 0.67626 0.11479 0.0
H3955 H 0.26965 0.67347 0.13996 0.0
H3956 H 0.21599 0.6432 0.08306 0.0
H3957 H 0.23716 0.72805 0.07643 0.0
H3958 H 0.26301 0.76482 0.06986 0.0
H3959 H 0.2721 0.74101 0.9928 0.0
H3960 H 0.24687 0.70382 0.9991 0.0
H3961 H 0.13474 0.65741 0.96338 0.0
H3962 H 0.15557 0.67948 0.99932 0.0
H3963 H 0.20221 0.62028 0.004 0.0
H3964 H 0.1826 0.59842 0.96835 0.0
H3965 H 0.20425 0.69521 0.00824 0.0
H3966 H 0.2082 0.60117 0.05801 0.0
H3967 H 0.18269 0.56483 0.06742 0.0
H3968 H 0.12332 0.60941 0.06162 0.0
H3969 H 0.14844 0.64584 0.05158 0.0
C3970 C 0.29272 0.67595 0.08145 0.0
C3971 C 0.29194 0.67391 0.1077 0.0
C3972 C 0.2721 0.67666 0.06707 0.0
C3973 C 0.25062 0.67693 0.07876 0.0
C3974 C 0.25003 0.67622 0.10525 0.0
C3975 C 0.27053 0.67461 0.11958 0.0
C3976 C 0.2289 0.67495 0.063 0.0
C3977 C 0.21333 0.65485 0.06693 0.0
C3978 C 0.22494 0.69051 0.04226 0.0
C3979 C 0.23998 0.71309 0.03823 0.0
C3980 C 0.24474 0.73058 0.05811 0.0
C3981 C 0.25933 0.75151 0.05444 0.0
C3982 C 0.26916 0.75527 0.03092 0.0
C3983 C 0.26438 0.73815 0.01099 0.0
C3984 C 0.24991 0.71712 0.0146 0.0
C3985 C 0.14983 0.64936 0.97174 0.0
C3986 C 0.15697 0.62607 0.96292 0.0
C3987 C 0.1615 0.66186 0.99244 0.0
C3988 C 0.18016 0.65097 0.00469 0.0
C3989 C 0.18763 0.62842 0.99514 0.0
C3990 C 0.17641 0.61616 0.97458 0.0
C3991 C 0.1928 0.66229 0.0273 0.0
C3992 C 0.20674 0.68404 0.02472 0.0
C3993 C 0.19539 0.64835 0.04941 0.0
C3994 C 0.18017 0.62619 0.0541 0.0
C3995 C 0.18968 0.60316 0.05864 0.0
C3996 C 0.1753 0.58253 0.06399 0.0
C3997 C 0.15141 0.5848 0.06517 0.0
C3998 C 0.14182 0.60763 0.06062 0.0
C3999 C 0.1561 0.62823 0.05489 0.0
H4000 H 0.14032 0.56887 0.06959 0.0
H4001 H 0.2805 0.77145 0.02813 0.0
H4002 H 0.09517 0.55863 0.85089 0.0
H4003 H 0.09145 0.52854 0.81676 0.0
H4004 H 0.16302 0.51091 0.82793 0.0
H4005 H 0.16649 0.54164 0.86318 0.0
H4006 H 0.15976 0.50699 0.7808 0.0
H4007 H 0.10126 0.47596 0.85324 0.0
H4008 H 0.06712 0.47547 0.88077 0.0
H4009 H 0.02265 0.48578 0.81613 0.0
H4010 H 0.05631 0.48613 0.78852 0.0
H4011 H 0.17138 0.37745 0.72486 0.0
H4012 H 0.16039 0.40814 0.75628 0.0
H4013 H 0.10979 0.43375 0.70331 0.0
H4014 H 0.11681 0.39906 0.67465 0.0
H4015 H 0.07979 0.43966 0.78777 0.0
H4016 H 0.16719 0.50951 0.73181 0.0
H4017 H 0.20513 0.51443 0.71224 0.0
H4018 H 0.22275 0.44281 0.73801 0.0
H4019 H 0.18551 0.43846 0.75881 0.0
C4020 C 0.11044 0.54905 0.84557 0.0
C4021 C 0.13133 0.55329 0.85931 0.0
C4022 C 0.10824 0.53114 0.82602 0.0
C4023 C 0.12695 0.51681 0.81911 0.0
C4024 C 0.14826 0.52173 0.83224 0.0
C4025 C 0.15034 0.53946 0.85238 0.0
C4026 C 0.12393 0.49583 0.79964 0.0
C4027 C 0.14593 0.49279 0.779 0.0
C4028 C 0.09998 0.47682 0.80186 0.0
C4029 C 0.08118 0.48143 0.81911 0.0
C4030 C 0.08422 0.47873 0.84521 0.0
C4031 C 0.06497 0.47826 0.86071 0.0
C4032 C 0.04279 0.48048 0.85013 0.0
C4033 C 0.03982 0.48404 0.82426 0.0
C4034 C 0.05894 0.48439 0.80875 0.0
C4035 C 0.15736 0.38925 0.72029 0.0
C4036 C 0.14438 0.38534 0.6976 0.0
C4037 C 0.15195 0.40785 0.73783 0.0
C4038 C 0.13514 0.42493 0.73214 0.0
C4039 C 0.12334 0.42178 0.70844 0.0
C4040 C 0.12738 0.40189 0.69174 0.0
C4041 C 0.12916 0.44503 0.75206 0.0
C4042 C 0.09558 0.45089 0.78404 0.0
C4043 C 0.14959 0.46992 0.7567 0.0
C4044 C 0.17199 0.47193 0.7438 0.0
C4045 C 0.17875 0.49435 0.73248 0.0
C4046 C 0.20039 0.49735 0.72152 0.0
C4047 C 0.21601 0.47846 0.72286 0.0
C4048 C 0.21021 0.45692 0.73582 0.0
C4049 C 0.18854 0.45395 0.74675 0.0
H4050 H 0.23284 0.48082 0.71455 0.0
H4051 H 0.02775 0.47899 0.86172 0.0
H4052 H 0.24511 0.33927 0.61894 0.0
H4053 H 0.27837 0.33923 0.59121 0.0
H4054 H 0.23214 0.33412 0.52586 0.0
H4055 H 0.1986 0.33421 0.55384 0.0
H4056 H 0.27495 0.30364 0.52381 0.0
H4057 H 0.25061 0.38727 0.54368 0.0
H4058 H 0.24142 0.42128 0.57333 0.0
H4059 H 0.30996 0.42086 0.60637 0.0
H4060 H 0.3193 0.38654 0.57715 0.0
H4061 H 0.32742 0.40906 0.44658 0.0
H4062 H 0.30431 0.38827 0.47803 0.0
H4063 H 0.35585 0.33336 0.48519 0.0
H4064 H 0.37784 0.35302 0.45214 0.0
H4065 H 0.31815 0.38523 0.52438 0.0
H4066 H 0.34407 0.30277 0.51048 0.0
H4067 H 0.3564 0.26652 0.48581 0.0
H4068 H 0.28897 0.25793 0.45013 0.0
H4069 H 0.27648 0.29397 0.47459 0.0
C4070 C 0.2421 0.33818 0.59862 0.0
C4071 C 0.21948 0.33754 0.58835 0.0
C4072 C 0.26105 0.33787 0.58285 0.0
C4073 C 0.25771 0.33676 0.55649 0.0
C4074 C 0.23503 0.33499 0.54616 0.0
C4075 C 0.21597 0.33546 0.56204 0.0
C4076 C 0.27781 0.3407 0.53994 0.0
C4077 C 0.28429 0.32154 0.52348 0.0
C4078 C 0.291 0.36341 0.54103 0.0
C4079 C 0.2855 0.38418 0.55846 0.0
C4080 C 0.26358 0.39429 0.55748 0.0
C4081 C 0.25837 0.41363 0.57416 0.0
C4082 C 0.27508 0.42319 0.59179 0.0
C4083 C 0.29703 0.41343 0.59273 0.0
C4084 C 0.30227 0.39403 0.5761 0.0
C4085 C 0.33325 0.39186 0.45408 0.0
C4086 C 0.35417 0.38238 0.44649 0.0
C4087 C 0.32012 0.37999 0.47231 0.0
C4088 C 0.32755 0.35836 0.48385 0.0
C4089 C 0.34839 0.34863 0.47585 0.0
C4090 C 0.3613 0.36022 0.45697 0.0
C4091 C 0.31428 0.34904 0.50598 0.0
C4092 C 0.30907 0.36715 0.52431 0.0
C4093 C 0.30291 0.32503 0.507 0.0
C4094 C 0.31019 0.30304 0.49219 0.0
C4095 C 0.33226 0.29392 0.49642 0.0
C4096 C 0.33917 0.27306 0.48283 0.0
C4097 C 0.32375 0.26043 0.4657 0.0
C4098 C 0.3012 0.2682 0.46274 0.0
C4099 C 0.29429 0.28903 0.47633 0.0
H4100 H 0.3291 0.24427 0.45521 0.0
H4101 H 0.27104 0.43819 0.60469 0.0
H4102 H 0.34253 0.43041 0.32316 0.0
H4103 H 0.34742 0.45663 0.29012 0.0
H4104 H 0.38033 0.39385 0.25038 0.0
H4105 H 0.37734 0.37289 0.28664 0.0
H4106 H 0.39926 0.44346 0.26728 0.0
H4107 H 0.34442 0.42248 0.16612 0.0
H4108 H 0.30884 0.40131 0.14778 0.0
H4109 H 0.26737 0.44892 0.19223 0.0
H4110 H 0.3026 0.47048 0.21053 0.0
H4111 H 0.39874 0.51684 0.12184 0.0
H4112 H 0.38923 0.48652 0.15267 0.0
H4113 H 0.36687 0.54413 0.20274 0.0
H4114 H 0.37038 0.5739 0.16818 0.0
H4115 H 0.33822 0.49251 0.17958 0.0
H4116 H 0.41546 0.5141 0.22415 0.0
H4117 H 0.45174 0.52432 0.20291 0.0
H4118 H 0.442 0.4587 0.1555 0.0
H4119 H 0.40557 0.44772 0.17649 0.0
C4120 C 0.35265 0.42409 0.30753 0.0
C4121 C 0.36188 0.40106 0.30854 0.0
C4122 C 0.35569 0.43947 0.28672 0.0
C4123 C 0.36752 0.43325 0.26142 0.0
C4124 C 0.37332 0.40535 0.26487 0.0
C4125 C 0.37176 0.39183 0.28699 0.0
C4126 C 0.37242 0.45774 0.22526 0.0
C4127 C 0.37783 0.44695 0.24721 0.0
C4128 C 0.34809 0.46087 0.20081 0.0
C4129 C 0.32623 0.44707 0.19087 0.0
C4130 C 0.32769 0.42809 0.1723 0.0
C4131 C 0.30759 0.41614 0.16179 0.0
C4132 C 0.28587 0.42346 0.16919 0.0
C4133 C 0.2842 0.44293 0.18688 0.0
C4134 C 0.30425 0.45492 0.19746 0.0
C4135 C 0.39067 0.523 0.13877 0.0
C4136 C 0.3836 0.54742 0.14141 0.0
C4137 C 0.38702 0.50578 0.1576 0.0
C4138 C 0.37924 0.51291 0.18156 0.0
C4139 C 0.37387 0.53806 0.18512 0.0
C4140 C 0.37582 0.55513 0.16524 0.0
C4141 C 0.37116 0.49291 0.19993 0.0
C4142 C 0.34993 0.48416 0.19295 0.0
C4143 C 0.38401 0.47126 0.21654 0.0
C4144 C 0.40752 0.47971 0.20234 0.0
C4145 C 0.42114 0.50147 0.20959 0.0
C4146 C 0.44168 0.50754 0.19737 0.0
C4147 C 0.44919 0.49212 0.17797 0.0
C4148 C 0.43616 0.47058 0.17062 0.0
C4149 C 0.41553 0.46438 0.18262 0.0
H4150 H 0.46511 0.49691 0.16855 0.0
H4151 H 0.27032 0.41424 0.16098 0.0
H4152 H 0.36478 0.65187 0.04154 0.0
H4153 H 0.3366 0.65825 0.00788 0.0
H4154 H 0.28378 0.62054 0.05099 0.0
H4155 H 0.31299 0.61102 0.08261 0.0
H4156 H 0.27802 0.6028 0.01033 0.0
H4157 H 0.2996 0.69548 0.02687 0.0
H4158 H 0.32661 0.73163 0.02456 0.0
H4159 H 0.33863 0.71329 0.94669 0.0
H4160 H 0.31154 0.67679 0.94861 0.0
H4161 H 0.189 0.68689 0.94823 0.0
H4162 H 0.2224 0.67676 0.97391 0.0
H4163 H 0.23253 0.61348 0.92501 0.0
H4164 H 0.198 0.6225 0.90021 0.0
H4165 H 0.26524 0.6769 0.9598 0.0
H4166 H 0.25505 0.58544 0.94179 0.0
H4167 H 0.23203 0.54582 0.93754 0.0
H4168 H 0.20832 0.55582 0.01321 0.0
H4169 H 0.23105 0.5956 0.01756 0.0
C4170 C 0.34687 0.64611 0.04446 0.0
C4171 C 0.34123 0.63096 0.06493 0.0
C4172 C 0.3305 0.64967 0.02484 0.0
C4173 C 0.30743 0.6401 0.02625 0.0
C4174 C 0.30136 0.62765 0.04848 0.0
C4175 C 0.31798 0.62289 0.06726 0.0
C4176 C 0.28981 0.64074 0.00452 0.0
C4177 C 0.27506 0.61941 0.99982 0.0
C4178 C 0.28689 0.66123 0.98846 0.0
C4179 C 0.30345 0.68313 0.98799 0.0
C4180 C 0.30788 0.69894 0.00929 0.0
C4181 C 0.3233 0.71959 0.00804 0.0
C4182 C 0.33438 0.72476 0.9855 0.0
C4183 C 0.33005 0.70928 0.96417 0.0
C4184 C 0.31464 0.68861 0.96535 0.0
C4185 C 0.19766 0.67005 0.94358 0.0
C4186 C 0.19009 0.65504 0.92253 0.0
C4187 C 0.21703 0.66434 0.95833 0.0
C4188 C 0.22989 0.64352 0.95272 0.0
C4189 C 0.22238 0.62842 0.93157 0.0
C4190 C 0.20252 0.63383 0.91698 0.0
C4191 C 0.25201 0.64008 0.96794 0.0
C4192 C 0.26791 0.66066 0.971 0.0
C4193 C 0.25664 0.61855 0.9818 0.0
C4194 C 0.24266 0.59483 0.97895 0.0
C4195 C 0.24394 0.57981 0.95699 0.0
C4196 C 0.23131 0.55707 0.95472 0.0
C4197 C 0.21808 0.54865 0.97479 0.0
C4198 C 0.21802 0.56264 0.99739 0.0
C4199 C 0.23068 0.58534 0.99966 0.0
H4200 H 0.20833 0.53105 0.97303 0.0
H4201 H 0.34631 0.74076 0.98457 0.0
H4202 H 0.14761 0.45216 0.6598 0.0
H4203 H 0.15233 0.4821 0.69487 0.0
H4204 H 0.07918 0.49232 0.69358 0.0
H4205 H 0.07404 0.46176 0.65844 0.0
H4206 H 0.13175 0.53291 0.69306 0.0
H4207 H 0.07945 0.46437 0.72716 0.0
H4208 H 0.07758 0.41557 0.73421 0.0
H4209 H 0.13297 0.40952 0.80227 0.0
H4210 H 0.14595 0.45837 0.80651 0.0
H4211 H 0.0973 0.60165 0.81948 0.0
H4212 H 0.08859 0.57145 0.78463 0.0
H4213 H 0.16138 0.56903 0.76997 0.0
H4214 H 0.17015 0.59936 0.80457 0.0
H4215 H 0.09882 0.52471 0.77689 0.0
H4216 H 0.16911 0.56142 0.7065 0.0
H4217 H 0.18206 0.60098 0.68781 0.0
H4218 H 0.12006 0.63432 0.71172 0.0
H4219 H 0.1067 0.59499 0.7305 0.0
C4220 C 0.13237 0.4601 0.66753 0.0
C4221 C 0.11024 0.45332 0.6573 0.0
C4222 C 0.13508 0.47701 0.68812 0.0
C4223 C 0.11582 0.48736 0.69929 0.0
C4224 C 0.09408 0.48278 0.68707 0.0
C4225 C 0.09119 0.46554 0.66673 0.0
C4226 C 0.11872 0.50682 0.72003 0.0
C4227 C 0.12667 0.53047 0.71249 0.0
C4228 C 0.11195 0.50375 0.74581 0.0
C4229 C 0.10971 0.47797 0.75827 0.0
C4230 C 0.0915 0.45751 0.74074 0.0
C4231 C 0.08992 0.42658 0.74602 0.0
C4232 C 0.105 0.41079 0.7679 0.0
C4233 C 0.12478 0.42219 0.78975 0.0
C4234 C 0.13233 0.45297 0.7924 0.0
C4235 C 0.11149 0.59455 0.80895 0.0
C4236 C 0.13451 0.6026 0.81522 0.0
C4237 C 0.10643 0.57743 0.78883 0.0
C4238 C 0.12424 0.56805 0.77434 0.0
C4239 C 0.14723 0.57617 0.78053 0.0
C4240 C 0.15228 0.59331 0.80059 0.0
C4241 C 0.11939 0.54857 0.75389 0.0
C4242 C 0.10857 0.52573 0.76003 0.0
C4243 C 0.12823 0.55101 0.72942 0.0
C4244 C 0.13699 0.57528 0.72003 0.0
C4245 C 0.15829 0.57723 0.70786 0.0
C4246 C 0.16565 0.59958 0.69716 0.0
C4247 C 0.15177 0.62006 0.69833 0.0
C4248 C 0.13071 0.61839 0.71067 0.0
C4249 C 0.12332 0.59612 0.72152 0.0
H4250 H 0.15745 0.63731 0.68994 0.0
H4251 H 0.10139 0.39093 0.76788 0.0
H4252 H 0.17641 0.3964 0.56843 0.0
H4253 H 0.21005 0.39262 0.54166 0.0
H4254 H 0.16652 0.35498 0.48379 0.0
H4255 H 0.13366 0.35719 0.51082 0.0
H4256 H 0.20182 0.33515 0.48107 0.0
H4257 H 0.18719 0.42046 0.48733 0.0
H4258 H 0.18198 0.46129 0.5078 0.0
H4259 H 0.25308 0.46502 0.53344 0.0
H4260 H 0.2587 0.42412 0.51331 0.0
H4261 H 0.2979 0.38659 0.39109 0.0
H4262 H 0.26615 0.39742 0.41916 0.0
H4263 H 0.2773 0.33241 0.46179 0.0
H4264 H 0.30809 0.32075 0.43369 0.0
H4265 H 0.25709 0.40652 0.46829 0.0
H4266 H 0.23099 0.30106 0.47703 0.0
H4267 H 0.23207 0.26257 0.45094 0.0
H4268 H 0.23266 0.30508 0.38346 0.0
H4269 H 0.23146 0.34381 0.40909 0.0
C4270 C 0.17419 0.38664 0.55031 0.0
C4271 C 0.15213 0.37719 0.5419 0.0
C4272 C 0.19345 0.38493 0.53469 0.0
C4273 C 0.19107 0.37403 0.51014 0.0
C4274 C 0.16924 0.3635 0.50246 0.0
C4275 C 0.15024 0.36477 0.51812 0.0
C4276 C 0.2109 0.37317 0.49223 0.0
C4277 C 0.21367 0.35097 0.47834 0.0
C4278 C 0.22637 0.39385 0.48777 0.0
C4279 C 0.2232 0.4188 0.49938 0.0
C4280 C 0.20167 0.42983 0.49756 0.0
C4281 C 0.19866 0.45305 0.50904 0.0
C4282 C 0.21714 0.46566 0.52207 0.0
C4283 C 0.23874 0.45518 0.52345 0.0
C4284 C 0.24183 0.43195 0.51202 0.0
C4285 C 0.29392 0.37491 0.4069 0.0
C4286 C 0.30557 0.3528 0.41023 0.0
C4287 C 0.27563 0.38101 0.42281 0.0
C4288 C 0.2688 0.36505 0.44223 0.0
C4289 C 0.28165 0.34414 0.44638 0.0
C4290 C 0.29948 0.33784 0.43053 0.0
C4291 C 0.24768 0.36859 0.4576 0.0
C4292 C 0.24484 0.39104 0.47101 0.0
C4293 C 0.23117 0.34867 0.46065 0.0
C4294 C 0.23134 0.32537 0.44503 0.0
C4295 C 0.23118 0.30219 0.45661 0.0
C4296 C 0.23191 0.28033 0.4419 0.0
C4297 C 0.23254 0.28139 0.41556 0.0
C4298 C 0.23235 0.3043 0.40387 0.0
C4299 C 0.23169 0.32622 0.41848 0.0
H4300 H 0.23312 0.26445 0.4042 0.0
H4301 H 0.21477 0.48363 0.53099 0.0
H4302 H 0.46736 0.36073 0.43616 0.0
H4303 H 0.499 0.33304 0.43228 0.0
H4304 H 0.4699 0.305 0.36051 0.0
H4305 H 0.43933 0.33447 0.36341 0.0
H4306 H 0.50785 0.2908 0.43254 0.0
H4307 H 0.50606 0.28054 0.32218 0.0
H4308 H 0.49789 0.3056 0.28491 0.0
H4309 H 0.51173 0.37258 0.32953 0.0
H4310 H 0.52025 0.34792 0.36697 0.0
H4311 H 0.57612 0.20096 0.34937 0.0
H4312 H 0.54471 0.2285 0.35724 0.0
H4313 H 0.58788 0.27075 0.41209 0.0
H4314 H 0.61963 0.24329 0.40405 0.0
H4315 H 0.54478 0.27811 0.34999 0.0
H4316 H 0.54824 0.29749 0.45705 0.0
H4317 H 0.56372 0.27969 0.49608 0.0
H4318 H 0.55784 0.20673 0.46133 0.0
H4319 H 0.54228 0.22415 0.4223 0.0
C4320 C 0.4676 0.34854 0.41958 0.0
C4321 C 0.4507 0.34971 0.4001 0.0
C4322 C 0.48577 0.33252 0.41741 0.0
C4323 C 0.48732 0.31684 0.39592 0.0
C4324 C 0.46971 0.3172 0.37704 0.0
C4325 C 0.45189 0.33378 0.37886 0.0
C4326 C 0.50753 0.30066 0.39318 0.0
C4327 C 0.51606 0.28845 0.4145 0.0
C4328 C 0.51871 0.29742 0.36982 0.0
C4329 C 0.51356 0.31238 0.34741 0.0
C4330 C 0.50742 0.30061 0.324 0.0
C4331 C 0.50271 0.31475 0.30286 0.0
C4332 C 0.50421 0.34067 0.30488 0.0
C4333 C 0.51048 0.35251 0.32802 0.0
C4334 C 0.51523 0.33847 0.34921 0.0
C4335 C 0.57872 0.21564 0.36368 0.0
C4336 C 0.60016 0.21964 0.37651 0.0
C4337 C 0.56082 0.23151 0.36798 0.0
C4338 C 0.56379 0.2514 0.38555 0.0
C4339 C 0.58507 0.25525 0.39876 0.0
C4340 C 0.60314 0.23952 0.39423 0.0
C4341 C 0.54471 0.26845 0.38915 0.0
C4342 C 0.53648 0.28074 0.36798 0.0
C4343 C 0.53494 0.27298 0.41297 0.0
C4344 C 0.5442 0.26215 0.43653 0.0
C4345 C 0.5502 0.27764 0.45773 0.0
C4346 C 0.55907 0.26764 0.47988 0.0
C4347 C 0.5619 0.24211 0.48116 0.0
C4348 C 0.55581 0.22653 0.46031 0.0
C4349 C 0.54699 0.23648 0.43814 0.0
H4350 H 0.56869 0.2344 0.49835 0.0
H4351 H 0.50057 0.35157 0.28849 0.0
loop_
_geom_bond_atom_site_label_1
_geom_bond_atom_site_label_2
_geom_bond_distance
_geom_bond_site_symmetry_2
_ccdc_geom_bond_type
Mn0 O5 2.095 . S
Mn0 O15 2.162 . S
Mn0 O16 2.297 . S
Mn0 O24 2.385 . S
Mn0 O25 2.209 . S
Mn0 O26 2.094 . S
Mn1 O6 2.121 . S
Mn1 N8 2.257 . S
Mn1 N17 2.282 . S
Mn1 O25 2.215 . S
Mn1 O27 2.117 . S
C2 O24 1.234 . S
C2 O25 1.283 . S
C3 O15 1.281 . S
C3 O16 1.236 . S
C4 O26 1.240 . S
C4 O27 1.264 . S
O5 Mn0 2.095 . S
O5 C14 1.250 . S
O6 Mn1 2.121 . S
O6 C14 1.258 . S
C7 N8 1.339 . S
C7 C11 1.436 1_545 S
C7 H13 0.940 . S
N8 Mn1 2.257 . S
N8 C7 1.339 . S
N8 C12 1.362 . S
C9 C10 1.258 . S
C9 C12 1.431 1_565 S
C9 C29 1.449 . S
C10 C9 1.258 . S
C10 C11 1.477 . S
C10 H30 0.931 . S
C11 C7 1.436 1_565 S
C11 C10 1.477 . S
C11 H31 0.930 . S
C12 N8 1.362 . S
C12 C9 1.431 1_545 S
C12 C22 1.476 . S
H13 C7 0.940 . S
C14 O5 1.250 . S
C14 O6 1.258 . S
O15 Mn0 2.162 . S
O15 C3 1.281 . S
O16 Mn0 2.297 . S
O16 C3 1.236 . S
N17 Mn1 2.282 . S
N17 C18 1.328 . S
N17 C22 1.318 . S
C18 N17 1.328 . S
C18 C19 1.457 1_554 S
C18 H23 0.929 . S
C19 C18 1.457 1_556 S
C19 C20 1.291 . S
C19 H32 0.931 . S
C20 C19 1.291 . S
C20 C21 1.373 1_556 S
C20 H33 0.929 . S
C21 C20 1.373 1_554 S
C21 C22 1.396 . S
C21 C28 1.403 1_545 S
C22 C12 1.476 . S
C22 N17 1.318 . S
C22 C21 1.396 . S
H23 C18 0.929 . S
O24 Mn0 2.385 . S
O24 C2 1.234 . S
O25 Mn0 2.209 . S
O25 Mn1 2.215 . S
O25 C2 1.283 . S
O26 Mn0 2.094 . S
O26 C4 1.240 . S
O27 Mn1 2.117 . S
O27 C4 1.264 . S
C28 C21 1.403 1_565 S
C28 C29 1.399 . S
C28 H34 0.929 1_554 S
C29 C9 1.449 . S
C29 C28 1.399 . S
C29 H35 0.930 . S
H30 C10 0.931 . S
H31 C11 0.930 . S
H32 C19 0.931 . S
H33 C20 0.929 . S
H34 C28 0.929 1_556 S
H35 C29 0.930 . S
Mn36 O41 2.095 . S
Mn36 O51 2.162 . S
Mn36 O52 2.297 . S
Mn36 O60 2.385 . S
Mn36 O61 2.209 . S
Mn36 O62 2.094 . S
Mn37 O42 2.121 . S
Mn37 N44 2.257 . S
Mn37 N53 2.282 . S
Mn37 O61 2.215 . S
Mn37 O63 2.117 . S
C38 O60 1.234 . S
C38 O61 1.283 . S
C39 O51 1.281 . S
C39 O52 1.236 . S
C40 O62 1.240 . S
C40 O63 1.264 . S
O41 Mn36 2.095 . S
O41 C50 1.250 . S
O42 Mn37 2.121 . S
O42 C50 1.258 . S
C43 N44 1.326 . S
C43 C47 1.460 . S
C43 H49 0.929 . S
N44 Mn37 2.257 . S
N44 C43 1.326 . S
N44 C48 1.362 . S
C45 C46 1.258 . S
C45 C48 1.431 . S
C45 C65 1.449 . S
C46 C45 1.258 . S
C46 C47 1.477 . S
C46 H66 0.931 . S
C47 C43 1.460 . S
C47 C46 1.477 . S
C47 H67 0.930 . S
C48 N44 1.362 . S
C48 C45 1.431 . S
C48 C58 1.476 . S
H49 C43 0.929 . S
C50 O41 1.250 . S
C50 O42 1.258 . S
O51 Mn36 2.162 . S
O51 C39 1.281 . S
O52 Mn36 2.297 . S
O52 C39 1.236 . S
N53 Mn37 2.282 . S
N53 C54 1.328 . S
N53 C58 1.318 . S
C54 N53 1.328 . S
C54 C55 1.457 . S
C54 H59 0.929 . S
C55 C54 1.457 . S
C55 C56 1.291 . S
C55 H68 0.931 . S
C56 C55 1.291 . S
C56 C57 1.373 . S
C56 H69 0.929 . S
C57 C56 1.373 . S
C57 C58 1.396 . S
C57 C64 1.403 . S
C58 C48 1.476 . S
C58 N53 1.318 . S
C58 C57 1.396 . S
H59 C54 0.929 . S
O60 Mn36 2.385 . S
O60 C38 1.234 . S
O61 Mn36 2.209 . S
O61 Mn37 2.215 . S
O61 C38 1.283 . S
O62 Mn36 2.094 . S
O62 C40 1.240 . S
O63 Mn37 2.117 . S
O63 C40 1.264 . S
C64 C57 1.403 . S
C64 C65 1.399 . S
C64 H70 0.929 . S
C65 C45 1.449 . S
C65 C64 1.399 . S
C65 H71 0.930 . S
H66 C46 0.931 . S
H67 C47 0.930 . S
H68 C55 0.931 . S
H69 C56 0.929 . S
H70 C64 0.929 . S
H71 C65 0.930 . S
Mn72 O77 2.095 . S
Mn72 O87 2.162 . S
Mn72 O88 2.297 . S
Mn72 O96 2.385 . S
Mn72 O97 2.209 . S
Mn72 O98 2.094 . S
Mn73 O78 2.121 . S
Mn73 N80 2.257 . S
Mn73 N89 2.282 . S
Mn73 O97 2.215 . S
Mn73 O99 2.117 . S
C74 O96 1.234 . S
C74 O97 1.283 . S
C75 O87 1.281 . S
C75 O88 1.236 . S
C76 O98 1.240 . S
C76 O99 1.264 . S
O77 Mn72 2.095 . S
O77 C86 1.250 . S
O78 Mn73 2.121 . S
O78 C86 1.258 . S
C79 N80 1.326 . S
C79 C83 1.460 1_565 S
C79 H85 0.929 . S
N80 Mn73 2.257 . S
N80 C79 1.326 . S
N80 C84 1.362 . S
C81 C82 1.258 . S
C81 C84 1.430 1_545 S
C81 C101 1.449 . S
C82 C81 1.258 . S
C82 C83 1.477 . S
C82 H102 0.931 . S
C83 C79 1.460 1_545 S
C83 C82 1.477 . S
C83 H103 0.930 . S
C84 N80 1.362 . S
C84 C81 1.430 1_565 S
C84 C94 1.476 . S
H85 C79 0.929 . S
C86 O77 1.250 . S
C86 O78 1.258 . S
O87 Mn72 2.162 . S
O87 C75 1.281 . S
O88 Mn72 2.297 . S
O88 C75 1.236 . S
N89 Mn73 2.282 . S
N89 C90 1.328 . S
N89 C94 1.318 . S
C90 N89 1.328 . S
C90 C91 1.457 . S
C90 H95 0.929 . S
C91 C90 1.457 . S
C91 C92 1.291 . S
C91 H104 0.931 . S
C92 C91 1.291 . S
C92 C93 1.373 . S
C92 H105 0.929 . S
C93 C92 1.373 . S
C93 C94 1.396 . S
C93 C100 1.403 . S
C94 C84 1.476 . S
C94 N89 1.318 . S
C94 C93 1.396 . S
H95 C90 0.929 . S
O96 Mn72 2.385 . S
O96 C74 1.234 . S
O97 Mn72 2.209 . S
O97 Mn73 2.215 . S
O97 C74 1.283 . S
O98 Mn72 2.094 . S
O98 C76 1.240 . S
O99 Mn73 2.117 . S
O99 C76 1.264 . S
C100 C93 1.403 . S
C100 C101 1.399 1_565 S
C100 H106 0.929 1_565 S
C101 C81 1.449 . S
C101 C100 1.399 1_545 S
C101 H107 0.930 . S
H102 C82 0.931 . S
H103 C83 0.930 . S
H104 C91 0.931 . S
H105 C92 0.929 . S
H106 C100 0.929 1_545 S
H107 C101 0.930 . S
Mn108 O113 2.095 . S
Mn108 O123 2.162 . S
Mn108 O124 2.297 . S
Mn108 O132 2.385 . S
Mn108 O133 2.209 . S
Mn108 O134 2.094 . S
Mn109 O114 2.121 . S
Mn109 N116 2.257 . S
Mn109 N125 2.282 . S
Mn109 O133 2.215 . S
Mn109 O135 2.117 . S
C110 O132 1.234 . S
C110 O133 1.283 . S
C111 O123 1.281 . S
C111 O124 1.236 . S
C112 O134 1.240 . S
C112 O135 1.264 . S
O113 Mn108 2.095 . S
O113 C122 1.250 . S
O114 Mn109 2.121 . S
O114 C122 1.258 . S
C115 N116 1.326 . S
C115 C119 1.460 . S
C115 H121 0.929 . S
N116 Mn109 2.257 . S
N116 C115 1.326 . S
N116 C120 1.362 . S
C117 C118 1.258 . S
C117 C120 1.431 . S
C117 C137 1.449 . S
C118 C117 1.258 . S
C118 C119 1.477 . S
C118 H138 0.931 . S
C119 C115 1.460 . S
C119 C118 1.477 . S
C119 H139 0.930 . S
C120 N116 1.362 . S
C120 C117 1.431 . S
C120 C130 1.476 . S
H121 C115 0.929 . S
C122 O113 1.250 . S
C122 O114 1.258 . S
O123 Mn108 2.162 . S
O123 C111 1.281 . S
O124 Mn108 2.297 . S
O124 C111 1.236 . S
N125 Mn109 2.282 . S
N125 C126 1.328 . S
N125 C130 1.318 . S
C126 N125 1.328 . S
C126 C127 1.457 . S
C126 H131 0.929 . S
C127 C126 1.457 . S
C127 C128 1.291 . S
C127 H140 0.931 . S
C128 C127 1.291 . S
C128 C129 1.373 . S
C128 H141 0.929 . S
C129 C128 1.373 . S
C129 C130 1.396 . S
C129 C136 1.403 . S
C130 C120 1.476 . S
C130 N125 1.318 . S
C130 C129 1.396 . S
H131 C126 0.929 . S
O132 Mn108 2.385 . S
O132 C110 1.234 . S
O133 Mn108 2.209 . S
O133 Mn109 2.215 . S
O133 C110 1.283 . S
O134 Mn108 2.094 . S
O134 C112 1.240 . S
O135 Mn109 2.117 . S
O135 C112 1.264 . S
C136 C129 1.403 . S
C136 C137 1.399 . S
C136 H142 0.929 . S
C137 C117 1.449 . S
C137 C136 1.399 . S
C137 H143 0.930 . S
H138 C118 0.931 . S
H139 C119 0.930 . S
H140 C127 0.931 . S
H141 C128 0.929 . S
H142 C136 0.929 . S
H143 C137 0.930 . S
Mn144 O149 2.095 . S
Mn144 O159 2.162 . S
Mn144 O160 2.297 . S
Mn144 O168 2.385 . S
Mn144 O169 2.209 . S
Mn144 O170 2.094 . S
Mn145 O150 2.121 . S
Mn145 N152 2.257 . S
Mn145 N161 2.282 . S
Mn145 O169 2.215 . S
Mn145 O171 2.117 . S
C146 O168 1.234 . S
C146 O169 1.283 . S
C147 O159 1.281 . S
C147 O160 1.236 . S
C148 O170 1.240 . S
C148 O171 1.264 . S
O149 Mn144 2.095 . S
O149 C158 1.250 . S
O150 Mn145 2.121 . S
O150 C158 1.258 . S
C151 N152 1.326 . S
C151 C155 1.460 . S
C151 H157 0.929 . S
N152 Mn145 2.257 . S
N152 C151 1.326 . S
N152 C156 1.362 . S
C153 C154 1.258 . S
C153 C156 1.431 . S
C153 C173 1.449 . S
C154 C153 1.258 . S
C154 C155 1.477 . S
C154 H174 0.931 . S
C155 C151 1.460 . S
C155 C154 1.477 . S
C155 H175 0.930 . S
C156 N152 1.362 . S
C156 C153 1.431 . S
C156 C166 1.476 . S
H157 C151 0.929 . S
C158 O149 1.250 . S
C158 O150 1.258 . S
O159 Mn144 2.162 . S
O159 C147 1.281 . S
O160 Mn144 2.297 . S
O160 C147 1.236 . S
N161 Mn145 2.282 . S
N161 C162 1.328 . S
N161 C166 1.318 . S
C162 N161 1.328 . S
C162 C163 1.457 1_455 S
C162 H167 0.929 . S
C163 C162 1.457 1_655 S
C163 C164 1.291 . S
C163 H176 0.931 . S
C164 C163 1.291 . S
C164 C165 1.373 1_655 S
C164 H177 0.929 . S
C165 C164 1.373 1_455 S
C165 C166 1.396 . S
C165 C172 1.403 . S
C166 C156 1.476 . S
C166 N161 1.318 . S
C166 C165 1.396 . S
H167 C162 0.929 . S
O168 Mn144 2.385 . S
O168 C146 1.234 . S
O169 Mn144 2.209 . S
O169 Mn145 2.215 . S
O169 C146 1.283 . S
O170 Mn144 2.094 . S
O170 C148 1.240 . S
O171 Mn145 2.117 . S
O171 C148 1.264 . S
C172 C165 1.403 . S
C172 C173 1.399 . S
C172 H178 0.929 1_455 S
C173 C153 1.449 . S
C173 C172 1.399 . S
C173 H179 0.930 . S
H174 C154 0.931 . S
H175 C155 0.930 . S
H176 C163 0.931 . S
H177 C164 0.929 . S
H178 C172 0.929 1_655 S
H179 C173 0.930 . S
Mn180 O185 2.095 . S
Mn180 O195 2.162 . S
Mn180 O196 2.297 . S
Mn180 O204 2.385 . S
Mn180 O205 2.209 . S
Mn180 O206 2.094 . S
Mn181 O186 2.121 . S
Mn181 N188 2.257 . S
Mn181 N197 2.282 . S
Mn181 O205 2.215 . S
Mn181 O207 2.117 . S
C182 O204 1.234 . S
C182 O205 1.283 . S
C183 O195 1.281 . S
C183 O196 1.236 . S
C184 O206 1.240 . S
C184 O207 1.264 . S
O185 Mn180 2.095 . S
O185 C194 1.250 . S
O186 Mn181 2.121 . S
O186 C194 1.258 . S
C187 N188 1.326 . S
C187 C191 1.460 . S
C187 H193 0.929 . S
N188 Mn181 2.257 . S
N188 C187 1.326 . S
N188 C192 1.362 . S
C189 C190 1.258 . S
C189 C192 1.431 . S
C189 C209 1.449 . S
C190 C189 1.258 . S
C190 C191 1.477 . S
C190 H210 0.931 . S
C191 C187 1.460 . S
C191 C190 1.477 . S
C191 H211 0.930 . S
C192 N188 1.362 . S
C192 C189 1.431 . S
C192 C202 1.476 . S
H193 C187 0.929 . S
C194 O185 1.250 . S
C194 O186 1.258 . S
O195 Mn180 2.162 . S
O195 C183 1.281 . S
O196 Mn180 2.297 . S
O196 C183 1.236 . S
N197 Mn181 2.282 . S
N197 C198 1.328 . S
N197 C202 1.318 . S
C198 N197 1.328 . S
C198 C199 1.457 . S
C198 H203 0.929 . S
C199 C198 1.457 . S
C199 C200 1.291 . S
C199 H212 0.931 . S
C200 C199 1.291 . S
C200 C201 1.373 . S
C200 H213 0.929 . S
C201 C200 1.373 . S
C201 C202 1.396 . S
C201 C208 1.403 . S
C202 C192 1.476 . S
C202 N197 1.318 . S
C202 C201 1.396 . S
H203 C198 0.929 . S
O204 Mn180 2.385 . S
O204 C182 1.234 . S
O205 Mn180 2.209 . S
O205 Mn181 2.215 . S
O205 C182 1.283 . S
O206 Mn180 2.094 . S
O206 C184 1.240 . S
O207 Mn181 2.117 . S
O207 C184 1.264 . S
C208 C201 1.403 . S
C208 C209 1.399 . S
C208 H214 0.929 . S
C209 C189 1.449 . S
C209 C208 1.399 . S
C209 H215 0.930 . S
H210 C190 0.931 . S
H211 C191 0.930 . S
H212 C199 0.931 . S
H213 C200 0.929 . S
H214 C208 0.929 . S
H215 C209 0.930 . S
Mn216 O221 2.095 . S
Mn216 O231 2.162 . S
Mn216 O232 2.297 . S
Mn216 O240 2.385 . S
Mn216 O241 2.209 . S
Mn216 O242 2.094 . S
Mn217 O222 2.121 . S
Mn217 N224 2.257 . S
Mn217 N233 2.282 . S
Mn217 O241 2.215 . S
Mn217 O243 2.117 . S
C218 O240 1.234 . S
C218 O241 1.283 . S
C219 O231 1.281 . S
C219 O232 1.236 . S
C220 O242 1.240 . S
C220 O243 1.264 . S
O221 Mn216 2.095 . S
O221 C230 1.250 . S
O222 Mn217 2.121 . S
O222 C230 1.258 . S
C223 N224 1.326 . S
C223 C227 1.460 1_545 S
C223 H229 0.929 . S
N224 Mn217 2.257 . S
N224 C223 1.326 . S
N224 C228 1.362 . S
C225 C226 1.258 . S
C225 C228 1.431 1_565 S
C225 C245 1.449 . S
C226 C225 1.258 . S
C226 C227 1.477 . S
C226 H246 0.931 . S
C227 C223 1.460 1_565 S
C227 C226 1.477 . S
C227 H247 0.930 . S
C228 N224 1.362 . S
C228 C225 1.431 1_545 S
C228 C238 1.476 . S
H229 C223 0.929 . S
C230 O221 1.250 . S
C230 O222 1.258 . S
O231 Mn216 2.162 . S
O231 C219 1.281 . S
O232 Mn216 2.297 . S
O232 C219 1.236 . S
N233 Mn217 2.282 . S
N233 C234 1.328 . S
N233 C238 1.318 . S
C234 N233 1.328 . S
C234 C235 1.457 1_556 S
C234 H239 0.929 . S
C235 C234 1.457 1_554 S
C235 C236 1.291 . S
C235 H248 0.931 . S
C236 C235 1.291 . S
C236 C237 1.373 1_554 S
C236 H249 0.929 . S
C237 C236 1.373 1_556 S
C237 C238 1.396 . S
C237 C244 1.403 1_545 S
C238 C228 1.476 . S
C238 N233 1.318 . S
C238 C237 1.396 . S
H239 C234 0.929 . S
O240 Mn216 2.385 . S
O240 C218 1.234 . S
O241 Mn216 2.209 . S
O241 Mn217 2.215 . S
O241 C218 1.283 . S
O242 Mn216 2.094 . S
O242 C220 1.240 . S
O243 Mn217 2.117 . S
O243 C220 1.264 . S
C244 C237 1.403 1_565 S
C244 C245 1.399 . S
C244 H250 0.929 1_556 S
C245 C225 1.449 . S
C245 C244 1.399 . S
C245 H251 0.930 . S
H246 C226 0.931 . S
H247 C227 0.930 . S
H248 C235 0.931 . S
H249 C236 0.929 . S
H250 C244 0.929 1_554 S
H251 C245 0.930 . S
Mn252 O257 2.095 . S
Mn252 O267 2.162 . S
Mn252 O268 2.297 . S
Mn252 O276 2.385 . S
Mn252 O277 2.209 . S
Mn252 O278 2.094 . S
Mn253 O258 2.121 . S
Mn253 N260 2.257 . S
Mn253 N269 2.282 . S
Mn253 O277 2.215 . S
Mn253 O279 2.117 . S
C254 O276 1.234 . S
C254 O277 1.283 . S
C255 O267 1.281 . S
C255 O268 1.236 . S
C256 O278 1.240 . S
C256 O279 1.264 . S
O257 Mn252 2.095 . S
O257 C266 1.250 . S
O258 Mn253 2.121 . S
O258 C266 1.258 . S
C259 N260 1.326 . S
C259 C263 1.460 . S
C259 H265 0.929 . S
N260 Mn253 2.257 . S
N260 C259 1.326 . S
N260 C264 1.362 . S
C261 C262 1.258 . S
C261 C264 1.431 . S
C261 C281 1.449 . S
C262 C261 1.258 . S
C262 C263 1.477 . S
C262 H282 0.931 . S
C263 C259 1.460 . S
C263 C262 1.477 . S
C263 H283 0.930 . S
C264 N260 1.362 . S
C264 C261 1.431 . S
C264 C274 1.476 . S
H265 C259 0.929 . S
C266 O257 1.250 . S
C266 O258 1.258 . S
O267 Mn252 2.162 . S
O267 C255 1.281 . S
O268 Mn252 2.297 . S
O268 C255 1.236 . S
N269 Mn253 2.282 . S
N269 C270 1.328 . S
N269 C274 1.318 . S
C270 N269 1.328 . S
C270 C271 1.457 . S
C270 H275 0.929 . S
C271 C270 1.457 . S
C271 C272 1.291 . S
C271 H284 0.931 . S
C272 C271 1.291 . S
C272 C273 1.373 . S
C272 H285 0.929 . S
C273 C272 1.373 . S
C273 C274 1.396 . S
C273 C280 1.403 . S
C274 C264 1.476 . S
C274 N269 1.318 . S
C274 C273 1.396 . S
H275 C270 0.929 . S
O276 Mn252 2.385 . S
O276 C254 1.234 . S
O277 Mn252 2.209 . S
O277 Mn253 2.215 . S
O277 C254 1.283 . S
O278 Mn252 2.094 . S
O278 C256 1.240 . S
O279 Mn253 2.117 . S
O279 C256 1.264 . S
C280 C273 1.403 . S
C280 C281 1.399 . S
C280 H286 0.929 . S
C281 C261 1.449 . S
C281 C280 1.399 . S
C281 H287 0.930 . S
H282 C262 0.931 . S
H283 C263 0.930 . S
H284 C271 0.931 . S
H285 C272 0.929 . S
H286 C280 0.929 . S
H287 C281 0.930 . S
Mn288 O293 2.095 . S
Mn288 O303 2.162 . S
Mn288 O304 2.297 . S
Mn288 O312 2.385 . S
Mn288 O313 2.209 . S
Mn288 O314 2.094 . S
Mn289 O294 2.121 . S
Mn289 N296 2.257 . S
Mn289 N305 2.282 . S
Mn289 O313 2.215 . S
Mn289 O315 2.117 . S
C290 O312 1.234 . S
C290 O313 1.283 . S
C291 O303 1.281 . S
C291 O304 1.236 . S
C292 O314 1.240 . S
C292 O315 1.264 . S
O293 Mn288 2.095 . S
O293 C302 1.250 . S
O294 Mn289 2.121 . S
O294 C302 1.258 . S
C295 N296 1.326 . S
C295 C299 1.460 1_556 S
C295 H301 0.929 . S
N296 Mn289 2.257 . S
N296 C295 1.326 . S
N296 C300 1.362 . S
C297 C298 1.258 . S
C297 C300 1.431 1_554 S
C297 C317 1.449 . S
C298 C297 1.258 . S
C298 C299 1.477 . S
C298 H318 0.931 . S
C299 C295 1.460 1_554 S
C299 C298 1.477 . S
C299 H319 0.930 . S
C300 N296 1.362 . S
C300 C297 1.431 1_556 S
C300 C310 1.476 . S
H301 C295 0.929 . S
C302 O293 1.250 . S
C302 O294 1.258 . S
O303 Mn288 2.162 . S
O303 C291 1.281 . S
O304 Mn288 2.297 . S
O304 C291 1.236 . S
N305 Mn289 2.282 . S
N305 C306 1.328 . S
N305 C310 1.318 . S
C306 N305 1.328 . S
C306 C307 1.457 . S
C306 H311 0.929 . S
C307 C306 1.457 . S
C307 C308 1.291 . S
C307 H320 0.931 . S
C308 C307 1.291 . S
C308 C309 1.373 . S
C308 H321 0.929 . S
C309 C308 1.373 . S
C309 C310 1.396 . S
C309 C316 1.403 1_556 S
C310 C300 1.476 . S
C310 N305 1.318 . S
C310 C309 1.396 . S
H311 C306 0.929 . S
O312 Mn288 2.385 . S
O312 C290 1.234 . S
O313 Mn288 2.209 . S
O313 Mn289 2.215 . S
O313 C290 1.283 . S
O314 Mn288 2.094 . S
O314 C292 1.240 . S
O315 Mn289 2.117 . S
O315 C292 1.264 . S
C316 C309 1.403 1_554 S
C316 C317 1.399 . S
C316 H322 0.929 . S
C317 C297 1.449 . S
C317 C316 1.399 . S
C317 H323 0.930 . S
H318 C298 0.931 . S
H319 C299 0.930 . S
H320 C307 0.931 . S
H321 C308 0.929 . S
H322 C316 0.929 . S
H323 C317 0.930 . S
Mn324 O329 2.095 . S
Mn324 O339 2.162 . S
Mn324 O340 2.297 . S
Mn324 O348 2.385 . S
Mn324 O349 2.209 . S
Mn324 O350 2.094 . S
Mn325 O330 2.121 . S
Mn325 N332 2.257 . S
Mn325 N341 2.282 . S
Mn325 O349 2.215 . S
Mn325 O351 2.117 . S
C326 O348 1.234 . S
C326 O349 1.283 . S
C327 O339 1.281 . S
C327 O340 1.236 . S
C328 O350 1.240 . S
C328 O351 1.264 . S
O329 Mn324 2.095 . S
O329 C338 1.250 . S
O330 Mn325 2.121 . S
O330 C338 1.258 . S
C331 N332 1.326 . S
C331 C335 1.460 . S
C331 H337 0.929 . S
N332 Mn325 2.257 . S
N332 C331 1.326 . S
N332 C336 1.362 . S
C333 C334 1.258 . S
C333 C336 1.431 . S
C333 C353 1.449 . S
C334 C333 1.258 . S
C334 C335 1.477 . S
C334 H354 0.931 . S
C335 C331 1.460 . S
C335 C334 1.477 . S
C335 H355 0.930 . S
C336 N332 1.362 . S
C336 C333 1.431 . S
C336 C346 1.476 . S
H337 C331 0.929 . S
C338 O329 1.250 . S
C338 O330 1.258 . S
O339 Mn324 2.162 . S
O339 C327 1.281 . S
O340 Mn324 2.297 . S
O340 C327 1.236 . S
N341 Mn325 2.282 . S
N341 C342 1.328 . S
N341 C346 1.318 . S
C342 N341 1.328 . S
C342 C343 1.457 . S
C342 H347 0.929 . S
C343 C342 1.457 . S
C343 C344 1.291 . S
C343 H356 0.931 . S
C344 C343 1.291 . S
C344 C345 1.373 . S
C344 H357 0.929 . S
C345 C344 1.373 . S
C345 C346 1.396 . S
C345 C352 1.403 . S
C346 C336 1.476 . S
C346 N341 1.318 . S
C346 C345 1.396 . S
H347 C342 0.929 . S
O348 Mn324 2.385 . S
O348 C326 1.234 . S
O349 Mn324 2.209 . S
O349 Mn325 2.215 . S
O349 C326 1.283 . S
O350 Mn324 2.094 . S
O350 C328 1.240 . S
O351 Mn325 2.117 . S
O351 C328 1.264 . S
C352 C345 1.403 . S
C352 C353 1.399 . S
C352 H358 0.929 . S
C353 C333 1.449 . S
C353 C352 1.399 . S
C353 H359 0.930 . S
H354 C334 0.931 . S
H355 C335 0.930 . S
H356 C343 0.931 . S
H357 C344 0.929 . S
H358 C352 0.929 . S
H359 C353 0.930 . S
Mn360 O365 2.095 . S
Mn360 O375 2.162 . S
Mn360 O376 2.297 . S
Mn360 O384 2.385 . S
Mn360 O385 2.209 . S
Mn360 O386 2.094 . S
Mn361 O366 2.121 . S
Mn361 N368 2.257 . S
Mn361 N377 2.282 . S
Mn361 O385 2.215 . S
Mn361 O387 2.117 . S
C362 O384 1.234 . S
C362 O385 1.283 . S
C363 O375 1.281 . S
C363 O376 1.236 . S
C364 O386 1.240 . S
C364 O387 1.264 . S
O365 Mn360 2.095 . S
O365 C374 1.250 . S
O366 Mn361 2.121 . S
O366 C374 1.258 . S
C367 N368 1.326 . S
C367 C371 1.460 . S
C367 H373 0.929 . S
N368 Mn361 2.257 . S
N368 C367 1.326 . S
N368 C372 1.362 . S
C369 C370 1.258 . S
C369 C372 1.431 . S
C369 C389 1.449 . S
C370 C369 1.258 . S
C370 C371 1.477 . S
C370 H390 0.931 . S
C371 C367 1.460 . S
C371 C370 1.477 . S
C371 H391 0.930 . S
C372 N368 1.362 . S
C372 C369 1.431 . S
C372 C382 1.476 . S
H373 C367 0.929 . S
C374 O365 1.250 . S
C374 O366 1.258 . S
O375 Mn360 2.162 . S
O375 C363 1.281 . S
O376 Mn360 2.297 . S
O376 C363 1.236 . S
N377 Mn361 2.282 . S
N377 C378 1.328 . S
N377 C382 1.318 . S
C378 N377 1.328 . S
C378 C379 1.457 . S
C378 H383 0.929 . S
C379 C378 1.457 . S
C379 C380 1.291 . S
C379 H392 0.931 . S
C380 C379 1.291 . S
C380 C381 1.373 . S
C380 H393 0.929 . S
C381 C380 1.373 . S
C381 C382 1.396 . S
C381 C388 1.403 . S
C382 C372 1.476 . S
C382 N377 1.318 . S
C382 C381 1.396 . S
H383 C378 0.929 . S
O384 Mn360 2.385 . S
O384 C362 1.234 . S
O385 Mn360 2.209 . S
O385 Mn361 2.215 . S
O385 C362 1.283 . S
O386 Mn360 2.094 . S
O386 C364 1.240 . S
O387 Mn361 2.117 . S
O387 C364 1.264 . S
C388 C381 1.403 . S
C388 C389 1.399 . S
C388 H394 0.929 . S
C389 C369 1.449 . S
C389 C388 1.399 . S
C389 H395 0.930 . S
H390 C370 0.931 . S
H391 C371 0.930 . S
H392 C379 0.931 . S
H393 C380 0.929 . S
H394 C388 0.929 . S
H395 C389 0.930 . S
Mn396 O401 2.095 . S
Mn396 O411 2.162 . S
Mn396 O412 2.297 . S
Mn396 O420 2.385 . S
Mn396 O421 2.209 . S
Mn396 O422 2.094 . S
Mn397 O402 2.121 . S
Mn397 N404 2.257 . S
Mn397 N413 2.282 . S
Mn397 O421 2.215 . S
Mn397 O423 2.117 . S
C398 O420 1.234 . S
C398 O421 1.283 . S
C399 O411 1.281 . S
C399 O412 1.236 . S
C400 O422 1.240 . S
C400 O423 1.264 . S
O401 Mn396 2.095 . S
O401 C410 1.250 . S
O402 Mn397 2.121 . S
O402 C410 1.258 . S
C403 N404 1.326 . S
C403 C407 1.460 . S
C403 H409 0.929 . S
N404 Mn397 2.257 . S
N404 C403 1.326 . S
N404 C408 1.362 . S
C405 C406 1.258 . S
C405 C408 1.431 . S
C405 C425 1.449 . S
C406 C405 1.258 . S
C406 C407 1.477 . S
C406 H426 0.931 . S
C407 C403 1.460 . S
C407 C406 1.477 . S
C407 H427 0.930 . S
C408 N404 1.362 . S
C408 C405 1.431 . S
C408 C418 1.476 . S
H409 C403 0.929 . S
C410 O401 1.250 . S
C410 O402 1.258 . S
O411 Mn396 2.162 . S
O411 C399 1.281 . S
O412 Mn396 2.297 . S
O412 C399 1.236 . S
N413 Mn397 2.282 . S
N413 C414 1.328 . S
N413 C418 1.318 . S
C414 N413 1.328 . S
C414 C415 1.457 . S
C414 H419 0.929 . S
C415 C414 1.457 . S
C415 C416 1.291 . S
C415 H428 0.931 . S
C416 C415 1.291 . S
C416 C417 1.373 . S
C416 H429 0.929 . S
C417 C416 1.373 . S
C417 C418 1.396 . S
C417 C424 1.403 . S
C418 C408 1.476 . S
C418 N413 1.318 . S
C418 C417 1.396 . S
H419 C414 0.929 . S
O420 Mn396 2.385 . S
O420 C398 1.234 . S
O421 Mn396 2.209 . S
O421 Mn397 2.215 . S
O421 C398 1.283 . S
O422 Mn396 2.094 . S
O422 C400 1.240 . S
O423 Mn397 2.117 . S
O423 C400 1.264 . S
C424 C417 1.403 . S
C424 C425 1.399 . S
C424 H430 0.929 . S
C425 C405 1.449 . S
C425 C424 1.399 . S
C425 H431 0.930 . S
H426 C406 0.931 . S
H427 C407 0.930 . S
H428 C415 0.931 . S
H429 C416 0.929 . S
H430 C424 0.929 . S
H431 C425 0.930 . S
Mn432 O437 2.095 . S
Mn432 O447 2.162 . S
Mn432 O448 2.297 . S
Mn432 O456 2.385 . S
Mn432 O457 2.209 . S
Mn432 O458 2.094 . S
Mn433 O438 2.121 . S
Mn433 N440 2.257 . S
Mn433 N449 2.282 . S
Mn433 O457 2.215 . S
Mn433 O459 2.117 . S
C434 O456 1.234 . S
C434 O457 1.283 . S
C435 O447 1.281 . S
C435 O448 1.236 . S
C436 O458 1.240 . S
C436 O459 1.264 . S
O437 Mn432 2.095 . S
O437 C446 1.250 . S
O438 Mn433 2.121 . S
O438 C446 1.258 . S
C439 N440 1.326 . S
C439 C443 1.460 . S
C439 H445 0.929 . S
N440 Mn433 2.257 . S
N440 C439 1.326 . S
N440 C444 1.362 . S
C441 C442 1.258 . S
C441 C444 1.431 . S
C441 C461 1.449 . S
C442 C441 1.258 . S
C442 C443 1.477 . S
C442 H462 0.931 . S
C443 C439 1.460 . S
C443 C442 1.477 . S
C443 H463 0.930 . S
C444 N440 1.362 . S
C444 C441 1.431 . S
C444 C454 1.476 . S
H445 C439 0.929 . S
C446 O437 1.250 . S
C446 O438 1.258 . S
O447 Mn432 2.162 . S
O447 C435 1.281 . S
O448 Mn432 2.297 . S
O448 C435 1.236 . S
N449 Mn433 2.282 . S
N449 C450 1.328 . S
N449 C454 1.318 . S
C450 N449 1.328 . S
C450 C451 1.457 . S
C450 H455 0.929 . S
C451 C450 1.457 . S
C451 C452 1.291 . S
C451 H464 0.931 . S
C452 C451 1.291 . S
C452 C453 1.373 . S
C452 H465 0.929 . S
C453 C452 1.373 . S
C453 C454 1.396 . S
C453 C460 1.403 . S
C454 C444 1.476 . S
C454 N449 1.318 . S
C454 C453 1.396 . S
H455 C450 0.929 . S
O456 Mn432 2.385 . S
O456 C434 1.234 . S
O457 Mn432 2.209 . S
O457 Mn433 2.215 . S
O457 C434 1.283 . S
O458 Mn432 2.094 . S
O458 C436 1.240 . S
O459 Mn433 2.117 . S
O459 C436 1.264 . S
C460 C453 1.403 . S
C460 C461 1.399 . S
C460 H466 0.929 . S
C461 C441 1.449 . S
C461 C460 1.399 . S
C461 H467 0.930 . S
H462 C442 0.931 . S
H463 C443 0.930 . S
H464 C451 0.931 . S
H465 C452 0.929 . S
H466 C460 0.929 . S
H467 C461 0.930 . S
Mn468 O473 2.095 . S
Mn468 O483 2.162 . S
Mn468 O484 2.297 . S
Mn468 O492 2.385 . S
Mn468 O493 2.209 . S
Mn468 O494 2.094 . S
Mn469 O474 2.121 . S
Mn469 N476 2.257 . S
Mn469 N485 2.282 . S
Mn469 O493 2.215 . S
Mn469 O495 2.117 . S
C470 O492 1.234 . S
C470 O493 1.283 . S
C471 O483 1.281 . S
C471 O484 1.236 . S
C472 O494 1.240 . S
C472 O495 1.264 . S
O473 Mn468 2.095 . S
O473 C482 1.250 . S
O474 Mn469 2.121 . S
O474 C482 1.258 . S
C475 N476 1.326 . S
C475 C479 1.460 1_556 S
C475 H481 0.929 . S
N476 Mn469 2.257 . S
N476 C475 1.326 . S
N476 C480 1.362 . S
C477 C478 1.263 1_556 S
C477 C480 1.435 . S
C477 C497 1.437 1_566 S
C478 C477 1.263 1_554 S
C478 C479 1.477 . S
C478 H498 0.931 . S
C479 C475 1.460 1_554 S
C479 C478 1.477 . S
C479 H499 0.930 . S
C480 N476 1.362 . S
C480 C477 1.435 . S
C480 C490 1.476 1_565 S
H481 C475 0.929 . S
C482 O473 1.250 . S
C482 O474 1.258 . S
O483 Mn468 2.162 . S
O483 C471 1.281 . S
O484 Mn468 2.297 . S
O484 C471 1.236 . S
N485 Mn469 2.282 . S
N485 C486 1.328 1_565 S
N485 C490 1.318 1_565 S
C486 N485 1.328 1_545 S
C486 C487 1.457 . S
C486 H491 0.929 1_545 S
C487 C486 1.457 . S
C487 C488 1.291 . S
C487 H500 0.931 . S
C488 C487 1.291 . S
C488 C489 1.373 . S
C488 H501 0.929 . S
C489 C488 1.373 . S
C489 C490 1.396 . S
C489 C496 1.403 . S
C490 C480 1.476 1_545 S
C490 N485 1.318 1_545 S
C490 C489 1.396 . S
H491 C486 0.929 1_565 S
O492 Mn468 2.385 . S
O492 C470 1.234 . S
O493 Mn468 2.209 . S
O493 Mn469 2.215 . S
O493 C470 1.283 . S
O494 Mn468 2.094 . S
O494 C472 1.240 . S
O495 Mn469 2.117 . S
O495 C472 1.264 . S
C496 C489 1.403 . S
C496 C497 1.365 1_556 S
C496 H502 0.929 . S
C497 C477 1.437 1_544 S
C497 C496 1.365 1_554 S
C497 H503 0.969 . S
H498 C478 0.931 . S
H499 C479 0.930 . S
H500 C487 0.931 . S
H501 C488 0.929 . S
H502 C496 0.929 . S
H503 C497 0.969 . S
Mn504 O509 2.095 . S
Mn504 O519 2.162 . S
Mn504 O520 2.297 . S
Mn504 O528 2.385 . S
Mn504 O529 2.209 . S
Mn504 O530 2.094 . S
Mn505 O510 2.121 . S
Mn505 N512 2.257 . S
Mn505 N521 2.282 . S
Mn505 O529 2.215 . S
Mn505 O531 2.117 . S
C506 O528 1.234 . S
C506 O529 1.283 . S
C507 O519 1.281 . S
C507 O520 1.236 . S
C508 O530 1.240 . S
C508 O531 1.264 . S
O509 Mn504 2.095 . S
O509 C518 1.250 . S
O510 Mn505 2.121 . S
O510 C518 1.258 . S
C511 N512 1.326 . S
C511 C515 1.460 . S
C511 H517 0.929 . S
N512 Mn505 2.257 . S
N512 C511 1.326 . S
N512 C516 1.362 . S
C513 C514 1.258 . S
C513 C516 1.431 . S
C513 C533 1.449 . S
C514 C513 1.258 . S
C514 C515 1.477 . S
C514 H534 0.931 . S
C515 C511 1.460 . S
C515 C514 1.477 . S
C515 H535 0.930 . S
C516 N512 1.362 . S
C516 C513 1.431 . S
C516 C526 1.476 . S
H517 C511 0.929 . S
C518 O509 1.250 . S
C518 O510 1.258 . S
O519 Mn504 2.162 . S
O519 C507 1.281 . S
O520 Mn504 2.297 . S
O520 C507 1.236 . S
N521 Mn505 2.282 . S
N521 C522 1.328 . S
N521 C526 1.318 . S
C522 N521 1.328 . S
C522 C523 1.457 . S
C522 H527 0.929 . S
C523 C522 1.457 . S
C523 C524 1.291 . S
C523 H536 0.931 . S
C524 C523 1.291 . S
C524 C525 1.373 . S
C524 H537 0.929 . S
C525 C524 1.373 . S
C525 C526 1.396 . S
C525 C532 1.403 . S
C526 C516 1.476 . S
C526 N521 1.318 . S
C526 C525 1.396 . S
H527 C522 0.929 . S
O528 Mn504 2.385 . S
O528 C506 1.234 . S
O529 Mn504 2.209 . S
O529 Mn505 2.215 . S
O529 C506 1.283 . S
O530 Mn504 2.094 . S
O530 C508 1.240 . S
O531 Mn505 2.117 . S
O531 C508 1.264 . S
C532 C525 1.403 . S
C532 C533 1.399 . S
C532 H538 0.929 . S
C533 C513 1.449 . S
C533 C532 1.399 . S
C533 H539 0.930 . S
H534 C514 0.931 . S
H535 C515 0.930 . S
H536 C523 0.931 . S
H537 C524 0.929 . S
H538 C532 0.929 . S
H539 C533 0.930 . S
Mn540 O545 2.095 . S
Mn540 O555 2.162 . S
Mn540 O556 2.297 . S
Mn540 O564 2.385 . S
Mn540 O565 2.209 . S
Mn540 O566 2.094 . S
Mn541 O546 2.121 . S
Mn541 N548 2.257 . S
Mn541 N557 2.282 . S
Mn541 O565 2.215 . S
Mn541 O567 2.117 . S
C542 O564 1.234 . S
C542 O565 1.283 . S
C543 O555 1.281 . S
C543 O556 1.236 . S
C544 O566 1.240 . S
C544 O567 1.264 . S
O545 Mn540 2.095 . S
O545 C554 1.250 . S
O546 Mn541 2.121 . S
O546 C554 1.258 . S
C547 N548 1.326 . S
C547 C551 1.460 . S
C547 H553 0.929 . S
N548 Mn541 2.257 . S
N548 C547 1.326 . S
N548 C552 1.362 . S
C549 C550 1.258 . S
C549 C552 1.431 . S
C549 C569 1.449 1_545 S
C550 C549 1.258 . S
C550 C551 1.477 . S
C550 H570 0.931 . S
C551 C547 1.460 . S
C551 C550 1.477 . S
C551 H571 0.930 . S
C552 N548 1.362 . S
C552 C549 1.431 . S
C552 C562 1.476 . S
H553 C547 0.929 . S
C554 O545 1.250 . S
C554 O546 1.258 . S
O555 Mn540 2.162 . S
O555 C543 1.281 . S
O556 Mn540 2.297 . S
O556 C543 1.236 . S
N557 Mn541 2.282 . S
N557 C558 1.328 1_545 S
N557 C562 1.318 . S
C558 N557 1.328 1_565 S
C558 C559 1.457 . S
C558 H563 0.929 1_565 S
C559 C558 1.457 . S
C559 C560 1.291 . S
C559 H572 0.931 . S
C560 C559 1.291 . S
C560 C561 1.373 . S
C560 H573 0.929 . S
C561 C560 1.373 . S
C561 C562 1.396 1_565 S
C561 C568 1.403 . S
C562 C552 1.476 . S
C562 N557 1.318 . S
C562 C561 1.396 1_545 S
H563 C558 0.929 1_545 S
O564 Mn540 2.385 . S
O564 C542 1.234 . S
O565 Mn540 2.209 . S
O565 Mn541 2.215 . S
O565 C542 1.283 . S
O566 Mn540 2.094 . S
O566 C544 1.240 . S
O567 Mn541 2.117 . S
O567 C544 1.264 . S
C568 C561 1.403 . S
C568 C569 1.399 . S
C568 H574 0.929 . S
C569 C549 1.449 1_565 S
C569 C568 1.399 . S
C569 H575 0.930 . S
H570 C550 0.931 . S
H571 C551 0.930 . S
H572 C559 0.931 . S
H573 C560 0.929 . S
H574 C568 0.929 . S
H575 C569 0.930 . S
Mn576 O581 2.095 . S
Mn576 O591 2.162 . S
Mn576 O592 2.297 . S
Mn576 O600 2.385 . S
Mn576 O601 2.209 . S
Mn576 O602 2.094 . S
Mn577 O582 2.121 . S
Mn577 N584 2.257 . S
Mn577 N593 2.282 . S
Mn577 O601 2.215 . S
Mn577 O603 2.117 . S
C578 O600 1.234 . S
C578 O601 1.283 . S
C579 O591 1.281 . S
C579 O592 1.236 . S
C580 O602 1.240 . S
C580 O603 1.264 . S
O581 Mn576 2.095 . S
O581 C590 1.250 . S
O582 Mn577 2.121 . S
O582 C590 1.258 . S
C583 N584 1.326 . S
C583 C587 1.460 . S
C583 H589 0.929 . S
N584 Mn577 2.257 . S
N584 C583 1.326 . S
N584 C588 1.362 . S
C585 C586 1.258 . S
C585 C588 1.431 . S
C585 C605 1.449 . S
C586 C585 1.258 . S
C586 C587 1.477 . S
C586 H606 0.931 . S
C587 C583 1.460 . S
C587 C586 1.477 . S
C587 H607 0.930 . S
C588 N584 1.362 . S
C588 C585 1.431 . S
C588 C598 1.476 . S
H589 C583 0.929 . S
C590 O581 1.250 . S
C590 O582 1.258 . S
O591 Mn576 2.162 . S
O591 C579 1.281 . S
O592 Mn576 2.297 . S
O592 C579 1.236 . S
N593 Mn577 2.282 . S
N593 C594 1.328 . S
N593 C598 1.318 . S
C594 N593 1.328 . S
C594 C595 1.457 . S
C594 H599 0.929 . S
C595 C594 1.457 . S
C595 C596 1.291 . S
C595 H608 0.931 . S
C596 C595 1.291 . S
C596 C597 1.373 . S
C596 H609 0.929 . S
C597 C596 1.373 . S
C597 C598 1.396 . S
C597 C604 1.403 . S
C598 C588 1.476 . S
C598 N593 1.318 . S
C598 C597 1.396 . S
H599 C594 0.929 . S
O600 Mn576 2.385 . S
O600 C578 1.234 . S
O601 Mn576 2.209 . S
O601 Mn577 2.215 . S
O601 C578 1.283 . S
O602 Mn576 2.094 . S
O602 C580 1.240 . S
O603 Mn577 2.117 . S
O603 C580 1.264 . S
C604 C597 1.403 . S
C604 C605 1.399 . S
C604 H610 0.929 . S
C605 C585 1.449 . S
C605 C604 1.399 . S
C605 H611 0.930 . S
H606 C586 0.931 . S
H607 C587 0.930 . S
H608 C595 0.931 . S
H609 C596 0.929 . S
H610 C604 0.929 . S
H611 C605 0.930 . S
Mn612 O617 2.095 . S
Mn612 O627 2.162 . S
Mn612 O628 2.297 . S
Mn612 O636 2.385 . S
Mn612 O637 2.209 . S
Mn612 O638 2.094 . S
Mn613 O618 2.121 . S
Mn613 N620 2.257 . S
Mn613 N629 2.282 . S
Mn613 O637 2.215 . S
Mn613 O639 2.117 . S
C614 O636 1.234 . S
C614 O637 1.283 . S
C615 O627 1.281 . S
C615 O628 1.236 . S
C616 O638 1.240 . S
C616 O639 1.264 . S
O617 Mn612 2.095 . S
O617 C626 1.250 . S
O618 Mn613 2.121 . S
O618 C626 1.258 . S
C619 N620 1.326 . S
C619 C623 1.460 . S
C619 H625 0.929 . S
N620 Mn613 2.257 . S
N620 C619 1.326 . S
N620 C624 1.362 . S
C621 C622 1.258 . S
C621 C624 1.431 . S
C621 C641 1.449 . S
C622 C621 1.258 . S
C622 C623 1.477 . S
C622 H642 0.931 . S
C623 C619 1.460 . S
C623 C622 1.477 . S
C623 H643 0.930 . S
C624 N620 1.362 . S
C624 C621 1.431 . S
C624 C634 1.476 . S
H625 C619 0.929 . S
C626 O617 1.250 . S
C626 O618 1.258 . S
O627 Mn612 2.162 . S
O627 C615 1.281 . S
O628 Mn612 2.297 . S
O628 C615 1.236 . S
N629 Mn613 2.282 . S
N629 C630 1.328 . S
N629 C634 1.318 . S
C630 N629 1.328 . S
C630 C631 1.493 . S
C630 H635 0.929 . S
C631 C630 1.493 . S
C631 C632 1.275 1_545 S
C631 H644 0.911 1_545 S
C632 C631 1.275 1_565 S
C632 C633 1.373 1_565 S
C632 H645 0.929 . S
C633 C632 1.373 1_545 S
C633 C634 1.396 . S
C633 C640 1.403 1_545 S
C634 C624 1.476 . S
C634 N629 1.318 . S
C634 C633 1.396 . S
H635 C630 0.929 . S
O636 Mn612 2.385 . S
O636 C614 1.234 . S
O637 Mn612 2.209 . S
O637 Mn613 2.215 . S
O637 C614 1.283 . S
O638 Mn612 2.094 . S
O638 C616 1.240 . S
O639 Mn613 2.117 . S
O639 C616 1.264 . S
C640 C633 1.403 1_565 S
C640 C641 1.399 1_565 S
C640 H646 0.929 . S
C641 C621 1.449 . S
C641 C640 1.399 1_545 S
C641 H647 0.930 1_545 S
H642 C622 0.931 . S
H643 C623 0.930 . S
H644 C631 0.911 1_565 S
H645 C632 0.929 . S
H646 C640 0.929 . S
H647 C641 0.930 1_565 S
Mn648 O653 2.095 . S
Mn648 O663 2.162 . S
Mn648 O664 2.297 . S
Mn648 O672 2.385 . S
Mn648 O673 2.209 . S
Mn648 O674 2.094 . S
Mn649 O654 2.121 . S
Mn649 N656 2.257 . S
Mn649 N665 2.282 . S
Mn649 O673 2.215 . S
Mn649 O675 2.117 . S
C650 O672 1.234 . S
C650 O673 1.283 . S
C651 O663 1.281 . S
C651 O664 1.236 . S
C652 O674 1.240 . S
C652 O675 1.264 . S
O653 Mn648 2.095 . S
O653 C662 1.250 . S
O654 Mn649 2.121 . S
O654 C662 1.258 . S
C655 N656 1.326 . S
C655 C659 1.460 . S
C655 H661 0.929 . S
N656 Mn649 2.257 . S
N656 C655 1.326 . S
N656 C660 1.362 . S
C657 C658 1.258 . S
C657 C660 1.431 . S
C657 C677 1.449 . S
C658 C657 1.258 . S
C658 C659 1.477 . S
C658 H678 0.931 . S
C659 C655 1.460 . S
C659 C658 1.477 . S
C659 H679 0.930 . S
C660 N656 1.362 . S
C660 C657 1.431 . S
C660 C670 1.476 . S
H661 C655 0.929 . S
C662 O653 1.250 . S
C662 O654 1.258 . S
O663 Mn648 2.162 . S
O663 C651 1.281 . S
O664 Mn648 2.297 . S
O664 C651 1.236 . S
N665 Mn649 2.282 . S
N665 C666 1.328 . S
N665 C670 1.318 . S
C666 N665 1.328 . S
C666 C667 1.457 . S
C666 H671 0.929 . S
C667 C666 1.457 . S
C667 C668 1.291 . S
C667 H680 0.931 . S
C668 C667 1.291 . S
C668 C669 1.373 . S
C668 H681 0.929 . S
C669 C668 1.373 . S
C669 C670 1.396 . S
C669 C676 1.403 . S
C670 C660 1.476 . S
C670 N665 1.318 . S
C670 C669 1.396 . S
H671 C666 0.929 . S
O672 Mn648 2.385 . S
O672 C650 1.234 . S
O673 Mn648 2.209 . S
O673 Mn649 2.215 . S
O673 C650 1.283 . S
O674 Mn648 2.094 . S
O674 C652 1.240 . S
O675 Mn649 2.117 . S
O675 C652 1.264 . S
C676 C669 1.403 . S
C676 C677 1.399 . S
C676 H682 0.929 . S
C677 C657 1.449 . S
C677 C676 1.399 . S
C677 H683 0.930 . S
H678 C658 0.931 . S
H679 C659 0.930 . S
H680 C667 0.931 . S
H681 C668 0.929 . S
H682 C676 0.929 . S
H683 C677 0.930 . S
Mn684 O689 2.095 . S
Mn684 O699 2.162 . S
Mn684 O700 2.297 . S
Mn684 O708 2.385 . S
Mn684 O709 2.209 . S
Mn684 O710 2.094 . S
Mn685 O690 2.121 . S
Mn685 N692 2.257 . S
Mn685 N701 2.282 . S
Mn685 O709 2.215 . S
Mn685 O711 2.117 . S
C686 O708 1.234 . S
C686 O709 1.283 . S
C687 O699 1.281 . S
C687 O700 1.236 . S
C688 O710 1.240 . S
C688 O711 1.264 . S
O689 Mn684 2.095 . S
O689 C698 1.250 . S
O690 Mn685 2.121 . S
O690 C698 1.258 . S
C691 N692 1.326 . S
C691 C695 1.460 . S
C691 H697 0.929 . S
N692 Mn685 2.257 . S
N692 C691 1.326 . S
N692 C696 1.362 . S
C693 C694 1.258 . S
C693 C696 1.431 . S
C693 C713 1.449 1_554 S
C694 C693 1.258 . S
C694 C695 1.477 . S
C694 H714 0.931 . S
C695 C691 1.460 . S
C695 C694 1.477 . S
C695 H715 0.930 . S
C696 N692 1.362 . S
C696 C693 1.431 . S
C696 C706 1.476 . S
H697 C691 0.929 . S
C698 O689 1.250 . S
C698 O690 1.258 . S
O699 Mn684 2.162 . S
O699 C687 1.281 . S
O700 Mn684 2.297 . S
O700 C687 1.236 . S
N701 Mn685 2.282 . S
N701 C702 1.328 . S
N701 C706 1.318 . S
C702 N701 1.328 . S
C702 C703 1.457 1_554 S
C702 H707 0.929 . S
C703 C702 1.457 1_556 S
C703 C704 1.291 . S
C703 H716 0.931 . S
C704 C703 1.291 . S
C704 C705 1.373 . S
C704 H717 0.929 . S
C705 C704 1.373 . S
C705 C706 1.396 1_556 S
C705 C712 1.403 . S
C706 C696 1.476 . S
C706 N701 1.318 . S
C706 C705 1.396 1_554 S
H707 C702 0.929 . S
O708 Mn684 2.385 . S
O708 C686 1.234 . S
O709 Mn684 2.209 . S
O709 Mn685 2.215 . S
O709 C686 1.283 . S
O710 Mn684 2.094 . S
O710 C688 1.240 . S
O711 Mn685 2.117 . S
O711 C688 1.264 . S
C712 C705 1.403 . S
C712 C713 1.399 . S
C712 H718 0.929 . S
C713 C693 1.449 1_556 S
C713 C712 1.399 . S
C713 H719 0.930 . S
H714 C694 0.931 . S
H715 C695 0.930 . S
H716 C703 0.931 . S
H717 C704 0.929 . S
H718 C712 0.929 . S
H719 C713 0.930 . S
Mn720 O725 2.095 . S
Mn720 O735 2.162 . S
Mn720 O736 2.297 . S
Mn720 O744 2.385 . S
Mn720 O745 2.209 . S
Mn720 O746 2.094 . S
Mn721 O726 2.121 . S
Mn721 N728 2.257 . S
Mn721 N737 2.282 . S
Mn721 O745 2.215 . S
Mn721 O747 2.117 . S
C722 O744 1.234 . S
C722 O745 1.283 . S
C723 O735 1.281 . S
C723 O736 1.236 . S
C724 O746 1.240 . S
C724 O747 1.264 . S
O725 Mn720 2.095 . S
O725 C734 1.250 . S
O726 Mn721 2.121 . S
O726 C734 1.258 . S
C727 N728 1.326 . S
C727 C731 1.460 . S
C727 H733 0.929 . S
N728 Mn721 2.257 . S
N728 C727 1.326 . S
N728 C732 1.362 . S
C729 C730 1.258 . S
C729 C732 1.431 . S
C729 C749 1.449 . S
C730 C729 1.258 . S
C730 C731 1.477 . S
C730 H750 0.931 . S
C731 C727 1.460 . S
C731 C730 1.477 . S
C731 H751 0.930 . S
C732 N728 1.362 . S
C732 C729 1.431 . S
C732 C742 1.476 . S
H733 C727 0.929 . S
C734 O725 1.250 . S
C734 O726 1.258 . S
O735 Mn720 2.162 . S
O735 C723 1.281 . S
O736 Mn720 2.297 . S
O736 C723 1.236 . S
N737 Mn721 2.282 . S
N737 C738 1.328 . S
N737 C742 1.318 . S
C738 N737 1.328 . S
C738 C739 1.457 . S
C738 H743 0.929 . S
C739 C738 1.457 . S
C739 C740 1.291 . S
C739 H752 0.931 . S
C740 C739 1.291 . S
C740 C741 1.373 . S
C740 H753 0.929 . S
C741 C740 1.373 . S
C741 C742 1.396 . S
C741 C748 1.403 . S
C742 C732 1.476 . S
C742 N737 1.318 . S
C742 C741 1.396 . S
H743 C738 0.929 . S
O744 Mn720 2.385 . S
O744 C722 1.234 . S
O745 Mn720 2.209 . S
O745 Mn721 2.215 . S
O745 C722 1.283 . S
O746 Mn720 2.094 . S
O746 C724 1.240 . S
O747 Mn721 2.117 . S
O747 C724 1.264 . S
C748 C741 1.403 . S
C748 C749 1.399 . S
C748 H754 0.929 . S
C749 C729 1.449 . S
C749 C748 1.399 . S
C749 H755 0.930 . S
H750 C730 0.931 . S
H751 C731 0.930 . S
H752 C739 0.931 . S
H753 C740 0.929 . S
H754 C748 0.929 . S
H755 C749 0.930 . S
Mn756 O761 2.095 . S
Mn756 O771 2.162 . S
Mn756 O772 2.297 . S
Mn756 O780 2.385 . S
Mn756 O781 2.209 . S
Mn756 O782 2.094 . S
Mn757 O762 2.121 . S
Mn757 N764 2.257 . S
Mn757 N773 2.282 . S
Mn757 O781 2.215 . S
Mn757 O783 2.117 . S
C758 O780 1.234 . S
C758 O781 1.283 . S
C759 O771 1.281 . S
C759 O772 1.236 . S
C760 O782 1.240 . S
C760 O783 1.264 . S
O761 Mn756 2.095 . S
O761 C770 1.250 . S
O762 Mn757 2.121 . S
O762 C770 1.258 . S
C763 N764 1.326 1_556 S
C763 C767 1.460 . S
C763 H769 0.929 1_556 S
N764 Mn757 2.257 . S
N764 C763 1.326 1_554 S
N764 C768 1.362 . S
C765 C766 1.258 . S
C765 C768 1.431 1_556 S
C765 C785 1.449 . S
C766 C765 1.258 . S
C766 C767 1.477 . S
C766 H786 0.931 . S
C767 C763 1.460 . S
C767 C766 1.477 . S
C767 H787 0.930 . S
C768 N764 1.362 . S
C768 C765 1.431 1_554 S
C768 C778 1.476 . S
H769 C763 0.929 1_554 S
C770 O761 1.250 . S
C770 O762 1.258 . S
O771 Mn756 2.162 . S
O771 C759 1.281 . S
O772 Mn756 2.297 . S
O772 C759 1.236 . S
N773 Mn757 2.282 . S
N773 C774 1.328 . S
N773 C778 1.318 . S
C774 N773 1.328 . S
C774 C775 1.457 . S
C774 H779 0.929 . S
C775 C774 1.457 . S
C775 C776 1.291 . S
C775 H788 0.931 . S
C776 C775 1.291 . S
C776 C777 1.373 . S
C776 H789 0.929 . S
C777 C776 1.373 . S
C777 C778 1.396 . S
C777 C784 1.403 . S
C778 C768 1.476 . S
C778 N773 1.318 . S
C778 C777 1.396 . S
H779 C774 0.929 . S
O780 Mn756 2.385 . S
O780 C758 1.234 . S
O781 Mn756 2.209 . S
O781 Mn757 2.215 . S
O781 C758 1.283 . S
O782 Mn756 2.094 . S
O782 C760 1.240 . S
O783 Mn757 2.117 . S
O783 C760 1.264 . S
C784 C777 1.403 . S
C784 C785 1.399 1_554 S
C784 H790 0.937 . S
C785 C765 1.449 . S
C785 C784 1.399 1_556 S
C785 H791 0.930 . S
H786 C766 0.931 . S
H787 C767 0.930 . S
H788 C775 0.931 . S
H789 C776 0.929 . S
H790 C784 0.937 . S
H791 C785 0.930 . S
Mn792 O797 2.095 . S
Mn792 O807 2.162 . S
Mn792 O808 2.297 . S
Mn792 O816 2.385 . S
Mn792 O817 2.209 . S
Mn792 O818 2.094 . S
Mn793 O798 2.121 . S
Mn793 N800 2.257 . S
Mn793 N809 2.282 . S
Mn793 O817 2.215 . S
Mn793 O819 2.117 . S
C794 O816 1.234 . S
C794 O817 1.283 . S
C795 O807 1.281 . S
C795 O808 1.236 . S
C796 O818 1.240 . S
C796 O819 1.264 . S
O797 Mn792 2.095 . S
O797 C806 1.250 . S
O798 Mn793 2.121 . S
O798 C806 1.258 . S
C799 N800 1.326 . S
C799 C803 1.460 . S
C799 H805 0.929 . S
N800 Mn793 2.257 . S
N800 C799 1.326 . S
N800 C804 1.362 . S
C801 C802 1.258 . S
C801 C804 1.431 . S
C801 C821 1.449 . S
C802 C801 1.258 . S
C802 C803 1.477 . S
C802 H822 0.931 . S
C803 C799 1.460 . S
C803 C802 1.477 . S
C803 H823 0.930 . S
C804 N800 1.362 . S
C804 C801 1.431 . S
C804 C814 1.476 . S
H805 C799 0.929 . S
C806 O797 1.250 . S
C806 O798 1.258 . S
O807 Mn792 2.162 . S
O807 C795 1.281 . S
O808 Mn792 2.297 . S
O808 C795 1.236 . S
N809 Mn793 2.282 . S
N809 C810 1.328 . S
N809 C814 1.318 . S
C810 N809 1.328 . S
C810 C811 1.457 . S
C810 H815 0.929 . S
C811 C810 1.457 . S
C811 C812 1.291 . S
C811 H824 0.931 . S
C812 C811 1.291 . S
C812 C813 1.373 . S
C812 H825 0.929 . S
C813 C812 1.373 . S
C813 C814 1.396 . S
C813 C820 1.403 . S
C814 C804 1.476 . S
C814 N809 1.318 . S
C814 C813 1.396 . S
H815 C810 0.929 . S
O816 Mn792 2.385 . S
O816 C794 1.234 . S
O817 Mn792 2.209 . S
O817 Mn793 2.215 . S
O817 C794 1.283 . S
O818 Mn792 2.094 . S
O818 C796 1.240 . S
O819 Mn793 2.117 . S
O819 C796 1.264 . S
C820 C813 1.403 . S
C820 C821 1.399 . S
C820 H826 0.929 . S
C821 C801 1.449 . S
C821 C820 1.399 . S
C821 H827 0.930 . S
H822 C802 0.931 . S
H823 C803 0.930 . S
H824 C811 0.931 . S
H825 C812 0.929 . S
H826 C820 0.929 . S
H827 C821 0.930 . S
Mn828 O833 2.095 . S
Mn828 O843 2.162 . S
Mn828 O844 2.297 . S
Mn828 O852 2.385 . S
Mn828 O853 2.209 . S
Mn828 O854 2.094 . S
Mn829 O834 2.121 . S
Mn829 N836 2.257 . S
Mn829 N845 2.282 . S
Mn829 O853 2.215 . S
Mn829 O855 2.117 . S
C830 O852 1.234 . S
C830 O853 1.283 . S
C831 O843 1.281 . S
C831 O844 1.236 . S
C832 O854 1.240 . S
C832 O855 1.264 . S
O833 Mn828 2.095 . S
O833 C842 1.250 . S
O834 Mn829 2.121 . S
O834 C842 1.258 . S
C835 N836 1.326 . S
C835 C839 1.460 . S
C835 H841 0.929 . S
N836 Mn829 2.257 . S
N836 C835 1.326 . S
N836 C840 1.362 . S
C837 C838 1.258 . S
C837 C840 1.431 . S
C837 C857 1.449 . S
C838 C837 1.258 . S
C838 C839 1.477 . S
C838 H858 0.931 1_455 S
C839 C835 1.460 . S
C839 C838 1.477 . S
C839 H859 0.930 1_455 S
C840 N836 1.362 . S
C840 C837 1.431 . S
C840 C850 1.476 . S
H841 C835 0.929 . S
C842 O833 1.250 . S
C842 O834 1.258 . S
O843 Mn828 2.162 . S
O843 C831 1.281 . S
O844 Mn828 2.297 . S
O844 C831 1.236 . S
N845 Mn829 2.282 . S
N845 C846 1.328 . S
N845 C850 1.318 . S
C846 N845 1.328 . S
C846 C847 1.457 . S
C846 H851 0.929 . S
C847 C846 1.457 . S
C847 C848 1.291 . S
C847 H860 0.931 . S
C848 C847 1.291 . S
C848 C849 1.373 . S
C848 H861 0.929 . S
C849 C848 1.373 . S
C849 C850 1.396 . S
C849 C856 1.403 . S
C850 C840 1.476 . S
C850 N845 1.318 . S
C850 C849 1.396 . S
H851 C846 0.929 . S
O852 Mn828 2.385 . S
O852 C830 1.234 . S
O853 Mn828 2.209 . S
O853 Mn829 2.215 . S
O853 C830 1.283 . S
O854 Mn828 2.094 . S
O854 C832 1.240 . S
O855 Mn829 2.117 . S
O855 C832 1.264 . S
C856 C849 1.403 . S
C856 C857 1.399 . S
C856 H862 0.929 . S
C857 C837 1.449 . S
C857 C856 1.399 . S
C857 H863 0.930 . S
H858 C838 0.931 1_655 S
H859 C839 0.930 1_655 S
H860 C847 0.931 . S
H861 C848 0.929 . S
H862 C856 0.929 . S
H863 C857 0.930 . S
Mn864 O869 2.095 . S
Mn864 O879 2.162 . S
Mn864 O880 2.297 . S
Mn864 O888 2.385 . S
Mn864 O889 2.209 . S
Mn864 O890 2.094 . S
Mn865 O870 2.121 . S
Mn865 N872 2.257 . S
Mn865 N881 2.282 . S
Mn865 O889 2.215 . S
Mn865 O891 2.117 . S
C866 O888 1.234 . S
C866 O889 1.283 . S
C867 O879 1.281 . S
C867 O880 1.236 . S
C868 O890 1.240 . S
C868 O891 1.264 . S
O869 Mn864 2.095 . S
O869 C878 1.250 . S
O870 Mn865 2.121 . S
O870 C878 1.258 . S
C871 N872 1.326 . S
C871 C875 1.460 . S
C871 H877 0.929 . S
N872 Mn865 2.257 . S
N872 C871 1.326 . S
N872 C876 1.362 . S
C873 C874 1.258 . S
C873 C876 1.431 . S
C873 C893 1.449 . S
C874 C873 1.258 . S
C874 C875 1.477 . S
C874 H894 0.931 . S
C875 C871 1.460 . S
C875 C874 1.477 . S
C875 H895 0.930 . S
C876 N872 1.362 . S
C876 C873 1.431 . S
C876 C886 1.476 . S
H877 C871 0.929 . S
C878 O869 1.250 . S
C878 O870 1.258 . S
O879 Mn864 2.162 . S
O879 C867 1.281 . S
O880 Mn864 2.297 . S
O880 C867 1.236 . S
N881 Mn865 2.282 . S
N881 C882 1.328 . S
N881 C886 1.318 . S
C882 N881 1.328 . S
C882 C883 1.457 . S
C882 H887 0.929 . S
C883 C882 1.457 . S
C883 C884 1.291 . S
C883 H896 0.931 . S
C884 C883 1.291 . S
C884 C885 1.373 . S
C884 H897 0.929 . S
C885 C884 1.373 . S
C885 C886 1.396 . S
C885 C892 1.403 . S
C886 C876 1.476 . S
C886 N881 1.318 . S
C886 C885 1.396 . S
H887 C882 0.929 . S
O888 Mn864 2.385 . S
O888 C866 1.234 . S
O889 Mn864 2.209 . S
O889 Mn865 2.215 . S
O889 C866 1.283 . S
O890 Mn864 2.094 . S
O890 C868 1.240 . S
O891 Mn865 2.117 . S
O891 C868 1.264 . S
C892 C885 1.403 . S
C892 C893 1.399 . S
C892 H898 0.929 . S
C893 C873 1.449 . S
C893 C892 1.399 . S
C893 H899 0.930 . S
H894 C874 0.931 . S
H895 C875 0.930 . S
H896 C883 0.931 . S
H897 C884 0.929 . S
H898 C892 0.929 . S
H899 C893 0.930 . S
Mn900 O905 2.095 . S
Mn900 O915 2.162 . S
Mn900 O916 2.297 . S
Mn900 O924 2.385 . S
Mn900 O925 2.209 . S
Mn900 O926 2.094 . S
Mn901 O906 2.121 . S
Mn901 N908 2.257 . S
Mn901 N917 2.282 . S
Mn901 O925 2.215 . S
Mn901 O927 2.117 . S
C902 O924 1.234 . S
C902 O925 1.283 . S
C903 O915 1.281 . S
C903 O916 1.236 . S
C904 O926 1.240 . S
C904 O927 1.264 . S
O905 Mn900 2.095 . S
O905 C914 1.250 . S
O906 Mn901 2.121 . S
O906 C914 1.258 . S
C907 N908 1.326 . S
C907 C911 1.460 . S
C907 H913 0.929 . S
N908 Mn901 2.257 . S
N908 C907 1.326 . S
N908 C912 1.362 . S
C909 C910 1.258 . S
C909 C912 1.431 . S
C909 C929 1.449 . S
C910 C909 1.258 . S
C910 C911 1.477 . S
C910 H930 0.931 . S
C911 C907 1.460 . S
C911 C910 1.477 . S
C911 H931 0.930 . S
C912 N908 1.362 . S
C912 C909 1.431 . S
C912 C922 1.476 . S
H913 C907 0.929 . S
C914 O905 1.250 . S
C914 O906 1.258 . S
O915 Mn900 2.162 . S
O915 C903 1.281 . S
O916 Mn900 2.297 . S
O916 C903 1.236 . S
N917 Mn901 2.282 . S
N917 C918 1.328 . S
N917 C922 1.318 . S
C918 N917 1.328 . S
C918 C919 1.457 . S
C918 H923 0.929 . S
C919 C918 1.457 . S
C919 C920 1.291 . S
C919 H932 0.931 . S
C920 C919 1.291 . S
C920 C921 1.373 . S
C920 H933 0.929 . S
C921 C920 1.373 . S
C921 C922 1.396 . S
C921 C928 1.403 . S
C922 C912 1.476 . S
C922 N917 1.318 . S
C922 C921 1.396 . S
H923 C918 0.929 . S
O924 Mn900 2.385 . S
O924 C902 1.234 . S
O925 Mn900 2.209 . S
O925 Mn901 2.215 . S
O925 C902 1.283 . S
O926 Mn900 2.094 . S
O926 C904 1.240 . S
O927 Mn901 2.117 . S
O927 C904 1.264 . S
C928 C921 1.403 . S
C928 C929 1.399 . S
C928 H934 0.929 . S
C929 C909 1.449 . S
C929 C928 1.399 . S
C929 H935 0.930 . S
H930 C910 0.931 . S
H931 C911 0.930 . S
H932 C919 0.931 . S
H933 C920 0.929 . S
H934 C928 0.929 . S
H935 C929 0.930 . S
Mn936 O941 2.095 . S
Mn936 O951 2.162 . S
Mn936 O952 2.297 . S
Mn936 O960 2.385 . S
Mn936 O961 2.209 . S
Mn936 O962 2.094 . S
Mn937 O942 2.121 . S
Mn937 N944 2.257 . S
Mn937 N953 2.282 . S
Mn937 O961 2.215 . S
Mn937 O963 2.117 . S
C938 O960 1.234 . S
C938 O961 1.283 . S
C939 O951 1.281 . S
C939 O952 1.236 . S
C940 O962 1.240 . S
C940 O963 1.264 . S
O941 Mn936 2.095 . S
O941 C950 1.250 . S
O942 Mn937 2.121 . S
O942 C950 1.258 . S
C943 N944 1.326 . S
C943 C947 1.460 . S
C943 H949 0.929 . S
N944 Mn937 2.257 . S
N944 C943 1.326 . S
N944 C948 1.362 . S
C945 C946 1.258 . S
C945 C948 1.431 . S
C945 C965 1.449 . S
C946 C945 1.258 . S
C946 C947 1.477 . S
C946 H966 0.931 . S
C947 C943 1.460 . S
C947 C946 1.477 . S
C947 H967 0.930 . S
C948 N944 1.362 . S
C948 C945 1.431 . S
C948 C958 1.476 . S
H949 C943 0.929 . S
C950 O941 1.250 . S
C950 O942 1.258 . S
O951 Mn936 2.162 . S
O951 C939 1.281 . S
O952 Mn936 2.297 . S
O952 C939 1.236 . S
N953 Mn937 2.282 . S
N953 C954 1.328 . S
N953 C958 1.318 . S
C954 N953 1.328 . S
C954 C955 1.457 . S
C954 H959 0.929 . S
C955 C954 1.457 . S
C955 C956 1.291 . S
C955 H968 0.931 . S
C956 C955 1.291 . S
C956 C957 1.373 . S
C956 H969 0.929 . S
C957 C956 1.373 . S
C957 C958 1.396 . S
C957 C964 1.403 . S
C958 C948 1.476 . S
C958 N953 1.318 . S
C958 C957 1.396 . S
H959 C954 0.929 . S
O960 Mn936 2.385 . S
O960 C938 1.234 . S
O961 Mn936 2.209 . S
O961 Mn937 2.215 . S
O961 C938 1.283 . S
O962 Mn936 2.094 . S
O962 C940 1.240 . S
O963 Mn937 2.117 . S
O963 C940 1.264 . S
C964 C957 1.403 . S
C964 C965 1.399 . S
C964 H970 0.929 . S
C965 C945 1.449 . S
C965 C964 1.399 . S
C965 H971 0.930 . S
H966 C946 0.931 . S
H967 C947 0.930 . S
H968 C955 0.931 . S
H969 C956 0.929 . S
H970 C964 0.929 . S
H971 C965 0.930 . S
Mn972 O977 2.095 . S
Mn972 O987 2.162 . S
Mn972 O988 2.297 . S
Mn972 O996 2.385 . S
Mn972 O997 2.209 . S
Mn972 O998 2.094 . S
Mn973 O978 2.121 . S
Mn973 N980 2.257 . S
Mn973 N989 2.282 . S
Mn973 O997 2.215 . S
Mn973 O999 2.117 . S
C974 O996 1.234 . S
C974 O997 1.283 . S
C975 O987 1.281 . S
C975 O988 1.236 . S
C976 O998 1.240 . S
C976 O999 1.264 . S
O977 Mn972 2.095 . S
O977 C986 1.250 . S
O978 Mn973 2.121 . S
O978 C986 1.258 . S
C979 N980 1.326 . S
C979 C983 1.460 . S
C979 H985 0.929 . S
N980 Mn973 2.257 . S
N980 C979 1.326 . S
N980 C984 1.362 . S
C981 C982 1.258 . S
C981 C984 1.431 . S
C981 C1001 1.449 . S
C982 C981 1.258 . S
C982 C983 1.477 . S
C982 H1002 0.931 . S
C983 C979 1.460 . S
C983 C982 1.477 . S
C983 H1003 0.930 . S
C984 N980 1.362 . S
C984 C981 1.431 . S
C984 C994 1.476 . S
H985 C979 0.929 . S
C986 O977 1.250 . S
C986 O978 1.258 . S
O987 Mn972 2.162 . S
O987 C975 1.281 . S
O988 Mn972 2.297 . S
O988 C975 1.236 . S
N989 Mn973 2.282 . S
N989 C990 1.328 . S
N989 C994 1.318 . S
C990 N989 1.328 . S
C990 C991 1.457 . S
C990 H995 0.929 . S
C991 C990 1.457 . S
C991 C992 1.291 . S
C991 H1004 0.931 . S
C992 C991 1.291 . S
C992 C993 1.373 . S
C992 H1005 0.968 . S
C993 C992 1.373 . S
C993 C994 1.396 . S
C993 C1000 1.403 . S
C994 C984 1.476 . S
C994 N989 1.318 . S
C994 C993 1.396 . S
H995 C990 0.929 . S
O996 Mn972 2.385 . S
O996 C974 1.234 . S
O997 Mn972 2.209 . S
O997 Mn973 2.215 . S
O997 C974 1.283 . S
O998 Mn972 2.094 . S
O998 C976 1.240 . S
O999 Mn973 2.117 . S
O999 C976 1.264 . S
C1000 C993 1.403 . S
C1000 C1001 1.399 . S
C1000 H1006 0.929 . S
C1001 C981 1.449 . S
C1001 C1000 1.399 . S
C1001 H1007 0.930 . S
H1002 C982 0.931 . S
H1003 C983 0.930 . S
H1004 C991 0.931 . S
H1005 C992 0.968 . S
H1006 C1000 0.929 . S
H1007 C1001 0.930 . S
Mn1008 O1013 2.095 . S
Mn1008 O1023 2.162 . S
Mn1008 O1024 2.297 . S
Mn1008 O1032 2.385 . S
Mn1008 O1033 2.209 . S
Mn1008 O1034 2.094 . S
Mn1009 O1014 2.121 . S
Mn1009 N1016 2.257 . S
Mn1009 N1025 2.282 . S
Mn1009 O1033 2.215 . S
Mn1009 O1035 2.117 . S
C1010 O1032 1.234 . S
C1010 O1033 1.283 . S
C1011 O1023 1.281 . S
C1011 O1024 1.236 . S
C1012 O1034 1.240 . S
C1012 O1035 1.264 . S
O1013 Mn1008 2.095 . S
O1013 C1022 1.250 . S
O1014 Mn1009 2.121 . S
O1014 C1022 1.258 . S
C1015 N1016 1.326 . S
C1015 C1019 1.460 . S
C1015 H1021 0.929 . S
N1016 Mn1009 2.257 . S
N1016 C1015 1.326 . S
N1016 C1020 1.362 . S
C1017 C1018 1.258 . S
C1017 C1020 1.431 . S
C1017 C1037 1.449 . S
C1018 C1017 1.258 . S
C1018 C1019 1.477 . S
C1018 H1038 0.931 . S
C1019 C1015 1.460 . S
C1019 C1018 1.477 . S
C1019 H1039 0.930 . S
C1020 N1016 1.362 . S
C1020 C1017 1.431 . S
C1020 C1030 1.476 . S
H1021 C1015 0.929 . S
C1022 O1013 1.250 . S
C1022 O1014 1.258 . S
O1023 Mn1008 2.162 . S
O1023 C1011 1.281 . S
O1024 Mn1008 2.297 . S
O1024 C1011 1.236 . S
N1025 Mn1009 2.282 . S
N1025 C1026 1.328 . S
N1025 C1030 1.318 . S
C1026 N1025 1.328 . S
C1026 C1027 1.457 . S
C1026 H1031 0.929 . S
C1027 C1026 1.457 . S
C1027 C1028 1.291 . S
C1027 H1040 0.931 . S
C1028 C1027 1.291 . S
C1028 C1029 1.373 . S
C1028 H1041 0.929 . S
C1029 C1028 1.373 . S
C1029 C1030 1.396 . S
C1029 C1036 1.403 . S
C1030 C1020 1.476 . S
C1030 N1025 1.318 . S
C1030 C1029 1.396 . S
H1031 C1026 0.929 . S
O1032 Mn1008 2.385 . S
O1032 C1010 1.234 . S
O1033 Mn1008 2.209 . S
O1033 Mn1009 2.215 . S
O1033 C1010 1.283 . S
O1034 Mn1008 2.094 . S
O1034 C1012 1.240 . S
O1035 Mn1009 2.117 . S
O1035 C1012 1.264 . S
C1036 C1029 1.403 . S
C1036 C1037 1.399 . S
C1036 H1042 0.929 . S
C1037 C1017 1.449 . S
C1037 C1036 1.399 . S
C1037 H1043 0.930 . S
H1038 C1018 0.931 . S
H1039 C1019 0.930 . S
H1040 C1027 0.931 . S
H1041 C1028 0.929 . S
H1042 C1036 0.929 . S
H1043 C1037 0.930 . S
Mn1044 O1049 2.095 . S
Mn1044 O1059 2.162 . S
Mn1044 O1060 2.297 . S
Mn1044 O1068 2.385 . S
Mn1044 O1069 2.209 . S
Mn1044 O1070 2.094 . S
Mn1045 O1050 2.121 . S
Mn1045 N1052 2.257 . S
Mn1045 N1061 2.282 . S
Mn1045 O1069 2.215 . S
Mn1045 O1071 2.117 . S
C1046 O1068 1.234 . S
C1046 O1069 1.283 . S
C1047 O1059 1.281 . S
C1047 O1060 1.236 . S
C1048 O1070 1.240 . S
C1048 O1071 1.264 . S
O1049 Mn1044 2.095 . S
O1049 C1058 1.250 . S
O1050 Mn1045 2.121 . S
O1050 C1058 1.258 . S
C1051 N1052 1.326 . S
C1051 C1055 1.460 . S
C1051 H1057 0.929 . S
N1052 Mn1045 2.257 . S
N1052 C1051 1.326 . S
N1052 C1056 1.362 . S
C1053 C1054 1.258 . S
C1053 C1056 1.431 . S
C1053 C1073 1.449 . S
C1054 C1053 1.258 . S
C1054 C1055 1.477 . S
C1054 H1074 0.931 . S
C1055 C1051 1.460 . S
C1055 C1054 1.477 . S
C1055 H1075 0.930 . S
C1056 N1052 1.362 . S
C1056 C1053 1.431 . S
C1056 C1066 1.476 . S
H1057 C1051 0.929 . S
C1058 O1049 1.250 . S
C1058 O1050 1.258 . S
O1059 Mn1044 2.162 . S
O1059 C1047 1.281 . S
O1060 Mn1044 2.297 . S
O1060 C1047 1.236 . S
N1061 Mn1045 2.282 . S
N1061 C1062 1.328 . S
N1061 C1066 1.318 . S
C1062 N1061 1.328 . S
C1062 C1063 1.457 . S
C1062 H1067 0.929 . S
C1063 C1062 1.457 . S
C1063 C1064 1.291 . S
C1063 H1076 0.931 . S
C1064 C1063 1.291 . S
C1064 C1065 1.373 . S
C1064 H1077 0.929 . S
C1065 C1064 1.373 . S
C1065 C1066 1.396 . S
C1065 C1072 1.403 . S
C1066 C1056 1.476 . S
C1066 N1061 1.318 . S
C1066 C1065 1.396 . S
H1067 C1062 0.929 . S
O1068 Mn1044 2.385 . S
O1068 C1046 1.234 . S
O1069 Mn1044 2.209 . S
O1069 Mn1045 2.215 . S
O1069 C1046 1.283 . S
O1070 Mn1044 2.094 . S
O1070 C1048 1.240 . S
O1071 Mn1045 2.117 . S
O1071 C1048 1.264 . S
C1072 C1065 1.403 . S
C1072 C1073 1.399 . S
C1072 H1078 0.929 . S
C1073 C1053 1.449 . S
C1073 C1072 1.399 . S
C1073 H1079 0.930 . S
H1074 C1054 0.931 . S
H1075 C1055 0.930 . S
H1076 C1063 0.931 . S
H1077 C1064 0.929 . S
H1078 C1072 0.929 . S
H1079 C1073 0.930 . S
Mn1080 O1085 2.095 . S
Mn1080 O1095 2.162 . S
Mn1080 O1096 2.297 . S
Mn1080 O1104 2.385 . S
Mn1080 O1105 2.209 . S
Mn1080 O1106 2.094 . S
Mn1081 O1086 2.121 . S
Mn1081 N1088 2.257 . S
Mn1081 N1097 2.282 . S
Mn1081 O1105 2.215 . S
Mn1081 O1107 2.117 . S
C1082 O1104 1.234 . S
C1082 O1105 1.283 . S
C1083 O1095 1.281 . S
C1083 O1096 1.236 . S
C1084 O1106 1.240 . S
C1084 O1107 1.264 . S
O1085 Mn1080 2.095 . S
O1085 C1094 1.250 . S
O1086 Mn1081 2.121 . S
O1086 C1094 1.258 . S
C1087 N1088 1.326 . S
C1087 C1091 1.460 1_556 S
C1087 H1093 0.929 . S
N1088 Mn1081 2.257 . S
N1088 C1087 1.326 . S
N1088 C1092 1.362 . S
C1089 C1090 1.258 . S
C1089 C1092 1.431 1_554 S
C1089 C1109 1.449 . S
C1090 C1089 1.258 . S
C1090 C1091 1.477 . S
C1090 H1110 0.931 . S
C1091 C1087 1.460 1_554 S
C1091 C1090 1.477 . S
C1091 H1111 0.930 . S
C1092 N1088 1.362 . S
C1092 C1089 1.431 1_556 S
C1092 C1102 1.476 . S
H1093 C1087 0.929 . S
C1094 O1085 1.250 . S
C1094 O1086 1.258 . S
O1095 Mn1080 2.162 . S
O1095 C1083 1.281 . S
O1096 Mn1080 2.297 . S
O1096 C1083 1.236 . S
N1097 Mn1081 2.282 . S
N1097 C1098 1.328 . S
N1097 C1102 1.318 . S
C1098 N1097 1.328 . S
C1098 C1099 1.457 . S
C1098 H1103 0.929 . S
C1099 C1098 1.457 . S
C1099 C1100 1.291 . S
C1099 H1112 0.931 . S
C1100 C1099 1.291 . S
C1100 C1101 1.373 . S
C1100 H1113 0.929 . S
C1101 C1100 1.373 . S
C1101 C1102 1.396 . S
C1101 C1108 1.403 . S
C1102 C1092 1.476 . S
C1102 N1097 1.318 . S
C1102 C1101 1.396 . S
H1103 C1098 0.929 . S
O1104 Mn1080 2.385 . S
O1104 C1082 1.234 . S
O1105 Mn1080 2.209 . S
O1105 Mn1081 2.215 . S
O1105 C1082 1.283 . S
O1106 Mn1080 2.094 . S
O1106 C1084 1.240 . S
O1107 Mn1081 2.117 . S
O1107 C1084 1.264 . S
C1108 C1101 1.403 . S
C1108 C1109 1.399 1_556 S
C1108 H1114 0.929 . S
C1109 C1089 1.449 . S
C1109 C1108 1.399 1_554 S
C1109 H1115 0.930 . S
H1110 C1090 0.931 . S
H1111 C1091 0.930 . S
H1112 C1099 0.931 . S
H1113 C1100 0.929 . S
H1114 C1108 0.929 . S
H1115 C1109 0.930 . S
Mn1116 O1121 2.095 . S
Mn1116 O1131 2.162 . S
Mn1116 O1132 2.297 . S
Mn1116 O1140 2.385 . S
Mn1116 O1141 2.209 . S
Mn1116 O1142 2.094 . S
Mn1117 O1122 2.121 . S
Mn1117 N1124 2.257 . S
Mn1117 N1133 2.282 . S
Mn1117 O1141 2.215 . S
Mn1117 O1143 2.117 . S
C1118 O1140 1.234 . S
C1118 O1141 1.283 . S
C1119 O1131 1.281 . S
C1119 O1132 1.236 . S
C1120 O1142 1.240 . S
C1120 O1143 1.264 . S
O1121 Mn1116 2.095 . S
O1121 C1130 1.250 . S
O1122 Mn1117 2.121 . S
O1122 C1130 1.258 . S
C1123 N1124 1.326 . S
C1123 C1127 1.460 . S
C1123 H1129 0.929 . S
N1124 Mn1117 2.257 . S
N1124 C1123 1.326 . S
N1124 C1128 1.362 . S
C1125 C1126 1.258 . S
C1125 C1128 1.431 . S
C1125 C1145 1.449 . S
C1126 C1125 1.258 . S
C1126 C1127 1.477 . S
C1126 H1146 0.931 . S
C1127 C1123 1.460 . S
C1127 C1126 1.477 . S
C1127 H1147 0.930 . S
C1128 N1124 1.362 . S
C1128 C1125 1.431 . S
C1128 C1138 1.476 . S
H1129 C1123 0.929 . S
C1130 O1121 1.250 . S
C1130 O1122 1.258 . S
O1131 Mn1116 2.162 . S
O1131 C1119 1.281 . S
O1132 Mn1116 2.297 . S
O1132 C1119 1.236 . S
N1133 Mn1117 2.282 . S
N1133 C1134 1.328 . S
N1133 C1138 1.318 . S
C1134 N1133 1.328 . S
C1134 C1135 1.457 . S
C1134 H1139 0.929 . S
C1135 C1134 1.457 . S
C1135 C1136 1.291 . S
C1135 H1148 0.931 . S
C1136 C1135 1.291 . S
C1136 C1137 1.373 . S
C1136 H1149 0.929 . S
C1137 C1136 1.373 . S
C1137 C1138 1.396 . S
C1137 C1144 1.403 . S
C1138 C1128 1.476 . S
C1138 N1133 1.318 . S
C1138 C1137 1.396 . S
H1139 C1134 0.929 . S
O1140 Mn1116 2.385 . S
O1140 C1118 1.234 . S
O1141 Mn1116 2.209 . S
O1141 Mn1117 2.215 . S
O1141 C1118 1.283 . S
O1142 Mn1116 2.094 . S
O1142 C1120 1.240 . S
O1143 Mn1117 2.117 . S
O1143 C1120 1.264 . S
C1144 C1137 1.403 . S
C1144 C1145 1.399 . S
C1144 H1150 0.929 . S
C1145 C1125 1.449 . S
C1145 C1144 1.399 . S
C1145 H1151 0.930 . S
H1146 C1126 0.931 . S
H1147 C1127 0.930 . S
H1148 C1135 0.931 . S
H1149 C1136 0.929 . S
H1150 C1144 0.929 . S
H1151 C1145 0.930 . S
H1152 C1170 0.951 . S
H1153 C1172 0.951 . S
H1154 C1174 0.950 . S
H1155 C1175 0.950 . S
H1156 C1177 0.950 . S
H1157 C1180 0.950 . S
H1158 C1181 0.950 . S
H1159 C1183 0.968 . S
H1160 C1184 0.950 1_565 S
H1161 C1185 0.951 . S
H1162 C1187 0.951 . S
H1163 C1189 0.950 . S
H1164 C1190 0.950 . S
H1165 C1192 0.950 . S
H1166 C1195 0.950 . S
H1167 C1196 0.950 . S
H1168 C1198 0.950 . S
H1169 C1199 0.950 . S
C1170 H1152 0.951 . S
C1170 C1171 1.366 . S
C1170 C1172 1.388 . S
C1171 C1170 1.366 . S
C1171 C1175 1.385 . S
C1172 H1153 0.951 . S
C1172 C1170 1.388 . S
C1172 C1173 1.366 . S
C1173 C1172 1.366 . S
C1173 C1174 1.414 . S
C1173 C1176 1.499 . S
C1174 H1154 0.950 . S
C1174 C1173 1.414 . S
C1174 C1175 1.374 . S
C1175 H1155 0.950 . S
C1175 C1171 1.385 . S
C1175 C1174 1.374 . S
C1176 C1173 1.499 . S
C1176 C1177 1.373 1_455 S
C1176 C1178 1.389 1_554 S
C1177 H1156 0.950 . S
C1177 C1176 1.373 1_655 S
C1177 C1193 1.366 1_554 S
C1178 C1176 1.389 1_556 S
C1178 C1179 1.524 . S
C1178 C1192 1.377 1_545 S
C1179 C1178 1.524 . S
C1179 C1180 1.397 . S
C1179 C1184 1.363 . S
C1180 H1157 0.950 . S
C1180 C1179 1.397 . S
C1180 C1181 1.334 . S
C1181 H1158 0.950 . S
C1181 C1180 1.334 . S
C1181 C1182 1.287 . S
C1182 C1181 1.287 . S
C1182 C1183 1.524 . S
C1182 H1201 0.913 . S
C1183 H1159 0.968 . S
C1183 C1182 1.524 . S
C1183 C1184 1.415 . S
C1184 H1160 0.950 1_545 S
C1184 C1179 1.363 . S
C1184 C1183 1.415 . S
C1185 H1161 0.951 . S
C1185 C1186 1.366 . S
C1185 C1187 1.388 . S
C1186 C1185 1.366 . S
C1186 C1190 1.385 . S
C1187 H1162 0.951 . S
C1187 C1185 1.388 . S
C1187 C1188 1.366 . S
C1188 C1187 1.366 . S
C1188 C1189 1.414 . S
C1188 C1191 1.499 . S
C1189 H1163 0.950 . S
C1189 C1188 1.414 . S
C1189 C1190 1.374 . S
C1190 H1164 0.950 . S
C1190 C1186 1.385 . S
C1190 C1189 1.374 . S
C1191 C1188 1.499 . S
C1191 C1192 1.373 1_655 S
C1191 C1193 1.406 1_565 S
C1192 H1165 0.950 . S
C1192 C1178 1.377 1_565 S
C1192 C1191 1.373 1_455 S
C1193 C1177 1.366 1_556 S
C1193 C1191 1.406 1_545 S
C1193 C1194 1.517 1_546 S
C1194 C1193 1.517 1_564 S
C1194 C1195 1.397 . S
C1194 C1199 1.363 1_565 S
C1195 H1166 0.950 . S
C1195 C1194 1.397 . S
C1195 C1196 1.334 . S
C1196 H1167 0.950 . S
C1196 C1195 1.334 . S
C1196 C1197 1.287 . S
C1197 C1196 1.287 . S
C1197 C1198 1.524 1_565 S
C1197 H1200 0.999 . S
C1198 H1168 0.950 . S
C1198 C1197 1.524 1_545 S
C1198 C1199 1.415 . S
C1199 H1169 0.950 . S
C1199 C1194 1.363 1_545 S
C1199 C1198 1.415 . S
H1200 C1197 0.999 . S
H1201 C1182 0.913 . S
H1202 C1220 0.951 . S
H1203 C1222 0.951 . S
H1204 C1224 0.950 . S
H1205 C1225 0.950 . S
H1206 C1227 0.950 . S
H1207 C1230 0.950 . S
H1208 C1231 0.950 . S
H1209 C1233 0.950 . S
H1210 C1234 0.950 . S
H1211 C1235 0.951 . S
H1212 C1237 0.951 . S
H1213 C1239 0.950 . S
H1214 C1240 0.950 . S
H1215 C1242 0.950 . S
H1216 C1245 0.950 . S
H1217 C1246 0.950 . S
H1218 C1248 0.950 . S
H1219 C1249 0.950 . S
C1220 H1202 0.951 . S
C1220 C1221 1.366 . S
C1220 C1222 1.388 . S
C1221 C1220 1.366 . S
C1221 C1225 1.385 . S
C1222 H1203 0.951 . S
C1222 C1220 1.388 . S
C1222 C1223 1.366 . S
C1223 C1222 1.366 . S
C1223 C1224 1.414 . S
C1223 C1226 1.499 . S
C1224 H1204 0.950 . S
C1224 C1223 1.414 . S
C1224 C1225 1.374 . S
C1225 H1205 0.950 . S
C1225 C1221 1.385 . S
C1225 C1224 1.374 . S
C1226 C1223 1.499 . S
C1226 C1227 1.373 . S
C1226 C1228 1.389 . S
C1227 H1206 0.950 . S
C1227 C1226 1.373 . S
C1227 C1243 1.377 . S
C1228 C1226 1.389 . S
C1228 C1229 1.524 . S
C1228 C1242 1.377 . S
C1229 C1228 1.524 . S
C1229 C1230 1.397 . S
C1229 C1234 1.363 . S
C1230 H1207 0.950 . S
C1230 C1229 1.397 . S
C1230 C1231 1.334 . S
C1231 H1208 0.950 . S
C1231 C1230 1.334 . S
C1231 C1232 1.287 . S
C1232 C1231 1.287 . S
C1232 C1233 1.524 . S
C1232 H1251 0.913 . S
C1233 H1209 0.950 . S
C1233 C1232 1.524 . S
C1233 C1234 1.415 . S
C1234 H1210 0.950 . S
C1234 C1229 1.363 . S
C1234 C1233 1.415 . S
C1235 H1211 0.951 . S
C1235 C1236 1.366 . S
C1235 C1237 1.388 . S
C1236 C1235 1.366 . S
C1236 C1240 1.385 . S
C1237 H1212 0.951 . S
C1237 C1235 1.388 . S
C1237 C1238 1.366 . S
C1238 C1237 1.366 . S
C1238 C1239 1.414 . S
C1238 C1241 1.499 . S
C1239 H1213 0.950 . S
C1239 C1238 1.414 . S
C1239 C1240 1.374 . S
C1240 H1214 0.950 . S
C1240 C1236 1.385 . S
C1240 C1239 1.374 . S
C1241 C1238 1.499 . S
C1241 C1242 1.373 . S
C1241 C1243 1.389 . S
C1242 H1215 0.950 . S
C1242 C1228 1.377 . S
C1242 C1241 1.373 . S
C1243 C1227 1.377 . S
C1243 C1241 1.389 . S
C1243 C1244 1.524 . S
C1244 C1243 1.524 . S
C1244 C1245 1.397 . S
C1244 C1249 1.363 . S
C1245 H1216 0.950 . S
C1245 C1244 1.397 . S
C1245 C1246 1.334 . S
C1246 H1217 0.950 . S
C1246 C1245 1.334 . S
C1246 C1247 1.287 . S
C1247 C1246 1.287 . S
C1247 C1248 1.524 . S
C1247 H1250 0.999 . S
C1248 H1218 0.950 . S
C1248 C1247 1.524 . S
C1248 C1249 1.415 . S
C1249 H1219 0.950 . S
C1249 C1244 1.363 . S
C1249 C1248 1.415 . S
H1250 C1247 0.999 . S
H1251 C1232 0.913 . S
H1252 C1270 0.951 . S
H1253 C1272 0.951 . S
H1254 C1274 0.950 . S
H1255 C1275 0.950 . S
H1256 C1277 0.950 . S
H1257 C1280 0.953 . S
H1258 C1281 0.950 . S
H1259 C1283 0.950 . S
H1260 C1284 0.950 . S
H1261 C1285 0.951 . S
H1262 C1287 0.951 . S
H1263 C1289 0.950 . S
H1264 C1290 0.950 . S
H1265 C1292 0.950 . S
H1266 C1295 0.950 . S
H1267 C1296 0.950 . S
H1268 C1298 0.950 . S
H1269 C1299 0.950 . S
C1270 H1252 0.951 . S
C1270 C1271 1.366 . S
C1270 C1272 1.388 . S
C1271 C1270 1.366 . S
C1271 C1275 1.385 . S
C1272 H1253 0.951 . S
C1272 C1270 1.388 . S
C1272 C1273 1.366 . S
C1273 C1272 1.366 . S
C1273 C1274 1.414 . S
C1273 C1276 1.499 . S
C1274 H1254 0.950 . S
C1274 C1273 1.414 . S
C1274 C1275 1.374 . S
C1275 H1255 0.950 . S
C1275 C1271 1.385 . S
C1275 C1274 1.374 . S
C1276 C1273 1.499 . S
C1276 C1277 1.373 . S
C1276 C1278 1.389 . S
C1277 H1256 0.950 . S
C1277 C1276 1.373 . S
C1277 C1293 1.377 . S
C1278 C1276 1.389 . S
C1278 C1279 1.524 . S
C1278 C1292 1.377 1_565 S
C1279 C1278 1.524 . S
C1279 C1280 1.399 . S
C1279 C1284 1.363 1_565 S
C1280 H1257 0.953 . S
C1280 C1279 1.399 . S
C1280 C1281 1.328 1_565 S
C1281 H1258 0.950 . S
C1281 C1280 1.328 1_545 S
C1281 C1282 1.287 . S
C1282 C1281 1.287 . S
C1282 C1283 1.524 . S
C1282 H1301 0.913 . S
C1283 H1259 0.950 . S
C1283 C1282 1.524 . S
C1283 C1284 1.415 . S
C1284 H1260 0.950 . S
C1284 C1279 1.363 1_545 S
C1284 C1283 1.415 . S
C1285 H1261 0.951 . S
C1285 C1286 1.366 . S
C1285 C1287 1.388 . S
C1286 C1285 1.366 . S
C1286 C1290 1.385 . S
C1287 H1262 0.951 . S
C1287 C1285 1.388 . S
C1287 C1288 1.366 . S
C1288 C1287 1.366 . S
C1288 C1289 1.414 . S
C1288 C1291 1.499 1_545 S
C1289 H1263 0.950 . S
C1289 C1288 1.414 . S
C1289 C1290 1.374 . S
C1290 H1264 0.950 . S
C1290 C1286 1.385 . S
C1290 C1289 1.374 . S
C1291 C1288 1.499 1_565 S
C1291 C1292 1.373 1_565 S
C1291 C1293 1.389 . S
C1292 H1265 0.950 . S
C1292 C1278 1.377 1_545 S
C1292 C1291 1.373 1_545 S
C1293 C1277 1.377 . S
C1293 C1291 1.389 . S
C1293 C1294 1.524 . S
C1294 C1293 1.524 . S
C1294 C1295 1.397 . S
C1294 C1299 1.363 . S
C1295 H1266 0.950 . S
C1295 C1294 1.397 . S
C1295 C1296 1.334 . S
C1296 H1267 0.950 . S
C1296 C1295 1.334 . S
C1296 C1297 1.287 . S
C1297 C1296 1.287 . S
C1297 C1298 1.524 . S
C1297 H1300 0.999 . S
C1298 H1268 0.950 . S
C1298 C1297 1.524 . S
C1298 C1299 1.415 . S
C1299 H1269 0.950 . S
C1299 C1294 1.363 . S
C1299 C1298 1.415 . S
H1300 C1297 0.999 . S
H1301 C1282 0.913 . S
H1302 C1320 0.951 . S
H1303 C1322 0.951 . S
H1304 C1324 0.950 . S
H1305 C1325 0.950 . S
H1306 C1327 0.950 . S
H1307 C1330 0.950 . S
H1308 C1331 0.950 . S
H1309 C1333 0.950 . S
H1310 C1334 0.950 . S
H1311 C1335 0.951 . S
H1312 C1337 0.951 . S
H1313 C1339 0.950 . S
H1314 C1340 0.950 . S
H1315 C1342 0.950 . S
H1316 C1345 0.950 . S
H1317 C1346 0.950 . S
H1318 C1348 0.950 . S
H1319 C1349 0.950 . S
C1320 H1302 0.951 . S
C1320 C1321 1.366 . S
C1320 C1322 1.388 . S
C1321 C1320 1.366 . S
C1321 C1325 1.385 . S
C1322 H1303 0.951 . S
C1322 C1320 1.388 . S
C1322 C1323 1.366 . S
C1323 C1322 1.366 . S
C1323 C1324 1.414 . S
C1323 C1326 1.499 . S
C1324 H1304 0.950 . S
C1324 C1323 1.414 . S
C1324 C1325 1.374 . S
C1325 H1305 0.950 . S
C1325 C1321 1.385 . S
C1325 C1324 1.374 . S
C1326 C1323 1.499 . S
C1326 C1327 1.373 . S
C1326 C1328 1.389 . S
C1327 H1306 0.950 . S
C1327 C1326 1.373 . S
C1327 C1343 1.377 . S
C1328 C1326 1.389 . S
C1328 C1329 1.524 . S
C1328 C1342 1.377 . S
C1329 C1328 1.524 . S
C1329 C1330 1.397 . S
C1329 C1334 1.363 . S
C1330 H1307 0.950 . S
C1330 C1329 1.397 . S
C1330 C1331 1.334 . S
C1331 H1308 0.950 . S
C1331 C1330 1.334 . S
C1331 C1332 1.287 . S
C1332 C1331 1.287 . S
C1332 C1333 1.524 . S
C1332 H1351 0.913 . S
C1333 H1309 0.950 . S
C1333 C1332 1.524 . S
C1333 C1334 1.415 . S
C1334 H1310 0.950 . S
C1334 C1329 1.363 . S
C1334 C1333 1.415 . S
C1335 H1311 0.951 . S
C1335 C1336 1.366 . S
C1335 C1337 1.388 . S
C1336 C1335 1.366 . S
C1336 C1340 1.385 . S
C1337 H1312 0.951 . S
C1337 C1335 1.388 . S
C1337 C1338 1.366 . S
C1338 C1337 1.366 . S
C1338 C1339 1.414 . S
C1338 C1341 1.499 . S
C1339 H1313 0.950 . S
C1339 C1338 1.414 . S
C1339 C1340 1.374 . S
C1340 H1314 0.950 . S
C1340 C1336 1.385 . S
C1340 C1339 1.374 . S
C1341 C1338 1.499 . S
C1341 C1342 1.373 . S
C1341 C1343 1.389 . S
C1342 H1315 0.950 . S
C1342 C1328 1.377 . S
C1342 C1341 1.373 . S
C1343 C1327 1.377 . S
C1343 C1341 1.389 . S
C1343 C1344 1.524 . S
C1344 C1343 1.524 . S
C1344 C1345 1.397 . S
C1344 C1349 1.363 . S
C1345 H1316 0.950 . S
C1345 C1344 1.397 . S
C1345 C1346 1.334 . S
C1346 H1317 0.950 . S
C1346 C1345 1.334 . S
C1346 C1347 1.287 . S
C1347 C1346 1.287 . S
C1347 C1348 1.524 . S
C1347 H1350 0.999 . S
C1348 H1318 0.950 . S
C1348 C1347 1.524 . S
C1348 C1349 1.415 . S
C1349 H1319 0.950 . S
C1349 C1344 1.363 . S
C1349 C1348 1.415 . S
H1350 C1347 0.999 . S
H1351 C1332 0.913 . S
H1352 C1370 0.951 . S
H1353 C1372 0.951 . S
H1354 C1374 0.950 1_545 S
H1355 C1375 0.950 . S
H1356 C1377 0.950 . S
H1357 C1380 0.950 . S
H1358 C1381 0.950 . S
H1359 C1383 0.950 . S
H1360 C1384 0.950 . S
H1361 C1385 0.951 . S
H1362 C1387 0.951 . S
H1363 C1389 0.950 . S
H1364 C1390 0.950 . S
H1365 C1392 0.950 . S
H1366 C1395 0.950 1_655 S
H1367 C1396 0.950 . S
H1368 C1398 0.950 . S
H1369 C1399 0.950 . S
C1370 H1352 0.951 . S
C1370 C1371 1.366 . S
C1370 C1372 1.388 . S
C1371 C1370 1.366 . S
C1371 C1375 1.385 . S
C1372 H1353 0.951 . S
C1372 C1370 1.388 . S
C1372 C1373 1.366 . S
C1373 C1372 1.366 . S
C1373 C1374 1.414 . S
C1373 C1376 1.499 . S
C1374 H1354 0.950 1_565 S
C1374 C1373 1.414 . S
C1374 C1375 1.374 . S
C1375 H1355 0.950 . S
C1375 C1371 1.385 . S
C1375 C1374 1.374 . S
C1376 C1373 1.499 . S
C1376 C1377 1.373 1_565 S
C1376 C1378 1.389 1_455 S
C1377 H1356 0.950 . S
C1377 C1376 1.373 1_545 S
C1377 C1393 1.377 1_455 S
C1378 C1376 1.389 1_655 S
C1378 C1379 1.524 . S
C1378 C1392 1.377 1_565 S
C1379 C1378 1.524 . S
C1379 C1380 1.397 . S
C1379 C1384 1.363 . S
C1380 H1357 0.950 . S
C1380 C1379 1.397 . S
C1380 C1381 1.334 . S
C1381 H1358 0.950 . S
C1381 C1380 1.334 . S
C1381 C1382 1.287 . S
C1382 C1381 1.287 . S
C1382 C1383 1.524 . S
C1382 H1401 0.913 . S
C1383 H1359 0.950 . S
C1383 C1382 1.524 . S
C1383 C1384 1.415 . S
C1384 H1360 0.950 . S
C1384 C1379 1.363 . S
C1384 C1383 1.415 . S
C1385 H1361 0.951 . S
C1385 C1386 1.366 . S
C1385 C1387 1.388 . S
C1386 C1385 1.366 . S
C1386 C1390 1.385 . S
C1387 H1362 0.951 . S
C1387 C1385 1.388 . S
C1387 C1388 1.366 . S
C1388 C1387 1.366 . S
C1388 C1389 1.414 . S
C1388 C1391 1.499 . S
C1389 H1363 0.950 . S
C1389 C1388 1.414 . S
C1389 C1390 1.374 . S
C1390 H1364 0.950 . S
C1390 C1386 1.385 . S
C1390 C1389 1.374 . S
C1391 C1388 1.499 . S
C1391 C1392 1.373 . S
C1391 C1393 1.389 . S
C1392 H1365 0.950 . S
C1392 C1378 1.377 1_545 S
C1392 C1391 1.373 . S
C1393 C1377 1.377 1_655 S
C1393 C1391 1.389 . S
C1393 C1394 1.524 1_655 S
C1394 C1393 1.524 1_455 S
C1394 C1395 1.397 . S
C1394 C1399 1.363 . S
C1395 H1366 0.950 1_455 S
C1395 C1394 1.397 . S
C1395 C1396 1.334 . S
C1396 H1367 0.950 . S
C1396 C1395 1.334 . S
C1396 C1397 1.287 . S
C1397 C1396 1.287 . S
C1397 C1398 1.524 . S
C1397 H1400 0.999 . S
C1398 H1368 0.950 . S
C1398 C1397 1.524 . S
C1398 C1399 1.415 . S
C1399 H1369 0.950 . S
C1399 C1394 1.363 . S
C1399 C1398 1.415 . S
H1400 C1397 0.999 . S
H1401 C1382 0.913 . S
H1402 C1420 0.951 . S
H1403 C1422 0.951 . S
H1404 C1424 0.950 . S
H1405 C1425 0.950 . S
H1406 C1427 0.950 . S
H1407 C1430 0.950 . S
H1408 C1431 0.950 . S
H1409 C1433 0.950 . S
H1410 C1434 0.950 . S
H1411 C1435 0.951 . S
H1412 C1437 0.951 . S
H1413 C1439 0.950 . S
H1414 C1440 0.950 . S
H1415 C1442 0.950 . S
H1416 C1445 0.950 . S
H1417 C1446 0.950 . S
H1418 C1448 0.950 . S
H1419 C1449 0.950 . S
C1420 H1402 0.951 . S
C1420 C1421 1.366 . S
C1420 C1422 1.388 . S
C1421 C1420 1.366 . S
C1421 C1425 1.385 . S
C1422 H1403 0.951 . S
C1422 C1420 1.388 . S
C1422 C1423 1.366 . S
C1423 C1422 1.366 . S
C1423 C1424 1.414 . S
C1423 C1426 1.499 . S
C1424 H1404 0.950 . S
C1424 C1423 1.414 . S
C1424 C1425 1.374 . S
C1425 H1405 0.950 . S
C1425 C1421 1.385 . S
C1425 C1424 1.374 . S
C1426 C1423 1.499 . S
C1426 C1427 1.373 . S
C1426 C1428 1.389 . S
C1427 H1406 0.950 . S
C1427 C1426 1.373 . S
C1427 C1443 1.377 . S
C1428 C1426 1.389 . S
C1428 C1429 1.524 . S
C1428 C1442 1.377 . S
C1429 C1428 1.524 . S
C1429 C1430 1.397 . S
C1429 C1434 1.363 . S
C1430 H1407 0.950 . S
C1430 C1429 1.397 . S
C1430 C1431 1.334 . S
C1431 H1408 0.950 . S
C1431 C1430 1.334 . S
C1431 C1432 1.287 . S
C1432 C1431 1.287 . S
C1432 C1433 1.524 . S
C1432 H1451 0.913 . S
C1433 H1409 0.950 . S
C1433 C1432 1.524 . S
C1433 C1434 1.415 . S
C1434 H1410 0.950 . S
C1434 C1429 1.363 . S
C1434 C1433 1.415 . S
C1435 H1411 0.951 . S
C1435 C1436 1.366 . S
C1435 C1437 1.388 . S
C1436 C1435 1.366 . S
C1436 C1440 1.385 . S
C1437 H1412 0.951 . S
C1437 C1435 1.388 . S
C1437 C1438 1.366 . S
C1438 C1437 1.366 . S
C1438 C1439 1.414 . S
C1438 C1441 1.499 . S
C1439 H1413 0.950 . S
C1439 C1438 1.414 . S
C1439 C1440 1.374 . S
C1440 H1414 0.950 . S
C1440 C1436 1.385 . S
C1440 C1439 1.374 . S
C1441 C1438 1.499 . S
C1441 C1442 1.373 . S
C1441 C1443 1.389 . S
C1442 H1415 0.950 . S
C1442 C1428 1.377 . S
C1442 C1441 1.373 . S
C1443 C1427 1.377 . S
C1443 C1441 1.389 . S
C1443 C1444 1.524 . S
C1444 C1443 1.524 . S
C1444 C1445 1.397 . S
C1444 C1449 1.363 . S
C1445 H1416 0.950 . S
C1445 C1444 1.397 . S
C1445 C1446 1.334 . S
C1446 H1417 0.950 . S
C1446 C1445 1.334 . S
C1446 C1447 1.287 . S
C1447 C1446 1.287 . S
C1447 C1448 1.524 . S
C1447 H1450 0.999 . S
C1448 H1418 0.950 . S
C1448 C1447 1.524 . S
C1448 C1449 1.415 . S
C1449 H1419 0.950 . S
C1449 C1444 1.363 . S
C1449 C1448 1.415 . S
H1450 C1447 0.999 . S
H1451 C1432 0.913 . S
H1452 C1470 0.951 . S
H1453 C1472 0.951 . S
H1454 C1474 0.950 . S
H1455 C1475 0.950 . S
H1456 C1477 0.950 . S
H1457 C1480 0.950 . S
H1458 C1481 0.950 . S
H1459 C1483 0.950 . S
H1460 C1484 0.950 . S
H1461 C1485 0.951 . S
H1462 C1487 0.951 . S
H1463 C1489 0.950 . S
H1464 C1490 0.950 . S
H1465 C1492 0.950 . S
H1466 C1495 0.950 . S
H1467 C1496 0.950 . S
H1468 C1498 0.950 . S
H1469 C1499 0.950 . S
C1470 H1452 0.951 . S
C1470 C1471 1.366 . S
C1470 C1472 1.388 . S
C1471 C1470 1.366 . S
C1471 C1475 1.385 . S
C1472 H1453 0.951 . S
C1472 C1470 1.388 . S
C1472 C1473 1.366 . S
C1473 C1472 1.366 . S
C1473 C1474 1.414 . S
C1473 C1476 1.499 . S
C1474 H1454 0.950 . S
C1474 C1473 1.414 . S
C1474 C1475 1.374 . S
C1475 H1455 0.950 . S
C1475 C1471 1.385 . S
C1475 C1474 1.374 . S
C1476 C1473 1.499 . S
C1476 C1477 1.373 . S
C1476 C1478 1.389 1_556 S
C1477 H1456 0.950 . S
C1477 C1476 1.373 . S
C1477 C1493 1.377 1_545 S
C1478 C1476 1.389 1_554 S
C1478 C1479 1.524 . S
C1478 C1492 1.377 . S
C1479 C1478 1.524 . S
C1479 C1480 1.397 . S
C1479 C1484 1.363 . S
C1480 H1457 0.950 . S
C1480 C1479 1.397 . S
C1480 C1481 1.334 . S
C1481 H1458 0.950 . S
C1481 C1480 1.334 . S
C1481 C1482 1.287 . S
C1482 C1481 1.287 . S
C1482 C1483 1.524 . S
C1482 H1501 0.913 . S
C1483 H1459 0.950 . S
C1483 C1482 1.524 . S
C1483 C1484 1.415 . S
C1484 H1460 0.950 . S
C1484 C1479 1.363 . S
C1484 C1483 1.415 . S
C1485 H1461 0.951 . S
C1485 C1486 1.366 . S
C1485 C1487 1.388 . S
C1486 C1485 1.366 . S
C1486 C1490 1.385 . S
C1487 H1462 0.951 . S
C1487 C1485 1.388 . S
C1487 C1488 1.366 . S
C1488 C1487 1.366 . S
C1488 C1489 1.414 . S
C1488 C1491 1.499 . S
C1489 H1463 0.950 . S
C1489 C1488 1.414 . S
C1489 C1490 1.374 . S
C1490 H1464 0.950 . S
C1490 C1486 1.385 . S
C1490 C1489 1.374 . S
C1491 C1488 1.499 . S
C1491 C1492 1.373 1_565 S
C1491 C1493 1.389 1_554 S
C1492 H1465 0.950 . S
C1492 C1478 1.377 . S
C1492 C1491 1.373 1_545 S
C1493 C1477 1.377 1_565 S
C1493 C1491 1.389 1_556 S
C1493 C1494 1.524 . S
C1494 C1493 1.524 . S
C1494 C1495 1.397 . S
C1494 C1499 1.363 . S
C1495 H1466 0.950 . S
C1495 C1494 1.397 . S
C1495 C1496 1.334 . S
C1496 H1467 0.950 . S
C1496 C1495 1.334 . S
C1496 C1497 1.287 . S
C1497 C1496 1.287 . S
C1497 C1498 1.524 . S
C1497 H1500 0.999 . S
C1498 H1468 0.950 . S
C1498 C1497 1.524 . S
C1498 C1499 1.415 . S
C1499 H1469 0.950 . S
C1499 C1494 1.363 . S
C1499 C1498 1.415 . S
H1500 C1497 0.999 . S
H1501 C1482 0.913 . S
H1502 C1520 0.951 . S
H1503 C1522 0.951 . S
H1504 C1524 0.950 . S
H1505 C1525 0.950 . S
H1506 C1527 0.950 . S
H1507 C1530 0.950 . S
H1508 C1531 0.950 . S
H1509 C1533 0.950 . S
H1510 C1534 0.950 . S
H1511 C1535 0.951 . S
H1512 C1537 0.951 . S
H1513 C1539 0.950 . S
H1514 C1540 0.950 . S
H1515 C1542 0.950 . S
H1516 C1545 0.950 . S
H1517 C1546 0.950 . S
H1518 C1548 0.950 . S
H1519 C1549 0.950 . S
C1520 H1502 0.951 . S
C1520 C1521 1.366 . S
C1520 C1522 1.388 . S
C1521 C1520 1.366 . S
C1521 C1525 1.385 . S
C1522 H1503 0.951 . S
C1522 C1520 1.388 . S
C1522 C1523 1.366 . S
C1523 C1522 1.366 . S
C1523 C1524 1.414 . S
C1523 C1526 1.499 . S
C1524 H1504 0.950 . S
C1524 C1523 1.414 . S
C1524 C1525 1.374 . S
C1525 H1505 0.950 . S
C1525 C1521 1.385 . S
C1525 C1524 1.374 . S
C1526 C1523 1.499 . S
C1526 C1527 1.373 . S
C1526 C1528 1.389 . S
C1527 H1506 0.950 . S
C1527 C1526 1.373 . S
C1527 C1543 1.377 . S
C1528 C1526 1.389 . S
C1528 C1529 1.524 . S
C1528 C1542 1.377 . S
C1529 C1528 1.524 . S
C1529 C1530 1.397 . S
C1529 C1534 1.363 . S
C1530 H1507 0.950 . S
C1530 C1529 1.397 . S
C1530 C1531 1.334 . S
C1531 H1508 0.950 . S
C1531 C1530 1.334 . S
C1531 C1532 1.287 . S
C1532 C1531 1.287 . S
C1532 C1533 1.524 . S
C1532 H1551 0.913 . S
C1533 H1509 0.950 . S
C1533 C1532 1.524 . S
C1533 C1534 1.415 . S
C1534 H1510 0.950 . S
C1534 C1529 1.363 . S
C1534 C1533 1.415 . S
C1535 H1511 0.951 . S
C1535 C1536 1.366 . S
C1535 C1537 1.388 . S
C1536 C1535 1.366 . S
C1536 C1540 1.385 . S
C1537 H1512 0.951 . S
C1537 C1535 1.388 . S
C1537 C1538 1.366 . S
C1538 C1537 1.366 . S
C1538 C1539 1.414 . S
C1538 C1541 1.499 . S
C1539 H1513 0.950 . S
C1539 C1538 1.414 . S
C1539 C1540 1.374 . S
C1540 H1514 0.950 . S
C1540 C1536 1.385 . S
C1540 C1539 1.374 . S
C1541 C1538 1.499 . S
C1541 C1542 1.373 . S
C1541 C1543 1.389 . S
C1542 H1515 0.950 . S
C1542 C1528 1.377 . S
C1542 C1541 1.373 . S
C1543 C1527 1.377 . S
C1543 C1541 1.389 . S
C1543 C1544 1.524 . S
C1544 C1543 1.524 . S
C1544 C1545 1.397 . S
C1544 C1549 1.363 . S
C1545 H1516 0.950 . S
C1545 C1544 1.397 . S
C1545 C1546 1.334 . S
C1546 H1517 0.950 . S
C1546 C1545 1.334 . S
C1546 C1547 1.287 . S
C1547 C1546 1.287 . S
C1547 C1548 1.524 . S
C1547 H1550 0.999 . S
C1548 H1518 0.950 . S
C1548 C1547 1.524 . S
C1548 C1549 1.415 . S
C1549 H1519 0.950 . S
C1549 C1544 1.363 . S
C1549 C1548 1.415 . S
H1550 C1547 0.999 . S
H1551 C1532 0.913 . S
H1552 C1570 0.951 . S
H1553 C1572 0.951 1_556 S
H1554 C1574 0.950 . S
H1555 C1575 0.950 . S
H1556 C1577 0.950 1_554 S
H1557 C1580 0.950 . S
H1558 C1581 0.950 . S
H1559 C1583 0.950 . S
H1560 C1584 0.950 . S
H1561 C1585 0.951 . S
H1562 C1587 0.951 . S
H1563 C1589 0.950 . S
H1564 C1590 0.950 . S
H1565 C1592 0.950 . S
H1566 C1595 0.950 . S
H1567 C1596 0.950 . S
H1568 C1598 0.950 . S
H1569 C1599 0.950 1_554 S
C1570 H1552 0.951 . S
C1570 C1571 1.366 . S
C1570 C1572 1.388 . S
C1571 C1570 1.366 . S
C1571 C1575 1.385 . S
C1572 H1553 0.951 1_554 S
C1572 C1570 1.388 . S
C1572 C1573 1.366 . S
C1573 C1572 1.366 . S
C1573 C1574 1.414 . S
C1573 C1576 1.499 . S
C1574 H1554 0.950 . S
C1574 C1573 1.414 . S
C1574 C1575 1.374 . S
C1575 H1555 0.950 . S
C1575 C1571 1.385 . S
C1575 C1574 1.374 . S
C1576 C1573 1.499 . S
C1576 C1577 1.373 1_554 S
C1576 C1578 1.389 1_554 S
C1577 H1556 0.950 1_556 S
C1577 C1576 1.373 1_556 S
C1577 C1593 1.377 . S
C1578 C1576 1.389 1_556 S
C1578 C1579 1.524 1_556 S
C1578 C1592 1.377 . S
C1579 C1578 1.524 1_554 S
C1579 C1580 1.397 . S
C1579 C1584 1.363 1_554 S
C1580 H1557 0.950 . S
C1580 C1579 1.397 . S
C1580 C1581 1.334 . S
C1581 H1558 0.950 . S
C1581 C1580 1.334 . S
C1581 C1582 1.287 . S
C1582 C1581 1.287 . S
C1582 C1583 1.524 1_554 S
C1582 H1601 0.913 . S
C1583 H1559 0.950 . S
C1583 C1582 1.524 1_556 S
C1583 C1584 1.415 . S
C1584 H1560 0.950 . S
C1584 C1579 1.363 1_556 S
C1584 C1583 1.415 . S
C1585 H1561 0.951 . S
C1585 C1586 1.366 . S
C1585 C1587 1.388 . S
C1586 C1585 1.366 . S
C1586 C1590 1.385 . S
C1587 H1562 0.951 . S
C1587 C1585 1.388 . S
C1587 C1588 1.366 . S
C1588 C1587 1.366 . S
C1588 C1589 1.414 . S
C1588 C1591 1.499 . S
C1589 H1563 0.950 . S
C1589 C1588 1.414 . S
C1589 C1590 1.374 . S
C1590 H1564 0.950 . S
C1590 C1586 1.385 . S
C1590 C1589 1.374 . S
C1591 C1588 1.499 . S
C1591 C1592 1.373 . S
C1591 C1593 1.389 . S
C1592 H1565 0.950 . S
C1592 C1578 1.377 . S
C1592 C1591 1.373 . S
C1593 C1577 1.377 . S
C1593 C1591 1.389 . S
C1593 C1594 1.524 . S
C1594 C1593 1.524 . S
C1594 C1595 1.397 . S
C1594 C1599 1.363 . S
C1595 H1566 0.950 . S
C1595 C1594 1.397 . S
C1595 C1596 1.334 . S
C1596 H1567 0.950 . S
C1596 C1595 1.334 . S
C1596 C1597 1.287 . S
C1597 C1596 1.287 . S
C1597 C1598 1.524 . S
C1597 H1600 0.999 . S
C1598 H1568 0.950 . S
C1598 C1597 1.524 . S
C1598 C1599 1.415 . S
C1599 H1569 0.950 1_556 S
C1599 C1594 1.363 . S
C1599 C1598 1.415 . S
H1600 C1597 0.999 . S
H1601 C1582 0.913 . S
H1602 C1620 0.951 . S
H1603 C1622 0.951 . S
H1604 C1624 0.950 . S
H1605 C1625 0.950 . S
H1606 C1627 0.950 . S
H1607 C1630 0.950 . S
H1608 C1631 0.950 . S
H1609 C1633 0.950 . S
H1610 C1634 0.950 . S
H1611 C1635 0.951 . S
H1612 C1637 0.951 . S
H1613 C1639 0.950 . S
H1614 C1640 0.950 . S
H1615 C1642 0.950 . S
H1616 C1645 0.950 . S
H1617 C1646 0.950 . S
H1618 C1648 0.950 . S
H1619 C1649 0.950 . S
C1620 H1602 0.951 . S
C1620 C1621 1.366 . S
C1620 C1622 1.388 . S
C1621 C1620 1.366 . S
C1621 C1625 1.385 . S
C1622 H1603 0.951 . S
C1622 C1620 1.388 . S
C1622 C1623 1.366 . S
C1623 C1622 1.366 . S
C1623 C1624 1.414 . S
C1623 C1626 1.499 . S
C1624 H1604 0.950 . S
C1624 C1623 1.414 . S
C1624 C1625 1.374 . S
C1625 H1605 0.950 . S
C1625 C1621 1.385 . S
C1625 C1624 1.374 . S
C1626 C1623 1.499 . S
C1626 C1627 1.373 . S
C1626 C1628 1.389 . S
C1627 H1606 0.950 . S
C1627 C1626 1.373 . S
C1627 C1643 1.377 . S
C1628 C1626 1.389 . S
C1628 C1629 1.524 . S
C1628 C1642 1.377 . S
C1629 C1628 1.524 . S
C1629 C1630 1.397 . S
C1629 C1634 1.363 . S
C1630 H1607 0.950 . S
C1630 C1629 1.397 . S
C1630 C1631 1.334 . S
C1631 H1608 0.950 . S
C1631 C1630 1.334 . S
C1631 C1632 1.287 . S
C1632 C1631 1.287 . S
C1632 C1633 1.524 . S
C1632 H1651 0.913 . S
C1633 H1609 0.950 . S
C1633 C1632 1.524 . S
C1633 C1634 1.415 . S
C1634 H1610 0.950 . S
C1634 C1629 1.363 . S
C1634 C1633 1.415 . S
C1635 H1611 0.951 . S
C1635 C1636 1.366 . S
C1635 C1637 1.388 . S
C1636 C1635 1.366 . S
C1636 C1640 1.385 . S
C1637 H1612 0.951 . S
C1637 C1635 1.388 . S
C1637 C1638 1.366 . S
C1638 C1637 1.366 . S
C1638 C1639 1.414 . S
C1638 C1641 1.499 . S
C1639 H1613 0.950 . S
C1639 C1638 1.414 . S
C1639 C1640 1.374 . S
C1640 H1614 0.950 . S
C1640 C1636 1.385 . S
C1640 C1639 1.374 . S
C1641 C1638 1.499 . S
C1641 C1642 1.373 . S
C1641 C1643 1.389 . S
C1642 H1615 0.950 . S
C1642 C1628 1.377 . S
C1642 C1641 1.373 . S
C1643 C1627 1.377 . S
C1643 C1641 1.389 . S
C1643 C1644 1.524 . S
C1644 C1643 1.524 . S
C1644 C1645 1.397 . S
C1644 C1649 1.363 . S
C1645 H1616 0.950 . S
C1645 C1644 1.397 . S
C1645 C1646 1.334 . S
C1646 H1617 0.950 . S
C1646 C1645 1.334 . S
C1646 C1647 1.287 . S
C1647 C1646 1.287 . S
C1647 C1648 1.524 . S
C1647 H1650 0.999 . S
C1648 H1618 0.950 . S
C1648 C1647 1.524 . S
C1648 C1649 1.415 . S
C1649 H1619 0.950 . S
C1649 C1644 1.363 . S
C1649 C1648 1.415 . S
H1650 C1647 0.999 . S
H1651 C1632 0.913 . S
H1652 C1670 0.951 . S
H1653 C1672 0.951 . S
H1654 C1674 0.950 . S
H1655 C1675 0.950 . S
H1656 C1677 0.950 . S
H1657 C1680 0.950 . S
H1658 C1681 0.950 . S
H1659 C1683 0.950 . S
H1660 C1684 0.950 . S
H1661 C1685 0.951 . S
H1662 C1687 0.951 . S
H1663 C1689 0.950 . S
H1664 C1690 0.950 . S
H1665 C1692 0.950 . S
H1666 C1695 0.950 . S
H1667 C1696 0.950 . S
H1668 C1698 0.950 . S
H1669 C1699 0.950 . S
C1670 H1652 0.951 . S
C1670 C1671 1.366 . S
C1670 C1672 1.388 . S
C1671 C1670 1.366 . S
C1671 C1675 1.385 . S
C1672 H1653 0.951 . S
C1672 C1670 1.388 . S
C1672 C1673 1.366 . S
C1673 C1672 1.366 . S
C1673 C1674 1.414 . S
C1673 C1676 1.499 . S
C1674 H1654 0.950 . S
C1674 C1673 1.414 . S
C1674 C1675 1.374 . S
C1675 H1655 0.950 . S
C1675 C1671 1.385 . S
C1675 C1674 1.374 . S
C1676 C1673 1.499 . S
C1676 C1677 1.373 . S
C1676 C1678 1.389 . S
C1677 H1656 0.950 . S
C1677 C1676 1.373 . S
C1677 C1693 1.377 . S
C1678 C1676 1.389 . S
C1678 C1679 1.524 . S
C1678 C1692 1.377 . S
C1679 C1678 1.524 . S
C1679 C1680 1.397 . S
C1679 C1684 1.363 . S
C1680 H1657 0.950 . S
C1680 C1679 1.397 . S
C1680 C1681 1.334 . S
C1681 H1658 0.950 . S
C1681 C1680 1.334 . S
C1681 C1682 1.287 . S
C1682 C1681 1.287 . S
C1682 C1683 1.524 . S
C1682 H1701 0.913 . S
C1683 H1659 0.950 . S
C1683 C1682 1.524 . S
C1683 C1684 1.415 . S
C1684 H1660 0.950 . S
C1684 C1679 1.363 . S
C1684 C1683 1.415 . S
C1685 H1661 0.951 . S
C1685 C1686 1.366 . S
C1685 C1687 1.388 . S
C1686 C1685 1.366 . S
C1686 C1690 1.385 . S
C1687 H1662 0.951 . S
C1687 C1685 1.388 . S
C1687 C1688 1.366 . S
C1688 C1687 1.366 . S
C1688 C1689 1.414 1_655 S
C1688 C1691 1.499 1_655 S
C1689 H1663 0.950 . S
C1689 C1688 1.414 1_455 S
C1689 C1690 1.374 1_455 S
C1690 H1664 0.950 . S
C1690 C1686 1.385 . S
C1690 C1689 1.374 1_655 S
C1691 C1688 1.499 1_455 S
C1691 C1692 1.373 . S
C1691 C1693 1.389 . S
C1692 H1665 0.950 . S
C1692 C1678 1.377 . S
C1692 C1691 1.373 . S
C1693 C1677 1.377 . S
C1693 C1691 1.389 . S
C1693 C1694 1.524 1_455 S
C1694 C1693 1.524 1_655 S
C1694 C1695 1.397 . S
C1694 C1699 1.363 . S
C1695 H1666 0.950 . S
C1695 C1694 1.397 . S
C1695 C1696 1.334 . S
C1696 H1667 0.950 . S
C1696 C1695 1.334 . S
C1696 C1697 1.287 . S
C1697 C1696 1.287 . S
C1697 C1698 1.524 . S
C1697 H1700 0.999 . S
C1698 H1668 0.950 . S
C1698 C1697 1.524 . S
C1698 C1699 1.415 . S
C1699 H1669 0.950 . S
C1699 C1694 1.363 . S
C1699 C1698 1.415 . S
H1700 C1697 0.999 . S
H1701 C1682 0.913 . S
H1702 C1720 0.951 . S
H1703 C1722 0.951 . S
H1704 C1724 0.950 . S
H1705 C1725 0.950 . S
H1706 C1727 0.950 . S
H1707 C1730 0.950 . S
H1708 C1731 0.950 . S
H1709 C1733 0.950 . S
H1710 C1734 0.950 . S
H1711 C1735 0.951 . S
H1712 C1737 0.951 . S
H1713 C1739 0.950 . S
H1714 C1740 0.950 . S
H1715 C1742 0.950 . S
H1716 C1745 0.950 . S
H1717 C1746 0.950 . S
H1718 C1748 0.950 . S
H1719 C1749 0.950 . S
C1720 H1702 0.951 . S
C1720 C1721 1.366 . S
C1720 C1722 1.388 . S
C1721 C1720 1.366 . S
C1721 C1725 1.385 . S
C1722 H1703 0.951 . S
C1722 C1720 1.388 . S
C1722 C1723 1.366 . S
C1723 C1722 1.366 . S
C1723 C1724 1.414 . S
C1723 C1726 1.499 . S
C1724 H1704 0.950 . S
C1724 C1723 1.414 . S
C1724 C1725 1.374 . S
C1725 H1705 0.950 . S
C1725 C1721 1.385 . S
C1725 C1724 1.374 . S
C1726 C1723 1.499 . S
C1726 C1727 1.373 . S
C1726 C1728 1.389 . S
C1727 H1706 0.950 . S
C1727 C1726 1.373 . S
C1727 C1743 1.377 . S
C1728 C1726 1.389 . S
C1728 C1729 1.524 . S
C1728 C1742 1.377 . S
C1729 C1728 1.524 . S
C1729 C1730 1.397 . S
C1729 C1734 1.363 . S
C1730 H1707 0.950 . S
C1730 C1729 1.397 . S
C1730 C1731 1.334 . S
C1731 H1708 0.950 . S
C1731 C1730 1.334 . S
C1731 C1732 1.287 . S
C1732 C1731 1.287 . S
C1732 C1733 1.524 . S
C1732 H1751 0.913 . S
C1733 H1709 0.950 . S
C1733 C1732 1.524 . S
C1733 C1734 1.415 . S
C1734 H1710 0.950 . S
C1734 C1729 1.363 . S
C1734 C1733 1.415 . S
C1735 H1711 0.951 . S
C1735 C1736 1.366 . S
C1735 C1737 1.388 . S
C1736 C1735 1.366 . S
C1736 C1740 1.385 . S
C1737 H1712 0.951 . S
C1737 C1735 1.388 . S
C1737 C1738 1.366 . S
C1738 C1737 1.366 . S
C1738 C1739 1.414 . S
C1738 C1741 1.499 . S
C1739 H1713 0.950 . S
C1739 C1738 1.414 . S
C1739 C1740 1.374 . S
C1740 H1714 0.950 . S
C1740 C1736 1.385 . S
C1740 C1739 1.374 . S
C1741 C1738 1.499 . S
C1741 C1742 1.373 . S
C1741 C1743 1.389 . S
C1742 H1715 0.950 . S
C1742 C1728 1.377 . S
C1742 C1741 1.373 . S
C1743 C1727 1.377 . S
C1743 C1741 1.389 . S
C1743 C1744 1.524 . S
C1744 C1743 1.524 . S
C1744 C1745 1.397 . S
C1744 C1749 1.363 . S
C1745 H1716 0.950 . S
C1745 C1744 1.397 . S
C1745 C1746 1.334 . S
C1746 H1717 0.950 . S
C1746 C1745 1.334 . S
C1746 C1747 1.287 . S
C1747 C1746 1.287 . S
C1747 C1748 1.524 . S
C1747 H1750 0.999 . S
C1748 H1718 0.950 . S
C1748 C1747 1.524 . S
C1748 C1749 1.415 . S
C1749 H1719 0.950 . S
C1749 C1744 1.363 . S
C1749 C1748 1.415 . S
H1750 C1747 0.999 . S
H1751 C1732 0.913 . S
H1752 C1770 0.951 . S
H1753 C1772 0.951 . S
H1754 C1774 0.950 . S
H1755 C1775 0.950 . S
H1756 C1777 0.950 . S
H1757 C1780 0.950 . S
H1758 C1781 0.950 . S
H1759 C1783 0.950 . S
H1760 C1784 0.950 . S
H1761 C1785 0.951 . S
H1762 C1787 0.951 . S
H1763 C1789 0.950 . S
H1764 C1790 0.950 . S
H1765 C1792 0.950 . S
H1766 C1795 0.950 . S
H1767 C1796 0.950 . S
H1768 C1798 0.950 . S
H1769 C1799 0.950 . S
C1770 H1752 0.951 . S
C1770 C1771 1.366 . S
C1770 C1772 1.388 . S
C1771 C1770 1.366 . S
C1771 C1775 1.385 . S
C1772 H1753 0.951 . S
C1772 C1770 1.388 . S
C1772 C1773 1.366 . S
C1773 C1772 1.366 . S
C1773 C1774 1.414 . S
C1773 C1776 1.499 . S
C1774 H1754 0.950 . S
C1774 C1773 1.414 . S
C1774 C1775 1.374 . S
C1775 H1755 0.950 . S
C1775 C1771 1.385 . S
C1775 C1774 1.374 . S
C1776 C1773 1.499 . S
C1776 C1777 1.373 . S
C1776 C1778 1.389 . S
C1777 H1756 0.950 . S
C1777 C1776 1.373 . S
C1777 C1793 1.377 . S
C1778 C1776 1.389 . S
C1778 C1779 1.524 . S
C1778 C1792 1.377 . S
C1779 C1778 1.524 . S
C1779 C1780 1.397 . S
C1779 C1784 1.363 . S
C1780 H1757 0.950 . S
C1780 C1779 1.397 . S
C1780 C1781 1.334 . S
C1781 H1758 0.950 . S
C1781 C1780 1.334 . S
C1781 C1782 1.287 . S
C1782 C1781 1.287 . S
C1782 C1783 1.524 . S
C1782 H1801 0.913 . S
C1783 H1759 0.950 . S
C1783 C1782 1.524 . S
C1783 C1784 1.415 . S
C1784 H1760 0.950 . S
C1784 C1779 1.363 . S
C1784 C1783 1.415 . S
C1785 H1761 0.951 . S
C1785 C1786 1.366 . S
C1785 C1787 1.388 . S
C1786 C1785 1.366 . S
C1786 C1790 1.385 . S
C1787 H1762 0.951 . S
C1787 C1785 1.388 . S
C1787 C1788 1.366 . S
C1788 C1787 1.366 . S
C1788 C1789 1.414 . S
C1788 C1791 1.499 . S
C1789 H1763 0.950 . S
C1789 C1788 1.414 . S
C1789 C1790 1.374 . S
C1790 H1764 0.950 . S
C1790 C1786 1.385 . S
C1790 C1789 1.374 . S
C1791 C1788 1.499 . S
C1791 C1792 1.373 . S
C1791 C1793 1.389 . S
C1792 H1765 0.950 . S
C1792 C1778 1.377 . S
C1792 C1791 1.373 . S
C1793 C1777 1.377 . S
C1793 C1791 1.389 . S
C1793 C1794 1.524 . S
C1794 C1793 1.524 . S
C1794 C1795 1.397 . S
C1794 C1799 1.363 . S
C1795 H1766 0.950 . S
C1795 C1794 1.397 . S
C1795 C1796 1.334 . S
C1796 H1767 0.950 . S
C1796 C1795 1.334 . S
C1796 C1797 1.287 . S
C1797 C1796 1.287 . S
C1797 C1798 1.524 . S
C1797 H1800 0.999 . S
C1798 H1768 0.950 . S
C1798 C1797 1.524 . S
C1798 C1799 1.415 . S
C1799 H1769 0.950 . S
C1799 C1794 1.363 . S
C1799 C1798 1.415 . S
H1800 C1797 0.999 . S
H1801 C1782 0.913 . S
H1802 C1820 0.951 . S
H1803 C1822 0.951 . S
H1804 C1824 0.950 . S
H1805 C1825 0.950 . S
H1806 C1827 0.950 . S
H1807 C1830 0.950 . S
H1808 C1831 0.950 . S
H1809 C1833 0.950 . S
H1810 C1834 0.950 . S
H1811 C1835 0.951 . S
H1812 C1837 0.951 . S
H1813 C1839 0.950 . S
H1814 C1840 0.950 . S
H1815 C1842 0.950 . S
H1816 C1845 0.950 . S
H1817 C1846 0.950 . S
H1818 C1848 0.950 . S
H1819 C1849 0.950 . S
C1820 H1802 0.951 . S
C1820 C1821 1.366 . S
C1820 C1822 1.388 . S
C1821 C1820 1.366 . S
C1821 C1825 1.385 . S
C1822 H1803 0.951 . S
C1822 C1820 1.388 . S
C1822 C1823 1.366 . S
C1823 C1822 1.366 . S
C1823 C1824 1.414 . S
C1823 C1826 1.499 . S
C1824 H1804 0.950 . S
C1824 C1823 1.414 . S
C1824 C1825 1.374 . S
C1825 H1805 0.950 . S
C1825 C1821 1.385 . S
C1825 C1824 1.374 . S
C1826 C1823 1.499 . S
C1826 C1827 1.373 . S
C1826 C1828 1.389 . S
C1827 H1806 0.950 . S
C1827 C1826 1.373 . S
C1827 C1843 1.377 . S
C1828 C1826 1.389 . S
C1828 C1829 1.524 . S
C1828 C1842 1.377 . S
C1829 C1828 1.524 . S
C1829 C1830 1.397 . S
C1829 C1834 1.363 . S
C1830 H1807 0.950 . S
C1830 C1829 1.397 . S
C1830 C1831 1.334 . S
C1831 H1808 0.950 . S
C1831 C1830 1.334 . S
C1831 C1832 1.287 . S
C1832 C1831 1.287 . S
C1832 C1833 1.524 . S
C1832 H1851 0.913 . S
C1833 H1809 0.950 . S
C1833 C1832 1.524 . S
C1833 C1834 1.415 . S
C1834 H1810 0.950 . S
C1834 C1829 1.363 . S
C1834 C1833 1.415 . S
C1835 H1811 0.951 . S
C1835 C1836 1.366 . S
C1835 C1837 1.388 . S
C1836 C1835 1.366 . S
C1836 C1840 1.385 . S
C1837 H1812 0.951 . S
C1837 C1835 1.388 . S
C1837 C1838 1.366 . S
C1838 C1837 1.366 . S
C1838 C1839 1.414 . S
C1838 C1841 1.499 . S
C1839 H1813 0.950 . S
C1839 C1838 1.414 . S
C1839 C1840 1.374 . S
C1840 H1814 0.950 . S
C1840 C1836 1.385 . S
C1840 C1839 1.374 . S
C1841 C1838 1.499 . S
C1841 C1842 1.373 . S
C1841 C1843 1.389 . S
C1842 H1815 0.950 . S
C1842 C1828 1.377 . S
C1842 C1841 1.373 . S
C1843 C1827 1.377 . S
C1843 C1841 1.389 . S
C1843 C1844 1.524 . S
C1844 C1843 1.524 . S
C1844 C1845 1.397 . S
C1844 C1849 1.363 . S
C1845 H1816 0.950 . S
C1845 C1844 1.397 . S
C1845 C1846 1.334 . S
C1846 H1817 0.950 . S
C1846 C1845 1.334 . S
C1846 C1847 1.287 . S
C1847 C1846 1.287 . S
C1847 C1848 1.524 . S
C1847 H1850 0.999 . S
C1848 H1818 0.950 . S
C1848 C1847 1.524 . S
C1848 C1849 1.415 . S
C1849 H1819 0.950 . S
C1849 C1844 1.363 . S
C1849 C1848 1.415 . S
H1850 C1847 0.999 . S
H1851 C1832 0.913 . S
H1852 C1870 0.951 . S
H1853 C1872 0.951 . S
H1854 C1874 0.950 . S
H1855 C1875 0.950 . S
H1856 C1877 0.950 . S
H1857 C1880 0.950 . S
H1858 C1881 0.950 . S
H1859 C1883 0.950 . S
H1860 C1884 0.950 . S
H1861 C1885 0.951 . S
H1862 C1887 0.951 . S
H1863 C1889 0.950 . S
H1864 C1890 0.950 . S
H1865 C1892 0.950 . S
H1866 C1895 0.950 . S
H1867 C1896 0.950 . S
H1868 C1898 0.950 . S
H1869 C1899 0.950 . S
C1870 H1852 0.951 . S
C1870 C1871 1.366 . S
C1870 C1872 1.388 . S
C1871 C1870 1.366 . S
C1871 C1875 1.385 . S
C1872 H1853 0.951 . S
C1872 C1870 1.388 . S
C1872 C1873 1.366 . S
C1873 C1872 1.366 . S
C1873 C1874 1.414 . S
C1873 C1876 1.499 . S
C1874 H1854 0.950 . S
C1874 C1873 1.414 . S
C1874 C1875 1.374 . S
C1875 H1855 0.950 . S
C1875 C1871 1.385 . S
C1875 C1874 1.374 . S
C1876 C1873 1.499 . S
C1876 C1877 1.373 . S
C1876 C1878 1.389 . S
C1877 H1856 0.950 . S
C1877 C1876 1.373 . S
C1877 C1893 1.377 . S
C1878 C1876 1.389 . S
C1878 C1879 1.524 . S
C1878 C1892 1.377 . S
C1879 C1878 1.524 . S
C1879 C1880 1.397 . S
C1879 C1884 1.363 . S
C1880 H1857 0.950 . S
C1880 C1879 1.397 . S
C1880 C1881 1.334 . S
C1881 H1858 0.950 . S
C1881 C1880 1.334 . S
C1881 C1882 1.287 . S
C1882 C1881 1.287 . S
C1882 C1883 1.524 . S
C1882 H1901 0.913 . S
C1883 H1859 0.950 . S
C1883 C1882 1.524 . S
C1883 C1884 1.415 . S
C1884 H1860 0.950 . S
C1884 C1879 1.363 . S
C1884 C1883 1.415 . S
C1885 H1861 0.951 . S
C1885 C1886 1.366 . S
C1885 C1887 1.388 . S
C1886 C1885 1.366 . S
C1886 C1890 1.385 . S
C1887 H1862 0.951 . S
C1887 C1885 1.388 . S
C1887 C1888 1.366 . S
C1888 C1887 1.366 . S
C1888 C1889 1.414 . S
C1888 C1891 1.499 . S
C1889 H1863 0.950 . S
C1889 C1888 1.414 . S
C1889 C1890 1.374 . S
C1890 H1864 0.950 . S
C1890 C1886 1.385 . S
C1890 C1889 1.374 . S
C1891 C1888 1.499 . S
C1891 C1892 1.373 . S
C1891 C1893 1.389 . S
C1892 H1865 0.950 . S
C1892 C1878 1.377 . S
C1892 C1891 1.373 . S
C1893 C1877 1.377 . S
C1893 C1891 1.389 . S
C1893 C1894 1.524 . S
C1894 C1893 1.524 . S
C1894 C1895 1.397 . S
C1894 C1899 1.363 . S
C1895 H1866 0.950 . S
C1895 C1894 1.397 . S
C1895 C1896 1.334 . S
C1896 H1867 0.950 . S
C1896 C1895 1.334 . S
C1896 C1897 1.287 . S
C1897 C1896 1.287 . S
C1897 C1898 1.524 . S
C1897 H1900 0.999 . S
C1898 H1868 0.950 . S
C1898 C1897 1.524 . S
C1898 C1899 1.415 . S
C1899 H1869 0.950 . S
C1899 C1894 1.363 . S
C1899 C1898 1.415 . S
H1900 C1897 0.999 . S
H1901 C1882 0.913 . S
H1902 C1920 0.951 . S
H1903 C1922 0.951 . S
H1904 C1924 0.950 1_655 S
H1905 C1925 0.950 . S
H1906 C1927 0.950 1_556 S
H1907 C1930 0.950 . S
H1908 C1931 0.950 . S
H1909 C1933 0.950 1_554 S
H1910 C1934 0.950 . S
H1911 C1935 0.951 . S
H1912 C1937 0.951 . S
H1913 C1939 0.950 . S
H1914 C1940 0.950 . S
H1915 C1942 0.950 1_455 S
H1916 C1945 0.950 . S
H1917 C1946 0.950 . S
H1918 C1948 0.950 . S
H1919 C1949 0.950 1_556 S
C1920 H1902 0.951 . S
C1920 C1921 1.366 . S
C1920 C1922 1.388 . S
C1921 C1920 1.366 . S
C1921 C1925 1.385 . S
C1922 H1903 0.951 . S
C1922 C1920 1.388 . S
C1922 C1923 1.366 . S
C1923 C1922 1.366 . S
C1923 C1924 1.414 . S
C1923 C1926 1.503 . S
C1924 H1904 0.950 1_455 S
C1924 C1923 1.414 . S
C1924 C1925 1.374 . S
C1925 H1905 0.950 . S
C1925 C1921 1.385 . S
C1925 C1924 1.374 . S
C1926 C1923 1.503 . S
C1926 C1927 1.366 1_456 S
C1926 C1928 1.394 1_556 S
C1927 H1906 0.950 1_554 S
C1927 C1926 1.366 1_654 S
C1927 C1943 1.377 . S
C1928 C1926 1.394 1_554 S
C1928 C1929 1.527 1_554 S
C1928 C1942 1.373 1_455 S
C1929 C1928 1.527 1_556 S
C1929 C1930 1.397 . S
C1929 C1934 1.363 1_556 S
C1930 H1907 0.950 . S
C1930 C1929 1.397 . S
C1930 C1931 1.334 . S
C1931 H1908 0.950 . S
C1931 C1930 1.334 . S
C1931 C1932 1.287 . S
C1932 C1931 1.287 . S
C1932 C1933 1.524 . S
C1932 H1951 0.913 . S
C1933 H1909 0.950 1_556 S
C1933 C1932 1.524 . S
C1933 C1934 1.415 1_556 S
C1934 H1910 0.950 . S
C1934 C1929 1.363 1_554 S
C1934 C1933 1.415 1_554 S
C1935 H1911 0.951 . S
C1935 C1936 1.366 . S
C1935 C1937 1.388 . S
C1936 C1935 1.366 . S
C1936 C1940 1.385 . S
C1937 H1912 0.951 . S
C1937 C1935 1.388 . S
C1937 C1938 1.366 . S
C1938 C1937 1.366 . S
C1938 C1939 1.414 . S
C1938 C1941 1.499 . S
C1939 H1913 0.950 . S
C1939 C1938 1.414 . S
C1939 C1940 1.374 . S
C1940 H1914 0.950 . S
C1940 C1936 1.385 . S
C1940 C1939 1.374 . S
C1941 C1938 1.499 . S
C1941 C1942 1.373 . S
C1941 C1943 1.389 . S
C1942 H1915 0.950 1_655 S
C1942 C1928 1.373 1_655 S
C1942 C1941 1.373 . S
C1943 C1927 1.377 . S
C1943 C1941 1.389 . S
C1943 C1944 1.524 . S
C1944 C1943 1.524 . S
C1944 C1945 1.397 . S
C1944 C1949 1.363 . S
C1945 H1916 0.950 . S
C1945 C1944 1.397 . S
C1945 C1946 1.334 . S
C1946 H1917 0.950 . S
C1946 C1945 1.334 . S
C1946 C1947 1.287 . S
C1947 C1946 1.287 . S
C1947 C1948 1.524 . S
C1947 H1950 0.999 . S
C1948 H1918 0.950 . S
C1948 C1947 1.524 . S
C1948 C1949 1.415 . S
C1949 H1919 0.950 1_554 S
C1949 C1944 1.363 . S
C1949 C1948 1.415 . S
H1950 C1947 0.999 . S
H1951 C1932 0.913 . S
H1952 C1970 0.951 . S
H1953 C1972 0.951 . S
H1954 C1974 0.950 . S
H1955 C1975 0.950 . S
H1956 C1977 0.950 . S
H1957 C1980 0.950 . S
H1958 C1981 0.950 . S
H1959 C1983 0.950 . S
H1960 C1984 0.950 . S
H1961 C1985 0.951 . S
H1962 C1987 0.951 . S
H1963 C1989 0.950 . S
H1964 C1990 0.950 . S
H1965 C1992 0.950 . S
H1966 C1995 0.950 . S
H1967 C1996 0.950 . S
H1968 C1998 0.950 . S
H1969 C1999 0.950 . S
C1970 H1952 0.951 . S
C1970 C1971 1.366 . S
C1970 C1972 1.388 . S
C1971 C1970 1.366 . S
C1971 C1975 1.385 . S
C1972 H1953 0.951 . S
C1972 C1970 1.388 . S
C1972 C1973 1.366 . S
C1973 C1972 1.366 . S
C1973 C1974 1.414 . S
C1973 C1976 1.499 . S
C1974 H1954 0.950 . S
C1974 C1973 1.414 . S
C1974 C1975 1.374 . S
C1975 H1955 0.950 . S
C1975 C1971 1.385 . S
C1975 C1974 1.374 . S
C1976 C1973 1.499 . S
C1976 C1977 1.373 1_545 S
C1976 C1978 1.389 . S
C1977 H1956 0.950 . S
C1977 C1976 1.373 1_565 S
C1977 C1993 1.377 . S
C1978 C1976 1.389 . S
C1978 C1979 1.524 . S
C1978 C1992 1.377 1_545 S
C1979 C1978 1.524 . S
C1979 C1980 1.397 . S
C1979 C1984 1.363 . S
C1980 H1957 0.950 . S
C1980 C1979 1.397 . S
C1980 C1981 1.334 . S
C1981 H1958 0.950 . S
C1981 C1980 1.334 . S
C1981 C1982 1.287 . S
C1982 C1981 1.287 . S
C1982 C1983 1.524 . S
C1982 H2001 0.913 . S
C1983 H1959 0.950 . S
C1983 C1982 1.524 . S
C1983 C1984 1.415 . S
C1984 H1960 0.950 . S
C1984 C1979 1.363 . S
C1984 C1983 1.415 . S
C1985 H1961 0.951 . S
C1985 C1986 1.366 . S
C1985 C1987 1.388 . S
C1986 C1985 1.366 . S
C1986 C1990 1.385 . S
C1987 H1962 0.951 . S
C1987 C1985 1.388 . S
C1987 C1988 1.366 . S
C1988 C1987 1.366 . S
C1988 C1989 1.414 . S
C1988 C1991 1.499 . S
C1989 H1963 0.950 . S
C1989 C1988 1.414 . S
C1989 C1990 1.374 . S
C1990 H1964 0.950 . S
C1990 C1986 1.385 . S
C1990 C1989 1.374 . S
C1991 C1988 1.499 . S
C1991 C1992 1.373 . S
C1991 C1993 1.389 . S
C1992 H1965 0.950 . S
C1992 C1978 1.377 1_565 S
C1992 C1991 1.373 . S
C1993 C1977 1.377 . S
C1993 C1991 1.389 . S
C1993 C1994 1.524 . S
C1994 C1993 1.524 . S
C1994 C1995 1.397 . S
C1994 C1999 1.363 . S
C1995 H1966 0.950 . S
C1995 C1994 1.397 . S
C1995 C1996 1.334 . S
C1996 H1967 0.950 . S
C1996 C1995 1.334 . S
C1996 C1997 1.287 . S
C1997 C1996 1.287 . S
C1997 C1998 1.524 . S
C1997 H2000 0.999 . S
C1998 H1968 0.950 . S
C1998 C1997 1.524 . S
C1998 C1999 1.415 . S
C1999 H1969 0.950 . S
C1999 C1994 1.363 . S
C1999 C1998 1.415 . S
H2000 C1997 0.999 . S
H2001 C1982 0.913 . S
H2002 C2020 0.951 . S
H2003 C2022 0.951 . S
H2004 C2024 0.950 . S
H2005 C2025 0.950 . S
H2006 C2027 0.950 . S
H2007 C2030 0.950 . S
H2008 C2031 0.950 . S
H2009 C2033 0.950 . S
H2010 C2034 0.950 . S
H2011 C2035 0.951 . S
H2012 C2037 0.951 . S
H2013 C2039 0.950 . S
H2014 C2040 0.950 . S
H2015 C2042 0.950 . S
H2016 C2045 0.950 . S
H2017 C2046 0.950 . S
H2018 C2048 0.950 . S
H2019 C2049 0.950 . S
C2020 H2002 0.951 . S
C2020 C2021 1.366 . S
C2020 C2022 1.388 . S
C2021 C2020 1.366 . S
C2021 C2025 1.385 . S
C2022 H2003 0.951 . S
C2022 C2020 1.388 . S
C2022 C2023 1.366 . S
C2023 C2022 1.366 . S
C2023 C2024 1.414 . S
C2023 C2026 1.499 . S
C2024 H2004 0.950 . S
C2024 C2023 1.414 . S
C2024 C2025 1.374 . S
C2025 H2005 0.950 . S
C2025 C2021 1.385 . S
C2025 C2024 1.374 . S
C2026 C2023 1.499 . S
C2026 C2027 1.373 . S
C2026 C2028 1.389 . S
C2027 H2006 0.950 . S
C2027 C2026 1.373 . S
C2027 C2043 1.377 . S
C2028 C2026 1.389 . S
C2028 C2029 1.524 . S
C2028 C2042 1.377 . S
C2029 C2028 1.524 . S
C2029 C2030 1.397 . S
C2029 C2034 1.363 . S
C2030 H2007 0.950 . S
C2030 C2029 1.397 . S
C2030 C2031 1.334 . S
C2031 H2008 0.950 . S
C2031 C2030 1.334 . S
C2031 C2032 1.287 . S
C2032 C2031 1.287 . S
C2032 C2033 1.524 . S
C2032 H2051 0.913 . S
C2033 H2009 0.950 . S
C2033 C2032 1.524 . S
C2033 C2034 1.415 . S
C2034 H2010 0.950 . S
C2034 C2029 1.363 . S
C2034 C2033 1.415 . S
C2035 H2011 0.951 . S
C2035 C2036 1.366 . S
C2035 C2037 1.388 . S
C2036 C2035 1.366 . S
C2036 C2040 1.385 . S
C2037 H2012 0.951 . S
C2037 C2035 1.388 . S
C2037 C2038 1.366 . S
C2038 C2037 1.366 . S
C2038 C2039 1.414 . S
C2038 C2041 1.499 . S
C2039 H2013 0.950 . S
C2039 C2038 1.414 . S
C2039 C2040 1.374 . S
C2040 H2014 0.950 . S
C2040 C2036 1.385 . S
C2040 C2039 1.374 . S
C2041 C2038 1.499 . S
C2041 C2042 1.373 . S
C2041 C2043 1.389 . S
C2042 H2015 0.950 . S
C2042 C2028 1.377 . S
C2042 C2041 1.373 . S
C2043 C2027 1.377 . S
C2043 C2041 1.389 . S
C2043 C2044 1.524 . S
C2044 C2043 1.524 . S
C2044 C2045 1.397 . S
C2044 C2049 1.363 . S
C2045 H2016 0.950 . S
C2045 C2044 1.397 . S
C2045 C2046 1.334 . S
C2046 H2017 0.950 . S
C2046 C2045 1.334 . S
C2046 C2047 1.287 . S
C2047 C2046 1.287 . S
C2047 C2048 1.524 . S
C2047 H2050 0.999 . S
C2048 H2018 0.950 . S
C2048 C2047 1.524 . S
C2048 C2049 1.415 . S
C2049 H2019 0.950 . S
C2049 C2044 1.363 . S
C2049 C2048 1.415 . S
H2050 C2047 0.999 . S
H2051 C2032 0.913 . S
H2052 C2070 0.951 . S
H2053 C2072 0.951 . S
H2054 C2074 0.950 . S
H2055 C2075 0.950 . S
H2056 C2077 0.950 . S
H2057 C2080 0.950 . S
H2058 C2081 0.950 . S
H2059 C2083 0.950 . S
H2060 C2084 0.950 . S
H2061 C2085 0.951 . S
H2062 C2087 0.951 . S
H2063 C2089 0.950 . S
H2064 C2090 0.950 . S
H2065 C2092 0.950 . S
H2066 C2095 0.950 . S
H2067 C2096 0.950 . S
H2068 C2098 0.950 . S
H2069 C2099 0.950 . S
C2070 H2052 0.951 . S
C2070 C2071 1.366 . S
C2070 C2072 1.388 . S
C2071 C2070 1.366 . S
C2071 C2075 1.385 . S
C2072 H2053 0.951 . S
C2072 C2070 1.388 . S
C2072 C2073 1.366 . S
C2073 C2072 1.366 . S
C2073 C2074 1.414 . S
C2073 C2076 1.499 . S
C2074 H2054 0.950 . S
C2074 C2073 1.414 . S
C2074 C2075 1.374 . S
C2075 H2055 0.950 . S
C2075 C2071 1.385 . S
C2075 C2074 1.374 . S
C2076 C2073 1.499 . S
C2076 C2077 1.373 . S
C2076 C2078 1.389 1_545 S
C2077 H2056 0.950 . S
C2077 C2076 1.373 . S
C2077 C2093 1.377 1_545 S
C2078 C2076 1.389 1_565 S
C2078 C2079 1.523 1_565 S
C2078 C2092 1.377 . S
C2079 C2078 1.523 1_545 S
C2079 C2080 1.430 . S
C2079 C2084 1.331 1_545 S
C2080 H2057 0.950 . S
C2080 C2079 1.430 . S
C2080 C2081 1.334 . S
C2081 H2058 0.950 . S
C2081 C2080 1.334 . S
C2081 C2082 1.287 . S
C2082 C2081 1.287 . S
C2082 C2083 1.524 1_545 S
C2082 H2101 0.913 . S
C2083 H2059 0.950 . S
C2083 C2082 1.524 1_565 S
C2083 C2084 1.415 . S
C2084 H2060 0.950 . S
C2084 C2079 1.331 1_565 S
C2084 C2083 1.415 . S
C2085 H2061 0.951 . S
C2085 C2086 1.366 . S
C2085 C2087 1.388 . S
C2086 C2085 1.366 . S
C2086 C2090 1.385 . S
C2087 H2062 0.951 . S
C2087 C2085 1.388 . S
C2087 C2088 1.366 . S
C2088 C2087 1.366 . S
C2088 C2089 1.414 . S
C2088 C2091 1.499 . S
C2089 H2063 0.950 . S
C2089 C2088 1.414 . S
C2089 C2090 1.374 . S
C2090 H2064 0.950 . S
C2090 C2086 1.385 . S
C2090 C2089 1.374 . S
C2091 C2088 1.499 . S
C2091 C2092 1.373 . S
C2091 C2093 1.389 . S
C2092 H2065 0.950 . S
C2092 C2078 1.377 . S
C2092 C2091 1.373 . S
C2093 C2077 1.377 1_565 S
C2093 C2091 1.389 . S
C2093 C2094 1.524 . S
C2094 C2093 1.524 . S
C2094 C2095 1.397 . S
C2094 C2099 1.363 1_565 S
C2095 H2066 0.950 . S
C2095 C2094 1.397 . S
C2095 C2096 1.334 . S
C2096 H2067 0.950 . S
C2096 C2095 1.334 . S
C2096 C2097 1.287 . S
C2097 C2096 1.287 . S
C2097 C2098 1.524 1_565 S
C2097 H2100 0.999 . S
C2098 H2068 0.950 . S
C2098 C2097 1.524 1_545 S
C2098 C2099 1.415 . S
C2099 H2069 0.950 . S
C2099 C2094 1.363 1_545 S
C2099 C2098 1.415 . S
H2100 C2097 0.999 . S
H2101 C2082 0.913 . S
H2102 C2120 0.951 . S
H2103 C2122 0.951 . S
H2104 C2124 0.950 . S
H2105 C2125 0.950 . S
H2106 C2127 0.950 . S
H2107 C2130 0.950 . S
H2108 C2131 0.950 . S
H2109 C2133 0.950 . S
H2110 C2134 0.950 . S
H2111 C2135 0.951 . S
H2112 C2137 0.951 . S
H2113 C2139 0.950 1_556 S
H2114 C2140 0.950 . S
H2115 C2142 0.950 . S
H2116 C2145 0.950 1_556 S
H2117 C2146 0.950 . S
H2118 C2148 0.950 . S
H2119 C2149 0.950 . S
C2120 H2102 0.951 . S
C2120 C2121 1.366 . S
C2120 C2122 1.388 . S
C2121 C2120 1.366 . S
C2121 C2125 1.385 . S
C2122 H2103 0.951 . S
C2122 C2120 1.388 . S
C2122 C2123 1.366 . S
C2123 C2122 1.366 . S
C2123 C2124 1.414 . S
C2123 C2126 1.499 . S
C2124 H2104 0.950 . S
C2124 C2123 1.414 . S
C2124 C2125 1.374 . S
C2125 H2105 0.950 . S
C2125 C2121 1.385 . S
C2125 C2124 1.374 . S
C2126 C2123 1.499 . S
C2126 C2127 1.373 . S
C2126 C2128 1.389 . S
C2127 H2106 0.950 . S
C2127 C2126 1.373 . S
C2127 C2143 1.377 . S
C2128 C2126 1.389 . S
C2128 C2129 1.524 . S
C2128 C2142 1.377 . S
C2129 C2128 1.524 . S
C2129 C2130 1.397 . S
C2129 C2134 1.363 . S
C2130 H2107 0.950 . S
C2130 C2129 1.397 . S
C2130 C2131 1.334 . S
C2131 H2108 0.950 . S
C2131 C2130 1.334 . S
C2131 C2132 1.287 . S
C2132 C2131 1.287 . S
C2132 C2133 1.524 . S
C2132 H2151 0.913 . S
C2133 H2109 0.950 . S
C2133 C2132 1.524 . S
C2133 C2134 1.415 . S
C2134 H2110 0.950 . S
C2134 C2129 1.363 . S
C2134 C2133 1.415 . S
C2135 H2111 0.951 . S
C2135 C2136 1.366 . S
C2135 C2137 1.388 . S
C2136 C2135 1.366 . S
C2136 C2140 1.385 . S
C2137 H2112 0.951 . S
C2137 C2135 1.388 . S
C2137 C2138 1.366 . S
C2138 C2137 1.366 . S
C2138 C2139 1.414 . S
C2138 C2141 1.479 1_554 S
C2139 H2113 0.950 1_554 S
C2139 C2138 1.414 . S
C2139 C2140 1.374 . S
C2140 H2114 0.950 . S
C2140 C2136 1.385 . S
C2140 C2139 1.374 . S
C2141 C2138 1.479 1_556 S
C2141 C2142 1.390 . S
C2141 C2143 1.392 . S
C2142 H2115 0.950 . S
C2142 C2128 1.377 . S
C2142 C2141 1.390 . S
C2143 C2127 1.377 . S
C2143 C2141 1.392 . S
C2143 C2144 1.524 1_556 S
C2144 C2143 1.524 1_554 S
C2144 C2145 1.397 . S
C2144 C2149 1.363 . S
C2145 H2116 0.950 1_554 S
C2145 C2144 1.397 . S
C2145 C2146 1.334 . S
C2146 H2117 0.950 . S
C2146 C2145 1.334 . S
C2146 C2147 1.287 . S
C2147 C2146 1.287 . S
C2147 C2148 1.524 . S
C2147 H2150 0.999 . S
C2148 H2118 0.950 . S
C2148 C2147 1.524 . S
C2148 C2149 1.415 . S
C2149 H2119 0.950 . S
C2149 C2144 1.363 . S
C2149 C2148 1.415 . S
H2150 C2147 0.999 . S
H2151 C2132 0.913 . S
H2152 C2170 0.951 . S
H2153 C2172 0.951 . S
H2154 C2174 0.950 . S
H2155 C2175 0.950 . S
H2156 C2177 0.950 . S
H2157 C2180 0.950 . S
H2158 C2181 0.950 . S
H2159 C2183 0.950 . S
H2160 C2184 0.950 . S
H2161 C2185 0.951 . S
H2162 C2187 0.951 . S
H2163 C2189 0.950 1_545 S
H2164 C2190 0.950 . S
H2165 C2192 0.950 . S
H2166 C2195 0.950 . S
H2167 C2196 0.950 . S
H2168 C2198 0.950 . S
H2169 C2199 0.950 . S
C2170 H2152 0.951 . S
C2170 C2171 1.366 . S
C2170 C2172 1.388 . S
C2171 C2170 1.366 . S
C2171 C2175 1.385 . S
C2172 H2153 0.951 . S
C2172 C2170 1.388 . S
C2172 C2173 1.366 . S
C2173 C2172 1.366 . S
C2173 C2174 1.414 . S
C2173 C2176 1.499 . S
C2174 H2154 0.950 . S
C2174 C2173 1.414 . S
C2174 C2175 1.374 . S
C2175 H2155 0.950 . S
C2175 C2171 1.385 . S
C2175 C2174 1.374 . S
C2176 C2173 1.499 . S
C2176 C2177 1.373 . S
C2176 C2178 1.389 . S
C2177 H2156 0.950 . S
C2177 C2176 1.373 . S
C2177 C2193 1.358 1_545 S
C2178 C2176 1.389 . S
C2178 C2179 1.524 . S
C2178 C2192 1.377 . S
C2179 C2178 1.524 . S
C2179 C2180 1.397 . S
C2179 C2184 1.363 . S
C2180 H2157 0.950 . S
C2180 C2179 1.397 . S
C2180 C2181 1.334 . S
C2181 H2158 0.950 . S
C2181 C2180 1.334 . S
C2181 C2182 1.287 . S
C2182 C2181 1.287 . S
C2182 C2183 1.524 . S
C2182 H2201 0.913 . S
C2183 H2159 0.950 . S
C2183 C2182 1.524 . S
C2183 C2184 1.415 . S
C2184 H2160 0.950 . S
C2184 C2179 1.363 . S
C2184 C2183 1.415 . S
C2185 H2161 0.951 . S
C2185 C2186 1.366 . S
C2185 C2187 1.388 . S
C2186 C2185 1.366 . S
C2186 C2190 1.385 . S
C2187 H2162 0.951 . S
C2187 C2185 1.388 . S
C2187 C2188 1.366 . S
C2188 C2187 1.366 . S
C2188 C2189 1.414 . S
C2188 C2191 1.499 1_565 S
C2189 H2163 0.950 1_565 S
C2189 C2188 1.414 . S
C2189 C2190 1.374 . S
C2190 H2164 0.950 . S
C2190 C2186 1.385 . S
C2190 C2189 1.374 . S
C2191 C2188 1.499 1_545 S
C2191 C2192 1.373 . S
C2191 C2193 1.381 1_545 S
C2192 H2165 0.950 . S
C2192 C2178 1.377 . S
C2192 C2191 1.373 . S
C2193 C2177 1.358 1_565 S
C2193 C2191 1.381 1_565 S
C2193 C2194 1.552 . S
C2194 C2193 1.552 . S
C2194 C2195 1.397 . S
C2194 C2199 1.363 . S
C2195 H2166 0.950 . S
C2195 C2194 1.397 . S
C2195 C2196 1.334 . S
C2196 H2167 0.950 . S
C2196 C2195 1.334 . S
C2196 C2197 1.287 . S
C2197 C2196 1.287 . S
C2197 C2198 1.524 . S
C2197 H2200 0.999 . S
C2198 H2168 0.950 . S
C2198 C2197 1.524 . S
C2198 C2199 1.415 . S
C2199 H2169 0.950 . S
C2199 C2194 1.363 . S
C2199 C2198 1.415 . S
H2200 C2197 0.999 . S
H2201 C2182 0.913 . S
H2202 C2220 0.951 . S
H2203 C2222 0.951 . S
H2204 C2224 0.950 . S
H2205 C2225 0.950 . S
H2206 C2227 0.950 . S
H2207 C2230 0.950 . S
H2208 C2231 0.950 . S
H2209 C2233 0.950 . S
H2210 C2234 0.950 . S
H2211 C2235 0.951 . S
H2212 C2237 0.951 . S
H2213 C2239 0.950 . S
H2214 C2240 0.950 . S
H2215 C2242 0.950 . S
H2216 C2245 0.950 . S
H2217 C2246 0.950 . S
H2218 C2248 0.950 . S
H2219 C2249 0.950 . S
C2220 H2202 0.951 . S
C2220 C2221 1.366 . S
C2220 C2222 1.388 . S
C2221 C2220 1.366 . S
C2221 C2225 1.385 . S
C2222 H2203 0.951 . S
C2222 C2220 1.388 . S
C2222 C2223 1.366 . S
C2223 C2222 1.366 . S
C2223 C2224 1.414 . S
C2223 C2226 1.499 . S
C2224 H2204 0.950 . S
C2224 C2223 1.414 . S
C2224 C2225 1.374 . S
C2225 H2205 0.950 . S
C2225 C2221 1.385 . S
C2225 C2224 1.374 . S
C2226 C2223 1.499 . S
C2226 C2227 1.373 . S
C2226 C2228 1.389 . S
C2227 H2206 0.950 . S
C2227 C2226 1.373 . S
C2227 C2243 1.377 . S
C2228 C2226 1.389 . S
C2228 C2229 1.524 . S
C2228 C2242 1.377 . S
C2229 C2228 1.524 . S
C2229 C2230 1.397 . S
C2229 C2234 1.363 . S
C2230 H2207 0.950 . S
C2230 C2229 1.397 . S
C2230 C2231 1.334 . S
C2231 H2208 0.950 . S
C2231 C2230 1.334 . S
C2231 C2232 1.287 . S
C2232 C2231 1.287 . S
C2232 C2233 1.524 . S
C2232 H2251 0.913 . S
C2233 H2209 0.950 . S
C2233 C2232 1.524 . S
C2233 C2234 1.415 . S
C2234 H2210 0.950 . S
C2234 C2229 1.363 . S
C2234 C2233 1.415 . S
C2235 H2211 0.951 . S
C2235 C2236 1.366 . S
C2235 C2237 1.388 . S
C2236 C2235 1.366 . S
C2236 C2240 1.385 . S
C2237 H2212 0.951 . S
C2237 C2235 1.388 . S
C2237 C2238 1.366 . S
C2238 C2237 1.366 . S
C2238 C2239 1.414 . S
C2238 C2241 1.499 . S
C2239 H2213 0.950 . S
C2239 C2238 1.414 . S
C2239 C2240 1.374 . S
C2240 H2214 0.950 . S
C2240 C2236 1.385 . S
C2240 C2239 1.374 . S
C2241 C2238 1.499 . S
C2241 C2242 1.373 . S
C2241 C2243 1.389 . S
C2242 H2215 0.950 . S
C2242 C2228 1.377 . S
C2242 C2241 1.373 . S
C2243 C2227 1.377 . S
C2243 C2241 1.389 . S
C2243 C2244 1.524 . S
C2244 C2243 1.524 . S
C2244 C2245 1.397 . S
C2244 C2249 1.363 . S
C2245 H2216 0.950 . S
C2245 C2244 1.397 . S
C2245 C2246 1.334 . S
C2246 H2217 0.950 . S
C2246 C2245 1.334 . S
C2246 C2247 1.287 . S
C2247 C2246 1.287 . S
C2247 C2248 1.524 . S
C2247 H2250 0.999 . S
C2248 H2218 0.950 . S
C2248 C2247 1.524 . S
C2248 C2249 1.415 . S
C2249 H2219 0.950 . S
C2249 C2244 1.363 . S
C2249 C2248 1.415 . S
H2250 C2247 0.999 . S
H2251 C2232 0.913 . S
H2252 C2270 0.951 . S
H2253 C2272 0.951 . S
H2254 C2274 0.950 . S
H2255 C2275 0.950 . S
H2256 C2277 0.950 1_545 S
H2257 C2280 0.950 . S
H2258 C2281 0.950 . S
H2259 C2283 0.950 . S
H2260 C2284 0.950 . S
H2261 C2285 0.951 . S
H2262 C2287 0.951 . S
H2263 C2289 0.950 . S
H2264 C2290 0.950 . S
H2265 C2292 0.950 . S
H2266 C2295 0.950 . S
H2267 C2296 0.950 . S
H2268 C2298 0.950 . S
H2269 C2299 0.950 . S
C2270 H2252 0.951 . S
C2270 C2271 1.366 . S
C2270 C2272 1.388 . S
C2271 C2270 1.366 . S
C2271 C2275 1.385 . S
C2272 H2253 0.951 . S
C2272 C2270 1.388 . S
C2272 C2273 1.366 . S
C2273 C2272 1.366 . S
C2273 C2274 1.414 . S
C2273 C2276 1.498 1_545 S
C2274 H2254 0.950 . S
C2274 C2273 1.414 . S
C2274 C2275 1.374 . S
C2275 H2255 0.950 . S
C2275 C2271 1.385 . S
C2275 C2274 1.374 . S
C2276 C2273 1.498 1_565 S
C2276 C2277 1.373 . S
C2276 C2278 1.390 . S
C2277 H2256 0.950 1_565 S
C2277 C2276 1.373 . S
C2277 C2293 1.377 . S
C2278 C2276 1.390 . S
C2278 C2279 1.524 . S
C2278 C2292 1.377 . S
C2279 C2278 1.524 . S
C2279 C2280 1.397 . S
C2279 C2284 1.363 . S
C2280 H2257 0.950 . S
C2280 C2279 1.397 . S
C2280 C2281 1.334 . S
C2281 H2258 0.950 . S
C2281 C2280 1.334 . S
C2281 C2282 1.287 . S
C2282 C2281 1.287 . S
C2282 C2283 1.524 . S
C2282 H2301 0.913 . S
C2283 H2259 0.950 . S
C2283 C2282 1.524 . S
C2283 C2284 1.415 . S
C2284 H2260 0.950 . S
C2284 C2279 1.363 . S
C2284 C2283 1.415 . S
C2285 H2261 0.951 . S
C2285 C2286 1.366 . S
C2285 C2287 1.388 . S
C2286 C2285 1.366 . S
C2286 C2290 1.385 . S
C2287 H2262 0.951 . S
C2287 C2285 1.388 . S
C2287 C2288 1.366 . S
C2288 C2287 1.366 . S
C2288 C2289 1.414 . S
C2288 C2291 1.499 . S
C2289 H2263 0.950 . S
C2289 C2288 1.414 . S
C2289 C2290 1.374 . S
C2290 H2264 0.950 . S
C2290 C2286 1.385 . S
C2290 C2289 1.374 . S
C2291 C2288 1.499 . S
C2291 C2292 1.373 . S
C2291 C2293 1.389 . S
C2292 H2265 0.950 . S
C2292 C2278 1.377 . S
C2292 C2291 1.373 . S
C2293 C2277 1.377 . S
C2293 C2291 1.389 . S
C2293 C2294 1.524 . S
C2294 C2293 1.524 . S
C2294 C2295 1.397 . S
C2294 C2299 1.363 . S
C2295 H2266 0.950 . S
C2295 C2294 1.397 . S
C2295 C2296 1.334 . S
C2296 H2267 0.950 . S
C2296 C2295 1.334 . S
C2296 C2297 1.287 . S
C2297 C2296 1.287 . S
C2297 C2298 1.524 . S
C2297 H2300 0.999 . S
C2298 H2268 0.950 . S
C2298 C2297 1.524 . S
C2298 C2299 1.415 . S
C2299 H2269 0.950 . S
C2299 C2294 1.363 . S
C2299 C2298 1.415 . S
H2300 C2297 0.999 . S
H2301 C2282 0.913 . S
H2302 C2320 0.951 . S
H2303 C2322 0.951 . S
H2304 C2324 0.950 1_554 S
H2305 C2325 0.950 . S
H2306 C2327 0.950 . S
H2307 C2330 0.950 . S
H2308 C2331 0.950 . S
H2309 C2333 0.950 . S
H2310 C2334 0.950 . S
H2311 C2335 0.951 . S
H2312 C2337 0.951 . S
H2313 C2339 0.950 . S
H2314 C2340 0.950 . S
H2315 C2342 0.950 . S
H2316 C2345 0.950 . S
H2317 C2346 0.950 . S
H2318 C2348 0.950 . S
H2319 C2349 0.950 . S
C2320 H2302 0.951 . S
C2320 C2321 1.366 . S
C2320 C2322 1.388 . S
C2321 C2320 1.366 . S
C2321 C2325 1.385 . S
C2322 H2303 0.951 . S
C2322 C2320 1.388 . S
C2322 C2323 1.366 . S
C2323 C2322 1.366 . S
C2323 C2324 1.414 . S
C2323 C2326 1.499 1_556 S
C2324 H2304 0.950 1_556 S
C2324 C2323 1.414 . S
C2324 C2325 1.374 . S
C2325 H2305 0.950 . S
C2325 C2321 1.385 . S
C2325 C2324 1.374 . S
C2326 C2323 1.499 1_554 S
C2326 C2327 1.373 . S
C2326 C2328 1.389 1_554 S
C2327 H2306 0.950 . S
C2327 C2326 1.373 . S
C2327 C2343 1.377 . S
C2328 C2326 1.389 1_556 S
C2328 C2329 1.524 . S
C2328 C2342 1.377 1_556 S
C2329 C2328 1.524 . S
C2329 C2330 1.397 . S
C2329 C2334 1.363 . S
C2330 H2307 0.950 . S
C2330 C2329 1.397 . S
C2330 C2331 1.334 . S
C2331 H2308 0.950 . S
C2331 C2330 1.334 . S
C2331 C2332 1.287 . S
C2332 C2331 1.287 . S
C2332 C2333 1.524 . S
C2332 H2351 0.913 . S
C2333 H2309 0.950 . S
C2333 C2332 1.524 . S
C2333 C2334 1.415 . S
C2334 H2310 0.950 . S
C2334 C2329 1.363 . S
C2334 C2333 1.415 . S
C2335 H2311 0.951 . S
C2335 C2336 1.366 . S
C2335 C2337 1.388 . S
C2336 C2335 1.366 . S
C2336 C2340 1.385 . S
C2337 H2312 0.951 . S
C2337 C2335 1.388 . S
C2337 C2338 1.366 . S
C2338 C2337 1.366 . S
C2338 C2339 1.414 . S
C2338 C2341 1.499 . S
C2339 H2313 0.950 . S
C2339 C2338 1.414 . S
C2339 C2340 1.374 . S
C2340 H2314 0.950 . S
C2340 C2336 1.385 . S
C2340 C2339 1.374 . S
C2341 C2338 1.499 . S
C2341 C2342 1.373 . S
C2341 C2343 1.389 . S
C2342 H2315 0.950 . S
C2342 C2328 1.377 1_554 S
C2342 C2341 1.373 . S
C2343 C2327 1.377 . S
C2343 C2341 1.389 . S
C2343 C2344 1.524 . S
C2344 C2343 1.524 . S
C2344 C2345 1.397 . S
C2344 C2349 1.363 . S
C2345 H2316 0.950 . S
C2345 C2344 1.397 . S
C2345 C2346 1.334 . S
C2346 H2317 0.950 . S
C2346 C2345 1.334 . S
C2346 C2347 1.287 . S
C2347 C2346 1.287 . S
C2347 C2348 1.524 . S
C2347 H2350 0.999 . S
C2348 H2318 0.950 . S
C2348 C2347 1.524 . S
C2348 C2349 1.415 . S
C2349 H2319 0.950 . S
C2349 C2344 1.363 . S
C2349 C2348 1.415 . S
H2350 C2347 0.999 . S
H2351 C2332 0.913 . S
H2352 C2370 0.951 . S
H2353 C2372 0.951 . S
H2354 C2374 0.950 . S
H2355 C2375 0.950 . S
H2356 C2377 0.950 . S
H2357 C2380 0.950 . S
H2358 C2381 0.950 . S
H2359 C2383 0.950 . S
H2360 C2384 0.950 . S
H2361 C2385 0.951 . S
H2362 C2387 0.951 . S
H2363 C2389 0.950 . S
H2364 C2390 0.950 . S
H2365 C2392 0.950 . S
H2366 C2395 0.950 . S
H2367 C2396 0.950 . S
H2368 C2398 0.950 . S
H2369 C2399 0.950 . S
C2370 H2352 0.951 . S
C2370 C2371 1.366 . S
C2370 C2372 1.388 . S
C2371 C2370 1.366 . S
C2371 C2375 1.385 . S
C2372 H2353 0.951 . S
C2372 C2370 1.388 . S
C2372 C2373 1.366 . S
C2373 C2372 1.366 . S
C2373 C2374 1.414 . S
C2373 C2376 1.499 . S
C2374 H2354 0.950 . S
C2374 C2373 1.414 . S
C2374 C2375 1.374 . S
C2375 H2355 0.950 . S
C2375 C2371 1.385 . S
C2375 C2374 1.374 . S
C2376 C2373 1.499 . S
C2376 C2377 1.373 . S
C2376 C2378 1.389 . S
C2377 H2356 0.950 . S
C2377 C2376 1.373 . S
C2377 C2393 1.377 . S
C2378 C2376 1.389 . S
C2378 C2379 1.524 . S
C2378 C2392 1.377 . S
C2379 C2378 1.524 . S
C2379 C2380 1.397 . S
C2379 C2384 1.363 . S
C2380 H2357 0.950 . S
C2380 C2379 1.397 . S
C2380 C2381 1.334 . S
C2381 H2358 0.950 . S
C2381 C2380 1.334 . S
C2381 C2382 1.287 . S
C2382 C2381 1.287 . S
C2382 C2383 1.524 . S
C2382 H2401 0.913 . S
C2383 H2359 0.950 . S
C2383 C2382 1.524 . S
C2383 C2384 1.415 . S
C2384 H2360 0.950 . S
C2384 C2379 1.363 . S
C2384 C2383 1.415 . S
C2385 H2361 0.951 . S
C2385 C2386 1.366 . S
C2385 C2387 1.388 . S
C2386 C2385 1.366 . S
C2386 C2390 1.385 . S
C2387 H2362 0.951 . S
C2387 C2385 1.388 . S
C2387 C2388 1.381 . S
C2388 C2387 1.381 . S
C2388 C2389 1.431 . S
C2388 C2391 1.469 1_455 S
C2389 H2363 0.950 . S
C2389 C2388 1.431 . S
C2389 C2390 1.374 . S
C2390 H2364 0.950 . S
C2390 C2386 1.385 . S
C2390 C2389 1.374 . S
C2391 C2388 1.469 1_655 S
C2391 C2392 1.373 . S
C2391 C2393 1.389 . S
C2392 H2365 0.950 . S
C2392 C2378 1.377 . S
C2392 C2391 1.373 . S
C2393 C2377 1.377 . S
C2393 C2391 1.389 . S
C2393 C2394 1.524 . S
C2394 C2393 1.524 . S
C2394 C2395 1.397 . S
C2394 C2399 1.363 . S
C2395 H2366 0.950 . S
C2395 C2394 1.397 . S
C2395 C2396 1.334 . S
C2396 H2367 0.950 . S
C2396 C2395 1.334 . S
C2396 C2397 1.287 . S
C2397 C2396 1.287 . S
C2397 C2398 1.524 . S
C2397 H2400 0.999 . S
C2398 H2368 0.950 . S
C2398 C2397 1.524 . S
C2398 C2399 1.415 . S
C2399 H2369 0.950 . S
C2399 C2394 1.363 . S
C2399 C2398 1.415 . S
H2400 C2397 0.999 . S
H2401 C2382 0.913 . S
H2402 C2420 0.951 . S
H2403 C2422 0.951 . S
H2404 C2424 0.950 . S
H2405 C2425 0.950 . S
H2406 C2427 0.950 . S
H2407 C2430 0.950 . S
H2408 C2431 0.950 . S
H2409 C2433 0.950 . S
H2410 C2434 0.950 . S
H2411 C2435 0.951 . S
H2412 C2437 0.951 . S
H2413 C2439 0.950 . S
H2414 C2440 0.950 . S
H2415 C2442 0.950 . S
H2416 C2445 0.950 . S
H2417 C2446 0.950 . S
H2418 C2448 0.950 . S
H2419 C2449 0.950 . S
C2420 H2402 0.951 . S
C2420 C2421 1.366 . S
C2420 C2422 1.388 . S
C2421 C2420 1.366 . S
C2421 C2425 1.385 . S
C2422 H2403 0.951 . S
C2422 C2420 1.388 . S
C2422 C2423 1.366 . S
C2423 C2422 1.366 . S
C2423 C2424 1.414 . S
C2423 C2426 1.499 . S
C2424 H2404 0.950 . S
C2424 C2423 1.414 . S
C2424 C2425 1.374 . S
C2425 H2405 0.950 . S
C2425 C2421 1.385 . S
C2425 C2424 1.374 . S
C2426 C2423 1.499 . S
C2426 C2427 1.373 . S
C2426 C2428 1.389 . S
C2427 H2406 0.950 . S
C2427 C2426 1.373 . S
C2427 C2443 1.377 . S
C2428 C2426 1.389 . S
C2428 C2429 1.524 . S
C2428 C2442 1.377 . S
C2429 C2428 1.524 . S
C2429 C2430 1.397 . S
C2429 C2434 1.363 . S
C2430 H2407 0.950 . S
C2430 C2429 1.397 . S
C2430 C2431 1.334 . S
C2431 H2408 0.950 . S
C2431 C2430 1.334 . S
C2431 C2432 1.287 . S
C2432 C2431 1.287 . S
C2432 C2433 1.524 . S
C2432 H2451 0.913 . S
C2433 H2409 0.950 . S
C2433 C2432 1.524 . S
C2433 C2434 1.415 . S
C2434 H2410 0.950 . S
C2434 C2429 1.363 . S
C2434 C2433 1.415 . S
C2435 H2411 0.951 . S
C2435 C2436 1.366 . S
C2435 C2437 1.388 . S
C2436 C2435 1.366 . S
C2436 C2440 1.385 . S
C2437 H2412 0.951 . S
C2437 C2435 1.388 . S
C2437 C2438 1.366 . S
C2438 C2437 1.366 . S
C2438 C2439 1.414 . S
C2438 C2441 1.499 . S
C2439 H2413 0.950 . S
C2439 C2438 1.414 . S
C2439 C2440 1.374 . S
C2440 H2414 0.950 . S
C2440 C2436 1.385 . S
C2440 C2439 1.374 . S
C2441 C2438 1.499 . S
C2441 C2442 1.373 . S
C2441 C2443 1.389 . S
C2442 H2415 0.950 . S
C2442 C2428 1.377 . S
C2442 C2441 1.373 . S
C2443 C2427 1.377 . S
C2443 C2441 1.389 . S
C2443 C2444 1.524 . S
C2444 C2443 1.524 . S
C2444 C2445 1.397 . S
C2444 C2449 1.363 . S
C2445 H2416 0.950 . S
C2445 C2444 1.397 . S
C2445 C2446 1.334 . S
C2446 H2417 0.950 . S
C2446 C2445 1.334 . S
C2446 C2447 1.287 . S
C2447 C2446 1.287 . S
C2447 C2448 1.524 . S
C2447 H2450 0.999 . S
C2448 H2418 0.950 . S
C2448 C2447 1.524 . S
C2448 C2449 1.415 . S
C2449 H2419 0.950 . S
C2449 C2444 1.363 . S
C2449 C2448 1.415 . S
H2450 C2447 0.999 . S
H2451 C2432 0.913 . S
H2452 C2470 0.951 . S
H2453 C2472 0.951 . S
H2454 C2474 0.950 . S
H2455 C2475 0.941 1_455 S
H2456 C2477 0.950 . S
H2457 C2480 0.950 1_455 S
H2458 C2481 0.950 . S
H2459 C2483 0.950 . S
H2460 C2484 0.950 . S
H2461 C2485 0.951 . S
H2462 C2487 0.951 . S
H2463 C2489 0.950 . S
H2464 C2490 0.950 . S
H2465 C2492 0.950 . S
H2466 C2495 0.950 . S
H2467 C2496 0.950 . S
H2468 C2498 0.950 . S
H2469 C2499 0.950 . S
C2470 H2452 0.951 . S
C2470 C2471 1.366 . S
C2470 C2472 1.388 . S
C2471 C2470 1.366 . S
C2471 C2475 1.413 . S
C2472 H2453 0.951 . S
C2472 C2470 1.388 . S
C2472 C2473 1.366 1_655 S
C2473 C2472 1.366 1_455 S
C2473 C2474 1.414 . S
C2473 C2476 1.499 . S
C2474 H2454 0.950 . S
C2474 C2473 1.414 . S
C2474 C2475 1.355 1_455 S
C2475 H2455 0.941 1_655 S
C2475 C2471 1.413 . S
C2475 C2474 1.355 1_655 S
C2476 C2473 1.499 . S
C2476 C2477 1.373 . S
C2476 C2478 1.389 . S
C2477 H2456 0.950 . S
C2477 C2476 1.373 . S
C2477 C2493 1.377 . S
C2478 C2476 1.389 . S
C2478 C2479 1.554 . S
C2478 C2492 1.377 . S
C2479 C2478 1.554 . S
C2479 C2480 1.393 1_455 S
C2479 C2484 1.341 1_455 S
C2480 H2457 0.950 1_655 S
C2480 C2479 1.393 1_655 S
C2480 C2481 1.334 . S
C2481 H2458 0.950 . S
C2481 C2480 1.334 . S
C2481 C2482 1.287 . S
C2482 C2481 1.287 . S
C2482 C2483 1.524 . S
C2482 H2501 0.913 . S
C2483 H2459 0.950 . S
C2483 C2482 1.524 . S
C2483 C2484 1.415 . S
C2484 H2460 0.950 . S
C2484 C2479 1.341 1_655 S
C2484 C2483 1.415 . S
C2485 H2461 0.951 . S
C2485 C2486 1.366 . S
C2485 C2487 1.388 . S
C2486 C2485 1.366 . S
C2486 C2490 1.385 . S
C2487 H2462 0.951 . S
C2487 C2485 1.388 . S
C2487 C2488 1.366 . S
C2488 C2487 1.366 . S
C2488 C2489 1.414 . S
C2488 C2491 1.499 . S
C2489 H2463 0.950 . S
C2489 C2488 1.414 . S
C2489 C2490 1.374 . S
C2490 H2464 0.950 . S
C2490 C2486 1.385 . S
C2490 C2489 1.374 . S
C2491 C2488 1.499 . S
C2491 C2492 1.373 . S
C2491 C2493 1.389 . S
C2492 H2465 0.950 . S
C2492 C2478 1.377 . S
C2492 C2491 1.373 . S
C2493 C2477 1.377 . S
C2493 C2491 1.389 . S
C2493 C2494 1.524 . S
C2494 C2493 1.524 . S
C2494 C2495 1.397 . S
C2494 C2499 1.363 . S
C2495 H2466 0.950 . S
C2495 C2494 1.397 . S
C2495 C2496 1.334 . S
C2496 H2467 0.950 . S
C2496 C2495 1.334 . S
C2496 C2497 1.287 . S
C2497 C2496 1.287 . S
C2497 C2498 1.524 . S
C2497 H2500 0.999 . S
C2498 H2468 0.950 . S
C2498 C2497 1.524 . S
C2498 C2499 1.415 . S
C2499 H2469 0.950 . S
C2499 C2494 1.363 . S
C2499 C2498 1.415 . S
H2500 C2497 0.999 . S
H2501 C2482 0.913 . S
H2502 C2520 0.951 . S
H2503 C2522 0.951 . S
H2504 C2524 0.950 . S
H2505 C2525 0.950 . S
H2506 C2527 0.950 1_655 S
H2507 C2530 0.950 . S
H2508 C2531 0.950 . S
H2509 C2533 0.950 . S
H2510 C2534 0.950 . S
H2511 C2535 0.951 . S
H2512 C2537 0.951 . S
H2513 C2539 0.950 . S
H2514 C2540 0.950 . S
H2515 C2542 0.950 . S
H2516 C2545 0.950 . S
H2517 C2546 0.950 . S
H2518 C2548 0.950 . S
H2519 C2549 0.950 . S
C2520 H2502 0.951 . S
C2520 C2521 1.366 . S
C2520 C2522 1.388 . S
C2521 C2520 1.366 . S
C2521 C2525 1.385 . S
C2522 H2503 0.951 . S
C2522 C2520 1.388 . S
C2522 C2523 1.366 . S
C2523 C2522 1.366 . S
C2523 C2524 1.414 . S
C2523 C2526 1.499 1_655 S
C2524 H2504 0.950 . S
C2524 C2523 1.414 . S
C2524 C2525 1.374 . S
C2525 H2505 0.950 . S
C2525 C2521 1.385 . S
C2525 C2524 1.374 . S
C2526 C2523 1.499 1_455 S
C2526 C2527 1.373 . S
C2526 C2528 1.389 . S
C2527 H2506 0.950 1_455 S
C2527 C2526 1.373 . S
C2527 C2543 1.377 . S
C2528 C2526 1.389 . S
C2528 C2529 1.524 . S
C2528 C2542 1.377 . S
C2529 C2528 1.524 . S
C2529 C2530 1.397 . S
C2529 C2534 1.363 . S
C2530 H2507 0.950 . S
C2530 C2529 1.397 . S
C2530 C2531 1.334 . S
C2531 H2508 0.950 . S
C2531 C2530 1.334 . S
C2531 C2532 1.287 . S
C2532 C2531 1.287 . S
C2532 C2533 1.524 . S
C2532 H2551 0.913 . S
C2533 H2509 0.950 . S
C2533 C2532 1.524 . S
C2533 C2534 1.415 . S
C2534 H2510 0.950 . S
C2534 C2529 1.363 . S
C2534 C2533 1.415 . S
C2535 H2511 0.951 . S
C2535 C2536 1.366 . S
C2535 C2537 1.388 . S
C2536 C2535 1.366 . S
C2536 C2540 1.385 . S
C2537 H2512 0.951 . S
C2537 C2535 1.388 . S
C2537 C2538 1.366 . S
C2538 C2537 1.366 . S
C2538 C2539 1.414 . S
C2538 C2541 1.499 . S
C2539 H2513 0.950 . S
C2539 C2538 1.414 . S
C2539 C2540 1.374 . S
C2540 H2514 0.950 . S
C2540 C2536 1.385 . S
C2540 C2539 1.374 . S
C2541 C2538 1.499 . S
C2541 C2542 1.373 . S
C2541 C2543 1.389 . S
C2542 H2515 0.950 . S
C2542 C2528 1.377 . S
C2542 C2541 1.373 . S
C2543 C2527 1.377 . S
C2543 C2541 1.389 . S
C2543 C2544 1.524 . S
C2544 C2543 1.524 . S
C2544 C2545 1.397 . S
C2544 C2549 1.363 . S
C2545 H2516 0.950 . S
C2545 C2544 1.397 . S
C2545 C2546 1.334 . S
C2546 H2517 0.950 . S
C2546 C2545 1.334 . S
C2546 C2547 1.287 . S
C2547 C2546 1.287 . S
C2547 C2548 1.524 . S
C2547 H2550 0.999 . S
C2548 H2518 0.950 . S
C2548 C2547 1.524 . S
C2548 C2549 1.415 . S
C2549 H2519 0.950 . S
C2549 C2544 1.363 . S
C2549 C2548 1.415 . S
H2550 C2547 0.999 . S
H2551 C2532 0.913 . S
H2552 C2570 0.951 . S
H2553 C2572 0.951 . S
H2554 C2574 0.950 . S
H2555 C2575 0.950 . S
H2556 C2577 0.950 . S
H2557 C2580 0.950 . S
H2558 C2581 0.950 . S
H2559 C2583 0.950 . S
H2560 C2584 0.950 . S
H2561 C2585 0.951 . S
H2562 C2587 0.951 . S
H2563 C2589 0.950 . S
H2564 C2590 0.950 . S
H2565 C2592 0.950 . S
H2566 C2595 0.950 . S
H2567 C2596 0.950 . S
H2568 C2598 0.950 . S
H2569 C2599 0.950 . S
C2570 H2552 0.951 . S
C2570 C2571 1.366 . S
C2570 C2572 1.388 . S
C2571 C2570 1.366 . S
C2571 C2575 1.385 . S
C2572 H2553 0.951 . S
C2572 C2570 1.388 . S
C2572 C2573 1.366 . S
C2573 C2572 1.366 . S
C2573 C2574 1.414 . S
C2573 C2576 1.499 . S
C2574 H2554 0.950 . S
C2574 C2573 1.414 . S
C2574 C2575 1.374 . S
C2575 H2555 0.950 . S
C2575 C2571 1.385 . S
C2575 C2574 1.374 . S
C2576 C2573 1.499 . S
C2576 C2577 1.373 . S
C2576 C2578 1.389 . S
C2577 H2556 0.950 . S
C2577 C2576 1.373 . S
C2577 C2593 1.377 . S
C2578 C2576 1.389 . S
C2578 C2579 1.524 . S
C2578 C2592 1.377 . S
C2579 C2578 1.524 . S
C2579 C2580 1.397 . S
C2579 C2584 1.363 . S
C2580 H2557 0.950 . S
C2580 C2579 1.397 . S
C2580 C2581 1.334 . S
C2581 H2558 0.950 . S
C2581 C2580 1.334 . S
C2581 C2582 1.287 . S
C2582 C2581 1.287 . S
C2582 C2583 1.524 . S
C2582 H2601 0.913 . S
C2583 H2559 0.950 . S
C2583 C2582 1.524 . S
C2583 C2584 1.415 . S
C2584 H2560 0.950 . S
C2584 C2579 1.363 . S
C2584 C2583 1.415 . S
C2585 H2561 0.951 . S
C2585 C2586 1.366 . S
C2585 C2587 1.388 . S
C2586 C2585 1.366 . S
C2586 C2590 1.385 . S
C2587 H2562 0.951 . S
C2587 C2585 1.388 . S
C2587 C2588 1.366 . S
C2588 C2587 1.366 . S
C2588 C2589 1.414 . S
C2588 C2591 1.499 . S
C2589 H2563 0.950 . S
C2589 C2588 1.414 . S
C2589 C2590 1.374 . S
C2590 H2564 0.950 . S
C2590 C2586 1.385 . S
C2590 C2589 1.374 . S
C2591 C2588 1.499 . S
C2591 C2592 1.373 . S
C2591 C2593 1.389 . S
C2592 H2565 0.950 . S
C2592 C2578 1.377 . S
C2592 C2591 1.373 . S
C2593 C2577 1.377 . S
C2593 C2591 1.389 . S
C2593 C2594 1.524 . S
C2594 C2593 1.524 . S
C2594 C2595 1.397 . S
C2594 C2599 1.363 . S
C2595 H2566 0.950 . S
C2595 C2594 1.397 . S
C2595 C2596 1.334 . S
C2596 H2567 0.950 . S
C2596 C2595 1.334 . S
C2596 C2597 1.287 . S
C2597 C2596 1.287 . S
C2597 C2598 1.524 . S
C2597 H2600 0.999 . S
C2598 H2568 0.950 . S
C2598 C2597 1.524 . S
C2598 C2599 1.415 . S
C2599 H2569 0.950 . S
C2599 C2594 1.363 . S
C2599 C2598 1.415 . S
H2600 C2597 0.999 . S
H2601 C2582 0.913 . S
H2602 C2620 0.951 . S
H2603 C2622 0.951 . S
H2604 C2624 0.950 . S
H2605 C2625 0.950 . S
H2606 C2627 0.950 . S
H2607 C2630 0.950 . S
H2608 C2631 0.950 . S
H2609 C2633 0.950 . S
H2610 C2634 0.950 . S
H2611 C2635 0.951 . S
H2612 C2637 0.951 1_655 S
H2613 C2639 0.950 . S
H2614 C2640 0.950 . S
H2615 C2642 0.950 1_455 S
H2616 C2645 0.968 . S
H2617 C2646 0.950 . S
H2618 C2648 0.950 . S
H2619 C2649 0.950 . S
C2620 H2602 0.951 . S
C2620 C2621 1.366 . S
C2620 C2622 1.388 . S
C2621 C2620 1.366 . S
C2621 C2625 1.385 . S
C2622 H2603 0.951 . S
C2622 C2620 1.388 . S
C2622 C2623 1.366 . S
C2623 C2622 1.366 . S
C2623 C2624 1.414 . S
C2623 C2626 1.499 . S
C2624 H2604 0.950 . S
C2624 C2623 1.414 . S
C2624 C2625 1.374 . S
C2625 H2605 0.950 . S
C2625 C2621 1.385 . S
C2625 C2624 1.374 . S
C2626 C2623 1.499 . S
C2626 C2627 1.373 . S
C2626 C2628 1.389 . S
C2627 H2606 0.950 . S
C2627 C2626 1.373 . S
C2627 C2643 1.377 . S
C2628 C2626 1.389 . S
C2628 C2629 1.524 . S
C2628 C2642 1.377 . S
C2629 C2628 1.524 . S
C2629 C2630 1.397 . S
C2629 C2634 1.363 1_655 S
C2630 H2607 0.950 . S
C2630 C2629 1.397 . S
C2630 C2631 1.334 . S
C2631 H2608 0.950 . S
C2631 C2630 1.334 . S
C2631 C2632 1.287 . S
C2632 C2631 1.287 . S
C2632 C2633 1.524 1_655 S
C2632 H2651 0.913 . S
C2633 H2609 0.950 . S
C2633 C2632 1.524 1_455 S
C2633 C2634 1.415 . S
C2634 H2610 0.950 . S
C2634 C2629 1.363 1_455 S
C2634 C2633 1.415 . S
C2635 H2611 0.951 . S
C2635 C2636 1.366 . S
C2635 C2637 1.388 . S
C2636 C2635 1.366 . S
C2636 C2640 1.385 . S
C2637 H2612 0.951 1_455 S
C2637 C2635 1.388 . S
C2637 C2638 1.366 . S
C2638 C2637 1.366 . S
C2638 C2639 1.414 . S
C2638 C2641 1.499 1_455 S
C2639 H2613 0.950 . S
C2639 C2638 1.414 . S
C2639 C2640 1.374 . S
C2640 H2614 0.950 . S
C2640 C2636 1.385 . S
C2640 C2639 1.374 . S
C2641 C2638 1.499 1_655 S
C2641 C2642 1.373 . S
C2641 C2643 1.389 . S
C2642 H2615 0.950 1_655 S
C2642 C2628 1.377 . S
C2642 C2641 1.373 . S
C2643 C2627 1.377 . S
C2643 C2641 1.389 . S
C2643 C2644 1.524 . S
C2644 C2643 1.524 . S
C2644 C2645 1.397 . S
C2644 C2649 1.363 . S
C2645 H2616 0.968 . S
C2645 C2644 1.397 . S
C2645 C2646 1.334 . S
C2646 H2617 0.950 . S
C2646 C2645 1.334 . S
C2646 C2647 1.287 . S
C2647 C2646 1.287 . S
C2647 C2648 1.524 . S
C2647 H2650 0.999 . S
C2648 H2618 0.950 . S
C2648 C2647 1.524 . S
C2648 C2649 1.415 . S
C2649 H2619 0.950 . S
C2649 C2644 1.363 . S
C2649 C2648 1.415 . S
H2650 C2647 0.999 . S
H2651 C2632 0.913 . S
H2652 C2670 0.951 . S
H2653 C2672 0.951 . S
H2654 C2674 0.950 . S
H2655 C2675 0.950 . S
H2656 C2677 0.950 . S
H2657 C2680 0.950 . S
H2658 C2681 0.950 . S
H2659 C2683 0.950 . S
H2660 C2684 0.950 . S
H2661 C2685 0.951 . S
H2662 C2687 0.951 . S
H2663 C2689 0.950 . S
H2664 C2690 0.950 . S
H2665 C2692 0.950 . S
H2666 C2695 0.950 . S
H2667 C2696 0.950 . S
H2668 C2698 0.950 . S
H2669 C2699 0.950 . S
C2670 H2652 0.951 . S
C2670 C2671 1.366 . S
C2670 C2672 1.388 . S
C2671 C2670 1.366 . S
C2671 C2675 1.385 . S
C2672 H2653 0.951 . S
C2672 C2670 1.388 . S
C2672 C2673 1.366 . S
C2673 C2672 1.366 . S
C2673 C2674 1.414 . S
C2673 C2676 1.499 . S
C2674 H2654 0.950 . S
C2674 C2673 1.414 . S
C2674 C2675 1.374 . S
C2675 H2655 0.950 . S
C2675 C2671 1.385 . S
C2675 C2674 1.374 . S
C2676 C2673 1.499 . S
C2676 C2677 1.373 . S
C2676 C2678 1.389 . S
C2677 H2656 0.950 . S
C2677 C2676 1.373 . S
C2677 C2693 1.377 . S
C2678 C2676 1.389 . S
C2678 C2679 1.524 . S
C2678 C2692 1.377 . S
C2679 C2678 1.524 . S
C2679 C2680 1.397 . S
C2679 C2684 1.363 . S
C2680 H2657 0.950 . S
C2680 C2679 1.397 . S
C2680 C2681 1.334 . S
C2681 H2658 0.950 . S
C2681 C2680 1.334 . S
C2681 C2682 1.287 . S
C2682 C2681 1.287 . S
C2682 C2683 1.524 . S
C2682 H2701 0.913 . S
C2683 H2659 0.950 . S
C2683 C2682 1.524 . S
C2683 C2684 1.415 . S
C2684 H2660 0.950 . S
C2684 C2679 1.363 . S
C2684 C2683 1.415 . S
C2685 H2661 0.951 . S
C2685 C2686 1.366 . S
C2685 C2687 1.388 . S
C2686 C2685 1.366 . S
C2686 C2690 1.385 . S
C2687 H2662 0.951 . S
C2687 C2685 1.388 . S
C2687 C2688 1.366 . S
C2688 C2687 1.366 . S
C2688 C2689 1.414 . S
C2688 C2691 1.499 . S
C2689 H2663 0.950 . S
C2689 C2688 1.414 . S
C2689 C2690 1.374 . S
C2690 H2664 0.950 . S
C2690 C2686 1.385 . S
C2690 C2689 1.374 . S
C2691 C2688 1.499 . S
C2691 C2692 1.373 . S
C2691 C2693 1.389 . S
C2692 H2665 0.950 . S
C2692 C2678 1.377 . S
C2692 C2691 1.373 . S
C2693 C2677 1.377 . S
C2693 C2691 1.389 . S
C2693 C2694 1.524 . S
C2694 C2693 1.524 . S
C2694 C2695 1.397 . S
C2694 C2699 1.363 . S
C2695 H2666 0.950 . S
C2695 C2694 1.397 . S
C2695 C2696 1.334 . S
C2696 H2667 0.950 . S
C2696 C2695 1.334 . S
C2696 C2697 1.287 . S
C2697 C2696 1.287 . S
C2697 C2698 1.524 . S
C2697 H2700 0.999 . S
C2698 H2668 0.950 . S
C2698 C2697 1.524 . S
C2698 C2699 1.415 . S
C2699 H2669 0.950 . S
C2699 C2694 1.363 . S
C2699 C2698 1.415 . S
H2700 C2697 0.999 . S
H2701 C2682 0.913 . S
H2702 C2720 0.951 . S
H2703 C2722 0.951 . S
H2704 C2724 0.950 . S
H2705 C2725 0.950 . S
H2706 C2727 0.950 . S
H2707 C2730 0.950 . S
H2708 C2731 0.950 . S
H2709 C2733 0.950 . S
H2710 C2734 0.950 . S
H2711 C2735 0.951 . S
H2712 C2737 0.951 . S
H2713 C2739 0.950 . S
H2714 C2740 0.950 . S
H2715 C2742 0.984 . S
H2716 C2745 0.950 . S
H2717 C2746 0.950 . S
H2718 C2748 0.950 . S
H2719 C2749 0.950 . S
C2720 H2702 0.951 . S
C2720 C2721 1.366 . S
C2720 C2722 1.388 . S
C2721 C2720 1.366 . S
C2721 C2725 1.385 . S
C2722 H2703 0.951 . S
C2722 C2720 1.388 . S
C2722 C2723 1.366 . S
C2723 C2722 1.366 . S
C2723 C2724 1.414 . S
C2723 C2726 1.499 . S
C2724 H2704 0.950 . S
C2724 C2723 1.414 . S
C2724 C2725 1.374 . S
C2725 H2705 0.950 . S
C2725 C2721 1.385 . S
C2725 C2724 1.374 . S
C2726 C2723 1.499 . S
C2726 C2727 1.373 . S
C2726 C2728 1.389 . S
C2727 H2706 0.950 . S
C2727 C2726 1.373 . S
C2727 C2743 1.377 . S
C2728 C2726 1.389 . S
C2728 C2729 1.524 . S
C2728 C2742 1.377 . S
C2729 C2728 1.524 . S
C2729 C2730 1.397 . S
C2729 C2734 1.363 . S
C2730 H2707 0.950 . S
C2730 C2729 1.397 . S
C2730 C2731 1.334 . S
C2731 H2708 0.950 . S
C2731 C2730 1.334 . S
C2731 C2732 1.287 . S
C2732 C2731 1.287 . S
C2732 C2733 1.524 1_545 S
C2732 H2751 0.913 . S
C2733 H2709 0.950 . S
C2733 C2732 1.524 1_565 S
C2733 C2734 1.415 1_565 S
C2734 H2710 0.950 . S
C2734 C2729 1.363 . S
C2734 C2733 1.415 1_545 S
C2735 H2711 0.951 . S
C2735 C2736 1.366 . S
C2735 C2737 1.388 1_565 S
C2736 C2735 1.366 . S
C2736 C2740 1.385 . S
C2737 H2712 0.951 . S
C2737 C2735 1.388 1_545 S
C2737 C2738 1.366 . S
C2738 C2737 1.366 . S
C2738 C2739 1.414 1_545 S
C2738 C2741 1.499 . S
C2739 H2713 0.950 . S
C2739 C2738 1.414 1_565 S
C2739 C2740 1.374 . S
C2740 H2714 0.950 . S
C2740 C2736 1.385 . S
C2740 C2739 1.374 . S
C2741 C2738 1.499 . S
C2741 C2742 1.373 . S
C2741 C2743 1.389 . S
C2742 H2715 0.984 . S
C2742 C2728 1.377 . S
C2742 C2741 1.373 . S
C2743 C2727 1.377 . S
C2743 C2741 1.389 . S
C2743 C2744 1.524 . S
C2744 C2743 1.524 . S
C2744 C2745 1.397 . S
C2744 C2749 1.363 . S
C2745 H2716 0.950 . S
C2745 C2744 1.397 . S
C2745 C2746 1.334 . S
C2746 H2717 0.950 . S
C2746 C2745 1.334 . S
C2746 C2747 1.287 . S
C2747 C2746 1.287 . S
C2747 C2748 1.524 . S
C2747 H2750 0.999 . S
C2748 H2718 0.950 . S
C2748 C2747 1.524 . S
C2748 C2749 1.415 . S
C2749 H2719 0.950 . S
C2749 C2744 1.363 . S
C2749 C2748 1.415 . S
H2750 C2747 0.999 . S
H2751 C2732 0.913 . S
H2752 C2770 0.951 . S
H2753 C2772 0.951 . S
H2754 C2774 0.950 . S
H2755 C2775 0.950 . S
H2756 C2777 0.950 . S
H2757 C2780 0.950 . S
H2758 C2781 0.950 . S
H2759 C2783 0.950 . S
H2760 C2784 0.950 . S
H2761 C2785 0.951 . S
H2762 C2787 0.951 . S
H2763 C2789 0.950 . S
H2764 C2790 0.950 . S
H2765 C2792 0.950 . S
H2766 C2795 0.950 . S
H2767 C2796 0.950 . S
H2768 C2798 0.950 . S
H2769 C2799 0.950 . S
C2770 H2752 0.951 . S
C2770 C2771 1.366 . S
C2770 C2772 1.388 . S
C2771 C2770 1.366 . S
C2771 C2775 1.385 . S
C2772 H2753 0.951 . S
C2772 C2770 1.388 . S
C2772 C2773 1.366 . S
C2773 C2772 1.366 . S
C2773 C2774 1.414 . S
C2773 C2776 1.499 . S
C2774 H2754 0.950 . S
C2774 C2773 1.414 . S
C2774 C2775 1.374 . S
C2775 H2755 0.950 . S
C2775 C2771 1.385 . S
C2775 C2774 1.374 . S
C2776 C2773 1.499 . S
C2776 C2777 1.373 . S
C2776 C2778 1.389 . S
C2777 H2756 0.950 . S
C2777 C2776 1.373 . S
C2777 C2793 1.377 . S
C2778 C2776 1.389 . S
C2778 C2779 1.524 . S
C2778 C2792 1.377 . S
C2779 C2778 1.524 . S
C2779 C2780 1.397 . S
C2779 C2784 1.363 . S
C2780 H2757 0.950 . S
C2780 C2779 1.397 . S
C2780 C2781 1.334 . S
C2781 H2758 0.950 . S
C2781 C2780 1.334 . S
C2781 C2782 1.287 . S
C2782 C2781 1.287 . S
C2782 C2783 1.524 . S
C2782 H2801 0.913 . S
C2783 H2759 0.950 . S
C2783 C2782 1.524 . S
C2783 C2784 1.415 . S
C2784 H2760 0.950 . S
C2784 C2779 1.363 . S
C2784 C2783 1.415 . S
C2785 H2761 0.951 . S
C2785 C2786 1.366 . S
C2785 C2787 1.388 . S
C2786 C2785 1.366 . S
C2786 C2790 1.385 . S
C2787 H2762 0.951 . S
C2787 C2785 1.388 . S
C2787 C2788 1.366 . S
C2788 C2787 1.366 . S
C2788 C2789 1.414 . S
C2788 C2791 1.499 . S
C2789 H2763 0.950 . S
C2789 C2788 1.414 . S
C2789 C2790 1.374 . S
C2790 H2764 0.950 . S
C2790 C2786 1.385 . S
C2790 C2789 1.374 . S
C2791 C2788 1.499 . S
C2791 C2792 1.373 . S
C2791 C2793 1.389 . S
C2792 H2765 0.950 . S
C2792 C2778 1.377 . S
C2792 C2791 1.373 . S
C2793 C2777 1.377 . S
C2793 C2791 1.389 . S
C2793 C2794 1.524 . S
C2794 C2793 1.524 . S
C2794 C2795 1.397 . S
C2794 C2799 1.363 . S
C2795 H2766 0.950 . S
C2795 C2794 1.397 . S
C2795 C2796 1.334 . S
C2796 H2767 0.950 . S
C2796 C2795 1.334 . S
C2796 C2797 1.287 . S
C2797 C2796 1.287 . S
C2797 C2798 1.524 . S
C2797 H2800 0.999 . S
C2798 H2768 0.950 . S
C2798 C2797 1.524 . S
C2798 C2799 1.415 . S
C2799 H2769 0.950 . S
C2799 C2794 1.363 . S
C2799 C2798 1.415 . S
H2800 C2797 0.999 . S
H2801 C2782 0.913 . S
H2802 C2820 0.951 . S
H2803 C2822 0.951 . S
H2804 C2824 0.950 . S
H2805 C2825 0.950 . S
H2806 C2827 0.950 . S
H2807 C2830 0.950 . S
H2808 C2831 0.950 . S
H2809 C2833 0.950 . S
H2810 C2834 0.950 . S
H2811 C2835 0.951 . S
H2812 C2837 0.951 . S
H2813 C2839 0.950 . S
H2814 C2840 0.950 . S
H2815 C2842 0.950 . S
H2816 C2845 0.950 1_545 S
H2817 C2846 0.913 1_545 S
H2818 C2848 0.950 . S
H2819 C2849 0.950 . S
C2820 H2802 0.951 . S
C2820 C2821 1.366 . S
C2820 C2822 1.388 . S
C2821 C2820 1.366 . S
C2821 C2825 1.385 . S
C2822 H2803 0.951 . S
C2822 C2820 1.388 . S
C2822 C2823 1.366 . S
C2823 C2822 1.366 . S
C2823 C2824 1.414 . S
C2823 C2826 1.499 . S
C2824 H2804 0.950 . S
C2824 C2823 1.414 . S
C2824 C2825 1.374 . S
C2825 H2805 0.950 . S
C2825 C2821 1.385 . S
C2825 C2824 1.374 . S
C2826 C2823 1.499 . S
C2826 C2827 1.373 . S
C2826 C2828 1.389 . S
C2827 H2806 0.950 . S
C2827 C2826 1.373 . S
C2827 C2843 1.377 . S
C2828 C2826 1.389 . S
C2828 C2829 1.524 . S
C2828 C2842 1.377 . S
C2829 C2828 1.524 . S
C2829 C2830 1.397 . S
C2829 C2834 1.363 . S
C2830 H2807 0.950 . S
C2830 C2829 1.397 . S
C2830 C2831 1.334 . S
C2831 H2808 0.950 . S
C2831 C2830 1.334 . S
C2831 C2832 1.287 . S
C2832 C2831 1.287 . S
C2832 C2833 1.524 . S
C2832 H2851 0.913 . S
C2833 H2809 0.950 . S
C2833 C2832 1.524 . S
C2833 C2834 1.415 . S
C2834 H2810 0.950 . S
C2834 C2829 1.363 . S
C2834 C2833 1.415 . S
C2835 H2811 0.951 . S
C2835 C2836 1.366 . S
C2835 C2837 1.388 1_545 S
C2836 C2835 1.366 . S
C2836 C2840 1.385 . S
C2837 H2812 0.951 . S
C2837 C2835 1.388 1_565 S
C2837 C2838 1.366 1_565 S
C2838 C2837 1.366 1_545 S
C2838 C2839 1.414 . S
C2838 C2841 1.499 1_545 S
C2839 H2813 0.950 . S
C2839 C2838 1.414 . S
C2839 C2840 1.374 . S
C2840 H2814 0.950 . S
C2840 C2836 1.385 . S
C2840 C2839 1.374 . S
C2841 C2838 1.499 1_565 S
C2841 C2842 1.373 . S
C2841 C2843 1.389 . S
C2842 H2815 0.950 . S
C2842 C2828 1.377 . S
C2842 C2841 1.373 . S
C2843 C2827 1.377 . S
C2843 C2841 1.389 . S
C2843 C2844 1.524 . S
C2844 C2843 1.524 . S
C2844 C2845 1.397 . S
C2844 C2849 1.363 . S
C2845 H2816 0.950 1_565 S
C2845 C2844 1.397 . S
C2845 C2846 1.343 . S
C2846 H2817 0.913 1_565 S
C2846 C2845 1.343 . S
C2846 C2847 1.317 . S
C2847 C2846 1.317 . S
C2847 C2848 1.524 . S
C2847 H2850 0.999 . S
C2848 H2818 0.950 . S
C2848 C2847 1.524 . S
C2848 C2849 1.415 . S
C2849 H2819 0.950 . S
C2849 C2844 1.363 . S
C2849 C2848 1.415 . S
H2850 C2847 0.999 . S
H2851 C2832 0.913 . S
H2852 C2870 0.951 . S
H2853 C2872 0.951 . S
H2854 C2874 0.950 . S
H2855 C2875 0.950 . S
H2856 C2877 0.950 . S
H2857 C2880 0.950 . S
H2858 C2881 0.950 . S
H2859 C2883 0.950 . S
H2860 C2884 0.950 . S
H2861 C2885 0.951 . S
H2862 C2887 0.951 . S
H2863 C2889 0.950 . S
H2864 C2890 0.950 . S
H2865 C2892 0.950 . S
H2866 C2895 0.950 . S
H2867 C2896 0.950 . S
H2868 C2898 0.950 . S
H2869 C2899 0.950 . S
C2870 H2852 0.951 . S
C2870 C2871 1.366 . S
C2870 C2872 1.388 . S
C2871 C2870 1.366 . S
C2871 C2875 1.385 . S
C2872 H2853 0.951 . S
C2872 C2870 1.388 . S
C2872 C2873 1.366 . S
C2873 C2872 1.366 . S
C2873 C2874 1.414 . S
C2873 C2876 1.499 . S
C2874 H2854 0.950 . S
C2874 C2873 1.414 . S
C2874 C2875 1.374 . S
C2875 H2855 0.950 . S
C2875 C2871 1.385 . S
C2875 C2874 1.374 . S
C2876 C2873 1.499 . S
C2876 C2877 1.373 . S
C2876 C2878 1.389 1_556 S
C2877 H2856 0.950 . S
C2877 C2876 1.373 . S
C2877 C2893 1.377 1_556 S
C2878 C2876 1.389 1_554 S
C2878 C2879 1.524 . S
C2878 C2892 1.377 . S
C2879 C2878 1.524 . S
C2879 C2880 1.397 1_554 S
C2879 C2884 1.363 . S
C2880 H2857 0.950 . S
C2880 C2879 1.397 1_556 S
C2880 C2881 1.334 . S
C2881 H2858 0.950 . S
C2881 C2880 1.334 . S
C2881 C2882 1.287 . S
C2882 C2881 1.287 . S
C2882 C2883 1.524 1_556 S
C2882 H2901 0.913 . S
C2883 H2859 0.950 . S
C2883 C2882 1.524 1_554 S
C2883 C2884 1.415 . S
C2884 H2860 0.950 . S
C2884 C2879 1.363 . S
C2884 C2883 1.415 . S
C2885 H2861 0.951 . S
C2885 C2886 1.366 . S
C2885 C2887 1.388 . S
C2886 C2885 1.366 . S
C2886 C2890 1.385 . S
C2887 H2862 0.951 . S
C2887 C2885 1.388 . S
C2887 C2888 1.366 . S
C2888 C2887 1.366 . S
C2888 C2889 1.414 . S
C2888 C2891 1.499 . S
C2889 H2863 0.950 . S
C2889 C2888 1.414 . S
C2889 C2890 1.374 . S
C2890 H2864 0.950 . S
C2890 C2886 1.385 . S
C2890 C2889 1.374 . S
C2891 C2888 1.499 . S
C2891 C2892 1.373 . S
C2891 C2893 1.389 . S
C2892 H2865 0.950 . S
C2892 C2878 1.377 . S
C2892 C2891 1.373 . S
C2893 C2877 1.377 1_554 S
C2893 C2891 1.389 . S
C2893 C2894 1.524 . S
C2894 C2893 1.524 . S
C2894 C2895 1.397 . S
C2894 C2899 1.363 1_554 S
C2895 H2866 0.950 . S
C2895 C2894 1.397 . S
C2895 C2896 1.334 . S
C2896 H2867 0.950 . S
C2896 C2895 1.334 . S
C2896 C2897 1.287 . S
C2897 C2896 1.287 . S
C2897 C2898 1.524 1_554 S
C2897 H2900 0.999 . S
C2898 H2868 0.950 . S
C2898 C2897 1.524 1_556 S
C2898 C2899 1.415 . S
C2899 H2869 0.950 . S
C2899 C2894 1.363 1_556 S
C2899 C2898 1.415 . S
H2900 C2897 0.999 . S
H2901 C2882 0.913 . S
H2902 C2920 0.951 . S
H2903 C2922 0.955 1_565 S
H2904 C2924 0.950 . S
H2905 C2925 0.950 . S
H2906 C2927 0.950 . S
H2907 C2930 0.950 . S
H2908 C2931 0.950 . S
H2909 C2933 0.950 . S
H2910 C2934 0.950 . S
H2911 C2935 0.951 . S
H2912 C2937 0.951 . S
H2913 C2939 0.950 . S
H2914 C2940 0.950 . S
H2915 C2942 0.950 . S
H2916 C2945 0.950 . S
H2917 C2946 0.950 . S
H2918 C2948 0.950 1_545 S
H2919 C2949 0.950 . S
C2920 H2902 0.951 . S
C2920 C2921 1.366 . S
C2920 C2922 1.388 . S
C2921 C2920 1.366 . S
C2921 C2925 1.385 . S
C2922 H2903 0.955 1_545 S
C2922 C2920 1.388 . S
C2922 C2923 1.366 . S
C2923 C2922 1.366 . S
C2923 C2924 1.414 . S
C2923 C2926 1.499 . S
C2924 H2904 0.950 . S
C2924 C2923 1.414 . S
C2924 C2925 1.374 . S
C2925 H2905 0.950 . S
C2925 C2921 1.385 . S
C2925 C2924 1.374 . S
C2926 C2923 1.499 . S
C2926 C2927 1.373 . S
C2926 C2928 1.389 1_545 S
C2927 H2906 0.950 . S
C2927 C2926 1.373 . S
C2927 C2943 1.377 1_545 S
C2928 C2926 1.389 1_565 S
C2928 C2929 1.524 . S
C2928 C2942 1.377 . S
C2929 C2928 1.524 . S
C2929 C2930 1.397 1_565 S
C2929 C2934 1.363 . S
C2930 H2907 0.950 . S
C2930 C2929 1.397 1_545 S
C2930 C2931 1.334 . S
C2931 H2908 0.950 . S
C2931 C2930 1.334 . S
C2931 C2932 1.287 1_545 S
C2932 C2931 1.287 1_565 S
C2932 C2933 1.524 . S
C2932 H2951 0.905 1_565 S
C2933 H2909 0.950 . S
C2933 C2932 1.524 . S
C2933 C2934 1.415 . S
C2934 H2910 0.950 . S
C2934 C2929 1.363 . S
C2934 C2933 1.415 . S
C2935 H2911 0.951 . S
C2935 C2936 1.366 . S
C2935 C2937 1.388 . S
C2936 C2935 1.366 . S
C2936 C2940 1.385 . S
C2937 H2912 0.951 . S
C2937 C2935 1.388 . S
C2937 C2938 1.366 . S
C2938 C2937 1.366 . S
C2938 C2939 1.414 . S
C2938 C2941 1.499 . S
C2939 H2913 0.950 . S
C2939 C2938 1.414 . S
C2939 C2940 1.374 . S
C2940 H2914 0.950 . S
C2940 C2936 1.385 . S
C2940 C2939 1.374 . S
C2941 C2938 1.499 . S
C2941 C2942 1.373 . S
C2941 C2943 1.389 . S
C2942 H2915 0.950 . S
C2942 C2928 1.377 . S
C2942 C2941 1.373 . S
C2943 C2927 1.377 1_565 S
C2943 C2941 1.389 . S
C2943 C2944 1.524 . S
C2944 C2943 1.524 . S
C2944 C2945 1.397 . S
C2944 C2949 1.363 1_565 S
C2945 H2916 0.950 . S
C2945 C2944 1.397 . S
C2945 C2946 1.334 . S
C2946 H2917 0.950 . S
C2946 C2945 1.334 . S
C2946 C2947 1.287 . S
C2947 C2946 1.287 . S
C2947 C2948 1.524 . S
C2947 H2950 0.999 . S
C2948 H2918 0.950 1_565 S
C2948 C2947 1.524 . S
C2948 C2949 1.415 1_565 S
C2949 H2919 0.950 . S
C2949 C2944 1.363 1_545 S
C2949 C2948 1.415 1_545 S
H2950 C2947 0.999 . S
H2951 C2932 0.905 1_545 S
H2952 C2970 0.951 . S
H2953 C2972 0.951 . S
H2954 C2974 0.950 . S
H2955 C2975 0.950 . S
H2956 C2977 0.950 . S
H2957 C2980 0.950 . S
H2958 C2981 0.950 . S
H2959 C2983 0.950 . S
H2960 C2984 0.950 . S
H2961 C2985 0.951 . S
H2962 C2987 0.951 . S
H2963 C2989 0.950 . S
H2964 C2990 0.950 . S
H2965 C2992 0.950 . S
H2966 C2995 0.950 . S
H2967 C2996 0.950 . S
H2968 C2998 0.950 . S
H2969 C2999 0.950 . S
C2970 H2952 0.951 . S
C2970 C2971 1.366 . S
C2970 C2972 1.388 . S
C2971 C2970 1.366 . S
C2971 C2975 1.385 . S
C2972 H2953 0.951 . S
C2972 C2970 1.388 . S
C2972 C2973 1.366 . S
C2973 C2972 1.366 . S
C2973 C2974 1.414 . S
C2973 C2976 1.499 . S
C2974 H2954 0.950 . S
C2974 C2973 1.414 . S
C2974 C2975 1.374 . S
C2975 H2955 0.950 . S
C2975 C2971 1.385 . S
C2975 C2974 1.374 . S
C2976 C2973 1.499 . S
C2976 C2977 1.373 . S
C2976 C2978 1.389 . S
C2977 H2956 0.950 . S
C2977 C2976 1.373 . S
C2977 C2993 1.377 . S
C2978 C2976 1.389 . S
C2978 C2979 1.524 . S
C2978 C2992 1.377 . S
C2979 C2978 1.524 . S
C2979 C2980 1.397 . S
C2979 C2984 1.363 . S
C2980 H2957 0.950 . S
C2980 C2979 1.397 . S
C2980 C2981 1.334 . S
C2981 H2958 0.950 . S
C2981 C2980 1.334 . S
C2981 C2982 1.287 . S
C2982 C2981 1.287 . S
C2982 C2983 1.524 . S
C2982 H3001 0.913 . S
C2983 H2959 0.950 . S
C2983 C2982 1.524 . S
C2983 C2984 1.415 . S
C2984 H2960 0.950 . S
C2984 C2979 1.363 . S
C2984 C2983 1.415 . S
C2985 H2961 0.951 . S
C2985 C2986 1.366 . S
C2985 C2987 1.388 . S
C2986 C2985 1.366 . S
C2986 C2990 1.385 . S
C2987 H2962 0.951 . S
C2987 C2985 1.388 . S
C2987 C2988 1.366 . S
C2988 C2987 1.366 . S
C2988 C2989 1.414 . S
C2988 C2991 1.499 . S
C2989 H2963 0.950 . S
C2989 C2988 1.414 . S
C2989 C2990 1.374 . S
C2990 H2964 0.950 . S
C2990 C2986 1.385 . S
C2990 C2989 1.374 . S
C2991 C2988 1.499 . S
C2991 C2992 1.373 . S
C2991 C2993 1.389 . S
C2992 H2965 0.950 . S
C2992 C2978 1.377 . S
C2992 C2991 1.373 . S
C2993 C2977 1.377 . S
C2993 C2991 1.389 . S
C2993 C2994 1.524 . S
C2994 C2993 1.524 . S
C2994 C2995 1.397 . S
C2994 C2999 1.363 . S
C2995 H2966 0.950 . S
C2995 C2994 1.397 . S
C2995 C2996 1.334 . S
C2996 H2967 0.950 . S
C2996 C2995 1.334 . S
C2996 C2997 1.287 . S
C2997 C2996 1.287 . S
C2997 C2998 1.524 . S
C2997 H3000 0.999 . S
C2998 H2968 0.950 . S
C2998 C2997 1.524 . S
C2998 C2999 1.415 . S
C2999 H2969 0.950 . S
C2999 C2994 1.363 . S
C2999 C2998 1.415 . S
H3000 C2997 0.999 . S
H3001 C2982 0.913 . S
H3002 C3020 0.951 . S
H3003 C3022 0.951 . S
H3004 C3024 0.950 1_545 S
H3005 C3025 0.950 . S
H3006 C3027 0.950 . S
H3007 C3030 0.950 . S
H3008 C3031 0.950 . S
H3009 C3033 0.950 . S
H3010 C3034 0.950 . S
H3011 C3035 0.951 . S
H3012 C3037 0.951 . S
H3013 C3039 0.950 . S
H3014 C3040 0.950 . S
H3015 C3042 0.950 . S
H3016 C3045 0.950 . S
H3017 C3046 0.950 . S
H3018 C3048 0.950 . S
H3019 C3049 0.950 . S
C3020 H3002 0.951 . S
C3020 C3021 1.366 . S
C3020 C3022 1.388 . S
C3021 C3020 1.366 . S
C3021 C3025 1.385 . S
C3022 H3003 0.951 . S
C3022 C3020 1.388 . S
C3022 C3023 1.366 . S
C3023 C3022 1.366 . S
C3023 C3024 1.414 . S
C3023 C3026 1.489 1_565 S
C3024 H3004 0.950 1_565 S
C3024 C3023 1.414 . S
C3024 C3025 1.374 . S
C3025 H3005 0.950 . S
C3025 C3021 1.385 . S
C3025 C3024 1.374 . S
C3026 C3023 1.489 1_545 S
C3026 C3027 1.383 . S
C3026 C3028 1.389 . S
C3027 H3006 0.950 . S
C3027 C3026 1.383 . S
C3027 C3043 1.377 . S
C3028 C3026 1.389 . S
C3028 C3029 1.523 1_545 S
C3028 C3042 1.378 . S
C3029 C3028 1.523 1_565 S
C3029 C3030 1.397 . S
C3029 C3034 1.363 . S
C3030 H3007 0.950 . S
C3030 C3029 1.397 . S
C3030 C3031 1.334 . S
C3031 H3008 0.950 . S
C3031 C3030 1.334 . S
C3031 C3032 1.287 . S
C3032 C3031 1.287 . S
C3032 C3033 1.524 . S
C3032 H3051 0.913 . S
C3033 H3009 0.950 . S
C3033 C3032 1.524 . S
C3033 C3034 1.415 . S
C3034 H3010 0.950 . S
C3034 C3029 1.363 . S
C3034 C3033 1.415 . S
C3035 H3011 0.951 . S
C3035 C3036 1.366 . S
C3035 C3037 1.388 . S
C3036 C3035 1.366 . S
C3036 C3040 1.385 . S
C3037 H3012 0.951 . S
C3037 C3035 1.388 . S
C3037 C3038 1.366 . S
C3038 C3037 1.366 . S
C3038 C3039 1.414 . S
C3038 C3041 1.499 . S
C3039 H3013 0.950 . S
C3039 C3038 1.414 . S
C3039 C3040 1.374 . S
C3040 H3014 0.950 . S
C3040 C3036 1.385 . S
C3040 C3039 1.374 . S
C3041 C3038 1.499 . S
C3041 C3042 1.373 . S
C3041 C3043 1.389 . S
C3042 H3015 0.950 . S
C3042 C3028 1.378 . S
C3042 C3041 1.373 . S
C3043 C3027 1.377 . S
C3043 C3041 1.389 . S
C3043 C3044 1.524 . S
C3044 C3043 1.524 . S
C3044 C3045 1.397 . S
C3044 C3049 1.363 . S
C3045 H3016 0.950 . S
C3045 C3044 1.397 . S
C3045 C3046 1.334 . S
C3046 H3017 0.950 . S
C3046 C3045 1.334 . S
C3046 C3047 1.287 . S
C3047 C3046 1.287 . S
C3047 C3048 1.524 . S
C3047 H3050 0.999 . S
C3048 H3018 0.950 . S
C3048 C3047 1.524 . S
C3048 C3049 1.415 . S
C3049 H3019 0.950 . S
C3049 C3044 1.363 . S
C3049 C3048 1.415 . S
H3050 C3047 0.999 . S
H3051 C3032 0.913 . S
H3052 C3070 0.951 . S
H3053 C3072 0.951 . S
H3054 C3074 0.950 1_556 S
H3055 C3075 0.950 . S
H3056 C3077 0.950 . S
H3057 C3080 0.950 . S
H3058 C3081 0.950 . S
H3059 C3083 0.950 . S
H3060 C3084 0.950 . S
H3061 C3085 0.951 . S
H3062 C3087 0.951 . S
H3063 C3089 0.950 . S
H3064 C3090 0.950 . S
H3065 C3092 0.950 . S
H3066 C3095 0.950 . S
H3067 C3096 0.950 . S
H3068 C3098 0.950 . S
H3069 C3099 0.950 . S
C3070 H3052 0.951 . S
C3070 C3071 1.366 . S
C3070 C3072 1.388 . S
C3071 C3070 1.366 . S
C3071 C3075 1.385 . S
C3072 H3053 0.951 . S
C3072 C3070 1.388 . S
C3072 C3073 1.366 . S
C3073 C3072 1.366 . S
C3073 C3074 1.414 . S
C3073 C3076 1.499 1_554 S
C3074 H3054 0.950 1_554 S
C3074 C3073 1.414 . S
C3074 C3075 1.374 . S
C3075 H3055 0.950 . S
C3075 C3071 1.385 . S
C3075 C3074 1.374 . S
C3076 C3073 1.499 1_556 S
C3076 C3077 1.373 . S
C3076 C3078 1.389 . S
C3077 H3056 0.950 . S
C3077 C3076 1.373 . S
C3077 C3093 1.377 . S
C3078 C3076 1.389 . S
C3078 C3079 1.524 . S
C3078 C3092 1.377 . S
C3079 C3078 1.524 . S
C3079 C3080 1.397 . S
C3079 C3084 1.363 1_556 S
C3080 H3057 0.950 . S
C3080 C3079 1.397 . S
C3080 C3081 1.334 . S
C3081 H3058 0.950 . S
C3081 C3080 1.334 . S
C3081 C3082 1.287 1_556 S
C3082 C3081 1.287 1_554 S
C3082 C3083 1.524 . S
C3082 H3101 0.913 . S
C3083 H3059 0.950 . S
C3083 C3082 1.524 . S
C3083 C3084 1.415 . S
C3084 H3060 0.950 . S
C3084 C3079 1.363 1_554 S
C3084 C3083 1.415 . S
C3085 H3061 0.951 . S
C3085 C3086 1.366 . S
C3085 C3087 1.388 . S
C3086 C3085 1.366 . S
C3086 C3090 1.385 . S
C3087 H3062 0.951 . S
C3087 C3085 1.388 . S
C3087 C3088 1.366 . S
C3088 C3087 1.366 . S
C3088 C3089 1.414 . S
C3088 C3091 1.499 . S
C3089 H3063 0.950 . S
C3089 C3088 1.414 . S
C3089 C3090 1.374 . S
C3090 H3064 0.950 . S
C3090 C3086 1.385 . S
C3090 C3089 1.374 . S
C3091 C3088 1.499 . S
C3091 C3092 1.373 . S
C3091 C3093 1.389 . S
C3092 H3065 0.950 . S
C3092 C3078 1.377 . S
C3092 C3091 1.373 . S
C3093 C3077 1.377 . S
C3093 C3091 1.389 . S
C3093 C3094 1.524 . S
C3094 C3093 1.524 . S
C3094 C3095 1.397 . S
C3094 C3099 1.363 . S
C3095 H3066 0.950 . S
C3095 C3094 1.397 . S
C3095 C3096 1.334 . S
C3096 H3067 0.950 . S
C3096 C3095 1.334 . S
C3096 C3097 1.287 . S
C3097 C3096 1.287 . S
C3097 C3098 1.524 . S
C3097 H3100 0.999 . S
C3098 H3068 0.950 . S
C3098 C3097 1.524 . S
C3098 C3099 1.415 . S
C3099 H3069 0.950 . S
C3099 C3094 1.363 . S
C3099 C3098 1.415 . S
H3100 C3097 0.999 . S
H3101 C3082 0.913 . S
H3102 C3120 0.951 . S
H3103 C3122 0.951 1_455 S
H3104 C3124 0.950 . S
H3105 C3125 0.950 . S
H3106 C3127 0.950 . S
H3107 C3130 0.950 . S
H3108 C3131 0.950 . S
H3109 C3133 0.950 . S
H3110 C3134 0.950 . S
H3111 C3135 0.951 . S
H3112 C3137 0.951 . S
H3113 C3139 0.950 . S
H3114 C3140 0.950 . S
H3115 C3142 0.950 . S
H3116 C3145 0.950 . S
H3117 C3146 0.950 . S
H3118 C3148 0.950 . S
H3119 C3149 0.950 . S
C3120 H3102 0.951 . S
C3120 C3121 1.366 . S
C3120 C3122 1.388 . S
C3121 C3120 1.366 . S
C3121 C3125 1.385 . S
C3122 H3103 0.951 1_655 S
C3122 C3120 1.388 . S
C3122 C3123 1.366 . S
C3123 C3122 1.366 . S
C3123 C3124 1.414 . S
C3123 C3126 1.499 1_655 S
C3124 H3104 0.950 . S
C3124 C3123 1.414 . S
C3124 C3125 1.374 . S
C3125 H3105 0.950 . S
C3125 C3121 1.385 . S
C3125 C3124 1.374 . S
C3126 C3123 1.499 1_455 S
C3126 C3127 1.373 1_455 S
C3126 C3128 1.389 . S
C3127 H3106 0.950 . S
C3127 C3126 1.373 1_655 S
C3127 C3143 1.377 1_655 S
C3128 C3126 1.389 . S
C3128 C3129 1.524 . S
C3128 C3142 1.377 . S
C3129 C3128 1.524 . S
C3129 C3130 1.397 . S
C3129 C3134 1.363 . S
C3130 H3107 0.950 . S
C3130 C3129 1.397 . S
C3130 C3131 1.334 . S
C3131 H3108 0.950 . S
C3131 C3130 1.334 . S
C3131 C3132 1.287 . S
C3132 C3131 1.287 . S
C3132 C3133 1.524 . S
C3132 H3151 0.913 . S
C3133 H3109 0.950 . S
C3133 C3132 1.524 . S
C3133 C3134 1.415 . S
C3134 H3110 0.950 . S
C3134 C3129 1.363 . S
C3134 C3133 1.415 . S
C3135 H3111 0.951 . S
C3135 C3136 1.366 . S
C3135 C3137 1.388 . S
C3136 C3135 1.366 . S
C3136 C3140 1.385 . S
C3137 H3112 0.951 . S
C3137 C3135 1.388 . S
C3137 C3138 1.366 . S
C3138 C3137 1.366 . S
C3138 C3139 1.414 . S
C3138 C3141 1.499 . S
C3139 H3113 0.950 . S
C3139 C3138 1.414 . S
C3139 C3140 1.374 . S
C3140 H3114 0.950 . S
C3140 C3136 1.385 . S
C3140 C3139 1.374 . S
C3141 C3138 1.499 . S
C3141 C3142 1.373 . S
C3141 C3143 1.389 . S
C3142 H3115 0.950 . S
C3142 C3128 1.377 . S
C3142 C3141 1.373 . S
C3143 C3127 1.377 1_455 S
C3143 C3141 1.389 . S
C3143 C3144 1.524 . S
C3144 C3143 1.524 . S
C3144 C3145 1.397 . S
C3144 C3149 1.363 1_455 S
C3145 H3116 0.950 . S
C3145 C3144 1.397 . S
C3145 C3146 1.334 . S
C3146 H3117 0.950 . S
C3146 C3145 1.334 . S
C3146 C3147 1.287 1_455 S
C3147 C3146 1.287 1_655 S
C3147 C3148 1.524 . S
C3147 H3150 0.999 . S
C3148 H3118 0.950 . S
C3148 C3147 1.524 . S
C3148 C3149 1.415 . S
C3149 H3119 0.950 . S
C3149 C3144 1.363 1_655 S
C3149 C3148 1.415 . S
H3150 C3147 0.999 . S
H3151 C3132 0.913 . S
H3152 C3170 0.951 . S
H3153 C3172 0.951 . S
H3154 C3174 0.950 . S
H3155 C3175 0.950 . S
H3156 C3177 0.950 . S
H3157 C3180 0.950 . S
H3158 C3181 0.950 . S
H3159 C3183 0.950 . S
H3160 C3184 0.950 . S
H3161 C3185 0.951 . S
H3162 C3187 0.951 . S
H3163 C3189 0.950 . S
H3164 C3190 0.950 . S
H3165 C3192 0.950 . S
H3166 C3195 0.950 . S
H3167 C3196 0.950 . S
H3168 C3198 0.950 . S
H3169 C3199 0.950 . S
C3170 H3152 0.951 . S
C3170 C3171 1.366 . S
C3170 C3172 1.388 . S
C3171 C3170 1.366 . S
C3171 C3175 1.385 . S
C3172 H3153 0.951 . S
C3172 C3170 1.388 . S
C3172 C3173 1.366 . S
C3173 C3172 1.366 . S
C3173 C3174 1.414 . S
C3173 C3176 1.499 . S
C3174 H3154 0.950 . S
C3174 C3173 1.414 . S
C3174 C3175 1.374 . S
C3175 H3155 0.950 . S
C3175 C3171 1.385 . S
C3175 C3174 1.374 . S
C3176 C3173 1.499 . S
C3176 C3177 1.373 . S
C3176 C3178 1.389 . S
C3177 H3156 0.950 . S
C3177 C3176 1.373 . S
C3177 C3193 1.377 . S
C3178 C3176 1.389 . S
C3178 C3179 1.524 . S
C3178 C3192 1.377 . S
C3179 C3178 1.524 . S
C3179 C3180 1.397 . S
C3179 C3184 1.363 . S
C3180 H3157 0.950 . S
C3180 C3179 1.397 . S
C3180 C3181 1.334 . S
C3181 H3158 0.950 . S
C3181 C3180 1.334 . S
C3181 C3182 1.287 . S
C3182 C3181 1.287 . S
C3182 C3183 1.524 . S
C3182 H3201 0.913 . S
C3183 H3159 0.950 . S
C3183 C3182 1.524 . S
C3183 C3184 1.415 . S
C3184 H3160 0.950 . S
C3184 C3179 1.363 . S
C3184 C3183 1.415 . S
C3185 H3161 0.951 . S
C3185 C3186 1.366 . S
C3185 C3187 1.388 . S
C3186 C3185 1.366 . S
C3186 C3190 1.385 . S
C3187 H3162 0.951 . S
C3187 C3185 1.388 . S
C3187 C3188 1.366 . S
C3188 C3187 1.366 . S
C3188 C3189 1.414 . S
C3188 C3191 1.499 . S
C3189 H3163 0.950 . S
C3189 C3188 1.414 . S
C3189 C3190 1.374 . S
C3190 H3164 0.950 . S
C3190 C3186 1.385 . S
C3190 C3189 1.374 . S
C3191 C3188 1.499 . S
C3191 C3192 1.373 . S
C3191 C3193 1.389 . S
C3192 H3165 0.950 . S
C3192 C3178 1.377 . S
C3192 C3191 1.373 . S
C3193 C3177 1.377 . S
C3193 C3191 1.389 . S
C3193 C3194 1.524 . S
C3194 C3193 1.524 . S
C3194 C3195 1.397 . S
C3194 C3199 1.363 . S
C3195 H3166 0.950 . S
C3195 C3194 1.397 . S
C3195 C3196 1.334 . S
C3196 H3167 0.950 . S
C3196 C3195 1.334 . S
C3196 C3197 1.287 . S
C3197 C3196 1.287 . S
C3197 C3198 1.524 . S
C3197 H3200 0.999 . S
C3198 H3168 0.950 . S
C3198 C3197 1.524 . S
C3198 C3199 1.415 . S
C3199 H3169 0.950 . S
C3199 C3194 1.363 . S
C3199 C3198 1.415 . S
H3200 C3197 0.999 . S
H3201 C3182 0.913 . S
H3202 C3220 0.951 . S
H3203 C3222 0.951 . S
H3204 C3224 0.950 . S
H3205 C3225 0.950 . S
H3206 C3227 0.950 . S
H3207 C3230 0.950 . S
H3208 C3231 0.950 . S
H3209 C3233 0.950 . S
H3210 C3234 0.950 . S
H3211 C3235 0.951 . S
H3212 C3237 0.951 . S
H3213 C3239 0.950 . S
H3214 C3240 0.950 . S
H3215 C3242 0.950 . S
H3216 C3245 0.950 . S
H3217 C3246 0.950 . S
H3218 C3248 0.950 . S
H3219 C3249 0.950 . S
C3220 H3202 0.951 . S
C3220 C3221 1.366 . S
C3220 C3222 1.388 . S
C3221 C3220 1.366 . S
C3221 C3225 1.385 . S
C3222 H3203 0.951 . S
C3222 C3220 1.388 . S
C3222 C3223 1.366 . S
C3223 C3222 1.366 . S
C3223 C3224 1.414 . S
C3223 C3226 1.499 . S
C3224 H3204 0.950 . S
C3224 C3223 1.414 . S
C3224 C3225 1.374 . S
C3225 H3205 0.950 . S
C3225 C3221 1.385 . S
C3225 C3224 1.374 . S
C3226 C3223 1.499 . S
C3226 C3227 1.373 1_455 S
C3226 C3228 1.389 . S
C3227 H3206 0.950 . S
C3227 C3226 1.373 1_655 S
C3227 C3243 1.377 . S
C3228 C3226 1.389 . S
C3228 C3229 1.524 . S
C3228 C3242 1.377 1_455 S
C3229 C3228 1.524 . S
C3229 C3230 1.397 . S
C3229 C3234 1.363 . S
C3230 H3207 0.950 . S
C3230 C3229 1.397 . S
C3230 C3231 1.334 . S
C3231 H3208 0.950 . S
C3231 C3230 1.334 . S
C3231 C3232 1.287 . S
C3232 C3231 1.287 . S
C3232 C3233 1.524 . S
C3232 H3251 0.913 . S
C3233 H3209 0.950 . S
C3233 C3232 1.524 . S
C3233 C3234 1.415 . S
C3234 H3210 0.950 . S
C3234 C3229 1.363 . S
C3234 C3233 1.415 . S
C3235 H3211 0.951 . S
C3235 C3236 1.366 . S
C3235 C3237 1.388 . S
C3236 C3235 1.366 . S
C3236 C3240 1.385 . S
C3237 H3212 0.951 . S
C3237 C3235 1.388 . S
C3237 C3238 1.366 . S
C3238 C3237 1.366 . S
C3238 C3239 1.414 . S
C3238 C3241 1.499 . S
C3239 H3213 0.950 . S
C3239 C3238 1.414 . S
C3239 C3240 1.374 . S
C3240 H3214 0.950 . S
C3240 C3236 1.385 . S
C3240 C3239 1.374 . S
C3241 C3238 1.499 . S
C3241 C3242 1.373 . S
C3241 C3243 1.389 . S
C3242 H3215 0.950 . S
C3242 C3228 1.377 1_655 S
C3242 C3241 1.373 . S
C3243 C3227 1.377 . S
C3243 C3241 1.389 . S
C3243 C3244 1.524 . S
C3244 C3243 1.524 . S
C3244 C3245 1.397 . S
C3244 C3249 1.363 . S
C3245 H3216 0.950 . S
C3245 C3244 1.397 . S
C3245 C3246 1.334 . S
C3246 H3217 0.950 . S
C3246 C3245 1.334 . S
C3246 C3247 1.287 . S
C3247 C3246 1.287 . S
C3247 C3248 1.524 . S
C3247 H3250 0.999 . S
C3248 H3218 0.950 . S
C3248 C3247 1.524 . S
C3248 C3249 1.415 . S
C3249 H3219 0.950 . S
C3249 C3244 1.363 . S
C3249 C3248 1.415 . S
H3250 C3247 0.999 . S
H3251 C3232 0.913 . S
H3252 C3270 0.951 . S
H3253 C3272 0.951 . S
H3254 C3274 0.950 . S
H3255 C3275 0.950 . S
H3256 C3277 0.950 . S
H3257 C3280 0.950 . S
H3258 C3281 0.950 . S
H3259 C3283 0.950 . S
H3260 C3284 0.950 . S
H3261 C3285 0.951 . S
H3262 C3287 0.951 . S
H3263 C3289 0.950 . S
H3264 C3290 0.950 . S
H3265 C3292 0.950 . S
H3266 C3295 0.950 . S
H3267 C3296 0.950 . S
H3268 C3298 0.950 1_455 S
H3269 C3299 0.929 1_455 S
C3270 H3252 0.951 . S
C3270 C3271 1.366 . S
C3270 C3272 1.388 1_455 S
C3271 C3270 1.366 . S
C3271 C3275 1.385 . S
C3272 H3253 0.951 . S
C3272 C3270 1.388 1_655 S
C3272 C3273 1.366 . S
C3273 C3272 1.366 . S
C3273 C3274 1.414 1_655 S
C3273 C3276 1.499 . S
C3274 H3254 0.950 . S
C3274 C3273 1.414 1_455 S
C3274 C3275 1.374 . S
C3275 H3255 0.950 . S
C3275 C3271 1.385 . S
C3275 C3274 1.374 . S
C3276 C3273 1.499 . S
C3276 C3277 1.373 . S
C3276 C3278 1.389 . S
C3277 H3256 0.950 . S
C3277 C3276 1.373 . S
C3277 C3293 1.377 . S
C3278 C3276 1.389 . S
C3278 C3279 1.524 . S
C3278 C3292 1.377 . S
C3279 C3278 1.524 . S
C3279 C3280 1.397 . S
C3279 C3284 1.363 . S
C3280 H3257 0.950 . S
C3280 C3279 1.397 . S
C3280 C3281 1.334 . S
C3281 H3258 0.950 . S
C3281 C3280 1.334 . S
C3281 C3282 1.287 . S
C3282 C3281 1.287 . S
C3282 C3283 1.524 . S
C3282 H3301 0.913 . S
C3283 H3259 0.950 . S
C3283 C3282 1.524 . S
C3283 C3284 1.415 . S
C3284 H3260 0.950 . S
C3284 C3279 1.363 . S
C3284 C3283 1.415 . S
C3285 H3261 0.951 . S
C3285 C3286 1.366 . S
C3285 C3287 1.388 . S
C3286 C3285 1.366 . S
C3286 C3290 1.385 . S
C3287 H3262 0.951 . S
C3287 C3285 1.388 . S
C3287 C3288 1.366 . S
C3288 C3287 1.366 . S
C3288 C3289 1.414 . S
C3288 C3291 1.499 . S
C3289 H3263 0.950 . S
C3289 C3288 1.414 . S
C3289 C3290 1.374 . S
C3290 H3264 0.950 . S
C3290 C3286 1.385 . S
C3290 C3289 1.374 . S
C3291 C3288 1.499 . S
C3291 C3292 1.373 . S
C3291 C3293 1.389 . S
C3292 H3265 0.950 . S
C3292 C3278 1.377 . S
C3292 C3291 1.373 . S
C3293 C3277 1.377 . S
C3293 C3291 1.389 . S
C3293 C3294 1.524 . S
C3294 C3293 1.524 . S
C3294 C3295 1.397 . S
C3294 C3299 1.363 . S
C3295 H3266 0.950 . S
C3295 C3294 1.397 . S
C3295 C3296 1.334 . S
C3296 H3267 0.950 . S
C3296 C3295 1.334 . S
C3296 C3297 1.287 . S
C3297 C3296 1.287 . S
C3297 C3298 1.524 . S
C3297 H3300 0.999 . S
C3298 H3268 0.950 1_655 S
C3298 C3297 1.524 . S
C3298 C3299 1.415 . S
C3299 H3269 0.929 1_655 S
C3299 C3294 1.363 . S
C3299 C3298 1.415 . S
H3300 C3297 0.999 . S
H3301 C3282 0.913 . S
H3302 C3320 0.951 . S
H3303 C3322 0.951 . S
H3304 C3324 0.950 . S
H3305 C3325 0.950 . S
H3306 C3327 0.950 . S
H3307 C3330 0.950 . S
H3308 C3331 0.950 . S
H3309 C3333 0.950 . S
H3310 C3334 0.950 . S
H3311 C3335 0.951 . S
H3312 C3337 0.951 . S
H3313 C3339 0.950 . S
H3314 C3340 0.950 . S
H3315 C3342 0.950 . S
H3316 C3345 0.950 . S
H3317 C3346 0.950 . S
H3318 C3348 0.950 . S
H3319 C3349 0.950 . S
C3320 H3302 0.951 . S
C3320 C3321 1.366 . S
C3320 C3322 1.388 . S
C3321 C3320 1.366 . S
C3321 C3325 1.385 . S
C3322 H3303 0.951 . S
C3322 C3320 1.388 . S
C3322 C3323 1.366 . S
C3323 C3322 1.366 . S
C3323 C3324 1.414 . S
C3323 C3326 1.499 . S
C3324 H3304 0.950 . S
C3324 C3323 1.414 . S
C3324 C3325 1.374 . S
C3325 H3305 0.950 . S
C3325 C3321 1.385 . S
C3325 C3324 1.374 . S
C3326 C3323 1.499 . S
C3326 C3327 1.373 . S
C3326 C3328 1.389 . S
C3327 H3306 0.950 . S
C3327 C3326 1.373 . S
C3327 C3343 1.377 . S
C3328 C3326 1.389 . S
C3328 C3329 1.524 . S
C3328 C3342 1.377 . S
C3329 C3328 1.524 . S
C3329 C3330 1.397 . S
C3329 C3334 1.363 . S
C3330 H3307 0.950 . S
C3330 C3329 1.397 . S
C3330 C3331 1.334 . S
C3331 H3308 0.950 . S
C3331 C3330 1.334 . S
C3331 C3332 1.287 . S
C3332 C3331 1.287 . S
C3332 C3333 1.524 . S
C3332 H3351 0.913 . S
C3333 H3309 0.950 . S
C3333 C3332 1.524 . S
C3333 C3334 1.415 . S
C3334 H3310 0.950 . S
C3334 C3329 1.363 . S
C3334 C3333 1.415 . S
C3335 H3311 0.951 . S
C3335 C3336 1.366 . S
C3335 C3337 1.388 . S
C3336 C3335 1.366 . S
C3336 C3340 1.385 . S
C3337 H3312 0.951 . S
C3337 C3335 1.388 . S
C3337 C3338 1.366 . S
C3338 C3337 1.366 . S
C3338 C3339 1.414 . S
C3338 C3341 1.499 . S
C3339 H3313 0.950 . S
C3339 C3338 1.414 . S
C3339 C3340 1.374 . S
C3340 H3314 0.950 . S
C3340 C3336 1.385 . S
C3340 C3339 1.374 . S
C3341 C3338 1.499 . S
C3341 C3342 1.373 . S
C3341 C3343 1.389 . S
C3342 H3315 0.950 . S
C3342 C3328 1.377 . S
C3342 C3341 1.373 . S
C3343 C3327 1.377 . S
C3343 C3341 1.389 . S
C3343 C3344 1.524 . S
C3344 C3343 1.524 . S
C3344 C3345 1.397 . S
C3344 C3349 1.363 . S
C3345 H3316 0.950 . S
C3345 C3344 1.397 . S
C3345 C3346 1.334 . S
C3346 H3317 0.950 . S
C3346 C3345 1.334 . S
C3346 C3347 1.287 . S
C3347 C3346 1.287 . S
C3347 C3348 1.524 . S
C3347 H3350 0.999 . S
C3348 H3318 0.950 . S
C3348 C3347 1.524 . S
C3348 C3349 1.415 . S
C3349 H3319 0.950 . S
C3349 C3344 1.363 . S
C3349 C3348 1.415 . S
H3350 C3347 0.999 . S
H3351 C3332 0.913 . S
H3352 C3370 0.951 . S
H3353 C3372 0.951 . S
H3354 C3374 0.950 . S
H3355 C3375 0.950 . S
H3356 C3377 0.950 1_655 S
H3357 C3380 0.950 1_655 S
H3358 C3381 0.950 1_655 S
H3359 C3383 0.950 . S
H3360 C3384 0.950 . S
H3361 C3385 0.951 . S
H3362 C3387 0.951 . S
H3363 C3389 0.950 . S
H3364 C3390 0.950 . S
H3365 C3392 0.950 . S
H3366 C3395 0.950 . S
H3367 C3396 0.950 . S
H3368 C3398 0.950 1_655 S
H3369 C3399 0.950 1_655 S
C3370 H3352 0.951 . S
C3370 C3371 1.366 . S
C3370 C3372 1.388 . S
C3371 C3370 1.366 . S
C3371 C3375 1.385 . S
C3372 H3353 0.951 . S
C3372 C3370 1.388 . S
C3372 C3373 1.366 . S
C3373 C3372 1.366 . S
C3373 C3374 1.414 . S
C3373 C3376 1.466 1_655 S
C3374 H3354 0.950 . S
C3374 C3373 1.414 . S
C3374 C3375 1.374 . S
C3375 H3355 0.950 . S
C3375 C3371 1.385 . S
C3375 C3374 1.374 . S
C3376 C3373 1.466 1_455 S
C3376 C3377 1.375 . S
C3376 C3378 1.423 . S
C3377 H3356 0.950 1_455 S
C3377 C3376 1.375 . S
C3377 C3393 1.377 . S
C3378 C3376 1.423 . S
C3378 C3379 1.524 . S
C3378 C3392 1.377 . S
C3379 C3378 1.524 . S
C3379 C3380 1.397 . S
C3379 C3384 1.363 . S
C3380 H3357 0.950 1_455 S
C3380 C3379 1.397 . S
C3380 C3381 1.334 . S
C3381 H3358 0.950 1_455 S
C3381 C3380 1.334 . S
C3381 C3382 1.287 . S
C3382 C3381 1.287 . S
C3382 C3383 1.524 . S
C3382 H3401 0.913 . S
C3383 H3359 0.950 . S
C3383 C3382 1.524 . S
C3383 C3384 1.415 . S
C3384 H3360 0.950 . S
C3384 C3379 1.363 . S
C3384 C3383 1.415 . S
C3385 H3361 0.951 . S
C3385 C3386 1.366 . S
C3385 C3387 1.388 . S
C3386 C3385 1.366 . S
C3386 C3390 1.385 . S
C3387 H3362 0.951 . S
C3387 C3385 1.388 . S
C3387 C3388 1.366 . S
C3388 C3387 1.366 . S
C3388 C3389 1.414 . S
C3388 C3391 1.499 . S
C3389 H3363 0.950 . S
C3389 C3388 1.414 . S
C3389 C3390 1.374 . S
C3390 H3364 0.950 . S
C3390 C3386 1.385 . S
C3390 C3389 1.374 . S
C3391 C3388 1.499 . S
C3391 C3392 1.373 . S
C3391 C3393 1.389 . S
C3392 H3365 0.950 . S
C3392 C3378 1.377 . S
C3392 C3391 1.373 . S
C3393 C3377 1.377 . S
C3393 C3391 1.389 . S
C3393 C3394 1.524 . S
C3394 C3393 1.524 . S
C3394 C3395 1.397 . S
C3394 C3399 1.363 . S
C3395 H3366 0.950 . S
C3395 C3394 1.397 . S
C3395 C3396 1.334 . S
C3396 H3367 0.950 . S
C3396 C3395 1.334 . S
C3396 C3397 1.287 . S
C3397 C3396 1.287 . S
C3397 C3398 1.524 . S
C3397 H3400 0.999 . S
C3398 H3368 0.950 1_455 S
C3398 C3397 1.524 . S
C3398 C3399 1.415 . S
C3399 H3369 0.950 1_455 S
C3399 C3394 1.363 . S
C3399 C3398 1.415 . S
H3400 C3397 0.999 . S
H3401 C3382 0.913 . S
H3402 C3420 0.951 . S
H3403 C3422 0.951 . S
H3404 C3424 0.950 . S
H3405 C3425 0.950 . S
H3406 C3427 0.950 . S
H3407 C3430 0.950 . S
H3408 C3431 0.950 . S
H3409 C3433 0.950 . S
H3410 C3434 0.950 . S
H3411 C3435 0.951 . S
H3412 C3437 0.951 . S
H3413 C3439 0.950 . S
H3414 C3440 0.950 . S
H3415 C3442 0.950 . S
H3416 C3445 0.950 . S
H3417 C3446 0.950 . S
H3418 C3448 0.950 . S
H3419 C3449 0.950 . S
C3420 H3402 0.951 . S
C3420 C3421 1.366 . S
C3420 C3422 1.388 . S
C3421 C3420 1.366 . S
C3421 C3425 1.385 . S
C3422 H3403 0.951 . S
C3422 C3420 1.388 . S
C3422 C3423 1.366 . S
C3423 C3422 1.366 . S
C3423 C3424 1.414 . S
C3423 C3426 1.499 . S
C3424 H3404 0.950 . S
C3424 C3423 1.414 . S
C3424 C3425 1.374 . S
C3425 H3405 0.950 . S
C3425 C3421 1.385 . S
C3425 C3424 1.374 . S
C3426 C3423 1.499 . S
C3426 C3427 1.373 . S
C3426 C3428 1.389 . S
C3427 H3406 0.950 . S
C3427 C3426 1.373 . S
C3427 C3443 1.377 . S
C3428 C3426 1.389 . S
C3428 C3429 1.524 . S
C3428 C3442 1.377 . S
C3429 C3428 1.524 . S
C3429 C3430 1.397 . S
C3429 C3434 1.363 . S
C3430 H3407 0.950 . S
C3430 C3429 1.397 . S
C3430 C3431 1.334 . S
C3431 H3408 0.950 . S
C3431 C3430 1.334 . S
C3431 C3432 1.287 . S
C3432 C3431 1.287 . S
C3432 C3433 1.524 . S
C3432 H3451 0.913 . S
C3433 H3409 0.950 . S
C3433 C3432 1.524 . S
C3433 C3434 1.415 . S
C3434 H3410 0.950 . S
C3434 C3429 1.363 . S
C3434 C3433 1.415 . S
C3435 H3411 0.951 . S
C3435 C3436 1.366 . S
C3435 C3437 1.388 . S
C3436 C3435 1.366 . S
C3436 C3440 1.385 . S
C3437 H3412 0.951 . S
C3437 C3435 1.388 . S
C3437 C3438 1.366 . S
C3438 C3437 1.366 . S
C3438 C3439 1.414 . S
C3438 C3441 1.499 . S
C3439 H3413 0.950 . S
C3439 C3438 1.414 . S
C3439 C3440 1.374 . S
C3440 H3414 0.950 . S
C3440 C3436 1.385 . S
C3440 C3439 1.374 . S
C3441 C3438 1.499 . S
C3441 C3442 1.373 . S
C3441 C3443 1.389 . S
C3442 H3415 0.950 . S
C3442 C3428 1.377 . S
C3442 C3441 1.373 . S
C3443 C3427 1.377 . S
C3443 C3441 1.389 . S
C3443 C3444 1.524 . S
C3444 C3443 1.524 . S
C3444 C3445 1.397 . S
C3444 C3449 1.363 . S
C3445 H3416 0.950 . S
C3445 C3444 1.397 . S
C3445 C3446 1.334 . S
C3446 H3417 0.950 . S
C3446 C3445 1.334 . S
C3446 C3447 1.287 . S
C3447 C3446 1.287 . S
C3447 C3448 1.524 . S
C3447 H3450 0.999 . S
C3448 H3418 0.950 . S
C3448 C3447 1.524 . S
C3448 C3449 1.415 . S
C3449 H3419 0.950 . S
C3449 C3444 1.363 . S
C3449 C3448 1.415 . S
H3450 C3447 0.999 . S
H3451 C3432 0.913 . S
H3452 C3470 0.951 . S
H3453 C3472 0.951 . S
H3454 C3474 0.950 . S
H3455 C3475 0.950 . S
H3456 C3477 0.950 . S
H3457 C3480 0.950 . S
H3458 C3481 0.950 . S
H3459 C3483 0.950 . S
H3460 C3484 0.950 . S
H3461 C3485 0.951 . S
H3462 C3487 0.951 . S
H3463 C3489 0.950 . S
H3464 C3490 0.950 . S
H3465 C3492 0.950 . S
H3466 C3495 0.950 . S
H3467 C3496 0.950 . S
H3468 C3498 0.950 . S
H3469 C3499 0.950 . S
C3470 H3452 0.951 . S
C3470 C3471 1.366 . S
C3470 C3472 1.388 . S
C3471 C3470 1.366 . S
C3471 C3475 1.385 . S
C3472 H3453 0.951 . S
C3472 C3470 1.388 . S
C3472 C3473 1.366 . S
C3473 C3472 1.366 . S
C3473 C3474 1.414 . S
C3473 C3476 1.499 . S
C3474 H3454 0.950 . S
C3474 C3473 1.414 . S
C3474 C3475 1.374 . S
C3475 H3455 0.950 . S
C3475 C3471 1.385 . S
C3475 C3474 1.374 . S
C3476 C3473 1.499 . S
C3476 C3477 1.373 . S
C3476 C3478 1.389 . S
C3477 H3456 0.950 . S
C3477 C3476 1.373 . S
C3477 C3493 1.377 . S
C3478 C3476 1.389 . S
C3478 C3479 1.524 . S
C3478 C3492 1.377 . S
C3479 C3478 1.524 . S
C3479 C3480 1.397 . S
C3479 C3484 1.363 . S
C3480 H3457 0.950 . S
C3480 C3479 1.397 . S
C3480 C3481 1.334 . S
C3481 H3458 0.950 . S
C3481 C3480 1.334 . S
C3481 C3482 1.287 . S
C3482 C3481 1.287 . S
C3482 C3483 1.524 . S
C3482 H3501 0.913 . S
C3483 H3459 0.950 . S
C3483 C3482 1.524 . S
C3483 C3484 1.415 . S
C3484 H3460 0.950 . S
C3484 C3479 1.363 . S
C3484 C3483 1.415 . S
C3485 H3461 0.951 . S
C3485 C3486 1.366 . S
C3485 C3487 1.388 . S
C3486 C3485 1.366 . S
C3486 C3490 1.385 . S
C3487 H3462 0.951 . S
C3487 C3485 1.388 . S
C3487 C3488 1.366 . S
C3488 C3487 1.366 . S
C3488 C3489 1.414 . S
C3488 C3491 1.499 . S
C3489 H3463 0.950 . S
C3489 C3488 1.414 . S
C3489 C3490 1.374 . S
C3490 H3464 0.950 . S
C3490 C3486 1.385 . S
C3490 C3489 1.374 . S
C3491 C3488 1.499 . S
C3491 C3492 1.373 . S
C3491 C3493 1.389 . S
C3492 H3465 0.950 . S
C3492 C3478 1.377 . S
C3492 C3491 1.373 . S
C3493 C3477 1.377 . S
C3493 C3491 1.389 . S
C3493 C3494 1.524 . S
C3494 C3493 1.524 . S
C3494 C3495 1.397 . S
C3494 C3499 1.363 . S
C3495 H3466 0.950 . S
C3495 C3494 1.397 . S
C3495 C3496 1.334 . S
C3496 H3467 0.950 . S
C3496 C3495 1.334 . S
C3496 C3497 1.287 . S
C3497 C3496 1.287 . S
C3497 C3498 1.524 . S
C3497 H3500 0.999 . S
C3498 H3468 0.950 . S
C3498 C3497 1.524 . S
C3498 C3499 1.415 . S
C3499 H3469 0.950 . S
C3499 C3494 1.363 . S
C3499 C3498 1.415 . S
H3500 C3497 0.999 . S
H3501 C3482 0.913 . S
H3502 C3520 0.951 . S
H3503 C3522 0.951 . S
H3504 C3524 0.950 . S
H3505 C3525 0.950 . S
H3506 C3527 0.950 . S
H3507 C3530 0.938 1_554 S
H3508 C3531 0.950 1_554 S
H3509 C3533 0.950 . S
H3510 C3534 0.950 . S
H3511 C3535 0.951 . S
H3512 C3537 0.951 . S
H3513 C3539 0.950 . S
H3514 C3540 0.950 . S
H3515 C3542 0.950 . S
H3516 C3545 0.950 . S
H3517 C3546 0.950 . S
H3518 C3548 0.950 . S
H3519 C3549 0.950 . S
C3520 H3502 0.951 . S
C3520 C3521 1.366 . S
C3520 C3522 1.388 . S
C3521 C3520 1.366 . S
C3521 C3525 1.385 . S
C3522 H3503 0.951 . S
C3522 C3520 1.388 . S
C3522 C3523 1.366 . S
C3523 C3522 1.366 . S
C3523 C3524 1.414 . S
C3523 C3526 1.499 . S
C3524 H3504 0.950 . S
C3524 C3523 1.414 . S
C3524 C3525 1.374 . S
C3525 H3505 0.950 . S
C3525 C3521 1.385 . S
C3525 C3524 1.374 . S
C3526 C3523 1.499 . S
C3526 C3527 1.373 . S
C3526 C3528 1.389 1_554 S
C3527 H3506 0.950 . S
C3527 C3526 1.373 . S
C3527 C3543 1.377 1_554 S
C3528 C3526 1.389 1_556 S
C3528 C3529 1.524 . S
C3528 C3542 1.377 . S
C3529 C3528 1.524 . S
C3529 C3530 1.406 . S
C3529 C3534 1.363 . S
C3530 H3507 0.938 1_556 S
C3530 C3529 1.406 . S
C3530 C3531 1.337 . S
C3531 H3508 0.950 1_556 S
C3531 C3530 1.337 . S
C3531 C3532 1.287 . S
C3532 C3531 1.287 . S
C3532 C3533 1.524 . S
C3532 H3551 0.913 . S
C3533 H3509 0.950 . S
C3533 C3532 1.524 . S
C3533 C3534 1.415 . S
C3534 H3510 0.950 . S
C3534 C3529 1.363 . S
C3534 C3533 1.415 . S
C3535 H3511 0.951 . S
C3535 C3536 1.366 . S
C3535 C3537 1.388 . S
C3536 C3535 1.366 . S
C3536 C3540 1.385 . S
C3537 H3512 0.951 . S
C3537 C3535 1.388 . S
C3537 C3538 1.366 . S
C3538 C3537 1.366 . S
C3538 C3539 1.414 . S
C3538 C3541 1.499 . S
C3539 H3513 0.950 . S
C3539 C3538 1.414 . S
C3539 C3540 1.374 . S
C3540 H3514 0.950 . S
C3540 C3536 1.385 . S
C3540 C3539 1.374 . S
C3541 C3538 1.499 . S
C3541 C3542 1.373 . S
C3541 C3543 1.389 . S
C3542 H3515 0.950 . S
C3542 C3528 1.377 . S
C3542 C3541 1.373 . S
C3543 C3527 1.377 1_556 S
C3543 C3541 1.389 . S
C3543 C3544 1.516 1_556 S
C3544 C3543 1.516 1_554 S
C3544 C3545 1.373 1_554 S
C3544 C3549 1.397 . S
C3545 H3516 0.950 . S
C3545 C3544 1.373 1_556 S
C3545 C3546 1.334 . S
C3546 H3517 0.950 . S
C3546 C3545 1.334 . S
C3546 C3547 1.287 1_556 S
C3547 C3546 1.287 1_554 S
C3547 C3548 1.524 . S
C3547 H3550 0.999 . S
C3548 H3518 0.950 . S
C3548 C3547 1.524 . S
C3548 C3549 1.415 . S
C3549 H3519 0.950 . S
C3549 C3544 1.397 . S
C3549 C3548 1.415 . S
H3550 C3547 0.999 . S
H3551 C3532 0.913 . S
H3552 C3570 0.951 . S
H3553 C3572 0.951 . S
H3554 C3574 0.950 . S
H3555 C3575 0.950 . S
H3556 C3577 0.950 . S
H3557 C3580 0.950 . S
H3558 C3581 0.950 . S
H3559 C3583 0.950 . S
H3560 C3584 0.950 . S
H3561 C3585 0.951 . S
H3562 C3587 0.951 . S
H3563 C3589 0.950 . S
H3564 C3590 0.950 . S
H3565 C3592 0.950 . S
H3566 C3595 0.950 . S
H3567 C3596 0.950 . S
H3568 C3598 0.950 . S
H3569 C3599 0.950 . S
C3570 H3552 0.951 . S
C3570 C3571 1.366 . S
C3570 C3572 1.388 . S
C3571 C3570 1.366 . S
C3571 C3575 1.385 . S
C3572 H3553 0.951 . S
C3572 C3570 1.388 . S
C3572 C3573 1.366 . S
C3573 C3572 1.366 . S
C3573 C3574 1.414 . S
C3573 C3576 1.499 . S
C3574 H3554 0.950 . S
C3574 C3573 1.414 . S
C3574 C3575 1.374 . S
C3575 H3555 0.950 . S
C3575 C3571 1.385 . S
C3575 C3574 1.374 . S
C3576 C3573 1.499 . S
C3576 C3577 1.373 . S
C3576 C3578 1.389 . S
C3577 H3556 0.950 . S
C3577 C3576 1.373 . S
C3577 C3593 1.377 . S
C3578 C3576 1.389 . S
C3578 C3579 1.524 . S
C3578 C3592 1.377 . S
C3579 C3578 1.524 . S
C3579 C3580 1.397 . S
C3579 C3584 1.363 . S
C3580 H3557 0.950 . S
C3580 C3579 1.397 . S
C3580 C3581 1.334 . S
C3581 H3558 0.950 . S
C3581 C3580 1.334 . S
C3581 C3582 1.287 . S
C3582 C3581 1.287 . S
C3582 C3583 1.524 . S
C3582 H3601 0.913 . S
C3583 H3559 0.950 . S
C3583 C3582 1.524 . S
C3583 C3584 1.415 . S
C3584 H3560 0.950 . S
C3584 C3579 1.363 . S
C3584 C3583 1.415 . S
C3585 H3561 0.951 . S
C3585 C3586 1.366 . S
C3585 C3587 1.388 . S
C3586 C3585 1.366 . S
C3586 C3590 1.385 . S
C3587 H3562 0.951 . S
C3587 C3585 1.388 . S
C3587 C3588 1.366 . S
C3588 C3587 1.366 . S
C3588 C3589 1.414 . S
C3588 C3591 1.499 . S
C3589 H3563 0.950 . S
C3589 C3588 1.414 . S
C3589 C3590 1.374 . S
C3590 H3564 0.950 . S
C3590 C3586 1.385 . S
C3590 C3589 1.374 . S
C3591 C3588 1.499 . S
C3591 C3592 1.373 . S
C3591 C3593 1.389 . S
C3592 H3565 0.950 . S
C3592 C3578 1.377 . S
C3592 C3591 1.373 . S
C3593 C3577 1.377 . S
C3593 C3591 1.389 . S
C3593 C3594 1.524 . S
C3594 C3593 1.524 . S
C3594 C3595 1.397 . S
C3594 C3599 1.363 . S
C3595 H3566 0.950 . S
C3595 C3594 1.397 . S
C3595 C3596 1.334 . S
C3596 H3567 0.950 . S
C3596 C3595 1.334 . S
C3596 C3597 1.287 . S
C3597 C3596 1.287 . S
C3597 C3598 1.524 . S
C3597 H3600 0.999 . S
C3598 H3568 0.950 . S
C3598 C3597 1.524 . S
C3598 C3599 1.415 . S
C3599 H3569 0.950 . S
C3599 C3594 1.363 . S
C3599 C3598 1.415 . S
H3600 C3597 0.999 . S
H3601 C3582 0.913 . S
H3602 C3620 0.951 . S
H3603 C3622 0.951 . S
H3604 C3624 0.950 . S
H3605 C3625 0.950 . S
H3606 C3627 0.950 . S
H3607 C3630 0.950 . S
H3608 C3631 0.950 . S
H3609 C3633 0.950 . S
H3610 C3634 0.950 . S
H3611 C3635 0.951 . S
H3612 C3637 0.951 . S
H3613 C3639 0.950 . S
H3614 C3640 0.950 . S
H3615 C3642 0.950 . S
H3616 C3645 0.950 . S
H3617 C3646 0.950 . S
H3618 C3648 0.950 . S
H3619 C3649 0.950 . S
C3620 H3602 0.951 . S
C3620 C3621 1.366 . S
C3620 C3622 1.388 . S
C3621 C3620 1.366 . S
C3621 C3625 1.385 . S
C3622 H3603 0.951 . S
C3622 C3620 1.388 . S
C3622 C3623 1.366 . S
C3623 C3622 1.366 . S
C3623 C3624 1.414 . S
C3623 C3626 1.499 . S
C3624 H3604 0.950 . S
C3624 C3623 1.414 . S
C3624 C3625 1.374 . S
C3625 H3605 0.950 . S
C3625 C3621 1.385 . S
C3625 C3624 1.374 . S
C3626 C3623 1.499 . S
C3626 C3627 1.373 . S
C3626 C3628 1.389 . S
C3627 H3606 0.950 . S
C3627 C3626 1.373 . S
C3627 C3643 1.377 . S
C3628 C3626 1.389 . S
C3628 C3629 1.524 . S
C3628 C3642 1.377 . S
C3629 C3628 1.524 . S
C3629 C3630 1.397 . S
C3629 C3634 1.363 . S
C3630 H3607 0.950 . S
C3630 C3629 1.397 . S
C3630 C3631 1.334 . S
C3631 H3608 0.950 . S
C3631 C3630 1.334 . S
C3631 C3632 1.287 . S
C3632 C3631 1.287 . S
C3632 C3633 1.524 . S
C3632 H3651 0.913 . S
C3633 H3609 0.950 . S
C3633 C3632 1.524 . S
C3633 C3634 1.415 . S
C3634 H3610 0.950 . S
C3634 C3629 1.363 . S
C3634 C3633 1.415 . S
C3635 H3611 0.951 . S
C3635 C3636 1.366 . S
C3635 C3637 1.388 . S
C3636 C3635 1.366 . S
C3636 C3640 1.385 . S
C3637 H3612 0.951 . S
C3637 C3635 1.388 . S
C3637 C3638 1.366 . S
C3638 C3637 1.366 . S
C3638 C3639 1.414 . S
C3638 C3641 1.499 . S
C3639 H3613 0.950 . S
C3639 C3638 1.414 . S
C3639 C3640 1.374 . S
C3640 H3614 0.950 . S
C3640 C3636 1.385 . S
C3640 C3639 1.374 . S
C3641 C3638 1.499 . S
C3641 C3642 1.373 . S
C3641 C3643 1.389 . S
C3642 H3615 0.950 . S
C3642 C3628 1.377 . S
C3642 C3641 1.373 . S
C3643 C3627 1.377 . S
C3643 C3641 1.389 . S
C3643 C3644 1.524 . S
C3644 C3643 1.524 . S
C3644 C3645 1.397 . S
C3644 C3649 1.363 . S
C3645 H3616 0.950 . S
C3645 C3644 1.397 . S
C3645 C3646 1.334 . S
C3646 H3617 0.950 . S
C3646 C3645 1.334 . S
C3646 C3647 1.287 . S
C3647 C3646 1.287 . S
C3647 C3648 1.524 . S
C3647 H3650 0.999 . S
C3648 H3618 0.950 . S
C3648 C3647 1.524 . S
C3648 C3649 1.415 . S
C3649 H3619 0.950 . S
C3649 C3644 1.363 . S
C3649 C3648 1.415 . S
H3650 C3647 0.999 . S
H3651 C3632 0.913 . S
H3652 C3670 0.951 . S
H3653 C3672 0.951 . S
H3654 C3674 0.950 . S
H3655 C3675 0.950 . S
H3656 C3677 0.950 . S
H3657 C3680 0.950 . S
H3658 C3681 0.950 . S
H3659 C3683 0.950 . S
H3660 C3684 0.950 . S
H3661 C3685 0.951 . S
H3662 C3687 0.951 . S
H3663 C3689 0.950 . S
H3664 C3690 0.950 . S
H3665 C3692 0.950 . S
H3666 C3695 0.950 . S
H3667 C3696 0.950 . S
H3668 C3698 0.950 . S
H3669 C3699 0.950 . S
C3670 H3652 0.951 . S
C3670 C3671 1.366 . S
C3670 C3672 1.388 . S
C3671 C3670 1.366 . S
C3671 C3675 1.385 . S
C3672 H3653 0.951 . S
C3672 C3670 1.388 . S
C3672 C3673 1.366 . S
C3673 C3672 1.366 . S
C3673 C3674 1.414 . S
C3673 C3676 1.499 . S
C3674 H3654 0.950 . S
C3674 C3673 1.414 . S
C3674 C3675 1.374 . S
C3675 H3655 0.950 . S
C3675 C3671 1.385 . S
C3675 C3674 1.374 . S
C3676 C3673 1.499 . S
C3676 C3677 1.373 . S
C3676 C3678 1.389 . S
C3677 H3656 0.950 . S
C3677 C3676 1.373 . S
C3677 C3693 1.377 . S
C3678 C3676 1.389 . S
C3678 C3679 1.524 . S
C3678 C3692 1.377 . S
C3679 C3678 1.524 . S
C3679 C3680 1.397 . S
C3679 C3684 1.363 . S
C3680 H3657 0.950 . S
C3680 C3679 1.397 . S
C3680 C3681 1.334 . S
C3681 H3658 0.950 . S
C3681 C3680 1.334 . S
C3681 C3682 1.287 . S
C3682 C3681 1.287 . S
C3682 C3683 1.524 . S
C3682 H3701 0.913 . S
C3683 H3659 0.950 . S
C3683 C3682 1.524 . S
C3683 C3684 1.415 . S
C3684 H3660 0.950 . S
C3684 C3679 1.363 . S
C3684 C3683 1.415 . S
C3685 H3661 0.951 . S
C3685 C3686 1.366 . S
C3685 C3687 1.388 . S
C3686 C3685 1.366 . S
C3686 C3690 1.385 . S
C3687 H3662 0.951 . S
C3687 C3685 1.388 . S
C3687 C3688 1.366 . S
C3688 C3687 1.366 . S
C3688 C3689 1.414 . S
C3688 C3691 1.499 . S
C3689 H3663 0.950 . S
C3689 C3688 1.414 . S
C3689 C3690 1.374 . S
C3690 H3664 0.950 . S
C3690 C3686 1.385 . S
C3690 C3689 1.374 . S
C3691 C3688 1.499 . S
C3691 C3692 1.373 . S
C3691 C3693 1.389 . S
C3692 H3665 0.950 . S
C3692 C3678 1.377 . S
C3692 C3691 1.373 . S
C3693 C3677 1.377 . S
C3693 C3691 1.389 . S
C3693 C3694 1.524 . S
C3694 C3693 1.524 . S
C3694 C3695 1.397 . S
C3694 C3699 1.363 . S
C3695 H3666 0.950 . S
C3695 C3694 1.397 . S
C3695 C3696 1.334 . S
C3696 H3667 0.950 . S
C3696 C3695 1.334 . S
C3696 C3697 1.287 . S
C3697 C3696 1.287 . S
C3697 C3698 1.524 . S
C3697 H3700 0.999 . S
C3698 H3668 0.950 . S
C3698 C3697 1.524 . S
C3698 C3699 1.415 . S
C3699 H3669 0.950 . S
C3699 C3694 1.363 . S
C3699 C3698 1.415 . S
H3700 C3697 0.999 . S
H3701 C3682 0.913 . S
H3702 C3720 0.951 . S
H3703 C3722 0.951 . S
H3704 C3724 0.950 . S
H3705 C3725 0.950 . S
H3706 C3727 0.950 . S
H3707 C3730 0.950 . S
H3708 C3731 0.950 . S
H3709 C3733 0.950 1_556 S
H3710 C3734 0.950 1_556 S
H3711 C3735 0.951 . S
H3712 C3737 0.951 . S
H3713 C3739 0.950 . S
H3714 C3740 0.950 . S
H3715 C3742 0.975 . S
H3716 C3745 0.950 . S
H3717 C3746 0.950 . S
H3718 C3748 0.950 . S
H3719 C3749 0.950 . S
C3720 H3702 0.951 . S
C3720 C3721 1.366 . S
C3720 C3722 1.388 . S
C3721 C3720 1.366 . S
C3721 C3725 1.385 . S
C3722 H3703 0.951 . S
C3722 C3720 1.388 . S
C3722 C3723 1.366 . S
C3723 C3722 1.366 . S
C3723 C3724 1.414 . S
C3723 C3726 1.499 . S
C3724 H3704 0.950 . S
C3724 C3723 1.414 . S
C3724 C3725 1.374 . S
C3725 H3705 0.950 . S
C3725 C3721 1.385 . S
C3725 C3724 1.374 . S
C3726 C3723 1.499 . S
C3726 C3727 1.373 . S
C3726 C3728 1.389 . S
C3727 H3706 0.950 . S
C3727 C3726 1.373 . S
C3727 C3743 1.377 . S
C3728 C3726 1.389 . S
C3728 C3729 1.524 . S
C3728 C3742 1.346 1_554 S
C3729 C3728 1.524 . S
C3729 C3730 1.397 . S
C3729 C3734 1.363 . S
C3730 H3707 0.950 . S
C3730 C3729 1.397 . S
C3730 C3731 1.334 . S
C3731 H3708 0.950 . S
C3731 C3730 1.334 . S
C3731 C3732 1.287 . S
C3732 C3731 1.287 . S
C3732 C3733 1.524 . S
C3732 H3751 0.913 . S
C3733 H3709 0.950 1_554 S
C3733 C3732 1.524 . S
C3733 C3734 1.415 . S
C3734 H3710 0.950 1_554 S
C3734 C3729 1.363 . S
C3734 C3733 1.415 . S
C3735 H3711 0.951 . S
C3735 C3736 1.366 . S
C3735 C3737 1.388 . S
C3736 C3735 1.366 . S
C3736 C3740 1.385 . S
C3737 H3712 0.951 . S
C3737 C3735 1.388 . S
C3737 C3738 1.366 . S
C3738 C3737 1.366 . S
C3738 C3739 1.414 . S
C3738 C3741 1.499 . S
C3739 H3713 0.950 . S
C3739 C3738 1.414 . S
C3739 C3740 1.374 . S
C3740 H3714 0.950 . S
C3740 C3736 1.385 . S
C3740 C3739 1.374 . S
C3741 C3738 1.499 . S
C3741 C3742 1.381 . S
C3741 C3743 1.389 1_556 S
C3742 H3715 0.975 . S
C3742 C3728 1.346 1_556 S
C3742 C3741 1.381 . S
C3743 C3727 1.377 . S
C3743 C3741 1.389 1_554 S
C3743 C3744 1.524 . S
C3744 C3743 1.524 . S
C3744 C3745 1.397 1_554 S
C3744 C3749 1.363 . S
C3745 H3716 0.950 . S
C3745 C3744 1.397 1_556 S
C3745 C3746 1.334 . S
C3746 H3717 0.950 . S
C3746 C3745 1.334 . S
C3746 C3747 1.287 . S
C3747 C3746 1.287 . S
C3747 C3748 1.524 1_556 S
C3747 H3750 0.999 . S
C3748 H3718 0.950 . S
C3748 C3747 1.524 1_554 S
C3748 C3749 1.415 . S
C3749 H3719 0.950 . S
C3749 C3744 1.363 . S
C3749 C3748 1.415 . S
H3750 C3747 0.999 . S
H3751 C3732 0.913 . S
H3752 C3770 0.951 . S
H3753 C3772 0.951 . S
H3754 C3774 0.950 . S
H3755 C3775 0.950 . S
H3756 C3777 0.950 . S
H3757 C3780 0.950 . S
H3758 C3781 0.950 . S
H3759 C3783 0.950 . S
H3760 C3784 0.950 . S
H3761 C3785 0.951 . S
H3762 C3787 0.951 . S
H3763 C3789 0.950 . S
H3764 C3790 0.950 . S
H3765 C3792 0.950 . S
H3766 C3795 0.950 . S
H3767 C3796 0.950 . S
H3768 C3798 0.950 . S
H3769 C3799 0.950 . S
C3770 H3752 0.951 . S
C3770 C3771 1.366 . S
C3770 C3772 1.388 . S
C3771 C3770 1.366 . S
C3771 C3775 1.385 . S
C3772 H3753 0.951 . S
C3772 C3770 1.388 . S
C3772 C3773 1.366 . S
C3773 C3772 1.366 . S
C3773 C3774 1.414 . S
C3773 C3776 1.499 . S
C3774 H3754 0.950 . S
C3774 C3773 1.414 . S
C3774 C3775 1.374 . S
C3775 H3755 0.950 . S
C3775 C3771 1.385 . S
C3775 C3774 1.374 . S
C3776 C3773 1.499 . S
C3776 C3777 1.373 . S
C3776 C3778 1.389 . S
C3777 H3756 0.950 . S
C3777 C3776 1.373 . S
C3777 C3793 1.377 . S
C3778 C3776 1.389 . S
C3778 C3779 1.524 . S
C3778 C3792 1.377 . S
C3779 C3778 1.524 . S
C3779 C3780 1.397 . S
C3779 C3784 1.363 . S
C3780 H3757 0.950 . S
C3780 C3779 1.397 . S
C3780 C3781 1.334 . S
C3781 H3758 0.950 . S
C3781 C3780 1.334 . S
C3781 C3782 1.287 . S
C3782 C3781 1.287 . S
C3782 C3783 1.524 . S
C3782 H3801 0.913 . S
C3783 H3759 0.950 . S
C3783 C3782 1.524 . S
C3783 C3784 1.415 . S
C3784 H3760 0.950 . S
C3784 C3779 1.363 . S
C3784 C3783 1.415 . S
C3785 H3761 0.951 . S
C3785 C3786 1.366 . S
C3785 C3787 1.388 . S
C3786 C3785 1.366 . S
C3786 C3790 1.385 . S
C3787 H3762 0.951 . S
C3787 C3785 1.388 . S
C3787 C3788 1.366 . S
C3788 C3787 1.366 . S
C3788 C3789 1.414 . S
C3788 C3791 1.499 . S
C3789 H3763 0.950 . S
C3789 C3788 1.414 . S
C3789 C3790 1.374 . S
C3790 H3764 0.950 . S
C3790 C3786 1.385 . S
C3790 C3789 1.374 . S
C3791 C3788 1.499 . S
C3791 C3792 1.373 . S
C3791 C3793 1.389 . S
C3792 H3765 0.950 . S
C3792 C3778 1.377 . S
C3792 C3791 1.373 . S
C3793 C3777 1.377 . S
C3793 C3791 1.389 . S
C3793 C3794 1.524 . S
C3794 C3793 1.524 . S
C3794 C3795 1.397 . S
C3794 C3799 1.363 . S
C3795 H3766 0.950 . S
C3795 C3794 1.397 . S
C3795 C3796 1.334 . S
C3796 H3767 0.950 . S
C3796 C3795 1.334 . S
C3796 C3797 1.287 . S
C3797 C3796 1.287 . S
C3797 C3798 1.524 . S
C3797 H3800 0.999 . S
C3798 H3768 0.950 . S
C3798 C3797 1.524 . S
C3798 C3799 1.415 . S
C3799 H3769 0.950 . S
C3799 C3794 1.363 . S
C3799 C3798 1.415 . S
H3800 C3797 0.999 . S
H3801 C3782 0.913 . S
H3802 C3820 0.951 . S
H3803 C3822 0.951 . S
H3804 C3824 0.950 . S
H3805 C3825 0.950 . S
H3806 C3827 0.950 . S
H3807 C3830 0.950 . S
H3808 C3831 0.950 . S
H3809 C3833 0.950 . S
H3810 C3834 0.950 . S
H3811 C3835 0.951 . S
H3812 C3837 0.951 . S
H3813 C3839 0.950 . S
H3814 C3840 0.950 . S
H3815 C3842 0.950 . S
H3816 C3845 0.950 . S
H3817 C3846 0.950 . S
H3818 C3848 0.950 . S
H3819 C3849 0.950 . S
C3820 H3802 0.951 . S
C3820 C3821 1.366 . S
C3820 C3822 1.388 . S
C3821 C3820 1.366 . S
C3821 C3825 1.385 . S
C3822 H3803 0.951 . S
C3822 C3820 1.388 . S
C3822 C3823 1.366 . S
C3823 C3822 1.366 . S
C3823 C3824 1.414 . S
C3823 C3826 1.499 . S
C3824 H3804 0.950 . S
C3824 C3823 1.414 . S
C3824 C3825 1.374 . S
C3825 H3805 0.950 . S
C3825 C3821 1.385 . S
C3825 C3824 1.374 . S
C3826 C3823 1.499 . S
C3826 C3827 1.373 . S
C3826 C3828 1.389 . S
C3827 H3806 0.950 . S
C3827 C3826 1.373 . S
C3827 C3843 1.377 . S
C3828 C3826 1.389 . S
C3828 C3829 1.524 . S
C3828 C3842 1.377 . S
C3829 C3828 1.524 . S
C3829 C3830 1.397 . S
C3829 C3834 1.363 . S
C3830 H3807 0.950 . S
C3830 C3829 1.397 . S
C3830 C3831 1.334 . S
C3831 H3808 0.950 . S
C3831 C3830 1.334 . S
C3831 C3832 1.287 . S
C3832 C3831 1.287 . S
C3832 C3833 1.524 . S
C3832 H3851 0.913 . S
C3833 H3809 0.950 . S
C3833 C3832 1.524 . S
C3833 C3834 1.415 . S
C3834 H3810 0.950 . S
C3834 C3829 1.363 . S
C3834 C3833 1.415 . S
C3835 H3811 0.951 . S
C3835 C3836 1.366 . S
C3835 C3837 1.388 . S
C3836 C3835 1.366 . S
C3836 C3840 1.385 . S
C3837 H3812 0.951 . S
C3837 C3835 1.388 . S
C3837 C3838 1.366 . S
C3838 C3837 1.366 . S
C3838 C3839 1.414 . S
C3838 C3841 1.499 . S
C3839 H3813 0.950 . S
C3839 C3838 1.414 . S
C3839 C3840 1.374 . S
C3840 H3814 0.950 . S
C3840 C3836 1.385 . S
C3840 C3839 1.374 . S
C3841 C3838 1.499 . S
C3841 C3842 1.373 . S
C3841 C3843 1.389 . S
C3842 H3815 0.950 . S
C3842 C3828 1.377 . S
C3842 C3841 1.373 . S
C3843 C3827 1.377 . S
C3843 C3841 1.389 . S
C3843 C3844 1.524 . S
C3844 C3843 1.524 . S
C3844 C3845 1.397 . S
C3844 C3849 1.363 . S
C3845 H3816 0.950 . S
C3845 C3844 1.397 . S
C3845 C3846 1.334 . S
C3846 H3817 0.950 . S
C3846 C3845 1.334 . S
C3846 C3847 1.287 . S
C3847 C3846 1.287 . S
C3847 C3848 1.524 . S
C3847 H3850 0.999 . S
C3848 H3818 0.950 . S
C3848 C3847 1.524 . S
C3848 C3849 1.415 . S
C3849 H3819 0.950 . S
C3849 C3844 1.363 . S
C3849 C3848 1.415 . S
H3850 C3847 0.999 . S
H3851 C3832 0.913 . S
H3852 C3870 0.951 . S
H3853 C3872 0.951 . S
H3854 C3874 0.950 . S
H3855 C3875 0.950 . S
H3856 C3877 0.950 . S
H3857 C3880 0.950 . S
H3858 C3881 0.950 . S
H3859 C3883 0.950 . S
H3860 C3884 0.950 . S
H3861 C3885 0.951 . S
H3862 C3887 0.951 . S
H3863 C3889 0.950 . S
H3864 C3890 0.950 . S
H3865 C3892 0.950 . S
H3866 C3895 0.950 . S
H3867 C3896 0.950 . S
H3868 C3898 0.950 . S
H3869 C3899 0.950 . S
C3870 H3852 0.951 . S
C3870 C3871 1.366 . S
C3870 C3872 1.388 . S
C3871 C3870 1.366 . S
C3871 C3875 1.385 . S
C3872 H3853 0.951 . S
C3872 C3870 1.388 . S
C3872 C3873 1.366 . S
C3873 C3872 1.366 . S
C3873 C3874 1.414 . S
C3873 C3876 1.499 . S
C3874 H3854 0.950 . S
C3874 C3873 1.414 . S
C3874 C3875 1.374 . S
C3875 H3855 0.950 . S
C3875 C3871 1.385 . S
C3875 C3874 1.374 . S
C3876 C3873 1.499 . S
C3876 C3877 1.373 . S
C3876 C3878 1.389 . S
C3877 H3856 0.950 . S
C3877 C3876 1.373 . S
C3877 C3893 1.377 . S
C3878 C3876 1.389 . S
C3878 C3879 1.524 . S
C3878 C3892 1.377 . S
C3879 C3878 1.524 . S
C3879 C3880 1.397 . S
C3879 C3884 1.363 . S
C3880 H3857 0.950 . S
C3880 C3879 1.397 . S
C3880 C3881 1.334 . S
C3881 H3858 0.950 . S
C3881 C3880 1.334 . S
C3881 C3882 1.287 . S
C3882 C3881 1.287 . S
C3882 C3883 1.524 . S
C3882 H3901 0.913 . S
C3883 H3859 0.950 . S
C3883 C3882 1.524 . S
C3883 C3884 1.415 . S
C3884 H3860 0.950 . S
C3884 C3879 1.363 . S
C3884 C3883 1.415 . S
C3885 H3861 0.951 . S
C3885 C3886 1.366 . S
C3885 C3887 1.388 . S
C3886 C3885 1.366 . S
C3886 C3890 1.385 . S
C3887 H3862 0.951 . S
C3887 C3885 1.388 . S
C3887 C3888 1.366 . S
C3888 C3887 1.366 . S
C3888 C3889 1.414 . S
C3888 C3891 1.499 . S
C3889 H3863 0.950 . S
C3889 C3888 1.414 . S
C3889 C3890 1.374 . S
C3890 H3864 0.950 . S
C3890 C3886 1.385 . S
C3890 C3889 1.374 . S
C3891 C3888 1.499 . S
C3891 C3892 1.373 . S
C3891 C3893 1.389 . S
C3892 H3865 0.950 . S
C3892 C3878 1.377 . S
C3892 C3891 1.373 . S
C3893 C3877 1.377 . S
C3893 C3891 1.389 . S
C3893 C3894 1.524 . S
C3894 C3893 1.524 . S
C3894 C3895 1.397 . S
C3894 C3899 1.363 . S
C3895 H3866 0.950 . S
C3895 C3894 1.397 . S
C3895 C3896 1.334 . S
C3896 H3867 0.950 . S
C3896 C3895 1.334 . S
C3896 C3897 1.287 . S
C3897 C3896 1.287 . S
C3897 C3898 1.524 . S
C3897 H3900 0.999 . S
C3898 H3868 0.950 . S
C3898 C3897 1.524 . S
C3898 C3899 1.415 . S
C3899 H3869 0.950 . S
C3899 C3894 1.363 . S
C3899 C3898 1.415 . S
H3900 C3897 0.999 . S
H3901 C3882 0.913 . S
H3902 C3920 0.951 . S
H3903 C3922 0.951 . S
H3904 C3924 0.950 . S
H3905 C3925 0.950 . S
H3906 C3927 0.950 . S
H3907 C3930 0.950 . S
H3908 C3931 0.950 . S
H3909 C3933 0.950 . S
H3910 C3934 0.950 . S
H3911 C3935 0.951 . S
H3912 C3937 0.951 . S
H3913 C3939 0.950 . S
H3914 C3940 0.950 . S
H3915 C3942 0.950 . S
H3916 C3945 0.950 . S
H3917 C3946 0.950 . S
H3918 C3948 0.950 . S
H3919 C3949 0.950 . S
C3920 H3902 0.951 . S
C3920 C3921 1.366 . S
C3920 C3922 1.388 . S
C3921 C3920 1.366 . S
C3921 C3925 1.385 . S
C3922 H3903 0.951 . S
C3922 C3920 1.388 . S
C3922 C3923 1.366 . S
C3923 C3922 1.366 . S
C3923 C3924 1.414 . S
C3923 C3926 1.499 . S
C3924 H3904 0.950 . S
C3924 C3923 1.414 . S
C3924 C3925 1.374 . S
C3925 H3905 0.950 . S
C3925 C3921 1.385 . S
C3925 C3924 1.374 . S
C3926 C3923 1.499 . S
C3926 C3927 1.373 . S
C3926 C3928 1.389 . S
C3927 H3906 0.950 . S
C3927 C3926 1.373 . S
C3927 C3943 1.377 . S
C3928 C3926 1.389 . S
C3928 C3929 1.524 . S
C3928 C3942 1.377 . S
C3929 C3928 1.524 . S
C3929 C3930 1.397 . S
C3929 C3934 1.363 . S
C3930 H3907 0.950 . S
C3930 C3929 1.397 . S
C3930 C3931 1.334 . S
C3931 H3908 0.950 . S
C3931 C3930 1.334 . S
C3931 C3932 1.287 . S
C3932 C3931 1.287 . S
C3932 C3933 1.524 . S
C3932 H3951 0.913 . S
C3933 H3909 0.950 . S
C3933 C3932 1.524 . S
C3933 C3934 1.415 . S
C3934 H3910 0.950 . S
C3934 C3929 1.363 . S
C3934 C3933 1.415 . S
C3935 H3911 0.951 . S
C3935 C3936 1.366 . S
C3935 C3937 1.388 . S
C3936 C3935 1.366 . S
C3936 C3940 1.385 . S
C3937 H3912 0.951 . S
C3937 C3935 1.388 . S
C3937 C3938 1.366 . S
C3938 C3937 1.366 . S
C3938 C3939 1.414 . S
C3938 C3941 1.499 . S
C3939 H3913 0.950 . S
C3939 C3938 1.414 . S
C3939 C3940 1.374 . S
C3940 H3914 0.950 . S
C3940 C3936 1.385 . S
C3940 C3939 1.374 . S
C3941 C3938 1.499 . S
C3941 C3942 1.373 . S
C3941 C3943 1.389 . S
C3942 H3915 0.950 . S
C3942 C3928 1.377 . S
C3942 C3941 1.373 . S
C3943 C3927 1.377 . S
C3943 C3941 1.389 . S
C3943 C3944 1.524 . S
C3944 C3943 1.524 . S
C3944 C3945 1.397 . S
C3944 C3949 1.363 . S
C3945 H3916 0.950 . S
C3945 C3944 1.397 . S
C3945 C3946 1.334 . S
C3946 H3917 0.950 . S
C3946 C3945 1.334 . S
C3946 C3947 1.287 . S
C3947 C3946 1.287 . S
C3947 C3948 1.524 . S
C3947 H3950 0.999 . S
C3948 H3918 0.950 . S
C3948 C3947 1.524 . S
C3948 C3949 1.415 . S
C3949 H3919 0.950 . S
C3949 C3944 1.363 . S
C3949 C3948 1.415 . S
H3950 C3947 0.999 . S
H3951 C3932 0.913 . S
H3952 C3970 0.951 . S
H3953 C3972 0.951 . S
H3954 C3974 0.950 . S
H3955 C3975 0.950 . S
H3956 C3977 0.950 . S
H3957 C3980 0.950 . S
H3958 C3981 0.950 1_554 S
H3959 C3983 0.950 . S
H3960 C3984 0.950 . S
H3961 C3985 0.951 . S
H3962 C3987 0.951 1_554 S
H3963 C3989 0.950 . S
H3964 C3990 0.950 . S
H3965 C3992 0.950 . S
H3966 C3995 0.950 . S
H3967 C3996 0.950 . S
H3968 C3998 0.950 . S
H3969 C3999 0.950 . S
C3970 H3952 0.951 . S
C3970 C3971 1.366 . S
C3970 C3972 1.388 . S
C3971 C3970 1.366 . S
C3971 C3975 1.385 . S
C3972 H3953 0.951 . S
C3972 C3970 1.388 . S
C3972 C3973 1.366 . S
C3973 C3972 1.366 . S
C3973 C3974 1.414 . S
C3973 C3976 1.499 . S
C3974 H3954 0.950 . S
C3974 C3973 1.414 . S
C3974 C3975 1.374 . S
C3975 H3955 0.950 . S
C3975 C3971 1.385 . S
C3975 C3974 1.374 . S
C3976 C3973 1.499 . S
C3976 C3977 1.373 . S
C3976 C3978 1.389 . S
C3977 H3956 0.950 . S
C3977 C3976 1.373 . S
C3977 C3993 1.377 . S
C3978 C3976 1.389 . S
C3978 C3979 1.524 1_554 S
C3978 C3992 1.377 1_554 S
C3979 C3978 1.524 1_556 S
C3979 C3980 1.397 1_556 S
C3979 C3984 1.363 . S
C3980 H3957 0.950 . S
C3980 C3979 1.397 1_554 S
C3980 C3981 1.334 1_554 S
C3981 H3958 0.950 1_556 S
C3981 C3980 1.334 1_556 S
C3981 C3982 1.287 . S
C3982 C3981 1.287 . S
C3982 C3983 1.524 . S
C3982 H4001 0.913 . S
C3983 H3959 0.950 . S
C3983 C3982 1.524 . S
C3983 C3984 1.415 . S
C3984 H3960 0.950 . S
C3984 C3979 1.363 . S
C3984 C3983 1.415 . S
C3985 H3961 0.951 . S
C3985 C3986 1.366 . S
C3985 C3987 1.388 . S
C3986 C3985 1.366 . S
C3986 C3990 1.385 . S
C3987 H3962 0.951 1_556 S
C3987 C3985 1.388 . S
C3987 C3988 1.366 . S
C3988 C3987 1.366 . S
C3988 C3989 1.414 . S
C3988 C3991 1.499 . S
C3989 H3963 0.950 . S
C3989 C3988 1.414 . S
C3989 C3990 1.374 . S
C3990 H3964 0.950 . S
C3990 C3986 1.385 . S
C3990 C3989 1.374 . S
C3991 C3988 1.499 . S
C3991 C3992 1.373 . S
C3991 C3993 1.389 1_556 S
C3992 H3965 0.950 . S
C3992 C3978 1.377 1_556 S
C3992 C3991 1.373 . S
C3993 C3977 1.377 . S
C3993 C3991 1.389 1_554 S
C3993 C3994 1.524 . S
C3994 C3993 1.524 . S
C3994 C3995 1.397 . S
C3994 C3999 1.363 . S
C3995 H3966 0.950 . S
C3995 C3994 1.397 . S
C3995 C3996 1.334 . S
C3996 H3967 0.950 . S
C3996 C3995 1.334 . S
C3996 C3997 1.287 . S
C3997 C3996 1.287 . S
C3997 C3998 1.524 . S
C3997 H4000 0.999 . S
C3998 H3968 0.950 . S
C3998 C3997 1.524 . S
C3998 C3999 1.415 . S
C3999 H3969 0.950 . S
C3999 C3994 1.363 . S
C3999 C3998 1.415 . S
H4000 C3997 0.999 . S
H4001 C3982 0.913 . S
H4002 C4020 0.951 . S
H4003 C4022 0.951 . S
H4004 C4024 0.950 . S
H4005 C4025 0.950 . S
H4006 C4027 0.950 . S
H4007 C4030 0.950 . S
H4008 C4031 0.950 . S
H4009 C4033 0.950 . S
H4010 C4034 0.950 . S
H4011 C4035 0.951 . S
H4012 C4037 0.951 . S
H4013 C4039 0.950 . S
H4014 C4040 0.950 . S
H4015 C4042 0.950 . S
H4016 C4045 0.950 . S
H4017 C4046 0.950 . S
H4018 C4048 0.950 . S
H4019 C4049 0.950 . S
C4020 H4002 0.951 . S
C4020 C4021 1.366 . S
C4020 C4022 1.388 . S
C4021 C4020 1.366 . S
C4021 C4025 1.385 . S
C4022 H4003 0.951 . S
C4022 C4020 1.388 . S
C4022 C4023 1.366 . S
C4023 C4022 1.366 . S
C4023 C4024 1.414 . S
C4023 C4026 1.499 . S
C4024 H4004 0.950 . S
C4024 C4023 1.414 . S
C4024 C4025 1.374 . S
C4025 H4005 0.950 . S
C4025 C4021 1.385 . S
C4025 C4024 1.374 . S
C4026 C4023 1.499 . S
C4026 C4027 1.373 . S
C4026 C4028 1.389 . S
C4027 H4006 0.950 . S
C4027 C4026 1.373 . S
C4027 C4043 1.377 . S
C4028 C4026 1.389 . S
C4028 C4029 1.524 . S
C4028 C4042 1.377 . S
C4029 C4028 1.524 . S
C4029 C4030 1.397 . S
C4029 C4034 1.363 . S
C4030 H4007 0.950 . S
C4030 C4029 1.397 . S
C4030 C4031 1.334 . S
C4031 H4008 0.950 . S
C4031 C4030 1.334 . S
C4031 C4032 1.287 . S
C4032 C4031 1.287 . S
C4032 C4033 1.524 . S
C4032 H4051 0.913 . S
C4033 H4009 0.950 . S
C4033 C4032 1.524 . S
C4033 C4034 1.415 . S
C4034 H4010 0.950 . S
C4034 C4029 1.363 . S
C4034 C4033 1.415 . S
C4035 H4011 0.951 . S
C4035 C4036 1.366 . S
C4035 C4037 1.388 . S
C4036 C4035 1.366 . S
C4036 C4040 1.385 . S
C4037 H4012 0.951 . S
C4037 C4035 1.388 . S
C4037 C4038 1.366 . S
C4038 C4037 1.366 . S
C4038 C4039 1.414 . S
C4038 C4041 1.499 . S
C4039 H4013 0.950 . S
C4039 C4038 1.414 . S
C4039 C4040 1.374 . S
C4040 H4014 0.950 . S
C4040 C4036 1.385 . S
C4040 C4039 1.374 . S
C4041 C4038 1.499 . S
C4041 C4042 1.373 . S
C4041 C4043 1.389 . S
C4042 H4015 0.950 . S
C4042 C4028 1.377 . S
C4042 C4041 1.373 . S
C4043 C4027 1.377 . S
C4043 C4041 1.389 . S
C4043 C4044 1.524 . S
C4044 C4043 1.524 . S
C4044 C4045 1.397 . S
C4044 C4049 1.363 . S
C4045 H4016 0.950 . S
C4045 C4044 1.397 . S
C4045 C4046 1.334 . S
C4046 H4017 0.950 . S
C4046 C4045 1.334 . S
C4046 C4047 1.287 . S
C4047 C4046 1.287 . S
C4047 C4048 1.524 . S
C4047 H4050 0.999 . S
C4048 H4018 0.950 . S
C4048 C4047 1.524 . S
C4048 C4049 1.415 . S
C4049 H4019 0.950 . S
C4049 C4044 1.363 . S
C4049 C4048 1.415 . S
H4050 C4047 0.999 . S
H4051 C4032 0.913 . S
H4052 C4070 0.951 . S
H4053 C4072 0.951 . S
H4054 C4074 0.950 . S
H4055 C4075 0.950 . S
H4056 C4077 0.950 . S
H4057 C4080 0.950 . S
H4058 C4081 0.950 . S
H4059 C4083 0.950 . S
H4060 C4084 0.950 . S
H4061 C4085 0.951 . S
H4062 C4087 0.951 . S
H4063 C4089 0.950 . S
H4064 C4090 0.950 . S
H4065 C4092 0.950 . S
H4066 C4095 0.950 . S
H4067 C4096 0.950 . S
H4068 C4098 0.950 . S
H4069 C4099 0.950 . S
C4070 H4052 0.951 . S
C4070 C4071 1.366 . S
C4070 C4072 1.388 . S
C4071 C4070 1.366 . S
C4071 C4075 1.385 . S
C4072 H4053 0.951 . S
C4072 C4070 1.388 . S
C4072 C4073 1.366 . S
C4073 C4072 1.366 . S
C4073 C4074 1.414 . S
C4073 C4076 1.499 . S
C4074 H4054 0.950 . S
C4074 C4073 1.414 . S
C4074 C4075 1.374 . S
C4075 H4055 0.950 . S
C4075 C4071 1.385 . S
C4075 C4074 1.374 . S
C4076 C4073 1.499 . S
C4076 C4077 1.373 . S
C4076 C4078 1.389 . S
C4077 H4056 0.950 . S
C4077 C4076 1.373 . S
C4077 C4093 1.377 . S
C4078 C4076 1.389 . S
C4078 C4079 1.524 . S
C4078 C4092 1.377 . S
C4079 C4078 1.524 . S
C4079 C4080 1.397 . S
C4079 C4084 1.363 . S
C4080 H4057 0.950 . S
C4080 C4079 1.397 . S
C4080 C4081 1.334 . S
C4081 H4058 0.950 . S
C4081 C4080 1.334 . S
C4081 C4082 1.287 . S
C4082 C4081 1.287 . S
C4082 C4083 1.524 . S
C4082 H4101 0.913 . S
C4083 H4059 0.950 . S
C4083 C4082 1.524 . S
C4083 C4084 1.415 . S
C4084 H4060 0.950 . S
C4084 C4079 1.363 . S
C4084 C4083 1.415 . S
C4085 H4061 0.951 . S
C4085 C4086 1.366 . S
C4085 C4087 1.388 . S
C4086 C4085 1.366 . S
C4086 C4090 1.385 . S
C4087 H4062 0.951 . S
C4087 C4085 1.388 . S
C4087 C4088 1.366 . S
C4088 C4087 1.366 . S
C4088 C4089 1.414 . S
C4088 C4091 1.499 . S
C4089 H4063 0.950 . S
C4089 C4088 1.414 . S
C4089 C4090 1.374 . S
C4090 H4064 0.950 . S
C4090 C4086 1.385 . S
C4090 C4089 1.374 . S
C4091 C4088 1.499 . S
C4091 C4092 1.373 . S
C4091 C4093 1.389 . S
C4092 H4065 0.950 . S
C4092 C4078 1.377 . S
C4092 C4091 1.373 . S
C4093 C4077 1.377 . S
C4093 C4091 1.389 . S
C4093 C4094 1.524 . S
C4094 C4093 1.524 . S
C4094 C4095 1.397 . S
C4094 C4099 1.363 . S
C4095 H4066 0.950 . S
C4095 C4094 1.397 . S
C4095 C4096 1.334 . S
C4096 H4067 0.950 . S
C4096 C4095 1.334 . S
C4096 C4097 1.287 . S
C4097 C4096 1.287 . S
C4097 C4098 1.524 . S
C4097 H4100 0.999 . S
C4098 H4068 0.950 . S
C4098 C4097 1.524 . S
C4098 C4099 1.415 . S
C4099 H4069 0.950 . S
C4099 C4094 1.363 . S
C4099 C4098 1.415 . S
H4100 C4097 0.999 . S
H4101 C4082 0.913 . S
H4102 C4120 0.951 . S
H4103 C4122 0.951 . S
H4104 C4124 0.950 . S
H4105 C4125 0.950 . S
H4106 C4127 0.950 . S
H4107 C4130 0.950 . S
H4108 C4131 0.950 . S
H4109 C4133 0.950 . S
H4110 C4134 0.950 . S
H4111 C4135 0.951 . S
H4112 C4137 0.951 . S
H4113 C4139 0.950 . S
H4114 C4140 0.950 . S
H4115 C4142 0.950 . S
H4116 C4145 0.950 . S
H4117 C4146 0.950 . S
H4118 C4148 0.950 . S
H4119 C4149 0.950 . S
C4120 H4102 0.951 . S
C4120 C4121 1.366 . S
C4120 C4122 1.388 . S
C4121 C4120 1.366 . S
C4121 C4125 1.385 . S
C4122 H4103 0.951 . S
C4122 C4120 1.388 . S
C4122 C4123 1.366 . S
C4123 C4122 1.366 . S
C4123 C4124 1.414 . S
C4123 C4126 1.499 . S
C4124 H4104 0.950 . S
C4124 C4123 1.414 . S
C4124 C4125 1.374 . S
C4125 H4105 0.950 . S
C4125 C4121 1.385 . S
C4125 C4124 1.374 . S
C4126 C4123 1.499 . S
C4126 C4127 1.373 . S
C4126 C4128 1.389 . S
C4127 H4106 0.950 . S
C4127 C4126 1.373 . S
C4127 C4143 1.377 . S
C4128 C4126 1.389 . S
C4128 C4129 1.524 . S
C4128 C4142 1.377 . S
C4129 C4128 1.524 . S
C4129 C4130 1.397 . S
C4129 C4134 1.363 . S
C4130 H4107 0.950 . S
C4130 C4129 1.397 . S
C4130 C4131 1.334 . S
C4131 H4108 0.950 . S
C4131 C4130 1.334 . S
C4131 C4132 1.287 . S
C4132 C4131 1.287 . S
C4132 C4133 1.524 . S
C4132 H4151 0.913 . S
C4133 H4109 0.950 . S
C4133 C4132 1.524 . S
C4133 C4134 1.415 . S
C4134 H4110 0.950 . S
C4134 C4129 1.363 . S
C4134 C4133 1.415 . S
C4135 H4111 0.951 . S
C4135 C4136 1.366 . S
C4135 C4137 1.388 . S
C4136 C4135 1.366 . S
C4136 C4140 1.385 . S
C4137 H4112 0.951 . S
C4137 C4135 1.388 . S
C4137 C4138 1.366 . S
C4138 C4137 1.366 . S
C4138 C4139 1.414 . S
C4138 C4141 1.499 . S
C4139 H4113 0.950 . S
C4139 C4138 1.414 . S
C4139 C4140 1.374 . S
C4140 H4114 0.950 . S
C4140 C4136 1.385 . S
C4140 C4139 1.374 . S
C4141 C4138 1.499 . S
C4141 C4142 1.373 . S
C4141 C4143 1.389 . S
C4142 H4115 0.950 . S
C4142 C4128 1.377 . S
C4142 C4141 1.373 . S
C4143 C4127 1.377 . S
C4143 C4141 1.389 . S
C4143 C4144 1.524 . S
C4144 C4143 1.524 . S
C4144 C4145 1.397 . S
C4144 C4149 1.363 . S
C4145 H4116 0.950 . S
C4145 C4144 1.397 . S
C4145 C4146 1.334 . S
C4146 H4117 0.950 . S
C4146 C4145 1.334 . S
C4146 C4147 1.287 . S
C4147 C4146 1.287 . S
C4147 C4148 1.524 . S
C4147 H4150 0.999 . S
C4148 H4118 0.950 . S
C4148 C4147 1.524 . S
C4148 C4149 1.415 . S
C4149 H4119 0.950 . S
C4149 C4144 1.363 . S
C4149 C4148 1.415 . S
H4150 C4147 0.999 . S
H4151 C4132 0.913 . S
H4152 C4170 0.951 . S
H4153 C4172 0.951 1_556 S
H4154 C4174 0.950 . S
H4155 C4175 0.950 . S
H4156 C4177 0.958 . S
H4157 C4180 0.950 . S
H4158 C4181 0.950 . S
H4159 C4183 0.950 . S
H4160 C4184 0.950 . S
H4161 C4185 0.951 . S
H4162 C4187 0.951 . S
H4163 C4189 0.950 . S
H4164 C4190 0.950 . S
H4165 C4192 0.950 . S
H4166 C4195 0.950 . S
H4167 C4196 0.950 . S
H4168 C4198 0.950 1_554 S
H4169 C4199 0.968 . S
C4170 H4152 0.951 . S
C4170 C4171 1.366 . S
C4170 C4172 1.388 . S
C4171 C4170 1.366 . S
C4171 C4175 1.385 . S
C4172 H4153 0.951 1_554 S
C4172 C4170 1.388 . S
C4172 C4173 1.366 . S
C4173 C4172 1.366 . S
C4173 C4174 1.414 . S
C4173 C4176 1.499 . S
C4174 H4154 0.950 . S
C4174 C4173 1.414 . S
C4174 C4175 1.374 . S
C4175 H4155 0.950 . S
C4175 C4171 1.385 . S
C4175 C4174 1.374 . S
C4176 C4173 1.499 . S
C4176 C4177 1.374 . S
C4176 C4178 1.389 1_554 S
C4177 H4156 0.958 . S
C4177 C4176 1.374 . S
C4177 C4193 1.368 1_554 S
C4178 C4176 1.389 1_556 S
C4178 C4179 1.524 . S
C4178 C4192 1.377 . S
C4179 C4178 1.524 . S
C4179 C4180 1.397 1_556 S
C4179 C4184 1.363 . S
C4180 H4157 0.950 . S
C4180 C4179 1.397 1_554 S
C4180 C4181 1.334 . S
C4181 H4158 0.950 . S
C4181 C4180 1.334 . S
C4181 C4182 1.287 . S
C4182 C4181 1.287 . S
C4182 C4183 1.524 1_554 S
C4182 H4201 0.913 . S
C4183 H4159 0.950 . S
C4183 C4182 1.524 1_556 S
C4183 C4184 1.415 . S
C4184 H4160 0.950 . S
C4184 C4179 1.363 . S
C4184 C4183 1.415 . S
C4185 H4161 0.951 . S
C4185 C4186 1.366 . S
C4185 C4187 1.388 . S
C4186 C4185 1.366 . S
C4186 C4190 1.385 . S
C4187 H4162 0.951 . S
C4187 C4185 1.388 . S
C4187 C4188 1.366 . S
C4188 C4187 1.366 . S
C4188 C4189 1.414 . S
C4188 C4191 1.499 . S
C4189 H4163 0.950 . S
C4189 C4188 1.414 . S
C4189 C4190 1.374 . S
C4190 H4164 0.950 . S
C4190 C4186 1.385 . S
C4190 C4189 1.374 . S
C4191 C4188 1.499 . S
C4191 C4192 1.373 . S
C4191 C4193 1.389 . S
C4192 H4165 0.950 . S
C4192 C4178 1.377 . S
C4192 C4191 1.373 . S
C4193 C4177 1.368 1_556 S
C4193 C4191 1.389 . S
C4193 C4194 1.524 . S
C4194 C4193 1.524 . S
C4194 C4195 1.397 . S
C4194 C4199 1.347 1_556 S
C4195 H4166 0.950 . S
C4195 C4194 1.397 . S
C4195 C4196 1.334 . S
C4196 H4167 0.950 . S
C4196 C4195 1.334 . S
C4196 C4197 1.287 . S
C4197 C4196 1.287 . S
C4197 C4198 1.524 . S
C4197 H4200 0.999 . S
C4198 H4168 0.950 1_556 S
C4198 C4197 1.524 . S
C4198 C4199 1.414 1_556 S
C4199 H4169 0.968 . S
C4199 C4194 1.347 1_554 S
C4199 C4198 1.414 1_554 S
H4200 C4197 0.999 . S
H4201 C4182 0.913 . S
H4202 C4220 0.951 . S
H4203 C4222 0.951 . S
H4204 C4224 0.950 . S
H4205 C4225 0.950 . S
H4206 C4227 0.950 . S
H4207 C4230 0.950 . S
H4208 C4231 0.950 . S
H4209 C4233 0.950 . S
H4210 C4234 0.950 . S
H4211 C4235 0.951 . S
H4212 C4237 0.951 . S
H4213 C4239 0.950 . S
H4214 C4240 0.950 . S
H4215 C4242 0.950 . S
H4216 C4245 0.950 . S
H4217 C4246 0.950 . S
H4218 C4248 0.950 . S
H4219 C4249 0.950 . S
C4220 H4202 0.951 . S
C4220 C4221 1.366 . S
C4220 C4222 1.388 . S
C4221 C4220 1.366 . S
C4221 C4225 1.385 . S
C4222 H4203 0.951 . S
C4222 C4220 1.388 . S
C4222 C4223 1.366 . S
C4223 C4222 1.366 . S
C4223 C4224 1.414 . S
C4223 C4226 1.499 . S
C4224 H4204 0.950 . S
C4224 C4223 1.414 . S
C4224 C4225 1.374 . S
C4225 H4205 0.950 . S
C4225 C4221 1.385 . S
C4225 C4224 1.374 . S
C4226 C4223 1.499 . S
C4226 C4227 1.373 . S
C4226 C4228 1.389 . S
C4227 H4206 0.950 . S
C4227 C4226 1.373 . S
C4227 C4243 1.377 . S
C4228 C4226 1.389 . S
C4228 C4229 1.524 . S
C4228 C4242 1.377 . S
C4229 C4228 1.524 . S
C4229 C4230 1.397 . S
C4229 C4234 1.363 . S
C4230 H4207 0.950 . S
C4230 C4229 1.397 . S
C4230 C4231 1.334 . S
C4231 H4208 0.950 . S
C4231 C4230 1.334 . S
C4231 C4232 1.287 . S
C4232 C4231 1.287 . S
C4232 C4233 1.524 . S
C4232 H4251 0.913 . S
C4233 H4209 0.950 . S
C4233 C4232 1.524 . S
C4233 C4234 1.415 . S
C4234 H4210 0.950 . S
C4234 C4229 1.363 . S
C4234 C4233 1.415 . S
C4235 H4211 0.951 . S
C4235 C4236 1.366 . S
C4235 C4237 1.388 . S
C4236 C4235 1.366 . S
C4236 C4240 1.385 . S
C4237 H4212 0.951 . S
C4237 C4235 1.388 . S
C4237 C4238 1.366 . S
C4238 C4237 1.366 . S
C4238 C4239 1.414 . S
C4238 C4241 1.499 . S
C4239 H4213 0.950 . S
C4239 C4238 1.414 . S
C4239 C4240 1.374 . S
C4240 H4214 0.950 . S
C4240 C4236 1.385 . S
C4240 C4239 1.374 . S
C4241 C4238 1.499 . S
C4241 C4242 1.373 . S
C4241 C4243 1.389 . S
C4242 H4215 0.950 . S
C4242 C4228 1.377 . S
C4242 C4241 1.373 . S
C4243 C4227 1.377 . S
C4243 C4241 1.389 . S
C4243 C4244 1.524 . S
C4244 C4243 1.524 . S
C4244 C4245 1.397 . S
C4244 C4249 1.363 . S
C4245 H4216 0.950 . S
C4245 C4244 1.397 . S
C4245 C4246 1.334 . S
C4246 H4217 0.950 . S
C4246 C4245 1.334 . S
C4246 C4247 1.287 . S
C4247 C4246 1.287 . S
C4247 C4248 1.524 . S
C4247 H4250 0.999 . S
C4248 H4218 0.950 . S
C4248 C4247 1.524 . S
C4248 C4249 1.415 . S
C4249 H4219 0.950 . S
C4249 C4244 1.363 . S
C4249 C4248 1.415 . S
H4250 C4247 0.999 . S
H4251 C4232 0.913 . S
H4252 C4270 0.951 . S
H4253 C4272 0.951 . S
H4254 C4274 0.950 . S
H4255 C4275 0.950 . S
H4256 C4277 0.950 . S
H4257 C4280 0.950 . S
H4258 C4281 0.950 . S
H4259 C4283 0.950 . S
H4260 C4284 0.950 . S
H4261 C4285 0.951 . S
H4262 C4287 0.951 . S
H4263 C4289 0.950 . S
H4264 C4290 0.950 . S
H4265 C4292 0.950 . S
H4266 C4295 0.950 . S
H4267 C4296 0.950 . S
H4268 C4298 0.950 . S
H4269 C4299 0.950 . S
C4270 H4252 0.951 . S
C4270 C4271 1.366 . S
C4270 C4272 1.388 . S
C4271 C4270 1.366 . S
C4271 C4275 1.385 . S
C4272 H4253 0.951 . S
C4272 C4270 1.388 . S
C4272 C4273 1.366 . S
C4273 C4272 1.366 . S
C4273 C4274 1.414 . S
C4273 C4276 1.499 . S
C4274 H4254 0.950 . S
C4274 C4273 1.414 . S
C4274 C4275 1.374 . S
C4275 H4255 0.950 . S
C4275 C4271 1.385 . S
C4275 C4274 1.374 . S
C4276 C4273 1.499 . S
C4276 C4277 1.373 . S
C4276 C4278 1.389 . S
C4277 H4256 0.950 . S
C4277 C4276 1.373 . S
C4277 C4293 1.377 . S
C4278 C4276 1.389 . S
C4278 C4279 1.524 . S
C4278 C4292 1.377 . S
C4279 C4278 1.524 . S
C4279 C4280 1.397 . S
C4279 C4284 1.363 . S
C4280 H4257 0.950 . S
C4280 C4279 1.397 . S
C4280 C4281 1.334 . S
C4281 H4258 0.950 . S
C4281 C4280 1.334 . S
C4281 C4282 1.287 . S
C4282 C4281 1.287 . S
C4282 C4283 1.524 . S
C4282 H4301 0.913 . S
C4283 H4259 0.950 . S
C4283 C4282 1.524 . S
C4283 C4284 1.415 . S
C4284 H4260 0.950 . S
C4284 C4279 1.363 . S
C4284 C4283 1.415 . S
C4285 H4261 0.951 . S
C4285 C4286 1.366 . S
C4285 C4287 1.388 . S
C4286 C4285 1.366 . S
C4286 C4290 1.385 . S
C4287 H4262 0.951 . S
C4287 C4285 1.388 . S
C4287 C4288 1.366 . S
C4288 C4287 1.366 . S
C4288 C4289 1.414 . S
C4288 C4291 1.499 . S
C4289 H4263 0.950 . S
C4289 C4288 1.414 . S
C4289 C4290 1.374 . S
C4290 H4264 0.950 . S
C4290 C4286 1.385 . S
C4290 C4289 1.374 . S
C4291 C4288 1.499 . S
C4291 C4292 1.373 . S
C4291 C4293 1.389 . S
C4292 H4265 0.950 . S
C4292 C4278 1.377 . S
C4292 C4291 1.373 . S
C4293 C4277 1.377 . S
C4293 C4291 1.389 . S
C4293 C4294 1.524 . S
C4294 C4293 1.524 . S
C4294 C4295 1.397 . S
C4294 C4299 1.363 . S
C4295 H4266 0.950 . S
C4295 C4294 1.397 . S
C4295 C4296 1.334 . S
C4296 H4267 0.950 . S
C4296 C4295 1.334 . S
C4296 C4297 1.287 . S
C4297 C4296 1.287 . S
C4297 C4298 1.524 . S
C4297 H4300 0.999 . S
C4298 H4268 0.950 . S
C4298 C4297 1.524 . S
C4298 C4299 1.415 . S
C4299 H4269 0.950 . S
C4299 C4294 1.363 . S
C4299 C4298 1.415 . S
H4300 C4297 0.999 . S
H4301 C4282 0.913 . S
H4302 C4320 0.951 . S
H4303 C4322 0.951 . S
H4304 C4324 0.950 . S
H4305 C4325 0.950 . S
H4306 C4327 0.950 . S
H4307 C4330 0.950 . S
H4308 C4331 0.950 . S
H4309 C4333 0.950 . S
H4310 C4334 0.950 . S
H4311 C4335 0.951 . S
H4312 C4337 0.951 . S
H4313 C4339 0.950 . S
H4314 C4340 0.950 . S
H4315 C4342 0.950 . S
H4316 C4345 0.950 . S
H4317 C4346 0.950 . S
H4318 C4348 0.950 . S
H4319 C4349 0.950 . S
C4320 H4302 0.951 . S
C4320 C4321 1.366 . S
C4320 C4322 1.388 . S
C4321 C4320 1.366 . S
C4321 C4325 1.385 . S
C4322 H4303 0.951 . S
C4322 C4320 1.388 . S
C4322 C4323 1.366 . S
C4323 C4322 1.366 . S
C4323 C4324 1.414 . S
C4323 C4326 1.499 . S
C4324 H4304 0.950 . S
C4324 C4323 1.414 . S
C4324 C4325 1.374 . S
C4325 H4305 0.950 . S
C4325 C4321 1.385 . S
C4325 C4324 1.374 . S
C4326 C4323 1.499 . S
C4326 C4327 1.373 . S
C4326 C4328 1.389 . S
C4327 H4306 0.950 . S
C4327 C4326 1.373 . S
C4327 C4343 1.377 . S
C4328 C4326 1.389 . S
C4328 C4329 1.524 . S
C4328 C4342 1.377 . S
C4329 C4328 1.524 . S
C4329 C4330 1.397 . S
C4329 C4334 1.363 . S
C4330 H4307 0.950 . S
C4330 C4329 1.397 . S
C4330 C4331 1.334 . S
C4331 H4308 0.950 . S
C4331 C4330 1.334 . S
C4331 C4332 1.287 . S
C4332 C4331 1.287 . S
C4332 C4333 1.524 . S
C4332 H4351 0.913 . S
C4333 H4309 0.950 . S
C4333 C4332 1.524 . S
C4333 C4334 1.415 . S
C4334 H4310 0.950 . S
C4334 C4329 1.363 . S
C4334 C4333 1.415 . S
C4335 H4311 0.951 . S
C4335 C4336 1.366 . S
C4335 C4337 1.388 . S
C4336 C4335 1.366 . S
C4336 C4340 1.385 . S
C4337 H4312 0.951 . S
C4337 C4335 1.388 . S
C4337 C4338 1.366 . S
C4338 C4337 1.366 . S
C4338 C4339 1.414 . S
C4338 C4341 1.499 . S
C4339 H4313 0.950 . S
C4339 C4338 1.414 . S
C4339 C4340 1.374 . S
C4340 H4314 0.950 . S
C4340 C4336 1.385 . S
C4340 C4339 1.374 . S
C4341 C4338 1.499 . S
C4341 C4342 1.373 . S
C4341 C4343 1.389 . S
C4342 H4315 0.950 . S
C4342 C4328 1.377 . S
C4342 C4341 1.373 . S
C4343 C4327 1.377 . S
C4343 C4341 1.389 . S
C4343 C4344 1.524 . S
C4344 C4343 1.524 . S
C4344 C4345 1.397 . S
C4344 C4349 1.363 . S
C4345 H4316 0.950 . S
C4345 C4344 1.397 . S
C4345 C4346 1.334 . S
C4346 H4317 0.950 . S
C4346 C4345 1.334 . S
C4346 C4347 1.287 . S
C4347 C4346 1.287 . S
C4347 C4348 1.524 . S
C4347 H4350 0.999 . S
C4348 H4318 0.950 . S
C4348 C4347 1.524 . S
C4348 C4349 1.415 . S
C4349 H4319 0.950 . S
C4349 C4344 1.363 . S
C4349 C4348 1.415 . S
H4350 C4347 0.999 . S
H4351 C4332 0.913 . S
C1171 C2 0.438 . S
C1186 C470 0.437 . S
C1221 C902 1.079 . S
C1236 C38 1.079 . S
C1271 C74 1.265 . S
C1286 C542 1.266 . S
C1321 C110 1.613 . S
C1336 C866 1.615 . S
C1371 C146 1.451 . S
C1386 C614 1.449 . S
C1421 C182 1.286 . S
C1436 C794 1.284 . S
C1471 C218 1.241 . S
C1486 C686 1.240 . S
C1521 C1118 0.462 . S
C1536 C254 0.460 . S
C1571 C758 1.448 . S
C1586 C290 1.451 . S
C1621 C326 1.286 . S
C1636 C650 1.285 . S
C1671 C830 1.241 . S
C1686 C362 1.241 . S
C1721 C398 1.613 . S
C1736 C578 1.615 . S
C1771 C506 1.078 . S
C1786 C434 1.079 . S
C1821 C722 0.461 . S
C1836 C1010 0.460 . S
C1871 C1046 0.437 . S
C1886 C938 0.438 . S
C1921 C1082 1.266 . S
C1936 C974 1.265 . S
C1971 C14 1.364 . S
C1986 C39 1.466 . S
C2021 C76 1.319 . S
C2036 C40 1.328 . S
C2071 C122 1.519 . S
C2086 C86 1.490 . S
C2121 C111 1.372 . S
C2136 C4 1.361 . S
C2171 C266 1.331 . S
C2186 C147 1.438 . S
C2221 C183 1.517 . S
C2236 C158 1.432 . S
C2271 C230 1.697 . S
C2286 C194 1.706 . S
C2321 C220 1.626 . S
C2336 C255 1.633 . S
C2371 C328 1.852 . S
C2386 C3 1.861 . S
C2421 C292 1.323 . S
C2436 C112 1.315 . S
C2471 C363 1.323 . S
C2486 C50 1.240 . S
C2521 C975 1.661 . S
C2536 C256 1.649 . S
C2571 C1012 1.649 . S
C2586 C75 1.661 . S
C2621 C400 1.314 . S
C2636 C148 1.324 . S
C2671 C219 1.323 . S
C2686 C446 1.240 . S
C2721 C508 1.637 . S
C2736 C472 1.631 . S
C2771 C554 1.600 . S
C2786 C507 1.691 . S
C2821 C580 1.465 . S
C2836 C544 1.468 . S
C2871 C482 1.633 . S
C2886 C579 1.735 . S
C2921 C616 1.599 . S
C2936 C723 1.618 . S
C2971 C626 1.275 . S
C2986 C662 1.273 . S
C3021 C687 1.111 . S
C3036 C651 1.109 . S
C3071 C688 1.460 . S
C3086 C734 1.368 . S
C3121 C471 1.452 . S
C3136 C796 1.426 . S
C3171 C759 1.642 . S
C3186 C590 1.531 . S
C3221 C842 1.560 . S
C3236 C518 1.557 . S
C3271 C1083 1.759 . S
C3286 C724 1.743 . S
C3321 C1120 1.744 . S
C3336 C543 1.759 . S
C3371 C615 1.642 . S
C3386 C878 1.530 . S
C3421 C914 1.557 . S
C3436 C698 1.561 . S
C3471 C435 1.466 . S
C3486 C950 1.365 . S
C3521 C976 1.320 . S
C3536 C436 1.328 . S
C3571 C410 1.519 . S
C3586 C986 1.491 . S
C3621 C399 1.371 . S
C3636 C940 1.360 . S
C3671 C291 1.438 . S
C3686 C1022 1.331 . S
C3721 C327 1.517 . S
C3736 C302 1.431 . S
C3771 C374 1.696 . S
C3786 C338 1.706 . S
C3821 C364 1.626 . S
C3836 C1011 1.633 . S
C3871 C939 1.861 . S
C3886 C184 1.852 . S
C3921 C904 1.637 . S
C3936 C1048 1.630 . S
C3971 C903 1.691 . S
C3986 C1094 1.600 . S
C4021 C1084 1.468 . S
C4036 C868 1.464 . S
C4071 C867 1.735 . S
C4086 C1058 1.633 . S
C4121 C1119 1.618 . S
C4136 C760 1.599 . S
C4171 C770 1.273 . S
C4186 C806 1.271 . S
C4221 C831 1.111 . S
C4236 C795 1.110 . S
C4271 C832 1.460 . S
C4286 C1130 1.368 . S
C4321 C1047 1.452 . S
C4336 C652 1.426 . S
