# Generated by pormake.
# Topology umg, (4)-cn, num edge types: 1
# Building blocks:
#     Node 0, Type 0, BuildingBlock: NAWXER_clean_sbu_0, # of connection points: 4
#     Node 1, Type 0, BuildingBlock: NAWXER_clean_sbu_0, # of connection points: 4
#     Node 2, Type 0, BuildingBlock: NAWXER_clean_sbu_0, # of connection points: 4
#     Node 3, Type 0, BuildingBlock: NAWXER_clean_sbu_0, # of connection points: 4
#     Node 4, Type 0, BuildingBlock: NAWXER_clean_sbu_0, # of connection points: 4
#     Node 5, Type 0, BuildingBlock: NAWXER_clean_sbu_0, # of connection points: 4
#     Node 6, Type 0, BuildingBlock: NAWXER_clean_sbu_0, # of connection points: 4
#     Node 7, Type 0, BuildingBlock: NAWXER_clean_sbu_0, # of connection points: 4
#     Node 8, Type 0, BuildingBlock: NAWXER_clean_sbu_0, # of connection points: 4
#     Node 9, Type 0, BuildingBlock: NAWXER_clean_sbu_0, # of connection points: 4
#     Node 10, Type 0, BuildingBlock: NAWXER_clean_sbu_0, # of connection points: 4
#     Node 11, Type 0, BuildingBlock: NAWXER_clean_sbu_0, # of connection points: 4
#     Edge 12, Type (0, 0), BuildingBlock: ZUJKAS_clean_linker_0, # of connection points: 2
#     Edge 13, Type (0, 0), BuildingBlock: ZUJKAS_clean_linker_0, # of connection points: 2
#     Edge 14, Type (0, 0), BuildingBlock: ZUJKAS_clean_linker_0, # of connection points: 2
#     Edge 15, Type (0, 0), BuildingBlock: ZUJKAS_clean_linker_0, # of connection points: 2
#     Edge 16, Type (0, 0), BuildingBlock: ZUJKAS_clean_linker_0, # of connection points: 2
#     Edge 17, Type (0, 0), BuildingBlock: ZUJKAS_clean_linker_0, # of connection points: 2
#     Edge 18, Type (0, 0), BuildingBlock: ZUJKAS_clean_linker_0, # of connection points: 2
#     Edge 19, Type (0, 0), BuildingBlock: ZUJKAS_clean_linker_0, # of connection points: 2
#     Edge 20, Type (0, 0), BuildingBlock: ZUJKAS_clean_linker_0, # of connection points: 2
#     Edge 21, Type (0, 0), BuildingBlock: ZUJKAS_clean_linker_0, # of connection points: 2
#     Edge 22, Type (0, 0), BuildingBlock: ZUJKAS_clean_linker_0, # of connection points: 2
#     Edge 23, Type (0, 0), BuildingBlock: ZUJKAS_clean_linker_0, # of connection points: 2
#     Edge 24, Type (0, 0), BuildingBlock: ZUJKAS_clean_linker_0, # of connection points: 2
#     Edge 25, Type (0, 0), BuildingBlock: ZUJKAS_clean_linker_0, # of connection points: 2
#     Edge 26, Type (0, 0), BuildingBlock: ZUJKAS_clean_linker_0, # of connection points: 2
#     Edge 27, Type (0, 0), BuildingBlock: ZUJKAS_clean_linker_0, # of connection points: 2
#     Edge 28, Type (0, 0), BuildingBlock: ZUJKAS_clean_linker_0, # of connection points: 2
#     Edge 29, Type (0, 0), BuildingBlock: ZUJKAS_clean_linker_0, # of connection points: 2
#     Edge 30, Type (0, 0), BuildingBlock: ZUJKAS_clean_linker_0, # of connection points: 2
#     Edge 31, Type (0, 0), BuildingBlock: ZUJKAS_clean_linker_0, # of connection points: 2
#     Edge 32, Type (0, 0), BuildingBlock: ZUJKAS_clean_linker_0, # of connection points: 2
#     Edge 33, Type (0, 0), BuildingBlock: ZUJKAS_clean_linker_0, # of connection points: 2
#     Edge 34, Type (0, 0), BuildingBlock: ZUJKAS_clean_linker_0, # of connection points: 2
#     Edge 35, Type (0, 0), BuildingBlock: ZUJKAS_clean_linker_0, # of connection points: 2
# Relax obj value: 0.016
# Max RMSD: 0.161
# Mean RMSD: 0.161
data_MOF--net-umg--node1-NAWXER_clean_sbu_0--edge1-ZUJKAS_clean_linker_0
_symmetry_space_group_name_H-M    P1
_symmetry_Int_Tables_number       1
_symmetry_cell_setting            triclinic
loop_
_symmetry_equiv_pos_as_xyz
'x, y, z'
_cell_length_a     38.31322
_cell_length_b     38.298722
_cell_length_c     113.7625
_cell_angle_alpha  89.964688
_cell_angle_beta   89.976025
_cell_angle_gamma 120.02423
loop_
_atom_site_label
_atom_site_type_symbol
_atom_site_fract_x
_atom_site_fract_y
_atom_site_fract_z
_atom_type_partial_charge
C0 C 0.20555 0.53315 0.08913 0.0
C1 C 0.33325 0.53381 0.08986 0.0
O2 O 0.21138 0.50342 0.09012 0.0
Zn3 Zn 0.2694 0.5336 0.08948 0.0
O4 O 0.23597 0.56889 0.08811 0.0
Zn5 Zn 0.30093 0.59664 0.0875 0.0
O6 O 0.31392 0.62139 0.07223 0.0
O7 O 0.28074 0.55494 0.07153 0.0
O8 O 0.33843 0.56943 0.08868 0.0
O9 O 0.29769 0.50397 0.09068 0.0
O10 O 0.28481 0.56753 0.1057 0.0
O11 O 0.31761 0.63194 0.10085 0.0
C12 C 0.298 0.58914 0.06623 0.0
C13 C 0.30316 0.60482 0.10873 0.0
C14 C 0.70424 0.30228 0.44214 0.0
C15 C 0.71593 0.29551 0.39974 0.0
O16 O 0.69313 0.31772 0.43414 0.0
Zn17 Zn 0.71088 0.29928 0.42091 0.0
O18 O 0.72212 0.28276 0.43931 0.0
Zn19 Zn 0.74164 0.26731 0.42337 0.0
O20 O 0.79939 0.29527 0.42518 0.0
O21 O 0.77561 0.33621 0.42174 0.0
O22 O 0.73272 0.27841 0.40521 0.0
O23 O 0.69931 0.31151 0.40558 0.0
O24 O 0.67309 0.23421 0.42168 0.0
O25 O 0.71368 0.20946 0.42408 0.0
C26 C 0.80555 0.33069 0.42353 0.0
C27 C 0.67823 0.20372 0.42289 0.0
C28 C 0.40619 0.70349 0.77539 0.0
C29 C 0.42338 0.71497 0.73291 0.0
O30 O 0.37931 0.69108 0.76746 0.0
Zn31 Zn 0.41503 0.70993 0.75418 0.0
O32 O 0.44355 0.72244 0.77243 0.0
Zn33 Zn 0.47801 0.74139 0.7563 0.0
O34 O 0.5076 0.7993 0.75759 0.0
O35 O 0.44223 0.77459 0.75544 0.0
O36 O 0.45734 0.7318 0.73831 0.0
O37 O 0.3909 0.69847 0.73882 0.0
O38 O 0.44271 0.67269 0.75485 0.0
O39 O 0.50812 0.71352 0.75698 0.0
C40 C 0.4778 0.80502 0.75672 0.0
C41 C 0.47839 0.67797 0.75594 0.0
C42 C 0.70655 0.40467 0.10892 0.0
C43 C 0.7109 0.41874 0.06634 0.0
O44 O 0.69193 0.37719 0.10116 0.0
Zn45 Zn 0.70838 0.41195 0.08765 0.0
O46 O 0.72493 0.44182 0.10572 0.0
Zn47 Zn 0.7402 0.4751 0.08938 0.0
O48 O 0.71216 0.50499 0.09049 0.0
O49 O 0.67114 0.43947 0.08881 0.0
O50 O 0.72838 0.45309 0.07153 0.0
O51 O 0.69495 0.38667 0.07245 0.0
O52 O 0.77333 0.43948 0.08811 0.0
O53 O 0.79823 0.50506 0.08987 0.0
C54 C 0.67652 0.4752 0.08986 0.0
C55 C 0.80388 0.47519 0.08898 0.0
C56 C 0.30762 0.70365 0.44219 0.0
C57 C 0.29728 0.71047 0.39973 0.0
O58 O 0.31889 0.68811 0.43427 0.0
Zn59 Zn 0.30157 0.70656 0.42094 0.0
O60 O 0.28985 0.7232 0.43925 0.0
Zn61 Zn 0.27084 0.73866 0.42322 0.0
O62 O 0.21304 0.71077 0.4249 0.0
O63 O 0.23681 0.66972 0.42167 0.0
O64 O 0.28038 0.72761 0.40512 0.0
O65 O 0.31359 0.69433 0.40566 0.0
O66 O 0.33944 0.77164 0.42173 0.0
O67 O 0.29884 0.79649 0.4239 0.0
C68 C 0.20686 0.67531 0.42335 0.0
C69 C 0.33432 0.80216 0.42285 0.0
C70 C 0.53597 0.20674 0.75675 0.0
C71 C 0.5358 0.334 0.75582 0.0
O72 O 0.50621 0.21258 0.75753 0.0
Zn73 Zn 0.53597 0.27047 0.75625 0.0
O74 O 0.57162 0.23711 0.75551 0.0
Zn75 Zn 0.59901 0.30182 0.75419 0.0
O76 O 0.63449 0.32062 0.76753 0.0
O77 O 0.57013 0.28905 0.7724 0.0
O78 O 0.57145 0.33917 0.75477 0.0
O79 O 0.506 0.29848 0.75689 0.0
O80 O 0.55693 0.2802 0.73829 0.0
O81 O 0.62337 0.31322 0.73884 0.0
C82 C 0.60742 0.30798 0.77542 0.0
C83 C 0.59096 0.29694 0.73291 0.0
C84 C 0.47843 0.80487 0.58328 0.0
C85 C 0.47928 0.67816 0.58265 0.0
O86 O 0.50823 0.79928 0.58205 0.0
Zn87 Zn 0.47854 0.74142 0.58279 0.0
O88 O 0.44287 0.7743 0.58452 0.0
Zn89 Zn 0.41579 0.70926 0.58531 0.0
O90 O 0.39211 0.69701 0.60066 0.0
O91 O 0.45864 0.73037 0.60096 0.0
O92 O 0.44379 0.67253 0.58447 0.0
O93 O 0.50847 0.7136 0.58097 0.0
O94 O 0.44344 0.72576 0.56688 0.0
O95 O 0.37952 0.69065 0.5721 0.0
C96 C 0.42479 0.71317 0.60647 0.0
C97 C 0.40602 0.70612 0.56408 0.0
C98 C 0.70454 0.40545 0.89742 0.0
C99 C 0.71436 0.4201 0.93996 0.0
O100 O 0.69184 0.37815 0.90524 0.0
Zn101 Zn 0.71027 0.41313 0.91866 0.0
O102 O 0.72335 0.44267 0.90053 0.0
Zn103 Zn 0.74158 0.47619 0.91683 0.0
O104 O 0.79949 0.50607 0.91569 0.0
O105 O 0.775 0.44058 0.91747 0.0
O106 O 0.73126 0.45442 0.93472 0.0
O107 O 0.69837 0.388 0.93388 0.0
O108 O 0.67288 0.44071 0.91812 0.0
O109 O 0.71369 0.50626 0.91626 0.0
C110 C 0.80536 0.47631 0.91638 0.0
C111 C 0.67813 0.47644 0.91718 0.0
C112 C 0.29996 0.7133 0.2733 0.0
C113 C 0.30521 0.70298 0.23075 0.0
O114 O 0.31607 0.69711 0.26731 0.0
Zn115 Zn 0.3031 0.70879 0.252 0.0
O116 O 0.2827 0.73016 0.26798 0.0
Zn117 Zn 0.27143 0.74022 0.25007 0.0
O118 O 0.21345 0.71227 0.24948 0.0
O119 O 0.23818 0.67151 0.25143 0.0
O120 O 0.2869 0.72188 0.23385 0.0
O121 O 0.31966 0.69018 0.23859 0.0
O122 O 0.34046 0.77351 0.25075 0.0
O123 O 0.29961 0.79811 0.24888 0.0
C124 C 0.20772 0.67673 0.25045 0.0
C125 C 0.3352 0.8039 0.24959 0.0
C126 C 0.59043 0.29794 0.60647 0.0
C127 C 0.60783 0.30465 0.56403 0.0
O128 O 0.62291 0.31398 0.60056 0.0
Zn129 Zn 0.59875 0.3018 0.58527 0.0
O130 O 0.55641 0.28087 0.60108 0.0
Zn131 Zn 0.53592 0.26985 0.58298 0.0
O132 O 0.50594 0.212 0.5823 0.0
O133 O 0.57137 0.23672 0.58448 0.0
O134 O 0.57049 0.2852 0.56695 0.0
O135 O 0.63461 0.32013 0.57196 0.0
O136 O 0.57104 0.3388 0.58451 0.0
O137 O 0.50618 0.2979 0.58128 0.0
C138 C 0.53569 0.20625 0.58336 0.0
C139 C 0.53554 0.33332 0.58282 0.0
C140 C 0.3073 0.60474 0.89728 0.0
C141 C 0.29767 0.58886 0.93981 0.0
O142 O 0.32035 0.63187 0.90515 0.0
Zn143 Zn 0.30189 0.59653 0.91853 0.0
O144 O 0.28835 0.56746 0.90034 0.0
Zn145 Zn 0.27033 0.53349 0.91656 0.0
O146 O 0.21245 0.5038 0.91548 0.0
O147 O 0.23711 0.56926 0.91746 0.0
O148 O 0.28064 0.55471 0.9345 0.0
O149 O 0.3139 0.62117 0.93381 0.0
O150 O 0.33907 0.56877 0.91783 0.0
O151 O 0.29812 0.50333 0.91582 0.0
C152 C 0.20668 0.5336 0.91631 0.0
C153 C 0.33371 0.53304 0.91678 0.0
C154 C 0.71433 0.29507 0.2733 0.0
C155 C 0.70851 0.30738 0.23086 0.0
O156 O 0.6983 0.31167 0.26746 0.0
Zn157 Zn 0.71102 0.30061 0.25206 0.0
O158 O 0.7315 0.27842 0.26782 0.0
Zn159 Zn 0.74257 0.26923 0.24979 0.0
O160 O 0.80055 0.29718 0.24907 0.0
O161 O 0.77592 0.3379 0.25138 0.0
O162 O 0.72689 0.28835 0.23374 0.0
O163 O 0.69415 0.31973 0.23884 0.0
O164 O 0.67361 0.23596 0.25071 0.0
O165 O 0.71432 0.21137 0.24842 0.0
C166 C 0.80634 0.33269 0.25022 0.0
C167 C 0.67878 0.20558 0.24935 0.0
H168 H 0.33141 0.65567 0.95399 0.0
H169 H 0.3335 0.65752 0.9755 0.0
H170 H 0.26767 0.52754 0.97657 0.0
H171 H 0.26576 0.52529 0.95511 0.0
H172 H 0.26861 0.62462 0.99154 0.0
H173 H 0.36634 0.55714 0.99725 0.0
H174 H 0.36109 0.57678 0.98334 0.0
H175 H 0.32272 0.5278 0.98827 0.0
C176 C 0.31747 0.62746 0.95879 0.0
C177 C 0.29861 0.59032 0.95282 0.0
C178 C 0.31868 0.6286 0.97108 0.0
C179 C 0.30131 0.59268 0.9776 0.0
C180 C 0.28199 0.5556 0.97169 0.0
H181 H 0.26646 0.52576 0.05089 0.0
H182 H 0.26769 0.52833 0.02942 0.0
C183 C 0.28075 0.55441 0.95942 0.0
C184 C 0.30262 0.59386 0.99062 0.0
H185 H 0.33509 0.56394 0.01448 0.0
C186 C 0.2834 0.61166 0.99657 0.0
C187 C 0.32192 0.57687 0.99713 0.0
C188 C 0.34452 0.55888 0.99119 0.0
C189 C 0.282 0.61194 0.00891 0.0
C190 C 0.30094 0.59456 0.01542 0.0
C191 C 0.32052 0.57715 0.00945 0.0
C192 C 0.30022 0.59348 0.02843 0.0
C193 C 0.25927 0.62975 0.01486 0.0
C194 C 0.31851 0.6293 0.03499 0.0
C195 C 0.31784 0.62798 0.04727 0.0
C196 C 0.29904 0.59076 0.05322 0.0
C197 C 0.28112 0.55494 0.0466 0.0
C198 C 0.28181 0.55632 0.03433 0.0
H199 H 0.23855 0.63296 0.00869 0.0
H200 H 0.24146 0.61082 0.02241 0.0
H201 H 0.2811 0.66017 0.01825 0.0
H202 H 0.33357 0.6583 0.0306 0.0
H203 H 0.33211 0.65612 0.0521 0.0
H204 H 0.74897 0.26448 0.38461 0.0
H205 H 0.74833 0.26557 0.36312 0.0
H206 H 0.68139 0.32855 0.3639 0.0
H207 H 0.68225 0.32808 0.38539 0.0
H208 H 0.68104 0.23272 0.34815 0.0
H209 H 0.776 0.3983 0.34191 0.0
H210 H 0.77333 0.37381 0.35572 0.0
H211 H 0.73347 0.38304 0.35148 0.0
C212 C 0.73427 0.27876 0.38022 0.0
C213 C 0.7158 0.29635 0.38673 0.0
C214 C 0.73391 0.2793 0.36794 0.0
C215 C 0.71531 0.29762 0.36193 0.0
C216 C 0.69661 0.31496 0.36838 0.0
H217 H 0.68033 0.32704 0.2878 0.0
H218 H 0.67922 0.32658 0.30932 0.0
C219 C 0.69695 0.31446 0.38066 0.0
C220 C 0.71455 0.29758 0.34892 0.0
H221 H 0.74499 0.35936 0.32489 0.0
C222 C 0.69513 0.26038 0.34305 0.0
C223 C 0.73283 0.33375 0.34231 0.0
C224 C 0.75541 0.37452 0.34814 0.0
C225 C 0.69308 0.25835 0.33074 0.0
C226 C 0.71156 0.29451 0.32413 0.0
C227 C 0.73079 0.33172 0.32999 0.0
C228 C 0.71191 0.29435 0.31111 0.0
C229 C 0.67054 0.21755 0.32491 0.0
C230 C 0.73107 0.2768 0.305 0.0
C231 C 0.73172 0.27694 0.29273 0.0
C232 C 0.71344 0.29492 0.28631 0.0
C233 C 0.69459 0.31284 0.29247 0.0
C234 C 0.69395 0.31265 0.30476 0.0
H235 H 0.6493 0.19399 0.33109 0.0
H236 H 0.65334 0.2184 0.31717 0.0
H237 H 0.69246 0.20861 0.32185 0.0
H238 H 0.74584 0.26326 0.30974 0.0
H239 H 0.74672 0.2631 0.28828 0.0
H240 H 0.4874 0.74833 0.71779 0.0
H241 H 0.48584 0.74741 0.69632 0.0
H242 H 0.35591 0.67941 0.69705 0.0
H243 H 0.35708 0.68056 0.71856 0.0
H244 H 0.45235 0.68014 0.68145 0.0
H245 H 0.38011 0.77341 0.67488 0.0
H246 H 0.40179 0.77112 0.68875 0.0
H247 H 0.35306 0.73076 0.68444 0.0
C248 C 0.45844 0.73333 0.7134 0.0
C249 C 0.42234 0.71465 0.7199 0.0
C250 C 0.45764 0.73281 0.70113 0.0
C251 C 0.42078 0.71382 0.6951 0.0
C252 C 0.38467 0.69492 0.70154 0.0
H253 H 0.35868 0.67871 0.62089 0.0
H254 H 0.35759 0.67761 0.64239 0.0
C255 C 0.38542 0.69543 0.71383 0.0
C256 C 0.4203 0.71295 0.68208 0.0
H257 H 0.38944 0.74314 0.65792 0.0
C258 C 0.4387 0.69399 0.6763 0.0
C259 C 0.40236 0.73096 0.6754 0.0
C260 C 0.38349 0.75304 0.68115 0.0
C261 C 0.43928 0.69218 0.66398 0.0
C262 C 0.42158 0.71043 0.6573 0.0
C263 C 0.40295 0.72916 0.66308 0.0
C264 C 0.42247 0.71081 0.64428 0.0
C265 C 0.45821 0.67014 0.65824 0.0
C266 C 0.45932 0.73025 0.63823 0.0
C267 C 0.46009 0.73089 0.62595 0.0
C268 C 0.42396 0.71233 0.61948 0.0
C269 C 0.38706 0.6932 0.62559 0.0
C270 C 0.38635 0.69256 0.63787 0.0
H271 H 0.46061 0.64903 0.66445 0.0
H272 H 0.44056 0.65287 0.65046 0.0
H273 H 0.48909 0.69239 0.65526 0.0
H274 H 0.48752 0.74524 0.64301 0.0
H275 H 0.48901 0.7461 0.62153 0.0
H276 H 0.67679 0.35138 0.05238 0.0
H277 H 0.67541 0.34873 0.03087 0.0
H278 H 0.74107 0.47866 0.02939 0.0
H279 H 0.74225 0.48171 0.05084 0.0
H280 H 0.67358 0.44247 0.01447 0.0
H281 H 0.77084 0.37404 0.00904 0.0
H282 H 0.72821 0.34702 0.01861 0.0
H283 H 0.7678 0.39646 0.02268 0.0
C284 C 0.69102 0.3794 0.04748 0.0
C285 C 0.70976 0.41676 0.05334 0.0
C286 C 0.69038 0.37781 0.03519 0.0
C287 C 0.70864 0.4135 0.02856 0.0
C288 C 0.72697 0.45078 0.03436 0.0
H289 H 0.74549 0.48312 0.95541 0.0
H290 H 0.74267 0.4801 0.97686 0.0
C291 C 0.72763 0.45243 0.04663 0.0
C292 C 0.70806 0.4122 0.01554 0.0
H293 H 0.74161 0.38282 0.9918 0.0
C294 C 0.68846 0.42945 0.0095 0.0
C295 C 0.72738 0.39506 0.00911 0.0
C296 C 0.75007 0.37736 0.01516 0.0
C297 C 0.68752 0.4299 0.99717 0.0
C298 C 0.70733 0.41329 0.99074 0.0
C299 C 0.72647 0.39553 0.99677 0.0
C300 C 0.70934 0.41492 0.97773 0.0
C301 C 0.66492 0.44774 0.99115 0.0
C302 C 0.6925 0.37924 0.97113 0.0
C303 C 0.69423 0.38082 0.95884 0.0
C304 C 0.7131 0.41818 0.95296 0.0
C305 C 0.73051 0.45385 0.95964 0.0
C306 C 0.72874 0.45221 0.97191 0.0
H307 H 0.64267 0.44905 0.99713 0.0
H308 H 0.68666 0.47898 0.98831 0.0
H309 H 0.64886 0.43 0.98324 0.0
H310 H 0.67763 0.35016 0.97547 0.0
H311 H 0.68064 0.35279 0.95397 0.0
H312 H 0.33278 0.67943 0.28754 0.0
H313 H 0.3321 0.67709 0.30907 0.0
H314 H 0.2683 0.7432 0.30999 0.0
H315 H 0.26839 0.74534 0.28854 0.0
H316 H 0.36381 0.74168 0.32518 0.0
H317 H 0.19836 0.64421 0.33052 0.0
H318 H 0.22363 0.64966 0.31667 0.0
H319 H 0.21302 0.68802 0.32156 0.0
C320 C 0.31852 0.69339 0.29232 0.0
C321 C 0.30043 0.71237 0.28631 0.0
C322 C 0.31818 0.69204 0.30461 0.0
C323 C 0.29956 0.70938 0.3111 0.0
C324 C 0.28207 0.72888 0.30514 0.0
H325 H 0.26578 0.7426 0.38445 0.0
H326 H 0.26752 0.74204 0.36297 0.0
C327 C 0.28237 0.73026 0.29287 0.0
C328 C 0.29905 0.70784 0.32411 0.0
H329 H 0.23594 0.67513 0.34783 0.0
C330 C 0.33591 0.72689 0.33015 0.0
C331 C 0.26255 0.68854 0.33054 0.0
C332 C 0.22213 0.66611 0.32451 0.0
C333 C 0.33722 0.72808 0.34249 0.0
C334 C 0.3007 0.70911 0.34891 0.0
C335 C 0.26387 0.68974 0.34287 0.0
C336 C 0.29998 0.7094 0.36193 0.0
C337 C 0.37762 0.75058 0.34853 0.0
C338 C 0.31724 0.69078 0.36846 0.0
C339 C 0.31635 0.69107 0.38074 0.0
C340 C 0.29795 0.70979 0.38672 0.0
C341 C 0.28028 0.72801 0.38013 0.0
C342 C 0.2812 0.7277 0.36786 0.0
H343 H 0.40173 0.77148 0.34243 0.0
H344 H 0.37634 0.76815 0.35611 0.0
H345 H 0.38606 0.7286 0.35189 0.0
H346 H 0.33117 0.67579 0.36405 0.0
H347 H 0.33004 0.67656 0.38554 0.0
H348 H 0.65741 0.33023 0.71856 0.0
H349 H 0.65873 0.33204 0.69704 0.0
H350 H 0.52877 0.26645 0.69632 0.0
H351 H 0.52706 0.26483 0.71778 0.0
H352 H 0.62524 0.26697 0.68107 0.0
H353 H 0.5581 0.36511 0.67559 0.0
H354 H 0.57806 0.35988 0.68944 0.0
H355 H 0.52892 0.32155 0.68465 0.0
C356 C 0.6291 0.31627 0.71383 0.0
C357 C 0.59213 0.29759 0.7199 0.0
C358 C 0.62993 0.31732 0.70154 0.0
C359 C 0.59386 0.29996 0.69511 0.0
C360 C 0.55695 0.28077 0.70113 0.0
H361 H 0.5267 0.26618 0.62174 0.0
H362 H 0.52889 0.26683 0.64323 0.0
C363 C 0.55607 0.27969 0.7134 0.0
C364 C 0.5947 0.30118 0.6821 0.0
H365 H 0.56454 0.33385 0.65833 0.0
C366 C 0.61225 0.28182 0.67608 0.0
C367 C 0.57767 0.32056 0.67564 0.0
C368 C 0.55993 0.34329 0.68164 0.0
C369 C 0.61231 0.28043 0.66375 0.0
C370 C 0.59495 0.29952 0.65729 0.0
C371 C 0.57771 0.31916 0.66331 0.0
C372 C 0.594 0.29914 0.64428 0.0
C373 C 0.62993 0.25762 0.65774 0.0
C374 C 0.62991 0.31754 0.63776 0.0
C375 C 0.6288 0.3172 0.62547 0.0
C376 C 0.5917 0.29864 0.61949 0.0
C377 C 0.55578 0.28064 0.62607 0.0
C378 C 0.55695 0.281 0.63834 0.0
H379 H 0.63292 0.23666 0.66386 0.0
H380 H 0.61101 0.24006 0.65016 0.0
H381 H 0.66042 0.2794 0.65437 0.0
H382 H 0.65882 0.3324 0.64217 0.0
H383 H 0.65703 0.33154 0.62068 0.0
H384 H 0.33932 0.6616 0.22104 0.0
H385 H 0.34202 0.64705 0.20022 0.0
H386 H 0.28142 0.71262 0.19115 0.0
H387 H 0.2781 0.72691 0.21192 0.0
H388 H 0.24772 0.6374 0.18067 0.0
H389 H 0.41355 0.72318 0.17413 0.0
H390 H 0.39716 0.68816 0.18618 0.0
H391 H 0.38932 0.73064 0.18672 0.0
C392 C 0.32684 0.6732 0.21461 0.0
C393 C 0.30852 0.69546 0.21815 0.0
C394 C 0.32862 0.66504 0.20271 0.0
C395 C 0.31239 0.67921 0.19414 0.0
C396 C 0.29428 0.70157 0.19763 0.0
H397 H 0.33847 0.68061 0.11826 0.0
H398 H 0.34095 0.69856 0.13901 0.0
C399 C 0.29245 0.70971 0.20951 0.0
C400 C 0.31255 0.6692 0.18157 0.0
H401 H 0.37439 0.68003 0.15853 0.0
C402 C 0.2754 0.6468 0.17582 0.0
C403 C 0.34873 0.6819 0.17524 0.0
C404 C 0.3895 0.70762 0.18083 0.0
C405 C 0.27342 0.63624 0.16393 0.0
C406 C 0.30956 0.64788 0.1577 0.0
C407 C 0.34674 0.67083 0.16339 0.0
C408 C 0.30927 0.63687 0.14521 0.0
C409 C 0.23267 0.61327 0.1581 0.0
C410 C 0.2913 0.59626 0.14186 0.0
C411 C 0.28975 0.58587 0.13002 0.0
C412 C 0.30638 0.61596 0.12131 0.0
C413 C 0.32526 0.65669 0.12474 0.0
C414 C 0.32676 0.66702 0.13659 0.0
H415 H 0.20907 0.61553 0.16317 0.0
H416 H 0.23364 0.62456 0.14905 0.0
H417 H 0.2237 0.58092 0.15753 0.0
H418 H 0.27829 0.57256 0.14841 0.0
H419 H 0.27523 0.55423 0.12771 0.0
H420 H 0.68891 0.35828 0.45207 0.0
H421 H 0.67694 0.36509 0.47287 0.0
H422 H 0.68755 0.26074 0.48105 0.0
H423 H 0.70139 0.255 0.46042 0.0
H424 H 0.61938 0.31827 0.48704 0.0
H425 H 0.76102 0.33626 0.50526 0.0
H426 H 0.75349 0.33826 0.48968 0.0
H427 H 0.7348 0.29041 0.49702 0.0
C428 C 0.68899 0.33701 0.45834 0.0
C429 C 0.69645 0.30634 0.45465 0.0
C430 C 0.68216 0.34092 0.47022 0.0
C431 C 0.68226 0.31401 0.4786 0.0
C432 C 0.68875 0.28278 0.47485 0.0
H433 H 0.56245 0.25759 0.54586 0.0
H434 H 0.58154 0.2626 0.5252 0.0
C435 C 0.69633 0.27931 0.46303 0.0
C436 C 0.67386 0.31744 0.49117 0.0
H437 H 0.70696 0.31772 0.51905 0.0
C438 C 0.63882 0.31864 0.49403 0.0
C439 C 0.69958 0.31882 0.50032 0.0
C440 C 0.73953 0.32134 0.49791 0.0
C441 C 0.62808 0.31977 0.50576 0.0
C442 C 0.65225 0.31808 0.51492 0.0
C443 C 0.68803 0.31833 0.51205 0.0
C444 C 0.64065 0.31523 0.5275 0.0
C445 C 0.59122 0.32329 0.50817 0.0
C446 C 0.6681 0.34206 0.5358 0.0
C447 C 0.65761 0.33857 0.5477 0.0
C448 C 0.61932 0.30841 0.55149 0.0
C449 C 0.59197 0.28152 0.54318 0.0
C450 C 0.60273 0.28456 0.53134 0.0
H451 H 0.58498 0.33832 0.50077 0.0
H452 H 0.5646 0.29265 0.50915 0.0
H453 H 0.59467 0.34057 0.51634 0.0
H454 H 0.69765 0.36579 0.53308 0.0
H455 H 0.67931 0.35972 0.55391 0.0
H456 H 0.45626 0.72329 0.79438 0.0
H457 H 0.43735 0.70732 0.81503 0.0
H458 H 0.31164 0.64897 0.80556 0.0
H459 H 0.33019 0.66506 0.78485 0.0
H460 H 0.33291 0.70108 0.82545 0.0
H461 H 0.38883 0.59281 0.82909 0.0
H462 H 0.42513 0.64163 0.82351 0.0
H463 H 0.38057 0.60989 0.81512 0.0
C464 C 0.42456 0.70715 0.79667 0.0
C465 C 0.39472 0.69522 0.78795 0.0
C466 C 0.41384 0.69791 0.80847 0.0
C467 C 0.37313 0.67646 0.81178 0.0
C468 C 0.34324 0.66537 0.80316 0.0
H469 H 0.28068 0.55414 0.87835 0.0
H470 H 0.29464 0.57207 0.85758 0.0
C471 C 0.35392 0.67455 0.79134 0.0
C472 C 0.36176 0.66531 0.82423 0.0
H473 H 0.36889 0.61048 0.8468 0.0
C474 C 0.34063 0.68119 0.83013 0.0
C475 C 0.37146 0.63894 0.83024 0.0
C476 C 0.39242 0.61948 0.82416 0.0
C477 C 0.32954 0.67194 0.84199 0.0
C478 C 0.34038 0.64658 0.8481 0.0
C479 C 0.3609 0.63018 0.84212 0.0
C480 C 0.3305 0.63629 0.86068 0.0
C481 C 0.30584 0.68891 0.84781 0.0
C482 C 0.34613 0.66647 0.86932 0.0
C483 C 0.33811 0.65635 0.88121 0.0
C484 C 0.3146 0.61579 0.88468 0.0
C485 C 0.29889 0.58567 0.87599 0.0
C486 C 0.30684 0.59584 0.86411 0.0
H487 H 0.29094 0.69862 0.84125 0.0
H488 H 0.28247 0.66639 0.85378 0.0
H489 H 0.3266 0.71565 0.85311 0.0
H490 H 0.36517 0.69781 0.86688 0.0
H491 H 0.35087 0.68026 0.88768 0.0
H492 H 0.67174 0.32937 0.11882 0.0
H493 H 0.66898 0.31252 0.13967 0.0
H494 H 0.73107 0.43899 0.14845 0.0
H495 H 0.73444 0.4562 0.12764 0.0
H496 H 0.764 0.39693 0.15905 0.0
H497 H 0.59832 0.31866 0.16573 0.0
H498 H 0.61408 0.2994 0.1537 0.0
H499 H 0.62271 0.35002 0.15307 0.0
C500 C 0.68455 0.35361 0.12519 0.0
C501 C 0.70328 0.39414 0.12155 0.0
C502 C 0.68272 0.3439 0.13711 0.0
C503 C 0.69934 0.3745 0.14561 0.0
C504 C 0.71789 0.41493 0.14202 0.0
H505 H 0.67373 0.34876 0.22159 0.0
H506 H 0.67126 0.36505 0.20091 0.0
C507 C 0.71976 0.42468 0.13012 0.0
C508 C 0.69916 0.36451 0.1582 0.0
H509 H 0.63725 0.31386 0.18127 0.0
C510 C 0.7363 0.37889 0.16392 0.0
C511 C 0.66296 0.34135 0.16456 0.0
C512 C 0.62222 0.32674 0.159 0.0
C513 C 0.73826 0.37018 0.1758 0.0
C514 C 0.70209 0.3459 0.18206 0.0
C515 C 0.66491 0.33212 0.17641 0.0
C516 C 0.70235 0.33475 0.19451 0.0
C517 C 0.77903 0.38751 0.18159 0.0
C518 C 0.71996 0.31166 0.19772 0.0
C519 C 0.72149 0.30235 0.20951 0.0
C520 C 0.70521 0.31578 0.21832 0.0
C521 C 0.68667 0.33807 0.21504 0.0
C522 C 0.68518 0.34737 0.20323 0.0
H523 H 0.80272 0.41343 0.17656 0.0
H524 H 0.77825 0.39762 0.19069 0.0
H525 H 0.78772 0.36392 0.18206 0.0
H526 H 0.73269 0.30097 0.19109 0.0
H527 H 0.73575 0.2849 0.21172 0.0
H528 H 0.33449 0.65026 0.55421 0.0
H529 H 0.31562 0.64331 0.53341 0.0
H530 H 0.43088 0.74716 0.52512 0.0
H531 H 0.45053 0.75305 0.54574 0.0
H532 H 0.30524 0.69029 0.51919 0.0
H533 H 0.42815 0.671 0.501 0.0
H534 H 0.41868 0.66922 0.51658 0.0
H535 H 0.44812 0.71695 0.5092 0.0
C536 C 0.35588 0.67139 0.54792 0.0
C537 C 0.39412 0.70197 0.55158 0.0
C538 C 0.34509 0.6674 0.53604 0.0
C539 C 0.37217 0.69413 0.52763 0.0
C540 C 0.40999 0.72526 0.53135 0.0
H541 H 0.30958 0.7509 0.46035 0.0
H542 H 0.32346 0.74579 0.48101 0.0
C543 C 0.42107 0.72881 0.54317 0.0
C544 C 0.36031 0.69062 0.51506 0.0
H545 H 0.39297 0.68985 0.48719 0.0
C546 C 0.32421 0.6897 0.5122 0.0
C547 C 0.38452 0.68895 0.50592 0.0
C548 C 0.42176 0.68611 0.50834 0.0
C549 C 0.31239 0.68859 0.50047 0.0
C550 C 0.33814 0.69 0.49131 0.0
C551 C 0.3735 0.68945 0.49418 0.0
C552 C 0.32948 0.6929 0.47873 0.0
C553 C 0.27215 0.6854 0.49806 0.0
C554 C 0.32992 0.66595 0.47043 0.0
C555 C 0.32304 0.66949 0.45853 0.0
C556 C 0.31521 0.69982 0.45473 0.0
C557 C 0.31493 0.72684 0.46303 0.0
C558 C 0.32254 0.72374 0.47488 0.0
H559 H 0.25082 0.67051 0.50546 0.0
H560 H 0.27643 0.71613 0.49707 0.0
H561 H 0.25823 0.66814 0.48989 0.0
H562 H 0.3355 0.64207 0.47317 0.0
H563 H 0.32344 0.64824 0.45233 0.0
H564 H 0.72749 0.45647 0.87854 0.0
H565 H 0.71241 0.4386 0.8578 0.0
H566 H 0.64881 0.3124 0.86697 0.0
H567 H 0.66411 0.32989 0.88775 0.0
H568 H 0.70079 0.33118 0.84746 0.0
H569 H 0.60036 0.39619 0.84305 0.0
H570 H 0.64967 0.43059 0.84869 0.0
H571 H 0.61585 0.3869 0.85714 0.0
C572 C 0.71037 0.42488 0.87616 0.0
C573 C 0.69677 0.3946 0.88482 0.0
C574 C 0.70163 0.41476 0.86431 0.0
C575 C 0.67896 0.37422 0.86089 0.0
C576 C 0.66618 0.34388 0.86945 0.0
H577 H 0.55679 0.28437 0.79436 0.0
H578 H 0.57489 0.29889 0.81509 0.0
C579 C 0.67491 0.35396 0.88132 0.0
C580 C 0.66827 0.36347 0.84839 0.0
H581 H 0.61682 0.37425 0.82551 0.0
C582 C 0.68238 0.3405 0.84264 0.0
C583 C 0.64381 0.37526 0.8422 0.0
C584 C 0.62618 0.39828 0.84809 0.0
C585 C 0.67316 0.3295 0.83079 0.0
C586 C 0.64966 0.34228 0.82452 0.0
C587 C 0.63511 0.36477 0.83032 0.0
C588 C 0.63922 0.33221 0.81196 0.0
C589 C 0.68804 0.30372 0.82514 0.0
C590 C 0.66942 0.34625 0.80333 0.0
C591 C 0.6592 0.33795 0.79145 0.0
C592 C 0.61854 0.31568 0.788 0.0
C593 C 0.5884 0.30157 0.7967 0.0
C594 C 0.59866 0.30985 0.80856 0.0
H595 H 0.69666 0.28818 0.83181 0.0
H596 H 0.66469 0.28068 0.81929 0.0
H597 H 0.71506 0.32313 0.81974 0.0
H598 H 0.70088 0.36423 0.80575 0.0
H599 H 0.68314 0.34944 0.78497 0.0
H600 H 0.87567 0.54662 0.08937 0.0
H601 H 0.94378 0.55608 0.08916 0.0
H602 H 0.89389 0.42715 0.0886 0.0
H603 H 0.82583 0.41738 0.0886 0.0
H604 H 0.98016 0.52997 0.10512 0.0
H605 H 0.97253 0.4637 0.06119 0.0
H606 H 0.93594 0.47709 0.06608 0.0
H607 H 0.93258 0.43078 0.07091 0.0
C608 C 0.87917 0.52027 0.08915 0.0
C609 C 0.84526 0.48124 0.08893 0.0
C610 C 0.91812 0.52574 0.08904 0.0
C611 C 0.92393 0.49235 0.08866 0.0
C612 C 0.89016 0.45338 0.08861 0.0
H613 H 0.13393 0.46161 0.09013 0.0
H614 H 0.0657 0.45193 0.0903 0.0
C615 C 0.85123 0.44786 0.08868 0.0
C616 C 0.96528 0.49823 0.08862 0.0
H617 H 0.02923 0.47783 0.07302 0.0
C618 C 0.99098 0.51878 0.09807 0.0
C619 C 0.97931 0.48353 0.07942 0.0
C620 C 0.95382 0.46287 0.06877 0.0
C621 C 0.03009 0.52443 0.09868 0.0
C622 C 0.04403 0.50959 0.08951 0.0
C623 C 0.01837 0.48903 0.08006 0.0
C624 C 0.08537 0.51557 0.08948 0.0
C625 C 0.05593 0.54555 0.10923 0.0
C626 C 0.11898 0.55453 0.08881 0.0
C627 C 0.15795 0.56019 0.08869 0.0
C628 C 0.1641 0.52693 0.0892 0.0
C629 C 0.1303 0.48788 0.08977 0.0
C630 C 0.09129 0.48227 0.08985 0.0
H631 H 0.03768 0.54624 0.11673 0.0
H632 H 0.07288 0.53057 0.11214 0.0
H633 H 0.0781 0.57715 0.10684 0.0
H634 H 0.11504 0.5806 0.0883 0.0
H635 H 0.18325 0.59067 0.0882 0.0
H636 H 0.67828 0.13229 0.42399 0.0
H637 H 0.61993 0.06399 0.42394 0.0
H638 H 0.54028 0.11282 0.42173 0.0
H639 H 0.59836 0.18125 0.42182 0.0
H640 H 0.5189 0.05127 0.43918 0.0
H641 H 0.54659 0.00536 0.3954 0.0
H642 H 0.58873 0.02572 0.40532 0.0
H643 H 0.5701 0.05745 0.39995 0.0
C644 C 0.64838 0.12855 0.42346 0.0
C645 C 0.64302 0.16227 0.42286 0.0
C646 C 0.61509 0.08948 0.42338 0.0
C647 C 0.57586 0.0834 0.42268 0.0
C648 C 0.57035 0.11692 0.42221 0.0
H649 H 0.33438 0.87369 0.4235 0.0
H650 H 0.39277 0.94188 0.42358 0.0
C651 C 0.6036 0.15599 0.42225 0.0
C652 C 0.54049 0.04208 0.42266 0.0
H653 H 0.4941 0.95465 0.40686 0.0
C654 C 0.51333 0.03014 0.43211 0.0
C655 C 0.53348 0.01464 0.41343 0.0
C656 C 0.56102 0.02638 0.40289 0.0
C657 C 0.47961 0.99115 0.43267 0.0
C658 C 0.47244 0.96372 0.4234 0.0
C659 C 0.49966 0.97571 0.41396 0.0
C660 C 0.43693 0.92239 0.42333 0.0
C661 C 0.45256 0.9794 0.44333 0.0
C662 C 0.44231 0.88877 0.42283 0.0
C663 C 0.409 0.84975 0.42267 0.0
C664 C 0.36959 0.84357 0.42297 0.0
C665 C 0.36429 0.87734 0.42336 0.0
C666 C 0.39765 0.91637 0.42347 0.0
H667 H 0.46806 0.99942 0.45093 0.0
H668 H 0.4257 0.98204 0.44121 0.0
H669 H 0.44208 0.94775 0.44596 0.0
H670 H 0.47236 0.89274 0.42265 0.0
H671 H 0.41419 0.82444 0.42234 0.0
H672 H 0.46442 0.33432 0.75655 0.0
H673 H 0.45497 0.39299 0.75634 0.0
H674 H 0.5838 0.47207 0.75513 0.0
H675 H 0.59356 0.41376 0.75513 0.0
H676 H 0.48198 0.45607 0.77213 0.0
H677 H 0.54577 0.51313 0.72783 0.0
H678 H 0.5326 0.46328 0.73284 0.0
H679 H 0.5792 0.50641 0.73739 0.0
C680 C 0.49075 0.36419 0.75619 0.0
C681 C 0.52974 0.36931 0.75578 0.0
C682 C 0.48528 0.39768 0.75607 0.0
C683 C 0.51865 0.43687 0.75551 0.0
C684 C 0.55759 0.44209 0.75528 0.0
H685 H 0.54986 0.67783 0.75681 0.0
H686 H 0.55941 0.61918 0.75699 0.0
C687 C 0.5631 0.40867 0.75535 0.0
C688 C 0.51279 0.47235 0.75547 0.0
H689 H 0.53246 0.55623 0.7397 0.0
C690 C 0.4928 0.47786 0.76501 0.0
C691 C 0.52701 0.50077 0.74617 0.0
C692 C 0.54701 0.49551 0.73542 0.0
C693 C 0.48726 0.51139 0.76561 0.0
C694 C 0.50165 0.53986 0.75635 0.0
C695 C 0.52163 0.5344 0.74681 0.0
C696 C 0.49575 0.57526 0.75632 0.0
C697 C 0.46673 0.51651 0.77626 0.0
C698 C 0.45682 0.56993 0.75575 0.0
C699 C 0.45124 0.6033 0.75561 0.0
C700 C 0.48454 0.64271 0.75603 0.0
C701 C 0.52357 0.64792 0.75652 0.0
C702 C 0.5291 0.61448 0.75661 0.0
H703 H 0.46619 0.49764 0.78375 0.0
H704 H 0.48204 0.54853 0.7791 0.0
H705 H 0.43511 0.50728 0.77399 0.0
H706 H 0.43072 0.53992 0.75531 0.0
H707 H 0.42078 0.59816 0.75519 0.0
H708 H 0.59317 0.18384 0.58384 0.0
H709 H 0.58292 0.11551 0.58354 0.0
H710 H 0.45418 0.06653 0.58268 0.0
H711 H 0.46412 0.13477 0.58275 0.0
H712 H 0.54279 0.05371 0.59934 0.0
H713 H 0.47163 0.00876 0.55533 0.0
H714 H 0.49739 0.06045 0.56028 0.0
H715 H 0.44675 0.02619 0.56508 0.0
C716 C 0.56265 0.15856 0.58353 0.0
C717 C 0.52946 0.16481 0.58325 0.0
C718 C 0.55686 0.11952 0.58337 0.0
C719 C 0.51782 0.08594 0.58289 0.0
C720 C 0.4846 0.09201 0.58277 0.0
H721 H 0.42082 0.82704 0.5844 0.0
H722 H 0.43093 0.89537 0.58451 0.0
C723 C 0.49035 0.13107 0.58288 0.0
C724 C 0.51195 0.04458 0.58283 0.0
H725 H 0.47084 0.95701 0.56705 0.0
C726 C 0.52724 0.03263 0.59225 0.0
C727 C 0.49164 0.01712 0.57357 0.0
C728 C 0.47623 0.02881 0.56293 0.0
C729 C 0.5222 0.99374 0.59277 0.0
C730 C 0.50175 0.96627 0.58355 0.0
C731 C 0.48643 0.97816 0.57412 0.0
C732 C 0.49594 0.92501 0.58351 0.0
C733 C 0.53809 0.98204 0.60329 0.0
C734 C 0.52918 0.91909 0.58277 0.0
C735 C 0.52355 0.88008 0.58268 0.0
C736 C 0.48452 0.84626 0.5833 0.0
C737 C 0.45129 0.85238 0.58395 0.0
C738 C 0.45697 0.89139 0.584 0.0
H739 H 0.54465 1.00304 0.61079 0.0
H740 H 0.51619 0.95095 0.60623 0.0
H741 H 0.5665 0.98281 0.60084 0.0
H742 H 0.55948 0.94466 0.58219 0.0
H743 H 0.54979 0.87647 0.58213 0.0
H744 H 0.41357 0.59047 0.9176 0.0
H745 H 0.47165 0.58031 0.91738 0.0
H746 H 0.39197 0.45159 0.91582 0.0
H747 H 0.33361 0.46145 0.91584 0.0
H748 H 0.49222 0.53895 0.93315 0.0
H749 H 0.46907 0.47132 0.88869 0.0
H750 H 0.44295 0.49683 0.89368 0.0
H751 H 0.42613 0.44583 0.89821 0.0
C752 C 0.40832 0.55997 0.91716 0.0
C753 C 0.36889 0.52676 0.91668 0.0
C754 C 0.44159 0.55424 0.91704 0.0
C755 C 0.43618 0.51525 0.9164 0.0
C756 C 0.39688 0.482 0.91605 0.0
H757 H 0.59829 0.41879 0.91767 0.0
H758 H 0.54009 0.42884 0.91768 0.0
C759 C 0.36354 0.48769 0.91614 0.0
C760 C 0.47171 0.50948 0.91641 0.0
H761 H 0.51957 0.47014 0.9005 0.0
C762 C 0.49832 0.52408 0.92599 0.0
C763 C 0.4796 0.49007 0.90705 0.0
C764 C 0.45317 0.47542 0.89627 0.0
C765 C 0.53225 0.5192 0.92656 0.0
C766 C 0.54002 0.49968 0.91723 0.0
C767 C 0.51345 0.48505 0.90765 0.0
C768 C 0.57553 0.49396 0.91726 0.0
C769 C 0.55907 0.53425 0.93725 0.0
C770 C 0.61476 0.52728 0.91689 0.0
C771 C 0.64815 0.52168 0.91686 0.0
C772 C 0.64289 0.4826 0.91718 0.0
C773 C 0.60347 0.4493 0.91746 0.0
C774 C 0.57014 0.45495 0.91745 0.0
H775 H 0.54404 0.54003 0.94474 0.0
H776 H 0.56817 0.51218 0.94007 0.0
H777 H 0.58682 0.56296 0.93505 0.0
H778 H 0.61953 0.55763 0.91654 0.0
H779 H 0.67806 0.54797 0.91658 0.0
H780 H 0.13602 0.67648 0.25014 0.0
H781 H 0.06787 0.61781 0.25034 0.0
H782 H 0.11759 0.53867 0.25068 0.0
H783 H 0.18568 0.59696 0.25069 0.0
H784 H 0.03129 0.55562 0.23435 0.0
H785 H 0.0393 0.49618 0.27813 0.0
H786 H 0.07592 0.54625 0.27327 0.0
H787 H 0.07913 0.5033 0.26836 0.0
C788 C 0.13247 0.64659 0.25031 0.0
C789 C 0.16633 0.64143 0.25048 0.0
C790 C 0.0935 0.61311 0.25042 0.0
C791 C 0.08766 0.57389 0.25073 0.0
C792 C 0.12137 0.56865 0.25072 0.0
H793 H 0.87797 0.33299 0.24896 0.0
H794 H 0.94615 0.39171 0.24881 0.0
C795 C 0.16031 0.60206 0.25066 0.0
C796 C 0.04631 0.53842 0.25078 0.0
H797 H 0.98257 0.45366 0.26629 0.0
C798 C 0.02054 0.53344 0.24136 0.0
C799 C 0.03238 0.50949 0.25993 0.0
C800 C 0.05796 0.51416 0.27055 0.0
C801 C 0.98144 0.49993 0.24075 0.0
C802 C 0.96764 0.47094 0.24988 0.0
C803 C 0.99335 0.47589 0.25929 0.0
C804 C 0.92636 0.43551 0.24989 0.0
C805 C 0.95548 0.4954 0.23025 0.0
C806 C 0.89273 0.44075 0.2507 0.0
C807 C 0.8538 0.40734 0.25081 0.0
C808 C 0.84773 0.36799 0.25015 0.0
C809 C 0.88156 0.36285 0.24944 0.0
C810 C 0.92052 0.39634 0.24936 0.0
H811 H 0.97361 0.51464 0.22277 0.0
H812 H 0.93863 0.46353 0.22727 0.0
H813 H 0.9332 0.50456 0.23273 0.0
H814 H 0.89663 0.47072 0.25133 0.0
H815 H 0.82847 0.41242 0.25142 0.0
H816 H 0.67663 0.54681 0.0907 0.0
H817 H 0.6182 0.55663 0.09118 0.0
H818 H 0.53852 0.42787 0.09024 0.0
H819 H 0.59659 0.41767 0.08983 0.0
H820 H 0.55484 0.52942 0.07425 0.0
H821 H 0.49733 0.46476 0.11852 0.0
H822 H 0.54791 0.47992 0.11373 0.0
H823 H 0.50616 0.43298 0.10881 0.0
C824 C 0.64669 0.52055 0.09065 0.0
C825 C 0.64132 0.48144 0.09027 0.0
C826 C 0.61335 0.52624 0.09092 0.0
C827 C 0.57407 0.49297 0.0909 0.0
C828 C 0.56859 0.45393 0.09047 0.0
H829 H 0.33355 0.46243 0.09101 0.0
H830 H 0.39216 0.45291 0.09107 0.0
C831 C 0.60186 0.4482 0.09017 0.0
C832 C 0.53879 0.49908 0.09098 0.0
H833 H 0.45552 0.48026 0.10689 0.0
C834 C 0.53321 0.51889 0.08141 0.0
C835 C 0.51056 0.48509 0.1003 0.0
C836 C 0.51581 0.46479 0.11098 0.0
C837 C 0.49971 0.52448 0.0808 0.0
C838 C 0.47152 0.51063 0.09015 0.0
C839 C 0.47713 0.49082 0.09973 0.0
C840 C 0.43609 0.51658 0.09019 0.0
C841 C 0.49431 0.54426 0.07002 0.0
C842 C 0.44134 0.55555 0.08986 0.0
C843 C 0.40795 0.5611 0.08978 0.0
C844 C 0.36858 0.52776 0.09014 0.0
C845 C 0.36342 0.48875 0.09069 0.0
C846 C 0.39688 0.48324 0.09073 0.0
H847 H 0.51184 0.54289 0.06243 0.0
H848 H 0.46207 0.52977 0.06747 0.0
H849 H 0.50519 0.5765 0.07194 0.0
H850 H 0.47132 0.58175 0.08971 0.0
H851 H 0.41307 0.59157 0.08945 0.0
H852 H 0.86752 0.34252 0.43784 0.0
H853 H 0.93501 0.40209 0.43877 0.0
H854 H 0.90481 0.45514 0.40983 0.0
H855 H 0.83646 0.39708 0.40956 0.0
H856 H 0.99451 0.43333 0.42534 0.0
H857 H 0.9495 0.54848 0.43076 0.0
H858 H 0.9134 0.49535 0.43145 0.0
H859 H 0.92861 0.52093 0.41745 0.0
C860 C 0.87535 0.36714 0.43176 0.0
C861 C 0.84683 0.36556 0.42372 0.0
C862 C 0.9139 0.40117 0.43227 0.0
C863 C 0.92493 0.43385 0.42458 0.0
C864 C 0.89674 0.43134 0.41622 0.0
H865 H 0.1764 0.608 0.4098 0.0
H866 H 0.10804 0.54998 0.41013 0.0
C867 C 0.8578 0.39794 0.41597 0.0
C868 C 0.96621 0.46984 0.42506 0.0
H869 H 0.0178 0.57282 0.42469 0.0
C870 C 0.9995 0.46382 0.42534 0.0
C871 C 0.97309 0.50981 0.42534 0.0
C872 C 0.93919 0.51898 0.42638 0.0
C873 C 0.0392 0.49638 0.42568 0.0
C874 C 0.04609 0.53631 0.42503 0.0
C875 C 0.0128 0.54234 0.42498 0.0
C876 C 0.08739 0.57226 0.4245 0.0
C877 C 0.07305 0.4873 0.42708 0.0
C878 C 0.09815 0.60544 0.43194 0.0
C879 C 0.13673 0.63941 0.43139 0.0
C880 C 0.16555 0.64046 0.42356 0.0
C881 C 0.15483 0.60759 0.41604 0.0
C882 C 0.11588 0.57421 0.41633 0.0
H883 H 0.06258 0.45811 0.43169 0.0
H884 H 0.08399 0.48475 0.41827 0.0
H885 H 0.09864 0.51128 0.43212 0.0
H886 H 0.07681 0.60495 0.43829 0.0
H887 H 0.14434 0.66442 0.43729 0.0
H888 H 0.46446 0.1352 0.75787 0.0
H889 H 0.45474 0.06696 0.75836 0.0
H890 H 0.58343 0.11621 0.75696 0.0
H891 H 0.59354 0.18446 0.75652 0.0
H892 H 0.48172 0.03086 0.74125 0.0
H893 H 0.54729 0.03831 0.78536 0.0
H894 H 0.53181 0.07356 0.78065 0.0
H895 H 0.5787 0.07897 0.77559 0.0
C896 C 0.49073 0.13156 0.75773 0.0
C897 C 0.5298 0.16534 0.75719 0.0
C898 C 0.4851 0.09254 0.758 0.0
C899 C 0.51838 0.0866 0.75786 0.0
C900 C 0.55737 0.12018 0.75729 0.0
H901 H 0.54914 0.87674 0.75781 0.0
H902 H 0.55862 0.94489 0.75789 0.0
C903 C 0.56305 0.15917 0.75697 0.0
C904 C 0.51232 0.04522 0.75792 0.0
H905 H 0.5315 0.98088 0.77375 0.0
C906 C 0.49238 0.0198 0.74838 0.0
C907 C 0.52651 0.03105 0.7672 0.0
C908 C 0.54699 0.05669 0.77785 0.0
C909 C 0.48685 0.98073 0.74776 0.0
C910 C 0.50087 0.96643 0.75707 0.0
C911 C 0.52081 0.9919 0.76662 0.0
C912 C 0.49496 0.92507 0.7571 0.0
C913 C 0.46694 0.9555 0.737 0.0
C914 C 0.45601 0.89132 0.75682 0.0
C915 C 0.45048 0.85238 0.75672 0.0
C916 C 0.48383 0.84638 0.75703 0.0
C917 C 0.52282 0.88027 0.75754 0.0
C918 C 0.5283 0.91924 0.75759 0.0
H919 H 0.46823 0.9744 0.72941 0.0
H920 H 0.48138 0.93772 0.73442 0.0
H921 H 0.43473 0.93415 0.73897 0.0
H922 H 0.42981 0.89508 0.75671 0.0
H923 H 0.42002 0.82699 0.75642 0.0
H924 H 0.52924 0.66624 0.56826 0.0
H925 H 0.5372 0.6067 0.56734 0.0
H926 H 0.45457 0.55401 0.59645 0.0
H927 H 0.44423 0.61202 0.59672 0.0
H928 H 0.56571 0.57554 0.58071 0.0
H929 H 0.40536 0.46045 0.57561 0.0
H930 H 0.42245 0.51358 0.57489 0.0
H931 H 0.41234 0.48816 0.5889 0.0
C932 C 0.51261 0.64171 0.57439 0.0
C933 C 0.4858 0.64336 0.58247 0.0
C934 C 0.51715 0.6077 0.57387 0.0
C935 C 0.49567 0.57511 0.58162 0.0
C936 C 0.47017 0.57773 0.59003 0.0
H937 H 0.57285 0.40086 0.59627 0.0
H938 H 0.56271 0.45899 0.59593 0.0
C939 C 0.4646 0.6111 0.59028 0.0
C940 C 0.5009 0.5391 0.58112 0.0
H941 H 0.44938 0.43612 0.58159 0.0
C942 C 0.54019 0.54507 0.58076 0.0
C943 C 0.46776 0.49914 0.5809 0.0
C944 C 0.42468 0.49 0.57995 0.0
C945 C 0.54726 0.51247 0.5804 0.0
C946 C 0.51419 0.47256 0.58112 0.0
C947 C 0.47489 0.46658 0.58125 0.0
C948 C 0.51948 0.43658 0.58165 0.0
C949 C 0.59015 0.52148 0.57892 0.0
C950 C 0.49685 0.40331 0.57425 0.0
C951 C 0.50135 0.36928 0.57481 0.0
C952 C 0.52922 0.36826 0.5826 0.0
C953 C 0.55161 0.40124 0.59006 0.0
C954 C 0.54615 0.43468 0.58977 0.0
H955 H 0.6088 0.55061 0.57428 0.0
H956 H 0.60382 0.52412 0.5877 0.0
H957 H 0.59161 0.49742 0.57388 0.0
H958 H 0.47589 0.40376 0.56795 0.0
H959 H 0.48379 0.34421 0.56896 0.0
H960 H 0.18431 0.5911 0.91719 0.0
H961 H 0.11598 0.58088 0.91704 0.0
H962 H 0.06702 0.45236 0.91457 0.0
H963 H 0.13523 0.46217 0.9148 0.0
H964 H 0.05501 0.54212 0.89964 0.0
H965 H 0.0076 0.46558 0.943 0.0
H966 H 0.05978 0.4939 0.93852 0.0
H967 H 0.02767 0.4439 0.93295 0.0
C968 C 0.15904 0.56061 0.91664 0.0
C969 C 0.16527 0.52742 0.91606 0.0
C970 C 0.12002 0.55487 0.91654 0.0
C971 C 0.08647 0.51586 0.91595 0.0
C972 C 0.09251 0.48268 0.91523 0.0
H973 H 0.82775 0.41882 0.91616 0.0
H974 H 0.89601 0.42904 0.91561 0.0
C975 C 0.13154 0.48838 0.91531 0.0
C976 C 0.04517 0.50999 0.91595 0.0
H977 H 0.95726 0.46798 0.93157 0.0
C978 C 0.03363 0.52603 0.90663 0.0
C979 C 0.01741 0.48894 0.92508 0.0
C980 C 0.0287 0.47234 0.93552 0.0
C981 C 0.99472 0.52096 0.90607 0.0
C982 C 0.96696 0.50001 0.91523 0.0
C983 C 0.97857 0.484 0.92455 0.0
C984 C 0.92563 0.49419 0.91531 0.0
C985 C 0.98344 0.53724 0.89556 0.0
C986 C 0.91958 0.52745 0.91543 0.0
C987 C 0.88054 0.52172 0.91569 0.0
C988 C 0.84679 0.48259 0.91597 0.0
C989 C 0.85302 0.44936 0.91595 0.0
C990 C 0.89203 0.45513 0.91564 0.0
H991 H 1.00371 0.54238 0.88796 0.0
H992 H 0.95188 0.51633 0.8928 0.0
H993 H 0.98606 0.56659 0.89789 0.0
H994 H 0.94506 0.55787 0.91546 0.0
H995 H 0.87685 0.54797 0.91579 0.0
H996 H 0.33532 0.87549 0.24875 0.0
H997 H 0.3939 0.94371 0.24821 0.0
H998 H 0.47324 0.89431 0.24905 0.0
H999 H 0.41503 0.82607 0.24953 0.0
H1000 H 0.45774 0.97942 0.26518 0.0
H1001 H 0.51388 0.97261 0.22068 0.0
H1002 H 0.46328 0.93743 0.22553 0.0
H1003 H 0.50481 0.93173 0.23033 0.0
C1004 C 0.36522 0.8791 0.24876 0.0
C1005 C 0.37047 0.84529 0.24914 0.0
C1006 C 0.39863 0.9181 0.24847 0.0
C1007 C 0.43784 0.92399 0.24844 0.0
C1008 C 0.44321 0.89037 0.24886 0.0
H1009 H 0.67849 0.13396 0.24797 0.0
H1010 H 0.61987 0.06577 0.24794 0.0
C1011 C 0.40987 0.8514 0.2492 0.0
C1012 C 0.47319 0.96533 0.24834 0.0
H1013 H 0.55597 0.02991 0.23226 0.0
C1014 C 0.47914 0.9906 0.25796 0.0
C1015 C 0.50111 0.97963 0.23894 0.0
C1016 C 0.49544 0.95414 0.22822 0.0
C1017 C 0.51272 0.02966 0.25854 0.0
C1018 C 0.54057 0.0441 0.24911 0.0
C1019 C 0.5346 0.01878 0.23948 0.0
C1020 C 0.57599 0.08548 0.24903 0.0
C1021 C 0.51855 0.05473 0.26938 0.0
C1022 C 0.57074 0.11917 0.24947 0.0
C1023 C 0.60412 0.15813 0.24953 0.0
C1024 C 0.64348 0.1642 0.24905 0.0
C1025 C 0.64862 0.13037 0.24838 0.0
C1026 C 0.61517 0.09138 0.24835 0.0
H1027 H 0.50128 0.03573 0.27699 0.0
H1028 H 0.55089 0.07244 0.27184 0.0
H1029 H 0.50765 0.07613 0.26757 0.0
H1030 H 0.54076 0.11535 0.24972 0.0
H1031 H 0.59902 0.18348 0.24996 0.0
loop_
_geom_bond_atom_site_label_1
_geom_bond_atom_site_label_2
_geom_bond_distance
_geom_bond_site_symmetry_2
_ccdc_geom_bond_type
C0 O2 1.247 . S
C0 O4 1.258 . S
C1 O8 1.247 . S
C1 O9 1.258 . S
O2 C0 1.247 . S
O2 Zn3 2.028 . S
Zn3 O2 2.028 . S
Zn3 O7 2.035 . S
Zn3 O9 2.035 . S
Zn3 O10 2.028 . S
O4 C0 1.258 . S
O4 Zn5 2.035 . S
Zn5 O4 2.035 . S
Zn5 O6 2.028 . S
Zn5 O8 2.028 . S
Zn5 O11 2.035 . S
O6 Zn5 2.028 . S
O6 C12 1.247 . S
O7 Zn3 2.035 . S
O7 C12 1.258 . S
O8 C1 1.247 . S
O8 Zn5 2.028 . S
O9 C1 1.258 . S
O9 Zn3 2.035 . S
O10 Zn3 2.028 . S
O10 C13 1.247 . S
O11 Zn5 2.035 . S
O11 C13 1.258 . S
C12 O6 1.247 . S
C12 O7 1.258 . S
C13 O10 1.247 . S
C13 O11 1.258 . S
C14 O16 1.247 . S
C14 O18 1.258 . S
C15 O22 1.247 . S
C15 O23 1.258 . S
O16 C14 1.247 . S
O16 Zn17 2.028 . S
Zn17 O16 2.028 . S
Zn17 O21 2.035 . S
Zn17 O23 2.035 . S
Zn17 O24 2.028 . S
O18 C14 1.258 . S
O18 Zn19 2.035 . S
Zn19 O18 2.035 . S
Zn19 O20 2.028 . S
Zn19 O22 2.028 . S
Zn19 O25 2.035 . S
O20 Zn19 2.028 . S
O20 C26 1.247 . S
O21 Zn17 2.035 . S
O21 C26 1.258 . S
O22 C15 1.247 . S
O22 Zn19 2.028 . S
O23 C15 1.258 . S
O23 Zn17 2.035 . S
O24 Zn17 2.028 . S
O24 C27 1.247 . S
O25 Zn19 2.035 . S
O25 C27 1.258 . S
C26 O20 1.247 . S
C26 O21 1.258 . S
C27 O24 1.247 . S
C27 O25 1.258 . S
C28 O30 1.247 . S
C28 O32 1.258 . S
C29 O36 1.247 . S
C29 O37 1.258 . S
O30 C28 1.247 . S
O30 Zn31 2.028 . S
Zn31 O30 2.028 . S
Zn31 O35 2.035 . S
Zn31 O37 2.035 . S
Zn31 O38 2.028 . S
O32 C28 1.258 . S
O32 Zn33 2.035 . S
Zn33 O32 2.035 . S
Zn33 O34 2.028 . S
Zn33 O36 2.028 . S
Zn33 O39 2.035 . S
O34 Zn33 2.028 . S
O34 C40 1.247 . S
O35 Zn31 2.035 . S
O35 C40 1.258 . S
O36 C29 1.247 . S
O36 Zn33 2.028 . S
O37 C29 1.258 . S
O37 Zn31 2.035 . S
O38 Zn31 2.028 . S
O38 C41 1.247 . S
O39 Zn33 2.035 . S
O39 C41 1.258 . S
C40 O34 1.247 . S
C40 O35 1.258 . S
C41 O38 1.247 . S
C41 O39 1.258 . S
C42 O44 1.247 . S
C42 O46 1.258 . S
C43 O50 1.247 . S
C43 O51 1.258 . S
O44 C42 1.247 . S
O44 Zn45 2.028 . S
Zn45 O44 2.028 . S
Zn45 O49 2.035 . S
Zn45 O51 2.035 . S
Zn45 O52 2.028 . S
O46 C42 1.258 . S
O46 Zn47 2.035 . S
Zn47 O46 2.035 . S
Zn47 O48 2.028 . S
Zn47 O50 2.028 . S
Zn47 O53 2.035 . S
O48 Zn47 2.028 . S
O48 C54 1.247 . S
O49 Zn45 2.035 . S
O49 C54 1.258 . S
O50 C43 1.247 . S
O50 Zn47 2.028 . S
O51 C43 1.258 . S
O51 Zn45 2.035 . S
O52 Zn45 2.028 . S
O52 C55 1.247 . S
O53 Zn47 2.035 . S
O53 C55 1.258 . S
C54 O48 1.247 . S
C54 O49 1.258 . S
C55 O52 1.247 . S
C55 O53 1.258 . S
C56 O58 1.247 . S
C56 O60 1.258 . S
C57 O64 1.247 . S
C57 O65 1.258 . S
O58 C56 1.247 . S
O58 Zn59 2.028 . S
Zn59 O58 2.028 . S
Zn59 O63 2.035 . S
Zn59 O65 2.035 . S
Zn59 O66 2.028 . S
O60 C56 1.258 . S
O60 Zn61 2.035 . S
Zn61 O60 2.035 . S
Zn61 O62 2.028 . S
Zn61 O64 2.028 . S
Zn61 O67 2.035 . S
O62 Zn61 2.028 . S
O62 C68 1.247 . S
O63 Zn59 2.035 . S
O63 C68 1.258 . S
O64 C57 1.247 . S
O64 Zn61 2.028 . S
O65 C57 1.258 . S
O65 Zn59 2.035 . S
O66 Zn59 2.028 . S
O66 C69 1.247 . S
O67 Zn61 2.035 . S
O67 C69 1.258 . S
C68 O62 1.247 . S
C68 O63 1.258 . S
C69 O66 1.247 . S
C69 O67 1.258 . S
C70 O72 1.247 . S
C70 O74 1.258 . S
C71 O78 1.247 . S
C71 O79 1.258 . S
O72 C70 1.247 . S
O72 Zn73 2.028 . S
Zn73 O72 2.028 . S
Zn73 O77 2.035 . S
Zn73 O79 2.035 . S
Zn73 O80 2.028 . S
O74 C70 1.258 . S
O74 Zn75 2.035 . S
Zn75 O74 2.035 . S
Zn75 O76 2.028 . S
Zn75 O78 2.028 . S
Zn75 O81 2.035 . S
O76 Zn75 2.028 . S
O76 C82 1.247 . S
O77 Zn73 2.035 . S
O77 C82 1.258 . S
O78 C71 1.247 . S
O78 Zn75 2.028 . S
O79 C71 1.258 . S
O79 Zn73 2.035 . S
O80 Zn73 2.028 . S
O80 C83 1.247 . S
O81 Zn75 2.035 . S
O81 C83 1.258 . S
C82 O76 1.247 . S
C82 O77 1.258 . S
C83 O80 1.247 . S
C83 O81 1.258 . S
C84 O86 1.247 . S
C84 O88 1.258 . S
C85 O92 1.247 . S
C85 O93 1.258 . S
O86 C84 1.247 . S
O86 Zn87 2.028 . S
Zn87 O86 2.028 . S
Zn87 O91 2.035 . S
Zn87 O93 2.035 . S
Zn87 O94 2.028 . S
O88 C84 1.258 . S
O88 Zn89 2.035 . S
Zn89 O88 2.035 . S
Zn89 O90 2.028 . S
Zn89 O92 2.028 . S
Zn89 O95 2.035 . S
O90 Zn89 2.028 . S
O90 C96 1.247 . S
O91 Zn87 2.035 . S
O91 C96 1.258 . S
O92 C85 1.247 . S
O92 Zn89 2.028 . S
O93 C85 1.258 . S
O93 Zn87 2.035 . S
O94 Zn87 2.028 . S
O94 C97 1.247 . S
O95 Zn89 2.035 . S
O95 C97 1.258 . S
C96 O90 1.247 . S
C96 O91 1.258 . S
C97 O94 1.247 . S
C97 O95 1.258 . S
C98 O100 1.247 . S
C98 O102 1.258 . S
C99 O106 1.247 . S
C99 O107 1.258 . S
O100 C98 1.247 . S
O100 Zn101 2.028 . S
Zn101 O100 2.028 . S
Zn101 O105 2.035 . S
Zn101 O107 2.035 . S
Zn101 O108 2.028 . S
O102 C98 1.258 . S
O102 Zn103 2.035 . S
Zn103 O102 2.035 . S
Zn103 O104 2.028 . S
Zn103 O106 2.028 . S
Zn103 O109 2.035 . S
O104 Zn103 2.028 . S
O104 C110 1.247 . S
O105 Zn101 2.035 . S
O105 C110 1.258 . S
O106 C99 1.247 . S
O106 Zn103 2.028 . S
O107 C99 1.258 . S
O107 Zn101 2.035 . S
O108 Zn101 2.028 . S
O108 C111 1.247 . S
O109 Zn103 2.035 . S
O109 C111 1.258 . S
C110 O104 1.247 . S
C110 O105 1.258 . S
C111 O108 1.247 . S
C111 O109 1.258 . S
C112 O114 1.247 . S
C112 O116 1.258 . S
C113 O120 1.247 . S
C113 O121 1.258 . S
O114 C112 1.247 . S
O114 Zn115 2.028 . S
Zn115 O114 2.028 . S
Zn115 O119 2.035 . S
Zn115 O121 2.035 . S
Zn115 O122 2.028 . S
O116 C112 1.258 . S
O116 Zn117 2.035 . S
Zn117 O116 2.035 . S
Zn117 O118 2.028 . S
Zn117 O120 2.028 . S
Zn117 O123 2.035 . S
O118 Zn117 2.028 . S
O118 C124 1.247 . S
O119 Zn115 2.035 . S
O119 C124 1.258 . S
O120 C113 1.247 . S
O120 Zn117 2.028 . S
O121 C113 1.258 . S
O121 Zn115 2.035 . S
O122 Zn115 2.028 . S
O122 C125 1.247 . S
O123 Zn117 2.035 . S
O123 C125 1.258 . S
C124 O118 1.247 . S
C124 O119 1.258 . S
C125 O122 1.247 . S
C125 O123 1.258 . S
C126 O128 1.247 . S
C126 O130 1.258 . S
C127 O134 1.247 . S
C127 O135 1.258 . S
O128 C126 1.247 . S
O128 Zn129 2.028 . S
Zn129 O128 2.028 . S
Zn129 O133 2.035 . S
Zn129 O135 2.035 . S
Zn129 O136 2.028 . S
O130 C126 1.258 . S
O130 Zn131 2.035 . S
Zn131 O130 2.035 . S
Zn131 O132 2.028 . S
Zn131 O134 2.028 . S
Zn131 O137 2.035 . S
O132 Zn131 2.028 . S
O132 C138 1.247 . S
O133 Zn129 2.035 . S
O133 C138 1.258 . S
O134 C127 1.247 . S
O134 Zn131 2.028 . S
O135 C127 1.258 . S
O135 Zn129 2.035 . S
O136 Zn129 2.028 . S
O136 C139 1.247 . S
O137 Zn131 2.035 . S
O137 C139 1.258 . S
C138 O132 1.247 . S
C138 O133 1.258 . S
C139 O136 1.247 . S
C139 O137 1.258 . S
C140 O142 1.247 . S
C140 O144 1.258 . S
C141 O148 1.247 . S
C141 O149 1.258 . S
O142 C140 1.247 . S
O142 Zn143 2.028 . S
Zn143 O142 2.028 . S
Zn143 O147 2.035 . S
Zn143 O149 2.035 . S
Zn143 O150 2.028 . S
O144 C140 1.258 . S
O144 Zn145 2.035 . S
Zn145 O144 2.035 . S
Zn145 O146 2.028 . S
Zn145 O148 2.028 . S
Zn145 O151 2.035 . S
O146 Zn145 2.028 . S
O146 C152 1.247 . S
O147 Zn143 2.035 . S
O147 C152 1.258 . S
O148 C141 1.247 . S
O148 Zn145 2.028 . S
O149 C141 1.258 . S
O149 Zn143 2.035 . S
O150 Zn143 2.028 . S
O150 C153 1.247 . S
O151 Zn145 2.035 . S
O151 C153 1.258 . S
C152 O146 1.247 . S
C152 O147 1.258 . S
C153 O150 1.247 . S
C153 O151 1.258 . S
C154 O156 1.247 . S
C154 O158 1.258 . S
C155 O162 1.247 . S
C155 O163 1.258 . S
O156 C154 1.247 . S
O156 Zn157 2.028 . S
Zn157 O156 2.028 . S
Zn157 O161 2.035 . S
Zn157 O163 2.035 . S
Zn157 O164 2.028 . S
O158 C154 1.258 . S
O158 Zn159 2.035 . S
Zn159 O158 2.035 . S
Zn159 O160 2.028 . S
Zn159 O162 2.028 . S
Zn159 O165 2.035 . S
O160 Zn159 2.028 . S
O160 C166 1.247 . S
O161 Zn157 2.035 . S
O161 C166 1.258 . S
O162 C155 1.247 . S
O162 Zn159 2.028 . S
O163 C155 1.258 . S
O163 Zn157 2.035 . S
O164 Zn157 2.028 . S
O164 C167 1.247 . S
O165 Zn159 2.035 . S
O165 C167 1.258 . S
C166 O160 1.247 . S
C166 O161 1.258 . S
C167 O164 1.247 . S
C167 O165 1.258 . S
H168 C176 0.929 . S
H169 C178 0.930 . S
H170 C180 0.930 . S
H171 C183 0.929 . S
H172 C186 0.930 . S
H173 C188 0.960 . S
H174 C188 0.960 . S
H175 C188 0.960 . S
C176 H168 0.929 . S
C176 C177 1.377 . S
C176 C178 1.384 . S
C177 C176 1.377 . S
C177 C183 1.390 . S
C178 H169 0.930 . S
C178 C176 1.384 . S
C178 C179 1.372 . S
C179 C178 1.372 . S
C179 C180 1.400 . S
C179 C184 1.490 . S
C180 H170 0.930 . S
C180 C179 1.400 . S
C180 C183 1.386 . S
H181 C197 0.930 . S
H182 C198 0.931 . S
C183 H171 0.929 . S
C183 C177 1.390 . S
C183 C180 1.386 . S
C184 C179 1.490 . S
C184 C186 1.395 . S
C184 C187 1.403 . S
H185 C191 0.930 . S
C186 H172 0.930 . S
C186 C184 1.395 . S
C186 C189 1.403 1_556 S
C187 C184 1.403 . S
C187 C188 1.524 . S
C187 C191 1.400 1_556 S
C188 H173 0.960 . S
C188 H174 0.960 . S
C188 H175 0.960 . S
C188 C187 1.524 . S
C189 C186 1.403 1_554 S
C189 C190 1.392 . S
C189 C193 1.495 . S
C190 C189 1.392 . S
C190 C191 1.385 . S
C190 C192 1.478 . S
C191 H185 0.930 . S
C191 C187 1.400 1_554 S
C191 C190 1.385 . S
C192 C190 1.478 . S
C192 C194 1.381 . S
C192 C198 1.383 . S
C193 C189 1.495 . S
C193 H199 0.959 . S
C193 H200 0.961 . S
C193 H201 0.960 . S
C194 C192 1.381 . S
C194 C195 1.394 . S
C194 H202 0.930 . S
C195 C194 1.394 . S
C195 C196 1.383 . S
C195 H203 0.929 . S
C196 C195 1.383 . S
C196 C197 1.377 . S
C197 H181 0.930 . S
C197 C196 1.377 . S
C197 C198 1.379 . S
C198 H182 0.931 . S
C198 C192 1.383 . S
C198 C197 1.379 . S
H199 C193 0.959 . S
H200 C193 0.961 . S
H201 C193 0.960 . S
H202 C194 0.930 . S
H203 C195 0.929 . S
H204 C212 0.929 . S
H205 C214 0.930 . S
H206 C216 0.930 . S
H207 C219 0.929 . S
H208 C222 0.930 . S
H209 C224 0.960 . S
H210 C224 0.960 . S
H211 C224 0.960 . S
C212 H204 0.929 . S
C212 C213 1.377 . S
C212 C214 1.384 . S
C213 C212 1.377 . S
C213 C219 1.390 . S
C214 H205 0.930 . S
C214 C212 1.384 . S
C214 C215 1.372 . S
C215 C214 1.372 . S
C215 C216 1.400 . S
C215 C220 1.490 . S
C216 H206 0.930 . S
C216 C215 1.400 . S
C216 C219 1.386 . S
H217 C233 0.930 . S
H218 C234 0.931 . S
C219 H207 0.929 . S
C219 C213 1.390 . S
C219 C216 1.386 . S
C220 C215 1.490 . S
C220 C222 1.395 . S
C220 C223 1.403 . S
H221 C227 0.930 . S
C222 H208 0.930 . S
C222 C220 1.395 . S
C222 C225 1.403 . S
C223 C220 1.403 . S
C223 C224 1.524 . S
C223 C227 1.400 . S
C224 H209 0.960 . S
C224 H210 0.960 . S
C224 H211 0.960 . S
C224 C223 1.524 . S
C225 C222 1.403 . S
C225 C226 1.392 . S
C225 C229 1.495 . S
C226 C225 1.392 . S
C226 C227 1.385 . S
C226 C228 1.478 . S
C227 H221 0.930 . S
C227 C223 1.400 . S
C227 C226 1.385 . S
C228 C226 1.478 . S
C228 C230 1.381 . S
C228 C234 1.383 . S
C229 C225 1.495 . S
C229 H235 0.959 . S
C229 H236 0.961 . S
C229 H237 0.960 . S
C230 C228 1.381 . S
C230 C231 1.394 . S
C230 H238 0.930 . S
C231 C230 1.394 . S
C231 C232 1.383 . S
C231 H239 0.929 . S
C232 C231 1.383 . S
C232 C233 1.377 . S
C233 H217 0.930 . S
C233 C232 1.377 . S
C233 C234 1.379 . S
C234 H218 0.931 . S
C234 C228 1.383 . S
C234 C233 1.379 . S
H235 C229 0.959 . S
H236 C229 0.961 . S
H237 C229 0.960 . S
H238 C230 0.930 . S
H239 C231 0.929 . S
H240 C248 0.929 . S
H241 C250 0.930 . S
H242 C252 0.930 . S
H243 C255 0.929 . S
H244 C258 0.930 . S
H245 C260 0.960 . S
H246 C260 0.960 . S
H247 C260 0.960 . S
C248 H240 0.929 . S
C248 C249 1.377 . S
C248 C250 1.384 . S
C249 C248 1.377 . S
C249 C255 1.390 . S
C250 H241 0.930 . S
C250 C248 1.384 . S
C250 C251 1.372 . S
C251 C250 1.372 . S
C251 C252 1.400 . S
C251 C256 1.490 . S
C252 H242 0.930 . S
C252 C251 1.400 . S
C252 C255 1.386 . S
H253 C269 0.930 . S
H254 C270 0.931 . S
C255 H243 0.929 . S
C255 C249 1.390 . S
C255 C252 1.386 . S
C256 C251 1.490 . S
C256 C258 1.395 . S
C256 C259 1.403 . S
H257 C263 0.930 . S
C258 H244 0.930 . S
C258 C256 1.395 . S
C258 C261 1.403 . S
C259 C256 1.403 . S
C259 C260 1.524 . S
C259 C263 1.400 . S
C260 H245 0.960 . S
C260 H246 0.960 . S
C260 H247 0.960 . S
C260 C259 1.524 . S
C261 C258 1.403 . S
C261 C262 1.392 . S
C261 C265 1.495 . S
C262 C261 1.392 . S
C262 C263 1.385 . S
C262 C264 1.478 . S
C263 H257 0.930 . S
C263 C259 1.400 . S
C263 C262 1.385 . S
C264 C262 1.478 . S
C264 C266 1.381 . S
C264 C270 1.383 . S
C265 C261 1.495 . S
C265 H271 0.959 . S
C265 H272 0.961 . S
C265 H273 0.960 . S
C266 C264 1.381 . S
C266 C267 1.394 . S
C266 H274 0.930 . S
C267 C266 1.394 . S
C267 C268 1.383 . S
C267 H275 0.929 . S
C268 C267 1.383 . S
C268 C269 1.377 . S
C269 H253 0.930 . S
C269 C268 1.377 . S
C269 C270 1.379 . S
C270 H254 0.931 . S
C270 C264 1.383 . S
C270 C269 1.379 . S
H271 C265 0.959 . S
H272 C265 0.961 . S
H273 C265 0.960 . S
H274 C266 0.930 . S
H275 C267 0.929 . S
H276 C284 0.929 . S
H277 C286 0.930 . S
H278 C288 0.930 . S
H279 C291 0.929 . S
H280 C294 0.930 . S
H281 C296 0.960 . S
H282 C296 0.960 . S
H283 C296 0.960 . S
C284 H276 0.929 . S
C284 C285 1.377 . S
C284 C286 1.384 . S
C285 C284 1.377 . S
C285 C291 1.390 . S
C286 H277 0.930 . S
C286 C284 1.384 . S
C286 C287 1.372 . S
C287 C286 1.372 . S
C287 C288 1.400 . S
C287 C292 1.490 . S
C288 H278 0.930 . S
C288 C287 1.400 . S
C288 C291 1.386 . S
H289 C305 0.930 . S
H290 C306 0.931 . S
C291 H279 0.929 . S
C291 C285 1.390 . S
C291 C288 1.386 . S
C292 C287 1.490 . S
C292 C294 1.395 . S
C292 C295 1.403 . S
H293 C299 0.930 . S
C294 H280 0.930 . S
C294 C292 1.395 . S
C294 C297 1.403 1_554 S
C295 C292 1.403 . S
C295 C296 1.524 . S
C295 C299 1.400 1_554 S
C296 H281 0.960 . S
C296 H282 0.960 . S
C296 H283 0.960 . S
C296 C295 1.524 . S
C297 C294 1.403 1_556 S
C297 C298 1.392 . S
C297 C301 1.495 . S
C298 C297 1.392 . S
C298 C299 1.385 . S
C298 C300 1.478 . S
C299 H293 0.930 . S
C299 C295 1.400 1_556 S
C299 C298 1.385 . S
C300 C298 1.478 . S
C300 C302 1.381 . S
C300 C306 1.383 . S
C301 C297 1.495 . S
C301 H307 0.959 . S
C301 H308 0.961 . S
C301 H309 0.960 . S
C302 C300 1.381 . S
C302 C303 1.394 . S
C302 H310 0.930 . S
C303 C302 1.394 . S
C303 C304 1.383 . S
C303 H311 0.929 . S
C304 C303 1.383 . S
C304 C305 1.377 . S
C305 H289 0.930 . S
C305 C304 1.377 . S
C305 C306 1.379 . S
C306 H290 0.931 . S
C306 C300 1.383 . S
C306 C305 1.379 . S
H307 C301 0.959 . S
H308 C301 0.961 . S
H309 C301 0.960 . S
H310 C302 0.930 . S
H311 C303 0.929 . S
H312 C320 0.929 . S
H313 C322 0.930 . S
H314 C324 0.930 . S
H315 C327 0.929 . S
H316 C330 0.930 . S
H317 C332 0.960 . S
H318 C332 0.960 . S
H319 C332 0.960 . S
C320 H312 0.929 . S
C320 C321 1.377 . S
C320 C322 1.384 . S
C321 C320 1.377 . S
C321 C327 1.390 . S
C322 H313 0.930 . S
C322 C320 1.384 . S
C322 C323 1.372 . S
C323 C322 1.372 . S
C323 C324 1.400 . S
C323 C328 1.490 . S
C324 H314 0.930 . S
C324 C323 1.400 . S
C324 C327 1.386 . S
H325 C341 0.930 . S
H326 C342 0.931 . S
C327 H315 0.929 . S
C327 C321 1.390 . S
C327 C324 1.386 . S
C328 C323 1.490 . S
C328 C330 1.395 . S
C328 C331 1.403 . S
H329 C335 0.930 . S
C330 H316 0.930 . S
C330 C328 1.395 . S
C330 C333 1.403 . S
C331 C328 1.403 . S
C331 C332 1.524 . S
C331 C335 1.400 . S
C332 H317 0.960 . S
C332 H318 0.960 . S
C332 H319 0.960 . S
C332 C331 1.524 . S
C333 C330 1.403 . S
C333 C334 1.392 . S
C333 C337 1.495 . S
C334 C333 1.392 . S
C334 C335 1.385 . S
C334 C336 1.478 . S
C335 H329 0.930 . S
C335 C331 1.400 . S
C335 C334 1.385 . S
C336 C334 1.478 . S
C336 C338 1.381 . S
C336 C342 1.383 . S
C337 C333 1.495 . S
C337 H343 0.959 . S
C337 H344 0.961 . S
C337 H345 0.960 . S
C338 C336 1.381 . S
C338 C339 1.394 . S
C338 H346 0.930 . S
C339 C338 1.394 . S
C339 C340 1.383 . S
C339 H347 0.929 . S
C340 C339 1.383 . S
C340 C341 1.377 . S
C341 H325 0.930 . S
C341 C340 1.377 . S
C341 C342 1.379 . S
C342 H326 0.931 . S
C342 C336 1.383 . S
C342 C341 1.379 . S
H343 C337 0.959 . S
H344 C337 0.961 . S
H345 C337 0.960 . S
H346 C338 0.930 . S
H347 C339 0.929 . S
H348 C356 0.929 . S
H349 C358 0.930 . S
H350 C360 0.930 . S
H351 C363 0.929 . S
H352 C366 0.930 . S
H353 C368 0.960 . S
H354 C368 0.960 . S
H355 C368 0.960 . S
C356 H348 0.929 . S
C356 C357 1.377 . S
C356 C358 1.384 . S
C357 C356 1.377 . S
C357 C363 1.390 . S
C358 H349 0.930 . S
C358 C356 1.384 . S
C358 C359 1.372 . S
C359 C358 1.372 . S
C359 C360 1.400 . S
C359 C364 1.490 . S
C360 H350 0.930 . S
C360 C359 1.400 . S
C360 C363 1.386 . S
H361 C377 0.930 . S
H362 C378 0.931 . S
C363 H351 0.929 . S
C363 C357 1.390 . S
C363 C360 1.386 . S
C364 C359 1.490 . S
C364 C366 1.395 . S
C364 C367 1.403 . S
H365 C371 0.930 . S
C366 H352 0.930 . S
C366 C364 1.395 . S
C366 C369 1.403 . S
C367 C364 1.403 . S
C367 C368 1.524 . S
C367 C371 1.400 . S
C368 H353 0.960 . S
C368 H354 0.960 . S
C368 H355 0.960 . S
C368 C367 1.524 . S
C369 C366 1.403 . S
C369 C370 1.392 . S
C369 C373 1.495 . S
C370 C369 1.392 . S
C370 C371 1.385 . S
C370 C372 1.478 . S
C371 H365 0.930 . S
C371 C367 1.400 . S
C371 C370 1.385 . S
C372 C370 1.478 . S
C372 C374 1.381 . S
C372 C378 1.383 . S
C373 C369 1.495 . S
C373 H379 0.959 . S
C373 H380 0.961 . S
C373 H381 0.960 . S
C374 C372 1.381 . S
C374 C375 1.394 . S
C374 H382 0.930 . S
C375 C374 1.394 . S
C375 C376 1.383 . S
C375 H383 0.929 . S
C376 C375 1.383 . S
C376 C377 1.377 . S
C377 H361 0.930 . S
C377 C376 1.377 . S
C377 C378 1.379 . S
C378 H362 0.931 . S
C378 C372 1.383 . S
C378 C377 1.379 . S
H379 C373 0.959 . S
H380 C373 0.961 . S
H381 C373 0.960 . S
H382 C374 0.930 . S
H383 C375 0.929 . S
H384 C392 0.929 . S
H385 C394 0.930 . S
H386 C396 0.930 . S
H387 C399 0.929 . S
H388 C402 0.930 . S
H389 C404 0.960 . S
H390 C404 0.960 . S
H391 C404 0.960 . S
C392 H384 0.929 . S
C392 C393 1.377 . S
C392 C394 1.384 . S
C393 C392 1.377 . S
C393 C399 1.390 . S
C394 H385 0.930 . S
C394 C392 1.384 . S
C394 C395 1.372 . S
C395 C394 1.372 . S
C395 C396 1.400 . S
C395 C400 1.490 . S
C396 H386 0.930 . S
C396 C395 1.400 . S
C396 C399 1.386 . S
H397 C413 0.930 . S
H398 C414 0.931 . S
C399 H387 0.929 . S
C399 C393 1.390 . S
C399 C396 1.386 . S
C400 C395 1.490 . S
C400 C402 1.395 . S
C400 C403 1.403 . S
H401 C407 0.930 . S
C402 H388 0.930 . S
C402 C400 1.395 . S
C402 C405 1.403 . S
C403 C400 1.403 . S
C403 C404 1.524 . S
C403 C407 1.400 . S
C404 H389 0.960 . S
C404 H390 0.960 . S
C404 H391 0.960 . S
C404 C403 1.524 . S
C405 C402 1.403 . S
C405 C406 1.392 . S
C405 C409 1.495 . S
C406 C405 1.392 . S
C406 C407 1.385 . S
C406 C408 1.478 . S
C407 H401 0.930 . S
C407 C403 1.400 . S
C407 C406 1.385 . S
C408 C406 1.478 . S
C408 C410 1.381 . S
C408 C414 1.383 . S
C409 C405 1.495 . S
C409 H415 0.959 . S
C409 H416 0.961 . S
C409 H417 0.960 . S
C410 C408 1.381 . S
C410 C411 1.394 . S
C410 H418 0.930 . S
C411 C410 1.394 . S
C411 C412 1.383 . S
C411 H419 0.929 . S
C412 C411 1.383 . S
C412 C413 1.377 . S
C413 H397 0.930 . S
C413 C412 1.377 . S
C413 C414 1.379 . S
C414 H398 0.931 . S
C414 C408 1.383 . S
C414 C413 1.379 . S
H415 C409 0.959 . S
H416 C409 0.961 . S
H417 C409 0.960 . S
H418 C410 0.930 . S
H419 C411 0.929 . S
H420 C428 0.929 . S
H421 C430 0.930 . S
H422 C432 0.930 . S
H423 C435 0.929 . S
H424 C438 0.930 . S
H425 C440 0.960 . S
H426 C440 0.960 . S
H427 C440 0.960 . S
C428 H420 0.929 . S
C428 C429 1.377 . S
C428 C430 1.384 . S
C429 C428 1.377 . S
C429 C435 1.390 . S
C430 H421 0.930 . S
C430 C428 1.384 . S
C430 C431 1.372 . S
C431 C430 1.372 . S
C431 C432 1.400 . S
C431 C436 1.490 . S
C432 H422 0.930 . S
C432 C431 1.400 . S
C432 C435 1.386 . S
H433 C449 0.930 . S
H434 C450 0.931 . S
C435 H423 0.929 . S
C435 C429 1.390 . S
C435 C432 1.386 . S
C436 C431 1.490 . S
C436 C438 1.395 . S
C436 C439 1.403 . S
H437 C443 0.930 . S
C438 H424 0.930 . S
C438 C436 1.395 . S
C438 C441 1.403 . S
C439 C436 1.403 . S
C439 C440 1.524 . S
C439 C443 1.400 . S
C440 H425 0.960 . S
C440 H426 0.960 . S
C440 H427 0.960 . S
C440 C439 1.524 . S
C441 C438 1.403 . S
C441 C442 1.392 . S
C441 C445 1.495 . S
C442 C441 1.392 . S
C442 C443 1.385 . S
C442 C444 1.478 . S
C443 H437 0.930 . S
C443 C439 1.400 . S
C443 C442 1.385 . S
C444 C442 1.478 . S
C444 C446 1.381 . S
C444 C450 1.383 . S
C445 C441 1.495 . S
C445 H451 0.959 . S
C445 H452 0.961 . S
C445 H453 0.960 . S
C446 C444 1.381 . S
C446 C447 1.394 . S
C446 H454 0.930 . S
C447 C446 1.394 . S
C447 C448 1.383 . S
C447 H455 0.929 . S
C448 C447 1.383 . S
C448 C449 1.377 . S
C449 H433 0.930 . S
C449 C448 1.377 . S
C449 C450 1.379 . S
C450 H434 0.931 . S
C450 C444 1.383 . S
C450 C449 1.379 . S
H451 C445 0.959 . S
H452 C445 0.961 . S
H453 C445 0.960 . S
H454 C446 0.930 . S
H455 C447 0.929 . S
H456 C464 0.929 . S
H457 C466 0.930 . S
H458 C468 0.930 . S
H459 C471 0.929 . S
H460 C474 0.930 . S
H461 C476 0.960 . S
H462 C476 0.960 . S
H463 C476 0.960 . S
C464 H456 0.929 . S
C464 C465 1.377 . S
C464 C466 1.384 . S
C465 C464 1.377 . S
C465 C471 1.390 . S
C466 H457 0.930 . S
C466 C464 1.384 . S
C466 C467 1.372 . S
C467 C466 1.372 . S
C467 C468 1.400 . S
C467 C472 1.490 . S
C468 H458 0.930 . S
C468 C467 1.400 . S
C468 C471 1.386 . S
H469 C485 0.930 . S
H470 C486 0.931 . S
C471 H459 0.929 . S
C471 C465 1.390 . S
C471 C468 1.386 . S
C472 C467 1.490 . S
C472 C474 1.395 . S
C472 C475 1.403 . S
H473 C479 0.930 . S
C474 H460 0.930 . S
C474 C472 1.395 . S
C474 C477 1.403 . S
C475 C472 1.403 . S
C475 C476 1.524 . S
C475 C479 1.400 . S
C476 H461 0.960 . S
C476 H462 0.960 . S
C476 H463 0.960 . S
C476 C475 1.524 . S
C477 C474 1.403 . S
C477 C478 1.392 . S
C477 C481 1.495 . S
C478 C477 1.392 . S
C478 C479 1.385 . S
C478 C480 1.478 . S
C479 H473 0.930 . S
C479 C475 1.400 . S
C479 C478 1.385 . S
C480 C478 1.478 . S
C480 C482 1.381 . S
C480 C486 1.383 . S
C481 C477 1.495 . S
C481 H487 0.959 . S
C481 H488 0.961 . S
C481 H489 0.960 . S
C482 C480 1.381 . S
C482 C483 1.394 . S
C482 H490 0.930 . S
C483 C482 1.394 . S
C483 C484 1.383 . S
C483 H491 0.929 . S
C484 C483 1.383 . S
C484 C485 1.377 . S
C485 H469 0.930 . S
C485 C484 1.377 . S
C485 C486 1.379 . S
C486 H470 0.931 . S
C486 C480 1.383 . S
C486 C485 1.379 . S
H487 C481 0.959 . S
H488 C481 0.961 . S
H489 C481 0.960 . S
H490 C482 0.930 . S
H491 C483 0.929 . S
H492 C500 0.929 . S
H493 C502 0.930 . S
H494 C504 0.930 . S
H495 C507 0.929 . S
H496 C510 0.930 . S
H497 C512 0.960 . S
H498 C512 0.960 . S
H499 C512 0.960 . S
C500 H492 0.929 . S
C500 C501 1.377 . S
C500 C502 1.384 . S
C501 C500 1.377 . S
C501 C507 1.390 . S
C502 H493 0.930 . S
C502 C500 1.384 . S
C502 C503 1.372 . S
C503 C502 1.372 . S
C503 C504 1.400 . S
C503 C508 1.490 . S
C504 H494 0.930 . S
C504 C503 1.400 . S
C504 C507 1.386 . S
H505 C521 0.930 . S
H506 C522 0.931 . S
C507 H495 0.929 . S
C507 C501 1.390 . S
C507 C504 1.386 . S
C508 C503 1.490 . S
C508 C510 1.395 . S
C508 C511 1.403 . S
H509 C515 0.930 . S
C510 H496 0.930 . S
C510 C508 1.395 . S
C510 C513 1.403 . S
C511 C508 1.403 . S
C511 C512 1.524 . S
C511 C515 1.400 . S
C512 H497 0.960 . S
C512 H498 0.960 . S
C512 H499 0.960 . S
C512 C511 1.524 . S
C513 C510 1.403 . S
C513 C514 1.392 . S
C513 C517 1.495 . S
C514 C513 1.392 . S
C514 C515 1.385 . S
C514 C516 1.478 . S
C515 H509 0.930 . S
C515 C511 1.400 . S
C515 C514 1.385 . S
C516 C514 1.478 . S
C516 C518 1.381 . S
C516 C522 1.383 . S
C517 C513 1.495 . S
C517 H523 0.959 . S
C517 H524 0.961 . S
C517 H525 0.960 . S
C518 C516 1.381 . S
C518 C519 1.394 . S
C518 H526 0.930 . S
C519 C518 1.394 . S
C519 C520 1.383 . S
C519 H527 0.929 . S
C520 C519 1.383 . S
C520 C521 1.377 . S
C521 H505 0.930 . S
C521 C520 1.377 . S
C521 C522 1.379 . S
C522 H506 0.931 . S
C522 C516 1.383 . S
C522 C521 1.379 . S
H523 C517 0.959 . S
H524 C517 0.961 . S
H525 C517 0.960 . S
H526 C518 0.930 . S
H527 C519 0.929 . S
H528 C536 0.929 . S
H529 C538 0.930 . S
H530 C540 0.930 . S
H531 C543 0.929 . S
H532 C546 0.930 . S
H533 C548 0.960 . S
H534 C548 0.960 . S
H535 C548 0.960 . S
C536 H528 0.929 . S
C536 C537 1.377 . S
C536 C538 1.384 . S
C537 C536 1.377 . S
C537 C543 1.390 . S
C538 H529 0.930 . S
C538 C536 1.384 . S
C538 C539 1.372 . S
C539 C538 1.372 . S
C539 C540 1.400 . S
C539 C544 1.490 . S
C540 H530 0.930 . S
C540 C539 1.400 . S
C540 C543 1.386 . S
H541 C557 0.930 . S
H542 C558 0.931 . S
C543 H531 0.929 . S
C543 C537 1.390 . S
C543 C540 1.386 . S
C544 C539 1.490 . S
C544 C546 1.395 . S
C544 C547 1.403 . S
H545 C551 0.930 . S
C546 H532 0.930 . S
C546 C544 1.395 . S
C546 C549 1.403 . S
C547 C544 1.403 . S
C547 C548 1.524 . S
C547 C551 1.400 . S
C548 H533 0.960 . S
C548 H534 0.960 . S
C548 H535 0.960 . S
C548 C547 1.524 . S
C549 C546 1.403 . S
C549 C550 1.392 . S
C549 C553 1.495 . S
C550 C549 1.392 . S
C550 C551 1.385 . S
C550 C552 1.478 . S
C551 H545 0.930 . S
C551 C547 1.400 . S
C551 C550 1.385 . S
C552 C550 1.478 . S
C552 C554 1.381 . S
C552 C558 1.383 . S
C553 C549 1.495 . S
C553 H559 0.959 . S
C553 H560 0.961 . S
C553 H561 0.960 . S
C554 C552 1.381 . S
C554 C555 1.394 . S
C554 H562 0.930 . S
C555 C554 1.394 . S
C555 C556 1.383 . S
C555 H563 0.929 . S
C556 C555 1.383 . S
C556 C557 1.377 . S
C557 H541 0.930 . S
C557 C556 1.377 . S
C557 C558 1.379 . S
C558 H542 0.931 . S
C558 C552 1.383 . S
C558 C557 1.379 . S
H559 C553 0.959 . S
H560 C553 0.961 . S
H561 C553 0.960 . S
H562 C554 0.930 . S
H563 C555 0.929 . S
H564 C572 0.929 . S
H565 C574 0.930 . S
H566 C576 0.930 . S
H567 C579 0.929 . S
H568 C582 0.930 . S
H569 C584 0.960 . S
H570 C584 0.960 . S
H571 C584 0.960 . S
C572 H564 0.929 . S
C572 C573 1.377 . S
C572 C574 1.384 . S
C573 C572 1.377 . S
C573 C579 1.390 . S
C574 H565 0.930 . S
C574 C572 1.384 . S
C574 C575 1.372 . S
C575 C574 1.372 . S
C575 C576 1.400 . S
C575 C580 1.490 . S
C576 H566 0.930 . S
C576 C575 1.400 . S
C576 C579 1.386 . S
H577 C593 0.930 . S
H578 C594 0.931 . S
C579 H567 0.929 . S
C579 C573 1.390 . S
C579 C576 1.386 . S
C580 C575 1.490 . S
C580 C582 1.395 . S
C580 C583 1.403 . S
H581 C587 0.930 . S
C582 H568 0.930 . S
C582 C580 1.395 . S
C582 C585 1.403 . S
C583 C580 1.403 . S
C583 C584 1.524 . S
C583 C587 1.400 . S
C584 H569 0.960 . S
C584 H570 0.960 . S
C584 H571 0.960 . S
C584 C583 1.524 . S
C585 C582 1.403 . S
C585 C586 1.392 . S
C585 C589 1.495 . S
C586 C585 1.392 . S
C586 C587 1.385 . S
C586 C588 1.478 . S
C587 H581 0.930 . S
C587 C583 1.400 . S
C587 C586 1.385 . S
C588 C586 1.478 . S
C588 C590 1.381 . S
C588 C594 1.383 . S
C589 C585 1.495 . S
C589 H595 0.959 . S
C589 H596 0.961 . S
C589 H597 0.960 . S
C590 C588 1.381 . S
C590 C591 1.394 . S
C590 H598 0.930 . S
C591 C590 1.394 . S
C591 C592 1.383 . S
C591 H599 0.929 . S
C592 C591 1.383 . S
C592 C593 1.377 . S
C593 H577 0.930 . S
C593 C592 1.377 . S
C593 C594 1.379 . S
C594 H578 0.931 . S
C594 C588 1.383 . S
C594 C593 1.379 . S
H595 C589 0.959 . S
H596 C589 0.961 . S
H597 C589 0.960 . S
H598 C590 0.930 . S
H599 C591 0.929 . S
H600 C608 0.929 . S
H601 C610 0.930 . S
H602 C612 0.930 . S
H603 C615 0.929 . S
H604 C618 0.930 . S
H605 C620 0.960 . S
H606 C620 0.960 . S
H607 C620 0.960 . S
C608 H600 0.929 . S
C608 C609 1.377 . S
C608 C610 1.384 . S
C609 C608 1.377 . S
C609 C615 1.390 . S
C610 H601 0.930 . S
C610 C608 1.384 . S
C610 C611 1.372 . S
C611 C610 1.372 . S
C611 C612 1.400 . S
C611 C616 1.490 . S
C612 H602 0.930 . S
C612 C611 1.400 . S
C612 C615 1.386 . S
H613 C629 0.930 . S
H614 C630 0.931 . S
C615 H603 0.929 . S
C615 C609 1.390 . S
C615 C612 1.386 . S
C616 C611 1.490 . S
C616 C618 1.395 . S
C616 C619 1.403 . S
H617 C623 0.930 . S
C618 H604 0.930 . S
C618 C616 1.395 . S
C618 C621 1.403 1_655 S
C619 C616 1.403 . S
C619 C620 1.524 . S
C619 C623 1.400 1_655 S
C620 H605 0.960 . S
C620 H606 0.960 . S
C620 H607 0.960 . S
C620 C619 1.524 . S
C621 C618 1.403 1_455 S
C621 C622 1.392 . S
C621 C625 1.495 . S
C622 C621 1.392 . S
C622 C623 1.385 . S
C622 C624 1.478 . S
C623 H617 0.930 . S
C623 C619 1.400 1_455 S
C623 C622 1.385 . S
C624 C622 1.478 . S
C624 C626 1.381 . S
C624 C630 1.383 . S
C625 C621 1.495 . S
C625 H631 0.959 . S
C625 H632 0.961 . S
C625 H633 0.960 . S
C626 C624 1.381 . S
C626 C627 1.394 . S
C626 H634 0.930 . S
C627 C626 1.394 . S
C627 C628 1.383 . S
C627 H635 0.929 . S
C628 C627 1.383 . S
C628 C629 1.377 . S
C629 H613 0.930 . S
C629 C628 1.377 . S
C629 C630 1.379 . S
C630 H614 0.931 . S
C630 C624 1.383 . S
C630 C629 1.379 . S
H631 C625 0.959 . S
H632 C625 0.961 . S
H633 C625 0.960 . S
H634 C626 0.930 . S
H635 C627 0.929 . S
H636 C644 0.929 . S
H637 C646 0.930 . S
H638 C648 0.930 . S
H639 C651 0.929 . S
H640 C654 0.930 . S
H641 C656 0.960 1_565 S
H642 C656 0.960 . S
H643 C656 0.960 . S
C644 H636 0.929 . S
C644 C645 1.377 . S
C644 C646 1.384 . S
C645 C644 1.377 . S
C645 C651 1.390 . S
C646 H637 0.930 . S
C646 C644 1.384 . S
C646 C647 1.372 . S
C647 C646 1.372 . S
C647 C648 1.400 . S
C647 C652 1.490 . S
C648 H638 0.930 . S
C648 C647 1.400 . S
C648 C651 1.386 . S
H649 C665 0.930 . S
H650 C666 0.931 . S
C651 H639 0.929 . S
C651 C645 1.390 . S
C651 C648 1.386 . S
C652 C647 1.490 . S
C652 C654 1.395 . S
C652 C655 1.403 . S
H653 C659 0.930 . S
C654 H640 0.930 . S
C654 C652 1.395 . S
C654 C657 1.403 1_545 S
C655 C652 1.403 . S
C655 C656 1.524 . S
C655 C659 1.400 1_545 S
C656 H641 0.960 1_545 S
C656 H642 0.960 . S
C656 H643 0.960 . S
C656 C655 1.524 . S
C657 C654 1.403 1_565 S
C657 C658 1.392 . S
C657 C661 1.495 . S
C658 C657 1.392 . S
C658 C659 1.385 . S
C658 C660 1.478 . S
C659 H653 0.930 . S
C659 C655 1.400 1_565 S
C659 C658 1.385 . S
C660 C658 1.478 . S
C660 C662 1.381 . S
C660 C666 1.383 . S
C661 C657 1.495 . S
C661 H667 0.944 1_565 S
C661 H668 0.961 . S
C661 H669 0.960 . S
C662 C660 1.381 . S
C662 C663 1.394 . S
C662 H670 0.930 . S
C663 C662 1.394 . S
C663 C664 1.383 . S
C663 H671 0.929 . S
C664 C663 1.383 . S
C664 C665 1.377 . S
C665 H649 0.930 . S
C665 C664 1.377 . S
C665 C666 1.379 . S
C666 H650 0.931 . S
C666 C660 1.383 . S
C666 C665 1.379 . S
H667 C661 0.944 1_545 S
H668 C661 0.961 . S
H669 C661 0.960 . S
H670 C662 0.930 . S
H671 C663 0.929 . S
H672 C680 0.929 . S
H673 C682 0.930 . S
H674 C684 0.930 . S
H675 C687 0.929 . S
H676 C690 0.930 . S
H677 C692 0.960 . S
H678 C692 0.960 . S
H679 C692 0.960 . S
C680 H672 0.929 . S
C680 C681 1.377 . S
C680 C682 1.384 . S
C681 C680 1.377 . S
C681 C687 1.390 . S
C682 H673 0.930 . S
C682 C680 1.384 . S
C682 C683 1.372 . S
C683 C682 1.372 . S
C683 C684 1.400 . S
C683 C688 1.490 . S
C684 H674 0.930 . S
C684 C683 1.400 . S
C684 C687 1.386 . S
H685 C701 0.930 . S
H686 C702 0.931 . S
C687 H675 0.929 . S
C687 C681 1.390 . S
C687 C684 1.386 . S
C688 C683 1.490 . S
C688 C690 1.395 . S
C688 C691 1.403 . S
H689 C695 0.930 . S
C690 H676 0.930 . S
C690 C688 1.395 . S
C690 C693 1.403 . S
C691 C688 1.403 . S
C691 C692 1.524 . S
C691 C695 1.400 . S
C692 H677 0.960 . S
C692 H678 0.960 . S
C692 H679 0.960 . S
C692 C691 1.524 . S
C693 C690 1.403 . S
C693 C694 1.392 . S
C693 C697 1.495 . S
C694 C693 1.392 . S
C694 C695 1.385 . S
C694 C696 1.478 . S
C695 H689 0.930 . S
C695 C691 1.400 . S
C695 C694 1.385 . S
C696 C694 1.478 . S
C696 C698 1.381 . S
C696 C702 1.383 . S
C697 C693 1.495 . S
C697 H703 0.959 . S
C697 H704 0.961 . S
C697 H705 0.960 . S
C698 C696 1.381 . S
C698 C699 1.394 . S
C698 H706 0.930 . S
C699 C698 1.394 . S
C699 C700 1.383 . S
C699 H707 0.929 . S
C700 C699 1.383 . S
C700 C701 1.377 . S
C701 H685 0.930 . S
C701 C700 1.377 . S
C701 C702 1.379 . S
C702 H686 0.931 . S
C702 C696 1.383 . S
C702 C701 1.379 . S
H703 C697 0.959 . S
H704 C697 0.961 . S
H705 C697 0.960 . S
H706 C698 0.930 . S
H707 C699 0.929 . S
H708 C716 0.929 . S
H709 C718 0.930 . S
H710 C720 0.930 . S
H711 C723 0.929 . S
H712 C726 0.930 . S
H713 C728 0.960 1_565 S
H714 C728 0.960 . S
H715 C728 0.960 . S
C716 H708 0.929 . S
C716 C717 1.377 . S
C716 C718 1.384 . S
C717 C716 1.377 . S
C717 C723 1.390 . S
C718 H709 0.930 . S
C718 C716 1.384 . S
C718 C719 1.372 . S
C719 C718 1.372 . S
C719 C720 1.400 . S
C719 C724 1.490 . S
C720 H710 0.930 . S
C720 C719 1.400 . S
C720 C723 1.386 . S
H721 C737 0.930 . S
H722 C738 0.931 . S
C723 H711 0.929 . S
C723 C717 1.390 . S
C723 C720 1.386 . S
C724 C719 1.490 . S
C724 C726 1.395 . S
C724 C727 1.403 . S
H725 C731 0.930 . S
C726 H712 0.930 . S
C726 C724 1.395 . S
C726 C729 1.403 1_545 S
C727 C724 1.403 . S
C727 C728 1.524 . S
C727 C731 1.400 1_545 S
C728 H713 0.960 1_545 S
C728 H714 0.960 . S
C728 H715 0.960 . S
C728 C727 1.524 . S
C729 C726 1.403 1_565 S
C729 C730 1.392 . S
C729 C733 1.495 . S
C730 C729 1.392 . S
C730 C731 1.385 . S
C730 C732 1.478 . S
C731 H725 0.930 . S
C731 C727 1.400 1_565 S
C731 C730 1.385 . S
C732 C730 1.478 . S
C732 C734 1.381 . S
C732 C738 1.383 . S
C733 C729 1.495 . S
C733 H739 0.959 1_565 S
C733 H740 0.961 . S
C733 H741 0.960 . S
C734 C732 1.381 . S
C734 C735 1.394 . S
C734 H742 0.930 . S
C735 C734 1.394 . S
C735 C736 1.383 . S
C735 H743 0.929 . S
C736 C735 1.383 . S
C736 C737 1.377 . S
C737 H721 0.930 . S
C737 C736 1.377 . S
C737 C738 1.379 . S
C738 H722 0.931 . S
C738 C732 1.383 . S
C738 C737 1.379 . S
H739 C733 0.959 1_545 S
H740 C733 0.961 . S
H741 C733 0.960 . S
H742 C734 0.930 . S
H743 C735 0.929 . S
H744 C752 0.929 . S
H745 C754 0.930 . S
H746 C756 0.930 . S
H747 C759 0.929 . S
H748 C762 0.930 . S
H749 C764 0.960 . S
H750 C764 0.960 . S
H751 C764 0.960 . S
C752 H744 0.929 . S
C752 C753 1.377 . S
C752 C754 1.384 . S
C753 C752 1.377 . S
C753 C759 1.390 . S
C754 H745 0.930 . S
C754 C752 1.384 . S
C754 C755 1.372 . S
C755 C754 1.372 . S
C755 C756 1.400 . S
C755 C760 1.490 . S
C756 H746 0.930 . S
C756 C755 1.400 . S
C756 C759 1.386 . S
H757 C773 0.930 . S
H758 C774 0.931 . S
C759 H747 0.929 . S
C759 C753 1.390 . S
C759 C756 1.386 . S
C760 C755 1.490 . S
C760 C762 1.395 . S
C760 C763 1.403 . S
H761 C767 0.930 . S
C762 H748 0.930 . S
C762 C760 1.395 . S
C762 C765 1.403 . S
C763 C760 1.403 . S
C763 C764 1.524 . S
C763 C767 1.400 . S
C764 H749 0.960 . S
C764 H750 0.960 . S
C764 H751 0.960 . S
C764 C763 1.524 . S
C765 C762 1.403 . S
C765 C766 1.392 . S
C765 C769 1.495 . S
C766 C765 1.392 . S
C766 C767 1.385 . S
C766 C768 1.478 . S
C767 H761 0.930 . S
C767 C763 1.400 . S
C767 C766 1.385 . S
C768 C766 1.478 . S
C768 C770 1.381 . S
C768 C774 1.383 . S
C769 C765 1.495 . S
C769 H775 0.959 . S
C769 H776 0.961 . S
C769 H777 0.960 . S
C770 C768 1.381 . S
C770 C771 1.394 . S
C770 H778 0.930 . S
C771 C770 1.394 . S
C771 C772 1.383 . S
C771 H779 0.929 . S
C772 C771 1.383 . S
C772 C773 1.377 . S
C773 H757 0.930 . S
C773 C772 1.377 . S
C773 C774 1.379 . S
C774 H758 0.931 . S
C774 C768 1.383 . S
C774 C773 1.379 . S
H775 C769 0.959 . S
H776 C769 0.961 . S
H777 C769 0.960 . S
H778 C770 0.930 . S
H779 C771 0.929 . S
H780 C788 0.929 . S
H781 C790 0.930 . S
H782 C792 0.930 . S
H783 C795 0.929 . S
H784 C798 0.930 . S
H785 C800 0.960 . S
H786 C800 0.960 . S
H787 C800 0.960 . S
C788 H780 0.929 . S
C788 C789 1.377 . S
C788 C790 1.384 . S
C789 C788 1.377 . S
C789 C795 1.390 . S
C790 H781 0.930 . S
C790 C788 1.384 . S
C790 C791 1.372 . S
C791 C790 1.372 . S
C791 C792 1.400 . S
C791 C796 1.490 . S
C792 H782 0.930 . S
C792 C791 1.400 . S
C792 C795 1.386 . S
H793 C809 0.930 . S
H794 C810 0.931 . S
C795 H783 0.929 . S
C795 C789 1.390 . S
C795 C792 1.386 . S
C796 C791 1.490 . S
C796 C798 1.395 . S
C796 C799 1.403 . S
H797 C803 0.930 . S
C798 H784 0.930 . S
C798 C796 1.395 . S
C798 C801 1.403 1_455 S
C799 C796 1.403 . S
C799 C800 1.524 . S
C799 C803 1.400 1_455 S
C800 H785 0.960 . S
C800 H786 0.960 . S
C800 H787 0.960 . S
C800 C799 1.524 . S
C801 C798 1.403 1_655 S
C801 C802 1.392 . S
C801 C805 1.495 . S
C802 C801 1.392 . S
C802 C803 1.385 . S
C802 C804 1.478 . S
C803 H797 0.930 . S
C803 C799 1.400 1_655 S
C803 C802 1.385 . S
C804 C802 1.478 . S
C804 C806 1.381 . S
C804 C810 1.383 . S
C805 C801 1.495 . S
C805 H811 0.959 . S
C805 H812 0.961 . S
C805 H813 0.960 . S
C806 C804 1.381 . S
C806 C807 1.394 . S
C806 H814 0.930 . S
C807 C806 1.394 . S
C807 C808 1.383 . S
C807 H815 0.929 . S
C808 C807 1.383 . S
C808 C809 1.377 . S
C809 H793 0.930 . S
C809 C808 1.377 . S
C809 C810 1.379 . S
C810 H794 0.931 . S
C810 C804 1.383 . S
C810 C809 1.379 . S
H811 C805 0.959 . S
H812 C805 0.961 . S
H813 C805 0.960 . S
H814 C806 0.930 . S
H815 C807 0.929 . S
H816 C824 0.929 . S
H817 C826 0.930 . S
H818 C828 0.930 . S
H819 C831 0.929 . S
H820 C834 0.930 . S
H821 C836 0.960 . S
H822 C836 0.960 . S
H823 C836 0.960 . S
C824 H816 0.929 . S
C824 C825 1.377 . S
C824 C826 1.384 . S
C825 C824 1.377 . S
C825 C831 1.390 . S
C826 H817 0.930 . S
C826 C824 1.384 . S
C826 C827 1.372 . S
C827 C826 1.372 . S
C827 C828 1.400 . S
C827 C832 1.490 . S
C828 H818 0.930 . S
C828 C827 1.400 . S
C828 C831 1.386 . S
H829 C845 0.930 . S
H830 C846 0.931 . S
C831 H819 0.929 . S
C831 C825 1.390 . S
C831 C828 1.386 . S
C832 C827 1.490 . S
C832 C834 1.395 . S
C832 C835 1.403 . S
H833 C839 0.930 . S
C834 H820 0.930 . S
C834 C832 1.395 . S
C834 C837 1.403 . S
C835 C832 1.403 . S
C835 C836 1.524 . S
C835 C839 1.400 . S
C836 H821 0.960 . S
C836 H822 0.960 . S
C836 H823 0.960 . S
C836 C835 1.524 . S
C837 C834 1.403 . S
C837 C838 1.392 . S
C837 C841 1.495 . S
C838 C837 1.392 . S
C838 C839 1.385 . S
C838 C840 1.478 . S
C839 H833 0.930 . S
C839 C835 1.400 . S
C839 C838 1.385 . S
C840 C838 1.478 . S
C840 C842 1.381 . S
C840 C846 1.383 . S
C841 C837 1.495 . S
C841 H847 0.959 . S
C841 H848 0.961 . S
C841 H849 0.960 . S
C842 C840 1.381 . S
C842 C843 1.394 . S
C842 H850 0.930 . S
C843 C842 1.394 . S
C843 C844 1.383 . S
C843 H851 0.929 . S
C844 C843 1.383 . S
C844 C845 1.377 . S
C845 H829 0.930 . S
C845 C844 1.377 . S
C845 C846 1.379 . S
C846 H830 0.931 . S
C846 C840 1.383 . S
C846 C845 1.379 . S
H847 C841 0.959 . S
H848 C841 0.961 . S
H849 C841 0.960 . S
H850 C842 0.930 . S
H851 C843 0.929 . S
H852 C860 0.929 . S
H853 C862 0.930 . S
H854 C864 0.930 . S
H855 C867 0.929 . S
H856 C870 0.930 . S
H857 C872 0.960 . S
H858 C872 0.960 . S
H859 C872 0.960 . S
C860 H852 0.929 . S
C860 C861 1.377 . S
C860 C862 1.384 . S
C861 C860 1.377 . S
C861 C867 1.390 . S
C862 H853 0.930 . S
C862 C860 1.384 . S
C862 C863 1.372 . S
C863 C862 1.372 . S
C863 C864 1.400 . S
C863 C868 1.490 . S
C864 H854 0.930 . S
C864 C863 1.400 . S
C864 C867 1.386 . S
H865 C881 0.930 . S
H866 C882 0.931 . S
C867 H855 0.929 . S
C867 C861 1.390 . S
C867 C864 1.386 . S
C868 C863 1.490 . S
C868 C870 1.395 . S
C868 C871 1.403 . S
H869 C875 0.930 . S
C870 H856 0.930 . S
C870 C868 1.395 . S
C870 C873 1.403 1_655 S
C871 C868 1.403 . S
C871 C872 1.524 . S
C871 C875 1.400 1_655 S
C872 H857 0.960 . S
C872 H858 0.960 . S
C872 H859 0.960 . S
C872 C871 1.524 . S
C873 C870 1.403 1_455 S
C873 C874 1.392 . S
C873 C877 1.495 . S
C874 C873 1.392 . S
C874 C875 1.385 . S
C874 C876 1.478 . S
C875 H869 0.930 . S
C875 C871 1.400 1_455 S
C875 C874 1.385 . S
C876 C874 1.478 . S
C876 C878 1.381 . S
C876 C882 1.383 . S
C877 C873 1.495 . S
C877 H883 0.959 . S
C877 H884 0.961 . S
C877 H885 0.960 . S
C878 C876 1.381 . S
C878 C879 1.394 . S
C878 H886 0.930 . S
C879 C878 1.394 . S
C879 C880 1.383 . S
C879 H887 0.929 . S
C880 C879 1.383 . S
C880 C881 1.377 . S
C881 H865 0.930 . S
C881 C880 1.377 . S
C881 C882 1.379 . S
C882 H866 0.931 . S
C882 C876 1.383 . S
C882 C881 1.379 . S
H883 C877 0.959 . S
H884 C877 0.961 . S
H885 C877 0.960 . S
H886 C878 0.930 . S
H887 C879 0.929 . S
H888 C896 0.929 . S
H889 C898 0.930 . S
H890 C900 0.930 . S
H891 C903 0.929 . S
H892 C906 0.930 . S
H893 C908 0.960 . S
H894 C908 0.960 . S
H895 C908 0.960 . S
C896 H888 0.929 . S
C896 C897 1.377 . S
C896 C898 1.384 . S
C897 C896 1.377 . S
C897 C903 1.390 . S
C898 H889 0.930 . S
C898 C896 1.384 . S
C898 C899 1.372 . S
C899 C898 1.372 . S
C899 C900 1.400 . S
C899 C904 1.490 . S
C900 H890 0.930 . S
C900 C899 1.400 . S
C900 C903 1.386 . S
H901 C917 0.930 . S
H902 C918 0.931 . S
C903 H891 0.929 . S
C903 C897 1.390 . S
C903 C900 1.386 . S
C904 C899 1.490 . S
C904 C906 1.395 . S
C904 C907 1.403 . S
H905 C911 0.930 . S
C906 H892 0.930 . S
C906 C904 1.395 . S
C906 C909 1.403 1_545 S
C907 C904 1.403 . S
C907 C908 1.524 . S
C907 C911 1.400 1_545 S
C908 H893 0.960 . S
C908 H894 0.960 . S
C908 H895 0.960 . S
C908 C907 1.524 . S
C909 C906 1.403 1_565 S
C909 C910 1.392 . S
C909 C913 1.495 . S
C910 C909 1.392 . S
C910 C911 1.385 . S
C910 C912 1.478 . S
C911 H905 0.930 . S
C911 C907 1.400 1_565 S
C911 C910 1.385 . S
C912 C910 1.478 . S
C912 C914 1.381 . S
C912 C918 1.383 . S
C913 C909 1.495 . S
C913 H919 0.959 . S
C913 H920 0.961 . S
C913 H921 0.960 . S
C914 C912 1.381 . S
C914 C915 1.394 . S
C914 H922 0.930 . S
C915 C914 1.394 . S
C915 C916 1.383 . S
C915 H923 0.929 . S
C916 C915 1.383 . S
C916 C917 1.377 . S
C917 H901 0.930 . S
C917 C916 1.377 . S
C917 C918 1.379 . S
C918 H902 0.931 . S
C918 C912 1.383 . S
C918 C917 1.379 . S
H919 C913 0.959 . S
H920 C913 0.961 . S
H921 C913 0.960 . S
H922 C914 0.930 . S
H923 C915 0.929 . S
H924 C932 0.929 . S
H925 C934 0.930 . S
H926 C936 0.930 . S
H927 C939 0.929 . S
H928 C942 0.930 . S
H929 C944 0.960 . S
H930 C944 0.960 . S
H931 C944 0.960 . S
C932 H924 0.929 . S
C932 C933 1.377 . S
C932 C934 1.384 . S
C933 C932 1.377 . S
C933 C939 1.390 . S
C934 H925 0.930 . S
C934 C932 1.384 . S
C934 C935 1.372 . S
C935 C934 1.372 . S
C935 C936 1.400 . S
C935 C940 1.490 . S
C936 H926 0.930 . S
C936 C935 1.400 . S
C936 C939 1.386 . S
H937 C953 0.930 . S
H938 C954 0.931 . S
C939 H927 0.929 . S
C939 C933 1.390 . S
C939 C936 1.386 . S
C940 C935 1.490 . S
C940 C942 1.395 . S
C940 C943 1.403 . S
H941 C947 0.930 . S
C942 H928 0.930 . S
C942 C940 1.395 . S
C942 C945 1.403 . S
C943 C940 1.403 . S
C943 C944 1.524 . S
C943 C947 1.400 . S
C944 H929 0.960 . S
C944 H930 0.960 . S
C944 H931 0.960 . S
C944 C943 1.524 . S
C945 C942 1.403 . S
C945 C946 1.392 . S
C945 C949 1.495 . S
C946 C945 1.392 . S
C946 C947 1.385 . S
C946 C948 1.478 . S
C947 H941 0.930 . S
C947 C943 1.400 . S
C947 C946 1.385 . S
C948 C946 1.478 . S
C948 C950 1.381 . S
C948 C954 1.383 . S
C949 C945 1.495 . S
C949 H955 0.959 . S
C949 H956 0.961 . S
C949 H957 0.960 . S
C950 C948 1.381 . S
C950 C951 1.394 . S
C950 H958 0.930 . S
C951 C950 1.394 . S
C951 C952 1.383 . S
C951 H959 0.929 . S
C952 C951 1.383 . S
C952 C953 1.377 . S
C953 H937 0.930 . S
C953 C952 1.377 . S
C953 C954 1.379 . S
C954 H938 0.931 . S
C954 C948 1.383 . S
C954 C953 1.379 . S
H955 C949 0.959 . S
H956 C949 0.961 . S
H957 C949 0.960 . S
H958 C950 0.930 . S
H959 C951 0.929 . S
H960 C968 0.929 . S
H961 C970 0.930 . S
H962 C972 0.930 . S
H963 C975 0.929 . S
H964 C978 0.930 . S
H965 C980 0.960 1_655 S
H966 C980 0.960 . S
H967 C980 0.960 . S
C968 H960 0.929 . S
C968 C969 1.377 . S
C968 C970 1.384 . S
C969 C968 1.377 . S
C969 C975 1.390 . S
C970 H961 0.930 . S
C970 C968 1.384 . S
C970 C971 1.372 . S
C971 C970 1.372 . S
C971 C972 1.400 . S
C971 C976 1.490 . S
C972 H962 0.930 . S
C972 C971 1.400 . S
C972 C975 1.386 . S
H973 C989 0.930 . S
H974 C990 0.931 . S
C975 H963 0.929 . S
C975 C969 1.390 . S
C975 C972 1.386 . S
C976 C971 1.490 . S
C976 C978 1.395 . S
C976 C979 1.403 . S
H977 C983 0.930 . S
C978 H964 0.930 . S
C978 C976 1.395 . S
C978 C981 1.403 1_455 S
C979 C976 1.403 . S
C979 C980 1.524 . S
C979 C983 1.400 1_455 S
C980 H965 0.960 1_455 S
C980 H966 0.960 . S
C980 H967 0.960 . S
C980 C979 1.524 . S
C981 C978 1.403 1_655 S
C981 C982 1.392 . S
C981 C985 1.495 . S
C982 C981 1.392 . S
C982 C983 1.385 . S
C982 C984 1.478 . S
C983 H977 0.930 . S
C983 C979 1.400 1_655 S
C983 C982 1.385 . S
C984 C982 1.478 . S
C984 C986 1.381 . S
C984 C990 1.383 . S
C985 C981 1.495 . S
C985 H991 0.959 1_655 S
C985 H992 0.961 . S
C985 H993 0.960 . S
C986 C984 1.381 . S
C986 C987 1.394 . S
C986 H994 0.930 . S
C987 C986 1.394 . S
C987 C988 1.383 . S
C987 H995 0.929 . S
C988 C987 1.383 . S
C988 C989 1.377 . S
C989 H973 0.930 . S
C989 C988 1.377 . S
C989 C990 1.379 . S
C990 H974 0.931 . S
C990 C984 1.383 . S
C990 C989 1.379 . S
H991 C985 0.959 1_455 S
H992 C985 0.961 . S
H993 C985 0.960 . S
H994 C986 0.930 . S
H995 C987 0.929 . S
H996 C1004 0.929 . S
H997 C1006 0.930 . S
H998 C1008 0.930 . S
H999 C1011 0.929 . S
H1000 C1014 0.930 . S
H1001 C1016 0.960 . S
H1002 C1016 0.960 . S
H1003 C1016 0.960 . S
C1004 H996 0.929 . S
C1004 C1005 1.377 . S
C1004 C1006 1.384 . S
C1005 C1004 1.377 . S
C1005 C1011 1.390 . S
C1006 H997 0.930 . S
C1006 C1004 1.384 . S
C1006 C1007 1.372 . S
C1007 C1006 1.372 . S
C1007 C1008 1.400 . S
C1007 C1012 1.490 . S
C1008 H998 0.930 . S
C1008 C1007 1.400 . S
C1008 C1011 1.386 . S
H1009 C1025 0.930 . S
H1010 C1026 0.931 . S
C1011 H999 0.929 . S
C1011 C1005 1.390 . S
C1011 C1008 1.386 . S
C1012 C1007 1.490 . S
C1012 C1014 1.395 . S
C1012 C1015 1.403 . S
H1013 C1019 0.930 . S
C1014 H1000 0.930 . S
C1014 C1012 1.395 . S
C1014 C1017 1.403 1_565 S
C1015 C1012 1.403 . S
C1015 C1016 1.524 . S
C1015 C1019 1.400 1_565 S
C1016 H1001 0.960 . S
C1016 H1002 0.960 . S
C1016 H1003 0.960 . S
C1016 C1015 1.524 . S
C1017 C1014 1.403 1_545 S
C1017 C1018 1.392 . S
C1017 C1021 1.495 . S
C1018 C1017 1.392 . S
C1018 C1019 1.385 . S
C1018 C1020 1.478 . S
C1019 H1013 0.930 . S
C1019 C1015 1.400 1_545 S
C1019 C1018 1.385 . S
C1020 C1018 1.478 . S
C1020 C1022 1.381 . S
C1020 C1026 1.383 . S
C1021 C1017 1.495 . S
C1021 H1027 0.959 . S
C1021 H1028 0.961 . S
C1021 H1029 0.960 . S
C1022 C1020 1.381 . S
C1022 C1023 1.394 . S
C1022 H1030 0.930 . S
C1023 C1022 1.394 . S
C1023 C1024 1.383 . S
C1023 H1031 0.929 . S
C1024 C1023 1.383 . S
C1024 C1025 1.377 . S
C1025 H1009 0.930 . S
C1025 C1024 1.377 . S
C1025 C1026 1.379 . S
C1026 H1010 0.931 . S
C1026 C1020 1.383 . S
C1026 C1025 1.379 . S
H1027 C1021 0.959 . S
H1028 C1021 0.961 . S
H1029 C1021 0.960 . S
H1030 C1022 0.930 . S
H1031 C1023 0.929 . S
C177 C141 1.620 . S
C196 C12 1.606 . S
C213 C15 1.623 . S
C232 C154 1.624 . S
C249 C29 1.623 . S
C268 C96 1.622 . S
C285 C43 1.621 . S
C304 C99 1.615 . S
C321 C112 1.619 . S
C340 C57 1.608 . S
C357 C83 1.620 . S
C376 C126 1.606 . S
C393 C113 1.643 . S
C412 C13 1.643 . S
C429 C14 1.645 . S
C448 C127 1.644 . S
C465 C28 1.645 . S
C484 C140 1.630 . S
C501 C42 1.642 . S
C520 C155 1.648 . S
C537 C97 1.645 . S
C556 C56 1.648 . S
C573 C98 1.646 . S
C592 C82 1.635 . S
C609 C55 1.338 . S
C628 C0 1.351 . S
C645 C27 1.337 . S
C664 C69 1.330 . S
C681 C71 1.337 . S
C700 C41 1.350 . S
C717 C138 1.340 . S
C736 C84 1.320 . S
C753 C153 1.342 . S
C772 C111 1.332 . S
C789 C124 1.339 . S
C808 C166 1.349 . S
C825 C54 1.877 . S
C844 C1 1.882 . S
C861 C26 1.880 . S
C880 C68 1.882 . S
C897 C70 1.877 . S
C916 C40 1.883 . S
C933 C85 1.882 . S
C952 C139 1.883 . S
C969 C152 1.878 . S
C988 C110 1.866 . S
C1005 C125 1.879 . S
C1024 C167 1.878 . S
