# Generated by pormake.
# Topology yfb, (5)-cn, num edge types: 1
# Building blocks:
#     Node 0, Type 0, BuildingBlock: XOMCOT_clean_sbu_0, # of connection points: 5
#     Node 1, Type 0, BuildingBlock: XOMCOT_clean_sbu_0, # of connection points: 5
#     Node 2, Type 0, BuildingBlock: XOMCOT_clean_sbu_0, # of connection points: 5
#     Node 3, Type 0, BuildingBlock: XOMCOT_clean_sbu_0, # of connection points: 5
#     Node 4, Type 0, BuildingBlock: XOMCOT_clean_sbu_0, # of connection points: 5
#     Node 5, Type 0, BuildingBlock: XOMCOT_clean_sbu_0, # of connection points: 5
#     Node 6, Type 0, BuildingBlock: XOMCOT_clean_sbu_0, # of connection points: 5
#     Node 7, Type 0, BuildingBlock: XOMCOT_clean_sbu_0, # of connection points: 5
#     Node 8, Type 0, BuildingBlock: XOMCOT_clean_sbu_0, # of connection points: 5
#     Node 9, Type 0, BuildingBlock: XOMCOT_clean_sbu_0, # of connection points: 5
#     Node 10, Type 0, BuildingBlock: XOMCOT_clean_sbu_0, # of connection points: 5
#     Node 11, Type 0, BuildingBlock: XOMCOT_clean_sbu_0, # of connection points: 5
#     Node 12, Type 0, BuildingBlock: XOMCOT_clean_sbu_0, # of connection points: 5
#     Node 13, Type 0, BuildingBlock: XOMCOT_clean_sbu_0, # of connection points: 5
#     Node 14, Type 0, BuildingBlock: XOMCOT_clean_sbu_0, # of connection points: 5
#     Node 15, Type 0, BuildingBlock: XOMCOT_clean_sbu_0, # of connection points: 5
#     Edge 16, Type (0, 0), BuildingBlock: TEMPAE_clean_linker_10, # of connection points: 2
#     Edge 17, Type (0, 0), BuildingBlock: TEMPAE_clean_linker_10, # of connection points: 2
#     Edge 18, Type (0, 0), BuildingBlock: TEMPAE_clean_linker_10, # of connection points: 2
#     Edge 19, Type (0, 0), BuildingBlock: TEMPAE_clean_linker_10, # of connection points: 2
#     Edge 20, Type (0, 0), BuildingBlock: TEMPAE_clean_linker_10, # of connection points: 2
#     Edge 21, Type (0, 0), BuildingBlock: TEMPAE_clean_linker_10, # of connection points: 2
#     Edge 22, Type (0, 0), BuildingBlock: TEMPAE_clean_linker_10, # of connection points: 2
#     Edge 23, Type (0, 0), BuildingBlock: TEMPAE_clean_linker_10, # of connection points: 2
#     Edge 24, Type (0, 0), BuildingBlock: TEMPAE_clean_linker_10, # of connection points: 2
#     Edge 25, Type (0, 0), BuildingBlock: TEMPAE_clean_linker_10, # of connection points: 2
#     Edge 26, Type (0, 0), BuildingBlock: TEMPAE_clean_linker_10, # of connection points: 2
#     Edge 27, Type (0, 0), BuildingBlock: TEMPAE_clean_linker_10, # of connection points: 2
#     Edge 28, Type (0, 0), BuildingBlock: TEMPAE_clean_linker_10, # of connection points: 2
#     Edge 29, Type (0, 0), BuildingBlock: TEMPAE_clean_linker_10, # of connection points: 2
#     Edge 30, Type (0, 0), BuildingBlock: TEMPAE_clean_linker_10, # of connection points: 2
#     Edge 31, Type (0, 0), BuildingBlock: TEMPAE_clean_linker_10, # of connection points: 2
#     Edge 32, Type (0, 0), BuildingBlock: TEMPAE_clean_linker_10, # of connection points: 2
#     Edge 33, Type (0, 0), BuildingBlock: TEMPAE_clean_linker_10, # of connection points: 2
#     Edge 34, Type (0, 0), BuildingBlock: TEMPAE_clean_linker_10, # of connection points: 2
#     Edge 35, Type (0, 0), BuildingBlock: TEMPAE_clean_linker_10, # of connection points: 2
#     Edge 36, Type (0, 0), BuildingBlock: TEMPAE_clean_linker_10, # of connection points: 2
#     Edge 37, Type (0, 0), BuildingBlock: TEMPAE_clean_linker_10, # of connection points: 2
#     Edge 38, Type (0, 0), BuildingBlock: TEMPAE_clean_linker_10, # of connection points: 2
#     Edge 39, Type (0, 0), BuildingBlock: TEMPAE_clean_linker_10, # of connection points: 2
#     Edge 40, Type (0, 0), BuildingBlock: TEMPAE_clean_linker_10, # of connection points: 2
#     Edge 41, Type (0, 0), BuildingBlock: TEMPAE_clean_linker_10, # of connection points: 2
#     Edge 42, Type (0, 0), BuildingBlock: TEMPAE_clean_linker_10, # of connection points: 2
#     Edge 43, Type (0, 0), BuildingBlock: TEMPAE_clean_linker_10, # of connection points: 2
#     Edge 44, Type (0, 0), BuildingBlock: TEMPAE_clean_linker_10, # of connection points: 2
#     Edge 45, Type (0, 0), BuildingBlock: TEMPAE_clean_linker_10, # of connection points: 2
#     Edge 46, Type (0, 0), BuildingBlock: TEMPAE_clean_linker_10, # of connection points: 2
#     Edge 47, Type (0, 0), BuildingBlock: TEMPAE_clean_linker_10, # of connection points: 2
#     Edge 48, Type (0, 0), BuildingBlock: TEMPAE_clean_linker_10, # of connection points: 2
#     Edge 49, Type (0, 0), BuildingBlock: TEMPAE_clean_linker_10, # of connection points: 2
#     Edge 50, Type (0, 0), BuildingBlock: TEMPAE_clean_linker_10, # of connection points: 2
#     Edge 51, Type (0, 0), BuildingBlock: TEMPAE_clean_linker_10, # of connection points: 2
#     Edge 52, Type (0, 0), BuildingBlock: TEMPAE_clean_linker_10, # of connection points: 2
#     Edge 53, Type (0, 0), BuildingBlock: TEMPAE_clean_linker_10, # of connection points: 2
#     Edge 54, Type (0, 0), BuildingBlock: TEMPAE_clean_linker_10, # of connection points: 2
#     Edge 55, Type (0, 0), BuildingBlock: TEMPAE_clean_linker_10, # of connection points: 2
# Relax obj value: 0.751
# Max RMSD: 0.295
# Mean RMSD: 0.295
data_MOF--net-yfb--node1-XOMCOT_clean_sbu_0--edge1-TEMPAE_clean_linker_10
_symmetry_space_group_name_H-M    P1
_symmetry_Int_Tables_number       1
_symmetry_cell_setting            triclinic
loop_
_symmetry_equiv_pos_as_xyz
'x, y, z'
_cell_length_a     42.949146
_cell_length_b     42.916773
_cell_length_c     43.141352
_cell_angle_alpha  90.003614
_cell_angle_beta   90.071874
_cell_angle_gamma 89.895203
loop_
_atom_site_label
_atom_site_type_symbol
_atom_site_fract_x
_atom_site_fract_y
_atom_site_fract_z
_atom_type_partial_charge
Co0 Co 0.66303 0.07136 0.10413 0.0
C1 C 0.61192 0.03571 0.07604 0.0
C2 C 0.61355 0.02654 0.12465 0.0
C3 C 0.5866 0.01354 0.11245 0.0
N4 N 0.62982 0.04015 0.10156 0.0
N5 N 0.58559 0.0198 0.08184 0.0
H6 H 0.61658 0.04605 0.05375 0.0
H7 H 0.61931 0.02808 0.14899 0.0
C8 C 0.68438 0.03103 0.15714 0.0
O9 O 0.68168 0.00648 0.13913 0.0
N10 N 0.69487 0.10339 0.10487 0.0
C11 C 0.71435 0.10898 0.08102 0.0
C12 C 0.72983 0.13622 0.08629 0.0
C13 C 0.69818 0.12811 0.12409 0.0
N14 N 0.71942 0.14863 0.11305 0.0
C15 C 0.6871 0.03228 0.05546 0.0
C16 C 0.74729 0.0307 0.07808 0.0
C17 C 0.74192 0.0234 0.04689 0.0
C18 C 0.71112 0.0218 0.03641 0.0
C19 C 0.72253 0.04065 0.09653 0.0
N20 N 0.69305 0.04318 0.08459 0.0
H21 H 0.66459 0.03492 0.04513 0.0
H22 H 0.72807 0.05045 0.11891 0.0
H23 H 0.71595 0.09511 0.06016 0.0
H24 H 0.68379 0.13212 0.14428 0.0
O25 O 0.64651 0.09134 0.06762 0.0
O26 O 0.63205 0.10178 0.11606 0.0
O27 O 0.67614 0.05787 0.14722 0.0
C28 C 0.62905 0.10719 0.08655 0.0
H29 H 0.56809 0.00259 0.1255 0.0
H30 H 0.74646 0.14687 0.07073 0.0
H31 H 0.77076 0.03268 0.08708 0.0
H32 H 0.70598 0.01606 0.01249 0.0
Co33 Co 0.43208 0.6621 0.11676 0.0
C34 C 0.47001 0.61497 0.08437 0.0
C35 C 0.47814 0.61284 0.13316 0.0
C36 C 0.49146 0.58691 0.11935 0.0
N37 N 0.4649 0.63083 0.11109 0.0
N38 N 0.48588 0.58811 0.08859 0.0
H39 H 0.45973 0.62122 0.06248 0.0
H40 H 0.47579 0.61657 0.15782 0.0
C41 C 0.47522 0.68207 0.16786 0.0
O42 O 0.49849 0.67989 0.14821 0.0
N43 N 0.3985 0.69211 0.12111 0.0
C44 C 0.39022 0.7129 0.09912 0.0
C45 C 0.36485 0.72937 0.10916 0.0
C46 C 0.37706 0.69533 0.14385 0.0
N47 N 0.35655 0.71839 0.13716 0.0
C48 C 0.46372 0.69168 0.06596 0.0
C49 C 0.46625 0.74974 0.09344 0.0
C50 C 0.46947 0.74741 0.06126 0.0
C51 C 0.47035 0.71777 0.04783 0.0
C52 C 0.45957 0.72315 0.1107 0.0
N53 N 0.45685 0.69461 0.09674 0.0
H54 H 0.4602 0.67005 0.0541 0.0
H55 H 0.4522 0.7266 0.13434 0.0
H56 H 0.4013 0.71536 0.07678 0.0
H57 H 0.37593 0.68069 0.16424 0.0
O58 O 0.41105 0.64582 0.08084 0.0
O59 O 0.4043 0.62897 0.12918 0.0
O60 O 0.44781 0.67418 0.15938 0.0
C61 C 0.39748 0.6267 0.09988 0.0
H62 H 0.50197 0.56743 0.1314 0.0
H63 H 0.35224 0.74687 0.09609 0.0
H64 H 0.4652 0.77233 0.10462 0.0
H65 H 0.47223 0.71504 0.02293 0.0
Co66 Co 0.84316 0.43681 0.11845 0.0
C67 C 0.89127 0.4774 0.0913 0.0
C68 C 0.89606 0.47381 0.14048 0.0
C69 C 0.92344 0.48548 0.12839 0.0
N70 N 0.87569 0.46854 0.11719 0.0
N71 N 0.92021 0.48772 0.09744 0.0
H72 H 0.88407 0.47187 0.06803 0.0
H73 H 0.89288 0.46594 0.16408 0.0
C74 C 0.82545 0.47559 0.17326 0.0
O75 O 0.8302 0.50034 0.15598 0.0
N76 N 0.81196 0.40432 0.11901 0.0
C77 C 0.79097 0.39871 0.09642 0.0
C78 C 0.77324 0.37353 0.10473 0.0
C79 C 0.80746 0.38173 0.14034 0.0
N80 N 0.7836 0.36288 0.13224 0.0
C81 C 0.81469 0.47334 0.07025 0.0
C82 C 0.75705 0.47628 0.09834 0.0
C83 C 0.75911 0.48077 0.0663 0.0
C84 C 0.78862 0.4816 0.05269 0.0
C85 C 0.78356 0.46783 0.11499 0.0
N86 N 0.81188 0.46487 0.10066 0.0
H87 H 0.83598 0.46949 0.05791 0.0
H88 H 0.77993 0.45908 0.1381 0.0
H89 H 0.78909 0.41157 0.07495 0.0
H90 H 0.82169 0.37871 0.16085 0.0
O91 O 0.85957 0.41952 0.08069 0.0
O92 O 0.87488 0.40619 0.12814 0.0
O93 O 0.83099 0.44848 0.16227 0.0
C94 C 0.87784 0.40303 0.09829 0.0
H95 H 0.94493 0.48927 0.14096 0.0
H96 H 0.75521 0.36275 0.09085 0.0
H97 H 0.73456 0.47523 0.10966 0.0
H98 H 0.79116 0.48444 0.02786 0.0
Co99 Co 0.06492 0.83782 0.1098 0.0
C100 C 0.02647 0.88645 0.08068 0.0
C101 C 0.02432 0.89008 0.12999 0.0
C102 C 0.0121 0.91703 0.11714 0.0
N103 N 0.0332 0.87057 0.10704 0.0
N104 N 0.01404 0.9148 0.08607 0.0
H105 H 0.03382 0.8793 0.05786 0.0
H106 H 0.02959 0.88675 0.15427 0.0
C107 C 0.02777 0.82212 0.16636 0.0
O108 O 0.00249 0.82545 0.14949 0.0
N109 N 0.09737 0.80629 0.11105 0.0
C110 C 0.10214 0.78522 0.08835 0.0
C111 C 0.12935 0.76963 0.09399 0.0
C112 C 0.12235 0.80362 0.13006 0.0
N113 N 0.14233 0.78135 0.11994 0.0
C114 C 0.02597 0.80814 0.06467 0.0
C115 C 0.02426 0.75133 0.09462 0.0
C116 C 0.01895 0.75232 0.0626 0.0
C117 C 0.01734 0.78153 0.04816 0.0
C118 C 0.03389 0.77819 0.10993 0.0
N119 N 0.03622 0.806 0.09456 0.0
H120 H 0.02851 0.82941 0.05187 0.0
H121 H 0.04372 0.77524 0.13273 0.0
H122 H 0.08763 0.78236 0.06808 0.0
H123 H 0.12681 0.81894 0.14949 0.0
O124 O 0.08173 0.85128 0.07072 0.0
O125 O 0.09555 0.87012 0.11666 0.0
O126 O 0.05438 0.82816 0.15457 0.0
C127 C 0.09849 0.87077 0.08661 0.0
H128 H 0.00555 0.93789 0.12967 0.0
H129 H 0.13954 0.7519 0.0793 0.0
H130 H 0.02523 0.7293 0.10685 0.0
H131 H 0.01347 0.78354 0.02344 0.0
Co132 Co 0.66192 0.43696 0.41155 0.0
C133 C 0.614 0.47566 0.44119 0.0
C134 C 0.61076 0.47928 0.39193 0.0
C135 C 0.58403 0.49181 0.40491 0.0
N136 N 0.62989 0.46931 0.41477 0.0
N137 N 0.58605 0.48894 0.43593 0.0
H138 H 0.62078 0.46746 0.46384 0.0
H139 H 0.61416 0.47465 0.36754 0.0
C140 C 0.67932 0.47601 0.357 0.0
O141 O 0.67609 0.50048 0.37504 0.0
N142 N 0.69276 0.40392 0.41005 0.0
C143 C 0.71092 0.3966 0.43444 0.0
C144 C 0.72861 0.3712 0.42714 0.0
C145 C 0.6993 0.38228 0.38815 0.0
N146 N 0.72156 0.36201 0.39803 0.0
C147 C 0.69195 0.47446 0.45795 0.0
C148 C 0.74939 0.47342 0.42925 0.0
C149 C 0.74782 0.47924 0.46109 0.0
C150 C 0.71855 0.48213 0.47497 0.0
C151 C 0.72245 0.46537 0.41329 0.0
N152 N 0.69425 0.4643 0.42803 0.0
H153 H 0.67038 0.47273 0.47033 0.0
H154 H 0.72534 0.4556 0.39044 0.0
H155 H 0.71066 0.40849 0.45654 0.0
H156 H 0.68763 0.38103 0.36594 0.0
O157 O 0.64751 0.41932 0.44988 0.0
O158 O 0.62913 0.40719 0.40327 0.0
O159 O 0.67252 0.44893 0.36734 0.0
C160 C 0.62804 0.40332 0.43321 0.0
H161 H 0.56344 0.49926 0.39244 0.0
H162 H 0.74432 0.35944 0.44292 0.0
H163 H 0.7717 0.47084 0.4178 0.0
H164 H 0.71645 0.48625 0.49966 0.0
Co165 Co 0.07306 0.65727 0.40571 0.0
C166 C 0.03024 0.6099 0.43051 0.0
C167 C 0.03759 0.60427 0.38184 0.0
C168 C 0.0256 0.57686 0.39362 0.0
N169 N 0.04088 0.62513 0.40505 0.0
N170 N 0.02105 0.58055 0.42426 0.0
H171 H 0.03377 0.61773 0.45394 0.0
H172 H 0.04723 0.60714 0.35887 0.0
C173 C 0.03559 0.67597 0.35037 0.0
O174 O 0.01064 0.66997 0.36692 0.0
N175 N 0.10582 0.68811 0.40767 0.0
C176 C 0.11352 0.7034 0.43377 0.0
C177 C 0.1386 0.72202 0.42791 0.0
C178 C 0.12664 0.69751 0.3861 0.0
N179 N 0.14703 0.7186 0.39792 0.0
C180 C 0.03777 0.6857 0.45461 0.0
C181 C 0.03278 0.74309 0.42622 0.0
C182 C 0.02946 0.74135 0.45845 0.0
C183 C 0.02989 0.71181 0.47228 0.0
C184 C 0.04182 0.71674 0.40967 0.0
N185 N 0.04523 0.68842 0.42395 0.0
H186 H 0.0423 0.66451 0.46701 0.0
H187 H 0.05011 0.72061 0.38648 0.0
H188 H 0.10223 0.70047 0.45595 0.0
H189 H 0.12715 0.68864 0.36263 0.0
O190 O 0.0889 0.63901 0.44328 0.0
O191 O 0.10359 0.62545 0.39577 0.0
O192 O 0.06258 0.67111 0.36197 0.0
C193 C 0.10566 0.6212 0.42558 0.0
H194 H 0.02334 0.55502 0.38126 0.0
H195 H 0.15056 0.73582 0.44518 0.0
H196 H 0.0322 0.76533 0.41435 0.0
H197 H 0.02801 0.70916 0.49717 0.0
Co198 Co 0.84677 0.07247 0.39965 0.0
C199 C 0.89439 0.02941 0.42389 0.0
C200 C 0.89894 0.03564 0.37497 0.0
C201 C 0.9262 0.02272 0.38632 0.0
N202 N 0.8788 0.04004 0.3986 0.0
N203 N 0.9232 0.01893 0.41717 0.0
H204 H 0.88735 0.03372 0.44742 0.0
H205 H 0.89568 0.04476 0.35182 0.0
C206 C 0.82703 0.03565 0.34429 0.0
O207 O 0.83245 0.01053 0.36086 0.0
N208 N 0.81608 0.10553 0.4023 0.0
C209 C 0.80064 0.11227 0.42858 0.0
C210 C 0.78229 0.13781 0.4237 0.0
C211 C 0.80719 0.12758 0.38165 0.0
N212 N 0.78614 0.14762 0.39421 0.0
C213 C 0.81868 0.03549 0.44778 0.0
C214 C 0.76037 0.03578 0.42075 0.0
C215 C 0.76298 0.03055 0.45257 0.0
C216 C 0.79262 0.02812 0.46569 0.0
C217 C 0.78683 0.04321 0.40375 0.0
N218 N 0.81557 0.04459 0.41754 0.0
H219 H 0.84027 0.03845 0.45987 0.0
H220 H 0.78296 0.05267 0.38096 0.0
H221 H 0.80329 0.09995 0.45028 0.0
H222 H 0.81635 0.12925 0.35836 0.0
O223 O 0.86531 0.08795 0.43729 0.0
O224 O 0.87844 0.10285 0.38968 0.0
O225 O 0.83261 0.06253 0.35585 0.0
C226 C 0.88279 0.10491 0.41946 0.0
H227 H 0.94744 0.01892 0.37337 0.0
H228 H 0.76839 0.14917 0.4413 0.0
H229 H 0.73768 0.03852 0.41006 0.0
H230 H 0.79538 0.02493 0.49046 0.0
Co231 Co 0.43323 0.84375 0.40717 0.0
C232 C 0.47262 0.88948 0.43912 0.0
C233 C 0.47873 0.89328 0.39018 0.0
C234 C 0.49225 0.91893 0.40435 0.0
N235 N 0.46658 0.87446 0.41213 0.0
N236 N 0.48785 0.91662 0.43521 0.0
H237 H 0.4631 0.88272 0.46115 0.0
H238 H 0.4753 0.89036 0.36552 0.0
C239 C 0.47494 0.82383 0.3552 0.0
O240 O 0.49853 0.82624 0.37449 0.0
N241 N 0.39923 0.8142 0.40436 0.0
C242 C 0.39022 0.79689 0.42878 0.0
C243 C 0.36521 0.77924 0.42047 0.0
C244 C 0.37878 0.80736 0.3814 0.0
N245 N 0.35788 0.78557 0.39073 0.0
C246 C 0.46611 0.81277 0.45679 0.0
C247 C 0.46549 0.75511 0.42835 0.0
C248 C 0.46993 0.75685 0.46037 0.0
C249 C 0.47241 0.78612 0.47428 0.0
C250 C 0.45931 0.7822 0.41173 0.0
N251 N 0.4581 0.81061 0.42619 0.0
H252 H 0.46358 0.83424 0.46915 0.0
H253 H 0.45095 0.77938 0.38833 0.0
H254 H 0.40082 0.79755 0.45152 0.0
H255 H 0.3789 0.81829 0.3588 0.0
O256 O 0.41353 0.86039 0.4437 0.0
O257 O 0.40547 0.87731 0.39558 0.0
O258 O 0.44761 0.83155 0.36412 0.0
C259 C 0.39957 0.87967 0.42504 0.0
H260 H 0.50182 0.93906 0.39264 0.0
H261 H 0.35243 0.7639 0.43577 0.0
H262 H 0.46278 0.73274 0.41701 0.0
H263 H 0.47506 0.78821 0.49918 0.0
Co264 Co 0.33558 0.93839 0.90803 0.0
C265 C 0.38624 0.9773 0.93303 0.0
C266 C 0.38674 0.97759 0.88355 0.0
C267 C 0.41447 0.99008 0.89429 0.0
N268 N 0.3687 0.96971 0.90795 0.0
N269 N 0.41387 0.98988 0.9255 0.0
H270 H 0.3814 0.96973 0.95635 0.0
H271 H 0.38167 0.97173 0.8597 0.0
C272 C 0.31455 0.97675 0.85405 0.0
O273 O 0.3184 1.00158 0.87145 0.0
N274 N 0.30405 0.90611 0.90916 0.0
C275 C 0.28477 0.90063 0.9332 0.0
C276 C 0.26742 0.87461 0.92693 0.0
C277 C 0.29905 0.88248 0.88904 0.0
N278 N 0.27642 0.86315 0.89929 0.0
C279 C 0.31141 0.97903 0.9554 0.0
C280 C 0.25078 0.9766 0.93426 0.0
C281 C 0.25642 0.98414 0.96536 0.0
C282 C 0.28728 0.98828 0.97488 0.0
C283 C 0.27572 0.96833 0.91517 0.0
N284 N 0.30549 0.96721 0.92662 0.0
H285 H 0.3341 0.97771 0.96544 0.0
H286 H 0.27028 0.95815 0.89293 0.0
H287 H 0.2841 0.91404 0.95442 0.0
H288 H 0.31232 0.8789 0.86802 0.0
O289 O 0.35301 0.92119 0.94535 0.0
O290 O 0.36642 0.90727 0.89746 0.0
O291 O 0.32172 0.94985 0.8646 0.0
C292 C 0.37024 0.90418 0.92724 0.0
H293 H 0.43427 0.99678 0.88031 0.0
H294 H 0.2508 0.86375 0.94237 0.0
H295 H 0.22729 0.97296 0.92586 0.0
H296 H 0.29266 0.99462 0.9986 0.0
Co297 Co 0.5718 0.34544 0.91198 0.0
C298 C 0.52763 0.39373 0.93092 0.0
C299 C 0.54289 0.40066 0.88432 0.0
C300 C 0.53056 0.42828 0.89528 0.0
N301 N 0.54138 0.37883 0.9068 0.0
N302 N 0.52142 0.42398 0.92486 0.0
H303 H 0.52667 0.38438 0.95404 0.0
H304 H 0.55583 0.398 0.86299 0.0
C305 C 0.54185 0.32907 0.84999 0.0
O306 O 0.51632 0.34425 0.85727 0.0
N307 N 0.6028 0.31331 0.91853 0.0
C308 C 0.60758 0.29811 0.9454 0.0
C309 C 0.63367 0.27998 0.94266 0.0
C310 C 0.62644 0.30446 0.8998 0.0
N311 N 0.64575 0.28384 0.91402 0.0
C312 C 0.53533 0.32061 0.96152 0.0
C313 C 0.52081 0.2653 0.93251 0.0
C314 C 0.52069 0.26627 0.965 0.0
C315 C 0.52563 0.29525 0.97923 0.0
C316 C 0.53175 0.29085 0.91574 0.0
N317 N 0.54077 0.31763 0.93044 0.0
H318 H 0.54298 0.3409 0.974 0.0
H319 H 0.53602 0.28705 0.89157 0.0
H320 H 0.59421 0.3013 0.96632 0.0
H321 H 0.62993 0.3138 0.87678 0.0
O322 O 0.58597 0.36623 0.94897 0.0
O323 O 0.60466 0.37465 0.90177 0.0
O324 O 0.56482 0.3281 0.86886 0.0
C325 C 0.60494 0.38141 0.93115 0.0
H326 H 0.53108 0.45047 0.88338 0.0
H327 H 0.64399 0.26661 0.9613 0.0
H328 H 0.51581 0.24393 0.92015 0.0
H329 H 0.52596 0.2977 1.00419 0.0
Co330 Co 0.16274 0.56552 0.91731 0.0
C331 C 0.11644 0.52146 0.94088 0.0
C332 C 0.10847 0.53137 0.89305 0.0
C333 C 0.08194 0.51789 0.90526 0.0
N334 N 0.13031 0.5337 0.91547 0.0
N335 N 0.08684 0.51227 0.93561 0.0
H336 H 0.12616 0.52262 0.96378 0.0
H337 H 0.11018 0.54223 0.87049 0.0
C338 C 0.17964 0.53057 0.85827 0.0
O339 O 0.16609 0.50503 0.86812 0.0
N340 N 0.19408 0.59811 0.9203 0.0
C341 C 0.21542 0.60126 0.94307 0.0
C342 C 0.23073 0.62893 0.9394 0.0
C343 C 0.1966 0.62446 0.90318 0.0
N344 N 0.21871 0.64381 0.91462 0.0
C345 C 0.18879 0.53271 0.9692 0.0
C346 C 0.24441 0.51784 0.94088 0.0
C347 C 0.24302 0.51826 0.97328 0.0
C348 C 0.21407 0.52333 0.98729 0.0
C349 C 0.21871 0.52761 0.92361 0.0
N350 N 0.19169 0.53672 0.93786 0.0
H351 H 0.16871 0.54131 0.98138 0.0
H352 H 0.22265 0.53149 0.8994 0.0
H353 H 0.21899 0.5855 0.96215 0.0
H354 H 0.18138 0.63014 0.88397 0.0
O355 O 0.14219 0.58254 0.95322 0.0
O356 O 0.13227 0.59627 0.90452 0.0
O357 O 0.17946 0.55526 0.87481 0.0
C358 C 0.12611 0.59926 0.93385 0.0
H359 H 0.0597 0.51585 0.89361 0.0
H360 H 0.24869 0.63788 0.95458 0.0
H361 H 0.26627 0.51363 0.92906 0.0
H362 H 0.21188 0.52435 0.01228 0.0
Co363 Co 0.94196 0.16471 0.9149 0.0
C364 C 0.98505 0.11603 0.93639 0.0
C365 C 0.97704 0.11281 0.88763 0.0
C366 C 0.98966 0.08501 0.89781 0.0
N367 N 0.97402 0.13251 0.91185 0.0
N368 N 0.99434 0.087 0.92864 0.0
H369 H 0.98175 0.12285 0.96019 0.0
H370 H 0.96701 0.11667 0.86494 0.0
C371 C 0.97345 0.18276 0.85501 0.0
O372 O 1.00049 0.17471 0.86684 0.0
N373 N 0.90925 0.19552 0.91925 0.0
C374 C 0.90435 0.2123 0.94515 0.0
C375 C 0.87779 0.22953 0.94156 0.0
C376 C 0.88513 0.20242 0.90026 0.0
N377 N 0.8655 0.22346 0.91336 0.0
C378 C 0.98115 0.19282 0.96085 0.0
C379 C 0.97954 0.25097 0.93357 0.0
C380 C 0.98439 0.24875 0.96553 0.0
C381 C 0.98792 0.21917 0.97868 0.0
C382 C 0.97257 0.22422 0.9167 0.0
N383 N 0.97118 0.1957 0.93087 0.0
H384 H 0.97921 0.17103 0.97287 0.0
H385 H 0.9633 0.22778 0.89381 0.0
H386 H 0.91843 0.21112 0.96589 0.0
H387 H 0.88164 0.19163 0.87786 0.0
O388 O 0.92846 0.14677 0.95356 0.0
O389 O 0.91121 0.13287 0.90702 0.0
O390 O 0.94849 0.17898 0.87067 0.0
C391 C 0.91049 0.12904 0.93694 0.0
H392 H 0.9924 0.06407 0.8841 0.0
H393 H 0.86743 0.24405 0.95928 0.0
H394 H 0.97662 0.27353 0.92263 0.0
H395 H 0.99142 0.21652 1.00341 0.0
Co396 Co 0.33785 0.56157 0.612 0.0
C397 C 0.38781 0.5208 0.58864 0.0
C398 C 0.39165 0.52749 0.63755 0.0
C399 C 0.41932 0.51517 0.62669 0.0
N400 N 0.3716 0.53099 0.61367 0.0
N401 N 0.41688 0.51124 0.59579 0.0
H402 H 0.38068 0.52467 0.56503 0.0
H403 H 0.38791 0.53662 0.66061 0.0
C404 C 0.32197 0.52793 0.67139 0.0
O405 O 0.33094 0.50134 0.6592 0.0
N406 N 0.30539 0.5929 0.6095 0.0
C407 C 0.28499 0.59652 0.58599 0.0
C408 C 0.26635 0.62179 0.59211 0.0
C409 C 0.29951 0.61665 0.62922 0.0
N410 N 0.27551 0.63449 0.61919 0.0
C411 C 0.3114 0.52176 0.56558 0.0
C412 C 0.25366 0.51897 0.59342 0.0
C413 C 0.25591 0.51453 0.5614 0.0
C414 C 0.28548 0.51316 0.548 0.0
C415 C 0.28006 0.52755 0.61015 0.0
N416 N 0.30823 0.53108 0.59572 0.0
H417 H 0.33272 0.52554 0.55326 0.0
H418 H 0.27617 0.53633 0.63316 0.0
H419 H 0.28422 0.58232 0.56533 0.0
H420 H 0.31289 0.62119 0.65001 0.0
O421 O 0.35455 0.57668 0.57349 0.0
O422 O 0.36799 0.59391 0.62024 0.0
O423 O 0.32476 0.55326 0.65611 0.0
C424 C 0.37157 0.59514 0.59032 0.0
H425 H 0.44037 0.51183 0.64011 0.0
H426 H 0.24851 0.63116 0.57697 0.0
H427 H 0.23106 0.52042 0.6045 0.0
H428 H 0.28811 0.51017 0.5232 0.0
Co429 Co 0.94105 0.34205 0.60586 0.0
C430 C 0.98768 0.38682 0.585 0.0
C431 C 0.97375 0.39638 0.63148 0.0
C432 C 0.98746 0.42281 0.61925 0.0
N433 N 0.97352 0.37366 0.60981 0.0
N434 N 0.99551 0.41693 0.58963 0.0
H435 H 0.9887 0.37614 0.56255 0.0
H436 H 0.961 0.39536 0.65306 0.0
C437 C 0.97236 0.32415 0.66668 0.0
O438 O 0.99817 0.3383 0.65861 0.0
N439 N 0.90813 0.31172 0.60026 0.0
C440 C 0.90247 0.29636 0.57363 0.0
C441 C 0.87584 0.27928 0.57683 0.0
C442 C 0.88426 0.30416 0.61929 0.0
N443 N 0.8642 0.28405 0.60548 0.0
C444 C 0.97496 0.31518 0.55513 0.0
C445 C 0.98494 0.25846 0.58357 0.0
C446 C 0.98596 0.26018 0.55124 0.0
C447 C 0.98336 0.28942 0.53721 0.0
C448 C 0.97658 0.28473 0.60068 0.0
N449 N 0.96976 0.31239 0.58632 0.0
H450 H 0.96787 0.33575 0.54274 0.0
H451 H 0.97179 0.28095 0.62476 0.0
H452 H 0.91573 0.29863 0.55254 0.0
H453 H 0.88121 0.31387 0.64223 0.0
O454 O 0.92647 0.36383 0.56951 0.0
O455 O 0.91027 0.37283 0.61755 0.0
O456 O 0.94872 0.32428 0.64865 0.0
C457 C 0.90888 0.37971 0.58825 0.0
H458 H 0.98779 0.44559 0.63002 0.0
H459 H 0.86485 0.26592 0.55858 0.0
H460 H 0.98685 0.23618 0.59525 0.0
H461 H 0.98341 0.29164 0.5122 0.0
Co462 Co 0.16402 0.93446 0.60715 0.0
C463 C 0.11592 0.97248 0.57635 0.0
C464 C 0.11122 0.97565 0.62552 0.0
C465 C 0.08514 0.98877 0.61175 0.0
N466 N 0.1309 0.96569 0.60322 0.0
N467 N 0.08802 0.98629 0.58073 0.0
H468 H 0.12358 0.96473 0.55391 0.0
H469 H 0.11407 0.97109 0.65001 0.0
C470 C 0.17945 0.97558 0.6617 0.0
O471 O 0.17493 1.00014 0.64405 0.0
N472 N 0.19613 0.90226 0.60943 0.0
C473 C 0.21986 0.89918 0.58913 0.0
C474 C 0.23384 0.87089 0.5932 0.0
C475 C 0.1957 0.87491 0.62522 0.0
N476 N 0.21843 0.85527 0.61543 0.0
C477 C 0.19208 0.96857 0.55731 0.0
C478 C 0.24756 0.98084 0.58722 0.0
C479 C 0.24646 0.98305 0.55482 0.0
C480 C 0.21761 0.97879 0.54019 0.0
C481 C 0.22176 0.96967 0.60338 0.0
N482 N 0.19455 0.96261 0.58832 0.0
H483 H 0.17192 0.96141 0.54452 0.0
H484 H 0.22556 0.96282 0.62707 0.0
H485 H 0.22545 0.91509 0.57063 0.0
H486 H 0.17768 0.86848 0.6415 0.0
O487 O 0.14844 0.91443 0.57029 0.0
O488 O 0.13271 0.90421 0.61834 0.0
O489 O 0.17522 0.94826 0.65068 0.0
C490 C 0.13039 0.89883 0.58879 0.0
H491 H 0.0645 0.99686 0.6237 0.0
H492 H 0.25276 0.8617 0.57936 0.0
H493 H 0.26919 0.98423 0.59969 0.0
H494 H 0.21546 0.97956 0.5152 0.0
Co495 Co 0.56946 0.16369 0.60478 0.0
C496 C 0.52736 0.11295 0.58653 0.0
C497 C 0.53619 0.11185 0.63519 0.0
C498 C 0.52334 0.08362 0.62636 0.0
N499 N 0.53865 0.13055 0.61012 0.0
N500 N 0.51787 0.08451 0.59561 0.0
H501 H 0.53073 0.11817 0.56239 0.0
H502 H 0.54639 0.11681 0.65758 0.0
C503 C 0.53869 0.1845 0.66394 0.0
O504 O 0.51164 0.17575 0.65273 0.0
N505 N 0.60096 0.19518 0.59827 0.0
C506 C 0.60516 0.2108 0.57158 0.0
C507 C 0.63157 0.22848 0.57404 0.0
C508 C 0.62515 0.2033 0.61662 0.0
N509 N 0.64435 0.22389 0.60235 0.0
C510 C 0.52528 0.18707 0.56026 0.0
C511 C 0.52782 0.24761 0.58166 0.0
C512 C 0.51825 0.24207 0.5511 0.0
C513 C 0.51423 0.21118 0.54161 0.0
C514 C 0.53787 0.2227 0.59997 0.0
N515 N 0.53861 0.19299 0.5884 0.0
H516 H 0.52691 0.16461 0.54974 0.0
H517 H 0.54953 0.22834 0.62139 0.0
H518 H 0.59065 0.20852 0.5512 0.0
H519 H 0.62898 0.19357 0.63943 0.0
O520 O 0.58222 0.14422 0.56663 0.0
O521 O 0.60184 0.13351 0.61314 0.0
O522 O 0.56356 0.17992 0.64836 0.0
C523 C 0.6015 0.12805 0.58346 0.0
H524 H 0.52067 0.06325 0.64089 0.0
H525 H 0.64139 0.24227 0.5555 0.0
H526 H 0.53161 0.27111 0.58998 0.0
H527 H 0.50656 0.20585 0.51826 0.0
C528 C 0.72982 0.00967 0.1866 0.0
C529 C 0.7036 0.0292 0.18571 0.0
C530 C 0.75063 0.01035 0.21182 0.0
C531 C 0.74458 0.03026 0.23733 0.0
C532 C 0.71754 0.04929 0.23696 0.0
C533 C 0.69774 0.04899 0.21089 0.0
C534 C 0.77963 0.99044 0.21071 0.0
C535 C 0.70958 0.0701 0.26403 0.0
C536 C 0.78427 0.01044 0.31402 0.0
C537 C 0.80751 0.0333 0.31594 0.0
C538 C 0.76346 0.00944 0.28884 0.0
C539 C 0.76654 0.03118 0.26433 0.0
C540 C 0.79054 0.05384 0.26576 0.0
C541 C 0.81032 0.05501 0.29183 0.0
C542 C 0.73763 0.98562 0.28889 0.0
C543 C 0.79531 0.07685 0.23975 0.0
H544 H 0.73484 0.99481 0.1669 0.0
H545 H 0.67758 0.06423 0.21021 0.0
H546 H 0.80057 0.00544 0.21264 0.0
H547 H 0.78005 0.97413 0.23064 0.0
H548 H 0.78128 0.97668 0.18896 0.0
H549 H 0.68668 0.08182 0.26107 0.0
H550 H 0.70911 0.05629 0.28578 0.0
H551 H 0.72773 0.08824 0.26683 0.0
H552 H 0.78156 0.99397 0.33288 0.0
H553 H 0.82817 0.07279 0.29328 0.0
H554 H 0.73961 0.97029 0.26829 0.0
H555 H 0.71474 0.99757 0.28743 0.0
H556 H 0.73795 0.97084 0.31003 0.0
H557 H 0.79791 0.06429 0.21741 0.0
H558 H 0.81617 0.09166 0.24345 0.0
H559 H 0.77463 0.09221 0.23761 0.0
C560 C 0.45774 0.80907 0.30152 0.0
C561 C 0.47835 0.80506 0.32645 0.0
C562 C 0.45886 0.7893 0.27548 0.0
C563 C 0.4804 0.76421 0.27477 0.0
C564 C 0.50136 0.76019 0.29985 0.0
C565 C 0.50038 0.7809 0.32512 0.0
C566 C 0.43669 0.79502 0.2489 0.0
C567 C 0.52407 0.73329 0.30054 0.0
C568 C 0.45905 0.69609 0.22197 0.0
C569 C 0.47882 0.70084 0.19657 0.0
C570 C 0.46004 0.71591 0.24797 0.0
C571 C 0.48052 0.7418 0.24815 0.0
C572 C 0.50066 0.74656 0.2226 0.0
C573 C 0.49989 0.72579 0.19736 0.0
C574 C 0.43881 0.7094 0.27506 0.0
C575 C 0.5222 0.7743 0.22136 0.0
H576 H 0.4406 0.82762 0.30247 0.0
H577 H 0.51601 0.77726 0.34455 0.0
H578 H 0.44974 0.79643 0.22676 0.0
H579 H 0.42019 0.77527 0.24686 0.0
H580 H 0.42307 0.81684 0.25193 0.0
H581 H 0.539 0.73354 0.32158 0.0
H582 H 0.51112 0.71095 0.29987 0.0
H583 H 0.53927 0.73391 0.27979 0.0
H584 H 0.44265 0.67693 0.22141 0.0
H585 H 0.51481 0.72998 0.17756 0.0
H586 H 0.42155 0.7285 0.27745 0.0
H587 H 0.45248 0.70854 0.29689 0.0
H588 H 0.42605 0.68707 0.27237 0.0
H589 H 0.50834 0.79613 0.22228 0.0
H590 H 0.53661 0.77456 0.2 0.0
H591 H 0.53792 0.77432 0.24177 0.0
C592 C 0.72375 0.49951 0.32803 0.0
C593 C 0.69881 0.47845 0.32872 0.0
C594 C 0.74506 0.4997 0.30332 0.0
C595 C 0.74079 0.47904 0.27807 0.0
C596 C 0.71502 0.4584 0.27817 0.0
C597 C 0.6947 0.45792 0.30379 0.0
C598 C 0.77273 0.52132 0.30475 0.0
C599 C 0.70901 0.43669 0.25131 0.0
C600 C 0.78123 0.49974 0.20218 0.0
C601 C 0.80578 0.47816 0.20138 0.0
C602 C 0.75974 0.50002 0.22675 0.0
C603 C 0.76345 0.47891 0.25174 0.0
C604 C 0.78885 0.45772 0.25151 0.0
C605 C 0.80932 0.45717 0.22603 0.0
C606 C 0.73248 0.52226 0.22547 0.0
C607 C 0.79431 0.43552 0.27811 0.0
H608 H 0.72747 0.51498 0.34756 0.0
H609 H 0.67557 0.44148 0.30434 0.0
H610 H 0.7946 0.50755 0.3037 0.0
H611 H 0.77264 0.53721 0.28449 0.0
H612 H 0.77298 0.53559 0.32623 0.0
H613 H 0.68678 0.42376 0.25389 0.0
H614 H 0.70829 0.45004 0.22929 0.0
H615 H 0.72827 0.41956 0.24937 0.0
H616 H 0.77796 0.51555 0.18284 0.0
H617 H 0.82816 0.44034 0.22538 0.0
H618 H 0.73282 0.53795 0.24589 0.0
H619 H 0.71035 0.50898 0.22635 0.0
H620 H 0.73255 0.53674 0.20413 0.0
H621 H 0.79533 0.44858 0.30029 0.0
H622 H 0.81624 0.42203 0.27539 0.0
H623 H 0.77465 0.4189 0.27983 0.0
C624 C 0.05371 0.69335 0.29783 0.0
C625 C 0.03282 0.69617 0.3226 0.0
C626 C 0.05228 0.71387 0.27235 0.0
C627 C 0.03032 0.73862 0.2723 0.0
C628 C 0.00951 0.74177 0.29756 0.0
C629 C 0.01064 0.72021 0.32207 0.0
C630 C 0.07422 0.709 0.24547 0.0
C631 C 0.98652 0.76839 0.29908 0.0
C632 C 0.04767 0.80775 0.21924 0.0
C633 C 0.02661 0.80284 0.19489 0.0
C634 C 0.04856 0.78756 0.24499 0.0
C635 C 0.02886 0.76106 0.24575 0.0
C636 C 0.00771 0.75596 0.22105 0.0
C637 C 0.00645 0.77719 0.19626 0.0
C638 C 0.07069 0.79451 0.27129 0.0
C639 C 0.9871 0.72751 0.22028 0.0
H640 H 0.07099 0.67491 0.29828 0.0
H641 H 0.9949 0.72292 0.34152 0.0
H642 H 0.06082 0.70724 0.22352 0.0
H643 H 0.09001 0.72928 0.24325 0.0
H644 H 0.08858 0.68762 0.2482 0.0
H645 H 0.97275 0.76823 0.32086 0.0
H646 H 0.99906 0.79093 0.29742 0.0
H647 H 0.97022 0.76722 0.27917 0.0
H648 H 0.06343 0.82742 0.21813 0.0
H649 H 0.99063 0.77286 0.17714 0.0
H650 H 0.08856 0.77591 0.27292 0.0
H651 H 0.05789 0.79483 0.29363 0.0
H652 H 0.08268 0.81722 0.26829 0.0
H653 H 1.00163 0.70612 0.22139 0.0
H654 H 0.9725 0.72651 0.19903 0.0
H655 H 0.97155 0.72727 0.24078 0.0
C656 C 0.30143 0.95857 0.8003 0.0
C657 C 0.29604 0.97903 0.82506 0.0
C658 C 0.28259 0.95932 0.77356 0.0
C659 C 0.25696 0.98017 0.77203 0.0
C660 C 0.25135 1.00073 0.79713 0.0
C661 C 0.27125 1.00027 0.82306 0.0
C662 C 0.29005 0.9377 0.74698 0.0
C663 C 0.22375 0.02257 0.79702 0.0
C664 C 0.2213 1.00049 0.69348 0.0
C665 C 0.19707 0.97873 0.69114 0.0
C666 C 0.24103 1.00112 0.71954 0.0
C667 C 0.23579 0.98019 0.7444 0.0
C668 C 0.21059 0.95895 0.74261 0.0
C669 C 0.19195 0.95805 0.71574 0.0
C670 C 0.26818 0.02341 0.71995 0.0
C671 C 0.20349 0.93692 0.76894 0.0
H672 H 0.32052 0.94208 0.80181 0.0
H673 H 0.26662 0.01574 0.84239 0.0
H674 H 0.27084 0.92077 0.74375 0.0
H675 H 0.29217 0.95117 0.72512 0.0
H676 H 0.31202 0.92454 0.75083 0.0
H677 H 0.2224 0.03683 0.81847 0.0
H678 H 0.225 0.03847 0.7768 0.0
H679 H 0.20191 0.00898 0.79472 0.0
H680 H 0.22577 0.01609 0.67423 0.0
H681 H 0.17333 0.94111 0.71393 0.0
H682 H 0.29029 0.01013 0.72187 0.0
H683 H 0.26673 0.03889 0.74048 0.0
H684 H 0.26913 0.0381 0.69877 0.0
H685 H 0.22292 0.92011 0.77185 0.0
H686 H 0.18168 0.92363 0.76499 0.0
H687 H 0.20131 0.95008 0.79098 0.0
C688 C 0.52384 0.31508 0.79626 0.0
C689 C 0.54224 0.30841 0.8223 0.0
C690 C 0.52354 0.29506 0.77037 0.0
C691 C 0.54128 0.26714 0.77091 0.0
C692 C 0.55964 0.26017 0.79732 0.0
C693 C 0.56027 0.28107 0.82243 0.0
C694 C 0.50439 0.30388 0.74234 0.0
C695 C 0.57824 0.23034 0.79932 0.0
C696 C 0.51713 0.20224 0.71518 0.0
C697 C 0.54 0.20441 0.69212 0.0
C698 C 0.51759 0.22206 0.74122 0.0
C699 C 0.54087 0.24534 0.74378 0.0
C700 C 0.56388 0.24772 0.7204 0.0
C701 C 0.56345 0.22697 0.69517 0.0
C702 C 0.4932 0.21805 0.76605 0.0
C703 C 0.58864 0.27264 0.72167 0.0
H704 H 0.50994 0.33619 0.79599 0.0
H705 H 0.5743 0.27551 0.8426 0.0
H706 H 0.51943 0.30457 0.72145 0.0
H707 H 0.48621 0.28605 0.73813 0.0
H708 H 0.49289 0.32692 0.74507 0.0
H709 H 0.59054 0.2279 0.82186 0.0
H710 H 0.56261 0.21002 0.79618 0.0
H711 H 0.59573 0.22952 0.78045 0.0
H712 H 0.499 0.18483 0.71298 0.0
H713 H 0.58098 0.2291 0.67724 0.0
H714 H 0.4788 0.23945 0.76781 0.0
H715 H 0.50457 0.21452 0.7889 0.0
H716 H 0.4776 0.19798 0.76136 0.0
H717 H 0.57753 0.29599 0.72269 0.0
H718 H 0.60441 0.27186 0.70129 0.0
H719 H 0.60284 0.26995 0.74299 0.0
C720 C 0.30616 0.50543 0.72284 0.0
C721 C 0.3024 0.52807 0.69972 0.0
C722 C 0.28667 0.50503 0.74909 0.0
C723 C 0.26213 0.52705 0.75166 0.0
C724 C 0.25802 0.54964 0.72809 0.0
C725 C 0.2785 0.55022 0.70277 0.0
C726 C 0.29253 0.48127 0.77423 0.0
C727 C 0.23169 0.57299 0.72935 0.0
C728 C 0.19417 0.50938 0.80589 0.0
C729 C 0.2003 0.52951 0.83073 0.0
C730 C 0.21399 0.50839 0.7799 0.0
C731 C 0.24116 0.52714 0.77929 0.0
C732 C 0.24776 0.54695 0.8047 0.0
C733 C 0.22701 0.54829 0.82978 0.0
C734 C 0.20556 0.48774 0.75286 0.0
C735 C 0.27684 0.56668 0.80548 0.0
H736 H 0.3246 0.4883 0.72058 0.0
H737 H 0.27515 0.56756 0.68479 0.0
H738 H 0.2963 0.49325 0.79672 0.0
H739 H 0.27187 0.46606 0.77697 0.0
H740 H 0.31311 0.46639 0.76922 0.0
H741 H 0.23072 0.58795 0.70835 0.0
H742 H 0.20912 0.56068 0.73174 0.0
H743 H 0.23437 0.58821 0.74995 0.0
H744 H 0.17353 0.4949 0.8065 0.0
H745 H 0.23214 0.56365 0.84908 0.0
H746 H 0.2244 0.47059 0.74858 0.0
H747 H 0.20314 0.50204 0.73154 0.0
H748 H 0.18346 0.47492 0.75674 0.0
H749 H 0.29768 0.55185 0.80166 0.0
H750 H 0.27962 0.57923 0.82783 0.0
H751 H 0.27614 0.5841 0.7865 0.0
C752 C 0.94928 0.22482 0.82272 0.0
C753 C 0.97233 0.20185 0.82628 0.0
C754 C 0.94929 0.24509 0.79711 0.0
C755 C 0.97228 0.24171 0.77383 0.0
C756 C 0.99508 0.21794 0.77684 0.0
C757 C 0.99517 0.19867 0.8033 0.0
C758 C 0.92509 0.2706 0.79538 0.0
C759 C 0.01937 0.21282 0.75209 0.0
C760 C 0.95333 0.27683 0.6948 0.0
C761 C 0.97196 0.30369 0.69448 0.0
C762 C 0.95373 0.2562 0.72012 0.0
C763 C 0.97238 0.26305 0.74635 0.0
C764 C 0.99075 0.29049 0.74643 0.0
C765 C 0.99074 0.31018 0.72028 0.0
C766 C 0.9345 0.22681 0.71858 0.0
C767 C 0.01016 0.29924 0.77428 0.0
H768 H 0.93177 0.22772 0.84058 0.0
H769 H 0.01299 0.18094 0.8059 0.0
H770 H 0.93671 0.29364 0.79394 0.0
H771 H 0.91082 0.26789 0.77412 0.0
H772 H 0.90932 0.27061 0.81578 0.0
H773 H 0.03441 0.19234 0.75708 0.0
H774 H 0.00792 0.20932 0.72928 0.0
H775 H 0.03435 0.23374 0.75006 0.0
H776 H 0.93898 0.27145 0.67483 0.0
H777 H 0.00508 0.33094 0.72021 0.0
H778 H 0.91687 0.22682 0.73733 0.0
H779 H 0.94966 0.20616 0.72224 0.0
H780 H 0.92231 0.22422 0.696 0.0
H781 H 0.99518 0.30071 0.79517 0.0
H782 H 0.02223 0.32189 0.77115 0.0
H783 H 0.0279 0.28098 0.77877 0.0
C784 C 0.43264 0.00888 0.97609 0.0
C785 C 0.439 0.99546 0.94713 0.0
C786 C 0.45605 0.01237 0.99864 0.0
C787 C 0.48662 1.00167 0.99241 0.0
C788 C 0.49316 0.98788 0.96322 0.0
C789 C 0.46936 0.9852 0.94083 0.0
C790 C 0.44801 0.02741 0.02925 0.0
C791 C 0.52525 0.97564 0.95581 0.0
C792 C 0.55403 0.03769 0.03719 0.0
C793 C 0.56007 0.01537 0.06029 0.0
C794 C 0.53023 0.03355 0.01524 0.0
C795 C 0.51194 0.00616 0.01595 0.0
C796 C 0.51766 0.98358 0.03936 0.0
C797 C 0.54153 0.98854 0.06134 0.0
C798 C 0.52459 0.05869 0.99136 0.0
C799 C 0.49933 0.95367 0.04069 0.0
H800 H 0.40916 0.01669 0.98104 0.0
H801 H 0.47422 0.97419 0.91876 0.0
H802 H 0.4528 0.01091 0.04848 0.0
H803 H 0.46286 0.0482 0.03304 0.0
H804 H 0.4232 0.03466 0.03045 0.0
H805 H 0.52651 0.96515 0.9323 0.0
H806 H 0.54251 0.99479 0.9573 0.0
H807 H 0.53208 0.95776 0.97312 0.0
H808 H 0.56782 0.05872 0.0363 0.0
H809 H 0.54625 0.97107 0.07886 0.0
H810 H 0.5008 0.06837 0.99424 0.0
H811 H 0.52602 0.04876 0.96766 0.0
H812 H 0.5416 0.07807 0.99323 0.0
H813 H 0.47413 0.95803 0.03697 0.0
H814 H 0.50244 0.94141 0.06316 0.0
H815 H 0.50748 0.93801 0.02192 0.0
C816 C 0.49619 0.44111 0.97358 0.0
C817 C 0.51517 0.44771 0.94794 0.0
C818 C 0.49157 0.46315 0.99735 0.0
C819 C 0.50642 0.49257 0.99567 0.0
C820 C 0.52584 0.49927 0.97 0.0
C821 C 0.52988 0.47688 0.94645 0.0
C822 C 0.47111 0.45482 0.02452 0.0
C823 C 0.54269 0.52999 0.96759 0.0
C824 C 0.47127 0.56114 0.03971 0.0
C825 C 0.49091 0.56378 0.06571 0.0
C826 C 0.47596 0.53804 0.01709 0.0
C827 C 0.50092 0.51667 0.02028 0.0
C828 C 0.52056 0.51875 0.0467 0.0
C829 C 0.51538 0.54229 0.06896 0.0
C830 C 0.45418 0.53663 0.9896 0.0
C831 C 0.54774 0.4969 0.05127 0.0
H832 H 0.48494 0.41858 0.975 0.0
H833 H 0.5453 0.48193 0.92727 0.0
H834 H 0.48475 0.45637 0.04633 0.0
H835 H 0.45159 0.47169 0.02638 0.0
H836 H 0.46133 0.43096 0.02252 0.0
H837 H 0.5567 0.53181 0.94605 0.0
H838 H 0.52568 0.54949 0.96813 0.0
H839 H 0.55842 0.53287 0.98781 0.0
H840 H 0.45181 0.57692 0.037 0.0
H841 H 0.53088 0.54416 0.08869 0.0
H842 H 0.44278 0.51348 0.98857 0.0
H843 H 0.46757 0.53958 0.96781 0.0
H844 H 0.4358 0.55485 0.99054 0.0
H845 H 0.54312 0.47341 0.04158 0.0
H846 H 0.55372 0.49445 0.07621 0.0
H847 H 0.56834 0.50669 0.03927 0.0
C848 C 0.03783 0.48713 0.95287 0.0
C849 C 0.06326 0.50666 0.95897 0.0
C850 C 0.0141 0.48268 0.97502 0.0
C851 C 0.01552 0.49858 1.00386 0.0
C852 C 0.04107 0.51845 0.01001 0.0
C853 C 0.06473 0.52184 0.98781 0.0
C854 C 0.98805 0.46034 0.96761 0.0
C855 C 0.0432 0.53667 0.0399 0.0
C856 C 0.94103 0.51218 0.05022 0.0
C857 C 0.94455 0.4911 0.07473 0.0
C858 C 0.96378 0.5147 0.0269 0.0
C859 C 0.99033 0.49501 0.02763 0.0
C860 C 0.99342 0.47293 0.0519 0.0
C861 C 0.97071 0.47155 0.07539 0.0
C862 C 0.95951 0.53858 1.00158 0.0
C863 C 0.02053 0.45055 0.05286 0.0
H864 H 0.03668 0.47509 0.93083 0.0
H865 H 0.08397 0.53729 0.99281 0.0
H866 H 0.99358 0.43739 0.97809 0.0
H867 H 0.96547 0.46833 0.97724 0.0
H868 H 0.98539 0.45695 0.94221 0.0
H869 H 0.06375 0.55235 0.04049 0.0
H870 H 0.02189 0.55098 0.04305 0.0
H871 H 0.04468 0.52042 0.05983 0.0
H872 H 0.92049 0.52688 0.04956 0.0
H873 H 0.97288 0.45457 0.09386 0.0
H874 H 0.96024 0.52708 0.97855 0.0
H875 H 0.97889 0.5556 1.00238 0.0
H876 H 0.93715 0.55145 1.00375 0.0
H877 H 0.02208 0.43766 0.03061 0.0
H878 H 0.01849 0.43343 0.07207 0.0
H879 H 0.04259 0.46364 0.05575 0.0
C880 C 0.01452 0.06707 0.9786 0.0
C881 C 0.99934 0.06167 0.95028 0.0
C882 C 0.01732 0.04346 1.00111 0.0
C883 C 0.0043 0.01367 0.99541 0.0
C884 C 0.98914 0.008 0.96676 0.0
C885 C 0.98696 0.03195 0.94454 0.0
C886 C 0.03403 0.05047 0.0311 0.0
C887 C 0.97471 0.97672 0.95976 0.0
C888 C 0.03445 0.9436 0.04087 0.0
C889 C 0.01156 0.93987 0.06379 0.0
C890 C 0.03248 0.96755 0.01874 0.0
C891 C 0.00685 0.98836 0.01925 0.0
C892 C 0.98372 0.98486 0.04248 0.0
C893 C 0.98652 0.96084 0.06464 0.0
C894 C 0.05793 0.97057 0.99481 0.0
C895 C 0.95585 0.00631 0.04371 0.0
H896 H 0.02414 0.08994 0.98315 0.0
H897 H 0.97464 0.0277 0.92304 0.0
H898 H 0.01798 0.04713 0.05094 0.0
H899 H 0.05375 0.03403 0.03428 0.0
H900 H 0.04318 0.07465 0.03185 0.0
H901 H 0.96386 0.97595 0.93639 0.0
H902 H 0.99266 0.95815 0.9612 0.0
H903 H 0.95665 0.97129 0.9773 0.0
H904 H 0.05428 0.92796 0.04053 0.0
H905 H 0.96885 0.95801 0.08233 0.0
H906 H 0.06886 0.99391 0.99649 0.0
H907 H 0.04793 0.96849 0.97118 0.0
H908 H 0.07632 0.95255 0.99764 0.0
H909 H 0.96364 0.03081 0.04633 0.0
H910 H 0.93993 1.00056 0.06316 0.0
H911 H 0.94261 0.00485 0.02165 0.0
C912 C 0.43508 0.49173 0.54497 0.0
C913 C 0.44162 0.50579 0.57363 0.0
C914 C 0.45815 0.48849 0.52203 0.0
C915 C 0.4886 0.49982 0.52767 0.0
C916 C 0.49545 0.51378 0.55667 0.0
C917 C 0.47198 0.51648 0.5793 0.0
C918 C 0.44984 0.47313 0.49166 0.0
C919 C 0.52751 0.52635 0.56362 0.0
C920 C 0.55648 0.46795 0.48032 0.0
C921 C 0.56106 0.49152 0.45821 0.0
C922 C 0.53287 0.4702 0.50274 0.0
C923 C 0.51335 0.49682 0.50336 0.0
C924 C 0.51763 0.52056 0.48084 0.0
C925 C 0.54125 0.51747 0.45835 0.0
C926 C 0.52889 0.44402 0.52579 0.0
C927 C 0.49747 0.54938 0.48072 0.0
H928 H 0.41174 0.48331 0.54048 0.0
H929 H 0.47716 0.52788 0.60109 0.0
H930 H 0.45357 0.48968 0.47227 0.0
H931 H 0.46527 0.45279 0.48755 0.0
H932 H 0.42526 0.46513 0.49105 0.0
H933 H 0.52919 0.53641 0.58729 0.0
H934 H 0.54508 0.5075 0.56138 0.0
H935 H 0.53362 0.54467 0.54653 0.0
H936 H 0.57124 0.44745 0.47985 0.0
H937 H 0.54474 0.53564 0.44127 0.0
H938 H 0.50511 0.43415 0.52383 0.0
H939 H 0.53151 0.45305 0.54974 0.0
H940 H 0.54606 0.42496 0.52221 0.0
H941 H 0.4727 0.54275 0.47774 0.0
H942 H 0.50392 0.56586 0.46195 0.0
H943 H 0.49948 0.56158 0.50331 0.0
C944 C 0.98826 0.43646 0.53597 0.0
C945 C 1.00141 0.43989 0.56565 0.0
C946 C 0.99153 0.45955 0.51311 0.0
C947 C 0.00932 0.48656 0.51944 0.0
C948 C 0.02325 0.48996 0.54914 0.0
C949 C 0.0189 0.46673 0.5719 0.0
C950 C 0.97536 0.45522 0.4823 0.0
C951 C 0.04349 0.51756 0.55697 0.0
C952 C 0.03786 0.53098 0.44812 0.0
C953 C 0.01726 0.55635 0.44716 0.0
C954 C 0.03621 0.50866 0.47201 0.0
C955 C 0.01275 0.51119 0.49499 0.0
C956 C 0.99177 0.53675 0.49389 0.0
C957 C 0.99464 0.55927 0.47031 0.0
C958 C 0.0598 0.48257 0.47283 0.0
C959 C 0.96629 0.54029 0.51769 0.0
H960 H 0.97448 0.41606 0.53074 0.0
H961 H 0.02941 0.46944 0.59458 0.0
H962 H 0.96095 0.476 0.47678 0.0
H963 H 0.99292 0.45279 0.46363 0.0
H964 H 0.96013 0.43432 0.482 0.0
H965 H 0.04365 0.52218 0.58231 0.0
H966 H 0.06774 0.51226 0.54985 0.0
H967 H 0.03599 0.53904 0.54477 0.0
H968 H 0.05592 0.52923 0.43068 0.0
H969 H 0.97906 0.57916 0.46974 0.0
H970 H 0.04826 0.46023 0.46699 0.0
H971 H 0.06974 0.48015 0.49647 0.0
H972 H 0.07914 0.48642 0.45618 0.0
H973 H 0.95139 0.51918 0.51779 0.0
H974 H 0.95137 0.56099 0.51321 0.0
H975 H 0.97668 0.54252 0.54115 0.0
C976 C 0.9412 0.99533 0.46621 0.0
C977 C 0.94747 0.0132 0.43974 0.0
C978 C 0.96375 0.99119 0.48959 0.0
C979 C 0.99316 0.00588 0.48687 0.0
C980 C 0.99944 0.02434 0.46034 0.0
C981 C 0.97667 0.02751 0.43697 0.0
C982 C 0.95603 0.97126 0.51735 0.0
C983 C 0.03007 0.04114 0.45688 0.0
C984 C 0.04237 0.0156 0.56047 0.0
C985 C 0.06421 0.99146 0.55735 0.0
C986 C 0.01923 0.02076 0.53776 0.0
C987 C 0.01762 1.0011 0.51132 0.0
C988 C 0.03939 0.97647 0.50829 0.0
C989 C 0.06245 0.97217 0.53105 0.0
C990 C 0.99721 0.04788 0.54178 0.0
C991 C 0.03817 0.95437 0.48107 0.0
H992 H 0.91854 0.98452 0.46851 0.0
H993 H 0.98131 0.04202 0.41697 0.0
H994 H 0.97321 0.95203 0.51951 0.0
H995 H 0.95757 0.98543 0.53881 0.0
H996 H 0.93232 0.96106 0.51582 0.0
H997 H 0.03113 0.05515 0.43525 0.0
H998 H 0.03375 0.05687 0.47697 0.0
H999 H 0.04951 0.02408 0.45675 0.0
H1000 H 0.04374 0.03083 0.58045 0.0
H1001 H 0.07881 0.95318 0.52836 0.0
H1002 H 0.97325 0.0419 0.53426 0.0
H1003 H 0.00538 0.06751 0.52721 0.0
H1004 H 0.99643 0.05601 0.56622 0.0
H1005 H 0.01531 0.94238 0.48054 0.0
H1006 H 0.05685 0.93644 0.48202 0.0
H1007 H 0.04045 0.96752 0.45905 0.0
C1008 C 0.47108 0.94342 0.48333 0.0
C1009 C 0.49224 0.94051 0.45861 0.0
C1010 C 0.47481 0.96623 0.50638 0.0
C1011 C 0.50051 0.98677 0.50509 0.0
C1012 C 0.52203 0.98403 0.48028 0.0
C1013 C 0.51752 0.9611 0.45724 0.0
C1014 C 0.45098 0.96851 0.53202 0.0
C1015 C 0.54986 0.00531 0.47811 0.0
C1016 C 0.49436 0.06462 0.54734 0.0
C1017 C 0.51123 0.05902 0.57467 0.0
C1018 C 0.49055 0.04134 0.52471 0.0
C1019 C 0.50422 0.01163 0.52924 0.0
C1020 C 0.52091 0.00563 0.55702 0.0
C1021 C 0.52409 0.02933 0.57946 0.0
C1022 C 0.47215 0.0487 0.49576 0.0
C1023 C 0.53597 0.97436 0.56275 0.0
H1024 H 0.45109 0.92818 0.4845 0.0
H1025 H 0.53401 0.95895 0.43838 0.0
H1026 H 0.4625 0.96565 0.55487 0.0
H1027 H 0.43996 0.99191 0.53179 0.0
H1028 H 0.4324 0.95066 0.52982 0.0
H1029 H 0.56473 0.99996 0.45774 0.0
H1030 H 0.54202 0.0299 0.47649 0.0
H1031 H 0.56421 0.00323 0.49943 0.0
H1032 H 0.48437 0.08752 0.54357 0.0
H1033 H 0.53763 0.025 0.60022 0.0
H1034 H 0.45255 0.03207 0.49326 0.0
H1035 H 0.48719 0.04596 0.47505 0.0
H1036 H 0.4626 0.07277 0.49596 0.0
H1037 H 0.5182 0.95566 0.56168 0.0
H1038 H 0.54782 0.97323 0.58563 0.0
H1039 H 0.55332 0.96947 0.54434 0.0
C1040 C 0.51511 0.23652 0.01521 0.0
C1041 C 0.5232 0.23697 0.98363 0.0
C1042 C 0.5265 0.21318 0.03508 0.0
C1043 C 0.54556 0.18924 0.02286 0.0
C1044 C 0.55022 0.18723 0.9905 0.0
C1045 C 0.53937 0.21124 0.97136 0.0
C1046 C 0.52078 0.21604 0.06946 0.0
C1047 C 0.56956 0.16146 0.97634 0.0
C1048 C 0.61625 0.15919 0.06578 0.0
C1049 C 0.60636 0.1296 0.07469 0.0
C1050 C 0.59581 0.17965 0.05068 0.0
C1051 C 0.5651 0.16972 0.04366 0.0
C1052 C 0.55479 0.14004 0.05362 0.0
C1053 C 0.57557 0.12041 0.06951 0.0
C1054 C 0.60765 0.21125 0.0408 0.0
C1055 C 0.52244 0.1285 0.04624 0.0
H1056 H 0.50168 0.25554 0.02492 0.0
H1057 H 0.54612 0.21087 0.94721 0.0
H1058 H 0.51668 0.19291 0.08012 0.0
H1059 H 0.54172 0.2262 0.08064 0.0
H1060 H 0.50058 0.23141 0.07454 0.0
H1061 H 0.5664 0.16006 0.95082 0.0
H1062 H 0.59456 0.16582 0.9812 0.0
H1063 H 0.56349 0.13857 0.98663 0.0
H1064 H 0.64022 0.16599 0.06994 0.0
H1065 H 0.56818 0.09743 0.07682 0.0
H1066 H 0.59106 0.22976 0.0479 0.0
H1067 H 0.60959 0.21207 0.01516 0.0
H1068 H 0.63086 0.21657 0.05088 0.0
H1069 H 0.50486 0.14427 0.05666 0.0
H1070 H 0.51839 0.10448 0.05495 0.0
H1071 H 0.51857 0.12873 0.0208 0.0
C1072 C 0.27422 0.51042 0.02211 0.0
C1073 C 0.27189 0.52228 0.99188 0.0
C1074 C 0.29736 0.5212 0.04253 0.0
C1075 C 0.3183 0.54452 0.03245 0.0
C1076 C 0.31777 0.55446 1.0012 0.0
C1077 C 0.29464 0.54319 0.98132 0.0
C1078 C 0.29776 0.50948 0.07548 0.0
C1079 C 0.33965 0.57934 0.98944 0.0
C1080 C 0.34472 0.60979 0.08494 0.0
C1081 C 0.3763 0.60291 0.08813 0.0
C1082 C 0.32501 0.58962 0.06862 0.0
C1083 C 0.33747 0.56215 0.0551 0.0
C1084 C 0.36915 0.55432 0.05994 0.0
C1085 C 0.38829 0.57496 0.07646 0.0
C1086 C 0.29139 0.5989 0.06394 0.0
C1087 C 0.38327 0.52528 0.04605 0.0
H1088 H 0.25691 0.49404 0.03033 0.0
H1089 H 0.29287 0.55297 0.95822 0.0
H1090 H 0.32199 0.50563 0.08358 0.0
H1091 H 0.28705 0.52722 0.09086 0.0
H1092 H 0.2845 0.48742 0.07798 0.0
H1093 H 0.33856 0.58187 0.96383 0.0
H1094 H 0.33339 0.60207 1.00005 0.0
H1095 H 0.364 0.574 0.99616 0.0
H1096 H 0.3358 0.63165 0.09395 0.0
H1097 H 0.41287 0.5699 0.0792 0.0
H1098 H 0.27575 0.57923 0.06979 0.0
H1099 H 0.28741 0.60482 0.0392 0.0
H1100 H 0.28476 0.61936 0.07829 0.0
H1101 H 0.36822 0.5048 0.0506 0.0
H1102 H 0.40697 0.52051 0.05531 0.0
H1103 H 0.385 0.52797 0.02054 0.0
C1104 C 0.99438 0.28455 0.01075 0.0
C1105 C 0.97589 0.2754 0.98558 0.0
C1106 C 0.98374 0.30738 0.03169 0.0
C1107 C 0.95358 0.3203 0.02777 0.0
C1108 C 0.9351 0.31126 1.00213 0.0
C1109 C 0.9466 0.2892 0.98129 0.0
C1110 C 0.00433 0.31708 0.05832 0.0
C1111 C 0.90257 0.32395 0.9973 0.0
C1112 C 0.90313 0.35128 0.09259 0.0
C1113 C 0.90153 0.38276 0.08453 0.0
C1114 C 0.92199 0.3307 0.07562 0.0
C1115 C 0.9402 0.34232 0.05076 0.0
C1116 C 0.94075 0.37472 0.04466 0.0
C1117 C 0.92086 0.39451 0.06125 0.0
C1118 C 0.92021 0.29626 0.08247 0.0
C1119 C 0.96063 0.38824 0.0192 0.0
H1120 H 0.01689 0.27361 0.01421 0.0
H1121 H 0.9319 0.28156 0.9623 0.0
H1122 H 0.00528 0.34286 0.06004 0.0
H1123 H 0.9945 0.30826 0.0804 0.0
H1124 H 0.02842 0.30792 0.05587 0.0
H1125 H 0.89117 0.31413 0.97633 0.0
H1126 H 0.88789 0.31851 0.01773 0.0
H1127 H 0.90331 0.34967 0.99493 0.0
H1128 H 0.88802 0.34242 0.11068 0.0
H1129 H 0.9198 0.41909 0.05547 0.0
H1130 H 0.94384 0.28587 0.08342 0.0
H1131 H 0.9073 0.28442 0.06355 0.0
H1132 H 0.90812 0.29145 0.10471 0.0
H1133 H 0.98444 0.37817 0.01994 0.0
H1134 H 0.96232 0.414 0.021 0.0
H1135 H 0.95037 0.38237 0.99633 0.0
C1136 C 0.20086 0.98773 0.98366 0.0
C1137 C 0.23181 0.97865 0.98886 0.0
C1138 C 0.17666 0.97596 1.00218 0.0
C1139 C 0.18368 0.95412 0.02583 0.0
C1140 C 0.21506 0.94677 0.0326 0.0
C1141 C 0.23868 0.95923 0.01416 0.0
C1142 C 0.14353 0.98504 0.99482 0.0
C1143 C 0.22364 0.92325 0.05728 0.0
C1144 C 0.12715 0.92138 0.0849 0.0
C1145 C 0.11894 0.89316 0.07079 0.0
C1146 C 0.14663 0.94269 0.06963 0.0
C1147 C 0.15875 0.93501 0.0401 0.0
C1148 C 0.1498 0.90684 0.02551 0.0
C1149 C 0.1297 0.88645 0.04092 0.0
C1150 C 0.15486 0.97299 0.08535 0.0
C1151 C 0.16255 0.89752 0.99421 0.0
H1152 H 0.19542 0.00284 0.96425 0.0
H1153 H 0.26241 0.95152 0.01808 0.0
H1154 H 0.13293 0.96693 0.97983 0.0
H1155 H 0.12933 0.98681 0.01622 0.0
H1156 H 0.14242 0.0076 0.98224 0.0
H1157 H 0.2491 0.92264 0.06185 0.0
H1158 H 0.21146 0.9285 0.07931 0.0
H1159 H 0.21621 0.89968 0.04972 0.0
H1160 H 0.11823 0.92687 0.10776 0.0
H1161 H 0.12316 0.86469 0.02993 0.0
H1162 H 0.15168 0.99276 0.06906 0.0
H1163 H 0.17973 0.97266 0.09231 0.0
H1164 H 0.14048 0.97722 0.10632 0.0
H1165 H 0.15772 0.91601 0.9769 0.0
H1166 H 0.15242 0.87531 0.98567 0.0
H1167 H 0.18821 0.89473 0.99569 0.0
C1168 C 0.57699 0.37541 0.43409 0.0
C1169 C 0.60558 0.38233 0.44813 0.0
C1170 C 0.55563 0.35543 0.44865 0.0
C1171 C 0.56367 0.34147 0.4773 0.0
C1172 C 0.5923 0.34901 0.49178 0.0
C1173 C 0.6127 0.36967 0.47717 0.0
C1174 C 0.52487 0.34872 0.43313 0.0
C1175 C 0.60208 0.33422 0.52209 0.0
C1176 C 0.51277 0.29791 0.53396 0.0
C1177 C 0.52163 0.2671 0.52757 0.0
C1178 C 0.52365 0.32265 0.51558 0.0
C1179 C 0.5443 0.31628 0.49078 0.0
C1180 C 0.55093 0.28508 0.48257 0.0
C1181 C 0.5394 0.26092 0.50095 0.0
C1182 C 0.51528 0.35562 0.52443 0.0
C1183 C 0.57317 0.27718 0.45659 0.0
H1184 H 0.57125 0.38577 0.41188 0.0
H1185 H 0.63477 0.37517 0.48809 0.0
H1186 H 0.52459 0.32433 0.42463 0.0
H1187 H 0.50553 0.35118 0.45 0.0
H1188 H 0.52044 0.36449 0.41318 0.0
H1189 H 0.62478 0.34323 0.53057 0.0
H1190 H 0.58424 0.33861 0.54013 0.0
H1191 H 0.60407 0.3086 0.51917 0.0
H1192 H 0.49882 0.30283 0.55432 0.0
H1193 H 0.54687 0.23731 0.49599 0.0
H1194 H 0.51242 0.37051 0.50359 0.0
H1195 H 0.53429 0.36566 0.53869 0.0
H1196 H 0.49349 0.35646 0.53826 0.0
H1197 H 0.56762 0.2908 0.43547 0.0
H1198 H 0.57267 0.252 0.45063 0.0
H1199 H 0.59724 0.28331 0.46372 0.0
C1200 C 0.15661 0.59447 0.43198 0.0
C1201 C 0.12502 0.59669 0.43928 0.0
C1202 C 0.17642 0.57535 0.44961 0.0
C1203 C 0.1639 0.55754 0.47433 0.0
C1204 C 0.1314 0.55756 0.47961 0.0
C1205 C 0.11238 0.57764 0.46236 0.0
C1206 C 0.21103 0.57662 0.44373 0.0
C1207 C 0.11703 0.53813 0.50496 0.0
C1208 C 0.22041 0.5035 0.51626 0.0
C1209 C 0.22894 0.52218 0.5415 0.0
C1210 C 0.19797 0.51393 0.49479 0.0
C1211 C 0.18505 0.54416 0.49812 0.0
C1212 C 0.19333 0.56276 0.52392 0.0
C1213 C 0.21478 0.55135 0.54545 0.0
C1214 C 0.18888 0.49309 0.46813 0.0
C1215 C 0.18067 0.59541 0.52813 0.0
H1216 H 0.16619 0.60942 0.41412 0.0
H1217 H 0.08774 0.57927 0.4676 0.0
H1218 H 0.2225 0.58953 0.46289 0.0
H1219 H 0.22113 0.55284 0.44328 0.0
H1220 H 0.21662 0.58849 0.42154 0.0
H1221 H 0.0912 0.53872 0.50407 0.0
H1222 H 0.12499 0.51359 0.50305 0.0
H1223 H 0.12457 0.5469 0.52796 0.0
H1224 H 0.23165 0.4811 0.51308 0.0
H1225 H 0.2219 0.56614 0.56457 0.0
H1226 H 0.19904 0.5022 0.44633 0.0
H1227 H 0.1632 0.49284 0.4652 0.0
H1228 H 0.1972 0.4688 0.47151 0.0
H1229 H 0.18674 0.60992 0.50773 0.0
H1230 H 0.18997 0.60693 0.54926 0.0
H1231 H 0.15492 0.59484 0.52979 0.0
C1232 C 0.92966 0.11293 0.45182 0.0
C1233 C 0.90635 0.12543 0.43285 0.0
C1234 C 0.94962 0.13251 0.46859 0.0
C1235 C 0.94499 0.16517 0.46734 0.0
C1236 C 0.92238 0.1778 0.44685 0.0
C1237 C 0.90358 0.15764 0.42941 0.0
C1238 C 0.97416 0.11806 0.48912 0.0
C1239 C 0.91616 0.21241 0.44532 0.0
C1240 C 0.95508 0.21285 0.54011 0.0
C1241 C 0.98044 0.23187 0.53243 0.0
C1242 C 0.94429 0.19005 0.51965 0.0
C1243 C 0.9596 0.18569 0.49094 0.0
C1244 C 0.98663 0.2032 0.48398 0.0
C1245 C 0.99647 0.22656 0.50464 0.0
C1246 C 0.9151 0.17224 0.52787 0.0
C1247 C 0.0042 0.1983 0.45412 0.0
H1248 H 0.93174 0.08784 0.45415 0.0
H1249 H 0.88529 0.16702 0.41476 0.0
H1250 H 0.99557 0.13248 0.48967 0.0
H1251 H 0.96515 0.11635 0.51314 0.0
H1252 H 0.98033 0.09421 0.48117 0.0
H1253 H 0.89971 0.21859 0.42639 0.0
H1254 H 0.90606 0.22034 0.46765 0.0
H1255 H 0.93816 0.22539 0.44178 0.0
H1256 H 0.94218 0.21732 0.56125 0.0
H1257 H 0.01602 0.24132 0.49866 0.0
H1258 H 0.91944 0.14681 0.52645 0.0
H1259 H 0.89637 0.17791 0.51103 0.0
H1260 H 0.90659 0.17779 0.55155 0.0
H1261 H 0.00733 0.17306 0.44945 0.0
H1262 H 0.02742 0.20966 0.45462 0.0
H1263 H 0.99067 0.20825 0.43455 0.0
C1264 C 0.3476 0.89535 0.44338 0.0
C1265 C 0.37844 0.9033 0.43729 0.0
C1266 C 0.32832 0.9156 0.46011 0.0
C1267 C 0.34057 0.94414 0.47136 0.0
C1268 C 0.37142 0.95289 0.46377 0.0
C1269 C 0.39003 0.93228 0.44656 0.0
C1270 C 0.29553 0.90539 0.46757 0.0
C1271 C 0.38521 0.98309 0.47524 0.0
C1272 C 0.27659 0.99366 0.50586 0.0
C1273 C 0.2756 0.98157 0.53611 0.0
C1274 C 0.29963 0.98399 0.48483 0.0
C1275 C 0.3223 0.96208 0.4945 0.0
C1276 C 0.32371 0.95292 0.52595 0.0
C1277 C 0.30027 0.96258 0.5463 0.0
C1278 C 0.29771 0.99478 0.45161 0.0
C1279 C 0.34788 0.93001 0.53743 0.0
H1280 H 0.33899 0.87273 0.43618 0.0
H1281 H 0.41403 0.93816 0.44151 0.0
H1282 H 0.29361 0.90042 0.49274 0.0
H1283 H 0.27872 0.92425 0.46204 0.0
H1284 H 0.2887 0.88412 0.45457 0.0
H1285 H 0.40943 0.98659 0.46692 0.0
H1286 H 0.37069 0.00299 0.46743 0.0
H1287 H 0.3853 0.98346 0.50095 0.0
H1288 H 0.25815 0.00899 0.49794 0.0
H1289 H 0.29994 0.95274 0.56941 0.0
H1290 H 0.28612 0.97653 0.43751 0.0
H1291 H 0.32124 0.99856 0.44177 0.0
H1292 H 0.28401 0.01665 0.44942 0.0
H1293 H 0.34205 0.90634 0.52885 0.0
H1294 H 0.34894 0.92921 0.56315 0.0
H1295 H 0.3713 0.93602 0.52847 0.0
C1296 C 0.43664 0.79274 0.04724 0.0
C1297 C 0.46338 0.77491 0.04145 0.0
C1298 C 0.42638 0.8152 0.02612 0.0
C1299 C 0.44355 0.82036 0.99862 0.0
C1300 C 0.47157 0.80372 0.99338 0.0
C1301 C 0.48096 0.78075 0.01472 0.0
C1302 C 0.39616 0.83214 0.03249 0.0
C1303 C 0.49094 0.80938 0.9648 0.0
C1304 C 0.39118 0.85098 0.93513 0.0
C1305 C 0.39341 0.88299 0.94039 0.0
C1306 C 0.40928 0.83004 0.95248 0.0
C1307 C 0.43054 0.84172 0.97482 0.0
C1308 C 0.43485 0.87426 0.97786 0.0
C1309 C 0.41567 0.89457 0.96104 0.0
C1310 C 0.40353 0.79553 0.94891 0.0
C1311 C 0.45798 0.88777 1.00049 0.0
H1312 H 0.42256 0.7878 0.06751 0.0
H1313 H 0.50156 0.76686 0.01018 0.0
H1314 H 0.40001 0.85768 0.03233 0.0
H1315 H 0.37901 0.82679 0.01399 0.0
H1316 H 0.38586 0.8256 0.05518 0.0
H1317 H 0.51415 0.798 0.96639 0.0
H1318 H 0.47867 0.80002 0.94417 0.0
H1319 H 0.49424 0.83474 0.96102 0.0
H1320 H 0.37372 0.84229 0.91914 0.0
H1321 H 0.41743 0.91951 0.96472 0.0
H1322 H 0.39143 0.78667 0.96985 0.0
H1323 H 0.42586 0.7827 0.9469 0.0
H1324 H 0.38894 0.7902 0.9283 0.0
H1325 H 0.44776 0.88777 0.02409 0.0
H1326 H 0.46397 0.91217 0.99435 0.0
H1327 H 0.47966 0.87369 1.00121 0.0
C1328 C 0.71365 0.44853 0.05177 0.0
C1329 C 0.73145 0.47536 0.04651 0.0
C1330 C 0.69128 0.43869 0.0304 0.0
C1331 C 0.68616 0.45637 1.00317 0.0
C1332 C 0.70262 0.48456 0.99857 0.0
C1333 C 0.72552 0.49353 0.02013 0.0
C1334 C 0.6745 0.40829 0.03616 0.0
C1335 C 0.69693 0.50452 0.97034 0.0
C1336 C 0.65743 0.404 0.93901 0.0
C1337 C 0.62537 0.40531 0.94417 0.0
C1338 C 0.67774 0.4226 0.95651 0.0
C1339 C 0.66536 0.44348 0.97885 0.0
C1340 C 0.63272 0.44712 0.98154 0.0
C1341 C 0.61306 0.42741 0.96462 0.0
C1342 C 0.71239 0.41761 0.95323 0.0
C1343 C 0.61842 0.46994 1.00401 0.0
H1344 H 0.71863 0.43398 0.07174 0.0
H1345 H 0.73936 0.51421 0.01599 0.0
H1346 H 0.64896 0.41208 0.03585 0.0
H1347 H 0.6801 0.39145 0.01744 0.0
H1348 H 0.68095 0.3976 0.05874 0.0
H1349 H 0.70762 0.52796 0.97274 0.0
H1350 H 0.70704 0.49302 0.94964 0.0
H1351 H 0.67158 0.50732 0.96611 0.0
H1352 H 0.66671 0.38674 0.92313 0.0
H1353 H 0.58807 0.42857 0.96814 0.0
H1354 H 0.72133 0.40533 0.97407 0.0
H1355 H 0.72469 0.44024 0.95167 0.0
H1356 H 0.71824 0.40347 0.93246 0.0
H1357 H 0.61714 0.4591 0.02731 0.0
H1358 H 0.5944 0.4764 0.99682 0.0
H1359 H 0.63259 0.49145 1.00593 0.0
C1360 C 0.04889 0.70406 0.05119 0.0
C1361 C 0.02405 0.72394 0.04351 0.0
C1362 C 0.0596 0.68152 0.03044 0.0
C1363 C 0.04518 0.67866 1.00109 0.0
C1364 C 0.01859 0.69686 0.99398 0.0
C1365 C 0.00838 0.71948 0.01528 0.0
C1366 C 0.08801 0.66251 0.03907 0.0
C1367 C 0.00217 0.69383 0.96321 0.0
C1368 C 0.10507 0.65213 0.943 0.0
C1369 C 0.1015 0.6199 0.945 0.0
C1370 C 0.08486 0.67203 0.95916 0.0
C1371 C 0.0605 0.65908 0.97723 0.0
C1372 C 0.0552 0.62656 0.97669 0.0
C1373 C 0.07611 0.60727 0.96079 0.0
C1374 C 0.09144 0.70657 0.95927 0.0
C1375 C 0.02912 0.61185 0.99491 0.0
H1376 H 0.06172 0.70759 0.07254 0.0
H1377 H 0.98903 0.73457 0.00926 0.0
H1378 H 0.08348 0.63733 0.03554 0.0
H1379 H 0.10779 0.66905 0.02388 0.0
H1380 H 0.09516 0.66613 0.06356 0.0
H1381 H 0.97871 0.70477 0.96367 0.0
H1382 H 0.01614 0.70551 0.945 0.0
H1383 H 0.99976 0.66899 0.95651 0.0
H1384 H 0.12487 0.66164 0.93063 0.0
H1385 H 0.07327 0.58224 0.96154 0.0
H1386 H 0.10087 0.71342 0.98224 0.0
H1387 H 0.0697 0.72002 0.95545 0.0
H1388 H 0.10862 0.71323 0.94121 0.0
H1389 H 0.0359 0.61038 0.01969 0.0
H1390 H 0.024 0.58792 0.98656 0.0
H1391 H 0.00759 0.6261 0.99343 0.0
C1392 C 0.76381 0.04698 0.99925 0.0
C1393 C 0.76773 0.02651 0.02431 0.0
C1394 C 0.78935 0.05779 0.98239 0.0
C1395 C 0.81959 0.04751 0.99048 0.0
C1396 C 0.82346 0.02435 0.01356 0.0
C1397 C 0.79742 0.01436 0.03057 0.0
C1398 C 0.78414 0.08283 0.95828 0.0
C1399 C 0.85528 0.012 0.02199 0.0
C1400 C 0.88068 0.0792 0.93575 0.0
C1401 C 0.88986 0.10614 0.95162 0.0
C1402 C 0.85961 0.05822 0.94923 0.0
C1403 C 0.84674 0.06514 0.97862 0.0
C1404 C 0.85694 0.09179 0.99513 0.0
C1405 C 0.87876 0.11172 0.98157 0.0
C1406 C 0.8502 0.02941 0.93151 0.0
C1407 C 0.84337 0.1004 0.0263 0.0
H1408 H 0.74106 0.0569 0.99452 0.0
H1409 H 0.80052 0.99837 0.04978 0.0
H1410 H 0.79328 0.10535 0.96707 0.0
H1411 H 0.79686 0.07725 0.93664 0.0
H1412 H 0.75909 0.08594 0.95258 0.0
H1413 H 0.85374 0.9895 0.03461 0.0
H1414 H 0.86983 0.00873 1.00099 0.0
H1415 H 0.86731 0.02902 0.03719 0.0
H1416 H 0.88982 0.07462 0.91278 0.0
H1417 H 0.886 0.13255 0.99383 0.0
H1418 H 0.82663 0.03279 0.92153 0.0
H1419 H 0.84916 0.00892 0.94717 0.0
H1420 H 0.86658 0.02425 0.91227 0.0
H1421 H 0.81814 0.10545 0.02374 0.0
H1422 H 0.85482 0.12116 0.0366 0.0
H1423 H 0.84572 0.08066 0.04272 0.0
C1424 C 0.43184 0.71763 0.47718 0.0
C1425 C 0.46198 0.72971 0.47965 0.0
C1426 C 0.4214 0.69451 0.49734 0.0
C1427 C 0.44189 0.68265 0.52021 0.0
C1428 C 0.47277 0.69408 0.52228 0.0
C1429 C 0.48234 0.71806 0.50221 0.0
C1430 C 0.38808 0.68345 0.49468 0.0
C1431 C 0.49537 0.68138 0.54591 0.0
C1432 C 0.39723 0.64678 0.5865 0.0
C1433 C 0.39396 0.61624 0.57576 0.0
C1434 C 0.41483 0.66847 0.5697 0.0
C1435 C 0.43006 0.65889 0.54215 0.0
C1436 C 0.42898 0.62728 0.5329 0.0
C1437 C 0.41048 0.60637 0.54961 0.0
C1438 C 0.41475 0.70212 0.5799 0.0
C1439 C 0.44568 0.61602 0.50423 0.0
H1440 H 0.41592 0.72727 0.46012 0.0
H1441 H 0.50554 0.72779 0.5042 0.0
H1442 H 0.38756 0.65808 0.48985 0.0
H1443 H 0.37571 0.68734 0.51692 0.0
H1444 H 0.37507 0.69565 0.47598 0.0
H1445 H 0.51928 0.69061 0.54254 0.0
H1446 H 0.48747 0.68763 0.56958 0.0
H1447 H 0.49616 0.65556 0.54463 0.0
H1448 H 0.38435 0.65422 0.60682 0.0
H1449 H 0.40831 0.58244 0.5418 0.0
H1450 H 0.4002 0.716 0.56368 0.0
H1451 H 0.4386 0.71192 0.57924 0.0
H1452 H 0.40525 0.705 0.60368 0.0
H1453 H 0.43514 0.62678 0.48332 0.0
H1454 H 0.44446 0.5903 0.50173 0.0
H1455 H 0.47048 0.62316 0.50499 0.0
C1456 C 0.79084 0.44431 0.47645 0.0
C1457 C 0.77535 0.47277 0.48062 0.0
C1458 C 0.81395 0.43453 0.49699 0.0
C1459 C 0.8222 0.45389 0.52224 0.0
C1460 C 0.80758 0.48327 0.52599 0.0
C1461 C 0.78382 0.49221 0.50531 0.0
C1462 C 0.82865 0.40281 0.49228 0.0
C1463 C 0.81653 0.50481 0.55213 0.0
C1464 C 0.85671 0.40439 0.58565 0.0
C1465 C 0.88786 0.40379 0.57636 0.0
C1466 C 0.83505 0.42307 0.56988 0.0
C1467 C 0.84525 0.44208 0.545 0.0
C1468 C 0.87737 0.44404 0.53806 0.0
C1469 C 0.89823 0.42426 0.55341 0.0
C1470 C 0.80095 0.41985 0.57765 0.0
C1471 C 0.88949 0.46478 0.51256 0.0
H1472 H 0.78374 0.42884 0.45786 0.0
H1473 H 0.77161 0.51408 0.50863 0.0
H1474 H 0.85417 0.40522 0.48933 0.0
H1475 H 0.82465 0.38802 0.51299 0.0
H1476 H 0.81917 0.39053 0.47167 0.0
H1477 H 0.80562 0.52817 0.54971 0.0
H1478 H 0.80915 0.4946 0.57456 0.0
H1479 H 0.84221 0.50759 0.55305 0.0
H1480 H 0.84887 0.38845 0.60351 0.0
H1481 H 0.9225 0.42404 0.54673 0.0
H1482 H 0.78931 0.40586 0.55937 0.0
H1483 H 0.78941 0.44297 0.57829 0.0
H1484 H 0.79735 0.40807 0.60029 0.0
H1485 H 0.88771 0.45235 0.49007 0.0
H1486 H 0.91433 0.47078 0.51643 0.0
H1487 H 0.87578 0.48665 0.5108 0.0
C1488 C 0.0556 0.79216 0.46881 0.0
C1489 C 0.0336 0.76974 0.47786 0.0
C1490 C 0.0656 0.81532 0.48926 0.0
C1491 C 0.05366 0.81602 0.51977 0.0
C1492 C 0.02975 0.79512 0.52845 0.0
C1493 C 0.01992 0.7722 0.50732 0.0
C1494 C 0.09098 0.83737 0.47892 0.0
C1495 C 0.01616 0.79548 0.56067 0.0
C1496 C 0.11545 0.84517 0.57475 0.0
C1497 C 0.10783 0.87672 0.57642 0.0
C1498 C 0.09642 0.82447 0.55828 0.0
C1499 C 0.06937 0.83591 0.54314 0.0
C1500 C 0.06059 0.86753 0.54667 0.0
C1501 C 0.08009 0.88764 0.56336 0.0
C1502 C 0.1066 0.79092 0.5551 0.0
C1503 C 0.03189 0.88055 0.53111 0.0
H1504 H 0.06694 0.79036 0.44648 0.0
H1505 H 0.00262 0.75529 0.51441 0.0
H1506 H 0.08483 0.86176 0.48483 0.0
H1507 H 0.11297 0.83162 0.49122 0.0
H1508 H 0.09533 0.83596 0.45358 0.0
H1509 H 0.99406 0.78213 0.56194 0.0
H1510 H 0.03305 0.78484 0.57705 0.0
H1511 H 0.01178 0.81971 0.56853 0.0
H1512 H 0.13707 0.83703 0.58501 0.0
H1513 H 0.07426 0.91212 0.56532 0.0
H1514 H 0.11438 0.78654 0.53097 0.0
H1515 H 0.08685 0.77501 0.55986 0.0
H1516 H 0.12607 0.78503 0.57106 0.0
H1517 H 0.03572 0.88168 0.50571 0.0
H1518 H 0.02614 0.90435 0.53951 0.0
H1519 H 0.01161 0.86511 0.53513 0.0
C1520 C 0.65268 0.10116 0.58029 0.0
C1521 C 0.62237 0.10514 0.56909 0.0
C1522 C 0.67441 0.08345 0.56358 0.0
C1523 C 0.66517 0.06891 0.53554 0.0
C1524 C 0.63372 0.07055 0.52583 0.0
C1525 C 0.61274 0.08907 0.54254 0.0
C1526 C 0.70786 0.08285 0.57438 0.0
C1527 C 0.62279 0.05462 0.49659 0.0
C1528 C 0.72459 0.06874 0.47124 0.0
C1529 C 0.73632 0.03832 0.47261 0.0
C1530 C 0.70143 0.07875 0.49159 0.0
C1531 C 0.68921 0.05759 0.51358 0.0
C1532 C 0.70045 0.02652 0.51467 0.0
C1533 C 0.72443 0.01733 0.49439 0.0
C1534 C 0.6906 0.11227 0.48994 0.0
C1535 C 0.68745 0.00327 0.53742 0.0
H1536 H 0.66 0.11364 0.6009 0.0
H1537 H 0.589 0.09173 0.53432 0.0
H1538 H 0.71763 0.05898 0.57282 0.0
H1539 H 0.72202 0.09805 0.5591 0.0
H1540 H 0.71032 0.09129 0.5986 0.0
H1541 H 0.59708 0.05566 0.49399 0.0
H1542 H 0.63347 0.06598 0.47611 0.0
H1543 H 0.63027 0.02986 0.49653 0.0
H1544 H 0.73437 0.08511 0.45476 0.0
H1545 H 0.73388 0.99392 0.49552 0.0
H1546 H 0.69423 0.12386 0.51266 0.0
H1547 H 0.66532 0.11318 0.48475 0.0
H1548 H 0.70312 0.12581 0.4719 0.0
H1549 H 0.69312 0.0106 0.56142 0.0
H1550 H 0.69691 0.97946 0.53362 0.0
H1551 H 0.66169 0.00244 0.53553 0.0
C1552 C 0.79611 0.3101 0.15032 0.0
C1553 C 0.77422 0.33386 0.14582 0.0
C1554 C 0.78649 0.27898 0.15357 0.0
C1555 C 0.75427 0.2718 0.15257 0.0
C1556 C 0.73219 0.29634 0.15228 0.0
C1557 C 0.74247 0.32709 0.14848 0.0
C1558 C 0.81084 0.25362 0.15399 0.0
C1559 C 0.69766 0.28992 0.15203 0.0
C1560 C 0.7328 0.2031 0.10214 0.0
C1561 C 0.72633 0.17967 0.12382 0.0
C1562 C 0.74189 0.2329 0.11141 0.0
C1563 C 0.74416 0.23992 0.1434 0.0
C1564 C 0.73661 0.21678 0.16562 0.0
C1565 C 0.7278 0.18677 0.15553 0.0
C1566 C 0.74933 0.25681 0.08674 0.0
C1567 C 0.73842 0.22348 0.19989 0.0
H1568 H 0.82067 0.31543 0.14812 0.0
H1569 H 0.72564 0.34566 0.14521 0.0
H1570 H 0.80418 0.23468 0.17013 0.0
H1571 H 0.81283 0.24337 0.13045 0.0
H1572 H 0.83404 0.26275 0.16085 0.0
H1573 H 0.68402 0.31087 0.15873 0.0
H1574 H 0.69044 0.2829 0.12833 0.0
H1575 H 0.69179 0.27054 0.168 0.0
H1576 H 0.73077 0.19811 0.07762 0.0
H1577 H 0.72281 0.16871 0.17233 0.0
H1578 H 0.77349 0.26543 0.08976 0.0
H1579 H 0.73347 0.27712 0.08894 0.0
H1580 H 0.74702 0.24729 0.06291 0.0
H1581 H 0.76318 0.22553 0.20693 0.0
H1582 H 0.72748 0.20477 0.21391 0.0
H1583 H 0.72691 0.24598 0.20539 0.0
C1584 C 0.19674 0.76797 0.10894 0.0
C1585 C 0.17336 0.77431 0.13068 0.0
C1586 C 0.22656 0.75869 0.11814 0.0
C1587 C 0.23352 0.75571 0.15011 0.0
C1588 C 0.21029 0.76284 0.17239 0.0
C1589 C 0.18037 0.77217 0.16237 0.0
C1590 C 0.25058 0.75185 0.09342 0.0
C1591 C 0.21681 0.75996 0.20663 0.0
C1592 C 0.30445 0.70423 0.15561 0.0
C1593 C 0.3279 0.72655 0.15225 0.0
C1594 C 0.27317 0.71339 0.15907 0.0
C1595 C 0.26549 0.74556 0.15922 0.0
C1596 C 0.28968 0.76791 0.16009 0.0
C1597 C 0.32061 0.7581 0.15631 0.0
C1598 C 0.24821 0.68874 0.15845 0.0
C1599 C 0.28277 0.80239 0.1608 0.0
H1600 H 0.19163 0.77029 0.08446 0.0
H1601 H 0.16226 0.77694 0.17918 0.0
H1602 H 0.27101 0.76734 0.0964 0.0
H1603 H 0.25891 0.72746 0.09559 0.0
H1604 H 0.24126 0.75518 0.06961 0.0
H1605 H 0.19766 0.76978 0.22091 0.0
H1606 H 0.21976 0.73502 0.21274 0.0
H1607 H 0.23883 0.77198 0.21273 0.0
H1608 H 0.31014 0.67985 0.15221 0.0
H1609 H 0.3389 0.77527 0.15372 0.0
H1610 H 0.23841 0.68715 0.13468 0.0
H1611 H 0.22889 0.69482 0.1744 0.0
H1612 H 0.25759 0.66548 0.16491 0.0
H1613 H 0.2759 0.8102 0.13724 0.0
H1614 H 0.30345 0.81607 0.16813 0.0
H1615 H 0.26318 0.80762 0.17671 0.0
C1616 C 0.76145 0.32093 0.39404 0.0
C1617 C 0.73328 0.33388 0.3836 0.0
C1618 C 0.76974 0.29018 0.38701 0.0
C1619 C 0.75027 0.27224 0.36746 0.0
C1620 C 0.7242 0.28665 0.35314 0.0
C1621 C 0.71558 0.31715 0.36187 0.0
C1622 C 0.79788 0.27617 0.40288 0.0
C1623 C 0.70422 0.26946 0.33005 0.0
C1624 C 0.78766 0.19255 0.35765 0.0
C1625 C 0.77291 0.17597 0.38154 0.0
C1626 C 0.77807 0.22305 0.34993 0.0
C1627 C 0.75417 0.23764 0.36739 0.0
C1628 C 0.73745 0.21991 0.38945 0.0
C1629 C 0.74646 0.18915 0.39551 0.0
C1630 C 0.79487 0.24 0.32433 0.0
C1631 C 0.71173 0.23414 0.40876 0.0
H1632 H 0.77623 0.33423 0.40946 0.0
H1633 H 0.69419 0.32707 0.35292 0.0
H1634 H 0.79068 0.2561 0.41743 0.0
H1635 H 0.81456 0.26737 0.38537 0.0
H1636 H 0.81019 0.29321 0.41789 0.0
H1637 H 0.69515 0.28573 0.31215 0.0
H1638 H 0.71727 0.25043 0.3184 0.0
H1639 H 0.68385 0.25925 0.34209 0.0
H1640 H 0.8076 0.1825 0.34601 0.0
H1641 H 0.73372 0.176 0.41271 0.0
H1642 H 0.81688 0.24988 0.33348 0.0
H1643 H 0.78061 0.25922 0.31452 0.0
H1644 H 0.80113 0.22361 0.3054 0.0
H1645 H 0.72084 0.25436 0.422 0.0
H1646 H 0.70158 0.21729 0.42546 0.0
H1647 H 0.69281 0.24276 0.39353 0.0
C1648 C 0.31945 0.744 0.38381 0.0
C1649 C 0.33062 0.77347 0.3753 0.0
C1650 C 0.28866 0.73525 0.37785 0.0
C1651 C 0.2688 0.75592 0.36155 0.0
C1652 C 0.2815 0.78343 0.34843 0.0
C1653 C 0.31221 0.79228 0.35599 0.0
C1654 C 0.27661 0.70542 0.39204 0.0
C1655 C 0.26215 0.80472 0.32835 0.0
C1656 C 0.18841 0.71928 0.35735 0.0
C1657 C 0.17444 0.73228 0.38383 0.0
C1658 C 0.21796 0.72935 0.34726 0.0
C1659 C 0.23443 0.7519 0.36482 0.0
C1660 C 0.21924 0.7669 0.38984 0.0
C1661 C 0.18923 0.75758 0.3983 0.0
C1662 C 0.23191 0.71449 0.31879 0.0
C1663 C 0.23557 0.79107 0.40952 0.0
H1664 H 0.33414 0.72878 0.39756 0.0
H1665 H 0.32087 0.81478 0.34862 0.0
H1666 H 0.25806 0.71081 0.40913 0.0
H1667 H 0.26628 0.69042 0.37385 0.0
H1668 H 0.2952 0.69196 0.40399 0.0
H1669 H 0.27685 0.81596 0.3104 0.0
H1670 H 0.2429 0.79197 0.31676 0.0
H1671 H 0.25198 0.82353 0.34279 0.0
H1672 H 0.17707 0.70036 0.34522 0.0
H1673 H 0.17806 0.76924 0.41754 0.0
H1674 H 0.24113 0.6911 0.32482 0.0
H1675 H 0.25103 0.72866 0.30882 0.0
H1676 H 0.21371 0.71111 0.30079 0.0
H1677 H 0.25726 0.78114 0.41949 0.0
H1678 H 0.22081 0.7996 0.42888 0.0
H1679 H 0.24217 0.81134 0.39508 0.0
C1680 C 0.28956 0.81057 0.88061 0.0
C1681 C 0.26715 0.83327 0.88743 0.0
C1682 C 0.28112 0.77902 0.87786 0.0
C1683 C 0.24954 0.77024 0.88178 0.0
C1684 C 0.22652 0.79365 0.88518 0.0
C1685 C 0.23567 0.82485 0.88824 0.0
C1686 C 0.30644 0.75489 0.8742 0.0
C1687 C 0.19256 0.78556 0.88902 0.0
C1688 C 0.22417 0.68511 0.87466 0.0
C1689 C 0.22561 0.67549 0.90571 0.0
C1690 C 0.23212 0.71584 0.86618 0.0
C1691 C 0.24154 0.7373 0.88935 0.0
C1692 C 0.24258 0.72767 0.92072 0.0
C1693 C 0.23453 0.69708 0.92843 0.0
C1694 C 0.23065 0.7253 0.83254 0.0
C1695 C 0.2521 0.74975 0.94636 0.0
H1696 H 0.31393 0.81709 0.88022 0.0
H1697 H 0.2184 0.84256 0.89335 0.0
H1698 H 0.31123 0.74397 0.89704 0.0
H1699 H 0.29904 0.73616 0.85809 0.0
H1700 H 0.32841 0.76533 0.86551 0.0
H1701 H 0.17728 0.80615 0.88533 0.0
H1702 H 0.18559 0.76692 0.87263 0.0
H1703 H 0.1886 0.77672 0.91287 0.0
H1704 H 0.21738 0.66848 0.85702 0.0
H1705 H 0.23492 0.69014 0.95255 0.0
H1706 H 0.2541 0.73248 0.82452 0.0
H1707 H 0.21502 0.74572 0.8297 0.0
H1708 H 0.22218 0.70614 0.81743 0.0
H1709 H 0.27568 0.75916 0.94171 0.0
H1710 H 0.25235 0.73833 0.96947 0.0
H1711 H 0.23577 0.76979 0.94726 0.0
C1712 C 0.81771 0.21715 0.88133 0.0
C1713 C 0.83551 0.23445 0.90255 0.0
C1714 C 0.78645 0.2251 0.87516 0.0
C1715 C 0.7725 0.25029 0.89128 0.0
C1716 C 0.79106 0.26915 0.91084 0.0
C1717 C 0.82237 0.26138 0.91565 0.0
C1718 C 0.76798 0.2054 0.85281 0.0
C1719 C 0.7773 0.29614 0.92873 0.0
C1720 C 0.69242 0.28645 0.87992 0.0
C1721 C 0.67548 0.27175 0.90362 0.0
C1722 C 0.72338 0.27771 0.87344 0.0
C1723 C 0.73801 0.25447 0.89172 0.0
C1724 C 0.72033 0.23807 0.91403 0.0
C1725 C 0.68922 0.24644 0.91915 0.0
C1726 C 0.74087 0.29462 0.84826 0.0
C1727 C 0.73487 0.21324 0.93429 0.0
H1728 H 0.82757 0.19655 0.87067 0.0
H1729 H 0.8362 0.27574 0.931 0.0
H1730 H 0.75455 0.18771 0.86589 0.0
H1731 H 0.75116 0.21982 0.83949 0.0
H1732 H 0.78344 0.19294 0.8363 0.0
H1733 H 0.79517 0.30919 0.94207 0.0
H1734 H 0.76546 0.31257 0.91276 0.0
H1735 H 0.75953 0.28735 0.94521 0.0
H1736 H 0.68216 0.3057 0.86731 0.0
H1737 H 0.67609 0.23387 0.93648 0.0
H1738 H 0.75702 0.27864 0.83595 0.0
H1739 H 0.75494 0.31357 0.85868 0.0
H1740 H 0.72471 0.30524 0.83111 0.0
H1741 H 0.746 0.19504 0.91982 0.0
H1742 H 0.71761 0.20188 0.94974 0.0
H1743 H 0.75334 0.22379 0.94892 0.0
C1744 C 0.28608 0.68683 0.64012 0.0
C1745 C 0.26474 0.66392 0.63111 0.0
C1746 C 0.27648 0.7179 0.64432 0.0
C1747 C 0.24477 0.726 0.63975 0.0
C1748 C 0.22272 0.70221 0.63395 0.0
C1749 C 0.23304 0.67151 0.62939 0.0
C1750 C 0.30082 0.74247 0.65039 0.0
C1751 C 0.18862 0.70958 0.62954 0.0
C1752 C 0.21944 0.81068 0.65211 0.0
C1753 C 0.2224 0.82253 0.62197 0.0
C1754 C 0.22615 0.7791 0.65849 0.0
C1755 C 0.23601 0.75919 0.63413 0.0
C1756 C 0.23793 0.77098 0.60356 0.0
C1757 C 0.23093 0.80228 0.59791 0.0
C1758 C 0.22343 0.76726 0.69128 0.0
C1759 C 0.24797 0.75067 0.5767 0.0
H1760 H 0.31061 0.681 0.64133 0.0
H1761 H 0.21651 0.65363 0.62279 0.0
H1762 H 0.30536 0.75552 0.62865 0.0
H1763 H 0.29252 0.75945 0.66792 0.0
H1764 H 0.32311 0.73213 0.65852 0.0
H1765 H 0.17395 0.68838 0.63149 0.0
H1766 H 0.18062 0.72696 0.64683 0.0
H1767 H 0.18501 0.71978 0.60617 0.0
H1768 H 0.21279 0.82628 0.67071 0.0
H1769 H 0.23236 0.81107 0.57443 0.0
H1770 H 0.24694 0.76176 0.70046 0.0
H1771 H 0.20969 0.7454 0.69187 0.0
H1772 H 0.21229 0.78461 0.70686 0.0
H1773 H 0.27157 0.74108 0.58114 0.0
H1774 H 0.24846 0.76359 0.55438 0.0
H1775 H 0.23186 0.73066 0.57419 0.0
C1776 C 0.82144 0.24602 0.60272 0.0
C1777 C 0.83428 0.27293 0.61607 0.0
C1778 C 0.7901 0.23822 0.60704 0.0
C1779 C 0.77118 0.2571 0.62623 0.0
C1780 C 0.78479 0.28233 0.64255 0.0
C1781 C 0.81613 0.29025 0.63697 0.0
C1782 C 0.77674 0.21119 0.58895 0.0
C1783 C 0.76587 0.30214 0.66445 0.0
C1784 C 0.68821 0.26076 0.597 0.0
C1785 C 0.67426 0.23568 0.61263 0.0
C1786 C 0.71925 0.2691 0.6025 0.0
C1787 C 0.73671 0.25287 0.6252 0.0
C1788 C 0.72191 0.22977 0.64341 0.0
C1789 C 0.69102 0.2211 0.63662 0.0
C1790 C 0.73398 0.2938 0.58232 0.0
C1791 C 0.73917 0.213 0.66894 0.0
H1792 H 0.83557 0.23179 0.5875 0.0
H1793 H 0.82581 0.31089 0.6477 0.0
H1794 H 0.76452 0.19489 0.60469 0.0
H1795 H 0.75937 0.21998 0.57198 0.0
H1796 H 0.7949 0.19799 0.57614 0.0
H1797 H 0.78101 0.31474 0.68115 0.0
H1798 H 0.75254 0.31971 0.65101 0.0
H1799 H 0.74894 0.28777 0.67756 0.0
H1800 H 0.67528 0.27327 0.57942 0.0
H1801 H 0.68064 0.20203 0.64932 0.0
H1802 H 0.75265 0.28315 0.56802 0.0
H1803 H 0.74489 0.31206 0.59686 0.0
H1804 H 0.71688 0.3051 0.56656 0.0
H1805 H 0.75377 0.19428 0.65877 0.0
H1806 H 0.72286 0.20212 0.68571 0.0
H1807 H 0.75481 0.22915 0.68162 0.0
loop_
_geom_bond_atom_site_label_1
_geom_bond_atom_site_label_2
_geom_bond_distance
_geom_bond_site_symmetry_2
_ccdc_geom_bond_type
Co0 N4 2.148 . S
Co0 N10 2.128 . S
Co0 N20 2.194 . S
Co0 O25 2.351 . S
Co0 O26 2.155 . S
Co0 O27 2.096 . S
C1 N4 1.301 . S
C1 N5 1.328 . S
C1 H6 0.930 . S
C2 C3 1.333 . S
C2 N4 1.317 . S
C2 H7 0.930 . S
C3 C2 1.333 . S
C3 N5 1.350 . S
C3 H29 0.931 1_545 S
N4 Co0 2.148 . S
N4 C1 1.301 . S
N4 C2 1.317 . S
N5 C1 1.328 . S
N5 C3 1.350 . S
H6 C1 0.930 . S
H7 C2 0.930 . S
C8 O9 1.224 . S
C8 O27 1.247 . S
O9 C8 1.224 . S
N10 Co0 2.128 . S
N10 C11 1.355 . S
N10 C13 1.311 . S
C11 N10 1.355 . S
C11 C12 1.363 . S
C11 H23 0.929 . S
C12 C11 1.363 . S
C12 N14 1.375 . S
C12 H30 0.931 . S
C13 N10 1.311 . S
C13 N14 1.347 . S
C13 H24 0.929 . S
N14 C12 1.375 . S
N14 C13 1.347 . S
C15 C18 1.365 . S
C15 N20 1.328 . S
C15 H21 0.929 . S
C16 C17 1.362 . S
C16 C19 1.378 . S
C16 H31 0.929 . S
C17 C16 1.362 . S
C17 C18 1.366 . S
C18 C15 1.365 . S
C18 C17 1.366 . S
C18 H32 0.930 . S
C19 C16 1.378 . S
C19 N20 1.315 . S
C19 H22 0.930 . S
N20 Co0 2.194 . S
N20 C15 1.328 . S
N20 C19 1.315 . S
H21 C15 0.929 . S
H22 C19 0.930 . S
H23 C11 0.929 . S
H24 C13 0.929 . S
O25 Co0 2.351 . S
O25 C28 1.244 . S
O26 Co0 2.155 . S
O26 C28 1.240 . S
O27 Co0 2.096 . S
O27 C8 1.247 . S
C28 O25 1.244 . S
C28 O26 1.240 . S
H29 C3 0.931 1_565 S
H30 C12 0.931 . S
H31 C16 0.929 . S
H32 C18 0.930 . S
Co33 N37 2.148 . S
Co33 N43 2.128 . S
Co33 N53 2.194 . S
Co33 O58 2.351 . S
Co33 O59 2.155 . S
Co33 O60 2.096 . S
C34 N37 1.301 . S
C34 N38 1.328 . S
C34 H39 0.930 . S
C35 C36 1.333 . S
C35 N37 1.317 . S
C35 H40 0.930 . S
C36 C35 1.333 . S
C36 N38 1.350 . S
C36 H62 0.931 . S
N37 Co33 2.148 . S
N37 C34 1.301 . S
N37 C35 1.317 . S
N38 C34 1.328 . S
N38 C36 1.350 . S
H39 C34 0.930 . S
H40 C35 0.930 . S
C41 O42 1.224 . S
C41 O60 1.247 . S
O42 C41 1.224 . S
N43 Co33 2.128 . S
N43 C44 1.355 . S
N43 C46 1.311 . S
C44 N43 1.355 . S
C44 C45 1.363 . S
C44 H56 0.929 . S
C45 C44 1.363 . S
C45 N47 1.375 . S
C45 H63 0.931 . S
C46 N43 1.311 . S
C46 N47 1.347 . S
C46 H57 0.929 . S
N47 C45 1.375 . S
N47 C46 1.347 . S
C48 C51 1.365 . S
C48 N53 1.328 . S
C48 H54 0.929 . S
C49 C50 1.362 . S
C49 C52 1.378 . S
C49 H64 0.929 . S
C50 C49 1.362 . S
C50 C51 1.366 . S
C51 C48 1.365 . S
C51 C50 1.366 . S
C51 H65 0.930 . S
C52 C49 1.378 . S
C52 N53 1.315 . S
C52 H55 0.930 . S
N53 Co33 2.194 . S
N53 C48 1.328 . S
N53 C52 1.315 . S
H54 C48 0.929 . S
H55 C52 0.930 . S
H56 C44 0.929 . S
H57 C46 0.929 . S
O58 Co33 2.351 . S
O58 C61 1.244 . S
O59 Co33 2.155 . S
O59 C61 1.240 . S
O60 Co33 2.096 . S
O60 C41 1.247 . S
C61 O58 1.244 . S
C61 O59 1.240 . S
H62 C36 0.931 . S
H63 C45 0.931 . S
H64 C49 0.929 . S
H65 C51 0.930 . S
Co66 N70 2.148 . S
Co66 N76 2.128 . S
Co66 N86 2.194 . S
Co66 O91 2.351 . S
Co66 O92 2.155 . S
Co66 O93 2.096 . S
C67 N70 1.301 . S
C67 N71 1.328 . S
C67 H72 0.930 . S
C68 C69 1.333 . S
C68 N70 1.317 . S
C68 H73 0.930 . S
C69 C68 1.333 . S
C69 N71 1.350 . S
C69 H95 0.931 . S
N70 Co66 2.148 . S
N70 C67 1.301 . S
N70 C68 1.317 . S
N71 C67 1.328 . S
N71 C69 1.350 . S
H72 C67 0.930 . S
H73 C68 0.930 . S
C74 O75 1.224 . S
C74 O93 1.247 . S
O75 C74 1.224 . S
N76 Co66 2.128 . S
N76 C77 1.355 . S
N76 C79 1.311 . S
C77 N76 1.355 . S
C77 C78 1.363 . S
C77 H89 0.929 . S
C78 C77 1.363 . S
C78 N80 1.375 . S
C78 H96 0.931 . S
C79 N76 1.311 . S
C79 N80 1.347 . S
C79 H90 0.929 . S
N80 C78 1.375 . S
N80 C79 1.347 . S
C81 C84 1.365 . S
C81 N86 1.328 . S
C81 H87 0.929 . S
C82 C83 1.362 . S
C82 C85 1.378 . S
C82 H97 0.929 . S
C83 C82 1.362 . S
C83 C84 1.366 . S
C84 C81 1.365 . S
C84 C83 1.366 . S
C84 H98 0.930 . S
C85 C82 1.378 . S
C85 N86 1.315 . S
C85 H88 0.930 . S
N86 Co66 2.194 . S
N86 C81 1.328 . S
N86 C85 1.315 . S
H87 C81 0.929 . S
H88 C85 0.930 . S
H89 C77 0.929 . S
H90 C79 0.929 . S
O91 Co66 2.351 . S
O91 C94 1.244 . S
O92 Co66 2.155 . S
O92 C94 1.240 . S
O93 Co66 2.096 . S
O93 C74 1.247 . S
C94 O91 1.244 . S
C94 O92 1.240 . S
H95 C69 0.931 . S
H96 C78 0.931 . S
H97 C82 0.929 . S
H98 C84 0.930 . S
Co99 N103 2.148 . S
Co99 N109 2.128 . S
Co99 N119 2.194 . S
Co99 O124 2.351 . S
Co99 O125 2.155 . S
Co99 O126 2.096 . S
C100 N103 1.301 . S
C100 N104 1.328 . S
C100 H105 0.930 . S
C101 C102 1.333 . S
C101 N103 1.317 . S
C101 H106 0.930 . S
C102 C101 1.333 . S
C102 N104 1.350 . S
C102 H128 0.931 1_455 S
N103 Co99 2.148 . S
N103 C100 1.301 . S
N103 C101 1.317 . S
N104 C100 1.328 . S
N104 C102 1.350 . S
H105 C100 0.930 . S
H106 C101 0.930 . S
C107 O108 1.224 . S
C107 O126 1.247 . S
O108 C107 1.224 . S
N109 Co99 2.128 . S
N109 C110 1.355 . S
N109 C112 1.311 . S
C110 N109 1.355 . S
C110 C111 1.363 . S
C110 H122 0.929 . S
C111 C110 1.363 . S
C111 N113 1.375 . S
C111 H129 0.931 . S
C112 N109 1.311 . S
C112 N113 1.347 . S
C112 H123 0.929 . S
N113 C111 1.375 . S
N113 C112 1.347 . S
C114 C117 1.365 . S
C114 N119 1.328 . S
C114 H120 0.929 . S
C115 C116 1.362 . S
C115 C118 1.378 . S
C115 H130 0.929 . S
C116 C115 1.362 . S
C116 C117 1.366 . S
C117 C114 1.365 . S
C117 C116 1.366 . S
C117 H131 0.930 . S
C118 C115 1.378 . S
C118 N119 1.315 . S
C118 H121 0.930 . S
N119 Co99 2.194 . S
N119 C114 1.328 . S
N119 C118 1.315 . S
H120 C114 0.929 . S
H121 C118 0.930 . S
H122 C110 0.929 . S
H123 C112 0.929 . S
O124 Co99 2.351 . S
O124 C127 1.244 . S
O125 Co99 2.155 . S
O125 C127 1.240 . S
O126 Co99 2.096 . S
O126 C107 1.247 . S
C127 O124 1.244 . S
C127 O125 1.240 . S
H128 C102 0.931 1_655 S
H129 C111 0.931 . S
H130 C115 0.929 . S
H131 C117 0.930 . S
Co132 N136 2.148 . S
Co132 N142 2.128 . S
Co132 N152 2.194 . S
Co132 O157 2.351 . S
Co132 O158 2.155 . S
Co132 O159 2.096 . S
C133 N136 1.301 . S
C133 N137 1.328 . S
C133 H138 0.930 . S
C134 C135 1.333 . S
C134 N136 1.317 . S
C134 H139 0.930 . S
C135 C134 1.333 . S
C135 N137 1.350 . S
C135 H161 0.931 . S
N136 Co132 2.148 . S
N136 C133 1.301 . S
N136 C134 1.317 . S
N137 C133 1.328 . S
N137 C135 1.350 . S
H138 C133 0.930 . S
H139 C134 0.930 . S
C140 O141 1.224 . S
C140 O159 1.247 . S
O141 C140 1.224 . S
N142 Co132 2.128 . S
N142 C143 1.355 . S
N142 C145 1.311 . S
C143 N142 1.355 . S
C143 C144 1.363 . S
C143 H155 0.929 . S
C144 C143 1.363 . S
C144 N146 1.375 . S
C144 H162 0.931 . S
C145 N142 1.311 . S
C145 N146 1.347 . S
C145 H156 0.929 . S
N146 C144 1.375 . S
N146 C145 1.347 . S
C147 C150 1.365 . S
C147 N152 1.328 . S
C147 H153 0.929 . S
C148 C149 1.362 . S
C148 C151 1.378 . S
C148 H163 0.929 . S
C149 C148 1.362 . S
C149 C150 1.366 . S
C150 C147 1.365 . S
C150 C149 1.366 . S
C150 H164 0.930 . S
C151 C148 1.378 . S
C151 N152 1.315 . S
C151 H154 0.930 . S
N152 Co132 2.194 . S
N152 C147 1.328 . S
N152 C151 1.315 . S
H153 C147 0.929 . S
H154 C151 0.930 . S
H155 C143 0.929 . S
H156 C145 0.929 . S
O157 Co132 2.351 . S
O157 C160 1.244 . S
O158 Co132 2.155 . S
O158 C160 1.240 . S
O159 Co132 2.096 . S
O159 C140 1.247 . S
C160 O157 1.244 . S
C160 O158 1.240 . S
H161 C135 0.931 . S
H162 C144 0.931 . S
H163 C148 0.929 . S
H164 C150 0.930 . S
Co165 N169 2.148 . S
Co165 N175 2.128 . S
Co165 N185 2.194 . S
Co165 O190 2.351 . S
Co165 O191 2.155 . S
Co165 O192 2.096 . S
C166 N169 1.301 . S
C166 N170 1.328 . S
C166 H171 0.930 . S
C167 C168 1.333 . S
C167 N169 1.317 . S
C167 H172 0.930 . S
C168 C167 1.333 . S
C168 N170 1.350 . S
C168 H194 0.931 1_455 S
N169 Co165 2.148 . S
N169 C166 1.301 . S
N169 C167 1.317 . S
N170 C166 1.328 . S
N170 C168 1.350 . S
H171 C166 0.930 . S
H172 C167 0.930 . S
C173 O174 1.224 . S
C173 O192 1.247 . S
O174 C173 1.224 . S
N175 Co165 2.128 . S
N175 C176 1.355 . S
N175 C178 1.311 . S
C176 N175 1.355 . S
C176 C177 1.363 . S
C176 H188 0.929 . S
C177 C176 1.363 . S
C177 N179 1.375 . S
C177 H195 0.931 . S
C178 N175 1.311 . S
C178 N179 1.347 . S
C178 H189 0.929 . S
N179 C177 1.375 . S
N179 C178 1.347 . S
C180 C183 1.365 . S
C180 N185 1.328 . S
C180 H186 0.929 . S
C181 C182 1.362 . S
C181 C184 1.378 . S
C181 H196 0.929 . S
C182 C181 1.362 . S
C182 C183 1.366 . S
C183 C180 1.365 . S
C183 C182 1.366 . S
C183 H197 0.930 . S
C184 C181 1.378 . S
C184 N185 1.315 . S
C184 H187 0.930 . S
N185 Co165 2.194 . S
N185 C180 1.328 . S
N185 C184 1.315 . S
H186 C180 0.929 . S
H187 C184 0.930 . S
H188 C176 0.929 . S
H189 C178 0.929 . S
O190 Co165 2.351 . S
O190 C193 1.244 . S
O191 Co165 2.155 . S
O191 C193 1.240 . S
O192 Co165 2.096 . S
O192 C173 1.247 . S
C193 O190 1.244 . S
C193 O191 1.240 . S
H194 C168 0.931 1_655 S
H195 C177 0.931 . S
H196 C181 0.929 . S
H197 C183 0.930 . S
Co198 N202 2.148 . S
Co198 N208 2.128 . S
Co198 N218 2.194 . S
Co198 O223 2.351 . S
Co198 O224 2.155 . S
Co198 O225 2.096 . S
C199 N202 1.301 . S
C199 N203 1.328 . S
C199 H204 0.930 . S
C200 C201 1.333 . S
C200 N202 1.317 . S
C200 H205 0.930 . S
C201 C200 1.333 . S
C201 N203 1.350 . S
C201 H227 0.931 1_545 S
N202 Co198 2.148 . S
N202 C199 1.301 . S
N202 C200 1.317 . S
N203 C199 1.328 . S
N203 C201 1.350 . S
H204 C199 0.930 . S
H205 C200 0.930 . S
C206 O207 1.224 . S
C206 O225 1.247 . S
O207 C206 1.224 . S
N208 Co198 2.128 . S
N208 C209 1.355 . S
N208 C211 1.311 . S
C209 N208 1.355 . S
C209 C210 1.363 . S
C209 H221 0.929 . S
C210 C209 1.363 . S
C210 N212 1.375 . S
C210 H228 0.931 . S
C211 N208 1.311 . S
C211 N212 1.347 . S
C211 H222 0.929 . S
N212 C210 1.375 . S
N212 C211 1.347 . S
C213 C216 1.365 . S
C213 N218 1.328 . S
C213 H219 0.929 . S
C214 C215 1.362 . S
C214 C217 1.378 . S
C214 H229 0.929 . S
C215 C214 1.362 . S
C215 C216 1.366 . S
C216 C213 1.365 . S
C216 C215 1.366 . S
C216 H230 0.930 . S
C217 C214 1.378 . S
C217 N218 1.315 . S
C217 H220 0.930 . S
N218 Co198 2.194 . S
N218 C213 1.328 . S
N218 C217 1.315 . S
H219 C213 0.929 . S
H220 C217 0.930 . S
H221 C209 0.929 . S
H222 C211 0.929 . S
O223 Co198 2.351 . S
O223 C226 1.244 . S
O224 Co198 2.155 . S
O224 C226 1.240 . S
O225 Co198 2.096 . S
O225 C206 1.247 . S
C226 O223 1.244 . S
C226 O224 1.240 . S
H227 C201 0.931 1_565 S
H228 C210 0.931 . S
H229 C214 0.929 . S
H230 C216 0.930 . S
Co231 N235 2.148 . S
Co231 N241 2.128 . S
Co231 N251 2.194 . S
Co231 O256 2.351 . S
Co231 O257 2.155 . S
Co231 O258 2.096 . S
C232 N235 1.301 . S
C232 N236 1.328 . S
C232 H237 0.930 . S
C233 C234 1.333 . S
C233 N235 1.317 . S
C233 H238 0.930 . S
C234 C233 1.333 . S
C234 N236 1.350 . S
C234 H260 0.931 . S
N235 Co231 2.148 . S
N235 C232 1.301 . S
N235 C233 1.317 . S
N236 C232 1.328 . S
N236 C234 1.350 . S
H237 C232 0.930 . S
H238 C233 0.930 . S
C239 O240 1.224 . S
C239 O258 1.247 . S
O240 C239 1.224 . S
N241 Co231 2.128 . S
N241 C242 1.355 . S
N241 C244 1.311 . S
C242 N241 1.355 . S
C242 C243 1.363 . S
C242 H254 0.929 . S
C243 C242 1.363 . S
C243 N245 1.375 . S
C243 H261 0.931 . S
C244 N241 1.311 . S
C244 N245 1.347 . S
C244 H255 0.929 . S
N245 C243 1.375 . S
N245 C244 1.347 . S
C246 C249 1.365 . S
C246 N251 1.328 . S
C246 H252 0.929 . S
C247 C248 1.362 . S
C247 C250 1.378 . S
C247 H262 0.929 . S
C248 C247 1.362 . S
C248 C249 1.366 . S
C249 C246 1.365 . S
C249 C248 1.366 . S
C249 H263 0.930 . S
C250 C247 1.378 . S
C250 N251 1.315 . S
C250 H253 0.930 . S
N251 Co231 2.194 . S
N251 C246 1.328 . S
N251 C250 1.315 . S
H252 C246 0.929 . S
H253 C250 0.930 . S
H254 C242 0.929 . S
H255 C244 0.929 . S
O256 Co231 2.351 . S
O256 C259 1.244 . S
O257 Co231 2.155 . S
O257 C259 1.240 . S
O258 Co231 2.096 . S
O258 C239 1.247 . S
C259 O256 1.244 . S
C259 O257 1.240 . S
H260 C234 0.931 . S
H261 C243 0.931 . S
H262 C247 0.929 . S
H263 C249 0.930 . S
Co264 N268 2.148 . S
Co264 N274 2.128 . S
Co264 N284 2.194 . S
Co264 O289 2.351 . S
Co264 O290 2.155 . S
Co264 O291 2.096 . S
C265 N268 1.301 . S
C265 N269 1.328 . S
C265 H270 0.930 . S
C266 C267 1.333 . S
C266 N268 1.317 . S
C266 H271 0.930 . S
C267 C266 1.333 . S
C267 N269 1.350 . S
C267 H293 0.931 1_565 S
N268 Co264 2.148 . S
N268 C265 1.301 . S
N268 C266 1.317 . S
N269 C265 1.328 . S
N269 C267 1.350 . S
H270 C265 0.930 . S
H271 C266 0.930 . S
C272 O273 1.224 . S
C272 O291 1.247 . S
O273 C272 1.224 . S
N274 Co264 2.128 . S
N274 C275 1.355 . S
N274 C277 1.311 . S
C275 N274 1.355 . S
C275 C276 1.363 . S
C275 H287 0.929 . S
C276 C275 1.363 . S
C276 N278 1.375 . S
C276 H294 0.931 . S
C277 N274 1.311 . S
C277 N278 1.347 . S
C277 H288 0.929 . S
N278 C276 1.375 . S
N278 C277 1.347 . S
C279 C282 1.365 . S
C279 N284 1.328 . S
C279 H285 0.929 . S
C280 C281 1.362 . S
C280 C283 1.378 . S
C280 H295 0.929 . S
C281 C280 1.362 . S
C281 C282 1.366 . S
C282 C279 1.365 . S
C282 C281 1.366 . S
C282 H296 0.930 . S
C283 C280 1.378 . S
C283 N284 1.315 . S
C283 H286 0.930 . S
N284 Co264 2.194 . S
N284 C279 1.328 . S
N284 C283 1.315 . S
H285 C279 0.929 . S
H286 C283 0.930 . S
H287 C275 0.929 . S
H288 C277 0.929 . S
O289 Co264 2.351 . S
O289 C292 1.244 . S
O290 Co264 2.155 . S
O290 C292 1.240 . S
O291 Co264 2.096 . S
O291 C272 1.247 . S
C292 O289 1.244 . S
C292 O290 1.240 . S
H293 C267 0.931 1_545 S
H294 C276 0.931 . S
H295 C280 0.929 . S
H296 C282 0.930 . S
Co297 N301 2.148 . S
Co297 N307 2.128 . S
Co297 N317 2.194 . S
Co297 O322 2.351 . S
Co297 O323 2.155 . S
Co297 O324 2.096 . S
C298 N301 1.301 . S
C298 N302 1.328 . S
C298 H303 0.930 . S
C299 C300 1.333 . S
C299 N301 1.317 . S
C299 H304 0.930 . S
C300 C299 1.333 . S
C300 N302 1.350 . S
C300 H326 0.931 . S
N301 Co297 2.148 . S
N301 C298 1.301 . S
N301 C299 1.317 . S
N302 C298 1.328 . S
N302 C300 1.350 . S
H303 C298 0.930 . S
H304 C299 0.930 . S
C305 O306 1.224 . S
C305 O324 1.247 . S
O306 C305 1.224 . S
N307 Co297 2.128 . S
N307 C308 1.355 . S
N307 C310 1.311 . S
C308 N307 1.355 . S
C308 C309 1.363 . S
C308 H320 0.929 . S
C309 C308 1.363 . S
C309 N311 1.375 . S
C309 H327 0.931 . S
C310 N307 1.311 . S
C310 N311 1.347 . S
C310 H321 0.929 . S
N311 C309 1.375 . S
N311 C310 1.347 . S
C312 C315 1.365 . S
C312 N317 1.328 . S
C312 H318 0.929 . S
C313 C314 1.362 . S
C313 C316 1.378 . S
C313 H328 0.929 . S
C314 C313 1.362 . S
C314 C315 1.366 . S
C315 C312 1.365 . S
C315 C314 1.366 . S
C315 H329 0.930 . S
C316 C313 1.378 . S
C316 N317 1.315 . S
C316 H319 0.930 . S
N317 Co297 2.194 . S
N317 C312 1.328 . S
N317 C316 1.315 . S
H318 C312 0.929 . S
H319 C316 0.930 . S
H320 C308 0.929 . S
H321 C310 0.929 . S
O322 Co297 2.351 . S
O322 C325 1.244 . S
O323 Co297 2.155 . S
O323 C325 1.240 . S
O324 Co297 2.096 . S
O324 C305 1.247 . S
C325 O322 1.244 . S
C325 O323 1.240 . S
H326 C300 0.931 . S
H327 C309 0.931 . S
H328 C313 0.929 . S
H329 C315 0.930 . S
Co330 N334 2.148 . S
Co330 N340 2.128 . S
Co330 N350 2.194 . S
Co330 O355 2.351 . S
Co330 O356 2.155 . S
Co330 O357 2.096 . S
C331 N334 1.301 . S
C331 N335 1.328 . S
C331 H336 0.930 . S
C332 C333 1.333 . S
C332 N334 1.317 . S
C332 H337 0.930 . S
C333 C332 1.333 . S
C333 N335 1.350 . S
C333 H359 0.931 . S
N334 Co330 2.148 . S
N334 C331 1.301 . S
N334 C332 1.317 . S
N335 C331 1.328 . S
N335 C333 1.350 . S
H336 C331 0.930 . S
H337 C332 0.930 . S
C338 O339 1.224 . S
C338 O357 1.247 . S
O339 C338 1.224 . S
N340 Co330 2.128 . S
N340 C341 1.355 . S
N340 C343 1.311 . S
C341 N340 1.355 . S
C341 C342 1.363 . S
C341 H353 0.929 . S
C342 C341 1.363 . S
C342 N344 1.375 . S
C342 H360 0.931 . S
C343 N340 1.311 . S
C343 N344 1.347 . S
C343 H354 0.929 . S
N344 C342 1.375 . S
N344 C343 1.347 . S
C345 C348 1.365 . S
C345 N350 1.328 . S
C345 H351 0.929 . S
C346 C347 1.362 . S
C346 C349 1.378 . S
C346 H361 0.929 . S
C347 C346 1.362 . S
C347 C348 1.366 . S
C348 C345 1.365 . S
C348 C347 1.366 . S
C348 H362 0.930 . S
C349 C346 1.378 . S
C349 N350 1.315 . S
C349 H352 0.930 . S
N350 Co330 2.194 . S
N350 C345 1.328 . S
N350 C349 1.315 . S
H351 C345 0.929 . S
H352 C349 0.930 . S
H353 C341 0.929 . S
H354 C343 0.929 . S
O355 Co330 2.351 . S
O355 C358 1.244 . S
O356 Co330 2.155 . S
O356 C358 1.240 . S
O357 Co330 2.096 . S
O357 C338 1.247 . S
C358 O355 1.244 . S
C358 O356 1.240 . S
H359 C333 0.931 . S
H360 C342 0.931 . S
H361 C346 0.929 . S
H362 C348 0.930 . S
Co363 N367 2.148 . S
Co363 N373 2.128 . S
Co363 N383 2.194 . S
Co363 O388 2.351 . S
Co363 O389 2.155 . S
Co363 O390 2.096 . S
C364 N367 1.301 . S
C364 N368 1.328 . S
C364 H369 0.930 . S
C365 C366 1.333 . S
C365 N367 1.317 . S
C365 H370 0.930 . S
C366 C365 1.333 . S
C366 N368 1.350 . S
C366 H392 0.931 1_655 S
N367 Co363 2.148 . S
N367 C364 1.301 . S
N367 C365 1.317 . S
N368 C364 1.328 . S
N368 C366 1.350 . S
H369 C364 0.930 . S
H370 C365 0.930 . S
C371 O372 1.224 . S
C371 O390 1.247 . S
O372 C371 1.224 . S
N373 Co363 2.128 . S
N373 C374 1.355 . S
N373 C376 1.311 . S
C374 N373 1.355 . S
C374 C375 1.363 . S
C374 H386 0.929 . S
C375 C374 1.363 . S
C375 N377 1.375 . S
C375 H393 0.931 . S
C376 N373 1.311 . S
C376 N377 1.347 . S
C376 H387 0.929 . S
N377 C375 1.375 . S
N377 C376 1.347 . S
C378 C381 1.365 . S
C378 N383 1.328 . S
C378 H384 0.929 . S
C379 C380 1.362 . S
C379 C382 1.378 . S
C379 H394 0.929 . S
C380 C379 1.362 . S
C380 C381 1.366 . S
C381 C378 1.365 . S
C381 C380 1.366 . S
C381 H395 0.930 . S
C382 C379 1.378 . S
C382 N383 1.315 . S
C382 H385 0.930 . S
N383 Co363 2.194 . S
N383 C378 1.328 . S
N383 C382 1.315 . S
H384 C378 0.929 . S
H385 C382 0.930 . S
H386 C374 0.929 . S
H387 C376 0.929 . S
O388 Co363 2.351 . S
O388 C391 1.244 . S
O389 Co363 2.155 . S
O389 C391 1.240 . S
O390 Co363 2.096 . S
O390 C371 1.247 . S
C391 O388 1.244 . S
C391 O389 1.240 . S
H392 C366 0.931 1_455 S
H393 C375 0.931 . S
H394 C379 0.929 . S
H395 C381 0.930 . S
Co396 N400 2.148 . S
Co396 N406 2.128 . S
Co396 N416 2.194 . S
Co396 O421 2.351 . S
Co396 O422 2.155 . S
Co396 O423 2.096 . S
C397 N400 1.301 . S
C397 N401 1.328 . S
C397 H402 0.930 . S
C398 C399 1.333 . S
C398 N400 1.317 . S
C398 H403 0.930 . S
C399 C398 1.333 . S
C399 N401 1.350 . S
C399 H425 0.931 . S
N400 Co396 2.148 . S
N400 C397 1.301 . S
N400 C398 1.317 . S
N401 C397 1.328 . S
N401 C399 1.350 . S
H402 C397 0.930 . S
H403 C398 0.930 . S
C404 O405 1.224 . S
C404 O423 1.247 . S
O405 C404 1.224 . S
N406 Co396 2.128 . S
N406 C407 1.355 . S
N406 C409 1.311 . S
C407 N406 1.355 . S
C407 C408 1.363 . S
C407 H419 0.929 . S
C408 C407 1.363 . S
C408 N410 1.375 . S
C408 H426 0.931 . S
C409 N406 1.311 . S
C409 N410 1.347 . S
C409 H420 0.929 . S
N410 C408 1.375 . S
N410 C409 1.347 . S
C411 C414 1.365 . S
C411 N416 1.328 . S
C411 H417 0.929 . S
C412 C413 1.362 . S
C412 C415 1.378 . S
C412 H427 0.929 . S
C413 C412 1.362 . S
C413 C414 1.366 . S
C414 C411 1.365 . S
C414 C413 1.366 . S
C414 H428 0.930 . S
C415 C412 1.378 . S
C415 N416 1.315 . S
C415 H418 0.930 . S
N416 Co396 2.194 . S
N416 C411 1.328 . S
N416 C415 1.315 . S
H417 C411 0.929 . S
H418 C415 0.930 . S
H419 C407 0.929 . S
H420 C409 0.929 . S
O421 Co396 2.351 . S
O421 C424 1.244 . S
O422 Co396 2.155 . S
O422 C424 1.240 . S
O423 Co396 2.096 . S
O423 C404 1.247 . S
C424 O421 1.244 . S
C424 O422 1.240 . S
H425 C399 0.931 . S
H426 C408 0.931 . S
H427 C412 0.929 . S
H428 C414 0.930 . S
Co429 N433 2.148 . S
Co429 N439 2.128 . S
Co429 N449 2.194 . S
Co429 O454 2.351 . S
Co429 O455 2.155 . S
Co429 O456 2.096 . S
C430 N433 1.301 . S
C430 N434 1.328 . S
C430 H435 0.930 . S
C431 C432 1.333 . S
C431 N433 1.317 . S
C431 H436 0.930 . S
C432 C431 1.333 . S
C432 N434 1.350 . S
C432 H458 0.931 1_655 S
N433 Co429 2.148 . S
N433 C430 1.301 . S
N433 C431 1.317 . S
N434 C430 1.328 . S
N434 C432 1.350 . S
H435 C430 0.930 . S
H436 C431 0.930 . S
C437 O438 1.224 . S
C437 O456 1.247 . S
O438 C437 1.224 . S
N439 Co429 2.128 . S
N439 C440 1.355 . S
N439 C442 1.311 . S
C440 N439 1.355 . S
C440 C441 1.363 . S
C440 H452 0.929 . S
C441 C440 1.363 . S
C441 N443 1.375 . S
C441 H459 0.931 . S
C442 N439 1.311 . S
C442 N443 1.347 . S
C442 H453 0.929 . S
N443 C441 1.375 . S
N443 C442 1.347 . S
C444 C447 1.365 . S
C444 N449 1.328 . S
C444 H450 0.929 . S
C445 C446 1.362 . S
C445 C448 1.378 . S
C445 H460 0.929 . S
C446 C445 1.362 . S
C446 C447 1.366 . S
C447 C444 1.365 . S
C447 C446 1.366 . S
C447 H461 0.930 . S
C448 C445 1.378 . S
C448 N449 1.315 . S
C448 H451 0.930 . S
N449 Co429 2.194 . S
N449 C444 1.328 . S
N449 C448 1.315 . S
H450 C444 0.929 . S
H451 C448 0.930 . S
H452 C440 0.929 . S
H453 C442 0.929 . S
O454 Co429 2.351 . S
O454 C457 1.244 . S
O455 Co429 2.155 . S
O455 C457 1.240 . S
O456 Co429 2.096 . S
O456 C437 1.247 . S
C457 O454 1.244 . S
C457 O455 1.240 . S
H458 C432 0.931 1_455 S
H459 C441 0.931 . S
H460 C445 0.929 . S
H461 C447 0.930 . S
Co462 N466 2.148 . S
Co462 N472 2.128 . S
Co462 N482 2.194 . S
Co462 O487 2.351 . S
Co462 O488 2.155 . S
Co462 O489 2.096 . S
C463 N466 1.301 . S
C463 N467 1.328 . S
C463 H468 0.930 . S
C464 C465 1.333 . S
C464 N466 1.317 . S
C464 H469 0.930 . S
C465 C464 1.333 . S
C465 N467 1.350 . S
C465 H491 0.931 1_565 S
N466 Co462 2.148 . S
N466 C463 1.301 . S
N466 C464 1.317 . S
N467 C463 1.328 . S
N467 C465 1.350 . S
H468 C463 0.930 . S
H469 C464 0.930 . S
C470 O471 1.224 . S
C470 O489 1.247 . S
O471 C470 1.224 . S
N472 Co462 2.128 . S
N472 C473 1.355 . S
N472 C475 1.311 . S
C473 N472 1.355 . S
C473 C474 1.363 . S
C473 H485 0.929 . S
C474 C473 1.363 . S
C474 N476 1.375 . S
C474 H492 0.931 . S
C475 N472 1.311 . S
C475 N476 1.347 . S
C475 H486 0.929 . S
N476 C474 1.375 . S
N476 C475 1.347 . S
C477 C480 1.365 . S
C477 N482 1.328 . S
C477 H483 0.929 . S
C478 C479 1.362 . S
C478 C481 1.378 . S
C478 H493 0.929 . S
C479 C478 1.362 . S
C479 C480 1.366 . S
C480 C477 1.365 . S
C480 C479 1.366 . S
C480 H494 0.930 . S
C481 C478 1.378 . S
C481 N482 1.315 . S
C481 H484 0.930 . S
N482 Co462 2.194 . S
N482 C477 1.328 . S
N482 C481 1.315 . S
H483 C477 0.929 . S
H484 C481 0.930 . S
H485 C473 0.929 . S
H486 C475 0.929 . S
O487 Co462 2.351 . S
O487 C490 1.244 . S
O488 Co462 2.155 . S
O488 C490 1.240 . S
O489 Co462 2.096 . S
O489 C470 1.247 . S
C490 O487 1.244 . S
C490 O488 1.240 . S
H491 C465 0.931 1_545 S
H492 C474 0.931 . S
H493 C478 0.929 . S
H494 C480 0.930 . S
Co495 N499 2.148 . S
Co495 N505 2.128 . S
Co495 N515 2.194 . S
Co495 O520 2.351 . S
Co495 O521 2.155 . S
Co495 O522 2.096 . S
C496 N499 1.301 . S
C496 N500 1.328 . S
C496 H501 0.930 . S
C497 C498 1.333 . S
C497 N499 1.317 . S
C497 H502 0.930 . S
C498 C497 1.333 . S
C498 N500 1.350 . S
C498 H524 0.931 . S
N499 Co495 2.148 . S
N499 C496 1.301 . S
N499 C497 1.317 . S
N500 C496 1.328 . S
N500 C498 1.350 . S
H501 C496 0.930 . S
H502 C497 0.930 . S
C503 O504 1.224 . S
C503 O522 1.247 . S
O504 C503 1.224 . S
N505 Co495 2.128 . S
N505 C506 1.355 . S
N505 C508 1.311 . S
C506 N505 1.355 . S
C506 C507 1.363 . S
C506 H518 0.929 . S
C507 C506 1.363 . S
C507 N509 1.375 . S
C507 H525 0.931 . S
C508 N505 1.311 . S
C508 N509 1.347 . S
C508 H519 0.929 . S
N509 C507 1.375 . S
N509 C508 1.347 . S
C510 C513 1.365 . S
C510 N515 1.328 . S
C510 H516 0.929 . S
C511 C512 1.362 . S
C511 C514 1.378 . S
C511 H526 0.929 . S
C512 C511 1.362 . S
C512 C513 1.366 . S
C513 C510 1.365 . S
C513 C512 1.366 . S
C513 H527 0.930 . S
C514 C511 1.378 . S
C514 N515 1.315 . S
C514 H517 0.930 . S
N515 Co495 2.194 . S
N515 C510 1.328 . S
N515 C514 1.315 . S
H516 C510 0.929 . S
H517 C514 0.930 . S
H518 C506 0.929 . S
H519 C508 0.929 . S
O520 Co495 2.351 . S
O520 C523 1.244 . S
O521 Co495 2.155 . S
O521 C523 1.240 . S
O522 Co495 2.096 . S
O522 C503 1.247 . S
C523 O520 1.244 . S
C523 O521 1.240 . S
H524 C498 0.931 . S
H525 C507 0.931 . S
H526 C511 0.929 . S
H527 C513 0.930 . S
C528 C529 1.391 . S
C528 C530 1.394 . S
C528 H544 0.931 . S
C529 C528 1.391 . S
C529 C533 1.376 . S
C530 C528 1.394 . S
C530 C531 1.369 . S
C530 C534 1.531 . S
C531 C530 1.369 . S
C531 C532 1.410 . S
C531 C539 1.503 . S
C532 C531 1.410 . S
C532 C533 1.392 . S
C532 C535 1.511 . S
C533 C529 1.376 . S
C533 C532 1.392 . S
C533 H545 0.929 . S
C534 C530 1.531 . S
C534 H546 0.960 . S
C534 H547 0.962 . S
C534 H548 0.960 . S
C535 C532 1.511 . S
C535 H549 0.961 . S
C535 H550 0.961 . S
C535 H551 0.961 . S
C536 C537 1.370 . S
C536 C538 1.363 . S
C536 H552 0.931 . S
C537 C536 1.370 . S
C537 C541 1.408 . S
C538 C536 1.363 . S
C538 C539 1.370 . S
C538 C542 1.524 . S
C539 C531 1.503 . S
C539 C538 1.370 . S
C539 C540 1.403 . S
C540 C539 1.403 . S
C540 C541 1.404 . S
C540 C543 1.539 . S
C541 C537 1.408 . S
C541 C540 1.404 . S
C541 H553 0.930 . S
C542 C538 1.524 . S
C542 H554 0.956 . S
C542 H555 0.961 . S
C542 H556 0.961 . S
C543 C540 1.539 . S
C543 H557 0.958 . S
C543 H558 0.961 . S
C543 H559 0.960 . S
H544 C528 0.931 . S
H545 C533 0.929 . S
H546 C534 0.960 . S
H547 C534 0.962 . S
H548 C534 0.960 . S
H549 C535 0.961 . S
H550 C535 0.961 . S
H551 C535 0.961 . S
H552 C536 0.931 . S
H553 C541 0.930 . S
H554 C542 0.956 . S
H555 C542 0.961 . S
H556 C542 0.961 . S
H557 C543 0.958 . S
H558 C543 0.961 . S
H559 C543 0.960 . S
C560 C561 1.391 . S
C560 C562 1.394 . S
C560 H576 0.931 . S
C561 C560 1.391 . S
C561 C565 1.376 . S
C562 C560 1.394 . S
C562 C563 1.369 . S
C562 C566 1.531 . S
C563 C562 1.369 . S
C563 C564 1.410 . S
C563 C571 1.503 . S
C564 C563 1.410 . S
C564 C565 1.392 . S
C564 C567 1.511 . S
C565 C561 1.376 . S
C565 C564 1.392 . S
C565 H577 0.929 . S
C566 C562 1.531 . S
C566 H578 0.960 . S
C566 H579 0.962 . S
C566 H580 0.960 . S
C567 C564 1.511 . S
C567 H581 0.961 . S
C567 H582 0.961 . S
C567 H583 0.961 . S
C568 C569 1.370 . S
C568 C570 1.363 . S
C568 H584 0.931 . S
C569 C568 1.370 . S
C569 C573 1.408 . S
C570 C568 1.363 . S
C570 C571 1.370 . S
C570 C574 1.524 . S
C571 C563 1.503 . S
C571 C570 1.370 . S
C571 C572 1.403 . S
C572 C571 1.403 . S
C572 C573 1.404 . S
C572 C575 1.539 . S
C573 C569 1.408 . S
C573 C572 1.404 . S
C573 H585 0.930 . S
C574 C570 1.524 . S
C574 H586 0.956 . S
C574 H587 0.961 . S
C574 H588 0.961 . S
C575 C572 1.539 . S
C575 H589 0.958 . S
C575 H590 0.961 . S
C575 H591 0.960 . S
H576 C560 0.931 . S
H577 C565 0.929 . S
H578 C566 0.960 . S
H579 C566 0.962 . S
H580 C566 0.960 . S
H581 C567 0.961 . S
H582 C567 0.961 . S
H583 C567 0.961 . S
H584 C568 0.931 . S
H585 C573 0.930 . S
H586 C574 0.956 . S
H587 C574 0.961 . S
H588 C574 0.961 . S
H589 C575 0.958 . S
H590 C575 0.961 . S
H591 C575 0.960 . S
C592 C593 1.391 . S
C592 C594 1.394 . S
C592 H608 0.931 . S
C593 C592 1.391 . S
C593 C597 1.376 . S
C594 C592 1.394 . S
C594 C595 1.369 . S
C594 C598 1.531 . S
C595 C594 1.369 . S
C595 C596 1.410 . S
C595 C603 1.503 . S
C596 C595 1.410 . S
C596 C597 1.392 . S
C596 C599 1.511 . S
C597 C593 1.376 . S
C597 C596 1.392 . S
C597 H609 0.929 . S
C598 C594 1.531 . S
C598 H610 0.960 . S
C598 H611 0.962 . S
C598 H612 0.960 . S
C599 C596 1.511 . S
C599 H613 0.961 . S
C599 H614 0.961 . S
C599 H615 0.961 . S
C600 C601 1.370 . S
C600 C602 1.363 . S
C600 H616 0.931 . S
C601 C600 1.370 . S
C601 C605 1.408 . S
C602 C600 1.363 . S
C602 C603 1.370 . S
C602 C606 1.524 . S
C603 C595 1.503 . S
C603 C602 1.370 . S
C603 C604 1.403 . S
C604 C603 1.403 . S
C604 C605 1.404 . S
C604 C607 1.539 . S
C605 C601 1.408 . S
C605 C604 1.404 . S
C605 H617 0.930 . S
C606 C602 1.524 . S
C606 H618 0.956 . S
C606 H619 0.961 . S
C606 H620 0.961 . S
C607 C604 1.539 . S
C607 H621 0.958 . S
C607 H622 0.961 . S
C607 H623 0.960 . S
H608 C592 0.931 . S
H609 C597 0.929 . S
H610 C598 0.960 . S
H611 C598 0.962 . S
H612 C598 0.960 . S
H613 C599 0.961 . S
H614 C599 0.961 . S
H615 C599 0.961 . S
H616 C600 0.931 . S
H617 C605 0.930 . S
H618 C606 0.956 . S
H619 C606 0.961 . S
H620 C606 0.961 . S
H621 C607 0.958 . S
H622 C607 0.961 . S
H623 C607 0.960 . S
C624 C625 1.391 . S
C624 C626 1.394 . S
C624 H640 0.931 . S
C625 C624 1.391 . S
C625 C629 1.376 . S
C626 C624 1.394 . S
C626 C627 1.369 . S
C626 C630 1.531 . S
C627 C626 1.369 . S
C627 C628 1.410 . S
C627 C635 1.503 . S
C628 C627 1.410 . S
C628 C629 1.392 . S
C628 C631 1.511 . S
C629 C625 1.376 . S
C629 C628 1.392 . S
C629 H641 0.929 . S
C630 C626 1.531 . S
C630 H642 0.960 . S
C630 H643 0.962 . S
C630 H644 0.960 . S
C631 C628 1.511 . S
C631 H645 0.961 . S
C631 H646 0.961 . S
C631 H647 0.961 . S
C632 C633 1.370 . S
C632 C634 1.363 . S
C632 H648 0.931 . S
C633 C632 1.370 . S
C633 C637 1.408 . S
C634 C632 1.363 . S
C634 C635 1.370 . S
C634 C638 1.524 . S
C635 C627 1.503 . S
C635 C634 1.370 . S
C635 C636 1.403 . S
C636 C635 1.403 . S
C636 C637 1.404 . S
C636 C639 1.539 . S
C637 C633 1.408 . S
C637 C636 1.404 . S
C637 H649 0.930 . S
C638 C634 1.524 . S
C638 H650 0.956 . S
C638 H651 0.961 . S
C638 H652 0.961 . S
C639 C636 1.539 . S
C639 H653 0.958 . S
C639 H654 0.961 . S
C639 H655 0.960 . S
H640 C624 0.931 . S
H641 C629 0.929 . S
H642 C630 0.960 . S
H643 C630 0.962 . S
H644 C630 0.960 . S
H645 C631 0.961 . S
H646 C631 0.961 . S
H647 C631 0.961 . S
H648 C632 0.931 . S
H649 C637 0.930 . S
H650 C638 0.956 . S
H651 C638 0.961 . S
H652 C638 0.961 . S
H653 C639 0.958 . S
H654 C639 0.961 . S
H655 C639 0.960 . S
C656 C657 1.391 . S
C656 C658 1.394 . S
C656 H672 0.931 . S
C657 C656 1.391 . S
C657 C661 1.376 . S
C658 C656 1.394 . S
C658 C659 1.369 . S
C658 C662 1.531 . S
C659 C658 1.369 . S
C659 C660 1.410 . S
C659 C667 1.503 . S
C660 C659 1.410 . S
C660 C661 1.392 . S
C660 C663 1.511 . S
C661 C657 1.376 . S
C661 C660 1.392 . S
C661 H673 0.929 . S
C662 C658 1.531 . S
C662 H674 0.960 . S
C662 H675 0.962 . S
C662 H676 0.960 . S
C663 C660 1.511 . S
C663 H677 0.961 . S
C663 H678 0.961 . S
C663 H679 0.961 . S
C664 C665 1.370 . S
C664 C666 1.363 . S
C664 H680 0.931 . S
C665 C664 1.370 . S
C665 C669 1.408 . S
C666 C664 1.363 . S
C666 C667 1.370 . S
C666 C670 1.524 . S
C667 C659 1.503 . S
C667 C666 1.370 . S
C667 C668 1.403 . S
C668 C667 1.403 . S
C668 C669 1.404 . S
C668 C671 1.539 . S
C669 C665 1.408 . S
C669 C668 1.404 . S
C669 H681 0.930 . S
C670 C666 1.524 . S
C670 H682 0.956 . S
C670 H683 0.961 . S
C670 H684 0.961 . S
C671 C668 1.539 . S
C671 H685 0.958 . S
C671 H686 0.961 . S
C671 H687 0.960 . S
H672 C656 0.931 . S
H673 C661 0.929 . S
H674 C662 0.960 . S
H675 C662 0.962 . S
H676 C662 0.960 . S
H677 C663 0.961 . S
H678 C663 0.961 . S
H679 C663 0.961 . S
H680 C664 0.931 . S
H681 C669 0.930 . S
H682 C670 0.956 . S
H683 C670 0.961 . S
H684 C670 0.961 . S
H685 C671 0.958 . S
H686 C671 0.961 . S
H687 C671 0.960 . S
C688 C689 1.391 . S
C688 C690 1.394 . S
C688 H704 0.931 . S
C689 C688 1.391 . S
C689 C693 1.376 . S
C690 C688 1.394 . S
C690 C691 1.369 . S
C690 C694 1.531 . S
C691 C690 1.369 . S
C691 C692 1.410 . S
C691 C699 1.503 . S
C692 C691 1.410 . S
C692 C693 1.392 . S
C692 C695 1.511 . S
C693 C689 1.376 . S
C693 C692 1.392 . S
C693 H705 0.929 . S
C694 C690 1.531 . S
C694 H706 0.960 . S
C694 H707 0.962 . S
C694 H708 0.960 . S
C695 C692 1.511 . S
C695 H709 0.961 . S
C695 H710 0.961 . S
C695 H711 0.961 . S
C696 C697 1.370 . S
C696 C698 1.363 . S
C696 H712 0.931 . S
C697 C696 1.370 . S
C697 C701 1.408 . S
C698 C696 1.363 . S
C698 C699 1.370 . S
C698 C702 1.524 . S
C699 C691 1.503 . S
C699 C698 1.370 . S
C699 C700 1.403 . S
C700 C699 1.403 . S
C700 C701 1.404 . S
C700 C703 1.539 . S
C701 C697 1.408 . S
C701 C700 1.404 . S
C701 H713 0.930 . S
C702 C698 1.524 . S
C702 H714 0.956 . S
C702 H715 0.961 . S
C702 H716 0.961 . S
C703 C700 1.539 . S
C703 H717 0.958 . S
C703 H718 0.961 . S
C703 H719 0.960 . S
H704 C688 0.931 . S
H705 C693 0.929 . S
H706 C694 0.960 . S
H707 C694 0.962 . S
H708 C694 0.960 . S
H709 C695 0.961 . S
H710 C695 0.961 . S
H711 C695 0.961 . S
H712 C696 0.931 . S
H713 C701 0.930 . S
H714 C702 0.956 . S
H715 C702 0.961 . S
H716 C702 0.961 . S
H717 C703 0.958 . S
H718 C703 0.961 . S
H719 C703 0.960 . S
C720 C721 1.391 . S
C720 C722 1.394 . S
C720 H736 0.931 . S
C721 C720 1.391 . S
C721 C725 1.376 . S
C722 C720 1.394 . S
C722 C723 1.369 . S
C722 C726 1.531 . S
C723 C722 1.369 . S
C723 C724 1.410 . S
C723 C731 1.503 . S
C724 C723 1.410 . S
C724 C725 1.392 . S
C724 C727 1.511 . S
C725 C721 1.376 . S
C725 C724 1.392 . S
C725 H737 0.929 . S
C726 C722 1.531 . S
C726 H738 0.960 . S
C726 H739 0.962 . S
C726 H740 0.960 . S
C727 C724 1.511 . S
C727 H741 0.961 . S
C727 H742 0.961 . S
C727 H743 0.961 . S
C728 C729 1.370 . S
C728 C730 1.363 . S
C728 H744 0.931 . S
C729 C728 1.370 . S
C729 C733 1.408 . S
C730 C728 1.363 . S
C730 C731 1.370 . S
C730 C734 1.524 . S
C731 C723 1.503 . S
C731 C730 1.370 . S
C731 C732 1.403 . S
C732 C731 1.403 . S
C732 C733 1.404 . S
C732 C735 1.539 . S
C733 C729 1.408 . S
C733 C732 1.404 . S
C733 H745 0.930 . S
C734 C730 1.524 . S
C734 H746 0.956 . S
C734 H747 0.961 . S
C734 H748 0.961 . S
C735 C732 1.539 . S
C735 H749 0.958 . S
C735 H750 0.961 . S
C735 H751 0.960 . S
H736 C720 0.931 . S
H737 C725 0.929 . S
H738 C726 0.960 . S
H739 C726 0.962 . S
H740 C726 0.960 . S
H741 C727 0.961 . S
H742 C727 0.961 . S
H743 C727 0.961 . S
H744 C728 0.931 . S
H745 C733 0.930 . S
H746 C734 0.956 . S
H747 C734 0.961 . S
H748 C734 0.961 . S
H749 C735 0.958 . S
H750 C735 0.961 . S
H751 C735 0.960 . S
C752 C753 1.391 . S
C752 C754 1.394 . S
C752 H768 0.931 . S
C753 C752 1.391 . S
C753 C757 1.376 . S
C754 C752 1.394 . S
C754 C755 1.369 . S
C754 C758 1.531 . S
C755 C754 1.369 . S
C755 C756 1.410 . S
C755 C763 1.503 . S
C756 C755 1.410 . S
C756 C757 1.392 . S
C756 C759 1.511 . S
C757 C753 1.376 . S
C757 C756 1.392 . S
C757 H769 0.929 . S
C758 C754 1.531 . S
C758 H770 0.960 . S
C758 H771 0.962 . S
C758 H772 0.960 . S
C759 C756 1.511 . S
C759 H773 0.961 . S
C759 H774 0.961 . S
C759 H775 0.961 . S
C760 C761 1.370 . S
C760 C762 1.363 . S
C760 H776 0.931 . S
C761 C760 1.370 . S
C761 C765 1.408 . S
C762 C760 1.363 . S
C762 C763 1.370 . S
C762 C766 1.524 . S
C763 C755 1.503 . S
C763 C762 1.370 . S
C763 C764 1.403 . S
C764 C763 1.403 . S
C764 C765 1.404 . S
C764 C767 1.539 . S
C765 C761 1.408 . S
C765 C764 1.404 . S
C765 H777 0.930 . S
C766 C762 1.524 . S
C766 H778 0.956 . S
C766 H779 0.961 . S
C766 H780 0.961 . S
C767 C764 1.539 . S
C767 H781 0.958 . S
C767 H782 0.961 1_655 S
C767 H783 0.960 . S
H768 C752 0.931 . S
H769 C757 0.929 . S
H770 C758 0.960 . S
H771 C758 0.962 . S
H772 C758 0.960 . S
H773 C759 0.961 . S
H774 C759 0.961 . S
H775 C759 0.961 . S
H776 C760 0.931 . S
H777 C765 0.930 . S
H778 C766 0.956 . S
H779 C766 0.961 . S
H780 C766 0.961 . S
H781 C767 0.958 . S
H782 C767 0.961 1_455 S
H783 C767 0.960 . S
C784 C785 1.391 1_545 S
C784 C786 1.394 . S
C784 H800 0.931 . S
C785 C784 1.391 1_565 S
C785 C789 1.376 . S
C786 C784 1.394 . S
C786 C787 1.369 1_545 S
C786 C790 1.531 1_556 S
C787 C786 1.369 1_565 S
C787 C788 1.410 . S
C787 C795 1.503 1_556 S
C788 C787 1.410 . S
C788 C789 1.392 . S
C788 C791 1.511 . S
C789 C785 1.376 . S
C789 C788 1.392 . S
C789 H801 0.929 . S
C790 C786 1.531 1_554 S
C790 H802 0.960 . S
C790 H803 0.962 . S
C790 H804 0.960 . S
C791 C788 1.511 . S
C791 H805 0.961 . S
C791 H806 0.961 . S
C791 H807 0.961 . S
C792 C793 1.370 . S
C792 C794 1.363 . S
C792 H808 0.931 . S
C793 C792 1.370 . S
C793 C797 1.408 1_545 S
C794 C792 1.363 . S
C794 C795 1.370 1_545 S
C794 C798 1.524 1_554 S
C795 C787 1.503 1_554 S
C795 C794 1.370 1_565 S
C795 C796 1.403 . S
C796 C795 1.403 . S
C796 C797 1.404 . S
C796 C799 1.539 . S
C797 C793 1.408 1_565 S
C797 C796 1.404 . S
C797 H809 0.930 . S
C798 C794 1.524 1_556 S
C798 H810 0.956 . S
C798 H811 0.961 . S
C798 H812 0.961 . S
C799 C796 1.539 . S
C799 H813 0.958 . S
C799 H814 0.961 . S
C799 H815 0.960 . S
H800 C784 0.931 . S
H801 C789 0.929 . S
H802 C790 0.960 . S
H803 C790 0.962 . S
H804 C790 0.960 . S
H805 C791 0.961 . S
H806 C791 0.961 . S
H807 C791 0.961 . S
H808 C792 0.931 . S
H809 C797 0.930 . S
H810 C798 0.956 . S
H811 C798 0.961 . S
H812 C798 0.961 . S
H813 C799 0.958 . S
H814 C799 0.961 . S
H815 C799 0.960 . S
C816 C817 1.391 . S
C816 C818 1.394 . S
C816 H832 0.931 . S
C817 C816 1.391 . S
C817 C821 1.376 . S
C818 C816 1.394 . S
C818 C819 1.369 . S
C818 C822 1.531 1_556 S
C819 C818 1.369 . S
C819 C820 1.410 . S
C819 C827 1.503 1_556 S
C820 C819 1.410 . S
C820 C821 1.392 . S
C820 C823 1.511 . S
C821 C817 1.376 . S
C821 C820 1.392 . S
C821 H833 0.929 . S
C822 C818 1.531 1_554 S
C822 H834 0.960 . S
C822 H835 0.962 1_554 S
C822 H836 0.960 . S
C823 C820 1.511 . S
C823 H837 0.961 . S
C823 H838 0.961 . S
C823 H839 0.961 1_556 S
C824 C825 1.370 . S
C824 C826 1.363 . S
C824 H840 0.931 . S
C825 C824 1.370 . S
C825 C829 1.408 . S
C826 C824 1.363 . S
C826 C827 1.370 . S
C826 C830 1.524 1_554 S
C827 C819 1.503 1_554 S
C827 C826 1.370 . S
C827 C828 1.403 . S
C828 C827 1.403 . S
C828 C829 1.404 . S
C828 C831 1.539 . S
C829 C825 1.408 . S
C829 C828 1.404 . S
C829 H841 0.930 . S
C830 C826 1.524 1_556 S
C830 H842 0.956 . S
C830 H843 0.961 . S
C830 H844 0.961 . S
C831 C828 1.539 . S
C831 H845 0.958 . S
C831 H846 0.961 . S
C831 H847 0.960 . S
H832 C816 0.931 . S
H833 C821 0.929 . S
H834 C822 0.960 . S
H835 C822 0.962 1_556 S
H836 C822 0.960 . S
H837 C823 0.961 . S
H838 C823 0.961 . S
H839 C823 0.961 1_554 S
H840 C824 0.931 . S
H841 C829 0.930 . S
H842 C830 0.956 . S
H843 C830 0.961 . S
H844 C830 0.961 . S
H845 C831 0.958 . S
H846 C831 0.961 . S
H847 C831 0.960 . S
C848 C849 1.391 . S
C848 C850 1.394 . S
C848 H864 0.931 . S
C849 C848 1.391 . S
C849 C853 1.376 . S
C850 C848 1.394 . S
C850 C851 1.369 . S
C850 C854 1.531 . S
C851 C850 1.369 . S
C851 C852 1.410 . S
C851 C859 1.503 1_456 S
C852 C851 1.410 . S
C852 C853 1.392 . S
C852 C855 1.511 1_556 S
C853 C849 1.376 . S
C853 C852 1.392 . S
C853 H865 0.929 . S
C854 C850 1.531 . S
C854 H866 0.924 1_556 S
C854 H867 0.962 1_455 S
C854 H868 0.960 . S
C855 C852 1.511 1_554 S
C855 H869 0.961 . S
C855 H870 0.961 . S
C855 H871 0.961 . S
C856 C857 1.370 . S
C856 C858 1.363 . S
C856 H872 0.931 . S
C857 C856 1.370 . S
C857 C861 1.408 . S
C858 C856 1.363 . S
C858 C859 1.370 . S
C858 C862 1.524 1_554 S
C859 C851 1.503 1_654 S
C859 C858 1.370 . S
C859 C860 1.403 . S
C860 C859 1.403 . S
C860 C861 1.404 . S
C860 C863 1.539 1_655 S
C861 C857 1.408 . S
C861 C860 1.404 . S
C861 H873 0.930 . S
C862 C858 1.524 1_556 S
C862 H874 0.956 . S
C862 H875 0.961 . S
C862 H876 0.961 . S
C863 C860 1.539 1_455 S
C863 H877 0.958 . S
C863 H878 0.961 . S
C863 H879 0.960 . S
H864 C848 0.931 . S
H865 C853 0.929 . S
H866 C854 0.924 1_554 S
H867 C854 0.962 1_655 S
H868 C854 0.960 . S
H869 C855 0.961 . S
H870 C855 0.961 . S
H871 C855 0.961 . S
H872 C856 0.931 . S
H873 C861 0.930 . S
H874 C862 0.956 . S
H875 C862 0.961 . S
H876 C862 0.961 . S
H877 C863 0.958 . S
H878 C863 0.961 . S
H879 C863 0.960 . S
C880 C881 1.391 1_455 S
C880 C882 1.409 . S
C880 H896 0.931 . S
C881 C880 1.391 1_655 S
C881 C885 1.376 . S
C882 C880 1.409 . S
C882 C883 1.374 1_455 S
C882 C886 1.510 1_556 S
C883 C882 1.374 1_655 S
C883 C884 1.410 . S
C883 C891 1.503 1_546 S
C884 C883 1.410 . S
C884 C885 1.392 . S
C884 C887 1.511 1_545 S
C885 C881 1.376 . S
C885 C884 1.392 . S
C885 H897 0.929 . S
C886 C882 1.510 1_554 S
C886 H898 0.960 . S
C886 H899 0.962 . S
C886 H900 0.960 . S
C887 C884 1.511 1_565 S
C887 H901 0.961 . S
C887 H902 0.961 . S
C887 H903 0.961 . S
C888 C889 1.370 . S
C888 C890 1.363 . S
C888 H904 0.931 . S
C889 C888 1.370 . S
C889 C893 1.408 1_455 S
C890 C888 1.363 . S
C890 C891 1.370 1_455 S
C890 C894 1.524 1_554 S
C891 C883 1.503 1_564 S
C891 C890 1.370 1_655 S
C891 C892 1.403 . S
C892 C891 1.403 . S
C892 C893 1.404 . S
C892 C895 1.539 1_565 S
C893 C889 1.408 1_655 S
C893 C892 1.404 . S
C893 H905 0.930 . S
C894 C890 1.524 1_556 S
C894 H906 0.956 . S
C894 H907 0.961 . S
C894 H908 0.961 . S
C895 C892 1.539 1_545 S
C895 H909 0.958 . S
C895 H910 0.961 1_545 S
C895 H911 0.960 . S
H896 C880 0.931 . S
H897 C885 0.929 . S
H898 C886 0.960 . S
H899 C886 0.962 . S
H900 C886 0.960 . S
H901 C887 0.961 . S
H902 C887 0.961 . S
H903 C887 0.961 . S
H904 C888 0.931 . S
H905 C893 0.930 . S
H906 C894 0.956 . S
H907 C894 0.961 . S
H908 C894 0.961 . S
H909 C895 0.958 . S
H910 C895 0.961 1_565 S
H911 C895 0.960 . S
C912 C913 1.391 . S
C912 C914 1.394 . S
C912 H928 0.931 . S
C913 C912 1.391 . S
C913 C917 1.376 . S
C914 C912 1.394 . S
C914 C915 1.369 . S
C914 C918 1.531 . S
C915 C914 1.369 . S
C915 C916 1.410 . S
C915 C923 1.503 . S
C916 C915 1.410 . S
C916 C917 1.392 . S
C916 C919 1.511 . S
C917 C913 1.376 . S
C917 C916 1.392 . S
C917 H929 0.929 . S
C918 C914 1.531 . S
C918 H930 0.960 . S
C918 H931 0.962 . S
C918 H932 0.960 . S
C919 C916 1.511 . S
C919 H933 0.961 . S
C919 H934 0.961 . S
C919 H935 0.961 . S
C920 C921 1.370 . S
C920 C922 1.363 . S
C920 H936 0.931 . S
C921 C920 1.370 . S
C921 C925 1.408 . S
C922 C920 1.363 . S
C922 C923 1.370 . S
C922 C926 1.524 . S
C923 C915 1.503 . S
C923 C922 1.370 . S
C923 C924 1.403 . S
C924 C923 1.403 . S
C924 C925 1.404 . S
C924 C927 1.539 . S
C925 C921 1.408 . S
C925 C924 1.404 . S
C925 H937 0.930 . S
C926 C922 1.524 . S
C926 H938 0.956 . S
C926 H939 0.961 . S
C926 H940 0.961 . S
C927 C924 1.539 . S
C927 H941 0.958 . S
C927 H942 0.961 . S
C927 H943 0.960 . S
H928 C912 0.931 . S
H929 C917 0.929 . S
H930 C918 0.960 . S
H931 C918 0.962 . S
H932 C918 0.960 . S
H933 C919 0.961 . S
H934 C919 0.961 . S
H935 C919 0.961 . S
H936 C920 0.931 . S
H937 C925 0.930 . S
H938 C926 0.956 . S
H939 C926 0.961 . S
H940 C926 0.961 . S
H941 C927 0.958 . S
H942 C927 0.961 . S
H943 C927 0.960 . S
C944 C945 1.391 . S
C944 C946 1.394 . S
C944 H960 0.931 . S
C945 C944 1.391 . S
C945 C949 1.376 1_655 S
C946 C944 1.394 . S
C946 C947 1.369 . S
C946 C950 1.531 . S
C947 C946 1.369 . S
C947 C948 1.410 1_655 S
C947 C955 1.503 . S
C948 C947 1.410 1_455 S
C948 C949 1.392 . S
C948 C951 1.511 . S
C949 C945 1.376 1_455 S
C949 C948 1.392 . S
C949 H961 0.929 . S
C950 C946 1.531 . S
C950 H962 0.960 . S
C950 H963 0.962 . S
C950 H964 0.960 . S
C951 C948 1.511 . S
C951 H965 0.961 . S
C951 H966 0.961 . S
C951 H967 0.961 . S
C952 C953 1.370 . S
C952 C954 1.363 . S
C952 H968 0.931 . S
C953 C952 1.370 . S
C953 C957 1.408 1_455 S
C954 C952 1.363 . S
C954 C955 1.370 1_455 S
C954 C958 1.524 . S
C955 C947 1.503 . S
C955 C954 1.370 1_655 S
C955 C956 1.403 . S
C956 C955 1.403 . S
C956 C957 1.404 . S
C956 C959 1.539 . S
C957 C953 1.408 1_655 S
C957 C956 1.404 . S
C957 H969 0.930 . S
C958 C954 1.524 . S
C958 H970 0.956 . S
C958 H971 0.961 . S
C958 H972 0.961 . S
C959 C956 1.539 . S
C959 H973 0.958 . S
C959 H974 0.961 . S
C959 H975 0.960 . S
H960 C944 0.931 . S
H961 C949 0.929 . S
H962 C950 0.960 . S
H963 C950 0.962 . S
H964 C950 0.960 . S
H965 C951 0.961 . S
H966 C951 0.961 . S
H967 C951 0.961 . S
H968 C952 0.931 . S
H969 C957 0.930 . S
H970 C958 0.956 . S
H971 C958 0.961 . S
H972 C958 0.961 . S
H973 C959 0.958 . S
H974 C959 0.961 . S
H975 C959 0.960 . S
C976 C977 1.391 1_565 S
C976 C978 1.394 . S
C976 H992 0.931 . S
C977 C976 1.391 1_545 S
C977 C981 1.376 . S
C978 C976 1.394 . S
C978 C979 1.369 . S
C978 C982 1.531 . S
C979 C978 1.369 . S
C979 C980 1.410 1_565 S
C979 C987 1.503 1_655 S
C980 C979 1.410 1_545 S
C980 C981 1.392 . S
C980 C983 1.511 1_655 S
C981 C977 1.376 . S
C981 C980 1.392 . S
C981 H993 0.929 . S
C982 C978 1.531 . S
C982 H994 0.960 . S
C982 H995 0.962 . S
C982 H996 0.960 . S
C983 C980 1.511 1_455 S
C983 H997 0.961 . S
C983 H998 0.961 . S
C983 H999 0.983 . S
C984 C985 1.370 1_545 S
C984 C986 1.363 . S
C984 H1000 0.931 . S
C985 C984 1.370 1_565 S
C985 C989 1.408 . S
C986 C984 1.363 . S
C986 C987 1.370 1_545 S
C986 C990 1.522 1_455 S
C987 C979 1.503 1_455 S
C987 C986 1.370 1_565 S
C987 C988 1.403 . S
C988 C987 1.403 . S
C988 C989 1.404 . S
C988 C991 1.539 . S
C989 C985 1.408 . S
C989 C988 1.404 . S
C989 H1001 0.930 . S
C990 C986 1.522 1_655 S
C990 H1002 0.959 . S
C990 H1003 0.961 . S
C990 H1004 0.959 1_655 S
C991 C988 1.539 . S
C991 H1005 0.958 . S
C991 H1006 0.961 . S
C991 H1007 0.960 . S
H992 C976 0.931 . S
H993 C981 0.929 . S
H994 C982 0.960 . S
H995 C982 0.962 . S
H996 C982 0.960 . S
H997 C983 0.961 . S
H998 C983 0.961 . S
H999 C983 0.983 . S
H1000 C984 0.931 . S
H1001 C989 0.930 . S
H1002 C990 0.959 . S
H1003 C990 0.961 . S
H1004 C990 0.959 1_455 S
H1005 C991 0.958 . S
H1006 C991 0.961 . S
H1007 C991 0.960 . S
C1008 C1009 1.391 . S
C1008 C1010 1.394 . S
C1008 H1024 0.931 . S
C1009 C1008 1.391 . S
C1009 C1013 1.376 . S
C1010 C1008 1.394 . S
C1010 C1011 1.369 . S
C1010 C1014 1.531 . S
C1011 C1010 1.369 . S
C1011 C1012 1.410 . S
C1011 C1019 1.503 1_565 S
C1012 C1011 1.410 . S
C1012 C1013 1.392 . S
C1012 C1015 1.511 1_565 S
C1013 C1009 1.376 . S
C1013 C1012 1.392 . S
C1013 H1025 0.929 . S
C1014 C1010 1.531 . S
C1014 H1026 0.960 . S
C1014 H1027 0.962 . S
C1014 H1028 0.960 . S
C1015 C1012 1.511 1_545 S
C1015 H1029 0.961 . S
C1015 H1030 0.961 . S
C1015 H1031 0.961 . S
C1016 C1017 1.370 . S
C1016 C1018 1.363 . S
C1016 H1032 0.931 . S
C1017 C1016 1.370 . S
C1017 C1021 1.408 . S
C1018 C1016 1.363 . S
C1018 C1019 1.370 . S
C1018 C1022 1.524 . S
C1019 C1011 1.503 1_545 S
C1019 C1018 1.370 . S
C1019 C1020 1.403 . S
C1020 C1019 1.403 . S
C1020 C1021 1.404 . S
C1020 C1023 1.539 1_545 S
C1021 C1017 1.408 . S
C1021 C1020 1.404 . S
C1021 H1033 0.930 . S
C1022 C1018 1.524 . S
C1022 H1034 0.956 . S
C1022 H1035 0.961 . S
C1022 H1036 0.961 . S
C1023 C1020 1.539 1_565 S
C1023 H1037 0.958 . S
C1023 H1038 0.961 . S
C1023 H1039 0.960 . S
H1024 C1008 0.931 . S
H1025 C1013 0.929 . S
H1026 C1014 0.960 . S
H1027 C1014 0.962 . S
H1028 C1014 0.960 . S
H1029 C1015 0.961 . S
H1030 C1015 0.961 . S
H1031 C1015 0.961 . S
H1032 C1016 0.931 . S
H1033 C1021 0.930 . S
H1034 C1022 0.956 . S
H1035 C1022 0.961 . S
H1036 C1022 0.961 . S
H1037 C1023 0.958 . S
H1038 C1023 0.961 . S
H1039 C1023 0.960 . S
C1040 C1041 1.391 . S
C1040 C1042 1.394 1_556 S
C1040 H1056 0.931 . S
C1041 C1040 1.391 . S
C1041 C1045 1.376 . S
C1042 C1040 1.394 1_554 S
C1042 C1043 1.369 . S
C1042 C1046 1.531 . S
C1043 C1042 1.369 . S
C1043 C1044 1.410 1_554 S
C1043 C1051 1.503 . S
C1044 C1043 1.410 1_556 S
C1044 C1045 1.392 . S
C1044 C1047 1.511 . S
C1045 C1041 1.376 . S
C1045 C1044 1.392 . S
C1045 H1057 0.929 . S
C1046 C1042 1.531 . S
C1046 H1058 0.960 . S
C1046 H1059 0.962 . S
C1046 H1060 0.960 . S
C1047 C1044 1.511 . S
C1047 H1061 0.961 . S
C1047 H1062 0.961 . S
C1047 H1063 0.961 . S
C1048 C1049 1.370 . S
C1048 C1050 1.363 . S
C1048 H1064 0.931 . S
C1049 C1048 1.370 . S
C1049 C1053 1.408 . S
C1050 C1048 1.363 . S
C1050 C1051 1.370 . S
C1050 C1054 1.524 . S
C1051 C1043 1.503 . S
C1051 C1050 1.370 . S
C1051 C1052 1.403 . S
C1052 C1051 1.403 . S
C1052 C1053 1.404 . S
C1052 C1055 1.539 1_554 S
C1053 C1049 1.408 . S
C1053 C1052 1.404 . S
C1053 H1065 0.930 . S
C1054 C1050 1.524 . S
C1054 H1066 0.956 . S
C1054 H1067 0.961 . S
C1054 H1068 0.961 . S
C1055 C1052 1.539 1_556 S
C1055 H1069 0.959 . S
C1055 H1070 0.961 . S
C1055 H1071 0.960 . S
H1056 C1040 0.931 . S
H1057 C1045 0.929 . S
H1058 C1046 0.960 . S
H1059 C1046 0.962 . S
H1060 C1046 0.960 . S
H1061 C1047 0.961 . S
H1062 C1047 0.961 . S
H1063 C1047 0.961 . S
H1064 C1048 0.931 . S
H1065 C1053 0.930 . S
H1066 C1054 0.956 . S
H1067 C1054 0.961 . S
H1068 C1054 0.961 . S
H1069 C1055 0.959 . S
H1070 C1055 0.961 . S
H1071 C1055 0.960 . S
C1072 C1073 1.391 . S
C1072 C1074 1.394 1_556 S
C1072 H1088 0.931 1_556 S
C1073 C1072 1.391 . S
C1073 C1077 1.376 . S
C1074 C1072 1.394 1_554 S
C1074 C1075 1.369 . S
C1074 C1078 1.531 . S
C1075 C1074 1.369 . S
C1075 C1076 1.410 1_554 S
C1075 C1083 1.503 . S
C1076 C1075 1.410 1_556 S
C1076 C1077 1.392 . S
C1076 C1079 1.511 . S
C1077 C1073 1.376 . S
C1077 C1076 1.392 . S
C1077 H1089 0.929 . S
C1078 C1074 1.531 . S
C1078 H1090 0.960 . S
C1078 H1091 0.962 . S
C1078 H1092 0.960 . S
C1079 C1076 1.511 . S
C1079 H1093 0.961 . S
C1079 H1094 0.961 . S
C1079 H1095 0.961 . S
C1080 C1081 1.370 . S
C1080 C1082 1.363 . S
C1080 H1096 0.931 . S
C1081 C1080 1.370 . S
C1081 C1085 1.408 . S
C1082 C1080 1.363 . S
C1082 C1083 1.370 . S
C1082 C1086 1.524 . S
C1083 C1075 1.503 . S
C1083 C1082 1.370 . S
C1083 C1084 1.403 . S
C1084 C1083 1.403 . S
C1084 C1085 1.404 . S
C1084 C1087 1.539 . S
C1085 C1081 1.408 . S
C1085 C1084 1.404 . S
C1085 H1097 0.930 . S
C1086 C1082 1.524 . S
C1086 H1098 0.956 . S
C1086 H1099 0.961 . S
C1086 H1100 0.961 . S
C1087 C1084 1.539 . S
C1087 H1101 0.958 . S
C1087 H1102 0.961 . S
C1087 H1103 0.960 . S
H1088 C1072 0.931 1_554 S
H1089 C1077 0.929 . S
H1090 C1078 0.960 . S
H1091 C1078 0.962 . S
H1092 C1078 0.960 . S
H1093 C1079 0.961 . S
H1094 C1079 0.961 . S
H1095 C1079 0.961 . S
H1096 C1080 0.931 . S
H1097 C1085 0.930 . S
H1098 C1086 0.956 . S
H1099 C1086 0.961 . S
H1100 C1086 0.961 . S
H1101 C1087 0.958 . S
H1102 C1087 0.961 . S
H1103 C1087 0.960 . S
C1104 C1105 1.391 . S
C1104 C1106 1.394 . S
C1104 H1120 0.931 . S
C1105 C1104 1.391 . S
C1105 C1109 1.376 . S
C1106 C1104 1.394 . S
C1106 C1107 1.369 1_556 S
C1106 C1110 1.531 1_556 S
C1107 C1106 1.369 1_554 S
C1107 C1108 1.410 1_554 S
C1107 C1115 1.503 . S
C1108 C1107 1.410 1_556 S
C1108 C1109 1.392 . S
C1108 C1111 1.511 . S
C1109 C1105 1.376 . S
C1109 C1108 1.392 . S
C1109 H1121 0.929 . S
C1110 C1106 1.531 1_554 S
C1110 H1122 0.960 . S
C1110 H1123 0.962 . S
C1110 H1124 0.960 1_554 S
C1111 C1108 1.511 . S
C1111 H1125 0.961 . S
C1111 H1126 0.961 1_556 S
C1111 H1127 0.961 . S
C1112 C1113 1.370 . S
C1112 C1114 1.363 . S
C1112 H1128 0.931 . S
C1113 C1112 1.370 . S
C1113 C1117 1.408 . S
C1114 C1112 1.363 . S
C1114 C1115 1.370 . S
C1114 C1118 1.524 . S
C1115 C1107 1.503 . S
C1115 C1114 1.370 . S
C1115 C1116 1.403 . S
C1116 C1115 1.403 . S
C1116 C1117 1.404 . S
C1116 C1119 1.539 1_554 S
C1117 C1113 1.408 . S
C1117 C1116 1.404 . S
C1117 H1129 0.930 . S
C1118 C1114 1.524 . S
C1118 H1130 0.956 . S
C1118 H1131 0.961 . S
C1118 H1132 0.961 . S
C1119 C1116 1.539 1_556 S
C1119 H1133 0.958 . S
C1119 H1134 0.961 . S
C1119 H1135 0.960 . S
H1120 C1104 0.931 . S
H1121 C1109 0.929 . S
H1122 C1110 0.960 . S
H1123 C1110 0.962 . S
H1124 C1110 0.960 1_556 S
H1125 C1111 0.961 . S
H1126 C1111 0.961 1_554 S
H1127 C1111 0.961 . S
H1128 C1112 0.931 . S
H1129 C1117 0.930 . S
H1130 C1118 0.956 . S
H1131 C1118 0.961 . S
H1132 C1118 0.961 . S
H1133 C1119 0.958 . S
H1134 C1119 0.961 . S
H1135 C1119 0.960 . S
C1136 C1137 1.391 . S
C1136 C1138 1.394 . S
C1136 H1152 0.931 . S
C1137 C1136 1.391 . S
C1137 C1141 1.376 . S
C1138 C1136 1.394 . S
C1138 C1139 1.369 1_556 S
C1138 C1142 1.531 . S
C1139 C1138 1.369 1_554 S
C1139 C1140 1.410 . S
C1139 C1147 1.503 . S
C1140 C1139 1.410 . S
C1140 C1141 1.392 1_554 S
C1140 C1143 1.511 . S
C1141 C1137 1.376 . S
C1141 C1140 1.392 1_556 S
C1141 H1153 0.923 1_556 S
C1142 C1138 1.531 . S
C1142 H1154 0.960 . S
C1142 H1155 0.962 . S
C1142 H1156 0.960 . S
C1143 C1140 1.511 . S
C1143 H1157 0.961 . S
C1143 H1158 0.961 . S
C1143 H1159 0.961 . S
C1144 C1145 1.370 . S
C1144 C1146 1.363 . S
C1144 H1160 0.931 . S
C1145 C1144 1.370 . S
C1145 C1149 1.408 . S
C1146 C1144 1.363 . S
C1146 C1147 1.370 . S
C1146 C1150 1.524 . S
C1147 C1139 1.503 . S
C1147 C1146 1.370 . S
C1147 C1148 1.403 . S
C1148 C1147 1.403 . S
C1148 C1149 1.404 . S
C1148 C1151 1.539 . S
C1149 C1145 1.408 . S
C1149 C1148 1.404 . S
C1149 H1161 0.930 . S
C1150 C1146 1.524 . S
C1150 H1162 0.956 . S
C1150 H1163 0.961 . S
C1150 H1164 0.961 . S
C1151 C1148 1.539 . S
C1151 H1165 0.958 1_554 S
C1151 H1166 0.961 . S
C1151 H1167 0.960 . S
H1152 C1136 0.931 . S
H1153 C1141 0.923 1_554 S
H1154 C1142 0.960 . S
H1155 C1142 0.962 . S
H1156 C1142 0.960 . S
H1157 C1143 0.961 . S
H1158 C1143 0.961 . S
H1159 C1143 0.961 . S
H1160 C1144 0.931 . S
H1161 C1149 0.930 . S
H1162 C1150 0.956 . S
H1163 C1150 0.961 . S
H1164 C1150 0.961 . S
H1165 C1151 0.958 1_556 S
H1166 C1151 0.961 . S
H1167 C1151 0.960 . S
C1168 C1169 1.391 . S
C1168 C1170 1.394 . S
C1168 H1184 0.931 . S
C1169 C1168 1.391 . S
C1169 C1173 1.376 . S
C1170 C1168 1.394 . S
C1170 C1171 1.369 . S
C1170 C1174 1.531 . S
C1171 C1170 1.369 . S
C1171 C1172 1.410 . S
C1171 C1179 1.503 . S
C1172 C1171 1.410 . S
C1172 C1173 1.392 . S
C1172 C1175 1.511 . S
C1173 C1169 1.376 . S
C1173 C1172 1.392 . S
C1173 H1185 0.929 . S
C1174 C1170 1.531 . S
C1174 H1186 0.960 . S
C1174 H1187 0.962 . S
C1174 H1188 0.960 . S
C1175 C1172 1.511 . S
C1175 H1189 0.961 . S
C1175 H1190 0.961 . S
C1175 H1191 0.961 . S
C1176 C1177 1.370 . S
C1176 C1178 1.363 . S
C1176 H1192 0.931 . S
C1177 C1176 1.370 . S
C1177 C1181 1.408 . S
C1178 C1176 1.363 . S
C1178 C1179 1.370 . S
C1178 C1182 1.524 . S
C1179 C1171 1.503 . S
C1179 C1178 1.370 . S
C1179 C1180 1.403 . S
C1180 C1179 1.403 . S
C1180 C1181 1.404 . S
C1180 C1183 1.539 . S
C1181 C1177 1.408 . S
C1181 C1180 1.404 . S
C1181 H1193 0.930 . S
C1182 C1178 1.524 . S
C1182 H1194 0.956 . S
C1182 H1195 0.961 . S
C1182 H1196 0.961 . S
C1183 C1180 1.539 . S
C1183 H1197 0.958 . S
C1183 H1198 0.961 . S
C1183 H1199 0.960 . S
H1184 C1168 0.931 . S
H1185 C1173 0.929 . S
H1186 C1174 0.960 . S
H1187 C1174 0.962 . S
H1188 C1174 0.960 . S
H1189 C1175 0.961 . S
H1190 C1175 0.961 . S
H1191 C1175 0.961 . S
H1192 C1176 0.931 . S
H1193 C1181 0.930 . S
H1194 C1182 0.956 . S
H1195 C1182 0.961 . S
H1196 C1182 0.961 . S
H1197 C1183 0.958 . S
H1198 C1183 0.961 . S
H1199 C1183 0.960 . S
C1200 C1201 1.391 . S
C1200 C1202 1.394 . S
C1200 H1216 0.931 . S
C1201 C1200 1.391 . S
C1201 C1205 1.376 . S
C1202 C1200 1.394 . S
C1202 C1203 1.369 . S
C1202 C1206 1.531 . S
C1203 C1202 1.369 . S
C1203 C1204 1.410 . S
C1203 C1211 1.503 . S
C1204 C1203 1.410 . S
C1204 C1205 1.392 . S
C1204 C1207 1.511 . S
C1205 C1201 1.376 . S
C1205 C1204 1.392 . S
C1205 H1217 0.929 . S
C1206 C1202 1.531 . S
C1206 H1218 0.960 . S
C1206 H1219 0.962 . S
C1206 H1220 0.960 . S
C1207 C1204 1.511 . S
C1207 H1221 0.961 . S
C1207 H1222 0.961 . S
C1207 H1223 0.961 . S
C1208 C1209 1.370 . S
C1208 C1210 1.363 . S
C1208 H1224 0.931 . S
C1209 C1208 1.370 . S
C1209 C1213 1.408 . S
C1210 C1208 1.363 . S
C1210 C1211 1.370 . S
C1210 C1214 1.524 . S
C1211 C1203 1.503 . S
C1211 C1210 1.370 . S
C1211 C1212 1.403 . S
C1212 C1211 1.403 . S
C1212 C1213 1.404 . S
C1212 C1215 1.539 . S
C1213 C1209 1.408 . S
C1213 C1212 1.404 . S
C1213 H1225 0.930 . S
C1214 C1210 1.524 . S
C1214 H1226 0.956 . S
C1214 H1227 0.961 . S
C1214 H1228 0.961 . S
C1215 C1212 1.539 . S
C1215 H1229 0.958 . S
C1215 H1230 0.961 . S
C1215 H1231 0.960 . S
H1216 C1200 0.931 . S
H1217 C1205 0.929 . S
H1218 C1206 0.960 . S
H1219 C1206 0.962 . S
H1220 C1206 0.960 . S
H1221 C1207 0.961 . S
H1222 C1207 0.961 . S
H1223 C1207 0.961 . S
H1224 C1208 0.931 . S
H1225 C1213 0.930 . S
H1226 C1214 0.956 . S
H1227 C1214 0.961 . S
H1228 C1214 0.961 . S
H1229 C1215 0.958 . S
H1230 C1215 0.961 . S
H1231 C1215 0.960 . S
C1232 C1233 1.391 . S
C1232 C1234 1.394 . S
C1232 H1248 0.931 . S
C1233 C1232 1.391 . S
C1233 C1237 1.376 . S
C1234 C1232 1.394 . S
C1234 C1235 1.369 . S
C1234 C1238 1.531 . S
C1235 C1234 1.369 . S
C1235 C1236 1.410 . S
C1235 C1243 1.503 . S
C1236 C1235 1.410 . S
C1236 C1237 1.392 . S
C1236 C1239 1.511 . S
C1237 C1233 1.376 . S
C1237 C1236 1.392 . S
C1237 H1249 0.929 . S
C1238 C1234 1.531 . S
C1238 H1250 0.960 . S
C1238 H1251 0.962 . S
C1238 H1252 0.960 . S
C1239 C1236 1.511 . S
C1239 H1253 0.961 . S
C1239 H1254 0.961 . S
C1239 H1255 0.961 . S
C1240 C1241 1.370 . S
C1240 C1242 1.363 . S
C1240 H1256 0.931 . S
C1241 C1240 1.370 . S
C1241 C1245 1.408 . S
C1242 C1240 1.363 . S
C1242 C1243 1.370 . S
C1242 C1246 1.524 . S
C1243 C1235 1.503 . S
C1243 C1242 1.370 . S
C1243 C1244 1.403 . S
C1244 C1243 1.403 . S
C1244 C1245 1.404 . S
C1244 C1247 1.539 . S
C1245 C1241 1.408 . S
C1245 C1244 1.404 . S
C1245 H1257 0.930 . S
C1246 C1242 1.524 . S
C1246 H1258 0.956 . S
C1246 H1259 0.961 . S
C1246 H1260 0.961 . S
C1247 C1244 1.539 . S
C1247 H1261 0.958 . S
C1247 H1262 0.961 . S
C1247 H1263 0.960 . S
H1248 C1232 0.931 . S
H1249 C1237 0.929 . S
H1250 C1238 0.960 . S
H1251 C1238 0.962 . S
H1252 C1238 0.960 . S
H1253 C1239 0.961 . S
H1254 C1239 0.961 . S
H1255 C1239 0.961 . S
H1256 C1240 0.931 . S
H1257 C1245 0.930 . S
H1258 C1246 0.956 . S
H1259 C1246 0.961 . S
H1260 C1246 0.961 . S
H1261 C1247 0.958 . S
H1262 C1247 0.961 . S
H1263 C1247 0.960 . S
C1264 C1265 1.391 . S
C1264 C1266 1.394 . S
C1264 H1280 0.931 . S
C1265 C1264 1.391 . S
C1265 C1269 1.376 . S
C1266 C1264 1.394 . S
C1266 C1267 1.369 . S
C1266 C1270 1.531 . S
C1267 C1266 1.369 . S
C1267 C1268 1.410 . S
C1267 C1275 1.503 . S
C1268 C1267 1.410 . S
C1268 C1269 1.392 . S
C1268 C1271 1.511 . S
C1269 C1265 1.376 . S
C1269 C1268 1.392 . S
C1269 H1281 0.929 . S
C1270 C1266 1.531 . S
C1270 H1282 0.960 . S
C1270 H1283 0.962 . S
C1270 H1284 0.960 . S
C1271 C1268 1.511 . S
C1271 H1285 0.961 . S
C1271 H1286 0.961 . S
C1271 H1287 0.961 . S
C1272 C1273 1.370 . S
C1272 C1274 1.363 . S
C1272 H1288 0.931 . S
C1273 C1272 1.370 . S
C1273 C1277 1.408 . S
C1274 C1272 1.363 . S
C1274 C1275 1.370 . S
C1274 C1278 1.524 . S
C1275 C1267 1.503 . S
C1275 C1274 1.370 . S
C1275 C1276 1.403 . S
C1276 C1275 1.403 . S
C1276 C1277 1.404 . S
C1276 C1279 1.539 . S
C1277 C1273 1.408 . S
C1277 C1276 1.404 . S
C1277 H1289 0.930 . S
C1278 C1274 1.524 . S
C1278 H1290 0.956 . S
C1278 H1291 0.961 . S
C1278 H1292 0.961 . S
C1279 C1276 1.539 . S
C1279 H1293 0.958 . S
C1279 H1294 0.961 . S
C1279 H1295 0.960 . S
H1280 C1264 0.931 . S
H1281 C1269 0.929 . S
H1282 C1270 0.960 . S
H1283 C1270 0.962 . S
H1284 C1270 0.960 . S
H1285 C1271 0.961 . S
H1286 C1271 0.961 . S
H1287 C1271 0.961 . S
H1288 C1272 0.931 . S
H1289 C1277 0.930 . S
H1290 C1278 0.956 . S
H1291 C1278 0.961 . S
H1292 C1278 0.961 . S
H1293 C1279 0.958 . S
H1294 C1279 0.961 . S
H1295 C1279 0.960 . S
C1296 C1297 1.391 . S
C1296 C1298 1.394 . S
C1296 H1312 0.931 . S
C1297 C1296 1.391 . S
C1297 C1301 1.376 . S
C1298 C1296 1.394 . S
C1298 C1299 1.369 1_554 S
C1298 C1302 1.531 . S
C1299 C1298 1.369 1_556 S
C1299 C1300 1.410 . S
C1299 C1307 1.503 . S
C1300 C1299 1.410 . S
C1300 C1301 1.392 1_556 S
C1300 C1303 1.511 . S
C1301 C1297 1.376 . S
C1301 C1300 1.392 1_554 S
C1301 H1313 0.929 1_554 S
C1302 C1298 1.531 . S
C1302 H1314 0.960 . S
C1302 H1315 0.962 . S
C1302 H1316 0.960 . S
C1303 C1300 1.511 . S
C1303 H1317 0.961 . S
C1303 H1318 0.961 . S
C1303 H1319 0.961 . S
C1304 C1305 1.370 . S
C1304 C1306 1.363 . S
C1304 H1320 0.931 . S
C1305 C1304 1.370 . S
C1305 C1309 1.408 . S
C1306 C1304 1.363 . S
C1306 C1307 1.370 . S
C1306 C1310 1.524 . S
C1307 C1299 1.503 . S
C1307 C1306 1.370 . S
C1307 C1308 1.403 . S
C1308 C1307 1.403 . S
C1308 C1309 1.404 . S
C1308 C1311 1.539 . S
C1309 C1305 1.408 . S
C1309 C1308 1.404 . S
C1309 H1321 0.930 . S
C1310 C1306 1.524 . S
C1310 H1322 0.956 . S
C1310 H1323 0.961 . S
C1310 H1324 0.961 . S
C1311 C1308 1.539 . S
C1311 H1325 0.958 . S
C1311 H1326 0.961 . S
C1311 H1327 0.960 . S
H1312 C1296 0.931 . S
H1313 C1301 0.929 1_556 S
H1314 C1302 0.960 . S
H1315 C1302 0.962 . S
H1316 C1302 0.960 . S
H1317 C1303 0.961 . S
H1318 C1303 0.961 . S
H1319 C1303 0.961 . S
H1320 C1304 0.931 . S
H1321 C1309 0.930 . S
H1322 C1310 0.956 . S
H1323 C1310 0.961 . S
H1324 C1310 0.961 . S
H1325 C1311 0.958 . S
H1326 C1311 0.961 . S
H1327 C1311 0.960 . S
C1328 C1329 1.391 . S
C1328 C1330 1.394 . S
C1328 H1344 0.931 . S
C1329 C1328 1.391 . S
C1329 C1333 1.376 . S
C1330 C1328 1.394 . S
C1330 C1331 1.369 1_554 S
C1330 C1334 1.531 . S
C1331 C1330 1.369 1_556 S
C1331 C1332 1.410 . S
C1331 C1339 1.503 . S
C1332 C1331 1.410 . S
C1332 C1333 1.392 1_556 S
C1332 C1335 1.511 . S
C1333 C1329 1.376 . S
C1333 C1332 1.392 1_554 S
C1333 H1345 0.929 . S
C1334 C1330 1.531 . S
C1334 H1346 0.960 . S
C1334 H1347 0.950 1_554 S
C1334 H1348 0.960 . S
C1335 C1332 1.511 . S
C1335 H1349 0.961 . S
C1335 H1350 0.961 . S
C1335 H1351 0.961 . S
C1336 C1337 1.370 . S
C1336 C1338 1.363 . S
C1336 H1352 0.931 . S
C1337 C1336 1.370 . S
C1337 C1341 1.408 . S
C1338 C1336 1.363 . S
C1338 C1339 1.370 . S
C1338 C1342 1.524 . S
C1339 C1331 1.503 . S
C1339 C1338 1.370 . S
C1339 C1340 1.403 . S
C1340 C1339 1.403 . S
C1340 C1341 1.404 . S
C1340 C1343 1.539 1_556 S
C1341 C1337 1.408 . S
C1341 C1340 1.404 . S
C1341 H1353 0.930 . S
C1342 C1338 1.524 . S
C1342 H1354 0.956 . S
C1342 H1355 0.961 . S
C1342 H1356 0.961 . S
C1343 C1340 1.539 1_554 S
C1343 H1357 0.958 . S
C1343 H1358 0.961 . S
C1343 H1359 0.960 . S
H1344 C1328 0.931 . S
H1345 C1333 0.929 . S
H1346 C1334 0.960 . S
H1347 C1334 0.950 1_556 S
H1348 C1334 0.960 . S
H1349 C1335 0.961 . S
H1350 C1335 0.961 . S
H1351 C1335 0.961 . S
H1352 C1336 0.931 . S
H1353 C1341 0.930 . S
H1354 C1342 0.956 . S
H1355 C1342 0.961 . S
H1356 C1342 0.961 . S
H1357 C1343 0.958 . S
H1358 C1343 0.961 . S
H1359 C1343 0.960 . S
C1360 C1361 1.391 . S
C1360 C1362 1.394 . S
C1360 H1376 0.931 . S
C1361 C1360 1.391 . S
C1361 C1365 1.376 . S
C1362 C1360 1.394 . S
C1362 C1363 1.369 1_554 S
C1362 C1366 1.531 . S
C1363 C1362 1.369 1_556 S
C1363 C1364 1.410 . S
C1363 C1371 1.503 . S
C1364 C1363 1.410 . S
C1364 C1365 1.392 1_556 S
C1364 C1367 1.511 . S
C1365 C1361 1.376 . S
C1365 C1364 1.392 1_554 S
C1365 H1377 0.929 1_554 S
C1366 C1362 1.531 . S
C1366 H1378 0.960 . S
C1366 H1379 0.962 . S
C1366 H1380 0.960 . S
C1367 C1364 1.511 . S
C1367 H1381 0.961 . S
C1367 H1382 0.961 . S
C1367 H1383 0.961 . S
C1368 C1369 1.370 . S
C1368 C1370 1.363 . S
C1368 H1384 0.931 . S
C1369 C1368 1.370 . S
C1369 C1373 1.408 . S
C1370 C1368 1.363 . S
C1370 C1371 1.370 . S
C1370 C1374 1.524 . S
C1371 C1363 1.503 . S
C1371 C1370 1.370 . S
C1371 C1372 1.403 . S
C1372 C1371 1.403 . S
C1372 C1373 1.404 . S
C1372 C1375 1.539 . S
C1373 C1369 1.408 . S
C1373 C1372 1.404 . S
C1373 H1385 0.930 . S
C1374 C1370 1.524 . S
C1374 H1386 0.956 . S
C1374 H1387 0.961 . S
C1374 H1388 0.961 . S
C1375 C1372 1.539 . S
C1375 H1389 0.958 . S
C1375 H1390 0.961 . S
C1375 H1391 0.960 . S
H1376 C1360 0.931 . S
H1377 C1365 0.929 1_556 S
H1378 C1366 0.960 . S
H1379 C1366 0.962 . S
H1380 C1366 0.960 . S
H1381 C1367 0.961 . S
H1382 C1367 0.961 . S
H1383 C1367 0.961 . S
H1384 C1368 0.931 . S
H1385 C1373 0.930 . S
H1386 C1374 0.956 . S
H1387 C1374 0.961 . S
H1388 C1374 0.961 . S
H1389 C1375 0.958 . S
H1390 C1375 0.961 . S
H1391 C1375 0.960 . S
C1392 C1393 1.391 . S
C1392 C1394 1.394 1_554 S
C1392 H1408 0.931 . S
C1393 C1392 1.391 . S
C1393 C1397 1.376 . S
C1394 C1392 1.394 1_556 S
C1394 C1395 1.369 . S
C1394 C1398 1.531 . S
C1395 C1394 1.369 . S
C1395 C1396 1.410 1_556 S
C1395 C1403 1.503 . S
C1396 C1395 1.410 1_554 S
C1396 C1397 1.392 . S
C1396 C1399 1.511 . S
C1397 C1393 1.376 . S
C1397 C1396 1.392 . S
C1397 H1409 0.929 . S
C1398 C1394 1.531 . S
C1398 H1410 0.960 . S
C1398 H1411 0.962 . S
C1398 H1412 0.960 . S
C1399 C1396 1.511 . S
C1399 H1413 0.961 . S
C1399 H1414 0.961 1_554 S
C1399 H1415 0.961 . S
C1400 C1401 1.370 . S
C1400 C1402 1.363 . S
C1400 H1416 0.931 . S
C1401 C1400 1.370 . S
C1401 C1405 1.408 . S
C1402 C1400 1.363 . S
C1402 C1403 1.370 . S
C1402 C1406 1.524 . S
C1403 C1395 1.503 . S
C1403 C1402 1.370 . S
C1403 C1404 1.403 . S
C1404 C1403 1.403 . S
C1404 C1405 1.404 . S
C1404 C1407 1.539 1_556 S
C1405 C1401 1.408 . S
C1405 C1404 1.404 . S
C1405 H1417 0.930 . S
C1406 C1402 1.524 . S
C1406 H1418 0.956 . S
C1406 H1419 0.961 . S
C1406 H1420 0.961 . S
C1407 C1404 1.539 1_554 S
C1407 H1421 0.958 . S
C1407 H1422 0.961 . S
C1407 H1423 0.960 . S
H1408 C1392 0.931 . S
H1409 C1397 0.929 . S
H1410 C1398 0.960 . S
H1411 C1398 0.962 . S
H1412 C1398 0.960 . S
H1413 C1399 0.961 . S
H1414 C1399 0.961 1_556 S
H1415 C1399 0.961 . S
H1416 C1400 0.931 . S
H1417 C1405 0.930 . S
H1418 C1406 0.956 . S
H1419 C1406 0.961 . S
H1420 C1406 0.961 . S
H1421 C1407 0.958 . S
H1422 C1407 0.961 . S
H1423 C1407 0.960 . S
C1424 C1425 1.391 . S
C1424 C1426 1.394 . S
C1424 H1440 0.931 . S
C1425 C1424 1.391 . S
C1425 C1429 1.376 . S
C1426 C1424 1.394 . S
C1426 C1427 1.369 . S
C1426 C1430 1.531 . S
C1427 C1426 1.369 . S
C1427 C1428 1.410 . S
C1427 C1435 1.503 . S
C1428 C1427 1.410 . S
C1428 C1429 1.392 . S
C1428 C1431 1.511 . S
C1429 C1425 1.376 . S
C1429 C1428 1.392 . S
C1429 H1441 0.929 . S
C1430 C1426 1.531 . S
C1430 H1442 0.960 . S
C1430 H1443 0.962 . S
C1430 H1444 0.960 . S
C1431 C1428 1.511 . S
C1431 H1445 0.961 . S
C1431 H1446 0.961 . S
C1431 H1447 0.961 . S
C1432 C1433 1.370 . S
C1432 C1434 1.363 . S
C1432 H1448 0.931 . S
C1433 C1432 1.370 . S
C1433 C1437 1.408 . S
C1434 C1432 1.363 . S
C1434 C1435 1.370 . S
C1434 C1438 1.524 . S
C1435 C1427 1.503 . S
C1435 C1434 1.370 . S
C1435 C1436 1.403 . S
C1436 C1435 1.403 . S
C1436 C1437 1.404 . S
C1436 C1439 1.539 . S
C1437 C1433 1.408 . S
C1437 C1436 1.404 . S
C1437 H1449 0.930 . S
C1438 C1434 1.524 . S
C1438 H1450 0.956 . S
C1438 H1451 0.961 . S
C1438 H1452 0.961 . S
C1439 C1436 1.539 . S
C1439 H1453 0.958 . S
C1439 H1454 0.961 . S
C1439 H1455 0.960 . S
H1440 C1424 0.931 . S
H1441 C1429 0.929 . S
H1442 C1430 0.960 . S
H1443 C1430 0.962 . S
H1444 C1430 0.960 . S
H1445 C1431 0.961 . S
H1446 C1431 0.961 . S
H1447 C1431 0.961 . S
H1448 C1432 0.931 . S
H1449 C1437 0.930 . S
H1450 C1438 0.956 . S
H1451 C1438 0.961 . S
H1452 C1438 0.961 . S
H1453 C1439 0.958 . S
H1454 C1439 0.961 . S
H1455 C1439 0.960 . S
C1456 C1457 1.391 . S
C1456 C1458 1.394 . S
C1456 H1472 0.931 . S
C1457 C1456 1.391 . S
C1457 C1461 1.376 . S
C1458 C1456 1.394 . S
C1458 C1459 1.369 . S
C1458 C1462 1.531 . S
C1459 C1458 1.369 . S
C1459 C1460 1.410 . S
C1459 C1467 1.503 . S
C1460 C1459 1.410 . S
C1460 C1461 1.392 . S
C1460 C1463 1.511 . S
C1461 C1457 1.376 . S
C1461 C1460 1.392 . S
C1461 H1473 0.929 . S
C1462 C1458 1.531 . S
C1462 H1474 0.960 . S
C1462 H1475 0.962 . S
C1462 H1476 0.960 . S
C1463 C1460 1.511 . S
C1463 H1477 0.961 . S
C1463 H1478 0.961 . S
C1463 H1479 0.961 . S
C1464 C1465 1.370 . S
C1464 C1466 1.363 . S
C1464 H1480 0.931 . S
C1465 C1464 1.370 . S
C1465 C1469 1.408 . S
C1466 C1464 1.363 . S
C1466 C1467 1.370 . S
C1466 C1470 1.524 . S
C1467 C1459 1.503 . S
C1467 C1466 1.370 . S
C1467 C1468 1.403 . S
C1468 C1467 1.403 . S
C1468 C1469 1.404 . S
C1468 C1471 1.539 . S
C1469 C1465 1.408 . S
C1469 C1468 1.404 . S
C1469 H1481 0.930 . S
C1470 C1466 1.524 . S
C1470 H1482 0.956 . S
C1470 H1483 0.961 . S
C1470 H1484 0.961 . S
C1471 C1468 1.539 . S
C1471 H1485 0.958 . S
C1471 H1486 0.961 . S
C1471 H1487 0.960 . S
H1472 C1456 0.931 . S
H1473 C1461 0.929 . S
H1474 C1462 0.960 . S
H1475 C1462 0.962 . S
H1476 C1462 0.960 . S
H1477 C1463 0.961 . S
H1478 C1463 0.961 . S
H1479 C1463 0.961 . S
H1480 C1464 0.931 . S
H1481 C1469 0.930 . S
H1482 C1470 0.956 . S
H1483 C1470 0.961 . S
H1484 C1470 0.961 . S
H1485 C1471 0.958 . S
H1486 C1471 0.961 . S
H1487 C1471 0.960 . S
C1488 C1489 1.391 . S
C1488 C1490 1.394 . S
C1488 H1504 0.931 . S
C1489 C1488 1.391 . S
C1489 C1493 1.376 . S
C1490 C1488 1.394 . S
C1490 C1491 1.369 . S
C1490 C1494 1.531 . S
C1491 C1490 1.369 . S
C1491 C1492 1.410 . S
C1491 C1499 1.503 . S
C1492 C1491 1.410 . S
C1492 C1493 1.392 . S
C1492 C1495 1.511 . S
C1493 C1489 1.376 . S
C1493 C1492 1.392 . S
C1493 H1505 0.929 . S
C1494 C1490 1.531 . S
C1494 H1506 0.960 . S
C1494 H1507 0.962 . S
C1494 H1508 0.960 . S
C1495 C1492 1.511 . S
C1495 H1509 0.961 . S
C1495 H1510 0.961 . S
C1495 H1511 0.961 . S
C1496 C1497 1.370 . S
C1496 C1498 1.363 . S
C1496 H1512 0.931 . S
C1497 C1496 1.370 . S
C1497 C1501 1.408 . S
C1498 C1496 1.363 . S
C1498 C1499 1.370 . S
C1498 C1502 1.524 . S
C1499 C1491 1.503 . S
C1499 C1498 1.370 . S
C1499 C1500 1.403 . S
C1500 C1499 1.403 . S
C1500 C1501 1.404 . S
C1500 C1503 1.539 . S
C1501 C1497 1.408 . S
C1501 C1500 1.404 . S
C1501 H1513 0.930 . S
C1502 C1498 1.524 . S
C1502 H1514 0.956 . S
C1502 H1515 0.961 . S
C1502 H1516 0.961 . S
C1503 C1500 1.539 . S
C1503 H1517 0.958 . S
C1503 H1518 0.961 . S
C1503 H1519 0.960 . S
H1504 C1488 0.931 . S
H1505 C1493 0.929 . S
H1506 C1494 0.960 . S
H1507 C1494 0.962 . S
H1508 C1494 0.960 . S
H1509 C1495 0.961 . S
H1510 C1495 0.961 . S
H1511 C1495 0.961 . S
H1512 C1496 0.931 . S
H1513 C1501 0.930 . S
H1514 C1502 0.956 . S
H1515 C1502 0.961 . S
H1516 C1502 0.961 . S
H1517 C1503 0.958 . S
H1518 C1503 0.961 . S
H1519 C1503 0.960 . S
C1520 C1521 1.391 . S
C1520 C1522 1.394 . S
C1520 H1536 0.931 . S
C1521 C1520 1.391 . S
C1521 C1525 1.376 . S
C1522 C1520 1.394 . S
C1522 C1523 1.369 . S
C1522 C1526 1.531 . S
C1523 C1522 1.369 . S
C1523 C1524 1.410 . S
C1523 C1531 1.503 . S
C1524 C1523 1.410 . S
C1524 C1525 1.392 . S
C1524 C1527 1.511 . S
C1525 C1521 1.376 . S
C1525 C1524 1.392 . S
C1525 H1537 0.929 . S
C1526 C1522 1.531 . S
C1526 H1538 0.960 . S
C1526 H1539 0.962 . S
C1526 H1540 0.960 . S
C1527 C1524 1.511 . S
C1527 H1541 0.961 . S
C1527 H1542 0.961 . S
C1527 H1543 0.961 . S
C1528 C1529 1.370 . S
C1528 C1530 1.363 . S
C1528 H1544 0.931 . S
C1529 C1528 1.370 . S
C1529 C1533 1.408 . S
C1530 C1528 1.363 . S
C1530 C1531 1.370 . S
C1530 C1534 1.524 . S
C1531 C1523 1.503 . S
C1531 C1530 1.370 . S
C1531 C1532 1.403 . S
C1532 C1531 1.403 . S
C1532 C1533 1.404 . S
C1532 C1535 1.539 . S
C1533 C1529 1.408 . S
C1533 C1532 1.404 . S
C1533 H1545 0.930 . S
C1534 C1530 1.524 . S
C1534 H1546 0.956 . S
C1534 H1547 0.961 . S
C1534 H1548 0.961 . S
C1535 C1532 1.539 . S
C1535 H1549 0.943 1_545 S
C1535 H1550 0.961 1_545 S
C1535 H1551 0.960 . S
H1536 C1520 0.931 . S
H1537 C1525 0.929 . S
H1538 C1526 0.960 . S
H1539 C1526 0.962 . S
H1540 C1526 0.960 . S
H1541 C1527 0.961 . S
H1542 C1527 0.961 . S
H1543 C1527 0.961 . S
H1544 C1528 0.931 . S
H1545 C1533 0.930 . S
H1546 C1534 0.956 . S
H1547 C1534 0.961 . S
H1548 C1534 0.961 . S
H1549 C1535 0.943 1_565 S
H1550 C1535 0.961 1_565 S
H1551 C1535 0.960 . S
C1552 C1553 1.391 . S
C1552 C1554 1.394 . S
C1552 H1568 0.931 . S
C1553 C1552 1.391 . S
C1553 C1557 1.376 . S
C1554 C1552 1.394 . S
C1554 C1555 1.369 . S
C1554 C1558 1.531 . S
C1555 C1554 1.369 . S
C1555 C1556 1.410 . S
C1555 C1563 1.503 . S
C1556 C1555 1.410 . S
C1556 C1557 1.392 . S
C1556 C1559 1.511 . S
C1557 C1553 1.376 . S
C1557 C1556 1.392 . S
C1557 H1569 0.929 . S
C1558 C1554 1.531 . S
C1558 H1570 0.960 . S
C1558 H1571 0.962 . S
C1558 H1572 0.960 . S
C1559 C1556 1.511 . S
C1559 H1573 0.961 . S
C1559 H1574 0.961 . S
C1559 H1575 0.961 . S
C1560 C1561 1.370 . S
C1560 C1562 1.363 . S
C1560 H1576 0.931 . S
C1561 C1560 1.370 . S
C1561 C1565 1.408 . S
C1562 C1560 1.363 . S
C1562 C1563 1.370 . S
C1562 C1566 1.524 . S
C1563 C1555 1.503 . S
C1563 C1562 1.370 . S
C1563 C1564 1.403 . S
C1564 C1563 1.403 . S
C1564 C1565 1.404 . S
C1564 C1567 1.539 . S
C1565 C1561 1.408 . S
C1565 C1564 1.404 . S
C1565 H1577 0.930 . S
C1566 C1562 1.524 . S
C1566 H1578 0.956 . S
C1566 H1579 0.961 . S
C1566 H1580 0.961 . S
C1567 C1564 1.539 . S
C1567 H1581 0.958 . S
C1567 H1582 0.961 . S
C1567 H1583 0.960 . S
H1568 C1552 0.931 . S
H1569 C1557 0.929 . S
H1570 C1558 0.960 . S
H1571 C1558 0.962 . S
H1572 C1558 0.960 . S
H1573 C1559 0.961 . S
H1574 C1559 0.961 . S
H1575 C1559 0.961 . S
H1576 C1560 0.931 . S
H1577 C1565 0.930 . S
H1578 C1566 0.956 . S
H1579 C1566 0.961 . S
H1580 C1566 0.961 . S
H1581 C1567 0.958 . S
H1582 C1567 0.961 . S
H1583 C1567 0.960 . S
C1584 C1585 1.391 . S
C1584 C1586 1.394 . S
C1584 H1600 0.931 . S
C1585 C1584 1.391 . S
C1585 C1589 1.376 . S
C1586 C1584 1.394 . S
C1586 C1587 1.369 . S
C1586 C1590 1.531 . S
C1587 C1586 1.369 . S
C1587 C1588 1.410 . S
C1587 C1595 1.503 . S
C1588 C1587 1.410 . S
C1588 C1589 1.392 . S
C1588 C1591 1.511 . S
C1589 C1585 1.376 . S
C1589 C1588 1.392 . S
C1589 H1601 0.929 . S
C1590 C1586 1.531 . S
C1590 H1602 0.960 . S
C1590 H1603 0.962 . S
C1590 H1604 0.960 . S
C1591 C1588 1.511 . S
C1591 H1605 0.961 . S
C1591 H1606 0.961 . S
C1591 H1607 0.961 . S
C1592 C1593 1.370 . S
C1592 C1594 1.363 . S
C1592 H1608 0.931 . S
C1593 C1592 1.370 . S
C1593 C1597 1.408 . S
C1594 C1592 1.363 . S
C1594 C1595 1.370 . S
C1594 C1598 1.524 . S
C1595 C1587 1.503 . S
C1595 C1594 1.370 . S
C1595 C1596 1.403 . S
C1596 C1595 1.403 . S
C1596 C1597 1.404 . S
C1596 C1599 1.539 . S
C1597 C1593 1.408 . S
C1597 C1596 1.404 . S
C1597 H1609 0.930 . S
C1598 C1594 1.524 . S
C1598 H1610 0.956 . S
C1598 H1611 0.961 . S
C1598 H1612 0.961 . S
C1599 C1596 1.539 . S
C1599 H1613 0.958 . S
C1599 H1614 0.961 . S
C1599 H1615 0.960 . S
H1600 C1584 0.931 . S
H1601 C1589 0.929 . S
H1602 C1590 0.960 . S
H1603 C1590 0.962 . S
H1604 C1590 0.960 . S
H1605 C1591 0.961 . S
H1606 C1591 0.961 . S
H1607 C1591 0.961 . S
H1608 C1592 0.931 . S
H1609 C1597 0.930 . S
H1610 C1598 0.956 . S
H1611 C1598 0.961 . S
H1612 C1598 0.961 . S
H1613 C1599 0.958 . S
H1614 C1599 0.961 . S
H1615 C1599 0.960 . S
C1616 C1617 1.391 . S
C1616 C1618 1.394 . S
C1616 H1632 0.931 . S
C1617 C1616 1.391 . S
C1617 C1621 1.376 . S
C1618 C1616 1.394 . S
C1618 C1619 1.369 . S
C1618 C1622 1.531 . S
C1619 C1618 1.369 . S
C1619 C1620 1.410 . S
C1619 C1627 1.503 . S
C1620 C1619 1.410 . S
C1620 C1621 1.392 . S
C1620 C1623 1.511 . S
C1621 C1617 1.376 . S
C1621 C1620 1.392 . S
C1621 H1633 0.929 . S
C1622 C1618 1.531 . S
C1622 H1634 0.960 . S
C1622 H1635 0.962 . S
C1622 H1636 0.960 . S
C1623 C1620 1.511 . S
C1623 H1637 0.961 . S
C1623 H1638 0.961 . S
C1623 H1639 0.961 . S
C1624 C1625 1.370 . S
C1624 C1626 1.363 . S
C1624 H1640 0.931 . S
C1625 C1624 1.370 . S
C1625 C1629 1.408 . S
C1626 C1624 1.363 . S
C1626 C1627 1.370 . S
C1626 C1630 1.524 . S
C1627 C1619 1.503 . S
C1627 C1626 1.370 . S
C1627 C1628 1.403 . S
C1628 C1627 1.403 . S
C1628 C1629 1.404 . S
C1628 C1631 1.539 . S
C1629 C1625 1.408 . S
C1629 C1628 1.404 . S
C1629 H1641 0.930 . S
C1630 C1626 1.524 . S
C1630 H1642 0.956 . S
C1630 H1643 0.961 . S
C1630 H1644 0.961 . S
C1631 C1628 1.539 . S
C1631 H1645 0.958 . S
C1631 H1646 0.961 . S
C1631 H1647 0.960 . S
H1632 C1616 0.931 . S
H1633 C1621 0.929 . S
H1634 C1622 0.960 . S
H1635 C1622 0.962 . S
H1636 C1622 0.960 . S
H1637 C1623 0.961 . S
H1638 C1623 0.961 . S
H1639 C1623 0.961 . S
H1640 C1624 0.931 . S
H1641 C1629 0.930 . S
H1642 C1630 0.956 . S
H1643 C1630 0.961 . S
H1644 C1630 0.961 . S
H1645 C1631 0.958 . S
H1646 C1631 0.961 . S
H1647 C1631 0.960 . S
C1648 C1649 1.391 . S
C1648 C1650 1.394 . S
C1648 H1664 0.931 . S
C1649 C1648 1.391 . S
C1649 C1653 1.376 . S
C1650 C1648 1.394 . S
C1650 C1651 1.369 . S
C1650 C1654 1.531 . S
C1651 C1650 1.369 . S
C1651 C1652 1.410 . S
C1651 C1659 1.503 . S
C1652 C1651 1.410 . S
C1652 C1653 1.392 . S
C1652 C1655 1.511 . S
C1653 C1649 1.376 . S
C1653 C1652 1.392 . S
C1653 H1665 0.929 . S
C1654 C1650 1.531 . S
C1654 H1666 0.960 . S
C1654 H1667 0.962 . S
C1654 H1668 0.960 . S
C1655 C1652 1.511 . S
C1655 H1669 0.961 . S
C1655 H1670 0.961 . S
C1655 H1671 0.961 . S
C1656 C1657 1.370 . S
C1656 C1658 1.363 . S
C1656 H1672 0.931 . S
C1657 C1656 1.370 . S
C1657 C1661 1.408 . S
C1658 C1656 1.363 . S
C1658 C1659 1.370 . S
C1658 C1662 1.524 . S
C1659 C1651 1.503 . S
C1659 C1658 1.370 . S
C1659 C1660 1.403 . S
C1660 C1659 1.403 . S
C1660 C1661 1.404 . S
C1660 C1663 1.539 . S
C1661 C1657 1.408 . S
C1661 C1660 1.404 . S
C1661 H1673 0.930 . S
C1662 C1658 1.524 . S
C1662 H1674 0.956 . S
C1662 H1675 0.961 . S
C1662 H1676 0.961 . S
C1663 C1660 1.539 . S
C1663 H1677 0.958 . S
C1663 H1678 0.961 . S
C1663 H1679 0.960 . S
H1664 C1648 0.931 . S
H1665 C1653 0.929 . S
H1666 C1654 0.960 . S
H1667 C1654 0.962 . S
H1668 C1654 0.960 . S
H1669 C1655 0.961 . S
H1670 C1655 0.961 . S
H1671 C1655 0.961 . S
H1672 C1656 0.931 . S
H1673 C1661 0.930 . S
H1674 C1662 0.956 . S
H1675 C1662 0.961 . S
H1676 C1662 0.961 . S
H1677 C1663 0.958 . S
H1678 C1663 0.961 . S
H1679 C1663 0.960 . S
C1680 C1681 1.391 . S
C1680 C1682 1.394 . S
C1680 H1696 0.931 . S
C1681 C1680 1.391 . S
C1681 C1685 1.376 . S
C1682 C1680 1.394 . S
C1682 C1683 1.369 . S
C1682 C1686 1.531 . S
C1683 C1682 1.369 . S
C1683 C1684 1.410 . S
C1683 C1691 1.503 . S
C1684 C1683 1.410 . S
C1684 C1685 1.392 . S
C1684 C1687 1.511 . S
C1685 C1681 1.376 . S
C1685 C1684 1.392 . S
C1685 H1697 0.929 . S
C1686 C1682 1.531 . S
C1686 H1698 0.960 . S
C1686 H1699 0.962 . S
C1686 H1700 0.960 . S
C1687 C1684 1.511 . S
C1687 H1701 0.961 . S
C1687 H1702 0.961 . S
C1687 H1703 0.961 . S
C1688 C1689 1.370 . S
C1688 C1690 1.363 . S
C1688 H1704 0.931 . S
C1689 C1688 1.370 . S
C1689 C1693 1.408 . S
C1690 C1688 1.363 . S
C1690 C1691 1.370 . S
C1690 C1694 1.524 . S
C1691 C1683 1.503 . S
C1691 C1690 1.370 . S
C1691 C1692 1.403 . S
C1692 C1691 1.403 . S
C1692 C1693 1.404 . S
C1692 C1695 1.539 . S
C1693 C1689 1.408 . S
C1693 C1692 1.404 . S
C1693 H1705 0.930 . S
C1694 C1690 1.524 . S
C1694 H1706 0.956 . S
C1694 H1707 0.961 . S
C1694 H1708 0.961 . S
C1695 C1692 1.539 . S
C1695 H1709 0.958 . S
C1695 H1710 0.961 . S
C1695 H1711 0.960 . S
H1696 C1680 0.931 . S
H1697 C1685 0.929 . S
H1698 C1686 0.960 . S
H1699 C1686 0.962 . S
H1700 C1686 0.960 . S
H1701 C1687 0.961 . S
H1702 C1687 0.961 . S
H1703 C1687 0.961 . S
H1704 C1688 0.931 . S
H1705 C1693 0.930 . S
H1706 C1694 0.956 . S
H1707 C1694 0.961 . S
H1708 C1694 0.961 . S
H1709 C1695 0.958 . S
H1710 C1695 0.961 . S
H1711 C1695 0.960 . S
C1712 C1713 1.391 . S
C1712 C1714 1.394 . S
C1712 H1728 0.931 . S
C1713 C1712 1.391 . S
C1713 C1717 1.376 . S
C1714 C1712 1.394 . S
C1714 C1715 1.369 . S
C1714 C1718 1.531 . S
C1715 C1714 1.369 . S
C1715 C1716 1.410 . S
C1715 C1723 1.503 . S
C1716 C1715 1.410 . S
C1716 C1717 1.392 . S
C1716 C1719 1.511 . S
C1717 C1713 1.376 . S
C1717 C1716 1.392 . S
C1717 H1729 0.929 . S
C1718 C1714 1.531 . S
C1718 H1730 0.960 . S
C1718 H1731 0.962 . S
C1718 H1732 0.960 . S
C1719 C1716 1.511 . S
C1719 H1733 0.961 . S
C1719 H1734 0.961 . S
C1719 H1735 0.961 . S
C1720 C1721 1.370 . S
C1720 C1722 1.363 . S
C1720 H1736 0.931 . S
C1721 C1720 1.370 . S
C1721 C1725 1.408 . S
C1722 C1720 1.363 . S
C1722 C1723 1.370 . S
C1722 C1726 1.524 . S
C1723 C1715 1.503 . S
C1723 C1722 1.370 . S
C1723 C1724 1.403 . S
C1724 C1723 1.403 . S
C1724 C1725 1.404 . S
C1724 C1727 1.539 . S
C1725 C1721 1.408 . S
C1725 C1724 1.404 . S
C1725 H1737 0.930 . S
C1726 C1722 1.524 . S
C1726 H1738 0.956 . S
C1726 H1739 0.961 . S
C1726 H1740 0.961 . S
C1727 C1724 1.539 . S
C1727 H1741 0.958 . S
C1727 H1742 0.961 . S
C1727 H1743 0.960 . S
H1728 C1712 0.931 . S
H1729 C1717 0.929 . S
H1730 C1718 0.960 . S
H1731 C1718 0.962 . S
H1732 C1718 0.960 . S
H1733 C1719 0.961 . S
H1734 C1719 0.961 . S
H1735 C1719 0.961 . S
H1736 C1720 0.931 . S
H1737 C1725 0.930 . S
H1738 C1726 0.956 . S
H1739 C1726 0.961 . S
H1740 C1726 0.961 . S
H1741 C1727 0.958 . S
H1742 C1727 0.961 . S
H1743 C1727 0.960 . S
C1744 C1745 1.391 . S
C1744 C1746 1.394 . S
C1744 H1760 0.931 . S
C1745 C1744 1.391 . S
C1745 C1749 1.376 . S
C1746 C1744 1.394 . S
C1746 C1747 1.369 . S
C1746 C1750 1.531 . S
C1747 C1746 1.369 . S
C1747 C1748 1.410 . S
C1747 C1755 1.503 . S
C1748 C1747 1.410 . S
C1748 C1749 1.392 . S
C1748 C1751 1.511 . S
C1749 C1745 1.376 . S
C1749 C1748 1.392 . S
C1749 H1761 0.929 . S
C1750 C1746 1.531 . S
C1750 H1762 0.960 . S
C1750 H1763 0.962 . S
C1750 H1764 0.960 . S
C1751 C1748 1.511 . S
C1751 H1765 0.961 . S
C1751 H1766 0.961 . S
C1751 H1767 0.961 . S
C1752 C1753 1.370 . S
C1752 C1754 1.363 . S
C1752 H1768 0.931 . S
C1753 C1752 1.370 . S
C1753 C1757 1.408 . S
C1754 C1752 1.363 . S
C1754 C1755 1.370 . S
C1754 C1758 1.524 . S
C1755 C1747 1.503 . S
C1755 C1754 1.370 . S
C1755 C1756 1.403 . S
C1756 C1755 1.403 . S
C1756 C1757 1.404 . S
C1756 C1759 1.539 . S
C1757 C1753 1.408 . S
C1757 C1756 1.404 . S
C1757 H1769 0.930 . S
C1758 C1754 1.524 . S
C1758 H1770 0.956 . S
C1758 H1771 0.961 . S
C1758 H1772 0.961 . S
C1759 C1756 1.539 . S
C1759 H1773 0.958 . S
C1759 H1774 0.961 . S
C1759 H1775 0.960 . S
H1760 C1744 0.931 . S
H1761 C1749 0.929 . S
H1762 C1750 0.960 . S
H1763 C1750 0.962 . S
H1764 C1750 0.960 . S
H1765 C1751 0.961 . S
H1766 C1751 0.961 . S
H1767 C1751 0.961 . S
H1768 C1752 0.931 . S
H1769 C1757 0.930 . S
H1770 C1758 0.956 . S
H1771 C1758 0.961 . S
H1772 C1758 0.961 . S
H1773 C1759 0.958 . S
H1774 C1759 0.961 . S
H1775 C1759 0.960 . S
C1776 C1777 1.391 . S
C1776 C1778 1.394 . S
C1776 H1792 0.931 . S
C1777 C1776 1.391 . S
C1777 C1781 1.376 . S
C1778 C1776 1.394 . S
C1778 C1779 1.369 . S
C1778 C1782 1.531 . S
C1779 C1778 1.369 . S
C1779 C1780 1.410 . S
C1779 C1787 1.503 . S
C1780 C1779 1.410 . S
C1780 C1781 1.392 . S
C1780 C1783 1.511 . S
C1781 C1777 1.376 . S
C1781 C1780 1.392 . S
C1781 H1793 0.929 . S
C1782 C1778 1.531 . S
C1782 H1794 0.960 . S
C1782 H1795 0.962 . S
C1782 H1796 0.960 . S
C1783 C1780 1.511 . S
C1783 H1797 0.961 . S
C1783 H1798 0.961 . S
C1783 H1799 0.961 . S
C1784 C1785 1.370 . S
C1784 C1786 1.363 . S
C1784 H1800 0.931 . S
C1785 C1784 1.370 . S
C1785 C1789 1.408 . S
C1786 C1784 1.363 . S
C1786 C1787 1.370 . S
C1786 C1790 1.524 . S
C1787 C1779 1.503 . S
C1787 C1786 1.370 . S
C1787 C1788 1.403 . S
C1788 C1787 1.403 . S
C1788 C1789 1.404 . S
C1788 C1791 1.539 . S
C1789 C1785 1.408 . S
C1789 C1788 1.404 . S
C1789 H1801 0.930 . S
C1790 C1786 1.524 . S
C1790 H1802 0.956 . S
C1790 H1803 0.961 . S
C1790 H1804 0.961 . S
C1791 C1788 1.539 . S
C1791 H1805 0.958 . S
C1791 H1806 0.961 . S
C1791 H1807 0.960 . S
H1792 C1776 0.931 . S
H1793 C1781 0.929 . S
H1794 C1782 0.960 . S
H1795 C1782 0.962 . S
H1796 C1782 0.960 . S
H1797 C1783 0.961 . S
H1798 C1783 0.961 . S
H1799 C1783 0.961 . S
H1800 C1784 0.931 . S
H1801 C1789 0.930 . S
H1802 C1790 0.956 . S
H1803 C1790 0.961 . S
H1804 C1790 0.961 . S
H1805 C1791 0.958 . S
H1806 C1791 0.961 . S
H1807 C1791 0.960 . S
C529 C8 1.586 . S
C537 C206 1.623 . S
C561 C239 1.655 . S
C569 C41 1.613 . S
C593 C140 1.574 . S
C601 C74 1.635 . S
C625 C173 1.654 . S
C633 C107 1.614 . S
C657 C272 1.575 . S
C665 C470 1.638 . S
C689 C305 1.628 . S
C697 C503 1.611 . S
C721 C404 1.646 . S
C729 C338 1.605 . S
C753 C371 1.624 . S
C761 C437 1.624 . S
C785 N269 2.103 . S
C793 N5 2.118 . S
C817 N302 2.111 . S
C825 N38 2.115 . S
C849 N335 2.121 . S
C857 N71 2.110 . S
C881 N368 2.098 . S
C889 N104 2.120 . S
C913 N401 2.089 . S
C921 N137 2.122 . S
C945 N434 2.091 . S
C953 N170 2.121 . S
C977 N203 2.123 . S
C985 N467 2.109 . S
C1009 N236 2.128 . S
C1017 N500 2.106 . S
C1041 C314 0.738 . S
C1049 C28 0.689 . S
C1073 C347 0.764 . S
C1081 C61 0.704 . S
C1105 C380 0.694 . S
C1113 C94 0.673 . S
C1137 C281 0.618 . S
C1145 C127 0.658 . S
C1169 C160 0.671 . S
C1177 C512 0.670 . S
C1201 C193 0.623 . S
C1209 C413 0.665 . S
C1233 C226 0.688 . S
C1241 C446 0.677 . S
C1265 C259 0.623 . S
C1273 C479 0.665 . S
C1297 C50 0.762 . S
C1305 C292 0.707 . S
C1329 C83 0.721 . S
C1337 C325 0.691 . S
C1361 C116 0.766 . S
C1369 C358 0.710 . S
C1393 C17 0.659 . S
C1401 C391 0.670 . S
C1425 C248 0.736 . S
C1433 C424 0.696 . S
C1457 C149 0.721 . S
C1465 C457 0.691 . S
C1489 C182 0.754 . S
C1497 C490 0.704 . S
C1521 C523 0.745 . S
C1529 C215 0.722 . S
C1553 N80 0.698 . S
C1561 N14 0.665 . S
C1585 N113 0.644 . S
C1593 N47 0.663 . S
C1617 N146 0.512 . S
C1625 N212 0.607 . S
C1649 N245 0.514 . S
C1657 N179 0.610 . S
C1681 N278 0.569 . S
C1689 N344 0.577 . S
C1713 N377 0.510 . S
C1721 N311 0.589 . S
C1745 N410 0.533 . S
C1753 N476 0.575 . S
C1777 N443 0.721 . S
C1785 N509 0.642 . S
