# Generated by pormake.
# Topology lvt-a, (3)-cn, num edge types: 1
# Building blocks:
#     Node 0, Type 0, BuildingBlock: WUSLED_clean_sbu_0, # of connection points: 3
#     Node 1, Type 0, BuildingBlock: WUSLED_clean_sbu_0, # of connection points: 3
#     Node 2, Type 0, BuildingBlock: WUSLED_clean_sbu_0, # of connection points: 3
#     Node 3, Type 0, BuildingBlock: WUSLED_clean_sbu_0, # of connection points: 3
#     Node 4, Type 0, BuildingBlock: WUSLED_clean_sbu_0, # of connection points: 3
#     Node 5, Type 0, BuildingBlock: WUSLED_clean_sbu_0, # of connection points: 3
#     Node 6, Type 0, BuildingBlock: WUSLED_clean_sbu_0, # of connection points: 3
#     Node 7, Type 0, BuildingBlock: WUSLED_clean_sbu_0, # of connection points: 3
#     Node 8, Type 0, BuildingBlock: WUSLED_clean_sbu_0, # of connection points: 3
#     Node 9, Type 0, BuildingBlock: WUSLED_clean_sbu_0, # of connection points: 3
#     Node 10, Type 0, BuildingBlock: WUSLED_clean_sbu_0, # of connection points: 3
#     Node 11, Type 0, BuildingBlock: WUSLED_clean_sbu_0, # of connection points: 3
#     Node 12, Type 0, BuildingBlock: WUSLED_clean_sbu_0, # of connection points: 3
#     Node 13, Type 0, BuildingBlock: WUSLED_clean_sbu_0, # of connection points: 3
#     Node 14, Type 0, BuildingBlock: WUSLED_clean_sbu_0, # of connection points: 3
#     Node 15, Type 0, BuildingBlock: WUSLED_clean_sbu_0, # of connection points: 3
#     Node 16, Type 0, BuildingBlock: WUSLED_clean_sbu_0, # of connection points: 3
#     Node 17, Type 0, BuildingBlock: WUSLED_clean_sbu_0, # of connection points: 3
#     Node 18, Type 0, BuildingBlock: WUSLED_clean_sbu_0, # of connection points: 3
#     Node 19, Type 0, BuildingBlock: WUSLED_clean_sbu_0, # of connection points: 3
#     Node 20, Type 0, BuildingBlock: WUSLED_clean_sbu_0, # of connection points: 3
#     Node 21, Type 0, BuildingBlock: WUSLED_clean_sbu_0, # of connection points: 3
#     Node 22, Type 0, BuildingBlock: WUSLED_clean_sbu_0, # of connection points: 3
#     Node 23, Type 0, BuildingBlock: WUSLED_clean_sbu_0, # of connection points: 3
#     Node 24, Type 0, BuildingBlock: WUSLED_clean_sbu_0, # of connection points: 3
#     Node 25, Type 0, BuildingBlock: WUSLED_clean_sbu_0, # of connection points: 3
#     Node 26, Type 0, BuildingBlock: WUSLED_clean_sbu_0, # of connection points: 3
#     Node 27, Type 0, BuildingBlock: WUSLED_clean_sbu_0, # of connection points: 3
#     Node 28, Type 0, BuildingBlock: WUSLED_clean_sbu_0, # of connection points: 3
#     Node 29, Type 0, BuildingBlock: WUSLED_clean_sbu_0, # of connection points: 3
#     Node 30, Type 0, BuildingBlock: WUSLED_clean_sbu_0, # of connection points: 3
#     Node 31, Type 0, BuildingBlock: WUSLED_clean_sbu_0, # of connection points: 3
#     Edge 32, Type (0, 0), BuildingBlock: ZUJKAS_clean_linker_0, # of connection points: 2
#     Edge 33, Type (0, 0), BuildingBlock: ZUJKAS_clean_linker_0, # of connection points: 2
#     Edge 34, Type (0, 0), BuildingBlock: ZUJKAS_clean_linker_0, # of connection points: 2
#     Edge 35, Type (0, 0), BuildingBlock: ZUJKAS_clean_linker_0, # of connection points: 2
#     Edge 36, Type (0, 0), BuildingBlock: ZUJKAS_clean_linker_0, # of connection points: 2
#     Edge 37, Type (0, 0), BuildingBlock: ZUJKAS_clean_linker_0, # of connection points: 2
#     Edge 38, Type (0, 0), BuildingBlock: ZUJKAS_clean_linker_0, # of connection points: 2
#     Edge 39, Type (0, 0), BuildingBlock: ZUJKAS_clean_linker_0, # of connection points: 2
#     Edge 40, Type (0, 0), BuildingBlock: ZUJKAS_clean_linker_0, # of connection points: 2
#     Edge 41, Type (0, 0), BuildingBlock: ZUJKAS_clean_linker_0, # of connection points: 2
#     Edge 42, Type (0, 0), BuildingBlock: ZUJKAS_clean_linker_0, # of connection points: 2
#     Edge 43, Type (0, 0), BuildingBlock: ZUJKAS_clean_linker_0, # of connection points: 2
#     Edge 44, Type (0, 0), BuildingBlock: ZUJKAS_clean_linker_0, # of connection points: 2
#     Edge 45, Type (0, 0), BuildingBlock: ZUJKAS_clean_linker_0, # of connection points: 2
#     Edge 46, Type (0, 0), BuildingBlock: ZUJKAS_clean_linker_0, # of connection points: 2
#     Edge 47, Type (0, 0), BuildingBlock: ZUJKAS_clean_linker_0, # of connection points: 2
#     Edge 48, Type (0, 0), BuildingBlock: ZUJKAS_clean_linker_0, # of connection points: 2
#     Edge 49, Type (0, 0), BuildingBlock: ZUJKAS_clean_linker_0, # of connection points: 2
#     Edge 50, Type (0, 0), BuildingBlock: ZUJKAS_clean_linker_0, # of connection points: 2
#     Edge 51, Type (0, 0), BuildingBlock: ZUJKAS_clean_linker_0, # of connection points: 2
#     Edge 52, Type (0, 0), BuildingBlock: ZUJKAS_clean_linker_0, # of connection points: 2
#     Edge 53, Type (0, 0), BuildingBlock: ZUJKAS_clean_linker_0, # of connection points: 2
#     Edge 54, Type (0, 0), BuildingBlock: ZUJKAS_clean_linker_0, # of connection points: 2
#     Edge 55, Type (0, 0), BuildingBlock: ZUJKAS_clean_linker_0, # of connection points: 2
#     Edge 56, Type (0, 0), BuildingBlock: ZUJKAS_clean_linker_0, # of connection points: 2
#     Edge 57, Type (0, 0), BuildingBlock: ZUJKAS_clean_linker_0, # of connection points: 2
#     Edge 58, Type (0, 0), BuildingBlock: ZUJKAS_clean_linker_0, # of connection points: 2
#     Edge 59, Type (0, 0), BuildingBlock: ZUJKAS_clean_linker_0, # of connection points: 2
#     Edge 60, Type (0, 0), BuildingBlock: ZUJKAS_clean_linker_0, # of connection points: 2
#     Edge 61, Type (0, 0), BuildingBlock: ZUJKAS_clean_linker_0, # of connection points: 2
#     Edge 62, Type (0, 0), BuildingBlock: ZUJKAS_clean_linker_0, # of connection points: 2
#     Edge 63, Type (0, 0), BuildingBlock: ZUJKAS_clean_linker_0, # of connection points: 2
#     Edge 64, Type (0, 0), BuildingBlock: ZUJKAS_clean_linker_0, # of connection points: 2
#     Edge 65, Type (0, 0), BuildingBlock: ZUJKAS_clean_linker_0, # of connection points: 2
#     Edge 66, Type (0, 0), BuildingBlock: ZUJKAS_clean_linker_0, # of connection points: 2
#     Edge 67, Type (0, 0), BuildingBlock: ZUJKAS_clean_linker_0, # of connection points: 2
#     Edge 68, Type (0, 0), BuildingBlock: ZUJKAS_clean_linker_0, # of connection points: 2
#     Edge 69, Type (0, 0), BuildingBlock: ZUJKAS_clean_linker_0, # of connection points: 2
#     Edge 70, Type (0, 0), BuildingBlock: ZUJKAS_clean_linker_0, # of connection points: 2
#     Edge 71, Type (0, 0), BuildingBlock: ZUJKAS_clean_linker_0, # of connection points: 2
#     Edge 72, Type (0, 0), BuildingBlock: ZUJKAS_clean_linker_0, # of connection points: 2
#     Edge 73, Type (0, 0), BuildingBlock: ZUJKAS_clean_linker_0, # of connection points: 2
#     Edge 74, Type (0, 0), BuildingBlock: ZUJKAS_clean_linker_0, # of connection points: 2
#     Edge 75, Type (0, 0), BuildingBlock: ZUJKAS_clean_linker_0, # of connection points: 2
#     Edge 76, Type (0, 0), BuildingBlock: ZUJKAS_clean_linker_0, # of connection points: 2
#     Edge 77, Type (0, 0), BuildingBlock: ZUJKAS_clean_linker_0, # of connection points: 2
#     Edge 78, Type (0, 0), BuildingBlock: ZUJKAS_clean_linker_0, # of connection points: 2
#     Edge 79, Type (0, 0), BuildingBlock: ZUJKAS_clean_linker_0, # of connection points: 2
# Relax obj value: 0.111
# Max RMSD: 0.099
# Mean RMSD: 0.093
data_MOF--net-lvt-a--node1-WUSLED_clean_sbu_0--edge1-ZUJKAS_clean_linker_0
_symmetry_space_group_name_H-M    P1
_symmetry_Int_Tables_number       1
_symmetry_cell_setting            triclinic
loop_
_symmetry_equiv_pos_as_xyz
'x, y, z'
_cell_length_a     106.07788
_cell_length_b     110.42839
_cell_length_c     181.34314
_cell_angle_alpha  90.047009
_cell_angle_beta   89.983623
_cell_angle_gamma 89.954852
loop_
_atom_site_label
_atom_site_type_symbol
_atom_site_fract_x
_atom_site_fract_y
_atom_site_fract_z
_atom_type_partial_charge
C0 C 0.15459 0.50776 0.06395 0.0
C1 C 0.14574 0.50129 0.05977 0.0
C2 C 0.15648 0.50707 0.04843 0.0
C3 C 0.14671 0.50089 0.05209 0.0
C4 C 0.16541 0.51344 0.05267 0.0
C5 C 0.16446 0.51378 0.06036 0.0
U6 U 0.13374 0.50559 0.08072 0.0
O7 O 0.13723 0.49877 0.09194 0.0
O8 O 0.13152 0.51768 0.09026 0.0
C9 C 0.13546 0.50947 0.09496 0.0
C10 C 0.15313 0.5088 0.07198 0.0
C11 C 0.14532 0.51357 0.10005 0.0
C12 C 0.16678 0.52018 0.10243 0.0
C13 C 0.15767 0.51561 0.09758 0.0
C14 C 0.15127 0.52055 0.11225 0.0
C15 C 0.16365 0.52281 0.1098 0.0
C16 C 0.14221 0.51597 0.10741 0.0
C17 C 0.09903 0.49709 0.07755 0.0
C18 C 0.08363 0.48644 0.0851 0.0
C19 C 0.07678 0.50213 0.07668 0.0
C20 C 0.08923 0.50394 0.07446 0.0
C21 C 0.07383 0.49335 0.08201 0.0
C22 C 0.09614 0.48832 0.08292 0.0
C23 C 0.11206 0.49918 0.07497 0.0
O24 O 0.14575 0.51769 0.07414 0.0
O25 O 0.15097 0.49859 0.07549 0.0
O26 O 0.1207 0.49133 0.07703 0.0
O27 O 0.11594 0.51047 0.07528 0.0
H28 H 0.13799 0.49664 0.06244 0.0
H29 H 0.13978 0.49575 0.04902 0.0
H30 H 0.17295 0.51843 0.05003 0.0
H31 H 0.1713 0.51892 0.06351 0.0
H32 H 0.17624 0.52169 0.10039 0.0
H33 H 0.16022 0.51381 0.0919 0.0
H34 H 0.14847 0.52265 0.11785 0.0
H35 H 0.13269 0.51452 0.10938 0.0
H36 H 0.08163 0.47964 0.08924 0.0
H37 H 0.06942 0.50746 0.07411 0.0
H38 H 0.09121 0.51068 0.07028 0.0
H39 H 0.1035 0.48291 0.08542 0.0
C40 C 0.75504 0.88696 0.31433 0.0
C41 C 0.75944 0.87726 0.31005 0.0
C42 C 0.75667 0.88917 0.29887 0.0
C43 C 0.76025 0.87835 0.30239 0.0
C44 C 0.75239 0.89892 0.30321 0.0
C45 C 0.75158 0.89781 0.31089 0.0
U46 U 0.7575 0.86716 0.33118 0.0
O47 O 0.76368 0.8709 0.34253 0.0
O48 O 0.74445 0.8644 0.34045 0.0
C49 C 0.75248 0.86864 0.34532 0.0
C50 C 0.75362 0.88557 0.32234 0.0
C51 C 0.74738 0.87789 0.35033 0.0
C52 C 0.74125 0.89865 0.35296 0.0
C53 C 0.74658 0.89007 0.3482 0.0
C54 C 0.73752 0.88292 0.36201 0.0
C55 C 0.73658 0.89516 0.35992 0.0
C56 C 0.74288 0.87438 0.35727 0.0
C57 C 0.7687 0.83458 0.32827 0.0
C58 C 0.76771 0.81926 0.33785 0.0
C59 C 0.7757 0.81409 0.32573 0.0
C60 C 0.77379 0.82601 0.32342 0.0
C61 C 0.77254 0.81052 0.33294 0.0
C62 C 0.76581 0.83121 0.33553 0.0
C63 C 0.76591 0.8468 0.32554 0.0
O64 O 0.74467 0.87803 0.32435 0.0
O65 O 0.76417 0.88402 0.32602 0.0
O66 O 0.77338 0.85546 0.32791 0.0
O67 O 0.75393 0.84981 0.32564 0.0
H68 H 0.76208 0.86878 0.31263 0.0
H69 H 0.7634 0.87061 0.29921 0.0
H70 H 0.7497 0.90742 0.30069 0.0
H71 H 0.74816 0.90538 0.31412 0.0
H72 H 0.74081 0.90801 0.3512 0.0
H73 H 0.74999 0.89292 0.34284 0.0
H74 H 0.73383 0.87986 0.36726 0.0
H75 H 0.74335 0.86499 0.35897 0.0
H76 H 0.7653 0.81683 0.34346 0.0
H77 H 0.77925 0.80757 0.32177 0.0
H78 H 0.77601 0.82847 0.31778 0.0
H79 H 0.76188 0.83775 0.33935 0.0
C80 C 0.36145 0.50596 0.56393 0.0
C81 C 0.37203 0.50809 0.55947 0.0
C82 C 0.35899 0.50672 0.54846 0.0
C83 C 0.37082 0.50843 0.5518 0.0
C84 C 0.34836 0.50486 0.55297 0.0
C85 C 0.3496 0.50445 0.56065 0.0
U86 U 0.38168 0.50996 0.58084 0.0
O87 O 0.37728 0.5158 0.59216 0.0
O88 O 0.38534 0.49775 0.59018 0.0
C89 C 0.38031 0.50522 0.59499 0.0
C90 C 0.36288 0.50498 0.57196 0.0
C91 C 0.37108 0.49973 0.60003 0.0
C92 C 0.34951 0.49518 0.60364 0.0
C93 C 0.35804 0.50083 0.59886 0.0
C94 C 0.36697 0.48722 0.61077 0.0
C95 C 0.35391 0.48822 0.60961 0.0
C96 C 0.37546 0.49294 0.60603 0.0
C97 C 0.41492 0.52249 0.57802 0.0
C98 C 0.43158 0.5209 0.58716 0.0
C99 C 0.43515 0.53207 0.57585 0.0
C100 C 0.42287 0.52948 0.57357 0.0
C101 C 0.43972 0.52766 0.58262 0.0
C102 C 0.41926 0.51836 0.58489 0.0
C103 C 0.40241 0.5191 0.57525 0.0
O104 O 0.37117 0.49687 0.57413 0.0
O105 O 0.36386 0.51532 0.57552 0.0
O106 O 0.39295 0.52581 0.57755 0.0
O107 O 0.39994 0.50744 0.57536 0.0
H108 H 0.38125 0.50935 0.56192 0.0
H109 H 0.37914 0.51005 0.54849 0.0
H110 H 0.33915 0.50344 0.55054 0.0
H111 H 0.34135 0.50279 0.56402 0.0
H112 H 0.3395 0.49602 0.60258 0.0
H113 H 0.35446 0.50595 0.59421 0.0
H114 H 0.37063 0.48204 0.61536 0.0
H115 H 0.38549 0.49199 0.60702 0.0
H116 H 0.43478 0.51748 0.59244 0.0
H117 H 0.44122 0.53715 0.57218 0.0
H118 H 0.41966 0.53271 0.56825 0.0
H119 H 0.41321 0.51298 0.58841 0.0
C120 C 0.76018 0.12847 0.8142 0.0
C121 C 0.75212 0.13604 0.81015 0.0
C122 C 0.75885 0.12645 0.79871 0.0
C123 C 0.7514 0.13499 0.80248 0.0
C124 C 0.76688 0.11885 0.8028 0.0
C125 C 0.76752 0.11985 0.81048 0.0
U126 U 0.75712 0.14833 0.83106 0.0
O127 O 0.75076 0.1445 0.84236 0.0
O128 O 0.76994 0.15123 0.84042 0.0
C129 C 0.76185 0.14691 0.84524 0.0
C130 C 0.76151 0.13001 0.82221 0.0
C131 C 0.76692 0.13771 0.85027 0.0
C132 C 0.77477 0.11741 0.85264 0.0
C133 C 0.7696 0.12595 0.8478 0.0
C134 C 0.77453 0.13234 0.86245 0.0
C135 C 0.77735 0.12053 0.86002 0.0
C136 C 0.76936 0.14083 0.85761 0.0
C137 C 0.74537 0.1807 0.82815 0.0
C138 C 0.74638 0.19615 0.83767 0.0
C139 C 0.73781 0.20102 0.82564 0.0
C140 C 0.7399 0.18911 0.82334 0.0
C141 C 0.74119 0.20474 0.8328 0.0
C142 C 0.74845 0.18422 0.83536 0.0
C143 C 0.74842 0.16854 0.82541 0.0
O144 O 0.77027 0.13773 0.82423 0.0
O145 O 0.75091 0.13131 0.82591 0.0
O146 O 0.74108 0.15974 0.82771 0.0
O147 O 0.76045 0.16573 0.82556 0.0
H148 H 0.74651 0.14289 0.81291 0.0
H149 H 0.74526 0.14109 0.79948 0.0
H150 H 0.77265 0.11211 0.80006 0.0
H151 H 0.77385 0.11399 0.81352 0.0
H152 H 0.77669 0.10837 0.85061 0.0
H153 H 0.76776 0.1234 0.84213 0.0
H154 H 0.77658 0.13511 0.86805 0.0
H155 H 0.7674 0.14991 0.85959 0.0
H156 H 0.74896 0.1987 0.84324 0.0
H157 H 0.73398 0.20742 0.82171 0.0
H158 H 0.73752 0.18654 0.81774 0.0
H159 H 0.75267 0.1778 0.83914 0.0
C160 C 0.15455 0.50857 0.95354 0.0
C161 C 0.14605 0.51549 0.95772 0.0
C162 C 0.15664 0.50938 0.96904 0.0
C163 C 0.14713 0.51594 0.96539 0.0
C164 C 0.16524 0.50259 0.9648 0.0
C165 C 0.16419 0.50219 0.95711 0.0
U166 U 0.13364 0.51144 0.9368 0.0
O167 O 0.13745 0.51748 0.92546 0.0
O168 O 0.13057 0.49903 0.92748 0.0
C169 C 0.13507 0.50675 0.92264 0.0
C170 C 0.15288 0.50736 0.94553 0.0
C171 C 0.14476 0.50183 0.91768 0.0
C172 C 0.16648 0.49626 0.91513 0.0
C173 C 0.15746 0.5014 0.91981 0.0
C174 C 0.15017 0.49194 0.90615 0.0
C175 C 0.16294 0.4914 0.90826 0.0
C176 C 0.14118 0.49712 0.91083 0.0
C177 C 0.09986 0.5224 0.93989 0.0
C178 C 0.08385 0.52174 0.93032 0.0
C179 C 0.07852 0.52893 0.94256 0.0
C180 C 0.09095 0.52707 0.94482 0.0
C181 C 0.07477 0.52615 0.93531 0.0
C182 C 0.09631 0.51988 0.93259 0.0
C183 C 0.11259 0.51961 0.94255 0.0
O184 O 0.14489 0.49889 0.94353 0.0
O185 O 0.15135 0.51757 0.94189 0.0
O186 O 0.12164 0.52675 0.94019 0.0
O187 O 0.11564 0.50808 0.94239 0.0
H188 H 0.13849 0.52042 0.95505 0.0
H189 H 0.14046 0.5214 0.96847 0.0
H190 H 0.17257 0.4973 0.96742 0.0
H191 H 0.17074 0.4967 0.95397 0.0
H192 H 0.17624 0.49612 0.91689 0.0
H193 H 0.16038 0.50496 0.92512 0.0
H194 H 0.14705 0.4881 0.90097 0.0
H195 H 0.13139 0.4973 0.90913 0.0
H196 H 0.0813 0.51962 0.92468 0.0
H197 H 0.07174 0.53216 0.94658 0.0
H198 H 0.09354 0.529 0.95048 0.0
H199 H 0.10312 0.51627 0.92871 0.0
C200 C 0.76125 0.88684 0.20406 0.0
C201 C 0.75607 0.87748 0.20831 0.0
C202 C 0.75916 0.88935 0.21949 0.0
C203 C 0.75504 0.87872 0.21595 0.0
C204 C 0.76422 0.89876 0.21517 0.0
C205 C 0.76526 0.8975 0.20751 0.0
U206 U 0.75824 0.86692 0.18728 0.0
O207 O 0.75268 0.87074 0.17584 0.0
O208 O 0.77144 0.86326 0.17819 0.0
C209 C 0.76382 0.8678 0.17319 0.0
C210 C 0.76289 0.88525 0.19607 0.0
C211 C 0.76959 0.8765 0.16808 0.0
C212 C 0.77499 0.89707 0.16451 0.0
C213 C 0.76924 0.88903 0.16943 0.0
C214 C 0.78158 0.88015 0.1569 0.0
C215 C 0.7813 0.8927 0.15821 0.0
C216 C 0.77576 0.87214 0.16179 0.0
C217 C 0.74499 0.83508 0.19019 0.0
C218 C 0.74735 0.81864 0.18138 0.0
C219 C 0.73444 0.8159 0.19228 0.0
C220 C 0.73709 0.82776 0.19447 0.0
C221 C 0.73969 0.81114 0.18577 0.0
C222 C 0.74995 0.83054 0.18356 0.0
C223 C 0.74842 0.84717 0.1929 0.0
O224 O 0.77144 0.87719 0.19421 0.0
O225 O 0.75239 0.88423 0.19226 0.0
O226 O 0.74156 0.8562 0.19041 0.0
O227 O 0.76056 0.84953 0.19297 0.0
H228 H 0.75301 0.86913 0.20572 0.0
H229 H 0.75127 0.87122 0.21911 0.0
H230 H 0.76735 0.90712 0.21771 0.0
H231 H 0.76929 0.90481 0.2043 0.0
H232 H 0.77472 0.90668 0.16569 0.0
H233 H 0.76459 0.89256 0.1743 0.0
H234 H 0.78622 0.87652 0.15206 0.0
H235 H 0.77613 0.86251 0.16067 0.0
H236 H 0.75143 0.81527 0.1763 0.0
H237 H 0.72864 0.81033 0.19583 0.0
H238 H 0.7332 0.83113 0.1996 0.0
H239 H 0.75603 0.8361 0.18017 0.0
C240 C 0.36088 0.50724 0.45375 0.0
C241 C 0.37141 0.50523 0.45826 0.0
C242 C 0.35809 0.50574 0.4692 0.0
C243 C 0.37005 0.50453 0.4659 0.0
C244 C 0.34753 0.50759 0.46463 0.0
C245 C 0.34892 0.50834 0.45696 0.0
U246 U 0.38164 0.50437 0.43697 0.0
O247 O 0.37777 0.49847 0.4256 0.0
O248 O 0.38486 0.51684 0.4277 0.0
C249 C 0.38028 0.50921 0.42283 0.0
C250 C 0.36243 0.50844 0.44573 0.0
C251 C 0.3708 0.51434 0.4178 0.0
C252 C 0.34903 0.51821 0.41434 0.0
C253 C 0.35783 0.51283 0.41906 0.0
C254 C 0.36606 0.52668 0.40709 0.0
C255 C 0.35306 0.52529 0.40834 0.0
C256 C 0.37484 0.52123 0.41177 0.0
C257 C 0.41536 0.49324 0.44 0.0
C258 C 0.43124 0.49351 0.43035 0.0
C259 C 0.43675 0.48684 0.44266 0.0
C260 C 0.42435 0.4888 0.44496 0.0
C261 C 0.44039 0.48931 0.43535 0.0
C262 C 0.41881 0.49546 0.43266 0.0
C263 C 0.40266 0.49608 0.44269 0.0
O264 O 0.37038 0.51691 0.44369 0.0
O265 O 0.36396 0.49821 0.44212 0.0
O266 O 0.39357 0.489 0.4403 0.0
O267 O 0.39966 0.50762 0.44257 0.0
H268 H 0.38073 0.50437 0.45586 0.0
H269 H 0.37841 0.50329 0.46924 0.0
H270 H 0.33817 0.50839 0.46696 0.0
H271 H 0.34069 0.50986 0.45355 0.0
H272 H 0.33907 0.51708 0.41548 0.0
H273 H 0.35452 0.50763 0.42374 0.0
H274 H 0.36945 0.53198 0.40247 0.0
H275 H 0.38481 0.5225 0.41072 0.0
H276 H 0.43371 0.49538 0.42467 0.0
H277 H 0.44358 0.4838 0.4467 0.0
H278 H 0.42184 0.4871 0.45066 0.0
H279 H 0.41195 0.4989 0.42876 0.0
C280 C 0.75479 0.12836 0.70386 0.0
C281 C 0.7627 0.136 0.70796 0.0
C282 C 0.75604 0.1262 0.71934 0.0
C283 C 0.76337 0.13489 0.71563 0.0
C284 C 0.74817 0.11853 0.71519 0.0
C285 C 0.74757 0.1196 0.70751 0.0
U286 U 0.75845 0.14804 0.68697 0.0
O287 O 0.76478 0.14386 0.67568 0.0
O288 O 0.74584 0.15127 0.67759 0.0
C289 C 0.75377 0.14659 0.67279 0.0
C290 C 0.75356 0.1299 0.69584 0.0
C291 C 0.74842 0.13754 0.66773 0.0
C292 C 0.7347 0.12039 0.66529 0.0
C293 C 0.74024 0.12848 0.67027 0.0
C294 C 0.74578 0.13011 0.65523 0.0
C295 C 0.73729 0.1212 0.65769 0.0
C296 C 0.75126 0.13822 0.6602 0.0
C297 C 0.77089 0.18017 0.68979 0.0
C298 C 0.77008 0.19549 0.68019 0.0
C299 C 0.77856 0.20046 0.69223 0.0
C300 C 0.77637 0.1886 0.69457 0.0
C301 C 0.77527 0.2041 0.68505 0.0
C302 C 0.76792 0.1836 0.68255 0.0
C303 C 0.76762 0.16811 0.69258 0.0
O304 O 0.74501 0.13783 0.69379 0.0
O305 O 0.76422 0.13093 0.69218 0.0
O306 O 0.77476 0.15912 0.69029 0.0
O307 O 0.75553 0.16555 0.69245 0.0
H308 H 0.76822 0.14294 0.70524 0.0
H309 H 0.76938 0.14104 0.71867 0.0
H310 H 0.7425 0.11168 0.71788 0.0
H311 H 0.74137 0.11367 0.70443 0.0
H312 H 0.72812 0.11373 0.66738 0.0
H313 H 0.73797 0.12779 0.67608 0.0
H314 H 0.74818 0.13086 0.64944 0.0
H315 H 0.75762 0.14511 0.65815 0.0
H316 H 0.76757 0.19797 0.67461 0.0
H317 H 0.78239 0.20689 0.69615 0.0
H318 H 0.77866 0.1861 0.70019 0.0
H319 H 0.76368 0.17717 0.67878 0.0
C320 C 0.86249 0.50575 0.95386 0.0
C321 C 0.87326 0.5071 0.95827 0.0
C322 C 0.86036 0.50618 0.96935 0.0
C323 C 0.87222 0.50727 0.96594 0.0
C324 C 0.84956 0.50506 0.9649 0.0
C325 C 0.85063 0.50481 0.95721 0.0
U326 U 0.88225 0.51006 0.93675 0.0
O327 O 0.88506 0.49841 0.92708 0.0
O328 O 0.87738 0.51673 0.92567 0.0
C329 C 0.87991 0.50626 0.92254 0.0
C330 C 0.86365 0.50516 0.9458 0.0
C331 C 0.86997 0.5013 0.91779 0.0
C332 C 0.85047 0.49007 0.91627 0.0
C333 C 0.85944 0.49551 0.92085 0.0
C334 C 0.86227 0.49652 0.90552 0.0
C335 C 0.85186 0.49039 0.90856 0.0
C336 C 0.87126 0.5019 0.91011 0.0
C337 C 0.91606 0.52132 0.93943 0.0
C338 C 0.93206 0.52048 0.92986 0.0
C339 C 0.93711 0.52891 0.94184 0.0
C340 C 0.92477 0.52676 0.94418 0.0
C341 C 0.94096 0.52563 0.93468 0.0
C342 C 0.91969 0.51835 0.93221 0.0
C343 C 0.90351 0.51818 0.94224 0.0
O344 O 0.86485 0.51566 0.94246 0.0
O345 O 0.87158 0.49693 0.94336 0.0
O346 O 0.90064 0.50663 0.94188 0.0
O347 O 0.89423 0.52533 0.94021 0.0
H348 H 0.8825 0.50793 0.95576 0.0
H349 H 0.88069 0.50833 0.96922 0.0
H350 H 0.84031 0.50412 0.96737 0.0
H351 H 0.84221 0.50377 0.95388 0.0
H352 H 0.84248 0.48555 0.91877 0.0
H353 H 0.85828 0.49501 0.92678 0.0
H354 H 0.86369 0.49681 0.89961 0.0
H355 H 0.87936 0.50633 0.90766 0.0
H356 H 0.9347 0.51796 0.92429 0.0
H357 H 0.94375 0.53272 0.94574 0.0
H358 H 0.92212 0.52905 0.94979 0.0
H359 H 0.91304 0.51416 0.92846 0.0
C360 C 0.26091 0.13015 0.70333 0.0
C361 C 0.25353 0.13839 0.70734 0.0
C362 C 0.25929 0.1284 0.71883 0.0
C363 C 0.25268 0.1375 0.71501 0.0
C364 C 0.26657 0.12007 0.71477 0.0
C365 C 0.26738 0.12095 0.70708 0.0
U366 U 0.25742 0.14963 0.68643 0.0
O367 O 0.27024 0.15305 0.67714 0.0
O368 O 0.25144 0.14547 0.67508 0.0
C369 C 0.26245 0.14839 0.67227 0.0
C370 C 0.26239 0.13154 0.69532 0.0
C371 C 0.26804 0.13947 0.66723 0.0
C372 C 0.27864 0.12031 0.665 0.0
C373 C 0.27288 0.12846 0.66986 0.0
C374 C 0.27459 0.13402 0.65485 0.0
C375 C 0.27968 0.12305 0.65744 0.0
C376 C 0.26883 0.14215 0.6597 0.0
C377 C 0.24414 0.18153 0.68933 0.0
C378 C 0.2459 0.19779 0.68038 0.0
C379 C 0.23401 0.20086 0.69164 0.0
C380 C 0.23671 0.18901 0.69381 0.0
C381 C 0.23873 0.20546 0.68495 0.0
C382 C 0.24856 0.1859 0.68255 0.0
C383 C 0.24772 0.16947 0.69203 0.0
O384 O 0.25183 0.1324 0.69156 0.0
O385 O 0.27087 0.13957 0.69333 0.0
O386 O 0.25987 0.16715 0.69195 0.0
O387 O 0.24081 0.16039 0.68967 0.0
H388 H 0.24852 0.1456 0.70454 0.0
H389 H 0.24684 0.14395 0.71794 0.0
H390 H 0.2719 0.11305 0.71753 0.0
H391 H 0.27321 0.11458 0.70407 0.0
H392 H 0.28257 0.112 0.66719 0.0
H393 H 0.27235 0.12628 0.67568 0.0
H394 H 0.27505 0.13633 0.64905 0.0
H395 H 0.2651 0.1506 0.65759 0.0
H396 H 0.24956 0.20103 0.67517 0.0
H397 H 0.22861 0.20657 0.69534 0.0
H398 H 0.23326 0.18578 0.69908 0.0
H399 H 0.25428 0.18021 0.67901 0.0
C400 C 0.65262 0.50921 0.45438 0.0
C401 C 0.64193 0.50748 0.45881 0.0
C402 C 0.65499 0.50788 0.46985 0.0
C403 C 0.6431 0.50686 0.46647 0.0
C404 C 0.66569 0.50952 0.46537 0.0
C405 C 0.6645 0.51019 0.45769 0.0
U406 U 0.63258 0.50538 0.43736 0.0
O407 O 0.62975 0.51711 0.42774 0.0
O408 O 0.63719 0.49871 0.42622 0.0
C409 C 0.6347 0.50922 0.42314 0.0
C410 C 0.65134 0.51003 0.44633 0.0
C411 C 0.64452 0.51402 0.41824 0.0
C412 C 0.66337 0.52607 0.41626 0.0
C413 C 0.65449 0.52098 0.42104 0.0
C414 C 0.65263 0.51695 0.40585 0.0
C415 C 0.66247 0.52422 0.40859 0.0
C416 C 0.64373 0.51192 0.41064 0.0
C417 C 0.59881 0.49415 0.44006 0.0
C418 C 0.58306 0.49463 0.43035 0.0
C419 C 0.57765 0.48685 0.44244 0.0
C420 C 0.58994 0.48903 0.44484 0.0
C421 C 0.574 0.48977 0.43519 0.0
C422 C 0.59538 0.49679 0.43277 0.0
C423 C 0.61136 0.49725 0.44289 0.0
O424 O 0.65006 0.49962 0.4429 0.0
O425 O 0.6434 0.51834 0.44402 0.0
O426 O 0.61425 0.5088 0.44257 0.0
O427 O 0.62062 0.49011 0.44082 0.0
H428 H 0.63267 0.50669 0.45634 0.0
H429 H 0.63463 0.50578 0.46975 0.0
H430 H 0.67501 0.51017 0.46777 0.0
H431 H 0.67285 0.51147 0.45434 0.0
H432 H 0.67073 0.53171 0.41856 0.0
H433 H 0.65526 0.52267 0.42691 0.0
H434 H 0.65177 0.51516 0.4 0.0
H435 H 0.63613 0.5065 0.40839 0.0
H436 H 0.58058 0.49686 0.42472 0.0
H437 H 0.57088 0.48329 0.44634 0.0
H438 H 0.59244 0.487 0.4505 0.0
H439 H 0.60216 0.50073 0.429 0.0
C440 C 0.25338 0.88522 0.2039 0.0
C441 C 0.2607 0.87688 0.20787 0.0
C442 C 0.2552 0.88694 0.21939 0.0
C443 C 0.26164 0.87776 0.21553 0.0
C444 C 0.24801 0.89537 0.21536 0.0
C445 C 0.24711 0.89451 0.20768 0.0
U446 U 0.25598 0.86566 0.18692 0.0
O447 O 0.24273 0.86261 0.17777 0.0
O448 O 0.26169 0.86966 0.17552 0.0
C449 C 0.25049 0.8671 0.17284 0.0
C450 C 0.25171 0.88382 0.1959 0.0
C451 C 0.245 0.87621 0.16789 0.0
C452 C 0.23875 0.89692 0.1652 0.0
C453 C 0.24424 0.88844 0.16995 0.0
C454 C 0.23468 0.88099 0.15631 0.0
C455 C 0.23386 0.89329 0.15832 0.0
C456 C 0.24022 0.87256 0.16105 0.0
C457 C 0.26858 0.83344 0.18956 0.0
C458 C 0.2656 0.81698 0.18084 0.0
C459 C 0.27915 0.81421 0.19147 0.0
C460 C 0.2767 0.8261 0.19369 0.0
C461 C 0.27347 0.80945 0.18508 0.0
C462 C 0.2632 0.8289 0.18305 0.0
C463 C 0.26536 0.84556 0.19234 0.0
O464 O 0.26216 0.88271 0.19205 0.0
O465 O 0.24299 0.87599 0.19398 0.0
O466 O 0.25327 0.84816 0.19242 0.0
O467 O 0.27242 0.8545 0.18995 0.0
H468 H 0.26556 0.8696 0.20503 0.0
H469 H 0.2674 0.87122 0.21844 0.0
H470 H 0.2428 0.90245 0.21816 0.0
H471 H 0.24133 0.90095 0.2047 0.0
H472 H 0.23839 0.90631 0.1669 0.0
H473 H 0.24787 0.89141 0.17524 0.0
H474 H 0.23082 0.87783 0.15113 0.0
H475 H 0.24065 0.86313 0.1594 0.0
H476 H 0.26119 0.81361 0.17586 0.0
H477 H 0.28513 0.80861 0.1949 0.0
H478 H 0.28091 0.82946 0.19873 0.0
H479 H 0.25695 0.83449 0.17978 0.0
C480 C 0.86175 0.50825 0.06416 0.0
C481 C 0.87247 0.5064 0.05978 0.0
C482 C 0.85956 0.50703 0.04868 0.0
C483 C 0.8714 0.50583 0.05211 0.0
C484 C 0.84882 0.50874 0.05312 0.0
C485 C 0.84991 0.50936 0.06081 0.0
U486 U 0.88166 0.50457 0.08124 0.0
O487 O 0.88464 0.51654 0.09074 0.0
O488 O 0.87696 0.49828 0.09243 0.0
C489 C 0.87961 0.50883 0.09542 0.0
C490 C 0.86296 0.50919 0.07221 0.0
C491 C 0.86992 0.5139 0.10032 0.0
C492 C 0.8517 0.52681 0.10239 0.0
C493 C 0.86035 0.52142 0.09758 0.0
C494 C 0.86183 0.51684 0.11272 0.0
C495 C 0.85244 0.52471 0.11004 0.0
C496 C 0.8705 0.51152 0.1079 0.0
C497 C 0.91542 0.49307 0.07868 0.0
C498 C 0.93267 0.49661 0.08722 0.0
C499 C 0.93536 0.48263 0.07703 0.0
C500 C 0.92297 0.48485 0.07479 0.0
C501 C 0.94043 0.48868 0.08318 0.0
C502 C 0.92024 0.49875 0.08501 0.0
C503 C 0.90285 0.49612 0.07582 0.0
O504 O 0.86417 0.49882 0.07571 0.0
O505 O 0.87093 0.51748 0.0745 0.0
O506 O 0.89996 0.5077 0.07594 0.0
O507 O 0.89355 0.48909 0.07796 0.0
H508 H 0.88169 0.50552 0.06229 0.0
H509 H 0.87989 0.50469 0.04887 0.0
H510 H 0.83954 0.50952 0.05068 0.0
H511 H 0.84154 0.51074 0.06412 0.0
H512 H 0.84468 0.5329 0.10015 0.0
H513 H 0.85973 0.52333 0.09173 0.0
H514 H 0.86254 0.51485 0.11855 0.0
H515 H 0.87779 0.50567 0.1101 0.0
H516 H 0.93627 0.50129 0.09203 0.0
H517 H 0.94114 0.47657 0.07376 0.0
H518 H 0.91939 0.48039 0.0699 0.0
H519 H 0.9145 0.50507 0.08812 0.0
C520 C 0.25307 0.13016 0.81374 0.0
C521 C 0.26033 0.13854 0.80978 0.0
C522 C 0.25473 0.12862 0.79824 0.0
C523 C 0.26119 0.13776 0.80211 0.0
C524 C 0.24754 0.12017 0.80226 0.0
C525 C 0.24672 0.12095 0.80995 0.0
U526 U 0.25659 0.14921 0.83087 0.0
O527 O 0.24397 0.15217 0.8403 0.0
O528 O 0.26292 0.14473 0.8421 0.0
C529 C 0.25192 0.14737 0.84503 0.0
C530 C 0.25169 0.13134 0.82178 0.0
C531 C 0.24662 0.13819 0.85 0.0
C532 C 0.23329 0.12068 0.85223 0.0
C533 C 0.23869 0.129 0.84735 0.0
C534 C 0.24398 0.13044 0.86243 0.0
C535 C 0.23578 0.12137 0.85985 0.0
C536 C 0.24932 0.13878 0.85755 0.0
C537 C 0.26943 0.18134 0.82829 0.0
C538 C 0.26742 0.19745 0.83735 0.0
C539 C 0.27959 0.20071 0.82621 0.0
C540 C 0.27696 0.18889 0.82393 0.0
C541 C 0.27469 0.20519 0.83289 0.0
C542 C 0.26484 0.18559 0.83507 0.0
C543 C 0.26592 0.16934 0.82547 0.0
O544 O 0.26231 0.13221 0.82549 0.0
O545 O 0.24315 0.13924 0.8239 0.0
O546 O 0.2538 0.16689 0.8256 0.0
O547 O 0.273 0.16024 0.82765 0.0
H548 H 0.26525 0.14576 0.81263 0.0
H549 H 0.26696 0.1443 0.79922 0.0
H550 H 0.24231 0.11312 0.79945 0.0
H551 H 0.24099 0.11447 0.81292 0.0
H552 H 0.22693 0.1139 0.85005 0.0
H553 H 0.23653 0.12838 0.84152 0.0
H554 H 0.24629 0.13111 0.86823 0.0
H555 H 0.25549 0.14577 0.85969 0.0
H556 H 0.26362 0.2006 0.84255 0.0
H557 H 0.28507 0.20648 0.8226 0.0
H558 H 0.28055 0.18575 0.81867 0.0
H559 H 0.25904 0.17984 0.83852 0.0
C560 C 0.65199 0.50579 0.56462 0.0
C561 C 0.64132 0.50766 0.56019 0.0
C562 C 0.65429 0.50657 0.54914 0.0
C563 C 0.64245 0.50801 0.55252 0.0
C564 C 0.665 0.50492 0.55361 0.0
C565 C 0.66384 0.5045 0.5613 0.0
U566 U 0.63193 0.51004 0.58158 0.0
O567 O 0.62868 0.49827 0.59115 0.0
O568 O 0.63649 0.51649 0.59276 0.0
C569 C 0.63367 0.50603 0.5958 0.0
C570 C 0.65068 0.50501 0.57267 0.0
C571 C 0.64326 0.50095 0.60075 0.0
C572 C 0.66349 0.49114 0.6027 0.0
C573 C 0.65475 0.4966 0.59797 0.0
C574 C 0.64939 0.49453 0.61302 0.0
C575 C 0.66084 0.48992 0.61027 0.0
C576 C 0.64068 0.49999 0.60829 0.0
C577 C 0.59842 0.52209 0.57868 0.0
C578 C 0.58131 0.51999 0.5875 0.0
C579 C 0.57847 0.53223 0.57653 0.0
C580 C 0.59081 0.52963 0.57436 0.0
C581 C 0.5735 0.52728 0.58306 0.0
C582 C 0.59369 0.51744 0.58533 0.0
C583 C 0.61098 0.51868 0.57596 0.0
O584 O 0.64959 0.51545 0.5761 0.0
O585 O 0.64256 0.49686 0.57497 0.0
O586 O 0.61362 0.50706 0.57625 0.0
O587 O 0.62036 0.52562 0.5781 0.0
H588 H 0.63209 0.50876 0.56267 0.0
H589 H 0.63406 0.50948 0.54924 0.0
H590 H 0.67423 0.50371 0.55116 0.0
H591 H 0.67216 0.50305 0.56464 0.0
H592 H 0.67215 0.48758 0.60039 0.0
H593 H 0.65685 0.49725 0.59214 0.0
H594 H 0.64714 0.49389 0.61884 0.0
H595 H 0.63186 0.50332 0.61052 0.0
H596 H 0.57779 0.51616 0.59259 0.0
H597 H 0.57266 0.53774 0.57295 0.0
H598 H 0.59431 0.53326 0.5692 0.0
H599 H 0.59949 0.51165 0.58876 0.0
C600 C 0.2624 0.88537 0.31427 0.0
C601 C 0.25502 0.87712 0.31027 0.0
C602 C 0.26069 0.88713 0.29877 0.0
C603 C 0.25413 0.87802 0.30261 0.0
C604 C 0.26796 0.89547 0.30283 0.0
C605 C 0.26881 0.89458 0.31051 0.0
U606 U 0.25934 0.86571 0.33112 0.0
O607 O 0.27228 0.86248 0.34039 0.0
O608 O 0.25328 0.86958 0.34247 0.0
C609 C 0.26437 0.86692 0.34527 0.0
C610 C 0.26394 0.88395 0.32228 0.0
C611 C 0.2697 0.87594 0.35034 0.0
C612 C 0.27702 0.89633 0.35297 0.0
C613 C 0.27177 0.88792 0.34808 0.0
C614 C 0.27817 0.88083 0.3624 0.0
C615 C 0.28031 0.89287 0.3602 0.0
C616 C 0.27291 0.87246 0.35751 0.0
C617 C 0.24646 0.8336 0.32798 0.0
C618 C 0.25025 0.8158 0.33554 0.0
C619 C 0.23413 0.81536 0.32608 0.0
C620 C 0.23688 0.82736 0.32427 0.0
C621 C 0.24097 0.80934 0.33163 0.0
C622 C 0.25295 0.82784 0.33374 0.0
C623 C 0.24996 0.84579 0.32545 0.0
O624 O 0.25342 0.8829 0.32606 0.0
O625 O 0.27257 0.87604 0.32422 0.0
O626 O 0.26208 0.84828 0.32553 0.0
O627 O 0.24289 0.85476 0.32784 0.0
H628 H 0.25005 0.8699 0.31308 0.0
H629 H 0.24829 0.87156 0.29969 0.0
H630 H 0.27326 0.90249 0.30005 0.0
H631 H 0.27464 0.90095 0.31351 0.0
H632 H 0.27842 0.90555 0.35112 0.0
H633 H 0.26934 0.89075 0.34254 0.0
H634 H 0.28079 0.87779 0.36787 0.0
H635 H 0.27143 0.86322 0.35933 0.0
H636 H 0.25575 0.81143 0.33981 0.0
H637 H 0.22676 0.81074 0.32306 0.0
H638 H 0.23172 0.83168 0.31984 0.0
H639 H 0.26035 0.83254 0.3367 0.0
C640 C 0.6553 0.02314 0.56322 0.0
C641 C 0.64668 0.01539 0.55974 0.0
C642 C 0.65728 0.01845 0.54796 0.0
C643 C 0.64769 0.01302 0.55219 0.0
C644 C 0.66597 0.02613 0.55151 0.0
C645 C 0.66497 0.02845 0.55908 0.0
U646 U 0.6347 0.02418 0.58015 0.0
O647 O 0.63866 0.0203 0.59184 0.0
O648 O 0.63191 0.0383 0.58853 0.0
C649 C 0.63632 0.0315 0.59389 0.0
C650 C 0.65383 0.02615 0.57107 0.0
C651 C 0.64595 0.03717 0.59857 0.0
C652 C 0.66537 0.04857 0.60003 0.0
C653 C 0.65661 0.04273 0.59549 0.0
C654 C 0.65307 0.04306 0.61078 0.0
C655 C 0.66365 0.04888 0.60773 0.0
C656 C 0.6443 0.03728 0.60623 0.0
C657 C 0.60077 0.01289 0.57804 0.0
C658 C 0.5838 0.01747 0.58661 0.0
C659 C 0.58028 1.00347 0.57652 0.0
C660 C 0.59275 1.00502 0.57422 0.0
C661 C 0.57561 0.00981 0.58267 0.0
C662 C 0.59631 0.01898 0.58432 0.0
C663 C 0.6135 0.0151 0.57516 0.0
O664 O 0.64596 0.03508 0.57243 0.0
O665 O 0.65229 0.01686 0.57551 0.0
O666 O 0.62255 0.0084 0.57798 0.0
O667 O 0.61663 0.02655 0.57445 0.0
H668 H 0.6391 0.01126 0.56284 0.0
H669 H 0.64096 1.00693 0.54967 0.0
H670 H 0.67335 0.03059 0.54842 0.0
H671 H 0.67164 0.03454 0.56167 0.0
H672 H 0.67349 0.05285 0.59752 0.0
H673 H 0.65806 0.04267 0.58958 0.0
H674 H 0.65138 0.04326 0.61667 0.0
H675 H 0.63611 0.03303 0.6087 0.0
H676 H 0.58051 0.02238 0.59141 0.0
H677 H 0.57419 0.99763 0.57331 0.0
H678 H 0.59604 1.00028 0.56935 0.0
H679 H 0.60241 0.02506 0.58736 0.0
C680 C 0.25512 0.40994 0.81421 0.0
C681 C 0.25694 0.39973 0.80974 0.0
C682 C 0.25663 0.41241 0.79875 0.0
C683 C 0.25765 0.40094 0.80208 0.0
C684 C 0.25494 0.42264 0.80329 0.0
C685 C 0.25418 0.42141 0.81096 0.0
U686 U 0.2585 0.39031 0.8311 0.0
O687 O 0.26519 0.3943 0.84232 0.0
O688 O 0.24595 0.38756 0.84059 0.0
C689 C 0.25416 0.39198 0.84531 0.0
C690 C 0.25407 0.40859 0.82225 0.0
C691 C 0.2492 0.40131 0.85029 0.0
C692 C 0.24131 0.42166 0.85248 0.0
C693 C 0.24655 0.41302 0.84773 0.0
C694 C 0.24143 0.40695 0.8624 0.0
C695 C 0.23861 0.41869 0.85986 0.0
C696 C 0.24668 0.39835 0.85764 0.0
C697 C 0.27006 0.35781 0.82817 0.0
C698 C 0.2673 0.34142 0.83696 0.0
C699 C 0.28033 0.33845 0.82613 0.0
C700 C 0.2779 0.35035 0.82393 0.0
C701 C 0.2749 0.33379 0.83261 0.0
C702 C 0.26493 0.35336 0.83477 0.0
C703 C 0.26692 0.36997 0.82546 0.0
O704 O 0.24528 0.40102 0.82444 0.0
O705 O 0.26481 0.40716 0.82576 0.0
O706 O 0.27439 0.37876 0.82764 0.0
O707 O 0.25491 0.37286 0.8257 0.0
H708 H 0.2577 0.39079 0.81217 0.0
H709 H 0.25876 0.39284 0.79877 0.0
H710 H 0.25429 0.43162 0.80092 0.0
H711 H 0.25283 0.42939 0.81435 0.0
H712 H 0.23938 0.43064 0.85037 0.0
H713 H 0.24843 0.41544 0.84204 0.0
H714 H 0.23929 0.40429 0.868 0.0
H715 H 0.2486 0.38932 0.85969 0.0
H716 H 0.26309 0.33812 0.84202 0.0
H717 H 0.28609 0.33277 0.8226 0.0
H718 H 0.28193 0.35364 0.81882 0.0
H719 H 0.25891 0.35903 0.83815 0.0
C720 C 0.85935 0.99186 0.06302 0.0
C721 C 0.87 0.99477 0.0588 0.0
C722 C 0.85687 0.99724 0.04788 0.0
C723 C 0.86878 0.99739 0.0513 0.0
C724 C 0.8462 0.9944 0.05217 0.0
C725 C 0.84745 0.99173 0.05969 0.0
U726 U 0.88017 0.99066 0.07977 0.0
O727 O 0.87663 0.99445 0.0915 0.0
O728 O 0.88326 0.97647 0.08806 0.0
C729 C 0.87918 0.98327 0.09351 0.0
C730 C 0.86078 0.98886 0.07087 0.0
C731 C 0.86998 0.9775 0.09842 0.0
C732 C 0.84896 0.96981 0.10096 0.0
C733 C 0.85739 0.97583 0.09628 0.0
C734 C 0.86564 0.9672 0.10995 0.0
C735 C 0.85304 0.96531 0.10781 0.0
C736 C 0.87401 0.97324 0.1053 0.0
C737 C 0.91408 1.00172 0.07735 0.0
C738 C 0.93127 0.99681 0.08569 0.0
C739 C 0.93445 0.01139 0.07588 0.0
C740 C 0.92196 0.00986 0.07364 0.0
C741 C 0.93931 1.00475 0.08186 0.0
C742 C 0.91874 0.99533 0.08346 0.0
C743 C 0.90127 0.99962 0.07456 0.0
O744 O 0.86851 0.97983 0.07223 0.0
O745 O 0.86255 0.99819 0.07527 0.0
O746 O 0.89236 1.00637 0.07749 0.0
O747 O 0.89802 0.9882 0.07383 0.0
H748 H 0.87928 0.9949 0.06129 0.0
H749 H 0.87723 0.99933 0.04816 0.0
H750 H 0.83688 0.99435 0.04974 0.0
H751 H 0.83913 0.98954 0.06289 0.0
H752 H 0.83935 0.96841 0.09914 0.0
H753 H 0.85414 0.97903 0.09096 0.0
H754 H 0.86902 0.964 0.11524 0.0
H755 H 0.8837 0.97448 0.10703 0.0
H756 H 0.9347 0.99167 0.09036 0.0
H757 H 0.94043 0.01746 0.07276 0.0
H758 H 0.91851 0.01484 0.06891 0.0
H759 H 0.91274 0.98905 0.08642 0.0
C760 C 0.26045 0.60445 0.31417 0.0
C761 C 0.25872 0.61475 0.30976 0.0
C762 C 0.25984 0.60235 0.29869 0.0
C763 C 0.25846 0.61372 0.30209 0.0
C764 C 0.26132 0.59201 0.30314 0.0
C765 C 0.26167 0.59307 0.31083 0.0
U766 U 0.25619 0.62389 0.33105 0.0
O767 O 0.24922 0.61978 0.34221 0.0
O768 O 0.26836 0.6269 0.34067 0.0
C769 C 0.2601 0.62238 0.34531 0.0
C770 C 0.26117 0.60568 0.32223 0.0
C771 C 0.2651 0.61324 0.3504 0.0
C772 C 0.27496 0.59373 0.35269 0.0
C773 C 0.26954 0.60204 0.3478 0.0
C774 C 0.27135 0.60767 0.3628 0.0
C775 C 0.27607 0.59653 0.36023 0.0
C776 C 0.26592 0.61594 0.35792 0.0
C777 C 0.24432 0.65634 0.32787 0.0
C778 C 0.24854 0.67422 0.33529 0.0
C779 C 0.23181 0.67454 0.3262 0.0
C780 C 0.23449 0.66253 0.32436 0.0
C781 C 0.23899 0.68064 0.33158 0.0
C782 C 0.25116 0.66217 0.33347 0.0
C783 C 0.24771 0.64411 0.32531 0.0
O784 O 0.2698 0.6133 0.32457 0.0
O785 O 0.25029 0.60697 0.32561 0.0
O786 O 0.24026 0.63527 0.32743 0.0
O787 O 0.25974 0.64131 0.32564 0.0
H788 H 0.25767 0.62362 0.31226 0.0
H789 H 0.25711 0.62182 0.29882 0.0
H790 H 0.26248 0.58315 0.30066 0.0
H791 H 0.263 0.58503 0.31416 0.0
H792 H 0.27861 0.58528 0.35052 0.0
H793 H 0.269 0.59984 0.34198 0.0
H794 H 0.27189 0.61002 0.36859 0.0
H795 H 0.26251 0.62454 0.36001 0.0
H796 H 0.25432 0.67864 0.33941 0.0
H797 H 0.22423 0.67912 0.32333 0.0
H798 H 0.22906 0.65815 0.32005 0.0
H799 H 0.25876 0.65753 0.33629 0.0
C800 C 0.65547 0.99336 0.45423 0.0
C801 C 0.64665 1.00092 0.45771 0.0
C802 C 0.65737 0.99819 0.46947 0.0
C803 C 0.64763 1.00336 0.46525 0.0
C804 C 0.66627 0.99072 0.46593 0.0
C805 C 0.66531 0.98832 0.45836 0.0
U806 U 0.63439 0.99135 0.4376 0.0
O807 O 0.63751 0.99531 0.42586 0.0
O808 O 0.63186 0.97704 0.4293 0.0
C809 C 0.63554 0.98403 0.42385 0.0
C810 C 0.65395 0.9902 0.4464 0.0
C811 C 0.64504 0.97875 0.41891 0.0
C812 C 0.66642 0.97201 0.41639 0.0
C813 C 0.6576 0.97729 0.42116 0.0
C814 C 0.65017 0.96967 0.4071 0.0
C815 C 0.66279 0.96811 0.4093 0.0
C816 C 0.64139 0.97494 0.41186 0.0
C817 C 0.60015 1.00131 0.44022 0.0
C818 C 0.58391 0.99791 0.43101 0.0
C819 C 0.5787 0.0079 0.44252 0.0
C820 C 0.59123 1.0069 0.44479 0.0
C821 C 0.57484 1.0033 0.43564 0.0
C822 C 0.59648 0.99694 0.43328 0.0
C823 C 0.61306 0.99962 0.44294 0.0
O824 O 0.64646 0.98095 0.44516 0.0
O825 O 0.65186 0.99937 0.44194 0.0
O826 O 0.62168 1.00664 0.43998 0.0
O827 O 0.61669 0.9883 0.44359 0.0
H828 H 0.63893 1.00483 0.45461 0.0
H829 H 0.64072 0.0093 0.46776 0.0
H830 H 0.67379 0.98646 0.46902 0.0
H831 H 0.67213 0.98237 0.45577 0.0
H832 H 0.67608 0.97104 0.41823 0.0
H833 H 0.66055 0.98019 0.4266 0.0
H834 H 0.64699 0.96658 0.40174 0.0
H835 H 0.63171 0.97595 0.41006 0.0
H836 H 0.58128 0.99439 0.42565 0.0
H837 H 0.57194 0.01192 0.44628 0.0
H838 H 0.59392 0.01027 0.45018 0.0
H839 H 0.60329 0.99261 0.42969 0.0
C840 C 0.25963 0.40976 0.70399 0.0
C841 C 0.25791 0.39953 0.70846 0.0
C842 C 0.25889 0.41212 0.71946 0.0
C843 C 0.25759 0.40069 0.71613 0.0
C844 C 0.26035 0.42239 0.71495 0.0
C845 C 0.26075 0.4212 0.70727 0.0
U846 U 0.25537 0.39029 0.6871 0.0
O847 O 0.24884 0.39451 0.67587 0.0
O848 O 0.26777 0.387 0.67761 0.0
C849 C 0.25976 0.3917 0.67288 0.0
C850 C 0.26047 0.40843 0.69594 0.0
C851 C 0.26515 0.40072 0.66786 0.0
C852 C 0.27416 0.42059 0.66558 0.0
C853 C 0.26826 0.41238 0.67034 0.0
C854 C 0.27372 0.40559 0.65582 0.0
C855 C 0.27712 0.41721 0.6583 0.0
C856 C 0.26778 0.39743 0.66056 0.0
C857 C 0.24305 0.3581 0.69005 0.0
C858 C 0.24541 0.34175 0.68118 0.0
C859 C 0.23286 0.33876 0.6922 0.0
C860 C 0.23538 0.35065 0.69439 0.0
C861 C 0.23801 0.33411 0.68563 0.0
C862 C 0.24788 0.35367 0.68336 0.0
C863 C 0.24642 0.3702 0.69277 0.0
O864 O 0.269 0.40063 0.69368 0.0
O865 O 0.24963 0.40731 0.6925 0.0
O866 O 0.23918 0.37915 0.69056 0.0
O867 O 0.2585 0.37281 0.69254 0.0
H868 H 0.25693 0.39062 0.70602 0.0
H869 H 0.25627 0.39264 0.71945 0.0
H870 H 0.26145 0.4313 0.71737 0.0
H871 H 0.26207 0.42919 0.70389 0.0
H872 H 0.27677 0.42943 0.66767 0.0
H873 H 0.26634 0.41504 0.67598 0.0
H874 H 0.27571 0.40277 0.65021 0.0
H875 H 0.26543 0.38845 0.65857 0.0
H876 H 0.2494 0.33846 0.67606 0.0
H877 H 0.22726 0.33308 0.69579 0.0
H878 H 0.2316 0.35393 0.69957 0.0
H879 H 0.25377 0.35934 0.67992 0.0
C880 C 0.86025 0.02416 0.95447 0.0
C881 C 0.87101 0.02152 0.95867 0.0
C882 C 0.85811 0.01936 0.96969 0.0
C883 C 0.86996 0.01917 0.96621 0.0
C884 C 0.84731 0.02181 0.96542 0.0
C885 C 0.84839 0.02423 0.95787 0.0
U886 U 0.88078 0.02545 0.93758 0.0
O887 O 0.87717 0.02129 0.92591 0.0
O888 O 0.88325 0.03955 0.92914 0.0
C889 C 0.87923 0.0325 0.92379 0.0
C890 C 0.86151 0.027 0.94658 0.0
C891 C 0.86965 0.03787 0.91894 0.0
C892 C 0.84789 0.04286 0.91605 0.0
C893 C 0.85678 0.03748 0.92073 0.0
C894 C 0.86466 0.04908 0.90782 0.0
C895 C 0.85173 0.04875 0.90954 0.0
C896 C 0.87351 0.04368 0.91247 0.0
C897 C 0.91501 0.01505 0.93989 0.0
C898 C 0.93199 0.01977 0.93138 0.0
C899 C 0.9355 1.00559 0.94136 0.0
C900 C 0.92303 1.00712 0.94366 0.0
C901 C 0.94017 0.012 0.93525 0.0
C902 C 0.91949 0.02125 0.93367 0.0
C903 C 0.90219 0.01705 0.94272 0.0
O904 O 0.86899 0.03616 0.94512 0.0
O905 O 0.86345 0.01761 0.94226 0.0
O906 O 0.89338 0.01006 0.93993 0.0
O907 O 0.89873 0.02844 0.94332 0.0
H908 H 0.88025 0.02135 0.95611 0.0
H909 H 0.87842 0.01714 0.96931 0.0
H910 H 0.83807 0.02209 0.96796 0.0
H911 H 0.83999 0.02625 0.9547 0.0
H912 H 0.838 0.04233 0.91752 0.0
H913 H 0.85364 0.03306 0.92573 0.0
H914 H 0.868 0.05373 0.90294 0.0
H915 H 0.88342 0.04413 0.91104 0.0
H916 H 0.93529 0.02474 0.92661 0.0
H917 H 0.94159 0.99967 0.94453 0.0
H918 H 0.91973 1.00228 0.94849 0.0
H919 H 0.91338 0.02737 0.93066 0.0
C920 C 0.25585 0.60465 0.20389 0.0
C921 C 0.25797 0.6149 0.20828 0.0
C922 C 0.25758 0.60244 0.21935 0.0
C923 C 0.25879 0.61382 0.21593 0.0
C924 C 0.25558 0.59216 0.2149 0.0
C925 C 0.25471 0.59327 0.20723 0.0
U926 U 0.25867 0.62414 0.18692 0.0
O927 O 0.26524 0.62016 0.17567 0.0
O928 O 0.24591 0.62663 0.17749 0.0
C929 C 0.25411 0.62225 0.17275 0.0
C930 C 0.25464 0.60589 0.19586 0.0
C931 C 0.24921 0.61276 0.16786 0.0
C932 C 0.24345 0.59181 0.16554 0.0
C933 C 0.2486 0.60065 0.17017 0.0
C934 C 0.23949 0.60712 0.15625 0.0
C935 C 0.23876 0.59495 0.15853 0.0
C936 C 0.24469 0.61592 0.16087 0.0
C937 C 0.26984 0.6568 0.18971 0.0
C938 C 0.26718 0.67292 0.18073 0.0
C939 C 0.27954 0.67639 0.19177 0.0
C940 C 0.27726 0.6645 0.19403 0.0
C941 C 0.27439 0.68079 0.18515 0.0
C942 C 0.26496 0.66099 0.18299 0.0
C943 C 0.26688 0.64462 0.19246 0.0
O944 O 0.24571 0.61334 0.1937 0.0
O945 O 0.2653 0.60741 0.19228 0.0
O946 O 0.27444 0.6359 0.19027 0.0
O947 O 0.2549 0.64161 0.19227 0.0
H948 H 0.25885 0.62377 0.20578 0.0
H949 H 0.26013 0.62195 0.21918 0.0
H950 H 0.25477 0.58324 0.21734 0.0
H951 H 0.25311 0.58525 0.2039 0.0
H952 H 0.24315 0.58253 0.16744 0.0
H953 H 0.25202 0.59807 0.17558 0.0
H954 H 0.23578 0.60991 0.15095 0.0
H955 H 0.245 0.62525 0.15903 0.0
H956 H 0.26319 0.67601 0.17557 0.0
H957 H 0.28498 0.68225 0.19535 0.0
H958 H 0.28108 0.6614 0.19924 0.0
H959 H 0.25925 0.65512 0.17956 0.0
C960 C 0.36081 0.99142 0.45469 0.0
C961 C 0.37159 0.9939 0.45891 0.0
C962 C 0.35869 0.99619 0.46992 0.0
C963 C 0.37055 0.99623 0.46645 0.0
C964 C 0.34788 0.9939 0.46564 0.0
C965 C 0.34894 0.9915 0.45808 0.0
U966 U 0.38138 0.98996 0.43783 0.0
O967 O 0.38374 0.97592 0.42935 0.0
O968 O 0.37786 0.99425 0.42616 0.0
C969 C 0.37984 0.98303 0.42401 0.0
C970 C 0.36205 0.98862 0.4468 0.0
C971 C 0.37023 0.9778 0.41913 0.0
C972 C 0.34876 0.97127 0.41672 0.0
C973 C 0.35764 0.97667 0.42139 0.0
C974 C 0.36499 0.96816 0.40751 0.0
C975 C 0.35234 0.9669 0.40973 0.0
C976 C 0.37383 0.97357 0.41217 0.0
C977 C 0.41572 0.9998 0.44024 0.0
C978 C 0.43198 0.99613 0.43107 0.0
C979 C 0.43695 1.00724 0.44223 0.0
C980 C 0.42447 1.00604 0.44458 0.0
C981 C 0.44089 1.00218 0.43548 0.0
C982 C 0.41947 0.99496 0.43342 0.0
C983 C 0.40288 0.99801 0.44305 0.0
O984 O 0.36413 0.998 0.44251 0.0
O985 O 0.36941 0.97936 0.4453 0.0
O986 O 0.39925 0.98668 0.4436 0.0
O987 O 0.39418 1.00515 0.44025 0.0
H988 H 0.38084 0.99396 0.45636 0.0
H989 H 0.37903 0.99815 0.46956 0.0
H990 H 0.33862 0.99373 0.46817 0.0
H991 H 0.34053 0.98961 0.4549 0.0
H992 H 0.33908 0.97055 0.41858 0.0
H993 H 0.35472 0.97988 0.42678 0.0
H994 H 0.36814 0.96472 0.40223 0.0
H995 H 0.38354 0.97431 0.41036 0.0
H996 H 0.43469 0.99224 0.42582 0.0
H997 H 0.44359 0.01179 0.44581 0.0
H998 H 0.42172 0.00979 0.44986 0.0
H999 H 0.41278 0.99014 0.42999 0.0
C1000 C 0.76082 0.60734 0.20412 0.0
C1001 C 0.75906 0.61761 0.20857 0.0
C1002 C 0.76013 0.60512 0.2196 0.0
C1003 C 0.75876 0.61652 0.21624 0.0
C1004 C 0.76167 0.59482 0.21511 0.0
C1005 C 0.76205 0.59594 0.20743 0.0
U1006 U 0.75622 0.62644 0.18708 0.0
O1007 O 0.76839 0.62938 0.17746 0.0
O1008 O 0.74945 0.62179 0.17596 0.0
C1009 C 0.76033 0.62438 0.17287 0.0
C1010 C 0.76154 0.60856 0.19607 0.0
C1011 C 0.76565 0.61493 0.1681 0.0
C1012 C 0.77719 0.5961 0.16656 0.0
C1013 C 0.77144 0.60467 0.17114 0.0
C1014 C 0.7711 0.60781 0.15584 0.0
C1015 C 0.77721 0.59765 0.15886 0.0
C1016 C 0.76539 0.61639 0.16043 0.0
C1017 C 0.74378 0.6587 0.18983 0.0
C1018 C 0.74557 0.67478 0.18075 0.0
C1019 C 0.73383 0.67816 0.19204 0.0
C1020 C 0.73646 0.66632 0.19428 0.0
C1021 C 0.73852 0.68259 0.1853 0.0
C1022 C 0.74815 0.6629 0.18299 0.0
C1023 C 0.7473 0.64668 0.1926 0.0
O1024 O 0.75063 0.60958 0.19268 0.0
O1025 O 0.76999 0.61635 0.19371 0.0
O1026 O 0.75939 0.64412 0.19229 0.0
O1027 O 0.74005 0.63764 0.19053 0.0
H1028 H 0.758 0.62649 0.2061 0.0
H1029 H 0.75737 0.62459 0.21954 0.0
H1030 H 0.76284 0.58594 0.21755 0.0
H1031 H 0.76341 0.58792 0.20407 0.0
H1032 H 0.78169 0.58829 0.16905 0.0
H1033 H 0.77168 0.60339 0.17707 0.0
H1034 H 0.77107 0.60934 0.14994 0.0
H1035 H 0.76098 0.62429 0.158 0.0
H1036 H 0.7492 0.67789 0.1755 0.0
H1037 H 0.72853 0.68397 0.19571 0.0
H1038 H 0.73304 0.66322 0.19958 0.0
H1039 H 0.75378 0.6571 0.17947 0.0
C1040 C 0.15391 0.02492 0.95498 0.0
C1041 C 0.1431 0.02247 0.95918 0.0
C1042 C 0.15593 0.02023 0.97022 0.0
C1043 C 0.14409 0.02018 0.96673 0.0
C1044 C 0.16677 0.02253 0.96597 0.0
C1045 C 0.16575 0.02489 0.9584 0.0
U1046 U 0.13375 0.02572 0.93791 0.0
O1047 O 0.13148 0.03944 0.92926 0.0
O1048 O 0.13783 0.02112 0.92633 0.0
C1049 C 0.13581 0.03226 0.92405 0.0
C1050 C 0.15277 0.02755 0.94707 0.0
C1051 C 0.14562 0.03748 0.91929 0.0
C1052 C 0.16481 0.04915 0.91764 0.0
C1053 C 0.15597 0.04367 0.92229 0.0
C1054 C 0.15324 0.04199 0.90698 0.0
C1055 C 0.16348 0.04846 0.90993 0.0
C1056 C 0.14438 0.03657 0.91163 0.0
C1057 C 0.09945 0.01535 0.94003 0.0
C1058 C 0.08227 0.02043 0.93172 0.0
C1059 C 0.0792 1.00536 0.94126 0.0
C1060 C 0.09165 1.00694 0.94357 0.0
C1061 C 0.07431 0.0122 0.93538 0.0
C1062 C 0.09477 0.02196 0.93401 0.0
C1063 C 0.1122 0.01746 0.94292 0.0
O1064 O 0.15096 0.01804 0.94284 0.0
O1065 O 0.14529 0.03666 0.94545 0.0
O1066 O 0.11564 0.02886 0.94344 0.0
O1067 O 0.12111 0.01038 0.9403 0.0
H1068 H 0.13388 0.02237 0.95661 0.0
H1069 H 0.13559 0.01825 0.96982 0.0
H1070 H 0.176 0.02271 0.96851 0.0
H1071 H 0.17419 0.02675 0.95524 0.0
H1072 H 0.17268 0.05396 0.92008 0.0
H1073 H 0.15711 0.0444 0.92821 0.0
H1074 H 0.15186 0.0414 0.90107 0.0
H1075 H 0.13644 0.03183 0.90923 0.0
H1076 H 0.07881 0.02574 0.92713 0.0
H1077 H 0.07328 0.99907 0.94426 0.0
H1078 H 0.09511 1.00179 0.94823 0.0
H1079 H 0.1007 0.02845 0.93118 0.0
C1080 C 0.75529 0.40894 0.70327 0.0
C1081 C 0.75744 0.39878 0.70774 0.0
C1082 C 0.75632 0.41139 0.71873 0.0
C1083 C 0.75792 0.39999 0.7154 0.0
C1084 C 0.7544 0.42159 0.71422 0.0
C1085 C 0.75385 0.42036 0.70654 0.0
U1086 U 0.7589 0.38917 0.68647 0.0
O1087 O 0.74638 0.38608 0.67701 0.0
O1088 O 0.7655 0.39308 0.67521 0.0
C1089 C 0.75449 0.39055 0.67226 0.0
C1090 C 0.75431 0.40754 0.69524 0.0
C1091 C 0.74932 0.39974 0.66726 0.0
C1092 C 0.73932 0.41923 0.66519 0.0
C1093 C 0.74497 0.41089 0.66996 0.0
C1094 C 0.74254 0.40542 0.65496 0.0
C1095 C 0.73789 0.41652 0.65765 0.0
C1096 C 0.74819 0.39711 0.65973 0.0
C1097 C 0.77044 0.35675 0.68963 0.0
C1098 C 0.77007 0.3413 0.68009 0.0
C1099 C 0.77744 0.33634 0.69237 0.0
C1100 C 0.77533 0.34828 0.6946 0.0
C1101 C 0.77469 0.33266 0.68512 0.0
C1102 C 0.76796 0.35326 0.68233 0.0
C1103 C 0.76736 0.36896 0.69226 0.0
O1104 O 0.76508 0.40612 0.69176 0.0
O1105 O 0.74557 0.39991 0.69305 0.0
O1106 O 0.75534 0.37182 0.69199 0.0
O1107 O 0.7748 0.3777 0.68998 0.0
H1108 H 0.75865 0.3899 0.70529 0.0
H1109 H 0.7596 0.39199 0.71872 0.0
H1110 H 0.75305 0.43047 0.71663 0.0
H1111 H 0.75218 0.42829 0.70316 0.0
H1112 H 0.73573 0.42764 0.66744 0.0
H1113 H 0.74574 0.41303 0.67577 0.0
H1114 H 0.74176 0.40313 0.64917 0.0
H1115 H 0.75152 0.38853 0.65757 0.0
H1116 H 0.76797 0.33878 0.67445 0.0
H1117 H 0.78081 0.3299 0.69642 0.0
H1118 H 0.77722 0.35083 0.70026 0.0
H1119 H 0.76418 0.35973 0.67842 0.0
C1120 C 0.36167 0.02529 0.56314 0.0
C1121 C 0.37234 0.02234 0.55894 0.0
C1122 C 0.35929 0.01992 0.54799 0.0
C1123 C 0.37117 0.01972 0.55144 0.0
C1124 C 0.3486 0.02283 0.55225 0.0
C1125 C 0.34979 0.0255 0.55977 0.0
U1126 U 0.3823 0.02623 0.57998 0.0
O1127 O 0.38511 0.04015 0.58848 0.0
O1128 O 0.3786 0.02201 0.59165 0.0
C1129 C 0.38098 0.03314 0.59382 0.0
C1130 C 0.36302 0.02816 0.57102 0.0
C1131 C 0.3716 0.03865 0.59874 0.0
C1132 C 0.35144 0.04856 0.6008 0.0
C1133 C 0.35996 0.0428 0.59606 0.0
C1134 C 0.36603 0.04586 0.61095 0.0
C1135 C 0.35445 0.05029 0.60829 0.0
C1136 C 0.37452 0.04011 0.60621 0.0
C1137 C 0.41629 0.01517 0.57759 0.0
C1138 C 0.43359 0.01988 0.58589 0.0
C1139 C 0.43645 1.00503 0.57619 0.0
C1140 C 0.42399 1.00679 0.57394 0.0
C1141 C 0.44145 0.01167 0.58213 0.0
C1142 C 0.42108 0.02159 0.58366 0.0
C1143 C 0.4035 0.01743 0.57479 0.0
O1144 O 0.36477 0.01876 0.57534 0.0
O1145 O 0.37071 0.03718 0.57248 0.0
O1146 O 0.40027 0.02888 0.57421 0.0
O1147 O 0.39455 0.01059 0.57757 0.0
H1148 H 0.3816 0.02214 0.56146 0.0
H1149 H 0.37963 0.01771 0.54832 0.0
H1150 H 0.33929 0.02293 0.5498 0.0
H1151 H 0.34145 0.02771 0.56295 0.0
H1152 H 0.34265 0.05195 0.59857 0.0
H1153 H 0.35758 0.04174 0.59028 0.0
H1154 H 0.36856 0.04685 0.61671 0.0
H1155 H 0.38344 0.03691 0.60837 0.0
H1156 H 0.43713 0.02504 0.59053 0.0
H1157 H 0.44229 0.99876 0.57311 0.0
H1158 H 0.42044 1.00178 0.56924 0.0
H1159 H 0.41523 0.02805 0.58658 0.0
C1160 C 0.75524 0.60611 0.31437 0.0
C1161 C 0.75686 0.61646 0.31 0.0
C1162 C 0.75697 0.60404 0.29889 0.0
C1163 C 0.75767 0.61545 0.30234 0.0
C1164 C 0.75548 0.59367 0.30333 0.0
C1165 C 0.75461 0.59471 0.311 0.0
U1166 U 0.75823 0.62529 0.33149 0.0
O1167 O 0.74559 0.62769 0.34097 0.0
O1168 O 0.76483 0.62092 0.3427 0.0
C1169 C 0.75372 0.62304 0.34565 0.0
C1170 C 0.75411 0.60723 0.32241 0.0
C1171 C 0.74871 0.61338 0.35037 0.0
C1172 C 0.73759 0.59432 0.35183 0.0
C1173 C 0.74297 0.60312 0.34728 0.0
C1174 C 0.74396 0.60577 0.36261 0.0
C1175 C 0.73792 0.5956 0.35955 0.0
C1176 C 0.74928 0.6146 0.35805 0.0
C1177 C 0.76929 0.65801 0.32892 0.0
C1178 C 0.76771 0.67341 0.33845 0.0
C1179 C 0.77697 0.67833 0.32661 0.0
C1180 C 0.77503 0.66644 0.32425 0.0
C1181 C 0.77318 0.68201 0.3337 0.0
C1182 C 0.76579 0.66149 0.33608 0.0
C1183 C 0.76641 0.64587 0.32609 0.0
O1184 O 0.7648 0.60868 0.32596 0.0
O1185 O 0.7452 0.61465 0.32466 0.0
O1186 O 0.75444 0.64285 0.32628 0.0
O1187 O 0.77398 0.63714 0.32825 0.0
H1188 H 0.75737 0.62535 0.31252 0.0
H1189 H 0.75862 0.62364 0.29911 0.0
H1190 H 0.75508 0.58473 0.30087 0.0
H1191 H 0.75342 0.58662 0.31431 0.0
H1192 H 0.73315 0.58652 0.34931 0.0
H1193 H 0.74251 0.60202 0.34135 0.0
H1194 H 0.74425 0.6071 0.36853 0.0
H1195 H 0.75366 0.62248 0.36052 0.0
H1196 H 0.76481 0.67593 0.34397 0.0
H1197 H 0.78103 0.68475 0.32277 0.0
H1198 H 0.77773 0.6639 0.31869 0.0
H1199 H 0.76136 0.65505 0.33977 0.0
C1200 C 0.15341 0.99039 0.06334 0.0
C1201 C 0.1427 0.99323 0.05916 0.0
C1202 C 0.15568 0.99588 0.0482 0.0
C1203 C 0.14381 0.99591 0.05166 0.0
C1204 C 0.16642 0.99307 0.05244 0.0
C1205 C 0.16528 0.99034 0.05995 0.0
U1206 U 0.13273 0.9892 0.08013 0.0
O1207 O 0.1301 0.97526 0.08864 0.0
O1208 O 0.13618 0.99355 0.09179 0.0
C1209 C 0.134 0.98239 0.09397 0.0
C1210 C 0.15211 0.9875 0.07121 0.0
C1211 C 0.14345 0.97712 0.09894 0.0
C1212 C 0.1647 0.97002 0.10147 0.0
C1213 C 0.15596 0.97533 0.09667 0.0
C1214 C 0.14849 0.96832 0.11083 0.0
C1215 C 0.16105 0.96643 0.10861 0.0
C1216 C 0.13979 0.97362 0.10604 0.0
C1217 C 0.09864 0.99989 0.07758 0.0
C1218 C 0.08153 0.99561 0.0861 0.0
C1219 C 0.07827 0.0095 0.07594 0.0
C1220 C 0.09074 0.00777 0.07369 0.0
C1221 C 0.07347 1.00333 0.08212 0.0
C1222 C 0.09404 0.99393 0.08387 0.0
C1223 C 0.11147 0.9977 0.07484 0.0
O1224 O 0.15021 0.99688 0.07554 0.0
O1225 O 0.14455 0.97837 0.07266 0.0
O1226 O 0.11483 0.98628 0.07432 0.0
O1227 O 0.12032 1.00466 0.07763 0.0
H1228 H 0.13344 0.9933 0.06169 0.0
H1229 H 0.13531 0.99783 0.04856 0.0
H1230 H 0.17572 0.9931 0.04997 0.0
H1231 H 0.17366 0.98821 0.06312 0.0
H1232 H 0.17432 0.9688 0.09961 0.0
H1233 H 0.15892 0.97799 0.09118 0.0
H1234 H 0.14528 0.96547 0.11623 0.0
H1235 H 0.13015 0.97488 0.10786 0.0
H1236 H 0.07815 0.99083 0.09092 0.0
H1237 H 0.07227 0.01537 0.07268 0.0
H1238 H 0.09414 0.01242 0.06882 0.0
H1239 H 0.10006 0.98785 0.08697 0.0
C1240 C 0.76066 0.40934 0.81342 0.0
C1241 C 0.75894 0.39914 0.80892 0.0
C1242 C 0.75889 0.41191 0.79798 0.0
C1243 C 0.75811 0.4004 0.80127 0.0
C1244 C 0.76052 0.42213 0.80253 0.0
C1245 C 0.7614 0.42084 0.8102 0.0
U1246 U 0.75719 0.3897 0.8303 0.0
O1247 O 0.76965 0.38679 0.83979 0.0
O1248 O 0.75052 0.39385 0.84153 0.0
C1249 C 0.76154 0.39141 0.8445 0.0
C1250 C 0.76171 0.40796 0.82145 0.0
C1251 C 0.76665 0.40071 0.84947 0.0
C1252 C 0.77986 0.41832 0.85164 0.0
C1253 C 0.77436 0.41003 0.84678 0.0
C1254 C 0.7696 0.40832 0.86191 0.0
C1255 C 0.77768 0.41746 0.85929 0.0
C1256 C 0.76417 0.40001 0.85704 0.0
C1257 C 0.74571 0.35724 0.82735 0.0
C1258 C 0.74612 0.342 0.837 0.0
C1259 C 0.7388 0.33675 0.82475 0.0
C1260 C 0.74087 0.34864 0.82244 0.0
C1261 C 0.74155 0.33324 0.83204 0.0
C1262 C 0.74818 0.35392 0.83468 0.0
C1263 C 0.74876 0.36939 0.82463 0.0
O1264 O 0.75095 0.40658 0.82496 0.0
O1265 O 0.77046 0.40034 0.82364 0.0
O1266 O 0.76077 0.37225 0.82488 0.0
O1267 O 0.7413 0.37818 0.82686 0.0
H1268 H 0.75833 0.39018 0.81133 0.0
H1269 H 0.75706 0.39232 0.79794 0.0
H1270 H 0.76099 0.43113 0.80019 0.0
H1271 H 0.76266 0.42881 0.8136 0.0
H1272 H 0.78612 0.42515 0.84943 0.0
H1273 H 0.77636 0.41074 0.84093 0.0
H1274 H 0.76752 0.40753 0.86773 0.0
H1275 H 0.75817 0.39291 0.8592 0.0
H1276 H 0.74821 0.33962 0.84267 0.0
H1277 H 0.73547 0.33021 0.82075 0.0
H1278 H 0.73898 0.35106 0.81676 0.0
H1279 H 0.75192 0.36049 0.83854 0.0
H1280 H 0.13707 0.50841 0.97886 0.0
H1281 H 0.13813 0.50824 0.99231 0.0
H1282 H 0.17873 0.50932 0.99128 0.0
H1283 H 0.17776 0.51001 0.97781 0.0
H1284 H 0.14927 0.49137 1.0013 0.0
H1285 H 0.17092 0.53659 1.00567 0.0
H1286 H 0.16426 0.53204 0.99694 0.0
H1287 H 0.17966 0.52683 0.99961 0.0
C1288 C 0.14623 0.50884 0.98148 0.0
C1289 C 0.15733 0.50933 0.97724 0.0
C1290 C 0.14682 0.50864 0.98918 0.0
C1291 C 0.15849 0.50894 0.9928 0.0
C1292 C 0.1696 0.50932 0.9886 0.0
H1293 H 0.17752 0.50554 0.03963 0.0
H1294 H 0.17843 0.50572 0.02613 0.0
C1295 C 0.16903 0.50957 0.98089 0.0
C1296 C 0.15897 0.50849 1.00097 0.0
H1297 H 0.16855 0.52416 0.01623 0.0
C1298 C 0.15347 0.49855 1.00456 0.0
C1299 C 0.16449 0.51785 1.00522 0.0
C1300 C 0.17007 0.52899 1.00168 0.0
C1301 C 0.15336 0.4977 0.01228 0.0
C1302 C 0.15877 0.5071 0.01652 0.0
C1303 C 0.16444 0.51696 0.01294 0.0
C1304 C 0.15824 0.50705 0.02468 0.0
C1305 C 0.14753 0.48671 0.01585 0.0
C1306 C 0.14661 0.50793 0.02831 0.0
C1307 C 0.14605 0.50794 0.036 0.0
C1308 C 0.15714 0.50708 0.04023 0.0
C1309 C 0.16881 0.50632 0.03655 0.0
C1310 C 0.16935 0.50636 0.02885 0.0
H1311 H 0.14657 0.47907 0.0119 0.0
H1312 H 0.15324 0.48365 0.02063 0.0
H1313 H 0.13798 0.48908 0.0179 0.0
H1314 H 0.13794 0.50871 0.02518 0.0
H1315 H 0.13693 0.5088 0.03863 0.0
H1316 H 0.74 0.88211 0.22861 0.0
H1317 H 0.73932 0.88301 0.24209 0.0
H1318 H 0.77595 0.89991 0.24235 0.0
H1319 H 0.77678 0.89893 0.22888 0.0
H1320 H 0.75634 0.87227 0.25192 0.0
H1321 H 0.75462 0.92216 0.25562 0.0
H1322 H 0.75126 0.91491 0.24692 0.0
H1323 H 0.76729 0.91689 0.24988 0.0
C1324 C 0.74792 0.88601 0.23153 0.0
C1325 C 0.75844 0.89046 0.22766 0.0
C1326 C 0.74749 0.88657 0.23923 0.0
C1327 C 0.75751 0.89166 0.24321 0.0
C1328 C 0.76799 0.89618 0.23937 0.0
H1329 H 0.77496 0.88073 0.2895 0.0
H1330 H 0.7751 0.88142 0.27602 0.0
C1331 C 0.76844 0.89561 0.23167 0.0
C1332 C 0.75723 0.89173 0.25138 0.0
H1333 H 0.75789 0.91037 0.26642 0.0
C1334 C 0.75664 0.8806 0.2551 0.0
C1335 C 0.7575 0.90261 0.2555 0.0
C1336 C 0.75759 0.91484 0.25179 0.0
C1337 C 0.75651 0.88004 0.26283 0.0
C1338 C 0.75715 0.89091 0.26695 0.0
C1339 C 0.75753 0.90205 0.26324 0.0
C1340 C 0.75729 0.89086 0.27512 0.0
C1341 C 0.7555 0.86784 0.26652 0.0
C1342 C 0.7474 0.89624 0.27909 0.0
C1343 C 0.74728 0.89585 0.28679 0.0
C1344 C 0.75709 0.89012 0.29068 0.0
C1345 C 0.76714 0.88501 0.28668 0.0
C1346 C 0.76725 0.8854 0.27897 0.0
H1347 H 0.75203 0.86077 0.26266 0.0
H1348 H 0.76495 0.86505 0.26852 0.0
H1349 H 0.74906 0.86826 0.27134 0.0
H1350 H 0.73964 0.90052 0.27621 0.0
H1351 H 0.73934 0.89976 0.28969 0.0
H1352 H 0.3743 0.49529 0.53855 0.0
H1353 H 0.37263 0.49527 0.52508 0.0
H1354 H 0.33939 0.51765 0.52644 0.0
H1355 H 0.34106 0.51782 0.53994 0.0
H1356 H 0.3502 0.4876 0.51631 0.0
H1357 H 0.36464 0.53556 0.51204 0.0
H1358 H 0.36837 0.52734 0.52037 0.0
H1359 H 0.35262 0.53267 0.51883 0.0
C1360 C 0.36669 0.50029 0.53598 0.0
C1361 C 0.35785 0.50662 0.5403 0.0
C1362 C 0.36571 0.5002 0.5283 0.0
C1363 C 0.35595 0.50653 0.52479 0.0
C1364 C 0.34705 0.5128 0.52906 0.0
H1365 H 0.34281 0.51968 0.47799 0.0
H1366 H 0.34114 0.51935 0.49144 0.0
C1367 C 0.34797 0.51282 0.53676 0.0
C1368 C 0.35511 0.50649 0.51665 0.0
H1369 H 0.35931 0.52429 0.50147 0.0
C1370 C 0.35214 0.49561 0.51305 0.0
C1371 C 0.3576 0.51699 0.51244 0.0
C1372 C 0.36107 0.52882 0.51608 0.0
C1373 C 0.35158 0.49495 0.50532 0.0
C1374 C 0.35439 0.50538 0.5011 0.0
C1375 C 0.35716 0.51631 0.50472 0.0
C1376 C 0.3549 0.50508 0.49292 0.0
C1377 C 0.34781 0.48312 0.50178 0.0
C1378 C 0.36321 0.49719 0.48927 0.0
C1379 C 0.36406 0.49724 0.48158 0.0
C1380 C 0.35674 0.50531 0.47737 0.0
C1381 C 0.34842 0.51321 0.48104 0.0
C1382 C 0.34753 0.5131 0.48874 0.0
H1383 H 0.34222 0.47742 0.50562 0.0
H1384 H 0.34218 0.48465 0.4967 0.0
H1385 H 0.35643 0.47799 0.50027 0.0
H1386 H 0.36919 0.49111 0.49238 0.0
H1387 H 0.37047 0.49095 0.47895 0.0
H1388 H 0.77872 0.12446 0.78917 0.0
H1389 H 0.77809 0.12402 0.77568 0.0
H1390 H 0.7375 0.12617 0.77629 0.0
H1391 H 0.73807 0.12674 0.78977 0.0
H1392 H 0.76706 0.10812 0.76612 0.0
H1393 H 0.74627 0.15386 0.7626 0.0
H1394 H 0.75248 0.14865 0.7713 0.0
H1395 H 0.737 0.1441 0.76835 0.0
C1396 C 0.76966 0.12476 0.78643 0.0
C1397 C 0.75845 0.12571 0.79053 0.0
C1398 C 0.76931 0.12456 0.77872 0.0
C1399 C 0.75777 0.1253 0.77497 0.0
C1400 C 0.74654 0.12593 0.77906 0.0
H1401 H 0.73613 0.12383 0.72881 0.0
H1402 H 0.73669 0.12306 0.7423 0.0
C1403 C 0.74688 0.12622 0.78676 0.0
C1404 C 0.75748 0.12529 0.76679 0.0
H1405 H 0.74764 0.1416 0.75185 0.0
C1406 C 0.76286 0.11546 0.763 0.0
C1407 C 0.75203 0.13491 0.76272 0.0
C1408 C 0.74673 0.14603 0.76644 0.0
C1409 C 0.76276 0.11489 0.75526 0.0
C1410 C 0.7572 0.12444 0.75122 0.0
C1411 C 0.75183 0.13427 0.75499 0.0
C1412 C 0.75698 0.12448 0.74305 0.0
C1413 C 0.76839 0.104 0.75146 0.0
C1414 C 0.76821 0.12558 0.73903 0.0
C1415 C 0.76793 0.12603 0.73132 0.0
C1416 C 0.7564 0.12536 0.72751 0.0
C1417 C 0.74517 0.1242 0.73158 0.0
C1418 C 0.74546 0.12383 0.73928 0.0
H1419 H 0.76989 0.09635 0.75534 0.0
H1420 H 0.76222 0.1009 0.74689 0.0
H1421 H 0.77765 0.10652 0.74907 0.0
H1422 H 0.77718 0.12624 0.74185 0.0
H1423 H 0.77674 0.12686 0.72834 0.0
H1424 H 0.87229 0.49231 0.03903 0.0
H1425 H 0.87141 0.49249 0.02557 0.0
H1426 H 0.84319 0.5206 0.0263 0.0
H1427 H 0.84443 0.52089 0.03976 0.0
H1428 H 0.85184 0.48803 0.01616 0.0
H1429 H 0.86913 0.53509 0.01248 0.0
H1430 H 0.87009 0.52724 0.02118 0.0
H1431 H 0.85545 0.53391 0.01826 0.0
C1432 C 0.866 0.49864 0.03633 0.0
C1433 C 0.85852 0.50667 0.04049 0.0
C1434 C 0.86544 0.49867 0.02864 0.0
C1435 C 0.8574 0.50671 0.02493 0.0
C1436 C 0.84966 0.5145 0.02905 0.0
H1437 H 0.84332 0.51826 0.97801 0.0
H1438 H 0.84189 0.51815 0.99151 0.0
C1439 C 0.85026 0.51453 0.03675 0.0
C1440 C 0.85711 0.50684 0.01675 0.0
H1441 H 0.86215 0.52488 1.00173 0.0
C1442 C 0.85411 0.49609 0.01301 0.0
C1443 C 0.86008 0.51737 0.01264 0.0
C1444 C 0.86398 0.52903 0.01633 0.0
C1445 C 0.85394 0.49558 1.00527 0.0
C1446 C 0.85695 0.50608 1.00118 0.0
C1447 C 0.8598 0.51687 1.00491 0.0
C1448 C 0.85762 0.50593 0.99303 0.0
C1449 C 0.85048 0.48385 1.00152 0.0
C1450 C 0.867 0.49918 0.98945 0.0
C1451 C 0.86786 0.49924 0.98177 0.0
C1452 C 0.85934 0.50607 0.97752 0.0
C1453 C 0.84993 0.51282 0.98113 0.0
C1454 C 0.84913 0.51281 0.98883 0.0
H1455 H 0.84569 0.47749 1.00535 0.0
H1456 H 0.84422 0.48554 0.99672 0.0
H1457 H 0.85918 0.4794 0.99946 0.0
H1458 H 0.87373 0.49393 0.99261 0.0
H1459 H 0.87514 0.49387 0.97914 0.0
H1460 H 0.25646 0.10845 0.78941 0.0
H1461 H 0.25746 0.1077 0.77592 0.0
H1462 H 0.25546 0.14666 0.77503 0.0
H1463 H 0.25422 0.14752 0.78847 0.0
H1464 H 0.23963 0.11745 0.76546 0.0
H1465 H 0.28716 0.13802 0.7627 0.0
H1466 H 0.28145 0.13176 0.77127 0.0
H1467 H 0.27629 0.14647 0.76831 0.0
C1468 C 0.25614 0.11686 0.78635 0.0
C1469 C 0.25534 0.12806 0.79004 0.0
C1470 C 0.25678 0.11641 0.77864 0.0
C1471 C 0.25672 0.12713 0.7745 0.0
C1472 C 0.25578 0.13829 0.77815 0.0
H1473 H 0.25974 0.14727 0.72863 0.0
H1474 H 0.25876 0.14638 0.74207 0.0
C1475 C 0.2551 0.13876 0.78583 0.0
C1476 C 0.25743 0.12668 0.76634 0.0
H1477 H 0.27535 0.13559 0.75169 0.0
C1478 C 0.24747 0.12133 0.76243 0.0
C1479 C 0.26766 0.13177 0.76244 0.0
C1480 C 0.27882 0.13725 0.76638 0.0
C1481 C 0.2473 0.12125 0.75468 0.0
C1482 C 0.2575 0.12643 0.75077 0.0
C1483 C 0.26753 0.13164 0.7547 0.0
C1484 C 0.25785 0.12683 0.74259 0.0
C1485 C 0.23601 0.11598 0.75077 0.0
C1486 C 0.25776 0.11612 0.73841 0.0
C1487 C 0.25818 0.1166 0.7307 0.0
C1488 C 0.25879 0.12781 0.72703 0.0
C1489 C 0.25903 0.1385 0.73126 0.0
C1490 C 0.25857 0.13801 0.73895 0.0
H1491 H 0.22772 0.11526 0.75448 0.0
H1492 H 0.23336 0.12158 0.74592 0.0
H1493 H 0.23836 0.10675 0.74878 0.0
H1494 H 0.25746 0.10738 0.74111 0.0
H1495 H 0.25792 0.1082 0.72763 0.0
H1496 H 0.67029 0.52149 0.47881 0.0
H1497 H 0.67184 0.52081 0.49226 0.0
H1498 H 0.64343 0.49292 0.49288 0.0
H1499 H 0.64223 0.49313 0.47945 0.0
H1500 H 0.65359 0.52561 0.50238 0.0
H1501 H 0.67044 0.47847 0.50588 0.0
H1502 H 0.67056 0.48606 0.49707 0.0
H1503 H 0.65625 0.47939 0.50053 0.0
C1504 C 0.66455 0.51504 0.48179 0.0
C1505 C 0.65617 0.50733 0.47803 0.0
C1506 C 0.66538 0.51473 0.48949 0.0
C1507 C 0.6579 0.50668 0.49357 0.0
C1508 C 0.6495 0.49901 0.48984 0.0
H1509 H 0.63915 0.49509 0.53918 0.0
H1510 H 0.64066 0.49547 0.52571 0.0
C1511 C 0.6487 0.49927 0.48215 0.0
C1512 C 0.65843 0.50669 0.50175 0.0
H1513 H 0.66268 0.48836 0.51672 0.0
C1514 C 0.65572 0.5175 0.50552 0.0
C1515 C 0.66123 0.4961 0.50583 0.0
C1516 C 0.66491 0.48438 0.50212 0.0
C1517 C 0.65534 0.51791 0.51325 0.0
C1518 C 0.65783 0.50726 0.51731 0.0
C1519 C 0.66073 0.4965 0.51357 0.0
C1520 C 0.65711 0.50703 0.52546 0.0
C1521 C 0.65191 0.52963 0.51704 0.0
C1522 C 0.66594 0.51331 0.52976 0.0
C1523 C 0.66511 0.5131 0.53746 0.0
C1524 C 0.65539 0.50665 0.54098 0.0
C1525 C 0.64663 0.50028 0.53663 0.0
C1526 C 0.64753 0.50043 0.52895 0.0
H1527 H 0.64814 0.53645 0.51311 0.0
H1528 H 0.64477 0.52802 0.52141 0.0
H1529 H 0.66043 0.53347 0.51971 0.0
H1530 H 0.67348 0.51835 0.52716 0.0
H1531 H 0.67195 0.51814 0.54066 0.0
H1532 H 0.26102 0.86827 0.28896 0.0
H1533 H 0.25989 0.86921 0.27551 0.0
H1534 H 0.25822 0.90818 0.27652 0.0
H1535 H 0.25911 0.90735 0.29 0.0
H1536 H 0.24039 0.88019 0.26675 0.0
H1537 H 0.28746 0.90088 0.2619 0.0
H1538 H 0.2833 0.89369 0.2705 0.0
H1539 H 0.27747 0.90856 0.26842 0.0
C1540 C 0.2603 0.87705 0.28634 0.0
C1541 C 0.26014 0.88774 0.29058 0.0
C1542 C 0.25974 0.87757 0.27865 0.0
C1543 C 0.25911 0.88876 0.27503 0.0
C1544 C 0.25892 0.89946 0.27921 0.0
H1545 H 0.25697 0.90707 0.22823 0.0
H1546 H 0.25731 0.90785 0.24173 0.0
C1547 C 0.25945 0.89896 0.28692 0.0
C1548 C 0.25839 0.88917 0.26687 0.0
H1549 H 0.27449 0.89793 0.25147 0.0
C1550 C 0.24783 0.88407 0.2634 0.0
C1551 C 0.26809 0.8943 0.26254 0.0
C1552 C 0.27978 0.8996 0.266 0.0
C1553 C 0.24669 0.88399 0.25569 0.0
C1554 C 0.25651 0.88891 0.25134 0.0
C1555 C 0.26699 0.89416 0.25482 0.0
C1556 C 0.25621 0.88843 0.24316 0.0
C1557 C 0.23489 0.8788 0.25229 0.0
C1558 C 0.25564 0.87726 0.23949 0.0
C1559 C 0.25532 0.87678 0.2318 0.0
C1560 C 0.25571 0.88749 0.22759 0.0
C1561 C 0.25647 0.89867 0.23129 0.0
C1562 C 0.25675 0.89913 0.239 0.0
H1563 H 0.22692 0.87874 0.25627 0.0
H1564 H 0.23201 0.88402 0.24733 0.0
H1565 H 0.2367 0.8693 0.25059 0.0
H1566 H 0.25547 0.86887 0.24258 0.0
H1567 H 0.25461 0.86802 0.22915 0.0
H1568 H 0.63776 0.01694 0.53812 0.0
H1569 H 0.63887 0.01328 0.52486 0.0
H1570 H 0.67945 0.01216 0.52607 0.0
H1571 H 0.67842 0.01529 0.53941 0.0
H1572 H 0.65009 0.0271 0.5142 0.0
H1573 H 0.67156 0.98123 0.51482 0.0
H1574 H 0.66493 0.98831 0.52292 0.0
H1575 H 0.68036 0.99255 0.51973 0.0
C1576 C 0.64693 0.0157 0.5356 0.0
C1577 C 0.658 0.0163 0.53986 0.0
C1578 C 0.64754 0.01371 0.528 0.0
C1579 C 0.65923 0.01227 0.52449 0.0
C1580 C 0.67032 0.013 0.52869 0.0
H1581 H 0.67841 1.00196 0.47802 0.0
H1582 H 0.67929 1.0056 0.49134 0.0
C1583 C 0.66971 0.01495 0.5363 0.0
C1584 C 0.65974 0.01032 0.51639 0.0
H1585 H 0.66931 0.9904 0.50309 0.0
C1586 C 0.65428 0.01907 0.51177 0.0
C1587 C 0.66524 0.99984 0.51323 0.0
C1588 C 0.67076 0.98988 0.51792 0.0
C1589 C 0.6542 0.01765 0.50408 0.0
C1590 C 0.65959 1.00713 0.50094 0.0
C1591 C 0.66521 0.99846 0.50553 0.0
C1592 C 0.65909 1.00481 0.4929 0.0
C1593 C 0.64841 0.02744 0.49937 0.0
C1594 C 0.64746 1.00296 0.4894 0.0
C1595 C 0.64693 1.00078 0.48182 0.0
C1596 C 0.65803 1.00039 0.47757 0.0
C1597 C 0.66969 1.0021 0.48112 0.0
C1598 C 0.67021 1.00424 0.48872 0.0
H1599 H 0.64747 0.03612 0.50243 0.0
H1600 H 0.65415 0.02903 0.49434 0.0
H1601 H 0.63886 0.02455 0.49761 0.0
H1602 H 0.63879 1.00312 0.49256 0.0
H1603 H 0.63781 0.99924 0.47931 0.0
H1604 H 0.24647 0.42883 0.72797 0.0
H1605 H 0.24635 0.43036 0.74147 0.0
H1606 H 0.27104 0.39942 0.74286 0.0
H1607 H 0.27133 0.39791 0.7294 0.0
H1608 H 0.2388 0.41106 0.75169 0.0
H1609 H 0.28828 0.42619 0.75568 0.0
H1610 H 0.28011 0.42768 0.74698 0.0
H1611 H 0.28626 0.41324 0.74978 0.0
C1612 C 0.25198 0.42244 0.73115 0.0
C1613 C 0.25891 0.41325 0.72763 0.0
C1614 C 0.25185 0.42329 0.73885 0.0
C1615 C 0.25879 0.41508 0.74314 0.0
C1616 C 0.26575 0.40593 0.73964 0.0
H1617 H 0.27192 0.4002 0.78908 0.0
H1618 H 0.27196 0.40136 0.77563 0.0
C1619 C 0.26581 0.40502 0.73195 0.0
C1620 C 0.25846 0.41578 0.75129 0.0
H1621 H 0.27704 0.42029 0.7664 0.0
C1622 C 0.24711 0.41319 0.75492 0.0
C1623 C 0.26935 0.41849 0.75546 0.0
C1624 C 0.28169 0.42166 0.7518 0.0
C1625 C 0.24645 0.41286 0.76266 0.0
C1626 C 0.25738 0.4155 0.76684 0.0
C1627 C 0.26868 0.41827 0.76319 0.0
C1628 C 0.25739 0.41505 0.77502 0.0
C1629 C 0.23418 0.40924 0.76625 0.0
C1630 C 0.24933 0.4225 0.77916 0.0
C1631 C 0.24915 0.42175 0.78686 0.0
C1632 C 0.25715 0.4136 0.79058 0.0
C1633 C 0.26546 0.4064 0.7864 0.0
C1634 C 0.26557 0.40712 0.77871 0.0
H1635 H 0.22784 0.40448 0.76233 0.0
H1636 H 0.23587 0.40325 0.77107 0.0
H1637 H 0.22923 0.41749 0.76821 0.0
H1638 H 0.24312 0.42888 0.77644 0.0
H1639 H 0.24258 0.42737 0.78989 0.0
H1640 H 0.8696 0.01429 0.03981 0.0
H1641 H 0.86865 0.01773 0.02651 0.0
H1642 H 0.84048 0.98983 0.02443 0.0
H1643 H 0.84157 0.98608 0.03772 0.0
H1644 H 0.87326 0.99898 0.01533 0.0
H1645 H 0.8257 0.02005 0.0133 0.0
H1646 H 0.8345 0.01964 0.02182 0.0
H1647 H 0.82689 1.00621 0.01849 0.0
C1648 C 0.86323 0.00883 0.03654 0.0
C1649 C 0.8557 0.99986 0.03985 0.0
C1650 C 0.86265 0.01087 0.02895 0.0
C1651 C 0.85443 1.0041 0.02452 0.0
C1652 C 0.84675 0.99528 0.02778 0.0
H1653 H 0.84087 1.00529 0.97699 0.0
H1654 H 0.83981 1.00119 0.99027 0.0
C1655 C 0.84736 0.99318 0.03539 0.0
C1656 C 0.85439 1.00592 0.01643 0.0
H1657 H 0.83656 0.01649 1.00214 0.0
C1658 C 0.86525 1.00281 0.01244 0.0
C1659 C 0.84387 0.0108 0.01268 0.0
C1660 C 0.83208 0.01446 0.01677 0.0
C1661 C 0.86588 1.00445 1.00477 0.0
C1662 C 0.85548 0.00964 1.00103 0.0
C1663 C 0.84453 0.01256 1.00502 0.0
C1664 C 0.85591 0.01233 0.99302 0.0
C1665 C 0.87761 1.00043 1.00075 0.0
C1666 C 0.86514 0.02015 0.99019 0.0
C1667 C 0.86579 0.02247 0.98263 0.0
C1668 C 0.85712 0.01713 0.97775 0.0
C1669 C 0.84765 0.00957 0.98062 0.0
C1670 C 0.84705 1.00719 0.98819 0.0
H1671 H 0.88291 0.9935 1.00393 0.0
H1672 H 0.87529 0.99663 0.99524 0.0
H1673 H 0.88392 0.00833 0.99996 0.0
H1674 H 0.87185 0.02448 0.99383 0.0
H1675 H 0.87303 0.02853 0.98061 0.0
H1676 H 0.24325 0.58805 0.22841 0.0
H1677 H 0.24375 0.58707 0.2419 0.0
H1678 H 0.2735 0.61361 0.24231 0.0
H1679 H 0.27333 0.61446 0.22884 0.0
H1680 H 0.26565 0.58207 0.25175 0.0
H1681 H 0.24429 0.62766 0.25551 0.0
H1682 H 0.24307 0.61929 0.24698 0.0
H1683 H 0.25749 0.62688 0.24931 0.0
C1684 C 0.25003 0.59355 0.23136 0.0
C1685 C 0.2582 0.6014 0.22753 0.0
C1686 C 0.25025 0.59303 0.23906 0.0
C1687 C 0.25854 0.60039 0.24308 0.0
C1688 C 0.26689 0.60801 0.23929 0.0
H1689 H 0.27221 0.61681 0.28887 0.0
H1690 H 0.27189 0.61564 0.27541 0.0
C1691 C 0.26674 0.60851 0.2316 0.0
C1692 C 0.2584 0.60025 0.25124 0.0
H1693 H 0.2518 0.61784 0.26623 0.0
C1694 C 0.26257 0.58985 0.25494 0.0
C1695 C 0.25437 0.61043 0.25534 0.0
C1696 C 0.24945 0.62169 0.25161 0.0
C1697 C 0.26316 0.58947 0.26268 0.0
C1698 C 0.25918 0.59969 0.2668 0.0
C1699 C 0.25487 0.61003 0.26307 0.0
C1700 C 0.25964 0.59999 0.27497 0.0
C1701 C 0.2684 0.5783 0.26636 0.0
C1702 C 0.25281 0.59161 0.27921 0.0
C1703 C 0.25301 0.59225 0.28692 0.0
C1704 C 0.25989 0.60138 0.29052 0.0
C1705 C 0.2667 0.60976 0.28625 0.0
C1706 C 0.26657 0.60907 0.27857 0.0
H1707 H 0.27409 0.57275 0.26247 0.0
H1708 H 0.27438 0.58073 0.27116 0.0
H1709 H 0.26049 0.57262 0.26836 0.0
H1710 H 0.24715 0.58472 0.27656 0.0
H1711 H 0.24753 0.58577 0.29005 0.0
H1712 H 0.37355 0.98691 0.48084 0.0
H1713 H 0.3724 0.99098 0.49407 0.0
H1714 H 0.34064 0.01467 0.49049 0.0
H1715 H 0.34168 0.01055 0.47722 0.0
H1716 H 0.37504 0.01264 0.50113 0.0
H1717 H 0.32785 0.99321 0.50704 0.0
H1718 H 0.33614 0.99035 0.49852 0.0
H1719 H 0.32791 1.00441 0.49988 0.0
C1720 C 0.36631 0.99299 0.48287 0.0
C1721 C 0.3577 0.99841 0.47798 0.0
C1722 C 0.36564 0.99527 0.49043 0.0
C1723 C 0.35633 1.003 0.49329 0.0
C1724 C 0.34771 0.00844 0.48844 0.0
H1725 H 0.3441 0.03103 0.53775 0.0
H1726 H 0.34299 0.02702 0.52448 0.0
C1727 C 0.34833 1.0061 0.48086 0.0
C1728 C 0.35606 1.00572 0.50131 0.0
H1729 H 0.33777 1.00395 0.51679 0.0
C1730 C 0.3669 0.01071 0.50455 0.0
C1731 C 0.34542 1.00323 0.50576 0.0
C1732 C 0.3337 0.9974 0.50265 0.0
C1733 C 0.36737 0.01331 0.51212 0.0
C1734 C 0.35677 0.01074 0.51658 0.0
C1735 C 0.34587 1.00591 0.51334 0.0
C1736 C 0.35699 0.01278 0.52465 0.0
C1737 C 0.37916 0.01888 0.5153 0.0
C1738 C 0.36502 1.00591 0.52914 0.0
C1739 C 0.3656 0.00808 0.53672 0.0
C1740 C 0.35815 0.0172 0.53997 0.0
C1741 C 0.34988 0.02388 0.53546 0.0
C1742 C 0.34928 0.02164 0.52787 0.0
H1743 H 0.38531 0.02277 0.51094 0.0
H1744 H 0.37677 0.02612 0.51932 0.0
H1745 H 0.38461 0.01181 0.51825 0.0
H1746 H 0.37088 0.99887 0.52677 0.0
H1747 H 0.37187 1.00259 0.54004 0.0
H1748 H 0.77208 0.61677 0.2894 0.0
H1749 H 0.77233 0.61588 0.27594 0.0
H1750 H 0.74413 0.58779 0.27638 0.0
H1751 H 0.74337 0.589 0.28983 0.0
H1752 H 0.77797 0.59721 0.26659 0.0
H1753 H 0.7285 0.61218 0.2624 0.0
H1754 H 0.73638 0.6134 0.27118 0.0
H1755 H 0.73008 0.5991 0.2682 0.0
C1756 C 0.76581 0.6105 0.28664 0.0
C1757 C 0.75761 0.60304 0.29071 0.0
C1758 C 0.76604 0.60994 0.27895 0.0
C1759 C 0.75809 0.60192 0.27515 0.0
C1760 C 0.75015 0.59423 0.27919 0.0
H1761 H 0.74783 0.58834 0.22807 0.0
H1762 H 0.74763 0.58683 0.24157 0.0
C1763 C 0.74986 0.59482 0.28689 0.0
C1764 C 0.7582 0.60163 0.26697 0.0
H1765 H 0.73972 0.6059 0.25176 0.0
C1766 C 0.76961 0.59912 0.26335 0.0
C1767 C 0.74727 0.60413 0.26275 0.0
C1768 C 0.73489 0.60747 0.26632 0.0
C1769 C 0.77038 0.599 0.25562 0.0
C1770 C 0.75948 0.60155 0.25142 0.0
C1771 C 0.74804 0.6039 0.25502 0.0
C1772 C 0.75986 0.60225 0.24327 0.0
C1773 C 0.78282 0.59607 0.252 0.0
C1774 C 0.76672 0.61147 0.23979 0.0
C1775 C 0.76684 0.61236 0.23211 0.0
C1776 C 0.76009 0.60404 0.22776 0.0
C1777 C 0.75323 0.59479 0.23127 0.0
C1778 C 0.75306 0.59396 0.23897 0.0
H1779 H 0.78945 0.59161 0.25589 0.0
H1780 H 0.78142 0.59007 0.24715 0.0
H1781 H 0.78724 0.60458 0.25004 0.0
H1782 H 0.7719 0.61804 0.24303 0.0
H1783 H 0.77229 0.61952 0.22957 0.0
H1784 H 0.14097 0.02935 0.98117 0.0
H1785 H 0.14212 0.0252 0.99439 0.0
H1786 H 0.17403 1.00171 0.99074 0.0
H1787 H 0.17298 1.00589 0.97749 0.0
H1788 H 0.13965 1.00345 1.0014 0.0
H1789 H 0.18667 0.02324 1.00733 0.0
H1790 H 0.17834 0.02608 0.99883 0.0
H1791 H 0.18671 0.01208 1.00012 0.0
C1792 C 0.14823 0.0233 0.98318 0.0
C1793 C 0.15689 0.01795 0.97828 0.0
C1794 C 0.14891 0.02097 0.99074 0.0
C1795 C 0.15826 0.01328 0.99357 0.0
C1796 C 0.16692 0.00791 0.9887 0.0
H1797 H 0.17096 0.98503 0.03789 0.0
H1798 H 0.17196 0.98917 0.02463 0.0
C1799 C 0.1663 0.01029 0.98113 0.0
C1800 C 0.15856 0.01053 1.00158 0.0
H1801 H 0.1769 0.01232 0.01704 0.0
C1802 C 0.14778 1.00543 1.00482 0.0
C1803 C 0.1692 0.01308 1.00603 0.0
C1804 C 0.18085 0.01902 1.00293 0.0
C1805 C 0.14737 1.00276 0.01238 0.0
C1806 C 0.15796 1.00537 0.01683 0.0
C1807 C 0.1688 0.01033 0.01359 0.0
C1808 C 0.15779 1.00325 0.02489 0.0
C1809 C 0.13563 0.99705 0.01555 0.0
C1810 C 0.1497 0.00999 0.02942 0.0
C1811 C 0.14919 0.00774 0.037 0.0
C1812 C 0.15675 0.99868 0.04019 0.0
C1813 C 0.16508 0.99214 0.03564 0.0
C1814 C 0.16563 0.99444 0.02806 0.0
H1815 H 0.12952 0.99314 0.01118 0.0
H1816 H 0.1381 0.9898 0.01953 0.0
H1817 H 0.13012 1.00405 0.01853 0.0
H1818 H 0.14375 0.01699 0.02709 0.0
H1819 H 0.14286 0.01314 0.04035 0.0
H1820 H 0.7726 0.42702 0.78904 0.0
H1821 H 0.77164 0.42871 0.7756 0.0
H1822 H 0.74311 0.40093 0.77497 0.0
H1823 H 0.74357 0.39958 0.78839 0.0
H1824 H 0.77683 0.41142 0.76538 0.0
H1825 H 0.72741 0.4267 0.76214 0.0
H1826 H 0.73541 0.42687 0.77092 0.0
H1827 H 0.72868 0.41304 0.76743 0.0
C1828 C 0.76593 0.42144 0.78606 0.0
C1829 C 0.75813 0.41319 0.78981 0.0
C1830 C 0.76547 0.42236 0.77837 0.0
C1831 C 0.75716 0.41508 0.77428 0.0
C1832 C 0.74939 0.40683 0.77801 0.0
H1833 H 0.74472 0.39679 0.72881 0.0
H1834 H 0.74529 0.3984 0.74226 0.0
C1835 C 0.7498 0.40595 0.78569 0.0
C1836 C 0.75705 0.41568 0.76611 0.0
H1837 H 0.73767 0.41942 0.75124 0.0
C1838 C 0.76831 0.41331 0.76229 0.0
C1839 C 0.74592 0.41817 0.76208 0.0
C1840 C 0.7337 0.42146 0.76585 0.0
C1841 C 0.76863 0.41297 0.75455 0.0
C1842 C 0.75743 0.41514 0.75054 0.0
C1843 C 0.74623 0.41772 0.75435 0.0
C1844 C 0.75707 0.41438 0.7424 0.0
C1845 C 0.78084 0.4099 0.7507 0.0
C1846 C 0.7634 0.42292 0.73804 0.0
C1847 C 0.76309 0.42203 0.73034 0.0
C1848 C 0.75649 0.41255 0.72689 0.0
C1849 C 0.75005 0.40409 0.7313 0.0
C1850 C 0.7503 0.40504 0.73898 0.0
H1851 H 0.78807 0.40643 0.7546 0.0
H1852 H 0.77924 0.40301 0.74634 0.0
H1853 H 0.78463 0.41816 0.74802 0.0
H1854 H 0.76857 0.43027 0.74059 0.0
H1855 H 0.76819 0.42864 0.7271 0.0
H1856 H 0.95709 0.5066 0.08662 0.0
H1857 H 0.97987 0.50481 0.08828 0.0
H1858 H 0.97729 0.46609 0.08555 0.0
H1859 H 0.95445 0.46783 0.08379 0.0
H1860 H 0.99515 0.49235 0.09803 0.0
H1861 H 1.00178 0.47561 0.06935 0.0
H1862 H 0.98702 0.48182 0.07254 0.0
H1863 H 0.99147 0.46662 0.07496 0.0
C1864 C 0.96134 0.49768 0.08649 0.0
C1865 C 0.954 0.48736 0.08501 0.0
C1866 C 0.97436 0.49667 0.08742 0.0
C1867 C 0.9803 0.48535 0.0869 0.0
C1868 C 0.97293 0.47495 0.0858 0.0
H1869 H 0.06157 0.47169 0.08349 0.0
H1870 H 0.03905 0.46846 0.08584 0.0
C1871 C 0.9599 0.47596 0.08481 0.0
C1872 C 0.99426 0.48462 0.08714 0.0
H1873 H 0.01999 0.47788 0.07658 0.0
C1874 C 1.00059 0.4891 0.09337 0.0
C1875 C 1.00134 0.48037 0.08104 0.0
C1876 C 0.9951 0.47592 0.07406 0.0
C1877 C 0.01381 0.48964 0.09361 0.0
C1878 C 0.02084 0.48572 0.08743 0.0
C1879 C 0.01455 0.48084 0.08132 0.0
C1880 C 0.03464 0.48752 0.0869 0.0
C1881 C 0.02014 0.49452 0.10044 0.0
C1882 C 0.0396 0.49928 0.08676 0.0
C1883 C 0.05241 0.50115 0.0854 0.0
C1884 C 0.0605 0.49127 0.08414 0.0
C1885 C 0.05559 0.47946 0.08451 0.0
C1886 C 0.04273 0.47761 0.08583 0.0
H1887 H 0.01391 0.49383 0.10534 0.0
H1888 H 0.02907 0.48962 0.10158 0.0
H1889 H 0.02241 0.50423 0.09959 0.0
H1890 H 0.03348 0.50706 0.08745 0.0
H1891 H 0.05595 0.51034 0.0852 0.0
H1892 H 0.79162 0.79461 0.32974 0.0
H1893 H 0.79201 0.77277 0.332 0.0
H1894 H 0.75656 0.77536 0.34353 0.0
H1895 H 0.75587 0.79713 0.34108 0.0
H1896 H 0.7906 0.75838 0.3451 0.0
H1897 H 0.74947 0.75156 0.32653 0.0
H1898 H 0.75819 0.76557 0.32683 0.0
H1899 H 0.74703 0.76207 0.33396 0.0
C1900 C 0.78391 0.79054 0.33277 0.0
C1901 C 0.77363 0.79759 0.33514 0.0
C1902 C 0.78421 0.77808 0.33411 0.0
C1903 C 0.77422 0.77244 0.33783 0.0
C1904 C 0.76427 0.77953 0.34055 0.0
H1905 H 0.75581 0.69576 0.34108 0.0
H1906 H 0.75648 0.71757 0.34341 0.0
C1907 C 0.76395 0.79199 0.33921 0.0
C1908 C 0.77385 0.75907 0.33841 0.0
H1909 H 0.75777 0.73426 0.3323 0.0
C1910 C 0.78339 0.75308 0.34234 0.0
C1911 C 0.76444 0.75221 0.33479 0.0
C1912 C 0.75425 0.75813 0.33023 0.0
C1913 C 0.78378 0.74038 0.34274 0.0
C1914 C 0.7745 0.73353 0.33901 0.0
C1915 C 0.76484 0.73954 0.3352 0.0
C1916 C 0.77493 0.72012 0.33858 0.0
C1917 C 0.79408 0.73441 0.34718 0.0
C1918 C 0.78517 0.7143 0.33518 0.0
C1919 C 0.78485 0.70182 0.33389 0.0
C1920 C 0.77423 0.69495 0.33591 0.0
C1921 C 0.76419 0.70075 0.33954 0.0
C1922 C 0.76452 0.71323 0.34084 0.0
H1923 H 0.79794 0.74064 0.35143 0.0
H1924 H 0.7906 0.72609 0.34994 0.0
H1925 H 0.80191 0.73183 0.34344 0.0
H1926 H 0.7932 0.71946 0.33326 0.0
H1927 H 0.79279 0.69761 0.33114 0.0
H1928 H 0.55671 0.51042 0.58806 0.0
H1929 H 0.53397 0.51284 0.58973 0.0
H1930 H 0.53695 0.55059 0.58392 0.0
H1931 H 0.55973 0.54825 0.58223 0.0
H1932 H 0.51877 0.52851 0.59852 0.0
H1933 H 0.51257 0.53665 0.56847 0.0
H1934 H 0.52706 0.53088 0.5723 0.0
H1935 H 0.52332 0.5467 0.57305 0.0
C1936 C 0.55257 0.5193 0.58727 0.0
C1937 C 0.56 0.52912 0.58494 0.0
C1938 C 0.53957 0.52065 0.58821 0.0
C1939 C 0.53376 0.53184 0.58682 0.0
C1940 C 0.54123 0.54182 0.58487 0.0
H1941 H 0.45389 0.54827 0.5812 0.0
H1942 H 0.47659 0.55046 0.58321 0.0
C1943 C 0.55423 0.54046 0.58391 0.0
C1944 C 0.51984 0.5328 0.58696 0.0
H1945 H 0.49433 0.53725 0.57582 0.0
C1946 C 0.5134 0.53049 0.59358 0.0
C1947 C 0.51288 0.53537 0.58049 0.0
C1948 C 0.51926 0.53745 0.57315 0.0
C1949 C 0.50017 0.53065 0.59389 0.0
C1950 C 0.49322 0.53297 0.58738 0.0
C1951 C 0.49968 0.53553 0.58081 0.0
C1952 C 0.47928 0.53211 0.58709 0.0
C1953 C 0.49375 0.52837 0.60118 0.0
C1954 C 0.47325 0.52111 0.58867 0.0
C1955 C 0.46029 0.51983 0.58751 0.0
C1956 C 0.45315 0.52949 0.58467 0.0
C1957 C 0.45916 0.54062 0.58331 0.0
C1958 C 0.47211 0.5419 0.58449 0.0
H1959 H 0.50007 0.53048 0.60589 0.0
H1960 H 0.48502 0.53386 0.60172 0.0
H1961 H 0.49114 0.51866 0.60155 0.0
H1962 H 0.47864 0.51335 0.5905 0.0
H1963 H 0.456 0.51108 0.5885 0.0
H1964 H 0.75809 0.2185 0.84052 0.0
H1965 H 0.75723 0.2403 0.84284 0.0
H1966 H 0.72116 0.24219 0.83194 0.0
H1967 H 0.72174 0.22034 0.82981 0.0
H1968 H 0.75659 0.25703 0.83175 0.0
H1969 H 0.71522 0.26331 0.85001 0.0
H1970 H 0.72269 0.24877 0.84866 0.0
H1971 H 0.71177 0.25452 0.84193 0.0
C1972 C 0.7498 0.22349 0.83881 0.0
C1973 C 0.73999 0.21768 0.83496 0.0
C1974 C 0.74936 0.23596 0.8401 0.0
C1975 C 0.73907 0.24285 0.83763 0.0
C1976 C 0.72907 0.23703 0.83402 0.0
H1977 H 0.72268 0.3173 0.8285 0.0
H1978 H 0.72223 0.29547 0.83078 0.0
C1979 C 0.7295 0.22456 0.83272 0.0
C1980 C 0.73945 0.25626 0.83809 0.0
H1981 H 0.7229 0.28107 0.84386 0.0
C1982 C 0.74933 0.26229 0.8345 0.0
C1983 C 0.72991 0.26309 0.84163 0.0
C1984 C 0.71936 0.25709 0.84584 0.0
C1985 C 0.74971 0.27497 0.83411 0.0
C1986 C 0.74006 0.2818 0.83754 0.0
C1987 C 0.73029 0.27579 0.84126 0.0
C1988 C 0.73967 0.29518 0.83695 0.0
C1989 C 0.76017 0.28091 0.82978 0.0
C1990 C 0.74943 0.30229 0.83986 0.0
C1991 C 0.74979 0.31474 0.83851 0.0
C1992 C 0.74035 0.32032 0.83425 0.0
C1993 C 0.73022 0.31325 0.83169 0.0
C1994 C 0.72989 0.3008 0.83303 0.0
H1995 H 0.76519 0.27436 0.82617 0.0
H1996 H 0.75642 0.28836 0.8263 0.0
H1997 H 0.76714 0.28484 0.83366 0.0
H1998 H 0.75698 0.29814 0.84299 0.0
H1999 H 0.75776 0.31989 0.84053 0.0
H2000 H 0.957 0.54451 0.93756 0.0
H2001 H 0.97974 0.54522 0.93544 0.0
H2002 H 0.97812 0.51039 0.92471 0.0
H2003 H 0.95544 0.50942 0.92702 0.0
H2004 H 0.99549 0.51132 0.93585 0.0
H2005 H 1.00173 0.55076 0.91735 0.0
H2006 H 0.99251 0.55414 0.9254 0.0
H2007 H 0.98665 0.5435 0.91871 0.0
C2008 C 0.96146 0.53705 0.93468 0.0
C2009 C 0.95441 0.52688 0.93249 0.0
C2010 C 0.97444 0.53754 0.93339 0.0
C2011 C 0.9806 0.52792 0.92984 0.0
C2012 C 0.97353 0.51795 0.92741 0.0
H2013 H 0.06089 0.51035 0.92697 0.0
H2014 H 0.03821 0.51094 0.92458 0.0
C2015 C 0.96055 0.51745 0.9287 0.0
C2016 C 0.99456 0.52765 0.9294 0.0
H2017 H 0.02027 0.54358 0.92354 0.0
C2018 C 1.00091 0.51827 0.93306 0.0
C2019 C 1.0016 0.53679 0.92581 0.0
C2020 C 0.99528 0.54681 0.92154 0.0
C2021 C 0.01411 0.51798 0.93345 0.0
C2022 C 0.02116 0.52722 0.92997 0.0
C2023 C 0.01483 0.53651 0.92619 0.0
C2024 C 0.03508 0.52766 0.93053 0.0
C2025 C 0.02038 0.50806 0.93785 0.0
C2026 C 0.0409 0.53715 0.93438 0.0
C2027 C 0.05388 0.53691 0.93569 0.0
C2028 C 0.06128 0.52718 0.93315 0.0
C2029 C 0.0555 0.518 0.92897 0.0
C2030 C 0.04251 0.51826 0.92765 0.0
H2031 H 0.01359 0.50328 0.9415 0.0
H2032 H 0.0245 0.5013 0.93401 0.0
H2033 H 0.02812 0.51176 0.9413 0.0
H2034 H 0.03533 0.54452 0.93661 0.0
H2035 H 0.05808 0.54423 0.93882 0.0
H2036 H 0.71714 0.69634 0.18672 0.0
H2037 H 0.71506 0.71821 0.18487 0.0
H2038 H 0.7538 0.71998 0.17773 0.0
H2039 H 0.75595 0.69817 0.17957 0.0
H2040 H 0.72887 0.73495 0.19246 0.0
H2041 H 0.73632 0.74108 0.16246 0.0
H2042 H 0.73263 0.72656 0.1665 0.0
H2043 H 0.7485 0.73229 0.16677 0.0
C2044 C 0.72517 0.70137 0.18467 0.0
C2045 C 0.73672 0.69552 0.18331 0.0
C2046 C 0.72395 0.71385 0.18358 0.0
C2047 C 0.73422 0.7207 0.18108 0.0
C2048 C 0.74565 0.71483 0.17949 0.0
H2049 H 0.75727 0.79497 0.18078 0.0
H2050 H 0.75468 0.77317 0.17896 0.0
C2051 C 0.74687 0.70236 0.18056 0.0
C2052 C 0.73345 0.73411 0.1809 0.0
H2053 H 0.7384 0.75886 0.16999 0.0
C2054 C 0.73076 0.74018 0.18752 0.0
C2055 C 0.736 0.7409 0.17446 0.0
C2056 C 0.73841 0.73488 0.16713 0.0
C2057 C 0.73101 0.75286 0.18795 0.0
C2058 C 0.73381 0.75966 0.18155 0.0
C2059 C 0.73625 0.75361 0.17489 0.0
C2060 C 0.73487 0.77303 0.1818 0.0
C2061 C 0.7288 0.75884 0.19533 0.0
C2062 C 0.72449 0.78022 0.18376 0.0
C2063 C 0.72593 0.79268 0.18481 0.0
C2064 C 0.73777 0.79819 0.18385 0.0
C2065 C 0.748 0.79104 0.18151 0.0
C2066 C 0.74656 0.77857 0.18049 0.0
H2067 H 0.72954 0.7523 0.19996 0.0
H2068 H 0.73568 0.76626 0.19626 0.0
H2069 H 0.71919 0.76281 0.19543 0.0
H2070 H 0.71533 0.77614 0.18466 0.0
H2071 H 0.71783 0.79799 0.18648 0.0
H2072 H 0.45712 0.47139 0.43908 0.0
H2073 H 0.47985 0.47103 0.43682 0.0
H2074 H 0.47683 0.50399 0.42422 0.0
H2075 H 0.45417 0.50468 0.42667 0.0
H2076 H 0.49494 0.47133 0.42379 0.0
H2077 H 0.50137 0.51266 0.44095 0.0
H2078 H 0.48687 0.50414 0.44089 0.0
H2079 H 0.49053 0.51418 0.4334 0.0
C2080 C 0.46128 0.47856 0.43582 0.0
C2081 C 0.45385 0.48816 0.43315 0.0
C2082 C 0.47425 0.47828 0.43448 0.0
C2083 C 0.48003 0.48759 0.43046 0.0
C2084 C 0.47256 0.49682 0.42743 0.0
H2085 H 0.55979 0.5056 0.42709 0.0
H2086 H 0.53718 0.50455 0.42458 0.0
C2087 C 0.45959 0.49713 0.42878 0.0
C2088 C 0.49395 0.48805 0.42989 0.0
H2089 H 0.51953 0.50429 0.43556 0.0
C2090 C 0.50034 0.47857 0.42632 0.0
C2091 C 0.50095 0.49749 0.43321 0.0
C2092 C 0.49463 0.50766 0.43739 0.0
C2093 C 0.51357 0.47827 0.42601 0.0
C2094 C 0.52056 0.48759 0.42946 0.0
C2095 C 0.51415 0.49719 0.43289 0.0
C2096 C 0.5345 0.48731 0.43 0.0
C2097 C 0.51995 0.468 0.42197 0.0
C2098 C 0.54054 0.47787 0.4338 0.0
C2099 C 0.55348 0.47841 0.43521 0.0
C2100 C 0.56062 0.48844 0.4329 0.0
C2101 C 0.55462 0.49767 0.42887 0.0
C2102 C 0.54168 0.49712 0.42746 0.0
H2103 H 0.51358 0.46386 0.41781 0.0
H2104 H 0.52866 0.47113 0.41915 0.0
H2105 H 0.52259 0.46087 0.42599 0.0
H2106 H 0.53516 0.47032 0.43594 0.0
H2107 H 0.55783 0.47109 0.43826 0.0
H2108 H 0.75852 0.31909 0.67673 0.0
H2109 H 0.75938 0.29728 0.67444 0.0
H2110 H 0.79417 0.29497 0.68664 0.0
H2111 H 0.79363 0.31685 0.68875 0.0
H2112 H 0.79355 0.28027 0.67368 0.0
H2113 H 0.7513 0.27386 0.69143 0.0
H2114 H 0.74928 0.28417 0.68386 0.0
H2115 H 0.76001 0.28788 0.69119 0.0
C2116 C 0.76651 0.314 0.67879 0.0
C2117 C 0.77594 0.3197 0.683 0.0
C2118 C 0.76692 0.30152 0.67753 0.0
C2119 C 0.77671 0.2945 0.68049 0.0
C2120 C 0.78648 0.30022 0.68436 0.0
H2121 H 0.7947 0.21971 0.68803 0.0
H2122 H 0.79531 0.24154 0.68584 0.0
C2123 C 0.7861 0.31271 0.68561 0.0
C2124 C 0.77638 0.28111 0.68 0.0
H2125 H 0.75991 0.25644 0.68593 0.0
C2126 C 0.78617 0.27504 0.67632 0.0
C2127 C 0.76675 0.27433 0.68347 0.0
C2128 C 0.75628 0.28034 0.68777 0.0
C2129 C 0.78658 0.26232 0.67602 0.0
C2130 C 0.77706 0.25555 0.67959 0.0
C2131 C 0.76716 0.26165 0.68316 0.0
C2132 C 0.77743 0.24216 0.6801 0.0
C2133 C 0.79715 0.25626 0.67185 0.0
C2134 C 0.76716 0.23525 0.67763 0.0
C2135 C 0.76671 0.2228 0.67896 0.0
C2136 C 0.77649 0.21702 0.68285 0.0
C2137 C 0.78697 0.2239 0.68509 0.0
C2138 C 0.7874 0.23636 0.68375 0.0
H2139 H 0.80132 0.26242 0.66766 0.0
H2140 H 0.80471 0.2537 0.67578 0.0
H2141 H 0.79382 0.24791 0.66904 0.0
H2142 H 0.75931 0.23957 0.67485 0.0
H2143 H 0.75843 0.21781 0.67724 0.0
H2144 H 0.2172 0.21899 0.68643 0.0
H2145 H 0.21487 0.24085 0.68466 0.0
H2146 H 0.2536 0.24311 0.67757 0.0
H2147 H 0.25601 0.22131 0.67933 0.0
H2148 H 0.22856 0.25772 0.69232 0.0
H2149 H 0.23578 0.26407 0.66232 0.0
H2150 H 0.23224 0.2495 0.66633 0.0
H2151 H 0.24804 0.25537 0.66661 0.0
C2152 C 0.22518 0.22413 0.68441 0.0
C2153 C 0.2368 0.21841 0.68303 0.0
C2154 C 0.22381 0.2366 0.68337 0.0
C2155 C 0.23401 0.24359 0.6809 0.0
C2156 C 0.24551 0.23786 0.6793 0.0
H2157 H 0.25578 0.31826 0.68051 0.0
H2158 H 0.25357 0.29641 0.67871 0.0
C2159 C 0.24688 0.22539 0.68033 0.0
C2160 C 0.23306 0.25698 0.68075 0.0
H2161 H 0.23753 0.28184 0.66986 0.0
C2162 C 0.23033 0.26299 0.68739 0.0
C2163 C 0.23546 0.26384 0.67432 0.0
C2164 C 0.23793 0.25787 0.66697 0.0
C2165 C 0.23039 0.27567 0.68783 0.0
C2166 C 0.23301 0.28254 0.68143 0.0
C2167 C 0.2355 0.27654 0.67475 0.0
C2168 C 0.23383 0.29592 0.68169 0.0
C2169 C 0.22815 0.28159 0.69523 0.0
C2170 C 0.22335 0.30293 0.68373 0.0
C2171 C 0.22458 0.31542 0.68477 0.0
C2172 C 0.2363 0.32113 0.68372 0.0
C2173 C 0.24661 0.31416 0.68131 0.0
C2174 C 0.24538 0.30167 0.6803 0.0
H2175 H 0.2291 0.27505 0.69985 0.0
H2176 H 0.23488 0.28915 0.69614 0.0
H2177 H 0.21846 0.28536 0.69538 0.0
H2178 H 0.21429 0.2987 0.68468 0.0
H2179 H 0.21642 0.32058 0.6865 0.0
H2180 H 0.25548 0.79338 0.18054 0.0
H2181 H 0.25778 0.77153 0.17878 0.0
H2182 H 0.29748 0.77423 0.1836 0.0
H2183 H 0.29527 0.79612 0.18536 0.0
H2184 H 0.27338 0.75691 0.16955 0.0
H2185 H 0.28403 0.75078 0.19935 0.0
H2186 H 0.27778 0.76474 0.1957 0.0
H2187 H 0.29418 0.76112 0.19455 0.0
C2188 C 0.26475 0.78937 0.18108 0.0
C2189 C 0.27517 0.79646 0.18316 0.0
C2190 C 0.26604 0.77688 0.1801 0.0
C2191 C 0.27775 0.77125 0.18119 0.0
C2192 C 0.28831 0.77838 0.18288 0.0
H2193 H 0.29575 0.69464 0.1861 0.0
H2194 H 0.2976 0.71649 0.18413 0.0
C2195 C 0.28702 0.79087 0.18389 0.0
C2196 C 0.2787 0.75787 0.181 0.0
H2197 H 0.28422 0.73331 0.19194 0.0
C2198 C 0.27581 0.75173 0.17443 0.0
C2199 C 0.28185 0.75115 0.18738 0.0
C2200 C 0.28454 0.75724 0.19467 0.0
C2201 C 0.27599 0.73901 0.17408 0.0
C2202 C 0.27893 0.73231 0.1805 0.0
C2203 C 0.28203 0.73847 0.18702 0.0
C2204 C 0.2782 0.7189 0.18075 0.0
C2205 C 0.27312 0.73288 0.16684 0.0
C2206 C 0.26671 0.71299 0.17944 0.0
C2207 C 0.26562 0.70052 0.18057 0.0
C2208 C 0.27597 0.69374 0.18312 0.0
C2209 C 0.28757 0.69963 0.18421 0.0
C2210 C 0.28866 0.7121 0.18306 0.0
H2211 H 0.27488 0.73902 0.16209 0.0
H2212 H 0.27886 0.72456 0.16612 0.0
H2213 H 0.26301 0.73029 0.16673 0.0
H2214 H 0.25843 0.7181 0.17784 0.0
H2215 H 0.2565 0.69629 0.17979 0.0
H2216 H 0.29622 0.21876 0.83173 0.0
H2217 H 0.29841 0.24061 0.83362 0.0
H2218 H 0.25946 0.24273 0.84033 0.0
H2219 H 0.25719 0.22094 0.83844 0.0
H2220 H 0.28495 0.25748 0.82589 0.0
H2221 H 0.27664 0.26365 0.85582 0.0
H2222 H 0.28036 0.2491 0.85181 0.0
H2223 H 0.26454 0.25497 0.85136 0.0
C2224 C 0.28816 0.22386 0.83369 0.0
C2225 C 0.27652 0.21812 0.83491 0.0
C2226 C 0.28945 0.23633 0.83481 0.0
C2227 C 0.27915 0.24327 0.8372 0.0
C2228 C 0.26763 0.23751 0.83865 0.0
H2229 H 0.25699 0.31788 0.83745 0.0
H2230 H 0.25923 0.29604 0.83925 0.0
C2231 C 0.26634 0.22504 0.83756 0.0
C2232 C 0.28003 0.25667 0.8374 0.0
H2233 H 0.27503 0.28146 0.84831 0.0
C2234 C 0.28297 0.26273 0.83082 0.0
C2235 C 0.27736 0.26348 0.84383 0.0
C2236 C 0.27466 0.25747 0.85112 0.0
C2237 C 0.28287 0.2754 0.83041 0.0
C2238 C 0.27997 0.28223 0.8368 0.0
C2239 C 0.27726 0.27619 0.84342 0.0
C2240 C 0.27909 0.29561 0.83656 0.0
C2241 C 0.28535 0.28137 0.82306 0.0
C2242 C 0.28962 0.30265 0.83469 0.0
C2243 C 0.28838 0.31514 0.83365 0.0
C2244 C 0.27659 0.32081 0.83453 0.0
C2245 C 0.26621 0.31381 0.83679 0.0
C2246 C 0.26746 0.30132 0.83779 0.0
H2247 H 0.28462 0.27485 0.81841 0.0
H2248 H 0.27861 0.2889 0.82208 0.0
H2249 H 0.29503 0.28518 0.82305 0.0
H2250 H 0.29874 0.29845 0.83386 0.0
H2251 H 0.29659 0.32033 0.83205 0.0
H2252 H 0.23975 0.69289 0.3448 0.0
H2253 H 0.2378 0.71479 0.34677 0.0
H2254 H 0.23203 0.71998 0.32346 0.0
H2255 H 0.23416 0.69828 0.32141 0.0
H2256 H 0.25307 0.73282 0.34052 0.0
H2257 H 0.20317 0.73951 0.33264 0.0
H2258 H 0.20958 0.72482 0.3349 0.0
H2259 H 0.21187 0.73114 0.32585 0.0
C2260 C 0.23803 0.6987 0.3401 0.0
C2261 C 0.23703 0.6938 0.33295 0.0
C2262 C 0.23685 0.71119 0.34124 0.0
C2263 C 0.23454 0.71897 0.33528 0.0
C2264 C 0.23347 0.7141 0.32816 0.0
H2265 H 0.237 0.79158 0.32141 0.0
H2266 H 0.23454 0.7699 0.32348 0.0
C2267 C 0.23468 0.70167 0.32701 0.0
C2268 C 0.2341 0.73227 0.33633 0.0
H2269 H 0.21638 0.75722 0.33231 0.0
C2270 C 0.24498 0.73818 0.33887 0.0
C2271 C 0.2235 0.73921 0.3342 0.0
C2272 C 0.21132 0.73334 0.33181 0.0
C2273 C 0.24582 0.75087 0.33889 0.0
C2274 C 0.23544 0.75779 0.33639 0.0
C2275 C 0.22435 0.75188 0.33419 0.0
C2276 C 0.23631 0.77106 0.33534 0.0
C2277 C 0.25803 0.75677 0.34118 0.0
C2278 C 0.23794 0.77893 0.34135 0.0
C2279 C 0.23928 0.7914 0.34018 0.0
C2280 C 0.23895 0.7962 0.33299 0.0
C2281 C 0.23709 0.78825 0.32702 0.0
C2282 C 0.23575 0.77584 0.32819 0.0
H2283 H 0.26578 0.75008 0.34183 0.0
H2284 H 0.26095 0.76367 0.33707 0.0
H2285 H 0.25667 0.76145 0.34654 0.0
H2286 H 0.23821 0.77543 0.34692 0.0
H2287 H 0.24053 0.79728 0.34491 0.0
H2288 H 0.45813 0.02977 0.58538 0.0
H2289 H 0.48089 0.02798 0.58725 0.0
H2290 H 0.47821 0.98918 0.5851 0.0
H2291 H 0.45542 0.99089 0.58322 0.0
H2292 H 0.49606 0.01493 0.59748 0.0
H2293 H 0.50278 0.999 0.56864 0.0
H2294 H 0.4882 1.00563 0.57181 0.0
H2295 H 0.49197 0.9902 0.57405 0.0
C2296 C 0.46234 0.02084 0.58544 0.0
C2297 C 0.45499 0.01048 0.58408 0.0
C2298 C 0.47536 0.01984 0.58648 0.0
C2299 C 0.48125 0.00847 0.58618 0.0
C2300 C 0.47387 0.99806 0.5852 0.0
H2301 H 0.56082 0.9895 0.58312 0.0
H2302 H 0.53799 0.98849 0.58498 0.0
C2303 C 0.46086 0.99905 0.58412 0.0
C2304 C 0.49518 0.00762 0.58648 0.0
H2305 H 0.52087 1.00001 0.57613 0.0
C2306 C 0.5015 0.01162 0.59283 0.0
C2307 C 0.50224 1.00333 0.58039 0.0
C2308 C 0.496 0.99938 0.57331 0.0
C2309 C 0.51473 0.01141 0.59326 0.0
C2310 C 0.52178 1.00728 0.58713 0.0
C2311 C 0.51544 1.00311 0.58083 0.0
C2312 C 0.53575 0.00771 0.58693 0.0
C2313 C 0.52103 0.01553 0.60028 0.0
C2314 C 0.54208 0.01883 0.58746 0.0
C2315 C 0.55511 0.01943 0.58638 0.0
C2316 C 0.56205 0.00894 0.58467 0.0
C2317 C 0.55572 0.99776 0.58435 0.0
C2318 C 0.5427 0.99716 0.58545 0.0
H2319 H 0.51453 0.01492 0.60507 0.0
H2320 H 0.52958 0.01006 0.60147 0.0
H2321 H 0.52391 0.02514 0.59969 0.0
H2322 H 0.53688 0.02713 0.58841 0.0
H2323 H 0.55966 0.02821 0.58655 0.0
H2324 H 0.05916 0.02397 0.08249 0.0
H2325 H 0.03638 0.02553 0.0844 0.0
H2326 H 0.03438 0.98698 0.08799 0.0
H2327 H 0.05713 0.98535 0.08609 0.0
H2328 H 0.01894 0.01427 0.07562 0.0
H2329 H 0.01244 0.99999 0.10466 0.0
H2330 H 0.02758 1.00445 0.10099 0.0
H2331 H 0.02156 0.98949 0.09929 0.0
C2332 C 0.05388 0.01585 0.08376 0.0
C2333 C 0.05994 1.00453 0.08411 0.0
C2334 C 0.04089 0.01676 0.08489 0.0
C2335 C 0.0337 1.0064 0.08642 0.0
C2336 C 0.03977 0.99514 0.087 0.0
H2337 H 0.95553 0.9863 0.0852 0.0
H2338 H 0.97835 0.98755 0.08701 0.0
C2339 C 0.05278 0.99422 0.08589 0.0
C2340 C 0.01975 1.00717 0.08666 0.0
H2341 H 0.99392 1.00038 0.09712 0.0
C2342 C 0.01347 0.01139 0.08035 0.0
C2343 C 0.01265 1.00332 0.09283 0.0
C2344 C 0.01889 0.99916 0.09986 0.0
C2345 C 1.00027 0.01151 0.07995 0.0
C2346 C 0.99315 1.00752 0.08608 0.0
C2347 C 0.99941 1.00346 0.09243 0.0
C2348 C 0.9792 1.00702 0.08583 0.0
C2349 C 0.99408 0.01549 0.07286 0.0
C2350 C 0.97209 0.0176 0.08479 0.0
C2351 C 0.95906 0.01692 0.08375 0.0
C2352 C 0.95289 1.00565 0.08378 0.0
C2353 C 0.95998 0.99513 0.08519 0.0
C2354 C 0.97302 0.99582 0.08621 0.0
H2355 H 1.00083 0.0156 0.06817 0.0
H2356 H 0.9861 0.00942 0.07142 0.0
H2357 H 0.9903 0.02479 0.07356 0.0
H2358 H 0.97666 0.02636 0.08463 0.0
H2359 H 0.95382 0.0252 0.0828 0.0
H2360 H 0.55792 0.02178 0.4376 0.0
H2361 H 0.53514 0.02125 0.43551 0.0
H2362 H 0.53836 0.98512 0.42668 0.0
H2363 H 0.56108 0.9854 0.42897 0.0
H2364 H 0.52009 0.01697 0.42271 0.0
H2365 H 0.51382 0.98145 0.44414 0.0
H2366 H 0.52827 0.98991 0.44315 0.0
H2367 H 0.52472 0.97778 0.43688 0.0
C2368 C 0.55378 0.01372 0.4352 0.0
C2369 C 0.5613 1.00358 0.43354 0.0
C2370 C 0.54079 0.01347 0.43396 0.0
C2371 C 0.53506 1.00308 0.43105 0.0
C2372 C 0.54259 0.99316 0.42903 0.0
H2373 H 0.45529 0.98413 0.42947 0.0
H2374 H 0.47799 0.98438 0.42709 0.0
C2375 C 0.55559 0.99339 0.43028 0.0
C2376 C 0.52114 1.00239 0.43056 0.0
H2377 H 0.49562 0.988 0.43793 0.0
C2378 C 0.51472 0.0106 0.426 0.0
C2379 C 0.51418 0.99407 0.43487 0.0
C2380 C 0.52055 0.98535 0.44009 0.0
C2381 C 0.50148 0.01073 0.42565 0.0
C2382 C 0.49453 1.00258 0.43007 0.0
C2383 C 0.50097 0.99421 0.43451 0.0
C2384 C 0.48058 1.00296 0.43057 0.0
C2385 C 0.49507 0.01957 0.42053 0.0
C2386 C 0.47449 0.01337 0.43323 0.0
C2387 C 0.46151 0.01327 0.43456 0.0
C2388 C 0.45439 1.00273 0.4333 0.0
C2389 C 0.46046 0.99244 0.43041 0.0
C2390 C 0.47345 0.99254 0.42909 0.0
H2391 H 0.50144 0.02243 0.416 0.0
H2392 H 0.48641 0.01559 0.4181 0.0
H2393 H 0.49235 0.02778 0.42369 0.0
H2394 H 0.47984 0.02143 0.43455 0.0
H2395 H 0.4571 0.02138 0.43671 0.0
H2396 H 0.05785 0.03059 0.93232 0.0
H2397 H 0.03505 0.02914 0.93047 0.0
H2398 H 0.03727 0.99025 0.93219 0.0
H2399 H 0.06009 0.99162 0.93404 0.0
H2400 H 0.0196 0.01652 0.92016 0.0
H2401 H 0.01304 1.00001 0.94887 0.0
H2402 H 0.02766 1.00653 0.9457 0.0
H2403 H 0.02369 0.9912 0.94333 0.0
C2404 C 0.05353 0.02171 0.93217 0.0
C2405 C 0.06076 0.01123 0.9334 0.0
C2406 C 0.0405 0.02091 0.93113 0.0
C2407 C 0.03447 0.00961 0.93132 0.0
C2408 C 0.04173 0.99908 0.93217 0.0
H2409 H 0.95475 0.99155 0.93458 0.0
H2410 H 0.97754 0.99033 0.9326 0.0
C2411 C 0.05475 0.99988 0.93323 0.0
C2412 C 0.02052 0.00895 0.93108 0.0
H2413 H 0.99488 1.00144 0.94148 0.0
C2414 C 0.01417 0.01318 0.9248 0.0
C2415 C 0.01349 1.00461 0.93716 0.0
C2416 C 0.01978 1.00042 0.94418 0.0
C2417 C 1.00094 0.01316 0.92443 0.0
C2418 C 0.99392 0.00897 0.93055 0.0
C2419 C 1.00029 1.00458 0.93678 0.0
C2420 C 0.97996 0.00956 0.93082 0.0
C2421 C 0.9946 0.01751 0.91747 0.0
C2422 C 0.97373 0.02076 0.93041 0.0
C2423 C 0.96072 0.02149 0.93155 0.0
C2424 C 0.95371 0.01104 0.9332 0.0
C2425 C 0.95991 0.99978 0.9334 0.0
C2426 C 0.97292 0.99906 0.93223 0.0
H2427 H 1.00103 0.01693 0.91265 0.0
H2428 H 0.98597 0.01218 0.91627 0.0
H2429 H 0.99184 0.02714 0.91817 0.0
H2430 H 0.97901 0.02902 0.92951 0.0
H2431 H 0.95626 0.03032 0.93148 0.0
H2432 H 0.22302 0.57644 0.1626 0.0
H2433 H 0.21215 0.56204 0.15458 0.0
H2434 H 0.22928 0.57858 0.13552 0.0
H2435 H 0.24064 0.59264 0.1435 0.0
H2436 H 0.19499 0.56766 0.14417 0.0
H2437 H 0.23473 0.54311 0.13113 0.0
H2438 H 0.23673 0.55251 0.13919 0.0
H2439 H 0.23599 0.55923 0.13017 0.0
C2440 C 0.22474 0.57683 0.15671 0.0
C2441 C 0.23273 0.58571 0.1537 0.0
C2442 C 0.21844 0.56864 0.15214 0.0
C2443 C 0.22002 0.56912 0.14446 0.0
C2444 C 0.22811 0.57785 0.14144 0.0
H2445 H 0.18097 0.54048 0.10667 0.0
H2446 H 0.1952 0.55073 0.11525 0.0
C2447 C 0.23446 0.58601 0.14601 0.0
C2448 C 0.21246 0.56114 0.13958 0.0
H2449 H 0.21451 0.54084 0.12539 0.0
C2450 C 0.19926 0.56168 0.14013 0.0
C2451 C 0.21805 0.55337 0.1343 0.0
C2452 C 0.23215 0.55191 0.1337 0.0
C2453 C 0.19151 0.55495 0.13539 0.0
C2454 C 0.1971 0.54737 0.13002 0.0
C2455 C 0.21028 0.54669 0.12952 0.0
C2456 C 0.18933 0.54037 0.12476 0.0
C2457 C 0.17738 0.55625 0.13602 0.0
C2458 C 0.18158 0.53093 0.12724 0.0
C2459 C 0.1735 0.52499 0.12235 0.0
C2460 C 0.17303 0.52837 0.11487 0.0
C2461 C 0.18117 0.53755 0.11236 0.0
C2462 C 0.18927 0.54347 0.11726 0.0
H2463 H 0.17465 0.56414 0.13947 0.0
H2464 H 0.17305 0.55727 0.13048 0.0
H2465 H 0.17342 0.54796 0.13859 0.0
H2466 H 0.18165 0.5283 0.133 0.0
H2467 H 0.16754 0.51781 0.12444 0.0
H2468 H 0.73844 0.89691 0.37497 0.0
H2469 H 0.72684 0.91053 0.38317 0.0
H2470 H 0.70955 0.92764 0.36435 0.0
H2471 H 0.72066 0.91372 0.35612 0.0
H2472 H 0.72614 0.93553 0.38438 0.0
H2473 H 0.67921 0.9174 0.37655 0.0
H2474 H 0.69373 0.90993 0.37406 0.0
H2475 H 0.68832 0.92283 0.3689 0.0
C2476 C 0.73209 0.90351 0.37257 0.0
C2477 C 0.73037 0.90411 0.36488 0.0
C2478 C 0.72555 0.91135 0.37727 0.0
C2479 C 0.71715 0.91994 0.37438 0.0
C2480 C 0.71579 0.9209 0.36671 0.0
H2481 H 0.66522 0.97116 0.39437 0.0
H2482 H 0.67914 0.96017 0.38595 0.0
C2483 C 0.72228 0.91303 0.362 0.0
C2484 C 0.70961 0.92768 0.37942 0.0
H2485 H 0.67938 0.93456 0.38437 0.0
C2486 C 0.71592 0.93532 0.38439 0.0
C2487 C 0.69627 0.92734 0.37944 0.0
C2488 C 0.68896 0.91886 0.3745 0.0
C2489 C 0.70922 0.94275 0.38932 0.0
C2490 C 0.6959 0.94243 0.38931 0.0
C2491 C 0.6896 0.93483 0.38433 0.0
C2492 C 0.68823 0.94971 0.39451 0.0
C2493 C 0.71643 0.95102 0.39443 0.0
C2494 C 0.68876 0.94749 0.40212 0.0
C2495 C 0.68073 0.95368 0.40695 0.0
C2496 C 0.67198 0.96217 0.40425 0.0
C2497 C 0.6717 0.96455 0.39663 0.0
C2498 C 0.6797 0.95834 0.39181 0.0
H2499 H 0.72631 0.95233 0.39257 0.0
H2500 H 0.71177 0.96001 0.39483 0.0
H2501 H 0.71665 0.94698 0.40003 0.0
H2502 H 0.6951 0.94069 0.40431 0.0
H2503 H 0.68108 0.95149 0.41277 0.0
H2504 H 0.35547 0.46494 0.6145 0.0
H2505 H 0.34119 0.45444 0.62291 0.0
H2506 H 0.31802 0.48647 0.6244 0.0
H2507 H 0.33224 0.49701 0.61589 0.0
H2508 H 0.33549 0.46029 0.63711 0.0
H2509 H 0.29201 0.46053 0.62001 0.0
H2510 H 0.30731 0.46417 0.61627 0.0
H2511 H 0.29881 0.47518 0.62163 0.0
C2512 C 0.34733 0.46975 0.61662 0.0
C2513 C 0.34497 0.4818 0.61454 0.0
C2514 C 0.33916 0.46373 0.6214 0.0
C2515 C 0.32846 0.46962 0.62422 0.0
C2516 C 0.32606 0.48166 0.62216 0.0
H2517 H 0.27343 0.44158 0.65621 0.0
H2518 H 0.2856 0.45523 0.64823 0.0
C2519 C 0.3342 0.48768 0.61732 0.0
C2520 C 0.32017 0.46318 0.62952 0.0
H2521 H 0.29028 0.4524 0.63203 0.0
C2522 C 0.3256 0.4586 0.636 0.0
C2523 C 0.30724 0.46104 0.62808 0.0
C2524 C 0.30099 0.46539 0.6211 0.0
C2525 C 0.31851 0.45179 0.64104 0.0
C2526 C 0.30569 0.4494 0.63952 0.0
C2527 C 0.30013 0.45427 0.63316 0.0
C2528 C 0.29817 0.44124 0.64425 0.0
C2529 C 0.3248 0.4471 0.64793 0.0
C2530 C 0.30115 0.42888 0.64457 0.0
C2531 C 0.29424 0.42111 0.64909 0.0
C2532 C 0.28421 0.42554 0.65339 0.0
C2533 C 0.28118 0.43793 0.65301 0.0
C2534 C 0.28806 0.44571 0.64844 0.0
H2535 H 0.33369 0.45203 0.64915 0.0
H2536 H 0.31841 0.4479 0.65276 0.0
H2537 H 0.32712 0.43737 0.64718 0.0
H2538 H 0.30885 0.42526 0.64132 0.0
H2539 H 0.29691 0.41164 0.64931 0.0
H2540 H 0.85143 0.04917 0.89443 0.0
H2541 H 0.83715 0.06043 0.88639 0.0
H2542 H 0.81626 0.07274 0.90537 0.0
H2543 H 0.83083 0.06194 0.91349 0.0
H2544 H 0.81141 0.05927 0.88429 0.0
H2545 H 0.82533 0.10434 0.89521 0.0
H2546 H 0.83406 0.09073 0.89726 0.0
H2547 H 0.81964 0.094 0.90208 0.0
C2548 C 0.84387 0.05435 0.89691 0.0
C2549 C 0.8424 0.05478 0.90462 0.0
C2550 C 0.83565 0.0607 0.8923 0.0
C2551 C 0.82579 0.0676 0.89529 0.0
C2552 C 0.82397 0.06767 0.90296 0.0
H2553 H 0.77198 0.11672 0.87463 0.0
H2554 H 0.78282 0.10318 0.88323 0.0
C2555 C 0.83223 0.06137 0.90758 0.0
C2556 C 0.81763 0.07493 0.89036 0.0
H2557 H 0.80887 0.10399 0.88645 0.0
C2558 C 0.81084 0.06905 0.88476 0.0
C2559 C 0.81691 0.08769 0.89099 0.0
C2560 C 0.82445 0.0946 0.89666 0.0
C2561 C 0.80331 0.07558 0.87978 0.0
C2562 C 0.80269 0.08834 0.88038 0.0
C2563 C 0.80933 0.0942 0.88603 0.0
C2564 C 0.79557 0.09586 0.87505 0.0
C2565 C 0.79601 0.06879 0.87396 0.0
C2566 C 0.79916 0.09623 0.8676 0.0
C2567 C 0.79306 0.10403 0.86269 0.0
C2568 C 0.78328 0.11166 0.86514 0.0
C2569 C 0.77958 0.11109 0.87258 0.0
C2570 C 0.78571 0.10331 0.87749 0.0
H2571 H 0.79488 0.05908 0.87541 0.0
H2572 H 0.78653 0.07285 0.87315 0.0
H2573 H 0.80117 0.06931 0.86865 0.0
H2574 H 0.80694 0.09074 0.86564 0.0
H2575 H 0.7963 0.10437 0.85703 0.0
H2576 H 0.18254 0.47663 0.91229 0.0
H2577 H 0.19735 0.466 0.90424 0.0
H2578 H 0.17911 0.48138 0.88516 0.0
H2579 H 0.16464 0.49248 0.89317 0.0
H2580 H 0.19143 0.44898 0.89412 0.0
H2581 H 0.21576 0.48705 0.88026 0.0
H2582 H 0.20624 0.48913 0.88841 0.0
H2583 H 0.19893 0.48793 0.87949 0.0
C2584 C 0.18186 0.478 0.90639 0.0
C2585 C 0.17239 0.48544 0.90338 0.0
C2586 C 0.19028 0.47184 0.90179 0.0
C2587 C 0.18945 0.47301 0.8941 0.0
C2588 C 0.18011 0.48053 0.89108 0.0
H2589 H 0.21964 0.43467 0.85658 0.0
H2590 H 0.20858 0.44833 0.86503 0.0
C2591 C 0.17172 0.48674 0.89567 0.0
C2592 C 0.19773 0.46568 0.88923 0.0
H2593 H 0.21845 0.46744 0.87484 0.0
C2594 C 0.19745 0.45303 0.88996 0.0
C2595 C 0.20555 0.47098 0.88379 0.0
C2596 C 0.20675 0.48452 0.88298 0.0
C2597 C 0.2045 0.44551 0.88528 0.0
C2598 C 0.21215 0.4508 0.87977 0.0
C2599 C 0.21255 0.46344 0.87907 0.0
C2600 C 0.21955 0.44326 0.87459 0.0
C2601 C 0.20347 0.43195 0.88613 0.0
C2602 C 0.22957 0.43612 0.87715 0.0
C2603 C 0.23597 0.42837 0.87234 0.0
C2604 C 0.23246 0.42762 0.86486 0.0
C2605 C 0.22267 0.4351 0.86228 0.0
C2606 C 0.2163 0.44288 0.8671 0.0
H2607 H 0.19534 0.42932 0.88965 0.0
H2608 H 0.20246 0.42752 0.88067 0.0
H2609 H 0.2122 0.42844 0.88874 0.0
H2610 H 0.23234 0.43644 0.8829 0.0
H2611 H 0.24362 0.42291 0.87448 0.0
H2612 H 0.80462 0.89017 0.15205 0.0
H2613 H 0.81502 0.90362 0.14327 0.0
H2614 H 0.78294 0.92762 0.14382 0.0
H2615 H 0.77248 0.91421 0.15268 0.0
H2616 H 0.80694 0.91015 0.12943 0.0
H2617 H 0.81215 0.95084 0.14725 0.0
H2618 H 0.80814 0.93614 0.15092 0.0
H2619 H 0.79635 0.94517 0.14639 0.0
C2620 C 0.79977 0.89831 0.1503 0.0
C2621 C 0.78772 0.90113 0.15305 0.0
C2622 C 0.80574 0.90601 0.1453 0.0
C2623 C 0.79982 0.91669 0.14294 0.0
C2624 C 0.78779 0.91956 0.14568 0.0
H2625 H 0.82844 0.97048 0.11134 0.0
H2626 H 0.81439 0.95891 0.11948 0.0
C2627 C 0.78183 0.91188 0.15073 0.0
C2628 C 0.80618 0.92454 0.13745 0.0
H2629 H 0.81897 0.95262 0.1349 0.0
C2630 C 0.80953 0.91945 0.13062 0.0
C2631 C 0.80947 0.9367 0.13899 0.0
C2632 C 0.80645 0.94254 0.1463 0.0
C2633 C 0.81627 0.92611 0.12535 0.0
C2634 C 0.81987 0.93813 0.12698 0.0
C2635 C 0.81618 0.94338 0.13369 0.0
C2636 C 0.82819 0.94509 0.12198 0.0
C2637 C 0.81956 0.9202 0.11809 0.0
C2638 C 0.8406 0.94118 0.12076 0.0
C2639 C 0.84861 0.94773 0.11614 0.0
C2640 C 0.84438 0.95835 0.11266 0.0
C2641 C 0.83193 0.96226 0.11389 0.0
C2642 C 0.82392 0.95572 0.11856 0.0
H2643 H 0.81339 0.9123 0.11692 0.0
H2644 H 0.81875 0.92676 0.11348 0.0
H2645 H 0.82945 0.91693 0.1183 0.0
H2646 H 0.84412 0.93308 0.12343 0.0
H2647 H 0.8581 0.94441 0.11525 0.0
H2648 H 0.27399 0.57177 0.36101 0.0
H2649 H 0.285 0.55803 0.36947 0.0
H2650 H 0.30393 0.5885 0.37939 0.0
H2651 H 0.29302 0.60222 0.371 0.0
H2652 H 0.31043 0.55422 0.37117 0.0
H2653 H 0.29001 0.5711 0.39731 0.0
H2654 H 0.28341 0.57482 0.38842 0.0
H2655 H 0.29678 0.58305 0.39192 0.0
C2656 C 0.2805 0.57552 0.365 0.0
C2657 C 0.28254 0.5881 0.36538 0.0
C2658 C 0.28673 0.56768 0.36984 0.0
C2659 C 0.29507 0.57227 0.37516 0.0
C2660 C 0.29725 0.58479 0.37548 0.0
H2661 H 0.35374 0.54866 0.40352 0.0
H2662 H 0.33867 0.55893 0.39544 0.0
C2663 C 0.29101 0.59262 0.37067 0.0
C2664 C 0.30198 0.56401 0.38019 0.0
H2665 H 0.30907 0.5594 0.39835 0.0
C2666 C 0.30998 0.5552 0.37712 0.0
C2667 C 0.30132 0.56526 0.38795 0.0
C2668 C 0.29231 0.57399 0.3916 0.0
C2669 C 0.31779 0.54804 0.3816 0.0
C2670 C 0.31756 0.54974 0.38931 0.0
C2671 C 0.30925 0.55821 0.39241 0.0
C2672 C 0.32649 0.54338 0.39422 0.0
C2673 C 0.32662 0.53902 0.37808 0.0
C2674 C 0.32451 0.53126 0.39622 0.0
C2675 C 0.33308 0.52537 0.40087 0.0
C2676 C 0.3438 0.53149 0.40351 0.0
C2677 C 0.34567 0.54366 0.40149 0.0
C2678 C 0.33706 0.54955 0.39691 0.0
H2679 H 0.3261 0.5392 0.37196 0.0
H2680 H 0.33647 0.54094 0.37979 0.0
H2681 H 0.32426 0.52976 0.38001 0.0
H2682 H 0.31635 0.52639 0.3942 0.0
H2683 H 0.33145 0.51598 0.40229 0.0
H2684 H 0.67321 0.04191 0.62111 0.0
H2685 H 0.68663 0.05372 0.62943 0.0
H2686 H 0.68776 0.08275 0.61356 0.0
H2687 H 0.67415 0.07113 0.60528 0.0
H2688 H 0.71141 0.06442 0.62685 0.0
H2689 H 0.67418 0.09847 0.63289 0.0
H2690 H 0.67073 0.0839 0.62884 0.0
H2691 H 0.67722 0.0958 0.62327 0.0
C2692 C 0.6763 0.05082 0.6194 0.0
C2693 C 0.67254 0.05562 0.61255 0.0
C2694 C 0.68402 0.05751 0.62413 0.0
C2695 C 0.68804 0.06915 0.62214 0.0
C2696 C 0.68462 0.07384 0.61523 0.0
H2697 H 0.72792 0.12708 0.6441 0.0
H2698 H 0.71686 0.11397 0.6354 0.0
C2699 C 0.67694 0.06714 0.61048 0.0
C2700 C 0.69553 0.07654 0.62735 0.0
H2701 H 0.69449 0.10239 0.63766 0.0
C2702 C 0.70773 0.07271 0.62924 0.0
C2703 C 0.69067 0.08732 0.63046 0.0
C2704 C 0.67744 0.09161 0.62883 0.0
C2705 C 0.71532 0.07955 0.63404 0.0
C2706 C 0.71045 0.09036 0.63713 0.0
C2707 C 0.69822 0.09412 0.63527 0.0
C2708 C 0.71787 0.098 0.64228 0.0
C2709 C 0.72858 0.07531 0.63559 0.0
C2710 C 0.72211 0.09338 0.64905 0.0
C2711 C 0.72858 0.10083 0.65401 0.0
C2712 C 0.73084 0.11308 0.65233 0.0
C2713 C 0.72657 0.11765 0.64553 0.0
C2714 C 0.72015 0.11019 0.64057 0.0
H2715 H 0.73197 0.06886 0.63132 0.0
H2716 H 0.73521 0.08307 0.63586 0.0
H2717 H 0.72877 0.07059 0.64099 0.0
H2718 H 0.72024 0.08407 0.65055 0.0
H2719 H 0.73181 0.09699 0.65917 0.0
H2720 H 0.78244 0.4418 0.85773 0.0
H2721 H 0.79446 0.45491 0.86605 0.0
H2722 H 0.79936 0.42508 0.88111 0.0
H2723 H 0.78787 0.41181 0.87272 0.0
H2724 H 0.79048 0.46137 0.88073 0.0
H2725 H 0.83542 0.43621 0.87755 0.0
H2726 H 0.82214 0.43391 0.87149 0.0
H2727 H 0.82252 0.4268 0.88041 0.0
C2728 C 0.78617 0.438 0.86278 0.0
C2729 C 0.78426 0.42571 0.86452 0.0
C2730 C 0.79295 0.44553 0.86755 0.0
C2731 C 0.79799 0.44091 0.87413 0.0
C2732 C 0.79577 0.42877 0.87599 0.0
H2733 H 0.84205 0.46778 0.91056 0.0
H2734 H 0.82824 0.45648 0.90223 0.0
C2735 C 0.78904 0.42123 0.87122 0.0
C2736 C 0.80567 0.44872 0.87903 0.0
H2737 H 0.83463 0.4509 0.88714 0.0
C2738 C 0.80016 0.45914 0.88209 0.0
C2739 C 0.81832 0.44582 0.88077 0.0
C2740 C 0.82501 0.43515 0.87733 0.0
C2741 C 0.80686 0.46655 0.88703 0.0
C2742 C 0.81941 0.46347 0.88888 0.0
C2743 C 0.82496 0.45316 0.88575 0.0
C2744 C 0.82697 0.47076 0.89411 0.0
C2745 C 0.80041 0.47742 0.89037 0.0
C2746 C 0.8308 0.48254 0.8923 0.0
C2747 C 0.83868 0.48904 0.89705 0.0
C2748 C 0.84287 0.48385 0.9037 0.0
C2749 C 0.83884 0.4721 0.90554 0.0
C2750 C 0.83102 0.4656 0.90077 0.0
H2751 H 0.79004 0.47718 0.88953 0.0
H2752 H 0.80239 0.47798 0.89638 0.0
H2753 H 0.80412 0.48577 0.88775 0.0
H2754 H 0.82791 0.48661 0.88714 0.0
H2755 H 0.84156 0.4981 0.8955 0.0
H2756 H 0.27835 0.09824 0.65683 0.0
H2757 H 0.2897 0.08463 0.64845 0.0
H2758 H 0.30737 0.11539 0.63809 0.0
H2759 H 0.29614 0.12901 0.64644 0.0
H2760 H 0.29799 0.09843 0.62803 0.0
H2761 H 0.32744 0.07659 0.64962 0.0
H2762 H 0.31072 0.07601 0.65117 0.0
H2763 H 0.31869 0.09036 0.65128 0.0
C2764 C 0.28472 0.10209 0.6528 0.0
C2765 C 0.28635 0.11471 0.65231 0.0
C2766 C 0.29119 0.09431 0.64802 0.0
C2767 C 0.29948 0.099 0.64271 0.0
C2768 C 0.30101 0.11158 0.64215 0.0
H2769 H 0.36063 0.0672 0.61868 0.0
H2770 H 0.34652 0.07826 0.62692 0.0
C2771 C 0.29454 0.11936 0.64691 0.0
C2772 C 0.30666 0.09088 0.63772 0.0
H2773 H 0.32975 0.06932 0.63746 0.0
C2774 C 0.30489 0.09201 0.63008 0.0
C2775 C 0.31573 0.0826 0.64042 0.0
C2776 C 0.31838 0.08134 0.64856 0.0
C2777 C 0.31204 0.08517 0.62506 0.0
C2778 C 0.32109 0.07687 0.62776 0.0
C2779 C 0.32275 0.07564 0.63541 0.0
C2780 C 0.32948 0.06993 0.62277 0.0
C2781 C 0.31018 0.0872 0.6169 0.0
C2782 C 0.3246 0.06149 0.61773 0.0
C2783 C 0.33267 0.05511 0.61301 0.0
C2784 C 0.34578 0.05699 0.61329 0.0
C2785 C 0.35061 0.0654 0.61839 0.0
C2786 C 0.34255 0.07177 0.62308 0.0
H2787 H 0.30489 0.09568 0.61576 0.0
H2788 H 0.31939 0.08763 0.614 0.0
H2789 H 0.30475 0.07953 0.61456 0.0
H2790 H 0.31455 0.05977 0.61749 0.0
H2791 H 0.32866 0.04858 0.60922 0.0
H2792 H 0.74655 0.58588 0.37251 0.0
H2793 H 0.73544 0.57196 0.38078 0.0
H2794 H 0.70373 0.57146 0.3659 0.0
H2795 H 0.71477 0.58528 0.35762 0.0
H2796 H 0.71322 0.57586 0.38785 0.0
H2797 H 0.70878 0.53571 0.36974 0.0
H2798 H 0.71933 0.54808 0.36769 0.0
H2799 H 0.70281 0.54923 0.36551 0.0
C2800 C 0.73723 0.58274 0.37099 0.0
C2801 C 0.73156 0.58664 0.36439 0.0
C2802 C 0.73093 0.57476 0.3757 0.0
C2803 C 0.71885 0.57051 0.3739 0.0
C2804 C 0.71318 0.57435 0.36731 0.0
H2805 H 0.65734 0.53466 0.39524 0.0
H2806 H 0.67193 0.54511 0.387 0.0
C2807 C 0.7195 0.58227 0.36258 0.0
C2808 C 0.7118 0.5627 0.37912 0.0
H2809 H 0.69538 0.53618 0.3804 0.0
C2810 C 0.70947 0.56711 0.38626 0.0
C2811 C 0.70692 0.55128 0.37703 0.0
C2812 C 0.70969 0.54573 0.3696 0.0
C2813 C 0.70198 0.56062 0.39127 0.0
C2814 C 0.69679 0.54938 0.38909 0.0
C2815 C 0.69934 0.54483 0.38202 0.0
C2816 C 0.68823 0.5425 0.39398 0.0
C2817 C 0.69928 0.56603 0.39875 0.0
C2818 C 0.69263 0.53739 0.40057 0.0
C2819 C 0.68433 0.5313 0.40528 0.0
C2820 C 0.67147 0.53021 0.40346 0.0
C2821 C 0.66719 0.53517 0.39677 0.0
C2822 C 0.6755 0.54121 0.39206 0.0
H2823 H 0.70211 0.5757 0.39908 0.0
H2824 H 0.68909 0.5653 0.40008 0.0
H2825 H 0.70459 0.56094 0.40301 0.0
H2826 H 0.70247 0.53815 0.40209 0.0
H2827 H 0.68799 0.52742 0.41032 0.0
H2828 H 0.16367 0.96985 0.1235 0.0
H2829 H 0.17738 0.95878 0.13199 0.0
H2830 H 0.19275 0.93845 0.11378 0.0
H2831 H 0.17892 0.94932 0.10525 0.0
H2832 H 0.17704 0.9332 0.1338 0.0
H2833 H 0.2243 0.94978 0.12533 0.0
H2834 H 0.20991 0.95769 0.12304 0.0
H2835 H 0.21446 0.94444 0.11794 0.0
C2836 C 0.16997 0.96303 0.12129 0.0
C2837 C 0.17014 0.96044 0.11369 0.0
C2838 C 0.17785 0.95678 0.12614 0.0
C2839 C 0.18615 0.94789 0.1235 0.0
C2840 C 0.18658 0.94545 0.11591 0.0
H2841 H 0.23545 0.89464 0.14325 0.0
H2842 H 0.22397 0.90824 0.13501 0.0
C2843 C 0.17867 0.95168 0.11104 0.0
C2844 C 0.19369 0.94059 0.12875 0.0
H2845 H 0.2238 0.93317 0.13364 0.0
C2846 C 0.18726 0.93325 0.13381 0.0
C2847 C 0.20702 0.94064 0.1287 0.0
C2848 C 0.21437 0.94862 0.12351 0.0
C2849 C 0.1938 0.92574 0.13874 0.0
C2850 C 0.20714 0.92579 0.13872 0.0
C2851 C 0.21358 0.93318 0.13367 0.0
C2852 C 0.21455 0.91799 0.14378 0.0
C2853 C 0.18633 0.91753 0.14376 0.0
C2854 C 0.21329 0.91913 0.15145 0.0
C2855 C 0.21971 0.91126 0.15618 0.0
C2856 C 0.22763 0.90216 0.15333 0.0
C2857 C 0.22924 0.90136 0.14563 0.0
C2858 C 0.22276 0.9092 0.14091 0.0
H2859 H 0.17653 0.91623 0.14176 0.0
H2860 H 0.19089 0.90851 0.14426 0.0
H2861 H 0.18583 0.92164 0.14934 0.0
H2862 H 0.2072 0.92601 0.15379 0.0
H2863 H 0.21819 0.9121 0.16206 0.0
H2864 H 0.85823 0.53456 0.12346 0.0
H2865 H 0.84435 0.54565 0.13181 0.0
H2866 H 0.81348 0.54113 0.11659 0.0
H2867 H 0.82718 0.52955 0.10833 0.0
H2868 H 0.83216 0.56692 0.12883 0.0
H2869 H 0.79749 0.5312 0.13607 0.0
H2870 H 0.81238 0.52783 0.1317 0.0
H2871 H 0.79945 0.53356 0.12634 0.0
C2872 C 0.84842 0.53567 0.12195 0.0
C2873 C 0.84381 0.53109 0.11523 0.0
C2874 C 0.84053 0.54211 0.12671 0.0
C2875 C 0.82785 0.54409 0.12487 0.0
C2876 C 0.82317 0.53951 0.11819 0.0
H2877 H 0.76955 0.58824 0.14559 0.0
H2878 H 0.78159 0.57506 0.13728 0.0
C2879 C 0.83106 0.53302 0.11343 0.0
C2880 C 0.81978 0.55155 0.12978 0.0
H2881 H 0.79288 0.55116 0.14016 0.0
C2882 C 0.8236 0.56345 0.13133 0.0
C2883 C 0.80858 0.54703 0.133 0.0
C2884 C 0.80426 0.53417 0.13176 0.0
C2885 C 0.81651 0.57097 0.13598 0.0
C2886 C 0.80538 0.56643 0.13924 0.0
C2887 C 0.80144 0.55459 0.13764 0.0
C2888 C 0.79784 0.57384 0.14443 0.0
C2889 C 0.8209 0.58379 0.13731 0.0
C2890 C 0.80293 0.57729 0.15125 0.0
C2891 C 0.79611 0.58481 0.156 0.0
C2892 C 0.78407 0.58902 0.15401 0.0
C2893 C 0.77887 0.58528 0.14724 0.0
C2894 C 0.78569 0.5777 0.14251 0.0
H2895 H 0.82792 0.58673 0.13314 0.0
H2896 H 0.81281 0.59018 0.13723 0.0
H2897 H 0.82539 0.58435 0.14283 0.0
H2898 H 0.81225 0.57428 0.15286 0.0
H2899 H 0.80043 0.58761 0.16113 0.0
H2900 H 0.1731 0.07128 0.91151 0.0
H2901 H 0.1867 0.08229 0.90293 0.0
H2902 H 0.18768 0.05118 0.88855 0.0
H2903 H 0.17404 0.04011 0.8971 0.0
H2904 H 0.21067 0.07734 0.89752 0.0
H2905 H 0.17538 0.07799 0.87488 0.0
H2906 H 0.17137 0.07377 0.8842 0.0
H2907 H 0.17924 0.06316 0.87825 0.0
C2908 C 0.17633 0.06673 0.90656 0.0
C2909 C 0.17242 0.05485 0.90496 0.0
C2910 C 0.18405 0.07305 0.90165 0.0
C2911 C 0.18801 0.06764 0.89504 0.0
C2912 C 0.18448 0.05564 0.89354 0.0
H2913 H 0.2312 0.09704 0.85808 0.0
H2914 H 0.22036 0.0834 0.86664 0.0
C2915 C 0.17671 0.04932 0.89843 0.0
C2916 C 0.19567 0.07465 0.8897 0.0
H2917 H 0.19543 0.0862 0.87223 0.0
C2918 C 0.20735 0.07927 0.89199 0.0
C2919 C 0.19131 0.07714 0.88247 0.0
C2920 C 0.1786 0.07286 0.8798 0.0
C2921 C 0.21481 0.08631 0.88725 0.0
C2922 C 0.21038 0.08893 0.88007 0.0
C2923 C 0.19881 0.08414 0.87773 0.0
C2924 C 0.21733 0.09706 0.875 0.0
C2925 C 0.22741 0.09085 0.88994 0.0
C2926 C 0.21908 0.10928 0.87685 0.0
C2927 C 0.22515 0.11711 0.87196 0.0
C2928 C 0.22958 0.1129 0.8651 0.0
C2929 C 0.2278 0.10062 0.86328 0.0
C2930 C 0.22168 0.0928 0.86817 0.0
H2931 H 0.23089 0.0855 0.89471 0.0
H2932 H 0.23457 0.09049 0.88547 0.0
H2933 H 0.22643 0.10041 0.89173 0.0
H2934 H 0.21553 0.11282 0.88202 0.0
H2935 H 0.22611 0.12655 0.87349 0.0
H2936 H 0.73976 0.4413 0.65701 0.0
H2937 H 0.72806 0.45514 0.64896 0.0
H2938 H 0.70907 0.42475 0.63898 0.0
H2939 H 0.72065 0.41089 0.647 0.0
H2940 H 0.71788 0.44156 0.62874 0.0
H2941 H 0.69064 0.46382 0.65118 0.0
H2942 H 0.70748 0.46414 0.65225 0.0
H2943 H 0.69928 0.44992 0.65256 0.0
C2944 C 0.73303 0.43758 0.65313 0.0
C2945 C 0.73112 0.42499 0.65265 0.0
C2946 C 0.72636 0.44549 0.64854 0.0
C2947 C 0.71759 0.44097 0.64344 0.0
C2948 C 0.71581 0.42842 0.64288 0.0
H2949 H 0.65513 0.47359 0.62108 0.0
H2950 H 0.66967 0.46256 0.62906 0.0
C2951 C 0.72248 0.42051 0.64744 0.0
C2952 C 0.71017 0.44923 0.63868 0.0
H2953 H 0.68746 0.47116 0.63911 0.0
C2954 C 0.71128 0.44809 0.631 0.0
C2955 C 0.70148 0.45765 0.64165 0.0
C2956 C 0.69952 0.45893 0.64986 0.0
C2957 C 0.70383 0.45503 0.62619 0.0
C2958 C 0.69517 0.46348 0.62917 0.0
C2959 C 0.69417 0.46473 0.63685 0.0
C2960 C 0.6865 0.47055 0.62442 0.0
C2961 C 0.70496 0.45296 0.61799 0.0
C2962 C 0.69114 0.47884 0.61922 0.0
C2963 C 0.68283 0.4852 0.61464 0.0
C2964 C 0.66973 0.48345 0.61523 0.0
C2965 C 0.66514 0.47528 0.62054 0.0
C2966 C 0.67344 0.46892 0.62509 0.0
H2967 H 0.70996 0.44437 0.6167 0.0
H2968 H 0.69551 0.45272 0.61536 0.0
H2969 H 0.71036 0.46052 0.6155 0.0
H2970 H 0.70118 0.48041 0.61871 0.0
H2971 H 0.68665 0.49155 0.61069 0.0
H2972 H 0.29815 0.91014 0.35717 0.0
H2973 H 0.3086 0.9238 0.36587 0.0
H2974 H 0.28647 0.90907 0.38366 0.0
H2975 H 0.27578 0.89554 0.375 0.0
H2976 H 0.29771 0.94147 0.37624 0.0
H2977 H 0.32405 0.90413 0.38991 0.0
H2978 H 0.3168 0.90241 0.38096 0.0
H2979 H 0.30728 0.90213 0.38915 0.0
C2980 C 0.29536 0.90992 0.36291 0.0
C2981 C 0.28619 0.90166 0.36539 0.0
C2982 C 0.30138 0.9177 0.36787 0.0
C2983 C 0.29841 0.91731 0.37541 0.0
C2984 C 0.28903 0.90935 0.37788 0.0
H2985 H 0.33381 0.95082 0.41362 0.0
H2986 H 0.31956 0.93972 0.40546 0.0
C2987 C 0.28297 0.9016 0.37292 0.0
C2988 C 0.30539 0.925 0.38071 0.0
H2989 H 0.3265 0.92369 0.39489 0.0
C2990 C 0.304 0.93761 0.38033 0.0
C2991 C 0.31354 0.9199 0.38604 0.0
C2992 C 0.31563 0.90641 0.38654 0.0
C2993 C 0.31051 0.9453 0.38519 0.0
C2994 C 0.31883 0.94022 0.39045 0.0
C2995 C 0.32009 0.92758 0.39087 0.0
C2996 C 0.32667 0.94779 0.39542 0.0
C2997 C 0.30825 0.95877 0.38472 0.0
C2998 C 0.33537 0.95606 0.3925 0.0
C2999 C 0.34344 0.96251 0.39715 0.0
C3000 C 0.34309 0.96073 0.40483 0.0
C3001 C 0.33423 0.95256 0.40775 0.0
C3002 C 0.32613 0.94614 0.40309 0.0
H3003 H 0.29901 0.96084 0.38213 0.0
H3004 H 0.30855 0.96305 0.39026 0.0
H3005 H 0.31572 0.96293 0.38127 0.0
H3006 H 0.33616 0.95731 0.38659 0.0
H3007 H 0.35005 0.96882 0.39471 0.0
loop_
_geom_bond_atom_site_label_1
_geom_bond_atom_site_label_2
_geom_bond_distance
_geom_bond_site_symmetry_2
_ccdc_geom_bond_type
C0 C1 1.264 . S
C0 C5 1.479 . S
C0 C10 1.465 . S
C1 C0 1.264 . S
C1 C3 1.339 . S
C1 H28 0.931 . S
C2 C3 1.395 . S
C2 C4 1.320 . S
C3 C1 1.339 . S
C3 C2 1.395 . S
C3 H29 0.929 . S
C4 C2 1.320 . S
C4 C5 1.405 . S
C4 H30 0.930 . S
C5 C0 1.479 . S
C5 C4 1.405 . S
C5 H31 0.931 . S
U6 O7 2.454 . S
U6 O8 2.458 . S
U6 C9 2.984 . S
U6 C10 2.847 . S
U6 C23 2.882 . S
U6 O24 2.441 . S
U6 O25 2.420 . S
U6 O26 2.455 . S
U6 O27 2.449 . S
O7 U6 2.454 . S
O7 C9 1.353 . S
O8 U6 2.458 . S
O8 C9 1.286 . S
C9 U6 2.984 . S
C9 O7 1.353 . S
C9 O8 1.286 . S
C9 C11 1.363 . S
C10 C0 1.465 . S
C10 U6 2.847 . S
C10 O24 1.249 . S
C10 O25 1.202 . S
C11 C9 1.363 . S
C11 C13 1.408 . S
C11 C16 1.342 . S
C12 C13 1.310 . S
C12 C15 1.461 . S
C12 H32 0.932 . S
C13 C11 1.408 . S
C13 C12 1.310 . S
C13 H33 0.930 . S
C14 C15 1.474 . S
C14 C16 1.285 . S
C14 H34 0.929 . S
C15 C12 1.461 . S
C15 C14 1.474 . S
C16 C11 1.342 . S
C16 C14 1.285 . S
C16 H35 0.930 . S
C17 C20 1.424 . S
C17 C22 1.245 . S
C17 C23 1.428 . S
C18 C21 1.260 . S
C18 C22 1.477 . S
C18 H36 0.932 . S
C19 C20 1.384 . S
C19 C21 1.479 . S
C19 H37 0.929 . S
C20 C17 1.424 . S
C20 C19 1.384 . S
C20 H38 0.928 . S
C21 C18 1.260 . S
C21 C19 1.479 . S
C22 C17 1.245 . S
C22 C18 1.477 . S
C22 H39 0.932 . S
C23 U6 2.882 . S
C23 C17 1.428 . S
C23 O26 1.301 . S
C23 O27 1.282 . S
O24 U6 2.441 . S
O24 C10 1.249 . S
O25 U6 2.420 . S
O25 C10 1.202 . S
O26 U6 2.455 . S
O26 C23 1.301 . S
O27 U6 2.449 . S
O27 C23 1.282 . S
H28 C1 0.931 . S
H29 C3 0.929 . S
H30 C4 0.930 . S
H31 C5 0.931 . S
H32 C12 0.932 . S
H33 C13 0.930 . S
H34 C14 0.929 . S
H35 C16 0.930 . S
H36 C18 0.932 . S
H37 C19 0.929 . S
H38 C20 0.928 . S
H39 C22 0.932 . S
C40 C41 1.264 . S
C40 C45 1.479 . S
C40 C50 1.465 . S
C41 C40 1.264 . S
C41 C43 1.339 . S
C41 H68 0.931 . S
C42 C43 1.395 . S
C42 C44 1.320 . S
C43 C41 1.339 . S
C43 C42 1.395 . S
C43 H69 0.929 . S
C44 C42 1.320 . S
C44 C45 1.405 . S
C44 H70 0.930 . S
C45 C40 1.479 . S
C45 C44 1.405 . S
C45 H71 0.931 . S
U46 O47 2.454 . S
U46 O48 2.458 . S
U46 C49 2.984 . S
U46 C50 2.847 . S
U46 C63 2.882 . S
U46 O64 2.441 . S
U46 O65 2.420 . S
U46 O66 2.455 . S
U46 O67 2.449 . S
O47 U46 2.454 . S
O47 C49 1.353 . S
O48 U46 2.458 . S
O48 C49 1.286 . S
C49 U46 2.984 . S
C49 O47 1.353 . S
C49 O48 1.286 . S
C49 C51 1.363 . S
C50 C40 1.465 . S
C50 U46 2.847 . S
C50 O64 1.249 . S
C50 O65 1.202 . S
C51 C49 1.363 . S
C51 C53 1.408 . S
C51 C56 1.342 . S
C52 C53 1.310 . S
C52 C55 1.461 . S
C52 H72 0.932 . S
C53 C51 1.408 . S
C53 C52 1.310 . S
C53 H73 0.930 . S
C54 C55 1.474 . S
C54 C56 1.285 . S
C54 H74 0.929 . S
C55 C52 1.461 . S
C55 C54 1.474 . S
C56 C51 1.342 . S
C56 C54 1.285 . S
C56 H75 0.930 . S
C57 C60 1.424 . S
C57 C62 1.245 . S
C57 C63 1.428 . S
C58 C61 1.260 . S
C58 C62 1.477 . S
C58 H76 0.932 . S
C59 C60 1.384 . S
C59 C61 1.479 . S
C59 H77 0.929 . S
C60 C57 1.424 . S
C60 C59 1.384 . S
C60 H78 0.928 . S
C61 C58 1.260 . S
C61 C59 1.479 . S
C62 C57 1.245 . S
C62 C58 1.477 . S
C62 H79 0.932 . S
C63 U46 2.882 . S
C63 C57 1.428 . S
C63 O66 1.301 . S
C63 O67 1.282 . S
O64 U46 2.441 . S
O64 C50 1.249 . S
O65 U46 2.420 . S
O65 C50 1.202 . S
O66 U46 2.455 . S
O66 C63 1.301 . S
O67 U46 2.449 . S
O67 C63 1.282 . S
H68 C41 0.931 . S
H69 C43 0.929 . S
H70 C44 0.930 . S
H71 C45 0.931 . S
H72 C52 0.932 . S
H73 C53 0.930 . S
H74 C54 0.929 . S
H75 C56 0.930 . S
H76 C58 0.932 . S
H77 C59 0.929 . S
H78 C60 0.928 . S
H79 C62 0.932 . S
C80 C81 1.264 . S
C80 C85 1.479 . S
C80 C90 1.465 . S
C81 C80 1.264 . S
C81 C83 1.339 . S
C81 H108 0.931 . S
C82 C83 1.395 . S
C82 C84 1.320 . S
C83 C81 1.339 . S
C83 C82 1.395 . S
C83 H109 0.929 . S
C84 C82 1.320 . S
C84 C85 1.405 . S
C84 H110 0.930 . S
C85 C80 1.479 . S
C85 C84 1.405 . S
C85 H111 0.931 . S
U86 O87 2.454 . S
U86 O88 2.458 . S
U86 C89 2.984 . S
U86 C90 2.847 . S
U86 C103 2.882 . S
U86 O104 2.441 . S
U86 O105 2.420 . S
U86 O106 2.455 . S
U86 O107 2.449 . S
O87 U86 2.454 . S
O87 C89 1.353 . S
O88 U86 2.458 . S
O88 C89 1.286 . S
C89 U86 2.984 . S
C89 O87 1.353 . S
C89 O88 1.286 . S
C89 C91 1.363 . S
C90 C80 1.465 . S
C90 U86 2.847 . S
C90 O104 1.249 . S
C90 O105 1.202 . S
C91 C89 1.363 . S
C91 C93 1.408 . S
C91 C96 1.342 . S
C92 C93 1.310 . S
C92 C95 1.461 . S
C92 H112 0.932 . S
C93 C91 1.408 . S
C93 C92 1.310 . S
C93 H113 0.930 . S
C94 C95 1.474 . S
C94 C96 1.285 . S
C94 H114 0.929 . S
C95 C92 1.461 . S
C95 C94 1.474 . S
C96 C91 1.342 . S
C96 C94 1.285 . S
C96 H115 0.930 . S
C97 C100 1.424 . S
C97 C102 1.245 . S
C97 C103 1.428 . S
C98 C101 1.260 . S
C98 C102 1.477 . S
C98 H116 0.932 . S
C99 C100 1.384 . S
C99 C101 1.479 . S
C99 H117 0.929 . S
C100 C97 1.424 . S
C100 C99 1.384 . S
C100 H118 0.928 . S
C101 C98 1.260 . S
C101 C99 1.479 . S
C102 C97 1.245 . S
C102 C98 1.477 . S
C102 H119 0.932 . S
C103 U86 2.882 . S
C103 C97 1.428 . S
C103 O106 1.301 . S
C103 O107 1.282 . S
O104 U86 2.441 . S
O104 C90 1.249 . S
O105 U86 2.420 . S
O105 C90 1.202 . S
O106 U86 2.455 . S
O106 C103 1.301 . S
O107 U86 2.449 . S
O107 C103 1.282 . S
H108 C81 0.931 . S
H109 C83 0.929 . S
H110 C84 0.930 . S
H111 C85 0.931 . S
H112 C92 0.932 . S
H113 C93 0.930 . S
H114 C94 0.929 . S
H115 C96 0.930 . S
H116 C98 0.932 . S
H117 C99 0.929 . S
H118 C100 0.928 . S
H119 C102 0.932 . S
C120 C121 1.264 . S
C120 C125 1.479 . S
C120 C130 1.465 . S
C121 C120 1.264 . S
C121 C123 1.339 . S
C121 H148 0.931 . S
C122 C123 1.395 . S
C122 C124 1.320 . S
C123 C121 1.339 . S
C123 C122 1.395 . S
C123 H149 0.929 . S
C124 C122 1.320 . S
C124 C125 1.405 . S
C124 H150 0.930 . S
C125 C120 1.479 . S
C125 C124 1.405 . S
C125 H151 0.931 . S
U126 O127 2.454 . S
U126 O128 2.458 . S
U126 C129 2.984 . S
U126 C130 2.847 . S
U126 C143 2.882 . S
U126 O144 2.441 . S
U126 O145 2.420 . S
U126 O146 2.455 . S
U126 O147 2.449 . S
O127 U126 2.454 . S
O127 C129 1.353 . S
O128 U126 2.458 . S
O128 C129 1.286 . S
C129 U126 2.984 . S
C129 O127 1.353 . S
C129 O128 1.286 . S
C129 C131 1.363 . S
C130 C120 1.465 . S
C130 U126 2.847 . S
C130 O144 1.249 . S
C130 O145 1.202 . S
C131 C129 1.363 . S
C131 C133 1.408 . S
C131 C136 1.342 . S
C132 C133 1.310 . S
C132 C135 1.461 . S
C132 H152 0.932 . S
C133 C131 1.408 . S
C133 C132 1.310 . S
C133 H153 0.930 . S
C134 C135 1.474 . S
C134 C136 1.285 . S
C134 H154 0.929 . S
C135 C132 1.461 . S
C135 C134 1.474 . S
C136 C131 1.342 . S
C136 C134 1.285 . S
C136 H155 0.930 . S
C137 C140 1.424 . S
C137 C142 1.245 . S
C137 C143 1.428 . S
C138 C141 1.260 . S
C138 C142 1.477 . S
C138 H156 0.932 . S
C139 C140 1.384 . S
C139 C141 1.479 . S
C139 H157 0.929 . S
C140 C137 1.424 . S
C140 C139 1.384 . S
C140 H158 0.928 . S
C141 C138 1.260 . S
C141 C139 1.479 . S
C142 C137 1.245 . S
C142 C138 1.477 . S
C142 H159 0.932 . S
C143 U126 2.882 . S
C143 C137 1.428 . S
C143 O146 1.301 . S
C143 O147 1.282 . S
O144 U126 2.441 . S
O144 C130 1.249 . S
O145 U126 2.420 . S
O145 C130 1.202 . S
O146 U126 2.455 . S
O146 C143 1.301 . S
O147 U126 2.449 . S
O147 C143 1.282 . S
H148 C121 0.931 . S
H149 C123 0.929 . S
H150 C124 0.930 . S
H151 C125 0.931 . S
H152 C132 0.932 . S
H153 C133 0.930 . S
H154 C134 0.929 . S
H155 C136 0.930 . S
H156 C138 0.932 . S
H157 C139 0.929 . S
H158 C140 0.928 . S
H159 C142 0.932 . S
C160 C161 1.264 . S
C160 C165 1.479 . S
C160 C170 1.465 . S
C161 C160 1.264 . S
C161 C163 1.339 . S
C161 H188 0.931 . S
C162 C163 1.395 . S
C162 C164 1.320 . S
C163 C161 1.339 . S
C163 C162 1.395 . S
C163 H189 0.929 . S
C164 C162 1.320 . S
C164 C165 1.405 . S
C164 H190 0.930 . S
C165 C160 1.479 . S
C165 C164 1.405 . S
C165 H191 0.931 . S
U166 O167 2.454 . S
U166 O168 2.458 . S
U166 C169 2.984 . S
U166 C170 2.847 . S
U166 C183 2.882 . S
U166 O184 2.441 . S
U166 O185 2.420 . S
U166 O186 2.455 . S
U166 O187 2.449 . S
O167 U166 2.454 . S
O167 C169 1.353 . S
O168 U166 2.458 . S
O168 C169 1.286 . S
C169 U166 2.984 . S
C169 O167 1.353 . S
C169 O168 1.286 . S
C169 C171 1.363 . S
C170 C160 1.465 . S
C170 U166 2.847 . S
C170 O184 1.249 . S
C170 O185 1.202 . S
C171 C169 1.363 . S
C171 C173 1.408 . S
C171 C176 1.342 . S
C172 C173 1.310 . S
C172 C175 1.461 . S
C172 H192 0.932 . S
C173 C171 1.408 . S
C173 C172 1.310 . S
C173 H193 0.930 . S
C174 C175 1.474 . S
C174 C176 1.285 . S
C174 H194 0.929 . S
C175 C172 1.461 . S
C175 C174 1.474 . S
C176 C171 1.342 . S
C176 C174 1.285 . S
C176 H195 0.930 . S
C177 C180 1.424 . S
C177 C182 1.245 . S
C177 C183 1.428 . S
C178 C181 1.260 . S
C178 C182 1.477 . S
C178 H196 0.932 . S
C179 C180 1.384 . S
C179 C181 1.479 . S
C179 H197 0.929 . S
C180 C177 1.424 . S
C180 C179 1.384 . S
C180 H198 0.928 . S
C181 C178 1.260 . S
C181 C179 1.479 . S
C182 C177 1.245 . S
C182 C178 1.477 . S
C182 H199 0.932 . S
C183 U166 2.882 . S
C183 C177 1.428 . S
C183 O186 1.301 . S
C183 O187 1.282 . S
O184 U166 2.441 . S
O184 C170 1.249 . S
O185 U166 2.420 . S
O185 C170 1.202 . S
O186 U166 2.455 . S
O186 C183 1.301 . S
O187 U166 2.449 . S
O187 C183 1.282 . S
H188 C161 0.931 . S
H189 C163 0.929 . S
H190 C164 0.930 . S
H191 C165 0.931 . S
H192 C172 0.932 . S
H193 C173 0.930 . S
H194 C174 0.929 . S
H195 C176 0.930 . S
H196 C178 0.932 . S
H197 C179 0.929 . S
H198 C180 0.928 . S
H199 C182 0.932 . S
C200 C201 1.264 . S
C200 C205 1.479 . S
C200 C210 1.465 . S
C201 C200 1.264 . S
C201 C203 1.339 . S
C201 H228 0.931 . S
C202 C203 1.395 . S
C202 C204 1.320 . S
C203 C201 1.339 . S
C203 C202 1.395 . S
C203 H229 0.929 . S
C204 C202 1.320 . S
C204 C205 1.405 . S
C204 H230 0.930 . S
C205 C200 1.479 . S
C205 C204 1.405 . S
C205 H231 0.931 . S
U206 O207 2.454 . S
U206 O208 2.458 . S
U206 C209 2.984 . S
U206 C210 2.847 . S
U206 C223 2.882 . S
U206 O224 2.441 . S
U206 O225 2.420 . S
U206 O226 2.455 . S
U206 O227 2.449 . S
O207 U206 2.454 . S
O207 C209 1.353 . S
O208 U206 2.458 . S
O208 C209 1.286 . S
C209 U206 2.984 . S
C209 O207 1.353 . S
C209 O208 1.286 . S
C209 C211 1.363 . S
C210 C200 1.465 . S
C210 U206 2.847 . S
C210 O224 1.249 . S
C210 O225 1.202 . S
C211 C209 1.363 . S
C211 C213 1.408 . S
C211 C216 1.342 . S
C212 C213 1.310 . S
C212 C215 1.461 . S
C212 H232 0.932 . S
C213 C211 1.408 . S
C213 C212 1.310 . S
C213 H233 0.930 . S
C214 C215 1.474 . S
C214 C216 1.285 . S
C214 H234 0.929 . S
C215 C212 1.461 . S
C215 C214 1.474 . S
C216 C211 1.342 . S
C216 C214 1.285 . S
C216 H235 0.930 . S
C217 C220 1.424 . S
C217 C222 1.245 . S
C217 C223 1.428 . S
C218 C221 1.260 . S
C218 C222 1.477 . S
C218 H236 0.932 . S
C219 C220 1.384 . S
C219 C221 1.479 . S
C219 H237 0.929 . S
C220 C217 1.424 . S
C220 C219 1.384 . S
C220 H238 0.928 . S
C221 C218 1.260 . S
C221 C219 1.479 . S
C222 C217 1.245 . S
C222 C218 1.477 . S
C222 H239 0.932 . S
C223 U206 2.882 . S
C223 C217 1.428 . S
C223 O226 1.301 . S
C223 O227 1.282 . S
O224 U206 2.441 . S
O224 C210 1.249 . S
O225 U206 2.420 . S
O225 C210 1.202 . S
O226 U206 2.455 . S
O226 C223 1.301 . S
O227 U206 2.449 . S
O227 C223 1.282 . S
H228 C201 0.931 . S
H229 C203 0.929 . S
H230 C204 0.930 . S
H231 C205 0.931 . S
H232 C212 0.932 . S
H233 C213 0.930 . S
H234 C214 0.929 . S
H235 C216 0.930 . S
H236 C218 0.932 . S
H237 C219 0.929 . S
H238 C220 0.928 . S
H239 C222 0.932 . S
C240 C241 1.264 . S
C240 C245 1.479 . S
C240 C250 1.465 . S
C241 C240 1.264 . S
C241 C243 1.339 . S
C241 H268 0.931 . S
C242 C243 1.395 . S
C242 C244 1.320 . S
C243 C241 1.339 . S
C243 C242 1.395 . S
C243 H269 0.929 . S
C244 C242 1.320 . S
C244 C245 1.405 . S
C244 H270 0.930 . S
C245 C240 1.479 . S
C245 C244 1.405 . S
C245 H271 0.931 . S
U246 O247 2.454 . S
U246 O248 2.458 . S
U246 C249 2.984 . S
U246 C250 2.847 . S
U246 C263 2.882 . S
U246 O264 2.441 . S
U246 O265 2.420 . S
U246 O266 2.455 . S
U246 O267 2.449 . S
O247 U246 2.454 . S
O247 C249 1.353 . S
O248 U246 2.458 . S
O248 C249 1.286 . S
C249 U246 2.984 . S
C249 O247 1.353 . S
C249 O248 1.286 . S
C249 C251 1.363 . S
C250 C240 1.465 . S
C250 U246 2.847 . S
C250 O264 1.249 . S
C250 O265 1.202 . S
C251 C249 1.363 . S
C251 C253 1.408 . S
C251 C256 1.342 . S
C252 C253 1.310 . S
C252 C255 1.461 . S
C252 H272 0.932 . S
C253 C251 1.408 . S
C253 C252 1.310 . S
C253 H273 0.930 . S
C254 C255 1.474 . S
C254 C256 1.285 . S
C254 H274 0.929 . S
C255 C252 1.461 . S
C255 C254 1.474 . S
C256 C251 1.342 . S
C256 C254 1.285 . S
C256 H275 0.930 . S
C257 C260 1.424 . S
C257 C262 1.245 . S
C257 C263 1.428 . S
C258 C261 1.260 . S
C258 C262 1.477 . S
C258 H276 0.932 . S
C259 C260 1.384 . S
C259 C261 1.479 . S
C259 H277 0.929 . S
C260 C257 1.424 . S
C260 C259 1.384 . S
C260 H278 0.928 . S
C261 C258 1.260 . S
C261 C259 1.479 . S
C262 C257 1.245 . S
C262 C258 1.477 . S
C262 H279 0.932 . S
C263 U246 2.882 . S
C263 C257 1.428 . S
C263 O266 1.301 . S
C263 O267 1.282 . S
O264 U246 2.441 . S
O264 C250 1.249 . S
O265 U246 2.420 . S
O265 C250 1.202 . S
O266 U246 2.455 . S
O266 C263 1.301 . S
O267 U246 2.449 . S
O267 C263 1.282 . S
H268 C241 0.931 . S
H269 C243 0.929 . S
H270 C244 0.930 . S
H271 C245 0.931 . S
H272 C252 0.932 . S
H273 C253 0.930 . S
H274 C254 0.929 . S
H275 C256 0.930 . S
H276 C258 0.932 . S
H277 C259 0.929 . S
H278 C260 0.928 . S
H279 C262 0.932 . S
C280 C281 1.264 . S
C280 C285 1.479 . S
C280 C290 1.465 . S
C281 C280 1.264 . S
C281 C283 1.339 . S
C281 H308 0.931 . S
C282 C283 1.395 . S
C282 C284 1.320 . S
C283 C281 1.339 . S
C283 C282 1.395 . S
C283 H309 0.929 . S
C284 C282 1.320 . S
C284 C285 1.405 . S
C284 H310 0.930 . S
C285 C280 1.479 . S
C285 C284 1.405 . S
C285 H311 0.931 . S
U286 O287 2.454 . S
U286 O288 2.458 . S
U286 C289 2.984 . S
U286 C290 2.847 . S
U286 C303 2.882 . S
U286 O304 2.441 . S
U286 O305 2.420 . S
U286 O306 2.455 . S
U286 O307 2.449 . S
O287 U286 2.454 . S
O287 C289 1.353 . S
O288 U286 2.458 . S
O288 C289 1.286 . S
C289 U286 2.984 . S
C289 O287 1.353 . S
C289 O288 1.286 . S
C289 C291 1.363 . S
C290 C280 1.465 . S
C290 U286 2.847 . S
C290 O304 1.249 . S
C290 O305 1.202 . S
C291 C289 1.363 . S
C291 C293 1.408 . S
C291 C296 1.342 . S
C292 C293 1.310 . S
C292 C295 1.461 . S
C292 H312 0.932 . S
C293 C291 1.408 . S
C293 C292 1.310 . S
C293 H313 0.930 . S
C294 C295 1.474 . S
C294 C296 1.285 . S
C294 H314 0.929 . S
C295 C292 1.461 . S
C295 C294 1.474 . S
C296 C291 1.342 . S
C296 C294 1.285 . S
C296 H315 0.930 . S
C297 C300 1.424 . S
C297 C302 1.245 . S
C297 C303 1.428 . S
C298 C301 1.260 . S
C298 C302 1.477 . S
C298 H316 0.932 . S
C299 C300 1.384 . S
C299 C301 1.479 . S
C299 H317 0.929 . S
C300 C297 1.424 . S
C300 C299 1.384 . S
C300 H318 0.928 . S
C301 C298 1.260 . S
C301 C299 1.479 . S
C302 C297 1.245 . S
C302 C298 1.477 . S
C302 H319 0.932 . S
C303 U286 2.882 . S
C303 C297 1.428 . S
C303 O306 1.301 . S
C303 O307 1.282 . S
O304 U286 2.441 . S
O304 C290 1.249 . S
O305 U286 2.420 . S
O305 C290 1.202 . S
O306 U286 2.455 . S
O306 C303 1.301 . S
O307 U286 2.449 . S
O307 C303 1.282 . S
H308 C281 0.931 . S
H309 C283 0.929 . S
H310 C284 0.930 . S
H311 C285 0.931 . S
H312 C292 0.932 . S
H313 C293 0.930 . S
H314 C294 0.929 . S
H315 C296 0.930 . S
H316 C298 0.932 . S
H317 C299 0.929 . S
H318 C300 0.928 . S
H319 C302 0.932 . S
C320 C321 1.264 . S
C320 C325 1.479 . S
C320 C330 1.465 . S
C321 C320 1.264 . S
C321 C323 1.339 . S
C321 H348 0.931 . S
C322 C323 1.395 . S
C322 C324 1.320 . S
C323 C321 1.339 . S
C323 C322 1.395 . S
C323 H349 0.929 . S
C324 C322 1.320 . S
C324 C325 1.405 . S
C324 H350 0.930 . S
C325 C320 1.479 . S
C325 C324 1.405 . S
C325 H351 0.931 . S
U326 O327 2.454 . S
U326 O328 2.458 . S
U326 C329 2.984 . S
U326 C330 2.847 . S
U326 C343 2.882 . S
U326 O344 2.441 . S
U326 O345 2.420 . S
U326 O346 2.455 . S
U326 O347 2.449 . S
O327 U326 2.454 . S
O327 C329 1.353 . S
O328 U326 2.458 . S
O328 C329 1.286 . S
C329 U326 2.984 . S
C329 O327 1.353 . S
C329 O328 1.286 . S
C329 C331 1.363 . S
C330 C320 1.465 . S
C330 U326 2.847 . S
C330 O344 1.249 . S
C330 O345 1.202 . S
C331 C329 1.363 . S
C331 C333 1.408 . S
C331 C336 1.342 . S
C332 C333 1.310 . S
C332 C335 1.461 . S
C332 H352 0.932 . S
C333 C331 1.408 . S
C333 C332 1.310 . S
C333 H353 0.930 . S
C334 C335 1.474 . S
C334 C336 1.285 . S
C334 H354 0.929 . S
C335 C332 1.461 . S
C335 C334 1.474 . S
C336 C331 1.342 . S
C336 C334 1.285 . S
C336 H355 0.930 . S
C337 C340 1.424 . S
C337 C342 1.245 . S
C337 C343 1.428 . S
C338 C341 1.260 . S
C338 C342 1.477 . S
C338 H356 0.932 . S
C339 C340 1.384 . S
C339 C341 1.479 . S
C339 H357 0.929 . S
C340 C337 1.424 . S
C340 C339 1.384 . S
C340 H358 0.928 . S
C341 C338 1.260 . S
C341 C339 1.479 . S
C342 C337 1.245 . S
C342 C338 1.477 . S
C342 H359 0.932 . S
C343 U326 2.882 . S
C343 C337 1.428 . S
C343 O346 1.301 . S
C343 O347 1.282 . S
O344 U326 2.441 . S
O344 C330 1.249 . S
O345 U326 2.420 . S
O345 C330 1.202 . S
O346 U326 2.455 . S
O346 C343 1.301 . S
O347 U326 2.449 . S
O347 C343 1.282 . S
H348 C321 0.931 . S
H349 C323 0.929 . S
H350 C324 0.930 . S
H351 C325 0.931 . S
H352 C332 0.932 . S
H353 C333 0.930 . S
H354 C334 0.929 . S
H355 C336 0.930 . S
H356 C338 0.932 . S
H357 C339 0.929 . S
H358 C340 0.928 . S
H359 C342 0.932 . S
C360 C361 1.264 . S
C360 C365 1.479 . S
C360 C370 1.465 . S
C361 C360 1.264 . S
C361 C363 1.339 . S
C361 H388 0.931 . S
C362 C363 1.395 . S
C362 C364 1.320 . S
C363 C361 1.339 . S
C363 C362 1.395 . S
C363 H389 0.929 . S
C364 C362 1.320 . S
C364 C365 1.405 . S
C364 H390 0.930 . S
C365 C360 1.479 . S
C365 C364 1.405 . S
C365 H391 0.931 . S
U366 O367 2.454 . S
U366 O368 2.458 . S
U366 C369 2.984 . S
U366 C370 2.847 . S
U366 C383 2.882 . S
U366 O384 2.441 . S
U366 O385 2.420 . S
U366 O386 2.455 . S
U366 O387 2.449 . S
O367 U366 2.454 . S
O367 C369 1.353 . S
O368 U366 2.458 . S
O368 C369 1.286 . S
C369 U366 2.984 . S
C369 O367 1.353 . S
C369 O368 1.286 . S
C369 C371 1.363 . S
C370 C360 1.465 . S
C370 U366 2.847 . S
C370 O384 1.249 . S
C370 O385 1.202 . S
C371 C369 1.363 . S
C371 C373 1.408 . S
C371 C376 1.342 . S
C372 C373 1.310 . S
C372 C375 1.461 . S
C372 H392 0.932 . S
C373 C371 1.408 . S
C373 C372 1.310 . S
C373 H393 0.930 . S
C374 C375 1.474 . S
C374 C376 1.285 . S
C374 H394 0.929 . S
C375 C372 1.461 . S
C375 C374 1.474 . S
C376 C371 1.342 . S
C376 C374 1.285 . S
C376 H395 0.930 . S
C377 C380 1.424 . S
C377 C382 1.245 . S
C377 C383 1.428 . S
C378 C381 1.260 . S
C378 C382 1.477 . S
C378 H396 0.932 . S
C379 C380 1.384 . S
C379 C381 1.479 . S
C379 H397 0.929 . S
C380 C377 1.424 . S
C380 C379 1.384 . S
C380 H398 0.928 . S
C381 C378 1.260 . S
C381 C379 1.479 . S
C382 C377 1.245 . S
C382 C378 1.477 . S
C382 H399 0.932 . S
C383 U366 2.882 . S
C383 C377 1.428 . S
C383 O386 1.301 . S
C383 O387 1.282 . S
O384 U366 2.441 . S
O384 C370 1.249 . S
O385 U366 2.420 . S
O385 C370 1.202 . S
O386 U366 2.455 . S
O386 C383 1.301 . S
O387 U366 2.449 . S
O387 C383 1.282 . S
H388 C361 0.931 . S
H389 C363 0.929 . S
H390 C364 0.930 . S
H391 C365 0.931 . S
H392 C372 0.932 . S
H393 C373 0.930 . S
H394 C374 0.929 . S
H395 C376 0.930 . S
H396 C378 0.932 . S
H397 C379 0.929 . S
H398 C380 0.928 . S
H399 C382 0.932 . S
C400 C401 1.264 . S
C400 C405 1.479 . S
C400 C410 1.465 . S
C401 C400 1.264 . S
C401 C403 1.339 . S
C401 H428 0.931 . S
C402 C403 1.395 . S
C402 C404 1.320 . S
C403 C401 1.339 . S
C403 C402 1.395 . S
C403 H429 0.929 . S
C404 C402 1.320 . S
C404 C405 1.405 . S
C404 H430 0.930 . S
C405 C400 1.479 . S
C405 C404 1.405 . S
C405 H431 0.931 . S
U406 O407 2.454 . S
U406 O408 2.458 . S
U406 C409 2.984 . S
U406 C410 2.847 . S
U406 C423 2.882 . S
U406 O424 2.441 . S
U406 O425 2.420 . S
U406 O426 2.455 . S
U406 O427 2.449 . S
O407 U406 2.454 . S
O407 C409 1.353 . S
O408 U406 2.458 . S
O408 C409 1.286 . S
C409 U406 2.984 . S
C409 O407 1.353 . S
C409 O408 1.286 . S
C409 C411 1.363 . S
C410 C400 1.465 . S
C410 U406 2.847 . S
C410 O424 1.249 . S
C410 O425 1.202 . S
C411 C409 1.363 . S
C411 C413 1.408 . S
C411 C416 1.342 . S
C412 C413 1.310 . S
C412 C415 1.461 . S
C412 H432 0.932 . S
C413 C411 1.408 . S
C413 C412 1.310 . S
C413 H433 0.930 . S
C414 C415 1.474 . S
C414 C416 1.285 . S
C414 H434 0.929 . S
C415 C412 1.461 . S
C415 C414 1.474 . S
C416 C411 1.342 . S
C416 C414 1.285 . S
C416 H435 0.930 . S
C417 C420 1.424 . S
C417 C422 1.245 . S
C417 C423 1.428 . S
C418 C421 1.260 . S
C418 C422 1.477 . S
C418 H436 0.932 . S
C419 C420 1.384 . S
C419 C421 1.479 . S
C419 H437 0.929 . S
C420 C417 1.424 . S
C420 C419 1.384 . S
C420 H438 0.928 . S
C421 C418 1.260 . S
C421 C419 1.479 . S
C422 C417 1.245 . S
C422 C418 1.477 . S
C422 H439 0.932 . S
C423 U406 2.882 . S
C423 C417 1.428 . S
C423 O426 1.301 . S
C423 O427 1.282 . S
O424 U406 2.441 . S
O424 C410 1.249 . S
O425 U406 2.420 . S
O425 C410 1.202 . S
O426 U406 2.455 . S
O426 C423 1.301 . S
O427 U406 2.449 . S
O427 C423 1.282 . S
H428 C401 0.931 . S
H429 C403 0.929 . S
H430 C404 0.930 . S
H431 C405 0.931 . S
H432 C412 0.932 . S
H433 C413 0.930 . S
H434 C414 0.929 . S
H435 C416 0.930 . S
H436 C418 0.932 . S
H437 C419 0.929 . S
H438 C420 0.928 . S
H439 C422 0.932 . S
C440 C441 1.264 . S
C440 C445 1.479 . S
C440 C450 1.465 . S
C441 C440 1.264 . S
C441 C443 1.339 . S
C441 H468 0.931 . S
C442 C443 1.395 . S
C442 C444 1.320 . S
C443 C441 1.339 . S
C443 C442 1.395 . S
C443 H469 0.929 . S
C444 C442 1.320 . S
C444 C445 1.405 . S
C444 H470 0.930 . S
C445 C440 1.479 . S
C445 C444 1.405 . S
C445 H471 0.931 . S
U446 O447 2.454 . S
U446 O448 2.458 . S
U446 C449 2.984 . S
U446 C450 2.847 . S
U446 C463 2.882 . S
U446 O464 2.441 . S
U446 O465 2.420 . S
U446 O466 2.455 . S
U446 O467 2.449 . S
O447 U446 2.454 . S
O447 C449 1.353 . S
O448 U446 2.458 . S
O448 C449 1.286 . S
C449 U446 2.984 . S
C449 O447 1.353 . S
C449 O448 1.286 . S
C449 C451 1.363 . S
C450 C440 1.465 . S
C450 U446 2.847 . S
C450 O464 1.249 . S
C450 O465 1.202 . S
C451 C449 1.363 . S
C451 C453 1.408 . S
C451 C456 1.342 . S
C452 C453 1.310 . S
C452 C455 1.461 . S
C452 H472 0.932 . S
C453 C451 1.408 . S
C453 C452 1.310 . S
C453 H473 0.930 . S
C454 C455 1.474 . S
C454 C456 1.285 . S
C454 H474 0.929 . S
C455 C452 1.461 . S
C455 C454 1.474 . S
C456 C451 1.342 . S
C456 C454 1.285 . S
C456 H475 0.930 . S
C457 C460 1.424 . S
C457 C462 1.245 . S
C457 C463 1.428 . S
C458 C461 1.260 . S
C458 C462 1.477 . S
C458 H476 0.932 . S
C459 C460 1.384 . S
C459 C461 1.479 . S
C459 H477 0.929 . S
C460 C457 1.424 . S
C460 C459 1.384 . S
C460 H478 0.928 . S
C461 C458 1.260 . S
C461 C459 1.479 . S
C462 C457 1.245 . S
C462 C458 1.477 . S
C462 H479 0.932 . S
C463 U446 2.882 . S
C463 C457 1.428 . S
C463 O466 1.301 . S
C463 O467 1.282 . S
O464 U446 2.441 . S
O464 C450 1.249 . S
O465 U446 2.420 . S
O465 C450 1.202 . S
O466 U446 2.455 . S
O466 C463 1.301 . S
O467 U446 2.449 . S
O467 C463 1.282 . S
H468 C441 0.931 . S
H469 C443 0.929 . S
H470 C444 0.930 . S
H471 C445 0.931 . S
H472 C452 0.932 . S
H473 C453 0.930 . S
H474 C454 0.929 . S
H475 C456 0.930 . S
H476 C458 0.932 . S
H477 C459 0.929 . S
H478 C460 0.928 . S
H479 C462 0.932 . S
C480 C481 1.264 . S
C480 C485 1.479 . S
C480 C490 1.465 . S
C481 C480 1.264 . S
C481 C483 1.339 . S
C481 H508 0.931 . S
C482 C483 1.395 . S
C482 C484 1.320 . S
C483 C481 1.339 . S
C483 C482 1.395 . S
C483 H509 0.929 . S
C484 C482 1.320 . S
C484 C485 1.405 . S
C484 H510 0.930 . S
C485 C480 1.479 . S
C485 C484 1.405 . S
C485 H511 0.931 . S
U486 O487 2.454 . S
U486 O488 2.458 . S
U486 C489 2.984 . S
U486 C490 2.847 . S
U486 C503 2.882 . S
U486 O504 2.441 . S
U486 O505 2.420 . S
U486 O506 2.455 . S
U486 O507 2.449 . S
O487 U486 2.454 . S
O487 C489 1.353 . S
O488 U486 2.458 . S
O488 C489 1.286 . S
C489 U486 2.984 . S
C489 O487 1.353 . S
C489 O488 1.286 . S
C489 C491 1.363 . S
C490 C480 1.465 . S
C490 U486 2.847 . S
C490 O504 1.249 . S
C490 O505 1.202 . S
C491 C489 1.363 . S
C491 C493 1.408 . S
C491 C496 1.342 . S
C492 C493 1.310 . S
C492 C495 1.461 . S
C492 H512 0.932 . S
C493 C491 1.408 . S
C493 C492 1.310 . S
C493 H513 0.930 . S
C494 C495 1.474 . S
C494 C496 1.285 . S
C494 H514 0.929 . S
C495 C492 1.461 . S
C495 C494 1.474 . S
C496 C491 1.342 . S
C496 C494 1.285 . S
C496 H515 0.930 . S
C497 C500 1.424 . S
C497 C502 1.245 . S
C497 C503 1.428 . S
C498 C501 1.260 . S
C498 C502 1.477 . S
C498 H516 0.932 . S
C499 C500 1.384 . S
C499 C501 1.479 . S
C499 H517 0.929 . S
C500 C497 1.424 . S
C500 C499 1.384 . S
C500 H518 0.928 . S
C501 C498 1.260 . S
C501 C499 1.479 . S
C502 C497 1.245 . S
C502 C498 1.477 . S
C502 H519 0.932 . S
C503 U486 2.882 . S
C503 C497 1.428 . S
C503 O506 1.301 . S
C503 O507 1.282 . S
O504 U486 2.441 . S
O504 C490 1.249 . S
O505 U486 2.420 . S
O505 C490 1.202 . S
O506 U486 2.455 . S
O506 C503 1.301 . S
O507 U486 2.449 . S
O507 C503 1.282 . S
H508 C481 0.931 . S
H509 C483 0.929 . S
H510 C484 0.930 . S
H511 C485 0.931 . S
H512 C492 0.932 . S
H513 C493 0.930 . S
H514 C494 0.929 . S
H515 C496 0.930 . S
H516 C498 0.932 . S
H517 C499 0.929 . S
H518 C500 0.928 . S
H519 C502 0.932 . S
C520 C521 1.264 . S
C520 C525 1.479 . S
C520 C530 1.465 . S
C521 C520 1.264 . S
C521 C523 1.339 . S
C521 H548 0.931 . S
C522 C523 1.395 . S
C522 C524 1.320 . S
C523 C521 1.339 . S
C523 C522 1.395 . S
C523 H549 0.929 . S
C524 C522 1.320 . S
C524 C525 1.405 . S
C524 H550 0.930 . S
C525 C520 1.479 . S
C525 C524 1.405 . S
C525 H551 0.931 . S
U526 O527 2.454 . S
U526 O528 2.458 . S
U526 C529 2.984 . S
U526 C530 2.847 . S
U526 C543 2.882 . S
U526 O544 2.441 . S
U526 O545 2.420 . S
U526 O546 2.455 . S
U526 O547 2.449 . S
O527 U526 2.454 . S
O527 C529 1.353 . S
O528 U526 2.458 . S
O528 C529 1.286 . S
C529 U526 2.984 . S
C529 O527 1.353 . S
C529 O528 1.286 . S
C529 C531 1.363 . S
C530 C520 1.465 . S
C530 U526 2.847 . S
C530 O544 1.249 . S
C530 O545 1.202 . S
C531 C529 1.363 . S
C531 C533 1.408 . S
C531 C536 1.342 . S
C532 C533 1.310 . S
C532 C535 1.461 . S
C532 H552 0.932 . S
C533 C531 1.408 . S
C533 C532 1.310 . S
C533 H553 0.930 . S
C534 C535 1.474 . S
C534 C536 1.285 . S
C534 H554 0.929 . S
C535 C532 1.461 . S
C535 C534 1.474 . S
C536 C531 1.342 . S
C536 C534 1.285 . S
C536 H555 0.930 . S
C537 C540 1.424 . S
C537 C542 1.245 . S
C537 C543 1.428 . S
C538 C541 1.260 . S
C538 C542 1.477 . S
C538 H556 0.932 . S
C539 C540 1.384 . S
C539 C541 1.479 . S
C539 H557 0.929 . S
C540 C537 1.424 . S
C540 C539 1.384 . S
C540 H558 0.928 . S
C541 C538 1.260 . S
C541 C539 1.479 . S
C542 C537 1.245 . S
C542 C538 1.477 . S
C542 H559 0.932 . S
C543 U526 2.882 . S
C543 C537 1.428 . S
C543 O546 1.301 . S
C543 O547 1.282 . S
O544 U526 2.441 . S
O544 C530 1.249 . S
O545 U526 2.420 . S
O545 C530 1.202 . S
O546 U526 2.455 . S
O546 C543 1.301 . S
O547 U526 2.449 . S
O547 C543 1.282 . S
H548 C521 0.931 . S
H549 C523 0.929 . S
H550 C524 0.930 . S
H551 C525 0.931 . S
H552 C532 0.932 . S
H553 C533 0.930 . S
H554 C534 0.929 . S
H555 C536 0.930 . S
H556 C538 0.932 . S
H557 C539 0.929 . S
H558 C540 0.928 . S
H559 C542 0.932 . S
C560 C561 1.264 . S
C560 C565 1.479 . S
C560 C570 1.465 . S
C561 C560 1.264 . S
C561 C563 1.339 . S
C561 H588 0.931 . S
C562 C563 1.395 . S
C562 C564 1.320 . S
C563 C561 1.339 . S
C563 C562 1.395 . S
C563 H589 0.929 . S
C564 C562 1.320 . S
C564 C565 1.405 . S
C564 H590 0.930 . S
C565 C560 1.479 . S
C565 C564 1.405 . S
C565 H591 0.931 . S
U566 O567 2.454 . S
U566 O568 2.458 . S
U566 C569 2.984 . S
U566 C570 2.847 . S
U566 C583 2.882 . S
U566 O584 2.441 . S
U566 O585 2.420 . S
U566 O586 2.455 . S
U566 O587 2.449 . S
O567 U566 2.454 . S
O567 C569 1.353 . S
O568 U566 2.458 . S
O568 C569 1.286 . S
C569 U566 2.984 . S
C569 O567 1.353 . S
C569 O568 1.286 . S
C569 C571 1.363 . S
C570 C560 1.465 . S
C570 U566 2.847 . S
C570 O584 1.249 . S
C570 O585 1.202 . S
C571 C569 1.363 . S
C571 C573 1.408 . S
C571 C576 1.342 . S
C572 C573 1.310 . S
C572 C575 1.461 . S
C572 H592 0.932 . S
C573 C571 1.408 . S
C573 C572 1.310 . S
C573 H593 0.930 . S
C574 C575 1.474 . S
C574 C576 1.285 . S
C574 H594 0.929 . S
C575 C572 1.461 . S
C575 C574 1.474 . S
C576 C571 1.342 . S
C576 C574 1.285 . S
C576 H595 0.930 . S
C577 C580 1.424 . S
C577 C582 1.245 . S
C577 C583 1.428 . S
C578 C581 1.260 . S
C578 C582 1.477 . S
C578 H596 0.932 . S
C579 C580 1.384 . S
C579 C581 1.479 . S
C579 H597 0.929 . S
C580 C577 1.424 . S
C580 C579 1.384 . S
C580 H598 0.928 . S
C581 C578 1.260 . S
C581 C579 1.479 . S
C582 C577 1.245 . S
C582 C578 1.477 . S
C582 H599 0.932 . S
C583 U566 2.882 . S
C583 C577 1.428 . S
C583 O586 1.301 . S
C583 O587 1.282 . S
O584 U566 2.441 . S
O584 C570 1.249 . S
O585 U566 2.420 . S
O585 C570 1.202 . S
O586 U566 2.455 . S
O586 C583 1.301 . S
O587 U566 2.449 . S
O587 C583 1.282 . S
H588 C561 0.931 . S
H589 C563 0.929 . S
H590 C564 0.930 . S
H591 C565 0.931 . S
H592 C572 0.932 . S
H593 C573 0.930 . S
H594 C574 0.929 . S
H595 C576 0.930 . S
H596 C578 0.932 . S
H597 C579 0.929 . S
H598 C580 0.928 . S
H599 C582 0.932 . S
C600 C601 1.264 . S
C600 C605 1.479 . S
C600 C610 1.465 . S
C601 C600 1.264 . S
C601 C603 1.339 . S
C601 H628 0.931 . S
C602 C603 1.395 . S
C602 C604 1.320 . S
C603 C601 1.339 . S
C603 C602 1.395 . S
C603 H629 0.929 . S
C604 C602 1.320 . S
C604 C605 1.405 . S
C604 H630 0.930 . S
C605 C600 1.479 . S
C605 C604 1.405 . S
C605 H631 0.931 . S
U606 O607 2.454 . S
U606 O608 2.458 . S
U606 C609 2.984 . S
U606 C610 2.847 . S
U606 C623 2.882 . S
U606 O624 2.441 . S
U606 O625 2.420 . S
U606 O626 2.455 . S
U606 O627 2.449 . S
O607 U606 2.454 . S
O607 C609 1.353 . S
O608 U606 2.458 . S
O608 C609 1.286 . S
C609 U606 2.984 . S
C609 O607 1.353 . S
C609 O608 1.286 . S
C609 C611 1.363 . S
C610 C600 1.465 . S
C610 U606 2.847 . S
C610 O624 1.249 . S
C610 O625 1.202 . S
C611 C609 1.363 . S
C611 C613 1.408 . S
C611 C616 1.342 . S
C612 C613 1.310 . S
C612 C615 1.461 . S
C612 H632 0.932 . S
C613 C611 1.408 . S
C613 C612 1.310 . S
C613 H633 0.930 . S
C614 C615 1.474 . S
C614 C616 1.285 . S
C614 H634 0.929 . S
C615 C612 1.461 . S
C615 C614 1.474 . S
C616 C611 1.342 . S
C616 C614 1.285 . S
C616 H635 0.930 . S
C617 C620 1.424 . S
C617 C622 1.245 . S
C617 C623 1.428 . S
C618 C621 1.260 . S
C618 C622 1.477 . S
C618 H636 0.932 . S
C619 C620 1.384 . S
C619 C621 1.479 . S
C619 H637 0.929 . S
C620 C617 1.424 . S
C620 C619 1.384 . S
C620 H638 0.928 . S
C621 C618 1.260 . S
C621 C619 1.479 . S
C622 C617 1.245 . S
C622 C618 1.477 . S
C622 H639 0.932 . S
C623 U606 2.882 . S
C623 C617 1.428 . S
C623 O626 1.301 . S
C623 O627 1.282 . S
O624 U606 2.441 . S
O624 C610 1.249 . S
O625 U606 2.420 . S
O625 C610 1.202 . S
O626 U606 2.455 . S
O626 C623 1.301 . S
O627 U606 2.449 . S
O627 C623 1.282 . S
H628 C601 0.931 . S
H629 C603 0.929 . S
H630 C604 0.930 . S
H631 C605 0.931 . S
H632 C612 0.932 . S
H633 C613 0.930 . S
H634 C614 0.929 . S
H635 C616 0.930 . S
H636 C618 0.932 . S
H637 C619 0.929 . S
H638 C620 0.928 . S
H639 C622 0.932 . S
C640 C641 1.264 . S
C640 C645 1.479 . S
C640 C650 1.465 . S
C641 C640 1.264 . S
C641 C643 1.339 . S
C641 H668 0.931 . S
C642 C643 1.395 . S
C642 C644 1.320 . S
C643 C641 1.339 . S
C643 C642 1.395 . S
C643 H669 0.929 . S
C644 C642 1.320 . S
C644 C645 1.405 . S
C644 H670 0.930 . S
C645 C640 1.479 . S
C645 C644 1.405 . S
C645 H671 0.931 . S
U646 O647 2.454 1_565 S
U646 O648 2.458 1_565 S
U646 C649 2.984 1_565 S
U646 C650 2.847 . S
U646 C663 2.882 . S
U646 O664 2.441 . S
U646 O665 2.420 . S
U646 O666 2.455 . S
U646 O667 2.449 . S
O647 U646 2.454 1_545 S
O647 C649 1.353 . S
O648 U646 2.458 1_545 S
O648 C649 1.286 . S
C649 U646 2.984 1_545 S
C649 O647 1.353 . S
C649 O648 1.286 . S
C649 C651 1.363 . S
C650 C640 1.465 . S
C650 U646 2.847 . S
C650 O664 1.249 . S
C650 O665 1.202 . S
C651 C649 1.363 . S
C651 C653 1.408 . S
C651 C656 1.342 . S
C652 C653 1.310 . S
C652 C655 1.461 . S
C652 H672 0.932 . S
C653 C651 1.408 . S
C653 C652 1.310 . S
C653 H673 0.930 . S
C654 C655 1.474 . S
C654 C656 1.285 . S
C654 H674 0.929 . S
C655 C652 1.461 . S
C655 C654 1.474 . S
C656 C651 1.342 . S
C656 C654 1.285 . S
C656 H675 0.930 . S
C657 C660 1.424 . S
C657 C662 1.245 . S
C657 C663 1.428 . S
C658 C661 1.260 . S
C658 C662 1.477 . S
C658 H676 0.932 . S
C659 C660 1.384 . S
C659 C661 1.479 . S
C659 H677 0.929 . S
C660 C657 1.424 . S
C660 C659 1.384 . S
C660 H678 0.928 . S
C661 C658 1.260 . S
C661 C659 1.479 . S
C662 C657 1.245 . S
C662 C658 1.477 . S
C662 H679 0.932 . S
C663 U646 2.882 . S
C663 C657 1.428 . S
C663 O666 1.301 . S
C663 O667 1.282 . S
O664 U646 2.441 . S
O664 C650 1.249 . S
O665 U646 2.420 . S
O665 C650 1.202 . S
O666 U646 2.455 . S
O666 C663 1.301 . S
O667 U646 2.449 . S
O667 C663 1.282 . S
H668 C641 0.931 . S
H669 C643 0.929 . S
H670 C644 0.930 . S
H671 C645 0.931 . S
H672 C652 0.932 . S
H673 C653 0.930 . S
H674 C654 0.929 . S
H675 C656 0.930 . S
H676 C658 0.932 . S
H677 C659 0.929 . S
H678 C660 0.928 . S
H679 C662 0.932 . S
C680 C681 1.264 . S
C680 C685 1.479 . S
C680 C690 1.465 . S
C681 C680 1.264 . S
C681 C683 1.339 . S
C681 H708 0.931 . S
C682 C683 1.395 . S
C682 C684 1.320 . S
C683 C681 1.339 . S
C683 C682 1.395 . S
C683 H709 0.929 . S
C684 C682 1.320 . S
C684 C685 1.405 . S
C684 H710 0.930 . S
C685 C680 1.479 . S
C685 C684 1.405 . S
C685 H711 0.931 . S
U686 O687 2.454 . S
U686 O688 2.458 . S
U686 C689 2.984 . S
U686 C690 2.847 . S
U686 C703 2.882 . S
U686 O704 2.441 . S
U686 O705 2.420 . S
U686 O706 2.455 . S
U686 O707 2.449 . S
O687 U686 2.454 . S
O687 C689 1.353 . S
O688 U686 2.458 . S
O688 C689 1.286 . S
C689 U686 2.984 . S
C689 O687 1.353 . S
C689 O688 1.286 . S
C689 C691 1.363 . S
C690 C680 1.465 . S
C690 U686 2.847 . S
C690 O704 1.249 . S
C690 O705 1.202 . S
C691 C689 1.363 . S
C691 C693 1.408 . S
C691 C696 1.342 . S
C692 C693 1.310 . S
C692 C695 1.461 . S
C692 H712 0.932 . S
C693 C691 1.408 . S
C693 C692 1.310 . S
C693 H713 0.930 . S
C694 C695 1.474 . S
C694 C696 1.285 . S
C694 H714 0.929 . S
C695 C692 1.461 . S
C695 C694 1.474 . S
C696 C691 1.342 . S
C696 C694 1.285 . S
C696 H715 0.930 . S
C697 C700 1.424 . S
C697 C702 1.245 . S
C697 C703 1.428 . S
C698 C701 1.260 . S
C698 C702 1.477 . S
C698 H716 0.932 . S
C699 C700 1.384 . S
C699 C701 1.479 . S
C699 H717 0.929 . S
C700 C697 1.424 . S
C700 C699 1.384 . S
C700 H718 0.928 . S
C701 C698 1.260 . S
C701 C699 1.479 . S
C702 C697 1.245 . S
C702 C698 1.477 . S
C702 H719 0.932 . S
C703 U686 2.882 . S
C703 C697 1.428 . S
C703 O706 1.301 . S
C703 O707 1.282 . S
O704 U686 2.441 . S
O704 C690 1.249 . S
O705 U686 2.420 . S
O705 C690 1.202 . S
O706 U686 2.455 . S
O706 C703 1.301 . S
O707 U686 2.449 . S
O707 C703 1.282 . S
H708 C681 0.931 . S
H709 C683 0.929 . S
H710 C684 0.930 . S
H711 C685 0.931 . S
H712 C692 0.932 . S
H713 C693 0.930 . S
H714 C694 0.929 . S
H715 C696 0.930 . S
H716 C698 0.932 . S
H717 C699 0.929 . S
H718 C700 0.928 . S
H719 C702 0.932 . S
C720 C721 1.264 . S
C720 C725 1.479 . S
C720 C730 1.465 . S
C721 C720 1.264 . S
C721 C723 1.339 . S
C721 H748 0.931 . S
C722 C723 1.395 . S
C722 C724 1.320 . S
C723 C721 1.339 . S
C723 C722 1.395 . S
C723 H749 0.929 . S
C724 C722 1.320 . S
C724 C725 1.405 . S
C724 H750 0.930 . S
C725 C720 1.479 . S
C725 C724 1.405 . S
C725 H751 0.931 . S
U726 O727 2.454 1_545 S
U726 O728 2.458 1_545 S
U726 C729 2.984 1_545 S
U726 C730 2.847 . S
U726 C743 2.882 . S
U726 O744 2.441 . S
U726 O745 2.420 . S
U726 O746 2.455 . S
U726 O747 2.449 . S
O727 U726 2.454 1_565 S
O727 C729 1.353 . S
O728 U726 2.458 1_565 S
O728 C729 1.286 . S
C729 U726 2.984 1_565 S
C729 O727 1.353 . S
C729 O728 1.286 . S
C729 C731 1.363 . S
C730 C720 1.465 . S
C730 U726 2.847 . S
C730 O744 1.249 . S
C730 O745 1.202 . S
C731 C729 1.363 . S
C731 C733 1.408 . S
C731 C736 1.342 . S
C732 C733 1.310 . S
C732 C735 1.461 . S
C732 H752 0.932 . S
C733 C731 1.408 . S
C733 C732 1.310 . S
C733 H753 0.930 . S
C734 C735 1.474 . S
C734 C736 1.285 . S
C734 H754 0.929 . S
C735 C732 1.461 . S
C735 C734 1.474 . S
C736 C731 1.342 . S
C736 C734 1.285 . S
C736 H755 0.930 . S
C737 C740 1.424 . S
C737 C742 1.245 . S
C737 C743 1.428 . S
C738 C741 1.260 . S
C738 C742 1.477 . S
C738 H756 0.932 . S
C739 C740 1.384 . S
C739 C741 1.479 . S
C739 H757 0.929 . S
C740 C737 1.424 . S
C740 C739 1.384 . S
C740 H758 0.928 . S
C741 C738 1.260 . S
C741 C739 1.479 . S
C742 C737 1.245 . S
C742 C738 1.477 . S
C742 H759 0.932 . S
C743 U726 2.882 . S
C743 C737 1.428 . S
C743 O746 1.301 . S
C743 O747 1.282 . S
O744 U726 2.441 . S
O744 C730 1.249 . S
O745 U726 2.420 . S
O745 C730 1.202 . S
O746 U726 2.455 . S
O746 C743 1.301 . S
O747 U726 2.449 . S
O747 C743 1.282 . S
H748 C721 0.931 . S
H749 C723 0.929 . S
H750 C724 0.930 . S
H751 C725 0.931 . S
H752 C732 0.932 . S
H753 C733 0.930 . S
H754 C734 0.929 . S
H755 C736 0.930 . S
H756 C738 0.932 . S
H757 C739 0.929 . S
H758 C740 0.928 . S
H759 C742 0.932 . S
C760 C761 1.264 . S
C760 C765 1.479 . S
C760 C770 1.465 . S
C761 C760 1.264 . S
C761 C763 1.339 . S
C761 H788 0.931 . S
C762 C763 1.395 . S
C762 C764 1.320 . S
C763 C761 1.339 . S
C763 C762 1.395 . S
C763 H789 0.929 . S
C764 C762 1.320 . S
C764 C765 1.405 . S
C764 H790 0.930 . S
C765 C760 1.479 . S
C765 C764 1.405 . S
C765 H791 0.931 . S
U766 O767 2.454 . S
U766 O768 2.458 . S
U766 C769 2.984 . S
U766 C770 2.847 . S
U766 C783 2.882 . S
U766 O784 2.441 . S
U766 O785 2.420 . S
U766 O786 2.455 . S
U766 O787 2.449 . S
O767 U766 2.454 . S
O767 C769 1.353 . S
O768 U766 2.458 . S
O768 C769 1.286 . S
C769 U766 2.984 . S
C769 O767 1.353 . S
C769 O768 1.286 . S
C769 C771 1.363 . S
C770 C760 1.465 . S
C770 U766 2.847 . S
C770 O784 1.249 . S
C770 O785 1.202 . S
C771 C769 1.363 . S
C771 C773 1.408 . S
C771 C776 1.342 . S
C772 C773 1.310 . S
C772 C775 1.461 . S
C772 H792 0.932 . S
C773 C771 1.408 . S
C773 C772 1.310 . S
C773 H793 0.930 . S
C774 C775 1.474 . S
C774 C776 1.285 . S
C774 H794 0.929 . S
C775 C772 1.461 . S
C775 C774 1.474 . S
C776 C771 1.342 . S
C776 C774 1.285 . S
C776 H795 0.930 . S
C777 C780 1.424 . S
C777 C782 1.245 . S
C777 C783 1.428 . S
C778 C781 1.260 . S
C778 C782 1.477 . S
C778 H796 0.932 . S
C779 C780 1.384 . S
C779 C781 1.479 . S
C779 H797 0.929 . S
C780 C777 1.424 . S
C780 C779 1.384 . S
C780 H798 0.928 . S
C781 C778 1.260 . S
C781 C779 1.479 . S
C782 C777 1.245 . S
C782 C778 1.477 . S
C782 H799 0.932 . S
C783 U766 2.882 . S
C783 C777 1.428 . S
C783 O786 1.301 . S
C783 O787 1.282 . S
O784 U766 2.441 . S
O784 C770 1.249 . S
O785 U766 2.420 . S
O785 C770 1.202 . S
O786 U766 2.455 . S
O786 C783 1.301 . S
O787 U766 2.449 . S
O787 C783 1.282 . S
H788 C761 0.931 . S
H789 C763 0.929 . S
H790 C764 0.930 . S
H791 C765 0.931 . S
H792 C772 0.932 . S
H793 C773 0.930 . S
H794 C774 0.929 . S
H795 C776 0.930 . S
H796 C778 0.932 . S
H797 C779 0.929 . S
H798 C780 0.928 . S
H799 C782 0.932 . S
C800 C801 1.264 . S
C800 C805 1.479 . S
C800 C810 1.465 . S
C801 C800 1.264 . S
C801 C803 1.339 . S
C801 H828 0.931 . S
C802 C803 1.395 . S
C802 C804 1.320 . S
C803 C801 1.339 . S
C803 C802 1.395 . S
C803 H829 0.929 . S
C804 C802 1.320 . S
C804 C805 1.405 . S
C804 H830 0.930 . S
C805 C800 1.479 . S
C805 C804 1.405 . S
C805 H831 0.931 . S
U806 O807 2.454 1_545 S
U806 O808 2.458 1_545 S
U806 C809 2.984 1_545 S
U806 C810 2.847 . S
U806 C823 2.882 . S
U806 O824 2.441 . S
U806 O825 2.420 . S
U806 O826 2.455 . S
U806 O827 2.449 . S
O807 U806 2.454 1_565 S
O807 C809 1.353 . S
O808 U806 2.458 1_565 S
O808 C809 1.286 . S
C809 U806 2.984 1_565 S
C809 O807 1.353 . S
C809 O808 1.286 . S
C809 C811 1.363 . S
C810 C800 1.465 . S
C810 U806 2.847 . S
C810 O824 1.249 . S
C810 O825 1.202 . S
C811 C809 1.363 . S
C811 C813 1.408 . S
C811 C816 1.342 . S
C812 C813 1.310 . S
C812 C815 1.461 . S
C812 H832 0.932 . S
C813 C811 1.408 . S
C813 C812 1.310 . S
C813 H833 0.930 . S
C814 C815 1.474 . S
C814 C816 1.285 . S
C814 H834 0.929 . S
C815 C812 1.461 . S
C815 C814 1.474 . S
C816 C811 1.342 . S
C816 C814 1.285 . S
C816 H835 0.930 . S
C817 C820 1.424 . S
C817 C822 1.245 . S
C817 C823 1.428 . S
C818 C821 1.260 . S
C818 C822 1.477 . S
C818 H836 0.932 . S
C819 C820 1.384 . S
C819 C821 1.479 . S
C819 H837 0.929 . S
C820 C817 1.424 . S
C820 C819 1.384 . S
C820 H838 0.928 . S
C821 C818 1.260 . S
C821 C819 1.479 . S
C822 C817 1.245 . S
C822 C818 1.477 . S
C822 H839 0.932 . S
C823 U806 2.882 . S
C823 C817 1.428 . S
C823 O826 1.301 . S
C823 O827 1.282 . S
O824 U806 2.441 . S
O824 C810 1.249 . S
O825 U806 2.420 . S
O825 C810 1.202 . S
O826 U806 2.455 . S
O826 C823 1.301 . S
O827 U806 2.449 . S
O827 C823 1.282 . S
H828 C801 0.931 . S
H829 C803 0.929 . S
H830 C804 0.930 . S
H831 C805 0.931 . S
H832 C812 0.932 . S
H833 C813 0.930 . S
H834 C814 0.929 . S
H835 C816 0.930 . S
H836 C818 0.932 . S
H837 C819 0.929 . S
H838 C820 0.928 . S
H839 C822 0.932 . S
C840 C841 1.264 . S
C840 C845 1.479 . S
C840 C850 1.465 . S
C841 C840 1.264 . S
C841 C843 1.339 . S
C841 H868 0.931 . S
C842 C843 1.395 . S
C842 C844 1.320 . S
C843 C841 1.339 . S
C843 C842 1.395 . S
C843 H869 0.929 . S
C844 C842 1.320 . S
C844 C845 1.405 . S
C844 H870 0.930 . S
C845 C840 1.479 . S
C845 C844 1.405 . S
C845 H871 0.931 . S
U846 O847 2.454 . S
U846 O848 2.458 . S
U846 C849 2.984 . S
U846 C850 2.847 . S
U846 C863 2.882 . S
U846 O864 2.441 . S
U846 O865 2.420 . S
U846 O866 2.455 . S
U846 O867 2.449 . S
O847 U846 2.454 . S
O847 C849 1.353 . S
O848 U846 2.458 . S
O848 C849 1.286 . S
C849 U846 2.984 . S
C849 O847 1.353 . S
C849 O848 1.286 . S
C849 C851 1.363 . S
C850 C840 1.465 . S
C850 U846 2.847 . S
C850 O864 1.249 . S
C850 O865 1.202 . S
C851 C849 1.363 . S
C851 C853 1.408 . S
C851 C856 1.342 . S
C852 C853 1.310 . S
C852 C855 1.461 . S
C852 H872 0.932 . S
C853 C851 1.408 . S
C853 C852 1.310 . S
C853 H873 0.930 . S
C854 C855 1.474 . S
C854 C856 1.285 . S
C854 H874 0.929 . S
C855 C852 1.461 . S
C855 C854 1.474 . S
C856 C851 1.342 . S
C856 C854 1.285 . S
C856 H875 0.930 . S
C857 C860 1.424 . S
C857 C862 1.245 . S
C857 C863 1.428 . S
C858 C861 1.260 . S
C858 C862 1.477 . S
C858 H876 0.932 . S
C859 C860 1.384 . S
C859 C861 1.479 . S
C859 H877 0.929 . S
C860 C857 1.424 . S
C860 C859 1.384 . S
C860 H878 0.928 . S
C861 C858 1.260 . S
C861 C859 1.479 . S
C862 C857 1.245 . S
C862 C858 1.477 . S
C862 H879 0.932 . S
C863 U846 2.882 . S
C863 C857 1.428 . S
C863 O866 1.301 . S
C863 O867 1.282 . S
O864 U846 2.441 . S
O864 C850 1.249 . S
O865 U846 2.420 . S
O865 C850 1.202 . S
O866 U846 2.455 . S
O866 C863 1.301 . S
O867 U846 2.449 . S
O867 C863 1.282 . S
H868 C841 0.931 . S
H869 C843 0.929 . S
H870 C844 0.930 . S
H871 C845 0.931 . S
H872 C852 0.932 . S
H873 C853 0.930 . S
H874 C854 0.929 . S
H875 C856 0.930 . S
H876 C858 0.932 . S
H877 C859 0.929 . S
H878 C860 0.928 . S
H879 C862 0.932 . S
C880 C881 1.264 . S
C880 C885 1.479 . S
C880 C890 1.465 . S
C881 C880 1.264 . S
C881 C883 1.339 . S
C881 H908 0.931 . S
C882 C883 1.395 . S
C882 C884 1.320 . S
C883 C881 1.339 . S
C883 C882 1.395 . S
C883 H909 0.929 . S
C884 C882 1.320 . S
C884 C885 1.405 . S
C884 H910 0.930 . S
C885 C880 1.479 . S
C885 C884 1.405 . S
C885 H911 0.931 . S
U886 O887 2.454 1_565 S
U886 O888 2.458 1_565 S
U886 C889 2.984 1_565 S
U886 C890 2.847 . S
U886 C903 2.882 . S
U886 O904 2.441 . S
U886 O905 2.420 . S
U886 O906 2.455 . S
U886 O907 2.449 . S
O887 U886 2.454 1_545 S
O887 C889 1.353 . S
O888 U886 2.458 1_545 S
O888 C889 1.286 . S
C889 U886 2.984 1_545 S
C889 O887 1.353 . S
C889 O888 1.286 . S
C889 C891 1.363 . S
C890 C880 1.465 . S
C890 U886 2.847 . S
C890 O904 1.249 . S
C890 O905 1.202 . S
C891 C889 1.363 . S
C891 C893 1.408 . S
C891 C896 1.342 . S
C892 C893 1.310 . S
C892 C895 1.461 . S
C892 H912 0.932 . S
C893 C891 1.408 . S
C893 C892 1.310 . S
C893 H913 0.930 . S
C894 C895 1.474 . S
C894 C896 1.285 . S
C894 H914 0.929 . S
C895 C892 1.461 . S
C895 C894 1.474 . S
C896 C891 1.342 . S
C896 C894 1.285 . S
C896 H915 0.930 . S
C897 C900 1.424 . S
C897 C902 1.245 . S
C897 C903 1.428 . S
C898 C901 1.260 . S
C898 C902 1.477 . S
C898 H916 0.932 . S
C899 C900 1.384 . S
C899 C901 1.479 . S
C899 H917 0.929 . S
C900 C897 1.424 . S
C900 C899 1.384 . S
C900 H918 0.928 . S
C901 C898 1.260 . S
C901 C899 1.479 . S
C902 C897 1.245 . S
C902 C898 1.477 . S
C902 H919 0.932 . S
C903 U886 2.882 . S
C903 C897 1.428 . S
C903 O906 1.301 . S
C903 O907 1.282 . S
O904 U886 2.441 . S
O904 C890 1.249 . S
O905 U886 2.420 . S
O905 C890 1.202 . S
O906 U886 2.455 . S
O906 C903 1.301 . S
O907 U886 2.449 . S
O907 C903 1.282 . S
H908 C881 0.931 . S
H909 C883 0.929 . S
H910 C884 0.930 . S
H911 C885 0.931 . S
H912 C892 0.932 . S
H913 C893 0.930 . S
H914 C894 0.929 . S
H915 C896 0.930 . S
H916 C898 0.932 . S
H917 C899 0.929 . S
H918 C900 0.928 . S
H919 C902 0.932 . S
C920 C921 1.264 . S
C920 C925 1.479 . S
C920 C930 1.465 . S
C921 C920 1.264 . S
C921 C923 1.339 . S
C921 H948 0.931 . S
C922 C923 1.395 . S
C922 C924 1.320 . S
C923 C921 1.339 . S
C923 C922 1.395 . S
C923 H949 0.929 . S
C924 C922 1.320 . S
C924 C925 1.405 . S
C924 H950 0.930 . S
C925 C920 1.479 . S
C925 C924 1.405 . S
C925 H951 0.931 . S
U926 O927 2.454 . S
U926 O928 2.458 . S
U926 C929 2.984 . S
U926 C930 2.847 . S
U926 C943 2.882 . S
U926 O944 2.441 . S
U926 O945 2.420 . S
U926 O946 2.455 . S
U926 O947 2.449 . S
O927 U926 2.454 . S
O927 C929 1.353 . S
O928 U926 2.458 . S
O928 C929 1.286 . S
C929 U926 2.984 . S
C929 O927 1.353 . S
C929 O928 1.286 . S
C929 C931 1.363 . S
C930 C920 1.465 . S
C930 U926 2.847 . S
C930 O944 1.249 . S
C930 O945 1.202 . S
C931 C929 1.363 . S
C931 C933 1.408 . S
C931 C936 1.342 . S
C932 C933 1.310 . S
C932 C935 1.461 . S
C932 H952 0.932 . S
C933 C931 1.408 . S
C933 C932 1.310 . S
C933 H953 0.930 . S
C934 C935 1.474 . S
C934 C936 1.285 . S
C934 H954 0.929 . S
C935 C932 1.461 . S
C935 C934 1.474 . S
C936 C931 1.342 . S
C936 C934 1.285 . S
C936 H955 0.930 . S
C937 C940 1.424 . S
C937 C942 1.245 . S
C937 C943 1.428 . S
C938 C941 1.260 . S
C938 C942 1.477 . S
C938 H956 0.932 . S
C939 C940 1.384 . S
C939 C941 1.479 . S
C939 H957 0.929 . S
C940 C937 1.424 . S
C940 C939 1.384 . S
C940 H958 0.928 . S
C941 C938 1.260 . S
C941 C939 1.479 . S
C942 C937 1.245 . S
C942 C938 1.477 . S
C942 H959 0.932 . S
C943 U926 2.882 . S
C943 C937 1.428 . S
C943 O946 1.301 . S
C943 O947 1.282 . S
O944 U926 2.441 . S
O944 C930 1.249 . S
O945 U926 2.420 . S
O945 C930 1.202 . S
O946 U926 2.455 . S
O946 C943 1.301 . S
O947 U926 2.449 . S
O947 C943 1.282 . S
H948 C921 0.931 . S
H949 C923 0.929 . S
H950 C924 0.930 . S
H951 C925 0.931 . S
H952 C932 0.932 . S
H953 C933 0.930 . S
H954 C934 0.929 . S
H955 C936 0.930 . S
H956 C938 0.932 . S
H957 C939 0.929 . S
H958 C940 0.928 . S
H959 C942 0.932 . S
C960 C961 1.290 . S
C960 C965 1.476 . S
C960 C970 1.441 1_545 S
C961 C960 1.290 . S
C961 C963 1.339 . S
C961 H988 0.931 . S
C962 C963 1.395 . S
C962 C964 1.320 . S
C963 C961 1.339 . S
C963 C962 1.395 . S
C963 H989 0.929 . S
C964 C962 1.320 . S
C964 C965 1.402 . S
C964 H990 0.930 . S
C965 C960 1.476 . S
C965 C964 1.402 . S
C965 H991 0.934 1_545 S
U966 O967 2.454 . S
U966 O968 2.458 . S
U966 C969 2.984 . S
U966 C970 2.847 . S
U966 C983 2.882 . S
U966 O984 2.441 . S
U966 O985 2.420 . S
U966 O986 2.455 . S
U966 O987 2.449 . S
O967 U966 2.454 . S
O967 C969 1.353 . S
O968 U966 2.458 . S
O968 C969 1.286 . S
C969 U966 2.984 . S
C969 O967 1.353 . S
C969 O968 1.286 . S
C969 C971 1.363 . S
C970 C960 1.441 1_565 S
C970 U966 2.847 . S
C970 O984 1.249 . S
C970 O985 1.202 . S
C971 C969 1.363 . S
C971 C973 1.408 . S
C971 C976 1.342 . S
C972 C973 1.310 . S
C972 C975 1.461 . S
C972 H992 0.932 . S
C973 C971 1.408 . S
C973 C972 1.310 . S
C973 H993 0.930 . S
C974 C975 1.474 . S
C974 C976 1.285 . S
C974 H994 0.929 . S
C975 C972 1.461 . S
C975 C974 1.474 . S
C976 C971 1.342 . S
C976 C974 1.285 . S
C976 H995 0.930 . S
C977 C980 1.419 . S
C977 C982 1.245 1_545 S
C977 C983 1.431 1_545 S
C978 C981 1.260 . S
C978 C982 1.471 1_545 S
C978 H996 0.932 . S
C979 C980 1.384 . S
C979 C981 1.479 . S
C979 H997 0.929 . S
C980 C977 1.419 . S
C980 C979 1.384 . S
C980 H998 0.928 . S
C981 C978 1.260 . S
C981 C979 1.479 . S
C982 C977 1.245 1_565 S
C982 C978 1.471 1_565 S
C982 H999 0.938 . S
C983 U966 2.882 . S
C983 C977 1.431 1_565 S
C983 O986 1.301 . S
C983 O987 1.282 . S
O984 U966 2.441 . S
O984 C970 1.249 . S
O985 U966 2.420 . S
O985 C970 1.202 . S
O986 U966 2.455 . S
O986 C983 1.301 . S
O987 U966 2.449 . S
O987 C983 1.282 . S
H988 C961 0.931 . S
H989 C963 0.929 . S
H990 C964 0.930 . S
H991 C965 0.934 1_565 S
H992 C972 0.932 . S
H993 C973 0.930 . S
H994 C974 0.929 . S
H995 C976 0.930 . S
H996 C978 0.932 . S
H997 C979 0.929 . S
H998 C980 0.928 . S
H999 C982 0.938 . S
C1000 C1001 1.264 . S
C1000 C1005 1.479 . S
C1000 C1010 1.465 . S
C1001 C1000 1.264 . S
C1001 C1003 1.339 . S
C1001 H1028 0.931 . S
C1002 C1003 1.395 . S
C1002 C1004 1.320 . S
C1003 C1001 1.339 . S
C1003 C1002 1.395 . S
C1003 H1029 0.929 . S
C1004 C1002 1.320 . S
C1004 C1005 1.405 . S
C1004 H1030 0.930 . S
C1005 C1000 1.479 . S
C1005 C1004 1.405 . S
C1005 H1031 0.931 . S
U1006 O1007 2.454 . S
U1006 O1008 2.458 . S
U1006 C1009 2.984 . S
U1006 C1010 2.847 . S
U1006 C1023 2.882 . S
U1006 O1024 2.441 . S
U1006 O1025 2.420 . S
U1006 O1026 2.455 . S
U1006 O1027 2.449 . S
O1007 U1006 2.454 . S
O1007 C1009 1.353 . S
O1008 U1006 2.458 . S
O1008 C1009 1.286 . S
C1009 U1006 2.984 . S
C1009 O1007 1.353 . S
C1009 O1008 1.286 . S
C1009 C1011 1.363 . S
C1010 C1000 1.465 . S
C1010 U1006 2.847 . S
C1010 O1024 1.249 . S
C1010 O1025 1.202 . S
C1011 C1009 1.363 . S
C1011 C1013 1.408 . S
C1011 C1016 1.342 . S
C1012 C1013 1.310 . S
C1012 C1015 1.461 . S
C1012 H1032 0.932 . S
C1013 C1011 1.408 . S
C1013 C1012 1.310 . S
C1013 H1033 0.930 . S
C1014 C1015 1.474 . S
C1014 C1016 1.285 . S
C1014 H1034 0.929 . S
C1015 C1012 1.461 . S
C1015 C1014 1.474 . S
C1016 C1011 1.342 . S
C1016 C1014 1.285 . S
C1016 H1035 0.930 . S
C1017 C1020 1.424 . S
C1017 C1022 1.245 . S
C1017 C1023 1.428 . S
C1018 C1021 1.260 . S
C1018 C1022 1.477 . S
C1018 H1036 0.932 . S
C1019 C1020 1.384 . S
C1019 C1021 1.479 . S
C1019 H1037 0.929 . S
C1020 C1017 1.424 . S
C1020 C1019 1.384 . S
C1020 H1038 0.928 . S
C1021 C1018 1.260 . S
C1021 C1019 1.479 . S
C1022 C1017 1.245 . S
C1022 C1018 1.477 . S
C1022 H1039 0.932 . S
C1023 U1006 2.882 . S
C1023 C1017 1.428 . S
C1023 O1026 1.301 . S
C1023 O1027 1.282 . S
O1024 U1006 2.441 . S
O1024 C1010 1.249 . S
O1025 U1006 2.420 . S
O1025 C1010 1.202 . S
O1026 U1006 2.455 . S
O1026 C1023 1.301 . S
O1027 U1006 2.449 . S
O1027 C1023 1.282 . S
H1028 C1001 0.931 . S
H1029 C1003 0.929 . S
H1030 C1004 0.930 . S
H1031 C1005 0.931 . S
H1032 C1012 0.932 . S
H1033 C1013 0.930 . S
H1034 C1014 0.929 . S
H1035 C1016 0.930 . S
H1036 C1018 0.932 . S
H1037 C1019 0.929 . S
H1038 C1020 0.928 . S
H1039 C1022 0.932 . S
C1040 C1041 1.290 . S
C1040 C1045 1.476 . S
C1040 C1050 1.441 1_565 S
C1041 C1040 1.290 . S
C1041 C1043 1.339 . S
C1041 H1068 0.931 . S
C1042 C1043 1.395 . S
C1042 C1044 1.320 . S
C1043 C1041 1.339 . S
C1043 C1042 1.395 . S
C1043 H1069 0.929 . S
C1044 C1042 1.320 . S
C1044 C1045 1.402 . S
C1044 H1070 0.930 . S
C1045 C1040 1.476 . S
C1045 C1044 1.402 . S
C1045 H1071 0.934 1_565 S
U1046 O1047 2.454 . S
U1046 O1048 2.458 . S
U1046 C1049 2.984 . S
U1046 C1050 2.847 . S
U1046 C1063 2.882 . S
U1046 O1064 2.441 . S
U1046 O1065 2.420 . S
U1046 O1066 2.455 . S
U1046 O1067 2.449 . S
O1047 U1046 2.454 . S
O1047 C1049 1.353 . S
O1048 U1046 2.458 . S
O1048 C1049 1.286 . S
C1049 U1046 2.984 . S
C1049 O1047 1.353 . S
C1049 O1048 1.286 . S
C1049 C1051 1.363 . S
C1050 C1040 1.441 1_545 S
C1050 U1046 2.847 . S
C1050 O1064 1.249 . S
C1050 O1065 1.202 . S
C1051 C1049 1.363 . S
C1051 C1053 1.408 . S
C1051 C1056 1.342 . S
C1052 C1053 1.310 . S
C1052 C1055 1.461 . S
C1052 H1072 0.932 . S
C1053 C1051 1.408 . S
C1053 C1052 1.310 . S
C1053 H1073 0.930 . S
C1054 C1055 1.474 . S
C1054 C1056 1.285 . S
C1054 H1074 0.929 . S
C1055 C1052 1.461 . S
C1055 C1054 1.474 . S
C1056 C1051 1.342 . S
C1056 C1054 1.285 . S
C1056 H1075 0.930 . S
C1057 C1060 1.419 . S
C1057 C1062 1.245 1_565 S
C1057 C1063 1.431 1_565 S
C1058 C1061 1.260 . S
C1058 C1062 1.471 1_565 S
C1058 H1076 0.932 . S
C1059 C1060 1.384 . S
C1059 C1061 1.479 . S
C1059 H1077 0.929 . S
C1060 C1057 1.419 . S
C1060 C1059 1.384 . S
C1060 H1078 0.928 . S
C1061 C1058 1.260 . S
C1061 C1059 1.479 . S
C1062 C1057 1.245 1_545 S
C1062 C1058 1.471 1_545 S
C1062 H1079 0.938 . S
C1063 U1046 2.882 . S
C1063 C1057 1.431 1_545 S
C1063 O1066 1.301 . S
C1063 O1067 1.282 . S
O1064 U1046 2.441 . S
O1064 C1050 1.249 . S
O1065 U1046 2.420 . S
O1065 C1050 1.202 . S
O1066 U1046 2.455 . S
O1066 C1063 1.301 . S
O1067 U1046 2.449 . S
O1067 C1063 1.282 . S
H1068 C1041 0.931 . S
H1069 C1043 0.929 . S
H1070 C1044 0.930 . S
H1071 C1045 0.934 1_545 S
H1072 C1052 0.932 . S
H1073 C1053 0.930 . S
H1074 C1054 0.929 . S
H1075 C1056 0.930 . S
H1076 C1058 0.932 . S
H1077 C1059 0.929 . S
H1078 C1060 0.928 . S
H1079 C1062 0.938 . S
C1080 C1081 1.264 . S
C1080 C1085 1.479 . S
C1080 C1090 1.465 . S
C1081 C1080 1.264 . S
C1081 C1083 1.339 . S
C1081 H1108 0.931 . S
C1082 C1083 1.395 . S
C1082 C1084 1.320 . S
C1083 C1081 1.339 . S
C1083 C1082 1.395 . S
C1083 H1109 0.929 . S
C1084 C1082 1.320 . S
C1084 C1085 1.405 . S
C1084 H1110 0.930 . S
C1085 C1080 1.479 . S
C1085 C1084 1.405 . S
C1085 H1111 0.931 . S
U1086 O1087 2.454 . S
U1086 O1088 2.458 . S
U1086 C1089 2.984 . S
U1086 C1090 2.847 . S
U1086 C1103 2.882 . S
U1086 O1104 2.441 . S
U1086 O1105 2.420 . S
U1086 O1106 2.455 . S
U1086 O1107 2.449 . S
O1087 U1086 2.454 . S
O1087 C1089 1.353 . S
O1088 U1086 2.458 . S
O1088 C1089 1.286 . S
C1089 U1086 2.984 . S
C1089 O1087 1.353 . S
C1089 O1088 1.286 . S
C1089 C1091 1.363 . S
C1090 C1080 1.465 . S
C1090 U1086 2.847 . S
C1090 O1104 1.249 . S
C1090 O1105 1.202 . S
C1091 C1089 1.363 . S
C1091 C1093 1.408 . S
C1091 C1096 1.342 . S
C1092 C1093 1.310 . S
C1092 C1095 1.461 . S
C1092 H1112 0.932 . S
C1093 C1091 1.408 . S
C1093 C1092 1.310 . S
C1093 H1113 0.930 . S
C1094 C1095 1.474 . S
C1094 C1096 1.285 . S
C1094 H1114 0.929 . S
C1095 C1092 1.461 . S
C1095 C1094 1.474 . S
C1096 C1091 1.342 . S
C1096 C1094 1.285 . S
C1096 H1115 0.930 . S
C1097 C1100 1.424 . S
C1097 C1102 1.245 . S
C1097 C1103 1.428 . S
C1098 C1101 1.260 . S
C1098 C1102 1.477 . S
C1098 H1116 0.932 . S
C1099 C1100 1.384 . S
C1099 C1101 1.479 . S
C1099 H1117 0.929 . S
C1100 C1097 1.424 . S
C1100 C1099 1.384 . S
C1100 H1118 0.928 . S
C1101 C1098 1.260 . S
C1101 C1099 1.479 . S
C1102 C1097 1.245 . S
C1102 C1098 1.477 . S
C1102 H1119 0.932 . S
C1103 U1086 2.882 . S
C1103 C1097 1.428 . S
C1103 O1106 1.301 . S
C1103 O1107 1.282 . S
O1104 U1086 2.441 . S
O1104 C1090 1.249 . S
O1105 U1086 2.420 . S
O1105 C1090 1.202 . S
O1106 U1086 2.455 . S
O1106 C1103 1.301 . S
O1107 U1086 2.449 . S
O1107 C1103 1.282 . S
H1108 C1081 0.931 . S
H1109 C1083 0.929 . S
H1110 C1084 0.930 . S
H1111 C1085 0.931 . S
H1112 C1092 0.932 . S
H1113 C1093 0.930 . S
H1114 C1094 0.929 . S
H1115 C1096 0.930 . S
H1116 C1098 0.932 . S
H1117 C1099 0.929 . S
H1118 C1100 0.928 . S
H1119 C1102 0.932 . S
C1120 C1121 1.290 . S
C1120 C1125 1.476 . S
C1120 C1130 1.441 1_565 S
C1121 C1120 1.290 . S
C1121 C1123 1.339 . S
C1121 H1148 0.931 . S
C1122 C1123 1.395 . S
C1122 C1124 1.320 . S
C1123 C1121 1.339 . S
C1123 C1122 1.395 . S
C1123 H1149 0.929 . S
C1124 C1122 1.320 . S
C1124 C1125 1.402 . S
C1124 H1150 0.930 . S
C1125 C1120 1.476 . S
C1125 C1124 1.402 . S
C1125 H1151 0.934 1_565 S
U1126 O1127 2.454 . S
U1126 O1128 2.458 . S
U1126 C1129 2.984 . S
U1126 C1130 2.847 . S
U1126 C1143 2.882 . S
U1126 O1144 2.441 . S
U1126 O1145 2.420 . S
U1126 O1146 2.455 . S
U1126 O1147 2.449 . S
O1127 U1126 2.454 . S
O1127 C1129 1.353 . S
O1128 U1126 2.458 . S
O1128 C1129 1.286 . S
C1129 U1126 2.984 . S
C1129 O1127 1.353 . S
C1129 O1128 1.286 . S
C1129 C1131 1.363 . S
C1130 C1120 1.441 1_545 S
C1130 U1126 2.847 . S
C1130 O1144 1.249 . S
C1130 O1145 1.202 . S
C1131 C1129 1.363 . S
C1131 C1133 1.408 . S
C1131 C1136 1.342 . S
C1132 C1133 1.310 . S
C1132 C1135 1.461 . S
C1132 H1152 0.932 . S
C1133 C1131 1.408 . S
C1133 C1132 1.310 . S
C1133 H1153 0.930 . S
C1134 C1135 1.474 . S
C1134 C1136 1.285 . S
C1134 H1154 0.929 . S
C1135 C1132 1.461 . S
C1135 C1134 1.474 . S
C1136 C1131 1.342 . S
C1136 C1134 1.285 . S
C1136 H1155 0.930 . S
C1137 C1140 1.419 . S
C1137 C1142 1.245 1_565 S
C1137 C1143 1.431 1_565 S
C1138 C1141 1.260 . S
C1138 C1142 1.471 1_565 S
C1138 H1156 0.932 . S
C1139 C1140 1.384 . S
C1139 C1141 1.479 . S
C1139 H1157 0.929 . S
C1140 C1137 1.419 . S
C1140 C1139 1.384 . S
C1140 H1158 0.928 . S
C1141 C1138 1.260 . S
C1141 C1139 1.479 . S
C1142 C1137 1.245 1_545 S
C1142 C1138 1.471 1_545 S
C1142 H1159 0.938 . S
C1143 U1126 2.882 . S
C1143 C1137 1.431 1_545 S
C1143 O1146 1.301 . S
C1143 O1147 1.282 . S
O1144 U1126 2.441 . S
O1144 C1130 1.249 . S
O1145 U1126 2.420 . S
O1145 C1130 1.202 . S
O1146 U1126 2.455 . S
O1146 C1143 1.301 . S
O1147 U1126 2.449 . S
O1147 C1143 1.282 . S
H1148 C1121 0.931 . S
H1149 C1123 0.929 . S
H1150 C1124 0.930 . S
H1151 C1125 0.934 1_545 S
H1152 C1132 0.932 . S
H1153 C1133 0.930 . S
H1154 C1134 0.929 . S
H1155 C1136 0.930 . S
H1156 C1138 0.932 . S
H1157 C1139 0.929 . S
H1158 C1140 0.928 . S
H1159 C1142 0.938 . S
C1160 C1161 1.264 . S
C1160 C1165 1.479 . S
C1160 C1170 1.465 . S
C1161 C1160 1.264 . S
C1161 C1163 1.339 . S
C1161 H1188 0.931 . S
C1162 C1163 1.395 . S
C1162 C1164 1.320 . S
C1163 C1161 1.339 . S
C1163 C1162 1.395 . S
C1163 H1189 0.929 . S
C1164 C1162 1.320 . S
C1164 C1165 1.405 . S
C1164 H1190 0.930 . S
C1165 C1160 1.479 . S
C1165 C1164 1.405 . S
C1165 H1191 0.931 . S
U1166 O1167 2.454 . S
U1166 O1168 2.458 . S
U1166 C1169 2.984 . S
U1166 C1170 2.847 . S
U1166 C1183 2.882 . S
U1166 O1184 2.441 . S
U1166 O1185 2.420 . S
U1166 O1186 2.455 . S
U1166 O1187 2.449 . S
O1167 U1166 2.454 . S
O1167 C1169 1.353 . S
O1168 U1166 2.458 . S
O1168 C1169 1.286 . S
C1169 U1166 2.984 . S
C1169 O1167 1.353 . S
C1169 O1168 1.286 . S
C1169 C1171 1.363 . S
C1170 C1160 1.465 . S
C1170 U1166 2.847 . S
C1170 O1184 1.249 . S
C1170 O1185 1.202 . S
C1171 C1169 1.363 . S
C1171 C1173 1.408 . S
C1171 C1176 1.342 . S
C1172 C1173 1.310 . S
C1172 C1175 1.461 . S
C1172 H1192 0.932 . S
C1173 C1171 1.408 . S
C1173 C1172 1.310 . S
C1173 H1193 0.930 . S
C1174 C1175 1.474 . S
C1174 C1176 1.285 . S
C1174 H1194 0.929 . S
C1175 C1172 1.461 . S
C1175 C1174 1.474 . S
C1176 C1171 1.342 . S
C1176 C1174 1.285 . S
C1176 H1195 0.930 . S
C1177 C1180 1.424 . S
C1177 C1182 1.245 . S
C1177 C1183 1.428 . S
C1178 C1181 1.260 . S
C1178 C1182 1.477 . S
C1178 H1196 0.932 . S
C1179 C1180 1.384 . S
C1179 C1181 1.479 . S
C1179 H1197 0.929 . S
C1180 C1177 1.424 . S
C1180 C1179 1.384 . S
C1180 H1198 0.928 . S
C1181 C1178 1.260 . S
C1181 C1179 1.479 . S
C1182 C1177 1.245 . S
C1182 C1178 1.477 . S
C1182 H1199 0.932 . S
C1183 U1166 2.882 . S
C1183 C1177 1.428 . S
C1183 O1186 1.301 . S
C1183 O1187 1.282 . S
O1184 U1166 2.441 . S
O1184 C1170 1.249 . S
O1185 U1166 2.420 . S
O1185 C1170 1.202 . S
O1186 U1166 2.455 . S
O1186 C1183 1.301 . S
O1187 U1166 2.449 . S
O1187 C1183 1.282 . S
H1188 C1161 0.931 . S
H1189 C1163 0.929 . S
H1190 C1164 0.930 . S
H1191 C1165 0.931 . S
H1192 C1172 0.932 . S
H1193 C1173 0.930 . S
H1194 C1174 0.929 . S
H1195 C1176 0.930 . S
H1196 C1178 0.932 . S
H1197 C1179 0.929 . S
H1198 C1180 0.928 . S
H1199 C1182 0.932 . S
C1200 C1201 1.290 . S
C1200 C1205 1.476 . S
C1200 C1210 1.441 1_545 S
C1201 C1200 1.290 . S
C1201 C1203 1.339 . S
C1201 H1228 0.931 . S
C1202 C1203 1.395 . S
C1202 C1204 1.320 . S
C1203 C1201 1.339 . S
C1203 C1202 1.395 . S
C1203 H1229 0.929 . S
C1204 C1202 1.320 . S
C1204 C1205 1.402 . S
C1204 H1230 0.930 . S
C1205 C1200 1.476 . S
C1205 C1204 1.402 . S
C1205 H1231 0.934 1_545 S
U1206 O1207 2.454 . S
U1206 O1208 2.458 . S
U1206 C1209 2.984 . S
U1206 C1210 2.847 . S
U1206 C1223 2.882 . S
U1206 O1224 2.441 . S
U1206 O1225 2.420 . S
U1206 O1226 2.455 . S
U1206 O1227 2.449 . S
O1207 U1206 2.454 . S
O1207 C1209 1.353 . S
O1208 U1206 2.458 . S
O1208 C1209 1.286 . S
C1209 U1206 2.984 . S
C1209 O1207 1.353 . S
C1209 O1208 1.286 . S
C1209 C1211 1.363 . S
C1210 C1200 1.441 1_565 S
C1210 U1206 2.847 . S
C1210 O1224 1.249 . S
C1210 O1225 1.202 . S
C1211 C1209 1.363 . S
C1211 C1213 1.408 . S
C1211 C1216 1.342 . S
C1212 C1213 1.310 . S
C1212 C1215 1.461 . S
C1212 H1232 0.932 . S
C1213 C1211 1.408 . S
C1213 C1212 1.310 . S
C1213 H1233 0.930 . S
C1214 C1215 1.474 . S
C1214 C1216 1.285 . S
C1214 H1234 0.929 . S
C1215 C1212 1.461 . S
C1215 C1214 1.474 . S
C1216 C1211 1.342 . S
C1216 C1214 1.285 . S
C1216 H1235 0.930 . S
C1217 C1220 1.419 . S
C1217 C1222 1.245 1_545 S
C1217 C1223 1.431 1_545 S
C1218 C1221 1.260 . S
C1218 C1222 1.471 1_545 S
C1218 H1236 0.932 . S
C1219 C1220 1.384 . S
C1219 C1221 1.479 . S
C1219 H1237 0.929 . S
C1220 C1217 1.419 . S
C1220 C1219 1.384 . S
C1220 H1238 0.928 . S
C1221 C1218 1.260 . S
C1221 C1219 1.479 . S
C1222 C1217 1.245 1_565 S
C1222 C1218 1.471 1_565 S
C1222 H1239 0.938 . S
C1223 U1206 2.882 . S
C1223 C1217 1.431 1_565 S
C1223 O1226 1.301 . S
C1223 O1227 1.282 . S
O1224 U1206 2.441 . S
O1224 C1210 1.249 . S
O1225 U1206 2.420 . S
O1225 C1210 1.202 . S
O1226 U1206 2.455 . S
O1226 C1223 1.301 . S
O1227 U1206 2.449 . S
O1227 C1223 1.282 . S
H1228 C1201 0.931 . S
H1229 C1203 0.929 . S
H1230 C1204 0.930 . S
H1231 C1205 0.934 1_565 S
H1232 C1212 0.932 . S
H1233 C1213 0.930 . S
H1234 C1214 0.929 . S
H1235 C1216 0.930 . S
H1236 C1218 0.932 . S
H1237 C1219 0.929 . S
H1238 C1220 0.928 . S
H1239 C1222 0.938 . S
C1240 C1241 1.264 . S
C1240 C1245 1.479 . S
C1240 C1250 1.465 . S
C1241 C1240 1.264 . S
C1241 C1243 1.339 . S
C1241 H1268 0.931 . S
C1242 C1243 1.395 . S
C1242 C1244 1.320 . S
C1243 C1241 1.339 . S
C1243 C1242 1.395 . S
C1243 H1269 0.929 . S
C1244 C1242 1.320 . S
C1244 C1245 1.405 . S
C1244 H1270 0.930 . S
C1245 C1240 1.479 . S
C1245 C1244 1.405 . S
C1245 H1271 0.931 . S
U1246 O1247 2.454 . S
U1246 O1248 2.458 . S
U1246 C1249 2.984 . S
U1246 C1250 2.847 . S
U1246 C1263 2.882 . S
U1246 O1264 2.441 . S
U1246 O1265 2.420 . S
U1246 O1266 2.455 . S
U1246 O1267 2.449 . S
O1247 U1246 2.454 . S
O1247 C1249 1.353 . S
O1248 U1246 2.458 . S
O1248 C1249 1.286 . S
C1249 U1246 2.984 . S
C1249 O1247 1.353 . S
C1249 O1248 1.286 . S
C1249 C1251 1.363 . S
C1250 C1240 1.465 . S
C1250 U1246 2.847 . S
C1250 O1264 1.249 . S
C1250 O1265 1.202 . S
C1251 C1249 1.363 . S
C1251 C1253 1.408 . S
C1251 C1256 1.342 . S
C1252 C1253 1.310 . S
C1252 C1255 1.461 . S
C1252 H1272 0.932 . S
C1253 C1251 1.408 . S
C1253 C1252 1.310 . S
C1253 H1273 0.930 . S
C1254 C1255 1.474 . S
C1254 C1256 1.285 . S
C1254 H1274 0.929 . S
C1255 C1252 1.461 . S
C1255 C1254 1.474 . S
C1256 C1251 1.342 . S
C1256 C1254 1.285 . S
C1256 H1275 0.930 . S
C1257 C1260 1.424 . S
C1257 C1262 1.245 . S
C1257 C1263 1.428 . S
C1258 C1261 1.260 . S
C1258 C1262 1.477 . S
C1258 H1276 0.932 . S
C1259 C1260 1.384 . S
C1259 C1261 1.479 . S
C1259 H1277 0.929 . S
C1260 C1257 1.424 . S
C1260 C1259 1.384 . S
C1260 H1278 0.928 . S
C1261 C1258 1.260 . S
C1261 C1259 1.479 . S
C1262 C1257 1.245 . S
C1262 C1258 1.477 . S
C1262 H1279 0.932 . S
C1263 U1246 2.882 . S
C1263 C1257 1.428 . S
C1263 O1266 1.301 . S
C1263 O1267 1.282 . S
O1264 U1246 2.441 . S
O1264 C1250 1.249 . S
O1265 U1246 2.420 . S
O1265 C1250 1.202 . S
O1266 U1246 2.455 . S
O1266 C1263 1.301 . S
O1267 U1246 2.449 . S
O1267 C1263 1.282 . S
H1268 C1241 0.931 . S
H1269 C1243 0.929 . S
H1270 C1244 0.930 . S
H1271 C1245 0.931 . S
H1272 C1252 0.932 . S
H1273 C1253 0.930 . S
H1274 C1254 0.929 . S
H1275 C1256 0.930 . S
H1276 C1258 0.932 . S
H1277 C1259 0.929 . S
H1278 C1260 0.928 . S
H1279 C1262 0.932 . S
H1280 C1288 0.929 . S
H1281 C1290 0.930 . S
H1282 C1292 0.930 . S
H1283 C1295 0.929 . S
H1284 C1298 0.930 . S
H1285 C1300 0.893 1_554 S
H1286 C1300 0.988 . S
H1287 C1300 1.003 . S
C1288 H1280 0.929 . S
C1288 C1289 1.377 . S
C1288 C1290 1.384 . S
C1289 C1288 1.377 . S
C1289 C1295 1.390 . S
C1290 H1281 0.930 . S
C1290 C1288 1.384 . S
C1290 C1291 1.372 . S
C1291 C1290 1.372 . S
C1291 C1292 1.400 . S
C1291 C1296 1.490 . S
C1292 H1282 0.930 . S
C1292 C1291 1.400 . S
C1292 C1295 1.386 . S
H1293 C1309 0.930 . S
H1294 C1310 0.931 . S
C1295 H1283 0.929 . S
C1295 C1289 1.390 . S
C1295 C1292 1.386 . S
C1296 C1291 1.490 . S
C1296 C1298 1.395 . S
C1296 C1299 1.476 . S
H1297 C1303 0.930 . S
C1298 H1284 0.930 . S
C1298 C1296 1.395 . S
C1298 C1301 1.402 1_556 S
C1299 C1296 1.476 . S
C1299 C1300 1.524 . S
C1299 C1303 1.325 1_556 S
C1300 H1285 0.893 1_556 S
C1300 H1286 0.988 . S
C1300 H1287 1.003 . S
C1300 C1299 1.524 . S
C1301 C1298 1.402 1_554 S
C1301 C1302 1.394 . S
C1301 C1305 1.495 . S
C1302 C1301 1.394 . S
C1302 C1303 1.385 . S
C1302 C1304 1.478 . S
C1303 H1297 0.930 . S
C1303 C1299 1.325 1_554 S
C1303 C1302 1.385 . S
C1304 C1302 1.478 . S
C1304 C1306 1.381 . S
C1304 C1310 1.383 . S
C1305 C1301 1.495 . S
C1305 H1311 0.944 1_554 S
C1305 H1312 0.967 . S
C1305 H1313 0.969 . S
C1306 C1304 1.381 . S
C1306 C1307 1.394 . S
C1306 H1314 0.930 . S
C1307 C1306 1.394 . S
C1307 C1308 1.383 . S
C1307 H1315 0.929 . S
C1308 C1307 1.383 . S
C1308 C1309 1.377 . S
C1309 H1293 0.930 . S
C1309 C1308 1.377 . S
C1309 C1310 1.379 . S
C1310 H1294 0.931 . S
C1310 C1304 1.383 . S
C1310 C1309 1.379 . S
H1311 C1305 0.944 1_556 S
H1312 C1305 0.967 . S
H1313 C1305 0.969 . S
H1314 C1306 0.930 . S
H1315 C1307 0.929 . S
H1316 C1324 0.929 . S
H1317 C1326 0.930 . S
H1318 C1328 0.930 . S
H1319 C1331 0.929 . S
H1320 C1334 0.930 . S
H1321 C1336 0.960 . S
H1322 C1336 0.960 . S
H1323 C1336 0.960 . S
C1324 H1316 0.929 . S
C1324 C1325 1.377 . S
C1324 C1326 1.384 . S
C1325 C1324 1.377 . S
C1325 C1331 1.390 . S
C1326 H1317 0.930 . S
C1326 C1324 1.384 . S
C1326 C1327 1.372 . S
C1327 C1326 1.372 . S
C1327 C1328 1.400 . S
C1327 C1332 1.490 . S
C1328 H1318 0.930 . S
C1328 C1327 1.400 . S
C1328 C1331 1.386 . S
H1329 C1345 0.930 . S
H1330 C1346 0.931 . S
C1331 H1319 0.929 . S
C1331 C1325 1.390 . S
C1331 C1328 1.386 . S
C1332 C1327 1.490 . S
C1332 C1334 1.395 . S
C1332 C1335 1.403 . S
H1333 C1339 0.930 . S
C1334 H1320 0.930 . S
C1334 C1332 1.395 . S
C1334 C1337 1.403 . S
C1335 C1332 1.403 . S
C1335 C1336 1.524 . S
C1335 C1339 1.400 . S
C1336 H1321 0.960 . S
C1336 H1322 0.960 . S
C1336 H1323 0.960 . S
C1336 C1335 1.524 . S
C1337 C1334 1.403 . S
C1337 C1338 1.392 . S
C1337 C1341 1.495 . S
C1338 C1337 1.392 . S
C1338 C1339 1.385 . S
C1338 C1340 1.478 . S
C1339 H1333 0.930 . S
C1339 C1335 1.400 . S
C1339 C1338 1.385 . S
C1340 C1338 1.478 . S
C1340 C1342 1.381 . S
C1340 C1346 1.383 . S
C1341 C1337 1.495 . S
C1341 H1347 0.959 . S
C1341 H1348 0.961 . S
C1341 H1349 0.960 . S
C1342 C1340 1.381 . S
C1342 C1343 1.394 . S
C1342 H1350 0.930 . S
C1343 C1342 1.394 . S
C1343 C1344 1.383 . S
C1343 H1351 0.929 . S
C1344 C1343 1.383 . S
C1344 C1345 1.377 . S
C1345 H1329 0.930 . S
C1345 C1344 1.377 . S
C1345 C1346 1.379 . S
C1346 H1330 0.931 . S
C1346 C1340 1.383 . S
C1346 C1345 1.379 . S
H1347 C1341 0.959 . S
H1348 C1341 0.961 . S
H1349 C1341 0.960 . S
H1350 C1342 0.930 . S
H1351 C1343 0.929 . S
H1352 C1360 0.929 . S
H1353 C1362 0.930 . S
H1354 C1364 0.930 . S
H1355 C1367 0.929 . S
H1356 C1370 0.930 . S
H1357 C1372 0.960 . S
H1358 C1372 0.960 . S
H1359 C1372 0.960 . S
C1360 H1352 0.929 . S
C1360 C1361 1.377 . S
C1360 C1362 1.384 . S
C1361 C1360 1.377 . S
C1361 C1367 1.390 . S
C1362 H1353 0.930 . S
C1362 C1360 1.384 . S
C1362 C1363 1.372 . S
C1363 C1362 1.372 . S
C1363 C1364 1.400 . S
C1363 C1368 1.490 . S
C1364 H1354 0.930 . S
C1364 C1363 1.400 . S
C1364 C1367 1.386 . S
H1365 C1381 0.930 . S
H1366 C1382 0.931 . S
C1367 H1355 0.929 . S
C1367 C1361 1.390 . S
C1367 C1364 1.386 . S
C1368 C1363 1.490 . S
C1368 C1370 1.395 . S
C1368 C1371 1.403 . S
H1369 C1375 0.930 . S
C1370 H1356 0.930 . S
C1370 C1368 1.395 . S
C1370 C1373 1.403 . S
C1371 C1368 1.403 . S
C1371 C1372 1.524 . S
C1371 C1375 1.400 . S
C1372 H1357 0.960 . S
C1372 H1358 0.960 . S
C1372 H1359 0.960 . S
C1372 C1371 1.524 . S
C1373 C1370 1.403 . S
C1373 C1374 1.392 . S
C1373 C1377 1.495 . S
C1374 C1373 1.392 . S
C1374 C1375 1.385 . S
C1374 C1376 1.478 . S
C1375 H1369 0.930 . S
C1375 C1371 1.400 . S
C1375 C1374 1.385 . S
C1376 C1374 1.478 . S
C1376 C1378 1.381 . S
C1376 C1382 1.383 . S
C1377 C1373 1.495 . S
C1377 H1383 0.959 . S
C1377 H1384 0.961 . S
C1377 H1385 0.960 . S
C1378 C1376 1.381 . S
C1378 C1379 1.394 . S
C1378 H1386 0.930 . S
C1379 C1378 1.394 . S
C1379 C1380 1.383 . S
C1379 H1387 0.929 . S
C1380 C1379 1.383 . S
C1380 C1381 1.377 . S
C1381 H1365 0.930 . S
C1381 C1380 1.377 . S
C1381 C1382 1.379 . S
C1382 H1366 0.931 . S
C1382 C1376 1.383 . S
C1382 C1381 1.379 . S
H1383 C1377 0.959 . S
H1384 C1377 0.961 . S
H1385 C1377 0.960 . S
H1386 C1378 0.930 . S
H1387 C1379 0.929 . S
H1388 C1396 0.929 . S
H1389 C1398 0.930 . S
H1390 C1400 0.930 . S
H1391 C1403 0.929 . S
H1392 C1406 0.930 . S
H1393 C1408 0.960 . S
H1394 C1408 0.960 . S
H1395 C1408 0.960 . S
C1396 H1388 0.929 . S
C1396 C1397 1.377 . S
C1396 C1398 1.384 . S
C1397 C1396 1.377 . S
C1397 C1403 1.390 . S
C1398 H1389 0.930 . S
C1398 C1396 1.384 . S
C1398 C1399 1.372 . S
C1399 C1398 1.372 . S
C1399 C1400 1.400 . S
C1399 C1404 1.490 . S
C1400 H1390 0.930 . S
C1400 C1399 1.400 . S
C1400 C1403 1.386 . S
H1401 C1417 0.930 . S
H1402 C1418 0.931 . S
C1403 H1391 0.929 . S
C1403 C1397 1.390 . S
C1403 C1400 1.386 . S
C1404 C1399 1.490 . S
C1404 C1406 1.395 . S
C1404 C1407 1.403 . S
H1405 C1411 0.930 . S
C1406 H1392 0.930 . S
C1406 C1404 1.395 . S
C1406 C1409 1.403 . S
C1407 C1404 1.403 . S
C1407 C1408 1.524 . S
C1407 C1411 1.400 . S
C1408 H1393 0.960 . S
C1408 H1394 0.960 . S
C1408 H1395 0.960 . S
C1408 C1407 1.524 . S
C1409 C1406 1.403 . S
C1409 C1410 1.392 . S
C1409 C1413 1.495 . S
C1410 C1409 1.392 . S
C1410 C1411 1.385 . S
C1410 C1412 1.478 . S
C1411 H1405 0.930 . S
C1411 C1407 1.400 . S
C1411 C1410 1.385 . S
C1412 C1410 1.478 . S
C1412 C1414 1.381 . S
C1412 C1418 1.383 . S
C1413 C1409 1.495 . S
C1413 H1419 0.959 . S
C1413 H1420 0.961 . S
C1413 H1421 0.960 . S
C1414 C1412 1.381 . S
C1414 C1415 1.394 . S
C1414 H1422 0.930 . S
C1415 C1414 1.394 . S
C1415 C1416 1.383 . S
C1415 H1423 0.929 . S
C1416 C1415 1.383 . S
C1416 C1417 1.377 . S
C1417 H1401 0.930 . S
C1417 C1416 1.377 . S
C1417 C1418 1.379 . S
C1418 H1402 0.931 . S
C1418 C1412 1.383 . S
C1418 C1417 1.379 . S
H1419 C1413 0.959 . S
H1420 C1413 0.961 . S
H1421 C1413 0.960 . S
H1422 C1414 0.930 . S
H1423 C1415 0.929 . S
H1424 C1432 0.929 . S
H1425 C1434 0.930 . S
H1426 C1436 0.930 . S
H1427 C1439 0.929 . S
H1428 C1442 0.930 . S
H1429 C1444 0.960 . S
H1430 C1444 0.960 . S
H1431 C1444 0.960 . S
C1432 H1424 0.929 . S
C1432 C1433 1.377 . S
C1432 C1434 1.384 . S
C1433 C1432 1.377 . S
C1433 C1439 1.390 . S
C1434 H1425 0.930 . S
C1434 C1432 1.384 . S
C1434 C1435 1.372 . S
C1435 C1434 1.372 . S
C1435 C1436 1.400 . S
C1435 C1440 1.490 . S
C1436 H1426 0.930 . S
C1436 C1435 1.400 . S
C1436 C1439 1.386 . S
H1437 C1453 0.930 . S
H1438 C1454 0.931 . S
C1439 H1427 0.929 . S
C1439 C1433 1.390 . S
C1439 C1436 1.386 . S
C1440 C1435 1.490 . S
C1440 C1442 1.395 . S
C1440 C1443 1.403 . S
H1441 C1447 0.930 . S
C1442 H1428 0.930 . S
C1442 C1440 1.395 . S
C1442 C1445 1.403 1_554 S
C1443 C1440 1.403 . S
C1443 C1444 1.524 . S
C1443 C1447 1.400 1_554 S
C1444 H1429 0.960 . S
C1444 H1430 0.960 . S
C1444 H1431 0.960 . S
C1444 C1443 1.524 . S
C1445 C1442 1.403 1_556 S
C1445 C1446 1.392 . S
C1445 C1449 1.495 . S
C1446 C1445 1.392 . S
C1446 C1447 1.385 . S
C1446 C1448 1.478 . S
C1447 H1441 0.930 . S
C1447 C1443 1.400 1_556 S
C1447 C1446 1.385 . S
C1448 C1446 1.478 . S
C1448 C1450 1.381 . S
C1448 C1454 1.383 . S
C1449 C1445 1.495 . S
C1449 H1455 0.959 . S
C1449 H1456 0.961 . S
C1449 H1457 0.960 . S
C1450 C1448 1.381 . S
C1450 C1451 1.394 . S
C1450 H1458 0.930 . S
C1451 C1450 1.394 . S
C1451 C1452 1.383 . S
C1451 H1459 0.929 . S
C1452 C1451 1.383 . S
C1452 C1453 1.377 . S
C1453 H1437 0.930 . S
C1453 C1452 1.377 . S
C1453 C1454 1.379 . S
C1454 H1438 0.931 . S
C1454 C1448 1.383 . S
C1454 C1453 1.379 . S
H1455 C1449 0.959 . S
H1456 C1449 0.961 . S
H1457 C1449 0.960 . S
H1458 C1450 0.930 . S
H1459 C1451 0.929 . S
H1460 C1468 0.929 . S
H1461 C1470 0.930 . S
H1462 C1472 0.930 . S
H1463 C1475 0.929 . S
H1464 C1478 0.930 . S
H1465 C1480 0.960 . S
H1466 C1480 0.960 . S
H1467 C1480 0.960 . S
C1468 H1460 0.929 . S
C1468 C1469 1.377 . S
C1468 C1470 1.384 . S
C1469 C1468 1.377 . S
C1469 C1475 1.390 . S
C1470 H1461 0.930 . S
C1470 C1468 1.384 . S
C1470 C1471 1.372 . S
C1471 C1470 1.372 . S
C1471 C1472 1.400 . S
C1471 C1476 1.490 . S
C1472 H1462 0.930 . S
C1472 C1471 1.400 . S
C1472 C1475 1.386 . S
H1473 C1489 0.930 . S
H1474 C1490 0.931 . S
C1475 H1463 0.929 . S
C1475 C1469 1.390 . S
C1475 C1472 1.386 . S
C1476 C1471 1.490 . S
C1476 C1478 1.395 . S
C1476 C1479 1.403 . S
H1477 C1483 0.930 . S
C1478 H1464 0.930 . S
C1478 C1476 1.395 . S
C1478 C1481 1.403 . S
C1479 C1476 1.403 . S
C1479 C1480 1.524 . S
C1479 C1483 1.400 . S
C1480 H1465 0.960 . S
C1480 H1466 0.960 . S
C1480 H1467 0.960 . S
C1480 C1479 1.524 . S
C1481 C1478 1.403 . S
C1481 C1482 1.392 . S
C1481 C1485 1.495 . S
C1482 C1481 1.392 . S
C1482 C1483 1.385 . S
C1482 C1484 1.478 . S
C1483 H1477 0.930 . S
C1483 C1479 1.400 . S
C1483 C1482 1.385 . S
C1484 C1482 1.478 . S
C1484 C1486 1.381 . S
C1484 C1490 1.383 . S
C1485 C1481 1.495 . S
C1485 H1491 0.959 . S
C1485 H1492 0.961 . S
C1485 H1493 0.960 . S
C1486 C1484 1.381 . S
C1486 C1487 1.394 . S
C1486 H1494 0.930 . S
C1487 C1486 1.394 . S
C1487 C1488 1.383 . S
C1487 H1495 0.929 . S
C1488 C1487 1.383 . S
C1488 C1489 1.377 . S
C1489 H1473 0.930 . S
C1489 C1488 1.377 . S
C1489 C1490 1.379 . S
C1490 H1474 0.931 . S
C1490 C1484 1.383 . S
C1490 C1489 1.379 . S
H1491 C1485 0.959 . S
H1492 C1485 0.961 . S
H1493 C1485 0.960 . S
H1494 C1486 0.930 . S
H1495 C1487 0.929 . S
H1496 C1504 0.929 . S
H1497 C1506 0.930 . S
H1498 C1508 0.930 . S
H1499 C1511 0.929 . S
H1500 C1514 0.930 . S
H1501 C1516 0.960 . S
H1502 C1516 0.960 . S
H1503 C1516 0.960 . S
C1504 H1496 0.929 . S
C1504 C1505 1.377 . S
C1504 C1506 1.384 . S
C1505 C1504 1.377 . S
C1505 C1511 1.390 . S
C1506 H1497 0.930 . S
C1506 C1504 1.384 . S
C1506 C1507 1.372 . S
C1507 C1506 1.372 . S
C1507 C1508 1.400 . S
C1507 C1512 1.490 . S
C1508 H1498 0.930 . S
C1508 C1507 1.400 . S
C1508 C1511 1.386 . S
H1509 C1525 0.930 . S
H1510 C1526 0.931 . S
C1511 H1499 0.929 . S
C1511 C1505 1.390 . S
C1511 C1508 1.386 . S
C1512 C1507 1.490 . S
C1512 C1514 1.395 . S
C1512 C1515 1.403 . S
H1513 C1519 0.930 . S
C1514 H1500 0.930 . S
C1514 C1512 1.395 . S
C1514 C1517 1.403 . S
C1515 C1512 1.403 . S
C1515 C1516 1.524 . S
C1515 C1519 1.400 . S
C1516 H1501 0.960 . S
C1516 H1502 0.960 . S
C1516 H1503 0.960 . S
C1516 C1515 1.524 . S
C1517 C1514 1.403 . S
C1517 C1518 1.392 . S
C1517 C1521 1.495 . S
C1518 C1517 1.392 . S
C1518 C1519 1.385 . S
C1518 C1520 1.478 . S
C1519 H1513 0.930 . S
C1519 C1515 1.400 . S
C1519 C1518 1.385 . S
C1520 C1518 1.478 . S
C1520 C1522 1.381 . S
C1520 C1526 1.383 . S
C1521 C1517 1.495 . S
C1521 H1527 0.959 . S
C1521 H1528 0.961 . S
C1521 H1529 0.960 . S
C1522 C1520 1.381 . S
C1522 C1523 1.394 . S
C1522 H1530 0.930 . S
C1523 C1522 1.394 . S
C1523 C1524 1.383 . S
C1523 H1531 0.929 . S
C1524 C1523 1.383 . S
C1524 C1525 1.377 . S
C1525 H1509 0.930 . S
C1525 C1524 1.377 . S
C1525 C1526 1.379 . S
C1526 H1510 0.931 . S
C1526 C1520 1.383 . S
C1526 C1525 1.379 . S
H1527 C1521 0.959 . S
H1528 C1521 0.961 . S
H1529 C1521 0.960 . S
H1530 C1522 0.930 . S
H1531 C1523 0.929 . S
H1532 C1540 0.929 . S
H1533 C1542 0.930 . S
H1534 C1544 0.930 . S
H1535 C1547 0.929 . S
H1536 C1550 0.930 . S
H1537 C1552 0.960 . S
H1538 C1552 0.960 . S
H1539 C1552 0.960 . S
C1540 H1532 0.929 . S
C1540 C1541 1.377 . S
C1540 C1542 1.384 . S
C1541 C1540 1.377 . S
C1541 C1547 1.390 . S
C1542 H1533 0.930 . S
C1542 C1540 1.384 . S
C1542 C1543 1.372 . S
C1543 C1542 1.372 . S
C1543 C1544 1.400 . S
C1543 C1548 1.490 . S
C1544 H1534 0.930 . S
C1544 C1543 1.400 . S
C1544 C1547 1.386 . S
H1545 C1561 0.930 . S
H1546 C1562 0.931 . S
C1547 H1535 0.929 . S
C1547 C1541 1.390 . S
C1547 C1544 1.386 . S
C1548 C1543 1.490 . S
C1548 C1550 1.395 . S
C1548 C1551 1.403 . S
H1549 C1555 0.930 . S
C1550 H1536 0.930 . S
C1550 C1548 1.395 . S
C1550 C1553 1.403 . S
C1551 C1548 1.403 . S
C1551 C1552 1.524 . S
C1551 C1555 1.400 . S
C1552 H1537 0.960 . S
C1552 H1538 0.960 . S
C1552 H1539 0.960 . S
C1552 C1551 1.524 . S
C1553 C1550 1.403 . S
C1553 C1554 1.392 . S
C1553 C1557 1.495 . S
C1554 C1553 1.392 . S
C1554 C1555 1.385 . S
C1554 C1556 1.478 . S
C1555 H1549 0.930 . S
C1555 C1551 1.400 . S
C1555 C1554 1.385 . S
C1556 C1554 1.478 . S
C1556 C1558 1.381 . S
C1556 C1562 1.383 . S
C1557 C1553 1.495 . S
C1557 H1563 0.959 . S
C1557 H1564 0.961 . S
C1557 H1565 0.960 . S
C1558 C1556 1.381 . S
C1558 C1559 1.394 . S
C1558 H1566 0.930 . S
C1559 C1558 1.394 . S
C1559 C1560 1.383 . S
C1559 H1567 0.929 . S
C1560 C1559 1.383 . S
C1560 C1561 1.377 . S
C1561 H1545 0.930 . S
C1561 C1560 1.377 . S
C1561 C1562 1.379 . S
C1562 H1546 0.931 . S
C1562 C1556 1.383 . S
C1562 C1561 1.379 . S
H1563 C1557 0.959 . S
H1564 C1557 0.961 . S
H1565 C1557 0.960 . S
H1566 C1558 0.930 . S
H1567 C1559 0.929 . S
H1568 C1576 0.929 . S
H1569 C1578 0.930 . S
H1570 C1580 0.930 . S
H1571 C1583 0.929 . S
H1572 C1586 0.930 . S
H1573 C1588 0.960 . S
H1574 C1588 0.960 . S
H1575 C1588 0.960 . S
C1576 H1568 0.929 . S
C1576 C1577 1.377 . S
C1576 C1578 1.384 . S
C1577 C1576 1.377 . S
C1577 C1583 1.390 . S
C1578 H1569 0.930 . S
C1578 C1576 1.384 . S
C1578 C1579 1.372 . S
C1579 C1578 1.372 . S
C1579 C1580 1.400 . S
C1579 C1584 1.490 . S
C1580 H1570 0.930 . S
C1580 C1579 1.400 . S
C1580 C1583 1.386 . S
H1581 C1597 0.930 . S
H1582 C1598 0.931 . S
C1583 H1571 0.929 . S
C1583 C1577 1.390 . S
C1583 C1580 1.386 . S
C1584 C1579 1.490 . S
C1584 C1586 1.395 1_565 S
C1584 C1587 1.403 . S
H1585 C1591 0.930 . S
C1586 H1572 0.930 . S
C1586 C1584 1.395 1_545 S
C1586 C1589 1.403 . S
C1587 C1584 1.403 . S
C1587 C1588 1.524 . S
C1587 C1591 1.400 . S
C1588 H1573 0.960 . S
C1588 H1574 0.960 . S
C1588 H1575 0.960 . S
C1588 C1587 1.524 . S
C1589 C1586 1.403 . S
C1589 C1590 1.392 . S
C1589 C1593 1.495 . S
C1590 C1589 1.392 . S
C1590 C1591 1.385 1_545 S
C1590 C1592 1.478 . S
C1591 H1585 0.930 . S
C1591 C1587 1.400 . S
C1591 C1590 1.385 1_565 S
C1592 C1590 1.478 . S
C1592 C1594 1.381 . S
C1592 C1598 1.383 . S
C1593 C1589 1.495 . S
C1593 H1599 0.959 . S
C1593 H1600 0.961 . S
C1593 H1601 0.960 . S
C1594 C1592 1.381 . S
C1594 C1595 1.394 . S
C1594 H1602 0.961 . S
C1595 C1594 1.394 . S
C1595 C1596 1.383 . S
C1595 H1603 0.929 . S
C1596 C1595 1.383 . S
C1596 C1597 1.377 . S
C1597 H1581 0.930 . S
C1597 C1596 1.377 . S
C1597 C1598 1.379 . S
C1598 H1582 0.931 . S
C1598 C1592 1.383 . S
C1598 C1597 1.379 . S
H1599 C1593 0.959 . S
H1600 C1593 0.961 . S
H1601 C1593 0.960 . S
H1602 C1594 0.961 . S
H1603 C1595 0.929 . S
H1604 C1612 0.929 . S
H1605 C1614 0.930 . S
H1606 C1616 0.930 . S
H1607 C1619 0.929 . S
H1608 C1622 0.930 . S
H1609 C1624 0.960 . S
H1610 C1624 0.960 . S
H1611 C1624 0.960 . S
C1612 H1604 0.929 . S
C1612 C1613 1.377 . S
C1612 C1614 1.384 . S
C1613 C1612 1.377 . S
C1613 C1619 1.390 . S
C1614 H1605 0.930 . S
C1614 C1612 1.384 . S
C1614 C1615 1.372 . S
C1615 C1614 1.372 . S
C1615 C1616 1.400 . S
C1615 C1620 1.490 . S
C1616 H1606 0.930 . S
C1616 C1615 1.400 . S
C1616 C1619 1.386 . S
H1617 C1633 0.930 . S
H1618 C1634 0.931 . S
C1619 H1607 0.929 . S
C1619 C1613 1.390 . S
C1619 C1616 1.386 . S
C1620 C1615 1.490 . S
C1620 C1622 1.395 . S
C1620 C1623 1.403 . S
H1621 C1627 0.930 . S
C1622 H1608 0.930 . S
C1622 C1620 1.395 . S
C1622 C1625 1.403 . S
C1623 C1620 1.403 . S
C1623 C1624 1.524 . S
C1623 C1627 1.400 . S
C1624 H1609 0.960 . S
C1624 H1610 0.960 . S
C1624 H1611 0.960 . S
C1624 C1623 1.524 . S
C1625 C1622 1.403 . S
C1625 C1626 1.392 . S
C1625 C1629 1.495 . S
C1626 C1625 1.392 . S
C1626 C1627 1.385 . S
C1626 C1628 1.478 . S
C1627 H1621 0.930 . S
C1627 C1623 1.400 . S
C1627 C1626 1.385 . S
C1628 C1626 1.478 . S
C1628 C1630 1.381 . S
C1628 C1634 1.383 . S
C1629 C1625 1.495 . S
C1629 H1635 0.959 . S
C1629 H1636 0.961 . S
C1629 H1637 0.960 . S
C1630 C1628 1.381 . S
C1630 C1631 1.394 . S
C1630 H1638 0.930 . S
C1631 C1630 1.394 . S
C1631 C1632 1.383 . S
C1631 H1639 0.929 . S
C1632 C1631 1.383 . S
C1632 C1633 1.377 . S
C1633 H1617 0.930 . S
C1633 C1632 1.377 . S
C1633 C1634 1.379 . S
C1634 H1618 0.931 . S
C1634 C1628 1.383 . S
C1634 C1633 1.379 . S
H1635 C1629 0.959 . S
H1636 C1629 0.961 . S
H1637 C1629 0.960 . S
H1638 C1630 0.930 . S
H1639 C1631 0.929 . S
H1640 C1648 0.929 . S
H1641 C1650 0.930 . S
H1642 C1652 0.934 . S
H1643 C1655 0.929 1_565 S
H1644 C1658 0.930 . S
H1645 C1660 0.960 . S
H1646 C1660 0.960 . S
H1647 C1660 0.960 . S
C1648 H1640 0.929 . S
C1648 C1649 1.377 . S
C1648 C1650 1.384 . S
C1649 C1648 1.377 . S
C1649 C1655 1.390 . S
C1650 H1641 0.930 . S
C1650 C1648 1.384 . S
C1650 C1651 1.372 . S
C1651 C1650 1.372 . S
C1651 C1652 1.396 1_545 S
C1651 C1656 1.490 . S
C1652 H1642 0.934 . S
C1652 C1651 1.396 1_565 S
C1652 C1655 1.384 1_565 S
H1653 C1669 0.930 . S
H1654 C1670 0.931 . S
C1655 H1643 0.929 1_545 S
C1655 C1649 1.390 . S
C1655 C1652 1.384 1_545 S
C1656 C1651 1.490 . S
C1656 C1658 1.395 1_545 S
C1656 C1659 1.403 . S
H1657 C1663 0.930 . S
C1658 H1644 0.930 . S
C1658 C1656 1.395 1_565 S
C1658 C1661 1.403 1_554 S
C1659 C1656 1.403 . S
C1659 C1660 1.524 . S
C1659 C1663 1.400 1_554 S
C1660 H1645 0.960 . S
C1660 H1646 0.960 . S
C1660 H1647 0.960 . S
C1660 C1659 1.524 . S
C1661 C1658 1.403 1_556 S
C1661 C1662 1.392 . S
C1661 C1665 1.495 . S
C1662 C1661 1.392 . S
C1662 C1663 1.385 1_565 S
C1662 C1664 1.478 . S
C1663 H1657 0.930 . S
C1663 C1659 1.400 1_556 S
C1663 C1662 1.385 1_545 S
C1664 C1662 1.478 . S
C1664 C1666 1.364 1_565 S
C1664 C1670 1.383 . S
C1665 C1661 1.495 . S
C1665 H1671 0.959 . S
C1665 H1672 0.961 . S
C1665 H1673 0.960 . S
C1666 C1664 1.364 1_545 S
C1666 C1667 1.389 1_545 S
C1666 H1674 0.953 . S
C1667 C1666 1.389 1_565 S
C1667 C1668 1.383 . S
C1667 H1675 0.929 1_565 S
C1668 C1667 1.383 . S
C1668 C1669 1.377 . S
C1669 H1653 0.930 . S
C1669 C1668 1.377 . S
C1669 C1670 1.379 . S
C1670 H1654 0.931 . S
C1670 C1664 1.383 . S
C1670 C1669 1.379 . S
H1671 C1665 0.959 . S
H1672 C1665 0.961 . S
H1673 C1665 0.960 . S
H1674 C1666 0.953 . S
H1675 C1667 0.929 1_545 S
H1676 C1684 0.929 . S
H1677 C1686 0.930 . S
H1678 C1688 0.930 . S
H1679 C1691 0.929 . S
H1680 C1694 0.930 . S
H1681 C1696 0.960 . S
H1682 C1696 0.960 . S
H1683 C1696 0.960 . S
C1684 H1676 0.929 . S
C1684 C1685 1.377 . S
C1684 C1686 1.384 . S
C1685 C1684 1.377 . S
C1685 C1691 1.390 . S
C1686 H1677 0.930 . S
C1686 C1684 1.384 . S
C1686 C1687 1.372 . S
C1687 C1686 1.372 . S
C1687 C1688 1.400 . S
C1687 C1692 1.490 . S
C1688 H1678 0.930 . S
C1688 C1687 1.400 . S
C1688 C1691 1.386 . S
H1689 C1705 0.930 . S
H1690 C1706 0.931 . S
C1691 H1679 0.929 . S
C1691 C1685 1.390 . S
C1691 C1688 1.386 . S
C1692 C1687 1.490 . S
C1692 C1694 1.395 . S
C1692 C1695 1.403 . S
H1693 C1699 0.930 . S
C1694 H1680 0.930 . S
C1694 C1692 1.395 . S
C1694 C1697 1.403 . S
C1695 C1692 1.403 . S
C1695 C1696 1.524 . S
C1695 C1699 1.400 . S
C1696 H1681 0.960 . S
C1696 H1682 0.960 . S
C1696 H1683 0.960 . S
C1696 C1695 1.524 . S
C1697 C1694 1.403 . S
C1697 C1698 1.392 . S
C1697 C1701 1.495 . S
C1698 C1697 1.392 . S
C1698 C1699 1.385 . S
C1698 C1700 1.478 . S
C1699 H1693 0.930 . S
C1699 C1695 1.400 . S
C1699 C1698 1.385 . S
C1700 C1698 1.478 . S
C1700 C1702 1.381 . S
C1700 C1706 1.383 . S
C1701 C1697 1.495 . S
C1701 H1707 0.959 . S
C1701 H1708 0.961 . S
C1701 H1709 0.960 . S
C1702 C1700 1.381 . S
C1702 C1703 1.394 . S
C1702 H1710 0.930 . S
C1703 C1702 1.394 . S
C1703 C1704 1.383 . S
C1703 H1711 0.929 . S
C1704 C1703 1.383 . S
C1704 C1705 1.377 . S
C1705 H1689 0.930 . S
C1705 C1704 1.377 . S
C1705 C1706 1.379 . S
C1706 H1690 0.931 . S
C1706 C1700 1.383 . S
C1706 C1705 1.379 . S
H1707 C1701 0.959 . S
H1708 C1701 0.961 . S
H1709 C1701 0.960 . S
H1710 C1702 0.930 . S
H1711 C1703 0.929 . S
H1712 C1720 0.927 . S
H1713 C1722 0.909 1_565 S
H1714 C1724 0.930 . S
H1715 C1727 0.929 . S
H1716 C1730 0.930 . S
H1717 C1732 0.960 . S
H1718 C1732 0.960 . S
H1719 C1732 0.960 . S
C1720 H1712 0.927 . S
C1720 C1721 1.377 . S
C1720 C1722 1.392 . S
C1721 C1720 1.377 . S
C1721 C1727 1.390 . S
C1722 H1713 0.909 1_545 S
C1722 C1720 1.392 . S
C1722 C1723 1.386 . S
C1723 C1722 1.386 . S
C1723 C1724 1.400 . S
C1723 C1728 1.490 . S
C1724 H1714 0.930 . S
C1724 C1723 1.400 . S
C1724 C1727 1.386 . S
H1725 C1741 0.930 1_545 S
H1726 C1742 0.931 . S
C1727 H1715 0.929 . S
C1727 C1721 1.390 . S
C1727 C1724 1.386 . S
C1728 C1723 1.490 . S
C1728 C1730 1.395 . S
C1728 C1731 1.403 1_545 S
H1729 C1735 0.930 . S
C1730 H1716 0.930 . S
C1730 C1728 1.395 . S
C1730 C1733 1.403 . S
C1731 C1728 1.403 1_565 S
C1731 C1732 1.524 . S
C1731 C1735 1.400 . S
C1732 H1717 0.960 . S
C1732 H1718 0.960 . S
C1732 H1719 0.960 . S
C1732 C1731 1.524 . S
C1733 C1730 1.403 . S
C1733 C1734 1.392 1_545 S
C1733 C1737 1.495 . S
C1734 C1733 1.392 1_565 S
C1734 C1735 1.385 . S
C1734 C1736 1.478 . S
C1735 H1729 0.930 . S
C1735 C1731 1.400 . S
C1735 C1734 1.385 . S
C1736 C1734 1.478 . S
C1736 C1738 1.381 . S
C1736 C1742 1.383 1_565 S
C1737 C1733 1.495 . S
C1737 H1743 0.959 . S
C1737 H1744 0.961 . S
C1737 H1745 0.960 . S
C1738 C1736 1.381 . S
C1738 C1739 1.394 . S
C1738 H1746 0.930 . S
C1739 C1738 1.394 . S
C1739 C1740 1.383 . S
C1739 H1747 0.929 . S
C1740 C1739 1.383 . S
C1740 C1741 1.377 . S
C1741 H1725 0.930 1_565 S
C1741 C1740 1.377 . S
C1741 C1742 1.379 1_565 S
C1742 H1726 0.931 . S
C1742 C1736 1.383 1_545 S
C1742 C1741 1.379 1_545 S
H1743 C1737 0.959 . S
H1744 C1737 0.961 . S
H1745 C1737 0.960 . S
H1746 C1738 0.930 . S
H1747 C1739 0.929 . S
H1748 C1756 0.929 . S
H1749 C1758 0.930 . S
H1750 C1760 0.930 . S
H1751 C1763 0.929 . S
H1752 C1766 0.930 . S
H1753 C1768 0.960 . S
H1754 C1768 0.960 . S
H1755 C1768 0.960 . S
C1756 H1748 0.929 . S
C1756 C1757 1.377 . S
C1756 C1758 1.384 . S
C1757 C1756 1.377 . S
C1757 C1763 1.390 . S
C1758 H1749 0.930 . S
C1758 C1756 1.384 . S
C1758 C1759 1.372 . S
C1759 C1758 1.372 . S
C1759 C1760 1.400 . S
C1759 C1764 1.490 . S
C1760 H1750 0.930 . S
C1760 C1759 1.400 . S
C1760 C1763 1.386 . S
H1761 C1777 0.930 . S
H1762 C1778 0.931 . S
C1763 H1751 0.929 . S
C1763 C1757 1.390 . S
C1763 C1760 1.386 . S
C1764 C1759 1.490 . S
C1764 C1766 1.395 . S
C1764 C1767 1.403 . S
H1765 C1771 0.930 . S
C1766 H1752 0.930 . S
C1766 C1764 1.395 . S
C1766 C1769 1.403 . S
C1767 C1764 1.403 . S
C1767 C1768 1.524 . S
C1767 C1771 1.400 . S
C1768 H1753 0.960 . S
C1768 H1754 0.960 . S
C1768 H1755 0.960 . S
C1768 C1767 1.524 . S
C1769 C1766 1.403 . S
C1769 C1770 1.392 . S
C1769 C1773 1.495 . S
C1770 C1769 1.392 . S
C1770 C1771 1.385 . S
C1770 C1772 1.478 . S
C1771 H1765 0.930 . S
C1771 C1767 1.400 . S
C1771 C1770 1.385 . S
C1772 C1770 1.478 . S
C1772 C1774 1.381 . S
C1772 C1778 1.383 . S
C1773 C1769 1.495 . S
C1773 H1779 0.959 . S
C1773 H1780 0.961 . S
C1773 H1781 0.960 . S
C1774 C1772 1.381 . S
C1774 C1775 1.394 . S
C1774 H1782 0.930 . S
C1775 C1774 1.394 . S
C1775 C1776 1.383 . S
C1775 H1783 0.929 . S
C1776 C1775 1.383 . S
C1776 C1777 1.377 . S
C1777 H1761 0.930 . S
C1777 C1776 1.377 . S
C1777 C1778 1.379 . S
C1778 H1762 0.931 . S
C1778 C1772 1.383 . S
C1778 C1777 1.379 . S
H1779 C1773 0.959 . S
H1780 C1773 0.961 . S
H1781 C1773 0.960 . S
H1782 C1774 0.930 . S
H1783 C1775 0.929 . S
H1784 C1792 0.929 . S
H1785 C1794 0.930 . S
H1786 C1796 0.930 . S
H1787 C1799 0.929 . S
H1788 C1802 0.930 . S
H1789 C1804 0.960 . S
H1790 C1804 0.960 . S
H1791 C1804 0.960 . S
C1792 H1784 0.929 . S
C1792 C1793 1.377 . S
C1792 C1794 1.384 . S
C1793 C1792 1.377 . S
C1793 C1799 1.390 . S
C1794 H1785 0.930 . S
C1794 C1792 1.384 . S
C1794 C1795 1.372 . S
C1795 C1794 1.372 . S
C1795 C1796 1.400 . S
C1795 C1800 1.490 . S
C1796 H1786 0.930 . S
C1796 C1795 1.400 . S
C1796 C1799 1.386 . S
H1797 C1813 0.930 . S
H1798 C1814 0.931 1_565 S
C1799 H1787 0.929 . S
C1799 C1793 1.390 . S
C1799 C1796 1.386 . S
C1800 C1795 1.490 . S
C1800 C1802 1.395 . S
C1800 C1803 1.403 1_565 S
H1801 C1807 0.930 . S
C1802 H1788 0.930 . S
C1802 C1800 1.395 . S
C1802 C1805 1.403 1_556 S
C1803 C1800 1.403 1_545 S
C1803 C1804 1.524 . S
C1803 C1807 1.400 1_556 S
C1804 H1789 0.960 . S
C1804 H1790 0.960 . S
C1804 H1791 0.960 . S
C1804 C1803 1.524 . S
C1805 C1802 1.403 1_554 S
C1805 C1806 1.324 1_565 S
C1805 C1809 1.495 . S
C1806 C1805 1.324 1_545 S
C1806 C1807 1.444 . S
C1806 C1808 1.498 . S
C1807 H1801 0.930 . S
C1807 C1803 1.400 1_554 S
C1807 C1806 1.444 . S
C1808 C1806 1.498 . S
C1808 C1810 1.381 . S
C1808 C1814 1.383 . S
C1809 C1805 1.495 . S
C1809 H1815 0.959 . S
C1809 H1816 0.961 . S
C1809 H1817 0.960 . S
C1810 C1808 1.381 . S
C1810 C1811 1.394 . S
C1810 H1818 0.930 . S
C1811 C1810 1.394 . S
C1811 C1812 1.383 . S
C1811 H1819 0.929 . S
C1812 C1811 1.383 . S
C1812 C1813 1.377 . S
C1813 H1797 0.930 . S
C1813 C1812 1.377 . S
C1813 C1814 1.379 . S
C1814 H1798 0.931 1_545 S
C1814 C1808 1.383 . S
C1814 C1813 1.379 . S
H1815 C1809 0.959 . S
H1816 C1809 0.961 . S
H1817 C1809 0.960 . S
H1818 C1810 0.930 . S
H1819 C1811 0.929 . S
H1820 C1828 0.929 . S
H1821 C1830 0.930 . S
H1822 C1832 0.930 . S
H1823 C1835 0.929 . S
H1824 C1838 0.930 . S
H1825 C1840 0.960 . S
H1826 C1840 0.960 . S
H1827 C1840 0.960 . S
C1828 H1820 0.929 . S
C1828 C1829 1.377 . S
C1828 C1830 1.384 . S
C1829 C1828 1.377 . S
C1829 C1835 1.390 . S
C1830 H1821 0.930 . S
C1830 C1828 1.384 . S
C1830 C1831 1.372 . S
C1831 C1830 1.372 . S
C1831 C1832 1.400 . S
C1831 C1836 1.490 . S
C1832 H1822 0.930 . S
C1832 C1831 1.400 . S
C1832 C1835 1.386 . S
H1833 C1849 0.930 . S
H1834 C1850 0.931 . S
C1835 H1823 0.929 . S
C1835 C1829 1.390 . S
C1835 C1832 1.386 . S
C1836 C1831 1.490 . S
C1836 C1838 1.395 . S
C1836 C1839 1.403 . S
H1837 C1843 0.930 . S
C1838 H1824 0.930 . S
C1838 C1836 1.395 . S
C1838 C1841 1.403 . S
C1839 C1836 1.403 . S
C1839 C1840 1.524 . S
C1839 C1843 1.400 . S
C1840 H1825 0.960 . S
C1840 H1826 0.960 . S
C1840 H1827 0.960 . S
C1840 C1839 1.524 . S
C1841 C1838 1.403 . S
C1841 C1842 1.392 . S
C1841 C1845 1.495 . S
C1842 C1841 1.392 . S
C1842 C1843 1.385 . S
C1842 C1844 1.478 . S
C1843 H1837 0.930 . S
C1843 C1839 1.400 . S
C1843 C1842 1.385 . S
C1844 C1842 1.478 . S
C1844 C1846 1.381 . S
C1844 C1850 1.383 . S
C1845 C1841 1.495 . S
C1845 H1851 0.959 . S
C1845 H1852 0.961 . S
C1845 H1853 0.960 . S
C1846 C1844 1.381 . S
C1846 C1847 1.394 . S
C1846 H1854 0.930 . S
C1847 C1846 1.394 . S
C1847 C1848 1.383 . S
C1847 H1855 0.929 . S
C1848 C1847 1.383 . S
C1848 C1849 1.377 . S
C1849 H1833 0.930 . S
C1849 C1848 1.377 . S
C1849 C1850 1.379 . S
C1850 H1834 0.931 . S
C1850 C1844 1.383 . S
C1850 C1849 1.379 . S
H1851 C1845 0.959 . S
H1852 C1845 0.961 . S
H1853 C1845 0.960 . S
H1854 C1846 0.930 . S
H1855 C1847 0.929 . S
H1856 C1864 0.929 . S
H1857 C1866 0.930 . S
H1858 C1868 0.930 . S
H1859 C1871 0.929 . S
H1860 C1874 0.930 . S
H1861 C1876 0.960 . S
H1862 C1876 0.960 . S
H1863 C1876 0.960 . S
C1864 H1856 0.929 . S
C1864 C1865 1.377 . S
C1864 C1866 1.384 . S
C1865 C1864 1.377 . S
C1865 C1871 1.390 . S
C1866 H1857 0.930 . S
C1866 C1864 1.384 . S
C1866 C1867 1.372 . S
C1867 C1866 1.372 . S
C1867 C1868 1.400 . S
C1867 C1872 1.490 . S
C1868 H1858 0.930 . S
C1868 C1867 1.400 . S
C1868 C1871 1.386 . S
H1869 C1885 0.930 . S
H1870 C1886 0.931 . S
C1871 H1859 0.929 . S
C1871 C1865 1.390 . S
C1871 C1868 1.386 . S
C1872 C1867 1.490 . S
C1872 C1874 1.395 . S
C1872 C1875 1.403 . S
H1873 C1879 0.930 . S
C1874 H1860 0.930 . S
C1874 C1872 1.395 . S
C1874 C1877 1.403 1_655 S
C1875 C1872 1.403 . S
C1875 C1876 1.524 . S
C1875 C1879 1.400 1_655 S
C1876 H1861 0.960 . S
C1876 H1862 0.960 . S
C1876 H1863 0.960 . S
C1876 C1875 1.524 . S
C1877 C1874 1.403 1_455 S
C1877 C1878 1.392 . S
C1877 C1881 1.495 . S
C1878 C1877 1.392 . S
C1878 C1879 1.385 . S
C1878 C1880 1.478 . S
C1879 H1873 0.930 . S
C1879 C1875 1.400 1_455 S
C1879 C1878 1.385 . S
C1880 C1878 1.478 . S
C1880 C1882 1.381 . S
C1880 C1886 1.383 . S
C1881 C1877 1.495 . S
C1881 H1887 0.959 . S
C1881 H1888 0.961 . S
C1881 H1889 0.960 . S
C1882 C1880 1.381 . S
C1882 C1883 1.394 . S
C1882 H1890 0.930 . S
C1883 C1882 1.394 . S
C1883 C1884 1.383 . S
C1883 H1891 0.929 . S
C1884 C1883 1.383 . S
C1884 C1885 1.377 . S
C1885 H1869 0.930 . S
C1885 C1884 1.377 . S
C1885 C1886 1.379 . S
C1886 H1870 0.931 . S
C1886 C1880 1.383 . S
C1886 C1885 1.379 . S
H1887 C1881 0.959 . S
H1888 C1881 0.961 . S
H1889 C1881 0.960 . S
H1890 C1882 0.930 . S
H1891 C1883 0.929 . S
H1892 C1900 0.929 . S
H1893 C1902 0.930 . S
H1894 C1904 0.930 . S
H1895 C1907 0.929 . S
H1896 C1910 0.930 . S
H1897 C1912 0.960 . S
H1898 C1912 0.960 . S
H1899 C1912 0.960 . S
C1900 H1892 0.929 . S
C1900 C1901 1.377 . S
C1900 C1902 1.384 . S
C1901 C1900 1.377 . S
C1901 C1907 1.390 . S
C1902 H1893 0.930 . S
C1902 C1900 1.384 . S
C1902 C1903 1.372 . S
C1903 C1902 1.372 . S
C1903 C1904 1.400 . S
C1903 C1908 1.490 . S
C1904 H1894 0.930 . S
C1904 C1903 1.400 . S
C1904 C1907 1.386 . S
H1905 C1921 0.930 . S
H1906 C1922 0.931 . S
C1907 H1895 0.929 . S
C1907 C1901 1.390 . S
C1907 C1904 1.386 . S
C1908 C1903 1.490 . S
C1908 C1910 1.395 . S
C1908 C1911 1.403 . S
H1909 C1915 0.930 . S
C1910 H1896 0.930 . S
C1910 C1908 1.395 . S
C1910 C1913 1.403 . S
C1911 C1908 1.403 . S
C1911 C1912 1.524 . S
C1911 C1915 1.400 . S
C1912 H1897 0.960 . S
C1912 H1898 0.960 . S
C1912 H1899 0.960 . S
C1912 C1911 1.524 . S
C1913 C1910 1.403 . S
C1913 C1914 1.392 . S
C1913 C1917 1.495 . S
C1914 C1913 1.392 . S
C1914 C1915 1.385 . S
C1914 C1916 1.478 . S
C1915 H1909 0.930 . S
C1915 C1911 1.400 . S
C1915 C1914 1.385 . S
C1916 C1914 1.478 . S
C1916 C1918 1.381 . S
C1916 C1922 1.383 . S
C1917 C1913 1.495 . S
C1917 H1923 0.959 . S
C1917 H1924 0.961 . S
C1917 H1925 0.960 . S
C1918 C1916 1.381 . S
C1918 C1919 1.394 . S
C1918 H1926 0.930 . S
C1919 C1918 1.394 . S
C1919 C1920 1.383 . S
C1919 H1927 0.929 . S
C1920 C1919 1.383 . S
C1920 C1921 1.377 . S
C1921 H1905 0.930 . S
C1921 C1920 1.377 . S
C1921 C1922 1.379 . S
C1922 H1906 0.931 . S
C1922 C1916 1.383 . S
C1922 C1921 1.379 . S
H1923 C1917 0.959 . S
H1924 C1917 0.961 . S
H1925 C1917 0.960 . S
H1926 C1918 0.930 . S
H1927 C1919 0.929 . S
H1928 C1936 0.929 . S
H1929 C1938 0.930 . S
H1930 C1940 0.930 . S
H1931 C1943 0.929 . S
H1932 C1946 0.930 . S
H1933 C1948 0.960 . S
H1934 C1948 0.960 . S
H1935 C1948 0.960 . S
C1936 H1928 0.929 . S
C1936 C1937 1.377 . S
C1936 C1938 1.384 . S
C1937 C1936 1.377 . S
C1937 C1943 1.390 . S
C1938 H1929 0.930 . S
C1938 C1936 1.384 . S
C1938 C1939 1.372 . S
C1939 C1938 1.372 . S
C1939 C1940 1.400 . S
C1939 C1944 1.490 . S
C1940 H1930 0.930 . S
C1940 C1939 1.400 . S
C1940 C1943 1.386 . S
H1941 C1957 0.930 . S
H1942 C1958 0.931 . S
C1943 H1931 0.929 . S
C1943 C1937 1.390 . S
C1943 C1940 1.386 . S
C1944 C1939 1.490 . S
C1944 C1946 1.395 . S
C1944 C1947 1.403 . S
H1945 C1951 0.930 . S
C1946 H1932 0.930 . S
C1946 C1944 1.395 . S
C1946 C1949 1.403 . S
C1947 C1944 1.403 . S
C1947 C1948 1.524 . S
C1947 C1951 1.400 . S
C1948 H1933 0.960 . S
C1948 H1934 0.960 . S
C1948 H1935 0.960 . S
C1948 C1947 1.524 . S
C1949 C1946 1.403 . S
C1949 C1950 1.392 . S
C1949 C1953 1.495 . S
C1950 C1949 1.392 . S
C1950 C1951 1.385 . S
C1950 C1952 1.478 . S
C1951 H1945 0.930 . S
C1951 C1947 1.400 . S
C1951 C1950 1.385 . S
C1952 C1950 1.478 . S
C1952 C1954 1.381 . S
C1952 C1958 1.383 . S
C1953 C1949 1.495 . S
C1953 H1959 0.959 . S
C1953 H1960 0.961 . S
C1953 H1961 0.960 . S
C1954 C1952 1.381 . S
C1954 C1955 1.394 . S
C1954 H1962 0.930 . S
C1955 C1954 1.394 . S
C1955 C1956 1.383 . S
C1955 H1963 0.929 . S
C1956 C1955 1.383 . S
C1956 C1957 1.377 . S
C1957 H1941 0.930 . S
C1957 C1956 1.377 . S
C1957 C1958 1.379 . S
C1958 H1942 0.931 . S
C1958 C1952 1.383 . S
C1958 C1957 1.379 . S
H1959 C1953 0.959 . S
H1960 C1953 0.961 . S
H1961 C1953 0.960 . S
H1962 C1954 0.930 . S
H1963 C1955 0.929 . S
H1964 C1972 0.929 . S
H1965 C1974 0.930 . S
H1966 C1976 0.930 . S
H1967 C1979 0.929 . S
H1968 C1982 0.930 . S
H1969 C1984 0.960 . S
H1970 C1984 0.960 . S
H1971 C1984 0.960 . S
C1972 H1964 0.929 . S
C1972 C1973 1.377 . S
C1972 C1974 1.384 . S
C1973 C1972 1.377 . S
C1973 C1979 1.390 . S
C1974 H1965 0.930 . S
C1974 C1972 1.384 . S
C1974 C1975 1.372 . S
C1975 C1974 1.372 . S
C1975 C1976 1.400 . S
C1975 C1980 1.490 . S
C1976 H1966 0.930 . S
C1976 C1975 1.400 . S
C1976 C1979 1.386 . S
H1977 C1993 0.930 . S
H1978 C1994 0.931 . S
C1979 H1967 0.929 . S
C1979 C1973 1.390 . S
C1979 C1976 1.386 . S
C1980 C1975 1.490 . S
C1980 C1982 1.395 . S
C1980 C1983 1.403 . S
H1981 C1987 0.930 . S
C1982 H1968 0.930 . S
C1982 C1980 1.395 . S
C1982 C1985 1.403 . S
C1983 C1980 1.403 . S
C1983 C1984 1.524 . S
C1983 C1987 1.400 . S
C1984 H1969 0.960 . S
C1984 H1970 0.960 . S
C1984 H1971 0.960 . S
C1984 C1983 1.524 . S
C1985 C1982 1.403 . S
C1985 C1986 1.392 . S
C1985 C1989 1.495 . S
C1986 C1985 1.392 . S
C1986 C1987 1.385 . S
C1986 C1988 1.478 . S
C1987 H1981 0.930 . S
C1987 C1983 1.400 . S
C1987 C1986 1.385 . S
C1988 C1986 1.478 . S
C1988 C1990 1.381 . S
C1988 C1994 1.383 . S
C1989 C1985 1.495 . S
C1989 H1995 0.959 . S
C1989 H1996 0.961 . S
C1989 H1997 0.960 . S
C1990 C1988 1.381 . S
C1990 C1991 1.394 . S
C1990 H1998 0.930 . S
C1991 C1990 1.394 . S
C1991 C1992 1.383 . S
C1991 H1999 0.929 . S
C1992 C1991 1.383 . S
C1992 C1993 1.377 . S
C1993 H1977 0.930 . S
C1993 C1992 1.377 . S
C1993 C1994 1.379 . S
C1994 H1978 0.931 . S
C1994 C1988 1.383 . S
C1994 C1993 1.379 . S
H1995 C1989 0.959 . S
H1996 C1989 0.961 . S
H1997 C1989 0.960 . S
H1998 C1990 0.930 . S
H1999 C1991 0.929 . S
H2000 C2008 0.929 . S
H2001 C2010 0.930 . S
H2002 C2012 0.930 . S
H2003 C2015 0.929 . S
H2004 C2018 0.930 . S
H2005 C2020 0.960 . S
H2006 C2020 0.960 . S
H2007 C2020 0.960 . S
C2008 H2000 0.929 . S
C2008 C2009 1.377 . S
C2008 C2010 1.384 . S
C2009 C2008 1.377 . S
C2009 C2015 1.390 . S
C2010 H2001 0.930 . S
C2010 C2008 1.384 . S
C2010 C2011 1.372 . S
C2011 C2010 1.372 . S
C2011 C2012 1.400 . S
C2011 C2016 1.490 . S
C2012 H2002 0.930 . S
C2012 C2011 1.400 . S
C2012 C2015 1.386 . S
H2013 C2029 0.930 . S
H2014 C2030 0.931 . S
C2015 H2003 0.929 . S
C2015 C2009 1.390 . S
C2015 C2012 1.386 . S
C2016 C2011 1.490 . S
C2016 C2018 1.395 . S
C2016 C2019 1.403 . S
H2017 C2023 0.930 . S
C2018 H2004 0.930 . S
C2018 C2016 1.395 . S
C2018 C2021 1.403 1_655 S
C2019 C2016 1.403 . S
C2019 C2020 1.524 . S
C2019 C2023 1.400 1_655 S
C2020 H2005 0.960 . S
C2020 H2006 0.960 . S
C2020 H2007 0.960 . S
C2020 C2019 1.524 . S
C2021 C2018 1.403 1_455 S
C2021 C2022 1.392 . S
C2021 C2025 1.495 . S
C2022 C2021 1.392 . S
C2022 C2023 1.385 . S
C2022 C2024 1.478 . S
C2023 H2017 0.930 . S
C2023 C2019 1.400 1_455 S
C2023 C2022 1.385 . S
C2024 C2022 1.478 . S
C2024 C2026 1.381 . S
C2024 C2030 1.383 . S
C2025 C2021 1.495 . S
C2025 H2031 0.959 . S
C2025 H2032 0.961 . S
C2025 H2033 0.960 . S
C2026 C2024 1.381 . S
C2026 C2027 1.394 . S
C2026 H2034 0.930 . S
C2027 C2026 1.394 . S
C2027 C2028 1.383 . S
C2027 H2035 0.929 . S
C2028 C2027 1.383 . S
C2028 C2029 1.377 . S
C2029 H2013 0.930 . S
C2029 C2028 1.377 . S
C2029 C2030 1.379 . S
C2030 H2014 0.931 . S
C2030 C2024 1.383 . S
C2030 C2029 1.379 . S
H2031 C2025 0.959 . S
H2032 C2025 0.961 . S
H2033 C2025 0.960 . S
H2034 C2026 0.930 . S
H2035 C2027 0.929 . S
H2036 C2044 0.929 . S
H2037 C2046 0.930 . S
H2038 C2048 0.930 . S
H2039 C2051 0.929 . S
H2040 C2054 0.930 . S
H2041 C2056 0.960 . S
H2042 C2056 0.960 . S
H2043 C2056 0.960 . S
C2044 H2036 0.929 . S
C2044 C2045 1.377 . S
C2044 C2046 1.384 . S
C2045 C2044 1.377 . S
C2045 C2051 1.390 . S
C2046 H2037 0.930 . S
C2046 C2044 1.384 . S
C2046 C2047 1.372 . S
C2047 C2046 1.372 . S
C2047 C2048 1.400 . S
C2047 C2052 1.490 . S
C2048 H2038 0.930 . S
C2048 C2047 1.400 . S
C2048 C2051 1.386 . S
H2049 C2065 0.930 . S
H2050 C2066 0.931 . S
C2051 H2039 0.929 . S
C2051 C2045 1.390 . S
C2051 C2048 1.386 . S
C2052 C2047 1.490 . S
C2052 C2054 1.395 . S
C2052 C2055 1.403 . S
H2053 C2059 0.930 . S
C2054 H2040 0.930 . S
C2054 C2052 1.395 . S
C2054 C2057 1.403 . S
C2055 C2052 1.403 . S
C2055 C2056 1.524 . S
C2055 C2059 1.400 . S
C2056 H2041 0.960 . S
C2056 H2042 0.960 . S
C2056 H2043 0.960 . S
C2056 C2055 1.524 . S
C2057 C2054 1.403 . S
C2057 C2058 1.392 . S
C2057 C2061 1.495 . S
C2058 C2057 1.392 . S
C2058 C2059 1.385 . S
C2058 C2060 1.478 . S
C2059 H2053 0.930 . S
C2059 C2055 1.400 . S
C2059 C2058 1.385 . S
C2060 C2058 1.478 . S
C2060 C2062 1.381 . S
C2060 C2066 1.383 . S
C2061 C2057 1.495 . S
C2061 H2067 0.959 . S
C2061 H2068 0.961 . S
C2061 H2069 0.960 . S
C2062 C2060 1.381 . S
C2062 C2063 1.394 . S
C2062 H2070 0.930 . S
C2063 C2062 1.394 . S
C2063 C2064 1.383 . S
C2063 H2071 0.929 . S
C2064 C2063 1.383 . S
C2064 C2065 1.377 . S
C2065 H2049 0.930 . S
C2065 C2064 1.377 . S
C2065 C2066 1.379 . S
C2066 H2050 0.931 . S
C2066 C2060 1.383 . S
C2066 C2065 1.379 . S
H2067 C2061 0.959 . S
H2068 C2061 0.961 . S
H2069 C2061 0.960 . S
H2070 C2062 0.930 . S
H2071 C2063 0.929 . S
H2072 C2080 0.929 . S
H2073 C2082 0.930 . S
H2074 C2084 0.930 . S
H2075 C2087 0.929 . S
H2076 C2090 0.930 . S
H2077 C2092 0.960 . S
H2078 C2092 0.960 . S
H2079 C2092 0.960 . S
C2080 H2072 0.929 . S
C2080 C2081 1.377 . S
C2080 C2082 1.384 . S
C2081 C2080 1.377 . S
C2081 C2087 1.390 . S
C2082 H2073 0.930 . S
C2082 C2080 1.384 . S
C2082 C2083 1.372 . S
C2083 C2082 1.372 . S
C2083 C2084 1.400 . S
C2083 C2088 1.490 . S
C2084 H2074 0.930 . S
C2084 C2083 1.400 . S
C2084 C2087 1.386 . S
H2085 C2101 0.930 . S
H2086 C2102 0.931 . S
C2087 H2075 0.929 . S
C2087 C2081 1.390 . S
C2087 C2084 1.386 . S
C2088 C2083 1.490 . S
C2088 C2090 1.395 . S
C2088 C2091 1.403 . S
H2089 C2095 0.930 . S
C2090 H2076 0.930 . S
C2090 C2088 1.395 . S
C2090 C2093 1.403 . S
C2091 C2088 1.403 . S
C2091 C2092 1.524 . S
C2091 C2095 1.400 . S
C2092 H2077 0.960 . S
C2092 H2078 0.960 . S
C2092 H2079 0.960 . S
C2092 C2091 1.524 . S
C2093 C2090 1.403 . S
C2093 C2094 1.392 . S
C2093 C2097 1.495 . S
C2094 C2093 1.392 . S
C2094 C2095 1.385 . S
C2094 C2096 1.478 . S
C2095 H2089 0.930 . S
C2095 C2091 1.400 . S
C2095 C2094 1.385 . S
C2096 C2094 1.478 . S
C2096 C2098 1.381 . S
C2096 C2102 1.383 . S
C2097 C2093 1.495 . S
C2097 H2103 0.959 . S
C2097 H2104 0.961 . S
C2097 H2105 0.960 . S
C2098 C2096 1.381 . S
C2098 C2099 1.394 . S
C2098 H2106 0.930 . S
C2099 C2098 1.394 . S
C2099 C2100 1.383 . S
C2099 H2107 0.929 . S
C2100 C2099 1.383 . S
C2100 C2101 1.377 . S
C2101 H2085 0.930 . S
C2101 C2100 1.377 . S
C2101 C2102 1.379 . S
C2102 H2086 0.931 . S
C2102 C2096 1.383 . S
C2102 C2101 1.379 . S
H2103 C2097 0.959 . S
H2104 C2097 0.961 . S
H2105 C2097 0.960 . S
H2106 C2098 0.930 . S
H2107 C2099 0.929 . S
H2108 C2116 0.929 . S
H2109 C2118 0.930 . S
H2110 C2120 0.930 . S
H2111 C2123 0.929 . S
H2112 C2126 0.930 . S
H2113 C2128 0.960 . S
H2114 C2128 0.960 . S
H2115 C2128 0.960 . S
C2116 H2108 0.929 . S
C2116 C2117 1.377 . S
C2116 C2118 1.384 . S
C2117 C2116 1.377 . S
C2117 C2123 1.390 . S
C2118 H2109 0.930 . S
C2118 C2116 1.384 . S
C2118 C2119 1.372 . S
C2119 C2118 1.372 . S
C2119 C2120 1.400 . S
C2119 C2124 1.490 . S
C2120 H2110 0.930 . S
C2120 C2119 1.400 . S
C2120 C2123 1.386 . S
H2121 C2137 0.930 . S
H2122 C2138 0.931 . S
C2123 H2111 0.929 . S
C2123 C2117 1.390 . S
C2123 C2120 1.386 . S
C2124 C2119 1.490 . S
C2124 C2126 1.395 . S
C2124 C2127 1.403 . S
H2125 C2131 0.930 . S
C2126 H2112 0.930 . S
C2126 C2124 1.395 . S
C2126 C2129 1.403 . S
C2127 C2124 1.403 . S
C2127 C2128 1.524 . S
C2127 C2131 1.400 . S
C2128 H2113 0.960 . S
C2128 H2114 0.960 . S
C2128 H2115 0.960 . S
C2128 C2127 1.524 . S
C2129 C2126 1.403 . S
C2129 C2130 1.392 . S
C2129 C2133 1.495 . S
C2130 C2129 1.392 . S
C2130 C2131 1.385 . S
C2130 C2132 1.478 . S
C2131 H2125 0.930 . S
C2131 C2127 1.400 . S
C2131 C2130 1.385 . S
C2132 C2130 1.478 . S
C2132 C2134 1.381 . S
C2132 C2138 1.383 . S
C2133 C2129 1.495 . S
C2133 H2139 0.959 . S
C2133 H2140 0.961 . S
C2133 H2141 0.960 . S
C2134 C2132 1.381 . S
C2134 C2135 1.394 . S
C2134 H2142 0.930 . S
C2135 C2134 1.394 . S
C2135 C2136 1.383 . S
C2135 H2143 0.929 . S
C2136 C2135 1.383 . S
C2136 C2137 1.377 . S
C2137 H2121 0.930 . S
C2137 C2136 1.377 . S
C2137 C2138 1.379 . S
C2138 H2122 0.931 . S
C2138 C2132 1.383 . S
C2138 C2137 1.379 . S
H2139 C2133 0.959 . S
H2140 C2133 0.961 . S
H2141 C2133 0.960 . S
H2142 C2134 0.930 . S
H2143 C2135 0.929 . S
H2144 C2152 0.929 . S
H2145 C2154 0.930 . S
H2146 C2156 0.930 . S
H2147 C2159 0.929 . S
H2148 C2162 0.930 . S
H2149 C2164 0.960 . S
H2150 C2164 0.960 . S
H2151 C2164 0.960 . S
C2152 H2144 0.929 . S
C2152 C2153 1.377 . S
C2152 C2154 1.384 . S
C2153 C2152 1.377 . S
C2153 C2159 1.390 . S
C2154 H2145 0.930 . S
C2154 C2152 1.384 . S
C2154 C2155 1.372 . S
C2155 C2154 1.372 . S
C2155 C2156 1.400 . S
C2155 C2160 1.490 . S
C2156 H2146 0.930 . S
C2156 C2155 1.400 . S
C2156 C2159 1.386 . S
H2157 C2173 0.930 . S
H2158 C2174 0.931 . S
C2159 H2147 0.929 . S
C2159 C2153 1.390 . S
C2159 C2156 1.386 . S
C2160 C2155 1.490 . S
C2160 C2162 1.395 . S
C2160 C2163 1.403 . S
H2161 C2167 0.930 . S
C2162 H2148 0.930 . S
C2162 C2160 1.395 . S
C2162 C2165 1.403 . S
C2163 C2160 1.403 . S
C2163 C2164 1.524 . S
C2163 C2167 1.400 . S
C2164 H2149 0.960 . S
C2164 H2150 0.960 . S
C2164 H2151 0.960 . S
C2164 C2163 1.524 . S
C2165 C2162 1.403 . S
C2165 C2166 1.392 . S
C2165 C2169 1.495 . S
C2166 C2165 1.392 . S
C2166 C2167 1.385 . S
C2166 C2168 1.478 . S
C2167 H2161 0.930 . S
C2167 C2163 1.400 . S
C2167 C2166 1.385 . S
C2168 C2166 1.478 . S
C2168 C2170 1.381 . S
C2168 C2174 1.383 . S
C2169 C2165 1.495 . S
C2169 H2175 0.959 . S
C2169 H2176 0.961 . S
C2169 H2177 0.960 . S
C2170 C2168 1.381 . S
C2170 C2171 1.394 . S
C2170 H2178 0.930 . S
C2171 C2170 1.394 . S
C2171 C2172 1.383 . S
C2171 H2179 0.929 . S
C2172 C2171 1.383 . S
C2172 C2173 1.377 . S
C2173 H2157 0.930 . S
C2173 C2172 1.377 . S
C2173 C2174 1.379 . S
C2174 H2158 0.931 . S
C2174 C2168 1.383 . S
C2174 C2173 1.379 . S
H2175 C2169 0.959 . S
H2176 C2169 0.961 . S
H2177 C2169 0.960 . S
H2178 C2170 0.930 . S
H2179 C2171 0.929 . S
H2180 C2188 0.929 . S
H2181 C2190 0.930 . S
H2182 C2192 0.930 . S
H2183 C2195 0.929 . S
H2184 C2198 0.930 . S
H2185 C2200 0.960 . S
H2186 C2200 0.960 . S
H2187 C2200 0.960 . S
C2188 H2180 0.929 . S
C2188 C2189 1.377 . S
C2188 C2190 1.384 . S
C2189 C2188 1.377 . S
C2189 C2195 1.390 . S
C2190 H2181 0.930 . S
C2190 C2188 1.384 . S
C2190 C2191 1.372 . S
C2191 C2190 1.372 . S
C2191 C2192 1.400 . S
C2191 C2196 1.490 . S
C2192 H2182 0.930 . S
C2192 C2191 1.400 . S
C2192 C2195 1.386 . S
H2193 C2209 0.930 . S
H2194 C2210 0.931 . S
C2195 H2183 0.929 . S
C2195 C2189 1.390 . S
C2195 C2192 1.386 . S
C2196 C2191 1.490 . S
C2196 C2198 1.395 . S
C2196 C2199 1.403 . S
H2197 C2203 0.930 . S
C2198 H2184 0.930 . S
C2198 C2196 1.395 . S
C2198 C2201 1.403 . S
C2199 C2196 1.403 . S
C2199 C2200 1.524 . S
C2199 C2203 1.400 . S
C2200 H2185 0.960 . S
C2200 H2186 0.960 . S
C2200 H2187 0.960 . S
C2200 C2199 1.524 . S
C2201 C2198 1.403 . S
C2201 C2202 1.392 . S
C2201 C2205 1.495 . S
C2202 C2201 1.392 . S
C2202 C2203 1.385 . S
C2202 C2204 1.478 . S
C2203 H2197 0.930 . S
C2203 C2199 1.400 . S
C2203 C2202 1.385 . S
C2204 C2202 1.478 . S
C2204 C2206 1.381 . S
C2204 C2210 1.383 . S
C2205 C2201 1.495 . S
C2205 H2211 0.959 . S
C2205 H2212 0.961 . S
C2205 H2213 0.960 . S
C2206 C2204 1.381 . S
C2206 C2207 1.394 . S
C2206 H2214 0.930 . S
C2207 C2206 1.394 . S
C2207 C2208 1.383 . S
C2207 H2215 0.929 . S
C2208 C2207 1.383 . S
C2208 C2209 1.377 . S
C2209 H2193 0.930 . S
C2209 C2208 1.377 . S
C2209 C2210 1.379 . S
C2210 H2194 0.931 . S
C2210 C2204 1.383 . S
C2210 C2209 1.379 . S
H2211 C2205 0.959 . S
H2212 C2205 0.961 . S
H2213 C2205 0.960 . S
H2214 C2206 0.930 . S
H2215 C2207 0.929 . S
H2216 C2224 0.929 . S
H2217 C2226 0.930 . S
H2218 C2228 0.930 . S
H2219 C2231 0.929 . S
H2220 C2234 0.930 . S
H2221 C2236 0.960 . S
H2222 C2236 0.960 . S
H2223 C2236 0.960 . S
C2224 H2216 0.929 . S
C2224 C2225 1.377 . S
C2224 C2226 1.384 . S
C2225 C2224 1.377 . S
C2225 C2231 1.390 . S
C2226 H2217 0.930 . S
C2226 C2224 1.384 . S
C2226 C2227 1.372 . S
C2227 C2226 1.372 . S
C2227 C2228 1.400 . S
C2227 C2232 1.490 . S
C2228 H2218 0.930 . S
C2228 C2227 1.400 . S
C2228 C2231 1.386 . S
H2229 C2245 0.930 . S
H2230 C2246 0.931 . S
C2231 H2219 0.929 . S
C2231 C2225 1.390 . S
C2231 C2228 1.386 . S
C2232 C2227 1.490 . S
C2232 C2234 1.395 . S
C2232 C2235 1.403 . S
H2233 C2239 0.930 . S
C2234 H2220 0.930 . S
C2234 C2232 1.395 . S
C2234 C2237 1.403 . S
C2235 C2232 1.403 . S
C2235 C2236 1.524 . S
C2235 C2239 1.400 . S
C2236 H2221 0.960 . S
C2236 H2222 0.960 . S
C2236 H2223 0.960 . S
C2236 C2235 1.524 . S
C2237 C2234 1.403 . S
C2237 C2238 1.392 . S
C2237 C2241 1.495 . S
C2238 C2237 1.392 . S
C2238 C2239 1.385 . S
C2238 C2240 1.478 . S
C2239 H2233 0.930 . S
C2239 C2235 1.400 . S
C2239 C2238 1.385 . S
C2240 C2238 1.478 . S
C2240 C2242 1.381 . S
C2240 C2246 1.383 . S
C2241 C2237 1.495 . S
C2241 H2247 0.959 . S
C2241 H2248 0.961 . S
C2241 H2249 0.960 . S
C2242 C2240 1.381 . S
C2242 C2243 1.394 . S
C2242 H2250 0.930 . S
C2243 C2242 1.394 . S
C2243 C2244 1.383 . S
C2243 H2251 0.929 . S
C2244 C2243 1.383 . S
C2244 C2245 1.377 . S
C2245 H2229 0.930 . S
C2245 C2244 1.377 . S
C2245 C2246 1.379 . S
C2246 H2230 0.931 . S
C2246 C2240 1.383 . S
C2246 C2245 1.379 . S
H2247 C2241 0.959 . S
H2248 C2241 0.961 . S
H2249 C2241 0.960 . S
H2250 C2242 0.930 . S
H2251 C2243 0.929 . S
H2252 C2260 0.929 . S
H2253 C2262 0.930 . S
H2254 C2264 0.930 . S
H2255 C2267 0.929 . S
H2256 C2270 0.930 . S
H2257 C2272 0.960 . S
H2258 C2272 0.960 . S
H2259 C2272 0.960 . S
C2260 H2252 0.929 . S
C2260 C2261 1.377 . S
C2260 C2262 1.384 . S
C2261 C2260 1.377 . S
C2261 C2267 1.390 . S
C2262 H2253 0.930 . S
C2262 C2260 1.384 . S
C2262 C2263 1.372 . S
C2263 C2262 1.372 . S
C2263 C2264 1.400 . S
C2263 C2268 1.490 . S
C2264 H2254 0.930 . S
C2264 C2263 1.400 . S
C2264 C2267 1.386 . S
H2265 C2281 0.930 . S
H2266 C2282 0.931 . S
C2267 H2255 0.929 . S
C2267 C2261 1.390 . S
C2267 C2264 1.386 . S
C2268 C2263 1.490 . S
C2268 C2270 1.395 . S
C2268 C2271 1.403 . S
H2269 C2275 0.930 . S
C2270 H2256 0.930 . S
C2270 C2268 1.395 . S
C2270 C2273 1.403 . S
C2271 C2268 1.403 . S
C2271 C2272 1.524 . S
C2271 C2275 1.400 . S
C2272 H2257 0.960 . S
C2272 H2258 0.960 . S
C2272 H2259 0.960 . S
C2272 C2271 1.524 . S
C2273 C2270 1.403 . S
C2273 C2274 1.392 . S
C2273 C2277 1.495 . S
C2274 C2273 1.392 . S
C2274 C2275 1.385 . S
C2274 C2276 1.478 . S
C2275 H2269 0.930 . S
C2275 C2271 1.400 . S
C2275 C2274 1.385 . S
C2276 C2274 1.478 . S
C2276 C2278 1.381 . S
C2276 C2282 1.383 . S
C2277 C2273 1.495 . S
C2277 H2283 0.959 . S
C2277 H2284 0.961 . S
C2277 H2285 0.960 . S
C2278 C2276 1.381 . S
C2278 C2279 1.394 . S
C2278 H2286 0.930 . S
C2279 C2278 1.394 . S
C2279 C2280 1.383 . S
C2279 H2287 0.929 . S
C2280 C2279 1.383 . S
C2280 C2281 1.377 . S
C2281 H2265 0.930 . S
C2281 C2280 1.377 . S
C2281 C2282 1.379 . S
C2282 H2266 0.931 . S
C2282 C2276 1.383 . S
C2282 C2281 1.379 . S
H2283 C2277 0.959 . S
H2284 C2277 0.961 . S
H2285 C2277 0.960 . S
H2286 C2278 0.930 . S
H2287 C2279 0.929 . S
H2288 C2296 0.929 1_545 S
H2289 C2298 0.930 1_545 S
H2290 C2300 0.930 . S
H2291 C2303 0.929 . S
H2292 C2306 0.927 . S
H2293 C2308 0.960 . S
H2294 C2308 0.960 . S
H2295 C2308 0.960 . S
C2296 H2288 0.929 1_565 S
C2296 C2297 1.377 . S
C2296 C2298 1.384 . S
C2297 C2296 1.377 . S
C2297 C2303 1.390 . S
C2298 H2289 0.930 1_565 S
C2298 C2296 1.384 . S
C2298 C2299 1.372 . S
C2299 C2298 1.372 . S
C2299 C2300 1.400 . S
C2299 C2304 1.490 . S
C2300 H2290 0.930 . S
C2300 C2299 1.400 . S
C2300 C2303 1.386 . S
H2301 C2317 0.930 . S
H2302 C2318 0.931 . S
C2303 H2291 0.929 . S
C2303 C2297 1.390 . S
C2303 C2300 1.386 . S
C2304 C2299 1.490 . S
C2304 C2306 1.395 . S
C2304 C2307 1.403 . S
H2305 C2311 0.930 . S
C2306 H2292 0.927 . S
C2306 C2304 1.395 . S
C2306 C2309 1.403 . S
C2307 C2304 1.403 . S
C2307 C2308 1.524 . S
C2307 C2311 1.400 . S
C2308 H2293 0.960 . S
C2308 H2294 0.960 . S
C2308 H2295 0.960 . S
C2308 C2307 1.524 . S
C2309 C2306 1.403 . S
C2309 C2310 1.392 . S
C2309 C2313 1.495 1_565 S
C2310 C2309 1.392 . S
C2310 C2311 1.385 . S
C2310 C2312 1.478 . S
C2311 H2305 0.930 . S
C2311 C2307 1.400 . S
C2311 C2310 1.385 . S
C2312 C2310 1.478 . S
C2312 C2314 1.416 . S
C2312 C2318 1.383 . S
C2313 C2309 1.495 1_545 S
C2313 H2319 0.959 . S
C2313 H2320 0.961 1_545 S
C2313 H2321 0.960 . S
C2314 C2312 1.416 . S
C2314 C2315 1.393 . S
C2314 H2322 0.893 1_565 S
C2315 C2314 1.393 . S
C2315 C2316 1.466 . S
C2315 H2323 0.853 1_565 S
C2316 C2315 1.466 . S
C2316 C2317 1.377 . S
C2317 H2301 0.930 . S
C2317 C2316 1.377 . S
C2317 C2318 1.379 . S
C2318 H2302 0.931 . S
C2318 C2312 1.383 . S
C2318 C2317 1.379 . S
H2319 C2313 0.959 . S
H2320 C2313 0.961 1_565 S
H2321 C2313 0.960 . S
H2322 C2314 0.893 1_545 S
H2323 C2315 0.853 1_545 S
H2324 C2332 0.929 . S
H2325 C2334 0.930 . S
H2326 C2336 0.930 1_565 S
H2327 C2339 0.929 1_565 S
H2328 C2342 0.930 . S
H2329 C2344 0.985 . S
H2330 C2344 0.960 . S
H2331 C2344 0.960 1_565 S
C2332 H2324 0.929 . S
C2332 C2333 1.377 . S
C2332 C2334 1.384 . S
C2333 C2332 1.377 . S
C2333 C2339 1.390 . S
C2334 H2325 0.930 . S
C2334 C2332 1.384 . S
C2334 C2335 1.372 . S
C2335 C2334 1.372 . S
C2335 C2336 1.400 . S
C2335 C2340 1.490 . S
C2336 H2326 0.930 1_545 S
C2336 C2335 1.400 . S
C2336 C2339 1.386 . S
H2337 C2353 0.930 1_565 S
H2338 C2354 0.931 1_565 S
C2339 H2327 0.929 1_545 S
C2339 C2333 1.390 . S
C2339 C2336 1.386 . S
C2340 C2335 1.490 . S
C2340 C2342 1.395 . S
C2340 C2343 1.403 . S
H2341 C2347 0.930 . S
C2342 H2328 0.930 . S
C2342 C2340 1.395 . S
C2342 C2345 1.403 1_455 S
C2343 C2340 1.403 . S
C2343 C2344 1.524 . S
C2343 C2347 1.400 1_455 S
C2344 H2329 0.985 . S
C2344 H2330 0.960 . S
C2344 H2331 0.960 1_545 S
C2344 C2343 1.524 . S
C2345 C2342 1.403 1_655 S
C2345 C2346 1.392 . S
C2345 C2349 1.495 . S
C2346 C2345 1.392 . S
C2346 C2347 1.385 . S
C2346 C2348 1.478 . S
C2347 H2341 0.930 . S
C2347 C2343 1.400 1_655 S
C2347 C2346 1.385 . S
C2348 C2346 1.478 . S
C2348 C2350 1.381 . S
C2348 C2354 1.383 . S
C2349 C2345 1.495 . S
C2349 H2355 0.959 . S
C2349 H2356 0.961 . S
C2349 H2357 0.960 . S
C2350 C2348 1.381 . S
C2350 C2351 1.394 . S
C2350 H2358 0.930 . S
C2351 C2350 1.394 . S
C2351 C2352 1.383 . S
C2351 H2359 0.929 . S
C2352 C2351 1.383 . S
C2352 C2353 1.377 . S
C2353 H2337 0.930 1_545 S
C2353 C2352 1.377 . S
C2353 C2354 1.379 . S
C2354 H2338 0.931 1_545 S
C2354 C2348 1.383 . S
C2354 C2353 1.379 . S
H2355 C2349 0.959 . S
H2356 C2349 0.961 . S
H2357 C2349 0.960 . S
H2358 C2350 0.930 . S
H2359 C2351 0.929 . S
H2360 C2368 0.929 . S
H2361 C2370 0.930 . S
H2362 C2372 0.930 1_565 S
H2363 C2375 0.929 1_565 S
H2364 C2378 0.930 . S
H2365 C2380 0.960 . S
H2366 C2380 0.960 . S
H2367 C2380 0.991 . S
C2368 H2360 0.929 . S
C2368 C2369 1.377 . S
C2368 C2370 1.384 . S
C2369 C2368 1.377 . S
C2369 C2375 1.390 . S
C2370 H2361 0.930 . S
C2370 C2368 1.384 . S
C2370 C2371 1.372 . S
C2371 C2370 1.372 . S
C2371 C2372 1.400 . S
C2371 C2376 1.490 . S
C2372 H2362 0.930 1_545 S
C2372 C2371 1.400 . S
C2372 C2375 1.386 . S
H2373 C2389 0.930 1_565 S
H2374 C2390 0.931 1_565 S
C2375 H2363 0.929 1_545 S
C2375 C2369 1.390 . S
C2375 C2372 1.386 . S
C2376 C2371 1.490 . S
C2376 C2378 1.395 . S
C2376 C2379 1.403 . S
H2377 C2383 0.930 . S
C2378 H2364 0.930 . S
C2378 C2376 1.395 . S
C2378 C2381 1.403 . S
C2379 C2376 1.403 . S
C2379 C2380 1.524 . S
C2379 C2383 1.400 . S
C2380 H2365 0.960 . S
C2380 H2366 0.960 . S
C2380 H2367 0.991 . S
C2380 C2379 1.524 . S
C2381 C2378 1.403 . S
C2381 C2382 1.392 . S
C2381 C2385 1.495 . S
C2382 C2381 1.392 . S
C2382 C2383 1.385 . S
C2382 C2384 1.478 . S
C2383 H2377 0.930 . S
C2383 C2379 1.400 . S
C2383 C2382 1.385 . S
C2384 C2382 1.478 . S
C2384 C2386 1.381 . S
C2384 C2390 1.383 . S
C2385 C2381 1.495 . S
C2385 H2391 0.959 . S
C2385 H2392 0.961 . S
C2385 H2393 0.960 . S
C2386 C2384 1.381 . S
C2386 C2387 1.394 . S
C2386 H2394 0.930 . S
C2387 C2386 1.394 . S
C2387 C2388 1.383 . S
C2387 H2395 0.929 . S
C2388 C2387 1.383 . S
C2388 C2389 1.377 . S
C2389 H2373 0.930 1_545 S
C2389 C2388 1.377 . S
C2389 C2390 1.379 . S
C2390 H2374 0.931 1_545 S
C2390 C2384 1.383 . S
C2390 C2389 1.379 . S
H2391 C2385 0.959 . S
H2392 C2385 0.961 . S
H2393 C2385 0.960 . S
H2394 C2386 0.930 . S
H2395 C2387 0.929 . S
H2396 C2404 0.929 1_545 S
H2397 C2406 0.930 1_545 S
H2398 C2408 0.930 . S
H2399 C2411 0.929 . S
H2400 C2414 0.930 . S
H2401 C2416 0.960 . S
H2402 C2416 0.960 . S
H2403 C2416 0.960 . S
C2404 H2396 0.929 1_565 S
C2404 C2405 1.377 . S
C2404 C2406 1.384 . S
C2405 C2404 1.377 . S
C2405 C2411 1.390 . S
C2406 H2397 0.930 1_565 S
C2406 C2404 1.384 . S
C2406 C2407 1.372 . S
C2407 C2406 1.372 . S
C2407 C2408 1.400 . S
C2407 C2412 1.490 . S
C2408 H2398 0.930 . S
C2408 C2407 1.400 . S
C2408 C2411 1.386 . S
H2409 C2425 0.930 . S
H2410 C2426 0.931 . S
C2411 H2399 0.929 . S
C2411 C2405 1.390 . S
C2411 C2408 1.386 . S
C2412 C2407 1.490 . S
C2412 C2414 1.395 . S
C2412 C2415 1.403 . S
H2413 C2419 0.930 . S
C2414 H2400 0.930 . S
C2414 C2412 1.395 . S
C2414 C2417 1.403 1_455 S
C2415 C2412 1.403 . S
C2415 C2416 1.524 . S
C2415 C2419 1.400 1_455 S
C2416 H2401 0.960 . S
C2416 H2402 0.960 . S
C2416 H2403 0.960 . S
C2416 C2415 1.524 . S
C2417 C2414 1.403 1_655 S
C2417 C2418 1.392 . S
C2417 C2421 1.495 1_565 S
C2418 C2417 1.392 . S
C2418 C2419 1.385 . S
C2418 C2420 1.478 . S
C2419 H2413 0.930 . S
C2419 C2415 1.400 1_655 S
C2419 C2418 1.385 . S
C2420 C2418 1.478 . S
C2420 C2422 1.414 . S
C2420 C2426 1.383 . S
C2421 C2417 1.495 1_545 S
C2421 H2427 0.959 . S
C2421 H2428 0.961 1_545 S
C2421 H2429 0.960 . S
C2422 C2420 1.414 . S
C2422 C2423 1.394 . S
C2422 H2430 0.896 1_565 S
C2423 C2422 1.394 . S
C2423 C2424 1.457 . S
C2423 H2431 0.860 1_565 S
C2424 C2423 1.457 . S
C2424 C2425 1.377 . S
C2425 H2409 0.930 . S
C2425 C2424 1.377 . S
C2425 C2426 1.379 . S
C2426 H2410 0.931 . S
C2426 C2420 1.383 . S
C2426 C2425 1.379 . S
H2427 C2421 0.959 . S
H2428 C2421 0.961 1_565 S
H2429 C2421 0.960 . S
H2430 C2422 0.896 1_545 S
H2431 C2423 0.860 1_545 S
H2432 C2440 0.929 . S
H2433 C2442 0.930 . S
H2434 C2444 0.930 . S
H2435 C2447 0.929 . S
H2436 C2450 0.930 . S
H2437 C2452 0.960 . S
H2438 C2452 0.960 . S
H2439 C2452 0.960 . S
C2440 H2432 0.929 . S
C2440 C2441 1.377 . S
C2440 C2442 1.384 . S
C2441 C2440 1.377 . S
C2441 C2447 1.390 . S
C2442 H2433 0.930 . S
C2442 C2440 1.384 . S
C2442 C2443 1.372 . S
C2443 C2442 1.372 . S
C2443 C2444 1.400 . S
C2443 C2448 1.490 . S
C2444 H2434 0.930 . S
C2444 C2443 1.400 . S
C2444 C2447 1.386 . S
H2445 C2461 0.930 . S
H2446 C2462 0.931 . S
C2447 H2435 0.929 . S
C2447 C2441 1.390 . S
C2447 C2444 1.386 . S
C2448 C2443 1.490 . S
C2448 C2450 1.395 . S
C2448 C2451 1.403 . S
H2449 C2455 0.930 . S
C2450 H2436 0.930 . S
C2450 C2448 1.395 . S
C2450 C2453 1.403 . S
C2451 C2448 1.403 . S
C2451 C2452 1.524 . S
C2451 C2455 1.400 . S
C2452 H2437 0.960 . S
C2452 H2438 0.960 . S
C2452 H2439 0.960 . S
C2452 C2451 1.524 . S
C2453 C2450 1.403 . S
C2453 C2454 1.392 . S
C2453 C2457 1.495 . S
C2454 C2453 1.392 . S
C2454 C2455 1.385 . S
C2454 C2456 1.478 . S
C2455 H2449 0.930 . S
C2455 C2451 1.400 . S
C2455 C2454 1.385 . S
C2456 C2454 1.478 . S
C2456 C2458 1.381 . S
C2456 C2462 1.383 . S
C2457 C2453 1.495 . S
C2457 H2463 0.959 . S
C2457 H2464 0.961 . S
C2457 H2465 0.960 . S
C2458 C2456 1.381 . S
C2458 C2459 1.394 . S
C2458 H2466 0.930 . S
C2459 C2458 1.394 . S
C2459 C2460 1.383 . S
C2459 H2467 0.929 . S
C2460 C2459 1.383 . S
C2460 C2461 1.377 . S
C2461 H2445 0.930 . S
C2461 C2460 1.377 . S
C2461 C2462 1.379 . S
C2462 H2446 0.931 . S
C2462 C2456 1.383 . S
C2462 C2461 1.379 . S
H2463 C2457 0.959 . S
H2464 C2457 0.961 . S
H2465 C2457 0.960 . S
H2466 C2458 0.930 . S
H2467 C2459 0.929 . S
H2468 C2476 0.929 . S
H2469 C2478 0.930 . S
H2470 C2480 0.930 . S
H2471 C2483 0.929 . S
H2472 C2486 0.930 . S
H2473 C2488 0.960 . S
H2474 C2488 0.960 . S
H2475 C2488 0.960 . S
C2476 H2468 0.929 . S
C2476 C2477 1.377 . S
C2476 C2478 1.384 . S
C2477 C2476 1.377 . S
C2477 C2483 1.390 . S
C2478 H2469 0.930 . S
C2478 C2476 1.384 . S
C2478 C2479 1.372 . S
C2479 C2478 1.372 . S
C2479 C2480 1.400 . S
C2479 C2484 1.490 . S
C2480 H2470 0.930 . S
C2480 C2479 1.400 . S
C2480 C2483 1.386 . S
H2481 C2497 0.930 . S
H2482 C2498 0.931 . S
C2483 H2471 0.929 . S
C2483 C2477 1.390 . S
C2483 C2480 1.386 . S
C2484 C2479 1.490 . S
C2484 C2486 1.395 . S
C2484 C2487 1.403 . S
H2485 C2491 0.930 . S
C2486 H2472 0.930 . S
C2486 C2484 1.395 . S
C2486 C2489 1.403 . S
C2487 C2484 1.403 . S
C2487 C2488 1.524 . S
C2487 C2491 1.400 . S
C2488 H2473 0.960 . S
C2488 H2474 0.960 . S
C2488 H2475 0.960 . S
C2488 C2487 1.524 . S
C2489 C2486 1.403 . S
C2489 C2490 1.392 . S
C2489 C2493 1.495 . S
C2490 C2489 1.392 . S
C2490 C2491 1.385 . S
C2490 C2492 1.478 . S
C2491 H2485 0.930 . S
C2491 C2487 1.400 . S
C2491 C2490 1.385 . S
C2492 C2490 1.478 . S
C2492 C2494 1.381 . S
C2492 C2498 1.383 . S
C2493 C2489 1.495 . S
C2493 H2499 0.959 . S
C2493 H2500 0.961 . S
C2493 H2501 0.960 . S
C2494 C2492 1.381 . S
C2494 C2495 1.394 . S
C2494 H2502 0.930 . S
C2495 C2494 1.394 . S
C2495 C2496 1.383 . S
C2495 H2503 0.929 . S
C2496 C2495 1.383 . S
C2496 C2497 1.377 . S
C2497 H2481 0.930 . S
C2497 C2496 1.377 . S
C2497 C2498 1.379 . S
C2498 H2482 0.931 . S
C2498 C2492 1.383 . S
C2498 C2497 1.379 . S
H2499 C2493 0.959 . S
H2500 C2493 0.961 . S
H2501 C2493 0.960 . S
H2502 C2494 0.930 . S
H2503 C2495 0.929 . S
H2504 C2512 0.929 . S
H2505 C2514 0.930 . S
H2506 C2516 0.930 . S
H2507 C2519 0.929 . S
H2508 C2522 0.930 . S
H2509 C2524 0.960 . S
H2510 C2524 0.960 . S
H2511 C2524 0.960 . S
C2512 H2504 0.929 . S
C2512 C2513 1.377 . S
C2512 C2514 1.384 . S
C2513 C2512 1.377 . S
C2513 C2519 1.390 . S
C2514 H2505 0.930 . S
C2514 C2512 1.384 . S
C2514 C2515 1.372 . S
C2515 C2514 1.372 . S
C2515 C2516 1.400 . S
C2515 C2520 1.490 . S
C2516 H2506 0.930 . S
C2516 C2515 1.400 . S
C2516 C2519 1.386 . S
H2517 C2533 0.930 . S
H2518 C2534 0.931 . S
C2519 H2507 0.929 . S
C2519 C2513 1.390 . S
C2519 C2516 1.386 . S
C2520 C2515 1.490 . S
C2520 C2522 1.395 . S
C2520 C2523 1.403 . S
H2521 C2527 0.930 . S
C2522 H2508 0.930 . S
C2522 C2520 1.395 . S
C2522 C2525 1.403 . S
C2523 C2520 1.403 . S
C2523 C2524 1.524 . S
C2523 C2527 1.400 . S
C2524 H2509 0.960 . S
C2524 H2510 0.960 . S
C2524 H2511 0.960 . S
C2524 C2523 1.524 . S
C2525 C2522 1.403 . S
C2525 C2526 1.392 . S
C2525 C2529 1.495 . S
C2526 C2525 1.392 . S
C2526 C2527 1.385 . S
C2526 C2528 1.478 . S
C2527 H2521 0.930 . S
C2527 C2523 1.400 . S
C2527 C2526 1.385 . S
C2528 C2526 1.478 . S
C2528 C2530 1.381 . S
C2528 C2534 1.383 . S
C2529 C2525 1.495 . S
C2529 H2535 0.959 . S
C2529 H2536 0.961 . S
C2529 H2537 0.960 . S
C2530 C2528 1.381 . S
C2530 C2531 1.394 . S
C2530 H2538 0.930 . S
C2531 C2530 1.394 . S
C2531 C2532 1.383 . S
C2531 H2539 0.929 . S
C2532 C2531 1.383 . S
C2532 C2533 1.377 . S
C2533 H2517 0.930 . S
C2533 C2532 1.377 . S
C2533 C2534 1.379 . S
C2534 H2518 0.931 . S
C2534 C2528 1.383 . S
C2534 C2533 1.379 . S
H2535 C2529 0.959 . S
H2536 C2529 0.961 . S
H2537 C2529 0.960 . S
H2538 C2530 0.930 . S
H2539 C2531 0.929 . S
H2540 C2548 0.929 . S
H2541 C2550 0.930 . S
H2542 C2552 0.930 . S
H2543 C2555 0.929 . S
H2544 C2558 0.930 . S
H2545 C2560 0.960 . S
H2546 C2560 0.960 . S
H2547 C2560 0.960 . S
C2548 H2540 0.929 . S
C2548 C2549 1.377 . S
C2548 C2550 1.384 . S
C2549 C2548 1.377 . S
C2549 C2555 1.390 . S
C2550 H2541 0.930 . S
C2550 C2548 1.384 . S
C2550 C2551 1.372 . S
C2551 C2550 1.372 . S
C2551 C2552 1.400 . S
C2551 C2556 1.490 . S
C2552 H2542 0.930 . S
C2552 C2551 1.400 . S
C2552 C2555 1.386 . S
H2553 C2569 0.930 . S
H2554 C2570 0.931 . S
C2555 H2543 0.929 . S
C2555 C2549 1.390 . S
C2555 C2552 1.386 . S
C2556 C2551 1.490 . S
C2556 C2558 1.395 . S
C2556 C2559 1.403 . S
H2557 C2563 0.930 . S
C2558 H2544 0.930 . S
C2558 C2556 1.395 . S
C2558 C2561 1.403 . S
C2559 C2556 1.403 . S
C2559 C2560 1.524 . S
C2559 C2563 1.400 . S
C2560 H2545 0.960 . S
C2560 H2546 0.960 . S
C2560 H2547 0.960 . S
C2560 C2559 1.524 . S
C2561 C2558 1.403 . S
C2561 C2562 1.392 . S
C2561 C2565 1.495 . S
C2562 C2561 1.392 . S
C2562 C2563 1.385 . S
C2562 C2564 1.478 . S
C2563 H2557 0.930 . S
C2563 C2559 1.400 . S
C2563 C2562 1.385 . S
C2564 C2562 1.478 . S
C2564 C2566 1.381 . S
C2564 C2570 1.383 . S
C2565 C2561 1.495 . S
C2565 H2571 0.959 . S
C2565 H2572 0.961 . S
C2565 H2573 0.960 . S
C2566 C2564 1.381 . S
C2566 C2567 1.394 . S
C2566 H2574 0.930 . S
C2567 C2566 1.394 . S
C2567 C2568 1.383 . S
C2567 H2575 0.929 . S
C2568 C2567 1.383 . S
C2568 C2569 1.377 . S
C2569 H2553 0.930 . S
C2569 C2568 1.377 . S
C2569 C2570 1.379 . S
C2570 H2554 0.931 . S
C2570 C2564 1.383 . S
C2570 C2569 1.379 . S
H2571 C2565 0.959 . S
H2572 C2565 0.961 . S
H2573 C2565 0.960 . S
H2574 C2566 0.930 . S
H2575 C2567 0.929 . S
H2576 C2584 0.929 . S
H2577 C2586 0.930 . S
H2578 C2588 0.930 . S
H2579 C2591 0.929 . S
H2580 C2594 0.930 . S
H2581 C2596 0.960 . S
H2582 C2596 0.960 . S
H2583 C2596 0.960 . S
C2584 H2576 0.929 . S
C2584 C2585 1.377 . S
C2584 C2586 1.384 . S
C2585 C2584 1.377 . S
C2585 C2591 1.390 . S
C2586 H2577 0.930 . S
C2586 C2584 1.384 . S
C2586 C2587 1.372 . S
C2587 C2586 1.372 . S
C2587 C2588 1.400 . S
C2587 C2592 1.490 . S
C2588 H2578 0.930 . S
C2588 C2587 1.400 . S
C2588 C2591 1.386 . S
H2589 C2605 0.930 . S
H2590 C2606 0.931 . S
C2591 H2579 0.929 . S
C2591 C2585 1.390 . S
C2591 C2588 1.386 . S
C2592 C2587 1.490 . S
C2592 C2594 1.395 . S
C2592 C2595 1.403 . S
H2593 C2599 0.930 . S
C2594 H2580 0.930 . S
C2594 C2592 1.395 . S
C2594 C2597 1.403 . S
C2595 C2592 1.403 . S
C2595 C2596 1.524 . S
C2595 C2599 1.400 . S
C2596 H2581 0.960 . S
C2596 H2582 0.960 . S
C2596 H2583 0.960 . S
C2596 C2595 1.524 . S
C2597 C2594 1.403 . S
C2597 C2598 1.392 . S
C2597 C2601 1.495 . S
C2598 C2597 1.392 . S
C2598 C2599 1.385 . S
C2598 C2600 1.478 . S
C2599 H2593 0.930 . S
C2599 C2595 1.400 . S
C2599 C2598 1.385 . S
C2600 C2598 1.478 . S
C2600 C2602 1.381 . S
C2600 C2606 1.383 . S
C2601 C2597 1.495 . S
C2601 H2607 0.959 . S
C2601 H2608 0.961 . S
C2601 H2609 0.960 . S
C2602 C2600 1.381 . S
C2602 C2603 1.394 . S
C2602 H2610 0.930 . S
C2603 C2602 1.394 . S
C2603 C2604 1.383 . S
C2603 H2611 0.929 . S
C2604 C2603 1.383 . S
C2604 C2605 1.377 . S
C2605 H2589 0.930 . S
C2605 C2604 1.377 . S
C2605 C2606 1.379 . S
C2606 H2590 0.931 . S
C2606 C2600 1.383 . S
C2606 C2605 1.379 . S
H2607 C2601 0.959 . S
H2608 C2601 0.961 . S
H2609 C2601 0.960 . S
H2610 C2602 0.930 . S
H2611 C2603 0.929 . S
H2612 C2620 0.929 . S
H2613 C2622 0.930 . S
H2614 C2624 0.930 . S
H2615 C2627 0.929 . S
H2616 C2630 0.930 . S
H2617 C2632 0.960 . S
H2618 C2632 0.960 . S
H2619 C2632 0.960 . S
C2620 H2612 0.929 . S
C2620 C2621 1.377 . S
C2620 C2622 1.384 . S
C2621 C2620 1.377 . S
C2621 C2627 1.390 . S
C2622 H2613 0.930 . S
C2622 C2620 1.384 . S
C2622 C2623 1.372 . S
C2623 C2622 1.372 . S
C2623 C2624 1.400 . S
C2623 C2628 1.490 . S
C2624 H2614 0.930 . S
C2624 C2623 1.400 . S
C2624 C2627 1.386 . S
H2625 C2641 0.930 . S
H2626 C2642 0.931 . S
C2627 H2615 0.929 . S
C2627 C2621 1.390 . S
C2627 C2624 1.386 . S
C2628 C2623 1.490 . S
C2628 C2630 1.395 . S
C2628 C2631 1.403 . S
H2629 C2635 0.930 . S
C2630 H2616 0.930 . S
C2630 C2628 1.395 . S
C2630 C2633 1.403 . S
C2631 C2628 1.403 . S
C2631 C2632 1.524 . S
C2631 C2635 1.400 . S
C2632 H2617 0.960 . S
C2632 H2618 0.960 . S
C2632 H2619 0.960 . S
C2632 C2631 1.524 . S
C2633 C2630 1.403 . S
C2633 C2634 1.392 . S
C2633 C2637 1.495 . S
C2634 C2633 1.392 . S
C2634 C2635 1.385 . S
C2634 C2636 1.478 . S
C2635 H2629 0.930 . S
C2635 C2631 1.400 . S
C2635 C2634 1.385 . S
C2636 C2634 1.478 . S
C2636 C2638 1.381 . S
C2636 C2642 1.383 . S
C2637 C2633 1.495 . S
C2637 H2643 0.959 . S
C2637 H2644 0.961 . S
C2637 H2645 0.960 . S
C2638 C2636 1.381 . S
C2638 C2639 1.394 . S
C2638 H2646 0.930 . S
C2639 C2638 1.394 . S
C2639 C2640 1.383 . S
C2639 H2647 0.929 . S
C2640 C2639 1.383 . S
C2640 C2641 1.377 . S
C2641 H2625 0.930 . S
C2641 C2640 1.377 . S
C2641 C2642 1.379 . S
C2642 H2626 0.931 . S
C2642 C2636 1.383 . S
C2642 C2641 1.379 . S
H2643 C2637 0.959 . S
H2644 C2637 0.961 . S
H2645 C2637 0.960 . S
H2646 C2638 0.930 . S
H2647 C2639 0.929 . S
H2648 C2656 0.929 . S
H2649 C2658 0.930 . S
H2650 C2660 0.930 . S
H2651 C2663 0.929 . S
H2652 C2666 0.930 . S
H2653 C2668 0.960 . S
H2654 C2668 0.960 . S
H2655 C2668 0.960 . S
C2656 H2648 0.929 . S
C2656 C2657 1.377 . S
C2656 C2658 1.384 . S
C2657 C2656 1.377 . S
C2657 C2663 1.390 . S
C2658 H2649 0.930 . S
C2658 C2656 1.384 . S
C2658 C2659 1.372 . S
C2659 C2658 1.372 . S
C2659 C2660 1.400 . S
C2659 C2664 1.490 . S
C2660 H2650 0.930 . S
C2660 C2659 1.400 . S
C2660 C2663 1.386 . S
H2661 C2677 0.930 . S
H2662 C2678 0.931 . S
C2663 H2651 0.929 . S
C2663 C2657 1.390 . S
C2663 C2660 1.386 . S
C2664 C2659 1.490 . S
C2664 C2666 1.395 . S
C2664 C2667 1.403 . S
H2665 C2671 0.930 . S
C2666 H2652 0.930 . S
C2666 C2664 1.395 . S
C2666 C2669 1.403 . S
C2667 C2664 1.403 . S
C2667 C2668 1.524 . S
C2667 C2671 1.400 . S
C2668 H2653 0.960 . S
C2668 H2654 0.960 . S
C2668 H2655 0.960 . S
C2668 C2667 1.524 . S
C2669 C2666 1.403 . S
C2669 C2670 1.392 . S
C2669 C2673 1.495 . S
C2670 C2669 1.392 . S
C2670 C2671 1.385 . S
C2670 C2672 1.478 . S
C2671 H2665 0.930 . S
C2671 C2667 1.400 . S
C2671 C2670 1.385 . S
C2672 C2670 1.478 . S
C2672 C2674 1.381 . S
C2672 C2678 1.383 . S
C2673 C2669 1.495 . S
C2673 H2679 0.959 . S
C2673 H2680 0.961 . S
C2673 H2681 0.960 . S
C2674 C2672 1.381 . S
C2674 C2675 1.394 . S
C2674 H2682 0.930 . S
C2675 C2674 1.394 . S
C2675 C2676 1.383 . S
C2675 H2683 0.929 . S
C2676 C2675 1.383 . S
C2676 C2677 1.377 . S
C2677 H2661 0.930 . S
C2677 C2676 1.377 . S
C2677 C2678 1.379 . S
C2678 H2662 0.931 . S
C2678 C2672 1.383 . S
C2678 C2677 1.379 . S
H2679 C2673 0.959 . S
H2680 C2673 0.961 . S
H2681 C2673 0.960 . S
H2682 C2674 0.930 . S
H2683 C2675 0.929 . S
H2684 C2692 0.929 . S
H2685 C2694 0.930 . S
H2686 C2696 0.930 . S
H2687 C2699 0.929 . S
H2688 C2702 0.930 . S
H2689 C2704 0.960 . S
H2690 C2704 0.960 . S
H2691 C2704 0.960 . S
C2692 H2684 0.929 . S
C2692 C2693 1.377 . S
C2692 C2694 1.384 . S
C2693 C2692 1.377 . S
C2693 C2699 1.390 . S
C2694 H2685 0.930 . S
C2694 C2692 1.384 . S
C2694 C2695 1.372 . S
C2695 C2694 1.372 . S
C2695 C2696 1.400 . S
C2695 C2700 1.490 . S
C2696 H2686 0.930 . S
C2696 C2695 1.400 . S
C2696 C2699 1.386 . S
H2697 C2713 0.930 . S
H2698 C2714 0.931 . S
C2699 H2687 0.929 . S
C2699 C2693 1.390 . S
C2699 C2696 1.386 . S
C2700 C2695 1.490 . S
C2700 C2702 1.395 . S
C2700 C2703 1.403 . S
H2701 C2707 0.930 . S
C2702 H2688 0.930 . S
C2702 C2700 1.395 . S
C2702 C2705 1.403 . S
C2703 C2700 1.403 . S
C2703 C2704 1.524 . S
C2703 C2707 1.400 . S
C2704 H2689 0.960 . S
C2704 H2690 0.960 . S
C2704 H2691 0.960 . S
C2704 C2703 1.524 . S
C2705 C2702 1.403 . S
C2705 C2706 1.392 . S
C2705 C2709 1.495 . S
C2706 C2705 1.392 . S
C2706 C2707 1.385 . S
C2706 C2708 1.478 . S
C2707 H2701 0.930 . S
C2707 C2703 1.400 . S
C2707 C2706 1.385 . S
C2708 C2706 1.478 . S
C2708 C2710 1.381 . S
C2708 C2714 1.383 . S
C2709 C2705 1.495 . S
C2709 H2715 0.959 . S
C2709 H2716 0.961 . S
C2709 H2717 0.960 . S
C2710 C2708 1.381 . S
C2710 C2711 1.394 . S
C2710 H2718 0.930 . S
C2711 C2710 1.394 . S
C2711 C2712 1.383 . S
C2711 H2719 0.929 . S
C2712 C2711 1.383 . S
C2712 C2713 1.377 . S
C2713 H2697 0.930 . S
C2713 C2712 1.377 . S
C2713 C2714 1.379 . S
C2714 H2698 0.931 . S
C2714 C2708 1.383 . S
C2714 C2713 1.379 . S
H2715 C2709 0.959 . S
H2716 C2709 0.961 . S
H2717 C2709 0.960 . S
H2718 C2710 0.930 . S
H2719 C2711 0.929 . S
H2720 C2728 0.929 . S
H2721 C2730 0.930 . S
H2722 C2732 0.930 . S
H2723 C2735 0.929 . S
H2724 C2738 0.930 . S
H2725 C2740 0.960 . S
H2726 C2740 0.960 . S
H2727 C2740 0.960 . S
C2728 H2720 0.929 . S
C2728 C2729 1.377 . S
C2728 C2730 1.384 . S
C2729 C2728 1.377 . S
C2729 C2735 1.390 . S
C2730 H2721 0.930 . S
C2730 C2728 1.384 . S
C2730 C2731 1.372 . S
C2731 C2730 1.372 . S
C2731 C2732 1.400 . S
C2731 C2736 1.490 . S
C2732 H2722 0.930 . S
C2732 C2731 1.400 . S
C2732 C2735 1.386 . S
H2733 C2749 0.930 . S
H2734 C2750 0.931 . S
C2735 H2723 0.929 . S
C2735 C2729 1.390 . S
C2735 C2732 1.386 . S
C2736 C2731 1.490 . S
C2736 C2738 1.395 . S
C2736 C2739 1.403 . S
H2737 C2743 0.930 . S
C2738 H2724 0.930 . S
C2738 C2736 1.395 . S
C2738 C2741 1.403 . S
C2739 C2736 1.403 . S
C2739 C2740 1.524 . S
C2739 C2743 1.400 . S
C2740 H2725 0.960 . S
C2740 H2726 0.960 . S
C2740 H2727 0.960 . S
C2740 C2739 1.524 . S
C2741 C2738 1.403 . S
C2741 C2742 1.392 . S
C2741 C2745 1.495 . S
C2742 C2741 1.392 . S
C2742 C2743 1.385 . S
C2742 C2744 1.478 . S
C2743 H2737 0.930 . S
C2743 C2739 1.400 . S
C2743 C2742 1.385 . S
C2744 C2742 1.478 . S
C2744 C2746 1.381 . S
C2744 C2750 1.383 . S
C2745 C2741 1.495 . S
C2745 H2751 0.959 . S
C2745 H2752 0.961 . S
C2745 H2753 0.960 . S
C2746 C2744 1.381 . S
C2746 C2747 1.394 . S
C2746 H2754 0.930 . S
C2747 C2746 1.394 . S
C2747 C2748 1.383 . S
C2747 H2755 0.929 . S
C2748 C2747 1.383 . S
C2748 C2749 1.377 . S
C2749 H2733 0.930 . S
C2749 C2748 1.377 . S
C2749 C2750 1.379 . S
C2750 H2734 0.931 . S
C2750 C2744 1.383 . S
C2750 C2749 1.379 . S
H2751 C2745 0.959 . S
H2752 C2745 0.961 . S
H2753 C2745 0.960 . S
H2754 C2746 0.930 . S
H2755 C2747 0.929 . S
H2756 C2764 0.929 . S
H2757 C2766 0.930 . S
H2758 C2768 0.930 . S
H2759 C2771 0.929 . S
H2760 C2774 0.930 . S
H2761 C2776 0.960 . S
H2762 C2776 0.960 . S
H2763 C2776 0.960 . S
C2764 H2756 0.929 . S
C2764 C2765 1.377 . S
C2764 C2766 1.384 . S
C2765 C2764 1.377 . S
C2765 C2771 1.390 . S
C2766 H2757 0.930 . S
C2766 C2764 1.384 . S
C2766 C2767 1.372 . S
C2767 C2766 1.372 . S
C2767 C2768 1.400 . S
C2767 C2772 1.490 . S
C2768 H2758 0.930 . S
C2768 C2767 1.400 . S
C2768 C2771 1.386 . S
H2769 C2785 0.930 . S
H2770 C2786 0.931 . S
C2771 H2759 0.929 . S
C2771 C2765 1.390 . S
C2771 C2768 1.386 . S
C2772 C2767 1.490 . S
C2772 C2774 1.395 . S
C2772 C2775 1.403 . S
H2773 C2779 0.930 . S
C2774 H2760 0.930 . S
C2774 C2772 1.395 . S
C2774 C2777 1.403 . S
C2775 C2772 1.403 . S
C2775 C2776 1.524 . S
C2775 C2779 1.400 . S
C2776 H2761 0.960 . S
C2776 H2762 0.960 . S
C2776 H2763 0.960 . S
C2776 C2775 1.524 . S
C2777 C2774 1.403 . S
C2777 C2778 1.392 . S
C2777 C2781 1.495 . S
C2778 C2777 1.392 . S
C2778 C2779 1.385 . S
C2778 C2780 1.478 . S
C2779 H2773 0.930 . S
C2779 C2775 1.400 . S
C2779 C2778 1.385 . S
C2780 C2778 1.478 . S
C2780 C2782 1.381 . S
C2780 C2786 1.383 . S
C2781 C2777 1.495 . S
C2781 H2787 0.959 . S
C2781 H2788 0.961 . S
C2781 H2789 0.960 . S
C2782 C2780 1.381 . S
C2782 C2783 1.394 . S
C2782 H2790 0.930 . S
C2783 C2782 1.394 . S
C2783 C2784 1.383 . S
C2783 H2791 0.929 . S
C2784 C2783 1.383 . S
C2784 C2785 1.377 . S
C2785 H2769 0.930 . S
C2785 C2784 1.377 . S
C2785 C2786 1.379 . S
C2786 H2770 0.931 . S
C2786 C2780 1.383 . S
C2786 C2785 1.379 . S
H2787 C2781 0.959 . S
H2788 C2781 0.961 . S
H2789 C2781 0.960 . S
H2790 C2782 0.930 . S
H2791 C2783 0.929 . S
H2792 C2800 0.929 . S
H2793 C2802 0.930 . S
H2794 C2804 0.930 . S
H2795 C2807 0.929 . S
H2796 C2810 0.930 . S
H2797 C2812 0.960 . S
H2798 C2812 0.960 . S
H2799 C2812 0.960 . S
C2800 H2792 0.929 . S
C2800 C2801 1.377 . S
C2800 C2802 1.384 . S
C2801 C2800 1.377 . S
C2801 C2807 1.390 . S
C2802 H2793 0.930 . S
C2802 C2800 1.384 . S
C2802 C2803 1.372 . S
C2803 C2802 1.372 . S
C2803 C2804 1.400 . S
C2803 C2808 1.490 . S
C2804 H2794 0.930 . S
C2804 C2803 1.400 . S
C2804 C2807 1.386 . S
H2805 C2821 0.930 . S
H2806 C2822 0.931 . S
C2807 H2795 0.929 . S
C2807 C2801 1.390 . S
C2807 C2804 1.386 . S
C2808 C2803 1.490 . S
C2808 C2810 1.395 . S
C2808 C2811 1.403 . S
H2809 C2815 0.930 . S
C2810 H2796 0.930 . S
C2810 C2808 1.395 . S
C2810 C2813 1.403 . S
C2811 C2808 1.403 . S
C2811 C2812 1.524 . S
C2811 C2815 1.400 . S
C2812 H2797 0.960 . S
C2812 H2798 0.960 . S
C2812 H2799 0.960 . S
C2812 C2811 1.524 . S
C2813 C2810 1.403 . S
C2813 C2814 1.392 . S
C2813 C2817 1.495 . S
C2814 C2813 1.392 . S
C2814 C2815 1.385 . S
C2814 C2816 1.478 . S
C2815 H2809 0.930 . S
C2815 C2811 1.400 . S
C2815 C2814 1.385 . S
C2816 C2814 1.478 . S
C2816 C2818 1.381 . S
C2816 C2822 1.383 . S
C2817 C2813 1.495 . S
C2817 H2823 0.959 . S
C2817 H2824 0.961 . S
C2817 H2825 0.960 . S
C2818 C2816 1.381 . S
C2818 C2819 1.394 . S
C2818 H2826 0.930 . S
C2819 C2818 1.394 . S
C2819 C2820 1.383 . S
C2819 H2827 0.929 . S
C2820 C2819 1.383 . S
C2820 C2821 1.377 . S
C2821 H2805 0.930 . S
C2821 C2820 1.377 . S
C2821 C2822 1.379 . S
C2822 H2806 0.931 . S
C2822 C2816 1.383 . S
C2822 C2821 1.379 . S
H2823 C2817 0.959 . S
H2824 C2817 0.961 . S
H2825 C2817 0.960 . S
H2826 C2818 0.930 . S
H2827 C2819 0.929 . S
H2828 C2836 0.929 . S
H2829 C2838 0.930 . S
H2830 C2840 0.930 . S
H2831 C2843 0.929 . S
H2832 C2846 0.930 . S
H2833 C2848 0.960 . S
H2834 C2848 0.960 . S
H2835 C2848 0.960 . S
C2836 H2828 0.929 . S
C2836 C2837 1.377 . S
C2836 C2838 1.384 . S
C2837 C2836 1.377 . S
C2837 C2843 1.390 . S
C2838 H2829 0.930 . S
C2838 C2836 1.384 . S
C2838 C2839 1.372 . S
C2839 C2838 1.372 . S
C2839 C2840 1.400 . S
C2839 C2844 1.490 . S
C2840 H2830 0.930 . S
C2840 C2839 1.400 . S
C2840 C2843 1.386 . S
H2841 C2857 0.930 . S
H2842 C2858 0.931 . S
C2843 H2831 0.929 . S
C2843 C2837 1.390 . S
C2843 C2840 1.386 . S
C2844 C2839 1.490 . S
C2844 C2846 1.395 . S
C2844 C2847 1.403 . S
H2845 C2851 0.930 . S
C2846 H2832 0.930 . S
C2846 C2844 1.395 . S
C2846 C2849 1.403 . S
C2847 C2844 1.403 . S
C2847 C2848 1.524 . S
C2847 C2851 1.400 . S
C2848 H2833 0.960 . S
C2848 H2834 0.960 . S
C2848 H2835 0.960 . S
C2848 C2847 1.524 . S
C2849 C2846 1.403 . S
C2849 C2850 1.392 . S
C2849 C2853 1.495 . S
C2850 C2849 1.392 . S
C2850 C2851 1.385 . S
C2850 C2852 1.478 . S
C2851 H2845 0.930 . S
C2851 C2847 1.400 . S
C2851 C2850 1.385 . S
C2852 C2850 1.478 . S
C2852 C2854 1.381 . S
C2852 C2858 1.383 . S
C2853 C2849 1.495 . S
C2853 H2859 0.959 . S
C2853 H2860 0.961 . S
C2853 H2861 0.960 . S
C2854 C2852 1.381 . S
C2854 C2855 1.394 . S
C2854 H2862 0.930 . S
C2855 C2854 1.394 . S
C2855 C2856 1.383 . S
C2855 H2863 0.929 . S
C2856 C2855 1.383 . S
C2856 C2857 1.377 . S
C2857 H2841 0.930 . S
C2857 C2856 1.377 . S
C2857 C2858 1.379 . S
C2858 H2842 0.931 . S
C2858 C2852 1.383 . S
C2858 C2857 1.379 . S
H2859 C2853 0.959 . S
H2860 C2853 0.961 . S
H2861 C2853 0.960 . S
H2862 C2854 0.930 . S
H2863 C2855 0.929 . S
H2864 C2872 0.929 . S
H2865 C2874 0.930 . S
H2866 C2876 0.930 . S
H2867 C2879 0.929 . S
H2868 C2882 0.930 . S
H2869 C2884 0.960 . S
H2870 C2884 0.960 . S
H2871 C2884 0.960 . S
C2872 H2864 0.929 . S
C2872 C2873 1.377 . S
C2872 C2874 1.384 . S
C2873 C2872 1.377 . S
C2873 C2879 1.390 . S
C2874 H2865 0.930 . S
C2874 C2872 1.384 . S
C2874 C2875 1.372 . S
C2875 C2874 1.372 . S
C2875 C2876 1.400 . S
C2875 C2880 1.490 . S
C2876 H2866 0.930 . S
C2876 C2875 1.400 . S
C2876 C2879 1.386 . S
H2877 C2893 0.930 . S
H2878 C2894 0.931 . S
C2879 H2867 0.929 . S
C2879 C2873 1.390 . S
C2879 C2876 1.386 . S
C2880 C2875 1.490 . S
C2880 C2882 1.395 . S
C2880 C2883 1.403 . S
H2881 C2887 0.930 . S
C2882 H2868 0.930 . S
C2882 C2880 1.395 . S
C2882 C2885 1.403 . S
C2883 C2880 1.403 . S
C2883 C2884 1.524 . S
C2883 C2887 1.400 . S
C2884 H2869 0.960 . S
C2884 H2870 0.960 . S
C2884 H2871 0.960 . S
C2884 C2883 1.524 . S
C2885 C2882 1.403 . S
C2885 C2886 1.392 . S
C2885 C2889 1.495 . S
C2886 C2885 1.392 . S
C2886 C2887 1.385 . S
C2886 C2888 1.478 . S
C2887 H2881 0.930 . S
C2887 C2883 1.400 . S
C2887 C2886 1.385 . S
C2888 C2886 1.478 . S
C2888 C2890 1.381 . S
C2888 C2894 1.383 . S
C2889 C2885 1.495 . S
C2889 H2895 0.959 . S
C2889 H2896 0.961 . S
C2889 H2897 0.960 . S
C2890 C2888 1.381 . S
C2890 C2891 1.394 . S
C2890 H2898 0.930 . S
C2891 C2890 1.394 . S
C2891 C2892 1.383 . S
C2891 H2899 0.929 . S
C2892 C2891 1.383 . S
C2892 C2893 1.377 . S
C2893 H2877 0.930 . S
C2893 C2892 1.377 . S
C2893 C2894 1.379 . S
C2894 H2878 0.931 . S
C2894 C2888 1.383 . S
C2894 C2893 1.379 . S
H2895 C2889 0.959 . S
H2896 C2889 0.961 . S
H2897 C2889 0.960 . S
H2898 C2890 0.930 . S
H2899 C2891 0.929 . S
H2900 C2908 0.929 . S
H2901 C2910 0.930 . S
H2902 C2912 0.930 . S
H2903 C2915 0.929 . S
H2904 C2918 0.930 . S
H2905 C2920 0.960 . S
H2906 C2920 0.960 . S
H2907 C2920 0.960 . S
C2908 H2900 0.929 . S
C2908 C2909 1.377 . S
C2908 C2910 1.384 . S
C2909 C2908 1.377 . S
C2909 C2915 1.390 . S
C2910 H2901 0.930 . S
C2910 C2908 1.384 . S
C2910 C2911 1.372 . S
C2911 C2910 1.372 . S
C2911 C2912 1.400 . S
C2911 C2916 1.490 . S
C2912 H2902 0.930 . S
C2912 C2911 1.400 . S
C2912 C2915 1.386 . S
H2913 C2929 0.930 . S
H2914 C2930 0.931 . S
C2915 H2903 0.929 . S
C2915 C2909 1.390 . S
C2915 C2912 1.386 . S
C2916 C2911 1.490 . S
C2916 C2918 1.395 . S
C2916 C2919 1.403 . S
H2917 C2923 0.930 . S
C2918 H2904 0.930 . S
C2918 C2916 1.395 . S
C2918 C2921 1.403 . S
C2919 C2916 1.403 . S
C2919 C2920 1.524 . S
C2919 C2923 1.400 . S
C2920 H2905 0.960 . S
C2920 H2906 0.960 . S
C2920 H2907 0.960 . S
C2920 C2919 1.524 . S
C2921 C2918 1.403 . S
C2921 C2922 1.392 . S
C2921 C2925 1.495 . S
C2922 C2921 1.392 . S
C2922 C2923 1.385 . S
C2922 C2924 1.478 . S
C2923 H2917 0.930 . S
C2923 C2919 1.400 . S
C2923 C2922 1.385 . S
C2924 C2922 1.478 . S
C2924 C2926 1.381 . S
C2924 C2930 1.383 . S
C2925 C2921 1.495 . S
C2925 H2931 0.959 . S
C2925 H2932 0.961 . S
C2925 H2933 0.960 . S
C2926 C2924 1.381 . S
C2926 C2927 1.394 . S
C2926 H2934 0.930 . S
C2927 C2926 1.394 . S
C2927 C2928 1.383 . S
C2927 H2935 0.929 . S
C2928 C2927 1.383 . S
C2928 C2929 1.377 . S
C2929 H2913 0.930 . S
C2929 C2928 1.377 . S
C2929 C2930 1.379 . S
C2930 H2914 0.931 . S
C2930 C2924 1.383 . S
C2930 C2929 1.379 . S
H2931 C2925 0.959 . S
H2932 C2925 0.961 . S
H2933 C2925 0.960 . S
H2934 C2926 0.930 . S
H2935 C2927 0.929 . S
H2936 C2944 0.929 . S
H2937 C2946 0.930 . S
H2938 C2948 0.930 . S
H2939 C2951 0.929 . S
H2940 C2954 0.930 . S
H2941 C2956 0.960 . S
H2942 C2956 0.960 . S
H2943 C2956 0.960 . S
C2944 H2936 0.929 . S
C2944 C2945 1.377 . S
C2944 C2946 1.384 . S
C2945 C2944 1.377 . S
C2945 C2951 1.390 . S
C2946 H2937 0.930 . S
C2946 C2944 1.384 . S
C2946 C2947 1.372 . S
C2947 C2946 1.372 . S
C2947 C2948 1.400 . S
C2947 C2952 1.490 . S
C2948 H2938 0.930 . S
C2948 C2947 1.400 . S
C2948 C2951 1.386 . S
H2949 C2965 0.930 . S
H2950 C2966 0.931 . S
C2951 H2939 0.929 . S
C2951 C2945 1.390 . S
C2951 C2948 1.386 . S
C2952 C2947 1.490 . S
C2952 C2954 1.395 . S
C2952 C2955 1.403 . S
H2953 C2959 0.930 . S
C2954 H2940 0.930 . S
C2954 C2952 1.395 . S
C2954 C2957 1.403 . S
C2955 C2952 1.403 . S
C2955 C2956 1.524 . S
C2955 C2959 1.400 . S
C2956 H2941 0.960 . S
C2956 H2942 0.960 . S
C2956 H2943 0.960 . S
C2956 C2955 1.524 . S
C2957 C2954 1.403 . S
C2957 C2958 1.392 . S
C2957 C2961 1.495 . S
C2958 C2957 1.392 . S
C2958 C2959 1.385 . S
C2958 C2960 1.478 . S
C2959 H2953 0.930 . S
C2959 C2955 1.400 . S
C2959 C2958 1.385 . S
C2960 C2958 1.478 . S
C2960 C2962 1.381 . S
C2960 C2966 1.383 . S
C2961 C2957 1.495 . S
C2961 H2967 0.959 . S
C2961 H2968 0.961 . S
C2961 H2969 0.960 . S
C2962 C2960 1.381 . S
C2962 C2963 1.394 . S
C2962 H2970 0.930 . S
C2963 C2962 1.394 . S
C2963 C2964 1.383 . S
C2963 H2971 0.929 . S
C2964 C2963 1.383 . S
C2964 C2965 1.377 . S
C2965 H2949 0.930 . S
C2965 C2964 1.377 . S
C2965 C2966 1.379 . S
C2966 H2950 0.931 . S
C2966 C2960 1.383 . S
C2966 C2965 1.379 . S
H2967 C2961 0.959 . S
H2968 C2961 0.961 . S
H2969 C2961 0.960 . S
H2970 C2962 0.930 . S
H2971 C2963 0.929 . S
H2972 C2980 0.929 . S
H2973 C2982 0.930 . S
H2974 C2984 0.930 . S
H2975 C2987 0.929 . S
H2976 C2990 0.930 . S
H2977 C2992 0.960 . S
H2978 C2992 0.960 . S
H2979 C2992 0.960 . S
C2980 H2972 0.929 . S
C2980 C2981 1.377 . S
C2980 C2982 1.384 . S
C2981 C2980 1.377 . S
C2981 C2987 1.390 . S
C2982 H2973 0.930 . S
C2982 C2980 1.384 . S
C2982 C2983 1.372 . S
C2983 C2982 1.372 . S
C2983 C2984 1.400 . S
C2983 C2988 1.490 . S
C2984 H2974 0.930 . S
C2984 C2983 1.400 . S
C2984 C2987 1.386 . S
H2985 C3001 0.930 . S
H2986 C3002 0.931 . S
C2987 H2975 0.929 . S
C2987 C2981 1.390 . S
C2987 C2984 1.386 . S
C2988 C2983 1.490 . S
C2988 C2990 1.395 . S
C2988 C2991 1.403 . S
H2989 C2995 0.930 . S
C2990 H2976 0.930 . S
C2990 C2988 1.395 . S
C2990 C2993 1.403 . S
C2991 C2988 1.403 . S
C2991 C2992 1.524 . S
C2991 C2995 1.400 . S
C2992 H2977 0.960 . S
C2992 H2978 0.960 . S
C2992 H2979 0.960 . S
C2992 C2991 1.524 . S
C2993 C2990 1.403 . S
C2993 C2994 1.392 . S
C2993 C2997 1.495 . S
C2994 C2993 1.392 . S
C2994 C2995 1.385 . S
C2994 C2996 1.478 . S
C2995 H2989 0.930 . S
C2995 C2991 1.400 . S
C2995 C2994 1.385 . S
C2996 C2994 1.478 . S
C2996 C2998 1.381 . S
C2996 C3002 1.383 . S
C2997 C2993 1.495 . S
C2997 H3003 0.959 . S
C2997 H3004 0.961 . S
C2997 H3005 0.960 . S
C2998 C2996 1.381 . S
C2998 C2999 1.394 . S
C2998 H3006 0.930 . S
C2999 C2998 1.394 . S
C2999 C3000 1.383 . S
C2999 H3007 0.929 . S
C3000 C2999 1.383 . S
C3000 C3001 1.377 . S
C3001 H2985 0.930 . S
C3001 C3000 1.377 . S
C3001 C3002 1.379 . S
C3002 H2986 0.931 . S
C3002 C2996 1.383 . S
C3002 C3001 1.379 . S
H3003 C2997 0.959 . S
H3004 C2997 0.961 . S
H3005 C2997 0.960 . S
H3006 C2998 0.930 . S
H3007 C2999 0.929 . S
C1289 C162 2.074 . S
C1308 C2 2.079 . S
C1325 C202 2.171 . S
C1344 C42 2.160 . S
C1361 C82 2.073 . S
C1380 C242 2.079 . S
C1397 C122 2.168 . S
C1416 C282 2.171 . S
C1433 C482 1.962 . S
C1452 C322 1.943 . S
C1469 C522 2.062 . S
C1488 C362 2.078 . S
C1505 C402 1.964 . S
C1524 C562 1.973 . S
C1541 C602 2.053 . S
C1560 C442 2.029 . S
C1577 C642 1.899 . S
C1596 C802 1.895 . S
C1613 C842 2.082 . S
C1632 C682 2.067 . S
C1649 C722 1.899 . S
C1668 C882 1.892 . S
C1685 C922 2.079 . S
C1704 C762 2.074 . S
C1721 C962 1.806 . S
C1740 C1122 1.787 . S
C1757 C1162 1.968 . S
C1776 C1002 1.944 . S
C1793 C1042 1.806 . S
C1812 C1202 1.783 . S
C1829 C1242 1.974 . S
C1848 C1082 1.990 . S
C1865 C501 1.838 . S
C1884 C21 1.910 . S
C1901 C61 1.897 . S
C1920 C1181 1.846 . S
C1937 C581 1.838 . S
C1956 C101 1.912 . S
C1973 C141 1.900 . S
C1992 C1261 1.808 . S
C2009 C341 1.844 . S
C2028 C181 1.897 . S
C2045 C1021 1.837 . S
C2064 C221 1.887 . S
C2081 C261 1.906 . S
C2100 C421 1.859 . S
C2117 C1101 1.832 . S
C2136 C301 1.901 . S
C2153 C381 1.836 . S
C2172 C861 1.889 . S
C2189 C461 1.828 . S
C2208 C941 1.903 . S
C2225 C541 1.836 . S
C2244 C701 1.888 . S
C2261 C781 1.901 . S
C2280 C621 1.820 . S
C2297 C1141 1.716 . S
C2316 C661 1.778 . S
C2333 C1221 1.725 . S
C2352 C741 1.758 . S
C2369 C821 1.771 . S
C2388 C981 1.735 . S
C2405 C1061 1.716 . S
C2424 C901 1.777 . S
C2441 C935 1.769 . S
C2460 C15 1.760 . S
C2477 C55 1.675 . S
C2496 C815 1.682 . S
C2513 C95 1.766 . S
C2532 C855 1.750 . S
C2549 C895 1.686 . S
C2568 C135 1.665 . S
C2585 C175 1.769 . S
C2604 C695 1.765 . S
C2621 C215 1.672 . S
C2640 C735 1.664 . S
C2657 C775 1.772 . S
C2676 C255 1.775 . S
C2693 C655 1.689 . S
C2712 C295 1.680 . S
C2729 C1255 1.761 . S
C2748 C335 1.759 . S
C2765 C375 1.669 . S
C2784 C1135 1.664 . S
C2801 C1175 1.765 . S
C2820 C415 1.742 . S
C2837 C1215 1.684 . S
C2856 C455 1.642 . S
C2873 C495 1.764 . S
C2892 C1015 1.756 . S
C2909 C1055 1.679 . S
C2928 C535 1.676 . S
C2945 C1095 1.763 . S
C2964 C575 1.749 . S
C2981 C615 1.665 . S
C3000 C975 1.684 . S
