# Generated by pormake.
# Topology wgi, (5)-cn, num edge types: 1
# Building blocks:
#     Node 0, Type 0, BuildingBlock: XOMCOT_clean_sbu_0, # of connection points: 5
#     Node 1, Type 0, BuildingBlock: XOMCOT_clean_sbu_0, # of connection points: 5
#     Node 2, Type 0, BuildingBlock: XOMCOT_clean_sbu_0, # of connection points: 5
#     Node 3, Type 0, BuildingBlock: XOMCOT_clean_sbu_0, # of connection points: 5
#     Node 4, Type 0, BuildingBlock: XOMCOT_clean_sbu_0, # of connection points: 5
#     Node 5, Type 0, BuildingBlock: XOMCOT_clean_sbu_0, # of connection points: 5
#     Node 6, Type 0, BuildingBlock: XOMCOT_clean_sbu_0, # of connection points: 5
#     Node 7, Type 0, BuildingBlock: XOMCOT_clean_sbu_0, # of connection points: 5
#     Node 8, Type 0, BuildingBlock: XOMCOT_clean_sbu_0, # of connection points: 5
#     Node 9, Type 0, BuildingBlock: XOMCOT_clean_sbu_0, # of connection points: 5
#     Node 10, Type 0, BuildingBlock: XOMCOT_clean_sbu_0, # of connection points: 5
#     Node 11, Type 0, BuildingBlock: XOMCOT_clean_sbu_0, # of connection points: 5
#     Node 12, Type 0, BuildingBlock: XOMCOT_clean_sbu_0, # of connection points: 5
#     Node 13, Type 0, BuildingBlock: XOMCOT_clean_sbu_0, # of connection points: 5
#     Node 14, Type 0, BuildingBlock: XOMCOT_clean_sbu_0, # of connection points: 5
#     Node 15, Type 0, BuildingBlock: XOMCOT_clean_sbu_0, # of connection points: 5
#     Node 16, Type 0, BuildingBlock: XOMCOT_clean_sbu_0, # of connection points: 5
#     Node 17, Type 0, BuildingBlock: XOMCOT_clean_sbu_0, # of connection points: 5
#     Node 18, Type 0, BuildingBlock: XOMCOT_clean_sbu_0, # of connection points: 5
#     Node 19, Type 0, BuildingBlock: XOMCOT_clean_sbu_0, # of connection points: 5
#     Node 20, Type 0, BuildingBlock: XOMCOT_clean_sbu_0, # of connection points: 5
#     Node 21, Type 0, BuildingBlock: XOMCOT_clean_sbu_0, # of connection points: 5
#     Node 22, Type 0, BuildingBlock: XOMCOT_clean_sbu_0, # of connection points: 5
#     Node 23, Type 0, BuildingBlock: XOMCOT_clean_sbu_0, # of connection points: 5
#     Node 24, Type 0, BuildingBlock: XOMCOT_clean_sbu_0, # of connection points: 5
#     Node 25, Type 0, BuildingBlock: XOMCOT_clean_sbu_0, # of connection points: 5
#     Node 26, Type 0, BuildingBlock: XOMCOT_clean_sbu_0, # of connection points: 5
#     Node 27, Type 0, BuildingBlock: XOMCOT_clean_sbu_0, # of connection points: 5
#     Node 28, Type 0, BuildingBlock: XOMCOT_clean_sbu_0, # of connection points: 5
#     Node 29, Type 0, BuildingBlock: XOMCOT_clean_sbu_0, # of connection points: 5
#     Node 30, Type 0, BuildingBlock: XOMCOT_clean_sbu_0, # of connection points: 5
#     Node 31, Type 0, BuildingBlock: XOMCOT_clean_sbu_0, # of connection points: 5
#     Edge 32, Type (0, 0), BuildingBlock: AJUNOK_clean_linker_0, # of connection points: 2
#     Edge 33, Type (0, 0), BuildingBlock: AJUNOK_clean_linker_0, # of connection points: 2
#     Edge 34, Type (0, 0), BuildingBlock: AJUNOK_clean_linker_0, # of connection points: 2
#     Edge 35, Type (0, 0), BuildingBlock: AJUNOK_clean_linker_0, # of connection points: 2
#     Edge 36, Type (0, 0), BuildingBlock: AJUNOK_clean_linker_0, # of connection points: 2
#     Edge 37, Type (0, 0), BuildingBlock: AJUNOK_clean_linker_0, # of connection points: 2
#     Edge 38, Type (0, 0), BuildingBlock: AJUNOK_clean_linker_0, # of connection points: 2
#     Edge 39, Type (0, 0), BuildingBlock: AJUNOK_clean_linker_0, # of connection points: 2
#     Edge 40, Type (0, 0), BuildingBlock: AJUNOK_clean_linker_0, # of connection points: 2
#     Edge 41, Type (0, 0), BuildingBlock: AJUNOK_clean_linker_0, # of connection points: 2
#     Edge 42, Type (0, 0), BuildingBlock: AJUNOK_clean_linker_0, # of connection points: 2
#     Edge 43, Type (0, 0), BuildingBlock: AJUNOK_clean_linker_0, # of connection points: 2
#     Edge 44, Type (0, 0), BuildingBlock: AJUNOK_clean_linker_0, # of connection points: 2
#     Edge 45, Type (0, 0), BuildingBlock: AJUNOK_clean_linker_0, # of connection points: 2
#     Edge 46, Type (0, 0), BuildingBlock: AJUNOK_clean_linker_0, # of connection points: 2
#     Edge 47, Type (0, 0), BuildingBlock: AJUNOK_clean_linker_0, # of connection points: 2
#     Edge 48, Type (0, 0), BuildingBlock: AJUNOK_clean_linker_0, # of connection points: 2
#     Edge 49, Type (0, 0), BuildingBlock: AJUNOK_clean_linker_0, # of connection points: 2
#     Edge 50, Type (0, 0), BuildingBlock: AJUNOK_clean_linker_0, # of connection points: 2
#     Edge 51, Type (0, 0), BuildingBlock: AJUNOK_clean_linker_0, # of connection points: 2
#     Edge 52, Type (0, 0), BuildingBlock: AJUNOK_clean_linker_0, # of connection points: 2
#     Edge 53, Type (0, 0), BuildingBlock: AJUNOK_clean_linker_0, # of connection points: 2
#     Edge 54, Type (0, 0), BuildingBlock: AJUNOK_clean_linker_0, # of connection points: 2
#     Edge 55, Type (0, 0), BuildingBlock: AJUNOK_clean_linker_0, # of connection points: 2
#     Edge 56, Type (0, 0), BuildingBlock: AJUNOK_clean_linker_0, # of connection points: 2
#     Edge 57, Type (0, 0), BuildingBlock: AJUNOK_clean_linker_0, # of connection points: 2
#     Edge 58, Type (0, 0), BuildingBlock: AJUNOK_clean_linker_0, # of connection points: 2
#     Edge 59, Type (0, 0), BuildingBlock: AJUNOK_clean_linker_0, # of connection points: 2
#     Edge 60, Type (0, 0), BuildingBlock: AJUNOK_clean_linker_0, # of connection points: 2
#     Edge 61, Type (0, 0), BuildingBlock: AJUNOK_clean_linker_0, # of connection points: 2
#     Edge 62, Type (0, 0), BuildingBlock: AJUNOK_clean_linker_0, # of connection points: 2
#     Edge 63, Type (0, 0), BuildingBlock: AJUNOK_clean_linker_0, # of connection points: 2
#     Edge 64, Type (0, 0), BuildingBlock: AJUNOK_clean_linker_0, # of connection points: 2
#     Edge 65, Type (0, 0), BuildingBlock: AJUNOK_clean_linker_0, # of connection points: 2
#     Edge 66, Type (0, 0), BuildingBlock: AJUNOK_clean_linker_0, # of connection points: 2
#     Edge 67, Type (0, 0), BuildingBlock: AJUNOK_clean_linker_0, # of connection points: 2
#     Edge 68, Type (0, 0), BuildingBlock: AJUNOK_clean_linker_0, # of connection points: 2
#     Edge 69, Type (0, 0), BuildingBlock: AJUNOK_clean_linker_0, # of connection points: 2
#     Edge 70, Type (0, 0), BuildingBlock: AJUNOK_clean_linker_0, # of connection points: 2
#     Edge 71, Type (0, 0), BuildingBlock: AJUNOK_clean_linker_0, # of connection points: 2
#     Edge 72, Type (0, 0), BuildingBlock: AJUNOK_clean_linker_0, # of connection points: 2
#     Edge 73, Type (0, 0), BuildingBlock: AJUNOK_clean_linker_0, # of connection points: 2
#     Edge 74, Type (0, 0), BuildingBlock: AJUNOK_clean_linker_0, # of connection points: 2
#     Edge 75, Type (0, 0), BuildingBlock: AJUNOK_clean_linker_0, # of connection points: 2
#     Edge 76, Type (0, 0), BuildingBlock: AJUNOK_clean_linker_0, # of connection points: 2
#     Edge 77, Type (0, 0), BuildingBlock: AJUNOK_clean_linker_0, # of connection points: 2
#     Edge 78, Type (0, 0), BuildingBlock: AJUNOK_clean_linker_0, # of connection points: 2
#     Edge 79, Type (0, 0), BuildingBlock: AJUNOK_clean_linker_0, # of connection points: 2
#     Edge 80, Type (0, 0), BuildingBlock: AJUNOK_clean_linker_0, # of connection points: 2
#     Edge 81, Type (0, 0), BuildingBlock: AJUNOK_clean_linker_0, # of connection points: 2
#     Edge 82, Type (0, 0), BuildingBlock: AJUNOK_clean_linker_0, # of connection points: 2
#     Edge 83, Type (0, 0), BuildingBlock: AJUNOK_clean_linker_0, # of connection points: 2
#     Edge 84, Type (0, 0), BuildingBlock: AJUNOK_clean_linker_0, # of connection points: 2
#     Edge 85, Type (0, 0), BuildingBlock: AJUNOK_clean_linker_0, # of connection points: 2
#     Edge 86, Type (0, 0), BuildingBlock: AJUNOK_clean_linker_0, # of connection points: 2
#     Edge 87, Type (0, 0), BuildingBlock: AJUNOK_clean_linker_0, # of connection points: 2
#     Edge 88, Type (0, 0), BuildingBlock: AJUNOK_clean_linker_0, # of connection points: 2
#     Edge 89, Type (0, 0), BuildingBlock: AJUNOK_clean_linker_0, # of connection points: 2
#     Edge 90, Type (0, 0), BuildingBlock: AJUNOK_clean_linker_0, # of connection points: 2
#     Edge 91, Type (0, 0), BuildingBlock: AJUNOK_clean_linker_0, # of connection points: 2
#     Edge 92, Type (0, 0), BuildingBlock: AJUNOK_clean_linker_0, # of connection points: 2
#     Edge 93, Type (0, 0), BuildingBlock: AJUNOK_clean_linker_0, # of connection points: 2
#     Edge 94, Type (0, 0), BuildingBlock: AJUNOK_clean_linker_0, # of connection points: 2
#     Edge 95, Type (0, 0), BuildingBlock: AJUNOK_clean_linker_0, # of connection points: 2
#     Edge 96, Type (0, 0), BuildingBlock: AJUNOK_clean_linker_0, # of connection points: 2
#     Edge 97, Type (0, 0), BuildingBlock: AJUNOK_clean_linker_0, # of connection points: 2
#     Edge 98, Type (0, 0), BuildingBlock: AJUNOK_clean_linker_0, # of connection points: 2
#     Edge 99, Type (0, 0), BuildingBlock: AJUNOK_clean_linker_0, # of connection points: 2
#     Edge 100, Type (0, 0), BuildingBlock: AJUNOK_clean_linker_0, # of connection points: 2
#     Edge 101, Type (0, 0), BuildingBlock: AJUNOK_clean_linker_0, # of connection points: 2
#     Edge 102, Type (0, 0), BuildingBlock: AJUNOK_clean_linker_0, # of connection points: 2
#     Edge 103, Type (0, 0), BuildingBlock: AJUNOK_clean_linker_0, # of connection points: 2
#     Edge 104, Type (0, 0), BuildingBlock: AJUNOK_clean_linker_0, # of connection points: 2
#     Edge 105, Type (0, 0), BuildingBlock: AJUNOK_clean_linker_0, # of connection points: 2
#     Edge 106, Type (0, 0), BuildingBlock: AJUNOK_clean_linker_0, # of connection points: 2
#     Edge 107, Type (0, 0), BuildingBlock: AJUNOK_clean_linker_0, # of connection points: 2
#     Edge 108, Type (0, 0), BuildingBlock: AJUNOK_clean_linker_0, # of connection points: 2
#     Edge 109, Type (0, 0), BuildingBlock: AJUNOK_clean_linker_0, # of connection points: 2
#     Edge 110, Type (0, 0), BuildingBlock: AJUNOK_clean_linker_0, # of connection points: 2
#     Edge 111, Type (0, 0), BuildingBlock: AJUNOK_clean_linker_0, # of connection points: 2
# Relax obj value: 0.191
# Max RMSD: 0.163
# Mean RMSD: 0.163
data_MOF--net-wgi--node1-XOMCOT_clean_sbu_0--edge1-AJUNOK_clean_linker_0
_symmetry_space_group_name_H-M    P1
_symmetry_Int_Tables_number       1
_symmetry_cell_setting            triclinic
loop_
_symmetry_equiv_pos_as_xyz
'x, y, z'
_cell_length_a     59.067268
_cell_length_b     59.087424
_cell_length_c     20.082392
_cell_angle_alpha  89.980544
_cell_angle_beta   90.019929
_cell_angle_gamma 89.97753
loop_
_atom_site_label
_atom_site_type_symbol
_atom_site_fract_x
_atom_site_fract_y
_atom_site_fract_z
_atom_type_partial_charge
Co0 Co 0.14852 0.16063 0.41256 0.0
C1 C 0.19733 0.16299 0.44505 0.0
C2 C 0.19216 0.14301 0.35778 0.0
C3 C 0.21477 0.142 0.37509 0.0
N4 N 0.18121 0.15678 0.40065 0.0
N5 N 0.218 0.15466 0.43012 0.0
H6 H 0.19369 0.1718 0.49085 0.0
H7 H 0.18425 0.13303 0.31924 0.0
C8 C 0.14985 0.15546 0.26411 0.0
O9 O 0.1653 0.17145 0.26211 0.0
N10 N 0.11637 0.16388 0.42792 0.0
C11 C 0.10683 0.17978 0.46703 0.0
C12 C 0.08433 0.17463 0.47549 0.0
C13 C 0.0996 0.1492 0.41307 0.0
N14 N 0.0799 0.15539 0.44196 0.0
C15 C 0.16372 0.20722 0.41152 0.0
C16 C 0.13006 0.22268 0.3274 0.0
C17 C 0.14411 0.23856 0.35883 0.0
C18 C 0.16172 0.23044 0.39923 0.0
C19 C 0.13303 0.19961 0.33954 0.0
N20 N 0.14943 0.19205 0.38221 0.0
H21 H 0.17601 0.20179 0.44751 0.0
H22 H 0.12111 0.18788 0.31779 0.0
H23 H 0.11583 0.19374 0.48965 0.0
H24 H 0.10197 0.13386 0.3845 0.0
O25 O 0.15318 0.16546 0.50625 0.0
O26 O 0.14752 0.13201 0.45823 0.0
O27 O 0.14188 0.14906 0.3201 0.0
C28 C 0.15065 0.14367 0.51244 0.0
H29 H 0.22759 0.13192 0.35056 0.0
H30 H 0.07218 0.18413 0.5046 0.0
H31 H 0.11602 0.22802 0.29646 0.0
H32 H 0.17339 0.24193 0.42335 0.0
Co33 Co 0.10363 0.90034 0.65877 0.0
C34 C 0.10312 0.94869 0.69768 0.0
C35 C 0.12225 0.9434 0.60832 0.0
C36 C 0.12453 0.96568 0.6273 0.0
N37 N 0.10874 0.93272 0.65232 0.0
N38 N 0.11248 0.969 0.6835 0.0
H39 H 0.09317 0.94538 0.7418 0.0
H40 H 0.13105 0.93541 0.56744 0.0
C41 C 0.11566 0.87978 0.5235 0.0
O42 O 0.1066 0.8604 0.54067 0.0
N43 N 0.09878 0.8679 0.66868 0.0
C44 C 0.07898 0.85706 0.67923 0.0
C45 C 0.08311 0.83424 0.68531 0.0
C46 C 0.11481 0.85152 0.67198 0.0
N47 N 0.10558 0.83085 0.68047 0.0
C48 C 0.05716 0.91185 0.68022 0.0
C49 C 0.04059 0.89287 0.56446 0.0
C50 C 0.0256 0.8976 0.61648 0.0
C51 C 0.03385 0.90841 0.67337 0.0
C52 C 0.06373 0.89677 0.57303 0.0
N53 N 0.07198 0.90456 0.63242 0.0
H54 H 0.06331 0.91856 0.72673 0.0
H55 H 0.07471 0.8918 0.5333 0.0
H56 H 0.06255 0.86495 0.68244 0.0
H57 H 0.13271 0.85449 0.66445 0.0
O58 O 0.1 0.90283 0.75393 0.0
O59 O 0.1327 0.89702 0.70275 0.0
O60 O 0.11437 0.89703 0.56216 0.0
C61 C 0.12164 0.89935 0.75845 0.0
H62 H 0.13546 0.97802 0.60383 0.0
H63 H 0.07056 0.82108 0.69199 0.0
H64 H 0.03466 0.88472 0.51938 0.0
H65 H 0.02266 0.91237 0.7145 0.0
Co66 Co 0.36858 0.85266 0.9076 0.0
C67 C 0.32047 0.85465 0.95154 0.0
C68 C 0.32317 0.85573 0.84516 0.0
C69 C 0.30056 0.85638 0.86231 0.0
N70 N 0.33572 0.85474 0.9012 0.0
N71 N 0.29892 0.8556 0.92926 0.0
H72 H 0.32483 0.85339 1.00364 0.0
H73 H 0.32983 0.85582 0.79506 0.0
C74 C 0.37677 0.88127 0.78553 0.0
O75 O 0.37999 0.899 0.82378 0.0
N76 N 0.4013 0.85049 0.9151 0.0
C77 C 0.41319 0.832 0.93292 0.0
C78 C 0.43561 0.83776 0.93854 0.0
C79 C 0.41663 0.86744 0.91246 0.0
N80 N 0.4379 0.86012 0.92615 0.0
C81 C 0.35664 0.80588 0.91944 0.0
C82 C 0.38327 0.79097 0.81489 0.0
C83 C 0.37416 0.77511 0.85907 0.0
C84 C 0.35999 0.78262 0.91036 0.0
C85 C 0.37956 0.81399 0.82569 0.0
N86 N 0.36721 0.82122 0.87921 0.0
H87 H 0.3469 0.81162 0.96174 0.0
H88 H 0.38862 0.8259 0.79489 0.0
H89 H 0.40608 0.81551 0.94308 0.0
H90 H 0.41199 0.88489 0.90448 0.0
O91 O 0.36665 0.8482 1.00249 0.0
O92 O 0.36966 0.88165 0.95341 0.0
O93 O 0.37162 0.86225 0.81157 0.0
C94 C 0.36835 0.87002 1.00849 0.0
H95 H 0.28647 0.85763 0.82805 0.0
H96 H 0.44913 0.82622 0.95151 0.0
H97 H 0.39466 0.78569 0.77554 0.0
H98 H 0.35297 0.77076 0.94592 0.0
Co99 Co 0.41274 0.11855 0.14871 0.0
C100 C 0.41309 0.07008 0.18778 0.0
C101 C 0.39504 0.07503 0.09645 0.0
C102 C 0.3933 0.05258 0.11462 0.0
N103 N 0.40767 0.08603 0.14203 0.0
N104 N 0.40476 0.04946 0.17204 0.0
H105 H 0.4222 0.07354 0.23327 0.0
H106 H 0.38652 0.08283 0.05476 0.0
C107 C 0.40032 0.13891 1.01263 0.0
O108 O 0.40709 0.15898 0.03169 0.0
N109 N 0.41772 0.15095 0.15977 0.0
C110 C 0.43726 0.16075 0.17923 0.0
C111 C 0.43364 0.18347 0.18882 0.0
C112 C 0.40214 0.16782 0.16184 0.0
N113 N 0.41166 0.18802 0.1766 0.0
C114 C 0.45867 0.10375 0.16547 0.0
C115 C 0.47645 0.12741 0.05919 0.0
C116 C 0.49138 0.11785 0.10565 0.0
C117 C 0.48216 0.10484 0.15738 0.0
C118 C 0.45311 0.12539 0.06805 0.0
N119 N 0.44437 0.11454 0.12238 0.0
H120 H 0.45217 0.09543 0.20912 0.0
H121 H 0.44245 0.13428 0.03384 0.0
H122 H 0.45303 0.15198 0.188 0.0
H123 H 0.38439 0.16549 0.15026 0.0
O124 O 0.41634 0.11587 0.24373 0.0
O125 O 0.38366 0.12178 0.19213 0.0
O126 O 0.40245 0.12176 0.05144 0.0
C127 C 0.39466 0.11931 0.24794 0.0
H128 H 0.38321 0.03993 0.08945 0.0
H129 H 0.44619 0.19563 0.20489 0.0
H130 H 0.48262 0.13771 0.01845 0.0
H131 H 0.49293 0.09639 0.19321 0.0
Co132 Co 0.14954 0.85333 0.12102 0.0
C133 C 0.19694 0.85785 0.07272 0.0
C134 C 0.1956 0.85591 0.17915 0.0
C135 C 0.21802 0.8563 0.15959 0.0
N136 N 0.18233 0.85694 0.12456 0.0
N137 N 0.21878 0.85726 0.09255 0.0
H138 H 0.19185 0.85861 0.02124 0.0
H139 H 0.18954 0.85406 0.22963 0.0
C140 C 0.14075 0.88133 0.24326 0.0
O141 O 0.13527 0.89857 0.20526 0.0
N142 N 0.11681 0.84944 0.1163 0.0
C143 C 0.10593 0.82987 0.1036 0.0
C144 C 0.08323 0.83407 0.09767 0.0
C145 C 0.10041 0.8655 0.11511 0.0
N146 N 0.07965 0.85656 0.10302 0.0
C147 C 0.16459 0.80747 0.10971 0.0
C148 C 0.14033 0.79119 0.21736 0.0
C149 C 0.15085 0.77568 0.17443 0.0
C150 C 0.16375 0.78414 0.12126 0.0
C151 C 0.14178 0.81431 0.20448 0.0
N152 N 0.15302 0.82212 0.14965 0.0
H153 H 0.17355 0.81371 0.06653 0.0
H154 H 0.13188 0.82565 0.23491 0.0
H155 H 0.11385 0.81355 0.09708 0.0
H156 H 0.10371 0.88342 0.12004 0.0
O157 O 0.15074 0.84881 0.02629 0.0
O158 O 0.14652 0.88217 0.07545 0.0
O159 O 0.14719 0.86282 0.21686 0.0
C160 C 0.1479 0.87051 0.02046 0.0
H161 H 0.23261 0.85502 0.192 0.0
H162 H 0.07046 0.82122 0.09031 0.0
H163 H 0.12956 0.78554 0.25768 0.0
H164 H 0.17224 0.77278 0.0871 0.0
Co165 Co 0.41355 0.90104 0.36809 0.0
C166 C 0.41547 0.94887 0.3254 0.0
C167 C 0.39629 0.94516 0.41534 0.0
C168 C 0.39448 0.96725 0.39377 0.0
N169 N 0.40949 0.93361 0.37242 0.0
N170 N 0.4063 0.96949 0.33667 0.0
H171 H 0.42573 0.94477 0.28258 0.0
H172 H 0.38747 0.93787 0.45732 0.0
C173 C 0.40456 0.88179 0.50683 0.0
O174 O 0.41561 0.86328 0.49127 0.0
N175 N 0.41727 0.86848 0.36031 0.0
C176 C 0.43591 0.85711 0.34036 0.0
C177 C 0.43068 0.83448 0.33479 0.0
C178 C 0.40079 0.85265 0.36458 0.0
N179 N 0.40867 0.83185 0.34992 0.0
C180 C 0.45989 0.90997 0.33806 0.0
C181 C 0.47825 0.89451 0.456 0.0
C182 C 0.49229 0.89692 0.40035 0.0
C183 C 0.48313 0.90596 0.34203 0.0
C184 C 0.45498 0.89864 0.44982 0.0
N185 N 0.44578 0.90458 0.38971 0.0
H186 H 0.45323 0.91562 0.29103 0.0
H187 H 0.44465 0.89593 0.49288 0.0
H188 H 0.45218 0.86457 0.32966 0.0
H189 H 0.38353 0.8562 0.3794 0.0
O190 O 0.41598 0.90267 0.27236 0.0
O191 O 0.38379 0.89809 0.32681 0.0
O192 O 0.40385 0.89858 0.46618 0.0
C193 C 0.39427 0.89973 0.2699 0.0
H194 H 0.38418 0.98032 0.41631 0.0
H195 H 0.44216 0.82093 0.3214 0.0
H196 H 0.48492 0.88802 0.50251 0.0
H197 H 0.4936 0.90852 0.29839 0.0
Co198 Co 0.36761 0.1648 0.6094 0.0
C199 C 0.31956 0.15694 0.57081 0.0
C200 C 0.3227 0.16709 0.67293 0.0
C201 C 0.3 0.16614 0.65679 0.0
N202 N 0.335 0.16143 0.61886 0.0
N203 N 0.29816 0.1598 0.59257 0.0
H204 H 0.32362 0.15297 0.51972 0.0
H205 H 0.32973 0.17269 0.71984 0.0
C206 C 0.37542 0.13646 0.73129 0.0
O207 O 0.37633 0.11831 0.69367 0.0
N208 N 0.39994 0.16861 0.59881 0.0
C209 C 0.40963 0.18578 0.56516 0.0
C210 C 0.43259 0.18234 0.5633 0.0
C211 C 0.41711 0.1547 0.61622 0.0
N212 N 0.43732 0.16281 0.59513 0.0
C213 C 0.3527 0.21096 0.60074 0.0
C214 C 0.38099 0.22686 0.70016 0.0
C215 C 0.36881 0.24251 0.66178 0.0
C216 C 0.35414 0.23429 0.61233 0.0
C217 C 0.379 0.20382 0.68724 0.0
N218 N 0.36542 0.19615 0.63707 0.0
H219 H 0.34215 0.20479 0.56064 0.0
H220 H 0.38975 0.19229 0.7145 0.0
H221 H 0.40053 0.19967 0.54248 0.0
H222 H 0.41488 0.13907 0.64344 0.0
O223 O 0.36442 0.16885 0.51486 0.0
O224 O 0.36985 0.13577 0.56484 0.0
O225 O 0.37177 0.15575 0.70502 0.0
C226 C 0.36761 0.14716 0.5096 0.0
H227 H 0.28596 0.17041 0.68908 0.0
H228 H 0.44486 0.19314 0.53893 0.0
H229 H 0.39314 0.23237 0.73713 0.0
H230 H 0.3445 0.24581 0.58139 0.0
Co231 Co 0.1063 0.11713 0.87261 0.0
C232 C 0.10414 0.06858 0.8385 0.0
C233 C 0.12548 0.07386 0.92303 0.0
C234 C 0.12748 0.05158 0.90308 0.0
N235 N 0.11043 0.08453 0.88323 0.0
N236 N 0.11426 0.04844 0.84926 0.0
H237 H 0.09363 0.07192 0.79572 0.0
H238 H 0.13585 0.08198 0.96033 0.0
C239 C 0.11233 0.11531 0.02194 0.0
O240 O 0.0968 0.09946 0.02633 0.0
N241 N 0.10277 0.1493 0.85929 0.0
C242 C 0.08646 0.15925 0.82274 0.0
C243 C 0.09057 0.18212 0.82073 0.0
C244 C 0.11679 0.16611 0.8783 0.0
N245 N 0.10966 0.18643 0.85545 0.0
C246 C 0.05959 0.10318 0.86609 0.0
C247 C 0.04396 0.13451 0.95716 0.0
C248 C 0.02818 0.12231 0.91931 0.0
C249 C 0.03629 0.10585 0.87515 0.0
C250 C 0.0671 0.13106 0.94739 0.0
N251 N 0.07478 0.11577 0.90151 0.0
H252 H 0.06515 0.09212 0.82708 0.0
H253 H 0.07881 0.14207 0.97301 0.0
H254 H 0.07272 0.15041 0.79841 0.0
H255 H 0.13182 0.16349 0.90801 0.0
O256 O 0.10198 0.11303 0.7783 0.0
O257 O 0.13508 0.11871 0.82827 0.0
O258 O 0.1177 0.12339 0.96524 0.0
C259 C 0.12376 0.11603 0.77328 0.0
H260 H 0.1391 0.03917 0.92326 0.0
H261 H 0.08054 0.19459 0.79446 0.0
H262 H 0.03854 0.14768 0.99111 0.0
H263 H 0.02476 0.09576 0.84558 0.0
Co264 Co 0.86739 0.85582 0.62655 0.0
C265 C 0.8182 0.85327 0.59633 0.0
C266 C 0.82533 0.87818 0.67064 0.0
C267 C 0.8029 0.88004 0.6526 0.0
N268 N 0.83494 0.86103 0.63647 0.0
N269 N 0.79841 0.86434 0.60574 0.0
H270 H 0.82074 0.84111 0.55703 0.0
H271 H 0.83436 0.88996 0.70206 0.0
C272 C 0.86427 0.86472 0.77432 0.0
O273 O 0.8477 0.84997 0.77885 0.0
N274 N 0.8995 0.85117 0.61419 0.0
C275 C 0.90887 0.83422 0.57889 0.0
C276 C 0.93182 0.83771 0.57546 0.0
C277 C 0.91679 0.86492 0.63126 0.0
N278 N 0.93684 0.8569 0.60876 0.0
C279 C 0.85459 0.80885 0.62065 0.0
C280 C 0.88464 0.79491 0.71779 0.0
C281 C 0.875 0.77868 0.67574 0.0
C282 C 0.85901 0.78571 0.62873 0.0
C283 C 0.87978 0.81778 0.70818 0.0
N284 N 0.86534 0.82469 0.65888 0.0
H285 H 0.84436 0.81391 0.57898 0.0
H286 H 0.88966 0.82993 0.73578 0.0
H287 H 0.89954 0.82064 0.55545 0.0
H288 H 0.91471 0.8806 0.6584 0.0
O289 O 0.86321 0.85044 0.53245 0.0
O290 O 0.86987 0.8839 0.57892 0.0
O291 O 0.87368 0.86842 0.71815 0.0
C292 C 0.86712 0.87197 0.5251 0.0
H293 H 0.79143 0.89326 0.66848 0.0
H294 H 0.94373 0.82738 0.54807 0.0
H295 H 0.89723 0.7901 0.75444 0.0
H296 H 0.85151 0.77366 0.59458 0.0
Co297 Co 0.91087 0.11831 0.36813 0.0
C298 C 0.91321 0.06914 0.33742 0.0
C299 C 0.89234 0.07514 0.42258 0.0
C300 C 0.89124 0.05244 0.40662 0.0
N301 N 0.90667 0.08566 0.3803 0.0
N302 N 0.90438 0.04874 0.35293 0.0
H303 H 0.92309 0.07207 0.29297 0.0
H304 H 0.88193 0.08346 0.45936 0.0
C305 C 0.90443 0.11738 0.51713 0.0
O306 O 0.9201 0.10166 0.52193 0.0
N307 N 0.91472 0.15047 0.35293 0.0
C308 C 0.93155 0.15971 0.31675 0.0
C309 C 0.92862 0.18275 0.31496 0.0
C310 C 0.90147 0.16801 0.37181 0.0
N311 N 0.90984 0.18799 0.34987 0.0
C312 C 0.95756 0.10389 0.36624 0.0
C313 C 0.97253 0.13537 0.458 0.0
C314 C 0.98856 0.12226 0.42399 0.0
C315 C 0.98079 0.10609 0.37833 0.0
C316 C 0.94952 0.13256 0.44474 0.0
N317 N 0.94217 0.11701 0.39919 0.0
H318 H 0.95222 0.09267 0.32721 0.0
H319 H 0.93772 0.1441 0.46786 0.0
H320 H 0.94498 0.15025 0.29295 0.0
H321 H 0.88617 0.16624 0.40093 0.0
O322 O 0.91586 0.11343 0.27459 0.0
O323 O 0.88239 0.11964 0.32186 0.0
O324 O 0.89894 0.12518 0.46008 0.0
C325 C 0.89411 0.1162 0.26793 0.0
H326 H 0.88027 0.04001 0.42954 0.0
H327 H 0.93927 0.19472 0.28885 0.0
H328 H 0.97771 0.14874 0.49158 0.0
H329 H 0.9926 0.09586 0.35016 0.0
Co330 Co 0.65039 0.16062 0.11097 0.0
C331 C 0.69909 0.16439 0.07961 0.0
C332 C 0.69389 0.14352 0.16522 0.0
C333 C 0.71629 0.14185 0.1462 0.0
N334 N 0.68305 0.15803 0.1241 0.0
N335 N 0.71938 0.15474 0.09168 0.0
H336 H 0.6957 0.17447 0.03592 0.0
H337 H 0.68582 0.13312 0.20253 0.0
C338 C 0.65125 0.15571 0.26107 0.0
O339 O 0.66654 0.1718 0.26525 0.0
N340 N 0.61823 0.16257 0.095 0.0
C341 C 0.60797 0.17727 0.05341 0.0
C342 C 0.58561 0.17115 0.04693 0.0
C343 C 0.60207 0.14769 0.11323 0.0
N344 N 0.58202 0.15265 0.08464 0.0
C345 C 0.66182 0.20793 0.1013 0.0
C346 C 0.62946 0.22251 0.19085 0.0
C347 C 0.64076 0.2386 0.15187 0.0
C348 C 0.65759 0.23113 0.10797 0.0
C349 C 0.6342 0.19954 0.1827 0.0
N350 N 0.65005 0.19236 0.13782 0.0
H351 H 0.67326 0.20258 0.06283 0.0
H352 H 0.62373 0.18748 0.20885 0.0
H353 H 0.61638 0.19102 0.02789 0.0
H354 H 0.60511 0.133 0.14403 0.0
O355 O 0.6551 0.16448 0.01671 0.0
O356 O 0.65044 0.1315 0.06804 0.0
O357 O 0.64382 0.1496 0.20417 0.0
C358 C 0.65298 0.1426 1.01258 0.0
H359 H 0.7288 0.13052 0.16723 0.0
H360 H 0.57296 0.17949 0.01656 0.0
H361 H 0.61617 0.22757 0.22491 0.0
H362 H 0.66626 0.24295 0.07558 0.0
Co363 Co 0.60398 0.90215 0.87228 0.0
C364 C 0.60438 0.94911 0.81888 0.0
C365 C 0.62014 0.94732 0.91497 0.0
C366 C 0.62171 0.96923 0.89185 0.0
N367 N 0.60926 0.93465 0.86922 0.0
N368 N 0.61199 0.9703 0.83119 0.0
H369 H 0.59547 0.94428 0.77407 0.0
H370 H 0.62701 0.94115 0.96141 0.0
C371 C 0.63231 0.89183 0.99188 0.0
O372 O 0.64757 0.88392 0.95054 0.0
N373 N 0.59886 0.86957 0.87482 0.0
C374 C 0.57897 0.85838 0.88008 0.0
C375 C 0.58313 0.83549 0.88177 0.0
C376 C 0.61476 0.85312 0.87126 0.0
N377 N 0.60557 0.83231 0.87586 0.0
C378 C 0.55748 0.9126 0.85061 0.0
C379 C 0.54182 0.90129 0.97565 0.0
C380 C 0.52611 0.90323 0.92329 0.0
C381 C 0.53428 0.90991 0.86073 0.0
C382 C 0.56505 0.90335 0.96286 0.0
N383 N 0.57269 0.90767 0.89977 0.0
H384 H 0.56315 0.91682 0.80115 0.0
H385 H 0.57658 0.89968 1.00298 0.0
H386 H 0.56239 0.86598 0.88201 0.0
H387 H 0.6327 0.85613 0.86567 0.0
O388 O 0.59921 0.90157 0.77728 0.0
O389 O 0.63258 0.89712 0.82457 0.0
O390 O 0.61433 0.901 0.96878 0.0
C391 C 0.62067 0.89812 0.76994 0.0
H392 H 0.63002 0.98317 0.91686 0.0
H393 H 0.57066 0.82215 0.88611 0.0
H394 H 0.53636 0.8967 0.02532 0.0
H395 H 0.52322 0.9113 0.81801 0.0
Co396 Co 0.86797 0.16069 0.90914 0.0
C397 C 0.8189 0.16383 0.93811 0.0
C398 C 0.82547 0.14093 0.85799 0.0
C399 C 0.80299 0.13912 0.87556 0.0
N400 N 0.83547 0.15685 0.89617 0.0
N401 N 0.79891 0.1535 0.92618 0.0
H402 H 0.82168 0.17473 0.98041 0.0
H403 H 0.83423 0.1298 0.82398 0.0
C404 C 0.86574 0.15565 0.76045 0.0
O405 O 0.84935 0.17068 0.75949 0.0
N406 N 0.90005 0.16392 0.92498 0.0
C407 C 0.90955 0.17931 0.96589 0.0
C408 C 0.93216 0.17436 0.97263 0.0
C409 C 0.91694 0.14978 0.90725 0.0
N410 N 0.93674 0.15587 0.93575 0.0
C411 C 0.85577 0.20791 0.91956 0.0
C412 C 0.88675 0.22269 0.8261 0.0
C413 C 0.87582 0.23871 0.86611 0.0
C414 C 0.85966 0.23116 0.91203 0.0
C415 C 0.88245 0.19972 0.83528 0.0
N416 N 0.86724 0.19242 0.88191 0.0
H417 H 0.845 0.20249 0.95959 0.0
H418 H 0.8929 0.18781 0.80856 0.0
H419 H 0.90046 0.19274 0.99087 0.0
H420 H 0.91462 0.13486 0.87678 0.0
O421 O 0.86306 0.16437 1.00333 0.0
O422 O 0.86901 0.1316 0.95189 0.0
O423 O 0.87469 0.14994 0.81584 0.0
C424 C 0.86597 0.14256 1.00732 0.0
H425 H 0.79117 0.1267 0.85661 0.0
H426 H 0.94431 0.18345 1.00286 0.0
H427 H 0.89956 0.22781 0.79055 0.0
H428 H 0.85132 0.24297 0.94522 0.0
Co429 Co 0.6068 0.11963 0.65377 0.0
C430 C 0.60271 0.07029 0.67905 0.0
C431 C 0.62647 0.07729 0.60151 0.0
C432 C 0.62799 0.05469 0.61787 0.0
N433 N 0.61024 0.08713 0.63888 0.0
N434 N 0.61303 0.05028 0.66686 0.0
H435 H 0.59146 0.07288 0.72061 0.0
H436 H 0.63802 0.08623 0.56914 0.0
C437 C 0.61213 0.11811 0.5053 0.0
O438 O 0.59687 0.10194 0.50409 0.0
N439 N 0.60403 0.15165 0.67135 0.0
C440 C 0.58884 0.16119 0.7128 0.0
C441 C 0.59387 0.1838 0.71931 0.0
C442 C 0.61813 0.16851 0.65311 0.0
N443 N 0.61221 0.18835 0.68175 0.0
C444 C 0.55941 0.108 0.66227 0.0
C445 C 0.54512 0.13971 0.57027 0.0
C446 C 0.52889 0.12852 0.6089 0.0
C447 C 0.5362 0.11202 0.65412 0.0
C448 C 0.56807 0.13519 0.57987 0.0
N449 N 0.57512 0.11957 0.62571 0.0
H450 H 0.56459 0.09699 0.702 0.0
H451 H 0.58016 0.1457 0.55407 0.0
H452 H 0.57539 0.15216 0.73794 0.0
H453 H 0.63286 0.16616 0.6218 0.0
O454 O 0.60264 0.11401 0.74739 0.0
O455 O 0.63577 0.11987 0.69785 0.0
O456 O 0.61794 0.12681 0.56095 0.0
C457 C 0.62449 0.11629 0.75252 0.0
H458 H 0.64065 0.04302 0.5995 0.0
H459 H 0.58484 0.19598 0.7496 0.0
H460 H 0.54018 0.15281 0.5354 0.0
H461 H 0.52424 0.10351 0.6864 0.0
Co462 Co 0.65014 0.85272 0.40426 0.0
C463 C 0.69728 0.85453 0.45555 0.0
C464 C 0.69576 0.86543 0.35388 0.0
C465 C 0.71776 0.86755 0.37617 0.0
N466 N 0.68284 0.8573 0.4038 0.0
N467 N 0.71865 0.86088 0.44035 0.0
H468 H 0.69233 0.84781 0.50338 0.0
H469 H 0.68978 0.86995 0.30484 0.0
C470 C 0.64252 0.88107 0.28166 0.0
O471 O 0.63775 0.89819 0.32088 0.0
N472 N 0.6176 0.84829 0.40624 0.0
C473 C 0.6066 0.8293 0.42499 0.0
C474 C 0.58367 0.83342 0.42437 0.0
C475 C 0.60121 0.86394 0.39682 0.0
N476 N 0.58042 0.85517 0.4069 0.0
C477 C 0.66522 0.80694 0.41929 0.0
C478 C 0.64156 0.78978 0.31173 0.0
C479 C 0.65159 0.77459 0.35675 0.0
C480 C 0.66419 0.78351 0.40983 0.0
C481 C 0.64324 0.81308 0.32247 0.0
N482 N 0.65424 0.82137 0.37714 0.0
H483 H 0.67368 0.81339 0.46295 0.0
H484 H 0.63387 0.82426 0.29003 0.0
H485 H 0.61465 0.81365 0.43971 0.0
H486 H 0.60432 0.88143 0.38416 0.0
O487 O 0.65059 0.8485 0.49973 0.0
O488 O 0.64612 0.88157 0.44964 0.0
O489 O 0.64827 0.86207 0.30708 0.0
C490 C 0.64731 0.87013 0.50511 0.0
H491 H 0.73189 0.87409 0.34777 0.0
H492 H 0.57041 0.8216 0.43753 0.0
H493 H 0.63105 0.78382 0.27122 0.0
H494 H 0.67229 0.77246 0.44568 0.0
Co495 Co 0.9134 0.89945 0.16016 0.0
C496 C 0.91524 0.94819 0.19781 0.0
C497 C 0.8871 0.94088 0.13402 0.0
C498 C 0.88537 0.963 0.15496 0.0
N499 N 0.90617 0.93166 0.15929 0.0
N500 N 0.90292 0.9675 0.19558 0.0
H501 H 0.92971 0.94583 0.22994 0.0
H502 H 0.87446 0.93174 0.10589 0.0
C503 C 0.90018 0.90702 0.01548 0.0
O504 O 0.91069 0.92662 0.01512 0.0
N505 N 0.91997 0.86709 0.16301 0.0
C506 C 0.94038 0.85687 0.16146 0.0
C507 C 0.93743 0.83391 0.16518 0.0
C508 C 0.9049 0.84993 0.16916 0.0
N509 N 0.91514 0.8294 0.17171 0.0
C510 C 0.96017 0.91124 0.17436 0.0
C511 C 0.97446 0.89679 0.05096 0.0
C512 C 0.99068 0.89898 0.10173 0.0
C513 C 0.98329 0.90771 0.16298 0.0
C514 C 0.95143 0.89886 0.06579 0.0
N515 N 0.9443 0.9053 0.12785 0.0
H516 H 0.95513 0.91635 0.22364 0.0
H517 H 0.93982 0.89285 0.02878 0.0
H518 H 0.95657 0.86515 0.15822 0.0
H519 H 0.88681 0.85246 0.1729 0.0
O520 O 0.91911 0.90127 0.25441 0.0
O521 O 0.88569 0.8941 0.20924 0.0
O522 O 0.90039 0.89476 0.06792 0.0
C523 C 0.89778 0.8968 0.26278 0.0
H524 H 0.87139 0.97438 0.14509 0.0
H525 H 0.95094 0.82164 0.16165 0.0
H526 H 0.9792 0.89169 1.00118 0.0
H527 H 0.99492 0.91009 0.20402 0.0
Co528 Co 0.65006 0.66454 0.9059 0.0
C529 C 0.69819 0.65784 0.94527 0.0
C530 C 0.69535 0.67111 0.84638 0.0
C531 C 0.71796 0.67066 0.86416 0.0
N532 N 0.6829 0.66313 0.89744 0.0
N533 N 0.7197 0.6623 0.92656 0.0
H534 H 0.69384 0.65148 0.99392 0.0
H535 H 0.6884 0.67803 0.80088 0.0
C536 C 0.64423 0.63749 0.78028 0.0
O537 O 0.64642 0.61909 0.81637 0.0
N538 N 0.61759 0.66618 0.91571 0.0
C539 C 0.60652 0.6811 0.9547 0.0
C540 C 0.58421 0.67464 0.95926 0.0
C541 C 0.60193 0.65083 0.8969 0.0
N542 N 0.58145 0.65572 0.92287 0.0
C543 C 0.66163 0.71088 0.92596 0.0
C544 C 0.63399 0.72812 0.82676 0.0
C545 C 0.64396 0.74299 0.87234 0.0
C546 C 0.65831 0.73426 0.92154 0.0
C547 C 0.63733 0.70484 0.8338 0.0
N548 N 0.65061 0.69649 0.88384 0.0
H549 H 0.67199 0.70421 0.96576 0.0
H550 H 0.62786 0.69356 0.80205 0.0
H551 H 0.61438 0.6951 0.98056 0.0
H552 H 0.60559 0.63581 0.86809 0.0
O553 O 0.65277 0.66731 1.00112 0.0
O554 O 0.64928 0.6347 0.94784 0.0
O555 O 0.64623 0.65683 0.80815 0.0
C556 C 0.65076 0.64549 1.00442 0.0
H557 H 0.7318 0.67727 0.83476 0.0
H558 H 0.57111 0.68284 0.98823 0.0
H559 H 0.62241 0.73431 0.78908 0.0
H560 H 0.66609 0.74533 0.95795 0.0
Co561 Co 0.60592 0.39987 0.14345 0.0
C562 C 0.6016 0.4488 0.17341 0.0
C563 C 0.62948 0.4421 0.1082 0.0
C564 C 0.63029 0.4645 0.12692 0.0
N565 N 0.61117 0.43228 0.13609 0.0
N566 N 0.61279 0.46867 0.16817 0.0
H567 H 0.58781 0.44605 0.20772 0.0
H568 H 0.64237 0.4332 0.08038 0.0
C569 C 0.61549 0.4059 0.99675 0.0
O570 O 0.60332 0.42452 0.99661 0.0
N571 N 0.60095 0.3677 0.15353 0.0
C572 C 0.58367 0.35823 0.18725 0.0
C573 C 0.58689 0.33526 0.18953 0.0
C574 C 0.61469 0.35036 0.13647 0.0
N575 N 0.6064 0.33027 0.15795 0.0
C576 C 0.5587 0.40934 0.16184 0.0
C577 C 0.54396 0.38952 0.04546 0.0
C578 C 0.52818 0.39303 0.09657 0.0
C579 C 0.5357 0.40419 0.15414 0.0
C580 C 0.56692 0.39324 0.05719 0.0
N581 N 0.57429 0.40282 0.11527 0.0
H582 H 0.56408 0.41619 0.20894 0.0
H583 H 0.57849 0.38635 0.02135 0.0
H584 H 0.57004 0.36742 0.21077 0.0
H585 H 0.63042 0.35247 0.1096 0.0
O586 O 0.60201 0.40336 0.23814 0.0
O587 O 0.63473 0.39668 0.18755 0.0
O588 O 0.61742 0.39433 0.05018 0.0
C589 C 0.62364 0.3996 0.24278 0.0
H590 H 0.6438 0.47627 0.11571 0.0
H591 H 0.57607 0.32318 0.21463 0.0
H592 H 0.53901 0.38231 0.99815 0.0
H593 H 0.52433 0.40745 0.1953 0.0
Co594 Co 0.86685 0.35717 0.40793 0.0
C595 C 0.81743 0.35463 0.43342 0.0
C596 C 0.82527 0.37819 0.35586 0.0
C597 C 0.80284 0.38079 0.37301 0.0
N598 N 0.8345 0.36152 0.393 0.0
N599 N 0.79795 0.36597 0.42186 0.0
H600 H 0.8197 0.34359 0.47575 0.0
H601 H 0.83459 0.38936 0.32329 0.0
C602 C 0.86659 0.3643 0.25869 0.0
O603 O 0.85026 0.34933 0.25304 0.0
N604 N 0.89875 0.35356 0.42524 0.0
C605 C 0.90828 0.33791 0.46527 0.0
C606 C 0.93091 0.34294 0.47236 0.0
C607 C 0.91555 0.3679 0.40856 0.0
N608 N 0.93534 0.3617 0.43652 0.0
C609 C 0.85423 0.31003 0.4136 0.0
C610 C 0.8865 0.29573 0.32336 0.0
C611 C 0.87557 0.27955 0.36287 0.0
C612 C 0.85857 0.28682 0.40649 0.0
C613 C 0.88173 0.31866 0.33205 0.0
N614 N 0.86606 0.32574 0.37769 0.0
H615 H 0.8428 0.31529 0.45229 0.0
H616 H 0.89228 0.33074 0.30636 0.0
H617 H 0.89924 0.32424 0.48924 0.0
H618 H 0.91317 0.38308 0.37936 0.0
O619 O 0.86125 0.3524 0.5015 0.0
O620 O 0.86788 0.38572 0.45425 0.0
O621 O 0.87454 0.36906 0.31615 0.0
C622 C 0.86435 0.37409 0.50829 0.0
H623 H 0.79145 0.39369 0.3544 0.0
H624 H 0.94315 0.3337 0.50194 0.0
H625 H 0.89975 0.29079 0.28903 0.0
H626 H 0.84995 0.27484 0.4385 0.0
Co627 Co 0.91249 0.61871 0.66408 0.0
C628 C 0.91415 0.56959 0.69697 0.0
C629 C 0.89113 0.57622 0.6171 0.0
C630 C 0.88935 0.55373 0.63459 0.0
N631 N 0.90718 0.58618 0.65492 0.0
N632 N 0.90385 0.54957 0.68491 0.0
H633 H 0.92531 0.5723 0.73879 0.0
H634 H 0.88008 0.58494 0.58273 0.0
C635 C 0.9053 0.61541 0.51553 0.0
O636 O 0.92001 0.59874 0.51347 0.0
N637 N 0.91735 0.65084 0.67614 0.0
C638 C 0.93462 0.66001 0.71067 0.0
C639 C 0.93163 0.68303 0.71337 0.0
C640 C 0.90383 0.66836 0.65914 0.0
N641 N 0.91237 0.6883 0.68071 0.0
C642 C 0.95929 0.60481 0.67234 0.0
C643 C 0.97455 0.63472 0.57652 0.0
C644 C 0.99034 0.62416 0.61805 0.0
C645 C 0.98262 0.60841 0.66481 0.0
C646 C 0.95147 0.63063 0.58544 0.0
N647 N 0.94392 0.61621 0.634 0.0
H648 H 0.95374 0.59457 0.71345 0.0
H649 H 0.93971 0.641 0.55786 0.0
H650 H 0.94818 0.65052 0.73371 0.0
H651 H 0.88802 0.66654 0.63239 0.0
O652 O 0.91694 0.61479 0.75875 0.0
O653 O 0.88397 0.62157 0.70927 0.0
O654 O 0.90077 0.62489 0.57111 0.0
C655 C 0.89532 0.61878 0.76414 0.0
H656 H 0.87704 0.54184 0.61529 0.0
H657 H 0.94241 0.6949 0.73943 0.0
H658 H 0.9799 0.64747 0.54105 0.0
H659 H 0.99435 0.60043 0.69904 0.0
Co660 Co 0.64954 0.35739 0.60613 0.0
C661 C 0.69885 0.35591 0.5763 0.0
C662 C 0.69133 0.37965 0.65356 0.0
C663 C 0.71368 0.38223 0.6354 0.0
N664 N 0.68198 0.36278 0.61747 0.0
N665 N 0.71838 0.36723 0.5869 0.0
H666 H 0.69644 0.34479 0.53424 0.0
H667 H 0.68217 0.39081 0.68654 0.0
C668 C 0.65165 0.36526 0.75384 0.0
O669 O 0.66804 0.35028 0.75805 0.0
N670 N 0.61745 0.3527 0.59231 0.0
C671 C 0.60822 0.33566 0.55701 0.0
C672 C 0.5851 0.33832 0.55647 0.0
C673 C 0.59988 0.36575 0.61197 0.0
N674 N 0.57986 0.35712 0.59133 0.0
C675 C 0.66467 0.31097 0.60513 0.0
C676 C 0.63318 0.29581 0.69652 0.0
C677 C 0.64565 0.27982 0.66022 0.0
C678 C 0.66222 0.28771 0.61602 0.0
C679 C 0.63641 0.31889 0.68498 0.0
N680 N 0.6517 0.32632 0.63874 0.0
H681 H 0.67582 0.31633 0.56602 0.0
H682 H 0.62516 0.33068 0.70929 0.0
H683 H 0.6177 0.32232 0.53291 0.0
H684 H 0.60167 0.38112 0.64072 0.0
O685 O 0.65435 0.35187 0.51283 0.0
O686 O 0.64729 0.38547 0.5582 0.0
O687 O 0.64275 0.36973 0.69746 0.0
C688 C 0.65094 0.37347 0.50493 0.0
H689 H 0.72519 0.3951 0.65346 0.0
H690 H 0.57309 0.32751 0.5311 0.0
H691 H 0.61994 0.29058 0.73047 0.0
H692 H 0.67256 0.27603 0.58771 0.0
Co693 Co 0.91258 0.39958 0.86727 0.0
C694 C 0.91511 0.44838 0.83339 0.0
C695 C 0.8934 0.44287 0.91703 0.0
C696 C 0.8917 0.46526 0.89808 0.0
N697 N 0.90853 0.43226 0.87742 0.0
N698 N 0.90515 0.46861 0.84489 0.0
H699 H 0.92574 0.44514 0.79076 0.0
H700 H 0.88283 0.43466 0.95365 0.0
C701 C 0.90711 0.40233 0.01665 0.0
O702 O 0.9223 0.41856 0.0182 0.0
N703 N 0.91623 0.36738 0.8541 0.0
C704 C 0.93282 0.35772 0.81794 0.0
C705 C 0.92925 0.33479 0.81604 0.0
C706 C 0.90252 0.35026 0.873 0.0
N707 N 0.91019 0.33009 0.85036 0.0
C708 C 0.95977 0.41213 0.85653 0.0
C709 C 0.9748 0.38151 0.95077 0.0
C710 C 0.99067 0.39189 0.90907 0.0
C711 C 0.98307 0.40804 0.86323 0.0
C712 C 0.95179 0.38604 0.94257 0.0
N713 N 0.94434 0.40088 0.89501 0.0
H714 H 0.95424 0.42278 0.81632 0.0
H715 H 0.93994 0.37582 0.97029 0.0
H716 H 0.94644 0.36681 0.79387 0.0
H717 H 0.8874 0.35254 0.90262 0.0
O718 O 0.91629 0.40358 0.7724 0.0
O719 O 0.88355 0.39789 0.82404 0.0
O720 O 0.90156 0.39347 0.96097 0.0
C721 C 0.89448 0.40052 0.76839 0.0
H722 H 0.88011 0.47765 0.91845 0.0
H723 H 0.93962 0.32252 0.79015 0.0
H724 H 0.98002 0.36875 0.98639 0.0
H725 H 0.99483 0.41611 0.82933 0.0
Co726 Co 0.86653 0.66291 0.1282 0.0
C727 C 0.81829 0.66613 0.08972 0.0
C728 C 0.82304 0.64143 0.16645 0.0
C729 C 0.80088 0.64033 0.14478 0.0
N730 N 0.83392 0.65802 0.13303 0.0
N731 N 0.79808 0.65572 0.09612 0.0
H732 H 0.8219 0.67822 0.0508 0.0
H733 H 0.83096 0.62962 0.20028 0.0
C734 C 0.86191 0.65186 0.27594 0.0
O735 O 0.84446 0.66554 0.28157 0.0
N736 N 0.8987 0.66761 0.12069 0.0
C737 C 0.90877 0.68529 0.09055 0.0
C738 C 0.93174 0.68181 0.09075 0.0
C739 C 0.91558 0.65343 0.13813 0.0
N740 N 0.93601 0.66176 0.12039 0.0
C741 C 0.85582 0.71008 0.11892 0.0
C742 C 0.87957 0.7233 0.23056 0.0
C743 C 0.87417 0.73978 0.18278 0.0
C744 C 0.86107 0.73299 0.12797 0.0
C745 C 0.87535 0.70049 0.21742 0.0
N746 N 0.86388 0.69392 0.16151 0.0
H747 H 0.84746 0.70529 0.07343 0.0
H748 H 0.88339 0.6883 0.24943 0.0
H749 H 0.89999 0.6995 0.0685 0.0
H750 H 0.91291 0.6374 0.16283 0.0
O751 O 0.86387 0.66894 0.03417 0.0
O752 O 0.86961 0.63507 0.0786 0.0
O753 O 0.87173 0.64951 0.21972 0.0
C754 C 0.8673 0.64741 0.02536 0.0
H755 H 0.78834 0.62799 0.15981 0.0
H756 H 0.94432 0.6929 0.06903 0.0
H757 H 0.88854 0.72763 0.27575 0.0
H758 H 0.85636 0.74491 0.08945 0.0
Co759 Co 0.60578 0.61611 0.36408 0.0
C760 C 0.60082 0.56838 0.32427 0.0
C761 C 0.62147 0.57142 0.41169 0.0
C762 C 0.62173 0.54914 0.391 0.0
N763 N 0.6083 0.58346 0.36988 0.0
N764 N 0.609 0.54736 0.33552 0.0
H765 H 0.59048 0.57288 0.28182 0.0
H766 H 0.63149 0.57849 0.45153 0.0
C767 C 0.61081 0.63468 0.50436 0.0
O768 O 0.59646 0.65078 0.48839 0.0
N769 N 0.60367 0.64885 0.35508 0.0
C770 C 0.58816 0.66057 0.31954 0.0
C771 C 0.59517 0.68263 0.31336 0.0
C772 C 0.62019 0.66405 0.36885 0.0
N773 N 0.61523 0.68472 0.34427 0.0
C774 C 0.55842 0.61499 0.33464 0.0
C775 C 0.54218 0.61328 0.46316 0.0
C776 C 0.52687 0.61741 0.41093 0.0
C777 C 0.5353 0.61747 0.34585 0.0
C778 C 0.56541 0.61104 0.44955 0.0
N779 N 0.57347 0.61379 0.3862 0.0
H780 H 0.56414 0.61559 0.28379 0.0
H781 H 0.57667 0.60741 0.49034 0.0
H782 H 0.5734 0.65365 0.29575 0.0
H783 H 0.63589 0.65986 0.39383 0.0
O784 O 0.6033 0.61376 0.26844 0.0
O785 O 0.63561 0.61769 0.32245 0.0
O786 O 0.61554 0.61911 0.46187 0.0
C787 C 0.62506 0.616 0.26564 0.0
H788 H 0.63183 0.53565 0.41222 0.0
H789 H 0.58653 0.69602 0.28671 0.0
H790 H 0.53633 0.61229 0.51418 0.0
H791 H 0.5244 0.62075 0.30359 0.0
Co792 Co 0.36875 0.3543 0.12317 0.0
C793 C 0.31935 0.35369 0.0936 0.0
C794 C 0.32847 0.38068 0.15945 0.0
C795 C 0.30636 0.3838 0.13968 0.0
N796 N 0.33666 0.36157 0.13148 0.0
N797 N 0.30072 0.36684 0.09821 0.0
H798 H 0.32092 0.34026 0.05755 0.0
H799 H 0.33844 0.39269 0.18753 0.0
C800 C 0.36439 0.36454 0.26899 0.0
O801 O 0.346 0.35204 0.27005 0.0
N802 N 0.4007 0.34772 0.11228 0.0
C803 C 0.40981 0.32765 0.09559 0.0
C804 C 0.43277 0.33009 0.08996 0.0
C805 C 0.41827 0.36235 0.11383 0.0
N806 N 0.43827 0.35208 0.09967 0.0
C807 C 0.35388 0.30788 0.11759 0.0
C808 C 0.3804 0.29318 0.22245 0.0
C809 C 0.37123 0.27717 0.17894 0.0
C810 C 0.35701 0.28462 0.12775 0.0
C811 C 0.37691 0.31621 0.21066 0.0
N812 N 0.36438 0.32349 0.15732 0.0
H813 H 0.34524 0.3131 0.07304 0.0
H814 H 0.38688 0.32791 0.23949 0.0
H815 H 0.40049 0.31219 0.08744 0.0
H816 H 0.41623 0.38025 0.12329 0.0
O817 O 0.36458 0.34885 0.0291 0.0
O818 O 0.37292 0.38205 0.0745 0.0
O819 O 0.37537 0.36689 0.21463 0.0
C820 C 0.36914 0.37025 0.02105 0.0
H821 H 0.29576 0.39823 0.15116 0.0
H822 H 0.4442 0.31621 0.08073 0.0
H823 H 0.39206 0.28802 0.26128 0.0
H824 H 0.35022 0.27271 0.09194 0.0
Co825 Co 0.41374 0.61612 0.87676 0.0
C826 C 0.41312 0.56772 0.837 0.0
C827 C 0.39553 0.57289 0.92911 0.0
C828 C 0.39284 0.55063 0.91005 0.0
N829 N 0.40833 0.58367 0.88337 0.0
N830 N 0.40385 0.54749 0.85203 0.0
H831 H 0.42188 0.57105 0.79077 0.0
H832 H 0.3876 0.58076 0.97166 0.0
C833 C 0.4028 0.63665 1.01384 0.0
O834 O 0.41081 0.65633 0.99526 0.0
N835 N 0.41903 0.64844 0.86603 0.0
C836 C 0.43864 0.65827 0.84739 0.0
C837 C 0.43519 0.68112 0.83999 0.0
C838 C 0.40359 0.66541 0.86574 0.0
N839 N 0.41325 0.68565 0.85268 0.0
C840 C 0.45945 0.60179 0.85523 0.0
C841 C 0.4781 0.62428 0.96241 0.0
C842 C 0.49255 0.61632 0.91221 0.0
C843 C 0.48299 0.60373 0.86014 0.0
C844 C 0.45472 0.62157 0.95632 0.0
N845 N 0.4455 0.61163 0.90117 0.0
H846 H 0.45253 0.59379 0.81156 0.0
H847 H 0.44436 0.62923 0.99369 0.0
H848 H 0.45439 0.64952 0.83825 0.0
H849 H 0.38587 0.66313 0.87787 0.0
O850 O 0.41674 0.61355 0.78146 0.0
O851 O 0.38443 0.61981 0.83433 0.0
O852 O 0.4039 0.61948 0.97461 0.0
C853 C 0.39511 0.61728 0.77802 0.0
H854 H 0.38294 0.53792 0.93573 0.0
H855 H 0.44784 0.69344 0.82563 0.0
H856 H 0.4846 0.63399 1.00395 0.0
H857 H 0.49349 0.59642 0.82156 0.0
Co858 Co 0.15016 0.66428 0.63146 0.0
C859 C 0.19821 0.66682 0.59224 0.0
C860 C 0.19354 0.64417 0.67451 0.0
C861 C 0.2157 0.64265 0.65317 0.0
N862 N 0.18259 0.65937 0.63624 0.0
N863 N 0.21855 0.65669 0.60079 0.0
H864 H 0.19453 0.67882 0.55319 0.0
H865 H 0.18572 0.63388 0.7126 0.0
C866 C 0.13066 0.65591 0.76987 0.0
O867 O 0.113 0.66838 0.75487 0.0
N868 N 0.11761 0.669 0.62321 0.0
C869 C 0.10719 0.68826 0.6041 0.0
C870 C 0.0843 0.68448 0.60046 0.0
C871 C 0.10078 0.65347 0.62842 0.0
N872 N 0.0802 0.66273 0.61669 0.0
C873 C 0.15954 0.71072 0.60279 0.0
C874 C 0.14614 0.72849 0.72358 0.0
C875 C 0.14774 0.74284 0.66834 0.0
C876 C 0.15602 0.73397 0.60864 0.0
C877 C 0.14998 0.70522 0.71565 0.0
N878 N 0.1546 0.69633 0.6542 0.0
H879 H 0.16422 0.70433 0.55454 0.0
H880 H 0.14814 0.69467 0.75869 0.0
H881 H 0.11543 0.70401 0.59219 0.0
H882 H 0.10349 0.63599 0.64248 0.0
O883 O 0.15222 0.66684 0.53578 0.0
O884 O 0.14659 0.63474 0.58979 0.0
O885 O 0.1473 0.65422 0.72897 0.0
C886 C 0.14895 0.64518 0.53307 0.0
H887 H 0.22837 0.63109 0.6722 0.0
H888 H 0.07165 0.69677 0.58579 0.0
H889 H 0.14046 0.73489 0.77128 0.0
H890 H 0.15815 0.74469 0.56528 0.0
Co891 Co 0.10447 0.39875 0.3742 0.0
C892 C 0.10946 0.44654 0.33048 0.0
C893 C 0.10288 0.4444 0.43507 0.0
C894 C 0.10383 0.46693 0.41709 0.0
N895 N 0.10668 0.43156 0.3808 0.0
N896 N 0.10806 0.46822 0.35116 0.0
H897 H 0.11099 0.44182 0.27889 0.0
H898 H 0.09848 0.43791 0.48356 0.0
C899 C 0.11844 0.37952 0.51023 0.0
O900 O 0.11231 0.35922 0.49143 0.0
N901 N 0.10194 0.36612 0.3632 0.0
C902 C 0.0836 0.35513 0.33943 0.0
C903 C 0.08922 0.33291 0.32747 0.0
C904 C 0.11879 0.35058 0.36201 0.0
N905 N 0.11125 0.3301 0.34224 0.0
C906 C 0.05846 0.41298 0.36363 0.0
C907 C 0.04142 0.38487 0.46141 0.0
C908 C 0.0262 0.3962 0.41943 0.0
C909 C 0.03502 0.41127 0.37204 0.0
C910 C 0.06466 0.38741 0.45224 0.0
N911 N 0.07295 0.40051 0.40191 0.0
H912 H 0.06499 0.42352 0.32408 0.0
H913 H 0.07565 0.37732 0.48243 0.0
H914 H 0.06734 0.36283 0.32946 0.0
H915 H 0.13613 0.35409 0.37612 0.0
O916 O 0.09991 0.40091 0.27949 0.0
O917 O 0.13341 0.39755 0.32883 0.0
O918 O 0.11566 0.39653 0.47111 0.0
C919 C 0.12176 0.39892 0.2738 0.0
H920 H 0.10101 0.48121 0.44976 0.0
H921 H 0.07795 0.31971 0.31011 0.0
H922 H 0.03552 0.37296 0.49857 0.0
H923 H 0.02396 0.42105 0.34007 0.0
Co924 Co 0.36853 0.66364 0.41705 0.0
C925 C 0.32004 0.66517 0.45661 0.0
C926 C 0.32399 0.65133 0.35873 0.0
C927 C 0.30146 0.65017 0.37624 0.0
N928 N 0.33574 0.66075 0.40918 0.0
N929 N 0.29894 0.65897 0.4378 0.0
H930 H 0.32394 0.67233 0.50476 0.0
H931 H 0.3312 0.64484 0.31318 0.0
C932 C 0.37737 0.63551 0.29521 0.0
O933 O 0.37898 0.61756 0.33346 0.0
N934 N 0.4011 0.66629 0.42632 0.0
C935 C 0.41255 0.68428 0.45001 0.0
C936 C 0.4351 0.67873 0.45465 0.0
C937 C 0.41676 0.64985 0.4186 0.0
N938 N 0.43781 0.65704 0.435 0.0
C939 C 0.35597 0.71027 0.43082 0.0
C940 C 0.38245 0.72614 0.32727 0.0
C941 C 0.37263 0.74176 0.37108 0.0
C942 C 0.3585 0.7336 0.4218 0.0
C943 C 0.37944 0.70297 0.33782 0.0
N944 N 0.3669 0.69527 0.39037 0.0
H945 H 0.34632 0.70431 0.47289 0.0
H946 H 0.38884 0.69137 0.30688 0.0
H947 H 0.405 0.70023 0.46436 0.0
H948 H 0.41261 0.63272 0.4046 0.0
O949 O 0.36585 0.66746 0.51188 0.0
O950 O 0.36992 0.63439 0.46123 0.0
O951 O 0.37247 0.65467 0.32083 0.0
C952 C 0.3679 0.64566 0.51672 0.0
H953 H 0.28824 0.6423 0.34703 0.0
H954 H 0.44847 0.68986 0.47148 0.0
H955 H 0.39367 0.73169 0.28786 0.0
H956 H 0.35028 0.74512 0.45607 0.0
Co957 Co 0.10454 0.61798 0.17241 0.0
C958 C 0.10662 0.56965 0.21162 0.0
C959 C 0.10541 0.57312 0.10548 0.0
C960 C 0.10616 0.55036 0.12118 0.0
N961 N 0.10587 0.58525 0.16238 0.0
N962 N 0.10695 0.54832 0.18802 0.0
H963 H 0.10687 0.5736 0.26408 0.0
H964 H 0.10419 0.58019 0.05595 0.0
C965 C 0.13161 0.62455 0.04609 0.0
O966 O 0.15049 0.62393 0.08061 0.0
N967 N 0.10314 0.65038 0.18392 0.0
C968 C 0.08813 0.6613 0.22302 0.0
C969 C 0.09476 0.68348 0.22925 0.0
C970 C 0.11872 0.66602 0.16675 0.0
N971 N 0.11395 0.68631 0.19409 0.0
C972 C 0.05778 0.60601 0.18576 0.0
C973 C 0.04234 0.63695 0.09275 0.0
C974 C 0.02668 0.62607 0.13411 0.0
C975 C 0.03447 0.60981 0.17948 0.0
C976 C 0.06535 0.63271 0.10062 0.0
N977 N 0.07284 0.61792 0.14799 0.0
H978 H 0.06382 0.59458 0.22388 0.0
H979 H 0.07716 0.64278 0.07231 0.0
H980 H 0.07389 0.65339 0.2476 0.0
H981 H 0.13379 0.66246 0.13806 0.0
O982 O 0.10107 0.61488 0.26709 0.0
O983 O 0.1341 0.61819 0.21557 0.0
O984 O 0.11265 0.6221 0.07559 0.0
C985 C 0.12292 0.61653 0.27147 0.0
H986 H 0.10554 0.53642 0.08625 0.0
H987 H 0.08642 0.69648 0.25829 0.0
H988 H 0.03691 0.64963 0.05719 0.0
H989 H 0.02284 0.60126 0.21271 0.0
Co990 Co 0.15157 0.35462 0.9144 0.0
C991 C 0.19993 0.35599 0.95606 0.0
C992 C 0.19618 0.36536 0.85348 0.0
C993 C 0.21863 0.36765 0.87106 0.0
N994 N 0.18432 0.35823 0.90698 0.0
N995 N 0.22089 0.36182 0.93556 0.0
H996 H 0.19607 0.35096 1.00658 0.0
H997 H 0.18918 0.3691 0.80506 0.0
C998 C 0.14361 0.38235 0.79148 0.0
O999 O 0.14233 0.40054 0.82878 0.0
N1000 N 0.11909 0.35085 0.92343 0.0
C1001 C 0.10918 0.33376 0.95691 0.0
C1002 C 0.08618 0.33695 0.95648 0.0
C1003 C 0.10193 0.36454 0.90407 0.0
N1004 N 0.08158 0.35618 0.92294 0.0
C1005 C 0.16451 0.30807 0.93043 0.0
C1006 C 0.13727 0.29216 0.82862 0.0
C1007 C 0.14644 0.27669 0.87395 0.0
C1008 C 0.161 0.2847 0.9238 0.0
C1009 C 0.14108 0.31521 0.83708 0.0
N1010 N 0.15387 0.323 0.88894 0.0
H1011 H 0.17435 0.31424 0.97198 0.0
H1012 H 0.13186 0.32673 0.80545 0.0
H1013 H 0.11815 0.32007 0.98111 0.0
H1014 H 0.1042 0.38025 0.87729 0.0
O1015 O 0.15413 0.35134 1.00944 0.0
O1016 O 0.14914 0.38397 0.95678 0.0
O1017 O 0.14767 0.36318 0.81816 0.0
C1018 C 0.1511 0.37308 1.01291 0.0
H1019 H 0.23223 0.37335 0.83905 0.0
H1020 H 0.07378 0.32623 0.9806 0.0
H1021 H 0.12594 0.28658 0.78947 0.0
H1022 H 0.16823 0.27323 0.96011 0.0
Co1023 Co 0.41118 0.40073 0.6596 0.0
C1024 C 0.41416 0.44973 0.69153 0.0
C1025 C 0.39108 0.4433 0.61156 0.0
C1026 C 0.38868 0.4655 0.63103 0.0
N1027 N 0.40733 0.43332 0.64874 0.0
N1028 N 0.4031 0.46945 0.68158 0.0
H1029 H 0.42502 0.4468 0.73397 0.0
H1030 H 0.38 0.43462 0.57724 0.0
C1031 C 0.40403 0.40305 0.51067 0.0
O1032 O 0.41959 0.41886 0.50604 0.0
N1033 N 0.4142 0.36854 0.67266 0.0
C1034 C 0.42977 0.3582 0.71121 0.0
C1035 C 0.42393 0.33577 0.71766 0.0
C1036 C 0.39912 0.35237 0.65603 0.0
N1037 N 0.40469 0.33227 0.68315 0.0
C1038 C 0.45848 0.41278 0.66547 0.0
C1039 C 0.47215 0.38132 0.57189 0.0
C1040 C 0.48857 0.39172 0.61171 0.0
C1041 C 0.48164 0.40831 0.65714 0.0
C1042 C 0.44931 0.38619 0.58183 0.0
N1043 N 0.44256 0.40145 0.62905 0.0
H1044 H 0.45344 0.42391 0.70516 0.0
H1045 H 0.43703 0.37603 0.55557 0.0
H1046 H 0.44386 0.36661 0.73511 0.0
H1047 H 0.38381 0.35548 0.62793 0.0
O1048 O 0.4161 0.40477 0.75386 0.0
O1049 O 0.38266 0.39945 0.7057 0.0
O1050 O 0.3991 0.39464 0.56737 0.0
C1051 C 0.39438 0.40162 0.76017 0.0
H1052 H 0.37614 0.47735 0.61278 0.0
H1053 H 0.43286 0.32307 0.74633 0.0
H1054 H 0.47684 0.36839 0.5362 0.0
H1055 H 0.49384 0.41652 0.68937 0.0
C1056 C 0.11431 0.11948 0.14631 0.0
C1057 C 0.12295 0.12491 0.08303 0.0
C1058 C 0.12325 0.12927 0.20432 0.0
C1059 C 0.14126 0.14491 0.20167 0.0
H1060 H 0.10024 0.10785 0.15125 0.0
H1061 H 0.11573 0.12467 0.25161 0.0
S1062 S 0.17086 0.16404 0.04846 0.0
N1063 N 0.15134 0.14632 0.02154 0.0
N1064 N 0.1679 0.16479 0.13012 0.0
C1065 C 0.15035 0.1502 0.13878 0.0
C1066 C 0.14128 0.14019 0.07969 0.0
C1067 C 0.11991 0.90054 0.4146 0.0
C1068 C 0.12494 0.88179 0.45517 0.0
C1069 C 0.12582 0.90072 0.34657 0.0
C1070 C 0.13723 0.88229 0.31695 0.0
H1071 H 0.11038 0.91464 0.43467 0.0
H1072 H 0.12069 0.91508 0.31662 0.0
S1073 S 0.15728 0.83071 0.4056 0.0
N1074 N 0.14378 0.84541 0.46307 0.0
N1075 N 0.15564 0.84596 0.33693 0.0
C1076 C 0.14364 0.86415 0.35868 0.0
C1077 C 0.13729 0.86384 0.42726 0.0
C1078 C 0.39215 0.90156 0.68399 0.0
C1079 C 0.38115 0.88259 0.71216 0.0
C1080 C 0.39866 0.90192 0.61635 0.0
C1081 C 0.39462 0.88323 0.57463 0.0
H1082 H 0.3965 0.91594 0.71487 0.0
H1083 H 0.40786 0.91642 0.5975 0.0
S1084 S 0.36364 0.83088 0.62004 0.0
N1085 N 0.36429 0.84576 0.68952 0.0
N1086 N 0.37707 0.84631 0.56407 0.0
C1087 C 0.38271 0.86473 0.60109 0.0
C1088 C 0.37582 0.86444 0.6693 0.0
C1089 C 0.37714 0.15499 0.84311 0.0
C1090 C 0.38007 0.13534 0.80432 0.0
C1091 C 0.3831 0.15554 0.91052 0.0
C1092 C 0.39217 0.13645 0.94287 0.0
H1093 H 0.37055 0.17038 0.82107 0.0
H1094 H 0.38083 0.17129 0.93734 0.0
S1095 S 0.40255 0.08039 0.86552 0.0
N1096 N 0.39204 0.0959 0.80441 0.0
N1097 N 0.40326 0.09703 0.93154 0.0
C1098 C 0.39453 0.1164 0.90569 0.0
C1099 C 0.3885 0.11583 0.83644 0.0
C1100 C 0.86699 0.86856 0.89865 0.0
C1101 C 0.87282 0.87653 0.83488 0.0
C1102 C 0.87567 0.87874 0.95645 0.0
C1103 C 0.89035 0.89752 0.95314 0.0
H1104 H 0.85597 0.85403 0.90416 0.0
H1105 H 0.87088 0.87169 1.00422 0.0
S1106 S 0.91029 0.92553 0.7983 0.0
N1107 N 0.89382 0.90483 0.77198 0.0
N1108 N 0.90996 0.92394 0.88035 0.0
C1109 C 0.89594 0.90598 0.88971 0.0
C1110 C 0.88726 0.8955 0.83077 0.0
C1111 C 0.89295 0.13037 0.69972 0.0
C1112 C 0.87471 0.14576 0.69748 0.0
C1113 C 0.90219 0.1211 0.64145 0.0
C1114 C 0.89367 0.12681 0.57821 0.0
H1115 H 0.90037 0.1255 0.74693 0.0
H1116 H 0.91635 0.10956 0.64623 0.0
S1117 S 0.84561 0.16585 0.54443 0.0
N1118 N 0.84818 0.16596 0.62625 0.0
N1119 N 0.86543 0.14852 0.51701 0.0
C1120 C 0.87525 0.14199 0.57516 0.0
C1121 C 0.86582 0.15145 0.6346 0.0
C1122 C 0.64736 0.15389 0.38575 0.0
C1123 C 0.64163 0.14528 0.3226 0.0
C1124 C 0.63787 0.14493 0.44423 0.0
C1125 C 0.62219 0.12694 0.4423 0.0
H1126 H 0.65912 0.16786 0.39028 0.0
H1127 H 0.6428 0.15236 0.49135 0.0
S1128 S 0.60171 0.09788 0.28968 0.0
N1129 N 0.61949 0.11724 0.26206 0.0
N1130 N 0.60156 0.10069 0.37141 0.0
C1131 C 0.61642 0.11803 0.37952 0.0
C1132 C 0.62614 0.12711 0.31996 0.0
C1133 C 0.62768 0.90151 0.18001 0.0
C1134 C 0.64056 0.88369 0.20757 0.0
C1135 C 0.625 0.904 0.11059 0.0
C1136 C 0.6355 0.88907 0.06544 0.0
H1137 H 0.61924 0.91351 0.21236 0.0
H1138 H 0.61475 0.91786 0.09216 0.0
S1139 S 0.67088 0.83941 0.11113 0.0
N1140 N 0.66369 0.85065 0.18334 0.0
N1141 N 0.65906 0.85555 0.0537 0.0
C1142 C 0.64854 0.87126 0.09224 0.0
C1143 C 0.65095 0.8685 0.16289 0.0
C1144 C 0.62283 0.65516 0.60804 0.0
C1145 C 0.62067 0.6346 0.57308 0.0
C1146 C 0.63104 0.65591 0.67374 0.0
C1147 C 0.63723 0.63608 0.70841 0.0
H1148 H 0.61808 0.67095 0.58442 0.0
H1149 H 0.63214 0.67225 0.6978 0.0
S1150 S 0.63489 0.57772 0.63942 0.0
N1151 N 0.62565 0.59385 0.57801 0.0
N1152 N 0.64085 0.59509 0.7014 0.0
C1153 C 0.63541 0.61536 0.67371 0.0
C1154 C 0.62723 0.61466 0.60627 0.0
C1155 C 0.64897 0.36844 0.87813 0.0
C1156 C 0.64292 0.37662 0.81479 0.0
C1157 C 0.64023 0.37821 0.93635 0.0
C1158 C 0.62517 0.39672 0.93389 0.0
H1159 H 0.66028 0.3541 0.883 0.0
H1160 H 0.64526 0.37103 0.98374 0.0
S1161 S 0.60458 0.42517 0.78043 0.0
N1162 N 0.62137 0.40487 0.75317 0.0
N1163 N 0.60501 0.42317 0.86239 0.0
C1164 C 0.61931 0.40538 0.8709 0.0
C1165 C 0.62814 0.39535 0.81151 0.0
C1166 C 0.87994 0.37658 0.07629 0.0
C1167 C 0.89673 0.39352 0.07935 0.0
C1168 C 0.87015 0.36752 0.13419 0.0
C1169 C 0.8767 0.3749 0.19799 0.0
H1170 H 0.8743 0.37009 0.02866 0.0
H1171 H 0.85748 0.3544 0.12865 0.0
S1172 S 0.91967 0.41926 0.23408 0.0
N1173 N 0.91929 0.41751 0.15209 0.0
N1174 N 0.90085 0.40069 0.26048 0.0
C1175 C 0.89332 0.39202 0.20185 0.0
C1176 C 0.90332 0.40125 0.1428 0.0
C1177 C 0.86621 0.64884 0.40029 0.0
C1178 C 0.87219 0.64122 0.33627 0.0
C1179 C 0.87689 0.6403 0.45758 0.0
C1180 C 0.89395 0.62363 0.45359 0.0
H1181 H 0.8535 0.6619 0.40636 0.0
H1182 H 0.87177 0.64702 0.50545 0.0
S1183 S 0.91515 0.5971 0.29788 0.0
N1184 N 0.89575 0.61526 0.27256 0.0
N1185 N 0.91583 0.59939 0.37976 0.0
C1186 C 0.89977 0.61551 0.38992 0.0
C1187 C 0.88891 0.62424 0.33153 0.0
C1188 C 0.40153 0.39911 0.38629 0.0
C1189 C 0.39289 0.3939 0.44976 0.0
C1190 C 0.39207 0.38972 0.32839 0.0
C1191 C 0.37345 0.37482 0.3313 0.0
H1192 H 0.41599 0.41022 0.38113 0.0
H1193 H 0.39958 0.39413 0.28092 0.0
S1194 S 0.34385 0.35632 0.48519 0.0
N1195 N 0.36406 0.37332 0.51181 0.0
N1196 N 0.34642 0.35571 0.4034 0.0
C1197 C 0.36436 0.36979 0.3944 0.0
C1198 C 0.37404 0.37929 0.45341 0.0
C1199 C 0.38553 0.65386 0.11511 0.0
C1200 C 0.39449 0.63457 0.08358 0.0
C1201 C 0.37946 0.65366 0.18254 0.0
C1202 C 0.38224 0.63418 0.22221 0.0
H1203 H 0.38341 0.66949 0.08756 0.0
H1204 H 0.37291 0.66917 0.20387 0.0
S1205 S 0.40473 0.5789 0.16347 0.0
N1206 N 0.40546 0.5952 0.09669 0.0
N1207 N 0.39421 0.59472 0.22382 0.0
C1208 C 0.3907 0.61451 0.19094 0.0
C1209 C 0.39675 0.61471 0.12166 0.0
C1210 C 0.15182 0.63783 0.9418 0.0
C1211 C 0.13187 0.63013 0.97326 0.0
C1212 C 0.15173 0.64525 0.87495 0.0
C1213 C 0.13162 0.64553 0.83734 0.0
H1214 H 0.16753 0.63876 0.96947 0.0
H1215 H 0.16728 0.65168 0.85353 0.0
S1216 S 0.07551 0.62435 0.89216 0.0
N1217 N 0.09198 0.62098 0.95779 0.0
N1218 N 0.09179 0.63554 0.83407 0.0
C1219 C 0.11185 0.63698 0.86705 0.0
C1220 C 0.11198 0.62912 0.93439 0.0
C1221 C 0.14108 0.36336 0.68044 0.0
C1222 C 0.13911 0.3833 0.71836 0.0
C1223 C 0.13511 0.36277 0.61306 0.0
C1224 C 0.12696 0.3821 0.57974 0.0
H1225 H 0.14689 0.34777 0.70311 0.0
H1226 H 0.13658 0.34675 0.58716 0.0
S1227 S 0.12027 0.4392 0.65412 0.0
N1228 N 0.12961 0.42339 0.71617 0.0
N1229 N 0.11858 0.42223 0.589 0.0
C1230 C 0.12587 0.40247 0.61593 0.0
C1231 C 0.13185 0.40307 0.68522 0.0
C1232 C 0.1315 0.11633 0.58716 0.0
C1233 C 0.14783 0.13338 0.57842 0.0
C1234 C 0.12463 0.1098 0.65099 0.0
C1235 C 0.13432 0.11965 0.70789 0.0
H1236 H 0.1228 0.10917 0.54458 0.0
H1237 H 0.11095 0.0977 0.65578 0.0
S1238 S 0.17962 0.16314 0.7111 0.0
N1239 N 0.17476 0.15871 0.63117 0.0
N1240 N 0.16238 0.14594 0.75148 0.0
C1241 C 0.15188 0.13547 0.69972 0.0
C1242 C 0.1585 0.14249 0.63474 0.0
C1243 C 0.12264 0.9053 0.88126 0.0
C1244 C 0.13211 0.89528 0.82409 0.0
C1245 C 0.12914 0.89838 0.94532 0.0
C1246 C 0.14488 0.88081 0.95413 0.0
H1247 H 0.10945 0.91795 0.87644 0.0
H1248 H 0.1207 0.9058 0.98796 0.0
S1249 S 0.17607 0.85049 0.82085 0.0
N1250 N 0.15947 0.86835 0.78059 0.0
N1251 N 0.17107 0.85475 0.90075 0.0
C1252 C 0.15531 0.87148 0.89748 0.0
C1253 C 0.14911 0.8789 0.8324 0.0
C1254 C 0.38518 0.89914 0.08368 0.0
C1255 C 0.37076 0.88047 0.07506 0.0
C1256 C 0.39157 0.90631 0.14762 0.0
C1257 C 0.38324 0.89548 0.20508 0.0
H1258 H 0.39285 0.90727 0.04088 0.0
H1259 H 0.40395 0.91974 0.15207 0.0
S1260 S 0.34306 0.84737 0.20941 0.0
N1261 N 0.34702 0.85233 0.12931 0.0
N1262 N 0.35847 0.86635 0.24928 0.0
C1263 C 0.36749 0.87792 0.19718 0.0
C1264 C 0.36141 0.87025 0.13213 0.0
C1265 C 0.39365 0.11309 0.37062 0.0
C1266 C 0.384 0.12298 0.31348 0.0
C1267 C 0.38685 0.11966 0.43467 0.0
C1268 C 0.37057 0.13672 0.44352 0.0
H1269 H 0.40723 0.10086 0.36582 0.0
H1270 H 0.39553 0.11248 0.47728 0.0
S1271 S 0.33862 0.16634 0.31044 0.0
N1272 N 0.35587 0.14916 0.27005 0.0
N1273 N 0.34356 0.16199 0.39036 0.0
C1274 C 0.35988 0.1458 0.38693 0.0
C1275 C 0.36646 0.13878 0.32181 0.0
C1276 C 0.86882 0.87984 0.33839 0.0
C1277 C 0.88828 0.89328 0.32993 0.0
C1278 C 0.86134 0.87368 0.40217 0.0
C1279 C 0.87268 0.88134 0.45932 0.0
H1280 H 0.85997 0.87309 0.29552 0.0
H1281 H 0.84696 0.86241 0.40678 0.0
S1282 S 0.92398 0.91747 0.46432 0.0
N1283 N 0.9184 0.91445 0.38427 0.0
N1284 N 0.90393 0.90342 0.50382 0.0
C1285 C 0.89151 0.89562 0.45163 0.0
C1286 C 0.89943 0.90146 0.38691 0.0
C1287 C 0.86581 0.13393 0.19291 0.0
C1288 C 0.88383 0.11866 0.20169 0.0
C1289 C 0.85899 0.14057 0.12908 0.0
C1290 C 0.86961 0.13171 0.07224 0.0
H1291 H 0.858 0.14204 0.23549 0.0
H1292 H 0.84607 0.15349 0.12425 0.0
S1293 S 0.91567 0.08902 0.06882 0.0
N1294 N 0.91077 0.09333 0.14876 0.0
N1295 N 0.89759 0.10537 0.02853 0.0
C1296 C 0.88639 0.11505 0.08034 0.0
C1297 C 0.89363 0.10865 0.1453 0.0
C1298 C 0.65267 0.1345 0.82669 0.0
C1299 C 0.63524 0.11857 0.81817 0.0
C1300 C 0.65947 0.14123 0.89045 0.0
C1301 C 0.64955 0.13172 0.94752 0.0
H1302 H 0.65988 0.14312 0.78406 0.0
H1303 H 0.67171 0.15478 0.89507 0.0
S1304 S 0.60508 0.08741 0.95141 0.0
N1305 N 0.60946 0.09217 0.87141 0.0
N1306 N 0.62278 0.10421 0.9915 0.0
C1307 C 0.6334 0.11445 0.93956 0.0
C1308 C 0.62609 0.10802 0.87466 0.0
C1309 C 0.64792 0.87871 0.69271 0.0
C1310 C 0.63011 0.89415 0.70244 0.0
C1311 C 0.65411 0.87171 0.62823 0.0
C1312 C 0.64316 0.8804 0.57128 0.0
H1313 H 0.65621 0.87098 0.73515 0.0
H1314 H 0.66711 0.85889 0.62299 0.0
S1315 S 0.5964 0.92217 0.56967 0.0
N1316 N 0.60216 0.91849 0.6494 0.0
N1317 N 0.61441 0.90593 0.52884 0.0
C1318 C 0.62623 0.89675 0.58026 0.0
C1319 C 0.61954 0.90346 0.64571 0.0
C1320 C 0.63312 0.6166 0.07887 0.0
C1321 C 0.64868 0.63431 0.07007 0.0
C1322 C 0.62672 0.60959 0.14299 0.0
C1323 C 0.63611 0.61961 0.2004 0.0
H1324 H 0.62454 0.60932 0.03626 0.0
H1325 H 0.61343 0.59707 0.14768 0.0
S1326 S 0.67956 0.6648 0.20378 0.0
N1327 N 0.6747 0.66047 0.1238 0.0
N1328 N 0.66315 0.64677 0.244 0.0
C1329 C 0.653 0.63605 0.1921 0.0
C1330 C 0.65915 0.64355 0.12694 0.0
C1331 C 0.63185 0.40039 0.42864 0.0
C1332 C 0.64794 0.38316 0.43817 0.0
C1333 C 0.62494 0.40658 0.36456 0.0
C1334 C 0.63429 0.39611 0.30812 0.0
H1335 H 0.62341 0.40806 0.47088 0.0
H1336 H 0.61154 0.41899 0.35926 0.0
S1337 S 0.67922 0.35225 0.30673 0.0
N1338 N 0.67457 0.35723 0.38646 0.0
N1339 N 0.66199 0.36926 0.26559 0.0
C1340 C 0.65167 0.38014 0.31691 0.0
C1341 C 0.65839 0.37353 0.38221 0.0
C1342 C 0.8925 0.40698 0.64593 0.0
C1343 C 0.88338 0.397 0.70347 0.0
C1344 C 0.88476 0.40083 0.5825 0.0
C1345 C 0.86807 0.38407 0.57459 0.0
H1346 H 0.90631 0.41897 0.64982 0.0
H1347 H 0.89304 0.40812 0.5394 0.0
S1348 S 0.83754 0.35409 0.7094 0.0
N1349 N 0.8555 0.37084 0.74868 0.0
N1350 N 0.8415 0.35882 0.6292 0.0
C1351 C 0.85802 0.3748 0.63169 0.0
C1352 C 0.86554 0.38141 0.69631 0.0
C1353 C 0.89236 0.61221 0.88651 0.0
C1354 C 0.88507 0.62376 0.82926 0.0
C1355 C 0.88523 0.61906 0.95001 0.0
C1356 C 0.87114 0.63808 0.95821 0.0
H1357 H 0.90411 0.59819 0.88229 0.0
H1358 H 0.89185 0.61017 0.99302 0.0
S1359 S 0.84722 0.67383 0.82358 0.0
N1360 N 0.86237 0.65452 0.78432 0.0
N1361 N 0.84962 0.66786 0.90359 0.0
C1362 C 0.86324 0.64933 0.90111 0.0
C1363 C 0.87005 0.64204 0.83655 0.0
C1364 C 0.38727 0.39863 0.94661 0.0
C1365 C 0.37242 0.38019 0.95438 0.0
C1366 C 0.39347 0.40635 0.88324 0.0
C1367 C 0.38454 0.3963 0.82563 0.0
H1368 H 0.39514 0.40639 0.98965 0.0
H1369 H 0.40588 0.41978 0.87925 0.0
S1370 S 0.34366 0.34865 0.81909 0.0
N1371 N 0.34804 0.35284 0.89936 0.0
N1372 N 0.35921 0.36773 0.78014 0.0
C1373 C 0.36868 0.37869 0.83273 0.0
C1374 C 0.36276 0.37051 0.89722 0.0
C1375 C 0.39354 0.61101 0.65534 0.0
C1376 C 0.38423 0.62108 0.71269 0.0
C1377 C 0.38668 0.61768 0.59136 0.0
C1378 C 0.37067 0.63501 0.5827 0.0
H1379 H 0.40695 0.59858 0.65988 0.0
H1380 H 0.39516 0.61037 0.54863 0.0
S1381 S 0.33954 0.66514 0.71632 0.0
N1382 N 0.35663 0.64772 0.7565 0.0
N1383 N 0.3442 0.66068 0.63631 0.0
C1384 C 0.36026 0.64424 0.6395 0.0
C1385 C 0.36691 0.63714 0.70459 0.0
C1386 C 0.15632 0.64312 0.41087 0.0
C1387 C 0.14594 0.63391 0.46796 0.0
C1388 C 0.1504 0.63576 0.34671 0.0
C1389 C 0.13353 0.61931 0.33757 0.0
H1390 H 0.16834 0.65687 0.41565 0.0
H1391 H 0.15778 0.64426 0.30412 0.0
S1392 S 0.1027 0.58851 0.47065 0.0
N1393 N 0.11947 0.60611 0.5112 0.0
N1394 N 0.10785 0.59273 0.39079 0.0
C1395 C 0.12402 0.60904 0.3943 0.0
C1396 C 0.13038 0.61621 0.45955 0.0
C1397 C 0.15034 0.38124 0.19915 0.0
C1398 C 0.13229 0.39644 0.20767 0.0
C1399 C 0.15743 0.37482 0.13527 0.0
C1400 C 0.14709 0.38386 0.07799 0.0
H1401 H 0.15797 0.37304 0.2419 0.0
H1402 H 0.17039 0.36194 0.13068 0.0
S1403 S 0.10102 0.42644 0.07388 0.0
N1404 N 0.10551 0.42182 0.15392 0.0
N1405 N 0.11932 0.41027 0.03388 0.0
C1406 C 0.13026 0.40041 0.08593 0.0
C1407 C 0.12269 0.40656 0.15089 0.0
C1408 C 0.27399 0.14009 0.51073 0.0
C1409 C 0.27793 0.15872 0.55258 0.0
C1410 C 0.25452 0.1389 0.47062 0.0
C1411 C 0.2384 0.15653 0.46996 0.0
H1412 H 0.28593 0.12617 0.50987 0.0
H1413 H 0.25195 0.12388 0.4408 0.0
S1414 S 0.24273 0.21045 0.56454 0.0
N1415 N 0.26521 0.19583 0.58783 0.0
N1416 N 0.22915 0.19424 0.51081 0.0
C1417 C 0.24268 0.17565 0.51015 0.0
C1418 C 0.26229 0.1766 0.5518 0.0
C1419 C 0.11228 0.98748 0.79436 0.0
C1420 C 0.11216 0.98915 0.72434 0.0
C1421 C 0.11307 1.00689 0.83478 0.0
C1422 C 0.11352 0.02871 0.80682 0.0
H1423 H 0.11224 0.97103 0.81814 0.0
H1424 H 0.11319 1.00484 0.88836 0.0
S1425 S 0.11367 0.04237 0.62627 0.0
N1426 N 0.11228 0.01448 0.62901 0.0
N1427 N 0.1145 0.05078 0.70458 0.0
C1428 C 0.11343 0.03061 0.7369 0.0
C1429 C 0.11259 0.01089 0.69583 0.0
C1430 C 0.25868 0.86773 0.07066 0.0
C1431 C 0.23873 0.85659 0.05084 0.0
C1432 C 0.27822 0.86735 0.03076 0.0
C1433 C 0.27859 0.85583 0.96937 0.0
H1434 H 0.25908 0.87707 0.11702 0.0
H1435 H 0.29307 0.87641 0.04767 0.0
S1436 S 0.23168 0.8218 0.89825 0.0
N1437 N 0.2212 0.83218 0.96805 0.0
N1438 N 0.25777 0.83165 0.89311 0.0
C1439 C 0.25891 0.84426 0.94956 0.0
C1440 C 0.23904 0.84459 0.99023 0.0
C1441 C 0.4066 0.01108 0.32226 0.0
C1442 C 0.40686 0.98927 0.29411 0.0
C1443 C 0.40619 0.03057 0.28224 0.0
C1444 C 0.40589 0.02912 0.2122 0.0
H1445 H 0.40671 0.0131 0.37584 0.0
H1446 H 0.40561 0.04691 0.30656 0.0
S1447 S 0.40642 0.97606 0.11325 0.0
N1448 N 0.40643 0.96743 0.19142 0.0
N1449 N 0.40647 1.00397 0.11644 0.0
C1450 C 0.40636 1.00742 0.18332 0.0
C1451 C 0.4067 0.98754 0.22411 0.0
C1452 C 0.76002 0.85697 0.45701 0.0
C1453 C 0.73833 0.86109 0.48344 0.0
C1454 C 0.77946 0.85765 0.49728 0.0
C1455 C 0.77807 0.86258 0.5658 0.0
H1456 H 0.76201 0.85315 0.40463 0.0
H1457 H 0.79575 0.85481 0.47409 0.0
S1458 S 0.72537 0.8745 0.66012 0.0
N1459 N 0.71673 0.87053 0.58282 0.0
N1460 N 0.7531 0.87104 0.65865 0.0
C1461 C 0.75647 0.86649 0.59309 0.0
C1462 C 0.73667 0.86588 0.55203 0.0
C1463 C 0.90327 0.00918 0.20559 0.0
C1464 C 0.90544 0.98771 0.23534 0.0
C1465 C 0.90365 0.02908 0.24397 0.0
C1466 C 0.90564 0.02823 0.31382 0.0
H1467 H 0.90104 0.01051 0.15221 0.0
H1468 H 0.90159 0.0452 0.21906 0.0
S1469 S 0.91175 0.97633 0.41592 0.0
N1470 N 0.90985 0.96686 0.33872 0.0
N1471 N 0.91023 1.0042 0.41089 0.0
C1472 C 0.908 1.0069 0.34406 0.0
C1473 C 0.90801 0.98667 0.30487 0.0
C1474 C 0.78034 0.15635 0.03664 0.0
C1475 C 0.77873 0.15453 0.96679 0.0
C1476 C 0.76091 0.15642 0.07703 0.0
C1477 C 0.73911 0.15498 0.04917 0.0
H1478 H 0.79677 0.15721 0.06042 0.0
H1479 H 0.7629 0.15768 0.13051 0.0
S1480 S 0.72564 0.14961 0.86925 0.0
N1481 N 0.75353 0.15129 0.87173 0.0
N1482 N 0.71712 0.15103 0.94743 0.0
C1483 C 0.73726 0.15317 0.97945 0.0
C1484 C 0.75703 0.15301 0.9384 0.0
C1485 C 0.60787 0.03112 0.77581 0.0
C1486 C 0.6116 0.02985 0.70658 0.0
C1487 C 0.60769 0.01161 0.81577 0.0
C1488 C 0.61106 0.98996 0.7883 0.0
H1489 H 0.6057 0.04737 0.79981 0.0
H1490 H 0.60498 0.01349 0.86879 0.0
S1491 S 0.62149 0.97726 0.60998 0.0
N1492 N 0.61831 1.005 0.61226 0.0
N1493 N 0.61854 0.96846 0.68754 0.0
C1494 C 0.61457 0.98838 0.71914 0.0
C1495 C 0.61476 1.00827 0.67837 0.0
C1496 C 0.73808 0.66359 0.0378 0.0
C1497 C 0.73974 0.66073 0.96812 0.0
C1498 C 0.75718 0.66193 0.07926 0.0
C1499 C 0.77875 0.65775 0.05272 0.0
H1500 H 0.72193 0.66737 0.06065 0.0
H1501 H 0.75516 0.66417 0.13245 0.0
S1502 S 0.79237 0.64696 0.87554 0.0
N1503 N 0.76484 0.65191 0.87569 0.0
N1504 N 0.8007 0.6495 0.95369 0.0
C1505 C 0.78075 0.65471 0.98363 0.0
C1506 C 0.76128 0.65607 0.94135 0.0
C1507 C 0.6049 0.50612 0.31829 0.0
C1508 C 0.60794 0.52797 0.29186 0.0
C1509 C 0.60557 0.48684 0.27726 0.0
C1510 C 0.60977 0.48869 0.20844 0.0
H1511 H 0.60224 0.50395 0.37126 0.0
H1512 H 0.60366 0.47032 0.29993 0.0
S1513 S 0.61878 0.54196 0.11457 0.0
N1514 N 0.61512 0.55026 0.19235 0.0
N1515 N 0.61646 0.51411 0.11555 0.0
C1516 C 0.61253 0.51044 0.18132 0.0
C1517 C 0.61157 0.53006 0.22288 0.0
C1518 C 0.74881 0.38673 0.52471 0.0
C1519 C 0.73849 0.36652 0.54604 0.0
C1520 C 0.76801 0.38641 0.48352 0.0
C1521 C 0.77788 0.36588 0.46295 0.0
H1522 H 0.74175 0.40291 0.53914 0.0
H1523 H 0.7754 0.40237 0.46843 0.0
S1524 S 0.75762 0.30835 0.50588 0.0
N1525 N 0.73961 0.32545 0.54375 0.0
N1526 N 0.77596 0.32488 0.4672 0.0
C1527 C 0.76788 0.34558 0.48442 0.0
C1528 C 0.7481 0.3459 0.52554 0.0
C1529 C 0.90682 0.51029 0.83309 0.0
C1530 C 0.90589 0.48868 0.80368 0.0
C1531 C 0.90673 0.53008 0.79409 0.0
C1532 C 0.9053 0.52905 0.72411 0.0
H1533 H 0.90761 0.51185 0.88676 0.0
H1534 H 0.90717 0.54632 0.819 0.0
S1535 S 0.90223 0.4767 0.62256 0.0
N1536 N 0.90329 0.46753 0.70017 0.0
N1537 N 0.90326 0.50459 0.62714 0.0
C1538 C 0.90444 0.50756 0.69412 0.0
C1539 C 0.90474 0.48742 0.73375 0.0
C1540 C 0.24744 0.34507 0.01739 0.0
C1541 C 0.24111 0.36317 0.97571 0.0
C1542 C 0.26718 0.34617 0.05658 0.0
C1543 C 0.28084 0.36565 0.05676 0.0
H1544 H 0.23718 0.32989 0.01894 0.0
H1545 H 0.27166 0.33189 0.08775 0.0
S1546 S 0.27157 0.41766 0.95727 0.0
N1547 N 0.25013 0.40106 0.93717 0.0
N1548 N 0.28686 0.40327 1.01163 0.0
C1549 C 0.27463 0.38385 0.01565 0.0
C1550 C 0.25485 0.38258 0.97491 0.0
C1551 C 0.42361 0.51935 0.78158 0.0
C1552 C 0.4035 0.52762 0.81032 0.0
C1553 C 0.42347 0.50008 0.74036 0.0
C1554 C 0.40313 0.48887 0.72503 0.0
H1555 H 0.43954 0.52775 0.79169 0.0
H1556 H 0.43926 0.49409 0.71938 0.0
S1557 S 0.34595 0.50391 0.78689 0.0
N1558 N 0.36279 0.5231 0.82034 0.0
N1559 N 0.36249 0.48721 0.74236 0.0
C1560 C 0.38295 0.49703 0.75323 0.0
C1561 C 0.38314 0.51633 0.79601 0.0
C1562 C 0.27981 0.65666 0.54756 0.0
C1563 C 0.27856 0.6595 0.47797 0.0
C1564 C 0.26021 0.65606 0.58717 0.0
C1565 C 0.23849 0.65838 0.55908 0.0
H1566 H 0.29604 0.65434 0.57164 0.0
H1567 H 0.26208 0.65372 0.64035 0.0
S1568 S 0.2258 0.66658 0.37941 0.0
N1569 N 0.2537 0.66544 0.38301 0.0
N1570 N 0.21696 0.66338 0.45677 0.0
C1571 C 0.23698 0.66143 0.4896 0.0
C1572 C 0.25696 0.66216 0.44929 0.0
C1573 C 0.09473 0.5267 0.28694 0.0
C1574 C 0.10726 0.5279 0.22746 0.0
C1575 C 0.0952 0.50729 0.32717 0.0
C1576 C 0.10838 0.48832 0.30989 0.0
H1577 H 0.08422 0.54081 0.30206 0.0
H1578 H 0.08484 0.50705 0.37159 0.0
S1579 S 0.1459 0.48378 0.16193 0.0
N1580 N 0.13406 0.50898 0.15475 0.0
N1581 N 0.13547 0.47269 0.23085 0.0
C1582 C 0.12135 0.4895 0.251 0.0
C1583 C 0.12065 0.50921 0.20969 0.0
C1584 C 0.13149 0.27245 0.29254 0.0
C1585 C 0.13896 0.26325 0.35356 0.0
C1586 C 0.12336 0.29473 0.2884 0.0
C1587 C 0.12294 0.30882 0.34461 0.0
H1588 H 0.13126 0.26215 0.24796 0.0
H1589 H 0.11682 0.30087 0.24136 0.0
S1590 S 0.14051 0.29361 0.51574 0.0
N1591 N 0.14508 0.27044 0.47181 0.0
N1592 N 0.13086 0.31255 0.46236 0.0
C1593 C 0.13123 0.30035 0.40506 0.0
C1594 C 0.13903 0.27753 0.40992 0.0
C1595 C 0.96151 0.89086 0.61163 0.0
C1596 C 0.95891 0.86716 0.61472 0.0
C1597 C 0.98313 0.90088 0.61266 0.0
C1598 C 1.00273 0.88746 0.61637 0.0
H1599 H 0.9468 0.90167 0.60679 0.0
H1600 H 0.98455 0.91912 0.60938 0.0
S1601 S 1.00514 0.8251 0.63426 0.0
N1602 N 0.97786 0.83091 0.62857 0.0
N1603 N 0.01827 0.84968 0.62864 0.0
C1604 C 1.00033 0.86391 0.62168 0.0
C1605 C 0.97847 0.85377 0.62129 0.0
C1606 C 0.3811 0.7117 0.83127 0.0
C1607 C 0.40298 0.70775 0.85674 0.0
C1608 C 0.37144 0.73351 0.83265 0.0
C1609 C 0.38339 0.75187 0.85993 0.0
H1610 H 0.37167 0.69797 0.80884 0.0
H1611 H 0.35477 0.7361 0.81147 0.0
S1612 S 0.43992 0.75007 0.93949 0.0
N1613 N 0.43533 0.7238 0.91493 0.0
N1614 N 0.41733 0.76458 0.91656 0.0
C1615 C 0.40488 0.74799 0.88727 0.0
C1616 C 0.41465 0.72597 0.88594 0.0
C1617 C 0.52696 0.12515 0.04046 0.0
C1618 C 0.51604 0.12337 0.1027 0.0
C1619 C 0.5489 0.13399 0.03507 0.0
C1620 C 0.56097 0.14082 0.09176 0.0
H1621 H 0.51822 0.12036 0.99519 0.0
H1622 H 0.55636 0.13597 0.98616 0.0
S1623 S 0.54119 0.13894 0.26633 0.0
N1624 N 0.51967 0.12904 0.22265 0.0
N1625 N 0.56135 0.14446 0.21176 0.0
C1626 C 0.55099 0.13802 0.15441 0.0
C1627 C 0.52843 0.12954 0.16011 0.0
C1628 C 0.13908 0.73898 0.12227 0.0
C1629 C 0.14554 0.75111 0.17974 0.0
C1630 C 0.12995 0.71712 0.12689 0.0
C1631 C 0.12675 0.70682 0.18905 0.0
H1632 H 0.13982 0.74688 0.07364 0.0
H1633 H 0.12414 0.70873 0.0821 0.0
S1634 S 0.14421 0.72933 0.35316 0.0
N1635 N 0.15091 0.74958 0.29993 0.0
N1636 N 0.13292 0.70883 0.30818 0.0
C1637 C 0.13436 0.71802 0.24632 0.0
C1638 C 0.14397 0.74009 0.24176 0.0
C1639 C 0.53239 0.89515 0.44268 0.0
C1640 C 0.51537 0.8871 0.39978 0.0
C1641 C 0.55403 0.88516 0.44321 0.0
C1642 C 0.559 0.86654 0.40212 0.0
H1643 H 0.52893 0.90916 0.47592 0.0
H1644 H 0.56674 0.89151 0.4772 0.0
S1645 S 0.52036 0.83912 0.28167 0.0
N1646 N 0.50507 0.8596 0.31499 0.0
N1647 N 0.54548 0.84062 0.31757 0.0
C1648 C 0.54217 0.85843 0.35922 0.0
C1649 C 0.5204 0.86877 0.35766 0.0
C1650 C 0.37871 0.27998 0.61093 0.0
C1651 C 0.37382 0.26708 0.66825 0.0
C1652 C 0.38772 0.30188 0.61605 0.0
C1653 C 0.39239 0.31142 0.67851 0.0
H1654 H 0.37678 0.27266 0.56181 0.0
H1655 H 0.39223 0.31094 0.57108 0.0
S1656 S 0.37898 0.28673 0.84319 0.0
N1657 N 0.37129 0.26706 0.78929 0.0
N1658 N 0.38901 0.3079 0.79831 0.0
C1659 C 0.38627 0.29944 0.73594 0.0
C1660 C 0.37677 0.27734 0.73094 0.0
C1661 C 0.97128 0.141 0.98843 0.0
C1662 C 0.95835 0.14483 0.93079 0.0
C1663 C 0.99346 0.13272 0.98441 0.0
C1664 C 1.00368 0.12822 0.92245 0.0
H1665 H 0.96425 0.14483 0.03694 0.0
H1666 H 1.00287 0.13028 0.03017 0.0
S1667 S 0.97673 0.13591 0.7566 0.0
N1668 N 0.95689 0.14332 0.8103 0.0
N1669 N 0.99887 0.12846 0.80184 0.0
C1670 C 0.99062 0.13155 0.86435 0.0
C1671 C 0.96789 0.13968 0.86875 0.0
C1672 C 0.87938 0.71428 0.68281 0.0
C1673 C 0.90277 0.71064 0.67423 0.0
C1674 C 0.87027 0.73631 0.68262 0.0
C1675 C 0.88431 0.75534 0.67416 0.0
H1676 H 0.86821 0.70007 0.69165 0.0
H1677 H 0.85227 0.73852 0.69062 0.0
S1678 S 0.946 0.75464 0.63979 0.0
N1679 N 0.93923 0.72774 0.64987 0.0
N1680 N 0.92224 0.76894 0.6501 0.0
C1681 C 0.90751 0.75179 0.6627 0.0
C1682 C 0.91671 0.7295 0.66263 0.0
C1683 C 0.02657 0.13019 0.37304 0.0
C1684 C 0.01314 0.12741 0.43055 0.0
C1685 C 0.04889 0.13825 0.37726 0.0
C1686 C 0.05842 0.14402 0.43898 0.0
H1687 H 0.01946 0.12718 0.32412 0.0
H1688 H 0.05835 0.14111 0.33186 0.0
S1689 S 0.03202 0.13644 0.60483 0.0
N1690 N 0.01226 0.12839 0.55166 0.0
N1691 N 0.05397 0.14404 0.55907 0.0
C1692 C 0.04574 0.14013 0.49696 0.0
C1693 C 0.02315 0.13171 0.49287 0.0
C1694 C 0.60965 0.26703 0.14364 0.0
C1695 C 0.63289 0.26251 0.15119 0.0
C1696 C 0.60137 0.28921 0.14379 0.0
C1697 C 0.61592 0.30787 0.15155 0.0
H1698 H 0.59772 0.25328 0.1374 0.0
H1699 H 0.58333 0.29179 0.1381 0.0
S1700 S 0.67824 0.30521 0.17338 0.0
N1701 N 0.67045 0.27848 0.16609 0.0
N1702 N 0.6548 0.32033 0.16705 0.0
C1703 C 0.63928 0.30367 0.15792 0.0
C1704 C 0.64777 0.28096 0.15759 0.0
C1705 C 0.47701 0.86461 0.96843 0.0
C1706 C 0.45881 0.87295 0.9302 0.0
C1707 C 0.49822 0.87513 0.96825 0.0
C1708 C 0.50229 0.8949 0.931 0.0
H1709 H 0.47513 0.84943 0.99801 0.0
H1710 H 0.51179 0.86699 0.99548 0.0
S1711 S 0.45966 0.92577 0.82948 0.0
N1712 N 0.44602 0.90327 0.85704 0.0
N1713 N 0.48539 0.92405 0.86114 0.0
C1714 C 0.48385 0.90442 0.89613 0.0
C1715 C 0.46227 0.8933 0.89485 0.0
C1716 C 0.91531 0.28921 0.86759 0.0
C1717 C 0.90072 0.30782 0.85964 0.0
C1718 C 0.90698 0.2671 0.87052 0.0
C1719 C 0.88366 0.2626 0.86555 0.0
H1720 H 0.93342 0.29178 0.87112 0.0
H1721 H 0.91895 0.25335 0.87655 0.0
S1722 S 0.83819 0.30528 0.84453 0.0
N1723 N 0.86174 0.32034 0.84726 0.0
N1724 N 0.84597 0.27858 0.85324 0.0
C1725 C 0.86874 0.28104 0.85927 0.0
C1726 C 0.87729 0.30369 0.85618 0.0
C1727 C 0.50038 0.15956 0.61507 0.0
C1728 C 0.50497 0.13634 0.60801 0.0
C1729 C 0.47822 0.16785 0.61284 0.0
C1730 C 0.45965 0.1533 0.60339 0.0
H1731 H 0.51408 0.17149 0.62242 0.0
H1732 H 0.47558 0.18589 0.61821 0.0
S1733 S 0.46249 0.09101 0.582 0.0
N1734 N 0.48916 0.09878 0.59184 0.0
N1735 N 0.44732 0.11445 0.58685 0.0
C1736 C 0.46389 0.12995 0.59754 0.0
C1737 C 0.48659 0.12145 0.60004 0.0
C1738 C 0.6397 0.73831 0.41186 0.0
C1739 C 0.64627 0.74991 0.35347 0.0
C1740 C 0.63098 0.71622 0.40915 0.0
C1741 C 0.62835 0.70508 0.34804 0.0
H1742 H 0.64006 0.74677 0.45968 0.0
H1743 H 0.62497 0.70831 0.45447 0.0
S1744 S 0.64591 0.72609 0.18235 0.0
N1745 N 0.65211 0.74705 0.23369 0.0
N1746 N 0.63483 0.70591 0.22902 0.0
C1747 C 0.63597 0.71579 0.28998 0.0
C1748 C 0.64515 0.73811 0.29259 0.0
C1749 C 0.05413 0.88882 0.12965 0.0
C1750 C 0.05818 0.86831 0.09598 0.0
C1751 C 0.03268 0.89922 0.12854 0.0
C1752 C 0.01418 0.88943 0.09453 0.0
H1753 H 0.06742 0.89656 0.1589 0.0
H1754 H 0.03053 0.91486 0.15588 0.0
S1755 S 0.01649 0.83674 0.99288 0.0
N1756 N 0.04254 0.84017 0.0204 0.0
N1757 N 1.00196 0.85796 0.02459 0.0
C1758 C 0.0183 0.86923 0.05887 0.0
C1759 C 0.0403 0.85913 0.05814 0.0
C1760 C 0.61355 0.7958 0.92935 0.0
C1761 C 0.61711 0.81095 0.87651 0.0
C1762 C 0.62331 0.77419 0.92886 0.0
C1763 C 0.63651 0.76686 0.87476 0.0
H1764 H 0.60294 0.80069 0.97088 0.0
H1765 H 0.6198 0.76281 0.96991 0.0
S1766 S 0.651 0.80034 0.72467 0.0
N1767 N 0.63517 0.81757 0.76978 0.0
N1768 N 0.65295 0.77652 0.76757 0.0
C1769 C 0.64043 0.78196 0.82198 0.0
C1770 C 0.63089 0.80417 0.82324 0.0
C1771 C 0.46471 0.38382 0.12436 0.0
C1772 C 0.46056 0.36248 0.09521 0.0
C1773 C 0.48628 0.39386 0.12279 0.0
C1774 C 0.50491 0.38289 0.09319 0.0
H1775 H 0.45134 0.39283 0.14976 0.0
H1776 H 0.48833 0.41034 0.14559 0.0
S1777 S 0.50349 0.32689 1.00839 0.0
N1778 N 0.47709 0.33159 0.03089 0.0
N1779 N 0.51778 0.34894 0.03563 0.0
C1780 C 0.50106 0.36152 0.06392 0.0
C1781 C 0.47893 0.35171 0.06311 0.0
C1782 C 0.86931 0.23736 0.35373 0.0
C1783 C 0.88398 0.25581 0.36418 0.0
C1784 C 0.87765 0.21501 0.35146 0.0
C1785 C 0.90089 0.21047 0.35971 0.0
H1786 H 0.85143 0.24028 0.34537 0.0
H1787 H 0.86604 0.2013 0.34087 0.0
S1788 S 0.94554 0.25243 0.39958 0.0
N1789 N 0.92233 0.2677 0.3906 0.0
N1790 N 0.93785 0.22595 0.38639 0.0
C1791 C 0.91542 0.22867 0.37367 0.0
C1792 C 0.90701 0.25127 0.37592 0.0
C1793 C 0.03239 0.62077 0.59741 0.0
C1794 C 0.01374 0.63312 0.62151 0.0
C1795 C 0.05432 0.63021 0.59761 0.0
C1796 C 0.05818 0.65226 0.6219 0.0
H1797 H 0.0299 0.604 0.57692 0.0
H1798 H 0.0682 0.62055 0.57679 0.0
S1799 S 0.01525 0.69008 0.6984 0.0
N1800 N 1.00078 0.66752 0.6752 0.0
N1801 N 0.04175 0.68505 0.67683 0.0
C1802 C 0.03972 0.66422 0.6488 0.0
C1803 C 0.01757 0.6547 0.64828 0.0
C1804 C 0.62657 0.22345 0.73254 0.0
C1805 C 0.62314 0.21001 0.67572 0.0
C1806 C 0.63489 0.2456 0.72731 0.0
C1807 C 0.63982 0.25529 0.66488 0.0
H1808 H 0.62245 0.21686 0.78136 0.0
H1809 H 0.63701 0.25538 0.77249 0.0
S1810 S 0.63327 0.22692 0.50075 0.0
N1811 N 0.62548 0.20757 0.55546 0.0
N1812 N 0.64042 0.24943 0.54472 0.0
C1813 C 0.63689 0.24173 0.60765 0.0
C1814 C 0.62871 0.21905 0.61329 0.0
C1815 C 0.0329 0.39757 0.92 0.0
C1816 C 0.01431 0.3833 0.90729 0.0
C1817 C 0.05512 0.38885 0.92264 0.0
C1818 C 0.05934 0.36564 0.9124 0.0
H1819 H 0.03018 0.41538 0.92998 0.0
H1820 H 0.06894 0.4001 0.93519 0.0
S1821 S 0.01682 0.32211 0.86705 0.0
N1822 N 1.00189 0.34547 0.87739 0.0
N1823 N 0.04339 0.32923 0.88173 0.0
C1824 C 0.04098 0.35157 0.89618 0.0
C1825 C 0.01853 0.36036 0.89375 0.0
C1826 C 0.88212 0.80363 0.15886 0.0
C1827 C 0.90462 0.80734 0.17955 0.0
C1828 C 0.87215 0.78204 0.16222 0.0
C1829 C 0.88429 0.76307 0.18562 0.0
H1830 H 0.87223 0.81738 0.13833 0.0
H1831 H 0.85482 0.78019 0.14548 0.0
S1832 S 0.9435 0.7638 0.24924 0.0
N1833 N 0.93801 0.79038 0.23036 0.0
N1834 N 0.92037 0.74971 0.22965 0.0
C1835 C 0.90675 0.76666 0.20733 0.0
C1836 C 0.91661 0.78874 0.20595 0.0
C1837 C 0.4766 0.65042 0.47748 0.0
C1838 C 0.45893 0.64457 0.43354 0.0
C1839 C 0.49809 0.64047 0.47254 0.0
C1840 C 0.50287 0.62411 0.42364 0.0
H1841 H 0.47401 0.66323 0.51521 0.0
H1842 H 0.51136 0.64653 0.50522 0.0
S1843 S 0.46187 0.60061 0.30157 0.0
N1844 N 0.44737 0.62009 0.3422 0.0
N1845 N 0.48736 0.60057 0.33532 0.0
C1846 C 0.48496 0.61696 0.38226 0.0
C1847 C 0.46311 0.62734 0.38667 0.0
C1848 C 0.37889 0.21336 0.19862 0.0
C1849 C 0.40118 0.21012 0.17533 0.0
C1850 C 0.36893 0.23506 0.19948 0.0
C1851 C 0.38101 0.25409 0.17705 0.0
H1852 H 0.3693 0.19912 0.2174 0.0
H1853 H 0.35189 0.23701 0.21852 0.0
S1854 S 0.43861 0.25446 0.10418 0.0
N1855 N 0.43404 0.22771 0.12376 0.0
N1856 N 0.41556 0.26822 0.12693 0.0
C1857 C 0.40295 0.25097 0.15202 0.0
C1858 C 0.41299 0.22905 0.15078 0.0
C1859 C 0.52914 0.62414 0.97187 0.0
C1860 C 0.51687 0.62318 0.91168 0.0
C1861 C 0.55069 0.63404 0.97475 0.0
C1862 C 0.56097 0.64286 0.91739 0.0
H1863 H 0.52175 0.61784 0.01761 0.0
H1864 H 0.55921 0.63533 0.02236 0.0
S1865 S 0.53696 0.64435 0.74751 0.0
N1866 N 0.51715 0.63208 0.79299 0.0
N1867 N 0.55814 0.64961 0.79892 0.0
C1868 C 0.5496 0.64112 0.85654 0.0
C1869 C 0.52744 0.63149 0.8535 0.0
C1870 C 0.13474 0.80375 0.71875 0.0
C1871 C 0.11681 0.80934 0.6757 0.0
C1872 C 0.14491 0.78219 0.71643 0.0
C1873 C 0.13777 0.76589 0.6698 0.0
H1874 H 0.14048 0.81592 0.75533 0.0
H1875 H 0.1584 0.77825 0.75111 0.0
S1876 S 0.0919 0.77279 0.54511 0.0
N1877 N 0.09267 0.79725 0.58478 0.0
N1878 N 0.11176 0.757 0.57961 0.0
C1879 C 0.12011 0.77158 0.62586 0.0
C1880 C 0.10963 0.79326 0.62898 0.0
C1881 C 0.96926 0.37791 0.4888 0.0
C1882 C 0.95676 0.37296 0.43124 0.0
C1883 C 0.99118 0.38681 0.4845 0.0
C1884 C 1.00162 0.3906 0.42235 0.0
H1885 H 0.96211 0.37452 0.53744 0.0
H1886 H 1.00027 0.39013 0.53032 0.0
S1887 S 0.97541 0.38025 0.25673 0.0
N1888 N 0.9556 0.37304 0.3107 0.0
N1889 N 0.99723 0.38875 0.30167 0.0
C1890 C 0.98887 0.38626 0.36428 0.0
C1891 C 0.96635 0.37764 0.36897 0.0
C1892 C 0.38854 0.79947 0.30081 0.0
C1893 C 0.39707 0.81072 0.35696 0.0
C1894 C 0.3797 0.77747 0.30608 0.0
C1895 C 0.37919 0.76605 0.36774 0.0
H1896 H 0.38931 0.80755 0.25245 0.0
H1897 H 0.37369 0.76914 0.2614 0.0
S1898 S 0.40042 0.78853 0.52877 0.0
N1899 N 0.40477 0.80928 0.47515 0.0
N1900 N 0.38849 0.76789 0.48581 0.0
C1901 C 0.38738 0.7775 0.42439 0.0
C1902 C 0.39628 0.79985 0.41877 0.0
C1903 C 0.99874 0.65729 0.144 0.0
C1904 C 1.00295 0.63408 0.13517 0.0
C1905 C 0.97677 0.66597 0.14125 0.0
C1906 C 0.95808 0.65182 0.12936 0.0
H1907 H 0.01263 0.66892 0.15257 0.0
H1908 H 0.9744 0.684 0.14786 0.0
S1909 S 0.96003 0.58963 0.104 0.0
N1910 N 0.98674 0.5969 0.11583 0.0
N1911 N 0.94521 0.61328 0.10953 0.0
C1912 C 0.96194 0.62842 0.12224 0.0
C1913 C 0.98445 0.61954 0.12542 0.0
C1914 C 0.11451 0.24931 0.87525 0.0
C1915 C 0.13801 0.25305 0.87398 0.0
C1916 C 0.10555 0.22748 0.87107 0.0
C1917 C 0.11967 0.20843 0.86536 0.0
H1918 H 0.1029 0.26346 0.87899 0.0
H1919 H 0.08733 0.22552 0.87187 0.0
S1920 S 0.18249 0.20906 0.86088 0.0
N1921 N 0.17536 0.23599 0.86826 0.0
N1922 N 0.15848 0.19473 0.85952 0.0
C1923 C 0.14328 0.21183 0.86582 0.0
C1924 C 0.15245 0.2342 0.87036 0.0
C1925 C 0.5307 0.3978 0.6002 0.0
C1926 C 0.51225 0.38317 0.61103 0.0
C1927 C 0.55296 0.38934 0.59582 0.0
C1928 C 0.55742 0.36602 0.60224 0.0
H1929 H 0.52782 0.41575 0.59323 0.0
H1930 H 0.56665 0.40097 0.58517 0.0
S1931 S 0.51548 0.32135 0.64206 0.0
N1932 N 0.5003 0.34471 0.63562 0.0
N1933 N 0.54191 0.32896 0.62758 0.0
C1934 C 0.53924 0.35149 0.61644 0.0
C1935 C 0.51672 0.36003 0.62082 0.0
loop_
_geom_bond_atom_site_label_1
_geom_bond_atom_site_label_2
_geom_bond_distance
_geom_bond_site_symmetry_2
_ccdc_geom_bond_type
Co0 N4 2.148 . S
Co0 N10 2.128 . S
Co0 N20 2.194 . S
Co0 O25 2.351 . S
Co0 O26 2.155 . S
Co0 O27 2.096 . S
C1 N4 1.301 . S
C1 N5 1.328 . S
C1 H6 0.930 . S
C2 C3 1.333 . S
C2 N4 1.317 . S
C2 H7 0.930 . S
C3 C2 1.333 . S
C3 N5 1.350 . S
C3 H29 0.931 . S
N4 Co0 2.148 . S
N4 C1 1.301 . S
N4 C2 1.317 . S
N5 C1 1.328 . S
N5 C3 1.350 . S
H6 C1 0.930 . S
H7 C2 0.930 . S
C8 O9 1.224 . S
C8 O27 1.247 . S
O9 C8 1.224 . S
N10 Co0 2.128 . S
N10 C11 1.355 . S
N10 C13 1.311 . S
C11 N10 1.355 . S
C11 C12 1.363 . S
C11 H23 0.929 . S
C12 C11 1.363 . S
C12 N14 1.375 . S
C12 H30 0.931 . S
C13 N10 1.311 . S
C13 N14 1.347 . S
C13 H24 0.929 . S
N14 C12 1.375 . S
N14 C13 1.347 . S
C15 C18 1.365 . S
C15 N20 1.328 . S
C15 H21 0.929 . S
C16 C17 1.362 . S
C16 C19 1.378 . S
C16 H31 0.929 . S
C17 C16 1.362 . S
C17 C18 1.366 . S
C18 C15 1.365 . S
C18 C17 1.366 . S
C18 H32 0.930 . S
C19 C16 1.378 . S
C19 N20 1.315 . S
C19 H22 0.930 . S
N20 Co0 2.194 . S
N20 C15 1.328 . S
N20 C19 1.315 . S
H21 C15 0.929 . S
H22 C19 0.930 . S
H23 C11 0.929 . S
H24 C13 0.929 . S
O25 Co0 2.351 . S
O25 C28 1.244 . S
O26 Co0 2.155 . S
O26 C28 1.240 . S
O27 Co0 2.096 . S
O27 C8 1.247 . S
C28 O25 1.244 . S
C28 O26 1.240 . S
H29 C3 0.931 . S
H30 C12 0.931 . S
H31 C16 0.929 . S
H32 C18 0.930 . S
Co33 N37 2.148 . S
Co33 N43 2.128 . S
Co33 N53 2.194 . S
Co33 O58 2.351 . S
Co33 O59 2.155 . S
Co33 O60 2.096 . S
C34 N37 1.301 . S
C34 N38 1.328 . S
C34 H39 0.930 . S
C35 C36 1.333 . S
C35 N37 1.317 . S
C35 H40 0.930 . S
C36 C35 1.333 . S
C36 N38 1.350 . S
C36 H62 0.931 . S
N37 Co33 2.148 . S
N37 C34 1.301 . S
N37 C35 1.317 . S
N38 C34 1.328 . S
N38 C36 1.350 . S
H39 C34 0.930 . S
H40 C35 0.930 . S
C41 O42 1.224 . S
C41 O60 1.247 . S
O42 C41 1.224 . S
N43 Co33 2.128 . S
N43 C44 1.355 . S
N43 C46 1.311 . S
C44 N43 1.355 . S
C44 C45 1.363 . S
C44 H56 0.929 . S
C45 C44 1.363 . S
C45 N47 1.375 . S
C45 H63 0.931 . S
C46 N43 1.311 . S
C46 N47 1.347 . S
C46 H57 0.929 . S
N47 C45 1.375 . S
N47 C46 1.347 . S
C48 C51 1.365 . S
C48 N53 1.328 . S
C48 H54 0.929 . S
C49 C50 1.362 . S
C49 C52 1.378 . S
C49 H64 0.929 . S
C50 C49 1.362 . S
C50 C51 1.366 . S
C51 C48 1.365 . S
C51 C50 1.366 . S
C51 H65 0.930 . S
C52 C49 1.378 . S
C52 N53 1.315 . S
C52 H55 0.930 . S
N53 Co33 2.194 . S
N53 C48 1.328 . S
N53 C52 1.315 . S
H54 C48 0.929 . S
H55 C52 0.930 . S
H56 C44 0.929 . S
H57 C46 0.929 . S
O58 Co33 2.351 . S
O58 C61 1.244 . S
O59 Co33 2.155 . S
O59 C61 1.240 . S
O60 Co33 2.096 . S
O60 C41 1.247 . S
C61 O58 1.244 . S
C61 O59 1.240 . S
H62 C36 0.931 . S
H63 C45 0.931 . S
H64 C49 0.929 . S
H65 C51 0.930 . S
Co66 N70 2.148 . S
Co66 N76 2.128 . S
Co66 N86 2.194 . S
Co66 O91 2.351 1_556 S
Co66 O92 2.155 . S
Co66 O93 2.096 . S
C67 N70 1.301 . S
C67 N71 1.328 . S
C67 H72 0.930 . S
C68 C69 1.333 . S
C68 N70 1.317 . S
C68 H73 0.930 . S
C69 C68 1.333 . S
C69 N71 1.350 . S
C69 H95 0.931 . S
N70 Co66 2.148 . S
N70 C67 1.301 . S
N70 C68 1.317 . S
N71 C67 1.328 . S
N71 C69 1.350 . S
H72 C67 0.930 . S
H73 C68 0.930 . S
C74 O75 1.224 . S
C74 O93 1.247 . S
O75 C74 1.224 . S
N76 Co66 2.128 . S
N76 C77 1.355 . S
N76 C79 1.311 . S
C77 N76 1.355 . S
C77 C78 1.363 . S
C77 H89 0.929 . S
C78 C77 1.363 . S
C78 N80 1.375 . S
C78 H96 0.931 . S
C79 N76 1.311 . S
C79 N80 1.347 . S
C79 H90 0.929 . S
N80 C78 1.375 . S
N80 C79 1.347 . S
C81 C84 1.365 . S
C81 N86 1.328 . S
C81 H87 0.929 . S
C82 C83 1.362 . S
C82 C85 1.378 . S
C82 H97 0.929 . S
C83 C82 1.362 . S
C83 C84 1.366 . S
C84 C81 1.365 . S
C84 C83 1.366 . S
C84 H98 0.930 . S
C85 C82 1.378 . S
C85 N86 1.315 . S
C85 H88 0.930 . S
N86 Co66 2.194 . S
N86 C81 1.328 . S
N86 C85 1.315 . S
H87 C81 0.929 . S
H88 C85 0.930 . S
H89 C77 0.929 . S
H90 C79 0.929 . S
O91 Co66 2.351 1_554 S
O91 C94 1.244 . S
O92 Co66 2.155 . S
O92 C94 1.240 1_556 S
O93 Co66 2.096 . S
O93 C74 1.247 . S
C94 O91 1.244 . S
C94 O92 1.240 1_554 S
H95 C69 0.931 . S
H96 C78 0.931 . S
H97 C82 0.929 . S
H98 C84 0.930 . S
Co99 N103 2.148 . S
Co99 N109 2.128 . S
Co99 N119 2.194 . S
Co99 O124 2.351 . S
Co99 O125 2.155 . S
Co99 O126 2.096 . S
C100 N103 1.301 . S
C100 N104 1.328 . S
C100 H105 0.930 . S
C101 C102 1.333 . S
C101 N103 1.317 . S
C101 H106 0.930 . S
C102 C101 1.333 . S
C102 N104 1.350 . S
C102 H128 0.931 . S
N103 Co99 2.148 . S
N103 C100 1.301 . S
N103 C101 1.317 . S
N104 C100 1.328 . S
N104 C102 1.350 . S
H105 C100 0.930 . S
H106 C101 0.930 . S
C107 O108 1.224 . S
C107 O126 1.247 . S
O108 C107 1.224 . S
N109 Co99 2.128 . S
N109 C110 1.355 . S
N109 C112 1.311 . S
C110 N109 1.355 . S
C110 C111 1.363 . S
C110 H122 0.929 . S
C111 C110 1.363 . S
C111 N113 1.375 . S
C111 H129 0.931 . S
C112 N109 1.311 . S
C112 N113 1.347 . S
C112 H123 0.929 . S
N113 C111 1.375 . S
N113 C112 1.347 . S
C114 C117 1.365 . S
C114 N119 1.328 . S
C114 H120 0.929 . S
C115 C116 1.362 . S
C115 C118 1.378 . S
C115 H130 0.929 . S
C116 C115 1.362 . S
C116 C117 1.366 . S
C117 C114 1.365 . S
C117 C116 1.366 . S
C117 H131 0.930 . S
C118 C115 1.378 . S
C118 N119 1.315 . S
C118 H121 0.930 . S
N119 Co99 2.194 . S
N119 C114 1.328 . S
N119 C118 1.315 . S
H120 C114 0.929 . S
H121 C118 0.930 . S
H122 C110 0.929 . S
H123 C112 0.929 . S
O124 Co99 2.351 . S
O124 C127 1.244 . S
O125 Co99 2.155 . S
O125 C127 1.240 . S
O126 Co99 2.096 . S
O126 C107 1.247 . S
C127 O124 1.244 . S
C127 O125 1.240 . S
H128 C102 0.931 . S
H129 C111 0.931 . S
H130 C115 0.929 . S
H131 C117 0.930 . S
Co132 N136 2.148 . S
Co132 N142 2.128 . S
Co132 N152 2.194 . S
Co132 O157 2.351 1_554 S
Co132 O158 2.155 . S
Co132 O159 2.096 . S
C133 N136 1.301 . S
C133 N137 1.328 . S
C133 H138 0.930 . S
C134 C135 1.333 . S
C134 N136 1.317 . S
C134 H139 0.930 . S
C135 C134 1.333 . S
C135 N137 1.350 . S
C135 H161 0.931 . S
N136 Co132 2.148 . S
N136 C133 1.301 . S
N136 C134 1.317 . S
N137 C133 1.328 . S
N137 C135 1.350 . S
H138 C133 0.930 . S
H139 C134 0.930 . S
C140 O141 1.224 . S
C140 O159 1.247 . S
O141 C140 1.224 . S
N142 Co132 2.128 . S
N142 C143 1.355 . S
N142 C145 1.311 . S
C143 N142 1.355 . S
C143 C144 1.363 . S
C143 H155 0.929 . S
C144 C143 1.363 . S
C144 N146 1.375 . S
C144 H162 0.931 . S
C145 N142 1.311 . S
C145 N146 1.347 . S
C145 H156 0.929 . S
N146 C144 1.375 . S
N146 C145 1.347 . S
C147 C150 1.365 . S
C147 N152 1.328 . S
C147 H153 0.929 . S
C148 C149 1.362 . S
C148 C151 1.378 . S
C148 H163 0.929 . S
C149 C148 1.362 . S
C149 C150 1.366 . S
C150 C147 1.365 . S
C150 C149 1.366 . S
C150 H164 0.930 . S
C151 C148 1.378 . S
C151 N152 1.315 . S
C151 H154 0.930 . S
N152 Co132 2.194 . S
N152 C147 1.328 . S
N152 C151 1.315 . S
H153 C147 0.929 . S
H154 C151 0.930 . S
H155 C143 0.929 . S
H156 C145 0.929 . S
O157 Co132 2.351 1_556 S
O157 C160 1.244 . S
O158 Co132 2.155 . S
O158 C160 1.240 1_554 S
O159 Co132 2.096 . S
O159 C140 1.247 . S
C160 O157 1.244 . S
C160 O158 1.240 1_556 S
H161 C135 0.931 . S
H162 C144 0.931 . S
H163 C148 0.929 . S
H164 C150 0.930 . S
Co165 N169 2.148 . S
Co165 N175 2.128 . S
Co165 N185 2.194 . S
Co165 O190 2.351 . S
Co165 O191 2.155 . S
Co165 O192 2.096 . S
C166 N169 1.301 . S
C166 N170 1.328 . S
C166 H171 0.930 . S
C167 C168 1.333 . S
C167 N169 1.317 . S
C167 H172 0.930 . S
C168 C167 1.333 . S
C168 N170 1.350 . S
C168 H194 0.931 . S
N169 Co165 2.148 . S
N169 C166 1.301 . S
N169 C167 1.317 . S
N170 C166 1.328 . S
N170 C168 1.350 . S
H171 C166 0.930 . S
H172 C167 0.930 . S
C173 O174 1.224 . S
C173 O192 1.247 . S
O174 C173 1.224 . S
N175 Co165 2.128 . S
N175 C176 1.355 . S
N175 C178 1.311 . S
C176 N175 1.355 . S
C176 C177 1.363 . S
C176 H188 0.929 . S
C177 C176 1.363 . S
C177 N179 1.375 . S
C177 H195 0.931 . S
C178 N175 1.311 . S
C178 N179 1.347 . S
C178 H189 0.929 . S
N179 C177 1.375 . S
N179 C178 1.347 . S
C180 C183 1.365 . S
C180 N185 1.328 . S
C180 H186 0.929 . S
C181 C182 1.362 . S
C181 C184 1.378 . S
C181 H196 0.929 . S
C182 C181 1.362 . S
C182 C183 1.366 . S
C183 C180 1.365 . S
C183 C182 1.366 . S
C183 H197 0.930 . S
C184 C181 1.378 . S
C184 N185 1.315 . S
C184 H187 0.930 . S
N185 Co165 2.194 . S
N185 C180 1.328 . S
N185 C184 1.315 . S
H186 C180 0.929 . S
H187 C184 0.930 . S
H188 C176 0.929 . S
H189 C178 0.929 . S
O190 Co165 2.351 . S
O190 C193 1.244 . S
O191 Co165 2.155 . S
O191 C193 1.240 . S
O192 Co165 2.096 . S
O192 C173 1.247 . S
C193 O190 1.244 . S
C193 O191 1.240 . S
H194 C168 0.931 . S
H195 C177 0.931 . S
H196 C181 0.929 . S
H197 C183 0.930 . S
Co198 N202 2.148 . S
Co198 N208 2.128 . S
Co198 N218 2.194 . S
Co198 O223 2.351 . S
Co198 O224 2.155 . S
Co198 O225 2.096 . S
C199 N202 1.301 . S
C199 N203 1.328 . S
C199 H204 0.930 . S
C200 C201 1.333 . S
C200 N202 1.317 . S
C200 H205 0.930 . S
C201 C200 1.333 . S
C201 N203 1.350 . S
C201 H227 0.931 . S
N202 Co198 2.148 . S
N202 C199 1.301 . S
N202 C200 1.317 . S
N203 C199 1.328 . S
N203 C201 1.350 . S
H204 C199 0.930 . S
H205 C200 0.930 . S
C206 O207 1.224 . S
C206 O225 1.247 . S
O207 C206 1.224 . S
N208 Co198 2.128 . S
N208 C209 1.355 . S
N208 C211 1.311 . S
C209 N208 1.355 . S
C209 C210 1.363 . S
C209 H221 0.929 . S
C210 C209 1.363 . S
C210 N212 1.375 . S
C210 H228 0.931 . S
C211 N208 1.311 . S
C211 N212 1.347 . S
C211 H222 0.929 . S
N212 C210 1.375 . S
N212 C211 1.347 . S
C213 C216 1.365 . S
C213 N218 1.328 . S
C213 H219 0.929 . S
C214 C215 1.362 . S
C214 C217 1.378 . S
C214 H229 0.929 . S
C215 C214 1.362 . S
C215 C216 1.366 . S
C216 C213 1.365 . S
C216 C215 1.366 . S
C216 H230 0.930 . S
C217 C214 1.378 . S
C217 N218 1.315 . S
C217 H220 0.930 . S
N218 Co198 2.194 . S
N218 C213 1.328 . S
N218 C217 1.315 . S
H219 C213 0.929 . S
H220 C217 0.930 . S
H221 C209 0.929 . S
H222 C211 0.929 . S
O223 Co198 2.351 . S
O223 C226 1.244 . S
O224 Co198 2.155 . S
O224 C226 1.240 . S
O225 Co198 2.096 . S
O225 C206 1.247 . S
C226 O223 1.244 . S
C226 O224 1.240 . S
H227 C201 0.931 . S
H228 C210 0.931 . S
H229 C214 0.929 . S
H230 C216 0.930 . S
Co231 N235 2.148 . S
Co231 N241 2.128 . S
Co231 N251 2.194 . S
Co231 O256 2.351 . S
Co231 O257 2.155 . S
Co231 O258 2.096 . S
C232 N235 1.301 . S
C232 N236 1.328 . S
C232 H237 0.930 . S
C233 C234 1.333 . S
C233 N235 1.317 . S
C233 H238 0.930 . S
C234 C233 1.333 . S
C234 N236 1.350 . S
C234 H260 0.931 . S
N235 Co231 2.148 . S
N235 C232 1.301 . S
N235 C233 1.317 . S
N236 C232 1.328 . S
N236 C234 1.350 . S
H237 C232 0.930 . S
H238 C233 0.930 . S
C239 O240 1.224 . S
C239 O258 1.247 . S
O240 C239 1.224 . S
N241 Co231 2.128 . S
N241 C242 1.355 . S
N241 C244 1.311 . S
C242 N241 1.355 . S
C242 C243 1.363 . S
C242 H254 0.929 . S
C243 C242 1.363 . S
C243 N245 1.375 . S
C243 H261 0.931 . S
C244 N241 1.311 . S
C244 N245 1.347 . S
C244 H255 0.929 . S
N245 C243 1.375 . S
N245 C244 1.347 . S
C246 C249 1.365 . S
C246 N251 1.328 . S
C246 H252 0.929 . S
C247 C248 1.362 . S
C247 C250 1.378 . S
C247 H262 0.929 . S
C248 C247 1.362 . S
C248 C249 1.366 . S
C249 C246 1.365 . S
C249 C248 1.366 . S
C249 H263 0.930 . S
C250 C247 1.378 . S
C250 N251 1.315 . S
C250 H253 0.930 . S
N251 Co231 2.194 . S
N251 C246 1.328 . S
N251 C250 1.315 . S
H252 C246 0.929 . S
H253 C250 0.930 . S
H254 C242 0.929 . S
H255 C244 0.929 . S
O256 Co231 2.351 . S
O256 C259 1.244 . S
O257 Co231 2.155 . S
O257 C259 1.240 . S
O258 Co231 2.096 . S
O258 C239 1.247 . S
C259 O256 1.244 . S
C259 O257 1.240 . S
H260 C234 0.931 . S
H261 C243 0.931 . S
H262 C247 0.929 . S
H263 C249 0.930 . S
Co264 N268 2.148 . S
Co264 N274 2.128 . S
Co264 N284 2.194 . S
Co264 O289 2.351 . S
Co264 O290 2.155 . S
Co264 O291 2.096 . S
C265 N268 1.301 . S
C265 N269 1.328 . S
C265 H270 0.930 . S
C266 C267 1.333 . S
C266 N268 1.317 . S
C266 H271 0.930 . S
C267 C266 1.333 . S
C267 N269 1.350 . S
C267 H293 0.931 . S
N268 Co264 2.148 . S
N268 C265 1.301 . S
N268 C266 1.317 . S
N269 C265 1.328 . S
N269 C267 1.350 . S
H270 C265 0.930 . S
H271 C266 0.930 . S
C272 O273 1.224 . S
C272 O291 1.247 . S
O273 C272 1.224 . S
N274 Co264 2.128 . S
N274 C275 1.355 . S
N274 C277 1.311 . S
C275 N274 1.355 . S
C275 C276 1.363 . S
C275 H287 0.929 . S
C276 C275 1.363 . S
C276 N278 1.375 . S
C276 H294 0.931 . S
C277 N274 1.311 . S
C277 N278 1.347 . S
C277 H288 0.929 . S
N278 C276 1.375 . S
N278 C277 1.347 . S
C279 C282 1.365 . S
C279 N284 1.328 . S
C279 H285 0.929 . S
C280 C281 1.362 . S
C280 C283 1.378 . S
C280 H295 0.929 . S
C281 C280 1.362 . S
C281 C282 1.366 . S
C282 C279 1.365 . S
C282 C281 1.366 . S
C282 H296 0.930 . S
C283 C280 1.378 . S
C283 N284 1.315 . S
C283 H286 0.930 . S
N284 Co264 2.194 . S
N284 C279 1.328 . S
N284 C283 1.315 . S
H285 C279 0.929 . S
H286 C283 0.930 . S
H287 C275 0.929 . S
H288 C277 0.929 . S
O289 Co264 2.351 . S
O289 C292 1.244 . S
O290 Co264 2.155 . S
O290 C292 1.240 . S
O291 Co264 2.096 . S
O291 C272 1.247 . S
C292 O289 1.244 . S
C292 O290 1.240 . S
H293 C267 0.931 . S
H294 C276 0.931 . S
H295 C280 0.929 . S
H296 C282 0.930 . S
Co297 N301 2.148 . S
Co297 N307 2.128 . S
Co297 N317 2.194 . S
Co297 O322 2.351 . S
Co297 O323 2.155 . S
Co297 O324 2.096 . S
C298 N301 1.301 . S
C298 N302 1.328 . S
C298 H303 0.930 . S
C299 C300 1.333 . S
C299 N301 1.317 . S
C299 H304 0.930 . S
C300 C299 1.333 . S
C300 N302 1.350 . S
C300 H326 0.931 . S
N301 Co297 2.148 . S
N301 C298 1.301 . S
N301 C299 1.317 . S
N302 C298 1.328 . S
N302 C300 1.350 . S
H303 C298 0.930 . S
H304 C299 0.930 . S
C305 O306 1.224 . S
C305 O324 1.247 . S
O306 C305 1.224 . S
N307 Co297 2.128 . S
N307 C308 1.355 . S
N307 C310 1.311 . S
C308 N307 1.355 . S
C308 C309 1.363 . S
C308 H320 0.929 . S
C309 C308 1.363 . S
C309 N311 1.375 . S
C309 H327 0.931 . S
C310 N307 1.311 . S
C310 N311 1.347 . S
C310 H321 0.929 . S
N311 C309 1.375 . S
N311 C310 1.347 . S
C312 C315 1.365 . S
C312 N317 1.328 . S
C312 H318 0.929 . S
C313 C314 1.362 . S
C313 C316 1.378 . S
C313 H328 0.929 . S
C314 C313 1.362 . S
C314 C315 1.366 . S
C315 C312 1.365 . S
C315 C314 1.366 . S
C315 H329 0.930 . S
C316 C313 1.378 . S
C316 N317 1.315 . S
C316 H319 0.930 . S
N317 Co297 2.194 . S
N317 C312 1.328 . S
N317 C316 1.315 . S
H318 C312 0.929 . S
H319 C316 0.930 . S
H320 C308 0.929 . S
H321 C310 0.929 . S
O322 Co297 2.351 . S
O322 C325 1.244 . S
O323 Co297 2.155 . S
O323 C325 1.240 . S
O324 Co297 2.096 . S
O324 C305 1.247 . S
C325 O322 1.244 . S
C325 O323 1.240 . S
H326 C300 0.931 . S
H327 C309 0.931 . S
H328 C313 0.929 . S
H329 C315 0.930 . S
Co330 N334 2.148 . S
Co330 N340 2.128 . S
Co330 N350 2.194 . S
Co330 O355 2.351 1_554 S
Co330 O356 2.155 . S
Co330 O357 2.096 . S
C331 N334 1.301 . S
C331 N335 1.328 . S
C331 H336 0.930 . S
C332 C333 1.333 . S
C332 N334 1.317 . S
C332 H337 0.930 . S
C333 C332 1.333 . S
C333 N335 1.350 . S
C333 H359 0.931 . S
N334 Co330 2.148 . S
N334 C331 1.301 . S
N334 C332 1.317 . S
N335 C331 1.328 . S
N335 C333 1.350 . S
H336 C331 0.930 . S
H337 C332 0.930 . S
C338 O339 1.224 . S
C338 O357 1.247 . S
O339 C338 1.224 . S
N340 Co330 2.128 . S
N340 C341 1.355 . S
N340 C343 1.311 . S
C341 N340 1.355 . S
C341 C342 1.363 . S
C341 H353 0.929 . S
C342 C341 1.363 . S
C342 N344 1.375 . S
C342 H360 0.931 . S
C343 N340 1.311 . S
C343 N344 1.347 . S
C343 H354 0.929 . S
N344 C342 1.375 . S
N344 C343 1.347 . S
C345 C348 1.365 . S
C345 N350 1.328 . S
C345 H351 0.929 . S
C346 C347 1.362 . S
C346 C349 1.378 . S
C346 H361 0.929 . S
C347 C346 1.362 . S
C347 C348 1.366 . S
C348 C345 1.365 . S
C348 C347 1.366 . S
C348 H362 0.930 . S
C349 C346 1.378 . S
C349 N350 1.315 . S
C349 H352 0.930 . S
N350 Co330 2.194 . S
N350 C345 1.328 . S
N350 C349 1.315 . S
H351 C345 0.929 . S
H352 C349 0.930 . S
H353 C341 0.929 . S
H354 C343 0.929 . S
O355 Co330 2.351 1_556 S
O355 C358 1.244 . S
O356 Co330 2.155 . S
O356 C358 1.240 1_554 S
O357 Co330 2.096 . S
O357 C338 1.247 . S
C358 O355 1.244 . S
C358 O356 1.240 1_556 S
H359 C333 0.931 . S
H360 C342 0.931 . S
H361 C346 0.929 . S
H362 C348 0.930 . S
Co363 N367 2.148 . S
Co363 N373 2.128 . S
Co363 N383 2.194 . S
Co363 O388 2.351 . S
Co363 O389 2.155 . S
Co363 O390 2.096 . S
C364 N367 1.301 . S
C364 N368 1.328 . S
C364 H369 0.930 . S
C365 C366 1.333 . S
C365 N367 1.317 . S
C365 H370 0.930 . S
C366 C365 1.333 . S
C366 N368 1.350 . S
C366 H392 0.931 . S
N367 Co363 2.148 . S
N367 C364 1.301 . S
N367 C365 1.317 . S
N368 C364 1.328 . S
N368 C366 1.350 . S
H369 C364 0.930 . S
H370 C365 0.930 . S
C371 O372 1.224 . S
C371 O390 1.247 . S
O372 C371 1.224 . S
N373 Co363 2.128 . S
N373 C374 1.355 . S
N373 C376 1.311 . S
C374 N373 1.355 . S
C374 C375 1.363 . S
C374 H386 0.929 . S
C375 C374 1.363 . S
C375 N377 1.375 . S
C375 H393 0.931 . S
C376 N373 1.311 . S
C376 N377 1.347 . S
C376 H387 0.929 . S
N377 C375 1.375 . S
N377 C376 1.347 . S
C378 C381 1.365 . S
C378 N383 1.328 . S
C378 H384 0.929 . S
C379 C380 1.362 . S
C379 C382 1.378 . S
C379 H394 0.929 . S
C380 C379 1.362 . S
C380 C381 1.366 . S
C381 C378 1.365 . S
C381 C380 1.366 . S
C381 H395 0.930 . S
C382 C379 1.378 . S
C382 N383 1.315 . S
C382 H385 0.930 . S
N383 Co363 2.194 . S
N383 C378 1.328 . S
N383 C382 1.315 . S
H384 C378 0.929 . S
H385 C382 0.930 . S
H386 C374 0.929 . S
H387 C376 0.929 . S
O388 Co363 2.351 . S
O388 C391 1.244 . S
O389 Co363 2.155 . S
O389 C391 1.240 . S
O390 Co363 2.096 . S
O390 C371 1.247 . S
C391 O388 1.244 . S
C391 O389 1.240 . S
H392 C366 0.931 . S
H393 C375 0.931 . S
H394 C379 0.929 . S
H395 C381 0.930 . S
Co396 N400 2.148 . S
Co396 N406 2.128 . S
Co396 N416 2.194 . S
Co396 O421 2.351 1_556 S
Co396 O422 2.155 . S
Co396 O423 2.096 . S
C397 N400 1.301 . S
C397 N401 1.328 . S
C397 H402 0.930 . S
C398 C399 1.333 . S
C398 N400 1.317 . S
C398 H403 0.930 . S
C399 C398 1.333 . S
C399 N401 1.350 . S
C399 H425 0.931 . S
N400 Co396 2.148 . S
N400 C397 1.301 . S
N400 C398 1.317 . S
N401 C397 1.328 . S
N401 C399 1.350 . S
H402 C397 0.930 . S
H403 C398 0.930 . S
C404 O405 1.224 . S
C404 O423 1.247 . S
O405 C404 1.224 . S
N406 Co396 2.128 . S
N406 C407 1.355 . S
N406 C409 1.311 . S
C407 N406 1.355 . S
C407 C408 1.363 . S
C407 H419 0.929 . S
C408 C407 1.363 . S
C408 N410 1.375 . S
C408 H426 0.931 . S
C409 N406 1.311 . S
C409 N410 1.347 . S
C409 H420 0.929 . S
N410 C408 1.375 . S
N410 C409 1.347 . S
C411 C414 1.365 . S
C411 N416 1.328 . S
C411 H417 0.929 . S
C412 C413 1.362 . S
C412 C415 1.378 . S
C412 H427 0.929 . S
C413 C412 1.362 . S
C413 C414 1.366 . S
C414 C411 1.365 . S
C414 C413 1.366 . S
C414 H428 0.930 . S
C415 C412 1.378 . S
C415 N416 1.315 . S
C415 H418 0.930 . S
N416 Co396 2.194 . S
N416 C411 1.328 . S
N416 C415 1.315 . S
H417 C411 0.929 . S
H418 C415 0.930 . S
H419 C407 0.929 . S
H420 C409 0.929 . S
O421 Co396 2.351 1_554 S
O421 C424 1.244 . S
O422 Co396 2.155 . S
O422 C424 1.240 1_556 S
O423 Co396 2.096 . S
O423 C404 1.247 . S
C424 O421 1.244 . S
C424 O422 1.240 1_554 S
H425 C399 0.931 . S
H426 C408 0.931 . S
H427 C412 0.929 . S
H428 C414 0.930 . S
Co429 N433 2.148 . S
Co429 N439 2.128 . S
Co429 N449 2.194 . S
Co429 O454 2.351 . S
Co429 O455 2.155 . S
Co429 O456 2.096 . S
C430 N433 1.301 . S
C430 N434 1.328 . S
C430 H435 0.930 . S
C431 C432 1.333 . S
C431 N433 1.317 . S
C431 H436 0.930 . S
C432 C431 1.333 . S
C432 N434 1.350 . S
C432 H458 0.931 . S
N433 Co429 2.148 . S
N433 C430 1.301 . S
N433 C431 1.317 . S
N434 C430 1.328 . S
N434 C432 1.350 . S
H435 C430 0.930 . S
H436 C431 0.930 . S
C437 O438 1.224 . S
C437 O456 1.247 . S
O438 C437 1.224 . S
N439 Co429 2.128 . S
N439 C440 1.355 . S
N439 C442 1.311 . S
C440 N439 1.355 . S
C440 C441 1.363 . S
C440 H452 0.929 . S
C441 C440 1.363 . S
C441 N443 1.375 . S
C441 H459 0.931 . S
C442 N439 1.311 . S
C442 N443 1.347 . S
C442 H453 0.929 . S
N443 C441 1.375 . S
N443 C442 1.347 . S
C444 C447 1.365 . S
C444 N449 1.328 . S
C444 H450 0.929 . S
C445 C446 1.362 . S
C445 C448 1.378 . S
C445 H460 0.929 . S
C446 C445 1.362 . S
C446 C447 1.366 . S
C447 C444 1.365 . S
C447 C446 1.366 . S
C447 H461 0.930 . S
C448 C445 1.378 . S
C448 N449 1.315 . S
C448 H451 0.930 . S
N449 Co429 2.194 . S
N449 C444 1.328 . S
N449 C448 1.315 . S
H450 C444 0.929 . S
H451 C448 0.930 . S
H452 C440 0.929 . S
H453 C442 0.929 . S
O454 Co429 2.351 . S
O454 C457 1.244 . S
O455 Co429 2.155 . S
O455 C457 1.240 . S
O456 Co429 2.096 . S
O456 C437 1.247 . S
C457 O454 1.244 . S
C457 O455 1.240 . S
H458 C432 0.931 . S
H459 C441 0.931 . S
H460 C445 0.929 . S
H461 C447 0.930 . S
Co462 N466 2.148 . S
Co462 N472 2.128 . S
Co462 N482 2.194 . S
Co462 O487 2.351 . S
Co462 O488 2.155 . S
Co462 O489 2.096 . S
C463 N466 1.301 . S
C463 N467 1.328 . S
C463 H468 0.930 . S
C464 C465 1.333 . S
C464 N466 1.317 . S
C464 H469 0.930 . S
C465 C464 1.333 . S
C465 N467 1.350 . S
C465 H491 0.931 . S
N466 Co462 2.148 . S
N466 C463 1.301 . S
N466 C464 1.317 . S
N467 C463 1.328 . S
N467 C465 1.350 . S
H468 C463 0.930 . S
H469 C464 0.930 . S
C470 O471 1.224 . S
C470 O489 1.247 . S
O471 C470 1.224 . S
N472 Co462 2.128 . S
N472 C473 1.355 . S
N472 C475 1.311 . S
C473 N472 1.355 . S
C473 C474 1.363 . S
C473 H485 0.929 . S
C474 C473 1.363 . S
C474 N476 1.375 . S
C474 H492 0.931 . S
C475 N472 1.311 . S
C475 N476 1.347 . S
C475 H486 0.929 . S
N476 C474 1.375 . S
N476 C475 1.347 . S
C477 C480 1.365 . S
C477 N482 1.328 . S
C477 H483 0.929 . S
C478 C479 1.362 . S
C478 C481 1.378 . S
C478 H493 0.929 . S
C479 C478 1.362 . S
C479 C480 1.366 . S
C480 C477 1.365 . S
C480 C479 1.366 . S
C480 H494 0.930 . S
C481 C478 1.378 . S
C481 N482 1.315 . S
C481 H484 0.930 . S
N482 Co462 2.194 . S
N482 C477 1.328 . S
N482 C481 1.315 . S
H483 C477 0.929 . S
H484 C481 0.930 . S
H485 C473 0.929 . S
H486 C475 0.929 . S
O487 Co462 2.351 . S
O487 C490 1.244 . S
O488 Co462 2.155 . S
O488 C490 1.240 . S
O489 Co462 2.096 . S
O489 C470 1.247 . S
C490 O487 1.244 . S
C490 O488 1.240 . S
H491 C465 0.931 . S
H492 C474 0.931 . S
H493 C478 0.929 . S
H494 C480 0.930 . S
Co495 N499 2.148 . S
Co495 N505 2.128 . S
Co495 N515 2.194 . S
Co495 O520 2.351 . S
Co495 O521 2.155 . S
Co495 O522 2.096 . S
C496 N499 1.301 . S
C496 N500 1.328 . S
C496 H501 0.930 . S
C497 C498 1.333 . S
C497 N499 1.317 . S
C497 H502 0.930 . S
C498 C497 1.333 . S
C498 N500 1.350 . S
C498 H524 0.931 . S
N499 Co495 2.148 . S
N499 C496 1.301 . S
N499 C497 1.317 . S
N500 C496 1.328 . S
N500 C498 1.350 . S
H501 C496 0.930 . S
H502 C497 0.930 . S
C503 O504 1.224 . S
C503 O522 1.247 . S
O504 C503 1.224 . S
N505 Co495 2.128 . S
N505 C506 1.355 . S
N505 C508 1.311 . S
C506 N505 1.355 . S
C506 C507 1.363 . S
C506 H518 0.929 . S
C507 C506 1.363 . S
C507 N509 1.375 . S
C507 H525 0.931 . S
C508 N505 1.311 . S
C508 N509 1.347 . S
C508 H519 0.929 . S
N509 C507 1.375 . S
N509 C508 1.347 . S
C510 C513 1.365 . S
C510 N515 1.328 . S
C510 H516 0.929 . S
C511 C512 1.362 . S
C511 C514 1.378 . S
C511 H526 0.929 . S
C512 C511 1.362 . S
C512 C513 1.366 . S
C513 C510 1.365 . S
C513 C512 1.366 . S
C513 H527 0.930 . S
C514 C511 1.378 . S
C514 N515 1.315 . S
C514 H517 0.930 . S
N515 Co495 2.194 . S
N515 C510 1.328 . S
N515 C514 1.315 . S
H516 C510 0.929 . S
H517 C514 0.930 . S
H518 C506 0.929 . S
H519 C508 0.929 . S
O520 Co495 2.351 . S
O520 C523 1.244 . S
O521 Co495 2.155 . S
O521 C523 1.240 . S
O522 Co495 2.096 . S
O522 C503 1.247 . S
C523 O520 1.244 . S
C523 O521 1.240 . S
H524 C498 0.931 . S
H525 C507 0.931 . S
H526 C511 0.929 . S
H527 C513 0.930 . S
Co528 N532 2.148 . S
Co528 N538 2.128 . S
Co528 N548 2.194 . S
Co528 O553 2.351 1_556 S
Co528 O554 2.155 . S
Co528 O555 2.096 . S
C529 N532 1.301 . S
C529 N533 1.328 . S
C529 H534 0.930 . S
C530 C531 1.333 . S
C530 N532 1.317 . S
C530 H535 0.930 . S
C531 C530 1.333 . S
C531 N533 1.350 . S
C531 H557 0.931 . S
N532 Co528 2.148 . S
N532 C529 1.301 . S
N532 C530 1.317 . S
N533 C529 1.328 . S
N533 C531 1.350 . S
H534 C529 0.930 . S
H535 C530 0.930 . S
C536 O537 1.224 . S
C536 O555 1.247 . S
O537 C536 1.224 . S
N538 Co528 2.128 . S
N538 C539 1.355 . S
N538 C541 1.311 . S
C539 N538 1.355 . S
C539 C540 1.363 . S
C539 H551 0.929 . S
C540 C539 1.363 . S
C540 N542 1.375 . S
C540 H558 0.931 . S
C541 N538 1.311 . S
C541 N542 1.347 . S
C541 H552 0.929 . S
N542 C540 1.375 . S
N542 C541 1.347 . S
C543 C546 1.365 . S
C543 N548 1.328 . S
C543 H549 0.929 . S
C544 C545 1.362 . S
C544 C547 1.378 . S
C544 H559 0.929 . S
C545 C544 1.362 . S
C545 C546 1.366 . S
C546 C543 1.365 . S
C546 C545 1.366 . S
C546 H560 0.930 . S
C547 C544 1.378 . S
C547 N548 1.315 . S
C547 H550 0.930 . S
N548 Co528 2.194 . S
N548 C543 1.328 . S
N548 C547 1.315 . S
H549 C543 0.929 . S
H550 C547 0.930 . S
H551 C539 0.929 . S
H552 C541 0.929 . S
O553 Co528 2.351 1_554 S
O553 C556 1.244 . S
O554 Co528 2.155 . S
O554 C556 1.240 1_556 S
O555 Co528 2.096 . S
O555 C536 1.247 . S
C556 O553 1.244 . S
C556 O554 1.240 1_554 S
H557 C531 0.931 . S
H558 C540 0.931 . S
H559 C544 0.929 . S
H560 C546 0.930 . S
Co561 N565 2.148 . S
Co561 N571 2.128 . S
Co561 N581 2.194 . S
Co561 O586 2.351 . S
Co561 O587 2.155 . S
Co561 O588 2.096 . S
C562 N565 1.301 . S
C562 N566 1.328 . S
C562 H567 0.930 . S
C563 C564 1.333 . S
C563 N565 1.317 . S
C563 H568 0.930 . S
C564 C563 1.333 . S
C564 N566 1.350 . S
C564 H590 0.931 . S
N565 Co561 2.148 . S
N565 C562 1.301 . S
N565 C563 1.317 . S
N566 C562 1.328 . S
N566 C564 1.350 . S
H567 C562 0.930 . S
H568 C563 0.930 . S
C569 O570 1.224 . S
C569 O588 1.247 . S
O570 C569 1.224 . S
N571 Co561 2.128 . S
N571 C572 1.355 . S
N571 C574 1.311 . S
C572 N571 1.355 . S
C572 C573 1.363 . S
C572 H584 0.929 . S
C573 C572 1.363 . S
C573 N575 1.375 . S
C573 H591 0.931 . S
C574 N571 1.311 . S
C574 N575 1.347 . S
C574 H585 0.929 . S
N575 C573 1.375 . S
N575 C574 1.347 . S
C576 C579 1.365 . S
C576 N581 1.328 . S
C576 H582 0.929 . S
C577 C578 1.362 . S
C577 C580 1.378 . S
C577 H592 0.929 . S
C578 C577 1.362 . S
C578 C579 1.366 . S
C579 C576 1.365 . S
C579 C578 1.366 . S
C579 H593 0.930 . S
C580 C577 1.378 . S
C580 N581 1.315 . S
C580 H583 0.930 . S
N581 Co561 2.194 . S
N581 C576 1.328 . S
N581 C580 1.315 . S
H582 C576 0.929 . S
H583 C580 0.930 . S
H584 C572 0.929 . S
H585 C574 0.929 . S
O586 Co561 2.351 . S
O586 C589 1.244 . S
O587 Co561 2.155 . S
O587 C589 1.240 . S
O588 Co561 2.096 . S
O588 C569 1.247 . S
C589 O586 1.244 . S
C589 O587 1.240 . S
H590 C564 0.931 . S
H591 C573 0.931 . S
H592 C577 0.929 . S
H593 C579 0.930 . S
Co594 N598 2.148 . S
Co594 N604 2.128 . S
Co594 N614 2.194 . S
Co594 O619 2.351 . S
Co594 O620 2.155 . S
Co594 O621 2.096 . S
C595 N598 1.301 . S
C595 N599 1.328 . S
C595 H600 0.930 . S
C596 C597 1.333 . S
C596 N598 1.317 . S
C596 H601 0.930 . S
C597 C596 1.333 . S
C597 N599 1.350 . S
C597 H623 0.931 . S
N598 Co594 2.148 . S
N598 C595 1.301 . S
N598 C596 1.317 . S
N599 C595 1.328 . S
N599 C597 1.350 . S
H600 C595 0.930 . S
H601 C596 0.930 . S
C602 O603 1.224 . S
C602 O621 1.247 . S
O603 C602 1.224 . S
N604 Co594 2.128 . S
N604 C605 1.355 . S
N604 C607 1.311 . S
C605 N604 1.355 . S
C605 C606 1.363 . S
C605 H617 0.929 . S
C606 C605 1.363 . S
C606 N608 1.375 . S
C606 H624 0.931 . S
C607 N604 1.311 . S
C607 N608 1.347 . S
C607 H618 0.929 . S
N608 C606 1.375 . S
N608 C607 1.347 . S
C609 C612 1.365 . S
C609 N614 1.328 . S
C609 H615 0.929 . S
C610 C611 1.362 . S
C610 C613 1.378 . S
C610 H625 0.929 . S
C611 C610 1.362 . S
C611 C612 1.366 . S
C612 C609 1.365 . S
C612 C611 1.366 . S
C612 H626 0.930 . S
C613 C610 1.378 . S
C613 N614 1.315 . S
C613 H616 0.930 . S
N614 Co594 2.194 . S
N614 C609 1.328 . S
N614 C613 1.315 . S
H615 C609 0.929 . S
H616 C613 0.930 . S
H617 C605 0.929 . S
H618 C607 0.929 . S
O619 Co594 2.351 . S
O619 C622 1.244 . S
O620 Co594 2.155 . S
O620 C622 1.240 . S
O621 Co594 2.096 . S
O621 C602 1.247 . S
C622 O619 1.244 . S
C622 O620 1.240 . S
H623 C597 0.931 . S
H624 C606 0.931 . S
H625 C610 0.929 . S
H626 C612 0.930 . S
Co627 N631 2.148 . S
Co627 N637 2.128 . S
Co627 N647 2.194 . S
Co627 O652 2.351 . S
Co627 O653 2.155 . S
Co627 O654 2.096 . S
C628 N631 1.301 . S
C628 N632 1.328 . S
C628 H633 0.930 . S
C629 C630 1.333 . S
C629 N631 1.317 . S
C629 H634 0.930 . S
C630 C629 1.333 . S
C630 N632 1.350 . S
C630 H656 0.931 . S
N631 Co627 2.148 . S
N631 C628 1.301 . S
N631 C629 1.317 . S
N632 C628 1.328 . S
N632 C630 1.350 . S
H633 C628 0.930 . S
H634 C629 0.930 . S
C635 O636 1.224 . S
C635 O654 1.247 . S
O636 C635 1.224 . S
N637 Co627 2.128 . S
N637 C638 1.355 . S
N637 C640 1.311 . S
C638 N637 1.355 . S
C638 C639 1.363 . S
C638 H650 0.929 . S
C639 C638 1.363 . S
C639 N641 1.375 . S
C639 H657 0.931 . S
C640 N637 1.311 . S
C640 N641 1.347 . S
C640 H651 0.929 . S
N641 C639 1.375 . S
N641 C640 1.347 . S
C642 C645 1.365 . S
C642 N647 1.328 . S
C642 H648 0.929 . S
C643 C644 1.362 . S
C643 C646 1.378 . S
C643 H658 0.929 . S
C644 C643 1.362 . S
C644 C645 1.366 . S
C645 C642 1.365 . S
C645 C644 1.366 . S
C645 H659 0.930 . S
C646 C643 1.378 . S
C646 N647 1.315 . S
C646 H649 0.930 . S
N647 Co627 2.194 . S
N647 C642 1.328 . S
N647 C646 1.315 . S
H648 C642 0.929 . S
H649 C646 0.930 . S
H650 C638 0.929 . S
H651 C640 0.929 . S
O652 Co627 2.351 . S
O652 C655 1.244 . S
O653 Co627 2.155 . S
O653 C655 1.240 . S
O654 Co627 2.096 . S
O654 C635 1.247 . S
C655 O652 1.244 . S
C655 O653 1.240 . S
H656 C630 0.931 . S
H657 C639 0.931 . S
H658 C643 0.929 . S
H659 C645 0.930 . S
Co660 N664 2.148 . S
Co660 N670 2.128 . S
Co660 N680 2.194 . S
Co660 O685 2.351 . S
Co660 O686 2.155 . S
Co660 O687 2.096 . S
C661 N664 1.301 . S
C661 N665 1.328 . S
C661 H666 0.930 . S
C662 C663 1.333 . S
C662 N664 1.317 . S
C662 H667 0.930 . S
C663 C662 1.333 . S
C663 N665 1.350 . S
C663 H689 0.931 . S
N664 Co660 2.148 . S
N664 C661 1.301 . S
N664 C662 1.317 . S
N665 C661 1.328 . S
N665 C663 1.350 . S
H666 C661 0.930 . S
H667 C662 0.930 . S
C668 O669 1.224 . S
C668 O687 1.247 . S
O669 C668 1.224 . S
N670 Co660 2.128 . S
N670 C671 1.355 . S
N670 C673 1.311 . S
C671 N670 1.355 . S
C671 C672 1.363 . S
C671 H683 0.929 . S
C672 C671 1.363 . S
C672 N674 1.375 . S
C672 H690 0.931 . S
C673 N670 1.311 . S
C673 N674 1.347 . S
C673 H684 0.929 . S
N674 C672 1.375 . S
N674 C673 1.347 . S
C675 C678 1.365 . S
C675 N680 1.328 . S
C675 H681 0.929 . S
C676 C677 1.362 . S
C676 C679 1.378 . S
C676 H691 0.929 . S
C677 C676 1.362 . S
C677 C678 1.366 . S
C678 C675 1.365 . S
C678 C677 1.366 . S
C678 H692 0.930 . S
C679 C676 1.378 . S
C679 N680 1.315 . S
C679 H682 0.930 . S
N680 Co660 2.194 . S
N680 C675 1.328 . S
N680 C679 1.315 . S
H681 C675 0.929 . S
H682 C679 0.930 . S
H683 C671 0.929 . S
H684 C673 0.929 . S
O685 Co660 2.351 . S
O685 C688 1.244 . S
O686 Co660 2.155 . S
O686 C688 1.240 . S
O687 Co660 2.096 . S
O687 C668 1.247 . S
C688 O685 1.244 . S
C688 O686 1.240 . S
H689 C663 0.931 . S
H690 C672 0.931 . S
H691 C676 0.929 . S
H692 C678 0.930 . S
Co693 N697 2.148 . S
Co693 N703 2.128 . S
Co693 N713 2.194 . S
Co693 O718 2.351 . S
Co693 O719 2.155 . S
Co693 O720 2.096 . S
C694 N697 1.301 . S
C694 N698 1.328 . S
C694 H699 0.930 . S
C695 C696 1.333 . S
C695 N697 1.317 . S
C695 H700 0.930 . S
C696 C695 1.333 . S
C696 N698 1.350 . S
C696 H722 0.931 . S
N697 Co693 2.148 . S
N697 C694 1.301 . S
N697 C695 1.317 . S
N698 C694 1.328 . S
N698 C696 1.350 . S
H699 C694 0.930 . S
H700 C695 0.930 . S
C701 O702 1.224 . S
C701 O720 1.247 . S
O702 C701 1.224 . S
N703 Co693 2.128 . S
N703 C704 1.355 . S
N703 C706 1.311 . S
C704 N703 1.355 . S
C704 C705 1.363 . S
C704 H716 0.929 . S
C705 C704 1.363 . S
C705 N707 1.375 . S
C705 H723 0.931 . S
C706 N703 1.311 . S
C706 N707 1.347 . S
C706 H717 0.929 . S
N707 C705 1.375 . S
N707 C706 1.347 . S
C708 C711 1.365 . S
C708 N713 1.328 . S
C708 H714 0.929 . S
C709 C710 1.362 . S
C709 C712 1.378 . S
C709 H724 0.929 . S
C710 C709 1.362 . S
C710 C711 1.366 . S
C711 C708 1.365 . S
C711 C710 1.366 . S
C711 H725 0.930 . S
C712 C709 1.378 . S
C712 N713 1.315 . S
C712 H715 0.930 . S
N713 Co693 2.194 . S
N713 C708 1.328 . S
N713 C712 1.315 . S
H714 C708 0.929 . S
H715 C712 0.930 . S
H716 C704 0.929 . S
H717 C706 0.929 . S
O718 Co693 2.351 . S
O718 C721 1.244 . S
O719 Co693 2.155 . S
O719 C721 1.240 . S
O720 Co693 2.096 . S
O720 C701 1.247 . S
C721 O718 1.244 . S
C721 O719 1.240 . S
H722 C696 0.931 . S
H723 C705 0.931 . S
H724 C709 0.929 . S
H725 C711 0.930 . S
Co726 N730 2.148 . S
Co726 N736 2.128 . S
Co726 N746 2.194 . S
Co726 O751 2.351 1_554 S
Co726 O752 2.155 . S
Co726 O753 2.096 . S
C727 N730 1.301 . S
C727 N731 1.328 . S
C727 H732 0.930 . S
C728 C729 1.333 . S
C728 N730 1.317 . S
C728 H733 0.930 . S
C729 C728 1.333 . S
C729 N731 1.350 . S
C729 H755 0.931 . S
N730 Co726 2.148 . S
N730 C727 1.301 . S
N730 C728 1.317 . S
N731 C727 1.328 . S
N731 C729 1.350 . S
H732 C727 0.930 . S
H733 C728 0.930 . S
C734 O735 1.224 . S
C734 O753 1.247 . S
O735 C734 1.224 . S
N736 Co726 2.128 . S
N736 C737 1.355 . S
N736 C739 1.311 . S
C737 N736 1.355 . S
C737 C738 1.363 . S
C737 H749 0.929 . S
C738 C737 1.363 . S
C738 N740 1.375 . S
C738 H756 0.931 . S
C739 N736 1.311 . S
C739 N740 1.347 . S
C739 H750 0.929 . S
N740 C738 1.375 . S
N740 C739 1.347 . S
C741 C744 1.365 . S
C741 N746 1.328 . S
C741 H747 0.929 . S
C742 C743 1.362 . S
C742 C745 1.378 . S
C742 H757 0.929 . S
C743 C742 1.362 . S
C743 C744 1.366 . S
C744 C741 1.365 . S
C744 C743 1.366 . S
C744 H758 0.930 . S
C745 C742 1.378 . S
C745 N746 1.315 . S
C745 H748 0.930 . S
N746 Co726 2.194 . S
N746 C741 1.328 . S
N746 C745 1.315 . S
H747 C741 0.929 . S
H748 C745 0.930 . S
H749 C737 0.929 . S
H750 C739 0.929 . S
O751 Co726 2.351 1_556 S
O751 C754 1.244 . S
O752 Co726 2.155 . S
O752 C754 1.240 1_554 S
O753 Co726 2.096 . S
O753 C734 1.247 . S
C754 O751 1.244 . S
C754 O752 1.240 1_556 S
H755 C729 0.931 . S
H756 C738 0.931 . S
H757 C742 0.929 . S
H758 C744 0.930 . S
Co759 N763 2.148 . S
Co759 N769 2.128 . S
Co759 N779 2.194 . S
Co759 O784 2.351 . S
Co759 O785 2.155 . S
Co759 O786 2.096 . S
C760 N763 1.301 . S
C760 N764 1.328 . S
C760 H765 0.930 . S
C761 C762 1.333 . S
C761 N763 1.317 . S
C761 H766 0.930 . S
C762 C761 1.333 . S
C762 N764 1.350 . S
C762 H788 0.931 . S
N763 Co759 2.148 . S
N763 C760 1.301 . S
N763 C761 1.317 . S
N764 C760 1.328 . S
N764 C762 1.350 . S
H765 C760 0.930 . S
H766 C761 0.930 . S
C767 O768 1.224 . S
C767 O786 1.247 . S
O768 C767 1.224 . S
N769 Co759 2.128 . S
N769 C770 1.355 . S
N769 C772 1.311 . S
C770 N769 1.355 . S
C770 C771 1.363 . S
C770 H782 0.929 . S
C771 C770 1.363 . S
C771 N773 1.375 . S
C771 H789 0.931 . S
C772 N769 1.311 . S
C772 N773 1.347 . S
C772 H783 0.929 . S
N773 C771 1.375 . S
N773 C772 1.347 . S
C774 C777 1.365 . S
C774 N779 1.328 . S
C774 H780 0.929 . S
C775 C776 1.362 . S
C775 C778 1.378 . S
C775 H790 0.929 . S
C776 C775 1.362 . S
C776 C777 1.366 . S
C777 C774 1.365 . S
C777 C776 1.366 . S
C777 H791 0.930 . S
C778 C775 1.378 . S
C778 N779 1.315 . S
C778 H781 0.930 . S
N779 Co759 2.194 . S
N779 C774 1.328 . S
N779 C778 1.315 . S
H780 C774 0.929 . S
H781 C778 0.930 . S
H782 C770 0.929 . S
H783 C772 0.929 . S
O784 Co759 2.351 . S
O784 C787 1.244 . S
O785 Co759 2.155 . S
O785 C787 1.240 . S
O786 Co759 2.096 . S
O786 C767 1.247 . S
C787 O784 1.244 . S
C787 O785 1.240 . S
H788 C762 0.931 . S
H789 C771 0.931 . S
H790 C775 0.929 . S
H791 C777 0.930 . S
Co792 N796 2.148 . S
Co792 N802 2.128 . S
Co792 N812 2.194 . S
Co792 O817 2.351 1_554 S
Co792 O818 2.155 . S
Co792 O819 2.096 . S
C793 N796 1.301 . S
C793 N797 1.328 . S
C793 H798 0.930 . S
C794 C795 1.333 . S
C794 N796 1.317 . S
C794 H799 0.930 . S
C795 C794 1.333 . S
C795 N797 1.350 . S
C795 H821 0.931 . S
N796 Co792 2.148 . S
N796 C793 1.301 . S
N796 C794 1.317 . S
N797 C793 1.328 . S
N797 C795 1.350 . S
H798 C793 0.930 . S
H799 C794 0.930 . S
C800 O801 1.224 . S
C800 O819 1.247 . S
O801 C800 1.224 . S
N802 Co792 2.128 . S
N802 C803 1.355 . S
N802 C805 1.311 . S
C803 N802 1.355 . S
C803 C804 1.363 . S
C803 H815 0.929 . S
C804 C803 1.363 . S
C804 N806 1.375 . S
C804 H822 0.931 . S
C805 N802 1.311 . S
C805 N806 1.347 . S
C805 H816 0.929 . S
N806 C804 1.375 . S
N806 C805 1.347 . S
C807 C810 1.365 . S
C807 N812 1.328 . S
C807 H813 0.929 . S
C808 C809 1.362 . S
C808 C811 1.378 . S
C808 H823 0.929 . S
C809 C808 1.362 . S
C809 C810 1.366 . S
C810 C807 1.365 . S
C810 C809 1.366 . S
C810 H824 0.930 . S
C811 C808 1.378 . S
C811 N812 1.315 . S
C811 H814 0.930 . S
N812 Co792 2.194 . S
N812 C807 1.328 . S
N812 C811 1.315 . S
H813 C807 0.929 . S
H814 C811 0.930 . S
H815 C803 0.929 . S
H816 C805 0.929 . S
O817 Co792 2.351 1_556 S
O817 C820 1.244 . S
O818 Co792 2.155 . S
O818 C820 1.240 1_554 S
O819 Co792 2.096 . S
O819 C800 1.247 . S
C820 O817 1.244 . S
C820 O818 1.240 1_556 S
H821 C795 0.931 . S
H822 C804 0.931 . S
H823 C808 0.929 . S
H824 C810 0.930 . S
Co825 N829 2.148 . S
Co825 N835 2.128 . S
Co825 N845 2.194 . S
Co825 O850 2.351 . S
Co825 O851 2.155 . S
Co825 O852 2.096 . S
C826 N829 1.301 . S
C826 N830 1.328 . S
C826 H831 0.930 . S
C827 C828 1.333 . S
C827 N829 1.317 . S
C827 H832 0.930 . S
C828 C827 1.333 . S
C828 N830 1.350 . S
C828 H854 0.931 . S
N829 Co825 2.148 . S
N829 C826 1.301 . S
N829 C827 1.317 . S
N830 C826 1.328 . S
N830 C828 1.350 . S
H831 C826 0.930 . S
H832 C827 0.930 . S
C833 O834 1.224 . S
C833 O852 1.247 . S
O834 C833 1.224 . S
N835 Co825 2.128 . S
N835 C836 1.355 . S
N835 C838 1.311 . S
C836 N835 1.355 . S
C836 C837 1.363 . S
C836 H848 0.929 . S
C837 C836 1.363 . S
C837 N839 1.375 . S
C837 H855 0.931 . S
C838 N835 1.311 . S
C838 N839 1.347 . S
C838 H849 0.929 . S
N839 C837 1.375 . S
N839 C838 1.347 . S
C840 C843 1.365 . S
C840 N845 1.328 . S
C840 H846 0.929 . S
C841 C842 1.362 . S
C841 C844 1.378 . S
C841 H856 0.929 . S
C842 C841 1.362 . S
C842 C843 1.366 . S
C843 C840 1.365 . S
C843 C842 1.366 . S
C843 H857 0.930 . S
C844 C841 1.378 . S
C844 N845 1.315 . S
C844 H847 0.930 . S
N845 Co825 2.194 . S
N845 C840 1.328 . S
N845 C844 1.315 . S
H846 C840 0.929 . S
H847 C844 0.930 . S
H848 C836 0.929 . S
H849 C838 0.929 . S
O850 Co825 2.351 . S
O850 C853 1.244 . S
O851 Co825 2.155 . S
O851 C853 1.240 . S
O852 Co825 2.096 . S
O852 C833 1.247 . S
C853 O850 1.244 . S
C853 O851 1.240 . S
H854 C828 0.931 . S
H855 C837 0.931 . S
H856 C841 0.929 . S
H857 C843 0.930 . S
Co858 N862 2.148 . S
Co858 N868 2.128 . S
Co858 N878 2.194 . S
Co858 O883 2.351 . S
Co858 O884 2.155 . S
Co858 O885 2.096 . S
C859 N862 1.301 . S
C859 N863 1.328 . S
C859 H864 0.930 . S
C860 C861 1.333 . S
C860 N862 1.317 . S
C860 H865 0.930 . S
C861 C860 1.333 . S
C861 N863 1.350 . S
C861 H887 0.931 . S
N862 Co858 2.148 . S
N862 C859 1.301 . S
N862 C860 1.317 . S
N863 C859 1.328 . S
N863 C861 1.350 . S
H864 C859 0.930 . S
H865 C860 0.930 . S
C866 O867 1.224 . S
C866 O885 1.247 . S
O867 C866 1.224 . S
N868 Co858 2.128 . S
N868 C869 1.355 . S
N868 C871 1.311 . S
C869 N868 1.355 . S
C869 C870 1.363 . S
C869 H881 0.929 . S
C870 C869 1.363 . S
C870 N872 1.375 . S
C870 H888 0.931 . S
C871 N868 1.311 . S
C871 N872 1.347 . S
C871 H882 0.929 . S
N872 C870 1.375 . S
N872 C871 1.347 . S
C873 C876 1.365 . S
C873 N878 1.328 . S
C873 H879 0.929 . S
C874 C875 1.362 . S
C874 C877 1.378 . S
C874 H889 0.929 . S
C875 C874 1.362 . S
C875 C876 1.366 . S
C876 C873 1.365 . S
C876 C875 1.366 . S
C876 H890 0.930 . S
C877 C874 1.378 . S
C877 N878 1.315 . S
C877 H880 0.930 . S
N878 Co858 2.194 . S
N878 C873 1.328 . S
N878 C877 1.315 . S
H879 C873 0.929 . S
H880 C877 0.930 . S
H881 C869 0.929 . S
H882 C871 0.929 . S
O883 Co858 2.351 . S
O883 C886 1.244 . S
O884 Co858 2.155 . S
O884 C886 1.240 . S
O885 Co858 2.096 . S
O885 C866 1.247 . S
C886 O883 1.244 . S
C886 O884 1.240 . S
H887 C861 0.931 . S
H888 C870 0.931 . S
H889 C874 0.929 . S
H890 C876 0.930 . S
Co891 N895 2.148 . S
Co891 N901 2.128 . S
Co891 N911 2.194 . S
Co891 O916 2.351 . S
Co891 O917 2.155 . S
Co891 O918 2.096 . S
C892 N895 1.301 . S
C892 N896 1.328 . S
C892 H897 0.930 . S
C893 C894 1.333 . S
C893 N895 1.317 . S
C893 H898 0.930 . S
C894 C893 1.333 . S
C894 N896 1.350 . S
C894 H920 0.931 . S
N895 Co891 2.148 . S
N895 C892 1.301 . S
N895 C893 1.317 . S
N896 C892 1.328 . S
N896 C894 1.350 . S
H897 C892 0.930 . S
H898 C893 0.930 . S
C899 O900 1.224 . S
C899 O918 1.247 . S
O900 C899 1.224 . S
N901 Co891 2.128 . S
N901 C902 1.355 . S
N901 C904 1.311 . S
C902 N901 1.355 . S
C902 C903 1.363 . S
C902 H914 0.929 . S
C903 C902 1.363 . S
C903 N905 1.375 . S
C903 H921 0.931 . S
C904 N901 1.311 . S
C904 N905 1.347 . S
C904 H915 0.929 . S
N905 C903 1.375 . S
N905 C904 1.347 . S
C906 C909 1.365 . S
C906 N911 1.328 . S
C906 H912 0.929 . S
C907 C908 1.362 . S
C907 C910 1.378 . S
C907 H922 0.929 . S
C908 C907 1.362 . S
C908 C909 1.366 . S
C909 C906 1.365 . S
C909 C908 1.366 . S
C909 H923 0.930 . S
C910 C907 1.378 . S
C910 N911 1.315 . S
C910 H913 0.930 . S
N911 Co891 2.194 . S
N911 C906 1.328 . S
N911 C910 1.315 . S
H912 C906 0.929 . S
H913 C910 0.930 . S
H914 C902 0.929 . S
H915 C904 0.929 . S
O916 Co891 2.351 . S
O916 C919 1.244 . S
O917 Co891 2.155 . S
O917 C919 1.240 . S
O918 Co891 2.096 . S
O918 C899 1.247 . S
C919 O916 1.244 . S
C919 O917 1.240 . S
H920 C894 0.931 . S
H921 C903 0.931 . S
H922 C907 0.929 . S
H923 C909 0.930 . S
Co924 N928 2.148 . S
Co924 N934 2.128 . S
Co924 N944 2.194 . S
Co924 O949 2.351 . S
Co924 O950 2.155 . S
Co924 O951 2.096 . S
C925 N928 1.301 . S
C925 N929 1.328 . S
C925 H930 0.930 . S
C926 C927 1.333 . S
C926 N928 1.317 . S
C926 H931 0.930 . S
C927 C926 1.333 . S
C927 N929 1.350 . S
C927 H953 0.931 . S
N928 Co924 2.148 . S
N928 C925 1.301 . S
N928 C926 1.317 . S
N929 C925 1.328 . S
N929 C927 1.350 . S
H930 C925 0.930 . S
H931 C926 0.930 . S
C932 O933 1.224 . S
C932 O951 1.247 . S
O933 C932 1.224 . S
N934 Co924 2.128 . S
N934 C935 1.355 . S
N934 C937 1.311 . S
C935 N934 1.355 . S
C935 C936 1.363 . S
C935 H947 0.929 . S
C936 C935 1.363 . S
C936 N938 1.375 . S
C936 H954 0.931 . S
C937 N934 1.311 . S
C937 N938 1.347 . S
C937 H948 0.929 . S
N938 C936 1.375 . S
N938 C937 1.347 . S
C939 C942 1.365 . S
C939 N944 1.328 . S
C939 H945 0.929 . S
C940 C941 1.362 . S
C940 C943 1.378 . S
C940 H955 0.929 . S
C941 C940 1.362 . S
C941 C942 1.366 . S
C942 C939 1.365 . S
C942 C941 1.366 . S
C942 H956 0.930 . S
C943 C940 1.378 . S
C943 N944 1.315 . S
C943 H946 0.930 . S
N944 Co924 2.194 . S
N944 C939 1.328 . S
N944 C943 1.315 . S
H945 C939 0.929 . S
H946 C943 0.930 . S
H947 C935 0.929 . S
H948 C937 0.929 . S
O949 Co924 2.351 . S
O949 C952 1.244 . S
O950 Co924 2.155 . S
O950 C952 1.240 . S
O951 Co924 2.096 . S
O951 C932 1.247 . S
C952 O949 1.244 . S
C952 O950 1.240 . S
H953 C927 0.931 . S
H954 C936 0.931 . S
H955 C940 0.929 . S
H956 C942 0.930 . S
Co957 N961 2.148 . S
Co957 N967 2.128 . S
Co957 N977 2.194 . S
Co957 O982 2.351 . S
Co957 O983 2.155 . S
Co957 O984 2.096 . S
C958 N961 1.301 . S
C958 N962 1.328 . S
C958 H963 0.930 . S
C959 C960 1.333 . S
C959 N961 1.317 . S
C959 H964 0.930 . S
C960 C959 1.333 . S
C960 N962 1.350 . S
C960 H986 0.931 . S
N961 Co957 2.148 . S
N961 C958 1.301 . S
N961 C959 1.317 . S
N962 C958 1.328 . S
N962 C960 1.350 . S
H963 C958 0.930 . S
H964 C959 0.930 . S
C965 O966 1.224 . S
C965 O984 1.247 . S
O966 C965 1.224 . S
N967 Co957 2.128 . S
N967 C968 1.355 . S
N967 C970 1.311 . S
C968 N967 1.355 . S
C968 C969 1.363 . S
C968 H980 0.929 . S
C969 C968 1.363 . S
C969 N971 1.375 . S
C969 H987 0.931 . S
C970 N967 1.311 . S
C970 N971 1.347 . S
C970 H981 0.929 . S
N971 C969 1.375 . S
N971 C970 1.347 . S
C972 C975 1.365 . S
C972 N977 1.328 . S
C972 H978 0.929 . S
C973 C974 1.362 . S
C973 C976 1.378 . S
C973 H988 0.929 . S
C974 C973 1.362 . S
C974 C975 1.366 . S
C975 C972 1.365 . S
C975 C974 1.366 . S
C975 H989 0.930 . S
C976 C973 1.378 . S
C976 N977 1.315 . S
C976 H979 0.930 . S
N977 Co957 2.194 . S
N977 C972 1.328 . S
N977 C976 1.315 . S
H978 C972 0.929 . S
H979 C976 0.930 . S
H980 C968 0.929 . S
H981 C970 0.929 . S
O982 Co957 2.351 . S
O982 C985 1.244 . S
O983 Co957 2.155 . S
O983 C985 1.240 . S
O984 Co957 2.096 . S
O984 C965 1.247 . S
C985 O982 1.244 . S
C985 O983 1.240 . S
H986 C960 0.931 . S
H987 C969 0.931 . S
H988 C973 0.929 . S
H989 C975 0.930 . S
Co990 N994 2.148 . S
Co990 N1000 2.128 . S
Co990 N1010 2.194 . S
Co990 O1015 2.351 1_556 S
Co990 O1016 2.155 . S
Co990 O1017 2.096 . S
C991 N994 1.301 . S
C991 N995 1.328 . S
C991 H996 0.930 . S
C992 C993 1.333 . S
C992 N994 1.317 . S
C992 H997 0.930 . S
C993 C992 1.333 . S
C993 N995 1.350 . S
C993 H1019 0.931 . S
N994 Co990 2.148 . S
N994 C991 1.301 . S
N994 C992 1.317 . S
N995 C991 1.328 . S
N995 C993 1.350 . S
H996 C991 0.930 . S
H997 C992 0.930 . S
C998 O999 1.224 . S
C998 O1017 1.247 . S
O999 C998 1.224 . S
N1000 Co990 2.128 . S
N1000 C1001 1.355 . S
N1000 C1003 1.311 . S
C1001 N1000 1.355 . S
C1001 C1002 1.363 . S
C1001 H1013 0.929 . S
C1002 C1001 1.363 . S
C1002 N1004 1.375 . S
C1002 H1020 0.931 . S
C1003 N1000 1.311 . S
C1003 N1004 1.347 . S
C1003 H1014 0.929 . S
N1004 C1002 1.375 . S
N1004 C1003 1.347 . S
C1005 C1008 1.365 . S
C1005 N1010 1.328 . S
C1005 H1011 0.929 . S
C1006 C1007 1.362 . S
C1006 C1009 1.378 . S
C1006 H1021 0.929 . S
C1007 C1006 1.362 . S
C1007 C1008 1.366 . S
C1008 C1005 1.365 . S
C1008 C1007 1.366 . S
C1008 H1022 0.930 . S
C1009 C1006 1.378 . S
C1009 N1010 1.315 . S
C1009 H1012 0.930 . S
N1010 Co990 2.194 . S
N1010 C1005 1.328 . S
N1010 C1009 1.315 . S
H1011 C1005 0.929 . S
H1012 C1009 0.930 . S
H1013 C1001 0.929 . S
H1014 C1003 0.929 . S
O1015 Co990 2.351 1_554 S
O1015 C1018 1.244 . S
O1016 Co990 2.155 . S
O1016 C1018 1.240 1_556 S
O1017 Co990 2.096 . S
O1017 C998 1.247 . S
C1018 O1015 1.244 . S
C1018 O1016 1.240 1_554 S
H1019 C993 0.931 . S
H1020 C1002 0.931 . S
H1021 C1006 0.929 . S
H1022 C1008 0.930 . S
Co1023 N1027 2.148 . S
Co1023 N1033 2.128 . S
Co1023 N1043 2.194 . S
Co1023 O1048 2.351 . S
Co1023 O1049 2.155 . S
Co1023 O1050 2.096 . S
C1024 N1027 1.301 . S
C1024 N1028 1.328 . S
C1024 H1029 0.930 . S
C1025 C1026 1.333 . S
C1025 N1027 1.317 . S
C1025 H1030 0.930 . S
C1026 C1025 1.333 . S
C1026 N1028 1.350 . S
C1026 H1052 0.931 . S
N1027 Co1023 2.148 . S
N1027 C1024 1.301 . S
N1027 C1025 1.317 . S
N1028 C1024 1.328 . S
N1028 C1026 1.350 . S
H1029 C1024 0.930 . S
H1030 C1025 0.930 . S
C1031 O1032 1.224 . S
C1031 O1050 1.247 . S
O1032 C1031 1.224 . S
N1033 Co1023 2.128 . S
N1033 C1034 1.355 . S
N1033 C1036 1.311 . S
C1034 N1033 1.355 . S
C1034 C1035 1.363 . S
C1034 H1046 0.929 . S
C1035 C1034 1.363 . S
C1035 N1037 1.375 . S
C1035 H1053 0.931 . S
C1036 N1033 1.311 . S
C1036 N1037 1.347 . S
C1036 H1047 0.929 . S
N1037 C1035 1.375 . S
N1037 C1036 1.347 . S
C1038 C1041 1.365 . S
C1038 N1043 1.328 . S
C1038 H1044 0.929 . S
C1039 C1040 1.362 . S
C1039 C1042 1.378 . S
C1039 H1054 0.929 . S
C1040 C1039 1.362 . S
C1040 C1041 1.366 . S
C1041 C1038 1.365 . S
C1041 C1040 1.366 . S
C1041 H1055 0.930 . S
C1042 C1039 1.378 . S
C1042 N1043 1.315 . S
C1042 H1045 0.930 . S
N1043 Co1023 2.194 . S
N1043 C1038 1.328 . S
N1043 C1042 1.315 . S
H1044 C1038 0.929 . S
H1045 C1042 0.930 . S
H1046 C1034 0.929 . S
H1047 C1036 0.929 . S
O1048 Co1023 2.351 . S
O1048 C1051 1.244 . S
O1049 Co1023 2.155 . S
O1049 C1051 1.240 . S
O1050 Co1023 2.096 . S
O1050 C1031 1.247 . S
C1051 O1048 1.244 . S
C1051 O1049 1.240 . S
H1052 C1026 0.931 . S
H1053 C1035 0.931 . S
H1054 C1039 0.929 . S
H1055 C1041 0.930 . S
C1056 C1057 1.369 . S
C1056 C1058 1.419 . S
C1056 H1060 0.930 . S
C1057 C1056 1.369 . S
C1057 C1066 1.429 . S
C1058 C1056 1.419 . S
C1058 C1059 1.363 . S
C1058 H1061 0.929 . S
C1059 C1058 1.363 . S
C1059 C1065 1.428 . S
H1060 C1056 0.930 . S
H1061 C1058 0.929 . S
S1062 N1063 1.613 . S
S1062 N1064 1.610 . S
N1063 S1062 1.613 . S
N1063 C1066 1.350 . S
N1064 S1062 1.610 . S
N1064 C1065 1.351 . S
C1065 C1059 1.428 . S
C1065 N1064 1.351 . S
C1065 C1066 1.434 . S
C1066 C1057 1.429 . S
C1066 N1063 1.350 . S
C1066 C1065 1.434 . S
C1067 C1068 1.369 . S
C1067 C1069 1.419 . S
C1067 H1071 0.930 . S
C1068 C1067 1.369 . S
C1068 C1077 1.429 . S
C1069 C1067 1.419 . S
C1069 C1070 1.363 . S
C1069 H1072 0.929 . S
C1070 C1069 1.363 . S
C1070 C1076 1.428 . S
H1071 C1067 0.930 . S
H1072 C1069 0.929 . S
S1073 N1074 1.613 . S
S1073 N1075 1.610 . S
N1074 S1073 1.613 . S
N1074 C1077 1.350 . S
N1075 S1073 1.610 . S
N1075 C1076 1.351 . S
C1076 C1070 1.428 . S
C1076 N1075 1.351 . S
C1076 C1077 1.434 . S
C1077 C1068 1.429 . S
C1077 N1074 1.350 . S
C1077 C1076 1.434 . S
C1078 C1079 1.369 . S
C1078 C1080 1.419 . S
C1078 H1082 0.930 . S
C1079 C1078 1.369 . S
C1079 C1088 1.429 . S
C1080 C1078 1.419 . S
C1080 C1081 1.363 . S
C1080 H1083 0.929 . S
C1081 C1080 1.363 . S
C1081 C1087 1.428 . S
H1082 C1078 0.930 . S
H1083 C1080 0.929 . S
S1084 N1085 1.613 . S
S1084 N1086 1.610 . S
N1085 S1084 1.613 . S
N1085 C1088 1.350 . S
N1086 S1084 1.610 . S
N1086 C1087 1.351 . S
C1087 C1081 1.428 . S
C1087 N1086 1.351 . S
C1087 C1088 1.434 . S
C1088 C1079 1.429 . S
C1088 N1085 1.350 . S
C1088 C1087 1.434 . S
C1089 C1090 1.369 . S
C1089 C1091 1.419 . S
C1089 H1093 0.930 . S
C1090 C1089 1.369 . S
C1090 C1099 1.429 . S
C1091 C1089 1.419 . S
C1091 C1092 1.363 . S
C1091 H1094 0.929 . S
C1092 C1091 1.363 . S
C1092 C1098 1.428 . S
H1093 C1089 0.930 . S
H1094 C1091 0.929 . S
S1095 N1096 1.613 . S
S1095 N1097 1.610 . S
N1096 S1095 1.613 . S
N1096 C1099 1.350 . S
N1097 S1095 1.610 . S
N1097 C1098 1.351 . S
C1098 C1092 1.428 . S
C1098 N1097 1.351 . S
C1098 C1099 1.434 . S
C1099 C1090 1.429 . S
C1099 N1096 1.350 . S
C1099 C1098 1.434 . S
C1100 C1101 1.369 . S
C1100 C1102 1.419 . S
C1100 H1104 0.930 . S
C1101 C1100 1.369 . S
C1101 C1110 1.429 . S
C1102 C1100 1.419 . S
C1102 C1103 1.363 . S
C1102 H1105 0.929 . S
C1103 C1102 1.363 . S
C1103 C1109 1.428 . S
H1104 C1100 0.930 . S
H1105 C1102 0.929 . S
S1106 N1107 1.613 . S
S1106 N1108 1.610 . S
N1107 S1106 1.613 . S
N1107 C1110 1.350 . S
N1108 S1106 1.610 . S
N1108 C1109 1.351 . S
C1109 C1103 1.428 . S
C1109 N1108 1.351 . S
C1109 C1110 1.434 . S
C1110 C1101 1.429 . S
C1110 N1107 1.350 . S
C1110 C1109 1.434 . S
C1111 C1112 1.369 . S
C1111 C1113 1.419 . S
C1111 H1115 0.930 . S
C1112 C1111 1.369 . S
C1112 C1121 1.429 . S
C1113 C1111 1.419 . S
C1113 C1114 1.363 . S
C1113 H1116 0.929 . S
C1114 C1113 1.363 . S
C1114 C1120 1.428 . S
H1115 C1111 0.930 . S
H1116 C1113 0.929 . S
S1117 N1118 1.613 . S
S1117 N1119 1.610 . S
N1118 S1117 1.613 . S
N1118 C1121 1.350 . S
N1119 S1117 1.610 . S
N1119 C1120 1.351 . S
C1120 C1114 1.428 . S
C1120 N1119 1.351 . S
C1120 C1121 1.434 . S
C1121 C1112 1.429 . S
C1121 N1118 1.350 . S
C1121 C1120 1.434 . S
C1122 C1123 1.369 . S
C1122 C1124 1.419 . S
C1122 H1126 0.930 . S
C1123 C1122 1.369 . S
C1123 C1132 1.429 . S
C1124 C1122 1.419 . S
C1124 C1125 1.363 . S
C1124 H1127 0.929 . S
C1125 C1124 1.363 . S
C1125 C1131 1.428 . S
H1126 C1122 0.930 . S
H1127 C1124 0.929 . S
S1128 N1129 1.613 . S
S1128 N1130 1.610 . S
N1129 S1128 1.613 . S
N1129 C1132 1.350 . S
N1130 S1128 1.610 . S
N1130 C1131 1.351 . S
C1131 C1125 1.428 . S
C1131 N1130 1.351 . S
C1131 C1132 1.434 . S
C1132 C1123 1.429 . S
C1132 N1129 1.350 . S
C1132 C1131 1.434 . S
C1133 C1134 1.369 . S
C1133 C1135 1.419 . S
C1133 H1137 0.930 . S
C1134 C1133 1.369 . S
C1134 C1143 1.429 . S
C1135 C1133 1.419 . S
C1135 C1136 1.363 . S
C1135 H1138 0.929 . S
C1136 C1135 1.363 . S
C1136 C1142 1.428 . S
H1137 C1133 0.930 . S
H1138 C1135 0.929 . S
S1139 N1140 1.613 . S
S1139 N1141 1.610 . S
N1140 S1139 1.613 . S
N1140 C1143 1.350 . S
N1141 S1139 1.610 . S
N1141 C1142 1.351 . S
C1142 C1136 1.428 . S
C1142 N1141 1.351 . S
C1142 C1143 1.434 . S
C1143 C1134 1.429 . S
C1143 N1140 1.350 . S
C1143 C1142 1.434 . S
C1144 C1145 1.369 . S
C1144 C1146 1.419 . S
C1144 H1148 0.930 . S
C1145 C1144 1.369 . S
C1145 C1154 1.429 . S
C1146 C1144 1.419 . S
C1146 C1147 1.363 . S
C1146 H1149 0.929 . S
C1147 C1146 1.363 . S
C1147 C1153 1.428 . S
H1148 C1144 0.930 . S
H1149 C1146 0.929 . S
S1150 N1151 1.613 . S
S1150 N1152 1.610 . S
N1151 S1150 1.613 . S
N1151 C1154 1.350 . S
N1152 S1150 1.610 . S
N1152 C1153 1.351 . S
C1153 C1147 1.428 . S
C1153 N1152 1.351 . S
C1153 C1154 1.434 . S
C1154 C1145 1.429 . S
C1154 N1151 1.350 . S
C1154 C1153 1.434 . S
C1155 C1156 1.369 . S
C1155 C1157 1.419 . S
C1155 H1159 0.930 . S
C1156 C1155 1.369 . S
C1156 C1165 1.429 . S
C1157 C1155 1.419 . S
C1157 C1158 1.363 . S
C1157 H1160 0.929 . S
C1158 C1157 1.363 . S
C1158 C1164 1.428 . S
H1159 C1155 0.930 . S
H1160 C1157 0.929 . S
S1161 N1162 1.613 . S
S1161 N1163 1.610 . S
N1162 S1161 1.613 . S
N1162 C1165 1.350 . S
N1163 S1161 1.610 . S
N1163 C1164 1.351 . S
C1164 C1158 1.428 . S
C1164 N1163 1.351 . S
C1164 C1165 1.434 . S
C1165 C1156 1.429 . S
C1165 N1162 1.350 . S
C1165 C1164 1.434 . S
C1166 C1167 1.369 . S
C1166 C1168 1.419 . S
C1166 H1170 0.930 . S
C1167 C1166 1.369 . S
C1167 C1176 1.429 . S
C1168 C1166 1.419 . S
C1168 C1169 1.363 . S
C1168 H1171 0.929 . S
C1169 C1168 1.363 . S
C1169 C1175 1.428 . S
H1170 C1166 0.930 . S
H1171 C1168 0.929 . S
S1172 N1173 1.613 . S
S1172 N1174 1.610 . S
N1173 S1172 1.613 . S
N1173 C1176 1.350 . S
N1174 S1172 1.610 . S
N1174 C1175 1.351 . S
C1175 C1169 1.428 . S
C1175 N1174 1.351 . S
C1175 C1176 1.434 . S
C1176 C1167 1.429 . S
C1176 N1173 1.350 . S
C1176 C1175 1.434 . S
C1177 C1178 1.369 . S
C1177 C1179 1.419 . S
C1177 H1181 0.930 . S
C1178 C1177 1.369 . S
C1178 C1187 1.429 . S
C1179 C1177 1.419 . S
C1179 C1180 1.363 . S
C1179 H1182 0.929 . S
C1180 C1179 1.363 . S
C1180 C1186 1.428 . S
H1181 C1177 0.930 . S
H1182 C1179 0.929 . S
S1183 N1184 1.613 . S
S1183 N1185 1.610 . S
N1184 S1183 1.613 . S
N1184 C1187 1.350 . S
N1185 S1183 1.610 . S
N1185 C1186 1.351 . S
C1186 C1180 1.428 . S
C1186 N1185 1.351 . S
C1186 C1187 1.434 . S
C1187 C1178 1.429 . S
C1187 N1184 1.350 . S
C1187 C1186 1.434 . S
C1188 C1189 1.369 . S
C1188 C1190 1.419 . S
C1188 H1192 0.930 . S
C1189 C1188 1.369 . S
C1189 C1198 1.429 . S
C1190 C1188 1.419 . S
C1190 C1191 1.363 . S
C1190 H1193 0.929 . S
C1191 C1190 1.363 . S
C1191 C1197 1.428 . S
H1192 C1188 0.930 . S
H1193 C1190 0.929 . S
S1194 N1195 1.613 . S
S1194 N1196 1.610 . S
N1195 S1194 1.613 . S
N1195 C1198 1.350 . S
N1196 S1194 1.610 . S
N1196 C1197 1.351 . S
C1197 C1191 1.428 . S
C1197 N1196 1.351 . S
C1197 C1198 1.434 . S
C1198 C1189 1.429 . S
C1198 N1195 1.350 . S
C1198 C1197 1.434 . S
C1199 C1200 1.369 . S
C1199 C1201 1.419 . S
C1199 H1203 0.930 . S
C1200 C1199 1.369 . S
C1200 C1209 1.429 . S
C1201 C1199 1.419 . S
C1201 C1202 1.363 . S
C1201 H1204 0.929 . S
C1202 C1201 1.363 . S
C1202 C1208 1.428 . S
H1203 C1199 0.930 . S
H1204 C1201 0.929 . S
S1205 N1206 1.613 . S
S1205 N1207 1.610 . S
N1206 S1205 1.613 . S
N1206 C1209 1.350 . S
N1207 S1205 1.610 . S
N1207 C1208 1.351 . S
C1208 C1202 1.428 . S
C1208 N1207 1.351 . S
C1208 C1209 1.434 . S
C1209 C1200 1.429 . S
C1209 N1206 1.350 . S
C1209 C1208 1.434 . S
C1210 C1211 1.369 . S
C1210 C1212 1.419 . S
C1210 H1214 0.930 . S
C1211 C1210 1.369 . S
C1211 C1220 1.429 . S
C1212 C1210 1.419 . S
C1212 C1213 1.363 . S
C1212 H1215 0.929 . S
C1213 C1212 1.363 . S
C1213 C1219 1.428 . S
H1214 C1210 0.930 . S
H1215 C1212 0.929 . S
S1216 N1217 1.613 . S
S1216 N1218 1.610 . S
N1217 S1216 1.613 . S
N1217 C1220 1.350 . S
N1218 S1216 1.610 . S
N1218 C1219 1.351 . S
C1219 C1213 1.428 . S
C1219 N1218 1.351 . S
C1219 C1220 1.434 . S
C1220 C1211 1.429 . S
C1220 N1217 1.350 . S
C1220 C1219 1.434 . S
C1221 C1222 1.369 . S
C1221 C1223 1.419 . S
C1221 H1225 0.930 . S
C1222 C1221 1.369 . S
C1222 C1231 1.429 . S
C1223 C1221 1.419 . S
C1223 C1224 1.363 . S
C1223 H1226 0.929 . S
C1224 C1223 1.363 . S
C1224 C1230 1.428 . S
H1225 C1221 0.930 . S
H1226 C1223 0.929 . S
S1227 N1228 1.613 . S
S1227 N1229 1.610 . S
N1228 S1227 1.613 . S
N1228 C1231 1.350 . S
N1229 S1227 1.610 . S
N1229 C1230 1.351 . S
C1230 C1224 1.428 . S
C1230 N1229 1.351 . S
C1230 C1231 1.434 . S
C1231 C1222 1.429 . S
C1231 N1228 1.350 . S
C1231 C1230 1.434 . S
C1232 C1233 1.369 . S
C1232 C1234 1.419 . S
C1232 H1236 0.930 . S
C1233 C1232 1.369 . S
C1233 C1242 1.429 . S
C1234 C1232 1.419 . S
C1234 C1235 1.363 . S
C1234 H1237 0.929 . S
C1235 C1234 1.363 . S
C1235 C1241 1.428 . S
H1236 C1232 0.930 . S
H1237 C1234 0.929 . S
S1238 N1239 1.613 . S
S1238 N1240 1.610 . S
N1239 S1238 1.613 . S
N1239 C1242 1.350 . S
N1240 S1238 1.610 . S
N1240 C1241 1.351 . S
C1241 C1235 1.428 . S
C1241 N1240 1.351 . S
C1241 C1242 1.434 . S
C1242 C1233 1.429 . S
C1242 N1239 1.350 . S
C1242 C1241 1.434 . S
C1243 C1244 1.369 . S
C1243 C1245 1.419 . S
C1243 H1247 0.930 . S
C1244 C1243 1.369 . S
C1244 C1253 1.429 . S
C1245 C1243 1.419 . S
C1245 C1246 1.363 . S
C1245 H1248 0.929 . S
C1246 C1245 1.363 . S
C1246 C1252 1.428 . S
H1247 C1243 0.930 . S
H1248 C1245 0.929 . S
S1249 N1250 1.613 . S
S1249 N1251 1.610 . S
N1250 S1249 1.613 . S
N1250 C1253 1.350 . S
N1251 S1249 1.610 . S
N1251 C1252 1.351 . S
C1252 C1246 1.428 . S
C1252 N1251 1.351 . S
C1252 C1253 1.434 . S
C1253 C1244 1.429 . S
C1253 N1250 1.350 . S
C1253 C1252 1.434 . S
C1254 C1255 1.369 . S
C1254 C1256 1.419 . S
C1254 H1258 0.930 . S
C1255 C1254 1.369 . S
C1255 C1264 1.429 . S
C1256 C1254 1.419 . S
C1256 C1257 1.363 . S
C1256 H1259 0.929 . S
C1257 C1256 1.363 . S
C1257 C1263 1.428 . S
H1258 C1254 0.930 . S
H1259 C1256 0.929 . S
S1260 N1261 1.613 . S
S1260 N1262 1.610 . S
N1261 S1260 1.613 . S
N1261 C1264 1.350 . S
N1262 S1260 1.610 . S
N1262 C1263 1.351 . S
C1263 C1257 1.428 . S
C1263 N1262 1.351 . S
C1263 C1264 1.434 . S
C1264 C1255 1.429 . S
C1264 N1261 1.350 . S
C1264 C1263 1.434 . S
C1265 C1266 1.369 . S
C1265 C1267 1.419 . S
C1265 H1269 0.930 . S
C1266 C1265 1.369 . S
C1266 C1275 1.429 . S
C1267 C1265 1.419 . S
C1267 C1268 1.363 . S
C1267 H1270 0.929 . S
C1268 C1267 1.363 . S
C1268 C1274 1.428 . S
H1269 C1265 0.930 . S
H1270 C1267 0.929 . S
S1271 N1272 1.613 . S
S1271 N1273 1.610 . S
N1272 S1271 1.613 . S
N1272 C1275 1.350 . S
N1273 S1271 1.610 . S
N1273 C1274 1.351 . S
C1274 C1268 1.428 . S
C1274 N1273 1.351 . S
C1274 C1275 1.434 . S
C1275 C1266 1.429 . S
C1275 N1272 1.350 . S
C1275 C1274 1.434 . S
C1276 C1277 1.369 . S
C1276 C1278 1.419 . S
C1276 H1280 0.930 . S
C1277 C1276 1.369 . S
C1277 C1286 1.429 . S
C1278 C1276 1.419 . S
C1278 C1279 1.363 . S
C1278 H1281 0.929 . S
C1279 C1278 1.363 . S
C1279 C1285 1.428 . S
H1280 C1276 0.930 . S
H1281 C1278 0.929 . S
S1282 N1283 1.613 . S
S1282 N1284 1.610 . S
N1283 S1282 1.613 . S
N1283 C1286 1.350 . S
N1284 S1282 1.610 . S
N1284 C1285 1.351 . S
C1285 C1279 1.428 . S
C1285 N1284 1.351 . S
C1285 C1286 1.434 . S
C1286 C1277 1.429 . S
C1286 N1283 1.350 . S
C1286 C1285 1.434 . S
C1287 C1288 1.369 . S
C1287 C1289 1.419 . S
C1287 H1291 0.930 . S
C1288 C1287 1.369 . S
C1288 C1297 1.429 . S
C1289 C1287 1.419 . S
C1289 C1290 1.363 . S
C1289 H1292 0.929 . S
C1290 C1289 1.363 . S
C1290 C1296 1.428 . S
H1291 C1287 0.930 . S
H1292 C1289 0.929 . S
S1293 N1294 1.613 . S
S1293 N1295 1.610 . S
N1294 S1293 1.613 . S
N1294 C1297 1.350 . S
N1295 S1293 1.610 . S
N1295 C1296 1.351 . S
C1296 C1290 1.428 . S
C1296 N1295 1.351 . S
C1296 C1297 1.434 . S
C1297 C1288 1.429 . S
C1297 N1294 1.350 . S
C1297 C1296 1.434 . S
C1298 C1299 1.369 . S
C1298 C1300 1.419 . S
C1298 H1302 0.930 . S
C1299 C1298 1.369 . S
C1299 C1308 1.429 . S
C1300 C1298 1.419 . S
C1300 C1301 1.363 . S
C1300 H1303 0.929 . S
C1301 C1300 1.363 . S
C1301 C1307 1.428 . S
H1302 C1298 0.930 . S
H1303 C1300 0.929 . S
S1304 N1305 1.613 . S
S1304 N1306 1.610 . S
N1305 S1304 1.613 . S
N1305 C1308 1.350 . S
N1306 S1304 1.610 . S
N1306 C1307 1.351 . S
C1307 C1301 1.428 . S
C1307 N1306 1.351 . S
C1307 C1308 1.434 . S
C1308 C1299 1.429 . S
C1308 N1305 1.350 . S
C1308 C1307 1.434 . S
C1309 C1310 1.369 . S
C1309 C1311 1.419 . S
C1309 H1313 0.930 . S
C1310 C1309 1.369 . S
C1310 C1319 1.429 . S
C1311 C1309 1.419 . S
C1311 C1312 1.363 . S
C1311 H1314 0.929 . S
C1312 C1311 1.363 . S
C1312 C1318 1.428 . S
H1313 C1309 0.930 . S
H1314 C1311 0.929 . S
S1315 N1316 1.613 . S
S1315 N1317 1.610 . S
N1316 S1315 1.613 . S
N1316 C1319 1.350 . S
N1317 S1315 1.610 . S
N1317 C1318 1.351 . S
C1318 C1312 1.428 . S
C1318 N1317 1.351 . S
C1318 C1319 1.434 . S
C1319 C1310 1.429 . S
C1319 N1316 1.350 . S
C1319 C1318 1.434 . S
C1320 C1321 1.369 . S
C1320 C1322 1.419 . S
C1320 H1324 0.930 . S
C1321 C1320 1.369 . S
C1321 C1330 1.429 . S
C1322 C1320 1.419 . S
C1322 C1323 1.363 . S
C1322 H1325 0.929 . S
C1323 C1322 1.363 . S
C1323 C1329 1.428 . S
H1324 C1320 0.930 . S
H1325 C1322 0.929 . S
S1326 N1327 1.613 . S
S1326 N1328 1.610 . S
N1327 S1326 1.613 . S
N1327 C1330 1.350 . S
N1328 S1326 1.610 . S
N1328 C1329 1.351 . S
C1329 C1323 1.428 . S
C1329 N1328 1.351 . S
C1329 C1330 1.434 . S
C1330 C1321 1.429 . S
C1330 N1327 1.350 . S
C1330 C1329 1.434 . S
C1331 C1332 1.369 . S
C1331 C1333 1.419 . S
C1331 H1335 0.930 . S
C1332 C1331 1.369 . S
C1332 C1341 1.429 . S
C1333 C1331 1.419 . S
C1333 C1334 1.363 . S
C1333 H1336 0.929 . S
C1334 C1333 1.363 . S
C1334 C1340 1.428 . S
H1335 C1331 0.930 . S
H1336 C1333 0.929 . S
S1337 N1338 1.613 . S
S1337 N1339 1.610 . S
N1338 S1337 1.613 . S
N1338 C1341 1.350 . S
N1339 S1337 1.610 . S
N1339 C1340 1.351 . S
C1340 C1334 1.428 . S
C1340 N1339 1.351 . S
C1340 C1341 1.434 . S
C1341 C1332 1.429 . S
C1341 N1338 1.350 . S
C1341 C1340 1.434 . S
C1342 C1343 1.369 . S
C1342 C1344 1.419 . S
C1342 H1346 0.930 . S
C1343 C1342 1.369 . S
C1343 C1352 1.429 . S
C1344 C1342 1.419 . S
C1344 C1345 1.363 . S
C1344 H1347 0.929 . S
C1345 C1344 1.363 . S
C1345 C1351 1.428 . S
H1346 C1342 0.930 . S
H1347 C1344 0.929 . S
S1348 N1349 1.613 . S
S1348 N1350 1.610 . S
N1349 S1348 1.613 . S
N1349 C1352 1.350 . S
N1350 S1348 1.610 . S
N1350 C1351 1.351 . S
C1351 C1345 1.428 . S
C1351 N1350 1.351 . S
C1351 C1352 1.434 . S
C1352 C1343 1.429 . S
C1352 N1349 1.350 . S
C1352 C1351 1.434 . S
C1353 C1354 1.369 . S
C1353 C1355 1.419 . S
C1353 H1357 0.930 . S
C1354 C1353 1.369 . S
C1354 C1363 1.429 . S
C1355 C1353 1.419 . S
C1355 C1356 1.363 . S
C1355 H1358 0.929 . S
C1356 C1355 1.363 . S
C1356 C1362 1.428 . S
H1357 C1353 0.930 . S
H1358 C1355 0.929 . S
S1359 N1360 1.613 . S
S1359 N1361 1.610 . S
N1360 S1359 1.613 . S
N1360 C1363 1.350 . S
N1361 S1359 1.610 . S
N1361 C1362 1.351 . S
C1362 C1356 1.428 . S
C1362 N1361 1.351 . S
C1362 C1363 1.434 . S
C1363 C1354 1.429 . S
C1363 N1360 1.350 . S
C1363 C1362 1.434 . S
C1364 C1365 1.369 . S
C1364 C1366 1.419 . S
C1364 H1368 0.930 . S
C1365 C1364 1.369 . S
C1365 C1374 1.429 . S
C1366 C1364 1.419 . S
C1366 C1367 1.363 . S
C1366 H1369 0.929 . S
C1367 C1366 1.363 . S
C1367 C1373 1.428 . S
H1368 C1364 0.930 . S
H1369 C1366 0.929 . S
S1370 N1371 1.613 . S
S1370 N1372 1.610 . S
N1371 S1370 1.613 . S
N1371 C1374 1.350 . S
N1372 S1370 1.610 . S
N1372 C1373 1.351 . S
C1373 C1367 1.428 . S
C1373 N1372 1.351 . S
C1373 C1374 1.434 . S
C1374 C1365 1.429 . S
C1374 N1371 1.350 . S
C1374 C1373 1.434 . S
C1375 C1376 1.369 . S
C1375 C1377 1.419 . S
C1375 H1379 0.930 . S
C1376 C1375 1.369 . S
C1376 C1385 1.429 . S
C1377 C1375 1.419 . S
C1377 C1378 1.363 . S
C1377 H1380 0.929 . S
C1378 C1377 1.363 . S
C1378 C1384 1.428 . S
H1379 C1375 0.930 . S
H1380 C1377 0.929 . S
S1381 N1382 1.613 . S
S1381 N1383 1.610 . S
N1382 S1381 1.613 . S
N1382 C1385 1.350 . S
N1383 S1381 1.610 . S
N1383 C1384 1.351 . S
C1384 C1378 1.428 . S
C1384 N1383 1.351 . S
C1384 C1385 1.434 . S
C1385 C1376 1.429 . S
C1385 N1382 1.350 . S
C1385 C1384 1.434 . S
C1386 C1387 1.369 . S
C1386 C1388 1.419 . S
C1386 H1390 0.930 . S
C1387 C1386 1.369 . S
C1387 C1396 1.429 . S
C1388 C1386 1.419 . S
C1388 C1389 1.363 . S
C1388 H1391 0.929 . S
C1389 C1388 1.363 . S
C1389 C1395 1.428 . S
H1390 C1386 0.930 . S
H1391 C1388 0.929 . S
S1392 N1393 1.613 . S
S1392 N1394 1.610 . S
N1393 S1392 1.613 . S
N1393 C1396 1.350 . S
N1394 S1392 1.610 . S
N1394 C1395 1.351 . S
C1395 C1389 1.428 . S
C1395 N1394 1.351 . S
C1395 C1396 1.434 . S
C1396 C1387 1.429 . S
C1396 N1393 1.350 . S
C1396 C1395 1.434 . S
C1397 C1398 1.369 . S
C1397 C1399 1.419 . S
C1397 H1401 0.930 . S
C1398 C1397 1.369 . S
C1398 C1407 1.429 . S
C1399 C1397 1.419 . S
C1399 C1400 1.363 . S
C1399 H1402 0.929 . S
C1400 C1399 1.363 . S
C1400 C1406 1.428 . S
H1401 C1397 0.930 . S
H1402 C1399 0.929 . S
S1403 N1404 1.613 . S
S1403 N1405 1.610 . S
N1404 S1403 1.613 . S
N1404 C1407 1.350 . S
N1405 S1403 1.610 . S
N1405 C1406 1.351 . S
C1406 C1400 1.428 . S
C1406 N1405 1.351 . S
C1406 C1407 1.434 . S
C1407 C1398 1.429 . S
C1407 N1404 1.350 . S
C1407 C1406 1.434 . S
C1408 C1409 1.369 . S
C1408 C1410 1.419 . S
C1408 H1412 0.930 . S
C1409 C1408 1.369 . S
C1409 C1418 1.429 . S
C1410 C1408 1.419 . S
C1410 C1411 1.363 . S
C1410 H1413 0.929 . S
C1411 C1410 1.363 . S
C1411 C1417 1.428 . S
H1412 C1408 0.930 . S
H1413 C1410 0.929 . S
S1414 N1415 1.613 . S
S1414 N1416 1.610 . S
N1415 S1414 1.613 . S
N1415 C1418 1.350 . S
N1416 S1414 1.610 . S
N1416 C1417 1.351 . S
C1417 C1411 1.428 . S
C1417 N1416 1.351 . S
C1417 C1418 1.434 . S
C1418 C1409 1.429 . S
C1418 N1415 1.350 . S
C1418 C1417 1.434 . S
C1419 C1420 1.369 . S
C1419 C1421 1.413 1_565 S
C1419 H1423 0.930 . S
C1420 C1419 1.369 . S
C1420 C1429 1.391 1_565 S
C1421 C1419 1.413 1_545 S
C1421 C1422 1.369 . S
C1421 H1424 0.928 1_545 S
C1422 C1421 1.369 . S
C1422 C1428 1.428 . S
H1423 C1419 0.930 . S
H1424 C1421 0.928 1_565 S
S1425 N1426 1.613 . S
S1425 N1427 1.610 . S
N1426 S1425 1.613 . S
N1426 C1429 1.358 . S
N1427 S1425 1.610 . S
N1427 C1428 1.351 . S
C1428 C1422 1.428 . S
C1428 N1427 1.351 . S
C1428 C1429 1.470 . S
C1429 C1420 1.391 1_545 S
C1429 N1426 1.358 . S
C1429 C1428 1.470 . S
C1430 C1431 1.369 . S
C1430 C1432 1.419 . S
C1430 H1434 0.930 . S
C1431 C1430 1.369 . S
C1431 C1440 1.429 1_554 S
C1432 C1430 1.419 . S
C1432 C1433 1.363 1_554 S
C1432 H1435 0.929 . S
C1433 C1432 1.363 1_556 S
C1433 C1439 1.428 . S
H1434 C1430 0.930 . S
H1435 C1432 0.929 . S
S1436 N1437 1.613 . S
S1436 N1438 1.610 . S
N1437 S1436 1.613 . S
N1437 C1440 1.350 . S
N1438 S1436 1.610 . S
N1438 C1439 1.351 . S
C1439 C1433 1.428 . S
C1439 N1438 1.351 . S
C1439 C1440 1.434 . S
C1440 C1431 1.429 1_556 S
C1440 N1437 1.350 . S
C1440 C1439 1.434 . S
C1441 C1442 1.327 1_545 S
C1441 C1443 1.457 . S
C1441 H1445 0.936 . S
C1442 C1441 1.327 1_565 S
C1442 C1451 1.429 . S
C1443 C1441 1.457 . S
C1443 C1444 1.363 . S
C1443 H1446 0.929 . S
C1444 C1443 1.363 . S
C1444 C1450 1.428 1_545 S
H1445 C1441 0.936 . S
H1446 C1443 0.929 . S
S1447 N1448 1.613 . S
S1447 N1449 1.610 . S
N1448 S1447 1.613 . S
N1448 C1451 1.350 . S
N1449 S1447 1.610 . S
N1449 C1450 1.351 . S
C1450 C1444 1.428 1_565 S
C1450 N1449 1.351 . S
C1450 C1451 1.434 . S
C1451 C1442 1.429 . S
C1451 N1448 1.350 . S
C1451 C1450 1.434 . S
C1452 C1453 1.369 . S
C1452 C1454 1.419 . S
C1452 H1456 0.930 . S
C1453 C1452 1.369 . S
C1453 C1462 1.429 . S
C1454 C1452 1.419 . S
C1454 C1455 1.363 . S
C1454 H1457 0.929 . S
C1455 C1454 1.363 . S
C1455 C1461 1.428 . S
H1456 C1452 0.930 . S
H1457 C1454 0.929 . S
S1458 N1459 1.613 . S
S1458 N1460 1.610 . S
N1459 S1458 1.613 . S
N1459 C1462 1.350 . S
N1460 S1458 1.610 . S
N1460 C1461 1.351 . S
C1461 C1455 1.428 . S
C1461 N1460 1.351 . S
C1461 C1462 1.434 . S
C1462 C1453 1.429 . S
C1462 N1459 1.350 . S
C1462 C1461 1.434 . S
C1463 C1464 1.369 . S
C1463 C1465 1.419 1_565 S
C1463 H1467 0.930 . S
C1464 C1463 1.369 . S
C1464 C1473 1.429 . S
C1465 C1463 1.419 1_545 S
C1465 C1466 1.363 . S
C1465 H1468 0.929 . S
C1466 C1465 1.363 . S
C1466 C1472 1.447 . S
H1467 C1463 0.930 . S
H1468 C1465 0.929 . S
S1469 N1470 1.613 . S
S1469 N1471 1.610 . S
N1470 S1469 1.613 . S
N1470 C1473 1.350 . S
N1471 S1469 1.610 . S
N1471 C1472 1.349 1_565 S
C1472 C1466 1.447 . S
C1472 N1471 1.349 1_545 S
C1472 C1473 1.416 1_545 S
C1473 C1464 1.429 . S
C1473 N1470 1.350 . S
C1473 C1472 1.416 1_565 S
C1474 C1475 1.369 1_554 S
C1474 C1476 1.419 . S
C1474 H1478 0.930 . S
C1475 C1474 1.369 1_556 S
C1475 C1484 1.429 . S
C1476 C1474 1.419 . S
C1476 C1477 1.363 . S
C1476 H1479 0.929 . S
C1477 C1476 1.363 . S
C1477 C1483 1.428 1_554 S
H1478 C1474 0.930 . S
H1479 C1476 0.929 . S
S1480 N1481 1.613 . S
S1480 N1482 1.610 . S
N1481 S1480 1.613 . S
N1481 C1484 1.350 . S
N1482 S1480 1.610 . S
N1482 C1483 1.351 . S
C1483 C1477 1.428 1_556 S
C1483 N1482 1.351 . S
C1483 C1484 1.434 . S
C1484 C1475 1.429 . S
C1484 N1481 1.350 . S
C1484 C1483 1.434 . S
C1485 C1486 1.369 . S
C1485 C1487 1.414 1_545 S
C1485 H1489 0.930 . S
C1486 C1485 1.369 . S
C1486 C1495 1.391 1_545 S
C1487 C1485 1.414 1_565 S
C1487 C1488 1.368 . S
C1487 H1490 0.928 1_565 S
C1488 C1487 1.368 . S
C1488 C1494 1.428 . S
H1489 C1485 0.930 . S
H1490 C1487 0.928 1_545 S
S1491 N1492 1.613 . S
S1491 N1493 1.610 . S
N1492 S1491 1.613 . S
N1492 C1495 1.358 . S
N1493 S1491 1.610 . S
N1493 C1494 1.351 . S
C1494 C1488 1.428 . S
C1494 N1493 1.351 . S
C1494 C1495 1.470 . S
C1495 C1486 1.391 1_565 S
C1495 N1492 1.358 . S
C1495 C1494 1.470 . S
C1496 C1497 1.366 1_554 S
C1496 C1498 1.421 . S
C1496 H1500 0.930 . S
C1497 C1496 1.366 1_556 S
C1497 C1506 1.429 . S
C1498 C1496 1.421 . S
C1498 C1499 1.363 . S
C1498 H1501 0.929 . S
C1499 C1498 1.363 . S
C1499 C1505 1.428 1_554 S
H1500 C1496 0.930 . S
H1501 C1498 0.929 . S
S1502 N1503 1.613 . S
S1502 N1504 1.610 . S
N1503 S1502 1.613 . S
N1503 C1506 1.350 . S
N1504 S1502 1.610 . S
N1504 C1505 1.351 . S
C1505 C1499 1.428 1_556 S
C1505 N1504 1.351 . S
C1505 C1506 1.434 . S
C1506 C1497 1.429 . S
C1506 N1503 1.350 . S
C1506 C1505 1.434 . S
C1507 C1508 1.369 . S
C1507 C1509 1.419 . S
C1507 H1511 0.930 . S
C1508 C1507 1.369 . S
C1508 C1517 1.429 . S
C1509 C1507 1.419 . S
C1509 C1510 1.363 . S
C1509 H1512 0.929 . S
C1510 C1509 1.363 . S
C1510 C1516 1.428 . S
H1511 C1507 0.930 . S
H1512 C1509 0.929 . S
S1513 N1514 1.613 . S
S1513 N1515 1.610 . S
N1514 S1513 1.613 . S
N1514 C1517 1.350 . S
N1515 S1513 1.610 . S
N1515 C1516 1.351 . S
C1516 C1510 1.428 . S
C1516 N1515 1.351 . S
C1516 C1517 1.434 . S
C1517 C1508 1.429 . S
C1517 N1514 1.350 . S
C1517 C1516 1.434 . S
C1518 C1519 1.369 . S
C1518 C1520 1.419 . S
C1518 H1522 0.930 . S
C1519 C1518 1.369 . S
C1519 C1528 1.429 . S
C1520 C1518 1.419 . S
C1520 C1521 1.363 . S
C1520 H1523 0.929 . S
C1521 C1520 1.363 . S
C1521 C1527 1.428 . S
H1522 C1518 0.930 . S
H1523 C1520 0.929 . S
S1524 N1525 1.613 . S
S1524 N1526 1.610 . S
N1525 S1524 1.613 . S
N1525 C1528 1.350 . S
N1526 S1524 1.610 . S
N1526 C1527 1.351 . S
C1527 C1521 1.428 . S
C1527 N1526 1.351 . S
C1527 C1528 1.434 . S
C1528 C1519 1.429 . S
C1528 N1525 1.350 . S
C1528 C1527 1.434 . S
C1529 C1530 1.369 . S
C1529 C1531 1.419 . S
C1529 H1533 0.930 . S
C1530 C1529 1.369 . S
C1530 C1539 1.429 . S
C1531 C1529 1.419 . S
C1531 C1532 1.363 . S
C1531 H1534 0.929 . S
C1532 C1531 1.363 . S
C1532 C1538 1.428 . S
H1533 C1529 0.930 . S
H1534 C1531 0.929 . S
S1535 N1536 1.613 . S
S1535 N1537 1.610 . S
N1536 S1535 1.613 . S
N1536 C1539 1.350 . S
N1537 S1535 1.610 . S
N1537 C1538 1.351 . S
C1538 C1532 1.428 . S
C1538 N1537 1.351 . S
C1538 C1539 1.434 . S
C1539 C1530 1.429 . S
C1539 N1536 1.350 . S
C1539 C1538 1.434 . S
C1540 C1541 1.369 . S
C1540 C1542 1.419 1_556 S
C1540 H1544 0.930 . S
C1541 C1540 1.369 . S
C1541 C1550 1.429 . S
C1542 C1540 1.419 1_554 S
C1542 C1543 1.363 . S
C1542 H1545 0.929 . S
C1543 C1542 1.363 . S
C1543 C1549 1.428 . S
H1544 C1540 0.930 . S
H1545 C1542 0.929 . S
S1546 N1547 1.613 1_554 S
S1546 N1548 1.610 . S
N1547 S1546 1.613 1_556 S
N1547 C1550 1.350 . S
N1548 S1546 1.610 . S
N1548 C1549 1.351 . S
C1549 C1543 1.428 . S
C1549 N1548 1.351 . S
C1549 C1550 1.434 1_554 S
C1550 C1541 1.429 . S
C1550 N1547 1.350 . S
C1550 C1549 1.434 1_556 S
C1551 C1552 1.369 . S
C1551 C1553 1.419 . S
C1551 H1555 0.930 . S
C1552 C1551 1.369 . S
C1552 C1561 1.429 . S
C1553 C1551 1.419 . S
C1553 C1554 1.363 . S
C1553 H1556 0.929 . S
C1554 C1553 1.363 . S
C1554 C1560 1.428 . S
H1555 C1551 0.930 . S
H1556 C1553 0.929 . S
S1557 N1558 1.613 . S
S1557 N1559 1.610 . S
N1558 S1557 1.613 . S
N1558 C1561 1.350 . S
N1559 S1557 1.610 . S
N1559 C1560 1.351 . S
C1560 C1554 1.428 . S
C1560 N1559 1.351 . S
C1560 C1561 1.434 . S
C1561 C1552 1.429 . S
C1561 N1558 1.350 . S
C1561 C1560 1.434 . S
C1562 C1563 1.369 . S
C1562 C1564 1.419 . S
C1562 H1566 0.930 . S
C1563 C1562 1.369 . S
C1563 C1572 1.429 . S
C1564 C1562 1.419 . S
C1564 C1565 1.363 . S
C1564 H1567 0.929 . S
C1565 C1564 1.363 . S
C1565 C1571 1.428 . S
H1566 C1562 0.930 . S
H1567 C1564 0.929 . S
S1568 N1569 1.613 . S
S1568 N1570 1.610 . S
N1569 S1568 1.613 . S
N1569 C1572 1.350 . S
N1570 S1568 1.610 . S
N1570 C1571 1.351 . S
C1571 C1565 1.428 . S
C1571 N1570 1.351 . S
C1571 C1572 1.434 . S
C1572 C1563 1.429 . S
C1572 N1569 1.350 . S
C1572 C1571 1.434 . S
C1573 C1574 1.369 . S
C1573 C1575 1.419 . S
C1573 H1577 0.930 . S
C1574 C1573 1.369 . S
C1574 C1583 1.429 . S
C1575 C1573 1.419 . S
C1575 C1576 1.363 . S
C1575 H1578 0.929 . S
C1576 C1575 1.363 . S
C1576 C1582 1.428 . S
H1577 C1573 0.930 . S
H1578 C1575 0.929 . S
S1579 N1580 1.613 . S
S1579 N1581 1.610 . S
N1580 S1579 1.613 . S
N1580 C1583 1.350 . S
N1581 S1579 1.610 . S
N1581 C1582 1.351 . S
C1582 C1576 1.428 . S
C1582 N1581 1.351 . S
C1582 C1583 1.434 . S
C1583 C1574 1.429 . S
C1583 N1580 1.350 . S
C1583 C1582 1.434 . S
C1584 C1585 1.369 . S
C1584 C1586 1.419 . S
C1584 H1588 0.930 . S
C1585 C1584 1.369 . S
C1585 C1594 1.429 . S
C1586 C1584 1.419 . S
C1586 C1587 1.363 . S
C1586 H1589 0.929 . S
C1587 C1586 1.363 . S
C1587 C1593 1.428 . S
H1588 C1584 0.930 . S
H1589 C1586 0.929 . S
S1590 N1591 1.613 . S
S1590 N1592 1.610 . S
N1591 S1590 1.613 . S
N1591 C1594 1.350 . S
N1592 S1590 1.610 . S
N1592 C1593 1.351 . S
C1593 C1587 1.428 . S
C1593 N1592 1.351 . S
C1593 C1594 1.434 . S
C1594 C1585 1.429 . S
C1594 N1591 1.350 . S
C1594 C1593 1.434 . S
C1595 C1596 1.369 . S
C1595 C1597 1.419 . S
C1595 H1599 0.930 . S
C1596 C1595 1.369 . S
C1596 C1605 1.429 . S
C1597 C1595 1.419 . S
C1597 C1598 1.363 1_655 S
C1597 H1600 0.929 . S
C1598 C1597 1.363 1_455 S
C1598 C1604 1.428 1_455 S
H1599 C1595 0.930 . S
H1600 C1597 0.929 . S
S1601 N1602 1.613 . S
S1601 N1603 1.610 1_655 S
N1602 S1601 1.613 . S
N1602 C1605 1.350 . S
N1603 S1601 1.610 1_455 S
N1603 C1604 1.351 1_455 S
C1604 C1598 1.428 1_655 S
C1604 N1603 1.351 1_655 S
C1604 C1605 1.434 . S
C1605 C1596 1.429 . S
C1605 N1602 1.350 . S
C1605 C1604 1.434 . S
C1606 C1607 1.369 . S
C1606 C1608 1.419 . S
C1606 H1610 0.930 . S
C1607 C1606 1.369 . S
C1607 C1616 1.429 . S
C1608 C1606 1.419 . S
C1608 C1609 1.363 . S
C1608 H1611 0.929 . S
C1609 C1608 1.363 . S
C1609 C1615 1.428 . S
H1610 C1606 0.930 . S
H1611 C1608 0.929 . S
S1612 N1613 1.613 . S
S1612 N1614 1.610 . S
N1613 S1612 1.613 . S
N1613 C1616 1.350 . S
N1614 S1612 1.610 . S
N1614 C1615 1.351 . S
C1615 C1609 1.428 . S
C1615 N1614 1.351 . S
C1615 C1616 1.434 . S
C1616 C1607 1.429 . S
C1616 N1613 1.350 . S
C1616 C1615 1.434 . S
C1617 C1618 1.369 . S
C1617 C1619 1.419 . S
C1617 H1621 0.930 . S
C1618 C1617 1.369 . S
C1618 C1627 1.429 . S
C1619 C1617 1.419 . S
C1619 C1620 1.363 . S
C1619 H1622 0.929 . S
C1620 C1619 1.363 . S
C1620 C1626 1.428 . S
H1621 C1617 0.930 . S
H1622 C1619 0.929 . S
S1623 N1624 1.613 . S
S1623 N1625 1.610 . S
N1624 S1623 1.613 . S
N1624 C1627 1.350 . S
N1625 S1623 1.610 . S
N1625 C1626 1.351 . S
C1626 C1620 1.428 . S
C1626 N1625 1.351 . S
C1626 C1627 1.434 . S
C1627 C1618 1.429 . S
C1627 N1624 1.350 . S
C1627 C1626 1.434 . S
C1628 C1629 1.369 . S
C1628 C1630 1.419 . S
C1628 H1632 0.930 . S
C1629 C1628 1.369 . S
C1629 C1638 1.429 . S
C1630 C1628 1.419 . S
C1630 C1631 1.363 . S
C1630 H1633 0.929 . S
C1631 C1630 1.363 . S
C1631 C1637 1.428 . S
H1632 C1628 0.930 . S
H1633 C1630 0.929 . S
S1634 N1635 1.613 . S
S1634 N1636 1.610 . S
N1635 S1634 1.613 . S
N1635 C1638 1.350 . S
N1636 S1634 1.610 . S
N1636 C1637 1.351 . S
C1637 C1631 1.428 . S
C1637 N1636 1.351 . S
C1637 C1638 1.434 . S
C1638 C1629 1.429 . S
C1638 N1635 1.350 . S
C1638 C1637 1.434 . S
C1639 C1640 1.369 . S
C1639 C1641 1.419 . S
C1639 H1643 0.930 . S
C1640 C1639 1.369 . S
C1640 C1649 1.429 . S
C1641 C1639 1.419 . S
C1641 C1642 1.363 . S
C1641 H1644 0.929 . S
C1642 C1641 1.363 . S
C1642 C1648 1.428 . S
H1643 C1639 0.930 . S
H1644 C1641 0.929 . S
S1645 N1646 1.613 . S
S1645 N1647 1.610 . S
N1646 S1645 1.613 . S
N1646 C1649 1.350 . S
N1647 S1645 1.610 . S
N1647 C1648 1.351 . S
C1648 C1642 1.428 . S
C1648 N1647 1.351 . S
C1648 C1649 1.434 . S
C1649 C1640 1.429 . S
C1649 N1646 1.350 . S
C1649 C1648 1.434 . S
C1650 C1651 1.369 . S
C1650 C1652 1.419 . S
C1650 H1654 0.930 . S
C1651 C1650 1.369 . S
C1651 C1660 1.429 . S
C1652 C1650 1.419 . S
C1652 C1653 1.363 . S
C1652 H1655 0.929 . S
C1653 C1652 1.363 . S
C1653 C1659 1.428 . S
H1654 C1650 0.930 . S
H1655 C1652 0.929 . S
S1656 N1657 1.613 . S
S1656 N1658 1.610 . S
N1657 S1656 1.613 . S
N1657 C1660 1.350 . S
N1658 S1656 1.610 . S
N1658 C1659 1.351 . S
C1659 C1653 1.428 . S
C1659 N1658 1.351 . S
C1659 C1660 1.434 . S
C1660 C1651 1.429 . S
C1660 N1657 1.350 . S
C1660 C1659 1.434 . S
C1661 C1662 1.369 . S
C1661 C1663 1.419 . S
C1661 H1665 0.930 . S
C1662 C1661 1.369 . S
C1662 C1671 1.429 . S
C1663 C1661 1.419 . S
C1663 C1664 1.363 1_655 S
C1663 H1666 0.929 . S
C1664 C1663 1.363 1_455 S
C1664 C1670 1.428 1_455 S
H1665 C1661 0.930 . S
H1666 C1663 0.929 . S
S1667 N1668 1.613 . S
S1667 N1669 1.610 1_655 S
N1668 S1667 1.613 . S
N1668 C1671 1.350 . S
N1669 S1667 1.610 1_455 S
N1669 C1670 1.351 1_455 S
C1670 C1664 1.428 1_655 S
C1670 N1669 1.351 1_655 S
C1670 C1671 1.434 . S
C1671 C1662 1.429 . S
C1671 N1668 1.350 . S
C1671 C1670 1.434 . S
C1672 C1673 1.369 . S
C1672 C1674 1.419 . S
C1672 H1676 0.930 . S
C1673 C1672 1.369 . S
C1673 C1682 1.429 . S
C1674 C1672 1.419 . S
C1674 C1675 1.363 . S
C1674 H1677 0.929 . S
C1675 C1674 1.363 . S
C1675 C1681 1.428 . S
H1676 C1672 0.930 . S
H1677 C1674 0.929 . S
S1678 N1679 1.613 . S
S1678 N1680 1.610 . S
N1679 S1678 1.613 . S
N1679 C1682 1.350 . S
N1680 S1678 1.610 . S
N1680 C1681 1.351 . S
C1681 C1675 1.428 . S
C1681 N1680 1.351 . S
C1681 C1682 1.434 . S
C1682 C1673 1.429 . S
C1682 N1679 1.350 . S
C1682 C1681 1.434 . S
C1683 C1684 1.369 1_455 S
C1683 C1685 1.419 . S
C1683 H1687 0.930 1_455 S
C1684 C1683 1.369 1_655 S
C1684 C1693 1.429 1_655 S
C1685 C1683 1.419 . S
C1685 C1686 1.363 . S
C1685 H1688 0.929 . S
C1686 C1685 1.363 . S
C1686 C1692 1.428 . S
H1687 C1683 0.930 1_655 S
H1688 C1685 0.929 . S
S1689 N1690 1.613 . S
S1689 N1691 1.610 . S
N1690 S1689 1.613 . S
N1690 C1693 1.350 . S
N1691 S1689 1.610 . S
N1691 C1692 1.351 . S
C1692 C1686 1.428 . S
C1692 N1691 1.351 . S
C1692 C1693 1.434 . S
C1693 C1684 1.429 1_455 S
C1693 N1690 1.350 . S
C1693 C1692 1.434 . S
C1694 C1695 1.369 . S
C1694 C1696 1.419 . S
C1694 H1698 0.930 . S
C1695 C1694 1.369 . S
C1695 C1704 1.429 . S
C1696 C1694 1.419 . S
C1696 C1697 1.363 . S
C1696 H1699 0.929 . S
C1697 C1696 1.363 . S
C1697 C1703 1.428 . S
H1698 C1694 0.930 . S
H1699 C1696 0.929 . S
S1700 N1701 1.613 1_556 S
S1700 N1702 1.610 1_556 S
N1701 S1700 1.613 1_554 S
N1701 C1704 1.350 . S
N1702 S1700 1.610 1_554 S
N1702 C1703 1.351 . S
C1703 C1697 1.428 . S
C1703 N1702 1.351 . S
C1703 C1704 1.434 . S
C1704 C1695 1.429 . S
C1704 N1701 1.350 . S
C1704 C1703 1.434 . S
C1705 C1706 1.369 . S
C1705 C1707 1.419 . S
C1705 H1709 0.930 . S
C1706 C1705 1.369 . S
C1706 C1715 1.429 . S
C1707 C1705 1.419 . S
C1707 C1708 1.363 . S
C1707 H1710 0.929 . S
C1708 C1707 1.363 . S
C1708 C1714 1.428 . S
H1709 C1705 0.930 . S
H1710 C1707 0.929 . S
S1711 N1712 1.613 . S
S1711 N1713 1.610 . S
N1712 S1711 1.613 . S
N1712 C1715 1.350 . S
N1713 S1711 1.610 . S
N1713 C1714 1.351 . S
C1714 C1708 1.428 . S
C1714 N1713 1.351 . S
C1714 C1715 1.434 . S
C1715 C1706 1.429 . S
C1715 N1712 1.350 . S
C1715 C1714 1.434 . S
C1716 C1717 1.369 . S
C1716 C1718 1.419 . S
C1716 H1720 0.930 . S
C1717 C1716 1.369 . S
C1717 C1726 1.429 . S
C1718 C1716 1.419 . S
C1718 C1719 1.363 . S
C1718 H1721 0.929 . S
C1719 C1718 1.363 . S
C1719 C1725 1.428 . S
H1720 C1716 0.930 . S
H1721 C1718 0.929 . S
S1722 N1723 1.613 1_554 S
S1722 N1724 1.610 1_554 S
N1723 S1722 1.613 1_556 S
N1723 C1726 1.350 . S
N1724 S1722 1.610 1_556 S
N1724 C1725 1.351 . S
C1725 C1719 1.428 . S
C1725 N1724 1.351 . S
C1725 C1726 1.434 . S
C1726 C1717 1.429 . S
C1726 N1723 1.350 . S
C1726 C1725 1.434 . S
C1727 C1728 1.369 . S
C1727 C1729 1.419 . S
C1727 H1731 0.930 . S
C1728 C1727 1.369 . S
C1728 C1737 1.429 . S
C1729 C1727 1.419 . S
C1729 C1730 1.363 . S
C1729 H1732 0.929 . S
C1730 C1729 1.363 . S
C1730 C1736 1.428 . S
H1731 C1727 0.930 . S
H1732 C1729 0.929 . S
S1733 N1734 1.613 . S
S1733 N1735 1.610 . S
N1734 S1733 1.613 . S
N1734 C1737 1.350 . S
N1735 S1733 1.610 . S
N1735 C1736 1.351 . S
C1736 C1730 1.428 . S
C1736 N1735 1.351 . S
C1736 C1737 1.434 . S
C1737 C1728 1.429 . S
C1737 N1734 1.350 . S
C1737 C1736 1.434 . S
C1738 C1739 1.369 . S
C1738 C1740 1.419 . S
C1738 H1742 0.930 . S
C1739 C1738 1.369 . S
C1739 C1748 1.429 . S
C1740 C1738 1.419 . S
C1740 C1741 1.363 . S
C1740 H1743 0.929 . S
C1741 C1740 1.363 . S
C1741 C1747 1.428 . S
H1742 C1738 0.930 . S
H1743 C1740 0.929 . S
S1744 N1745 1.613 . S
S1744 N1746 1.610 . S
N1745 S1744 1.613 . S
N1745 C1748 1.350 . S
N1746 S1744 1.610 . S
N1746 C1747 1.351 . S
C1747 C1741 1.428 . S
C1747 N1746 1.351 . S
C1747 C1748 1.434 . S
C1748 C1739 1.429 . S
C1748 N1745 1.350 . S
C1748 C1747 1.434 . S
C1749 C1750 1.369 . S
C1749 C1751 1.419 . S
C1749 H1753 0.930 . S
C1750 C1749 1.369 . S
C1750 C1759 1.429 . S
C1751 C1749 1.419 . S
C1751 C1752 1.363 1_455 S
C1751 H1754 0.929 . S
C1752 C1751 1.363 1_655 S
C1752 C1758 1.428 1_655 S
H1753 C1749 0.930 . S
H1754 C1751 0.929 . S
S1755 N1756 1.613 1_556 S
S1755 N1757 1.634 1_556 S
N1756 S1755 1.613 1_554 S
N1756 C1759 1.350 . S
N1757 S1755 1.634 1_554 S
N1757 C1758 1.362 . S
C1758 C1752 1.428 1_455 S
C1758 N1757 1.362 . S
C1758 C1759 1.434 . S
C1759 C1750 1.429 . S
C1759 N1756 1.350 . S
C1759 C1758 1.434 . S
C1760 C1761 1.369 . S
C1760 C1762 1.419 . S
C1760 H1764 0.930 . S
C1761 C1760 1.369 . S
C1761 C1770 1.429 . S
C1762 C1760 1.419 . S
C1762 C1763 1.363 . S
C1762 H1765 0.929 . S
C1763 C1762 1.363 . S
C1763 C1769 1.428 . S
H1764 C1760 0.930 . S
H1765 C1762 0.929 . S
S1766 N1767 1.613 . S
S1766 N1768 1.610 . S
N1767 S1766 1.613 . S
N1767 C1770 1.350 . S
N1768 S1766 1.610 . S
N1768 C1769 1.351 . S
C1769 C1763 1.428 . S
C1769 N1768 1.351 . S
C1769 C1770 1.434 . S
C1770 C1761 1.429 . S
C1770 N1767 1.350 . S
C1770 C1769 1.434 . S
C1771 C1772 1.369 . S
C1771 C1773 1.419 . S
C1771 H1775 0.930 . S
C1772 C1771 1.369 . S
C1772 C1781 1.429 . S
C1773 C1771 1.419 . S
C1773 C1774 1.363 . S
C1773 H1776 0.929 . S
C1774 C1773 1.363 . S
C1774 C1780 1.428 . S
H1775 C1771 0.930 . S
H1776 C1773 0.929 . S
S1777 N1778 1.613 . S
S1777 N1779 1.610 . S
N1778 S1777 1.613 . S
N1778 C1781 1.350 . S
N1779 S1777 1.610 . S
N1779 C1780 1.351 . S
C1780 C1774 1.428 . S
C1780 N1779 1.351 . S
C1780 C1781 1.434 . S
C1781 C1772 1.429 . S
C1781 N1778 1.350 . S
C1781 C1780 1.434 . S
C1782 C1783 1.369 . S
C1782 C1784 1.419 . S
C1782 H1786 0.930 . S
C1783 C1782 1.369 . S
C1783 C1792 1.429 . S
C1784 C1782 1.419 . S
C1784 C1785 1.363 . S
C1784 H1787 0.929 . S
C1785 C1784 1.363 . S
C1785 C1791 1.428 . S
H1786 C1782 0.930 . S
H1787 C1784 0.929 . S
S1788 N1789 1.613 . S
S1788 N1790 1.610 . S
N1789 S1788 1.613 . S
N1789 C1792 1.350 . S
N1790 S1788 1.610 . S
N1790 C1791 1.351 . S
C1791 C1785 1.428 . S
C1791 N1790 1.351 . S
C1791 C1792 1.434 . S
C1792 C1783 1.429 . S
C1792 N1789 1.350 . S
C1792 C1791 1.434 . S
C1793 C1794 1.369 1_455 S
C1793 C1795 1.419 . S
C1793 H1797 0.930 . S
C1794 C1793 1.369 1_655 S
C1794 C1803 1.429 1_655 S
C1795 C1793 1.419 . S
C1795 C1796 1.363 . S
C1795 H1798 0.929 . S
C1796 C1795 1.363 . S
C1796 C1802 1.428 . S
H1797 C1793 0.930 . S
H1798 C1795 0.929 . S
S1799 N1800 1.613 1_455 S
S1799 N1801 1.610 . S
N1800 S1799 1.613 1_655 S
N1800 C1803 1.350 1_655 S
N1801 S1799 1.610 . S
N1801 C1802 1.351 . S
C1802 C1796 1.428 . S
C1802 N1801 1.351 . S
C1802 C1803 1.434 . S
C1803 C1794 1.429 1_455 S
C1803 N1800 1.350 1_455 S
C1803 C1802 1.434 . S
C1804 C1805 1.369 . S
C1804 C1806 1.419 . S
C1804 H1808 0.930 . S
C1805 C1804 1.369 . S
C1805 C1814 1.429 . S
C1806 C1804 1.419 . S
C1806 C1807 1.363 . S
C1806 H1809 0.929 . S
C1807 C1806 1.363 . S
C1807 C1813 1.428 . S
H1808 C1804 0.930 . S
H1809 C1806 0.929 . S
S1810 N1811 1.613 . S
S1810 N1812 1.610 . S
N1811 S1810 1.613 . S
N1811 C1814 1.350 . S
N1812 S1810 1.610 . S
N1812 C1813 1.351 . S
C1813 C1807 1.428 . S
C1813 N1812 1.351 . S
C1813 C1814 1.434 . S
C1814 C1805 1.429 . S
C1814 N1811 1.350 . S
C1814 C1813 1.434 . S
C1815 C1816 1.369 1_455 S
C1815 C1817 1.419 . S
C1815 H1819 0.930 . S
C1816 C1815 1.369 1_655 S
C1816 C1825 1.429 1_655 S
C1817 C1815 1.419 . S
C1817 C1818 1.363 . S
C1817 H1820 0.929 . S
C1818 C1817 1.363 . S
C1818 C1824 1.428 . S
H1819 C1815 0.930 . S
H1820 C1817 0.929 . S
S1821 N1822 1.613 1_455 S
S1821 N1823 1.610 . S
N1822 S1821 1.613 1_655 S
N1822 C1825 1.350 1_655 S
N1823 S1821 1.610 . S
N1823 C1824 1.351 . S
C1824 C1818 1.428 . S
C1824 N1823 1.351 . S
C1824 C1825 1.434 . S
C1825 C1816 1.429 1_455 S
C1825 N1822 1.350 1_455 S
C1825 C1824 1.434 . S
C1826 C1827 1.369 . S
C1826 C1828 1.419 . S
C1826 H1830 0.930 . S
C1827 C1826 1.369 . S
C1827 C1836 1.429 . S
C1828 C1826 1.419 . S
C1828 C1829 1.363 . S
C1828 H1831 0.929 . S
C1829 C1828 1.363 . S
C1829 C1835 1.428 . S
H1830 C1826 0.930 . S
H1831 C1828 0.929 . S
S1832 N1833 1.613 . S
S1832 N1834 1.610 . S
N1833 S1832 1.613 . S
N1833 C1836 1.350 . S
N1834 S1832 1.610 . S
N1834 C1835 1.351 . S
C1835 C1829 1.428 . S
C1835 N1834 1.351 . S
C1835 C1836 1.434 . S
C1836 C1827 1.429 . S
C1836 N1833 1.350 . S
C1836 C1835 1.434 . S
C1837 C1838 1.369 . S
C1837 C1839 1.419 . S
C1837 H1841 0.930 . S
C1838 C1837 1.369 . S
C1838 C1847 1.429 . S
C1839 C1837 1.419 . S
C1839 C1840 1.363 . S
C1839 H1842 0.929 . S
C1840 C1839 1.363 . S
C1840 C1846 1.428 . S
H1841 C1837 0.930 . S
H1842 C1839 0.929 . S
S1843 N1844 1.613 . S
S1843 N1845 1.610 . S
N1844 S1843 1.613 . S
N1844 C1847 1.350 . S
N1845 S1843 1.610 . S
N1845 C1846 1.351 . S
C1846 C1840 1.428 . S
C1846 N1845 1.351 . S
C1846 C1847 1.434 . S
C1847 C1838 1.429 . S
C1847 N1844 1.350 . S
C1847 C1846 1.434 . S
C1848 C1849 1.369 . S
C1848 C1850 1.419 . S
C1848 H1852 0.930 . S
C1849 C1848 1.369 . S
C1849 C1858 1.429 . S
C1850 C1848 1.419 . S
C1850 C1851 1.363 . S
C1850 H1853 0.929 . S
C1851 C1850 1.363 . S
C1851 C1857 1.428 . S
H1852 C1848 0.930 . S
H1853 C1850 0.929 . S
S1854 N1855 1.613 . S
S1854 N1856 1.610 . S
N1855 S1854 1.613 . S
N1855 C1858 1.350 . S
N1856 S1854 1.610 . S
N1856 C1857 1.351 . S
C1857 C1851 1.428 . S
C1857 N1856 1.351 . S
C1857 C1858 1.434 . S
C1858 C1849 1.429 . S
C1858 N1855 1.350 . S
C1858 C1857 1.434 . S
C1859 C1860 1.369 . S
C1859 C1861 1.419 . S
C1859 H1863 0.930 . S
C1860 C1859 1.369 . S
C1860 C1869 1.429 . S
C1861 C1859 1.419 . S
C1861 C1862 1.363 . S
C1861 H1864 0.929 . S
C1862 C1861 1.363 . S
C1862 C1868 1.428 . S
H1863 C1859 0.930 . S
H1864 C1861 0.929 . S
S1865 N1866 1.613 . S
S1865 N1867 1.610 . S
N1866 S1865 1.613 . S
N1866 C1869 1.350 . S
N1867 S1865 1.610 . S
N1867 C1868 1.351 . S
C1868 C1862 1.428 . S
C1868 N1867 1.351 . S
C1868 C1869 1.434 . S
C1869 C1860 1.429 . S
C1869 N1866 1.350 . S
C1869 C1868 1.434 . S
C1870 C1871 1.369 . S
C1870 C1872 1.419 . S
C1870 H1874 0.930 . S
C1871 C1870 1.369 . S
C1871 C1880 1.429 . S
C1872 C1870 1.419 . S
C1872 C1873 1.363 . S
C1872 H1875 0.929 . S
C1873 C1872 1.363 . S
C1873 C1879 1.428 . S
H1874 C1870 0.930 . S
H1875 C1872 0.929 . S
S1876 N1877 1.613 . S
S1876 N1878 1.610 . S
N1877 S1876 1.613 . S
N1877 C1880 1.350 . S
N1878 S1876 1.610 . S
N1878 C1879 1.351 . S
C1879 C1873 1.428 . S
C1879 N1878 1.351 . S
C1879 C1880 1.434 . S
C1880 C1871 1.429 . S
C1880 N1877 1.350 . S
C1880 C1879 1.434 . S
C1881 C1882 1.369 . S
C1881 C1883 1.419 . S
C1881 H1885 0.930 . S
C1882 C1881 1.369 . S
C1882 C1891 1.429 . S
C1883 C1881 1.419 . S
C1883 C1884 1.363 1_655 S
C1883 H1886 0.929 . S
C1884 C1883 1.363 1_455 S
C1884 C1890 1.428 1_455 S
H1885 C1881 0.930 . S
H1886 C1883 0.929 . S
S1887 N1888 1.613 . S
S1887 N1889 1.610 1_655 S
N1888 S1887 1.613 . S
N1888 C1891 1.350 . S
N1889 S1887 1.610 1_455 S
N1889 C1890 1.351 1_455 S
C1890 C1884 1.428 1_655 S
C1890 N1889 1.351 1_655 S
C1890 C1891 1.434 . S
C1891 C1882 1.429 . S
C1891 N1888 1.350 . S
C1891 C1890 1.434 . S
C1892 C1893 1.369 . S
C1892 C1894 1.419 . S
C1892 H1896 0.930 . S
C1893 C1892 1.369 . S
C1893 C1902 1.429 . S
C1894 C1892 1.419 . S
C1894 C1895 1.363 . S
C1894 H1897 0.929 . S
C1895 C1894 1.363 . S
C1895 C1901 1.428 . S
H1896 C1892 0.930 . S
H1897 C1894 0.929 . S
S1898 N1899 1.613 . S
S1898 N1900 1.610 . S
N1899 S1898 1.613 . S
N1899 C1902 1.350 . S
N1900 S1898 1.610 . S
N1900 C1901 1.351 . S
C1901 C1895 1.428 . S
C1901 N1900 1.351 . S
C1901 C1902 1.434 . S
C1902 C1893 1.429 . S
C1902 N1899 1.350 . S
C1902 C1901 1.434 . S
C1903 C1904 1.369 1_655 S
C1903 C1905 1.419 . S
C1903 H1907 0.930 1_655 S
C1904 C1903 1.369 1_455 S
C1904 C1913 1.429 1_455 S
C1905 C1903 1.419 . S
C1905 C1906 1.363 . S
C1905 H1908 0.929 . S
C1906 C1905 1.363 . S
C1906 C1912 1.428 . S
H1907 C1903 0.930 1_455 S
H1908 C1905 0.929 . S
S1909 N1910 1.613 . S
S1909 N1911 1.610 . S
N1910 S1909 1.613 . S
N1910 C1913 1.350 . S
N1911 S1909 1.610 . S
N1911 C1912 1.351 . S
C1912 C1906 1.428 . S
C1912 N1911 1.351 . S
C1912 C1913 1.434 . S
C1913 C1904 1.429 1_655 S
C1913 N1910 1.350 . S
C1913 C1912 1.434 . S
C1914 C1915 1.369 . S
C1914 C1916 1.419 . S
C1914 H1918 0.930 . S
C1915 C1914 1.369 . S
C1915 C1924 1.429 . S
C1916 C1914 1.419 . S
C1916 C1917 1.363 . S
C1916 H1919 0.929 . S
C1917 C1916 1.363 . S
C1917 C1923 1.428 . S
H1918 C1914 0.930 . S
H1919 C1916 0.929 . S
S1920 N1921 1.613 . S
S1920 N1922 1.610 . S
N1921 S1920 1.613 . S
N1921 C1924 1.350 . S
N1922 S1920 1.610 . S
N1922 C1923 1.351 . S
C1923 C1917 1.428 . S
C1923 N1922 1.351 . S
C1923 C1924 1.434 . S
C1924 C1915 1.429 . S
C1924 N1921 1.350 . S
C1924 C1923 1.434 . S
C1925 C1926 1.369 . S
C1925 C1927 1.419 . S
C1925 H1929 0.930 . S
C1926 C1925 1.369 . S
C1926 C1935 1.429 . S
C1927 C1925 1.419 . S
C1927 C1928 1.363 . S
C1927 H1930 0.929 . S
C1928 C1927 1.363 . S
C1928 C1934 1.428 . S
H1929 C1925 0.930 . S
H1930 C1927 0.929 . S
S1931 N1932 1.613 . S
S1931 N1933 1.610 . S
N1932 S1931 1.613 . S
N1932 C1935 1.350 . S
N1933 S1931 1.610 . S
N1933 C1934 1.351 . S
C1934 C1928 1.428 . S
C1934 N1933 1.351 . S
C1934 C1935 1.434 . S
C1935 C1926 1.429 . S
C1935 N1932 1.350 . S
C1935 C1934 1.434 . S
C1057 C239 1.481 1_554 S
C1059 C8 1.480 . S
C1068 C41 1.485 . S
C1070 C140 1.480 . S
C1079 C74 1.480 . S
C1081 C173 1.486 . S
C1090 C206 1.488 . S
C1092 C107 1.484 1_556 S
C1101 C272 1.488 . S
C1103 C503 1.485 1_556 S
C1112 C404 1.478 . S
C1114 C305 1.482 . S
C1123 C338 1.480 . S
C1125 C437 1.480 . S
C1134 C470 1.481 . S
C1136 C371 1.486 1_554 S
C1145 C767 1.482 . S
C1147 C536 1.486 . S
C1156 C668 1.485 . S
C1158 C569 1.486 1_556 S
C1167 C701 1.485 1_554 S
C1169 C602 1.486 . S
C1178 C734 1.483 . S
C1180 C635 1.479 . S
C1189 C1031 1.488 . S
C1191 C800 1.483 . S
C1200 C833 1.483 1_554 S
C1202 C932 1.487 . S
C1211 C965 1.480 1_556 S
C1213 C866 1.485 . S
C1222 C998 1.486 . S
C1224 C899 1.481 . S
C1233 C28 1.026 . S
C1235 C259 1.029 . S
C1244 C61 1.030 . S
C1246 C160 1.028 . S
C1255 C94 1.032 . S
C1257 C193 1.034 . S
C1266 C127 1.028 . S
C1268 C226 1.027 . S
C1277 C523 1.026 . S
C1279 C292 1.027 . S
C1288 C325 1.030 . S
C1290 C424 1.033 . S
C1299 C457 1.033 . S
C1301 C358 1.034 . S
C1310 C391 1.026 . S
C1312 C490 1.029 . S
C1321 C556 1.035 . S
C1323 C787 1.034 . S
C1332 C688 1.026 . S
C1334 C589 1.028 . S
C1343 C721 1.027 . S
C1345 C622 1.027 . S
C1354 C655 1.030 . S
C1356 C754 1.028 . S
C1365 C820 1.026 . S
C1367 C1051 1.030 . S
C1376 C853 1.034 . S
C1378 C952 1.034 . S
C1387 C886 1.035 . S
C1389 C985 1.032 . S
C1398 C919 1.030 . S
C1400 C1018 1.033 . S
C1409 N203 1.585 . S
C1411 N5 1.584 . S
C1420 N38 1.584 . S
C1422 N236 1.583 . S
C1431 N137 1.585 . S
C1433 N71 1.585 . S
C1442 N170 1.583 . S
C1444 N104 1.584 . S
C1453 N467 1.581 . S
C1455 N269 1.583 . S
C1464 N500 1.583 . S
C1466 N302 1.584 . S
C1475 N401 1.585 . S
C1477 N335 1.584 . S
C1486 N434 1.584 . S
C1488 N368 1.582 . S
C1497 N533 1.581 . S
C1499 N731 1.582 . S
C1508 N764 1.583 . S
C1510 N566 1.584 . S
C1519 N665 1.585 . S
C1521 N599 1.585 . S
C1530 N698 1.583 . S
C1532 N632 1.584 . S
C1541 N995 1.582 . S
C1543 N797 1.582 . S
C1552 N830 1.582 . S
C1554 N1028 1.582 . S
C1563 N929 1.585 . S
C1565 N863 1.583 . S
C1574 N962 1.584 . S
C1576 N896 1.583 . S
C1585 C17 1.671 . S
C1587 N905 1.585 . S
C1596 N278 1.584 . S
C1598 C50 1.672 . S
C1607 N839 1.581 . S
C1609 C83 1.673 . S
C1618 C116 1.671 . S
C1620 N344 1.585 . S
C1629 C149 1.675 . S
C1631 N971 1.579 . S
C1640 C182 1.672 . S
C1642 N476 1.582 . S
C1651 C215 1.674 . S
C1653 N1037 1.580 . S
C1662 N410 1.588 . S
C1664 C248 1.672 . S
C1673 N641 1.579 . S
C1675 C281 1.673 . S
C1684 C314 1.675 . S
C1686 N14 1.579 . S
C1695 C347 1.673 . S
C1697 N575 1.585 . S
C1706 N80 1.588 . S
C1708 C380 1.672 . S
C1717 N707 1.588 . S
C1719 C413 1.672 . S
C1728 C446 1.674 . S
C1730 N212 1.582 . S
C1739 C479 1.675 . S
C1741 N773 1.579 . S
C1750 N146 1.577 . S
C1752 C512 1.674 . S
C1761 N377 1.577 . S
C1763 C545 1.674 . S
C1772 N806 1.580 . S
C1774 C578 1.673 . S
C1783 C611 1.674 . S
C1785 N311 1.579 . S
C1794 C644 1.672 . S
C1796 N872 1.582 . S
C1805 N443 1.588 . S
C1807 C677 1.672 . S
C1816 C710 1.673 . S
C1818 N1004 1.580 . S
C1827 N509 1.579 . S
C1829 C743 1.673 . S
C1838 N938 1.584 . S
C1840 C776 1.673 . S
C1849 N113 1.578 . S
C1851 C809 1.674 . S
C1860 C842 1.671 . S
C1862 N542 1.585 . S
C1871 N47 1.578 . S
C1873 C875 1.673 . S
C1882 N608 1.586 . S
C1884 C908 1.672 . S
C1893 N179 1.588 . S
C1895 C941 1.672 . S
C1904 C974 1.675 . S
C1906 N740 1.579 . S
C1915 C1007 1.675 . S
C1917 N245 1.581 . S
C1926 C1040 1.671 . S
C1928 N674 1.586 . S
