# Generated by pormake.
# Topology cbo, (4)-cn, num edge types: 1
# Building blocks:
#     Node 0, Type 0, BuildingBlock: TATPOV_clean_sbu_0, # of connection points: 4
#     Node 1, Type 0, BuildingBlock: TATPOV_clean_sbu_0, # of connection points: 4
#     Node 2, Type 0, BuildingBlock: TATPOV_clean_sbu_0, # of connection points: 4
#     Node 3, Type 0, BuildingBlock: TATPOV_clean_sbu_0, # of connection points: 4
#     Node 4, Type 0, BuildingBlock: TATPOV_clean_sbu_0, # of connection points: 4
#     Node 5, Type 0, BuildingBlock: TATPOV_clean_sbu_0, # of connection points: 4
#     Node 6, Type 0, BuildingBlock: TATPOV_clean_sbu_0, # of connection points: 4
#     Node 7, Type 0, BuildingBlock: TATPOV_clean_sbu_0, # of connection points: 4
#     Node 8, Type 0, BuildingBlock: TATPOV_clean_sbu_0, # of connection points: 4
#     Node 9, Type 0, BuildingBlock: TATPOV_clean_sbu_0, # of connection points: 4
#     Node 10, Type 0, BuildingBlock: TATPOV_clean_sbu_0, # of connection points: 4
#     Node 11, Type 0, BuildingBlock: TATPOV_clean_sbu_0, # of connection points: 4
#     Node 12, Type 0, BuildingBlock: TATPOV_clean_sbu_0, # of connection points: 4
#     Node 13, Type 0, BuildingBlock: TATPOV_clean_sbu_0, # of connection points: 4
#     Node 14, Type 0, BuildingBlock: TATPOV_clean_sbu_0, # of connection points: 4
#     Node 15, Type 0, BuildingBlock: TATPOV_clean_sbu_0, # of connection points: 4
#     Node 16, Type 0, BuildingBlock: TATPOV_clean_sbu_0, # of connection points: 4
#     Node 17, Type 0, BuildingBlock: TATPOV_clean_sbu_0, # of connection points: 4
#     Node 18, Type 0, BuildingBlock: TATPOV_clean_sbu_0, # of connection points: 4
#     Node 19, Type 0, BuildingBlock: TATPOV_clean_sbu_0, # of connection points: 4
#     Node 20, Type 0, BuildingBlock: TATPOV_clean_sbu_0, # of connection points: 4
#     Node 21, Type 0, BuildingBlock: TATPOV_clean_sbu_0, # of connection points: 4
#     Node 22, Type 0, BuildingBlock: TATPOV_clean_sbu_0, # of connection points: 4
#     Node 23, Type 0, BuildingBlock: TATPOV_clean_sbu_0, # of connection points: 4
#     Edge 24, Type (0, 0), BuildingBlock: AJUNOK_clean_linker_0, # of connection points: 2
#     Edge 25, Type (0, 0), BuildingBlock: AJUNOK_clean_linker_0, # of connection points: 2
#     Edge 26, Type (0, 0), BuildingBlock: AJUNOK_clean_linker_0, # of connection points: 2
#     Edge 27, Type (0, 0), BuildingBlock: AJUNOK_clean_linker_0, # of connection points: 2
#     Edge 28, Type (0, 0), BuildingBlock: AJUNOK_clean_linker_0, # of connection points: 2
#     Edge 29, Type (0, 0), BuildingBlock: AJUNOK_clean_linker_0, # of connection points: 2
#     Edge 30, Type (0, 0), BuildingBlock: AJUNOK_clean_linker_0, # of connection points: 2
#     Edge 31, Type (0, 0), BuildingBlock: AJUNOK_clean_linker_0, # of connection points: 2
#     Edge 32, Type (0, 0), BuildingBlock: AJUNOK_clean_linker_0, # of connection points: 2
#     Edge 33, Type (0, 0), BuildingBlock: AJUNOK_clean_linker_0, # of connection points: 2
#     Edge 34, Type (0, 0), BuildingBlock: AJUNOK_clean_linker_0, # of connection points: 2
#     Edge 35, Type (0, 0), BuildingBlock: AJUNOK_clean_linker_0, # of connection points: 2
#     Edge 36, Type (0, 0), BuildingBlock: AJUNOK_clean_linker_0, # of connection points: 2
#     Edge 37, Type (0, 0), BuildingBlock: AJUNOK_clean_linker_0, # of connection points: 2
#     Edge 38, Type (0, 0), BuildingBlock: AJUNOK_clean_linker_0, # of connection points: 2
#     Edge 39, Type (0, 0), BuildingBlock: AJUNOK_clean_linker_0, # of connection points: 2
#     Edge 40, Type (0, 0), BuildingBlock: AJUNOK_clean_linker_0, # of connection points: 2
#     Edge 41, Type (0, 0), BuildingBlock: AJUNOK_clean_linker_0, # of connection points: 2
#     Edge 42, Type (0, 0), BuildingBlock: AJUNOK_clean_linker_0, # of connection points: 2
#     Edge 43, Type (0, 0), BuildingBlock: AJUNOK_clean_linker_0, # of connection points: 2
#     Edge 44, Type (0, 0), BuildingBlock: AJUNOK_clean_linker_0, # of connection points: 2
#     Edge 45, Type (0, 0), BuildingBlock: AJUNOK_clean_linker_0, # of connection points: 2
#     Edge 46, Type (0, 0), BuildingBlock: AJUNOK_clean_linker_0, # of connection points: 2
#     Edge 47, Type (0, 0), BuildingBlock: AJUNOK_clean_linker_0, # of connection points: 2
#     Edge 48, Type (0, 0), BuildingBlock: AJUNOK_clean_linker_0, # of connection points: 2
#     Edge 49, Type (0, 0), BuildingBlock: AJUNOK_clean_linker_0, # of connection points: 2
#     Edge 50, Type (0, 0), BuildingBlock: AJUNOK_clean_linker_0, # of connection points: 2
#     Edge 51, Type (0, 0), BuildingBlock: AJUNOK_clean_linker_0, # of connection points: 2
#     Edge 52, Type (0, 0), BuildingBlock: AJUNOK_clean_linker_0, # of connection points: 2
#     Edge 53, Type (0, 0), BuildingBlock: AJUNOK_clean_linker_0, # of connection points: 2
#     Edge 54, Type (0, 0), BuildingBlock: AJUNOK_clean_linker_0, # of connection points: 2
#     Edge 55, Type (0, 0), BuildingBlock: AJUNOK_clean_linker_0, # of connection points: 2
#     Edge 56, Type (0, 0), BuildingBlock: AJUNOK_clean_linker_0, # of connection points: 2
#     Edge 57, Type (0, 0), BuildingBlock: AJUNOK_clean_linker_0, # of connection points: 2
#     Edge 58, Type (0, 0), BuildingBlock: AJUNOK_clean_linker_0, # of connection points: 2
#     Edge 59, Type (0, 0), BuildingBlock: AJUNOK_clean_linker_0, # of connection points: 2
#     Edge 60, Type (0, 0), BuildingBlock: AJUNOK_clean_linker_0, # of connection points: 2
#     Edge 61, Type (0, 0), BuildingBlock: AJUNOK_clean_linker_0, # of connection points: 2
#     Edge 62, Type (0, 0), BuildingBlock: AJUNOK_clean_linker_0, # of connection points: 2
#     Edge 63, Type (0, 0), BuildingBlock: AJUNOK_clean_linker_0, # of connection points: 2
#     Edge 64, Type (0, 0), BuildingBlock: AJUNOK_clean_linker_0, # of connection points: 2
#     Edge 65, Type (0, 0), BuildingBlock: AJUNOK_clean_linker_0, # of connection points: 2
#     Edge 66, Type (0, 0), BuildingBlock: AJUNOK_clean_linker_0, # of connection points: 2
#     Edge 67, Type (0, 0), BuildingBlock: AJUNOK_clean_linker_0, # of connection points: 2
#     Edge 68, Type (0, 0), BuildingBlock: AJUNOK_clean_linker_0, # of connection points: 2
#     Edge 69, Type (0, 0), BuildingBlock: AJUNOK_clean_linker_0, # of connection points: 2
#     Edge 70, Type (0, 0), BuildingBlock: AJUNOK_clean_linker_0, # of connection points: 2
#     Edge 71, Type (0, 0), BuildingBlock: AJUNOK_clean_linker_0, # of connection points: 2
# Relax obj value: 0.197
# Max RMSD: 0.250
# Mean RMSD: 0.242
data_MOF--net-cbo--node1-TATPOV_clean_sbu_0--edge1-AJUNOK_clean_linker_0
_symmetry_space_group_name_H-M    P1
_symmetry_Int_Tables_number       1
_symmetry_cell_setting            triclinic
loop_
_symmetry_equiv_pos_as_xyz
'x, y, z'
_cell_length_a     37.908934
_cell_length_b     37.612396
_cell_length_c     37.473136
_cell_angle_alpha  89.955796
_cell_angle_beta   89.967019
_cell_angle_gamma 90.096049
loop_
_atom_site_label
_atom_site_type_symbol
_atom_site_fract_x
_atom_site_fract_y
_atom_site_fract_z
_atom_type_partial_charge
Zn0 Zn 0.15079 0.25439 0.38123 0.0
Zn1 Zn 0.11272 0.20274 0.35432 0.0
O2 O 0.10178 0.24721 0.32386 0.0
O3 O 0.13044 0.29161 0.34832 0.0
O4 O 0.07255 0.17024 0.34131 0.0
O5 O 0.13397 0.2487 0.43175 0.0
O6 O 0.10784 0.20163 0.40952 0.0
C7 C 0.11009 0.28001 0.32423 0.0
C8 C 0.18991 0.19499 0.34606 0.0
O9 O 0.15986 0.18175 0.33837 0.0
O10 O 0.19193 0.22379 0.36364 0.0
C11 C 0.05469 0.17244 0.31266 0.0
O12 O 0.06648 0.19237 0.28644 0.0
C13 C 0.11619 0.22062 0.4364 0.0
Zn14 Zn 0.34908 0.74799 0.88143 0.0
Zn15 Zn 0.38788 0.79891 0.85543 0.0
O16 O 0.39717 0.75462 0.82405 0.0
O17 O 0.36817 0.71036 0.84846 0.0
O18 O 0.42938 0.82987 0.84282 0.0
O19 O 0.36531 0.75203 0.9321 0.0
O20 O 0.39218 0.79915 0.91081 0.0
C21 C 0.38832 0.72196 0.82417 0.0
C22 C 0.31129 0.80894 0.84712 0.0
O23 O 0.34158 0.82181 0.83974 0.0
O24 O 0.30877 0.77989 0.86428 0.0
C25 C 0.44629 0.82804 0.81356 0.0
O26 O 0.43278 0.80991 0.78691 0.0
C27 C 0.3833 0.77984 0.93735 0.0
Zn28 Zn 0.64354 0.25816 0.62546 0.0
Zn29 Zn 0.60625 0.31017 0.64879 0.0
O30 O 0.59481 0.26664 0.68095 0.0
O31 O 0.62286 0.22118 0.65801 0.0
O32 O 0.56431 0.34157 0.658 0.0
O33 O 0.63023 0.26087 0.57397 0.0
O34 O 0.60538 0.30984 0.5931 0.0
C35 C 0.60274 0.23376 0.68176 0.0
C36 C 0.68218 0.31848 0.6603 0.0
O37 O 0.65219 0.33248 0.66657 0.0
O38 O 0.68414 0.28919 0.64352 0.0
C39 C 0.54603 0.34081 0.68645 0.0
O40 O 0.55861 0.32448 0.71466 0.0
C41 C 0.61439 0.28963 0.56734 0.0
Zn42 Zn 0.84886 0.7339 0.12034 0.0
Zn43 Zn 0.8888 0.68327 0.14509 0.0
O44 O 0.90059 0.72805 0.17483 0.0
O45 O 0.87022 0.77185 0.15151 0.0
O46 O 0.93055 0.65225 0.15574 0.0
O47 O 0.86259 0.72883 0.06906 0.0
O48 O 0.8905 0.68214 0.0896 0.0
C49 C 0.89194 0.76073 0.17455 0.0
C50 C 0.81265 0.67368 0.15759 0.0
O51 O 0.84321 0.66103 0.16391 0.0
O52 O 0.80934 0.70242 0.14007 0.0
C53 C 0.94923 0.65492 0.18378 0.0
O54 O 0.93709 0.6732 0.21098 0.0
C55 C 0.88026 0.70096 0.06327 0.0
Zn56 Zn 0.37128 0.21759 0.23772 0.0
Zn57 Zn 0.34869 0.16946 0.19223 0.0
O58 O 0.31879 0.16238 0.23796 0.0
O59 O 0.34001 0.19996 0.27726 0.0
O60 O 0.33195 0.1279 0.1628 0.0
O61 O 0.42146 0.20239 0.23356 0.0
O62 O 0.40342 0.16429 0.19305 0.0
C63 C 0.318 0.17601 0.26908 0.0
C64 C 0.33499 0.24647 0.1754 0.0
O65 O 0.33147 0.21399 0.16639 0.0
O66 O 0.3514 0.25444 0.20376 0.0
C67 C 0.34953 0.1113 0.1392 0.0
O68 O 0.38122 0.12266 0.13073 0.0
C69 C 0.4284 0.17866 0.21077 0.0
Zn70 Zn 0.12454 0.78688 0.75201 0.0
Zn71 Zn 0.14382 0.83221 0.70241 0.0
O72 O 0.17665 0.84134 0.74566 0.0
O73 O 0.15806 0.80622 0.78847 0.0
O74 O 0.15923 0.87214 0.66977 0.0
O75 O 0.07413 0.80153 0.75084 0.0
O76 O 0.08905 0.83646 0.70621 0.0
C77 C 0.17968 0.82935 0.77732 0.0
C78 C 0.15674 0.7545 0.68907 0.0
O79 O 0.15952 0.78644 0.67802 0.0
O80 O 0.14227 0.7481 0.7189 0.0
C81 C 0.14033 0.89013 0.64835 0.0
O82 O 0.10676 0.88218 0.64484 0.0
C83 C 0.06542 0.82309 0.72652 0.0
Zn84 Zn 0.86631 0.28346 0.75556 0.0
Zn85 Zn 0.85147 0.33036 0.80501 0.0
O86 O 0.81793 0.3425 0.7632 0.0
O87 O 0.83278 0.30549 0.72054 0.0
O88 O 0.84271 0.37157 0.83801 0.0
O89 O 0.91769 0.29477 0.75454 0.0
O90 O 0.90597 0.33134 0.79865 0.0
C91 C 0.81335 0.33041 0.73179 0.0
C92 C 0.83361 0.25387 0.8198 0.0
O93 O 0.83296 0.28602 0.83047 0.0
O94 O 0.84714 0.2463 0.7898 0.0
C95 C 0.81166 0.37826 0.84885 0.0
O96 O 0.78625 0.35586 0.84086 0.0
C97 C 0.92825 0.3165 0.77793 0.0
Zn98 Zn 0.6332 0.70454 0.26282 0.0
Zn99 Zn 0.65333 0.65893 0.31183 0.0
O100 O 0.68462 0.64694 0.26823 0.0
O101 O 0.66501 0.68245 0.22616 0.0
O102 O 0.66436 0.61906 0.34566 0.0
O103 O 0.58231 0.69152 0.2661 0.0
O104 O 0.5989 0.65533 0.30883 0.0
C105 C 0.68611 0.65844 0.23626 0.0
C106 C 0.66901 0.73645 0.32393 0.0
O107 O 0.67144 0.70453 0.3351 0.0
O108 O 0.65343 0.74299 0.29474 0.0
C109 C 0.69523 0.61228 0.35685 0.0
O110 O 0.72127 0.63351 0.34767 0.0
C111 C 0.57448 0.66914 0.29002 0.0
Zn112 Zn 0.18637 0.4038 0.17043 0.0
Zn113 Zn 0.15401 0.364 0.12191 0.0
O114 O 0.20412 0.3434 0.12419 0.0
O115 O 0.23169 0.37675 0.16338 0.0
O116 O 0.13345 0.33694 0.08052 0.0
O117 O 0.17799 0.44796 0.1426 0.0
O118 O 0.15071 0.41539 0.10225 0.0
C119 C 0.23194 0.35109 0.14156 0.0
C120 C 0.12841 0.36262 0.19936 0.0
O121 O 0.12573 0.35077 0.16752 0.0
O122 O 0.15121 0.38619 0.2066 0.0
C123 C 0.14256 0.30514 0.07385 0.0
O124 O 0.16112 0.28771 0.09772 0.0
C125 C 0.16171 0.44539 0.11332 0.0
Zn126 Zn 0.6797 0.10271 0.8261 0.0
Zn127 Zn 0.65184 0.13899 0.87903 0.0
O128 O 0.70207 0.1594 0.87548 0.0
O129 O 0.72653 0.1272 0.83335 0.0
O130 O 0.63342 0.16291 0.92338 0.0
O131 O 0.67006 0.05617 0.84877 0.0
O132 O 0.64903 0.08602 0.89464 0.0
C133 C 0.72875 0.15174 0.85634 0.0
C134 C 0.6226 0.14739 0.8032 0.0
O135 O 0.62148 0.15629 0.8361 0.0
O136 O 0.64444 0.12416 0.79285 0.0
C137 C 0.64173 0.19471 0.93114 0.0
O138 O 0.65878 0.21385 0.90737 0.0
C139 C 0.65683 0.05668 0.87967 0.0
Zn140 Zn 0.82063 0.89143 0.32253 0.0
Zn141 Zn 0.85152 0.85328 0.37311 0.0
O142 O 0.80114 0.83343 0.37128 0.0
O143 O 0.77431 0.86625 0.33118 0.0
O144 O 0.87111 0.82775 0.41591 0.0
O145 O 0.83126 0.93686 0.34717 0.0
O146 O 0.85532 0.90543 0.3904 0.0
C147 C 0.77347 0.84122 0.35377 0.0
C148 C 0.87742 0.84768 0.29597 0.0
O149 O 0.87999 0.83752 0.32842 0.0
O150 O 0.85488 0.87097 0.28741 0.0
C151 C 0.86176 0.79616 0.42333 0.0
O152 O 0.84377 0.778 0.39955 0.0
C153 C 0.84637 0.93523 0.37714 0.0
Zn154 Zn 0.30569 0.59689 0.67591 0.0
Zn155 Zn 0.33397 0.63749 0.62524 0.0
O156 O 0.28392 0.6568 0.6318 0.0
O157 O 0.25901 0.6223 0.67184 0.0
O158 O 0.3492 0.66771 0.58358 0.0
O159 O 0.31475 0.55302 0.64792 0.0
O160 O 0.33723 0.58619 0.605 0.0
C161 C 0.25721 0.64842 0.65059 0.0
C162 C 0.36446 0.63939 0.70083 0.0
O163 O 0.36521 0.65097 0.66876 0.0
O164 O 0.34224 0.6158 0.7097 0.0
C165 C 0.36895 0.65728 0.55827 0.0
O166 O 0.38481 0.62638 0.56109 0.0
C167 C 0.3286 0.55587 0.61739 0.0
Zn168 Zn 0.80112 0.74754 0.63354 0.0
Zn169 Zn 0.86197 0.77728 0.65313 0.0
O170 O 0.86325 0.72969 0.68002 0.0
O171 O 0.81435 0.70387 0.66194 0.0
O172 O 0.9089 0.79946 0.66457 0.0
O173 O 0.81327 0.7513 0.58139 0.0
O174 O 0.86305 0.77616 0.59808 0.0
C175 C 0.84196 0.70346 0.681 0.0
C176 C 0.79227 0.80948 0.67832 0.0
O177 O 0.82585 0.80964 0.67717 0.0
O178 O 0.77521 0.78658 0.66044 0.0
C179 C 0.91715 0.80929 0.69589 0.0
O180 O 0.89412 0.80521 0.72179 0.0
C181 C 0.84265 0.76521 0.5734 0.0
Zn182 Zn 0.70233 0.2455 0.13998 0.0
Zn183 Zn 0.64079 0.21828 0.16141 0.0
O184 O 0.64362 0.26659 0.18677 0.0
O185 O 0.69294 0.29057 0.16756 0.0
O186 O 0.5934 0.20086 0.17827 0.0
O187 O 0.68791 0.24092 0.08858 0.0
O188 O 0.63772 0.21729 0.10615 0.0
C189 C 0.66578 0.29206 0.18721 0.0
C190 C 0.70947 0.1835 0.18537 0.0
O191 O 0.67587 0.18444 0.18498 0.0
O192 O 0.72694 0.20572 0.16702 0.0
C193 C 0.57347 0.17786 0.16372 0.0
O194 O 0.58348 0.16249 0.13394 0.0
C195 C 0.65822 0.22742 0.08111 0.0
Zn196 Zn 0.30121 0.73624 0.35907 0.0
Zn197 Zn 0.36222 0.70924 0.33514 0.0
O198 O 0.36027 0.75902 0.31318 0.0
O199 O 0.31181 0.78297 0.33426 0.0
O200 O 0.40937 0.69244 0.31797 0.0
O201 O 0.31613 0.72711 0.41008 0.0
O202 O 0.36533 0.70386 0.38973 0.0
C203 C 0.33885 0.785 0.31446 0.0
C204 C 0.29335 0.67741 0.30901 0.0
O205 O 0.32693 0.67762 0.30947 0.0
O206 O 0.27633 0.69868 0.32882 0.0
C207 C 0.42749 0.66752 0.33165 0.0
O208 O 0.41467 0.64965 0.35886 0.0
C209 C 0.34557 0.71235 0.41585 0.0
Zn210 Zn 0.19748 0.25106 0.86332 0.0
Zn211 Zn 0.13608 0.28055 0.84492 0.0
O212 O 0.13446 0.23265 0.81886 0.0
O213 O 0.18359 0.20681 0.83608 0.0
O214 O 0.08855 0.30146 0.8344 0.0
O215 O 0.18668 0.25589 0.91577 0.0
O216 O 0.13663 0.28057 0.89992 0.0
C217 C 0.15548 0.2063 0.81781 0.0
C218 C 0.20466 0.3126 0.81707 0.0
O219 O 0.17111 0.3129 0.8192 0.0
O220 O 0.22216 0.28989 0.8347 0.0
C221 C 0.07833 0.30695 0.80262 0.0
O222 O 0.09992 0.29973 0.77615 0.0
C223 C 0.15762 0.27008 0.92426 0.0
Zn224 Zn 0.72817 0.85911 0.886 0.0
Zn225 Zn 0.66417 0.84437 0.85845 0.0
O226 O 0.67754 0.79903 0.88554 0.0
O227 O 0.72869 0.81077 0.91042 0.0
O228 O 0.61331 0.83683 0.84546 0.0
O229 O 0.71068 0.90393 0.91041 0.0
O230 O 0.66043 0.89175 0.88426 0.0
C231 C 0.70367 0.78917 0.90446 0.0
C232 C 0.72445 0.85545 0.80717 0.0
O233 O 0.69202 0.84798 0.81213 0.0
O234 O 0.74435 0.86159 0.83374 0.0
C235 C 0.59794 0.84897 0.81788 0.0
O236 O 0.61634 0.86598 0.79353 0.0
C237 C 0.67913 0.91237 0.90337 0.0
Zn238 Zn 0.7755 0.13163 0.39234 0.0
Zn239 Zn 0.83919 0.14752 0.36413 0.0
O240 O 0.82598 0.19187 0.39273 0.0
O241 O 0.77517 0.17931 0.418 0.0
O242 O 0.88959 0.1561 0.35 0.0
O243 O 0.79409 0.08632 0.41504 0.0
O244 O 0.84394 0.09961 0.38857 0.0
C245 C 0.80011 0.20111 0.41231 0.0
C246 C 0.77808 0.13716 0.31364 0.0
O247 O 0.81051 0.14464 0.31839 0.0
O248 O 0.75847 0.13037 0.34031 0.0
C249 C 0.90426 0.14554 0.3214 0.0
O250 O 0.8854 0.12939 0.29688 0.0
C251 C 0.82561 0.07832 0.40732 0.0
Zn252 Zn 0.2282 0.64102 0.09848 0.0
Zn253 Zn 0.16452 0.6543 0.12718 0.0
O254 O 0.1768 0.70102 0.10157 0.0
O255 O 0.22801 0.69035 0.07625 0.0
O256 O 0.114 0.65943 0.14223 0.0
O257 O 0.21085 0.59699 0.07253 0.0
O258 O 0.16119 0.60761 0.10031 0.0
C259 C 0.20294 0.7116 0.08293 0.0
C260 C 0.22529 0.64135 0.17724 0.0
O261 O 0.19298 0.64926 0.17269 0.0
O262 O 0.24507 0.63616 0.15037 0.0
C263 C 0.10085 0.64334 0.169 0.0
O264 O 0.12133 0.62446 0.18994 0.0
C265 C 0.17964 0.58776 0.08027 0.0
Zn266 Zn 0.26446 0.35759 0.60668 0.0
Zn267 Zn 0.32918 0.34503 0.63309 0.0
O268 O 0.31675 0.2986 0.60698 0.0
O269 O 0.26494 0.30901 0.58287 0.0
O270 O 0.38022 0.33974 0.64665 0.0
O271 O 0.2801 0.4028 0.58165 0.0
O272 O 0.33122 0.3924 0.60675 0.0
C273 C 0.29043 0.28801 0.58864 0.0
C274 C 0.26929 0.35512 0.68523 0.0
O275 O 0.30174 0.34851 0.67959 0.0
O276 O 0.24867 0.36033 0.65903 0.0
C277 C 0.39415 0.35478 0.67359 0.0
O278 O 0.37427 0.37305 0.69564 0.0
C279 C 0.31148 0.41238 0.58804 0.0
Zn280 Zn 0.75627 0.58893 0.84526 0.0
Zn281 Zn 0.81462 0.6025 0.882 0.0
O282 O 0.77593 0.63673 0.89935 0.0
O283 O 0.72663 0.62536 0.87114 0.0
O284 O 0.85204 0.61458 0.91822 0.0
O285 O 0.7571 0.53752 0.85977 0.0
O286 O 0.80822 0.54788 0.8855 0.0
C287 C 0.74358 0.64375 0.89359 0.0
C288 C 0.81649 0.6169 0.80341 0.0
O289 O 0.83282 0.61821 0.83309 0.0
O290 O 0.78514 0.60503 0.80217 0.0
C291 C 0.86055 0.64718 0.9209 0.0
O292 O 0.8491 0.66943 0.89646 0.0
C293 C 0.78406 0.52616 0.87604 0.0
Zn294 Zn 0.26353 0.90862 0.14708 0.0
Zn295 Zn 0.32247 0.8881 0.11347 0.0
O296 O 0.28125 0.85831 0.09429 0.0
O297 O 0.23175 0.87518 0.11917 0.0
O298 O 0.36034 0.87104 0.07982 0.0
O299 O 0.27249 0.9595 0.13232 0.0
O300 O 0.32268 0.94265 0.10841 0.0
C301 C 0.24806 0.85487 0.09791 0.0
C302 C 0.31789 0.87494 0.19251 0.0
O303 O 0.33572 0.87203 0.1638 0.0
O304 O 0.2877 0.88951 0.19184 0.0
C305 C 0.36507 0.83763 0.07782 0.0
O306 O 0.34965 0.81724 0.10168 0.0
C307 C 0.30127 0.96731 0.11698 0.0
Zn308 Zn 0.22919 0.08938 0.64722 0.0
Zn309 Zn 0.17095 0.11051 0.61396 0.0
O310 O 0.21271 0.14068 0.5961 0.0
O311 O 0.26193 0.12327 0.6211 0.0
O312 O 0.13411 0.12786 0.57926 0.0
O313 O 0.22119 0.03864 0.63204 0.0
O314 O 0.17046 0.05567 0.60947 0.0
C315 C 0.24586 0.14411 0.60018 0.0
C316 C 0.17395 0.1217 0.69288 0.0
O317 O 0.15655 0.12617 0.66412 0.0
O318 O 0.20407 0.10701 0.692 0.0
C319 C 0.12988 0.16134 0.57709 0.0
O320 O 0.1448 0.18151 0.60141 0.0
C321 C 0.19202 0.03091 0.61752 0.0
Zn322 Zn 0.75112 0.4027 0.35632 0.0
Zn323 Zn 0.69135 0.38861 0.39071 0.0
O324 O 0.72917 0.35386 0.40882 0.0
O325 O 0.7796 0.36582 0.38289 0.0
O326 O 0.6523 0.37615 0.42511 0.0
O327 O 0.74966 0.45396 0.3713 0.0
O328 O 0.69786 0.44301 0.3953 0.0
C329 C 0.76172 0.34694 0.40423 0.0
C330 C 0.69246 0.37584 0.31174 0.0
O331 O 0.67504 0.37422 0.34079 0.0
O332 O 0.72398 0.38732 0.31188 0.0
C333 C 0.64336 0.34358 0.42682 0.0
O334 O 0.65586 0.32172 0.40259 0.0
C335 C 0.72206 0.46503 0.38671 0.0
C336 C 0.1038 0.30767 0.22764 0.0
C337 C 0.11086 0.34435 0.22968 0.0
C338 C 0.09956 0.2872 0.25873 0.0
C339 C 0.10239 0.30276 0.29283 0.0
H340 H 0.10498 0.29404 0.2022 0.0
H341 H 0.09746 0.25861 0.25597 0.0
S342 S 0.11033 0.39911 0.31204 0.0
N343 N 0.11265 0.39641 0.26812 0.0
N344 N 0.10513 0.35791 0.32641 0.0
C345 C 0.10477 0.33996 0.29494 0.0
C346 C 0.10884 0.36078 0.26337 0.0
C347 C 0.39567 0.71518 0.75824 0.0
C348 C 0.39502 0.69949 0.79241 0.0
C349 C 0.39001 0.69468 0.72742 0.0
C350 C 0.38371 0.65788 0.72987 0.0
H351 H 0.39703 0.74382 0.75543 0.0
H352 H 0.38706 0.70832 0.70213 0.0
S353 S 0.38991 0.60304 0.812 0.0
N354 N 0.39515 0.6443 0.82607 0.0
N355 N 0.3851 0.60573 0.76829 0.0
C356 C 0.38801 0.64143 0.76335 0.0
C357 C 0.39347 0.66227 0.79464 0.0
C358 C 0.59652 0.17446 0.71066 0.0
C359 C 0.59466 0.21166 0.71357 0.0
C360 C 0.60092 0.15306 0.74088 0.0
C361 C 0.604 0.16803 0.77519 0.0
H362 H 0.59746 0.16197 0.68463 0.0
H363 H 0.60517 0.12485 0.73693 0.0
S364 S 0.59302 0.26329 0.79799 0.0
N365 N 0.58994 0.26202 0.75405 0.0
N366 N 0.5986 0.22169 0.81089 0.0
C367 C 0.59759 0.20465 0.77894 0.0
C368 C 0.59289 0.22654 0.74805 0.0
C369 C 0.90345 0.76938 0.2396 0.0
C370 C 0.90116 0.78398 0.20503 0.0
C371 C 0.9002 0.79101 0.26999 0.0
C372 C 0.89474 0.82786 0.26665 0.0
H373 H 0.90418 0.74082 0.24328 0.0
H374 H 0.89833 0.77829 0.29587 0.0
S375 S 0.89749 0.87983 0.18246 0.0
N376 N 0.90076 0.838 0.16952 0.0
N377 N 0.89526 0.87868 0.22646 0.0
C378 C 0.89752 0.8431 0.23243 0.0
C379 C 0.90051 0.82113 0.20161 0.0
C380 C 0.25448 0.15987 0.27788 0.0
C381 C 0.28715 0.16998 0.29276 0.0
C382 C 0.2228 0.16481 0.29671 0.0
C383 C 0.22281 0.18002 0.33098 0.0
H384 H 0.25296 0.15101 0.25042 0.0
H385 H 0.19812 0.15954 0.28313 0.0
S386 S 0.30172 0.20202 0.38521 0.0
N387 N 0.31785 0.18921 0.34636 0.0
N388 N 0.25845 0.19854 0.38159 0.0
C389 C 0.25549 0.1862 0.34764 0.0
C390 C 0.28765 0.18112 0.32857 0.0
C391 C 0.24639 0.81745 0.85051 0.0
C392 C 0.27842 0.82495 0.83307 0.0
C393 C 0.21398 0.82297 0.83362 0.0
C394 C 0.21224 0.83594 0.79843 0.0
H395 H 0.24637 0.80492 0.87656 0.0
H396 H 0.19027 0.81431 0.84729 0.0
S397 S 0.28833 0.86676 0.74397 0.0
N398 N 0.30634 0.8515 0.78105 0.0
N399 N 0.24531 0.86183 0.74902 0.0
C400 C 0.24389 0.84752 0.7823 0.0
C401 C 0.27705 0.84198 0.79969 0.0
C402 C 0.77955 0.32908 0.67495 0.0
C403 C 0.78138 0.33967 0.71089 0.0
C404 C 0.74713 0.32586 0.65748 0.0
C405 C 0.71525 0.33329 0.67515 0.0
H406 H 0.80307 0.32043 0.66101 0.0
H407 H 0.74691 0.31491 0.63074 0.0
S408 S 0.70597 0.36926 0.76675 0.0
N409 N 0.74885 0.36331 0.76167 0.0
N410 N 0.68776 0.35717 0.72859 0.0
C411 C 0.71689 0.34807 0.70955 0.0
C412 C 0.75007 0.35133 0.7275 0.0
C413 C 0.78123 0.64639 0.20953 0.0
C414 C 0.78064 0.65814 0.17391 0.0
C415 C 0.74973 0.64239 0.22896 0.0
C416 C 0.7168 0.65003 0.21326 0.0
H417 H 0.8061 0.64352 0.22344 0.0
H418 H 0.75151 0.63659 0.25722 0.0
S419 S 0.70113 0.67217 0.11812 0.0
N420 N 0.74449 0.6704 0.12184 0.0
N421 N 0.68543 0.66272 0.15814 0.0
C422 C 0.71589 0.65731 0.17647 0.0
C423 C 0.74782 0.66147 0.15684 0.0
C424 C 0.28348 0.26538 0.13852 0.0
C425 C 0.31447 0.27451 0.15706 0.0
C426 C 0.258 0.29112 0.13047 0.0
C427 C 0.26265 0.32683 0.14075 0.0
H428 H 0.2774 0.2378 0.13285 0.0
H429 H 0.23337 0.28237 0.11876 0.0
S430 S 0.34342 0.36578 0.18079 0.0
N431 N 0.35154 0.32272 0.17876 0.0
N432 N 0.30362 0.37106 0.16374 0.0
C433 C 0.29535 0.3369 0.15529 0.0
C434 C 0.3213 0.31074 0.16341 0.0
C435 C 0.78312 0.23587 0.85869 0.0
C436 C 0.81298 0.22616 0.83863 0.0
C437 C 0.75717 0.21071 0.86748 0.0
C438 C 0.76027 0.17506 0.85647 0.0
H439 H 0.77817 0.26353 0.86498 0.0
H440 H 0.73329 0.21995 0.88034 0.0
S441 S 0.83792 0.13458 0.81206 0.0
N442 N 0.84749 0.17735 0.81441 0.0
N443 N 0.79877 0.13011 0.83088 0.0
C444 C 0.79198 0.16433 0.84028 0.0
C445 C 0.81835 0.18989 0.83138 0.0
C446 C 0.74608 0.78232 0.36762 0.0
C447 C 0.74226 0.81751 0.35532 0.0
C448 C 0.72027 0.75655 0.36054 0.0
C449 C 0.68979 0.76513 0.34097 0.0
H450 H 0.77032 0.77384 0.38028 0.0
H451 H 0.72574 0.72923 0.36784 0.0
S452 S 0.66291 0.85539 0.31171 0.0
N453 N 0.70249 0.86102 0.32918 0.0
N454 N 0.65398 0.81262 0.31594 0.0
C455 C 0.68374 0.80106 0.33249 0.0
C456 C 0.71001 0.82725 0.33964 0.0
C457 C 0.20487 0.73373 0.6487 0.0
C458 C 0.17594 0.72551 0.67075 0.0
C459 C 0.22965 0.70771 0.63949 0.0
C460 C 0.22635 0.67254 0.65205 0.0
H461 H 0.21008 0.76098 0.64083 0.0
H462 H 0.25285 0.71594 0.62476 0.0
S463 S 0.15034 0.63553 0.70236 0.0
N464 N 0.14169 0.6784 0.69884 0.0
N465 N 0.18826 0.62948 0.68159 0.0
C466 C 0.19538 0.66316 0.67047 0.0
C467 C 0.17014 0.68964 0.67982 0.0
C468 C 0.81642 0.62479 0.73743 0.0
C469 C 0.83165 0.63302 0.77065 0.0
C470 C 0.82302 0.64569 0.70728 0.0
C471 C 0.84503 0.67578 0.70909 0.0
H472 H 0.7974 0.60337 0.73514 0.0
H473 H 0.80868 0.63965 0.68301 0.0
S474 S 0.89689 0.70461 0.78804 0.0
N475 N 0.87404 0.66999 0.80231 0.0
N476 N 0.88645 0.70945 0.74554 0.0
C477 C 0.86357 0.68195 0.74111 0.0
C478 C 0.85684 0.66053 0.77195 0.0
C479 C 0.68906 0.34743 0.2152 0.0
C480 C 0.66419 0.31962 0.21556 0.0
C481 C 0.69593 0.36748 0.24583 0.0
C482 C 0.67817 0.36069 0.27813 0.0
H483 H 0.70518 0.35221 0.1918 0.0
H484 H 0.71692 0.38705 0.24466 0.0
S485 S 0.60531 0.29591 0.29129 0.0
N486 N 0.61766 0.29016 0.24944 0.0
N487 N 0.63066 0.32797 0.30708 0.0
C488 C 0.65049 0.3357 0.27784 0.0
C489 C 0.64344 0.31516 0.24651 0.0
C490 C 0.31529 0.84082 0.28746 0.0
C491 C 0.34109 0.81396 0.28749 0.0
C492 C 0.30984 0.86228 0.25746 0.0
C493 C 0.32995 0.85788 0.22616 0.0
H494 H 0.29748 0.8438 0.30987 0.0
H495 H 0.28821 0.88106 0.25822 0.0
S496 S 0.40596 0.79671 0.21513 0.0
N497 N 0.39092 0.7882 0.2556 0.0
N498 N 0.38053 0.82854 0.19916 0.0
C499 C 0.35834 0.83381 0.22716 0.0
C500 C 0.36397 0.81189 0.25785 0.0
C501 C 0.13909 0.16702 0.72674 0.0
C502 C 0.16154 0.13727 0.72696 0.0
C503 C 0.1341 0.18747 0.75765 0.0
C504 C 0.15146 0.17886 0.78975 0.0
H505 H 0.12747 0.17622 0.702 0.0
H506 H 0.11899 0.2118 0.75546 0.0
S507 S 0.20555 0.09847 0.80641 0.0
N508 N 0.19567 0.0964 0.76356 0.0
N509 N 0.18645 0.13492 0.82145 0.0
C510 C 0.17062 0.14695 0.79122 0.0
C511 C 0.17566 0.12614 0.75985 0.0
C512 C 0.72086 0.83519 0.74369 0.0
C513 C 0.74003 0.85229 0.77089 0.0
C514 C 0.73728 0.82448 0.71197 0.0
C515 C 0.77354 0.83044 0.70613 0.0
H516 H 0.69353 0.8278 0.74777 0.0
H517 H 0.72187 0.80917 0.69308 0.0
S518 S 0.83335 0.88205 0.76517 0.0
N519 N 0.7956 0.8805 0.7871 0.0
N520 N 0.82642 0.86048 0.72748 0.0
C521 C 0.79197 0.85112 0.73133 0.0
C522 C 0.77525 0.86194 0.76373 0.0
C523 C 0.70839 0.14878 0.24219 0.0
C524 C 0.72785 0.16226 0.21315 0.0
C525 C 0.72512 0.13822 0.27377 0.0
C526 C 0.76202 0.14058 0.27759 0.0
H527 H 0.67982 0.14885 0.24171 0.0
H528 H 0.7087 0.1303 0.29607 0.0
S529 S 0.82553 0.1655 0.20627 0.0
N530 N 0.78637 0.17113 0.1879 0.0
N531 N 0.81785 0.15118 0.24719 0.0
C532 C 0.78201 0.15018 0.24737 0.0
C533 C 0.76492 0.161 0.21517 0.0
C534 C 0.29418 0.64641 0.25017 0.0
C535 C 0.2747 0.65855 0.27975 0.0
C536 C 0.27763 0.63846 0.21775 0.0
C537 C 0.24091 0.64213 0.2136 0.0
H538 H 0.32273 0.64558 0.25104 0.0
H539 H 0.29415 0.6315 0.19522 0.0
S540 S 0.17708 0.6641 0.28552 0.0
N541 N 0.21611 0.66743 0.30475 0.0
N542 N 0.18494 0.65226 0.24387 0.0
C543 C 0.22074 0.65027 0.24411 0.0
C544 C 0.23765 0.65849 0.27717 0.0
C545 C 0.21784 0.3556 0.72711 0.0
C546 C 0.25451 0.35263 0.72193 0.0
C547 C 0.20211 0.34602 0.75956 0.0
C548 C 0.2224 0.33288 0.78812 0.0
H549 H 0.20074 0.36331 0.7053 0.0
H550 H 0.17358 0.34639 0.76115 0.0
S551 S 0.32018 0.32821 0.79128 0.0
N552 N 0.31125 0.34181 0.75038 0.0
N553 N 0.28162 0.32358 0.81127 0.0
C554 C 0.25938 0.33349 0.78464 0.0
C555 C 0.27545 0.34338 0.75157 0.0
C556 C 0.75131 0.70307 0.92262 0.0
C557 C 0.72863 0.67774 0.90705 0.0
C558 C 0.7415 0.73886 0.92534 0.0
C559 C 0.70859 0.75076 0.91268 0.0
H560 H 0.77801 0.69596 0.93004 0.0
H561 H 0.76108 0.75766 0.93471 0.0
S562 S 0.63577 0.69327 0.87983 0.0
N563 N 0.669 0.66569 0.88626 0.0
N564 N 0.65047 0.73292 0.89153 0.0
C565 C 0.68393 0.7249 0.90174 0.0
C566 C 0.69398 0.6884 0.89887 0.0
C567 C 0.18783 0.77501 0.09579 0.0
C568 C 0.20791 0.75028 0.0762 0.0
C569 C 0.19895 0.81039 0.09952 0.0
C570 C 0.23054 0.82239 0.08379 0.0
H571 H 0.16509 0.7664 0.11103 0.0
H572 H 0.18429 0.82742 0.11749 0.0
S573 S 0.2865 0.77122 0.02081 0.0
N574 N 0.25635 0.74245 0.03429 0.0
N575 N 0.2772 0.80892 0.04126 0.0
C576 C 0.24808 0.79929 0.06014 0.0
C577 C 0.23676 0.76323 0.05636 0.0
C578 C 0.30551 0.22449 0.60105 0.0
C579 C 0.28585 0.24941 0.58126 0.0
C580 C 0.29452 0.18897 0.60393 0.0
C581 C 0.26348 0.17702 0.58712 0.0
H582 H 0.32774 0.233 0.61706 0.0
H583 H 0.30878 0.17173 0.62204 0.0
S584 S 0.20911 0.22888 0.52331 0.0
N585 N 0.23861 0.25764 0.53813 0.0
N586 N 0.21801 0.1909 0.54348 0.0
C587 C 0.24646 0.20043 0.56338 0.0
C588 C 0.25764 0.23662 0.56047 0.0
C589 C 0.75271 0.28701 0.43167 0.0
C590 C 0.77604 0.31256 0.41744 0.0
C591 C 0.76215 0.25107 0.4337 0.0
C592 C 0.79531 0.23925 0.42163 0.0
H593 H 0.72585 0.29414 0.43847 0.0
H594 H 0.74213 0.23218 0.44193 0.0
S595 S 0.86956 0.29698 0.39258 0.0
N596 N 0.83638 0.32467 0.39879 0.0
N597 N 0.85419 0.25714 0.40274 0.0
C598 C 0.8205 0.26518 0.41216 0.0
C599 C 0.81085 0.30184 0.41002 0.0
C600 C 0.11085 0.15561 0.51329 0.0
C601 C 0.11711 0.17742 0.54318 0.0
C602 C 0.10753 0.17011 0.47896 0.0
C603 C 0.11052 0.20697 0.47315 0.0
H604 H 0.11083 0.12693 0.51594 0.0
H605 H 0.10517 0.15202 0.4566 0.0
S606 S 0.11871 0.27619 0.54317 0.0
N607 N 0.11987 0.23823 0.56529 0.0
N608 N 0.11416 0.26532 0.50074 0.0
C609 C 0.11317 0.22927 0.50314 0.0
C610 C 0.11626 0.21454 0.53816 0.0
C611 C 0.38678 0.84391 0.01493 0.0
C612 C 0.37916 0.82182 0.04434 0.0
C613 C 0.39132 0.82975 0.98062 0.0
C614 C 0.38824 0.79299 0.97435 0.0
H615 H 0.38691 0.87256 0.01785 0.0
H616 H 0.39461 0.84807 0.95854 0.0
S617 S 0.37687 0.72308 0.04334 0.0
N618 N 0.37513 0.7608 0.06576 0.0
N619 N 0.38316 0.73437 0.00124 0.0
C620 C 0.38434 0.77038 0.00401 0.0
C621 C 0.37998 0.78475 0.03902 0.0
C622 C 0.61959 0.35242 0.48865 0.0
C623 C 0.62704 0.32934 0.46003 0.0
C624 C 0.61229 0.33924 0.52291 0.0
C625 C 0.61238 0.30247 0.52993 0.0
H626 H 0.62155 0.38095 0.48521 0.0
H627 H 0.60915 0.35813 0.54449 0.0
S628 S 0.62251 0.23066 0.46287 0.0
N629 N 0.62804 0.26775 0.43995 0.0
N630 N 0.61478 0.24316 0.50436 0.0
C631 C 0.61628 0.27911 0.50091 0.0
C632 C 0.62345 0.29249 0.46596 0.0
C633 C 0.87534 0.71075 0.99751 0.0
C634 C 0.8841 0.68801 0.026 0.0
C635 C 0.87073 0.69769 0.96285 0.0
C636 C 0.87434 0.66123 0.95523 0.0
H637 H 0.8701 0.73865 0.0023 0.0
H638 H 0.86195 0.71609 0.94248 0.0
S639 S 0.9037 0.59154 0.01878 0.0
N640 N 0.90136 0.62804 0.04312 0.0
N641 N 0.89237 0.60345 0.97794 0.0
C642 C 0.8863 0.63873 0.98271 0.0
C643 C 0.89128 0.65212 0.01808 0.0
C644 C 0.47507 0.15907 0.16762 0.0
C645 C 0.46584 0.17151 0.2018 0.0
C646 C 0.51033 0.15927 0.15605 0.0
C647 C 0.53754 0.17195 0.17824 0.0
H648 H 0.4548 0.15111 0.14889 0.0
H649 H 0.51596 0.15127 0.12887 0.0
S650 S 0.52806 0.20072 0.27252 0.0
N651 N 0.48741 0.19191 0.25943 0.0
N652 N 0.5534 0.19236 0.23771 0.0
C653 C 0.52894 0.18168 0.21343 0.0
C654 C 0.49318 0.18141 0.2252 0.0
C655 C 0.96673 0.81718 0.73901 0.0
C656 C 0.95395 0.82006 0.70391 0.0
C657 C 0.00273 0.82092 0.74647 0.0
C658 C 0.02733 0.82813 0.71923 0.0
H659 H 0.94919 0.80992 0.76067 0.0
H660 H 0.01155 0.8164 0.77359 0.0
S661 S 0.00659 0.84395 0.62377 0.0
N662 N 0.96808 0.83487 0.64229 0.0
N663 N 0.03577 0.84205 0.65641 0.0
C664 C 0.01453 0.83409 0.68453 0.0
C665 C 0.97783 0.82994 0.67684 0.0
C666 C 0.02641 0.30851 0.76173 0.0
C667 C 0.04092 0.31586 0.79545 0.0
C668 C 0.99005 0.3109 0.75578 0.0
C669 C 0.96674 0.32114 0.78316 0.0
H670 H 0.04295 0.29901 0.74018 0.0
H671 H 0.98001 0.30328 0.72982 0.0
S672 S 0.99204 0.34849 0.87482 0.0
N673 N 0.02968 0.33763 0.85554 0.0
N674 N 0.96128 0.34238 0.84424 0.0
C675 C 0.98117 0.33123 0.81623 0.0
C676 C 0.01826 0.32846 0.82242 0.0
C677 C 0.47527 0.67875 0.28743 0.0
C678 C 0.46417 0.662 0.31908 0.0
C679 C 0.51071 0.67895 0.27725 0.0
C680 C 0.53674 0.66252 0.29832 0.0
H681 H 0.45663 0.69302 0.27086 0.0
H682 H 0.51783 0.69347 0.25332 0.0
S683 S 0.52092 0.61071 0.38126 0.0
N684 N 0.4815 0.62526 0.36961 0.0
N685 N 0.54837 0.6257 0.35048 0.0
C686 C 0.52574 0.64348 0.32877 0.0
C687 C 0.48942 0.64321 0.33915 0.0
C688 C 0.18883 0.48902 0.07285 0.0
C689 C 0.15877 0.47744 0.09138 0.0
C690 C 0.19336 0.52498 0.06425 0.0
C691 C 0.16816 0.55045 0.07462 0.0
H692 H 0.21056 0.47089 0.06826 0.0
H693 H 0.21847 0.53317 0.05312 0.0
S694 S 0.08084 0.5313 0.11553 0.0
N695 N 0.1007 0.49227 0.11381 0.0
N696 N 0.10855 0.55997 0.09727 0.0
C697 C 0.13573 0.53811 0.08848 0.0
C698 C 0.13129 0.50149 0.09725 0.0
C699 C 0.6362 0.96099 0.89147 0.0
C700 C 0.66653 0.94916 0.90975 0.0
C701 C 0.63037 0.99721 0.8855 0.0
C702 C 0.65395 0.02276 0.8986 0.0
H703 H 0.61878 0.94224 0.87837 0.0
H704 H 0.60918 0.00505 0.86776 0.0
S705 S 0.7318 0.00668 0.95584 0.0
N706 N 0.71651 0.96654 0.94673 0.0
N707 N 0.70485 0.03481 0.93581 0.0
C708 C 0.68138 0.01177 0.92107 0.0
C709 C 0.68777 0.97482 0.92675 0.0
C710 C 0.8681 0.03017 0.39243 0.0
C711 C 0.83835 0.04135 0.41209 0.0
C712 C 0.87346 0.99422 0.38466 0.0
C713 C 0.85003 0.9683 0.3973 0.0
H714 H 0.88527 0.04938 0.37963 0.0
H715 H 0.89406 0.98706 0.36595 0.0
S716 S 0.77403 0.98224 0.45764 0.0
N717 N 0.78936 0.02266 0.44984 0.0
N718 N 0.80015 0.95488 0.43555 0.0
C719 C 0.82336 0.97842 0.4211 0.0
C720 C 0.81744 0.0151 0.42862 0.0
C721 C 0.35331 0.46237 0.59901 0.0
C722 C 0.32249 0.44984 0.58201 0.0
C723 C 0.3578 0.49854 0.60648 0.0
C724 C 0.33224 0.52339 0.59623 0.0
H725 H 0.37228 0.44393 0.61016 0.0
H726 H 0.37957 0.5066 0.6234 0.0
S727 S 0.25214 0.50606 0.54263 0.0
N728 N 0.26981 0.46639 0.54871 0.0
N729 N 0.27881 0.53454 0.56262 0.0
C730 C 0.30414 0.51208 0.57478 0.0
C731 C 0.29922 0.47517 0.56747 0.0
C732 C 0.83829 0.75824 0.47257 0.0
C733 C 0.86261 0.78409 0.46101 0.0
C734 C 0.83305 0.75145 0.50892 0.0
C735 C 0.8522 0.76989 0.53526 0.0
H736 H 0.82166 0.74444 0.45357 0.0
H737 H 0.81297 0.73231 0.51639 0.0
S738 S 0.92287 0.83643 0.51884 0.0
N739 N 0.90876 0.82554 0.47862 0.0
N740 N 0.89921 0.81247 0.54702 0.0
C741 C 0.87846 0.79394 0.52402 0.0
C742 C 0.88358 0.80111 0.4869 0.0
C743 C 0.66236 0.23427 0.98032 0.0
C744 C 0.64 0.20668 0.96884 0.0
C745 C 0.66681 0.24169 0.01663 0.0
C746 C 0.64876 0.22218 0.04304 0.0
H747 H 0.67812 0.2491 0.9613 0.0
H748 H 0.68549 0.26222 0.02406 0.0
S749 S 0.58313 0.15065 0.02689 0.0
N750 N 0.59671 0.1622 0.98662 0.0
N751 N 0.60482 0.17648 0.05496 0.0
C752 C 0.62432 0.19628 0.03188 0.0
C753 C 0.62004 0.18844 0.99479 0.0
C754 C 0.3789 0.67408 0.45886 0.0
C755 C 0.35563 0.70256 0.45281 0.0
C756 C 0.38476 0.66093 0.49339 0.0
C757 C 0.36781 0.67592 0.52326 0.0
H758 H 0.39133 0.66063 0.43663 0.0
H759 H 0.40151 0.63782 0.49638 0.0
S760 S 0.30927 0.75513 0.52222 0.0
N761 N 0.31901 0.7482 0.47987 0.0
N762 N 0.33027 0.72393 0.54471 0.0
C763 C 0.34664 0.70623 0.51778 0.0
C764 C 0.34044 0.71938 0.48258 0.0
C765 C 0.16494 0.26606 0.02511 0.0
C766 C 0.14076 0.29197 0.0366 0.0
C767 C 0.1692 0.25827 0.98884 0.0
C768 C 0.14917 0.27575 0.96253 0.0
H769 H 0.18221 0.25299 0.04403 0.0
H770 H 0.1892 0.23913 0.98136 0.0
S771 S 0.07848 0.34201 0.97903 0.0
N772 N 0.09382 0.33242 0.01912 0.0
N773 N 0.10151 0.3175 0.9509 0.0
C774 C 0.12306 0.29986 0.97382 0.0
C775 C 0.11895 0.30804 0.01084 0.0
C776 C 0.53902 0.84476 0.8468 0.0
C777 C 0.55908 0.84641 0.81528 0.0
C778 C 0.50235 0.84101 0.84577 0.0
C779 C 0.48416 0.83804 0.81315 0.0
H780 H 0.55177 0.84612 0.87264 0.0
H781 H 0.48842 0.83895 0.87094 0.0
S782 S 0.52425 0.84299 0.72289 0.0
N783 N 0.55804 0.84693 0.75043 0.0
N784 N 0.48891 0.83891 0.74841 0.0
C785 C 0.50377 0.84074 0.78134 0.0
C786 C 0.54125 0.8452 0.78242 0.0
C787 C 0.96405 0.14981 0.34827 0.0
C788 C 0.9429 0.1493 0.31749 0.0
C789 C 0.00049 0.15503 0.34609 0.0
C790 C 0.01732 0.16068 0.31305 0.0
H791 H 0.95232 0.1465 0.37444 0.0
H792 H 0.01526 0.15617 0.37081 0.0
S793 S 0.97407 0.1594 0.22421 0.0
N794 N 0.9415 0.15255 0.25272 0.0
N795 N 0.01017 0.16334 0.24857 0.0
C796 C 0.99665 0.159 0.28188 0.0
C797 C 0.95943 0.15304 0.2841 0.0
C798 C 0.04021 0.64421 0.14402 0.0
C799 C 0.06225 0.64323 0.1741 0.0
C800 C 0.00354 0.64555 0.14757 0.0
C801 C 0.9874 0.64677 0.18142 0.0
H802 H 0.0514 0.64423 0.1174 0.0
H803 H 0.98791 0.6473 0.12344 0.0
S804 S 0.03347 0.64241 0.26865 0.0
N805 N 0.06556 0.64115 0.23882 0.0
N806 N 0.99636 0.64483 0.24567 0.0
C807 C 0.00912 0.64459 0.21178 0.0
C808 C 0.0466 0.64249 0.20809 0.0
C809 C 0.45449 0.35115 0.64771 0.0
C810 C 0.43289 0.35396 0.67806 0.0
C811 C 0.49119 0.3492 0.65073 0.0
C812 C 0.50787 0.34923 0.68431 0.0
H813 H 0.44293 0.35024 0.62128 0.0
H814 H 0.50642 0.34613 0.62646 0.0
S815 S 0.46325 0.35803 0.77204 0.0
N816 N 0.43073 0.35867 0.74272 0.0
N817 N 0.49992 0.35398 0.74856 0.0
C818 C 0.48664 0.35305 0.7149 0.0
C819 C 0.44913 0.35569 0.71174 0.0
C820 C 0.82453 0.47383 0.8783 0.0
C821 C 0.78992 0.48724 0.87821 0.0
C822 C 0.83122 0.43788 0.87116 0.0
C823 C 0.80355 0.41388 0.86391 0.0
H824 H 0.84683 0.49162 0.88139 0.0
H825 H 0.85845 0.42934 0.86943 0.0
S826 S 0.70779 0.43438 0.86775 0.0
N827 N 0.72742 0.4728 0.87556 0.0
N828 N 0.73988 0.40524 0.86244 0.0
C829 C 0.76867 0.42629 0.86722 0.0
C830 C 0.76189 0.46297 0.87426 0.0
C831 C 0.2894 0.03165 0.12824 0.0
C832 C 0.312 0.00531 0.1145 0.0
C833 C 0.30122 0.06643 0.13397 0.0
C834 C 0.33611 0.07655 0.12606 0.0
H835 H 0.26283 0.02502 0.13656 0.0
H836 H 0.28319 0.08508 0.14629 0.0
S837 S 0.40403 0.01957 0.0834 0.0
N838 N 0.36962 0.9931 0.08852 0.0
N839 N 0.39178 0.05862 0.09919 0.0
C840 C 0.35808 0.05143 0.10927 0.0
C841 C 0.34603 0.01581 0.10352 0.0
C842 C 0.13172 0.95061 0.62163 0.0
C843 C 0.15473 0.92342 0.63268 0.0
C844 C 0.14437 0.98481 0.61366 0.0
C845 C 0.18052 0.9931 0.6164 0.0
H846 H 0.10348 0.94621 0.62128 0.0
H847 H 0.12531 0.00539 0.60768 0.0
S848 S 0.25245 0.92915 0.6364 0.0
N849 N 0.21592 0.90553 0.64025 0.0
N850 N 0.23969 0.96958 0.62519 0.0
C851 C 0.2041 0.96518 0.62396 0.0
C852 C 0.19121 0.93042 0.63216 0.0
C853 C 0.74355 0.5275 0.37981 0.0
C854 C 0.71593 0.504 0.38875 0.0
C855 C 0.73704 0.56338 0.37231 0.0
C856 C 0.7026 0.57716 0.37326 0.0
H857 H 0.77021 0.51773 0.37641 0.0
H858 H 0.75889 0.5797 0.36336 0.0
S859 S 0.62215 0.52887 0.40268 0.0
N860 N 0.65363 0.49862 0.40376 0.0
N861 N 0.64142 0.56605 0.38959 0.0
C862 C 0.6753 0.55491 0.38568 0.0
C863 C 0.68196 0.51834 0.39352 0.0
loop_
_geom_bond_atom_site_label_1
_geom_bond_atom_site_label_2
_geom_bond_distance
_geom_bond_site_symmetry_2
_ccdc_geom_bond_type
Zn0 O3 2.031 . S
Zn0 O5 2.049 . S
Zn0 O10 2.067 . S
Zn1 O2 1.962 . S
Zn1 O4 1.986 . S
Zn1 O6 1.996 . S
Zn1 O9 1.943 . S
O2 Zn1 1.962 . S
O2 C7 1.254 . S
O3 Zn0 2.031 . S
O3 C7 1.269 . S
O4 Zn1 1.986 . S
O4 C11 1.262 . S
O5 Zn0 2.049 . S
O5 C13 1.260 . S
O6 Zn1 1.996 . S
O6 C13 1.257 . S
C7 O2 1.254 . S
C7 O3 1.269 . S
C8 O9 1.249 . S
C8 O10 1.270 . S
O9 Zn1 1.943 . S
O9 C8 1.249 . S
O10 Zn0 2.067 . S
O10 C8 1.270 . S
C11 O4 1.262 . S
C11 O12 1.232 . S
O12 C11 1.232 . S
C13 O5 1.260 . S
C13 O6 1.257 . S
Zn14 O17 2.031 . S
Zn14 O19 2.049 . S
Zn14 O24 2.067 . S
Zn15 O16 1.962 . S
Zn15 O18 1.986 . S
Zn15 O20 1.996 . S
Zn15 O23 1.943 . S
O16 Zn15 1.962 . S
O16 C21 1.254 . S
O17 Zn14 2.031 . S
O17 C21 1.269 . S
O18 Zn15 1.986 . S
O18 C25 1.262 . S
O19 Zn14 2.049 . S
O19 C27 1.260 . S
O20 Zn15 1.996 . S
O20 C27 1.257 . S
C21 O16 1.254 . S
C21 O17 1.269 . S
C22 O23 1.249 . S
C22 O24 1.270 . S
O23 Zn15 1.943 . S
O23 C22 1.249 . S
O24 Zn14 2.067 . S
O24 C22 1.270 . S
C25 O18 1.262 . S
C25 O26 1.232 . S
O26 C25 1.232 . S
C27 O19 1.260 . S
C27 O20 1.257 . S
Zn28 O31 2.031 . S
Zn28 O33 2.049 . S
Zn28 O38 2.067 . S
Zn29 O30 1.962 . S
Zn29 O32 1.986 . S
Zn29 O34 1.996 . S
Zn29 O37 1.943 . S
O30 Zn29 1.962 . S
O30 C35 1.254 . S
O31 Zn28 2.031 . S
O31 C35 1.269 . S
O32 Zn29 1.986 . S
O32 C39 1.262 . S
O33 Zn28 2.049 . S
O33 C41 1.260 . S
O34 Zn29 1.996 . S
O34 C41 1.257 . S
C35 O30 1.254 . S
C35 O31 1.269 . S
C36 O37 1.249 . S
C36 O38 1.270 . S
O37 Zn29 1.943 . S
O37 C36 1.249 . S
O38 Zn28 2.067 . S
O38 C36 1.270 . S
C39 O32 1.262 . S
C39 O40 1.232 . S
O40 C39 1.232 . S
C41 O33 1.260 . S
C41 O34 1.257 . S
Zn42 O45 2.031 . S
Zn42 O47 2.049 . S
Zn42 O52 2.067 . S
Zn43 O44 1.962 . S
Zn43 O46 1.986 . S
Zn43 O48 1.996 . S
Zn43 O51 1.943 . S
O44 Zn43 1.962 . S
O44 C49 1.254 . S
O45 Zn42 2.031 . S
O45 C49 1.269 . S
O46 Zn43 1.986 . S
O46 C53 1.262 . S
O47 Zn42 2.049 . S
O47 C55 1.260 . S
O48 Zn43 1.996 . S
O48 C55 1.257 . S
C49 O44 1.254 . S
C49 O45 1.269 . S
C50 O51 1.249 . S
C50 O52 1.270 . S
O51 Zn43 1.943 . S
O51 C50 1.249 . S
O52 Zn42 2.067 . S
O52 C50 1.270 . S
C53 O46 1.262 . S
C53 O54 1.232 . S
O54 C53 1.232 . S
C55 O47 1.260 . S
C55 O48 1.257 . S
Zn56 O59 2.031 . S
Zn56 O61 2.049 . S
Zn56 O66 2.067 . S
Zn57 O58 1.962 . S
Zn57 O60 1.986 . S
Zn57 O62 1.996 . S
Zn57 O65 1.943 . S
O58 Zn57 1.962 . S
O58 C63 1.254 . S
O59 Zn56 2.031 . S
O59 C63 1.269 . S
O60 Zn57 1.986 . S
O60 C67 1.262 . S
O61 Zn56 2.049 . S
O61 C69 1.260 . S
O62 Zn57 1.996 . S
O62 C69 1.257 . S
C63 O58 1.254 . S
C63 O59 1.269 . S
C64 O65 1.249 . S
C64 O66 1.270 . S
O65 Zn57 1.943 . S
O65 C64 1.249 . S
O66 Zn56 2.067 . S
O66 C64 1.270 . S
C67 O60 1.262 . S
C67 O68 1.232 . S
O68 C67 1.232 . S
C69 O61 1.260 . S
C69 O62 1.257 . S
Zn70 O73 2.031 . S
Zn70 O75 2.049 . S
Zn70 O80 2.067 . S
Zn71 O72 1.962 . S
Zn71 O74 1.986 . S
Zn71 O76 1.996 . S
Zn71 O79 1.943 . S
O72 Zn71 1.962 . S
O72 C77 1.254 . S
O73 Zn70 2.031 . S
O73 C77 1.269 . S
O74 Zn71 1.986 . S
O74 C81 1.262 . S
O75 Zn70 2.049 . S
O75 C83 1.260 . S
O76 Zn71 1.996 . S
O76 C83 1.257 . S
C77 O72 1.254 . S
C77 O73 1.269 . S
C78 O79 1.249 . S
C78 O80 1.270 . S
O79 Zn71 1.943 . S
O79 C78 1.249 . S
O80 Zn70 2.067 . S
O80 C78 1.270 . S
C81 O74 1.262 . S
C81 O82 1.232 . S
O82 C81 1.232 . S
C83 O75 1.260 . S
C83 O76 1.257 . S
Zn84 O87 2.031 . S
Zn84 O89 2.049 . S
Zn84 O94 2.067 . S
Zn85 O86 1.962 . S
Zn85 O88 1.986 . S
Zn85 O90 1.996 . S
Zn85 O93 1.943 . S
O86 Zn85 1.962 . S
O86 C91 1.254 . S
O87 Zn84 2.031 . S
O87 C91 1.269 . S
O88 Zn85 1.986 . S
O88 C95 1.262 . S
O89 Zn84 2.049 . S
O89 C97 1.260 . S
O90 Zn85 1.996 . S
O90 C97 1.257 . S
C91 O86 1.254 . S
C91 O87 1.269 . S
C92 O93 1.249 . S
C92 O94 1.270 . S
O93 Zn85 1.943 . S
O93 C92 1.249 . S
O94 Zn84 2.067 . S
O94 C92 1.270 . S
C95 O88 1.262 . S
C95 O96 1.232 . S
O96 C95 1.232 . S
C97 O89 1.260 . S
C97 O90 1.257 . S
Zn98 O101 2.031 . S
Zn98 O103 2.049 . S
Zn98 O108 2.067 . S
Zn99 O100 1.962 . S
Zn99 O102 1.986 . S
Zn99 O104 1.996 . S
Zn99 O107 1.943 . S
O100 Zn99 1.962 . S
O100 C105 1.254 . S
O101 Zn98 2.031 . S
O101 C105 1.269 . S
O102 Zn99 1.986 . S
O102 C109 1.262 . S
O103 Zn98 2.049 . S
O103 C111 1.260 . S
O104 Zn99 1.996 . S
O104 C111 1.257 . S
C105 O100 1.254 . S
C105 O101 1.269 . S
C106 O107 1.249 . S
C106 O108 1.270 . S
O107 Zn99 1.943 . S
O107 C106 1.249 . S
O108 Zn98 2.067 . S
O108 C106 1.270 . S
C109 O102 1.262 . S
C109 O110 1.232 . S
O110 C109 1.232 . S
C111 O103 1.260 . S
C111 O104 1.257 . S
Zn112 O115 2.031 . S
Zn112 O117 2.049 . S
Zn112 O122 2.067 . S
Zn113 O114 1.962 . S
Zn113 O116 1.986 . S
Zn113 O118 1.996 . S
Zn113 O121 1.943 . S
O114 Zn113 1.962 . S
O114 C119 1.254 . S
O115 Zn112 2.031 . S
O115 C119 1.269 . S
O116 Zn113 1.986 . S
O116 C123 1.262 . S
O117 Zn112 2.049 . S
O117 C125 1.260 . S
O118 Zn113 1.996 . S
O118 C125 1.257 . S
C119 O114 1.254 . S
C119 O115 1.269 . S
C120 O121 1.249 . S
C120 O122 1.270 . S
O121 Zn113 1.943 . S
O121 C120 1.249 . S
O122 Zn112 2.067 . S
O122 C120 1.270 . S
C123 O116 1.262 . S
C123 O124 1.232 . S
O124 C123 1.232 . S
C125 O117 1.260 . S
C125 O118 1.257 . S
Zn126 O129 2.031 . S
Zn126 O131 2.049 . S
Zn126 O136 2.067 . S
Zn127 O128 1.962 . S
Zn127 O130 1.986 . S
Zn127 O132 1.996 . S
Zn127 O135 1.943 . S
O128 Zn127 1.962 . S
O128 C133 1.254 . S
O129 Zn126 2.031 . S
O129 C133 1.269 . S
O130 Zn127 1.986 . S
O130 C137 1.262 . S
O131 Zn126 2.049 . S
O131 C139 1.260 . S
O132 Zn127 1.996 . S
O132 C139 1.257 . S
C133 O128 1.254 . S
C133 O129 1.269 . S
C134 O135 1.249 . S
C134 O136 1.270 . S
O135 Zn127 1.943 . S
O135 C134 1.249 . S
O136 Zn126 2.067 . S
O136 C134 1.270 . S
C137 O130 1.262 . S
C137 O138 1.232 . S
O138 C137 1.232 . S
C139 O131 1.260 . S
C139 O132 1.257 . S
Zn140 O143 2.031 . S
Zn140 O145 2.049 . S
Zn140 O150 2.067 . S
Zn141 O142 1.962 . S
Zn141 O144 1.986 . S
Zn141 O146 1.996 . S
Zn141 O149 1.943 . S
O142 Zn141 1.962 . S
O142 C147 1.254 . S
O143 Zn140 2.031 . S
O143 C147 1.269 . S
O144 Zn141 1.986 . S
O144 C151 1.262 . S
O145 Zn140 2.049 . S
O145 C153 1.260 . S
O146 Zn141 1.996 . S
O146 C153 1.257 . S
C147 O142 1.254 . S
C147 O143 1.269 . S
C148 O149 1.249 . S
C148 O150 1.270 . S
O149 Zn141 1.943 . S
O149 C148 1.249 . S
O150 Zn140 2.067 . S
O150 C148 1.270 . S
C151 O144 1.262 . S
C151 O152 1.232 . S
O152 C151 1.232 . S
C153 O145 1.260 . S
C153 O146 1.257 . S
Zn154 O157 2.031 . S
Zn154 O159 2.049 . S
Zn154 O164 2.067 . S
Zn155 O156 1.962 . S
Zn155 O158 1.986 . S
Zn155 O160 1.996 . S
Zn155 O163 1.943 . S
O156 Zn155 1.962 . S
O156 C161 1.254 . S
O157 Zn154 2.031 . S
O157 C161 1.269 . S
O158 Zn155 1.986 . S
O158 C165 1.262 . S
O159 Zn154 2.049 . S
O159 C167 1.260 . S
O160 Zn155 1.996 . S
O160 C167 1.257 . S
C161 O156 1.254 . S
C161 O157 1.269 . S
C162 O163 1.249 . S
C162 O164 1.270 . S
O163 Zn155 1.943 . S
O163 C162 1.249 . S
O164 Zn154 2.067 . S
O164 C162 1.270 . S
C165 O158 1.262 . S
C165 O166 1.232 . S
O166 C165 1.232 . S
C167 O159 1.260 . S
C167 O160 1.257 . S
Zn168 O171 2.031 . S
Zn168 O173 2.049 . S
Zn168 O178 2.067 . S
Zn169 O170 1.962 . S
Zn169 O172 1.986 . S
Zn169 O174 1.996 . S
Zn169 O177 1.943 . S
O170 Zn169 1.962 . S
O170 C175 1.254 . S
O171 Zn168 2.031 . S
O171 C175 1.269 . S
O172 Zn169 1.986 . S
O172 C179 1.262 . S
O173 Zn168 2.049 . S
O173 C181 1.260 . S
O174 Zn169 1.996 . S
O174 C181 1.257 . S
C175 O170 1.254 . S
C175 O171 1.269 . S
C176 O177 1.249 . S
C176 O178 1.270 . S
O177 Zn169 1.943 . S
O177 C176 1.249 . S
O178 Zn168 2.067 . S
O178 C176 1.270 . S
C179 O172 1.262 . S
C179 O180 1.232 . S
O180 C179 1.232 . S
C181 O173 1.260 . S
C181 O174 1.257 . S
Zn182 O185 2.031 . S
Zn182 O187 2.049 . S
Zn182 O192 2.067 . S
Zn183 O184 1.962 . S
Zn183 O186 1.986 . S
Zn183 O188 1.996 . S
Zn183 O191 1.943 . S
O184 Zn183 1.962 . S
O184 C189 1.254 . S
O185 Zn182 2.031 . S
O185 C189 1.269 . S
O186 Zn183 1.986 . S
O186 C193 1.262 . S
O187 Zn182 2.049 . S
O187 C195 1.260 . S
O188 Zn183 1.996 . S
O188 C195 1.257 . S
C189 O184 1.254 . S
C189 O185 1.269 . S
C190 O191 1.249 . S
C190 O192 1.270 . S
O191 Zn183 1.943 . S
O191 C190 1.249 . S
O192 Zn182 2.067 . S
O192 C190 1.270 . S
C193 O186 1.262 . S
C193 O194 1.232 . S
O194 C193 1.232 . S
C195 O187 1.260 . S
C195 O188 1.257 . S
Zn196 O199 2.031 . S
Zn196 O201 2.049 . S
Zn196 O206 2.067 . S
Zn197 O198 1.962 . S
Zn197 O200 1.986 . S
Zn197 O202 1.996 . S
Zn197 O205 1.943 . S
O198 Zn197 1.962 . S
O198 C203 1.254 . S
O199 Zn196 2.031 . S
O199 C203 1.269 . S
O200 Zn197 1.986 . S
O200 C207 1.262 . S
O201 Zn196 2.049 . S
O201 C209 1.260 . S
O202 Zn197 1.996 . S
O202 C209 1.257 . S
C203 O198 1.254 . S
C203 O199 1.269 . S
C204 O205 1.249 . S
C204 O206 1.270 . S
O205 Zn197 1.943 . S
O205 C204 1.249 . S
O206 Zn196 2.067 . S
O206 C204 1.270 . S
C207 O200 1.262 . S
C207 O208 1.232 . S
O208 C207 1.232 . S
C209 O201 1.260 . S
C209 O202 1.257 . S
Zn210 O213 2.031 . S
Zn210 O215 2.049 . S
Zn210 O220 2.067 . S
Zn211 O212 1.962 . S
Zn211 O214 1.986 . S
Zn211 O216 1.996 . S
Zn211 O219 1.943 . S
O212 Zn211 1.962 . S
O212 C217 1.254 . S
O213 Zn210 2.031 . S
O213 C217 1.269 . S
O214 Zn211 1.986 . S
O214 C221 1.262 . S
O215 Zn210 2.049 . S
O215 C223 1.260 . S
O216 Zn211 1.996 . S
O216 C223 1.257 . S
C217 O212 1.254 . S
C217 O213 1.269 . S
C218 O219 1.249 . S
C218 O220 1.270 . S
O219 Zn211 1.943 . S
O219 C218 1.249 . S
O220 Zn210 2.067 . S
O220 C218 1.270 . S
C221 O214 1.262 . S
C221 O222 1.232 . S
O222 C221 1.232 . S
C223 O215 1.260 . S
C223 O216 1.257 . S
Zn224 O227 2.031 . S
Zn224 O229 2.049 . S
Zn224 O234 2.067 . S
Zn225 O226 1.962 . S
Zn225 O228 1.986 . S
Zn225 O230 1.996 . S
Zn225 O233 1.943 . S
O226 Zn225 1.962 . S
O226 C231 1.254 . S
O227 Zn224 2.031 . S
O227 C231 1.269 . S
O228 Zn225 1.986 . S
O228 C235 1.262 . S
O229 Zn224 2.049 . S
O229 C237 1.260 . S
O230 Zn225 1.996 . S
O230 C237 1.257 . S
C231 O226 1.254 . S
C231 O227 1.269 . S
C232 O233 1.249 . S
C232 O234 1.270 . S
O233 Zn225 1.943 . S
O233 C232 1.249 . S
O234 Zn224 2.067 . S
O234 C232 1.270 . S
C235 O228 1.262 . S
C235 O236 1.232 . S
O236 C235 1.232 . S
C237 O229 1.260 . S
C237 O230 1.257 . S
Zn238 O241 2.031 . S
Zn238 O243 2.049 . S
Zn238 O248 2.067 . S
Zn239 O240 1.962 . S
Zn239 O242 1.986 . S
Zn239 O244 1.996 . S
Zn239 O247 1.943 . S
O240 Zn239 1.962 . S
O240 C245 1.254 . S
O241 Zn238 2.031 . S
O241 C245 1.269 . S
O242 Zn239 1.986 . S
O242 C249 1.262 . S
O243 Zn238 2.049 . S
O243 C251 1.260 . S
O244 Zn239 1.996 . S
O244 C251 1.257 . S
C245 O240 1.254 . S
C245 O241 1.269 . S
C246 O247 1.249 . S
C246 O248 1.270 . S
O247 Zn239 1.943 . S
O247 C246 1.249 . S
O248 Zn238 2.067 . S
O248 C246 1.270 . S
C249 O242 1.262 . S
C249 O250 1.232 . S
O250 C249 1.232 . S
C251 O243 1.260 . S
C251 O244 1.257 . S
Zn252 O255 2.031 . S
Zn252 O257 2.049 . S
Zn252 O262 2.067 . S
Zn253 O254 1.962 . S
Zn253 O256 1.986 . S
Zn253 O258 1.996 . S
Zn253 O261 1.943 . S
O254 Zn253 1.962 . S
O254 C259 1.254 . S
O255 Zn252 2.031 . S
O255 C259 1.269 . S
O256 Zn253 1.986 . S
O256 C263 1.262 . S
O257 Zn252 2.049 . S
O257 C265 1.260 . S
O258 Zn253 1.996 . S
O258 C265 1.257 . S
C259 O254 1.254 . S
C259 O255 1.269 . S
C260 O261 1.249 . S
C260 O262 1.270 . S
O261 Zn253 1.943 . S
O261 C260 1.249 . S
O262 Zn252 2.067 . S
O262 C260 1.270 . S
C263 O256 1.262 . S
C263 O264 1.232 . S
O264 C263 1.232 . S
C265 O257 1.260 . S
C265 O258 1.257 . S
Zn266 O269 2.031 . S
Zn266 O271 2.049 . S
Zn266 O276 2.067 . S
Zn267 O268 1.962 . S
Zn267 O270 1.986 . S
Zn267 O272 1.996 . S
Zn267 O275 1.943 . S
O268 Zn267 1.962 . S
O268 C273 1.254 . S
O269 Zn266 2.031 . S
O269 C273 1.269 . S
O270 Zn267 1.986 . S
O270 C277 1.262 . S
O271 Zn266 2.049 . S
O271 C279 1.260 . S
O272 Zn267 1.996 . S
O272 C279 1.257 . S
C273 O268 1.254 . S
C273 O269 1.269 . S
C274 O275 1.249 . S
C274 O276 1.270 . S
O275 Zn267 1.943 . S
O275 C274 1.249 . S
O276 Zn266 2.067 . S
O276 C274 1.270 . S
C277 O270 1.262 . S
C277 O278 1.232 . S
O278 C277 1.232 . S
C279 O271 1.260 . S
C279 O272 1.257 . S
Zn280 O283 2.031 . S
Zn280 O285 2.049 . S
Zn280 O290 2.067 . S
Zn281 O282 1.962 . S
Zn281 O284 1.986 . S
Zn281 O286 1.996 . S
Zn281 O289 1.943 . S
O282 Zn281 1.962 . S
O282 C287 1.254 . S
O283 Zn280 2.031 . S
O283 C287 1.269 . S
O284 Zn281 1.986 . S
O284 C291 1.262 . S
O285 Zn280 2.049 . S
O285 C293 1.260 . S
O286 Zn281 1.996 . S
O286 C293 1.257 . S
C287 O282 1.254 . S
C287 O283 1.269 . S
C288 O289 1.249 . S
C288 O290 1.270 . S
O289 Zn281 1.943 . S
O289 C288 1.249 . S
O290 Zn280 2.067 . S
O290 C288 1.270 . S
C291 O284 1.262 . S
C291 O292 1.232 . S
O292 C291 1.232 . S
C293 O285 1.260 . S
C293 O286 1.257 . S
Zn294 O297 2.031 . S
Zn294 O299 2.049 . S
Zn294 O304 2.067 . S
Zn295 O296 1.962 . S
Zn295 O298 1.986 . S
Zn295 O300 1.996 . S
Zn295 O303 1.943 . S
O296 Zn295 1.962 . S
O296 C301 1.254 . S
O297 Zn294 2.031 . S
O297 C301 1.269 . S
O298 Zn295 1.986 . S
O298 C305 1.262 . S
O299 Zn294 2.049 . S
O299 C307 1.260 . S
O300 Zn295 1.996 . S
O300 C307 1.257 . S
C301 O296 1.254 . S
C301 O297 1.269 . S
C302 O303 1.249 . S
C302 O304 1.270 . S
O303 Zn295 1.943 . S
O303 C302 1.249 . S
O304 Zn294 2.067 . S
O304 C302 1.270 . S
C305 O298 1.262 . S
C305 O306 1.232 . S
O306 C305 1.232 . S
C307 O299 1.260 . S
C307 O300 1.257 . S
Zn308 O311 2.031 . S
Zn308 O313 2.049 . S
Zn308 O318 2.067 . S
Zn309 O310 1.962 . S
Zn309 O312 1.986 . S
Zn309 O314 1.996 . S
Zn309 O317 1.943 . S
O310 Zn309 1.962 . S
O310 C315 1.254 . S
O311 Zn308 2.031 . S
O311 C315 1.269 . S
O312 Zn309 1.986 . S
O312 C319 1.262 . S
O313 Zn308 2.049 . S
O313 C321 1.260 . S
O314 Zn309 1.996 . S
O314 C321 1.257 . S
C315 O310 1.254 . S
C315 O311 1.269 . S
C316 O317 1.249 . S
C316 O318 1.270 . S
O317 Zn309 1.943 . S
O317 C316 1.249 . S
O318 Zn308 2.067 . S
O318 C316 1.270 . S
C319 O312 1.262 . S
C319 O320 1.232 . S
O320 C319 1.232 . S
C321 O313 1.260 . S
C321 O314 1.257 . S
Zn322 O325 2.031 . S
Zn322 O327 2.049 . S
Zn322 O332 2.067 . S
Zn323 O324 1.962 . S
Zn323 O326 1.986 . S
Zn323 O328 1.996 . S
Zn323 O331 1.943 . S
O324 Zn323 1.962 . S
O324 C329 1.254 . S
O325 Zn322 2.031 . S
O325 C329 1.269 . S
O326 Zn323 1.986 . S
O326 C333 1.262 . S
O327 Zn322 2.049 . S
O327 C335 1.260 . S
O328 Zn323 1.996 . S
O328 C335 1.257 . S
C329 O324 1.254 . S
C329 O325 1.269 . S
C330 O331 1.249 . S
C330 O332 1.270 . S
O331 Zn323 1.943 . S
O331 C330 1.249 . S
O332 Zn322 2.067 . S
O332 C330 1.270 . S
C333 O326 1.262 . S
C333 O334 1.232 . S
O334 C333 1.232 . S
C335 O327 1.260 . S
C335 O328 1.257 . S
C336 C337 1.369 . S
C336 C338 1.419 . S
C336 H340 0.930 . S
C337 C336 1.369 . S
C337 C346 1.429 . S
C338 C336 1.419 . S
C338 C339 1.363 . S
C338 H341 0.929 . S
C339 C338 1.363 . S
C339 C345 1.428 . S
H340 C336 0.930 . S
H341 C338 0.929 . S
S342 N343 1.613 . S
S342 N344 1.610 . S
N343 S342 1.613 . S
N343 C346 1.350 . S
N344 S342 1.610 . S
N344 C345 1.351 . S
C345 C339 1.428 . S
C345 N344 1.351 . S
C345 C346 1.434 . S
C346 C337 1.429 . S
C346 N343 1.350 . S
C346 C345 1.434 . S
C347 C348 1.369 . S
C347 C349 1.419 . S
C347 H351 0.930 . S
C348 C347 1.369 . S
C348 C357 1.429 . S
C349 C347 1.419 . S
C349 C350 1.363 . S
C349 H352 0.929 . S
C350 C349 1.363 . S
C350 C356 1.428 . S
H351 C347 0.930 . S
H352 C349 0.929 . S
S353 N354 1.613 . S
S353 N355 1.610 . S
N354 S353 1.613 . S
N354 C357 1.350 . S
N355 S353 1.610 . S
N355 C356 1.351 . S
C356 C350 1.428 . S
C356 N355 1.351 . S
C356 C357 1.434 . S
C357 C348 1.429 . S
C357 N354 1.350 . S
C357 C356 1.434 . S
C358 C359 1.369 . S
C358 C360 1.419 . S
C358 H362 0.930 . S
C359 C358 1.369 . S
C359 C368 1.429 . S
C360 C358 1.419 . S
C360 C361 1.363 . S
C360 H363 0.929 . S
C361 C360 1.363 . S
C361 C367 1.428 . S
H362 C358 0.930 . S
H363 C360 0.929 . S
S364 N365 1.613 . S
S364 N366 1.610 . S
N365 S364 1.613 . S
N365 C368 1.350 . S
N366 S364 1.610 . S
N366 C367 1.351 . S
C367 C361 1.428 . S
C367 N366 1.351 . S
C367 C368 1.434 . S
C368 C359 1.429 . S
C368 N365 1.350 . S
C368 C367 1.434 . S
C369 C370 1.369 . S
C369 C371 1.419 . S
C369 H373 0.930 . S
C370 C369 1.369 . S
C370 C379 1.429 . S
C371 C369 1.419 . S
C371 C372 1.363 . S
C371 H374 0.929 . S
C372 C371 1.363 . S
C372 C378 1.428 . S
H373 C369 0.930 . S
H374 C371 0.929 . S
S375 N376 1.613 . S
S375 N377 1.610 . S
N376 S375 1.613 . S
N376 C379 1.350 . S
N377 S375 1.610 . S
N377 C378 1.351 . S
C378 C372 1.428 . S
C378 N377 1.351 . S
C378 C379 1.434 . S
C379 C370 1.429 . S
C379 N376 1.350 . S
C379 C378 1.434 . S
C380 C381 1.369 . S
C380 C382 1.419 . S
C380 H384 0.930 . S
C381 C380 1.369 . S
C381 C390 1.429 . S
C382 C380 1.419 . S
C382 C383 1.363 . S
C382 H385 0.929 . S
C383 C382 1.363 . S
C383 C389 1.428 . S
H384 C380 0.930 . S
H385 C382 0.929 . S
S386 N387 1.613 . S
S386 N388 1.610 . S
N387 S386 1.613 . S
N387 C390 1.350 . S
N388 S386 1.610 . S
N388 C389 1.351 . S
C389 C383 1.428 . S
C389 N388 1.351 . S
C389 C390 1.434 . S
C390 C381 1.429 . S
C390 N387 1.350 . S
C390 C389 1.434 . S
C391 C392 1.369 . S
C391 C393 1.419 . S
C391 H395 0.930 . S
C392 C391 1.369 . S
C392 C401 1.429 . S
C393 C391 1.419 . S
C393 C394 1.363 . S
C393 H396 0.929 . S
C394 C393 1.363 . S
C394 C400 1.428 . S
H395 C391 0.930 . S
H396 C393 0.929 . S
S397 N398 1.613 . S
S397 N399 1.610 . S
N398 S397 1.613 . S
N398 C401 1.350 . S
N399 S397 1.610 . S
N399 C400 1.351 . S
C400 C394 1.428 . S
C400 N399 1.351 . S
C400 C401 1.434 . S
C401 C392 1.429 . S
C401 N398 1.350 . S
C401 C400 1.434 . S
C402 C403 1.369 . S
C402 C404 1.419 . S
C402 H406 0.930 . S
C403 C402 1.369 . S
C403 C412 1.429 . S
C404 C402 1.419 . S
C404 C405 1.363 . S
C404 H407 0.929 . S
C405 C404 1.363 . S
C405 C411 1.428 . S
H406 C402 0.930 . S
H407 C404 0.929 . S
S408 N409 1.613 . S
S408 N410 1.610 . S
N409 S408 1.613 . S
N409 C412 1.350 . S
N410 S408 1.610 . S
N410 C411 1.351 . S
C411 C405 1.428 . S
C411 N410 1.351 . S
C411 C412 1.434 . S
C412 C403 1.429 . S
C412 N409 1.350 . S
C412 C411 1.434 . S
C413 C414 1.369 . S
C413 C415 1.419 . S
C413 H417 0.930 . S
C414 C413 1.369 . S
C414 C423 1.429 . S
C415 C413 1.419 . S
C415 C416 1.363 . S
C415 H418 0.929 . S
C416 C415 1.363 . S
C416 C422 1.428 . S
H417 C413 0.930 . S
H418 C415 0.929 . S
S419 N420 1.613 . S
S419 N421 1.610 . S
N420 S419 1.613 . S
N420 C423 1.350 . S
N421 S419 1.610 . S
N421 C422 1.351 . S
C422 C416 1.428 . S
C422 N421 1.351 . S
C422 C423 1.434 . S
C423 C414 1.429 . S
C423 N420 1.350 . S
C423 C422 1.434 . S
C424 C425 1.369 . S
C424 C426 1.419 . S
C424 H428 0.930 . S
C425 C424 1.369 . S
C425 C434 1.429 . S
C426 C424 1.419 . S
C426 C427 1.363 . S
C426 H429 0.929 . S
C427 C426 1.363 . S
C427 C433 1.428 . S
H428 C424 0.930 . S
H429 C426 0.929 . S
S430 N431 1.613 . S
S430 N432 1.610 . S
N431 S430 1.613 . S
N431 C434 1.350 . S
N432 S430 1.610 . S
N432 C433 1.351 . S
C433 C427 1.428 . S
C433 N432 1.351 . S
C433 C434 1.434 . S
C434 C425 1.429 . S
C434 N431 1.350 . S
C434 C433 1.434 . S
C435 C436 1.369 . S
C435 C437 1.419 . S
C435 H439 0.930 . S
C436 C435 1.369 . S
C436 C445 1.429 . S
C437 C435 1.419 . S
C437 C438 1.363 . S
C437 H440 0.929 . S
C438 C437 1.363 . S
C438 C444 1.428 . S
H439 C435 0.930 . S
H440 C437 0.929 . S
S441 N442 1.613 . S
S441 N443 1.610 . S
N442 S441 1.613 . S
N442 C445 1.350 . S
N443 S441 1.610 . S
N443 C444 1.351 . S
C444 C438 1.428 . S
C444 N443 1.351 . S
C444 C445 1.434 . S
C445 C436 1.429 . S
C445 N442 1.350 . S
C445 C444 1.434 . S
C446 C447 1.369 . S
C446 C448 1.419 . S
C446 H450 0.930 . S
C447 C446 1.369 . S
C447 C456 1.429 . S
C448 C446 1.419 . S
C448 C449 1.363 . S
C448 H451 0.929 . S
C449 C448 1.363 . S
C449 C455 1.428 . S
H450 C446 0.930 . S
H451 C448 0.929 . S
S452 N453 1.613 . S
S452 N454 1.610 . S
N453 S452 1.613 . S
N453 C456 1.350 . S
N454 S452 1.610 . S
N454 C455 1.351 . S
C455 C449 1.428 . S
C455 N454 1.351 . S
C455 C456 1.434 . S
C456 C447 1.429 . S
C456 N453 1.350 . S
C456 C455 1.434 . S
C457 C458 1.369 . S
C457 C459 1.419 . S
C457 H461 0.930 . S
C458 C457 1.369 . S
C458 C467 1.429 . S
C459 C457 1.419 . S
C459 C460 1.363 . S
C459 H462 0.929 . S
C460 C459 1.363 . S
C460 C466 1.428 . S
H461 C457 0.930 . S
H462 C459 0.929 . S
S463 N464 1.613 . S
S463 N465 1.610 . S
N464 S463 1.613 . S
N464 C467 1.350 . S
N465 S463 1.610 . S
N465 C466 1.351 . S
C466 C460 1.428 . S
C466 N465 1.351 . S
C466 C467 1.434 . S
C467 C458 1.429 . S
C467 N464 1.350 . S
C467 C466 1.434 . S
C468 C469 1.369 . S
C468 C470 1.419 . S
C468 H472 0.930 . S
C469 C468 1.369 . S
C469 C478 1.429 . S
C470 C468 1.419 . S
C470 C471 1.363 . S
C470 H473 0.929 . S
C471 C470 1.363 . S
C471 C477 1.428 . S
H472 C468 0.930 . S
H473 C470 0.929 . S
S474 N475 1.613 . S
S474 N476 1.610 . S
N475 S474 1.613 . S
N475 C478 1.350 . S
N476 S474 1.610 . S
N476 C477 1.351 . S
C477 C471 1.428 . S
C477 N476 1.351 . S
C477 C478 1.434 . S
C478 C469 1.429 . S
C478 N475 1.350 . S
C478 C477 1.434 . S
C479 C480 1.369 . S
C479 C481 1.419 . S
C479 H483 0.930 . S
C480 C479 1.369 . S
C480 C489 1.429 . S
C481 C479 1.419 . S
C481 C482 1.363 . S
C481 H484 0.929 . S
C482 C481 1.363 . S
C482 C488 1.428 . S
H483 C479 0.930 . S
H484 C481 0.929 . S
S485 N486 1.613 . S
S485 N487 1.610 . S
N486 S485 1.613 . S
N486 C489 1.350 . S
N487 S485 1.610 . S
N487 C488 1.351 . S
C488 C482 1.428 . S
C488 N487 1.351 . S
C488 C489 1.434 . S
C489 C480 1.429 . S
C489 N486 1.350 . S
C489 C488 1.434 . S
C490 C491 1.369 . S
C490 C492 1.419 . S
C490 H494 0.930 . S
C491 C490 1.369 . S
C491 C500 1.429 . S
C492 C490 1.419 . S
C492 C493 1.363 . S
C492 H495 0.929 . S
C493 C492 1.363 . S
C493 C499 1.428 . S
H494 C490 0.930 . S
H495 C492 0.929 . S
S496 N497 1.613 . S
S496 N498 1.610 . S
N497 S496 1.613 . S
N497 C500 1.350 . S
N498 S496 1.610 . S
N498 C499 1.351 . S
C499 C493 1.428 . S
C499 N498 1.351 . S
C499 C500 1.434 . S
C500 C491 1.429 . S
C500 N497 1.350 . S
C500 C499 1.434 . S
C501 C502 1.369 . S
C501 C503 1.419 . S
C501 H505 0.930 . S
C502 C501 1.369 . S
C502 C511 1.429 . S
C503 C501 1.419 . S
C503 C504 1.363 . S
C503 H506 0.929 . S
C504 C503 1.363 . S
C504 C510 1.428 . S
H505 C501 0.930 . S
H506 C503 0.929 . S
S507 N508 1.613 . S
S507 N509 1.610 . S
N508 S507 1.613 . S
N508 C511 1.350 . S
N509 S507 1.610 . S
N509 C510 1.351 . S
C510 C504 1.428 . S
C510 N509 1.351 . S
C510 C511 1.434 . S
C511 C502 1.429 . S
C511 N508 1.350 . S
C511 C510 1.434 . S
C512 C513 1.369 . S
C512 C514 1.419 . S
C512 H516 0.930 . S
C513 C512 1.369 . S
C513 C522 1.429 . S
C514 C512 1.419 . S
C514 C515 1.363 . S
C514 H517 0.929 . S
C515 C514 1.363 . S
C515 C521 1.428 . S
H516 C512 0.930 . S
H517 C514 0.929 . S
S518 N519 1.613 . S
S518 N520 1.610 . S
N519 S518 1.613 . S
N519 C522 1.350 . S
N520 S518 1.610 . S
N520 C521 1.351 . S
C521 C515 1.428 . S
C521 N520 1.351 . S
C521 C522 1.434 . S
C522 C513 1.429 . S
C522 N519 1.350 . S
C522 C521 1.434 . S
C523 C524 1.369 . S
C523 C525 1.419 . S
C523 H527 0.930 . S
C524 C523 1.369 . S
C524 C533 1.429 . S
C525 C523 1.419 . S
C525 C526 1.363 . S
C525 H528 0.929 . S
C526 C525 1.363 . S
C526 C532 1.428 . S
H527 C523 0.930 . S
H528 C525 0.929 . S
S529 N530 1.613 . S
S529 N531 1.610 . S
N530 S529 1.613 . S
N530 C533 1.350 . S
N531 S529 1.610 . S
N531 C532 1.351 . S
C532 C526 1.428 . S
C532 N531 1.351 . S
C532 C533 1.434 . S
C533 C524 1.429 . S
C533 N530 1.350 . S
C533 C532 1.434 . S
C534 C535 1.369 . S
C534 C536 1.419 . S
C534 H538 0.930 . S
C535 C534 1.369 . S
C535 C544 1.429 . S
C536 C534 1.419 . S
C536 C537 1.363 . S
C536 H539 0.929 . S
C537 C536 1.363 . S
C537 C543 1.428 . S
H538 C534 0.930 . S
H539 C536 0.929 . S
S540 N541 1.613 . S
S540 N542 1.610 . S
N541 S540 1.613 . S
N541 C544 1.350 . S
N542 S540 1.610 . S
N542 C543 1.351 . S
C543 C537 1.428 . S
C543 N542 1.351 . S
C543 C544 1.434 . S
C544 C535 1.429 . S
C544 N541 1.350 . S
C544 C543 1.434 . S
C545 C546 1.369 . S
C545 C547 1.419 . S
C545 H549 0.930 . S
C546 C545 1.369 . S
C546 C555 1.429 . S
C547 C545 1.419 . S
C547 C548 1.363 . S
C547 H550 0.929 . S
C548 C547 1.363 . S
C548 C554 1.428 . S
H549 C545 0.930 . S
H550 C547 0.929 . S
S551 N552 1.613 . S
S551 N553 1.610 . S
N552 S551 1.613 . S
N552 C555 1.350 . S
N553 S551 1.610 . S
N553 C554 1.351 . S
C554 C548 1.428 . S
C554 N553 1.351 . S
C554 C555 1.434 . S
C555 C546 1.429 . S
C555 N552 1.350 . S
C555 C554 1.434 . S
C556 C557 1.369 . S
C556 C558 1.419 . S
C556 H560 0.930 . S
C557 C556 1.369 . S
C557 C566 1.429 . S
C558 C556 1.419 . S
C558 C559 1.363 . S
C558 H561 0.929 . S
C559 C558 1.363 . S
C559 C565 1.428 . S
H560 C556 0.930 . S
H561 C558 0.929 . S
S562 N563 1.613 . S
S562 N564 1.610 . S
N563 S562 1.613 . S
N563 C566 1.350 . S
N564 S562 1.610 . S
N564 C565 1.351 . S
C565 C559 1.428 . S
C565 N564 1.351 . S
C565 C566 1.434 . S
C566 C557 1.429 . S
C566 N563 1.350 . S
C566 C565 1.434 . S
C567 C568 1.369 . S
C567 C569 1.419 . S
C567 H571 0.930 . S
C568 C567 1.369 . S
C568 C577 1.429 . S
C569 C567 1.419 . S
C569 C570 1.363 . S
C569 H572 0.929 . S
C570 C569 1.363 . S
C570 C576 1.428 . S
H571 C567 0.930 . S
H572 C569 0.929 . S
S573 N574 1.613 . S
S573 N575 1.610 . S
N574 S573 1.613 . S
N574 C577 1.350 . S
N575 S573 1.610 . S
N575 C576 1.351 . S
C576 C570 1.428 . S
C576 N575 1.351 . S
C576 C577 1.434 . S
C577 C568 1.429 . S
C577 N574 1.350 . S
C577 C576 1.434 . S
C578 C579 1.369 . S
C578 C580 1.419 . S
C578 H582 0.930 . S
C579 C578 1.369 . S
C579 C588 1.429 . S
C580 C578 1.419 . S
C580 C581 1.363 . S
C580 H583 0.929 . S
C581 C580 1.363 . S
C581 C587 1.428 . S
H582 C578 0.930 . S
H583 C580 0.929 . S
S584 N585 1.613 . S
S584 N586 1.610 . S
N585 S584 1.613 . S
N585 C588 1.350 . S
N586 S584 1.610 . S
N586 C587 1.351 . S
C587 C581 1.428 . S
C587 N586 1.351 . S
C587 C588 1.434 . S
C588 C579 1.429 . S
C588 N585 1.350 . S
C588 C587 1.434 . S
C589 C590 1.369 . S
C589 C591 1.419 . S
C589 H593 0.930 . S
C590 C589 1.369 . S
C590 C599 1.429 . S
C591 C589 1.419 . S
C591 C592 1.363 . S
C591 H594 0.929 . S
C592 C591 1.363 . S
C592 C598 1.428 . S
H593 C589 0.930 . S
H594 C591 0.929 . S
S595 N596 1.613 . S
S595 N597 1.610 . S
N596 S595 1.613 . S
N596 C599 1.350 . S
N597 S595 1.610 . S
N597 C598 1.351 . S
C598 C592 1.428 . S
C598 N597 1.351 . S
C598 C599 1.434 . S
C599 C590 1.429 . S
C599 N596 1.350 . S
C599 C598 1.434 . S
C600 C601 1.369 . S
C600 C602 1.419 . S
C600 H604 0.930 . S
C601 C600 1.369 . S
C601 C610 1.429 . S
C602 C600 1.419 . S
C602 C603 1.363 . S
C602 H605 0.929 . S
C603 C602 1.363 . S
C603 C609 1.428 . S
H604 C600 0.930 . S
H605 C602 0.929 . S
S606 N607 1.613 . S
S606 N608 1.610 . S
N607 S606 1.613 . S
N607 C610 1.350 . S
N608 S606 1.610 . S
N608 C609 1.351 . S
C609 C603 1.428 . S
C609 N608 1.351 . S
C609 C610 1.434 . S
C610 C601 1.429 . S
C610 N607 1.350 . S
C610 C609 1.434 . S
C611 C612 1.369 . S
C611 C613 1.419 . S
C611 H615 0.930 . S
C612 C611 1.369 . S
C612 C621 1.429 . S
C613 C611 1.419 . S
C613 C614 1.363 . S
C613 H616 0.929 . S
C614 C613 1.363 . S
C614 C620 1.428 . S
H615 C611 0.930 . S
H616 C613 0.929 . S
S617 N618 1.613 . S
S617 N619 1.610 . S
N618 S617 1.613 . S
N618 C621 1.350 . S
N619 S617 1.610 . S
N619 C620 1.351 . S
C620 C614 1.428 . S
C620 N619 1.351 . S
C620 C621 1.434 . S
C621 C612 1.429 . S
C621 N618 1.350 . S
C621 C620 1.434 . S
C622 C623 1.369 . S
C622 C624 1.419 . S
C622 H626 0.930 . S
C623 C622 1.369 . S
C623 C632 1.429 . S
C624 C622 1.419 . S
C624 C625 1.363 . S
C624 H627 0.929 . S
C625 C624 1.363 . S
C625 C631 1.428 . S
H626 C622 0.930 . S
H627 C624 0.929 . S
S628 N629 1.613 . S
S628 N630 1.610 . S
N629 S628 1.613 . S
N629 C632 1.350 . S
N630 S628 1.610 . S
N630 C631 1.351 . S
C631 C625 1.428 . S
C631 N630 1.351 . S
C631 C632 1.434 . S
C632 C623 1.429 . S
C632 N629 1.350 . S
C632 C631 1.434 . S
C633 C634 1.369 . S
C633 C635 1.419 . S
C633 H637 0.930 . S
C634 C633 1.369 . S
C634 C643 1.429 . S
C635 C633 1.419 . S
C635 C636 1.363 . S
C635 H638 0.929 . S
C636 C635 1.363 . S
C636 C642 1.428 . S
H637 C633 0.930 . S
H638 C635 0.929 . S
S639 N640 1.613 . S
S639 N641 1.610 . S
N640 S639 1.613 . S
N640 C643 1.350 . S
N641 S639 1.610 . S
N641 C642 1.351 . S
C642 C636 1.428 . S
C642 N641 1.351 . S
C642 C643 1.434 . S
C643 C634 1.429 . S
C643 N640 1.350 . S
C643 C642 1.434 . S
C644 C645 1.369 . S
C644 C646 1.419 . S
C644 H648 0.930 . S
C645 C644 1.369 . S
C645 C654 1.429 . S
C646 C644 1.419 . S
C646 C647 1.363 . S
C646 H649 0.929 . S
C647 C646 1.363 . S
C647 C653 1.428 . S
H648 C644 0.930 . S
H649 C646 0.929 . S
S650 N651 1.613 . S
S650 N652 1.610 . S
N651 S650 1.613 . S
N651 C654 1.350 . S
N652 S650 1.610 . S
N652 C653 1.351 . S
C653 C647 1.428 . S
C653 N652 1.351 . S
C653 C654 1.434 . S
C654 C645 1.429 . S
C654 N651 1.350 . S
C654 C653 1.434 . S
C655 C656 1.369 . S
C655 C657 1.419 . S
C655 H659 0.930 1_455 S
C656 C655 1.369 . S
C656 C665 1.429 . S
C657 C655 1.419 . S
C657 C658 1.363 . S
C657 H660 0.929 . S
C658 C657 1.363 . S
C658 C664 1.428 . S
H659 C655 0.930 1_655 S
H660 C657 0.929 . S
S661 N662 1.613 . S
S661 N663 1.610 . S
N662 S661 1.613 . S
N662 C665 1.350 . S
N663 S661 1.610 . S
N663 C664 1.351 . S
C664 C658 1.428 . S
C664 N663 1.351 . S
C664 C665 1.434 . S
C665 C656 1.429 . S
C665 N662 1.350 . S
C665 C664 1.434 . S
C666 C667 1.369 . S
C666 C668 1.419 . S
C666 H670 0.930 . S
C667 C666 1.369 . S
C667 C676 1.429 . S
C668 C666 1.419 . S
C668 C669 1.363 . S
C668 H671 0.929 . S
C669 C668 1.363 . S
C669 C675 1.428 . S
H670 C666 0.930 . S
H671 C668 0.929 . S
S672 N673 1.613 . S
S672 N674 1.610 . S
N673 S672 1.613 . S
N673 C676 1.350 . S
N674 S672 1.610 . S
N674 C675 1.351 . S
C675 C669 1.428 . S
C675 N674 1.351 . S
C675 C676 1.434 . S
C676 C667 1.429 . S
C676 N673 1.350 . S
C676 C675 1.434 . S
C677 C678 1.369 . S
C677 C679 1.419 . S
C677 H681 0.930 . S
C678 C677 1.369 . S
C678 C687 1.429 . S
C679 C677 1.419 . S
C679 C680 1.363 . S
C679 H682 0.929 . S
C680 C679 1.363 . S
C680 C686 1.428 . S
H681 C677 0.930 . S
H682 C679 0.929 . S
S683 N684 1.613 . S
S683 N685 1.610 . S
N684 S683 1.613 . S
N684 C687 1.350 . S
N685 S683 1.610 . S
N685 C686 1.351 . S
C686 C680 1.428 . S
C686 N685 1.351 . S
C686 C687 1.434 . S
C687 C678 1.429 . S
C687 N684 1.350 . S
C687 C686 1.434 . S
C688 C689 1.369 . S
C688 C690 1.419 . S
C688 H692 0.930 . S
C689 C688 1.369 . S
C689 C698 1.429 . S
C690 C688 1.419 . S
C690 C691 1.363 . S
C690 H693 0.929 . S
C691 C690 1.363 . S
C691 C697 1.428 . S
H692 C688 0.930 . S
H693 C690 0.929 . S
S694 N695 1.613 . S
S694 N696 1.610 . S
N695 S694 1.613 . S
N695 C698 1.350 . S
N696 S694 1.610 . S
N696 C697 1.351 . S
C697 C691 1.428 . S
C697 N696 1.351 . S
C697 C698 1.434 . S
C698 C689 1.429 . S
C698 N695 1.350 . S
C698 C697 1.434 . S
C699 C700 1.369 . S
C699 C701 1.419 . S
C699 H703 0.930 . S
C700 C699 1.369 . S
C700 C709 1.429 . S
C701 C699 1.419 . S
C701 C702 1.363 . S
C701 H704 0.929 . S
C702 C701 1.363 . S
C702 C708 1.428 . S
H703 C699 0.930 . S
H704 C701 0.929 . S
S705 N706 1.613 . S
S705 N707 1.610 . S
N706 S705 1.613 . S
N706 C709 1.350 . S
N707 S705 1.610 . S
N707 C708 1.351 . S
C708 C702 1.428 . S
C708 N707 1.351 . S
C708 C709 1.434 . S
C709 C700 1.429 . S
C709 N706 1.350 . S
C709 C708 1.434 . S
C710 C711 1.369 . S
C710 C712 1.419 . S
C710 H714 0.930 . S
C711 C710 1.369 . S
C711 C720 1.429 . S
C712 C710 1.419 . S
C712 C713 1.363 . S
C712 H715 0.929 . S
C713 C712 1.363 . S
C713 C719 1.428 . S
H714 C710 0.930 . S
H715 C712 0.929 . S
S716 N717 1.613 1_565 S
S716 N718 1.610 . S
N717 S716 1.613 1_545 S
N717 C720 1.350 1_545 S
N718 S716 1.610 . S
N718 C719 1.351 . S
C719 C713 1.428 . S
C719 N718 1.351 . S
C719 C720 1.434 . S
C720 C711 1.429 . S
C720 N717 1.350 1_565 S
C720 C719 1.434 . S
C721 C722 1.369 . S
C721 C723 1.419 . S
C721 H725 0.930 . S
C722 C721 1.369 . S
C722 C731 1.429 . S
C723 C721 1.419 . S
C723 C724 1.363 . S
C723 H726 0.929 . S
C724 C723 1.363 . S
C724 C730 1.428 . S
H725 C721 0.930 . S
H726 C723 0.929 . S
S727 N728 1.613 . S
S727 N729 1.610 . S
N728 S727 1.613 . S
N728 C731 1.350 . S
N729 S727 1.610 . S
N729 C730 1.351 . S
C730 C724 1.428 . S
C730 N729 1.351 . S
C730 C731 1.434 . S
C731 C722 1.429 . S
C731 N728 1.350 . S
C731 C730 1.434 . S
C732 C733 1.369 . S
C732 C734 1.419 . S
C732 H736 0.930 . S
C733 C732 1.369 . S
C733 C742 1.429 . S
C734 C732 1.419 . S
C734 C735 1.363 . S
C734 H737 0.929 . S
C735 C734 1.363 . S
C735 C741 1.428 . S
H736 C732 0.930 . S
H737 C734 0.929 . S
S738 N739 1.613 . S
S738 N740 1.610 . S
N739 S738 1.613 . S
N739 C742 1.350 . S
N740 S738 1.610 . S
N740 C741 1.351 . S
C741 C735 1.428 . S
C741 N740 1.351 . S
C741 C742 1.434 . S
C742 C733 1.429 . S
C742 N739 1.350 . S
C742 C741 1.434 . S
C743 C744 1.369 . S
C743 C745 1.419 . S
C743 H747 0.930 . S
C744 C743 1.369 . S
C744 C753 1.429 . S
C745 C743 1.419 . S
C745 C746 1.363 . S
C745 H748 0.929 . S
C746 C745 1.363 . S
C746 C752 1.428 . S
H747 C743 0.930 . S
H748 C745 0.929 . S
S749 N750 1.613 . S
S749 N751 1.610 . S
N750 S749 1.613 . S
N750 C753 1.350 . S
N751 S749 1.610 . S
N751 C752 1.351 . S
C752 C746 1.428 . S
C752 N751 1.351 . S
C752 C753 1.434 . S
C753 C744 1.429 . S
C753 N750 1.350 . S
C753 C752 1.434 . S
C754 C755 1.369 . S
C754 C756 1.419 . S
C754 H758 0.930 . S
C755 C754 1.369 . S
C755 C764 1.429 . S
C756 C754 1.419 . S
C756 C757 1.363 . S
C756 H759 0.929 . S
C757 C756 1.363 . S
C757 C763 1.428 . S
H758 C754 0.930 . S
H759 C756 0.929 . S
S760 N761 1.613 . S
S760 N762 1.610 . S
N761 S760 1.613 . S
N761 C764 1.350 . S
N762 S760 1.610 . S
N762 C763 1.351 . S
C763 C757 1.428 . S
C763 N762 1.351 . S
C763 C764 1.434 . S
C764 C755 1.429 . S
C764 N761 1.350 . S
C764 C763 1.434 . S
C765 C766 1.369 . S
C765 C767 1.419 . S
C765 H769 0.930 . S
C766 C765 1.369 . S
C766 C775 1.429 . S
C767 C765 1.419 . S
C767 C768 1.363 . S
C767 H770 0.929 . S
C768 C767 1.363 . S
C768 C774 1.428 . S
H769 C765 0.930 . S
H770 C767 0.929 . S
S771 N772 1.613 . S
S771 N773 1.610 . S
N772 S771 1.613 . S
N772 C775 1.350 . S
N773 S771 1.610 . S
N773 C774 1.351 . S
C774 C768 1.428 . S
C774 N773 1.351 . S
C774 C775 1.434 . S
C775 C766 1.429 . S
C775 N772 1.350 . S
C775 C774 1.434 . S
C776 C777 1.369 . S
C776 C778 1.419 . S
C776 H780 0.930 . S
C777 C776 1.369 . S
C777 C786 1.429 . S
C778 C776 1.419 . S
C778 C779 1.363 . S
C778 H781 0.929 . S
C779 C778 1.363 . S
C779 C785 1.428 . S
H780 C776 0.930 . S
H781 C778 0.929 . S
S782 N783 1.613 . S
S782 N784 1.610 . S
N783 S782 1.613 . S
N783 C786 1.350 . S
N784 S782 1.610 . S
N784 C785 1.351 . S
C785 C779 1.428 . S
C785 N784 1.351 . S
C785 C786 1.434 . S
C786 C777 1.429 . S
C786 N783 1.350 . S
C786 C785 1.434 . S
C787 C788 1.369 . S
C787 C789 1.419 . S
C787 H791 0.930 . S
C788 C787 1.369 . S
C788 C797 1.429 . S
C789 C787 1.419 . S
C789 C790 1.363 . S
C789 H792 0.929 . S
C790 C789 1.363 . S
C790 C796 1.428 . S
H791 C787 0.930 . S
H792 C789 0.929 . S
S793 N794 1.613 . S
S793 N795 1.610 1_655 S
N794 S793 1.613 . S
N794 C797 1.350 . S
N795 S793 1.610 1_455 S
N795 C796 1.351 1_455 S
C796 C790 1.428 . S
C796 N795 1.351 1_655 S
C796 C797 1.434 . S
C797 C788 1.429 . S
C797 N794 1.350 . S
C797 C796 1.434 . S
C798 C799 1.369 . S
C798 C800 1.419 . S
C798 H802 0.930 . S
C799 C798 1.369 . S
C799 C808 1.429 . S
C800 C798 1.419 . S
C800 C801 1.363 . S
C800 H803 0.929 1_455 S
C801 C800 1.363 . S
C801 C807 1.428 . S
H802 C798 0.930 . S
H803 C800 0.929 1_655 S
S804 N805 1.613 . S
S804 N806 1.610 . S
N805 S804 1.613 . S
N805 C808 1.350 . S
N806 S804 1.610 . S
N806 C807 1.351 . S
C807 C801 1.428 . S
C807 N806 1.351 . S
C807 C808 1.434 . S
C808 C799 1.429 . S
C808 N805 1.350 . S
C808 C807 1.434 . S
C809 C810 1.369 . S
C809 C811 1.419 . S
C809 H813 0.930 . S
C810 C809 1.369 . S
C810 C819 1.429 . S
C811 C809 1.419 . S
C811 C812 1.363 . S
C811 H814 0.929 . S
C812 C811 1.363 . S
C812 C818 1.428 . S
H813 C809 0.930 . S
H814 C811 0.929 . S
S815 N816 1.613 . S
S815 N817 1.610 . S
N816 S815 1.613 . S
N816 C819 1.350 . S
N817 S815 1.610 . S
N817 C818 1.351 . S
C818 C812 1.428 . S
C818 N817 1.351 . S
C818 C819 1.434 . S
C819 C810 1.429 . S
C819 N816 1.350 . S
C819 C818 1.434 . S
C820 C821 1.369 . S
C820 C822 1.419 . S
C820 H824 0.930 . S
C821 C820 1.369 . S
C821 C830 1.429 . S
C822 C820 1.419 . S
C822 C823 1.363 . S
C822 H825 0.929 . S
C823 C822 1.363 . S
C823 C829 1.428 . S
H824 C820 0.930 . S
H825 C822 0.929 . S
S826 N827 1.613 . S
S826 N828 1.610 . S
N827 S826 1.613 . S
N827 C830 1.350 . S
N828 S826 1.610 . S
N828 C829 1.351 . S
C829 C823 1.428 . S
C829 N828 1.351 . S
C829 C830 1.434 . S
C830 C821 1.429 . S
C830 N827 1.350 . S
C830 C829 1.434 . S
C831 C832 1.369 . S
C831 C833 1.419 . S
C831 H835 0.930 . S
C832 C831 1.369 . S
C832 C841 1.429 . S
C833 C831 1.419 . S
C833 C834 1.363 . S
C833 H836 0.929 . S
C834 C833 1.363 . S
C834 C840 1.428 . S
H835 C831 0.930 . S
H836 C833 0.929 . S
S837 N838 1.613 . S
S837 N839 1.610 1_565 S
N838 S837 1.613 . S
N838 C841 1.350 . S
N839 S837 1.610 1_545 S
N839 C840 1.351 1_545 S
C840 C834 1.428 . S
C840 N839 1.351 1_565 S
C840 C841 1.434 . S
C841 C832 1.429 . S
C841 N838 1.350 . S
C841 C840 1.434 . S
C842 C843 1.369 . S
C842 C844 1.419 . S
C842 H846 0.923 1_545 S
C843 C842 1.369 . S
C843 C852 1.429 . S
C844 C842 1.419 . S
C844 C845 1.363 . S
C844 H847 0.929 . S
C845 C844 1.363 . S
C845 C851 1.428 . S
H846 C842 0.923 1_565 S
H847 C844 0.929 . S
S848 N849 1.613 . S
S848 N850 1.610 . S
N849 S848 1.613 . S
N849 C852 1.350 . S
N850 S848 1.610 . S
N850 C851 1.351 . S
C851 C845 1.428 . S
C851 N850 1.351 . S
C851 C852 1.434 . S
C852 C843 1.429 . S
C852 N849 1.350 . S
C852 C851 1.434 . S
C853 C854 1.369 . S
C853 C855 1.419 . S
C853 H857 0.930 . S
C854 C853 1.369 . S
C854 C863 1.429 . S
C855 C853 1.419 . S
C855 C856 1.363 . S
C855 H858 0.929 . S
C856 C855 1.363 . S
C856 C862 1.428 . S
H857 C853 0.930 . S
H858 C855 0.929 . S
S859 N860 1.613 . S
S859 N861 1.610 . S
N860 S859 1.613 . S
N860 C863 1.350 . S
N861 S859 1.610 . S
N861 C862 1.351 . S
C862 C856 1.428 . S
C862 N861 1.351 . S
C862 C863 1.434 . S
C863 C854 1.429 . S
C863 N860 1.350 . S
C863 C862 1.434 . S
C337 C120 1.140 . S
C339 C7 1.196 . S
C348 C21 1.194 . S
C350 C162 1.140 . S
C359 C35 1.190 . S
C361 C134 1.153 . S
C370 C49 1.197 . S
C372 C148 1.147 . S
C381 C63 1.196 . S
C383 C8 1.138 . S
C392 C22 1.142 . S
C394 C77 1.186 . S
C403 C91 1.185 . S
C405 C36 1.141 . S
C414 C50 1.128 . S
C416 C105 1.194 . S
C425 C64 1.197 . S
C427 C119 1.245 . S
C436 C92 1.197 . S
C438 C133 1.245 . S
C447 C147 1.250 . S
C449 C106 1.205 . S
C458 C78 1.196 . S
C460 C161 1.245 . S
C469 C288 1.136 . S
C471 C175 1.193 . S
C480 C189 1.197 . S
C482 C330 1.135 . S
C491 C203 1.198 . S
C493 C302 1.135 . S
C502 C316 1.120 . S
C504 C217 1.198 . S
C513 C232 1.179 . S
C515 C176 1.200 . S
C524 C190 1.192 . S
C526 C246 1.185 . S
C535 C204 1.189 . S
C537 C260 1.186 . S
C546 C274 1.184 . S
C548 C218 1.191 . S
C557 C287 1.154 . S
C559 C231 1.201 . S
C568 C259 1.205 . S
C570 C301 1.150 . S
C579 C273 1.200 . S
C581 C315 1.145 . S
C590 C329 1.151 . S
C592 C245 1.200 . S
C601 C319 1.373 . S
C603 C13 1.316 . S
C612 C305 1.374 1_556 S
C614 C27 1.317 . S
C623 C333 1.376 . S
C625 C41 1.323 . S
C634 C55 1.325 . S
C636 C291 1.378 1_554 S
C645 C69 1.365 . S
C647 C193 1.422 . S
C656 C179 1.422 1_455 S
C658 C83 1.367 . S
C667 C221 1.425 1_655 S
C669 C97 1.372 . S
C678 C207 1.426 . S
C680 C111 1.375 . S
C689 C125 1.385 . S
C691 C265 1.343 . S
C700 C237 1.336 1_545 S
C702 C139 1.376 . S
C711 C251 1.341 1_565 S
C713 C153 1.384 . S
C722 C279 1.336 . S
C724 C167 1.383 . S
C733 C151 1.450 . S
C735 C181 1.374 . S
C744 C137 1.449 1_554 S
C746 C195 1.371 . S
C755 C209 1.365 . S
C757 C165 1.446 . S
C766 C123 1.449 1_556 S
C768 C223 1.374 . S
C777 C235 1.398 . S
C779 C25 1.428 . S
C788 C249 1.398 . S
C790 C11 1.429 1_655 S
C799 C263 1.390 . S
C801 C53 1.430 1_455 S
C810 C277 1.393 . S
C812 C39 1.429 . S
C821 C293 1.321 . S
C823 C95 1.381 . S
C832 C307 1.321 . S
C834 C67 1.382 1_565 S
C843 C81 1.380 1_545 S
C845 C321 1.311 . S
C854 C335 1.318 . S
C856 C109 1.383 . S
