# Generated by pormake.
# Topology snp, (6)-cn, num edge types: 1
# Building blocks:
#     Node 0, Type 0, BuildingBlock: BETGAK_clean_sbu_0, # of connection points: 6
#     Node 1, Type 0, BuildingBlock: BETGAK_clean_sbu_0, # of connection points: 6
#     Node 2, Type 0, BuildingBlock: BETGAK_clean_sbu_0, # of connection points: 6
#     Node 3, Type 0, BuildingBlock: BETGAK_clean_sbu_0, # of connection points: 6
#     Edge 4, Type (0, 0), BuildingBlock: OJICUG_clean_linker_0, # of connection points: 2
#     Edge 5, Type (0, 0), BuildingBlock: OJICUG_clean_linker_0, # of connection points: 2
#     Edge 6, Type (0, 0), BuildingBlock: OJICUG_clean_linker_0, # of connection points: 2
#     Edge 7, Type (0, 0), BuildingBlock: OJICUG_clean_linker_0, # of connection points: 2
#     Edge 8, Type (0, 0), BuildingBlock: OJICUG_clean_linker_0, # of connection points: 2
#     Edge 9, Type (0, 0), BuildingBlock: OJICUG_clean_linker_0, # of connection points: 2
#     Edge 10, Type (0, 0), BuildingBlock: OJICUG_clean_linker_0, # of connection points: 2
#     Edge 11, Type (0, 0), BuildingBlock: OJICUG_clean_linker_0, # of connection points: 2
#     Edge 12, Type (0, 0), BuildingBlock: OJICUG_clean_linker_0, # of connection points: 2
#     Edge 13, Type (0, 0), BuildingBlock: OJICUG_clean_linker_0, # of connection points: 2
#     Edge 14, Type (0, 0), BuildingBlock: OJICUG_clean_linker_0, # of connection points: 2
#     Edge 15, Type (0, 0), BuildingBlock: OJICUG_clean_linker_0, # of connection points: 2
# Relax obj value: 1.092
# Max RMSD: 0.174
# Mean RMSD: 0.174
data_MOF--net-snp--node1-BETGAK_clean_sbu_0--edge1-OJICUG_clean_linker_0
_symmetry_space_group_name_H-M    P1
_symmetry_Int_Tables_number       1
_symmetry_cell_setting            triclinic
loop_
_symmetry_equiv_pos_as_xyz
'x, y, z'
_cell_length_a     20.098975
_cell_length_b     20.038386
_cell_length_c     17.829916
_cell_angle_alpha  91.069347
_cell_angle_beta   89.978924
_cell_angle_gamma 87.020407
loop_
_atom_site_label
_atom_site_type_symbol
_atom_site_fract_x
_atom_site_fract_y
_atom_site_fract_z
_atom_type_partial_charge
La0 La 0.26216 0.09226 0.4864 0.0
La1 La 0.29028 0.96783 1.39222 0.0
C2 C 0.2228 0.19381 0.56111 0.0
C3 C 0.21749 0.26489 0.53983 0.0
C4 C 0.16967 0.28906 0.48783 0.0
C5 C 0.16538 0.35679 0.46929 0.0
C6 C 0.20916 0.40152 0.50182 0.0
C7 C 0.25883 0.37616 0.55105 0.0
C8 C 0.26255 0.309 0.57015 0.0
C9 C 0.38931 0.06508 0.45379 0.0
C10 C 0.23461 0.9479 0.55661 0.0
C11 C 0.35918 0.87839 1.32261 0.0
C12 C 0.42226 0.8755 1.28088 0.0
C13 C 0.44813 0.93312 1.25156 0.0
C14 C 0.50152 0.92754 1.2011 0.0
C15 C 0.52804 0.86396 1.17673 0.0
C16 C 0.50961 0.80811 1.21811 0.0
C17 C 0.45623 0.81376 1.26831 0.0
C18 C 0.16443 -0.00046 0.41079 0.0
C19 C 0.26086 0.11021 1.30926 0.0
O20 O 0.18226 0.15386 0.52772 0.0
O21 O 0.28336 0.16682 0.56588 0.0
O22 O 0.3608 0.12431 0.45749 0.0
O23 O 0.34703 0.02327 0.47084 0.0
O24 O 0.23541 0.014 0.56593 0.0
O25 O 0.25634 0.91755 0.49361 0.0
O26 O 0.30885 0.9125 1.29253 0.0
O27 O 0.36414 0.89029 0.39457 0.0
O28 O 0.18661 0.93846 0.3955 0.0
O29 O 0.21104 0.03787 0.40587 0.0
O30 O 0.28915 0.04797 1.30386 0.0
O31 O 0.24276 0.13555 1.37602 0.0
H32 H 0.13461 0.25611 0.46256 0.0
H33 H 0.12626 0.37466 0.43181 0.0
H34 H 0.29257 0.40886 0.57898 0.0
H35 H 0.30005 0.29182 0.61002 0.0
H36 H 0.4246 -0.01805 1.26408 0.0
H37 H 0.51677 0.97275 1.1756 0.0
H38 H 0.53085 0.75837 1.20633 0.0
H39 H 0.4389 0.76908 1.29365 0.0
La40 La -0.01804 0.27454 0.97353 0.0
La41 La 0.11036 0.29793 0.88844 0.0
C42 C 0.88268 0.23313 1.03947 0.0
C43 C 0.8138 0.22421 1.01337 0.0
C44 C 0.79861 0.17258 0.96244 0.0
C45 C 0.73251 0.16299 0.94188 0.0
C46 C 0.68038 0.20488 0.97164 0.0
C47 C 0.69651 0.25903 1.01871 0.0
C48 C 0.76222 0.26822 1.03962 0.0
C49 C 0.00661 0.40007 0.95162 0.0
C50 C 0.12589 0.24081 1.05243 0.0
C51 C 0.19712 0.36559 0.82786 0.0
C52 C 0.19577 0.4285 0.78696 0.0
C53 C 0.13635 0.46732 0.77829 0.0
C54 C 0.13443 0.52292 0.73195 0.0
C55 C 0.19078 0.53776 0.6892 0.0
C56 C 0.25231 0.50438 0.70789 0.0
C57 C 0.2544 0.44976 0.75544 0.0
C58 C 0.08147 0.17452 0.89816 0.0
C59 C 0.97003 0.28185 0.79623 0.0
O60 O 0.92957 0.19324 1.0097 0.0
O61 O 0.90058 0.29497 1.04562 0.0
O62 O 0.94761 0.37728 0.95202 0.0
O63 O 0.04892 0.35375 0.96743 0.0
O64 O 0.05951 0.24527 1.05739 0.0
O65 O 0.1578 0.2601 0.99182 0.0
O66 O 0.16998 0.31495 0.79429 0.0
O67 O 0.17986 0.37156 0.89835 0.0
O68 O 0.14289 0.1914 0.88922 0.0
O69 O 0.04244 0.2245 0.8932 0.0
O70 O 0.03304 0.30187 0.7957 0.0
O71 O 0.94148 0.26549 0.85995 0.0
H72 H 0.83735 0.13815 0.94033 0.0
H73 H 0.72181 0.12061 0.90609 0.0
H74 H 0.65798 0.2916 1.04448 0.0
H75 H 0.77239 0.30859 1.07855 0.0
H76 H 0.09074 0.45267 0.80412 0.0
H77 H 0.08709 0.54981 0.72387 0.0
H78 H 0.29828 0.51515 0.68017 0.0
H79 H 0.30129 0.42175 0.76393 0.0
La80 La 0.8066 -0.00406 0.48434 0.0
La81 La 0.76561 0.11993 0.39605 0.0
C82 C 0.85402 0.8964 0.55247 0.0
C83 C 0.85276 0.82449 0.53223 0.0
C84 C 0.89427 0.79548 0.47535 0.0
C85 C 0.89188 0.72749 0.45649 0.0
C86 C 0.84759 0.68729 0.49359 0.0
C87 C 0.80476 0.7172 0.5487 0.0
C88 C 0.80766 0.78465 0.56804 0.0
C89 C 0.67721 0.0193 0.46476 0.0
C90 C 0.83248 0.14264 0.55512 0.0
C91 C 0.68714 0.2038 1.33376 0.0
C92 C 0.62929 0.20066 1.28405 0.0
C93 C 0.59457 0.142 1.27574 0.0
C94 C 0.54765 0.13633 1.21833 0.0
C95 C 0.53744 0.18798 1.16624 0.0
C96 C 0.56498 0.25011 1.18303 0.0
C97 C 0.61106 0.25594 1.24082 0.0
C98 C 0.89271 0.09299 0.40291 0.0
C99 C 0.79535 0.97569 1.30769 0.0
O100 O 0.88961 0.93264 0.50912 0.0
O101 O 0.79655 0.9267 0.57016 0.0
O102 O 0.70687 0.96056 0.46419 0.0
O103 O 0.71951 0.06216 0.47883 0.0
O104 O 0.8427 0.07654 0.55852 0.0
O105 O 0.79801 0.17136 0.49953 0.0
O106 O 0.74476 0.18296 1.30499 0.0
O107 O 0.67871 0.18166 0.40132 0.0
O108 O 0.86811 0.15397 0.39393 0.0
O109 O 0.84721 0.05309 0.40058 0.0
O110 O 0.76682 0.0381 1.30534 0.0
O111 O 0.81633 0.95089 1.37246 0.0
H112 H 0.92939 0.82493 0.44609 0.0
H113 H 0.92607 0.70591 0.41463 0.0
H114 H 0.77129 0.68777 0.58036 0.0
H115 H 0.77512 0.80541 0.612 0.0
H116 H 0.60678 0.09919 1.31025 0.0
H117 H 0.52513 0.08893 1.20984 0.0
H118 H 0.5577 0.29243 1.14661 0.0
H119 H 0.63603 0.30228 1.2481 0.0
La120 La 0.07871 0.80504 0.97889 0.0
La121 La 0.95691 0.79101 0.88153 0.0
C122 C 0.17724 0.8289 1.059 0.0
C123 C 0.24862 0.82548 1.03967 0.0
C124 C 0.27222 0.85544 0.97464 0.0
C125 C 0.34019 0.851 0.95703 0.0
C126 C 0.38552 0.81572 1.0035 0.0
C127 C 0.36105 0.78369 1.06686 0.0
C128 C 0.29345 0.78871 1.08476 0.0
C129 C 0.05331 0.68183 0.93788 0.0
C130 C 0.93206 0.84288 1.04884 0.0
C131 C 0.87082 0.73032 0.80824 0.0
C132 C 0.86995 0.66578 0.76802 0.0
C133 C 0.9291 0.62861 0.75075 0.0
C134 C 0.92756 0.57139 0.70476 0.0
C135 C 0.86721 0.55247 0.67176 0.0
C136 C 0.80748 0.58396 0.70037 0.0
C137 C 0.80906 0.64073 0.74683 0.0
C138 C -0.01402 0.91366 0.90871 0.0
C139 C 0.10096 0.81223 0.80222 0.0
O140 O 0.13999 0.87575 1.02716 0.0
O141 O 0.14908 0.77149 1.05866 0.0
O142 O 0.11214 0.70451 0.9425 0.0
O143 O 0.01108 0.7276 0.95749 0.0
O144 O -0.00219 0.83644 1.05867 0.0
O145 O 0.90366 0.82605 0.98437 0.0
O146 O 0.90733 0.77572 0.77926 0.0
O147 O 0.87843 0.72639 0.88073 0.0
O148 O 0.9261 0.89764 0.88946 0.0
O149 O 0.02487 0.86349 0.90191 0.0
O150 O 0.03951 0.78923 0.79427 0.0
O151 O 0.12433 0.82534 0.87038 0.0
H152 H 0.23845 0.88331 0.93809 0.0
H153 H 0.35761 0.87691 0.90859 0.0
H154 H 0.3946 0.75779 1.10539 0.0
H155 H 0.2763 0.76472 1.13466 0.0
H156 H -0.02335 0.6455 0.7699 0.0
H157 H -0.02551 0.54626 0.68925 0.0
H158 H 0.75911 0.5697 0.68123 0.0
H159 H 0.76265 0.66717 0.76275 0.0
C160 C -0.02063 0.00165 0.39743 0.0
C161 C 0.96248 0.0705 0.40386 0.0
H162 H 0.05707 0.92482 0.39755 0.0
C163 C 0.0123 0.11606 0.41064 0.0
H164 H 0.94191 0.96566 1.38835 0.0
C165 C 0.0785 0.0926 0.41243 0.0
C166 C 0.09506 0.02349 0.40966 0.0
H167 H 0.00021 0.16936 0.41416 0.0
H168 H 0.11646 0.12867 0.4149 0.0
C169 C 0.04521 0.97814 0.40174 0.0
C170 C 0.07847 -0.01024 0.91593 0.0
C171 C 0.00976 0.98064 0.9096 0.0
H172 H 0.15555 0.05954 0.91842 0.0
C173 C 0.9654 0.03513 0.89794 0.0
H174 H 0.11397 0.94802 0.92155 0.0
C175 C -0.01032 0.09821 0.89244 0.0
C176 C 0.05809 0.1076 0.90135 0.0
H177 H 0.91251 0.02886 0.89108 0.0
H178 H 0.95472 0.13938 0.88044 0.0
C179 C 0.10256 0.05319 0.91273 0.0
C180 C 0.56275 0.97898 0.44257 0.0
C181 C 0.60372 0.0317 0.46093 0.0
H182 H 0.46356 0.94752 0.42777 0.0
C183 C 0.57343 0.09497 0.4775 0.0
H184 H 0.5844 0.92935 0.43019 0.0
C185 C 0.50406 0.10579 0.47321 0.0
C186 C 0.463 0.05295 0.45532 0.0
H187 H 0.60303 0.13593 0.49514 0.0
H188 H 0.48246 0.15536 0.48594 0.0
C189 C 0.49324 -0.01067 0.44081 0.0
C190 C 0.08309 0.49513 0.95987 0.0
C191 C 0.01943 0.47183 0.9468 0.0
H192 H 0.14422 0.57949 0.96397 0.0
C193 C 0.96674 0.51824 0.93093 0.0
H194 H 0.124 0.46118 0.97547 0.0
C195 C -0.02249 0.58651 0.92843 0.0
C196 C 0.04154 0.60961 0.93883 0.0
H197 H 0.91682 0.50194 0.92151 0.0
H198 H 0.93565 0.62094 0.9184 0.0
C199 C 0.0944 0.56313 0.95411 0.0
C200 C 0.23874 0.56906 0.56717 0.0
C201 C 0.18168 0.56871 0.61307 0.0
H202 H 0.29668 0.50498 0.49149 0.0
C203 C 0.12361 0.55106 0.5748 0.0
H204 H 0.28253 0.59345 0.58669 0.0
C205 C 0.13016 0.49937 0.52096 0.0
C206 C 0.19466 0.47505 0.50016 0.0
H207 H 0.07497 0.56221 0.59915 0.0
H208 H 0.08678 0.47165 0.50743 0.0
C209 C 0.24699 0.51824 0.51226 0.0
C210 C 0.55794 0.23204 0.97989 0.0
C211 C 0.61069 0.18334 0.97181 0.0
H212 H 0.47891 0.26801 1.05254 0.0
C213 C 0.60064 0.11944 0.99956 0.0
H214 H 0.56117 0.2805 0.95457 0.0
C215 C 0.55363 0.11304 1.05631 0.0
C216 C 0.52079 0.17142 1.08628 0.0
H217 H 0.63725 0.07852 0.99026 0.0
H218 H 0.55687 0.0674 1.08769 0.0
C219 C 0.51057 0.2247 1.03643 0.0
C220 C 0.80762 0.52287 0.55515 0.0
C221 C 0.86794 0.51797 0.59544 0.0
H222 H 0.74971 0.59324 0.48934 0.0
C223 C 0.92418 0.52928 0.55109 0.0
H224 H 0.76341 0.50153 0.57717 0.0
C225 C 0.91863 0.58262 0.50138 0.0
C226 C 0.85501 0.61316 0.48859 0.0
H227 H 0.97335 0.51184 0.56879 0.0
H228 H 0.96353 0.60603 0.48462 0.0
C229 C 0.79962 0.57524 0.50428 0.0
C230 C 0.50298 0.77209 1.02131 0.0
C231 C 0.45823 0.82385 0.99748 0.0
H232 H 0.58379 0.74802 1.09551 0.0
C233 C 0.48064 0.88922 0.99944 0.0
H234 H 0.49065 0.72029 1.01517 0.0
C235 C 0.5341 0.9033 1.04643 0.0
C236 C 0.55533 0.85405 1.09792 0.0
H237 H 0.45097 0.93055 0.97632 0.0
H238 H 0.54471 0.95502 1.05583 0.0
C239 C 0.55602 0.78834 1.06807 0.0
C240 C 0.86899 0.88371 1.24731 0.0
C241 C 0.8216 0.93786 1.23816 0.0
H242 H 0.94063 0.81336 1.19683 0.0
C243 C 0.80745 0.95742 1.16394 0.0
H244 H 0.88246 0.86632 1.30267 0.0
C245 C 0.84048 0.92457 1.10187 0.0
C246 C 0.88997 0.87267 1.11242 0.0
H247 H 0.77212 -0.00107 1.15384 0.0
H248 H 0.82951 0.94186 1.04581 0.0
C249 C 0.90308 0.85279 1.18614 0.0
C250 C 0.16283 0.85434 0.60272 0.0
C251 C 0.20448 0.90785 0.61809 0.0
H252 H 0.09627 0.78287 0.64698 0.0
C253 C 0.21296 0.92651 0.69367 0.0
H254 H 0.15411 0.839 0.54515 0.0
C255 C 0.1815 0.89333 0.75169 0.0
C256 C 0.13818 0.84111 0.73707 0.0
H257 H 0.24396 0.96743 0.70822 0.0
H258 H 0.18969 0.91074 0.8086 0.0
C259 C 0.12931 0.82217 0.66121 0.0
C260 C 0.22142 0.16613 1.10592 0.0
C261 C 0.16509 0.21067 1.11701 0.0
H262 H 0.29533 0.09823 1.15624 0.0
C263 C 0.14364 0.2231 1.19115 0.0
H264 H 0.23908 0.15454 1.04954 0.0
C265 C 0.17688 0.19262 1.25199 0.0
C266 C 0.23199 0.1464 1.2416 0.0
H267 H 0.10062 0.25664 1.20237 0.0
H268 H 0.15742 0.20402 1.30766 0.0
C269 C 0.25373 0.13359 1.16719 0.0
C270 C 0.93781 0.18134 0.61662 0.0
C271 C 0.86765 0.18555 0.61136 0.0
H272 H 0.0253 0.21087 0.676 0.0
C273 C 0.83241 0.22887 0.66213 0.0
H274 H 0.96667 0.14858 0.57846 0.0
C275 C 0.8661 0.26375 0.71913 0.0
C276 C 0.93629 0.2586 0.72547 0.0
H277 H 0.77852 0.2333 0.66008 0.0
H278 H 0.83689 0.29316 0.76012 0.0
C279 C 0.97163 0.21793 0.67203 0.0
loop_
_geom_bond_atom_site_label_1
_geom_bond_atom_site_label_2
_geom_bond_distance
_geom_bond_site_symmetry_2
_ccdc_geom_bond_type
La0 C2 2.928 . S
La0 O20 2.521 . S
La0 O21 2.628 . S
La0 O22 2.554 . S
La0 O23 2.757 1_554 S
La0 O24 2.470 . S
La0 O29 2.482 . S
La0 O31 2.503 1_554 S
La1 C11 2.928 1_545 S
La1 O23 2.482 . S
La1 O25 2.503 1_556 S
La1 O26 2.521 1_545 S
La1 O27 2.628 . S
La1 O28 2.554 . S
La1 O29 2.757 1_556 S
La1 O30 2.470 . S
C2 La0 2.928 . S
C2 C3 1.503 . S
C2 O20 1.261 . S
C2 O21 1.243 . S
C3 C2 1.503 . S
C3 C4 1.394 . S
C3 C8 1.373 . S
C4 C3 1.394 . S
C4 C5 1.380 . S
C4 H32 0.930 . S
C5 C4 1.380 . S
C5 C6 1.376 . S
C5 H33 0.930 . S
C6 C5 1.376 . S
C6 C7 1.370 . S
C7 C6 1.370 . S
C7 C8 1.396 . S
C7 H34 0.929 . S
C8 C3 1.373 . S
C8 C7 1.396 . S
C8 H35 0.929 . S
C9 O22 1.240 . S
C9 O23 1.289 1_554 S
C10 O24 1.258 . S
C10 O25 1.256 . S
C11 La1 2.928 1_565 S
C11 C12 1.503 . S
C11 O26 1.261 . S
C11 O27 1.243 1_565 S
C12 C11 1.503 . S
C12 C13 1.394 . S
C12 C17 1.373 . S
C13 C12 1.394 . S
C13 C14 1.380 . S
C13 H36 0.930 . S
C14 C13 1.380 . S
C14 C15 1.376 . S
C14 H37 0.930 . S
C15 C14 1.376 . S
C15 C16 1.370 . S
C16 C15 1.370 . S
C16 C17 1.396 . S
C16 H38 0.929 . S
C17 C12 1.373 . S
C17 C16 1.396 . S
C17 H39 0.929 . S
C18 O28 1.236 1_554 S
C18 O29 1.292 . S
C19 O30 1.258 . S
C19 O31 1.256 . S
O20 La0 2.521 . S
O20 C2 1.261 . S
O21 La0 2.628 . S
O21 C2 1.243 . S
O22 La0 2.554 . S
O22 C9 1.240 . S
O23 La0 2.757 1_556 S
O23 La1 2.482 . S
O23 C9 1.289 1_556 S
O24 La0 2.470 . S
O24 C10 1.258 . S
O25 La1 2.503 1_554 S
O25 C10 1.256 . S
O26 La1 2.521 1_565 S
O26 C11 1.261 . S
O27 La1 2.628 . S
O27 C11 1.243 1_545 S
O28 La1 2.554 . S
O28 C18 1.236 1_556 S
O29 La0 2.482 . S
O29 La1 2.757 1_554 S
O29 C18 1.292 . S
O30 La1 2.470 . S
O30 C19 1.258 . S
O31 La0 2.503 1_556 S
O31 C19 1.256 . S
H32 C4 0.930 . S
H33 C5 0.930 . S
H34 C7 0.929 . S
H35 C8 0.929 . S
H36 C13 0.930 . S
H37 C14 0.930 . S
H38 C16 0.929 . S
H39 C17 0.929 . S
La40 C42 2.928 . S
La40 O60 2.521 . S
La40 O61 2.628 . S
La40 O62 2.554 . S
La40 O63 2.757 1_655 S
La40 O64 2.470 1_655 S
La40 O69 2.482 . S
La40 O71 2.503 . S
La41 C51 2.928 . S
La41 O63 2.482 . S
La41 O65 2.503 . S
La41 O66 2.521 . S
La41 O67 2.628 . S
La41 O68 2.554 . S
La41 O69 2.757 1_455 S
La41 O70 2.470 1_455 S
C42 La40 2.928 . S
C42 C43 1.503 . S
C42 O60 1.261 . S
C42 O61 1.243 . S
C43 C42 1.503 . S
C43 C44 1.394 . S
C43 C48 1.373 . S
C44 C43 1.394 . S
C44 C45 1.380 . S
C44 H72 0.930 . S
C45 C44 1.380 . S
C45 C46 1.376 . S
C45 H73 0.930 . S
C46 C45 1.376 . S
C46 C47 1.370 . S
C47 C46 1.370 . S
C47 C48 1.396 . S
C47 H74 0.929 . S
C48 C43 1.373 . S
C48 C47 1.396 . S
C48 H75 0.929 . S
C49 O62 1.240 . S
C49 O63 1.289 1_655 S
C50 O64 1.258 . S
C50 O65 1.256 . S
C51 La41 2.928 . S
C51 C52 1.503 . S
C51 O66 1.261 . S
C51 O67 1.243 . S
C52 C51 1.503 . S
C52 C53 1.394 . S
C52 C57 1.373 . S
C53 C52 1.394 . S
C53 C54 1.380 . S
C53 H76 0.930 . S
C54 C53 1.380 . S
C54 C55 1.376 . S
C54 H77 0.930 . S
C55 C54 1.376 . S
C55 C56 1.370 . S
C56 C55 1.370 . S
C56 C57 1.396 . S
C56 H78 0.929 . S
C57 C52 1.373 . S
C57 C56 1.396 . S
C57 H79 0.929 . S
C58 O68 1.240 . S
C58 O69 1.289 1_455 S
C59 O70 1.258 . S
C59 O71 1.256 . S
O60 La40 2.521 . S
O60 C42 1.261 . S
O61 La40 2.628 . S
O61 C42 1.243 . S
O62 La40 2.554 . S
O62 C49 1.240 . S
O63 La40 2.757 1_455 S
O63 La41 2.482 . S
O63 C49 1.289 1_455 S
O64 La40 2.470 1_455 S
O64 C50 1.258 . S
O65 La41 2.503 . S
O65 C50 1.256 . S
O66 La41 2.521 . S
O66 C51 1.261 . S
O67 La41 2.628 . S
O67 C51 1.243 . S
O68 La41 2.554 . S
O68 C58 1.240 . S
O69 La40 2.482 . S
O69 La41 2.757 1_655 S
O69 C58 1.289 1_655 S
O70 La41 2.470 1_655 S
O70 C59 1.258 . S
O71 La40 2.503 . S
O71 C59 1.256 . S
H72 C44 0.930 . S
H73 C45 0.930 . S
H74 C47 0.929 . S
H75 C48 0.929 . S
H76 C53 0.930 . S
H77 C54 0.930 . S
H78 C56 0.929 . S
H79 C57 0.929 . S
La80 C82 2.928 . S
La80 O100 2.521 . S
La80 O101 2.628 . S
La80 O102 2.554 . S
La80 O103 2.757 1_564 S
La80 O104 2.470 1_565 S
La80 O109 2.482 . S
La80 O111 2.503 1_554 S
La81 C91 2.928 . S
La81 O103 2.482 . S
La81 O105 2.503 1_556 S
La81 O106 2.521 . S
La81 O107 2.628 . S
La81 O108 2.554 . S
La81 O109 2.757 1_546 S
La81 O110 2.470 1_545 S
C82 La80 2.928 . S
C82 C83 1.503 . S
C82 O100 1.261 . S
C82 O101 1.243 . S
C83 C82 1.503 . S
C83 C84 1.394 . S
C83 C88 1.373 . S
C84 C83 1.394 . S
C84 C85 1.380 . S
C84 H112 0.930 . S
C85 C84 1.380 . S
C85 C86 1.376 . S
C85 H113 0.930 . S
C86 C85 1.376 . S
C86 C87 1.370 . S
C87 C86 1.370 . S
C87 C88 1.396 . S
C87 H114 0.929 . S
C88 C83 1.373 . S
C88 C87 1.396 . S
C88 H115 0.929 . S
C89 O102 1.240 . S
C89 O103 1.289 1_564 S
C90 O104 1.258 . S
C90 O105 1.256 . S
C91 La81 2.928 . S
C91 C92 1.503 . S
C91 O106 1.261 . S
C91 O107 1.243 . S
C92 C91 1.503 . S
C92 C93 1.394 . S
C92 C97 1.373 . S
C93 C92 1.394 . S
C93 C94 1.380 . S
C93 H116 0.930 . S
C94 C93 1.380 . S
C94 C95 1.376 . S
C94 H117 0.930 . S
C95 C94 1.376 . S
C95 C96 1.370 . S
C96 C95 1.370 . S
C96 C97 1.396 . S
C96 H118 0.929 . S
C97 C92 1.373 . S
C97 C96 1.396 . S
C97 H119 0.929 . S
C98 O108 1.236 1_554 S
C98 O109 1.292 1_545 S
C99 O110 1.258 . S
C99 O111 1.256 . S
O100 La80 2.521 . S
O100 C82 1.261 . S
O101 La80 2.628 . S
O101 C82 1.243 . S
O102 La80 2.554 . S
O102 C89 1.240 . S
O103 La80 2.757 1_546 S
O103 La81 2.482 . S
O103 C89 1.289 1_546 S
O104 La80 2.470 1_545 S
O104 C90 1.258 . S
O105 La81 2.503 1_554 S
O105 C90 1.256 . S
O106 La81 2.521 . S
O106 C91 1.261 . S
O107 La81 2.628 . S
O107 C91 1.243 . S
O108 La81 2.554 . S
O108 C98 1.236 1_556 S
O109 La80 2.482 . S
O109 La81 2.757 1_564 S
O109 C98 1.292 1_565 S
O110 La81 2.470 1_565 S
O110 C99 1.258 . S
O111 La80 2.503 1_556 S
O111 C99 1.256 . S
H112 C84 0.930 . S
H113 C85 0.930 . S
H114 C87 0.929 . S
H115 C88 0.929 . S
H116 C93 0.930 . S
H117 C94 0.930 . S
H118 C96 0.929 . S
H119 C97 0.929 . S
La120 C122 2.928 . S
La120 O140 2.521 . S
La120 O141 2.628 . S
La120 O142 2.554 . S
La120 O143 2.757 . S
La120 O144 2.470 . S
La120 O149 2.482 . S
La120 O151 2.503 . S
La121 C131 2.928 1_455 S
La121 O143 2.482 . S
La121 O145 2.503 . S
La121 O146 2.521 1_455 S
La121 O147 2.628 . S
La121 O148 2.554 . S
La121 O149 2.757 . S
La121 O150 2.470 . S
C122 La120 2.928 . S
C122 C123 1.503 . S
C122 O140 1.261 . S
C122 O141 1.243 . S
C123 C122 1.503 . S
C123 C124 1.394 . S
C123 C128 1.373 . S
C124 C123 1.394 . S
C124 C125 1.380 . S
C124 H152 0.930 . S
C125 C124 1.380 . S
C125 C126 1.376 . S
C125 H153 0.930 . S
C126 C125 1.376 . S
C126 C127 1.370 . S
C127 C126 1.370 . S
C127 C128 1.396 . S
C127 H154 0.929 . S
C128 C123 1.373 . S
C128 C127 1.396 . S
C128 H155 0.929 . S
C129 O142 1.240 . S
C129 O143 1.289 . S
C130 O144 1.258 . S
C130 O145 1.256 . S
C131 La121 2.928 1_655 S
C131 C132 1.503 . S
C131 O146 1.261 . S
C131 O147 1.243 1_655 S
C132 C131 1.503 . S
C132 C133 1.394 . S
C132 C137 1.373 . S
C133 C132 1.394 . S
C133 C134 1.380 . S
C133 H156 0.930 . S
C134 C133 1.380 . S
C134 C135 1.376 . S
C134 H157 0.930 . S
C135 C134 1.376 . S
C135 C136 1.370 . S
C136 C135 1.370 . S
C136 C137 1.396 . S
C136 H158 0.929 . S
C137 C132 1.373 . S
C137 C136 1.396 . S
C137 H159 0.929 . S
C138 O148 1.240 . S
C138 O149 1.289 . S
C139 O150 1.258 . S
C139 O151 1.256 . S
O140 La120 2.521 . S
O140 C122 1.261 . S
O141 La120 2.628 . S
O141 C122 1.243 . S
O142 La120 2.554 . S
O142 C129 1.240 . S
O143 La120 2.757 . S
O143 La121 2.482 . S
O143 C129 1.289 . S
O144 La120 2.470 . S
O144 C130 1.258 . S
O145 La121 2.503 . S
O145 C130 1.256 . S
O146 La121 2.521 1_655 S
O146 C131 1.261 . S
O147 La121 2.628 . S
O147 C131 1.243 1_455 S
O148 La121 2.554 . S
O148 C138 1.240 . S
O149 La120 2.482 . S
O149 La121 2.757 . S
O149 C138 1.289 . S
O150 La121 2.470 . S
O150 C139 1.258 . S
O151 La120 2.503 . S
O151 C139 1.256 . S
H152 C124 0.930 . S
H153 C125 0.930 . S
H154 C127 0.929 . S
H155 C128 0.929 . S
H156 C133 0.930 . S
H157 C134 0.930 . S
H158 C136 0.929 . S
H159 C137 0.929 . S
C160 C161 1.387 1_455 S
C160 H164 0.950 . S
C160 C169 1.390 . S
C161 C160 1.387 1_655 S
C161 C163 1.387 1_654 S
H162 C169 0.950 . S
C163 C161 1.387 1_456 S
C163 C165 1.390 . S
C163 H167 0.950 . S
H164 C160 0.950 . S
C165 C163 1.390 . S
C165 C166 1.387 1_556 S
C165 H168 0.950 . S
C166 C165 1.387 1_554 S
C166 C169 1.387 . S
H167 C163 0.950 . S
H168 C165 0.950 . S
C169 C160 1.390 . S
C169 H162 0.950 . S
C169 C166 1.387 . S
C170 C171 1.387 1_545 S
C170 H174 0.950 . S
C170 C179 1.390 . S
C171 C170 1.387 1_565 S
C171 C173 1.387 1_565 S
H172 C179 0.950 . S
C173 C171 1.387 1_545 S
C173 C175 1.390 . S
C173 H177 0.950 . S
H174 C170 0.950 . S
C175 C173 1.390 . S
C175 C176 1.387 . S
C175 H178 0.950 . S
C176 C175 1.387 . S
C176 C179 1.387 . S
H177 C173 0.950 . S
H178 C175 0.950 . S
C179 C170 1.390 . S
C179 H172 0.950 . S
C179 C176 1.387 . S
C180 C181 1.387 1_554 S
C180 H184 0.950 . S
C180 C189 1.390 . S
C181 C180 1.387 1_556 S
C181 C183 1.387 . S
H182 C189 0.950 . S
C183 C181 1.387 . S
C183 C185 1.390 . S
C183 H187 0.950 . S
H184 C180 0.950 . S
C185 C183 1.390 . S
C185 C186 1.387 . S
C185 H188 0.950 . S
C186 C185 1.387 . S
C186 C189 1.387 1_556 S
H187 C183 0.950 . S
H188 C185 0.950 . S
C189 C180 1.390 . S
C189 H182 0.950 . S
C189 C186 1.387 1_554 S
C190 C191 1.387 . S
C190 H194 0.950 . S
C190 C199 1.390 . S
C191 C190 1.387 . S
C191 C193 1.387 . S
H192 C199 0.950 . S
C193 C191 1.387 . S
C193 C195 1.390 . S
C193 H197 0.950 . S
H194 C190 0.950 . S
C195 C193 1.390 . S
C195 C196 1.387 . S
C195 H198 0.950 . S
C196 C195 1.387 . S
C196 C199 1.387 . S
H197 C193 0.950 . S
H198 C195 0.950 . S
C199 C190 1.390 . S
C199 H192 0.950 . S
C199 C196 1.387 . S
C200 C201 1.387 . S
C200 H204 0.950 . S
C200 C209 1.390 . S
C201 C200 1.387 . S
C201 C203 1.387 . S
H202 C209 0.950 . S
C203 C201 1.387 . S
C203 C205 1.390 . S
C203 H207 0.950 . S
H204 C200 0.950 . S
C205 C203 1.390 . S
C205 C206 1.387 . S
C205 H208 0.950 . S
C206 C205 1.387 . S
C206 C209 1.387 . S
H207 C203 0.950 . S
H208 C205 0.950 . S
C209 C200 1.390 . S
C209 H202 0.950 . S
C209 C206 1.387 . S
C210 C211 1.387 . S
C210 H214 0.950 . S
C210 C219 1.390 . S
C211 C210 1.387 . S
C211 C213 1.387 . S
H212 C219 0.950 . S
C213 C211 1.387 . S
C213 C215 1.390 . S
C213 H217 0.950 . S
H214 C210 0.950 . S
C215 C213 1.390 . S
C215 C216 1.387 . S
C215 H218 0.950 . S
C216 C215 1.387 . S
C216 C219 1.387 . S
H217 C213 0.950 . S
H218 C215 0.950 . S
C219 C210 1.390 . S
C219 H212 0.950 . S
C219 C216 1.387 . S
C220 C221 1.387 . S
C220 H224 0.950 . S
C220 C229 1.390 . S
C221 C220 1.387 . S
C221 C223 1.387 . S
H222 C229 0.950 . S
C223 C221 1.387 . S
C223 C225 1.390 . S
C223 H227 0.950 . S
H224 C220 0.950 . S
C225 C223 1.390 . S
C225 C226 1.387 . S
C225 H228 0.950 . S
C226 C225 1.387 . S
C226 C229 1.387 . S
H227 C223 0.950 . S
H228 C225 0.950 . S
C229 C220 1.390 . S
C229 H222 0.950 . S
C229 C226 1.387 . S
C230 C231 1.387 . S
C230 H234 0.950 . S
C230 C239 1.390 . S
C231 C230 1.387 . S
C231 C233 1.387 . S
H232 C239 0.950 . S
C233 C231 1.387 . S
C233 C235 1.390 . S
C233 H237 0.950 . S
H234 C230 0.950 . S
C235 C233 1.390 . S
C235 C236 1.387 . S
C235 H238 0.950 . S
C236 C235 1.387 . S
C236 C239 1.387 . S
H237 C233 0.950 . S
H238 C235 0.950 . S
C239 C230 1.390 . S
C239 H232 0.950 . S
C239 C236 1.387 . S
C240 C241 1.387 . S
C240 H244 0.950 . S
C240 C249 1.390 . S
C241 C240 1.387 . S
C241 C243 1.387 . S
H242 C249 0.950 . S
C243 C241 1.387 . S
C243 C245 1.390 . S
C243 H247 0.950 . S
H244 C240 0.950 . S
C245 C243 1.390 . S
C245 C246 1.387 . S
C245 H248 0.950 . S
C246 C245 1.387 . S
C246 C249 1.387 . S
H247 C243 0.950 . S
H248 C245 0.950 . S
C249 C240 1.390 . S
C249 H242 0.950 . S
C249 C246 1.387 . S
C250 C251 1.387 . S
C250 H254 0.950 . S
C250 C259 1.390 . S
C251 C250 1.387 . S
C251 C253 1.387 . S
H252 C259 0.950 . S
C253 C251 1.387 . S
C253 C255 1.390 . S
C253 H257 0.950 . S
H254 C250 0.950 . S
C255 C253 1.390 . S
C255 C256 1.387 . S
C255 H258 0.950 . S
C256 C255 1.387 . S
C256 C259 1.387 . S
H257 C253 0.950 . S
H258 C255 0.950 . S
C259 C250 1.390 . S
C259 H252 0.950 . S
C259 C256 1.387 . S
C260 C261 1.387 . S
C260 H264 0.950 . S
C260 C269 1.390 . S
C261 C260 1.387 . S
C261 C263 1.387 . S
H262 C269 0.950 . S
C263 C261 1.387 . S
C263 C265 1.390 . S
C263 H267 0.950 . S
H264 C260 0.950 . S
C265 C263 1.390 . S
C265 C266 1.387 . S
C265 H268 0.950 . S
C266 C265 1.387 . S
C266 C269 1.387 . S
H267 C263 0.950 . S
H268 C265 0.950 . S
C269 C260 1.390 . S
C269 H262 0.950 . S
C269 C266 1.387 . S
C270 C271 1.387 . S
C270 H274 0.950 . S
C270 C279 1.390 . S
C271 C270 1.387 . S
C271 C273 1.387 . S
H272 C279 0.950 . S
C273 C271 1.387 . S
C273 C275 1.390 . S
C273 H277 0.950 . S
H274 C270 0.950 . S
C275 C273 1.390 . S
C275 C276 1.387 . S
C275 H278 0.950 . S
C276 C275 1.387 . S
C276 C279 1.387 . S
H277 C273 0.950 . S
H278 C275 0.950 . S
C279 C270 1.390 . S
C279 H272 0.950 . S
C279 C276 1.387 . S
C161 C98 1.113 . S
C166 C18 1.113 . S
C171 C138 1.112 . S
C176 C58 1.112 . S
C181 C89 1.127 1_546 S
C186 C9 1.126 1_556 S
C191 C49 1.128 1_455 S
C196 C129 1.127 . S
C201 C55 1.172 . S
C206 C6 1.237 . S
C211 C46 1.236 . S
C216 C95 1.172 . S
C221 C135 1.171 . S
C226 C86 1.237 . S
C231 C126 1.239 . S
C236 C15 1.177 . S
C241 C99 4.641 . S
C246 C130 4.785 1_655 S
C251 C10 4.785 1_565 S
C256 C139 4.642 . S
C261 C50 4.785 . S
C266 C19 4.642 . S
C271 C90 4.785 . S
C276 C59 4.641 . S
