# Generated by pormake.
# Topology smt, (6)-cn, num edge types: 1
# Building blocks:
#     Node 0, Type 0, BuildingBlock: LEVNOQ01_clean_sbu_1, # of connection points: 6
#     Node 1, Type 0, BuildingBlock: LEVNOQ01_clean_sbu_1, # of connection points: 6
#     Node 2, Type 0, BuildingBlock: LEVNOQ01_clean_sbu_1, # of connection points: 6
#     Node 3, Type 0, BuildingBlock: LEVNOQ01_clean_sbu_1, # of connection points: 6
#     Node 4, Type 0, BuildingBlock: LEVNOQ01_clean_sbu_1, # of connection points: 6
#     Node 5, Type 0, BuildingBlock: LEVNOQ01_clean_sbu_1, # of connection points: 6
#     Edge 6, Type (0, 0), BuildingBlock: UVAHIK_clean_linker_0, # of connection points: 2
#     Edge 7, Type (0, 0), BuildingBlock: UVAHIK_clean_linker_0, # of connection points: 2
#     Edge 8, Type (0, 0), BuildingBlock: UVAHIK_clean_linker_0, # of connection points: 2
#     Edge 9, Type (0, 0), BuildingBlock: UVAHIK_clean_linker_0, # of connection points: 2
#     Edge 10, Type (0, 0), BuildingBlock: UVAHIK_clean_linker_0, # of connection points: 2
#     Edge 11, Type (0, 0), BuildingBlock: UVAHIK_clean_linker_0, # of connection points: 2
#     Edge 12, Type (0, 0), BuildingBlock: UVAHIK_clean_linker_0, # of connection points: 2
#     Edge 13, Type (0, 0), BuildingBlock: UVAHIK_clean_linker_0, # of connection points: 2
#     Edge 14, Type (0, 0), BuildingBlock: UVAHIK_clean_linker_0, # of connection points: 2
#     Edge 15, Type (0, 0), BuildingBlock: UVAHIK_clean_linker_0, # of connection points: 2
#     Edge 16, Type (0, 0), BuildingBlock: UVAHIK_clean_linker_0, # of connection points: 2
#     Edge 17, Type (0, 0), BuildingBlock: UVAHIK_clean_linker_0, # of connection points: 2
#     Edge 18, Type (0, 0), BuildingBlock: UVAHIK_clean_linker_0, # of connection points: 2
#     Edge 19, Type (0, 0), BuildingBlock: UVAHIK_clean_linker_0, # of connection points: 2
#     Edge 20, Type (0, 0), BuildingBlock: UVAHIK_clean_linker_0, # of connection points: 2
#     Edge 21, Type (0, 0), BuildingBlock: UVAHIK_clean_linker_0, # of connection points: 2
#     Edge 22, Type (0, 0), BuildingBlock: UVAHIK_clean_linker_0, # of connection points: 2
#     Edge 23, Type (0, 0), BuildingBlock: UVAHIK_clean_linker_0, # of connection points: 2
# Relax obj value: 0.318
# Max RMSD: 0.278
# Mean RMSD: 0.278
data_MOF--net-smt--node1-LEVNOQ01_clean_sbu_1--edge1-UVAHIK_clean_linker_0
_symmetry_space_group_name_H-M    P1
_symmetry_Int_Tables_number       1
_symmetry_cell_setting            triclinic
loop_
_symmetry_equiv_pos_as_xyz
'x, y, z'
_cell_length_a     46.037107
_cell_length_b     46.209285
_cell_length_c     29.020929
_cell_angle_alpha  89.961646
_cell_angle_beta   89.873204
_cell_angle_gamma 119.69546
loop_
_atom_site_label
_atom_site_type_symbol
_atom_site_fract_x
_atom_site_fract_y
_atom_site_fract_z
_atom_type_partial_charge
O0 O 0.34768 0.04815 -0.00557 0.0
Mg1 Mg 0.36703 0.06834 0.06062 0.0
O2 O 0.39754 0.06051 0.96736 0.0
Mg3 Mg 0.44099 0.10407 0.00561 0.0
O4 O 0.40648 0.11396 0.04746 0.0
O5 O 0.3647 0.10919 0.08952 0.0
O6 O 0.48598 0.14538 0.0465 0.0
O7 O 0.44411 0.14319 0.95253 0.0
Mg8 Mg 0.51136 0.13689 0.94195 0.0
O9 O 0.47457 0.09277 0.96407 0.0
O10 O 0.53203 0.16385 0.00321 0.0
O11 O 0.48513 0.15471 0.90213 0.0
O12 O 0.51491 0.09511 0.92115 0.0
C13 C 0.4186 0.04797 0.09115 0.0
C14 C 0.36573 0.04372 0.96529 0.0
C15 C 0.39332 0.12813 0.07058 0.0
C16 C 0.51746 0.16412 0.04035 0.0
C17 C 0.4604 0.15749 0.91592 0.0
C18 C 0.48655 0.07728 0.94138 0.0
O19 O 0.38981 0.04482 0.09775 0.0
O20 O 0.43874 0.06734 0.06048 0.0
O21 O 0.3049 0.46002 0.05572 0.0
Mg22 Mg 0.34761 0.4981 0.08828 0.0
O23 O 0.28335 0.44274 0.12453 0.0
Mg24 Mg 0.32593 0.44525 0.17165 0.0
O25 O 0.36709 0.47335 0.12069 0.0
O26 O 0.39441 0.50887 0.06443 0.0
O27 O 0.36655 0.44861 0.22122 0.0
O28 O 0.32374 0.39816 0.1387 0.0
Mg29 Mg 0.29486 0.37864 0.23267 0.0
O30 O 0.28557 0.41692 0.22524 0.0
O31 O 0.34463 0.3995 0.25675 0.0
O32 O 0.28291 0.35281 0.16952 0.0
O33 O 0.25743 0.37592 0.27514 0.0
C34 C 0.33996 0.52293 0.18436 0.0
C35 C 0.27964 0.44687 0.08189 0.0
C36 C 0.39248 0.48692 0.09356 0.0
C37 C 0.36902 0.42854 0.24906 0.0
C38 C 0.30605 0.36653 0.13992 0.0
C39 C 0.26176 0.40271 0.25511 0.0
O40 O 0.34356 0.5278 0.14101 0.0
O41 O 0.33345 0.49504 0.20239 0.0
O42 O 0.93024 0.29293 0.33832 0.0
Mg43 Mg 0.90726 0.29391 0.40128 0.0
O44 O 0.91525 0.3259 0.30205 0.0
Mg45 Mg 0.87113 0.32743 0.33825 0.0
O46 O 0.86029 0.28388 0.38473 0.0
O47 O 0.86836 0.25108 0.43201 0.0
O48 O 0.82836 0.33132 0.37355 0.0
O49 O 0.83208 0.29022 0.28433 0.0
Mg50 Mg 0.84048 0.35905 0.26537 0.0
O51 O 0.88405 0.37327 0.29681 0.0
O52 O 0.80471 0.34703 0.31939 0.0
O53 O 0.83944 0.32148 0.22348 0.0
O54 O 0.8774 0.40784 0.25145 0.0
C55 C 0.92667 0.36576 0.42392 0.0
C56 C 0.93284 0.31157 0.30451 0.0
C57 C 0.84791 0.25723 0.40951 0.0
C58 C 0.80584 0.33804 0.36051 0.0
C59 C 0.82583 0.29302 0.24208 0.0
C60 C 0.897 0.4012 0.27519 0.0
O61 O 0.93049 0.34111 0.43425 0.0
O62 O 0.90698 0.36415 0.392 0.0
O63 O 0.50675 0.82973 0.39736 0.0
Mg64 Mg 0.47504 0.8372 0.44158 0.0
O65 O 0.53391 0.83254 0.46064 0.0
Mg66 Mg 0.53502 0.87366 0.5095 0.0
O67 O 0.50133 0.88482 0.46449 0.0
O68 O 0.45714 0.86718 0.41825 0.0
O69 O 0.53555 0.91188 0.56232 0.0
O70 O 0.5796 0.91662 0.47056 0.0
Mg71 Mg 0.60707 0.91024 0.5686 0.0
O72 O 0.56923 0.86401 0.55425 0.0
O73 O 0.58208 0.93128 0.60439 0.0
O74 O 0.62867 0.93389 0.50465 0.0
O75 O 0.61116 0.87075 0.59793 0.0
C76 C 0.45984 0.80993 0.53888 0.0
C77 C 0.52507 0.82161 0.41976 0.0
C78 C 0.48225 0.89124 0.43896 0.0
C79 C 0.55411 0.92937 0.59561 0.0
C80 C 0.61133 0.9354 0.47168 0.0
C81 C 0.58326 0.85086 0.57809 0.0
O82 O 0.45008 0.80428 0.49734 0.0
O83 O 0.48878 0.83379 0.54947 0.0
O84 O 0.68947 0.63234 0.66419 0.0
Mg85 Mg 0.68848 0.60965 0.72854 0.0
O86 O 0.65421 0.58294 0.6352 0.0
Mg87 Mg 0.65131 0.53813 0.6735 0.0
O88 O 0.69571 0.56999 0.71858 0.0
O89 O 0.7304 0.61285 0.7611 0.0
O90 O 0.64385 0.49183 0.71247 0.0
O91 O 0.69123 0.53649 0.62423 0.0
Mg92 Mg 0.63144 0.48629 0.60799 0.0
O93 O 0.60318 0.5064 0.63055 0.0
O94 O 0.64106 0.45785 0.65716 0.0
O95 O 0.66679 0.51685 0.55853 0.0
O96 O 0.58391 0.46142 0.58482 0.0
C97 C 0.61616 0.56103 0.75721 0.0
C98 C 0.66849 0.61461 0.63364 0.0
C99 C 0.72217 0.58413 0.74374 0.0
C100 C 0.64126 0.46431 0.69961 0.0
C101 C 0.6933 0.53084 0.5817 0.0
C102 C 0.57963 0.4838 0.60531 0.0
O103 O 0.64222 0.58908 0.76394 0.0
O104 O 0.6153 0.54083 0.72651 0.0
O105 O 0.12708 0.66794 0.73205 0.0
Mg106 Mg 0.12455 0.63325 0.78113 0.0
O107 O 0.14242 0.69051 0.79944 0.0
Mg108 Mg 0.10015 0.65012 0.84842 0.0
O109 O 0.07798 0.60054 0.80452 0.0
O110 O 0.10702 0.58806 0.75348 0.0
O111 O 0.0612 0.61482 0.90186 0.0
O112 O 0.05943 0.65833 0.81407 0.0
Mg113 Mg 0.07244 0.69106 0.91509 0.0
O114 O 0.11548 0.69347 0.89466 0.0
O115 O 0.04609 0.64396 0.94743 0.0
O116 O 0.04916 0.69362 0.85329 0.0
O117 O 0.11672 0.73105 0.94207 0.0
C118 C 0.1643 0.63985 0.86362 0.0
C119 C 0.14589 0.69309 0.75578 0.0
C120 C 0.08004 0.57966 0.77658 0.0
C121 C 0.04425 0.61659 0.93561 0.0
C122 C 0.04411 0.67487 0.81862 0.0
C123 C 0.13275 0.7202 0.91779 0.0
O124 O 0.16692 0.64198 0.82019 0.0
O125 O 0.13968 0.64015 0.88333 0.0
C126 C 0.33337 -0.0016 0.90748 0.0
C127 C 0.35174 0.00968 0.94837 0.0
C128 C 0.31665 0.96421 0.89726 0.0
C129 C 0.27432 0.88711 0.95926 0.0
H130 H 0.27851 0.84124 0.84977 0.0
C131 C 0.18898 0.74997 0.952 0.0
C132 C 0.16887 0.74062 0.91266 0.0
C133 C 0.21999 0.77904 0.95155 0.0
C134 C 0.27718 0.85376 0.88056 0.0
H135 H 0.36819 -0.00456 0.00987 0.0
H136 H 0.33861 0.93619 0.99269 0.0
H137 H 0.31414 0.90204 0.85555 0.0
H138 H 0.166 0.75154 0.84095 0.0
H139 H 0.21957 0.80284 0.84024 0.0
H140 H 0.23671 0.83994 0.98395 0.0
C141 C 0.33737 0.95328 0.96822 0.0
C142 C 0.29734 0.88843 0.88364 0.0
C143 C 0.35428 0.98706 0.97792 0.0
C144 C 0.18153 0.75823 0.87144 0.0
C145 C 0.21223 0.78772 0.87117 0.0
C146 C 0.25412 0.85278 0.9561 0.0
C147 C 0.31779 0.94144 0.92846 0.0
C148 C 0.29604 0.90522 0.92314 0.0
C149 C 0.23049 0.79966 0.91223 0.0
C150 C 0.25528 0.83558 0.91681 0.0
H151 H 0.33111 0.01566 0.88451 0.0
H152 H 0.30149 0.9554 0.86647 0.0
H153 H 0.27259 0.89966 0.98982 0.0
H154 H 0.17945 0.73654 0.98414 0.0
H155 H 0.23409 0.78707 0.98332 0.0
C156 C 0.32853 0.33011 0.1608 0.0
C157 C 0.32248 0.34754 0.12606 0.0
C158 C 0.34596 0.31352 0.15135 0.0
C159 C 0.40081 0.30171 0.07062 0.0
H160 H 0.35788 0.21482 0.12936 0.0
C161 C 0.41379 0.18386 0.03564 0.0
C162 C 0.40899 0.1643 0.07493 0.0
C163 C 0.41581 0.21498 0.04003 0.0
C164 C 0.37056 0.23923 0.11332 0.0
H165 H 0.332 0.36344 0.05476 0.0
H166 H 0.36112 0.33188 0.03695 0.0
H167 H 0.33324 0.25007 0.13669 0.0
H168 H 0.40793 0.16318 0.14942 0.0
H169 H 0.41265 0.21788 0.15731 0.0
H170 H 0.43756 0.28941 0.04577 0.0
C171 C 0.35246 0.33161 0.07175 0.0
C172 C 0.35633 0.25941 0.11733 0.0
C173 C 0.33546 0.34917 0.08166 0.0
C174 C 0.41134 0.17793 0.11873 0.0
C175 C 0.41405 0.20916 0.12316 0.0
C176 C 0.41499 0.28101 0.06601 0.0
C177 C 0.35718 0.31305 0.10653 0.0
C178 C 0.37159 0.29119 0.09709 0.0
C179 C 0.41325 0.22651 0.0838 0.0
C180 C 0.40027 0.24991 0.08835 0.0
H181 H 0.32031 0.32983 0.19592 0.0
H182 H 0.35032 0.3006 0.17933 0.0
H183 H 0.413 0.32607 0.05451 0.0
H184 H 0.41191 0.17354 0.00156 0.0
H185 H 0.41532 0.22795 0.00921 0.0
C186 C 0.97607 0.30319 0.26481 0.0
C187 C 0.96304 0.32404 0.27588 0.0
C188 C 0.00967 0.31693 0.25235 0.0
C189 C 0.08938 0.3974 0.23268 0.0
H190 H 0.1258 0.35125 0.30249 0.0
C191 C 0.22575 0.42411 0.22474 0.0
C192 C 0.23711 0.41353 0.26243 0.0
C193 C 0.19437 0.42186 0.2265 0.0
C194 C 0.11616 0.36488 0.28355 0.0
H195 H 0.97409 0.37526 0.28003 0.0
H196 H 0.03236 0.39923 0.25885 0.0
H197 H 0.06601 0.32684 0.29585 0.0
H198 H 0.22808 0.39808 0.33393 0.0
H199 H 0.17412 0.39576 0.33793 0.0
H200 H 0.14009 0.43607 0.22192 0.0
C201 C 0.01684 0.37237 0.25839 0.0
C202 C 0.08172 0.35036 0.27863 0.0
C203 C 0.98318 0.3586 0.27012 0.0
C204 C 0.21938 0.40574 0.30413 0.0
C205 C 0.1884 0.40413 0.30622 0.0
C206 C 0.12406 0.41213 0.2379 0.0
C207 C 0.03091 0.35175 0.25206 0.0
C208 C 0.0678 0.36631 0.25306 0.0
C209 C 0.17441 0.40943 0.26627 0.0
C210 C 0.13779 0.39603 0.26357 0.0
H211 H 0.96098 0.27644 0.26913 0.0
H212 H 0.01953 0.3003 0.24629 0.0
H213 H 0.07949 0.41036 0.21273 0.0
H214 H 0.23913 0.43029 0.1923 0.0
H215 H 0.18451 0.42647 0.19524 0.0
C216 C 0.79679 0.21577 0.45083 0.0
C217 C 0.81211 0.23293 0.41007 0.0
C218 C 0.76577 0.18663 0.44921 0.0
C219 C 0.72593 0.11772 0.37083 0.0
H220 H 0.65687 0.08017 0.46462 0.0
C221 C 0.66074 0.98115 0.43115 0.0
C222 C 0.62673 0.96573 0.44298 0.0
C223 C 0.67751 0.01428 0.41607 0.0
C224 C 0.67562 0.09039 0.43764 0.0
H225 H 0.80709 0.23465 0.33661 0.0
H226 H 0.7524 0.18385 0.33332 0.0
H227 H 0.69446 0.14046 0.46157 0.0
H228 H 0.58355 0.97261 0.44754 0.0
H229 H 0.61261 0.03007 0.42059 0.0
H230 H 0.70829 0.06759 0.34844 0.0
C231 C 0.76408 0.19295 0.36652 0.0
C232 C 0.6972 0.12484 0.43609 0.0
C233 C 0.79497 0.22223 0.36832 0.0
C234 C 0.60939 0.98336 0.43691 0.0
C235 C 0.62619 0.01652 0.42242 0.0
C236 C 0.70462 0.08331 0.37268 0.0
C237 C 0.75002 0.17398 0.40664 0.0
C238 C 0.72308 0.13876 0.40333 0.0
C239 C 0.66065 0.03264 0.41342 0.0
C240 C 0.67979 0.06924 0.40677 0.0
H241 H 0.80979 0.22366 0.48345 0.0
H242 H 0.75568 0.17251 0.4807 0.0
H243 H 0.74596 0.12761 0.34562 0.0
H244 H 0.67477 0.96829 0.43627 0.0
H245 H 0.70417 0.02619 0.40971 0.0
C246 C 0.57374 0.80063 0.62128 0.0
C247 C 0.57006 0.81479 0.58053 0.0
C248 C 0.57026 0.76887 0.62071 0.0
C249 C 0.59253 0.72473 0.53959 0.0
H250 H 0.56917 0.66115 0.63934 0.0
C251 C 0.66931 0.66295 0.5934 0.0
C252 C 0.65183 0.62953 0.60749 0.0
C253 C 0.65179 0.67916 0.5802 0.0
C254 C 0.57535 0.67834 0.61077 0.0
H255 H 0.5577 0.80634 0.50833 0.0
H256 H 0.5508 0.75063 0.50717 0.0
H257 H 0.5456 0.69834 0.63785 0.0
H258 H 0.60248 0.58689 0.6185 0.0
H259 H 0.57215 0.61493 0.59494 0.0
H260 H 0.6237 0.70602 0.51393 0.0
C261 C 0.55629 0.76392 0.53958 0.0
C262 C 0.56196 0.69965 0.61005 0.0
C263 C 0.5597 0.79563 0.5403 0.0
C264 C 0.61667 0.6122 0.6059 0.0
C265 C 0.59923 0.62843 0.59336 0.0
C266 C 0.60614 0.70369 0.54057 0.0
C267 C 0.56352 0.75112 0.57912 0.0
C268 C 0.57117 0.72367 0.57511 0.0
C269 C 0.61661 0.66231 0.58184 0.0
C270 C 0.5984 0.68096 0.5768 0.0
H271 H 0.58168 0.81504 0.6528 0.0
H272 H 0.57607 0.75974 0.65175 0.0
H273 H 0.60055 0.74334 0.51259 0.0
H274 H 0.69636 0.67697 0.59511 0.0
H275 H 0.66576 0.70544 0.5718 0.0
C276 C -0.00561 0.68045 0.79963 0.0
C277 C 0.01396 0.66553 0.79047 0.0
C278 C 0.96109 0.66509 0.78581 0.0
C279 C 0.89137 0.58107 0.76147 0.0
H280 H 0.8452 0.63058 0.73855 0.0
C281 C 0.75412 0.55774 0.71385 0.0
C282 C 0.74388 0.56971 0.7513 0.0
C283 C 0.78382 0.55652 0.71657 0.0
C284 C 0.85789 0.61646 0.74454 0.0
H285 H 0.01506 0.62492 0.7544 0.0
H286 H 0.95704 0.59868 0.72883 0.0
H287 H 0.90599 0.65969 0.73837 0.0
H288 H 0.75278 0.58422 0.82307 0.0
H289 H 0.80446 0.58185 0.82787 0.0
H290 H 0.84238 0.53779 0.768 0.0
C291 C 0.96718 0.62159 0.74837 0.0
C292 C 0.89264 0.6331 0.74471 0.0
C293 C 0.00059 0.63693 0.76248 0.0
C294 C 0.76053 0.57528 0.79359 0.0
C295 C 0.78988 0.57362 0.79649 0.0
C296 C 0.85629 0.56429 0.76102 0.0
C297 C 0.94667 0.63472 0.7617 0.0
C298 C 0.9099 0.61586 0.75434 0.0
C299 C 0.80302 0.56686 0.75695 0.0
C300 C 0.83953 0.58217 0.7534 0.0
H301 H 0.00387 0.70258 0.82082 0.0
H302 H 0.94612 0.67593 0.79697 0.0
H303 H 0.90388 0.56709 0.76948 0.0
H304 H 0.74175 0.55355 0.68092 0.0
H305 H 0.79378 0.55153 0.68561 0.0
C306 C 0.44803 0.06002 0.16446 0.0
C307 C 0.4327 0.03765 0.12824 0.0
C308 C 0.46111 0.05137 0.20158 0.0
C309 C 0.48769 -0.00766 0.24153 0.0
H310 H 0.46898 0.01614 0.36183 0.0
C311 C 0.51999 0.94378 0.40001 0.0
C312 C 0.4912 0.92521 0.42673 0.0
C313 C 0.52184 0.96832 0.37014 0.0
C314 C 0.47469 0.00958 0.32853 0.0
H315 H 0.41934 -0.01084 0.10068 0.0
H316 H 0.44186 0.97326 0.1669 0.0
H317 H 0.45111 0.03271 0.29292 0.0
H318 H 0.44371 0.91966 0.44799 0.0
H319 H 0.44671 0.9624 0.39639 0.0
H320 H 0.50907 0.96705 0.27739 0.0
C321 C 0.44411 -0.00228 0.16631 0.0
C322 C 0.46461 0.01921 0.28895 0.0
C323 C 0.43103 0.00657 0.12875 0.0
C324 C 0.46628 0.93412 0.4279 0.0
C325 C 0.46808 0.9586 0.39817 0.0
C326 C 0.4975 0.98241 0.28122 0.0
C327 C 0.45885 0.01997 0.20343 0.0
C328 C 0.47066 0.01039 0.24504 0.0
C329 C 0.4947 0.97414 0.3666 0.0
C330 C 0.49053 -0.00959 0.32518 0.0
H331 H 0.44965 0.08424 0.16416 0.0
H332 H 0.4729 0.06932 0.22901 0.0
H333 H 0.49304 0.98551 0.20818 0.0
H334 H 0.53898 0.93649 0.39778 0.0
H335 H 0.54294 0.98036 0.34679 0.0
C336 C 0.40384 0.41697 0.30272 0.0
C337 C 0.39865 0.44034 0.27861 0.0
C338 C 0.42555 0.42688 0.33999 0.0
C339 C 0.4568 0.49088 0.4293 0.0
H340 H 0.5045 0.44536 0.46675 0.0
C341 C 0.55355 0.51522 0.57469 0.0
C342 C 0.54969 0.48572 0.59408 0.0
C343 C 0.52931 0.51399 0.54468 0.0
C344 C 0.49087 0.45793 0.45685 0.0
H345 H 0.41479 0.49289 0.27113 0.0
H346 H 0.45352 0.5104 0.33617 0.0
H347 H 0.48225 0.43751 0.38916 0.0
H348 H 0.51573 0.43308 0.60445 0.0
H349 H 0.47322 0.43092 0.55229 0.0
H350 H 0.46675 0.51208 0.49738 0.0
C351 C 0.43999 0.48428 0.3269 0.0
C352 C 0.47835 0.45362 0.41239 0.0
C353 C 0.41818 0.47432 0.28937 0.0
C354 C 0.51916 0.45607 0.58951 0.0
C355 C 0.49488 0.45487 0.55982 0.0
C356 C 0.46991 0.49563 0.47389 0.0
C357 C 0.44271 0.46042 0.35375 0.0
C358 C 0.46047 0.46937 0.3984 0.0
C359 C 0.50135 0.48318 0.53406 0.0
C360 C 0.48625 0.47844 0.48817 0.0
H361 H 0.38941 0.39065 0.29479 0.0
H362 H 0.42695 0.40779 0.35993 0.0
H363 H 0.44283 0.50311 0.4196 0.0
H364 H 0.57722 0.53809 0.57708 0.0
H365 H 0.53475 0.53607 0.52505 0.0
C366 C 0.05501 0.52113 0.75278 0.0
C367 C 0.05049 0.54798 0.76501 0.0
C368 C 0.03347 0.49766 0.72135 0.0
C369 C 0.96228 0.46799 0.64477 0.0
H370 H 0.03002 0.49114 0.54985 0.0
C371 C 0.927 0.41391 0.46297 0.0
C372 C 0.94325 0.39579 0.45249 0.0
C373 C 0.93919 0.43762 0.49812 0.0
C374 C 0.01085 0.48462 0.57588 0.0
H375 H 0.01705 0.56826 0.76166 0.0
H376 H 0.97944 0.52725 0.70581 0.0
H377 H 0.04658 0.51356 0.62729 0.0
H378 H 0.98676 0.39068 0.466 0.0
H379 H 0.00832 0.43229 0.5267 0.0
H380 H 0.92662 0.43806 0.59347 0.0
C381 C -0.00046 0.52439 0.72032 0.0
C382 C 0.02028 0.49711 0.62017 0.0
C383 C 0.02101 0.54778 0.75229 0.0
C384 C 0.97357 0.40402 0.47408 0.0
C385 C 0.986 0.42802 0.50855 0.0
C386 C 0.95278 0.4552 0.60028 0.0
C387 C 0.00757 0.50119 0.70176 0.0
C388 C -0.00379 0.4881 0.6552 0.0
C389 C 0.96805 0.44381 0.52239 0.0
C390 C 0.97715 0.46272 0.56588 0.0
H391 H 0.07744 0.52066 0.76286 0.0
H392 H 0.03962 0.47946 0.70793 0.0
H393 H 0.94339 0.46128 0.67126 0.0
H394 H 0.90363 0.40806 0.44648 0.0
H395 H 0.92521 0.44985 0.50788 0.0
C396 C 0.51832 0.95436 0.61836 0.0
C397 C 0.54089 0.94334 0.62988 0.0
C398 C 0.50512 0.96578 0.65297 0.0
C399 C 0.52207 -0.00345 0.77253 0.0
H400 H 0.42658 0.96227 0.78474 0.0
C401 C 0.48098 0.022 0.93668 0.0
C402 C 0.46673 0.04218 0.92894 0.0
C403 C 0.47855 -0.00053 0.90292 0.0
C404 C 0.45325 0.97181 0.78172 0.0
H405 H 0.56643 0.93448 0.68627 0.0
H406 H 0.54313 0.9533 0.74577 0.0
H407 H 0.44896 0.95037 0.7146 0.0
H408 H 0.4328 0.04988 0.88604 0.0
H409 H 0.42958 0.01158 0.82614 0.0
H410 H 0.5269 0.01788 0.83886 0.0
C411 C 0.53642 0.95446 0.71033 0.0
C412 C 0.46607 0.96543 0.74146 0.0
C413 C 0.54979 0.94364 0.67613 0.0
C414 C 0.44425 0.03464 0.89232 0.0
C415 C 0.4426 0.01282 0.85776 0.0
C416 C 0.50938 0.00262 0.81248 0.0
C417 C 0.51415 0.96585 0.6993 0.0
C418 C 0.50054 0.977 0.73723 0.0
C419 C 0.46272 -0.00208 0.86082 0.0
C420 C 0.47478 -0.01041 0.81821 0.0
H421 H 0.51106 0.95424 0.58285 0.0
H422 H 0.48807 0.97459 0.64363 0.0
H423 H 0.54884 0.00657 0.76969 0.0
H424 H 0.49815 0.02723 0.96504 0.0
H425 H 0.49318 0.98712 0.90687 0.0
C426 C 0.45013 0.49855 0.0972 0.0
C427 C 0.41647 0.47521 0.08974 0.0
C428 C 0.47441 0.49951 0.06753 0.0
C429 C 0.48962 0.46729 0.95861 0.0
H430 H 0.51878 0.55776 0.91839 0.0
C431 C 0.55907 0.51879 0.78578 0.0
C432 C 0.58803 0.55016 0.78984 0.0
C433 C 0.53538 0.50659 0.82134 0.0
C434 C 0.51116 0.53255 0.92924 0.0
H435 H 0.38215 0.43041 0.0533 0.0
H436 H 0.42432 0.43252 0.00054 0.0
H437 H 0.48946 0.5382 0.99097 0.0
H438 H 0.61372 0.59415 0.83294 0.0
H439 H 0.5734 0.57276 0.89464 0.0
H440 H 0.5119 0.462 0.89658 0.0
C441 C 0.4323 0.45006 0.02883 0.0
C442 C 0.49463 0.52141 0.97109 0.0
C443 C 0.40814 0.44872 0.05928 0.0
C444 C 0.59178 0.56986 0.82861 0.0
C445 C 0.56843 0.55761 0.86406 0.0
C446 C 0.50673 0.47867 0.91671 0.0
C447 C 0.46478 0.47757 0.02988 0.0
C448 C 0.48428 0.48892 0.9867 0.0
C449 C 0.5404 0.52556 0.86143 0.0
C450 C 0.51823 0.51167 0.90211 0.0
H451 H 0.45698 0.51908 0.12083 0.0
H452 H 0.49965 0.52039 0.06977 0.0
H453 H 0.48108 0.44188 0.96941 0.0
H454 H 0.55533 0.50317 0.75606 0.0
H455 H 0.51365 0.48205 0.81801 0.0
C456 C 0.00766 0.59007 0.00354 0.0
C457 C 0.02439 0.58711 0.9649 0.0
C458 C -0.00539 0.56522 0.03681 0.0
C459 C 0.0116 0.50197 0.08442 0.0
H460 H 0.93952 0.48887 0.16638 0.0
C461 C 0.94667 0.40963 0.2348 0.0
C462 C 0.93289 0.42167 0.26764 0.0
C463 C 0.96877 0.43124 0.20164 0.0
C464 C 0.9601 0.49279 0.14411 0.0
H465 H 0.03677 0.55386 0.9278 0.0
H466 H 0.01305 0.5097 0.98601 0.0
H467 H 0.94563 0.51609 0.09272 0.0
H468 H 0.93687 0.46585 0.29908 0.0
H469 H 0.97642 0.50385 0.24228 0.0
H470 H 0.02496 0.47719 0.13596 0.0
C471 C 0.01129 0.53198 0.99118 0.0
C472 C 0.96339 0.50808 0.10172 0.0
C473 C 0.02469 0.55716 0.95781 0.0
C474 C 0.94713 0.45611 0.27377 0.0
C475 C 0.96949 0.47778 0.24096 0.0
C476 C 0.00786 0.48598 0.12677 0.0
C477 C -0.00249 0.5365 0.032 0.0
C478 C -0.01012 0.51396 0.07205 0.0
C479 C 0.97716 0.46483 0.20191 0.0
C480 C 0.98279 0.48239 0.15756 0.0
H481 H 0.00641 0.61254 0.00977 0.0
H482 H 0.98437 0.56977 0.06782 0.0
H483 H 0.03235 0.50621 0.06238 0.0
H484 H 0.93574 0.38305 0.22934 0.0
H485 H 0.97471 0.42075 0.17212 0.0
C486 C 0.45808 0.18937 0.84926 0.0
C487 C 0.45874 0.18596 0.89719 0.0
C488 C 0.47301 0.22105 0.82935 0.0
C489 C 0.54655 0.29907 0.85224 0.0
H490 H 0.51947 0.33433 0.75009 0.0
C491 C 0.635 0.41139 0.73275 0.0
C492 C 0.62551 0.43594 0.73131 0.0
C493 C 0.61462 0.3811 0.75539 0.0
C494 C 0.52729 0.32459 0.77852 0.0
H495 H 0.47214 0.21225 0.96228 0.0
H496 H 0.49855 0.26761 0.92748 0.0
H497 H 0.47866 0.28153 0.78596 0.0
H498 H 0.58752 0.44826 0.75133 0.0
H499 H 0.55173 0.39529 0.78932 0.0
H500 H 0.59536 0.34187 0.84419 0.0
C501 C 0.48643 0.24597 0.90533 0.0
C502 C 0.504 0.2946 0.799 0.0
C503 C 0.47076 0.21431 0.92522 0.0
C504 C 0.59588 0.4301 0.75324 0.0
C505 C 0.57516 0.39967 0.77435 0.0
C506 C 0.56999 0.32879 0.83124 0.0
C507 C 0.48935 0.24949 0.85723 0.0
C508 C 0.51333 0.28184 0.83644 0.0
C509 C 0.58404 0.37476 0.77498 0.0
C510 C 0.56038 0.34195 0.79464 0.0
H511 H 0.44933 0.16777 0.82714 0.0
H512 H 0.47481 0.2232 0.79215 0.0
H513 H 0.5545 0.28928 0.88046 0.0
H514 H 0.65744 0.41524 0.71521 0.0
H515 H 0.62186 0.36208 0.75564 0.0
C516 C 0.18816 0.63237 0.93738 0.0
C517 C 0.18527 0.62947 0.88929 0.0
C518 C 0.2015 0.6156 0.96201 0.0
C519 C 0.24121 0.56204 0.94768 0.0
H520 H 0.18791 0.51732 0.0557 0.0
C521 C 0.24366 0.44932 0.02071 0.0
C522 C 0.25202 0.45222 0.06762 0.0
C523 C 0.23193 0.46929 0.00149 0.0
C524 C 0.20305 0.52968 0.02569 0.0
H525 H 0.19623 0.60875 0.82893 0.0
H526 H 0.21774 0.57858 0.87146 0.0
H527 H 0.18162 0.56117 0.01868 0.0
H528 H 0.25031 0.47477 0.13235 0.0
H529 H 0.22949 0.50922 0.09897 0.0
H530 H 0.26193 0.52981 0.95412 0.0
C531 C 0.21078 0.59433 0.89059 0.0
C532 C 0.1998 0.55516 0.0047 0.0
C533 C 0.19823 0.61164 0.86604 0.0
C534 C 0.24373 0.47166 0.09617 0.0
C535 C 0.23221 0.49182 0.07688 0.0
C536 C 0.24417 0.53634 0.96837 0.0
C537 C 0.21138 0.595 0.93902 0.0
C538 C 0.21841 0.57131 0.96493 0.0
C539 C 0.22834 0.4924 0.02893 0.0
C540 C 0.22469 0.51947 0.00712 0.0
H541 H 0.17876 0.64633 0.95606 0.0
H542 H 0.20259 0.61755 -0.00079 0.0
H543 H 0.25656 0.57435 0.91781 0.0
H544 H 0.24981 0.4345 -0.00198 0.0
H545 H 0.22812 0.46847 0.96458 0.0
C546 C 0.56761 0.21389 0.06959 0.0
C547 C 0.53918 0.18305 0.07882 0.0
C548 C 0.59495 0.22653 0.09918 0.0
C549 C 0.634 0.19085 0.16964 0.0
H550 H 0.70274 0.28324 0.18358 0.0
C551 C 0.76823 0.24366 0.24891 0.0
C552 C 0.79371 0.26814 0.22132 0.0
C553 C 0.73473 0.22972 0.23586 0.0
C554 C 0.68366 0.25734 0.17991 0.0
H555 H 0.5152 0.14291 0.12834 0.0
H556 H 0.56313 0.16511 0.18058 0.0
H557 H 0.64615 0.26981 0.1617 0.0
H558 H 0.80416 0.29342 0.15504 0.0
H559 H 0.74583 0.26997 0.13337 0.0
H560 H 0.67193 0.17862 0.18726 0.0
C561 C 0.56442 0.17937 0.15025 0.0
C562 C 0.65133 0.24966 0.16763 0.0
C563 C 0.53684 0.16689 0.12074 0.0
C564 C 0.7852 0.27506 0.17766 0.0
C565 C 0.75181 0.26193 0.1653 0.0
C566 C 0.66629 0.19857 0.18244 0.0
C567 C 0.5944 0.20829 0.1383 0.0
C568 C 0.62638 0.21635 0.16098 0.0
C569 C 0.72636 0.24045 0.19537 0.0
C570 C 0.69153 0.23186 0.18623 0.0
H571 H 0.56988 0.22671 0.03734 0.0
H572 H 0.6176 0.24882 0.08883 0.0
H573 H 0.61556 0.16498 0.16398 0.0
H574 H 0.77367 0.23773 0.28255 0.0
H575 H 0.71536 0.21276 0.25923 0.0
C576 C 0.5257 0.78368 0.36051 0.0
C577 C 0.52151 0.78933 0.40685 0.0
C578 C 0.50664 0.75193 0.34169 0.0
C579 C 0.44319 0.66338 0.36511 0.0
H580 H 0.4055 0.67496 0.25188 0.0
C581 C 0.34346 0.55047 0.26102 0.0
C582 C 0.35124 0.5527 0.21381 0.0
C583 C 0.35964 0.57878 0.28926 0.0
C584 C 0.41578 0.67118 0.28338 0.0
H585 H 0.49758 0.76575 0.47126 0.0
H586 H 0.46408 0.71047 0.4384 0.0
H587 H 0.4485 0.72339 0.29149 0.0
H588 H 0.3816 0.58654 0.15924 0.0
H589 H 0.41004 0.63452 0.20778 0.0
H590 H 0.4107 0.61085 0.35609 0.0
C591 C 0.48208 0.73027 0.41651 0.0
C592 C 0.4407 0.69898 0.30592 0.0
C593 C 0.50166 0.76195 0.4355 0.0
C594 C 0.37436 0.58386 0.19522 0.0
C595 C 0.39077 0.61166 0.22324 0.0
C596 C 0.41831 0.63534 0.34217 0.0
C597 C 0.48267 0.72555 0.36877 0.0
C598 C 0.4555 0.69541 0.34624 0.0
C599 C 0.38413 0.60953 0.27072 0.0
C600 C 0.40515 0.63891 0.30017 0.0
H601 H 0.54078 0.80443 0.33777 0.0
H602 H 0.50851 0.74873 0.30503 0.0
H603 H 0.45364 0.65986 0.39661 0.0
H604 H 0.32571 0.52678 0.27625 0.0
H605 H 0.35368 0.57643 0.32566 0.0
C606 C 0.80004 0.35631 0.43839 0.0
C607 C 0.78576 0.34345 0.39538 0.0
C608 C 0.78831 0.37351 0.46496 0.0
C609 C 0.74066 0.41877 0.44594 0.0
H610 H 0.77224 0.44861 0.56973 0.0
C611 C 0.72842 0.52648 0.52 0.0
C612 C 0.71986 0.52407 0.56678 0.0
C613 C 0.74126 0.50704 0.50197 0.0
C614 C 0.76262 0.44044 0.53538 0.0
H615 H 0.7446 0.33326 0.34982 0.0
H616 H 0.72187 0.36022 0.39822 0.0
H617 H 0.77406 0.40126 0.53939 0.0
H618 H 0.72106 0.50214 0.63224 0.0
H619 H 0.74127 0.46733 0.60128 0.0
H620 H 0.72569 0.45551 0.44386 0.0
C621 C 0.74392 0.35978 0.41002 0.0
C622 C 0.76435 0.41334 0.51735 0.0
C623 C 0.75646 0.3436 0.38258 0.0
C624 C 0.72787 0.50491 0.59609 0.0
C625 C 0.7394 0.48455 0.57792 0.0
C626 C 0.73748 0.44486 0.46475 0.0
C627 C 0.76126 0.37727 0.44983 0.0
C628 C 0.75429 0.40256 0.47182 0.0
C629 C 0.74441 0.4838 0.53011 0.0
C630 C 0.74902 0.45664 0.50951 0.0
H631 H 0.82263 0.35648 0.44924 0.0
H632 H 0.80267 0.38619 0.49513 0.0
H633 H 0.73306 0.41212 0.41052 0.0
H634 H 0.72252 0.54118 0.49674 0.0
H635 H 0.7465 0.50871 0.46541 0.0
C636 C 0.42334 0.82099 0.58778 0.0
C637 C 0.43325 0.79819 0.57356 0.0
C638 C 0.39265 0.80997 0.60941 0.0
C639 C 0.32639 0.7459 0.67702 0.0
H640 H 0.27111 0.77615 0.61622 0.0
C641 C 0.20738 0.73068 0.76347 0.0
C642 C 0.17866 0.717 0.73561 0.0
C643 C 0.23901 0.74281 0.74368 0.0
C644 C 0.2861 0.76736 0.63353 0.0
H645 H 0.4198 0.74622 0.57193 0.0
H646 H 0.36636 0.72683 0.61335 0.0
H647 H 0.32491 0.78921 0.58277 0.0
H648 H 0.16093 0.7088 0.66514 0.0
H649 H 0.21605 0.73021 0.6306 0.0
H650 H 0.28757 0.72397 0.72782 0.0
C651 C 0.38233 0.7532 0.60681 0.0
C652 C 0.31693 0.77493 0.61447 0.0
C653 C 0.41285 0.76422 0.58366 0.0
C654 C 0.18259 0.71911 0.68748 0.0
C655 C 0.21422 0.73125 0.6677 0.0
C656 C 0.29556 0.73846 0.69632 0.0
C657 C 0.3715 0.77596 0.61816 0.0
C658 C 0.33756 0.76475 0.63641 0.0
C659 C 0.24258 0.74173 0.69569 0.0
C660 C 0.27527 0.74953 0.6751 0.0
H661 H 0.43824 0.84718 0.57899 0.0
H662 H 0.38489 0.82797 0.61795 0.0
H663 H 0.34189 0.73778 0.69446 0.0
H664 H 0.20532 0.72928 0.80067 0.0
H665 H 0.26051 0.75161 0.76611 0.0
loop_
_geom_bond_atom_site_label_1
_geom_bond_atom_site_label_2
_geom_bond_distance
_geom_bond_site_symmetry_2
_ccdc_geom_bond_type
O0 Mg1 1.990 . S
O0 C14 1.253 1_554 S
Mg1 O0 1.990 . S
Mg1 O4 2.180 . S
Mg1 O5 2.117 . S
Mg1 O19 2.030 . S
O2 Mg3 2.072 1_556 S
O2 C14 1.260 . S
Mg3 O2 2.072 1_554 S
Mg3 O4 2.099 . S
Mg3 O6 2.079 . S
Mg3 O7 2.072 1_554 S
Mg3 O9 2.099 1_554 S
Mg3 O20 2.079 . S
O4 Mg1 2.180 . S
O4 Mg3 2.099 . S
O4 C15 1.279 . S
O5 Mg1 2.117 . S
O5 C15 1.250 . S
O6 Mg3 2.079 . S
O6 C16 1.264 . S
O7 Mg3 2.072 1_556 S
O7 C17 1.260 . S
Mg8 O9 2.180 . S
Mg8 O10 2.030 . S
Mg8 O11 1.990 . S
Mg8 O12 2.117 . S
O9 Mg3 2.099 1_556 S
O9 Mg8 2.180 . S
O9 C18 1.279 . S
O10 Mg8 2.030 . S
O10 C16 1.248 1_556 S
O11 Mg8 1.990 . S
O11 C17 1.253 . S
O12 Mg8 2.117 . S
O12 C18 1.250 . S
C13 O19 1.248 . S
C13 O20 1.264 . S
C14 O0 1.253 1_556 S
C14 O2 1.260 . S
C15 O4 1.279 . S
C15 O5 1.250 . S
C16 O6 1.264 . S
C16 O10 1.248 1_554 S
C17 O7 1.260 . S
C17 O11 1.253 . S
C18 O9 1.279 . S
C18 O12 1.250 . S
O19 Mg1 2.030 . S
O19 C13 1.248 . S
O20 Mg3 2.079 . S
O20 C13 1.264 . S
O21 Mg22 1.990 . S
O21 C35 1.253 . S
Mg22 O21 1.990 . S
Mg22 O25 2.180 . S
Mg22 O26 2.117 . S
Mg22 O40 2.030 . S
O23 Mg24 2.072 . S
O23 C35 1.260 . S
Mg24 O23 2.072 . S
Mg24 O25 2.099 . S
Mg24 O27 2.079 . S
Mg24 O28 2.072 . S
Mg24 O30 2.099 . S
Mg24 O41 2.079 . S
O25 Mg22 2.180 . S
O25 Mg24 2.099 . S
O25 C36 1.279 . S
O26 Mg22 2.117 . S
O26 C36 1.250 . S
O27 Mg24 2.079 . S
O27 C37 1.264 . S
O28 Mg24 2.072 . S
O28 C38 1.260 . S
Mg29 O30 2.180 . S
Mg29 O31 2.030 . S
Mg29 O32 1.990 . S
Mg29 O33 2.117 . S
O30 Mg24 2.099 . S
O30 Mg29 2.180 . S
O30 C39 1.279 . S
O31 Mg29 2.030 . S
O31 C37 1.248 . S
O32 Mg29 1.990 . S
O32 C38 1.253 . S
O33 Mg29 2.117 . S
O33 C39 1.250 . S
C34 O40 1.248 . S
C34 O41 1.264 . S
C35 O21 1.253 . S
C35 O23 1.260 . S
C36 O25 1.279 . S
C36 O26 1.250 . S
C37 O27 1.264 . S
C37 O31 1.248 . S
C38 O28 1.260 . S
C38 O32 1.253 . S
C39 O30 1.279 . S
C39 O33 1.250 . S
O40 Mg22 2.030 . S
O40 C34 1.248 . S
O41 Mg24 2.079 . S
O41 C34 1.264 . S
O42 Mg43 1.990 . S
O42 C56 1.253 . S
Mg43 O42 1.990 . S
Mg43 O46 2.180 . S
Mg43 O47 2.117 . S
Mg43 O61 2.030 . S
O44 Mg45 2.072 . S
O44 C56 1.260 . S
Mg45 O44 2.072 . S
Mg45 O46 2.099 . S
Mg45 O48 2.079 . S
Mg45 O49 2.072 . S
Mg45 O51 2.099 . S
Mg45 O62 2.079 . S
O46 Mg43 2.180 . S
O46 Mg45 2.099 . S
O46 C57 1.279 . S
O47 Mg43 2.117 . S
O47 C57 1.250 . S
O48 Mg45 2.079 . S
O48 C58 1.264 . S
O49 Mg45 2.072 . S
O49 C59 1.260 . S
Mg50 O51 2.180 . S
Mg50 O52 2.030 . S
Mg50 O53 1.990 . S
Mg50 O54 2.117 . S
O51 Mg45 2.099 . S
O51 Mg50 2.180 . S
O51 C60 1.279 . S
O52 Mg50 2.030 . S
O52 C58 1.248 . S
O53 Mg50 1.990 . S
O53 C59 1.253 . S
O54 Mg50 2.117 . S
O54 C60 1.250 . S
C55 O61 1.248 . S
C55 O62 1.264 . S
C56 O42 1.253 . S
C56 O44 1.260 . S
C57 O46 1.279 . S
C57 O47 1.250 . S
C58 O48 1.264 . S
C58 O52 1.248 . S
C59 O49 1.260 . S
C59 O53 1.253 . S
C60 O51 1.279 . S
C60 O54 1.250 . S
O61 Mg43 2.030 . S
O61 C55 1.248 . S
O62 Mg45 2.079 . S
O62 C55 1.264 . S
O63 Mg64 1.990 . S
O63 C77 1.253 . S
Mg64 O63 1.990 . S
Mg64 O67 2.180 . S
Mg64 O68 2.117 . S
Mg64 O82 2.030 . S
O65 Mg66 2.072 . S
O65 C77 1.260 . S
Mg66 O65 2.072 . S
Mg66 O67 2.099 . S
Mg66 O69 2.079 . S
Mg66 O70 2.072 . S
Mg66 O72 2.099 . S
Mg66 O83 2.079 . S
O67 Mg64 2.180 . S
O67 Mg66 2.099 . S
O67 C78 1.279 . S
O68 Mg64 2.117 . S
O68 C78 1.250 . S
O69 Mg66 2.079 . S
O69 C79 1.264 . S
O70 Mg66 2.072 . S
O70 C80 1.260 . S
Mg71 O72 2.180 . S
Mg71 O73 2.030 . S
Mg71 O74 1.990 . S
Mg71 O75 2.117 . S
O72 Mg66 2.099 . S
O72 Mg71 2.180 . S
O72 C81 1.279 . S
O73 Mg71 2.030 . S
O73 C79 1.248 . S
O74 Mg71 1.990 . S
O74 C80 1.253 . S
O75 Mg71 2.117 . S
O75 C81 1.250 . S
C76 O82 1.248 . S
C76 O83 1.264 . S
C77 O63 1.253 . S
C77 O65 1.260 . S
C78 O67 1.279 . S
C78 O68 1.250 . S
C79 O69 1.264 . S
C79 O73 1.248 . S
C80 O70 1.260 . S
C80 O74 1.253 . S
C81 O72 1.279 . S
C81 O75 1.250 . S
O82 Mg64 2.030 . S
O82 C76 1.248 . S
O83 Mg66 2.079 . S
O83 C76 1.264 . S
O84 Mg85 1.990 . S
O84 C98 1.253 . S
Mg85 O84 1.990 . S
Mg85 O88 2.180 . S
Mg85 O89 2.117 . S
Mg85 O103 2.030 . S
O86 Mg87 2.072 . S
O86 C98 1.260 . S
Mg87 O86 2.072 . S
Mg87 O88 2.099 . S
Mg87 O90 2.079 . S
Mg87 O91 2.072 . S
Mg87 O93 2.099 . S
Mg87 O104 2.079 . S
O88 Mg85 2.180 . S
O88 Mg87 2.099 . S
O88 C99 1.279 . S
O89 Mg85 2.117 . S
O89 C99 1.250 . S
O90 Mg87 2.079 . S
O90 C100 1.264 . S
O91 Mg87 2.072 . S
O91 C101 1.260 . S
Mg92 O93 2.180 . S
Mg92 O94 2.030 . S
Mg92 O95 1.990 . S
Mg92 O96 2.117 . S
O93 Mg87 2.099 . S
O93 Mg92 2.180 . S
O93 C102 1.279 . S
O94 Mg92 2.030 . S
O94 C100 1.248 . S
O95 Mg92 1.990 . S
O95 C101 1.253 . S
O96 Mg92 2.117 . S
O96 C102 1.250 . S
C97 O103 1.248 . S
C97 O104 1.264 . S
C98 O84 1.253 . S
C98 O86 1.260 . S
C99 O88 1.279 . S
C99 O89 1.250 . S
C100 O90 1.264 . S
C100 O94 1.248 . S
C101 O91 1.260 . S
C101 O95 1.253 . S
C102 O93 1.279 . S
C102 O96 1.250 . S
O103 Mg85 2.030 . S
O103 C97 1.248 . S
O104 Mg87 2.079 . S
O104 C97 1.264 . S
O105 Mg106 1.990 . S
O105 C119 1.253 . S
Mg106 O105 1.990 . S
Mg106 O109 2.180 . S
Mg106 O110 2.117 . S
Mg106 O124 2.030 . S
O107 Mg108 2.072 . S
O107 C119 1.260 . S
Mg108 O107 2.072 . S
Mg108 O109 2.099 . S
Mg108 O111 2.079 . S
Mg108 O112 2.072 . S
Mg108 O114 2.099 . S
Mg108 O125 2.079 . S
O109 Mg106 2.180 . S
O109 Mg108 2.099 . S
O109 C120 1.279 . S
O110 Mg106 2.117 . S
O110 C120 1.250 . S
O111 Mg108 2.079 . S
O111 C121 1.264 . S
O112 Mg108 2.072 . S
O112 C122 1.260 . S
Mg113 O114 2.180 . S
Mg113 O115 2.030 . S
Mg113 O116 1.990 . S
Mg113 O117 2.117 . S
O114 Mg108 2.099 . S
O114 Mg113 2.180 . S
O114 C123 1.279 . S
O115 Mg113 2.030 . S
O115 C121 1.248 . S
O116 Mg113 1.990 . S
O116 C122 1.253 . S
O117 Mg113 2.117 . S
O117 C123 1.250 . S
C118 O124 1.248 . S
C118 O125 1.264 . S
C119 O105 1.253 . S
C119 O107 1.260 . S
C120 O109 1.279 . S
C120 O110 1.250 . S
C121 O111 1.264 . S
C121 O115 1.248 . S
C122 O112 1.260 . S
C122 O116 1.253 . S
C123 O114 1.279 . S
C123 O117 1.250 . S
O124 Mg106 2.030 . S
O124 C118 1.248 . S
O125 Mg108 2.079 . S
O125 C118 1.264 . S
C126 C127 1.349 . S
C126 C128 1.327 1_545 S
C126 H151 0.950 . S
C127 C126 1.349 . S
C127 C143 1.349 1_556 S
C128 C126 1.327 1_565 S
C128 C147 1.429 . S
C128 H152 0.950 . S
C129 C146 1.574 . S
C129 C148 1.368 . S
C129 H153 0.949 1_556 S
H130 C134 0.949 . S
C131 C132 1.349 . S
C131 C133 1.327 . S
C131 H154 0.950 . S
C132 C131 1.349 . S
C132 C144 1.349 . S
C133 C131 1.327 . S
C133 C149 1.429 . S
C133 H155 0.950 . S
C134 H130 0.949 . S
C134 C142 1.574 . S
C134 C150 1.368 . S
H135 C143 0.950 . S
H136 C141 0.950 1_554 S
H137 C142 0.949 . S
H138 C144 0.950 . S
H139 C145 0.950 . S
H140 C146 0.949 1_554 S
C141 H136 0.950 1_556 S
C141 C143 1.327 1_566 S
C141 C147 1.428 . S
C142 C134 1.574 . S
C142 H137 0.949 . S
C142 C148 1.368 . S
C143 C127 1.349 1_554 S
C143 H135 0.950 . S
C143 C141 1.327 1_544 S
C144 C132 1.349 . S
C144 H138 0.950 . S
C144 C145 1.327 . S
C145 H139 0.950 . S
C145 C144 1.327 . S
C145 C149 1.429 . S
C146 C129 1.574 . S
C146 H140 0.949 1_556 S
C146 C150 1.368 . S
C147 C128 1.429 . S
C147 C141 1.428 . S
C147 C148 1.523 . S
C148 C129 1.368 . S
C148 C142 1.368 . S
C148 C147 1.523 . S
C149 C133 1.429 . S
C149 C145 1.429 . S
C149 C150 1.523 . S
C150 C134 1.368 . S
C150 C146 1.368 . S
C150 C149 1.523 . S
H151 C126 0.950 . S
H152 C128 0.950 . S
H153 C129 0.949 1_554 S
H154 C131 0.950 . S
H155 C133 0.950 . S
C156 C157 1.349 . S
C156 C158 1.327 . S
C156 H181 0.950 . S
C157 C156 1.349 . S
C157 C173 1.349 . S
C158 C156 1.327 . S
C158 C177 1.429 . S
C158 H182 0.950 . S
C159 C176 1.574 . S
C159 C178 1.368 . S
C159 H183 0.949 . S
H160 C164 0.949 . S
C161 C162 1.349 . S
C161 C163 1.327 . S
C161 H184 0.950 . S
C162 C161 1.349 . S
C162 C174 1.349 . S
C163 C161 1.327 . S
C163 C179 1.429 . S
C163 H185 0.950 . S
C164 H160 0.949 . S
C164 C172 1.574 . S
C164 C180 1.368 . S
H165 C173 0.950 . S
H166 C171 0.950 . S
H167 C172 0.949 . S
H168 C174 0.950 . S
H169 C175 0.950 . S
H170 C176 0.949 . S
C171 H166 0.950 . S
C171 C173 1.327 . S
C171 C177 1.429 . S
C172 C164 1.574 . S
C172 H167 0.949 . S
C172 C178 1.368 . S
C173 C157 1.349 . S
C173 H165 0.950 . S
C173 C171 1.327 . S
C174 C162 1.349 . S
C174 H168 0.950 . S
C174 C175 1.327 . S
C175 H169 0.950 . S
C175 C174 1.327 . S
C175 C179 1.429 . S
C176 C159 1.574 . S
C176 H170 0.949 . S
C176 C180 1.368 . S
C177 C158 1.429 . S
C177 C171 1.429 . S
C177 C178 1.523 . S
C178 C159 1.368 . S
C178 C172 1.368 . S
C178 C177 1.523 . S
C179 C163 1.429 . S
C179 C175 1.429 . S
C179 C180 1.523 . S
C180 C164 1.368 . S
C180 C176 1.368 . S
C180 C179 1.523 . S
H181 C156 0.950 . S
H182 C158 0.950 . S
H183 C159 0.949 . S
H184 C161 0.950 . S
H185 C163 0.950 . S
C186 C187 1.349 . S
C186 C188 1.327 1_655 S
C186 H211 0.950 . S
C187 C186 1.349 . S
C187 C203 1.349 . S
C188 C186 1.327 1_455 S
C188 C207 1.429 . S
C188 H212 0.950 . S
C189 C206 1.574 . S
C189 C208 1.368 . S
C189 H213 0.949 . S
H190 C194 0.949 . S
C191 C192 1.349 . S
C191 C193 1.327 . S
C191 H214 0.950 . S
C192 C191 1.349 . S
C192 C204 1.349 . S
C193 C191 1.327 . S
C193 C209 1.429 . S
C193 H215 0.950 . S
C194 H190 0.949 . S
C194 C202 1.574 . S
C194 C210 1.368 . S
H195 C203 0.950 . S
H196 C201 0.950 . S
H197 C202 0.949 . S
H198 C204 0.950 . S
H199 C205 0.950 . S
H200 C206 0.949 . S
C201 H196 0.950 . S
C201 C203 1.327 1_455 S
C201 C207 1.429 . S
C202 C194 1.574 . S
C202 H197 0.949 . S
C202 C208 1.368 . S
C203 C187 1.349 . S
C203 H195 0.950 . S
C203 C201 1.327 1_655 S
C204 C192 1.349 . S
C204 H198 0.950 . S
C204 C205 1.327 . S
C205 H199 0.950 . S
C205 C204 1.327 . S
C205 C209 1.429 . S
C206 C189 1.574 . S
C206 H200 0.949 . S
C206 C210 1.368 . S
C207 C188 1.429 . S
C207 C201 1.429 . S
C207 C208 1.523 . S
C208 C189 1.368 . S
C208 C202 1.368 . S
C208 C207 1.523 . S
C209 C193 1.429 . S
C209 C205 1.429 . S
C209 C210 1.523 . S
C210 C194 1.368 . S
C210 C206 1.368 . S
C210 C209 1.523 . S
H211 C186 0.950 . S
H212 C188 0.950 . S
H213 C189 0.949 . S
H214 C191 0.950 . S
H215 C193 0.950 . S
C216 C217 1.349 . S
C216 C218 1.327 . S
C216 H241 0.950 . S
C217 C216 1.349 . S
C217 C233 1.349 . S
C218 C216 1.327 . S
C218 C237 1.429 . S
C218 H242 0.950 . S
C219 C236 1.574 . S
C219 C238 1.368 . S
C219 H243 0.949 . S
H220 C224 0.949 . S
C221 C222 1.349 . S
C221 C223 1.327 1_565 S
C221 H244 0.950 . S
C222 C221 1.349 . S
C222 C234 1.349 . S
C223 C221 1.327 1_545 S
C223 C239 1.429 . S
C223 H245 0.950 . S
C224 H220 0.949 . S
C224 C232 1.574 . S
C224 C240 1.368 . S
H225 C233 0.950 . S
H226 C231 0.950 . S
H227 C232 0.949 . S
H228 C234 0.950 . S
H229 C235 0.950 . S
H230 C236 0.949 . S
C231 H226 0.950 . S
C231 C233 1.327 . S
C231 C237 1.429 . S
C232 C224 1.574 . S
C232 H227 0.949 . S
C232 C238 1.368 . S
C233 C217 1.349 . S
C233 H225 0.950 . S
C233 C231 1.327 . S
C234 C222 1.349 . S
C234 H228 0.950 . S
C234 C235 1.327 1_565 S
C235 H229 0.950 . S
C235 C234 1.327 1_545 S
C235 C239 1.429 . S
C236 C219 1.574 . S
C236 H230 0.949 . S
C236 C240 1.368 . S
C237 C218 1.429 . S
C237 C231 1.429 . S
C237 C238 1.523 . S
C238 C219 1.368 . S
C238 C232 1.368 . S
C238 C237 1.523 . S
C239 C223 1.429 . S
C239 C235 1.429 . S
C239 C240 1.523 . S
C240 C224 1.368 . S
C240 C236 1.368 . S
C240 C239 1.523 . S
H241 C216 0.950 . S
H242 C218 0.950 . S
H243 C219 0.949 . S
H244 C221 0.950 . S
H245 C223 0.950 . S
C246 C247 1.349 . S
C246 C248 1.327 . S
C246 H271 0.950 . S
C247 C246 1.349 . S
C247 C263 1.349 . S
C248 C246 1.327 . S
C248 C267 1.429 . S
C248 H272 0.950 . S
C249 C266 1.574 . S
C249 C268 1.368 . S
C249 H273 0.949 . S
H250 C254 0.949 . S
C251 C252 1.349 . S
C251 C253 1.327 . S
C251 H274 0.950 . S
C252 C251 1.349 . S
C252 C264 1.349 . S
C253 C251 1.327 . S
C253 C269 1.429 . S
C253 H275 0.950 . S
C254 H250 0.949 . S
C254 C262 1.574 . S
C254 C270 1.368 . S
H255 C263 0.950 . S
H256 C261 0.950 . S
H257 C262 0.949 . S
H258 C264 0.950 . S
H259 C265 0.950 . S
H260 C266 0.949 . S
C261 H256 0.950 . S
C261 C263 1.327 . S
C261 C267 1.429 . S
C262 C254 1.574 . S
C262 H257 0.949 . S
C262 C268 1.368 . S
C263 C247 1.349 . S
C263 H255 0.950 . S
C263 C261 1.327 . S
C264 C252 1.349 . S
C264 H258 0.950 . S
C264 C265 1.327 . S
C265 H259 0.950 . S
C265 C264 1.327 . S
C265 C269 1.429 . S
C266 C249 1.574 . S
C266 H260 0.949 . S
C266 C270 1.368 . S
C267 C248 1.429 . S
C267 C261 1.429 . S
C267 C268 1.523 . S
C268 C249 1.368 . S
C268 C262 1.368 . S
C268 C267 1.523 . S
C269 C253 1.429 . S
C269 C265 1.429 . S
C269 C270 1.523 . S
C270 C254 1.368 . S
C270 C266 1.368 . S
C270 C269 1.523 . S
H271 C246 0.950 . S
H272 C248 0.950 . S
H273 C249 0.949 . S
H274 C251 0.950 . S
H275 C253 0.950 . S
C276 C277 1.349 . S
C276 C278 1.327 1_455 S
C276 H301 0.950 . S
C277 C276 1.349 . S
C277 C293 1.349 . S
C278 C276 1.327 1_655 S
C278 C297 1.429 . S
C278 H302 0.950 . S
C279 C296 1.574 . S
C279 C298 1.368 . S
C279 H303 0.949 . S
H280 C284 0.949 . S
C281 C282 1.349 . S
C281 C283 1.327 . S
C281 H304 0.950 . S
C282 C281 1.349 . S
C282 C294 1.349 . S
C283 C281 1.327 . S
C283 C299 1.429 . S
C283 H305 0.950 . S
C284 H280 0.949 . S
C284 C292 1.574 . S
C284 C300 1.368 . S
H285 C293 0.950 . S
H286 C291 0.950 . S
H287 C292 0.949 . S
H288 C294 0.950 . S
H289 C295 0.950 . S
H290 C296 0.949 . S
C291 H286 0.950 . S
C291 C293 1.327 1_655 S
C291 C297 1.429 . S
C292 C284 1.574 . S
C292 H287 0.949 . S
C292 C298 1.368 . S
C293 C277 1.349 . S
C293 H285 0.950 . S
C293 C291 1.327 1_455 S
C294 C282 1.349 . S
C294 H288 0.950 . S
C294 C295 1.327 . S
C295 H289 0.950 . S
C295 C294 1.327 . S
C295 C299 1.429 . S
C296 C279 1.574 . S
C296 H290 0.949 . S
C296 C300 1.368 . S
C297 C278 1.429 . S
C297 C291 1.429 . S
C297 C298 1.523 . S
C298 C279 1.368 . S
C298 C292 1.368 . S
C298 C297 1.523 . S
C299 C283 1.429 . S
C299 C295 1.429 . S
C299 C300 1.523 . S
C300 C284 1.368 . S
C300 C296 1.368 . S
C300 C299 1.523 . S
H301 C276 0.950 . S
H302 C278 0.950 . S
H303 C279 0.949 . S
H304 C281 0.950 . S
H305 C283 0.950 . S
C306 C307 1.349 . S
C306 C308 1.327 . S
C306 H331 0.950 . S
C307 C306 1.349 . S
C307 C323 1.349 . S
C308 C306 1.327 . S
C308 C327 1.429 . S
C308 H332 0.950 . S
C309 C326 1.574 . S
C309 C328 1.368 1_565 S
C309 H333 0.949 . S
H310 C314 0.949 1_545 S
C311 C312 1.349 . S
C311 C313 1.327 . S
C311 H334 0.950 . S
C312 C311 1.349 . S
C312 C324 1.349 . S
C313 C311 1.327 . S
C313 C329 1.429 . S
C313 H335 0.950 . S
C314 H310 0.949 1_565 S
C314 C322 1.574 1_565 S
C314 C330 1.368 . S
H315 C323 0.950 . S
H316 C321 0.950 1_565 S
H317 C322 0.949 . S
H318 C324 0.950 . S
H319 C325 0.950 . S
H320 C326 0.949 . S
C321 H316 0.950 1_545 S
C321 C323 1.327 . S
C321 C327 1.429 . S
C322 C314 1.574 1_545 S
C322 H317 0.949 . S
C322 C328 1.368 . S
C323 C307 1.349 . S
C323 H315 0.950 . S
C323 C321 1.327 . S
C324 C312 1.349 . S
C324 H318 0.950 . S
C324 C325 1.327 . S
C325 H319 0.950 . S
C325 C324 1.327 . S
C325 C329 1.429 . S
C326 C309 1.574 . S
C326 H320 0.949 . S
C326 C330 1.368 . S
C327 C308 1.429 . S
C327 C321 1.429 . S
C327 C328 1.523 . S
C328 C309 1.368 1_545 S
C328 C322 1.368 . S
C328 C327 1.523 . S
C329 C313 1.429 . S
C329 C325 1.429 . S
C329 C330 1.523 . S
C330 C314 1.368 . S
C330 C326 1.368 . S
C330 C329 1.523 . S
H331 C306 0.950 . S
H332 C308 0.950 . S
H333 C309 0.949 . S
H334 C311 0.950 . S
H335 C313 0.950 . S
C336 C337 1.349 . S
C336 C338 1.327 . S
C336 H361 0.950 . S
C337 C336 1.349 . S
C337 C353 1.349 . S
C338 C336 1.327 . S
C338 C357 1.429 . S
C338 H362 0.950 . S
C339 C356 1.574 . S
C339 C358 1.368 . S
C339 H363 0.949 . S
H340 C344 0.949 . S
C341 C342 1.349 . S
C341 C343 1.327 . S
C341 H364 0.950 . S
C342 C341 1.349 . S
C342 C354 1.349 . S
C343 C341 1.327 . S
C343 C359 1.429 . S
C343 H365 0.950 . S
C344 H340 0.949 . S
C344 C352 1.574 . S
C344 C360 1.368 . S
H345 C353 0.950 . S
H346 C351 0.950 . S
H347 C352 0.949 . S
H348 C354 0.950 . S
H349 C355 0.950 . S
H350 C356 0.949 . S
C351 H346 0.950 . S
C351 C353 1.327 . S
C351 C357 1.429 . S
C352 C344 1.574 . S
C352 H347 0.949 . S
C352 C358 1.368 . S
C353 C337 1.349 . S
C353 H345 0.950 . S
C353 C351 1.327 . S
C354 C342 1.349 . S
C354 H348 0.950 . S
C354 C355 1.327 . S
C355 H349 0.950 . S
C355 C354 1.327 . S
C355 C359 1.429 . S
C356 C339 1.574 . S
C356 H350 0.949 . S
C356 C360 1.368 . S
C357 C338 1.429 . S
C357 C351 1.429 . S
C357 C358 1.523 . S
C358 C339 1.368 . S
C358 C352 1.368 . S
C358 C357 1.523 . S
C359 C343 1.429 . S
C359 C355 1.429 . S
C359 C360 1.523 . S
C360 C344 1.368 . S
C360 C356 1.368 . S
C360 C359 1.523 . S
H361 C336 0.950 . S
H362 C338 0.950 . S
H363 C339 0.949 . S
H364 C341 0.950 . S
H365 C343 0.950 . S
C366 C367 1.349 . S
C366 C368 1.327 . S
C366 H391 0.950 . S
C367 C366 1.349 . S
C367 C383 1.349 . S
C368 C366 1.327 . S
C368 C387 1.429 . S
C368 H392 0.950 . S
C369 C386 1.574 . S
C369 C388 1.368 1_655 S
C369 H393 0.949 . S
H370 C374 0.949 . S
C371 C372 1.349 . S
C371 C373 1.327 . S
C371 H394 0.950 . S
C372 C371 1.349 . S
C372 C384 1.349 . S
C373 C371 1.327 . S
C373 C389 1.429 . S
C373 H395 0.950 . S
C374 H370 0.949 . S
C374 C382 1.574 . S
C374 C390 1.368 1_455 S
H375 C383 0.950 . S
H376 C381 0.950 1_655 S
H377 C382 0.949 . S
H378 C384 0.950 1_455 S
H379 C385 0.950 . S
H380 C386 0.949 . S
C381 H376 0.950 1_455 S
C381 C383 1.327 . S
C381 C387 1.429 . S
C382 C374 1.574 . S
C382 H377 0.949 . S
C382 C388 1.368 . S
C383 C367 1.349 . S
C383 H375 0.950 . S
C383 C381 1.327 . S
C384 C372 1.349 . S
C384 H378 0.950 1_655 S
C384 C385 1.327 1_655 S
C385 H379 0.950 . S
C385 C384 1.327 1_455 S
C385 C389 1.429 1_455 S
C386 C369 1.574 . S
C386 H380 0.949 . S
C386 C390 1.368 . S
C387 C368 1.429 . S
C387 C381 1.429 . S
C387 C388 1.523 . S
C388 C369 1.368 1_455 S
C388 C382 1.368 . S
C388 C387 1.523 . S
C389 C373 1.429 . S
C389 C385 1.429 1_655 S
C389 C390 1.523 . S
C390 C374 1.368 1_655 S
C390 C386 1.368 . S
C390 C389 1.523 . S
H391 C366 0.950 . S
H392 C368 0.950 . S
H393 C369 0.949 . S
H394 C371 0.950 . S
H395 C373 0.950 . S
C396 C397 1.349 . S
C396 C398 1.327 . S
C396 H421 0.950 . S
C397 C396 1.349 . S
C397 C413 1.349 . S
C398 C396 1.327 . S
C398 C417 1.429 . S
C398 H422 0.948 . S
C399 C416 1.574 1_565 S
C399 C418 1.368 . S
C399 H423 0.949 . S
H400 C404 0.949 . S
C401 C402 1.349 . S
C401 C403 1.327 . S
C401 H424 0.950 . S
C402 C401 1.349 . S
C402 C414 1.349 . S
C403 C401 1.327 . S
C403 C419 1.429 . S
C403 H425 0.950 . S
C404 H400 0.949 . S
C404 C412 1.574 . S
C404 C420 1.368 . S
H405 C413 0.950 . S
H406 C411 0.950 . S
H407 C412 0.949 . S
H408 C414 0.950 . S
H409 C415 0.950 . S
H410 C416 0.949 . S
C411 H406 0.950 . S
C411 C413 1.327 . S
C411 C417 1.429 . S
C412 C404 1.574 . S
C412 H407 0.949 . S
C412 C418 1.368 1_545 S
C413 C397 1.349 . S
C413 H405 0.950 . S
C413 C411 1.327 . S
C414 C402 1.349 . S
C414 H408 0.950 . S
C414 C415 1.327 . S
C415 H409 0.950 . S
C415 C414 1.327 . S
C415 C419 1.429 . S
C416 C399 1.574 1_545 S
C416 H410 0.949 . S
C416 C420 1.368 . S
C417 C398 1.429 . S
C417 C411 1.429 . S
C417 C418 1.523 . S
C418 C399 1.368 . S
C418 C412 1.368 1_565 S
C418 C417 1.523 . S
C419 C403 1.429 . S
C419 C415 1.429 . S
C419 C420 1.523 . S
C420 C404 1.368 . S
C420 C416 1.368 . S
C420 C419 1.523 . S
H421 C396 0.950 . S
H422 C398 0.948 . S
H423 C399 0.949 . S
H424 C401 0.950 . S
H425 C403 0.950 . S
C426 C427 1.349 . S
C426 C428 1.327 . S
C426 H451 0.950 . S
C427 C426 1.349 . S
C427 C443 1.349 . S
C428 C426 1.327 . S
C428 C447 1.429 . S
C428 H452 0.950 . S
C429 C446 1.574 . S
C429 C448 1.368 . S
C429 H453 0.949 . S
H430 C434 0.949 . S
C431 C432 1.349 . S
C431 C433 1.327 . S
C431 H454 0.950 . S
C432 C431 1.349 . S
C432 C444 1.349 . S
C433 C431 1.327 . S
C433 C449 1.429 . S
C433 H455 0.950 . S
C434 H430 0.949 . S
C434 C442 1.574 . S
C434 C450 1.368 . S
H435 C443 0.950 . S
H436 C441 0.950 1_556 S
H437 C442 0.949 1_554 S
H438 C444 0.950 . S
H439 C445 0.950 . S
H440 C446 0.949 . S
C441 H436 0.950 1_554 S
C441 C443 1.327 . S
C441 C447 1.429 . S
C442 C434 1.574 . S
C442 H437 0.949 1_556 S
C442 C448 1.368 . S
C443 C427 1.349 . S
C443 H435 0.950 . S
C443 C441 1.327 . S
C444 C432 1.349 . S
C444 H438 0.950 . S
C444 C445 1.327 . S
C445 H439 0.950 . S
C445 C444 1.327 . S
C445 C449 1.429 . S
C446 C429 1.574 . S
C446 H440 0.949 . S
C446 C450 1.368 . S
C447 C428 1.429 . S
C447 C441 1.429 . S
C447 C448 1.523 1_554 S
C448 C429 1.368 . S
C448 C442 1.368 . S
C448 C447 1.523 1_556 S
C449 C433 1.429 . S
C449 C445 1.429 . S
C449 C450 1.523 . S
C450 C434 1.368 . S
C450 C446 1.368 . S
C450 C449 1.523 . S
H451 C426 0.950 . S
H452 C428 0.950 . S
H453 C429 0.949 . S
H454 C431 0.950 . S
H455 C433 0.950 . S
C456 C457 1.349 . S
C456 C458 1.327 1_556 S
C456 H481 0.950 . S
C457 C456 1.349 . S
C457 C473 1.349 . S
C458 C456 1.327 1_554 S
C458 C477 1.429 . S
C458 H482 0.950 . S
C459 C476 1.574 . S
C459 C478 1.368 1_655 S
C459 H483 0.938 1_655 S
H460 C464 0.949 . S
C461 C462 1.349 . S
C461 C463 1.327 . S
C461 H484 0.950 . S
C462 C461 1.349 . S
C462 C474 1.349 . S
C463 C461 1.327 . S
C463 C479 1.429 . S
C463 H485 0.950 . S
C464 H460 0.949 . S
C464 C472 1.574 . S
C464 C480 1.368 . S
H465 C473 0.950 . S
H466 C471 0.950 . S
H467 C472 0.949 1_455 S
H468 C474 0.950 . S
H469 C475 0.950 . S
H470 C476 0.949 . S
C471 H466 0.950 . S
C471 C473 1.327 . S
C471 C477 1.429 1_556 S
C472 C464 1.574 . S
C472 H467 0.949 1_655 S
C472 C478 1.368 1_655 S
C473 C457 1.349 . S
C473 H465 0.950 . S
C473 C471 1.327 . S
C474 C462 1.349 . S
C474 H468 0.950 . S
C474 C475 1.327 . S
C475 H469 0.950 . S
C475 C474 1.327 . S
C475 C479 1.429 . S
C476 C459 1.574 . S
C476 H470 0.949 . S
C476 C480 1.368 . S
C477 C458 1.429 . S
C477 C471 1.429 1_554 S
C477 C478 1.523 . S
C478 C459 1.368 1_455 S
C478 C472 1.368 1_455 S
C478 C477 1.523 . S
C479 C463 1.429 . S
C479 C475 1.429 . S
C479 C480 1.523 . S
C480 C464 1.368 . S
C480 C476 1.368 . S
C480 C479 1.523 . S
H481 C456 0.950 . S
H482 C458 0.950 . S
H483 C459 0.938 1_455 S
H484 C461 0.950 . S
H485 C463 0.950 . S
C486 C487 1.349 . S
C486 C488 1.327 . S
C486 H511 0.950 . S
C487 C486 1.349 . S
C487 C503 1.349 . S
C488 C486 1.327 . S
C488 C507 1.429 . S
C488 H512 0.950 . S
C489 C506 1.574 . S
C489 C508 1.368 . S
C489 H513 0.949 . S
H490 C494 0.949 . S
C491 C492 1.349 . S
C491 C493 1.327 . S
C491 H514 0.950 . S
C492 C491 1.349 . S
C492 C504 1.349 . S
C493 C491 1.327 . S
C493 C509 1.429 . S
C493 H515 0.950 . S
C494 H490 0.949 . S
C494 C502 1.574 . S
C494 C510 1.368 . S
H495 C503 0.950 . S
H496 C501 0.950 . S
H497 C502 0.949 . S
H498 C504 0.950 . S
H499 C505 0.950 . S
H500 C506 0.949 . S
C501 H496 0.950 . S
C501 C503 1.327 . S
C501 C507 1.429 . S
C502 C494 1.574 . S
C502 H497 0.949 . S
C502 C508 1.368 . S
C503 C487 1.349 . S
C503 H495 0.950 . S
C503 C501 1.327 . S
C504 C492 1.349 . S
C504 H498 0.950 . S
C504 C505 1.327 . S
C505 H499 0.950 . S
C505 C504 1.327 . S
C505 C509 1.429 . S
C506 C489 1.574 . S
C506 H500 0.949 . S
C506 C510 1.368 . S
C507 C488 1.429 . S
C507 C501 1.429 . S
C507 C508 1.523 . S
C508 C489 1.368 . S
C508 C502 1.368 . S
C508 C507 1.523 . S
C509 C493 1.429 . S
C509 C505 1.429 . S
C509 C510 1.523 . S
C510 C494 1.368 . S
C510 C506 1.368 . S
C510 C509 1.523 . S
H511 C486 0.950 . S
H512 C488 0.950 . S
H513 C489 0.949 . S
H514 C491 0.950 . S
H515 C493 0.950 . S
C516 C517 1.349 . S
C516 C518 1.327 . S
C516 H541 0.950 . S
C517 C516 1.349 . S
C517 C533 1.349 . S
C518 C516 1.327 . S
C518 C537 1.429 . S
C518 H542 0.950 . S
C519 C536 1.574 . S
C519 C538 1.368 . S
C519 H543 0.949 . S
H520 C524 0.949 . S
C521 C522 1.349 . S
C521 C523 1.327 . S
C521 H544 0.950 . S
C522 C521 1.349 . S
C522 C534 1.349 . S
C523 C521 1.327 . S
C523 C539 1.429 . S
C523 H545 0.950 1_554 S
C524 H520 0.949 . S
C524 C532 1.574 . S
C524 C540 1.368 . S
H525 C533 0.950 . S
H526 C531 0.950 . S
H527 C532 0.949 . S
H528 C534 0.950 . S
H529 C535 0.950 . S
H530 C536 0.949 . S
C531 H526 0.950 . S
C531 C533 1.327 . S
C531 C537 1.429 . S
C532 C524 1.574 . S
C532 H527 0.949 . S
C532 C538 1.368 1_554 S
C533 C517 1.349 . S
C533 H525 0.950 . S
C533 C531 1.327 . S
C534 C522 1.349 . S
C534 H528 0.950 . S
C534 C535 1.327 . S
C535 H529 0.950 . S
C535 C534 1.327 . S
C535 C539 1.429 . S
C536 C519 1.574 . S
C536 H530 0.949 . S
C536 C540 1.368 1_556 S
C537 C518 1.429 . S
C537 C531 1.429 . S
C537 C538 1.523 . S
C538 C519 1.368 . S
C538 C532 1.368 1_556 S
C538 C537 1.523 . S
C539 C523 1.429 . S
C539 C535 1.429 . S
C539 C540 1.523 . S
C540 C524 1.368 . S
C540 C536 1.368 1_554 S
C540 C539 1.523 . S
H541 C516 0.950 . S
H542 C518 0.950 . S
H543 C519 0.949 . S
H544 C521 0.950 . S
H545 C523 0.950 1_556 S
C546 C547 1.349 . S
C546 C548 1.327 . S
C546 H571 0.950 . S
C547 C546 1.349 . S
C547 C563 1.349 . S
C548 C546 1.327 . S
C548 C567 1.429 . S
C548 H572 0.950 . S
C549 C566 1.574 . S
C549 C568 1.368 . S
C549 H573 0.949 . S
H550 C554 0.949 . S
C551 C552 1.349 . S
C551 C553 1.327 . S
C551 H574 0.950 . S
C552 C551 1.349 . S
C552 C564 1.349 . S
C553 C551 1.327 . S
C553 C569 1.429 . S
C553 H575 0.950 . S
C554 H550 0.949 . S
C554 C562 1.574 . S
C554 C570 1.368 . S
H555 C563 0.950 . S
H556 C561 0.950 . S
H557 C562 0.949 . S
H558 C564 0.950 . S
H559 C565 0.950 . S
H560 C566 0.949 . S
C561 H556 0.950 . S
C561 C563 1.327 . S
C561 C567 1.429 . S
C562 C554 1.574 . S
C562 H557 0.949 . S
C562 C568 1.368 . S
C563 C547 1.349 . S
C563 H555 0.950 . S
C563 C561 1.327 . S
C564 C552 1.349 . S
C564 H558 0.950 . S
C564 C565 1.327 . S
C565 H559 0.950 . S
C565 C564 1.327 . S
C565 C569 1.429 . S
C566 C549 1.574 . S
C566 H560 0.949 . S
C566 C570 1.368 . S
C567 C548 1.429 . S
C567 C561 1.429 . S
C567 C568 1.523 . S
C568 C549 1.368 . S
C568 C562 1.368 . S
C568 C567 1.523 . S
C569 C553 1.429 . S
C569 C565 1.429 . S
C569 C570 1.523 . S
C570 C554 1.368 . S
C570 C566 1.368 . S
C570 C569 1.523 . S
H571 C546 0.950 . S
H572 C548 0.950 . S
H573 C549 0.949 . S
H574 C551 0.950 . S
H575 C553 0.950 . S
C576 C577 1.349 . S
C576 C578 1.327 . S
C576 H601 0.950 . S
C577 C576 1.349 . S
C577 C593 1.349 . S
C578 C576 1.327 . S
C578 C597 1.429 . S
C578 H602 0.950 . S
C579 C596 1.574 . S
C579 C598 1.368 . S
C579 H603 0.949 . S
H580 C584 0.949 . S
C581 C582 1.349 . S
C581 C583 1.327 . S
C581 H604 0.950 . S
C582 C581 1.349 . S
C582 C594 1.349 . S
C583 C581 1.327 . S
C583 C599 1.429 . S
C583 H605 0.950 . S
C584 H580 0.949 . S
C584 C592 1.574 . S
C584 C600 1.368 . S
H585 C593 0.950 . S
H586 C591 0.950 . S
H587 C592 0.949 . S
H588 C594 0.950 . S
H589 C595 0.950 . S
H590 C596 0.949 . S
C591 H586 0.950 . S
C591 C593 1.327 . S
C591 C597 1.429 . S
C592 C584 1.574 . S
C592 H587 0.949 . S
C592 C598 1.368 . S
C593 C577 1.349 . S
C593 H585 0.950 . S
C593 C591 1.327 . S
C594 C582 1.349 . S
C594 H588 0.950 . S
C594 C595 1.327 . S
C595 H589 0.950 . S
C595 C594 1.327 . S
C595 C599 1.429 . S
C596 C579 1.574 . S
C596 H590 0.949 . S
C596 C600 1.368 . S
C597 C578 1.429 . S
C597 C591 1.429 . S
C597 C598 1.523 . S
C598 C579 1.368 . S
C598 C592 1.368 . S
C598 C597 1.523 . S
C599 C583 1.429 . S
C599 C595 1.429 . S
C599 C600 1.523 . S
C600 C584 1.368 . S
C600 C596 1.368 . S
C600 C599 1.523 . S
H601 C576 0.950 . S
H602 C578 0.950 . S
H603 C579 0.949 . S
H604 C581 0.950 . S
H605 C583 0.950 . S
C606 C607 1.349 . S
C606 C608 1.327 . S
C606 H631 0.950 . S
C607 C606 1.349 . S
C607 C623 1.349 . S
C608 C606 1.327 . S
C608 C627 1.429 . S
C608 H632 0.950 . S
C609 C626 1.574 . S
C609 C628 1.368 . S
C609 H633 0.949 . S
H610 C614 0.949 . S
C611 C612 1.349 . S
C611 C613 1.327 . S
C611 H634 0.950 . S
C612 C611 1.349 . S
C612 C624 1.349 . S
C613 C611 1.327 . S
C613 C629 1.429 . S
C613 H635 0.950 . S
C614 H610 0.949 . S
C614 C622 1.574 . S
C614 C630 1.368 . S
H615 C623 0.950 . S
H616 C621 0.950 . S
H617 C622 0.949 . S
H618 C624 0.950 . S
H619 C625 0.950 . S
H620 C626 0.949 . S
C621 H616 0.950 . S
C621 C623 1.327 . S
C621 C627 1.429 . S
C622 C614 1.574 . S
C622 H617 0.949 . S
C622 C628 1.368 . S
C623 C607 1.349 . S
C623 H615 0.950 . S
C623 C621 1.327 . S
C624 C612 1.349 . S
C624 H618 0.950 . S
C624 C625 1.327 . S
C625 H619 0.950 . S
C625 C624 1.327 . S
C625 C629 1.429 . S
C626 C609 1.574 . S
C626 H620 0.949 . S
C626 C630 1.368 . S
C627 C608 1.429 . S
C627 C621 1.429 . S
C627 C628 1.523 . S
C628 C609 1.368 . S
C628 C622 1.368 . S
C628 C627 1.523 . S
C629 C613 1.429 . S
C629 C625 1.429 . S
C629 C630 1.523 . S
C630 C614 1.368 . S
C630 C626 1.368 . S
C630 C629 1.523 . S
H631 C606 0.950 . S
H632 C608 0.950 . S
H633 C609 0.949 . S
H634 C611 0.950 . S
H635 C613 0.950 . S
C636 C637 1.349 . S
C636 C638 1.327 . S
C636 H661 0.950 . S
C637 C636 1.349 . S
C637 C653 1.349 . S
C638 C636 1.327 . S
C638 C657 1.429 . S
C638 H662 0.950 . S
C639 C656 1.574 . S
C639 C658 1.368 . S
C639 H663 0.949 . S
H640 C644 0.949 . S
C641 C642 1.349 . S
C641 C643 1.327 . S
C641 H664 0.950 . S
C642 C641 1.349 . S
C642 C654 1.349 . S
C643 C641 1.327 . S
C643 C659 1.429 . S
C643 H665 0.950 . S
C644 H640 0.949 . S
C644 C652 1.574 . S
C644 C660 1.368 . S
H645 C653 0.950 . S
H646 C651 0.950 . S
H647 C652 0.949 . S
H648 C654 0.950 . S
H649 C655 0.950 . S
H650 C656 0.949 . S
C651 H646 0.950 . S
C651 C653 1.327 . S
C651 C657 1.429 . S
C652 C644 1.574 . S
C652 H647 0.949 . S
C652 C658 1.368 . S
C653 C637 1.349 . S
C653 H645 0.950 . S
C653 C651 1.327 . S
C654 C642 1.349 . S
C654 H648 0.950 . S
C654 C655 1.327 . S
C655 H649 0.950 . S
C655 C654 1.327 . S
C655 C659 1.429 . S
C656 C639 1.574 . S
C656 H650 0.949 . S
C656 C660 1.368 . S
C657 C638 1.429 . S
C657 C651 1.429 . S
C657 C658 1.523 . S
C658 C639 1.368 . S
C658 C652 1.368 . S
C658 C657 1.523 . S
C659 C643 1.429 . S
C659 C655 1.429 . S
C659 C660 1.523 . S
C660 C644 1.368 . S
C660 C656 1.368 . S
C660 C659 1.523 . S
H661 C636 0.950 . S
H662 C638 0.950 . S
H663 C639 0.949 . S
H664 C641 0.950 . S
H665 C643 0.950 . S
C127 C14 1.632 . S
C132 C123 1.545 . S
C157 C38 1.632 . S
C162 C15 1.544 . S
C187 C56 1.632 . S
C192 C39 1.544 . S
C217 C57 1.545 . S
C222 C80 1.632 . S
C247 C81 1.544 . S
C252 C98 1.632 . S
C277 C122 1.632 . S
C282 C99 1.544 . S
C307 C13 1.065 . S
C312 C78 0.933 . S
C337 C37 1.065 . S
C342 C102 0.932 . S
C367 C120 0.933 . S
C372 C55 1.065 . S
C397 C79 1.065 . S
C402 C18 0.932 . S
C427 C36 0.933 . S
C432 C97 1.065 . S
C457 C121 1.065 . S
C462 C60 0.933 . S
C487 C17 0.957 . S
C492 C100 0.976 . S
C517 C118 0.976 . S
C522 C35 0.957 . S
C547 C16 0.976 . S
C552 C59 0.957 . S
C577 C77 0.957 . S
C582 C34 0.976 . S
C607 C58 0.976 . S
C612 C101 0.957 . S
C637 C76 0.976 . S
C642 C119 0.957 . S
