# Generated by pormake.
# Topology acs-i, (5)-cn, num edge types: 1
# Building blocks:
#     Node 0, Type 0, BuildingBlock: BEQFEK_clean_sbu_0, # of connection points: 5
#     Node 1, Type 0, BuildingBlock: BEQFEK_clean_sbu_0, # of connection points: 5
#     Node 2, Type 0, BuildingBlock: BEQFEK_clean_sbu_0, # of connection points: 5
#     Node 3, Type 0, BuildingBlock: BEQFEK_clean_sbu_0, # of connection points: 5
#     Node 4, Type 0, BuildingBlock: BEQFEK_clean_sbu_0, # of connection points: 5
#     Node 5, Type 0, BuildingBlock: BEQFEK_clean_sbu_0, # of connection points: 5
#     Node 6, Type 0, BuildingBlock: BEQFEK_clean_sbu_0, # of connection points: 5
#     Node 7, Type 0, BuildingBlock: BEQFEK_clean_sbu_0, # of connection points: 5
#     Node 8, Type 0, BuildingBlock: BEQFEK_clean_sbu_0, # of connection points: 5
#     Node 9, Type 0, BuildingBlock: BEQFEK_clean_sbu_0, # of connection points: 5
#     Node 10, Type 0, BuildingBlock: BEQFEK_clean_sbu_0, # of connection points: 5
#     Node 11, Type 0, BuildingBlock: BEQFEK_clean_sbu_0, # of connection points: 5
#     Edge 12, Type (0, 0), BuildingBlock: AJUNOK_clean_linker_0, # of connection points: 2
#     Edge 13, Type (0, 0), BuildingBlock: AJUNOK_clean_linker_0, # of connection points: 2
#     Edge 14, Type (0, 0), BuildingBlock: AJUNOK_clean_linker_0, # of connection points: 2
#     Edge 15, Type (0, 0), BuildingBlock: AJUNOK_clean_linker_0, # of connection points: 2
#     Edge 16, Type (0, 0), BuildingBlock: AJUNOK_clean_linker_0, # of connection points: 2
#     Edge 17, Type (0, 0), BuildingBlock: AJUNOK_clean_linker_0, # of connection points: 2
#     Edge 18, Type (0, 0), BuildingBlock: AJUNOK_clean_linker_0, # of connection points: 2
#     Edge 19, Type (0, 0), BuildingBlock: AJUNOK_clean_linker_0, # of connection points: 2
#     Edge 20, Type (0, 0), BuildingBlock: AJUNOK_clean_linker_0, # of connection points: 2
#     Edge 21, Type (0, 0), BuildingBlock: AJUNOK_clean_linker_0, # of connection points: 2
#     Edge 22, Type (0, 0), BuildingBlock: AJUNOK_clean_linker_0, # of connection points: 2
#     Edge 23, Type (0, 0), BuildingBlock: AJUNOK_clean_linker_0, # of connection points: 2
#     Edge 24, Type (0, 0), BuildingBlock: AJUNOK_clean_linker_0, # of connection points: 2
#     Edge 25, Type (0, 0), BuildingBlock: AJUNOK_clean_linker_0, # of connection points: 2
#     Edge 26, Type (0, 0), BuildingBlock: AJUNOK_clean_linker_0, # of connection points: 2
#     Edge 27, Type (0, 0), BuildingBlock: AJUNOK_clean_linker_0, # of connection points: 2
#     Edge 28, Type (0, 0), BuildingBlock: AJUNOK_clean_linker_0, # of connection points: 2
#     Edge 29, Type (0, 0), BuildingBlock: AJUNOK_clean_linker_0, # of connection points: 2
#     Edge 30, Type (0, 0), BuildingBlock: AJUNOK_clean_linker_0, # of connection points: 2
#     Edge 31, Type (0, 0), BuildingBlock: AJUNOK_clean_linker_0, # of connection points: 2
#     Edge 32, Type (0, 0), BuildingBlock: AJUNOK_clean_linker_0, # of connection points: 2
#     Edge 33, Type (0, 0), BuildingBlock: AJUNOK_clean_linker_0, # of connection points: 2
#     Edge 34, Type (0, 0), BuildingBlock: AJUNOK_clean_linker_0, # of connection points: 2
#     Edge 35, Type (0, 0), BuildingBlock: AJUNOK_clean_linker_0, # of connection points: 2
#     Edge 36, Type (0, 0), BuildingBlock: AJUNOK_clean_linker_0, # of connection points: 2
#     Edge 37, Type (0, 0), BuildingBlock: AJUNOK_clean_linker_0, # of connection points: 2
#     Edge 38, Type (0, 0), BuildingBlock: AJUNOK_clean_linker_0, # of connection points: 2
#     Edge 39, Type (0, 0), BuildingBlock: AJUNOK_clean_linker_0, # of connection points: 2
#     Edge 40, Type (0, 0), BuildingBlock: AJUNOK_clean_linker_0, # of connection points: 2
#     Edge 41, Type (0, 0), BuildingBlock: AJUNOK_clean_linker_0, # of connection points: 2
# Relax obj value: 1.320
# Max RMSD: 0.210
# Mean RMSD: 0.198
data_MOF--net-acs-i--node1-BEQFEK_clean_sbu_0--edge1-AJUNOK_clean_linker_0
_symmetry_space_group_name_H-M    P1
_symmetry_Int_Tables_number       1
_symmetry_cell_setting            triclinic
loop_
_symmetry_equiv_pos_as_xyz
'x, y, z'
_cell_length_a     34.594301
_cell_length_b     29.433354
_cell_length_c     24.681147
_cell_angle_alpha  89.895896
_cell_angle_beta   90.031659
_cell_angle_gamma 116.00726
loop_
_atom_site_label
_atom_site_type_symbol
_atom_site_fract_x
_atom_site_fract_y
_atom_site_fract_z
_atom_type_partial_charge
Co0 Co 0.42632 0.38977 0.30734 0.0
Co1 Co 0.35503 0.36264 0.21858 0.0
C2 C 0.444 0.44539 0.20063 0.0
O3 O 0.45686 0.44099 0.24805 0.0
O4 O 0.40597 0.41659 0.18533 0.0
C5 C 0.49303 0.43263 0.40088 0.0
O6 O 0.51624 0.4189 0.43313 0.0
C7 C 0.30061 0.37708 0.13661 0.0
C8 C 0.24654 0.30068 0.13123 0.0
C9 C 0.26192 0.34926 0.11062 0.0
N10 N 0.30808 0.34626 0.17068 0.0
N11 N 0.2761 0.3004 0.16652 0.0
C12 C 0.3274 0.43314 0.13395 0.0
H13 H 0.34893 0.44229 0.09821 0.0
H14 H 0.3473 0.44701 0.17097 0.0
H15 H 0.3067 0.45295 0.12916 0.0
C16 C 0.35518 0.39876 0.37323 0.0
N17 N 0.37214 0.39005 0.3272 0.0
N18 N 0.344 0.38138 0.2878 0.0
C19 C 0.30933 0.38558 0.30686 0.0
C20 C 0.31508 0.3965 0.36159 0.0
C21 C 0.37497 0.40507 0.4281 0.0
H22 H 0.40262 0.3957 0.42711 0.0
H23 H 0.38583 0.44453 0.44209 0.0
H24 H 0.35056 0.3802 0.45751 0.0
O25 O 0.41556 0.32098 0.28169 0.0
O26 O 0.36224 0.30126 0.2235 0.0
H27 H 0.2544 0.3424 0.25779 0.0
H28 H 0.24998 0.39295 0.29447 0.0
C29 C 0.27235 0.38179 0.27241 0.0
H30 H 0.28477 0.40699 0.23688 0.0
H31 H 0.27377 0.26931 0.18914 0.0
O32 O 0.4679 0.39979 0.3678 0.0
C33 C 0.38802 0.2895 0.24967 0.0
Co34 Co 0.8704 0.52292 0.53143 0.0
Co35 Co 0.81292 0.47249 0.43331 0.0
C36 C 0.8106 0.55901 0.50101 0.0
O37 O 0.83113 0.55219 0.54033 0.0
O38 O 0.80541 0.53482 0.45651 0.0
C39 C 0.89314 0.53861 0.63589 0.0
O40 O 0.85105 0.52088 0.6363 0.0
C41 C 0.72439 0.42067 0.40342 0.0
C42 C 0.72373 0.38302 0.32606 0.0
C43 C 0.6971 0.38732 0.36578 0.0
N44 N 0.76518 0.43546 0.38718 0.0
N45 N 0.76472 0.4138 0.34013 0.0
C46 C 0.71195 0.431 0.45861 0.0
H47 H 0.69298 0.45289 0.45455 0.0
H48 H 0.74056 0.4522 0.48414 0.0
H49 H 0.69094 0.39494 0.47906 0.0
C50 C 0.8415 0.41398 0.56151 0.0
N51 N 0.83932 0.45102 0.53129 0.0
N52 N 0.80986 0.43032 0.49346 0.0
C53 C 0.79169 0.37951 0.49953 0.0
C54 C 0.81073 0.36798 0.54334 0.0
C55 C 0.87747 0.42029 0.59902 0.0
H56 H 0.90435 0.45855 0.59627 0.0
H57 H 0.86512 0.41157 0.64091 0.0
H58 H 0.88989 0.39245 0.58851 0.0
O59 O 0.89216 0.54735 0.45958 0.0
O60 O 0.87139 0.48524 0.4038 0.0
H61 H 0.77184 0.35203 0.41903 0.0
H62 H 0.75501 0.30308 0.46987 0.0
C63 C 0.76012 0.34227 0.46118 0.0
H64 H 0.72872 0.34349 0.46488 0.0
H65 H 0.79221 0.4175 0.31947 0.0
O66 O 0.91242 0.54669 0.59071 0.0
C67 C 0.90134 0.51698 0.43308 0.0
Co68 Co 0.52725 0.832 0.97667 0.0
Co69 Co 0.54669 0.73657 0.98197 0.0
C70 C 0.46561 0.72976 0.93211 0.0
O71 O 0.477 0.77613 0.94218 0.0
O72 O 0.48957 0.70903 0.94553 0.0
C73 C 0.47116 0.86101 0.02129 0.0
O74 O 0.45587 0.81206 0.02915 0.0
C75 C 0.5234 0.63778 0.02765 0.0
C76 C 0.58477 0.63239 0.03543 0.0
C77 C 0.54161 0.60834 0.04971 0.0
N78 N 0.55426 0.67776 0.00229 0.0
N79 N 0.59077 0.6737 0.00591 0.0
C80 C 0.4792 0.63296 0.03923 0.0
H81 H 0.4789 0.67042 0.0382 0.0
H82 H 0.46766 0.61554 0.07954 0.0
H83 H 0.45663 0.60825 0.00824 0.0
C84 C 0.55081 0.83658 0.09363 0.0
N85 N 0.54386 0.81447 0.04421 0.0
N86 N 0.54792 0.77213 0.04775 0.0
C87 C 0.55536 0.7651 0.10025 0.0
C88 C 0.55672 0.80507 0.1308 0.0
C89 C 0.55963 0.89033 0.10455 0.0
H90 H 0.55114 0.90806 0.07017 0.0
H91 H 0.54326 0.89307 0.14213 0.0
H92 H 0.59463 0.91254 0.11172 0.0
O93 O 0.57559 0.8509 0.92566 0.0
O94 O 0.59123 0.78439 0.92868 0.0
H95 H 0.58795 0.71793 0.09632 0.0
H96 H 0.57717 0.73127 0.16388 0.0
C97 C 0.56406 0.72302 0.12207 0.0
H98 H 0.53379 0.68772 0.12349 0.0
H99 H 0.6203 0.7009 0.99175 0.0
O100 O 0.50512 0.88309 0.99283 0.0
C101 C 0.59784 0.82812 0.91044 0.0
Co102 Co 0.58033 0.61405 0.80312 0.0
Co103 Co 0.63962 0.64911 0.70016 0.0
C104 C 0.55444 0.55877 0.69701 0.0
O105 O 0.54778 0.5624 0.74718 0.0
O106 O 0.58824 0.59033 0.67355 0.0
C107 C 0.51418 0.54993 0.87782 0.0
O108 O 0.48898 0.53844 0.83516 0.0
C109 C 0.68838 0.64042 0.60927 0.0
C110 C 0.734 0.7196 0.59195 0.0
C111 C 0.72211 0.67017 0.57585 0.0
N112 N 0.68016 0.67069 0.64302 0.0
N113 N 0.70686 0.71814 0.63181 0.0
C114 C 0.66822 0.58392 0.61417 0.0
H115 H 0.64292 0.56725 0.58289 0.0
H116 H 0.65333 0.57169 0.65465 0.0
H117 H 0.69244 0.56929 0.60743 0.0
C118 C 0.65929 0.61168 0.84738 0.0
N119 N 0.63793 0.62146 0.80687 0.0
N120 N 0.66245 0.63428 0.76339 0.0
C121 C 0.70015 0.63316 0.77501 0.0
C122 C 0.69912 0.61847 0.82861 0.0
C123 C 0.6416 0.59485 0.90282 0.0
H124 H 0.62635 0.61867 0.91767 0.0
H125 H 0.61702 0.55496 0.90057 0.0
H126 H 0.66707 0.5975 0.93175 0.0
O127 O 0.57886 0.67992 0.78482 0.0
O128 O 0.62416 0.70334 0.71516 0.0
H129 H 0.7434 0.67849 0.7132 0.0
H130 H 0.76427 0.64302 0.7537 0.0
C131 C 0.73501 0.6422 0.73453 0.0
H132 H 0.72331 0.61143 0.70422 0.0
H133 H 0.70781 0.74927 0.65294 0.0
O134 O 0.55229 0.58503 0.87372 0.0
C135 C 0.59996 0.71191 0.74811 0.0
Co136 Co 0.10956 0.48945 0.03241 0.0
Co137 Co 0.17053 0.535 0.93679 0.0
C138 C 0.17294 0.45686 0.02042 0.0
O139 O 0.14872 0.46382 0.05481 0.0
O140 O 0.17983 0.47778 0.97351 0.0
C141 C 0.0414 0.42328 0.09854 0.0
O142 O 0.05025 0.3884 0.07632 0.0
C143 C 0.26039 0.58598 0.90979 0.0
C144 C 0.26261 0.61231 0.82564 0.0
C145 C 0.28832 0.61243 0.8688 0.0
N146 N 0.21985 0.56989 0.89193 0.0
N147 N 0.22126 0.58527 0.84123 0.0
C148 C 0.27237 0.58193 0.96731 0.0
H149 H 0.24353 0.56474 0.99354 0.0
H150 H 0.29398 0.62006 0.98291 0.0
H151 H 0.2906 0.559 0.96904 0.0
C152 C 0.14048 0.59796 0.06089 0.0
N153 N 0.14043 0.56074 0.02921 0.0
N154 N 0.16896 0.58051 0.99032 0.0
C155 C 0.18761 0.63125 0.99541 0.0
C156 C 0.17041 0.64399 0.04046 0.0
C157 C 0.1133 0.58901 0.11055 0.0
H158 H 0.1125 0.55605 0.13328 0.0
H159 H 0.12546 0.62275 0.13719 0.0
H160 H 0.07986 0.5799 0.09811 0.0
O161 O 0.09388 0.45845 0.96103 0.0
O162 O 0.11335 0.51491 0.89913 0.0
H163 H 0.21979 0.7054 0.95903 0.0
H164 H 0.25117 0.67029 0.96339 0.0
C165 C 0.21856 0.6672 0.95552 0.0
H166 H 0.20899 0.65297 0.91373 0.0
H167 H 0.19416 0.57876 0.81799 0.0
O168 O 0.06165 0.46871 0.08283 0.0
C169 C 0.08317 0.48369 0.92845 0.0
Co170 Co 0.4626 0.16238 0.48985 0.0
Co171 Co 0.4425 0.25749 0.49004 0.0
C172 C 0.52556 0.25931 0.44422 0.0
O173 O 0.51578 0.21383 0.45745 0.0
O174 O 0.50016 0.2791 0.45457 0.0
C175 C 0.50312 0.09465 0.48958 0.0
O176 O 0.52539 0.12286 0.44905 0.0
C177 C 0.47053 0.35457 0.5418 0.0
C178 C 0.41503 0.37235 0.53619 0.0
C179 C 0.45549 0.38865 0.55907 0.0
N180 N 0.44011 0.31903 0.51114 0.0
N181 N 0.4071 0.33016 0.50735 0.0
C182 C 0.51276 0.35463 0.55544 0.0
H183 H 0.50709 0.31916 0.57702 0.0
H184 H 0.53332 0.38766 0.5805 0.0
H185 H 0.53029 0.35583 0.51754 0.0
C186 C 0.45099 0.17088 0.60784 0.0
N187 N 0.45072 0.1855 0.55606 0.0
N188 N 0.43712 0.2207 0.55497 0.0
C189 C 0.42581 0.2272 0.6056 0.0
C190 C 0.43512 0.19681 0.64076 0.0
C191 C 0.4679 0.13453 0.62587 0.0
H192 H 0.49773 0.1416 0.6033 0.0
H193 H 0.47462 0.13755 0.67003 0.0
H194 H 0.44333 0.09564 0.61699 0.0
O195 O 0.41462 0.1487 0.43665 0.0
O196 O 0.39793 0.21427 0.43726 0.0
H197 H 0.38275 0.24271 0.65699 0.0
H198 H 0.42607 0.29701 0.62855 0.0
C199 C 0.40255 0.25792 0.62001 0.0
H200 H 0.38159 0.25796 0.58605 0.0
H201 H 0.37849 0.30783 0.48725 0.0
O202 O 0.47183 0.1016 0.50818 0.0
C203 C 0.39223 0.1709 0.41976 0.0
Co204 Co 0.49156 0.70728 0.50381 0.0
Co205 Co 0.48718 0.81012 0.51343 0.0
C206 C 0.41165 0.70987 0.54049 0.0
O207 O 0.43028 0.68342 0.52441 0.0
O208 O 0.4307 0.7578 0.53803 0.0
C209 C 0.47532 0.61382 0.45537 0.0
O210 O 0.44197 0.619 0.43638 0.0
C211 C 0.44605 0.87046 0.47853 0.0
C212 C 0.49572 0.94848 0.49014 0.0
C213 C 0.45489 0.92025 0.47013 0.0
N214 N 0.47987 0.86904 0.50355 0.0
N215 N 0.50931 0.91586 0.5115 0.0
C216 C 0.4097 0.82548 0.4538 0.0
H217 H 0.3804 0.8151 0.4787 0.0
H218 H 0.41757 0.7929 0.45106 0.0
H219 H 0.40241 0.83475 0.41257 0.0
C220 C 0.5227 0.74733 0.39278 0.0
N221 N 0.50844 0.75113 0.44271 0.0
N222 N 0.50638 0.79459 0.44642 0.0
C223 C 0.5187 0.81935 0.39853 0.0
C224 C 0.52922 0.79002 0.36312 0.0
C225 C 0.53174 0.70474 0.37355 0.0
H226 H 0.54702 0.6925 0.40626 0.0
H227 H 0.50116 0.6726 0.3613 0.0
H228 H 0.55349 0.71626 0.33787 0.0
O229 O 0.52465 0.74188 0.56904 0.0
O230 O 0.52676 0.81861 0.57431 0.0
H231 H 0.53605 0.89691 0.417 0.0
H232 H 0.53294 0.88359 0.34545 0.0
C233 C 0.51824 0.86878 0.38546 0.0
H234 H 0.48459 0.86363 0.3843 0.0
H235 H 0.5396 0.9253 0.52814 0.0
O236 O 0.50093 0.64718 0.48746 0.0
C237 C 0.53632 0.78441 0.59264 0.0
Co238 Co 0.9218 0.52608 0.93246 0.0
Co239 Co 0.86114 0.47215 0.0287 0.0
C240 C 0.88102 0.41212 0.94876 0.0
O241 O 0.90951 0.45191 0.92645 0.0
O242 O 0.85705 0.41447 0.9864 0.0
C243 C 0.9732 0.54348 0.83993 0.0
O244 O 0.98129 0.50731 0.86026 0.0
C245 C 0.77716 0.40656 0.06874 0.0
C246 C 0.77259 0.43763 0.14843 0.0
C247 C 0.74891 0.40154 0.11034 0.0
N248 N 0.81602 0.44361 0.08134 0.0
N249 N 0.81338 0.46151 0.12962 0.0
C250 C 0.76558 0.38183 0.01415 0.0
H251 H 0.77659 0.35172 0.01168 0.0
H252 H 0.78181 0.40994 0.98176 0.0
H253 H 0.73038 0.36444 0.00691 0.0
C254 C 0.85316 0.55386 0.9025 0.0
N255 N 0.87014 0.5302 0.93431 0.0
N256 N 0.84735 0.51436 0.97906 0.0
C257 C 0.81442 0.52732 0.97649 0.0
C258 C 0.81726 0.55281 0.92815 0.0
C259 C 0.87098 0.57652 0.84852 0.0
H260 H 0.88019 0.5505 0.8257 0.0
H261 H 0.84737 0.58413 0.82441 0.0
H262 H 0.90036 0.61242 0.85465 0.0
O263 O 0.94551 0.55964 9e-05 0.0
O264 O 0.92319 0.49687 0.05558 0.0
H265 H 0.76623 0.54328 0.0164 0.0
H266 H 0.75572 0.47788 0.01522 0.0
C267 C 0.78132 0.51699 0.01973 0.0
H268 H 0.79625 0.52116 0.06023 0.0
H269 H 0.83849 0.49218 0.14801 0.0
O270 O 0.95631 0.56445 0.87044 0.0
C271 C 0.95455 0.53166 0.03067 0.0
Co272 Co 0.32565 0.96878 0.2026 0.0
Co273 Co 0.2506 0.91784 0.28828 0.0
C274 C 0.33997 0.941 0.3164 0.0
O275 O 0.35327 0.96053 0.27028 0.0
O276 O 0.30028 0.92027 0.32733 0.0
C277 C 0.37935 0.94002 0.15547 0.0
O278 O 0.35501 0.905 0.18978 0.0
C279 C 0.20181 0.83366 0.35763 0.0
C280 C 0.137 0.83054 0.36072 0.0
C281 C 0.16041 0.80442 0.37548 0.0
N282 N 0.2032 0.87523 0.33314 0.0
N283 N 0.16454 0.87389 0.33635 0.0
C284 C 0.23739 0.81749 0.35529 0.0
H285 H 0.2604 0.83598 0.38861 0.0
H286 H 0.25474 0.82879 0.31615 0.0
H287 H 0.22517 0.77601 0.36 0.0
C288 C 0.26478 0.88299 0.1363 0.0
N289 N 0.27456 0.91094 0.18203 0.0
N290 N 0.24426 0.88803 0.21816 0.0
C291 C 0.2149 0.84406 0.19679 0.0
C292 C 0.22719 0.83927 0.14437 0.0
C293 C 0.29081 0.8972 0.08527 0.0
H294 H 0.30864 0.93887 0.08161 0.0
H295 H 0.31395 0.88047 0.08549 0.0
H296 H 0.26956 0.88191 0.0495 0.0
O297 O 0.31411 0.02678 0.222 0.0
O298 O 0.26462 0.99173 0.28703 0.0
H299 H 0.15916 0.82149 0.24705 0.0
H300 H 0.15709 0.77265 0.20218 0.0
C301 C 0.17854 0.80444 0.22785 0.0
H302 H 0.19161 0.78835 0.25935 0.0
H303 H 0.15618 0.90041 0.31833 0.0
O304 O 0.37175 0.97827 0.14823 0.0
C305 C 0.29206 0.03078 0.26189 0.0
Co306 Co 0.48628 0.28762 0.01959 0.0
Co307 Co 0.49714 0.18724 0.02243 0.0
C308 C 0.56924 0.28864 0.05386 0.0
O309 O 0.54745 0.3128 0.0423 0.0
O310 O 0.55322 0.24091 0.0478 0.0
C311 C 0.49497 0.38991 0.02485 0.0
O312 O 0.52406 0.39638 0.06211 0.0
C313 C 0.53914 0.12832 0.98422 0.0
C314 C 0.48846 0.04975 0.98863 0.0
C315 C 0.52985 0.07921 0.97039 0.0
N316 N 0.50487 0.12828 0.00948 0.0
N317 N 0.47497 0.08106 0.01345 0.0
C318 C 0.5768 0.17521 0.96493 0.0
H319 H 0.56772 0.20673 0.96008 0.0
H320 H 0.58923 0.16872 0.92571 0.0
H321 H 0.60305 0.18612 0.99512 0.0
C322 C 0.46166 0.25579 0.90659 0.0
N323 N 0.47426 0.24841 0.95616 0.0
N324 N 0.4782 0.20597 0.95654 0.0
C325 C 0.4684 0.18512 0.90659 0.0
C326 C 0.4574 0.2159 0.87347 0.0
C327 C 0.45285 0.29974 0.89184 0.0
H328 H 0.42843 0.30112 0.92001 0.0
H329 H 0.48275 0.33537 0.89646 0.0
H330 H 0.44066 0.29694 0.84982 0.0
O331 O 0.45022 0.24699 0.07936 0.0
O332 O 0.45609 0.17453 0.08293 0.0
H333 H 0.45479 0.10733 0.91654 0.0
H334 H 0.46307 0.12829 0.84694 0.0
C335 C 0.4735 0.13939 0.88924 0.0
H336 H 0.50788 0.14778 0.89154 0.0
H337 H 0.44431 0.07067 0.02936 0.0
O338 O 0.47414 0.34632 0.00439 0.0
C339 C 0.44086 0.20392 0.10059 0.0
Co340 Co 0.09339 0.49065 0.40318 0.0
Co341 Co 0.12893 0.52984 0.51855 0.0
C342 C 0.12527 0.59778 0.42575 0.0
O343 O 0.11306 0.56367 0.38947 0.0
O344 O 0.1315 0.58774 0.47419 0.0
C345 C 0.0328 0.44976 0.32015 0.0
O346 O 0.01323 0.47208 0.34716 0.0
C347 C 0.20895 0.5972 0.56231 0.0
C348 C 0.2091 0.5751 0.64767 0.0
C349 C 0.2349 0.60665 0.60726 0.0
N350 N 0.16935 0.56212 0.57497 0.0
N351 N 0.1692 0.54957 0.62651 0.0
C352 C 0.22371 0.61517 0.50568 0.0
H353 H 0.21995 0.65014 0.49799 0.0
H354 H 0.20437 0.58631 0.47556 0.0
H355 H 0.25812 0.62416 0.49986 0.0
C356 C 0.15819 0.45165 0.40811 0.0
N357 N 0.13622 0.47488 0.43046 0.0
N358 N 0.14909 0.48761 0.48057 0.0
C359 C 0.17947 0.47182 0.49201 0.0
C360 C 0.18645 0.449 0.44641 0.0
C361 C 0.15414 0.43572 0.35002 0.0
H362 H 0.12563 0.39866 0.34559 0.0
H363 H 0.14906 0.46356 0.32422 0.0
H364 H 0.18307 0.43198 0.33595 0.0
O365 O 0.04624 0.47202 0.45372 0.0
O366 O 0.06667 0.49483 0.5386 0.0
H367 H 0.1786 0.47332 0.57882 0.0
H368 H 0.2143 0.44943 0.55029 0.0
C369 C 0.20141 0.47774 0.54547 0.0
H370 H 0.22871 0.51582 0.5476 0.0
H371 H 0.14296 0.52113 0.64602 0.0
O372 O 0.06853 0.45291 0.33719 0.0
C373 C 0.03712 0.47497 0.50291 0.0
Co374 Co 0.66342 0.04175 0.69874 0.0
Co375 Co 0.73733 0.09005 0.78825 0.0
C376 C 0.64473 0.07071 0.80689 0.0
O377 O 0.6326 0.05559 0.75886 0.0
O378 O 0.68362 0.08507 0.82151 0.0
C379 C 0.58395 0.00987 0.63843 0.0
O380 O 0.56597 0.99498 0.68613 0.0
C381 C 0.78455 0.1696 0.86633 0.0
C382 C 0.85194 0.18611 0.84989 0.0
C383 C 0.8266 0.20582 0.87459 0.0
N384 N 0.78485 0.13248 0.83479 0.0
N385 N 0.82542 0.14141 0.82731 0.0
C386 C 0.74466 0.16855 0.89093 0.0
H387 H 0.72608 0.13101 0.90967 0.0
H388 H 0.72455 0.17416 0.85906 0.0
H389 H 0.75228 0.19775 0.92284 0.0
C390 C 0.72276 0.13157 0.63882 0.0
N391 N 0.71443 0.10017 0.68169 0.0
N392 N 0.74531 0.12067 0.71774 0.0
C393 C 0.77424 0.16582 0.69811 0.0
C394 C 0.76076 0.17416 0.64783 0.0
C395 C 0.69222 0.124 0.59318 0.0
H396 H 0.68767 0.08917 0.57139 0.0
H397 H 0.66079 0.11929 0.60943 0.0
H398 H 0.70445 0.15611 0.56421 0.0
O399 O 0.67365 0.98445 0.72666 0.0
O400 O 0.72654 0.01761 0.78736 0.0
H401 H 0.83023 0.23826 0.70413 0.0
H402 H 0.80154 0.21365 0.76627 0.0
C403 C 0.81234 0.20332 0.72813 0.0
H404 H 0.8346 0.18641 0.73679 0.0
H405 H 0.8351 0.11978 0.80228 0.0
O406 O 0.62438 0.02499 0.63412 0.0
C407 C 0.69743 0.97922 0.76356 0.0
C408 C 0.44635 0.21924 0.19734 0.0
C409 C 0.41963 0.19482 0.15325 0.0
C410 C 0.43315 0.24421 0.23604 0.0
C411 C 0.39265 0.24427 0.23169 0.0
H412 H 0.47989 0.22645 0.19688 0.0
H413 H 0.45688 0.26896 0.26446 0.0
S414 S 0.30501 0.16596 0.13789 0.0
N415 N 0.34729 0.15863 0.11702 0.0
N416 N 0.3211 0.20281 0.19176 0.0
C417 C 0.36261 0.21005 0.1953 0.0
C418 C 0.37651 0.18579 0.15527 0.0
C419 C 0.92944 0.45305 0.45559 0.0
C420 C 0.93316 0.50252 0.45901 0.0
C421 C 0.96005 0.44025 0.48009 0.0
C422 C -0.00465 0.47634 0.50899 0.0
H423 H 0.90371 0.42452 0.43233 0.0
H424 H 0.95863 0.40344 0.4716 0.0
S425 S 0.01664 0.60903 0.53584 0.0
N426 N 0.9731 0.58647 0.49764 0.0
N427 N 0.02891 0.56141 0.54534 0.0
C428 C -0.0034 0.52406 0.51761 0.0
C429 C 0.96641 0.53765 0.49146 0.0
C430 C 0.63927 0.89195 0.77763 0.0
C431 C 0.6808 0.92899 0.79134 0.0
C432 C 0.61387 0.85515 0.8151 0.0
C433 C 0.62941 0.85265 0.86695 0.0
H434 H 0.62417 0.89458 0.74006 0.0
H435 H 0.58052 0.83137 0.80509 0.0
S436 S 0.7391 0.93125 0.91859 0.0
N437 N 0.73892 0.95398 0.85737 0.0
N438 N 0.69084 0.88402 0.92725 0.0
C439 C 0.67251 0.88458 0.87874 0.0
C440 C 0.69846 0.92265 0.8408 0.0
C441 C 0.54403 0.74036 0.73028 0.0
C442 C 0.58801 0.7522 0.73165 0.0
C443 C 0.5275 0.75822 0.68788 0.0
C444 C 0.55465 0.78901 0.6469 0.0
H445 H 0.52152 0.71116 0.75646 0.0
H446 H 0.49288 0.74258 0.6833 0.0
S447 S 0.67333 0.84597 0.64499 0.0
N448 N 0.65945 0.80839 0.69854 0.0
N449 N 0.62791 0.8413 0.61831 0.0
C450 C 0.5991 0.8088 0.65396 0.0
C451 C 0.61599 0.79088 0.69718 0.0
C452 C 0.01396 0.45937 0.97676 0.0
C453 C 0.04928 0.497 0.94933 0.0
C454 C 0.98515 0.47109 0.00678 0.0
C455 C 0.99004 0.52098 0.00993 0.0
H456 H 0.00914 0.42042 0.9761 0.0
H457 H 0.95816 0.44049 0.02615 0.0
S458 S 0.07622 0.63349 0.94402 0.0
N459 N 0.08706 0.58622 0.92663 0.0
N460 N 0.03283 0.60845 0.98248 0.0
C461 C 0.02521 0.55904 0.98249 0.0
C462 C 0.05456 0.54703 0.95194 0.0
C463 C 0.35424 0.11313 0.28289 0.0
C464 C 0.31072 0.07946 0.29242 0.0
C465 C 0.37975 0.1455 0.32358 0.0
C466 C 0.36246 0.14733 0.37439 0.0
H467 H 0.37029 0.1106 0.24616 0.0
H468 H 0.41399 0.16662 0.31656 0.0
S469 S 0.24862 0.0775 0.41588 0.0
N470 N 0.24997 0.05718 0.35386 0.0
N471 N 0.29818 0.11975 0.42952 0.0
C472 C 0.31811 0.11927 0.38227 0.0
C473 C 0.29206 0.08532 0.3412 0.0
C474 C 0.19732 0.36405 0.10198 0.0
C475 C 0.2367 0.36994 0.08045 0.0
C476 C 0.17616 0.39089 0.08057 0.0
C477 C 0.19343 0.4242 0.03647 0.0
H478 H 0.18396 0.34071 0.13752 0.0
H479 H 0.14664 0.38659 0.09993 0.0
S480 S 0.29292 0.44653 0.9609 0.0
N481 N 0.29035 0.40694 0.00984 0.0
N482 N 0.24998 0.45689 0.96825 0.0
C483 C 0.23131 0.42745 0.01207 0.0
C484 C 0.25319 0.40051 0.03453 0.0
C485 C 0.58179 0.34276 0.41068 0.0
C486 C 0.56764 0.29032 0.4175 0.0
C487 C 0.62287 0.37366 0.39032 0.0
C488 C 0.65124 0.35332 0.37543 0.0
H489 H 0.56164 0.36054 0.42288 0.0
H490 H 0.63311 0.41408 0.38799 0.0
S491 S 0.62923 0.21837 0.38007 0.0
N492 N 0.58483 0.21923 0.40337 0.0
N493 N 0.66195 0.27768 0.36545 0.0
C494 C 0.63691 0.30088 0.37899 0.0
C495 C 0.59519 0.26932 0.40004 0.0
C496 C 0.47936 0.5268 0.07375 0.0
C497 C 0.52021 0.56471 0.087 0.0
C498 C 0.45616 0.48774 0.11 0.0
C499 C 0.47221 0.48529 0.16198 0.0
H500 H 0.46494 0.52748 0.03496 0.0
H501 H 0.42485 0.45973 0.09716 0.0
S502 S 0.57875 0.57505 0.21576 0.0
N503 N 0.57696 0.59676 0.15449 0.0
N504 N 0.53285 0.52389 0.22375 0.0
C505 C 0.51374 0.52235 0.17525 0.0
C506 C 0.5378 0.56187 0.13757 0.0
C507 C 0.78947 0.66184 0.5651 0.0
C508 C 0.74865 0.65186 0.54501 0.0
C509 C 0.81061 0.63358 0.5476 0.0
C510 C 0.79181 0.59484 0.509 0.0
H511 H 0.8036 0.68874 0.59767 0.0
H512 H 0.8409 0.64039 0.56662 0.0
S513 S 0.68853 0.56071 0.43741 0.0
N514 N 0.69224 0.60542 0.48038 0.0
N515 N 0.7328 0.55322 0.44566 0.0
C516 C 0.75294 0.58813 0.48467 0.0
C517 C 0.73103 0.61639 0.5033 0.0
C518 C 0.39581 0.72291 0.89464 0.0
C519 C 0.42243 0.69931 0.90781 0.0
C520 C 0.35305 0.6947 0.87817 0.0
C521 C 0.33524 0.6419 0.87451 0.0
H522 H 0.40749 0.7634 0.89896 0.0
H523 H 0.33313 0.71407 0.87112 0.0
S524 S 0.39158 0.56172 0.89746 0.0
N525 N 0.42832 0.61976 0.91001 0.0
N526 N 0.34751 0.56703 0.88071 0.0
C527 C 0.3617 0.61789 0.88464 0.0
C528 C 0.40545 0.64654 0.90073 0.0
C529 C 0.50969 0.52196 0.61465 0.0
C530 C 0.52426 0.51498 0.66579 0.0
C531 C 0.48536 0.48049 0.58141 0.0
C532 C 0.4763 0.43105 0.59749 0.0
H533 H 0.51768 0.55976 0.60006 0.0
H534 H 0.47499 0.4872 0.54208 0.0
S535 S 0.504 0.39273 0.72986 0.0
N536 N 0.52488 0.45501 0.73294 0.0
N537 N 0.48069 0.37729 0.66991 0.0
C538 C 0.48916 0.4236 0.64957 0.0
C539 C 0.51287 0.4656 0.68387 0.0
C540 C 0.41367 0.95368 0.34347 0.0
C541 C 0.37115 0.94278 0.35823 0.0
C542 C 0.44255 0.95098 0.38161 0.0
C543 C 0.42972 0.93742 0.43545 0.0
H544 H 0.42417 0.9621 0.30175 0.0
H545 H 0.47408 0.95624 0.36821 0.0
S546 S 0.32484 0.91232 0.49689 0.0
N547 N 0.31981 0.92403 0.43248 0.0
N548 N 0.37407 0.91737 0.50327 0.0
C549 C 0.38855 0.92953 0.45159 0.0
C550 C 0.35921 0.93262 0.41314 0.0
C551 C 0.67619 0.3971 0.09489 0.0
C552 C 0.70177 0.37233 0.10709 0.0
C553 C 0.63309 0.36972 0.07897 0.0
C554 C 0.61405 0.31652 0.07469 0.0
H555 H 0.69022 0.43803 0.09484 0.0
H556 H 0.61507 0.39064 0.06834 0.0
S557 S 0.66747 0.23428 0.10754 0.0
N558 N 0.70522 0.29235 0.11706 0.0
N559 N 0.62411 0.24031 0.08893 0.0
C560 C 0.63911 0.2914 0.08969 0.0
C561 C 0.68299 0.31945 0.10538 0.0
C562 C 0.15216 0.68908 0.45053 0.0
C563 C 0.13093 0.64977 0.41306 0.0
C564 C 0.15891 0.73875 0.43974 0.0
C565 C 0.14382 0.7509 0.39174 0.0
H566 H 0.16479 0.68188 0.48803 0.0
H567 H 0.17752 0.76827 0.46822 0.0
S568 S 0.08371 0.66238 0.28191 0.0
N569 N 0.09296 0.62662 0.32682 0.0
N570 N 0.10519 0.72008 0.30736 0.0
C571 C 0.12091 0.71198 0.35498 0.0
C572 C 0.11461 0.66141 0.36541 0.0
C573 C 0.62399 0.07219 0.90352 0.0
C574 C 0.61266 0.06784 0.84823 0.0
C575 C 0.59548 0.07181 0.94375 0.0
C576 C 0.55411 0.0654 0.93037 0.0
H577 H 0.65534 0.07662 0.91612 0.0
H578 H 0.60642 0.07851 0.98542 0.0
S579 S 0.50629 0.04739 0.79317 0.0
N580 N 0.55566 0.05398 0.78295 0.0
N581 N 0.5015 0.05109 0.85939 0.0
C582 C 0.54107 0.05771 0.876 0.0
C583 C 0.57046 0.05935 0.83468 0.0
C584 C 0.34852 0.63242 0.57487 0.0
C585 C 0.36781 0.68487 0.56455 0.0
C586 C 0.30645 0.60766 0.59517 0.0
C587 C 0.28208 0.63435 0.60534 0.0
H588 H 0.36551 0.60997 0.56586 0.0
H589 H 0.29199 0.56694 0.59957 0.0
S590 S 0.31796 0.77203 0.59029 0.0
N591 N 0.35987 0.76307 0.57142 0.0
N592 N 0.28029 0.71562 0.60697 0.0
C593 C 0.30141 0.68679 0.59792 0.0
C594 C 0.34438 0.71228 0.57813 0.0
C595 C 0.88012 0.28473 0.92079 0.0
C596 C 0.8415 0.25954 0.89149 0.0
C597 C 0.89431 0.33529 0.93762 0.0
C598 C 0.87019 0.36198 0.92564 0.0
H599 H 0.89902 0.26492 0.93168 0.0
H600 H 0.92346 0.35299 0.96143 0.0
S601 S 0.7698 0.31635 0.84581 0.0
N602 N 0.78289 0.2688 0.84544 0.0
N603 N 0.80715 0.36098 0.88223 0.0
C604 C 0.83236 0.33791 0.89559 0.0
C605 C 0.81868 0.28745 0.87697 0.0
C606 C 0.21045 0.38385 0.41996 0.0
C607 C 0.22101 0.43335 0.43698 0.0
C608 C 0.24225 0.37068 0.40066 0.0
C609 C 0.28541 0.40687 0.3969 0.0
H610 H 0.17715 0.35588 0.41898 0.0
H611 H 0.23258 0.33293 0.38484 0.0
S612 S 0.32984 0.54069 0.4403 0.0
N613 N 0.27779 0.51768 0.45301 0.0
N614 N 0.33748 0.49325 0.41519 0.0
C615 C 0.29676 0.4556 0.41715 0.0
C616 C 0.26445 0.46884 0.43746 0.0
C617 C 0.79277 0.23292 0.56934 0.0
C618 C 0.77407 0.22369 0.62119 0.0
C619 C 0.80483 0.27991 0.54379 0.0
C620 C 0.79827 0.31853 0.56951 0.0
H621 H 0.79809 0.20373 0.54864 0.0
H622 H 0.81942 0.28618 0.50396 0.0
S623 S 0.74834 0.3119 0.70361 0.0
N624 N 0.74807 0.25601 0.6962 0.0
N625 N 0.771 0.34423 0.64832 0.0
C626 C 0.77942 0.3095 0.62103 0.0
C627 C 0.76712 0.26196 0.64685 0.0
C628 C 0.51387 0.76507 0.21276 0.0
C629 C 0.55052 0.80448 0.19009 0.0
C630 C 0.50715 0.76131 0.26876 0.0
C631 C 0.53681 0.79689 0.30409 0.0
H632 H 0.49027 0.73671 0.18689 0.0
H633 H 0.47859 0.73018 0.28464 0.0
S634 S 0.63838 0.90649 0.26526 0.0
N635 N 0.6171 0.87944 0.20699 0.0
N636 N 0.60447 0.87234 0.31291 0.0
C637 C 0.57348 0.83672 0.28207 0.0
C638 C 0.58032 0.84058 0.2248 0.0
C639 C 0.71548 0.55313 0.87334 0.0
C640 C 0.72947 0.6035 0.85641 0.0
C641 C 0.74391 0.5373 0.89817 0.0
C642 C 0.78712 0.57138 0.90658 0.0
H643 H 0.68257 0.5256 0.86635 0.0
H644 H 0.73235 0.49791 0.90948 0.0
S645 S 0.83835 0.70818 0.87426 0.0
N646 N 0.7882 0.68804 0.85316 0.0
N647 N 0.84194 0.65815 0.89955 0.0
C648 C 0.80114 0.62212 0.89136 0.0
C649 C 0.77218 0.63825 0.86627 0.0
C650 C 0.24127 0.77084 0.10289 0.0
C651 C 0.21246 0.7919 0.11267 0.0
C652 C 0.22743 0.72336 0.07846 0.0
C653 C 0.18416 0.69492 0.0639 0.0
H654 H 0.27447 0.79044 0.11583 0.0
H655 H 0.25047 0.7081 0.07239 0.0
S656 S 0.09676 0.73472 0.07689 0.0
N657 N 0.13958 0.78266 0.10173 0.0
N658 N 0.11301 0.69195 0.05854 0.0
C659 C 0.15522 0.71591 0.07234 0.0
C660 C 0.16955 0.76485 0.09597 0.0
C661 C 0.46978 0.24567 0.72333 0.0
C662 C 0.43826 0.20137 0.70016 0.0
C663 C 0.47532 0.25028 0.77959 0.0
C664 C 0.44907 0.21102 0.81442 0.0
H665 H 0.49095 0.27643 0.69765 0.0
H666 H 0.50085 0.2844 0.7959 0.0
S667 S 0.35953 0.08922 0.77338 0.0
N668 N 0.37948 0.11848 0.71554 0.0
N669 N 0.38844 0.12794 0.82181 0.0
C670 C 0.41643 0.16726 0.79165 0.0
C671 C 0.41139 0.16221 0.73429 0.0
C672 C 0.45784 0.53773 0.39712 0.0
C673 C 0.48423 0.57145 0.43674 0.0
C674 C 0.46341 0.49514 0.38185 0.0
C675 C 0.49421 0.48339 0.40725 0.0
H676 H 0.43203 0.54355 0.3784 0.0
H677 H 0.44206 0.47014 0.35181 0.0
S678 S 0.57948 0.56708 0.50137 0.0
N679 N 0.54868 0.59615 0.49181 0.0
N680 N 0.55772 0.5149 0.46502 0.0
C681 C 0.52369 0.51953 0.44266 0.0
C682 C 0.5188 0.56362 0.45723 0.0
C683 C 0.97823 0.57607 0.74556 0.0
C684 C 0.95815 0.53765 0.78401 0.0
C685 C 0.95772 0.57548 0.69623 0.0
C686 C 0.91578 0.5381 0.68598 0.0
H687 H 0.00913 0.6073 0.75436 0.0
H688 H 0.9738 0.60557 0.66719 0.0
S689 S 0.85014 0.42973 0.77458 0.0
N690 N 0.89576 0.46007 0.80765 0.0
N691 N 0.85531 0.46197 0.71821 0.0
C692 C 0.89581 0.4995 0.72422 0.0
C693 C 0.9176 0.49845 0.77246 0.0
C694 C 0.4421 0.9251 0.03582 0.0
C695 C 0.45504 0.88934 0.05653 0.0
C696 C 0.41992 0.94498 0.0689 0.0
C697 C 0.411 0.93013 0.12355 0.0
H698 H 0.44667 0.93519 0.99329 0.0
H699 H 0.40747 0.96944 0.05086 0.0
S700 S 0.44452 0.84382 0.19859 0.0
N701 N 0.46032 0.84317 0.1357 0.0
N702 N 0.42235 0.88329 0.19831 0.0
C703 C 0.42727 0.89785 0.14537 0.0
C704 C 0.44826 0.8766 0.11169 0.0
C705 C 0.53123 0.48056 -0.00226 0.0
C706 C 0.49425 0.43415 -0.003 0.0
C707 C 0.5356 0.51959 0.9622 0.0
C708 C 0.50352 0.5139 0.92409 0.0
H709 H 0.55815 0.48599 0.02372 0.0
H710 H 0.56545 0.55352 0.96298 0.0
S711 S 0.39606 0.404 0.91511 0.0
N712 N 0.42161 0.38777 0.96218 0.0
N713 N 0.4301 0.46114 0.89478 0.0
C714 C 0.46452 0.46957 0.92686 0.0
C715 C 0.45992 0.42969 0.96333 0.0
C716 C 0.03019 0.38451 0.1895 0.0
C717 C 0.02155 0.41519 0.15247 0.0
C718 C 0.02943 0.39247 0.2452 0.0
C719 C 0.01902 0.43039 0.26525 0.0
H720 H 0.04256 0.35851 0.17565 0.0
H721 H 0.04062 0.37184 0.27244 0.0
S722 S 0.98314 0.51139 0.18489 0.0
N723 N -0.00559 0.47787 0.13944 0.0
N724 N 0.99196 0.49205 0.24447 0.0
C725 C 0.00414 0.45595 0.22895 0.0
C726 C 0.00557 0.44839 0.17222 0.0
C727 C 0.51976 0.02086 0.60647 0.0
C728 C 0.55993 0.02174 0.59479 0.0
C729 C 0.50016 0.04127 0.57039 0.0
C730 C 0.5202 0.06439 0.52149 0.0
H731 H 0.504 0.0063 0.64487 0.0
H732 H 0.46978 0.0405 0.58209 0.0
S733 S 0.62 0.06481 0.46547 0.0
N734 N 0.61444 0.03795 0.52556 0.0
N735 N 0.57913 0.07915 0.45926 0.0
C736 C 0.55867 0.06187 0.50728 0.0
C737 C 0.57812 0.03991 0.54354 0.0
loop_
_geom_bond_atom_site_label_1
_geom_bond_atom_site_label_2
_geom_bond_distance
_geom_bond_site_symmetry_2
_ccdc_geom_bond_type
Co0 O3 1.970 . S
Co0 N17 1.989 . S
Co0 O25 1.967 . S
Co0 O32 1.920 . S
Co1 O4 1.966 . S
Co1 N10 2.022 . S
Co1 N18 1.993 . S
Co1 O26 1.941 . S
C2 O3 1.258 . S
C2 O4 1.263 . S
O3 Co0 1.970 . S
O3 C2 1.258 . S
O4 Co1 1.966 . S
O4 C2 1.263 . S
C5 O6 1.235 . S
C5 O32 1.289 . S
O6 C5 1.235 . S
C7 C9 1.400 . S
C7 N10 1.351 . S
C7 C12 1.501 . S
C8 C9 1.387 . S
C8 N11 1.341 . S
C9 C7 1.400 . S
C9 C8 1.387 . S
N10 Co1 2.022 . S
N10 C7 1.351 . S
N10 N11 1.365 . S
N11 C8 1.341 . S
N11 N10 1.365 . S
N11 H31 0.862 . S
C12 C7 1.501 . S
C12 H13 0.961 . S
C12 H14 0.961 . S
C12 H15 0.960 . S
H13 C12 0.961 . S
H14 C12 0.961 . S
H15 C12 0.960 . S
C16 N17 1.342 . S
C16 C20 1.401 . S
C16 C21 1.499 . S
N17 Co0 1.989 . S
N17 C16 1.342 . S
N17 N18 1.388 . S
N18 Co1 1.993 . S
N18 N17 1.388 . S
N18 C19 1.346 . S
C19 N18 1.346 . S
C19 C20 1.396 . S
C19 C29 1.510 . S
C20 C16 1.401 . S
C20 C19 1.396 . S
C21 C16 1.499 . S
C21 H22 0.959 . S
C21 H23 0.960 . S
C21 H24 0.961 . S
H22 C21 0.959 . S
H23 C21 0.960 . S
H24 C21 0.961 . S
O25 Co0 1.967 . S
O25 C33 1.258 . S
O26 Co1 1.941 . S
O26 C33 1.266 . S
H27 C29 0.959 . S
H28 C29 0.961 . S
C29 C19 1.510 . S
C29 H27 0.959 . S
C29 H28 0.961 . S
C29 H30 0.960 . S
H30 C29 0.960 . S
H31 N11 0.862 . S
O32 Co0 1.920 . S
O32 C5 1.289 . S
C33 O25 1.258 . S
C33 O26 1.266 . S
Co34 O37 1.970 . S
Co34 N51 1.989 . S
Co34 O59 1.967 . S
Co34 O66 1.920 . S
Co35 O38 1.966 . S
Co35 N44 2.022 . S
Co35 N52 1.993 . S
Co35 O60 1.941 . S
C36 O37 1.258 . S
C36 O38 1.263 . S
O37 Co34 1.970 . S
O37 C36 1.258 . S
O38 Co35 1.966 . S
O38 C36 1.263 . S
C39 O40 1.235 . S
C39 O66 1.289 . S
O40 C39 1.235 . S
C41 C43 1.400 . S
C41 N44 1.351 . S
C41 C46 1.501 . S
C42 C43 1.387 . S
C42 N45 1.341 . S
C43 C41 1.400 . S
C43 C42 1.387 . S
N44 Co35 2.022 . S
N44 C41 1.351 . S
N44 N45 1.365 . S
N45 C42 1.341 . S
N45 N44 1.365 . S
N45 H65 0.862 . S
C46 C41 1.501 . S
C46 H47 0.961 . S
C46 H48 0.961 . S
C46 H49 0.960 . S
H47 C46 0.961 . S
H48 C46 0.961 . S
H49 C46 0.960 . S
C50 N51 1.342 . S
C50 C54 1.401 . S
C50 C55 1.499 . S
N51 Co34 1.989 . S
N51 C50 1.342 . S
N51 N52 1.388 . S
N52 Co35 1.993 . S
N52 N51 1.388 . S
N52 C53 1.346 . S
C53 N52 1.346 . S
C53 C54 1.396 . S
C53 C63 1.510 . S
C54 C50 1.401 . S
C54 C53 1.396 . S
C55 C50 1.499 . S
C55 H56 0.959 . S
C55 H57 0.960 . S
C55 H58 0.961 . S
H56 C55 0.959 . S
H57 C55 0.960 . S
H58 C55 0.961 . S
O59 Co34 1.967 . S
O59 C67 1.258 . S
O60 Co35 1.941 . S
O60 C67 1.266 . S
H61 C63 0.959 . S
H62 C63 0.961 . S
C63 C53 1.510 . S
C63 H61 0.959 . S
C63 H62 0.961 . S
C63 H64 0.960 . S
H64 C63 0.960 . S
H65 N45 0.862 . S
O66 Co34 1.920 . S
O66 C39 1.289 . S
C67 O59 1.258 . S
C67 O60 1.266 . S
Co68 O71 1.970 1_554 S
Co68 N85 1.989 . S
Co68 O93 1.967 1_554 S
Co68 O100 1.920 . S
Co69 O72 1.966 . S
Co69 N78 2.022 . S
Co69 N86 1.993 1_556 S
Co69 O94 1.941 . S
C70 O71 1.258 . S
C70 O72 1.263 . S
O71 Co68 1.970 1_556 S
O71 C70 1.258 . S
O72 Co69 1.966 . S
O72 C70 1.263 . S
C73 O74 1.235 . S
C73 O100 1.289 . S
O74 C73 1.235 . S
C75 C77 1.397 1_556 S
C75 N78 1.351 . S
C75 C80 1.501 . S
C76 C77 1.387 1_556 S
C76 N79 1.341 . S
C77 C75 1.397 1_554 S
C77 C76 1.387 1_554 S
N78 Co69 2.022 . S
N78 C75 1.351 . S
N78 N79 1.365 . S
N79 C76 1.341 . S
N79 N78 1.365 . S
N79 H99 0.862 . S
C80 C75 1.501 . S
C80 H81 0.961 . S
C80 H82 0.961 1_556 S
C80 H83 0.960 . S
H81 C80 0.961 . S
H82 C80 0.961 1_554 S
H83 C80 0.960 . S
C84 N85 1.342 . S
C84 C88 1.401 . S
C84 C89 1.499 . S
N85 Co68 1.989 . S
N85 C84 1.342 . S
N85 N86 1.388 . S
N86 Co69 1.993 1_554 S
N86 N85 1.388 . S
N86 C87 1.346 . S
C87 N86 1.346 . S
C87 C88 1.396 . S
C87 C97 1.510 . S
C88 C84 1.401 . S
C88 C87 1.396 . S
C89 C84 1.499 . S
C89 H90 0.959 . S
C89 H91 0.960 . S
C89 H92 0.961 . S
H90 C89 0.959 . S
H91 C89 0.960 . S
H92 C89 0.961 . S
O93 Co68 1.967 1_556 S
O93 C101 1.258 . S
O94 Co69 1.941 . S
O94 C101 1.266 . S
H95 C97 0.959 . S
H96 C97 0.961 . S
C97 C87 1.510 . S
C97 H95 0.959 . S
C97 H96 0.961 . S
C97 H98 0.960 . S
H98 C97 0.960 . S
H99 N79 0.862 . S
O100 Co68 1.920 . S
O100 C73 1.289 . S
C101 O93 1.258 . S
C101 O94 1.266 . S
Co102 O105 1.970 . S
Co102 N119 1.989 . S
Co102 O127 1.967 . S
Co102 O134 1.920 . S
Co103 O106 1.966 . S
Co103 N112 2.022 . S
Co103 N120 1.993 . S
Co103 O128 1.941 . S
C104 O105 1.258 . S
C104 O106 1.263 . S
O105 Co102 1.970 . S
O105 C104 1.258 . S
O106 Co103 1.966 . S
O106 C104 1.263 . S
C107 O108 1.235 . S
C107 O134 1.289 . S
O108 C107 1.235 . S
C109 C111 1.400 . S
C109 N112 1.351 . S
C109 C114 1.501 . S
C110 C111 1.387 . S
C110 N113 1.341 . S
C111 C109 1.400 . S
C111 C110 1.387 . S
N112 Co103 2.022 . S
N112 C109 1.351 . S
N112 N113 1.365 . S
N113 C110 1.341 . S
N113 N112 1.365 . S
N113 H133 0.862 . S
C114 C109 1.501 . S
C114 H115 0.961 . S
C114 H116 0.961 . S
C114 H117 0.960 . S
H115 C114 0.961 . S
H116 C114 0.961 . S
H117 C114 0.960 . S
C118 N119 1.342 . S
C118 C122 1.401 . S
C118 C123 1.499 . S
N119 Co102 1.989 . S
N119 C118 1.342 . S
N119 N120 1.388 . S
N120 Co103 1.993 . S
N120 N119 1.388 . S
N120 C121 1.346 . S
C121 N120 1.346 . S
C121 C122 1.396 . S
C121 C131 1.510 . S
C122 C118 1.401 . S
C122 C121 1.396 . S
C123 C118 1.499 . S
C123 H124 0.959 . S
C123 H125 0.960 . S
C123 H126 0.961 . S
H124 C123 0.959 . S
H125 C123 0.960 . S
H126 C123 0.961 . S
O127 Co102 1.967 . S
O127 C135 1.258 . S
O128 Co103 1.941 . S
O128 C135 1.266 . S
H129 C131 0.959 . S
H130 C131 0.961 . S
C131 C121 1.510 . S
C131 H129 0.959 . S
C131 H130 0.961 . S
C131 H132 0.960 . S
H132 C131 0.960 . S
H133 N113 0.862 . S
O134 Co102 1.920 . S
O134 C107 1.289 . S
C135 O127 1.258 . S
C135 O128 1.266 . S
Co136 O139 1.970 . S
Co136 N153 1.989 . S
Co136 O161 1.967 1_554 S
Co136 O168 1.920 . S
Co137 O140 1.966 . S
Co137 N146 2.022 . S
Co137 N154 1.993 . S
Co137 O162 1.941 . S
C138 O139 1.258 . S
C138 O140 1.263 1_554 S
O139 Co136 1.970 . S
O139 C138 1.258 . S
O140 Co137 1.966 . S
O140 C138 1.263 1_556 S
C141 O142 1.235 . S
C141 O168 1.289 . S
O142 C141 1.235 . S
C143 C145 1.400 . S
C143 N146 1.351 . S
C143 C148 1.501 . S
C144 C145 1.387 . S
C144 N147 1.341 . S
C145 C143 1.400 . S
C145 C144 1.387 . S
N146 Co137 2.022 . S
N146 C143 1.351 . S
N146 N147 1.365 . S
N147 C144 1.341 . S
N147 N146 1.365 . S
N147 H167 0.862 . S
C148 C143 1.501 . S
C148 H149 0.961 . S
C148 H150 0.961 . S
C148 H151 0.960 . S
H149 C148 0.961 . S
H150 C148 0.961 . S
H151 C148 0.960 . S
C152 N153 1.342 . S
C152 C156 1.401 . S
C152 C157 1.499 . S
N153 Co136 1.989 . S
N153 C152 1.342 . S
N153 N154 1.388 1_554 S
N154 Co137 1.993 . S
N154 N153 1.388 1_556 S
N154 C155 1.346 . S
C155 N154 1.346 . S
C155 C156 1.396 1_556 S
C155 C165 1.510 . S
C156 C152 1.401 . S
C156 C155 1.396 1_554 S
C157 C152 1.499 . S
C157 H158 0.959 . S
C157 H159 0.960 . S
C157 H160 0.961 . S
H158 C157 0.959 . S
H159 C157 0.960 . S
H160 C157 0.961 . S
O161 Co136 1.967 1_556 S
O161 C169 1.258 . S
O162 Co137 1.941 . S
O162 C169 1.266 . S
H163 C165 0.959 . S
H164 C165 0.961 . S
C165 C155 1.510 . S
C165 H163 0.959 . S
C165 H164 0.961 . S
C165 H166 0.960 . S
H166 C165 0.960 . S
H167 N147 0.862 . S
O168 Co136 1.920 . S
O168 C141 1.289 . S
C169 O161 1.258 . S
C169 O162 1.266 . S
Co170 O173 1.970 . S
Co170 N187 1.989 . S
Co170 O195 1.967 . S
Co170 O202 1.920 . S
Co171 O174 1.966 . S
Co171 N180 2.022 . S
Co171 N188 1.993 . S
Co171 O196 1.941 . S
C172 O173 1.258 . S
C172 O174 1.263 . S
O173 Co170 1.970 . S
O173 C172 1.258 . S
O174 Co171 1.966 . S
O174 C172 1.263 . S
C175 O176 1.235 . S
C175 O202 1.289 . S
O176 C175 1.235 . S
C177 C179 1.400 . S
C177 N180 1.351 . S
C177 C182 1.501 . S
C178 C179 1.387 . S
C178 N181 1.341 . S
C179 C177 1.400 . S
C179 C178 1.387 . S
N180 Co171 2.022 . S
N180 C177 1.351 . S
N180 N181 1.365 . S
N181 C178 1.341 . S
N181 N180 1.365 . S
N181 H201 0.862 . S
C182 C177 1.501 . S
C182 H183 0.961 . S
C182 H184 0.961 . S
C182 H185 0.960 . S
H183 C182 0.961 . S
H184 C182 0.961 . S
H185 C182 0.960 . S
C186 N187 1.342 . S
C186 C190 1.401 . S
C186 C191 1.499 . S
N187 Co170 1.989 . S
N187 C186 1.342 . S
N187 N188 1.388 . S
N188 Co171 1.993 . S
N188 N187 1.388 . S
N188 C189 1.346 . S
C189 N188 1.346 . S
C189 C190 1.396 . S
C189 C199 1.510 . S
C190 C186 1.401 . S
C190 C189 1.396 . S
C191 C186 1.499 . S
C191 H192 0.959 . S
C191 H193 0.960 . S
C191 H194 0.961 . S
H192 C191 0.959 . S
H193 C191 0.960 . S
H194 C191 0.961 . S
O195 Co170 1.967 . S
O195 C203 1.258 . S
O196 Co171 1.941 . S
O196 C203 1.266 . S
H197 C199 0.959 . S
H198 C199 0.961 . S
C199 C189 1.510 . S
C199 H197 0.959 . S
C199 H198 0.961 . S
C199 H200 0.960 . S
H200 C199 0.960 . S
H201 N181 0.862 . S
O202 Co170 1.920 . S
O202 C175 1.289 . S
C203 O195 1.258 . S
C203 O196 1.266 . S
Co204 O207 1.970 . S
Co204 N221 1.989 . S
Co204 O229 1.967 . S
Co204 O236 1.920 . S
Co205 O208 1.966 . S
Co205 N214 2.022 . S
Co205 N222 1.993 . S
Co205 O230 1.941 . S
C206 O207 1.258 . S
C206 O208 1.263 . S
O207 Co204 1.970 . S
O207 C206 1.258 . S
O208 Co205 1.966 . S
O208 C206 1.263 . S
C209 O210 1.235 . S
C209 O236 1.289 . S
O210 C209 1.235 . S
C211 C213 1.400 . S
C211 N214 1.351 . S
C211 C216 1.501 . S
C212 C213 1.387 . S
C212 N215 1.341 . S
C213 C211 1.400 . S
C213 C212 1.387 . S
N214 Co205 2.022 . S
N214 C211 1.351 . S
N214 N215 1.365 . S
N215 C212 1.341 . S
N215 N214 1.365 . S
N215 H235 0.862 . S
C216 C211 1.501 . S
C216 H217 0.961 . S
C216 H218 0.961 . S
C216 H219 0.960 . S
H217 C216 0.961 . S
H218 C216 0.961 . S
H219 C216 0.960 . S
C220 N221 1.342 . S
C220 C224 1.401 . S
C220 C225 1.499 . S
N221 Co204 1.989 . S
N221 C220 1.342 . S
N221 N222 1.388 . S
N222 Co205 1.993 . S
N222 N221 1.388 . S
N222 C223 1.346 . S
C223 N222 1.346 . S
C223 C224 1.396 . S
C223 C233 1.510 . S
C224 C220 1.401 . S
C224 C223 1.396 . S
C225 C220 1.499 . S
C225 H226 0.959 . S
C225 H227 0.960 . S
C225 H228 0.961 . S
H226 C225 0.959 . S
H227 C225 0.960 . S
H228 C225 0.961 . S
O229 Co204 1.967 . S
O229 C237 1.258 . S
O230 Co205 1.941 . S
O230 C237 1.266 . S
H231 C233 0.959 . S
H232 C233 0.961 . S
C233 C223 1.510 . S
C233 H231 0.959 . S
C233 H232 0.961 . S
C233 H234 0.960 . S
H234 C233 0.960 . S
H235 N215 0.862 . S
O236 Co204 1.920 . S
O236 C209 1.289 . S
C237 O229 1.258 . S
C237 O230 1.266 . S
Co238 O241 1.970 . S
Co238 N255 1.989 . S
Co238 O263 1.967 1_556 S
Co238 O270 1.920 . S
Co239 O242 1.966 . S
Co239 N248 2.022 . S
Co239 N256 1.993 . S
Co239 O264 1.941 . S
C240 O241 1.258 . S
C240 O242 1.263 1_556 S
O241 Co238 1.970 . S
O241 C240 1.258 . S
O242 Co239 1.966 . S
O242 C240 1.263 1_554 S
C243 O244 1.235 . S
C243 O270 1.289 . S
O244 C243 1.235 . S
C245 C247 1.400 . S
C245 N248 1.351 . S
C245 C250 1.501 . S
C246 C247 1.387 . S
C246 N249 1.341 . S
C247 C245 1.400 . S
C247 C246 1.387 . S
N248 Co239 2.022 . S
N248 C245 1.351 . S
N248 N249 1.365 . S
N249 C246 1.341 . S
N249 N248 1.365 . S
N249 H269 0.862 . S
C250 C245 1.501 . S
C250 H251 0.961 . S
C250 H252 0.961 . S
C250 H253 0.960 . S
H251 C250 0.961 . S
H252 C250 0.961 . S
H253 C250 0.960 . S
C254 N255 1.342 . S
C254 C258 1.401 . S
C254 C259 1.499 . S
N255 Co238 1.989 . S
N255 C254 1.342 . S
N255 N256 1.388 1_556 S
N256 Co239 1.993 . S
N256 N255 1.388 1_554 S
N256 C257 1.346 . S
C257 N256 1.346 . S
C257 C258 1.396 1_554 S
C257 C267 1.510 . S
C258 C254 1.401 . S
C258 C257 1.396 1_556 S
C259 C254 1.499 . S
C259 H260 0.959 . S
C259 H261 0.960 . S
C259 H262 0.961 . S
H260 C259 0.959 . S
H261 C259 0.960 . S
H262 C259 0.961 . S
O263 Co238 1.967 1_554 S
O263 C271 1.258 . S
O264 Co239 1.941 . S
O264 C271 1.266 . S
H265 C267 0.959 . S
H266 C267 0.961 . S
C267 C257 1.510 . S
C267 H265 0.959 . S
C267 H266 0.961 . S
C267 H268 0.960 . S
H268 C267 0.960 . S
H269 N249 0.862 . S
O270 Co238 1.920 . S
O270 C243 1.289 . S
C271 O263 1.258 . S
C271 O264 1.266 . S
Co272 O275 1.970 . S
Co272 N289 1.989 . S
Co272 O297 1.967 1_565 S
Co272 O304 1.920 1_565 S
Co273 O276 1.966 . S
Co273 N282 2.022 . S
Co273 N290 1.993 . S
Co273 O298 1.941 1_565 S
C274 O275 1.258 . S
C274 O276 1.263 . S
O275 Co272 1.970 . S
O275 C274 1.258 . S
O276 Co273 1.966 . S
O276 C274 1.263 . S
C277 O278 1.235 1_545 S
C277 O304 1.289 . S
O278 C277 1.235 1_565 S
C279 C281 1.400 . S
C279 N282 1.351 . S
C279 C284 1.501 . S
C280 C281 1.387 . S
C280 N283 1.341 . S
C281 C279 1.400 . S
C281 C280 1.387 . S
N282 Co273 2.022 . S
N282 C279 1.351 . S
N282 N283 1.365 . S
N283 C280 1.341 . S
N283 N282 1.365 . S
N283 H303 0.862 . S
C284 C279 1.501 . S
C284 H285 0.961 . S
C284 H286 0.961 . S
C284 H287 0.960 . S
H285 C284 0.961 . S
H286 C284 0.961 . S
H287 C284 0.960 . S
C288 N289 1.342 . S
C288 C292 1.401 . S
C288 C293 1.499 . S
N289 Co272 1.989 . S
N289 C288 1.342 . S
N289 N290 1.388 . S
N290 Co273 1.993 . S
N290 N289 1.388 . S
N290 C291 1.346 . S
C291 N290 1.346 . S
C291 C292 1.396 . S
C291 C301 1.510 . S
C292 C288 1.401 . S
C292 C291 1.396 . S
C293 C288 1.499 . S
C293 H294 0.959 . S
C293 H295 0.960 . S
C293 H296 0.961 . S
H294 C293 0.959 . S
H295 C293 0.960 . S
H296 C293 0.961 . S
O297 Co272 1.967 1_545 S
O297 C305 1.258 . S
O298 Co273 1.941 1_545 S
O298 C305 1.266 . S
H299 C301 0.959 . S
H300 C301 0.961 . S
C301 C291 1.510 . S
C301 H299 0.959 . S
C301 H300 0.961 . S
C301 H302 0.960 . S
H302 C301 0.960 . S
H303 N283 0.862 . S
O304 Co272 1.920 1_545 S
O304 C277 1.289 . S
C305 O297 1.258 . S
C305 O298 1.266 . S
Co306 O309 1.970 1_556 S
Co306 N323 1.989 . S
Co306 O331 1.967 1_556 S
Co306 O338 1.920 . S
Co307 O310 1.966 . S
Co307 N316 2.022 . S
Co307 N324 1.993 1_554 S
Co307 O332 1.941 . S
C308 O309 1.258 . S
C308 O310 1.263 . S
O309 Co306 1.970 1_554 S
O309 C308 1.258 . S
O310 Co307 1.966 . S
O310 C308 1.263 . S
C311 O312 1.235 . S
C311 O338 1.289 . S
O312 C311 1.235 . S
C313 C315 1.400 1_554 S
C313 N316 1.351 . S
C313 C318 1.501 . S
C314 C315 1.387 1_554 S
C314 N317 1.345 . S
C315 C313 1.400 1_556 S
C315 C314 1.387 1_556 S
N316 Co307 2.022 . S
N316 C313 1.351 . S
N316 N317 1.365 . S
N317 C314 1.345 . S
N317 N316 1.365 . S
N317 H337 0.862 . S
C318 C313 1.501 . S
C318 H319 0.961 . S
C318 H320 0.961 1_554 S
C318 H321 0.960 . S
H319 C318 0.961 . S
H320 C318 0.961 1_556 S
H321 C318 0.960 . S
C322 N323 1.342 . S
C322 C326 1.401 . S
C322 C327 1.499 . S
N323 Co306 1.989 . S
N323 C322 1.342 . S
N323 N324 1.388 . S
N324 Co307 1.993 1_556 S
N324 N323 1.388 . S
N324 C325 1.346 . S
C325 N324 1.346 . S
C325 C326 1.396 . S
C325 C335 1.510 . S
C326 C322 1.401 . S
C326 C325 1.396 . S
C327 C322 1.499 . S
C327 H328 0.959 . S
C327 H329 0.960 . S
C327 H330 0.961 . S
H328 C327 0.959 . S
H329 C327 0.960 . S
H330 C327 0.961 . S
O331 Co306 1.967 1_554 S
O331 C339 1.258 . S
O332 Co307 1.941 . S
O332 C339 1.266 . S
H333 C335 0.959 . S
H334 C335 0.961 . S
C335 C325 1.510 . S
C335 H333 0.959 . S
C335 H334 0.961 . S
C335 H336 0.960 . S
H336 C335 0.960 . S
H337 N317 0.862 . S
O338 Co306 1.920 . S
O338 C311 1.289 . S
C339 O331 1.258 . S
C339 O332 1.266 . S
Co340 O343 1.970 . S
Co340 N357 1.989 . S
Co340 O365 1.967 . S
Co340 O372 1.920 . S
Co341 O344 1.966 . S
Co341 N350 2.022 . S
Co341 N358 1.993 . S
Co341 O366 1.941 . S
C342 O343 1.258 . S
C342 O344 1.263 . S
O343 Co340 1.970 . S
O343 C342 1.258 . S
O344 Co341 1.966 . S
O344 C342 1.263 . S
C345 O346 1.235 . S
C345 O372 1.289 . S
O346 C345 1.235 . S
C347 C349 1.400 . S
C347 N350 1.351 . S
C347 C352 1.501 . S
C348 C349 1.387 . S
C348 N351 1.341 . S
C349 C347 1.400 . S
C349 C348 1.387 . S
N350 Co341 2.022 . S
N350 C347 1.351 . S
N350 N351 1.365 . S
N351 C348 1.341 . S
N351 N350 1.365 . S
N351 H371 0.862 . S
C352 C347 1.501 . S
C352 H353 0.961 . S
C352 H354 0.961 . S
C352 H355 0.960 . S
H353 C352 0.961 . S
H354 C352 0.961 . S
H355 C352 0.960 . S
C356 N357 1.342 . S
C356 C360 1.401 . S
C356 C361 1.499 . S
N357 Co340 1.989 . S
N357 C356 1.342 . S
N357 N358 1.388 . S
N358 Co341 1.993 . S
N358 N357 1.388 . S
N358 C359 1.346 . S
C359 N358 1.346 . S
C359 C360 1.396 . S
C359 C369 1.510 . S
C360 C356 1.401 . S
C360 C359 1.396 . S
C361 C356 1.499 . S
C361 H362 0.959 . S
C361 H363 0.960 . S
C361 H364 0.961 . S
H362 C361 0.959 . S
H363 C361 0.960 . S
H364 C361 0.961 . S
O365 Co340 1.967 . S
O365 C373 1.258 . S
O366 Co341 1.941 . S
O366 C373 1.266 . S
H367 C369 0.959 . S
H368 C369 0.961 . S
C369 C359 1.510 . S
C369 H367 0.959 . S
C369 H368 0.961 . S
C369 H370 0.960 . S
H370 C369 0.960 . S
H371 N351 0.862 . S
O372 Co340 1.920 . S
O372 C345 1.289 . S
C373 O365 1.258 . S
C373 O366 1.266 . S
Co374 O377 1.970 1_565 S
Co374 N391 1.989 1_565 S
Co374 O399 1.967 . S
Co374 O406 1.920 . S
Co375 O378 1.966 . S
Co375 N384 2.022 . S
Co375 N392 1.993 . S
Co375 O400 1.941 1_545 S
C376 O377 1.258 . S
C376 O378 1.263 . S
O377 Co374 1.970 1_545 S
O377 C376 1.258 . S
O378 Co375 1.966 . S
O378 C376 1.263 . S
C379 O380 1.235 1_565 S
C379 O406 1.289 . S
O380 C379 1.235 1_545 S
C381 C383 1.400 . S
C381 N384 1.351 . S
C381 C386 1.501 . S
C382 C383 1.387 . S
C382 N385 1.341 . S
C383 C381 1.400 . S
C383 C382 1.387 . S
N384 Co375 2.022 . S
N384 C381 1.351 . S
N384 N385 1.365 . S
N385 C382 1.341 . S
N385 N384 1.365 . S
N385 H405 0.862 . S
C386 C381 1.501 . S
C386 H387 0.961 . S
C386 H388 0.961 . S
C386 H389 0.960 . S
H387 C386 0.961 . S
H388 C386 0.961 . S
H389 C386 0.960 . S
C390 N391 1.342 . S
C390 C394 1.401 . S
C390 C395 1.499 . S
N391 Co374 1.989 1_545 S
N391 C390 1.342 . S
N391 N392 1.388 . S
N392 Co375 1.993 . S
N392 N391 1.388 . S
N392 C393 1.346 . S
C393 N392 1.346 . S
C393 C394 1.396 . S
C393 C403 1.510 . S
C394 C390 1.401 . S
C394 C393 1.396 . S
C395 C390 1.499 . S
C395 H396 0.959 . S
C395 H397 0.960 . S
C395 H398 0.961 . S
H396 C395 0.959 . S
H397 C395 0.960 . S
H398 C395 0.961 . S
O399 Co374 1.967 . S
O399 C407 1.258 . S
O400 Co375 1.941 1_565 S
O400 C407 1.266 . S
H401 C403 0.959 . S
H402 C403 0.961 . S
C403 C393 1.510 . S
C403 H401 0.959 . S
C403 H402 0.961 . S
C403 H404 0.960 . S
H404 C403 0.960 . S
H405 N385 0.862 . S
O406 Co374 1.920 . S
O406 C379 1.289 . S
C407 O399 1.258 . S
C407 O400 1.266 . S
C408 C409 1.369 . S
C408 C410 1.419 . S
C408 H412 0.930 . S
C409 C408 1.369 . S
C409 C418 1.429 . S
C410 C408 1.419 . S
C410 C411 1.363 . S
C410 H413 0.929 . S
C411 C410 1.363 . S
C411 C417 1.428 . S
H412 C408 0.930 . S
H413 C410 0.929 . S
S414 N415 1.613 . S
S414 N416 1.610 . S
N415 S414 1.613 . S
N415 C418 1.350 . S
N416 S414 1.610 . S
N416 C417 1.351 . S
C417 C411 1.428 . S
C417 N416 1.351 . S
C417 C418 1.434 . S
C418 C409 1.429 . S
C418 N415 1.350 . S
C418 C417 1.434 . S
C419 C420 1.369 . S
C419 C421 1.419 . S
C419 H423 0.930 . S
C420 C419 1.369 . S
C420 C429 1.429 1_655 S
C421 C419 1.419 . S
C421 C422 1.363 1_655 S
C421 H424 0.929 . S
C422 C421 1.363 1_455 S
C422 C428 1.428 . S
H423 C419 0.930 . S
H424 C421 0.929 . S
S425 N426 1.613 . S
S425 N427 1.610 . S
N426 S425 1.613 . S
N426 C429 1.350 . S
N427 S425 1.610 . S
N427 C428 1.351 . S
C428 C422 1.428 . S
C428 N427 1.351 . S
C428 C429 1.434 . S
C429 C420 1.429 1_455 S
C429 N426 1.350 . S
C429 C428 1.434 . S
C430 C431 1.369 . S
C430 C432 1.419 . S
C430 H434 0.930 . S
C431 C430 1.369 . S
C431 C440 1.429 . S
C432 C430 1.419 . S
C432 C433 1.363 . S
C432 H435 0.929 . S
C433 C432 1.363 . S
C433 C439 1.428 . S
H434 C430 0.930 . S
H435 C432 0.929 . S
S436 N437 1.613 . S
S436 N438 1.610 . S
N437 S436 1.613 . S
N437 C440 1.350 . S
N438 S436 1.610 . S
N438 C439 1.351 . S
C439 C433 1.428 . S
C439 N438 1.351 . S
C439 C440 1.434 . S
C440 C431 1.429 . S
C440 N437 1.350 . S
C440 C439 1.434 . S
C441 C442 1.369 . S
C441 C443 1.419 . S
C441 H445 0.930 . S
C442 C441 1.369 . S
C442 C451 1.429 . S
C443 C441 1.419 . S
C443 C444 1.363 . S
C443 H446 0.929 . S
C444 C443 1.363 . S
C444 C450 1.428 . S
H445 C441 0.930 . S
H446 C443 0.929 . S
S447 N448 1.613 . S
S447 N449 1.610 . S
N448 S447 1.613 . S
N448 C451 1.350 . S
N449 S447 1.610 . S
N449 C450 1.351 . S
C450 C444 1.428 . S
C450 N449 1.351 . S
C450 C451 1.434 . S
C451 C442 1.429 . S
C451 N448 1.350 . S
C451 C450 1.434 . S
C452 C453 1.369 1_655 S
C452 C454 1.419 . S
C452 H456 0.930 . S
C453 C452 1.369 1_455 S
C453 C462 1.429 1_556 S
C454 C452 1.419 . S
C454 C455 1.363 1_556 S
C454 H457 0.929 . S
C455 C454 1.363 1_554 S
C455 C461 1.428 1_655 S
H456 C452 0.930 . S
H457 C454 0.929 . S
S458 N459 1.613 . S
S458 N460 1.610 . S
N459 S458 1.613 . S
N459 C462 1.350 . S
N460 S458 1.610 . S
N460 C461 1.351 . S
C461 C455 1.428 1_455 S
C461 N460 1.351 . S
C461 C462 1.434 . S
C462 C453 1.429 1_554 S
C462 N459 1.350 . S
C462 C461 1.434 . S
C463 C464 1.369 . S
C463 C465 1.419 . S
C463 H467 0.930 . S
C464 C463 1.369 . S
C464 C473 1.429 . S
C465 C463 1.419 . S
C465 C466 1.363 . S
C465 H468 0.929 . S
C466 C465 1.363 . S
C466 C472 1.428 . S
H467 C463 0.930 . S
H468 C465 0.929 . S
S469 N470 1.613 . S
S469 N471 1.610 . S
N470 S469 1.613 . S
N470 C473 1.350 . S
N471 S469 1.610 . S
N471 C472 1.351 . S
C472 C466 1.428 . S
C472 N471 1.351 . S
C472 C473 1.434 . S
C473 C464 1.429 . S
C473 N470 1.350 . S
C473 C472 1.434 . S
C474 C475 1.369 . S
C474 C476 1.419 . S
C474 H478 0.930 . S
C475 C474 1.369 . S
C475 C484 1.429 . S
C476 C474 1.419 . S
C476 C477 1.363 . S
C476 H479 0.929 . S
C477 C476 1.363 . S
C477 C483 1.428 . S
H478 C474 0.930 . S
H479 C476 0.929 . S
S480 N481 1.613 . S
S480 N482 1.610 . S
N481 S480 1.613 . S
N481 C484 1.350 . S
N482 S480 1.610 . S
N482 C483 1.351 . S
C483 C477 1.428 . S
C483 N482 1.351 . S
C483 C484 1.434 . S
C484 C475 1.429 . S
C484 N481 1.350 . S
C484 C483 1.434 . S
C485 C486 1.369 . S
C485 C487 1.419 . S
C485 H489 0.930 . S
C486 C485 1.369 . S
C486 C495 1.429 . S
C487 C485 1.419 . S
C487 C488 1.363 . S
C487 H490 0.929 . S
C488 C487 1.363 . S
C488 C494 1.428 . S
H489 C485 0.930 . S
H490 C487 0.929 . S
S491 N492 1.613 . S
S491 N493 1.610 . S
N492 S491 1.613 . S
N492 C495 1.350 . S
N493 S491 1.610 . S
N493 C494 1.351 . S
C494 C488 1.428 . S
C494 N493 1.351 . S
C494 C495 1.434 . S
C495 C486 1.429 . S
C495 N492 1.350 . S
C495 C494 1.434 . S
C496 C497 1.369 . S
C496 C498 1.419 . S
C496 H500 0.930 . S
C497 C496 1.369 . S
C497 C506 1.429 . S
C498 C496 1.419 . S
C498 C499 1.363 . S
C498 H501 0.929 . S
C499 C498 1.363 . S
C499 C505 1.428 . S
H500 C496 0.930 . S
H501 C498 0.929 . S
S502 N503 1.613 . S
S502 N504 1.610 . S
N503 S502 1.613 . S
N503 C506 1.350 . S
N504 S502 1.610 . S
N504 C505 1.351 . S
C505 C499 1.428 . S
C505 N504 1.351 . S
C505 C506 1.434 . S
C506 C497 1.429 . S
C506 N503 1.350 . S
C506 C505 1.434 . S
C507 C508 1.369 . S
C507 C509 1.419 . S
C507 H511 0.930 . S
C508 C507 1.369 . S
C508 C517 1.429 . S
C509 C507 1.419 . S
C509 C510 1.363 . S
C509 H512 0.929 . S
C510 C509 1.363 . S
C510 C516 1.428 . S
H511 C507 0.930 . S
H512 C509 0.929 . S
S513 N514 1.613 . S
S513 N515 1.610 . S
N514 S513 1.613 . S
N514 C517 1.350 . S
N515 S513 1.610 . S
N515 C516 1.351 . S
C516 C510 1.428 . S
C516 N515 1.351 . S
C516 C517 1.434 . S
C517 C508 1.429 . S
C517 N514 1.350 . S
C517 C516 1.434 . S
C518 C519 1.369 . S
C518 C520 1.419 . S
C518 H522 0.930 . S
C519 C518 1.369 . S
C519 C528 1.429 . S
C520 C518 1.419 . S
C520 C521 1.363 . S
C520 H523 0.929 . S
C521 C520 1.363 . S
C521 C527 1.428 . S
H522 C518 0.930 . S
H523 C520 0.929 . S
S524 N525 1.613 . S
S524 N526 1.610 . S
N525 S524 1.613 . S
N525 C528 1.350 . S
N526 S524 1.610 . S
N526 C527 1.351 . S
C527 C521 1.428 . S
C527 N526 1.351 . S
C527 C528 1.434 . S
C528 C519 1.429 . S
C528 N525 1.350 . S
C528 C527 1.434 . S
C529 C530 1.369 . S
C529 C531 1.419 . S
C529 H533 0.930 . S
C530 C529 1.369 . S
C530 C539 1.429 . S
C531 C529 1.419 . S
C531 C532 1.363 . S
C531 H534 0.929 . S
C532 C531 1.363 . S
C532 C538 1.428 . S
H533 C529 0.930 . S
H534 C531 0.929 . S
S535 N536 1.613 . S
S535 N537 1.610 . S
N536 S535 1.613 . S
N536 C539 1.350 . S
N537 S535 1.610 . S
N537 C538 1.351 . S
C538 C532 1.428 . S
C538 N537 1.351 . S
C538 C539 1.434 . S
C539 C530 1.429 . S
C539 N536 1.350 . S
C539 C538 1.434 . S
C540 C541 1.369 . S
C540 C542 1.419 . S
C540 H544 0.930 . S
C541 C540 1.369 . S
C541 C550 1.429 . S
C542 C540 1.419 . S
C542 C543 1.363 . S
C542 H545 0.929 . S
C543 C542 1.363 . S
C543 C549 1.428 . S
H544 C540 0.930 . S
H545 C542 0.929 . S
S546 N547 1.613 . S
S546 N548 1.610 . S
N547 S546 1.613 . S
N547 C550 1.350 1_545 S
N548 S546 1.610 . S
N548 C549 1.351 1_545 S
C549 C543 1.428 . S
C549 N548 1.351 1_565 S
C549 C550 1.434 . S
C550 C541 1.429 . S
C550 N547 1.350 1_565 S
C550 C549 1.434 . S
C551 C552 1.369 . S
C551 C553 1.419 . S
C551 H555 0.930 . S
C552 C551 1.369 . S
C552 C561 1.429 . S
C553 C551 1.419 . S
C553 C554 1.363 . S
C553 H556 0.929 . S
C554 C553 1.363 . S
C554 C560 1.428 . S
H555 C551 0.930 . S
H556 C553 0.929 . S
S557 N558 1.613 . S
S557 N559 1.610 . S
N558 S557 1.613 . S
N558 C561 1.350 . S
N559 S557 1.610 . S
N559 C560 1.351 . S
C560 C554 1.428 . S
C560 N559 1.351 . S
C560 C561 1.434 . S
C561 C552 1.429 . S
C561 N558 1.350 . S
C561 C560 1.434 . S
C562 C563 1.369 . S
C562 C564 1.419 . S
C562 H566 0.930 . S
C563 C562 1.369 . S
C563 C572 1.429 . S
C564 C562 1.419 . S
C564 C565 1.363 . S
C564 H567 0.929 . S
C565 C564 1.363 . S
C565 C571 1.428 . S
H566 C562 0.930 . S
H567 C564 0.929 . S
S568 N569 1.613 . S
S568 N570 1.610 . S
N569 S568 1.613 . S
N569 C572 1.350 . S
N570 S568 1.610 . S
N570 C571 1.351 . S
C571 C565 1.428 . S
C571 N570 1.351 . S
C571 C572 1.434 . S
C572 C563 1.429 . S
C572 N569 1.350 . S
C572 C571 1.434 . S
C573 C574 1.369 . S
C573 C575 1.419 . S
C573 H577 0.930 1_545 S
C574 C573 1.369 . S
C574 C583 1.429 . S
C575 C573 1.419 . S
C575 C576 1.363 . S
C575 H578 0.929 1_545 S
C576 C575 1.363 . S
C576 C582 1.428 . S
H577 C573 0.930 1_565 S
H578 C575 0.929 1_565 S
S579 N580 1.613 . S
S579 N581 1.610 . S
N580 S579 1.613 . S
N580 C583 1.350 . S
N581 S579 1.610 . S
N581 C582 1.351 . S
C582 C576 1.428 . S
C582 N581 1.351 . S
C582 C583 1.434 . S
C583 C574 1.429 . S
C583 N580 1.350 . S
C583 C582 1.434 . S
C584 C585 1.369 . S
C584 C586 1.419 . S
C584 H588 0.930 . S
C585 C584 1.369 . S
C585 C594 1.429 . S
C586 C584 1.419 . S
C586 C587 1.363 . S
C586 H589 0.929 . S
C587 C586 1.363 . S
C587 C593 1.428 . S
H588 C584 0.930 . S
H589 C586 0.929 . S
S590 N591 1.613 . S
S590 N592 1.610 . S
N591 S590 1.613 . S
N591 C594 1.350 . S
N592 S590 1.610 . S
N592 C593 1.351 . S
C593 C587 1.428 . S
C593 N592 1.351 . S
C593 C594 1.434 . S
C594 C585 1.429 . S
C594 N591 1.350 . S
C594 C593 1.434 . S
C595 C596 1.369 . S
C595 C597 1.419 . S
C595 H599 0.930 . S
C596 C595 1.369 . S
C596 C605 1.429 . S
C597 C595 1.419 . S
C597 C598 1.363 . S
C597 H600 0.929 1_556 S
C598 C597 1.363 . S
C598 C604 1.428 . S
H599 C595 0.930 . S
H600 C597 0.929 1_554 S
S601 N602 1.613 . S
S601 N603 1.610 . S
N602 S601 1.613 . S
N602 C605 1.350 . S
N603 S601 1.610 . S
N603 C604 1.351 . S
C604 C598 1.428 . S
C604 N603 1.351 . S
C604 C605 1.434 . S
C605 C596 1.429 . S
C605 N602 1.350 . S
C605 C604 1.434 . S
C606 C607 1.369 . S
C606 C608 1.419 . S
C606 H610 0.930 . S
C607 C606 1.369 . S
C607 C616 1.429 . S
C608 C606 1.419 . S
C608 C609 1.363 . S
C608 H611 0.929 . S
C609 C608 1.363 . S
C609 C615 1.428 . S
H610 C606 0.930 . S
H611 C608 0.929 . S
S612 N613 1.613 . S
S612 N614 1.610 . S
N613 S612 1.613 . S
N613 C616 1.350 . S
N614 S612 1.610 . S
N614 C615 1.351 . S
C615 C609 1.428 . S
C615 N614 1.351 . S
C615 C616 1.434 . S
C616 C607 1.429 . S
C616 N613 1.350 . S
C616 C615 1.434 . S
C617 C618 1.369 . S
C617 C619 1.419 . S
C617 H621 0.930 . S
C618 C617 1.369 . S
C618 C627 1.429 . S
C619 C617 1.419 . S
C619 C620 1.363 . S
C619 H622 0.929 . S
C620 C619 1.363 . S
C620 C626 1.428 . S
H621 C617 0.930 . S
H622 C619 0.929 . S
S623 N624 1.613 . S
S623 N625 1.610 . S
N624 S623 1.613 . S
N624 C627 1.350 . S
N625 S623 1.610 . S
N625 C626 1.351 . S
C626 C620 1.428 . S
C626 N625 1.351 . S
C626 C627 1.434 . S
C627 C618 1.429 . S
C627 N624 1.350 . S
C627 C626 1.434 . S
C628 C629 1.369 . S
C628 C630 1.419 . S
C628 H632 0.930 . S
C629 C628 1.369 . S
C629 C638 1.429 . S
C630 C628 1.419 . S
C630 C631 1.363 . S
C630 H633 0.929 . S
C631 C630 1.363 . S
C631 C637 1.428 . S
H632 C628 0.930 . S
H633 C630 0.929 . S
S634 N635 1.613 . S
S634 N636 1.610 . S
N635 S634 1.613 . S
N635 C638 1.350 . S
N636 S634 1.610 . S
N636 C637 1.351 . S
C637 C631 1.428 . S
C637 N636 1.351 . S
C637 C638 1.434 . S
C638 C629 1.429 . S
C638 N635 1.350 . S
C638 C637 1.434 . S
C639 C640 1.369 . S
C639 C641 1.419 . S
C639 H643 0.930 . S
C640 C639 1.369 . S
C640 C649 1.429 . S
C641 C639 1.419 . S
C641 C642 1.363 . S
C641 H644 0.929 . S
C642 C641 1.363 . S
C642 C648 1.428 . S
H643 C639 0.930 . S
H644 C641 0.929 . S
S645 N646 1.613 . S
S645 N647 1.610 . S
N646 S645 1.613 . S
N646 C649 1.350 . S
N647 S645 1.610 . S
N647 C648 1.351 . S
C648 C642 1.428 . S
C648 N647 1.351 . S
C648 C649 1.434 . S
C649 C640 1.429 . S
C649 N646 1.350 . S
C649 C648 1.434 . S
C650 C651 1.369 . S
C650 C652 1.419 . S
C650 H654 0.930 . S
C651 C650 1.369 . S
C651 C660 1.429 . S
C652 C650 1.419 . S
C652 C653 1.363 . S
C652 H655 0.929 . S
C653 C652 1.363 . S
C653 C659 1.428 . S
H654 C650 0.930 . S
H655 C652 0.929 . S
S656 N657 1.613 . S
S656 N658 1.610 . S
N657 S656 1.613 . S
N657 C660 1.350 . S
N658 S656 1.610 . S
N658 C659 1.351 . S
C659 C653 1.428 . S
C659 N658 1.351 . S
C659 C660 1.434 . S
C660 C651 1.429 . S
C660 N657 1.350 . S
C660 C659 1.434 . S
C661 C662 1.369 . S
C661 C663 1.419 . S
C661 H665 0.930 . S
C662 C661 1.369 . S
C662 C671 1.429 . S
C663 C661 1.419 . S
C663 C664 1.363 . S
C663 H666 0.929 . S
C664 C663 1.363 . S
C664 C670 1.428 . S
H665 C661 0.930 . S
H666 C663 0.929 . S
S667 N668 1.613 . S
S667 N669 1.610 . S
N668 S667 1.613 . S
N668 C671 1.350 . S
N669 S667 1.610 . S
N669 C670 1.351 . S
C670 C664 1.428 . S
C670 N669 1.351 . S
C670 C671 1.434 . S
C671 C662 1.429 . S
C671 N668 1.350 . S
C671 C670 1.434 . S
C672 C673 1.369 . S
C672 C674 1.419 . S
C672 H676 0.930 . S
C673 C672 1.369 . S
C673 C682 1.429 . S
C674 C672 1.419 . S
C674 C675 1.363 . S
C674 H677 0.929 . S
C675 C674 1.363 . S
C675 C681 1.428 . S
H676 C672 0.930 . S
H677 C674 0.929 . S
S678 N679 1.613 . S
S678 N680 1.610 . S
N679 S678 1.613 . S
N679 C682 1.350 . S
N680 S678 1.610 . S
N680 C681 1.351 . S
C681 C675 1.428 . S
C681 N680 1.351 . S
C681 C682 1.434 . S
C682 C673 1.429 . S
C682 N679 1.350 . S
C682 C681 1.434 . S
C683 C684 1.369 . S
C683 C685 1.419 . S
C683 H687 0.930 . S
C684 C683 1.369 . S
C684 C693 1.429 . S
C685 C683 1.419 . S
C685 C686 1.363 . S
C685 H688 0.929 . S
C686 C685 1.363 . S
C686 C692 1.428 . S
H687 C683 0.930 . S
H688 C685 0.929 . S
S689 N690 1.613 . S
S689 N691 1.610 . S
N690 S689 1.613 . S
N690 C693 1.350 . S
N691 S689 1.610 . S
N691 C692 1.351 . S
C692 C686 1.428 . S
C692 N691 1.351 . S
C692 C693 1.434 . S
C693 C684 1.429 . S
C693 N690 1.350 . S
C693 C692 1.434 . S
C694 C695 1.369 . S
C694 C696 1.419 1_565 S
C694 H698 0.930 . S
C695 C694 1.369 . S
C695 C704 1.429 . S
C696 C694 1.419 1_545 S
C696 C697 1.363 . S
C696 H699 0.929 . S
C697 C696 1.363 . S
C697 C703 1.428 1_545 S
H698 C694 0.930 . S
H699 C696 0.929 . S
S700 N701 1.613 . S
S700 N702 1.610 . S
N701 S700 1.613 . S
N701 C704 1.350 . S
N702 S700 1.610 . S
N702 C703 1.351 . S
C703 C697 1.428 1_565 S
C703 N702 1.351 . S
C703 C704 1.434 . S
C704 C695 1.429 . S
C704 N701 1.350 . S
C704 C703 1.434 . S
C705 C706 1.369 . S
C705 C707 1.419 . S
C705 H709 0.930 1_556 S
C706 C705 1.369 . S
C706 C715 1.429 . S
C707 C705 1.419 . S
C707 C708 1.363 . S
C707 H710 0.929 . S
C708 C707 1.363 . S
C708 C714 1.428 . S
H709 C705 0.930 1_554 S
H710 C707 0.929 . S
S711 N712 1.613 . S
S711 N713 1.610 . S
N712 S711 1.613 . S
N712 C715 1.350 . S
N713 S711 1.610 . S
N713 C714 1.351 . S
C714 C708 1.428 . S
C714 N713 1.351 . S
C714 C715 1.434 . S
C715 C706 1.429 . S
C715 N712 1.350 . S
C715 C714 1.434 . S
C716 C717 1.369 . S
C716 C718 1.419 . S
C716 H720 0.930 . S
C717 C716 1.369 . S
C717 C726 1.429 . S
C718 C716 1.419 . S
C718 C719 1.363 . S
C718 H721 0.929 . S
C719 C718 1.363 . S
C719 C725 1.428 . S
H720 C716 0.930 . S
H721 C718 0.929 . S
S722 N723 1.613 . S
S722 N724 1.610 . S
N723 S722 1.613 . S
N723 C726 1.350 . S
N724 S722 1.610 . S
N724 C725 1.351 . S
C725 C719 1.428 . S
C725 N724 1.351 . S
C725 C726 1.434 . S
C726 C717 1.429 . S
C726 N723 1.350 . S
C726 C725 1.434 . S
C727 C728 1.369 1_545 S
C727 C729 1.419 . S
C727 H731 0.930 . S
C728 C727 1.369 1_565 S
C728 C737 1.429 . S
C729 C727 1.419 . S
C729 C730 1.363 . S
C729 H732 0.929 . S
C730 C729 1.363 . S
C730 C736 1.428 . S
H731 C727 0.930 . S
H732 C729 0.929 . S
S733 N734 1.613 . S
S733 N735 1.610 1_565 S
N734 S733 1.613 . S
N734 C737 1.350 . S
N735 S733 1.610 1_545 S
N735 C736 1.351 . S
C736 C730 1.428 . S
C736 N735 1.351 . S
C736 C737 1.434 1_545 S
C737 C728 1.429 . S
C737 N734 1.350 . S
C737 C736 1.434 1_565 S
C409 C339 0.777 . S
C411 C33 0.761 . S
C420 C67 1.549 . S
C422 C373 1.535 . S
C431 C407 0.765 . S
C433 C101 0.783 . S
C442 C135 0.784 . S
C444 C237 0.787 . S
C453 C169 1.209 . S
C455 C271 1.226 . S
C464 C305 0.786 . S
C466 C203 0.783 . S
C475 C9 1.654 . S
C477 C138 1.667 . S
C486 C172 2.338 . S
C488 C43 2.153 . S
C497 C77 2.013 . S
C499 C2 2.157 . S
C508 C111 1.715 . S
C510 C36 1.737 . S
C519 C70 2.194 . S
C521 C145 2.038 . S
C530 C104 2.194 . S
C532 C179 2.031 . S
C541 C274 2.191 . S
C543 C213 2.037 . S
C552 C247 2.037 . S
C554 C308 2.194 . S
C563 C342 1.734 . S
C565 C281 1.711 . S
C574 C376 2.158 . S
C576 C315 2.004 . S
C585 C206 2.339 . S
C587 C349 2.161 . S
C596 C383 1.648 . S
C598 C240 1.665 . S
C607 C360 1.643 . S
C609 C20 1.551 . S
C618 C394 1.550 . S
C620 C54 1.644 . S
C629 C88 1.431 . S
C631 C224 1.437 . S
C640 C122 1.504 . S
C642 C258 1.610 . S
C651 C292 1.502 . S
C653 C156 1.609 . S
C662 C190 1.435 . S
C664 C326 1.432 . S
C673 C209 1.409 . S
C675 C5 1.186 . S
C684 C243 1.012 . S
C686 C39 1.028 . S
C695 C73 1.359 . S
C697 C277 1.175 . S
C706 C311 1.362 . S
C708 C107 1.178 . S
C717 C141 1.020 . S
C719 C345 1.031 . S
C728 C379 1.183 . S
C730 C175 1.406 . S
