# Generated by pormake.
# Topology why, (6)-cn, num edge types: 1
# Building blocks:
#     Node 0, Type 0, BuildingBlock: HISSIN_clean_sbu_0, # of connection points: 6
#     Node 1, Type 0, BuildingBlock: HISSIN_clean_sbu_0, # of connection points: 6
#     Node 2, Type 0, BuildingBlock: HISSIN_clean_sbu_0, # of connection points: 6
#     Node 3, Type 0, BuildingBlock: HISSIN_clean_sbu_0, # of connection points: 6
#     Node 4, Type 0, BuildingBlock: HISSIN_clean_sbu_0, # of connection points: 6
#     Node 5, Type 0, BuildingBlock: HISSIN_clean_sbu_0, # of connection points: 6
#     Node 6, Type 0, BuildingBlock: HISSIN_clean_sbu_0, # of connection points: 6
#     Node 7, Type 0, BuildingBlock: HISSIN_clean_sbu_0, # of connection points: 6
#     Node 8, Type 0, BuildingBlock: HISSIN_clean_sbu_0, # of connection points: 6
#     Node 9, Type 0, BuildingBlock: HISSIN_clean_sbu_0, # of connection points: 6
#     Node 10, Type 0, BuildingBlock: HISSIN_clean_sbu_0, # of connection points: 6
#     Node 11, Type 0, BuildingBlock: HISSIN_clean_sbu_0, # of connection points: 6
#     Node 12, Type 0, BuildingBlock: HISSIN_clean_sbu_0, # of connection points: 6
#     Node 13, Type 0, BuildingBlock: HISSIN_clean_sbu_0, # of connection points: 6
#     Node 14, Type 0, BuildingBlock: HISSIN_clean_sbu_0, # of connection points: 6
#     Node 15, Type 0, BuildingBlock: HISSIN_clean_sbu_0, # of connection points: 6
#     Edge 16, Type (0, 0), BuildingBlock: KIFKEQ_clean_linker_1, # of connection points: 2
#     Edge 17, Type (0, 0), BuildingBlock: KIFKEQ_clean_linker_1, # of connection points: 2
#     Edge 18, Type (0, 0), BuildingBlock: KIFKEQ_clean_linker_1, # of connection points: 2
#     Edge 19, Type (0, 0), BuildingBlock: KIFKEQ_clean_linker_1, # of connection points: 2
#     Edge 20, Type (0, 0), BuildingBlock: KIFKEQ_clean_linker_1, # of connection points: 2
#     Edge 21, Type (0, 0), BuildingBlock: KIFKEQ_clean_linker_1, # of connection points: 2
#     Edge 22, Type (0, 0), BuildingBlock: KIFKEQ_clean_linker_1, # of connection points: 2
#     Edge 23, Type (0, 0), BuildingBlock: KIFKEQ_clean_linker_1, # of connection points: 2
#     Edge 24, Type (0, 0), BuildingBlock: KIFKEQ_clean_linker_1, # of connection points: 2
#     Edge 25, Type (0, 0), BuildingBlock: KIFKEQ_clean_linker_1, # of connection points: 2
#     Edge 26, Type (0, 0), BuildingBlock: KIFKEQ_clean_linker_1, # of connection points: 2
#     Edge 27, Type (0, 0), BuildingBlock: KIFKEQ_clean_linker_1, # of connection points: 2
#     Edge 28, Type (0, 0), BuildingBlock: KIFKEQ_clean_linker_1, # of connection points: 2
#     Edge 29, Type (0, 0), BuildingBlock: KIFKEQ_clean_linker_1, # of connection points: 2
#     Edge 30, Type (0, 0), BuildingBlock: KIFKEQ_clean_linker_1, # of connection points: 2
#     Edge 31, Type (0, 0), BuildingBlock: KIFKEQ_clean_linker_1, # of connection points: 2
#     Edge 32, Type (0, 0), BuildingBlock: KIFKEQ_clean_linker_1, # of connection points: 2
#     Edge 33, Type (0, 0), BuildingBlock: KIFKEQ_clean_linker_1, # of connection points: 2
#     Edge 34, Type (0, 0), BuildingBlock: KIFKEQ_clean_linker_1, # of connection points: 2
#     Edge 35, Type (0, 0), BuildingBlock: KIFKEQ_clean_linker_1, # of connection points: 2
#     Edge 36, Type (0, 0), BuildingBlock: KIFKEQ_clean_linker_1, # of connection points: 2
#     Edge 37, Type (0, 0), BuildingBlock: KIFKEQ_clean_linker_1, # of connection points: 2
#     Edge 38, Type (0, 0), BuildingBlock: KIFKEQ_clean_linker_1, # of connection points: 2
#     Edge 39, Type (0, 0), BuildingBlock: KIFKEQ_clean_linker_1, # of connection points: 2
#     Edge 40, Type (0, 0), BuildingBlock: KIFKEQ_clean_linker_1, # of connection points: 2
#     Edge 41, Type (0, 0), BuildingBlock: KIFKEQ_clean_linker_1, # of connection points: 2
#     Edge 42, Type (0, 0), BuildingBlock: KIFKEQ_clean_linker_1, # of connection points: 2
#     Edge 43, Type (0, 0), BuildingBlock: KIFKEQ_clean_linker_1, # of connection points: 2
#     Edge 44, Type (0, 0), BuildingBlock: KIFKEQ_clean_linker_1, # of connection points: 2
#     Edge 45, Type (0, 0), BuildingBlock: KIFKEQ_clean_linker_1, # of connection points: 2
#     Edge 46, Type (0, 0), BuildingBlock: KIFKEQ_clean_linker_1, # of connection points: 2
#     Edge 47, Type (0, 0), BuildingBlock: KIFKEQ_clean_linker_1, # of connection points: 2
#     Edge 48, Type (0, 0), BuildingBlock: KIFKEQ_clean_linker_1, # of connection points: 2
#     Edge 49, Type (0, 0), BuildingBlock: KIFKEQ_clean_linker_1, # of connection points: 2
#     Edge 50, Type (0, 0), BuildingBlock: KIFKEQ_clean_linker_1, # of connection points: 2
#     Edge 51, Type (0, 0), BuildingBlock: KIFKEQ_clean_linker_1, # of connection points: 2
#     Edge 52, Type (0, 0), BuildingBlock: KIFKEQ_clean_linker_1, # of connection points: 2
#     Edge 53, Type (0, 0), BuildingBlock: KIFKEQ_clean_linker_1, # of connection points: 2
#     Edge 54, Type (0, 0), BuildingBlock: KIFKEQ_clean_linker_1, # of connection points: 2
#     Edge 55, Type (0, 0), BuildingBlock: KIFKEQ_clean_linker_1, # of connection points: 2
#     Edge 56, Type (0, 0), BuildingBlock: KIFKEQ_clean_linker_1, # of connection points: 2
#     Edge 57, Type (0, 0), BuildingBlock: KIFKEQ_clean_linker_1, # of connection points: 2
#     Edge 58, Type (0, 0), BuildingBlock: KIFKEQ_clean_linker_1, # of connection points: 2
#     Edge 59, Type (0, 0), BuildingBlock: KIFKEQ_clean_linker_1, # of connection points: 2
#     Edge 60, Type (0, 0), BuildingBlock: KIFKEQ_clean_linker_1, # of connection points: 2
#     Edge 61, Type (0, 0), BuildingBlock: KIFKEQ_clean_linker_1, # of connection points: 2
#     Edge 62, Type (0, 0), BuildingBlock: KIFKEQ_clean_linker_1, # of connection points: 2
#     Edge 63, Type (0, 0), BuildingBlock: KIFKEQ_clean_linker_1, # of connection points: 2
# Relax obj value: 0.408
# Max RMSD: 0.236
# Mean RMSD: 0.236
data_MOF--net-why--node1-HISSIN_clean_sbu_0--edge1-KIFKEQ_clean_linker_1
_symmetry_space_group_name_H-M    P1
_symmetry_Int_Tables_number       1
_symmetry_cell_setting            triclinic
loop_
_symmetry_equiv_pos_as_xyz
'x, y, z'
_cell_length_a     49.266954
_cell_length_b     48.6867
_cell_length_c     41.107521
_cell_angle_alpha  89.850133
_cell_angle_beta   89.978078
_cell_angle_gamma 89.574224
loop_
_atom_site_label
_atom_site_type_symbol
_atom_site_fract_x
_atom_site_fract_y
_atom_site_fract_z
_atom_type_partial_charge
Eu0 Eu 0.49771 0.22172 0.03857 0.0
Eu1 Eu 0.46372 0.25834 0.08806 0.0
C2 C 0.47751 0.28165 0.01605 0.0
C3 C 0.54144 0.19523 0.96909 0.0
C4 C 0.55385 0.22053 0.96275 0.0
C5 C 0.55541 0.17901 0.91587 0.0
C6 C 0.56712 0.22497 0.93318 0.0
C7 C 0.54234 0.17452 0.94554 0.0
C8 C 0.56793 0.20431 0.90928 0.0
C9 C 0.52592 0.19077 -0.00091 0.0
O10 O 0.43008 0.24548 0.05156 0.0
O11 O 0.45523 0.22174 0.01391 0.0
C12 C 0.43165 0.23253 0.02322 0.0
O13 O 0.49057 0.19149 0.08139 0.0
O14 O 0.46016 0.29438 0.11916 0.0
O15 O 0.42755 0.26482 0.11765 0.0
O16 O 0.47178 0.21958 0.11951 0.0
C17 C 0.481 0.19506 0.11112 0.0
O18 O 0.52881 0.25638 0.05074 0.0
O19 O 0.50568 0.27996 0.09024 0.0
O20 O 0.4613 0.28273 0.04137 0.0
O21 O 0.53578 0.20119 0.02582 0.0
O22 O 0.49982 0.19465 -0.00348 0.0
O23 O 0.49513 0.26169 0.01186 0.0
C24 C 0.4158 0.31158 0.1207 0.0
C25 C 0.40344 0.31459 0.09007 0.0
C26 C 0.39203 0.35209 0.13958 0.0
C27 C 0.38501 0.33606 0.08443 0.0
C28 C 0.41026 0.33058 0.14524 0.0
C29 C 0.37904 0.35495 0.10922 0.0
C30 C 0.43509 0.28919 0.12692 0.0
C31 C 0.52744 0.27734 0.07143 0.0
H32 H 0.55308 0.23692 0.98053 0.0
H33 H 0.55522 0.16281 0.89787 0.0
H34 H 0.57686 0.24456 0.92915 0.0
H35 H 0.53251 0.15501 0.94989 0.0
H36 H 0.40784 0.30021 0.07066 0.0
H37 H 0.3874 0.36592 0.15945 0.0
H38 H 0.37528 0.33775 0.06087 0.0
H39 H 0.41979 0.32861 0.16889 0.0
Eu40 Eu 0.73645 0.75322 0.29129 0.0
Eu41 Eu 0.7024 0.71655 0.33934 0.0
C42 C 0.67699 0.7329 0.26868 0.0
C43 C 0.76162 0.79532 0.2198 0.0
C44 C 0.73616 0.80599 0.21083 0.0
C45 C 0.77911 0.80663 0.16632 0.0
C46 C 0.73232 0.81729 0.17994 0.0
C47 C 0.783 0.79559 0.19736 0.0
C48 C 0.75376 0.81776 0.1573 0.0
C49 C 0.76584 0.78276 0.25186 0.0
O50 O 0.71947 0.68327 0.30471 0.0
O51 O 0.7348 0.7113 0.26409 0.0
C52 C 0.72813 0.68638 0.27442 0.0
O53 O 0.76789 0.74581 0.33225 0.0
O54 O 0.68233 0.67876 0.35378 0.0
O55 O 0.68431 0.71277 0.38764 0.0
O56 O 0.74206 0.72292 0.36887 0.0
C57 C 0.76553 0.73402 0.361 0.0
O58 O 0.70345 0.7848 0.30884 0.0
O59 O 0.67577 0.75623 0.33789 0.0
O60 O 0.67451 0.71859 0.29572 0.0
O61 O 0.7519 0.79304 0.27598 0.0
O62 O 0.76636 0.75602 0.25231 0.0
O63 O 0.69817 0.7483 0.26265 0.0
C64 C 0.69135 0.66833 0.40897 0.0
C65 C 0.68611 0.67359 0.44188 0.0
C66 C 0.71932 0.62905 0.42459 0.0
C67 C 0.69712 0.65659 0.46593 0.0
C68 C 0.70854 0.64624 0.40053 0.0
C69 C 0.71343 0.63386 0.45749 0.0
C70 C 0.67965 0.68661 0.38393 0.0
C71 C 0.68016 0.78065 0.32451 0.0
H72 H 0.71927 0.80565 0.22771 0.0
H73 H 0.79591 0.80623 0.14934 0.0
H74 H 0.71266 0.82602 0.17402 0.0
H75 H 0.80266 0.78706 0.20378 0.0
H76 H 0.67314 0.69062 0.44896 0.0
H77 H 0.73172 0.6116 0.41747 0.0
H78 H 0.69174 0.66046 0.49107 0.0
H79 H 0.71338 0.64194 0.37534 0.0
Eu80 Eu 0.20337 0.99212 0.53983 0.0
Eu81 Eu 0.23987 0.95726 0.58743 0.0
C82 C 0.22545 0.93226 0.51682 0.0
C83 C 0.16639 1.01996 0.46572 0.0
C84 C 0.17612 0.99831 0.44639 0.0
C85 C 0.13657 1.03424 0.42181 0.0
C86 C 0.16595 0.9945 0.415 0.0
C87 C 0.14679 1.03803 0.45317 0.0
C88 C 0.1458 1.01223 0.40248 0.0
C89 C 0.1755 1.02293 0.49948 0.0
O90 O 0.27326 0.96996 0.55143 0.0
O91 O 0.24619 0.99254 0.51454 0.0
C92 C 0.27045 0.98251 0.52303 0.0
O93 O 0.2036 1.01945 0.58596 0.0
O94 O 0.27661 0.93783 0.60665 0.0
O95 O 0.23932 0.93737 0.63482 0.0
O96 O 0.23988 1.00035 0.61124 0.0
C97 C 0.22199 1.02052 0.60921 0.0
O98 O 0.17223 0.9585 0.55452 0.0
O99 O 0.19997 0.93158 0.58601 0.0
O100 O 0.24001 0.92979 0.54348 0.0
O101 O 0.16449 1.00617 0.52032 0.0
O102 O 0.20159 1.02515 0.50387 0.0
O103 O 0.20927 0.95332 0.51139 0.0
C104 C 0.28034 0.94353 0.66323 0.0
C105 C 0.27058 0.96617 0.68111 0.0
C106 C 0.31923 0.94054 0.69897 0.0
C107 C 0.28484 0.97554 0.70825 0.0
C108 C 0.30487 0.93102 0.67213 0.0
C109 C 0.30926 0.96272 0.71747 0.0
C110 C 0.26552 0.93311 0.6349 0.0
C111 C 0.17618 0.93554 0.57144 0.0
H112 H 0.19127 0.98412 0.45578 0.0
H113 H 0.12077 1.048 0.41316 0.0
H114 H 0.1737 0.97755 0.40066 0.0
H115 H 0.13895 1.05473 0.4679 0.0
H116 H 0.25182 0.97642 0.67437 0.0
H117 H 0.33772 0.92987 0.70591 0.0
H118 H 0.27673 0.99261 0.72214 0.0
H119 H 0.31276 0.91367 0.65853 0.0
Eu120 Eu 0.96524 0.46085 0.79168 0.0
Eu121 Eu 1.00164 0.49585 0.83949 0.0
C122 C 1.02367 0.48142 0.76689 0.0
C123 C 0.93994 0.41663 0.7229 0.0
C124 C 0.96624 0.40759 0.71508 0.0
C125 C 0.92393 0.40079 0.6705 0.0
C126 C 0.97133 0.39508 0.68518 0.0
C127 C 0.91882 0.41312 0.70054 0.0
C128 C 0.95025 0.39174 0.66252 0.0
C129 C 0.93486 0.43179 0.75302 0.0
O130 O 0.99076 0.52876 0.8009 0.0
O131 O 0.96324 0.50408 0.76705 0.0
C132 C 0.97595 0.5273 0.77408 0.0
O133 O 0.93535 0.46854 0.83394 0.0
O134 O 1.03549 0.49916 0.87338 0.0
O135 O 1.00839 0.53389 0.8659 0.0
O136 O 0.96336 0.48765 0.87136 0.0
C137 C 0.93908 0.47831 0.86344 0.0
O138 O 0.99909 0.42881 0.80632 0.0
O139 O 1.02616 0.45516 0.83881 0.0
O140 O 1.02566 0.49718 0.79268 0.0
O141 O 0.94605 0.42196 0.77941 0.0
O142 O 0.93752 0.45829 0.75059 0.0
O143 O 1.00363 0.4642 0.76296 0.0
C144 C 1.05491 0.54283 0.87169 0.0
C145 C 1.05952 0.55386 0.84055 0.0
C146 C 1.09569 0.56463 0.89112 0.0
C147 C 1.08192 0.57069 0.83489 0.0
C148 C 1.07326 0.54802 0.89678 0.0
C149 C 0.10016 0.57633 0.86021 0.0
C150 C 1.03144 0.52533 0.87797 0.0
C151 C 1.02193 0.43176 0.82334 0.0
H152 H 0.98291 0.41062 0.73187 0.0
H153 H 0.9073 0.39823 0.65357 0.0
H154 H 0.99186 0.38857 0.67947 0.0
H155 H 0.89848 0.4203 0.70613 0.0
H156 H 1.04567 0.54969 0.82073 0.0
H157 H 0.10903 0.56908 0.91133 0.0
H158 H 1.08485 0.57945 0.81091 0.0
H159 H 1.07005 0.53951 0.92085 0.0
Eu160 Eu 0.74047 0.95827 0.88781 0.0
Eu161 Eu 0.70533 0.99379 0.93665 0.0
C162 C 0.72373 1.02172 0.86582 0.0
C163 C 0.77091 0.89699 0.84671 0.0
C164 C 0.78057 0.88382 0.87499 0.0
C165 C 0.77126 0.85326 0.81871 0.0
C166 C 0.78639 0.85571 0.87474 0.0
C167 C 0.76577 0.88142 0.81884 0.0
C168 C 0.78217 0.84028 0.84643 0.0
C169 C 0.76534 0.92669 0.84633 0.0
O170 O 0.67509 0.95822 0.92655 0.0
O171 O 0.69857 0.93583 0.88651 0.0
C172 C 0.67681 0.93761 0.90554 0.0
O173 O 0.73993 0.93097 0.93202 0.0
O174 O 0.66689 1.01253 0.95113 0.0
O175 O 0.70365 1.02265 0.97719 0.0
O176 O 0.71013 0.95465 0.96492 0.0
C177 C 0.72577 0.93334 0.95892 0.0
O178 O 0.77383 0.96949 0.92496 0.0
O179 O 0.74847 0.99562 0.96015 0.0
O180 O 0.70655 1.0215 0.89051 0.0
O181 O 0.7399 0.93376 0.84338 0.0
O182 O 0.77797 0.94132 0.868 0.0
O183 O 0.74036 1.0006 0.8621 0.0
C184 C 0.66361 1.01913 0.00773 0.0
C185 C 0.65487 0.99258 0.0157 0.0
C186 C 0.64753 1.03547 0.06008 0.0
C187 C 0.64218 0.98759 0.04548 0.0
C188 C 0.66003 1.0405 0.03013 0.0
C189 C 0.63832 1.009 0.06793 0.0
C190 C 0.67726 1.02442 0.97663 0.0
C191 C 0.77198 0.98373 0.95233 0.0
H192 H 0.78412 0.89531 0.8971 0.0
H193 H 0.76828 0.84193 0.79637 0.0
H194 H 0.79485 0.84617 0.89634 0.0
H195 H 0.758 0.89114 0.79697 0.0
H196 H 0.65786 0.9757 -0.0011 0.0
H197 H 0.64463 1.05236 0.07685 0.0
H198 H 0.63559 0.96693 0.05108 0.0
H199 H 0.66688 1.06105 0.02443 0.0
Eu200 Eu 0.50294 0.49907 0.63638 0.0
Eu201 Eu 0.46751 0.46297 0.68387 0.0
C202 C 0.44031 0.482 0.61295 0.0
C203 C 0.56266 0.53201 0.59614 0.0
C204 C 0.57199 0.5571 0.58418 0.0
C205 C 0.6091 0.51814 0.60827 0.0
C206 C 0.59968 0.56269 0.58409 0.0
C207 C 0.58128 0.51267 0.60866 0.0
C208 C 0.61853 0.54323 0.59594 0.0
C209 C 0.53342 0.52675 0.59661 0.0
O210 O 0.5008 0.43107 0.66763 0.0
O211 O 0.52919 0.45937 0.63934 0.0
C212 C 0.52443 0.43506 0.65263 0.0
O213 O 0.52962 0.49664 0.68112 0.0
O214 O 0.45024 0.42338 0.69704 0.0
O215 O 0.43801 0.45994 0.72325 0.0
O216 O 0.50507 0.46748 0.71376 0.0
C217 C 0.52652 0.48256 0.70822 0.0
O218 O 0.4866 0.5326 0.67124 0.0
O219 O 0.46858 0.50504 0.71079 0.0
O220 O 0.43701 0.4716 0.64232 0.0
O221 O 0.52612 0.50143 0.59138 0.0
O222 O 0.52009 0.53804 0.62052 0.0
O223 O 0.46435 0.49187 0.60496 0.0
C224 C 0.4419 0.41921 0.75316 0.0
C225 C 0.46833 0.41209 0.76283 0.0
C226 C 0.42447 0.40136 0.80409 0.0
C227 C 0.47278 0.39937 0.79281 0.0
C228 C 0.42002 0.41392 0.77395 0.0
C229 C 0.45088 0.39385 0.81369 0.0
C230 C 0.43721 0.43324 0.72212 0.0
C231 C 0.47654 0.52972 0.70095 0.0
H232 H 0.55788 0.5723 0.57468 0.0
H233 H 0.6232 0.5028 0.61744 0.0
H234 H 0.60639 0.58197 0.57375 0.0
H235 H 0.57435 0.4933 0.61853 0.0
H236 H 0.48553 0.41645 0.74725 0.0
H237 H 0.40724 0.39713 0.81966 0.0
H238 H 0.49336 0.39408 0.79982 0.0
H239 H 0.39952 0.41954 0.76688 0.0
Eu240 Eu 0.9645 0.26026 0.38707 0.0
Eu241 Eu 0.9998 0.22528 0.43504 0.0
C242 C 0.98085 0.19709 0.36619 0.0
C243 C 0.9208 0.27328 0.31385 0.0
C244 C 0.92641 0.24822 0.2981 0.0
C245 C 0.87942 0.27784 0.28262 0.0
C246 C 0.90877 0.23827 0.27433 0.0
C247 C 0.89713 0.28787 0.30608 0.0
C248 C 0.88509 0.25301 0.26642 0.0
C249 C 0.93877 0.28389 0.3393 0.0
O250 O 1.02979 0.26108 0.42539 0.0
O251 O 1.00616 0.28322 0.38517 0.0
C252 C 1.02795 0.28163 0.40422 0.0
O253 O 0.96555 0.28868 0.43029 0.0
O254 O 1.03831 0.20736 0.45064 0.0
O255 O 1.00103 0.19464 0.47395 0.0
O256 O 0.99479 0.26416 0.46337 0.0
C257 C 0.97957 0.28581 0.45731 0.0
O258 O 0.93075 0.24888 0.42337 0.0
O259 O 0.95659 0.22345 0.45886 0.0
O260 O 1.00053 0.19943 0.38768 0.0
O261 O 0.92921 0.28285 0.36884 0.0
O262 O 0.96421 0.27631 0.33764 0.0
O263 O 0.9619 0.21627 0.36599 0.0
C264 C 1.03981 0.19792 0.50692 0.0
C265 C 1.05074 0.2234 0.51561 0.0
C266 C 1.05138 0.18003 0.56034 0.0
C267 C 1.0623 0.22705 0.54628 0.0
C268 C 1.04005 0.17634 0.5295 0.0
C269 C 1.06281 0.20539 0.56904 0.0
C270 C 1.02746 0.19391 0.47479 0.0
C271 C 0.93286 0.23495 0.45095 0.0
H272 H 0.94445 0.23638 0.30404 0.0
H273 H 0.8616 0.28997 0.2765 0.0
H274 H 0.91363 0.21916 0.26213 0.0
H275 H 0.8924 0.30711 0.31809 0.0
H276 H 1.05049 0.24048 0.49864 0.0
H277 H 1.051 0.16306 0.57741 0.0
H278 H 1.07125 0.24672 0.55188 0.0
H279 H 1.03138 0.15664 0.52332 0.0
Eu280 Eu 0.20133 0.72037 0.13432 0.0
Eu281 Eu 0.23615 0.75471 0.18338 0.0
C282 C 0.26333 0.7388 0.11206 0.0
C283 C 0.17604 0.69382 0.05357 0.0
C284 C 0.15235 0.68712 0.03681 0.0
C285 C 0.19906 0.70165 0.00206 0.0
C286 C 0.15202 0.68734 0.00293 0.0
C287 C 0.19931 0.70153 0.03609 0.0
C288 C 0.17543 0.69433 0.98513 0.0
C289 C 0.17584 0.69332 0.08921 0.0
O290 O 0.20338 0.78734 0.1675 0.0
O291 O 0.17598 0.76064 0.13594 0.0
C292 C 0.18037 0.78426 0.15089 0.0
O293 O 0.17673 0.71693 0.18049 0.0
O294 O 0.25485 0.79367 0.19641 0.0
O295 O 0.264 0.75697 0.22436 0.0
O296 O 0.19698 0.75069 0.21084 0.0
C297 C 0.17757 0.73275 0.20634 0.0
O298 O 0.21489 0.68616 0.1706 0.0
O299 O 0.23552 0.71235 0.2095 0.0
O300 O 0.26732 0.74456 0.14296 0.0
O301 O 0.19783 0.68427 0.10343 0.0
O302 O 0.16602 0.71527 0.10306 0.0
O303 O 0.23835 0.73318 0.10269 0.0
C304 C 0.26265 0.79835 0.25284 0.0
C305 C 0.23728 0.80963 0.26096 0.0
C306 C 0.28009 0.81164 0.30557 0.0
C307 C 0.23338 0.82199 0.29122 0.0
C308 C 0.28402 0.79949 0.27522 0.0
C309 C 0.25469 0.82295 0.31398 0.0
C310 C 0.26661 0.78349 0.22227 0.0
C311 C 0.22627 0.68819 0.19979 0.0
H312 H 0.13419 0.68131 0.04994 0.0
H313 H 0.21737 0.70708 -0.01096 0.0
H314 H 0.13366 0.68092 -0.00927 0.0
H315 H 0.21774 0.70709 0.04871 0.0
H316 H 0.22043 0.80862 0.24407 0.0
H317 H 0.2968 0.81164 0.32268 0.0
H318 H 0.21369 0.83086 0.29671 0.0
H319 H 0.30361 0.79049 0.26944 0.0
Eu320 Eu 0.99958 0.72224 0.53993 0.0
Eu321 Eu 0.96333 0.75681 0.58737 0.0
C322 C 0.97885 0.78269 0.51748 0.0
C323 C 1.03962 0.69558 0.46751 0.0
C324 C 1.04856 0.72164 0.45778 0.0
C325 C 1.05395 0.67704 0.41548 0.0
C326 C 1.06051 0.72529 0.42728 0.0
C327 C 1.0422 0.67338 0.44612 0.0
C328 C 1.06346 0.70301 0.40577 0.0
C329 C 1.02734 0.69145 0.49969 0.0
O330 O 0.92962 0.74462 0.55166 0.0
O331 O 0.95654 0.72153 0.5152 0.0
C332 C 0.93235 0.73184 0.52347 0.0
O333 O 0.9992 0.69491 0.58616 0.0
O334 O 0.92812 0.77862 0.6067 0.0
O335 O 0.9642 0.77336 0.63653 0.0
O336 O 0.96186 0.7131 0.60978 0.0
C337 C 0.98015 0.69327 0.60855 0.0
O338 O 1.03077 0.75604 0.55354 0.0
O339 O 1.00357 0.78206 0.58656 0.0
O340 O 0.96342 0.78461 0.5435 0.0
O341 O 1.03816 0.70497 0.52367 0.0
O342 O 1.00092 0.69201 0.50071 0.0
O343 O 0.99539 0.76186 0.51245 0.0
C344 C 0.92223 0.76928 0.6627 0.0
C345 C 0.90381 0.74779 0.65765 0.0
C346 C 0.91089 0.76926 0.72003 0.0
C347 C 0.88839 0.73771 0.68352 0.0
C348 C 0.92604 0.77955 0.69412 0.0
C349 C 0.89155 0.74863 0.71486 0.0
C350 C 0.93856 0.78025 0.63583 0.0
C351 C 1.02713 0.77851 0.5713 0.0
H352 H 1.04653 0.73913 0.47388 0.0
H353 H 1.05546 0.65954 0.39935 0.0
H354 H 1.06791 0.74547 0.42088 0.0
H355 H 1.03512 0.65319 0.45314 0.0
H356 H 0.90103 0.73908 0.63367 0.0
H357 H 0.91337 0.77841 0.74383 0.0
H358 H 0.87355 0.72187 0.67895 0.0
H359 H 0.94046 0.79583 0.69852 0.0
Eu360 Eu 0.23642 0.25275 0.79137 0.0
Eu361 Eu 0.20071 0.21732 0.83983 0.0
C362 C 0.17724 0.23256 0.76779 0.0
C363 C 0.26302 0.2957 0.7211 0.0
C364 C 0.23734 0.30537 0.71155 0.0
C365 C 0.28157 0.31031 0.6693 0.0
C366 C 0.23386 0.31771 0.68113 0.0
C367 C 0.28506 0.29817 0.69983 0.0
C368 C 0.25594 0.32029 0.65961 0.0
C369 C 0.26683 0.2818 0.75244 0.0
O370 O 0.21202 0.18414 0.80203 0.0
O371 O 0.2381 0.20948 0.76698 0.0
C372 C 0.22601 0.18599 0.77459 0.0
O373 O 0.26636 0.24663 0.83405 0.0
O374 O 0.17546 0.21646 0.88327 0.0
O375 O 0.18576 0.17837 0.8588 0.0
O376 O 0.24054 0.22237 0.86965 0.0
C377 C 0.26386 0.23423 0.86243 0.0
O378 O 0.20257 0.28462 0.8061 0.0
O379 O 0.17532 0.25751 0.83759 0.0
O380 O 0.17416 0.21892 0.79516 0.0
O381 O 0.25382 0.29209 0.77728 0.0
O382 O 0.2656 0.25512 0.75159 0.0
O383 O 0.19864 0.24762 0.76175 0.0
C384 C 0.14153 0.18292 0.87913 0.0
C385 C 0.13334 0.15781 0.89222 0.0
C386 C 1.095 0.19267 0.86271 0.0
C387 C 0.10619 0.15016 0.89072 0.0
C388 C 0.12231 0.20019 0.86392 0.0
C389 C 1.08671 0.16756 0.87612 0.0
C390 C 0.17028 0.19035 0.8803 0.0
C391 C 0.17955 0.28122 0.82264 0.0
H392 H 0.21999 0.30334 0.72757 0.0
H393 H 0.29889 0.31155 0.65315 0.0
H394 H 0.21393 0.3255 0.67466 0.0
H395 H 0.30494 0.29045 0.70672 0.0
H396 H 0.14794 0.14419 0.90379 0.0
H397 H 1.08039 0.20644 0.85144 0.0
H398 H 0.10029 0.13094 0.90191 0.0
H399 H 0.12838 0.21953 0.85315 0.0
Eu400 Eu 0.70544 0.49115 0.03994 0.0
Eu401 Eu 0.73968 0.4546 0.08967 0.0
C402 C 0.72597 0.4309 0.01751 0.0
C403 C 0.66611 0.51809 0.96736 0.0
C404 C 0.67499 0.49616 0.94789 0.0
C405 C 0.63458 0.53189 0.92502 0.0
C406 C 0.66372 0.49212 0.91713 0.0
C407 C 0.64595 0.53596 0.95575 0.0
C408 C 0.64325 0.50985 0.90539 0.0
C409 C 0.67754 0.52213 -9e-05 0.0
O410 O 0.77353 0.46785 0.05375 0.0
O411 O 0.74811 0.49092 0.0156 0.0
C412 C 0.77179 0.4804 0.02512 0.0
O413 O 0.7102 0.52075 0.08371 0.0
O414 O 0.73955 0.42853 0.13294 0.0
O415 O 0.77757 0.43812 0.10916 0.0
O416 O 0.7355 0.49501 0.11889 0.0
C417 C 0.7231 0.51841 0.11178 0.0
O418 O 0.67435 0.45641 0.05177 0.0
O419 O 0.69838 0.43159 0.08948 0.0
O420 O 0.73874 0.42755 0.04529 0.0
O421 O 0.66655 0.50784 0.02326 0.0
O422 O 0.70395 0.52209 0.00162 0.0
O423 O 0.71158 0.45293 0.01074 0.0
C424 C 0.77153 0.39277 0.12839 0.0
C425 C 0.78311 0.38101 0.10033 0.0
C426 C 0.77062 0.3478 0.15372 0.0
C427 C 0.78916 0.35294 0.09943 0.0
C428 C 0.7649 0.37588 0.15478 0.0
C429 C 0.78328 0.33616 0.1263 0.0
C430 C 0.76519 0.4223 0.12997 0.0
C431 C 0.67625 0.43473 0.07143 0.0
H432 H 0.69059 0.48214 0.95651 0.0
H433 H 0.61855 0.54565 0.91697 0.0
H434 H 0.67107 0.47514 0.90253 0.0
H435 H 0.63881 0.55291 0.97058 0.0
H436 H 0.78787 0.39352 0.07929 0.0
H437 H 0.76638 0.33545 0.17506 0.0
H438 H 0.79903 0.34446 0.07811 0.0
H439 H 0.75566 0.38449 0.17644 0.0
Eu440 Eu 0.46703 0.96034 0.29209 0.0
Eu441 Eu 0.50132 0.99655 0.34013 0.0
C442 C 0.52647 0.98077 0.26939 0.0
C443 C 0.44135 0.91951 0.22012 0.0
C444 C 0.46689 0.90951 0.21052 0.0
C445 C 0.4234 0.90871 0.16681 0.0
C446 C 0.47056 0.89881 0.17937 0.0
C447 C 0.41969 0.91916 0.1981 0.0
C448 C 0.44886 0.89828 0.15713 0.0
C449 C 0.43734 0.93155 0.2524 0.0
O450 O 0.48545 1.03027 0.30517 0.0
O451 O 0.4685 1.0026 0.26525 0.0
C452 C 0.47598 1.02736 0.27522 0.0
O453 O 0.43585 0.96695 0.33342 0.0
O454 O 0.52049 1.03428 0.35626 0.0
O455 O 0.52091 0.99841 0.38767 0.0
O456 O 0.46119 0.99117 0.36915 0.0
C457 C 0.43794 0.97946 0.36167 0.0
O458 O 0.49982 0.92837 0.30933 0.0
O459 O 0.52774 0.95674 0.33808 0.0
O460 O 0.52876 0.99548 0.29605 0.0
O461 O 0.45137 0.92082 0.27623 0.0
O462 O 0.43697 0.95828 0.25328 0.0
O463 O 0.50557 0.96492 0.26379 0.0
C464 C 0.51355 1.04123 0.4126 0.0
C465 C 0.52186 1.03543 0.44447 0.0
C466 C 0.48388 1.07743 0.43308 0.0
C467 C 0.51152 1.05067 0.47042 0.0
C468 C 0.49399 1.06196 0.40713 0.0
C469 C 0.49282 1.07215 0.46491 0.0
C470 C 0.52468 1.02485 0.38558 0.0
C471 C 0.52321 0.93238 0.3248 0.0
H472 H 0.48399 0.90994 0.22708 0.0
H473 H 0.40638 0.90903 0.15015 0.0
H474 H 0.49032 0.89059 0.17292 0.0
H475 H 0.39995 0.92719 0.20503 0.0
H476 H 0.53668 1.01937 0.44925 0.0
H477 H 0.46958 1.09395 0.42821 0.0
H478 H 0.51921 1.04652 0.49464 0.0
H479 H 0.48678 1.06653 0.38281 0.0
Eu480 Eu 0.24021 0.45783 0.38675 0.0
Eu481 Eu 0.20693 0.4941 0.43699 0.0
C482 C 0.22238 0.52109 0.36464 0.0
C483 C 0.26417 0.42944 0.30629 0.0
C484 C 0.27234 0.40553 0.29023 0.0
C485 C 0.25252 0.45039 0.25433 0.0
C486 C 0.27098 0.40411 0.25643 0.0
C487 C 0.25377 0.45172 0.28827 0.0
C488 C 0.26137 0.42663 0.23804 0.0
C489 C 0.2662 0.43065 0.34181 0.0
O490 O 0.17563 0.45968 0.42468 0.0
O491 O 0.19831 0.43624 0.38471 0.0
C492 C 0.17672 0.43886 0.40378 0.0
O493 O 0.24354 0.43297 0.43297 0.0
O494 O 0.16903 0.51514 0.44921 0.0
O495 O 0.20448 0.52027 0.47979 0.0
O496 O 0.21043 0.45407 0.46365 0.0
C497 C 0.22794 0.43407 0.45887 0.0
O498 O 0.27436 0.47062 0.42285 0.0
O499 O 0.24954 0.4942 0.46101 0.0
O500 O 0.21488 0.525 0.3951 0.0
O501 O 0.27476 0.45374 0.35401 0.0
O502 O 0.24557 0.42078 0.35769 0.0
O503 O 0.22984 0.49618 0.35561 0.0
C504 C 0.16225 0.52025 0.50573 0.0
C505 C 0.15176 0.49417 0.51264 0.0
C506 C 0.14451 0.5371 0.55702 0.0
C507 C 0.13758 0.48962 0.54156 0.0
C508 C 0.15852 0.54167 0.52799 0.0
C509 C 0.13396 0.51101 0.56411 0.0
C510 C 0.17855 0.52491 0.47645 0.0
C511 C 0.27302 0.48347 0.45133 0.0
H512 H 0.28024 0.38811 0.30381 0.0
H513 H 0.24506 0.46802 0.24084 0.0
H514 H 0.27857 0.38571 0.24465 0.0
H515 H 0.24702 0.47026 0.30038 0.0
H516 H 0.15484 0.47727 0.4959 0.0
H517 H 0.14179 0.55399 0.57383 0.0
H518 H 0.12992 0.46925 0.54659 0.0
H519 H 0.1667 0.56185 0.52307 0.0
Eu520 Eu 1.00233 0.9999 0.13627 0.0
Eu521 Eu 0.96724 0.96444 0.1849 0.0
C522 C 0.93861 0.983 0.11495 0.0
C523 C 1.01311 1.04492 0.0637 0.0
C524 C 1.02059 1.03897 0.0316 0.0
C525 C 0.98278 1.08092 0.04387 0.0
C526 C 1.00951 1.05404 0.00585 0.0
C527 C 0.99363 1.06562 0.06961 0.0
C528 C 0.9909 1.0755 0.01179 0.0
C529 C 1.02494 1.02871 0.09056 0.0
O530 O 1.00126 0.9329 0.16969 0.0
O531 O 1.02792 0.95975 0.13709 0.0
C532 C 1.02393 0.93612 0.1524 0.0
O533 O 1.03123 0.99608 0.17872 0.0
O534 O 0.95076 0.92477 0.19918 0.0
O535 O 0.93873 0.96141 0.22533 0.0
O536 O 1.00482 0.9713 0.21439 0.0
C537 C 1.02733 0.98423 0.20714 0.0
O538 O 0.99064 1.03314 0.17381 0.0
O539 O 0.96506 1.00767 0.20921 0.0
O540 O 0.93648 0.97007 0.143 0.0
O541 O 1.02081 1.03797 0.1199 0.0
O542 O 1.02181 1.00217 0.08863 0.0
O543 O 0.96171 0.9953 0.10793 0.0
C544 C 0.94344 0.92093 0.25557 0.0
C545 C 0.96998 0.91334 0.26434 0.0
C546 C 0.927 0.90402 0.3074 0.0
C547 C 0.97494 0.90082 0.29433 0.0
C548 C 0.92202 0.91634 0.27725 0.0
C549 C 0.95348 0.89602 0.31611 0.0
C550 C 0.93814 0.9347 0.2245 0.0
C551 C 0.97688 1.03125 0.20139 0.0
H552 H 1.03533 1.02293 0.02646 0.0
H553 H 0.96858 1.09743 0.04907 0.0
H554 H 1.01658 1.0498 0.98141 0.0
H555 H 0.98704 1.07032 0.09413 0.0
H556 H 0.98684 0.91716 0.24805 0.0
H557 H 0.9101 0.90033 0.32367 0.0
H558 H 0.99558 0.89511 0.30064 0.0
H559 H 0.90147 0.92233 0.27088 0.0
Eu560 Eu 0.46407 0.76127 0.88596 0.0
Eu561 Eu 0.49745 0.7246 0.93636 0.0
C562 C 0.4805 0.69744 0.86412 0.0
C563 C 0.42667 0.8213 0.8505 0.0
C564 C 0.41061 0.82802 0.87771 0.0
C565 C 0.4235 0.86852 0.83209 0.0
C566 C 0.40044 0.85469 0.88153 0.0
C567 C 0.43334 0.84183 0.82804 0.0
C568 C 0.40662 0.87512 0.85859 0.0
C569 C 0.4379 0.79348 0.84615 0.0
O570 O 0.52892 0.75909 0.9247 0.0
O571 O 0.50579 0.78351 0.88581 0.0
C572 C 0.52759 0.78045 0.90447 0.0
O573 O 0.46351 0.78755 0.93092 0.0
O574 O 0.53553 0.70488 0.95072 0.0
O575 O 0.49871 0.69648 0.97771 0.0
O576 O 0.49316 0.76386 0.96413 0.0
C577 C 0.47756 0.78517 0.95791 0.0
O578 O 0.43008 0.74955 0.92261 0.0
O579 O 0.45452 0.72461 0.96 0.0
O580 O 0.49166 0.69453 0.89318 0.0
O581 O 0.46428 0.79171 0.84694 0.0
O582 O 0.4263 0.77371 0.86234 0.0
O583 O 0.46972 0.72142 0.85605 0.0
C584 C 0.53923 0.69766 0.00749 0.0
C585 C 0.55127 0.72292 0.01482 0.0
C586 C 0.55187 0.68054 0.0609 0.0
C587 C 0.56376 0.72688 0.04494 0.0
C588 C 0.53958 0.67655 0.03068 0.0
C589 C 0.56415 0.70575 0.06841 0.0
C590 C 0.52499 0.69349 0.97655 0.0
C591 C 0.43126 0.73621 0.9508 0.0
H592 H 0.40567 0.81266 0.89583 0.0
H593 H 0.4281 0.88372 0.81363 0.0
H594 H 0.38736 0.85925 0.90204 0.0
H595 H 0.44597 0.83714 0.80716 0.0
H596 H 0.55093 0.73962 -0.00266 0.0
H597 H 0.55137 0.664 0.07854 0.0
H598 H 0.57333 0.74642 0.04968 0.0
H599 H 0.53004 0.65705 0.02555 0.0
Eu600 Eu 0.70258 0.22013 0.63595 0.0
Eu601 Eu 0.73869 0.25512 0.68408 0.0
C602 C 0.76587 0.23668 0.61306 0.0
C603 C 0.64368 0.18492 0.59665 0.0
C604 C 0.63639 0.15956 0.58362 0.0
C605 C 0.59678 0.19309 0.61267 0.0
C606 C 0.6095 0.151 0.58496 0.0
C607 C 0.62383 0.20153 0.61163 0.0
C608 C 0.58939 0.16772 0.59932 0.0
C609 C 0.67218 0.19329 0.59549 0.0
O610 O 0.70491 0.28724 0.66956 0.0
O611 O 0.67749 0.2605 0.63803 0.0
C612 C 0.68186 0.28409 0.65303 0.0
O613 O 0.6763 0.22147 0.68097 0.0
O614 O 0.75615 0.29429 0.6985 0.0
O615 O 0.76817 0.25697 0.72353 0.0
O616 O 0.70108 0.25006 0.71396 0.0
C617 C 0.67961 0.23507 0.70826 0.0
O618 O 0.71343 0.18681 0.67393 0.0
O619 O 0.74027 0.21169 0.70841 0.0
O620 O 0.7685 0.24914 0.6413 0.0
O621 O 0.67661 0.2196 0.59315 0.0
O622 O 0.68816 0.18124 0.61646 0.0
O623 O 0.74247 0.22494 0.60604 0.0
C624 C 0.76493 0.29684 0.7549 0.0
C625 C 0.73962 0.30814 0.7633 0.0
C626 C 0.78188 0.30761 0.80872 0.0
C627 C 0.73555 0.31937 0.79413 0.0
C628 C 0.786 0.29662 0.77775 0.0
C629 C 0.7566 0.31914 0.81727 0.0
C630 C 0.76911 0.28367 0.72325 0.0
C631 C 0.72777 0.18839 0.7011 0.0
H632 H 0.65147 0.14644 0.5722 0.0
H633 H 0.58166 0.20634 0.62377 0.0
H634 H 0.6043 0.13159 0.57381 0.0
H635 H 0.62919 0.22107 0.62234 0.0
H636 H 0.72295 0.30817 0.7461 0.0
H637 H 0.79839 0.3067 0.82608 0.0
H638 H 0.71596 0.32845 0.79967 0.0
H639 H 0.80554 0.28759 0.77178 0.0
H640 H 0.56414 0.29371 0.02279 0.0
H641 H 0.54279 0.31353 0.12144 0.0
H642 H 0.59789 0.33073 0.02271 0.0
H643 H 0.57726 0.34986 0.12183 0.0
H644 H 0.66237 0.39691 0.12052 0.0
H645 H 0.62794 0.36056 0.12096 0.0
H646 H 0.60452 0.38275 0.02353 0.0
H647 H 0.63825 0.41981 0.02361 0.0
C648 C 0.56671 0.30558 0.0448 0.0
C649 C 0.55016 0.29964 0.07223 0.0
C650 C 0.58625 0.32733 0.04468 0.0
C651 C 0.59114 0.34415 0.07228 0.0
C652 C 0.5749 0.33785 0.0999 0.0
C653 C 0.55478 0.31666 0.09969 0.0
C654 C 0.64978 0.39445 0.09915 0.0
C655 C 0.65363 0.41233 0.07217 0.0
C656 C 0.62969 0.37324 0.09941 0.0
C657 C 0.61267 0.3678 0.07227 0.0
C658 C 0.61678 0.38548 0.04512 0.0
C659 C 0.63632 0.40724 0.04524 0.0
H660 H 0.68216 0.83747 0.30998 0.0
H661 H 0.62508 0.77632 0.34091 0.0
H662 H 0.64582 0.87237 0.31053 0.0
H663 H 0.5887 0.81096 0.34091 0.0
H664 H 0.52108 0.87557 0.31046 0.0
H665 H 0.5574 0.84063 0.3109 0.0
H666 H 0.61469 0.90196 0.34063 0.0
H667 H 0.57834 0.93662 0.34074 0.0
C668 C 0.66196 0.8312 0.31708 0.0
C669 C 0.65746 0.80332 0.32569 0.0
C670 C 0.64071 0.85159 0.31747 0.0
C671 C 0.61335 0.84538 0.32576 0.0
C672 C 0.60888 0.81741 0.33405 0.0
C673 C 0.63021 0.79718 0.33429 0.0
C674 C 0.54131 0.88181 0.31738 0.0
C675 C 0.54587 0.90967 0.32585 0.0
C676 C 0.56255 0.8614 0.31772 0.0
C677 C 0.58996 0.86758 0.32579 0.0
C678 C 0.59447 0.89554 0.33393 0.0
C679 C 0.57317 0.91577 0.33424 0.0
H680 H 0.18076 0.87972 0.58794 0.0
H681 H 0.12017 0.93822 0.55708 0.0
H682 H 0.1466 0.84327 0.5879 0.0
H683 H 1.08576 0.90188 0.55779 0.0
H684 H 1.02285 0.83389 0.58963 0.0
H685 H 1.057 0.87037 0.58967 0.0
H686 H 0.1172 0.81262 0.55594 0.0
H687 H 1.0828 0.77629 0.55517 0.0
C688 C 0.16013 0.88514 0.58136 0.0
C689 C 0.15396 0.91278 0.57272 0.0
C690 C 0.14021 0.86381 0.58111 0.0
C691 C 0.11256 0.86871 0.57288 0.0
C692 C 0.10633 0.89647 0.56464 0.0
C693 C 0.12641 0.91769 0.56415 0.0
C694 C 1.04334 0.82867 0.58227 0.0
C695 C 1.04934 0.80127 0.57261 0.0
C696 C 1.06325 0.85002 0.58206 0.0
C697 C 1.09072 0.84535 0.57285 0.0
C698 C 1.09679 0.81783 0.56358 0.0
C699 C 1.0767 0.79661 0.56306 0.0
H700 H 1.02024 0.37534 0.8064 0.0
H701 H 1.07658 0.43575 0.84076 0.0
H702 H 1.05682 0.34057 0.8065 0.0
H703 H 0.11315 0.40137 0.8401 0.0
H704 H 0.18127 0.338 0.80737 0.0
H705 H 0.14461 0.37266 0.80784 0.0
H706 H 1.08795 0.31085 0.83833 0.0
H707 H 0.12461 0.27654 0.83862 0.0
C708 C 1.04031 0.38146 0.8141 0.0
C709 C 1.04456 0.40906 0.82387 0.0
C710 C 1.06167 0.36119 0.81422 0.0
C711 C 1.08888 0.36735 0.82327 0.0
C712 C 1.09309 0.39504 0.83263 0.0
C713 C 1.07165 0.41508 0.83324 0.0
C714 C 0.1611 0.33161 0.81443 0.0
C715 C 0.15678 0.30376 0.82323 0.0
C716 C 0.13969 0.35182 0.81478 0.0
C717 C 0.11239 0.34538 0.82311 0.0
C718 C 0.1081 0.31742 0.83147 0.0
C719 C 0.12958 0.29741 0.83186 0.0
H720 H 0.63999 0.92095 0.95382 0.0
H721 H 0.66217 0.90102 0.85546 0.0
H722 H 0.60626 0.88396 0.95358 0.0
H723 H 0.62769 0.86466 0.85476 0.0
H724 H 0.54247 0.8177 0.85514 0.0
H725 H 0.57716 0.85379 0.8549 0.0
H726 H 0.59912 0.83229 0.95303 0.0
H727 H 0.56511 0.79551 0.95278 0.0
C728 C 0.63765 0.90902 0.93182 0.0
C729 C 0.65443 0.91494 0.90458 0.0
C730 C 0.61809 0.88729 0.93176 0.0
C731 C 0.61339 0.87045 0.90413 0.0
C732 C 0.6299 0.87668 0.8767 0.0
C733 C 0.65004 0.89788 0.8771 0.0
C734 C 0.55478 0.82025 0.87671 0.0
C735 C 0.55043 0.80265 0.90383 0.0
C736 C 0.57505 0.84131 0.87657 0.0
C737 C 0.59175 0.84688 0.90396 0.0
C738 C 0.58714 0.82946 0.93124 0.0
C739 C 0.56743 0.80786 0.93103 0.0
H740 H 0.57976 0.43987 0.63841 0.0
H741 H 0.5223 0.37801 0.66621 0.0
H742 H 0.6163 0.40545 0.63888 0.0
H743 H 0.55886 0.34328 0.66606 0.0
H744 H 0.62726 0.28019 0.63519 0.0
H745 H 0.59078 0.31465 0.63542 0.0
H746 H 0.64699 0.37531 0.66969 0.0
H747 H 0.68349 0.34049 0.67008 0.0
C748 C 0.57459 0.41889 0.64445 0.0
C749 C 0.54719 0.41247 0.65204 0.0
C750 C 0.596 0.3988 0.64496 0.0
C751 C 0.59149 0.3707 0.65248 0.0
C752 C 0.56399 0.36421 0.65977 0.0
C753 C 0.54262 0.38447 0.65994 0.0
C754 C 0.63218 0.30084 0.64278 0.0
C755 C 0.65922 0.3068 0.6524 0.0
C756 C 0.61078 0.32094 0.64313 0.0
C757 C 0.61497 0.34865 0.65254 0.0
C758 C 0.64213 0.35471 0.66189 0.0
C759 C 0.66346 0.3344 0.6622 0.0
H760 H 1.0424 0.31854 0.35412 0.0
H761 H 1.06458 0.29815 0.45247 0.0
H762 H 1.07675 0.35502 0.35349 0.0
H763 H 1.09822 0.33519 0.45228 0.0
H764 H 0.13934 0.4233 0.45201 0.0
H765 H 0.10535 0.38654 0.45202 0.0
H766 H 0.12703 0.36623 0.35355 0.0
H767 H 0.16168 0.40235 0.35399 0.0
C768 C 1.0545 0.32161 0.37577 0.0
C769 C 1.05016 0.30442 0.40324 0.0
C770 C 1.07457 0.34287 0.37541 0.0
C771 C 1.09104 0.34896 0.40285 0.0
C772 C 1.08639 0.33197 0.43045 0.0
C773 C 1.06689 0.31022 0.43049 0.0
C774 C 0.13695 0.41123 0.43013 0.0
C775 C 0.15385 0.41676 0.4029 0.0
C776 C 0.11726 0.38964 0.43021 0.0
C777 C 0.1126 0.37256 0.40277 0.0
C778 C 0.12919 0.37846 0.37534 0.0
C779 C 0.14943 0.39953 0.37559 0.0
H780 H 0.18266 0.84082 0.16678 0.0
H781 H 0.12545 0.78047 0.1344 0.0
H782 H 0.14637 0.87588 0.16674 0.0
H783 H 1.08915 0.81517 0.13513 0.0
H784 H 1.022 0.87952 0.16832 0.0
H785 H 1.05833 0.84454 0.16755 0.0
H786 H 0.11508 0.90553 0.13504 0.0
H787 H 1.0787 0.94019 0.13505 0.0
C788 C 0.16245 0.83477 0.15952 0.0
C789 C 0.15787 0.8071 0.15029 0.0
C790 C 0.14125 0.85521 0.15944 0.0
C791 C 0.1139 0.84919 0.15098 0.0
C792 C 0.10935 0.82142 0.14213 0.0
C793 C 0.13063 0.80119 0.14148 0.0
C794 C 1.04211 0.88566 0.16072 0.0
C795 C 1.04653 0.9134 0.15146 0.0
C796 C 1.06333 0.86526 0.1602 0.0
C797 C 1.09057 0.87137 0.15124 0.0
C798 C 1.09497 0.89922 0.1424 0.0
C799 C 1.07365 0.91942 0.14218 0.0
H800 H 0.3184 0.24711 0.85188 0.0
H801 H 0.26579 0.21991 0.92887 0.0
H802 H 0.35706 0.2461 0.88932 0.0
H803 H 0.30448 0.21925 0.96662 0.0
H804 H 0.37677 0.24473 0.03575 0.0
H805 H 0.33759 0.24472 -0.00118 0.0
H806 H 0.38963 0.2192 0.92015 0.0
H807 H 0.42862 0.21884 0.95719 0.0
C808 C 0.31482 0.2409 0.87681 0.0
C809 C 0.28819 0.23359 0.88657 0.0
C810 C 0.33741 0.24016 0.89863 0.0
C811 C 0.3348 0.23255 0.93185 0.0
C812 C 0.30807 0.2255 0.94171 0.0
C813 C 0.28553 0.22575 0.91969 0.0
C814 C 0.38004 0.23885 0.01067 0.0
C815 C 0.4066 0.23155 0.00026 0.0
C816 C 0.3572 0.23879 -0.01087 0.0
C817 C 0.35955 0.232 0.95564 0.0
C818 C 0.3862 0.22486 0.94526 0.0
C819 C 0.40892 0.22444 0.96692 0.0
H820 H 0.70664 0.57323 0.10308 0.0
H821 H 0.74157 0.52052 0.17634 0.0
H822 H 0.70839 0.61209 0.14077 0.0
H823 H 0.74326 0.55932 0.21417 0.0
H824 H 0.72201 0.63011 0.28729 0.0
H825 H 0.7209 0.59111 0.24972 0.0
H826 H 0.73377 0.64618 0.16908 0.0
H827 H 0.73497 0.68509 0.20675 0.0
C828 C 0.71472 0.56967 0.12723 0.0
C829 C 0.7239 0.54295 0.13591 0.0
C830 C 0.71591 0.59238 0.14918 0.0
C831 C 0.72603 0.58978 0.18142 0.0
C832 C 0.735 0.56294 0.19014 0.0
C833 C 0.73415 0.54031 0.16803 0.0
C834 C 0.72485 0.63411 0.2616 0.0
C835 C 0.72884 0.66149 0.25083 0.0
C836 C 0.72427 0.61135 0.23966 0.0
C837 C 0.72719 0.61456 0.20546 0.0
C838 C 0.7311 0.64203 0.19475 0.0
C839 C 0.73206 0.66473 0.21674 0.0
H840 H 0.38356 0.96531 0.35139 0.0
H841 H 0.43536 0.99599 0.42709 0.0
H842 H 0.3447 0.96695 0.38863 0.0
H843 H 0.39656 0.99737 0.46454 0.0
H844 H 0.32562 0.97313 0.53527 0.0
H845 H 0.36443 0.97286 0.49799 0.0
H846 H 0.31114 0.99343 0.41841 0.0
H847 H 0.27232 0.99399 0.45595 0.0
C848 C 0.38692 0.97242 0.37599 0.0
C849 C 0.4134 0.98044 0.38549 0.0
C850 C 0.36422 0.97353 0.39767 0.0
C851 C 0.36657 0.98231 0.43047 0.0
C852 C 0.39315 0.99017 0.44001 0.0
C853 C 0.41577 0.98948 0.41815 0.0
C854 C 0.32195 0.97788 0.5099 0.0
C855 C 0.29509 0.98383 0.49943 0.0
C856 C 0.34461 0.97778 0.48814 0.0
C857 C 0.34184 0.98309 0.45431 0.0
C858 C 0.3149 0.98894 0.44382 0.0
C859 C 0.29228 0.98951 0.46572 0.0
H860 H 1.02121 0.65635 0.62719 0.0
H861 H 0.93687 0.67358 0.646 0.0
H862 H 1.01987 0.618 0.66615 0.0
H863 H 0.93527 0.63458 0.6841 0.0
H864 H 0.93731 0.5428 0.72682 0.0
H865 H 0.93784 0.58179 0.68846 0.0
H866 H 1.01525 0.60665 0.7264 0.0
H867 H 1.01423 0.56843 0.76539 0.0
C868 C 1.00222 0.65204 0.63937 0.0
C869 C 0.97919 0.66878 0.63275 0.0
C870 C 1.00146 0.6298 0.66213 0.0
C871 C 0.97742 0.62242 0.67896 0.0
C872 C 0.95427 0.63892 0.67196 0.0
C873 C 0.95523 0.66166 0.64989 0.0
C874 C 0.95441 0.55663 0.72733 0.0
C875 C 0.97557 0.55195 0.75011 0.0
C876 C 0.95472 0.57931 0.70509 0.0
C877 C 0.97663 0.59808 0.70358 0.0
C878 C 0.99794 0.59308 0.72606 0.0
C879 C 0.99725 0.57095 0.7489 0.0
H880 H 0.77426 0.99823 0.0183 0.0
H881 H 0.82697 0.9717 0.94088 0.0
H882 H 0.81291 0.99814 0.05598 0.0
H883 H 0.86576 0.9721 0.97835 0.0
H884 H 0.93677 0.99797 0.04881 0.0
H885 H 0.89829 0.99855 0.01076 0.0
H886 H 0.8455 0.9707 0.08734 0.0
H887 H 0.88403 0.96965 0.1251 0.0
C888 C 0.79407 0.99259 0.00895 0.0
C889 C 0.79674 0.98516 0.97574 0.0
C890 C 0.81658 0.99232 0.03096 0.0
C891 C 0.84334 0.98511 0.02106 0.0
C892 C 0.84604 0.97808 -0.01232 0.0
C893 C 0.82342 0.97779 0.96584 0.0
C894 C 0.91704 0.99187 0.05778 0.0
C895 C 0.91429 0.9837 0.09078 0.0
C896 C 0.89462 0.99209 0.03558 0.0
C897 C 0.8679 0.98471 0.04514 0.0
C898 C 0.86517 0.97685 0.07827 0.0
C899 C 0.88767 0.9761 0.10027 0.0
H900 H 0.49397 0.64193 0.87396 0.0
H901 H 0.46535 0.69606 0.7983 0.0
H902 H 0.49245 0.60314 0.83613 0.0
H903 H 0.46387 0.65735 0.76035 0.0
H904 H 0.48551 0.58567 0.68875 0.0
H905 H 0.48638 0.62458 0.72643 0.0
H906 H 0.46736 0.57014 0.80587 0.0
H907 H 0.46644 0.5313 0.76807 0.0
C908 C 0.48733 0.64582 0.84925 0.0
C909 C 0.47984 0.67292 0.83994 0.0
C910 C 0.48627 0.62316 0.82721 0.0
C911 C 0.47798 0.62617 0.79427 0.0
C912 C 0.47069 0.65338 0.78495 0.0
C913 C 0.47142 0.67597 0.80712 0.0
C914 C 0.48126 0.58179 0.71419 0.0
C915 C 0.47566 0.5546 0.72456 0.0
C916 C 0.48169 0.6045 0.73619 0.0
C917 C 0.47699 0.60144 0.77012 0.0
C918 C 0.47144 0.57416 0.78045 0.0
C919 C 0.47065 0.55152 0.75836 0.0
H920 H 0.76762 0.22222 0.54676 0.0
H921 H 0.82055 0.24916 0.62335 0.0
H922 H 0.80623 0.22123 0.50891 0.0
H923 H 0.85916 0.24781 0.58578 0.0
H924 H 0.93047 0.22058 0.51713 0.0
H925 H 0.89169 0.22083 0.55467 0.0
H926 H 0.83911 0.24664 0.47654 0.0
H927 H 0.87797 0.24676 0.43922 0.0
C928 C 0.78741 0.22794 0.55583 0.0
C929 C 0.79017 0.23583 0.58886 0.0
C930 C 0.80992 0.22748 0.53375 0.0
C931 C 0.83672 0.23437 0.54345 0.0
C932 C 0.83944 0.242 0.5766 0.0
C933 C 0.81688 0.24294 0.59848 0.0
C934 C 0.91068 0.22617 0.50765 0.0
C935 C 0.90809 0.23345 0.47435 0.0
C936 C 0.88809 0.22655 0.52958 0.0
C937 C 0.86137 0.23376 0.51949 0.0
C938 C 0.85877 0.24064 0.48603 0.0
C939 C 0.88145 0.24077 0.46427 0.0
H940 H 0.23197 0.52121 0.29727 0.0
H941 H 0.21388 0.57735 0.37511 0.0
H942 H 0.23332 0.55968 0.25876 0.0
H943 H 0.21511 0.61586 0.33673 0.0
H944 H 0.24045 0.68563 0.26566 0.0
H945 H 0.23951 0.64689 0.30368 0.0
H946 H 0.21158 0.59416 0.22681 0.0
H947 H 0.21262 0.63304 0.18881 0.0
C948 C 0.22818 0.5417 0.30645 0.0
C949 C 0.22277 0.5454 0.34007 0.0
C950 C 0.22882 0.56416 0.28397 0.0
C951 C 0.22441 0.59183 0.29371 0.0
C952 C 0.21905 0.59545 0.32741 0.0
C953 C 0.21813 0.57297 0.34981 0.0
C954 C 0.23424 0.6658 0.25653 0.0
C955 C 0.22684 0.66319 0.22335 0.0
C956 C 0.23343 0.64322 0.27879 0.0
C957 C 0.2254 0.61645 0.26927 0.0
C958 C 0.21824 0.61382 0.23592 0.0
C959 C 0.21877 0.63651 0.21374 0.0
H960 H 0.82022 0.74707 0.35053 0.0
H961 H 0.76758 0.71899 0.42704 0.0
H962 H 0.85888 0.74567 0.38807 0.0
H963 H 0.80616 0.71784 0.46478 0.0
H964 H 0.8772 0.74223 0.53512 0.0
H965 H 0.83856 0.74234 0.49761 0.0
H966 H 0.89191 0.71953 0.41904 0.0
H967 H 0.93054 0.71915 0.45679 0.0
C968 C 0.81663 0.74058 0.37536 0.0
C969 C 0.78998 0.7332 0.38499 0.0
C970 C 0.83921 0.73961 0.39724 0.0
C971 C 0.83657 0.73163 0.43036 0.0
C972 C 0.80982 0.72443 0.44001 0.0
C973 C 0.78731 0.72497 0.41797 0.0
C974 C 0.88091 0.73697 0.50993 0.0
C975 C 0.90775 0.73045 0.49981 0.0
C976 C 0.85835 0.73696 0.48803 0.0
C977 C 0.86118 0.73098 0.45439 0.0
C978 C 0.8881 0.72456 0.44426 0.0
C979 C 0.91061 0.7241 0.46631 0.0
H980 H 0.18777 0.14484 0.76609 0.0
H981 H 0.26463 0.17059 0.72729 0.0
H982 H 0.18669 1.10674 0.72711 0.0
H983 H 0.26409 0.13167 0.68905 0.0
H984 H 0.26474 1.03922 0.648 0.0
H985 H 0.26631 1.07811 0.68602 0.0
H986 H 0.1824 1.09633 0.66573 0.0
H987 H 0.18114 1.05814 0.62671 0.0
C988 C 0.20473 0.14235 0.74958 0.0
C989 C 0.2264 0.16136 0.75071 0.0
C990 C 0.20401 0.12029 0.72676 0.0
C991 C 0.2253 0.11535 0.70425 0.0
C992 C 0.24722 0.13412 0.7057 0.0
C993 C 0.24753 0.15675 0.72788 0.0
C994 C 0.24653 1.05149 0.65133 0.0
C995 C 0.2228 1.04489 0.63349 0.0
C996 C 0.24748 1.07416 0.67337 0.0
C997 C 0.22451 1.09108 0.67968 0.0
C998 C 0.20067 1.0842 0.66221 0.0
C999 C 0.19995 1.06204 0.63944 0.0
H1000 H 0.77501 0.49533 0.95938 0.0
H1001 H 0.82648 0.46711 0.03731 0.0
H1002 H 0.81394 0.49501 0.92229 0.0
H1003 H 0.86557 0.46691 0.00028 0.0
H1004 H 0.93809 0.48972 0.93072 0.0
H1005 H 0.89954 0.49065 0.9687 0.0
H1006 H 0.84562 0.46939 0.89041 0.0
H1007 H 0.88404 0.46833 0.85275 0.0
C1008 C 0.79462 0.48919 0.96895 0.0
C1009 C 0.79684 0.48144 0.00214 0.0
C1010 C 0.81731 0.48877 0.94725 0.0
C1011 C 0.84383 0.48088 0.95739 0.0
C1012 C 0.84609 0.47345 -0.00925 0.0
C1013 C 0.82329 0.47349 0.01234 0.0
C1014 C 0.91808 0.48518 0.92139 0.0
C1015 C 0.91497 0.47891 0.88791 0.0
C1016 C 0.8956 0.48558 0.94354 0.0
C1017 C 0.86853 0.48019 0.93349 0.0
C1018 C 0.86552 0.47408 0.89993 0.0
C1019 C 0.888 0.47328 0.87796 0.0
H1020 H 0.46563 1.02915 0.20818 0.0
H1021 H 0.48563 1.08315 0.28715 0.0
H1022 H 0.46674 1.06801 0.17025 0.0
H1023 H 0.48684 0.12209 0.24933 0.0
H1024 H 0.46724 0.19412 0.17746 0.0
H1025 H 0.46546 0.15543 0.21565 0.0
H1026 H 0.49121 1.10058 0.13936 0.0
H1027 H 0.49288 0.1393 0.1013 0.0
C1028 C 0.47012 1.04929 0.21778 0.0
C1029 C 0.4753 1.05227 0.25152 0.0
C1030 C 0.47103 1.07196 0.19561 0.0
C1031 C 0.47694 1.09916 0.20578 0.0
C1032 C 0.48185 1.1021 0.23966 0.0
C1033 C 0.48123 1.07937 0.26176 0.0
C1034 C 0.47262 0.17388 0.16859 0.0
C1035 C 0.48028 0.17063 0.13555 0.0
C1036 C 0.47172 0.15129 0.1909 0.0
C1037 C 0.47812 0.12391 0.18151 0.0
C1038 C 0.48569 0.12072 0.14837 0.0
C1039 C 0.48686 0.14335 0.12617 0.0
H1040 H 0.27626 0.4982 0.51693 0.0
H1041 H 0.32784 0.47024 0.43911 0.0
H1042 H 0.31511 0.49796 0.55402 0.0
H1043 H 0.36693 0.47019 0.47619 0.0
H1044 H 0.43914 0.49391 0.54581 0.0
H1045 H 0.40066 0.49453 0.50779 0.0
H1046 H 0.34691 0.47216 0.58599 0.0
H1047 H 0.38533 0.47135 0.62372 0.0
C1048 C 0.29588 0.49213 0.50737 0.0
C1049 C 0.29814 0.48442 0.47421 0.0
C1050 C 0.31854 0.49176 0.52909 0.0
C1051 C 0.34509 0.48401 0.519 0.0
C1052 C 0.34741 0.47661 0.48567 0.0
C1053 C 0.32461 0.47656 0.46405 0.0
C1054 C 0.41918 0.48907 0.55513 0.0
C1055 C 0.41613 0.48257 0.5886 0.0
C1056 C 0.39675 0.48929 0.53295 0.0
C1057 C 0.36975 0.48348 0.54295 0.0
C1058 C 0.36677 0.47715 0.57651 0.0
C1059 C 0.38923 0.47652 0.59852 0.0
H1060 H 1.02241 0.16146 0.34581 0.0
H1061 H 0.93715 0.17633 0.3305 0.0
H1062 H 1.02103 0.1232 0.30692 0.0
H1063 H 0.93555 0.13738 0.29255 0.0
H1064 H 0.9394 1.04529 0.25057 0.0
H1065 H 0.93983 1.08427 0.2887 0.0
H1066 H 1.01463 0.11228 0.24642 0.0
H1067 H 1.01363 1.07408 0.20763 0.0
C1068 C 1.00322 0.15664 0.33443 0.0
C1069 C 0.97993 0.17268 0.34201 0.0
C1070 C 1.00243 0.13445 0.31173 0.0
C1071 C 0.97813 0.12643 0.29593 0.0
C1072 C 0.95475 0.14223 0.30389 0.0
C1073 C 0.95571 0.16493 0.32587 0.0
C1074 C 0.95588 1.05981 0.24903 0.0
C1075 C 0.97631 1.05599 0.22511 0.0
C1076 C 0.95613 1.08249 0.27115 0.0
C1077 C 0.97732 1.10213 0.2714 0.0
C1078 C 0.9979 1.09802 0.24775 0.0
C1079 C 0.99721 1.07589 0.22503 0.0
H1080 H 0.26403 0.73318 0.04378 0.0
H1081 H 0.319 0.74344 0.12406 0.0
H1082 H 0.30263 0.73215 0.006 0.0
H1083 H 0.35753 0.74244 0.08653 0.0
H1084 H 0.42683 0.71777 0.01525 0.0
H1085 H 0.38786 0.71829 0.0522 0.0
H1086 H 0.33834 0.75419 0.97669 0.0
H1087 H 0.37747 0.75364 0.93977 0.0
C1088 C 0.28427 0.73528 0.05367 0.0
C1089 C 0.28759 0.73843 0.08775 0.0
C1090 C 0.30682 0.73482 0.03163 0.0
C1091 C 0.33419 0.73712 0.04228 0.0
C1092 C 0.33739 0.74018 0.07643 0.0
C1093 C 0.31486 0.74095 0.09837 0.0
C1094 C 0.40768 0.72569 0.00618 0.0
C1095 C 0.40608 0.73547 0.97368 0.0
C1096 C 0.38495 0.72623 0.02784 0.0
C1097 C 0.35896 0.73635 0.01839 0.0
C1098 C 0.35733 0.74587 0.98571 0.0
C1099 C 0.38018 0.74563 0.96415 0.0
H1100 H 0.76679 0.17215 0.7476 0.0
H1101 H 0.68897 0.14788 0.71045 0.0
H1102 H 0.76621 0.133 0.78576 0.0
H1103 H 0.68786 0.10956 0.74937 0.0
H1104 H 0.68319 1.06017 0.84966 0.0
H1105 H 0.68439 1.09873 0.81088 0.0
H1106 H 0.76766 1.0794 0.7884 0.0
H1107 H 0.76611 1.04017 0.82618 0.0
C1108 C 0.74947 0.1586 0.74737 0.0
C1109 C 0.72809 0.16368 0.72501 0.0
C1110 C 0.74912 0.13583 0.76951 0.0
C1111 C 0.72694 0.1174 0.77138 0.0
C1112 C 0.70539 0.12284 0.74938 0.0
C1113 C 0.70613 0.14502 0.72659 0.0
C1114 C 0.70184 1.0639 0.83648 0.0
C1115 C 0.7245 1.04629 0.84167 0.0
C1116 C 0.70252 1.08627 0.81385 0.0
C1117 C 0.72617 1.09294 0.79583 0.0
C1118 C 0.74897 1.0756 0.80147 0.0
C1119 C 0.74803 1.05272 0.82333 0.0
H1120 H 0.56828 0.25153 0.87272 0.0
H1121 H 0.59879 0.16802 0.87396 0.0
H1122 H 0.59237 0.25984 0.8218 0.0
H1123 H 0.62217 0.17624 0.82266 0.0
H1124 H 0.64233 0.19431 0.71646 0.0
H1125 H 0.61255 0.18724 0.76333 0.0
H1126 H 0.64191 0.26219 0.80634 0.0
H1127 H 0.67159 0.26931 0.7597 0.0
C1128 C 0.58014 0.23496 0.86223 0.0
C1129 C 0.58171 0.20914 0.8776 0.0
C1130 C 0.59377 0.2397 0.83297 0.0
C1131 C 0.60905 0.21866 0.81829 0.0
C1132 C 0.61019 0.1927 0.8332 0.0
C1133 C 0.59677 0.18802 0.86261 0.0
C1134 C 0.64208 0.20948 0.73568 0.0
C1135 C 0.65936 0.23229 0.7345 0.0
C1136 C 0.6252 0.20533 0.76257 0.0
C1137 C 0.62504 0.22411 0.78848 0.0
C1138 C 0.64148 0.24749 0.78661 0.0
C1139 C 0.65857 0.25147 0.75998 0.0
H1140 H 0.7897 0.84926 0.12313 0.0
H1141 H 0.70892 0.81533 0.11788 0.0
H1142 H 0.78224 0.87276 0.07154 0.0
H1143 H 0.70129 0.83972 0.06668 0.0
H1144 H 0.69097 0.92316 0.00892 0.0
H1145 H 0.69757 0.89113 0.05396 0.0
H1146 H 0.77296 0.86334 0.01121 0.0
H1147 H 0.7664 0.89536 0.96593 0.0
C1148 C 0.77053 0.8464 0.11076 0.0
C1149 C 0.74985 0.83052 0.1248 0.0
C1150 C 0.76628 0.85991 0.08122 0.0
C1151 C 0.74119 0.85804 0.06526 0.0
C1152 C 0.72073 0.84164 0.07873 0.0
C1153 C 0.72508 0.82786 0.10811 0.0
C1154 C 0.7088 0.90999 0.00892 0.0
C1155 C 0.7283 0.91191 0.9841 0.0
C1156 C 0.71245 0.89154 0.03456 0.0
C1157 C 0.73582 0.8749 0.03603 0.0
C1158 C 0.75487 0.87611 0.01066 0.0
C1159 C 0.75104 0.89433 0.98475 0.0
H1160 H 1.02889 0.95706 0.26516 0.0
H1161 H 1.07351 1.01553 0.20704 0.0
H1162 H 1.06092 0.96278 0.30931 0.0
H1163 H 0.10612 1.02084 0.2514 0.0
H1164 H 0.13114 1.04974 0.35565 0.0
H1165 H 0.10563 1.04132 0.30587 0.0
H1166 H 0.10727 0.9542 0.32611 0.0
H1167 H 0.13169 0.9627 0.37651 0.0
C1168 C 1.04574 0.97092 0.2616 0.0
C1169 C 1.04851 0.98599 0.23258 0.0
C1170 C 1.06428 0.97402 0.28691 0.0
C1171 C 1.0861 0.99227 0.2839 0.0
C1172 C 1.08936 1.00681 0.25456 0.0
C1173 C 1.07078 1.00364 0.22909 0.0
C1174 C 0.12609 1.02879 0.34943 0.0
C1175 C 0.13321 1.00693 0.37026 0.0
C1176 C 0.11177 1.02393 0.32069 0.0
C1177 C 0.10425 0.9971 0.31214 0.0
C1178 C 0.11243 0.97515 0.33223 0.0
C1179 C 0.12671 0.98 0.36096 0.0
H1180 H 0.93639 0.31924 0.47099 0.0
H1181 H 1.01793 0.29895 0.50173 0.0
H1182 H 0.93034 0.34753 0.51948 0.0
H1183 H 1.01237 0.32792 0.54944 0.0
H1184 H 0.97912 0.34497 0.65089 0.0
H1185 H 0.98764 0.32297 0.59881 0.0
H1186 H 0.94274 0.38764 0.54999 0.0
H1187 H 0.93371 0.40932 0.60249 0.0
C1188 C 0.95324 0.32148 0.48767 0.0
C1189 C 0.97748 0.30673 0.48293 0.0
C1190 C 0.94982 0.33768 0.51543 0.0
C1191 C 0.97073 0.33959 0.53864 0.0
C1192 C 0.99561 0.32628 0.53253 0.0
C1193 C 0.99887 0.30985 0.50511 0.0
C1194 C 0.97128 0.35458 0.62899 0.0
C1195 C 0.95575 0.3788 0.63068 0.0
C1196 C 0.97626 0.34208 0.5991 0.0
C1197 C 0.96604 0.35366 0.57015 0.0
C1198 C 0.95065 0.37804 0.57184 0.0
C1199 C 0.94549 0.39045 0.60185 0.0
H1200 H 0.6531 1.02547 0.12898 0.0
H1201 H 0.59135 0.98102 0.07696 0.0
H1202 H 0.62922 1.01696 0.18014 0.0
H1203 H 0.56712 0.97313 0.12761 0.0
H1204 H 0.53922 0.94266 0.22365 0.0
H1205 H 0.56896 0.94811 0.1769 0.0
H1206 H 0.589 1.03 0.20902 0.0
H1207 H 0.55996 1.02399 0.25663 0.0
C1208 C 0.63434 1.01401 0.12852 0.0
C1209 C 0.6241 1.0038 0.09907 0.0
C1210 C 0.62064 1.00917 0.15777 0.0
C1211 C 0.59631 0.99422 0.15808 0.0
C1212 C 0.58613 0.98414 0.12848 0.0
C1213 C 0.59993 0.98875 0.09938 0.0
C1214 C 0.55029 0.96168 0.22094 0.0
C1215 C 0.54717 0.98299 0.24362 0.0
C1216 C 0.56718 0.96491 0.19401 0.0
C1217 C 0.58102 0.98969 0.18882 0.0
C1218 C 0.57882 1.01056 0.21234 0.0
C1219 C 0.56215 1.00717 0.23961 0.0
H1220 H 0.48167 0.34823 0.82442 0.0
H1221 H 0.43053 0.40745 0.87345 0.0
H1222 H 0.48889 0.32401 0.87549 0.0
H1223 H 0.43828 0.38359 0.92507 0.0
H1224 H 0.43275 0.31221 0.00017 0.0
H1225 H 0.42696 0.34159 0.95242 0.0
H1226 H 0.51103 0.32765 0.92651 0.0
H1227 H 0.51639 0.29753 0.97339 0.0
C1228 C 0.4723 0.35627 0.8463 0.0
C1229 C 0.45559 0.37969 0.84505 0.0
C1230 C 0.47652 0.34249 0.87563 0.0
C1231 C 0.46434 0.35198 0.90448 0.0
C1232 C 0.44772 0.37557 0.90325 0.0
C1233 C 0.44331 0.38924 0.87376 0.0
C1234 C 0.45004 0.3158 0.98446 0.0
C1235 C 0.4749 0.30238 -0.00985 0.0
C1236 C 0.44677 0.33267 0.95716 0.0
C1237 C 0.46843 0.33665 0.93536 0.0
C1238 C 0.49373 0.32444 0.94229 0.0
C1239 C 0.49687 0.30731 0.96925 0.0
H1240 H 0.13995 0.19179 0.76044 0.0
H1241 H 0.16819 0.26722 0.71675 0.0
H1242 H 0.1089 0.18528 0.71471 0.0
H1243 H 0.13714 0.2607 0.67128 0.0
H1244 H 1.06176 0.25108 0.60802 0.0
H1245 H 1.08647 0.25834 0.65867 0.0
H1246 H 0.11753 0.1753 0.65437 0.0
H1247 H 1.09367 0.16819 0.60323 0.0
C1248 C 0.13922 0.20717 0.74136 0.0
C1249 C 0.15656 0.22996 0.74206 0.0
C1250 C 0.12159 0.20335 0.71515 0.0
C1251 C 0.1207 0.22246 0.68951 0.0
C1252 C 0.13727 0.24577 0.69088 0.0
C1253 C 0.15514 0.2494 0.7168 0.0
C1254 C 1.07395 0.23438 0.61774 0.0
C1255 C 1.0759 0.20912 0.60131 0.0
C1256 C 1.08794 0.23852 0.64683 0.0
C1257 C 0.10389 0.21739 0.66035 0.0
C1258 C 0.10509 0.19183 0.64466 0.0
C1259 C 1.09136 0.18777 0.61538 0.0
H1260 H 0.26732 0.89602 0.50728 0.0
H1261 H 0.19018 0.92237 0.46743 0.0
H1262 H 0.27429 0.86601 0.4603 0.0
H1263 H 0.19722 0.89252 0.42071 0.0
H1264 H 0.20984 0.81961 0.35315 0.0
H1265 H 0.20213 0.84244 0.40516 0.0
H1266 H 0.28241 0.87719 0.4005 0.0
H1267 H 0.28997 0.85506 0.34816 0.0
C1268 C 0.25167 0.89503 0.48882 0.0
C1269 C 0.22829 0.91161 0.49089 0.0
C1270 C 0.25575 0.87803 0.4619 0.0
C1271 C 0.23633 0.87709 0.43691 0.0
C1272 C 0.2124 0.8927 0.43977 0.0
C1273 C 0.20847 0.9099 0.46642 0.0
C1274 C 0.22579 0.83225 0.3631 0.0
C1275 C 0.25045 0.83568 0.34635 0.0
C1276 C 0.22143 0.84513 0.39295 0.0
C1277 C 0.24171 0.86147 0.4068 0.0
C1278 C 0.2666 0.86433 0.39057 0.0
C1279 C 0.27089 0.85167 0.36058 0.0
H1280 H 1.05954 0.74699 0.36406 0.0
H1281 H 1.09843 0.66757 0.37496 0.0
H1282 H 1.08453 0.7544 0.31357 0.0
H1283 H 0.12271 0.67478 0.32406 0.0
H1284 H 0.14516 0.68834 0.21731 0.0
H1285 H 0.11472 0.68086 0.26346 0.0
H1286 H 0.13422 0.76121 0.3006 0.0
H1287 H 0.16457 0.76875 0.25463 0.0
C1288 C 1.07336 0.7311 0.35573 0.0
C1289 C 1.07708 0.70675 0.37377 0.0
C1290 C 1.08755 0.73532 0.32674 0.0
C1291 C 0.10554 0.71517 0.31495 0.0
C1292 C 0.10868 0.69051 0.33237 0.0
C1293 C 1.09471 0.68638 0.36152 0.0
C1294 C 0.14264 0.70455 0.23509 0.0
C1295 C 0.15729 0.72911 0.23241 0.0
C1296 C 0.12537 0.70018 0.26157 0.0
C1297 C 0.12217 0.72043 0.28559 0.0
C1298 C 0.13611 0.74534 0.28229 0.0
C1299 C 0.15361 0.74958 0.25608 0.0
H1300 H 0.29075 0.35518 0.62851 0.0
H1301 H 0.21287 0.31582 0.61778 0.0
H1302 H 0.2839 0.37881 0.57684 0.0
H1303 H 0.20583 0.34013 0.56644 0.0
H1304 H 0.19165 0.42095 0.50621 0.0
H1305 H 0.19869 0.39022 0.55238 0.0
H1306 H 0.27866 0.36967 0.51643 0.0
H1307 H 0.27169 0.40055 0.47009 0.0
C1308 C 0.27235 0.35123 0.61494 0.0
C1309 C 0.2523 0.33369 0.6274 0.0
C1310 C 0.26845 0.36479 0.58534 0.0
C1311 C 0.24434 0.36128 0.56771 0.0
C1312 C 0.2245 0.34338 0.57976 0.0
C1313 C 0.22849 0.32961 0.60922 0.0
C1314 C 0.21063 0.40966 0.50796 0.0
C1315 C 0.23119 0.41324 0.48468 0.0
C1316 C 0.21457 0.39193 0.53426 0.0
C1317 C 0.23925 0.37768 0.53798 0.0
C1318 C 0.25952 0.38061 0.5142 0.0
C1319 C 0.25546 0.39812 0.48762 0.0
H1320 H 0.52763 0.4547 0.76579 0.0
H1321 H 0.57214 0.51464 0.70964 0.0
H1322 H 0.55889 0.4604 0.81069 0.0
H1323 H 0.60399 0.51989 0.75474 0.0
H1324 H 0.62792 0.54774 0.85935 0.0
H1325 H 0.60266 0.53963 0.80935 0.0
H1326 H 0.60492 0.45231 0.82835 0.0
H1327 H 0.629 0.46049 0.87904 0.0
C1328 C 0.5443 0.46887 0.76282 0.0
C1329 C 0.54723 0.48439 0.73416 0.0
C1330 C 0.56239 0.47197 0.78856 0.0
C1331 C 0.58394 0.49061 0.78633 0.0
C1332 C 0.5874 0.50559 0.75732 0.0
C1333 C 0.56924 0.50247 0.73144 0.0
C1334 C 0.62298 0.52682 0.85287 0.0
C1335 C 0.63023 0.5048 0.87339 0.0
C1336 C 0.60883 0.52214 0.82398 0.0
C1337 C 0.60164 0.49533 0.81496 0.0
C1338 C 0.60983 0.47324 0.83484 0.0
C1339 C 0.6239 0.47792 0.86374 0.0
H1340 H 0.43614 0.82217 0.96531 0.0
H1341 H 0.51247 0.79593 0.00745 0.0
H1342 H 0.42919 0.85386 0.01068 0.0
H1343 H 0.50549 0.82761 0.05257 0.0
H1344 H 0.49307 0.90246 0.11691 0.0
H1345 H 0.50069 0.87889 0.06532 0.0
H1346 H 0.42063 0.8438 0.07117 0.0
H1347 H 0.4132 0.86649 0.12315 0.0
C1348 C 0.45161 0.8235 0.98395 0.0
C1349 C 0.47473 0.80645 0.98307 0.0
C1350 C 0.44757 0.84151 0.00991 0.0
C1351 C 0.46677 0.84305 0.03506 0.0
C1352 C 0.49049 0.82695 0.03333 0.0
C1353 C 0.49436 0.8087 0.00766 0.0
C1354 C 0.4771 0.88966 0.10726 0.0
C1355 C 0.45262 0.88615 0.12435 0.0
C1356 C 0.48143 0.87636 0.07766 0.0
C1357 C 0.46124 0.85959 0.06439 0.0
C1358 C 0.43638 0.85694 0.08071 0.0
C1359 C 0.43214 0.86998 0.11047 0.0
H1360 H 0.14864 0.52684 0.62531 0.0
H1361 H 1.08612 0.4842 0.57244 0.0
H1362 H 0.12439 0.51855 0.67619 0.0
H1363 H 1.06157 0.4764 0.62298 0.0
H1364 H 1.03531 0.44415 0.71972 0.0
H1365 H 1.06391 0.45046 0.67211 0.0
H1366 H 1.08396 0.53214 0.70493 0.0
H1367 H 1.05596 0.52539 0.75326 0.0
C1368 C 0.12959 0.51588 0.62459 0.0
C1369 C 0.11926 0.5061 0.59498 0.0
C1370 C 0.1157 0.51115 0.65369 0.0
C1371 C 1.0911 0.4967 0.65372 0.0
C1372 C 1.08076 0.48707 0.62398 0.0
C1373 C 1.09475 0.49162 0.59498 0.0
C1374 C 1.04606 0.46335 0.71694 0.0
C1375 C 1.04332 0.48434 0.74009 0.0
C1376 C 1.06231 0.46705 0.68953 0.0
C1377 C 1.07591 0.49196 0.68442 0.0
C1378 C 1.07394 0.51261 0.70823 0.0
C1379 C 1.05788 0.50878 0.7359 0.0
H1380 H 0.93516 0.91079 0.37637 0.0
H1381 H 0.98324 0.84962 0.32631 0.0
H1382 H 0.94312 0.8869 0.42792 0.0
H1383 H 0.99061 0.82534 0.37731 0.0
H1384 H 1.018 0.79711 0.47442 0.0
H1385 H 1.01347 0.82776 0.42788 0.0
H1386 H 0.93047 0.84554 0.45547 0.0
H1387 H 0.93548 0.81564 0.50287 0.0
C1388 C 0.94734 0.89217 0.37646 0.0
C1389 C 0.95866 0.88204 0.34747 0.0
C1390 C 0.95187 0.87848 0.4059 0.0
C1391 C 0.9676 0.85427 0.40681 0.0
C1392 C 0.97893 0.84427 0.37769 0.0
C1393 C 0.97462 0.85808 0.3484 0.0
C1394 C 0.99891 0.80789 0.47075 0.0
C1395 C 0.977 0.80389 0.49201 0.0
C1396 C 0.99625 0.82531 0.44398 0.0
C1397 C 0.97146 0.83874 0.43759 0.0
C1398 C 0.94992 0.8357 0.45979 0.0
C1399 C 0.95274 0.81853 0.4869 0.0
H1400 H 0.56402 0.75219 0.10612 0.0
H1401 H 0.59462 0.66875 0.10336 0.0
H1402 H 0.58798 0.7596 0.15726 0.0
H1403 H 0.6179 0.67607 0.15484 0.0
H1404 H 0.63956 0.69222 0.26064 0.0
H1405 H 0.60903 0.68599 0.21434 0.0
H1406 H 0.63738 0.76195 0.17235 0.0
H1407 H 0.66774 0.76826 0.21842 0.0
C1408 C 0.57583 0.73543 0.11635 0.0
C1409 C 0.57752 0.70992 0.10045 0.0
C1410 C 0.5894 0.73966 0.14573 0.0
C1411 C 0.60473 0.7184 0.16002 0.0
C1412 C 0.60587 0.6927 0.14463 0.0
C1413 C 0.59251 0.68853 0.11512 0.0
C1414 C 0.63891 0.70781 0.24179 0.0
C1415 C 0.65614 0.73064 0.24306 0.0
C1416 C 0.6216 0.70413 0.21522 0.0
C1417 C 0.62096 0.72342 0.18972 0.0
C1418 C 0.63729 0.74686 0.19177 0.0
C1419 C 0.65479 0.75037 0.21807 0.0
H1420 H 0.69243 0.42233 0.96607 0.0
H1421 H 0.76616 0.39229 0.01125 0.0
H1422 H 0.6997 0.3912 0.92053 0.0
H1423 H 0.77345 0.36115 0.96536 0.0
H1424 H 0.79241 0.34927 0.85323 0.0
H1425 H 0.78433 0.37167 0.90529 0.0
H1426 H 0.70277 0.33994 0.90702 0.0
H1427 H 0.711 0.31665 0.8554 0.0
C1428 C 0.71002 0.40884 0.96644 0.0
C1429 C 0.72884 0.40985 -0.00794 0.0
C1430 C 0.71406 0.39091 0.94049 0.0
C1431 C 0.73716 0.37389 0.93947 0.0
C1432 C 0.75555 0.37421 0.96557 0.0
C1433 C 0.7513 0.3919 -0.00817 0.0
C1434 C 0.77296 0.34648 0.865 0.0
C1435 C 0.75228 0.33132 0.84996 0.0
C1436 C 0.76836 0.35934 0.89482 0.0
C1437 C 0.74293 0.35753 0.91003 0.0
C1438 C 0.72248 0.34181 0.89556 0.0
C1439 C 0.72716 0.32868 0.86592 0.0
H1440 H 0.3801 0.40858 0.12789 0.0
H1441 H 0.32882 0.34869 0.08179 0.0
H1442 H 0.34078 0.43595 0.1415 0.0
H1443 H 0.28911 0.37704 0.09356 0.0
H1444 H 0.2489 0.38462 0.19697 0.0
H1445 H 0.2705 0.37646 0.14523 0.0
H1446 H 0.30015 0.4599 0.14446 0.0
H1447 H 0.27992 0.46728 0.19772 0.0
C1448 C 0.3604 0.40187 0.11946 0.0
C1449 C 0.35733 0.3759 0.10534 0.0
C1450 C 0.33765 0.41782 0.12685 0.0
C1451 C 0.31139 0.40805 0.1201 0.0
C1452 C 0.30892 0.38458 0.10039 0.0
C1453 C 0.33174 0.3684 0.0934 0.0
C1454 C 0.25941 0.40146 0.1853 0.0
C1455 C 0.26403 0.42601 0.20214 0.0
C1456 C 0.27158 0.39697 0.15518 0.0
C1457 C 0.28847 0.41709 0.14131 0.0
C1458 C 0.28837 0.44351 0.15519 0.0
C1459 C 0.27654 0.44785 0.18568 0.0
H1460 H 0.73551 0.64194 0.51793 0.0
H1461 H 0.70583 0.57892 0.45381 0.0
H1462 H 0.72996 0.61108 0.5643 0.0
H1463 H 0.69909 0.54876 0.4995 0.0
H1464 H 0.64566 0.58985 0.61134 0.0
H1465 H 0.68698 0.60499 0.58576 0.0
H1466 H 0.70024 0.52331 0.54728 0.0
H1467 H 0.65762 0.5087 0.57171 0.0
C1468 C 0.72867 0.62116 0.51368 0.0
C1469 C 0.72012 0.6131 0.48258 0.0
C1470 C 0.72542 0.60347 0.5402 0.0
C1471 C 0.71269 0.57792 0.53604 0.0
C1472 C 0.70859 0.56834 0.5041 0.0
C1473 C 0.71231 0.5858 0.4776 0.0
C1474 C 0.65787 0.57492 0.59825 0.0
C1475 C 0.64787 0.54857 0.59212 0.0
C1476 C 0.68194 0.58347 0.5838 0.0
C1477 C 0.69643 0.56571 0.56294 0.0
C1478 C 0.68897 0.53784 0.56204 0.0
C1479 C 0.66462 0.52938 0.57624 0.0
H1480 H 0.36326 0.97095 0.72646 0.0
H1481 H 0.28675 0.97079 0.77752 0.0
H1482 H 0.38713 0.9648 0.77721 0.0
H1483 H 0.3107 0.96596 0.82914 0.0
H1484 H 0.42822 0.92644 0.85105 0.0
H1485 H 0.4034 0.96641 0.83043 0.0
H1486 H 0.32797 0.92291 0.84416 0.0
H1487 H 0.35262 0.88403 0.86577 0.0
C1488 C 0.35164 0.97079 0.74885 0.0
C1489 C 0.32322 0.97008 0.74803 0.0
C1490 C 0.36534 0.96761 0.77825 0.0
C1491 C 0.35078 0.96363 0.80738 0.0
C1492 C 0.32248 0.96793 0.80702 0.0
C1493 C 0.30873 0.97089 0.77745 0.0
C1494 C 0.40623 0.9261 0.85097 0.0
C1495 C 0.39232 0.9019 0.85881 0.0
C1496 C 0.39199 0.94893 0.83911 0.0
C1497 C 0.36379 0.94744 0.83399 0.0
C1498 C 0.34968 0.92493 0.8472 0.0
C1499 C 0.36388 0.90235 0.85955 0.0
H1500 H 0.13602 0.709 0.94162 0.0
H1501 H 0.21522 0.67084 0.94751 0.0
H1502 H 0.12769 0.68586 0.89087 0.0
H1503 H 0.20782 0.64905 0.89514 0.0
H1504 H 0.15244 0.57191 0.88117 0.0
H1505 H 0.18162 0.60996 0.89361 0.0
H1506 H 0.12795 0.66479 0.84058 0.0
H1507 H 1.09776 0.62647 0.82994 0.0
C1508 C 0.15215 0.69654 0.93126 0.0
C1509 C 0.17557 0.69045 0.94937 0.0
C1510 C 0.14758 0.68345 0.9017 0.0
C1511 C 0.16653 0.66419 0.88965 0.0
C1512 C 0.19224 0.66268 0.90454 0.0
C1513 C 0.19661 0.67541 0.93451 0.0
C1514 C 0.14728 0.59197 0.8714 0.0
C1515 C 0.12223 0.59652 0.85608 0.0
C1516 C 0.16428 0.61396 0.87812 0.0
C1517 C 0.15651 0.64093 0.86951 0.0
C1518 C 0.13397 0.64449 0.84882 0.0
C1519 C 0.11672 0.62246 0.84247 0.0
H1520 H 0.7569 0.79454 0.82272 0.0
H1521 H 0.83252 0.82278 0.86298 0.0
H1522 H 0.77996 0.75391 0.80123 0.0
H1523 H 0.85581 0.7836 0.8404 0.0
H1524 H 0.8368 0.74827 0.71025 0.0
H1525 H 0.80558 0.75542 0.7545 0.0
H1526 H 0.87047 0.74097 0.82359 0.0
H1527 H 0.90219 0.73523 0.77844 0.0
C1528 C 0.7783 0.79157 0.82779 0.0
C1529 C 0.79315 0.81208 0.84358 0.0
C1530 C 0.79158 0.7684 0.81538 0.0
C1531 C 0.82004 0.76598 0.81761 0.0
C1532 C 0.83398 0.78455 0.83774 0.0
C1533 C 0.82061 0.80733 0.85069 0.0
C1534 C 0.8442 0.74549 0.73487 0.0
C1535 C 0.87201 0.74217 0.741 0.0
C1536 C 0.82616 0.74946 0.76056 0.0
C1537 C 0.83564 0.75001 0.7929 0.0
C1538 C 0.86267 0.7419 0.79898 0.0
C1539 C 0.88085 0.73847 0.77318 0.0
H1540 H 0.83454 0.31938 0.1127 0.0
H1541 H 0.75708 0.28941 0.14575 0.0
H1542 H 0.85698 0.28037 0.13708 0.0
H1543 H 0.77945 0.24911 0.16925 0.0
H1544 H 0.9 0.23601 0.20555 0.0
H1545 H 0.87124 0.23798 0.15732 0.0
H1546 H 0.80156 0.25409 0.21873 0.0
H1547 H 0.82999 0.25064 0.26631 0.0
C1548 C 0.82213 0.30357 0.12366 0.0
C1549 C 0.79426 0.30789 0.12854 0.0
C1550 C 0.83503 0.28089 0.13766 0.0
C1551 C 0.82018 0.26213 0.15669 0.0
C1552 C 0.79164 0.26382 0.15603 0.0
C1553 C 0.77877 0.28683 0.14251 0.0
C1554 C 0.8783 0.23862 0.20867 0.0
C1555 C 0.86727 0.24436 0.23944 0.0
C1556 C 0.86181 0.23994 0.18101 0.0
C1557 C 0.83428 0.24757 0.18384 0.0
C1558 C 0.82267 0.2486 0.21516 0.0
C1559 C 0.83906 0.247 0.24268 0.0
H1560 H 1.04401 0.2 0.8951 0.0
H1561 H 1.06395 0.11839 0.8617 0.0
H1562 H 1.00119 0.18324 0.9169 0.0
H1563 H 1.02237 1.10125 0.88472 0.0
H1564 H 0.994 0.13099 0.01293 0.0
H1565 H 1.00113 0.15985 0.96616 0.0
H1566 H 0.97869 1.09289 0.90283 0.0
H1567 H 0.97278 1.06344 0.95042 0.0
C1568 C 1.03876 0.17868 0.89132 0.0
C1569 C 1.05771 0.16015 0.87805 0.0
C1570 C 1.01428 0.16899 0.90402 0.0
C1571 C 1.00885 0.14063 0.90423 0.0
C1572 C 1.02577 0.12316 0.88576 0.0
C1573 C 1.04998 0.13288 0.87281 0.0
C1574 C 0.9894 0.12274 -0.01088 0.0
C1575 C 0.98395 1.09473 0.98514 0.0
C1576 C 0.99336 0.13943 0.96198 0.0
C1577 C 0.99185 0.12833 0.93041 0.0
C1578 C 0.98124 1.10174 0.92676 0.0
C1579 C 0.97778 1.08486 0.95397 0.0
H1580 H 0.54577 0.19872 0.57988 0.0
H1581 H 0.56822 0.11775 0.61375 0.0
H1582 H 0.50348 0.18061 0.55824 0.0
H1583 H 0.52715 1.09931 0.5909 0.0
H1584 H 0.49585 0.12764 0.46301 0.0
H1585 H 0.50377 0.15682 0.50918 0.0
H1586 H 0.48316 1.09001 0.57408 0.0
H1587 H 0.4764 1.06029 0.52709 0.0
C1588 C 0.54118 0.17723 0.58379 0.0
C1589 C 0.56067 0.15933 0.59722 0.0
C1590 C 0.51702 0.16678 0.57118 0.0
C1591 C 0.51239 0.13827 0.57129 0.0
C1592 C 0.5299 0.12132 0.58972 0.0
C1593 C 0.55381 0.1318 0.60256 0.0
C1594 C 0.49182 0.11949 0.48707 0.0
C1595 C 0.48657 1.09148 0.49159 0.0
C1596 C 0.49623 0.13636 0.51385 0.0
C1597 C 0.49537 0.12544 0.54562 0.0
C1598 C 0.48515 1.09875 0.54995 0.0
C1599 C 0.4812 1.08172 0.52309 0.0
loop_
_geom_bond_atom_site_label_1
_geom_bond_atom_site_label_2
_geom_bond_distance
_geom_bond_site_symmetry_2
_ccdc_geom_bond_type
Eu0 C9 2.828 . S
Eu0 O11 2.392 1_556 S
Eu0 O13 2.418 1_556 S
Eu0 O18 2.373 1_556 S
Eu0 O21 2.488 . S
Eu0 O22 2.471 . S
Eu0 O23 2.349 1_556 S
Eu1 O10 2.373 . S
Eu1 O14 2.488 . S
Eu1 O15 2.471 . S
Eu1 O16 2.349 . S
Eu1 O19 2.392 . S
Eu1 O20 2.418 . S
Eu1 C30 2.828 . S
C2 O20 1.244 1_556 S
C2 O23 1.265 1_556 S
C3 C4 1.379 . S
C3 C7 1.373 . S
C3 C9 1.505 . S
C4 C3 1.379 . S
C4 C6 1.369 . S
C4 H32 0.930 . S
C5 C7 1.383 . S
C5 C8 1.382 . S
C5 H33 0.930 . S
C6 C4 1.369 . S
C6 C8 1.392 . S
C6 H34 0.930 . S
C7 C3 1.373 . S
C7 C5 1.383 . S
C7 H35 0.931 . S
C8 C5 1.382 . S
C8 C6 1.392 . S
C9 Eu0 2.828 . S
C9 C3 1.505 . S
C9 O21 1.249 . S
C9 O22 1.244 . S
O10 Eu1 2.373 . S
O10 C12 1.258 . S
O11 Eu0 2.392 1_554 S
O11 C12 1.242 . S
C12 O10 1.258 . S
C12 O11 1.242 . S
O13 Eu0 2.418 1_554 S
O13 C17 1.244 . S
O14 Eu1 2.488 . S
O14 C30 1.249 . S
O15 Eu1 2.471 . S
O15 C30 1.244 . S
O16 Eu1 2.349 . S
O16 C17 1.265 . S
C17 O13 1.244 . S
C17 O16 1.265 . S
O18 Eu0 2.373 1_554 S
O18 C31 1.258 . S
O19 Eu1 2.392 . S
O19 C31 1.242 . S
O20 Eu1 2.418 . S
O20 C2 1.244 1_554 S
O21 Eu0 2.488 . S
O21 C9 1.249 . S
O22 Eu0 2.471 . S
O22 C9 1.244 . S
O23 Eu0 2.349 1_554 S
O23 C2 1.265 1_554 S
C24 C25 1.379 . S
C24 C28 1.373 . S
C24 C30 1.505 . S
C25 C24 1.379 . S
C25 C27 1.369 . S
C25 H36 0.930 . S
C26 C28 1.383 . S
C26 C29 1.382 . S
C26 H37 0.930 . S
C27 C25 1.369 . S
C27 C29 1.392 . S
C27 H38 0.930 . S
C28 C24 1.373 . S
C28 C26 1.383 . S
C28 H39 0.931 . S
C29 C26 1.382 . S
C29 C27 1.392 . S
C30 Eu1 2.828 . S
C30 O14 1.249 . S
C30 O15 1.244 . S
C30 C24 1.505 . S
C31 O18 1.258 . S
C31 O19 1.242 . S
H32 C4 0.930 . S
H33 C5 0.930 . S
H34 C6 0.930 . S
H35 C7 0.931 . S
H36 C25 0.930 . S
H37 C26 0.930 . S
H38 C27 0.930 . S
H39 C28 0.931 . S
Eu40 C49 2.828 . S
Eu40 O51 2.392 . S
Eu40 O53 2.418 . S
Eu40 O58 2.373 . S
Eu40 O61 2.488 . S
Eu40 O62 2.471 . S
Eu40 O63 2.349 . S
Eu41 O50 2.373 . S
Eu41 O54 2.488 . S
Eu41 O55 2.471 . S
Eu41 O56 2.349 . S
Eu41 O59 2.392 . S
Eu41 O60 2.418 . S
Eu41 C70 2.828 . S
C42 O60 1.244 . S
C42 O63 1.265 . S
C43 C44 1.379 . S
C43 C47 1.373 . S
C43 C49 1.505 . S
C44 C43 1.379 . S
C44 C46 1.369 . S
C44 H72 0.930 . S
C45 C47 1.383 . S
C45 C48 1.382 . S
C45 H73 0.930 . S
C46 C44 1.369 . S
C46 C48 1.392 . S
C46 H74 0.930 . S
C47 C43 1.373 . S
C47 C45 1.383 . S
C47 H75 0.931 . S
C48 C45 1.382 . S
C48 C46 1.392 . S
C49 Eu40 2.828 . S
C49 C43 1.505 . S
C49 O61 1.249 . S
C49 O62 1.244 . S
O50 Eu41 2.373 . S
O50 C52 1.258 . S
O51 Eu40 2.392 . S
O51 C52 1.242 . S
C52 O50 1.258 . S
C52 O51 1.242 . S
O53 Eu40 2.418 . S
O53 C57 1.244 . S
O54 Eu41 2.488 . S
O54 C70 1.249 . S
O55 Eu41 2.471 . S
O55 C70 1.244 . S
O56 Eu41 2.349 . S
O56 C57 1.265 . S
C57 O53 1.244 . S
C57 O56 1.265 . S
O58 Eu40 2.373 . S
O58 C71 1.258 . S
O59 Eu41 2.392 . S
O59 C71 1.242 . S
O60 Eu41 2.418 . S
O60 C42 1.244 . S
O61 Eu40 2.488 . S
O61 C49 1.249 . S
O62 Eu40 2.471 . S
O62 C49 1.244 . S
O63 Eu40 2.349 . S
O63 C42 1.265 . S
C64 C65 1.379 . S
C64 C68 1.373 . S
C64 C70 1.505 . S
C65 C64 1.379 . S
C65 C67 1.369 . S
C65 H76 0.930 . S
C66 C68 1.383 . S
C66 C69 1.382 . S
C66 H77 0.930 . S
C67 C65 1.369 . S
C67 C69 1.392 . S
C67 H78 0.930 . S
C68 C64 1.373 . S
C68 C66 1.383 . S
C68 H79 0.931 . S
C69 C66 1.382 . S
C69 C67 1.392 . S
C70 Eu41 2.828 . S
C70 O54 1.249 . S
C70 O55 1.244 . S
C70 C64 1.505 . S
C71 O58 1.258 . S
C71 O59 1.242 . S
H72 C44 0.930 . S
H73 C45 0.930 . S
H74 C46 0.930 . S
H75 C47 0.931 . S
H76 C65 0.930 . S
H77 C66 0.930 . S
H78 C67 0.930 . S
H79 C68 0.931 . S
Eu80 C89 2.828 . S
Eu80 O91 2.392 . S
Eu80 O93 2.418 . S
Eu80 O98 2.373 . S
Eu80 O101 2.488 . S
Eu80 O102 2.471 . S
Eu80 O103 2.349 . S
Eu81 O90 2.373 . S
Eu81 O94 2.488 . S
Eu81 O95 2.471 . S
Eu81 O96 2.349 . S
Eu81 O99 2.392 . S
Eu81 O100 2.418 . S
Eu81 C110 2.828 . S
C82 O100 1.244 . S
C82 O103 1.265 . S
C83 C84 1.379 . S
C83 C87 1.373 . S
C83 C89 1.505 . S
C84 C83 1.379 . S
C84 C86 1.369 . S
C84 H112 0.930 . S
C85 C87 1.383 . S
C85 C88 1.382 . S
C85 H113 0.930 . S
C86 C84 1.369 . S
C86 C88 1.392 . S
C86 H114 0.930 . S
C87 C83 1.373 . S
C87 C85 1.383 . S
C87 H115 0.931 . S
C88 C85 1.382 . S
C88 C86 1.392 . S
C89 Eu80 2.828 . S
C89 C83 1.505 . S
C89 O101 1.249 . S
C89 O102 1.244 . S
O90 Eu81 2.373 . S
O90 C92 1.258 . S
O91 Eu80 2.392 . S
O91 C92 1.242 . S
C92 O90 1.258 . S
C92 O91 1.242 . S
O93 Eu80 2.418 . S
O93 C97 1.244 . S
O94 Eu81 2.488 . S
O94 C110 1.249 . S
O95 Eu81 2.471 . S
O95 C110 1.244 . S
O96 Eu81 2.349 . S
O96 C97 1.265 . S
C97 O93 1.244 . S
C97 O96 1.265 . S
O98 Eu80 2.373 . S
O98 C111 1.258 . S
O99 Eu81 2.392 . S
O99 C111 1.242 . S
O100 Eu81 2.418 . S
O100 C82 1.244 . S
O101 Eu80 2.488 . S
O101 C89 1.249 . S
O102 Eu80 2.471 . S
O102 C89 1.244 . S
O103 Eu80 2.349 . S
O103 C82 1.265 . S
C104 C105 1.379 . S
C104 C108 1.373 . S
C104 C110 1.505 . S
C105 C104 1.379 . S
C105 C107 1.369 . S
C105 H116 0.930 . S
C106 C108 1.383 . S
C106 C109 1.382 . S
C106 H117 0.930 . S
C107 C105 1.369 . S
C107 C109 1.392 . S
C107 H118 0.930 . S
C108 C104 1.373 . S
C108 C106 1.383 . S
C108 H119 0.931 . S
C109 C106 1.382 . S
C109 C107 1.392 . S
C110 Eu81 2.828 . S
C110 O94 1.249 . S
C110 O95 1.244 . S
C110 C104 1.505 . S
C111 O98 1.258 . S
C111 O99 1.242 . S
H112 C84 0.930 . S
H113 C85 0.930 . S
H114 C86 0.930 . S
H115 C87 0.931 . S
H116 C105 0.930 . S
H117 C106 0.930 . S
H118 C107 0.930 . S
H119 C108 0.931 . S
Eu120 C129 2.828 . S
Eu120 O131 2.392 . S
Eu120 O133 2.418 . S
Eu120 O138 2.373 . S
Eu120 O141 2.488 . S
Eu120 O142 2.471 . S
Eu120 O143 2.349 . S
Eu121 O130 2.373 . S
Eu121 O134 2.488 . S
Eu121 O135 2.471 . S
Eu121 O136 2.349 . S
Eu121 O139 2.392 . S
Eu121 O140 2.418 . S
Eu121 C150 2.828 . S
C122 O140 1.244 . S
C122 O143 1.265 . S
C123 C124 1.379 . S
C123 C127 1.373 . S
C123 C129 1.505 . S
C124 C123 1.379 . S
C124 C126 1.369 . S
C124 H152 0.930 . S
C125 C127 1.383 . S
C125 C128 1.382 . S
C125 H153 0.930 . S
C126 C124 1.369 . S
C126 C128 1.392 . S
C126 H154 0.930 . S
C127 C123 1.373 . S
C127 C125 1.383 . S
C127 H155 0.931 . S
C128 C125 1.382 . S
C128 C126 1.392 . S
C129 Eu120 2.828 . S
C129 C123 1.505 . S
C129 O141 1.249 . S
C129 O142 1.244 . S
O130 Eu121 2.373 . S
O130 C132 1.258 . S
O131 Eu120 2.392 . S
O131 C132 1.242 . S
C132 O130 1.258 . S
C132 O131 1.242 . S
O133 Eu120 2.418 . S
O133 C137 1.244 . S
O134 Eu121 2.488 . S
O134 C150 1.249 . S
O135 Eu121 2.471 . S
O135 C150 1.244 . S
O136 Eu121 2.349 . S
O136 C137 1.265 . S
C137 O133 1.244 . S
C137 O136 1.265 . S
O138 Eu120 2.373 . S
O138 C151 1.258 . S
O139 Eu121 2.392 . S
O139 C151 1.242 . S
O140 Eu121 2.418 . S
O140 C122 1.244 . S
O141 Eu120 2.488 . S
O141 C129 1.249 . S
O142 Eu120 2.471 . S
O142 C129 1.244 . S
O143 Eu120 2.349 . S
O143 C122 1.265 . S
C144 C145 1.379 . S
C144 C148 1.373 . S
C144 C150 1.505 . S
C145 C144 1.379 . S
C145 C147 1.369 . S
C145 H156 0.930 . S
C146 C148 1.383 . S
C146 C149 1.382 . S
C146 H157 0.930 . S
C147 C145 1.369 . S
C147 C149 1.392 . S
C147 H158 0.930 . S
C148 C144 1.373 . S
C148 C146 1.383 . S
C148 H159 0.931 . S
C149 C146 1.382 . S
C149 C147 1.392 . S
C150 Eu121 2.828 . S
C150 O134 1.249 . S
C150 O135 1.244 . S
C150 C144 1.505 . S
C151 O138 1.258 . S
C151 O139 1.242 . S
H152 C124 0.930 . S
H153 C125 0.930 . S
H154 C126 0.930 . S
H155 C127 0.931 . S
H156 C145 0.930 . S
H157 C146 0.930 . S
H158 C147 0.930 . S
H159 C148 0.931 . S
Eu160 C169 2.828 . S
Eu160 O171 2.392 . S
Eu160 O173 2.418 . S
Eu160 O178 2.373 . S
Eu160 O181 2.488 . S
Eu160 O182 2.471 . S
Eu160 O183 2.349 . S
Eu161 O170 2.373 1_554 S
Eu161 O174 2.488 . S
Eu161 O175 2.471 . S
Eu161 O176 2.349 1_554 S
Eu161 O179 2.392 1_554 S
Eu161 O180 2.418 1_554 S
Eu161 C190 2.828 . S
C162 O180 1.244 . S
C162 O183 1.265 . S
C163 C164 1.379 . S
C163 C167 1.373 . S
C163 C169 1.505 . S
C164 C163 1.379 . S
C164 C166 1.369 . S
C164 H192 0.930 . S
C165 C167 1.383 . S
C165 C168 1.382 . S
C165 H193 0.930 . S
C166 C164 1.369 . S
C166 C168 1.392 . S
C166 H194 0.930 . S
C167 C163 1.373 . S
C167 C165 1.383 . S
C167 H195 0.931 . S
C168 C165 1.382 . S
C168 C166 1.392 . S
C169 Eu160 2.828 . S
C169 C163 1.505 . S
C169 O181 1.249 . S
C169 O182 1.244 . S
O170 Eu161 2.373 1_556 S
O170 C172 1.258 . S
O171 Eu160 2.392 . S
O171 C172 1.242 . S
C172 O170 1.258 . S
C172 O171 1.242 . S
O173 Eu160 2.418 . S
O173 C177 1.244 1_556 S
O174 Eu161 2.488 . S
O174 C190 1.249 . S
O175 Eu161 2.471 . S
O175 C190 1.244 . S
O176 Eu161 2.349 1_556 S
O176 C177 1.265 1_556 S
C177 O173 1.244 1_554 S
C177 O176 1.265 1_554 S
O178 Eu160 2.373 . S
O178 C191 1.258 . S
O179 Eu161 2.392 1_556 S
O179 C191 1.242 . S
O180 Eu161 2.418 1_556 S
O180 C162 1.244 . S
O181 Eu160 2.488 . S
O181 C169 1.249 . S
O182 Eu160 2.471 . S
O182 C169 1.244 . S
O183 Eu160 2.349 . S
O183 C162 1.265 . S
C184 C185 1.379 . S
C184 C188 1.373 . S
C184 C190 1.505 . S
C185 C184 1.379 . S
C185 C187 1.369 . S
C185 H196 0.930 . S
C186 C188 1.383 . S
C186 C189 1.382 . S
C186 H197 0.930 . S
C187 C185 1.369 . S
C187 C189 1.392 . S
C187 H198 0.930 . S
C188 C184 1.373 . S
C188 C186 1.383 . S
C188 H199 0.931 . S
C189 C186 1.382 . S
C189 C187 1.392 . S
C190 Eu161 2.828 . S
C190 O174 1.249 . S
C190 O175 1.244 . S
C190 C184 1.505 . S
C191 O178 1.258 . S
C191 O179 1.242 . S
H192 C164 0.930 . S
H193 C165 0.930 . S
H194 C166 0.930 . S
H195 C167 0.931 . S
H196 C185 0.930 . S
H197 C186 0.930 . S
H198 C187 0.930 . S
H199 C188 0.931 . S
Eu200 C209 2.828 . S
Eu200 O211 2.392 . S
Eu200 O213 2.418 . S
Eu200 O218 2.373 . S
Eu200 O221 2.488 . S
Eu200 O222 2.471 . S
Eu200 O223 2.349 . S
Eu201 O210 2.373 . S
Eu201 O214 2.488 . S
Eu201 O215 2.471 . S
Eu201 O216 2.349 . S
Eu201 O219 2.392 . S
Eu201 O220 2.418 . S
Eu201 C230 2.828 . S
C202 O220 1.244 . S
C202 O223 1.265 . S
C203 C204 1.379 . S
C203 C207 1.373 . S
C203 C209 1.505 . S
C204 C203 1.379 . S
C204 C206 1.369 . S
C204 H232 0.930 . S
C205 C207 1.383 . S
C205 C208 1.382 . S
C205 H233 0.930 . S
C206 C204 1.369 . S
C206 C208 1.392 . S
C206 H234 0.930 . S
C207 C203 1.373 . S
C207 C205 1.383 . S
C207 H235 0.931 . S
C208 C205 1.382 . S
C208 C206 1.392 . S
C209 Eu200 2.828 . S
C209 C203 1.505 . S
C209 O221 1.249 . S
C209 O222 1.244 . S
O210 Eu201 2.373 . S
O210 C212 1.258 . S
O211 Eu200 2.392 . S
O211 C212 1.242 . S
C212 O210 1.258 . S
C212 O211 1.242 . S
O213 Eu200 2.418 . S
O213 C217 1.244 . S
O214 Eu201 2.488 . S
O214 C230 1.249 . S
O215 Eu201 2.471 . S
O215 C230 1.244 . S
O216 Eu201 2.349 . S
O216 C217 1.265 . S
C217 O213 1.244 . S
C217 O216 1.265 . S
O218 Eu200 2.373 . S
O218 C231 1.258 . S
O219 Eu201 2.392 . S
O219 C231 1.242 . S
O220 Eu201 2.418 . S
O220 C202 1.244 . S
O221 Eu200 2.488 . S
O221 C209 1.249 . S
O222 Eu200 2.471 . S
O222 C209 1.244 . S
O223 Eu200 2.349 . S
O223 C202 1.265 . S
C224 C225 1.379 . S
C224 C228 1.373 . S
C224 C230 1.505 . S
C225 C224 1.379 . S
C225 C227 1.369 . S
C225 H236 0.930 . S
C226 C228 1.383 . S
C226 C229 1.382 . S
C226 H237 0.930 . S
C227 C225 1.369 . S
C227 C229 1.392 . S
C227 H238 0.930 . S
C228 C224 1.373 . S
C228 C226 1.383 . S
C228 H239 0.931 . S
C229 C226 1.382 . S
C229 C227 1.392 . S
C230 Eu201 2.828 . S
C230 O214 1.249 . S
C230 O215 1.244 . S
C230 C224 1.505 . S
C231 O218 1.258 . S
C231 O219 1.242 . S
H232 C204 0.930 . S
H233 C205 0.930 . S
H234 C206 0.930 . S
H235 C207 0.931 . S
H236 C225 0.930 . S
H237 C226 0.930 . S
H238 C227 0.930 . S
H239 C228 0.931 . S
Eu240 C249 2.828 . S
Eu240 O251 2.392 . S
Eu240 O253 2.418 . S
Eu240 O258 2.373 . S
Eu240 O261 2.488 . S
Eu240 O262 2.471 . S
Eu240 O263 2.349 . S
Eu241 O250 2.373 . S
Eu241 O254 2.488 . S
Eu241 O255 2.471 . S
Eu241 O256 2.349 . S
Eu241 O259 2.392 . S
Eu241 O260 2.418 . S
Eu241 C270 2.828 . S
C242 O260 1.244 . S
C242 O263 1.265 . S
C243 C244 1.379 . S
C243 C247 1.373 . S
C243 C249 1.505 . S
C244 C243 1.379 . S
C244 C246 1.369 . S
C244 H272 0.930 . S
C245 C247 1.383 . S
C245 C248 1.382 . S
C245 H273 0.930 . S
C246 C244 1.369 . S
C246 C248 1.392 . S
C246 H274 0.930 . S
C247 C243 1.373 . S
C247 C245 1.383 . S
C247 H275 0.931 . S
C248 C245 1.382 . S
C248 C246 1.392 . S
C249 Eu240 2.828 . S
C249 C243 1.505 . S
C249 O261 1.249 . S
C249 O262 1.244 . S
O250 Eu241 2.373 . S
O250 C252 1.258 . S
O251 Eu240 2.392 . S
O251 C252 1.242 . S
C252 O250 1.258 . S
C252 O251 1.242 . S
O253 Eu240 2.418 . S
O253 C257 1.244 . S
O254 Eu241 2.488 . S
O254 C270 1.249 . S
O255 Eu241 2.471 . S
O255 C270 1.244 . S
O256 Eu241 2.349 . S
O256 C257 1.265 . S
C257 O253 1.244 . S
C257 O256 1.265 . S
O258 Eu240 2.373 . S
O258 C271 1.258 . S
O259 Eu241 2.392 . S
O259 C271 1.242 . S
O260 Eu241 2.418 . S
O260 C242 1.244 . S
O261 Eu240 2.488 . S
O261 C249 1.249 . S
O262 Eu240 2.471 . S
O262 C249 1.244 . S
O263 Eu240 2.349 . S
O263 C242 1.265 . S
C264 C265 1.379 . S
C264 C268 1.373 . S
C264 C270 1.505 . S
C265 C264 1.379 . S
C265 C267 1.369 . S
C265 H276 0.930 . S
C266 C268 1.383 . S
C266 C269 1.382 . S
C266 H277 0.930 . S
C267 C265 1.369 . S
C267 C269 1.392 . S
C267 H278 0.930 . S
C268 C264 1.373 . S
C268 C266 1.383 . S
C268 H279 0.931 . S
C269 C266 1.382 . S
C269 C267 1.392 . S
C270 Eu241 2.828 . S
C270 O254 1.249 . S
C270 O255 1.244 . S
C270 C264 1.505 . S
C271 O258 1.258 . S
C271 O259 1.242 . S
H272 C244 0.930 . S
H273 C245 0.930 . S
H274 C246 0.930 . S
H275 C247 0.931 . S
H276 C265 0.930 . S
H277 C266 0.930 . S
H278 C267 0.930 . S
H279 C268 0.931 . S
Eu280 C289 2.828 . S
Eu280 O291 2.392 . S
Eu280 O293 2.418 . S
Eu280 O298 2.373 . S
Eu280 O301 2.488 . S
Eu280 O302 2.471 . S
Eu280 O303 2.349 . S
Eu281 O290 2.373 . S
Eu281 O294 2.488 . S
Eu281 O295 2.471 . S
Eu281 O296 2.349 . S
Eu281 O299 2.392 . S
Eu281 O300 2.418 . S
Eu281 C310 2.828 . S
C282 O300 1.244 . S
C282 O303 1.265 . S
C283 C284 1.379 . S
C283 C287 1.373 . S
C283 C289 1.505 . S
C284 C283 1.379 . S
C284 C286 1.369 . S
C284 H312 0.930 . S
C285 C287 1.383 . S
C285 C288 1.382 . S
C285 H313 0.930 . S
C286 C284 1.369 . S
C286 C288 1.392 . S
C286 H314 0.930 . S
C287 C283 1.373 . S
C287 C285 1.383 . S
C287 H315 0.931 . S
C288 C285 1.382 . S
C288 C286 1.392 . S
C289 Eu280 2.828 . S
C289 C283 1.505 . S
C289 O301 1.249 . S
C289 O302 1.244 . S
O290 Eu281 2.373 . S
O290 C292 1.258 . S
O291 Eu280 2.392 . S
O291 C292 1.242 . S
C292 O290 1.258 . S
C292 O291 1.242 . S
O293 Eu280 2.418 . S
O293 C297 1.244 . S
O294 Eu281 2.488 . S
O294 C310 1.249 . S
O295 Eu281 2.471 . S
O295 C310 1.244 . S
O296 Eu281 2.349 . S
O296 C297 1.265 . S
C297 O293 1.244 . S
C297 O296 1.265 . S
O298 Eu280 2.373 . S
O298 C311 1.258 . S
O299 Eu281 2.392 . S
O299 C311 1.242 . S
O300 Eu281 2.418 . S
O300 C282 1.244 . S
O301 Eu280 2.488 . S
O301 C289 1.249 . S
O302 Eu280 2.471 . S
O302 C289 1.244 . S
O303 Eu280 2.349 . S
O303 C282 1.265 . S
C304 C305 1.379 . S
C304 C308 1.373 . S
C304 C310 1.505 . S
C305 C304 1.379 . S
C305 C307 1.369 . S
C305 H316 0.930 . S
C306 C308 1.383 . S
C306 C309 1.382 . S
C306 H317 0.930 . S
C307 C305 1.369 . S
C307 C309 1.392 . S
C307 H318 0.930 . S
C308 C304 1.373 . S
C308 C306 1.383 . S
C308 H319 0.931 . S
C309 C306 1.382 . S
C309 C307 1.392 . S
C310 Eu281 2.828 . S
C310 O294 1.249 . S
C310 O295 1.244 . S
C310 C304 1.505 . S
C311 O298 1.258 . S
C311 O299 1.242 . S
H312 C284 0.930 . S
H313 C285 0.930 . S
H314 C286 0.930 . S
H315 C287 0.931 . S
H316 C305 0.930 . S
H317 C306 0.930 . S
H318 C307 0.930 . S
H319 C308 0.931 . S
Eu320 C329 2.828 . S
Eu320 O331 2.392 . S
Eu320 O333 2.418 . S
Eu320 O338 2.373 . S
Eu320 O341 2.488 . S
Eu320 O342 2.471 . S
Eu320 O343 2.349 . S
Eu321 O330 2.373 . S
Eu321 O334 2.488 . S
Eu321 O335 2.471 . S
Eu321 O336 2.349 . S
Eu321 O339 2.392 . S
Eu321 O340 2.418 . S
Eu321 C350 2.828 . S
C322 O340 1.244 . S
C322 O343 1.265 . S
C323 C324 1.379 . S
C323 C327 1.373 . S
C323 C329 1.505 . S
C324 C323 1.379 . S
C324 C326 1.369 . S
C324 H352 0.930 . S
C325 C327 1.383 . S
C325 C328 1.382 . S
C325 H353 0.930 . S
C326 C324 1.369 . S
C326 C328 1.392 . S
C326 H354 0.930 . S
C327 C323 1.373 . S
C327 C325 1.383 . S
C327 H355 0.931 . S
C328 C325 1.382 . S
C328 C326 1.392 . S
C329 Eu320 2.828 . S
C329 C323 1.505 . S
C329 O341 1.249 . S
C329 O342 1.244 . S
O330 Eu321 2.373 . S
O330 C332 1.258 . S
O331 Eu320 2.392 . S
O331 C332 1.242 . S
C332 O330 1.258 . S
C332 O331 1.242 . S
O333 Eu320 2.418 . S
O333 C337 1.244 . S
O334 Eu321 2.488 . S
O334 C350 1.249 . S
O335 Eu321 2.471 . S
O335 C350 1.244 . S
O336 Eu321 2.349 . S
O336 C337 1.265 . S
C337 O333 1.244 . S
C337 O336 1.265 . S
O338 Eu320 2.373 . S
O338 C351 1.258 . S
O339 Eu321 2.392 . S
O339 C351 1.242 . S
O340 Eu321 2.418 . S
O340 C322 1.244 . S
O341 Eu320 2.488 . S
O341 C329 1.249 . S
O342 Eu320 2.471 . S
O342 C329 1.244 . S
O343 Eu320 2.349 . S
O343 C322 1.265 . S
C344 C345 1.379 . S
C344 C348 1.373 . S
C344 C350 1.505 . S
C345 C344 1.379 . S
C345 C347 1.369 . S
C345 H356 0.930 . S
C346 C348 1.383 . S
C346 C349 1.382 . S
C346 H357 0.930 . S
C347 C345 1.369 . S
C347 C349 1.392 . S
C347 H358 0.930 . S
C348 C344 1.373 . S
C348 C346 1.383 . S
C348 H359 0.931 . S
C349 C346 1.382 . S
C349 C347 1.392 . S
C350 Eu321 2.828 . S
C350 O334 1.249 . S
C350 O335 1.244 . S
C350 C344 1.505 . S
C351 O338 1.258 . S
C351 O339 1.242 . S
H352 C324 0.930 . S
H353 C325 0.930 . S
H354 C326 0.930 . S
H355 C327 0.931 . S
H356 C345 0.930 . S
H357 C346 0.930 . S
H358 C347 0.930 . S
H359 C348 0.931 . S
Eu360 C369 2.828 . S
Eu360 O371 2.392 . S
Eu360 O373 2.418 . S
Eu360 O378 2.373 . S
Eu360 O381 2.488 . S
Eu360 O382 2.471 . S
Eu360 O383 2.349 . S
Eu361 O370 2.373 . S
Eu361 O374 2.488 . S
Eu361 O375 2.471 . S
Eu361 O376 2.349 . S
Eu361 O379 2.392 . S
Eu361 O380 2.418 . S
Eu361 C390 2.828 . S
C362 O380 1.244 . S
C362 O383 1.265 . S
C363 C364 1.379 . S
C363 C367 1.373 . S
C363 C369 1.505 . S
C364 C363 1.379 . S
C364 C366 1.369 . S
C364 H392 0.930 . S
C365 C367 1.383 . S
C365 C368 1.382 . S
C365 H393 0.930 . S
C366 C364 1.369 . S
C366 C368 1.392 . S
C366 H394 0.930 . S
C367 C363 1.373 . S
C367 C365 1.383 . S
C367 H395 0.931 . S
C368 C365 1.382 . S
C368 C366 1.392 . S
C369 Eu360 2.828 . S
C369 C363 1.505 . S
C369 O381 1.249 . S
C369 O382 1.244 . S
O370 Eu361 2.373 . S
O370 C372 1.258 . S
O371 Eu360 2.392 . S
O371 C372 1.242 . S
C372 O370 1.258 . S
C372 O371 1.242 . S
O373 Eu360 2.418 . S
O373 C377 1.244 . S
O374 Eu361 2.488 . S
O374 C390 1.249 . S
O375 Eu361 2.471 . S
O375 C390 1.244 . S
O376 Eu361 2.349 . S
O376 C377 1.265 . S
C377 O373 1.244 . S
C377 O376 1.265 . S
O378 Eu360 2.373 . S
O378 C391 1.258 . S
O379 Eu361 2.392 . S
O379 C391 1.242 . S
O380 Eu361 2.418 . S
O380 C362 1.244 . S
O381 Eu360 2.488 . S
O381 C369 1.249 . S
O382 Eu360 2.471 . S
O382 C369 1.244 . S
O383 Eu360 2.349 . S
O383 C362 1.265 . S
C384 C385 1.379 . S
C384 C388 1.373 . S
C384 C390 1.505 . S
C385 C384 1.379 . S
C385 C387 1.369 . S
C385 H396 0.930 . S
C386 C388 1.383 . S
C386 C389 1.382 . S
C386 H397 0.930 . S
C387 C385 1.369 . S
C387 C389 1.392 . S
C387 H398 0.930 . S
C388 C384 1.373 . S
C388 C386 1.383 . S
C388 H399 0.931 . S
C389 C386 1.382 . S
C389 C387 1.392 . S
C390 Eu361 2.828 . S
C390 O374 1.249 . S
C390 O375 1.244 . S
C390 C384 1.505 . S
C391 O378 1.258 . S
C391 O379 1.242 . S
H392 C364 0.930 . S
H393 C365 0.930 . S
H394 C366 0.930 . S
H395 C367 0.931 . S
H396 C385 0.930 . S
H397 C386 0.930 . S
H398 C387 0.930 . S
H399 C388 0.931 . S
Eu400 C409 2.828 . S
Eu400 O411 2.392 1_556 S
Eu400 O413 2.418 1_556 S
Eu400 O418 2.373 1_556 S
Eu400 O421 2.488 . S
Eu400 O422 2.471 . S
Eu400 O423 2.349 1_556 S
Eu401 O410 2.373 . S
Eu401 O414 2.488 . S
Eu401 O415 2.471 . S
Eu401 O416 2.349 . S
Eu401 O419 2.392 . S
Eu401 O420 2.418 . S
Eu401 C430 2.828 . S
C402 O420 1.244 1_556 S
C402 O423 1.265 1_556 S
C403 C404 1.379 . S
C403 C407 1.373 . S
C403 C409 1.505 . S
C404 C403 1.379 . S
C404 C406 1.369 . S
C404 H432 0.930 . S
C405 C407 1.383 . S
C405 C408 1.382 . S
C405 H433 0.930 . S
C406 C404 1.369 . S
C406 C408 1.392 . S
C406 H434 0.930 . S
C407 C403 1.373 . S
C407 C405 1.383 . S
C407 H435 0.931 . S
C408 C405 1.382 . S
C408 C406 1.392 . S
C409 Eu400 2.828 . S
C409 C403 1.505 . S
C409 O421 1.249 . S
C409 O422 1.244 . S
O410 Eu401 2.373 . S
O410 C412 1.258 . S
O411 Eu400 2.392 1_554 S
O411 C412 1.242 . S
C412 O410 1.258 . S
C412 O411 1.242 . S
O413 Eu400 2.418 1_554 S
O413 C417 1.244 . S
O414 Eu401 2.488 . S
O414 C430 1.249 . S
O415 Eu401 2.471 . S
O415 C430 1.244 . S
O416 Eu401 2.349 . S
O416 C417 1.265 . S
C417 O413 1.244 . S
C417 O416 1.265 . S
O418 Eu400 2.373 1_554 S
O418 C431 1.258 . S
O419 Eu401 2.392 . S
O419 C431 1.242 . S
O420 Eu401 2.418 . S
O420 C402 1.244 1_554 S
O421 Eu400 2.488 . S
O421 C409 1.249 . S
O422 Eu400 2.471 . S
O422 C409 1.244 . S
O423 Eu400 2.349 1_554 S
O423 C402 1.265 1_554 S
C424 C425 1.379 . S
C424 C428 1.373 . S
C424 C430 1.505 . S
C425 C424 1.379 . S
C425 C427 1.369 . S
C425 H436 0.930 . S
C426 C428 1.383 . S
C426 C429 1.382 . S
C426 H437 0.930 . S
C427 C425 1.369 . S
C427 C429 1.392 . S
C427 H438 0.930 . S
C428 C424 1.373 . S
C428 C426 1.383 . S
C428 H439 0.931 . S
C429 C426 1.382 . S
C429 C427 1.392 . S
C430 Eu401 2.828 . S
C430 O414 1.249 . S
C430 O415 1.244 . S
C430 C424 1.505 . S
C431 O418 1.258 . S
C431 O419 1.242 . S
H432 C404 0.930 . S
H433 C405 0.930 . S
H434 C406 0.930 . S
H435 C407 0.931 . S
H436 C425 0.930 . S
H437 C426 0.930 . S
H438 C427 0.930 . S
H439 C428 0.931 . S
Eu440 C449 2.828 . S
Eu440 O451 2.392 . S
Eu440 O453 2.418 . S
Eu440 O458 2.373 . S
Eu440 O461 2.488 . S
Eu440 O462 2.471 . S
Eu440 O463 2.349 . S
Eu441 O450 2.373 . S
Eu441 O454 2.488 . S
Eu441 O455 2.471 . S
Eu441 O456 2.349 . S
Eu441 O459 2.392 . S
Eu441 O460 2.418 . S
Eu441 C470 2.828 . S
C442 O460 1.244 . S
C442 O463 1.265 . S
C443 C444 1.379 . S
C443 C447 1.373 . S
C443 C449 1.505 . S
C444 C443 1.379 . S
C444 C446 1.369 . S
C444 H472 0.930 . S
C445 C447 1.383 . S
C445 C448 1.382 . S
C445 H473 0.930 . S
C446 C444 1.369 . S
C446 C448 1.392 . S
C446 H474 0.930 . S
C447 C443 1.373 . S
C447 C445 1.383 . S
C447 H475 0.931 . S
C448 C445 1.382 . S
C448 C446 1.392 . S
C449 Eu440 2.828 . S
C449 C443 1.505 . S
C449 O461 1.249 . S
C449 O462 1.244 . S
O450 Eu441 2.373 . S
O450 C452 1.258 . S
O451 Eu440 2.392 . S
O451 C452 1.242 . S
C452 O450 1.258 . S
C452 O451 1.242 . S
O453 Eu440 2.418 . S
O453 C457 1.244 . S
O454 Eu441 2.488 . S
O454 C470 1.249 . S
O455 Eu441 2.471 . S
O455 C470 1.244 . S
O456 Eu441 2.349 . S
O456 C457 1.265 . S
C457 O453 1.244 . S
C457 O456 1.265 . S
O458 Eu440 2.373 . S
O458 C471 1.258 . S
O459 Eu441 2.392 . S
O459 C471 1.242 . S
O460 Eu441 2.418 . S
O460 C442 1.244 . S
O461 Eu440 2.488 . S
O461 C449 1.249 . S
O462 Eu440 2.471 . S
O462 C449 1.244 . S
O463 Eu440 2.349 . S
O463 C442 1.265 . S
C464 C465 1.379 . S
C464 C468 1.373 . S
C464 C470 1.505 . S
C465 C464 1.379 . S
C465 C467 1.369 . S
C465 H476 0.930 . S
C466 C468 1.383 . S
C466 C469 1.382 . S
C466 H477 0.930 . S
C467 C465 1.369 . S
C467 C469 1.392 . S
C467 H478 0.930 . S
C468 C464 1.373 . S
C468 C466 1.383 . S
C468 H479 0.931 . S
C469 C466 1.382 . S
C469 C467 1.392 . S
C470 Eu441 2.828 . S
C470 O454 1.249 . S
C470 O455 1.244 . S
C470 C464 1.505 . S
C471 O458 1.258 . S
C471 O459 1.242 . S
H472 C444 0.930 . S
H473 C445 0.930 . S
H474 C446 0.930 . S
H475 C447 0.931 . S
H476 C465 0.930 . S
H477 C466 0.930 . S
H478 C467 0.930 . S
H479 C468 0.931 . S
Eu480 C489 2.828 . S
Eu480 O491 2.392 . S
Eu480 O493 2.418 . S
Eu480 O498 2.373 . S
Eu480 O501 2.488 . S
Eu480 O502 2.471 . S
Eu480 O503 2.349 . S
Eu481 O490 2.373 . S
Eu481 O494 2.488 . S
Eu481 O495 2.471 . S
Eu481 O496 2.349 . S
Eu481 O499 2.392 . S
Eu481 O500 2.418 . S
Eu481 C510 2.828 . S
C482 O500 1.244 . S
C482 O503 1.265 . S
C483 C484 1.379 . S
C483 C487 1.373 . S
C483 C489 1.505 . S
C484 C483 1.379 . S
C484 C486 1.369 . S
C484 H512 0.930 . S
C485 C487 1.383 . S
C485 C488 1.382 . S
C485 H513 0.930 . S
C486 C484 1.369 . S
C486 C488 1.392 . S
C486 H514 0.930 . S
C487 C483 1.373 . S
C487 C485 1.383 . S
C487 H515 0.931 . S
C488 C485 1.382 . S
C488 C486 1.392 . S
C489 Eu480 2.828 . S
C489 C483 1.505 . S
C489 O501 1.249 . S
C489 O502 1.244 . S
O490 Eu481 2.373 . S
O490 C492 1.258 . S
O491 Eu480 2.392 . S
O491 C492 1.242 . S
C492 O490 1.258 . S
C492 O491 1.242 . S
O493 Eu480 2.418 . S
O493 C497 1.244 . S
O494 Eu481 2.488 . S
O494 C510 1.249 . S
O495 Eu481 2.471 . S
O495 C510 1.244 . S
O496 Eu481 2.349 . S
O496 C497 1.265 . S
C497 O493 1.244 . S
C497 O496 1.265 . S
O498 Eu480 2.373 . S
O498 C511 1.258 . S
O499 Eu481 2.392 . S
O499 C511 1.242 . S
O500 Eu481 2.418 . S
O500 C482 1.244 . S
O501 Eu480 2.488 . S
O501 C489 1.249 . S
O502 Eu480 2.471 . S
O502 C489 1.244 . S
O503 Eu480 2.349 . S
O503 C482 1.265 . S
C504 C505 1.379 . S
C504 C508 1.373 . S
C504 C510 1.505 . S
C505 C504 1.379 . S
C505 C507 1.369 . S
C505 H516 0.930 . S
C506 C508 1.383 . S
C506 C509 1.382 . S
C506 H517 0.930 . S
C507 C505 1.369 . S
C507 C509 1.392 . S
C507 H518 0.930 . S
C508 C504 1.373 . S
C508 C506 1.383 . S
C508 H519 0.931 . S
C509 C506 1.382 . S
C509 C507 1.392 . S
C510 Eu481 2.828 . S
C510 O494 1.249 . S
C510 O495 1.244 . S
C510 C504 1.505 . S
C511 O498 1.258 . S
C511 O499 1.242 . S
H512 C484 0.930 . S
H513 C485 0.930 . S
H514 C486 0.930 . S
H515 C487 0.931 . S
H516 C505 0.930 . S
H517 C506 0.930 . S
H518 C507 0.930 . S
H519 C508 0.931 . S
Eu520 C529 2.828 . S
Eu520 O531 2.392 . S
Eu520 O533 2.418 . S
Eu520 O538 2.373 . S
Eu520 O541 2.488 . S
Eu520 O542 2.471 . S
Eu520 O543 2.349 . S
Eu521 O530 2.373 . S
Eu521 O534 2.488 . S
Eu521 O535 2.471 . S
Eu521 O536 2.349 . S
Eu521 O539 2.392 . S
Eu521 O540 2.418 . S
Eu521 C550 2.828 . S
C522 O540 1.244 . S
C522 O543 1.265 . S
C523 C524 1.379 . S
C523 C527 1.373 . S
C523 C529 1.505 . S
C524 C523 1.379 . S
C524 C526 1.369 . S
C524 H552 0.930 . S
C525 C527 1.383 . S
C525 C528 1.382 . S
C525 H553 0.930 . S
C526 C524 1.369 . S
C526 C528 1.392 . S
C526 H554 0.930 . S
C527 C523 1.373 . S
C527 C525 1.383 . S
C527 H555 0.931 . S
C528 C525 1.382 . S
C528 C526 1.392 . S
C529 Eu520 2.828 . S
C529 C523 1.505 . S
C529 O541 1.249 . S
C529 O542 1.244 . S
O530 Eu521 2.373 . S
O530 C532 1.258 . S
O531 Eu520 2.392 . S
O531 C532 1.242 . S
C532 O530 1.258 . S
C532 O531 1.242 . S
O533 Eu520 2.418 . S
O533 C537 1.244 . S
O534 Eu521 2.488 . S
O534 C550 1.249 . S
O535 Eu521 2.471 . S
O535 C550 1.244 . S
O536 Eu521 2.349 . S
O536 C537 1.265 . S
C537 O533 1.244 . S
C537 O536 1.265 . S
O538 Eu520 2.373 . S
O538 C551 1.258 . S
O539 Eu521 2.392 . S
O539 C551 1.242 . S
O540 Eu521 2.418 . S
O540 C522 1.244 . S
O541 Eu520 2.488 . S
O541 C529 1.249 . S
O542 Eu520 2.471 . S
O542 C529 1.244 . S
O543 Eu520 2.349 . S
O543 C522 1.265 . S
C544 C545 1.379 . S
C544 C548 1.373 . S
C544 C550 1.505 . S
C545 C544 1.379 . S
C545 C547 1.369 . S
C545 H556 0.930 . S
C546 C548 1.383 . S
C546 C549 1.382 . S
C546 H557 0.930 . S
C547 C545 1.369 . S
C547 C549 1.392 . S
C547 H558 0.930 . S
C548 C544 1.373 . S
C548 C546 1.383 . S
C548 H559 0.931 . S
C549 C546 1.382 . S
C549 C547 1.392 . S
C550 Eu521 2.828 . S
C550 O534 1.249 . S
C550 O535 1.244 . S
C550 C544 1.505 . S
C551 O538 1.258 . S
C551 O539 1.242 . S
H552 C524 0.930 . S
H553 C525 0.930 . S
H554 C526 0.930 . S
H555 C527 0.931 . S
H556 C545 0.930 . S
H557 C546 0.930 . S
H558 C547 0.930 . S
H559 C548 0.931 . S
Eu560 C569 2.828 . S
Eu560 O571 2.392 . S
Eu560 O573 2.418 . S
Eu560 O578 2.373 . S
Eu560 O581 2.488 . S
Eu560 O582 2.471 . S
Eu560 O583 2.349 . S
Eu561 O570 2.373 1_554 S
Eu561 O574 2.488 . S
Eu561 O575 2.471 . S
Eu561 O576 2.349 1_554 S
Eu561 O579 2.392 1_554 S
Eu561 O580 2.418 1_554 S
Eu561 C590 2.828 . S
C562 O580 1.244 . S
C562 O583 1.265 . S
C563 C564 1.379 . S
C563 C567 1.373 . S
C563 C569 1.505 . S
C564 C563 1.379 . S
C564 C566 1.369 . S
C564 H592 0.930 . S
C565 C567 1.383 . S
C565 C568 1.382 . S
C565 H593 0.930 . S
C566 C564 1.369 . S
C566 C568 1.392 . S
C566 H594 0.930 . S
C567 C563 1.373 . S
C567 C565 1.383 . S
C567 H595 0.931 . S
C568 C565 1.382 . S
C568 C566 1.392 . S
C569 Eu560 2.828 . S
C569 C563 1.505 . S
C569 O581 1.249 . S
C569 O582 1.244 . S
O570 Eu561 2.373 1_556 S
O570 C572 1.258 . S
O571 Eu560 2.392 . S
O571 C572 1.242 . S
C572 O570 1.258 . S
C572 O571 1.242 . S
O573 Eu560 2.418 . S
O573 C577 1.244 1_556 S
O574 Eu561 2.488 . S
O574 C590 1.249 . S
O575 Eu561 2.471 . S
O575 C590 1.244 . S
O576 Eu561 2.349 1_556 S
O576 C577 1.265 1_556 S
C577 O573 1.244 1_554 S
C577 O576 1.265 1_554 S
O578 Eu560 2.373 . S
O578 C591 1.258 . S
O579 Eu561 2.392 1_556 S
O579 C591 1.242 . S
O580 Eu561 2.418 1_556 S
O580 C562 1.244 . S
O581 Eu560 2.488 . S
O581 C569 1.249 . S
O582 Eu560 2.471 . S
O582 C569 1.244 . S
O583 Eu560 2.349 . S
O583 C562 1.265 . S
C584 C585 1.379 . S
C584 C588 1.373 . S
C584 C590 1.505 . S
C585 C584 1.379 . S
C585 C587 1.369 . S
C585 H596 0.930 . S
C586 C588 1.383 . S
C586 C589 1.382 . S
C586 H597 0.930 . S
C587 C585 1.369 . S
C587 C589 1.392 . S
C587 H598 0.930 . S
C588 C584 1.373 . S
C588 C586 1.383 . S
C588 H599 0.931 . S
C589 C586 1.382 . S
C589 C587 1.392 . S
C590 Eu561 2.828 . S
C590 O574 1.249 . S
C590 O575 1.244 . S
C590 C584 1.505 . S
C591 O578 1.258 . S
C591 O579 1.242 . S
H592 C564 0.930 . S
H593 C565 0.930 . S
H594 C566 0.930 . S
H595 C567 0.931 . S
H596 C585 0.930 . S
H597 C586 0.930 . S
H598 C587 0.930 . S
H599 C588 0.931 . S
Eu600 C609 2.828 . S
Eu600 O611 2.392 . S
Eu600 O613 2.418 . S
Eu600 O618 2.373 . S
Eu600 O621 2.488 . S
Eu600 O622 2.471 . S
Eu600 O623 2.349 . S
Eu601 O610 2.373 . S
Eu601 O614 2.488 . S
Eu601 O615 2.471 . S
Eu601 O616 2.349 . S
Eu601 O619 2.392 . S
Eu601 O620 2.418 . S
Eu601 C630 2.828 . S
C602 O620 1.244 . S
C602 O623 1.265 . S
C603 C604 1.379 . S
C603 C607 1.373 . S
C603 C609 1.505 . S
C604 C603 1.379 . S
C604 C606 1.369 . S
C604 H632 0.930 . S
C605 C607 1.383 . S
C605 C608 1.382 . S
C605 H633 0.930 . S
C606 C604 1.369 . S
C606 C608 1.392 . S
C606 H634 0.930 . S
C607 C603 1.373 . S
C607 C605 1.383 . S
C607 H635 0.931 . S
C608 C605 1.382 . S
C608 C606 1.392 . S
C609 Eu600 2.828 . S
C609 C603 1.505 . S
C609 O621 1.249 . S
C609 O622 1.244 . S
O610 Eu601 2.373 . S
O610 C612 1.258 . S
O611 Eu600 2.392 . S
O611 C612 1.242 . S
C612 O610 1.258 . S
C612 O611 1.242 . S
O613 Eu600 2.418 . S
O613 C617 1.244 . S
O614 Eu601 2.488 . S
O614 C630 1.249 . S
O615 Eu601 2.471 . S
O615 C630 1.244 . S
O616 Eu601 2.349 . S
O616 C617 1.265 . S
C617 O613 1.244 . S
C617 O616 1.265 . S
O618 Eu600 2.373 . S
O618 C631 1.258 . S
O619 Eu601 2.392 . S
O619 C631 1.242 . S
O620 Eu601 2.418 . S
O620 C602 1.244 . S
O621 Eu600 2.488 . S
O621 C609 1.249 . S
O622 Eu600 2.471 . S
O622 C609 1.244 . S
O623 Eu600 2.349 . S
O623 C602 1.265 . S
C624 C625 1.379 . S
C624 C628 1.373 . S
C624 C630 1.505 . S
C625 C624 1.379 . S
C625 C627 1.369 . S
C625 H636 0.930 . S
C626 C628 1.383 . S
C626 C629 1.382 . S
C626 H637 0.930 . S
C627 C625 1.369 . S
C627 C629 1.392 . S
C627 H638 0.930 . S
C628 C624 1.373 . S
C628 C626 1.383 . S
C628 H639 0.931 . S
C629 C626 1.382 . S
C629 C627 1.392 . S
C630 Eu601 2.828 . S
C630 O614 1.249 . S
C630 O615 1.244 . S
C630 C624 1.505 . S
C631 O618 1.258 . S
C631 O619 1.242 . S
H632 C604 0.930 . S
H633 C605 0.930 . S
H634 C606 0.930 . S
H635 C607 0.931 . S
H636 C625 0.930 . S
H637 C626 0.930 . S
H638 C627 0.930 . S
H639 C628 0.931 . S
H640 C648 0.950 . S
H641 C653 0.950 . S
H642 C650 0.950 . S
H643 C652 0.950 . S
H644 C654 0.950 . S
H645 C656 0.950 . S
H646 C658 0.950 . S
H647 C659 0.950 . S
C648 H640 0.950 . S
C648 C649 1.386 . S
C648 C650 1.391 . S
C649 C648 1.386 . S
C649 C653 1.393 . S
C650 H642 0.950 . S
C650 C648 1.391 . S
C650 C651 1.400 . S
C651 C650 1.400 . S
C651 C652 1.398 . S
C651 C657 1.491 . S
C652 H643 0.950 . S
C652 C651 1.398 . S
C652 C653 1.391 . S
C653 H641 0.950 . S
C653 C649 1.393 . S
C653 C652 1.391 . S
C654 H644 0.950 . S
C654 C655 1.386 . S
C654 C656 1.391 . S
C655 C654 1.386 . S
C655 C659 1.393 . S
C656 H645 0.950 . S
C656 C654 1.391 . S
C656 C657 1.400 . S
C657 C651 1.491 . S
C657 C656 1.400 . S
C657 C658 1.398 . S
C658 H646 0.950 . S
C658 C657 1.398 . S
C658 C659 1.391 . S
C659 H647 0.950 . S
C659 C655 1.393 . S
C659 C658 1.391 . S
H660 C668 0.950 . S
H661 C673 0.950 . S
H662 C670 0.950 . S
H663 C672 0.950 . S
H664 C674 0.950 . S
H665 C676 0.950 . S
H666 C678 0.950 . S
H667 C679 0.950 . S
C668 H660 0.950 . S
C668 C669 1.386 . S
C668 C670 1.391 . S
C669 C668 1.386 . S
C669 C673 1.393 . S
C670 H662 0.950 . S
C670 C668 1.391 . S
C670 C671 1.400 . S
C671 C670 1.400 . S
C671 C672 1.398 . S
C671 C677 1.491 . S
C672 H663 0.950 . S
C672 C671 1.398 . S
C672 C673 1.391 . S
C673 H661 0.950 . S
C673 C669 1.393 . S
C673 C672 1.391 . S
C674 H664 0.950 . S
C674 C675 1.386 . S
C674 C676 1.391 . S
C675 C674 1.386 . S
C675 C679 1.393 . S
C676 H665 0.950 . S
C676 C674 1.391 . S
C676 C677 1.400 . S
C677 C671 1.491 . S
C677 C676 1.400 . S
C677 C678 1.398 . S
C678 H666 0.950 . S
C678 C677 1.398 . S
C678 C679 1.391 . S
C679 H667 0.950 . S
C679 C675 1.393 . S
C679 C678 1.391 . S
H680 C688 0.950 . S
H681 C693 0.950 . S
H682 C690 0.950 . S
H683 C692 0.956 . S
H684 C694 0.950 . S
H685 C696 0.950 . S
H686 C698 0.956 . S
H687 C699 0.950 . S
C688 H680 0.950 . S
C688 C689 1.386 . S
C688 C690 1.391 . S
C689 C688 1.386 . S
C689 C693 1.393 . S
C690 H682 0.950 . S
C690 C688 1.391 . S
C690 C691 1.400 . S
C691 C690 1.400 . S
C691 C692 1.396 1_455 S
C691 C697 1.491 1_455 S
C692 H683 0.956 . S
C692 C691 1.396 1_655 S
C692 C693 1.387 1_655 S
C693 H681 0.950 . S
C693 C689 1.393 . S
C693 C692 1.387 1_455 S
C694 H684 0.950 . S
C694 C695 1.386 . S
C694 C696 1.391 . S
C695 C694 1.386 . S
C695 C699 1.393 . S
C696 H685 0.950 . S
C696 C694 1.391 . S
C696 C697 1.400 . S
C697 C691 1.491 1_655 S
C697 C696 1.400 . S
C697 C698 1.396 1_655 S
C698 H686 0.956 . S
C698 C697 1.396 1_455 S
C698 C699 1.387 1_455 S
C699 H687 0.950 . S
C699 C695 1.393 . S
C699 C698 1.387 1_655 S
H700 C708 0.950 . S
H701 C713 0.950 . S
H702 C710 0.950 . S
H703 C712 0.950 1_455 S
H704 C714 0.950 . S
H705 C716 0.950 . S
H706 C718 0.950 1_655 S
H707 C719 0.950 . S
C708 H700 0.950 . S
C708 C709 1.386 . S
C708 C710 1.391 . S
C709 C708 1.386 . S
C709 C713 1.393 . S
C710 H702 0.950 . S
C710 C708 1.391 . S
C710 C711 1.400 . S
C711 C710 1.400 . S
C711 C712 1.398 . S
C711 C717 1.491 1_655 S
C712 H703 0.950 1_655 S
C712 C711 1.398 . S
C712 C713 1.391 . S
C713 H701 0.950 . S
C713 C709 1.393 . S
C713 C712 1.391 . S
C714 H704 0.950 . S
C714 C715 1.386 . S
C714 C716 1.391 . S
C715 C714 1.386 . S
C715 C719 1.393 . S
C716 H705 0.950 . S
C716 C714 1.391 . S
C716 C717 1.400 . S
C717 C711 1.491 1_455 S
C717 C716 1.400 . S
C717 C718 1.398 . S
C718 H706 0.950 1_455 S
C718 C717 1.398 . S
C718 C719 1.391 . S
C719 H707 0.950 . S
C719 C715 1.393 . S
C719 C718 1.391 . S
H720 C728 0.950 . S
H721 C733 0.950 . S
H722 C730 0.950 . S
H723 C732 0.950 . S
H724 C734 0.950 . S
H725 C736 0.950 . S
H726 C738 0.950 . S
H727 C739 0.950 . S
C728 H720 0.950 . S
C728 C729 1.386 . S
C728 C730 1.391 . S
C729 C728 1.386 . S
C729 C733 1.393 . S
C730 H722 0.950 . S
C730 C728 1.391 . S
C730 C731 1.400 . S
C731 C730 1.400 . S
C731 C732 1.398 . S
C731 C737 1.491 . S
C732 H723 0.950 . S
C732 C731 1.398 . S
C732 C733 1.391 . S
C733 H721 0.950 . S
C733 C729 1.393 . S
C733 C732 1.391 . S
C734 H724 0.950 . S
C734 C735 1.386 . S
C734 C736 1.391 . S
C735 C734 1.386 . S
C735 C739 1.393 . S
C736 H725 0.950 . S
C736 C734 1.391 . S
C736 C737 1.400 . S
C737 C731 1.491 . S
C737 C736 1.400 . S
C737 C738 1.398 . S
C738 H726 0.950 . S
C738 C737 1.398 . S
C738 C739 1.391 . S
C739 H727 0.950 . S
C739 C735 1.393 . S
C739 C738 1.391 . S
H740 C748 0.950 . S
H741 C753 0.950 . S
H742 C750 0.950 . S
H743 C752 0.950 . S
H744 C754 0.950 . S
H745 C756 0.950 . S
H746 C758 0.950 . S
H747 C759 0.950 . S
C748 H740 0.950 . S
C748 C749 1.386 . S
C748 C750 1.391 . S
C749 C748 1.386 . S
C749 C753 1.393 . S
C750 H742 0.950 . S
C750 C748 1.391 . S
C750 C751 1.400 . S
C751 C750 1.400 . S
C751 C752 1.398 . S
C751 C757 1.491 . S
C752 H743 0.950 . S
C752 C751 1.398 . S
C752 C753 1.391 . S
C753 H741 0.950 . S
C753 C749 1.393 . S
C753 C752 1.391 . S
C754 H744 0.950 . S
C754 C755 1.386 . S
C754 C756 1.391 . S
C755 C754 1.386 . S
C755 C759 1.393 . S
C756 H745 0.950 . S
C756 C754 1.391 . S
C756 C757 1.400 . S
C757 C751 1.491 . S
C757 C756 1.400 . S
C757 C758 1.398 . S
C758 H746 0.950 . S
C758 C757 1.398 . S
C758 C759 1.391 . S
C759 H747 0.950 . S
C759 C755 1.393 . S
C759 C758 1.391 . S
H760 C768 0.950 . S
H761 C773 0.950 . S
H762 C770 0.950 1_455 S
H763 C772 0.950 . S
H764 C774 0.950 . S
H765 C776 0.950 1_655 S
H766 C778 0.950 . S
H767 C779 0.950 . S
C768 H760 0.950 . S
C768 C769 1.386 . S
C768 C770 1.391 . S
C769 C768 1.386 . S
C769 C773 1.393 . S
C770 H762 0.950 1_655 S
C770 C768 1.391 . S
C770 C771 1.400 . S
C771 C770 1.400 . S
C771 C772 1.398 . S
C771 C777 1.491 1_655 S
C772 H763 0.950 . S
C772 C771 1.398 . S
C772 C773 1.391 . S
C773 H761 0.950 . S
C773 C769 1.393 . S
C773 C772 1.391 . S
C774 H764 0.950 . S
C774 C775 1.386 . S
C774 C776 1.391 . S
C775 C774 1.386 . S
C775 C779 1.393 . S
C776 H765 0.950 1_455 S
C776 C774 1.391 . S
C776 C777 1.400 . S
C777 C771 1.491 1_455 S
C777 C776 1.400 . S
C777 C778 1.398 . S
C778 H766 0.950 . S
C778 C777 1.398 . S
C778 C779 1.391 . S
C779 H767 0.950 . S
C779 C775 1.393 . S
C779 C778 1.391 . S
H780 C788 0.950 . S
H781 C793 0.950 . S
H782 C790 0.950 . S
H783 C792 0.950 1_655 S
H784 C794 0.950 . S
H785 C796 0.950 . S
H786 C798 0.950 1_455 S
H787 C799 0.950 . S
C788 H780 0.950 . S
C788 C789 1.386 . S
C788 C790 1.391 . S
C789 C788 1.386 . S
C789 C793 1.393 . S
C790 H782 0.950 . S
C790 C788 1.391 . S
C790 C791 1.400 . S
C791 C790 1.400 . S
C791 C792 1.398 . S
C791 C797 1.491 1_455 S
C792 H783 0.950 1_455 S
C792 C791 1.398 . S
C792 C793 1.391 . S
C793 H781 0.950 . S
C793 C789 1.393 . S
C793 C792 1.391 . S
C794 H784 0.950 . S
C794 C795 1.386 . S
C794 C796 1.391 . S
C795 C794 1.386 . S
C795 C799 1.393 . S
C796 H785 0.950 . S
C796 C794 1.391 . S
C796 C797 1.400 . S
C797 C791 1.491 1_655 S
C797 C796 1.400 . S
C797 C798 1.398 . S
C798 H786 0.950 1_655 S
C798 C797 1.398 . S
C798 C799 1.391 . S
C799 H787 0.950 . S
C799 C795 1.393 . S
C799 C798 1.391 . S
H800 C808 0.950 . S
H801 C813 0.950 . S
H802 C810 0.950 . S
H803 C812 0.950 . S
H804 C814 0.950 . S
H805 C816 0.950 . S
H806 C818 0.950 . S
H807 C819 0.950 . S
C808 H800 0.950 . S
C808 C809 1.386 . S
C808 C810 1.391 . S
C809 C808 1.386 . S
C809 C813 1.393 . S
C810 H802 0.950 . S
C810 C808 1.391 . S
C810 C811 1.400 . S
C811 C810 1.400 . S
C811 C812 1.398 . S
C811 C817 1.491 . S
C812 H803 0.950 . S
C812 C811 1.398 . S
C812 C813 1.391 . S
C813 H801 0.950 . S
C813 C809 1.393 . S
C813 C812 1.391 . S
C814 H804 0.950 . S
C814 C815 1.386 . S
C814 C816 1.391 . S
C815 C814 1.386 . S
C815 C819 1.393 . S
C816 H805 0.950 . S
C816 C814 1.391 . S
C816 C817 1.400 . S
C817 C811 1.491 . S
C817 C816 1.400 . S
C817 C818 1.398 . S
C818 H806 0.950 . S
C818 C817 1.398 . S
C818 C819 1.391 . S
C819 H807 0.950 . S
C819 C815 1.393 . S
C819 C818 1.391 . S
H820 C828 0.950 . S
H821 C833 0.950 . S
H822 C830 0.950 . S
H823 C832 0.950 . S
H824 C834 0.950 . S
H825 C836 0.950 . S
H826 C838 0.950 . S
H827 C839 0.950 . S
C828 H820 0.950 . S
C828 C829 1.386 . S
C828 C830 1.391 . S
C829 C828 1.386 . S
C829 C833 1.393 . S
C830 H822 0.950 . S
C830 C828 1.391 . S
C830 C831 1.400 . S
C831 C830 1.400 . S
C831 C832 1.398 . S
C831 C837 1.491 . S
C832 H823 0.950 . S
C832 C831 1.398 . S
C832 C833 1.391 . S
C833 H821 0.950 . S
C833 C829 1.393 . S
C833 C832 1.391 . S
C834 H824 0.950 . S
C834 C835 1.386 . S
C834 C836 1.391 . S
C835 C834 1.386 . S
C835 C839 1.393 . S
C836 H825 0.950 . S
C836 C834 1.391 . S
C836 C837 1.400 . S
C837 C831 1.491 . S
C837 C836 1.400 . S
C837 C838 1.398 . S
C838 H826 0.950 . S
C838 C837 1.398 . S
C838 C839 1.391 . S
C839 H827 0.950 . S
C839 C835 1.393 . S
C839 C838 1.391 . S
H840 C848 0.950 . S
H841 C853 0.950 . S
H842 C850 0.950 . S
H843 C852 0.950 . S
H844 C854 0.950 . S
H845 C856 0.950 . S
H846 C858 0.950 . S
H847 C859 0.950 . S
C848 H840 0.950 . S
C848 C849 1.386 . S
C848 C850 1.391 . S
C849 C848 1.386 . S
C849 C853 1.393 . S
C850 H842 0.950 . S
C850 C848 1.391 . S
C850 C851 1.400 . S
C851 C850 1.400 . S
C851 C852 1.398 . S
C851 C857 1.491 . S
C852 H843 0.950 . S
C852 C851 1.398 . S
C852 C853 1.391 . S
C853 H841 0.950 . S
C853 C849 1.393 . S
C853 C852 1.391 . S
C854 H844 0.950 . S
C854 C855 1.386 . S
C854 C856 1.391 . S
C855 C854 1.386 . S
C855 C859 1.393 . S
C856 H845 0.950 . S
C856 C854 1.391 . S
C856 C857 1.400 . S
C857 C851 1.491 . S
C857 C856 1.400 . S
C857 C858 1.398 . S
C858 H846 0.950 . S
C858 C857 1.398 . S
C858 C859 1.391 . S
C859 H847 0.950 . S
C859 C855 1.393 . S
C859 C858 1.391 . S
H860 C868 0.950 . S
H861 C873 0.950 . S
H862 C870 0.950 . S
H863 C872 0.950 . S
H864 C874 0.950 . S
H865 C876 0.950 . S
H866 C878 0.950 . S
H867 C879 0.950 . S
C868 H860 0.950 . S
C868 C869 1.386 . S
C868 C870 1.391 . S
C869 C868 1.386 . S
C869 C873 1.393 . S
C870 H862 0.950 . S
C870 C868 1.391 . S
C870 C871 1.400 . S
C871 C870 1.400 . S
C871 C872 1.398 . S
C871 C877 1.491 . S
C872 H863 0.950 . S
C872 C871 1.398 . S
C872 C873 1.391 . S
C873 H861 0.950 . S
C873 C869 1.393 . S
C873 C872 1.391 . S
C874 H864 0.950 . S
C874 C875 1.386 . S
C874 C876 1.391 . S
C875 C874 1.386 . S
C875 C879 1.393 . S
C876 H865 0.950 . S
C876 C874 1.391 . S
C876 C877 1.400 . S
C877 C871 1.491 . S
C877 C876 1.400 . S
C877 C878 1.398 . S
C878 H866 0.950 . S
C878 C877 1.398 . S
C878 C879 1.391 . S
C879 H867 0.950 . S
C879 C875 1.393 . S
C879 C878 1.391 . S
H880 C888 0.950 . S
H881 C893 0.950 1_556 S
H882 C890 0.950 . S
H883 C892 0.950 . S
H884 C894 0.950 . S
H885 C896 0.950 . S
H886 C898 0.950 . S
H887 C899 0.950 . S
C888 H880 0.950 . S
C888 C889 1.386 . S
C888 C890 1.391 . S
C889 C888 1.386 . S
C889 C893 1.393 . S
C890 H882 0.950 . S
C890 C888 1.391 . S
C890 C891 1.400 . S
C891 C890 1.400 . S
C891 C892 1.398 . S
C891 C897 1.491 . S
C892 H883 0.950 . S
C892 C891 1.398 . S
C892 C893 1.391 . S
C893 H881 0.950 1_554 S
C893 C889 1.393 . S
C893 C892 1.391 . S
C894 H884 0.950 . S
C894 C895 1.386 . S
C894 C896 1.391 . S
C895 C894 1.386 . S
C895 C899 1.393 . S
C896 H885 0.950 . S
C896 C894 1.391 . S
C896 C897 1.400 . S
C897 C891 1.491 . S
C897 C896 1.400 . S
C897 C898 1.398 . S
C898 H886 0.950 . S
C898 C897 1.398 . S
C898 C899 1.391 . S
C899 H887 0.950 . S
C899 C895 1.393 . S
C899 C898 1.391 . S
H900 C908 0.950 . S
H901 C913 0.950 . S
H902 C910 0.950 . S
H903 C912 0.950 . S
H904 C914 0.950 . S
H905 C916 0.950 . S
H906 C918 0.950 . S
H907 C919 0.950 . S
C908 H900 0.950 . S
C908 C909 1.386 . S
C908 C910 1.391 . S
C909 C908 1.386 . S
C909 C913 1.393 . S
C910 H902 0.950 . S
C910 C908 1.391 . S
C910 C911 1.400 . S
C911 C910 1.400 . S
C911 C912 1.398 . S
C911 C917 1.491 . S
C912 H903 0.950 . S
C912 C911 1.398 . S
C912 C913 1.391 . S
C913 H901 0.950 . S
C913 C909 1.393 . S
C913 C912 1.391 . S
C914 H904 0.950 . S
C914 C915 1.386 . S
C914 C916 1.391 . S
C915 C914 1.386 . S
C915 C919 1.393 . S
C916 H905 0.950 . S
C916 C914 1.391 . S
C916 C917 1.400 . S
C917 C911 1.491 . S
C917 C916 1.400 . S
C917 C918 1.398 . S
C918 H906 0.950 . S
C918 C917 1.398 . S
C918 C919 1.391 . S
C919 H907 0.950 . S
C919 C915 1.393 . S
C919 C918 1.391 . S
H920 C928 0.950 . S
H921 C933 0.950 . S
H922 C930 0.950 . S
H923 C932 0.950 . S
H924 C934 0.950 . S
H925 C936 0.950 . S
H926 C938 0.950 . S
H927 C939 0.950 . S
C928 H920 0.950 . S
C928 C929 1.386 . S
C928 C930 1.391 . S
C929 C928 1.386 . S
C929 C933 1.393 . S
C930 H922 0.950 . S
C930 C928 1.391 . S
C930 C931 1.400 . S
C931 C930 1.400 . S
C931 C932 1.398 . S
C931 C937 1.491 . S
C932 H923 0.950 . S
C932 C931 1.398 . S
C932 C933 1.391 . S
C933 H921 0.950 . S
C933 C929 1.393 . S
C933 C932 1.391 . S
C934 H924 0.950 . S
C934 C935 1.386 . S
C934 C936 1.391 . S
C935 C934 1.386 . S
C935 C939 1.393 . S
C936 H925 0.950 . S
C936 C934 1.391 . S
C936 C937 1.400 . S
C937 C931 1.491 . S
C937 C936 1.400 . S
C937 C938 1.398 . S
C938 H926 0.950 . S
C938 C937 1.398 . S
C938 C939 1.391 . S
C939 H927 0.950 . S
C939 C935 1.393 . S
C939 C938 1.391 . S
H940 C948 0.950 . S
H941 C953 0.950 . S
H942 C950 0.950 . S
H943 C952 0.950 . S
H944 C954 0.950 . S
H945 C956 0.950 . S
H946 C958 0.950 . S
H947 C959 0.950 . S
C948 H940 0.950 . S
C948 C949 1.386 . S
C948 C950 1.391 . S
C949 C948 1.386 . S
C949 C953 1.393 . S
C950 H942 0.950 . S
C950 C948 1.391 . S
C950 C951 1.400 . S
C951 C950 1.400 . S
C951 C952 1.398 . S
C951 C957 1.491 . S
C952 H943 0.950 . S
C952 C951 1.398 . S
C952 C953 1.391 . S
C953 H941 0.950 . S
C953 C949 1.393 . S
C953 C952 1.391 . S
C954 H944 0.950 . S
C954 C955 1.386 . S
C954 C956 1.391 . S
C955 C954 1.386 . S
C955 C959 1.393 . S
C956 H945 0.950 . S
C956 C954 1.391 . S
C956 C957 1.400 . S
C957 C951 1.491 . S
C957 C956 1.400 . S
C957 C958 1.398 . S
C958 H946 0.950 . S
C958 C957 1.398 . S
C958 C959 1.391 . S
C959 H947 0.950 . S
C959 C955 1.393 . S
C959 C958 1.391 . S
H960 C968 0.950 . S
H961 C973 0.950 . S
H962 C970 0.950 . S
H963 C972 0.950 . S
H964 C974 0.950 . S
H965 C976 0.950 . S
H966 C978 0.950 . S
H967 C979 0.950 . S
C968 H960 0.950 . S
C968 C969 1.386 . S
C968 C970 1.391 . S
C969 C968 1.386 . S
C969 C973 1.393 . S
C970 H962 0.950 . S
C970 C968 1.391 . S
C970 C971 1.400 . S
C971 C970 1.400 . S
C971 C972 1.398 . S
C971 C977 1.491 . S
C972 H963 0.950 . S
C972 C971 1.398 . S
C972 C973 1.391 . S
C973 H961 0.950 . S
C973 C969 1.393 . S
C973 C972 1.391 . S
C974 H964 0.950 . S
C974 C975 1.386 . S
C974 C976 1.391 . S
C975 C974 1.386 . S
C975 C979 1.393 . S
C976 H965 0.950 . S
C976 C974 1.391 . S
C976 C977 1.400 . S
C977 C971 1.491 . S
C977 C976 1.400 . S
C977 C978 1.398 . S
C978 H966 0.950 . S
C978 C977 1.398 . S
C978 C979 1.391 . S
C979 H967 0.950 . S
C979 C975 1.393 . S
C979 C978 1.391 . S
H980 C988 0.950 . S
H981 C993 0.950 . S
H982 C990 0.950 1_565 S
H983 C992 0.950 . S
H984 C994 0.950 . S
H985 C996 0.950 . S
H986 C998 0.950 . S
H987 C999 0.950 . S
C988 H980 0.950 . S
C988 C989 1.386 . S
C988 C990 1.391 . S
C989 C988 1.386 . S
C989 C993 1.393 . S
C990 H982 0.950 1_545 S
C990 C988 1.391 . S
C990 C991 1.400 1_545 S
C991 C990 1.400 1_565 S
C991 C992 1.398 . S
C991 C997 1.491 . S
C992 H983 0.950 . S
C992 C991 1.398 . S
C992 C993 1.391 1_565 S
C993 H981 0.950 . S
C993 C989 1.393 . S
C993 C992 1.391 1_545 S
C994 H984 0.950 . S
C994 C995 1.386 . S
C994 C996 1.391 . S
C995 C994 1.386 . S
C995 C999 1.393 . S
C996 H985 0.950 . S
C996 C994 1.391 . S
C996 C997 1.400 . S
C997 C991 1.491 . S
C997 C996 1.400 . S
C997 C998 1.398 . S
C998 H986 0.950 . S
C998 C997 1.398 . S
C998 C999 1.391 . S
C999 H987 0.950 . S
C999 C995 1.393 . S
C999 C998 1.391 . S
H1000 C1008 0.950 . S
H1001 C1013 0.950 1_554 S
H1002 C1010 0.950 . S
H1003 C1012 0.950 . S
H1004 C1014 0.950 . S
H1005 C1016 0.950 . S
H1006 C1018 0.950 . S
H1007 C1019 0.950 . S
C1008 H1000 0.950 . S
C1008 C1009 1.386 . S
C1008 C1010 1.391 . S
C1009 C1008 1.386 . S
C1009 C1013 1.393 . S
C1010 H1002 0.950 . S
C1010 C1008 1.391 . S
C1010 C1011 1.400 . S
C1011 C1010 1.400 . S
C1011 C1012 1.398 . S
C1011 C1017 1.491 . S
C1012 H1003 0.950 . S
C1012 C1011 1.398 . S
C1012 C1013 1.391 . S
C1013 H1001 0.950 1_556 S
C1013 C1009 1.393 . S
C1013 C1012 1.391 . S
C1014 H1004 0.950 . S
C1014 C1015 1.386 . S
C1014 C1016 1.391 . S
C1015 C1014 1.386 . S
C1015 C1019 1.393 . S
C1016 H1005 0.950 . S
C1016 C1014 1.391 . S
C1016 C1017 1.400 . S
C1017 C1011 1.491 . S
C1017 C1016 1.400 . S
C1017 C1018 1.398 . S
C1018 H1006 0.950 . S
C1018 C1017 1.398 . S
C1018 C1019 1.391 . S
C1019 H1007 0.950 . S
C1019 C1015 1.393 . S
C1019 C1018 1.391 . S
H1020 C1028 0.950 . S
H1021 C1033 0.950 . S
H1022 C1030 0.950 . S
H1023 C1032 0.950 . S
H1024 C1034 0.950 . S
H1025 C1036 0.950 . S
H1026 C1038 0.950 . S
H1027 C1039 0.950 . S
C1028 H1020 0.950 . S
C1028 C1029 1.386 . S
C1028 C1030 1.391 . S
C1029 C1028 1.386 . S
C1029 C1033 1.393 . S
C1030 H1022 0.950 . S
C1030 C1028 1.391 . S
C1030 C1031 1.400 1_565 S
C1031 C1030 1.400 1_545 S
C1031 C1032 1.398 . S
C1031 C1037 1.491 . S
C1032 H1023 0.950 . S
C1032 C1031 1.398 . S
C1032 C1033 1.391 1_545 S
C1033 H1021 0.950 . S
C1033 C1029 1.393 . S
C1033 C1032 1.391 1_565 S
C1034 H1024 0.950 . S
C1034 C1035 1.386 . S
C1034 C1036 1.391 . S
C1035 C1034 1.386 . S
C1035 C1039 1.393 . S
C1036 H1025 0.950 . S
C1036 C1034 1.391 . S
C1036 C1037 1.400 . S
C1037 C1031 1.491 . S
C1037 C1036 1.400 . S
C1037 C1038 1.398 . S
C1038 H1026 0.950 . S
C1038 C1037 1.398 . S
C1038 C1039 1.391 . S
C1039 H1027 0.950 . S
C1039 C1035 1.393 . S
C1039 C1038 1.391 . S
H1040 C1048 0.950 . S
H1041 C1053 0.950 . S
H1042 C1050 0.950 . S
H1043 C1052 0.950 . S
H1044 C1054 0.950 . S
H1045 C1056 0.950 . S
H1046 C1058 0.950 . S
H1047 C1059 0.950 . S
C1048 H1040 0.950 . S
C1048 C1049 1.386 . S
C1048 C1050 1.391 . S
C1049 C1048 1.386 . S
C1049 C1053 1.393 . S
C1050 H1042 0.950 . S
C1050 C1048 1.391 . S
C1050 C1051 1.400 . S
C1051 C1050 1.400 . S
C1051 C1052 1.398 . S
C1051 C1057 1.491 . S
C1052 H1043 0.950 . S
C1052 C1051 1.398 . S
C1052 C1053 1.391 . S
C1053 H1041 0.950 . S
C1053 C1049 1.393 . S
C1053 C1052 1.391 . S
C1054 H1044 0.950 . S
C1054 C1055 1.386 . S
C1054 C1056 1.391 . S
C1055 C1054 1.386 . S
C1055 C1059 1.393 . S
C1056 H1045 0.950 . S
C1056 C1054 1.391 . S
C1056 C1057 1.400 . S
C1057 C1051 1.491 . S
C1057 C1056 1.400 . S
C1057 C1058 1.398 . S
C1058 H1046 0.950 . S
C1058 C1057 1.398 . S
C1058 C1059 1.391 . S
C1059 H1047 0.950 . S
C1059 C1055 1.393 . S
C1059 C1058 1.391 . S
H1060 C1068 0.950 . S
H1061 C1073 0.950 . S
H1062 C1070 0.950 . S
H1063 C1072 0.950 . S
H1064 C1074 0.950 . S
H1065 C1076 0.968 . S
H1066 C1078 0.950 1_545 S
H1067 C1079 0.950 . S
C1068 H1060 0.950 . S
C1068 C1069 1.386 . S
C1068 C1070 1.391 . S
C1069 C1068 1.386 . S
C1069 C1073 1.393 . S
C1070 H1062 0.950 . S
C1070 C1068 1.391 . S
C1070 C1071 1.400 . S
C1071 C1070 1.400 . S
C1071 C1072 1.398 . S
C1071 C1077 1.491 . S
C1072 H1063 0.950 . S
C1072 C1071 1.398 . S
C1072 C1073 1.391 . S
C1073 H1061 0.950 . S
C1073 C1069 1.393 . S
C1073 C1072 1.391 . S
C1074 H1064 0.950 . S
C1074 C1075 1.386 . S
C1074 C1076 1.359 1_565 S
C1075 C1074 1.386 . S
C1075 C1079 1.393 . S
C1076 H1065 0.968 . S
C1076 C1074 1.359 1_545 S
C1076 C1077 1.417 . S
C1077 C1071 1.491 . S
C1077 C1076 1.417 . S
C1077 C1078 1.398 1_545 S
C1078 H1066 0.950 1_565 S
C1078 C1077 1.398 1_565 S
C1078 C1079 1.390 . S
C1079 H1067 0.950 . S
C1079 C1075 1.393 . S
C1079 C1078 1.390 . S
H1080 C1088 0.950 . S
H1081 C1093 0.950 . S
H1082 C1090 0.950 . S
H1083 C1092 0.950 . S
H1084 C1094 0.950 . S
H1085 C1096 0.950 . S
H1086 C1098 0.950 . S
H1087 C1099 0.950 . S
C1088 H1080 0.950 . S
C1088 C1089 1.386 . S
C1088 C1090 1.391 . S
C1089 C1088 1.386 . S
C1089 C1093 1.393 . S
C1090 H1082 0.950 . S
C1090 C1088 1.391 . S
C1090 C1091 1.400 . S
C1091 C1090 1.400 . S
C1091 C1092 1.398 . S
C1091 C1097 1.491 . S
C1092 H1083 0.950 . S
C1092 C1091 1.398 . S
C1092 C1093 1.391 . S
C1093 H1081 0.950 . S
C1093 C1089 1.393 . S
C1093 C1092 1.391 . S
C1094 H1084 0.950 . S
C1094 C1095 1.386 . S
C1094 C1096 1.391 . S
C1095 C1094 1.386 . S
C1095 C1099 1.393 . S
C1096 H1085 0.950 . S
C1096 C1094 1.391 . S
C1096 C1097 1.400 . S
C1097 C1091 1.491 . S
C1097 C1096 1.400 . S
C1097 C1098 1.398 . S
C1098 H1086 0.950 . S
C1098 C1097 1.398 . S
C1098 C1099 1.391 . S
C1099 H1087 0.950 . S
C1099 C1095 1.393 . S
C1099 C1098 1.391 . S
H1100 C1108 0.950 . S
H1101 C1113 0.950 . S
H1102 C1110 0.950 . S
H1103 C1112 0.950 . S
H1104 C1114 0.950 . S
H1105 C1116 0.950 . S
H1106 C1118 0.950 . S
H1107 C1119 0.950 . S
C1108 H1100 0.950 . S
C1108 C1109 1.386 . S
C1108 C1110 1.391 . S
C1109 C1108 1.386 . S
C1109 C1113 1.393 . S
C1110 H1102 0.950 . S
C1110 C1108 1.391 . S
C1110 C1111 1.400 1_545 S
C1111 C1110 1.400 1_565 S
C1111 C1112 1.398 . S
C1111 C1117 1.491 . S
C1112 H1103 0.950 . S
C1112 C1111 1.398 . S
C1112 C1113 1.391 1_565 S
C1113 H1101 0.950 . S
C1113 C1109 1.393 . S
C1113 C1112 1.391 1_545 S
C1114 H1104 0.950 . S
C1114 C1115 1.386 . S
C1114 C1116 1.391 . S
C1115 C1114 1.386 . S
C1115 C1119 1.393 . S
C1116 H1105 0.950 . S
C1116 C1114 1.391 . S
C1116 C1117 1.400 . S
C1117 C1111 1.491 . S
C1117 C1116 1.400 . S
C1117 C1118 1.398 . S
C1118 H1106 0.950 . S
C1118 C1117 1.398 . S
C1118 C1119 1.391 . S
C1119 H1107 0.950 . S
C1119 C1115 1.393 . S
C1119 C1118 1.391 . S
H1120 C1128 0.950 . S
H1121 C1133 0.950 . S
H1122 C1130 0.950 . S
H1123 C1132 0.950 . S
H1124 C1134 0.950 . S
H1125 C1136 0.950 . S
H1126 C1138 0.950 . S
H1127 C1139 0.950 . S
C1128 H1120 0.950 . S
C1128 C1129 1.386 . S
C1128 C1130 1.391 . S
C1129 C1128 1.386 . S
C1129 C1133 1.393 . S
C1130 H1122 0.950 . S
C1130 C1128 1.391 . S
C1130 C1131 1.400 . S
C1131 C1130 1.400 . S
C1131 C1132 1.398 . S
C1131 C1137 1.491 . S
C1132 H1123 0.950 . S
C1132 C1131 1.398 . S
C1132 C1133 1.391 . S
C1133 H1121 0.950 . S
C1133 C1129 1.393 . S
C1133 C1132 1.391 . S
C1134 H1124 0.950 . S
C1134 C1135 1.386 . S
C1134 C1136 1.391 . S
C1135 C1134 1.386 . S
C1135 C1139 1.393 . S
C1136 H1125 0.950 . S
C1136 C1134 1.391 . S
C1136 C1137 1.400 . S
C1137 C1131 1.491 . S
C1137 C1136 1.400 . S
C1137 C1138 1.398 . S
C1138 H1126 0.950 . S
C1138 C1137 1.398 . S
C1138 C1139 1.391 . S
C1139 H1127 0.950 . S
C1139 C1135 1.393 . S
C1139 C1138 1.391 . S
H1140 C1148 0.950 . S
H1141 C1153 0.950 . S
H1142 C1150 0.950 . S
H1143 C1152 0.950 . S
H1144 C1154 0.950 1_556 S
H1145 C1156 0.950 . S
H1146 C1158 0.950 . S
H1147 C1159 0.950 . S
C1148 H1140 0.950 . S
C1148 C1149 1.386 . S
C1148 C1150 1.391 . S
C1149 C1148 1.386 . S
C1149 C1153 1.393 . S
C1150 H1142 0.950 . S
C1150 C1148 1.391 . S
C1150 C1151 1.400 . S
C1151 C1150 1.400 . S
C1151 C1152 1.398 . S
C1151 C1157 1.491 . S
C1152 H1143 0.950 . S
C1152 C1151 1.398 . S
C1152 C1153 1.391 . S
C1153 H1141 0.950 . S
C1153 C1149 1.393 . S
C1153 C1152 1.391 . S
C1154 H1144 0.950 1_554 S
C1154 C1155 1.386 . S
C1154 C1156 1.391 . S
C1155 C1154 1.386 . S
C1155 C1159 1.393 . S
C1156 H1145 0.950 . S
C1156 C1154 1.391 . S
C1156 C1157 1.400 . S
C1157 C1151 1.491 . S
C1157 C1156 1.400 . S
C1157 C1158 1.398 . S
C1158 H1146 0.950 . S
C1158 C1157 1.398 . S
C1158 C1159 1.391 . S
C1159 H1147 0.950 . S
C1159 C1155 1.393 . S
C1159 C1158 1.391 . S
H1160 C1168 0.950 . S
H1161 C1173 0.950 . S
H1162 C1170 0.950 . S
H1163 C1172 0.950 . S
H1164 C1174 0.950 . S
H1165 C1176 0.950 . S
H1166 C1178 0.950 . S
H1167 C1179 0.950 . S
C1168 H1160 0.950 . S
C1168 C1169 1.386 . S
C1168 C1170 1.391 . S
C1169 C1168 1.386 . S
C1169 C1173 1.393 . S
C1170 H1162 0.950 . S
C1170 C1168 1.391 . S
C1170 C1171 1.400 . S
C1171 C1170 1.400 . S
C1171 C1172 1.398 . S
C1171 C1177 1.491 . S
C1172 H1163 0.950 . S
C1172 C1171 1.398 . S
C1172 C1173 1.391 . S
C1173 H1161 0.950 . S
C1173 C1169 1.393 . S
C1173 C1172 1.391 . S
C1174 H1164 0.950 . S
C1174 C1175 1.386 . S
C1174 C1176 1.391 . S
C1175 C1174 1.386 . S
C1175 C1179 1.393 1_455 S
C1176 H1165 0.950 . S
C1176 C1174 1.391 . S
C1176 C1177 1.400 1_455 S
C1177 C1171 1.491 . S
C1177 C1176 1.400 1_655 S
C1177 C1178 1.398 . S
C1178 H1166 0.950 . S
C1178 C1177 1.398 . S
C1178 C1179 1.391 . S
C1179 H1167 0.950 . S
C1179 C1175 1.393 1_655 S
C1179 C1178 1.391 . S
H1180 C1188 0.950 . S
H1181 C1193 0.950 . S
H1182 C1190 0.950 . S
H1183 C1192 0.950 . S
H1184 C1194 0.950 . S
H1185 C1196 0.950 . S
H1186 C1198 0.950 . S
H1187 C1199 0.950 . S
C1188 H1180 0.950 . S
C1188 C1189 1.386 . S
C1188 C1190 1.391 . S
C1189 C1188 1.386 . S
C1189 C1193 1.393 . S
C1190 H1182 0.950 . S
C1190 C1188 1.391 . S
C1190 C1191 1.400 . S
C1191 C1190 1.400 . S
C1191 C1192 1.398 . S
C1191 C1197 1.491 . S
C1192 H1183 0.950 . S
C1192 C1191 1.398 . S
C1192 C1193 1.391 . S
C1193 H1181 0.950 . S
C1193 C1189 1.393 . S
C1193 C1192 1.391 . S
C1194 H1184 0.950 . S
C1194 C1195 1.386 . S
C1194 C1196 1.391 . S
C1195 C1194 1.386 . S
C1195 C1199 1.393 . S
C1196 H1185 0.950 . S
C1196 C1194 1.391 . S
C1196 C1197 1.400 . S
C1197 C1191 1.491 . S
C1197 C1196 1.400 . S
C1197 C1198 1.398 . S
C1198 H1186 0.950 . S
C1198 C1197 1.398 . S
C1198 C1199 1.391 . S
C1199 H1187 0.950 . S
C1199 C1195 1.393 . S
C1199 C1198 1.391 . S
H1200 C1208 0.950 . S
H1201 C1213 0.950 . S
H1202 C1210 0.950 . S
H1203 C1212 0.950 . S
H1204 C1214 0.950 . S
H1205 C1216 0.950 . S
H1206 C1218 0.950 . S
H1207 C1219 0.950 . S
C1208 H1200 0.950 . S
C1208 C1209 1.386 . S
C1208 C1210 1.391 . S
C1209 C1208 1.386 . S
C1209 C1213 1.393 . S
C1210 H1202 0.950 . S
C1210 C1208 1.391 . S
C1210 C1211 1.400 . S
C1211 C1210 1.400 . S
C1211 C1212 1.398 . S
C1211 C1217 1.491 . S
C1212 H1203 0.950 . S
C1212 C1211 1.398 . S
C1212 C1213 1.391 . S
C1213 H1201 0.950 . S
C1213 C1209 1.393 . S
C1213 C1212 1.391 . S
C1214 H1204 0.950 . S
C1214 C1215 1.386 . S
C1214 C1216 1.391 . S
C1215 C1214 1.386 . S
C1215 C1219 1.393 . S
C1216 H1205 0.950 . S
C1216 C1214 1.391 . S
C1216 C1217 1.400 . S
C1217 C1211 1.491 . S
C1217 C1216 1.400 . S
C1217 C1218 1.398 . S
C1218 H1206 0.950 . S
C1218 C1217 1.398 . S
C1218 C1219 1.391 . S
C1219 H1207 0.950 . S
C1219 C1215 1.393 . S
C1219 C1218 1.391 . S
H1220 C1228 0.950 . S
H1221 C1233 0.950 . S
H1222 C1230 0.950 . S
H1223 C1232 0.950 . S
H1224 C1234 0.950 1_554 S
H1225 C1236 0.950 . S
H1226 C1238 0.950 . S
H1227 C1239 0.950 . S
C1228 H1220 0.950 . S
C1228 C1229 1.386 . S
C1228 C1230 1.391 . S
C1229 C1228 1.386 . S
C1229 C1233 1.393 . S
C1230 H1222 0.950 . S
C1230 C1228 1.391 . S
C1230 C1231 1.400 . S
C1231 C1230 1.400 . S
C1231 C1232 1.398 . S
C1231 C1237 1.491 . S
C1232 H1223 0.950 . S
C1232 C1231 1.398 . S
C1232 C1233 1.391 . S
C1233 H1221 0.950 . S
C1233 C1229 1.393 . S
C1233 C1232 1.391 . S
C1234 H1224 0.950 1_556 S
C1234 C1235 1.386 . S
C1234 C1236 1.391 . S
C1235 C1234 1.386 . S
C1235 C1239 1.393 . S
C1236 H1225 0.950 . S
C1236 C1234 1.391 . S
C1236 C1237 1.400 . S
C1237 C1231 1.491 . S
C1237 C1236 1.400 . S
C1237 C1238 1.398 . S
C1238 H1226 0.950 . S
C1238 C1237 1.398 . S
C1238 C1239 1.391 . S
C1239 H1227 0.950 . S
C1239 C1235 1.393 . S
C1239 C1238 1.391 . S
H1240 C1248 0.950 . S
H1241 C1253 0.950 . S
H1242 C1250 0.950 . S
H1243 C1252 0.950 . S
H1244 C1254 0.950 . S
H1245 C1256 0.950 1_655 S
H1246 C1258 0.950 . S
H1247 C1259 0.950 . S
C1248 H1240 0.950 . S
C1248 C1249 1.386 . S
C1248 C1250 1.391 . S
C1249 C1248 1.386 . S
C1249 C1253 1.393 . S
C1250 H1242 0.950 . S
C1250 C1248 1.391 . S
C1250 C1251 1.400 . S
C1251 C1250 1.400 . S
C1251 C1252 1.398 . S
C1251 C1257 1.491 . S
C1252 H1243 0.950 . S
C1252 C1251 1.398 . S
C1252 C1253 1.391 . S
C1253 H1241 0.950 . S
C1253 C1249 1.393 . S
C1253 C1252 1.391 . S
C1254 H1244 0.950 . S
C1254 C1255 1.386 . S
C1254 C1256 1.391 1_655 S
C1255 C1254 1.386 . S
C1255 C1259 1.393 1_655 S
C1256 H1245 0.950 1_455 S
C1256 C1254 1.391 1_455 S
C1256 C1257 1.400 . S
C1257 C1251 1.491 . S
C1257 C1256 1.400 . S
C1257 C1258 1.398 . S
C1258 H1246 0.950 . S
C1258 C1257 1.398 . S
C1258 C1259 1.391 . S
C1259 H1247 0.950 . S
C1259 C1255 1.393 1_455 S
C1259 C1258 1.391 . S
H1260 C1268 0.950 . S
H1261 C1273 0.950 . S
H1262 C1270 0.950 . S
H1263 C1272 0.950 . S
H1264 C1274 0.950 . S
H1265 C1276 0.950 . S
H1266 C1278 0.950 . S
H1267 C1279 0.950 . S
C1268 H1260 0.950 . S
C1268 C1269 1.386 . S
C1268 C1270 1.391 . S
C1269 C1268 1.386 . S
C1269 C1273 1.393 . S
C1270 H1262 0.950 . S
C1270 C1268 1.391 . S
C1270 C1271 1.400 . S
C1271 C1270 1.400 . S
C1271 C1272 1.398 . S
C1271 C1277 1.491 . S
C1272 H1263 0.950 . S
C1272 C1271 1.398 . S
C1272 C1273 1.391 . S
C1273 H1261 0.950 . S
C1273 C1269 1.393 . S
C1273 C1272 1.391 . S
C1274 H1264 0.950 . S
C1274 C1275 1.386 . S
C1274 C1276 1.391 . S
C1275 C1274 1.386 . S
C1275 C1279 1.393 . S
C1276 H1265 0.950 . S
C1276 C1274 1.391 . S
C1276 C1277 1.400 . S
C1277 C1271 1.491 . S
C1277 C1276 1.400 . S
C1277 C1278 1.398 . S
C1278 H1266 0.950 . S
C1278 C1277 1.398 . S
C1278 C1279 1.391 . S
C1279 H1267 0.950 . S
C1279 C1275 1.393 . S
C1279 C1278 1.391 . S
H1280 C1288 0.950 . S
H1281 C1293 0.950 . S
H1282 C1290 0.950 1_655 S
H1283 C1292 0.950 . S
H1284 C1294 0.950 . S
H1285 C1296 0.950 . S
H1286 C1298 0.950 . S
H1287 C1299 0.950 . S
C1288 H1280 0.950 . S
C1288 C1289 1.386 . S
C1288 C1290 1.391 1_655 S
C1289 C1288 1.386 . S
C1289 C1293 1.393 1_655 S
C1290 H1282 0.950 1_455 S
C1290 C1288 1.391 1_455 S
C1290 C1291 1.400 . S
C1291 C1290 1.400 . S
C1291 C1292 1.398 . S
C1291 C1297 1.491 . S
C1292 H1283 0.950 . S
C1292 C1291 1.398 . S
C1292 C1293 1.391 . S
C1293 H1281 0.950 . S
C1293 C1289 1.393 1_455 S
C1293 C1292 1.391 . S
C1294 H1284 0.950 . S
C1294 C1295 1.386 . S
C1294 C1296 1.391 . S
C1295 C1294 1.386 . S
C1295 C1299 1.393 . S
C1296 H1285 0.950 . S
C1296 C1294 1.391 . S
C1296 C1297 1.400 . S
C1297 C1291 1.491 . S
C1297 C1296 1.400 . S
C1297 C1298 1.398 . S
C1298 H1286 0.950 . S
C1298 C1297 1.398 . S
C1298 C1299 1.391 . S
C1299 H1287 0.950 . S
C1299 C1295 1.393 . S
C1299 C1298 1.391 . S
H1300 C1308 0.950 . S
H1301 C1313 0.950 . S
H1302 C1310 0.950 . S
H1303 C1312 0.950 . S
H1304 C1314 0.950 . S
H1305 C1316 0.950 . S
H1306 C1318 0.950 . S
H1307 C1319 0.950 . S
C1308 H1300 0.950 . S
C1308 C1309 1.386 . S
C1308 C1310 1.391 . S
C1309 C1308 1.386 . S
C1309 C1313 1.393 . S
C1310 H1302 0.950 . S
C1310 C1308 1.391 . S
C1310 C1311 1.400 . S
C1311 C1310 1.400 . S
C1311 C1312 1.398 . S
C1311 C1317 1.491 . S
C1312 H1303 0.950 . S
C1312 C1311 1.398 . S
C1312 C1313 1.391 . S
C1313 H1301 0.950 . S
C1313 C1309 1.393 . S
C1313 C1312 1.391 . S
C1314 H1304 0.950 . S
C1314 C1315 1.386 . S
C1314 C1316 1.391 . S
C1315 C1314 1.386 . S
C1315 C1319 1.393 . S
C1316 H1305 0.950 . S
C1316 C1314 1.391 . S
C1316 C1317 1.400 . S
C1317 C1311 1.491 . S
C1317 C1316 1.400 . S
C1317 C1318 1.398 . S
C1318 H1306 0.950 . S
C1318 C1317 1.398 . S
C1318 C1319 1.391 . S
C1319 H1307 0.950 . S
C1319 C1315 1.393 . S
C1319 C1318 1.391 . S
H1320 C1328 0.950 . S
H1321 C1333 0.950 . S
H1322 C1330 0.950 . S
H1323 C1332 0.950 . S
H1324 C1334 0.950 . S
H1325 C1336 0.950 . S
H1326 C1338 0.950 . S
H1327 C1339 0.950 . S
C1328 H1320 0.950 . S
C1328 C1329 1.386 . S
C1328 C1330 1.391 . S
C1329 C1328 1.386 . S
C1329 C1333 1.393 . S
C1330 H1322 0.950 . S
C1330 C1328 1.391 . S
C1330 C1331 1.400 . S
C1331 C1330 1.400 . S
C1331 C1332 1.398 . S
C1331 C1337 1.491 . S
C1332 H1323 0.950 . S
C1332 C1331 1.398 . S
C1332 C1333 1.391 . S
C1333 H1321 0.950 . S
C1333 C1329 1.393 . S
C1333 C1332 1.391 . S
C1334 H1324 0.950 . S
C1334 C1335 1.386 . S
C1334 C1336 1.391 . S
C1335 C1334 1.386 . S
C1335 C1339 1.393 . S
C1336 H1325 0.950 . S
C1336 C1334 1.391 . S
C1336 C1337 1.400 . S
C1337 C1331 1.491 . S
C1337 C1336 1.400 . S
C1337 C1338 1.398 . S
C1338 H1326 0.950 . S
C1338 C1337 1.398 . S
C1338 C1339 1.391 . S
C1339 H1327 0.950 . S
C1339 C1335 1.393 . S
C1339 C1338 1.391 . S
H1340 C1348 0.950 . S
H1341 C1353 0.950 1_556 S
H1342 C1350 0.950 . S
H1343 C1352 0.950 . S
H1344 C1354 0.950 . S
H1345 C1356 0.950 . S
H1346 C1358 0.950 . S
H1347 C1359 0.950 . S
C1348 H1340 0.950 . S
C1348 C1349 1.386 . S
C1348 C1350 1.391 . S
C1349 C1348 1.386 . S
C1349 C1353 1.393 . S
C1350 H1342 0.950 . S
C1350 C1348 1.391 . S
C1350 C1351 1.400 . S
C1351 C1350 1.400 . S
C1351 C1352 1.398 . S
C1351 C1357 1.491 . S
C1352 H1343 0.950 . S
C1352 C1351 1.398 . S
C1352 C1353 1.391 . S
C1353 H1341 0.950 1_554 S
C1353 C1349 1.393 . S
C1353 C1352 1.391 . S
C1354 H1344 0.950 . S
C1354 C1355 1.386 . S
C1354 C1356 1.391 . S
C1355 C1354 1.386 . S
C1355 C1359 1.393 . S
C1356 H1345 0.950 . S
C1356 C1354 1.391 . S
C1356 C1357 1.400 . S
C1357 C1351 1.491 . S
C1357 C1356 1.400 . S
C1357 C1358 1.398 . S
C1358 H1346 0.950 . S
C1358 C1357 1.398 . S
C1358 C1359 1.391 . S
C1359 H1347 0.950 . S
C1359 C1355 1.393 . S
C1359 C1358 1.391 . S
H1360 C1368 0.950 . S
H1361 C1373 0.950 . S
H1362 C1370 0.950 1_455 S
H1363 C1372 0.950 . S
H1364 C1374 0.950 . S
H1365 C1376 0.950 . S
H1366 C1378 0.950 . S
H1367 C1379 0.950 . S
C1368 H1360 0.950 . S
C1368 C1369 1.386 . S
C1368 C1370 1.391 1_455 S
C1369 C1368 1.386 . S
C1369 C1373 1.393 1_455 S
C1370 H1362 0.950 1_655 S
C1370 C1368 1.391 1_655 S
C1370 C1371 1.400 . S
C1371 C1370 1.400 . S
C1371 C1372 1.398 . S
C1371 C1377 1.491 . S
C1372 H1363 0.950 . S
C1372 C1371 1.398 . S
C1372 C1373 1.391 . S
C1373 H1361 0.950 . S
C1373 C1369 1.393 1_655 S
C1373 C1372 1.391 . S
C1374 H1364 0.950 . S
C1374 C1375 1.386 . S
C1374 C1376 1.391 . S
C1375 C1374 1.386 . S
C1375 C1379 1.393 . S
C1376 H1365 0.950 . S
C1376 C1374 1.391 . S
C1376 C1377 1.400 . S
C1377 C1371 1.491 . S
C1377 C1376 1.400 . S
C1377 C1378 1.398 . S
C1378 H1366 0.950 . S
C1378 C1377 1.398 . S
C1378 C1379 1.391 . S
C1379 H1367 0.950 . S
C1379 C1375 1.393 . S
C1379 C1378 1.391 . S
H1380 C1388 0.950 . S
H1381 C1393 0.950 . S
H1382 C1390 0.950 . S
H1383 C1392 0.950 . S
H1384 C1394 0.950 . S
H1385 C1396 0.950 . S
H1386 C1398 0.950 . S
H1387 C1399 0.950 . S
C1388 H1380 0.950 . S
C1388 C1389 1.386 . S
C1388 C1390 1.391 . S
C1389 C1388 1.386 . S
C1389 C1393 1.393 . S
C1390 H1382 0.950 . S
C1390 C1388 1.391 . S
C1390 C1391 1.400 . S
C1391 C1390 1.400 . S
C1391 C1392 1.398 . S
C1391 C1397 1.491 . S
C1392 H1383 0.950 . S
C1392 C1391 1.398 . S
C1392 C1393 1.391 . S
C1393 H1381 0.950 . S
C1393 C1389 1.393 . S
C1393 C1392 1.391 . S
C1394 H1384 0.950 . S
C1394 C1395 1.386 . S
C1394 C1396 1.391 . S
C1395 C1394 1.386 . S
C1395 C1399 1.393 . S
C1396 H1385 0.950 . S
C1396 C1394 1.391 . S
C1396 C1397 1.400 . S
C1397 C1391 1.491 . S
C1397 C1396 1.400 . S
C1397 C1398 1.398 . S
C1398 H1386 0.950 . S
C1398 C1397 1.398 . S
C1398 C1399 1.391 . S
C1399 H1387 0.950 . S
C1399 C1395 1.393 . S
C1399 C1398 1.391 . S
H1400 C1408 0.950 . S
H1401 C1413 0.950 . S
H1402 C1410 0.950 . S
H1403 C1412 0.950 . S
H1404 C1414 0.950 . S
H1405 C1416 0.950 . S
H1406 C1418 0.950 . S
H1407 C1419 0.950 . S
C1408 H1400 0.950 . S
C1408 C1409 1.386 . S
C1408 C1410 1.391 . S
C1409 C1408 1.386 . S
C1409 C1413 1.393 . S
C1410 H1402 0.950 . S
C1410 C1408 1.391 . S
C1410 C1411 1.400 . S
C1411 C1410 1.400 . S
C1411 C1412 1.398 . S
C1411 C1417 1.491 . S
C1412 H1403 0.950 . S
C1412 C1411 1.398 . S
C1412 C1413 1.391 . S
C1413 H1401 0.950 . S
C1413 C1409 1.393 . S
C1413 C1412 1.391 . S
C1414 H1404 0.950 . S
C1414 C1415 1.386 . S
C1414 C1416 1.391 . S
C1415 C1414 1.386 . S
C1415 C1419 1.393 . S
C1416 H1405 0.950 . S
C1416 C1414 1.391 . S
C1416 C1417 1.400 . S
C1417 C1411 1.491 . S
C1417 C1416 1.400 . S
C1417 C1418 1.398 . S
C1418 H1406 0.950 . S
C1418 C1417 1.398 . S
C1418 C1419 1.391 . S
C1419 H1407 0.950 . S
C1419 C1415 1.393 . S
C1419 C1418 1.391 . S
H1420 C1428 0.950 1_554 S
H1421 C1433 0.950 . S
H1422 C1430 0.950 . S
H1423 C1432 0.950 . S
H1424 C1434 0.950 . S
H1425 C1436 0.950 . S
H1426 C1438 0.950 . S
H1427 C1439 0.950 . S
C1428 H1420 0.950 1_556 S
C1428 C1429 1.386 . S
C1428 C1430 1.391 . S
C1429 C1428 1.386 . S
C1429 C1433 1.393 . S
C1430 H1422 0.950 . S
C1430 C1428 1.391 . S
C1430 C1431 1.400 . S
C1431 C1430 1.400 . S
C1431 C1432 1.398 . S
C1431 C1437 1.491 . S
C1432 H1423 0.950 . S
C1432 C1431 1.398 . S
C1432 C1433 1.391 . S
C1433 H1421 0.950 . S
C1433 C1429 1.393 . S
C1433 C1432 1.391 . S
C1434 H1424 0.950 . S
C1434 C1435 1.386 . S
C1434 C1436 1.391 . S
C1435 C1434 1.386 . S
C1435 C1439 1.393 . S
C1436 H1425 0.950 . S
C1436 C1434 1.391 . S
C1436 C1437 1.400 . S
C1437 C1431 1.491 . S
C1437 C1436 1.400 . S
C1437 C1438 1.398 . S
C1438 H1426 0.950 . S
C1438 C1437 1.398 . S
C1438 C1439 1.391 . S
C1439 H1427 0.950 . S
C1439 C1435 1.393 . S
C1439 C1438 1.391 . S
H1440 C1448 0.950 . S
H1441 C1453 0.950 . S
H1442 C1450 0.950 . S
H1443 C1452 0.950 . S
H1444 C1454 0.950 . S
H1445 C1456 0.950 . S
H1446 C1458 0.950 . S
H1447 C1459 0.950 . S
C1448 H1440 0.950 . S
C1448 C1449 1.386 . S
C1448 C1450 1.391 . S
C1449 C1448 1.386 . S
C1449 C1453 1.393 . S
C1450 H1442 0.950 . S
C1450 C1448 1.391 . S
C1450 C1451 1.400 . S
C1451 C1450 1.400 . S
C1451 C1452 1.398 . S
C1451 C1457 1.491 . S
C1452 H1443 0.950 . S
C1452 C1451 1.398 . S
C1452 C1453 1.391 . S
C1453 H1441 0.950 . S
C1453 C1449 1.393 . S
C1453 C1452 1.391 . S
C1454 H1444 0.950 . S
C1454 C1455 1.386 . S
C1454 C1456 1.391 . S
C1455 C1454 1.386 . S
C1455 C1459 1.393 . S
C1456 H1445 0.950 . S
C1456 C1454 1.391 . S
C1456 C1457 1.400 . S
C1457 C1451 1.491 . S
C1457 C1456 1.400 . S
C1457 C1458 1.398 . S
C1458 H1446 0.950 . S
C1458 C1457 1.398 . S
C1458 C1459 1.391 . S
C1459 H1447 0.950 . S
C1459 C1455 1.393 . S
C1459 C1458 1.391 . S
H1460 C1468 0.950 . S
H1461 C1473 0.950 . S
H1462 C1470 0.950 . S
H1463 C1472 0.950 . S
H1464 C1474 0.950 . S
H1465 C1476 0.950 . S
H1466 C1478 0.950 . S
H1467 C1479 0.950 . S
C1468 H1460 0.950 . S
C1468 C1469 1.386 . S
C1468 C1470 1.391 . S
C1469 C1468 1.386 . S
C1469 C1473 1.393 . S
C1470 H1462 0.950 . S
C1470 C1468 1.391 . S
C1470 C1471 1.400 . S
C1471 C1470 1.400 . S
C1471 C1472 1.398 . S
C1471 C1477 1.491 . S
C1472 H1463 0.950 . S
C1472 C1471 1.398 . S
C1472 C1473 1.391 . S
C1473 H1461 0.950 . S
C1473 C1469 1.393 . S
C1473 C1472 1.391 . S
C1474 H1464 0.950 . S
C1474 C1475 1.386 . S
C1474 C1476 1.391 . S
C1475 C1474 1.386 . S
C1475 C1479 1.393 . S
C1476 H1465 0.950 . S
C1476 C1474 1.391 . S
C1476 C1477 1.400 . S
C1477 C1471 1.491 . S
C1477 C1476 1.400 . S
C1477 C1478 1.398 . S
C1478 H1466 0.950 . S
C1478 C1477 1.398 . S
C1478 C1479 1.391 . S
C1479 H1467 0.950 . S
C1479 C1475 1.393 . S
C1479 C1478 1.391 . S
H1480 C1488 0.950 . S
H1481 C1493 0.950 . S
H1482 C1490 0.950 . S
H1483 C1492 0.950 . S
H1484 C1494 0.950 . S
H1485 C1496 0.950 . S
H1486 C1498 0.950 . S
H1487 C1499 0.950 . S
C1488 H1480 0.950 . S
C1488 C1489 1.386 . S
C1488 C1490 1.391 . S
C1489 C1488 1.386 . S
C1489 C1493 1.393 . S
C1490 H1482 0.950 . S
C1490 C1488 1.391 . S
C1490 C1491 1.400 . S
C1491 C1490 1.400 . S
C1491 C1492 1.398 . S
C1491 C1497 1.491 . S
C1492 H1483 0.950 . S
C1492 C1491 1.398 . S
C1492 C1493 1.391 . S
C1493 H1481 0.950 . S
C1493 C1489 1.393 . S
C1493 C1492 1.391 . S
C1494 H1484 0.950 . S
C1494 C1495 1.386 . S
C1494 C1496 1.391 . S
C1495 C1494 1.386 . S
C1495 C1499 1.393 . S
C1496 H1485 0.950 . S
C1496 C1494 1.391 . S
C1496 C1497 1.400 . S
C1497 C1491 1.491 . S
C1497 C1496 1.400 . S
C1497 C1498 1.398 . S
C1498 H1486 0.950 . S
C1498 C1497 1.398 . S
C1498 C1499 1.391 . S
C1499 H1487 0.950 . S
C1499 C1495 1.393 . S
C1499 C1498 1.391 . S
H1500 C1508 0.950 . S
H1501 C1513 0.950 . S
H1502 C1510 0.950 . S
H1503 C1512 0.950 . S
H1504 C1514 0.950 . S
H1505 C1516 0.950 . S
H1506 C1518 0.950 . S
H1507 C1519 0.950 . S
C1508 H1500 0.950 . S
C1508 C1509 1.386 . S
C1508 C1510 1.391 . S
C1509 C1508 1.386 . S
C1509 C1513 1.393 . S
C1510 H1502 0.950 . S
C1510 C1508 1.391 . S
C1510 C1511 1.400 . S
C1511 C1510 1.400 . S
C1511 C1512 1.398 . S
C1511 C1517 1.491 1_454 S
C1512 H1503 0.950 . S
C1512 C1511 1.398 . S
C1512 C1513 1.391 . S
C1513 H1501 0.950 . S
C1513 C1509 1.393 . S
C1513 C1512 1.391 . S
C1514 H1504 0.950 . S
C1514 C1515 1.386 . S
C1514 C1516 1.391 . S
C1515 C1514 1.386 . S
C1515 C1519 1.393 . S
C1516 H1505 0.950 . S
C1516 C1514 1.391 . S
C1516 C1517 1.400 . S
C1517 C1511 1.491 1_656 S
C1517 C1516 1.400 . S
C1517 C1518 1.398 . S
C1518 H1506 0.950 . S
C1518 C1517 1.398 . S
C1518 C1519 1.391 . S
C1519 H1507 0.950 . S
C1519 C1515 1.393 . S
C1519 C1518 1.391 . S
H1520 C1528 0.950 . S
H1521 C1533 0.950 . S
H1522 C1530 0.950 . S
H1523 C1532 0.950 . S
H1524 C1534 0.950 . S
H1525 C1536 0.950 . S
H1526 C1538 0.950 . S
H1527 C1539 0.950 . S
C1528 H1520 0.950 . S
C1528 C1529 1.386 . S
C1528 C1530 1.391 . S
C1529 C1528 1.386 . S
C1529 C1533 1.393 . S
C1530 H1522 0.950 . S
C1530 C1528 1.391 . S
C1530 C1531 1.400 . S
C1531 C1530 1.400 . S
C1531 C1532 1.398 . S
C1531 C1537 1.491 . S
C1532 H1523 0.950 . S
C1532 C1531 1.398 . S
C1532 C1533 1.391 . S
C1533 H1521 0.950 . S
C1533 C1529 1.393 . S
C1533 C1532 1.391 . S
C1534 H1524 0.950 . S
C1534 C1535 1.386 . S
C1534 C1536 1.391 . S
C1535 C1534 1.386 . S
C1535 C1539 1.393 . S
C1536 H1525 0.950 . S
C1536 C1534 1.391 . S
C1536 C1537 1.400 . S
C1537 C1531 1.491 . S
C1537 C1536 1.400 . S
C1537 C1538 1.398 . S
C1538 H1526 0.950 . S
C1538 C1537 1.398 . S
C1538 C1539 1.391 . S
C1539 H1527 0.950 . S
C1539 C1535 1.393 . S
C1539 C1538 1.391 . S
H1540 C1548 0.950 . S
H1541 C1553 0.950 . S
H1542 C1550 0.950 . S
H1543 C1552 0.950 . S
H1544 C1554 0.950 . S
H1545 C1556 0.950 . S
H1546 C1558 0.950 . S
H1547 C1559 0.950 . S
C1548 H1540 0.950 . S
C1548 C1549 1.386 . S
C1548 C1550 1.391 . S
C1549 C1548 1.386 . S
C1549 C1553 1.393 . S
C1550 H1542 0.950 . S
C1550 C1548 1.391 . S
C1550 C1551 1.400 . S
C1551 C1550 1.400 . S
C1551 C1552 1.398 . S
C1551 C1557 1.491 . S
C1552 H1543 0.950 . S
C1552 C1551 1.398 . S
C1552 C1553 1.391 . S
C1553 H1541 0.950 . S
C1553 C1549 1.393 . S
C1553 C1552 1.391 . S
C1554 H1544 0.950 . S
C1554 C1555 1.386 . S
C1554 C1556 1.391 . S
C1555 C1554 1.386 . S
C1555 C1559 1.393 . S
C1556 H1545 0.950 . S
C1556 C1554 1.391 . S
C1556 C1557 1.400 . S
C1557 C1551 1.491 . S
C1557 C1556 1.400 . S
C1557 C1558 1.398 . S
C1558 H1546 0.950 . S
C1558 C1557 1.398 . S
C1558 C1559 1.391 . S
C1559 H1547 0.950 . S
C1559 C1555 1.393 . S
C1559 C1558 1.391 . S
H1560 C1568 0.950 . S
H1561 C1573 0.950 . S
H1562 C1570 0.950 1_655 S
H1563 C1572 0.950 1_554 S
H1564 C1574 0.950 . S
H1565 C1576 0.950 1_455 S
H1566 C1578 0.950 1_556 S
H1567 C1579 0.950 . S
C1568 H1560 0.950 . S
C1568 C1569 1.386 . S
C1568 C1570 1.391 . S
C1569 C1568 1.386 . S
C1569 C1573 1.393 1_545 S
C1570 H1562 0.950 1_455 S
C1570 C1568 1.391 . S
C1570 C1571 1.416 . S
C1571 C1570 1.416 . S
C1571 C1572 1.385 1_545 S
C1571 C1577 1.488 1_446 S
C1572 H1563 0.950 1_556 S
C1572 C1571 1.385 1_565 S
C1572 C1573 1.391 . S
C1573 H1561 0.950 . S
C1573 C1569 1.393 1_565 S
C1573 C1572 1.391 . S
C1574 H1564 0.950 . S
C1574 C1575 1.386 . S
C1574 C1576 1.391 . S
C1575 C1574 1.386 . S
C1575 C1579 1.393 1_565 S
C1576 H1565 0.950 1_655 S
C1576 C1574 1.391 . S
C1576 C1577 1.416 . S
C1577 C1571 1.488 1_664 S
C1577 C1576 1.416 . S
C1577 C1578 1.385 1_565 S
C1578 H1566 0.950 1_554 S
C1578 C1577 1.385 1_545 S
C1578 C1579 1.391 . S
C1579 H1567 0.950 . S
C1579 C1575 1.393 1_545 S
C1579 C1578 1.391 . S
H1580 C1588 0.950 . S
H1581 C1593 0.950 . S
H1582 C1590 0.950 . S
H1583 C1592 0.950 . S
H1584 C1594 0.950 . S
H1585 C1596 0.950 . S
H1586 C1598 0.950 . S
H1587 C1599 0.950 . S
C1588 H1580 0.950 . S
C1588 C1589 1.386 . S
C1588 C1590 1.391 . S
C1589 C1588 1.386 . S
C1589 C1593 1.393 1_545 S
C1590 H1582 0.950 . S
C1590 C1588 1.391 . S
C1590 C1591 1.400 . S
C1591 C1590 1.400 . S
C1591 C1592 1.398 1_545 S
C1591 C1597 1.491 1_545 S
C1592 H1583 0.950 . S
C1592 C1591 1.398 1_565 S
C1592 C1593 1.391 . S
C1593 H1581 0.950 . S
C1593 C1589 1.393 1_565 S
C1593 C1592 1.391 . S
C1594 H1584 0.950 . S
C1594 C1595 1.386 . S
C1594 C1596 1.391 . S
C1595 C1594 1.386 . S
C1595 C1599 1.393 1_565 S
C1596 H1585 0.950 . S
C1596 C1594 1.391 . S
C1596 C1597 1.400 . S
C1597 C1591 1.491 1_565 S
C1597 C1596 1.400 . S
C1597 C1598 1.398 1_565 S
C1598 H1586 0.950 . S
C1598 C1597 1.398 1_545 S
C1598 C1599 1.391 . S
C1599 H1587 0.950 . S
C1599 C1595 1.393 1_545 S
C1599 C1598 1.391 . S
C649 C31 3.076 . S
C655 C431 3.079 . S
C669 C71 3.082 . S
C675 C471 3.086 . S
C689 C111 3.086 . S
C695 C351 3.083 . S
C709 C151 3.084 . S
C715 C391 3.087 . S
C729 C172 3.089 . S
C735 C572 3.090 . S
C749 C212 3.085 . S
C755 C612 3.088 . S
C769 C252 3.077 . S
C775 C492 3.075 . S
C789 C292 3.084 . S
C795 C532 3.080 . S
C809 C377 3.734 . S
C815 C12 3.753 1_556 S
C829 C417 3.726 . S
C835 C52 3.759 . S
C849 C457 3.733 . S
C855 C92 3.754 . S
C869 C337 3.735 . S
C875 C132 3.752 . S
C889 C191 3.757 1_554 S
C895 C522 3.728 . S
C909 C562 3.735 . S
C915 C231 3.751 . S
C929 C602 3.726 . S
C935 C271 3.759 . S
C949 C482 3.725 . S
C955 C311 3.760 . S
C969 C57 3.733 . S
C975 C332 3.753 . S
C989 C372 3.753 . S
C995 C97 3.734 . S
C1009 C412 3.756 1_556 S
C1015 C137 3.730 . S
C1029 C452 3.760 . S
C1035 C17 3.726 . S
C1049 C511 3.754 . S
C1055 C202 3.730 . S
C1069 C242 3.725 . S
C1075 C551 3.759 . S
C1089 C282 3.725 . S
C1095 C591 3.760 1_554 S
C1109 C631 3.751 . S
C1115 C162 3.735 . S
C1129 C8 0.437 . S
C1135 C617 0.140 . S
C1149 C48 0.359 . S
C1155 C177 0.178 . S
C1169 C537 0.182 . S
C1175 C88 0.424 . S
C1189 C257 0.157 . S
C1195 C128 0.345 . S
C1209 C189 0.433 . S
C1215 C442 0.177 . S
C1229 C229 0.355 . S
C1235 C2 0.137 . S
C1249 C362 0.129 . S
C1255 C269 0.426 . S
C1269 C82 0.141 . S
C1275 C309 0.438 . S
C1289 C328 0.424 . S
C1295 C297 0.128 . S
C1309 C368 0.366 . S
C1315 C497 0.182 . S
C1329 C217 0.181 . S
C1335 C408 0.427 . S
C1349 C577 0.187 . S
C1355 C448 0.408 . S
C1369 C509 0.436 . S
C1375 C122 0.174 . S
C1389 C549 0.442 . S
C1395 C322 0.150 . S
C1409 C589 0.378 . S
C1415 C42 0.185 . S
C1429 C402 0.185 . S
C1435 C629 0.376 . S
C1449 C29 1.571 . S
C1455 C488 1.571 . S
C1469 C69 1.550 . S
C1475 C208 1.550 . S
C1489 C109 1.565 . S
C1495 C568 1.565 . S
C1509 C288 1.544 . S
C1515 C149 1.544 . S
C1529 C168 1.540 . S
C1535 C349 1.540 . S
C1549 C429 1.540 . S
C1555 C248 1.540 . S
C1569 C389 1.575 . S
C1575 C528 1.575 . S
C1589 C608 1.550 . S
C1595 C469 1.550 . S
