# Generated by pormake.
# Topology umj, (4)-cn, num edge types: 1
# Building blocks:
#     Node 0, Type 0, BuildingBlock: QUQFOY_clean_sbu_1, # of connection points: 4
#     Node 1, Type 0, BuildingBlock: QUQFOY_clean_sbu_1, # of connection points: 4
#     Node 2, Type 0, BuildingBlock: QUQFOY_clean_sbu_1, # of connection points: 4
#     Node 3, Type 0, BuildingBlock: QUQFOY_clean_sbu_1, # of connection points: 4
#     Node 4, Type 0, BuildingBlock: QUQFOY_clean_sbu_1, # of connection points: 4
#     Node 5, Type 0, BuildingBlock: QUQFOY_clean_sbu_1, # of connection points: 4
#     Node 6, Type 0, BuildingBlock: QUQFOY_clean_sbu_1, # of connection points: 4
#     Node 7, Type 0, BuildingBlock: QUQFOY_clean_sbu_1, # of connection points: 4
#     Node 8, Type 0, BuildingBlock: QUQFOY_clean_sbu_1, # of connection points: 4
#     Node 9, Type 0, BuildingBlock: QUQFOY_clean_sbu_1, # of connection points: 4
#     Node 10, Type 0, BuildingBlock: QUQFOY_clean_sbu_1, # of connection points: 4
#     Node 11, Type 0, BuildingBlock: QUQFOY_clean_sbu_1, # of connection points: 4
#     Edge 12, Type (0, 0), BuildingBlock: EYOCIG_clean_linker_4, # of connection points: 2
#     Edge 13, Type (0, 0), BuildingBlock: EYOCIG_clean_linker_4, # of connection points: 2
#     Edge 14, Type (0, 0), BuildingBlock: EYOCIG_clean_linker_4, # of connection points: 2
#     Edge 15, Type (0, 0), BuildingBlock: EYOCIG_clean_linker_4, # of connection points: 2
#     Edge 16, Type (0, 0), BuildingBlock: EYOCIG_clean_linker_4, # of connection points: 2
#     Edge 17, Type (0, 0), BuildingBlock: EYOCIG_clean_linker_4, # of connection points: 2
#     Edge 18, Type (0, 0), BuildingBlock: EYOCIG_clean_linker_4, # of connection points: 2
#     Edge 19, Type (0, 0), BuildingBlock: EYOCIG_clean_linker_4, # of connection points: 2
#     Edge 20, Type (0, 0), BuildingBlock: EYOCIG_clean_linker_4, # of connection points: 2
#     Edge 21, Type (0, 0), BuildingBlock: EYOCIG_clean_linker_4, # of connection points: 2
#     Edge 22, Type (0, 0), BuildingBlock: EYOCIG_clean_linker_4, # of connection points: 2
#     Edge 23, Type (0, 0), BuildingBlock: EYOCIG_clean_linker_4, # of connection points: 2
#     Edge 24, Type (0, 0), BuildingBlock: EYOCIG_clean_linker_4, # of connection points: 2
#     Edge 25, Type (0, 0), BuildingBlock: EYOCIG_clean_linker_4, # of connection points: 2
#     Edge 26, Type (0, 0), BuildingBlock: EYOCIG_clean_linker_4, # of connection points: 2
#     Edge 27, Type (0, 0), BuildingBlock: EYOCIG_clean_linker_4, # of connection points: 2
#     Edge 28, Type (0, 0), BuildingBlock: EYOCIG_clean_linker_4, # of connection points: 2
#     Edge 29, Type (0, 0), BuildingBlock: EYOCIG_clean_linker_4, # of connection points: 2
#     Edge 30, Type (0, 0), BuildingBlock: EYOCIG_clean_linker_4, # of connection points: 2
#     Edge 31, Type (0, 0), BuildingBlock: EYOCIG_clean_linker_4, # of connection points: 2
#     Edge 32, Type (0, 0), BuildingBlock: EYOCIG_clean_linker_4, # of connection points: 2
#     Edge 33, Type (0, 0), BuildingBlock: EYOCIG_clean_linker_4, # of connection points: 2
#     Edge 34, Type (0, 0), BuildingBlock: EYOCIG_clean_linker_4, # of connection points: 2
#     Edge 35, Type (0, 0), BuildingBlock: EYOCIG_clean_linker_4, # of connection points: 2
# Relax obj value: 0.081
# Max RMSD: 0.260
# Mean RMSD: 0.259
data_MOF--net-umj--node1-QUQFOY_clean_sbu_1--edge1-EYOCIG_clean_linker_4
_symmetry_space_group_name_H-M    P1
_symmetry_Int_Tables_number       1
_symmetry_cell_setting            triclinic
loop_
_symmetry_equiv_pos_as_xyz
'x, y, z'
_cell_length_a     23.333447
_cell_length_b     23.339445
_cell_length_c     66.438507
_cell_angle_alpha  90.009407
_cell_angle_beta   90.00837
_cell_angle_gamma 120.03009
loop_
_atom_site_label
_atom_site_type_symbol
_atom_site_fract_x
_atom_site_fract_y
_atom_site_fract_z
_atom_type_partial_charge
O0 O 0.99797 0.25906 0.13427 0.0
Cd1 Cd 1.00335 0.26824 0.1039 0.0
Cd2 Cd 0.12358 0.29867 0.10621 0.0
O3 O 0.10599 0.32843 0.13487 0.0
O4 O 0.95044 0.30828 0.09224 0.0
O5 O 0.05745 0.36668 0.09918 0.0
C6 C 1.00445 0.36503 0.09307 0.0
C7 C 0.17136 0.3511 0.07544 0.0
C8 C 0.05016 0.29731 0.14398 0.0
C9 C 0.04274 0.16559 0.09439 0.0
O10 O 0.09361 0.20105 0.105 0.0
O11 O 1.00445 0.18754 0.08907 0.0
O12 O 0.20864 0.35627 0.09056 0.0
O13 O 0.10838 0.31975 0.07801 0.0
O14 O 0.75384 0.9892 0.46757 0.0
Cd15 Cd 0.74993 0.99442 0.4372 0.0
Cd16 Cd 0.8399 0.11463 0.43948 0.0
O17 O 0.79263 0.09721 0.46814 0.0
O18 O 0.65688 0.94146 0.42557 0.0
O19 O 0.70565 0.0485 0.43244 0.0
C20 C 0.65422 0.99547 0.42636 0.0
C21 C 0.83542 0.16254 0.40872 0.0
C22 C 0.76787 0.04142 0.47727 0.0
C23 C 0.89191 0.03363 0.42767 0.0
O24 O 0.90743 0.08451 0.43827 0.0
O25 O 0.83163 0.99539 0.42235 0.0
O26 O 0.86765 0.19974 0.42384 0.0
O27 O 0.80359 0.09957 0.41128 0.0
O28 O 0.78039 0.74604 0.80086 0.0
Cd29 Cd 0.77121 0.74216 0.77049 0.0
Cd30 Cd 0.74079 0.83196 0.77279 0.0
O31 O 0.71104 0.78465 0.80145 0.0
O32 O 0.73117 0.6492 0.75883 0.0
O33 O 0.6728 0.6978 0.76574 0.0
C34 C 0.67444 0.64646 0.75963 0.0
C35 C 0.68829 0.8274 0.74204 0.0
C36 C 0.74215 0.75997 0.81057 0.0
C37 C 0.87386 0.88416 0.76095 0.0
O38 O 0.83847 0.8996 0.77157 0.0
O39 O 0.85186 0.82392 0.75563 0.0
O40 O 0.68327 0.85955 0.75717 0.0
O41 O 0.71952 0.79569 0.74458 0.0
O42 O 0.04979 0.77233 0.13427 0.0
Cd43 Cd 0.04458 0.7632 0.1039 0.0
Cd44 Cd 0.92435 0.73288 0.10616 0.0
O45 O 0.94175 0.70303 0.13483 0.0
O46 O 0.09756 0.72317 0.09229 0.0
O47 O 0.99049 0.66479 0.09913 0.0
C48 C 0.04353 0.66644 0.09306 0.0
C49 C 0.87648 0.68047 0.07539 0.0
C50 C 0.99755 0.7341 0.14396 0.0
C51 C 1.00541 0.86597 0.09437 0.0
O52 O 0.95449 0.83055 0.10496 0.0
O53 O 0.04365 0.84396 0.08906 0.0
O54 O 0.83924 0.67544 0.0905 0.0
O55 O 0.93945 0.71166 0.07797 0.0
O56 O 0.2926 0.04132 0.46761 0.0
Cd57 Cd 0.29636 0.03587 0.43724 0.0
Cd58 Cd 0.20649 0.91565 0.43956 0.0
O59 O 0.25389 0.93332 0.46822 0.0
O60 O 0.38933 0.08875 0.42557 0.0
O61 O 0.34068 0.98179 0.43253 0.0
C62 C 0.39204 0.03476 0.42639 0.0
C63 C 0.2111 0.86781 0.4088 0.0
C64 C 0.27864 0.98916 0.47732 0.0
C65 C 0.15426 0.99641 0.42772 0.0
O66 O 0.13882 0.94558 0.43834 0.0
O67 O 0.21452 0.03468 0.4224 0.0
O68 O 0.17898 0.83057 0.42392 0.0
O69 O 0.24275 0.93077 0.41136 0.0
O70 O 0.26683 0.28496 0.80089 0.0
Cd71 Cd 0.27604 0.28873 0.77051 0.0
Cd72 Cd 0.3065 0.19897 0.77285 0.0
O73 O 0.3362 0.24637 0.80151 0.0
O74 O 0.31609 0.38163 0.75883 0.0
O75 O 0.37447 0.33309 0.7658 0.0
C76 C 0.37283 0.38439 0.75965 0.0
C77 C 0.359 0.20355 0.7421 0.0
C78 C 0.30507 0.27106 0.81061 0.0
C79 C 0.17344 0.14666 0.76099 0.0
O80 O 0.20884 0.13127 0.77162 0.0
O81 O 0.19541 0.20689 0.75566 0.0
O82 O 0.3641 0.17147 0.75724 0.0
O83 O 0.32768 0.23518 0.74464 0.0
O84 O 0.78012 0.04159 0.58632 0.0
Cd85 Cd 0.77097 0.03627 0.6167 0.0
Cd86 Cd 0.74061 0.91606 0.61438 0.0
O87 O 0.7108 0.93358 0.58572 0.0
O88 O 0.73094 0.08918 0.62835 0.0
O89 O 0.67254 0.98217 0.62144 0.0
C90 C 0.6742 0.03517 0.62755 0.0
C91 C 0.68816 0.86811 0.64513 0.0
C92 C 0.74189 0.98939 0.57661 0.0
C93 C 0.87369 0.99702 0.62622 0.0
O94 O 0.83829 0.94617 0.6156 0.0
O95 O 0.85169 0.03524 0.63154 0.0
O96 O 0.68312 0.83092 0.63 0.0
O97 O 0.71938 0.93108 0.64258 0.0
O98 O 0.75421 0.77223 0.91961 0.0
Cd99 Cd 0.75033 0.76313 0.94998 0.0
Cd100 Cd 0.84024 0.73282 0.94771 0.0
O101 O 0.79292 0.70297 0.91904 0.0
O102 O 0.65734 0.72308 0.96162 0.0
O103 O 0.706 0.66475 0.95474 0.0
C104 C 0.65463 0.66638 0.96084 0.0
C105 C 0.83576 0.68042 0.97846 0.0
C106 C 0.7682 0.73402 0.90991 0.0
C107 C 0.89232 0.86586 0.95953 0.0
O108 O 0.90781 0.8305 0.94892 0.0
O109 O 0.83206 0.84383 0.96485 0.0
O110 O 0.86795 0.67543 0.96333 0.0
O111 O 0.80396 0.71157 0.9759 0.0
O112 O 0.99738 0.74618 0.25301 0.0
Cd113 Cd 1.00277 0.74239 0.28339 0.0
Cd114 Cd 0.12302 0.83222 0.28109 0.0
O115 O 0.10541 0.78488 0.25243 0.0
O116 O 0.94987 0.64941 0.29504 0.0
O117 O 0.05686 0.69806 0.2881 0.0
C118 C 1.00386 0.6467 0.29422 0.0
C119 C 0.17078 0.82753 0.31187 0.0
C120 C 0.04958 0.76015 0.24331 0.0
C121 C 0.04224 0.88448 0.2929 0.0
O122 O 0.09312 0.89991 0.2823 0.0
O123 O 1.00393 0.82423 0.29821 0.0
O124 O 0.20807 0.85966 0.29675 0.0
O125 O 0.1078 0.79593 0.30929 0.0
O126 O 0.26668 0.98941 0.58636 0.0
Cd127 Cd 0.2759 0.9948 0.61674 0.0
Cd128 Cd 0.3064 0.11503 0.61443 0.0
O129 O 0.3361 0.0974 0.58577 0.0
O130 O 0.31592 0.94189 0.62839 0.0
O131 O 0.37435 0.04887 0.62146 0.0
C132 C 0.37268 0.99588 0.62758 0.0
C133 C 0.35892 0.16292 0.64519 0.0
C134 C 0.30494 0.04158 0.57666 0.0
C135 C 0.1733 0.03423 0.62625 0.0
O136 O 0.20875 0.08507 0.61564 0.0
O137 O 0.19525 0.99596 0.63158 0.0
O138 O 0.36404 0.20014 0.63006 0.0
O139 O 0.32758 0.09995 0.64263 0.0
O140 O 0.29285 0.25892 0.91964 0.0
Cd141 Cd 0.29675 0.2681 0.95001 0.0
Cd142 Cd 0.20697 0.29855 0.94773 0.0
O143 O 0.25427 0.32829 0.91907 0.0
O144 O 0.38974 0.30813 0.96166 0.0
O145 O 0.34114 0.36649 0.95475 0.0
C146 C 0.39249 0.36485 0.96086 0.0
C147 C 0.21164 0.35101 0.9785 0.0
C148 C 0.27893 0.29718 0.90994 0.0
C149 C 0.15471 0.1655 0.95955 0.0
O150 O 0.13927 0.20091 0.94894 0.0
O151 O 0.21497 0.18747 0.96486 0.0
O152 O 0.17949 0.3561 0.96338 0.0
O153 O 0.2433 0.31972 0.97594 0.0
O154 O 0.04989 0.28515 0.25303 0.0
Cd155 Cd 0.04442 0.28891 0.2834 0.0
Cd156 Cd 0.92423 0.19895 0.28105 0.0
O157 O 0.94185 0.24632 0.25239 0.0
O158 O 0.09722 0.3819 0.29507 0.0
O159 O 0.99023 0.33313 0.28811 0.0
C160 C 0.04319 0.38454 0.29424 0.0
C161 C 0.87627 0.2034 0.3118 0.0
C162 C 0.99771 0.27112 0.2433 0.0
C163 C 1.00515 0.14689 0.29289 0.0
O164 O 0.95431 0.1314 0.28225 0.0
O165 O 0.04336 0.20714 0.29823 0.0
O166 O 0.83908 0.17125 0.29666 0.0
O167 O 0.93926 0.23518 0.30926 0.0
C168 C 1.01523 0.29189 0.20401 0.0
C169 C 1.0028 0.28102 0.22177 0.0
C170 C 0.03272 0.30064 0.18328 0.0
C171 C 0.04513 0.30217 0.16551 0.0
C172 C 0.74722 0.02414 0.51657 0.0
C173 C 0.75805 0.03647 0.4988 0.0
C174 C 0.73853 1.00675 0.53731 0.0
C175 C 0.73702 0.9944 0.55508 0.0
C176 C 0.7388 0.73929 0.84987 0.0
C177 C 0.73729 0.75012 0.8321 0.0
C178 C 0.74751 0.73061 0.87061 0.0
C179 C 0.75834 0.72912 0.88838 0.0
C180 C 1.01481 0.73071 0.18327 0.0
C181 C 1.00249 0.72921 0.16549 0.0
C182 C 0.03221 0.73942 0.20401 0.0
C183 C 0.04457 0.75027 0.22178 0.0
C184 C 0.30822 0.02412 0.53736 0.0
C185 C 0.30978 0.03653 0.55512 0.0
C186 C 0.29946 1.00664 0.51662 0.0
C187 C 0.28856 0.99423 0.49886 0.0
C188 C 0.30837 0.29183 0.84991 0.0
C189 C 0.30991 0.28096 0.83214 0.0
C190 C 0.29965 0.30055 0.87064 0.0
C191 C 0.2888 0.30206 0.88841 0.0
C192 C 0.20717 0.38497 0.03765 0.0
C193 C 0.19715 0.37257 0.05542 0.0
C194 C 0.20973 0.38495 1.01629 0.0
C195 C 0.20733 0.37251 0.99852 0.0
C196 C 0.83757 0.19851 0.37094 0.0
C197 C 0.83987 0.18839 0.38871 0.0
C198 C 0.84025 0.20121 0.34958 0.0
C199 C 0.85037 0.19893 0.33181 0.0
C200 C 0.65432 0.82946 0.70426 0.0
C201 C 0.66678 0.83179 0.72203 0.0
C202 C 0.6543 0.83211 0.68291 0.0
C203 C 0.66671 0.84222 0.66514 0.0
C204 C 0.84055 0.6466 0.0376 0.0
C205 C 0.85064 0.65903 0.05537 0.0
C206 C 0.83789 0.64659 1.01624 0.0
C207 C 0.8402 0.659 0.99847 0.0
C208 C 0.2066 0.82939 0.34965 0.0
C209 C 0.19658 0.83181 0.33188 0.0
C210 C 0.20916 0.83194 0.37101 0.0
C211 C 0.20677 0.84197 0.38879 0.0
C212 C 0.39292 0.19888 0.68297 0.0
C213 C 0.38046 0.18879 0.6652 0.0
C214 C 0.39294 0.20151 0.70432 0.0
C215 C 0.38051 0.19917 0.7221 0.0
C216 C 0.03152 0.54922 0.08633 0.0
C217 C 0.04192 0.60496 0.08896 0.0
C218 C 1.01648 0.48225 0.08633 0.0
C219 C 1.00607 0.42651 0.08895 0.0
C220 C 0.54905 1.00755 0.41961 0.0
C221 C 0.59435 0.9971 0.42224 0.0
C222 C 0.49717 0.02266 0.41962 0.0
C223 C 0.45188 0.03312 0.42225 0.0
C224 C 0.49011 0.48948 0.75285 0.0
C225 C 0.43433 0.44422 0.75549 0.0
C226 C 0.55715 0.54132 0.75284 0.0
C227 C 0.61294 0.5866 0.75548 0.0
C228 C 0.48994 1.00795 0.63433 0.0
C229 C 0.43417 0.9975 0.6317 0.0
C230 C 0.55694 0.02306 0.63432 0.0
C231 C 0.6127 0.03352 0.63168 0.0
C232 C 0.49765 0.48211 0.96765 0.0
C233 C 0.45236 0.42633 0.96501 0.0
C234 C 0.54951 0.54913 0.96764 0.0
C235 C 0.59479 0.60489 0.96499 0.0
C236 C 1.01593 0.54154 0.30097 0.0
C237 C 1.0055 0.58685 0.29834 0.0
C238 C 0.03102 0.48965 0.30097 0.0
C239 C 0.04148 0.44436 0.29835 0.0
C240 C 0.02492 0.04662 0.08668 0.0
C241 C 0.02838 0.09963 0.08925 0.0
C242 C 1.02334 0.98498 0.08667 0.0
C243 C 1.01984 0.93195 0.08924 0.0
C244 C 0.99301 0.01573 0.41996 0.0
C245 C 0.94346 0.01921 0.42253 0.0
C246 C 0.05308 1.01416 0.41998 0.0
C247 C 0.10265 1.01072 0.42256 0.0
C248 C 0.05449 0.04544 0.75323 0.0
C249 C 0.1075 0.09502 0.75582 0.0
C250 C 0.99284 0.98534 0.75322 0.0
C251 C 0.93982 0.93577 0.7558 0.0
C252 C 0.99269 1.01488 0.63396 0.0
C253 C 0.93966 1.01141 0.63138 0.0
C254 C 0.05433 0.01645 0.63396 0.0
C255 C 0.10734 0.01989 0.6314 0.0
C256 C 0.99345 0.98487 0.96728 0.0
C257 C 0.9439 0.93183 0.9647 0.0
C258 C 0.05352 0.04654 0.96728 0.0
C259 C 0.10309 0.09955 0.9647 0.0
C260 C 0.0245 0.98567 0.30061 0.0
C261 C 0.02792 0.9361 0.29804 0.0
C262 C 1.02297 0.04576 0.30061 0.0
C263 C 1.01953 0.09532 0.29804 0.0
loop_
_geom_bond_atom_site_label_1
_geom_bond_atom_site_label_2
_geom_bond_distance
_geom_bond_site_symmetry_2
_ccdc_geom_bond_type
O0 Cd1 2.223 1_455 S
O0 C8 1.315 . S
Cd1 O0 2.223 1_655 S
Cd1 O4 2.297 . S
Cd1 O5 2.439 1_655 S
Cd1 O11 2.240 1_655 S
Cd2 O3 2.240 . S
Cd2 O10 2.223 . S
Cd2 O12 2.297 . S
Cd2 O13 2.439 . S
O3 Cd2 2.240 . S
O3 C8 1.279 . S
O4 Cd1 2.297 . S
O4 C6 1.247 . S
O5 Cd1 2.439 1_455 S
O5 C6 1.208 1_455 S
C6 O4 1.247 . S
C6 O5 1.208 1_655 S
C7 O12 1.247 . S
C7 O13 1.208 . S
C8 O0 1.315 . S
C8 O3 1.279 . S
C9 O10 1.315 . S
C9 O11 1.279 . S
O10 Cd2 2.223 . S
O10 C9 1.315 . S
O11 Cd1 2.240 1_455 S
O11 C9 1.279 . S
O12 Cd2 2.297 . S
O12 C7 1.247 . S
O13 Cd2 2.439 . S
O13 C7 1.208 . S
O14 Cd15 2.223 1_545 S
O14 C22 1.315 . S
Cd15 O14 2.223 1_565 S
Cd15 O18 2.297 . S
Cd15 O19 2.439 1_565 S
Cd15 O25 2.240 1_565 S
Cd16 O17 2.240 . S
Cd16 O24 2.223 . S
Cd16 O26 2.297 . S
Cd16 O27 2.439 . S
O17 Cd16 2.240 . S
O17 C22 1.279 . S
O18 Cd15 2.297 . S
O18 C20 1.247 . S
O19 Cd15 2.439 1_545 S
O19 C20 1.208 1_545 S
C20 O18 1.247 . S
C20 O19 1.208 1_565 S
C21 O26 1.247 . S
C21 O27 1.208 . S
C22 O14 1.315 . S
C22 O17 1.279 . S
C23 O24 1.315 . S
C23 O25 1.279 . S
O24 Cd16 2.223 . S
O24 C23 1.315 . S
O25 Cd15 2.240 1_545 S
O25 C23 1.279 . S
O26 Cd16 2.297 . S
O26 C21 1.247 . S
O27 Cd16 2.439 . S
O27 C21 1.208 . S
O28 Cd29 2.223 . S
O28 C36 1.315 . S
Cd29 O28 2.223 . S
Cd29 O32 2.297 . S
Cd29 O33 2.439 . S
Cd29 O39 2.240 . S
Cd30 O31 2.240 . S
Cd30 O38 2.223 . S
Cd30 O40 2.297 . S
Cd30 O41 2.439 . S
O31 Cd30 2.240 . S
O31 C36 1.279 . S
O32 Cd29 2.297 . S
O32 C34 1.247 . S
O33 Cd29 2.439 . S
O33 C34 1.208 . S
C34 O32 1.247 . S
C34 O33 1.208 . S
C35 O40 1.247 . S
C35 O41 1.208 . S
C36 O28 1.315 . S
C36 O31 1.279 . S
C37 O38 1.315 . S
C37 O39 1.279 . S
O38 Cd30 2.223 . S
O38 C37 1.315 . S
O39 Cd29 2.240 . S
O39 C37 1.279 . S
O40 Cd30 2.297 . S
O40 C35 1.247 . S
O41 Cd30 2.439 . S
O41 C35 1.208 . S
O42 Cd43 2.223 1_655 S
O42 C50 1.315 . S
Cd43 O42 2.223 1_455 S
Cd43 O46 2.297 . S
Cd43 O47 2.439 1_455 S
Cd43 O53 2.240 1_455 S
Cd44 O45 2.240 . S
Cd44 O52 2.223 . S
Cd44 O54 2.297 . S
Cd44 O55 2.439 . S
O45 Cd44 2.240 . S
O45 C50 1.279 . S
O46 Cd43 2.297 . S
O46 C48 1.247 . S
O47 Cd43 2.439 1_655 S
O47 C48 1.208 1_655 S
C48 O46 1.247 . S
C48 O47 1.208 1_455 S
C49 O54 1.247 . S
C49 O55 1.208 . S
C50 O42 1.315 . S
C50 O45 1.279 . S
C51 O52 1.315 . S
C51 O53 1.279 . S
O52 Cd44 2.223 . S
O52 C51 1.315 . S
O53 Cd43 2.240 1_655 S
O53 C51 1.279 . S
O54 Cd44 2.297 . S
O54 C49 1.247 . S
O55 Cd44 2.439 . S
O55 C49 1.208 . S
O56 Cd57 2.223 1_565 S
O56 C64 1.315 . S
Cd57 O56 2.223 1_545 S
Cd57 O60 2.297 . S
Cd57 O61 2.439 1_545 S
Cd57 O67 2.240 1_545 S
Cd58 O59 2.240 . S
Cd58 O66 2.223 . S
Cd58 O68 2.297 . S
Cd58 O69 2.439 . S
O59 Cd58 2.240 . S
O59 C64 1.279 . S
O60 Cd57 2.297 . S
O60 C62 1.247 . S
O61 Cd57 2.439 1_565 S
O61 C62 1.208 1_565 S
C62 O60 1.247 . S
C62 O61 1.208 1_545 S
C63 O68 1.247 . S
C63 O69 1.208 . S
C64 O56 1.315 . S
C64 O59 1.279 . S
C65 O66 1.315 . S
C65 O67 1.279 . S
O66 Cd58 2.223 . S
O66 C65 1.315 . S
O67 Cd57 2.240 1_565 S
O67 C65 1.279 . S
O68 Cd58 2.297 . S
O68 C63 1.247 . S
O69 Cd58 2.439 . S
O69 C63 1.208 . S
O70 Cd71 2.223 . S
O70 C78 1.315 . S
Cd71 O70 2.223 . S
Cd71 O74 2.297 . S
Cd71 O75 2.439 . S
Cd71 O81 2.240 . S
Cd72 O73 2.240 . S
Cd72 O80 2.223 . S
Cd72 O82 2.297 . S
Cd72 O83 2.439 . S
O73 Cd72 2.240 . S
O73 C78 1.279 . S
O74 Cd71 2.297 . S
O74 C76 1.247 . S
O75 Cd71 2.439 . S
O75 C76 1.208 . S
C76 O74 1.247 . S
C76 O75 1.208 . S
C77 O82 1.247 . S
C77 O83 1.208 . S
C78 O70 1.315 . S
C78 O73 1.279 . S
C79 O80 1.315 . S
C79 O81 1.279 . S
O80 Cd72 2.223 . S
O80 C79 1.315 . S
O81 Cd71 2.240 . S
O81 C79 1.279 . S
O82 Cd72 2.297 . S
O82 C77 1.247 . S
O83 Cd72 2.439 . S
O83 C77 1.208 . S
O84 Cd85 2.223 1_565 S
O84 C92 1.315 . S
Cd85 O84 2.223 1_545 S
Cd85 O88 2.297 . S
Cd85 O89 2.439 1_545 S
Cd85 O95 2.240 1_545 S
Cd86 O87 2.240 . S
Cd86 O94 2.223 . S
Cd86 O96 2.297 . S
Cd86 O97 2.439 . S
O87 Cd86 2.240 . S
O87 C92 1.279 . S
O88 Cd85 2.297 . S
O88 C90 1.247 . S
O89 Cd85 2.439 1_565 S
O89 C90 1.208 1_565 S
C90 O88 1.247 . S
C90 O89 1.208 1_545 S
C91 O96 1.247 . S
C91 O97 1.208 . S
C92 O84 1.315 . S
C92 O87 1.279 . S
C93 O94 1.315 . S
C93 O95 1.279 . S
O94 Cd86 2.223 . S
O94 C93 1.315 . S
O95 Cd85 2.240 1_565 S
O95 C93 1.279 . S
O96 Cd86 2.297 . S
O96 C91 1.247 . S
O97 Cd86 2.439 . S
O97 C91 1.208 . S
O98 Cd99 2.223 . S
O98 C106 1.315 . S
Cd99 O98 2.223 . S
Cd99 O102 2.297 . S
Cd99 O103 2.439 . S
Cd99 O109 2.240 . S
Cd100 O101 2.240 . S
Cd100 O108 2.223 . S
Cd100 O110 2.297 . S
Cd100 O111 2.439 . S
O101 Cd100 2.240 . S
O101 C106 1.279 . S
O102 Cd99 2.297 . S
O102 C104 1.247 . S
O103 Cd99 2.439 . S
O103 C104 1.208 . S
C104 O102 1.247 . S
C104 O103 1.208 . S
C105 O110 1.247 . S
C105 O111 1.208 . S
C106 O98 1.315 . S
C106 O101 1.279 . S
C107 O108 1.315 . S
C107 O109 1.279 . S
O108 Cd100 2.223 . S
O108 C107 1.315 . S
O109 Cd99 2.240 . S
O109 C107 1.279 . S
O110 Cd100 2.297 . S
O110 C105 1.247 . S
O111 Cd100 2.439 . S
O111 C105 1.208 . S
O112 Cd113 2.223 1_455 S
O112 C120 1.315 . S
Cd113 O112 2.223 1_655 S
Cd113 O116 2.297 . S
Cd113 O117 2.439 1_655 S
Cd113 O123 2.240 1_655 S
Cd114 O115 2.240 . S
Cd114 O122 2.223 . S
Cd114 O124 2.297 . S
Cd114 O125 2.439 . S
O115 Cd114 2.240 . S
O115 C120 1.279 . S
O116 Cd113 2.297 . S
O116 C118 1.247 . S
O117 Cd113 2.439 1_455 S
O117 C118 1.208 1_455 S
C118 O116 1.247 . S
C118 O117 1.208 1_655 S
C119 O124 1.247 . S
C119 O125 1.208 . S
C120 O112 1.315 . S
C120 O115 1.279 . S
C121 O122 1.315 . S
C121 O123 1.279 . S
O122 Cd114 2.223 . S
O122 C121 1.315 . S
O123 Cd113 2.240 1_455 S
O123 C121 1.279 . S
O124 Cd114 2.297 . S
O124 C119 1.247 . S
O125 Cd114 2.439 . S
O125 C119 1.208 . S
O126 Cd127 2.223 1_545 S
O126 C134 1.315 . S
Cd127 O126 2.223 1_565 S
Cd127 O130 2.297 . S
Cd127 O131 2.439 1_565 S
Cd127 O137 2.240 1_565 S
Cd128 O129 2.240 . S
Cd128 O136 2.223 . S
Cd128 O138 2.297 . S
Cd128 O139 2.439 . S
O129 Cd128 2.240 . S
O129 C134 1.279 . S
O130 Cd127 2.297 . S
O130 C132 1.247 . S
O131 Cd127 2.439 1_545 S
O131 C132 1.208 1_545 S
C132 O130 1.247 . S
C132 O131 1.208 1_565 S
C133 O138 1.247 . S
C133 O139 1.208 . S
C134 O126 1.315 . S
C134 O129 1.279 . S
C135 O136 1.315 . S
C135 O137 1.279 . S
O136 Cd128 2.223 . S
O136 C135 1.315 . S
O137 Cd127 2.240 1_545 S
O137 C135 1.279 . S
O138 Cd128 2.297 . S
O138 C133 1.247 . S
O139 Cd128 2.439 . S
O139 C133 1.208 . S
O140 Cd141 2.223 . S
O140 C148 1.315 . S
Cd141 O140 2.223 . S
Cd141 O144 2.297 . S
Cd141 O145 2.439 . S
Cd141 O151 2.240 . S
Cd142 O143 2.240 . S
Cd142 O150 2.223 . S
Cd142 O152 2.297 . S
Cd142 O153 2.439 . S
O143 Cd142 2.240 . S
O143 C148 1.279 . S
O144 Cd141 2.297 . S
O144 C146 1.247 . S
O145 Cd141 2.439 . S
O145 C146 1.208 . S
C146 O144 1.247 . S
C146 O145 1.208 . S
C147 O152 1.247 . S
C147 O153 1.208 . S
C148 O140 1.315 . S
C148 O143 1.279 . S
C149 O150 1.315 . S
C149 O151 1.279 . S
O150 Cd142 2.223 . S
O150 C149 1.315 . S
O151 Cd141 2.240 . S
O151 C149 1.279 . S
O152 Cd142 2.297 . S
O152 C147 1.247 . S
O153 Cd142 2.439 . S
O153 C147 1.208 . S
O154 Cd155 2.223 1_655 S
O154 C162 1.315 . S
Cd155 O154 2.223 1_455 S
Cd155 O158 2.297 . S
Cd155 O159 2.439 1_455 S
Cd155 O165 2.240 1_455 S
Cd156 O157 2.240 . S
Cd156 O164 2.223 . S
Cd156 O166 2.297 . S
Cd156 O167 2.439 . S
O157 Cd156 2.240 . S
O157 C162 1.279 . S
O158 Cd155 2.297 . S
O158 C160 1.247 . S
O159 Cd155 2.439 1_655 S
O159 C160 1.208 1_655 S
C160 O158 1.247 . S
C160 O159 1.208 1_455 S
C161 O166 1.247 . S
C161 O167 1.208 . S
C162 O154 1.315 . S
C162 O157 1.279 . S
C163 O164 1.315 . S
C163 O165 1.279 . S
O164 Cd156 2.223 . S
O164 C163 1.315 . S
O165 Cd155 2.240 1_655 S
O165 C163 1.279 . S
O166 Cd156 2.297 . S
O166 C161 1.247 . S
O167 Cd156 2.439 . S
O167 C161 1.208 . S
C168 C169 1.170 . S
C168 C170 1.380 1_655 S
C169 C168 1.170 . S
C170 C168 1.380 1_455 S
C170 C171 1.170 . S
C171 C170 1.170 . S
C172 C173 1.170 . S
C172 C174 1.380 1_545 S
C173 C172 1.170 . S
C174 C172 1.380 1_565 S
C174 C175 1.170 . S
C175 C174 1.170 . S
C176 C177 1.170 . S
C176 C178 1.380 . S
C177 C176 1.170 . S
C178 C176 1.380 . S
C178 C179 1.170 . S
C179 C178 1.170 . S
C180 C181 1.170 . S
C180 C182 1.380 1_655 S
C181 C180 1.170 . S
C182 C180 1.380 1_455 S
C182 C183 1.170 . S
C183 C182 1.170 . S
C184 C185 1.170 . S
C184 C186 1.380 1_545 S
C185 C184 1.170 . S
C186 C184 1.380 1_565 S
C186 C187 1.170 . S
C187 C186 1.170 . S
C188 C189 1.170 . S
C188 C190 1.380 . S
C189 C188 1.170 . S
C190 C188 1.380 . S
C190 C191 1.170 . S
C191 C190 1.170 . S
C192 C193 1.170 . S
C192 C194 1.380 1_554 S
C193 C192 1.170 . S
C194 C192 1.380 1_556 S
C194 C195 1.170 . S
C195 C194 1.170 . S
C196 C197 1.170 . S
C196 C198 1.380 . S
C197 C196 1.170 . S
C198 C196 1.380 . S
C198 C199 1.170 . S
C199 C198 1.170 . S
C200 C201 1.170 . S
C200 C202 1.380 . S
C201 C200 1.170 . S
C202 C200 1.380 . S
C202 C203 1.170 . S
C203 C202 1.170 . S
C204 C205 1.170 . S
C204 C206 1.380 1_554 S
C205 C204 1.170 . S
C206 C204 1.380 1_556 S
C206 C207 1.170 . S
C207 C206 1.170 . S
C208 C209 1.170 . S
C208 C210 1.380 . S
C209 C208 1.170 . S
C210 C208 1.380 . S
C210 C211 1.170 . S
C211 C210 1.170 . S
C212 C213 1.170 . S
C212 C214 1.380 . S
C213 C212 1.170 . S
C214 C212 1.380 . S
C214 C215 1.170 . S
C215 C214 1.170 . S
C216 C217 1.170 . S
C216 C218 1.380 . S
C217 C216 1.170 . S
C218 C216 1.380 . S
C218 C219 1.170 . S
C219 C218 1.170 . S
C220 C221 1.170 . S
C220 C222 1.380 . S
C221 C220 1.170 . S
C222 C220 1.380 . S
C222 C223 1.160 1_565 S
C223 C222 1.160 1_545 S
C224 C225 1.170 . S
C224 C226 1.380 . S
C225 C224 1.170 . S
C226 C224 1.380 . S
C226 C227 1.170 . S
C227 C226 1.170 . S
C228 C229 1.170 1_545 S
C228 C230 1.380 . S
C229 C228 1.170 1_565 S
C230 C228 1.380 . S
C230 C231 1.170 . S
C231 C230 1.170 . S
C232 C233 1.170 . S
C232 C234 1.380 . S
C233 C232 1.170 . S
C234 C232 1.380 . S
C234 C235 1.170 . S
C235 C234 1.170 . S
C236 C237 1.159 1_455 S
C236 C238 1.391 . S
C237 C236 1.159 1_655 S
C238 C236 1.391 . S
C238 C239 1.170 . S
C239 C238 1.170 . S
C240 C241 1.170 . S
C240 C242 1.380 1_545 S
C241 C240 1.170 . S
C242 C240 1.380 1_565 S
C242 C243 1.170 1_455 S
C243 C242 1.170 1_655 S
C244 C245 1.170 1_565 S
C244 C246 1.380 1_655 S
C245 C244 1.170 1_545 S
C246 C244 1.380 1_455 S
C246 C247 1.170 . S
C247 C246 1.170 . S
C248 C249 1.170 . S
C248 C250 1.380 1_445 S
C249 C248 1.170 . S
C250 C248 1.380 1_665 S
C250 C251 1.170 . S
C251 C250 1.170 . S
C252 C253 1.170 1_545 S
C252 C254 1.380 1_655 S
C253 C252 1.170 1_565 S
C254 C252 1.380 1_455 S
C254 C255 1.170 . S
C255 C254 1.170 . S
C256 C257 1.170 . S
C256 C258 1.380 1_665 S
C257 C256 1.170 . S
C258 C256 1.380 1_445 S
C258 C259 1.170 . S
C259 C258 1.170 . S
C260 C261 1.170 . S
C260 C262 1.380 1_565 S
C261 C260 1.170 . S
C262 C260 1.380 1_545 S
C262 C263 1.170 1_455 S
C263 C262 1.170 1_655 S
C169 C162 1.352 . S
C171 C8 1.403 . S
C173 C22 1.367 . S
C175 C92 1.375 . S
C177 C36 1.354 . S
C179 C106 1.420 . S
C181 C50 1.421 . S
C183 C120 1.361 . S
C185 C134 1.345 . S
C187 C64 1.398 . S
C189 C78 1.395 . S
C191 C148 1.415 . S
C193 C7 1.844 . S
C195 C147 1.846 . S
C197 C21 1.844 . S
C199 C161 1.850 . S
C201 C35 1.840 . S
C203 C91 1.854 . S
C205 C49 1.836 . S
C207 C105 1.852 . S
C209 C119 1.835 . S
C211 C63 1.855 . S
C213 C133 1.859 . S
C215 C77 1.859 . S
C217 C48 1.500 . S
C219 C6 1.500 1_455 S
C221 C20 1.503 . S
C223 C62 1.513 . S
C225 C76 1.500 . S
C227 C34 1.500 . S
C229 C132 1.499 . S
C231 C90 1.498 . S
C233 C146 1.505 . S
C235 C104 1.505 . S
C237 C118 1.506 . S
C239 C160 1.505 . S
C241 C9 1.323 . S
C243 C51 1.345 . S
C245 C23 1.370 . S
C247 C65 1.322 . S
C249 C79 1.344 . S
C251 C37 1.323 . S
C253 C93 1.360 . S
C255 C135 1.318 . S
C257 C107 1.346 . S
C259 C149 1.322 . S
C261 C121 1.318 . S
C263 C163 1.360 . S
