# Generated by pormake.
# Topology wgb, (5)-cn, num edge types: 1
# Building blocks:
#     Node 0, Type 0, BuildingBlock: BEQFEK_clean_sbu_0, # of connection points: 5
#     Node 1, Type 0, BuildingBlock: BEQFEK_clean_sbu_0, # of connection points: 5
#     Node 2, Type 0, BuildingBlock: BEQFEK_clean_sbu_0, # of connection points: 5
#     Node 3, Type 0, BuildingBlock: BEQFEK_clean_sbu_0, # of connection points: 5
#     Node 4, Type 0, BuildingBlock: BEQFEK_clean_sbu_0, # of connection points: 5
#     Node 5, Type 0, BuildingBlock: BEQFEK_clean_sbu_0, # of connection points: 5
#     Node 6, Type 0, BuildingBlock: BEQFEK_clean_sbu_0, # of connection points: 5
#     Node 7, Type 0, BuildingBlock: BEQFEK_clean_sbu_0, # of connection points: 5
#     Node 8, Type 0, BuildingBlock: BEQFEK_clean_sbu_0, # of connection points: 5
#     Node 9, Type 0, BuildingBlock: BEQFEK_clean_sbu_0, # of connection points: 5
#     Node 10, Type 0, BuildingBlock: BEQFEK_clean_sbu_0, # of connection points: 5
#     Node 11, Type 0, BuildingBlock: BEQFEK_clean_sbu_0, # of connection points: 5
#     Node 12, Type 0, BuildingBlock: BEQFEK_clean_sbu_0, # of connection points: 5
#     Node 13, Type 0, BuildingBlock: BEQFEK_clean_sbu_0, # of connection points: 5
#     Node 14, Type 0, BuildingBlock: BEQFEK_clean_sbu_0, # of connection points: 5
#     Node 15, Type 0, BuildingBlock: BEQFEK_clean_sbu_0, # of connection points: 5
#     Edge 16, Type (0, 0), BuildingBlock: ZUJKAS_clean_linker_0, # of connection points: 2
#     Edge 17, Type (0, 0), BuildingBlock: ZUJKAS_clean_linker_0, # of connection points: 2
#     Edge 18, Type (0, 0), BuildingBlock: ZUJKAS_clean_linker_0, # of connection points: 2
#     Edge 19, Type (0, 0), BuildingBlock: ZUJKAS_clean_linker_0, # of connection points: 2
#     Edge 20, Type (0, 0), BuildingBlock: ZUJKAS_clean_linker_0, # of connection points: 2
#     Edge 21, Type (0, 0), BuildingBlock: ZUJKAS_clean_linker_0, # of connection points: 2
#     Edge 22, Type (0, 0), BuildingBlock: ZUJKAS_clean_linker_0, # of connection points: 2
#     Edge 23, Type (0, 0), BuildingBlock: ZUJKAS_clean_linker_0, # of connection points: 2
#     Edge 24, Type (0, 0), BuildingBlock: ZUJKAS_clean_linker_0, # of connection points: 2
#     Edge 25, Type (0, 0), BuildingBlock: ZUJKAS_clean_linker_0, # of connection points: 2
#     Edge 26, Type (0, 0), BuildingBlock: ZUJKAS_clean_linker_0, # of connection points: 2
#     Edge 27, Type (0, 0), BuildingBlock: ZUJKAS_clean_linker_0, # of connection points: 2
#     Edge 28, Type (0, 0), BuildingBlock: ZUJKAS_clean_linker_0, # of connection points: 2
#     Edge 29, Type (0, 0), BuildingBlock: ZUJKAS_clean_linker_0, # of connection points: 2
#     Edge 30, Type (0, 0), BuildingBlock: ZUJKAS_clean_linker_0, # of connection points: 2
#     Edge 31, Type (0, 0), BuildingBlock: ZUJKAS_clean_linker_0, # of connection points: 2
#     Edge 32, Type (0, 0), BuildingBlock: ZUJKAS_clean_linker_0, # of connection points: 2
#     Edge 33, Type (0, 0), BuildingBlock: ZUJKAS_clean_linker_0, # of connection points: 2
#     Edge 34, Type (0, 0), BuildingBlock: ZUJKAS_clean_linker_0, # of connection points: 2
#     Edge 35, Type (0, 0), BuildingBlock: ZUJKAS_clean_linker_0, # of connection points: 2
#     Edge 36, Type (0, 0), BuildingBlock: ZUJKAS_clean_linker_0, # of connection points: 2
#     Edge 37, Type (0, 0), BuildingBlock: ZUJKAS_clean_linker_0, # of connection points: 2
#     Edge 38, Type (0, 0), BuildingBlock: ZUJKAS_clean_linker_0, # of connection points: 2
#     Edge 39, Type (0, 0), BuildingBlock: ZUJKAS_clean_linker_0, # of connection points: 2
#     Edge 40, Type (0, 0), BuildingBlock: ZUJKAS_clean_linker_0, # of connection points: 2
#     Edge 41, Type (0, 0), BuildingBlock: ZUJKAS_clean_linker_0, # of connection points: 2
#     Edge 42, Type (0, 0), BuildingBlock: ZUJKAS_clean_linker_0, # of connection points: 2
#     Edge 43, Type (0, 0), BuildingBlock: ZUJKAS_clean_linker_0, # of connection points: 2
#     Edge 44, Type (0, 0), BuildingBlock: ZUJKAS_clean_linker_0, # of connection points: 2
#     Edge 45, Type (0, 0), BuildingBlock: ZUJKAS_clean_linker_0, # of connection points: 2
#     Edge 46, Type (0, 0), BuildingBlock: ZUJKAS_clean_linker_0, # of connection points: 2
#     Edge 47, Type (0, 0), BuildingBlock: ZUJKAS_clean_linker_0, # of connection points: 2
#     Edge 48, Type (0, 0), BuildingBlock: ZUJKAS_clean_linker_0, # of connection points: 2
#     Edge 49, Type (0, 0), BuildingBlock: ZUJKAS_clean_linker_0, # of connection points: 2
#     Edge 50, Type (0, 0), BuildingBlock: ZUJKAS_clean_linker_0, # of connection points: 2
#     Edge 51, Type (0, 0), BuildingBlock: ZUJKAS_clean_linker_0, # of connection points: 2
#     Edge 52, Type (0, 0), BuildingBlock: ZUJKAS_clean_linker_0, # of connection points: 2
#     Edge 53, Type (0, 0), BuildingBlock: ZUJKAS_clean_linker_0, # of connection points: 2
#     Edge 54, Type (0, 0), BuildingBlock: ZUJKAS_clean_linker_0, # of connection points: 2
#     Edge 55, Type (0, 0), BuildingBlock: ZUJKAS_clean_linker_0, # of connection points: 2
# Relax obj value: 0.132
# Max RMSD: 0.138
# Mean RMSD: 0.138
data_MOF--net-wgb--node1-BEQFEK_clean_sbu_0--edge1-ZUJKAS_clean_linker_0
_symmetry_space_group_name_H-M    P1
_symmetry_Int_Tables_number       1
_symmetry_cell_setting            triclinic
loop_
_symmetry_equiv_pos_as_xyz
'x, y, z'
_cell_length_a     80.11566
_cell_length_b     80.092034
_cell_length_c     26.225092
_cell_angle_alpha  90.003033
_cell_angle_beta   89.979184
_cell_angle_gamma 90.001308
loop_
_atom_site_label
_atom_site_type_symbol
_atom_site_fract_x
_atom_site_fract_y
_atom_site_fract_z
_atom_type_partial_charge
Co0 Co 0.34133 0.07467 0.13041 0.0
Co1 Co 0.33505 0.11346 0.13933 0.0
C2 C 0.32228 0.09402 0.04958 0.0
O3 O 0.32844 0.08035 0.06666 0.0
O4 O 0.32448 0.10784 0.07294 0.0
C5 C 0.35583 0.04106 0.10343 0.0
O6 O 0.36024 0.04644 0.05807 0.0
C7 C 0.33533 0.15044 0.12462 0.0
C8 C 0.3327 0.15848 0.20489 0.0
C9 C 0.3346 0.16451 0.15578 0.0
N10 N 0.33405 0.13679 0.15434 0.0
N11 N 0.3323 0.14174 0.20211 0.0
C12 C 0.33841 0.14981 0.06843 0.0
H13 H 0.34398 0.13762 0.05764 0.0
H14 H 0.34676 0.16017 0.05653 0.0
H15 H 0.32634 0.15118 0.04812 0.0
C16 C 0.37584 0.08599 0.15599 0.0
N17 N 0.35986 0.08916 0.14274 0.0
N18 N 0.35731 0.10539 0.14481 0.0
C19 C 0.37164 0.11305 0.15837 0.0
C20 C 0.38385 0.10102 0.16614 0.0
C21 C 0.38303 0.06885 0.16131 0.0
H22 H 0.37518 0.06138 0.18767 0.0
H23 H 0.38293 0.06264 0.12355 0.0
H24 H 0.39606 0.06916 0.17557 0.0
O25 O 0.32531 0.0762 0.1871 0.0
O26 O 0.32092 0.10341 0.19252 0.0
H27 H 0.36532 0.13431 0.20351 0.0
H28 H 0.38609 0.13511 0.17773 0.0
C29 C 0.37306 0.13131 0.16971 0.0
H30 H 0.36833 0.13858 0.13681 0.0
H31 H 0.33118 0.13365 0.23309 0.0
O32 O 0.34837 0.05085 0.13404 0.0
C33 C 0.31806 0.08861 0.20755 0.0
Co34 Co 0.07472 0.66105 0.88183 0.0
Co35 Co 0.11329 0.66828 0.87224 0.0
C36 C 0.09403 0.68172 0.96028 0.0
O37 O 0.08056 0.67511 0.94344 0.0
O38 O 0.10798 0.67945 0.9377 0.0
C39 C 0.03924 0.66131 0.87259 0.0
O40 O 0.0419 0.67726 0.86407 0.0
C41 C 0.15042 0.66988 0.8822 0.0
C42 C 0.15725 0.67016 0.80049 0.0
C43 C 0.16402 0.67009 0.84904 0.0
N44 N 0.13635 0.66971 0.85415 0.0
N45 N 0.14057 0.67006 0.80546 0.0
C46 C 0.15067 0.66853 0.93905 0.0
H47 H 0.13885 0.66294 0.95306 0.0
H48 H 0.16146 0.66089 0.95182 0.0
H49 H 0.1519 0.68121 0.95566 0.0
C50 C 0.08685 0.62718 0.85418 0.0
N51 N 0.08971 0.64298 0.86986 0.0
N52 N 0.10587 0.64582 0.86928 0.0
C53 C 0.11385 0.63174 0.85509 0.0
C54 C 0.10209 0.61948 0.84407 0.0
C55 C 0.06981 0.62068 0.84158 0.0
H56 H 0.06271 0.63035 0.82043 0.0
H57 H 0.06302 0.61801 0.87753 0.0
H58 H 0.07032 0.60919 0.81812 0.0
O59 O 0.07508 0.67617 0.82271 0.0
O60 O 0.10218 0.68142 0.81843 0.0
H61 H 0.13667 0.63581 0.81464 0.0
H62 H 0.13636 0.6169 0.85202 0.0
C63 C 0.13242 0.63018 0.85102 0.0
H64 H 0.13844 0.63689 0.88303 0.0
H65 H 0.13202 0.66985 0.77547 0.0
O66 O 0.0515 0.6521 0.88513 0.0
C67 C 0.08739 0.6836 0.80225 0.0
Co68 Co 0.66257 0.93342 0.12112 0.0
Co69 Co 0.66815 0.89449 0.1265 0.0
C70 C 0.68201 0.914 0.03984 0.0
O71 O 0.67598 0.92756 0.05814 0.0
O72 O 0.67934 0.89994 0.0613 0.0
C73 C 0.64563 0.96588 0.09726 0.0
O74 O 0.63739 0.95871 0.05991 0.0
C75 C 0.66877 0.8573 0.11403 0.0
C76 C 0.66806 0.85003 0.19535 0.0
C77 C 0.66839 0.84351 0.14648 0.0
N78 N 0.66855 0.87123 0.1428 0.0
N79 N 0.66828 0.86673 0.19127 0.0
C80 C 0.66815 0.85739 0.05706 0.0
H81 H 0.66284 0.86935 0.04309 0.0
H82 H 0.6606 0.84675 0.04278 0.0
H83 H 0.68102 0.85617 0.04191 0.0
C84 C 0.62819 0.92226 0.15051 0.0
N85 N 0.64378 0.91919 0.13315 0.0
N86 N 0.64601 0.90293 0.13077 0.0
C87 C 0.63172 0.89519 0.14399 0.0
C88 C 0.61997 0.90712 0.15791 0.0
C89 C 0.6223 0.93908 0.16782 0.0
H90 H 0.63295 0.94654 0.18223 0.0
H91 H 0.61657 0.94572 0.13512 0.0
H92 H 0.61284 0.93799 0.19852 0.0
O93 O 0.67795 0.93161 0.17879 0.0
O94 O 0.682 0.9043 0.18112 0.0
H95 H 0.6345 0.87134 0.17964 0.0
H96 H 0.61599 0.87331 0.14105 0.0
C97 C 0.6294 0.87664 0.14385 0.0
H98 H 0.63616 0.87109 0.11112 0.0
H99 H 0.66796 0.87512 0.22169 0.0
O100 O 0.6561 0.95743 0.12296 0.0
C101 C 0.68488 0.91886 0.1982 0.0
Co102 Co 0.93374 0.34495 0.87152 0.0
Co103 Co 0.89462 0.34059 0.87439 0.0
C104 C 0.91551 0.32521 0.95474 0.0
O105 O 0.9287 0.33057 0.93257 0.0
O106 O 0.90093 0.32895 0.93866 0.0
C107 C 0.96772 0.35844 0.89588 0.0
O108 O 0.9624 0.3635 0.94068 0.0
C109 C 0.85747 0.3405 0.89058 0.0
C110 C 0.84959 0.34207 0.80991 0.0
C111 C 0.84346 0.34138 0.85918 0.0
N112 N 0.87118 0.3408 0.86081 0.0
N113 N 0.86629 0.34158 0.81275 0.0
C114 C 0.85797 0.34043 0.94754 0.0
H115 H 0.87004 0.34554 0.96128 0.0
H116 H 0.84744 0.3478 0.96338 0.0
H117 H 0.85682 0.32738 0.96127 0.0
C118 C 0.9234 0.38002 0.85117 0.0
N119 N 0.91991 0.36424 0.8658 0.0
N120 N 0.90361 0.36254 0.86952 0.0
C121 C 0.89629 0.37732 0.85903 0.0
C122 C 0.90856 0.38885 0.84646 0.0
C123 C 0.94055 0.38612 0.83825 0.0
H124 H 0.94665 0.37724 0.81164 0.0
H125 H 0.94809 0.38666 0.87362 0.0
H126 H 0.94032 0.39877 0.82108 0.0
O127 O 0.93032 0.33055 0.81226 0.0
O128 O 0.90307 0.32661 0.818 0.0
H129 H 0.87352 0.37459 0.81758 0.0
H130 H 0.87439 0.39318 0.85573 0.0
C131 C 0.87783 0.37978 0.85448 0.0
H132 H 0.87136 0.37318 0.88592 0.0
H133 H 0.87444 0.34204 0.78172 0.0
O134 O 0.95776 0.35092 0.86594 0.0
C135 C 0.91699 0.32374 0.79654 0.0
Co136 Co 0.34684 0.43106 0.12782 0.0
Co137 Co 0.33761 0.39294 0.11362 0.0
C138 C 0.32507 0.41238 0.20362 0.0
O139 O 0.33245 0.42571 0.18886 0.0
O140 O 0.32658 0.3987 0.17904 0.0
C141 C 0.34717 0.46645 0.12209 0.0
O142 O 0.33098 0.46405 0.11872 0.0
C143 C 0.33464 0.35574 0.12285 0.0
C144 C 0.33099 0.3494 0.04158 0.0
C145 C 0.33229 0.34234 0.0896 0.0
N146 N 0.33488 0.36994 0.09528 0.0
N147 N 0.33263 0.36599 0.04685 0.0
C148 C 0.33609 0.35522 0.17968 0.0
H149 H 0.33234 0.36734 0.19651 0.0
H150 H 0.34929 0.35284 0.19024 0.0
H151 H 0.32826 0.34505 0.19564 0.0
C152 C 0.38044 0.41733 0.10418 0.0
N153 N 0.3642 0.41518 0.11628 0.0
N154 N 0.3604 0.39927 0.11171 0.0
C155 C 0.37412 0.39077 0.09729 0.0
C156 C 0.38727 0.40191 0.09143 0.0
C157 C 0.38843 0.4341 0.09796 0.0
H158 H 0.38099 0.44166 0.07077 0.0
H159 H 0.38837 0.44069 0.13518 0.0
H160 H 0.40143 0.43315 0.08374 0.0
O161 O 0.33181 0.43168 0.06835 0.0
O162 O 0.32531 0.40495 0.06008 0.0
H163 H 0.3678 0.36978 0.05081 0.0
H164 H 0.38744 0.36764 0.08402 0.0
C165 C 0.37447 0.3724 0.08698 0.0
H166 H 0.36804 0.36569 0.11826 0.0
H167 H 0.33229 0.37465 0.01719 0.0
O168 O 0.35657 0.45396 0.13062 0.0
C169 C 0.32394 0.42005 0.04587 0.0
Co170 Co 0.4308 0.66185 0.86858 0.0
Co171 Co 0.39281 0.67109 0.88458 0.0
C172 C 0.4123 0.6847 0.79578 0.0
O173 O 0.42559 0.677 0.80926 0.0
O174 O 0.39869 0.68303 0.82062 0.0
C175 C 0.46611 0.6614 0.87464 0.0
O176 O 0.46367 0.67753 0.87997 0.0
C177 C 0.35568 0.67387 0.87445 0.0
C178 C 0.34903 0.67775 0.9554 0.0
C179 C 0.34217 0.67626 0.90719 0.0
N180 N 0.36978 0.6738 0.90246 0.0
N181 N 0.36565 0.67618 0.9507 0.0
C182 C 0.35536 0.67222 0.81764 0.0
H183 H 0.36752 0.67599 0.80107 0.0
H184 H 0.3531 0.65897 0.80743 0.0
H185 H 0.34519 0.67992 0.80115 0.0
C186 C 0.41699 0.62806 0.88876 0.0
N187 N 0.41484 0.64441 0.87803 0.0
N188 N 0.39897 0.64823 0.8837 0.0
C189 C 0.39052 0.63442 0.89771 0.0
C190 C 0.40163 0.62118 0.9019 0.0
C191 C 0.43376 0.62 0.89385 0.0
H192 H 0.44127 0.62697 0.92234 0.0
H193 H 0.4404 0.62072 0.85678 0.0
H194 H 0.43282 0.60676 0.9059 0.0
O195 O 0.43146 0.67599 0.93013 0.0
O196 O 0.40478 0.68239 0.94026 0.0
H197 H 0.37008 0.64094 0.94622 0.0
H198 H 0.36753 0.62117 0.91382 0.0
C199 C 0.37228 0.63412 0.91 0.0
H200 H 0.36524 0.64046 0.87928 0.0
H201 H 0.3742 0.67664 0.98064 0.0
O202 O 0.45366 0.65209 0.86474 0.0
C203 C 0.41992 0.68344 0.95431 0.0
Co204 Co 0.66087 0.57628 0.12921 0.0
Co205 Co 0.66984 0.6145 0.11592 0.0
C206 C 0.683 0.59483 0.20451 0.0
O207 O 0.67559 0.58153 0.18959 0.0
O208 O 0.68131 0.60861 0.18056 0.0
C209 C 0.66076 0.54094 0.12268 0.0
O210 O 0.67689 0.54352 0.11809 0.0
C211 C 0.67253 0.65175 0.12538 0.0
C212 C 0.67617 0.65811 0.04412 0.0
C213 C 0.67479 0.66515 0.09213 0.0
N214 N 0.67242 0.63754 0.09783 0.0
N215 N 0.67467 0.64151 0.0494 0.0
C216 C 0.67102 0.65227 0.18221 0.0
H217 H 0.67492 0.64019 0.19906 0.0
H218 H 0.65779 0.65449 0.1927 0.0
H219 H 0.67871 0.66255 0.19815 0.0
C220 C 0.62712 0.5899 0.10716 0.0
N221 N 0.64337 0.59211 0.11909 0.0
N222 N 0.64706 0.60807 0.115 0.0
C223 C 0.63326 0.61652 0.10105 0.0
C224 C 0.62017 0.60531 0.09501 0.0
C225 C 0.61927 0.57309 0.10026 0.0
H226 H 0.62678 0.5657 0.0728 0.0
H227 H 0.61937 0.56635 0.13723 0.0
H228 H 0.60627 0.57399 0.08609 0.0
O229 O 0.67546 0.57592 0.06865 0.0
O230 O 0.68179 0.60271 0.06119 0.0
H231 H 0.63942 0.63762 0.05484 0.0
H232 H 0.6198 0.6396 0.08832 0.0
C233 C 0.6328 0.63491 0.09105 0.0
H234 H 0.63922 0.64159 0.12235 0.0
H235 H 0.67507 0.63285 0.01972 0.0
O236 O 0.6513 0.55331 0.13215 0.0
C237 C 0.6831 0.58769 0.04613 0.0
Co238 Co 0.577 0.34531 0.86856 0.0
Co239 Co 0.61497 0.33586 0.88366 0.0
C240 C 0.5957 0.32327 0.79343 0.0
O241 O 0.58241 0.33078 0.80794 0.0
O242 O 0.60936 0.32475 0.81811 0.0
C243 C 0.54165 0.34582 0.87314 0.0
O244 O 0.54399 0.32963 0.87723 0.0
C245 C 0.6522 0.33315 0.87556 0.0
C246 C 0.65824 0.3287 0.95667 0.0
C247 C 0.66546 0.33058 0.90907 0.0
N248 N 0.63789 0.33297 0.90259 0.0
N249 N 0.64166 0.33023 0.95092 0.0
C250 C 0.65295 0.33522 0.81892 0.0
H251 H 0.64098 0.3314 0.80123 0.0
H252 H 0.65512 0.34856 0.80971 0.0
H253 H 0.66335 0.32776 0.80269 0.0
C254 C 0.59079 0.37887 0.89217 0.0
N255 N 0.59291 0.36261 0.88028 0.0
N256 N 0.60878 0.35872 0.88541 0.0
C257 C 0.61728 0.37243 0.90012 0.0
C258 C 0.60619 0.38565 0.90542 0.0
C259 C 0.57404 0.38694 0.89775 0.0
H260 H 0.56631 0.3795 0.92455 0.0
H261 H 0.56763 0.38694 0.86024 0.0
H262 H 0.57497 0.39992 0.91212 0.0
O263 O 0.57609 0.33038 0.92829 0.0
O264 O 0.60273 0.32364 0.93699 0.0
H265 H 0.63805 0.36575 0.94702 0.0
H266 H 0.64039 0.38562 0.91503 0.0
C267 C 0.6356 0.37268 0.91118 0.0
H268 H 0.64242 0.36644 0.87979 0.0
H269 H 0.63288 0.32952 0.98022 0.0
O270 O 0.55419 0.35515 0.8647 0.0
C271 C 0.5876 0.32241 0.95099 0.0
Co272 Co 0.84281 0.57466 0.62862 0.0
Co273 Co 0.83527 0.61319 0.63771 0.0
C274 C 0.82323 0.59367 0.54774 0.0
O275 O 0.82969 0.58015 0.56487 0.0
O276 O 0.82507 0.60755 0.57106 0.0
C277 C 0.85895 0.54153 0.60299 0.0
O278 O 0.86357 0.54677 0.55766 0.0
C279 C 0.83437 0.65035 0.62653 0.0
C280 C 0.83261 0.65732 0.70796 0.0
C281 C 0.83389 0.66399 0.65945 0.0
N282 N 0.83361 0.63632 0.65474 0.0
N283 N 0.83234 0.64064 0.70321 0.0
C284 C 0.837 0.65048 0.57009 0.0
H285 H 0.84223 0.63836 0.55719 0.0
H286 H 0.84547 0.66083 0.55902 0.0
H287 H 0.82481 0.65241 0.5509 0.0
C288 C 0.87688 0.58712 0.65572 0.0
N289 N 0.86085 0.5897 0.64172 0.0
N290 N 0.85771 0.60582 0.64337 0.0
C291 C 0.87169 0.614 0.65721 0.0
C292 C 0.88427 0.60246 0.66619 0.0
C293 C 0.88427 0.57024 0.66506 0.0
H294 H 0.87539 0.5625 0.6873 0.0
H295 H 0.88648 0.564 0.62792 0.0
H296 H 0.89626 0.57103 0.68608 0.0
O297 O 0.8267 0.57542 0.68511 0.0
O298 O 0.8213 0.60244 0.68999 0.0
H299 H 0.86665 0.63652 0.69819 0.0
H300 H 0.88619 0.63671 0.66391 0.0
C301 C 0.87298 0.63256 0.66258 0.0
H302 H 0.8668 0.63868 0.62979 0.0
H303 H 0.83176 0.63214 0.73332 0.0
O304 O 0.85076 0.55118 0.63223 0.0
C305 C 0.81893 0.58757 0.70513 0.0
Co306 Co 0.57366 0.16328 0.36924 0.0
Co307 Co 0.61189 0.17195 0.356 0.0
C308 C 0.59192 0.18361 0.44764 0.0
O309 O 0.57846 0.17653 0.43266 0.0
O310 O 0.60549 0.18224 0.42237 0.0
C311 C 0.53973 0.1486 0.39518 0.0
O312 O 0.54353 0.14698 0.44364 0.0
C313 C 0.64896 0.17017 0.36936 0.0
C314 C 0.65691 0.18351 0.29967 0.0
C315 C 0.66298 0.17542 0.34241 0.0
N316 N 0.63526 0.1749 0.34323 0.0
N317 N 0.64019 0.18288 0.30174 0.0
C318 C 0.6485 0.16178 0.42027 0.0
H319 H 0.63582 0.16265 0.43717 0.0
H320 H 0.65179 0.14841 0.41589 0.0
H321 H 0.65783 0.16755 0.44613 0.0
C322 C 0.58685 0.12944 0.34509 0.0
N323 N 0.58932 0.14565 0.35692 0.0
N324 N 0.60519 0.1493 0.3499 0.0
C325 C 0.6132 0.13564 0.33234 0.0
C326 C 0.60188 0.12253 0.32908 0.0
C327 C 0.57022 0.12096 0.34707 0.0
H328 H 0.5621 0.12604 0.31652 0.0
H329 H 0.56422 0.12358 0.3843 0.0
H330 H 0.57141 0.10725 0.34228 0.0
O331 O 0.57408 0.17932 0.31198 0.0
O332 O 0.60092 0.185 0.30237 0.0
H333 H 0.63275 0.14762 0.28994 0.0
H334 H 0.63278 0.12522 0.28482 0.0
C335 C 0.63056 0.13585 0.31108 0.0
H336 H 0.63963 0.13505 0.34282 0.0
H337 H 0.63213 0.18786 0.27454 0.0
O338 O 0.55039 0.15464 0.36434 0.0
C339 C 0.5858 0.18695 0.28918 0.0
Co340 Co 0.16508 0.43264 0.6279 0.0
Co341 Co 0.17353 0.39429 0.6409 0.0
C342 C 0.18567 0.41388 0.55007 0.0
O343 O 0.17854 0.42729 0.56516 0.0
O344 O 0.18426 0.40026 0.57503 0.0
C345 C 0.14762 0.46495 0.60123 0.0
O346 O 0.14119 0.45841 0.55971 0.0
C347 C 0.17449 0.3571 0.62793 0.0
C348 C 0.1812 0.3498 0.70655 0.0
C349 C 0.17761 0.34328 0.65891 0.0
N350 N 0.17602 0.37102 0.65647 0.0
N351 N 0.18009 0.36648 0.70329 0.0
C352 C 0.17077 0.35727 0.57205 0.0
H353 H 0.17407 0.36952 0.55519 0.0
H354 H 0.15721 0.35521 0.56623 0.0
H355 H 0.1777 0.34715 0.55232 0.0
C356 C 0.13117 0.41947 0.65436 0.0
N357 N 0.1473 0.41715 0.641 0.0
N358 N 0.15085 0.40113 0.64492 0.0
C359 C 0.13708 0.39279 0.66006 0.0
C360 C 0.12415 0.40412 0.66656 0.0
C361 C 0.12291 0.43618 0.65828 0.0
H362 H 0.12157 0.44149 0.61953 0.0
H363 H 0.1103 0.43534 0.67549 0.0
H364 H 0.13079 0.44472 0.68127 0.0
O365 O 0.1808 0.4324 0.68551 0.0
O366 O 0.1864 0.40551 0.69481 0.0
H367 H 0.12455 0.37056 0.68837 0.0
H368 H 0.14076 0.36705 0.64183 0.0
C369 C 0.13698 0.37475 0.67498 0.0
H370 H 0.14614 0.37272 0.70605 0.0
H371 H 0.18203 0.37481 0.73329 0.0
O372 O 0.15707 0.45621 0.62958 0.0
C373 C 0.18833 0.42062 0.7083 0.0
Co374 Co 0.43236 0.84358 0.36822 0.0
Co375 Co 0.39405 0.83487 0.35717 0.0
C376 C 0.41371 0.82413 0.44925 0.0
O377 O 0.42712 0.83095 0.43275 0.0
O378 O 0.40001 0.82533 0.42466 0.0
C379 C 0.46452 0.86127 0.39392 0.0
O380 O 0.45796 0.86748 0.43574 0.0
C381 C 0.3569 0.83463 0.37007 0.0
C382 C 0.34959 0.82462 0.29476 0.0
C383 C 0.34313 0.83016 0.34065 0.0
N384 N 0.37081 0.83193 0.34235 0.0
N385 N 0.36628 0.82593 0.29748 0.0
C386 C 0.35695 0.84053 0.42418 0.0
H387 H 0.36937 0.83847 0.4418 0.0
H388 H 0.35421 0.8541 0.42517 0.0
H389 H 0.34715 0.83398 0.44642 0.0
C390 C 0.41906 0.87715 0.3384 0.0
N391 N 0.4168 0.86112 0.35292 0.0
N392 N 0.40081 0.85746 0.34917 0.0
C393 C 0.39243 0.87103 0.33262 0.0
C394 C 0.40369 0.88398 0.3254 0.0
C395 C 0.4357 0.88556 0.33497 0.0
H396 H 0.44435 0.87778 0.31205 0.0
H397 H 0.44092 0.88687 0.37386 0.0
H398 H 0.43479 0.89819 0.31788 0.0
O399 O 0.43217 0.82688 0.31299 0.0
O400 O 0.40531 0.82091 0.30604 0.0
H401 H 0.37216 0.86061 0.29013 0.0
H402 H 0.37055 0.88282 0.29941 0.0
C403 C 0.37442 0.87092 0.31746 0.0
H404 H 0.36662 0.86873 0.3517 0.0
H405 H 0.37459 0.82274 0.26848 0.0
O406 O 0.45584 0.85178 0.36548 0.0
C407 C 0.42036 0.81876 0.29234 0.0
Co408 Co 0.84381 0.9318 0.62221 0.0
Co409 Co 0.83747 0.89298 0.61416 0.0
C410 C 0.82373 0.913 0.70168 0.0
O411 O 0.83019 0.92655 0.68485 0.0
O412 O 0.82612 0.89907 0.67905 0.0
C413 C 0.85786 0.96593 0.6474 0.0
O414 O 0.86199 0.96134 0.6938 0.0
C415 C 0.83653 0.85574 0.62754 0.0
C416 C 0.83279 0.84848 0.547 0.0
C417 C 0.83443 0.84197 0.59559 0.0
N418 N 0.8362 0.86966 0.59868 0.0
N419 N 0.83396 0.86514 0.55069 0.0
C420 C 0.83806 0.85583 0.68436 0.0
H421 H 0.83427 0.86811 0.70005 0.0
H422 H 0.85128 0.85361 0.6949 0.0
H423 H 0.83031 0.84578 0.70137 0.0
C424 C 0.87846 0.92019 0.59976 0.0
N425 N 0.8624 0.91713 0.61217 0.0
N426 N 0.85977 0.90092 0.61013 0.0
C427 C 0.87409 0.89316 0.59708 0.0
C428 C 0.88644 0.90511 0.5898 0.0
C429 C 0.88578 0.9373 0.59508 0.0
H430 H 0.88475 0.94376 0.63233 0.0
H431 H 0.89913 0.93692 0.58383 0.0
H432 H 0.8786 0.94459 0.56659 0.0
O433 O 0.82836 0.93016 0.56407 0.0
O434 O 0.82407 0.90295 0.55955 0.0
H435 H 0.86754 0.87215 0.55117 0.0
H436 H 0.88825 0.87093 0.57722 0.0
C437 C 0.87527 0.87491 0.58517 0.0
H438 H 0.87032 0.8676 0.61771 0.0
H439 H 0.83319 0.87349 0.52025 0.0
O440 O 0.85087 0.95555 0.61761 0.0
C441 C 0.82137 0.91764 0.54349 0.0
Co442 Co 0.92926 0.16305 0.37775 0.0
Co443 Co 0.8906 0.17084 0.37341 0.0
C444 C 0.91412 0.18286 0.29174 0.0
O445 O 0.92684 0.17667 0.31422 0.0
O446 O 0.89936 0.18075 0.30887 0.0
C447 C 0.96372 0.14912 0.3606 0.0
O448 O 0.96066 0.14718 0.31175 0.0
C449 C 0.85417 0.16742 0.34948 0.0
C450 C 0.84379 0.18446 0.40776 0.0
C451 C 0.83932 0.17393 0.36835 0.0
N452 N 0.86687 0.17379 0.377 0.0
N453 N 0.86049 0.18397 0.41164 0.0
C454 C 0.85633 0.15637 0.30403 0.0
H455 H 0.86968 0.15304 0.29876 0.0
H456 H 0.84877 0.14487 0.30858 0.0
H457 H 0.8517 0.16295 0.26959 0.0
C458 C 0.91604 0.12918 0.3985 0.0
N459 N 0.91359 0.14512 0.38375 0.0
N460 N 0.89746 0.14835 0.38423 0.0
C461 C 0.88921 0.13464 0.40054 0.0
C462 C 0.90069 0.122 0.40976 0.0
C463 C 0.93286 0.1213 0.40438 0.0
H464 H 0.94024 0.12344 0.36926 0.0
H465 H 0.93191 0.10766 0.41114 0.0
H466 H 0.93951 0.12724 0.43676 0.0
O467 O 0.9261 0.17876 0.43457 0.0
O468 O 0.89915 0.1846 0.42974 0.0
H469 H 0.8686 0.12471 0.4446 0.0
H470 H 0.86344 0.13185 0.38165 0.0
C471 C 0.87118 0.13449 0.41569 0.0
H472 H 0.86753 0.14676 0.43165 0.0
H473 H 0.86753 0.19066 0.43803 0.0
O474 O 0.95249 0.15507 0.38963 0.0
C475 C 0.91334 0.18659 0.45043 0.0
Co476 Co 0.16029 0.07587 0.6317 0.0
Co477 Co 0.16739 0.11443 0.6184 0.0
C478 C 0.18213 0.09527 0.70575 0.0
O479 O 0.17519 0.0817 0.69101 0.0
O480 O 0.17969 0.10903 0.68223 0.0
C481 C 0.16108 0.04039 0.62286 0.0
O482 O 0.17699 0.04333 0.6147 0.0
C483 C 0.16838 0.15158 0.62944 0.0
C484 C 0.16927 0.1587 0.54804 0.0
C485 C 0.16866 0.16529 0.59678 0.0
N486 N 0.16867 0.13759 0.60093 0.0
N487 N 0.16939 0.142 0.55242 0.0
C488 C 0.16658 0.15161 0.68617 0.0
H489 H 0.16111 0.13963 0.6994 0.0
H490 H 0.15866 0.16222 0.69869 0.0
H491 H 0.1791 0.15303 0.70372 0.0
C492 C 0.12576 0.08793 0.61386 0.0
N493 N 0.14202 0.09089 0.62369 0.0
N494 N 0.14487 0.10702 0.61961 0.0
C495 C 0.13045 0.11484 0.6079 0.0
C496 C 0.11786 0.103 0.60355 0.0
C497 C 0.11828 0.07086 0.61048 0.0
H498 H 0.12419 0.06395 0.57854 0.0
H499 H 0.12091 0.06393 0.64621 0.0
H500 H 0.10458 0.07139 0.60444 0.0
O501 O 0.17433 0.0763 0.56995 0.0
O502 O 0.17935 0.10336 0.56223 0.0
H503 H 0.13623 0.13512 0.55806 0.0
H504 H 0.11618 0.137 0.58834 0.0
C505 C 0.12927 0.13293 0.59396 0.0
H506 H 0.13499 0.14059 0.62447 0.0
H507 H 0.16958 0.13357 0.52211 0.0
O508 O 0.15162 0.05252 0.63501 0.0
C509 C 0.18121 0.08843 0.54688 0.0
Co510 Co 0.07571 0.84305 0.38129 0.0
Co511 Co 0.11429 0.83504 0.38907 0.0
C512 C 0.09383 0.82264 0.30084 0.0
O513 O 0.0805 0.82949 0.31791 0.0
O514 O 0.10779 0.82437 0.32374 0.0
C515 C 0.04271 0.85976 0.35745 0.0
O516 O 0.04825 0.86519 0.31331 0.0
C517 C 0.15144 0.83396 0.37402 0.0
C518 C 0.15909 0.82795 0.4529 0.0
C519 C 0.16533 0.831 0.40463 0.0
N520 N 0.13765 0.8328 0.40331 0.0
N521 N 0.1424 0.82919 0.4503 0.0
C522 C 0.15119 0.83719 0.31786 0.0
H523 H 0.13881 0.83403 0.3016 0.0
H524 H 0.15361 0.85063 0.31081 0.0
H525 H 0.16111 0.82986 0.29854 0.0
C526 C 0.08882 0.87709 0.40652 0.0
N527 N 0.09114 0.861 0.39256 0.0
N528 N 0.10722 0.85762 0.39421 0.0
C529 C 0.11561 0.87144 0.40842 0.0
C530 C 0.10427 0.88423 0.41715 0.0
C531 C 0.07207 0.88472 0.41624 0.0
H532 H 0.06422 0.87591 0.43835 0.0
H533 H 0.06584 0.88714 0.37922 0.0
H534 H 0.07307 0.89665 0.43753 0.0
O535 O 0.07676 0.82736 0.43892 0.0
O536 O 0.10377 0.82187 0.44365 0.0
H537 H 0.13768 0.86491 0.44967 0.0
H538 H 0.13858 0.88525 0.41979 0.0
C539 C 0.13413 0.87221 0.4154 0.0
H540 H 0.14034 0.86664 0.38178 0.0
H541 H 0.13422 0.8276 0.48085 0.0
O542 O 0.05218 0.85103 0.3858 0.0
C543 C 0.08894 0.8198 0.45953 0.0
H544 H 0.29966 0.11209 0.25775 0.0
H545 H 0.27559 0.1074 0.31289 0.0
H546 H 0.28223 0.05417 0.2991 0.0
H547 H 0.30644 0.05867 0.24376 0.0
H548 H 0.24655 0.08742 0.27797 0.0
H549 H 0.27633 0.06403 0.4564 0.0
H550 H 0.28767 0.07644 0.41046 0.0
H551 H 0.28275 0.05509 0.39647 0.0
C552 C 0.29619 0.09937 0.26692 0.0
C553 C 0.30492 0.08575 0.2461 0.0
C554 C 0.28242 0.09673 0.29834 0.0
C555 C 0.27721 0.08047 0.30983 0.0
C556 C 0.2862 0.06682 0.29081 0.0
H557 H 0.19349 0.05829 0.51454 0.0
H558 H 0.21528 0.05364 0.45051 0.0
C559 C 0.3 0.06943 0.25922 0.0
C560 C 0.26175 0.07799 0.33926 0.0
H561 H 0.24722 0.06767 0.45724 0.0
C562 C 0.24662 0.08292 0.317 0.0
C563 C 0.26197 0.07191 0.38976 0.0
C564 C 0.27802 0.0666 0.41509 0.0
C565 C 0.2317 0.08254 0.34475 0.0
C566 C 0.23205 0.07738 0.39624 0.0
C567 C 0.24704 0.07162 0.41768 0.0
C568 C 0.21755 0.07971 0.43016 0.0
C569 C 0.21576 0.08799 0.31904 0.0
C570 C 0.21157 0.09588 0.43936 0.0
C571 C 0.19921 0.09859 0.47576 0.0
C572 C 0.19266 0.08517 0.50393 0.0
C573 C 0.19825 0.06888 0.49336 0.0
C574 C 0.2107 0.06619 0.45693 0.0
H575 H 0.21645 0.08617 0.27708 0.0
H576 H 0.20484 0.081 0.33401 0.0
H577 H 0.21374 0.10148 0.32633 0.0
H578 H 0.21693 0.10651 0.41979 0.0
H579 H 0.19518 0.11129 0.48292 0.0
H580 H 0.05878 0.80829 0.49414 0.0
H581 H 0.05398 0.78616 0.55696 0.0
H582 H 0.10709 0.78139 0.57928 0.0
H583 H 0.11205 0.80346 0.5172 0.0
H584 H 0.06648 0.75311 0.54833 0.0
H585 H 0.08854 0.78379 0.72512 0.0
H586 H 0.08295 0.79539 0.66855 0.0
H587 H 0.10314 0.78568 0.6735 0.0
C588 C 0.06942 0.80271 0.51302 0.0
C589 C 0.0858 0.80761 0.50065 0.0
C590 C 0.06664 0.79007 0.54875 0.0
C591 C 0.08018 0.78234 0.57302 0.0
C592 C 0.09648 0.78745 0.56159 0.0
H593 H 0.11078 0.70022 0.74652 0.0
H594 H 0.10628 0.72378 0.68935 0.0
C595 C 0.09928 0.8 0.52585 0.0
C596 C 0.07755 0.76807 0.60764 0.0
H597 H 0.08797 0.75375 0.72571 0.0
C598 C 0.07083 0.75329 0.58749 0.0
C599 C 0.0832 0.76845 0.65862 0.0
C600 C 0.08971 0.78424 0.68292 0.0
C601 C 0.07063 0.73851 0.61621 0.0
C602 C 0.0772 0.73871 0.66611 0.0
C603 C 0.08308 0.75369 0.68713 0.0
C604 C 0.07938 0.7233 0.69599 0.0
C605 C 0.06427 0.72261 0.59231 0.0
C606 C 0.06566 0.71507 0.71756 0.0
C607 C 0.06816 0.70154 0.75036 0.0
C608 C 0.08445 0.69619 0.76215 0.0
C609 C 0.09809 0.70408 0.73854 0.0
C610 C 0.09556 0.71754 0.70589 0.0
H611 H 0.06112 0.72425 0.55136 0.0
H612 H 0.07378 0.71259 0.59587 0.0
H613 H 0.0529 0.7184 0.61279 0.0
H614 H 0.05309 0.71949 0.71051 0.0
H615 H 0.0574 0.69575 0.768 0.0
H616 H 0.80878 0.94726 0.50783 0.0
H617 H 0.78491 0.95092 0.45047 0.0
H618 H 0.78134 0.89755 0.43211 0.0
H619 H 0.80504 0.89369 0.48914 0.0
H620 H 0.77908 0.93801 0.34558 0.0
H621 H 0.73518 0.91339 0.49121 0.0
H622 H 0.75583 0.92087 0.5069 0.0
H623 H 0.75312 0.90044 0.4798 0.0
C624 C 0.80306 0.93631 0.49103 0.0
C625 C 0.80866 0.92017 0.50355 0.0
C626 C 0.78943 0.93844 0.45842 0.0
C627 C 0.78126 0.92448 0.43818 0.0
C628 C 0.78737 0.90844 0.4483 0.0
H629 H 0.70167 0.89449 0.24969 0.0
H630 H 0.72433 0.89811 0.31078 0.0
C631 C 0.80094 0.90628 0.48074 0.0
C632 C 0.76595 0.92643 0.4078 0.0
H633 H 0.72481 0.91559 0.40625 0.0
C634 C 0.76712 0.93338 0.35892 0.0
C635 C 0.75045 0.92042 0.42582 0.0
C636 C 0.74846 0.91349 0.47899 0.0
C637 C 0.75328 0.93361 0.32624 0.0
C638 C 0.73794 0.92695 0.34357 0.0
C639 C 0.73663 0.92065 0.39324 0.0
C640 C 0.7235 0.92511 0.30931 0.0
C641 C 0.75534 0.94018 0.27267 0.0
C642 C 0.7153 0.93913 0.28948 0.0
C643 C 0.70233 0.93712 0.25449 0.0
C644 C 0.69738 0.92105 0.23896 0.0
C645 C 0.70523 0.90704 0.26058 0.0
C646 C 0.71816 0.90907 0.29551 0.0
H647 H 0.76866 0.94227 0.26269 0.0
H648 H 0.74984 0.93136 0.24465 0.0
H649 H 0.74866 0.95226 0.26908 0.0
H650 H 0.71912 0.95159 0.30048 0.0
H651 H 0.69648 0.94817 0.23874 0.0
H652 H 0.89096 0.30783 0.75021 0.0
H653 H 0.89246 0.28415 0.69184 0.0
H654 H 0.94622 0.28683 0.69337 0.0
H655 H 0.94492 0.31069 0.75148 0.0
H656 H 0.93177 0.28118 0.59543 0.0
H657 H 0.90748 0.23766 0.74253 0.0
H658 H 0.89451 0.25563 0.73204 0.0
H659 H 0.91515 0.25827 0.75775 0.0
C660 C 0.90312 0.30352 0.73778 0.0
C661 C 0.91784 0.311 0.75599 0.0
C662 C 0.90394 0.28994 0.70468 0.0
C663 C 0.91945 0.28357 0.68951 0.0
C664 C 0.93414 0.29153 0.70524 0.0
H665 H 0.94226 0.19807 0.49361 0.0
H666 H 0.94519 0.221 0.55468 0.0
C667 C 0.93336 0.30516 0.73831 0.0
C668 C 0.92026 0.2683 0.65831 0.0
H669 H 0.90892 0.22727 0.6575 0.0
C670 C 0.92696 0.26933 0.60904 0.0
C671 C 0.91407 0.2529 0.67665 0.0
C672 C 0.90754 0.25095 0.73032 0.0
C673 C 0.92695 0.25543 0.57659 0.0
C674 C 0.92027 0.24017 0.59443 0.0
C675 C 0.914 0.23904 0.64416 0.0
C676 C 0.91865 0.22555 0.56081 0.0
C677 C 0.93347 0.25728 0.52289 0.0
C678 C 0.90274 0.22027 0.54574 0.0
C679 C 0.901 0.2072 0.5111 0.0
C680 C 0.91518 0.19916 0.49116 0.0
C681 C 0.93111 0.20405 0.50811 0.0
C682 C 0.93282 0.21718 0.54271 0.0
H683 H 0.93563 0.27056 0.51251 0.0
H684 H 0.94549 0.2505 0.51932 0.0
H685 H 0.92458 0.25175 0.49514 0.0
H686 H 0.89168 0.22657 0.55971 0.0
H687 H 0.88856 0.20367 0.49914 0.0
H688 H 0.30683 0.39835 0.98543 0.0
H689 H 0.28347 0.40472 0.92917 0.0
H690 H 0.28944 0.45726 0.95984 0.0
H691 H 0.31297 0.45107 0.01664 0.0
H692 H 0.25404 0.42624 0.97434 0.0
H693 H 0.2841 0.44881 0.79518 0.0
H694 H 0.29465 0.434 0.83594 0.0
H695 H 0.29196 0.45512 0.85677 0.0
C696 C 0.3034 0.4113 0.97972 0.0
C697 C 0.31165 0.4242 0.0059 0.0
C698 C 0.29006 0.41489 0.94757 0.0
C699 C 0.28481 0.43141 0.9408 0.0
C700 C 0.29345 0.44444 0.96471 0.0
H701 H 0.20044 0.45132 0.73572 0.0
H702 H 0.22249 0.45725 0.79787 0.0
C703 C 0.30686 0.44086 0.997 0.0
C704 C 0.2694 0.4346 0.91197 0.0
H705 H 0.2552 0.44329 0.79251 0.0
C706 C 0.25419 0.43028 0.93485 0.0
C707 C 0.26977 0.44003 0.86086 0.0
C708 C 0.28595 0.44479 0.83534 0.0
C709 C 0.23933 0.43037 0.90684 0.0
C710 C 0.23986 0.43461 0.8546 0.0
C711 C 0.25491 0.44 0.83262 0.0
C712 C 0.22551 0.43149 0.8208 0.0
C713 C 0.2233 0.42536 0.93288 0.0
C714 C 0.21996 0.41507 0.81348 0.0
C715 C 0.20748 0.41162 0.77807 0.0
C716 C 0.20036 0.42456 0.74916 0.0
C717 C 0.20564 0.44109 0.75755 0.0
C718 C 0.21823 0.44451 0.79289 0.0
H719 H 0.22391 0.42768 0.97461 0.0
H720 H 0.21247 0.43225 0.91688 0.0
H721 H 0.22117 0.4118 0.92704 0.0
H722 H 0.22566 0.40482 0.83406 0.0
H723 H 0.20371 0.39876 0.77255 0.0
H724 H 0.45116 0.80785 0.2608 0.0
H725 H 0.45715 0.78358 0.20684 0.0
H726 H 0.4044 0.77532 0.1865 0.0
H727 H 0.39823 0.7994 0.24007 0.0
H728 H 0.42576 0.74688 0.22593 0.0
H729 H 0.44827 0.7772 0.04709 0.0
H730 H 0.45593 0.78437 0.10793 0.0
H731 H 0.43459 0.78802 0.09079 0.0
C732 C 0.44084 0.80102 0.24421 0.0
C733 C 0.42421 0.8055 0.25497 0.0
C734 C 0.4443 0.78718 0.21348 0.0
C735 C 0.4312 0.77774 0.19306 0.0
C736 C 0.41465 0.7825 0.20223 0.0
H737 H 0.39849 0.69764 0.02221 0.0
H738 H 0.40488 0.7187 0.08617 0.0
C739 C 0.41117 0.79628 0.23276 0.0
C740 C 0.43443 0.76233 0.16415 0.0
H741 H 0.44374 0.74822 0.04495 0.0
C742 C 0.42999 0.74708 0.18663 0.0
C743 C 0.44014 0.76273 0.11327 0.0
C744 C 0.44501 0.77892 0.08793 0.0
C745 C 0.43021 0.73224 0.15845 0.0
C746 C 0.43472 0.73281 0.10641 0.0
C747 C 0.44027 0.74788 0.08492 0.0
C748 C 0.43151 0.7186 0.07202 0.0
C749 C 0.42507 0.71619 0.18413 0.0
C750 C 0.44439 0.7116 0.04283 0.0
C751 C 0.44077 0.69952 0.00597 0.0
C752 C 0.42417 0.69452 0.99735 0.0
C753 C 0.4114 0.70123 0.02783 0.0
C754 C 0.41504 0.71318 0.06471 0.0
H755 H 0.42753 0.71666 0.2258 0.0
H756 H 0.41147 0.71428 0.17872 0.0
H757 H 0.43175 0.70531 0.16764 0.0
H758 H 0.45715 0.71577 0.04774 0.0
H759 H 0.45087 0.69461 0.98295 0.0
H760 H 0.69398 0.55695 0.01396 0.0
H761 H 0.71589 0.55126 0.95097 0.0
H762 H 0.72056 0.60403 0.92149 0.0
H763 H 0.69872 0.60986 0.98356 0.0
H764 H 0.72073 0.58301 0.83256 0.0
H765 H 0.76558 0.56273 0.98302 0.0
H766 H 0.74563 0.55243 0.98019 0.0
H767 H 0.74671 0.57401 0.99813 0.0
C768 C 0.69952 0.56732 0.99352 0.0
C769 C 0.69475 0.58388 0.00412 0.0
C770 C 0.71207 0.56404 0.95784 0.0
C771 C 0.71994 0.57726 0.93236 0.0
C772 C 0.71464 0.59368 0.94105 0.0
H773 H 0.79945 0.61047 0.75392 0.0
H774 H 0.77536 0.60503 0.80821 0.0
C775 C 0.70218 0.59698 0.97663 0.0
C776 C 0.7343 0.57439 0.89833 0.0
H777 H 0.77612 0.56627 0.90021 0.0
C778 C 0.73278 0.57905 0.84704 0.0
C779 C 0.74995 0.5692 0.91759 0.0
C780 C 0.75222 0.56437 0.97277 0.0
C781 C 0.74673 0.57941 0.81492 0.0
C782 C 0.76253 0.57519 0.83495 0.0
C783 C 0.76392 0.56955 0.88534 0.0
C784 C 0.77788 0.57816 0.80545 0.0
C785 C 0.74457 0.58487 0.76024 0.0
C786 C 0.78758 0.56481 0.78784 0.0
C787 C 0.80142 0.56785 0.75674 0.0
C788 C 0.80574 0.58431 0.7432 0.0
C789 C 0.79641 0.59765 0.76323 0.0
C790 C 0.7826 0.59458 0.79407 0.0
H791 H 0.73143 0.58351 0.74737 0.0
H792 H 0.74809 0.59822 0.75676 0.0
H793 H 0.75277 0.57753 0.73448 0.0
H794 H 0.78414 0.55206 0.79682 0.0
H795 H 0.80839 0.5573 0.7421 0.0
H796 H 0.55511 0.1993 0.2624 0.0
H797 H 0.54923 0.22141 0.20025 0.0
H798 H 0.60161 0.22425 0.16332 0.0
H799 H 0.60761 0.20226 0.22467 0.0
H800 H 0.56327 0.25407 0.2047 0.0
H801 H 0.57877 0.22245 0.02314 0.0
H802 H 0.57423 0.2111 0.08108 0.0
H803 H 0.59469 0.21972 0.07052 0.0
C804 C 0.56533 0.20445 0.2404 0.0
C805 C 0.58184 0.19906 0.24851 0.0
C806 C 0.56194 0.21707 0.20507 0.0
C807 C 0.57496 0.22426 0.17691 0.0
C808 C 0.59135 0.21862 0.18405 0.0
H809 H 0.60904 0.30504 0.01161 0.0
H810 H 0.60235 0.28179 0.06801 0.0
C811 C 0.59477 0.20612 0.21941 0.0
C812 C 0.5719 0.23859 0.14288 0.0
H813 H 0.58062 0.25259 0.02314 0.0
C814 C 0.56661 0.25371 0.16463 0.0
C815 C 0.57623 0.23798 0.0907 0.0
C816 C 0.58114 0.22188 0.06485 0.0
C817 C 0.56677 0.26855 0.13625 0.0
C818 C 0.5723 0.2681 0.08522 0.0
C819 C 0.57651 0.25282 0.06256 0.0
C820 C 0.57569 0.28345 0.05629 0.0
C821 C 0.56211 0.2848 0.16154 0.0
C822 C 0.56279 0.29224 0.03225 0.0
C823 C 0.56655 0.30559 -0.00014 0.0
C824 C 0.58328 0.31018 0.991 0.0
C825 C 0.59605 0.30177 0.01729 0.0
C826 C 0.59227 0.2885 0.04953 0.0
H827 H 0.55804 0.28302 0.20168 0.0
H828 H 0.57297 0.29342 0.16094 0.0
H829 H 0.55185 0.29086 0.13995 0.0
H830 H 0.54992 0.2884 0.03709 0.0
H831 H 0.55644 0.31182 0.98014 0.0
H832 H 0.31437 0.31929 0.03746 0.0
H833 H 0.31488 0.289 0.04693 0.0
H834 H 0.34923 0.29368 0.17267 0.0
H835 H 0.34937 0.324 0.16197 0.0
H836 H 0.35921 0.27034 0.10253 0.0
H837 H 0.29285 0.25979 0.1533 0.0
H838 H 0.29547 0.27146 0.09546 0.0
H839 H 0.30235 0.28021 0.15504 0.0
C840 C 0.3219 0.31391 0.06757 0.0
C841 C 0.33153 0.32414 0.09972 0.0
C842 C 0.32207 0.29658 0.07315 0.0
C843 C 0.33181 0.28908 0.11119 0.0
C844 C 0.34143 0.29923 0.1435 0.0
H845 H 0.35035 0.18841 0.21047 0.0
H846 H 0.35047 0.21851 0.19549 0.0
C847 C 0.34131 0.31662 0.13782 0.0
C848 C 0.33264 0.27062 0.11522 0.0
H849 H 0.30877 0.2357 0.13182 0.0
C850 C 0.3482 0.26278 0.10922 0.0
C851 C 0.31824 0.26076 0.12363 0.0
C852 C 0.30131 0.26847 0.13272 0.0
C853 C 0.34971 0.24532 0.11094 0.0
C854 C 0.33531 0.23549 0.11924 0.0
C855 C 0.31975 0.2433 0.12494 0.0
C856 C 0.33628 0.21715 0.1255 0.0
C857 C 0.36666 0.23749 0.10341 0.0
C858 C 0.32819 0.20641 0.0911 0.0
C859 C 0.32816 0.18913 0.09947 0.0
C860 C 0.33603 0.18242 0.14272 0.0
C861 C 0.34424 0.19323 0.17668 0.0
C862 C 0.3444 0.21041 0.16808 0.0
H863 H 0.37558 0.24629 0.08526 0.0
H864 H 0.3718 0.23382 0.14106 0.0
H865 H 0.36573 0.22608 0.07951 0.0
H866 H 0.32169 0.21143 0.0583 0.0
H867 H 0.32138 0.18117 0.07335 0.0
H868 H 0.18774 0.65383 0.79494 0.0
H869 H 0.21795 0.65471 0.80663 0.0
H870 H 0.21165 0.68687 0.93718 0.0
H871 H 0.1813 0.68592 0.92586 0.0
H872 H 0.23773 0.68222 0.80165 0.0
H873 H 0.24404 0.65206 0.99126 0.0
H874 H 0.22506 0.65098 0.95431 0.0
H875 H 0.22992 0.66946 0.99028 0.0
C876 C 0.19277 0.66092 0.82658 0.0
C877 C 0.18213 0.66961 0.85995 0.0
C878 C 0.21003 0.66142 0.83317 0.0
C879 C 0.21706 0.67068 0.87311 0.0
C880 C 0.20648 0.67929 0.90685 0.0
H881 H 0.31883 0.69449 0.95707 0.0
H882 H 0.28853 0.69363 0.94667 0.0
C883 C 0.18913 0.6787 0.90046 0.0
C884 C 0.23548 0.672 0.87735 0.0
H885 H 0.26842 0.66454 0.95669 0.0
C886 C 0.24445 0.67829 0.83548 0.0
C887 C 0.24422 0.66687 0.9215 0.0
C888 C 0.23536 0.65932 0.96675 0.0
C889 C 0.2619 0.67978 0.8368 0.0
C890 C 0.27061 0.67469 0.88096 0.0
C891 C 0.26167 0.66845 0.9229 0.0
C892 C 0.28902 0.67583 0.88471 0.0
C893 C 0.27086 0.68706 0.79133 0.0
C894 C 0.29934 0.66613 0.85315 0.0
C895 C 0.31671 0.66658 0.85901 0.0
C896 C 0.32401 0.67678 0.8965 0.0
C897 C 0.31359 0.68658 0.92764 0.0
C898 C 0.29629 0.6861 0.92182 0.0
H899 H 0.26219 0.69374 0.76536 0.0
H900 H 0.2808 0.69584 0.8037 0.0
H901 H 0.27687 0.67682 0.76948 0.0
H902 H 0.29394 0.65783 0.82502 0.0
H903 H 0.32426 0.6584 0.8357 0.0
H904 H 0.6518 0.81958 0.19875 0.0
H905 H 0.65314 0.78937 0.18695 0.0
H906 H 0.68554 0.79612 0.05726 0.0
H907 H 0.68456 0.82647 0.06954 0.0
H908 H 0.64485 0.76928 0.10107 0.0
H909 H 0.71195 0.76479 0.15382 0.0
H910 H 0.69956 0.78314 0.16675 0.0
H911 H 0.70704 0.77916 0.10335 0.0
C912 C 0.65913 0.81466 0.16745 0.0
C913 C 0.66798 0.82543 0.13484 0.0
C914 C 0.65985 0.7974 0.16074 0.0
C915 C 0.66958 0.79052 0.12165 0.0
C916 C 0.67809 0.80121 0.08803 0.0
H917 H 0.69285 0.68834 0.04106 0.0
H918 H 0.69152 0.71868 0.04916 0.0
C919 C 0.67733 0.81855 0.09463 0.0
C920 C 0.67103 0.77213 0.11728 0.0
H921 H 0.69851 0.73979 0.12964 0.0
C922 C 0.65657 0.7628 0.10724 0.0
C923 C 0.68633 0.76377 0.12561 0.0
C924 C 0.70211 0.77316 0.1384 0.0
C925 C 0.65704 0.7453 0.10462 0.0
C926 C 0.67232 0.73691 0.11344 0.0
C927 C 0.6868 0.74626 0.12319 0.0
C928 C 0.67366 0.71845 0.11102 0.0
C929 C 0.64126 0.73598 0.09138 0.0
C930 C 0.66436 0.70822 0.14397 0.0
C931 C 0.66505 0.69081 0.13933 0.0
C932 C 0.67522 0.68337 0.10203 0.0
C933 C 0.68489 0.69369 0.07022 0.0
C934 C 0.68418 0.71103 0.07482 0.0
H935 H 0.63186 0.74427 0.07324 0.0
H936 H 0.64391 0.72542 0.06517 0.0
H937 H 0.63568 0.73083 0.12677 0.0
H938 H 0.65634 0.7137 0.17272 0.0
H939 H 0.6571 0.68332 0.16355 0.0
H940 H 0.81942 0.35912 0.81143 0.0
H941 H 0.78927 0.35728 0.82327 0.0
H942 H 0.79647 0.32183 0.94511 0.0
H943 H 0.82679 0.32371 0.93357 0.0
H944 H 0.77083 0.32872 0.81069 0.0
H945 H 0.76238 0.35411 0.00615 0.0
H946 H 0.78135 0.35709 0.97009 0.0
H947 H 0.77736 0.3375 0.00121 0.0
C948 C 0.8146 0.35114 0.84137 0.0
C949 C 0.82548 0.3417 0.87198 0.0
C950 C 0.79737 0.35009 0.84802 0.0
C951 C 0.79061 0.33953 0.8853 0.0
C952 C 0.80143 0.33034 0.91682 0.0
H953 H 0.68862 0.31205 0.95867 0.0
H954 H 0.71899 0.31352 0.95098 0.0
C955 C 0.81876 0.33147 0.91035 0.0
C956 C 0.77225 0.33738 0.88836 0.0
H957 H 0.73858 0.34215 0.96682 0.0
C958 C 0.76376 0.3317 0.8448 0.0
C959 C 0.76308 0.34123 0.93291 0.0
C960 C 0.77145 0.34796 0.98016 0.0
C961 C 0.74637 0.32966 0.84466 0.0
C962 C 0.73719 0.3336 0.88908 0.0
C963 C 0.74567 0.33914 0.9328 0.0
C964 C 0.71877 0.33208 0.8911 0.0
C965 C 0.73798 0.32304 0.79728 0.0
C966 C 0.70857 0.34199 0.85979 0.0
C967 C 0.69117 0.34116 0.86404 0.0
C968 C 0.6837 0.33039 0.8997 0.0
C969 C 0.69399 0.32039 0.93059 0.0
C970 C 0.71134 0.32122 0.92634 0.0
H971 H 0.74701 0.31681 0.77135 0.0
H972 H 0.72796 0.31402 0.80722 0.0
H973 H 0.73219 0.33358 0.77624 0.0
H974 H 0.71407 0.35074 0.83316 0.0
H975 H 0.68369 0.34949 0.84103 0.0
H976 H 0.81621 0.81851 0.54645 0.0
H977 H 0.81668 0.78831 0.5586 0.0
H978 H 0.85192 0.79404 0.68156 0.0
H979 H 0.85176 0.82434 0.66909 0.0
H980 H 0.84603 0.76785 0.55162 0.0
H981 H 0.81464 0.76317 0.74037 0.0
H982 H 0.81296 0.78147 0.70042 0.0
H983 H 0.8317 0.7777 0.73608 0.0
C984 C 0.82395 0.81339 0.57648 0.0
C985 C 0.83373 0.82389 0.60739 0.0
C986 C 0.82419 0.79613 0.58331 0.0
C987 C 0.8342 0.78898 0.62124 0.0
C988 C 0.84386 0.79937 0.65269 0.0
H989 H 0.85046 0.68686 0.71588 0.0
H990 H 0.85143 0.71706 0.70386 0.0
C991 C 0.84365 0.81672 0.64579 0.0
C992 C 0.835 0.77059 0.62603 0.0
H993 H 0.82517 0.73822 0.70495 0.0
C994 C 0.84148 0.76133 0.58511 0.0
C995 C 0.82906 0.7622 0.66977 0.0
C996 C 0.82157 0.77157 0.71413 0.0
C997 C 0.84236 0.74383 0.587 0.0
C998 C 0.83625 0.7354 0.63056 0.0
C999 C 0.82983 0.7447 0.67155 0.0
C1000 C 0.83657 0.71694 0.63499 0.0
C1001 C 0.85015 0.73459 0.54286 0.0
C1002 C 0.82799 0.70678 0.59999 0.0
C1003 C 0.82754 0.68943 0.60656 0.0
C1004 C 0.83552 0.68203 0.64853 0.0
C1005 C 0.8442 0.69223 0.68314 0.0
C1006 C 0.84476 0.70948 0.67636 0.0
H1007 H 0.85824 0.74289 0.51957 0.0
H1008 H 0.85772 0.72386 0.55639 0.0
H1009 H 0.84013 0.72971 0.51776 0.0
H1010 H 0.82122 0.7123 0.5685 0.0
H1011 H 0.82038 0.68195 0.58007 0.0
H1012 H 0.82351 0.14375 0.36155 0.0
H1013 H 0.79325 0.13916 0.35281 0.0
H1014 H 0.78578 0.1922 0.33625 0.0
H1015 H 0.81583 0.19681 0.34546 0.0
H1016 H 0.76884 0.15694 0.4241 0.0
H1017 H 0.75799 0.16865 0.2181 0.0
H1018 H 0.77785 0.16166 0.24292 0.0
H1019 H 0.77178 0.18315 0.24922 0.0
C1020 C 0.81543 0.15432 0.35427 0.0
C1021 C 0.82194 0.17061 0.3532 0.0
C1022 C 0.79818 0.15172 0.34987 0.0
C1023 C 0.78736 0.16534 0.34355 0.0
C1024 C 0.79397 0.18152 0.3405 0.0
H1025 H 0.68762 0.19794 0.32858 0.0
H1026 H 0.71768 0.19321 0.33223 0.0
C1027 C 0.81109 0.18414 0.34566 0.0
C1028 C 0.76903 0.16313 0.34428 0.0
H1029 H 0.73427 0.17035 0.27272 0.0
C1030 C 0.7612 0.15952 0.39089 0.0
C1031 C 0.75922 0.1666 0.30089 0.0
C1032 C 0.76708 0.17011 0.24975 0.0
C1033 C 0.74374 0.16029 0.39593 0.0
C1034 C 0.73394 0.16449 0.35294 0.0
C1035 C 0.7418 0.16725 0.30576 0.0
C1036 C 0.71569 0.16745 0.35642 0.0
C1037 C 0.73601 0.15756 0.44773 0.0
C1038 C 0.70454 0.15465 0.37002 0.0
C1039 C 0.68726 0.15741 0.36855 0.0
C1040 C 0.68094 0.17298 0.35302 0.0
C1041 C 0.69215 0.18585 0.34087 0.0
C1042 C 0.70932 0.18314 0.34275 0.0
H1043 H 0.74548 0.15775 0.47866 0.0
H1044 H 0.72647 0.16726 0.45585 0.0
H1045 H 0.72973 0.14522 0.44839 0.0
H1046 H 0.70916 0.14235 0.37972 0.0
H1047 H 0.67892 0.14712 0.37666 0.0
H1048 H 0.19631 0.31905 0.70284 0.0
H1049 H 0.19411 0.28887 0.69159 0.0
H1050 H 0.1554 0.29602 0.57962 0.0
H1051 H 0.15722 0.32627 0.59144 0.0
H1052 H 0.16369 0.26966 0.7069 0.0
H1053 H 0.18983 0.26353 0.51118 0.0
H1054 H 0.19367 0.28159 0.55074 0.0
H1055 H 0.17383 0.27903 0.52 0.0
C1056 C 0.18743 0.31424 0.67538 0.0
C1057 C 0.17717 0.32515 0.64732 0.0
C1058 C 0.1862 0.29699 0.66908 0.0
C1059 C 0.17473 0.29024 0.63447 0.0
C1060 C 0.16457 0.30103 0.60586 0.0
H1061 H 0.15198 0.1889 0.54345 0.0
H1062 H 0.15252 0.21911 0.55566 0.0
C1063 C 0.16574 0.31835 0.6123 0.0
C1064 C 0.17297 0.27189 0.63016 0.0
H1065 H 0.17923 0.23909 0.54945 0.0
C1066 C 0.16708 0.26293 0.67252 0.0
C1067 C 0.17737 0.26322 0.58524 0.0
C1068 C 0.18415 0.27225 0.53918 0.0
C1069 C 0.16526 0.24549 0.67094 0.0
C1070 C 0.16986 0.23677 0.62617 0.0
C1071 C 0.17572 0.24578 0.58378 0.0
C1072 C 0.16857 0.21831 0.62196 0.0
C1073 C 0.15807 0.23666 0.71678 0.0
C1074 C 0.17729 0.20775 0.65549 0.0
C1075 C 0.17684 0.19039 0.64889 0.0
C1076 C 0.16784 0.18336 0.60826 0.0
C1077 C 0.15901 0.19397 0.57517 0.0
C1078 C 0.15932 0.21123 0.58205 0.0
H1079 H 0.15084 0.24533 0.7414 0.0
H1080 H 0.1498 0.22622 0.70511 0.0
H1081 H 0.16841 0.23145 0.73998 0.0
H1082 H 0.18488 0.21293 0.68575 0.0
H1083 H 0.18414 0.18258 0.67412 0.0
H1084 H 0.31952 0.80772 0.3137 0.0
H1085 H 0.28932 0.80998 0.32397 0.0
H1086 H 0.29555 0.85704 0.40169 0.0
H1087 H 0.32592 0.85472 0.39201 0.0
H1088 H 0.27222 0.83755 0.44767 0.0
H1089 H 0.25964 0.84023 0.24056 0.0
H1090 H 0.27136 0.82198 0.25744 0.0
H1091 H 0.28038 0.84236 0.26663 0.0
C1092 C 0.31447 0.8185 0.33334 0.0
C1093 C 0.32509 0.83098 0.3524 0.0
C1094 C 0.2972 0.81984 0.33878 0.0
C1095 C 0.29015 0.83388 0.36242 0.0
C1096 C 0.30074 0.84614 0.383 0.0
H1097 H 0.18227 0.85303 0.34291 0.0
H1098 H 0.21261 0.85508 0.3319 0.0
C1099 C 0.3181 0.84473 0.37794 0.0
C1100 C 0.27173 0.83556 0.36582 0.0
H1101 H 0.23614 0.83406 0.29424 0.0
C1102 C 0.26433 0.83697 0.4141 0.0
C1103 C 0.26144 0.8352 0.32191 0.0
C1104 C 0.26862 0.83505 0.2687 0.0
C1105 C 0.24691 0.83723 0.41984 0.0
C1106 C 0.23662 0.83559 0.37619 0.0
C1107 C 0.24402 0.835 0.32774 0.0
C1108 C 0.21822 0.8339 0.38028 0.0
C1109 C 0.23973 0.83929 0.47267 0.0
C1110 C 0.21129 0.82099 0.40954 0.0
C1111 C 0.19404 0.8198 0.41579 0.0
C1112 C 0.18332 0.83128 0.39199 0.0
C1113 C 0.19018 0.84379 0.36083 0.0
C1114 C 0.20752 0.84508 0.35496 0.0
H1115 H 0.24864 0.84574 0.49846 0.0
H1116 H 0.22789 0.84649 0.47184 0.0
H1117 H 0.23713 0.82679 0.4891 0.0
H1118 H 0.21925 0.81192 0.42816 0.0
H1119 H 0.18907 0.80999 0.43985 0.0
H1120 H 0.30876 0.06654 0.00221 0.0
H1121 H 0.28557 0.06603 0.94142 0.0
H1122 H 0.28472 0.11983 0.93978 0.0
H1123 H 0.30793 0.12051 1e-05 0.0
H1124 H 0.25386 0.0796 0.96003 0.0
H1125 H 0.28216 0.1083 0.78816 0.0
H1126 H 0.29454 0.10008 0.83991 0.0
H1127 H 0.28501 0.12033 0.84526 0.0
C1128 C 0.30394 0.07828 0.98802 0.0
C1129 C 0.3103 0.09357 0.00613 0.0
C1130 C 0.29058 0.07796 0.95347 0.0
C1131 C 0.28343 0.09288 0.93575 0.0
C1132 C 0.29017 0.10814 0.9522 0.0
H1133 H 0.19861 0.12158 0.74994 0.0
H1134 H 0.2224 0.12047 0.80809 0.0
C1135 C 0.30346 0.1085 0.98685 0.0
C1136 C 0.26822 0.09256 0.90304 0.0
H1137 H 0.25255 0.10586 0.78885 0.0
C1138 C 0.2536 0.08521 0.9224 0.0
C1139 C 0.26784 0.09997 0.85408 0.0
C1140 C 0.28326 0.10749 0.83033 0.0
C1141 C 0.23854 0.08545 0.89476 0.0
C1142 C 0.23812 0.09297 0.84591 0.0
C1143 C 0.2528 0.10017 0.82638 0.0
C1144 C 0.22266 0.09354 0.81422 0.0
C1145 C 0.22309 0.0781 0.91888 0.0
C1146 C 0.21464 0.07878 0.79876 0.0
C1147 C 0.20089 0.07936 0.76573 0.0
C1148 C 0.19497 0.09473 0.74689 0.0
C1149 C 0.20276 0.10951 0.76363 0.0
C1150 C 0.21645 0.10891 0.79677 0.0
H1151 H 0.22432 0.07719 0.96099 0.0
H1152 H 0.21188 0.08569 0.90984 0.0
H1153 H 0.22111 0.06531 0.90379 0.0
H1154 H 0.21936 0.06674 0.81079 0.0
H1155 H 0.19536 0.06771 0.75334 0.0
H1156 H 0.1197 0.80769 0.25013 0.0
H1157 H 0.11831 0.78428 0.19081 0.0
H1158 H 0.06455 0.78589 0.19575 0.0
H1159 H 0.0658 0.8093 0.25585 0.0
H1160 H 0.07749 0.75405 0.21337 0.0
H1161 H 0.10615 0.7815 0.04038 0.0
H1162 H 0.11863 0.78424 0.09657 0.0
H1163 H 0.09851 0.79413 0.09241 0.0
C1164 C 0.10754 0.80334 0.23792 0.0
C1165 C 0.09286 0.81047 0.2579 0.0
C1166 C 0.10678 0.78993 0.20375 0.0
C1167 C 0.09133 0.78336 0.18841 0.0
C1168 C 0.07662 0.79077 0.2069 0.0
H1169 H 0.06614 0.69486 0.00647 0.0
H1170 H 0.06483 0.71891 0.0638 0.0
C1171 C 0.07737 0.80426 0.24103 0.0
C1172 C 0.09064 0.76807 0.15598 0.0
H1173 H 0.10393 0.7518 0.04252 0.0
C1174 C 0.08312 0.7536 0.17577 0.0
C1175 C 0.09804 0.76743 0.107 0.0
C1176 C 0.10565 0.78269 0.08256 0.0
C1177 C 0.08326 0.73841 0.14868 0.0
C1178 C 0.0909 0.73771 0.10003 0.0
C1179 C 0.09818 0.75226 0.07994 0.0
C1180 C 0.0916 0.72206 0.06921 0.0
C1181 C 0.07571 0.72312 0.17314 0.0
C1182 C 0.10707 0.71568 0.05323 0.0
C1183 C 0.10787 0.70194 0.0203 0.0
C1184 C 0.09319 0.69427 0.00223 0.0
C1185 C 0.07771 0.70029 0.01989 0.0
C1186 C 0.07693 0.71408 0.05281 0.0
H1187 H 0.07441 0.72462 0.21507 0.0
H1188 H 0.06308 0.721 0.15705 0.0
H1189 H 0.0834 0.71187 0.16539 0.0
H1190 H 0.11857 0.72159 0.06534 0.0
H1191 H 0.12002 0.69772 0.00757 0.0
H1192 H 0.69711 0.8879 0.99029 0.0
H1193 H 0.72099 0.8891 0.93248 0.0
H1194 H 0.71945 0.94288 0.93611 0.0
H1195 H 0.69563 0.94185 0.99456 0.0
H1196 H 0.72611 0.90373 0.83683 0.0
H1197 H 0.76718 0.93252 0.98315 0.0
H1198 H 0.74719 0.92344 0.99868 0.0
H1199 H 0.74827 0.94378 0.96998 0.0
C1200 C 0.70166 0.90002 0.97834 0.0
C1201 C 0.69446 0.91479 0.9976 0.0
C1202 C 0.71538 0.90067 0.9453 0.0
C1203 C 0.72229 0.91607 0.9309 0.0
C1204 C 0.71459 0.93084 0.94767 0.0
H1205 H 0.81027 0.94076 0.74788 0.0
H1206 H 0.78598 0.94177 0.80454 0.0
C1207 C 0.70083 0.93022 0.9807 0.0
C1208 C 0.7378 0.91655 0.89944 0.0
H1209 H 0.7788 0.92854 0.90121 0.0
C1210 C 0.73762 0.90915 0.85091 0.0
C1211 C 0.75285 0.92364 0.9178 0.0
C1212 C 0.75402 0.93118 0.9704 0.0
C1213 C 0.752 0.90877 0.82013 0.0
C1214 C 0.76712 0.91564 0.83875 0.0
C1215 C 0.76725 0.92322 0.88701 0.0
C1216 C 0.78289 0.91497 0.80859 0.0
C1217 C 0.75079 0.90124 0.76751 0.0
C1218 C 0.78973 0.89957 0.79386 0.0
C1219 C 0.80364 0.89893 0.76157 0.0
C1220 C 0.81113 0.9137 0.74347 0.0
C1221 C 0.80487 0.92912 0.76095 0.0
C1222 C 0.79092 0.92973 0.79322 0.0
H1223 H 0.73767 0.90072 0.75389 0.0
H1224 H 0.7583 0.90846 0.73958 0.0
H1225 H 0.75567 0.88828 0.76854 0.0
H1226 H 0.78405 0.888 0.80632 0.0
H1227 H 0.80813 0.88682 0.74934 0.0
H1228 H 0.89701 0.18652 0.20186 0.0
H1229 H 0.89916 0.20977 0.14126 0.0
H1230 H 0.93706 0.23237 0.23585 0.0
H1231 H 0.93605 0.20844 0.29298 0.0
H1232 H 0.89177 0.2393 0.14716 0.0
H1233 H 0.9592 0.24111 0.10811 0.0
H1234 H 0.94985 0.22404 0.14239 0.0
H1235 H 0.95607 0.24287 0.17538 0.0
C1236 C 0.9062 0.1962 0.20843 0.0
C1237 C 0.91668 0.19548 0.25127 0.0
C1238 C 0.90733 0.20961 0.17413 0.0
C1239 C 0.91856 0.22287 0.18291 0.0
C1240 C 0.92886 0.22211 0.2263 0.0
H1241 H 0.89769 0.32086 0.04337 0.0
H1242 H 0.89894 0.29686 0.10143 0.0
C1243 C 0.92821 0.20841 0.25932 0.0
C1244 C 0.91864 0.23797 0.14905 0.0
H1245 H 0.94425 0.26665 0.09253 0.0
C1246 C 0.90329 0.24507 0.13455 0.0
C1247 C 0.93357 0.24559 0.13153 0.0
C1248 C 0.95055 0.23786 0.13972 0.0
C1249 C 0.90244 0.25943 0.10371 0.0
C1250 C 0.91737 0.26777 0.08953 0.0
C1251 C 0.93272 0.2606 0.10382 0.0
C1252 C 0.91753 0.28333 0.05761 0.0
C1253 C 0.88547 0.26499 0.08527 0.0
C1254 C 0.92845 0.28455 0.01575 0.0
C1255 C 0.92843 0.2987 0.98451 0.0
C1256 C 0.91717 0.31182 0.99335 0.0
C1257 C 0.90647 0.31088 0.03567 0.0
C1258 C 0.90698 0.29699 0.06829 0.0
H1259 H 0.87651 0.2544 0.08431 0.0
H1260 H 0.88037 0.27445 0.11195 0.0
H1261 H 0.88612 0.27047 0.04645 0.0
H1262 H 0.93676 0.27435 0.00621 0.0
H1263 H 0.93666 0.29896 0.95172 0.0
H1264 H 0.20134 0.38765 0.50305 0.0
H1265 H 0.22468 0.38886 0.44317 0.0
H1266 H 0.2213 0.44255 0.44014 0.0
H1267 H 0.19797 0.44152 0.50046 0.0
H1268 H 0.22815 0.40313 0.34421 0.0
H1269 H 0.2699 0.43351 0.48587 0.0
H1270 H 0.25043 0.42377 0.50365 0.0
H1271 H 0.25044 0.44397 0.47393 0.0
C1272 C 0.20537 0.39974 0.48919 0.0
C1273 C 0.1978 0.41451 0.50702 0.0
C1274 C 0.21876 0.4004 0.45497 0.0
C1275 C 0.22499 0.4158 0.43803 0.0
C1276 C 0.21693 0.43053 0.45354 0.0
H1277 H 0.31202 0.44023 0.25027 0.0
H1278 H 0.28797 0.44143 0.30784 0.0
C1279 C 0.20346 0.4299 0.48766 0.0
C1280 C 0.24019 0.41636 0.40537 0.0
H1281 H 0.28106 0.42873 0.40387 0.0
C1282 C 0.23971 0.40874 0.35721 0.0
C1283 C 0.25527 0.42372 0.42234 0.0
C1284 C 0.25669 0.4316 0.47441 0.0
C1285 C 0.25386 0.40836 0.32544 0.0
C1286 C 0.26906 0.41542 0.34279 0.0
C1287 C 0.26946 0.42326 0.39067 0.0
C1288 C 0.28464 0.41465 0.3118 0.0
C1289 C 0.25228 0.40063 0.27318 0.0
C1290 C 0.29128 0.3992 0.29668 0.0
C1291 C 0.30502 0.39846 0.26379 0.0
C1292 C 0.31258 0.41318 0.24563 0.0
C1293 C 0.30656 0.42864 0.26346 0.0
C1294 C 0.29274 0.42935 0.29623 0.0
H1295 H 0.23908 0.40022 0.26027 0.0
H1296 H 0.25971 0.40765 0.24456 0.0
H1297 H 0.257 0.38761 0.27448 0.0
H1298 H 0.28557 0.38766 0.30936 0.0
H1299 H 0.30936 0.38632 0.25131 0.0
H1300 H 0.4415 0.8118 0.49801 0.0
H1301 H 0.4426 0.78867 0.55903 0.0
H1302 H 0.38887 0.78612 0.55973 0.0
H1303 H 0.3876 0.80926 0.49918 0.0
H1304 H 0.4037 0.78242 0.65765 0.0
H1305 H 0.43258 0.74019 0.51433 0.0
H1306 H 0.44341 0.75949 0.52561 0.0
H1307 H 0.42303 0.75981 0.4971 0.0
C1308 C 0.42989 0.80656 0.51185 0.0
C1309 C 0.41446 0.81238 0.49325 0.0
C1310 C 0.43056 0.7932 0.54636 0.0
C1311 C 0.41583 0.78539 0.56304 0.0
C1312 C 0.40041 0.79183 0.54702 0.0
H1313 H 0.38624 0.70129 0.75098 0.0
H1314 H 0.38761 0.72528 0.6937 0.0
C1315 C 0.39971 0.80512 0.51241 0.0
C1316 C 0.41639 0.7702 0.59576 0.0
H1317 H 0.42817 0.72912 0.59662 0.0
C1318 C 0.40907 0.77078 0.64436 0.0
C1319 C 0.42342 0.75499 0.57842 0.0
C1320 C 0.43095 0.75344 0.52588 0.0
C1321 C 0.40867 0.75664 0.67617 0.0
C1322 C 0.41541 0.74133 0.65846 0.0
C1323 C 0.42295 0.74081 0.61013 0.0
C1324 C 0.41458 0.72573 0.68945 0.0
C1325 C 0.40127 0.75834 0.72885 0.0
C1326 C 0.42923 0.71733 0.70386 0.0
C1327 C 0.42849 0.70339 0.7362 0.0
C1328 C 0.41306 0.69756 0.75476 0.0
C1329 C 0.39836 0.70548 0.73793 0.0
C1330 C 0.39912 0.71934 0.70547 0.0
H1331 H 0.40117 0.77154 0.74181 0.0
H1332 H 0.38817 0.75386 0.72822 0.0
H1333 H 0.40831 0.75077 0.75706 0.0
H1334 H 0.4413 0.72191 0.69155 0.0
H1335 H 0.44007 0.69765 0.74833 0.0
H1336 H 0.69971 0.62068 0.25012 0.0
H1337 H 0.72345 0.61898 0.30829 0.0
H1338 H 0.71905 0.56536 0.31126 0.0
H1339 H 0.69533 0.56688 0.25253 0.0
H1340 H 0.72715 0.60507 0.40636 0.0
H1341 H 0.76759 0.57294 0.26475 0.0
H1342 H 0.74822 0.58294 0.24729 0.0
H1343 H 0.748 0.56289 0.27796 0.0
C1344 C 0.70362 0.6085 0.26352 0.0
C1345 C 0.69561 0.59391 0.2462 0.0
C1346 C 0.71725 0.60756 0.29678 0.0
C1347 C 0.72329 0.59203 0.31328 0.0
C1348 C 0.71485 0.57747 0.29815 0.0
H1349 H 0.80946 0.56591 0.50242 0.0
H1350 H 0.78555 0.56514 0.44426 0.0
C1351 C 0.70115 0.57839 0.26496 0.0
C1352 C 0.73859 0.59118 0.34545 0.0
H1353 H 0.77908 0.57756 0.34647 0.0
C1354 C 0.7385 0.59904 0.39327 0.0
C1355 C 0.75341 0.58329 0.32841 0.0
C1356 C 0.75446 0.57514 0.27665 0.0
C1357 C 0.75274 0.59916 0.42461 0.0
C1358 C 0.76766 0.59155 0.40721 0.0
C1359 C 0.76769 0.58346 0.3597 0.0
C1360 C 0.78332 0.59197 0.43787 0.0
C1361 C 0.75157 0.60723 0.47651 0.0
C1362 C 0.79056 0.60728 0.45169 0.0
C1363 C 0.80424 0.60778 0.48485 0.0
C1364 C 0.8111 0.59295 0.5047 0.0
C1365 C 0.80454 0.57758 0.48796 0.0
C1366 C 0.79079 0.57711 0.45486 0.0
H1367 H 0.73842 0.60826 0.48962 0.0
H1368 H 0.75875 0.60005 0.50533 0.0
H1369 H 0.75684 0.62002 0.4745 0.0
H1370 H 0.78532 0.61891 0.43796 0.0
H1371 H 0.80901 0.61985 0.49646 0.0
H1372 H 0.56778 0.31082 0.74575 0.0
H1373 H 0.56623 0.2867 0.68853 0.0
H1374 H 0.6199 0.28288 0.68951 0.0
H1375 H 0.62158 0.30674 0.74729 0.0
H1376 H 0.57904 0.27936 0.59336 0.0
H1377 H 0.60603 0.23674 0.73798 0.0
H1378 H 0.59912 0.25759 0.75335 0.0
H1379 H 0.61915 0.25431 0.72395 0.0
C1380 C 0.57929 0.30503 0.73323 0.0
C1381 C 0.5948 0.31068 0.75167 0.0
C1382 C 0.57837 0.29117 0.70063 0.0
C1383 C 0.59292 0.28266 0.68582 0.0
C1384 C 0.60846 0.28891 0.70159 0.0
H1385 H 0.61834 0.19857 0.49564 0.0
H1386 H 0.61752 0.22193 0.55551 0.0
C1387 C 0.6094 0.30269 0.73432 0.0
C1388 C 0.59187 0.26706 0.65487 0.0
H1389 H 0.60308 0.22583 0.65405 0.0
C1390 C 0.58417 0.26762 0.60679 0.0
C1391 C 0.59847 0.25169 0.6725 0.0
C1392 C 0.60601 0.24995 0.72496 0.0
C1393 C 0.58342 0.25342 0.57523 0.0
C1394 C 0.59032 0.23815 0.59248 0.0
C1395 C 0.5978 0.23752 0.64083 0.0
C1396 C 0.59059 0.22291 0.5599 0.0
C1397 C 0.57571 0.255 0.52297 0.0
C1398 C 0.57572 0.21521 0.54396 0.0
C1399 C 0.57613 0.20172 0.50984 0.0
C1400 C 0.59143 0.19568 0.49088 0.0
C1401 C 0.60632 0.20289 0.50916 0.0
C1402 C 0.60589 0.2163 0.54339 0.0
H1403 H 0.57416 0.26825 0.51138 0.0
H1404 H 0.58346 0.24853 0.49395 0.0
H1405 H 0.5632 0.24905 0.5232 0.0
H1406 H 0.56377 0.21988 0.557 0.0
H1407 H 0.56442 0.19652 0.49666 0.0
H1408 H 0.37581 0.01784 0.0558 0.0
H1409 H 0.38439 0.99044 0.08876 0.0
H1410 H 0.35544 0.99887 0.22492 0.0
H1411 H 0.34677 0.02602 0.19252 0.0
H1412 H 0.4016 0.98381 0.18294 0.0
H1413 H 0.33988 0.95251 0.17624 0.0
H1414 H 0.34436 0.97136 0.141 0.0
H1415 H 0.33968 0.97237 0.20799 0.0
C1416 C 0.37115 0.01378 0.09251 0.0
C1417 C 0.36054 0.02412 0.12136 0.0
C1418 C 0.3761 0.99815 0.11134 0.0
C1419 C 0.37038 0.99254 0.15899 0.0
C1420 C 0.35977 1.00281 0.18768 0.0
H1421 H 0.38265 0.90804 0.36003 0.0
H1422 H 0.37546 0.93456 0.31848 0.0
C1423 C 0.35488 0.01839 0.16909 0.0
C1424 C 0.37585 0.97622 0.17998 0.0
H1425 H 0.3611 0.93895 0.2244 0.0
C1426 C 0.3928 0.9739 0.19152 0.0
C1427 C 0.36432 0.96337 0.19136 0.0
C1428 C 0.34606 0.96491 0.17813 0.0
C1429 C 0.39845 0.95929 0.21577 0.0
C1430 C 0.38687 0.94653 0.22784 0.0
C1431 C 0.36997 0.94876 0.2154 0.0
C1432 C 0.39191 0.93085 0.25394 0.0
C1433 C 0.41666 0.95792 0.22989 0.0
C1434 C 0.40351 0.91993 0.23148 0.0
C1435 C 0.40766 0.90486 0.25535 0.0
C1436 C 0.40021 0.90042 0.30187 0.0
C1437 C 0.38863 0.91131 0.32434 0.0
C1438 C 0.38451 0.92639 0.30058 0.0
H1439 H 0.42288 0.97032 0.23035 0.0
H1440 H 0.4182 0.95203 0.26793 0.0
H1441 H 0.42315 0.95001 0.20134 0.0
H1442 H 0.40907 0.92288 0.19494 0.0
H1443 H 0.41638 0.89648 0.23686 0.0
H1444 H 0.89011 0.61971 0.75344 0.0
H1445 H 0.91708 0.62728 0.79056 0.0
H1446 H 0.94234 0.59984 0.67186 0.0
H1447 H 0.91521 0.59258 0.63377 0.0
H1448 H 0.94341 0.608 0.8271 0.0
H1449 H 0.96276 0.64669 0.66125 0.0
H1450 H 0.94162 0.63943 0.66962 0.0
H1451 H 0.95745 0.62542 0.64665 0.0
C1452 C 0.90143 0.61534 0.73521 0.0
C1453 C 0.90065 0.60579 0.69036 0.0
C1454 C 0.91682 0.61958 0.75661 0.0
C1455 C 0.93173 0.61435 0.73357 0.0
C1456 C 0.93098 0.60426 0.68975 0.0
H1457 H 0.03068 0.62812 0.871 0.0
H1458 H 0.00471 0.61584 0.83925 0.0
C1459 C 0.91553 0.60002 0.66825 0.0
C1460 C 0.94795 0.61999 0.75495 0.0
H1461 H 0.98197 0.64424 0.72888 0.0
C1462 C 0.95191 0.61584 0.80558 0.0
C1463 C 0.9589 0.63041 0.727 0.0
C1464 C 0.95497 0.6359 0.67327 0.0
C1465 C 0.96646 0.62192 0.82912 0.0
C1466 C 0.97745 0.63225 0.80103 0.0
C1467 C 0.97355 0.63627 0.75029 0.0
C1468 C 0.99278 0.63955 0.82384 0.0
C1469 C 0.96968 0.61768 0.88429 0.0
C1470 C 0.99472 0.65695 0.82576 0.0
C1471 C 0.00956 0.66401 0.84366 0.0
C1472 C 0.02283 0.6538 0.85984 0.0
C1473 C 0.02068 0.63635 0.85919 0.0
C1474 C 0.00582 0.6293 0.84115 0.0
H1475 H 0.95825 0.61303 0.90364 0.0
H1476 H 0.9793 0.60774 0.8864 0.0
H1477 H 0.97441 0.62873 0.90538 0.0
H1478 H 0.98482 0.6651 0.8126 0.0
H1479 H 0.01077 0.67748 0.84353 0.0
H1480 H 0.62076 0.98658 0.06199 0.0
H1481 H 0.61271 0.01397 0.09606 0.0
H1482 H 0.65238 0.01094 0.2067 0.0
H1483 H 0.66064 0.98388 0.17274 0.0
H1484 H 0.60245 0.02122 0.19574 0.0
H1485 H 0.65922 0.05731 0.14682 0.0
H1486 H 0.65456 0.03733 0.11834 0.0
H1487 H 0.6637 0.03842 0.18092 0.0
C1488 C 0.62793 0.99187 0.09305 0.0
C1489 C 0.6414 0.98304 0.11441 0.0
C1490 C 0.62327 0.00749 0.1126 0.0
C1491 C 0.63208 0.01461 0.15348 0.0
C1492 C 0.64561 0.00589 0.17445 0.0
H1493 H 0.62606 0.10006 0.35314 0.0
H1494 H 0.6324 0.07363 0.3099 0.0
C1495 C 0.65026 0.99033 0.15506 0.0
C1496 C 0.62675 0.03075 0.17622 0.0
H1497 H 0.64089 0.0696 0.20808 0.0
C1498 C 0.61076 0.03188 0.19794 0.0
C1499 C 0.63764 0.04462 0.17921 0.0
C1500 C 0.65468 0.04446 0.15466 0.0
C1501 C 0.6056 0.0463 0.22415 0.0
C1502 C 0.61663 0.06005 0.22801 0.0
C1503 C 0.63248 0.05902 0.20541 0.0
C1504 C 0.61211 0.07558 0.25577 0.0
C1505 C 0.58861 0.04648 0.24901 0.0
C1506 C 0.59859 0.08545 0.23977 0.0
C1507 C 0.59495 0.10049 0.26455 0.0
C1508 C 0.60482 0.10597 0.30554 0.0
C1509 C 0.61825 0.09605 0.32176 0.0
C1510 C 0.62187 0.081 0.29705 0.0
H1511 H 0.58348 0.03367 0.25358 0.0
H1512 H 0.58913 0.05254 0.28705 0.0
H1513 H 0.57984 0.05369 0.22479 0.0
H1514 H 0.59112 0.08173 0.20729 0.0
H1515 H 0.58474 0.1081 0.25064 0.0
H1516 H 0.09959 0.38358 0.63223 0.0
H1517 H 0.07321 0.37658 0.675 0.0
H1518 H 0.08598 0.40966 0.79883 0.0
H1519 H 0.11228 0.41669 0.75594 0.0
H1520 H 0.06952 0.36214 0.77115 0.0
H1521 H 0.03833 0.42404 0.76374 0.0
H1522 H 0.05621 0.41898 0.7248 0.0
H1523 H 0.05891 0.42425 0.7909 0.0
C1524 C 0.0966 0.38947 0.66827 0.0
C1525 C 0.10777 0.40081 0.6906 0.0
C1526 C 0.0816 0.38547 0.69269 0.0
C1527 C 0.07751 0.39278 0.73977 0.0
C1528 C 0.08868 0.40416 0.76202 0.0
H1529 H 0.99114 0.37871 0.94121 0.0
H1530 H 0.01852 0.38676 0.90695 0.0
C1531 C 0.10368 0.40816 0.73757 0.0
C1532 C 0.06193 0.38789 0.76657 0.0
H1533 H 0.02491 0.40297 0.81211 0.0
C1534 C 0.05976 0.37107 0.78005 0.0
C1535 C 0.04927 0.39958 0.77851 0.0
C1536 C 0.05066 0.4177 0.76341 0.0
C1537 C 0.04526 0.3656 0.80512 0.0
C1538 C 0.03248 0.37723 0.81632 0.0
C1539 C 0.03476 0.3941 0.80365 0.0
C1540 C 0.01626 0.37193 0.83835 0.0
C1541 C 0.0438 0.34744 0.8197 0.0
C1542 C 0.00592 0.36101 0.81104 0.0
C1543 C 0.99035 0.35641 0.83039 0.0
C1544 C 0.98471 0.36268 0.87748 0.0
C1545 C 0.99514 0.37356 0.90503 0.0
C1546 C 0.01075 0.37822 0.88545 0.0
H1547 H 0.05623 0.34132 0.82184 0.0
H1548 H 0.03741 0.34598 0.85703 0.0
H1549 H 0.03633 0.3408 0.79039 0.0
H1550 H 0.00977 0.35625 0.7742 0.0
H1551 H 0.98264 0.34807 0.80797 0.0
H1552 H 0.38798 0.61555 0.99512 0.0
H1553 H 0.38122 0.58868 0.03444 0.0
H1554 H 0.40151 0.56303 0.9037 0.0
H1555 H 0.40795 0.59007 0.86367 0.0
H1556 H 0.37052 0.55123 0.9319 0.0
H1557 H 0.41191 0.55447 0.10068 0.0
H1558 H 0.39874 0.57248 0.09434 0.0
H1559 H 0.41426 0.56818 0.0465 0.0
C1560 C 0.39101 0.60416 0.97487 0.0
C1561 C 0.3984 0.60482 0.92633 0.0
C1562 C 0.38732 0.58882 0.99758 0.0
C1563 C 0.39109 0.57382 0.97242 0.0
C1564 C 0.3986 0.57445 0.92398 0.0
H1565 H 0.38021 0.47447 0.10834 0.0
H1566 H 0.39155 0.50034 0.07244 0.0
C1567 C 0.40231 0.58984 0.90121 0.0
C1568 C 0.38627 0.55758 0.99552 0.0
H1569 H 0.39025 0.53385 0.1032 0.0
C1570 C 0.37496 0.54736 0.96915 0.0
C1571 C 0.3922 0.55242 0.04388 0.0
C1572 C 0.40508 0.56237 0.07281 0.0
C1573 C 0.369 0.53242 0.99049 0.0
C1574 C 0.37426 0.52771 0.03998 0.0
C1575 C 0.38603 0.5376 0.06563 0.0
C1576 C 0.36758 0.51257 0.06561 0.0
C1577 C 0.35716 0.52179 0.95969 0.0
C1578 C 0.35042 0.5111 0.07547 0.0
C1579 C 0.3439 0.49636 0.09594 0.0
C1580 C 0.35443 0.48281 0.10737 0.0
C1581 C 0.37173 0.48464 0.09993 0.0
C1582 C 0.37824 0.49941 0.0793 0.0
H1583 H 0.35801 0.52463 0.9183 0.0
H1584 H 0.35974 0.50829 0.96541 0.0
H1585 H 0.34417 0.52432 0.97215 0.0
H1586 H 0.34201 0.52126 0.06636 0.0
H1587 H 0.33054 0.49545 0.1015 0.0
H1588 H 0.61483 0.62036 0.00369 0.0
H1589 H 0.58809 0.62767 0.96454 0.0
H1590 H 0.56204 0.60467 0.09024 0.0
H1591 H 0.58894 0.59771 0.13027 0.0
H1592 H 0.5613 0.60811 0.93322 0.0
H1593 H 0.54273 0.65203 0.08729 0.0
H1594 H 0.56369 0.64401 0.08138 0.0
H1595 H 0.54748 0.63118 0.10802 0.0
C1596 C 0.60338 0.61694 0.02304 0.0
C1597 C 0.60388 0.6087 0.07029 0.0
C1598 C 0.58813 0.62101 0.00051 0.0
C1599 C 0.57306 0.61695 0.02479 0.0
C1600 C 0.57352 0.6082 0.07128 0.0
H1601 H 0.47423 0.62823 0.8845 0.0
H1602 H 0.50012 0.61652 0.91888 0.0
C1603 C 0.58883 0.60414 0.09392 0.0
C1604 C 0.55699 0.6223 0.00171 0.0
H1605 H 0.52339 0.64779 0.02081 0.0
C1606 C 0.55295 0.61672 0.95242 0.0
C1607 C 0.54623 0.6337 0.02657 0.0
C1608 C 0.55026 0.64073 0.07855 0.0
C1609 C 0.53849 0.6223 0.92726 0.0
C1610 C 0.52767 0.6336 0.95233 0.0
C1611 C 0.53166 0.63908 0.00172 0.0
C1612 C 0.51243 0.64041 0.92761 0.0
C1613 C 0.53517 0.61646 0.87352 0.0
C1614 C 0.51073 0.65771 0.92097 0.0
C1615 C 0.49595 0.66444 0.90155 0.0
C1616 C 0.48248 0.65401 0.88854 0.0
C1617 C 0.48439 0.63662 0.89376 0.0
C1618 C 0.49921 0.62989 0.91333 0.0
H1619 H 0.54652 0.61108 0.85555 0.0
H1620 H 0.5254 0.60664 0.87423 0.0
H1621 H 0.53059 0.6269 0.84943 0.0
H1622 H 0.52077 0.66606 0.93171 0.0
H1623 H 0.49493 0.67788 0.89811 0.0
H1624 H 0.62773 0.53247 0.11154 0.0
H1625 H 0.61643 0.50632 0.07762 0.0
H1626 H 0.66621 0.48611 0.06745 0.0
H1627 H 0.67762 0.51221 0.10059 0.0
H1628 H 0.6484 0.48283 0.97793 0.0
H1629 H 0.61112 0.46019 0.14259 0.0
H1630 H 0.60653 0.48116 0.12278 0.0
H1631 H 0.62673 0.47632 0.14864 0.0
C1632 C 0.63626 0.52236 0.10294 0.0
C1633 C 0.6536 0.52446 0.10881 0.0
C1634 C 0.62976 0.50739 0.08364 0.0
C1635 C 0.64046 0.4942 0.07027 0.0
C1636 C 0.65771 0.49611 0.07749 0.0
H1637 H 0.62086 0.39127 0.99721 0.0
H1638 H 0.6281 0.41815 0.03575 0.0
C1639 C 0.66421 0.51104 0.09664 0.0
C1640 C 0.63391 0.47877 0.04595 0.0
H1641 H 0.60852 0.44507 0.06532 0.0
C1642 C 0.63965 0.47458 0.99699 0.0
C1643 C 0.62257 0.46799 0.07098 0.0
C1644 C 0.61645 0.47151 0.12433 0.0
C1645 C 0.63448 0.45986 0.97251 0.0
C1646 C 0.62301 0.44916 0.99729 0.0
C1647 C 0.61719 0.45338 0.04617 0.0
C1648 C 0.61776 0.433 0.97448 0.0
C1649 C 0.64178 0.45565 0.92103 0.0
C1650 C 0.60927 0.43239 0.9276 0.0
C1651 C 0.60524 0.417 0.90531 0.0
C1652 C 0.60959 0.40201 0.92969 0.0
C1653 C 0.6176 0.40266 0.97729 0.0
C1654 C 0.62164 0.418 0.99947 0.0
H1655 H 0.65314 0.46312 0.91264 0.0
H1656 H 0.64505 0.44219 0.91875 0.0
H1657 H 0.63241 0.45834 0.891 0.0
H1658 H 0.60587 0.44381 0.90807 0.0
H1659 H 0.599 0.41679 0.86868 0.0
H1660 H 0.39261 0.3871 -0.00023 0.0
H1661 H 0.41936 0.37967 0.96073 0.0
H1662 H 0.44539 0.40205 0.08745 0.0
H1663 H 0.4185 0.40914 0.1273 0.0
H1664 H 0.44646 0.39923 0.9306 0.0
H1665 H 0.46412 0.35438 0.0831 0.0
H1666 H 0.44325 0.36261 0.07693 0.0
H1667 H 0.45947 0.37516 0.10465 0.0
C1668 C 0.40405 0.39037 0.01934 0.0
C1669 C 0.40356 0.39848 0.0668 0.0
C1670 C 0.41931 0.38622 0.99688 0.0
C1671 C 0.43437 0.39009 0.02149 0.0
C1672 C 0.43392 0.39869 0.06822 0.0
H1673 H 0.53359 0.37894 0.88445 0.0
H1674 H 0.50757 0.39054 0.91823 0.0
C1675 C 0.4186 0.40283 0.09077 0.0
C1676 C 0.45043 0.38466 0.99852 0.0
H1677 H 0.48374 0.35879 0.0174 0.0
C1678 C 0.45467 0.39045 0.94962 0.0
C1679 C 0.46099 0.37303 0.02314 0.0
C1680 C 0.45672 0.36578 0.07466 0.0
C1681 C 0.46917 0.38488 0.92464 0.0
C1682 C 0.47981 0.37338 0.94951 0.0
C1683 C 0.4756 0.36766 0.99848 0.0
C1684 C 0.49513 0.36665 0.92505 0.0
C1685 C 0.47273 0.39097 0.8713 0.0
C1686 C 0.4968 0.34938 0.91754 0.0
C1687 C 0.51166 0.34271 0.89846 0.0
C1688 C 0.52523 0.35317 0.88668 0.0
C1689 C 0.52336 0.37053 0.89277 0.0
C1690 C 0.50846 0.3772 0.91198 0.0
H1691 H 0.46148 0.3965 0.85319 0.0
H1692 H 0.48254 0.40074 0.87282 0.0
H1693 H 0.47736 0.38064 0.84687 0.0
H1694 H 0.48667 0.34101 0.92736 0.0
H1695 H 0.51266 0.32929 0.89433 0.0
H1696 H 0.91688 0.39719 0.7493 0.0
H1697 H 0.91063 0.42332 0.70426 0.0
H1698 H 0.88713 0.44269 0.83999 0.0
H1699 H 0.89374 0.41669 0.8853 0.0
H1700 H 0.87953 0.43678 0.68554 0.0
H1701 H 0.91776 0.48094 0.79873 0.0
H1702 H 0.92058 0.4586 0.80208 0.0
H1703 H 0.90399 0.4685 0.83708 0.0
C1704 C 0.91068 0.40719 0.76965 0.0
C1705 C 0.90592 0.40509 0.82079 0.0
C1706 C 0.90702 0.42204 0.74389 0.0
C1707 C 0.89861 0.43506 0.76892 0.0
C1708 C 0.89395 0.43298 0.8202 0.0
H1709 H 0.85286 0.52851 0.69721 0.0
H1710 H 0.86309 0.5024 0.73302 0.0
C1711 C 0.89763 0.41813 0.84597 0.0
C1712 C 0.89397 0.45047 0.74075 0.0
H1713 H 0.89733 0.49297 0.74353 0.0
C1714 C 0.88358 0.44906 0.69781 0.0
C1715 C 0.8993 0.46648 0.75674 0.0
C1716 C 0.91116 0.46876 0.80087 0.0
C1717 C 0.87785 0.46327 0.67165 0.0
C1718 C 0.88281 0.47928 0.68854 0.0
C1719 C 0.89351 0.48067 0.73073 0.0
C1720 C 0.8763 0.49481 0.66498 0.0
C1721 C 0.86602 0.46111 0.62739 0.0
C1722 C 0.8803 0.49922 0.61457 0.0
C1723 C 0.87445 0.51426 0.59374 0.0
C1724 C 0.86452 0.52512 0.62306 0.0
C1725 C 0.86044 0.52049 0.67335 0.0
C1726 C 0.86631 0.50556 0.69406 0.0
H1727 H 0.86105 0.44818 0.62497 0.0
H1728 H 0.85537 0.46993 0.63062 0.0
H1729 H 0.8727 0.46392 0.59133 0.0
H1730 H 0.88818 0.49118 0.59168 0.0
H1731 H 0.8779 0.51747 0.55503 0.0
H1732 H 0.51478 0.13152 0.44534 0.0
H1733 H 0.48845 0.12116 0.40926 0.0
H1734 H 0.50147 0.14243 0.26354 0.0
H1735 H 0.52773 0.15248 0.29864 0.0
H1736 H 0.46225 0.13814 0.36464 0.0
H1737 H 0.49042 0.09481 0.22445 0.0
H1738 H 0.50228 0.10397 0.27584 0.0
H1739 H 0.49834 0.11567 0.21846 0.0
C1740 C 0.51204 0.13395 0.4056 0.0
C1741 C 0.52345 0.14272 0.37486 0.0
C1742 C 0.497 0.12802 0.38502 0.0
C1743 C 0.49315 0.13069 0.33336 0.0
C1744 C 0.50435 0.13979 0.30307 0.0
H1745 H 0.41008 0.11866 0.1281 0.0
H1746 H 0.4367 0.12487 0.17072 0.0
C1747 C 0.51935 0.14564 0.32343 0.0
C1748 C 0.47729 0.12442 0.31101 0.0
H1749 H 0.46158 0.10155 0.21193 0.0
C1750 C 0.46209 0.12996 0.33168 0.0
C1751 C 0.47708 0.11373 0.26797 0.0
C1752 C 0.4929 0.10656 0.24569 0.0
C1753 C 0.44675 0.12562 0.3093 0.0
C1754 C 0.4466 0.11533 0.26544 0.0
C1755 C 0.46175 0.10951 0.2454 0.0
C1756 C 0.43084 0.11087 0.23901 0.0
C1757 C 0.43082 0.13252 0.33164 0.0
C1758 C 0.41892 0.10067 0.26285 0.0
C1759 C 0.40381 0.09706 0.23845 0.0
C1760 C 0.40041 0.1036 0.18987 0.0
C1761 C 0.41248 0.11348 0.16555 0.0
C1762 C 0.42763 0.11702 0.18983 0.0
H1763 H 0.43324 0.14271 0.35941 0.0
H1764 H 0.42255 0.13735 0.30103 0.0
H1765 H 0.42404 0.12238 0.35171 0.0
H1766 H 0.42124 0.09563 0.30052 0.0
H1767 H 0.39461 0.08948 0.25799 0.0
H1768 H 0.16446 0.48561 0.66538 0.0
H1769 H 0.15467 0.51162 0.70351 0.0
H1770 H 0.1085 0.50751 0.61984 0.0
H1771 H 0.11859 0.48172 0.57977 0.0
H1772 H 0.11826 0.53882 0.62176 0.0
H1773 H 0.12226 0.51449 0.81831 0.0
H1774 H 0.14215 0.51333 0.78729 0.0
H1775 H 0.12486 0.50124 0.7633 0.0
C1776 C 0.15227 0.49031 0.65476 0.0
C1777 C 0.14225 0.48157 0.61979 0.0
C1778 C 0.14661 0.50511 0.67703 0.0
C1779 C 0.13061 0.51128 0.66596 0.0
C1780 C 0.12082 0.50292 0.62948 0.0
H1781 H 0.08878 0.5888 0.8661 0.0
H1782 H 0.09355 0.56239 0.82079 0.0
C1783 C 0.12661 0.48822 0.60643 0.0
C1784 C 0.12423 0.52646 0.69238 0.0
H1785 H 0.11999 0.54426 0.8101 0.0
C1786 C 0.11848 0.53993 0.66297 0.0
C1787 C 0.12404 0.52784 0.74627 0.0
C1788 C 0.12848 0.51337 0.78058 0.0
C1789 C 0.11322 0.55493 0.68578 0.0
C1790 C 0.11432 0.55676 0.73946 0.0
C1791 C 0.1194 0.54304 0.76894 0.0
C1792 C 0.11077 0.57289 0.76572 0.0
C1793 C 0.10638 0.56854 0.65193 0.0
C1794 C 0.11892 0.58757 0.75035 0.0
C1795 C 0.11591 0.60266 0.77543 0.0
C1796 C 0.10507 0.60335 0.81751 0.0
C1797 C 0.09709 0.58864 0.83353 0.0
C1798 C 0.09989 0.57355 0.8078 0.0
H1799 H 0.10073 0.56325 0.61676 0.0
H1800 H 0.09678 0.57611 0.67191 0.0
H1801 H 0.11672 0.57689 0.64001 0.0
H1802 H 0.12776 0.58738 0.71913 0.0
H1803 H 0.12205 0.61382 0.76163 0.0
H1804 H 0.59003 0.92267 0.14097 0.0
H1805 H 0.56348 0.91788 0.18553 0.0
H1806 H 0.58688 0.87966 0.27681 0.0
H1807 H 0.61347 0.8852 0.23509 0.0
H1808 H 0.54422 0.89161 0.18938 0.0
H1809 H 0.56416 0.90524 0.38636 0.0
H1810 H 0.57703 0.91015 0.33194 0.0
H1811 H 0.57713 0.88942 0.35877 0.0
C1812 C 0.5895 0.91342 0.17107 0.0
C1813 C 0.60379 0.90422 0.18422 0.0
C1814 C 0.57433 0.91064 0.19637 0.0
C1815 C 0.57319 0.89861 0.2353 0.0
C1816 C 0.58746 0.88933 0.248 0.0
H1817 H 0.48465 0.84543 0.32581 0.0
H1818 H 0.51078 0.85544 0.28907 0.0
C1819 C 0.60262 0.89226 0.22329 0.0
C1820 C 0.55696 0.89509 0.26091 0.0
H1821 H 0.53898 0.88898 0.37769 0.0
C1822 C 0.54305 0.89124 0.23057 0.0
C1823 C 0.55523 0.89494 0.31471 0.0
C1824 C 0.56915 0.90035 0.34975 0.0
C1825 C 0.52772 0.8866 0.25238 0.0
C1826 C 0.52638 0.88518 0.3061 0.0
C1827 C 0.54006 0.88973 0.33652 0.0
C1828 C 0.51102 0.87868 0.33123 0.0
C1829 C 0.51309 0.88342 0.21743 0.0
C1830 C 0.50292 0.88791 0.36957 0.0
C1831 C 0.48812 0.88199 0.39167 0.0
C1832 C 0.48113 0.86677 0.37557 0.0
C1833 C 0.4896 0.8573 0.33859 0.0
C1834 C 0.50447 0.86309 0.31715 0.0
H1835 H 0.51441 0.89039 0.18103 0.0
H1836 H 0.51257 0.86992 0.20799 0.0
H1837 H 0.50111 0.88706 0.2356 0.0
H1838 H 0.50782 0.8999 0.38151 0.0
H1839 H 0.48185 0.88959 0.41998 0.0
H1840 H 0.87878 0.09783 0.3809 0.0
H1841 H 0.87253 0.07151 0.42519 0.0
H1842 H 0.90884 0.08369 0.5407 0.0
H1843 H 0.91499 0.11004 0.4968 0.0
H1844 H 0.89615 0.045 0.45225 0.0
H1845 H 0.86486 0.07342 0.62069 0.0
H1846 H 0.86773 0.08459 0.56149 0.0
H1847 H 0.88502 0.08169 0.60406 0.0
C1848 C 0.88543 0.09481 0.41567 0.0
C1849 C 0.89745 0.10582 0.43528 0.0
C1850 C 0.88187 0.07983 0.44088 0.0
C1851 C 0.89012 0.07575 0.48644 0.0
C1852 C 0.90221 0.0867 0.5059 0.0
H1853 H 0.87796 0.98985 0.69127 0.0
H1854 H 0.8867 0.01657 0.65369 0.0
C1855 C 0.90583 0.10163 0.48056 0.0
C1856 C 0.88616 0.05994 0.51323 0.0
H1857 H 0.8683 0.04414 0.6213 0.0
C1858 C 0.89008 0.04479 0.48922 0.0
C1859 C 0.87838 0.05974 0.56166 0.0
C1860 C 0.87361 0.07569 0.58855 0.0
C1861 C 0.8864 0.02941 0.51231 0.0
C1862 C 0.87819 0.02918 0.56016 0.0
C1863 C 0.87456 0.04434 0.58464 0.0
C1864 C 0.87257 0.01333 0.58405 0.0
C1865 C 0.89151 0.01355 0.48542 0.0
C1866 C 0.86139 1.0029 0.55805 0.0
C1867 C 0.85645 0.9877 0.57922 0.0
C1868 C 0.86242 0.98263 0.62727 0.0
C1869 C 0.87317 0.99337 0.65419 0.0
C1870 C 0.87818 0.00861 0.63274 0.0
H1871 H 0.90194 0.01579 0.45834 0.0
H1872 H 0.89539 0.0038 0.51306 0.0
H1873 H 0.88076 0.00872 0.4632 0.0
H1874 H 0.85653 0.00648 0.52111 0.0
H1875 H 0.84801 0.97986 0.55759 0.0
H1876 H 0.09222 0.12179 0.64016 0.0
H1877 H 0.06566 0.12812 0.59753 0.0
H1878 H 0.08016 0.09702 0.47065 0.0
H1879 H 0.1065 0.09044 0.51382 0.0
H1880 H 0.0616 0.14392 0.50747 0.0
H1881 H 0.03316 0.08093 0.49511 0.0
H1882 H 0.05088 0.08535 0.53537 0.0
H1883 H 0.05371 0.08198 0.46809 0.0
C1884 C 0.08953 0.11611 0.60358 0.0
C1885 C 0.10123 0.10554 0.58033 0.0
C1886 C 0.07443 0.11975 0.57919 0.0
C1887 C 0.07079 0.11287 0.53113 0.0
C1888 C 0.08246 0.10214 0.50821 0.0
H1889 H 0.98951 0.13207 0.31473 0.0
H1890 H 0.01594 0.12324 0.3539 0.0
C1891 C 0.09751 0.09842 0.53277 0.0
C1892 C 0.0553 0.1178 0.50374 0.0
H1893 H 0.01993 0.10251 0.44761 0.0
C1894 C 0.05247 0.13485 0.4946 0.0
C1895 C 0.04341 0.10597 0.48661 0.0
C1896 C 0.04532 0.08755 0.49717 0.0
C1897 C 0.03815 0.14038 0.46878 0.0
C1898 C 0.02627 0.12857 0.4519 0.0
C1899 C 0.02914 0.11152 0.46037 0.0
C1900 C 0.01036 0.13382 0.42785 0.0
C1901 C 0.03587 0.15883 0.45946 0.0
C1902 C 0.99846 0.14252 0.45663 0.0
C1903 C 0.9834 0.1475 0.43457 0.0
C1904 C 0.9799 0.1439 0.38312 0.0
C1905 C 0.99184 0.13512 0.35432 0.0
C1906 C 0.00692 0.13003 0.37664 0.0
H1907 H 0.04775 0.16583 0.46401 0.0
H1908 H 0.03089 0.16114 0.42056 0.0
H1909 H 0.02674 0.16386 0.48734 0.0
H1910 H 1.00078 0.14538 0.49637 0.0
H1911 H 0.9745 0.15419 0.45801 0.0
H1912 H 0.09513 0.91523 0.3836 0.0
H1913 H 0.10243 0.94234 0.42173 0.0
H1914 H 0.12867 0.917 0.54268 0.0
H1915 H 0.12108 0.89002 0.50539 0.0
H1916 H 0.10925 0.94364 0.57737 0.0
H1917 H 0.14956 0.96235 0.41457 0.0
H1918 H 0.12845 0.9571 0.39804 0.0
H1919 H 0.14211 0.94127 0.42282 0.0
C1920 C 0.10234 0.91553 0.41852 0.0
C1921 C 0.10776 0.90061 0.44122 0.0
C1922 C 0.1066 0.93097 0.44007 0.0
C1923 C 0.11635 0.9317 0.48459 0.0
C1924 C 0.12124 0.91675 0.50818 0.0
H1925 H 0.1779 0.01205 0.59616 0.0
H1926 H 0.16619 0.98573 0.56566 0.0
C1927 C 0.11699 0.90136 0.4867 0.0
C1928 C 0.12191 0.94793 0.50615 0.0
H1929 H 0.14626 0.98195 0.48093 0.0
C1930 C 0.11728 0.95207 0.55626 0.0
C1931 C 0.13258 0.95879 0.47879 0.0
C1932 C 0.13862 0.95465 0.42574 0.0
C1933 C 0.12305 0.96677 0.57975 0.0
C1934 C 0.13357 0.97772 0.55214 0.0
C1935 C 0.13814 0.97359 0.50199 0.0
C1936 C 0.14044 0.99329 0.5748 0.0
C1937 C 0.11823 0.97021 0.63436 0.0
C1938 C 0.12986 0.00625 0.5908 0.0
C1939 C 0.13653 0.02134 0.60862 0.0
C1940 C 0.15392 0.02379 0.61032 0.0
C1941 C 0.16446 0.01061 0.59544 0.0
C1942 C 0.15779 0.99555 0.5778 0.0
H1943 H 0.11363 0.95879 0.65387 0.0
H1944 H 0.12898 0.97527 0.65617 0.0
H1945 H 0.10809 0.97964 0.63513 0.0
H1946 H 0.11644 0.00492 0.58803 0.0
H1947 H 0.12805 0.03126 0.61939 0.0
H1948 H 0.02796 0.85011 0.44648 0.0
H1949 H 1.0014 0.85936 0.48186 0.0
H1950 H 0.99321 0.89048 0.35009 0.0
H1951 H 0.01986 0.88111 0.3138 0.0
H1952 H 0.99219 0.89188 0.50661 0.0
H1953 H 0.94913 0.86466 0.36266 0.0
H1954 H 0.9707 0.85837 0.36794 0.0
H1955 H 0.96539 0.87775 0.33753 0.0
C1956 C 0.0205 0.85882 0.42462 0.0
C1957 C 0.02607 0.86483 0.3771 0.0
C1958 C 0.0053 0.86412 0.44507 0.0
C1959 C 0.99523 0.8755 0.41851 0.0
C1960 C 1.00064 0.88147 0.37089 0.0
H1961 H 0.89813 0.91789 0.50047 0.0
H1962 H 0.925 0.91206 0.45901 0.0
C1963 C 0.01591 0.87615 0.35027 0.0
C1964 C 0.97939 0.88139 0.44191 0.0
H1965 H 0.937 0.88112 0.42755 0.0
C1966 C 0.98012 0.88956 0.48927 0.0
C1967 C 0.96365 0.8784 0.4192 0.0
C1968 C 0.96206 0.8692 0.36923 0.0
C1969 C 0.96556 0.89478 0.51458 0.0
C1970 C 0.94981 0.8915 0.49237 0.0
C1971 C 0.94908 0.88362 0.44455 0.0
C1972 C 0.93393 0.8957 0.51874 0.0
C1973 C 0.9672 0.9039 0.56467 0.0
C1974 C 0.93001 0.88845 0.56607 0.0
C1975 C 0.91474 0.89186 0.58983 0.0
C1976 C 0.90309 0.90248 0.56656 0.0
C1977 C 0.90703 0.90982 0.51943 0.0
C1978 C 0.9223 0.90642 0.49564 0.0
H1979 H 0.97978 0.90955 0.56915 0.0
H1980 H 0.95767 0.9139 0.56815 0.0
H1981 H 0.96533 0.89493 0.59642 0.0
H1982 H 0.93863 0.87988 0.58415 0.0
H1983 H 0.91191 0.88599 0.62604 0.0
loop_
_geom_bond_atom_site_label_1
_geom_bond_atom_site_label_2
_geom_bond_distance
_geom_bond_site_symmetry_2
_ccdc_geom_bond_type
Co0 O3 1.970 . S
Co0 N17 1.989 . S
Co0 O25 1.967 . S
Co0 O32 1.920 . S
Co1 O4 1.966 . S
Co1 N10 2.022 . S
Co1 N18 1.993 . S
Co1 O26 1.941 . S
C2 O3 1.258 . S
C2 O4 1.263 . S
O3 Co0 1.970 . S
O3 C2 1.258 . S
O4 Co1 1.966 . S
O4 C2 1.263 . S
C5 O6 1.235 . S
C5 O32 1.289 . S
O6 C5 1.235 . S
C7 C9 1.400 . S
C7 N10 1.351 . S
C7 C12 1.501 . S
C8 C9 1.387 . S
C8 N11 1.341 . S
C9 C7 1.400 . S
C9 C8 1.387 . S
N10 Co1 2.022 . S
N10 C7 1.351 . S
N10 N11 1.365 . S
N11 C8 1.341 . S
N11 N10 1.365 . S
N11 H31 0.862 . S
C12 C7 1.501 . S
C12 H13 0.961 . S
C12 H14 0.961 . S
C12 H15 0.960 . S
H13 C12 0.961 . S
H14 C12 0.961 . S
H15 C12 0.960 . S
C16 N17 1.342 . S
C16 C20 1.401 . S
C16 C21 1.499 . S
N17 Co0 1.989 . S
N17 C16 1.342 . S
N17 N18 1.388 . S
N18 Co1 1.993 . S
N18 N17 1.388 . S
N18 C19 1.346 . S
C19 N18 1.346 . S
C19 C20 1.396 . S
C19 C29 1.510 . S
C20 C16 1.401 . S
C20 C19 1.396 . S
C21 C16 1.499 . S
C21 H22 0.959 . S
C21 H23 0.960 . S
C21 H24 0.961 . S
H22 C21 0.959 . S
H23 C21 0.960 . S
H24 C21 0.961 . S
O25 Co0 1.967 . S
O25 C33 1.258 . S
O26 Co1 1.941 . S
O26 C33 1.266 . S
H27 C29 0.959 . S
H28 C29 0.961 . S
C29 C19 1.510 . S
C29 H27 0.959 . S
C29 H28 0.961 . S
C29 H30 0.960 . S
H30 C29 0.960 . S
H31 N11 0.862 . S
O32 Co0 1.920 . S
O32 C5 1.289 . S
C33 O25 1.258 . S
C33 O26 1.266 . S
Co34 O37 1.970 . S
Co34 N51 1.989 . S
Co34 O59 1.967 . S
Co34 O66 1.920 . S
Co35 O38 1.966 . S
Co35 N44 2.022 . S
Co35 N52 1.993 . S
Co35 O60 1.941 . S
C36 O37 1.258 . S
C36 O38 1.263 . S
O37 Co34 1.970 . S
O37 C36 1.258 . S
O38 Co35 1.966 . S
O38 C36 1.263 . S
C39 O40 1.235 . S
C39 O66 1.289 . S
O40 C39 1.235 . S
C41 C43 1.400 . S
C41 N44 1.351 . S
C41 C46 1.501 . S
C42 C43 1.387 . S
C42 N45 1.341 . S
C43 C41 1.400 . S
C43 C42 1.387 . S
N44 Co35 2.022 . S
N44 C41 1.351 . S
N44 N45 1.365 . S
N45 C42 1.341 . S
N45 N44 1.365 . S
N45 H65 0.862 . S
C46 C41 1.501 . S
C46 H47 0.961 . S
C46 H48 0.961 . S
C46 H49 0.960 . S
H47 C46 0.961 . S
H48 C46 0.961 . S
H49 C46 0.960 . S
C50 N51 1.342 . S
C50 C54 1.401 . S
C50 C55 1.499 . S
N51 Co34 1.989 . S
N51 C50 1.342 . S
N51 N52 1.388 . S
N52 Co35 1.993 . S
N52 N51 1.388 . S
N52 C53 1.346 . S
C53 N52 1.346 . S
C53 C54 1.396 . S
C53 C63 1.510 . S
C54 C50 1.401 . S
C54 C53 1.396 . S
C55 C50 1.499 . S
C55 H56 0.959 . S
C55 H57 0.960 . S
C55 H58 0.961 . S
H56 C55 0.959 . S
H57 C55 0.960 . S
H58 C55 0.961 . S
O59 Co34 1.967 . S
O59 C67 1.258 . S
O60 Co35 1.941 . S
O60 C67 1.266 . S
H61 C63 0.959 . S
H62 C63 0.961 . S
C63 C53 1.510 . S
C63 H61 0.959 . S
C63 H62 0.961 . S
C63 H64 0.960 . S
H64 C63 0.960 . S
H65 N45 0.862 . S
O66 Co34 1.920 . S
O66 C39 1.289 . S
C67 O59 1.258 . S
C67 O60 1.266 . S
Co68 O71 1.970 . S
Co68 N85 1.989 . S
Co68 O93 1.967 . S
Co68 O100 1.920 . S
Co69 O72 1.966 . S
Co69 N78 2.022 . S
Co69 N86 1.993 . S
Co69 O94 1.941 . S
C70 O71 1.258 . S
C70 O72 1.263 . S
O71 Co68 1.970 . S
O71 C70 1.258 . S
O72 Co69 1.966 . S
O72 C70 1.263 . S
C73 O74 1.235 . S
C73 O100 1.289 . S
O74 C73 1.235 . S
C75 C77 1.400 . S
C75 N78 1.351 . S
C75 C80 1.501 . S
C76 C77 1.387 . S
C76 N79 1.341 . S
C77 C75 1.400 . S
C77 C76 1.387 . S
N78 Co69 2.022 . S
N78 C75 1.351 . S
N78 N79 1.365 . S
N79 C76 1.341 . S
N79 N78 1.365 . S
N79 H99 0.862 . S
C80 C75 1.501 . S
C80 H81 0.961 . S
C80 H82 0.961 . S
C80 H83 0.960 . S
H81 C80 0.961 . S
H82 C80 0.961 . S
H83 C80 0.960 . S
C84 N85 1.342 . S
C84 C88 1.401 . S
C84 C89 1.499 . S
N85 Co68 1.989 . S
N85 C84 1.342 . S
N85 N86 1.388 . S
N86 Co69 1.993 . S
N86 N85 1.388 . S
N86 C87 1.346 . S
C87 N86 1.346 . S
C87 C88 1.396 . S
C87 C97 1.510 . S
C88 C84 1.401 . S
C88 C87 1.396 . S
C89 C84 1.499 . S
C89 H90 0.959 . S
C89 H91 0.960 . S
C89 H92 0.961 . S
H90 C89 0.959 . S
H91 C89 0.960 . S
H92 C89 0.961 . S
O93 Co68 1.967 . S
O93 C101 1.258 . S
O94 Co69 1.941 . S
O94 C101 1.266 . S
H95 C97 0.959 . S
H96 C97 0.961 . S
C97 C87 1.510 . S
C97 H95 0.959 . S
C97 H96 0.961 . S
C97 H98 0.960 . S
H98 C97 0.960 . S
H99 N79 0.862 . S
O100 Co68 1.920 . S
O100 C73 1.289 . S
C101 O93 1.258 . S
C101 O94 1.266 . S
Co102 O105 1.970 . S
Co102 N119 1.989 . S
Co102 O127 1.967 . S
Co102 O134 1.920 . S
Co103 O106 1.966 . S
Co103 N112 2.022 . S
Co103 N120 1.993 . S
Co103 O128 1.941 . S
C104 O105 1.258 . S
C104 O106 1.263 . S
O105 Co102 1.970 . S
O105 C104 1.258 . S
O106 Co103 1.966 . S
O106 C104 1.263 . S
C107 O108 1.235 . S
C107 O134 1.289 . S
O108 C107 1.235 . S
C109 C111 1.400 . S
C109 N112 1.351 . S
C109 C114 1.501 . S
C110 C111 1.387 . S
C110 N113 1.341 . S
C111 C109 1.400 . S
C111 C110 1.387 . S
N112 Co103 2.022 . S
N112 C109 1.351 . S
N112 N113 1.365 . S
N113 C110 1.341 . S
N113 N112 1.365 . S
N113 H133 0.862 . S
C114 C109 1.501 . S
C114 H115 0.961 . S
C114 H116 0.961 . S
C114 H117 0.960 . S
H115 C114 0.961 . S
H116 C114 0.961 . S
H117 C114 0.960 . S
C118 N119 1.342 . S
C118 C122 1.401 . S
C118 C123 1.499 . S
N119 Co102 1.989 . S
N119 C118 1.342 . S
N119 N120 1.388 . S
N120 Co103 1.993 . S
N120 N119 1.388 . S
N120 C121 1.346 . S
C121 N120 1.346 . S
C121 C122 1.396 . S
C121 C131 1.510 . S
C122 C118 1.401 . S
C122 C121 1.396 . S
C123 C118 1.499 . S
C123 H124 0.959 . S
C123 H125 0.960 . S
C123 H126 0.961 . S
H124 C123 0.959 . S
H125 C123 0.960 . S
H126 C123 0.961 . S
O127 Co102 1.967 . S
O127 C135 1.258 . S
O128 Co103 1.941 . S
O128 C135 1.266 . S
H129 C131 0.959 . S
H130 C131 0.961 . S
C131 C121 1.510 . S
C131 H129 0.959 . S
C131 H130 0.961 . S
C131 H132 0.960 . S
H132 C131 0.960 . S
H133 N113 0.862 . S
O134 Co102 1.920 . S
O134 C107 1.289 . S
C135 O127 1.258 . S
C135 O128 1.266 . S
Co136 O139 1.970 . S
Co136 N153 1.989 . S
Co136 O161 1.967 . S
Co136 O168 1.920 . S
Co137 O140 1.966 . S
Co137 N146 2.022 . S
Co137 N154 1.993 . S
Co137 O162 1.941 . S
C138 O139 1.258 . S
C138 O140 1.263 . S
O139 Co136 1.970 . S
O139 C138 1.258 . S
O140 Co137 1.966 . S
O140 C138 1.263 . S
C141 O142 1.235 . S
C141 O168 1.289 . S
O142 C141 1.235 . S
C143 C145 1.400 . S
C143 N146 1.351 . S
C143 C148 1.501 . S
C144 C145 1.387 . S
C144 N147 1.341 . S
C145 C143 1.400 . S
C145 C144 1.387 . S
N146 Co137 2.022 . S
N146 C143 1.351 . S
N146 N147 1.365 . S
N147 C144 1.341 . S
N147 N146 1.365 . S
N147 H167 0.862 . S
C148 C143 1.501 . S
C148 H149 0.961 . S
C148 H150 0.961 . S
C148 H151 0.960 . S
H149 C148 0.961 . S
H150 C148 0.961 . S
H151 C148 0.960 . S
C152 N153 1.342 . S
C152 C156 1.401 . S
C152 C157 1.499 . S
N153 Co136 1.989 . S
N153 C152 1.342 . S
N153 N154 1.388 . S
N154 Co137 1.993 . S
N154 N153 1.388 . S
N154 C155 1.346 . S
C155 N154 1.346 . S
C155 C156 1.396 . S
C155 C165 1.510 . S
C156 C152 1.401 . S
C156 C155 1.396 . S
C157 C152 1.499 . S
C157 H158 0.959 . S
C157 H159 0.960 . S
C157 H160 0.961 . S
H158 C157 0.959 . S
H159 C157 0.960 . S
H160 C157 0.961 . S
O161 Co136 1.967 . S
O161 C169 1.258 . S
O162 Co137 1.941 . S
O162 C169 1.266 . S
H163 C165 0.959 . S
H164 C165 0.961 . S
C165 C155 1.510 . S
C165 H163 0.959 . S
C165 H164 0.961 . S
C165 H166 0.960 . S
H166 C165 0.960 . S
H167 N147 0.862 . S
O168 Co136 1.920 . S
O168 C141 1.289 . S
C169 O161 1.258 . S
C169 O162 1.266 . S
Co170 O173 1.970 . S
Co170 N187 1.989 . S
Co170 O195 1.967 . S
Co170 O202 1.920 . S
Co171 O174 1.966 . S
Co171 N180 2.022 . S
Co171 N188 1.993 . S
Co171 O196 1.941 . S
C172 O173 1.258 . S
C172 O174 1.263 . S
O173 Co170 1.970 . S
O173 C172 1.258 . S
O174 Co171 1.966 . S
O174 C172 1.263 . S
C175 O176 1.235 . S
C175 O202 1.289 . S
O176 C175 1.235 . S
C177 C179 1.400 . S
C177 N180 1.351 . S
C177 C182 1.501 . S
C178 C179 1.387 . S
C178 N181 1.341 . S
C179 C177 1.400 . S
C179 C178 1.387 . S
N180 Co171 2.022 . S
N180 C177 1.351 . S
N180 N181 1.365 . S
N181 C178 1.341 . S
N181 N180 1.365 . S
N181 H201 0.862 . S
C182 C177 1.501 . S
C182 H183 0.961 . S
C182 H184 0.961 . S
C182 H185 0.960 . S
H183 C182 0.961 . S
H184 C182 0.961 . S
H185 C182 0.960 . S
C186 N187 1.342 . S
C186 C190 1.401 . S
C186 C191 1.499 . S
N187 Co170 1.989 . S
N187 C186 1.342 . S
N187 N188 1.388 . S
N188 Co171 1.993 . S
N188 N187 1.388 . S
N188 C189 1.346 . S
C189 N188 1.346 . S
C189 C190 1.396 . S
C189 C199 1.510 . S
C190 C186 1.401 . S
C190 C189 1.396 . S
C191 C186 1.499 . S
C191 H192 0.959 . S
C191 H193 0.960 . S
C191 H194 0.961 . S
H192 C191 0.959 . S
H193 C191 0.960 . S
H194 C191 0.961 . S
O195 Co170 1.967 . S
O195 C203 1.258 . S
O196 Co171 1.941 . S
O196 C203 1.266 . S
H197 C199 0.959 . S
H198 C199 0.961 . S
C199 C189 1.510 . S
C199 H197 0.959 . S
C199 H198 0.961 . S
C199 H200 0.960 . S
H200 C199 0.960 . S
H201 N181 0.862 . S
O202 Co170 1.920 . S
O202 C175 1.289 . S
C203 O195 1.258 . S
C203 O196 1.266 . S
Co204 O207 1.970 . S
Co204 N221 1.989 . S
Co204 O229 1.967 . S
Co204 O236 1.920 . S
Co205 O208 1.966 . S
Co205 N214 2.022 . S
Co205 N222 1.993 . S
Co205 O230 1.941 . S
C206 O207 1.258 . S
C206 O208 1.263 . S
O207 Co204 1.970 . S
O207 C206 1.258 . S
O208 Co205 1.966 . S
O208 C206 1.263 . S
C209 O210 1.235 . S
C209 O236 1.289 . S
O210 C209 1.235 . S
C211 C213 1.400 . S
C211 N214 1.351 . S
C211 C216 1.501 . S
C212 C213 1.387 . S
C212 N215 1.341 . S
C213 C211 1.400 . S
C213 C212 1.387 . S
N214 Co205 2.022 . S
N214 C211 1.351 . S
N214 N215 1.365 . S
N215 C212 1.341 . S
N215 N214 1.365 . S
N215 H235 0.862 . S
C216 C211 1.501 . S
C216 H217 0.961 . S
C216 H218 0.961 . S
C216 H219 0.960 . S
H217 C216 0.961 . S
H218 C216 0.961 . S
H219 C216 0.960 . S
C220 N221 1.342 . S
C220 C224 1.401 . S
C220 C225 1.499 . S
N221 Co204 1.989 . S
N221 C220 1.342 . S
N221 N222 1.388 . S
N222 Co205 1.993 . S
N222 N221 1.388 . S
N222 C223 1.346 . S
C223 N222 1.346 . S
C223 C224 1.396 . S
C223 C233 1.510 . S
C224 C220 1.401 . S
C224 C223 1.396 . S
C225 C220 1.499 . S
C225 H226 0.959 . S
C225 H227 0.960 . S
C225 H228 0.961 . S
H226 C225 0.959 . S
H227 C225 0.960 . S
H228 C225 0.961 . S
O229 Co204 1.967 . S
O229 C237 1.258 . S
O230 Co205 1.941 . S
O230 C237 1.266 . S
H231 C233 0.959 . S
H232 C233 0.961 . S
C233 C223 1.510 . S
C233 H231 0.959 . S
C233 H232 0.961 . S
C233 H234 0.960 . S
H234 C233 0.960 . S
H235 N215 0.862 . S
O236 Co204 1.920 . S
O236 C209 1.289 . S
C237 O229 1.258 . S
C237 O230 1.266 . S
Co238 O241 1.970 . S
Co238 N255 1.989 . S
Co238 O263 1.967 . S
Co238 O270 1.920 . S
Co239 O242 1.966 . S
Co239 N248 2.022 . S
Co239 N256 1.993 . S
Co239 O264 1.941 . S
C240 O241 1.258 . S
C240 O242 1.263 . S
O241 Co238 1.970 . S
O241 C240 1.258 . S
O242 Co239 1.966 . S
O242 C240 1.263 . S
C243 O244 1.235 . S
C243 O270 1.289 . S
O244 C243 1.235 . S
C245 C247 1.400 . S
C245 N248 1.351 . S
C245 C250 1.501 . S
C246 C247 1.387 . S
C246 N249 1.341 . S
C247 C245 1.400 . S
C247 C246 1.387 . S
N248 Co239 2.022 . S
N248 C245 1.351 . S
N248 N249 1.365 . S
N249 C246 1.341 . S
N249 N248 1.365 . S
N249 H269 0.862 . S
C250 C245 1.501 . S
C250 H251 0.961 . S
C250 H252 0.961 . S
C250 H253 0.960 . S
H251 C250 0.961 . S
H252 C250 0.961 . S
H253 C250 0.960 . S
C254 N255 1.342 . S
C254 C258 1.401 . S
C254 C259 1.499 . S
N255 Co238 1.989 . S
N255 C254 1.342 . S
N255 N256 1.388 . S
N256 Co239 1.993 . S
N256 N255 1.388 . S
N256 C257 1.346 . S
C257 N256 1.346 . S
C257 C258 1.396 . S
C257 C267 1.510 . S
C258 C254 1.401 . S
C258 C257 1.396 . S
C259 C254 1.499 . S
C259 H260 0.959 . S
C259 H261 0.960 . S
C259 H262 0.961 . S
H260 C259 0.959 . S
H261 C259 0.960 . S
H262 C259 0.961 . S
O263 Co238 1.967 . S
O263 C271 1.258 . S
O264 Co239 1.941 . S
O264 C271 1.266 . S
H265 C267 0.959 . S
H266 C267 0.961 . S
C267 C257 1.510 . S
C267 H265 0.959 . S
C267 H266 0.961 . S
C267 H268 0.960 . S
H268 C267 0.960 . S
H269 N249 0.862 . S
O270 Co238 1.920 . S
O270 C243 1.289 . S
C271 O263 1.258 . S
C271 O264 1.266 . S
Co272 O275 1.970 . S
Co272 N289 1.989 . S
Co272 O297 1.967 . S
Co272 O304 1.920 . S
Co273 O276 1.966 . S
Co273 N282 2.022 . S
Co273 N290 1.993 . S
Co273 O298 1.941 . S
C274 O275 1.258 . S
C274 O276 1.263 . S
O275 Co272 1.970 . S
O275 C274 1.258 . S
O276 Co273 1.966 . S
O276 C274 1.263 . S
C277 O278 1.235 . S
C277 O304 1.289 . S
O278 C277 1.235 . S
C279 C281 1.400 . S
C279 N282 1.351 . S
C279 C284 1.501 . S
C280 C281 1.387 . S
C280 N283 1.341 . S
C281 C279 1.400 . S
C281 C280 1.387 . S
N282 Co273 2.022 . S
N282 C279 1.351 . S
N282 N283 1.365 . S
N283 C280 1.341 . S
N283 N282 1.365 . S
N283 H303 0.862 . S
C284 C279 1.501 . S
C284 H285 0.961 . S
C284 H286 0.961 . S
C284 H287 0.960 . S
H285 C284 0.961 . S
H286 C284 0.961 . S
H287 C284 0.960 . S
C288 N289 1.342 . S
C288 C292 1.401 . S
C288 C293 1.499 . S
N289 Co272 1.989 . S
N289 C288 1.342 . S
N289 N290 1.388 . S
N290 Co273 1.993 . S
N290 N289 1.388 . S
N290 C291 1.346 . S
C291 N290 1.346 . S
C291 C292 1.396 . S
C291 C301 1.510 . S
C292 C288 1.401 . S
C292 C291 1.396 . S
C293 C288 1.499 . S
C293 H294 0.959 . S
C293 H295 0.960 . S
C293 H296 0.961 . S
H294 C293 0.959 . S
H295 C293 0.960 . S
H296 C293 0.961 . S
O297 Co272 1.967 . S
O297 C305 1.258 . S
O298 Co273 1.941 . S
O298 C305 1.266 . S
H299 C301 0.959 . S
H300 C301 0.961 . S
C301 C291 1.510 . S
C301 H299 0.959 . S
C301 H300 0.961 . S
C301 H302 0.960 . S
H302 C301 0.960 . S
H303 N283 0.862 . S
O304 Co272 1.920 . S
O304 C277 1.289 . S
C305 O297 1.258 . S
C305 O298 1.266 . S
Co306 O309 1.970 . S
Co306 N323 1.989 . S
Co306 O331 1.967 . S
Co306 O338 1.920 . S
Co307 O310 1.966 . S
Co307 N316 2.022 . S
Co307 N324 1.993 . S
Co307 O332 1.941 . S
C308 O309 1.258 . S
C308 O310 1.263 . S
O309 Co306 1.970 . S
O309 C308 1.258 . S
O310 Co307 1.966 . S
O310 C308 1.263 . S
C311 O312 1.235 . S
C311 O338 1.289 . S
O312 C311 1.235 . S
C313 C315 1.400 . S
C313 N316 1.351 . S
C313 C318 1.501 . S
C314 C315 1.387 . S
C314 N317 1.341 . S
C315 C313 1.400 . S
C315 C314 1.387 . S
N316 Co307 2.022 . S
N316 C313 1.351 . S
N316 N317 1.365 . S
N317 C314 1.341 . S
N317 N316 1.365 . S
N317 H337 0.862 . S
C318 C313 1.501 . S
C318 H319 0.961 . S
C318 H320 0.961 . S
C318 H321 0.960 . S
H319 C318 0.961 . S
H320 C318 0.961 . S
H321 C318 0.960 . S
C322 N323 1.342 . S
C322 C326 1.401 . S
C322 C327 1.499 . S
N323 Co306 1.989 . S
N323 C322 1.342 . S
N323 N324 1.388 . S
N324 Co307 1.993 . S
N324 N323 1.388 . S
N324 C325 1.346 . S
C325 N324 1.346 . S
C325 C326 1.396 . S
C325 C335 1.510 . S
C326 C322 1.401 . S
C326 C325 1.396 . S
C327 C322 1.499 . S
C327 H328 0.959 . S
C327 H329 0.960 . S
C327 H330 0.961 . S
H328 C327 0.959 . S
H329 C327 0.960 . S
H330 C327 0.961 . S
O331 Co306 1.967 . S
O331 C339 1.258 . S
O332 Co307 1.941 . S
O332 C339 1.266 . S
H333 C335 0.959 . S
H334 C335 0.961 . S
C335 C325 1.510 . S
C335 H333 0.959 . S
C335 H334 0.961 . S
C335 H336 0.960 . S
H336 C335 0.960 . S
H337 N317 0.862 . S
O338 Co306 1.920 . S
O338 C311 1.289 . S
C339 O331 1.258 . S
C339 O332 1.266 . S
Co340 O343 1.970 . S
Co340 N357 1.989 . S
Co340 O365 1.967 . S
Co340 O372 1.920 . S
Co341 O344 1.966 . S
Co341 N350 2.022 . S
Co341 N358 1.993 . S
Co341 O366 1.941 . S
C342 O343 1.258 . S
C342 O344 1.263 . S
O343 Co340 1.970 . S
O343 C342 1.258 . S
O344 Co341 1.966 . S
O344 C342 1.263 . S
C345 O346 1.235 . S
C345 O372 1.289 . S
O346 C345 1.235 . S
C347 C349 1.400 . S
C347 N350 1.351 . S
C347 C352 1.501 . S
C348 C349 1.387 . S
C348 N351 1.341 . S
C349 C347 1.400 . S
C349 C348 1.387 . S
N350 Co341 2.022 . S
N350 C347 1.351 . S
N350 N351 1.365 . S
N351 C348 1.341 . S
N351 N350 1.365 . S
N351 H371 0.862 . S
C352 C347 1.501 . S
C352 H353 0.961 . S
C352 H354 0.961 . S
C352 H355 0.960 . S
H353 C352 0.961 . S
H354 C352 0.961 . S
H355 C352 0.960 . S
C356 N357 1.342 . S
C356 C360 1.401 . S
C356 C361 1.499 . S
N357 Co340 1.989 . S
N357 C356 1.342 . S
N357 N358 1.388 . S
N358 Co341 1.993 . S
N358 N357 1.388 . S
N358 C359 1.346 . S
C359 N358 1.346 . S
C359 C360 1.396 . S
C359 C369 1.510 . S
C360 C356 1.401 . S
C360 C359 1.396 . S
C361 C356 1.499 . S
C361 H362 0.959 . S
C361 H363 0.960 . S
C361 H364 0.961 . S
H362 C361 0.959 . S
H363 C361 0.960 . S
H364 C361 0.961 . S
O365 Co340 1.967 . S
O365 C373 1.258 . S
O366 Co341 1.941 . S
O366 C373 1.266 . S
H367 C369 0.959 . S
H368 C369 0.961 . S
C369 C359 1.510 . S
C369 H367 0.959 . S
C369 H368 0.961 . S
C369 H370 0.960 . S
H370 C369 0.960 . S
H371 N351 0.862 . S
O372 Co340 1.920 . S
O372 C345 1.289 . S
C373 O365 1.258 . S
C373 O366 1.266 . S
Co374 O377 1.970 . S
Co374 N391 1.989 . S
Co374 O399 1.967 . S
Co374 O406 1.920 . S
Co375 O378 1.966 . S
Co375 N384 2.022 . S
Co375 N392 1.993 . S
Co375 O400 1.941 . S
C376 O377 1.258 . S
C376 O378 1.263 . S
O377 Co374 1.970 . S
O377 C376 1.258 . S
O378 Co375 1.966 . S
O378 C376 1.263 . S
C379 O380 1.235 . S
C379 O406 1.289 . S
O380 C379 1.235 . S
C381 C383 1.400 . S
C381 N384 1.351 . S
C381 C386 1.501 . S
C382 C383 1.387 . S
C382 N385 1.341 . S
C383 C381 1.400 . S
C383 C382 1.387 . S
N384 Co375 2.022 . S
N384 C381 1.351 . S
N384 N385 1.365 . S
N385 C382 1.341 . S
N385 N384 1.365 . S
N385 H405 0.862 . S
C386 C381 1.501 . S
C386 H387 0.961 . S
C386 H388 0.961 . S
C386 H389 0.960 . S
H387 C386 0.961 . S
H388 C386 0.961 . S
H389 C386 0.960 . S
C390 N391 1.342 . S
C390 C394 1.401 . S
C390 C395 1.499 . S
N391 Co374 1.989 . S
N391 C390 1.342 . S
N391 N392 1.388 . S
N392 Co375 1.993 . S
N392 N391 1.388 . S
N392 C393 1.346 . S
C393 N392 1.346 . S
C393 C394 1.396 . S
C393 C403 1.510 . S
C394 C390 1.401 . S
C394 C393 1.396 . S
C395 C390 1.499 . S
C395 H396 0.959 . S
C395 H397 0.960 . S
C395 H398 0.961 . S
H396 C395 0.959 . S
H397 C395 0.960 . S
H398 C395 0.961 . S
O399 Co374 1.967 . S
O399 C407 1.258 . S
O400 Co375 1.941 . S
O400 C407 1.266 . S
H401 C403 0.959 . S
H402 C403 0.961 . S
C403 C393 1.510 . S
C403 H401 0.959 . S
C403 H402 0.961 . S
C403 H404 0.960 . S
H404 C403 0.960 . S
H405 N385 0.862 . S
O406 Co374 1.920 . S
O406 C379 1.289 . S
C407 O399 1.258 . S
C407 O400 1.266 . S
Co408 O411 1.970 . S
Co408 N425 1.989 . S
Co408 O433 1.967 . S
Co408 O440 1.920 . S
Co409 O412 1.966 . S
Co409 N418 2.022 . S
Co409 N426 1.993 . S
Co409 O434 1.941 . S
C410 O411 1.258 . S
C410 O412 1.263 . S
O411 Co408 1.970 . S
O411 C410 1.258 . S
O412 Co409 1.966 . S
O412 C410 1.263 . S
C413 O414 1.235 . S
C413 O440 1.289 . S
O414 C413 1.235 . S
C415 C417 1.400 . S
C415 N418 1.351 . S
C415 C420 1.501 . S
C416 C417 1.387 . S
C416 N419 1.341 . S
C417 C415 1.400 . S
C417 C416 1.387 . S
N418 Co409 2.022 . S
N418 C415 1.351 . S
N418 N419 1.365 . S
N419 C416 1.341 . S
N419 N418 1.365 . S
N419 H439 0.862 . S
C420 C415 1.501 . S
C420 H421 0.961 . S
C420 H422 0.961 . S
C420 H423 0.960 . S
H421 C420 0.961 . S
H422 C420 0.961 . S
H423 C420 0.960 . S
C424 N425 1.342 . S
C424 C428 1.401 . S
C424 C429 1.499 . S
N425 Co408 1.989 . S
N425 C424 1.342 . S
N425 N426 1.388 . S
N426 Co409 1.993 . S
N426 N425 1.388 . S
N426 C427 1.346 . S
C427 N426 1.346 . S
C427 C428 1.396 . S
C427 C437 1.510 . S
C428 C424 1.401 . S
C428 C427 1.396 . S
C429 C424 1.499 . S
C429 H430 0.959 . S
C429 H431 0.960 . S
C429 H432 0.961 . S
H430 C429 0.959 . S
H431 C429 0.960 . S
H432 C429 0.961 . S
O433 Co408 1.967 . S
O433 C441 1.258 . S
O434 Co409 1.941 . S
O434 C441 1.266 . S
H435 C437 0.959 . S
H436 C437 0.961 . S
C437 C427 1.510 . S
C437 H435 0.959 . S
C437 H436 0.961 . S
C437 H438 0.960 . S
H438 C437 0.960 . S
H439 N419 0.862 . S
O440 Co408 1.920 . S
O440 C413 1.289 . S
C441 O433 1.258 . S
C441 O434 1.266 . S
Co442 O445 1.970 . S
Co442 N459 1.989 . S
Co442 O467 1.967 . S
Co442 O474 1.920 . S
Co443 O446 1.966 . S
Co443 N452 2.022 . S
Co443 N460 1.993 . S
Co443 O468 1.941 . S
C444 O445 1.258 . S
C444 O446 1.263 . S
O445 Co442 1.970 . S
O445 C444 1.258 . S
O446 Co443 1.966 . S
O446 C444 1.263 . S
C447 O448 1.235 . S
C447 O474 1.289 . S
O448 C447 1.235 . S
C449 C451 1.400 . S
C449 N452 1.351 . S
C449 C454 1.501 . S
C450 C451 1.387 . S
C450 N453 1.341 . S
C451 C449 1.400 . S
C451 C450 1.387 . S
N452 Co443 2.022 . S
N452 C449 1.351 . S
N452 N453 1.365 . S
N453 C450 1.341 . S
N453 N452 1.365 . S
N453 H473 0.862 . S
C454 C449 1.501 . S
C454 H455 0.961 . S
C454 H456 0.961 . S
C454 H457 0.960 . S
H455 C454 0.961 . S
H456 C454 0.961 . S
H457 C454 0.960 . S
C458 N459 1.342 . S
C458 C462 1.401 . S
C458 C463 1.499 . S
N459 Co442 1.989 . S
N459 C458 1.342 . S
N459 N460 1.388 . S
N460 Co443 1.993 . S
N460 N459 1.388 . S
N460 C461 1.346 . S
C461 N460 1.346 . S
C461 C462 1.396 . S
C461 C471 1.510 . S
C462 C458 1.401 . S
C462 C461 1.396 . S
C463 C458 1.499 . S
C463 H464 0.959 . S
C463 H465 0.960 . S
C463 H466 0.961 . S
H464 C463 0.959 . S
H465 C463 0.960 . S
H466 C463 0.961 . S
O467 Co442 1.967 . S
O467 C475 1.258 . S
O468 Co443 1.941 . S
O468 C475 1.266 . S
H469 C471 0.959 . S
H470 C471 0.961 . S
C471 C461 1.510 . S
C471 H469 0.959 . S
C471 H470 0.961 . S
C471 H472 0.960 . S
H472 C471 0.960 . S
H473 N453 0.862 . S
O474 Co442 1.920 . S
O474 C447 1.289 . S
C475 O467 1.258 . S
C475 O468 1.266 . S
Co476 O479 1.970 . S
Co476 N493 1.989 . S
Co476 O501 1.967 . S
Co476 O508 1.920 . S
Co477 O480 1.966 . S
Co477 N486 2.022 . S
Co477 N494 1.993 . S
Co477 O502 1.941 . S
C478 O479 1.258 . S
C478 O480 1.263 . S
O479 Co476 1.970 . S
O479 C478 1.258 . S
O480 Co477 1.966 . S
O480 C478 1.263 . S
C481 O482 1.235 . S
C481 O508 1.289 . S
O482 C481 1.235 . S
C483 C485 1.400 . S
C483 N486 1.351 . S
C483 C488 1.501 . S
C484 C485 1.387 . S
C484 N487 1.341 . S
C485 C483 1.400 . S
C485 C484 1.387 . S
N486 Co477 2.022 . S
N486 C483 1.351 . S
N486 N487 1.365 . S
N487 C484 1.341 . S
N487 N486 1.365 . S
N487 H507 0.862 . S
C488 C483 1.501 . S
C488 H489 0.961 . S
C488 H490 0.961 . S
C488 H491 0.960 . S
H489 C488 0.961 . S
H490 C488 0.961 . S
H491 C488 0.960 . S
C492 N493 1.342 . S
C492 C496 1.401 . S
C492 C497 1.499 . S
N493 Co476 1.989 . S
N493 C492 1.342 . S
N493 N494 1.388 . S
N494 Co477 1.993 . S
N494 N493 1.388 . S
N494 C495 1.346 . S
C495 N494 1.346 . S
C495 C496 1.396 . S
C495 C505 1.510 . S
C496 C492 1.401 . S
C496 C495 1.396 . S
C497 C492 1.499 . S
C497 H498 0.959 . S
C497 H499 0.960 . S
C497 H500 0.961 . S
H498 C497 0.959 . S
H499 C497 0.960 . S
H500 C497 0.961 . S
O501 Co476 1.967 . S
O501 C509 1.258 . S
O502 Co477 1.941 . S
O502 C509 1.266 . S
H503 C505 0.959 . S
H504 C505 0.961 . S
C505 C495 1.510 . S
C505 H503 0.959 . S
C505 H504 0.961 . S
C505 H506 0.960 . S
H506 C505 0.960 . S
H507 N487 0.862 . S
O508 Co476 1.920 . S
O508 C481 1.289 . S
C509 O501 1.258 . S
C509 O502 1.266 . S
Co510 O513 1.970 . S
Co510 N527 1.989 . S
Co510 O535 1.967 . S
Co510 O542 1.920 . S
Co511 O514 1.966 . S
Co511 N520 2.022 . S
Co511 N528 1.993 . S
Co511 O536 1.941 . S
C512 O513 1.258 . S
C512 O514 1.263 . S
O513 Co510 1.970 . S
O513 C512 1.258 . S
O514 Co511 1.966 . S
O514 C512 1.263 . S
C515 O516 1.235 . S
C515 O542 1.289 . S
O516 C515 1.235 . S
C517 C519 1.400 . S
C517 N520 1.351 . S
C517 C522 1.501 . S
C518 C519 1.387 . S
C518 N521 1.341 . S
C519 C517 1.400 . S
C519 C518 1.387 . S
N520 Co511 2.022 . S
N520 C517 1.351 . S
N520 N521 1.365 . S
N521 C518 1.341 . S
N521 N520 1.365 . S
N521 H541 0.862 . S
C522 C517 1.501 . S
C522 H523 0.961 . S
C522 H524 0.961 . S
C522 H525 0.960 . S
H523 C522 0.961 . S
H524 C522 0.961 . S
H525 C522 0.960 . S
C526 N527 1.342 . S
C526 C530 1.401 . S
C526 C531 1.499 . S
N527 Co510 1.989 . S
N527 C526 1.342 . S
N527 N528 1.388 . S
N528 Co511 1.993 . S
N528 N527 1.388 . S
N528 C529 1.346 . S
C529 N528 1.346 . S
C529 C530 1.396 . S
C529 C539 1.510 . S
C530 C526 1.401 . S
C530 C529 1.396 . S
C531 C526 1.499 . S
C531 H532 0.959 . S
C531 H533 0.960 . S
C531 H534 0.961 . S
H532 C531 0.959 . S
H533 C531 0.960 . S
H534 C531 0.961 . S
O535 Co510 1.967 . S
O535 C543 1.258 . S
O536 Co511 1.941 . S
O536 C543 1.266 . S
H537 C539 0.959 . S
H538 C539 0.961 . S
C539 C529 1.510 . S
C539 H537 0.959 . S
C539 H538 0.961 . S
C539 H540 0.960 . S
H540 C539 0.960 . S
H541 N521 0.862 . S
O542 Co510 1.920 . S
O542 C515 1.289 . S
C543 O535 1.258 . S
C543 O536 1.266 . S
H544 C552 0.929 . S
H545 C554 0.930 . S
H546 C556 0.930 . S
H547 C559 0.929 . S
H548 C562 0.930 . S
H549 C564 0.960 . S
H550 C564 0.960 . S
H551 C564 0.960 . S
C552 H544 0.929 . S
C552 C553 1.377 . S
C552 C554 1.384 . S
C553 C552 1.377 . S
C553 C559 1.390 . S
C554 H545 0.930 . S
C554 C552 1.384 . S
C554 C555 1.372 . S
C555 C554 1.372 . S
C555 C556 1.400 . S
C555 C560 1.490 . S
C556 H546 0.930 . S
C556 C555 1.400 . S
C556 C559 1.386 . S
H557 C573 0.930 . S
H558 C574 0.931 . S
C559 H547 0.929 . S
C559 C553 1.390 . S
C559 C556 1.386 . S
C560 C555 1.490 . S
C560 C562 1.395 . S
C560 C563 1.403 . S
H561 C567 0.930 . S
C562 H548 0.930 . S
C562 C560 1.395 . S
C562 C565 1.403 . S
C563 C560 1.403 . S
C563 C564 1.524 . S
C563 C567 1.400 . S
C564 H549 0.960 . S
C564 H550 0.960 . S
C564 H551 0.960 . S
C564 C563 1.524 . S
C565 C562 1.403 . S
C565 C566 1.392 . S
C565 C569 1.495 . S
C566 C565 1.392 . S
C566 C567 1.385 . S
C566 C568 1.478 . S
C567 H561 0.930 . S
C567 C563 1.400 . S
C567 C566 1.385 . S
C568 C566 1.478 . S
C568 C570 1.381 . S
C568 C574 1.383 . S
C569 C565 1.495 . S
C569 H575 0.959 . S
C569 H576 0.961 . S
C569 H577 0.960 . S
C570 C568 1.381 . S
C570 C571 1.394 . S
C570 H578 0.930 . S
C571 C570 1.394 . S
C571 C572 1.383 . S
C571 H579 0.929 . S
C572 C571 1.383 . S
C572 C573 1.377 . S
C573 H557 0.930 . S
C573 C572 1.377 . S
C573 C574 1.379 . S
C574 H558 0.931 . S
C574 C568 1.383 . S
C574 C573 1.379 . S
H575 C569 0.959 . S
H576 C569 0.961 . S
H577 C569 0.960 . S
H578 C570 0.930 . S
H579 C571 0.929 . S
H580 C588 0.929 . S
H581 C590 0.930 . S
H582 C592 0.930 . S
H583 C595 0.929 . S
H584 C598 0.930 . S
H585 C600 0.960 . S
H586 C600 0.960 . S
H587 C600 0.960 . S
C588 H580 0.929 . S
C588 C589 1.377 . S
C588 C590 1.384 . S
C589 C588 1.377 . S
C589 C595 1.390 . S
C590 H581 0.930 . S
C590 C588 1.384 . S
C590 C591 1.372 . S
C591 C590 1.372 . S
C591 C592 1.400 . S
C591 C596 1.490 . S
C592 H582 0.930 . S
C592 C591 1.400 . S
C592 C595 1.386 . S
H593 C609 0.930 . S
H594 C610 0.931 . S
C595 H583 0.929 . S
C595 C589 1.390 . S
C595 C592 1.386 . S
C596 C591 1.490 . S
C596 C598 1.395 . S
C596 C599 1.403 . S
H597 C603 0.930 . S
C598 H584 0.930 . S
C598 C596 1.395 . S
C598 C601 1.403 . S
C599 C596 1.403 . S
C599 C600 1.524 . S
C599 C603 1.400 . S
C600 H585 0.960 . S
C600 H586 0.960 . S
C600 H587 0.960 . S
C600 C599 1.524 . S
C601 C598 1.403 . S
C601 C602 1.392 . S
C601 C605 1.495 . S
C602 C601 1.392 . S
C602 C603 1.385 . S
C602 C604 1.478 . S
C603 H597 0.930 . S
C603 C599 1.400 . S
C603 C602 1.385 . S
C604 C602 1.478 . S
C604 C606 1.381 . S
C604 C610 1.383 . S
C605 C601 1.495 . S
C605 H611 0.959 . S
C605 H612 0.961 . S
C605 H613 0.960 . S
C606 C604 1.381 . S
C606 C607 1.394 . S
C606 H614 0.930 . S
C607 C606 1.394 . S
C607 C608 1.383 . S
C607 H615 0.929 . S
C608 C607 1.383 . S
C608 C609 1.377 . S
C609 H593 0.930 . S
C609 C608 1.377 . S
C609 C610 1.379 . S
C610 H594 0.931 . S
C610 C604 1.383 . S
C610 C609 1.379 . S
H611 C605 0.959 . S
H612 C605 0.961 . S
H613 C605 0.960 . S
H614 C606 0.930 . S
H615 C607 0.929 . S
H616 C624 0.929 . S
H617 C626 0.930 . S
H618 C628 0.930 . S
H619 C631 0.929 . S
H620 C634 0.930 . S
H621 C636 0.960 . S
H622 C636 0.960 . S
H623 C636 0.960 . S
C624 H616 0.929 . S
C624 C625 1.377 . S
C624 C626 1.384 . S
C625 C624 1.377 . S
C625 C631 1.390 . S
C626 H617 0.930 . S
C626 C624 1.384 . S
C626 C627 1.372 . S
C627 C626 1.372 . S
C627 C628 1.400 . S
C627 C632 1.490 . S
C628 H618 0.930 . S
C628 C627 1.400 . S
C628 C631 1.386 . S
H629 C645 0.930 . S
H630 C646 0.931 . S
C631 H619 0.929 . S
C631 C625 1.390 . S
C631 C628 1.386 . S
C632 C627 1.490 . S
C632 C634 1.395 . S
C632 C635 1.403 . S
H633 C639 0.930 . S
C634 H620 0.930 . S
C634 C632 1.395 . S
C634 C637 1.403 . S
C635 C632 1.403 . S
C635 C636 1.524 . S
C635 C639 1.400 . S
C636 H621 0.960 . S
C636 H622 0.960 . S
C636 H623 0.960 . S
C636 C635 1.524 . S
C637 C634 1.403 . S
C637 C638 1.392 . S
C637 C641 1.495 . S
C638 C637 1.392 . S
C638 C639 1.385 . S
C638 C640 1.478 . S
C639 H633 0.930 . S
C639 C635 1.400 . S
C639 C638 1.385 . S
C640 C638 1.478 . S
C640 C642 1.381 . S
C640 C646 1.383 . S
C641 C637 1.495 . S
C641 H647 0.959 . S
C641 H648 0.961 . S
C641 H649 0.960 . S
C642 C640 1.381 . S
C642 C643 1.394 . S
C642 H650 0.930 . S
C643 C642 1.394 . S
C643 C644 1.383 . S
C643 H651 0.929 . S
C644 C643 1.383 . S
C644 C645 1.377 . S
C645 H629 0.930 . S
C645 C644 1.377 . S
C645 C646 1.379 . S
C646 H630 0.931 . S
C646 C640 1.383 . S
C646 C645 1.379 . S
H647 C641 0.959 . S
H648 C641 0.961 . S
H649 C641 0.960 . S
H650 C642 0.930 . S
H651 C643 0.929 . S
H652 C660 0.929 . S
H653 C662 0.930 . S
H654 C664 0.930 . S
H655 C667 0.929 . S
H656 C670 0.930 . S
H657 C672 0.960 . S
H658 C672 0.960 . S
H659 C672 0.960 . S
C660 H652 0.929 . S
C660 C661 1.377 . S
C660 C662 1.384 . S
C661 C660 1.377 . S
C661 C667 1.390 . S
C662 H653 0.930 . S
C662 C660 1.384 . S
C662 C663 1.372 . S
C663 C662 1.372 . S
C663 C664 1.400 . S
C663 C668 1.490 . S
C664 H654 0.930 . S
C664 C663 1.400 . S
C664 C667 1.386 . S
H665 C681 0.930 . S
H666 C682 0.931 . S
C667 H655 0.929 . S
C667 C661 1.390 . S
C667 C664 1.386 . S
C668 C663 1.490 . S
C668 C670 1.395 . S
C668 C671 1.403 . S
H669 C675 0.930 . S
C670 H656 0.930 . S
C670 C668 1.395 . S
C670 C673 1.403 . S
C671 C668 1.403 . S
C671 C672 1.524 . S
C671 C675 1.400 . S
C672 H657 0.960 . S
C672 H658 0.960 . S
C672 H659 0.960 . S
C672 C671 1.524 . S
C673 C670 1.403 . S
C673 C674 1.392 . S
C673 C677 1.495 . S
C674 C673 1.392 . S
C674 C675 1.385 . S
C674 C676 1.478 . S
C675 H669 0.930 . S
C675 C671 1.400 . S
C675 C674 1.385 . S
C676 C674 1.478 . S
C676 C678 1.381 . S
C676 C682 1.383 . S
C677 C673 1.495 . S
C677 H683 0.959 . S
C677 H684 0.961 . S
C677 H685 0.960 . S
C678 C676 1.381 . S
C678 C679 1.394 . S
C678 H686 0.930 . S
C679 C678 1.394 . S
C679 C680 1.383 . S
C679 H687 0.929 . S
C680 C679 1.383 . S
C680 C681 1.377 . S
C681 H665 0.930 . S
C681 C680 1.377 . S
C681 C682 1.379 . S
C682 H666 0.931 . S
C682 C676 1.383 . S
C682 C681 1.379 . S
H683 C677 0.959 . S
H684 C677 0.961 . S
H685 C677 0.960 . S
H686 C678 0.930 . S
H687 C679 0.929 . S
H688 C696 0.929 . S
H689 C698 0.930 . S
H690 C700 0.930 . S
H691 C703 0.929 . S
H692 C706 0.930 . S
H693 C708 0.960 . S
H694 C708 0.960 . S
H695 C708 0.960 . S
C696 H688 0.929 . S
C696 C697 1.377 . S
C696 C698 1.384 1_554 S
C697 C696 1.377 . S
C697 C703 1.390 1_554 S
C698 H689 0.930 . S
C698 C696 1.384 1_556 S
C698 C699 1.372 . S
C699 C698 1.372 . S
C699 C700 1.400 . S
C699 C704 1.490 . S
C700 H690 0.930 . S
C700 C699 1.400 . S
C700 C703 1.386 . S
H701 C717 0.930 . S
H702 C718 0.931 . S
C703 H691 0.929 . S
C703 C697 1.390 1_556 S
C703 C700 1.386 . S
C704 C699 1.490 . S
C704 C706 1.395 . S
C704 C707 1.403 . S
H705 C711 0.930 . S
C706 H692 0.930 . S
C706 C704 1.395 . S
C706 C709 1.403 . S
C707 C704 1.403 . S
C707 C708 1.524 . S
C707 C711 1.400 . S
C708 H693 0.960 . S
C708 H694 0.960 . S
C708 H695 0.960 . S
C708 C707 1.524 . S
C709 C706 1.403 . S
C709 C710 1.392 . S
C709 C713 1.495 . S
C710 C709 1.392 . S
C710 C711 1.385 . S
C710 C712 1.478 . S
C711 H705 0.930 . S
C711 C707 1.400 . S
C711 C710 1.385 . S
C712 C710 1.478 . S
C712 C714 1.381 . S
C712 C718 1.383 . S
C713 C709 1.495 . S
C713 H719 0.959 . S
C713 H720 0.961 . S
C713 H721 0.960 . S
C714 C712 1.381 . S
C714 C715 1.394 . S
C714 H722 0.930 . S
C715 C714 1.394 . S
C715 C716 1.383 . S
C715 H723 0.929 . S
C716 C715 1.383 . S
C716 C717 1.377 . S
C717 H701 0.930 . S
C717 C716 1.377 . S
C717 C718 1.379 . S
C718 H702 0.931 . S
C718 C712 1.383 . S
C718 C717 1.379 . S
H719 C713 0.959 . S
H720 C713 0.961 . S
H721 C713 0.960 . S
H722 C714 0.930 . S
H723 C715 0.929 . S
H724 C732 0.929 . S
H725 C734 0.930 . S
H726 C736 0.930 . S
H727 C739 0.929 . S
H728 C742 0.930 . S
H729 C744 0.960 . S
H730 C744 0.960 . S
H731 C744 0.960 . S
C732 H724 0.929 . S
C732 C733 1.377 . S
C732 C734 1.384 . S
C733 C732 1.377 . S
C733 C739 1.390 . S
C734 H725 0.930 . S
C734 C732 1.384 . S
C734 C735 1.372 . S
C735 C734 1.372 . S
C735 C736 1.400 . S
C735 C740 1.490 . S
C736 H726 0.930 . S
C736 C735 1.400 . S
C736 C739 1.386 . S
H737 C753 0.930 . S
H738 C754 0.931 1_556 S
C739 H727 0.929 . S
C739 C733 1.390 . S
C739 C736 1.386 . S
C740 C735 1.490 . S
C740 C742 1.395 . S
C740 C743 1.403 . S
H741 C747 0.930 . S
C742 H728 0.930 . S
C742 C740 1.395 . S
C742 C745 1.403 . S
C743 C740 1.403 . S
C743 C744 1.524 . S
C743 C747 1.400 . S
C744 H729 0.960 . S
C744 H730 0.960 . S
C744 H731 0.960 . S
C744 C743 1.524 . S
C745 C742 1.403 . S
C745 C746 1.392 . S
C745 C749 1.495 . S
C746 C745 1.392 . S
C746 C747 1.385 . S
C746 C748 1.478 . S
C747 H741 0.930 . S
C747 C743 1.400 . S
C747 C746 1.385 . S
C748 C746 1.478 . S
C748 C750 1.381 . S
C748 C754 1.383 . S
C749 C745 1.495 . S
C749 H755 0.959 . S
C749 H756 0.961 . S
C749 H757 0.960 . S
C750 C748 1.381 . S
C750 C751 1.394 . S
C750 H758 0.930 . S
C751 C750 1.394 . S
C751 C752 1.383 1_554 S
C751 H759 0.929 . S
C752 C751 1.383 1_556 S
C752 C753 1.377 . S
C753 H737 0.930 . S
C753 C752 1.377 . S
C753 C754 1.379 1_556 S
C754 H738 0.931 1_554 S
C754 C748 1.383 . S
C754 C753 1.379 1_554 S
H755 C749 0.959 . S
H756 C749 0.961 . S
H757 C749 0.960 . S
H758 C750 0.930 . S
H759 C751 0.929 . S
H760 C768 0.929 . S
H761 C770 0.930 . S
H762 C772 0.930 . S
H763 C775 0.929 . S
H764 C778 0.930 . S
H765 C780 0.960 . S
H766 C780 0.960 . S
H767 C780 0.960 . S
C768 H760 0.929 . S
C768 C769 1.377 1_556 S
C768 C770 1.384 . S
C769 C768 1.377 1_554 S
C769 C775 1.390 . S
C770 H761 0.930 . S
C770 C768 1.384 . S
C770 C771 1.372 . S
C771 C770 1.372 . S
C771 C772 1.400 . S
C771 C776 1.490 . S
C772 H762 0.930 . S
C772 C771 1.400 . S
C772 C775 1.386 1_556 S
H773 C789 0.930 . S
H774 C790 0.931 . S
C775 H763 0.929 . S
C775 C769 1.390 . S
C775 C772 1.386 1_554 S
C776 C771 1.490 . S
C776 C778 1.395 . S
C776 C779 1.403 . S
H777 C783 0.930 . S
C778 H764 0.930 . S
C778 C776 1.395 . S
C778 C781 1.403 . S
C779 C776 1.403 . S
C779 C780 1.524 . S
C779 C783 1.400 . S
C780 H765 0.960 . S
C780 H766 0.960 . S
C780 H767 0.960 . S
C780 C779 1.524 . S
C781 C778 1.403 . S
C781 C782 1.392 . S
C781 C785 1.495 . S
C782 C781 1.392 . S
C782 C783 1.385 . S
C782 C784 1.478 . S
C783 H777 0.930 . S
C783 C779 1.400 . S
C783 C782 1.385 . S
C784 C782 1.478 . S
C784 C786 1.381 . S
C784 C790 1.383 . S
C785 C781 1.495 . S
C785 H791 0.959 . S
C785 H792 0.961 . S
C785 H793 0.960 . S
C786 C784 1.381 . S
C786 C787 1.394 . S
C786 H794 0.930 . S
C787 C786 1.394 . S
C787 C788 1.383 . S
C787 H795 0.929 . S
C788 C787 1.383 . S
C788 C789 1.377 . S
C789 H773 0.930 . S
C789 C788 1.377 . S
C789 C790 1.379 . S
C790 H774 0.931 . S
C790 C784 1.383 . S
C790 C789 1.379 . S
H791 C785 0.959 . S
H792 C785 0.961 . S
H793 C785 0.960 . S
H794 C786 0.930 . S
H795 C787 0.929 . S
H796 C804 0.929 . S
H797 C806 0.930 . S
H798 C808 0.930 . S
H799 C811 0.929 . S
H800 C814 0.930 . S
H801 C816 0.960 . S
H802 C816 0.960 . S
H803 C816 0.960 . S
C804 H796 0.929 . S
C804 C805 1.377 . S
C804 C806 1.384 . S
C805 C804 1.377 . S
C805 C811 1.390 . S
C806 H797 0.930 . S
C806 C804 1.384 . S
C806 C807 1.372 . S
C807 C806 1.372 . S
C807 C808 1.400 . S
C807 C812 1.490 . S
C808 H798 0.930 . S
C808 C807 1.400 . S
C808 C811 1.386 . S
H809 C825 0.930 . S
H810 C826 0.931 . S
C811 H799 0.929 . S
C811 C805 1.390 . S
C811 C808 1.386 . S
C812 C807 1.490 . S
C812 C814 1.395 . S
C812 C815 1.403 . S
H813 C819 0.930 . S
C814 H800 0.930 . S
C814 C812 1.395 . S
C814 C817 1.403 . S
C815 C812 1.403 . S
C815 C816 1.524 . S
C815 C819 1.400 . S
C816 H801 0.960 . S
C816 H802 0.960 . S
C816 H803 0.960 . S
C816 C815 1.524 . S
C817 C814 1.403 . S
C817 C818 1.392 . S
C817 C821 1.495 . S
C818 C817 1.392 . S
C818 C819 1.385 . S
C818 C820 1.478 . S
C819 H813 0.930 . S
C819 C815 1.400 . S
C819 C818 1.385 . S
C820 C818 1.478 . S
C820 C822 1.381 . S
C820 C826 1.383 . S
C821 C817 1.495 . S
C821 H827 0.959 . S
C821 H828 0.961 . S
C821 H829 0.960 . S
C822 C820 1.381 . S
C822 C823 1.394 1_554 S
C822 H830 0.930 . S
C823 C822 1.394 1_556 S
C823 C824 1.384 . S
C823 H831 0.929 . S
C824 C823 1.384 . S
C824 C825 1.363 1_556 S
C825 H809 0.930 . S
C825 C824 1.363 1_554 S
C825 C826 1.379 . S
C826 H810 0.931 . S
C826 C820 1.383 . S
C826 C825 1.379 . S
H827 C821 0.959 . S
H828 C821 0.961 . S
H829 C821 0.960 . S
H830 C822 0.930 . S
H831 C823 0.929 . S
H832 C840 0.929 . S
H833 C842 0.930 . S
H834 C844 0.930 . S
H835 C847 0.929 . S
H836 C850 0.930 . S
H837 C852 0.960 . S
H838 C852 0.960 . S
H839 C852 0.960 . S
C840 H832 0.929 . S
C840 C841 1.377 . S
C840 C842 1.384 . S
C841 C840 1.377 . S
C841 C847 1.390 . S
C842 H833 0.930 . S
C842 C840 1.384 . S
C842 C843 1.372 . S
C843 C842 1.372 . S
C843 C844 1.400 . S
C843 C848 1.490 . S
C844 H834 0.930 . S
C844 C843 1.400 . S
C844 C847 1.386 . S
H845 C861 0.930 . S
H846 C862 0.931 . S
C847 H835 0.929 . S
C847 C841 1.390 . S
C847 C844 1.386 . S
C848 C843 1.490 . S
C848 C850 1.395 . S
C848 C851 1.403 . S
H849 C855 0.930 . S
C850 H836 0.930 . S
C850 C848 1.395 . S
C850 C853 1.403 . S
C851 C848 1.403 . S
C851 C852 1.524 . S
C851 C855 1.400 . S
C852 H837 0.960 . S
C852 H838 0.960 . S
C852 H839 0.960 . S
C852 C851 1.524 . S
C853 C850 1.403 . S
C853 C854 1.392 . S
C853 C857 1.495 . S
C854 C853 1.392 . S
C854 C855 1.385 . S
C854 C856 1.478 . S
C855 H849 0.930 . S
C855 C851 1.400 . S
C855 C854 1.385 . S
C856 C854 1.478 . S
C856 C858 1.381 . S
C856 C862 1.383 . S
C857 C853 1.495 . S
C857 H863 0.959 . S
C857 H864 0.961 . S
C857 H865 0.960 . S
C858 C856 1.381 . S
C858 C859 1.394 . S
C858 H866 0.930 . S
C859 C858 1.394 . S
C859 C860 1.383 . S
C859 H867 0.929 . S
C860 C859 1.383 . S
C860 C861 1.377 . S
C861 H845 0.930 . S
C861 C860 1.377 . S
C861 C862 1.379 . S
C862 H846 0.931 . S
C862 C856 1.383 . S
C862 C861 1.379 . S
H863 C857 0.959 . S
H864 C857 0.961 . S
H865 C857 0.960 . S
H866 C858 0.930 . S
H867 C859 0.929 . S
H868 C876 0.929 . S
H869 C878 0.930 . S
H870 C880 0.930 . S
H871 C883 0.929 . S
H872 C886 0.930 . S
H873 C888 0.960 . S
H874 C888 0.960 . S
H875 C888 0.960 . S
C876 H868 0.929 . S
C876 C877 1.377 . S
C876 C878 1.384 . S
C877 C876 1.377 . S
C877 C883 1.390 . S
C878 H869 0.930 . S
C878 C876 1.384 . S
C878 C879 1.372 . S
C879 C878 1.372 . S
C879 C880 1.400 . S
C879 C884 1.490 . S
C880 H870 0.930 . S
C880 C879 1.400 . S
C880 C883 1.386 . S
H881 C897 0.930 . S
H882 C898 0.931 . S
C883 H871 0.929 . S
C883 C877 1.390 . S
C883 C880 1.386 . S
C884 C879 1.490 . S
C884 C886 1.395 . S
C884 C887 1.403 . S
H885 C891 0.930 . S
C886 H872 0.930 . S
C886 C884 1.395 . S
C886 C889 1.403 . S
C887 C884 1.403 . S
C887 C888 1.524 . S
C887 C891 1.400 . S
C888 H873 0.960 . S
C888 H874 0.960 . S
C888 H875 0.960 . S
C888 C887 1.524 . S
C889 C886 1.403 . S
C889 C890 1.392 . S
C889 C893 1.495 . S
C890 C889 1.392 . S
C890 C891 1.385 . S
C890 C892 1.478 . S
C891 H885 0.930 . S
C891 C887 1.400 . S
C891 C890 1.385 . S
C892 C890 1.478 . S
C892 C894 1.381 . S
C892 C898 1.383 . S
C893 C889 1.495 . S
C893 H899 0.959 . S
C893 H900 0.961 . S
C893 H901 0.960 . S
C894 C892 1.381 . S
C894 C895 1.394 . S
C894 H902 0.930 . S
C895 C894 1.394 . S
C895 C896 1.383 . S
C895 H903 0.929 . S
C896 C895 1.383 . S
C896 C897 1.377 . S
C897 H881 0.930 . S
C897 C896 1.377 . S
C897 C898 1.379 . S
C898 H882 0.931 . S
C898 C892 1.383 . S
C898 C897 1.379 . S
H899 C893 0.959 . S
H900 C893 0.961 . S
H901 C893 0.960 . S
H902 C894 0.930 . S
H903 C895 0.929 . S
H904 C912 0.929 . S
H905 C914 0.930 . S
H906 C916 0.930 . S
H907 C919 0.929 . S
H908 C922 0.930 . S
H909 C924 0.960 . S
H910 C924 0.960 . S
H911 C924 0.960 . S
C912 H904 0.929 . S
C912 C913 1.377 . S
C912 C914 1.384 . S
C913 C912 1.377 . S
C913 C919 1.390 . S
C914 H905 0.930 . S
C914 C912 1.384 . S
C914 C915 1.372 . S
C915 C914 1.372 . S
C915 C916 1.400 . S
C915 C920 1.490 . S
C916 H906 0.930 . S
C916 C915 1.400 . S
C916 C919 1.386 . S
H917 C933 0.930 . S
H918 C934 0.931 . S
C919 H907 0.929 . S
C919 C913 1.390 . S
C919 C916 1.386 . S
C920 C915 1.490 . S
C920 C922 1.395 . S
C920 C923 1.403 . S
H921 C927 0.930 . S
C922 H908 0.930 . S
C922 C920 1.395 . S
C922 C925 1.403 . S
C923 C920 1.403 . S
C923 C924 1.524 . S
C923 C927 1.400 . S
C924 H909 0.960 . S
C924 H910 0.960 . S
C924 H911 0.960 . S
C924 C923 1.524 . S
C925 C922 1.403 . S
C925 C926 1.392 . S
C925 C929 1.495 . S
C926 C925 1.392 . S
C926 C927 1.385 . S
C926 C928 1.478 . S
C927 H921 0.930 . S
C927 C923 1.400 . S
C927 C926 1.385 . S
C928 C926 1.478 . S
C928 C930 1.381 . S
C928 C934 1.383 . S
C929 C925 1.495 . S
C929 H935 0.959 . S
C929 H936 0.961 . S
C929 H937 0.960 . S
C930 C928 1.381 . S
C930 C931 1.394 . S
C930 H938 0.930 . S
C931 C930 1.394 . S
C931 C932 1.383 . S
C931 H939 0.929 . S
C932 C931 1.383 . S
C932 C933 1.377 . S
C933 H917 0.930 . S
C933 C932 1.377 . S
C933 C934 1.379 . S
C934 H918 0.931 . S
C934 C928 1.383 . S
C934 C933 1.379 . S
H935 C929 0.959 . S
H936 C929 0.961 . S
H937 C929 0.960 . S
H938 C930 0.930 . S
H939 C931 0.929 . S
H940 C948 0.929 . S
H941 C950 0.930 . S
H942 C952 0.930 . S
H943 C955 0.929 . S
H944 C958 0.930 . S
H945 C960 0.960 . S
H946 C960 0.960 . S
H947 C960 0.960 . S
C948 H940 0.929 . S
C948 C949 1.377 . S
C948 C950 1.384 . S
C949 C948 1.377 . S
C949 C955 1.390 . S
C950 H941 0.930 . S
C950 C948 1.384 . S
C950 C951 1.372 . S
C951 C950 1.372 . S
C951 C952 1.400 . S
C951 C956 1.490 . S
C952 H942 0.930 . S
C952 C951 1.400 . S
C952 C955 1.386 . S
H953 C969 0.930 . S
H954 C970 0.931 . S
C955 H943 0.929 . S
C955 C949 1.390 . S
C955 C952 1.386 . S
C956 C951 1.490 . S
C956 C958 1.395 . S
C956 C959 1.403 . S
H957 C963 0.930 . S
C958 H944 0.930 . S
C958 C956 1.395 . S
C958 C961 1.403 . S
C959 C956 1.403 . S
C959 C960 1.524 . S
C959 C963 1.400 . S
C960 H945 0.960 . S
C960 H946 0.960 . S
C960 H947 0.960 . S
C960 C959 1.524 . S
C961 C958 1.403 . S
C961 C962 1.392 . S
C961 C965 1.495 . S
C962 C961 1.392 . S
C962 C963 1.385 . S
C962 C964 1.478 . S
C963 H957 0.930 . S
C963 C959 1.400 . S
C963 C962 1.385 . S
C964 C962 1.478 . S
C964 C966 1.381 . S
C964 C970 1.383 . S
C965 C961 1.495 . S
C965 H971 0.959 . S
C965 H972 0.961 . S
C965 H973 0.960 . S
C966 C964 1.381 . S
C966 C967 1.394 . S
C966 H974 0.930 . S
C967 C966 1.394 . S
C967 C968 1.383 . S
C967 H975 0.929 . S
C968 C967 1.383 . S
C968 C969 1.377 . S
C969 H953 0.930 . S
C969 C968 1.377 . S
C969 C970 1.379 . S
C970 H954 0.931 . S
C970 C964 1.383 . S
C970 C969 1.379 . S
H971 C965 0.959 . S
H972 C965 0.961 . S
H973 C965 0.960 . S
H974 C966 0.930 . S
H975 C967 0.929 . S
H976 C984 0.929 . S
H977 C986 0.930 . S
H978 C988 0.930 . S
H979 C991 0.929 . S
H980 C994 0.930 . S
H981 C996 0.960 . S
H982 C996 0.960 . S
H983 C996 0.960 . S
C984 H976 0.929 . S
C984 C985 1.377 . S
C984 C986 1.384 . S
C985 C984 1.377 . S
C985 C991 1.390 . S
C986 H977 0.930 . S
C986 C984 1.384 . S
C986 C987 1.372 . S
C987 C986 1.372 . S
C987 C988 1.400 . S
C987 C992 1.490 . S
C988 H978 0.930 . S
C988 C987 1.400 . S
C988 C991 1.386 . S
H989 C1005 0.930 . S
H990 C1006 0.931 . S
C991 H979 0.929 . S
C991 C985 1.390 . S
C991 C988 1.386 . S
C992 C987 1.490 . S
C992 C994 1.395 . S
C992 C995 1.403 . S
H993 C999 0.930 . S
C994 H980 0.930 . S
C994 C992 1.395 . S
C994 C997 1.403 . S
C995 C992 1.403 . S
C995 C996 1.524 . S
C995 C999 1.400 . S
C996 H981 0.960 . S
C996 H982 0.960 . S
C996 H983 0.960 . S
C996 C995 1.524 . S
C997 C994 1.403 . S
C997 C998 1.392 . S
C997 C1001 1.495 . S
C998 C997 1.392 . S
C998 C999 1.385 . S
C998 C1000 1.478 . S
C999 H993 0.930 . S
C999 C995 1.400 . S
C999 C998 1.385 . S
C1000 C998 1.478 . S
C1000 C1002 1.381 . S
C1000 C1006 1.383 . S
C1001 C997 1.495 . S
C1001 H1007 0.959 . S
C1001 H1008 0.961 . S
C1001 H1009 0.960 . S
C1002 C1000 1.381 . S
C1002 C1003 1.394 . S
C1002 H1010 0.930 . S
C1003 C1002 1.394 . S
C1003 C1004 1.383 . S
C1003 H1011 0.929 . S
C1004 C1003 1.383 . S
C1004 C1005 1.377 . S
C1005 H989 0.930 . S
C1005 C1004 1.377 . S
C1005 C1006 1.379 . S
C1006 H990 0.931 . S
C1006 C1000 1.383 . S
C1006 C1005 1.379 . S
H1007 C1001 0.959 . S
H1008 C1001 0.961 . S
H1009 C1001 0.960 . S
H1010 C1002 0.930 . S
H1011 C1003 0.929 . S
H1012 C1020 0.929 . S
H1013 C1022 0.930 . S
H1014 C1024 0.930 . S
H1015 C1027 0.929 . S
H1016 C1030 0.930 . S
H1017 C1032 0.960 . S
H1018 C1032 0.960 . S
H1019 C1032 0.960 . S
C1020 H1012 0.929 . S
C1020 C1021 1.377 . S
C1020 C1022 1.384 . S
C1021 C1020 1.377 . S
C1021 C1027 1.390 . S
C1022 H1013 0.930 . S
C1022 C1020 1.384 . S
C1022 C1023 1.372 . S
C1023 C1022 1.372 . S
C1023 C1024 1.400 . S
C1023 C1028 1.490 . S
C1024 H1014 0.930 . S
C1024 C1023 1.400 . S
C1024 C1027 1.386 . S
H1025 C1041 0.930 . S
H1026 C1042 0.931 . S
C1027 H1015 0.929 . S
C1027 C1021 1.390 . S
C1027 C1024 1.386 . S
C1028 C1023 1.490 . S
C1028 C1030 1.395 . S
C1028 C1031 1.403 . S
H1029 C1035 0.930 . S
C1030 H1016 0.930 . S
C1030 C1028 1.395 . S
C1030 C1033 1.403 . S
C1031 C1028 1.403 . S
C1031 C1032 1.524 . S
C1031 C1035 1.400 . S
C1032 H1017 0.960 . S
C1032 H1018 0.960 . S
C1032 H1019 0.960 . S
C1032 C1031 1.524 . S
C1033 C1030 1.403 . S
C1033 C1034 1.392 . S
C1033 C1037 1.495 . S
C1034 C1033 1.392 . S
C1034 C1035 1.385 . S
C1034 C1036 1.478 . S
C1035 H1029 0.930 . S
C1035 C1031 1.400 . S
C1035 C1034 1.385 . S
C1036 C1034 1.478 . S
C1036 C1038 1.381 . S
C1036 C1042 1.383 . S
C1037 C1033 1.495 . S
C1037 H1043 0.959 . S
C1037 H1044 0.961 . S
C1037 H1045 0.960 . S
C1038 C1036 1.381 . S
C1038 C1039 1.394 . S
C1038 H1046 0.930 . S
C1039 C1038 1.394 . S
C1039 C1040 1.383 . S
C1039 H1047 0.929 . S
C1040 C1039 1.383 . S
C1040 C1041 1.377 . S
C1041 H1025 0.930 . S
C1041 C1040 1.377 . S
C1041 C1042 1.379 . S
C1042 H1026 0.931 . S
C1042 C1036 1.383 . S
C1042 C1041 1.379 . S
H1043 C1037 0.959 . S
H1044 C1037 0.961 . S
H1045 C1037 0.960 . S
H1046 C1038 0.930 . S
H1047 C1039 0.929 . S
H1048 C1056 0.929 . S
H1049 C1058 0.930 . S
H1050 C1060 0.930 . S
H1051 C1063 0.929 . S
H1052 C1066 0.930 . S
H1053 C1068 0.960 . S
H1054 C1068 0.960 . S
H1055 C1068 0.960 . S
C1056 H1048 0.929 . S
C1056 C1057 1.377 . S
C1056 C1058 1.384 . S
C1057 C1056 1.377 . S
C1057 C1063 1.390 . S
C1058 H1049 0.930 . S
C1058 C1056 1.384 . S
C1058 C1059 1.372 . S
C1059 C1058 1.372 . S
C1059 C1060 1.400 . S
C1059 C1064 1.490 . S
C1060 H1050 0.930 . S
C1060 C1059 1.400 . S
C1060 C1063 1.386 . S
H1061 C1077 0.930 . S
H1062 C1078 0.931 . S
C1063 H1051 0.929 . S
C1063 C1057 1.390 . S
C1063 C1060 1.386 . S
C1064 C1059 1.490 . S
C1064 C1066 1.395 . S
C1064 C1067 1.403 . S
H1065 C1071 0.930 . S
C1066 H1052 0.930 . S
C1066 C1064 1.395 . S
C1066 C1069 1.403 . S
C1067 C1064 1.403 . S
C1067 C1068 1.524 . S
C1067 C1071 1.400 . S
C1068 H1053 0.960 . S
C1068 H1054 0.960 . S
C1068 H1055 0.960 . S
C1068 C1067 1.524 . S
C1069 C1066 1.403 . S
C1069 C1070 1.392 . S
C1069 C1073 1.495 . S
C1070 C1069 1.392 . S
C1070 C1071 1.385 . S
C1070 C1072 1.478 . S
C1071 H1065 0.930 . S
C1071 C1067 1.400 . S
C1071 C1070 1.385 . S
C1072 C1070 1.478 . S
C1072 C1074 1.381 . S
C1072 C1078 1.383 . S
C1073 C1069 1.495 . S
C1073 H1079 0.959 . S
C1073 H1080 0.961 . S
C1073 H1081 0.960 . S
C1074 C1072 1.381 . S
C1074 C1075 1.394 . S
C1074 H1082 0.930 . S
C1075 C1074 1.394 . S
C1075 C1076 1.383 . S
C1075 H1083 0.929 . S
C1076 C1075 1.383 . S
C1076 C1077 1.377 . S
C1077 H1061 0.930 . S
C1077 C1076 1.377 . S
C1077 C1078 1.379 . S
C1078 H1062 0.931 . S
C1078 C1072 1.383 . S
C1078 C1077 1.379 . S
H1079 C1073 0.959 . S
H1080 C1073 0.961 . S
H1081 C1073 0.960 . S
H1082 C1074 0.930 . S
H1083 C1075 0.929 . S
H1084 C1092 0.929 . S
H1085 C1094 0.930 . S
H1086 C1096 0.930 . S
H1087 C1099 0.929 . S
H1088 C1102 0.930 . S
H1089 C1104 0.960 . S
H1090 C1104 0.960 . S
H1091 C1104 0.960 . S
C1092 H1084 0.929 . S
C1092 C1093 1.377 . S
C1092 C1094 1.384 . S
C1093 C1092 1.377 . S
C1093 C1099 1.390 . S
C1094 H1085 0.930 . S
C1094 C1092 1.384 . S
C1094 C1095 1.372 . S
C1095 C1094 1.372 . S
C1095 C1096 1.400 . S
C1095 C1100 1.490 . S
C1096 H1086 0.930 . S
C1096 C1095 1.400 . S
C1096 C1099 1.386 . S
H1097 C1113 0.930 . S
H1098 C1114 0.931 . S
C1099 H1087 0.929 . S
C1099 C1093 1.390 . S
C1099 C1096 1.386 . S
C1100 C1095 1.490 . S
C1100 C1102 1.395 . S
C1100 C1103 1.403 . S
H1101 C1107 0.930 . S
C1102 H1088 0.930 . S
C1102 C1100 1.395 . S
C1102 C1105 1.403 . S
C1103 C1100 1.403 . S
C1103 C1104 1.524 . S
C1103 C1107 1.400 . S
C1104 H1089 0.960 . S
C1104 H1090 0.960 . S
C1104 H1091 0.960 . S
C1104 C1103 1.524 . S
C1105 C1102 1.403 . S
C1105 C1106 1.392 . S
C1105 C1109 1.495 . S
C1106 C1105 1.392 . S
C1106 C1107 1.385 . S
C1106 C1108 1.478 . S
C1107 H1101 0.930 . S
C1107 C1103 1.400 . S
C1107 C1106 1.385 . S
C1108 C1106 1.478 . S
C1108 C1110 1.381 . S
C1108 C1114 1.383 . S
C1109 C1105 1.495 . S
C1109 H1115 0.959 . S
C1109 H1116 0.961 . S
C1109 H1117 0.960 . S
C1110 C1108 1.381 . S
C1110 C1111 1.394 . S
C1110 H1118 0.930 . S
C1111 C1110 1.394 . S
C1111 C1112 1.383 . S
C1111 H1119 0.929 . S
C1112 C1111 1.383 . S
C1112 C1113 1.377 . S
C1113 H1097 0.930 . S
C1113 C1112 1.377 . S
C1113 C1114 1.379 . S
C1114 H1098 0.931 . S
C1114 C1108 1.383 . S
C1114 C1113 1.379 . S
H1115 C1109 0.959 . S
H1116 C1109 0.961 . S
H1117 C1109 0.960 . S
H1118 C1110 0.930 . S
H1119 C1111 0.929 . S
H1120 C1128 0.929 . S
H1121 C1130 0.930 . S
H1122 C1132 0.930 . S
H1123 C1135 0.929 . S
H1124 C1138 0.930 . S
H1125 C1140 0.960 . S
H1126 C1140 0.960 . S
H1127 C1140 0.960 . S
C1128 H1120 0.929 . S
C1128 C1129 1.377 1_556 S
C1128 C1130 1.384 . S
C1129 C1128 1.377 1_554 S
C1129 C1135 1.390 . S
C1130 H1121 0.930 . S
C1130 C1128 1.384 . S
C1130 C1131 1.372 . S
C1131 C1130 1.372 . S
C1131 C1132 1.400 . S
C1131 C1136 1.490 . S
C1132 H1122 0.930 . S
C1132 C1131 1.400 . S
C1132 C1135 1.386 1_556 S
H1133 C1149 0.930 . S
H1134 C1150 0.931 . S
C1135 H1123 0.929 . S
C1135 C1129 1.390 . S
C1135 C1132 1.386 1_554 S
C1136 C1131 1.490 . S
C1136 C1138 1.395 . S
C1136 C1139 1.403 . S
H1137 C1143 0.930 . S
C1138 H1124 0.930 . S
C1138 C1136 1.395 . S
C1138 C1141 1.403 . S
C1139 C1136 1.403 . S
C1139 C1140 1.524 . S
C1139 C1143 1.400 . S
C1140 H1125 0.960 . S
C1140 H1126 0.960 . S
C1140 H1127 0.960 . S
C1140 C1139 1.524 . S
C1141 C1138 1.403 . S
C1141 C1142 1.392 . S
C1141 C1145 1.495 . S
C1142 C1141 1.392 . S
C1142 C1143 1.385 . S
C1142 C1144 1.478 . S
C1143 H1137 0.930 . S
C1143 C1139 1.400 . S
C1143 C1142 1.385 . S
C1144 C1142 1.478 . S
C1144 C1146 1.381 . S
C1144 C1150 1.383 . S
C1145 C1141 1.495 . S
C1145 H1151 0.959 . S
C1145 H1152 0.961 . S
C1145 H1153 0.960 . S
C1146 C1144 1.381 . S
C1146 C1147 1.394 . S
C1146 H1154 0.930 . S
C1147 C1146 1.394 . S
C1147 C1148 1.383 . S
C1147 H1155 0.929 . S
C1148 C1147 1.383 . S
C1148 C1149 1.377 . S
C1149 H1133 0.930 . S
C1149 C1148 1.377 . S
C1149 C1150 1.379 . S
C1150 H1134 0.931 . S
C1150 C1144 1.383 . S
C1150 C1149 1.379 . S
H1151 C1145 0.959 . S
H1152 C1145 0.961 . S
H1153 C1145 0.960 . S
H1154 C1146 0.930 . S
H1155 C1147 0.929 . S
H1156 C1164 0.929 . S
H1157 C1166 0.930 . S
H1158 C1168 0.930 . S
H1159 C1171 0.929 . S
H1160 C1174 0.930 . S
H1161 C1176 0.960 . S
H1162 C1176 0.960 . S
H1163 C1176 0.960 . S
C1164 H1156 0.929 . S
C1164 C1165 1.377 . S
C1164 C1166 1.384 . S
C1165 C1164 1.377 . S
C1165 C1171 1.390 . S
C1166 H1157 0.930 . S
C1166 C1164 1.384 . S
C1166 C1167 1.372 . S
C1167 C1166 1.372 . S
C1167 C1168 1.400 . S
C1167 C1172 1.490 . S
C1168 H1158 0.930 . S
C1168 C1167 1.400 . S
C1168 C1171 1.386 . S
H1169 C1185 0.930 . S
H1170 C1186 0.931 . S
C1171 H1159 0.929 . S
C1171 C1165 1.390 . S
C1171 C1168 1.386 . S
C1172 C1167 1.490 . S
C1172 C1174 1.395 . S
C1172 C1175 1.403 . S
H1173 C1179 0.930 . S
C1174 H1160 0.930 . S
C1174 C1172 1.395 . S
C1174 C1177 1.403 . S
C1175 C1172 1.403 . S
C1175 C1176 1.524 . S
C1175 C1179 1.400 . S
C1176 H1161 0.960 . S
C1176 H1162 0.960 . S
C1176 H1163 0.960 . S
C1176 C1175 1.524 . S
C1177 C1174 1.403 . S
C1177 C1178 1.392 . S
C1177 C1181 1.495 . S
C1178 C1177 1.392 . S
C1178 C1179 1.385 . S
C1178 C1180 1.478 . S
C1179 H1173 0.930 . S
C1179 C1175 1.400 . S
C1179 C1178 1.385 . S
C1180 C1178 1.478 . S
C1180 C1182 1.381 . S
C1180 C1186 1.383 . S
C1181 C1177 1.495 . S
C1181 H1187 0.959 . S
C1181 H1188 0.961 . S
C1181 H1189 0.960 . S
C1182 C1180 1.381 . S
C1182 C1183 1.394 . S
C1182 H1190 0.930 . S
C1183 C1182 1.394 . S
C1183 C1184 1.383 1_554 S
C1183 H1191 0.929 . S
C1184 C1183 1.383 1_556 S
C1184 C1185 1.377 . S
C1185 H1169 0.930 . S
C1185 C1184 1.377 . S
C1185 C1186 1.379 1_556 S
C1186 H1170 0.931 . S
C1186 C1180 1.383 . S
C1186 C1185 1.379 1_554 S
H1187 C1181 0.959 . S
H1188 C1181 0.961 . S
H1189 C1181 0.960 . S
H1190 C1182 0.930 . S
H1191 C1183 0.929 . S
H1192 C1200 0.929 . S
H1193 C1202 0.930 . S
H1194 C1204 0.930 . S
H1195 C1207 0.929 . S
H1196 C1210 0.930 . S
H1197 C1212 0.960 . S
H1198 C1212 0.960 . S
H1199 C1212 0.960 . S
C1200 H1192 0.929 . S
C1200 C1201 1.377 1_556 S
C1200 C1202 1.384 . S
C1201 C1200 1.377 1_554 S
C1201 C1207 1.390 . S
C1202 H1193 0.930 . S
C1202 C1200 1.384 . S
C1202 C1203 1.372 . S
C1203 C1202 1.372 . S
C1203 C1204 1.400 . S
C1203 C1208 1.490 . S
C1204 H1194 0.930 . S
C1204 C1203 1.400 . S
C1204 C1207 1.386 1_556 S
H1205 C1221 0.930 . S
H1206 C1222 0.931 . S
C1207 H1195 0.929 . S
C1207 C1201 1.390 . S
C1207 C1204 1.386 1_554 S
C1208 C1203 1.490 . S
C1208 C1210 1.395 . S
C1208 C1211 1.403 . S
H1209 C1215 0.930 . S
C1210 H1196 0.930 . S
C1210 C1208 1.395 . S
C1210 C1213 1.403 . S
C1211 C1208 1.403 . S
C1211 C1212 1.524 . S
C1211 C1215 1.400 . S
C1212 H1197 0.960 . S
C1212 H1198 0.960 . S
C1212 H1199 0.960 . S
C1212 C1211 1.524 . S
C1213 C1210 1.403 . S
C1213 C1214 1.392 . S
C1213 C1217 1.495 . S
C1214 C1213 1.392 . S
C1214 C1215 1.385 . S
C1214 C1216 1.478 . S
C1215 H1209 0.930 . S
C1215 C1211 1.400 . S
C1215 C1214 1.385 . S
C1216 C1214 1.478 . S
C1216 C1218 1.381 . S
C1216 C1222 1.383 . S
C1217 C1213 1.495 . S
C1217 H1223 0.959 . S
C1217 H1224 0.961 . S
C1217 H1225 0.960 . S
C1218 C1216 1.381 . S
C1218 C1219 1.394 . S
C1218 H1226 0.930 . S
C1219 C1218 1.394 . S
C1219 C1220 1.383 . S
C1219 H1227 0.929 . S
C1220 C1219 1.383 . S
C1220 C1221 1.377 . S
C1221 H1205 0.930 . S
C1221 C1220 1.377 . S
C1221 C1222 1.379 . S
C1222 H1206 0.931 . S
C1222 C1216 1.383 . S
C1222 C1221 1.379 . S
H1223 C1217 0.959 . S
H1224 C1217 0.961 . S
H1225 C1217 0.960 . S
H1226 C1218 0.930 . S
H1227 C1219 0.929 . S
H1228 C1236 0.929 . S
H1229 C1238 0.930 . S
H1230 C1240 0.930 . S
H1231 C1243 0.929 . S
H1232 C1246 0.930 . S
H1233 C1248 0.960 . S
H1234 C1248 0.960 . S
H1235 C1248 0.960 . S
C1236 H1228 0.929 . S
C1236 C1237 1.377 . S
C1236 C1238 1.384 . S
C1237 C1236 1.377 . S
C1237 C1243 1.390 . S
C1238 H1229 0.930 . S
C1238 C1236 1.384 . S
C1238 C1239 1.372 . S
C1239 C1238 1.372 . S
C1239 C1240 1.400 . S
C1239 C1244 1.490 . S
C1240 H1230 0.930 . S
C1240 C1239 1.400 . S
C1240 C1243 1.386 . S
H1241 C1257 0.930 . S
H1242 C1258 0.931 . S
C1243 H1231 0.929 . S
C1243 C1237 1.390 . S
C1243 C1240 1.386 . S
C1244 C1239 1.490 . S
C1244 C1246 1.395 . S
C1244 C1247 1.403 . S
H1245 C1251 0.930 . S
C1246 H1232 0.930 . S
C1246 C1244 1.395 . S
C1246 C1249 1.403 . S
C1247 C1244 1.403 . S
C1247 C1248 1.524 . S
C1247 C1251 1.400 . S
C1248 H1233 0.960 . S
C1248 H1234 0.960 . S
C1248 H1235 0.960 . S
C1248 C1247 1.524 . S
C1249 C1246 1.403 . S
C1249 C1250 1.392 . S
C1249 C1253 1.495 . S
C1250 C1249 1.392 . S
C1250 C1251 1.385 . S
C1250 C1252 1.478 . S
C1251 H1245 0.930 . S
C1251 C1247 1.400 . S
C1251 C1250 1.385 . S
C1252 C1250 1.478 . S
C1252 C1254 1.381 1_554 S
C1252 C1258 1.383 . S
C1253 C1249 1.495 . S
C1253 H1259 0.959 . S
C1253 H1260 0.961 . S
C1253 H1261 0.960 . S
C1254 C1252 1.381 1_556 S
C1254 C1255 1.394 . S
C1254 H1262 0.930 . S
C1255 C1254 1.394 . S
C1255 C1256 1.383 . S
C1255 H1263 0.929 . S
C1256 C1255 1.383 . S
C1256 C1257 1.377 1_556 S
C1257 H1241 0.930 . S
C1257 C1256 1.377 1_554 S
C1257 C1258 1.379 . S
C1258 H1242 0.931 . S
C1258 C1252 1.383 . S
C1258 C1257 1.379 . S
H1259 C1253 0.959 . S
H1260 C1253 0.961 . S
H1261 C1253 0.960 . S
H1262 C1254 0.930 . S
H1263 C1255 0.929 . S
H1264 C1272 0.929 . S
H1265 C1274 0.930 . S
H1266 C1276 0.930 . S
H1267 C1279 0.929 . S
H1268 C1282 0.930 . S
H1269 C1284 0.960 . S
H1270 C1284 0.960 . S
H1271 C1284 0.960 . S
C1272 H1264 0.929 . S
C1272 C1273 1.377 . S
C1272 C1274 1.384 . S
C1273 C1272 1.377 . S
C1273 C1279 1.390 . S
C1274 H1265 0.930 . S
C1274 C1272 1.384 . S
C1274 C1275 1.372 . S
C1275 C1274 1.372 . S
C1275 C1276 1.400 . S
C1275 C1280 1.490 . S
C1276 H1266 0.930 . S
C1276 C1275 1.400 . S
C1276 C1279 1.386 . S
H1277 C1293 0.930 . S
H1278 C1294 0.931 . S
C1279 H1267 0.929 . S
C1279 C1273 1.390 . S
C1279 C1276 1.386 . S
C1280 C1275 1.490 . S
C1280 C1282 1.395 . S
C1280 C1283 1.403 . S
H1281 C1287 0.930 . S
C1282 H1268 0.930 . S
C1282 C1280 1.395 . S
C1282 C1285 1.403 . S
C1283 C1280 1.403 . S
C1283 C1284 1.524 . S
C1283 C1287 1.400 . S
C1284 H1269 0.960 . S
C1284 H1270 0.960 . S
C1284 H1271 0.960 . S
C1284 C1283 1.524 . S
C1285 C1282 1.403 . S
C1285 C1286 1.392 . S
C1285 C1289 1.495 . S
C1286 C1285 1.392 . S
C1286 C1287 1.385 . S
C1286 C1288 1.478 . S
C1287 H1281 0.930 . S
C1287 C1283 1.400 . S
C1287 C1286 1.385 . S
C1288 C1286 1.478 . S
C1288 C1290 1.381 . S
C1288 C1294 1.383 . S
C1289 C1285 1.495 . S
C1289 H1295 0.959 . S
C1289 H1296 0.961 . S
C1289 H1297 0.960 . S
C1290 C1288 1.381 . S
C1290 C1291 1.394 . S
C1290 H1298 0.930 . S
C1291 C1290 1.394 . S
C1291 C1292 1.383 . S
C1291 H1299 0.929 . S
C1292 C1291 1.383 . S
C1292 C1293 1.377 . S
C1293 H1277 0.930 . S
C1293 C1292 1.377 . S
C1293 C1294 1.379 . S
C1294 H1278 0.931 . S
C1294 C1288 1.383 . S
C1294 C1293 1.379 . S
H1295 C1289 0.959 . S
H1296 C1289 0.961 . S
H1297 C1289 0.960 . S
H1298 C1290 0.930 . S
H1299 C1291 0.929 . S
H1300 C1308 0.929 . S
H1301 C1310 0.930 . S
H1302 C1312 0.930 . S
H1303 C1315 0.929 . S
H1304 C1318 0.930 . S
H1305 C1320 0.960 . S
H1306 C1320 0.960 . S
H1307 C1320 0.960 . S
C1308 H1300 0.929 . S
C1308 C1309 1.377 . S
C1308 C1310 1.384 . S
C1309 C1308 1.377 . S
C1309 C1315 1.390 . S
C1310 H1301 0.930 . S
C1310 C1308 1.384 . S
C1310 C1311 1.372 . S
C1311 C1310 1.372 . S
C1311 C1312 1.400 . S
C1311 C1316 1.490 . S
C1312 H1302 0.930 . S
C1312 C1311 1.400 . S
C1312 C1315 1.386 . S
H1313 C1329 0.930 . S
H1314 C1330 0.931 . S
C1315 H1303 0.929 . S
C1315 C1309 1.390 . S
C1315 C1312 1.386 . S
C1316 C1311 1.490 . S
C1316 C1318 1.395 . S
C1316 C1319 1.403 . S
H1317 C1323 0.930 . S
C1318 H1304 0.930 . S
C1318 C1316 1.395 . S
C1318 C1321 1.403 . S
C1319 C1316 1.403 . S
C1319 C1320 1.524 . S
C1319 C1323 1.400 . S
C1320 H1305 0.960 . S
C1320 H1306 0.960 . S
C1320 H1307 0.960 . S
C1320 C1319 1.524 . S
C1321 C1318 1.403 . S
C1321 C1322 1.392 . S
C1321 C1325 1.495 . S
C1322 C1321 1.392 . S
C1322 C1323 1.385 . S
C1322 C1324 1.478 . S
C1323 H1317 0.930 . S
C1323 C1319 1.400 . S
C1323 C1322 1.385 . S
C1324 C1322 1.478 . S
C1324 C1326 1.381 . S
C1324 C1330 1.383 . S
C1325 C1321 1.495 . S
C1325 H1331 0.959 . S
C1325 H1332 0.961 . S
C1325 H1333 0.960 . S
C1326 C1324 1.381 . S
C1326 C1327 1.394 . S
C1326 H1334 0.930 . S
C1327 C1326 1.394 . S
C1327 C1328 1.383 . S
C1327 H1335 0.929 . S
C1328 C1327 1.383 . S
C1328 C1329 1.377 . S
C1329 H1313 0.930 . S
C1329 C1328 1.377 . S
C1329 C1330 1.379 . S
C1330 H1314 0.931 . S
C1330 C1324 1.383 . S
C1330 C1329 1.379 . S
H1331 C1325 0.959 . S
H1332 C1325 0.961 . S
H1333 C1325 0.960 . S
H1334 C1326 0.930 . S
H1335 C1327 0.929 . S
H1336 C1344 0.929 . S
H1337 C1346 0.930 . S
H1338 C1348 0.930 . S
H1339 C1351 0.929 . S
H1340 C1354 0.930 . S
H1341 C1356 0.960 . S
H1342 C1356 0.960 . S
H1343 C1356 0.960 . S
C1344 H1336 0.929 . S
C1344 C1345 1.377 . S
C1344 C1346 1.384 . S
C1345 C1344 1.377 . S
C1345 C1351 1.390 . S
C1346 H1337 0.930 . S
C1346 C1344 1.384 . S
C1346 C1347 1.372 . S
C1347 C1346 1.372 . S
C1347 C1348 1.400 . S
C1347 C1352 1.490 . S
C1348 H1338 0.930 . S
C1348 C1347 1.400 . S
C1348 C1351 1.386 . S
H1349 C1365 0.930 . S
H1350 C1366 0.931 . S
C1351 H1339 0.929 . S
C1351 C1345 1.390 . S
C1351 C1348 1.386 . S
C1352 C1347 1.490 . S
C1352 C1354 1.395 . S
C1352 C1355 1.403 . S
H1353 C1359 0.930 . S
C1354 H1340 0.930 . S
C1354 C1352 1.395 . S
C1354 C1357 1.403 . S
C1355 C1352 1.403 . S
C1355 C1356 1.524 . S
C1355 C1359 1.400 . S
C1356 H1341 0.960 . S
C1356 H1342 0.960 . S
C1356 H1343 0.960 . S
C1356 C1355 1.524 . S
C1357 C1354 1.403 . S
C1357 C1358 1.392 . S
C1357 C1361 1.495 . S
C1358 C1357 1.392 . S
C1358 C1359 1.385 . S
C1358 C1360 1.478 . S
C1359 H1353 0.930 . S
C1359 C1355 1.400 . S
C1359 C1358 1.385 . S
C1360 C1358 1.478 . S
C1360 C1362 1.381 . S
C1360 C1366 1.383 . S
C1361 C1357 1.495 . S
C1361 H1367 0.959 . S
C1361 H1368 0.961 . S
C1361 H1369 0.960 . S
C1362 C1360 1.381 . S
C1362 C1363 1.394 . S
C1362 H1370 0.930 . S
C1363 C1362 1.394 . S
C1363 C1364 1.383 . S
C1363 H1371 0.929 . S
C1364 C1363 1.383 . S
C1364 C1365 1.377 . S
C1365 H1349 0.930 . S
C1365 C1364 1.377 . S
C1365 C1366 1.379 . S
C1366 H1350 0.931 . S
C1366 C1360 1.383 . S
C1366 C1365 1.379 . S
H1367 C1361 0.959 . S
H1368 C1361 0.961 . S
H1369 C1361 0.960 . S
H1370 C1362 0.930 . S
H1371 C1363 0.929 . S
H1372 C1380 0.929 . S
H1373 C1382 0.930 . S
H1374 C1384 0.930 . S
H1375 C1387 0.929 . S
H1376 C1390 0.930 . S
H1377 C1392 0.960 . S
H1378 C1392 0.960 . S
H1379 C1392 0.960 . S
C1380 H1372 0.929 . S
C1380 C1381 1.377 . S
C1380 C1382 1.384 . S
C1381 C1380 1.377 . S
C1381 C1387 1.390 . S
C1382 H1373 0.930 . S
C1382 C1380 1.384 . S
C1382 C1383 1.372 . S
C1383 C1382 1.372 . S
C1383 C1384 1.400 . S
C1383 C1388 1.490 . S
C1384 H1374 0.930 . S
C1384 C1383 1.400 . S
C1384 C1387 1.386 . S
H1385 C1401 0.930 . S
H1386 C1402 0.931 . S
C1387 H1375 0.929 . S
C1387 C1381 1.390 . S
C1387 C1384 1.386 . S
C1388 C1383 1.490 . S
C1388 C1390 1.395 . S
C1388 C1391 1.403 . S
H1389 C1395 0.930 . S
C1390 H1376 0.930 . S
C1390 C1388 1.395 . S
C1390 C1393 1.403 . S
C1391 C1388 1.403 . S
C1391 C1392 1.524 . S
C1391 C1395 1.400 . S
C1392 H1377 0.960 . S
C1392 H1378 0.960 . S
C1392 H1379 0.960 . S
C1392 C1391 1.524 . S
C1393 C1390 1.403 . S
C1393 C1394 1.392 . S
C1393 C1397 1.495 . S
C1394 C1393 1.392 . S
C1394 C1395 1.385 . S
C1394 C1396 1.478 . S
C1395 H1389 0.930 . S
C1395 C1391 1.400 . S
C1395 C1394 1.385 . S
C1396 C1394 1.478 . S
C1396 C1398 1.381 . S
C1396 C1402 1.383 . S
C1397 C1393 1.495 . S
C1397 H1403 0.959 . S
C1397 H1404 0.961 . S
C1397 H1405 0.960 . S
C1398 C1396 1.381 . S
C1398 C1399 1.394 . S
C1398 H1406 0.930 . S
C1399 C1398 1.394 . S
C1399 C1400 1.383 . S
C1399 H1407 0.929 . S
C1400 C1399 1.383 . S
C1400 C1401 1.377 . S
C1401 H1385 0.930 . S
C1401 C1400 1.377 . S
C1401 C1402 1.379 . S
C1402 H1386 0.931 . S
C1402 C1396 1.383 . S
C1402 C1401 1.379 . S
H1403 C1397 0.959 . S
H1404 C1397 0.961 . S
H1405 C1397 0.960 . S
H1406 C1398 0.930 . S
H1407 C1399 0.929 . S
H1408 C1416 0.929 . S
H1409 C1418 0.930 1_565 S
H1410 C1420 0.912 1_565 S
H1411 C1423 0.929 . S
H1412 C1426 0.930 . S
H1413 C1428 0.960 . S
H1414 C1428 0.960 . S
H1415 C1428 0.960 . S
C1416 H1408 0.929 . S
C1416 C1417 1.377 . S
C1416 C1418 1.384 . S
C1417 C1416 1.377 . S
C1417 C1423 1.390 . S
C1418 H1409 0.930 1_545 S
C1418 C1416 1.384 . S
C1418 C1419 1.372 1_545 S
C1419 C1418 1.372 1_565 S
C1419 C1420 1.400 1_565 S
C1419 C1424 1.490 . S
C1420 H1410 0.912 1_545 S
C1420 C1419 1.400 1_545 S
C1420 C1423 1.386 . S
H1421 C1437 0.930 . S
H1422 C1438 0.931 . S
C1423 H1411 0.929 . S
C1423 C1417 1.390 . S
C1423 C1420 1.386 . S
C1424 C1419 1.490 . S
C1424 C1426 1.395 . S
C1424 C1427 1.403 . S
H1425 C1431 0.930 . S
C1426 H1412 0.930 . S
C1426 C1424 1.395 . S
C1426 C1429 1.403 . S
C1427 C1424 1.403 . S
C1427 C1428 1.524 . S
C1427 C1431 1.400 . S
C1428 H1413 0.960 . S
C1428 H1414 0.960 . S
C1428 H1415 0.960 . S
C1428 C1427 1.524 . S
C1429 C1426 1.403 . S
C1429 C1430 1.392 . S
C1429 C1433 1.495 . S
C1430 C1429 1.392 . S
C1430 C1431 1.385 . S
C1430 C1432 1.478 . S
C1431 H1425 0.930 . S
C1431 C1427 1.400 . S
C1431 C1430 1.385 . S
C1432 C1430 1.478 . S
C1432 C1434 1.381 . S
C1432 C1438 1.383 . S
C1433 C1429 1.495 . S
C1433 H1439 0.959 . S
C1433 H1440 0.961 . S
C1433 H1441 0.960 . S
C1434 C1432 1.381 . S
C1434 C1435 1.394 . S
C1434 H1442 0.930 . S
C1435 C1434 1.394 . S
C1435 C1436 1.383 . S
C1435 H1443 0.929 . S
C1436 C1435 1.383 . S
C1436 C1437 1.377 . S
C1437 H1421 0.930 . S
C1437 C1436 1.377 . S
C1437 C1438 1.379 . S
C1438 H1422 0.931 . S
C1438 C1432 1.383 . S
C1438 C1437 1.379 . S
H1439 C1433 0.959 . S
H1440 C1433 0.961 . S
H1441 C1433 0.960 . S
H1442 C1434 0.930 . S
H1443 C1435 0.929 . S
H1444 C1452 0.929 . S
H1445 C1454 0.930 . S
H1446 C1456 0.930 . S
H1447 C1459 0.929 . S
H1448 C1462 0.930 . S
H1449 C1464 0.960 . S
H1450 C1464 0.960 . S
H1451 C1464 0.960 . S
C1452 H1444 0.929 . S
C1452 C1453 1.377 . S
C1452 C1454 1.384 . S
C1453 C1452 1.377 . S
C1453 C1459 1.390 . S
C1454 H1445 0.930 . S
C1454 C1452 1.384 . S
C1454 C1455 1.372 . S
C1455 C1454 1.372 . S
C1455 C1456 1.400 . S
C1455 C1460 1.490 . S
C1456 H1446 0.930 . S
C1456 C1455 1.400 . S
C1456 C1459 1.386 . S
H1457 C1473 0.930 . S
H1458 C1474 0.931 . S
C1459 H1447 0.929 . S
C1459 C1453 1.390 . S
C1459 C1456 1.386 . S
C1460 C1455 1.490 . S
C1460 C1462 1.395 . S
C1460 C1463 1.403 . S
H1461 C1467 0.930 . S
C1462 H1448 0.930 . S
C1462 C1460 1.395 . S
C1462 C1465 1.403 . S
C1463 C1460 1.403 . S
C1463 C1464 1.524 . S
C1463 C1467 1.400 . S
C1464 H1449 0.960 . S
C1464 H1450 0.960 . S
C1464 H1451 0.960 . S
C1464 C1463 1.524 . S
C1465 C1462 1.403 . S
C1465 C1466 1.392 . S
C1465 C1469 1.495 . S
C1466 C1465 1.392 . S
C1466 C1467 1.385 . S
C1466 C1468 1.478 . S
C1467 H1461 0.930 . S
C1467 C1463 1.400 . S
C1467 C1466 1.385 . S
C1468 C1466 1.478 . S
C1468 C1470 1.381 . S
C1468 C1474 1.383 1_655 S
C1469 C1465 1.495 . S
C1469 H1475 0.959 . S
C1469 H1476 0.961 . S
C1469 H1477 0.960 . S
C1470 C1468 1.381 . S
C1470 C1471 1.394 1_655 S
C1470 H1478 0.930 . S
C1471 C1470 1.394 1_455 S
C1471 C1472 1.383 . S
C1471 H1479 0.929 . S
C1472 C1471 1.383 . S
C1472 C1473 1.377 . S
C1473 H1457 0.930 . S
C1473 C1472 1.377 . S
C1473 C1474 1.379 . S
C1474 H1458 0.931 . S
C1474 C1468 1.383 1_455 S
C1474 C1473 1.379 . S
H1475 C1469 0.959 . S
H1476 C1469 0.961 . S
H1477 C1469 0.960 . S
H1478 C1470 0.930 . S
H1479 C1471 0.929 . S
H1480 C1488 0.929 . S
H1481 C1490 0.959 . S
H1482 C1492 0.930 . S
H1483 C1495 0.929 . S
H1484 C1498 0.930 . S
H1485 C1500 0.960 . S
H1486 C1500 0.960 . S
H1487 C1500 0.960 . S
C1488 H1480 0.929 . S
C1488 C1489 1.377 . S
C1488 C1490 1.347 1_565 S
C1489 C1488 1.377 . S
C1489 C1495 1.390 . S
C1490 H1481 0.959 . S
C1490 C1488 1.347 1_545 S
C1490 C1491 1.381 . S
C1491 C1490 1.381 . S
C1491 C1492 1.400 1_545 S
C1491 C1496 1.490 . S
C1492 H1482 0.930 . S
C1492 C1491 1.400 1_565 S
C1492 C1495 1.386 . S
H1493 C1509 0.930 . S
H1494 C1510 0.931 . S
C1495 H1483 0.929 . S
C1495 C1489 1.390 . S
C1495 C1492 1.386 . S
C1496 C1491 1.490 . S
C1496 C1498 1.395 . S
C1496 C1499 1.403 . S
H1497 C1503 0.930 . S
C1498 H1484 0.930 . S
C1498 C1496 1.395 . S
C1498 C1501 1.403 . S
C1499 C1496 1.403 . S
C1499 C1500 1.524 . S
C1499 C1503 1.400 . S
C1500 H1485 0.960 . S
C1500 H1486 0.960 . S
C1500 H1487 0.960 . S
C1500 C1499 1.524 . S
C1501 C1498 1.403 . S
C1501 C1502 1.392 . S
C1501 C1505 1.495 . S
C1502 C1501 1.392 . S
C1502 C1503 1.385 . S
C1502 C1504 1.478 . S
C1503 H1497 0.930 . S
C1503 C1499 1.400 . S
C1503 C1502 1.385 . S
C1504 C1502 1.478 . S
C1504 C1506 1.381 . S
C1504 C1510 1.383 . S
C1505 C1501 1.495 . S
C1505 H1511 0.959 . S
C1505 H1512 0.961 . S
C1505 H1513 0.960 . S
C1506 C1504 1.381 . S
C1506 C1507 1.394 . S
C1506 H1514 0.930 . S
C1507 C1506 1.394 . S
C1507 C1508 1.383 . S
C1507 H1515 0.929 . S
C1508 C1507 1.383 . S
C1508 C1509 1.377 . S
C1509 H1493 0.930 . S
C1509 C1508 1.377 . S
C1509 C1510 1.379 . S
C1510 H1494 0.931 . S
C1510 C1504 1.383 . S
C1510 C1509 1.379 . S
H1511 C1505 0.959 . S
H1512 C1505 0.961 . S
H1513 C1505 0.960 . S
H1514 C1506 0.930 . S
H1515 C1507 0.929 . S
H1516 C1524 0.929 . S
H1517 C1526 0.930 . S
H1518 C1528 0.930 . S
H1519 C1531 0.929 . S
H1520 C1534 0.930 . S
H1521 C1536 0.960 . S
H1522 C1536 0.960 . S
H1523 C1536 0.960 . S
C1524 H1516 0.929 . S
C1524 C1525 1.377 . S
C1524 C1526 1.384 . S
C1525 C1524 1.377 . S
C1525 C1531 1.390 . S
C1526 H1517 0.930 . S
C1526 C1524 1.384 . S
C1526 C1527 1.372 . S
C1527 C1526 1.372 . S
C1527 C1528 1.400 . S
C1527 C1532 1.490 . S
C1528 H1518 0.930 . S
C1528 C1527 1.400 . S
C1528 C1531 1.386 . S
H1529 C1545 0.930 . S
H1530 C1546 0.914 1_455 S
C1531 H1519 0.929 . S
C1531 C1525 1.390 . S
C1531 C1528 1.386 . S
C1532 C1527 1.490 . S
C1532 C1534 1.395 . S
C1532 C1535 1.403 . S
H1533 C1539 0.930 . S
C1534 H1520 0.930 . S
C1534 C1532 1.395 . S
C1534 C1537 1.403 . S
C1535 C1532 1.403 . S
C1535 C1536 1.524 . S
C1535 C1539 1.400 . S
C1536 H1521 0.960 . S
C1536 H1522 0.960 . S
C1536 H1523 0.960 . S
C1536 C1535 1.524 . S
C1537 C1534 1.403 . S
C1537 C1538 1.392 . S
C1537 C1541 1.495 . S
C1538 C1537 1.392 . S
C1538 C1539 1.385 . S
C1538 C1540 1.478 . S
C1539 H1533 0.930 . S
C1539 C1535 1.400 . S
C1539 C1538 1.385 . S
C1540 C1538 1.478 . S
C1540 C1542 1.381 1_455 S
C1540 C1546 1.383 1_455 S
C1541 C1537 1.495 . S
C1541 H1547 0.959 . S
C1541 H1548 0.961 . S
C1541 H1549 0.960 . S
C1542 C1540 1.381 1_655 S
C1542 C1543 1.394 . S
C1542 H1550 0.930 1_655 S
C1543 C1542 1.394 . S
C1543 C1544 1.383 . S
C1543 H1551 0.929 . S
C1544 C1543 1.383 . S
C1544 C1545 1.377 . S
C1545 H1529 0.930 . S
C1545 C1544 1.377 . S
C1545 C1546 1.379 . S
C1546 H1530 0.914 1_655 S
C1546 C1540 1.383 1_655 S
C1546 C1545 1.379 . S
H1547 C1541 0.959 . S
H1548 C1541 0.961 . S
H1549 C1541 0.960 . S
H1550 C1542 0.930 1_455 S
H1551 C1543 0.929 . S
H1552 C1560 0.929 . S
H1553 C1562 0.930 . S
H1554 C1564 0.930 . S
H1555 C1567 0.929 . S
H1556 C1570 0.930 . S
H1557 C1572 0.960 . S
H1558 C1572 0.960 . S
H1559 C1572 0.960 1_556 S
C1560 H1552 0.929 . S
C1560 C1561 1.377 1_554 S
C1560 C1562 1.384 . S
C1561 C1560 1.377 1_556 S
C1561 C1567 1.390 . S
C1562 H1553 0.930 . S
C1562 C1560 1.384 . S
C1562 C1563 1.372 1_554 S
C1563 C1562 1.372 1_556 S
C1563 C1564 1.400 . S
C1563 C1568 1.490 1_556 S
C1564 H1554 0.930 . S
C1564 C1563 1.400 . S
C1564 C1567 1.386 . S
H1565 C1581 0.930 . S
H1566 C1582 0.931 1_556 S
C1567 H1555 0.929 . S
C1567 C1561 1.390 . S
C1567 C1564 1.386 . S
C1568 C1563 1.490 1_554 S
C1568 C1570 1.395 . S
C1568 C1571 1.403 . S
H1569 C1575 0.930 . S
C1570 H1556 0.930 . S
C1570 C1568 1.395 . S
C1570 C1573 1.403 . S
C1571 C1568 1.403 . S
C1571 C1572 1.524 . S
C1571 C1575 1.400 . S
C1572 H1557 0.960 . S
C1572 H1558 0.960 . S
C1572 H1559 0.960 1_554 S
C1572 C1571 1.524 . S
C1573 C1570 1.403 . S
C1573 C1574 1.392 . S
C1573 C1577 1.495 . S
C1574 C1573 1.392 . S
C1574 C1575 1.385 . S
C1574 C1576 1.478 . S
C1575 H1569 0.930 . S
C1575 C1571 1.400 . S
C1575 C1574 1.385 . S
C1576 C1574 1.478 . S
C1576 C1578 1.381 . S
C1576 C1582 1.383 . S
C1577 C1573 1.495 . S
C1577 H1583 0.959 . S
C1577 H1584 0.961 . S
C1577 H1585 0.960 . S
C1578 C1576 1.381 . S
C1578 C1579 1.394 . S
C1578 H1586 0.930 . S
C1579 C1578 1.394 . S
C1579 C1580 1.383 . S
C1579 H1587 0.929 . S
C1580 C1579 1.383 . S
C1580 C1581 1.377 . S
C1581 H1565 0.930 . S
C1581 C1580 1.377 . S
C1581 C1582 1.379 . S
C1582 H1566 0.931 1_554 S
C1582 C1576 1.383 . S
C1582 C1581 1.379 . S
H1583 C1577 0.959 . S
H1584 C1577 0.961 . S
H1585 C1577 0.960 . S
H1586 C1578 0.930 . S
H1587 C1579 0.929 . S
H1588 C1596 0.929 . S
H1589 C1598 0.930 . S
H1590 C1600 0.930 . S
H1591 C1603 0.929 . S
H1592 C1606 0.930 . S
H1593 C1608 0.960 . S
H1594 C1608 0.960 . S
H1595 C1608 0.960 . S
C1596 H1588 0.929 . S
C1596 C1597 1.377 . S
C1596 C1598 1.384 1_554 S
C1597 C1596 1.377 . S
C1597 C1603 1.390 . S
C1598 H1589 0.930 . S
C1598 C1596 1.384 1_556 S
C1598 C1599 1.372 1_556 S
C1599 C1598 1.372 1_554 S
C1599 C1600 1.400 . S
C1599 C1604 1.490 1_554 S
C1600 H1590 0.930 . S
C1600 C1599 1.400 . S
C1600 C1603 1.386 . S
H1601 C1617 0.930 . S
H1602 C1618 0.931 . S
C1603 H1591 0.929 . S
C1603 C1597 1.390 . S
C1603 C1600 1.386 . S
C1604 C1599 1.490 1_556 S
C1604 C1606 1.395 . S
C1604 C1607 1.403 1_556 S
H1605 C1611 0.930 . S
C1606 H1592 0.930 . S
C1606 C1604 1.395 . S
C1606 C1609 1.403 . S
C1607 C1604 1.403 1_554 S
C1607 C1608 1.524 . S
C1607 C1611 1.400 . S
C1608 H1593 0.960 . S
C1608 H1594 0.960 . S
C1608 H1595 0.960 . S
C1608 C1607 1.524 . S
C1609 C1606 1.403 . S
C1609 C1610 1.392 . S
C1609 C1613 1.495 . S
C1610 C1609 1.392 . S
C1610 C1611 1.385 1_556 S
C1610 C1612 1.478 . S
C1611 H1605 0.930 . S
C1611 C1607 1.400 . S
C1611 C1610 1.385 1_554 S
C1612 C1610 1.478 . S
C1612 C1614 1.381 . S
C1612 C1618 1.383 . S
C1613 C1609 1.495 . S
C1613 H1619 0.959 . S
C1613 H1620 0.961 . S
C1613 H1621 0.960 . S
C1614 C1612 1.381 . S
C1614 C1615 1.394 . S
C1614 H1622 0.930 . S
C1615 C1614 1.394 . S
C1615 C1616 1.383 . S
C1615 H1623 0.929 . S
C1616 C1615 1.383 . S
C1616 C1617 1.377 . S
C1617 H1601 0.930 . S
C1617 C1616 1.377 . S
C1617 C1618 1.379 . S
C1618 H1602 0.931 . S
C1618 C1612 1.383 . S
C1618 C1617 1.379 . S
H1619 C1613 0.959 . S
H1620 C1613 0.961 . S
H1621 C1613 0.960 . S
H1622 C1614 0.930 . S
H1623 C1615 0.929 . S
H1624 C1632 0.929 . S
H1625 C1634 0.930 1_556 S
H1626 C1636 0.930 . S
H1627 C1639 0.929 . S
H1628 C1642 0.930 . S
H1629 C1644 0.960 . S
H1630 C1644 0.960 . S
H1631 C1644 0.960 . S
C1632 H1624 0.929 . S
C1632 C1633 1.377 . S
C1632 C1634 1.384 . S
C1633 C1632 1.377 . S
C1633 C1639 1.390 . S
C1634 H1625 0.930 1_554 S
C1634 C1632 1.384 . S
C1634 C1635 1.372 . S
C1635 C1634 1.372 . S
C1635 C1636 1.400 . S
C1635 C1640 1.490 . S
C1636 H1626 0.930 . S
C1636 C1635 1.400 . S
C1636 C1639 1.386 . S
H1637 C1653 0.930 1_554 S
H1638 C1654 0.931 . S
C1639 H1627 0.929 . S
C1639 C1633 1.390 . S
C1639 C1636 1.386 . S
C1640 C1635 1.490 . S
C1640 C1642 1.395 1_554 S
C1640 C1643 1.403 . S
H1641 C1647 0.930 . S
C1642 H1628 0.930 . S
C1642 C1640 1.395 1_556 S
C1642 C1645 1.403 . S
C1643 C1640 1.403 . S
C1643 C1644 1.524 . S
C1643 C1647 1.400 . S
C1644 H1629 0.960 . S
C1644 H1630 0.960 . S
C1644 H1631 0.960 . S
C1644 C1643 1.524 . S
C1645 C1642 1.403 . S
C1645 C1646 1.392 . S
C1645 C1649 1.495 . S
C1646 C1645 1.392 . S
C1646 C1647 1.385 1_556 S
C1646 C1648 1.478 . S
C1647 H1641 0.930 . S
C1647 C1643 1.400 . S
C1647 C1646 1.385 1_554 S
C1648 C1646 1.478 . S
C1648 C1650 1.381 . S
C1648 C1654 1.383 1_556 S
C1649 C1645 1.495 . S
C1649 H1655 0.959 . S
C1649 H1656 0.961 . S
C1649 H1657 0.960 . S
C1650 C1648 1.381 . S
C1650 C1651 1.394 . S
C1650 H1658 0.930 . S
C1651 C1650 1.394 . S
C1651 C1652 1.383 . S
C1651 H1659 0.929 . S
C1652 C1651 1.383 . S
C1652 C1653 1.377 . S
C1653 H1637 0.930 1_556 S
C1653 C1652 1.377 . S
C1653 C1654 1.379 1_556 S
C1654 H1638 0.931 . S
C1654 C1648 1.383 1_554 S
C1654 C1653 1.379 1_554 S
H1655 C1649 0.959 . S
H1656 C1649 0.961 . S
H1657 C1649 0.960 . S
H1658 C1650 0.930 . S
H1659 C1651 0.929 . S
H1660 C1668 0.929 . S
H1661 C1670 0.930 . S
H1662 C1672 0.930 . S
H1663 C1675 0.929 . S
H1664 C1678 0.930 . S
H1665 C1680 0.960 . S
H1666 C1680 0.960 . S
H1667 C1680 0.960 . S
C1668 H1660 0.929 . S
C1668 C1669 1.377 1_556 S
C1668 C1670 1.384 . S
C1669 C1668 1.377 1_554 S
C1669 C1675 1.390 . S
C1670 H1661 0.930 . S
C1670 C1668 1.384 . S
C1670 C1671 1.372 1_556 S
C1671 C1670 1.372 1_554 S
C1671 C1672 1.400 . S
C1671 C1676 1.490 1_554 S
C1672 H1662 0.930 . S
C1672 C1671 1.400 . S
C1672 C1675 1.386 . S
H1673 C1689 0.930 . S
H1674 C1690 0.927 1_554 S
C1675 H1663 0.929 . S
C1675 C1669 1.390 . S
C1675 C1672 1.386 . S
C1676 C1671 1.490 1_556 S
C1676 C1678 1.395 . S
C1676 C1679 1.403 1_556 S
H1677 C1683 0.930 1_554 S
C1678 H1664 0.930 . S
C1678 C1676 1.395 . S
C1678 C1681 1.403 . S
C1679 C1676 1.403 1_554 S
C1679 C1680 1.524 . S
C1679 C1683 1.400 1_554 S
C1680 H1665 0.960 . S
C1680 H1666 0.960 . S
C1680 H1667 0.960 . S
C1680 C1679 1.524 . S
C1681 C1678 1.403 . S
C1681 C1682 1.392 . S
C1681 C1685 1.495 . S
C1682 C1681 1.392 . S
C1682 C1683 1.385 . S
C1682 C1684 1.478 . S
C1683 H1677 0.930 1_556 S
C1683 C1679 1.400 1_556 S
C1683 C1682 1.385 . S
C1684 C1682 1.478 . S
C1684 C1686 1.381 . S
C1684 C1690 1.383 . S
C1685 C1681 1.495 . S
C1685 H1691 0.959 . S
C1685 H1692 0.961 . S
C1685 H1693 0.960 . S
C1686 C1684 1.381 . S
C1686 C1687 1.394 . S
C1686 H1694 0.930 . S
C1687 C1686 1.394 . S
C1687 C1688 1.383 . S
C1687 H1695 0.929 . S
C1688 C1687 1.383 . S
C1688 C1689 1.377 . S
C1689 H1673 0.930 . S
C1689 C1688 1.377 . S
C1689 C1690 1.379 . S
C1690 H1674 0.927 1_556 S
C1690 C1684 1.383 . S
C1690 C1689 1.379 . S
H1691 C1685 0.959 . S
H1692 C1685 0.961 . S
H1693 C1685 0.960 . S
H1694 C1686 0.930 . S
H1695 C1687 0.929 . S
H1696 C1704 0.929 . S
H1697 C1706 0.930 . S
H1698 C1708 0.930 . S
H1699 C1711 0.929 . S
H1700 C1714 0.930 . S
H1701 C1716 0.960 . S
H1702 C1716 0.960 . S
H1703 C1716 0.960 . S
C1704 H1696 0.929 . S
C1704 C1705 1.377 . S
C1704 C1706 1.384 . S
C1705 C1704 1.377 . S
C1705 C1711 1.390 . S
C1706 H1697 0.930 . S
C1706 C1704 1.384 . S
C1706 C1707 1.372 . S
C1707 C1706 1.372 . S
C1707 C1708 1.400 . S
C1707 C1712 1.490 . S
C1708 H1698 0.930 . S
C1708 C1707 1.400 . S
C1708 C1711 1.386 . S
H1709 C1725 0.930 . S
H1710 C1726 0.931 . S
C1711 H1699 0.929 . S
C1711 C1705 1.390 . S
C1711 C1708 1.386 . S
C1712 C1707 1.490 . S
C1712 C1714 1.395 . S
C1712 C1715 1.403 . S
H1713 C1719 0.930 . S
C1714 H1700 0.930 . S
C1714 C1712 1.395 . S
C1714 C1717 1.403 . S
C1715 C1712 1.403 . S
C1715 C1716 1.524 . S
C1715 C1719 1.400 . S
C1716 H1701 0.960 . S
C1716 H1702 0.960 . S
C1716 H1703 0.960 . S
C1716 C1715 1.524 . S
C1717 C1714 1.403 . S
C1717 C1718 1.392 . S
C1717 C1721 1.495 . S
C1718 C1717 1.392 . S
C1718 C1719 1.385 . S
C1718 C1720 1.478 . S
C1719 H1713 0.930 . S
C1719 C1715 1.400 . S
C1719 C1718 1.385 . S
C1720 C1718 1.478 . S
C1720 C1722 1.381 . S
C1720 C1726 1.383 . S
C1721 C1717 1.495 . S
C1721 H1727 0.959 . S
C1721 H1728 0.961 . S
C1721 H1729 0.960 . S
C1722 C1720 1.381 . S
C1722 C1723 1.394 . S
C1722 H1730 0.930 . S
C1723 C1722 1.394 . S
C1723 C1724 1.383 . S
C1723 H1731 0.929 . S
C1724 C1723 1.383 . S
C1724 C1725 1.377 . S
C1725 H1709 0.930 . S
C1725 C1724 1.377 . S
C1725 C1726 1.379 . S
C1726 H1710 0.931 . S
C1726 C1720 1.383 . S
C1726 C1725 1.379 . S
H1727 C1721 0.959 . S
H1728 C1721 0.961 . S
H1729 C1721 0.960 . S
H1730 C1722 0.930 . S
H1731 C1723 0.929 . S
H1732 C1740 0.929 . S
H1733 C1742 0.930 . S
H1734 C1744 0.930 . S
H1735 C1747 0.929 . S
H1736 C1750 0.930 . S
H1737 C1752 0.960 . S
H1738 C1752 0.960 . S
H1739 C1752 0.960 . S
C1740 H1732 0.929 . S
C1740 C1741 1.377 . S
C1740 C1742 1.384 . S
C1741 C1740 1.377 . S
C1741 C1747 1.390 . S
C1742 H1733 0.930 . S
C1742 C1740 1.384 . S
C1742 C1743 1.372 . S
C1743 C1742 1.372 . S
C1743 C1744 1.400 . S
C1743 C1748 1.490 . S
C1744 H1734 0.930 . S
C1744 C1743 1.400 . S
C1744 C1747 1.386 . S
H1745 C1761 0.930 . S
H1746 C1762 0.931 . S
C1747 H1735 0.929 . S
C1747 C1741 1.390 . S
C1747 C1744 1.386 . S
C1748 C1743 1.490 . S
C1748 C1750 1.395 . S
C1748 C1751 1.403 . S
H1749 C1755 0.930 . S
C1750 H1736 0.930 . S
C1750 C1748 1.395 . S
C1750 C1753 1.403 . S
C1751 C1748 1.403 . S
C1751 C1752 1.524 . S
C1751 C1755 1.400 . S
C1752 H1737 0.960 . S
C1752 H1738 0.960 . S
C1752 H1739 0.960 . S
C1752 C1751 1.524 . S
C1753 C1750 1.403 . S
C1753 C1754 1.392 . S
C1753 C1757 1.495 . S
C1754 C1753 1.392 . S
C1754 C1755 1.385 . S
C1754 C1756 1.478 . S
C1755 H1749 0.930 . S
C1755 C1751 1.400 . S
C1755 C1754 1.385 . S
C1756 C1754 1.478 . S
C1756 C1758 1.381 . S
C1756 C1762 1.383 . S
C1757 C1753 1.495 . S
C1757 H1763 0.959 . S
C1757 H1764 0.961 . S
C1757 H1765 0.960 . S
C1758 C1756 1.381 . S
C1758 C1759 1.394 . S
C1758 H1766 0.930 . S
C1759 C1758 1.394 . S
C1759 C1760 1.383 . S
C1759 H1767 0.929 . S
C1760 C1759 1.383 . S
C1760 C1761 1.377 . S
C1761 H1745 0.930 . S
C1761 C1760 1.377 . S
C1761 C1762 1.379 . S
C1762 H1746 0.931 . S
C1762 C1756 1.383 . S
C1762 C1761 1.379 . S
H1763 C1757 0.959 . S
H1764 C1757 0.961 . S
H1765 C1757 0.960 . S
H1766 C1758 0.930 . S
H1767 C1759 0.929 . S
H1768 C1776 0.929 . S
H1769 C1778 0.930 . S
H1770 C1780 0.930 . S
H1771 C1783 0.929 . S
H1772 C1786 0.930 . S
H1773 C1788 0.960 . S
H1774 C1788 0.960 . S
H1775 C1788 0.960 . S
C1776 H1768 0.929 . S
C1776 C1777 1.377 . S
C1776 C1778 1.384 . S
C1777 C1776 1.377 . S
C1777 C1783 1.390 . S
C1778 H1769 0.930 . S
C1778 C1776 1.384 . S
C1778 C1779 1.372 . S
C1779 C1778 1.372 . S
C1779 C1780 1.400 . S
C1779 C1784 1.490 . S
C1780 H1770 0.930 . S
C1780 C1779 1.400 . S
C1780 C1783 1.386 . S
H1781 C1797 0.930 . S
H1782 C1798 0.931 . S
C1783 H1771 0.929 . S
C1783 C1777 1.390 . S
C1783 C1780 1.386 . S
C1784 C1779 1.490 . S
C1784 C1786 1.395 . S
C1784 C1787 1.403 . S
H1785 C1791 0.930 . S
C1786 H1772 0.930 . S
C1786 C1784 1.395 . S
C1786 C1789 1.403 . S
C1787 C1784 1.403 . S
C1787 C1788 1.524 . S
C1787 C1791 1.400 . S
C1788 H1773 0.960 . S
C1788 H1774 0.960 . S
C1788 H1775 0.960 . S
C1788 C1787 1.524 . S
C1789 C1786 1.403 . S
C1789 C1790 1.392 . S
C1789 C1793 1.495 . S
C1790 C1789 1.392 . S
C1790 C1791 1.385 . S
C1790 C1792 1.478 . S
C1791 H1785 0.930 . S
C1791 C1787 1.400 . S
C1791 C1790 1.385 . S
C1792 C1790 1.478 . S
C1792 C1794 1.381 . S
C1792 C1798 1.383 . S
C1793 C1789 1.495 . S
C1793 H1799 0.959 . S
C1793 H1800 0.961 . S
C1793 H1801 0.960 . S
C1794 C1792 1.381 . S
C1794 C1795 1.394 . S
C1794 H1802 0.930 . S
C1795 C1794 1.394 . S
C1795 C1796 1.383 . S
C1795 H1803 0.929 . S
C1796 C1795 1.383 . S
C1796 C1797 1.377 . S
C1797 H1781 0.930 . S
C1797 C1796 1.377 . S
C1797 C1798 1.379 . S
C1798 H1782 0.931 . S
C1798 C1792 1.383 . S
C1798 C1797 1.379 . S
H1799 C1793 0.959 . S
H1800 C1793 0.961 . S
H1801 C1793 0.960 . S
H1802 C1794 0.930 . S
H1803 C1795 0.929 . S
H1804 C1812 0.929 . S
H1805 C1814 0.930 . S
H1806 C1816 0.930 . S
H1807 C1819 0.929 . S
H1808 C1822 0.930 . S
H1809 C1824 0.960 . S
H1810 C1824 0.960 . S
H1811 C1824 0.960 . S
C1812 H1804 0.929 . S
C1812 C1813 1.377 . S
C1812 C1814 1.384 . S
C1813 C1812 1.377 . S
C1813 C1819 1.390 . S
C1814 H1805 0.930 . S
C1814 C1812 1.384 . S
C1814 C1815 1.372 . S
C1815 C1814 1.372 . S
C1815 C1816 1.400 . S
C1815 C1820 1.490 . S
C1816 H1806 0.930 . S
C1816 C1815 1.400 . S
C1816 C1819 1.386 . S
H1817 C1833 0.930 . S
H1818 C1834 0.931 . S
C1819 H1807 0.929 . S
C1819 C1813 1.390 . S
C1819 C1816 1.386 . S
C1820 C1815 1.490 . S
C1820 C1822 1.395 . S
C1820 C1823 1.403 . S
H1821 C1827 0.930 . S
C1822 H1808 0.930 . S
C1822 C1820 1.395 . S
C1822 C1825 1.403 . S
C1823 C1820 1.403 . S
C1823 C1824 1.524 . S
C1823 C1827 1.400 . S
C1824 H1809 0.960 . S
C1824 H1810 0.960 . S
C1824 H1811 0.960 . S
C1824 C1823 1.524 . S
C1825 C1822 1.403 . S
C1825 C1826 1.392 . S
C1825 C1829 1.495 . S
C1826 C1825 1.392 . S
C1826 C1827 1.385 . S
C1826 C1828 1.478 . S
C1827 H1821 0.930 . S
C1827 C1823 1.400 . S
C1827 C1826 1.385 . S
C1828 C1826 1.478 . S
C1828 C1830 1.381 . S
C1828 C1834 1.383 . S
C1829 C1825 1.495 . S
C1829 H1835 0.959 . S
C1829 H1836 0.961 . S
C1829 H1837 0.960 . S
C1830 C1828 1.381 . S
C1830 C1831 1.394 . S
C1830 H1838 0.930 . S
C1831 C1830 1.394 . S
C1831 C1832 1.383 . S
C1831 H1839 0.929 . S
C1832 C1831 1.383 . S
C1832 C1833 1.377 . S
C1833 H1817 0.930 . S
C1833 C1832 1.377 . S
C1833 C1834 1.379 . S
C1834 H1818 0.931 . S
C1834 C1828 1.383 . S
C1834 C1833 1.379 . S
H1835 C1829 0.959 . S
H1836 C1829 0.961 . S
H1837 C1829 0.960 . S
H1838 C1830 0.930 . S
H1839 C1831 0.929 . S
H1840 C1848 0.929 . S
H1841 C1850 0.930 . S
H1842 C1852 0.930 . S
H1843 C1855 0.929 . S
H1844 C1858 0.930 . S
H1845 C1860 0.960 . S
H1846 C1860 0.960 . S
H1847 C1860 0.960 . S
C1848 H1840 0.929 . S
C1848 C1849 1.377 . S
C1848 C1850 1.384 . S
C1849 C1848 1.377 . S
C1849 C1855 1.390 . S
C1850 H1841 0.930 . S
C1850 C1848 1.384 . S
C1850 C1851 1.372 . S
C1851 C1850 1.372 . S
C1851 C1852 1.400 . S
C1851 C1856 1.490 . S
C1852 H1842 0.930 . S
C1852 C1851 1.400 . S
C1852 C1855 1.386 . S
H1853 C1869 0.930 . S
H1854 C1870 0.931 . S
C1855 H1843 0.929 . S
C1855 C1849 1.390 . S
C1855 C1852 1.386 . S
C1856 C1851 1.490 . S
C1856 C1858 1.395 . S
C1856 C1859 1.403 . S
H1857 C1863 0.930 . S
C1858 H1844 0.930 . S
C1858 C1856 1.395 . S
C1858 C1861 1.403 . S
C1859 C1856 1.403 . S
C1859 C1860 1.524 . S
C1859 C1863 1.400 . S
C1860 H1845 0.960 . S
C1860 H1846 0.960 . S
C1860 H1847 0.960 . S
C1860 C1859 1.524 . S
C1861 C1858 1.403 . S
C1861 C1862 1.392 . S
C1861 C1865 1.495 . S
C1862 C1861 1.392 . S
C1862 C1863 1.385 . S
C1862 C1864 1.478 . S
C1863 H1857 0.930 . S
C1863 C1859 1.400 . S
C1863 C1862 1.385 . S
C1864 C1862 1.478 . S
C1864 C1866 1.381 1_545 S
C1864 C1870 1.383 1_545 S
C1865 C1861 1.495 . S
C1865 H1871 0.959 . S
C1865 H1872 0.961 . S
C1865 H1873 0.960 . S
C1866 C1864 1.381 1_565 S
C1866 C1867 1.394 . S
C1866 H1874 0.930 1_565 S
C1867 C1866 1.394 . S
C1867 C1868 1.383 . S
C1867 H1875 0.929 . S
C1868 C1867 1.383 . S
C1868 C1869 1.377 . S
C1869 H1853 0.930 . S
C1869 C1868 1.377 . S
C1869 C1870 1.379 . S
C1870 H1854 0.931 . S
C1870 C1864 1.383 1_565 S
C1870 C1869 1.379 . S
H1871 C1865 0.959 . S
H1872 C1865 0.961 . S
H1873 C1865 0.960 . S
H1874 C1866 0.930 1_545 S
H1875 C1867 0.929 . S
H1876 C1884 0.929 . S
H1877 C1886 0.930 . S
H1878 C1888 0.930 . S
H1879 C1891 0.929 . S
H1880 C1894 0.930 . S
H1881 C1896 0.960 . S
H1882 C1896 0.960 . S
H1883 C1896 0.960 . S
C1884 H1876 0.929 . S
C1884 C1885 1.377 . S
C1884 C1886 1.384 . S
C1885 C1884 1.377 . S
C1885 C1891 1.390 . S
C1886 H1877 0.930 . S
C1886 C1884 1.384 . S
C1886 C1887 1.372 . S
C1887 C1886 1.372 . S
C1887 C1888 1.400 . S
C1887 C1892 1.490 . S
C1888 H1878 0.930 . S
C1888 C1887 1.400 . S
C1888 C1891 1.386 . S
H1889 C1905 0.930 . S
H1890 C1906 0.933 1_455 S
C1891 H1879 0.929 . S
C1891 C1885 1.390 . S
C1891 C1888 1.386 . S
C1892 C1887 1.490 . S
C1892 C1894 1.395 . S
C1892 C1895 1.403 . S
H1893 C1899 0.930 . S
C1894 H1880 0.930 . S
C1894 C1892 1.395 . S
C1894 C1897 1.403 . S
C1895 C1892 1.403 . S
C1895 C1896 1.524 . S
C1895 C1899 1.400 . S
C1896 H1881 0.960 . S
C1896 H1882 0.960 . S
C1896 H1883 0.960 . S
C1896 C1895 1.524 . S
C1897 C1894 1.403 . S
C1897 C1898 1.392 . S
C1897 C1901 1.495 . S
C1898 C1897 1.392 . S
C1898 C1899 1.385 . S
C1898 C1900 1.478 . S
C1899 H1893 0.930 . S
C1899 C1895 1.400 . S
C1899 C1898 1.385 . S
C1900 C1898 1.478 . S
C1900 C1902 1.381 1_455 S
C1900 C1906 1.383 1_455 S
C1901 C1897 1.495 . S
C1901 H1907 0.959 . S
C1901 H1908 0.961 . S
C1901 H1909 0.960 . S
C1902 C1900 1.381 1_655 S
C1902 C1903 1.394 . S
C1902 H1910 0.930 . S
C1903 C1902 1.394 . S
C1903 C1904 1.383 . S
C1903 H1911 0.929 . S
C1904 C1903 1.383 . S
C1904 C1905 1.377 . S
C1905 H1889 0.930 . S
C1905 C1904 1.377 . S
C1905 C1906 1.376 . S
C1906 H1890 0.933 1_655 S
C1906 C1900 1.383 1_655 S
C1906 C1905 1.376 . S
H1907 C1901 0.959 . S
H1908 C1901 0.961 . S
H1909 C1901 0.960 . S
H1910 C1902 0.930 . S
H1911 C1903 0.929 . S
H1912 C1920 0.929 . S
H1913 C1922 0.930 . S
H1914 C1924 0.930 . S
H1915 C1927 0.929 . S
H1916 C1930 0.930 . S
H1917 C1932 0.960 . S
H1918 C1932 0.960 . S
H1919 C1932 0.960 . S
C1920 H1912 0.929 . S
C1920 C1921 1.377 . S
C1920 C1922 1.384 . S
C1921 C1920 1.377 . S
C1921 C1927 1.390 . S
C1922 H1913 0.930 . S
C1922 C1920 1.384 . S
C1922 C1923 1.372 . S
C1923 C1922 1.372 . S
C1923 C1924 1.400 . S
C1923 C1928 1.490 . S
C1924 H1914 0.930 . S
C1924 C1923 1.400 . S
C1924 C1927 1.386 . S
H1925 C1941 0.930 . S
H1926 C1942 0.931 . S
C1927 H1915 0.929 . S
C1927 C1921 1.390 . S
C1927 C1924 1.386 . S
C1928 C1923 1.490 . S
C1928 C1930 1.395 . S
C1928 C1931 1.403 . S
H1929 C1935 0.930 . S
C1930 H1916 0.930 . S
C1930 C1928 1.395 . S
C1930 C1933 1.403 . S
C1931 C1928 1.403 . S
C1931 C1932 1.524 . S
C1931 C1935 1.400 . S
C1932 H1917 0.960 . S
C1932 H1918 0.960 . S
C1932 H1919 0.960 . S
C1932 C1931 1.524 . S
C1933 C1930 1.403 . S
C1933 C1934 1.392 . S
C1933 C1937 1.495 . S
C1934 C1933 1.392 . S
C1934 C1935 1.385 . S
C1934 C1936 1.478 . S
C1935 H1929 0.930 . S
C1935 C1931 1.400 . S
C1935 C1934 1.385 . S
C1936 C1934 1.478 . S
C1936 C1938 1.381 1_565 S
C1936 C1942 1.383 . S
C1937 C1933 1.495 . S
C1937 H1943 0.959 . S
C1937 H1944 0.961 . S
C1937 H1945 0.960 . S
C1938 C1936 1.381 1_545 S
C1938 C1939 1.394 . S
C1938 H1946 0.930 . S
C1939 C1938 1.394 . S
C1939 C1940 1.383 . S
C1939 H1947 0.929 . S
C1940 C1939 1.383 . S
C1940 C1941 1.377 . S
C1941 H1925 0.930 . S
C1941 C1940 1.377 . S
C1941 C1942 1.379 1_545 S
C1942 H1926 0.931 . S
C1942 C1936 1.383 . S
C1942 C1941 1.379 1_565 S
H1943 C1937 0.959 . S
H1944 C1937 0.961 . S
H1945 C1937 0.960 . S
H1946 C1938 0.930 . S
H1947 C1939 0.929 . S
H1948 C1956 0.929 . S
H1949 C1958 0.930 . S
H1950 C1960 0.930 1_655 S
H1951 C1963 0.929 . S
H1952 C1966 0.930 . S
H1953 C1968 0.960 . S
H1954 C1968 0.960 . S
H1955 C1968 0.960 . S
C1956 H1948 0.929 . S
C1956 C1957 1.377 . S
C1956 C1958 1.384 . S
C1957 C1956 1.377 . S
C1957 C1963 1.390 . S
C1958 H1949 0.930 . S
C1958 C1956 1.384 . S
C1958 C1959 1.372 1_455 S
C1959 C1958 1.372 1_655 S
C1959 C1960 1.400 1_655 S
C1959 C1964 1.490 . S
C1960 H1950 0.930 1_455 S
C1960 C1959 1.400 1_455 S
C1960 C1963 1.386 . S
H1961 C1977 0.930 . S
H1962 C1978 0.931 . S
C1963 H1951 0.929 . S
C1963 C1957 1.390 . S
C1963 C1960 1.386 . S
C1964 C1959 1.490 . S
C1964 C1966 1.395 . S
C1964 C1967 1.403 . S
H1965 C1971 0.930 . S
C1966 H1952 0.930 . S
C1966 C1964 1.395 . S
C1966 C1969 1.403 . S
C1967 C1964 1.403 . S
C1967 C1968 1.524 . S
C1967 C1971 1.400 . S
C1968 H1953 0.960 . S
C1968 H1954 0.960 . S
C1968 H1955 0.960 . S
C1968 C1967 1.524 . S
C1969 C1966 1.403 . S
C1969 C1970 1.392 . S
C1969 C1973 1.495 . S
C1970 C1969 1.392 . S
C1970 C1971 1.385 . S
C1970 C1972 1.478 . S
C1971 H1965 0.930 . S
C1971 C1967 1.400 . S
C1971 C1970 1.385 . S
C1972 C1970 1.478 . S
C1972 C1974 1.381 . S
C1972 C1978 1.383 . S
C1973 C1969 1.495 . S
C1973 H1979 0.959 . S
C1973 H1980 0.961 . S
C1973 H1981 0.960 . S
C1974 C1972 1.381 . S
C1974 C1975 1.394 . S
C1974 H1982 0.930 . S
C1975 C1974 1.394 . S
C1975 C1976 1.383 . S
C1975 H1983 0.929 . S
C1976 C1975 1.383 . S
C1976 C1977 1.377 . S
C1977 H1961 0.930 . S
C1977 C1976 1.377 . S
C1977 C1978 1.379 . S
C1978 H1962 0.931 . S
C1978 C1972 1.383 . S
C1978 C1977 1.379 . S
H1979 C1973 0.959 . S
H1980 C1973 0.961 . S
H1981 C1973 0.960 . S
H1982 C1974 0.930 . S
H1983 C1975 0.929 . S
C553 C33 0.744 . S
C572 C509 0.767 . S
C589 C543 0.750 . S
C608 C67 0.767 . S
C625 C441 0.741 . S
C644 C101 0.748 . S
C661 C135 0.744 . S
C680 C475 0.743 . S
C697 C169 0.744 . S
C716 C373 0.768 . S
C733 C407 0.745 . S
C752 C203 0.742 . S
C769 C237 0.747 . S
C788 C305 0.722 . S
C805 C339 0.750 . S
C824 C271 0.787 . S
C841 C145 1.041 . S
C860 C9 1.081 . S
C877 C43 1.054 . S
C896 C179 1.095 . S
C913 C77 1.038 . S
C932 C213 1.039 . S
C949 C111 1.055 . S
C968 C247 1.098 . S
C985 C417 1.054 . S
C1004 C281 1.099 . S
C1021 C451 1.057 . S
C1040 C315 1.101 . S
C1057 C349 1.054 . S
C1076 C485 1.099 . S
C1093 C383 1.040 . S
C1112 C519 0.992 . S
C1129 C2 2.007 . S
C1148 C478 2.007 . S
C1165 C512 2.005 . S
C1184 C36 2.009 . S
C1201 C70 2.004 . S
C1220 C410 1.995 . S
C1237 C444 2.007 . S
C1256 C104 1.996 . S
C1273 C342 2.004 . S
C1292 C138 1.995 . S
C1309 C376 2.006 . S
C1328 C172 1.994 . S
C1345 C206 2.004 . S
C1364 C274 1.995 . S
C1381 C240 2.004 . S
C1400 C308 1.999 . S
C1417 C5 1.624 . S
C1436 C394 1.633 . S
C1453 C292 1.632 . S
C1472 C39 1.618 . S
C1489 C73 1.625 . S
C1508 C326 1.634 . S
C1525 C360 1.632 . S
C1544 C107 1.629 . S
C1561 C190 1.633 . S
C1580 C141 1.630 . S
C1597 C224 1.632 . S
C1616 C175 1.619 . S
C1633 C209 1.620 . S
C1652 C258 1.625 . S
C1669 C156 1.632 . S
C1688 C243 1.612 . S
C1705 C122 1.634 . S
C1724 C277 1.631 . S
C1741 C311 1.621 . S
C1760 C20 1.627 . S
C1777 C345 1.624 . S
C1796 C54 1.628 . S
C1813 C88 1.634 . S
C1832 C379 1.613 . S
C1849 C462 1.632 . S
C1868 C413 1.615 . S
C1885 C496 1.633 . S
C1904 C447 1.631 . S
C1921 C530 1.632 . S
C1940 C481 1.610 . S
C1957 C515 1.625 . S
C1976 C428 1.630 . S
