# Generated by pormake.
# Topology ukf, (4)-cn, num edge types: 1
# Building blocks:
#     Node 0, Type 0, BuildingBlock: GALJAG_clean_sbu_0, # of connection points: 4
#     Node 1, Type 0, BuildingBlock: GALJAG_clean_sbu_0, # of connection points: 4
#     Node 2, Type 0, BuildingBlock: GALJAG_clean_sbu_0, # of connection points: 4
#     Node 3, Type 0, BuildingBlock: GALJAG_clean_sbu_0, # of connection points: 4
#     Node 4, Type 0, BuildingBlock: GALJAG_clean_sbu_0, # of connection points: 4
#     Node 5, Type 0, BuildingBlock: GALJAG_clean_sbu_0, # of connection points: 4
#     Node 6, Type 0, BuildingBlock: GALJAG_clean_sbu_0, # of connection points: 4
#     Node 7, Type 0, BuildingBlock: GALJAG_clean_sbu_0, # of connection points: 4
#     Node 8, Type 0, BuildingBlock: GALJAG_clean_sbu_0, # of connection points: 4
#     Node 9, Type 0, BuildingBlock: GALJAG_clean_sbu_0, # of connection points: 4
#     Node 10, Type 0, BuildingBlock: GALJAG_clean_sbu_0, # of connection points: 4
#     Node 11, Type 0, BuildingBlock: GALJAG_clean_sbu_0, # of connection points: 4
#     Edge 12, Type (0, 0), BuildingBlock: CIFDUS_clean_linker_0, # of connection points: 2
#     Edge 13, Type (0, 0), BuildingBlock: CIFDUS_clean_linker_0, # of connection points: 2
#     Edge 14, Type (0, 0), BuildingBlock: CIFDUS_clean_linker_0, # of connection points: 2
#     Edge 15, Type (0, 0), BuildingBlock: CIFDUS_clean_linker_0, # of connection points: 2
#     Edge 16, Type (0, 0), BuildingBlock: CIFDUS_clean_linker_0, # of connection points: 2
#     Edge 17, Type (0, 0), BuildingBlock: CIFDUS_clean_linker_0, # of connection points: 2
#     Edge 18, Type (0, 0), BuildingBlock: CIFDUS_clean_linker_0, # of connection points: 2
#     Edge 19, Type (0, 0), BuildingBlock: CIFDUS_clean_linker_0, # of connection points: 2
#     Edge 20, Type (0, 0), BuildingBlock: CIFDUS_clean_linker_0, # of connection points: 2
#     Edge 21, Type (0, 0), BuildingBlock: CIFDUS_clean_linker_0, # of connection points: 2
#     Edge 22, Type (0, 0), BuildingBlock: CIFDUS_clean_linker_0, # of connection points: 2
#     Edge 23, Type (0, 0), BuildingBlock: CIFDUS_clean_linker_0, # of connection points: 2
#     Edge 24, Type (0, 0), BuildingBlock: CIFDUS_clean_linker_0, # of connection points: 2
#     Edge 25, Type (0, 0), BuildingBlock: CIFDUS_clean_linker_0, # of connection points: 2
#     Edge 26, Type (0, 0), BuildingBlock: CIFDUS_clean_linker_0, # of connection points: 2
#     Edge 27, Type (0, 0), BuildingBlock: CIFDUS_clean_linker_0, # of connection points: 2
#     Edge 28, Type (0, 0), BuildingBlock: CIFDUS_clean_linker_0, # of connection points: 2
#     Edge 29, Type (0, 0), BuildingBlock: CIFDUS_clean_linker_0, # of connection points: 2
#     Edge 30, Type (0, 0), BuildingBlock: CIFDUS_clean_linker_0, # of connection points: 2
#     Edge 31, Type (0, 0), BuildingBlock: CIFDUS_clean_linker_0, # of connection points: 2
#     Edge 32, Type (0, 0), BuildingBlock: CIFDUS_clean_linker_0, # of connection points: 2
#     Edge 33, Type (0, 0), BuildingBlock: CIFDUS_clean_linker_0, # of connection points: 2
#     Edge 34, Type (0, 0), BuildingBlock: CIFDUS_clean_linker_0, # of connection points: 2
#     Edge 35, Type (0, 0), BuildingBlock: CIFDUS_clean_linker_0, # of connection points: 2
# Relax obj value: 0.079
# Max RMSD: 0.071
# Mean RMSD: 0.071
data_MOF--net-ukf--node1-GALJAG_clean_sbu_0--edge1-CIFDUS_clean_linker_0
_symmetry_space_group_name_H-M    P1
_symmetry_Int_Tables_number       1
_symmetry_cell_setting            triclinic
loop_
_symmetry_equiv_pos_as_xyz
'x, y, z'
_cell_length_a     27.607641
_cell_length_b     27.430261
_cell_length_c     59.922543
_cell_angle_alpha  89.858052
_cell_angle_beta   89.933064
_cell_angle_gamma 119.92345
loop_
_atom_site_label
_atom_site_type_symbol
_atom_site_fract_x
_atom_site_fract_y
_atom_site_fract_z
_atom_type_partial_charge
In0 In 0.40854 0.22947 0.0631 0.0
O1 O 0.43663 0.21623 0.09703 0.0
O2 O 0.3619 0.22104 0.09578 0.0
C3 C 0.47946 0.21267 0.03797 0.0
C4 C 0.45419 0.34304 0.06039 0.0
C5 C 0.31668 0.13965 0.0458 0.0
O6 O 0.47736 0.20711 0.05896 0.0
O7 O 0.44598 0.22662 0.02987 0.0
O8 O 0.33558 0.18881 0.03797 0.0
O9 O 0.3419 0.13698 0.06288 0.0
C10 C 0.39658 0.2152 0.10766 0.0
O11 O 0.40241 0.31013 0.05721 0.0
O12 O 0.48125 0.3185 0.06479 0.0
In13 In 0.18659 0.40053 0.39523 0.0
O14 O 0.09529 0.38037 0.39175 0.0
O15 O 0.1587 0.46595 0.39466 0.0
C16 C 0.18151 0.30596 0.37834 0.0
C17 C 0.20125 0.39736 0.43964 0.0
C18 C 0.27105 0.47804 0.37003 0.0
O19 O 0.15917 0.33079 0.36875 0.0
O20 O 0.20219 0.3261 0.3971 0.0
O21 O 0.27136 0.48074 0.39107 0.0
O22 O 0.22821 0.43681 0.36189 0.0
C23 C 0.1073 0.43132 0.39258 0.0
O24 O 0.24145 0.41824 0.42593 0.0
O25 O 0.15337 0.3776 0.43098 0.0
In26 In 0.79005 0.19255 0.72957 0.0
O27 O 0.69956 0.15883 0.71884 0.0
O28 O 0.72006 0.09946 0.73158 0.0
C29 C 0.86211 0.18109 0.7022 0.0
C30 C 0.80966 0.20054 0.77429 0.0
C31 C 0.80986 0.29308 0.71335 0.0
O32 O 0.81311 0.16789 0.69628 0.0
O33 O 0.87327 0.19678 0.72224 0.0
O34 O 0.84606 0.27794 0.71303 0.0
O35 O 0.76476 0.25896 0.72294 0.0
C36 C 0.68238 0.10851 0.72425 0.0
O37 O 0.79311 0.22978 0.76414 0.0
O38 O 0.81696 0.16765 0.76195 0.0
In39 In 0.6038 0.78658 0.06191 0.0
O40 O 0.61407 0.70742 0.05925 0.0
O41 O 0.53347 0.69787 0.05568 0.0
C42 C 0.69833 0.87763 0.04647 0.0
C43 C 0.5997 0.79095 0.10681 0.0
C44 C 0.53741 0.80972 0.03675 0.0
O45 O 0.67899 0.82948 0.03777 0.0
O46 O 0.67256 0.87847 0.06372 0.0
O47 O 0.5374 0.81213 0.05781 0.0
O48 O 0.57088 0.79586 0.02855 0.0
C49 C 0.56235 0.67414 0.05622 0.0
O50 O 0.56116 0.7868 0.09425 0.0
O51 O 0.64133 0.79372 0.09676 0.0
In52 In 0.83454 0.6025 0.39676 0.0
O53 O 0.92774 0.6265 0.39473 0.0
O54 O 0.86572 0.54034 0.39325 0.0
C55 C 0.83179 0.69402 0.38088 0.0
C56 C 0.82085 0.59565 0.44148 0.0
C57 C 0.74994 0.53021 0.37067 0.0
O58 O 0.86148 0.67611 0.37202 0.0
O59 O 0.80689 0.66827 0.39844 0.0
O60 O 0.74449 0.53272 0.3915 0.0
O61 O 0.79803 0.56372 0.36315 0.0
C62 C 0.91702 0.57605 0.39326 0.0
O63 O 0.7909 0.55562 0.42851 0.0
O64 O 0.85783 0.63983 0.43191 0.0
In65 In 0.24004 0.83719 0.72838 0.0
O66 O 0.30986 0.92849 0.72119 0.0
O67 O 0.3329 0.86825 0.73071 0.0
C68 C 0.1444 0.82831 0.71224 0.0
C69 C 0.22601 0.83481 0.77296 0.0
C70 C 0.23592 0.75445 0.70289 0.0
O71 O 0.19179 0.86317 0.70427 0.0
O72 O 0.14583 0.80013 0.72861 0.0
O73 O 0.22844 0.74921 0.72377 0.0
O74 O 0.24533 0.80109 0.69507 0.0
C75 C 0.34904 0.9183 0.72508 0.0
O76 O 0.23394 0.79909 0.76277 0.0
O77 O 0.22539 0.87205 0.76068 0.0
In78 In 0.78379 0.60745 0.61833 0.0
O79 O 0.78909 0.57241 0.58444 0.0
O80 O 0.80054 0.65522 0.58552 0.0
C81 C 0.78353 0.52784 0.64488 0.0
C82 C 0.6758 0.58259 0.61888 0.0
C83 C 0.87716 0.69513 0.63577 0.0
O84 O 0.80646 0.53915 0.62584 0.0
O85 O 0.76089 0.55621 0.65024 0.0
O86 O 0.82916 0.67935 0.6438 0.0
O87 O 0.87733 0.66834 0.61877 0.0
C88 C 0.79871 0.61619 0.57373 0.0
O89 O 0.71548 0.63169 0.62308 0.0
O90 O 0.69104 0.54743 0.61429 0.0
In91 In 0.19493 0.78849 0.95013 0.0
O92 O 0.24119 0.79276 0.91829 0.0
O93 O 0.16635 0.7967 0.91503 0.0
C94 C 0.28163 0.80871 0.97644 0.0
C95 C 0.12408 0.67575 0.95423 0.0
C96 C 0.1895 0.87874 0.96551 0.0
O97 O 0.28645 0.81515 0.95552 0.0
O98 O 0.23322 0.79222 0.98398 0.0
O99 O 0.16113 0.83033 0.97411 0.0
O100 O 0.21682 0.88031 0.94839 0.0
C101 C 0.20699 0.79634 0.90539 0.0
O102 O 0.10596 0.71003 0.95328 0.0
O103 O 0.17642 0.6986 0.95337 0.0
In104 In 0.42093 0.19095 0.28469 0.0
O105 O 0.46297 0.23434 0.2522 0.0
O106 O 0.38213 0.16169 0.25 0.0
C107 C 0.48917 0.27938 0.31009 0.0
C108 C 0.46008 0.11815 0.29008 0.0
C109 C 0.32637 0.18694 0.2999 0.0
O110 O 0.48992 0.28205 0.28902 0.0
O111 O 0.45362 0.23248 0.31821 0.0
O112 O 0.34471 0.15694 0.30832 0.0
O113 O 0.35374 0.21581 0.28326 0.0
C114 C 0.42358 0.2006 0.2398 0.0
O115 O 0.40865 0.1007 0.28693 0.0
O116 O 0.48993 0.17076 0.29081 0.0
In117 In 0.2333 0.41338 0.61706 0.0
O118 O 0.19395 0.42842 0.58619 0.0
O119 O 0.24025 0.38622 0.58168 0.0
C120 C 0.23138 0.4935 0.64244 0.0
C121 C 0.34274 0.44292 0.61843 0.0
C122 C 0.1468 0.32074 0.63618 0.0
O123 O 0.23265 0.49598 0.62137 0.0
O124 O 0.23141 0.45107 0.65051 0.0
O125 O 0.1968 0.34037 0.6424 0.0
O126 O 0.14117 0.34553 0.61951 0.0
C127 C 0.21182 0.40552 0.57278 0.0
O128 O 0.30386 0.39214 0.61913 0.0
O129 O 0.3263 0.47824 0.61709 0.0
In130 In 0.82435 0.23434 0.95199 0.0
O131 O 0.91319 0.31276 0.95526 0.0
O132 O 0.84276 0.32425 0.95479 0.0
C133 C 0.82851 0.14336 0.96766 0.0
C134 C 0.81465 0.22731 0.90714 0.0
C135 C 0.7374 0.21549 0.97804 0.0
O136 O 0.85651 0.1915 0.97637 0.0
O137 O 0.80221 0.14241 0.95033 0.0
O138 O 0.73316 0.20965 0.9571 0.0
O139 O 0.78534 0.23065 0.98573 0.0
C140 C 0.89508 0.34707 0.95582 0.0
O141 O 0.77831 0.22771 0.91983 0.0
O142 O 0.85609 0.22941 0.91707 0.0
In143 In 0.60386 0.82037 0.28396 0.0
O144 O 0.5774 0.78039 0.2497 0.0
O145 O 0.65265 0.85965 0.25178 0.0
C146 C 0.52969 0.73549 0.30975 0.0
C147 C 0.56093 0.8903 0.28558 0.0
C148 C 0.69406 0.81972 0.30139 0.0
O149 O 0.5331 0.72995 0.28895 0.0
O150 O 0.56379 0.7834 0.31733 0.0
O151 O 0.67778 0.85256 0.30859 0.0
O152 O 0.66672 0.79001 0.285 0.0
C153 C 0.61843 0.81983 0.23952 0.0
O154 O 0.61182 0.90762 0.29013 0.0
O155 O 0.53344 0.83921 0.28025 0.0
H156 H 0.17602 0.89343 0.00951 0.0
H157 H 0.22829 0.98227 0.94679 0.0
H158 H 0.2645 0.07211 0.96616 0.0
H159 H 0.2939 0.12581 1.00129 0.0
H160 H 0.24921 0.03662 0.06404 0.0
H161 H 0.19697 0.94708 0.04447 0.0
C162 C 0.19387 0.93237 1.00004 0.0
C163 C 0.1994 0.93113 0.97673 0.0
C164 C 0.2167 0.9841 0.0114 0.0
C165 C 0.22351 0.98206 0.96474 0.0
C166 C 0.24452 0.03352 0.97583 0.0
C167 C 0.27133 0.08688 0.01067 0.0
C168 C 0.27535 0.08787 0.03409 0.0
C169 C 0.2432 0.0352 0.99922 0.0
C170 C 0.24673 0.03697 0.046 0.0
C171 C 0.21707 0.98569 0.0348 0.0
H172 H 0.17869 0.28654 0.33376 0.0
H173 H 0.21452 0.23657 0.39708 0.0
H174 H 0.25508 0.18664 0.37795 0.0
H175 H 0.29309 0.16955 0.34344 0.0
H176 H 0.26411 0.22683 0.28045 0.0
H177 H 0.20774 0.26063 0.29906 0.0
C178 C 0.19392 0.26337 0.34335 0.0
C179 C 0.19364 0.26537 0.36682 0.0
C180 C 0.21921 0.23658 0.33224 0.0
C181 C 0.21425 0.23573 0.379 0.0
C182 C 0.23778 0.20742 0.36806 0.0
C183 C 0.27311 0.18801 0.33374 0.0
C184 C 0.28285 0.19574 0.31059 0.0
C185 C 0.24239 0.20932 0.3447 0.0
C186 C 0.25735 0.22049 0.29829 0.0
C187 C 0.22528 0.24007 0.30894 0.0
H188 H 0.96708 0.20119 0.71131 0.0
H189 H 0.85705 0.1816 0.65675 0.0
H190 H 0.93543 0.21684 0.63063 0.0
H191 H 0.03717 0.26612 0.62426 0.0
H192 H 0.14725 0.28558 0.67877 0.0
H193 H 0.06702 0.23673 0.70379 0.0
C194 C 0.96004 0.20338 0.69362 0.0
C195 C 0.90638 0.18941 0.68605 0.0
C196 C 1.0055 0.22425 0.67869 0.0
C197 C 0.89788 0.19212 0.66306 0.0
C198 C 0.94282 0.21268 0.6481 0.0
C199 C 0.0435 0.25851 0.64149 0.0
C200 C 0.09819 0.28009 0.64969 0.0
C201 C 0.99713 0.23082 0.65586 0.0
C202 C 0.10566 0.26952 0.67202 0.0
C203 C 0.05976 0.2419 0.6864 0.0
H204 H 0.72449 0.89462 1.00224 0.0
H205 H 0.76315 0.98008 0.06554 0.0
H206 H 0.81553 0.0709 0.04658 0.0
H207 H 0.83845 0.12652 0.01185 0.0
H208 H 0.79217 0.04098 0.94857 0.0
H209 H 0.75566 0.95027 0.9675 0.0
C210 C 0.74577 0.93303 0.01189 0.0
C211 C 0.74 0.93054 0.03528 0.0
C212 C 0.77397 0.98539 1.00079 0.0
C213 C 0.76699 0.98082 0.04753 0.0
C214 C 0.79672 0.03285 0.03667 0.0
C215 C 0.82182 0.08813 1.00218 0.0
C216 C 0.81812 0.09056 0.97881 0.0
C217 C 0.79882 0.0358 0.01328 0.0
C218 C 0.79554 0.0403 0.96656 0.0
C219 C 0.77437 0.98832 0.9774 0.0
H220 H 0.71855 0.8294 0.34573 0.0
H221 H 0.76104 0.78476 0.28273 0.0
H222 H 0.81586 0.74987 0.30193 0.0
H223 H 0.84068 0.72001 0.33673 0.0
H224 H 0.79016 0.75579 0.39984 0.0
H225 H 0.75046 0.80666 0.38069 0.0
C226 C 0.74114 0.81347 0.33623 0.0
C227 C 0.73596 0.80985 0.31285 0.0
C228 C 0.77068 0.79119 0.34748 0.0
C229 C 0.76448 0.78804 0.30074 0.0
C230 C 0.79563 0.76784 0.31172 0.0
C231 C 0.82232 0.74025 0.34632 0.0
C232 C 0.81849 0.73422 0.36968 0.0
C233 C 0.79748 0.76743 0.33511 0.0
C234 C 0.79368 0.75987 0.38184 0.0
C235 C 0.77071 0.78874 0.37088 0.0
H236 H 0.89528 0.71812 0.68005 0.0
H237 H 0.97785 0.76116 0.61605 0.0
H238 H 0.06867 0.8146 0.63428 0.0
H239 H 0.12533 0.83827 0.66846 0.0
H240 H 0.04305 0.78628 0.73235 0.0
H241 H 0.95186 0.74805 0.71434 0.0
C242 C 0.93309 0.74049 0.67014 0.0
C243 C 0.92995 0.73594 0.64676 0.0
C244 C 0.98543 0.76909 0.68079 0.0
C245 C 0.9793 0.76416 0.63409 0.0
C246 C 0.03126 0.79452 0.64451 0.0
C247 C 0.08744 0.81987 0.67844 0.0
C248 C 0.09083 0.81522 0.70168 0.0
C249 C 0.03502 0.79576 0.66786 0.0
C250 C 0.04142 0.79032 0.71442 0.0
C251 C 0.98925 0.76825 0.70412 0.0
H252 H 0.63863 0.20426 0.96483 0.0
H253 H 0.73266 0.21155 0.02343 0.0
H254 H 0.6588 0.20704 0.04736 0.0
H255 H 0.57018 0.20693 0.05153 0.0
H256 H 0.47871 0.20447 0.9928 0.0
H257 H 0.54867 0.20084 0.96901 0.0
C258 C 0.64264 0.20429 0.98284 0.0
C259 C 0.69094 0.20841 0.99237 0.0
C260 C 0.60061 0.20282 0.99646 0.0
C261 C 0.69585 0.20866 0.01572 0.0
C262 C 0.65369 0.20611 0.0294 0.0
C263 C 0.56537 0.20502 0.03354 0.0
C264 C 0.51962 0.20617 0.0239 0.0
C265 C 0.6063 0.20407 0.01995 0.0
C266 C 0.51386 0.20395 1.00058 0.0
C267 C 0.55379 0.20188 0.98697 0.0
H268 H 0.36321 0.57405 0.38328 0.0
H269 H 0.281 0.47548 0.32494 0.0
H270 H 0.35515 0.54523 0.30114 0.0
H271 H 0.44203 0.6356 0.29677 0.0
H272 H 0.52298 0.73526 0.35502 0.0
H273 H 0.4509 0.66364 0.37897 0.0
C274 C 0.36168 0.56781 0.36537 0.0
C275 C 0.31671 0.51986 0.35588 0.0
C276 C 0.40422 0.60826 0.35176 0.0
C277 C 0.31516 0.51223 0.33264 0.0
C278 C 0.35754 0.55204 0.31902 0.0
C279 C 0.44404 0.64138 0.31472 0.0
C280 C 0.48763 0.69056 0.32412 0.0
C281 C 0.4021 0.60038 0.32837 0.0
C282 C 0.48967 0.69773 0.34738 0.0
C283 C 0.44848 0.65685 0.36109 0.0
H284 H 0.74265 0.33886 0.71468 0.0
H285 H 0.89223 0.35772 0.68371 0.0
H286 H 0.89719 0.4318 0.65944 0.0
H287 H 0.8562 0.48817 0.64574 0.0
H288 H 0.70897 0.4718 0.67792 0.0
H289 H 0.70563 0.39963 0.70286 0.0
C290 C 0.77667 0.35967 0.7028 0.0
C291 C 0.81685 0.34275 0.70093 0.0
C292 C 0.77929 0.40221 0.68892 0.0
C293 C 0.86086 0.37017 0.68552 0.0
C294 C 0.86353 0.41227 0.67153 0.0
C295 C 0.82343 0.46864 0.65821 0.0
C296 C 0.78256 0.48468 0.65988 0.0
C297 C 0.82245 0.42799 0.67282 0.0
C298 C 0.7408 0.45991 0.67632 0.0
C299 C 0.73887 0.41871 0.69058 0.0
H300 H 0.38209 0.82361 0.96348 0.0
H301 H 0.28445 0.81029 0.02183 0.0
H302 H 0.3578 0.81457 0.04592 0.0
H303 H 0.44643 0.815 0.05022 0.0
H304 H 0.54155 0.82324 0.99171 0.0
H305 H 0.47268 0.82852 0.96784 0.0
C306 C 0.3772 0.82228 0.98147 0.0
C307 C 0.32797 0.81635 0.99089 0.0
C308 C 0.41894 0.82358 0.99517 0.0
C309 C 0.32197 0.81452 0.01421 0.0
C310 C 0.36383 0.81694 0.02799 0.0
C311 C 0.45235 0.81866 0.03226 0.0
C312 C 0.49869 0.81847 0.0227 0.0
C313 C 0.41201 0.82041 0.01863 0.0
C314 C 0.50591 0.82298 0.99943 0.0
C315 C 0.46658 0.82595 0.98577 0.0
H316 H 0.58402 0.37261 0.29679 0.0
H317 H 0.48498 0.28925 0.35511 0.0
H318 H 0.55587 0.36153 0.37904 0.0
H319 H 0.64837 0.44532 0.38353 0.0
H320 H 0.74923 0.52618 0.3253 0.0
H321 H 0.67526 0.45804 0.30119 0.0
C322 C 0.57773 0.3707 0.31472 0.0
C323 C 0.52953 0.32578 0.3242 0.0
C324 C 0.61916 0.41166 0.3284 0.0
C325 C 0.52194 0.32345 0.34745 0.0
C326 C 0.56245 0.36466 0.36114 0.0
C327 C 0.65395 0.44818 0.36555 0.0
C328 C 0.70416 0.49045 0.3562 0.0
C329 C 0.61161 0.40844 0.35182 0.0
C330 C 0.71098 0.49373 0.3329 0.0
C331 C 0.66872 0.45486 0.3191 0.0
H332 H 0.23872 0.59184 0.6293 0.0
H333 H 0.22163 0.49192 0.68766 0.0
H334 H 0.22049 0.56328 0.71155 0.0
H335 H 0.22532 0.65463 0.71594 0.0
H336 H 0.2439 0.7552 0.65762 0.0
H337 H 0.2434 0.6831 0.63369 0.0
C338 C 0.23465 0.5857 0.64724 0.0
C339 C 0.23028 0.53676 0.65669 0.0
C340 C 0.23432 0.62703 0.66091 0.0
C341 C 0.22515 0.52935 0.67997 0.0
C342 C 0.22447 0.5701 0.69366 0.0
C343 C 0.22911 0.66064 0.69799 0.0
C344 C 0.23462 0.71009 0.68857 0.0
C345 C 0.22915 0.61917 0.68432 0.0
C346 C 0.23966 0.71745 0.66529 0.0
C347 C 0.23938 0.67627 0.65158 0.0
H348 H 0.48001 0.24249 0.13715 0.0
H349 H 0.30167 0.17296 0.13298 0.0
H350 H 0.29354 0.15976 0.17358 0.0
H351 H 0.33778 0.1684 0.21041 0.0
H352 H 0.51713 0.24586 0.21434 0.0
H353 H 0.52439 0.2555 0.17375 0.0
C354 C 0.43937 0.22434 0.14516 0.0
C355 C 0.39145 0.20829 0.13216 0.0
C356 C 0.43529 0.21831 0.16846 0.0
C357 C 0.33913 0.18564 0.1427 0.0
C358 C 0.33448 0.17799 0.16588 0.0
C359 C 0.37832 0.18719 0.20229 0.0
C360 C 0.42684 0.20604 0.21525 0.0
C361 C 0.38231 0.19414 0.17895 0.0
C362 C 0.47924 0.23111 0.20466 0.0
C363 C 0.48342 0.23656 0.18148 0.0
H364 H 0.13411 0.39651 0.47297 0.0
H365 H 0.28842 0.39737 0.46064 0.0
H366 H 0.30402 0.39708 0.50081 0.0
H367 H 0.27457 0.39831 0.53951 0.0
H368 H 0.12475 0.40619 0.55183 0.0
H369 H 0.10647 0.40134 0.5117 0.0
C370 C 0.17096 0.39633 0.47914 0.0
C371 C 0.20988 0.39654 0.46393 0.0
C372 C 0.18047 0.39788 0.50225 0.0
C373 C 0.25791 0.39722 0.47206 0.0
C374 C 0.26681 0.397 0.49501 0.0
C375 C 0.23781 0.39868 0.53337 0.0
C376 C 0.20083 0.40219 0.54855 0.0
C377 C 0.22849 0.39755 0.51026 0.0
C378 C 0.15381 0.40353 0.54042 0.0
C379 C 0.14331 0.40068 0.5175 0.0
H380 H 0.86527 0.19413 0.87635 0.0
H381 H 0.75153 0.2582 0.88288 0.0
H382 H 0.74195 0.25797 0.8424 0.0
H383 H 0.76483 0.23864 0.80508 0.0
H384 H 0.87274 0.16787 0.79824 0.0
H385 H 0.88577 0.17163 0.83876 0.0
C386 C 0.83853 0.20811 0.86885 0.0
C387 C 0.8093 0.22632 0.88257 0.0
C388 C 0.83216 0.20665 0.8455 0.0
C389 C 0.77432 0.2438 0.87268 0.0
C390 C 0.7689 0.24382 0.84953 0.0
C391 C 0.79141 0.22431 0.81248 0.0
C392 C 0.81811 0.2034 0.79872 0.0
C393 C 0.7975 0.22524 0.83577 0.0
C394 C 0.85178 0.18419 0.80852 0.0
C395 C 0.85925 0.18636 0.83167 0.0
H396 H 0.68382 0.84034 0.13725 0.0
H397 H 0.50455 0.74138 0.13129 0.0
H398 H 0.49468 0.73964 0.17183 0.0
H399 H 0.53672 0.76686 0.20901 0.0
H400 H 0.7151 0.87296 0.21528 0.0
H401 H 0.72582 0.87154 0.1747 0.0
C402 C 0.64272 0.81832 0.14491 0.0
C403 C 0.59499 0.79073 0.13138 0.0
C404 C 0.63725 0.8189 0.16827 0.0
C405 C 0.54187 0.76299 0.1414 0.0
C406 C 0.53619 0.76189 0.16457 0.0
C407 C 0.57793 0.7895 0.20146 0.0
C408 C 0.6251 0.81958 0.21505 0.0
C409 C 0.58353 0.78977 0.17816 0.0
C410 C 0.67819 0.84951 0.2051 0.0
C411 C 0.68432 0.84861 0.18193 0.0
H412 H 0.76792 0.53231 0.54347 0.0
H413 H 0.84941 0.71282 0.54927 0.0
H414 H 0.86527 0.7228 0.50895 0.0
H415 H 0.85546 0.68005 0.47187 0.0
H416 H 0.76837 0.49933 0.46592 0.0
H417 H 0.75523 0.48954 0.50634 0.0
C418 C 0.78926 0.57379 0.53588 0.0
C419 C 0.80771 0.62174 0.54931 0.0
C420 C 0.79718 0.57916 0.51263 0.0
C421 C 0.83473 0.67524 0.53926 0.0
C422 C 0.8439 0.68099 0.51621 0.0
C423 C 0.83376 0.6386 0.47947 0.0
C424 C 0.81316 0.59051 0.46597 0.0
C425 C 0.82527 0.63325 0.50271 0.0
C426 C 0.78455 0.53701 0.47597 0.0
C427 C 0.77708 0.53136 0.49909 0.0
H428 H 0.16899 0.84287 0.87472 0.0
H429 H 0.26139 0.75503 0.88131 0.0
H430 H 0.27404 0.75769 0.8409 0.0
H431 H 0.25948 0.78541 0.80366 0.0
H432 H 0.17386 0.87991 0.79691 0.0
H433 H 0.15803 0.87451 0.8373 0.0
C434 C 0.1917 0.82422 0.86723 0.0
C435 C 0.21394 0.7985 0.8809 0.0
C436 C 0.20016 0.82727 0.84397 0.0
C437 C 0.24396 0.77514 0.8711 0.0
C438 C 0.25116 0.77656 0.848 0.0
C439 C 0.2373 0.80473 0.81106 0.0
C440 C 0.21757 0.83271 0.79738 0.0
C441 C 0.22956 0.80259 0.83428 0.0
C442 C 0.18952 0.85822 0.80716 0.0
C443 C 0.18034 0.85501 0.83022 0.0
H444 H 0.60996 0.60808 0.06258 0.0
H445 H 0.45404 0.60016 0.04626 0.0
H446 H 0.40666 0.49777 0.04573 0.0
H447 H 0.40826 0.40938 0.05102 0.0
H448 H 0.56407 0.4173 0.06756 0.0
H449 H 0.61208 0.51969 0.06687 0.0
C450 C 0.56576 0.58392 0.05873 0.0
C451 C 0.53577 0.61196 0.0545 0.0
C452 C 0.53835 0.5246 0.05861 0.0
C453 C 0.47833 0.57984 0.04963 0.0
C454 C 0.451 0.5211 0.04935 0.0
C455 C 0.4527 0.43355 0.05442 0.0
C456 C 0.48228 0.40547 0.0594 0.0
C457 C 0.48038 0.49287 0.05402 0.0
C458 C 0.54002 0.43761 0.06372 0.0
C459 C 0.5677 0.49637 0.06332 0.0
H460 H 0.90001 0.47005 0.38996 0.0
H461 H 0.03104 0.64335 0.39465 0.0
H462 H 0.10142 0.61378 0.3945 0.0
H463 H 0.12542 0.53838 0.3938 0.0
H464 H 0.99388 0.36521 0.38928 0.0
H465 H 0.92393 0.39509 0.38859 0.0
C466 C 0.94399 0.50147 0.39087 0.0
C467 C 0.96023 0.55892 0.39234 0.0
C468 C 0.98407 0.48412 0.39086 0.0
C469 C 0.0174 0.59894 0.3935 0.0
C470 C 0.05762 0.582 0.39345 0.0
C471 C 0.08144 0.50715 0.39261 0.0
C472 C 0.06491 0.44953 0.39163 0.0
C473 C 0.04142 0.52468 0.39226 0.0
C474 C 1.00776 0.40972 0.39007 0.0
C475 C 0.96774 0.42681 0.38968 0.0
H476 H 0.59484 0.12371 0.71412 0.0
H477 H 0.63476 0.99632 0.73367 0.0
H478 H 0.53517 0.9264 0.73532 0.0
H479 H 0.43697 0.90215 0.7323 0.0
H480 H 0.39655 0.02957 0.71341 0.0
H481 H 0.49627 0.09896 0.71049 0.0
C482 C 0.58178 0.08053 0.71857 0.0
C483 C 0.62225 0.06521 0.72372 0.0
C484 C 0.52441 0.04073 0.71976 0.0
C485 C 0.60456 0.00919 0.72959 0.0
C486 C 0.5476 0.96924 0.73059 0.0
C487 C 0.4499 0.9451 0.72752 0.0
C488 C 0.40929 0.9607 0.72314 0.0
C489 C 0.50719 0.98466 0.72592 0.0
C490 C 0.42687 0.01649 0.71692 0.0
C491 C 0.48389 0.05614 0.71522 0.0
H492 H 0.58664 0.47728 0.61634 0.0
H493 H 0.63029 0.65106 0.62292 0.0
H494 H 0.53097 0.62309 0.62341 0.0
H495 H 0.43172 0.54905 0.62162 0.0
H496 H 0.38888 0.37526 0.61595 0.0
H497 H 0.48801 0.40346 0.6155 0.0
C498 C 0.5745 0.50913 0.61787 0.0
C499 C 0.61586 0.56627 0.61949 0.0
C500 C 0.51747 0.49268 0.61832 0.0
C501 C 0.59933 0.60686 0.62163 0.0
C502 C 0.54255 0.59085 0.62189 0.0
C503 C 0.44409 0.51734 0.62031 0.0
C504 C 0.4029 0.46008 0.61875 0.0
C505 C 0.50125 0.53388 0.6202 0.0
C506 C 0.41965 0.41954 0.61718 0.0
C507 C 0.47635 0.43566 0.61689 0.0
H508 H 1.00966 0.61284 0.95606 0.0
H509 H 0.1584 0.59864 0.95538 0.0
H510 H 0.10177 0.49645 0.95634 0.0
H511 H 1.00954 0.41002 0.95647 0.0
H512 H 0.86078 0.42419 0.95725 0.0
H513 H 0.91744 0.52641 0.95724 0.0
C514 C 0.02959 0.58735 0.95621 0.0
C515 C 0.08821 0.61358 0.95559 0.0
C516 C 0.99666 0.52816 0.95675 0.0
C517 C 0.11335 0.57976 0.95581 0.0
C518 C 0.08098 0.52111 0.95635 0.0
C519 C 0.9896 0.43551 0.95674 0.0
C520 C 0.93097 0.40926 0.95681 0.0
C521 C 0.02255 0.49471 0.95669 0.0
C522 C 0.90585 0.44309 0.95716 0.0
C523 C 0.93823 0.50175 0.95714 0.0
H524 H 0.60834 1.00194 0.2963 0.0
H525 H 0.4526 0.85766 0.2765 0.0
H526 H 0.40672 0.91388 0.27705 0.0
H527 H 0.4108 1.00498 0.28224 0.0
H528 H 0.56677 0.14955 0.30158 0.0
H529 H 0.61192 0.0926 0.30226 0.0
C530 C 0.56439 0.98287 0.29215 0.0
C531 C 0.53418 0.92571 0.28631 0.0
C532 C 0.53798 0.01557 0.29244 0.0
C533 C 0.47709 0.90163 0.28101 0.0
C534 C 0.45063 0.93374 0.28133 0.0
C535 C 0.4545 0.02381 0.28678 0.0
C536 C 0.48521 0.08143 0.29183 0.0
C537 C 0.48063 0.99085 0.28693 0.0
C538 C 0.54201 0.10527 0.29756 0.0
C539 C 0.56804 0.07275 0.29793 0.0
loop_
_geom_bond_atom_site_label_1
_geom_bond_atom_site_label_2
_geom_bond_distance
_geom_bond_site_symmetry_2
_ccdc_geom_bond_type
In0 O1 2.294 . S
In0 O2 2.326 . S
In0 O6 2.266 . S
In0 O7 2.326 . S
In0 O8 2.266 . S
In0 O9 2.326 . S
In0 O11 2.294 . S
In0 O12 2.326 . S
O1 In0 2.294 . S
O1 C10 1.240 . S
O2 In0 2.326 . S
O2 C10 1.252 . S
C3 O6 1.252 . S
C3 O7 1.260 . S
C4 O11 1.240 . S
C4 O12 1.252 . S
C5 O8 1.252 . S
C5 O9 1.260 . S
O6 In0 2.266 . S
O6 C3 1.252 . S
O7 In0 2.326 . S
O7 C3 1.260 . S
O8 In0 2.266 . S
O8 C5 1.252 . S
O9 In0 2.326 . S
O9 C5 1.260 . S
C10 O1 1.240 . S
C10 O2 1.252 . S
O11 In0 2.294 . S
O11 C4 1.240 . S
O12 In0 2.326 . S
O12 C4 1.252 . S
In13 O14 2.294 . S
In13 O15 2.326 . S
In13 O19 2.266 . S
In13 O20 2.326 . S
In13 O21 2.266 . S
In13 O22 2.326 . S
In13 O24 2.294 . S
In13 O25 2.326 . S
O14 In13 2.294 . S
O14 C23 1.240 . S
O15 In13 2.326 . S
O15 C23 1.252 . S
C16 O19 1.252 . S
C16 O20 1.260 . S
C17 O24 1.240 . S
C17 O25 1.252 . S
C18 O21 1.252 . S
C18 O22 1.260 . S
O19 In13 2.266 . S
O19 C16 1.252 . S
O20 In13 2.326 . S
O20 C16 1.260 . S
O21 In13 2.266 . S
O21 C18 1.252 . S
O22 In13 2.326 . S
O22 C18 1.260 . S
C23 O14 1.240 . S
C23 O15 1.252 . S
O24 In13 2.294 . S
O24 C17 1.240 . S
O25 In13 2.326 . S
O25 C17 1.252 . S
In26 O27 2.294 . S
In26 O28 2.326 . S
In26 O32 2.266 . S
In26 O33 2.326 . S
In26 O34 2.266 . S
In26 O35 2.326 . S
In26 O37 2.294 . S
In26 O38 2.326 . S
O27 In26 2.294 . S
O27 C36 1.240 . S
O28 In26 2.326 . S
O28 C36 1.252 . S
C29 O32 1.252 . S
C29 O33 1.260 . S
C30 O37 1.240 . S
C30 O38 1.252 . S
C31 O34 1.252 . S
C31 O35 1.260 . S
O32 In26 2.266 . S
O32 C29 1.252 . S
O33 In26 2.326 . S
O33 C29 1.260 . S
O34 In26 2.266 . S
O34 C31 1.252 . S
O35 In26 2.326 . S
O35 C31 1.260 . S
C36 O27 1.240 . S
C36 O28 1.252 . S
O37 In26 2.294 . S
O37 C30 1.240 . S
O38 In26 2.326 . S
O38 C30 1.252 . S
In39 O40 2.294 . S
In39 O41 2.326 . S
In39 O45 2.266 . S
In39 O46 2.326 . S
In39 O47 2.266 . S
In39 O48 2.326 . S
In39 O50 2.294 . S
In39 O51 2.326 . S
O40 In39 2.294 . S
O40 C49 1.240 . S
O41 In39 2.326 . S
O41 C49 1.252 . S
C42 O45 1.252 . S
C42 O46 1.260 . S
C43 O50 1.240 . S
C43 O51 1.252 . S
C44 O47 1.252 . S
C44 O48 1.260 . S
O45 In39 2.266 . S
O45 C42 1.252 . S
O46 In39 2.326 . S
O46 C42 1.260 . S
O47 In39 2.266 . S
O47 C44 1.252 . S
O48 In39 2.326 . S
O48 C44 1.260 . S
C49 O40 1.240 . S
C49 O41 1.252 . S
O50 In39 2.294 . S
O50 C43 1.240 . S
O51 In39 2.326 . S
O51 C43 1.252 . S
In52 O53 2.294 . S
In52 O54 2.326 . S
In52 O58 2.266 . S
In52 O59 2.326 . S
In52 O60 2.266 . S
In52 O61 2.326 . S
In52 O63 2.294 . S
In52 O64 2.326 . S
O53 In52 2.294 . S
O53 C62 1.240 . S
O54 In52 2.326 . S
O54 C62 1.252 . S
C55 O58 1.252 . S
C55 O59 1.260 . S
C56 O63 1.240 . S
C56 O64 1.252 . S
C57 O60 1.252 . S
C57 O61 1.260 . S
O58 In52 2.266 . S
O58 C55 1.252 . S
O59 In52 2.326 . S
O59 C55 1.260 . S
O60 In52 2.266 . S
O60 C57 1.252 . S
O61 In52 2.326 . S
O61 C57 1.260 . S
C62 O53 1.240 . S
C62 O54 1.252 . S
O63 In52 2.294 . S
O63 C56 1.240 . S
O64 In52 2.326 . S
O64 C56 1.252 . S
In65 O66 2.294 . S
In65 O67 2.326 . S
In65 O71 2.266 . S
In65 O72 2.326 . S
In65 O73 2.266 . S
In65 O74 2.326 . S
In65 O76 2.294 . S
In65 O77 2.326 . S
O66 In65 2.294 . S
O66 C75 1.240 . S
O67 In65 2.326 . S
O67 C75 1.252 . S
C68 O71 1.252 . S
C68 O72 1.260 . S
C69 O76 1.240 . S
C69 O77 1.252 . S
C70 O73 1.252 . S
C70 O74 1.260 . S
O71 In65 2.266 . S
O71 C68 1.252 . S
O72 In65 2.326 . S
O72 C68 1.260 . S
O73 In65 2.266 . S
O73 C70 1.252 . S
O74 In65 2.326 . S
O74 C70 1.260 . S
C75 O66 1.240 . S
C75 O67 1.252 . S
O76 In65 2.294 . S
O76 C69 1.240 . S
O77 In65 2.326 . S
O77 C69 1.252 . S
In78 O79 2.294 . S
In78 O80 2.326 . S
In78 O84 2.266 . S
In78 O85 2.326 . S
In78 O86 2.266 . S
In78 O87 2.326 . S
In78 O89 2.294 . S
In78 O90 2.326 . S
O79 In78 2.294 . S
O79 C88 1.240 . S
O80 In78 2.326 . S
O80 C88 1.252 . S
C81 O84 1.252 . S
C81 O85 1.260 . S
C82 O89 1.240 . S
C82 O90 1.252 . S
C83 O86 1.252 . S
C83 O87 1.260 . S
O84 In78 2.266 . S
O84 C81 1.252 . S
O85 In78 2.326 . S
O85 C81 1.260 . S
O86 In78 2.266 . S
O86 C83 1.252 . S
O87 In78 2.326 . S
O87 C83 1.260 . S
C88 O79 1.240 . S
C88 O80 1.252 . S
O89 In78 2.294 . S
O89 C82 1.240 . S
O90 In78 2.326 . S
O90 C82 1.252 . S
In91 O92 2.294 . S
In91 O93 2.326 . S
In91 O97 2.266 . S
In91 O98 2.326 . S
In91 O99 2.266 . S
In91 O100 2.326 . S
In91 O102 2.294 . S
In91 O103 2.326 . S
O92 In91 2.294 . S
O92 C101 1.240 . S
O93 In91 2.326 . S
O93 C101 1.252 . S
C94 O97 1.252 . S
C94 O98 1.260 . S
C95 O102 1.240 . S
C95 O103 1.252 . S
C96 O99 1.252 . S
C96 O100 1.260 . S
O97 In91 2.266 . S
O97 C94 1.252 . S
O98 In91 2.326 . S
O98 C94 1.260 . S
O99 In91 2.266 . S
O99 C96 1.252 . S
O100 In91 2.326 . S
O100 C96 1.260 . S
C101 O92 1.240 . S
C101 O93 1.252 . S
O102 In91 2.294 . S
O102 C95 1.240 . S
O103 In91 2.326 . S
O103 C95 1.252 . S
In104 O105 2.294 . S
In104 O106 2.326 . S
In104 O110 2.266 . S
In104 O111 2.326 . S
In104 O112 2.266 . S
In104 O113 2.326 . S
In104 O115 2.294 . S
In104 O116 2.326 . S
O105 In104 2.294 . S
O105 C114 1.240 . S
O106 In104 2.326 . S
O106 C114 1.252 . S
C107 O110 1.252 . S
C107 O111 1.260 . S
C108 O115 1.240 . S
C108 O116 1.252 . S
C109 O112 1.252 . S
C109 O113 1.260 . S
O110 In104 2.266 . S
O110 C107 1.252 . S
O111 In104 2.326 . S
O111 C107 1.260 . S
O112 In104 2.266 . S
O112 C109 1.252 . S
O113 In104 2.326 . S
O113 C109 1.260 . S
C114 O105 1.240 . S
C114 O106 1.252 . S
O115 In104 2.294 . S
O115 C108 1.240 . S
O116 In104 2.326 . S
O116 C108 1.252 . S
In117 O118 2.294 . S
In117 O119 2.326 . S
In117 O123 2.266 . S
In117 O124 2.326 . S
In117 O125 2.266 . S
In117 O126 2.326 . S
In117 O128 2.294 . S
In117 O129 2.326 . S
O118 In117 2.294 . S
O118 C127 1.240 . S
O119 In117 2.326 . S
O119 C127 1.252 . S
C120 O123 1.252 . S
C120 O124 1.260 . S
C121 O128 1.240 . S
C121 O129 1.252 . S
C122 O125 1.252 . S
C122 O126 1.260 . S
O123 In117 2.266 . S
O123 C120 1.252 . S
O124 In117 2.326 . S
O124 C120 1.260 . S
O125 In117 2.266 . S
O125 C122 1.252 . S
O126 In117 2.326 . S
O126 C122 1.260 . S
C127 O118 1.240 . S
C127 O119 1.252 . S
O128 In117 2.294 . S
O128 C121 1.240 . S
O129 In117 2.326 . S
O129 C121 1.252 . S
In130 O131 2.294 . S
In130 O132 2.326 . S
In130 O136 2.266 . S
In130 O137 2.326 . S
In130 O138 2.266 . S
In130 O139 2.326 . S
In130 O141 2.294 . S
In130 O142 2.326 . S
O131 In130 2.294 . S
O131 C140 1.240 . S
O132 In130 2.326 . S
O132 C140 1.252 . S
C133 O136 1.252 . S
C133 O137 1.260 . S
C134 O141 1.240 . S
C134 O142 1.252 . S
C135 O138 1.252 . S
C135 O139 1.260 . S
O136 In130 2.266 . S
O136 C133 1.252 . S
O137 In130 2.326 . S
O137 C133 1.260 . S
O138 In130 2.266 . S
O138 C135 1.252 . S
O139 In130 2.326 . S
O139 C135 1.260 . S
C140 O131 1.240 . S
C140 O132 1.252 . S
O141 In130 2.294 . S
O141 C134 1.240 . S
O142 In130 2.326 . S
O142 C134 1.252 . S
In143 O144 2.294 . S
In143 O145 2.326 . S
In143 O149 2.266 . S
In143 O150 2.326 . S
In143 O151 2.266 . S
In143 O152 2.326 . S
In143 O154 2.294 . S
In143 O155 2.326 . S
O144 In143 2.294 . S
O144 C153 1.240 . S
O145 In143 2.326 . S
O145 C153 1.252 . S
C146 O149 1.252 . S
C146 O150 1.260 . S
C147 O154 1.240 . S
C147 O155 1.252 . S
C148 O151 1.252 . S
C148 O152 1.260 . S
O149 In143 2.266 . S
O149 C146 1.252 . S
O150 In143 2.326 . S
O150 C146 1.260 . S
O151 In143 2.266 . S
O151 C148 1.252 . S
O152 In143 2.326 . S
O152 C148 1.260 . S
C153 O144 1.240 . S
C153 O145 1.252 . S
O154 In143 2.294 . S
O154 C147 1.240 . S
O155 In143 2.326 . S
O155 C147 1.252 . S
H156 C162 0.930 . S
H157 C165 0.930 . S
H158 C166 0.930 . S
H159 C167 0.930 . S
H160 C170 0.930 . S
H161 C171 0.930 . S
C162 H156 0.930 . S
C162 C163 1.355 . S
C162 C164 1.415 1_556 S
C163 C162 1.355 . S
C163 C165 1.419 . S
C164 C162 1.415 1_554 S
C164 C169 1.425 1_564 S
C164 C171 1.409 . S
C165 H157 0.930 . S
C165 C163 1.419 . S
C165 C166 1.362 1_565 S
C166 H158 0.930 . S
C166 C165 1.362 1_545 S
C166 C169 1.409 . S
C167 H159 0.930 . S
C167 C168 1.355 . S
C167 C169 1.415 1_554 S
C168 C167 1.355 . S
C168 C170 1.419 . S
C169 C164 1.425 1_546 S
C169 C166 1.409 . S
C169 C167 1.415 1_556 S
C170 H160 0.930 . S
C170 C168 1.419 . S
C170 C171 1.362 1_545 S
C171 H161 0.930 . S
C171 C164 1.409 . S
C171 C170 1.362 1_565 S
H172 C178 0.930 . S
H173 C181 0.930 . S
H174 C182 0.930 . S
H175 C183 0.930 . S
H176 C186 0.930 . S
H177 C187 0.930 . S
C178 H172 0.930 . S
C178 C179 1.355 . S
C178 C180 1.415 . S
C179 C178 1.355 . S
C179 C181 1.419 . S
C180 C178 1.415 . S
C180 C185 1.425 . S
C180 C187 1.409 . S
C181 H173 0.930 . S
C181 C179 1.419 . S
C181 C182 1.362 . S
C182 H174 0.930 . S
C182 C181 1.362 . S
C182 C185 1.409 . S
C183 H175 0.930 . S
C183 C184 1.355 . S
C183 C185 1.415 . S
C184 C183 1.355 . S
C184 C186 1.419 . S
C185 C180 1.425 . S
C185 C182 1.409 . S
C185 C183 1.415 . S
C186 H176 0.930 . S
C186 C184 1.419 . S
C186 C187 1.362 . S
C187 H177 0.930 . S
C187 C180 1.409 . S
C187 C186 1.362 . S
H188 C194 0.930 . S
H189 C197 0.930 . S
H190 C198 0.930 . S
H191 C199 0.930 . S
H192 C202 0.930 . S
H193 C203 0.930 . S
C194 H188 0.930 . S
C194 C195 1.355 . S
C194 C196 1.415 1_655 S
C195 C194 1.355 . S
C195 C197 1.419 . S
C196 C194 1.415 1_455 S
C196 C201 1.425 1_455 S
C196 C203 1.409 . S
C197 H189 0.930 . S
C197 C195 1.419 . S
C197 C198 1.362 . S
C198 H190 0.930 . S
C198 C197 1.362 . S
C198 C201 1.409 . S
C199 H191 0.930 . S
C199 C200 1.355 . S
C199 C201 1.415 1_455 S
C200 C199 1.355 . S
C200 C202 1.419 . S
C201 C196 1.425 1_655 S
C201 C198 1.409 . S
C201 C199 1.415 1_655 S
C202 H192 0.930 . S
C202 C200 1.419 . S
C202 C203 1.362 . S
C203 H193 0.930 . S
C203 C196 1.409 . S
C203 C202 1.362 . S
H204 C210 0.930 1_556 S
H205 C213 0.930 . S
H206 C214 0.930 . S
H207 C215 0.930 1_554 S
H208 C218 0.930 . S
H209 C219 0.930 . S
C210 H204 0.930 1_554 S
C210 C211 1.355 . S
C210 C212 1.415 1_554 S
C211 C210 1.355 . S
C211 C213 1.419 . S
C212 C210 1.415 1_556 S
C212 C217 1.425 1_566 S
C212 C219 1.409 . S
C213 H205 0.930 . S
C213 C211 1.419 . S
C213 C214 1.362 1_565 S
C214 H206 0.930 . S
C214 C213 1.362 1_545 S
C214 C217 1.409 . S
C215 H207 0.930 1_556 S
C215 C216 1.355 . S
C215 C217 1.415 1_556 S
C216 C215 1.355 . S
C216 C218 1.419 . S
C217 C212 1.425 1_544 S
C217 C214 1.409 . S
C217 C215 1.415 1_554 S
C218 H208 0.930 . S
C218 C216 1.419 . S
C218 C219 1.362 1_545 S
C219 H209 0.930 . S
C219 C212 1.409 . S
C219 C218 1.362 1_565 S
H220 C226 0.930 . S
H221 C229 0.930 . S
H222 C230 0.930 . S
H223 C231 0.930 . S
H224 C234 0.930 . S
H225 C235 0.930 . S
C226 H220 0.930 . S
C226 C227 1.355 . S
C226 C228 1.415 . S
C227 C226 1.355 . S
C227 C229 1.419 . S
C228 C226 1.415 . S
C228 C233 1.425 . S
C228 C235 1.409 . S
C229 H221 0.930 . S
C229 C227 1.419 . S
C229 C230 1.362 . S
C230 H222 0.930 . S
C230 C229 1.362 . S
C230 C233 1.409 . S
C231 H223 0.930 . S
C231 C232 1.355 . S
C231 C233 1.415 . S
C232 C231 1.355 . S
C232 C234 1.419 . S
C233 C228 1.425 . S
C233 C230 1.409 . S
C233 C231 1.415 . S
C234 H224 0.930 . S
C234 C232 1.419 . S
C234 C235 1.362 . S
C235 H225 0.930 . S
C235 C228 1.409 . S
C235 C234 1.362 . S
H236 C242 0.930 . S
H237 C245 0.930 . S
H238 C246 0.930 . S
H239 C247 0.930 . S
H240 C250 0.930 . S
H241 C251 0.930 . S
C242 H236 0.930 . S
C242 C243 1.355 . S
C242 C244 1.415 . S
C243 C242 1.355 . S
C243 C245 1.419 . S
C244 C242 1.415 . S
C244 C249 1.425 1_655 S
C244 C251 1.409 . S
C245 H237 0.930 . S
C245 C243 1.419 . S
C245 C246 1.362 1_655 S
C246 H238 0.930 . S
C246 C245 1.362 1_455 S
C246 C249 1.409 . S
C247 H239 0.930 . S
C247 C248 1.355 . S
C247 C249 1.415 . S
C248 C247 1.355 . S
C248 C250 1.419 . S
C249 C244 1.425 1_455 S
C249 C246 1.409 . S
C249 C247 1.415 . S
C250 H240 0.930 . S
C250 C248 1.419 . S
C250 C251 1.362 1_455 S
C251 H241 0.930 . S
C251 C244 1.409 . S
C251 C250 1.362 1_655 S
H252 C258 0.930 . S
H253 C261 0.930 . S
H254 C262 0.930 . S
H255 C263 0.930 . S
H256 C266 0.930 . S
H257 C267 0.930 . S
C258 H252 0.930 . S
C258 C259 1.355 . S
C258 C260 1.415 . S
C259 C258 1.355 . S
C259 C261 1.419 1_556 S
C260 C258 1.415 . S
C260 C265 1.425 1_556 S
C260 C267 1.409 . S
C261 H253 0.930 . S
C261 C259 1.419 1_554 S
C261 C262 1.362 . S
C262 H254 0.930 . S
C262 C261 1.362 . S
C262 C265 1.409 . S
C263 H255 0.930 . S
C263 C264 1.355 . S
C263 C265 1.415 . S
C264 C263 1.355 . S
C264 C266 1.419 1_554 S
C265 C260 1.425 1_554 S
C265 C262 1.409 . S
C265 C263 1.415 . S
C266 H256 0.930 . S
C266 C264 1.419 1_556 S
C266 C267 1.362 . S
C267 H257 0.930 . S
C267 C260 1.409 . S
C267 C266 1.362 . S
H268 C274 0.930 . S
H269 C277 0.930 . S
H270 C278 0.930 . S
H271 C279 0.930 . S
H272 C282 0.930 . S
H273 C283 0.930 . S
C274 H268 0.930 . S
C274 C275 1.355 . S
C274 C276 1.415 . S
C275 C274 1.355 . S
C275 C277 1.419 . S
C276 C274 1.415 . S
C276 C281 1.425 . S
C276 C283 1.409 . S
C277 H269 0.930 . S
C277 C275 1.419 . S
C277 C278 1.362 . S
C278 H270 0.930 . S
C278 C277 1.362 . S
C278 C281 1.409 . S
C279 H271 0.930 . S
C279 C280 1.355 . S
C279 C281 1.415 . S
C280 C279 1.355 . S
C280 C282 1.419 . S
C281 C276 1.425 . S
C281 C278 1.409 . S
C281 C279 1.415 . S
C282 H272 0.930 . S
C282 C280 1.419 . S
C282 C283 1.362 . S
C283 H273 0.930 . S
C283 C276 1.409 . S
C283 C282 1.362 . S
H284 C290 0.930 . S
H285 C293 0.930 . S
H286 C294 0.930 . S
H287 C295 0.930 . S
H288 C298 0.930 . S
H289 C299 0.930 . S
C290 H284 0.930 . S
C290 C291 1.355 . S
C290 C292 1.415 . S
C291 C290 1.355 . S
C291 C293 1.419 . S
C292 C290 1.415 . S
C292 C297 1.425 . S
C292 C299 1.409 . S
C293 H285 0.930 . S
C293 C291 1.419 . S
C293 C294 1.362 . S
C294 H286 0.930 . S
C294 C293 1.362 . S
C294 C297 1.409 . S
C295 H287 0.930 . S
C295 C296 1.355 . S
C295 C297 1.415 . S
C296 C295 1.355 . S
C296 C298 1.419 . S
C297 C292 1.425 . S
C297 C294 1.409 . S
C297 C295 1.415 . S
C298 H288 0.930 . S
C298 C296 1.419 . S
C298 C299 1.362 . S
C299 H289 0.930 . S
C299 C292 1.409 . S
C299 C298 1.362 . S
H300 C306 0.930 . S
H301 C309 0.930 . S
H302 C310 0.930 . S
H303 C311 0.930 . S
H304 C314 0.930 . S
H305 C315 0.930 . S
C306 H300 0.930 . S
C306 C307 1.355 . S
C306 C308 1.415 . S
C307 C306 1.355 . S
C307 C309 1.419 1_556 S
C308 C306 1.415 . S
C308 C313 1.425 1_556 S
C308 C315 1.409 . S
C309 H301 0.930 . S
C309 C307 1.419 1_554 S
C309 C310 1.362 . S
C310 H302 0.930 . S
C310 C309 1.362 . S
C310 C313 1.409 . S
C311 H303 0.930 . S
C311 C312 1.355 . S
C311 C313 1.415 . S
C312 C311 1.355 . S
C312 C314 1.419 1_554 S
C313 C308 1.425 1_554 S
C313 C310 1.409 . S
C313 C311 1.415 . S
C314 H304 0.930 . S
C314 C312 1.419 1_556 S
C314 C315 1.362 . S
C315 H305 0.930 . S
C315 C308 1.409 . S
C315 C314 1.362 . S
H316 C322 0.930 . S
H317 C325 0.930 . S
H318 C326 0.930 . S
H319 C327 0.930 . S
H320 C330 0.930 . S
H321 C331 0.930 . S
C322 H316 0.930 . S
C322 C323 1.355 . S
C322 C324 1.415 . S
C323 C322 1.355 . S
C323 C325 1.419 . S
C324 C322 1.415 . S
C324 C329 1.425 . S
C324 C331 1.409 . S
C325 H317 0.930 . S
C325 C323 1.419 . S
C325 C326 1.362 . S
C326 H318 0.930 . S
C326 C325 1.362 . S
C326 C329 1.409 . S
C327 H319 0.930 . S
C327 C328 1.355 . S
C327 C329 1.415 . S
C328 C327 1.355 . S
C328 C330 1.419 . S
C329 C324 1.425 . S
C329 C326 1.409 . S
C329 C327 1.415 . S
C330 H320 0.930 . S
C330 C328 1.419 . S
C330 C331 1.362 . S
C331 H321 0.930 . S
C331 C324 1.409 . S
C331 C330 1.362 . S
H332 C338 0.930 . S
H333 C341 0.930 . S
H334 C342 0.930 . S
H335 C343 0.930 . S
H336 C346 0.930 . S
H337 C347 0.930 . S
C338 H332 0.930 . S
C338 C339 1.355 . S
C338 C340 1.415 . S
C339 C338 1.355 . S
C339 C341 1.419 . S
C340 C338 1.415 . S
C340 C345 1.425 . S
C340 C347 1.409 . S
C341 H333 0.930 . S
C341 C339 1.419 . S
C341 C342 1.362 . S
C342 H334 0.930 . S
C342 C341 1.362 . S
C342 C345 1.409 . S
C343 H335 0.930 . S
C343 C344 1.355 . S
C343 C345 1.415 . S
C344 C343 1.355 . S
C344 C346 1.419 . S
C345 C340 1.425 . S
C345 C342 1.409 . S
C345 C343 1.415 . S
C346 H336 0.930 . S
C346 C344 1.419 . S
C346 C347 1.362 . S
C347 H337 0.930 . S
C347 C340 1.409 . S
C347 C346 1.362 . S
H348 C354 0.930 . S
H349 C357 0.930 . S
H350 C358 0.930 . S
H351 C359 0.930 . S
H352 C362 0.930 . S
H353 C363 0.930 . S
C354 H348 0.930 . S
C354 C355 1.355 . S
C354 C356 1.415 . S
C355 C354 1.355 . S
C355 C357 1.419 . S
C356 C354 1.415 . S
C356 C361 1.425 . S
C356 C363 1.409 . S
C357 H349 0.930 . S
C357 C355 1.419 . S
C357 C358 1.362 . S
C358 H350 0.930 . S
C358 C357 1.362 . S
C358 C361 1.409 . S
C359 H351 0.930 . S
C359 C360 1.355 . S
C359 C361 1.415 . S
C360 C359 1.355 . S
C360 C362 1.419 . S
C361 C356 1.425 . S
C361 C358 1.409 . S
C361 C359 1.415 . S
C362 H352 0.930 . S
C362 C360 1.419 . S
C362 C363 1.362 . S
C363 H353 0.930 . S
C363 C356 1.409 . S
C363 C362 1.362 . S
H364 C370 0.930 . S
H365 C373 0.930 . S
H366 C374 0.930 . S
H367 C375 0.930 . S
H368 C378 0.930 . S
H369 C379 0.930 . S
C370 H364 0.930 . S
C370 C371 1.355 . S
C370 C372 1.415 . S
C371 C370 1.355 . S
C371 C373 1.419 . S
C372 C370 1.415 . S
C372 C377 1.425 . S
C372 C379 1.409 . S
C373 H365 0.930 . S
C373 C371 1.419 . S
C373 C374 1.362 . S
C374 H366 0.930 . S
C374 C373 1.362 . S
C374 C377 1.409 . S
C375 H367 0.930 . S
C375 C376 1.355 . S
C375 C377 1.415 . S
C376 C375 1.355 . S
C376 C378 1.419 . S
C377 C372 1.425 . S
C377 C374 1.409 . S
C377 C375 1.415 . S
C378 H368 0.930 . S
C378 C376 1.419 . S
C378 C379 1.362 . S
C379 H369 0.930 . S
C379 C372 1.409 . S
C379 C378 1.362 . S
H380 C386 0.930 . S
H381 C389 0.930 . S
H382 C390 0.930 . S
H383 C391 0.930 . S
H384 C394 0.930 . S
H385 C395 0.930 . S
C386 H380 0.930 . S
C386 C387 1.355 . S
C386 C388 1.415 . S
C387 C386 1.355 . S
C387 C389 1.419 . S
C388 C386 1.415 . S
C388 C393 1.425 . S
C388 C395 1.409 . S
C389 H381 0.930 . S
C389 C387 1.419 . S
C389 C390 1.362 . S
C390 H382 0.930 . S
C390 C389 1.362 . S
C390 C393 1.409 . S
C391 H383 0.930 . S
C391 C392 1.355 . S
C391 C393 1.415 . S
C392 C391 1.355 . S
C392 C394 1.419 . S
C393 C388 1.425 . S
C393 C390 1.409 . S
C393 C391 1.415 . S
C394 H384 0.930 . S
C394 C392 1.419 . S
C394 C395 1.362 . S
C395 H385 0.930 . S
C395 C388 1.409 . S
C395 C394 1.362 . S
H396 C402 0.930 . S
H397 C405 0.930 . S
H398 C406 0.930 . S
H399 C407 0.930 . S
H400 C410 0.930 . S
H401 C411 0.930 . S
C402 H396 0.930 . S
C402 C403 1.355 . S
C402 C404 1.415 . S
C403 C402 1.355 . S
C403 C405 1.419 . S
C404 C402 1.415 . S
C404 C409 1.425 . S
C404 C411 1.409 . S
C405 H397 0.930 . S
C405 C403 1.419 . S
C405 C406 1.362 . S
C406 H398 0.930 . S
C406 C405 1.362 . S
C406 C409 1.409 . S
C407 H399 0.930 . S
C407 C408 1.355 . S
C407 C409 1.415 . S
C408 C407 1.355 . S
C408 C410 1.419 . S
C409 C404 1.425 . S
C409 C406 1.409 . S
C409 C407 1.415 . S
C410 H400 0.930 . S
C410 C408 1.419 . S
C410 C411 1.362 . S
C411 H401 0.930 . S
C411 C404 1.409 . S
C411 C410 1.362 . S
H412 C418 0.930 . S
H413 C421 0.930 . S
H414 C422 0.930 . S
H415 C423 0.930 . S
H416 C426 0.930 . S
H417 C427 0.930 . S
C418 H412 0.930 . S
C418 C419 1.355 . S
C418 C420 1.415 . S
C419 C418 1.355 . S
C419 C421 1.419 . S
C420 C418 1.415 . S
C420 C425 1.425 . S
C420 C427 1.409 . S
C421 H413 0.930 . S
C421 C419 1.419 . S
C421 C422 1.362 . S
C422 H414 0.930 . S
C422 C421 1.362 . S
C422 C425 1.409 . S
C423 H415 0.930 . S
C423 C424 1.355 . S
C423 C425 1.415 . S
C424 C423 1.355 . S
C424 C426 1.419 . S
C425 C420 1.425 . S
C425 C422 1.409 . S
C425 C423 1.415 . S
C426 H416 0.930 . S
C426 C424 1.419 . S
C426 C427 1.362 . S
C427 H417 0.930 . S
C427 C420 1.409 . S
C427 C426 1.362 . S
H428 C434 0.930 . S
H429 C437 0.930 . S
H430 C438 0.930 . S
H431 C439 0.930 . S
H432 C442 0.930 . S
H433 C443 0.930 . S
C434 H428 0.930 . S
C434 C435 1.355 . S
C434 C436 1.415 . S
C435 C434 1.355 . S
C435 C437 1.419 . S
C436 C434 1.415 . S
C436 C441 1.425 . S
C436 C443 1.409 . S
C437 H429 0.930 . S
C437 C435 1.419 . S
C437 C438 1.362 . S
C438 H430 0.930 . S
C438 C437 1.362 . S
C438 C441 1.409 . S
C439 H431 0.930 . S
C439 C440 1.355 . S
C439 C441 1.415 . S
C440 C439 1.355 . S
C440 C442 1.419 . S
C441 C436 1.425 . S
C441 C438 1.409 . S
C441 C439 1.415 . S
C442 H432 0.930 . S
C442 C440 1.419 . S
C442 C443 1.362 . S
C443 H433 0.930 . S
C443 C436 1.409 . S
C443 C442 1.362 . S
H444 C450 0.930 . S
H445 C453 0.930 . S
H446 C454 0.930 . S
H447 C455 0.930 . S
H448 C458 0.930 . S
H449 C459 0.930 . S
C450 H444 0.930 . S
C450 C451 1.355 . S
C450 C452 1.415 . S
C451 C450 1.355 . S
C451 C453 1.419 . S
C452 C450 1.415 . S
C452 C457 1.425 . S
C452 C459 1.409 . S
C453 H445 0.930 . S
C453 C451 1.419 . S
C453 C454 1.362 . S
C454 H446 0.930 . S
C454 C453 1.362 . S
C454 C457 1.409 . S
C455 H447 0.930 . S
C455 C456 1.355 . S
C455 C457 1.415 . S
C456 C455 1.355 . S
C456 C458 1.419 . S
C457 C452 1.425 . S
C457 C454 1.409 . S
C457 C455 1.415 . S
C458 H448 0.930 . S
C458 C456 1.419 . S
C458 C459 1.362 . S
C459 H449 0.930 . S
C459 C452 1.409 . S
C459 C458 1.362 . S
H460 C466 0.930 . S
H461 C469 0.930 . S
H462 C470 0.930 . S
H463 C471 0.930 . S
H464 C474 0.930 . S
H465 C475 0.930 . S
C466 H460 0.930 . S
C466 C467 1.355 . S
C466 C468 1.415 . S
C467 C466 1.355 . S
C467 C469 1.419 1_655 S
C468 C466 1.415 . S
C468 C473 1.425 1_655 S
C468 C475 1.409 . S
C469 H461 0.930 . S
C469 C467 1.419 1_455 S
C469 C470 1.362 . S
C470 H462 0.930 . S
C470 C469 1.362 . S
C470 C473 1.409 . S
C471 H463 0.930 . S
C471 C472 1.355 . S
C471 C473 1.415 . S
C472 C471 1.355 . S
C472 C474 1.419 1_455 S
C473 C468 1.425 1_455 S
C473 C470 1.409 . S
C473 C471 1.415 . S
C474 H464 0.930 . S
C474 C472 1.419 1_655 S
C474 C475 1.362 . S
C475 H465 0.930 . S
C475 C468 1.409 . S
C475 C474 1.362 . S
H476 C482 0.930 . S
H477 C485 0.930 . S
H478 C486 0.930 . S
H479 C487 0.930 . S
H480 C490 0.930 . S
H481 C491 0.930 . S
C482 H476 0.930 . S
C482 C483 1.355 . S
C482 C484 1.415 . S
C483 C482 1.355 . S
C483 C485 1.419 . S
C484 C482 1.415 . S
C484 C489 1.425 1_545 S
C484 C491 1.409 1_545 S
C485 H477 0.930 . S
C485 C483 1.419 . S
C485 C486 1.362 . S
C486 H478 0.930 . S
C486 C485 1.362 . S
C486 C489 1.409 1_545 S
C487 H479 0.930 . S
C487 C488 1.355 . S
C487 C489 1.415 . S
C488 C487 1.355 . S
C488 C490 1.419 . S
C489 C484 1.425 1_565 S
C489 C486 1.409 1_565 S
C489 C487 1.415 . S
C490 H480 0.930 . S
C490 C488 1.419 . S
C490 C491 1.362 . S
C491 H481 0.930 . S
C491 C484 1.409 1_565 S
C491 C490 1.362 . S
H492 C498 0.930 . S
H493 C501 0.930 . S
H494 C502 0.930 . S
H495 C503 0.930 . S
H496 C506 0.930 . S
H497 C507 0.930 . S
C498 H492 0.930 . S
C498 C499 1.355 . S
C498 C500 1.415 . S
C499 C498 1.355 . S
C499 C501 1.419 . S
C500 C498 1.415 . S
C500 C505 1.425 . S
C500 C507 1.409 . S
C501 H493 0.930 . S
C501 C499 1.419 . S
C501 C502 1.362 . S
C502 H494 0.930 . S
C502 C501 1.362 . S
C502 C505 1.409 . S
C503 H495 0.930 . S
C503 C504 1.355 . S
C503 C505 1.415 . S
C504 C503 1.355 . S
C504 C506 1.419 . S
C505 C500 1.425 . S
C505 C502 1.409 . S
C505 C503 1.415 . S
C506 H496 0.930 . S
C506 C504 1.419 . S
C506 C507 1.362 . S
C507 H497 0.930 . S
C507 C500 1.409 . S
C507 C506 1.362 . S
H508 C514 0.930 1_655 S
H509 C517 0.930 . S
H510 C518 0.930 . S
H511 C519 0.930 1_455 S
H512 C522 0.930 . S
H513 C523 0.930 . S
C514 H508 0.930 1_455 S
C514 C515 1.355 . S
C514 C516 1.415 1_455 S
C515 C514 1.355 . S
C515 C517 1.419 . S
C516 C514 1.415 1_655 S
C516 C521 1.425 1_655 S
C516 C523 1.409 . S
C517 H509 0.930 . S
C517 C515 1.419 . S
C517 C518 1.362 . S
C518 H510 0.930 . S
C518 C517 1.362 . S
C518 C521 1.409 . S
C519 H511 0.930 1_655 S
C519 C520 1.355 . S
C519 C521 1.415 1_655 S
C520 C519 1.355 . S
C520 C522 1.419 . S
C521 C516 1.425 1_455 S
C521 C518 1.409 . S
C521 C519 1.415 1_455 S
C522 H512 0.930 . S
C522 C520 1.419 . S
C522 C523 1.362 . S
C523 H513 0.930 . S
C523 C516 1.409 . S
C523 C522 1.362 . S
H524 C530 0.930 1_545 S
H525 C533 0.930 . S
H526 C534 0.930 . S
H527 C535 0.930 1_565 S
H528 C538 0.930 . S
H529 C539 0.930 . S
C530 H524 0.930 1_565 S
C530 C531 1.355 . S
C530 C532 1.415 1_565 S
C531 C530 1.355 . S
C531 C533 1.419 . S
C532 C530 1.415 1_545 S
C532 C537 1.425 1_545 S
C532 C539 1.409 . S
C533 H525 0.930 . S
C533 C531 1.419 . S
C533 C534 1.362 . S
C534 H526 0.930 . S
C534 C533 1.362 . S
C534 C537 1.409 . S
C535 H527 0.930 1_545 S
C535 C536 1.355 . S
C535 C537 1.415 1_545 S
C536 C535 1.355 . S
C536 C538 1.419 . S
C537 C532 1.425 1_565 S
C537 C534 1.409 . S
C537 C535 1.415 1_565 S
C538 H528 0.930 . S
C538 C536 1.419 . S
C538 C539 1.362 . S
C539 H529 0.930 . S
C539 C532 1.409 . S
C539 C538 1.362 . S
C163 C96 1.460 . S
C168 C5 1.481 . S
C179 C16 1.483 . S
C184 C109 1.451 . S
C195 C29 1.440 . S
C200 C122 1.476 . S
C211 C42 1.469 . S
C216 C133 1.475 . S
C227 C148 1.456 . S
C232 C55 1.482 . S
C243 C83 1.463 . S
C248 C68 1.479 . S
C259 C135 1.268 . S
C264 C3 1.265 . S
C275 C18 1.265 . S
C280 C146 1.259 . S
C291 C31 1.259 . S
C296 C81 1.265 . S
C307 C94 1.267 . S
C312 C44 1.267 . S
C323 C107 1.262 . S
C328 C57 1.254 . S
C339 C120 1.259 . S
C344 C70 1.252 . S
C355 C10 1.664 . S
C360 C114 1.640 . S
C371 C17 1.640 . S
C376 C127 1.649 . S
C387 C134 1.637 . S
C392 C30 1.658 . S
C403 C43 1.638 . S
C408 C153 1.661 . S
C419 C88 1.664 . S
C424 C56 1.640 . S
C435 C101 1.637 . S
C440 C69 1.659 . S
C451 C49 1.608 . S
C456 C4 1.607 . S
C467 C62 1.637 . S
C472 C23 1.638 . S
C483 C36 1.610 . S
C488 C75 1.612 . S
C499 C82 1.641 . S
C504 C121 1.641 . S
C515 C95 1.600 . S
C520 C140 1.599 . S
C531 C147 1.600 . S
C536 C108 1.599 . S
