# Generated by pormake.
# Topology tsi, (8)-cn, num edge types: 1
# Building blocks:
#     Node 0, Type 0, BuildingBlock: LIZSOE_clean_sbu_0, # of connection points: 8
#     Node 1, Type 0, BuildingBlock: LIZSOE_clean_sbu_0, # of connection points: 8
#     Node 2, Type 0, BuildingBlock: LIZSOE_clean_sbu_0, # of connection points: 8
#     Node 3, Type 0, BuildingBlock: LIZSOE_clean_sbu_0, # of connection points: 8
#     Edge 4, Type (0, 0), BuildingBlock: XIVTED_clean_linker_0, # of connection points: 2
#     Edge 5, Type (0, 0), BuildingBlock: XIVTED_clean_linker_0, # of connection points: 2
#     Edge 6, Type (0, 0), BuildingBlock: XIVTED_clean_linker_0, # of connection points: 2
#     Edge 7, Type (0, 0), BuildingBlock: XIVTED_clean_linker_0, # of connection points: 2
#     Edge 8, Type (0, 0), BuildingBlock: XIVTED_clean_linker_0, # of connection points: 2
#     Edge 9, Type (0, 0), BuildingBlock: XIVTED_clean_linker_0, # of connection points: 2
#     Edge 10, Type (0, 0), BuildingBlock: XIVTED_clean_linker_0, # of connection points: 2
#     Edge 11, Type (0, 0), BuildingBlock: XIVTED_clean_linker_0, # of connection points: 2
#     Edge 12, Type (0, 0), BuildingBlock: XIVTED_clean_linker_0, # of connection points: 2
#     Edge 13, Type (0, 0), BuildingBlock: XIVTED_clean_linker_0, # of connection points: 2
#     Edge 14, Type (0, 0), BuildingBlock: XIVTED_clean_linker_0, # of connection points: 2
#     Edge 15, Type (0, 0), BuildingBlock: XIVTED_clean_linker_0, # of connection points: 2
#     Edge 16, Type (0, 0), BuildingBlock: XIVTED_clean_linker_0, # of connection points: 2
#     Edge 17, Type (0, 0), BuildingBlock: XIVTED_clean_linker_0, # of connection points: 2
#     Edge 18, Type (0, 0), BuildingBlock: XIVTED_clean_linker_0, # of connection points: 2
#     Edge 19, Type (0, 0), BuildingBlock: XIVTED_clean_linker_0, # of connection points: 2
# Relax obj value: 0.233
# Max RMSD: 0.259
# Mean RMSD: 0.250
data_MOF--net-tsi--node1-LIZSOE_clean_sbu_0--edge1-XIVTED_clean_linker_0
_symmetry_space_group_name_H-M    P1
_symmetry_Int_Tables_number       1
_symmetry_cell_setting            triclinic
loop_
_symmetry_equiv_pos_as_xyz
'x, y, z'
_cell_length_a     15.650518
_cell_length_b     15.668529
_cell_length_c     65.825534
_cell_angle_alpha  100.47608
_cell_angle_beta   100.8386
_cell_angle_gamma 90.021109
loop_
_atom_site_label
_atom_site_type_symbol
_atom_site_fract_x
_atom_site_fract_y
_atom_site_fract_z
_atom_type_partial_charge
Co0 Co 0.27386 0.44183 0.48944 0.0
N1 N 0.35705 0.38359 0.50544 0.0
C2 C 0.43469 0.42116 0.51561 0.0
N3 N 0.43073 0.29276 0.52458 0.0
C4 C 0.35601 0.30507 0.51146 0.0
C5 C 0.47983 0.36584 0.52739 0.0
Co6 Co 0.06881 0.52499 0.39758 0.0
N7 N 0.98895 0.57376 0.37791 0.0
N8 N 0.90021 0.59525 0.34808 0.0
C9 C 0.94372 0.67026 0.35748 0.0
C10 C 0.9982 0.65684 0.37546 0.0
C11 C 0.92776 0.53775 0.36091 0.0
Co12 Co 0.16411 0.48479 0.4442 0.0
C13 C 0.12696 0.40975 0.39698 0.0
H14 H 0.04625 0.70383 0.38524 0.0
O15 O 0.18644 0.49847 0.47631 0.0
O16 O 1.03562 0.4818 0.444 0.0
O17 O 0.16166 0.35464 0.44009 0.0
O18 O 0.29316 0.48866 0.44372 0.0
O19 O 0.3584 0.47686 0.47621 0.0
O20 O 0.97872 0.49949 0.41126 0.0
O21 O 0.14559 0.47411 0.41299 0.0
O22 O 0.08869 0.63244 0.41582 0.0
O23 O 0.25254 0.33921 0.46921 0.0
O24 O 0.18878 0.41297 0.5004 0.0
O25 O 0.1642 0.61595 0.44742 0.0
O26 O 0.05983 0.41743 0.38248 0.0
C27 C 0.20747 0.30726 0.4514 0.0
C28 C 0.89406 0.44542 0.35689 0.0
H29 H 0.89355 0.42335 0.37194 0.0
H30 H 0.82715 0.43852 0.34733 0.0
H31 H 0.93695 0.40311 0.34811 0.0
C32 C 0.97018 0.48644 0.42932 0.0
C33 C 0.36172 0.48942 0.45789 0.0
H34 H 0.45559 0.48649 0.51521 0.0
H35 H 0.25721 0.23936 0.52198 0.0
H36 H 0.29532 0.17772 0.50012 0.0
H37 H 0.22172 0.26276 0.49606 0.0
C38 C 0.27773 0.24376 0.50695 0.0
C39 C 0.14669 0.46583 0.48941 0.0
C40 C 0.12755 0.66365 0.43451 0.0
H41 H 0.54233 0.37947 0.5379 0.0
H42 H 0.9409 0.72917 0.35099 0.0
Co43 Co 0.13646 0.58439 0.71158 0.0
N44 N 0.07307 0.50357 0.72082 0.0
C45 C 0.05063 0.42129 0.71073 0.0
N46 N 0.98247 0.4442 0.7375 0.0
C47 C 1.03174 0.51499 0.73734 0.0
C48 C 0.99493 0.38492 0.7209 0.0
Co49 Co 0.28263 0.69091 0.63502 0.0
N50 N 0.36913 0.74582 0.62547 0.0
N51 N 0.43704 0.82835 0.60834 0.0
C52 C 0.48854 0.82534 0.62699 0.0
C53 C 0.44732 0.77445 0.63733 0.0
C54 C 0.36539 0.7784 0.60762 0.0
Co55 Co 0.19584 0.65296 0.67343 0.0
C56 C 0.15424 0.68493 0.62776 0.0
H57 H 0.46989 0.76539 0.65326 0.0
O58 O 0.19579 0.6683 0.70493 0.0
O59 O 0.19539 0.7827 0.67626 0.0
O60 O 0.06513 0.65419 0.66727 0.0
O61 O 0.20013 0.51894 0.67032 0.0
O62 O 0.21122 0.50098 0.70359 0.0
O63 O 0.30049 0.78537 0.6584 0.0
O64 O 0.19305 0.6392 0.64175 0.0
O65 O 0.36537 0.62585 0.64867 0.0
O66 O 0.05745 0.55158 0.68522 0.0
O67 O 0.07055 0.67152 0.71773 0.0
O68 O 0.32943 0.65265 0.68043 0.0
O69 O 0.19764 0.7483 0.62366 0.0
C70 C 1.01984 0.59958 0.67312 0.0
C71 C 0.28735 0.76685 0.59007 0.0
H72 H 0.24348 0.82155 0.59292 0.0
H73 H 0.30658 0.76676 0.57472 0.0
H74 H 0.2515 0.70481 0.58925 0.0
C75 C 0.24962 0.82508 0.66941 0.0
C76 C 0.22094 0.47294 0.68486 0.0
H77 H 0.06952 0.39112 0.6962 0.0
H78 H 0.10916 0.6241 0.75637 0.0
H79 H 1.02966 0.58122 0.769 0.0
H80 H 0.9952 0.64397 0.74875 0.0
C81 C 0.04226 0.59567 0.75392 0.0
C82 C 0.14359 0.70933 0.71691 0.0
C83 C 0.38337 0.62619 0.66829 0.0
H84 H 0.96131 0.3221 0.71566 0.0
H85 H 0.54851 0.86333 0.63341 0.0
Co86 Co 0.31008 0.79744 0.94903 0.0
N87 N 0.25708 0.8769 0.96692 0.0
C88 C 0.19098 0.92827 0.9615 0.0
N89 N 0.22334 0.95596 0.99638 0.0
C90 C 0.27669 0.89604 0.98821 0.0
C91 C 0.16976 0.97598 0.97942 0.0
Co92 Co 0.3708 0.58104 0.85626 0.0
N93 N 0.42614 0.49741 0.8396 0.0
N94 N 0.51115 0.43037 0.81807 0.0
C95 C 0.45212 0.37167 0.81999 0.0
C96 C 0.39966 0.41307 0.83308 0.0
C97 C 0.49494 0.50581 0.83014 0.0
Co98 Co 0.33903 0.69238 0.90221 0.0
C99 C 0.34693 0.70796 0.85645 0.0
H100 H 0.34392 0.38378 0.83704 0.0
O101 O 0.36173 0.71606 0.9341 0.0
O102 O 0.46879 0.69499 0.9046 0.0
O103 O 0.33987 0.82087 0.90142 0.0
O104 O 0.20866 0.68995 0.90013 0.0
O105 O 0.20042 0.76846 0.9314 0.0
O106 O 0.47769 0.60282 0.87536 0.0
O107 O 0.31728 0.66857 0.87004 0.0
O108 O 0.33955 0.49818 0.87033 0.0
O109 O 0.32996 0.88297 0.93435 0.0
O110 O 0.29525 0.70962 0.96129 0.0
O111 O 0.3379 0.56411 0.90335 0.0
O112 O 0.3957 0.66518 0.84457 0.0
C113 C 0.3392 0.88798 0.91584 0.0
C114 C 0.54691 0.589 0.8322 0.0
H115 H 0.5513 0.63106 0.84777 0.0
H116 H 0.61417 0.57538 0.82976 0.0
H117 H 0.51535 0.62551 0.82003 0.0
C118 C 0.51349 0.64876 0.89275 0.0
C119 C 0.16413 0.72671 0.91348 0.0
H120 H 0.1608 0.93172 0.9455 0.0
H121 H 0.33298 0.80335 1.00649 0.0
H122 H 0.386 0.90983 1.01415 0.0
H123 H 0.40194 0.83798 0.99037 0.0
C124 C 0.35423 0.86021 1.00057 0.0
C125 C 0.34084 0.67201 0.94781 0.0
C126 C 0.33223 0.49583 0.88905 0.0
H127 H 0.11869 1.02246 0.97989 0.0
H128 H 0.44515 0.30483 0.8118 0.0
Co129 Co 0.43923 0.31269 0.22013 0.0
N130 N 0.38476 0.27253 0.23972 0.0
C131 C 0.31271 0.22061 0.23592 0.0
N132 N 0.35098 0.25576 0.27068 0.0
C133 C 0.40749 0.29196 0.26099 0.0
C134 C 0.29185 0.21047 0.25478 0.0
Co135 Co 0.4853 0.36283 0.12457 0.0
N136 N 0.52558 0.41477 0.10423 0.0
N137 N 0.54091 0.45382 0.07359 0.0
C138 C 0.60238 0.49649 0.08933 0.0
C139 C 0.59323 0.4723 0.10792 0.0
C140 C 0.49491 0.40427 0.08311 0.0
Co141 Co 0.46477 0.33715 0.17249 0.0
C142 C 0.36802 0.31813 0.1274 0.0
H143 H 0.63271 0.49634 0.12326 0.0
O144 O 0.49482 0.35945 0.20408 0.0
O145 O 0.46591 0.46654 0.17345 0.0
O146 O 0.33563 0.33963 0.17181 0.0
O147 O 0.46284 0.20749 0.17241 0.0
O148 O 0.44126 0.19953 0.20493 0.0
O149 O 0.48059 0.4736 0.14087 0.0
O150 O 0.43841 0.31017 0.14108 0.0
O151 O 0.59968 0.35294 0.13883 0.0
O152 O 0.32901 0.32708 0.20446 0.0
O153 O 0.44208 0.42349 0.23218 0.0
O154 O 0.59401 0.33577 0.17188 0.0
O155 O 0.37323 0.36808 0.11385 0.0
C156 C 0.29212 0.33599 0.18619 0.0
C157 C 0.41407 0.35023 0.07242 0.0
H158 H 0.35632 0.38794 0.07544 0.0
H159 H 0.40781 0.33237 0.05522 0.0
H160 H 0.41253 0.29004 0.07903 0.0
C161 C 0.47309 0.5103 0.15923 0.0
C162 C 0.45165 0.16362 0.18656 0.0
H163 H 0.2766 0.19318 0.2204 0.0
H164 H 0.51583 0.32195 0.28714 0.0
H165 H 0.47551 0.41286 0.27523 0.0
H166 H 0.53904 0.33441 0.26182 0.0
C167 C 0.4895 0.3428 0.27202 0.0
C168 C 0.49209 0.4281 0.21862 0.0
C169 C 0.63672 0.34302 0.15726 0.0
H170 H 0.23549 0.17467 0.25662 0.0
H171 H 0.65021 0.54317 0.08755 0.0
H172 H 0.14213 0.64081 0.50455 0.0
H173 H 1.03334 0.76502 0.6031 0.0
H174 H 1.01473 0.39566 0.50307 0.0
H175 H 0.14111 0.51418 0.60687 0.0
H176 H 0.99399 0.72134 0.56476 0.0
H177 H 0.10534 0.69451 0.53916 0.0
C178 C 0.10168 0.59995 0.5108 0.0
C179 C 0.08209 0.51317 0.50078 0.0
C180 C 1.02335 0.67484 0.57405 0.0
C181 C 0.04416 0.57263 0.54106 0.0
C182 C 0.04435 0.6989 0.59603 0.0
C183 C 0.09145 0.64358 0.60843 0.0
C184 C 0.04674 0.5935 0.56428 0.0
C185 C 0.10476 0.5591 0.59816 0.0
C186 C 0.08229 0.63006 0.53086 0.0
C187 C 1.03131 0.46296 0.51019 0.0
N188 N 0.08388 0.53718 0.57668 0.0
N189 N 1.01793 0.49166 0.53015 0.0
H190 H 0.64308 0.31918 0.81836 0.0
H191 H 0.85463 0.55677 0.74145 0.0
H192 H 0.51698 0.51455 0.78629 0.0
H193 H 0.9525 0.31775 0.75856 0.0
H194 H 0.73413 0.54507 0.75965 0.0
H195 H 0.75911 0.31595 0.79755 0.0
C196 C 0.63955 0.36019 0.80667 0.0
C197 C 0.57197 0.41808 0.80409 0.0
C198 C 0.7819 0.49509 0.75954 0.0
C199 C 0.70321 0.41607 0.78068 0.0
C200 C 0.85118 0.50256 0.74942 0.0
C201 C 0.91415 0.43925 0.74907 0.0
C202 C 0.77555 0.42372 0.76944 0.0
C203 C 0.90535 0.36825 0.75884 0.0
C204 C 0.70552 0.35881 0.79492 0.0
C205 C 0.56927 0.47027 0.78886 0.0
N206 N 0.83746 0.36258 0.76883 0.0
N207 N 0.6345 0.46878 0.77789 0.0
H208 H 0.5142 0.67996 0.96277 0.0
H209 H 0.51263 0.33341 1.03678 0.0
H210 H 0.28512 0.51447 0.95322 0.0
H211 H 0.54142 0.60857 0.06104 0.0
H212 H 0.47686 0.36422 1.00075 0.0
H213 H 0.57878 0.61289 0.99275 0.0
C214 C 0.47988 0.62539 0.96602 0.0
C215 C 0.3943 0.60235 0.95534 0.0
C216 C 0.49135 0.41746 1.01405 0.0
C217 C 0.46742 0.52626 0.98974 0.0
C218 C 0.50969 0.4002 1.03461 0.0
C219 C 0.52491 0.46878 0.05208 0.0
C220 C 0.49322 0.50361 1.01094 0.0
C221 C 0.52809 0.55382 0.04812 0.0
C222 C 0.51606 0.58854 0.98343 0.0
C223 C 0.3516 0.53342 0.96087 0.0
N224 N 0.5123 0.56882 1.02804 0.0
N225 N 0.38798 0.49857 0.97788 0.0
H226 H 0.77432 0.69654 0.33261 0.0
H227 H 0.6599 0.37849 0.22105 0.0
H228 H 0.9111 0.46423 0.3154 0.0
H229 H 0.50526 0.59514 0.24009 0.0
H230 H 0.77303 0.43046 0.25182 0.0
H231 H 0.6913 0.67661 0.29643 0.0
C232 C 0.78617 0.6409 0.3212 0.0
C233 C 0.84751 0.58043 0.32716 0.0
C234 C 0.71556 0.46827 0.24897 0.0
C235 C 0.75463 0.5581 0.28557 0.0
C236 C 0.65168 0.4398 0.23102 0.0
C237 C 0.57224 0.48185 0.22811 0.0
C238 C 0.69998 0.53961 0.264 0.0
C239 C 0.56521 0.56035 0.24184 0.0
C240 C 0.73937 0.62983 0.30053 0.0
C241 C 0.86198 0.51043 0.31169 0.0
N242 N 0.62698 0.58537 0.2595 0.0
N243 N 0.81561 0.50094 0.29167 0.0
H244 H 0.38761 0.40321 0.30064 0.0
H245 H 0.12437 0.24028 0.37722 0.0
H246 H 0.29795 0.13623 0.29121 0.0
H247 H 0.28165 0.47688 0.39399 0.0
H248 H 0.20266 0.1908 0.34853 0.0
H249 H 0.36353 0.4245 0.33669 0.0
C250 C 0.36555 0.34813 0.30629 0.0
C251 C 0.34642 0.26723 0.29283 0.0
C252 C 0.22265 0.25205 0.359 0.0
C253 C 0.31433 0.29246 0.33416 0.0
C254 C 0.17892 0.27957 0.37565 0.0
C255 C 0.1976 0.3622 0.38832 0.0
C256 C 0.28412 0.30851 0.35472 0.0
C257 C 0.26703 0.41165 0.38511 0.0
C258 C 0.35082 0.3606 0.32693 0.0
C259 C 0.31352 0.19972 0.30098 0.0
N260 N 0.30607 0.38522 0.36832 0.0
N261 N 0.29751 0.21406 0.32095 0.0
H262 H 0.31474 0.7261 0.73866 0.0
H263 H 0.41792 0.84981 0.84693 0.0
H264 H 0.05687 0.81271 0.74387 0.0
H265 H 0.17344 0.71078 0.83922 0.0
H266 H 0.37366 0.88322 0.8116 0.0
H267 H 0.35893 0.76789 0.77706 0.0
C268 C 0.26828 0.7572 0.74765 0.0
C269 C 0.18149 0.76496 0.73779 0.0
C270 C 0.32833 0.84832 0.81797 0.0
C271 C 0.23103 0.80967 0.78203 0.0
C272 C 0.35236 0.83127 0.83844 0.0
C273 C 0.30021 0.77565 0.84605 0.0
C274 C 0.24949 0.81305 0.80532 0.0
C275 C 0.21625 0.75326 0.83409 0.0
C276 C 0.29338 0.78026 0.76968 0.0
C277 C 0.12431 0.80474 0.75066 0.0
N278 N 0.19437 0.76996 0.81411 0.0
N279 N 0.14896 0.82231 0.77205 0.0
H280 H 0.18416 0.12138 1.01059 0.0
H281 H 0.39969 0.14556 0.12585 0.0
H282 H 0.25953 0.88286 1.03189 0.0
H283 H 0.19969 0.31984 0.10715 0.0
H284 H 0.34132 0.03923 0.09422 0.0
H285 H 0.18615 0.19119 1.04683 0.0
C286 C 0.20081 0.08333 1.02285 0.0
C287 C 0.22395 0.99643 1.01804 0.0
C288 C 0.30796 0.0993 0.09745 0.0
C289 C 0.22714 0.07687 0.05996 0.0
C290 C 0.34031 0.15968 0.11579 0.0
C291 C 0.30634 0.24313 0.11876 0.0
C292 C 0.24157 0.1232 0.0822 0.0
C293 C 0.22916 0.25707 0.10517 0.0
C294 C 0.20156 0.12327 1.04361 0.0
C295 C 0.24514 0.95087 1.03479 0.0
N296 N 0.20159 0.19944 0.087 0.0
N297 N 0.2479 0.99206 0.05505 0.0
H298 H 0.43607 0.12101 0.50927 0.0
H299 H 0.44863 0.99988 0.62264 0.0
H300 H 0.46275 0.30943 0.56668 0.0
H301 H 0.44419 0.80661 0.56684 0.0
H302 H 0.45986 0.11394 0.60233 0.0
H303 H 0.44564 1.00395 0.52981 0.0
C304 C 0.44438 0.13727 0.52625 0.0
C305 C 0.44726 0.22419 0.53642 0.0
C306 C 0.45668 0.04674 0.59444 0.0
C307 C 0.45872 0.09203 0.55993 0.0
C308 C 0.45034 0.98192 0.60604 0.0
C309 C 0.44458 0.89445 0.59624 0.0
C310 C 0.45708 1.02389 0.57282 0.0
C311 C 0.44686 0.8737 0.57475 0.0
C312 C 0.45012 0.07085 0.53795 0.0
C313 C 0.46008 0.24288 0.55839 0.0
N314 N 0.45248 0.93816 0.56366 0.0
N315 N 0.46448 0.17728 0.56943 0.0
H316 H 0.33037 0.19345 0.46276 0.0
H317 H 1.00744 0.77662 0.42158 0.0
H318 H 0.06878 0.20287 0.4281 0.0
H319 H 0.26381 0.76859 0.45907 0.0
H320 H 1.02847 0.93257 0.4241 0.0
H321 H 0.30949 1.03734 0.46037 0.0
C322 C 0.26884 0.16225 0.45432 0.0
C323 C 0.20087 0.21136 0.44576 0.0
C324 C 0.07999 0.89718 0.43196 0.0
C325 C 0.17617 1.03237 0.44318 0.0
C326 C 0.06786 0.80814 0.43064 0.0
C327 C 0.13419 0.75952 0.44008 0.0
C328 C 0.15939 0.93845 0.44271 0.0
C329 C 0.21082 0.80371 0.4517 0.0
C330 C 0.25681 0.07316 0.45312 0.0
C331 C 0.12293 0.16753 0.43488 0.0
N332 N 0.2217 0.8907 0.45252 0.0
N333 N 0.11243 0.08057 0.43406 0.0
H334 H 0.47005 0.47824 0.66046 0.0
H335 H 0.91547 0.7406 0.67203 0.0
H336 H 0.50696 0.74515 0.69201 0.0
H337 H 0.90653 0.46396 0.66972 0.0
H338 H 0.76104 0.74443 0.67517 0.0
H339 H 0.62719 0.47029 0.66165 0.0
C340 C 0.51191 0.53414 0.66843 0.0
C341 C 0.47573 0.61196 0.67651 0.0
C342 C 0.79292 0.68288 0.6738 0.0
C343 C 0.65493 0.60528 0.67663 0.0
C344 C 0.88044 0.68044 0.67158 0.0
C345 C 0.92354 0.60163 0.67026 0.0
C346 C 0.74797 0.60579 0.67437 0.0
C347 C 0.87556 0.52596 0.67043 0.0
C348 C 0.60139 0.53008 0.66878 0.0
C349 C 0.53256 0.6834 0.68603 0.0
N350 N 0.79055 0.52983 0.67236 0.0
N351 N 0.61915 0.67906 0.6854 0.0
H352 H 0.24827 0.35344 0.8634 0.0
H353 H 0.39812 1.03453 0.94391 0.0
H354 H 0.40275 0.43885 0.92535 0.0
H355 H 0.2939 0.94351 0.87794 0.0
H356 H 0.39324 0.18332 0.93798 0.0
H357 H 0.2539 0.20404 0.8693 0.0
C358 C 0.28224 0.34077 0.87842 0.0
C359 C 0.32408 0.40872 0.89409 0.0
C360 C 0.37198 0.13098 0.92475 0.0
C361 C 0.33172 0.23774 0.90083 0.0
C362 C 0.37478 0.04585 0.92808 0.0
C363 C 0.34602 0.97643 0.91136 0.0
C364 C 0.33937 0.14738 0.90456 0.0
C365 C 0.3171 0.99503 0.89122 0.0
C366 C 0.28585 0.25545 0.88171 0.0
C367 C 0.36733 0.38882 0.91319 0.0
N368 N 0.31375 0.07902 0.8884 0.0
N369 N 0.37029 0.30494 0.91602 0.0
H370 H 0.18283 0.33663 0.21408 0.0
H371 H 0.74618 0.35504 0.1299 0.0
H372 H 0.18035 0.34434 0.14871 0.0
H373 H 0.74911 0.3278 0.19416 0.0
H374 H 0.90431 0.35501 0.13672 0.0
H375 H 1.02486 0.33799 0.20722 0.0
C376 C 0.14925 0.33857 0.19821 0.0
C377 C 0.1956 0.3399 0.1819 0.0
C378 C 0.87054 0.34897 0.14934 0.0
C379 C 1.01305 0.34173 0.17399 0.0
C380 C 0.77982 0.34894 0.1455 0.0
C381 C 0.73348 0.34145 0.16152 0.0
C382 C 0.91618 0.34166 0.16938 0.0
C383 C 0.78157 0.33385 0.18134 0.0
C384 C 0.05862 0.33935 0.19434 0.0
C385 C 0.1477 0.34309 0.16176 0.0
N386 N 0.8702 0.33426 0.1847 0.0
N387 N 0.05906 0.3438 0.15838 0.0
H388 H 0.28539 0.91876 0.6409 0.0
H389 H 0.29621 0.37713 0.71329 0.0
H390 H 0.20757 0.94988 0.70127 0.0
H391 H 0.18976 0.35296 0.64695 0.0
H392 H 0.30025 0.22011 0.70903 0.0
H393 H 0.28218 0.07617 0.64289 0.0
C394 C 0.268 0.95872 0.65467 0.0
C395 C 0.24724 0.92091 0.67108 0.0
C396 C 0.2766 0.24909 0.69537 0.0
C397 C 0.24476 0.10147 0.6734 0.0
C398 C 0.27475 0.339 0.69767 0.0
C399 C 0.24123 0.37911 0.68046 0.0
C400 C 0.24711 0.19757 0.67562 0.0
C401 C 0.21603 0.32532 0.66064 0.0
C402 C 0.26563 0.04845 0.65564 0.0
C403 C 0.22418 0.97609 0.68833 0.0
N404 N 0.21942 0.23694 0.65873 0.0
N405 N 0.22481 0.06379 0.68918 0.0
H406 H 0.6254 0.53835 0.87496 0.0
H407 H 0.05302 0.81798 0.93584 0.0
H408 H 0.62258 0.77184 0.92114 0.0
H409 H 0.05362 0.61344 0.88221 0.0
H410 H 0.89717 0.7971 0.93157 0.0
H411 H 0.78264 0.55797 0.87898 0.0
C412 C 0.65786 0.59365 0.88607 0.0
C413 C 0.61016 0.65426 0.89756 0.0
C414 C 0.93091 0.75697 0.92061 0.0
C415 C 0.79115 0.67666 0.90227 0.0
C416 C 1.02053 0.76904 0.92296 0.0
C417 C 0.06742 0.71769 0.9093 0.0
C418 C 0.88664 0.69223 0.90458 0.0
C419 C 1.02048 0.65493 0.89305 0.0
C420 C 0.7478 0.6048 0.88828 0.0
C421 C 0.65633 0.72356 0.91195 0.0
N422 N 0.93267 0.64358 0.89122 0.0
N423 N 0.74415 0.73304 0.91381 0.0
H424 H 0.4945 0.62072 0.1327 0.0
H425 H 0.42085 0.05238 0.21216 0.0
H426 H 0.44792 0.62092 0.19535 0.0
H427 H 0.48409 0.05342 0.15108 0.0
H428 H 0.42675 0.89501 0.20584 0.0
H429 H 0.48825 0.77808 0.13897 0.0
C430 C 0.48302 0.65368 0.14785 0.0
C431 C 0.47149 0.6068 0.16353 0.0
C432 C 0.43932 0.92943 0.1938 0.0
C433 C 0.46406 0.78866 0.17074 0.0
C434 C 0.43593 1.01973 0.19734 0.0
C435 C 0.45229 0.06702 0.18213 0.0
C436 C 0.45906 0.88507 0.17485 0.0
C437 C 0.47094 1.02015 0.16326 0.0
C438 C 0.47947 0.74396 0.15138 0.0
C439 C 0.45708 0.65396 0.18279 0.0
N440 N 0.47391 0.93185 0.16018 0.0
N441 N 0.45359 0.74223 0.18582 0.0
H442 H 0.91914 0.48019 0.46682 0.0
H443 H 0.40859 0.48139 0.41918 0.0
H444 H 0.81622 0.4856 0.40143 0.0
H445 H 0.51711 0.51424 0.48551 0.0
H446 H 0.5565 0.4788 0.41188 0.0
H447 H 0.77071 0.48467 0.47355 0.0
C448 C 0.86551 0.48168 0.45385 0.0
C449 C 0.88057 0.4826 0.43355 0.0
C450 C 0.54768 0.48694 0.42804 0.0
C451 C 0.7102 0.48831 0.44114 0.0
C452 C 0.46312 0.48887 0.43219 0.0
C453 C 0.4498 0.4973 0.45293 0.0
C454 C 0.61942 0.49332 0.44478 0.0
C455 C 0.52358 0.5065 0.46921 0.0
C456 C 0.78068 0.4847 0.45771 0.0
C457 C 0.80811 0.48481 0.41736 0.0
N458 N 0.60484 0.50377 0.46479 0.0
N459 N 0.72626 0.48766 0.4215 0.0
loop_
_geom_bond_atom_site_label_1
_geom_bond_atom_site_label_2
_geom_bond_distance
_geom_bond_site_symmetry_2
_ccdc_geom_bond_type
Co0 N1 2.034 . S
Co0 O15 2.262 . S
Co0 O19 1.958 . S
Co0 O23 1.950 . S
Co0 O24 2.057 . S
N1 Co0 2.034 . S
N1 C2 1.366 . S
N1 C4 1.332 . S
C2 N1 1.366 . S
C2 C5 1.377 . S
C2 H34 0.931 . S
N3 C4 1.346 . S
N3 C5 1.337 . S
C4 N1 1.332 . S
C4 N3 1.346 . S
C4 C38 1.361 . S
C5 C2 1.377 . S
C5 N3 1.337 . S
C5 H41 0.930 . S
Co6 N7 2.034 . S
Co6 O20 1.950 . S
Co6 O21 2.262 1_655 S
Co6 O22 1.958 1_655 S
Co6 O26 2.057 1_655 S
N7 Co6 2.034 . S
N7 C10 1.366 . S
N7 C11 1.332 . S
N8 C9 1.337 . S
N8 C11 1.346 . S
C9 N8 1.337 . S
C9 C10 1.377 . S
C9 H42 0.930 . S
C10 N7 1.366 . S
C10 C9 1.377 . S
C10 H14 0.931 . S
C11 N7 1.332 . S
C11 N8 1.346 . S
C11 C28 1.361 . S
Co12 O15 2.097 . S
Co12 O16 2.065 1_455 S
Co12 O17 2.065 . S
Co12 O18 2.042 . S
Co12 O21 2.097 . S
Co12 O25 2.042 . S
C13 O21 1.253 . S
C13 O26 1.263 . S
H14 C10 0.931 . S
O15 Co0 2.262 . S
O15 Co12 2.097 . S
O15 C39 1.253 . S
O16 Co12 2.065 1_655 S
O16 C32 1.221 . S
O17 Co12 2.065 . S
O17 C27 1.221 . S
O18 Co12 2.042 . S
O18 C33 1.237 . S
O19 Co0 1.958 . S
O19 C33 1.278 . S
O20 Co6 1.950 . S
O20 C32 1.277 . S
O21 Co6 2.262 1_455 S
O21 Co12 2.097 . S
O21 C13 1.253 . S
O22 Co6 1.958 1_455 S
O22 C40 1.278 . S
O23 Co0 1.950 . S
O23 C27 1.277 . S
O24 Co0 2.057 . S
O24 C39 1.263 . S
O25 Co12 2.042 . S
O25 C40 1.237 . S
O26 Co6 2.057 1_455 S
O26 C13 1.263 . S
C27 O17 1.221 . S
C27 O23 1.277 . S
C28 C11 1.361 . S
C28 H29 0.960 . S
C28 H30 0.961 . S
C28 H31 0.961 . S
H29 C28 0.960 . S
H30 C28 0.961 . S
H31 C28 0.961 . S
C32 O16 1.221 . S
C32 O20 1.277 . S
C33 O18 1.237 . S
C33 O19 1.278 . S
H34 C2 0.931 . S
H35 C38 0.961 . S
H36 C38 0.961 . S
H37 C38 0.960 . S
C38 C4 1.361 . S
C38 H35 0.961 . S
C38 H36 0.961 . S
C38 H37 0.960 . S
C39 O15 1.253 . S
C39 O24 1.263 . S
C40 O22 1.278 . S
C40 O25 1.237 . S
H41 C5 0.930 . S
H42 C9 0.930 . S
Co43 N44 2.034 . S
Co43 O58 2.262 . S
Co43 O62 1.958 . S
Co43 O66 1.950 . S
Co43 O67 2.057 . S
N44 Co43 2.034 . S
N44 C45 1.366 . S
N44 C47 1.332 . S
C45 N44 1.366 . S
C45 C48 1.377 . S
C45 H77 0.931 . S
N46 C47 1.346 1_655 S
N46 C48 1.337 1_655 S
C47 N44 1.332 . S
C47 N46 1.346 1_455 S
C47 C81 1.361 1_455 S
C48 C45 1.377 . S
C48 N46 1.337 1_455 S
C48 H84 0.930 . S
Co49 N50 2.034 . S
Co49 O63 1.950 . S
Co49 O64 2.262 . S
Co49 O65 1.958 . S
Co49 O69 2.057 . S
N50 Co49 2.034 . S
N50 C53 1.366 . S
N50 C54 1.332 . S
N51 C52 1.337 . S
N51 C54 1.346 . S
C52 N51 1.337 . S
C52 C53 1.377 . S
C52 H85 0.930 . S
C53 N50 1.366 . S
C53 C52 1.377 . S
C53 H57 0.931 . S
C54 N50 1.332 . S
C54 N51 1.346 . S
C54 C71 1.361 . S
Co55 O58 2.097 . S
Co55 O59 2.065 . S
Co55 O60 2.065 . S
Co55 O61 2.042 . S
Co55 O64 2.097 . S
Co55 O68 2.042 . S
C56 O64 1.253 . S
C56 O69 1.263 . S
H57 C53 0.931 . S
O58 Co43 2.262 . S
O58 Co55 2.097 . S
O58 C82 1.253 . S
O59 Co55 2.065 . S
O59 C75 1.221 . S
O60 Co55 2.065 . S
O60 C70 1.221 . S
O61 Co55 2.042 . S
O61 C76 1.237 . S
O62 Co43 1.958 . S
O62 C76 1.278 . S
O63 Co49 1.950 . S
O63 C75 1.277 . S
O64 Co49 2.262 . S
O64 Co55 2.097 . S
O64 C56 1.253 . S
O65 Co49 1.958 . S
O65 C83 1.278 . S
O66 Co43 1.950 . S
O66 C70 1.277 . S
O67 Co43 2.057 . S
O67 C82 1.263 . S
O68 Co55 2.042 . S
O68 C83 1.237 . S
O69 Co49 2.057 . S
O69 C56 1.263 . S
C70 O60 1.221 . S
C70 O66 1.277 . S
C71 C54 1.361 . S
C71 H72 0.960 . S
C71 H73 0.961 . S
C71 H74 0.961 . S
H72 C71 0.960 . S
H73 C71 0.961 . S
H74 C71 0.961 . S
C75 O59 1.221 . S
C75 O63 1.277 . S
C76 O61 1.237 . S
C76 O62 1.278 . S
H77 C45 0.931 . S
H78 C81 0.961 1_455 S
H79 C81 0.961 . S
H80 C81 0.960 1_455 S
C81 C47 1.361 1_655 S
C81 H78 0.961 1_655 S
C81 H79 0.961 . S
C81 H80 0.960 1_655 S
C82 O58 1.253 . S
C82 O67 1.263 . S
C83 O65 1.278 . S
C83 O68 1.237 . S
H84 C48 0.930 . S
H85 C52 0.930 . S
Co86 N87 2.034 . S
Co86 O101 2.262 . S
Co86 O105 1.958 . S
Co86 O109 1.950 . S
Co86 O110 2.057 . S
N87 Co86 2.034 . S
N87 C88 1.366 . S
N87 C90 1.332 . S
C88 N87 1.366 . S
C88 C91 1.377 . S
C88 H120 0.931 . S
N89 C90 1.346 . S
N89 C91 1.337 . S
C90 N87 1.332 . S
C90 N89 1.346 . S
C90 C124 1.361 . S
C91 C88 1.377 . S
C91 N89 1.337 . S
C91 H127 0.930 . S
Co92 N93 2.034 . S
Co92 O106 1.950 . S
Co92 O107 2.262 . S
Co92 O108 1.958 . S
Co92 O112 2.057 . S
N93 Co92 2.034 . S
N93 C96 1.366 . S
N93 C97 1.332 . S
N94 C95 1.337 . S
N94 C97 1.346 . S
C95 N94 1.337 . S
C95 C96 1.377 . S
C95 H128 0.930 . S
C96 N93 1.366 . S
C96 C95 1.377 . S
C96 H100 0.931 . S
C97 N93 1.332 . S
C97 N94 1.346 . S
C97 C114 1.361 . S
Co98 O101 2.097 . S
Co98 O102 2.065 . S
Co98 O103 2.065 . S
Co98 O104 2.042 . S
Co98 O107 2.097 . S
Co98 O111 2.042 . S
C99 O107 1.253 . S
C99 O112 1.263 . S
H100 C96 0.931 . S
O101 Co86 2.262 . S
O101 Co98 2.097 . S
O101 C125 1.253 . S
O102 Co98 2.065 . S
O102 C118 1.221 . S
O103 Co98 2.065 . S
O103 C113 1.221 . S
O104 Co98 2.042 . S
O104 C119 1.237 . S
O105 Co86 1.958 . S
O105 C119 1.278 . S
O106 Co92 1.950 . S
O106 C118 1.277 . S
O107 Co92 2.262 . S
O107 Co98 2.097 . S
O107 C99 1.253 . S
O108 Co92 1.958 . S
O108 C126 1.278 . S
O109 Co86 1.950 . S
O109 C113 1.277 . S
O110 Co86 2.057 . S
O110 C125 1.263 . S
O111 Co98 2.042 . S
O111 C126 1.237 . S
O112 Co92 2.057 . S
O112 C99 1.263 . S
C113 O103 1.221 . S
C113 O109 1.277 . S
C114 C97 1.361 . S
C114 H115 0.960 . S
C114 H116 0.961 . S
C114 H117 0.961 . S
H115 C114 0.960 . S
H116 C114 0.961 . S
H117 C114 0.961 . S
C118 O102 1.221 . S
C118 O106 1.277 . S
C119 O104 1.237 . S
C119 O105 1.278 . S
H120 C88 0.931 . S
H121 C124 0.961 . S
H122 C124 0.961 1_545 S
H123 C124 0.960 . S
C124 C90 1.361 . S
C124 H121 0.961 . S
C124 H122 0.961 1_565 S
C124 H123 0.960 . S
C125 O101 1.253 . S
C125 O110 1.263 . S
C126 O108 1.278 . S
C126 O111 1.237 . S
H127 C91 0.930 . S
H128 C95 0.930 . S
Co129 N130 2.034 . S
Co129 O144 2.262 . S
Co129 O148 1.958 . S
Co129 O152 1.950 . S
Co129 O153 2.057 . S
N130 Co129 2.034 . S
N130 C131 1.366 . S
N130 C133 1.332 . S
C131 N130 1.366 . S
C131 C134 1.377 . S
C131 H163 0.931 . S
N132 C133 1.346 . S
N132 C134 1.337 . S
C133 N130 1.332 . S
C133 N132 1.346 . S
C133 C167 1.361 . S
C134 C131 1.377 . S
C134 N132 1.337 . S
C134 H170 0.930 . S
Co135 N136 2.034 . S
Co135 O149 1.950 . S
Co135 O150 2.262 . S
Co135 O151 1.958 . S
Co135 O155 2.057 . S
N136 Co135 2.034 . S
N136 C139 1.366 . S
N136 C140 1.332 . S
N137 C138 1.337 . S
N137 C140 1.346 . S
C138 N137 1.337 . S
C138 C139 1.377 . S
C138 H171 0.930 . S
C139 N136 1.366 . S
C139 C138 1.377 . S
C139 H143 0.931 . S
C140 N136 1.332 . S
C140 N137 1.346 . S
C140 C157 1.361 . S
Co141 O144 2.097 . S
Co141 O145 2.065 . S
Co141 O146 2.065 . S
Co141 O147 2.042 . S
Co141 O150 2.097 . S
Co141 O154 2.042 . S
C142 O150 1.253 . S
C142 O155 1.263 . S
H143 C139 0.931 . S
O144 Co129 2.262 . S
O144 Co141 2.097 . S
O144 C168 1.253 . S
O145 Co141 2.065 . S
O145 C161 1.221 . S
O146 Co141 2.065 . S
O146 C156 1.221 . S
O147 Co141 2.042 . S
O147 C162 1.237 . S
O148 Co129 1.958 . S
O148 C162 1.278 . S
O149 Co135 1.950 . S
O149 C161 1.277 . S
O150 Co135 2.262 . S
O150 Co141 2.097 . S
O150 C142 1.253 . S
O151 Co135 1.958 . S
O151 C169 1.278 . S
O152 Co129 1.950 . S
O152 C156 1.277 . S
O153 Co129 2.057 . S
O153 C168 1.263 . S
O154 Co141 2.042 . S
O154 C169 1.237 . S
O155 Co135 2.057 . S
O155 C142 1.263 . S
C156 O146 1.221 . S
C156 O152 1.277 . S
C157 C140 1.361 . S
C157 H158 0.960 . S
C157 H159 0.961 . S
C157 H160 0.961 . S
H158 C157 0.960 . S
H159 C157 0.961 . S
H160 C157 0.961 . S
C161 O145 1.221 . S
C161 O149 1.277 . S
C162 O147 1.237 . S
C162 O148 1.278 . S
H163 C131 0.931 . S
H164 C167 0.961 . S
H165 C167 0.961 . S
H166 C167 0.960 . S
C167 C133 1.361 . S
C167 H164 0.961 . S
C167 H165 0.961 . S
C167 H166 0.960 . S
C168 O144 1.253 . S
C168 O153 1.263 . S
C169 O151 1.278 . S
C169 O154 1.237 . S
H170 C134 0.930 . S
H171 C138 0.930 . S
H172 C178 0.930 . S
H173 C182 0.930 . S
H174 C187 0.929 1_655 S
H175 C185 0.929 . S
H176 C180 0.929 . S
H177 C186 0.929 . S
C178 H172 0.930 . S
C178 C179 1.367 . S
C178 C186 1.378 . S
C179 C178 1.367 . S
C179 C187 1.433 . S
C180 H176 0.929 . S
C180 C182 1.378 . S
C180 C184 1.350 . S
C181 C184 1.463 . S
C181 C186 1.350 . S
C181 N189 1.427 . S
C182 H173 0.930 . S
C182 C180 1.378 . S
C182 C183 1.367 . S
C183 C182 1.367 . S
C183 C185 1.433 . S
C184 C180 1.350 . S
C184 C181 1.463 . S
C184 N188 1.427 . S
C185 H175 0.929 . S
C185 C183 1.433 . S
C185 N188 1.384 . S
C186 H177 0.929 . S
C186 C178 1.378 . S
C186 C181 1.350 . S
C187 H174 0.929 1_455 S
C187 C179 1.433 . S
C187 N189 1.384 . S
N188 C184 1.427 . S
N188 C185 1.384 . S
N189 C181 1.427 . S
N189 C187 1.384 . S
H190 C196 0.930 . S
H191 C200 0.930 . S
H192 C205 0.929 . S
H193 C203 0.929 1_455 S
H194 C198 0.929 . S
H195 C204 0.929 . S
C196 H190 0.930 . S
C196 C197 1.367 . S
C196 C204 1.378 . S
C197 C196 1.367 . S
C197 C205 1.433 . S
C198 H194 0.929 . S
C198 C200 1.378 . S
C198 C202 1.350 . S
C199 C202 1.463 . S
C199 C204 1.350 . S
C199 N207 1.427 . S
C200 H191 0.930 . S
C200 C198 1.378 . S
C200 C201 1.367 . S
C201 C200 1.367 . S
C201 C203 1.433 . S
C202 C198 1.350 . S
C202 C199 1.463 . S
C202 N206 1.427 . S
C203 H193 0.929 1_655 S
C203 C201 1.433 . S
C203 N206 1.384 . S
C204 H195 0.929 . S
C204 C196 1.378 . S
C204 C199 1.350 . S
C205 H192 0.929 . S
C205 C197 1.433 . S
C205 N207 1.384 . S
N206 C202 1.427 . S
N206 C203 1.384 . S
N207 C199 1.427 . S
N207 C205 1.384 . S
H208 C214 0.930 . S
H209 C218 0.930 . S
H210 C223 0.929 . S
H211 C221 0.929 . S
H212 C216 0.929 . S
H213 C222 0.929 . S
C214 H208 0.930 . S
C214 C215 1.367 . S
C214 C222 1.378 . S
C215 C214 1.367 . S
C215 C223 1.433 . S
C216 H212 0.929 . S
C216 C218 1.378 1_556 S
C216 C220 1.350 . S
C217 C220 1.463 . S
C217 C222 1.350 . S
C217 N225 1.427 . S
C218 H209 0.930 . S
C218 C216 1.378 1_554 S
C218 C219 1.367 . S
C219 C218 1.367 . S
C219 C221 1.433 . S
C220 C216 1.350 . S
C220 C217 1.463 . S
C220 N224 1.441 . S
C221 H211 0.929 . S
C221 C219 1.433 . S
C221 N224 1.361 1_554 S
C222 H213 0.929 . S
C222 C214 1.378 . S
C222 C217 1.350 . S
C223 H210 0.929 . S
C223 C215 1.433 . S
C223 N225 1.384 . S
N224 C220 1.441 . S
N224 C221 1.361 1_556 S
N225 C217 1.427 . S
N225 C223 1.384 . S
H226 C232 0.930 . S
H227 C236 0.930 . S
H228 C241 0.929 . S
H229 C239 0.929 . S
H230 C234 0.929 . S
H231 C240 0.929 . S
C232 H226 0.930 . S
C232 C233 1.367 . S
C232 C240 1.378 . S
C233 C232 1.367 . S
C233 C241 1.433 . S
C234 H230 0.929 . S
C234 C236 1.378 . S
C234 C238 1.350 . S
C235 C238 1.463 . S
C235 C240 1.350 . S
C235 N243 1.427 . S
C236 H227 0.930 . S
C236 C234 1.378 . S
C236 C237 1.367 . S
C237 C236 1.367 . S
C237 C239 1.433 . S
C238 C234 1.350 . S
C238 C235 1.463 . S
C238 N242 1.427 . S
C239 H229 0.929 . S
C239 C237 1.433 . S
C239 N242 1.384 . S
C240 H231 0.929 . S
C240 C232 1.378 . S
C240 C235 1.350 . S
C241 H228 0.929 . S
C241 C233 1.433 . S
C241 N243 1.384 . S
N242 C238 1.427 . S
N242 C239 1.384 . S
N243 C235 1.427 . S
N243 C241 1.384 . S
H244 C250 0.930 . S
H245 C254 0.930 . S
H246 C259 0.929 . S
H247 C257 0.929 . S
H248 C252 0.929 . S
H249 C258 0.929 . S
C250 H244 0.930 . S
C250 C251 1.367 . S
C250 C258 1.378 . S
C251 C250 1.367 . S
C251 C259 1.433 . S
C252 H248 0.929 . S
C252 C254 1.378 . S
C252 C256 1.350 . S
C253 C256 1.463 . S
C253 C258 1.350 . S
C253 N261 1.427 . S
C254 H245 0.930 . S
C254 C252 1.378 . S
C254 C255 1.367 . S
C255 C254 1.367 . S
C255 C257 1.433 . S
C256 C252 1.350 . S
C256 C253 1.463 . S
C256 N260 1.427 . S
C257 H247 0.929 . S
C257 C255 1.433 . S
C257 N260 1.384 . S
C258 H249 0.929 . S
C258 C250 1.378 . S
C258 C253 1.350 . S
C259 H246 0.929 . S
C259 C251 1.433 . S
C259 N261 1.384 . S
N260 C256 1.427 . S
N260 C257 1.384 . S
N261 C253 1.427 . S
N261 C259 1.384 . S
H262 C268 0.930 . S
H263 C272 0.930 . S
H264 C277 0.929 . S
H265 C275 0.929 . S
H266 C270 0.929 . S
H267 C276 0.929 . S
C268 H262 0.930 . S
C268 C269 1.367 . S
C268 C276 1.378 . S
C269 C268 1.367 . S
C269 C277 1.433 . S
C270 H266 0.929 . S
C270 C272 1.378 . S
C270 C274 1.350 . S
C271 C274 1.463 . S
C271 C276 1.350 . S
C271 N279 1.427 . S
C272 H263 0.930 . S
C272 C270 1.378 . S
C272 C273 1.367 . S
C273 C272 1.367 . S
C273 C275 1.433 . S
C274 C270 1.350 . S
C274 C271 1.463 . S
C274 N278 1.427 . S
C275 H265 0.929 . S
C275 C273 1.433 . S
C275 N278 1.384 . S
C276 H267 0.929 . S
C276 C268 1.378 . S
C276 C271 1.350 . S
C277 H264 0.929 . S
C277 C269 1.433 . S
C277 N279 1.384 . S
N278 C274 1.427 . S
N278 C275 1.384 . S
N279 C271 1.427 . S
N279 C277 1.384 . S
H280 C286 0.930 . S
H281 C290 0.930 . S
H282 C295 0.929 1_565 S
H283 C293 0.929 . S
H284 C288 0.929 . S
H285 C294 0.929 . S
C286 H280 0.930 . S
C286 C287 1.367 . S
C286 C294 1.378 . S
C287 C286 1.367 . S
C287 C295 1.433 . S
C288 H284 0.929 . S
C288 C290 1.378 . S
C288 C292 1.350 . S
C289 C292 1.463 . S
C289 C294 1.350 1_554 S
C289 N297 1.427 . S
C290 H281 0.930 . S
C290 C288 1.378 . S
C290 C291 1.367 . S
C291 C290 1.367 . S
C291 C293 1.433 . S
C292 C288 1.350 . S
C292 C289 1.463 . S
C292 N296 1.427 . S
C293 H283 0.929 . S
C293 C291 1.433 . S
C293 N296 1.384 . S
C294 H285 0.929 . S
C294 C286 1.378 . S
C294 C289 1.350 1_556 S
C295 H282 0.929 1_545 S
C295 C287 1.433 . S
C295 N297 1.384 1_556 S
N296 C292 1.427 . S
N296 C293 1.384 . S
N297 C289 1.427 . S
N297 C295 1.384 1_554 S
H298 C304 0.930 . S
H299 C308 0.930 . S
H300 C313 0.929 . S
H301 C311 0.929 . S
H302 C306 0.929 1_545 S
H303 C312 0.929 . S
C304 H298 0.930 . S
C304 C305 1.367 1_565 S
C304 C312 1.378 . S
C305 C304 1.367 1_545 S
C305 C313 1.433 . S
C306 H302 0.929 1_565 S
C306 C308 1.378 . S
C306 C310 1.350 . S
C307 C310 1.463 . S
C307 C312 1.350 . S
C307 N315 1.427 1_565 S
C308 H299 0.930 . S
C308 C306 1.378 . S
C308 C309 1.367 . S
C309 C308 1.367 . S
C309 C311 1.433 . S
C310 C306 1.350 . S
C310 C307 1.463 . S
C310 N314 1.427 . S
C311 H301 0.929 . S
C311 C309 1.433 . S
C311 N314 1.384 . S
C312 H303 0.929 . S
C312 C304 1.378 . S
C312 C307 1.350 . S
C313 H300 0.929 . S
C313 C305 1.433 . S
C313 N315 1.384 . S
N314 C310 1.427 . S
N314 C311 1.384 . S
N315 C307 1.427 1_545 S
N315 C313 1.384 . S
H316 C322 0.930 . S
H317 C326 0.930 . S
H318 C331 0.929 . S
H319 C329 0.929 . S
H320 C324 0.929 . S
H321 C330 0.929 . S
C322 H316 0.930 . S
C322 C323 1.367 . S
C322 C330 1.378 1_545 S
C323 C322 1.367 . S
C323 C331 1.433 . S
C324 H320 0.929 . S
C324 C326 1.378 . S
C324 C328 1.350 . S
C325 C328 1.463 . S
C325 C330 1.350 . S
C325 N333 1.427 . S
C326 H317 0.930 . S
C326 C324 1.378 . S
C326 C327 1.367 . S
C327 C326 1.367 . S
C327 C329 1.433 . S
C328 C324 1.350 . S
C328 C325 1.463 . S
C328 N332 1.427 . S
C329 H319 0.929 . S
C329 C327 1.433 . S
C329 N332 1.384 . S
C330 H321 0.929 . S
C330 C322 1.378 1_565 S
C330 C325 1.350 . S
C331 H318 0.929 . S
C331 C323 1.433 . S
C331 N333 1.384 1_545 S
N332 C328 1.427 . S
N332 C329 1.384 . S
N333 C325 1.427 . S
N333 C331 1.384 1_565 S
H334 C340 0.930 . S
H335 C344 0.930 . S
H336 C349 0.929 . S
H337 C347 0.929 . S
H338 C342 0.929 . S
H339 C348 0.929 . S
C340 H334 0.930 . S
C340 C341 1.367 . S
C340 C348 1.378 . S
C341 C340 1.367 . S
C341 C349 1.433 . S
C342 H338 0.929 . S
C342 C344 1.378 . S
C342 C346 1.350 . S
C343 C346 1.463 . S
C343 C348 1.350 . S
C343 N351 1.427 . S
C344 H335 0.930 . S
C344 C342 1.378 . S
C344 C345 1.367 . S
C345 C344 1.367 . S
C345 C347 1.433 . S
C346 C342 1.350 . S
C346 C343 1.463 . S
C346 N350 1.427 . S
C347 H337 0.929 . S
C347 C345 1.433 . S
C347 N350 1.384 . S
C348 H339 0.929 . S
C348 C340 1.378 . S
C348 C343 1.350 . S
C349 H336 0.929 . S
C349 C341 1.433 . S
C349 N351 1.384 . S
N350 C346 1.427 . S
N350 C347 1.384 . S
N351 C343 1.427 . S
N351 C349 1.384 . S
H352 C358 0.930 . S
H353 C362 0.930 . S
H354 C367 0.929 . S
H355 C365 0.929 . S
H356 C360 0.929 . S
H357 C366 0.929 . S
C358 H352 0.930 . S
C358 C359 1.367 . S
C358 C366 1.378 . S
C359 C358 1.367 . S
C359 C367 1.433 . S
C360 H356 0.929 . S
C360 C362 1.378 . S
C360 C364 1.350 . S
C361 C364 1.463 . S
C361 C366 1.350 . S
C361 N369 1.427 . S
C362 H353 0.930 . S
C362 C360 1.378 . S
C362 C363 1.367 1_545 S
C363 C362 1.367 1_565 S
C363 C365 1.433 . S
C364 C360 1.350 . S
C364 C361 1.463 . S
C364 N368 1.427 . S
C365 H355 0.929 . S
C365 C363 1.433 . S
C365 N368 1.384 1_565 S
C366 H357 0.929 . S
C366 C358 1.378 . S
C366 C361 1.350 . S
C367 H354 0.929 . S
C367 C359 1.433 . S
C367 N369 1.384 . S
N368 C364 1.427 . S
N368 C365 1.384 1_545 S
N369 C361 1.427 . S
N369 C367 1.384 . S
H370 C376 0.930 . S
H371 C380 0.930 . S
H372 C385 0.929 . S
H373 C383 0.929 . S
H374 C378 0.929 . S
H375 C384 0.929 . S
C376 H370 0.930 . S
C376 C377 1.367 . S
C376 C384 1.378 1_455 S
C377 C376 1.367 . S
C377 C385 1.433 . S
C378 H374 0.929 . S
C378 C380 1.378 . S
C378 C382 1.350 . S
C379 C382 1.463 . S
C379 C384 1.350 . S
C379 N387 1.427 . S
C380 H371 0.930 . S
C380 C378 1.378 . S
C380 C381 1.367 . S
C381 C380 1.367 . S
C381 C383 1.433 . S
C382 C378 1.350 . S
C382 C379 1.463 . S
C382 N386 1.427 . S
C383 H373 0.929 . S
C383 C381 1.433 . S
C383 N386 1.384 . S
C384 H375 0.929 . S
C384 C376 1.378 1_655 S
C384 C379 1.350 . S
C385 H372 0.929 . S
C385 C377 1.433 . S
C385 N387 1.384 1_455 S
N386 C382 1.427 . S
N386 C383 1.384 . S
N387 C379 1.427 . S
N387 C385 1.384 1_655 S
H388 C394 0.930 . S
H389 C398 0.930 . S
H390 C403 0.929 . S
H391 C401 0.929 . S
H392 C396 0.929 . S
H393 C402 0.929 . S
C394 H388 0.930 . S
C394 C395 1.367 . S
C394 C402 1.378 . S
C395 C394 1.367 . S
C395 C403 1.433 . S
C396 H392 0.929 . S
C396 C398 1.378 . S
C396 C400 1.350 . S
C397 C400 1.463 1_565 S
C397 C402 1.350 . S
C397 N405 1.427 . S
C398 H389 0.930 . S
C398 C396 1.378 . S
C398 C399 1.367 . S
C399 C398 1.367 . S
C399 C401 1.433 . S
C400 C396 1.350 . S
C400 C397 1.463 1_545 S
C400 N404 1.427 . S
C401 H391 0.929 . S
C401 C399 1.433 . S
C401 N404 1.384 . S
C402 H393 0.929 . S
C402 C394 1.378 . S
C402 C397 1.350 . S
C403 H390 0.929 . S
C403 C395 1.433 . S
C403 N405 1.384 . S
N404 C400 1.427 . S
N404 C401 1.384 . S
N405 C397 1.427 . S
N405 C403 1.384 . S
H406 C412 0.930 . S
H407 C416 0.930 . S
H408 C421 0.929 . S
H409 C419 0.929 . S
H410 C414 0.929 . S
H411 C420 0.929 . S
C412 H406 0.930 . S
C412 C413 1.367 . S
C412 C420 1.378 . S
C413 C412 1.367 . S
C413 C421 1.433 . S
C414 H410 0.929 . S
C414 C416 1.378 1_655 S
C414 C418 1.350 . S
C415 C418 1.463 . S
C415 C420 1.350 . S
C415 N423 1.427 . S
C416 H407 0.930 . S
C416 C414 1.378 1_455 S
C416 C417 1.367 . S
C417 C416 1.367 . S
C417 C419 1.433 . S
C418 C414 1.350 . S
C418 C415 1.463 . S
C418 N422 1.427 . S
C419 H409 0.929 . S
C419 C417 1.433 . S
C419 N422 1.384 1_455 S
C420 H411 0.929 . S
C420 C412 1.378 . S
C420 C415 1.350 . S
C421 H408 0.929 . S
C421 C413 1.433 . S
C421 N423 1.384 . S
N422 C418 1.427 . S
N422 C419 1.384 1_655 S
N423 C415 1.427 . S
N423 C421 1.384 . S
H424 C430 0.930 . S
H425 C434 0.930 . S
H426 C439 0.929 . S
H427 C437 0.929 . S
H428 C432 0.929 . S
H429 C438 0.929 . S
C430 H424 0.930 . S
C430 C431 1.367 . S
C430 C438 1.378 . S
C431 C430 1.367 . S
C431 C439 1.433 . S
C432 H428 0.929 . S
C432 C434 1.378 1_565 S
C432 C436 1.350 . S
C433 C436 1.463 . S
C433 C438 1.350 . S
C433 N441 1.427 . S
C434 H425 0.930 . S
C434 C432 1.378 1_545 S
C434 C435 1.367 . S
C435 C434 1.367 . S
C435 C437 1.433 . S
C436 C432 1.350 . S
C436 C433 1.463 . S
C436 N440 1.427 . S
C437 H427 0.929 . S
C437 C435 1.433 . S
C437 N440 1.384 1_545 S
C438 H429 0.929 . S
C438 C430 1.378 . S
C438 C433 1.350 . S
C439 H426 0.929 . S
C439 C431 1.433 . S
C439 N441 1.384 . S
N440 C436 1.427 . S
N440 C437 1.384 1_565 S
N441 C433 1.427 . S
N441 C439 1.384 . S
H442 C448 0.930 . S
H443 C452 0.930 . S
H444 C457 0.929 . S
H445 C455 0.929 . S
H446 C450 0.929 . S
H447 C456 0.929 . S
C448 H442 0.930 . S
C448 C449 1.367 . S
C448 C456 1.378 . S
C449 C448 1.367 . S
C449 C457 1.433 . S
C450 H446 0.929 . S
C450 C452 1.378 . S
C450 C454 1.350 . S
C451 C454 1.463 . S
C451 C456 1.350 . S
C451 N459 1.427 . S
C452 H443 0.930 . S
C452 C450 1.378 . S
C452 C453 1.367 . S
C453 C452 1.367 . S
C453 C455 1.433 . S
C454 C450 1.350 . S
C454 C451 1.463 . S
C454 N458 1.427 . S
C455 H445 0.929 . S
C455 C453 1.433 . S
C455 N458 1.384 . S
C456 H447 0.929 . S
C456 C448 1.378 . S
C456 C451 1.350 . S
C457 H444 0.929 . S
C457 C449 1.433 . S
C457 N459 1.384 . S
N458 C454 1.427 . S
N458 C455 1.384 . S
N459 C451 1.427 . S
N459 C457 1.384 . S
C179 C39 1.843 . S
C183 C56 1.855 . S
C197 N94 1.438 . S
C201 N46 1.431 . S
C215 C125 1.346 . S
C219 N137 1.577 . S
C233 N8 1.788 . S
C237 C168 1.551 . S
C251 N132 1.579 . S
C255 C13 1.372 . S
C269 C82 1.852 . S
C273 C99 1.864 . S
C287 N89 1.787 1_545 S
C291 C142 1.556 . S
C305 N3 1.437 . S
C309 N51 1.430 . S
C323 C27 1.388 . S
C327 C40 1.392 . S
C341 C83 1.401 . S
C345 C70 1.399 1_655 S
C359 C126 1.557 . S
C363 C113 1.544 . S
C377 C156 1.444 . S
C381 C169 1.455 . S
C395 C75 1.388 . S
C399 C76 1.391 . S
C413 C118 1.376 . S
C417 C119 1.379 . S
C431 C161 1.450 . S
C435 C162 1.458 . S
C449 C32 1.549 . S
C453 C33 1.561 . S
