# Generated by pormake.
# Topology xfc, (7)-cn, num edge types: 1
# Building blocks:
#     Node 0, Type 0, BuildingBlock: HICVOG_clean_sbu_0, # of connection points: 7
#     Node 1, Type 0, BuildingBlock: HICVOG_clean_sbu_0, # of connection points: 7
#     Node 2, Type 0, BuildingBlock: HICVOG_clean_sbu_0, # of connection points: 7
#     Node 3, Type 0, BuildingBlock: HICVOG_clean_sbu_0, # of connection points: 7
#     Node 4, Type 0, BuildingBlock: HICVOG_clean_sbu_0, # of connection points: 7
#     Node 5, Type 0, BuildingBlock: HICVOG_clean_sbu_0, # of connection points: 7
#     Node 6, Type 0, BuildingBlock: HICVOG_clean_sbu_0, # of connection points: 7
#     Node 7, Type 0, BuildingBlock: HICVOG_clean_sbu_0, # of connection points: 7
#     Node 8, Type 0, BuildingBlock: HICVOG_clean_sbu_0, # of connection points: 7
#     Node 9, Type 0, BuildingBlock: HICVOG_clean_sbu_0, # of connection points: 7
#     Node 10, Type 0, BuildingBlock: HICVOG_clean_sbu_0, # of connection points: 7
#     Node 11, Type 0, BuildingBlock: HICVOG_clean_sbu_0, # of connection points: 7
#     Node 12, Type 0, BuildingBlock: HICVOG_clean_sbu_0, # of connection points: 7
#     Node 13, Type 0, BuildingBlock: HICVOG_clean_sbu_0, # of connection points: 7
#     Node 14, Type 0, BuildingBlock: HICVOG_clean_sbu_0, # of connection points: 7
#     Node 15, Type 0, BuildingBlock: HICVOG_clean_sbu_0, # of connection points: 7
#     Edge 16, Type (0, 0), None
#     Edge 17, Type (0, 0), None
#     Edge 18, Type (0, 0), None
#     Edge 19, Type (0, 0), None
#     Edge 20, Type (0, 0), None
#     Edge 21, Type (0, 0), None
#     Edge 22, Type (0, 0), None
#     Edge 23, Type (0, 0), None
#     Edge 24, Type (0, 0), None
#     Edge 25, Type (0, 0), None
#     Edge 26, Type (0, 0), None
#     Edge 27, Type (0, 0), None
#     Edge 28, Type (0, 0), None
#     Edge 29, Type (0, 0), None
#     Edge 30, Type (0, 0), None
#     Edge 31, Type (0, 0), None
#     Edge 32, Type (0, 0), None
#     Edge 33, Type (0, 0), None
#     Edge 34, Type (0, 0), None
#     Edge 35, Type (0, 0), None
#     Edge 36, Type (0, 0), None
#     Edge 37, Type (0, 0), None
#     Edge 38, Type (0, 0), None
#     Edge 39, Type (0, 0), None
#     Edge 40, Type (0, 0), None
#     Edge 41, Type (0, 0), None
#     Edge 42, Type (0, 0), None
#     Edge 43, Type (0, 0), None
#     Edge 44, Type (0, 0), None
#     Edge 45, Type (0, 0), None
#     Edge 46, Type (0, 0), None
#     Edge 47, Type (0, 0), None
#     Edge 48, Type (0, 0), None
#     Edge 49, Type (0, 0), None
#     Edge 50, Type (0, 0), None
#     Edge 51, Type (0, 0), None
#     Edge 52, Type (0, 0), None
#     Edge 53, Type (0, 0), None
#     Edge 54, Type (0, 0), None
#     Edge 55, Type (0, 0), None
#     Edge 56, Type (0, 0), None
#     Edge 57, Type (0, 0), None
#     Edge 58, Type (0, 0), None
#     Edge 59, Type (0, 0), None
#     Edge 60, Type (0, 0), None
#     Edge 61, Type (0, 0), None
#     Edge 62, Type (0, 0), None
#     Edge 63, Type (0, 0), None
#     Edge 64, Type (0, 0), None
#     Edge 65, Type (0, 0), None
#     Edge 66, Type (0, 0), None
#     Edge 67, Type (0, 0), None
#     Edge 68, Type (0, 0), None
#     Edge 69, Type (0, 0), None
#     Edge 70, Type (0, 0), None
#     Edge 71, Type (0, 0), None
# Relax obj value: 0.530
# Max RMSD: 0.260
# Mean RMSD: 0.256
data_MOF--net-xfc--node1-HICVOG_clean_sbu_0--edge1-none
_symmetry_space_group_name_H-M    P1
_symmetry_Int_Tables_number       1
_symmetry_cell_setting            triclinic
loop_
_symmetry_equiv_pos_as_xyz
'x, y, z'
_cell_length_a     23.011776
_cell_length_b     23.217044
_cell_length_c     12.459163
_cell_angle_alpha  89.99397
_cell_angle_beta   89.99214
_cell_angle_gamma 89.702061
loop_
_atom_site_label
_atom_site_type_symbol
_atom_site_fract_x
_atom_site_fract_y
_atom_site_fract_z
_atom_type_partial_charge
Zn0 Zn 0.09545 0.99843 0.26351 0.0
C1 C 0.94712 0.94382 0.42518 0.0
N2 N 0.98452 0.90911 0.4751 0.0
C3 C 0.03729 0.92334 0.43825 0.0
N4 N 0.03361 0.9674 0.36568 0.0
N5 N 0.97691 0.98246 0.35877 0.0
C6 C 0.83281 0.13244 0.19664 0.0
O7 O 0.79632 0.09657 0.15203 0.0
O8 O 0.16785 0.95301 0.22895 0.0
Zn9 Zn 0.95216 0.0402 0.2349 0.0
N10 N 0.1068 0.08194 0.26741 0.0
C11 C 0.04591 0.16463 0.26932 0.0
C12 C 0.05529 0.10723 0.29175 0.0
C13 C 0.15265 0.11377 0.22915 0.0
N14 N 0.09044 0.19605 0.23147 0.0
C15 C 0.14434 0.17354 0.21276 0.0
O16 O 0.00817 0.05786 0.10123 0.0
C17 C 0.04087 0.01973 0.05712 0.0
O18 O 0.06939 0.98604 0.11512 0.0
H19 H 0.02062 0.08202 0.32322 0.0
H20 H 0.19393 0.09328 0.21187 0.0
C21 C 0.8651 0.99807 0.15146 0.0
C22 C 0.83503 0.96302 0.08592 0.0
C23 C 0.91985 0.9233 0.01297 0.0
C24 C 0.94841 0.9434 0.10271 0.0
N25 N 0.92157 0.98657 0.15861 0.0
N26 N 0.86458 0.94196 -0.00083 0.0
H27 H 0.8446 0.01731 0.22049 0.0
C28 C 0.14859 0.9086 0.18091 0.0
O29 O 0.10004 0.88582 0.21608 0.0
O30 O 0.88403 0.11504 0.23339 0.0
H31 H 0.99005 0.92621 0.12538 0.0
H32 H 1.00411 0.18462 0.28443 0.0
H33 H 0.94 0.89374 0.95719 0.0
Zn34 Zn 0.23409 0.69772 0.4776 0.0
C35 C 0.34167 0.77937 0.69319 0.0
N36 N 0.35492 0.72669 0.73095 0.0
C37 C 0.31988 0.69058 0.67969 0.0
N38 N 0.28302 0.72103 0.61092 0.0
N39 N 0.29791 0.77701 0.6191 0.0
C40 C 0.35586 0.89849 0.43603 0.0
O41 O 0.38528 0.85603 0.48007 0.0
O42 O 0.16207 0.62614 0.46829 0.0
Zn43 Zn 0.26643 0.83761 0.51296 0.0
N44 N 0.29767 0.6844 0.39453 0.0
C45 C 0.38619 0.68611 0.30045 0.0
C46 C 0.35156 0.70808 0.38273 0.0
C47 C 0.27766 0.64503 0.32761 0.0
N48 N 0.36874 0.63576 0.25456 0.0
C49 C 0.31834 0.60939 0.28696 0.0
O50 O 0.2879 0.80982 0.36879 0.0
C51 C 0.25346 0.78338 0.3094 0.0
O52 O 0.21143 0.75575 0.35259 0.0
H53 H 0.36617 0.74293 0.43321 0.0
H54 H 0.2366 0.6286 0.34708 0.0
C55 C 0.14523 0.89018 0.47143 0.0
C56 C 0.08463 0.88031 0.45885 0.0
C57 C 0.09839 0.78409 0.5212 0.0
C58 C 0.15636 0.795 0.5396 0.0
N59 N 0.17994 0.84607 0.51038 0.0
N60 N 0.06444 0.8267 0.48248 0.0
H61 H 0.164 0.93141 0.45136 0.0
C62 C 0.14689 0.57461 0.43294 0.0
O63 O 0.18652 0.53958 0.3943 0.0
O64 O 0.30781 0.9125 0.47988 0.0
H65 H 0.18325 0.76153 0.57181 0.0
H66 H 0.4275 0.70515 0.27983 0.0
H67 H 0.07995 0.74253 0.54013 0.0
Zn68 Zn 0.43074 0.00236 0.76705 0.0
C69 C 0.58045 0.05699 0.92895 0.0
N70 N 0.54315 0.09105 0.98062 0.0
C71 C 0.49021 0.07709 0.94372 0.0
N72 N 0.49351 0.03357 0.86999 0.0
N73 N 0.55033 0.01904 0.86173 0.0
C74 C 0.69636 0.8754 0.68868 0.0
O75 O 0.73553 0.91232 0.65586 0.0
O76 O 0.35736 0.04703 0.73103 0.0
Zn77 Zn 0.57381 0.96648 0.73095 0.0
N78 N 0.42113 0.91773 0.76789 0.0
C79 C 0.48355 0.83606 0.77281 0.0
C80 C 0.47296 0.89346 0.79394 0.0
C81 C 0.37627 0.88466 0.72853 0.0
N82 N 0.44 0.80353 0.73416 0.0
C83 C 0.38587 0.82479 0.71314 0.0
O84 O 0.51534 0.94459 0.60551 0.0
C85 C 0.48485 0.9844 0.56122 0.0
O86 O 0.45579 0.01755 0.61921 0.0
H87 H 0.50725 0.91952 0.8251 0.0
H88 H 0.33475 0.90423 0.70965 0.0
C89 C 0.63411 0.01281 0.58699 0.0
C90 C 0.6607 0.05715 0.53883 0.0
C91 C 0.5739 0.11202 0.54666 0.0
C92 C 0.55791 0.07715 0.63237 0.0
N93 N 0.58836 0.02677 0.64636 0.0
N94 N 0.62506 0.09915 0.49737 0.0
H95 H 0.65955 0.97753 0.61456 0.0
C96 C 0.37446 0.09363 0.68739 0.0
O97 O 0.42034 0.11886 0.72799 0.0
O98 O 0.64452 0.89361 0.7202 0.0
H99 H 0.52208 0.08873 0.68351 0.0
H100 H 0.52562 0.81698 0.7893 0.0
H101 H 0.5481 0.14881 0.52217 0.0
Zn102 Zn 0.26107 0.1641 0.01045 0.0
C103 C 0.21111 0.30605 0.1868 0.0
N104 N 0.1776 0.26936 0.23939 0.0
C105 C 0.18988 0.21765 0.19725 0.0
N106 N 0.23171 0.22159 0.11993 0.0
N107 N 0.24631 0.27763 0.11332 0.0
C108 C 0.38488 0.42785 0.93445 0.0
O109 O 0.34644 0.46286 0.89166 0.0
O110 O 0.22077 0.08883 0.97606 0.0
Zn111 Zn 0.29368 0.30641 0.97961 0.0
N112 N 0.34757 0.15632 0.00752 0.0
C113 C 0.42989 0.21698 0.02467 0.0
C114 C 0.37139 0.20705 0.03845 0.0
C115 C 0.3824 0.11162 0.97168 0.0
N116 N 0.46392 0.17381 0.98863 0.0
C117 C 0.44333 0.12056 0.96359 0.0
O118 O 0.31347 0.24802 0.85382 0.0
C119 C 0.26953 0.22279 0.81204 0.0
O120 O 0.23538 0.19641 0.872 0.0
H121 H 0.34471 0.24081 0.06995 0.0
H122 H 0.36348 0.07054 0.95102 0.0
C123 C 0.25529 0.35987 0.82416 0.0
C124 C 0.21878 0.39737 0.77543 0.0
C125 C 0.14349 0.32821 0.80063 0.0
C126 C 0.17589 0.30581 0.88561 0.0
N127 N 0.23112 0.32583 0.89711 0.0
N128 N 0.16545 0.37506 0.74871 0.0
H129 H 0.29768 0.37298 0.84227 0.0
C130 C 0.17221 0.10201 0.9333 0.0
O131 O 0.14177 0.14309 0.97952 0.0
O132 O 0.36847 0.37688 0.9719 0.0
H133 H 0.15886 0.27269 0.93773 0.0
H134 H 0.44864 0.25817 0.04532 0.0
H135 H 0.10063 0.31225 0.78176 0.0
Zn136 Zn 0.09401 0.01034 0.74146 0.0
C137 C 0.95102 0.0602 0.56606 0.0
N138 N 0.98901 0.09446 0.51768 0.0
C139 C 0.04083 0.08037 0.55895 0.0
N140 N 0.03569 0.03749 0.63282 0.0
N141 N 0.97896 0.02294 0.63775 0.0
C142 C 0.83984 0.86847 0.81038 0.0
O143 O 0.80033 0.905 0.84387 0.0
O144 O 0.17231 0.04709 0.7698 0.0
Zn145 Zn 0.95091 0.96834 0.76703 0.0
N146 N 0.10058 0.92507 0.74876 0.0
C147 C 0.03965 0.84317 0.73594 0.0
C148 C 0.05004 0.90063 0.71688 0.0
C149 C 0.14582 0.89139 0.78599 0.0
N150 N 0.08322 0.81024 0.7742 0.0
C151 C 0.13706 0.83124 0.79657 0.0
O152 O 0.01095 0.9644 0.90107 0.0
C153 C 0.03946 0.00673 0.94022 0.0
O154 O 0.06297 0.04126 0.87737 0.0
H155 H 0.01747 0.92575 0.67793 0.0
H156 H 0.18734 0.91056 0.80471 0.0
C157 C 0.84748 0.01175 0.79817 0.0
C158 C 0.81056 0.05128 0.8414 0.0
C159 C 0.87911 0.0751 0.97185 0.0
C160 C 0.92062 0.05543 0.90259 0.0
N161 N 0.90348 0.01743 0.82639 0.0
N162 N 0.82273 0.06422 0.94636 0.0
H163 H 0.83504 0.98473 0.7319 0.0
C164 C 0.16328 0.09541 0.81542 0.0
O165 O 0.12369 0.12934 0.77277 0.0
O166 O 0.89086 0.88673 0.77402 0.0
H167 H 0.96307 0.07322 0.90558 0.0
H168 H 0.99834 0.82403 0.71541 0.0
H169 H 0.8918 0.10001 0.03979 0.0
Zn170 Zn 0.29601 0.69939 0.01582 0.0
C171 C 0.18176 0.78551 0.81184 0.0
N172 N 0.16798 0.73358 0.77262 0.0
C173 C 0.20402 0.69684 0.82015 0.0
N174 N 0.24274 0.72595 0.88708 0.0
N175 N 0.22691 0.7819 0.88273 0.0
C176 C 0.16507 0.89487 0.06884 0.0
O177 O 0.14103 0.84879 0.0275 0.0
O178 O 0.37272 0.63022 0.02747 0.0
Zn179 Zn 0.25757 0.84057 0.98965 0.0
N180 N 0.23437 0.67302 0.08107 0.0
C181 C 0.15418 0.66777 0.19513 0.0
C182 C 0.1844 0.69748 0.11812 0.0
C183 C 0.24909 0.61895 0.09489 0.0
N184 N 0.1698 0.61231 0.21141 0.0
C185 C 0.21293 0.5857 0.15237 0.0
O186 O 0.23725 0.81186 0.13309 0.0
C187 C 0.26705 0.78086 0.19344 0.0
O188 O 0.30913 0.75168 0.15361 0.0
H189 H 0.17027 0.73963 0.09316 0.0
H190 H 0.27711 0.60079 0.03524 0.0
C191 C 0.37872 0.89112 0.0321 0.0
C192 C 0.43877 0.87919 0.04738 0.0
C193 C 0.42367 0.78297 0.98844 0.0
C194 C 0.3666 0.79618 0.96528 0.0
N195 N 0.34362 0.84793 0.99309 0.0
N196 N 0.45804 0.82463 0.02771 0.0
H197 H 0.36073 0.93317 0.04993 0.0
C198 C 0.38917 0.57796 0.0593 0.0
O199 O 0.35059 0.53957 0.08731 0.0
O200 O 0.21243 0.91275 0.02752 0.0
H201 H 0.34022 0.76455 0.92775 0.0
H202 H 0.11747 0.68652 0.23686 0.0
H203 H 0.44138 0.74073 0.97099 0.0
Zn204 Zn 0.43142 0.99424 0.24296 0.0
C205 C 0.57658 0.93951 0.07323 0.0
N206 N 0.53832 0.90602 0.02399 0.0
C207 C 0.48641 0.92116 0.06404 0.0
N208 N 0.49151 0.96427 0.13758 0.0
N209 N 0.54851 0.97762 0.14351 0.0
C210 C 0.68972 0.12863 0.31137 0.0
O211 O 0.72825 0.09115 0.34454 0.0
O212 O 0.35425 0.95541 0.27429 0.0
Zn213 Zn 0.57675 0.03077 0.27287 0.0
N214 N 0.42545 0.07941 0.24956 0.0
C215 C 0.48856 0.15988 0.24321 0.0
C216 C 0.4773 0.10273 0.22231 0.0
C217 C 0.38061 0.1137 0.28658 0.0
N218 N 0.44517 0.1935 0.28037 0.0
C219 C 0.39064 0.1735 0.30011 0.0
O220 O 0.5195 0.03891 0.40733 0.0
C221 C 0.4879 0.99851 0.44539 0.0
O222 O 0.45915 0.96807 0.38281 0.0
H223 H 0.51032 0.07672 0.1863 0.0
H224 H 0.3385 0.09526 0.30339 0.0
C225 C 0.67365 0.98137 0.32588 0.0
C226 C 0.70535 0.93757 0.36748 0.0
C227 C 0.62664 0.90583 0.4707 0.0
C228 C 0.5918 0.93334 0.39721 0.0
N229 N 0.61624 0.97672 0.33884 0.0
N230 N 0.68456 0.91536 0.46165 0.0
H231 H 0.69028 0.00741 0.26141 0.0
C232 C 0.36564 0.90719 0.31879 0.0
O233 O 0.40731 0.87578 0.27623 0.0
O234 O 0.63836 0.11094 0.27664 0.0
H235 H 0.54835 0.91877 0.38479 0.0
H236 H 0.53067 0.17819 0.22577 0.0
H237 H 0.60902 0.87695 0.53019 0.0
Zn238 Zn 0.26868 0.16403 0.49129 0.0
C239 C 0.32561 0.30916 0.32339 0.0
N240 N 0.36115 0.27178 0.27599 0.0
C241 C 0.34667 0.21999 0.31549 0.0
N242 N 0.3016 0.22412 0.38665 0.0
N243 N 0.28667 0.28037 0.39073 0.0
C244 C 0.14234 0.42682 0.54972 0.0
O245 O 0.18095 0.46603 0.57162 0.0
O246 O 0.31315 0.09123 0.53004 0.0
Zn247 Zn 0.23345 0.30805 0.51744 0.0
N248 N 0.18278 0.15631 0.49185 0.0
C249 C 0.10213 0.2206 0.49043 0.0
C250 C 0.15969 0.20864 0.46868 0.0
C251 C 0.14798 0.1122 0.52815 0.0
N252 N 0.06795 0.17786 0.52645 0.0
C253 C 0.08782 0.12331 0.54404 0.0
O254 O 0.21763 0.25652 0.65439 0.0
C255 C 0.25631 0.22382 0.69607 0.0
O256 O 0.28498 0.19071 0.63747 0.0
H257 H 0.18659 0.24171 0.43699 0.0
H258 H 0.16635 0.07005 0.54383 0.0
C259 C 0.28833 0.39431 0.58022 0.0
C260 C 0.33226 0.42352 0.62451 0.0
C261 C 0.37044 0.33891 0.70377 0.0
C262 C 0.33863 0.30915 0.62918 0.0
N263 N 0.29279 0.33748 0.58344 0.0
N264 N 0.36251 0.39668 0.7054 0.0
H265 H 0.26104 0.41351 0.52049 0.0
C266 C 0.3597 0.10873 0.57481 0.0
O267 O 0.38416 0.15538 0.53646 0.0
O268 O 0.15863 0.37438 0.52182 0.0
H269 H 0.34902 0.26513 0.61154 0.0
H270 H 0.08413 0.26302 0.47574 0.0
H271 H 0.40121 0.31799 0.75679 0.0
Zn272 Zn 0.79618 0.19348 0.51749 0.0
C273 C 0.68312 0.28177 0.31538 0.0
N274 N 0.66861 0.22999 0.27586 0.0
C275 C 0.70405 0.19254 0.32334 0.0
N276 N 0.74294 0.22127 0.39084 0.0
N277 N 0.72813 0.27755 0.38664 0.0
C278 C 0.67 0.39313 0.57493 0.0
O279 O 0.64542 0.34655 0.53651 0.0
O280 O 0.87113 0.12722 0.52183 0.0
Zn281 Zn 0.76096 0.33753 0.49151 0.0
N282 N 0.73695 0.1637 0.58332 0.0
C283 C 0.65951 0.16177 0.70418 0.0
C284 C 0.6911 0.19179 0.62958 0.0
C285 C 0.74166 0.10688 0.57982 0.0
N286 N 0.66772 0.10402 0.70558 0.0
C287 C 0.69797 0.07745 0.62441 0.0
O288 O 0.74429 0.31068 0.63744 0.0
C289 C 0.77297 0.27764 0.69613 0.0
O290 O 0.81177 0.24502 0.65456 0.0
H291 H 0.68052 0.23582 0.61229 0.0
H292 H 0.76889 0.08794 0.51969 0.0
C293 C 0.88174 0.38935 0.52854 0.0
C294 C 0.94192 0.37829 0.54421 0.0
C295 C 0.92761 0.28099 0.4906 0.0
C296 C 0.87002 0.29292 0.46906 0.0
N297 N 0.84691 0.34522 0.49242 0.0
N298 N 0.9618 0.32374 0.52652 0.0
H299 H 0.86336 0.4315 0.54424 0.0
C300 C 0.88744 0.07478 0.54987 0.0
O301 O 0.84886 0.03558 0.57199 0.0
O302 O 0.71663 0.41044 0.53017 0.0
H303 H 0.84313 0.25986 0.43731 0.0
H304 H 0.62874 0.18249 0.75747 0.0
H305 H 0.94563 0.23859 0.4758 0.0
Zn306 Zn 0.77205 0.66107 0.98922 0.0
C307 C 0.82571 0.80488 0.8199 0.0
N308 N 0.86172 0.76812 0.77232 0.0
C309 C 0.84786 0.71618 0.81141 0.0
N310 N 0.80274 0.71984 0.88238 0.0
N311 N 0.78683 0.77578 0.88658 0.0
C312 C 0.64042 0.92388 0.05893 0.0
O313 O 0.67896 0.96223 0.08727 0.0
O314 O 0.81737 0.58901 0.02736 0.0
Zn315 Zn 0.73355 0.80247 0.01523 0.0
N316 N 0.68601 0.65364 0.99269 0.0
C317 C 0.60601 0.71867 0.98836 0.0
C318 C 0.66306 0.70544 0.96506 0.0
C319 C 0.6509 0.61048 0.03183 0.0
N320 N 0.57162 0.67702 0.02767 0.0
C321 C 0.59087 0.62245 0.04727 0.0
O322 O 0.72064 0.75029 0.15328 0.0
C323 C 0.76262 0.72094 0.19304 0.0
O324 O 0.79221 0.68974 0.13271 0.0
H325 H 0.68945 0.73706 0.92754 0.0
H326 H 0.66888 0.56842 0.04964 0.0
C327 C 0.78064 0.88316 0.09397 0.0
C328 C 0.81699 0.9161 0.15159 0.0
C329 C 0.87522 0.83374 0.19436 0.0
C330 C 0.84495 0.8043 0.11706 0.0
N331 N 0.79512 0.82902 0.08001 0.0
N332 N 0.85984 0.88924 0.21088 0.0
H333 H 0.75265 0.90157 0.03451 0.0
C334 C 0.86469 0.60701 0.06865 0.0
O335 O 0.88856 0.65321 0.02737 0.0
O336 O 0.6569 0.87166 0.02694 0.0
H337 H 0.85891 0.76212 0.09195 0.0
H338 H 0.58832 0.76094 0.97101 0.0
H339 H 0.91177 0.81474 0.23617 0.0
Zn340 Zn 0.73599 0.19511 0.97973 0.0
C341 C 0.83981 0.2838 0.19754 0.0
N342 N 0.85213 0.23204 0.23949 0.0
C343 C 0.81871 0.19533 0.18672 0.0
N344 N 0.78353 0.2238 0.1133 0.0
N345 N 0.79802 0.27985 0.12012 0.0
C346 C 0.85777 0.3989 0.93348 0.0
O347 O 0.88768 0.35732 0.97934 0.0
O348 O 0.66123 0.12466 0.97202 0.0
Zn349 Zn 0.76868 0.33742 0.01065 0.0
N350 N 0.79851 0.17589 0.89689 0.0
C351 C 0.88623 0.1736 0.80056 0.0
C352 C 0.85372 0.19599 0.88544 0.0
C353 C 0.77446 0.14163 0.82422 0.0
N354 N 0.86442 0.12667 0.74873 0.0
C355 C 0.81112 0.10431 0.77546 0.0
O356 O 0.79403 0.30514 0.87192 0.0
C357 C 0.75979 0.27879 0.81212 0.0
O358 O 0.71594 0.25349 0.85409 0.0
H359 H 0.87068 0.22913 0.93756 0.0
H360 H 0.73218 0.12837 0.84279 0.0
C361 C 0.64736 0.3901 0.97205 0.0
C362 C 0.58643 0.38114 0.96401 0.0
C363 C 0.59989 0.28475 0.02529 0.0
C364 C 0.65839 0.29467 0.0389 0.0
N365 N 0.6822 0.3454 0.0079 0.0
N366 N 0.56585 0.32791 0.98922 0.0
H367 H 0.66629 0.43115 0.95125 0.0
C368 C 0.64485 0.07368 0.9346 0.0
O369 O 0.68336 0.0386 0.8922 0.0
O370 O 0.80929 0.41248 0.97615 0.0
H371 H 0.68511 0.26089 0.07025 0.0
H372 H 0.92908 0.18964 0.78176 0.0
H373 H 0.58115 0.24356 0.04601 0.0
Zn374 Zn 0.76331 0.66404 0.51262 0.0
C375 C 0.7098 0.81111 0.67916 0.0
N376 N 0.67479 0.77501 0.73052 0.0
C377 C 0.68806 0.72233 0.69281 0.0
N378 N 0.73179 0.7247 0.61863 0.0
N379 N 0.74675 0.78067 0.61053 0.0
C380 C 0.88292 0.92708 0.4325 0.0
O381 O 0.84339 0.96215 0.39362 0.0
O382 O 0.72183 0.5892 0.4796 0.0
Zn383 Zn 0.79566 0.804 0.47713 0.0
N384 N 0.8498 0.6555 0.51011 0.0
C385 C 0.93132 0.71753 0.52073 0.0
C386 C 0.87335 0.7066 0.53916 0.0
C387 C 0.88453 0.6114 0.47115 0.0
N388 N 0.96528 0.67491 0.48208 0.0
C389 C 0.94513 0.62129 0.45853 0.0
O390 O 0.8183 0.746 0.35212 0.0
C391 C 0.77626 0.71837 0.30898 0.0
O392 O 0.74193 0.69179 0.36837 0.0
H393 H 0.84644 0.74008 0.57133 0.0
H394 H 0.86577 0.57016 0.45113 0.0
C395 C 0.75211 0.85676 0.32724 0.0
C396 C 0.71139 0.89222 0.28623 0.0
C397 C 0.64361 0.81549 0.29987 0.0
C398 C 0.67826 0.79357 0.38219 0.0
N399 N 0.73211 0.81735 0.39411 0.0
N400 N 0.66101 0.86584 0.25388 0.0
H401 H 0.79309 0.8734 0.34669 0.0
C402 C 0.6738 0.6033 0.43578 0.0
O403 O 0.64443 0.64579 0.47984 0.0
O404 O 0.86766 0.87557 0.46784 0.0
H405 H 0.66368 0.75869 0.43265 0.0
H406 H 0.94974 0.7591 0.53958 0.0
H407 H 0.60233 0.7964 0.27927 0.0
Zn408 Zn 0.59903 0.49938 0.76726 0.0
C409 C 0.44929 0.44459 0.92903 0.0
N410 N 0.48656 0.41055 0.98077 0.0
C411 C 0.53951 0.42455 0.94392 0.0
N412 N 0.53625 0.46814 0.8703 0.0
N413 N 0.47943 0.48265 0.86203 0.0
C414 C 0.33332 0.62629 0.68919 0.0
O415 O 0.29413 0.58939 0.65645 0.0
O416 O 0.67243 0.45472 0.73124 0.0
Zn417 Zn 0.45589 0.53523 0.73136 0.0
N418 N 0.60864 0.584 0.76798 0.0
C419 C 0.54619 0.66565 0.77265 0.0
C420 C 0.5568 0.60828 0.79398 0.0
C421 C 0.65349 0.61705 0.72845 0.0
N422 N 0.58973 0.69816 0.73386 0.0
C423 C 0.64387 0.6769 0.71287 0.0
O424 O 0.51428 0.55709 0.60571 0.0
C425 C 0.54485 0.51735 0.5614 0.0
O426 O 0.57403 0.48427 0.61936 0.0
H427 H 0.52252 0.58223 0.82524 0.0
H428 H 0.69501 0.59748 0.7096 0.0
C429 C 0.39542 0.48866 0.5878 0.0
C430 C 0.3693 0.44427 0.53898 0.0
C431 C 0.45625 0.38974 0.5472 0.0
C432 C 0.47198 0.42466 0.63299 0.0
N433 N 0.4413 0.47492 0.64702 0.0
N434 N 0.40512 0.4024 0.49763 0.0
H435 H 0.36975 0.5238 0.6154 0.0
C436 C 0.65533 0.40812 0.68761 0.0
O437 O 0.60951 0.38281 0.7283 0.0
O438 O 0.38516 0.60806 0.72065 0.0
H439 H 0.50783 0.41323 0.68417 0.0
H440 H 0.50412 0.68473 0.78911 0.0
H441 H 0.48225 0.35306 0.52281 0.0
Zn442 Zn 0.93445 0.5031 0.26344 0.0
C443 C 0.0827 0.55786 0.42523 0.0
N444 N 0.04523 0.59255 0.47504 0.0
C445 C 0.99252 0.57829 0.43802 0.0
N446 N 0.99627 0.53416 0.36562 0.0
N447 N 0.05299 0.51914 0.35884 0.0
C448 C 0.19704 0.36892 0.19677 0.0
O449 O 0.23351 0.40477 0.15201 0.0
O450 O 0.86212 0.54862 0.22849 0.0
Zn451 Zn 0.07788 0.46124 0.23513 0.0
N452 N 0.923 0.41956 0.26731 0.0
C453 C 0.98383 0.33682 0.26946 0.0
C454 C 0.9745 0.39426 0.29166 0.0
C455 C 0.87712 0.38772 0.2292 0.0
N456 N 0.93926 0.30539 0.2318 0.0
C457 C 0.88538 0.32791 0.21306 0.0
O458 O 0.02194 0.44377 0.10123 0.0
C459 C 0.98918 0.48187 0.05717 0.0
O460 O 0.96065 0.51554 0.1152 0.0
H461 H 0.00919 0.41948 0.32303 0.0
H462 H 0.83584 0.40822 0.21188 0.0
C463 C 0.16559 0.50332 0.15309 0.0
C464 C 0.19577 0.53816 0.08729 0.0
C465 C 0.11116 0.5773 0.0126 0.0
C466 C 0.08229 0.55745 0.10221 0.0
N467 N 0.10901 0.51461 0.15915 0.0
N468 N 0.16656 0.55879 -0.00019 0.0
H469 H 0.18594 0.48416 0.22237 0.0
C470 C 0.88144 0.59302 0.18045 0.0
O471 O 0.93007 0.61571 0.2154 0.0
O472 O 0.14585 0.38632 0.23369 0.0
H473 H 0.04059 0.57473 0.12422 0.0
H474 H 0.02561 0.31682 0.28461 0.0
H475 H 0.09119 0.6067 0.95637 0.0
Zn476 Zn 0.45286 0.47098 0.27318 0.0
C477 C 0.5432 0.58051 0.06406 0.0
N478 N 0.49128 0.5957 0.02413 0.0
C479 C 0.453 0.5623 0.07358 0.0
N480 N 0.48108 0.52419 0.14386 0.0
N481 N 0.5381 0.53741 0.13764 0.0
C482 C 0.664 0.59454 0.31857 0.0
O483 O 0.62229 0.62591 0.27608 0.0
O484 O 0.3913 0.3908 0.27689 0.0
Zn485 Zn 0.59818 0.50748 0.24307 0.0
N486 N 0.41327 0.52491 0.33926 0.0
C487 C 0.40272 0.59564 0.47143 0.0
C488 C 0.43763 0.56819 0.39795 0.0
C489 C 0.35586 0.52025 0.32609 0.0
N490 N 0.3448 0.58613 0.46226 0.0
C491 C 0.3241 0.5639 0.36806 0.0
O492 O 0.57045 0.53375 0.3829 0.0
C493 C 0.54181 0.50323 0.44556 0.0
O494 O 0.51017 0.46286 0.40754 0.0
H495 H 0.48107 0.58283 0.38565 0.0
H496 H 0.33934 0.49428 0.26145 0.0
C497 C 0.64907 0.38804 0.28666 0.0
C498 C 0.63908 0.32824 0.30028 0.0
C499 C 0.54109 0.3418 0.24379 0.0
C500 C 0.55231 0.39895 0.22274 0.0
N501 N 0.60416 0.42231 0.24983 0.0
N502 N 0.58453 0.30821 0.28082 0.0
H503 H 0.69118 0.4065 0.30325 0.0
C504 C 0.33996 0.37308 0.3117 0.0
O505 O 0.30143 0.41054 0.34501 0.0
O506 O 0.67536 0.5463 0.27413 0.0
H507 H 0.51926 0.42493 0.18676 0.0
H508 H 0.4203 0.62453 0.53089 0.0
H509 H 0.49897 0.32346 0.22654 0.0
Zn510 Zn 0.07903 0.53333 0.76688 0.0
C511 C 0.98896 0.42121 0.55911 0.0
N512 N 0.04076 0.40713 0.51772 0.0
C513 C 0.07876 0.44138 0.56606 0.0
N514 N 0.05085 0.47864 0.63777 0.0
N515 N 0.9941 0.46417 0.63281 0.0
C516 C 0.86715 0.40598 0.81585 0.0
O517 O 0.9072 0.37252 0.77337 0.0
O518 O 0.13898 0.61499 0.77386 0.0
Zn519 Zn 0.93586 0.49128 0.74162 0.0
N520 N 0.12665 0.48431 0.826 0.0
C521 C 0.15124 0.42694 0.97182 0.0
C522 C 0.10963 0.44645 0.90258 0.0
C523 C 0.18261 0.48994 0.79741 0.0
N524 N 0.20761 0.43771 0.946 0.0
C525 C 0.21962 0.45058 0.84093 0.0
O526 O 0.96713 0.46042 0.87743 0.0
C527 C 0.9906 0.49494 0.9403 0.0
O528 O 0.01911 0.53729 0.90117 0.0
H529 H 0.06719 0.42868 0.90596 0.0
H530 H 0.19501 0.51704 0.73122 0.0
C531 C 0.88388 0.61027 0.78589 0.0
C532 C 0.8926 0.67044 0.79624 0.0
C533 C 0.99003 0.6585 0.73571 0.0
C534 C 0.97969 0.60102 0.71692 0.0
N535 N 0.92916 0.57657 0.74885 0.0
N536 N 0.94643 0.69145 0.77381 0.0
H537 H 0.84236 0.59109 0.80465 0.0
C538 C 0.18992 0.63325 0.81051 0.0
O539 O 0.22943 0.59674 0.84399 0.0
O540 O 0.85774 0.45431 0.77048 0.0
H541 H 0.01231 0.57586 0.67811 0.0
H542 H 0.1386 0.4022 0.04001 0.0
H543 H 0.03134 0.67764 0.71513 0.0
loop_
_geom_bond_atom_site_label_1
_geom_bond_atom_site_label_2
_geom_bond_distance
_geom_bond_site_symmetry_2
_ccdc_geom_bond_type
Zn0 N4 2.020 . S
Zn0 O8 2.019 . S
Zn0 N10 2.119 . S
Zn0 O18 1.975 . S
C1 N2 1.334 1_645 S
C1 N5 1.336 . S
N2 C1 1.334 1_465 S
N2 C3 1.334 . S
C3 N2 1.334 . S
C3 N4 1.336 1_565 S
N4 Zn0 2.020 . S
N4 C3 1.336 1_545 S
N4 N5 1.354 1_455 S
N5 C1 1.336 . S
N5 N4 1.354 1_655 S
N5 Zn9 2.020 . S
C6 O7 1.244 . S
C6 O30 1.257 . S
O7 C6 1.244 . S
O8 Zn0 2.019 . S
O8 C28 1.257 1_545 S
Zn9 N5 2.020 . S
Zn9 O16 1.975 . S
Zn9 N25 2.119 1_545 S
Zn9 O30 2.019 . S
N10 Zn0 2.119 . S
N10 C12 1.334 . S
N10 C13 1.328 . S
C11 C12 1.391 . S
C11 N14 1.329 . S
C11 H32 0.930 . S
C12 N10 1.334 . S
C12 C11 1.391 . S
C12 H19 0.930 . S
C13 N10 1.328 . S
C13 C15 1.392 . S
C13 H20 0.930 . S
N14 C11 1.329 . S
N14 C15 1.331 . S
C15 C13 1.392 . S
C15 N14 1.331 . S
O16 Zn9 1.975 . S
O16 C17 1.252 1_655 S
C17 O16 1.252 1_455 S
C17 O18 1.252 . S
O18 Zn0 1.975 . S
O18 C17 1.252 . S
H19 C12 0.930 . S
H20 C13 0.930 . S
C21 C22 1.392 . S
C21 N25 1.328 . S
C21 H27 0.930 . S
C22 C21 1.392 . S
C22 N26 1.331 . S
C23 C24 1.391 . S
C23 N26 1.329 . S
C23 H33 0.930 . S
C24 C23 1.391 . S
C24 N25 1.334 . S
C24 H31 0.930 . S
N25 Zn9 2.119 1_565 S
N25 C21 1.328 . S
N25 C24 1.334 . S
N26 C22 1.331 . S
N26 C23 1.329 . S
H27 C21 0.930 . S
C28 O8 1.257 1_565 S
C28 O29 1.244 . S
O29 C28 1.244 . S
O30 C6 1.257 . S
O30 Zn9 2.019 . S
H31 C24 0.930 . S
H32 C11 0.930 . S
H33 C23 0.930 . S
Zn34 N38 2.020 . S
Zn34 O42 2.019 . S
Zn34 N44 2.119 . S
Zn34 O52 1.975 . S
C35 N36 1.334 . S
C35 N39 1.336 . S
N36 C35 1.334 . S
N36 C37 1.334 . S
C37 N36 1.334 . S
C37 N38 1.336 . S
N38 Zn34 2.020 . S
N38 C37 1.336 . S
N38 N39 1.354 . S
N39 C35 1.336 . S
N39 N38 1.354 . S
N39 Zn43 2.020 . S
C40 O41 1.244 . S
C40 O64 1.257 . S
O41 C40 1.244 . S
O42 Zn34 2.019 . S
O42 C62 1.257 . S
Zn43 N39 2.020 . S
Zn43 O50 1.975 . S
Zn43 N59 2.119 . S
Zn43 O64 2.019 . S
N44 Zn34 2.119 . S
N44 C46 1.334 . S
N44 C47 1.328 . S
C45 C46 1.391 . S
C45 N48 1.329 . S
C45 H66 0.930 . S
C46 N44 1.334 . S
C46 C45 1.391 . S
C46 H53 0.930 . S
C47 N44 1.328 . S
C47 C49 1.392 . S
C47 H54 0.930 . S
N48 C45 1.329 . S
N48 C49 1.331 . S
C49 C47 1.392 . S
C49 N48 1.331 . S
O50 Zn43 1.975 . S
O50 C51 1.252 . S
C51 O50 1.252 . S
C51 O52 1.252 . S
O52 Zn34 1.975 . S
O52 C51 1.252 . S
H53 C46 0.930 . S
H54 C47 0.930 . S
C55 C56 1.392 . S
C55 N59 1.328 . S
C55 H61 0.930 . S
C56 C55 1.392 . S
C56 N60 1.331 . S
C57 C58 1.391 . S
C57 N60 1.329 . S
C57 H67 0.930 . S
C58 C57 1.391 . S
C58 N59 1.334 . S
C58 H65 0.930 . S
N59 Zn43 2.119 . S
N59 C55 1.328 . S
N59 C58 1.334 . S
N60 C56 1.331 . S
N60 C57 1.329 . S
H61 C55 0.930 . S
C62 O42 1.257 . S
C62 O63 1.244 . S
O63 C62 1.244 . S
O64 C40 1.257 . S
O64 Zn43 2.019 . S
H65 C58 0.930 . S
H66 C45 0.930 . S
H67 C57 0.930 . S
Zn68 N72 2.020 . S
Zn68 O76 2.019 . S
Zn68 N78 2.119 . S
Zn68 O86 1.975 . S
C69 N70 1.334 1_556 S
C69 N73 1.336 1_545 S
N70 C69 1.334 1_554 S
N70 C71 1.334 1_554 S
C71 N70 1.334 1_556 S
C71 N72 1.336 1_545 S
N72 Zn68 2.020 . S
N72 C71 1.336 1_565 S
N72 N73 1.354 . S
N73 C69 1.336 1_565 S
N73 N72 1.354 . S
N73 Zn77 2.020 . S
C74 O75 1.244 . S
C74 O98 1.257 . S
O75 C74 1.244 . S
O76 Zn68 2.019 . S
O76 C96 1.257 1_565 S
Zn77 N73 2.020 . S
Zn77 O84 1.975 . S
Zn77 N93 2.119 1_565 S
Zn77 O98 2.019 . S
N78 Zn68 2.119 . S
N78 C80 1.334 . S
N78 C81 1.328 . S
C79 C80 1.391 . S
C79 N82 1.329 . S
C79 H100 0.930 . S
C80 N78 1.334 . S
C80 C79 1.391 . S
C80 H87 0.930 . S
C81 N78 1.328 . S
C81 C83 1.392 . S
C81 H88 0.930 . S
N82 C79 1.329 . S
N82 C83 1.331 . S
C83 C81 1.392 . S
C83 N82 1.331 . S
O84 Zn77 1.975 . S
O84 C85 1.252 . S
C85 O84 1.252 . S
C85 O86 1.252 . S
O86 Zn68 1.975 . S
O86 C85 1.252 . S
H87 C80 0.930 . S
H88 C81 0.930 . S
C89 C90 1.392 . S
C89 N93 1.328 . S
C89 H95 0.930 . S
C90 C89 1.392 . S
C90 N94 1.331 . S
C91 C92 1.391 . S
C91 N94 1.329 . S
C91 H101 0.930 . S
C92 C91 1.391 . S
C92 N93 1.334 . S
C92 H99 0.930 . S
N93 Zn77 2.119 1_545 S
N93 C89 1.328 . S
N93 C92 1.334 . S
N94 C90 1.331 . S
N94 C91 1.329 . S
H95 C89 0.930 . S
C96 O76 1.257 1_545 S
C96 O97 1.244 . S
O97 C96 1.244 . S
O98 C74 1.257 . S
O98 Zn77 2.019 . S
H99 C92 0.930 . S
H100 C79 0.930 . S
H101 C91 0.930 . S
Zn102 N106 2.020 1_556 S
Zn102 O110 2.019 . S
Zn102 N112 2.119 1_556 S
Zn102 O120 1.975 . S
C103 N104 1.334 . S
C103 N107 1.336 . S
N104 C103 1.334 . S
N104 C105 1.334 . S
C105 N104 1.334 . S
C105 N106 1.336 . S
N106 Zn102 2.020 1_554 S
N106 C105 1.336 . S
N106 N107 1.354 . S
N107 C103 1.336 . S
N107 N106 1.354 . S
N107 Zn111 2.020 1_554 S
C108 O109 1.244 . S
C108 O132 1.257 1_554 S
O109 C108 1.244 . S
O110 Zn102 2.019 . S
O110 C130 1.257 . S
Zn111 N107 2.020 1_556 S
Zn111 O118 1.975 . S
Zn111 N127 2.119 . S
Zn111 O132 2.019 . S
N112 Zn102 2.119 1_554 S
N112 C114 1.334 . S
N112 C115 1.328 . S
C113 C114 1.391 . S
C113 N116 1.329 . S
C113 H134 0.930 . S
C114 N112 1.334 . S
C114 C113 1.391 . S
C114 H121 0.930 . S
C115 N112 1.328 . S
C115 C117 1.392 . S
C115 H122 0.930 . S
N116 C113 1.329 . S
N116 C117 1.331 . S
C117 C115 1.392 . S
C117 N116 1.331 . S
O118 Zn111 1.975 . S
O118 C119 1.252 . S
C119 O118 1.252 . S
C119 O120 1.252 . S
O120 Zn102 1.975 . S
O120 C119 1.252 . S
H121 C114 0.930 . S
H122 C115 0.930 . S
C123 C124 1.392 . S
C123 N127 1.328 . S
C123 H129 0.930 . S
C124 C123 1.392 . S
C124 N128 1.331 . S
C125 C126 1.391 . S
C125 N128 1.329 . S
C125 H135 0.930 . S
C126 C125 1.391 . S
C126 N127 1.334 . S
C126 H133 0.930 . S
N127 Zn111 2.119 . S
N127 C123 1.328 . S
N127 C126 1.334 . S
N128 C124 1.331 . S
N128 C125 1.329 . S
H129 C123 0.930 . S
C130 O110 1.257 . S
C130 O131 1.244 . S
O131 C130 1.244 . S
O132 C108 1.257 1_556 S
O132 Zn111 2.019 . S
H133 C126 0.930 . S
H134 C113 0.930 . S
H135 C125 0.930 . S
Zn136 N140 2.020 . S
Zn136 O144 2.019 . S
Zn136 N146 2.119 . S
Zn136 O154 1.975 . S
C137 N138 1.334 1_665 S
C137 N141 1.336 . S
N138 C137 1.334 1_445 S
N138 C139 1.334 . S
C139 N138 1.334 . S
C139 N140 1.336 1_545 S
N140 Zn136 2.020 . S
N140 C139 1.336 1_565 S
N140 N141 1.354 1_455 S
N141 C137 1.336 . S
N141 N140 1.354 1_655 S
N141 Zn145 2.020 . S
C142 O143 1.244 . S
C142 O166 1.257 . S
O143 C142 1.244 . S
O144 Zn136 2.019 . S
O144 C164 1.257 1_565 S
Zn145 N141 2.020 . S
Zn145 O152 1.975 . S
Zn145 N161 2.119 1_565 S
Zn145 O166 2.019 . S
N146 Zn136 2.119 . S
N146 C148 1.334 . S
N146 C149 1.328 . S
C147 C148 1.391 . S
C147 N150 1.329 . S
C147 H168 0.930 . S
C148 N146 1.334 . S
C148 C147 1.391 . S
C148 H155 0.930 . S
C149 N146 1.328 . S
C149 C151 1.392 . S
C149 H156 0.930 . S
N150 C147 1.329 . S
N150 C151 1.331 . S
C151 C149 1.392 . S
C151 N150 1.331 . S
O152 Zn145 1.975 . S
O152 C153 1.252 1_655 S
C153 O152 1.252 1_455 S
C153 O154 1.252 . S
O154 Zn136 1.975 . S
O154 C153 1.252 . S
H155 C148 0.930 . S
H156 C149 0.930 . S
C157 C158 1.392 . S
C157 N161 1.328 . S
C157 H163 0.930 . S
C158 C157 1.392 . S
C158 N162 1.331 . S
C159 C160 1.391 . S
C159 N162 1.329 . S
C159 H169 0.930 . S
C160 C159 1.391 . S
C160 N161 1.334 . S
C160 H167 0.930 . S
N161 Zn145 2.119 1_545 S
N161 C157 1.328 . S
N161 C160 1.334 . S
N162 C158 1.331 . S
N162 C159 1.329 . S
H163 C157 0.930 . S
C164 O144 1.257 1_545 S
C164 O165 1.244 . S
O165 C164 1.244 . S
O166 C142 1.257 . S
O166 Zn145 2.019 . S
H167 C160 0.930 . S
H168 C147 0.930 . S
H169 C159 0.930 . S
Zn170 N174 2.020 1_554 S
Zn170 O178 2.019 . S
Zn170 N180 2.119 . S
Zn170 O188 1.975 . S
C171 N172 1.334 . S
C171 N175 1.336 . S
N172 C171 1.334 . S
N172 C173 1.334 . S
C173 N172 1.334 . S
C173 N174 1.336 . S
N174 Zn170 2.020 1_556 S
N174 C173 1.336 . S
N174 N175 1.354 . S
N175 C171 1.336 . S
N175 N174 1.354 . S
N175 Zn179 2.020 1_556 S
C176 O177 1.244 . S
C176 O200 1.257 . S
O177 C176 1.244 . S
O178 Zn170 2.019 . S
O178 C198 1.257 1_554 S
Zn179 N175 2.020 1_554 S
Zn179 O186 1.975 . S
Zn179 N195 2.119 1_554 S
Zn179 O200 2.019 . S
N180 Zn170 2.119 . S
N180 C182 1.334 . S
N180 C183 1.328 . S
C181 C182 1.391 . S
C181 N184 1.329 . S
C181 H202 0.930 . S
C182 N180 1.334 . S
C182 C181 1.391 . S
C182 H189 0.930 . S
C183 N180 1.328 . S
C183 C185 1.392 . S
C183 H190 0.930 . S
N184 C181 1.329 . S
N184 C185 1.331 . S
C185 C183 1.392 . S
C185 N184 1.331 . S
O186 Zn179 1.975 . S
O186 C187 1.252 . S
C187 O186 1.252 . S
C187 O188 1.252 . S
O188 Zn170 1.975 . S
O188 C187 1.252 . S
H189 C182 0.930 . S
H190 C183 0.930 . S
C191 C192 1.392 . S
C191 N195 1.328 . S
C191 H197 0.930 . S
C192 C191 1.392 . S
C192 N196 1.331 . S
C193 C194 1.391 . S
C193 N196 1.329 . S
C193 H203 0.930 . S
C194 C193 1.391 . S
C194 N195 1.334 . S
C194 H201 0.930 . S
N195 Zn179 2.119 1_556 S
N195 C191 1.328 . S
N195 C194 1.334 . S
N196 C192 1.331 . S
N196 C193 1.329 . S
H197 C191 0.930 . S
C198 O178 1.257 1_556 S
C198 O199 1.244 . S
O199 C198 1.244 . S
O200 C176 1.257 . S
O200 Zn179 2.019 . S
H201 C194 0.930 . S
H202 C181 0.930 . S
H203 C193 0.930 . S
Zn204 N208 2.020 . S
Zn204 O212 2.019 . S
Zn204 N214 2.119 . S
Zn204 O222 1.975 . S
C205 N206 1.334 1_554 S
C205 N209 1.336 1_565 S
N206 C205 1.334 1_556 S
N206 C207 1.334 1_556 S
C207 N206 1.334 1_554 S
C207 N208 1.336 1_565 S
N208 Zn204 2.020 . S
N208 C207 1.336 1_545 S
N208 N209 1.354 . S
N209 C205 1.336 1_545 S
N209 N208 1.354 . S
N209 Zn213 2.020 . S
C210 O211 1.244 . S
C210 O234 1.257 . S
O211 C210 1.244 . S
O212 Zn204 2.019 . S
O212 C232 1.257 1_545 S
Zn213 N209 2.020 . S
Zn213 O220 1.975 . S
Zn213 N229 2.119 1_545 S
Zn213 O234 2.019 . S
N214 Zn204 2.119 . S
N214 C216 1.334 . S
N214 C217 1.328 . S
C215 C216 1.391 . S
C215 N218 1.329 . S
C215 H236 0.930 . S
C216 N214 1.334 . S
C216 C215 1.391 . S
C216 H223 0.930 . S
C217 N214 1.328 . S
C217 C219 1.392 . S
C217 H224 0.930 . S
N218 C215 1.329 . S
N218 C219 1.331 . S
C219 C217 1.392 . S
C219 N218 1.331 . S
O220 Zn213 1.975 . S
O220 C221 1.252 . S
C221 O220 1.252 . S
C221 O222 1.252 . S
O222 Zn204 1.975 . S
O222 C221 1.252 . S
H223 C216 0.930 . S
H224 C217 0.930 . S
C225 C226 1.392 . S
C225 N229 1.328 . S
C225 H231 0.930 . S
C226 C225 1.392 . S
C226 N230 1.331 . S
C227 C228 1.391 . S
C227 N230 1.329 . S
C227 H237 0.930 . S
C228 C227 1.391 . S
C228 N229 1.334 . S
C228 H235 0.930 . S
N229 Zn213 2.119 1_565 S
N229 C225 1.328 . S
N229 C228 1.334 . S
N230 C226 1.331 . S
N230 C227 1.329 . S
H231 C225 0.930 . S
C232 O212 1.257 1_565 S
C232 O233 1.244 . S
O233 C232 1.244 . S
O234 C210 1.257 . S
O234 Zn213 2.019 . S
H235 C228 0.930 . S
H236 C215 0.930 . S
H237 C227 0.930 . S
Zn238 N242 2.020 . S
Zn238 O246 2.019 . S
Zn238 N248 2.119 . S
Zn238 O256 1.975 . S
C239 N240 1.334 . S
C239 N243 1.336 . S
N240 C239 1.334 . S
N240 C241 1.334 . S
C241 N240 1.334 . S
C241 N242 1.336 . S
N242 Zn238 2.020 . S
N242 C241 1.336 . S
N242 N243 1.354 . S
N243 C239 1.336 . S
N243 N242 1.354 . S
N243 Zn247 2.020 . S
C244 O245 1.244 . S
C244 O268 1.257 . S
O245 C244 1.244 . S
O246 Zn238 2.019 . S
O246 C266 1.257 . S
Zn247 N243 2.020 . S
Zn247 O254 1.975 . S
Zn247 N263 2.119 . S
Zn247 O268 2.019 . S
N248 Zn238 2.119 . S
N248 C250 1.334 . S
N248 C251 1.328 . S
C249 C250 1.391 . S
C249 N252 1.329 . S
C249 H270 0.930 . S
C250 N248 1.334 . S
C250 C249 1.391 . S
C250 H257 0.930 . S
C251 N248 1.328 . S
C251 C253 1.392 . S
C251 H258 0.930 . S
N252 C249 1.329 . S
N252 C253 1.331 . S
C253 C251 1.392 . S
C253 N252 1.331 . S
O254 Zn247 1.975 . S
O254 C255 1.252 . S
C255 O254 1.252 . S
C255 O256 1.252 . S
O256 Zn238 1.975 . S
O256 C255 1.252 . S
H257 C250 0.930 . S
H258 C251 0.930 . S
C259 C260 1.392 . S
C259 N263 1.328 . S
C259 H265 0.930 . S
C260 C259 1.392 . S
C260 N264 1.331 . S
C261 C262 1.391 . S
C261 N264 1.329 . S
C261 H271 0.930 . S
C262 C261 1.391 . S
C262 N263 1.334 . S
C262 H269 0.930 . S
N263 Zn247 2.119 . S
N263 C259 1.328 . S
N263 C262 1.334 . S
N264 C260 1.331 . S
N264 C261 1.329 . S
H265 C259 0.930 . S
C266 O246 1.257 . S
C266 O267 1.244 . S
O267 C266 1.244 . S
O268 C244 1.257 . S
O268 Zn247 2.019 . S
H269 C262 0.930 . S
H270 C249 0.930 . S
H271 C261 0.930 . S
Zn272 N276 2.020 . S
Zn272 O280 2.019 . S
Zn272 N282 2.119 . S
Zn272 O290 1.975 . S
C273 N274 1.334 . S
C273 N277 1.336 . S
N274 C273 1.334 . S
N274 C275 1.334 . S
C275 N274 1.334 . S
C275 N276 1.336 . S
N276 Zn272 2.020 . S
N276 C275 1.336 . S
N276 N277 1.354 . S
N277 C273 1.336 . S
N277 N276 1.354 . S
N277 Zn281 2.020 . S
C278 O279 1.244 . S
C278 O302 1.257 . S
O279 C278 1.244 . S
O280 Zn272 2.019 . S
O280 C300 1.257 . S
Zn281 N277 2.020 . S
Zn281 O288 1.975 . S
Zn281 N297 2.119 . S
Zn281 O302 2.019 . S
N282 Zn272 2.119 . S
N282 C284 1.334 . S
N282 C285 1.328 . S
C283 C284 1.391 . S
C283 N286 1.329 . S
C283 H304 0.930 . S
C284 N282 1.334 . S
C284 C283 1.391 . S
C284 H291 0.930 . S
C285 N282 1.328 . S
C285 C287 1.392 . S
C285 H292 0.930 . S
N286 C283 1.329 . S
N286 C287 1.331 . S
C287 C285 1.392 . S
C287 N286 1.331 . S
O288 Zn281 1.975 . S
O288 C289 1.252 . S
C289 O288 1.252 . S
C289 O290 1.252 . S
O290 Zn272 1.975 . S
O290 C289 1.252 . S
H291 C284 0.930 . S
H292 C285 0.930 . S
C293 C294 1.392 . S
C293 N297 1.328 . S
C293 H299 0.930 . S
C294 C293 1.392 . S
C294 N298 1.331 . S
C295 C296 1.391 . S
C295 N298 1.329 . S
C295 H305 0.930 . S
C296 C295 1.391 . S
C296 N297 1.334 . S
C296 H303 0.930 . S
N297 Zn281 2.119 . S
N297 C293 1.328 . S
N297 C296 1.334 . S
N298 C294 1.331 . S
N298 C295 1.329 . S
H299 C293 0.930 . S
C300 O280 1.257 . S
C300 O301 1.244 . S
O301 C300 1.244 . S
O302 C278 1.257 . S
O302 Zn281 2.019 . S
H303 C296 0.930 . S
H304 C283 0.930 . S
H305 C295 0.930 . S
Zn306 N310 2.020 1_554 S
Zn306 O314 2.019 . S
Zn306 N316 2.119 1_554 S
Zn306 O324 1.975 . S
C307 N308 1.334 . S
C307 N311 1.336 . S
N308 C307 1.334 . S
N308 C309 1.334 . S
C309 N308 1.334 . S
C309 N310 1.336 . S
N310 Zn306 2.020 1_556 S
N310 C309 1.336 . S
N310 N311 1.354 . S
N311 C307 1.336 . S
N311 N310 1.354 . S
N311 Zn315 2.020 1_556 S
C312 O313 1.244 . S
C312 O336 1.257 1_556 S
O313 C312 1.244 . S
O314 Zn306 2.019 . S
O314 C334 1.257 . S
Zn315 N311 2.020 1_554 S
Zn315 O322 1.975 . S
Zn315 N331 2.119 . S
Zn315 O336 2.019 . S
N316 Zn306 2.119 1_556 S
N316 C318 1.334 . S
N316 C319 1.328 . S
C317 C318 1.391 . S
C317 N320 1.329 . S
C317 H338 0.930 . S
C318 N316 1.334 . S
C318 C317 1.391 . S
C318 H325 0.930 . S
C319 N316 1.328 . S
C319 C321 1.392 . S
C319 H326 0.930 . S
N320 C317 1.329 . S
N320 C321 1.331 . S
C321 C319 1.392 . S
C321 N320 1.331 . S
O322 Zn315 1.975 . S
O322 C323 1.252 . S
C323 O322 1.252 . S
C323 O324 1.252 . S
O324 Zn306 1.975 . S
O324 C323 1.252 . S
H325 C318 0.930 . S
H326 C319 0.930 . S
C327 C328 1.392 . S
C327 N331 1.328 . S
C327 H333 0.930 . S
C328 C327 1.392 . S
C328 N332 1.331 . S
C329 C330 1.391 . S
C329 N332 1.329 . S
C329 H339 0.930 . S
C330 C329 1.391 . S
C330 N331 1.334 . S
C330 H337 0.930 . S
N331 Zn315 2.119 . S
N331 C327 1.328 . S
N331 C330 1.334 . S
N332 C328 1.331 . S
N332 C329 1.329 . S
H333 C327 0.930 . S
C334 O314 1.257 . S
C334 O335 1.244 . S
O335 C334 1.244 . S
O336 C312 1.257 1_554 S
O336 Zn315 2.019 . S
H337 C330 0.930 . S
H338 C317 0.930 . S
H339 C329 0.930 . S
Zn340 N344 2.020 1_556 S
Zn340 O348 2.019 . S
Zn340 N350 2.119 . S
Zn340 O358 1.975 . S
C341 N342 1.334 . S
C341 N345 1.336 . S
N342 C341 1.334 . S
N342 C343 1.334 . S
C343 N342 1.334 . S
C343 N344 1.336 . S
N344 Zn340 2.020 1_554 S
N344 C343 1.336 . S
N344 N345 1.354 . S
N345 C341 1.336 . S
N345 N344 1.354 . S
N345 Zn349 2.020 1_554 S
C346 O347 1.244 . S
C346 O370 1.257 . S
O347 C346 1.244 . S
O348 Zn340 2.019 . S
O348 C368 1.257 1_556 S
Zn349 N345 2.020 1_556 S
Zn349 O356 1.975 . S
Zn349 N365 2.119 1_556 S
Zn349 O370 2.019 . S
N350 Zn340 2.119 . S
N350 C352 1.334 . S
N350 C353 1.328 . S
C351 C352 1.391 . S
C351 N354 1.329 . S
C351 H372 0.930 . S
C352 N350 1.334 . S
C352 C351 1.391 . S
C352 H359 0.930 . S
C353 N350 1.328 . S
C353 C355 1.392 . S
C353 H360 0.930 . S
N354 C351 1.329 . S
N354 C355 1.331 . S
C355 C353 1.392 . S
C355 N354 1.331 . S
O356 Zn349 1.975 . S
O356 C357 1.252 . S
C357 O356 1.252 . S
C357 O358 1.252 . S
O358 Zn340 1.975 . S
O358 C357 1.252 . S
H359 C352 0.930 . S
H360 C353 0.930 . S
C361 C362 1.392 . S
C361 N365 1.328 . S
C361 H367 0.930 . S
C362 C361 1.392 . S
C362 N366 1.331 . S
C363 C364 1.391 . S
C363 N366 1.329 . S
C363 H373 0.930 . S
C364 C363 1.391 . S
C364 N365 1.334 . S
C364 H371 0.930 . S
N365 Zn349 2.119 1_554 S
N365 C361 1.328 . S
N365 C364 1.334 . S
N366 C362 1.331 . S
N366 C363 1.329 . S
H367 C361 0.930 . S
C368 O348 1.257 1_554 S
C368 O369 1.244 . S
O369 C368 1.244 . S
O370 C346 1.257 . S
O370 Zn349 2.019 . S
H371 C364 0.930 . S
H372 C351 0.930 . S
H373 C363 0.930 . S
Zn374 N378 2.020 . S
Zn374 O382 2.019 . S
Zn374 N384 2.119 . S
Zn374 O392 1.975 . S
C375 N376 1.334 . S
C375 N379 1.336 . S
N376 C375 1.334 . S
N376 C377 1.334 . S
C377 N376 1.334 . S
C377 N378 1.336 . S
N378 Zn374 2.020 . S
N378 C377 1.336 . S
N378 N379 1.354 . S
N379 C375 1.336 . S
N379 N378 1.354 . S
N379 Zn383 2.020 . S
C380 O381 1.244 . S
C380 O404 1.257 . S
O381 C380 1.244 . S
O382 Zn374 2.019 . S
O382 C402 1.257 . S
Zn383 N379 2.020 . S
Zn383 O390 1.975 . S
Zn383 N399 2.119 . S
Zn383 O404 2.019 . S
N384 Zn374 2.119 . S
N384 C386 1.334 . S
N384 C387 1.328 . S
C385 C386 1.391 . S
C385 N388 1.329 . S
C385 H406 0.930 . S
C386 N384 1.334 . S
C386 C385 1.391 . S
C386 H393 0.930 . S
C387 N384 1.328 . S
C387 C389 1.392 . S
C387 H394 0.930 . S
N388 C385 1.329 . S
N388 C389 1.331 . S
C389 C387 1.392 . S
C389 N388 1.331 . S
O390 Zn383 1.975 . S
O390 C391 1.252 . S
C391 O390 1.252 . S
C391 O392 1.252 . S
O392 Zn374 1.975 . S
O392 C391 1.252 . S
H393 C386 0.930 . S
H394 C387 0.930 . S
C395 C396 1.392 . S
C395 N399 1.328 . S
C395 H401 0.930 . S
C396 C395 1.392 . S
C396 N400 1.331 . S
C397 C398 1.391 . S
C397 N400 1.329 . S
C397 H407 0.930 . S
C398 C397 1.391 . S
C398 N399 1.334 . S
C398 H405 0.930 . S
N399 Zn383 2.119 . S
N399 C395 1.328 . S
N399 C398 1.334 . S
N400 C396 1.331 . S
N400 C397 1.329 . S
H401 C395 0.930 . S
C402 O382 1.257 . S
C402 O403 1.244 . S
O403 C402 1.244 . S
O404 C380 1.257 . S
O404 Zn383 2.019 . S
H405 C398 0.930 . S
H406 C385 0.930 . S
H407 C397 0.930 . S
Zn408 N412 2.020 . S
Zn408 O416 2.019 . S
Zn408 N418 2.119 . S
Zn408 O426 1.975 . S
C409 N410 1.334 1_556 S
C409 N413 1.336 . S
N410 C409 1.334 1_554 S
N410 C411 1.334 1_554 S
C411 N410 1.334 1_556 S
C411 N412 1.336 . S
N412 Zn408 2.020 . S
N412 C411 1.336 . S
N412 N413 1.354 . S
N413 C409 1.336 . S
N413 N412 1.354 . S
N413 Zn417 2.020 . S
C414 O415 1.244 . S
C414 O438 1.257 . S
O415 C414 1.244 . S
O416 Zn408 2.019 . S
O416 C436 1.257 . S
Zn417 N413 2.020 . S
Zn417 O424 1.975 . S
Zn417 N433 2.119 . S
Zn417 O438 2.019 . S
N418 Zn408 2.119 . S
N418 C420 1.334 . S
N418 C421 1.328 . S
C419 C420 1.391 . S
C419 N422 1.329 . S
C419 H440 0.930 . S
C420 N418 1.334 . S
C420 C419 1.391 . S
C420 H427 0.930 . S
C421 N418 1.328 . S
C421 C423 1.392 . S
C421 H428 0.930 . S
N422 C419 1.329 . S
N422 C423 1.331 . S
C423 C421 1.392 . S
C423 N422 1.331 . S
O424 Zn417 1.975 . S
O424 C425 1.252 . S
C425 O424 1.252 . S
C425 O426 1.252 . S
O426 Zn408 1.975 . S
O426 C425 1.252 . S
H427 C420 0.930 . S
H428 C421 0.930 . S
C429 C430 1.392 . S
C429 N433 1.328 . S
C429 H435 0.930 . S
C430 C429 1.392 . S
C430 N434 1.331 . S
C431 C432 1.391 . S
C431 N434 1.329 . S
C431 H441 0.930 . S
C432 C431 1.391 . S
C432 N433 1.334 . S
C432 H439 0.930 . S
N433 Zn417 2.119 . S
N433 C429 1.328 . S
N433 C432 1.334 . S
N434 C430 1.331 . S
N434 C431 1.329 . S
H435 C429 0.930 . S
C436 O416 1.257 . S
C436 O437 1.244 . S
O437 C436 1.244 . S
O438 C414 1.257 . S
O438 Zn417 2.019 . S
H439 C432 0.930 . S
H440 C419 0.930 . S
H441 C431 0.930 . S
Zn442 N446 2.020 . S
Zn442 O450 2.019 . S
Zn442 N452 2.119 . S
Zn442 O460 1.975 . S
C443 N444 1.334 . S
C443 N447 1.336 . S
N444 C443 1.334 . S
N444 C445 1.334 1_455 S
C445 N444 1.334 1_655 S
C445 N446 1.336 . S
N446 Zn442 2.020 . S
N446 C445 1.336 . S
N446 N447 1.354 1_655 S
N447 C443 1.336 . S
N447 N446 1.354 1_455 S
N447 Zn451 2.020 . S
C448 O449 1.244 . S
C448 O472 1.257 . S
O449 C448 1.244 . S
O450 Zn442 2.019 . S
O450 C470 1.257 . S
Zn451 N447 2.020 . S
Zn451 O458 1.975 . S
Zn451 N467 2.119 . S
Zn451 O472 2.019 . S
N452 Zn442 2.119 . S
N452 C454 1.334 . S
N452 C455 1.328 . S
C453 C454 1.391 . S
C453 N456 1.329 . S
C453 H474 0.930 . S
C454 N452 1.334 . S
C454 C453 1.391 . S
C454 H461 0.930 . S
C455 N452 1.328 . S
C455 C457 1.392 . S
C455 H462 0.930 . S
N456 C453 1.329 . S
N456 C457 1.331 . S
C457 C455 1.392 . S
C457 N456 1.331 . S
O458 Zn451 1.975 . S
O458 C459 1.252 . S
C459 O458 1.252 . S
C459 O460 1.252 1_455 S
O460 Zn442 1.975 . S
O460 C459 1.252 1_655 S
H461 C454 0.930 . S
H462 C455 0.930 . S
C463 C464 1.392 . S
C463 N467 1.328 . S
C463 H469 0.930 . S
C464 C463 1.392 . S
C464 N468 1.331 . S
C465 C466 1.391 . S
C465 N468 1.329 . S
C465 H475 0.930 . S
C466 C465 1.391 . S
C466 N467 1.334 . S
C466 H473 0.930 . S
N467 Zn451 2.119 . S
N467 C463 1.328 . S
N467 C466 1.334 . S
N468 C464 1.331 . S
N468 C465 1.329 . S
H469 C463 0.930 . S
C470 O450 1.257 . S
C470 O471 1.244 . S
O471 C470 1.244 . S
O472 C448 1.257 . S
O472 Zn451 2.019 . S
H473 C466 0.930 . S
H474 C453 0.930 . S
H475 C465 0.930 . S
Zn476 N480 2.020 . S
Zn476 O484 2.019 . S
Zn476 N486 2.119 . S
Zn476 O494 1.975 . S
C477 N478 1.334 1_554 S
C477 N481 1.336 . S
N478 C477 1.334 1_556 S
N478 C479 1.334 1_556 S
C479 N478 1.334 1_554 S
C479 N480 1.336 . S
N480 Zn476 2.020 . S
N480 C479 1.336 . S
N480 N481 1.354 . S
N481 C477 1.336 . S
N481 N480 1.354 . S
N481 Zn485 2.020 . S
C482 O483 1.244 . S
C482 O506 1.257 . S
O483 C482 1.244 . S
O484 Zn476 2.019 . S
O484 C504 1.257 . S
Zn485 N481 2.020 . S
Zn485 O492 1.975 . S
Zn485 N501 2.119 . S
Zn485 O506 2.019 . S
N486 Zn476 2.119 . S
N486 C488 1.334 . S
N486 C489 1.328 . S
C487 C488 1.391 . S
C487 N490 1.329 . S
C487 H508 0.930 . S
C488 N486 1.334 . S
C488 C487 1.391 . S
C488 H495 0.930 . S
C489 N486 1.328 . S
C489 C491 1.392 . S
C489 H496 0.930 . S
N490 C487 1.329 . S
N490 C491 1.331 . S
C491 C489 1.392 . S
C491 N490 1.331 . S
O492 Zn485 1.975 . S
O492 C493 1.252 . S
C493 O492 1.252 . S
C493 O494 1.252 . S
O494 Zn476 1.975 . S
O494 C493 1.252 . S
H495 C488 0.930 . S
H496 C489 0.930 . S
C497 C498 1.392 . S
C497 N501 1.328 . S
C497 H503 0.930 . S
C498 C497 1.392 . S
C498 N502 1.331 . S
C499 C500 1.391 . S
C499 N502 1.329 . S
C499 H509 0.930 . S
C500 C499 1.391 . S
C500 N501 1.334 . S
C500 H507 0.930 . S
N501 Zn485 2.119 . S
N501 C497 1.328 . S
N501 C500 1.334 . S
N502 C498 1.331 . S
N502 C499 1.329 . S
H503 C497 0.930 . S
C504 O484 1.257 . S
C504 O505 1.244 . S
O505 C504 1.244 . S
O506 C482 1.257 . S
O506 Zn485 2.019 . S
H507 C500 0.930 . S
H508 C487 0.930 . S
H509 C499 0.930 . S
Zn510 N514 2.020 . S
Zn510 O518 2.019 . S
Zn510 N520 2.119 . S
Zn510 O528 1.975 . S
C511 N512 1.334 1_655 S
C511 N515 1.336 . S
N512 C511 1.334 1_455 S
N512 C513 1.334 . S
C513 N512 1.334 . S
C513 N514 1.336 . S
N514 Zn510 2.020 . S
N514 C513 1.336 . S
N514 N515 1.354 1_455 S
N515 C511 1.336 . S
N515 N514 1.354 1_655 S
N515 Zn519 2.020 . S
C516 O517 1.244 . S
C516 O540 1.257 . S
O517 C516 1.244 . S
O518 Zn510 2.019 . S
O518 C538 1.257 . S
Zn519 N515 2.020 . S
Zn519 O526 1.975 . S
Zn519 N535 2.119 . S
Zn519 O540 2.019 . S
N520 Zn510 2.119 . S
N520 C522 1.334 . S
N520 C523 1.328 . S
C521 C522 1.391 . S
C521 N524 1.329 . S
C521 H542 0.930 . S
C522 N520 1.334 . S
C522 C521 1.391 . S
C522 H529 0.930 . S
C523 N520 1.328 . S
C523 C525 1.392 . S
C523 H530 0.930 . S
N524 C521 1.329 . S
N524 C525 1.331 . S
C525 C523 1.392 . S
C525 N524 1.331 . S
O526 Zn519 1.975 . S
O526 C527 1.252 1_655 S
C527 O526 1.252 1_455 S
C527 O528 1.252 . S
O528 Zn510 1.975 . S
O528 C527 1.252 . S
H529 C522 0.930 . S
H530 C523 0.930 . S
C531 C532 1.392 . S
C531 N535 1.328 . S
C531 H537 0.930 . S
C532 C531 1.392 . S
C532 N536 1.331 . S
C533 C534 1.391 . S
C533 N536 1.329 . S
C533 H543 0.930 . S
C534 C533 1.391 . S
C534 N535 1.334 . S
C534 H541 0.930 . S
N535 Zn519 2.119 . S
N535 C531 1.328 . S
N535 C534 1.334 . S
N536 C532 1.331 . S
N536 C533 1.329 . S
H537 C531 0.930 . S
C538 O518 1.257 . S
C538 O539 1.244 . S
O539 C538 1.244 . S
O540 C516 1.257 . S
O540 Zn519 2.019 . S
H541 C534 0.930 . S
H542 C521 0.930 . S
H543 C533 0.930 . S
C153 C17 3.706 1_566 S
C51 C187 3.592 . S
C221 C85 3.672 1_545 S
C255 C119 3.592 . S
C357 C289 3.592 . S
C323 C391 3.592 . S
C493 C425 3.672 . S
C459 C527 3.706 1_554 S
C105 C15 1.846 . S
C3 C56 1.771 . S
C35 C83 1.698 . S
C117 C71 1.590 1_554 S
C171 C151 1.846 . S
C207 C192 1.590 1_554 S
C241 C219 1.698 . S
C139 C253 1.771 . S
C142 C307 3.063 . S
C300 C137 3.066 1_545 S
C210 C275 3.004 . S
C312 C205 2.955 1_556 S
C343 C6 3.063 . S
C69 C368 2.955 1_556 S
C375 C74 3.004 . S
C1 C380 3.066 1_545 S
C377 C423 1.698 . S
C411 C362 1.590 1_556 S
C457 C341 1.846 . S
C389 C445 1.771 . S
C498 C273 1.698 . S
C511 C294 1.771 . S
C309 C532 1.846 . S
C477 C321 1.590 1_554 S
C239 C504 3.004 . S
C479 C198 2.955 1_554 S
C538 C173 3.063 . S
C244 C513 3.066 . S
C37 C414 3.004 . S
C62 C443 3.066 . S
C448 C103 3.063 . S
C409 C108 2.955 1_556 S
C176 C28 1.759 . S
C232 C40 1.849 . S
C266 C96 1.849 . S
C130 C164 1.759 . S
C158 C355 0.956 . S
C287 C90 0.929 . S
C396 C226 0.929 . S
C22 C328 0.956 . S
C436 C278 1.849 . S
C346 C516 1.759 . S
C470 C334 1.759 . S
C482 C402 1.849 . S
C49 C491 0.929 . S
C464 C185 0.956 . S
C124 C525 0.956 . S
C260 C430 0.929 . S
