# Generated by pormake.
# Topology wne, (6)-cn, num edge types: 1
# Building blocks:
#     Node 0, Type 0, BuildingBlock: JUFBIX_clean_sbu_0, # of connection points: 6
#     Node 1, Type 0, BuildingBlock: JUFBIX_clean_sbu_0, # of connection points: 6
#     Node 2, Type 0, BuildingBlock: JUFBIX_clean_sbu_0, # of connection points: 6
#     Node 3, Type 0, BuildingBlock: JUFBIX_clean_sbu_0, # of connection points: 6
#     Node 4, Type 0, BuildingBlock: JUFBIX_clean_sbu_0, # of connection points: 6
#     Node 5, Type 0, BuildingBlock: JUFBIX_clean_sbu_0, # of connection points: 6
#     Node 6, Type 0, BuildingBlock: JUFBIX_clean_sbu_0, # of connection points: 6
#     Node 7, Type 0, BuildingBlock: JUFBIX_clean_sbu_0, # of connection points: 6
#     Node 8, Type 0, BuildingBlock: JUFBIX_clean_sbu_0, # of connection points: 6
#     Node 9, Type 0, BuildingBlock: JUFBIX_clean_sbu_0, # of connection points: 6
#     Node 10, Type 0, BuildingBlock: JUFBIX_clean_sbu_0, # of connection points: 6
#     Node 11, Type 0, BuildingBlock: JUFBIX_clean_sbu_0, # of connection points: 6
#     Node 12, Type 0, BuildingBlock: JUFBIX_clean_sbu_0, # of connection points: 6
#     Node 13, Type 0, BuildingBlock: JUFBIX_clean_sbu_0, # of connection points: 6
#     Node 14, Type 0, BuildingBlock: JUFBIX_clean_sbu_0, # of connection points: 6
#     Node 15, Type 0, BuildingBlock: JUFBIX_clean_sbu_0, # of connection points: 6
#     Node 16, Type 0, BuildingBlock: JUFBIX_clean_sbu_0, # of connection points: 6
#     Node 17, Type 0, BuildingBlock: JUFBIX_clean_sbu_0, # of connection points: 6
#     Node 18, Type 0, BuildingBlock: JUFBIX_clean_sbu_0, # of connection points: 6
#     Node 19, Type 0, BuildingBlock: JUFBIX_clean_sbu_0, # of connection points: 6
#     Node 20, Type 0, BuildingBlock: JUFBIX_clean_sbu_0, # of connection points: 6
#     Node 21, Type 0, BuildingBlock: JUFBIX_clean_sbu_0, # of connection points: 6
#     Node 22, Type 0, BuildingBlock: JUFBIX_clean_sbu_0, # of connection points: 6
#     Node 23, Type 0, BuildingBlock: JUFBIX_clean_sbu_0, # of connection points: 6
#     Node 24, Type 0, BuildingBlock: JUFBIX_clean_sbu_0, # of connection points: 6
#     Node 25, Type 0, BuildingBlock: JUFBIX_clean_sbu_0, # of connection points: 6
#     Node 26, Type 0, BuildingBlock: JUFBIX_clean_sbu_0, # of connection points: 6
#     Node 27, Type 0, BuildingBlock: JUFBIX_clean_sbu_0, # of connection points: 6
#     Node 28, Type 0, BuildingBlock: JUFBIX_clean_sbu_0, # of connection points: 6
#     Node 29, Type 0, BuildingBlock: JUFBIX_clean_sbu_0, # of connection points: 6
#     Node 30, Type 0, BuildingBlock: JUFBIX_clean_sbu_0, # of connection points: 6
#     Node 31, Type 0, BuildingBlock: JUFBIX_clean_sbu_0, # of connection points: 6
#     Node 32, Type 0, BuildingBlock: JUFBIX_clean_sbu_0, # of connection points: 6
#     Node 33, Type 0, BuildingBlock: JUFBIX_clean_sbu_0, # of connection points: 6
#     Node 34, Type 0, BuildingBlock: JUFBIX_clean_sbu_0, # of connection points: 6
#     Node 35, Type 0, BuildingBlock: JUFBIX_clean_sbu_0, # of connection points: 6
#     Edge 36, Type (0, 0), BuildingBlock: XIVTED_clean_linker_0, # of connection points: 2
#     Edge 37, Type (0, 0), BuildingBlock: XIVTED_clean_linker_0, # of connection points: 2
#     Edge 38, Type (0, 0), BuildingBlock: XIVTED_clean_linker_0, # of connection points: 2
#     Edge 39, Type (0, 0), BuildingBlock: XIVTED_clean_linker_0, # of connection points: 2
#     Edge 40, Type (0, 0), BuildingBlock: XIVTED_clean_linker_0, # of connection points: 2
#     Edge 41, Type (0, 0), BuildingBlock: XIVTED_clean_linker_0, # of connection points: 2
#     Edge 42, Type (0, 0), BuildingBlock: XIVTED_clean_linker_0, # of connection points: 2
#     Edge 43, Type (0, 0), BuildingBlock: XIVTED_clean_linker_0, # of connection points: 2
#     Edge 44, Type (0, 0), BuildingBlock: XIVTED_clean_linker_0, # of connection points: 2
#     Edge 45, Type (0, 0), BuildingBlock: XIVTED_clean_linker_0, # of connection points: 2
#     Edge 46, Type (0, 0), BuildingBlock: XIVTED_clean_linker_0, # of connection points: 2
#     Edge 47, Type (0, 0), BuildingBlock: XIVTED_clean_linker_0, # of connection points: 2
#     Edge 48, Type (0, 0), BuildingBlock: XIVTED_clean_linker_0, # of connection points: 2
#     Edge 49, Type (0, 0), BuildingBlock: XIVTED_clean_linker_0, # of connection points: 2
#     Edge 50, Type (0, 0), BuildingBlock: XIVTED_clean_linker_0, # of connection points: 2
#     Edge 51, Type (0, 0), BuildingBlock: XIVTED_clean_linker_0, # of connection points: 2
#     Edge 52, Type (0, 0), BuildingBlock: XIVTED_clean_linker_0, # of connection points: 2
#     Edge 53, Type (0, 0), BuildingBlock: XIVTED_clean_linker_0, # of connection points: 2
#     Edge 54, Type (0, 0), BuildingBlock: XIVTED_clean_linker_0, # of connection points: 2
#     Edge 55, Type (0, 0), BuildingBlock: XIVTED_clean_linker_0, # of connection points: 2
#     Edge 56, Type (0, 0), BuildingBlock: XIVTED_clean_linker_0, # of connection points: 2
#     Edge 57, Type (0, 0), BuildingBlock: XIVTED_clean_linker_0, # of connection points: 2
#     Edge 58, Type (0, 0), BuildingBlock: XIVTED_clean_linker_0, # of connection points: 2
#     Edge 59, Type (0, 0), BuildingBlock: XIVTED_clean_linker_0, # of connection points: 2
#     Edge 60, Type (0, 0), BuildingBlock: XIVTED_clean_linker_0, # of connection points: 2
#     Edge 61, Type (0, 0), BuildingBlock: XIVTED_clean_linker_0, # of connection points: 2
#     Edge 62, Type (0, 0), BuildingBlock: XIVTED_clean_linker_0, # of connection points: 2
#     Edge 63, Type (0, 0), BuildingBlock: XIVTED_clean_linker_0, # of connection points: 2
#     Edge 64, Type (0, 0), BuildingBlock: XIVTED_clean_linker_0, # of connection points: 2
#     Edge 65, Type (0, 0), BuildingBlock: XIVTED_clean_linker_0, # of connection points: 2
#     Edge 66, Type (0, 0), BuildingBlock: XIVTED_clean_linker_0, # of connection points: 2
#     Edge 67, Type (0, 0), BuildingBlock: XIVTED_clean_linker_0, # of connection points: 2
#     Edge 68, Type (0, 0), BuildingBlock: XIVTED_clean_linker_0, # of connection points: 2
#     Edge 69, Type (0, 0), BuildingBlock: XIVTED_clean_linker_0, # of connection points: 2
#     Edge 70, Type (0, 0), BuildingBlock: XIVTED_clean_linker_0, # of connection points: 2
#     Edge 71, Type (0, 0), BuildingBlock: XIVTED_clean_linker_0, # of connection points: 2
#     Edge 72, Type (0, 0), BuildingBlock: XIVTED_clean_linker_0, # of connection points: 2
#     Edge 73, Type (0, 0), BuildingBlock: XIVTED_clean_linker_0, # of connection points: 2
#     Edge 74, Type (0, 0), BuildingBlock: XIVTED_clean_linker_0, # of connection points: 2
#     Edge 75, Type (0, 0), BuildingBlock: XIVTED_clean_linker_0, # of connection points: 2
#     Edge 76, Type (0, 0), BuildingBlock: XIVTED_clean_linker_0, # of connection points: 2
#     Edge 77, Type (0, 0), BuildingBlock: XIVTED_clean_linker_0, # of connection points: 2
#     Edge 78, Type (0, 0), BuildingBlock: XIVTED_clean_linker_0, # of connection points: 2
#     Edge 79, Type (0, 0), BuildingBlock: XIVTED_clean_linker_0, # of connection points: 2
#     Edge 80, Type (0, 0), BuildingBlock: XIVTED_clean_linker_0, # of connection points: 2
#     Edge 81, Type (0, 0), BuildingBlock: XIVTED_clean_linker_0, # of connection points: 2
#     Edge 82, Type (0, 0), BuildingBlock: XIVTED_clean_linker_0, # of connection points: 2
#     Edge 83, Type (0, 0), BuildingBlock: XIVTED_clean_linker_0, # of connection points: 2
#     Edge 84, Type (0, 0), BuildingBlock: XIVTED_clean_linker_0, # of connection points: 2
#     Edge 85, Type (0, 0), BuildingBlock: XIVTED_clean_linker_0, # of connection points: 2
#     Edge 86, Type (0, 0), BuildingBlock: XIVTED_clean_linker_0, # of connection points: 2
#     Edge 87, Type (0, 0), BuildingBlock: XIVTED_clean_linker_0, # of connection points: 2
#     Edge 88, Type (0, 0), BuildingBlock: XIVTED_clean_linker_0, # of connection points: 2
#     Edge 89, Type (0, 0), BuildingBlock: XIVTED_clean_linker_0, # of connection points: 2
#     Edge 90, Type (0, 0), BuildingBlock: XIVTED_clean_linker_0, # of connection points: 2
#     Edge 91, Type (0, 0), BuildingBlock: XIVTED_clean_linker_0, # of connection points: 2
#     Edge 92, Type (0, 0), BuildingBlock: XIVTED_clean_linker_0, # of connection points: 2
#     Edge 93, Type (0, 0), BuildingBlock: XIVTED_clean_linker_0, # of connection points: 2
#     Edge 94, Type (0, 0), BuildingBlock: XIVTED_clean_linker_0, # of connection points: 2
#     Edge 95, Type (0, 0), BuildingBlock: XIVTED_clean_linker_0, # of connection points: 2
#     Edge 96, Type (0, 0), BuildingBlock: XIVTED_clean_linker_0, # of connection points: 2
#     Edge 97, Type (0, 0), BuildingBlock: XIVTED_clean_linker_0, # of connection points: 2
#     Edge 98, Type (0, 0), BuildingBlock: XIVTED_clean_linker_0, # of connection points: 2
#     Edge 99, Type (0, 0), BuildingBlock: XIVTED_clean_linker_0, # of connection points: 2
#     Edge 100, Type (0, 0), BuildingBlock: XIVTED_clean_linker_0, # of connection points: 2
#     Edge 101, Type (0, 0), BuildingBlock: XIVTED_clean_linker_0, # of connection points: 2
#     Edge 102, Type (0, 0), BuildingBlock: XIVTED_clean_linker_0, # of connection points: 2
#     Edge 103, Type (0, 0), BuildingBlock: XIVTED_clean_linker_0, # of connection points: 2
#     Edge 104, Type (0, 0), BuildingBlock: XIVTED_clean_linker_0, # of connection points: 2
#     Edge 105, Type (0, 0), BuildingBlock: XIVTED_clean_linker_0, # of connection points: 2
#     Edge 106, Type (0, 0), BuildingBlock: XIVTED_clean_linker_0, # of connection points: 2
#     Edge 107, Type (0, 0), BuildingBlock: XIVTED_clean_linker_0, # of connection points: 2
#     Edge 108, Type (0, 0), BuildingBlock: XIVTED_clean_linker_0, # of connection points: 2
#     Edge 109, Type (0, 0), BuildingBlock: XIVTED_clean_linker_0, # of connection points: 2
#     Edge 110, Type (0, 0), BuildingBlock: XIVTED_clean_linker_0, # of connection points: 2
#     Edge 111, Type (0, 0), BuildingBlock: XIVTED_clean_linker_0, # of connection points: 2
#     Edge 112, Type (0, 0), BuildingBlock: XIVTED_clean_linker_0, # of connection points: 2
#     Edge 113, Type (0, 0), BuildingBlock: XIVTED_clean_linker_0, # of connection points: 2
#     Edge 114, Type (0, 0), BuildingBlock: XIVTED_clean_linker_0, # of connection points: 2
#     Edge 115, Type (0, 0), BuildingBlock: XIVTED_clean_linker_0, # of connection points: 2
#     Edge 116, Type (0, 0), BuildingBlock: XIVTED_clean_linker_0, # of connection points: 2
#     Edge 117, Type (0, 0), BuildingBlock: XIVTED_clean_linker_0, # of connection points: 2
#     Edge 118, Type (0, 0), BuildingBlock: XIVTED_clean_linker_0, # of connection points: 2
#     Edge 119, Type (0, 0), BuildingBlock: XIVTED_clean_linker_0, # of connection points: 2
#     Edge 120, Type (0, 0), BuildingBlock: XIVTED_clean_linker_0, # of connection points: 2
#     Edge 121, Type (0, 0), BuildingBlock: XIVTED_clean_linker_0, # of connection points: 2
#     Edge 122, Type (0, 0), BuildingBlock: XIVTED_clean_linker_0, # of connection points: 2
#     Edge 123, Type (0, 0), BuildingBlock: XIVTED_clean_linker_0, # of connection points: 2
#     Edge 124, Type (0, 0), BuildingBlock: XIVTED_clean_linker_0, # of connection points: 2
#     Edge 125, Type (0, 0), BuildingBlock: XIVTED_clean_linker_0, # of connection points: 2
#     Edge 126, Type (0, 0), BuildingBlock: XIVTED_clean_linker_0, # of connection points: 2
#     Edge 127, Type (0, 0), BuildingBlock: XIVTED_clean_linker_0, # of connection points: 2
#     Edge 128, Type (0, 0), BuildingBlock: XIVTED_clean_linker_0, # of connection points: 2
#     Edge 129, Type (0, 0), BuildingBlock: XIVTED_clean_linker_0, # of connection points: 2
#     Edge 130, Type (0, 0), BuildingBlock: XIVTED_clean_linker_0, # of connection points: 2
#     Edge 131, Type (0, 0), BuildingBlock: XIVTED_clean_linker_0, # of connection points: 2
#     Edge 132, Type (0, 0), BuildingBlock: XIVTED_clean_linker_0, # of connection points: 2
#     Edge 133, Type (0, 0), BuildingBlock: XIVTED_clean_linker_0, # of connection points: 2
#     Edge 134, Type (0, 0), BuildingBlock: XIVTED_clean_linker_0, # of connection points: 2
#     Edge 135, Type (0, 0), BuildingBlock: XIVTED_clean_linker_0, # of connection points: 2
#     Edge 136, Type (0, 0), BuildingBlock: XIVTED_clean_linker_0, # of connection points: 2
#     Edge 137, Type (0, 0), BuildingBlock: XIVTED_clean_linker_0, # of connection points: 2
#     Edge 138, Type (0, 0), BuildingBlock: XIVTED_clean_linker_0, # of connection points: 2
#     Edge 139, Type (0, 0), BuildingBlock: XIVTED_clean_linker_0, # of connection points: 2
#     Edge 140, Type (0, 0), BuildingBlock: XIVTED_clean_linker_0, # of connection points: 2
#     Edge 141, Type (0, 0), BuildingBlock: XIVTED_clean_linker_0, # of connection points: 2
#     Edge 142, Type (0, 0), BuildingBlock: XIVTED_clean_linker_0, # of connection points: 2
#     Edge 143, Type (0, 0), BuildingBlock: XIVTED_clean_linker_0, # of connection points: 2
# Relax obj value: 0.254
# Max RMSD: 0.205
# Mean RMSD: 0.205
data_MOF--net-wne--node1-JUFBIX_clean_sbu_0--edge1-XIVTED_clean_linker_0
_symmetry_space_group_name_H-M    P1
_symmetry_Int_Tables_number       1
_symmetry_cell_setting            triclinic
loop_
_symmetry_equiv_pos_as_xyz
'x, y, z'
_cell_length_a     71.732676
_cell_length_b     71.755525
_cell_length_c     37.452035
_cell_angle_alpha  89.965255
_cell_angle_beta   89.909824
_cell_angle_gamma 120.01626
loop_
_atom_site_label
_atom_site_type_symbol
_atom_site_fract_x
_atom_site_fract_y
_atom_site_fract_z
_atom_type_partial_charge
Co0 Co 0.24377 0.21932 0.07678 0.0
C1 C 0.28288 0.23632 0.03845 0.0
Co2 Co 0.27129 0.22511 0.11014 0.0
C3 C 0.2065 0.22247 0.05256 0.0
C4 C 0.2117 0.20048 1.0214 0.0
N5 N 0.21968 0.21406 0.04938 0.0
N6 N 0.19056 0.21447 1.02792 0.0
C7 C 0.19381 0.20058 1.0084 0.0
H8 H 0.20837 0.23402 0.07284 0.0
H9 H 0.21848 0.1911 1.01095 0.0
C10 C 0.23473 0.20987 0.15136 0.0
N11 N 0.29482 0.23077 0.13659 0.0
C12 C 0.30899 0.22463 0.12734 0.0
C13 C 0.30042 0.23882 0.16983 0.0
N14 N 0.32268 0.22743 0.15397 0.0
C15 C 0.31758 0.23669 0.18071 0.0
C16 C 0.26529 0.26012 0.1047 0.0
O17 O 0.22607 0.21076 0.12186 0.0
O18 O 0.25423 0.21462 0.15092 0.0
O19 O 0.27624 0.25307 0.12021 0.0
O20 O 0.25031 0.24799 0.08359 0.0
O21 O 0.28915 0.236 0.06987 0.0
H22 H 0.29164 0.24439 0.18593 0.0
H23 H 0.30823 0.21685 0.10222 0.0
O24 O 0.26266 0.22876 0.03339 0.0
O25 O 0.23743 0.19009 0.0694 0.0
O26 O 0.26606 0.1966 0.09983 0.0
C27 C 0.2499 0.18368 0.08121 0.0
H28 H 0.18412 0.1914 0.98589 0.0
H29 H 0.32435 0.23981 0.20731 0.0
Co30 Co 0.79524 0.02592 0.08036 0.0
C31 C 0.77955 0.05016 0.04315 0.0
Co32 Co 0.79134 0.04901 0.11339 0.0
C33 C 0.79266 0.98565 0.05644 0.0
C34 C 0.80689 0.01109 1.01791 0.0
N35 N 0.79874 0.00666 0.05131 0.0
N36 N 0.79646 0.97685 1.02729 0.0
C37 C 0.80542 0.99288 1.0031 0.0
H38 H 0.78487 0.97679 0.08051 0.0
H39 H 0.81308 0.02653 1.00483 0.0
C40 C 0.80554 0.02586 0.15347 0.0
N41 N 0.7874 0.06737 0.14166 0.0
C42 C 0.79673 0.08862 0.13629 0.0
C43 C 0.77856 0.06388 0.17451 0.0
N44 N 0.79528 0.0989 0.1652 0.0
C45 C 0.78346 0.08337 0.18918 0.0
C46 C 0.75487 0.00875 0.10982 0.0
O47 O 0.8044 0.0163 0.12389 0.0
O48 O 0.80103 0.04077 0.15335 0.0
O49 O 0.763 0.02742 0.12321 0.0
O50 O 0.76629 1.00433 0.08947 0.0
O51 O 0.78135 0.0578 0.0742 0.0
H52 H 0.77078 0.04849 0.18804 0.0
H53 H 0.80599 0.09657 0.11262 0.0
O54 O 0.78523 0.03598 0.03836 0.0
O55 O 0.82474 0.04804 0.07079 0.0
O56 O 0.82024 0.07084 0.10324 0.0
C57 C 0.83228 0.06693 0.08349 0.0
H58 H 0.81046 0.99149 0.97645 0.0
H59 H 0.78054 0.08604 0.21656 0.0
Co60 Co 0.99 0.77236 0.07616 0.0
C61 C 0.96631 0.73198 0.04016 0.0
Co62 Co 0.96822 0.74518 0.11019 0.0
C63 C 0.02934 0.8106 0.05161 0.0
C64 C 1.00378 0.79895 1.01341 0.0
N65 N 1.00849 0.79525 0.04657 0.0
N66 N 0.03783 0.82351 1.02268 0.0
C67 C 0.02172 0.81617 0.99867 0.0
H68 H 0.03834 0.81179 0.07551 0.0
H69 H 0.98836 0.78945 1.00049 0.0
C70 C 0.99086 0.78301 0.14911 0.0
N71 N 0.95067 0.72291 0.13962 0.0
C72 C 0.92921 0.71121 0.13663 0.0
C73 C 0.95516 0.71845 0.17242 0.0
N74 N 0.91985 0.70075 0.16707 0.0
C75 C 0.93613 0.7048 0.18948 0.0
C76 C 1.00901 0.75068 0.10425 0.0
O77 O 1.00034 0.7912 0.11936 0.0
O78 O 0.97594 0.7636 0.14944 0.0
O79 O 0.99109 0.73998 0.12022 0.0
O80 O 0.01184 0.7655 0.08274 0.0
O81 O 0.95999 0.72601 0.07184 0.0
H82 H 0.97097 0.72642 0.18449 0.0
H83 H 0.92048 0.71211 0.11379 0.0
O84 O 0.97919 0.75211 0.03441 0.0
O85 O 0.96773 0.77941 0.06906 0.0
O86 O 0.94527 0.75083 0.09949 0.0
C87 C 0.94883 0.76717 0.08105 0.0
H88 H 0.02286 0.82274 0.97221 0.0
H89 H 0.93436 0.70038 0.21744 0.0
Co90 Co 0.2244 0.24093 0.48125 0.0
C91 C 0.24123 0.28072 0.51917 0.0
Co92 Co 0.23031 0.26871 0.44842 0.0
C93 C 0.22567 0.20247 0.50437 0.0
C94 C 0.21098 0.21327 0.5427 0.0
N95 N 0.21978 0.21752 0.50977 0.0
N96 N 0.22112 0.18924 0.53289 0.0
C97 C 0.21185 0.19603 0.55696 0.0
H98 H 0.23387 0.20177 0.48056 0.0
H99 H 0.20475 0.22243 0.55586 0.0
C100 C 0.21501 0.23148 0.40769 0.0
N101 N 0.23527 0.2916 0.42047 0.0
C102 C 0.22661 0.30413 0.42606 0.0
C103 C 0.24393 0.29671 0.38748 0.0
N104 N 0.22827 0.31599 0.39716 0.0
C105 C 0.23958 0.31174 0.37296 0.0
C106 C 0.26533 0.26285 0.45338 0.0
O107 O 0.21605 0.22281 0.43706 0.0
O108 O 0.21961 0.25094 0.40826 0.0
O109 O 0.25832 0.27387 0.43793 0.0
O110 O 0.25315 0.24783 0.4745 0.0
O111 O 0.2413 0.28723 0.48774 0.0
H112 H 0.25109 0.28857 0.37369 0.0
H113 H 0.21757 0.30313 0.44985 0.0
O114 O 0.23364 0.26046 0.52401 0.0
O115 O 0.19505 0.23391 0.48848 0.0
O116 O 0.20178 0.26314 0.45953 0.0
C117 C 0.18873 0.24659 0.47733 0.0
H118 H 0.20619 0.1891 0.58317 0.0
H119 H 0.24242 0.31723 0.34552 0.0
Co120 Co 0.7765 0.98699 0.48399 0.0
C121 C 0.73668 0.96451 0.52211 0.0
Co122 Co 0.74866 0.96522 0.45139 0.0
C123 C 0.8149 0.02674 0.50741 0.0
C124 C 0.8042 1.00097 0.54519 0.0
N125 N 0.8 1.00569 0.51239 0.0
N126 N 0.82795 0.03532 0.53609 0.0
C127 C 0.82122 0.01907 0.55981 0.0
H128 H 0.81554 0.03583 0.4839 0.0
H129 H 0.79504 0.98547 0.55811 0.0
C130 C 0.78587 0.98658 0.4104 0.0
N131 N 0.72564 0.94743 0.42377 0.0
C132 C 0.7124 0.92646 0.43038 0.0
C133 C 0.72057 0.9508 0.39067 0.0
N134 N 0.70003 0.91616 0.40206 0.0
C135 C 0.70479 0.93148 0.37714 0.0
C136 C 0.75504 1.00629 0.45595 0.0
O137 O 0.79463 0.99644 0.43961 0.0
O138 O 0.76636 0.97185 0.4112 0.0
O139 O 0.74392 0.98827 0.44058 0.0
O140 O 0.76996 0.00903 0.4771 0.0
O141 O 0.73018 0.95809 0.49073 0.0
H142 H 0.72908 0.96586 0.37625 0.0
H143 H 0.71314 0.91861 0.45456 0.0
O144 O 0.75697 0.97701 0.52689 0.0
O145 O 0.78313 0.96443 0.49141 0.0
O146 O 0.75376 0.942 0.46282 0.0
C147 C 0.77026 0.94541 0.4806 0.0
H148 H 0.82799 0.02027 0.58609 0.0
H149 H 0.699 0.9286 0.34989 0.0
Co150 Co 0.03015 0.79272 0.47949 0.0
C151 C 0.05315 0.77644 0.51801 0.0
Co152 Co 0.05189 0.78648 0.44634 0.0
C153 C 0.9901 0.79037 0.50394 0.0
C154 C 0.01738 0.81212 0.53505 0.0
N155 N 0.01164 0.79841 0.50724 0.0
N156 N 0.98232 0.79871 0.52832 0.0
C157 C 0.99952 0.81244 0.54783 0.0
H158 H 0.98035 0.77887 0.48366 0.0
H159 H 0.03356 0.82135 0.54545 0.0
C160 C 0.03001 0.8014 0.40524 0.0
N161 N 0.06917 0.78033 0.41856 0.0
C162 C 0.09059 0.78914 0.42154 0.0
C163 C 0.06392 0.76868 0.3882 0.0
N164 N 0.09912 0.78409 0.39374 0.0
C165 C 0.0824 0.7711 0.3727 0.0
C166 C 0.01059 0.75159 0.45355 0.0
O167 O 0.02087 0.8012 0.43486 0.0
O168 O 0.0443 0.79602 0.40554 0.0
O169 O 0.0287 0.7582 0.43853 0.0
O170 O 1.00777 0.76422 0.47345 0.0
O171 O 0.05997 0.77667 0.48669 0.0
H172 H 0.04794 0.76026 0.3768 0.0
H173 H 0.10001 0.80068 0.44199 0.0
O174 O 0.03996 0.78344 0.52257 0.0
O175 O 0.05317 0.82176 0.48601 0.0
O176 O 0.07506 0.81524 0.45461 0.0
C177 C 0.07187 0.82821 0.47323 0.0
H178 H 0.99915 0.82183 0.57017 0.0
H179 H 0.0836 0.76506 0.34683 0.0
Co180 Co 0.74727 0.78588 0.95238 0.0
C181 C 0.7841 0.80066 0.9114 0.0
Co182 Co 0.77488 0.79174 0.98571 0.0
C183 C 0.71142 0.78908 0.93142 0.0
C184 C 0.71881 0.77213 0.8921 0.0
N185 N 0.72407 0.78064 0.92511 0.0
N186 N 0.69933 0.78749 0.90292 0.0
C187 C 0.70357 0.7764 0.87828 0.0
H188 H 0.71252 0.79793 0.95544 0.0
H189 H 0.72697 0.76517 0.87781 0.0
C190 C 0.73559 0.77537 1.02401 0.0
N191 N 0.79877 0.79683 1.01338 0.0
C192 C 0.81226 0.78884 1.00948 0.0
C193 C 0.80655 0.81008 0.0418 0.0
N194 N 0.82821 0.79678 0.03409 0.0
C195 C 0.82464 0.81019 0.05437 0.0
C196 C 0.76927 0.82748 0.9804 0.0
O197 O 0.72916 0.77555 0.99261 0.0
O198 O 0.75579 0.78261 1.0288 0.0
O199 O 0.78156 0.821 0.99272 0.0
O200 O 0.75308 0.81456 0.96192 0.0
O201 O 0.79276 0.80003 0.94103 0.0
H202 H 0.79955 0.81916 0.05269 0.0
H203 H 0.81066 0.77771 0.98859 0.0
O204 O 0.76459 0.79587 0.91168 0.0
O205 O 0.74187 0.75773 0.94308 0.0
O206 O 0.76811 0.76304 0.97922 0.0
C207 C 0.75297 0.7508 0.95847 0.0
H208 H 0.69791 0.77366 0.85096 0.0
H209 H 0.83429 0.81925 0.077 0.0
Co210 Co 0.22908 0.96237 0.94388 0.0
C211 C 0.21442 0.9851 0.90336 0.0
Co212 Co 0.2244 0.98529 0.97659 0.0
C213 C 0.2235 0.9226 0.91869 0.0
C214 C 0.2442 0.94858 0.88417 0.0
N215 N 0.23344 0.9441 0.91545 0.0
N216 N 0.22694 0.91331 0.89019 0.0
C217 C 0.2401 0.92959 0.86841 0.0
H218 H 0.21226 0.91376 0.93994 0.0
H219 H 0.25312 0.96445 0.87238 0.0
C220 C 0.24048 0.96137 1.01441 0.0
N221 N 0.22057 1.00458 1.00552 0.0
C222 C 0.22676 0.02566 1.00059 0.0
C223 C 0.21235 1.00009 0.03886 0.0
N224 N 0.22295 0.03445 1.02981 0.0
C225 C 0.21387 0.01832 0.05381 0.0
C226 C 0.18792 0.94409 0.97303 0.0
O227 O 0.23892 0.95364 0.98345 0.0
O228 O 0.2346 0.97545 1.01878 0.0
O229 O 0.19509 0.96288 0.98593 0.0
O230 O 0.20025 0.94044 0.95354 0.0
O231 O 0.21506 0.99451 0.93288 0.0
H232 H 0.20614 0.98465 0.05189 0.0
H233 H 0.23471 0.03461 0.97667 0.0
O234 O 0.21952 0.9706 0.90368 0.0
O235 O 0.25746 0.98433 0.93472 0.0
O236 O 0.25308 0.00709 0.96757 0.0
C237 C 0.26497 1.00302 0.94782 0.0
H238 H 0.24513 0.92782 0.84197 0.0
H239 H 0.20884 0.01966 0.0805 0.0
Co240 Co 0.052 0.26781 0.94808 0.0
C241 C 0.02983 0.23063 0.90748 0.0
Co242 Co 0.02998 0.24003 0.98104 0.0
C243 C 0.09044 0.30393 0.92253 0.0
C244 C 0.06363 0.2968 0.88887 0.0
N245 N 0.0691 0.29087 0.91953 0.0
N246 N 0.09872 0.3174 0.89452 0.0
C247 C 0.0819 0.31308 0.87327 0.0
H248 H 0.10002 0.30227 0.94326 0.0
H249 H 0.04765 0.28887 0.87745 0.0
C250 C 0.05322 0.27982 1.01886 0.0
N251 N 0.01165 0.21643 1.00981 0.0
C252 C 0.99065 0.20127 1.00522 0.0
C253 C 0.01672 0.21223 0.04233 0.0
N254 N 0.98243 0.18803 0.03388 0.0
C255 C 0.99887 0.19494 0.05717 0.0
C256 C 0.0717 0.24605 0.97579 0.0
O257 O 0.05982 0.28631 0.98745 0.0
O258 O 0.04032 0.25959 1.02368 0.0
O259 O 0.05271 0.23358 0.9873 0.0
O260 O 0.07537 0.26266 0.95793 0.0
O261 O 0.02017 0.22194 0.93692 0.0
H262 H 0.03229 0.22152 0.05488 0.0
H263 H 0.98134 0.20052 0.982 0.0
O264 O 0.04468 0.25009 0.90793 0.0
O265 O 0.02867 0.2725 0.93898 0.0
O266 O 1.00774 0.24636 0.97527 0.0
C267 C 0.01063 0.26145 0.95439 0.0
H268 H 0.08295 0.32012 0.84725 0.0
H269 H 0.99799 0.1881 0.08331 0.0
Co270 Co 0.79118 0.74421 0.61237 0.0
C271 C 0.80497 0.78068 0.65445 0.0
Co272 Co 0.79491 0.77168 0.5809 0.0
C273 C 0.79495 0.70845 0.63185 0.0
C274 C 0.77795 0.71525 0.67199 0.0
N275 N 0.78675 0.72119 0.6392 0.0
N276 N 0.7927 0.69547 0.65939 0.0
C277 C 0.78167 0.6994 0.68459 0.0
H278 H 0.80382 0.70985 0.60765 0.0
H279 H 0.77084 0.72309 0.68678 0.0
C280 C 0.77934 0.73259 0.54163 0.0
N281 N 0.79915 0.7954 0.55342 0.0
C282 C 0.79155 0.80919 0.55781 0.0
C283 C 0.81173 0.80268 0.52407 0.0
N284 N 0.79922 0.82488 0.53263 0.0
C285 C 0.81193 0.82078 0.51148 0.0
C286 C 0.83201 0.76736 0.58315 0.0
O287 O 0.78069 0.72619 0.57248 0.0
O288 O 0.78558 0.75265 0.53751 0.0
O289 O 0.82466 0.77932 0.57267 0.0
O290 O 0.81978 0.75063 0.60119 0.0
O291 O 0.80325 0.78928 0.6255 0.0
H292 H 0.82037 0.79535 0.5126 0.0
H293 H 0.78099 0.80803 0.57945 0.0
O294 O 0.80136 0.76154 0.6532 0.0
O295 O 0.76305 0.73792 0.623 0.0
O296 O 0.76581 0.76404 0.58905 0.0
C297 C 0.75464 0.74821 0.6096 0.0
H298 H 0.77842 0.69289 0.71142 0.0
H299 H 0.82062 0.83014 0.48829 0.0
Co300 Co 0.27057 0.04728 0.6083 0.0
C301 C 0.23272 0.02476 0.6472 0.0
Co302 Co 0.24341 0.02608 0.57375 0.0
C303 C 0.30493 0.08597 0.63429 0.0
C304 C 0.29736 0.06001 0.67036 0.0
N305 N 0.29293 0.06455 0.63759 0.0
N306 N 0.31559 0.0953 0.66453 0.0
C307 C 0.31131 0.079 0.68712 0.0
H308 H 0.30414 0.0947 0.61132 0.0
H309 H 0.28922 0.04423 0.68261 0.0
C310 C 0.28376 0.04966 0.53772 0.0
N311 N 0.22053 0.0078 0.54409 0.0
C312 C 0.20548 0.98678 0.54863 0.0
C313 C 0.21691 0.0127 0.51101 0.0
N314 N 0.19287 0.97837 0.51945 0.0
C315 C 0.20006 0.9947 0.4958 0.0
C316 C 0.24894 0.06729 0.57973 0.0
O317 O 0.2897 0.05597 0.5694 0.0
O318 O 0.26366 0.03669 0.53208 0.0
O319 O 0.23691 0.04877 0.56628 0.0
O320 O 0.26475 0.0702 0.59902 0.0
O321 O 0.22438 0.01589 0.61717 0.0
H322 H 0.22632 0.02825 0.49837 0.0
H323 H 0.20438 0.97759 0.57227 0.0
O324 O 0.25233 0.03915 0.64778 0.0
O325 O 0.27586 0.02446 0.61726 0.0
O326 O 0.2499 1.00392 0.58048 0.0
C327 C 0.26485 0.00658 0.60149 0.0
H328 H 0.31584 0.08076 0.715 0.0
H329 H 0.19368 0.99365 0.46923 0.0
Co330 Co 0.96855 0.22708 0.61071 0.0
C331 C 0.9908 0.21231 0.65093 0.0
Co332 Co 0.99045 0.22161 0.5769 0.0
C333 C 0.92948 0.22359 0.63253 0.0
C334 C 0.954 0.24079 0.67139 0.0
N335 N 0.95061 0.23213 0.63847 0.0
N336 N 0.91911 0.22532 0.66115 0.0
C337 C 0.93453 0.23654 0.68552 0.0
H338 H 0.9216 0.21461 0.60869 0.0
H339 H 0.96921 0.24791 0.68538 0.0
C340 C 0.96717 0.23781 0.53943 0.0
N341 N 1.00922 0.21669 0.54866 0.0
C342 C 0.03065 0.22428 0.55245 0.0
C343 C 1.00359 0.20376 0.5198 0.0
N344 N 0.03843 0.21636 0.52734 0.0
C345 C 0.02138 0.20341 0.50687 0.0
C346 C 0.94911 0.18556 0.58238 0.0
O347 O 0.96047 0.23729 0.57091 0.0
O348 O 0.98039 0.23092 0.53425 0.0
O349 O 0.96787 0.19231 0.56966 0.0
O350 O 0.94576 0.19829 0.60132 0.0
O351 O 1.0001 0.2131 0.62118 0.0
H352 H 0.9875 0.19502 0.5089 0.0
H353 H 0.04027 0.23506 0.57362 0.0
O354 O 0.97613 0.21716 0.65102 0.0
O355 O 0.99123 0.25535 0.61986 0.0
O356 O 0.01239 0.25039 0.5836 0.0
C357 C 1.0093 0.26252 0.60439 0.0
H358 H 0.93172 0.23943 0.71284 0.0
H359 H 0.02181 0.19448 0.48389 0.0
Co360 Co 0.91019 0.55382 0.41365 0.0
C361 C 0.94986 0.57029 0.37609 0.0
Co362 Co 0.93771 0.55958 0.44724 0.0
C363 C 0.87266 0.55629 0.38926 0.0
C364 C 0.87924 0.53578 0.35658 0.0
N365 N 0.88652 0.54874 0.3854 0.0
N366 N 0.85695 0.54832 0.36423 0.0
C367 C 0.86107 0.53538 0.34372 0.0
H368 H 0.87381 0.56708 0.41042 0.0
H369 H 0.88662 0.52707 0.34563 0.0
C370 C 0.90047 0.54439 0.48749 0.0
N371 N 0.9606 0.5648 0.47539 0.0
C372 C 0.97258 0.55541 0.47134 0.0
C373 C 0.96568 0.57405 0.50791 0.0
N374 N 0.98393 0.55708 0.5009 0.0
C375 C 0.98005 0.56924 0.52378 0.0
C376 C 0.93197 0.5947 0.44118 0.0
O377 O 0.89188 0.54505 0.45781 0.0
O378 O 0.92008 0.54957 0.48746 0.0
O379 O 0.94309 0.58772 0.4563 0.0
O380 O 0.91675 0.58249 0.42051 0.0
O381 O 0.95613 0.56985 0.40751 0.0
H382 H 0.95778 0.58178 0.52065 0.0
H383 H 0.97139 0.54575 0.44836 0.0
O384 O 0.92971 0.56332 0.3711 0.0
O385 O 0.90372 0.52464 0.40629 0.0
O386 O 0.93186 0.53089 0.43794 0.0
C387 C 0.91582 0.51806 0.41908 0.0
H388 H 0.85173 0.52645 0.32076 0.0
H389 H 0.98519 0.57232 0.55136 0.0
Co390 Co 0.46316 0.35954 0.41198 0.0
C391 C 0.44546 0.3815 0.37417 0.0
Co392 Co 0.45682 0.38093 0.44493 0.0
C393 C 0.46315 0.32053 0.38856 0.0
C394 C 0.47816 0.34656 0.35121 0.0
N395 N 0.46865 0.34138 0.38359 0.0
N396 N 0.46865 0.31249 0.36028 0.0
C397 C 0.47812 0.32891 0.33684 0.0
H398 H 0.45458 0.3112 0.41183 0.0
H399 H 0.48435 0.3621 0.33852 0.0
C400 C 0.47302 0.35996 0.48545 0.0
N401 N 0.45102 0.39834 0.47244 0.0
C402 C 0.45718 0.4188 0.4643 0.0
C403 C 0.44337 0.39541 0.50607 0.0
N404 N 0.45491 0.42937 0.49207 0.0
C405 C 0.44584 0.41459 0.51833 0.0
C406 C 0.4224 0.33959 0.4401 0.0
O407 O 0.47186 0.35016 0.45616 0.0
O408 O 0.46815 0.37462 0.48499 0.0
O409 O 0.42924 0.35751 0.45579 0.0
O410 O 0.4346 0.33709 0.41853 0.0
O411 O 0.44518 0.38768 0.40565 0.0
H412 H 0.43804 0.38087 0.52154 0.0
H413 H 0.46473 0.42615 0.43917 0.0
O414 O 0.4536 0.36934 0.36913 0.0
O415 O 0.49221 0.38243 0.40496 0.0
O416 O 0.48493 0.40462 0.43356 0.0
C417 C 0.49818 0.40139 0.41582 0.0
H418 H 0.48447 0.32817 0.31097 0.0
H419 H 0.44321 0.41785 0.54552 0.0
Co420 Co 0.65597 0.10494 0.41208 0.0
C421 C 0.63348 0.06563 0.374 0.0
Co422 Co 0.63462 0.07719 0.44567 0.0
C423 C 0.69613 0.14243 0.38768 0.0
C424 C 0.66896 0.13675 0.35605 0.0
N425 N 0.6746 0.12896 0.38426 0.0
N426 N 0.70399 0.15837 0.36296 0.0
C427 C 0.68687 0.15482 0.34313 0.0
H428 H 0.7058 0.14081 0.40826 0.0
H429 H 0.65281 0.12975 0.34548 0.0
C430 C 0.65618 0.11402 0.48648 0.0
N431 N 0.61682 0.05384 0.47288 0.0
C432 C 0.59594 0.04068 0.46563 0.0
C433 C 0.61966 0.04876 0.50629 0.0
N434 N 0.58511 0.02844 0.49387 0.0
C435 C 0.60007 0.03312 0.51938 0.0
C436 C 0.67556 0.08343 0.43917 0.0
O437 O 0.66537 0.1228 0.45676 0.0
O438 O 0.64174 0.09441 0.48632 0.0
O439 O 0.65762 0.07215 0.45486 0.0
O440 O 0.67815 0.09851 0.41844 0.0
O441 O 0.62707 0.05919 0.4055 0.0
H442 H 0.63448 0.05729 0.52127 0.0
H443 H 0.58852 0.04154 0.44105 0.0
O444 O 0.64619 0.08588 0.36901 0.0
O445 O 0.6331 0.11124 0.40519 0.0
O446 O 0.61146 0.08262 0.43625 0.0
C447 C 0.61441 0.09872 0.41773 0.0
H448 H 0.68732 0.16445 0.32052 0.0
H449 H 0.59677 0.02748 0.54673 0.0
Co450 Co 0.89034 0.57275 0.8168 0.0
C451 C 0.90729 0.61315 0.8528 0.0
Co452 Co 0.89569 0.59991 0.78288 0.0
C453 C 0.8916 0.53464 0.84128 0.0
C454 C 0.87758 0.54617 0.87959 0.0
N455 N 0.88594 0.54987 0.84635 0.0
N456 N 0.88734 0.52182 0.87027 0.0
C457 C 0.8785 0.52908 0.89435 0.0
H458 H 0.89944 0.53351 0.81732 0.0
H459 H 0.87161 0.55562 0.89258 0.0
C460 C 0.88019 0.56208 0.74395 0.0
N461 N 0.90056 0.62221 0.75352 0.0
C462 C 0.89124 0.63429 0.75678 0.0
C463 C 0.90979 0.62683 0.72089 0.0
N464 N 0.893 0.64529 0.7267 0.0
C465 C 0.9051 0.64106 0.70422 0.0
C466 C 0.93089 0.59419 0.78803 0.0
O467 O 0.88162 0.55389 0.77358 0.0
O468 O 0.88473 0.5815 0.74372 0.0
O469 O 0.92362 0.60489 0.77234 0.0
O470 O 0.91902 0.57948 0.80981 0.0
O471 O 0.9069 0.61911 0.82114 0.0
H472 H 0.91751 0.61875 0.70871 0.0
H473 H 0.88158 0.63345 0.7796 0.0
O474 O 0.89996 0.59302 0.85854 0.0
O475 O 0.86108 0.56586 0.82429 0.0
O476 O 0.86722 0.5945 0.79404 0.0
C477 C 0.85444 0.57816 0.81255 0.0
H478 H 0.87316 0.52255 0.92087 0.0
H479 H 0.9082 0.64589 0.67646 0.0
Co480 Co 0.44206 0.31963 0.81365 0.0
C481 C 0.40188 0.29571 0.85063 0.0
Co482 Co 0.41516 0.29626 0.78092 0.0
C483 C 0.47967 0.36 0.83782 0.0
C484 C 0.46829 0.33445 0.87615 0.0
N485 N 0.46471 0.33897 0.84277 0.0
N486 N 0.49215 0.36872 0.86708 0.0
C487 C 0.48498 0.35262 0.89113 0.0
H488 H 0.48085 0.36893 0.81379 0.0
H489 H 0.45901 0.31898 0.88911 0.0
C490 C 0.45274 0.31916 0.74108 0.0
N491 N 0.3929 0.27763 0.75289 0.0
C492 C 0.37988 0.25676 0.7604 0.0
C493 C 0.38779 0.28036 0.71944 0.0
N494 N 0.36747 0.2459 0.73246 0.0
C495 C 0.37212 0.26074 0.70668 0.0
C496 C 0.41912 0.33659 0.78331 0.0
O497 O 0.46084 0.32927 0.77035 0.0
O498 O 0.43348 0.30383 0.74134 0.0
O499 O 0.40889 0.318 0.76951 0.0
O500 O 0.43457 0.34097 0.80446 0.0
O501 O 0.39613 0.28825 0.81952 0.0
H502 H 0.39602 0.29524 0.70447 0.0
H503 H 0.38061 0.24944 0.78523 0.0
O504 O 0.42183 0.3095 0.85572 0.0
O505 O 0.44968 0.29779 0.82305 0.0
O506 O 0.42159 0.27426 0.79292 0.0
C507 C 0.43792 0.2786 0.81189 0.0
H508 H 0.49131 0.35393 0.91781 0.0
H509 H 0.36616 0.25739 0.67955 0.0
Co510 Co 0.69788 0.12598 0.81633 0.0
C511 C 0.72141 0.1095 0.85304 0.0
Co512 Co 0.71942 0.1202 0.78212 0.0
C513 C 0.65843 0.12497 0.84017 0.0
C514 C 0.68394 0.13916 0.87843 0.0
N515 N 0.67929 0.13055 0.84543 0.0
N516 N 0.64987 0.12954 0.86884 0.0
C517 C 0.66596 0.13849 0.89287 0.0
H518 H 0.64948 0.11701 0.81632 0.0
H519 H 0.69934 0.14517 0.89147 0.0
C520 C 0.69682 0.13506 0.74258 0.0
N521 N 0.73716 0.11532 0.75347 0.0
C522 C 0.75851 0.12459 0.75781 0.0
C523 C 0.73318 0.10637 0.72072 0.0
N524 N 0.76836 0.12307 0.7283 0.0
C525 C 0.75245 0.11119 0.70506 0.0
C526 C 0.6788 0.08496 0.78899 0.0
O527 O 0.68789 0.1346 0.77258 0.0
O528 O 0.71135 0.13003 0.74218 0.0
O529 O 0.69677 0.09189 0.77331 0.0
O530 O 0.67593 0.0973 0.80961 0.0
O531 O 0.728 0.11003 0.82148 0.0
H532 H 0.71762 0.09875 0.70781 0.0
H533 H 0.76684 0.13398 0.78108 0.0
O534 O 0.70826 0.11645 0.8584 0.0
O535 O 0.7204 0.15522 0.82381 0.0
O536 O 0.74212 0.14907 0.79131 0.0
C537 C 0.73901 0.16186 0.81053 0.0
H538 H 0.66478 0.14409 0.91916 0.0
H539 H 0.7547 0.10825 0.67747 0.0
Co540 Co 0.41639 0.12223 0.2795 0.0
C541 C 0.45441 0.13604 0.24101 0.0
Co542 Co 0.44289 0.12553 0.31344 0.0
C543 C 0.38517 0.13081 0.24999 0.0
C544 C 0.38952 0.1087 0.21771 0.0
N545 N 0.39491 0.11901 0.2494 0.0
N546 N 0.37493 0.12934 0.21917 0.0
C547 C 0.3772 0.11507 0.19898 0.0
H548 H 0.38709 0.14171 0.27145 0.0
H549 H 0.39592 0.09895 0.20742 0.0
C550 C 0.40234 0.11029 0.34906 0.0
N551 N 0.46501 0.12834 0.34348 0.0
C552 C 0.48019 0.1226 0.33822 0.0
C553 C 0.46806 0.13558 0.37737 0.0
N554 N 0.49233 0.12575 0.36772 0.0
C555 C 0.48469 0.13393 0.39232 0.0
C556 C 0.43975 0.16292 0.30957 0.0
O557 O 0.39691 0.11256 0.31789 0.0
O558 O 0.42203 0.11544 0.35434 0.0
O559 O 0.45061 0.15507 0.32318 0.0
O560 O 0.42405 0.15115 0.28928 0.0
O561 O 0.46241 0.13477 0.27093 0.0
H562 H 0.45852 0.14137 0.39063 0.0
H563 H 0.48181 0.11558 0.31366 0.0
O564 O 0.43503 0.13165 0.24041 0.0
O565 O 0.40916 0.0938 0.27022 0.0
O566 O 0.43522 0.09658 0.30419 0.0
C567 C 0.41941 0.0854 0.28375 0.0
H568 H 0.3723 0.11127 0.17138 0.0
H569 H 0.49069 0.1384 0.41929 0.0
Co570 Co 0.89544 0.2985 0.28336 0.0
C571 C 0.87992 0.32034 0.24323 0.0
Co572 Co 0.88981 0.32032 0.31652 0.0
C573 C 0.89296 0.25997 0.26156 0.0
C574 C 0.90871 0.28438 0.2218 0.0
N575 N 0.90061 0.28092 0.25519 0.0
N576 N 0.89462 0.24971 0.23279 0.0
C577 C 0.90495 0.26508 0.20783 0.0
H578 H 0.88459 0.25208 0.28591 0.0
H579 H 0.91507 0.29946 0.20749 0.0
C580 C 0.90688 0.29744 0.35378 0.0
N581 N 0.88508 0.33882 0.34539 0.0
C582 C 0.89102 0.3598 0.34044 0.0
C583 C 0.87621 0.33401 0.37826 0.0
N584 N 0.88643 0.36825 0.36919 0.0
C585 C 0.87709 0.35201 0.39295 0.0
C586 C 0.85409 0.27886 0.31261 0.0
O587 O 0.90675 0.29105 0.32228 0.0
O588 O 0.89927 0.31004 0.35898 0.0
O589 O 0.86055 0.29787 0.32378 0.0
O590 O 0.86703 0.27527 0.29465 0.0
O591 O 0.88126 0.33014 0.27261 0.0
H592 H 0.86995 0.3185 0.39111 0.0
H593 H 0.89931 0.3689 0.31682 0.0
O594 O 0.88442 0.30543 0.24359 0.0
O595 O 0.92327 0.32149 0.27259 0.0
O596 O 0.91849 0.34232 0.30975 0.0
C597 C 0.93045 0.33948 0.28818 0.0
H598 H 0.90745 0.26226 0.18031 0.0
H599 H 0.87142 0.3531 0.41924 0.0
Co600 Co 0.71978 0.60238 0.28289 0.0
C601 C 0.69781 0.5657 0.24114 0.0
Co602 Co 0.69665 0.5747 0.3147 0.0
C603 C 0.75894 0.63883 0.26422 0.0
C604 C 0.73571 0.63105 0.22278 0.0
N605 N 0.73822 0.62556 0.25609 0.0
N606 N 0.76998 0.6517 0.2367 0.0
C607 C 0.75534 0.64714 0.21067 0.0
H608 H 0.76608 0.63784 0.28904 0.0
H609 H 0.72105 0.62271 0.20735 0.0
C610 C 0.71944 0.61392 0.35373 0.0
N611 N 0.6774 0.55089 0.34228 0.0
C612 C 0.65595 0.53721 0.33835 0.0
C613 C 0.68284 0.5435 0.37128 0.0
N614 N 0.648 0.5215 0.3635 0.0
C615 C 0.66494 0.52545 0.38413 0.0
C616 C 0.73826 0.57998 0.31218 0.0
O617 O 0.72684 0.62044 0.32272 0.0
O618 O 0.70614 0.59374 0.35806 0.0
O619 O 0.71903 0.5676 0.32271 0.0
O620 O 0.74236 0.59664 0.29429 0.0
O621 O 0.68759 0.55704 0.27018 0.0
H622 H 0.69887 0.55075 0.3824 0.0
H623 H 0.64643 0.5385 0.31711 0.0
O624 O 0.71307 0.58499 0.24219 0.0
O625 O 0.69753 0.60797 0.27197 0.0
O626 O 0.67489 0.5818 0.30671 0.0
C627 C 0.67894 0.59728 0.28577 0.0
H628 H 0.7589 0.65336 0.18367 0.0
H629 H 0.66435 0.51606 0.40718 0.0
Co630 Co 0.45847 0.0786 0.9445 0.0
C631 C 0.47304 0.11572 0.98485 0.0
Co632 Co 0.46345 0.10597 0.91127 0.0
C633 C 0.46336 0.0444 0.96983 0.0
C634 C 0.44377 0.05075 1.00518 0.0
N635 N 0.45336 0.05585 0.97286 0.0
N636 N 0.46187 0.03356 0.99997 0.0
C637 C 0.44906 0.03702 1.02204 0.0
H638 H 0.47346 0.04583 0.94732 0.0
H639 H 0.43557 0.05838 1.01723 0.0
C640 C 0.44746 0.06633 0.87369 0.0
N641 N 0.46822 0.12953 0.88302 0.0
C642 C 0.4605 0.14321 0.88726 0.0
C643 C 0.4811 0.13701 0.85405 0.0
N644 N 0.46828 0.159 0.86232 0.0
C645 C 0.48128 0.15514 0.84147 0.0
C646 C 0.49982 0.10093 0.91634 0.0
O647 O 0.44867 0.06024 0.90492 0.0
O648 O 0.45372 0.08635 0.86877 0.0
O649 O 0.49284 0.11264 0.90318 0.0
O650 O 0.48725 0.08495 0.9356 0.0
O651 O 0.47237 0.12434 0.95521 0.0
H652 H 0.48993 0.12982 0.84284 0.0
H653 H 0.44973 0.14187 0.90865 0.0
O654 O 0.46801 0.09617 0.98475 0.0
O655 O 0.43031 0.07262 0.95316 0.0
O656 O 0.43456 0.09922 0.91903 0.0
C657 C 0.4227 0.08348 0.93925 0.0
H658 H 0.44597 0.03224 0.04982 0.0
H659 H 0.49011 0.16462 0.81847 0.0
Co660 Co 0.93835 0.38142 0.94749 0.0
C661 C 0.90054 0.35884 0.98658 0.0
Co662 Co 0.91114 0.35982 0.91323 0.0
C663 C 0.97274 0.42055 0.97209 0.0
C664 C 0.96551 0.39519 1.0093 0.0
N665 N 0.96072 0.39919 0.97641 0.0
N666 N 0.98389 0.43038 1.00172 0.0
C667 C 0.97978 0.41445 1.02505 0.0
H668 H 0.97179 0.42889 0.94871 0.0
H669 H 0.95755 0.37961 1.02222 0.0
C670 C 0.95142 0.38355 0.87689 0.0
N671 N 0.88824 0.34116 0.88381 0.0
C672 C 0.87306 0.32022 0.88887 0.0
C673 C 0.88458 0.34578 0.85057 0.0
N674 N 0.86032 0.3116 0.85986 0.0
C675 C 0.86758 0.32772 0.83579 0.0
C676 C 0.91628 0.40084 0.91847 0.0
O677 O 0.95739 0.39013 0.90844 0.0
O678 O 0.93136 0.37028 0.87151 0.0
O679 O 0.90439 0.38225 0.90518 0.0
O680 O 0.93212 0.40398 0.93784 0.0
O681 O 0.8922 0.34984 0.95664 0.0
H682 H 0.89401 0.36122 0.83756 0.0
H683 H 0.87191 0.31125 0.91283 0.0
O684 O 0.92015 0.37327 0.98709 0.0
O685 O 0.94404 0.35887 0.95684 0.0
O686 O 0.91789 0.33791 0.92063 0.0
C687 C 0.933 0.34083 0.94149 0.0
H688 H 0.98478 0.41667 0.05271 0.0
H689 H 0.86111 0.32652 0.80926 0.0
Co690 Co 0.63426 0.55908 0.94448 0.0
C691 C 0.65658 0.54441 0.98484 0.0
Co692 Co 0.65604 0.5534 0.91072 0.0
C693 C 0.59513 0.55537 0.96702 0.0
C694 C 0.62002 0.57316 1.00503 0.0
N695 N 0.61637 0.5642 0.97231 0.0
N696 N 0.58499 0.55721 0.99588 0.0
C697 C 0.60065 0.56881 1.0197 0.0
H698 H 0.58704 0.54612 0.9435 0.0
H699 H 0.63538 0.58053 1.01857 0.0
C700 C 0.63288 0.56967 0.87309 0.0
N701 N 0.67482 0.54844 0.88261 0.0
C702 C 0.69632 0.55645 0.88627 0.0
C703 C 0.66931 0.53526 0.8541 0.0
N704 N 0.70429 0.54858 0.86142 0.0
C705 C 0.68728 0.53519 0.84124 0.0
C706 C 0.61472 0.51756 0.91621 0.0
O707 O 0.6263 0.56941 0.90459 0.0
O708 O 0.6459 0.56252 0.86799 0.0
O709 O 0.63349 0.52412 0.90371 0.0
O710 O 0.61143 0.53038 0.93497 0.0
O711 O 0.66581 0.54512 0.95506 0.0
H712 H 0.65321 0.52617 0.84335 0.0
H713 H 0.70588 0.56753 0.90717 0.0
O714 O 0.64178 0.54908 0.98488 0.0
O715 O 0.65701 0.58725 0.95371 0.0
O716 O 0.67793 0.58211 0.91716 0.0
C717 C 0.67502 0.59428 0.93811 0.0
H718 H 0.5981 0.57189 0.04705 0.0
H719 H 0.68784 0.52619 0.81849 0.0
Co720 Co 0.57693 0.88693 0.74574 0.0
C721 C 0.61708 0.90337 0.70909 0.0
Co722 Co 0.60413 0.8922 0.77972 0.0
C723 C 0.53876 0.88854 0.72185 0.0
C724 C 0.55019 0.87454 0.68334 0.0
N725 N 0.55396 0.88283 0.71657 0.0
N726 N 0.52589 0.88436 0.69298 0.0
C727 C 0.53309 0.87552 0.6688 0.0
H728 H 0.53766 0.89632 0.74587 0.0
H729 H 0.55957 0.86852 0.67022 0.0
C730 C 0.5665 0.87729 0.81922 0.0
N731 N 0.62655 0.89658 0.80835 0.0
C732 C 0.63845 0.88712 0.80374 0.0
C733 C 0.63149 0.90529 0.84127 0.0
N734 N 0.64968 0.88832 0.8332 0.0
C735 C 0.64574 0.90016 0.85673 0.0
C736 C 0.59916 0.92772 0.77392 0.0
O737 O 0.55812 0.87803 0.78935 0.0
O738 O 0.58605 0.88222 0.81952 0.0
O739 O 0.61009 0.92055 0.78917 0.0
O740 O 0.58388 0.91561 0.75327 0.0
O741 O 0.62306 0.90249 0.74053 0.0
H742 H 0.62367 0.91298 0.85439 0.0
H743 H 0.63737 0.87788 0.78024 0.0
O744 O 0.59704 0.89672 0.70384 0.0
O745 O 0.56998 0.85767 0.73745 0.0
O746 O 0.59769 0.86334 0.76985 0.0
C747 C 0.5818 0.85079 0.75043 0.0
H748 H 0.52651 0.8702 0.64235 0.0
H749 H 0.65085 0.90289 0.88433 0.0
Co750 Co 0.12876 0.69491 0.74593 0.0
C751 C 0.11235 0.7179 0.70786 0.0
Co752 Co 0.12252 0.71648 0.77945 0.0
C753 C 0.12611 0.65488 0.72074 0.0
C754 C 0.14815 0.68233 0.69003 0.0
N755 N 0.13439 0.67648 0.71788 0.0
N756 N 0.13433 0.64716 0.69602 0.0
C757 C 0.14825 0.66447 0.67678 0.0
H758 H 0.11451 0.64502 0.74091 0.0
H759 H 0.15753 0.69858 0.6799 0.0
C760 C 0.13745 0.69447 0.82014 0.0
N761 N 0.11638 0.73368 0.80743 0.0
C762 C 0.12496 0.75506 0.80417 0.0
C763 C 0.10492 0.72842 0.83807 0.0
N764 N 0.11996 0.76357 0.83203 0.0
C765 C 0.10723 0.74686 0.85343 0.0
C766 C 0.0877 0.67524 0.77247 0.0
O767 O 0.13714 0.68537 0.79043 0.0
O768 O 0.13227 0.7089 0.82004 0.0
O769 O 0.09437 0.69324 0.78775 0.0
O770 O 0.10019 0.67254 0.75197 0.0
O771 O 0.11246 0.72452 0.73927 0.0
H772 H 0.09669 0.71248 0.8497 0.0
H773 H 0.13632 0.76448 0.78341 0.0
O774 O 0.11955 0.7049 0.70308 0.0
O775 O 0.15792 0.71801 0.7394 0.0
O776 O 0.15116 0.7397 0.7708 0.0
C777 C 0.16425 0.73666 0.75219 0.0
H778 H 0.15763 0.6642 0.65431 0.0
H779 H 0.10129 0.74808 0.87942 0.0
Co780 Co 0.32067 0.43677 0.74934 0.0
C781 C 0.29658 0.39688 0.71136 0.0
Co782 Co 0.29714 0.40929 0.7815 0.0
C783 C 0.36073 0.47521 0.72552 0.0
C784 C 0.3351 0.46386 0.68748 0.0
N785 N 0.33979 0.45995 0.7205 0.0
N786 N 0.36923 0.48823 0.69665 0.0
C787 C 0.35305 0.48106 0.6728 0.0
H788 H 0.36975 0.47627 0.74932 0.0
H789 H 0.31964 0.45452 0.67459 0.0
C790 C 0.3202 0.44655 0.82223 0.0
N791 N 0.27905 0.38666 0.81005 0.0
C792 C 0.25759 0.37464 0.80686 0.0
C793 C 0.28377 0.38043 0.84112 0.0
N794 N 0.24855 0.36162 0.83517 0.0
C795 C 0.26496 0.36507 0.85679 0.0
C796 C 0.33788 0.41372 0.77758 0.0
O797 O 0.33016 0.45512 0.79297 0.0
O798 O 0.30506 0.4272 0.82163 0.0
O799 O 0.31919 0.40313 0.79103 0.0
O800 O 0.34237 0.42966 0.75751 0.0
O801 O 0.28878 0.39069 0.7423 0.0
H802 H 0.29966 0.38764 0.85278 0.0
H803 H 0.24857 0.37684 0.78576 0.0
O804 O 0.31062 0.41687 0.70696 0.0
O805 O 0.29843 0.44398 0.7409 0.0
O806 O 0.27497 0.41574 0.77112 0.0
C807 C 0.27927 0.43218 0.75234 0.0
H808 H 0.35416 0.48773 0.64643 0.0
H809 H 0.26335 0.35813 0.88308 0.0
Co810 Co 0.55606 0.90686 0.14887 0.0
C811 C 0.57269 0.94633 0.18723 0.0
Co812 Co 0.56087 0.93437 0.11639 0.0
C813 C 0.55726 0.86823 0.17177 0.0
C814 C 0.54249 0.8791 0.20983 0.0
N815 N 0.55147 0.88337 0.17703 0.0
N816 N 0.55245 0.85494 0.20028 0.0
C817 C 0.54313 0.86179 0.22416 0.0
H818 H 0.56555 0.86749 0.14811 0.0
H819 H 0.53628 0.88833 0.22286 0.0
C820 C 0.54588 0.89751 0.07524 0.0
N821 N 0.56591 0.95748 0.08941 0.0
C822 C 0.55933 0.97136 0.09819 0.0
C823 C 0.57396 0.96298 0.05611 0.0
N824 N 0.56181 0.98474 0.07116 0.0
C825 C 0.57135 0.97975 0.04468 0.0
C826 C 0.59658 0.92924 0.11996 0.0
O827 O 0.54675 0.88872 0.10462 0.0
O828 O 0.55077 0.91704 0.07579 0.0
O829 O 0.5889 0.94018 0.1065 0.0
O830 O 0.58481 0.91343 0.14015 0.0
O831 O 0.57134 0.95254 0.15626 0.0
H832 H 0.57985 0.95436 0.04035 0.0
H833 H 0.55148 0.97056 0.12328 0.0
O834 O 0.56628 0.92629 0.1917 0.0
O835 O 0.52678 0.90035 0.15803 0.0
O836 O 0.53227 0.92837 0.12658 0.0
C837 C 0.51982 0.91233 0.14589 0.0
H838 H 0.53731 0.85484 0.25031 0.0
H839 H 0.57434 0.98627 1.01788 0.0
Co840 Co 0.10809 0.65189 0.14983 0.0
C841 C 0.0688 0.62909 0.1881 0.0
Co842 Co 0.08043 0.63028 0.11651 0.0
C843 C 0.14574 0.69187 0.17386 0.0
C844 C 0.13966 0.66467 0.20588 0.0
N845 N 0.13203 0.67042 0.17757 0.0
N846 N 0.16168 0.69957 0.19847 0.0
C847 C 0.15789 0.68245 0.21855 0.0
H848 H 0.14429 0.70159 0.15313 0.0
H849 H 0.13247 0.64854 0.21662 0.0
C850 C 0.11726 0.6522 0.07556 0.0
N851 N 0.05716 0.61255 0.08923 0.0
C852 C 0.04426 0.5915 0.0957 0.0
C853 C 0.05193 0.61584 0.05622 0.0
N854 N 0.03205 0.58107 0.0673 0.0
C855 C 0.03646 0.59639 0.04254 0.0
C856 C 0.08639 0.67121 0.12291 0.0
O857 O 0.12598 0.66144 0.10517 0.0
O858 O 0.09771 0.6376 0.07582 0.0
O859 O 0.07522 0.65321 0.10748 0.0
O860 O 0.10157 0.67402 0.14353 0.0
O861 O 0.06237 0.6225 0.15672 0.0
H862 H 0.06025 0.63093 0.04183 0.0
H863 H 0.04529 0.58371 0.11975 0.0
O864 O 0.08901 0.64201 0.1929 0.0
O865 O 0.11451 0.62913 0.15668 0.0
O866 O 0.08604 0.6072 0.12578 0.0
C867 C 0.10221 0.61039 0.14429 0.0
H868 H 0.16746 0.68281 0.24115 0.0
H869 H 0.03076 0.59348 1.01525 0.0
Co870 Co 0.36295 0.45819 0.1511 0.0
C871 C 0.38644 0.44208 0.18821 0.0
Co872 Co 0.38492 0.45289 0.11713 0.0
C873 C 0.32264 0.45503 0.17558 0.0
C874 C 0.34953 0.47574 0.20839 0.0
N875 N 0.34409 0.46286 0.17948 0.0
N876 N 0.31462 0.46272 0.20066 0.0
C877 C 0.33156 0.47579 0.22125 0.0
H878 H 0.31316 0.44423 0.15432 0.0
H879 H 0.36559 0.48464 0.21937 0.0
C880 C 0.3624 0.46753 0.07727 0.0
N881 N 0.40291 0.44808 0.08895 0.0
C882 C 0.42424 0.45732 0.09368 0.0
C883 C 0.39912 0.439 0.05633 0.0
N884 N 0.43425 0.45559 0.06456 0.0
C885 C 0.41846 0.44366 0.04115 0.0
C886 C 0.34426 0.41732 0.12345 0.0
O887 O 0.35316 0.46672 0.10709 0.0
O888 O 0.37712 0.46276 0.07701 0.0
O889 O 0.36233 0.42453 0.10796 0.0
O890 O 0.34114 0.42942 0.14423 0.0
O891 O 0.39321 0.44273 0.15673 0.0
H892 H 0.38363 0.43131 0.04317 0.0
H893 H 0.43243 0.46677 0.11699 0.0
O894 O 0.37311 0.44883 0.19347 0.0
O895 O 0.38542 0.4875 0.15857 0.0
O896 O 0.40756 0.48172 0.12662 0.0
C897 C 0.40418 0.49435 0.14578 0.0
H898 H 0.33094 0.4846 0.24426 0.0
H899 H 0.42086 0.44053 1.01374 0.0
Co900 Co 0.08119 0.45498 0.61693 0.0
C901 C 0.11758 0.46944 0.57464 0.0
Co902 Co 0.10915 0.46085 0.64899 0.0
C903 C 0.04454 0.45709 0.59737 0.0
C904 C 0.05218 0.44068 0.5574 0.0
N905 N 0.05769 0.44934 0.59028 0.0
N906 N 0.03183 0.45492 0.56948 0.0
C907 C 0.03625 0.44417 0.54443 0.0
H908 H 0.04565 0.46586 0.62151 0.0
H909 H 0.06052 0.43407 0.54265 0.0
C910 C 0.07022 0.44465 0.68854 0.0
N911 N 0.13333 0.46634 0.67617 0.0
C912 C 0.14669 0.45816 0.67291 0.0
C913 C 0.14144 0.48022 0.70375 0.0
N914 N 0.16288 0.46662 0.69707 0.0
C915 C 0.15959 0.48054 0.71641 0.0
C916 C 0.10346 0.49674 0.644 0.0
O917 O 0.06345 0.44442 0.65728 0.0
O918 O 0.09053 0.4523 0.69283 0.0
O919 O 0.11611 0.49031 0.65473 0.0
O920 O 0.0866 0.48361 0.62707 0.0
O921 O 0.12643 0.46845 0.60381 0.0
H922 H 0.1346 0.48958 0.71405 0.0
H923 H 0.14481 0.44649 0.65283 0.0
O924 O 0.09825 0.46523 0.57579 0.0
O925 O 0.07609 0.42687 0.60727 0.0
O926 O 0.10218 0.432 0.64355 0.0
C927 C 0.08701 0.41978 0.62282 0.0
H928 H 0.03017 0.44116 0.51736 0.0
H929 H 0.16946 0.49005 0.73852 0.0
Co930 Co 0.55935 0.62891 0.61711 0.0
C931 C 0.54517 0.65237 0.57744 0.0
Co932 Co 0.55554 0.65212 0.65016 0.0
C933 C 0.55227 0.58905 0.59111 0.0
C934 C 0.57244 0.61473 0.55566 0.0
N935 N 0.56299 0.61055 0.58809 0.0
N936 N 0.55344 0.57945 0.56106 0.0
C937 C 0.56653 0.59554 0.53887 0.0
H938 H 0.54222 0.58061 0.61381 0.0
H939 H 0.58121 0.63055 0.54367 0.0
C940 C 0.57123 0.62761 0.68693 0.0
N941 N 0.55227 0.67144 0.67953 0.0
C942 C 0.5582 0.69242 0.67436 0.0
C943 C 0.54435 0.66705 0.71306 0.0
N944 N 0.55452 0.70125 0.70361 0.0
C945 C 0.54579 0.68525 0.7279 0.0
C946 C 0.51842 0.61116 0.64714 0.0
O947 O 0.56911 0.6197 0.656 0.0
O948 O 0.56579 0.64198 0.69168 0.0
O949 O 0.52603 0.62999 0.66013 0.0
O950 O 0.53039 0.60732 0.62708 0.0
O951 O 0.54617 0.66179 0.60709 0.0
H952 H 0.53829 0.65165 0.72619 0.0
H953 H 0.56577 0.70123 0.65014 0.0
O954 O 0.54985 0.63759 0.57741 0.0
O955 O 0.5878 0.65034 0.60764 0.0
O956 O 0.58446 0.67367 0.64068 0.0
C957 C 0.59594 0.66907 0.62082 0.0
H958 H 0.56965 0.59366 0.5112 0.0
H959 H 0.54086 0.68664 0.75464 0.0
Co960 Co 0.38486 0.93448 0.61493 0.0
C961 C 0.36181 0.89665 0.57651 0.0
Co962 Co 0.36328 0.90757 0.64988 0.0
C963 C 0.42417 0.9685 0.58995 0.0
C964 C 0.39898 0.96122 0.55248 0.0
N965 N 0.4028 0.95667 0.58567 0.0
N966 N 0.43418 0.97924 0.56004 0.0
C967 C 0.41836 0.97512 0.53653 0.0
H968 H 0.43236 0.96762 0.61357 0.0
H969 H 0.38343 0.95328 0.53952 0.0
C970 C 0.38725 0.94792 0.68539 0.0
N971 N 0.34446 0.88487 0.67961 0.0
C972 C 0.3235 0.86981 0.6745 0.0
C973 C 0.34884 0.88129 0.71308 0.0
N974 N 0.31463 0.85723 0.70368 0.0
C975 C 0.3306 0.86446 0.72793 0.0
C976 C 0.40413 0.91226 0.64436 0.0
O977 O 0.39373 0.95367 0.65367 0.0
O978 O 0.37399 0.92791 0.69129 0.0
O979 O 0.38555 0.90051 0.65793 0.0
O980 O 0.40729 0.92803 0.6247 0.0
O981 O 0.35295 0.88852 0.60671 0.0
H982 H 0.36422 0.89068 0.72619 0.0
H983 H 0.31469 0.86865 0.65037 0.0
O984 O 0.37651 0.91614 0.57559 0.0
O985 O 0.36247 0.9404 0.60549 0.0
O986 O 0.34159 0.91461 0.64252 0.0
C987 C 0.3445 0.92958 0.62129 0.0
H988 H 0.42069 0.9798 0.50868 0.0
H989 H 0.32917 0.85808 0.75463 0.0
Co990 Co 0.12298 0.41072 0.27779 0.0
C991 C 0.13767 0.44818 0.31783 0.0
Co992 Co 0.12832 0.43816 0.24454 0.0
C993 C 0.12763 0.37606 0.30153 0.0
C994 C 0.10962 0.38314 0.33923 0.0
N995 N 0.11845 0.38819 0.30634 0.0
N996 N 0.12611 0.36454 0.33082 0.0
C997 C 0.11438 0.36857 0.35446 0.0
H998 H 0.13691 0.37713 0.27803 0.0
H999 H 0.10205 0.39105 0.35247 0.0
C1000 C 0.11204 0.39818 0.20731 0.0
N1001 N 0.13251 0.46119 0.21541 0.0
C1002 C 0.1263 0.47604 0.22023 0.0
C1003 C 0.14111 0.46513 0.18234 0.0
N1004 N 0.13046 0.48882 0.1912 0.0
C1005 C 0.13979 0.48196 0.1674 0.0
C1006 C 0.16446 0.43328 0.24884 0.0
O1007 O 0.11226 0.39187 0.23879 0.0
O1008 O 0.11921 0.41835 0.20228 0.0
O1009 O 0.15777 0.44558 0.23733 0.0
O1010 O 0.15167 0.41674 0.26691 0.0
O1011 O 0.13648 0.45657 0.28826 0.0
H1012 H 0.14748 0.45597 0.16952 0.0
H1013 H 0.11812 0.47689 0.24395 0.0
O1014 O 0.13342 0.42883 0.31765 0.0
O1015 O 0.09479 0.40512 0.28808 0.0
O1016 O 0.09951 0.43091 0.25129 0.0
C1017 C 0.08753 0.41589 0.27253 0.0
H1018 H 0.11148 0.36325 0.382 0.0
H1019 H 0.14515 0.48855 0.14091 0.0
Co1020 Co 0.60328 0.71555 0.28173 0.0
C1021 C 0.56559 0.69248 0.3215 0.0
Co1022 Co 0.57609 0.69271 0.24859 0.0
C1023 C 0.63689 0.7552 0.30678 0.0
C1024 C 0.63086 0.72968 0.34289 0.0
N1025 N 0.62548 0.73376 0.31053 0.0
N1026 N 0.64831 0.76491 0.33624 0.0
C1027 C 0.64493 0.74891 0.35887 0.0
H1028 H 0.63544 0.76362 0.28392 0.0
H1029 H 0.62353 0.71396 0.35531 0.0
C1030 C 0.61634 0.71688 0.21162 0.0
N1031 N 0.55337 0.67359 0.21925 0.0
C1032 C 0.53839 0.65255 0.22407 0.0
C1033 C 0.54983 0.67819 0.18589 0.0
N1034 N 0.52591 0.64388 0.19479 0.0
C1035 C 0.53312 0.66004 0.17083 0.0
C1036 C 0.58053 0.73377 0.25211 0.0
O1037 O 0.62224 0.72455 0.24265 0.0
O1038 O 0.59644 0.70276 0.20688 0.0
O1039 O 0.56907 0.71501 0.23904 0.0
O1040 O 0.59632 0.7374 0.27195 0.0
O1041 O 0.5571 0.68315 0.29183 0.0
H1042 H 0.55917 0.69367 0.173 0.0
H1043 H 0.5372 0.64357 0.24803 0.0
O1044 O 0.58514 0.70708 0.32153 0.0
O1045 O 0.60987 0.69382 0.29105 0.0
O1046 O 0.58311 0.67098 0.25768 0.0
C1047 C 0.59901 0.67519 0.27763 0.0
H1048 H 0.65041 0.75099 0.38626 0.0
H1049 H 0.52683 0.65879 0.14414 0.0
Co1050 Co 0.29758 0.89123 0.27911 0.0
C1051 C 0.32034 0.8769 0.3206 0.0
Co1052 Co 0.32097 0.8868 0.24738 0.0
C1053 C 0.25785 0.88618 0.30409 0.0
C1054 C 0.284 0.90705 0.33801 0.0
N1055 N 0.27934 0.89585 0.30721 0.0
N1056 N 0.24874 0.89026 0.3322 0.0
C1057 C 0.26513 0.90352 0.35359 0.0
H1058 H 0.24887 0.87476 0.28324 0.0
H1059 H 0.29989 0.91596 0.34961 0.0
C1060 C 0.29726 0.90282 0.2086 0.0
N1061 N 0.34026 0.88272 0.21896 0.0
C1062 C 0.36129 0.88878 0.22413 0.0
C1063 C 0.33579 0.87413 0.18592 0.0
N1064 N 0.37006 0.88455 0.19535 0.0
C1065 C 0.35398 0.87532 0.17138 0.0
C1066 C 0.27955 0.85026 0.25033 0.0
O1067 O 0.28945 0.90148 0.23947 0.0
O1068 O 0.31111 0.8966 0.20457 0.0
O1069 O 0.29871 0.85737 0.23903 0.0
O1070 O 0.27539 0.86261 0.26874 0.0
O1071 O 0.33025 0.878 0.29141 0.0
H1072 H 0.32037 0.86787 0.17284 0.0
H1073 H 0.37021 0.89692 0.24791 0.0
O1074 O 0.3053 0.88127 0.31967 0.0
O1075 O 0.31969 0.91943 0.28862 0.0
O1076 O 0.3427 0.91557 0.25551 0.0
C1077 C 0.3384 0.92723 0.27536 0.0
H1078 H 0.2635 0.90904 0.37968 0.0
H1079 H 0.35533 0.86995 0.14498 0.0
H1080 H 0.22388 0.15576 1.02908 0.0
H1081 H 0.23868 0.0575 0.09048 0.0
H1082 H 0.26728 0.16141 0.11342 0.0
H1083 H 0.21944 0.06183 0.98335 0.0
H1084 H 0.24577 0.09406 0.10223 0.0
H1085 H 0.2184 0.11994 1.01481 0.0
C1086 C 0.23219 0.14946 0.04473 0.0
C1087 C 0.24602 0.16168 0.07264 0.0
C1088 C 0.24009 0.0871 0.07607 0.0
C1089 C 0.23966 0.12051 0.05649 0.0
C1090 C 0.23596 0.06619 0.0694 0.0
C1091 C 0.22842 0.05656 0.03588 0.0
C1092 C 0.23624 0.09849 0.04933 0.0
C1093 C 0.22536 0.06869 1.00945 0.0
C1094 C 0.22914 0.12905 0.03639 0.0
C1095 C 0.25645 0.15265 0.09174 0.0
N1096 N 0.22904 0.08891 1.01684 0.0
N1097 N 0.25292 0.13262 0.08353 0.0
H1098 H 0.96032 0.17847 0.0961 0.0
H1099 H 0.85912 0.06905 1.02878 0.0
H1100 H 0.95444 0.15869 0.98617 0.0
H1101 H 0.85637 0.10491 0.11903 0.0
H1102 H 0.89553 0.09889 1.01517 0.0
H1103 H 0.92379 0.1489 0.1075 0.0
C1104 C 0.95133 0.16784 0.07435 0.0
C1105 C 0.96049 0.17105 0.04013 0.0
C1106 C 0.8869 0.10018 0.03791 0.0
C1107 C 0.91853 0.13687 0.0531 0.0
C1108 C 0.86619 0.08311 0.04584 0.0
C1109 C 0.85462 0.08441 0.07516 0.0
C1110 C 0.89632 0.11853 0.05984 0.0
C1111 C 0.86459 0.10314 0.09615 0.0
C1112 C 0.93042 0.151 0.08083 0.0
C1113 C 0.94794 0.15687 1.01285 0.0
N1114 N 0.88483 0.11931 0.08825 0.0
N1115 N 0.92768 0.14026 1.01998 0.0
H1116 H 0.82652 0.75834 1.02549 0.0
H1117 H 0.95214 0.80539 0.0604 0.0
H1118 H 0.86943 0.82472 0.05278 0.0
H1119 H 0.90516 0.73926 0.08342 0.0
H1120 H 0.92276 0.81252 0.04752 0.0
H1121 H 0.85595 0.75072 0.03632 0.0
C1122 C 0.84218 0.77132 0.03341 0.0
C1123 C 0.84553 0.79217 0.03836 0.0
C1124 C 0.9189 0.79645 0.05541 0.0
C1125 C 0.87924 0.78367 0.05048 0.0
C1126 C 0.93565 0.79235 0.06268 0.0
C1127 C 0.93114 0.77172 0.07322 0.0
C1128 C 0.8974 0.77971 0.05789 0.0
C1129 C 0.90941 0.75545 0.07569 0.0
C1130 C 0.8589 0.76696 0.03983 0.0
C1131 C 0.86611 0.80839 0.04898 0.0
N1132 N 0.89337 0.75975 0.06786 0.0
N1133 N 0.88218 0.80385 0.05446 0.0
H1134 H 0.05068 0.18773 0.50808 0.0
H1135 H 0.17388 0.27519 0.47632 0.0
H1136 H 0.07583 0.25432 0.53576 0.0
H1137 H 0.1532 0.20853 0.49754 0.0
H1138 H 0.13748 0.26807 0.49069 0.0
H1139 H 0.08748 0.19511 0.49709 0.0
C1140 C 0.06399 0.20392 0.51187 0.0
C1141 C 0.0602 0.22044 0.52285 0.0
C1142 C 0.14095 0.25503 0.49226 0.0
C1143 C 0.1024 0.22911 0.5098 0.0
C1144 C 0.16168 0.25903 0.48383 0.0
C1145 C 0.16664 0.24242 0.4856 0.0
C1146 C 0.12486 0.23415 0.50186 0.0
C1147 C 0.15016 0.22184 0.49583 0.0
C1148 C 0.08499 0.20811 0.50574 0.0
C1149 C 0.07807 0.24111 0.5276 0.0
N1150 N 0.13001 0.21826 0.50324 0.0
N1151 N 0.09838 0.24493 0.52065 0.0
H1152 H 0.74138 0.90197 0.47961 0.0
H1153 H 0.82814 0.86585 0.51453 0.0
H1154 H 0.80796 0.94768 0.50189 0.0
H1155 H 0.76123 0.82437 0.5407 0.0
H1156 H 0.82097 0.89534 0.50326 0.0
H1157 H 0.7481 0.87257 0.49497 0.0
C1158 C 0.75743 0.90584 0.48757 0.0
C1159 C 0.77415 0.92738 0.48933 0.0
C1160 C 0.80786 0.87984 0.51167 0.0
C1161 C 0.78195 0.89373 0.50674 0.0
C1162 C 0.81193 0.863 0.518 0.0
C1163 C 0.79525 0.84264 0.52859 0.0
C1164 C 0.78682 0.87627 0.51513 0.0
C1165 C 0.77455 0.83986 0.53286 0.0
C1166 C 0.7612 0.88904 0.49656 0.0
C1167 C 0.79458 0.93137 0.50014 0.0
N1168 N 0.77085 0.8564 0.5257 0.0
N1169 N 0.79793 0.91474 0.5081 0.0
H1170 H 0.0742 0.85596 0.52575 0.0
H1171 H 0.18421 0.95585 0.45783 0.0
H1172 H 0.11054 0.85098 0.43807 0.0
H1173 H 0.16319 0.95069 0.56704 0.0
H1174 H 0.15496 0.91904 0.44698 0.0
H1175 H 0.10416 0.89224 0.53823 0.0
C1176 C 0.08843 0.86251 0.50901 0.0
C1177 C 0.0898 0.85037 0.48073 0.0
C1178 C 0.15677 0.92591 0.47336 0.0
C1179 C 0.1241 0.89201 0.49477 0.0
C1180 C 0.17338 0.94695 0.47952 0.0
C1181 C 0.17611 0.95637 0.51338 0.0
C1182 C 0.1424 0.91422 0.50105 0.0
C1183 C 0.16173 0.94399 0.54063 0.0
C1184 C 0.10557 0.88318 0.51631 0.0
C1185 C 0.10874 0.8597 0.46014 0.0
N1186 N 0.14535 0.92364 0.53379 0.0
N1187 N 0.12504 0.87999 0.46737 0.0
H1188 H 0.78134 0.95363 0.9667 0.0
H1189 H 0.79496 0.85547 0.0326 0.0
H1190 H 0.79973 0.94984 0.07472 0.0
H1191 H 0.7527 0.84979 0.94625 0.0
H1192 H 0.80066 0.8915 0.04564 0.0
H1193 H 0.77434 0.91703 0.95592 0.0
C1194 C 0.78391 0.94505 0.98816 0.0
C1195 C 0.79118 0.95481 1.02164 0.0
C1196 C 0.79012 0.88233 1.0239 0.0
C1197 C 0.78341 0.91289 1.00936 0.0
C1198 C 0.78696 0.86182 1.01627 0.0
C1199 C 0.77336 0.84956 0.9882 0.0
C1200 C 0.77993 0.89085 1.00291 0.0
C1201 C 0.7633 0.8586 0.96814 0.0
C1202 C 0.77982 0.92413 0.98205 0.0
C1203 C 0.79402 0.94285 0.04862 0.0
N1204 N 0.76691 0.8787 0.9757 0.0
N1205 N 0.79035 0.92259 0.04181 0.0
H1206 H 0.16477 0.90629 0.93679 0.0
H1207 H 0.06485 0.85267 0.07139 0.0
H1208 H 0.16029 0.94135 1.02682 0.0
H1209 H 0.06081 0.8337 0.96126 0.0
H1210 H 0.10166 0.88261 0.06015 0.0
H1211 H 0.12844 0.8769 0.9498 0.0
C1212 C 0.15615 0.90784 0.95933 0.0
C1213 C 0.16561 0.92642 0.98063 0.0
C1214 C 0.09266 0.87187 0.0385 0.0
C1215 C 0.12394 0.89252 0.996 0.0
C1216 C 0.07176 0.85473 0.04496 0.0
C1217 C 0.05972 0.84074 1.01718 0.0
C1218 C 0.10173 0.87472 1.0042 0.0
C1219 C 0.06939 0.84423 0.98333 0.0
C1220 C 0.13536 0.89103 0.96669 0.0
C1221 C 0.15358 0.92741 1.00952 0.0
N1222 N 0.0898 0.86073 0.97788 0.0
N1223 N 0.13343 0.91064 1.01652 0.0
H1224 H 0.19306 0.25343 0.0347 0.0
H1225 H 0.06797 0.20773 0.99652 0.0
H1226 H 0.14929 0.18698 1.00899 0.0
H1227 H 0.11556 0.27371 0.97378 0.0
H1228 H 0.09695 0.20027 1.01052 0.0
H1229 H 0.1642 0.26166 1.02218 0.0
C1230 C 0.17733 0.24057 1.02677 0.0
C1231 C 0.17357 0.2195 1.02278 0.0
C1232 C 0.10105 0.21638 1.00243 0.0
C1233 C 0.14052 0.22873 1.00868 0.0
C1234 C 0.08451 0.22067 0.99449 0.0
C1235 C 0.08929 0.24136 0.98376 0.0
C1236 C 0.12263 0.23297 1.00041 0.0
C1237 C 0.1111 0.25748 0.98167 0.0
C1238 C 0.16095 0.24529 1.01937 0.0
C1239 C 0.15293 0.20345 1.01209 0.0
N1240 N 0.12694 0.25299 0.99015 0.0
N1241 N 0.1372 0.20836 1.00564 0.0
H1242 H 0.94553 0.76008 0.52104 0.0
H1243 H 0.8663 0.80601 0.56121 0.0
H1244 H 0.96894 0.82659 0.54732 0.0
H1245 H 0.84852 0.74015 0.58328 0.0
H1246 H 0.90283 0.81371 0.54609 0.0
H1247 H 0.90856 0.75228 0.53336 0.0
C1248 C 0.94286 0.77306 0.52903 0.0
C1249 C 0.96036 0.794 0.53329 0.0
C1250 C 0.89091 0.79758 0.55425 0.0
C1251 C 0.91814 0.78526 0.54716 0.0
C1252 C 0.87004 0.79316 0.56282 0.0
C1253 C 0.85429 0.77243 0.57378 0.0
C1254 C 0.89602 0.78106 0.55584 0.0
C1255 C 0.86014 0.75641 0.57527 0.0
C1256 C 0.92181 0.76859 0.5363 0.0
C1257 C 0.95596 0.8102 0.54404 0.0
N1258 N 0.88043 0.76102 0.56621 0.0
N1259 N 0.93535 0.80553 0.5504 0.0
H1260 H 0.2632 0.10442 0.61812 0.0
H1261 H 0.21995 0.16087 0.48337 0.0
H1262 H 0.22572 0.07166 0.52514 0.0
H1263 H 0.23341 0.17848 0.59423 0.0
H1264 H 0.22678 0.1309 0.49399 0.0
H1265 H 0.25711 0.13447 0.60577 0.0
C1266 C 0.25373 0.10356 0.59503 0.0
C1267 C 0.24493 0.08543 0.57269 0.0
C1268 C 0.22824 0.14136 0.51594 0.0
C1269 C 0.23805 0.11999 0.55815 0.0
C1270 C 0.22449 0.15852 0.50982 0.0
C1271 C 0.22599 0.17212 0.53799 0.0
C1272 C 0.23398 0.13805 0.55029 0.0
C1273 C 0.23181 0.16825 0.57185 0.0
C1274 C 0.2502 0.1207 0.58807 0.0
C1275 C 0.23269 0.08523 0.54323 0.0
N1276 N 0.23568 0.15171 0.57699 0.0
N1277 N 0.22973 0.10228 0.53668 0.0
H1278 H 0.94674 0.158 0.52926 0.0
H1279 H 0.83678 0.05798 0.59753 0.0
H1280 H 0.9106 0.16251 0.61769 0.0
H1281 H 0.85739 0.06302 0.48811 0.0
H1282 H 0.86609 0.09475 0.6082 0.0
H1283 H 0.9167 0.12173 0.51651 0.0
C1284 C 0.93255 0.15135 0.5461 0.0
C1285 C 0.93125 0.16336 0.57467 0.0
C1286 C 0.86419 0.08788 0.5818 0.0
C1287 C 0.89687 0.12175 0.56032 0.0
C1288 C 0.84752 0.06685 0.57574 0.0
C1289 C 0.84466 0.05739 0.54188 0.0
C1290 C 0.87851 0.09955 0.55403 0.0
C1291 C 0.85896 0.06975 0.51452 0.0
C1292 C 0.91537 0.1307 0.53865 0.0
C1293 C 0.91235 0.15391 0.59538 0.0
N1294 N 0.87541 0.09011 0.52126 0.0
N1295 N 0.89604 0.13366 0.588 0.0
H1296 H 0.9306 0.49509 0.4559 0.0
H1297 H 0.88518 0.39578 0.32051 0.0
H1298 H 0.89163 0.49061 0.36515 0.0
H1299 H 0.89914 0.39087 0.43084 0.0
H1300 H 0.89241 0.43264 0.33194 0.0
H1301 H 0.92404 0.45885 0.44287 0.0
C1302 C 0.9207 0.48651 0.43318 0.0
C1303 C 0.91161 0.49592 0.41167 0.0
C1304 C 0.89388 0.42345 0.35359 0.0
C1305 C 0.90424 0.45443 0.39631 0.0
C1306 C 0.88991 0.40252 0.34701 0.0
C1307 C 0.89145 0.39022 0.3748 0.0
C1308 C 0.89989 0.43229 0.38801 0.0
C1309 C 0.89751 0.39968 0.40876 0.0
C1310 C 0.91691 0.46579 0.42582 0.0
C1311 C 0.89884 0.48395 0.3826 0.0
N1312 N 0.90161 0.42013 0.41435 0.0
N1313 N 0.89565 0.4639 0.37563 0.0
H1314 H 0.63566 0.48049 0.38162 0.0
H1315 H 0.51289 0.4449 0.41771 0.0
H1316 H 0.61069 0.52241 0.35629 0.0
H1317 H 0.53354 0.39915 0.39419 0.0
H1318 H 0.54913 0.47431 0.4025 0.0
H1319 H 0.59893 0.45121 0.39323 0.0
C1320 C 0.62239 0.48348 0.37843 0.0
C1321 C 0.62621 0.50389 0.36795 0.0
C1322 C 0.54567 0.45782 0.40061 0.0
C1323 C 0.58407 0.4705 0.38178 0.0
C1324 C 0.52504 0.44102 0.40949 0.0
C1325 C 0.52013 0.41947 0.4073 0.0
C1326 C 0.56168 0.4531 0.39015 0.0
C1327 C 0.53654 0.41547 0.39625 0.0
C1328 C 0.60143 0.46676 0.38495 0.0
C1329 C 0.60839 0.50686 0.36404 0.0
N1330 N 0.55656 0.43209 0.38841 0.0
N1331 N 0.5881 0.49043 0.37136 0.0
H1332 H 0.52278 0.12981 0.3199 0.0
H1333 H 0.57549 0.08135 0.45214 0.0
H1334 H 0.50081 0.11042 0.4279 0.0
H1335 H 0.61147 0.12431 0.36584 0.0
H1336 H 0.54535 0.08716 0.43889 0.0
H1337 H 0.55274 0.12305 0.33127 0.0
C1338 C 0.52417 0.12397 0.34585 0.0
C1339 C 0.50935 0.12079 0.37305 0.0
C1340 C 0.55986 0.09534 0.42288 0.0
C1341 C 0.54338 0.11288 0.38619 0.0
C1342 C 0.57707 0.09201 0.43039 0.0
C1343 C 0.59614 0.10245 0.41023 0.0
C1344 C 0.56146 0.10893 0.39455 0.0
C1345 C 0.59718 0.11606 0.38229 0.0
C1346 C 0.54131 0.12026 0.35242 0.0
C1347 C 0.51199 0.11333 0.40632 0.0
N1348 N 0.58006 0.1188 0.37514 0.0
N1349 N 0.52855 0.10954 0.41188 0.0
H1350 H 0.81959 0.54002 0.83384 0.0
H1351 H 0.74109 0.58704 0.86975 0.0
H1352 H 0.83867 0.60605 0.81023 0.0
H1353 H 0.71754 0.52065 0.84243 0.0
H1354 H 0.77813 0.59467 0.85847 0.0
H1355 H 0.78312 0.53292 0.84721 0.0
C1356 C 0.81614 0.55304 0.83154 0.0
C1357 C 0.83223 0.57364 0.8207 0.0
C1358 C 0.76482 0.57843 0.85505 0.0
C1359 C 0.79054 0.56567 0.8366 0.0
C1360 C 0.74375 0.57406 0.86173 0.0
C1361 C 0.72623 0.5532 0.8569 0.0
C1362 C 0.76843 0.56172 0.84428 0.0
C1363 C 0.73056 0.53698 0.84615 0.0
C1364 C 0.7953 0.54896 0.8391 0.0
C1365 C 0.82675 0.58989 0.81822 0.0
N1366 N 0.75117 0.54153 0.84043 0.0
N1367 N 0.80644 0.58561 0.82633 0.0
H1368 H 0.43007 0.15758 0.87224 0.0
H1369 H 0.47641 0.2828 0.83384 0.0
H1370 H 0.49626 0.20012 0.84277 0.0
H1371 H 0.4105 0.235 0.81148 0.0
H1372 H 0.48394 0.25379 0.8482 0.0
H1373 H 0.4225 0.18701 0.86143 0.0
C1374 C 0.44302 0.17317 0.86387 0.0
C1375 C 0.46379 0.17641 0.85824 0.0
C1376 C 0.46784 0.2497 0.84019 0.0
C1377 C 0.45535 0.21013 0.84616 0.0
C1378 C 0.46351 0.26624 0.83209 0.0
C1379 C 0.44282 0.26135 0.82123 0.0
C1380 C 0.45125 0.22812 0.83823 0.0
C1381 C 0.42673 0.23954 0.81944 0.0
C1382 C 0.43869 0.18989 0.85748 0.0
C1383 C 0.47999 0.1969 0.84708 0.0
N1384 N 0.43123 0.22376 0.82805 0.0
N1385 N 0.47547 0.21299 0.8416 0.0
H1386 H 0.77684 0.18471 0.77353 0.0
H1387 H 0.83108 0.28436 0.9085 0.0
H1388 H 0.74248 0.1895 0.86443 0.0
H1389 H 0.85055 0.28865 0.7985 0.0
H1390 H 0.80124 0.24758 0.8972 0.0
H1391 H 0.80668 0.22088 0.78642 0.0
C1392 C 0.77556 0.19335 0.79624 0.0
C1393 C 0.75704 0.18403 0.81783 0.0
C1394 C 0.81208 0.25661 0.87559 0.0
C1395 C 0.79139 0.22548 0.83305 0.0
C1396 C 0.82916 0.27751 0.88209 0.0
C1397 C 0.84325 0.28964 0.85436 0.0
C1398 C 0.80934 0.24761 0.84129 0.0
C1399 C 0.83994 0.28 0.82054 0.0
C1400 C 0.7926 0.21404 0.80353 0.0
C1401 C 0.75636 0.19609 0.8469 0.0
N1402 N 0.82346 0.2596 0.81503 0.0
N1403 N 0.77332 0.2161 0.8538 0.0
H1404 H 0.4282 0.18759 0.27058 0.0
H1405 H 0.46883 0.28461 0.40958 0.0
H1406 H 0.46249 0.18921 0.36611 0.0
H1407 H 0.4584 0.29063 0.2979 0.0
H1408 H 0.46241 0.24801 0.39807 0.0
H1409 H 0.43507 0.22377 0.28389 0.0
C1410 C 0.4372 0.19557 0.2944 0.0
C1411 C 0.44482 0.18531 0.31721 0.0
C1412 C 0.46158 0.25741 0.37615 0.0
C1413 C 0.45256 0.22689 0.33289 0.0
C1414 C 0.46508 0.27819 0.38274 0.0
C1415 C 0.46426 0.29073 0.35462 0.0
C1416 C 0.45678 0.24898 0.34133 0.0
C1417 C 0.45947 0.28167 0.32028 0.0
C1418 C 0.44117 0.21629 0.30194 0.0
C1419 C 0.45645 0.19655 0.34766 0.0
N1420 N 0.4558 0.26139 0.31468 0.0
N1421 N 0.45984 0.21668 0.35478 0.0
H1422 H 0.74081 0.15668 0.3709 0.0
H1423 H 0.81909 0.28211 0.33298 0.0
H1424 H 0.71724 0.19953 0.34365 0.0
H1425 H 0.83846 0.23518 0.3114 0.0
H1426 H 0.78267 0.25277 0.34662 0.0
H1427 H 0.77782 0.18602 0.35915 0.0
C1428 C 0.74346 0.1723 0.36279 0.0
C1429 C 0.72593 0.17566 0.35814 0.0
C1430 C 0.7949 0.2489 0.33888 0.0
C1431 C 0.76811 0.20928 0.34494 0.0
C1432 C 0.81572 0.26564 0.33116 0.0
C1433 C 0.83188 0.26114 0.32082 0.0
C1434 C 0.79021 0.22742 0.33702 0.0
C1435 C 0.82649 0.23942 0.31897 0.0
C1436 C 0.76452 0.18897 0.35583 0.0
C1437 C 0.73025 0.19619 0.34724 0.0
N1438 N 0.80618 0.22339 0.32722 0.0
N1439 N 0.75085 0.21221 0.34124 0.0
H1440 H 0.78177 0.60806 0.31184 0.0
H1441 H 0.81604 0.51984 0.34483 0.0
H1442 H 0.7349 0.54169 0.3334 0.0
H1443 H 0.85774 0.58635 0.37282 0.0
H1444 H 0.7868 0.52746 0.33378 0.0
H1445 H 0.81058 0.6005 0.32704 0.0
C1446 C 0.77752 0.59187 0.31965 0.0
C1447 C 0.75583 0.57546 0.32124 0.0
C1448 C 0.8023 0.54037 0.34252 0.0
C1449 C 0.78883 0.56668 0.33839 0.0
C1450 C 0.81901 0.53605 0.34868 0.0
C1451 C 0.83935 0.5525 0.35974 0.0
C1452 C 0.80603 0.56142 0.34662 0.0
C1453 C 0.84227 0.5732 0.36458 0.0
C1454 C 0.79398 0.58761 0.32853 0.0
C1455 C 0.75135 0.55483 0.33181 0.0
N1456 N 0.82588 0.57714 0.35758 0.0
N1457 N 0.76769 0.55099 0.33964 0.0
H1458 H 0.62276 0.13099 0.81945 0.0
H1459 H 0.52328 0.08758 0.95494 0.0
H1460 H 0.62691 0.11754 0.93038 0.0
H1461 H 0.52723 0.12448 0.86141 0.0
H1462 H 0.55954 0.09413 0.94247 0.0
H1463 H 0.58599 0.12432 0.83024 0.0
C1464 C 0.61589 0.12651 0.84596 0.0
C1465 C 0.62797 0.12493 0.87409 0.0
C1466 C 0.55252 0.10083 0.92466 0.0
C1467 C 0.58598 0.11714 0.88658 0.0
C1468 C 0.53175 0.09703 0.9317 0.0
C1469 C 0.52215 0.10549 0.90922 0.0
C1470 C 0.56379 0.11293 0.89453 0.0
C1471 C 0.53405 0.11775 0.87959 0.0
C1472 C 0.59501 0.12285 0.85216 0.0
C1473 C 0.61832 0.11921 0.90802 0.0
N1474 N 0.55418 0.12098 0.87295 0.0
N1475 N 0.59794 0.11541 0.91324 0.0
H1476 H 0.8855 0.49288 0.8214 0.0
H1477 H 0.9309 0.43837 0.95578 0.0
H1478 H 0.9002 0.51168 0.93161 0.0
H1479 H 0.8922 0.40439 0.8645 0.0
H1480 H 0.92437 0.4681 0.94319 0.0
H1481 H 0.89254 0.46308 0.8324 0.0
C1482 C 0.89034 0.49081 0.8478 0.0
C1483 C 0.89216 0.50471 0.87567 0.0
C1484 C 0.91728 0.45413 0.92593 0.0
C1485 C 0.90038 0.47086 0.88839 0.0
C1486 C 0.92105 0.43716 0.93304 0.0
C1487 C 0.91204 0.41879 0.91124 0.0
C1488 C 0.90468 0.45299 0.8964 0.0
C1489 C 0.89935 0.41816 0.88216 0.0
C1490 C 0.89421 0.47376 0.85412 0.0
C1491 C 0.89835 0.50122 0.90947 0.0
N1492 N 0.89616 0.43505 0.87545 0.0
N1493 N 0.90234 0.48477 0.91481 0.0
H1494 H 0.6124 0.48988 0.86335 0.0
H1495 H 0.49997 0.39172 0.92785 0.0
H1496 H 0.57582 0.49505 0.95043 0.0
H1497 H 0.52276 0.39586 0.82005 0.0
H1498 H 0.52967 0.42816 0.93921 0.0
H1499 H 0.58196 0.45401 0.84972 0.0
C1500 C 0.59803 0.48345 0.87972 0.0
C1501 C 0.59671 0.49552 0.90816 0.0
C1502 C 0.52817 0.42119 0.91299 0.0
C1503 C 0.56187 0.45442 0.89275 0.0
C1504 C 0.51126 0.40035 0.90655 0.0
C1505 C 0.50892 0.39073 0.87297 0.0
C1506 C 0.54322 0.43248 0.88591 0.0
C1507 C 0.52392 0.40275 0.84621 0.0
C1508 C 0.58062 0.46304 0.87175 0.0
C1509 C 0.57758 0.48639 0.92825 0.0
N1510 N 0.54058 0.42292 0.85335 0.0
N1511 N 0.56103 0.46638 0.92033 0.0
H1512 H 0.55701 0.82333 0.69681 0.0
H1513 H 0.5692 0.72442 0.76437 0.0
H1514 H 0.59705 0.82775 0.78591 0.0
H1515 H 0.55141 0.72831 0.65598 0.0
H1516 H 0.57603 0.76093 0.7751 0.0
H1517 H 0.55116 0.78721 0.68379 0.0
C1518 C 0.56449 0.8167 0.71373 0.0
C1519 C 0.57754 0.82864 0.74255 0.0
C1520 C 0.57071 0.75388 0.7489 0.0
C1521 C 0.57079 0.78725 0.72787 0.0
C1522 C 0.56671 0.73299 0.74281 0.0
C1523 C 0.55966 0.72326 0.70924 0.0
C1524 C 0.56728 0.76517 0.72145 0.0
C1525 C 0.55695 0.73526 0.68215 0.0
C1526 C 0.56125 0.79613 0.70613 0.0
C1527 C 0.58693 0.81922 0.76338 0.0
N1528 N 0.56054 0.7555 0.68893 0.0
N1529 N 0.58326 0.7991 0.75579 0.0
H1530 H 0.18641 0.77512 0.78762 0.0
H1531 H 0.28771 0.82779 0.65529 0.0
H1532 H 0.19261 0.73961 0.69994 0.0
H1533 H 0.29115 0.84805 0.76452 0.0
H1534 H 0.25072 0.79823 0.66639 0.0
H1535 H 0.22279 0.80484 0.77497 0.0
C1536 C 0.19539 0.77356 0.76569 0.0
C1537 C 0.18643 0.75474 0.74496 0.0
C1538 C 0.25961 0.80918 0.68788 0.0
C1539 C 0.22806 0.78894 0.72997 0.0
C1540 C 0.28062 0.8261 0.68148 0.0
C1541 C 0.29257 0.84032 0.70907 0.0
C1542 C 0.2503 0.80676 0.72189 0.0
C1543 C 0.28264 0.83732 0.74262 0.0
C1544 C 0.21619 0.79053 0.75853 0.0
C1545 C 0.1989 0.75372 0.71681 0.0
N1546 N 0.26211 0.821 0.74802 0.0
N1547 N 0.21899 0.7706 0.71001 0.0
H1548 H 0.20433 0.4948 0.71391 0.0
H1549 H 0.23557 0.40511 0.75516 0.0
H1550 H 0.16069 0.42776 0.69214 0.0
H1551 H 0.28347 0.47034 0.72836 0.0
H1552 H 0.20727 0.41328 0.73925 0.0
H1553 H 0.23296 0.48645 0.72599 0.0
C1554 C 0.20081 0.47831 0.71162 0.0
C1555 C 0.1801 0.46194 0.70201 0.0
C1556 C 0.22398 0.42577 0.73678 0.0
C1557 C 0.21273 0.4522 0.71633 0.0
C1558 C 0.24016 0.42118 0.74606 0.0
C1559 C 0.26199 0.43709 0.74317 0.0
C1560 C 0.22957 0.44655 0.72519 0.0
C1561 C 0.2669 0.45758 0.73098 0.0
C1562 C 0.21717 0.47357 0.71838 0.0
C1563 C 0.17646 0.44086 0.69919 0.0
N1564 N 0.25085 0.46177 0.72276 0.0
N1565 N 0.19253 0.43654 0.70673 0.0
H1566 H 0.39316 0.89934 0.13441 0.0
H1567 H 0.49215 0.88657 0.19896 0.0
H1568 H 0.39733 0.88158 0.24273 0.0
H1569 H 0.49698 0.92854 0.11254 0.0
H1570 H 0.45603 0.88064 0.21283 0.0
H1571 H 0.42973 0.90632 0.12327 0.0
C1572 C 0.40181 0.89691 0.15588 0.0
C1573 C 0.39215 0.88984 0.18955 0.0
C1574 C 0.46504 0.89116 0.19089 0.0
C1575 C 0.43412 0.89757 0.17682 0.0
C1576 C 0.48561 0.89445 0.18279 0.0
C1577 C 0.49767 0.90803 0.15443 0.0
C1578 C 0.45625 0.90117 0.17006 0.0
C1579 C 0.48835 0.91793 0.13462 0.0
C1580 C 0.42274 0.90098 0.14955 0.0
C1581 C 0.40424 0.88715 0.21649 0.0
N1582 N 0.46823 0.91418 0.14261 0.0
N1583 N 0.4245 0.89079 0.20946 0.0
H1584 H 0.12759 0.60796 0.19686 0.0
H1585 H 0.11614 0.49733 0.12997 0.0
H1586 H 0.08605 0.57167 0.10963 0.0
H1587 H 0.1327 0.51855 0.2388 0.0
H1588 H 0.10877 0.5267 0.11911 0.0
H1589 H 0.13354 0.57777 0.20975 0.0
C1590 C 0.11979 0.5937 0.18031 0.0
C1591 C 0.10632 0.5924 0.15203 0.0
C1592 C 0.11394 0.52491 0.14542 0.0
C1593 C 0.11322 0.55785 0.16656 0.0
C1594 C 0.11824 0.50822 0.15159 0.0
C1595 C 0.1251 0.50552 0.18533 0.0
C1596 C 0.11691 0.53941 0.17297 0.0
C1597 C 0.12733 0.51999 0.21249 0.0
C1598 C 0.1231 0.57643 0.18785 0.0
C1599 C 0.09653 0.57341 0.1317 0.0
N1600 N 0.12348 0.53646 0.20564 0.0
N1601 N 0.10031 0.557 0.13916 0.0
H1602 H 0.51787 0.62109 0.13365 0.0
H1603 H 0.40642 0.52173 0.19916 0.0
H1604 H 0.49558 0.61641 0.24193 0.0
H1605 H 0.44284 0.51743 0.11099 0.0
H1606 H 0.43659 0.5578 0.21266 0.0
H1607 H 0.48837 0.58454 0.12231 0.0
C1608 C 0.50672 0.61234 0.15506 0.0
C1609 C 0.50917 0.62185 0.18877 0.0
C1610 C 0.43795 0.54892 0.19041 0.0
C1611 C 0.47509 0.57992 0.17585 0.0
C1612 C 0.42069 0.52839 0.18253 0.0
C1613 C 0.42204 0.51649 0.15382 0.0
C1614 C 0.45659 0.55785 0.16907 0.0
C1615 C 0.44105 0.52594 0.1334 0.0
C1616 C 0.48993 0.59143 0.14861 0.0
C1617 C 0.49435 0.60963 0.21565 0.0
N1618 N 0.45745 0.54605 0.14124 0.0
N1619 N 0.4778 0.58939 0.20852 0.0
H1620 H 0.09558 0.61041 0.70336 0.0
H1621 H 0.14201 0.53174 0.6631 0.0
H1622 H 0.162 0.6337 0.67602 0.0
H1623 H 0.07559 0.51265 0.64344 0.0
H1624 H 0.14937 0.5682 0.67685 0.0
H1625 H 0.08763 0.57342 0.69083 0.0
C1626 C 0.1085 0.60772 0.69505 0.0
C1627 C 0.12948 0.62519 0.69064 0.0
C1628 C 0.13319 0.55604 0.66948 0.0
C1629 C 0.12056 0.58296 0.67651 0.0
C1630 C 0.12895 0.53519 0.66167 0.0
C1631 C 0.10816 0.51906 0.65187 0.0
C1632 C 0.11645 0.56084 0.66826 0.0
C1633 C 0.0919 0.52458 0.65057 0.0
C1634 C 0.10394 0.58666 0.68765 0.0
C1635 C 0.14558 0.62076 0.67946 0.0
N1636 N 0.09634 0.54491 0.6589 0.0
N1637 N 0.14084 0.60016 0.67302 0.0
H1638 H 0.49172 0.60837 0.70274 0.0
H1639 H 0.39186 0.49771 0.63505 0.0
H1640 H 0.49433 0.57361 0.61075 0.0
H1641 H 0.39659 0.51813 0.74442 0.0
H1642 H 0.42804 0.52782 0.62375 0.0
H1643 H 0.45556 0.57807 0.71653 0.0
C1644 C 0.48468 0.59446 0.68533 0.0
C1645 C 0.49614 0.59358 0.6555 0.0
C1646 C 0.42126 0.52575 0.6503 0.0
C1647 C 0.45477 0.55893 0.67106 0.0
C1648 C 0.40054 0.50859 0.65672 0.0
C1649 C 0.39113 0.5054 0.69072 0.0
C1650 C 0.43275 0.54024 0.67787 0.0
C1651 C 0.40329 0.51992 0.71791 0.0
C1652 C 0.46411 0.57713 0.69337 0.0
C1653 C 0.48621 0.57504 0.63408 0.0
N1654 N 0.4234 0.53683 0.71084 0.0
N1655 N 0.46616 0.5586 0.64214 0.0
H1656 H 0.49683 0.8824 0.74199 0.0
H1657 H 0.44155 0.92659 0.6066 0.0
H1658 H 0.51571 0.89725 0.6317 0.0
H1659 H 0.40793 0.88858 0.69896 0.0
H1660 H 0.47146 0.92041 0.61943 0.0
H1661 H 0.4668 0.88911 0.73096 0.0
C1662 C 0.49475 0.88721 0.71558 0.0
C1663 C 0.50873 0.88915 0.68768 0.0
C1664 C 0.45753 0.91338 0.63689 0.0
C1665 C 0.4746 0.89699 0.67491 0.0
C1666 C 0.44045 0.91696 0.62963 0.0
C1667 C 0.42212 0.90805 0.65166 0.0
C1668 C 0.45656 0.90107 0.66677 0.0
C1669 C 0.42165 0.89563 0.6811 0.0
C1670 C 0.47755 0.89089 0.70922 0.0
C1671 C 0.50519 0.8953 0.65386 0.0
N1672 N 0.43866 0.89262 0.68793 0.0
N1673 N 0.48862 0.89909 0.6485 0.0
H1674 H 0.19952 0.47171 0.22895 0.0
H1675 H 0.27772 0.42453 0.19099 0.0
H1676 H 0.18011 0.40531 0.24988 0.0
H1677 H 0.30154 0.49065 0.22059 0.0
H1678 H 0.24072 0.41704 0.20201 0.0
H1679 H 0.23604 0.47886 0.21568 0.0
C1680 C 0.20291 0.45862 0.23069 0.0
C1681 C 0.18672 0.4379 0.24077 0.0
C1682 C 0.25407 0.43319 0.20598 0.0
C1683 C 0.22844 0.44593 0.22497 0.0
C1684 C 0.27513 0.43749 0.19946 0.0
C1685 C 0.29271 0.45822 0.20501 0.0
C1686 C 0.25054 0.44986 0.21734 0.0
C1687 C 0.28847 0.47441 0.21631 0.0
C1688 C 0.22377 0.46274 0.22319 0.0
C1689 C 0.19211 0.42157 0.24253 0.0
N1690 N 0.26786 0.46993 0.22188 0.0
N1691 N 0.21243 0.42589 0.23449 0.0
H1692 H 0.59448 0.77126 0.28886 0.0
H1693 H 0.55095 0.82605 0.15149 0.0
H1694 H 0.55671 0.73693 0.19699 0.0
H1695 H 0.56485 0.84472 0.26187 0.0
H1696 H 0.55752 0.79595 0.16314 0.0
H1697 H 0.58818 0.80093 0.27504 0.0
C1698 C 0.58484 0.76994 0.26574 0.0
C1699 C 0.57604 0.75149 0.24415 0.0
C1700 C 0.55911 0.80667 0.18474 0.0
C1701 C 0.56897 0.78571 0.22786 0.0
C1702 C 0.55553 0.8239 0.17804 0.0
C1703 C 0.55725 0.83783 0.2058 0.0
C1704 C 0.5649 0.80367 0.21926 0.0
C1705 C 0.56309 0.83424 0.23981 0.0
C1706 C 0.58121 0.7869 0.25791 0.0
C1707 C 0.56366 0.75076 0.21453 0.0
N1708 N 0.5668 0.81765 0.2455 0.0
N1709 N 0.5606 0.76768 0.20711 0.0
H1710 H 0.23596 0.83425 0.25233 0.0
H1711 H 0.20283 0.71232 0.21674 0.0
H1712 H 0.28326 0.81572 0.22801 0.0
H1713 H 0.16034 0.73659 0.19121 0.0
H1714 H 0.23189 0.74927 0.22788 0.0
H1715 H 0.20735 0.79779 0.23726 0.0
C1716 C 0.24035 0.82251 0.24393 0.0
C1717 C 0.2621 0.82809 0.2415 0.0
C1718 C 0.21625 0.74654 0.21965 0.0
C1719 C 0.22931 0.7862 0.22452 0.0
C1720 C 0.19966 0.72547 0.21344 0.0
C1721 C 0.17915 0.7214 0.20304 0.0
C1722 C 0.21224 0.76371 0.21626 0.0
C1723 C 0.17595 0.73905 0.19891 0.0
C1724 C 0.22399 0.80173 0.23514 0.0
C1725 C 0.26675 0.81217 0.23024 0.0
N1726 N 0.19223 0.75941 0.20594 0.0
N1727 N 0.25051 0.79192 0.2225 0.0
H1728 H 0.35645 0.23758 0.19789 0.0
H1729 H 0.34536 0.12267 0.16869 0.0
H1730 H 0.31619 0.19189 0.11764 0.0
H1731 H 0.39137 0.17075 0.24037 0.0
H1732 H 0.33624 0.14914 0.14654 0.0
H1733 H 0.37204 0.21478 0.21048 0.0
C1734 C 0.35114 0.22299 0.18261 0.0
C1735 C 0.33482 0.21658 0.15708 0.0
C1736 C 0.34837 0.15388 0.16711 0.0
C1737 C 0.35233 0.19047 0.17129 0.0
C1738 C 0.35347 0.13875 0.17976 0.0
C1739 C 0.36878 0.14437 0.20683 0.0
C1740 C 0.35865 0.17469 0.18178 0.0
C1741 C 0.37896 0.16546 0.22029 0.0
C1742 C 0.36002 0.21001 0.18971 0.0
C1743 C 0.32876 0.19769 0.13749 0.0
N1744 N 0.37362 0.17984 0.20773 0.0
N1745 N 0.33731 0.18517 0.14538 0.0
H1746 H 0.83473 0.12528 0.13663 0.0
H1747 H 0.85656 0.2221 0.26454 0.0
H1748 H 0.78819 0.12327 0.21224 0.0
H1749 H 0.90203 0.22585 0.18499 0.0
H1750 H 0.83236 0.18523 0.24796 0.0
H1751 H 0.85967 0.16186 0.15427 0.0
C1752 C 0.82951 0.13264 0.15646 0.0
C1753 C 0.80918 0.12123 0.17284 0.0
C1754 C 0.84769 0.19401 0.23427 0.0
C1755 C 0.83812 0.16303 0.19393 0.0
C1756 C 0.86176 0.21508 0.24408 0.0
C1757 C 0.88152 0.22711 0.22621 0.0
C1758 C 0.8533 0.18488 0.20626 0.0
C1759 C 0.88691 0.21715 0.19922 0.0
C1760 C 0.84396 0.15351 0.16685 0.0
C1761 C 0.80372 0.1315 0.19914 0.0
N1762 N 0.87277 0.19655 0.18988 0.0
N1763 N 0.81818 0.15188 0.20899 0.0
H1764 H 0.79786 0.6428 0.27163 0.0
H1765 H 0.89488 0.71638 0.14233 0.0
H1766 H 0.7945 0.68393 0.19058 0.0
H1767 H 0.89585 0.67086 0.21672 0.0
H1768 H 0.85921 0.70681 0.16286 0.0
H1769 H 0.83521 0.65636 0.25691 0.0
C1770 C 0.80501 0.65506 0.25124 0.0
C1771 C 0.79288 0.66216 0.2321 0.0
C1772 C 0.86712 0.69881 0.17461 0.0
C1773 C 0.83572 0.67725 0.21442 0.0
C1774 C 0.88742 0.70401 0.16252 0.0
C1775 C 0.89816 0.69401 0.17739 0.0
C1776 C 0.8575 0.68356 0.20187 0.0
C1777 C 0.888 0.6788 0.20452 0.0
C1778 C 0.82639 0.6626 0.24255 0.0
C1779 C 0.80317 0.6778 0.20556 0.0
N1780 N 0.86812 0.67397 0.2159 0.0
N1781 N 0.82402 0.6847 0.19723 0.0
H1782 H 0.11861 0.33294 0.37791 0.0
H1783 H 0.23603 0.34793 0.35058 0.0
H1784 H 0.16584 0.37783 0.30354 0.0
H1785 H 0.18895 0.30345 0.42558 0.0
H1786 H 0.21059 0.35964 0.33331 0.0
H1787 H 0.1443 0.32168 0.39586 0.0
C1788 C 0.13426 0.34023 0.36518 0.0
C1789 C 0.13999 0.35613 0.33903 0.0
C1790 C 0.20597 0.34745 0.3538 0.0
C1791 C 0.16941 0.34366 0.3594 0.0
C1792 C 0.22048 0.34084 0.36363 0.0
C1793 C 0.21471 0.32487 0.38967 0.0
C1794 C 0.18556 0.33786 0.37006 0.0
C1795 C 0.19436 0.31615 0.40593 0.0
C1796 C 0.14892 0.33389 0.3754 0.0
C1797 C 0.16047 0.36515 0.32321 0.0
N1798 N 0.1805 0.3227 0.39572 0.0
N1799 N 0.17447 0.35883 0.33376 0.0
H1800 H 0.67983 0.7886 0.38352 0.0
H1801 H 0.66745 0.89242 0.35636 0.0
H1802 H 0.63448 0.79132 0.31102 0.0
H1803 H 0.71048 0.88828 0.43237 0.0
H1804 H 0.65419 0.85479 0.3403 0.0
H1805 H 0.69111 0.82535 0.40244 0.0
C1806 C 0.6724 0.79699 0.37147 0.0
C1807 C 0.65643 0.78701 0.34546 0.0
C1808 C 0.66638 0.86213 0.36079 0.0
C1809 C 0.66895 0.82872 0.36691 0.0
C1810 C 0.67388 0.88353 0.36992 0.0
C1811 C 0.68999 0.89347 0.39573 0.0
C1812 C 0.67523 0.85079 0.37751 0.0
C1813 C 0.69778 0.88127 0.41275 0.0
C1814 C 0.67875 0.81788 0.38225 0.0
C1815 C 0.64723 0.79851 0.33053 0.0
N1816 N 0.69042 0.86061 0.40313 0.0
N1817 N 0.65362 0.81876 0.34153 0.0
H1818 H 0.21483 0.87473 0.28756 0.0
H1819 H 0.13313 0.79858 0.43795 0.0
H1820 H 0.2322 0.87589 0.39807 0.0
H1821 H 0.11561 0.7976 0.32759 0.0
H1822 H 0.17009 0.82593 0.42337 0.0
H1823 H 0.17809 0.8467 0.30178 0.0
C1824 C 0.21075 0.86929 0.31492 0.0
C1825 C 0.22649 0.8775 0.34164 0.0
C1826 C 0.15822 0.81957 0.40224 0.0
C1827 C 0.18483 0.84533 0.35806 0.0
C1828 C 0.13724 0.80388 0.41052 0.0
C1829 C 0.12139 0.796 0.38398 0.0
C1830 C 0.16328 0.82742 0.36716 0.0
C1831 C 0.12741 0.80317 0.34878 0.0
C1832 C 0.18989 0.85322 0.32299 0.0
C1833 C 0.22049 0.87012 0.37675 0.0
N1834 N 0.14788 0.8187 0.34144 0.0
N1835 N 0.20012 0.85426 0.3839 0.0
H1836 H 0.71046 0.82588 0.93409 0.0
H1837 H 0.63706 0.84908 0.80426 0.0
H1838 H 0.66805 0.78048 0.85539 0.0
H1839 H 0.68 0.89464 0.88223 0.0
H1840 H 0.64819 0.82385 0.82268 0.0
H1841 H 0.69821 0.85043 0.91727 0.0
C1842 C 0.6982 0.82078 0.91375 0.0
C1843 C 0.69017 0.80092 0.89617 0.0
C1844 C 0.6553 0.8394 0.83565 0.0
C1845 C 0.67659 0.82953 0.87603 0.0
C1846 C 0.64917 0.85402 0.82483 0.0
C1847 C 0.65779 0.87419 0.84156 0.0
C1848 C 0.67011 0.84488 0.8635 0.0
C1849 C 0.67293 0.87926 0.86878 0.0
C1850 C 0.69142 0.83504 0.90384 0.0
C1851 C 0.67475 0.79566 0.86938 0.0
N1852 N 0.6786 0.86465 0.87899 0.0
N1853 N 0.66851 0.80997 0.85996 0.0
H1854 H 0.13379 0.79739 0.78733 0.0
H1855 H 0.21166 0.87947 0.93511 0.0
H1856 H 0.13375 0.78038 0.8978 0.0
H1857 H 0.2113 0.89676 0.82492 0.0
H1858 H 0.18316 0.84284 0.92186 0.0
H1859 H 0.16104 0.83447 0.80109 0.0
C1860 C 0.13927 0.80163 0.81461 0.0
C1861 C 0.13171 0.78588 0.84141 0.0
C1862 C 0.18943 0.85459 0.9005 0.0
C1863 C 0.16301 0.82793 0.85727 0.0
C1864 C 0.20576 0.87539 0.90801 0.0
C1865 C 0.21373 0.89108 0.8811 0.0
C1866 C 0.18103 0.84951 0.86579 0.0
C1867 C 0.20574 0.88508 0.84634 0.0
C1868 C 0.15489 0.82269 0.82242 0.0
C1869 C 0.13908 0.79208 0.87641 0.0
N1870 N 0.18966 0.86476 0.83973 0.0
N1871 N 0.15456 0.81263 0.88327 0.0
H1872 H 0.13257 0.33806 0.93872 0.0
H1873 H 0.21474 0.34242 0.79055 0.0
H1874 H 0.1154 0.3203 0.82862 0.0
H1875 H 0.23195 0.36024 0.90063 0.0
H1876 H 0.17797 0.33384 0.80406 0.0
H1877 H 0.1697 0.34811 0.92468 0.0
C1878 C 0.13679 0.33672 0.91145 0.0
C1879 C 0.12099 0.32822 0.88485 0.0
C1880 C 0.18974 0.33945 0.82535 0.0
C1881 C 0.16306 0.33916 0.86868 0.0
C1882 C 0.2106 0.34414 0.81769 0.0
C1883 C 0.2263 0.35208 0.84449 0.0
C1884 C 0.18463 0.34278 0.86007 0.0
C1885 C 0.22025 0.35396 0.8793 0.0
C1886 C 0.15787 0.34226 0.90348 0.0
C1887 C 0.12715 0.3269 0.84984 0.0
N1888 N 0.19988 0.34953 0.88605 0.0
N1889 N 0.14771 0.33206 0.84283 0.0
H1890 H 0.78347 0.66188 0.70304 0.0
H1891 H 0.90072 0.67636 0.67844 0.0
H1892 H 0.83134 0.70669 0.62931 0.0
H1893 H 0.85245 0.63084 0.75082 0.0
H1894 H 0.87489 0.68693 0.65815 0.0
H1895 H 0.80791 0.64867 0.71863 0.0
C1896 C 0.79897 0.66871 0.68987 0.0
C1897 C 0.80534 0.68537 0.66496 0.0
C1898 C 0.87005 0.6747 0.67862 0.0
C1899 C 0.83335 0.67066 0.68264 0.0
C1900 C 0.88479 0.66878 0.6902 0.0
C1901 C 0.87885 0.65303 0.71666 0.0
C1902 C 0.84928 0.66466 0.69362 0.0
C1903 C 0.85798 0.64351 0.73109 0.0
C1904 C 0.81291 0.66124 0.69872 0.0
C1905 C 0.82553 0.69362 0.6483 0.0
N1906 N 0.84395 0.64949 0.71934 0.0
N1907 N 0.83889 0.68629 0.6577 0.0
H1908 H 0.30159 0.12138 0.63833 0.0
H1909 H 0.37613 0.21781 0.76713 0.0
H1910 H 0.34532 0.11873 0.71462 0.0
H1911 H 0.33533 0.22177 0.68625 0.0
H1912 H 0.36201 0.18032 0.75277 0.0
H1913 H 0.31198 0.15725 0.65833 0.0
C1914 C 0.31372 0.12847 0.65888 0.0
C1915 C 0.32293 0.11715 0.67446 0.0
C1916 C 0.35597 0.1893 0.73837 0.0
C1917 C 0.33441 0.15818 0.69822 0.0
C1918 C 0.36384 0.21075 0.74684 0.0
C1919 C 0.35694 0.22305 0.72768 0.0
C1920 C 0.34122 0.1801 0.71044 0.0
C1921 C 0.34128 0.21293 0.70124 0.0
C1922 C 0.31941 0.14892 0.67063 0.0
C1923 C 0.33794 0.12698 0.7019 0.0
N1924 N 0.33405 0.19202 0.69314 0.0
N1925 N 0.34329 0.14704 0.71292 0.0
H1926 H 0.89485 0.23309 0.70757 0.0
H1927 H 0.7922 0.11597 0.67997 0.0
H1928 H 0.89208 0.18636 0.63189 0.0
H1929 H 0.79495 0.16272 0.75557 0.0
H1930 H 0.82898 0.14185 0.66127 0.0
H1931 H 0.85757 0.20778 0.72451 0.0
C1932 C 0.88634 0.21765 0.69431 0.0
C1933 C 0.89656 0.21192 0.66826 0.0
C1934 C 0.82151 0.14632 0.68213 0.0
C1935 C 0.85425 0.18291 0.68749 0.0
C1936 C 0.8006 0.13156 0.69279 0.0
C1937 C 0.79058 0.13707 0.71952 0.0
C1938 C 0.8323 0.16672 0.69829 0.0
C1939 C 0.80212 0.15749 0.73542 0.0
C1940 C 0.86514 0.20321 0.70395 0.0
C1941 C 0.88483 0.19173 0.65165 0.0
N1942 N 0.82234 0.17159 0.72446 0.0
N1943 N 0.86434 0.17792 0.66173 0.0
H1944 H 0.01456 0.56404 0.54958 0.0
H1945 H 0.99942 0.44664 0.52366 0.0
H1946 H 0.97015 0.517 0.47484 0.0
H1947 H 0.04255 0.49324 0.60027 0.0
H1948 H 0.98713 0.47169 0.50697 0.0
H1949 H 0.02464 0.53782 0.56957 0.0
C1950 C 1.00711 0.54831 0.53722 0.0
C1951 C 0.99171 0.54283 0.51033 0.0
C1952 C 0.99912 0.47626 0.52773 0.0
C1953 C 1.00284 0.51277 0.53306 0.0
C1954 C 1.00607 0.46197 0.53724 0.0
C1955 C 0.02201 0.4678 0.56329 0.0
C1956 C 1.00833 0.4965 0.54433 0.0
C1957 C 0.03002 0.4878 0.58039 0.0
C1958 C 0.01276 0.53334 0.54865 0.0
C1959 C 0.98246 0.5222 0.49507 0.0
N1960 N 0.02322 0.50149 0.57037 0.0
N1961 N 0.98815 0.50792 0.50672 0.0
H1962 H 0.51302 0.55394 0.58696 0.0
H1963 H 0.48968 0.45885 0.45406 0.0
H1964 H 0.55922 0.55572 0.51085 0.0
H1965 H 0.44689 0.4526 0.54056 0.0
H1966 H 0.51248 0.49624 0.46868 0.0
H1967 H 0.48698 0.5183 0.56636 0.0
C1968 C 0.51789 0.54673 0.56631 0.0
C1969 C 0.53853 0.55774 0.5509 0.0
C1970 C 0.49801 0.48676 0.48429 0.0
C1971 C 0.50838 0.51709 0.52649 0.0
C1972 C 0.48469 0.46531 0.47569 0.0
C1973 C 0.46631 0.45231 0.49645 0.0
C1974 C 0.49306 0.49533 0.51393 0.0
C1975 C 0.46111 0.4619 0.52437 0.0
C1976 C 0.50283 0.52644 0.55425 0.0
C1977 C 0.54351 0.54777 0.52339 0.0
N1978 N 0.4746 0.48286 0.53261 0.0
N1979 N 0.5285 0.52792 0.51204 0.0
H1980 H 0.55773 0.03845 0.45994 0.0
H1981 H 0.46031 0.9662 0.58961 0.0
H1982 H 0.56046 0.9972 0.54144 0.0
H1983 H 0.45838 0.00875 0.50991 0.0
H1984 H 0.49656 0.97666 0.57135 0.0
H1985 H 0.52063 0.02578 0.47518 0.0
C1986 C 0.55048 0.02634 0.48056 0.0
C1987 C 0.56234 0.01882 0.49947 0.0
C1988 C 0.4883 0.98382 0.55794 0.0
C1989 C 0.51974 1.00477 0.51777 0.0
C1990 C 0.46761 0.97808 0.56867 0.0
C1991 C 0.45632 0.98684 0.55148 0.0
C1992 C 0.49782 0.9984 0.52975 0.0
C1993 C 0.46652 1.00163 0.52376 0.0
C1994 C 0.52924 0.01932 0.48955 0.0
C1995 C 0.55197 1.00354 0.52648 0.0
N1996 N 0.48677 0.00696 0.5137 0.0
N1997 N 0.53123 0.99709 0.53503 0.0
H1998 H 0.52663 0.9785 0.10893 0.0
H1999 H 0.50271 0.04952 0.97553 0.0
H2000 H 0.5702 0.01692 1.02447 0.0
H2001 H 0.45627 1.00426 0.05051 0.0
H2002 H 0.52926 0.04113 0.9977 0.0
H2003 H 0.50358 0.99284 0.09452 0.0
C2004 C 0.53175 0.99034 0.08783 0.0
C2005 C 0.55037 0.99626 0.06742 0.0
C2006 C 0.51325 0.03295 1.00924 0.0
C2007 C 0.52335 0.01219 0.05017 0.0
C2008 C 0.4979 0.03748 0.99623 0.0
C2009 C 0.47703 0.02724 1.01083 0.0
C2010 C 0.50777 0.01811 0.03708 0.0
C2011 C 0.47213 0.0124 0.03852 0.0
C2012 C 0.51829 0.99832 0.07935 0.0
C2013 C 0.55576 0.01154 0.04027 0.0
N2014 N 0.48743 0.00822 0.05076 0.0
N2015 N 0.54211 0.0188 0.03206 0.0
H2016 H 0.01448 0.45421 0.05036 0.0
H2017 H 1.00011 0.55678 1.0209 0.0
H2018 H 0.97083 0.45688 0.97393 0.0
H2019 H 0.04357 0.55393 0.09756 0.0
H2020 H 0.98811 0.51946 1.00447 0.0
H2021 H 0.02513 0.49091 0.06884 0.0
C2022 C 1.00731 0.46258 0.03732 0.0
C2023 C 0.99195 0.45256 1.01042 0.0
C2024 C 1.00013 0.52702 1.02514 0.0
C2025 C 1.00375 0.49419 0.03139 0.0
C2026 C 1.00691 0.54824 0.03451 0.0
C2027 C 0.02276 0.55847 0.06065 0.0
C2028 C 1.00942 0.51612 0.04199 0.0
C2029 C 0.03104 0.5467 0.0777 0.0
C2030 C 0.01331 0.48344 0.04786 0.0
C2031 C 0.98309 0.46405 0.99423 0.0
N2032 N 0.02436 0.5262 0.06788 0.0
N2033 N 0.98909 0.48424 1.00506 0.0
H2034 H 0.45812 0.44794 1.01711 0.0
H2035 H 0.56109 0.56506 0.043 0.0
H2036 H 0.46112 0.49518 0.09187 0.0
H2037 H 0.55784 0.51795 0.96768 0.0
H2038 H 0.524 0.53973 0.06096 0.0
H2039 H 0.49504 0.47346 0.99865 0.0
C2040 C 0.4666 0.46356 1.02981 0.0
C2041 C 0.45658 0.46933 0.05616 0.0
C2042 C 0.53143 0.53507 0.04028 0.0
C2043 C 0.4985 0.49859 0.0352 0.0
C2044 C 0.55252 0.54952 1.03005 0.0
C2045 C 0.56254 0.54371 1.00375 0.0
C2046 C 0.52044 0.51468 1.02414 0.0
C2047 C 0.55074 0.52339 0.98759 0.0
C2048 C 0.4876 0.47812 1.01929 0.0
C2049 C 0.46826 0.48977 0.07196 0.0
N2050 N 0.53035 0.50958 0.9982 0.0
N2051 N 0.48857 0.50368 0.06112 0.0
H2052 H 0.32632 0.25975 0.04795 0.0
H2053 H 0.35845 0.27131 0.84107 0.0
H2054 H 0.27909 0.23558 0.96365 0.0
H2055 H 0.40519 0.30252 0.92479 0.0
H2056 H 0.32969 0.25794 0.88516 0.0
H2057 H 0.35492 0.27491 1.00361 0.0
C2058 C 0.32182 0.25756 1.02002 0.0
C2059 C 0.29993 0.24611 1.00985 0.0
C2060 C 0.34617 0.26772 0.89406 0.0
C2061 C 0.33338 0.26379 0.95815 0.0
C2062 C 0.36281 0.27543 0.8688 0.0
C2063 C 0.38461 0.28815 0.87892 0.0
C2064 C 0.351 0.27248 0.9303 0.0
C2065 C 0.3888 0.29283 0.91547 0.0
C2066 C 0.33836 0.26637 0.99461 0.0
C2067 C 0.29555 0.24419 0.97302 0.0
N2068 N 0.37221 0.28493 0.93973 0.0
N2069 N 0.31207 0.25279 0.94862 0.0
H2070 H 0.76016 0.07431 0.05189 0.0
H2071 H 0.74368 0.08815 0.8441 0.0
H2072 H 0.77728 0.04386 0.96895 0.0
H2073 H 0.71674 0.10899 0.92751 0.0
H2074 H 0.75687 0.07302 0.88897 0.0
H2075 H 0.74538 0.08785 1.00705 0.0
C2076 C 0.76088 0.0704 1.02418 0.0
C2077 C 0.77021 0.05784 1.0145 0.0
C2078 C 0.74806 0.08084 0.89763 0.0
C2079 C 0.75302 0.07371 0.96225 0.0
C2080 C 0.74048 0.08963 0.87192 0.0
C2081 C 0.729 0.10009 0.88172 0.0
C2082 C 0.74445 0.08249 0.93399 0.0
C2083 C 0.72545 0.10117 0.91842 0.0
C2084 C 0.75229 0.07819 0.99849 0.0
C2085 C 0.77035 0.05342 0.97793 0.0
N2086 N 0.73322 0.09263 0.94309 0.0
N2087 N 0.76203 0.06142 0.95325 0.0
H2088 H 0.92865 0.65668 0.84287 0.0
H2089 H 0.94348 0.68846 0.04999 0.0
H2090 H 0.90785 0.60953 0.92739 0.0
H2091 H 0.97118 0.7356 0.96563 0.0
H2092 H 0.93002 0.65983 1.00583 0.0
H2093 H 0.94357 0.68531 0.88703 0.0
C2094 C 0.92716 0.65221 0.87079 0.0
C2095 C 0.91675 0.63034 0.88111 0.0
C2096 C 0.93905 0.67638 0.9968 0.0
C2097 C 0.93413 0.66378 0.93257 0.0
C2098 C 0.9468 0.69293 1.0221 0.0
C2099 C 0.95858 0.7148 1.01183 0.0
C2100 C 0.94281 0.68135 0.96037 0.0
C2101 C 0.96224 0.71915 0.97506 0.0
C2102 C 0.93582 0.66877 0.8961 0.0
C2103 C 0.91563 0.62598 0.91792 0.0
N2104 N 0.95433 0.70264 0.95078 0.0
N2105 N 0.92409 0.6425 0.9422 0.0
H2106 H 0.26488 0.32433 0.51114 0.0
H2107 H 0.27109 0.35335 0.71888 0.0
H2108 H 0.2388 0.27593 0.59378 0.0
H2109 H 0.30517 0.4013 0.63767 0.0
H2110 H 0.25865 0.32532 0.67371 0.0
H2111 H 0.27893 0.35231 0.55655 0.0
C2112 C 0.26206 0.31945 0.53891 0.0
C2113 C 0.25042 0.29744 0.54831 0.0
C2114 C 0.26886 0.34192 0.66559 0.0
C2115 C 0.26674 0.33011 0.60122 0.0
C2116 C 0.27602 0.35814 0.69147 0.0
C2117 C 0.2893 0.38006 0.68241 0.0
C2118 C 0.27472 0.34729 0.62974 0.0
C2119 C 0.29501 0.3848 0.6462 0.0
C2120 C 0.27022 0.33563 0.56494 0.0
C2121 C 0.24761 0.29253 0.58499 0.0
N2122 N 0.28764 0.36862 0.62131 0.0
N2123 N 0.25557 0.30868 0.60996 0.0
H2124 H 0.61297 0.90662 0.63535 0.0
H2125 H 0.74141 0.96745 0.5966 0.0
H2126 H 0.66067 0.92198 0.71732 0.0
H2127 H 0.69308 0.9443 0.51406 0.0
H2128 H 0.71231 0.95314 0.64167 0.0
H2129 H 0.64221 0.92238 0.59071 0.0
C2130 C 0.62948 0.91326 0.64405 0.0
C2131 C 0.63412 0.91277 0.68037 0.0
C2132 C 0.70813 0.95126 0.61363 0.0
C2133 C 0.66793 0.9311 0.62925 0.0
C2134 C 0.72481 0.95952 0.58788 0.0
C2135 C 0.71991 0.95711 0.55124 0.0
C2136 C 0.68633 0.94063 0.60283 0.0
C2137 C 0.69788 0.94655 0.54183 0.0
C2138 C 0.64624 0.92229 0.61853 0.0
C2139 C 0.65605 0.92178 0.68976 0.0
N2140 N 0.68211 0.9388 0.56719 0.0
N2141 N 0.67195 0.9305 0.66462 0.0
H2142 H 0.04728 0.77576 0.59217 0.0
H2143 H 0.11218 0.7126 0.6337 0.0
H2144 H 0.07656 0.75612 0.51088 0.0
H2145 H 0.09127 0.74059 0.71523 0.0
H2146 H 0.09715 0.72628 0.58821 0.0
H2147 H 0.06111 0.7609 0.63777 0.0
C2148 C 0.05652 0.76835 0.58381 0.0
C2149 C 0.06073 0.7674 0.54738 0.0
C2150 C 0.09585 0.72939 0.61612 0.0
C2151 C 0.0766 0.75013 0.5996 0.0
C2152 C 0.10445 0.72152 0.64213 0.0
C2153 C 0.1032 0.72542 0.6786 0.0
C2154 C 0.08572 0.74112 0.62648 0.0
C2155 C 0.09285 0.73716 0.68761 0.0
C2156 C 0.06447 0.75985 0.60988 0.0
C2157 C 0.07287 0.75746 0.53847 0.0
N2158 N 0.08459 0.74449 0.66199 0.0
N2159 N 0.08027 0.74929 0.56413 0.0
H2160 H 0.61208 0.70912 0.138 0.0
H2161 H 0.74039 0.77651 0.09842 0.0
H2162 H 0.65993 0.74194 0.21955 0.0
H2163 H 0.69192 0.75283 1.0161 0.0
H2164 H 0.71138 0.76163 0.14362 0.0
H2165 H 0.64121 0.72265 0.09314 0.0
C2166 C 0.6286 0.71908 0.14656 0.0
C2167 C 0.63332 0.72437 0.18282 0.0
C2168 C 0.70714 0.75969 0.1156 0.0
C2169 C 0.66699 0.7399 0.13146 0.0
C2170 C 0.72377 0.76817 0.08976 0.0
C2171 C 0.71882 0.76613 0.05316 0.0
C2172 C 0.68532 0.74885 0.1049 0.0
C2173 C 0.69677 0.75505 0.04384 0.0
C2174 C 0.6453 0.72686 0.12092 0.0
C2175 C 0.65526 0.73742 0.19204 0.0
N2176 N 0.68103 0.74691 0.06928 0.0
N2177 N 0.67109 0.74462 0.16679 0.0
H2178 H 0.26033 0.93751 1.00697 0.0
H2179 H 0.27475 0.92403 0.21581 0.0
H2180 H 0.24213 0.96781 0.08856 0.0
H2181 H 0.30321 0.90367 0.13426 0.0
H2182 H 0.26198 0.93899 0.16996 0.0
H2183 H 0.27495 0.92428 0.0527 0.0
C2184 C 0.25934 0.94145 0.03456 0.0
C2185 C 0.24975 0.95389 0.04357 0.0
C2186 C 0.27104 0.93133 0.16191 0.0
C2187 C 0.26675 0.93837 0.09689 0.0
C2188 C 0.27838 0.92263 0.18819 0.0
C2189 C 0.29015 0.91233 0.17925 0.0
C2190 C 0.27516 0.92974 0.12576 0.0
C2191 C 0.29427 0.91136 0.14273 0.0
C2192 C 0.26784 0.93385 0.06077 0.0
C2193 C 0.24927 0.95836 0.08004 0.0
N2194 N 0.28669 0.91979 0.11747 0.0
N2195 N 0.25749 0.95053 0.10522 0.0
H2196 H 0.11142 0.40302 0.13317 0.0
H2197 H 0.04795 0.2748 0.0931 0.0
H2198 H 0.09154 0.35446 0.2152 0.0
H2199 H 0.07584 0.32354 1.01117 0.0
H2200 H 0.06169 0.30364 0.13839 0.0
H2201 H 0.09646 0.37414 0.08801 0.0
C2202 C 0.10392 0.3864 0.14177 0.0
C2203 C 0.10294 0.3814 0.17828 0.0
C2204 C 0.06476 0.30797 0.11043 0.0
C2205 C 0.08555 0.34803 0.12655 0.0
C2206 C 0.05685 0.29145 0.08454 0.0
C2207 C 0.06071 0.29651 0.04803 0.0
C2208 C 0.07649 0.32982 0.09988 0.0
C2209 C 0.07244 0.31859 0.03884 0.0
C2210 C 0.09537 0.36984 0.11595 0.0
C2211 C 0.0929 0.35935 0.18753 0.0
N2212 N 0.0798 0.33423 0.06433 0.0
N2213 N 0.08467 0.34367 0.16209 0.0
H2214 H 0.77704 0.73737 0.46761 0.0
H2215 H 0.71449 0.60902 0.42812 0.0
H2216 H 0.7594 0.68895 0.54934 0.0
H2217 H 0.74095 0.65758 0.34576 0.0
H2218 H 0.72826 0.63798 0.47321 0.0
H2219 H 0.76147 0.70839 0.42257 0.0
C2220 C 0.76991 0.72077 0.47618 0.0
C2221 C 0.76977 0.71585 0.51255 0.0
C2222 C 0.73099 0.64225 0.4452 0.0
C2223 C 0.75167 0.68237 0.46101 0.0
C2224 C 0.72304 0.62564 0.41943 0.0
C2225 C 0.72655 0.63063 0.38285 0.0
C2226 C 0.74239 0.66408 0.43446 0.0
C2227 C 0.73787 0.6527 0.37349 0.0
C2228 C 0.76101 0.70416 0.45044 0.0
C2229 C 0.76015 0.69381 0.52176 0.0
N2230 N 0.74528 0.66841 0.39886 0.0
N2231 N 0.75158 0.67809 0.49644 0.0
H2232 H 0.32731 0.07038 0.5471 0.0
H2233 H 0.35895 0.09293 0.34006 0.0
H2234 H 0.27989 0.04706 0.46313 0.0
H2235 H 0.40566 0.10572 0.42272 0.0
H2236 H 0.33029 0.07747 0.3845 0.0
H2237 H 0.35584 0.0843 0.50242 0.0
C2238 C 0.32277 0.06812 0.51919 0.0
C2239 C 0.30088 0.05745 0.50917 0.0
C2240 C 0.34675 0.0836 0.39307 0.0
C2241 C 0.33415 0.07377 0.45715 0.0
C2242 C 0.36332 0.09258 0.36763 0.0
C2243 C 0.38506 0.10086 0.37737 0.0
C2244 C 0.35165 0.08287 0.42909 0.0
C2245 C 0.3893 0.09965 0.4137 0.0
C2246 C 0.33925 0.07612 0.4936 0.0
C2247 C 0.29639 0.05509 0.47237 0.0
N2248 N 0.37282 0.09096 0.43814 0.0
N2249 N 0.31282 0.06328 0.44782 0.0
H2250 H 0.97303 0.23942 0.46521 0.0
H2251 H 0.90683 0.30177 0.42817 0.0
H2252 H 0.94347 0.25769 0.54811 0.0
H2253 H 0.92888 0.27583 0.34495 0.0
H2254 H 0.92217 0.28786 0.47273 0.0
H2255 H 0.95902 0.25469 0.42068 0.0
C2256 C 0.96369 0.24662 0.47414 0.0
C2257 C 0.95946 0.24707 0.51069 0.0
C2258 C 0.92366 0.28526 0.44465 0.0
C2259 C 0.94338 0.26479 0.45973 0.0
C2260 C 0.9149 0.29327 0.41918 0.0
C2261 C 0.91636 0.28999 0.38253 0.0
C2262 C 0.93415 0.27401 0.43352 0.0
C2263 C 0.92712 0.27876 0.37276 0.0
C2264 C 0.95564 0.25535 0.44869 0.0
C2265 C 0.94718 0.25674 0.52038 0.0
N2266 N 0.93551 0.27128 0.39785 0.0
N2267 N 0.93969 0.26514 0.49531 0.0
H2268 H 0.07361 0.63415 0.26235 0.0
H2269 H 0.94525 0.57135 0.30196 0.0
H2270 H 0.02512 0.60677 0.18024 0.0
H2271 H 0.99352 0.59051 0.38407 0.0
H2272 H 0.97429 0.58637 0.25688 0.0
H2273 H 0.04461 0.62047 0.30752 0.0
C2274 C 0.05699 0.62537 0.25373 0.0
C2275 C 0.05203 0.62163 0.21721 0.0
C2276 C 0.97848 0.58728 0.28483 0.0
C2277 C 0.01855 0.60593 0.26891 0.0
C2278 C 0.96184 0.5787 0.3106 0.0
C2279 C 0.96671 0.57946 0.34709 0.0
C2280 C 1.00026 0.59689 0.29549 0.0
C2281 C 0.98873 0.58932 0.3564 0.0
C2282 C 0.04037 0.6175 0.27955 0.0
C2283 C 0.02998 0.61006 0.20793 0.0
N2284 N 1.00449 0.59757 0.33103 0.0
N2285 N 0.01425 0.60274 0.23335 0.0
H2286 H 0.44734 0.37876 0.29971 0.0
H2287 H 0.37916 0.43897 0.26205 0.0
H2288 H 0.42175 0.40132 0.38272 0.0
H2289 H 0.41146 0.42359 0.17978 0.0
H2290 H 0.39278 0.42334 0.30655 0.0
H2291 H 0.43237 0.39295 0.25494 0.0
C2292 C 0.43854 0.38654 0.30859 0.0
C2293 C 0.436 0.38883 0.34525 0.0
C2294 C 0.39685 0.4234 0.27869 0.0
C2295 C 0.41869 0.40517 0.29405 0.0
C2296 C 0.38904 0.43235 0.25326 0.0
C2297 C 0.39413 0.43279 0.2169 0.0
C2298 C 0.40975 0.41463 0.26781 0.0
C2299 C 0.40706 0.42382 0.20737 0.0
C2300 C 0.43002 0.39473 0.28302 0.0
C2301 C 0.42436 0.39919 0.35491 0.0
N2302 N 0.41432 0.41518 0.23242 0.0
N2303 N 0.41624 0.40688 0.32972 0.0
H2304 H 0.63733 0.07029 0.29952 0.0
H2305 H 0.57538 0.94185 0.26119 0.0
H2306 H 0.61219 0.02198 0.38238 0.0
H2307 H 0.59227 0.98993 0.17909 0.0
H2308 H 0.591 0.97098 0.30593 0.0
H2309 H 0.62325 0.0412 0.25468 0.0
C2310 C 0.62898 0.05369 0.30837 0.0
C2311 C 0.62597 0.04882 0.34502 0.0
C2312 C 0.59129 0.97511 0.27805 0.0
C2313 C 0.60979 0.01521 0.29368 0.0
C2314 C 0.58236 0.95841 0.25247 0.0
C2315 C 0.58229 0.9632 0.21609 0.0
C2316 C 0.60043 0.99685 0.2673 0.0
C2317 C 0.59171 0.98518 0.20668 0.0
C2318 C 0.62087 0.03701 0.28274 0.0
C2319 C 0.61491 0.02678 0.35459 0.0
N2320 N 0.60031 1.00099 0.23186 0.0
N2321 N 0.60733 0.01099 0.32935 0.0
H2322 H 0.41009 0.9915 0.67549 0.0
H2323 H 0.42728 0.02281 0.88278 0.0
H2324 H 0.38282 0.94434 0.75987 0.0
H2325 H 0.44558 0.07028 0.79925 0.0
H2326 H 0.41209 0.99439 0.83832 0.0
H2327 H 0.42388 0.02014 0.71981 0.0
C2328 C 0.40694 0.98703 0.7034 0.0
C2329 C 0.39519 0.96517 0.71365 0.0
C2330 C 0.41935 0.01096 0.82952 0.0
C2331 C 0.41133 0.99857 0.76524 0.0
C2332 C 0.42819 0.0274 0.85501 0.0
C2333 C 0.43797 0.0493 0.84508 0.0
C2334 C 0.42025 0.01607 0.79321 0.0
C2335 C 0.43831 0.05379 0.80843 0.0
C2336 C 0.41487 1.00359 0.72878 0.0
C2337 C 0.39173 0.9608 0.75044 0.0
N2338 N 0.42971 0.03738 0.78393 0.0
N2339 N 0.39983 0.97729 0.77477 0.0
H2340 H 0.0754 0.44512 0.76295 0.0
H2341 H 0.94709 0.3777 0.80291 0.0
H2342 H 0.02655 0.42241 0.68126 0.0
H2343 H 0.99508 0.40777 0.88518 0.0
H2344 H 0.97618 0.39201 0.758 0.0
H2345 H 0.04653 0.42968 0.80844 0.0
C2346 C 0.05874 0.43691 0.75448 0.0
C2347 C 0.05364 0.43529 0.71796 0.0
C2348 C 0.98032 0.39545 0.78594 0.0
C2349 C 0.02034 0.41737 0.77001 0.0
C2350 C 0.96364 0.38722 0.81162 0.0
C2351 C 0.96841 0.39149 0.8481 0.0
C2352 C 1.00206 0.40796 0.79665 0.0
C2353 C 0.99038 0.40402 0.8575 0.0
C2354 C 0.0422 0.42809 0.78048 0.0
C2355 C 0.03155 0.42433 0.7089 0.0
N2356 N 1.00621 0.4117 0.83219 0.0
N2357 N 0.01592 0.41588 0.73447 0.0
H2358 H 0.57546 0.63593 0.76037 0.0
H2359 H 0.63607 0.56825 0.79865 0.0
H2360 H 0.58925 0.60213 0.67871 0.0
H2361 H 0.61202 0.59242 0.88156 0.0
H2362 H 0.62171 0.583 0.75379 0.0
H2363 H 0.59131 0.62256 0.8049 0.0
C2364 C 0.58179 0.62578 0.75172 0.0
C2365 C 0.58079 0.62016 0.71554 0.0
C2366 C 0.61963 0.58508 0.78187 0.0
C2367 C 0.59925 0.60485 0.76649 0.0
C2368 C 0.62791 0.57668 0.8075 0.0
C2369 C 0.62526 0.57888 0.84416 0.0
C2370 C 0.60878 0.59601 0.79283 0.0
C2371 C 0.61443 0.59007 0.85375 0.0
C2372 C 0.59086 0.6181 0.77718 0.0
C2373 C 0.58941 0.6069 0.70618 0.0
N2374 N 0.6067 0.59813 0.8285 0.0
N2375 N 0.59822 0.59981 0.73124 0.0
H2376 H 0.19464 0.23781 0.35188 0.0
H2377 H 0.24037 0.18897 0.20711 0.0
H2378 H 0.22635 0.20238 0.38023 0.0
H2379 H 0.20642 0.2222 0.17891 0.0
H2380 H 0.23116 0.18947 0.2698 0.0
H2381 H 0.19454 0.22812 0.28935 0.0
C2382 C 0.20115 0.2275 0.3451 0.0
C2383 C 0.21042 0.22083 0.37175 0.0
C2384 C 0.22532 0.19631 0.25001 0.0
C2385 C 0.21086 0.21003 0.29907 0.0
C2386 C 0.23045 0.19591 0.21397 0.0
C2387 C 0.22406 0.20542 0.18731 0.0
C2388 C 0.21387 0.20659 0.26014 0.0
C2389 C 0.21145 0.21437 0.19821 0.0
C2390 C 0.20119 0.22208 0.30915 0.0
C2391 C 0.21876 0.20768 0.36094 0.0
N2392 N 0.20705 0.21499 0.2337 0.0
N2393 N 0.21904 0.20298 0.32551 0.0
H2394 H 0.82765 0.05267 0.20808 0.0
H2395 H 0.77949 0.95937 0.35543 0.0
H2396 H 0.79273 0.98524 0.18173 0.0
H2397 H 0.8148 0.0268 0.38179 0.0
H2398 H 0.78871 0.96837 0.29256 0.0
H2399 H 0.82771 0.04344 0.27086 0.0
C2400 C 0.82046 0.03584 0.21536 0.0
C2401 C 0.8103 0.01973 0.18921 0.0
C2402 C 0.79482 0.98125 0.31199 0.0
C2403 C 0.80978 0.00893 0.26216 0.0
C2404 C 0.78969 0.97613 0.34813 0.0
C2405 C 0.79646 0.99233 0.37433 0.0
C2406 C 0.8067 1.00287 0.30126 0.0
C2407 C 0.80945 0.01372 0.36287 0.0
C2408 C 0.82037 0.03059 0.25144 0.0
C2409 C 0.80105 0.99823 0.20062 0.0
N2410 N 0.81388 0.01836 0.32726 0.0
N2411 N 0.80077 0.99349 0.23618 0.0
H2412 H 0.03173 0.81153 0.17496 0.0
H2413 H 0.9899 0.79204 0.37921 0.0
H2414 H 0.96478 0.77812 0.20528 0.0
H2415 H 0.05656 0.82042 0.34859 0.0
H2416 H 0.98062 0.79271 0.31599 0.0
H2417 H 0.04142 0.82095 0.23816 0.0
C2418 C 0.01906 0.80679 0.19463 0.0
C2419 C 0.9974 0.79408 0.18458 0.0
C2420 C 0.99734 0.79917 0.32321 0.0
C2421 C 1.00833 0.80432 0.25737 0.0
C2422 C 1.00264 0.799 0.35945 0.0
C2423 C 0.02405 0.8062 0.36944 0.0
C2424 C 0.01355 0.80665 0.29668 0.0
C2425 C 0.03982 0.81464 0.34228 0.0
C2426 C 0.02457 0.81192 0.23089 0.0
C2427 C 0.9817 0.78797 0.21166 0.0
N2428 N 0.03428 0.81446 0.30742 0.0
N2429 N 0.98744 0.79293 0.24655 0.0
H2430 H 0.79408 0.81032 0.68059 0.0
H2431 H 0.81355 0.78938 0.88571 0.0
H2432 H 0.82349 0.77317 0.71197 0.0
H2433 H 0.77769 0.82013 0.85423 0.0
H2434 H 0.82314 0.789 0.82253 0.0
H2435 H 0.79367 0.81974 0.74379 0.0
C2436 C 0.801 0.80464 0.70052 0.0
C2437 C 0.80885 0.79093 0.69068 0.0
C2438 C 0.8135 0.7962 0.82954 0.0
C2439 C 0.8081 0.80132 0.7635 0.0
C2440 C 0.80826 0.79665 0.86577 0.0
C2441 C 0.79485 0.80487 0.87554 0.0
C2442 C 0.80536 0.8041 0.80277 0.0
C2443 C 0.78807 0.81362 0.84811 0.0
C2444 C 0.80056 0.80982 0.73676 0.0
C2445 C 0.81722 0.78375 0.71811 0.0
N2446 N 0.79322 0.81286 0.81327 0.0
N2447 N 0.81648 0.78885 0.75297 0.0
H2448 H 0.19356 0.95791 0.84851 0.0
H2449 H 0.23647 0.05133 0.70158 0.0
H2450 H 0.22508 0.02527 0.87522 0.0
H2451 H 0.20535 0.98397 0.67513 0.0
H2452 H 0.2274 0.04194 0.76442 0.0
H2453 H 0.19275 0.9669 0.78586 0.0
C2454 C 0.19987 0.97464 0.84134 0.0
C2455 C 0.20932 0.99083 0.86755 0.0
C2456 C 0.22212 0.02913 0.74497 0.0
C2457 C 0.20891 1.00138 0.79473 0.0
C2458 C 0.22712 0.03447 0.70885 0.0
C2459 C 0.2215 0.01843 0.68266 0.0
C2460 C 0.21156 0.00747 0.75565 0.0
C2461 C 0.2097 0.9969 0.69405 0.0
C2462 C 0.19951 0.97977 0.80532 0.0
C2463 C 0.21737 0.0122 0.85627 0.0
N2464 N 0.20541 0.99208 0.72963 0.0
N2465 N 0.21724 0.01685 0.82076 0.0
H2466 H 0.03137 0.22329 0.67691 0.0
H2467 H 0.98932 0.20124 0.88111 0.0
H2468 H 0.96447 0.19196 0.70726 0.0
H2469 H 0.05623 0.23725 0.85092 0.0
H2470 H 0.9799 0.19198 0.81777 0.0
H2471 H 0.04083 0.22289 0.7401 0.0
C2472 C 0.01864 0.21573 0.69658 0.0
C2473 C 0.99708 0.2076 0.68654 0.0
C2474 C 0.9967 0.20158 0.8251 0.0
C2475 C 1.00777 0.20748 0.7593 0.0
C2476 C 1.00207 0.20664 0.86142 0.0
C2477 C 0.02361 0.22001 0.87159 0.0
C2478 C 0.01296 0.2099 0.79864 0.0
C2479 C 0.03939 0.22691 0.84448 0.0
C2480 C 0.02403 0.21572 0.73282 0.0
C2481 C 0.98132 0.19844 0.71362 0.0
N2482 N 0.03378 0.22198 0.80953 0.0
N2483 N 0.98695 0.1988 0.74848 0.0
H2484 H 0.89228 0.53349 0.71736 0.0
H2485 H 0.87031 0.55447 0.51408 0.0
H2486 H 0.85877 0.56706 0.68842 0.0
H2487 H 0.90694 0.52415 0.54327 0.0
H2488 H 0.86038 0.55359 0.57741 0.0
H2489 H 0.89226 0.52417 0.65399 0.0
C2490 C 0.88429 0.53828 0.69796 0.0
C2491 C 0.87545 0.55102 0.70845 0.0
C2492 C 0.87026 0.54674 0.56984 0.0
C2493 C 0.87583 0.54092 0.63546 0.0
C2494 C 0.8757 0.54703 0.53352 0.0
C2495 C 0.88945 0.53934 0.52312 0.0
C2496 C 0.87858 0.53869 0.59603 0.0
C2497 C 0.89632 0.5303 0.54992 0.0
C2498 C 0.88451 0.53321 0.6616 0.0
C2499 C 0.86578 0.5572 0.6817 0.0
N2500 N 0.89103 0.53041 0.58486 0.0
N2501 N 0.86641 0.55232 0.6467 0.0
H2502 H 0.49372 0.3869 0.54074 0.0
H2503 H 0.44809 0.2926 0.68596 0.0
H2504 H 0.462 0.31968 0.513 0.0
H2505 H 0.48082 0.35986 0.71363 0.0
H2506 H 0.45777 0.30226 0.62339 0.0
H2507 H 0.49393 0.37748 0.60334 0.0
C2508 C 0.48726 0.37011 0.54769 0.0
C2509 C 0.47791 0.35408 0.52123 0.0
C2510 C 0.46324 0.31497 0.64306 0.0
C2511 C 0.4776 0.34305 0.5939 0.0
C2512 C 0.45784 0.30947 0.67901 0.0
C2513 C 0.46371 0.32542 0.70543 0.0
C2514 C 0.47446 0.3367 0.63281 0.0
C2515 C 0.47616 0.34698 0.69449 0.0
C2516 C 0.48727 0.36474 0.58366 0.0
C2517 C 0.46964 0.33262 0.53218 0.0
N2518 N 0.48083 0.35197 0.65906 0.0
N2519 N 0.46941 0.32774 0.56763 0.0
H2520 H 0.69658 0.14443 0.51206 0.0
H2521 H 0.65592 0.12321 0.71718 0.0
H2522 H 0.63002 0.10684 0.54364 0.0
H2523 H 0.72266 0.15542 0.68572 0.0
H2524 H 0.64594 0.12276 0.65405 0.0
H2525 H 0.70629 0.15429 0.57518 0.0
C2526 C 0.68395 0.13879 0.532 0.0
C2527 C 0.66243 0.12482 0.52228 0.0
C2528 C 0.66281 0.13032 0.66105 0.0
C2529 C 0.67344 0.13566 0.595 0.0
C2530 C 0.6685 0.13081 0.69727 0.0
C2531 C 0.69018 0.13946 0.70702 0.0
C2532 C 0.67889 0.13857 0.63428 0.0
C2533 C 0.70573 0.1486 0.67961 0.0
C2534 C 0.6895 0.1442 0.5682 0.0
C2535 C 0.64684 0.11764 0.54972 0.0
N2536 N 0.69983 0.14776 0.64478 0.0
N2537 N 0.65261 0.12296 0.58453 0.0
H2538 H 0.48261 0.12327 0.21487 0.0
H2539 H 0.46308 0.14601 1.01121 0.0
H2540 H 0.45027 0.15792 0.18535 0.0
H2541 H 0.49281 0.1089 0.04095 0.0
H2542 H 0.46376 0.15587 0.07448 0.0
H2543 H 0.49213 0.12319 0.15159 0.0
C2544 C 0.47815 0.13149 0.19536 0.0
C2545 C 0.4657 0.14069 0.20566 0.0
C2546 C 0.47051 0.14589 0.06705 0.0
C2547 C 0.47601 0.14019 0.13277 0.0
C2548 C 0.47034 0.14048 0.03076 0.0
C2549 C 0.47792 0.12663 1.02052 0.0
C2550 C 0.47834 0.13742 0.09338 0.0
C2551 C 0.48673 0.1196 0.04746 0.0
C2552 C 0.48332 0.13121 0.15906 0.0
C2553 C 0.45991 0.15063 0.17878 0.0
N2554 N 0.48651 0.12486 0.08237 0.0
N2555 N 0.46488 0.14993 0.14383 0.0
H2556 H 0.89111 0.36082 0.2164 0.0
H2557 H 0.8711 0.31824 1.01288 0.0
H2558 H 0.85967 0.29382 0.18719 0.0
H2559 H 0.90584 0.38523 0.04224 0.0
H2560 H 0.86116 0.3089 0.07615 0.0
H2561 H 0.8911 0.37007 0.15297 0.0
C2562 C 0.8836 0.34802 0.19692 0.0
C2563 C 0.87533 0.3265 0.20739 0.0
C2564 C 0.87061 0.32569 0.06863 0.0
C2565 C 0.8757 0.33695 0.13431 0.0
C2566 C 0.87604 0.33101 0.03234 0.0
C2567 C 0.88926 0.35257 1.022 0.0
C2568 C 0.87842 0.34202 0.09488 0.0
C2569 C 0.89561 0.36838 0.04883 0.0
C2570 C 0.88382 0.35329 0.16053 0.0
C2571 C 0.86625 0.31065 0.18052 0.0
N2572 N 0.89035 0.36283 0.08376 0.0
N2573 N 0.86686 0.31616 0.1455 0.0
H2574 H 0.65749 0.5353 0.21548 0.0
H2575 H 0.69752 0.5564 1.01004 0.0
H2576 H 0.7239 0.5736 0.18341 0.0
H2577 H 0.63089 0.52451 0.04212 0.0
H2578 H 0.70771 0.55711 0.07311 0.0
H2579 H 0.64765 0.5255 0.15242 0.0
C2580 C 0.67006 0.54116 0.19543 0.0
C2581 C 0.69157 0.5553 0.20503 0.0
C2582 C 0.69081 0.54957 0.06626 0.0
C2583 C 0.68041 0.54446 0.13237 0.0
C2584 C 0.685 0.54893 1.03009 0.0
C2585 C 0.6633 0.5403 1.02053 0.0
C2586 C 0.67483 0.54146 0.09317 0.0
C2587 C 0.64783 0.53132 0.04809 0.0
C2588 C 0.66444 0.53576 0.15927 0.0
C2589 C 0.70709 0.56269 0.17746 0.0
N2590 N 0.65386 0.53228 0.08287 0.0
N2591 N 0.70124 0.55736 0.14268 0.0
H2592 H 0.57098 0.85529 0.87432 0.0
H2593 H 0.5255 0.90403 1.01971 0.0
H2594 H 0.53842 0.88996 0.84658 0.0
H2595 H 0.55697 0.86829 0.04748 0.0
H2596 H 0.52544 0.8946 0.95705 0.0
H2597 H 0.56138 0.85533 0.93692 0.0
C2598 C 0.56125 0.86243 0.88126 0.0
C2599 C 0.55538 0.87249 0.85478 0.0
C2600 C 0.53203 0.88844 0.97674 0.0
C2601 C 0.54477 0.87316 0.9275 0.0
C2602 C 0.53195 0.8937 1.01276 0.0
C2603 C 0.54115 0.88688 0.03928 0.0
C2604 C 0.54164 0.87637 0.96648 0.0
C2605 C 0.54942 0.8737 1.02829 0.0
C2606 C 0.55592 0.86259 0.91724 0.0
C2607 C 0.54303 0.88171 0.86574 0.0
N2608 N 0.54973 0.86915 0.99279 0.0
N2609 N 0.53842 0.88208 0.90121 0.0
H2610 H 0.11156 0.62581 1.01965 0.0
H2611 H 0.15794 0.72095 0.87598 0.0
H2612 H 0.14592 0.69288 0.04855 0.0
H2613 H 0.12619 0.65393 0.84697 0.0
H2614 H 0.15804 0.71111 0.93838 0.0
H2615 H 0.12106 0.63575 0.9571 0.0
C2616 C 0.12163 0.64269 1.01296 0.0
C2617 C 0.12805 0.6585 0.03974 0.0
C2618 C 0.15139 0.6985 0.91847 0.0
C2619 C 0.13856 0.67013 0.96713 0.0
C2620 C 0.15144 0.70412 0.88261 0.0
C2621 C 0.14214 0.68828 0.85584 0.0
C2622 C 0.14169 0.67674 0.92831 0.0
C2623 C 0.1338 0.66674 0.86638 0.0
C2624 C 0.12692 0.64835 0.97702 0.0
C2625 C 0.14085 0.68009 1.02912 0.0
N2626 N 0.1335 0.66161 0.90174 0.0
N2627 N 0.14541 0.68525 0.9937 0.0
H2628 H 0.38871 0.48902 1.0216 0.0
H2629 H 0.29362 0.44028 0.87832 0.0
H2630 H 0.32159 0.45511 0.05073 0.0
H2631 H 0.36072 0.47563 0.84916 0.0
H2632 H 0.30339 0.44999 0.94075 0.0
H2633 H 0.37875 0.48883 0.9592 0.0
C2634 C 0.37181 0.482 1.015 0.0
C2635 C 0.35599 0.47218 0.04177 0.0
C2636 C 0.31603 0.456 0.92079 0.0
C2637 C 0.34434 0.47137 0.96937 0.0
C2638 C 0.31046 0.45056 0.88492 0.0
C2639 C 0.32635 0.45718 0.85811 0.0
C2640 C 0.33778 0.46802 0.93058 0.0
C2641 C 0.34788 0.47035 0.86863 0.0
C2642 C 0.36614 0.48178 0.97915 0.0
C2643 C 0.33437 0.46315 0.03129 0.0
N2644 N 0.35295 0.47506 0.90399 0.0
N2645 N 0.32921 0.4627 0.99596 0.0
H2646 H 0.1475 0.45884 0.54864 0.0
H2647 H 0.12599 0.47736 0.3433 0.0
H2648 H 0.10981 0.4876 0.51692 0.0
H2649 H 0.15735 0.44212 0.37508 0.0
H2650 H 0.12557 0.48704 0.40636 0.0
H2651 H 0.15689 0.45831 0.4854 0.0
C2652 C 0.1417 0.4656 0.52861 0.0
C2653 C 0.12786 0.47331 0.53837 0.0
C2654 C 0.13291 0.47752 0.39944 0.0
C2655 C 0.13821 0.47241 0.46552 0.0
C2656 C 0.13338 0.47221 0.36327 0.0
C2657 C 0.14178 0.45895 0.35361 0.0
C2658 C 0.14097 0.46959 0.42628 0.0
C2659 C 0.15068 0.45238 0.38109 0.0
C2660 C 0.14686 0.46509 0.49236 0.0
C2661 C 0.12051 0.48146 0.51084 0.0
N2662 N 0.1499 0.45758 0.41588 0.0
N2663 N 0.1256 0.48065 0.47598 0.0
H2664 H 0.57073 0.71935 0.37625 0.0
H2665 H 0.52329 0.62559 0.5227 0.0
H2666 H 0.53696 0.65198 0.34937 0.0
H2667 H 0.55752 0.69297 0.54957 0.0
H2668 H 0.52319 0.63493 0.46001 0.0
H2669 H 0.56115 0.71007 0.43894 0.0
C2670 C 0.56076 0.70254 0.38339 0.0
C2671 C 0.55456 0.68645 0.35714 0.0
C2672 C 0.53038 0.64774 0.47953 0.0
C2673 C 0.54392 0.67558 0.42996 0.0
C2674 C 0.53031 0.64242 0.51556 0.0
C2675 C 0.54031 0.65849 0.54181 0.0
C2676 C 0.54077 0.66942 0.46899 0.0
C2677 C 0.54934 0.68 0.53059 0.0
C2678 C 0.55543 0.69726 0.41943 0.0
C2679 C 0.54186 0.66496 0.36836 0.0
N2680 N 0.54961 0.68481 0.49508 0.0
N2681 N 0.53723 0.66018 0.40388 0.0
H2682 H 0.32057 0.86845 0.55165 0.0
H2683 H 0.36052 0.88614 0.34623 0.0
H2684 H 0.38722 0.90089 0.51969 0.0
H2685 H 0.29423 0.85907 0.37838 0.0
H2686 H 0.37026 0.88592 0.40931 0.0
H2687 H 0.31023 0.85895 0.48865 0.0
C2688 C 0.33304 0.87294 0.53166 0.0
C2689 C 0.35482 0.88538 0.54123 0.0
C2690 C 0.35352 0.87967 0.40247 0.0
C2691 C 0.34313 0.87508 0.46861 0.0
C2692 C 0.34794 0.8796 0.3663 0.0
C2693 C 0.32651 0.87262 0.35672 0.0
C2694 C 0.33757 0.87264 0.42939 0.0
C2695 C 0.31099 0.8647 0.38431 0.0
C2696 C 0.32715 0.86778 0.49551 0.0
C2697 C 0.37022 0.89122 0.51371 0.0
N2698 N 0.3168 0.86508 0.41908 0.0
N2699 N 0.36414 0.88623 0.47894 0.0
H2700 H 0.26226 0.28592 0.05468 0.0
H2701 H 0.31505 0.39162 0.17324 0.0
H2702 H 0.28232 0.28565 0.16316 0.0
H2703 H 0.3363 0.39158 0.06538 0.0
H2704 H 0.29084 0.35254 0.16926 0.0
H2705 H 0.27745 0.32505 0.05863 0.0
C2706 C 0.26941 0.29405 0.07955 0.0
C2707 C 0.27129 0.28276 0.10858 0.0
C2708 C 0.30056 0.36126 0.14636 0.0
C2709 C 0.28809 0.32694 0.11332 0.0
C2710 C 0.31426 0.38343 0.1485 0.0
C2711 C 0.32774 0.39462 0.11966 0.0
C2712 C 0.30002 0.3505 0.11486 0.0
C2713 C 0.32626 0.38337 0.08826 0.0
C2714 C 0.27809 0.31625 0.08167 0.0
C2715 C 0.28079 0.29393 0.14015 0.0
N2716 N 0.3126 0.36181 0.08664 0.0
N2717 N 0.2889 0.31553 0.14172 0.0
H2718 H 0.61931 0.90976 0.14249 0.0
H2719 H 0.72616 0.0156 0.14638 0.0
H2720 H 0.62633 0.96567 0.08665 0.0
H2721 H 0.7311 0.96692 0.08596 0.0
H2722 H 0.68721 0.99237 0.14804 0.0
H2723 H 0.65883 0.92589 0.14117 0.0
C2724 C 0.62907 0.92518 0.12953 0.0
C2725 C 0.61959 0.93654 0.11504 0.0
C2726 C 0.69696 0.98672 0.13499 0.0
C2727 C 0.66409 0.95478 0.11404 0.0
C2728 C 0.71913 0.99989 0.13398 0.0
C2729 C 0.73185 0.99331 0.11546 0.0
C2730 C 0.68746 0.96676 0.1179 0.0
C2731 C 0.72179 0.97265 0.10015 0.0
C2732 C 0.65145 0.93424 0.12876 0.0
C2733 C 0.63291 0.95641 0.09844 0.0
N2734 N 0.69997 0.96004 0.1014 0.0
N2735 N 0.65453 0.9651 0.09904 0.0
H2736 H 0.03801 0.75391 0.05436 0.0
H2737 H 0.09012 0.70027 0.17297 0.0
H2738 H 0.01736 0.73351 0.16278 0.0
H2739 H 0.06933 0.67991 0.06476 0.0
H2740 H 0.07567 0.72484 0.16911 0.0
H2741 H 0.06208 0.73891 0.05845 0.0
C2742 C 0.03893 0.74671 0.07924 0.0
C2743 C 0.02562 0.74466 0.1082 0.0
C2744 C 0.07471 0.71525 0.14611 0.0
C2745 C 0.05316 0.72808 0.1131 0.0
C2746 C 0.08294 0.70135 0.14818 0.0
C2747 C 0.08063 0.688 0.11921 0.0
C2748 C 0.06471 0.7161 0.11455 0.0
C2749 C 0.07115 0.68984 0.08774 0.0
C2750 C 0.05255 0.73816 0.08145 0.0
C2751 C 0.02725 0.73513 0.1398 0.0
N2752 N 0.06347 0.70368 0.08621 0.0
N2753 N 0.04081 0.72711 0.14144 0.0
H2754 H 0.39698 0.33052 0.49895 0.0
H2755 H 0.29123 0.281 0.39542 0.0
H2756 H 0.39664 0.31112 0.3898 0.0
H2757 H 0.29062 0.25814 0.50228 0.0
H2758 H 0.33009 0.2945 0.39216 0.0
H2759 H 0.35792 0.30614 0.50177 0.0
C2760 C 0.38868 0.32084 0.47584 0.0
C2761 C 0.39983 0.32278 0.44407 0.0
C2762 C 0.32129 0.28616 0.41601 0.0
C2763 C 0.35555 0.29557 0.44682 0.0
C2764 C 0.29927 0.27861 0.41795 0.0
C2765 C 0.28791 0.26863 0.44922 0.0
C2766 C 0.33196 0.28425 0.44593 0.0
C2767 C 0.29891 0.26578 0.47771 0.0
C2768 C 0.36653 0.30694 0.4775 0.0
C2769 C 0.3885 0.30996 0.41478 0.0
N2770 N 0.32052 0.27403 0.47572 0.0
N2771 N 0.36679 0.29722 0.41655 0.0
H2772 H 0.75911 0.03568 0.50554 0.0
H2773 H 0.70458 0.08755 0.38866 0.0
H2774 H 0.73764 0.01466 0.3978 0.0
H2775 H 0.68468 0.06648 0.49708 0.0
H2776 H 0.72941 0.07339 0.3919 0.0
H2777 H 0.74428 0.0599 0.50184 0.0
C2778 C 0.75173 0.03657 0.48085 0.0
C2779 C 0.7493 0.02309 0.45201 0.0
C2780 C 0.71987 0.07232 0.41509 0.0
C2781 C 0.73293 0.05081 0.44755 0.0
C2782 C 0.70583 0.08038 0.41336 0.0
C2783 C 0.69252 0.07789 0.44257 0.0
C2784 C 0.72091 0.06232 0.44653 0.0
C2785 C 0.69456 0.06843 0.47393 0.0
C2786 C 0.74328 0.05027 0.47887 0.0
C2787 C 0.73956 0.02469 0.42068 0.0
N2788 N 0.70854 0.06091 0.47511 0.0
N2789 N 0.73163 0.03832 0.41926 0.0
H2790 H 0.97823 0.72813 0.50069 0.0
H2791 H 0.94984 0.62002 0.49944 0.0
H2792 H 1.00478 0.72372 0.39959 0.0
H2793 H 0.92794 0.62054 0.39237 0.0
H2794 H 0.96384 0.65891 0.5032 0.0
H2795 H 0.95364 0.68907 0.49936 0.0
C2796 C 0.97857 0.719 0.47792 0.0
C2797 C 0.99371 0.72896 0.45043 0.0
C2798 C 0.95549 0.65034 0.47928 0.0
C2799 C 0.96569 0.68483 0.4487 0.0
C2800 C 0.94769 0.62831 0.47701 0.0
C2801 C 0.93782 0.61726 0.44555 0.0
C2802 C 0.95388 0.66131 0.44951 0.0
C2803 C 0.93541 0.6286 0.41711 0.0
C2804 C 0.96465 0.69684 0.47731 0.0
C2805 C 0.99352 0.7165 0.4215 0.0
N2806 N 0.94395 0.65024 0.4194 0.0
N2807 N 0.97971 0.69495 0.4214 0.0
H2808 H 0.70423 0.61997 0.88836 0.0
H2809 H 0.75672 0.72523 1.00804 0.0
H2810 H 0.68347 0.61963 0.99671 0.0
H2811 H 0.73601 0.7254 0.89996 0.0
H2812 H 0.74231 0.68624 1.00359 0.0
H2813 H 0.72865 0.65899 0.89278 0.0
C2814 C 0.70519 0.62806 0.91329 0.0
C2815 C 0.69175 0.61683 0.94213 0.0
C2816 C 0.74137 0.695 0.98074 0.0
C2817 C 0.71969 0.66082 0.94742 0.0
C2818 C 0.74957 0.71711 0.98316 0.0
C2819 C 0.74723 0.72828 0.95441 0.0
C2820 C 0.73139 0.68433 0.94907 0.0
C2821 C 0.73782 0.71716 0.92279 0.0
C2822 C 0.71902 0.65019 0.91569 0.0
C2823 C 0.69345 0.62791 0.97382 0.0
N2824 N 0.73015 0.69566 0.92093 0.0
N2825 N 0.7072 0.64943 0.97565 0.0
H2826 H 0.2867 0.04531 0.96941 0.0
H2827 H 0.39412 0.05049 0.98078 0.0
H2828 H 0.29531 0.99709 0.91471 0.0
H2829 H 0.39895 0.0999 0.90888 0.0
H2830 H 0.35513 0.0346 0.98122 0.0
H2831 H 0.32602 0.06962 0.96769 0.0
C2832 C 0.29676 0.03998 0.95658 0.0
C2833 C 0.28782 0.01907 0.94261 0.0
C2834 C 0.36488 0.04917 0.96595 0.0
C2835 C 0.33209 0.04646 0.94088 0.0
C2836 C 0.38706 0.05825 0.96557 0.0
C2837 C 0.39975 0.07633 0.94421 0.0
C2838 C 0.35537 0.05835 0.94526 0.0
C2839 C 0.38966 0.08581 0.92538 0.0
C2840 C 0.31903 0.05385 0.95552 0.0
C2841 C 0.30151 0.01297 0.92611 0.0
N2842 N 0.36783 0.0765 0.92595 0.0
N2843 N 0.32305 0.02648 0.92636 0.0
H2844 H 0.95074 0.33288 0.99957 0.0
H2845 H 1.00238 0.27872 0.89604 0.0
H2846 H 0.92892 0.31128 0.89219 0.0
H2847 H 0.9816 0.25811 1.00432 0.0
H2848 H 0.97779 0.29313 0.89318 0.0
H2849 H 0.96459 0.30783 1.00267 0.0
C2850 C 0.94864 0.32265 0.97689 0.0
C2851 C 0.93886 0.32412 0.94553 0.0
C2852 C 0.97835 0.28505 0.91726 0.0
C2853 C 0.95489 0.29607 0.94863 0.0
C2854 C 0.99239 0.27699 0.91896 0.0
C2855 C 0.99397 0.26739 0.9505 0.0
C2856 C 0.96648 0.28409 0.94768 0.0
C2857 C 0.98074 0.26541 0.97953 0.0
C2858 C 0.95638 0.30834 0.97874 0.0
C2859 C 0.9364 0.31053 0.91683 0.0
N2860 N 0.96784 0.27419 0.97775 0.0
N2861 N 0.94485 0.29736 0.91873 0.0
H2862 H 0.72638 0.71203 0.6452 0.0
H2863 H 0.61905 0.71211 0.63846 0.0
H2864 H 0.73027 0.76594 0.58704 0.0
H2865 H 0.62555 0.66036 0.59266 0.0
H2866 H 0.65863 0.73512 0.63679 0.0
H2867 H 0.6874 0.69569 0.64717 0.0
C2868 C 0.71911 0.72063 0.63332 0.0
C2869 C 0.73156 0.74022 0.61537 0.0
C2870 C 0.65114 0.7188 0.62672 0.0
C2871 C 0.68707 0.72162 0.61807 0.0
C2872 C 0.62872 0.7057 0.6277 0.0
C2873 C 0.61907 0.68426 0.61599 0.0
C2874 C 0.66364 0.71005 0.61479 0.0
C2875 C 0.63226 0.67673 0.60216 0.0
C2876 C 0.6969 0.71125 0.63445 0.0
C2877 C 0.72117 0.75068 0.60075 0.0
N2878 N 0.6539 0.68949 0.60257 0.0
N2879 N 0.69932 0.74113 0.60219 0.0
H2880 H 0.3147 0.92527 0.67043 0.0
H2881 H 0.26234 0.97833 0.55084 0.0
H2882 H 0.33651 0.94718 0.56296 0.0
H2883 H 0.28085 0.99725 0.66028 0.0
H2884 H 0.2774 0.95427 0.55482 0.0
H2885 H 0.28989 0.93937 0.66583 0.0
C2886 C 0.31392 0.93265 0.64565 0.0
C2887 C 0.32774 0.93538 0.61713 0.0
C2888 C 0.27771 0.96341 0.57806 0.0
C2889 C 0.29934 0.95089 0.61161 0.0
C2890 C 0.26911 0.977 0.57591 0.0
C2891 C 0.27065 0.98983 0.60522 0.0
C2892 C 0.28727 0.96234 0.60998 0.0
C2893 C 0.27964 0.98772 0.63705 0.0
C2894 C 0.29986 0.94066 0.64314 0.0
C2895 C 0.32624 0.94507 0.58563 0.0
N2896 N 0.2877 0.9742 0.63862 0.0
N2897 N 0.31225 0.95256 0.58368 0.0
H2898 H 0.09035 0.39416 0.67285 0.0
H2899 H 0.03818 0.2884 0.55434 0.0
H2900 H 0.06964 0.39403 0.56469 0.0
H2901 H 0.01744 0.28811 0.66266 0.0
H2902 H 0.06201 0.32755 0.55825 0.0
H2903 H 0.07558 0.35509 0.66894 0.0
C2904 C 0.08311 0.38595 0.64807 0.0
C2905 C 0.08095 0.39711 0.61911 0.0
C2906 C 0.0525 0.31875 0.58126 0.0
C2907 C 0.06465 0.353 0.6144 0.0
C2908 C 0.03904 0.29653 0.57916 0.0
C2909 C 0.02579 0.28523 0.60816 0.0
C2910 C 0.05305 0.32944 0.61286 0.0
C2911 C 0.02731 0.29641 0.63967 0.0
C2912 C 0.07469 0.36379 0.64596 0.0
C2913 C 0.07137 0.38585 0.58765 0.0
N2914 N 0.04074 0.31801 0.64123 0.0
N2915 N 0.06352 0.36429 0.58608 0.0
H2916 H 0.95595 0.61131 0.72897 0.0
H2917 H 0.06208 0.66669 0.83082 0.0
H2918 H 0.95704 0.59107 0.83711 0.0
H2919 H 0.06245 0.64563 0.72305 0.0
H2920 H 0.02332 0.64107 0.83433 0.0
H2921 H 0.99499 0.626 0.72516 0.0
C2922 C 0.96441 0.6097 0.75165 0.0
C2923 C 0.95348 0.60018 0.78346 0.0
C2924 C 0.03203 0.64182 0.81021 0.0
C2925 C 0.99771 0.61718 0.77955 0.0
C2926 C 0.05399 0.65646 0.80813 0.0
C2927 C 0.06524 0.65824 0.77655 0.0
C2928 C 0.02129 0.62952 0.78012 0.0
C2929 C 0.05421 0.64464 0.74784 0.0
C2930 C 0.98654 0.61793 0.74941 0.0
C2931 C 0.96501 0.59834 0.81214 0.0
N2932 N 0.03262 0.63112 0.74998 0.0
N2933 N 0.98669 0.60728 0.80983 0.0
H2934 H 0.43803 0.37898 0.80415 0.0
H2935 H 0.32978 0.37624 0.80855 0.0
H2936 H 0.38202 0.32853 0.75105 0.0
H2937 H 0.38042 0.43304 0.75695 0.0
H2938 H 0.35291 0.36044 0.8081 0.0
H2939 H 0.42094 0.40147 0.80327 0.0
C2940 C 0.42237 0.37279 0.79186 0.0
C2941 C 0.41127 0.35178 0.77805 0.0
C2942 C 0.35897 0.37649 0.79734 0.0
C2943 C 0.3919 0.37697 0.77772 0.0
C2944 C 0.34589 0.38557 0.79766 0.0
C2945 C 0.35311 0.40586 0.78226 0.0
C2946 C 0.37949 0.38787 0.78212 0.0
C2947 C 0.37422 0.41723 0.76871 0.0
C2948 C 0.41276 0.3856 0.79135 0.0
C2949 C 0.39109 0.34453 0.76227 0.0
N2950 N 0.38679 0.40799 0.76877 0.0
N2951 N 0.38185 0.35696 0.76321 0.0
H2952 H 0.65016 0.05982 0.8398 0.0
H2953 H 0.59554 0.95316 0.72397 0.0
H2954 H 0.67006 0.05876 0.73136 0.0
H2955 H 0.61735 0.95375 0.83152 0.0
H2956 H 0.61087 0.99231 0.72717 0.0
H2957 H 0.62584 0.02072 0.83692 0.0
C2958 C 0.64903 0.0514 0.81517 0.0
C2959 C 0.66216 0.0623 0.78583 0.0
C2960 C 0.61187 0.9837 0.75019 0.0
C2961 C 0.63435 0.01818 0.7823 0.0
C2962 C 0.60313 0.96149 0.7485 0.0
C2963 C 0.60545 0.95044 0.77746 0.0
C2964 C 0.62239 0.99464 0.78136 0.0
C2965 C 0.61549 0.96186 0.80857 0.0
C2966 C 0.63528 0.02922 0.81366 0.0
C2967 C 0.66028 0.05077 0.7546 0.0
N2968 N 0.62366 0.98347 0.80974 0.0
N2969 N 0.64658 0.02921 0.75361 0.0
H2970 H 0.38382 0.05732 0.24692 0.0
H2971 H 0.38129 0.94939 0.25671 0.0
H2972 H 0.43656 0.06095 0.30827 0.0
H2973 H 0.33082 0.95738 0.30443 0.0
H2974 H 0.40502 0.98883 0.25775 0.0
H2975 H 0.36718 0.01832 0.2459 0.0
C2976 C 0.39211 0.04998 0.25968 0.0
C2977 C 0.41141 0.06235 0.2783 0.0
C2978 C 0.38884 0.98169 0.26843 0.0
C2979 C 0.39252 0.0179 0.27665 0.0
C2980 C 0.37533 0.95936 0.2678 0.0
C2981 C 0.35401 0.9502 0.28013 0.0
C2982 C 0.38063 0.99457 0.28071 0.0
C2983 C 0.34706 0.96374 0.29441 0.0
C2984 C 0.38257 0.02778 0.25906 0.0
C2985 C 0.42151 0.0519 0.29402 0.0
N2986 N 0.36022 0.98531 0.29365 0.0
N2987 N 0.4118 0.03005 0.29313 0.0
H2988 H 0.95553 0.34794 0.22907 0.0
H2989 H 0.06196 0.39777 0.33081 0.0
H2990 H 0.95663 0.36801 0.33802 0.0
H2991 H 0.06191 0.4202 0.22387 0.0
H2992 H 0.0231 0.38421 0.33466 0.0
H2993 H 0.99461 0.3721 0.2256 0.0
C2994 C 0.96401 0.3577 0.25201 0.0
C2995 C 0.95307 0.35603 0.2839 0.0
C2996 C 0.03175 0.39247 0.31066 0.0
C2997 C 0.99734 0.38299 0.2804 0.0
C2998 C 0.05377 0.40003 0.30838 0.0
C2999 C 0.06493 0.40992 0.27692 0.0
C3000 C 0.02092 0.39426 0.28089 0.0
C3001 C 0.05375 0.41263 0.24857 0.0
C3002 C 0.98616 0.37148 0.24997 0.0
C3003 C 0.96461 0.36895 0.31295 0.0
N3004 N 0.03216 0.40437 0.25089 0.0
N3005 N 0.98632 0.38159 0.31082 0.0
H3006 H 0.57906 0.63279 0.25647 0.0
H3007 H 0.68451 0.63147 0.2464 0.0
H3008 H 0.63608 0.68231 0.3088 0.0
H3009 H 0.63764 0.57945 0.3121 0.0
H3010 H 0.66102 0.6469 0.24509 0.0
H3011 H 0.59513 0.60938 0.257 0.0
C3012 C 0.59473 0.63859 0.2685 0.0
C3013 C 0.6064 0.65959 0.28224 0.0
C3014 C 0.65581 0.63188 0.25917 0.0
C3015 C 0.62456 0.63332 0.28233 0.0
C3016 C 0.66912 0.62305 0.26001 0.0
C3017 C 0.66317 0.60436 0.27998 0.0
C3018 C 0.63635 0.62182 0.27794 0.0
C3019 C 0.6429 0.59405 0.29679 0.0
C3020 C 0.60375 0.62526 0.26882 0.0
C3021 C 0.62658 0.66633 0.29766 0.0
N3022 N 0.63017 0.6031 0.29576 0.0
N3023 N 0.63521 0.65337 0.29664 0.0
loop_
_geom_bond_atom_site_label_1
_geom_bond_atom_site_label_2
_geom_bond_distance
_geom_bond_site_symmetry_2
_ccdc_geom_bond_type
Co0 N5 2.057 . S
Co0 O17 2.021 . S
Co0 O20 2.062 . S
Co0 O24 2.117 . S
Co0 O25 2.020 . S
C1 O21 1.259 . S
C1 O24 1.258 . S
Co2 N11 2.057 . S
Co2 O18 2.117 . S
Co2 O19 2.020 . S
Co2 O21 2.021 . S
Co2 O26 2.062 . S
C3 N5 1.316 . S
C3 N6 1.347 . S
C3 H8 0.931 . S
C4 N5 1.375 1_556 S
C4 C7 1.350 . S
C4 H9 0.930 . S
N5 Co0 2.057 . S
N5 C3 1.316 . S
N5 C4 1.375 1_554 S
N6 C3 1.347 . S
N6 C7 1.373 1_554 S
C7 C4 1.350 . S
C7 N6 1.373 1_556 S
C7 H28 0.931 . S
H8 C3 0.931 . S
H9 C4 0.930 . S
C10 O17 1.259 . S
C10 O18 1.258 . S
N11 Co2 2.057 . S
N11 C12 1.316 . S
N11 C13 1.375 . S
C12 N11 1.316 . S
C12 N14 1.347 . S
C12 H23 0.931 . S
C13 N11 1.375 . S
C13 C15 1.350 . S
C13 H22 0.930 . S
N14 C12 1.347 . S
N14 C15 1.373 . S
C15 C13 1.350 . S
C15 N14 1.373 . S
C15 H29 0.931 . S
C16 O19 1.256 . S
C16 O20 1.255 . S
O17 Co0 2.021 . S
O17 C10 1.259 . S
O18 Co2 2.117 . S
O18 C10 1.258 . S
O19 Co2 2.020 . S
O19 C16 1.256 . S
O20 Co0 2.062 . S
O20 C16 1.255 . S
O21 C1 1.259 . S
O21 Co2 2.021 . S
H22 C13 0.930 . S
H23 C12 0.931 . S
O24 Co0 2.117 . S
O24 C1 1.258 . S
O25 Co0 2.020 . S
O25 C27 1.256 . S
O26 Co2 2.062 . S
O26 C27 1.255 . S
C27 O25 1.256 . S
C27 O26 1.255 . S
H28 C7 0.931 . S
H29 C15 0.931 . S
Co30 N35 2.057 1_545 S
Co30 O47 2.021 . S
Co30 O50 2.062 . S
Co30 O54 2.117 . S
Co30 O55 2.020 . S
C31 O51 1.259 . S
C31 O54 1.258 . S
Co32 N41 2.057 . S
Co32 O48 2.117 . S
Co32 O49 2.020 . S
Co32 O51 2.021 . S
Co32 O56 2.062 . S
C33 N35 1.316 . S
C33 N36 1.347 . S
C33 H38 0.931 . S
C34 N35 1.375 1_556 S
C34 C37 1.350 . S
C34 H39 0.978 . S
N35 Co30 2.057 1_565 S
N35 C33 1.316 . S
N35 C34 1.375 1_554 S
N36 C33 1.347 . S
N36 C37 1.373 1_554 S
C37 C34 1.350 . S
C37 N36 1.373 1_556 S
C37 H58 0.931 . S
H38 C33 0.931 . S
H39 C34 0.978 . S
C40 O47 1.259 . S
C40 O48 1.258 . S
N41 Co32 2.057 . S
N41 C42 1.316 . S
N41 C43 1.375 . S
C42 N41 1.316 . S
C42 N44 1.347 . S
C42 H53 0.931 . S
C43 N41 1.375 . S
C43 C45 1.350 . S
C43 H52 0.930 . S
N44 C42 1.347 . S
N44 C45 1.373 . S
C45 C43 1.350 . S
C45 N44 1.373 . S
C45 H59 0.931 . S
C46 O49 1.256 . S
C46 O50 1.257 . S
O47 Co30 2.021 . S
O47 C40 1.259 . S
O48 Co32 2.117 . S
O48 C40 1.258 . S
O49 Co32 2.020 . S
O49 C46 1.256 . S
O50 Co30 2.062 . S
O50 C46 1.257 . S
O51 C31 1.259 . S
O51 Co32 2.021 . S
H52 C43 0.930 . S
H53 C42 0.931 . S
O54 Co30 2.117 . S
O54 C31 1.258 . S
O55 Co30 2.020 . S
O55 C57 1.256 . S
O56 Co32 2.062 . S
O56 C57 1.255 . S
C57 O55 1.256 . S
C57 O56 1.255 . S
H58 C37 0.931 . S
H59 C45 0.931 . S
Co60 N65 2.057 1_655 S
Co60 O77 2.021 . S
Co60 O80 2.064 . S
Co60 O84 2.117 . S
Co60 O85 2.020 . S
C61 O81 1.259 . S
C61 O84 1.258 . S
Co62 N71 2.057 . S
Co62 O78 2.117 . S
Co62 O79 2.020 . S
Co62 O81 2.021 . S
Co62 O86 2.062 . S
C63 N65 1.316 . S
C63 N66 1.347 . S
C63 H68 0.931 . S
C64 N65 1.375 1_556 S
C64 C67 1.350 . S
C64 H69 0.957 . S
N65 Co60 2.057 1_455 S
N65 C63 1.316 . S
N65 C64 1.375 1_554 S
N66 C63 1.347 . S
N66 C67 1.373 1_554 S
C67 C64 1.350 . S
C67 N66 1.373 1_556 S
C67 H88 0.931 . S
H68 C63 0.931 . S
H69 C64 0.957 . S
C70 O77 1.259 . S
C70 O78 1.258 . S
N71 Co62 2.057 . S
N71 C72 1.316 . S
N71 C73 1.375 . S
C72 N71 1.316 . S
C72 N74 1.347 . S
C72 H83 0.931 . S
C73 N71 1.375 . S
C73 C75 1.350 . S
C73 H82 0.930 . S
N74 C72 1.347 . S
N74 C75 1.373 . S
C75 C73 1.350 . S
C75 N74 1.373 . S
C75 H89 0.931 . S
C76 O79 1.256 . S
C76 O80 1.255 . S
O77 Co60 2.021 . S
O77 C70 1.259 . S
O78 Co62 2.117 . S
O78 C70 1.258 . S
O79 Co62 2.020 . S
O79 C76 1.256 . S
O80 Co60 2.064 . S
O80 C76 1.255 . S
O81 C61 1.259 . S
O81 Co62 2.021 . S
H82 C73 0.930 . S
H83 C72 0.931 . S
O84 Co60 2.117 . S
O84 C61 1.258 . S
O85 Co60 2.020 . S
O85 C87 1.256 . S
O86 Co62 2.062 . S
O86 C87 1.255 . S
C87 O85 1.256 . S
C87 O86 1.255 . S
H88 C67 0.931 . S
H89 C75 0.931 . S
Co90 N95 2.057 . S
Co90 O107 2.021 . S
Co90 O110 2.062 . S
Co90 O114 2.117 . S
Co90 O115 2.020 . S
C91 O111 1.259 . S
C91 O114 1.258 . S
Co92 N101 2.057 . S
Co92 O108 2.117 . S
Co92 O109 2.020 . S
Co92 O111 2.021 . S
Co92 O116 2.062 . S
C93 N95 1.316 . S
C93 N96 1.347 . S
C93 H98 0.931 . S
C94 N95 1.375 . S
C94 C97 1.350 . S
C94 H99 0.930 . S
N95 Co90 2.057 . S
N95 C93 1.316 . S
N95 C94 1.375 . S
N96 C93 1.347 . S
N96 C97 1.373 . S
C97 C94 1.350 . S
C97 N96 1.373 . S
C97 H118 0.931 . S
H98 C93 0.931 . S
H99 C94 0.930 . S
C100 O107 1.259 . S
C100 O108 1.258 . S
N101 Co92 2.057 . S
N101 C102 1.316 . S
N101 C103 1.375 . S
C102 N101 1.316 . S
C102 N104 1.347 . S
C102 H113 0.931 . S
C103 N101 1.375 . S
C103 C105 1.350 . S
C103 H112 0.930 . S
N104 C102 1.347 . S
N104 C105 1.373 . S
C105 C103 1.350 . S
C105 N104 1.373 . S
C105 H119 0.931 . S
C106 O109 1.256 . S
C106 O110 1.255 . S
O107 Co90 2.021 . S
O107 C100 1.259 . S
O108 Co92 2.117 . S
O108 C100 1.258 . S
O109 Co92 2.020 . S
O109 C106 1.256 . S
O110 Co90 2.062 . S
O110 C106 1.255 . S
O111 C91 1.259 . S
O111 Co92 2.021 . S
H112 C103 0.930 . S
H113 C102 0.931 . S
O114 Co90 2.117 . S
O114 C91 1.258 . S
O115 Co90 2.020 . S
O115 C117 1.256 . S
O116 Co92 2.062 . S
O116 C117 1.255 . S
C117 O115 1.256 . S
C117 O116 1.255 . S
H118 C97 0.931 . S
H119 C105 0.931 . S
Co120 N125 2.057 1_565 S
Co120 O137 2.021 . S
Co120 O140 2.064 . S
Co120 O144 2.117 . S
Co120 O145 2.020 . S
C121 O141 1.259 . S
C121 O144 1.258 . S
Co122 N131 2.057 . S
Co122 O138 2.117 . S
Co122 O139 2.020 . S
Co122 O141 2.021 . S
Co122 O146 2.062 . S
C123 N125 1.316 . S
C123 N126 1.347 . S
C123 H128 0.931 . S
C124 N125 1.375 . S
C124 C127 1.350 . S
C124 H129 0.957 . S
N125 Co120 2.057 1_545 S
N125 C123 1.316 . S
N125 C124 1.375 . S
N126 C123 1.347 . S
N126 C127 1.373 . S
C127 C124 1.350 . S
C127 N126 1.373 . S
C127 H148 0.931 . S
H128 C123 0.931 . S
H129 C124 0.957 . S
C130 O137 1.259 . S
C130 O138 1.258 . S
N131 Co122 2.057 . S
N131 C132 1.316 . S
N131 C133 1.375 . S
C132 N131 1.316 . S
C132 N134 1.347 . S
C132 H143 0.931 . S
C133 N131 1.375 . S
C133 C135 1.350 . S
C133 H142 0.930 . S
N134 C132 1.347 . S
N134 C135 1.373 . S
C135 C133 1.350 . S
C135 N134 1.373 . S
C135 H149 0.931 . S
C136 O139 1.256 . S
C136 O140 1.255 . S
O137 Co120 2.021 . S
O137 C130 1.259 . S
O138 Co122 2.117 . S
O138 C130 1.258 . S
O139 Co122 2.020 . S
O139 C136 1.256 . S
O140 Co120 2.064 . S
O140 C136 1.255 . S
O141 C121 1.259 . S
O141 Co122 2.021 . S
H142 C133 0.930 . S
H143 C132 0.931 . S
O144 Co120 2.117 . S
O144 C121 1.258 . S
O145 Co120 2.020 . S
O145 C147 1.256 . S
O146 Co122 2.062 . S
O146 C147 1.255 . S
C147 O145 1.256 . S
C147 O146 1.255 . S
H148 C127 0.931 . S
H149 C135 0.931 . S
Co150 N155 2.057 1_455 S
Co150 O167 2.021 . S
Co150 O170 2.062 . S
Co150 O174 2.117 . S
Co150 O175 2.020 . S
C151 O171 1.259 . S
C151 O174 1.258 . S
Co152 N161 2.057 . S
Co152 O168 2.117 . S
Co152 O169 2.020 . S
Co152 O171 2.021 . S
Co152 O176 2.062 . S
C153 N155 1.316 . S
C153 N156 1.347 . S
C153 H158 0.931 . S
C154 N155 1.375 . S
C154 C157 1.350 . S
C154 H159 0.978 . S
N155 Co150 2.057 1_655 S
N155 C153 1.316 . S
N155 C154 1.375 . S
N156 C153 1.347 . S
N156 C157 1.373 . S
C157 C154 1.350 . S
C157 N156 1.373 . S
C157 H178 0.931 . S
H158 C153 0.931 . S
H159 C154 0.978 . S
C160 O167 1.259 . S
C160 O168 1.258 . S
N161 Co152 2.057 . S
N161 C162 1.316 . S
N161 C163 1.375 . S
C162 N161 1.316 . S
C162 N164 1.347 . S
C162 H173 0.931 . S
C163 N161 1.375 . S
C163 C165 1.350 . S
C163 H172 0.930 . S
N164 C162 1.347 . S
N164 C165 1.373 . S
C165 C163 1.350 . S
C165 N164 1.373 . S
C165 H179 0.931 . S
C166 O169 1.256 . S
C166 O170 1.257 . S
O167 Co150 2.021 . S
O167 C160 1.259 . S
O168 Co152 2.117 . S
O168 C160 1.258 . S
O169 Co152 2.020 . S
O169 C166 1.256 . S
O170 Co150 2.062 . S
O170 C166 1.257 . S
O171 C151 1.259 . S
O171 Co152 2.021 . S
H172 C163 0.930 . S
H173 C162 0.931 . S
O174 Co150 2.117 . S
O174 C151 1.258 . S
O175 Co150 2.020 . S
O175 C177 1.256 . S
O176 Co152 2.062 . S
O176 C177 1.255 . S
C177 O175 1.256 . S
C177 O176 1.255 . S
H178 C157 0.931 . S
H179 C165 0.931 . S
Co180 N185 2.057 . S
Co180 O197 2.021 . S
Co180 O200 2.062 . S
Co180 O204 2.117 . S
Co180 O205 2.020 . S
C181 O201 1.259 . S
C181 O204 1.258 . S
Co182 N191 2.057 . S
Co182 O198 2.117 . S
Co182 O199 2.020 . S
Co182 O201 2.021 . S
Co182 O206 2.062 . S
C183 N185 1.316 . S
C183 N186 1.347 . S
C183 H188 0.931 . S
C184 N185 1.375 . S
C184 C187 1.350 . S
C184 H189 0.930 . S
N185 Co180 2.057 . S
N185 C183 1.316 . S
N185 C184 1.375 . S
N186 C183 1.347 . S
N186 C187 1.373 . S
C187 C184 1.350 . S
C187 N186 1.373 . S
C187 H208 0.931 . S
H188 C183 0.931 . S
H189 C184 0.930 . S
C190 O197 1.259 . S
C190 O198 1.258 . S
N191 Co182 2.057 . S
N191 C192 1.316 . S
N191 C193 1.375 1_556 S
C192 N191 1.316 . S
C192 N194 1.347 . S
C192 H203 0.931 . S
C193 N191 1.375 1_554 S
C193 C195 1.350 . S
C193 H202 0.930 . S
N194 C192 1.347 . S
N194 C195 1.373 1_556 S
C195 C193 1.350 . S
C195 N194 1.373 1_554 S
C195 H209 0.931 . S
C196 O199 1.256 . S
C196 O200 1.255 . S
O197 Co180 2.021 . S
O197 C190 1.259 . S
O198 Co182 2.117 . S
O198 C190 1.258 . S
O199 Co182 2.020 . S
O199 C196 1.256 . S
O200 Co180 2.062 . S
O200 C196 1.255 . S
O201 C181 1.259 . S
O201 Co182 2.021 . S
H202 C193 0.930 . S
H203 C192 0.931 . S
O204 Co180 2.117 . S
O204 C181 1.258 . S
O205 Co180 2.020 . S
O205 C207 1.256 . S
O206 Co182 2.062 . S
O206 C207 1.255 . S
C207 O205 1.256 . S
C207 O206 1.255 . S
H208 C187 0.931 . S
H209 C195 0.931 . S
Co210 N215 2.057 . S
Co210 O227 2.021 . S
Co210 O230 2.062 . S
Co210 O234 2.117 . S
Co210 O235 2.020 . S
C211 O231 1.259 . S
C211 O234 1.258 . S
Co212 N221 2.057 1_565 S
Co212 O228 2.117 . S
Co212 O229 2.020 . S
Co212 O231 2.021 . S
Co212 O236 2.062 . S
C213 N215 1.316 . S
C213 N216 1.347 . S
C213 H218 0.931 . S
C214 N215 1.375 . S
C214 C217 1.350 . S
C214 H219 0.930 . S
N215 Co210 2.057 . S
N215 C213 1.316 . S
N215 C214 1.375 . S
N216 C213 1.347 . S
N216 C217 1.373 . S
C217 C214 1.350 . S
C217 N216 1.373 . S
C217 H238 0.931 . S
H218 C213 0.931 . S
H219 C214 0.930 . S
C220 O227 1.259 . S
C220 O228 1.258 . S
N221 Co212 2.057 1_545 S
N221 C222 1.316 . S
N221 C223 1.375 1_556 S
C222 N221 1.316 . S
C222 N224 1.347 . S
C222 H233 0.931 . S
C223 N221 1.375 1_554 S
C223 C225 1.350 . S
C223 H232 0.978 . S
N224 C222 1.347 . S
N224 C225 1.373 1_556 S
C225 C223 1.350 . S
C225 N224 1.373 1_554 S
C225 H239 0.931 . S
C226 O229 1.256 . S
C226 O230 1.255 . S
O227 Co210 2.021 . S
O227 C220 1.259 . S
O228 Co212 2.117 . S
O228 C220 1.258 . S
O229 Co212 2.020 . S
O229 C226 1.256 . S
O230 Co210 2.062 . S
O230 C226 1.255 . S
O231 C211 1.259 . S
O231 Co212 2.021 . S
H232 C223 0.978 . S
H233 C222 0.931 . S
O234 Co210 2.117 . S
O234 C211 1.258 . S
O235 Co210 2.020 . S
O235 C237 1.256 . S
O236 Co212 2.062 . S
O236 C237 1.257 . S
C237 O235 1.256 . S
C237 O236 1.257 . S
H238 C217 0.931 . S
H239 C225 0.931 . S
Co240 N245 2.057 . S
Co240 O257 2.021 . S
Co240 O260 2.062 . S
Co240 O264 2.117 . S
Co240 O265 2.020 . S
C241 O261 1.259 . S
C241 O264 1.258 . S
Co242 N251 2.057 1_455 S
Co242 O258 2.117 . S
Co242 O259 2.020 . S
Co242 O261 2.021 . S
Co242 O266 2.064 . S
C243 N245 1.316 . S
C243 N246 1.347 . S
C243 H248 0.931 . S
C244 N245 1.375 . S
C244 C247 1.350 . S
C244 H249 0.930 . S
N245 Co240 2.057 . S
N245 C243 1.316 . S
N245 C244 1.375 . S
N246 C243 1.347 . S
N246 C247 1.373 . S
C247 C244 1.350 . S
C247 N246 1.373 . S
C247 H268 0.931 . S
H248 C243 0.931 . S
H249 C244 0.930 . S
C250 O257 1.259 . S
C250 O258 1.258 . S
N251 Co242 2.057 1_655 S
N251 C252 1.316 . S
N251 C253 1.375 1_556 S
C252 N251 1.316 . S
C252 N254 1.347 . S
C252 H263 0.931 . S
C253 N251 1.375 1_554 S
C253 C255 1.350 . S
C253 H262 0.957 . S
N254 C252 1.347 . S
N254 C255 1.373 1_556 S
C255 C253 1.350 . S
C255 N254 1.373 1_554 S
C255 H269 0.931 . S
C256 O259 1.256 . S
C256 O260 1.255 . S
O257 Co240 2.021 . S
O257 C250 1.259 . S
O258 Co242 2.117 . S
O258 C250 1.258 . S
O259 Co242 2.020 . S
O259 C256 1.256 . S
O260 Co240 2.062 . S
O260 C256 1.255 . S
O261 C241 1.259 . S
O261 Co242 2.021 . S
H262 C253 0.957 . S
H263 C252 0.931 . S
O264 Co240 2.117 . S
O264 C241 1.258 . S
O265 Co240 2.020 . S
O265 C267 1.256 . S
O266 Co242 2.064 . S
O266 C267 1.255 . S
C267 O265 1.256 . S
C267 O266 1.255 . S
H268 C247 0.931 . S
H269 C255 0.931 . S
Co270 N275 2.057 . S
Co270 O287 2.021 . S
Co270 O290 2.062 . S
Co270 O294 2.117 . S
Co270 O295 2.020 . S
C271 O291 1.259 . S
C271 O294 1.258 . S
Co272 N281 2.057 . S
Co272 O288 2.117 . S
Co272 O289 2.020 . S
Co272 O291 2.021 . S
Co272 O296 2.062 . S
C273 N275 1.316 . S
C273 N276 1.347 . S
C273 H278 0.931 . S
C274 N275 1.375 . S
C274 C277 1.350 . S
C274 H279 0.930 . S
N275 Co270 2.057 . S
N275 C273 1.316 . S
N275 C274 1.375 . S
N276 C273 1.347 . S
N276 C277 1.373 . S
C277 C274 1.350 . S
C277 N276 1.373 . S
C277 H298 0.931 . S
H278 C273 0.931 . S
H279 C274 0.930 . S
C280 O287 1.259 . S
C280 O288 1.258 . S
N281 Co272 2.057 . S
N281 C282 1.316 . S
N281 C283 1.375 . S
C282 N281 1.316 . S
C282 N284 1.347 . S
C282 H293 0.931 . S
C283 N281 1.375 . S
C283 C285 1.350 . S
C283 H292 0.930 . S
N284 C282 1.347 . S
N284 C285 1.373 . S
C285 C283 1.350 . S
C285 N284 1.373 . S
C285 H299 0.931 . S
C286 O289 1.256 . S
C286 O290 1.255 . S
O287 Co270 2.021 . S
O287 C280 1.259 . S
O288 Co272 2.117 . S
O288 C280 1.258 . S
O289 Co272 2.020 . S
O289 C286 1.256 . S
O290 Co270 2.062 . S
O290 C286 1.255 . S
O291 C271 1.259 . S
O291 Co272 2.021 . S
H292 C283 0.930 . S
H293 C282 0.931 . S
O294 Co270 2.117 . S
O294 C271 1.258 . S
O295 Co270 2.020 . S
O295 C297 1.256 . S
O296 Co272 2.062 . S
O296 C297 1.255 . S
C297 O295 1.256 . S
C297 O296 1.255 . S
H298 C277 0.931 . S
H299 C285 0.931 . S
Co300 N305 2.057 . S
Co300 O317 2.021 . S
Co300 O320 2.062 . S
Co300 O324 2.117 . S
Co300 O325 2.020 . S
C301 O321 1.259 . S
C301 O324 1.258 . S
Co302 N311 2.057 1_545 S
Co302 O318 2.117 . S
Co302 O319 2.020 . S
Co302 O321 2.021 . S
Co302 O326 2.064 . S
C303 N305 1.316 . S
C303 N306 1.347 . S
C303 H308 0.931 . S
C304 N305 1.375 . S
C304 C307 1.350 . S
C304 H309 0.930 . S
N305 Co300 2.057 . S
N305 C303 1.316 . S
N305 C304 1.375 . S
N306 C303 1.347 . S
N306 C307 1.373 . S
C307 C304 1.350 . S
C307 N306 1.373 . S
C307 H328 0.931 . S
H308 C303 0.931 . S
H309 C304 0.930 . S
C310 O317 1.259 . S
C310 O318 1.258 . S
N311 Co302 2.057 1_565 S
N311 C312 1.316 . S
N311 C313 1.375 . S
C312 N311 1.316 . S
C312 N314 1.347 . S
C312 H323 0.931 . S
C313 N311 1.375 . S
C313 C315 1.350 . S
C313 H322 0.957 . S
N314 C312 1.347 . S
N314 C315 1.373 . S
C315 C313 1.350 . S
C315 N314 1.373 . S
C315 H329 0.931 . S
C316 O319 1.256 . S
C316 O320 1.255 . S
O317 Co300 2.021 . S
O317 C310 1.259 . S
O318 Co302 2.117 . S
O318 C310 1.258 . S
O319 Co302 2.020 . S
O319 C316 1.256 . S
O320 Co300 2.062 . S
O320 C316 1.255 . S
O321 C301 1.259 . S
O321 Co302 2.021 . S
H322 C313 0.957 . S
H323 C312 0.931 . S
O324 Co300 2.117 . S
O324 C301 1.258 . S
O325 Co300 2.020 . S
O325 C327 1.256 . S
O326 Co302 2.064 . S
O326 C327 1.255 . S
C327 O325 1.256 . S
C327 O326 1.255 . S
H328 C307 0.931 . S
H329 C315 0.931 . S
Co330 N335 2.057 . S
Co330 O347 2.021 . S
Co330 O350 2.062 . S
Co330 O354 2.117 . S
Co330 O355 2.020 . S
C331 O351 1.259 . S
C331 O354 1.258 . S
Co332 N341 2.057 1_655 S
Co332 O348 2.117 . S
Co332 O349 2.020 . S
Co332 O351 2.021 . S
Co332 O356 2.062 . S
C333 N335 1.316 . S
C333 N336 1.347 . S
C333 H338 0.931 . S
C334 N335 1.375 . S
C334 C337 1.350 . S
C334 H339 0.930 . S
N335 Co330 2.057 . S
N335 C333 1.316 . S
N335 C334 1.375 . S
N336 C333 1.347 . S
N336 C337 1.373 . S
C337 C334 1.350 . S
C337 N336 1.373 . S
C337 H358 0.931 . S
H338 C333 0.931 . S
H339 C334 0.930 . S
C340 O347 1.259 . S
C340 O348 1.258 . S
N341 Co332 2.057 1_455 S
N341 C342 1.316 . S
N341 C343 1.375 . S
C342 N341 1.316 . S
C342 N344 1.347 . S
C342 H353 0.931 . S
C343 N341 1.375 . S
C343 C345 1.350 . S
C343 H352 0.978 . S
N344 C342 1.347 . S
N344 C345 1.373 . S
C345 C343 1.350 . S
C345 N344 1.373 . S
C345 H359 0.931 . S
C346 O349 1.256 . S
C346 O350 1.255 . S
O347 Co330 2.021 . S
O347 C340 1.259 . S
O348 Co332 2.117 . S
O348 C340 1.258 . S
O349 Co332 2.020 . S
O349 C346 1.256 . S
O350 Co330 2.062 . S
O350 C346 1.255 . S
O351 C331 1.259 . S
O351 Co332 2.021 . S
H352 C343 0.978 . S
H353 C342 0.931 . S
O354 Co330 2.117 . S
O354 C331 1.258 . S
O355 Co330 2.020 . S
O355 C357 1.256 . S
O356 Co332 2.062 . S
O356 C357 1.257 . S
C357 O355 1.256 . S
C357 O356 1.257 . S
H358 C337 0.931 . S
H359 C345 0.931 . S
Co360 N365 2.057 . S
Co360 O377 2.021 . S
Co360 O380 2.062 . S
Co360 O384 2.117 . S
Co360 O385 2.020 . S
C361 O381 1.259 . S
C361 O384 1.258 . S
Co362 N371 2.057 . S
Co362 O378 2.117 . S
Co362 O379 2.020 . S
Co362 O381 2.021 . S
Co362 O386 2.062 . S
C363 N365 1.316 . S
C363 N366 1.347 . S
C363 H368 0.931 . S
C364 N365 1.375 . S
C364 C367 1.350 . S
C364 H369 0.930 . S
N365 Co360 2.057 . S
N365 C363 1.316 . S
N365 C364 1.375 . S
N366 C363 1.347 . S
N366 C367 1.373 . S
C367 C364 1.350 . S
C367 N366 1.373 . S
C367 H388 0.931 . S
H368 C363 0.931 . S
H369 C364 0.930 . S
C370 O377 1.259 . S
C370 O378 1.258 . S
N371 Co362 2.057 . S
N371 C372 1.316 . S
N371 C373 1.375 . S
C372 N371 1.316 . S
C372 N374 1.347 . S
C372 H383 0.931 . S
C373 N371 1.375 . S
C373 C375 1.350 . S
C373 H382 0.930 . S
N374 C372 1.347 . S
N374 C375 1.373 . S
C375 C373 1.350 . S
C375 N374 1.373 . S
C375 H389 0.931 . S
C376 O379 1.256 . S
C376 O380 1.255 . S
O377 Co360 2.021 . S
O377 C370 1.259 . S
O378 Co362 2.117 . S
O378 C370 1.258 . S
O379 Co362 2.020 . S
O379 C376 1.256 . S
O380 Co360 2.062 . S
O380 C376 1.255 . S
O381 C361 1.259 . S
O381 Co362 2.021 . S
H382 C373 0.930 . S
H383 C372 0.931 . S
O384 Co360 2.117 . S
O384 C361 1.258 . S
O385 Co360 2.020 . S
O385 C387 1.256 . S
O386 Co362 2.062 . S
O386 C387 1.255 . S
C387 O385 1.256 . S
C387 O386 1.255 . S
H388 C367 0.931 . S
H389 C375 0.931 . S
Co390 N395 2.057 . S
Co390 O407 2.021 . S
Co390 O410 2.062 . S
Co390 O414 2.117 . S
Co390 O415 2.020 . S
C391 O411 1.259 . S
C391 O414 1.258 . S
Co392 N401 2.057 . S
Co392 O408 2.117 . S
Co392 O409 2.020 . S
Co392 O411 2.021 . S
Co392 O416 2.062 . S
C393 N395 1.316 . S
C393 N396 1.347 . S
C393 H398 0.931 . S
C394 N395 1.375 . S
C394 C397 1.350 . S
C394 H399 0.930 . S
N395 Co390 2.057 . S
N395 C393 1.316 . S
N395 C394 1.375 . S
N396 C393 1.347 . S
N396 C397 1.373 . S
C397 C394 1.350 . S
C397 N396 1.373 . S
C397 H418 0.931 . S
H398 C393 0.931 . S
H399 C394 0.930 . S
C400 O407 1.259 . S
C400 O408 1.258 . S
N401 Co392 2.057 . S
N401 C402 1.316 . S
N401 C403 1.375 . S
C402 N401 1.316 . S
C402 N404 1.347 . S
C402 H413 0.931 . S
C403 N401 1.375 . S
C403 C405 1.350 . S
C403 H412 0.930 . S
N404 C402 1.347 . S
N404 C405 1.373 . S
C405 C403 1.350 . S
C405 N404 1.373 . S
C405 H419 0.931 . S
C406 O409 1.256 . S
C406 O410 1.255 . S
O407 Co390 2.021 . S
O407 C400 1.259 . S
O408 Co392 2.117 . S
O408 C400 1.258 . S
O409 Co392 2.020 . S
O409 C406 1.256 . S
O410 Co390 2.062 . S
O410 C406 1.255 . S
O411 C391 1.259 . S
O411 Co392 2.021 . S
H412 C403 0.930 . S
H413 C402 0.931 . S
O414 Co390 2.117 . S
O414 C391 1.258 . S
O415 Co390 2.020 . S
O415 C417 1.256 . S
O416 Co392 2.062 . S
O416 C417 1.255 . S
C417 O415 1.256 . S
C417 O416 1.255 . S
H418 C397 0.931 . S
H419 C405 0.931 . S
Co420 N425 2.057 . S
Co420 O437 2.021 . S
Co420 O440 2.062 . S
Co420 O444 2.117 . S
Co420 O445 2.020 . S
C421 O441 1.259 . S
C421 O444 1.258 . S
Co422 N431 2.057 . S
Co422 O438 2.117 . S
Co422 O439 2.020 . S
Co422 O441 2.021 . S
Co422 O446 2.062 . S
C423 N425 1.316 . S
C423 N426 1.347 . S
C423 H428 0.931 . S
C424 N425 1.375 . S
C424 C427 1.350 . S
C424 H429 0.930 . S
N425 Co420 2.057 . S
N425 C423 1.316 . S
N425 C424 1.375 . S
N426 C423 1.347 . S
N426 C427 1.373 . S
C427 C424 1.350 . S
C427 N426 1.373 . S
C427 H448 0.931 . S
H428 C423 0.931 . S
H429 C424 0.930 . S
C430 O437 1.259 . S
C430 O438 1.258 . S
N431 Co422 2.057 . S
N431 C432 1.316 . S
N431 C433 1.375 . S
C432 N431 1.316 . S
C432 N434 1.347 . S
C432 H443 0.931 . S
C433 N431 1.375 . S
C433 C435 1.350 . S
C433 H442 0.930 . S
N434 C432 1.347 . S
N434 C435 1.373 . S
C435 C433 1.350 . S
C435 N434 1.373 . S
C435 H449 0.931 . S
C436 O439 1.256 . S
C436 O440 1.255 . S
O437 Co420 2.021 . S
O437 C430 1.259 . S
O438 Co422 2.117 . S
O438 C430 1.258 . S
O439 Co422 2.020 . S
O439 C436 1.256 . S
O440 Co420 2.062 . S
O440 C436 1.255 . S
O441 C421 1.259 . S
O441 Co422 2.021 . S
H442 C433 0.930 . S
H443 C432 0.931 . S
O444 Co420 2.117 . S
O444 C421 1.258 . S
O445 Co420 2.020 . S
O445 C447 1.256 . S
O446 Co422 2.062 . S
O446 C447 1.255 . S
C447 O445 1.256 . S
C447 O446 1.255 . S
H448 C427 0.931 . S
H449 C435 0.931 . S
Co450 N455 2.057 . S
Co450 O467 2.021 . S
Co450 O470 2.062 . S
Co450 O474 2.117 . S
Co450 O475 2.020 . S
C451 O471 1.259 . S
C451 O474 1.258 . S
Co452 N461 2.057 . S
Co452 O468 2.117 . S
Co452 O469 2.020 . S
Co452 O471 2.021 . S
Co452 O476 2.062 . S
C453 N455 1.316 . S
C453 N456 1.347 . S
C453 H458 0.931 . S
C454 N455 1.375 . S
C454 C457 1.350 . S
C454 H459 0.930 . S
N455 Co450 2.057 . S
N455 C453 1.316 . S
N455 C454 1.375 . S
N456 C453 1.347 . S
N456 C457 1.373 . S
C457 C454 1.350 . S
C457 N456 1.373 . S
C457 H478 0.931 . S
H458 C453 0.931 . S
H459 C454 0.930 . S
C460 O467 1.259 . S
C460 O468 1.258 . S
N461 Co452 2.057 . S
N461 C462 1.316 . S
N461 C463 1.375 . S
C462 N461 1.316 . S
C462 N464 1.347 . S
C462 H473 0.931 . S
C463 N461 1.375 . S
C463 C465 1.350 . S
C463 H472 0.930 . S
N464 C462 1.347 . S
N464 C465 1.373 . S
C465 C463 1.350 . S
C465 N464 1.373 . S
C465 H479 0.931 . S
C466 O469 1.256 . S
C466 O470 1.255 . S
O467 Co450 2.021 . S
O467 C460 1.259 . S
O468 Co452 2.117 . S
O468 C460 1.258 . S
O469 Co452 2.020 . S
O469 C466 1.256 . S
O470 Co450 2.062 . S
O470 C466 1.255 . S
O471 C451 1.259 . S
O471 Co452 2.021 . S
H472 C463 0.930 . S
H473 C462 0.931 . S
O474 Co450 2.117 . S
O474 C451 1.258 . S
O475 Co450 2.020 . S
O475 C477 1.256 . S
O476 Co452 2.062 . S
O476 C477 1.255 . S
C477 O475 1.256 . S
C477 O476 1.255 . S
H478 C457 0.931 . S
H479 C465 0.931 . S
Co480 N485 2.057 . S
Co480 O497 2.021 . S
Co480 O500 2.062 . S
Co480 O504 2.117 . S
Co480 O505 2.020 . S
C481 O501 1.259 . S
C481 O504 1.258 . S
Co482 N491 2.057 . S
Co482 O498 2.117 . S
Co482 O499 2.020 . S
Co482 O501 2.021 . S
Co482 O506 2.062 . S
C483 N485 1.316 . S
C483 N486 1.347 . S
C483 H488 0.931 . S
C484 N485 1.375 . S
C484 C487 1.350 . S
C484 H489 0.930 . S
N485 Co480 2.057 . S
N485 C483 1.316 . S
N485 C484 1.375 . S
N486 C483 1.347 . S
N486 C487 1.373 . S
C487 C484 1.350 . S
C487 N486 1.373 . S
C487 H508 0.931 . S
H488 C483 0.931 . S
H489 C484 0.930 . S
C490 O497 1.259 . S
C490 O498 1.258 . S
N491 Co482 2.057 . S
N491 C492 1.316 . S
N491 C493 1.375 . S
C492 N491 1.316 . S
C492 N494 1.347 . S
C492 H503 0.931 . S
C493 N491 1.375 . S
C493 C495 1.350 . S
C493 H502 0.930 . S
N494 C492 1.347 . S
N494 C495 1.373 . S
C495 C493 1.350 . S
C495 N494 1.373 . S
C495 H509 0.931 . S
C496 O499 1.256 . S
C496 O500 1.255 . S
O497 Co480 2.021 . S
O497 C490 1.259 . S
O498 Co482 2.117 . S
O498 C490 1.258 . S
O499 Co482 2.020 . S
O499 C496 1.256 . S
O500 Co480 2.062 . S
O500 C496 1.255 . S
O501 C481 1.259 . S
O501 Co482 2.021 . S
H502 C493 0.930 . S
H503 C492 0.931 . S
O504 Co480 2.117 . S
O504 C481 1.258 . S
O505 Co480 2.020 . S
O505 C507 1.256 . S
O506 Co482 2.062 . S
O506 C507 1.255 . S
C507 O505 1.256 . S
C507 O506 1.255 . S
H508 C487 0.931 . S
H509 C495 0.931 . S
Co510 N515 2.057 . S
Co510 O527 2.021 . S
Co510 O530 2.062 . S
Co510 O534 2.117 . S
Co510 O535 2.020 . S
C511 O531 1.259 . S
C511 O534 1.258 . S
Co512 N521 2.057 . S
Co512 O528 2.117 . S
Co512 O529 2.020 . S
Co512 O531 2.021 . S
Co512 O536 2.062 . S
C513 N515 1.316 . S
C513 N516 1.347 . S
C513 H518 0.931 . S
C514 N515 1.375 . S
C514 C517 1.350 . S
C514 H519 0.930 . S
N515 Co510 2.057 . S
N515 C513 1.316 . S
N515 C514 1.375 . S
N516 C513 1.347 . S
N516 C517 1.373 . S
C517 C514 1.350 . S
C517 N516 1.373 . S
C517 H538 0.931 . S
H518 C513 0.931 . S
H519 C514 0.930 . S
C520 O527 1.259 . S
C520 O528 1.258 . S
N521 Co512 2.057 . S
N521 C522 1.316 . S
N521 C523 1.375 . S
C522 N521 1.316 . S
C522 N524 1.347 . S
C522 H533 0.931 . S
C523 N521 1.375 . S
C523 C525 1.350 . S
C523 H532 0.930 . S
N524 C522 1.347 . S
N524 C525 1.373 . S
C525 C523 1.350 . S
C525 N524 1.373 . S
C525 H539 0.931 . S
C526 O529 1.256 . S
C526 O530 1.255 . S
O527 Co510 2.021 . S
O527 C520 1.259 . S
O528 Co512 2.117 . S
O528 C520 1.258 . S
O529 Co512 2.020 . S
O529 C526 1.256 . S
O530 Co510 2.062 . S
O530 C526 1.255 . S
O531 C511 1.259 . S
O531 Co512 2.021 . S
H532 C523 0.930 . S
H533 C522 0.931 . S
O534 Co510 2.117 . S
O534 C511 1.258 . S
O535 Co510 2.020 . S
O535 C537 1.256 . S
O536 Co512 2.062 . S
O536 C537 1.255 . S
C537 O535 1.256 . S
C537 O536 1.255 . S
H538 C517 0.931 . S
H539 C525 0.931 . S
Co540 N545 2.057 . S
Co540 O557 2.021 . S
Co540 O560 2.062 . S
Co540 O564 2.117 . S
Co540 O565 2.020 . S
C541 O561 1.259 . S
C541 O564 1.258 . S
Co542 N551 2.057 . S
Co542 O558 2.117 . S
Co542 O559 2.020 . S
Co542 O561 2.021 . S
Co542 O566 2.062 . S
C543 N545 1.316 . S
C543 N546 1.347 . S
C543 H548 0.931 . S
C544 N545 1.375 . S
C544 C547 1.350 . S
C544 H549 0.930 . S
N545 Co540 2.057 . S
N545 C543 1.316 . S
N545 C544 1.375 . S
N546 C543 1.347 . S
N546 C547 1.373 . S
C547 C544 1.350 . S
C547 N546 1.373 . S
C547 H568 0.931 . S
H548 C543 0.931 . S
H549 C544 0.930 . S
C550 O557 1.259 . S
C550 O558 1.258 . S
N551 Co542 2.057 . S
N551 C552 1.316 . S
N551 C553 1.375 . S
C552 N551 1.316 . S
C552 N554 1.347 . S
C552 H563 0.931 . S
C553 N551 1.375 . S
C553 C555 1.350 . S
C553 H562 0.930 . S
N554 C552 1.347 . S
N554 C555 1.373 . S
C555 C553 1.350 . S
C555 N554 1.373 . S
C555 H569 0.931 . S
C556 O559 1.256 . S
C556 O560 1.255 . S
O557 Co540 2.021 . S
O557 C550 1.259 . S
O558 Co542 2.117 . S
O558 C550 1.258 . S
O559 Co542 2.020 . S
O559 C556 1.256 . S
O560 Co540 2.062 . S
O560 C556 1.255 . S
O561 C541 1.259 . S
O561 Co542 2.021 . S
H562 C553 0.930 . S
H563 C552 0.931 . S
O564 Co540 2.117 . S
O564 C541 1.258 . S
O565 Co540 2.020 . S
O565 C567 1.256 . S
O566 Co542 2.062 . S
O566 C567 1.255 . S
C567 O565 1.256 . S
C567 O566 1.255 . S
H568 C547 0.931 . S
H569 C555 0.931 . S
Co570 N575 2.057 . S
Co570 O587 2.021 . S
Co570 O590 2.062 . S
Co570 O594 2.117 . S
Co570 O595 2.020 . S
C571 O591 1.259 . S
C571 O594 1.258 . S
Co572 N581 2.057 . S
Co572 O588 2.117 . S
Co572 O589 2.020 . S
Co572 O591 2.021 . S
Co572 O596 2.062 . S
C573 N575 1.316 . S
C573 N576 1.347 . S
C573 H578 0.931 . S
C574 N575 1.375 . S
C574 C577 1.350 . S
C574 H579 0.930 . S
N575 Co570 2.057 . S
N575 C573 1.316 . S
N575 C574 1.375 . S
N576 C573 1.347 . S
N576 C577 1.373 . S
C577 C574 1.350 . S
C577 N576 1.373 . S
C577 H598 0.931 . S
H578 C573 0.931 . S
H579 C574 0.930 . S
C580 O587 1.259 . S
C580 O588 1.258 . S
N581 Co572 2.057 . S
N581 C582 1.316 . S
N581 C583 1.375 . S
C582 N581 1.316 . S
C582 N584 1.347 . S
C582 H593 0.931 . S
C583 N581 1.375 . S
C583 C585 1.350 . S
C583 H592 0.930 . S
N584 C582 1.347 . S
N584 C585 1.373 . S
C585 C583 1.350 . S
C585 N584 1.373 . S
C585 H599 0.931 . S
C586 O589 1.256 . S
C586 O590 1.255 . S
O587 Co570 2.021 . S
O587 C580 1.259 . S
O588 Co572 2.117 . S
O588 C580 1.258 . S
O589 Co572 2.020 . S
O589 C586 1.256 . S
O590 Co570 2.062 . S
O590 C586 1.255 . S
O591 C571 1.259 . S
O591 Co572 2.021 . S
H592 C583 0.930 . S
H593 C582 0.931 . S
O594 Co570 2.117 . S
O594 C571 1.258 . S
O595 Co570 2.020 . S
O595 C597 1.256 . S
O596 Co572 2.062 . S
O596 C597 1.255 . S
C597 O595 1.256 . S
C597 O596 1.255 . S
H598 C577 0.931 . S
H599 C585 0.931 . S
Co600 N605 2.057 . S
Co600 O617 2.021 . S
Co600 O620 2.062 . S
Co600 O624 2.117 . S
Co600 O625 2.020 . S
C601 O621 1.259 . S
C601 O624 1.258 . S
Co602 N611 2.057 . S
Co602 O618 2.117 . S
Co602 O619 2.020 . S
Co602 O621 2.021 . S
Co602 O626 2.062 . S
C603 N605 1.316 . S
C603 N606 1.347 . S
C603 H608 0.931 . S
C604 N605 1.375 . S
C604 C607 1.350 . S
C604 H609 0.930 . S
N605 Co600 2.057 . S
N605 C603 1.316 . S
N605 C604 1.375 . S
N606 C603 1.347 . S
N606 C607 1.373 . S
C607 C604 1.350 . S
C607 N606 1.373 . S
C607 H628 0.931 . S
H608 C603 0.931 . S
H609 C604 0.930 . S
C610 O617 1.259 . S
C610 O618 1.258 . S
N611 Co602 2.057 . S
N611 C612 1.316 . S
N611 C613 1.375 . S
C612 N611 1.316 . S
C612 N614 1.347 . S
C612 H623 0.931 . S
C613 N611 1.375 . S
C613 C615 1.350 . S
C613 H622 0.930 . S
N614 C612 1.347 . S
N614 C615 1.373 . S
C615 C613 1.350 . S
C615 N614 1.373 . S
C615 H629 0.931 . S
C616 O619 1.256 . S
C616 O620 1.255 . S
O617 Co600 2.021 . S
O617 C610 1.259 . S
O618 Co602 2.117 . S
O618 C610 1.258 . S
O619 Co602 2.020 . S
O619 C616 1.256 . S
O620 Co600 2.062 . S
O620 C616 1.255 . S
O621 C601 1.259 . S
O621 Co602 2.021 . S
H622 C613 0.930 . S
H623 C612 0.931 . S
O624 Co600 2.117 . S
O624 C601 1.258 . S
O625 Co600 2.020 . S
O625 C627 1.256 . S
O626 Co602 2.062 . S
O626 C627 1.255 . S
C627 O625 1.256 . S
C627 O626 1.255 . S
H628 C607 0.931 . S
H629 C615 0.931 . S
Co630 N635 2.057 . S
Co630 O647 2.021 . S
Co630 O650 2.062 . S
Co630 O654 2.117 . S
Co630 O655 2.020 . S
C631 O651 1.259 . S
C631 O654 1.258 . S
Co632 N641 2.057 . S
Co632 O648 2.117 . S
Co632 O649 2.020 . S
Co632 O651 2.021 . S
Co632 O656 2.062 . S
C633 N635 1.316 . S
C633 N636 1.347 . S
C633 H638 0.931 . S
C634 N635 1.375 . S
C634 C637 1.350 . S
C634 H639 0.930 . S
N635 Co630 2.057 . S
N635 C633 1.316 . S
N635 C634 1.375 . S
N636 C633 1.347 . S
N636 C637 1.373 . S
C637 C634 1.350 . S
C637 N636 1.373 . S
C637 H658 0.931 1_556 S
H638 C633 0.931 . S
H639 C634 0.930 . S
C640 O647 1.259 . S
C640 O648 1.258 . S
N641 Co632 2.057 . S
N641 C642 1.316 . S
N641 C643 1.375 . S
C642 N641 1.316 . S
C642 N644 1.347 . S
C642 H653 0.931 . S
C643 N641 1.375 . S
C643 C645 1.350 . S
C643 H652 0.930 . S
N644 C642 1.347 . S
N644 C645 1.373 . S
C645 C643 1.350 . S
C645 N644 1.373 . S
C645 H659 0.931 . S
C646 O649 1.256 . S
C646 O650 1.255 . S
O647 Co630 2.021 . S
O647 C640 1.259 . S
O648 Co632 2.117 . S
O648 C640 1.258 . S
O649 Co632 2.020 . S
O649 C646 1.256 . S
O650 Co630 2.062 . S
O650 C646 1.255 . S
O651 C631 1.259 . S
O651 Co632 2.021 . S
H652 C643 0.930 . S
H653 C642 0.931 . S
O654 Co630 2.117 . S
O654 C631 1.258 . S
O655 Co630 2.020 . S
O655 C657 1.256 . S
O656 Co632 2.062 . S
O656 C657 1.255 . S
C657 O655 1.256 . S
C657 O656 1.255 . S
H658 C637 0.931 1_554 S
H659 C645 0.931 . S
Co660 N665 2.057 . S
Co660 O677 2.021 . S
Co660 O680 2.062 . S
Co660 O684 2.117 . S
Co660 O685 2.020 . S
C661 O681 1.259 . S
C661 O684 1.258 . S
Co662 N671 2.057 . S
Co662 O678 2.117 . S
Co662 O679 2.020 . S
Co662 O681 2.021 . S
Co662 O686 2.062 . S
C663 N665 1.316 . S
C663 N666 1.347 . S
C663 H668 0.931 . S
C664 N665 1.375 . S
C664 C667 1.350 . S
C664 H669 0.930 . S
N665 Co660 2.057 . S
N665 C663 1.316 . S
N665 C664 1.375 . S
N666 C663 1.347 . S
N666 C667 1.373 . S
C667 C664 1.350 . S
C667 N666 1.373 . S
C667 H688 0.931 1_556 S
H668 C663 0.931 . S
H669 C664 0.930 . S
C670 O677 1.259 . S
C670 O678 1.258 . S
N671 Co662 2.057 . S
N671 C672 1.316 . S
N671 C673 1.375 . S
C672 N671 1.316 . S
C672 N674 1.347 . S
C672 H683 0.931 . S
C673 N671 1.375 . S
C673 C675 1.350 . S
C673 H682 0.930 . S
N674 C672 1.347 . S
N674 C675 1.373 . S
C675 C673 1.350 . S
C675 N674 1.373 . S
C675 H689 0.931 . S
C676 O679 1.256 . S
C676 O680 1.255 . S
O677 Co660 2.021 . S
O677 C670 1.259 . S
O678 Co662 2.117 . S
O678 C670 1.258 . S
O679 Co662 2.020 . S
O679 C676 1.256 . S
O680 Co660 2.062 . S
O680 C676 1.255 . S
O681 C661 1.259 . S
O681 Co662 2.021 . S
H682 C673 0.930 . S
H683 C672 0.931 . S
O684 Co660 2.117 . S
O684 C661 1.258 . S
O685 Co660 2.020 . S
O685 C687 1.256 . S
O686 Co662 2.062 . S
O686 C687 1.255 . S
C687 O685 1.256 . S
C687 O686 1.255 . S
H688 C667 0.931 1_554 S
H689 C675 0.931 . S
Co690 N695 2.057 . S
Co690 O707 2.021 . S
Co690 O710 2.062 . S
Co690 O714 2.117 . S
Co690 O715 2.020 . S
C691 O711 1.259 . S
C691 O714 1.258 . S
Co692 N701 2.057 . S
Co692 O708 2.117 . S
Co692 O709 2.020 . S
Co692 O711 2.021 . S
Co692 O716 2.062 . S
C693 N695 1.316 . S
C693 N696 1.347 . S
C693 H698 0.931 . S
C694 N695 1.375 . S
C694 C697 1.350 . S
C694 H699 0.930 . S
N695 Co690 2.057 . S
N695 C693 1.316 . S
N695 C694 1.375 . S
N696 C693 1.347 . S
N696 C697 1.373 . S
C697 C694 1.350 . S
C697 N696 1.373 . S
C697 H718 0.931 1_556 S
H698 C693 0.931 . S
H699 C694 0.930 . S
C700 O707 1.259 . S
C700 O708 1.258 . S
N701 Co692 2.057 . S
N701 C702 1.316 . S
N701 C703 1.375 . S
C702 N701 1.316 . S
C702 N704 1.347 . S
C702 H713 0.931 . S
C703 N701 1.375 . S
C703 C705 1.350 . S
C703 H712 0.930 . S
N704 C702 1.347 . S
N704 C705 1.373 . S
C705 C703 1.350 . S
C705 N704 1.373 . S
C705 H719 0.931 . S
C706 O709 1.256 . S
C706 O710 1.255 . S
O707 Co690 2.021 . S
O707 C700 1.259 . S
O708 Co692 2.117 . S
O708 C700 1.258 . S
O709 Co692 2.020 . S
O709 C706 1.256 . S
O710 Co690 2.062 . S
O710 C706 1.255 . S
O711 C691 1.259 . S
O711 Co692 2.021 . S
H712 C703 0.930 . S
H713 C702 0.931 . S
O714 Co690 2.117 . S
O714 C691 1.258 . S
O715 Co690 2.020 . S
O715 C717 1.256 . S
O716 Co692 2.062 . S
O716 C717 1.255 . S
C717 O715 1.256 . S
C717 O716 1.255 . S
H718 C697 0.931 1_554 S
H719 C705 0.931 . S
Co720 N725 2.057 . S
Co720 O737 2.021 . S
Co720 O740 2.062 . S
Co720 O744 2.117 . S
Co720 O745 2.020 . S
C721 O741 1.259 . S
C721 O744 1.258 . S
Co722 N731 2.057 . S
Co722 O738 2.117 . S
Co722 O739 2.020 . S
Co722 O741 2.021 . S
Co722 O746 2.062 . S
C723 N725 1.316 . S
C723 N726 1.347 . S
C723 H728 0.931 . S
C724 N725 1.375 . S
C724 C727 1.350 . S
C724 H729 0.930 . S
N725 Co720 2.057 . S
N725 C723 1.316 . S
N725 C724 1.375 . S
N726 C723 1.347 . S
N726 C727 1.373 . S
C727 C724 1.350 . S
C727 N726 1.373 . S
C727 H748 0.931 . S
H728 C723 0.931 . S
H729 C724 0.930 . S
C730 O737 1.259 . S
C730 O738 1.258 . S
N731 Co722 2.057 . S
N731 C732 1.316 . S
N731 C733 1.375 . S
C732 N731 1.316 . S
C732 N734 1.347 . S
C732 H743 0.931 . S
C733 N731 1.375 . S
C733 C735 1.350 . S
C733 H742 0.930 . S
N734 C732 1.347 . S
N734 C735 1.373 . S
C735 C733 1.350 . S
C735 N734 1.373 . S
C735 H749 0.931 . S
C736 O739 1.256 . S
C736 O740 1.255 . S
O737 Co720 2.021 . S
O737 C730 1.259 . S
O738 Co722 2.117 . S
O738 C730 1.258 . S
O739 Co722 2.020 . S
O739 C736 1.256 . S
O740 Co720 2.062 . S
O740 C736 1.255 . S
O741 C721 1.259 . S
O741 Co722 2.021 . S
H742 C733 0.930 . S
H743 C732 0.931 . S
O744 Co720 2.117 . S
O744 C721 1.258 . S
O745 Co720 2.020 . S
O745 C747 1.256 . S
O746 Co722 2.062 . S
O746 C747 1.255 . S
C747 O745 1.256 . S
C747 O746 1.255 . S
H748 C727 0.931 . S
H749 C735 0.931 . S
Co750 N755 2.057 . S
Co750 O767 2.021 . S
Co750 O770 2.062 . S
Co750 O774 2.117 . S
Co750 O775 2.020 . S
C751 O771 1.259 . S
C751 O774 1.258 . S
Co752 N761 2.057 . S
Co752 O768 2.117 . S
Co752 O769 2.020 . S
Co752 O771 2.021 . S
Co752 O776 2.062 . S
C753 N755 1.316 . S
C753 N756 1.347 . S
C753 H758 0.931 . S
C754 N755 1.375 . S
C754 C757 1.350 . S
C754 H759 0.930 . S
N755 Co750 2.057 . S
N755 C753 1.316 . S
N755 C754 1.375 . S
N756 C753 1.347 . S
N756 C757 1.373 . S
C757 C754 1.350 . S
C757 N756 1.373 . S
C757 H778 0.931 . S
H758 C753 0.931 . S
H759 C754 0.930 . S
C760 O767 1.259 . S
C760 O768 1.258 . S
N761 Co752 2.057 . S
N761 C762 1.316 . S
N761 C763 1.375 . S
C762 N761 1.316 . S
C762 N764 1.347 . S
C762 H773 0.931 . S
C763 N761 1.375 . S
C763 C765 1.350 . S
C763 H772 0.930 . S
N764 C762 1.347 . S
N764 C765 1.373 . S
C765 C763 1.350 . S
C765 N764 1.373 . S
C765 H779 0.931 . S
C766 O769 1.256 . S
C766 O770 1.255 . S
O767 Co750 2.021 . S
O767 C760 1.259 . S
O768 Co752 2.117 . S
O768 C760 1.258 . S
O769 Co752 2.020 . S
O769 C766 1.256 . S
O770 Co750 2.062 . S
O770 C766 1.255 . S
O771 C751 1.259 . S
O771 Co752 2.021 . S
H772 C763 0.930 . S
H773 C762 0.931 . S
O774 Co750 2.117 . S
O774 C751 1.258 . S
O775 Co750 2.020 . S
O775 C777 1.256 . S
O776 Co752 2.062 . S
O776 C777 1.255 . S
C777 O775 1.256 . S
C777 O776 1.255 . S
H778 C757 0.931 . S
H779 C765 0.931 . S
Co780 N785 2.057 . S
Co780 O797 2.021 . S
Co780 O800 2.062 . S
Co780 O804 2.117 . S
Co780 O805 2.020 . S
C781 O801 1.259 . S
C781 O804 1.258 . S
Co782 N791 2.057 . S
Co782 O798 2.117 . S
Co782 O799 2.020 . S
Co782 O801 2.021 . S
Co782 O806 2.062 . S
C783 N785 1.316 . S
C783 N786 1.347 . S
C783 H788 0.931 . S
C784 N785 1.375 . S
C784 C787 1.350 . S
C784 H789 0.930 . S
N785 Co780 2.057 . S
N785 C783 1.316 . S
N785 C784 1.375 . S
N786 C783 1.347 . S
N786 C787 1.373 . S
C787 C784 1.350 . S
C787 N786 1.373 . S
C787 H808 0.931 . S
H788 C783 0.931 . S
H789 C784 0.930 . S
C790 O797 1.259 . S
C790 O798 1.258 . S
N791 Co782 2.057 . S
N791 C792 1.316 . S
N791 C793 1.375 . S
C792 N791 1.316 . S
C792 N794 1.347 . S
C792 H803 0.931 . S
C793 N791 1.375 . S
C793 C795 1.350 . S
C793 H802 0.930 . S
N794 C792 1.347 . S
N794 C795 1.373 . S
C795 C793 1.350 . S
C795 N794 1.373 . S
C795 H809 0.931 . S
C796 O799 1.256 . S
C796 O800 1.255 . S
O797 Co780 2.021 . S
O797 C790 1.259 . S
O798 Co782 2.117 . S
O798 C790 1.258 . S
O799 Co782 2.020 . S
O799 C796 1.256 . S
O800 Co780 2.062 . S
O800 C796 1.255 . S
O801 C781 1.259 . S
O801 Co782 2.021 . S
H802 C793 0.930 . S
H803 C792 0.931 . S
O804 Co780 2.117 . S
O804 C781 1.258 . S
O805 Co780 2.020 . S
O805 C807 1.256 . S
O806 Co782 2.062 . S
O806 C807 1.255 . S
C807 O805 1.256 . S
C807 O806 1.255 . S
H808 C787 0.931 . S
H809 C795 0.931 . S
Co810 N815 2.057 . S
Co810 O827 2.021 . S
Co810 O830 2.062 . S
Co810 O834 2.117 . S
Co810 O835 2.020 . S
C811 O831 1.259 . S
C811 O834 1.258 . S
Co812 N821 2.057 . S
Co812 O828 2.117 . S
Co812 O829 2.020 . S
Co812 O831 2.021 . S
Co812 O836 2.062 . S
C813 N815 1.316 . S
C813 N816 1.347 . S
C813 H818 0.931 . S
C814 N815 1.375 . S
C814 C817 1.350 . S
C814 H819 0.930 . S
N815 Co810 2.057 . S
N815 C813 1.316 . S
N815 C814 1.375 . S
N816 C813 1.347 . S
N816 C817 1.373 . S
C817 C814 1.350 . S
C817 N816 1.373 . S
C817 H838 0.931 . S
H818 C813 0.931 . S
H819 C814 0.930 . S
C820 O827 1.259 . S
C820 O828 1.258 . S
N821 Co812 2.057 . S
N821 C822 1.316 . S
N821 C823 1.375 . S
C822 N821 1.316 . S
C822 N824 1.347 . S
C822 H833 0.931 . S
C823 N821 1.375 . S
C823 C825 1.350 . S
C823 H832 0.930 . S
N824 C822 1.347 . S
N824 C825 1.373 . S
C825 C823 1.350 . S
C825 N824 1.373 . S
C825 H839 0.931 1_554 S
C826 O829 1.256 . S
C826 O830 1.255 . S
O827 Co810 2.021 . S
O827 C820 1.259 . S
O828 Co812 2.117 . S
O828 C820 1.258 . S
O829 Co812 2.020 . S
O829 C826 1.256 . S
O830 Co810 2.062 . S
O830 C826 1.255 . S
O831 C811 1.259 . S
O831 Co812 2.021 . S
H832 C823 0.930 . S
H833 C822 0.931 . S
O834 Co810 2.117 . S
O834 C811 1.258 . S
O835 Co810 2.020 . S
O835 C837 1.256 . S
O836 Co812 2.062 . S
O836 C837 1.255 . S
C837 O835 1.256 . S
C837 O836 1.255 . S
H838 C817 0.931 . S
H839 C825 0.931 1_556 S
Co840 N845 2.057 . S
Co840 O857 2.021 . S
Co840 O860 2.062 . S
Co840 O864 2.117 . S
Co840 O865 2.020 . S
C841 O861 1.259 . S
C841 O864 1.258 . S
Co842 N851 2.057 . S
Co842 O858 2.117 . S
Co842 O859 2.020 . S
Co842 O861 2.021 . S
Co842 O866 2.062 . S
C843 N845 1.316 . S
C843 N846 1.347 . S
C843 H848 0.931 . S
C844 N845 1.375 . S
C844 C847 1.350 . S
C844 H849 0.930 . S
N845 Co840 2.057 . S
N845 C843 1.316 . S
N845 C844 1.375 . S
N846 C843 1.347 . S
N846 C847 1.373 . S
C847 C844 1.350 . S
C847 N846 1.373 . S
C847 H868 0.931 . S
H848 C843 0.931 . S
H849 C844 0.930 . S
C850 O857 1.259 . S
C850 O858 1.258 . S
N851 Co842 2.057 . S
N851 C852 1.316 . S
N851 C853 1.375 . S
C852 N851 1.316 . S
C852 N854 1.347 . S
C852 H863 0.931 . S
C853 N851 1.375 . S
C853 C855 1.350 . S
C853 H862 0.930 . S
N854 C852 1.347 . S
N854 C855 1.373 . S
C855 C853 1.350 . S
C855 N854 1.373 . S
C855 H869 0.931 1_554 S
C856 O859 1.256 . S
C856 O860 1.255 . S
O857 Co840 2.021 . S
O857 C850 1.259 . S
O858 Co842 2.117 . S
O858 C850 1.258 . S
O859 Co842 2.020 . S
O859 C856 1.256 . S
O860 Co840 2.062 . S
O860 C856 1.255 . S
O861 C841 1.259 . S
O861 Co842 2.021 . S
H862 C853 0.930 . S
H863 C852 0.931 . S
O864 Co840 2.117 . S
O864 C841 1.258 . S
O865 Co840 2.020 . S
O865 C867 1.256 . S
O866 Co842 2.062 . S
O866 C867 1.255 . S
C867 O865 1.256 . S
C867 O866 1.255 . S
H868 C847 0.931 . S
H869 C855 0.931 1_556 S
Co870 N875 2.057 . S
Co870 O887 2.021 . S
Co870 O890 2.062 . S
Co870 O894 2.117 . S
Co870 O895 2.020 . S
C871 O891 1.259 . S
C871 O894 1.258 . S
Co872 N881 2.057 . S
Co872 O888 2.117 . S
Co872 O889 2.020 . S
Co872 O891 2.021 . S
Co872 O896 2.062 . S
C873 N875 1.316 . S
C873 N876 1.347 . S
C873 H878 0.931 . S
C874 N875 1.375 . S
C874 C877 1.350 . S
C874 H879 0.930 . S
N875 Co870 2.057 . S
N875 C873 1.316 . S
N875 C874 1.375 . S
N876 C873 1.347 . S
N876 C877 1.373 . S
C877 C874 1.350 . S
C877 N876 1.373 . S
C877 H898 0.931 . S
H878 C873 0.931 . S
H879 C874 0.930 . S
C880 O887 1.259 . S
C880 O888 1.258 . S
N881 Co872 2.057 . S
N881 C882 1.316 . S
N881 C883 1.375 . S
C882 N881 1.316 . S
C882 N884 1.347 . S
C882 H893 0.931 . S
C883 N881 1.375 . S
C883 C885 1.350 . S
C883 H892 0.930 . S
N884 C882 1.347 . S
N884 C885 1.373 . S
C885 C883 1.350 . S
C885 N884 1.373 . S
C885 H899 0.931 1_554 S
C886 O889 1.256 . S
C886 O890 1.255 . S
O887 Co870 2.021 . S
O887 C880 1.259 . S
O888 Co872 2.117 . S
O888 C880 1.258 . S
O889 Co872 2.020 . S
O889 C886 1.256 . S
O890 Co870 2.062 . S
O890 C886 1.255 . S
O891 C871 1.259 . S
O891 Co872 2.021 . S
H892 C883 0.930 . S
H893 C882 0.931 . S
O894 Co870 2.117 . S
O894 C871 1.258 . S
O895 Co870 2.020 . S
O895 C897 1.256 . S
O896 Co872 2.062 . S
O896 C897 1.255 . S
C897 O895 1.256 . S
C897 O896 1.255 . S
H898 C877 0.931 . S
H899 C885 0.931 1_556 S
Co900 N905 2.057 . S
Co900 O917 2.021 . S
Co900 O920 2.062 . S
Co900 O924 2.117 . S
Co900 O925 2.020 . S
C901 O921 1.259 . S
C901 O924 1.258 . S
Co902 N911 2.057 . S
Co902 O918 2.117 . S
Co902 O919 2.020 . S
Co902 O921 2.021 . S
Co902 O926 2.062 . S
C903 N905 1.316 . S
C903 N906 1.347 . S
C903 H908 0.931 . S
C904 N905 1.375 . S
C904 C907 1.350 . S
C904 H909 0.930 . S
N905 Co900 2.057 . S
N905 C903 1.316 . S
N905 C904 1.375 . S
N906 C903 1.347 . S
N906 C907 1.373 . S
C907 C904 1.350 . S
C907 N906 1.373 . S
C907 H928 0.931 . S
H908 C903 0.931 . S
H909 C904 0.930 . S
C910 O917 1.259 . S
C910 O918 1.258 . S
N911 Co902 2.057 . S
N911 C912 1.316 . S
N911 C913 1.375 . S
C912 N911 1.316 . S
C912 N914 1.347 . S
C912 H923 0.931 . S
C913 N911 1.375 . S
C913 C915 1.350 . S
C913 H922 0.930 . S
N914 C912 1.347 . S
N914 C915 1.373 . S
C915 C913 1.350 . S
C915 N914 1.373 . S
C915 H929 0.931 . S
C916 O919 1.256 . S
C916 O920 1.255 . S
O917 Co900 2.021 . S
O917 C910 1.259 . S
O918 Co902 2.117 . S
O918 C910 1.258 . S
O919 Co902 2.020 . S
O919 C916 1.256 . S
O920 Co900 2.062 . S
O920 C916 1.255 . S
O921 C901 1.259 . S
O921 Co902 2.021 . S
H922 C913 0.930 . S
H923 C912 0.931 . S
O924 Co900 2.117 . S
O924 C901 1.258 . S
O925 Co900 2.020 . S
O925 C927 1.256 . S
O926 Co902 2.062 . S
O926 C927 1.255 . S
C927 O925 1.256 . S
C927 O926 1.255 . S
H928 C907 0.931 . S
H929 C915 0.931 . S
Co930 N935 2.057 . S
Co930 O947 2.021 . S
Co930 O950 2.062 . S
Co930 O954 2.117 . S
Co930 O955 2.020 . S
C931 O951 1.259 . S
C931 O954 1.258 . S
Co932 N941 2.057 . S
Co932 O948 2.117 . S
Co932 O949 2.020 . S
Co932 O951 2.021 . S
Co932 O956 2.062 . S
C933 N935 1.316 . S
C933 N936 1.347 . S
C933 H938 0.931 . S
C934 N935 1.375 . S
C934 C937 1.350 . S
C934 H939 0.930 . S
N935 Co930 2.057 . S
N935 C933 1.316 . S
N935 C934 1.375 . S
N936 C933 1.347 . S
N936 C937 1.373 . S
C937 C934 1.350 . S
C937 N936 1.373 . S
C937 H958 0.931 . S
H938 C933 0.931 . S
H939 C934 0.930 . S
C940 O947 1.259 . S
C940 O948 1.258 . S
N941 Co932 2.057 . S
N941 C942 1.316 . S
N941 C943 1.375 . S
C942 N941 1.316 . S
C942 N944 1.347 . S
C942 H953 0.931 . S
C943 N941 1.375 . S
C943 C945 1.350 . S
C943 H952 0.930 . S
N944 C942 1.347 . S
N944 C945 1.373 . S
C945 C943 1.350 . S
C945 N944 1.373 . S
C945 H959 0.931 . S
C946 O949 1.256 . S
C946 O950 1.255 . S
O947 Co930 2.021 . S
O947 C940 1.259 . S
O948 Co932 2.117 . S
O948 C940 1.258 . S
O949 Co932 2.020 . S
O949 C946 1.256 . S
O950 Co930 2.062 . S
O950 C946 1.255 . S
O951 C931 1.259 . S
O951 Co932 2.021 . S
H952 C943 0.930 . S
H953 C942 0.931 . S
O954 Co930 2.117 . S
O954 C931 1.258 . S
O955 Co930 2.020 . S
O955 C957 1.256 . S
O956 Co932 2.062 . S
O956 C957 1.255 . S
C957 O955 1.256 . S
C957 O956 1.255 . S
H958 C937 0.931 . S
H959 C945 0.931 . S
Co960 N965 2.057 . S
Co960 O977 2.021 . S
Co960 O980 2.062 . S
Co960 O984 2.117 . S
Co960 O985 2.020 . S
C961 O981 1.259 . S
C961 O984 1.258 . S
Co962 N971 2.057 . S
Co962 O978 2.117 . S
Co962 O979 2.020 . S
Co962 O981 2.021 . S
Co962 O986 2.062 . S
C963 N965 1.316 . S
C963 N966 1.347 . S
C963 H968 0.931 . S
C964 N965 1.375 . S
C964 C967 1.350 . S
C964 H969 0.930 . S
N965 Co960 2.057 . S
N965 C963 1.316 . S
N965 C964 1.375 . S
N966 C963 1.347 . S
N966 C967 1.373 . S
C967 C964 1.350 . S
C967 N966 1.373 . S
C967 H988 0.931 . S
H968 C963 0.931 . S
H969 C964 0.930 . S
C970 O977 1.259 . S
C970 O978 1.258 . S
N971 Co962 2.057 . S
N971 C972 1.316 . S
N971 C973 1.375 . S
C972 N971 1.316 . S
C972 N974 1.347 . S
C972 H983 0.931 . S
C973 N971 1.375 . S
C973 C975 1.350 . S
C973 H982 0.930 . S
N974 C972 1.347 . S
N974 C975 1.373 . S
C975 C973 1.350 . S
C975 N974 1.373 . S
C975 H989 0.931 . S
C976 O979 1.256 . S
C976 O980 1.255 . S
O977 Co960 2.021 . S
O977 C970 1.259 . S
O978 Co962 2.117 . S
O978 C970 1.258 . S
O979 Co962 2.020 . S
O979 C976 1.256 . S
O980 Co960 2.062 . S
O980 C976 1.255 . S
O981 C961 1.259 . S
O981 Co962 2.021 . S
H982 C973 0.930 . S
H983 C972 0.931 . S
O984 Co960 2.117 . S
O984 C961 1.258 . S
O985 Co960 2.020 . S
O985 C987 1.256 . S
O986 Co962 2.062 . S
O986 C987 1.255 . S
C987 O985 1.256 . S
C987 O986 1.255 . S
H988 C967 0.931 . S
H989 C975 0.931 . S
Co990 N995 2.057 . S
Co990 O1007 2.021 . S
Co990 O1010 2.062 . S
Co990 O1014 2.117 . S
Co990 O1015 2.020 . S
C991 O1011 1.259 . S
C991 O1014 1.258 . S
Co992 N1001 2.057 . S
Co992 O1008 2.117 . S
Co992 O1009 2.020 . S
Co992 O1011 2.021 . S
Co992 O1016 2.062 . S
C993 N995 1.316 . S
C993 N996 1.347 . S
C993 H998 0.931 . S
C994 N995 1.375 . S
C994 C997 1.350 . S
C994 H999 0.930 . S
N995 Co990 2.057 . S
N995 C993 1.316 . S
N995 C994 1.375 . S
N996 C993 1.347 . S
N996 C997 1.373 . S
C997 C994 1.350 . S
C997 N996 1.373 . S
C997 H1018 0.931 . S
H998 C993 0.931 . S
H999 C994 0.930 . S
C1000 O1007 1.259 . S
C1000 O1008 1.258 . S
N1001 Co992 2.057 . S
N1001 C1002 1.316 . S
N1001 C1003 1.375 . S
C1002 N1001 1.316 . S
C1002 N1004 1.347 . S
C1002 H1013 0.931 . S
C1003 N1001 1.375 . S
C1003 C1005 1.350 . S
C1003 H1012 0.930 . S
N1004 C1002 1.347 . S
N1004 C1005 1.373 . S
C1005 C1003 1.350 . S
C1005 N1004 1.373 . S
C1005 H1019 0.931 . S
C1006 O1009 1.256 . S
C1006 O1010 1.255 . S
O1007 Co990 2.021 . S
O1007 C1000 1.259 . S
O1008 Co992 2.117 . S
O1008 C1000 1.258 . S
O1009 Co992 2.020 . S
O1009 C1006 1.256 . S
O1010 Co990 2.062 . S
O1010 C1006 1.255 . S
O1011 C991 1.259 . S
O1011 Co992 2.021 . S
H1012 C1003 0.930 . S
H1013 C1002 0.931 . S
O1014 Co990 2.117 . S
O1014 C991 1.258 . S
O1015 Co990 2.020 . S
O1015 C1017 1.256 . S
O1016 Co992 2.062 . S
O1016 C1017 1.255 . S
C1017 O1015 1.256 . S
C1017 O1016 1.255 . S
H1018 C997 0.931 . S
H1019 C1005 0.931 . S
Co1020 N1025 2.057 . S
Co1020 O1037 2.021 . S
Co1020 O1040 2.062 . S
Co1020 O1044 2.117 . S
Co1020 O1045 2.020 . S
C1021 O1041 1.259 . S
C1021 O1044 1.258 . S
Co1022 N1031 2.057 . S
Co1022 O1038 2.117 . S
Co1022 O1039 2.020 . S
Co1022 O1041 2.021 . S
Co1022 O1046 2.062 . S
C1023 N1025 1.316 . S
C1023 N1026 1.347 . S
C1023 H1028 0.931 . S
C1024 N1025 1.375 . S
C1024 C1027 1.350 . S
C1024 H1029 0.930 . S
N1025 Co1020 2.057 . S
N1025 C1023 1.316 . S
N1025 C1024 1.375 . S
N1026 C1023 1.347 . S
N1026 C1027 1.373 . S
C1027 C1024 1.350 . S
C1027 N1026 1.373 . S
C1027 H1048 0.931 . S
H1028 C1023 0.931 . S
H1029 C1024 0.930 . S
C1030 O1037 1.259 . S
C1030 O1038 1.258 . S
N1031 Co1022 2.057 . S
N1031 C1032 1.316 . S
N1031 C1033 1.375 . S
C1032 N1031 1.316 . S
C1032 N1034 1.347 . S
C1032 H1043 0.931 . S
C1033 N1031 1.375 . S
C1033 C1035 1.350 . S
C1033 H1042 0.930 . S
N1034 C1032 1.347 . S
N1034 C1035 1.373 . S
C1035 C1033 1.350 . S
C1035 N1034 1.373 . S
C1035 H1049 0.931 . S
C1036 O1039 1.256 . S
C1036 O1040 1.255 . S
O1037 Co1020 2.021 . S
O1037 C1030 1.259 . S
O1038 Co1022 2.117 . S
O1038 C1030 1.258 . S
O1039 Co1022 2.020 . S
O1039 C1036 1.256 . S
O1040 Co1020 2.062 . S
O1040 C1036 1.255 . S
O1041 C1021 1.259 . S
O1041 Co1022 2.021 . S
H1042 C1033 0.930 . S
H1043 C1032 0.931 . S
O1044 Co1020 2.117 . S
O1044 C1021 1.258 . S
O1045 Co1020 2.020 . S
O1045 C1047 1.256 . S
O1046 Co1022 2.062 . S
O1046 C1047 1.255 . S
C1047 O1045 1.256 . S
C1047 O1046 1.255 . S
H1048 C1027 0.931 . S
H1049 C1035 0.931 . S
Co1050 N1055 2.057 . S
Co1050 O1067 2.021 . S
Co1050 O1070 2.062 . S
Co1050 O1074 2.117 . S
Co1050 O1075 2.020 . S
C1051 O1071 1.259 . S
C1051 O1074 1.258 . S
Co1052 N1061 2.057 . S
Co1052 O1068 2.117 . S
Co1052 O1069 2.020 . S
Co1052 O1071 2.021 . S
Co1052 O1076 2.062 . S
C1053 N1055 1.316 . S
C1053 N1056 1.347 . S
C1053 H1058 0.931 . S
C1054 N1055 1.375 . S
C1054 C1057 1.350 . S
C1054 H1059 0.930 . S
N1055 Co1050 2.057 . S
N1055 C1053 1.316 . S
N1055 C1054 1.375 . S
N1056 C1053 1.347 . S
N1056 C1057 1.373 . S
C1057 C1054 1.350 . S
C1057 N1056 1.373 . S
C1057 H1078 0.931 . S
H1058 C1053 0.931 . S
H1059 C1054 0.930 . S
C1060 O1067 1.259 . S
C1060 O1068 1.258 . S
N1061 Co1052 2.057 . S
N1061 C1062 1.316 . S
N1061 C1063 1.375 . S
C1062 N1061 1.316 . S
C1062 N1064 1.347 . S
C1062 H1073 0.931 . S
C1063 N1061 1.375 . S
C1063 C1065 1.350 . S
C1063 H1072 0.930 . S
N1064 C1062 1.347 . S
N1064 C1065 1.373 . S
C1065 C1063 1.350 . S
C1065 N1064 1.373 . S
C1065 H1079 0.931 . S
C1066 O1069 1.256 . S
C1066 O1070 1.255 . S
O1067 Co1050 2.021 . S
O1067 C1060 1.259 . S
O1068 Co1052 2.117 . S
O1068 C1060 1.258 . S
O1069 Co1052 2.020 . S
O1069 C1066 1.256 . S
O1070 Co1050 2.062 . S
O1070 C1066 1.255 . S
O1071 C1051 1.259 . S
O1071 Co1052 2.021 . S
H1072 C1063 0.930 . S
H1073 C1062 0.931 . S
O1074 Co1050 2.117 . S
O1074 C1051 1.258 . S
O1075 Co1050 2.020 . S
O1075 C1077 1.256 . S
O1076 Co1052 2.062 . S
O1076 C1077 1.255 . S
C1077 O1075 1.256 . S
C1077 O1076 1.255 . S
H1078 C1057 0.931 . S
H1079 C1065 0.931 . S
H1080 C1086 0.944 . S
H1081 C1090 0.930 . S
H1082 C1095 0.929 . S
H1083 C1093 0.929 . S
H1084 C1088 0.929 . S
H1085 C1094 0.929 1_556 S
C1086 H1080 0.944 . S
C1086 C1087 1.367 . S
C1086 C1094 1.378 . S
C1087 C1086 1.367 . S
C1087 C1095 1.433 . S
C1088 H1084 0.929 . S
C1088 C1090 1.378 . S
C1088 C1092 1.350 . S
C1089 C1092 1.463 . S
C1089 C1094 1.350 . S
C1089 N1097 1.427 . S
C1090 H1081 0.930 . S
C1090 C1088 1.378 . S
C1090 C1091 1.376 . S
C1091 C1090 1.376 . S
C1091 C1093 1.427 1_554 S
C1092 C1088 1.350 . S
C1092 C1089 1.463 . S
C1092 N1096 1.427 1_554 S
C1093 H1083 0.929 . S
C1093 C1091 1.427 1_556 S
C1093 N1096 1.384 . S
C1094 H1085 0.929 1_554 S
C1094 C1086 1.378 . S
C1094 C1089 1.350 . S
C1095 H1082 0.929 . S
C1095 C1087 1.433 . S
C1095 N1097 1.384 . S
N1096 C1092 1.427 1_556 S
N1096 C1093 1.384 . S
N1097 C1089 1.427 . S
N1097 C1095 1.384 . S
H1098 C1104 0.930 . S
H1099 C1108 0.930 1_556 S
H1100 C1113 0.929 . S
H1101 C1111 0.929 . S
H1102 C1106 0.929 1_556 S
H1103 C1112 0.929 . S
C1104 H1098 0.930 . S
C1104 C1105 1.381 . S
C1104 C1112 1.378 . S
C1105 C1104 1.381 . S
C1105 C1113 1.423 1_554 S
C1106 H1102 0.929 1_554 S
C1106 C1108 1.378 . S
C1106 C1110 1.350 . S
C1107 C1110 1.463 . S
C1107 C1112 1.350 . S
C1107 N1115 1.427 1_554 S
C1108 H1099 0.930 1_554 S
C1108 C1106 1.378 . S
C1108 C1109 1.367 . S
C1109 C1108 1.367 . S
C1109 C1111 1.433 . S
C1110 C1106 1.350 . S
C1110 C1107 1.463 . S
C1110 N1114 1.427 . S
C1111 H1101 0.929 . S
C1111 C1109 1.433 . S
C1111 N1114 1.384 . S
C1112 H1103 0.929 . S
C1112 C1104 1.378 . S
C1112 C1107 1.350 . S
C1113 H1100 0.929 . S
C1113 C1105 1.423 1_556 S
C1113 N1115 1.384 . S
N1114 C1110 1.427 . S
N1114 C1111 1.384 . S
N1115 C1107 1.427 1_556 S
N1115 C1113 1.384 . S
H1116 C1122 0.930 . S
H1117 C1126 0.930 . S
H1118 C1131 0.929 . S
H1119 C1129 0.929 . S
H1120 C1124 0.929 . S
H1121 C1130 0.928 . S
C1122 H1116 0.930 . S
C1122 C1123 1.371 . S
C1122 C1130 1.377 . S
C1123 C1122 1.371 . S
C1123 C1131 1.425 1_556 S
C1124 H1120 0.929 . S
C1124 C1126 1.378 . S
C1124 C1128 1.350 . S
C1125 C1128 1.463 . S
C1125 C1130 1.351 1_554 S
C1125 N1133 1.427 . S
C1126 H1117 0.930 . S
C1126 C1124 1.378 . S
C1126 C1127 1.367 . S
C1127 C1126 1.367 . S
C1127 C1129 1.433 . S
C1128 C1124 1.350 . S
C1128 C1125 1.463 . S
C1128 N1132 1.427 . S
C1129 H1119 0.929 . S
C1129 C1127 1.433 . S
C1129 N1132 1.384 . S
C1130 H1121 0.928 . S
C1130 C1122 1.377 . S
C1130 C1125 1.351 1_556 S
C1131 H1118 0.929 . S
C1131 C1123 1.425 1_554 S
C1131 N1133 1.384 . S
N1132 C1128 1.427 . S
N1132 C1129 1.384 . S
N1133 C1125 1.427 . S
N1133 C1131 1.384 . S
H1134 C1140 0.930 . S
H1135 C1144 0.930 . S
H1136 C1149 0.929 . S
H1137 C1147 0.929 . S
H1138 C1142 0.929 . S
H1139 C1148 0.929 . S
C1140 H1134 0.930 . S
C1140 C1141 1.367 . S
C1140 C1148 1.378 . S
C1141 C1140 1.367 . S
C1141 C1149 1.433 . S
C1142 H1138 0.929 . S
C1142 C1144 1.378 . S
C1142 C1146 1.350 . S
C1143 C1146 1.463 . S
C1143 C1148 1.350 . S
C1143 N1151 1.427 . S
C1144 H1135 0.930 . S
C1144 C1142 1.378 . S
C1144 C1145 1.367 . S
C1145 C1144 1.367 . S
C1145 C1147 1.433 . S
C1146 C1142 1.350 . S
C1146 C1143 1.463 . S
C1146 N1150 1.427 . S
C1147 H1137 0.929 . S
C1147 C1145 1.433 . S
C1147 N1150 1.384 . S
C1148 H1139 0.929 . S
C1148 C1140 1.378 . S
C1148 C1143 1.350 . S
C1149 H1136 0.929 . S
C1149 C1141 1.433 . S
C1149 N1151 1.384 . S
N1150 C1146 1.427 . S
N1150 C1147 1.384 . S
N1151 C1143 1.427 . S
N1151 C1149 1.384 . S
H1152 C1158 0.930 . S
H1153 C1162 0.930 . S
H1154 C1167 0.929 . S
H1155 C1165 0.929 . S
H1156 C1160 0.929 . S
H1157 C1166 0.929 . S
C1158 H1152 0.930 . S
C1158 C1159 1.367 . S
C1158 C1166 1.378 . S
C1159 C1158 1.367 . S
C1159 C1167 1.433 . S
C1160 H1156 0.929 . S
C1160 C1162 1.378 . S
C1160 C1164 1.350 . S
C1161 C1164 1.463 . S
C1161 C1166 1.350 . S
C1161 N1169 1.427 . S
C1162 H1153 0.930 . S
C1162 C1160 1.378 . S
C1162 C1163 1.367 . S
C1163 C1162 1.367 . S
C1163 C1165 1.433 . S
C1164 C1160 1.350 . S
C1164 C1161 1.463 . S
C1164 N1168 1.427 . S
C1165 H1155 0.929 . S
C1165 C1163 1.433 . S
C1165 N1168 1.384 . S
C1166 H1157 0.929 . S
C1166 C1158 1.378 . S
C1166 C1161 1.350 . S
C1167 H1154 0.929 . S
C1167 C1159 1.433 . S
C1167 N1169 1.384 . S
N1168 C1164 1.427 . S
N1168 C1165 1.384 . S
N1169 C1161 1.427 . S
N1169 C1167 1.384 . S
H1170 C1176 0.930 . S
H1171 C1180 0.930 . S
H1172 C1185 0.929 . S
H1173 C1183 0.929 . S
H1174 C1178 0.929 . S
H1175 C1184 0.929 . S
C1176 H1170 0.930 . S
C1176 C1177 1.367 . S
C1176 C1184 1.378 . S
C1177 C1176 1.367 . S
C1177 C1185 1.433 . S
C1178 H1174 0.929 . S
C1178 C1180 1.378 . S
C1178 C1182 1.350 . S
C1179 C1182 1.463 . S
C1179 C1184 1.350 . S
C1179 N1187 1.427 . S
C1180 H1171 0.930 . S
C1180 C1178 1.378 . S
C1180 C1181 1.367 . S
C1181 C1180 1.367 . S
C1181 C1183 1.433 . S
C1182 C1178 1.350 . S
C1182 C1179 1.463 . S
C1182 N1186 1.427 . S
C1183 H1173 0.929 . S
C1183 C1181 1.433 . S
C1183 N1186 1.384 . S
C1184 H1175 0.929 . S
C1184 C1176 1.378 . S
C1184 C1179 1.350 . S
C1185 H1172 0.929 . S
C1185 C1177 1.433 . S
C1185 N1187 1.384 . S
N1186 C1182 1.427 . S
N1186 C1183 1.384 . S
N1187 C1179 1.427 . S
N1187 C1185 1.384 . S
H1188 C1194 0.930 . S
H1189 C1198 0.930 1_554 S
H1190 C1203 0.929 . S
H1191 C1201 0.929 . S
H1192 C1196 0.929 1_554 S
H1193 C1202 0.929 . S
C1194 H1188 0.930 . S
C1194 C1195 1.380 . S
C1194 C1202 1.378 . S
C1195 C1194 1.380 . S
C1195 C1203 1.423 1_556 S
C1196 H1192 0.929 1_556 S
C1196 C1198 1.378 . S
C1196 C1200 1.350 . S
C1197 C1200 1.463 . S
C1197 C1202 1.350 . S
C1197 N1205 1.427 1_556 S
C1198 H1189 0.930 1_556 S
C1198 C1196 1.378 . S
C1198 C1199 1.367 . S
C1199 C1198 1.367 . S
C1199 C1201 1.433 . S
C1200 C1196 1.350 . S
C1200 C1197 1.463 . S
C1200 N1204 1.427 . S
C1201 H1191 0.929 . S
C1201 C1199 1.433 . S
C1201 N1204 1.384 . S
C1202 H1193 0.929 . S
C1202 C1194 1.378 . S
C1202 C1197 1.350 . S
C1203 H1190 0.929 . S
C1203 C1195 1.423 1_554 S
C1203 N1205 1.384 . S
N1204 C1200 1.427 . S
N1204 C1201 1.384 . S
N1205 C1197 1.427 1_554 S
N1205 C1203 1.384 . S
H1206 C1212 0.930 . S
H1207 C1216 0.930 . S
H1208 C1221 0.927 . S
H1209 C1219 0.929 . S
H1210 C1214 0.929 . S
H1211 C1220 0.929 . S
C1212 H1206 0.930 . S
C1212 C1213 1.367 . S
C1212 C1220 1.378 . S
C1213 C1212 1.367 . S
C1213 C1221 1.433 . S
C1214 H1210 0.929 . S
C1214 C1216 1.378 . S
C1214 C1218 1.350 1_554 S
C1215 C1218 1.463 . S
C1215 C1220 1.350 . S
C1215 N1223 1.427 . S
C1216 H1207 0.930 . S
C1216 C1214 1.378 . S
C1216 C1217 1.384 . S
C1217 C1216 1.384 . S
C1217 C1219 1.410 1_554 S
C1218 C1214 1.350 1_556 S
C1218 C1215 1.463 . S
C1218 N1222 1.427 . S
C1219 H1209 0.929 . S
C1219 C1217 1.410 1_556 S
C1219 N1222 1.384 . S
C1220 H1211 0.929 . S
C1220 C1212 1.378 . S
C1220 C1215 1.350 . S
C1221 H1208 0.927 . S
C1221 C1213 1.433 . S
C1221 N1223 1.384 . S
N1222 C1218 1.427 . S
N1222 C1219 1.384 . S
N1223 C1215 1.427 . S
N1223 C1221 1.384 . S
H1224 C1230 0.930 . S
H1225 C1234 0.930 . S
H1226 C1239 0.931 . S
H1227 C1237 0.929 . S
H1228 C1232 0.929 . S
H1229 C1238 0.929 . S
C1230 H1224 0.930 . S
C1230 C1231 1.367 1_556 S
C1230 C1238 1.378 . S
C1231 C1230 1.367 1_554 S
C1231 C1239 1.433 . S
C1232 H1228 0.929 . S
C1232 C1234 1.378 . S
C1232 C1236 1.350 . S
C1233 C1236 1.463 . S
C1233 C1238 1.350 . S
C1233 N1241 1.427 . S
C1234 H1225 0.930 . S
C1234 C1232 1.378 . S
C1234 C1235 1.367 . S
C1235 C1234 1.367 . S
C1235 C1237 1.433 . S
C1236 C1232 1.350 . S
C1236 C1233 1.463 . S
C1236 N1240 1.427 . S
C1237 H1227 0.929 . S
C1237 C1235 1.433 . S
C1237 N1240 1.384 . S
C1238 H1229 0.929 . S
C1238 C1230 1.378 . S
C1238 C1233 1.350 . S
C1239 H1226 0.931 . S
C1239 C1231 1.433 . S
C1239 N1241 1.382 1_554 S
N1240 C1236 1.427 . S
N1240 C1237 1.384 . S
N1241 C1233 1.427 . S
N1241 C1239 1.382 1_556 S
H1242 C1248 0.930 . S
H1243 C1252 0.930 . S
H1244 C1257 0.929 . S
H1245 C1255 0.929 . S
H1246 C1250 0.929 . S
H1247 C1256 0.929 . S
C1248 H1242 0.930 . S
C1248 C1249 1.367 . S
C1248 C1256 1.378 . S
C1249 C1248 1.367 . S
C1249 C1257 1.433 . S
C1250 H1246 0.929 . S
C1250 C1252 1.378 . S
C1250 C1254 1.350 . S
C1251 C1254 1.463 . S
C1251 C1256 1.350 . S
C1251 N1259 1.427 . S
C1252 H1243 0.930 . S
C1252 C1250 1.378 . S
C1252 C1253 1.367 . S
C1253 C1252 1.367 . S
C1253 C1255 1.433 . S
C1254 C1250 1.350 . S
C1254 C1251 1.463 . S
C1254 N1258 1.427 . S
C1255 H1245 0.929 . S
C1255 C1253 1.433 . S
C1255 N1258 1.384 . S
C1256 H1247 0.929 . S
C1256 C1248 1.378 . S
C1256 C1251 1.350 . S
C1257 H1244 0.929 . S
C1257 C1249 1.433 . S
C1257 N1259 1.384 . S
N1258 C1254 1.427 . S
N1258 C1255 1.384 . S
N1259 C1251 1.427 . S
N1259 C1257 1.384 . S
H1260 C1266 0.930 . S
H1261 C1270 0.930 . S
H1262 C1275 0.929 . S
H1263 C1273 0.929 . S
H1264 C1268 0.929 . S
H1265 C1274 0.929 . S
C1266 H1260 0.930 . S
C1266 C1267 1.367 . S
C1266 C1274 1.378 . S
C1267 C1266 1.367 . S
C1267 C1275 1.433 . S
C1268 H1264 0.929 . S
C1268 C1270 1.378 . S
C1268 C1272 1.350 . S
C1269 C1272 1.463 . S
C1269 C1274 1.350 . S
C1269 N1277 1.427 . S
C1270 H1261 0.930 . S
C1270 C1268 1.378 . S
C1270 C1271 1.367 . S
C1271 C1270 1.367 . S
C1271 C1273 1.433 . S
C1272 C1268 1.350 . S
C1272 C1269 1.463 . S
C1272 N1276 1.427 . S
C1273 H1263 0.929 . S
C1273 C1271 1.433 . S
C1273 N1276 1.384 . S
C1274 H1265 0.929 . S
C1274 C1266 1.378 . S
C1274 C1269 1.350 . S
C1275 H1262 0.929 . S
C1275 C1267 1.433 . S
C1275 N1277 1.384 . S
N1276 C1272 1.427 . S
N1276 C1273 1.384 . S
N1277 C1269 1.427 . S
N1277 C1275 1.384 . S
H1278 C1284 0.930 . S
H1279 C1288 0.930 . S
H1280 C1293 0.929 . S
H1281 C1291 0.929 . S
H1282 C1286 0.929 . S
H1283 C1292 0.929 . S
C1284 H1278 0.930 . S
C1284 C1285 1.367 . S
C1284 C1292 1.378 . S
C1285 C1284 1.367 . S
C1285 C1293 1.433 . S
C1286 H1282 0.929 . S
C1286 C1288 1.378 . S
C1286 C1290 1.350 . S
C1287 C1290 1.463 . S
C1287 C1292 1.350 . S
C1287 N1295 1.427 . S
C1288 H1279 0.930 . S
C1288 C1286 1.378 . S
C1288 C1289 1.367 . S
C1289 C1288 1.367 . S
C1289 C1291 1.433 . S
C1290 C1286 1.350 . S
C1290 C1287 1.463 . S
C1290 N1294 1.427 . S
C1291 H1281 0.929 . S
C1291 C1289 1.433 . S
C1291 N1294 1.384 . S
C1292 H1283 0.929 . S
C1292 C1284 1.378 . S
C1292 C1287 1.350 . S
C1293 H1280 0.929 . S
C1293 C1285 1.433 . S
C1293 N1295 1.384 . S
N1294 C1290 1.427 . S
N1294 C1291 1.384 . S
N1295 C1287 1.427 . S
N1295 C1293 1.384 . S
H1296 C1302 0.930 . S
H1297 C1306 0.930 . S
H1298 C1311 0.929 . S
H1299 C1309 0.929 . S
H1300 C1304 0.929 . S
H1301 C1310 0.929 . S
C1302 H1296 0.930 . S
C1302 C1303 1.367 . S
C1302 C1310 1.378 . S
C1303 C1302 1.367 . S
C1303 C1311 1.433 . S
C1304 H1300 0.929 . S
C1304 C1306 1.378 . S
C1304 C1308 1.350 . S
C1305 C1308 1.463 . S
C1305 C1310 1.350 . S
C1305 N1313 1.427 . S
C1306 H1297 0.930 . S
C1306 C1304 1.378 . S
C1306 C1307 1.367 . S
C1307 C1306 1.367 . S
C1307 C1309 1.433 . S
C1308 C1304 1.350 . S
C1308 C1305 1.463 . S
C1308 N1312 1.427 . S
C1309 H1299 0.929 . S
C1309 C1307 1.433 . S
C1309 N1312 1.384 . S
C1310 H1301 0.929 . S
C1310 C1302 1.378 . S
C1310 C1305 1.350 . S
C1311 H1298 0.929 . S
C1311 C1303 1.433 . S
C1311 N1313 1.384 . S
N1312 C1308 1.427 . S
N1312 C1309 1.384 . S
N1313 C1305 1.427 . S
N1313 C1311 1.384 . S
H1314 C1320 0.930 . S
H1315 C1324 0.930 . S
H1316 C1329 0.929 . S
H1317 C1327 0.929 . S
H1318 C1322 0.929 . S
H1319 C1328 0.929 . S
C1320 H1314 0.930 . S
C1320 C1321 1.367 . S
C1320 C1328 1.378 . S
C1321 C1320 1.367 . S
C1321 C1329 1.433 . S
C1322 H1318 0.929 . S
C1322 C1324 1.378 . S
C1322 C1326 1.350 . S
C1323 C1326 1.463 . S
C1323 C1328 1.350 . S
C1323 N1331 1.427 . S
C1324 H1315 0.930 . S
C1324 C1322 1.378 . S
C1324 C1325 1.367 . S
C1325 C1324 1.367 . S
C1325 C1327 1.433 . S
C1326 C1322 1.350 . S
C1326 C1323 1.463 . S
C1326 N1330 1.427 . S
C1327 H1317 0.929 . S
C1327 C1325 1.433 . S
C1327 N1330 1.384 . S
C1328 H1319 0.929 . S
C1328 C1320 1.378 . S
C1328 C1323 1.350 . S
C1329 H1316 0.929 . S
C1329 C1321 1.433 . S
C1329 N1331 1.384 . S
N1330 C1326 1.427 . S
N1330 C1327 1.384 . S
N1331 C1323 1.427 . S
N1331 C1329 1.384 . S
H1332 C1338 0.930 . S
H1333 C1342 0.930 . S
H1334 C1347 0.929 . S
H1335 C1345 0.929 . S
H1336 C1340 0.929 . S
H1337 C1346 0.929 . S
C1338 H1332 0.930 . S
C1338 C1339 1.367 . S
C1338 C1346 1.378 . S
C1339 C1338 1.367 . S
C1339 C1347 1.433 . S
C1340 H1336 0.929 . S
C1340 C1342 1.378 . S
C1340 C1344 1.350 . S
C1341 C1344 1.463 . S
C1341 C1346 1.350 . S
C1341 N1349 1.427 . S
C1342 H1333 0.930 . S
C1342 C1340 1.378 . S
C1342 C1343 1.367 . S
C1343 C1342 1.367 . S
C1343 C1345 1.433 . S
C1344 C1340 1.350 . S
C1344 C1341 1.463 . S
C1344 N1348 1.427 . S
C1345 H1335 0.929 . S
C1345 C1343 1.433 . S
C1345 N1348 1.384 . S
C1346 H1337 0.929 . S
C1346 C1338 1.378 . S
C1346 C1341 1.350 . S
C1347 H1334 0.929 . S
C1347 C1339 1.433 . S
C1347 N1349 1.384 . S
N1348 C1344 1.427 . S
N1348 C1345 1.384 . S
N1349 C1341 1.427 . S
N1349 C1347 1.384 . S
H1350 C1356 0.930 . S
H1351 C1360 0.930 . S
H1352 C1365 0.929 . S
H1353 C1363 0.929 . S
H1354 C1358 0.929 . S
H1355 C1364 0.929 . S
C1356 H1350 0.930 . S
C1356 C1357 1.367 . S
C1356 C1364 1.378 . S
C1357 C1356 1.367 . S
C1357 C1365 1.433 . S
C1358 H1354 0.929 . S
C1358 C1360 1.378 . S
C1358 C1362 1.350 . S
C1359 C1362 1.463 . S
C1359 C1364 1.350 . S
C1359 N1367 1.427 . S
C1360 H1351 0.930 . S
C1360 C1358 1.378 . S
C1360 C1361 1.367 . S
C1361 C1360 1.367 . S
C1361 C1363 1.433 . S
C1362 C1358 1.350 . S
C1362 C1359 1.463 . S
C1362 N1366 1.427 . S
C1363 H1353 0.929 . S
C1363 C1361 1.433 . S
C1363 N1366 1.384 . S
C1364 H1355 0.929 . S
C1364 C1356 1.378 . S
C1364 C1359 1.350 . S
C1365 H1352 0.929 . S
C1365 C1357 1.433 . S
C1365 N1367 1.384 . S
N1366 C1362 1.427 . S
N1366 C1363 1.384 . S
N1367 C1359 1.427 . S
N1367 C1365 1.384 . S
H1368 C1374 0.930 . S
H1369 C1378 0.930 . S
H1370 C1383 0.929 . S
H1371 C1381 0.929 . S
H1372 C1376 0.929 . S
H1373 C1382 0.929 . S
C1374 H1368 0.930 . S
C1374 C1375 1.367 . S
C1374 C1382 1.378 . S
C1375 C1374 1.367 . S
C1375 C1383 1.433 . S
C1376 H1372 0.929 . S
C1376 C1378 1.378 . S
C1376 C1380 1.350 . S
C1377 C1380 1.463 . S
C1377 C1382 1.350 . S
C1377 N1385 1.427 . S
C1378 H1369 0.930 . S
C1378 C1376 1.378 . S
C1378 C1379 1.367 . S
C1379 C1378 1.367 . S
C1379 C1381 1.433 . S
C1380 C1376 1.350 . S
C1380 C1377 1.463 . S
C1380 N1384 1.427 . S
C1381 H1371 0.929 . S
C1381 C1379 1.433 . S
C1381 N1384 1.384 . S
C1382 H1373 0.929 . S
C1382 C1374 1.378 . S
C1382 C1377 1.350 . S
C1383 H1370 0.929 . S
C1383 C1375 1.433 . S
C1383 N1385 1.384 . S
N1384 C1380 1.427 . S
N1384 C1381 1.384 . S
N1385 C1377 1.427 . S
N1385 C1383 1.384 . S
H1386 C1392 0.930 . S
H1387 C1396 0.930 . S
H1388 C1401 0.929 . S
H1389 C1399 0.929 . S
H1390 C1394 0.929 . S
H1391 C1400 0.929 . S
C1392 H1386 0.930 . S
C1392 C1393 1.367 . S
C1392 C1400 1.378 . S
C1393 C1392 1.367 . S
C1393 C1401 1.433 . S
C1394 H1390 0.929 . S
C1394 C1396 1.378 . S
C1394 C1398 1.350 . S
C1395 C1398 1.463 . S
C1395 C1400 1.350 . S
C1395 N1403 1.427 . S
C1396 H1387 0.930 . S
C1396 C1394 1.378 . S
C1396 C1397 1.367 . S
C1397 C1396 1.367 . S
C1397 C1399 1.433 . S
C1398 C1394 1.350 . S
C1398 C1395 1.463 . S
C1398 N1402 1.427 . S
C1399 H1389 0.929 . S
C1399 C1397 1.433 . S
C1399 N1402 1.384 . S
C1400 H1391 0.929 . S
C1400 C1392 1.378 . S
C1400 C1395 1.350 . S
C1401 H1388 0.929 . S
C1401 C1393 1.433 . S
C1401 N1403 1.384 . S
N1402 C1398 1.427 . S
N1402 C1399 1.384 . S
N1403 C1395 1.427 . S
N1403 C1401 1.384 . S
H1404 C1410 0.930 . S
H1405 C1414 0.930 . S
H1406 C1419 0.929 . S
H1407 C1417 0.929 . S
H1408 C1412 0.929 . S
H1409 C1418 0.929 . S
C1410 H1404 0.930 . S
C1410 C1411 1.367 . S
C1410 C1418 1.378 . S
C1411 C1410 1.367 . S
C1411 C1419 1.433 . S
C1412 H1408 0.929 . S
C1412 C1414 1.378 . S
C1412 C1416 1.350 . S
C1413 C1416 1.463 . S
C1413 C1418 1.350 . S
C1413 N1421 1.427 . S
C1414 H1405 0.930 . S
C1414 C1412 1.378 . S
C1414 C1415 1.367 . S
C1415 C1414 1.367 . S
C1415 C1417 1.433 . S
C1416 C1412 1.350 . S
C1416 C1413 1.463 . S
C1416 N1420 1.427 . S
C1417 H1407 0.929 . S
C1417 C1415 1.433 . S
C1417 N1420 1.384 . S
C1418 H1409 0.929 . S
C1418 C1410 1.378 . S
C1418 C1413 1.350 . S
C1419 H1406 0.929 . S
C1419 C1411 1.433 . S
C1419 N1421 1.384 . S
N1420 C1416 1.427 . S
N1420 C1417 1.384 . S
N1421 C1413 1.427 . S
N1421 C1419 1.384 . S
H1422 C1428 0.930 . S
H1423 C1432 0.930 . S
H1424 C1437 0.929 . S
H1425 C1435 0.929 . S
H1426 C1430 0.929 . S
H1427 C1436 0.929 . S
C1428 H1422 0.930 . S
C1428 C1429 1.367 . S
C1428 C1436 1.378 . S
C1429 C1428 1.367 . S
C1429 C1437 1.433 . S
C1430 H1426 0.929 . S
C1430 C1432 1.378 . S
C1430 C1434 1.350 . S
C1431 C1434 1.463 . S
C1431 C1436 1.350 . S
C1431 N1439 1.427 . S
C1432 H1423 0.930 . S
C1432 C1430 1.378 . S
C1432 C1433 1.367 . S
C1433 C1432 1.367 . S
C1433 C1435 1.433 . S
C1434 C1430 1.350 . S
C1434 C1431 1.463 . S
C1434 N1438 1.427 . S
C1435 H1425 0.929 . S
C1435 C1433 1.433 . S
C1435 N1438 1.384 . S
C1436 H1427 0.929 . S
C1436 C1428 1.378 . S
C1436 C1431 1.350 . S
C1437 H1424 0.929 . S
C1437 C1429 1.433 . S
C1437 N1439 1.384 . S
N1438 C1434 1.427 . S
N1438 C1435 1.384 . S
N1439 C1431 1.427 . S
N1439 C1437 1.384 . S
H1440 C1446 0.930 . S
H1441 C1450 0.930 . S
H1442 C1455 0.929 . S
H1443 C1453 0.929 . S
H1444 C1448 0.929 . S
H1445 C1454 0.929 . S
C1446 H1440 0.930 . S
C1446 C1447 1.367 . S
C1446 C1454 1.378 . S
C1447 C1446 1.367 . S
C1447 C1455 1.433 . S
C1448 H1444 0.929 . S
C1448 C1450 1.378 . S
C1448 C1452 1.350 . S
C1449 C1452 1.463 . S
C1449 C1454 1.350 . S
C1449 N1457 1.427 . S
C1450 H1441 0.930 . S
C1450 C1448 1.378 . S
C1450 C1451 1.367 . S
C1451 C1450 1.367 . S
C1451 C1453 1.433 . S
C1452 C1448 1.350 . S
C1452 C1449 1.463 . S
C1452 N1456 1.427 . S
C1453 H1443 0.929 . S
C1453 C1451 1.433 . S
C1453 N1456 1.384 . S
C1454 H1445 0.929 . S
C1454 C1446 1.378 . S
C1454 C1449 1.350 . S
C1455 H1442 0.929 . S
C1455 C1447 1.433 . S
C1455 N1457 1.384 . S
N1456 C1452 1.427 . S
N1456 C1453 1.384 . S
N1457 C1449 1.427 . S
N1457 C1455 1.384 . S
H1458 C1464 0.930 . S
H1459 C1468 0.930 . S
H1460 C1473 0.929 . S
H1461 C1471 0.929 . S
H1462 C1466 0.929 . S
H1463 C1472 0.929 . S
C1464 H1458 0.930 . S
C1464 C1465 1.367 . S
C1464 C1472 1.378 . S
C1465 C1464 1.367 . S
C1465 C1473 1.433 . S
C1466 H1462 0.929 . S
C1466 C1468 1.378 . S
C1466 C1470 1.350 . S
C1467 C1470 1.463 . S
C1467 C1472 1.350 . S
C1467 N1475 1.427 . S
C1468 H1459 0.930 . S
C1468 C1466 1.378 . S
C1468 C1469 1.367 . S
C1469 C1468 1.367 . S
C1469 C1471 1.433 . S
C1470 C1466 1.350 . S
C1470 C1467 1.463 . S
C1470 N1474 1.427 . S
C1471 H1461 0.929 . S
C1471 C1469 1.433 . S
C1471 N1474 1.384 . S
C1472 H1463 0.929 . S
C1472 C1464 1.378 . S
C1472 C1467 1.350 . S
C1473 H1460 0.929 . S
C1473 C1465 1.433 . S
C1473 N1475 1.384 . S
N1474 C1470 1.427 . S
N1474 C1471 1.384 . S
N1475 C1467 1.427 . S
N1475 C1473 1.384 . S
H1476 C1482 0.930 . S
H1477 C1486 0.930 . S
H1478 C1491 0.929 . S
H1479 C1489 0.929 . S
H1480 C1484 0.929 . S
H1481 C1490 0.929 . S
C1482 H1476 0.930 . S
C1482 C1483 1.367 . S
C1482 C1490 1.378 . S
C1483 C1482 1.367 . S
C1483 C1491 1.433 . S
C1484 H1480 0.929 . S
C1484 C1486 1.378 . S
C1484 C1488 1.350 . S
C1485 C1488 1.463 . S
C1485 C1490 1.350 . S
C1485 N1493 1.427 . S
C1486 H1477 0.930 . S
C1486 C1484 1.378 . S
C1486 C1487 1.367 . S
C1487 C1486 1.367 . S
C1487 C1489 1.433 . S
C1488 C1484 1.350 . S
C1488 C1485 1.463 . S
C1488 N1492 1.427 . S
C1489 H1479 0.929 . S
C1489 C1487 1.433 . S
C1489 N1492 1.384 . S
C1490 H1481 0.929 . S
C1490 C1482 1.378 . S
C1490 C1485 1.350 . S
C1491 H1478 0.929 . S
C1491 C1483 1.433 . S
C1491 N1493 1.384 . S
N1492 C1488 1.427 . S
N1492 C1489 1.384 . S
N1493 C1485 1.427 . S
N1493 C1491 1.384 . S
H1494 C1500 0.930 . S
H1495 C1504 0.930 . S
H1496 C1509 0.929 . S
H1497 C1507 0.929 . S
H1498 C1502 0.929 . S
H1499 C1508 0.929 . S
C1500 H1494 0.930 . S
C1500 C1501 1.367 . S
C1500 C1508 1.378 . S
C1501 C1500 1.367 . S
C1501 C1509 1.433 . S
C1502 H1498 0.929 . S
C1502 C1504 1.378 . S
C1502 C1506 1.350 . S
C1503 C1506 1.463 . S
C1503 C1508 1.350 . S
C1503 N1511 1.427 . S
C1504 H1495 0.930 . S
C1504 C1502 1.378 . S
C1504 C1505 1.367 . S
C1505 C1504 1.367 . S
C1505 C1507 1.433 . S
C1506 C1502 1.350 . S
C1506 C1503 1.463 . S
C1506 N1510 1.427 . S
C1507 H1497 0.929 . S
C1507 C1505 1.433 . S
C1507 N1510 1.384 . S
C1508 H1499 0.929 . S
C1508 C1500 1.378 . S
C1508 C1503 1.350 . S
C1509 H1496 0.929 . S
C1509 C1501 1.433 . S
C1509 N1511 1.384 . S
N1510 C1506 1.427 . S
N1510 C1507 1.384 . S
N1511 C1503 1.427 . S
N1511 C1509 1.384 . S
H1512 C1518 0.930 . S
H1513 C1522 0.930 . S
H1514 C1527 0.929 . S
H1515 C1525 0.929 . S
H1516 C1520 0.929 . S
H1517 C1526 0.929 . S
C1518 H1512 0.930 . S
C1518 C1519 1.367 . S
C1518 C1526 1.378 . S
C1519 C1518 1.367 . S
C1519 C1527 1.433 . S
C1520 H1516 0.929 . S
C1520 C1522 1.378 . S
C1520 C1524 1.350 . S
C1521 C1524 1.463 . S
C1521 C1526 1.350 . S
C1521 N1529 1.427 . S
C1522 H1513 0.930 . S
C1522 C1520 1.378 . S
C1522 C1523 1.367 . S
C1523 C1522 1.367 . S
C1523 C1525 1.433 . S
C1524 C1520 1.350 . S
C1524 C1521 1.463 . S
C1524 N1528 1.427 . S
C1525 H1515 0.929 . S
C1525 C1523 1.433 . S
C1525 N1528 1.384 . S
C1526 H1517 0.929 . S
C1526 C1518 1.378 . S
C1526 C1521 1.350 . S
C1527 H1514 0.929 . S
C1527 C1519 1.433 . S
C1527 N1529 1.384 . S
N1528 C1524 1.427 . S
N1528 C1525 1.384 . S
N1529 C1521 1.427 . S
N1529 C1527 1.384 . S
H1530 C1536 0.930 . S
H1531 C1540 0.930 . S
H1532 C1545 0.929 . S
H1533 C1543 0.929 . S
H1534 C1538 0.929 . S
H1535 C1544 0.929 . S
C1536 H1530 0.930 . S
C1536 C1537 1.367 . S
C1536 C1544 1.378 . S
C1537 C1536 1.367 . S
C1537 C1545 1.433 . S
C1538 H1534 0.929 . S
C1538 C1540 1.378 . S
C1538 C1542 1.350 . S
C1539 C1542 1.463 . S
C1539 C1544 1.350 . S
C1539 N1547 1.427 . S
C1540 H1531 0.930 . S
C1540 C1538 1.378 . S
C1540 C1541 1.367 . S
C1541 C1540 1.367 . S
C1541 C1543 1.433 . S
C1542 C1538 1.350 . S
C1542 C1539 1.463 . S
C1542 N1546 1.427 . S
C1543 H1533 0.929 . S
C1543 C1541 1.433 . S
C1543 N1546 1.384 . S
C1544 H1535 0.929 . S
C1544 C1536 1.378 . S
C1544 C1539 1.350 . S
C1545 H1532 0.929 . S
C1545 C1537 1.433 . S
C1545 N1547 1.384 . S
N1546 C1542 1.427 . S
N1546 C1543 1.384 . S
N1547 C1539 1.427 . S
N1547 C1545 1.384 . S
H1548 C1554 0.930 . S
H1549 C1558 0.930 . S
H1550 C1563 0.929 . S
H1551 C1561 0.929 . S
H1552 C1556 0.929 . S
H1553 C1562 0.929 . S
C1554 H1548 0.930 . S
C1554 C1555 1.367 . S
C1554 C1562 1.378 . S
C1555 C1554 1.367 . S
C1555 C1563 1.433 . S
C1556 H1552 0.929 . S
C1556 C1558 1.378 . S
C1556 C1560 1.350 . S
C1557 C1560 1.463 . S
C1557 C1562 1.350 . S
C1557 N1565 1.427 . S
C1558 H1549 0.930 . S
C1558 C1556 1.378 . S
C1558 C1559 1.367 . S
C1559 C1558 1.367 . S
C1559 C1561 1.433 . S
C1560 C1556 1.350 . S
C1560 C1557 1.463 . S
C1560 N1564 1.427 . S
C1561 H1551 0.929 . S
C1561 C1559 1.433 . S
C1561 N1564 1.384 . S
C1562 H1553 0.929 . S
C1562 C1554 1.378 . S
C1562 C1557 1.350 . S
C1563 H1550 0.929 . S
C1563 C1555 1.433 . S
C1563 N1565 1.384 . S
N1564 C1560 1.427 . S
N1564 C1561 1.384 . S
N1565 C1557 1.427 . S
N1565 C1563 1.384 . S
H1566 C1572 0.930 . S
H1567 C1576 0.930 . S
H1568 C1581 0.929 . S
H1569 C1579 0.929 . S
H1570 C1574 0.929 . S
H1571 C1580 0.929 . S
C1572 H1566 0.930 . S
C1572 C1573 1.367 . S
C1572 C1580 1.378 . S
C1573 C1572 1.367 . S
C1573 C1581 1.433 . S
C1574 H1570 0.929 . S
C1574 C1576 1.378 . S
C1574 C1578 1.350 . S
C1575 C1578 1.463 . S
C1575 C1580 1.350 . S
C1575 N1583 1.427 . S
C1576 H1567 0.930 . S
C1576 C1574 1.378 . S
C1576 C1577 1.367 . S
C1577 C1576 1.367 . S
C1577 C1579 1.433 . S
C1578 C1574 1.350 . S
C1578 C1575 1.463 . S
C1578 N1582 1.427 . S
C1579 H1569 0.929 . S
C1579 C1577 1.433 . S
C1579 N1582 1.384 . S
C1580 H1571 0.929 . S
C1580 C1572 1.378 . S
C1580 C1575 1.350 . S
C1581 H1568 0.929 . S
C1581 C1573 1.433 . S
C1581 N1583 1.384 . S
N1582 C1578 1.427 . S
N1582 C1579 1.384 . S
N1583 C1575 1.427 . S
N1583 C1581 1.384 . S
H1584 C1590 0.930 . S
H1585 C1594 0.930 . S
H1586 C1599 0.929 . S
H1587 C1597 0.929 . S
H1588 C1592 0.929 . S
H1589 C1598 0.929 . S
C1590 H1584 0.930 . S
C1590 C1591 1.367 . S
C1590 C1598 1.378 . S
C1591 C1590 1.367 . S
C1591 C1599 1.433 . S
C1592 H1588 0.929 . S
C1592 C1594 1.378 . S
C1592 C1596 1.350 . S
C1593 C1596 1.463 . S
C1593 C1598 1.350 . S
C1593 N1601 1.427 . S
C1594 H1585 0.930 . S
C1594 C1592 1.378 . S
C1594 C1595 1.367 . S
C1595 C1594 1.367 . S
C1595 C1597 1.433 . S
C1596 C1592 1.350 . S
C1596 C1593 1.463 . S
C1596 N1600 1.427 . S
C1597 H1587 0.929 . S
C1597 C1595 1.433 . S
C1597 N1600 1.384 . S
C1598 H1589 0.929 . S
C1598 C1590 1.378 . S
C1598 C1593 1.350 . S
C1599 H1586 0.929 . S
C1599 C1591 1.433 . S
C1599 N1601 1.384 . S
N1600 C1596 1.427 . S
N1600 C1597 1.384 . S
N1601 C1593 1.427 . S
N1601 C1599 1.384 . S
H1602 C1608 0.930 . S
H1603 C1612 0.930 . S
H1604 C1617 0.929 . S
H1605 C1615 0.929 . S
H1606 C1610 0.929 . S
H1607 C1616 0.929 . S
C1608 H1602 0.930 . S
C1608 C1609 1.367 . S
C1608 C1616 1.378 . S
C1609 C1608 1.367 . S
C1609 C1617 1.433 . S
C1610 H1606 0.929 . S
C1610 C1612 1.378 . S
C1610 C1614 1.350 . S
C1611 C1614 1.463 . S
C1611 C1616 1.350 . S
C1611 N1619 1.427 . S
C1612 H1603 0.930 . S
C1612 C1610 1.378 . S
C1612 C1613 1.367 . S
C1613 C1612 1.367 . S
C1613 C1615 1.433 . S
C1614 C1610 1.350 . S
C1614 C1611 1.463 . S
C1614 N1618 1.427 . S
C1615 H1605 0.929 . S
C1615 C1613 1.433 . S
C1615 N1618 1.384 . S
C1616 H1607 0.929 . S
C1616 C1608 1.378 . S
C1616 C1611 1.350 . S
C1617 H1604 0.929 . S
C1617 C1609 1.433 . S
C1617 N1619 1.384 . S
N1618 C1614 1.427 . S
N1618 C1615 1.384 . S
N1619 C1611 1.427 . S
N1619 C1617 1.384 . S
H1620 C1626 0.930 . S
H1621 C1630 0.930 . S
H1622 C1635 0.929 . S
H1623 C1633 0.929 . S
H1624 C1628 0.929 . S
H1625 C1634 0.929 . S
C1626 H1620 0.930 . S
C1626 C1627 1.367 . S
C1626 C1634 1.378 . S
C1627 C1626 1.367 . S
C1627 C1635 1.433 . S
C1628 H1624 0.929 . S
C1628 C1630 1.378 . S
C1628 C1632 1.350 . S
C1629 C1632 1.463 . S
C1629 C1634 1.350 . S
C1629 N1637 1.427 . S
C1630 H1621 0.930 . S
C1630 C1628 1.378 . S
C1630 C1631 1.367 . S
C1631 C1630 1.367 . S
C1631 C1633 1.433 . S
C1632 C1628 1.350 . S
C1632 C1629 1.463 . S
C1632 N1636 1.427 . S
C1633 H1623 0.929 . S
C1633 C1631 1.433 . S
C1633 N1636 1.384 . S
C1634 H1625 0.929 . S
C1634 C1626 1.378 . S
C1634 C1629 1.350 . S
C1635 H1622 0.929 . S
C1635 C1627 1.433 . S
C1635 N1637 1.384 . S
N1636 C1632 1.427 . S
N1636 C1633 1.384 . S
N1637 C1629 1.427 . S
N1637 C1635 1.384 . S
H1638 C1644 0.930 . S
H1639 C1648 0.930 . S
H1640 C1653 0.929 . S
H1641 C1651 0.929 . S
H1642 C1646 0.929 . S
H1643 C1652 0.929 . S
C1644 H1638 0.930 . S
C1644 C1645 1.367 . S
C1644 C1652 1.378 . S
C1645 C1644 1.367 . S
C1645 C1653 1.433 . S
C1646 H1642 0.929 . S
C1646 C1648 1.378 . S
C1646 C1650 1.350 . S
C1647 C1650 1.463 . S
C1647 C1652 1.350 . S
C1647 N1655 1.427 . S
C1648 H1639 0.930 . S
C1648 C1646 1.378 . S
C1648 C1649 1.367 . S
C1649 C1648 1.367 . S
C1649 C1651 1.433 . S
C1650 C1646 1.350 . S
C1650 C1647 1.463 . S
C1650 N1654 1.427 . S
C1651 H1641 0.929 . S
C1651 C1649 1.433 . S
C1651 N1654 1.384 . S
C1652 H1643 0.929 . S
C1652 C1644 1.378 . S
C1652 C1647 1.350 . S
C1653 H1640 0.929 . S
C1653 C1645 1.433 . S
C1653 N1655 1.384 . S
N1654 C1650 1.427 . S
N1654 C1651 1.384 . S
N1655 C1647 1.427 . S
N1655 C1653 1.384 . S
H1656 C1662 0.930 . S
H1657 C1666 0.930 . S
H1658 C1671 0.929 . S
H1659 C1669 0.929 . S
H1660 C1664 0.929 . S
H1661 C1670 0.929 . S
C1662 H1656 0.930 . S
C1662 C1663 1.367 . S
C1662 C1670 1.378 . S
C1663 C1662 1.367 . S
C1663 C1671 1.433 . S
C1664 H1660 0.929 . S
C1664 C1666 1.378 . S
C1664 C1668 1.350 . S
C1665 C1668 1.463 . S
C1665 C1670 1.350 . S
C1665 N1673 1.427 . S
C1666 H1657 0.930 . S
C1666 C1664 1.378 . S
C1666 C1667 1.367 . S
C1667 C1666 1.367 . S
C1667 C1669 1.433 . S
C1668 C1664 1.350 . S
C1668 C1665 1.463 . S
C1668 N1672 1.427 . S
C1669 H1659 0.929 . S
C1669 C1667 1.433 . S
C1669 N1672 1.384 . S
C1670 H1661 0.929 . S
C1670 C1662 1.378 . S
C1670 C1665 1.350 . S
C1671 H1658 0.929 . S
C1671 C1663 1.433 . S
C1671 N1673 1.384 . S
N1672 C1668 1.427 . S
N1672 C1669 1.384 . S
N1673 C1665 1.427 . S
N1673 C1671 1.384 . S
H1674 C1680 0.930 . S
H1675 C1684 0.930 . S
H1676 C1689 0.929 . S
H1677 C1687 0.929 . S
H1678 C1682 0.929 . S
H1679 C1688 0.929 . S
C1680 H1674 0.930 . S
C1680 C1681 1.367 . S
C1680 C1688 1.378 . S
C1681 C1680 1.367 . S
C1681 C1689 1.433 . S
C1682 H1678 0.929 . S
C1682 C1684 1.378 . S
C1682 C1686 1.350 . S
C1683 C1686 1.463 . S
C1683 C1688 1.350 . S
C1683 N1691 1.427 . S
C1684 H1675 0.930 . S
C1684 C1682 1.378 . S
C1684 C1685 1.367 . S
C1685 C1684 1.367 . S
C1685 C1687 1.433 . S
C1686 C1682 1.350 . S
C1686 C1683 1.463 . S
C1686 N1690 1.427 . S
C1687 H1677 0.929 . S
C1687 C1685 1.433 . S
C1687 N1690 1.384 . S
C1688 H1679 0.929 . S
C1688 C1680 1.378 . S
C1688 C1683 1.350 . S
C1689 H1676 0.929 . S
C1689 C1681 1.433 . S
C1689 N1691 1.384 . S
N1690 C1686 1.427 . S
N1690 C1687 1.384 . S
N1691 C1683 1.427 . S
N1691 C1689 1.384 . S
H1692 C1698 0.930 . S
H1693 C1702 0.930 . S
H1694 C1707 0.929 . S
H1695 C1705 0.929 . S
H1696 C1700 0.929 . S
H1697 C1706 0.929 . S
C1698 H1692 0.930 . S
C1698 C1699 1.367 . S
C1698 C1706 1.378 . S
C1699 C1698 1.367 . S
C1699 C1707 1.433 . S
C1700 H1696 0.929 . S
C1700 C1702 1.378 . S
C1700 C1704 1.350 . S
C1701 C1704 1.463 . S
C1701 C1706 1.350 . S
C1701 N1709 1.427 . S
C1702 H1693 0.930 . S
C1702 C1700 1.378 . S
C1702 C1703 1.367 . S
C1703 C1702 1.367 . S
C1703 C1705 1.433 . S
C1704 C1700 1.350 . S
C1704 C1701 1.463 . S
C1704 N1708 1.427 . S
C1705 H1695 0.929 . S
C1705 C1703 1.433 . S
C1705 N1708 1.384 . S
C1706 H1697 0.929 . S
C1706 C1698 1.378 . S
C1706 C1701 1.350 . S
C1707 H1694 0.929 . S
C1707 C1699 1.433 . S
C1707 N1709 1.384 . S
N1708 C1704 1.427 . S
N1708 C1705 1.384 . S
N1709 C1701 1.427 . S
N1709 C1707 1.384 . S
H1710 C1716 0.930 . S
H1711 C1720 0.930 . S
H1712 C1725 0.929 . S
H1713 C1723 0.929 . S
H1714 C1718 0.929 . S
H1715 C1724 0.929 . S
C1716 H1710 0.930 . S
C1716 C1717 1.367 . S
C1716 C1724 1.378 . S
C1717 C1716 1.367 . S
C1717 C1725 1.433 . S
C1718 H1714 0.929 . S
C1718 C1720 1.378 . S
C1718 C1722 1.350 . S
C1719 C1722 1.463 . S
C1719 C1724 1.350 . S
C1719 N1727 1.427 . S
C1720 H1711 0.930 . S
C1720 C1718 1.378 . S
C1720 C1721 1.367 . S
C1721 C1720 1.367 . S
C1721 C1723 1.433 . S
C1722 C1718 1.350 . S
C1722 C1719 1.463 . S
C1722 N1726 1.427 . S
C1723 H1713 0.929 . S
C1723 C1721 1.433 . S
C1723 N1726 1.384 . S
C1724 H1715 0.929 . S
C1724 C1716 1.378 . S
C1724 C1719 1.350 . S
C1725 H1712 0.929 . S
C1725 C1717 1.433 . S
C1725 N1727 1.384 . S
N1726 C1722 1.427 . S
N1726 C1723 1.384 . S
N1727 C1719 1.427 . S
N1727 C1725 1.384 . S
H1728 C1734 0.930 . S
H1729 C1738 0.930 . S
H1730 C1743 0.929 . S
H1731 C1741 0.929 . S
H1732 C1736 0.929 . S
H1733 C1742 0.929 . S
C1734 H1728 0.930 . S
C1734 C1735 1.367 . S
C1734 C1742 1.378 . S
C1735 C1734 1.367 . S
C1735 C1743 1.433 . S
C1736 H1732 0.929 . S
C1736 C1738 1.378 . S
C1736 C1740 1.350 . S
C1737 C1740 1.463 . S
C1737 C1742 1.350 . S
C1737 N1745 1.427 . S
C1738 H1729 0.930 . S
C1738 C1736 1.378 . S
C1738 C1739 1.367 . S
C1739 C1738 1.367 . S
C1739 C1741 1.433 . S
C1740 C1736 1.350 . S
C1740 C1737 1.463 . S
C1740 N1744 1.427 . S
C1741 H1731 0.929 . S
C1741 C1739 1.433 . S
C1741 N1744 1.384 . S
C1742 H1733 0.929 . S
C1742 C1734 1.378 . S
C1742 C1737 1.350 . S
C1743 H1730 0.929 . S
C1743 C1735 1.433 . S
C1743 N1745 1.384 . S
N1744 C1740 1.427 . S
N1744 C1741 1.384 . S
N1745 C1737 1.427 . S
N1745 C1743 1.384 . S
H1746 C1752 0.930 . S
H1747 C1756 0.930 . S
H1748 C1761 0.929 . S
H1749 C1759 0.929 . S
H1750 C1754 0.929 . S
H1751 C1760 0.929 . S
C1752 H1746 0.930 . S
C1752 C1753 1.367 . S
C1752 C1760 1.378 . S
C1753 C1752 1.367 . S
C1753 C1761 1.433 . S
C1754 H1750 0.929 . S
C1754 C1756 1.378 . S
C1754 C1758 1.350 . S
C1755 C1758 1.463 . S
C1755 C1760 1.350 . S
C1755 N1763 1.427 . S
C1756 H1747 0.930 . S
C1756 C1754 1.378 . S
C1756 C1757 1.367 . S
C1757 C1756 1.367 . S
C1757 C1759 1.433 . S
C1758 C1754 1.350 . S
C1758 C1755 1.463 . S
C1758 N1762 1.427 . S
C1759 H1749 0.929 . S
C1759 C1757 1.433 . S
C1759 N1762 1.384 . S
C1760 H1751 0.929 . S
C1760 C1752 1.378 . S
C1760 C1755 1.350 . S
C1761 H1748 0.929 . S
C1761 C1753 1.433 . S
C1761 N1763 1.384 . S
N1762 C1758 1.427 . S
N1762 C1759 1.384 . S
N1763 C1755 1.427 . S
N1763 C1761 1.384 . S
H1764 C1770 0.930 . S
H1765 C1774 0.930 . S
H1766 C1779 0.929 . S
H1767 C1777 0.929 . S
H1768 C1772 0.929 . S
H1769 C1778 0.929 . S
C1770 H1764 0.930 . S
C1770 C1771 1.367 . S
C1770 C1778 1.378 . S
C1771 C1770 1.367 . S
C1771 C1779 1.433 . S
C1772 H1768 0.929 . S
C1772 C1774 1.378 . S
C1772 C1776 1.350 . S
C1773 C1776 1.463 . S
C1773 C1778 1.350 . S
C1773 N1781 1.427 . S
C1774 H1765 0.930 . S
C1774 C1772 1.378 . S
C1774 C1775 1.367 . S
C1775 C1774 1.367 . S
C1775 C1777 1.433 . S
C1776 C1772 1.350 . S
C1776 C1773 1.463 . S
C1776 N1780 1.427 . S
C1777 H1767 0.929 . S
C1777 C1775 1.433 . S
C1777 N1780 1.384 . S
C1778 H1769 0.929 . S
C1778 C1770 1.378 . S
C1778 C1773 1.350 . S
C1779 H1766 0.929 . S
C1779 C1771 1.433 . S
C1779 N1781 1.384 . S
N1780 C1776 1.427 . S
N1780 C1777 1.384 . S
N1781 C1773 1.427 . S
N1781 C1779 1.384 . S
H1782 C1788 0.930 . S
H1783 C1792 0.930 . S
H1784 C1797 0.929 . S
H1785 C1795 0.929 . S
H1786 C1790 0.929 . S
H1787 C1796 0.929 . S
C1788 H1782 0.930 . S
C1788 C1789 1.367 . S
C1788 C1796 1.378 . S
C1789 C1788 1.367 . S
C1789 C1797 1.433 . S
C1790 H1786 0.929 . S
C1790 C1792 1.378 . S
C1790 C1794 1.350 . S
C1791 C1794 1.463 . S
C1791 C1796 1.350 . S
C1791 N1799 1.427 . S
C1792 H1783 0.930 . S
C1792 C1790 1.378 . S
C1792 C1793 1.367 . S
C1793 C1792 1.367 . S
C1793 C1795 1.433 . S
C1794 C1790 1.350 . S
C1794 C1791 1.463 . S
C1794 N1798 1.427 . S
C1795 H1785 0.929 . S
C1795 C1793 1.433 . S
C1795 N1798 1.384 . S
C1796 H1787 0.929 . S
C1796 C1788 1.378 . S
C1796 C1791 1.350 . S
C1797 H1784 0.929 . S
C1797 C1789 1.433 . S
C1797 N1799 1.384 . S
N1798 C1794 1.427 . S
N1798 C1795 1.384 . S
N1799 C1791 1.427 . S
N1799 C1797 1.384 . S
H1800 C1806 0.930 . S
H1801 C1810 0.930 . S
H1802 C1815 0.929 . S
H1803 C1813 0.929 . S
H1804 C1808 0.929 . S
H1805 C1814 0.929 . S
C1806 H1800 0.930 . S
C1806 C1807 1.367 . S
C1806 C1814 1.378 . S
C1807 C1806 1.367 . S
C1807 C1815 1.433 . S
C1808 H1804 0.929 . S
C1808 C1810 1.378 . S
C1808 C1812 1.350 . S
C1809 C1812 1.463 . S
C1809 C1814 1.350 . S
C1809 N1817 1.427 . S
C1810 H1801 0.930 . S
C1810 C1808 1.378 . S
C1810 C1811 1.367 . S
C1811 C1810 1.367 . S
C1811 C1813 1.433 . S
C1812 C1808 1.350 . S
C1812 C1809 1.463 . S
C1812 N1816 1.427 . S
C1813 H1803 0.929 . S
C1813 C1811 1.433 . S
C1813 N1816 1.384 . S
C1814 H1805 0.929 . S
C1814 C1806 1.378 . S
C1814 C1809 1.350 . S
C1815 H1802 0.929 . S
C1815 C1807 1.433 . S
C1815 N1817 1.384 . S
N1816 C1812 1.427 . S
N1816 C1813 1.384 . S
N1817 C1809 1.427 . S
N1817 C1815 1.384 . S
H1818 C1824 0.930 . S
H1819 C1828 0.930 . S
H1820 C1833 0.929 . S
H1821 C1831 0.929 . S
H1822 C1826 0.929 . S
H1823 C1832 0.929 . S
C1824 H1818 0.930 . S
C1824 C1825 1.367 . S
C1824 C1832 1.378 . S
C1825 C1824 1.367 . S
C1825 C1833 1.433 . S
C1826 H1822 0.929 . S
C1826 C1828 1.378 . S
C1826 C1830 1.350 . S
C1827 C1830 1.463 . S
C1827 C1832 1.350 . S
C1827 N1835 1.427 . S
C1828 H1819 0.930 . S
C1828 C1826 1.378 . S
C1828 C1829 1.367 . S
C1829 C1828 1.367 . S
C1829 C1831 1.433 . S
C1830 C1826 1.350 . S
C1830 C1827 1.463 . S
C1830 N1834 1.427 . S
C1831 H1821 0.929 . S
C1831 C1829 1.433 . S
C1831 N1834 1.384 . S
C1832 H1823 0.929 . S
C1832 C1824 1.378 . S
C1832 C1827 1.350 . S
C1833 H1820 0.929 . S
C1833 C1825 1.433 . S
C1833 N1835 1.384 . S
N1834 C1830 1.427 . S
N1834 C1831 1.384 . S
N1835 C1827 1.427 . S
N1835 C1833 1.384 . S
H1836 C1842 0.930 . S
H1837 C1846 0.930 . S
H1838 C1851 0.929 . S
H1839 C1849 0.929 . S
H1840 C1844 0.929 . S
H1841 C1850 0.929 . S
C1842 H1836 0.930 . S
C1842 C1843 1.367 . S
C1842 C1850 1.378 . S
C1843 C1842 1.367 . S
C1843 C1851 1.433 . S
C1844 H1840 0.929 . S
C1844 C1846 1.378 . S
C1844 C1848 1.350 . S
C1845 C1848 1.463 . S
C1845 C1850 1.350 . S
C1845 N1853 1.427 . S
C1846 H1837 0.930 . S
C1846 C1844 1.378 . S
C1846 C1847 1.367 . S
C1847 C1846 1.367 . S
C1847 C1849 1.433 . S
C1848 C1844 1.350 . S
C1848 C1845 1.463 . S
C1848 N1852 1.427 . S
C1849 H1839 0.929 . S
C1849 C1847 1.433 . S
C1849 N1852 1.384 . S
C1850 H1841 0.929 . S
C1850 C1842 1.378 . S
C1850 C1845 1.350 . S
C1851 H1838 0.929 . S
C1851 C1843 1.433 . S
C1851 N1853 1.384 . S
N1852 C1848 1.427 . S
N1852 C1849 1.384 . S
N1853 C1845 1.427 . S
N1853 C1851 1.384 . S
H1854 C1860 0.930 . S
H1855 C1864 0.930 . S
H1856 C1869 0.929 . S
H1857 C1867 0.929 . S
H1858 C1862 0.929 . S
H1859 C1868 0.929 . S
C1860 H1854 0.930 . S
C1860 C1861 1.367 . S
C1860 C1868 1.378 . S
C1861 C1860 1.367 . S
C1861 C1869 1.433 . S
C1862 H1858 0.929 . S
C1862 C1864 1.378 . S
C1862 C1866 1.350 . S
C1863 C1866 1.463 . S
C1863 C1868 1.350 . S
C1863 N1871 1.427 . S
C1864 H1855 0.930 . S
C1864 C1862 1.378 . S
C1864 C1865 1.367 . S
C1865 C1864 1.367 . S
C1865 C1867 1.433 . S
C1866 C1862 1.350 . S
C1866 C1863 1.463 . S
C1866 N1870 1.427 . S
C1867 H1857 0.929 . S
C1867 C1865 1.433 . S
C1867 N1870 1.384 . S
C1868 H1859 0.929 . S
C1868 C1860 1.378 . S
C1868 C1863 1.350 . S
C1869 H1856 0.929 . S
C1869 C1861 1.433 . S
C1869 N1871 1.384 . S
N1870 C1866 1.427 . S
N1870 C1867 1.384 . S
N1871 C1863 1.427 . S
N1871 C1869 1.384 . S
H1872 C1878 0.930 . S
H1873 C1882 0.930 . S
H1874 C1887 0.929 . S
H1875 C1885 0.929 . S
H1876 C1880 0.929 . S
H1877 C1886 0.929 . S
C1878 H1872 0.930 . S
C1878 C1879 1.367 . S
C1878 C1886 1.378 . S
C1879 C1878 1.367 . S
C1879 C1887 1.433 . S
C1880 H1876 0.929 . S
C1880 C1882 1.378 . S
C1880 C1884 1.350 . S
C1881 C1884 1.463 . S
C1881 C1886 1.350 . S
C1881 N1889 1.427 . S
C1882 H1873 0.930 . S
C1882 C1880 1.378 . S
C1882 C1883 1.367 . S
C1883 C1882 1.367 . S
C1883 C1885 1.433 . S
C1884 C1880 1.350 . S
C1884 C1881 1.463 . S
C1884 N1888 1.427 . S
C1885 H1875 0.929 . S
C1885 C1883 1.433 . S
C1885 N1888 1.384 . S
C1886 H1877 0.929 . S
C1886 C1878 1.378 . S
C1886 C1881 1.350 . S
C1887 H1874 0.929 . S
C1887 C1879 1.433 . S
C1887 N1889 1.384 . S
N1888 C1884 1.427 . S
N1888 C1885 1.384 . S
N1889 C1881 1.427 . S
N1889 C1887 1.384 . S
H1890 C1896 0.930 . S
H1891 C1900 0.930 . S
H1892 C1905 0.929 . S
H1893 C1903 0.929 . S
H1894 C1898 0.929 . S
H1895 C1904 0.929 . S
C1896 H1890 0.930 . S
C1896 C1897 1.367 . S
C1896 C1904 1.378 . S
C1897 C1896 1.367 . S
C1897 C1905 1.433 . S
C1898 H1894 0.929 . S
C1898 C1900 1.378 . S
C1898 C1902 1.350 . S
C1899 C1902 1.463 . S
C1899 C1904 1.350 . S
C1899 N1907 1.427 . S
C1900 H1891 0.930 . S
C1900 C1898 1.378 . S
C1900 C1901 1.367 . S
C1901 C1900 1.367 . S
C1901 C1903 1.433 . S
C1902 C1898 1.350 . S
C1902 C1899 1.463 . S
C1902 N1906 1.427 . S
C1903 H1893 0.929 . S
C1903 C1901 1.433 . S
C1903 N1906 1.384 . S
C1904 H1895 0.929 . S
C1904 C1896 1.378 . S
C1904 C1899 1.350 . S
C1905 H1892 0.929 . S
C1905 C1897 1.433 . S
C1905 N1907 1.384 . S
N1906 C1902 1.427 . S
N1906 C1903 1.384 . S
N1907 C1899 1.427 . S
N1907 C1905 1.384 . S
H1908 C1914 0.930 . S
H1909 C1918 0.930 . S
H1910 C1923 0.929 . S
H1911 C1921 0.929 . S
H1912 C1916 0.929 . S
H1913 C1922 0.929 . S
C1914 H1908 0.930 . S
C1914 C1915 1.367 . S
C1914 C1922 1.378 . S
C1915 C1914 1.367 . S
C1915 C1923 1.433 . S
C1916 H1912 0.929 . S
C1916 C1918 1.378 . S
C1916 C1920 1.350 . S
C1917 C1920 1.463 . S
C1917 C1922 1.350 . S
C1917 N1925 1.427 . S
C1918 H1909 0.930 . S
C1918 C1916 1.378 . S
C1918 C1919 1.367 . S
C1919 C1918 1.367 . S
C1919 C1921 1.433 . S
C1920 C1916 1.350 . S
C1920 C1917 1.463 . S
C1920 N1924 1.427 . S
C1921 H1911 0.929 . S
C1921 C1919 1.433 . S
C1921 N1924 1.384 . S
C1922 H1913 0.929 . S
C1922 C1914 1.378 . S
C1922 C1917 1.350 . S
C1923 H1910 0.929 . S
C1923 C1915 1.433 . S
C1923 N1925 1.384 . S
N1924 C1920 1.427 . S
N1924 C1921 1.384 . S
N1925 C1917 1.427 . S
N1925 C1923 1.384 . S
H1926 C1932 0.930 . S
H1927 C1936 0.930 . S
H1928 C1941 0.929 . S
H1929 C1939 0.929 . S
H1930 C1934 0.929 . S
H1931 C1940 0.929 . S
C1932 H1926 0.930 . S
C1932 C1933 1.367 . S
C1932 C1940 1.378 . S
C1933 C1932 1.367 . S
C1933 C1941 1.433 . S
C1934 H1930 0.929 . S
C1934 C1936 1.378 . S
C1934 C1938 1.350 . S
C1935 C1938 1.463 . S
C1935 C1940 1.350 . S
C1935 N1943 1.427 . S
C1936 H1927 0.930 . S
C1936 C1934 1.378 . S
C1936 C1937 1.367 . S
C1937 C1936 1.367 . S
C1937 C1939 1.433 . S
C1938 C1934 1.350 . S
C1938 C1935 1.463 . S
C1938 N1942 1.427 . S
C1939 H1929 0.929 . S
C1939 C1937 1.433 . S
C1939 N1942 1.384 . S
C1940 H1931 0.929 . S
C1940 C1932 1.378 . S
C1940 C1935 1.350 . S
C1941 H1928 0.929 . S
C1941 C1933 1.433 . S
C1941 N1943 1.384 . S
N1942 C1938 1.427 . S
N1942 C1939 1.384 . S
N1943 C1935 1.427 . S
N1943 C1941 1.384 . S
H1944 C1950 0.930 . S
H1945 C1954 0.930 . S
H1946 C1959 0.929 . S
H1947 C1957 0.929 . S
H1948 C1952 0.929 . S
H1949 C1958 0.929 . S
C1950 H1944 0.930 . S
C1950 C1951 1.367 1_455 S
C1950 C1958 1.378 . S
C1951 C1950 1.367 1_655 S
C1951 C1959 1.433 . S
C1952 H1948 0.929 . S
C1952 C1954 1.378 . S
C1952 C1956 1.350 1_655 S
C1953 C1956 1.463 1_655 S
C1953 C1958 1.350 1_655 S
C1953 N1961 1.427 . S
C1954 H1945 0.930 . S
C1954 C1952 1.378 . S
C1954 C1955 1.367 1_655 S
C1955 C1954 1.367 1_455 S
C1955 C1957 1.433 . S
C1956 C1952 1.350 1_455 S
C1956 C1953 1.463 1_455 S
C1956 N1960 1.427 . S
C1957 H1947 0.929 . S
C1957 C1955 1.433 . S
C1957 N1960 1.384 . S
C1958 H1949 0.929 . S
C1958 C1950 1.378 . S
C1958 C1953 1.350 1_455 S
C1959 H1946 0.929 . S
C1959 C1951 1.433 . S
C1959 N1961 1.384 . S
N1960 C1956 1.427 . S
N1960 C1957 1.384 . S
N1961 C1953 1.427 . S
N1961 C1959 1.384 . S
H1962 C1968 0.930 . S
H1963 C1972 0.930 . S
H1964 C1977 0.929 . S
H1965 C1975 0.929 . S
H1966 C1970 0.929 . S
H1967 C1976 0.929 . S
C1968 H1962 0.930 . S
C1968 C1969 1.367 . S
C1968 C1976 1.378 . S
C1969 C1968 1.367 . S
C1969 C1977 1.433 . S
C1970 H1966 0.929 . S
C1970 C1972 1.378 . S
C1970 C1974 1.350 . S
C1971 C1974 1.463 . S
C1971 C1976 1.350 . S
C1971 N1979 1.427 . S
C1972 H1963 0.930 . S
C1972 C1970 1.378 . S
C1972 C1973 1.367 . S
C1973 C1972 1.367 . S
C1973 C1975 1.433 . S
C1974 C1970 1.350 . S
C1974 C1971 1.463 . S
C1974 N1978 1.427 . S
C1975 H1965 0.929 . S
C1975 C1973 1.433 . S
C1975 N1978 1.384 . S
C1976 H1967 0.929 . S
C1976 C1968 1.378 . S
C1976 C1971 1.350 . S
C1977 H1964 0.929 . S
C1977 C1969 1.433 . S
C1977 N1979 1.384 . S
N1978 C1974 1.427 . S
N1978 C1975 1.384 . S
N1979 C1971 1.427 . S
N1979 C1977 1.384 . S
H1980 C1986 0.930 . S
H1981 C1990 0.930 . S
H1982 C1995 0.929 . S
H1983 C1993 0.929 . S
H1984 C1988 0.929 . S
H1985 C1994 0.929 . S
C1986 H1980 0.930 . S
C1986 C1987 1.367 . S
C1986 C1994 1.378 . S
C1987 C1986 1.367 . S
C1987 C1995 1.433 . S
C1988 H1984 0.929 . S
C1988 C1990 1.378 . S
C1988 C1992 1.350 . S
C1989 C1992 1.463 1_545 S
C1989 C1994 1.350 . S
C1989 N1997 1.427 . S
C1990 H1981 0.930 . S
C1990 C1988 1.378 . S
C1990 C1991 1.367 . S
C1991 C1990 1.367 . S
C1991 C1993 1.433 . S
C1992 C1988 1.350 . S
C1992 C1989 1.463 1_565 S
C1992 N1996 1.427 . S
C1993 H1983 0.929 . S
C1993 C1991 1.433 . S
C1993 N1996 1.384 . S
C1994 H1985 0.929 . S
C1994 C1986 1.378 . S
C1994 C1989 1.350 . S
C1995 H1982 0.929 . S
C1995 C1987 1.433 . S
C1995 N1997 1.384 . S
N1996 C1992 1.427 . S
N1996 C1993 1.384 . S
N1997 C1989 1.427 . S
N1997 C1995 1.384 . S
H1998 C2004 0.930 . S
H1999 C2008 0.930 . S
H2000 C2013 0.929 . S
H2001 C2011 0.929 . S
H2002 C2006 0.929 . S
H2003 C2012 0.929 . S
C2004 H1998 0.930 . S
C2004 C2005 1.367 . S
C2004 C2012 1.378 . S
C2005 C2004 1.367 . S
C2005 C2013 1.433 1_565 S
C2006 H2002 0.929 . S
C2006 C2008 1.378 . S
C2006 C2010 1.350 . S
C2007 C2010 1.463 1_564 S
C2007 C2012 1.350 . S
C2007 N2015 1.427 1_565 S
C2008 H1999 0.930 . S
C2008 C2006 1.378 . S
C2008 C2009 1.367 . S
C2009 C2008 1.367 . S
C2009 C2011 1.433 1_545 S
C2010 C2006 1.350 . S
C2010 C2007 1.463 1_546 S
C2010 N2014 1.427 1_545 S
C2011 H2001 0.929 . S
C2011 C2009 1.433 1_565 S
C2011 N2014 1.384 . S
C2012 H2003 0.929 . S
C2012 C2004 1.378 . S
C2012 C2007 1.350 . S
C2013 H2000 0.929 . S
C2013 C2005 1.433 1_545 S
C2013 N2015 1.384 . S
N2014 C2010 1.427 1_565 S
N2014 C2011 1.384 . S
N2015 C2007 1.427 1_545 S
N2015 C2013 1.384 . S
H2016 C2022 0.930 1_554 S
H2017 C2026 0.930 1_556 S
H2018 C2031 0.929 . S
H2019 C2029 0.929 . S
H2020 C2024 0.929 1_655 S
H2021 C2030 0.929 1_455 S
C2022 H2016 0.930 1_556 S
C2022 C2023 1.367 . S
C2022 C2030 1.378 1_556 S
C2023 C2022 1.367 . S
C2023 C2031 1.433 . S
C2024 H2020 0.929 1_455 S
C2024 C2026 1.378 1_556 S
C2024 C2028 1.350 1_556 S
C2025 C2028 1.463 1_656 S
C2025 C2030 1.350 1_556 S
C2025 N2033 1.427 . S
C2026 H2017 0.930 1_554 S
C2026 C2024 1.378 1_554 S
C2026 C2027 1.367 . S
C2027 C2026 1.367 . S
C2027 C2029 1.433 . S
C2028 C2024 1.350 1_554 S
C2028 C2025 1.463 1_454 S
C2028 N2032 1.427 . S
C2029 H2019 0.929 . S
C2029 C2027 1.433 . S
C2029 N2032 1.384 . S
C2030 H2021 0.929 1_655 S
C2030 C2022 1.378 1_554 S
C2030 C2025 1.350 1_554 S
C2031 H2018 0.929 . S
C2031 C2023 1.433 . S
C2031 N2033 1.384 . S
N2032 C2028 1.427 . S
N2032 C2029 1.384 . S
N2033 C2025 1.427 . S
N2033 C2031 1.384 . S
H2034 C2040 0.930 . S
H2035 C2044 0.930 . S
H2036 C2049 0.929 . S
H2037 C2047 0.929 . S
H2038 C2042 0.929 . S
H2039 C2048 0.929 . S
C2040 H2034 0.930 . S
C2040 C2041 1.367 . S
C2040 C2048 1.378 . S
C2041 C2040 1.367 . S
C2041 C2049 1.433 . S
C2042 H2038 0.929 . S
C2042 C2044 1.378 . S
C2042 C2046 1.350 . S
C2043 C2046 1.463 1_554 S
C2043 C2048 1.350 . S
C2043 N2051 1.427 1_554 S
C2044 H2035 0.930 . S
C2044 C2042 1.378 . S
C2044 C2045 1.367 . S
C2045 C2044 1.367 . S
C2045 C2047 1.433 . S
C2046 C2042 1.350 . S
C2046 C2043 1.463 1_556 S
C2046 N2050 1.427 1_556 S
C2047 H2037 0.929 . S
C2047 C2045 1.433 . S
C2047 N2050 1.384 1_556 S
C2048 H2039 0.929 . S
C2048 C2040 1.378 . S
C2048 C2043 1.350 . S
C2049 H2036 0.929 . S
C2049 C2041 1.433 . S
C2049 N2051 1.384 1_554 S
N2050 C2046 1.427 1_554 S
N2050 C2047 1.384 1_554 S
N2051 C2043 1.427 1_556 S
N2051 C2049 1.384 1_556 S
H2052 C2058 0.930 . S
H2053 C2062 0.930 . S
H2054 C2067 0.929 . S
H2055 C2065 0.929 . S
H2056 C2060 0.929 . S
H2057 C2066 0.929 . S
C2058 H2052 0.930 . S
C2058 C2059 1.367 . S
C2058 C2066 1.378 . S
C2059 C2058 1.367 . S
C2059 C2067 1.433 . S
C2060 H2056 0.929 . S
C2060 C2062 1.378 . S
C2060 C2064 1.350 . S
C2061 C2064 1.463 . S
C2061 C2066 1.350 . S
C2061 N2069 1.427 . S
C2062 H2053 0.930 . S
C2062 C2060 1.378 . S
C2062 C2063 1.367 . S
C2063 C2062 1.367 . S
C2063 C2065 1.433 . S
C2064 C2060 1.350 . S
C2064 C2061 1.463 . S
C2064 N2068 1.427 . S
C2065 H2055 0.929 . S
C2065 C2063 1.433 . S
C2065 N2068 1.384 . S
C2066 H2057 0.929 . S
C2066 C2058 1.378 . S
C2066 C2061 1.350 . S
C2067 H2054 0.929 . S
C2067 C2059 1.433 . S
C2067 N2069 1.384 . S
N2068 C2064 1.427 . S
N2068 C2065 1.384 . S
N2069 C2061 1.427 . S
N2069 C2067 1.384 . S
H2070 C2076 0.930 1_554 S
H2071 C2080 0.930 . S
H2072 C2085 0.929 . S
H2073 C2083 0.929 . S
H2074 C2078 0.929 . S
H2075 C2084 0.929 . S
C2076 H2070 0.930 1_556 S
C2076 C2077 1.367 . S
C2076 C2084 1.378 . S
C2077 C2076 1.367 . S
C2077 C2085 1.433 . S
C2078 H2074 0.929 . S
C2078 C2080 1.378 . S
C2078 C2082 1.350 . S
C2079 C2082 1.463 . S
C2079 C2084 1.350 . S
C2079 N2087 1.427 . S
C2080 H2071 0.930 . S
C2080 C2078 1.378 . S
C2080 C2081 1.367 . S
C2081 C2080 1.367 . S
C2081 C2083 1.433 . S
C2082 C2078 1.350 . S
C2082 C2079 1.463 . S
C2082 N2086 1.427 . S
C2083 H2073 0.929 . S
C2083 C2081 1.433 . S
C2083 N2086 1.384 . S
C2084 H2075 0.929 . S
C2084 C2076 1.378 . S
C2084 C2079 1.350 . S
C2085 H2072 0.929 . S
C2085 C2077 1.433 . S
C2085 N2087 1.384 . S
N2086 C2082 1.427 . S
N2086 C2083 1.384 . S
N2087 C2079 1.427 . S
N2087 C2085 1.384 . S
H2088 C2094 0.930 . S
H2089 C2098 0.930 . S
H2090 C2103 0.929 . S
H2091 C2101 0.929 . S
H2092 C2096 0.929 . S
H2093 C2102 0.929 . S
C2094 H2088 0.930 . S
C2094 C2095 1.367 . S
C2094 C2102 1.378 . S
C2095 C2094 1.367 . S
C2095 C2103 1.433 . S
C2096 H2092 0.929 . S
C2096 C2098 1.378 . S
C2096 C2100 1.350 . S
C2097 C2100 1.463 . S
C2097 C2102 1.350 . S
C2097 N2105 1.427 . S
C2098 H2089 0.930 . S
C2098 C2096 1.378 . S
C2098 C2099 1.367 . S
C2099 C2098 1.367 . S
C2099 C2101 1.433 . S
C2100 C2096 1.350 . S
C2100 C2097 1.463 . S
C2100 N2104 1.427 . S
C2101 H2091 0.929 . S
C2101 C2099 1.433 . S
C2101 N2104 1.384 . S
C2102 H2093 0.929 . S
C2102 C2094 1.378 . S
C2102 C2097 1.350 . S
C2103 H2090 0.929 . S
C2103 C2095 1.433 . S
C2103 N2105 1.384 . S
N2104 C2100 1.427 . S
N2104 C2101 1.384 . S
N2105 C2097 1.427 . S
N2105 C2103 1.384 . S
H2106 C2112 0.930 . S
H2107 C2116 0.930 . S
H2108 C2121 0.929 . S
H2109 C2119 0.929 . S
H2110 C2114 0.929 . S
H2111 C2120 0.929 . S
C2112 H2106 0.930 . S
C2112 C2113 1.367 . S
C2112 C2120 1.378 . S
C2113 C2112 1.367 . S
C2113 C2121 1.433 . S
C2114 H2110 0.929 . S
C2114 C2116 1.378 . S
C2114 C2118 1.350 . S
C2115 C2118 1.463 . S
C2115 C2120 1.350 . S
C2115 N2123 1.427 . S
C2116 H2107 0.930 . S
C2116 C2114 1.378 . S
C2116 C2117 1.367 . S
C2117 C2116 1.367 . S
C2117 C2119 1.433 . S
C2118 C2114 1.350 . S
C2118 C2115 1.463 . S
C2118 N2122 1.427 . S
C2119 H2109 0.929 . S
C2119 C2117 1.433 . S
C2119 N2122 1.384 . S
C2120 H2111 0.929 . S
C2120 C2112 1.378 . S
C2120 C2115 1.350 . S
C2121 H2108 0.929 . S
C2121 C2113 1.433 . S
C2121 N2123 1.384 . S
N2122 C2118 1.427 . S
N2122 C2119 1.384 . S
N2123 C2115 1.427 . S
N2123 C2121 1.384 . S
H2124 C2130 0.930 . S
H2125 C2134 0.930 . S
H2126 C2139 0.929 . S
H2127 C2137 0.929 . S
H2128 C2132 0.929 . S
H2129 C2138 0.929 . S
C2130 H2124 0.930 . S
C2130 C2131 1.367 . S
C2130 C2138 1.378 . S
C2131 C2130 1.367 . S
C2131 C2139 1.433 . S
C2132 H2128 0.929 . S
C2132 C2134 1.378 . S
C2132 C2136 1.350 . S
C2133 C2136 1.463 . S
C2133 C2138 1.350 . S
C2133 N2141 1.427 . S
C2134 H2125 0.930 . S
C2134 C2132 1.378 . S
C2134 C2135 1.367 . S
C2135 C2134 1.367 . S
C2135 C2137 1.433 . S
C2136 C2132 1.350 . S
C2136 C2133 1.463 . S
C2136 N2140 1.427 . S
C2137 H2127 0.929 . S
C2137 C2135 1.433 . S
C2137 N2140 1.384 . S
C2138 H2129 0.929 . S
C2138 C2130 1.378 . S
C2138 C2133 1.350 . S
C2139 H2126 0.929 . S
C2139 C2131 1.433 . S
C2139 N2141 1.384 . S
N2140 C2136 1.427 . S
N2140 C2137 1.384 . S
N2141 C2133 1.427 . S
N2141 C2139 1.384 . S
H2142 C2148 0.930 . S
H2143 C2152 0.930 . S
H2144 C2157 0.929 . S
H2145 C2155 0.929 . S
H2146 C2150 0.929 . S
H2147 C2156 0.929 . S
C2148 H2142 0.930 . S
C2148 C2149 1.367 . S
C2148 C2156 1.378 . S
C2149 C2148 1.367 . S
C2149 C2157 1.433 . S
C2150 H2146 0.929 . S
C2150 C2152 1.378 . S
C2150 C2154 1.350 . S
C2151 C2154 1.463 . S
C2151 C2156 1.350 . S
C2151 N2159 1.427 . S
C2152 H2143 0.930 . S
C2152 C2150 1.378 . S
C2152 C2153 1.367 . S
C2153 C2152 1.367 . S
C2153 C2155 1.433 . S
C2154 C2150 1.350 . S
C2154 C2151 1.463 . S
C2154 N2158 1.427 . S
C2155 H2145 0.929 . S
C2155 C2153 1.433 . S
C2155 N2158 1.384 . S
C2156 H2147 0.929 . S
C2156 C2148 1.378 . S
C2156 C2151 1.350 . S
C2157 H2144 0.929 . S
C2157 C2149 1.433 . S
C2157 N2159 1.384 . S
N2158 C2154 1.427 . S
N2158 C2155 1.384 . S
N2159 C2151 1.427 . S
N2159 C2157 1.384 . S
H2160 C2166 0.930 . S
H2161 C2170 0.930 . S
H2162 C2175 0.929 . S
H2163 C2173 0.929 1_556 S
H2164 C2168 0.929 . S
H2165 C2174 0.929 . S
C2166 H2160 0.930 . S
C2166 C2167 1.367 . S
C2166 C2174 1.378 . S
C2167 C2166 1.367 . S
C2167 C2175 1.433 . S
C2168 H2164 0.929 . S
C2168 C2170 1.378 . S
C2168 C2172 1.350 . S
C2169 C2172 1.463 . S
C2169 C2174 1.350 . S
C2169 N2177 1.427 . S
C2170 H2161 0.930 . S
C2170 C2168 1.378 . S
C2170 C2171 1.367 . S
C2171 C2170 1.367 . S
C2171 C2173 1.433 . S
C2172 C2168 1.350 . S
C2172 C2169 1.463 . S
C2172 N2176 1.427 . S
C2173 H2163 0.929 1_554 S
C2173 C2171 1.433 . S
C2173 N2176 1.384 . S
C2174 H2165 0.929 . S
C2174 C2166 1.378 . S
C2174 C2169 1.350 . S
C2175 H2162 0.929 . S
C2175 C2167 1.433 . S
C2175 N2177 1.384 . S
N2176 C2172 1.427 . S
N2176 C2173 1.384 . S
N2177 C2169 1.427 . S
N2177 C2175 1.384 . S
H2178 C2184 0.899 1_556 S
H2179 C2188 0.930 . S
H2180 C2193 0.929 . S
H2181 C2191 0.929 . S
H2182 C2186 0.929 . S
H2183 C2192 0.929 . S
C2184 H2178 0.899 1_554 S
C2184 C2185 1.367 . S
C2184 C2192 1.378 . S
C2185 C2184 1.367 . S
C2185 C2193 1.433 . S
C2186 H2182 0.929 . S
C2186 C2188 1.378 . S
C2186 C2190 1.350 . S
C2187 C2190 1.463 . S
C2187 C2192 1.350 . S
C2187 N2195 1.427 . S
C2188 H2179 0.930 . S
C2188 C2186 1.378 . S
C2188 C2189 1.367 . S
C2189 C2188 1.367 . S
C2189 C2191 1.433 . S
C2190 C2186 1.350 . S
C2190 C2187 1.463 . S
C2190 N2194 1.427 . S
C2191 H2181 0.929 . S
C2191 C2189 1.433 . S
C2191 N2194 1.384 . S
C2192 H2183 0.929 . S
C2192 C2184 1.378 . S
C2192 C2187 1.350 . S
C2193 H2180 0.929 . S
C2193 C2185 1.433 . S
C2193 N2195 1.384 . S
N2194 C2190 1.427 . S
N2194 C2191 1.384 . S
N2195 C2187 1.427 . S
N2195 C2193 1.384 . S
H2196 C2202 0.930 . S
H2197 C2206 0.930 . S
H2198 C2211 0.929 . S
H2199 C2209 0.929 . S
H2200 C2204 0.929 . S
H2201 C2210 0.929 . S
C2202 H2196 0.930 . S
C2202 C2203 1.367 . S
C2202 C2210 1.378 . S
C2203 C2202 1.367 . S
C2203 C2211 1.433 . S
C2204 H2200 0.929 . S
C2204 C2206 1.378 . S
C2204 C2208 1.350 . S
C2205 C2208 1.463 . S
C2205 C2210 1.350 . S
C2205 N2213 1.427 . S
C2206 H2197 0.930 . S
C2206 C2204 1.378 . S
C2206 C2207 1.367 . S
C2207 C2206 1.367 . S
C2207 C2209 1.433 . S
C2208 C2204 1.350 . S
C2208 C2205 1.463 . S
C2208 N2212 1.427 . S
C2209 H2199 0.929 . S
C2209 C2207 1.433 . S
C2209 N2212 1.384 . S
C2210 H2201 0.929 . S
C2210 C2202 1.378 . S
C2210 C2205 1.350 . S
C2211 H2198 0.929 . S
C2211 C2203 1.433 . S
C2211 N2213 1.384 . S
N2212 C2208 1.427 . S
N2212 C2209 1.384 . S
N2213 C2205 1.427 . S
N2213 C2211 1.384 . S
H2214 C2220 0.930 . S
H2215 C2224 0.930 . S
H2216 C2229 0.929 . S
H2217 C2227 0.929 . S
H2218 C2222 0.929 . S
H2219 C2228 0.929 . S
C2220 H2214 0.930 . S
C2220 C2221 1.367 . S
C2220 C2228 1.378 . S
C2221 C2220 1.367 . S
C2221 C2229 1.433 . S
C2222 H2218 0.929 . S
C2222 C2224 1.378 . S
C2222 C2226 1.350 . S
C2223 C2226 1.463 . S
C2223 C2228 1.350 . S
C2223 N2231 1.427 . S
C2224 H2215 0.930 . S
C2224 C2222 1.378 . S
C2224 C2225 1.367 . S
C2225 C2224 1.367 . S
C2225 C2227 1.433 . S
C2226 C2222 1.350 . S
C2226 C2223 1.463 . S
C2226 N2230 1.427 . S
C2227 H2217 0.929 . S
C2227 C2225 1.433 . S
C2227 N2230 1.384 . S
C2228 H2219 0.929 . S
C2228 C2220 1.378 . S
C2228 C2223 1.350 . S
C2229 H2216 0.929 . S
C2229 C2221 1.433 . S
C2229 N2231 1.384 . S
N2230 C2226 1.427 . S
N2230 C2227 1.384 . S
N2231 C2223 1.427 . S
N2231 C2229 1.384 . S
H2232 C2238 0.930 . S
H2233 C2242 0.930 . S
H2234 C2247 0.929 . S
H2235 C2245 0.929 . S
H2236 C2240 0.929 . S
H2237 C2246 0.929 . S
C2238 H2232 0.930 . S
C2238 C2239 1.367 . S
C2238 C2246 1.378 . S
C2239 C2238 1.367 . S
C2239 C2247 1.433 . S
C2240 H2236 0.929 . S
C2240 C2242 1.378 . S
C2240 C2244 1.350 . S
C2241 C2244 1.463 . S
C2241 C2246 1.350 . S
C2241 N2249 1.427 . S
C2242 H2233 0.930 . S
C2242 C2240 1.378 . S
C2242 C2243 1.367 . S
C2243 C2242 1.367 . S
C2243 C2245 1.433 . S
C2244 C2240 1.350 . S
C2244 C2241 1.463 . S
C2244 N2248 1.427 . S
C2245 H2235 0.929 . S
C2245 C2243 1.433 . S
C2245 N2248 1.384 . S
C2246 H2237 0.929 . S
C2246 C2238 1.378 . S
C2246 C2241 1.350 . S
C2247 H2234 0.929 . S
C2247 C2239 1.433 . S
C2247 N2249 1.384 . S
N2248 C2244 1.427 . S
N2248 C2245 1.384 . S
N2249 C2241 1.427 . S
N2249 C2247 1.384 . S
H2250 C2256 0.930 . S
H2251 C2260 0.930 . S
H2252 C2265 0.929 . S
H2253 C2263 0.929 . S
H2254 C2258 0.929 . S
H2255 C2264 0.929 . S
C2256 H2250 0.930 . S
C2256 C2257 1.367 . S
C2256 C2264 1.378 . S
C2257 C2256 1.367 . S
C2257 C2265 1.433 . S
C2258 H2254 0.929 . S
C2258 C2260 1.378 . S
C2258 C2262 1.350 . S
C2259 C2262 1.463 . S
C2259 C2264 1.350 . S
C2259 N2267 1.427 . S
C2260 H2251 0.930 . S
C2260 C2258 1.378 . S
C2260 C2261 1.367 . S
C2261 C2260 1.367 . S
C2261 C2263 1.433 . S
C2262 C2258 1.350 . S
C2262 C2259 1.463 . S
C2262 N2266 1.427 . S
C2263 H2253 0.929 . S
C2263 C2261 1.433 . S
C2263 N2266 1.384 . S
C2264 H2255 0.929 . S
C2264 C2256 1.378 . S
C2264 C2259 1.350 . S
C2265 H2252 0.929 . S
C2265 C2257 1.433 . S
C2265 N2267 1.384 . S
N2266 C2262 1.427 . S
N2266 C2263 1.384 . S
N2267 C2259 1.427 . S
N2267 C2265 1.384 . S
H2268 C2274 0.930 . S
H2269 C2278 0.930 . S
H2270 C2283 0.929 . S
H2271 C2281 0.929 . S
H2272 C2276 0.929 . S
H2273 C2282 0.929 . S
C2274 H2268 0.930 . S
C2274 C2275 1.367 . S
C2274 C2282 1.378 . S
C2275 C2274 1.367 . S
C2275 C2283 1.433 . S
C2276 H2272 0.929 . S
C2276 C2278 1.378 . S
C2276 C2280 1.350 . S
C2277 C2280 1.463 1_455 S
C2277 C2282 1.350 . S
C2277 N2285 1.427 . S
C2278 H2269 0.930 . S
C2278 C2276 1.378 . S
C2278 C2279 1.367 . S
C2279 C2278 1.367 . S
C2279 C2281 1.433 . S
C2280 C2276 1.350 . S
C2280 C2277 1.463 1_655 S
C2280 N2284 1.427 . S
C2281 H2271 0.929 . S
C2281 C2279 1.433 . S
C2281 N2284 1.384 . S
C2282 H2273 0.929 . S
C2282 C2274 1.378 . S
C2282 C2277 1.350 . S
C2283 H2270 0.929 . S
C2283 C2275 1.433 . S
C2283 N2285 1.384 . S
N2284 C2280 1.427 . S
N2284 C2281 1.384 . S
N2285 C2277 1.427 . S
N2285 C2283 1.384 . S
H2286 C2292 0.930 . S
H2287 C2296 0.930 . S
H2288 C2301 0.929 . S
H2289 C2299 0.929 . S
H2290 C2294 0.929 . S
H2291 C2300 0.929 . S
C2292 H2286 0.930 . S
C2292 C2293 1.367 . S
C2292 C2300 1.378 . S
C2293 C2292 1.367 . S
C2293 C2301 1.433 . S
C2294 H2290 0.929 . S
C2294 C2296 1.378 . S
C2294 C2298 1.350 . S
C2295 C2298 1.463 . S
C2295 C2300 1.350 . S
C2295 N2303 1.427 . S
C2296 H2287 0.930 . S
C2296 C2294 1.378 . S
C2296 C2297 1.367 . S
C2297 C2296 1.367 . S
C2297 C2299 1.433 . S
C2298 C2294 1.350 . S
C2298 C2295 1.463 . S
C2298 N2302 1.427 . S
C2299 H2289 0.929 . S
C2299 C2297 1.433 . S
C2299 N2302 1.384 . S
C2300 H2291 0.929 . S
C2300 C2292 1.378 . S
C2300 C2295 1.350 . S
C2301 H2288 0.929 . S
C2301 C2293 1.433 . S
C2301 N2303 1.384 . S
N2302 C2298 1.427 . S
N2302 C2299 1.384 . S
N2303 C2295 1.427 . S
N2303 C2301 1.384 . S
H2304 C2310 0.930 . S
H2305 C2314 0.930 . S
H2306 C2319 0.929 . S
H2307 C2317 0.929 . S
H2308 C2312 0.929 . S
H2309 C2318 0.929 . S
C2310 H2304 0.930 . S
C2310 C2311 1.367 . S
C2310 C2318 1.378 . S
C2311 C2310 1.367 . S
C2311 C2319 1.433 . S
C2312 H2308 0.929 . S
C2312 C2314 1.378 . S
C2312 C2316 1.350 . S
C2313 C2316 1.463 1_545 S
C2313 C2318 1.350 . S
C2313 N2321 1.427 . S
C2314 H2305 0.930 . S
C2314 C2312 1.378 . S
C2314 C2315 1.367 . S
C2315 C2314 1.367 . S
C2315 C2317 1.433 . S
C2316 C2312 1.350 . S
C2316 C2313 1.463 1_565 S
C2316 N2320 1.427 . S
C2317 H2307 0.929 . S
C2317 C2315 1.433 . S
C2317 N2320 1.384 . S
C2318 H2309 0.929 . S
C2318 C2310 1.378 . S
C2318 C2313 1.350 . S
C2319 H2306 0.929 . S
C2319 C2311 1.433 . S
C2319 N2321 1.384 . S
N2320 C2316 1.427 . S
N2320 C2317 1.384 . S
N2321 C2313 1.427 . S
N2321 C2319 1.384 . S
H2322 C2328 0.930 . S
H2323 C2332 0.930 . S
H2324 C2337 0.929 . S
H2325 C2335 0.929 . S
H2326 C2330 0.922 . S
H2327 C2336 0.922 . S
C2328 H2322 0.930 . S
C2328 C2329 1.367 . S
C2328 C2336 1.378 . S
C2329 C2328 1.367 . S
C2329 C2337 1.433 . S
C2330 H2326 0.922 . S
C2330 C2332 1.378 . S
C2330 C2334 1.350 . S
C2331 C2334 1.463 1_565 S
C2331 C2336 1.350 . S
C2331 N2339 1.427 . S
C2332 H2323 0.930 . S
C2332 C2330 1.378 . S
C2332 C2333 1.367 . S
C2333 C2332 1.367 . S
C2333 C2335 1.433 . S
C2334 C2330 1.350 . S
C2334 C2331 1.463 1_545 S
C2334 N2338 1.427 . S
C2335 H2325 0.929 . S
C2335 C2333 1.433 . S
C2335 N2338 1.384 . S
C2336 H2327 0.922 . S
C2336 C2328 1.378 . S
C2336 C2331 1.350 . S
C2337 H2324 0.929 . S
C2337 C2329 1.433 . S
C2337 N2339 1.384 . S
N2338 C2334 1.427 . S
N2338 C2335 1.384 . S
N2339 C2331 1.427 . S
N2339 C2337 1.384 . S
H2340 C2346 0.930 . S
H2341 C2350 0.930 . S
H2342 C2355 0.929 . S
H2343 C2353 0.929 . S
H2344 C2348 0.929 . S
H2345 C2354 0.929 . S
C2346 H2340 0.930 . S
C2346 C2347 1.367 . S
C2346 C2354 1.378 . S
C2347 C2346 1.367 . S
C2347 C2355 1.433 . S
C2348 H2344 0.929 . S
C2348 C2350 1.378 . S
C2348 C2352 1.350 . S
C2349 C2352 1.463 1_455 S
C2349 C2354 1.350 . S
C2349 N2357 1.427 . S
C2350 H2341 0.930 . S
C2350 C2348 1.378 . S
C2350 C2351 1.367 . S
C2351 C2350 1.367 . S
C2351 C2353 1.433 . S
C2352 C2348 1.350 . S
C2352 C2349 1.463 1_655 S
C2352 N2356 1.427 . S
C2353 H2343 0.929 . S
C2353 C2351 1.433 . S
C2353 N2356 1.384 . S
C2354 H2345 0.929 . S
C2354 C2346 1.378 . S
C2354 C2349 1.350 . S
C2355 H2342 0.929 . S
C2355 C2347 1.433 . S
C2355 N2357 1.384 . S
N2356 C2352 1.427 . S
N2356 C2353 1.384 . S
N2357 C2349 1.427 . S
N2357 C2355 1.384 . S
H2358 C2364 0.930 . S
H2359 C2368 0.930 . S
H2360 C2373 0.929 . S
H2361 C2371 0.929 . S
H2362 C2366 0.929 . S
H2363 C2372 0.929 . S
C2364 H2358 0.930 . S
C2364 C2365 1.367 . S
C2364 C2372 1.378 . S
C2365 C2364 1.367 . S
C2365 C2373 1.433 . S
C2366 H2362 0.929 . S
C2366 C2368 1.378 . S
C2366 C2370 1.350 . S
C2367 C2370 1.463 . S
C2367 C2372 1.350 . S
C2367 N2375 1.427 . S
C2368 H2359 0.930 . S
C2368 C2366 1.378 . S
C2368 C2369 1.367 . S
C2369 C2368 1.367 . S
C2369 C2371 1.433 . S
C2370 C2366 1.350 . S
C2370 C2367 1.463 . S
C2370 N2374 1.427 . S
C2371 H2361 0.929 . S
C2371 C2369 1.433 . S
C2371 N2374 1.384 . S
C2372 H2363 0.929 . S
C2372 C2364 1.378 . S
C2372 C2367 1.350 . S
C2373 H2360 0.929 . S
C2373 C2365 1.433 . S
C2373 N2375 1.384 . S
N2374 C2370 1.427 . S
N2374 C2371 1.384 . S
N2375 C2367 1.427 . S
N2375 C2373 1.384 . S
H2376 C2382 0.930 . S
H2377 C2386 0.930 . S
H2378 C2391 0.929 . S
H2379 C2389 0.929 . S
H2380 C2384 0.929 . S
H2381 C2390 0.929 . S
C2382 H2376 0.930 . S
C2382 C2383 1.367 . S
C2382 C2390 1.378 . S
C2383 C2382 1.367 . S
C2383 C2391 1.433 . S
C2384 H2380 0.929 . S
C2384 C2386 1.378 . S
C2384 C2388 1.350 . S
C2385 C2388 1.463 . S
C2385 C2390 1.350 . S
C2385 N2393 1.427 . S
C2386 H2377 0.930 . S
C2386 C2384 1.378 . S
C2386 C2387 1.367 . S
C2387 C2386 1.367 . S
C2387 C2389 1.433 . S
C2388 C2384 1.350 . S
C2388 C2385 1.463 . S
C2388 N2392 1.427 . S
C2389 H2379 0.929 . S
C2389 C2387 1.433 . S
C2389 N2392 1.384 . S
C2390 H2381 0.929 . S
C2390 C2382 1.378 . S
C2390 C2385 1.350 . S
C2391 H2378 0.929 . S
C2391 C2383 1.433 . S
C2391 N2393 1.384 . S
N2392 C2388 1.427 . S
N2392 C2389 1.384 . S
N2393 C2385 1.427 . S
N2393 C2391 1.384 . S
H2394 C2400 0.930 . S
H2395 C2404 0.930 . S
H2396 C2409 0.929 . S
H2397 C2407 0.929 . S
H2398 C2402 0.929 . S
H2399 C2408 0.929 . S
C2400 H2394 0.930 . S
C2400 C2401 1.367 . S
C2400 C2408 1.378 . S
C2401 C2400 1.367 . S
C2401 C2409 1.433 1_545 S
C2402 H2398 0.929 . S
C2402 C2404 1.378 . S
C2402 C2406 1.350 . S
C2403 C2406 1.463 1_545 S
C2403 C2408 1.350 . S
C2403 N2411 1.427 1_545 S
C2404 H2395 0.930 . S
C2404 C2402 1.378 . S
C2404 C2405 1.367 . S
C2405 C2404 1.367 . S
C2405 C2407 1.433 1_565 S
C2406 C2402 1.350 . S
C2406 C2403 1.463 1_565 S
C2406 N2410 1.427 1_565 S
C2407 H2397 0.929 . S
C2407 C2405 1.433 1_545 S
C2407 N2410 1.384 . S
C2408 H2399 0.929 . S
C2408 C2400 1.378 . S
C2408 C2403 1.350 . S
C2409 H2396 0.929 . S
C2409 C2401 1.433 1_565 S
C2409 N2411 1.384 . S
N2410 C2406 1.427 1_545 S
N2410 C2407 1.384 . S
N2411 C2403 1.427 1_565 S
N2411 C2409 1.384 . S
H2412 C2418 0.930 . S
H2413 C2422 0.930 . S
H2414 C2427 0.929 . S
H2415 C2425 0.929 . S
H2416 C2420 0.929 . S
H2417 C2426 0.929 . S
C2418 H2412 0.930 . S
C2418 C2419 1.367 . S
C2418 C2426 1.378 . S
C2419 C2418 1.367 . S
C2419 C2427 1.433 . S
C2420 H2416 0.929 . S
C2420 C2422 1.378 . S
C2420 C2424 1.350 . S
C2421 C2424 1.463 1_655 S
C2421 C2426 1.350 . S
C2421 N2429 1.427 . S
C2422 H2413 0.930 . S
C2422 C2420 1.378 . S
C2422 C2423 1.367 . S
C2423 C2422 1.367 . S
C2423 C2425 1.433 . S
C2424 C2420 1.350 . S
C2424 C2421 1.463 1_455 S
C2424 N2428 1.427 . S
C2425 H2415 0.929 . S
C2425 C2423 1.433 . S
C2425 N2428 1.384 . S
C2426 H2417 0.929 . S
C2426 C2418 1.378 . S
C2426 C2421 1.350 . S
C2427 H2414 0.929 . S
C2427 C2419 1.433 . S
C2427 N2429 1.384 . S
N2428 C2424 1.427 . S
N2428 C2425 1.384 . S
N2429 C2421 1.427 . S
N2429 C2427 1.384 . S
H2430 C2436 0.930 . S
H2431 C2440 0.930 . S
H2432 C2445 0.929 . S
H2433 C2443 0.929 . S
H2434 C2438 0.929 . S
H2435 C2444 0.929 . S
C2436 H2430 0.930 . S
C2436 C2437 1.367 . S
C2436 C2444 1.378 . S
C2437 C2436 1.367 . S
C2437 C2445 1.433 . S
C2438 H2434 0.929 . S
C2438 C2440 1.378 . S
C2438 C2442 1.350 . S
C2439 C2442 1.463 . S
C2439 C2444 1.350 . S
C2439 N2447 1.427 . S
C2440 H2431 0.930 . S
C2440 C2438 1.378 . S
C2440 C2441 1.367 . S
C2441 C2440 1.367 . S
C2441 C2443 1.433 . S
C2442 C2438 1.350 . S
C2442 C2439 1.463 . S
C2442 N2446 1.427 . S
C2443 H2433 0.929 . S
C2443 C2441 1.433 . S
C2443 N2446 1.384 . S
C2444 H2435 0.929 . S
C2444 C2436 1.378 . S
C2444 C2439 1.350 . S
C2445 H2432 0.929 . S
C2445 C2437 1.433 . S
C2445 N2447 1.384 . S
N2446 C2442 1.427 . S
N2446 C2443 1.384 . S
N2447 C2439 1.427 . S
N2447 C2445 1.384 . S
H2448 C2454 0.930 . S
H2449 C2458 0.930 . S
H2450 C2463 0.929 1_545 S
H2451 C2461 0.929 1_565 S
H2452 C2456 0.929 . S
H2453 C2462 0.929 . S
C2454 H2448 0.930 . S
C2454 C2455 1.367 . S
C2454 C2462 1.378 . S
C2455 C2454 1.367 . S
C2455 C2463 1.433 . S
C2456 H2452 0.929 . S
C2456 C2458 1.378 . S
C2456 C2460 1.350 . S
C2457 C2460 1.463 1_565 S
C2457 C2462 1.350 . S
C2457 N2465 1.427 1_565 S
C2458 H2449 0.930 . S
C2458 C2456 1.378 . S
C2458 C2459 1.367 . S
C2459 C2458 1.367 . S
C2459 C2461 1.433 . S
C2460 C2456 1.350 . S
C2460 C2457 1.463 1_545 S
C2460 N2464 1.427 1_545 S
C2461 H2451 0.929 1_545 S
C2461 C2459 1.433 . S
C2461 N2464 1.384 1_545 S
C2462 H2453 0.929 . S
C2462 C2454 1.378 . S
C2462 C2457 1.350 . S
C2463 H2450 0.929 1_565 S
C2463 C2455 1.433 . S
C2463 N2465 1.384 1_565 S
N2464 C2460 1.427 1_565 S
N2464 C2461 1.384 1_565 S
N2465 C2457 1.427 1_545 S
N2465 C2463 1.384 1_545 S
H2466 C2472 0.930 . S
H2467 C2476 0.930 . S
H2468 C2481 0.929 . S
H2469 C2479 0.929 . S
H2470 C2474 0.929 1_655 S
H2471 C2480 0.929 1_455 S
C2472 H2466 0.930 . S
C2472 C2473 1.367 . S
C2472 C2480 1.378 . S
C2473 C2472 1.367 . S
C2473 C2481 1.433 . S
C2474 H2470 0.929 1_455 S
C2474 C2476 1.378 . S
C2474 C2478 1.350 . S
C2475 C2478 1.463 1_655 S
C2475 C2480 1.350 . S
C2475 N2483 1.427 . S
C2476 H2467 0.930 . S
C2476 C2474 1.378 . S
C2476 C2477 1.367 . S
C2477 C2476 1.367 . S
C2477 C2479 1.433 . S
C2478 C2474 1.350 . S
C2478 C2475 1.463 1_455 S
C2478 N2482 1.427 . S
C2479 H2469 0.929 . S
C2479 C2477 1.433 . S
C2479 N2482 1.384 . S
C2480 H2471 0.929 1_655 S
C2480 C2472 1.378 . S
C2480 C2475 1.350 . S
C2481 H2468 0.929 . S
C2481 C2473 1.433 . S
C2481 N2483 1.384 . S
N2482 C2478 1.427 . S
N2482 C2479 1.384 . S
N2483 C2475 1.427 . S
N2483 C2481 1.384 . S
H2484 C2490 0.930 . S
H2485 C2494 0.930 . S
H2486 C2499 0.929 . S
H2487 C2497 0.929 . S
H2488 C2492 0.929 . S
H2489 C2498 0.929 . S
C2490 H2484 0.930 . S
C2490 C2491 1.367 . S
C2490 C2498 1.378 . S
C2491 C2490 1.367 . S
C2491 C2499 1.433 . S
C2492 H2488 0.929 . S
C2492 C2494 1.378 . S
C2492 C2496 1.350 . S
C2493 C2496 1.463 . S
C2493 C2498 1.350 . S
C2493 N2501 1.427 . S
C2494 H2485 0.930 . S
C2494 C2492 1.378 . S
C2494 C2495 1.367 . S
C2495 C2494 1.367 . S
C2495 C2497 1.433 . S
C2496 C2492 1.350 . S
C2496 C2493 1.463 . S
C2496 N2500 1.427 . S
C2497 H2487 0.929 . S
C2497 C2495 1.433 . S
C2497 N2500 1.384 . S
C2498 H2489 0.929 . S
C2498 C2490 1.378 . S
C2498 C2493 1.350 . S
C2499 H2486 0.929 . S
C2499 C2491 1.433 . S
C2499 N2501 1.384 . S
N2500 C2496 1.427 . S
N2500 C2497 1.384 . S
N2501 C2493 1.427 . S
N2501 C2499 1.384 . S
H2502 C2508 0.930 . S
H2503 C2512 0.930 . S
H2504 C2517 0.929 . S
H2505 C2515 0.929 . S
H2506 C2510 0.929 . S
H2507 C2516 0.929 . S
C2508 H2502 0.930 . S
C2508 C2509 1.367 . S
C2508 C2516 1.378 . S
C2509 C2508 1.367 . S
C2509 C2517 1.433 . S
C2510 H2506 0.929 . S
C2510 C2512 1.378 . S
C2510 C2514 1.350 . S
C2511 C2514 1.463 . S
C2511 C2516 1.350 . S
C2511 N2519 1.427 . S
C2512 H2503 0.930 . S
C2512 C2510 1.378 . S
C2512 C2513 1.367 . S
C2513 C2512 1.367 . S
C2513 C2515 1.433 . S
C2514 C2510 1.350 . S
C2514 C2511 1.463 . S
C2514 N2518 1.427 . S
C2515 H2505 0.929 . S
C2515 C2513 1.433 . S
C2515 N2518 1.384 . S
C2516 H2507 0.929 . S
C2516 C2508 1.378 . S
C2516 C2511 1.350 . S
C2517 H2504 0.929 . S
C2517 C2509 1.433 . S
C2517 N2519 1.384 . S
N2518 C2514 1.427 . S
N2518 C2515 1.384 . S
N2519 C2511 1.427 . S
N2519 C2517 1.384 . S
H2520 C2526 0.930 . S
H2521 C2530 0.930 . S
H2522 C2535 0.929 . S
H2523 C2533 0.929 . S
H2524 C2528 0.929 . S
H2525 C2534 0.929 . S
C2526 H2520 0.930 . S
C2526 C2527 1.367 . S
C2526 C2534 1.378 . S
C2527 C2526 1.367 . S
C2527 C2535 1.433 . S
C2528 H2524 0.929 . S
C2528 C2530 1.378 . S
C2528 C2532 1.350 . S
C2529 C2532 1.463 . S
C2529 C2534 1.350 . S
C2529 N2537 1.427 . S
C2530 H2521 0.930 . S
C2530 C2528 1.378 . S
C2530 C2531 1.367 . S
C2531 C2530 1.367 . S
C2531 C2533 1.433 . S
C2532 C2528 1.350 . S
C2532 C2529 1.463 . S
C2532 N2536 1.427 . S
C2533 H2523 0.929 . S
C2533 C2531 1.433 . S
C2533 N2536 1.384 . S
C2534 H2525 0.929 . S
C2534 C2526 1.378 . S
C2534 C2529 1.350 . S
C2535 H2522 0.929 . S
C2535 C2527 1.433 . S
C2535 N2537 1.384 . S
N2536 C2532 1.427 . S
N2536 C2533 1.384 . S
N2537 C2529 1.427 . S
N2537 C2535 1.384 . S
H2538 C2544 0.930 . S
H2539 C2548 0.930 . S
H2540 C2553 0.929 . S
H2541 C2551 0.929 . S
H2542 C2546 0.929 . S
H2543 C2552 0.929 . S
C2544 H2538 0.930 . S
C2544 C2545 1.367 . S
C2544 C2552 1.378 . S
C2545 C2544 1.367 . S
C2545 C2553 1.433 . S
C2546 H2542 0.929 . S
C2546 C2548 1.378 . S
C2546 C2550 1.350 . S
C2547 C2550 1.463 . S
C2547 C2552 1.350 . S
C2547 N2555 1.427 . S
C2548 H2539 0.930 . S
C2548 C2546 1.378 . S
C2548 C2549 1.367 1_554 S
C2549 C2548 1.367 1_556 S
C2549 C2551 1.433 1_556 S
C2550 C2546 1.350 . S
C2550 C2547 1.463 . S
C2550 N2554 1.427 . S
C2551 H2541 0.929 . S
C2551 C2549 1.433 1_554 S
C2551 N2554 1.384 . S
C2552 H2543 0.929 . S
C2552 C2544 1.378 . S
C2552 C2547 1.350 . S
C2553 H2540 0.929 . S
C2553 C2545 1.433 . S
C2553 N2555 1.384 . S
N2554 C2550 1.427 . S
N2554 C2551 1.384 . S
N2555 C2547 1.427 . S
N2555 C2553 1.384 . S
H2556 C2562 0.930 . S
H2557 C2566 0.930 . S
H2558 C2571 0.929 . S
H2559 C2569 0.929 . S
H2560 C2564 0.929 . S
H2561 C2570 0.929 . S
C2562 H2556 0.930 . S
C2562 C2563 1.367 . S
C2562 C2570 1.378 . S
C2563 C2562 1.367 . S
C2563 C2571 1.433 . S
C2564 H2560 0.929 . S
C2564 C2566 1.378 . S
C2564 C2568 1.350 . S
C2565 C2568 1.463 . S
C2565 C2570 1.350 . S
C2565 N2573 1.427 . S
C2566 H2557 0.930 . S
C2566 C2564 1.378 . S
C2566 C2567 1.367 1_554 S
C2567 C2566 1.367 1_556 S
C2567 C2569 1.433 1_556 S
C2568 C2564 1.350 . S
C2568 C2565 1.463 . S
C2568 N2572 1.427 . S
C2569 H2559 0.929 . S
C2569 C2567 1.433 1_554 S
C2569 N2572 1.384 . S
C2570 H2561 0.929 . S
C2570 C2562 1.378 . S
C2570 C2565 1.350 . S
C2571 H2558 0.929 . S
C2571 C2563 1.433 . S
C2571 N2573 1.384 . S
N2572 C2568 1.427 . S
N2572 C2569 1.384 . S
N2573 C2565 1.427 . S
N2573 C2571 1.384 . S
H2574 C2580 0.930 . S
H2575 C2584 0.930 1_556 S
H2576 C2589 0.929 . S
H2577 C2587 0.929 . S
H2578 C2582 0.929 . S
H2579 C2588 0.929 . S
C2580 H2574 0.930 . S
C2580 C2581 1.367 . S
C2580 C2588 1.378 . S
C2581 C2580 1.367 . S
C2581 C2589 1.433 . S
C2582 H2578 0.929 . S
C2582 C2584 1.378 . S
C2582 C2586 1.350 . S
C2583 C2586 1.463 . S
C2583 C2588 1.350 . S
C2583 N2591 1.427 . S
C2584 H2575 0.930 1_554 S
C2584 C2582 1.378 . S
C2584 C2585 1.367 1_554 S
C2585 C2584 1.367 1_556 S
C2585 C2587 1.433 1_556 S
C2586 C2582 1.350 . S
C2586 C2583 1.463 . S
C2586 N2590 1.427 . S
C2587 H2577 0.929 . S
C2587 C2585 1.433 1_554 S
C2587 N2590 1.384 . S
C2588 H2579 0.929 . S
C2588 C2580 1.378 . S
C2588 C2583 1.350 . S
C2589 H2576 0.929 . S
C2589 C2581 1.433 . S
C2589 N2591 1.384 . S
N2590 C2586 1.427 . S
N2590 C2587 1.384 . S
N2591 C2583 1.427 . S
N2591 C2589 1.384 . S
H2592 C2598 0.930 . S
H2593 C2602 0.930 . S
H2594 C2607 0.929 . S
H2595 C2605 0.929 1_554 S
H2596 C2600 0.929 . S
H2597 C2606 0.929 . S
C2598 H2592 0.930 . S
C2598 C2599 1.367 . S
C2598 C2606 1.378 . S
C2599 C2598 1.367 . S
C2599 C2607 1.433 . S
C2600 H2596 0.929 . S
C2600 C2602 1.378 . S
C2600 C2604 1.350 . S
C2601 C2604 1.463 . S
C2601 C2606 1.350 . S
C2601 N2609 1.427 . S
C2602 H2593 0.930 . S
C2602 C2600 1.378 . S
C2602 C2603 1.367 1_556 S
C2603 C2602 1.367 1_554 S
C2603 C2605 1.433 1_554 S
C2604 C2600 1.350 . S
C2604 C2601 1.463 . S
C2604 N2608 1.427 . S
C2605 H2595 0.929 1_556 S
C2605 C2603 1.433 1_556 S
C2605 N2608 1.384 . S
C2606 H2597 0.929 . S
C2606 C2598 1.378 . S
C2606 C2601 1.350 . S
C2607 H2594 0.929 . S
C2607 C2599 1.433 . S
C2607 N2609 1.384 . S
N2608 C2604 1.427 . S
N2608 C2605 1.384 . S
N2609 C2601 1.427 . S
N2609 C2607 1.384 . S
H2610 C2616 0.930 . S
H2611 C2620 0.930 . S
H2612 C2625 0.929 1_554 S
H2613 C2623 0.929 . S
H2614 C2618 0.929 . S
H2615 C2624 0.929 . S
C2616 H2610 0.930 . S
C2616 C2617 1.344 1_556 S
C2616 C2624 1.378 . S
C2617 C2616 1.344 1_554 S
C2617 C2625 1.425 1_554 S
C2618 H2614 0.929 . S
C2618 C2620 1.378 . S
C2618 C2622 1.350 . S
C2619 C2622 1.463 . S
C2619 C2624 1.350 . S
C2619 N2627 1.427 . S
C2620 H2611 0.930 . S
C2620 C2618 1.378 . S
C2620 C2621 1.367 . S
C2621 C2620 1.367 . S
C2621 C2623 1.433 . S
C2622 C2618 1.350 . S
C2622 C2619 1.463 . S
C2622 N2626 1.427 . S
C2623 H2613 0.929 . S
C2623 C2621 1.433 . S
C2623 N2626 1.384 . S
C2624 H2615 0.929 . S
C2624 C2616 1.378 . S
C2624 C2619 1.350 . S
C2625 H2612 0.929 1_556 S
C2625 C2617 1.425 1_556 S
C2625 N2627 1.384 . S
N2626 C2622 1.427 . S
N2626 C2623 1.384 . S
N2627 C2619 1.427 . S
N2627 C2625 1.384 . S
H2628 C2634 0.930 . S
H2629 C2638 0.930 . S
H2630 C2643 0.929 1_554 S
H2631 C2641 0.929 . S
H2632 C2636 0.929 . S
H2633 C2642 0.929 . S
C2634 H2628 0.930 . S
C2634 C2635 1.344 1_556 S
C2634 C2642 1.378 . S
C2635 C2634 1.344 1_554 S
C2635 C2643 1.425 1_554 S
C2636 H2632 0.929 . S
C2636 C2638 1.378 . S
C2636 C2640 1.350 . S
C2637 C2640 1.463 . S
C2637 C2642 1.350 . S
C2637 N2645 1.427 . S
C2638 H2629 0.930 . S
C2638 C2636 1.378 . S
C2638 C2639 1.367 . S
C2639 C2638 1.367 . S
C2639 C2641 1.433 . S
C2640 C2636 1.350 . S
C2640 C2637 1.463 . S
C2640 N2644 1.427 . S
C2641 H2631 0.929 . S
C2641 C2639 1.433 . S
C2641 N2644 1.384 . S
C2642 H2633 0.929 . S
C2642 C2634 1.378 . S
C2642 C2637 1.350 . S
C2643 H2630 0.929 1_556 S
C2643 C2635 1.425 1_556 S
C2643 N2645 1.384 . S
N2644 C2640 1.427 . S
N2644 C2641 1.384 . S
N2645 C2637 1.427 . S
N2645 C2643 1.384 . S
H2646 C2652 0.930 . S
H2647 C2656 0.930 . S
H2648 C2661 0.929 . S
H2649 C2659 0.929 . S
H2650 C2654 0.929 . S
H2651 C2660 0.929 . S
C2652 H2646 0.930 . S
C2652 C2653 1.367 . S
C2652 C2660 1.378 . S
C2653 C2652 1.367 . S
C2653 C2661 1.433 . S
C2654 H2650 0.929 . S
C2654 C2656 1.378 . S
C2654 C2658 1.350 . S
C2655 C2658 1.463 . S
C2655 C2660 1.350 . S
C2655 N2663 1.427 . S
C2656 H2647 0.930 . S
C2656 C2654 1.378 . S
C2656 C2657 1.367 . S
C2657 C2656 1.367 . S
C2657 C2659 1.433 . S
C2658 C2654 1.350 . S
C2658 C2655 1.463 . S
C2658 N2662 1.427 . S
C2659 H2649 0.929 . S
C2659 C2657 1.433 . S
C2659 N2662 1.384 . S
C2660 H2651 0.929 . S
C2660 C2652 1.378 . S
C2660 C2655 1.350 . S
C2661 H2648 0.929 . S
C2661 C2653 1.433 . S
C2661 N2663 1.384 . S
N2662 C2658 1.427 . S
N2662 C2659 1.384 . S
N2663 C2655 1.427 . S
N2663 C2661 1.384 . S
H2664 C2670 0.930 . S
H2665 C2674 0.930 . S
H2666 C2679 0.929 . S
H2667 C2677 0.929 . S
H2668 C2672 0.929 . S
H2669 C2678 0.929 . S
C2670 H2664 0.930 . S
C2670 C2671 1.367 . S
C2670 C2678 1.378 . S
C2671 C2670 1.367 . S
C2671 C2679 1.433 . S
C2672 H2668 0.929 . S
C2672 C2674 1.378 . S
C2672 C2676 1.350 . S
C2673 C2676 1.463 . S
C2673 C2678 1.350 . S
C2673 N2681 1.427 . S
C2674 H2665 0.930 . S
C2674 C2672 1.378 . S
C2674 C2675 1.367 . S
C2675 C2674 1.367 . S
C2675 C2677 1.433 . S
C2676 C2672 1.350 . S
C2676 C2673 1.463 . S
C2676 N2680 1.427 . S
C2677 H2667 0.929 . S
C2677 C2675 1.433 . S
C2677 N2680 1.384 . S
C2678 H2669 0.929 . S
C2678 C2670 1.378 . S
C2678 C2673 1.350 . S
C2679 H2666 0.929 . S
C2679 C2671 1.433 . S
C2679 N2681 1.384 . S
N2680 C2676 1.427 . S
N2680 C2677 1.384 . S
N2681 C2673 1.427 . S
N2681 C2679 1.384 . S
H2682 C2688 0.930 . S
H2683 C2692 0.930 . S
H2684 C2697 0.929 . S
H2685 C2695 0.929 . S
H2686 C2690 0.929 . S
H2687 C2696 0.929 . S
C2688 H2682 0.930 . S
C2688 C2689 1.367 . S
C2688 C2696 1.378 . S
C2689 C2688 1.367 . S
C2689 C2697 1.433 . S
C2690 H2686 0.929 . S
C2690 C2692 1.378 . S
C2690 C2694 1.350 . S
C2691 C2694 1.463 . S
C2691 C2696 1.350 . S
C2691 N2699 1.427 . S
C2692 H2683 0.930 . S
C2692 C2690 1.378 . S
C2692 C2693 1.367 . S
C2693 C2692 1.367 . S
C2693 C2695 1.433 . S
C2694 C2690 1.350 . S
C2694 C2691 1.463 . S
C2694 N2698 1.427 . S
C2695 H2685 0.929 . S
C2695 C2693 1.433 . S
C2695 N2698 1.384 . S
C2696 H2687 0.929 . S
C2696 C2688 1.378 . S
C2696 C2691 1.350 . S
C2697 H2684 0.929 . S
C2697 C2689 1.433 . S
C2697 N2699 1.384 . S
N2698 C2694 1.427 . S
N2698 C2695 1.384 . S
N2699 C2691 1.427 . S
N2699 C2697 1.384 . S
H2700 C2706 0.930 . S
H2701 C2710 0.930 . S
H2702 C2715 0.929 . S
H2703 C2713 0.929 . S
H2704 C2708 0.929 . S
H2705 C2714 0.929 . S
C2706 H2700 0.930 . S
C2706 C2707 1.367 . S
C2706 C2714 1.378 . S
C2707 C2706 1.367 . S
C2707 C2715 1.433 . S
C2708 H2704 0.929 . S
C2708 C2710 1.378 . S
C2708 C2712 1.350 . S
C2709 C2712 1.463 . S
C2709 C2714 1.350 . S
C2709 N2717 1.427 . S
C2710 H2701 0.930 . S
C2710 C2708 1.378 . S
C2710 C2711 1.367 . S
C2711 C2710 1.367 . S
C2711 C2713 1.433 . S
C2712 C2708 1.350 . S
C2712 C2709 1.463 . S
C2712 N2716 1.427 . S
C2713 H2703 0.929 . S
C2713 C2711 1.433 . S
C2713 N2716 1.384 . S
C2714 H2705 0.929 . S
C2714 C2706 1.378 . S
C2714 C2709 1.350 . S
C2715 H2702 0.929 . S
C2715 C2707 1.433 . S
C2715 N2717 1.384 . S
N2716 C2712 1.427 . S
N2716 C2713 1.384 . S
N2717 C2709 1.427 . S
N2717 C2715 1.384 . S
H2718 C2724 0.930 . S
H2719 C2728 0.930 . S
H2720 C2733 0.929 . S
H2721 C2731 0.929 . S
H2722 C2726 0.966 . S
H2723 C2732 0.929 . S
C2724 H2718 0.930 . S
C2724 C2725 1.367 . S
C2724 C2732 1.378 . S
C2725 C2724 1.367 . S
C2725 C2733 1.433 . S
C2726 H2722 0.966 . S
C2726 C2728 1.378 1_565 S
C2726 C2730 1.350 . S
C2727 C2730 1.463 . S
C2727 C2732 1.350 . S
C2727 N2735 1.427 . S
C2728 H2719 0.930 . S
C2728 C2726 1.378 1_545 S
C2728 C2729 1.367 1_545 S
C2729 C2728 1.367 1_565 S
C2729 C2731 1.433 . S
C2730 C2726 1.350 . S
C2730 C2727 1.463 . S
C2730 N2734 1.427 . S
C2731 H2721 0.929 . S
C2731 C2729 1.433 . S
C2731 N2734 1.384 . S
C2732 H2723 0.929 . S
C2732 C2724 1.378 . S
C2732 C2727 1.350 . S
C2733 H2720 0.929 . S
C2733 C2725 1.433 . S
C2733 N2735 1.384 . S
N2734 C2730 1.427 . S
N2734 C2731 1.384 . S
N2735 C2727 1.427 . S
N2735 C2733 1.384 . S
H2736 C2742 0.930 . S
H2737 C2746 0.930 . S
H2738 C2751 0.929 . S
H2739 C2749 0.929 . S
H2740 C2744 0.929 . S
H2741 C2750 0.929 . S
C2742 H2736 0.930 . S
C2742 C2743 1.367 . S
C2742 C2750 1.378 . S
C2743 C2742 1.367 . S
C2743 C2751 1.433 . S
C2744 H2740 0.929 . S
C2744 C2746 1.378 . S
C2744 C2748 1.350 . S
C2745 C2748 1.463 . S
C2745 C2750 1.350 . S
C2745 N2753 1.427 . S
C2746 H2737 0.930 . S
C2746 C2744 1.378 . S
C2746 C2747 1.367 . S
C2747 C2746 1.367 . S
C2747 C2749 1.433 . S
C2748 C2744 1.350 . S
C2748 C2745 1.463 . S
C2748 N2752 1.427 . S
C2749 H2739 0.929 . S
C2749 C2747 1.433 . S
C2749 N2752 1.384 . S
C2750 H2741 0.929 . S
C2750 C2742 1.378 . S
C2750 C2745 1.350 . S
C2751 H2738 0.929 . S
C2751 C2743 1.433 . S
C2751 N2753 1.384 . S
N2752 C2748 1.427 . S
N2752 C2749 1.384 . S
N2753 C2745 1.427 . S
N2753 C2751 1.384 . S
H2754 C2760 0.930 . S
H2755 C2764 0.930 . S
H2756 C2769 0.929 . S
H2757 C2767 0.929 . S
H2758 C2762 0.929 . S
H2759 C2768 0.929 . S
C2760 H2754 0.930 . S
C2760 C2761 1.367 . S
C2760 C2768 1.378 . S
C2761 C2760 1.367 . S
C2761 C2769 1.433 . S
C2762 H2758 0.929 . S
C2762 C2764 1.378 . S
C2762 C2766 1.350 . S
C2763 C2766 1.463 . S
C2763 C2768 1.350 . S
C2763 N2771 1.427 . S
C2764 H2755 0.930 . S
C2764 C2762 1.378 . S
C2764 C2765 1.367 . S
C2765 C2764 1.367 . S
C2765 C2767 1.433 . S
C2766 C2762 1.350 . S
C2766 C2763 1.463 . S
C2766 N2770 1.427 . S
C2767 H2757 0.929 . S
C2767 C2765 1.433 . S
C2767 N2770 1.384 . S
C2768 H2759 0.929 . S
C2768 C2760 1.378 . S
C2768 C2763 1.350 . S
C2769 H2756 0.929 . S
C2769 C2761 1.433 . S
C2769 N2771 1.384 . S
N2770 C2766 1.427 . S
N2770 C2767 1.384 . S
N2771 C2763 1.427 . S
N2771 C2769 1.384 . S
H2772 C2778 0.930 . S
H2773 C2782 0.930 . S
H2774 C2787 0.929 . S
H2775 C2785 0.929 . S
H2776 C2780 0.929 . S
H2777 C2786 0.929 . S
C2778 H2772 0.930 . S
C2778 C2779 1.367 . S
C2778 C2786 1.378 . S
C2779 C2778 1.367 . S
C2779 C2787 1.433 . S
C2780 H2776 0.929 . S
C2780 C2782 1.378 . S
C2780 C2784 1.350 . S
C2781 C2784 1.463 . S
C2781 C2786 1.350 . S
C2781 N2789 1.427 . S
C2782 H2773 0.930 . S
C2782 C2780 1.378 . S
C2782 C2783 1.367 . S
C2783 C2782 1.367 . S
C2783 C2785 1.433 . S
C2784 C2780 1.350 . S
C2784 C2781 1.463 . S
C2784 N2788 1.427 . S
C2785 H2775 0.929 . S
C2785 C2783 1.433 . S
C2785 N2788 1.384 . S
C2786 H2777 0.929 . S
C2786 C2778 1.378 . S
C2786 C2781 1.350 . S
C2787 H2774 0.929 . S
C2787 C2779 1.433 . S
C2787 N2789 1.384 . S
N2788 C2784 1.427 . S
N2788 C2785 1.384 . S
N2789 C2781 1.427 . S
N2789 C2787 1.384 . S
H2790 C2796 0.930 . S
H2791 C2800 0.930 . S
H2792 C2805 0.929 . S
H2793 C2803 0.929 . S
H2794 C2798 0.929 . S
H2795 C2804 0.929 . S
C2796 H2790 0.930 . S
C2796 C2797 1.367 . S
C2796 C2804 1.378 . S
C2797 C2796 1.367 . S
C2797 C2805 1.433 1_655 S
C2798 H2794 0.929 . S
C2798 C2800 1.378 . S
C2798 C2802 1.350 . S
C2799 C2802 1.463 . S
C2799 C2804 1.350 . S
C2799 N2807 1.427 . S
C2800 H2791 0.930 . S
C2800 C2798 1.378 . S
C2800 C2801 1.367 . S
C2801 C2800 1.367 . S
C2801 C2803 1.433 . S
C2802 C2798 1.350 . S
C2802 C2799 1.463 . S
C2802 N2806 1.427 . S
C2803 H2793 0.929 . S
C2803 C2801 1.433 . S
C2803 N2806 1.384 . S
C2804 H2795 0.929 . S
C2804 C2796 1.378 . S
C2804 C2799 1.350 . S
C2805 H2792 0.929 . S
C2805 C2797 1.433 1_455 S
C2805 N2807 1.384 1_455 S
N2806 C2802 1.427 . S
N2806 C2803 1.384 . S
N2807 C2799 1.427 . S
N2807 C2805 1.384 1_655 S
H2808 C2814 0.930 . S
H2809 C2818 0.930 . S
H2810 C2823 0.929 . S
H2811 C2821 0.929 . S
H2812 C2816 0.929 . S
H2813 C2822 0.929 . S
C2814 H2808 0.930 . S
C2814 C2815 1.367 . S
C2814 C2822 1.378 . S
C2815 C2814 1.367 . S
C2815 C2823 1.433 . S
C2816 H2812 0.929 . S
C2816 C2818 1.378 . S
C2816 C2820 1.350 . S
C2817 C2820 1.463 . S
C2817 C2822 1.350 . S
C2817 N2825 1.427 . S
C2818 H2809 0.930 . S
C2818 C2816 1.378 . S
C2818 C2819 1.367 . S
C2819 C2818 1.367 . S
C2819 C2821 1.433 . S
C2820 C2816 1.350 . S
C2820 C2817 1.463 . S
C2820 N2824 1.427 . S
C2821 H2811 0.929 . S
C2821 C2819 1.433 . S
C2821 N2824 1.384 . S
C2822 H2813 0.929 . S
C2822 C2814 1.378 . S
C2822 C2817 1.350 . S
C2823 H2810 0.929 . S
C2823 C2815 1.433 . S
C2823 N2825 1.384 . S
N2824 C2820 1.427 . S
N2824 C2821 1.384 . S
N2825 C2817 1.427 . S
N2825 C2823 1.384 . S
H2826 C2832 0.930 . S
H2827 C2836 0.930 . S
H2828 C2841 0.929 . S
H2829 C2839 0.929 . S
H2830 C2834 0.929 . S
H2831 C2840 0.929 . S
C2832 H2826 0.930 . S
C2832 C2833 1.367 . S
C2832 C2840 1.378 . S
C2833 C2832 1.367 . S
C2833 C2841 1.433 1_545 S
C2834 H2830 0.929 . S
C2834 C2836 1.378 . S
C2834 C2838 1.350 . S
C2835 C2838 1.463 . S
C2835 C2840 1.350 . S
C2835 N2843 1.427 . S
C2836 H2827 0.930 . S
C2836 C2834 1.378 . S
C2836 C2837 1.367 . S
C2837 C2836 1.367 . S
C2837 C2839 1.433 . S
C2838 C2834 1.350 . S
C2838 C2835 1.463 . S
C2838 N2842 1.427 . S
C2839 H2829 0.929 . S
C2839 C2837 1.433 . S
C2839 N2842 1.384 . S
C2840 H2831 0.929 . S
C2840 C2832 1.378 . S
C2840 C2835 1.350 . S
C2841 H2828 0.929 . S
C2841 C2833 1.433 1_565 S
C2841 N2843 1.384 1_565 S
N2842 C2838 1.427 . S
N2842 C2839 1.384 . S
N2843 C2835 1.427 . S
N2843 C2841 1.384 1_545 S
H2844 C2850 0.930 . S
H2845 C2854 0.930 . S
H2846 C2859 0.929 . S
H2847 C2857 0.929 1_455 S
H2848 C2852 0.929 . S
H2849 C2858 0.929 . S
C2850 H2844 0.930 . S
C2850 C2851 1.367 . S
C2850 C2858 1.378 . S
C2851 C2850 1.367 . S
C2851 C2859 1.433 . S
C2852 H2848 0.929 . S
C2852 C2854 1.378 . S
C2852 C2856 1.350 . S
C2853 C2856 1.463 . S
C2853 C2858 1.350 . S
C2853 N2861 1.427 . S
C2854 H2845 0.930 . S
C2854 C2852 1.378 . S
C2854 C2855 1.367 . S
C2855 C2854 1.367 . S
C2855 C2857 1.433 . S
C2856 C2852 1.350 . S
C2856 C2853 1.463 . S
C2856 N2860 1.427 . S
C2857 H2847 0.929 1_655 S
C2857 C2855 1.433 . S
C2857 N2860 1.384 . S
C2858 H2849 0.929 . S
C2858 C2850 1.378 . S
C2858 C2853 1.350 . S
C2859 H2846 0.929 . S
C2859 C2851 1.433 . S
C2859 N2861 1.384 . S
N2860 C2856 1.427 . S
N2860 C2857 1.384 . S
N2861 C2853 1.427 . S
N2861 C2859 1.384 . S
H2862 C2868 0.930 . S
H2863 C2872 0.930 . S
H2864 C2877 0.929 . S
H2865 C2875 0.929 . S
H2866 C2870 0.929 . S
H2867 C2876 0.929 . S
C2868 H2862 0.930 . S
C2868 C2869 1.367 . S
C2868 C2876 1.378 . S
C2869 C2868 1.367 . S
C2869 C2877 1.433 . S
C2870 H2866 0.929 . S
C2870 C2872 1.378 . S
C2870 C2874 1.350 . S
C2871 C2874 1.463 . S
C2871 C2876 1.350 . S
C2871 N2879 1.427 . S
C2872 H2863 0.930 . S
C2872 C2870 1.378 . S
C2872 C2873 1.367 . S
C2873 C2872 1.367 . S
C2873 C2875 1.433 . S
C2874 C2870 1.350 . S
C2874 C2871 1.463 . S
C2874 N2878 1.427 . S
C2875 H2865 0.929 . S
C2875 C2873 1.433 . S
C2875 N2878 1.384 . S
C2876 H2867 0.929 . S
C2876 C2868 1.378 . S
C2876 C2871 1.350 . S
C2877 H2864 0.929 . S
C2877 C2869 1.433 . S
C2877 N2879 1.384 . S
N2878 C2874 1.427 . S
N2878 C2875 1.384 . S
N2879 C2871 1.427 . S
N2879 C2877 1.384 . S
H2880 C2886 0.930 . S
H2881 C2890 0.930 . S
H2882 C2895 0.929 . S
H2883 C2893 0.914 1_545 S
H2884 C2888 0.929 . S
H2885 C2894 0.929 . S
C2886 H2880 0.930 . S
C2886 C2887 1.367 . S
C2886 C2894 1.378 . S
C2887 C2886 1.367 . S
C2887 C2895 1.433 . S
C2888 H2884 0.929 . S
C2888 C2890 1.378 . S
C2888 C2892 1.350 . S
C2889 C2892 1.463 . S
C2889 C2894 1.350 . S
C2889 N2897 1.427 . S
C2890 H2881 0.930 . S
C2890 C2888 1.378 . S
C2890 C2891 1.367 . S
C2891 C2890 1.367 . S
C2891 C2893 1.433 . S
C2892 C2888 1.350 . S
C2892 C2889 1.463 . S
C2892 N2896 1.427 . S
C2893 H2883 0.914 1_565 S
C2893 C2891 1.433 . S
C2893 N2896 1.384 . S
C2894 H2885 0.929 . S
C2894 C2886 1.378 . S
C2894 C2889 1.350 . S
C2895 H2882 0.929 . S
C2895 C2887 1.433 . S
C2895 N2897 1.384 . S
N2896 C2892 1.427 . S
N2896 C2893 1.384 . S
N2897 C2889 1.427 . S
N2897 C2895 1.384 . S
H2898 C2904 0.930 . S
H2899 C2908 0.930 . S
H2900 C2913 0.929 . S
H2901 C2911 0.929 1_655 S
H2902 C2906 0.929 . S
H2903 C2912 0.929 . S
C2904 H2898 0.930 . S
C2904 C2905 1.367 . S
C2904 C2912 1.378 . S
C2905 C2904 1.367 . S
C2905 C2913 1.433 . S
C2906 H2902 0.929 . S
C2906 C2908 1.378 . S
C2906 C2910 1.350 . S
C2907 C2910 1.463 . S
C2907 C2912 1.350 . S
C2907 N2915 1.427 . S
C2908 H2899 0.930 . S
C2908 C2906 1.378 . S
C2908 C2909 1.367 . S
C2909 C2908 1.367 . S
C2909 C2911 1.433 . S
C2910 C2906 1.350 . S
C2910 C2907 1.463 . S
C2910 N2914 1.427 . S
C2911 H2901 0.929 1_455 S
C2911 C2909 1.433 . S
C2911 N2914 1.384 . S
C2912 H2903 0.929 . S
C2912 C2904 1.378 . S
C2912 C2907 1.350 . S
C2913 H2900 0.929 . S
C2913 C2905 1.433 . S
C2913 N2915 1.384 . S
N2914 C2910 1.427 . S
N2914 C2911 1.384 . S
N2915 C2907 1.427 . S
N2915 C2913 1.384 . S
H2916 C2922 0.930 . S
H2917 C2926 0.930 . S
H2918 C2931 0.929 . S
H2919 C2929 0.929 . S
H2920 C2924 0.929 . S
H2921 C2930 0.929 . S
C2922 H2916 0.930 . S
C2922 C2923 1.367 . S
C2922 C2930 1.378 . S
C2923 C2922 1.367 . S
C2923 C2931 1.433 . S
C2924 H2920 0.929 . S
C2924 C2926 1.378 . S
C2924 C2928 1.350 . S
C2925 C2928 1.463 1_655 S
C2925 C2930 1.350 . S
C2925 N2933 1.427 . S
C2926 H2917 0.930 . S
C2926 C2924 1.378 . S
C2926 C2927 1.367 . S
C2927 C2926 1.367 . S
C2927 C2929 1.433 . S
C2928 C2924 1.350 . S
C2928 C2925 1.463 1_455 S
C2928 N2932 1.427 . S
C2929 H2919 0.929 . S
C2929 C2927 1.433 . S
C2929 N2932 1.384 . S
C2930 H2921 0.929 . S
C2930 C2922 1.378 . S
C2930 C2925 1.350 . S
C2931 H2918 0.929 . S
C2931 C2923 1.433 . S
C2931 N2933 1.384 . S
N2932 C2928 1.427 . S
N2932 C2929 1.384 . S
N2933 C2925 1.427 . S
N2933 C2931 1.384 . S
H2934 C2940 0.930 . S
H2935 C2944 0.930 . S
H2936 C2949 0.929 . S
H2937 C2947 0.929 . S
H2938 C2942 0.929 . S
H2939 C2948 0.929 . S
C2940 H2934 0.930 . S
C2940 C2941 1.367 . S
C2940 C2948 1.378 . S
C2941 C2940 1.367 . S
C2941 C2949 1.433 . S
C2942 H2938 0.929 . S
C2942 C2944 1.378 . S
C2942 C2946 1.350 . S
C2943 C2946 1.463 . S
C2943 C2948 1.350 . S
C2943 N2951 1.427 . S
C2944 H2935 0.930 . S
C2944 C2942 1.378 . S
C2944 C2945 1.367 . S
C2945 C2944 1.367 . S
C2945 C2947 1.433 . S
C2946 C2942 1.350 . S
C2946 C2943 1.463 . S
C2946 N2950 1.427 . S
C2947 H2937 0.929 . S
C2947 C2945 1.433 . S
C2947 N2950 1.384 . S
C2948 H2939 0.929 . S
C2948 C2940 1.378 . S
C2948 C2943 1.350 . S
C2949 H2936 0.929 . S
C2949 C2941 1.433 . S
C2949 N2951 1.384 . S
N2950 C2946 1.427 . S
N2950 C2947 1.384 . S
N2951 C2943 1.427 . S
N2951 C2949 1.384 . S
H2952 C2958 0.930 . S
H2953 C2962 0.930 . S
H2954 C2967 0.929 . S
H2955 C2965 0.929 . S
H2956 C2960 0.929 . S
H2957 C2966 0.929 . S
C2958 H2952 0.930 . S
C2958 C2959 1.367 . S
C2958 C2966 1.378 . S
C2959 C2958 1.367 . S
C2959 C2967 1.433 . S
C2960 H2956 0.929 . S
C2960 C2962 1.378 . S
C2960 C2964 1.350 . S
C2961 C2964 1.463 1_545 S
C2961 C2966 1.350 . S
C2961 N2969 1.427 . S
C2962 H2953 0.930 . S
C2962 C2960 1.378 . S
C2962 C2963 1.367 . S
C2963 C2962 1.367 . S
C2963 C2965 1.433 . S
C2964 C2960 1.350 . S
C2964 C2961 1.463 1_565 S
C2964 N2968 1.427 . S
C2965 H2955 0.929 . S
C2965 C2963 1.433 . S
C2965 N2968 1.384 . S
C2966 H2957 0.929 . S
C2966 C2958 1.378 . S
C2966 C2961 1.350 . S
C2967 H2954 0.929 . S
C2967 C2959 1.433 . S
C2967 N2969 1.384 . S
N2968 C2964 1.427 . S
N2968 C2965 1.384 . S
N2969 C2961 1.427 . S
N2969 C2967 1.384 . S
H2970 C2976 0.930 . S
H2971 C2980 0.930 . S
H2972 C2985 0.929 . S
H2973 C2983 0.929 . S
H2974 C2978 0.929 . S
H2975 C2984 0.929 . S
C2976 H2970 0.930 . S
C2976 C2977 1.367 . S
C2976 C2984 1.378 . S
C2977 C2976 1.367 . S
C2977 C2985 1.433 . S
C2978 H2974 0.929 . S
C2978 C2980 1.378 . S
C2978 C2982 1.350 . S
C2979 C2982 1.463 1_545 S
C2979 C2984 1.350 . S
C2979 N2987 1.427 . S
C2980 H2971 0.930 . S
C2980 C2978 1.378 . S
C2980 C2981 1.367 . S
C2981 C2980 1.367 . S
C2981 C2983 1.433 . S
C2982 C2978 1.350 . S
C2982 C2979 1.463 1_565 S
C2982 N2986 1.427 . S
C2983 H2973 0.929 . S
C2983 C2981 1.433 . S
C2983 N2986 1.384 . S
C2984 H2975 0.929 . S
C2984 C2976 1.378 . S
C2984 C2979 1.350 . S
C2985 H2972 0.929 . S
C2985 C2977 1.433 . S
C2985 N2987 1.384 . S
N2986 C2982 1.427 . S
N2986 C2983 1.384 . S
N2987 C2979 1.427 . S
N2987 C2985 1.384 . S
H2988 C2994 0.930 . S
H2989 C2998 0.930 . S
H2990 C3003 0.929 . S
H2991 C3001 0.929 . S
H2992 C2996 0.929 . S
H2993 C3002 0.929 . S
C2994 H2988 0.930 . S
C2994 C2995 1.367 . S
C2994 C3002 1.378 . S
C2995 C2994 1.367 . S
C2995 C3003 1.433 . S
C2996 H2992 0.929 . S
C2996 C2998 1.378 . S
C2996 C3000 1.350 . S
C2997 C3000 1.463 1_655 S
C2997 C3002 1.350 . S
C2997 N3005 1.427 . S
C2998 H2989 0.930 . S
C2998 C2996 1.378 . S
C2998 C2999 1.367 . S
C2999 C2998 1.367 . S
C2999 C3001 1.433 . S
C3000 C2996 1.350 . S
C3000 C2997 1.463 1_455 S
C3000 N3004 1.427 . S
C3001 H2991 0.929 . S
C3001 C2999 1.433 . S
C3001 N3004 1.384 . S
C3002 H2993 0.929 . S
C3002 C2994 1.378 . S
C3002 C2997 1.350 . S
C3003 H2990 0.929 . S
C3003 C2995 1.433 . S
C3003 N3005 1.384 . S
N3004 C3000 1.427 . S
N3004 C3001 1.384 . S
N3005 C2997 1.427 . S
N3005 C3003 1.384 . S
H3006 C3012 0.930 . S
H3007 C3016 0.930 . S
H3008 C3021 0.929 . S
H3009 C3019 0.929 . S
H3010 C3014 0.929 . S
H3011 C3020 0.929 . S
C3012 H3006 0.930 . S
C3012 C3013 1.367 . S
C3012 C3020 1.378 . S
C3013 C3012 1.367 . S
C3013 C3021 1.433 . S
C3014 H3010 0.929 . S
C3014 C3016 1.378 . S
C3014 C3018 1.350 . S
C3015 C3018 1.463 . S
C3015 C3020 1.350 . S
C3015 N3023 1.427 . S
C3016 H3007 0.930 . S
C3016 C3014 1.378 . S
C3016 C3017 1.367 . S
C3017 C3016 1.367 . S
C3017 C3019 1.433 . S
C3018 C3014 1.350 . S
C3018 C3015 1.463 . S
C3018 N3022 1.427 . S
C3019 H3009 0.929 . S
C3019 C3017 1.433 . S
C3019 N3022 1.384 . S
C3020 H3011 0.929 . S
C3020 C3012 1.378 . S
C3020 C3015 1.350 . S
C3021 H3008 0.929 . S
C3021 C3013 1.433 . S
C3021 N3023 1.384 . S
N3022 C3018 1.427 . S
N3022 C3019 1.384 . S
N3023 C3015 1.427 . S
N3023 C3021 1.384 . S
C1087 C27 1.350 . S
C1091 N224 1.353 1_554 S
C1105 N254 1.355 1_554 S
C1109 C57 1.355 . S
C1123 N194 1.367 . S
C1127 C87 1.360 . S
C1141 N344 1.356 . S
C1145 C117 1.348 . S
C1159 C147 1.347 . S
C1163 N284 1.354 . S
C1177 C177 1.353 . S
C1181 N314 1.356 . S
C1195 N36 1.354 1_556 S
C1199 C196 1.353 . S
C1213 C226 1.358 . S
C1217 N66 1.368 . S
C1231 N6 1.364 . S
C1235 C256 1.360 . S
C1249 N156 1.365 . S
C1253 C286 1.361 . S
C1267 C316 1.355 . S
C1271 N96 1.364 . S
C1285 C346 1.357 . S
C1289 N126 1.359 . S
C1303 C387 1.358 . S
C1307 N584 1.366 . S
C1321 N614 1.354 . S
C1325 C417 1.348 . S
C1339 N554 1.366 . S
C1343 C447 1.358 . S
C1357 C477 1.360 . S
C1361 N704 1.366 . S
C1375 N644 1.365 . S
C1379 C507 1.361 . S
C1393 C537 1.358 . S
C1397 N674 1.366 . S
C1411 C556 1.357 . S
C1415 N396 1.365 . S
C1429 N426 1.366 . S
C1433 C586 1.359 . S
C1447 C616 1.347 . S
C1451 N366 1.354 . S
C1465 N516 1.365 . S
C1469 C646 1.356 . S
C1483 N456 1.357 . S
C1487 C676 1.348 . S
C1501 C706 1.359 . S
C1505 N486 1.362 . S
C1519 C747 1.359 . S
C1523 N944 1.361 . S
C1537 C777 1.354 . S
C1541 N974 1.364 . S
C1555 N914 1.354 . S
C1559 C807 1.347 . S
C1573 N1064 1.361 . S
C1577 C837 1.359 . S
C1591 C867 1.351 . S
C1595 N1004 1.355 . S
C1609 N1034 1.358 . S
C1613 C897 1.356 . S
C1627 N756 1.365 . S
C1631 C916 1.361 . S
C1645 C946 1.350 . S
C1649 N786 1.354 . S
C1663 N726 1.360 . S
C1667 C976 1.350 . S
C1681 C1006 1.360 . S
C1685 N876 1.363 . S
C1699 C1036 1.351 . S
C1703 N816 1.360 . S
C1717 C1066 1.348 . S
C1721 N846 1.357 . S
C1735 N14 0.778 . S
C1739 N546 0.778 . S
C1753 N44 0.773 . S
C1757 N576 0.773 . S
C1771 N606 0.772 . S
C1775 N74 0.772 . S
C1789 N996 0.804 . S
C1793 N104 0.804 . S
C1807 N1026 0.778 . S
C1811 N134 0.778 . S
C1825 N1056 0.804 . S
C1829 N164 0.804 . S
C1843 N186 0.801 . S
C1847 N734 0.801 . S
C1861 N764 0.803 . S
C1865 N216 0.803 . S
C1879 N246 0.804 . S
C1883 N794 0.804 . S
C1897 N276 0.804 . S
C1901 N464 0.804 . S
C1915 N306 0.800 . S
C1919 N494 0.800 . S
C1933 N336 0.792 . S
C1937 N524 0.792 . S
C1951 N374 0.798 . S
C1955 N906 0.798 . S
C1969 N936 0.793 . S
C1973 N404 0.793 . S
C1987 N434 0.795 . S
C1991 N966 0.795 . S
C2005 N824 0.782 . S
C2009 N636 0.782 . S
C2023 N666 0.781 . S
C2027 N854 0.781 . S
C2041 N884 0.804 . S
C2045 N696 0.804 . S
C2059 C1 2.195 1_556 S
C2063 C481 2.196 . S
C2077 C31 2.192 1_556 S
C2081 C511 2.192 . S
C2095 C451 2.193 . S
C2099 C61 2.192 1_556 S
C2113 C91 2.193 . S
C2117 C781 2.192 . S
C2131 C721 2.201 . S
C2135 C121 2.201 . S
C2149 C151 2.202 . S
C2153 C751 2.202 . S
C2167 C1030 2.202 . S
C2171 C190 2.202 1_554 S
C2185 C220 2.192 1_554 S
C2189 C1060 2.192 . S
C2203 C1000 2.200 . S
C2207 C250 2.199 1_554 S
C2221 C280 2.200 . S
C2225 C610 2.199 . S
C2239 C310 2.192 . S
C2243 C550 2.193 . S
C2257 C340 2.202 . S
C2261 C580 2.201 . S
C2275 C841 2.198 . S
C2279 C361 2.200 . S
C2293 C391 2.198 . S
C2297 C871 2.197 . S
C2311 C421 2.202 . S
C2315 C811 2.202 . S
C2329 C970 2.193 . S
C2333 C640 2.194 . S
C2347 C910 2.200 . S
C2351 C670 2.199 . S
C2365 C940 2.201 . S
C2369 C700 2.202 . S
C2383 C100 1.813 . S
C2387 C10 1.809 . S
C2401 C40 1.809 . S
C2405 C130 1.813 . S
C2419 C70 1.814 . S
C2423 C160 1.808 . S
C2437 C271 1.813 . S
C2441 C181 1.810 . S
C2455 C211 1.814 . S
C2459 C301 1.808 . S
C2473 C331 1.814 . S
C2477 C241 1.808 . S
C2491 C460 1.813 . S
C2495 C370 1.809 . S
C2509 C400 1.813 . S
C2513 C490 1.808 . S
C2527 C430 1.814 . S
C2531 C520 1.808 . S
C2545 C541 1.808 . S
C2549 C631 1.814 . S
C2563 C571 1.808 . S
C2567 C661 1.814 . S
C2581 C601 1.812 . S
C2585 C691 1.810 . S
C2599 C730 1.813 . S
C2603 C820 1.809 . S
C2617 C850 1.843 . S
C2621 C760 1.812 . S
C2635 C880 1.845 . S
C2639 C790 1.810 . S
C2653 C901 1.809 . S
C2657 C991 1.813 . S
C2671 C1021 1.811 . S
C2675 C931 1.811 . S
C2689 C961 1.808 . S
C2693 C1051 1.814 . S
C2707 C16 1.659 . S
C2711 C886 1.658 . S
C2725 C826 1.663 . S
C2729 C46 1.660 1_565 S
C2743 C76 1.659 1_455 S
C2747 C856 1.659 . S
C2761 C406 1.662 . S
C2765 C106 1.663 . S
C2779 C136 1.658 1_545 S
C2783 C436 1.658 . S
C2797 C166 1.660 1_655 S
C2801 C376 1.658 . S
C2815 C717 1.658 . S
C2819 C207 1.659 . S
C2833 C237 1.660 1_545 S
C2837 C657 1.658 . S
C2851 C687 1.662 . S
C2855 C267 1.663 1_655 S
C2869 C297 1.659 . S
C2873 C957 1.662 . S
C2887 C987 1.658 . S
C2891 C327 1.659 1_565 S
C2905 C927 1.658 . S
C2909 C357 1.659 1_455 S
C2923 C466 1.663 . S
C2927 C766 1.662 . S
C2941 C496 1.660 . S
C2945 C796 1.658 . S
C2959 C526 1.659 . S
C2963 C736 1.658 . S
C2977 C567 1.659 . S
C2981 C1077 1.661 . S
C2995 C597 1.662 . S
C2999 C1017 1.662 . S
C3013 C1047 1.662 . S
C3017 C627 1.659 . S
