# Generated by pormake.
# Topology lcy-e, (6)-cn, num edge types: 1
# Building blocks:
#     Node 0, Type 0, BuildingBlock: BETDEL_clean_sbu_0, # of connection points: 6
#     Node 1, Type 0, BuildingBlock: BETDEL_clean_sbu_0, # of connection points: 6
#     Node 2, Type 0, BuildingBlock: BETDEL_clean_sbu_0, # of connection points: 6
#     Node 3, Type 0, BuildingBlock: BETDEL_clean_sbu_0, # of connection points: 6
#     Node 4, Type 0, BuildingBlock: BETDEL_clean_sbu_0, # of connection points: 6
#     Node 5, Type 0, BuildingBlock: BETDEL_clean_sbu_0, # of connection points: 6
#     Node 6, Type 0, BuildingBlock: BETDEL_clean_sbu_0, # of connection points: 6
#     Node 7, Type 0, BuildingBlock: BETDEL_clean_sbu_0, # of connection points: 6
#     Node 8, Type 0, BuildingBlock: BETDEL_clean_sbu_0, # of connection points: 6
#     Node 9, Type 0, BuildingBlock: BETDEL_clean_sbu_0, # of connection points: 6
#     Node 10, Type 0, BuildingBlock: BETDEL_clean_sbu_0, # of connection points: 6
#     Node 11, Type 0, BuildingBlock: BETDEL_clean_sbu_0, # of connection points: 6
#     Edge 12, Type (0, 0), BuildingBlock: EZIPEK_clean_linker_0, # of connection points: 2
#     Edge 13, Type (0, 0), BuildingBlock: EZIPEK_clean_linker_0, # of connection points: 2
#     Edge 14, Type (0, 0), BuildingBlock: EZIPEK_clean_linker_0, # of connection points: 2
#     Edge 15, Type (0, 0), BuildingBlock: EZIPEK_clean_linker_0, # of connection points: 2
#     Edge 16, Type (0, 0), BuildingBlock: EZIPEK_clean_linker_0, # of connection points: 2
#     Edge 17, Type (0, 0), BuildingBlock: EZIPEK_clean_linker_0, # of connection points: 2
#     Edge 18, Type (0, 0), BuildingBlock: EZIPEK_clean_linker_0, # of connection points: 2
#     Edge 19, Type (0, 0), BuildingBlock: EZIPEK_clean_linker_0, # of connection points: 2
#     Edge 20, Type (0, 0), BuildingBlock: EZIPEK_clean_linker_0, # of connection points: 2
#     Edge 21, Type (0, 0), BuildingBlock: EZIPEK_clean_linker_0, # of connection points: 2
#     Edge 22, Type (0, 0), BuildingBlock: EZIPEK_clean_linker_0, # of connection points: 2
#     Edge 23, Type (0, 0), BuildingBlock: EZIPEK_clean_linker_0, # of connection points: 2
#     Edge 24, Type (0, 0), BuildingBlock: EZIPEK_clean_linker_0, # of connection points: 2
#     Edge 25, Type (0, 0), BuildingBlock: EZIPEK_clean_linker_0, # of connection points: 2
#     Edge 26, Type (0, 0), BuildingBlock: EZIPEK_clean_linker_0, # of connection points: 2
#     Edge 27, Type (0, 0), BuildingBlock: EZIPEK_clean_linker_0, # of connection points: 2
#     Edge 28, Type (0, 0), BuildingBlock: EZIPEK_clean_linker_0, # of connection points: 2
#     Edge 29, Type (0, 0), BuildingBlock: EZIPEK_clean_linker_0, # of connection points: 2
#     Edge 30, Type (0, 0), BuildingBlock: EZIPEK_clean_linker_0, # of connection points: 2
#     Edge 31, Type (0, 0), BuildingBlock: EZIPEK_clean_linker_0, # of connection points: 2
#     Edge 32, Type (0, 0), BuildingBlock: EZIPEK_clean_linker_0, # of connection points: 2
#     Edge 33, Type (0, 0), BuildingBlock: EZIPEK_clean_linker_0, # of connection points: 2
#     Edge 34, Type (0, 0), BuildingBlock: EZIPEK_clean_linker_0, # of connection points: 2
#     Edge 35, Type (0, 0), BuildingBlock: EZIPEK_clean_linker_0, # of connection points: 2
#     Edge 36, Type (0, 0), BuildingBlock: EZIPEK_clean_linker_0, # of connection points: 2
#     Edge 37, Type (0, 0), BuildingBlock: EZIPEK_clean_linker_0, # of connection points: 2
#     Edge 38, Type (0, 0), BuildingBlock: EZIPEK_clean_linker_0, # of connection points: 2
#     Edge 39, Type (0, 0), BuildingBlock: EZIPEK_clean_linker_0, # of connection points: 2
#     Edge 40, Type (0, 0), BuildingBlock: EZIPEK_clean_linker_0, # of connection points: 2
#     Edge 41, Type (0, 0), BuildingBlock: EZIPEK_clean_linker_0, # of connection points: 2
#     Edge 42, Type (0, 0), BuildingBlock: EZIPEK_clean_linker_0, # of connection points: 2
#     Edge 43, Type (0, 0), BuildingBlock: EZIPEK_clean_linker_0, # of connection points: 2
#     Edge 44, Type (0, 0), BuildingBlock: EZIPEK_clean_linker_0, # of connection points: 2
#     Edge 45, Type (0, 0), BuildingBlock: EZIPEK_clean_linker_0, # of connection points: 2
#     Edge 46, Type (0, 0), BuildingBlock: EZIPEK_clean_linker_0, # of connection points: 2
#     Edge 47, Type (0, 0), BuildingBlock: EZIPEK_clean_linker_0, # of connection points: 2
# Relax obj value: 0.221
# Max RMSD: 0.284
# Mean RMSD: 0.273
data_MOF--net-lcy-e--node1-BETDEL_clean_sbu_0--edge1-EZIPEK_clean_linker_0
_symmetry_space_group_name_H-M    P1
_symmetry_Int_Tables_number       1
_symmetry_cell_setting            triclinic
loop_
_symmetry_equiv_pos_as_xyz
'x, y, z'
_cell_length_a     27.979777
_cell_length_b     27.440523
_cell_length_c     28.719963
_cell_angle_alpha  90.637471
_cell_angle_beta   91.074025
_cell_angle_gamma 88.399211
loop_
_atom_site_label
_atom_site_type_symbol
_atom_site_fract_x
_atom_site_fract_y
_atom_site_fract_z
_atom_type_partial_charge
Dy0 Dy 0.11935 0.25548 0.4537 0.0
C1 C 0.14103 0.11567 0.58334 0.0
C2 C 0.11898 0.31927 0.38212 0.0
Dy3 Dy 0.15212 0.18936 0.52236 0.0
O4 O 0.08442 0.29045 0.39084 0.0
O5 O 0.15193 0.31557 0.41417 0.0
O6 O 0.04962 0.22066 0.44654 0.0
O7 O 0.1117 0.17564 0.45588 0.0
C8 C 0.06612 0.17624 0.45025 0.0
C9 C 0.1964 0.27732 0.52756 0.0
O10 O 0.19841 0.15514 0.46925 0.0
O11 O 0.18771 0.22178 0.42238 0.0
O12 O 0.18239 0.133 0.57304 0.0
O13 O 0.10744 0.14003 0.56183 0.0
O14 O 0.21663 0.23628 0.54058 0.0
O15 O 0.15324 0.26941 0.5195 0.0
O16 O 0.07813 0.28754 0.51536 0.0
O17 O 0.08774 0.21842 0.55869 0.0
C18 C 0.21071 0.18022 0.433 0.0
C19 C 0.06689 0.26137 0.55229 0.0
Dy20 Dy 0.99331 0.86479 0.69988 0.0
C21 C 0.15759 0.87439 0.81648 0.0
C22 C 0.92329 0.87986 0.63498 0.0
Dy23 Dy 0.07554 0.89326 0.76656 0.0
O24 O 0.94601 0.83834 0.64114 0.0
O25 O 0.93633 0.91135 0.66623 0.0
O26 O 0.02565 0.79147 0.68828 0.0
O27 O 0.07025 0.85198 0.70025 0.0
C28 C 0.06919 0.80601 0.69449 0.0
C29 C 0.99177 0.94664 0.77292 0.0
O30 O 0.09888 0.93869 0.70958 0.0
O31 O 0.03195 0.92458 0.66272 0.0
O32 O 0.12669 0.90926 0.82652 0.0
O33 O 0.14389 0.85113 0.77939 0.0
O34 O 0.03294 0.96376 0.78657 0.0
O35 O 0.9986 0.90251 0.76427 0.0
O36 O 0.96902 0.83365 0.76876 0.0
O37 O 0.04531 0.82921 0.80127 0.0
C38 C 0.07271 0.94694 0.67179 0.0
C39 C 0.99966 0.81925 0.80261 0.0
Dy40 Dy 0.36563 0.79897 0.01243 0.0
C41 C 0.37842 0.67567 0.85572 0.0
C42 C 0.37314 0.86983 0.07914 0.0
Dy43 Dy 0.39448 0.72791 0.93568 0.0
O44 O 0.33655 0.8651 0.05118 0.0
O45 O 0.40317 0.83376 0.07304 0.0
O46 O 0.29246 0.80706 0.98306 0.0
O47 O 0.35097 0.79623 0.93776 0.0
C48 C 0.3057 0.80053 0.94029 0.0
C49 C 0.44998 0.72554 0.01523 0.0
O50 O 0.43221 0.7894 0.90731 0.0
O51 O 0.42519 0.83634 0.9736 0.0
O52 O 0.41973 0.67706 0.87758 0.0
O53 O 0.34663 0.70092 0.87842 0.0
O54 O 0.46584 0.71229 0.97432 0.0
O55 O 0.40573 0.73195 0.01102 0.0
O56 O 0.3313 0.73027 0.03899 0.0
O57 O 0.33988 0.68441 0.97071 0.0
C58 C 0.44242 0.82903 0.93104 0.0
C59 C 0.32245 0.69068 0.01284 0.0
Dy60 Dy 0.52205 0.12594 0.19223 0.0
C61 C 0.37677 0.10928 0.32832 0.0
C62 C 0.58179 0.10973 0.11855 0.0
Dy63 Dy 0.45306 0.09907 0.26862 0.0
O64 O 0.55897 0.07682 0.14041 0.0
O65 O 0.57436 0.15215 0.13871 0.0
O66 O 0.48504 0.19577 0.17773 0.0
O67 O 0.44475 0.13636 0.20019 0.0
C68 C 0.44351 0.18159 0.19081 0.0
C69 C 0.54281 0.05189 0.2695 0.0
O70 O 0.42346 0.04915 0.21641 0.0
O71 O 0.48548 0.05775 0.16501 0.0
O72 O 0.37838 0.08119 0.29168 0.0
O73 O 0.41827 0.12865 0.33426 0.0
O74 O 0.50466 0.03445 0.28834 0.0
O75 O 0.53056 0.09409 0.25858 0.0
O76 O 0.55017 0.16146 0.26073 0.0
O77 O 0.47515 0.17311 0.28937 0.0
C78 C 0.44645 0.03593 0.17881 0.0
C79 C 0.52094 0.1812 0.29268 0.0
Dy80 Dy 0.63277 0.24565 0.57576 0.0
C81 C 0.62091 0.41613 0.45813 0.0
C82 C 0.64825 0.18396 0.64888 0.0
Dy83 Dy 0.6378 0.33158 0.50621 0.0
O84 O 0.63823 0.23021 0.65217 0.0
O85 O 0.64958 0.17043 0.60509 0.0
O86 O 0.55611 0.26213 0.5881 0.0
O87 O 0.60135 0.31995 0.57264 0.0
C88 C 0.55835 0.30816 0.57929 0.0
C89 C 0.68598 0.2468 0.48188 0.0
O90 O 0.68968 0.35948 0.55813 0.0
O91 O 0.69747 0.28741 0.60024 0.0
O92 O 0.663 0.396 0.46604 0.0
O93 O 0.58849 0.39039 0.47725 0.0
O94 O 0.66876 0.2784 0.45207 0.0
O95 O 0.67999 0.26563 0.52152 0.0
O96 O 0.59741 0.21676 0.50915 0.0
O97 O 0.57465 0.29275 0.48233 0.0
C98 C 0.71107 0.3321 0.59014 0.0
C99 C 0.57265 0.24513 0.47907 0.0
Dy100 Dy 0.94667 0.37644 0.75734 0.0
C101 C 0.05769 0.33478 0.9174 0.0
C102 C 0.88658 0.38692 0.68199 0.0
Dy103 Dy 0.01874 0.34497 0.83079 0.0
O104 O 0.89236 0.41946 0.71469 0.0
O105 O 0.91685 0.35095 0.68864 0.0
O106 O 0.89716 0.40303 0.81257 0.0
O107 O 0.97052 0.40935 0.82323 0.0
C108 C 0.93016 0.41717 0.84147 0.0
C109 C 0.03333 0.30677 0.74385 0.0
O110 O 0.96203 0.29356 0.84768 0.0
O111 O 0.91123 0.30994 0.78478 0.0
O112 O 0.08201 0.33288 0.87918 0.0
O113 O 0.01234 0.33881 0.90793 0.0
O114 O 0.06781 0.31422 0.77397 0.0
O115 O 0.99428 0.31425 0.76404 0.0
O116 O 0.01443 0.41788 0.74117 0.0
O117 O 0.04635 0.41734 0.81562 0.0
C118 C 0.92334 0.28481 0.82257 0.0
C119 C 0.04838 0.43085 0.77213 0.0
Dy120 Dy 0.87667 0.74947 0.07642 0.0
C121 C 0.87673 0.58755 0.95159 0.0
C122 C 0.87334 0.81373 0.15005 0.0
Dy123 Dy 0.85459 0.66841 1.00359 0.0
O124 O 0.85746 0.82323 0.10803 0.0
O125 O 0.89219 0.77014 0.15102 0.0
O126 O 0.94992 0.71954 0.08732 0.0
O127 O 0.89348 0.67174 0.07067 0.0
C128 C 0.93839 0.67507 0.07733 0.0
C129 C 0.80157 0.75326 0.99524 0.0
O130 O 0.81166 0.64011 0.0596 0.0
O131 O 0.80825 0.714 0.09971 0.0
O132 O 0.83487 0.6098 0.95128 0.0
O133 O 0.90601 0.60973 0.97955 0.0
O134 O 0.78748 0.71122 0.979 0.0
O135 O 0.84392 0.74715 0.00877 0.0
O136 O 0.91854 0.77568 0.01385 0.0
O137 O 0.91098 0.70626 0.96779 0.0
C138 C 0.79295 0.66909 0.0915 0.0
C139 C 0.93033 0.74876 0.97614 0.0
Dy140 Dy 0.55273 0.59836 0.24372 0.0
C141 C 0.41997 0.6356 0.37347 0.0
C142 C 0.62842 0.60365 0.18641 0.0
Dy143 Dy 0.4798 0.6458 0.30078 0.0
O144 O 0.61288 0.56283 0.20256 0.0
O145 O 0.60182 0.64013 0.19989 0.0
O146 O 0.55616 0.53241 0.28614 0.0
O147 O 0.54604 0.60115 0.3193 0.0
C148 C 0.55144 0.55525 0.32581 0.0
C149 C 0.48768 0.68124 0.21099 0.0
O150 O 0.53312 0.6941 0.32993 0.0
O151 O 0.59017 0.66221 0.28029 0.0
O152 O 0.42728 0.67741 0.35344 0.0
O153 O 0.44324 0.60091 0.35213 0.0
O154 O 0.47154 0.70744 0.24607 0.0
O155 O 0.49044 0.63873 0.22579 0.0
O156 O 0.4842 0.56127 0.21529 0.0
O157 O 0.43341 0.58861 0.27299 0.0
C158 C 0.57609 0.69434 0.31276 0.0
C159 C 0.44179 0.56115 0.23634 0.0
Dy160 Dy 0.24873 0.40624 0.12247 0.0
C161 C 0.09356 0.53941 0.11594 0.0
C162 C 0.3151 0.33313 0.134 0.0
Dy163 Dy 0.17199 0.48298 0.1359 0.0
O164 O 0.28587 0.33714 0.09867 0.0
O165 O 0.30988 0.3704 0.16176 0.0
O166 O 0.2152 0.38636 0.0551 0.0
O167 O 0.17085 0.4065 0.11124 0.0
C168 C 0.17161 0.39244 0.06905 0.0
C169 C 0.25361 0.49723 0.1861 0.0
O170 O 0.14557 0.43229 0.18774 0.0
O171 O 0.21622 0.38642 0.19108 0.0
O172 O 0.11103 0.53283 0.15772 0.0
O173 O 0.11953 0.51666 0.08534 0.0
O174 O 0.21249 0.517 0.19734 0.0
O175 O 0.24869 0.47964 0.14631 0.0
O176 O 0.27884 0.46788 0.08074 0.0
O177 O 0.2076 0.5113 0.0728 0.0
C178 C 0.174 0.39967 0.20795 0.0
C179 C 0.25297 0.50431 0.06152 0.0
Dy180 Dy 0.69047 0.97692 0.85587 0.0
C181 C 0.82922 0.11557 0.88792 0.0
C182 C 0.61377 0.91894 0.86984 0.0
Dy183 Dy 0.76535 0.04251 0.88768 0.0
O184 O 0.6278 0.9331 0.82916 0.0
O185 O 0.64377 0.93335 0.90161 0.0
O186 O 0.6783 0.01112 0.78789 0.0
O187 O 0.69772 0.05581 0.84597 0.0
C188 C 0.6903 0.05439 0.80169 0.0
C189 C 0.76458 0.9527 0.93082 0.0
O190 O 0.71647 0.07177 0.94029 0.0
O191 O 0.66026 0.01519 0.9205 0.0
O192 O 0.84084 0.06934 0.88609 0.0
O193 O 0.78356 0.1212 0.89306 0.0
O194 O 0.77886 0.99271 0.9509 0.0
O195 O 0.75794 0.96287 0.88894 0.0
O196 O 0.75874 0.94664 0.82006 0.0
O197 O 0.79005 0.02215 0.81734 0.0
C198 C 0.67579 0.05115 0.94751 0.0
C199 C 0.79211 0.97629 0.80469 0.0
Dy200 Dy 0.74458 0.9303 0.40551 0.0
C201 C 0.90582 0.05647 0.40488 0.0
C202 C 0.68982 0.85122 0.38734 0.0
Dy203 Dy 0.82213 0.00771 0.38905 0.0
O204 O 0.67259 0.89429 0.39922 0.0
O205 O 0.73598 0.85148 0.38761 0.0
O206 O 0.76581 0.91625 0.47764 0.0
O207 O 0.81775 0.93959 0.43036 0.0
C208 C 0.80896 0.93165 0.47313 0.0
C209 C 0.74148 0.01086 0.33167 0.0
O210 O 0.84917 0.95695 0.33497 0.0
O211 O 0.78506 0.90585 0.3403 0.0
O212 O 0.86575 0.07632 0.38918 0.0
O213 O 0.89988 0.01023 0.41113 0.0
O214 O 0.78233 0.02932 0.32035 0.0
O215 O 0.74657 0.99835 0.37289 0.0
O216 O 0.71202 1.00188 0.43736 0.0
O217 O 0.78254 0.04451 0.44633 0.0
C218 C 0.82464 0.91961 0.31994 0.0
C219 C 0.73612 0.04105 0.4531 0.0
Dy220 Dy 0.31687 0.49345 0.62809 0.0
C221 C 0.20027 0.66181 0.61997 0.0
C222 C 0.39157 0.42846 0.6226 0.0
Dy223 Dy 0.24663 0.574 0.60771 0.0
O224 O 0.39487 0.47462 0.63111 0.0
O225 O 0.34674 0.41679 0.61875 0.0
O226 O 0.3242 0.51458 0.7023 0.0
O227 O 0.31299 0.56957 0.65187 0.0
C228 C 0.31794 0.5609 0.69542 0.0
C229 C 0.22597 0.48481 0.56731 0.0
O230 O 0.29439 0.59647 0.55274 0.0
O231 O 0.3494 0.53317 0.56699 0.0
O232 O 0.18757 0.62891 0.58938 0.0
O233 O 0.23867 0.64714 0.64201 0.0
O234 O 0.19403 0.51719 0.58044 0.0
O235 O 0.2661 0.50409 0.5724 0.0
O236 O 0.24846 0.46938 0.66353 0.0
O237 O 0.21944 0.54761 0.6733 0.0
C238 C 0.33433 0.57237 0.5432 0.0
C239 C 0.21634 0.50125 0.68131 0.0
C240 C 0.19656 0.34889 0.58271 0.0
C241 C 0.21271 0.32756 0.54061 0.0
C242 C 0.2383 0.40881 0.5153 0.0
C243 C 0.21801 0.43103 0.55575 0.0
N244 N 0.16813 0.42191 0.62195 0.0
N245 N 0.24873 0.3361 0.46609 0.0
C246 C 0.19467 0.40082 0.58782 0.0
C247 C 0.23403 0.35724 0.50689 0.0
N248 N 0.18125 0.31923 0.61709 0.0
N249 N 0.26006 0.43751 0.48399 0.0
H250 H 0.24834 0.29847 0.46038 0.0
H251 H 0.25998 0.35532 0.43748 0.0
H252 H 0.25805 0.47547 0.48605 0.0
H253 H 0.28033 0.42416 0.45643 0.0
H254 H 0.17173 0.33106 0.65023 0.0
H255 H 0.18184 0.28132 0.61386 0.0
H256 H 0.15682 0.40382 0.65096 0.0
H257 H 0.15433 0.45722 0.61907 0.0
C258 C 0.87208 0.93906 0.82407 0.0
C259 C 0.84096 0.95964 0.78954 0.0
C260 C 0.91247 0.9847 0.74716 0.0
C261 C 0.94241 0.96604 0.78347 0.0
N262 N 0.94778 0.94819 0.86445 0.0
N263 N 0.83161 0.00517 0.71876 0.0
C264 C 0.9213 0.94987 0.82431 0.0
C265 C 0.86139 0.98332 0.75098 0.0
N266 N 0.85501 0.90864 0.85654 0.0
N267 N 0.93339 0.00504 0.70991 0.0
H268 H 0.79452 1.00201 0.71967 0.0
H269 H 0.84309 0.02661 0.69174 0.0
H270 H 0.97016 0.01031 0.70994 0.0
H271 H 0.91514 0.01625 0.67984 0.0
H272 H 0.87704 0.89075 0.881 0.0
H273 H 0.82042 0.89604 0.85424 0.0
H274 H 0.9333 0.94028 0.89661 0.0
H275 H 0.98249 0.96125 0.86579 0.0
C276 C 0.2575 0.63041 0.01153 0.0
C277 C 0.30078 0.64648 0.03196 0.0
C278 C 0.32119 0.56277 0.05632 0.0
C279 C 0.27585 0.5473 0.03986 0.0
N280 N 0.20845 0.5621 0.98842 0.0
N281 N 0.36896 0.6307 0.08183 0.0
C282 C 0.24615 0.58011 0.01348 0.0
C283 C 0.33109 0.61339 0.0568 0.0
N284 N 0.22657 0.66404 0.99194 0.0
N285 N 0.35607 0.52916 0.06827 0.0
H286 H 0.37563 0.66779 0.08471 0.0
H287 H 0.39065 0.60905 0.10345 0.0
H288 H 0.35302 0.49215 0.06093 0.0
H289 H 0.39073 0.53814 0.07814 0.0
H290 H 0.19255 0.65623 0.97921 0.0
H291 H 0.23361 0.70121 0.9925 0.0
H292 H 0.18677 0.58268 0.96585 0.0
H293 H 0.20193 0.52482 0.98681 0.0
C294 C 0.60903 0.99119 0.2971 0.0
C295 C 0.5951 0.03675 0.27784 0.0
C296 C 0.67747 0.06507 0.29227 0.0
C297 C 0.69242 0.01897 0.30927 0.0
N298 N 0.67362 0.93392 0.31158 0.0
N299 N 0.62712 0.104 0.23516 0.0
C300 C 0.65841 0.98095 0.30746 0.0
C301 C 0.63241 0.07008 0.26903 0.0
N302 N 0.57602 0.95651 0.3044 0.0
N303 N 0.70499 0.10493 0.29898 0.0
H304 H 0.59839 0.10358 0.21213 0.0
H305 H 0.65458 0.12651 0.22541 0.0
H306 H 0.73712 0.10412 0.31786 0.0
H307 H 0.69286 0.13995 0.29002 0.0
H308 H 0.58321 0.92609 0.32511 0.0
H309 H 0.54157 0.95799 0.2902 0.0
H310 H 0.65223 0.90448 0.30328 0.0
H311 H 0.70886 0.92484 0.31863 0.0
C312 C 0.72705 0.16784 0.50797 0.0
C313 C 0.69898 0.19321 0.47353 0.0
C314 C 0.68084 0.1136 0.43641 0.0
C315 C 0.71225 0.08873 0.46819 0.0
N316 N 0.766 0.09289 0.53441 0.0
N317 N 0.66152 0.18902 0.39663 0.0
C318 C 0.73469 0.11619 0.50453 0.0
C319 C 0.67928 0.16586 0.4354 0.0
N320 N 0.74869 0.19348 0.5432 0.0
N321 N 0.65235 0.08749 0.40679 0.0
H322 H 0.66297 0.22626 0.39143 0.0
H323 H 0.65105 0.1707 0.36635 0.0
H324 H 0.64989 0.04982 0.4082 0.0
H325 H 0.62647 0.10329 0.38481 0.0
H326 H 0.76109 0.17797 0.57421 0.0
H327 H 0.75489 0.23067 0.54123 0.0
H328 H 0.78918 0.11033 0.55746 0.0
H329 H 0.77012 0.05524 0.53484 0.0
C330 C 0.0883 0.4954 0.72753 0.0
C331 C 0.09285 0.45476 0.7568 0.0
C332 C 0.18043 0.45372 0.74606 0.0
C333 C 0.17421 0.48689 0.70908 0.0
N334 N 0.11886 0.53823 0.66276 0.0
N335 N 0.14533 0.39319 0.79338 0.0
C336 C 0.12742 0.50815 0.69979 0.0
C337 C 0.13955 0.43395 0.76679 0.0
N338 N 0.04665 0.52268 0.72699 0.0
N339 N 0.22539 0.44227 0.76276 0.0
H340 H 0.11812 0.37724 0.8111 0.0
H341 H 0.17719 0.37267 0.79521 0.0
H342 H 0.25621 0.45658 0.74913 0.0
H343 H 0.23186 0.42291 0.79335 0.0
H344 H 0.04286 0.55621 0.71044 0.0
H345 H 0.0177 0.51459 0.74767 0.0
H346 H 0.08456 0.54844 0.65118 0.0
H347 H 0.14472 0.55003 0.64058 0.0
C348 C 0.76042 0.86006 0.9186 0.0
C349 C 0.76492 0.90086 0.94986 0.0
C350 C 0.77474 0.84025 0.01262 0.0
C351 C 0.78333 0.80238 0.97953 0.0
N352 N 0.79332 0.78074 0.89841 0.0
N353 N 0.77492 0.92649 0.03071 0.0
C354 C 0.77894 0.81353 0.93177 0.0
C355 C 0.77176 0.89009 0.99814 0.0
N356 N 0.73561 0.86393 0.87754 0.0
N357 N 0.76653 0.82847 0.05765 0.0
H358 H 0.76746 0.963 0.02387 0.0
H359 H 0.78631 0.92008 0.06493 0.0
H360 H 0.76647 0.7924 0.06864 0.0
H361 H 0.75421 0.85393 0.08212 0.0
H362 H 0.72962 0.83407 0.8556 0.0
H363 H 0.71453 0.89424 0.86928 0.0
H364 H 0.79435 0.78988 0.86327 0.0
H365 H 0.80868 0.74667 0.90599 0.0
C366 C 0.38423 0.49386 0.22434 0.0
C367 C 0.39759 0.54186 0.21416 0.0
C368 C 0.31505 0.56163 0.18738 0.0
C369 C 0.30094 0.51499 0.20143 0.0
N370 N 0.31953 0.4395 0.24034 0.0
N371 N 0.37402 0.62379 0.19181 0.0
C372 C 0.33493 0.48173 0.22169 0.0
C373 C 0.36244 0.57626 0.19715 0.0
N374 N 0.41877 0.46016 0.23693 0.0
N375 N 0.28369 0.59159 0.16326 0.0
H376 H 0.40912 0.63476 0.1922 0.0
H377 H 0.34893 0.65226 0.1878 0.0
H378 H 0.24851 0.58278 0.15523 0.0
H379 H 0.29322 0.6242 0.14829 0.0
H380 H 0.41235 0.4233 0.24116 0.0
H381 H 0.4549 0.46862 0.23911 0.0
H382 H 0.3415 0.41531 0.25916 0.0
H383 H 0.28347 0.43084 0.2405 0.0
C384 C 0.53804 0.16072 0.37762 0.0
C385 C 0.53806 0.19524 0.34039 0.0
C386 C 0.53672 0.25986 0.39892 0.0
C387 C 0.55 0.22608 0.43479 0.0
N388 N 0.55503 0.14212 0.45855 0.0
N389 N 0.54215 0.27894 0.31729 0.0
C390 C 0.54904 0.17574 0.42411 0.0
C391 C 0.5398 0.24518 0.35165 0.0
N392 N 0.52281 0.11465 0.36973 0.0
N393 N 0.51624 0.30423 0.40965 0.0
H394 H 0.54386 0.26922 0.28209 0.0
H395 H 0.54693 0.31586 0.32442 0.0
H396 H 0.50458 0.313 0.44306 0.0
H397 H 0.5036 0.32859 0.38436 0.0
H398 H 0.51814 0.08912 0.39568 0.0
H399 H 0.50807 0.10429 0.33823 0.0
H400 H 0.56301 0.10538 0.45202 0.0
H401 H 0.55066 0.15078 0.49364 0.0
C402 C 0.05292 0.32716 0.61285 0.0
C403 C 0.04058 0.28151 0.59382 0.0
C404 C 0.01873 0.25388 0.67202 0.0
C405 C 0.03812 0.29663 0.69212 0.0
N406 N 0.077 0.37201 0.68159 0.0
N407 N 0.99534 0.2094 0.60144 0.0
C408 C 0.05555 0.33293 0.66228 0.0
C409 C 0.0177 0.24765 0.62245 0.0
N410 N 0.06363 0.36415 0.58373 0.0
N411 N 1.0049 0.21767 0.70058 0.0
H412 H 0.99386 0.20548 0.56522 0.0
H413 H 0.97509 0.18443 0.61887 0.0
H414 H 0.00982 0.21943 0.73666 0.0
H415 H 0.99138 0.18475 0.68899 0.0
H416 H 0.0748 0.3983 0.59456 0.0
H417 H 0.05641 0.36233 0.54807 0.0
H418 H 0.08012 0.40532 0.66528 0.0
H419 H 0.09327 0.36915 0.71419 0.0
C420 C 0.99077 0.83143 0.88924 0.0
C421 C 0.98306 0.80238 0.84819 0.0
C422 C 0.96743 0.73417 0.89801 0.0
C423 C 0.96018 0.76634 0.93693 0.0
N424 N 0.97408 0.84603 0.97052 0.0
N425 N 0.96228 0.7249 0.81438 0.0
C426 C 0.97449 0.81519 0.93295 0.0
C427 C 0.97013 0.75355 0.8528 0.0
N428 N 0.01624 0.87309 0.88745 0.0
N429 N 0.97571 0.68539 0.90453 0.0
H430 H 0.9654 0.73754 0.78047 0.0
H431 H 0.94889 0.68991 0.81659 0.0
H432 H 0.98097 0.67053 0.93754 0.0
H433 H 0.98423 0.66127 0.87743 0.0
H434 H 0.02885 0.89122 0.9171 0.0
H435 H 0.02706 0.88866 0.8567 0.0
H436 H 0.97572 0.88377 0.9674 0.0
H437 H 0.97378 0.83394 1.0047 0.0
C438 C 0.48816 0.74295 0.14274 0.0
C439 C 0.48959 0.6939 0.1589 0.0
C440 C 0.47786 0.66554 0.07701 0.0
C441 C 0.47299 0.71415 0.0618 0.0
N442 N 0.49423 0.79692 0.07621 0.0
N443 N 0.51309 0.61173 0.13383 0.0
C444 C 0.48424 0.75234 0.09357 0.0
C445 C 0.49247 0.65599 0.12392 0.0
N446 N 0.49186 0.78069 0.1738 0.0
N447 N 0.46816 0.62796 0.04694 0.0
H448 H 0.5322 0.6054 0.16427 0.0
H449 H 0.5191 0.58439 0.10901 0.0
H450 H 0.45882 0.63299 0.01201 0.0
H451 H 0.46564 0.59197 0.05763 0.0
H452 H 0.48519 0.81695 0.16487 0.0
H453 H 0.50163 0.77581 0.20862 0.0
H454 H 0.50725 0.82553 0.09644 0.0
H455 H 0.49323 0.80365 0.04048 0.0
C456 C 0.13779 0.39046 0.33397 0.0
C457 C 0.1278 0.34039 0.33637 0.0
C458 C 0.14403 0.33001 0.25322 0.0
C459 C 0.15867 0.37887 0.25209 0.0
N460 N 0.17836 0.4531 0.29312 0.0
N461 N 0.13117 0.25982 0.30089 0.0
C462 C 0.1578 0.40856 0.29289 0.0
C463 C 0.13318 0.30932 0.29667 0.0
N464 N 0.1276 0.42078 0.3708 0.0
N465 N 0.13986 0.30359 0.21276 0.0
H466 H 0.12487 0.24255 0.33217 0.0
H467 H 0.14032 0.23546 0.27423 0.0
H468 H 0.14844 0.31734 0.18032 0.0
H469 H 0.12421 0.26961 0.21091 0.0
H470 H 0.1296 0.45857 0.36936 0.0
H471 H 0.1129 0.40849 0.40152 0.0
H472 H 0.18343 0.47417 0.32309 0.0
H473 H 0.19485 0.46678 0.26412 0.0
C474 C 0.91758 0.8924 0.54868 0.0
C475 C 0.89562 0.89392 0.59288 0.0
C476 C 0.8251 0.93445 0.55848 0.0
C477 C 0.84343 0.92559 0.51294 0.0
N478 N 0.90629 0.88955 0.46522 0.0
N479 N 0.82699 0.91216 0.63985 0.0
C480 C 0.88965 0.90324 0.50799 0.0
C481 C 0.84912 0.91414 0.59783 0.0
N482 N 0.9656 0.88254 0.54556 0.0
N483 N 0.78455 0.96263 0.56433 0.0
H484 H 0.84342 0.89738 0.6696 0.0
H485 H 0.79095 0.92113 0.64438 0.0
H486 H 0.76438 0.97705 0.53673 0.0
H487 H 0.77313 0.9754 0.59667 0.0
H488 H 0.98441 0.88662 0.51493 0.0
H489 H 0.98767 0.87506 0.5744 0.0
H490 H 0.93681 0.86744 0.46095 0.0
H491 H 0.88847 0.89668 0.43393 0.0
C492 C 0.31018 0.58917 0.77811 0.0
C493 C 0.3307 0.59607 0.73369 0.0
C494 C 0.38346 0.6572 0.76942 0.0
C495 C 0.3662 0.64577 0.81404 0.0
N496 N 0.32006 0.59393 0.86191 0.0
N497 N 0.39347 0.63141 0.68911 0.0
C498 C 0.33155 0.60978 0.81861 0.0
C499 C 0.36898 0.62894 0.72969 0.0
N500 N 0.26914 0.56389 0.78169 0.0
N501 N 0.4127 0.69583 0.76473 0.0
H502 H 0.38488 0.61147 0.65926 0.0
H503 H 0.42495 0.65043 0.68613 0.0
H504 H 0.42491 0.71639 0.7931 0.0
H505 H 0.42191 0.70963 0.73257 0.0
H506 H 0.24958 0.56234 0.81212 0.0
H507 H 0.25177 0.54885 0.75308 0.0
H508 H 0.29897 0.56389 0.86734 0.0
H509 H 0.3356 0.60749 0.89255 0.0
C510 C 0.60104 0.12638 0.03406 0.0
C511 C 0.60901 0.09872 0.07529 0.0
C512 C 0.65281 0.03618 0.02991 0.0
C513 C 0.64923 0.06604 0.98997 0.0
N514 N 0.62561 0.14271 0.95519 0.0
N515 N 0.65257 0.03329 0.11408 0.0
C516 C 0.62534 0.11229 0.99253 0.0
C517 C 0.63775 0.05527 0.07361 0.0
N518 N 0.56809 0.16409 0.0334 0.0
N519 N 0.67027 0.98932 0.02625 0.0
H520 H 0.64446 0.04757 0.1469 0.0
H521 H 0.67732 0.00423 0.11524 0.0
H522 H 0.68219 0.97397 0.99506 0.0
H523 H 0.66894 0.96431 0.05319 0.0
H524 H 0.55699 0.18181 1.00303 0.0
H525 H 0.54846 0.17507 0.06229 0.0
H526 H 0.61382 0.17903 0.95677 0.0
H527 H 0.64044 0.13249 0.92335 0.0
C528 C 0.70423 0.15441 0.71271 0.0
C529 C 0.65864 0.15276 0.69009 0.0
C530 C 0.63046 0.09904 0.75108 0.0
C531 C 0.67723 0.0967 0.77115 0.0
N532 N 0.75549 0.12953 0.77816 0.0
N533 N 0.57873 0.12257 0.68567 0.0
C534 C 0.71318 0.12683 0.7541 0.0
C535 C 0.62171 0.12507 0.70893 0.0
N536 N 0.73947 0.18069 0.69325 0.0
N537 N 0.59409 0.07761 0.77373 0.0
H538 H 0.57087 0.14192 0.65528 0.0
H539 H 0.55188 0.09906 0.69446 0.0
H540 H 0.59939 0.0603 0.80568 0.0
H541 H 0.55825 0.08086 0.76367 0.0
H542 H 0.77481 0.18068 0.70507 0.0
H543 H 0.73402 0.2012 0.66315 0.0
H544 H 0.78222 0.15364 0.77075 0.0
H545 H 0.76208 0.10999 0.80849 0.0
C546 C 0.1419 0.3224 0.02139 0.0
C547 C 0.13208 0.36764 0.04417 0.0
C548 C 0.0664 0.38565 0.99021 0.0
C549 C 0.07896 0.3428 0.96416 0.0
N550 N 0.11913 0.26414 0.96095 0.0
N551 N 0.07146 0.42681 0.06512 0.0
C552 C 0.11371 0.30894 0.98182 0.0
C553 C 0.0896 0.39408 0.03364 0.0
N554 N 0.17832 0.29283 0.03793 0.0
N555 N 0.03567 0.42045 0.9721 0.0
H556 H 0.08669 0.43071 0.09831 0.0
H557 H 0.03845 0.44484 0.06059 0.0
H558 H 0.02014 0.41817 0.93897 0.0
H559 H 0.02936 0.45419 0.98818 0.0
H560 H 0.19151 0.26193 0.02065 0.0
H561 H 0.19535 0.29966 0.06991 0.0
H562 H 0.14186 0.23641 0.97337 0.0
H563 H 0.09813 0.25336 0.93245 0.0
C564 C 0.80509 0.89058 0.23871 0.0
C565 C 0.83907 0.89465 0.27573 0.0
C566 C 0.89869 0.85259 0.22657 0.0
C567 C 0.86234 0.84281 0.19276 0.0
N568 N 0.77759 0.83932 0.17587 0.0
N569 N 0.91724 0.87294 0.30731 0.0
C570 C 0.81455 0.8581 0.20131 0.0
C571 C 0.88582 0.87398 0.27034 0.0
N572 N 0.76471 0.91952 0.23779 0.0
N573 N 0.94548 0.84248 0.21658 0.0
H574 H 0.90881 0.88736 0.33998 0.0
H575 H 0.95001 0.854 0.30674 0.0
H576 H 0.95612 0.82736 0.1848 0.0
H577 H 0.97385 0.85313 0.23801 0.0
H578 H 0.74052 0.92005 0.20971 0.0
H579 H 0.75928 0.94761 0.26181 0.0
H580 H 0.74184 0.84679 0.18361 0.0
H581 H 0.78251 0.81143 0.15139 0.0
C582 C 0.3801 0.6354 0.5005 0.0
C583 C 0.36034 0.58824 0.50153 0.0
C584 C 0.36752 0.58168 0.41696 0.0
C585 C 0.39287 0.62571 0.41633 0.0
N586 N 0.4301 0.69099 0.45969 0.0
N587 N 0.34622 0.51192 0.46172 0.0
C588 C 0.40075 0.65203 0.45862 0.0
C589 C 0.35755 0.55992 0.4601 0.0
N590 N 0.37955 0.66415 0.53965 0.0
N591 N 0.3517 0.56122 0.37607 0.0
H592 H 0.34015 0.49403 0.49271 0.0
H593 H 0.34817 0.4886 0.43288 0.0
H594 H 0.35623 0.57754 0.34385 0.0
H595 H 0.32938 0.53144 0.37464 0.0
H596 H 0.38802 0.70088 0.53963 0.0
H597 H 0.36816 0.65186 0.57175 0.0
H598 H 0.44163 0.70772 0.49048 0.0
H599 H 0.44592 0.7046 0.43022 0.0
C600 C 0.2481 0.15253 0.35696 0.0
C601 C 0.25282 0.16225 0.40542 0.0
C602 C 0.3356 0.12893 0.40391 0.0
C603 C 0.33277 0.12435 0.35466 0.0
N604 N 0.28784 0.14156 0.28338 0.0
N605 N 0.30485 0.16889 0.4731 0.0
C606 C 0.28938 0.1386 0.33086 0.0
C607 C 0.29762 0.15288 0.42837 0.0
N608 N 0.20387 0.15484 0.33594 0.0
N609 N 0.37394 0.10888 0.42772 0.0
H610 H 0.27873 0.18795 0.49182 0.0
H611 H 0.33819 0.16785 0.48987 0.0
H612 H 0.40179 0.0898 0.41134 0.0
H613 H 0.37566 0.10664 0.46391 0.0
H614 H 0.1974 0.14302 0.30187 0.0
H615 H 0.17281 0.1642 0.35385 0.0
H616 H 0.25915 0.15753 0.26497 0.0
H617 H 0.31668 0.13266 0.26232 0.0
C618 C 0.08373 0.07192 0.62946 0.0
C619 C 0.13007 0.07197 0.61056 0.0
C620 C 0.13828 0.98458 0.62713 0.0
C621 C 0.08952 0.98481 0.64028 0.0
N622 N 0.01235 0.0259 0.63259 0.0
N623 N 0.19968 0.02501 0.58487 0.0
C624 C 0.06098 0.02744 0.63466 0.0
C625 C 0.15728 0.02742 0.60766 0.0
N626 N 0.06141 0.1144 0.64312 0.0
N627 N 0.16609 0.94328 0.63269 0.0
H628 H 0.21598 0.05518 0.57137 0.0
H629 H 0.21758 0.99224 0.577 0.0
H630 H 0.15199 0.91011 0.64232 0.0
H631 H 0.20312 0.94247 0.62934 0.0
H632 H 0.0287 0.11482 0.6599 0.0
H633 H 0.07836 0.14782 0.64292 0.0
H634 H 0.99079 0.05669 0.62557 0.0
H635 H 0.99415 0.99336 0.63116 0.0
C636 C 0.23799 0.88439 0.85568 0.0
C637 C 0.19699 0.85619 0.84727 0.0
C638 C 0.23498 0.78752 0.88897 0.0
C639 C 0.27349 0.81737 0.90203 0.0
N640 N 0.30973 0.89629 0.90267 0.0
N641 N 0.15251 0.78418 0.86292 0.0
C642 C 0.27477 0.86634 0.88642 0.0
C643 C 0.19453 0.80846 0.86551 0.0
N644 N 0.24225 0.92783 0.83352 0.0
N645 N 0.23717 0.73895 0.89903 0.0
H646 H 0.12126 0.79917 0.8481 0.0
H647 H 0.14709 0.75141 0.87971 0.0
H648 H 0.26613 0.72271 0.91681 0.0
H649 H 0.21263 0.71409 0.88613 0.0
H650 H 0.27353 0.94753 0.83412 0.0
H651 H 0.21554 0.94247 0.81157 0.0
H652 H 0.30923 0.93373 0.8971 0.0
H653 H 0.33786 0.8844 0.92436 0.0
C654 C 0.42981 0.94723 0.17291 0.0
C655 C 0.42784 0.99396 0.15224 0.0
C656 C 0.38692 0.96035 0.08352 0.0
C657 C 0.38568 0.91425 0.10585 0.0
N658 N 0.39662 0.86674 0.17544 0.0
N659 N 0.39661 0.04752 0.09244 0.0
C660 C 0.40436 0.90863 0.1517 0.0
C661 C 0.40401 1.00131 0.10889 0.0
N662 N 0.4575 0.93928 0.21194 0.0
N663 N 0.3746 0.9648 0.03744 0.0
H664 H 0.40936 0.07831 0.1097 0.0
H665 H 0.37455 0.05567 0.06379 0.0
H666 H 0.36214 0.93634 0.01678 0.0
H667 H 0.38073 0.99599 0.01834 0.0
H668 H 0.46444 0.90482 0.22578 0.0
H669 H 0.47735 0.96655 0.22793 0.0
H670 H 0.40535 0.86229 0.21058 0.0
H671 H 0.37722 0.83808 0.16118 0.0
C672 C 0.79959 0.368 0.68471 0.0
C673 C 0.84018 0.37916 0.65795 0.0
C674 C 0.79627 0.35789 0.58638 0.0
C675 C 0.75478 0.35051 0.61302 0.0
N676 N 0.71387 0.35825 0.68585 0.0
N677 N 0.87553 0.39166 0.58352 0.0
C678 C 0.75549 0.35867 0.66167 0.0
C679 C 0.83793 0.37638 0.60875 0.0
N680 N 0.80367 0.36301 0.73196 0.0
N681 N 0.79676 0.34475 0.54031 0.0
H682 H 0.90666 0.40484 0.59913 0.0
H683 H 0.87437 0.39517 0.54745 0.0
H684 H 0.76732 0.33037 0.52272 0.0
H685 H 0.82746 0.34421 0.52037 0.0
H686 H 0.77677 0.34918 0.75218 0.0
H687 H 0.83531 0.36805 0.75075 0.0
H688 H 0.71141 0.36932 0.72056 0.0
H689 H 0.68083 0.35121 0.67009 0.0
C690 C 0.91381 0.45682 0.91917 0.0
C691 C 0.92009 0.46123 0.87057 0.0
C692 C 0.89481 0.54778 0.8747 0.0
C693 C 0.89039 0.54379 0.9236 0.0
N694 N 0.90244 0.49725 0.99389 0.0
N695 N 0.92456 0.5122 0.80281 0.0
C696 C 0.90213 0.49914 0.94631 0.0
C697 C 0.91289 0.50714 0.84854 0.0
N698 N 0.9175 0.41186 0.93912 0.0
N699 N 0.88156 0.59045 0.8532 0.0
H700 H 0.93705 0.48338 0.78205 0.0
H701 H 0.92559 0.5456 0.78612 0.0
H702 H 0.87094 0.62194 0.87132 0.0
H703 H 0.87828 0.59412 0.81725 0.0
H704 H 0.9079 0.40495 0.9732 0.0
H705 H 0.92777 0.38058 0.92055 0.0
H706 H 0.91645 0.46779 0.01272 0.0
H707 H 0.89128 0.52644 0.01496 0.0
C708 C 0.71132 0.63364 0.09087 0.0
C709 C 0.75157 0.65066 0.11677 0.0
C710 C 0.71285 0.6301 0.18945 0.0
C711 C 0.67408 0.61081 0.16322 0.0
N712 N 0.64021 0.5849 0.08996 0.0
N713 N 0.79497 0.65616 0.18996 0.0
C714 C 0.67479 0.60928 0.11418 0.0
C715 C 0.75361 0.64643 0.16593 0.0
N716 N 0.70649 0.64342 0.04444 0.0
N717 N 0.71012 0.63393 0.23684 0.0
H718 H 0.8257 0.66783 0.17393 0.0
H719 H 0.8002 0.64881 0.2252 0.0
H720 H 0.6823 0.61945 0.2555 0.0
H721 H 0.73406 0.65354 0.25738 0.0
H722 H 0.67574 0.63643 0.0248 0.0
H723 H 0.73124 0.66314 0.02641 0.0
H724 H 0.64114 0.57846 0.05419 0.0
H725 H 0.61292 0.56697 0.10648 0.0
C726 C 0.57522 0.49547 0.44355 0.0
C727 C 0.6102 0.45993 0.42895 0.0
C728 C 0.62068 0.50651 0.35791 0.0
C729 C 0.57796 0.53359 0.36675 0.0
N730 N 0.52097 0.56296 0.42222 0.0
N731 N 0.66313 0.42986 0.36839 0.0
C732 C 0.55726 0.53107 0.41115 0.0
C733 C 0.63293 0.46543 0.38553 0.0
N734 N 0.56063 0.49614 0.48872 0.0
N735 N 0.64967 0.52048 0.32303 0.0
H736 H 0.67119 0.39725 0.3853 0.0
H737 H 0.67631 0.43046 0.3347 0.0
H738 H 0.6423 0.55196 0.30377 0.0
H739 H 0.68333 0.50453 0.31733 0.0
H740 H 0.53756 0.52267 0.50259 0.0
H741 H 0.57498 0.47237 0.51374 0.0
H742 H 0.49933 0.55964 0.45103 0.0
H743 H 0.51369 0.59379 0.40224 0.0
C744 C 0.3356 0.26687 0.19045 0.0
C745 C 0.34201 0.28801 0.14611 0.0
C746 C 0.39893 0.22238 0.12648 0.0
C747 C 0.40054 0.20855 0.17387 0.0
N748 N 0.36984 0.21581 0.25129 0.0
N749 N 0.38073 0.28678 0.07159 0.0
C750 C 0.36818 0.22977 0.20587 0.0
C751 C 0.37325 0.26551 0.11356 0.0
N752 N 0.29733 0.28072 0.2169 0.0
N753 N 0.42235 0.19424 0.09414 0.0
H754 H 0.36337 0.31903 0.0611 0.0
H755 H 0.40706 0.27466 0.04872 0.0
H756 H 0.44098 0.16207 0.10299 0.0
H757 H 0.41926 0.19998 0.05841 0.0
H758 H 0.28867 0.2634 0.24759 0.0
H759 H 0.2711 0.3058 0.20562 0.0
H760 H 0.3518 0.23447 0.27775 0.0
H761 H 0.39056 0.18597 0.2624 0.0
C762 C 0.89582 0.19954 0.80876 0.0
C763 C 0.89518 0.24264 0.83649 0.0
C764 C 0.86053 0.19856 0.90092 0.0
C765 C 0.85884 0.15603 0.87257 0.0
N766 N 0.87061 0.11657 0.79756 0.0
N767 N 0.86859 0.28633 0.90464 0.0
C768 C 0.87579 0.15642 0.82609 0.0
C769 C 0.87524 0.24296 0.88147 0.0
N770 N 0.91655 0.19951 0.76608 0.0
N771 N 0.84911 0.19599 0.9469 0.0
H772 H 0.87704 0.31958 0.89006 0.0
H773 H 0.8504 0.29008 0.93581 0.0
H774 H 0.83899 0.16367 0.96228 0.0
H775 H 0.85387 0.22438 0.97073 0.0
H776 H 0.9251 0.16804 0.74711 0.0
H777 H 0.92694 0.23122 0.75007 0.0
H778 H 0.87547 0.11692 0.76173 0.0
H779 H 0.85861 0.08327 0.80864 0.0
C780 C 0.05978 0.61267 0.07629 0.0
C781 C 0.05235 0.57142 0.10389 0.0
C782 C 0.96741 0.59416 0.11075 0.0
C783 C 0.97435 0.63449 0.08116 0.0
N784 N 0.02489 0.67508 0.02722 0.0
N785 N 0.99844 0.51632 0.13914 0.0
C786 C 0.01984 0.64133 0.0612 0.0
C787 C 1.00591 0.56006 0.11855 0.0
N788 N 0.10526 0.62608 0.06642 0.0
N789 N 0.92555 0.58993 0.13398 0.0
H790 H 0.02597 0.49084 0.14602 0.0
H791 H 0.96453 0.50356 0.14571 0.0
H792 H 0.89633 0.61387 0.13002 0.0
H793 H 0.92099 0.56465 0.16019 0.0
H794 H 0.11305 0.65911 0.05117 0.0
H795 H 0.13586 0.60647 0.07728 0.0
H796 H 0.0555 0.67762 0.00739 0.0
H797 H 0.99681 0.69745 0.01567 0.0
C798 C 0.66606 0.79609 0.32058 0.0
C799 C 0.66201 0.81 0.36834 0.0
C800 C 0.61176 0.73989 0.38061 0.0
C801 C 0.60918 0.73136 0.33168 0.0
N802 N 0.62642 0.75905 0.25427 0.0
N803 N 0.6272 0.79756 0.44328 0.0
C804 C 0.63454 0.76128 0.30134 0.0
C805 C 0.63339 0.78282 0.39815 0.0
N806 N 0.69997 0.81561 0.29329 0.0
N807 N 0.59567 0.70577 0.41045 0.0
H808 H 0.64411 0.82764 0.45792 0.0
H809 H 0.6026 0.78205 0.46509 0.0
H810 H 0.58252 0.67241 0.39904 0.0
H811 H 0.60044 0.70803 0.44646 0.0
H812 H 0.70744 0.80242 0.25995 0.0
H813 H 0.72358 0.8418 0.30499 0.0
H814 H 0.64039 0.78386 0.23128 0.0
H815 H 0.60171 0.73615 0.23848 0.0
C816 C 0.47328 0.33509 0.5632 0.0
C817 C 0.51703 0.34179 0.58833 0.0
C818 C 0.4753 0.39896 0.64092 0.0
C819 C 0.43363 0.39663 0.61206 0.0
N820 N 0.3983 0.37251 0.53809 0.0
N821 N 0.56078 0.38452 0.64899 0.0
C822 C 0.43399 0.36754 0.57105 0.0
C823 C 0.51857 0.37556 0.62618 0.0
N824 N 0.46834 0.29708 0.53255 0.0
N825 N 0.47287 0.42117 0.68372 0.0
H826 H 0.59276 0.3658 0.64213 0.0
H827 H 0.56477 0.41305 0.67285 0.0
H828 H 0.44133 0.43667 0.69674 0.0
H829 H 0.50064 0.41972 0.70837 0.0
H830 H 0.43555 0.28798 0.51747 0.0
H831 H 0.49555 0.27175 0.5255 0.0
H832 H 0.39992 0.35561 0.50544 0.0
H833 H 0.36985 0.39761 0.5408 0.0
C834 C 0.15085 0.6962 0.68447 0.0
C835 C 0.16838 0.70091 0.63866 0.0
C836 C 0.1246 0.77907 0.63064 0.0
C837 C 0.10951 0.77534 0.67748 0.0
N838 N 0.11643 0.73607 0.75186 0.0
N839 N 0.17878 0.7497 0.57067 0.0
C840 C 0.12548 0.73578 0.70529 0.0
C841 C 0.15735 0.7433 0.61245 0.0
N842 N 0.1558 0.6528 0.70722 0.0
N843 N 0.10594 0.81532 0.60292 0.0
H844 H 0.20205 0.72362 0.5561 0.0
H845 H 0.17628 0.78211 0.55216 0.0
H846 H 0.08274 0.84276 0.61509 0.0
H847 H 0.11112 0.81661 0.56716 0.0
H848 H 0.13894 0.64551 0.7383 0.0
H849 H 0.17262 0.62215 0.6928 0.0
H850 H 0.13181 0.71103 0.77509 0.0
H851 H 0.09728 0.76429 0.76804 0.0
C852 C 0.49635 0.85116 0.8651 0.0
C853 C 0.47777 0.86281 0.90994 0.0
C854 C 0.53921 0.92477 0.91757 0.0
C855 C 0.56517 0.90176 0.88079 0.0
N856 N 0.56787 0.84054 0.81985 0.0
N857 N 0.47682 0.92086 0.97419 0.0
C858 C 0.54351 0.8644 0.85438 0.0
C859 C 0.4979 0.9025 0.93508 0.0
N860 N 0.46787 0.83089 0.83142 0.0
N861 N 0.55128 0.97022 0.93283 0.0
H862 H 0.44092 0.91634 0.98117 0.0
H863 H 0.49464 0.9427 0.99843 0.0
H864 H 0.57658 0.99054 0.9162 0.0
H865 H 0.53183 0.99058 0.95715 0.0
H866 H 0.4792 0.82455 0.79745 0.0
H867 H 0.43107 0.82791 0.83538 0.0
H868 H 0.55458 0.80993 0.80269 0.0
H869 H 0.60281 0.84856 0.81132 0.0
C870 C 0.96936 0.11359 0.3784 0.0
C871 C 0.95217 0.08199 0.41289 0.0
C872 C 0.02559 0.09599 0.4595 0.0
C873 C 0.03647 0.13553 0.43095 0.0
N874 N 0.0231 0.17809 0.35891 0.0
N875 N 0.96348 0.04582 0.48907 0.0
C876 C 0.00966 0.14293 0.38892 0.0
C877 C 0.98049 0.07333 0.45399 0.0
N878 N 0.94871 0.11383 0.33487 0.0
N879 N 0.05905 0.07917 0.49084 0.0
H880 H 0.92989 0.03037 0.48789 0.0
H881 H 0.98079 0.04239 0.52136 0.0
H882 H 0.09373 0.0921 0.49097 0.0
H883 H 0.05472 0.04839 0.51111 0.0
H884 H 0.96213 0.13263 0.30692 0.0
H885 H 0.92076 0.0913 0.32518 0.0
H886 H 1.00187 0.19058 0.33113 0.0
H887 H 0.05566 0.19549 0.36268 0.0
loop_
_geom_bond_atom_site_label_1
_geom_bond_atom_site_label_2
_geom_bond_distance
_geom_bond_site_symmetry_2
_ccdc_geom_bond_type
Dy0 O4 2.398 . S
Dy0 O5 2.491 . S
Dy0 O6 2.403 . S
Dy0 O7 2.664 . S
Dy0 O11 2.326 . S
Dy0 O15 2.310 . S
Dy0 O16 2.351 . S
C1 O12 1.185 . S
C1 O13 1.355 . S
C2 O4 1.185 . S
C2 O5 1.355 . S
Dy3 O7 2.310 . S
Dy3 O10 2.351 . S
Dy3 O12 2.398 . S
Dy3 O13 2.491 . S
Dy3 O14 2.403 . S
Dy3 O15 2.664 . S
Dy3 O17 2.326 . S
O4 Dy0 2.398 . S
O4 C2 1.185 . S
O5 Dy0 2.491 . S
O5 C2 1.355 . S
O6 Dy0 2.403 . S
O6 C8 1.254 . S
O7 Dy0 2.664 . S
O7 Dy3 2.310 . S
O7 C8 1.268 . S
C8 O6 1.254 . S
C8 O7 1.268 . S
C9 O14 1.254 . S
C9 O15 1.268 . S
O10 Dy3 2.351 . S
O10 C18 1.249 . S
O11 Dy0 2.326 . S
O11 C18 1.267 . S
O12 C1 1.185 . S
O12 Dy3 2.398 . S
O13 C1 1.355 . S
O13 Dy3 2.491 . S
O14 Dy3 2.403 . S
O14 C9 1.254 . S
O15 Dy0 2.310 . S
O15 Dy3 2.664 . S
O15 C9 1.268 . S
O16 Dy0 2.351 . S
O16 C19 1.249 . S
O17 Dy3 2.326 . S
O17 C19 1.267 . S
C18 O10 1.249 . S
C18 O11 1.267 . S
C19 O16 1.249 . S
C19 O17 1.267 . S
Dy20 O24 2.398 . S
Dy20 O25 2.491 . S
Dy20 O26 2.403 1_655 S
Dy20 O27 2.664 1_655 S
Dy20 O31 2.326 1_655 S
Dy20 O35 2.310 . S
Dy20 O36 2.351 . S
C21 O32 1.185 . S
C21 O33 1.355 . S
C22 O24 1.185 . S
C22 O25 1.355 . S
Dy23 O27 2.310 . S
Dy23 O30 2.351 . S
Dy23 O32 2.398 . S
Dy23 O33 2.491 . S
Dy23 O34 2.406 . S
Dy23 O35 2.664 1_455 S
Dy23 O37 2.326 . S
O24 Dy20 2.398 . S
O24 C22 1.185 . S
O25 Dy20 2.491 . S
O25 C22 1.355 . S
O26 Dy20 2.403 1_455 S
O26 C28 1.254 . S
O27 Dy20 2.664 1_455 S
O27 Dy23 2.310 . S
O27 C28 1.268 . S
C28 O26 1.254 . S
C28 O27 1.268 . S
C29 O34 1.252 1_655 S
C29 O35 1.268 . S
O30 Dy23 2.351 . S
O30 C38 1.249 . S
O31 Dy20 2.326 1_455 S
O31 C38 1.267 . S
O32 C21 1.185 . S
O32 Dy23 2.398 . S
O33 C21 1.355 . S
O33 Dy23 2.491 . S
O34 Dy23 2.406 . S
O34 C29 1.252 1_455 S
O35 Dy20 2.310 . S
O35 Dy23 2.664 1_655 S
O35 C29 1.268 . S
O36 Dy20 2.351 . S
O36 C39 1.249 . S
O37 Dy23 2.326 . S
O37 C39 1.267 1_455 S
C38 O30 1.249 . S
C38 O31 1.267 . S
C39 O36 1.249 . S
C39 O37 1.267 1_655 S
Dy40 O44 2.398 . S
Dy40 O45 2.491 . S
Dy40 O46 2.403 1_554 S
Dy40 O47 2.664 1_554 S
Dy40 O51 2.326 1_554 S
Dy40 O55 2.310 . S
Dy40 O56 2.351 . S
C41 O52 1.185 . S
C41 O53 1.355 . S
C42 O44 1.185 . S
C42 O45 1.355 . S
Dy43 O47 2.310 . S
Dy43 O50 2.351 . S
Dy43 O52 2.398 . S
Dy43 O53 2.491 . S
Dy43 O54 2.403 . S
Dy43 O55 2.664 1_556 S
Dy43 O57 2.326 . S
O44 Dy40 2.398 . S
O44 C42 1.185 . S
O45 Dy40 2.491 . S
O45 C42 1.355 . S
O46 Dy40 2.403 1_556 S
O46 C48 1.254 . S
O47 Dy40 2.664 1_556 S
O47 Dy43 2.310 . S
O47 C48 1.268 . S
C48 O46 1.254 . S
C48 O47 1.268 . S
C49 O54 1.254 1_554 S
C49 O55 1.268 . S
O50 Dy43 2.351 . S
O50 C58 1.249 . S
O51 Dy40 2.326 1_556 S
O51 C58 1.267 . S
O52 C41 1.185 . S
O52 Dy43 2.398 . S
O53 C41 1.355 . S
O53 Dy43 2.491 . S
O54 Dy43 2.403 . S
O54 C49 1.254 1_556 S
O55 Dy40 2.310 . S
O55 Dy43 2.664 1_554 S
O55 C49 1.268 . S
O56 Dy40 2.351 . S
O56 C59 1.244 1_554 S
O57 Dy43 2.326 . S
O57 C59 1.273 . S
C58 O50 1.249 . S
C58 O51 1.267 . S
C59 O56 1.244 1_556 S
C59 O57 1.273 . S
Dy60 O64 2.398 . S
Dy60 O65 2.491 . S
Dy60 O66 2.403 . S
Dy60 O67 2.664 . S
Dy60 O71 2.326 . S
Dy60 O75 2.310 . S
Dy60 O76 2.351 . S
C61 O72 1.185 . S
C61 O73 1.355 . S
C62 O64 1.185 . S
C62 O65 1.355 . S
Dy63 O67 2.310 . S
Dy63 O70 2.351 . S
Dy63 O72 2.398 . S
Dy63 O73 2.491 . S
Dy63 O74 2.403 . S
Dy63 O75 2.664 . S
Dy63 O77 2.326 . S
O64 Dy60 2.398 . S
O64 C62 1.185 . S
O65 Dy60 2.491 . S
O65 C62 1.355 . S
O66 Dy60 2.403 . S
O66 C68 1.254 . S
O67 Dy60 2.664 . S
O67 Dy63 2.310 . S
O67 C68 1.268 . S
C68 O66 1.254 . S
C68 O67 1.268 . S
C69 O74 1.254 . S
C69 O75 1.268 . S
O70 Dy63 2.351 . S
O70 C78 1.249 . S
O71 Dy60 2.326 . S
O71 C78 1.267 . S
O72 C61 1.185 . S
O72 Dy63 2.398 . S
O73 C61 1.355 . S
O73 Dy63 2.491 . S
O74 Dy63 2.403 . S
O74 C69 1.254 . S
O75 Dy60 2.310 . S
O75 Dy63 2.664 . S
O75 C69 1.268 . S
O76 Dy60 2.351 . S
O76 C79 1.249 . S
O77 Dy63 2.326 . S
O77 C79 1.267 . S
C78 O70 1.249 . S
C78 O71 1.267 . S
C79 O76 1.249 . S
C79 O77 1.267 . S
Dy80 O84 2.398 . S
Dy80 O85 2.491 . S
Dy80 O86 2.403 . S
Dy80 O87 2.664 . S
Dy80 O91 2.326 . S
Dy80 O95 2.310 . S
Dy80 O96 2.351 . S
C81 O92 1.185 . S
C81 O93 1.355 . S
C82 O84 1.185 . S
C82 O85 1.355 . S
Dy83 O87 2.310 . S
Dy83 O90 2.351 . S
Dy83 O92 2.398 . S
Dy83 O93 2.491 . S
Dy83 O94 2.403 . S
Dy83 O95 2.664 . S
Dy83 O97 2.326 . S
O84 Dy80 2.398 . S
O84 C82 1.185 . S
O85 Dy80 2.491 . S
O85 C82 1.355 . S
O86 Dy80 2.403 . S
O86 C88 1.254 . S
O87 Dy80 2.664 . S
O87 Dy83 2.310 . S
O87 C88 1.268 . S
C88 O86 1.254 . S
C88 O87 1.268 . S
C89 O94 1.254 . S
C89 O95 1.268 . S
O90 Dy83 2.351 . S
O90 C98 1.249 . S
O91 Dy80 2.326 . S
O91 C98 1.267 . S
O92 C81 1.185 . S
O92 Dy83 2.398 . S
O93 C81 1.355 . S
O93 Dy83 2.491 . S
O94 Dy83 2.403 . S
O94 C89 1.254 . S
O95 Dy80 2.310 . S
O95 Dy83 2.664 . S
O95 C89 1.268 . S
O96 Dy80 2.351 . S
O96 C99 1.249 . S
O97 Dy83 2.326 . S
O97 C99 1.267 . S
C98 O90 1.249 . S
C98 O91 1.267 . S
C99 O96 1.249 . S
C99 O97 1.267 . S
Dy100 O104 2.398 . S
Dy100 O105 2.491 . S
Dy100 O106 2.403 . S
Dy100 O107 2.664 . S
Dy100 O111 2.326 . S
Dy100 O115 2.310 . S
Dy100 O116 2.351 1_655 S
C101 O112 1.185 . S
C101 O113 1.355 . S
C102 O104 1.185 . S
C102 O105 1.355 . S
Dy103 O107 2.310 1_455 S
Dy103 O110 2.351 1_455 S
Dy103 O112 2.398 . S
Dy103 O113 2.491 . S
Dy103 O114 2.403 . S
Dy103 O115 2.664 1_455 S
Dy103 O117 2.326 . S
O104 Dy100 2.398 . S
O104 C102 1.185 . S
O105 Dy100 2.491 . S
O105 C102 1.355 . S
O106 Dy100 2.403 . S
O106 C108 1.254 . S
O107 Dy100 2.664 . S
O107 Dy103 2.310 1_655 S
O107 C108 1.268 . S
C108 O106 1.254 . S
C108 O107 1.268 . S
C109 O114 1.254 . S
C109 O115 1.268 1_455 S
O110 Dy103 2.351 1_655 S
O110 C118 1.249 . S
O111 Dy100 2.326 . S
O111 C118 1.267 . S
O112 C101 1.185 . S
O112 Dy103 2.398 . S
O113 C101 1.355 . S
O113 Dy103 2.491 . S
O114 Dy103 2.403 . S
O114 C109 1.254 . S
O115 Dy100 2.310 . S
O115 Dy103 2.664 1_655 S
O115 C109 1.268 1_655 S
O116 Dy100 2.351 1_455 S
O116 C119 1.249 . S
O117 Dy103 2.326 . S
O117 C119 1.267 . S
C118 O110 1.249 . S
C118 O111 1.267 . S
C119 O116 1.249 . S
C119 O117 1.267 . S
Dy120 O124 2.398 . S
Dy120 O125 2.491 . S
Dy120 O126 2.403 . S
Dy120 O127 2.664 . S
Dy120 O131 2.326 . S
Dy120 O135 2.310 . S
Dy120 O136 2.329 1_554 S
C121 O132 1.185 . S
C121 O133 1.355 . S
C122 O124 1.185 . S
C122 O125 1.355 . S
Dy123 O127 2.310 1_556 S
Dy123 O130 2.351 1_556 S
Dy123 O132 2.398 . S
Dy123 O133 2.491 . S
Dy123 O134 2.403 . S
Dy123 O135 2.664 1_556 S
Dy123 O137 2.326 . S
O124 Dy120 2.398 . S
O124 C122 1.185 . S
O125 Dy120 2.491 . S
O125 C122 1.355 . S
O126 Dy120 2.403 . S
O126 C128 1.254 . S
O127 Dy120 2.664 . S
O127 Dy123 2.310 1_554 S
O127 C128 1.268 . S
C128 O126 1.254 . S
C128 O127 1.268 . S
C129 O134 1.254 . S
C129 O135 1.268 1_556 S
O130 Dy123 2.351 1_554 S
O130 C138 1.249 . S
O131 Dy120 2.326 . S
O131 C138 1.267 . S
O132 C121 1.185 . S
O132 Dy123 2.398 . S
O133 C121 1.355 . S
O133 Dy123 2.491 . S
O134 Dy123 2.403 . S
O134 C129 1.254 . S
O135 Dy120 2.310 . S
O135 Dy123 2.664 1_554 S
O135 C129 1.268 1_554 S
O136 Dy120 2.329 1_556 S
O136 C139 1.271 . S
O137 Dy123 2.326 . S
O137 C139 1.267 . S
C138 O130 1.249 . S
C138 O131 1.267 . S
C139 O136 1.271 . S
C139 O137 1.267 . S
Dy140 O144 2.398 . S
Dy140 O145 2.491 . S
Dy140 O146 2.403 . S
Dy140 O147 2.664 . S
Dy140 O151 2.326 . S
Dy140 O155 2.310 . S
Dy140 O156 2.351 . S
C141 O152 1.185 . S
C141 O153 1.355 . S
C142 O144 1.185 . S
C142 O145 1.355 . S
Dy143 O147 2.310 . S
Dy143 O150 2.351 . S
Dy143 O152 2.398 . S
Dy143 O153 2.491 . S
Dy143 O154 2.403 . S
Dy143 O155 2.664 . S
Dy143 O157 2.326 . S
O144 Dy140 2.398 . S
O144 C142 1.185 . S
O145 Dy140 2.491 . S
O145 C142 1.355 . S
O146 Dy140 2.403 . S
O146 C148 1.254 . S
O147 Dy140 2.664 . S
O147 Dy143 2.310 . S
O147 C148 1.268 . S
C148 O146 1.254 . S
C148 O147 1.268 . S
C149 O154 1.254 . S
C149 O155 1.268 . S
O150 Dy143 2.351 . S
O150 C158 1.249 . S
O151 Dy140 2.326 . S
O151 C158 1.267 . S
O152 C141 1.185 . S
O152 Dy143 2.398 . S
O153 C141 1.355 . S
O153 Dy143 2.491 . S
O154 Dy143 2.403 . S
O154 C149 1.254 . S
O155 Dy140 2.310 . S
O155 Dy143 2.664 . S
O155 C149 1.268 . S
O156 Dy140 2.351 . S
O156 C159 1.249 . S
O157 Dy143 2.326 . S
O157 C159 1.267 . S
C158 O150 1.249 . S
C158 O151 1.267 . S
C159 O156 1.249 . S
C159 O157 1.267 . S
Dy160 O164 2.398 . S
Dy160 O165 2.491 . S
Dy160 O166 2.403 . S
Dy160 O167 2.664 . S
Dy160 O171 2.326 . S
Dy160 O175 2.310 . S
Dy160 O176 2.351 . S
C161 O172 1.185 . S
C161 O173 1.355 . S
C162 O164 1.185 . S
C162 O165 1.355 . S
Dy163 O167 2.310 . S
Dy163 O170 2.351 . S
Dy163 O172 2.398 . S
Dy163 O173 2.491 . S
Dy163 O174 2.403 . S
Dy163 O175 2.664 . S
Dy163 O177 2.326 . S
O164 Dy160 2.398 . S
O164 C162 1.185 . S
O165 Dy160 2.491 . S
O165 C162 1.355 . S
O166 Dy160 2.403 . S
O166 C168 1.254 . S
O167 Dy160 2.664 . S
O167 Dy163 2.310 . S
O167 C168 1.268 . S
C168 O166 1.254 . S
C168 O167 1.268 . S
C169 O174 1.254 . S
C169 O175 1.268 . S
O170 Dy163 2.351 . S
O170 C178 1.249 . S
O171 Dy160 2.326 . S
O171 C178 1.267 . S
O172 C161 1.185 . S
O172 Dy163 2.398 . S
O173 C161 1.355 . S
O173 Dy163 2.491 . S
O174 Dy163 2.403 . S
O174 C169 1.254 . S
O175 Dy160 2.310 . S
O175 Dy163 2.664 . S
O175 C169 1.268 . S
O176 Dy160 2.351 . S
O176 C179 1.249 . S
O177 Dy163 2.326 . S
O177 C179 1.267 . S
C178 O170 1.249 . S
C178 O171 1.267 . S
C179 O176 1.249 . S
C179 O177 1.267 . S
Dy180 O184 2.398 . S
Dy180 O185 2.491 . S
Dy180 O186 2.403 1_565 S
Dy180 O187 2.664 1_565 S
Dy180 O191 2.326 1_565 S
Dy180 O195 2.310 . S
Dy180 O196 2.351 . S
C181 O192 1.185 . S
C181 O193 1.355 . S
C182 O184 1.185 . S
C182 O185 1.355 . S
Dy183 O187 2.310 . S
Dy183 O190 2.351 . S
Dy183 O192 2.398 . S
Dy183 O193 2.491 . S
Dy183 O194 2.403 . S
Dy183 O195 2.664 1_545 S
Dy183 O197 2.326 . S
O184 Dy180 2.398 . S
O184 C182 1.185 . S
O185 Dy180 2.491 . S
O185 C182 1.355 . S
O186 Dy180 2.403 1_545 S
O186 C188 1.254 . S
O187 Dy180 2.664 1_545 S
O187 Dy183 2.310 . S
O187 C188 1.268 . S
C188 O186 1.254 . S
C188 O187 1.268 . S
C189 O194 1.254 1_565 S
C189 O195 1.268 . S
O190 Dy183 2.351 . S
O190 C198 1.249 . S
O191 Dy180 2.326 1_545 S
O191 C198 1.267 . S
O192 C181 1.185 . S
O192 Dy183 2.398 . S
O193 C181 1.355 . S
O193 Dy183 2.491 . S
O194 Dy183 2.403 . S
O194 C189 1.254 1_545 S
O195 Dy180 2.310 . S
O195 Dy183 2.664 1_565 S
O195 C189 1.268 . S
O196 Dy180 2.351 . S
O196 C199 1.249 . S
O197 Dy183 2.326 . S
O197 C199 1.267 1_545 S
C198 O190 1.249 . S
C198 O191 1.267 . S
C199 O196 1.249 . S
C199 O197 1.267 1_565 S
Dy200 O204 2.398 . S
Dy200 O205 2.491 . S
Dy200 O206 2.403 . S
Dy200 O207 2.664 . S
Dy200 O211 2.326 . S
Dy200 O215 2.310 . S
Dy200 O216 2.351 1_565 S
C201 O212 1.185 . S
C201 O213 1.355 . S
C202 O204 1.185 . S
C202 O205 1.355 . S
Dy203 O207 2.310 1_545 S
Dy203 O210 2.351 1_545 S
Dy203 O212 2.398 . S
Dy203 O213 2.491 . S
Dy203 O214 2.403 . S
Dy203 O215 2.664 1_545 S
Dy203 O217 2.326 . S
O204 Dy200 2.398 . S
O204 C202 1.185 . S
O205 Dy200 2.491 . S
O205 C202 1.355 . S
O206 Dy200 2.403 . S
O206 C208 1.254 . S
O207 Dy200 2.664 . S
O207 Dy203 2.310 1_565 S
O207 C208 1.268 . S
C208 O206 1.254 . S
C208 O207 1.268 . S
C209 O214 1.254 . S
C209 O215 1.268 1_545 S
O210 Dy203 2.351 1_565 S
O210 C218 1.249 . S
O211 Dy200 2.326 . S
O211 C218 1.267 . S
O212 C201 1.185 . S
O212 Dy203 2.398 . S
O213 C201 1.355 . S
O213 Dy203 2.491 . S
O214 Dy203 2.403 . S
O214 C209 1.254 . S
O215 Dy200 2.310 . S
O215 Dy203 2.664 1_565 S
O215 C209 1.268 1_565 S
O216 Dy200 2.351 1_545 S
O216 C219 1.249 . S
O217 Dy203 2.326 . S
O217 C219 1.267 . S
C218 O210 1.249 . S
C218 O211 1.267 . S
C219 O216 1.249 . S
C219 O217 1.267 . S
Dy220 O224 2.398 . S
Dy220 O225 2.491 . S
Dy220 O226 2.403 . S
Dy220 O227 2.664 . S
Dy220 O231 2.326 . S
Dy220 O235 2.310 . S
Dy220 O236 2.351 . S
C221 O232 1.185 . S
C221 O233 1.355 . S
C222 O224 1.185 . S
C222 O225 1.355 . S
Dy223 O227 2.310 . S
Dy223 O230 2.351 . S
Dy223 O232 2.398 . S
Dy223 O233 2.491 . S
Dy223 O234 2.403 . S
Dy223 O235 2.664 . S
Dy223 O237 2.326 . S
O224 Dy220 2.398 . S
O224 C222 1.185 . S
O225 Dy220 2.491 . S
O225 C222 1.355 . S
O226 Dy220 2.403 . S
O226 C228 1.254 . S
O227 Dy220 2.664 . S
O227 Dy223 2.310 . S
O227 C228 1.268 . S
C228 O226 1.254 . S
C228 O227 1.268 . S
C229 O234 1.254 . S
C229 O235 1.268 . S
O230 Dy223 2.351 . S
O230 C238 1.249 . S
O231 Dy220 2.326 . S
O231 C238 1.267 . S
O232 C221 1.185 . S
O232 Dy223 2.398 . S
O233 C221 1.355 . S
O233 Dy223 2.491 . S
O234 Dy223 2.403 . S
O234 C229 1.254 . S
O235 Dy220 2.310 . S
O235 Dy223 2.664 . S
O235 C229 1.268 . S
O236 Dy220 2.351 . S
O236 C239 1.249 . S
O237 Dy223 2.326 . S
O237 C239 1.267 . S
C238 O230 1.249 . S
C238 O231 1.267 . S
C239 O236 1.249 . S
C239 O237 1.267 . S
C240 C241 1.363 . S
C240 C246 1.379 . S
C240 N248 1.356 . S
C241 C240 1.363 . S
C241 C247 1.363 . S
C242 C243 1.363 . S
C242 C247 1.379 . S
C242 N249 1.356 . S
C243 C242 1.363 . S
C243 C246 1.363 . S
N244 C246 1.356 . S
N244 H256 0.984 . S
N244 H257 0.985 . S
N245 C247 1.356 . S
N245 H250 0.984 . S
N245 H251 0.985 . S
C246 C240 1.379 . S
C246 C243 1.363 . S
C246 N244 1.356 . S
C247 C241 1.363 . S
C247 C242 1.379 . S
C247 N245 1.356 . S
N248 C240 1.356 . S
N248 H254 0.984 . S
N248 H255 0.984 . S
N249 C242 1.356 . S
N249 H252 0.984 . S
N249 H253 0.985 . S
H250 N245 0.984 . S
H251 N245 0.985 . S
H252 N249 0.984 . S
H253 N249 0.985 . S
H254 N248 0.984 . S
H255 N248 0.984 . S
H256 N244 0.984 . S
H257 N244 0.985 . S
C258 C259 1.363 . S
C258 C264 1.379 . S
C258 N266 1.356 . S
C259 C258 1.363 . S
C259 C265 1.363 . S
C260 C261 1.363 . S
C260 C265 1.379 . S
C260 N267 1.356 . S
C261 C260 1.363 . S
C261 C264 1.363 . S
N262 C264 1.356 . S
N262 H274 0.984 . S
N262 H275 0.985 . S
N263 C265 1.356 . S
N263 H268 0.984 . S
N263 H269 0.985 . S
C264 C258 1.379 . S
C264 C261 1.363 . S
C264 N262 1.356 . S
C265 C259 1.363 . S
C265 C260 1.379 . S
C265 N263 1.356 . S
N266 C258 1.356 . S
N266 H272 0.984 . S
N266 H273 0.984 . S
N267 C260 1.356 . S
N267 H270 0.984 . S
N267 H271 0.985 . S
H268 N263 0.984 . S
H269 N263 0.985 . S
H270 N267 0.984 . S
H271 N267 0.985 . S
H272 N266 0.984 . S
H273 N266 0.984 . S
H274 N262 0.984 . S
H275 N262 0.985 . S
C276 C277 1.363 . S
C276 C282 1.379 . S
C276 N284 1.356 1_554 S
C277 C276 1.363 . S
C277 C283 1.363 . S
C278 C279 1.363 . S
C278 C283 1.379 . S
C278 N285 1.356 . S
C279 C278 1.363 . S
C279 C282 1.363 . S
N280 C282 1.356 . S
N280 H292 0.984 . S
N280 H293 0.985 . S
N281 C283 1.356 . S
N281 H286 0.984 . S
N281 H287 0.985 . S
C282 C276 1.379 . S
C282 C279 1.363 . S
C282 N280 1.356 . S
C283 C277 1.363 . S
C283 C278 1.379 . S
C283 N281 1.356 . S
N284 C276 1.356 1_556 S
N284 H290 0.984 . S
N284 H291 0.984 . S
N285 C278 1.356 . S
N285 H288 0.984 . S
N285 H289 0.985 . S
H286 N281 0.984 . S
H287 N281 0.985 . S
H288 N285 0.984 . S
H289 N285 0.985 . S
H290 N284 0.984 . S
H291 N284 0.984 . S
H292 N280 0.984 . S
H293 N280 0.985 . S
C294 C295 1.377 . S
C294 C300 1.377 1_545 S
C294 N302 1.347 1_545 S
C295 C294 1.377 . S
C295 C301 1.363 . S
C296 C297 1.363 . S
C296 C301 1.379 . S
C296 N303 1.356 . S
C297 C296 1.363 . S
C297 C300 1.363 1_545 S
N298 C300 1.356 . S
N298 H310 0.984 . S
N298 H311 0.985 . S
N299 C301 1.356 . S
N299 H304 0.984 . S
N299 H305 0.985 . S
C300 C294 1.377 1_565 S
C300 C297 1.363 1_565 S
C300 N298 1.356 . S
C301 C295 1.363 . S
C301 C296 1.379 . S
C301 N299 1.356 . S
N302 C294 1.347 1_565 S
N302 H308 0.984 . S
N302 H309 0.984 . S
N303 C296 1.356 . S
N303 H306 0.984 . S
N303 H307 0.985 . S
H304 N299 0.984 . S
H305 N299 0.985 . S
H306 N303 0.984 . S
H307 N303 0.985 . S
H308 N302 0.984 . S
H309 N302 0.984 . S
H310 N298 0.984 . S
H311 N298 0.985 . S
C312 C313 1.363 . S
C312 C318 1.379 . S
C312 N320 1.356 . S
C313 C312 1.363 . S
C313 C319 1.363 . S
C314 C315 1.363 . S
C314 C319 1.379 . S
C314 N321 1.356 . S
C315 C314 1.363 . S
C315 C318 1.363 . S
N316 C318 1.356 . S
N316 H328 0.984 . S
N316 H329 0.985 . S
N317 C319 1.356 . S
N317 H322 0.984 . S
N317 H323 0.985 . S
C318 C312 1.379 . S
C318 C315 1.363 . S
C318 N316 1.356 . S
C319 C313 1.363 . S
C319 C314 1.379 . S
C319 N317 1.356 . S
N320 C312 1.356 . S
N320 H326 0.984 . S
N320 H327 0.984 . S
N321 C314 1.356 . S
N321 H324 0.984 . S
N321 H325 0.985 . S
H322 N317 0.984 . S
H323 N317 0.985 . S
H324 N321 0.984 . S
H325 N321 0.985 . S
H326 N320 0.984 . S
H327 N320 0.984 . S
H328 N316 0.984 . S
H329 N316 0.985 . S
C330 C331 1.363 . S
C330 C336 1.379 . S
C330 N338 1.356 . S
C331 C330 1.363 . S
C331 C337 1.363 . S
C332 C333 1.363 . S
C332 C337 1.379 . S
C332 N339 1.356 . S
C333 C332 1.363 . S
C333 C336 1.363 . S
N334 C336 1.356 . S
N334 H346 0.984 . S
N334 H347 0.985 . S
N335 C337 1.356 . S
N335 H340 0.984 . S
N335 H341 0.985 . S
C336 C330 1.379 . S
C336 C333 1.363 . S
C336 N334 1.356 . S
C337 C331 1.363 . S
C337 C332 1.379 . S
C337 N335 1.356 . S
N338 C330 1.356 . S
N338 H344 0.984 . S
N338 H345 0.984 . S
N339 C332 1.356 . S
N339 H342 0.984 . S
N339 H343 0.985 . S
H340 N335 0.984 . S
H341 N335 0.985 . S
H342 N339 0.984 . S
H343 N339 0.985 . S
H344 N338 0.984 . S
H345 N338 0.984 . S
H346 N334 0.984 . S
H347 N334 0.985 . S
C348 C349 1.363 . S
C348 C354 1.379 . S
C348 N356 1.356 . S
C349 C348 1.363 . S
C349 C355 1.363 . S
C350 C351 1.348 1_554 S
C350 C355 1.374 1_554 S
C350 N357 1.374 . S
C351 C350 1.348 1_556 S
C351 C354 1.363 . S
N352 C354 1.356 . S
N352 H364 0.984 . S
N352 H365 0.985 . S
N353 C355 1.356 1_554 S
N353 H358 0.984 1_554 S
N353 H359 0.985 . S
C354 C348 1.379 . S
C354 C351 1.363 . S
C354 N352 1.356 . S
C355 C349 1.363 . S
C355 C350 1.374 1_556 S
C355 N353 1.356 1_556 S
N356 C348 1.356 . S
N356 H362 0.984 . S
N356 H363 0.984 . S
N357 C350 1.374 . S
N357 H360 0.984 . S
N357 H361 0.985 . S
H358 N353 0.984 1_556 S
H359 N353 0.985 . S
H360 N357 0.984 . S
H361 N357 0.985 . S
H362 N356 0.984 . S
H363 N356 0.984 . S
H364 N352 0.984 . S
H365 N352 0.985 . S
C366 C367 1.363 . S
C366 C372 1.379 . S
C366 N374 1.356 . S
C367 C366 1.363 . S
C367 C373 1.363 . S
C368 C369 1.363 . S
C368 C373 1.379 . S
C368 N375 1.356 . S
C369 C368 1.363 . S
C369 C372 1.363 . S
N370 C372 1.356 . S
N370 H382 0.984 . S
N370 H383 0.985 . S
N371 C373 1.356 . S
N371 H376 0.984 . S
N371 H377 0.985 . S
C372 C366 1.379 . S
C372 C369 1.363 . S
C372 N370 1.356 . S
C373 C367 1.363 . S
C373 C368 1.379 . S
C373 N371 1.356 . S
N374 C366 1.356 . S
N374 H380 0.984 . S
N374 H381 0.984 . S
N375 C368 1.356 . S
N375 H378 0.984 . S
N375 H379 0.985 . S
H376 N371 0.984 . S
H377 N371 0.985 . S
H378 N375 0.984 . S
H379 N375 0.985 . S
H380 N374 0.984 . S
H381 N374 0.984 . S
H382 N370 0.984 . S
H383 N370 0.985 . S
C384 C385 1.363 . S
C384 C390 1.379 . S
C384 N392 1.356 . S
C385 C384 1.363 . S
C385 C391 1.363 . S
C386 C387 1.363 . S
C386 C391 1.379 . S
C386 N393 1.356 . S
C387 C386 1.363 . S
C387 C390 1.363 . S
N388 C390 1.356 . S
N388 H400 0.984 . S
N388 H401 0.985 . S
N389 C391 1.356 . S
N389 H394 0.984 . S
N389 H395 0.985 . S
C390 C384 1.379 . S
C390 C387 1.363 . S
C390 N388 1.356 . S
C391 C385 1.363 . S
C391 C386 1.379 . S
C391 N389 1.356 . S
N392 C384 1.356 . S
N392 H398 0.984 . S
N392 H399 0.984 . S
N393 C386 1.356 . S
N393 H396 0.984 . S
N393 H397 0.985 . S
H394 N389 0.984 . S
H395 N389 0.985 . S
H396 N393 0.984 . S
H397 N393 0.985 . S
H398 N392 0.984 . S
H399 N392 0.984 . S
H400 N388 0.984 . S
H401 N388 0.985 . S
C402 C403 1.363 . S
C402 C408 1.379 . S
C402 N410 1.356 . S
C403 C402 1.363 . S
C403 C409 1.363 . S
C404 C405 1.363 . S
C404 C409 1.379 . S
C404 N411 1.356 1_455 S
C405 C404 1.363 . S
C405 C408 1.363 . S
N406 C408 1.356 . S
N406 H418 0.984 . S
N406 H419 0.985 . S
N407 C409 1.356 1_655 S
N407 H412 0.984 1_655 S
N407 H413 0.985 . S
C408 C402 1.379 . S
C408 C405 1.363 . S
C408 N406 1.356 . S
C409 C403 1.363 . S
C409 C404 1.379 . S
C409 N407 1.356 1_455 S
N410 C402 1.356 . S
N410 H416 0.984 . S
N410 H417 0.984 . S
N411 C404 1.356 1_655 S
N411 H414 0.984 . S
N411 H415 0.985 . S
H412 N407 0.984 1_455 S
H413 N407 0.985 . S
H414 N411 0.984 . S
H415 N411 0.985 . S
H416 N410 0.984 . S
H417 N410 0.984 . S
H418 N406 0.984 . S
H419 N406 0.985 . S
C420 C421 1.363 1_455 S
C420 C426 1.379 1_455 S
C420 N428 1.356 . S
C421 C420 1.363 1_655 S
C421 C427 1.363 . S
C422 C423 1.363 . S
C422 C427 1.379 . S
C422 N429 1.356 . S
C423 C422 1.363 . S
C423 C426 1.363 . S
N424 C426 1.356 1_455 S
N424 H436 0.984 . S
N424 H437 0.985 1_455 S
N425 C427 1.356 . S
N425 H430 0.984 . S
N425 H431 0.985 . S
C426 C420 1.379 1_655 S
C426 C423 1.363 . S
C426 N424 1.356 1_655 S
C427 C421 1.363 . S
C427 C422 1.379 . S
C427 N425 1.356 . S
N428 C420 1.356 . S
N428 H434 0.984 . S
N428 H435 0.984 . S
N429 C422 1.356 . S
N429 H432 0.984 . S
N429 H433 0.985 . S
H430 N425 0.984 . S
H431 N425 0.985 . S
H432 N429 0.984 . S
H433 N429 0.985 . S
H434 N428 0.984 . S
H435 N428 0.984 . S
H436 N424 0.984 . S
H437 N424 0.985 1_655 S
C438 C439 1.363 . S
C438 C444 1.379 . S
C438 N446 1.356 . S
C439 C438 1.363 . S
C439 C445 1.363 . S
C440 C441 1.363 . S
C440 C445 1.379 . S
C440 N447 1.356 . S
C441 C440 1.363 . S
C441 C444 1.363 . S
N442 C444 1.356 . S
N442 H454 0.984 . S
N442 H455 0.985 . S
N443 C445 1.356 . S
N443 H448 0.984 . S
N443 H449 0.985 . S
C444 C438 1.379 . S
C444 C441 1.363 . S
C444 N442 1.356 . S
C445 C439 1.363 . S
C445 C440 1.379 . S
C445 N443 1.356 . S
N446 C438 1.356 . S
N446 H452 0.984 . S
N446 H453 0.984 . S
N447 C440 1.356 . S
N447 H450 0.984 . S
N447 H451 0.985 . S
H448 N443 0.984 . S
H449 N443 0.985 . S
H450 N447 0.984 . S
H451 N447 0.985 . S
H452 N446 0.984 . S
H453 N446 0.984 . S
H454 N442 0.984 . S
H455 N442 0.985 . S
C456 C457 1.363 . S
C456 C462 1.379 . S
C456 N464 1.356 . S
C457 C456 1.363 . S
C457 C463 1.363 . S
C458 C459 1.363 . S
C458 C463 1.379 . S
C458 N465 1.356 . S
C459 C458 1.363 . S
C459 C462 1.363 . S
N460 C462 1.356 . S
N460 H472 0.984 . S
N460 H473 0.985 . S
N461 C463 1.356 . S
N461 H466 0.984 . S
N461 H467 0.985 . S
C462 C456 1.379 . S
C462 C459 1.363 . S
C462 N460 1.356 . S
C463 C457 1.363 . S
C463 C458 1.379 . S
C463 N461 1.356 . S
N464 C456 1.356 . S
N464 H470 0.984 . S
N464 H471 0.984 . S
N465 C458 1.356 . S
N465 H468 0.984 . S
N465 H469 0.985 . S
H466 N461 0.984 . S
H467 N461 0.985 . S
H468 N465 0.984 . S
H469 N465 0.985 . S
H470 N464 0.984 . S
H471 N464 0.984 . S
H472 N460 0.984 . S
H473 N460 0.985 . S
C474 C475 1.363 . S
C474 C480 1.379 . S
C474 N482 1.356 . S
C475 C474 1.363 . S
C475 C481 1.363 . S
C476 C477 1.363 . S
C476 C481 1.379 . S
C476 N483 1.356 . S
C477 C476 1.363 . S
C477 C480 1.363 . S
N478 C480 1.356 . S
N478 H490 0.984 . S
N478 H491 0.985 . S
N479 C481 1.356 . S
N479 H484 0.984 . S
N479 H485 0.985 . S
C480 C474 1.379 . S
C480 C477 1.363 . S
C480 N478 1.356 . S
C481 C475 1.363 . S
C481 C476 1.379 . S
C481 N479 1.356 . S
N482 C474 1.356 . S
N482 H488 0.984 . S
N482 H489 0.984 . S
N483 C476 1.356 . S
N483 H486 0.984 . S
N483 H487 0.985 . S
H484 N479 0.984 . S
H485 N479 0.985 . S
H486 N483 0.984 . S
H487 N483 0.985 . S
H488 N482 0.984 . S
H489 N482 0.984 . S
H490 N478 0.984 . S
H491 N478 0.985 . S
C492 C493 1.363 . S
C492 C498 1.379 . S
C492 N500 1.356 . S
C493 C492 1.363 . S
C493 C499 1.363 . S
C494 C495 1.363 . S
C494 C499 1.379 . S
C494 N501 1.356 . S
C495 C494 1.363 . S
C495 C498 1.363 . S
N496 C498 1.356 . S
N496 H508 0.984 . S
N496 H509 0.985 . S
N497 C499 1.356 . S
N497 H502 0.984 . S
N497 H503 0.985 . S
C498 C492 1.379 . S
C498 C495 1.363 . S
C498 N496 1.356 . S
C499 C493 1.363 . S
C499 C494 1.379 . S
C499 N497 1.356 . S
N500 C492 1.356 . S
N500 H506 0.984 . S
N500 H507 0.984 . S
N501 C494 1.356 . S
N501 H504 0.984 . S
N501 H505 0.985 . S
H502 N497 0.984 . S
H503 N497 0.985 . S
H504 N501 0.984 . S
H505 N501 0.985 . S
H506 N500 0.984 . S
H507 N500 0.984 . S
H508 N496 0.984 . S
H509 N496 0.985 . S
C510 C511 1.363 . S
C510 C516 1.379 1_554 S
C510 N518 1.356 . S
C511 C510 1.363 . S
C511 C517 1.363 . S
C512 C513 1.363 1_554 S
C512 C517 1.379 . S
C512 N519 1.360 1_545 S
C513 C512 1.363 1_556 S
C513 C516 1.363 . S
N514 C516 1.356 . S
N514 H526 0.984 . S
N514 H527 0.985 . S
N515 C517 1.356 . S
N515 H520 0.984 . S
N515 H521 0.985 . S
C516 C510 1.379 1_556 S
C516 C513 1.363 . S
C516 N514 1.356 . S
C517 C511 1.363 . S
C517 C512 1.379 . S
C517 N515 1.356 . S
N518 C510 1.356 . S
N518 H524 0.984 1_554 S
N518 H525 0.984 . S
N519 C512 1.360 1_565 S
N519 H522 0.972 1_554 S
N519 H523 0.994 . S
H520 N515 0.984 . S
H521 N515 0.985 . S
H522 N519 0.972 1_556 S
H523 N519 0.994 . S
H524 N518 0.984 1_556 S
H525 N518 0.984 . S
H526 N514 0.984 . S
H527 N514 0.985 . S
C528 C529 1.363 . S
C528 C534 1.379 . S
C528 N536 1.356 . S
C529 C528 1.363 . S
C529 C535 1.363 . S
C530 C531 1.363 . S
C530 C535 1.379 . S
C530 N537 1.356 . S
C531 C530 1.363 . S
C531 C534 1.363 . S
N532 C534 1.356 . S
N532 H544 0.984 . S
N532 H545 0.985 . S
N533 C535 1.356 . S
N533 H538 0.984 . S
N533 H539 0.985 . S
C534 C528 1.379 . S
C534 C531 1.363 . S
C534 N532 1.356 . S
C535 C529 1.363 . S
C535 C530 1.379 . S
C535 N533 1.356 . S
N536 C528 1.356 . S
N536 H542 0.984 . S
N536 H543 0.984 . S
N537 C530 1.356 . S
N537 H540 0.984 . S
N537 H541 0.985 . S
H538 N533 0.984 . S
H539 N533 0.985 . S
H540 N537 0.984 . S
H541 N537 0.985 . S
H542 N536 0.984 . S
H543 N536 0.984 . S
H544 N532 0.984 . S
H545 N532 0.985 . S
C546 C547 1.363 1_556 S
C546 C552 1.379 . S
C546 N554 1.356 1_556 S
C547 C546 1.363 1_554 S
C547 C553 1.363 1_554 S
C548 C549 1.363 . S
C548 C553 1.379 . S
C548 N555 1.356 . S
C549 C548 1.363 . S
C549 C552 1.363 . S
N550 C552 1.356 . S
N550 H562 0.984 . S
N550 H563 0.985 . S
N551 C553 1.356 1_554 S
N551 H556 0.984 . S
N551 H557 0.985 . S
C552 C546 1.379 . S
C552 C549 1.363 . S
C552 N550 1.356 . S
C553 C547 1.363 1_556 S
C553 C548 1.379 . S
C553 N551 1.356 1_556 S
N554 C546 1.356 1_554 S
N554 H560 0.984 . S
N554 H561 0.984 . S
N555 C548 1.356 . S
N555 H558 0.984 . S
N555 H559 0.985 . S
H556 N551 0.984 . S
H557 N551 0.985 . S
H558 N555 0.984 . S
H559 N555 0.985 . S
H560 N554 0.984 . S
H561 N554 0.984 . S
H562 N550 0.984 . S
H563 N550 0.985 . S
C564 C565 1.363 . S
C564 C570 1.379 . S
C564 N572 1.356 . S
C565 C564 1.363 . S
C565 C571 1.363 . S
C566 C567 1.363 . S
C566 C571 1.379 . S
C566 N573 1.356 . S
C567 C566 1.363 . S
C567 C570 1.363 . S
N568 C570 1.356 . S
N568 H580 0.984 . S
N568 H581 0.985 . S
N569 C571 1.356 . S
N569 H574 0.984 . S
N569 H575 0.985 . S
C570 C564 1.379 . S
C570 C567 1.363 . S
C570 N568 1.356 . S
C571 C565 1.363 . S
C571 C566 1.379 . S
C571 N569 1.356 . S
N572 C564 1.356 . S
N572 H578 0.984 . S
N572 H579 0.984 . S
N573 C566 1.356 . S
N573 H576 0.984 . S
N573 H577 0.985 . S
H574 N569 0.984 . S
H575 N569 0.985 . S
H576 N573 0.984 . S
H577 N573 0.985 . S
H578 N572 0.984 . S
H579 N572 0.984 . S
H580 N568 0.984 . S
H581 N568 0.985 . S
C582 C583 1.363 . S
C582 C588 1.379 . S
C582 N590 1.356 . S
C583 C582 1.363 . S
C583 C589 1.363 . S
C584 C585 1.363 . S
C584 C589 1.379 . S
C584 N591 1.356 . S
C585 C584 1.363 . S
C585 C588 1.363 . S
N586 C588 1.356 . S
N586 H598 0.984 . S
N586 H599 0.985 . S
N587 C589 1.356 . S
N587 H592 0.984 . S
N587 H593 0.985 . S
C588 C582 1.379 . S
C588 C585 1.363 . S
C588 N586 1.356 . S
C589 C583 1.363 . S
C589 C584 1.379 . S
C589 N587 1.356 . S
N590 C582 1.356 . S
N590 H596 0.984 . S
N590 H597 0.984 . S
N591 C584 1.356 . S
N591 H594 0.984 . S
N591 H595 0.985 . S
H592 N587 0.984 . S
H593 N587 0.985 . S
H594 N591 0.984 . S
H595 N591 0.985 . S
H596 N590 0.984 . S
H597 N590 0.984 . S
H598 N586 0.984 . S
H599 N586 0.985 . S
C600 C601 1.363 . S
C600 C606 1.379 . S
C600 N608 1.356 . S
C601 C600 1.363 . S
C601 C607 1.363 . S
C602 C603 1.363 . S
C602 C607 1.379 . S
C602 N609 1.356 . S
C603 C602 1.363 . S
C603 C606 1.363 . S
N604 C606 1.356 . S
N604 H616 0.984 . S
N604 H617 0.985 . S
N605 C607 1.356 . S
N605 H610 0.984 . S
N605 H611 0.985 . S
C606 C600 1.379 . S
C606 C603 1.363 . S
C606 N604 1.356 . S
C607 C601 1.363 . S
C607 C602 1.379 . S
C607 N605 1.356 . S
N608 C600 1.356 . S
N608 H614 0.984 . S
N608 H615 0.984 . S
N609 C602 1.356 . S
N609 H612 0.984 . S
N609 H613 0.985 . S
H610 N605 0.984 . S
H611 N605 0.985 . S
H612 N609 0.984 . S
H613 N609 0.985 . S
H614 N608 0.984 . S
H615 N608 0.984 . S
H616 N604 0.984 . S
H617 N604 0.985 . S
C618 C619 1.363 . S
C618 C624 1.379 . S
C618 N626 1.356 . S
C619 C618 1.363 . S
C619 C625 1.363 . S
C620 C621 1.363 . S
C620 C625 1.379 1_565 S
C620 N627 1.356 . S
C621 C620 1.363 . S
C621 C624 1.363 1_565 S
N622 C624 1.362 1_655 S
N622 H634 0.992 . S
N622 H635 0.971 1_545 S
N623 C625 1.356 . S
N623 H628 0.984 . S
N623 H629 0.985 . S
C624 C618 1.379 . S
C624 C621 1.363 1_545 S
C624 N622 1.362 1_455 S
C625 C619 1.363 . S
C625 C620 1.379 1_545 S
C625 N623 1.356 . S
N626 C618 1.356 . S
N626 H632 0.984 1_455 S
N626 H633 0.984 . S
N627 C620 1.356 . S
N627 H630 0.984 . S
N627 H631 0.985 . S
H628 N623 0.984 . S
H629 N623 0.985 . S
H630 N627 0.984 . S
H631 N627 0.985 . S
H632 N626 0.984 1_655 S
H633 N626 0.984 . S
H634 N622 0.992 . S
H635 N622 0.971 1_565 S
C636 C637 1.363 . S
C636 C642 1.379 . S
C636 N644 1.356 . S
C637 C636 1.363 . S
C637 C643 1.363 . S
C638 C639 1.363 . S
C638 C643 1.379 . S
C638 N645 1.356 . S
C639 C638 1.363 . S
C639 C642 1.363 . S
N640 C642 1.356 . S
N640 H652 0.984 . S
N640 H653 0.985 . S
N641 C643 1.356 . S
N641 H646 0.984 . S
N641 H647 0.985 . S
C642 C636 1.379 . S
C642 C639 1.363 . S
C642 N640 1.356 . S
C643 C637 1.363 . S
C643 C638 1.379 . S
C643 N641 1.356 . S
N644 C636 1.356 . S
N644 H650 0.984 . S
N644 H651 0.984 . S
N645 C638 1.356 . S
N645 H648 0.984 . S
N645 H649 0.985 . S
H646 N641 0.984 . S
H647 N641 0.985 . S
H648 N645 0.984 . S
H649 N645 0.985 . S
H650 N644 0.984 . S
H651 N644 0.984 . S
H652 N640 0.984 . S
H653 N640 0.985 . S
C654 C655 1.363 1_565 S
C654 C660 1.379 . S
C654 N662 1.356 . S
C655 C654 1.363 1_545 S
C655 C661 1.363 . S
C656 C657 1.363 . S
C656 C661 1.379 1_565 S
C656 N663 1.356 . S
C657 C656 1.363 . S
C657 C660 1.363 . S
N658 C660 1.356 . S
N658 H670 0.984 . S
N658 H671 0.985 . S
N659 C661 1.356 . S
N659 H664 0.984 . S
N659 H665 0.985 . S
C660 C654 1.379 . S
C660 C657 1.363 . S
C660 N658 1.356 . S
C661 C655 1.363 . S
C661 C656 1.379 1_545 S
C661 N659 1.356 . S
N662 C654 1.356 . S
N662 H668 0.984 . S
N662 H669 0.984 1_565 S
N663 C656 1.356 . S
N663 H666 0.984 . S
N663 H667 0.996 1_554 S
H664 N659 0.984 . S
H665 N659 0.985 . S
H666 N663 0.984 . S
H667 N663 0.996 1_556 S
H668 N662 0.984 . S
H669 N662 0.984 1_545 S
H670 N658 0.984 . S
H671 N658 0.985 . S
C672 C673 1.363 . S
C672 C678 1.379 . S
C672 N680 1.356 . S
C673 C672 1.363 . S
C673 C679 1.363 . S
C674 C675 1.363 . S
C674 C679 1.379 . S
C674 N681 1.356 . S
C675 C674 1.363 . S
C675 C678 1.363 . S
N676 C678 1.356 . S
N676 H688 0.984 . S
N676 H689 0.985 . S
N677 C679 1.356 . S
N677 H682 0.984 . S
N677 H683 0.985 . S
C678 C672 1.379 . S
C678 C675 1.363 . S
C678 N676 1.356 . S
C679 C673 1.363 . S
C679 C674 1.379 . S
C679 N677 1.356 . S
N680 C672 1.356 . S
N680 H686 0.984 . S
N680 H687 0.984 . S
N681 C674 1.356 . S
N681 H684 0.984 . S
N681 H685 0.985 . S
H682 N677 0.984 . S
H683 N677 0.985 . S
H684 N681 0.984 . S
H685 N681 0.985 . S
H686 N680 0.984 . S
H687 N680 0.984 . S
H688 N676 0.984 . S
H689 N676 0.985 . S
C690 C691 1.363 . S
C690 C696 1.379 . S
C690 N698 1.356 . S
C691 C690 1.363 . S
C691 C697 1.363 . S
C692 C693 1.363 . S
C692 C697 1.379 . S
C692 N699 1.356 . S
C693 C692 1.363 . S
C693 C696 1.363 . S
N694 C696 1.356 . S
N694 H706 0.984 . S
N694 H707 0.985 . S
N695 C697 1.356 . S
N695 H700 0.984 . S
N695 H701 0.985 . S
C696 C690 1.379 . S
C696 C693 1.363 . S
C696 N694 1.356 . S
C697 C691 1.363 . S
C697 C692 1.379 . S
C697 N695 1.356 . S
N698 C690 1.356 . S
N698 H704 0.984 . S
N698 H705 0.984 . S
N699 C692 1.356 . S
N699 H702 0.984 . S
N699 H703 0.985 . S
H700 N695 0.984 . S
H701 N695 0.985 . S
H702 N699 0.984 . S
H703 N699 0.985 . S
H704 N698 0.984 . S
H705 N698 0.984 . S
H706 N694 0.984 . S
H707 N694 0.985 . S
C708 C709 1.363 . S
C708 C714 1.379 . S
C708 N716 1.356 . S
C709 C708 1.363 . S
C709 C715 1.363 . S
C710 C711 1.363 . S
C710 C715 1.379 . S
C710 N717 1.356 . S
C711 C710 1.363 . S
C711 C714 1.363 . S
N712 C714 1.356 . S
N712 H724 0.984 . S
N712 H725 0.985 . S
N713 C715 1.356 . S
N713 H718 0.984 . S
N713 H719 0.985 . S
C714 C708 1.379 . S
C714 C711 1.363 . S
C714 N712 1.356 . S
C715 C709 1.363 . S
C715 C710 1.379 . S
C715 N713 1.356 . S
N716 C708 1.356 . S
N716 H722 0.984 . S
N716 H723 0.984 . S
N717 C710 1.356 . S
N717 H720 0.984 . S
N717 H721 0.985 . S
H718 N713 0.984 . S
H719 N713 0.985 . S
H720 N717 0.984 . S
H721 N717 0.985 . S
H722 N716 0.984 . S
H723 N716 0.984 . S
H724 N712 0.984 . S
H725 N712 0.985 . S
C726 C727 1.363 . S
C726 C732 1.379 . S
C726 N734 1.356 . S
C727 C726 1.363 . S
C727 C733 1.363 . S
C728 C729 1.363 . S
C728 C733 1.379 . S
C728 N735 1.356 . S
C729 C728 1.363 . S
C729 C732 1.363 . S
N730 C732 1.356 . S
N730 H742 0.984 . S
N730 H743 0.985 . S
N731 C733 1.356 . S
N731 H736 0.984 . S
N731 H737 0.985 . S
C732 C726 1.379 . S
C732 C729 1.363 . S
C732 N730 1.356 . S
C733 C727 1.363 . S
C733 C728 1.379 . S
C733 N731 1.356 . S
N734 C726 1.356 . S
N734 H740 0.984 . S
N734 H741 0.984 . S
N735 C728 1.356 . S
N735 H738 0.984 . S
N735 H739 0.985 . S
H736 N731 0.984 . S
H737 N731 0.985 . S
H738 N735 0.984 . S
H739 N735 0.985 . S
H740 N734 0.984 . S
H741 N734 0.984 . S
H742 N730 0.984 . S
H743 N730 0.985 . S
C744 C745 1.363 . S
C744 C750 1.379 . S
C744 N752 1.356 . S
C745 C744 1.363 . S
C745 C751 1.363 . S
C746 C747 1.363 . S
C746 C751 1.379 . S
C746 N753 1.356 . S
C747 C746 1.363 . S
C747 C750 1.363 . S
N748 C750 1.356 . S
N748 H760 0.984 . S
N748 H761 0.985 . S
N749 C751 1.356 . S
N749 H754 0.984 . S
N749 H755 0.985 . S
C750 C744 1.379 . S
C750 C747 1.363 . S
C750 N748 1.356 . S
C751 C745 1.363 . S
C751 C746 1.379 . S
C751 N749 1.356 . S
N752 C744 1.356 . S
N752 H758 0.984 . S
N752 H759 0.984 . S
N753 C746 1.356 . S
N753 H756 0.984 . S
N753 H757 0.985 . S
H754 N749 0.984 . S
H755 N749 0.985 . S
H756 N753 0.984 . S
H757 N753 0.985 . S
H758 N752 0.984 . S
H759 N752 0.984 . S
H760 N748 0.984 . S
H761 N748 0.985 . S
C762 C763 1.363 . S
C762 C768 1.379 . S
C762 N770 1.356 . S
C763 C762 1.363 . S
C763 C769 1.363 . S
C764 C765 1.363 . S
C764 C769 1.379 . S
C764 N771 1.356 . S
C765 C764 1.363 . S
C765 C768 1.363 . S
N766 C768 1.356 . S
N766 H778 0.984 . S
N766 H779 0.985 . S
N767 C769 1.356 . S
N767 H772 0.984 . S
N767 H773 0.985 . S
C768 C762 1.379 . S
C768 C765 1.363 . S
C768 N766 1.356 . S
C769 C763 1.363 . S
C769 C764 1.379 . S
C769 N767 1.356 . S
N770 C762 1.356 . S
N770 H776 0.984 . S
N770 H777 0.984 . S
N771 C764 1.356 . S
N771 H774 0.984 . S
N771 H775 0.985 . S
H772 N767 0.984 . S
H773 N767 0.985 . S
H774 N771 0.984 . S
H775 N771 0.985 . S
H776 N770 0.984 . S
H777 N770 0.984 . S
H778 N766 0.984 . S
H779 N766 0.985 . S
C780 C781 1.363 . S
C780 C786 1.379 . S
C780 N788 1.356 . S
C781 C780 1.363 . S
C781 C787 1.363 . S
C782 C783 1.363 1_455 S
C782 C787 1.379 . S
C782 N789 1.356 1_455 S
C783 C782 1.363 1_655 S
C783 C786 1.363 1_655 S
N784 C786 1.356 1_655 S
N784 H796 0.984 1_654 S
N784 H797 0.985 . S
N785 C787 1.356 . S
N785 H790 0.984 . S
N785 H791 0.985 . S
C786 C780 1.379 . S
C786 C783 1.363 1_455 S
C786 N784 1.356 1_455 S
C787 C781 1.363 . S
C787 C782 1.379 . S
C787 N785 1.356 . S
N788 C780 1.356 . S
N788 H794 0.984 . S
N788 H795 0.984 . S
N789 C782 1.356 1_655 S
N789 H792 0.984 . S
N789 H793 0.985 . S
H790 N785 0.984 . S
H791 N785 0.985 . S
H792 N789 0.984 . S
H793 N789 0.985 . S
H794 N788 0.984 . S
H795 N788 0.984 . S
H796 N784 0.984 1_456 S
H797 N784 0.985 . S
C798 C799 1.363 . S
C798 C804 1.379 . S
C798 N806 1.356 . S
C799 C798 1.363 . S
C799 C805 1.363 . S
C800 C801 1.363 . S
C800 C805 1.379 . S
C800 N807 1.356 . S
C801 C800 1.363 . S
C801 C804 1.363 . S
N802 C804 1.356 . S
N802 H814 0.984 . S
N802 H815 0.985 . S
N803 C805 1.356 . S
N803 H808 0.984 . S
N803 H809 0.985 . S
C804 C798 1.379 . S
C804 C801 1.363 . S
C804 N802 1.356 . S
C805 C799 1.363 . S
C805 C800 1.379 . S
C805 N803 1.356 . S
N806 C798 1.356 . S
N806 H812 0.984 . S
N806 H813 0.984 . S
N807 C800 1.356 . S
N807 H810 0.984 . S
N807 H811 0.985 . S
H808 N803 0.984 . S
H809 N803 0.985 . S
H810 N807 0.984 . S
H811 N807 0.985 . S
H812 N806 0.984 . S
H813 N806 0.984 . S
H814 N802 0.984 . S
H815 N802 0.985 . S
C816 C817 1.363 . S
C816 C822 1.379 . S
C816 N824 1.356 . S
C817 C816 1.363 . S
C817 C823 1.363 . S
C818 C819 1.363 . S
C818 C823 1.379 . S
C818 N825 1.356 . S
C819 C818 1.363 . S
C819 C822 1.363 . S
N820 C822 1.356 . S
N820 H832 0.984 . S
N820 H833 0.985 . S
N821 C823 1.356 . S
N821 H826 0.984 . S
N821 H827 0.985 . S
C822 C816 1.379 . S
C822 C819 1.363 . S
C822 N820 1.356 . S
C823 C817 1.363 . S
C823 C818 1.379 . S
C823 N821 1.356 . S
N824 C816 1.356 . S
N824 H830 0.984 . S
N824 H831 0.984 . S
N825 C818 1.356 . S
N825 H828 0.984 . S
N825 H829 0.985 . S
H826 N821 0.984 . S
H827 N821 0.985 . S
H828 N825 0.984 . S
H829 N825 0.985 . S
H830 N824 0.984 . S
H831 N824 0.984 . S
H832 N820 0.984 . S
H833 N820 0.985 . S
C834 C835 1.363 . S
C834 C840 1.379 . S
C834 N842 1.356 . S
C835 C834 1.363 . S
C835 C841 1.363 . S
C836 C837 1.363 . S
C836 C841 1.379 . S
C836 N843 1.356 . S
C837 C836 1.363 . S
C837 C840 1.363 . S
N838 C840 1.356 . S
N838 H850 0.984 . S
N838 H851 0.985 . S
N839 C841 1.356 . S
N839 H844 0.984 . S
N839 H845 0.985 . S
C840 C834 1.379 . S
C840 C837 1.363 . S
C840 N838 1.356 . S
C841 C835 1.363 . S
C841 C836 1.379 . S
C841 N839 1.356 . S
N842 C834 1.356 . S
N842 H848 0.984 . S
N842 H849 0.984 . S
N843 C836 1.356 . S
N843 H846 0.984 . S
N843 H847 0.985 . S
H844 N839 0.984 . S
H845 N839 0.985 . S
H846 N843 0.984 . S
H847 N843 0.985 . S
H848 N842 0.984 . S
H849 N842 0.984 . S
H850 N838 0.984 . S
H851 N838 0.985 . S
C852 C853 1.363 . S
C852 C858 1.379 . S
C852 N860 1.356 . S
C853 C852 1.363 . S
C853 C859 1.363 . S
C854 C855 1.363 . S
C854 C859 1.379 . S
C854 N861 1.356 . S
C855 C854 1.363 . S
C855 C858 1.363 . S
N856 C858 1.356 . S
N856 H868 0.984 . S
N856 H869 0.985 . S
N857 C859 1.356 . S
N857 H862 0.984 . S
N857 H863 0.985 1_556 S
C858 C852 1.379 . S
C858 C855 1.363 . S
C858 N856 1.356 . S
C859 C853 1.363 . S
C859 C854 1.379 . S
C859 N857 1.356 . S
N860 C852 1.356 . S
N860 H866 0.984 . S
N860 H867 0.984 . S
N861 C854 1.356 . S
N861 H864 0.984 . S
N861 H865 0.985 . S
H862 N857 0.984 . S
H863 N857 0.985 1_554 S
H864 N861 0.984 . S
H865 N861 0.985 . S
H866 N860 0.984 . S
H867 N860 0.984 . S
H868 N856 0.984 . S
H869 N856 0.985 . S
C870 C871 1.363 . S
C870 C876 1.379 . S
C870 N878 1.356 . S
C871 C870 1.363 . S
C871 C877 1.363 . S
C872 C873 1.363 1_655 S
C872 C877 1.379 . S
C872 N879 1.356 1_655 S
C873 C872 1.363 1_455 S
C873 C876 1.363 1_455 S
N874 C876 1.356 1_455 S
N874 H886 0.984 . S
N874 H887 0.985 . S
N875 C877 1.356 . S
N875 H880 0.984 . S
N875 H881 0.985 . S
C876 C870 1.379 . S
C876 C873 1.363 1_655 S
C876 N874 1.356 1_655 S
C877 C871 1.363 . S
C877 C872 1.379 . S
C877 N875 1.356 . S
N878 C870 1.356 . S
N878 H884 0.984 . S
N878 H885 0.984 . S
N879 C872 1.356 1_455 S
N879 H882 0.984 . S
N879 H883 0.985 . S
H880 N875 0.984 . S
H881 N875 0.985 . S
H882 N879 0.984 . S
H883 N879 0.985 . S
H884 N878 0.984 . S
H885 N878 0.984 . S
H886 N874 0.984 . S
H887 N874 0.985 . S
C241 C9 1.507 . S
C243 C229 1.512 . S
C259 C199 1.539 . S
C261 C29 1.648 . S
C277 C59 1.406 1_554 S
C279 C179 1.407 . S
C295 C69 1.918 . S
C297 C209 1.914 . S
C313 C89 1.642 . S
C315 C219 1.564 . S
C331 C119 1.363 . S
C333 C239 1.368 . S
C349 C189 1.749 . S
C351 C129 1.754 . S
C367 C159 1.544 . S
C369 C169 1.682 . S
C385 C79 1.657 . S
C387 C99 1.671 . S
C403 C19 1.585 . S
C405 C109 1.695 . S
C421 C39 1.453 . S
C423 C139 1.443 . S
C439 C149 1.800 . S
C441 C49 1.800 . S
C457 C2 1.655 . S
C459 C178 1.616 . S
C475 C22 1.565 . S
C477 C208 1.477 . S
C493 C228 1.601 . S
C495 C41 1.583 . S
C511 C62 1.457 . S
C513 C198 1.435 . S
C529 C82 1.395 . S
C531 C188 1.362 . S
C547 C168 1.405 . S
C549 C101 1.415 . S
C565 C218 1.328 . S
C567 C122 1.342 . S
C583 C238 2.107 . S
C585 C141 1.979 . S
C601 C18 1.738 . S
C603 C61 1.634 . S
C619 C1 1.644 . S
C621 C38 1.728 . S
C637 C21 1.464 . S
C639 C48 1.483 . S
C655 C78 1.409 . S
C657 C42 1.441 . S
C673 C102 1.414 . S
C675 C98 1.411 . S
C691 C108 1.631 . S
C693 C121 1.639 . S
C709 C138 1.554 . S
C711 C142 1.585 . S
C727 C81 1.298 . S
C729 C148 1.294 . S
C745 C162 0.941 . S
C747 C68 0.924 . S
C763 C118 1.463 . S
C765 C181 1.381 . S
C781 C161 1.392 . S
C783 C128 1.403 . S
C799 C202 1.574 . S
C801 C158 1.567 . S
C817 C88 1.213 . S
C819 C222 1.282 . S
C835 C221 1.532 . S
C837 C28 1.546 . S
C853 C58 1.492 . S
C855 C182 1.521 . S
C871 C201 1.548 . S
C873 C8 1.542 . S
