# Generated by pormake.
# Topology crs, (6)-cn, num edge types: 1
# Building blocks:
#     Node 0, Type 0, BuildingBlock: PAMTOO_clean_sbu_0, # of connection points: 6
#     Node 1, Type 0, BuildingBlock: PAMTOO_clean_sbu_0, # of connection points: 6
#     Node 2, Type 0, BuildingBlock: PAMTOO_clean_sbu_0, # of connection points: 6
#     Node 3, Type 0, BuildingBlock: PAMTOO_clean_sbu_0, # of connection points: 6
#     Node 4, Type 0, BuildingBlock: PAMTOO_clean_sbu_0, # of connection points: 6
#     Node 5, Type 0, BuildingBlock: PAMTOO_clean_sbu_0, # of connection points: 6
#     Node 6, Type 0, BuildingBlock: PAMTOO_clean_sbu_0, # of connection points: 6
#     Node 7, Type 0, BuildingBlock: PAMTOO_clean_sbu_0, # of connection points: 6
#     Node 8, Type 0, BuildingBlock: PAMTOO_clean_sbu_0, # of connection points: 6
#     Node 9, Type 0, BuildingBlock: PAMTOO_clean_sbu_0, # of connection points: 6
#     Node 10, Type 0, BuildingBlock: PAMTOO_clean_sbu_0, # of connection points: 6
#     Node 11, Type 0, BuildingBlock: PAMTOO_clean_sbu_0, # of connection points: 6
#     Node 12, Type 0, BuildingBlock: PAMTOO_clean_sbu_0, # of connection points: 6
#     Node 13, Type 0, BuildingBlock: PAMTOO_clean_sbu_0, # of connection points: 6
#     Node 14, Type 0, BuildingBlock: PAMTOO_clean_sbu_0, # of connection points: 6
#     Node 15, Type 0, BuildingBlock: PAMTOO_clean_sbu_0, # of connection points: 6
#     Edge 16, Type (0, 0), BuildingBlock: XIVTED_clean_linker_0, # of connection points: 2
#     Edge 17, Type (0, 0), BuildingBlock: XIVTED_clean_linker_0, # of connection points: 2
#     Edge 18, Type (0, 0), BuildingBlock: XIVTED_clean_linker_0, # of connection points: 2
#     Edge 19, Type (0, 0), BuildingBlock: XIVTED_clean_linker_0, # of connection points: 2
#     Edge 20, Type (0, 0), BuildingBlock: XIVTED_clean_linker_0, # of connection points: 2
#     Edge 21, Type (0, 0), BuildingBlock: XIVTED_clean_linker_0, # of connection points: 2
#     Edge 22, Type (0, 0), BuildingBlock: XIVTED_clean_linker_0, # of connection points: 2
#     Edge 23, Type (0, 0), BuildingBlock: XIVTED_clean_linker_0, # of connection points: 2
#     Edge 24, Type (0, 0), BuildingBlock: XIVTED_clean_linker_0, # of connection points: 2
#     Edge 25, Type (0, 0), BuildingBlock: XIVTED_clean_linker_0, # of connection points: 2
#     Edge 26, Type (0, 0), BuildingBlock: XIVTED_clean_linker_0, # of connection points: 2
#     Edge 27, Type (0, 0), BuildingBlock: XIVTED_clean_linker_0, # of connection points: 2
#     Edge 28, Type (0, 0), BuildingBlock: XIVTED_clean_linker_0, # of connection points: 2
#     Edge 29, Type (0, 0), BuildingBlock: XIVTED_clean_linker_0, # of connection points: 2
#     Edge 30, Type (0, 0), BuildingBlock: XIVTED_clean_linker_0, # of connection points: 2
#     Edge 31, Type (0, 0), BuildingBlock: XIVTED_clean_linker_0, # of connection points: 2
#     Edge 32, Type (0, 0), BuildingBlock: XIVTED_clean_linker_0, # of connection points: 2
#     Edge 33, Type (0, 0), BuildingBlock: XIVTED_clean_linker_0, # of connection points: 2
#     Edge 34, Type (0, 0), BuildingBlock: XIVTED_clean_linker_0, # of connection points: 2
#     Edge 35, Type (0, 0), BuildingBlock: XIVTED_clean_linker_0, # of connection points: 2
#     Edge 36, Type (0, 0), BuildingBlock: XIVTED_clean_linker_0, # of connection points: 2
#     Edge 37, Type (0, 0), BuildingBlock: XIVTED_clean_linker_0, # of connection points: 2
#     Edge 38, Type (0, 0), BuildingBlock: XIVTED_clean_linker_0, # of connection points: 2
#     Edge 39, Type (0, 0), BuildingBlock: XIVTED_clean_linker_0, # of connection points: 2
#     Edge 40, Type (0, 0), BuildingBlock: XIVTED_clean_linker_0, # of connection points: 2
#     Edge 41, Type (0, 0), BuildingBlock: XIVTED_clean_linker_0, # of connection points: 2
#     Edge 42, Type (0, 0), BuildingBlock: XIVTED_clean_linker_0, # of connection points: 2
#     Edge 43, Type (0, 0), BuildingBlock: XIVTED_clean_linker_0, # of connection points: 2
#     Edge 44, Type (0, 0), BuildingBlock: XIVTED_clean_linker_0, # of connection points: 2
#     Edge 45, Type (0, 0), BuildingBlock: XIVTED_clean_linker_0, # of connection points: 2
#     Edge 46, Type (0, 0), BuildingBlock: XIVTED_clean_linker_0, # of connection points: 2
#     Edge 47, Type (0, 0), BuildingBlock: XIVTED_clean_linker_0, # of connection points: 2
#     Edge 48, Type (0, 0), BuildingBlock: XIVTED_clean_linker_0, # of connection points: 2
#     Edge 49, Type (0, 0), BuildingBlock: XIVTED_clean_linker_0, # of connection points: 2
#     Edge 50, Type (0, 0), BuildingBlock: XIVTED_clean_linker_0, # of connection points: 2
#     Edge 51, Type (0, 0), BuildingBlock: XIVTED_clean_linker_0, # of connection points: 2
#     Edge 52, Type (0, 0), BuildingBlock: XIVTED_clean_linker_0, # of connection points: 2
#     Edge 53, Type (0, 0), BuildingBlock: XIVTED_clean_linker_0, # of connection points: 2
#     Edge 54, Type (0, 0), BuildingBlock: XIVTED_clean_linker_0, # of connection points: 2
#     Edge 55, Type (0, 0), BuildingBlock: XIVTED_clean_linker_0, # of connection points: 2
#     Edge 56, Type (0, 0), BuildingBlock: XIVTED_clean_linker_0, # of connection points: 2
#     Edge 57, Type (0, 0), BuildingBlock: XIVTED_clean_linker_0, # of connection points: 2
#     Edge 58, Type (0, 0), BuildingBlock: XIVTED_clean_linker_0, # of connection points: 2
#     Edge 59, Type (0, 0), BuildingBlock: XIVTED_clean_linker_0, # of connection points: 2
#     Edge 60, Type (0, 0), BuildingBlock: XIVTED_clean_linker_0, # of connection points: 2
#     Edge 61, Type (0, 0), BuildingBlock: XIVTED_clean_linker_0, # of connection points: 2
#     Edge 62, Type (0, 0), BuildingBlock: XIVTED_clean_linker_0, # of connection points: 2
#     Edge 63, Type (0, 0), BuildingBlock: XIVTED_clean_linker_0, # of connection points: 2
# Relax obj value: 0.385
# Max RMSD: 0.321
# Mean RMSD: 0.273
data_MOF--net-crs--node1-PAMTOO_clean_sbu_0--edge1-XIVTED_clean_linker_0
_symmetry_space_group_name_H-M    P1
_symmetry_Int_Tables_number       1
_symmetry_cell_setting            triclinic
loop_
_symmetry_equiv_pos_as_xyz
'x, y, z'
_cell_length_a     64.100707
_cell_length_b     44.903266
_cell_length_c     44.099243
_cell_angle_alpha  89.949985
_cell_angle_beta   89.281137
_cell_angle_gamma 66.250789
loop_
_atom_site_label
_atom_site_type_symbol
_atom_site_fract_x
_atom_site_fract_y
_atom_site_fract_z
_atom_type_partial_charge
Dy0 Dy 0.98477 0.98423 0.04556 0.0
Dy1 Dy -0.00911 0.03035 0.99127 0.0
C2 C -0.01029 0.96057 0.97544 0.0
O3 O 0.02012 0.98027 0.05078 0.0
O4 O 0.02651 0.99802 1.00401 0.0
O5 O -0.00604 0.938 0.0682 0.0
O6 O 0.96729 0.98153 0.08677 0.0
O7 O -0.0037 0.05297 0.03425 0.0
O8 O 0.97678 0.03347 0.06679 0.0
O9 O 0.95337 0.04802 0.99986 0.0
O10 O 0.95261 1.0013 0.0196 0.0
O11 O 0.98393 0.07782 0.97252 0.0
O12 O 0.00408 0.03431 0.94693 0.0
C13 C 0.03378 0.98408 0.03023 0.0
O14 O -0.00589 0.95177 1.004 0.0
O15 O 0.98453 0.99083 0.96704 0.0
C16 C 0.96166 0.93378 0.09036 0.0
C17 C 0.92504 0.91483 0.09556 0.0
C18 C 0.93278 0.91993 0.06685 0.0
C19 C 0.9509 0.92945 0.06428 0.0
C20 C 0.95484 0.92707 0.11893 0.0
C21 C 0.93668 0.91752 0.12154 0.0
C22 C 0.97737 0.94993 0.08806 0.0
C23 C 0.98628 0.05393 0.06063 0.0
C24 C 0.94241 0.02962 1.00653 0.0
C25 C 0.01587 0.07694 0.94519 0.0
C26 C 0.05478 0.09026 0.93638 0.0
C27 C 0.0491 0.08255 0.96538 0.0
C28 C 0.02988 0.07582 0.96971 0.0
C29 C 0.02102 0.08549 0.91638 0.0
C30 C 0.04034 0.09223 0.91199 0.0
C31 C -0.00248 0.06572 0.94925 0.0
H32 H 0.92436 0.91755 0.04642 0.0
H33 H 0.95584 0.93486 0.04203 0.0
H34 H 0.96283 0.93075 0.13928 0.0
H35 H 0.93097 0.91397 0.14395 0.0
H36 H 0.05964 0.08139 0.98472 0.0
H37 H 0.02627 0.06892 0.99208 0.0
H38 H 0.01051 0.08601 0.89717 0.0
H39 H 0.04438 0.09786 0.88936 0.0
Dy40 Dy 0.98245 0.23541 0.29342 0.0
Dy41 Dy -0.00637 0.27985 0.24167 0.0
C42 C 0.94328 0.29997 0.26838 0.0
O43 O 0.97502 0.21793 0.24847 0.0
O44 O -0.00271 0.23403 0.21707 0.0
O45 O 0.96196 0.21097 0.31064 0.0
O46 O -0.00761 0.20698 0.33439 0.0
O47 O 0.02743 0.24583 0.25889 0.0
O48 O 0.01709 0.20526 0.27534 0.0
O49 O 0.98596 0.31013 0.2843 0.0
O50 O -0.00651 0.26971 0.31955 0.0
O51 O 0.01075 0.31013 0.22707 0.0
O52 O 0.98675 0.30213 0.19745 0.0
C53 C 0.98566 0.2161 0.22229 0.0
O54 O 0.95107 0.28142 0.29215 0.0
O55 O 0.95592 0.29744 0.24415 0.0
C56 C 0.96106 0.20811 0.36349 0.0
C57 C 0.92968 0.22356 0.41213 0.0
C58 C 0.9353 0.24782 0.39864 0.0
C59 C 0.95084 0.24016 0.37442 0.0
C60 C 0.95677 0.18348 0.37819 0.0
C61 C 0.94123 0.1911 0.40242 0.0
C62 C 0.97413 0.20089 0.335 0.0
C63 C 0.03271 0.21554 0.26692 0.0
C64 C -0.00989 0.29981 0.31244 0.0
C65 C 0.01705 0.31085 0.17444 0.0
C66 C 0.04772 0.30547 0.12649 0.0
C67 C 0.05158 0.2791 0.14614 0.0
C68 C 0.03633 0.28177 0.16998 0.0
C69 C 0.01269 0.33671 0.15431 0.0
C70 C 0.02788 0.33407 0.1305 0.0
C71 C 0.00158 0.31499 0.20029 0.0
H72 H 0.92683 0.27297 0.40583 0.0
H73 H 0.95404 0.25946 0.36327 0.0
H74 H 0.96452 0.15863 0.36991 0.0
H75 H 0.93708 0.17193 0.41205 0.0
H76 H 0.06683 0.25688 0.14386 0.0
H77 H 0.03984 0.26151 0.18532 0.0
H78 H -0.00227 0.35921 0.15736 0.0
H79 H 0.02429 0.35463 0.11551 0.0
Dy80 Dy 0.73512 0.23903 0.48139 0.0
Dy81 Dy 0.73577 0.28739 0.53667 0.0
C82 C 0.6897 0.28193 0.51703 0.0
O83 O 0.72534 0.28877 0.46038 0.0
O84 O 0.74139 0.31147 0.4945 0.0
O85 O 0.71996 0.23187 0.4403 0.0
O86 O 0.74995 0.19276 0.458 0.0
O87 O 0.77247 0.25733 0.52543 0.0
O88 O 0.76803 0.24391 0.47656 0.0
O89 O 0.7304 0.24655 0.55987 0.0
O90 O 0.74445 0.20709 0.52312 0.0
O91 O 0.7474 0.29375 0.58093 0.0
O92 O 0.72371 0.33535 0.55664 0.0
C93 C 0.73298 0.31107 0.46751 0.0
O94 O 0.70164 0.25343 0.50487 0.0
O95 O 0.69921 0.30168 0.52497 0.0
C96 C 0.72179 0.17939 0.43526 0.0
C97 C 0.69221 0.14775 0.4286 0.0
C98 C 0.69752 0.15537 0.45764 0.0
C99 C 0.71214 0.17118 0.46093 0.0
C100 C 0.71752 0.1704 0.40638 0.0
C101 C 0.70283 0.15461 0.40304 0.0
C102 C 0.73355 0.20115 0.43829 0.0
C103 C 0.78061 0.24785 0.49804 0.0
C104 C 0.73808 0.21587 0.55146 0.0
C105 C 0.7527 0.34204 0.5841 0.0
C106 C 0.78624 0.36644 0.59286 0.0
C107 C 0.78027 0.36114 0.56342 0.0
C108 C 0.76372 0.3489 0.55908 0.0
C109 C 0.7581 0.3481 0.6135 0.0
C110 C 0.77481 0.36021 0.61788 0.0
C111 C 0.7375 0.32539 0.57953 0.0
H112 H 0.68936 0.15086 0.47773 0.0
H113 H 0.71503 0.17843 0.48339 0.0
H114 H 0.72474 0.17683 0.38636 0.0
H115 H 0.6992 0.14874 0.38044 0.0
H116 H 0.78907 0.36513 0.54372 0.0
H117 H 0.76009 0.3438 0.53621 0.0
H118 H 0.74988 0.34258 0.63303 0.0
H119 H 0.77904 0.36422 0.64079 0.0
Dy120 Dy 0.74574 0.03375 0.78473 0.0
Dy121 Dy 0.73503 0.98749 0.73396 0.0
C122 C 0.78485 0.96925 0.75932 0.0
O123 O 0.75088 0.05188 0.73851 0.0
O124 O 0.73015 0.03279 0.70806 0.0
O125 O 0.76674 0.05897 0.79679 0.0
O126 O 0.73824 0.0627 0.82586 0.0
O127 O 0.70043 0.02346 0.74782 0.0
O128 O 0.70945 0.0615 0.77337 0.0
O129 O 0.74052 0.95977 0.77785 0.0
O130 O 0.73625 0.99936 0.8134 0.0
O131 O 0.72019 0.95365 0.72253 0.0
O132 O 0.74134 0.96483 0.68963 0.0
C133 C 0.74058 0.05228 0.7127 0.0
O134 O 0.77622 0.98683 0.78362 0.0
O135 O 0.77271 0.97256 0.73487 0.0
C136 C 0.77017 0.06662 0.84879 0.0
C137 C 0.80097 0.0624 0.89522 0.0
C138 C 0.80236 0.03422 0.87973 0.0
C139 C 0.78708 0.03633 0.85666 0.0
C140 C 0.76809 0.09451 0.86498 0.0
C141 C 0.78333 0.09244 0.88804 0.0
C142 C 0.75584 0.07004 0.82228 0.0
C143 C 0.69465 0.05187 0.7612 0.0
C144 C 0.73767 0.9701 0.80619 0.0
C145 C 0.71131 0.95266 0.67128 0.0
C146 C 0.67778 0.95635 0.6291 0.0
C147 C 0.67631 0.98428 0.64506 0.0
C148 C 0.69295 0.98243 0.66604 0.0
C149 C 0.71318 0.92496 0.65494 0.0
C150 C 0.69655 0.92676 0.634 0.0
C151 C 0.72798 0.94978 0.69472 0.0
H152 H 0.81588 0.01077 0.88448 0.0
H153 H 0.78893 0.01456 0.84427 0.0
H154 H 0.75507 0.11806 0.85917 0.0
H155 H 0.7816 0.11448 0.89984 0.0
H156 H 0.66192 1.00733 0.6421 0.0
H157 H 0.69125 1.00402 0.67864 0.0
H158 H 0.7273 0.90181 0.65876 0.0
H159 H 0.6983 0.90493 0.6218 0.0
Dy160 Dy 0.48385 0.73646 0.28833 0.0
Dy161 Dy 0.49327 0.78281 0.23655 0.0
C162 C 0.44362 0.79824 0.26238 0.0
O163 O 0.47894 0.71694 0.24286 0.0
O164 O 0.49888 0.73692 0.21108 0.0
O165 O 0.46347 0.7112 0.30399 0.0
O166 O 0.493 0.70811 0.3294 0.0
O167 O 0.52819 0.74829 0.24985 0.0
O168 O 0.51982 0.70897 0.27437 0.0
O169 O 0.48594 0.81202 0.27988 0.0
O170 O 0.49319 0.77177 0.31534 0.0
O171 O 0.5078 0.81685 0.2238 0.0
O172 O 0.48581 0.80601 0.19277 0.0
C173 C 0.48889 0.71692 0.21644 0.0
O174 O 0.45246 0.78226 0.28711 0.0
O175 O 0.45599 0.7948 0.23773 0.0
C176 C 0.46117 0.7085 0.35674 0.0
C177 C 0.42906 0.72332 0.40443 0.0
C178 C 0.43442 0.74792 0.39118 0.0
C179 C 0.45034 0.74057 0.36744 0.0
C180 C 0.457 0.6836 0.3711 0.0
C181 C 0.44109 0.69092 0.39487 0.0
C182 C 0.47499 0.70145 0.32889 0.0
C183 C 0.53438 0.71947 0.26235 0.0
C184 C 0.48994 0.80176 0.30806 0.0
C185 C 0.51549 0.81883 0.17155 0.0
C186 C 0.54698 0.81563 0.12511 0.0
C187 C 0.54439 0.8354 0.15081 0.0
C188 C 0.52873 0.83709 0.17366 0.0
C189 C 0.51776 0.79935 0.14574 0.0
C190 C 0.53335 0.79782 0.12271 0.0
C191 C 0.49951 0.82066 0.19652 0.0
H192 H 0.42557 0.77305 0.39827 0.0
H193 H 0.45345 0.76007 0.35654 0.0
H194 H 0.46523 0.65873 0.36299 0.0
H195 H 0.43714 0.67151 0.40435 0.0
H196 H 0.55489 0.84896 0.15373 0.0
H197 H 0.52721 0.85237 0.1933 0.0
H198 H 0.50766 0.78513 0.14339 0.0
H199 H 0.53475 0.78265 0.10306 0.0
Dy200 Dy 0.2361 0.73812 0.48499 0.0
Dy201 Dy 0.23958 0.78495 0.53996 0.0
C202 C 0.19222 0.78173 0.5238 0.0
O203 O 0.2268 0.78758 0.46393 0.0
O204 O 0.24325 0.81045 0.49748 0.0
O205 O 0.219 0.73178 0.4454 0.0
O206 O 0.24967 0.6922 0.46092 0.0
O207 O 0.27554 0.75358 0.52638 0.0
O208 O 0.26901 0.74246 0.47767 0.0
O209 O 0.23321 0.74472 0.56308 0.0
O210 O 0.24702 0.70562 0.52614 0.0
O211 O 0.25373 0.78919 0.5831 0.0
O212 O 0.22914 0.83202 0.56135 0.0
C213 C 0.23443 0.80996 0.47076 0.0
O214 O 0.20323 0.75356 0.51044 0.0
O215 O 0.20248 0.80072 0.53113 0.0
C216 C 0.22006 0.6796 0.44145 0.0
C217 C 0.18864 0.65048 0.44069 0.0
C218 C 0.1993 0.65249 0.46784 0.0
C219 C 0.21477 0.66714 0.46825 0.0
C220 C 0.21064 0.67578 0.41401 0.0
C221 C 0.19505 0.66126 0.41359 0.0
C222 C 0.23226 0.70097 0.44279 0.0
C223 C 0.28259 0.74505 0.49843 0.0
C224 C 0.24066 0.71409 0.55451 0.0
C225 C 0.2593 0.83735 0.58721 0.0
C226 C 0.29167 0.86412 0.59512 0.0
C227 C 0.28506 0.85944 0.56586 0.0
C228 C 0.26911 0.846 0.56193 0.0
C229 C 0.26555 0.8424 0.61647 0.0
C230 C 0.28169 0.85565 0.62043 0.0
C231 C 0.24392 0.82088 0.58304 0.0
H232 H 0.19498 0.64392 0.48899 0.0
H233 H 0.22171 0.67018 0.48975 0.0
H234 H 0.21437 0.68566 0.39321 0.0
H235 H 0.18698 0.66034 0.39238 0.0
H236 H 0.29276 0.86521 0.54595 0.0
H237 H 0.26478 0.84174 0.53913 0.0
H238 H 0.25826 0.83556 0.63619 0.0
H239 H 0.28644 0.85912 0.64321 0.0
Dy240 Dy 0.24341 0.53077 0.78544 0.0
Dy241 Dy 0.23333 0.48634 0.73354 0.0
C242 C 0.28313 0.46605 0.76003 0.0
O243 O 0.23495 0.56119 0.74313 0.0
O244 O 0.24512 0.52042 0.70781 0.0
O245 O 0.25643 0.56651 0.79712 0.0
O246 O 0.23975 0.54904 0.83152 0.0
O247 O 0.20212 0.53249 0.73632 0.0
O248 O 0.2059 0.54468 0.7857 0.0
O249 O 0.22636 0.46749 0.7785 0.0
O250 O 0.24719 0.48521 0.81014 0.0
O251 O 0.21328 0.46124 0.71733 0.0
O252 O 0.24263 0.45956 0.69124 0.0
C253 C 0.24051 0.5509 0.71505 0.0
O254 O 0.27776 0.49632 0.76855 0.0
O255 O 0.26773 0.45605 0.75072 0.0
C256 C 0.2699 0.56266 0.847 0.0
C257 C 0.30504 0.56021 0.8857 0.0
C258 C 0.31017 0.5431 0.85805 0.0
C259 C 0.29274 0.54412 0.83892 0.0
C260 C 0.26468 0.57884 0.87506 0.0
C261 C 0.28216 0.57749 0.89442 0.0
C262 C 0.25151 0.56631 0.82589 0.0
C263 C 0.19349 0.54844 0.76147 0.0
C264 C 0.23619 0.46658 0.80482 0.0
C265 C 0.21096 0.45964 0.66466 0.0
C266 C 0.17796 0.47339 0.61942 0.0
C267 C 0.18135 0.49882 0.6342 0.0
C268 C 0.19773 0.49198 0.65671 0.0
C269 C 0.20883 0.43421 0.6485 0.0
C270 C 0.19248 0.44102 0.62592 0.0
C271 C 0.22484 0.45237 0.69196 0.0
H272 H 0.32771 0.52927 0.85105 0.0
H273 H 0.29714 0.53105 0.81754 0.0
H274 H 0.24712 0.59312 0.88167 0.0
H275 H 0.27783 0.59092 0.91561 0.0
H276 H 0.17052 0.52398 0.62945 0.0
H277 H 0.19924 0.51188 0.66902 0.0
H278 H 0.21892 0.40912 0.65449 0.0
H279 H 0.19012 0.42094 0.61517 0.0
Dy280 Dy 0.98444 0.48291 0.54674 0.0
Dy281 Dy -0.00987 0.52906 0.4927 0.0
C282 C -0.01029 0.4595 0.47661 0.0
O283 O 0.0181 0.48458 0.55393 0.0
O284 O 0.02549 0.49542 0.5053 0.0
O285 O -0.00459 0.43627 0.56911 0.0
O286 O 0.96725 0.47828 0.58751 0.0
O287 O -0.00565 0.55267 0.5359 0.0
O288 O 0.97502 0.53243 0.56805 0.0
O289 O 0.95261 0.54602 0.50049 0.0
O290 O 0.95203 0.4996 0.52134 0.0
O291 O 0.98234 0.57645 0.47333 0.0
O292 O 0.00486 0.53304 0.44944 0.0
C293 C 0.0322 0.48647 0.53305 0.0
O294 O -0.00488 0.45066 0.50498 0.0
O295 O 0.98332 0.49004 0.46844 0.0
C296 C 0.9638 0.42896 0.59006 0.0
C297 C 0.9277 0.40877 0.59282 0.0
C298 C 0.93695 0.41228 0.56466 0.0
C299 C 0.9548 0.42245 0.56328 0.0
C300 C 0.95565 0.42349 0.61821 0.0
C301 C 0.93773 0.41333 0.61961 0.0
C302 C 0.97846 0.44682 0.5886 0.0
C303 C 0.98418 0.55336 0.56215 0.0
C304 C 0.94176 0.52765 0.5078 0.0
C305 C 0.01487 0.57742 0.44941 0.0
C306 C 0.0512 0.59714 0.44564 0.0
C307 C 0.04592 0.58588 0.47319 0.0
C308 C 0.02797 0.57602 0.47503 0.0
C309 C 0.01989 0.58881 0.42188 0.0
C310 C 0.03801 0.59861 0.41997 0.0
C311 C -0.00278 0.56463 0.45131 0.0
H312 H 0.92977 0.40844 0.54366 0.0
H313 H 0.96073 0.42694 0.54132 0.0
H314 H 0.96223 0.42889 0.63905 0.0
H315 H 0.93084 0.41103 0.64161 0.0
H316 H 0.05604 0.5839 0.49318 0.0
H317 H 0.02456 0.56669 0.49635 0.0
H318 H 0.01005 0.58968 0.40186 0.0
H319 H 0.04168 0.60733 0.39851 0.0
Dy320 Dy 0.23593 0.23476 0.98418 0.0
Dy321 Dy 0.23709 0.28545 0.0377 0.0
C322 C 0.19015 0.27964 0.02031 0.0
O323 O 0.23921 0.27611 0.95865 0.0
O324 O 0.22977 0.31601 0.99537 0.0
O325 O 0.22472 0.2257 0.94053 0.0
O326 O 0.24876 0.18581 0.96636 0.0
O327 O 0.26989 0.27109 1.01252 0.0
O328 O 0.27247 0.22173 0.99529 0.0
O329 O 0.24654 0.23641 0.05976 0.0
O330 O 0.22957 0.21329 0.02754 0.0
O331 O 0.2531 0.2924 0.07815 0.0
O332 O 0.22311 0.33184 0.06091 0.0
C333 C 0.23392 0.30654 0.9668 0.0
O334 O 0.19917 0.26301 0.99555 0.0
O335 O 0.20208 0.28716 0.04051 0.0
C336 C 0.22083 0.17618 0.93887 0.0
C337 C 0.18956 0.14758 0.93036 0.0
C338 C 0.19519 0.15362 0.95975 0.0
C339 C 0.21059 0.16798 0.96397 0.0
C340 C 0.21571 0.16951 0.90952 0.0
C341 C 0.20012 0.15536 0.90526 0.0
C342 C 0.23521 0.19422 0.94313 0.0
C343 C 0.2818 0.24226 1.00102 0.0
C344 C 0.23841 0.21437 0.05403 0.0
C345 C 0.25133 0.34494 0.08376 0.0
C346 C 0.27928 0.37905 0.09108 0.0
C347 C 0.27431 0.37133 0.0619 0.0
C348 C 0.26051 0.35425 0.05827 0.0
C349 C 0.2554 0.35379 0.11281 0.0
C350 C 0.26929 0.37075 0.11648 0.0
C351 C 0.23963 0.32314 0.08042 0.0
H352 H 0.18702 0.14841 0.97949 0.0
H353 H 0.21403 0.17346 0.98682 0.0
H354 H 0.22333 0.17598 0.88991 0.0
H355 H 0.19613 0.15083 0.88238 0.0
H356 H 0.28203 0.377 0.04195 0.0
H357 H 0.25773 0.34721 0.03567 0.0
H358 H 0.24849 0.34658 0.13268 0.0
H359 H 0.27271 0.37662 0.13919 0.0
Dy360 Dy 0.24536 0.03362 0.28789 0.0
Dy361 Dy 0.23427 0.98807 0.23761 0.0
C362 C 0.28447 0.96999 0.26154 0.0
O363 O 0.2519 0.05038 0.24173 0.0
O364 O 0.22889 0.0342 0.21275 0.0
O365 O 0.26619 0.05852 0.30161 0.0
O366 O 0.2368 0.06258 0.32905 0.0
O367 O 0.20021 0.02228 0.25527 0.0
O368 O 0.21014 0.06293 0.27256 0.0
O369 O 0.24158 0.95892 0.28068 0.0
O370 O 0.23475 0.99969 0.31569 0.0
O371 O 0.21863 0.9554 0.22525 0.0
O372 O 0.2404 0.96613 0.193 0.0
C373 C 0.24053 0.05225 0.21657 0.0
O374 O 0.27612 0.98704 0.28621 0.0
O375 O 0.27191 0.97338 0.2375 0.0
C376 C 0.26831 0.06557 0.35407 0.0
C377 C 0.29816 0.06137 0.40173 0.0
C378 C 0.30093 0.03358 0.38456 0.0
C379 C 0.28611 0.03567 0.36088 0.0
C380 C 0.2647 0.09284 0.37218 0.0
C381 C 0.27946 0.09077 0.39587 0.0
C382 C 0.25467 0.06948 0.32674 0.0
C383 C 0.19474 0.05242 0.26421 0.0
C384 C 0.23757 0.96971 0.30883 0.0
C385 C 0.21046 0.95447 0.17357 0.0
C386 C 0.17782 0.95795 0.13009 0.0
C387 C 0.17591 0.98593 0.14633 0.0
C388 C 0.19212 0.98418 0.16799 0.0
C389 C 0.21286 0.92684 0.15676 0.0
C390 C 0.19668 0.92853 0.13518 0.0
C391 C 0.22675 0.95149 0.1976 0.0
H392 H 0.31527 0.01066 0.38829 0.0
H393 H 0.2891 0.01434 0.34709 0.0
H394 H 0.25095 0.11606 0.36728 0.0
H395 H 0.27667 0.11247 0.40898 0.0
H396 H 0.16144 1.00885 0.14316 0.0
H397 H 0.19006 1.00575 0.18087 0.0
H398 H 0.22702 0.90377 0.16075 0.0
H399 H 0.19876 0.90668 0.12277 0.0
Dy400 Dy 0.48449 0.23751 0.78694 0.0
Dy401 Dy 0.49501 0.28291 0.73619 0.0
C402 C 0.44494 0.30253 0.7633 0.0
O403 O 0.49245 0.2081 0.74385 0.0
O404 O 0.48377 0.24923 0.70923 0.0
O405 O 0.46906 0.20453 0.79957 0.0
O406 O 0.49072 0.21526 0.83121 0.0
O407 O 0.52595 0.23645 0.73632 0.0
O408 O 0.52211 0.22318 0.78546 0.0
O409 O 0.50252 0.29918 0.78183 0.0
O410 O 0.47979 0.28316 0.81233 0.0
O411 O 0.51545 0.308 0.72069 0.0
O412 O 0.48529 0.31254 0.69583 0.0
C413 C 0.48758 0.21887 0.71596 0.0
O414 O 0.45021 0.27216 0.77118 0.0
O415 O 0.46051 0.3127 0.75452 0.0
C416 C 0.46038 0.2045 0.85133 0.0
C417 C 0.4271 0.21 0.89564 0.0
C418 C 0.42547 0.2372 0.87835 0.0
C419 C 0.442 0.23445 0.85633 0.0
C420 C 0.46245 0.17757 0.869 0.0
C421 C 0.44594 0.18027 0.89102 0.0
C422 C 0.477 0.20073 0.82703 0.0
C423 C 0.5345 0.21963 0.76077 0.0
C424 C 0.49152 0.30101 0.80773 0.0
C425 C 0.51595 0.31609 0.6682 0.0
C426 C 0.54445 0.31255 0.61816 0.0
C427 C 0.54752 0.28446 0.63498 0.0
C428 C 0.53335 0.28622 0.65983 0.0
C429 C 0.51198 0.34371 0.65054 0.0
C430 C 0.52608 0.34196 0.62563 0.0
C431 C 0.50317 0.31949 0.69664 0.0
H432 H 0.41101 0.26031 0.88107 0.0
H433 H 0.4402 0.25546 0.84275 0.0
H434 H 0.47664 0.15431 0.86541 0.0
H435 H 0.44781 0.15902 0.90423 0.0
H436 H 0.56165 0.26151 0.63006 0.0
H437 H 0.53658 0.26464 0.67329 0.0
H438 H 0.49851 0.36691 0.65668 0.0
H439 H 0.52308 0.36388 0.61283 0.0
Dy440 Dy 0.98246 0.73296 0.79593 0.0
Dy441 Dy -0.00724 0.77788 0.74408 0.0
C442 C 0.94269 0.79437 0.76837 0.0
O443 O 0.97669 0.71371 0.75084 0.0
O444 O -0.00185 0.73142 0.71952 0.0
O445 O 0.9614 0.70932 0.81308 0.0
O446 O -0.00785 0.70415 0.83664 0.0
O447 O 0.02729 0.74408 0.75929 0.0
O448 O 0.01803 0.70415 0.78065 0.0
O449 O 0.98427 0.80795 0.78705 0.0
O450 O -0.007 0.76745 0.82229 0.0
O451 O 0.00538 0.81424 0.73259 0.0
O452 O -0.01126 0.79717 0.6985 0.0
C453 C 0.98723 0.71253 0.72468 0.0
O454 O 0.95114 0.77904 0.79359 0.0
O455 O 0.95548 0.79028 0.74403 0.0
C456 C 0.96079 0.70599 0.86595 0.0
C457 C 0.93048 0.72214 0.91582 0.0
C458 C 0.93748 0.74546 0.90317 0.0
C459 C 0.95247 0.73746 0.87832 0.0
C460 C 0.95506 0.68213 0.87963 0.0
C461 C 0.94004 0.6901 0.90444 0.0
C462 C 0.97363 0.69872 0.8373 0.0
C463 C 0.03306 0.71469 0.77029 0.0
C464 C -0.01096 0.79769 0.81514 0.0
C465 C 0.01811 0.81321 0.68169 0.0
C466 C 0.05105 0.81343 0.63874 0.0
C467 C 0.05347 0.81878 0.66963 0.0
C468 C 0.03718 0.81874 0.69085 0.0
C469 C 0.01564 0.80791 0.65077 0.0
C470 C 0.03204 0.80781 0.62951 0.0
C471 C 0.00032 0.81467 0.704 0.0
H472 H 0.93058 0.77024 0.91163 0.0
H473 H 0.95681 0.75616 0.86797 0.0
H474 H 0.96134 0.65775 0.87024 0.0
H475 H 0.93476 0.67169 0.91335 0.0
H476 H 0.06811 0.82269 0.67749 0.0
H477 H 0.03954 0.82319 0.71443 0.0
H478 H 0.00095 0.80408 0.64298 0.0
H479 H 0.02967 0.80388 0.6058 0.0
Dy480 Dy 0.7444 0.53515 0.28713 0.0
Dy481 Dy 0.73478 0.4898 0.2358 0.0
C482 C 0.78448 0.47047 0.26267 0.0
O483 O 0.73598 0.56492 0.24447 0.0
O484 O 0.74679 0.52353 0.20976 0.0
O485 O 0.75944 0.5685 0.29956 0.0
O486 O 0.73795 0.55706 0.33174 0.0
O487 O 0.70307 0.53519 0.23757 0.0
O488 O 0.70682 0.54926 0.28644 0.0
O489 O 0.72558 0.47487 0.2813 0.0
O490 O 0.74852 0.48936 0.3119 0.0
O491 O 0.7195 0.45676 0.22422 0.0
O492 O 0.74031 0.46795 0.19086 0.0
C493 C 0.7418 0.55425 0.21655 0.0
O494 O 0.77897 0.50083 0.27087 0.0
O495 O 0.76932 0.46017 0.253 0.0
C496 C 0.76775 0.56893 0.35114 0.0
C497 C 0.80033 0.5645 0.395 0.0
C498 C 0.80209 0.5368 0.3784 0.0
C499 C 0.78591 0.53902 0.35659 0.0
C500 C 0.76562 0.59641 0.36802 0.0
C501 C 0.78178 0.59425 0.38981 0.0
C502 C 0.75138 0.57209 0.32723 0.0
C503 C 0.69448 0.55216 0.26224 0.0
C504 C 0.73642 0.47215 0.30705 0.0
C505 C 0.70932 0.457 0.17329 0.0
C506 C 0.67565 0.45671 0.13331 0.0
C507 C 0.66961 0.47698 0.15901 0.0
C508 C 0.68633 0.47734 0.17873 0.0
C509 C 0.71548 0.43773 0.14696 0.0
C510 C 0.69874 0.43776 0.12692 0.0
C511 C 0.7266 0.45354 0.19614 0.0
H512 H 0.81634 0.51365 0.38159 0.0
H513 H 0.78778 0.51759 0.3436 0.0
H514 H 0.75162 0.61965 0.36406 0.0
H515 H 0.77982 0.61589 0.40246 0.0
H516 H 0.65189 0.49212 0.1641 0.0
H517 H 0.6812 0.49267 0.19878 0.0
H518 H 0.73315 0.4219 0.14244 0.0
H519 H 0.70372 0.42197 0.10718 0.0
Dy520 Dy 0.73774 0.74021 0.98508 0.0
Dy521 Dy 0.73615 0.78972 0.04025 0.0
C522 C 0.69122 0.7823 0.01913 0.0
O523 O 0.72766 0.78951 0.96325 0.0
O524 O 0.74128 0.81473 0.99825 0.0
O525 O 0.72368 0.73102 0.94386 0.0
O526 O 0.75428 0.69377 0.96239 0.0
O527 O 0.77312 0.76018 0.03037 0.0
O528 O 0.76976 0.74769 0.98091 0.0
O529 O 0.73041 0.74864 0.06269 0.0
O530 O 0.74774 0.70896 0.02714 0.0
O531 O 0.74714 0.79651 0.08482 0.0
O532 O 0.72299 0.83763 0.06048 0.0
C533 C 0.73397 0.81306 0.97078 0.0
O534 O 0.70384 0.75377 1.00747 0.0
O535 O 0.70005 0.80283 0.02713 0.0
C536 C 0.72757 0.6775 0.93941 0.0
C537 C 0.69967 0.64323 0.93293 0.0
C538 C 0.70491 0.65098 0.96195 0.0
C539 C 0.7187 0.66812 0.96515 0.0
C540 C 0.72347 0.66827 0.91054 0.0
C541 C 0.70962 0.65118 0.90729 0.0
C542 C 0.73817 0.7007 0.94238 0.0
C543 C 0.78179 0.7516 1.0031 0.0
C544 C 0.73967 0.71772 0.05488 0.0
C545 C 0.75132 0.84566 0.08848 0.0
C546 C 0.78406 0.87154 0.09751 0.0
C547 C 0.77681 0.86875 0.06812 0.0
C548 C 0.76068 0.85576 0.06363 0.0
C549 C 0.75795 0.84929 0.11792 0.0
C550 C 0.77427 0.86211 0.12244 0.0
C551 C 0.73671 0.82809 0.08347 0.0
H552 H 0.69725 0.6456 0.9821 0.0
H553 H 0.72146 0.6755 0.98762 0.0
H554 H 0.73009 0.67559 0.89047 0.0
H555 H 0.70601 0.64525 0.8847 0.0
H556 H 0.78434 0.87524 0.04845 0.0
H557 H 0.75611 0.85259 0.04064 0.0
H558 H 0.75106 0.84128 0.13731 0.0
H559 H 0.77952 0.86413 0.14532 0.0
Dy560 Dy 0.48676 0.98752 0.53809 0.0
Dy561 Dy 0.49125 0.03483 0.48351 0.0
C562 C 0.49037 0.96438 0.46844 0.0
O563 O 0.52407 0.97096 0.52867 0.0
O564 O 0.52373 0.01821 0.50875 0.0
O565 O 0.49551 0.93996 0.55765 0.0
O566 O 0.47365 0.98317 0.58238 0.0
O567 O 0.48154 0.06719 0.525 0.0
O568 O 0.49235 0.02801 0.56189 0.0
O569 O 0.45574 0.03915 0.47949 0.0
O570 O 0.45076 0.01783 0.52526 0.0
O571 O 0.48239 0.08138 0.46155 0.0
O572 O 0.50785 0.03761 0.44155 0.0
C573 C 0.5345 0.98991 0.5216 0.0
O574 O 0.4819 0.96361 0.49559 0.0
O575 O 0.49843 0.98629 0.46148 0.0
C576 C 0.4641 0.9384 0.58452 0.0
C577 C 0.42662 0.92166 0.59271 0.0
C578 C 0.43263 0.92866 0.56363 0.0
C579 C 0.45112 0.93711 0.5596 0.0
C580 C 0.45873 0.93042 0.61344 0.0
C581 C 0.44012 0.92196 0.61753 0.0
C582 C 0.48147 0.95155 0.58059 0.0
C583 C 0.48644 0.05844 0.55345 0.0
C584 C 0.4428 0.03327 0.49983 0.0
C585 C 0.51501 0.08415 0.43877 0.0
C586 C 0.55309 0.09995 0.43383 0.0
C587 C 0.54462 0.09622 0.4625 0.0
C588 C 0.52579 0.08825 0.46494 0.0
C589 C 0.52266 0.08937 0.4102 0.0
C590 C 0.54155 0.09734 0.40771 0.0
C591 C 0.49852 0.06928 0.44109 0.0
H592 H 0.42281 0.92807 0.54399 0.0
H593 H 0.45489 0.94353 0.53712 0.0
H594 H 0.46844 0.93173 0.63294 0.0
H595 H 0.4358 0.91689 0.64022 0.0
H596 H 0.55293 0.0986 0.48304 0.0
H597 H 0.52027 0.08388 0.48721 0.0
H598 H 0.51472 0.08574 0.38978 0.0
H599 H 0.54779 0.09981 0.38533 0.0
Dy600 Dy 0.4842 0.48877 0.03763 0.0
Dy601 Dy 0.49612 0.53067 0.98403 0.0
C602 C 0.49198 0.46285 0.96888 0.0
O603 O 0.5222 0.46734 0.03333 0.0
O604 O 0.52734 0.51043 1.0116 0.0
O605 O 0.48737 0.4429 0.0568 0.0
O606 O 0.46815 0.48804 0.08068 0.0
O607 O 0.48692 0.56409 0.02494 0.0
O608 O 0.49182 0.52666 0.06264 0.0
O609 O 0.46064 0.53697 0.97538 0.0
O610 O 0.45028 0.52448 0.02212 0.0
O611 O 0.49018 0.57576 0.96081 0.0
O612 O 0.51566 0.5302 0.94389 0.0
C613 C 0.53518 0.48274 0.02617 0.0
O614 O 0.48002 0.4659 0.99401 0.0
O615 O 0.50326 0.48128 0.96399 0.0
C616 C 0.45379 0.44802 0.08259 0.0
C617 C 0.41395 0.43677 0.09014 0.0
C618 C 0.42023 0.44428 0.06138 0.0
C619 C 0.43992 0.45002 0.05768 0.0
C620 C 0.44786 0.44013 0.1112 0.0
C621 C 0.42808 0.4345 0.11498 0.0
C622 C 0.47327 0.4569 0.07914 0.0
C623 C 0.48903 0.556 0.05387 0.0
C624 C 0.44511 0.53672 0.99483 0.0
C625 C 0.52416 0.5756 0.93972 0.0
C626 C 0.56199 0.59195 0.93494 0.0
C627 C 0.55386 0.58733 0.96357 0.0
C628 C 0.53514 0.57909 0.96592 0.0
C629 C 0.5316 0.58138 0.91122 0.0
C630 C 0.55037 0.58959 0.90882 0.0
C631 C 0.50709 0.56178 0.94178 0.0
H632 H 0.40995 0.4457 0.04169 0.0
H633 H 0.44415 0.45647 0.03545 0.0
H634 H 0.45827 0.43898 0.13071 0.0
H635 H 0.42358 0.42914 0.13747 0.0
H636 H 0.56223 0.5895 0.98412 0.0
H637 H 0.52971 0.57434 0.98811 0.0
H638 H 0.52345 0.5783 0.89078 0.0
H639 H 0.55636 0.5927 0.88645 0.0
H640 H 0.00505 0.09943 0.05707 0.0
H641 H 0.96498 0.17274 0.2249 0.0
H642 H 0.9667 0.06474 0.11805 0.0
H643 H 0.00507 0.2053 0.16483 0.0
H644 H 0.96482 0.13395 0.18594 0.0
H645 H 0.00463 0.13879 0.09575 0.0
C646 C -0.00352 0.10004 0.07854 0.0
C647 C 0.98587 0.0785 0.08406 0.0
C648 C 0.97364 0.14959 0.18122 0.0
C649 C 0.98536 0.12397 0.12889 0.0
C650 C 0.97372 0.17189 0.20354 0.0
C651 C 0.98504 0.1926 0.19838 0.0
C652 C 0.98494 0.14775 0.15326 0.0
C653 C -0.00392 0.19001 0.17005 0.0
C654 C -0.00373 0.12262 0.10071 0.0
C655 C 0.97511 0.08071 0.11254 0.0
N656 N -0.00426 0.16814 0.14873 0.0
N657 N 0.97514 0.1029 0.13373 0.0
H658 H 0.79265 0.26384 0.44371 0.0
H659 H 0.92416 0.19292 0.46406 0.0
H660 H 0.81947 0.2301 0.53246 0.0
H661 H 0.88855 0.27401 0.40521 0.0
H662 H 0.88775 0.20228 0.48979 0.0
H663 H 0.82943 0.26269 0.42809 0.0
C664 C 0.8064 0.25596 0.45989 0.0
C665 C 0.80317 0.24664 0.4893 0.0
C666 C 0.88814 0.21841 0.47172 0.0
C667 C 0.84537 0.2454 0.47151 0.0
C668 C 0.90881 0.21305 0.45698 0.0
C669 C 0.90935 0.23256 0.43228 0.0
C670 C 0.86799 0.24294 0.46116 0.0
C671 C 0.88903 0.25846 0.42419 0.0
C672 C 0.82731 0.25568 0.45106 0.0
C673 C 0.82142 0.23728 0.50952 0.0
N674 N 0.86914 0.26249 0.4382 0.0
N675 N 0.84201 0.23638 0.50009 0.0
H676 H 0.73019 0.05198 0.65207 0.0
H677 H 0.73816 0.22159 0.61338 0.0
H678 H 0.75124 0.10582 0.71699 0.0
H679 H 0.74051 0.1532 0.54345 0.0
H680 H 0.73929 0.18168 0.65182 0.0
H681 H 0.73029 0.09054 0.61254 0.0
C682 C 0.73483 0.07187 0.65811 0.0
C683 C 0.74075 0.07543 0.68813 0.0
C684 C 0.73962 0.17528 0.62809 0.0
C685 C 0.74064 0.12014 0.6427 0.0
C686 C 0.7389 0.19817 0.60601 0.0
C687 C 0.73928 0.19093 0.57491 0.0
C688 C 0.74034 0.14479 0.61933 0.0
C689 C 0.74032 0.15994 0.56705 0.0
C690 C 0.73495 0.09386 0.63542 0.0
C691 C 0.74663 0.10182 0.6943 0.0
N692 N 0.74064 0.1382 0.58903 0.0
N693 N 0.74627 0.12313 0.67197 0.0
H694 H 0.91589 0.08425 0.97495 0.0
H695 H 0.82131 0.0162 0.93869 0.0
H696 H 0.91502 0.99649 0.01402 0.0
H697 H 0.82165 0.10477 0.90102 0.0
H698 H 0.85339 0.01151 0.97062 0.0
H699 H 0.87891 0.0955 0.95233 0.0
C700 C 0.90783 0.06754 0.9791 0.0
C701 C 0.91874 0.03918 0.99612 0.0
C702 C 0.84629 0.03216 0.9556 0.0
C703 C 0.87648 0.05176 0.97004 0.0
C704 C 0.82804 0.03475 0.93726 0.0
C705 C 0.81885 0.0608 0.917 0.0
C706 C 0.85554 0.05565 0.9535 0.0
C707 C 0.82803 0.08442 0.91647 0.0
C708 C 0.88671 0.07395 0.96611 0.0
C709 C 0.90738 0.01851 1.00083 0.0
N710 N 0.84598 0.08111 0.93422 0.0
N711 N 0.887 0.02504 0.98759 0.0
H712 H 0.05892 0.93637 0.06892 0.0
H713 H 0.15434 1.00459 0.08828 0.0
H714 H 0.06291 0.0114 1.01094 0.0
H715 H 0.15899 0.91342 0.12595 0.0
H716 H 0.12153 1.00733 0.05854 0.0
H717 H 0.09647 0.92666 0.08855 0.0
C718 C 0.06788 0.95051 0.06004 0.0
C719 C 0.0578 0.97481 0.03843 0.0
C720 C 0.12996 0.98652 0.073 0.0
C721 C 0.10062 0.96431 0.06121 0.0
C722 C 0.14856 0.98506 0.09011 0.0
C723 C 0.15934 0.95881 0.10972 0.0
C724 C 0.12193 0.96179 0.0759 0.0
C725 C 0.15134 0.93398 0.11097 0.0
C726 C 0.08933 0.94496 0.07123 0.0
C727 C 0.07016 0.99235 0.02756 0.0
N728 N 0.13299 0.93626 0.09457 0.0
N729 N 0.09083 0.98712 0.03946 0.0
H730 H -0.0009 0.39391 0.48371 0.0
H731 H 0.98307 0.36425 0.30677 0.0
H732 H 0.98167 0.46859 0.41544 0.0
H733 H -0.00214 0.28891 0.37402 0.0
H734 H 0.98326 0.4021 0.34645 0.0
H735 H -0.00051 0.35481 0.44446 0.0
C736 C -0.00459 0.40216 0.46054 0.0
C737 C -0.00962 0.43483 0.45311 0.0
C738 C 0.9865 0.3773 0.35263 0.0
C739 C -0.00922 0.38987 0.40776 0.0
C740 C 0.98641 0.35552 0.32986 0.0
C741 C -0.00951 0.32306 0.33678 0.0
C742 C -0.00929 0.36686 0.3829 0.0
C743 C -0.00534 0.31356 0.36737 0.0
C744 C -0.00439 0.37975 0.43808 0.0
C745 C 0.98566 0.44383 0.42252 0.0
N746 N -0.00533 0.33525 0.38917 0.0
N747 N 0.98599 0.42163 0.40118 0.0
H748 H 0.65901 0.33883 0.54191 0.0
H749 H 0.56688 0.26522 0.5757 0.0
H750 H 0.66496 0.2451 0.50904 0.0
H751 H 0.56209 0.35809 0.60927 0.0
H752 H 0.59973 0.26106 0.54441 0.0
H753 H 0.62041 0.35002 0.55975 0.0
C754 C 0.65213 0.32073 0.53815 0.0
C755 C 0.66539 0.29077 0.5244 0.0
C756 C 0.59126 0.28257 0.55829 0.0
C757 C 0.62123 0.30334 0.54496 0.0
C758 C 0.57257 0.2849 0.57622 0.0
C759 C 0.56186 0.31187 0.59539 0.0
C760 C 0.59939 0.30729 0.55972 0.0
C761 C 0.56969 0.33692 0.59475 0.0
C762 C 0.63006 0.32714 0.54834 0.0
C763 C 0.65547 0.26839 0.51984 0.0
N764 N 0.58813 0.33382 0.57753 0.0
N765 N 0.63408 0.27497 0.53045 0.0
H766 H 0.73418 0.91128 0.79996 0.0
H767 H 0.74251 0.86834 0.97777 0.0
H768 H 0.73884 0.97658 0.86865 0.0
H769 H 0.72529 0.81348 0.90963 0.0
H770 H 0.74305 0.90684 0.9385 0.0
H771 H 0.73283 0.87414 0.83975 0.0
C772 C 0.73494 0.91792 0.8234 0.0
C773 C 0.73661 0.94739 0.83071 0.0
C774 C 0.73908 0.88645 0.93215 0.0
C775 C 0.73517 0.90432 0.8769 0.0
C776 C 0.73877 0.86435 0.95462 0.0
C777 C 0.73376 0.83744 0.94725 0.0
C778 C 0.73458 0.88165 0.9018 0.0
C779 C 0.72914 0.83378 0.91665 0.0
C780 C 0.73411 0.89659 0.84621 0.0
C781 C 0.73747 0.95433 0.86172 0.0
N782 N 0.72975 0.85541 0.89522 0.0
N783 N 0.73684 0.933 0.88354 0.0
H784 H 0.16129 0.33265 0.05125 0.0
H785 H 0.07312 0.25494 0.08844 0.0
H786 H 0.16438 0.2455 1.00663 0.0
H787 H 0.06254 0.35306 0.11304 0.0
H788 H 0.1051 0.2518 0.05562 0.0
H789 H 0.12344 0.34209 0.07088 0.0
C790 C 0.15378 0.31576 0.04524 0.0
C791 C 0.16595 0.28816 0.02754 0.0
C792 C 0.09551 0.27418 0.06782 0.0
C793 C 0.12284 0.29835 0.05044 0.0
C794 C 0.07738 0.2759 0.0867 0.0
C795 C 0.06526 0.30421 0.10369 0.0
C796 C 0.1017 0.30081 0.06629 0.0
C797 C 0.07128 0.33082 0.10025 0.0
C798 C 0.13217 0.32114 0.05642 0.0
C799 C 0.15546 0.26711 0.02021 0.0
N800 N 0.08923 0.32831 0.08227 0.0
N801 N 0.13461 0.27231 0.03219 0.0
H802 H 0.71521 0.42956 0.3042 0.0
H803 H 0.75053 0.35773 0.47217 0.0
H804 H 0.75488 0.46115 0.3644 0.0
H805 H 0.7155 0.3207 0.40952 0.0
H806 H 0.75108 0.39685 0.4338 0.0
H807 H 0.71398 0.39108 0.34289 0.0
C808 C 0.72363 0.42856 0.32555 0.0
C809 C 0.73516 0.4489 0.33083 0.0
C810 C 0.74323 0.38023 0.4284 0.0
C811 C 0.73379 0.40444 0.37563 0.0
C812 C 0.74285 0.35782 0.45042 0.0
C813 C 0.7329 0.33568 0.44432 0.0
C814 C 0.73353 0.38087 0.39983 0.0
C815 C 0.72336 0.33716 0.41546 0.0
C816 C 0.72294 0.40644 0.3477 0.0
C817 C 0.74576 0.44614 0.35911 0.0
N818 N 0.7239 0.35926 0.39445 0.0
N819 N 0.7448 0.42448 0.3803 0.0
H820 H 0.56132 0.02353 0.51178 0.0
H821 H 0.65856 0.91212 0.62369 0.0
H822 H 0.56178 0.93642 0.55399 0.0
H823 H 0.65451 1.00386 0.58814 0.0
H824 H 0.62616 0.91667 0.59265 0.0
H825 H 0.5984 0.01254 0.53372 0.0
C826 C 0.56931 1.00187 0.52539 0.0
C827 C 0.55825 0.98105 0.53135 0.0
C828 C 0.63246 0.93569 0.59145 0.0
C829 C 0.60072 0.96848 0.55672 0.0
C830 C 0.65106 0.93302 0.60903 0.0
C831 C 0.65919 0.95776 0.60865 0.0
C832 C 0.62187 0.9633 0.57332 0.0
C833 C 0.64857 0.98448 0.58951 0.0
C834 C 0.59049 0.99567 0.53798 0.0
C835 C 0.56956 0.95326 0.54896 0.0
N836 N 0.63039 0.98662 0.57274 0.0
N837 N 0.59009 0.94795 0.56126 0.0
H838 H 0.98224 0.9698 0.91416 0.0
H839 H -0.0033 0.78688 0.87661 0.0
H840 H -0.00245 0.89544 0.98249 0.0
H841 H 0.9821 0.86221 0.80939 0.0
H842 H -0.00291 0.82564 0.9156 0.0
H843 H 0.98217 0.93053 0.87594 0.0
C844 C 0.98563 0.94521 0.92126 0.0
C845 C -0.01005 0.93618 0.95188 0.0
C846 C -0.00618 0.8337 0.89232 0.0
C847 C -0.01016 0.89052 0.90759 0.0
C848 C -0.0064 0.81151 0.86993 0.0
C849 C -0.01061 0.82104 0.83939 0.0
C850 C -0.01021 0.8659 0.88436 0.0
C851 C 0.98544 0.85349 0.83246 0.0
C852 C 0.98558 0.92268 0.89925 0.0
C853 C -0.00582 0.90372 0.95929 0.0
N854 N 0.98574 0.87456 0.85462 0.0
N855 N -0.00599 0.8822 0.93742 0.0
H856 H 0.09665 0.05526 0.9604 0.0
H857 H 0.15395 0.16929 0.89098 0.0
H858 H 0.06145 0.13646 0.90148 0.0
H859 H 0.18434 0.0978 0.96059 0.0
H860 H 0.12223 0.15227 0.88852 0.0
H861 H 0.13097 0.06576 0.95516 0.0
C862 C 0.09612 0.07538 0.9464 0.0
C863 C 0.07604 0.09534 0.93172 0.0
C864 C 0.13594 0.14013 0.90414 0.0
C865 C 0.11542 0.10722 0.92529 0.0
C866 C 0.15412 0.14965 0.90539 0.0
C867 C 0.17169 0.13505 0.92618 0.0
C868 C 0.13541 0.11578 0.92375 0.0
C869 C 0.17095 0.10999 0.94456 0.0
C870 C 0.11578 0.08123 0.94327 0.0
C871 C 0.07656 0.12046 0.91318 0.0
N872 N 0.15304 0.10126 0.94302 0.0
N873 N 0.09591 0.12585 0.91066 0.0
H874 H 0.66673 0.57714 0.3114 0.0
H875 H 0.56786 0.71437 0.22076 0.0
H876 H 0.66859 0.58302 0.21376 0.0
H877 H 0.55576 0.67362 0.30444 0.0
H878 H 0.60745 0.67346 0.22039 0.0
H879 H 0.62804 0.61966 0.31168 0.0
C880 C 0.65895 0.58733 0.29003 0.0
C881 C 0.67075 0.57646 0.2625 0.0
C882 C 0.59606 0.67369 0.23881 0.0
C883 C 0.62683 0.62539 0.26273 0.0
C884 C 0.57362 0.69707 0.23916 0.0
C885 C 0.55861 0.69716 0.2626 0.0
C886 C 0.60347 0.65091 0.2624 0.0
C887 C 0.56678 0.67416 0.28583 0.0
C888 C 0.63693 0.61154 0.29021 0.0
C889 C 0.65993 0.59052 0.23544 0.0
N890 N 0.5887 0.65203 0.28522 0.0
N891 N 0.63857 0.61452 0.23623 0.0
H892 H 0.2959 0.91507 0.56594 0.0
H893 H 0.42066 0.87552 0.62856 0.0
H894 H 0.32848 0.8409 0.63255 0.0
H895 H 0.38512 0.95377 0.56685 0.0
H896 H 0.38636 0.86436 0.63306 0.0
H897 H 0.32775 0.93155 0.56849 0.0
C898 C 0.30974 0.90239 0.58123 0.0
C899 C 0.30968 0.87646 0.59889 0.0
C900 C 0.38606 0.88406 0.61866 0.0
C901 C 0.34623 0.89506 0.60192 0.0
C902 C 0.40559 0.89049 0.61616 0.0
C903 C 0.40583 0.91532 0.59699 0.0
C904 C 0.36668 0.90262 0.60186 0.0
C905 C 0.38588 0.9339 0.58134 0.0
C906 C 0.32789 0.91184 0.58277 0.0
C907 C 0.32785 0.86113 0.61866 0.0
N908 N 0.36718 0.92705 0.58399 0.0
N909 N 0.34554 0.87047 0.61944 0.0
H910 H 0.05384 0.66594 0.81015 0.0
H911 H 0.16743 0.58092 0.7137 0.0
H912 H 0.06678 0.71112 0.72982 0.0
H913 H 0.16571 0.57124 0.811 0.0
H914 H 0.12848 0.62321 0.71609 0.0
H915 H 0.09322 0.62554 0.80803 0.0
C916 C 0.06504 0.66738 0.79213 0.0
C917 C 0.05716 0.69183 0.77014 0.0
C918 C 0.13672 0.61177 0.73684 0.0
C919 C 0.10192 0.64548 0.7673 0.0
C920 C 0.15879 0.58751 0.7355 0.0
C921 C 0.16972 0.57259 0.76222 0.0
C922 C 0.12545 0.62055 0.76499 0.0
C923 C 0.15789 0.58221 0.7899 0.0
C924 C 0.08746 0.64442 0.79099 0.0
C925 C 0.07232 0.69273 0.74731 0.0
N926 N 0.13629 0.60545 0.79056 0.0
N927 N 0.094 0.66956 0.74624 0.0
H928 H 0.82117 0.34194 0.63313 0.0
H929 H 0.88985 0.43823 0.55861 0.0
H930 H 0.79519 0.41274 0.56179 0.0
H931 H 0.91666 0.36836 0.63054 0.0
H932 H 0.85437 0.43069 0.56128 0.0
H933 H 0.85514 0.35386 0.63535 0.0
C934 C 0.82245 0.36039 0.61829 0.0
C935 C 0.80544 0.37625 0.59709 0.0
C936 C 0.86797 0.41695 0.57651 0.0
C937 C 0.84435 0.38953 0.59912 0.0
C938 C 0.88834 0.42101 0.57478 0.0
C939 C 0.90634 0.40354 0.59412 0.0
C940 C 0.86551 0.39524 0.59772 0.0
C941 C 0.90319 0.38228 0.61523 0.0
C942 C 0.84192 0.36697 0.61939 0.0
C943 C 0.80808 0.39961 0.57814 0.0
N944 N 0.88316 0.3786 0.61638 0.0
N945 N 0.82724 0.40539 0.57948 0.0
H946 H 0.30958 0.93637 0.21267 0.0
H947 H 0.41492 0.82156 0.31138 0.0
H948 H 0.31314 0.94696 0.30957 0.0
H949 H 0.41784 0.8293 0.21392 0.0
H950 H 0.37605 0.86358 0.31131 0.0
H951 H 0.34804 0.89357 0.21288 0.0
C952 C 0.31847 0.92979 0.23399 0.0
C953 C 0.30815 0.9453 0.26115 0.0
C954 C 0.38522 0.85601 0.28996 0.0
C955 C 0.35207 0.89612 0.26155 0.0
C956 C 0.40734 0.83191 0.28995 0.0
C957 C 0.41966 0.82198 0.26261 0.0
C958 C 0.3753 0.87003 0.26242 0.0
C959 C 0.40902 0.83631 0.23555 0.0
C960 C 0.34043 0.90535 0.23407 0.0
C961 C 0.32049 0.93575 0.28808 0.0
N962 N 0.38744 0.8596 0.23614 0.0
N963 N 0.34179 0.91164 0.28763 0.0
H964 H 0.29862 0.4001 0.75454 0.0
H965 H 0.42973 0.36857 0.7618 0.0
H966 H 0.3218 0.47666 0.77046 0.0
H967 H 0.40585 0.29156 0.76904 0.0
H968 H 0.39041 0.40845 0.76288 0.0
H969 H 0.33781 0.36013 0.75754 0.0
C970 C 0.31196 0.40858 0.75861 0.0
C971 C 0.30692 0.44188 0.76203 0.0
C972 C 0.39374 0.38286 0.76437 0.0
C973 C 0.3519 0.39602 0.76552 0.0
C974 C 0.4162 0.35999 0.76361 0.0
C975 C 0.42108 0.3266 0.76508 0.0
C976 C 0.37595 0.37233 0.76629 0.0
C977 C 0.40285 0.31703 0.76777 0.0
C978 C 0.33433 0.38565 0.76047 0.0
C979 C 0.32491 0.45128 0.76757 0.0
N980 N 0.38104 0.33982 0.76805 0.0
N981 N 0.34665 0.42844 0.76895 0.0
H982 H 0.16546 0.74791 0.51501 0.0
H983 H 0.07153 0.85619 0.63489 0.0
H984 H 0.16468 0.83572 0.55594 0.0
H985 H 0.07049 0.77042 0.59213 0.0
H986 H 0.10321 0.85244 0.60164 0.0
H987 H 0.1282 0.75929 0.53807 0.0
C988 C 0.15735 0.7698 0.52853 0.0
C989 C 0.16839 0.79066 0.5339 0.0
C990 C 0.09594 0.83459 0.59928 0.0
C991 C 0.12579 0.80366 0.56053 0.0
C992 C 0.07793 0.83664 0.61837 0.0
C993 C 0.0686 0.81331 0.61653 0.0
C994 C 0.10483 0.80888 0.57831 0.0
C995 C 0.0772 0.7889 0.59429 0.0
C996 C 0.13606 0.77625 0.54172 0.0
C997 C 0.15695 0.81877 0.55141 0.0
N998 N 0.09503 0.78708 0.57627 0.0
N999 N 0.13641 0.82424 0.56438 0.0
H1000 H 0.23796 0.97726 0.37109 0.0
H1001 H 0.22448 0.81075 0.41009 0.0
H1002 H 0.23512 0.91013 0.30302 0.0
H1003 H 0.24359 0.86487 0.47698 0.0
H1004 H 0.22498 0.84956 0.3714 0.0
H1005 H 0.23687 0.93928 0.41061 0.0
C1006 C 0.23703 0.95464 0.36436 0.0
C1007 C 0.23665 0.94708 0.33345 0.0
C1008 C 0.22904 0.85303 0.39453 0.0
C1009 C 0.23525 0.90331 0.37892 0.0
C1010 C 0.22867 0.83087 0.41679 0.0
C1011 C 0.23396 0.83434 0.4471 0.0
C1012 C 0.23454 0.87934 0.4024 0.0
C1013 C 0.23938 0.86102 0.45403 0.0
C1014 C 0.23648 0.93287 0.38702 0.0
C1015 C 0.23553 0.91717 0.3264 0.0
N1016 N 0.23945 0.88243 0.43198 0.0
N1017 N 0.23478 0.89661 0.34881 0.0
H1018 H 0.00637 0.70324 0.66714 0.0
H1019 H 0.96478 0.56282 0.61957 0.0
H1020 H 0.967 0.66853 0.72631 0.0
H1021 H 0.00303 0.59891 0.55983 0.0
H1022 H 0.96535 0.60122 0.65867 0.0
H1023 H 0.00535 0.66535 0.62783 0.0
C1024 C -0.0025 0.6877 0.67198 0.0
C1025 C 0.98675 0.68933 0.70035 0.0
C1026 C 0.97359 0.60082 0.637 0.0
C1027 C 0.98552 0.64545 0.65494 0.0
C1028 C 0.97325 0.57884 0.61453 0.0
C1029 C 0.98382 0.57744 0.58608 0.0
C1030 C 0.98462 0.62179 0.63127 0.0
C1031 C -0.00544 0.59897 0.58124 0.0
C1032 C -0.00308 0.66599 0.64939 0.0
C1033 C 0.97554 0.66835 0.70495 0.0
N1034 N -0.0053 0.62007 0.60348 0.0
N1035 N 0.97524 0.64742 0.68262 0.0
H1036 H 0.32209 0.72645 0.53145 0.0
H1037 H 0.38751 0.77282 0.39721 0.0
H1038 H 0.29401 0.7602 0.44325 0.0
H1039 H 0.42408 0.69264 0.45656 0.0
H1040 H 0.35234 0.78114 0.42449 0.0
H1041 H 0.35916 0.72466 0.51304 0.0
C1042 C 0.32374 0.73346 0.50833 0.0
C1043 C 0.30516 0.743 0.48865 0.0
C1044 C 0.36814 0.76204 0.43182 0.0
C1045 C 0.34674 0.74209 0.46811 0.0
C1046 C 0.38827 0.75746 0.41649 0.0
C1047 C 0.40875 0.73184 0.42451 0.0
C1048 C 0.36841 0.74096 0.45543 0.0
C1049 C 0.40857 0.7124 0.44944 0.0
C1050 C 0.34476 0.73246 0.49794 0.0
C1051 C 0.30802 0.75211 0.459 0.0
N1052 N 0.3886 0.71718 0.46397 0.0
N1053 N 0.32835 0.7516 0.44971 0.0
H1054 H 0.22065 0.06136 0.16027 0.0
H1055 H 0.25702 0.20675 0.11111 0.0
H1056 H 0.26025 0.09684 0.21675 0.0
H1057 H 0.22159 0.16657 0.05222 0.0
H1058 H 0.25785 0.16746 0.15015 0.0
H1059 H 0.22034 0.10009 0.12096 0.0
C1060 C 0.22933 0.07722 0.16449 0.0
C1061 C 0.24052 0.07558 0.1921 0.0
C1062 C 0.24992 0.16717 0.12869 0.0
C1063 C 0.24014 0.12048 0.14676 0.0
C1064 C 0.24942 0.18969 0.10627 0.0
C1065 C 0.23924 0.19018 0.07807 0.0
C1066 C 0.24009 0.14478 0.12317 0.0
C1067 C 0.22968 0.16728 0.07345 0.0
C1068 C 0.22914 0.09941 0.14191 0.0
C1069 C 0.25142 0.09698 0.19596 0.0
N1070 N 0.23031 0.14569 0.09565 0.0
N1071 N 0.25092 0.11845 0.17369 0.0
H1072 H 0.79241 0.7774 0.95337 0.0
H1073 H 0.9244 0.68974 0.9661 0.0
H1074 H 0.82153 0.72634 0.03561 0.0
H1075 H 0.89121 0.77683 0.91332 0.0
H1076 H 0.88823 0.70146 0.99322 0.0
H1077 H 0.82949 0.77586 0.93846 0.0
C1078 C 0.80673 0.76581 0.96828 0.0
C1079 C 0.80414 0.75155 0.9955 0.0
C1080 C 0.88912 0.71835 0.97623 0.0
C1081 C 0.84666 0.74957 0.97856 0.0
C1082 C 0.90967 0.71163 0.96067 0.0
C1083 C 0.91076 0.73212 0.93714 0.0
C1084 C 0.86958 0.74537 0.96774 0.0
C1085 C 0.89126 0.76037 0.93129 0.0
C1086 C 0.82783 0.76523 0.95993 0.0
C1087 C 0.82304 0.7374 0.01433 0.0
N1088 N 0.87139 0.7658 0.94607 0.0
N1089 N 0.84377 0.73618 1.00522 0.0
H1090 H 0.23124 0.61595 0.72168 0.0
H1091 H 0.25195 0.6481 0.54618 0.0
H1092 H 0.25062 0.54043 0.65353 0.0
H1093 H 0.23064 0.72237 0.6156 0.0
H1094 H 0.25221 0.6081 0.58448 0.0
H1095 H 0.23157 0.65459 0.68287 0.0
C1096 C 0.23561 0.60735 0.69857 0.0
C1097 C 0.24093 0.5746 0.69113 0.0
C1098 C 0.24751 0.63315 0.59133 0.0
C1099 C 0.24134 0.61935 0.646 0.0
C1100 C 0.24739 0.65608 0.56942 0.0
C1101 C 0.24131 0.6889 0.57745 0.0
C1102 C 0.24154 0.6429 0.62169 0.0
C1103 C 0.23547 0.69752 0.60808 0.0
C1104 C 0.23578 0.62959 0.67629 0.0
C1105 C 0.24642 0.5653 0.66054 0.0
N1106 N 0.23575 0.67483 0.62887 0.0
N1107 N 0.24648 0.58745 0.63922 0.0
H1108 H 0.32166 0.01379 0.44291 0.0
H1109 H 0.41626 0.08314 0.46409 0.0
H1110 H 0.31587 0.10689 0.40876 0.0
H1111 H 0.41467 1.00387 0.51808 0.0
H1112 H 0.37824 0.09352 0.44589 0.0
H1113 H 0.35455 0.01045 0.47278 0.0
C1114 C 0.32714 0.03367 0.44196 0.0
C1115 C 0.31606 0.06058 0.42317 0.0
C1116 C 0.38601 0.07412 0.46204 0.0
C1117 C 0.35361 0.05687 0.45711 0.0
C1118 C 0.40774 0.06816 0.47239 0.0
C1119 C 0.41864 0.0425 0.49243 0.0
C1120 C 0.37522 0.05384 0.47128 0.0
C1121 C 0.4068 0.02396 0.50265 0.0
C1122 C 0.34581 0.03183 0.45912 0.0
C1123 C 0.32371 0.08581 0.42308 0.0
N1124 N 0.38582 0.02965 0.49155 0.0
N1125 N 0.34214 0.08314 0.43945 0.0
H1126 H 0.79009 0.92209 0.06997 0.0
H1127 H 0.91635 0.87177 0.13257 0.0
H1128 H 0.82123 0.84432 0.13385 0.0
H1129 H 0.88528 0.94614 0.06553 0.0
H1130 H 0.88069 0.86406 0.1368 0.0
H1131 H 0.82379 0.93444 0.07186 0.0
C1132 C 0.80398 0.90778 0.08457 0.0
C1133 C 0.80297 0.882 0.10159 0.0
C1134 C 0.88171 0.88207 0.1212 0.0
C1135 C 0.84165 0.89584 0.1038 0.0
C1136 C 0.90201 0.88649 0.11881 0.0
C1137 C 0.90384 0.90934 0.09841 0.0
C1138 C 0.86312 0.90077 0.10315 0.0
C1139 C 0.88479 0.92775 0.08106 0.0
C1140 C 0.82322 0.91482 0.08567 0.0
C1141 C 0.82129 0.86453 0.1205 0.0
N1142 N 0.86526 0.92301 0.0838 0.0
N1143 N 0.84 0.87158 0.12089 0.0
H1144 H 0.65783 0.16766 0.38742 0.0
H1145 H 0.59211 0.06932 0.46592 0.0
H1146 H 0.68451 0.10167 0.46224 0.0
H1147 H 0.56337 0.14042 0.39542 0.0
H1148 H 0.62747 0.07727 0.46181 0.0
H1149 H 0.625 0.15327 0.38607 0.0
C1150 C 0.657 0.14967 0.40321 0.0
C1151 C 0.67389 0.13593 0.42508 0.0
C1152 C 0.61346 0.09111 0.4472 0.0
C1153 C 0.63609 0.11991 0.42408 0.0
C1154 C 0.59318 0.0868 0.4497 0.0
C1155 C 0.57465 0.10456 0.43123 0.0
C1156 C 0.61527 0.11335 0.42605 0.0
C1157 C 0.57725 0.12618 0.41005 0.0
C1158 C 0.63812 0.14171 0.40261 0.0
C1159 C 0.67172 0.11317 0.44529 0.0
N1160 N 0.59716 0.13009 0.40814 0.0
N1161 N 0.65307 0.10603 0.44443 0.0
H1162 H 0.79801 0.4066 0.27625 0.0
H1163 H 0.92765 0.3567 0.2369 0.0
H1164 H 0.82428 0.4794 0.25725 0.0
H1165 H 0.90632 0.3023 0.3019 0.0
H1166 H 0.88918 0.39977 0.23823 0.0
H1167 H 0.83703 0.36565 0.28024 0.0
C1168 C 0.81204 0.41392 0.27288 0.0
C1169 C 0.80802 0.44631 0.26615 0.0
C1170 C 0.89299 0.37846 0.25228 0.0
C1171 C 0.85253 0.39961 0.27042 0.0
C1172 C 0.91482 0.35376 0.25136 0.0
C1173 C 0.92006 0.3258 0.26915 0.0
C1174 C 0.87616 0.37484 0.27061 0.0
C1175 C 0.90292 0.32345 0.28779 0.0
C1176 C 0.83424 0.39061 0.27538 0.0
C1177 C 0.82674 0.45464 0.26242 0.0
N1178 N 0.88158 0.34753 0.28776 0.0
N1179 N 0.84829 0.43127 0.26417 0.0
H1180 H 0.06272 0.63369 0.4861 0.0
H1181 H 0.1784 0.61246 0.39953 0.0
H1182 H 0.08433 0.58164 0.40136 0.0
H1183 H 0.15422 0.66688 0.48269 0.0
H1184 H 0.14449 0.6001 0.39963 0.0
H1185 H 0.09654 0.64571 0.48495 0.0
C1186 C 0.07463 0.62481 0.46722 0.0
C1187 C 0.07081 0.60653 0.44386 0.0
C1188 C 0.14671 0.61462 0.4179 0.0
C1189 C 0.10958 0.62023 0.44231 0.0
C1190 C 0.16602 0.62169 0.41784 0.0
C1191 C 0.16923 0.64055 0.44123 0.0
C1192 C 0.13049 0.62661 0.44147 0.0
C1193 C 0.15273 0.65172 0.4645 0.0
C1194 C 0.09391 0.63173 0.46652 0.0
C1195 C 0.08658 0.59605 0.4197 0.0
N1196 N 0.13409 0.64463 0.46398 0.0
N1197 N 0.10537 0.60293 0.4196 0.0
H1198 H 0.67338 0.0976 0.80425 0.0
H1199 H 0.56064 0.18921 0.7114 0.0
H1200 H 0.66135 0.05864 0.72002 0.0
H1201 H 0.56203 0.1939 0.80909 0.0
H1202 H 0.59944 0.14652 0.71161 0.0
H1203 H 0.6341 0.13821 0.80415 0.0
C1204 C 0.66241 0.09757 0.78578 0.0
C1205 C 0.67054 0.0748 0.76211 0.0
C1206 C 0.59117 0.15694 0.73293 0.0
C1207 C 0.62581 0.12144 0.76163 0.0
C1208 C 0.56917 0.18143 0.73285 0.0
C1209 C 0.55818 0.1951 0.76029 0.0
C1210 C 0.60232 0.14663 0.7606 0.0
C1211 C 0.56988 0.18395 0.78744 0.0
C1212 C 0.64002 0.12066 0.78579 0.0
C1213 C 0.65563 0.07569 0.73878 0.0
N1214 N 0.59141 0.1605 0.7869 0.0
N1215 N 0.63396 0.09896 0.73893 0.0
H1216 H 0.73057 0.61989 0.22231 0.0
H1217 H 0.75403 0.65095 0.04754 0.0
H1218 H 0.7533 0.54307 0.15534 0.0
H1219 H 0.7273 0.72662 0.11527 0.0
H1220 H 0.7549 0.61081 0.08606 0.0
H1221 H 0.73034 0.65853 0.18323 0.0
C1222 C 0.73558 0.61099 0.1994 0.0
C1223 C 0.74199 0.57787 0.19239 0.0
C1224 C 0.74886 0.6362 0.09248 0.0
C1225 C 0.74174 0.62267 0.1469 0.0
C1226 C 0.74839 0.65922 0.07045 0.0
C1227 C 0.74061 0.69248 0.07794 0.0
C1228 C 0.74157 0.6463 0.12244 0.0
C1229 C 0.73345 0.70143 0.10816 0.0
C1230 C 0.73541 0.63324 0.17696 0.0
C1231 C 0.74823 0.56823 0.16202 0.0
N1232 N 0.73414 0.67865 0.12908 0.0
N1233 N 0.74797 0.59041 0.14052 0.0
H1234 H 0.91448 0.49441 0.51596 0.0
H1235 H 0.81963 0.60834 0.40262 0.0
H1236 H 0.91515 0.58187 0.4759 0.0
H1237 H 0.82237 0.51648 0.43609 0.0
H1238 H 0.85136 0.60307 0.43527 0.0
H1239 H 0.87759 0.50633 0.49298 0.0
C1240 C 0.90678 0.51634 0.50263 0.0
C1241 C 0.9181 0.53697 0.49754 0.0
C1242 C 0.84492 0.58417 0.43567 0.0
C1243 C 0.87589 0.55059 0.471 0.0
C1244 C 0.82669 0.58726 0.41716 0.0
C1245 C 0.81842 0.56269 0.41647 0.0
C1246 C 0.855 0.5563 0.45362 0.0
C1247 C 0.82846 0.53573 0.43552 0.0
C1248 C 0.88571 0.52307 0.48945 0.0
C1249 C 0.90716 0.56511 0.48023 0.0
N1250 N 0.84631 0.53316 0.45319 0.0
N1251 N 0.88676 0.57093 0.46735 0.0
H1252 H 0.13483 0.51557 0.63362 0.0
H1253 H 0.07018 0.47646 0.49741 0.0
H1254 H 0.17366 0.44602 0.56511 0.0
H1255 H 0.0457 0.49086 0.59022 0.0
H1256 H 0.10674 0.47608 0.51478 0.0
H1257 H 0.0998 0.52022 0.60924 0.0
C1258 C 0.13603 0.50188 0.61298 0.0
C1259 C 0.1572 0.48028 0.60141 0.0
C1260 C 0.09328 0.47914 0.53114 0.0
C1261 C 0.11709 0.48514 0.57377 0.0
C1262 C 0.07253 0.47929 0.52135 0.0
C1263 C 0.05498 0.48339 0.54245 0.0
C1264 C 0.09601 0.48409 0.56199 0.0
C1265 C 0.0588 0.48724 0.57317 0.0
C1266 C 0.11601 0.50428 0.59931 0.0
C1267 C 0.15763 0.46271 0.57487 0.0
N1268 N 0.07879 0.4878 0.58193 0.0
N1269 N 0.13778 0.46538 0.56191 0.0
H1270 H 0.57517 0.76058 0.09462 0.0
H1271 H 0.65869 0.84054 0.03862 0.0
H1272 H 0.5595 0.86324 0.10279 0.0
H1273 H 0.66873 0.74187 0.01695 0.0
H1274 H 0.62055 0.85071 0.05775 0.0
H1275 H 0.60739 0.75452 0.06152 0.0
C1276 C 0.57823 0.78199 0.08905 0.0
C1277 C 0.56476 0.8124 0.10191 0.0
C1278 C 0.63096 0.82696 0.04844 0.0
C1279 C 0.60199 0.80545 0.0645 0.0
C1280 C 0.65278 0.82111 0.03754 0.0
C1281 C 0.66705 0.79016 0.02658 0.0
C1282 C 0.62347 0.80156 0.04871 0.0
C1283 C 0.65839 0.76603 0.02544 0.0
C1284 C 0.59674 0.77846 0.07025 0.0
C1285 C 0.56976 0.83916 0.09404 0.0
N1286 N 0.63727 0.77211 0.03681 0.0
N1287 N 0.58813 0.83498 0.07618 0.0
H1288 H 0.6705 0.46492 0.07192 0.0
H1289 H 0.5539 0.43962 0.07218 0.0
H1290 H 0.64017 0.44257 0.1518 0.0
H1291 H 0.56988 0.49855 1.00606 0.0
H1292 H 0.59092 0.42685 0.09556 0.0
H1293 H 0.63858 0.46435 0.04187 0.0
C1294 C 0.65723 0.45955 0.08297 0.0
C1295 C 0.65765 0.45422 0.11431 0.0
C1296 C 0.58639 0.44222 0.07568 0.0
C1297 C 0.6216 0.45306 0.08037 0.0
C1298 C 0.56535 0.44936 0.06223 0.0
C1299 C 0.55871 0.47052 0.03741 0.0
C1300 C 0.60091 0.45606 0.064 0.0
C1301 C 0.57423 0.48248 0.02545 0.0
C1302 C 0.63909 0.45928 0.06593 0.0
C1303 C 0.64018 0.44729 0.12772 0.0
N1304 N 0.59458 0.47526 0.039 0.0
N1305 N 0.62281 0.44698 0.11068 0.0
H1306 H 0.40699 0.39119 0.1254 0.0
H1307 H 0.28393 0.42853 0.05923 0.0
H1308 H 0.3725 0.47017 0.06386 0.0
H1309 H 0.31419 0.36018 0.13129 0.0
H1310 H 0.31545 0.44592 0.06204 0.0
H1311 H 0.37238 0.38118 0.12957 0.0
C1312 C 0.39207 0.40666 0.11301 0.0
C1313 C 0.39273 0.43138 0.09404 0.0
C1314 C 0.31505 0.42739 0.07748 0.0
C1315 C 0.35314 0.41974 0.09837 0.0
C1316 C 0.29711 0.41743 0.07582 0.0
C1317 C 0.29653 0.39281 0.09496 0.0
C1318 C 0.33263 0.41235 0.09821 0.0
C1319 C 0.31388 0.37944 0.11627 0.0
C1320 C 0.37233 0.40085 0.1153 0.0
C1321 C 0.37294 0.45039 0.07824 0.0
N1322 N 0.33136 0.38914 0.11711 0.0
N1323 N 0.354 0.44402 0.08059 0.0
H1324 H 0.07102 0.22777 0.25898 0.0
H1325 H 0.15654 0.03994 0.2569 0.0
H1326 H 0.04901 0.14939 0.27147 0.0
H1327 H 0.17819 0.11845 0.2702 0.0
H1328 H 0.11691 0.07978 0.25642 0.0
H1329 H 0.11058 0.18782 0.2572 0.0
C1330 C 0.07449 0.2022 0.26132 0.0
C1331 C 0.0567 0.19192 0.26557 0.0
C1332 C 0.13038 0.08819 0.25949 0.0
C1333 C 0.10181 0.14618 0.26337 0.0
C1334 C 0.15298 0.0655 0.2597 0.0
C1335 C 0.17069 0.07585 0.26378 0.0
C1336 C 0.12553 0.12143 0.26304 0.0
C1337 C 0.16509 0.1093 0.26724 0.0
C1338 C 0.09705 0.17943 0.26037 0.0
C1339 C 0.06219 0.15845 0.2684 0.0
N1340 N 0.14301 0.13089 0.26672 0.0
N1341 N 0.08426 0.13676 0.26719 0.0
H1342 H 0.23198 0.3009 0.90483 0.0
H1343 H 0.24649 0.46602 0.86534 0.0
H1344 H 0.23478 0.36729 0.9737 0.0
H1345 H 0.22373 0.41455 0.80003 0.0
H1346 H 0.24528 0.42809 0.90462 0.0
H1347 H 0.23189 0.33985 0.86584 0.0
C1348 C 0.23256 0.32366 0.91185 0.0
C1349 C 0.23334 0.33065 0.94283 0.0
C1350 C 0.24049 0.42511 0.88173 0.0
C1351 C 0.23348 0.37557 0.89783 0.0
C1352 C 0.24124 0.44676 0.85916 0.0
C1353 C 0.23518 0.44369 0.8291 0.0
C1354 C 0.23395 0.39965 0.87435 0.0
C1355 C 0.22847 0.41811 0.82278 0.0
C1356 C 0.23245 0.34598 0.88947 0.0
C1357 C 0.23404 0.36074 0.95024 0.0
N1358 N 0.22818 0.39708 0.84505 0.0
N1359 N 0.23424 0.38187 0.92801 0.0
H1360 H 0.312 0.18547 0.97526 0.0
H1361 H 0.40333 0.25938 0.93543 0.0
H1362 H 0.30619 0.27998 1.0056 0.0
H1363 H 0.40826 0.16569 0.9041 0.0
H1364 H 0.37011 0.26466 0.9664 0.0
H1365 H 0.34983 0.17487 0.95464 0.0
C1366 C 0.31875 0.20387 0.97789 0.0
C1367 C 0.30576 0.23383 0.99185 0.0
C1368 C 0.37861 0.24279 0.95299 0.0
C1369 C 0.34902 0.22193 0.96807 0.0
C1370 C 0.3975 0.23985 0.9352 0.0
C1371 C 0.40846 0.21218 0.91695 0.0
C1372 C 0.37055 0.21798 0.95238 0.0
C1373 C 0.40044 0.18735 0.91796 0.0
C1374 C 0.34037 0.19781 0.96606 0.0
C1375 C 0.3155 0.25664 0.99478 0.0
N1376 N 0.38184 0.19098 0.93513 0.0
N1377 N 0.33644 0.25034 0.98269 0.0
H1378 H 0.40996 0.52355 0.01915 0.0
H1379 H 0.33991 0.57542 0.86683 0.0
H1380 H 0.42668 0.57375 0.94541 0.0
H1381 H 0.31221 0.54837 0.94666 0.0
H1382 H 0.3716 0.57555 0.8966 0.0
H1383 H 0.37337 0.53398 0.99508 0.0
C1384 C 0.40577 0.53731 0.99826 0.0
C1385 C 0.42151 0.54743 0.98403 0.0
C1386 C 0.35857 0.56978 0.90779 0.0
C1387 C 0.38002 0.55899 0.95635 0.0
C1388 C 0.34058 0.56948 0.89072 0.0
C1389 C 0.32365 0.56152 0.9043 0.0
C1390 C 0.35986 0.56164 0.93868 0.0
C1391 C 0.32504 0.55456 0.93543 0.0
C1392 C 0.38494 0.54312 0.9845 0.0
C1393 C 0.41524 0.56503 0.95696 0.0
N1394 N 0.34305 0.55439 0.95159 0.0
N1395 N 0.39513 0.56991 0.94387 0.0
H1396 H 0.69372 0.59536 0.96594 0.0
H1397 H 0.57086 0.63402 0.89702 0.0
H1398 H 0.66471 0.66273 0.89275 0.0
H1399 H 0.60142 0.56243 0.96658 0.0
H1400 H 0.60605 0.64269 0.89317 0.0
H1401 H 0.66106 0.58038 0.96442 0.0
C1402 C 0.68059 0.60673 0.94936 0.0
C1403 C 0.68187 0.6304 0.92953 0.0
C1404 C 0.60508 0.62501 0.90922 0.0
C1405 C 0.64444 0.61361 0.92776 0.0
C1406 C 0.58501 0.62002 0.91137 0.0
C1407 C 0.58314 0.59767 0.93232 0.0
C1408 C 0.62339 0.60757 0.92818 0.0
C1409 C 0.60195 0.58039 0.95055 0.0
C1410 C 0.66197 0.59818 0.94847 0.0
C1411 C 0.66452 0.64414 0.90826 0.0
N1412 N 0.62126 0.58578 0.94812 0.0
N1413 N 0.64641 0.63577 0.90813 0.0
H1414 H 0.91324 0.82048 0.81626 0.0
H1415 H 0.81054 0.93291 0.71194 0.0
H1416 H 0.91779 0.82304 0.71858 0.0
H1417 H 0.81245 0.94736 0.80851 0.0
H1418 H 0.84856 0.88911 0.71424 0.0
H1419 H 0.8746 0.86309 0.81417 0.0
C1420 C 0.90606 0.82979 0.79438 0.0
C1421 C 0.91878 0.81828 0.76756 0.0
C1422 C 0.84068 0.90195 0.73491 0.0
C1423 C 0.87471 0.867 0.76504 0.0
C1424 C 0.81898 0.92697 0.73361 0.0
C1425 C 0.80831 0.94389 0.76006 0.0
C1426 C 0.85172 0.89356 0.76289 0.0
C1427 C 0.82006 0.93509 0.78752 0.0
C1428 C 0.88407 0.85424 0.79322 0.0
C1429 C 0.90865 0.83132 0.73984 0.0
N1430 N 0.84111 0.91042 0.78825 0.0
N1431 N 0.88722 0.85497 0.7393 0.0
H1432 H 0.49502 0.15442 0.72181 0.0
H1433 H 0.47747 0.12377 0.54572 0.0
H1434 H 0.47898 0.2298 0.6544 0.0
H1435 H 0.49454 0.04988 0.61472 0.0
H1436 H 0.47746 0.16312 0.58445 0.0
H1437 H 0.49445 0.11648 0.68259 0.0
C1438 C 0.49134 0.16315 0.69877 0.0
C1439 C 0.48703 0.19566 0.69168 0.0
C1440 C 0.48118 0.13831 0.59112 0.0
C1441 C 0.48636 0.15166 0.64603 0.0
C1442 C 0.48116 0.11574 0.56896 0.0
C1443 C 0.48598 0.0832 0.57673 0.0
C1444 C 0.48603 0.12849 0.62148 0.0
C1445 C 0.4907 0.07451 0.60738 0.0
C1446 C 0.49103 0.14129 0.67625 0.0
C1447 C 0.4824 0.20511 0.66115 0.0
N1448 N 0.4906 0.09686 0.62842 0.0
N1449 N 0.48219 0.18332 0.63957 0.0
H1450 H 0.47046 0.31239 0.86405 0.0
H1451 H 0.51436 0.44978 0.91345 0.0
H1452 H 0.51343 0.34297 0.80727 0.0
H1453 H 0.4708 0.41999 0.9699 0.0
H1454 H 0.51459 0.41051 0.87482 0.0
H1455 H 0.4708 0.35092 0.9031 0.0
C1456 C 0.48003 0.3271 0.85971 0.0
C1457 C 0.49196 0.32417 0.83208 0.0
C1458 C 0.505 0.41248 0.89566 0.0
C1459 C 0.49236 0.36882 0.87716 0.0
C1460 C 0.50486 0.43498 0.91786 0.0
C1461 C 0.49256 0.43841 0.94524 0.0
C1462 C 0.49274 0.39299 0.9006 0.0
C1463 C 0.48058 0.41837 0.9493 0.0
C1464 C 0.48019 0.34922 0.88214 0.0
C1465 C 0.50398 0.34416 0.82807 0.0
N1466 N 0.48097 0.39667 0.92735 0.0
N1467 N 0.50386 0.3655 0.85023 0.0
H1468 H 0.48915 0.79512 0.3704 0.0
H1469 H 0.49982 0.96387 0.40726 0.0
H1470 H 0.49132 0.862 0.30141 0.0
H1471 H 0.48157 0.90921 0.47528 0.0
H1472 H 0.49978 0.92457 0.36883 0.0
H1473 H 0.48931 0.83405 0.40941 0.0
C1474 C 0.48974 0.81789 0.36336 0.0
C1475 C 0.49024 0.82507 0.33234 0.0
C1476 C 0.49579 0.92111 0.39215 0.0
C1477 C 0.49053 0.86998 0.37725 0.0
C1478 C 0.49588 0.94357 0.41424 0.0
C1479 C 0.49071 0.94007 0.4448 0.0
C1480 C 0.49074 0.89445 0.40045 0.0
C1481 C 0.48565 0.91312 0.45213 0.0
C1482 C 0.48975 0.84021 0.38574 0.0
C1483 C 0.49086 0.85522 0.32489 0.0
N1484 N 0.48588 0.8914 0.43025 0.0
N1485 N 0.49109 0.87633 0.34704 0.0
H1486 H 0.48457 0.55225 0.11566 0.0
H1487 H 0.50093 0.71592 0.15595 0.0
H1488 H 0.49257 0.61526 0.04681 0.0
H1489 H 0.47658 0.66472 0.22055 0.0
H1490 H 0.50063 0.67777 0.11632 0.0
H1491 H 0.48428 0.59121 0.15451 0.0
C1492 C 0.48629 0.57426 0.10859 0.0
C1493 C 0.48857 0.58027 0.07764 0.0
C1494 C 0.49532 0.6749 0.13914 0.0
C1495 C 0.48841 0.62537 0.12262 0.0
C1496 C 0.49554 0.69668 0.16192 0.0
C1497 C 0.48875 0.69376 0.19189 0.0
C1498 C 0.48852 0.64954 0.14623 0.0
C1499 C 0.4819 0.6682 0.19791 0.0
C1500 C 0.48606 0.59663 0.13093 0.0
C1501 C 0.49067 0.60948 0.07024 0.0
N1502 N 0.48208 0.64714 0.17545 0.0
N1503 N 0.49066 0.63075 0.09248 0.0
loop_
_geom_bond_atom_site_label_1
_geom_bond_atom_site_label_2
_geom_bond_distance
_geom_bond_site_symmetry_2
_ccdc_geom_bond_type
Dy0 O3 2.307 1_655 S
Dy0 O5 2.395 . S
Dy0 O6 2.379 . S
Dy0 O8 2.339 1_565 S
Dy0 O10 2.298 1_564 S
Dy0 O14 2.275 1_654 S
Dy0 C22 2.738 . S
Dy1 O4 2.298 1_546 S
Dy1 O7 2.275 1_456 S
Dy1 O9 2.307 1_455 S
Dy1 O11 2.395 . S
Dy1 O12 2.379 . S
Dy1 O15 2.339 1_545 S
Dy1 C31 2.738 . S
C2 O14 1.254 . S
C2 O15 1.257 . S
O3 Dy0 2.307 1_455 S
O3 C13 1.266 . S
O4 Dy1 2.298 1_564 S
O4 C13 1.236 . S
O5 Dy0 2.395 . S
O5 C22 1.255 . S
O6 Dy0 2.379 . S
O6 C22 1.249 . S
O7 Dy1 2.275 1_654 S
O7 C23 1.254 . S
O8 Dy0 2.339 1_545 S
O8 C23 1.257 . S
O9 Dy1 2.307 1_655 S
O9 C24 1.266 . S
O10 Dy0 2.298 1_546 S
O10 C24 1.236 . S
O11 Dy1 2.395 . S
O11 C31 1.255 . S
O12 Dy1 2.379 . S
O12 C31 1.249 . S
C13 O3 1.266 . S
C13 O4 1.236 . S
O14 Dy0 2.275 1_456 S
O14 C2 1.254 . S
O15 Dy1 2.339 1_565 S
O15 C2 1.257 . S
C16 C19 1.344 . S
C16 C20 1.328 . S
C16 C22 1.516 . S
C17 C18 1.304 . S
C17 C21 1.323 . S
C18 C17 1.304 . S
C18 C19 1.371 . S
C18 H32 0.930 1_554 S
C19 C16 1.344 . S
C19 C18 1.371 . S
C19 H33 0.931 1_554 S
C20 C16 1.328 . S
C20 C21 1.433 . S
C20 H34 0.931 . S
C21 C17 1.323 . S
C21 C20 1.433 . S
C21 H35 0.933 . S
C22 Dy0 2.738 . S
C22 O5 1.255 . S
C22 O6 1.249 . S
C22 C16 1.516 . S
C23 O7 1.254 . S
C23 O8 1.257 . S
C24 O9 1.266 . S
C24 O10 1.236 . S
C25 C28 1.344 . S
C25 C29 1.328 . S
C25 C31 1.516 . S
C26 C27 1.304 . S
C26 C30 1.323 . S
C27 C26 1.304 . S
C27 C28 1.371 . S
C27 H36 0.930 1_556 S
C28 C25 1.344 . S
C28 C27 1.371 . S
C28 H37 0.931 1_556 S
C29 C25 1.328 . S
C29 C30 1.433 . S
C29 H38 0.931 . S
C30 C26 1.323 . S
C30 C29 1.433 . S
C30 H39 0.933 . S
C31 Dy1 2.738 . S
C31 O11 1.255 . S
C31 O12 1.249 . S
C31 C25 1.516 . S
H32 C18 0.930 1_556 S
H33 C19 0.931 1_556 S
H34 C20 0.931 . S
H35 C21 0.933 . S
H36 C27 0.930 1_554 S
H37 C28 0.931 1_554 S
H38 C29 0.931 . S
H39 C30 0.933 . S
Dy40 O43 2.307 . S
Dy40 O45 2.395 . S
Dy40 O46 2.379 . S
Dy40 O48 2.339 1_655 S
Dy40 O50 2.298 . S
Dy40 O54 2.275 . S
Dy40 C62 2.738 . S
Dy41 O44 2.298 . S
Dy41 O47 2.275 . S
Dy41 O49 2.307 . S
Dy41 O51 2.395 . S
Dy41 O52 2.379 . S
Dy41 O55 2.339 1_455 S
Dy41 C71 2.738 . S
C42 O54 1.254 . S
C42 O55 1.257 . S
O43 Dy40 2.307 . S
O43 C53 1.266 1_655 S
O44 Dy41 2.298 . S
O44 C53 1.236 . S
O45 Dy40 2.395 . S
O45 C62 1.255 . S
O46 Dy40 2.379 . S
O46 C62 1.249 . S
O47 Dy41 2.275 . S
O47 C63 1.254 . S
O48 Dy40 2.339 1_455 S
O48 C63 1.257 . S
O49 Dy41 2.307 . S
O49 C64 1.266 1_455 S
O50 Dy40 2.298 . S
O50 C64 1.236 . S
O51 Dy41 2.395 . S
O51 C71 1.255 . S
O52 Dy41 2.379 . S
O52 C71 1.249 . S
C53 O43 1.266 1_455 S
C53 O44 1.236 . S
O54 Dy40 2.275 . S
O54 C42 1.254 . S
O55 Dy41 2.339 1_655 S
O55 C42 1.257 . S
C56 C59 1.344 . S
C56 C60 1.328 . S
C56 C62 1.516 . S
C57 C58 1.304 . S
C57 C61 1.323 . S
C58 C57 1.304 . S
C58 C59 1.371 . S
C58 H72 0.930 . S
C59 C56 1.344 . S
C59 C58 1.371 . S
C59 H73 0.931 . S
C60 C56 1.328 . S
C60 C61 1.433 . S
C60 H74 0.931 . S
C61 C57 1.323 . S
C61 C60 1.433 . S
C61 H75 0.933 . S
C62 Dy40 2.738 . S
C62 O45 1.255 . S
C62 O46 1.249 . S
C62 C56 1.516 . S
C63 O47 1.254 . S
C63 O48 1.257 . S
C64 O49 1.266 1_655 S
C64 O50 1.236 . S
C65 C68 1.344 . S
C65 C69 1.328 . S
C65 C71 1.516 . S
C66 C67 1.304 . S
C66 C70 1.323 . S
C67 C66 1.304 . S
C67 C68 1.371 . S
C67 H76 0.930 . S
C68 C65 1.344 . S
C68 C67 1.371 . S
C68 H77 0.931 . S
C69 C65 1.328 . S
C69 C70 1.433 . S
C69 H78 0.931 . S
C70 C66 1.323 . S
C70 C69 1.433 . S
C70 H79 0.933 . S
C71 Dy41 2.738 . S
C71 O51 1.255 . S
C71 O52 1.249 . S
C71 C65 1.516 . S
H72 C58 0.930 . S
H73 C59 0.931 . S
H74 C60 0.931 . S
H75 C61 0.933 . S
H76 C67 0.930 . S
H77 C68 0.931 . S
H78 C69 0.931 . S
H79 C70 0.933 . S
Dy80 O83 2.307 . S
Dy80 O85 2.395 . S
Dy80 O86 2.379 . S
Dy80 O88 2.339 . S
Dy80 O90 2.298 . S
Dy80 O94 2.275 . S
Dy80 C102 2.738 . S
Dy81 O84 2.298 . S
Dy81 O87 2.275 . S
Dy81 O89 2.307 . S
Dy81 O91 2.395 . S
Dy81 O92 2.379 . S
Dy81 O95 2.339 . S
Dy81 C111 2.738 . S
C82 O94 1.254 . S
C82 O95 1.257 . S
O83 Dy80 2.307 . S
O83 C93 1.266 . S
O84 Dy81 2.298 . S
O84 C93 1.236 . S
O85 Dy80 2.395 . S
O85 C102 1.255 . S
O86 Dy80 2.379 . S
O86 C102 1.249 . S
O87 Dy81 2.275 . S
O87 C103 1.254 . S
O88 Dy80 2.339 . S
O88 C103 1.257 . S
O89 Dy81 2.307 . S
O89 C104 1.266 . S
O90 Dy80 2.298 . S
O90 C104 1.236 . S
O91 Dy81 2.395 . S
O91 C111 1.255 . S
O92 Dy81 2.379 . S
O92 C111 1.249 . S
C93 O83 1.266 . S
C93 O84 1.236 . S
O94 Dy80 2.275 . S
O94 C82 1.254 . S
O95 Dy81 2.339 . S
O95 C82 1.257 . S
C96 C99 1.344 . S
C96 C100 1.328 . S
C96 C102 1.516 . S
C97 C98 1.304 . S
C97 C101 1.323 . S
C98 C97 1.304 . S
C98 C99 1.371 . S
C98 H112 0.930 . S
C99 C96 1.344 . S
C99 C98 1.371 . S
C99 H113 0.931 . S
C100 C96 1.328 . S
C100 C101 1.433 . S
C100 H114 0.931 . S
C101 C97 1.323 . S
C101 C100 1.433 . S
C101 H115 0.933 . S
C102 Dy80 2.738 . S
C102 O85 1.255 . S
C102 O86 1.249 . S
C102 C96 1.516 . S
C103 O87 1.254 . S
C103 O88 1.257 . S
C104 O89 1.266 . S
C104 O90 1.236 . S
C105 C108 1.344 . S
C105 C109 1.328 . S
C105 C111 1.516 . S
C106 C107 1.304 . S
C106 C110 1.323 . S
C107 C106 1.304 . S
C107 C108 1.371 . S
C107 H116 0.930 . S
C108 C105 1.344 . S
C108 C107 1.371 . S
C108 H117 0.931 . S
C109 C105 1.328 . S
C109 C110 1.433 . S
C109 H118 0.931 . S
C110 C106 1.323 . S
C110 C109 1.433 . S
C110 H119 0.933 . S
C111 Dy81 2.738 . S
C111 O91 1.255 . S
C111 O92 1.249 . S
C111 C105 1.516 . S
H112 C98 0.930 . S
H113 C99 0.931 . S
H114 C100 0.931 . S
H115 C101 0.933 . S
H116 C107 0.930 . S
H117 C108 0.931 . S
H118 C109 0.931 . S
H119 C110 0.933 . S
Dy120 O123 2.307 . S
Dy120 O125 2.395 1_545 S
Dy120 O126 2.379 . S
Dy120 O128 2.339 . S
Dy120 O130 2.298 1_545 S
Dy120 O134 2.275 1_545 S
Dy120 C142 2.738 . S
Dy121 O124 2.298 1_565 S
Dy121 O127 2.275 1_565 S
Dy121 O129 2.307 . S
Dy121 O131 2.395 1_565 S
Dy121 O132 2.379 . S
Dy121 O135 2.339 . S
Dy121 C151 2.738 . S
C122 O134 1.254 . S
C122 O135 1.257 . S
O123 Dy120 2.307 . S
O123 C133 1.266 . S
O124 Dy121 2.298 1_545 S
O124 C133 1.236 . S
O125 Dy120 2.395 1_565 S
O125 C142 1.255 1_565 S
O126 Dy120 2.379 . S
O126 C142 1.249 . S
O127 Dy121 2.275 1_545 S
O127 C143 1.254 . S
O128 Dy120 2.339 . S
O128 C143 1.257 . S
O129 Dy121 2.307 . S
O129 C144 1.266 . S
O130 Dy120 2.298 1_565 S
O130 C144 1.236 . S
O131 Dy121 2.395 1_545 S
O131 C151 1.255 1_545 S
O132 Dy121 2.379 . S
O132 C151 1.249 . S
C133 O123 1.266 . S
C133 O124 1.236 . S
O134 Dy120 2.275 1_565 S
O134 C122 1.254 . S
O135 Dy121 2.339 . S
O135 C122 1.257 . S
C136 C139 1.344 1_545 S
C136 C140 1.328 . S
C136 C142 1.516 . S
C137 C138 1.304 1_545 S
C137 C141 1.323 . S
C138 C137 1.304 1_565 S
C138 C139 1.371 . S
C138 H152 0.930 . S
C139 C136 1.344 1_565 S
C139 C138 1.371 . S
C139 H153 0.931 . S
C140 C136 1.328 . S
C140 C141 1.433 . S
C140 H154 0.931 . S
C141 C137 1.323 . S
C141 C140 1.433 . S
C141 H155 0.933 . S
C142 Dy120 2.738 . S
C142 O125 1.255 1_545 S
C142 O126 1.249 . S
C142 C136 1.516 . S
C143 O127 1.254 . S
C143 O128 1.257 . S
C144 O129 1.266 . S
C144 O130 1.236 . S
C145 C148 1.344 1_565 S
C145 C149 1.328 . S
C145 C151 1.516 . S
C146 C147 1.304 1_565 S
C146 C150 1.323 . S
C147 C146 1.304 1_545 S
C147 C148 1.371 . S
C147 H156 0.930 . S
C148 C145 1.344 1_545 S
C148 C147 1.371 . S
C148 H157 0.931 . S
C149 C145 1.328 . S
C149 C150 1.433 . S
C149 H158 0.931 . S
C150 C146 1.323 . S
C150 C149 1.433 . S
C150 H159 0.933 . S
C151 Dy121 2.738 . S
C151 O131 1.255 1_565 S
C151 O132 1.249 . S
C151 C145 1.516 . S
H152 C138 0.930 . S
H153 C139 0.931 . S
H154 C140 0.931 . S
H155 C141 0.933 . S
H156 C147 0.930 . S
H157 C148 0.931 . S
H158 C149 0.931 . S
H159 C150 0.933 . S
Dy160 O163 2.307 . S
Dy160 O165 2.395 . S
Dy160 O166 2.379 . S
Dy160 O168 2.339 . S
Dy160 O170 2.298 . S
Dy160 O174 2.275 . S
Dy160 C182 2.738 . S
Dy161 O164 2.298 . S
Dy161 O167 2.275 . S
Dy161 O169 2.307 . S
Dy161 O171 2.395 . S
Dy161 O172 2.379 . S
Dy161 O175 2.339 . S
Dy161 C191 2.738 . S
C162 O174 1.254 . S
C162 O175 1.257 . S
O163 Dy160 2.307 . S
O163 C173 1.266 . S
O164 Dy161 2.298 . S
O164 C173 1.236 . S
O165 Dy160 2.395 . S
O165 C182 1.255 . S
O166 Dy160 2.379 . S
O166 C182 1.249 . S
O167 Dy161 2.275 . S
O167 C183 1.254 . S
O168 Dy160 2.339 . S
O168 C183 1.257 . S
O169 Dy161 2.307 . S
O169 C184 1.266 . S
O170 Dy160 2.298 . S
O170 C184 1.236 . S
O171 Dy161 2.395 . S
O171 C191 1.255 . S
O172 Dy161 2.379 . S
O172 C191 1.249 . S
C173 O163 1.266 . S
C173 O164 1.236 . S
O174 Dy160 2.275 . S
O174 C162 1.254 . S
O175 Dy161 2.339 . S
O175 C162 1.257 . S
C176 C179 1.344 . S
C176 C180 1.328 . S
C176 C182 1.516 . S
C177 C178 1.304 . S
C177 C181 1.323 . S
C178 C177 1.304 . S
C178 C179 1.371 . S
C178 H192 0.930 . S
C179 C176 1.344 . S
C179 C178 1.371 . S
C179 H193 0.931 . S
C180 C176 1.328 . S
C180 C181 1.433 . S
C180 H194 0.931 . S
C181 C177 1.323 . S
C181 C180 1.433 . S
C181 H195 0.933 . S
C182 Dy160 2.738 . S
C182 O165 1.255 . S
C182 O166 1.249 . S
C182 C176 1.516 . S
C183 O167 1.254 . S
C183 O168 1.257 . S
C184 O169 1.266 . S
C184 O170 1.236 . S
C185 C188 1.344 . S
C185 C189 1.328 . S
C185 C191 1.516 . S
C186 C187 1.304 . S
C186 C190 1.323 . S
C187 C186 1.304 . S
C187 C188 1.371 . S
C187 H196 0.930 . S
C188 C185 1.344 . S
C188 C187 1.371 . S
C188 H197 0.931 . S
C189 C185 1.328 . S
C189 C190 1.433 . S
C189 H198 0.931 . S
C190 C186 1.323 . S
C190 C189 1.433 . S
C190 H199 0.933 . S
C191 Dy161 2.738 . S
C191 O171 1.255 . S
C191 O172 1.249 . S
C191 C185 1.516 . S
H192 C178 0.930 . S
H193 C179 0.931 . S
H194 C180 0.931 . S
H195 C181 0.933 . S
H196 C187 0.930 . S
H197 C188 0.931 . S
H198 C189 0.931 . S
H199 C190 0.933 . S
Dy200 O203 2.307 . S
Dy200 O205 2.395 . S
Dy200 O206 2.379 . S
Dy200 O208 2.339 . S
Dy200 O210 2.298 . S
Dy200 O214 2.275 . S
Dy200 C222 2.738 . S
Dy201 O204 2.298 . S
Dy201 O207 2.275 . S
Dy201 O209 2.307 . S
Dy201 O211 2.395 . S
Dy201 O212 2.379 . S
Dy201 O215 2.339 . S
Dy201 C231 2.738 . S
C202 O214 1.254 . S
C202 O215 1.257 . S
O203 Dy200 2.307 . S
O203 C213 1.266 . S
O204 Dy201 2.298 . S
O204 C213 1.236 . S
O205 Dy200 2.395 . S
O205 C222 1.255 . S
O206 Dy200 2.379 . S
O206 C222 1.249 . S
O207 Dy201 2.275 . S
O207 C223 1.254 . S
O208 Dy200 2.339 . S
O208 C223 1.257 . S
O209 Dy201 2.307 . S
O209 C224 1.266 . S
O210 Dy200 2.298 . S
O210 C224 1.236 . S
O211 Dy201 2.395 . S
O211 C231 1.255 . S
O212 Dy201 2.379 . S
O212 C231 1.249 . S
C213 O203 1.266 . S
C213 O204 1.236 . S
O214 Dy200 2.275 . S
O214 C202 1.254 . S
O215 Dy201 2.339 . S
O215 C202 1.257 . S
C216 C219 1.344 . S
C216 C220 1.328 . S
C216 C222 1.516 . S
C217 C218 1.304 . S
C217 C221 1.323 . S
C218 C217 1.304 . S
C218 C219 1.371 . S
C218 H232 0.930 . S
C219 C216 1.344 . S
C219 C218 1.371 . S
C219 H233 0.931 . S
C220 C216 1.328 . S
C220 C221 1.433 . S
C220 H234 0.931 . S
C221 C217 1.323 . S
C221 C220 1.433 . S
C221 H235 0.933 . S
C222 Dy200 2.738 . S
C222 O205 1.255 . S
C222 O206 1.249 . S
C222 C216 1.516 . S
C223 O207 1.254 . S
C223 O208 1.257 . S
C224 O209 1.266 . S
C224 O210 1.236 . S
C225 C228 1.344 . S
C225 C229 1.328 . S
C225 C231 1.516 . S
C226 C227 1.304 . S
C226 C230 1.323 . S
C227 C226 1.304 . S
C227 C228 1.371 . S
C227 H236 0.930 . S
C228 C225 1.344 . S
C228 C227 1.371 . S
C228 H237 0.931 . S
C229 C225 1.328 . S
C229 C230 1.433 . S
C229 H238 0.931 . S
C230 C226 1.323 . S
C230 C229 1.433 . S
C230 H239 0.933 . S
C231 Dy201 2.738 . S
C231 O211 1.255 . S
C231 O212 1.249 . S
C231 C225 1.516 . S
H232 C218 0.930 . S
H233 C219 0.931 . S
H234 C220 0.931 . S
H235 C221 0.933 . S
H236 C227 0.930 . S
H237 C228 0.931 . S
H238 C229 0.931 . S
H239 C230 0.933 . S
Dy240 O243 2.307 . S
Dy240 O245 2.395 . S
Dy240 O246 2.379 . S
Dy240 O248 2.339 . S
Dy240 O250 2.298 . S
Dy240 O254 2.275 . S
Dy240 C262 2.738 . S
Dy241 O244 2.298 . S
Dy241 O247 2.275 . S
Dy241 O249 2.307 . S
Dy241 O251 2.395 . S
Dy241 O252 2.379 . S
Dy241 O255 2.339 . S
Dy241 C271 2.738 . S
C242 O254 1.254 . S
C242 O255 1.257 . S
O243 Dy240 2.307 . S
O243 C253 1.266 . S
O244 Dy241 2.298 . S
O244 C253 1.236 . S
O245 Dy240 2.395 . S
O245 C262 1.255 . S
O246 Dy240 2.379 . S
O246 C262 1.249 . S
O247 Dy241 2.275 . S
O247 C263 1.254 . S
O248 Dy240 2.339 . S
O248 C263 1.257 . S
O249 Dy241 2.307 . S
O249 C264 1.266 . S
O250 Dy240 2.298 . S
O250 C264 1.236 . S
O251 Dy241 2.395 . S
O251 C271 1.255 . S
O252 Dy241 2.379 . S
O252 C271 1.249 . S
C253 O243 1.266 . S
C253 O244 1.236 . S
O254 Dy240 2.275 . S
O254 C242 1.254 . S
O255 Dy241 2.339 . S
O255 C242 1.257 . S
C256 C259 1.344 . S
C256 C260 1.328 . S
C256 C262 1.516 . S
C257 C258 1.304 . S
C257 C261 1.323 . S
C258 C257 1.304 . S
C258 C259 1.371 . S
C258 H272 0.930 . S
C259 C256 1.344 . S
C259 C258 1.371 . S
C259 H273 0.931 . S
C260 C256 1.328 . S
C260 C261 1.433 . S
C260 H274 0.931 . S
C261 C257 1.323 . S
C261 C260 1.433 . S
C261 H275 0.933 . S
C262 Dy240 2.738 . S
C262 O245 1.255 . S
C262 O246 1.249 . S
C262 C256 1.516 . S
C263 O247 1.254 . S
C263 O248 1.257 . S
C264 O249 1.266 . S
C264 O250 1.236 . S
C265 C268 1.344 . S
C265 C269 1.328 . S
C265 C271 1.516 . S
C266 C267 1.304 . S
C266 C270 1.323 . S
C267 C266 1.304 . S
C267 C268 1.371 . S
C267 H276 0.930 . S
C268 C265 1.344 . S
C268 C267 1.371 . S
C268 H277 0.931 . S
C269 C265 1.328 . S
C269 C270 1.433 . S
C269 H278 0.931 . S
C270 C266 1.323 . S
C270 C269 1.433 . S
C270 H279 0.933 . S
C271 Dy241 2.738 . S
C271 O251 1.255 . S
C271 O252 1.249 . S
C271 C265 1.516 . S
H272 C258 0.930 . S
H273 C259 0.931 . S
H274 C260 0.931 . S
H275 C261 0.933 . S
H276 C267 0.930 . S
H277 C268 0.931 . S
H278 C269 0.931 . S
H279 C270 0.933 . S
Dy280 O283 2.307 1_655 S
Dy280 O285 2.395 . S
Dy280 O286 2.379 . S
Dy280 O288 2.339 . S
Dy280 O290 2.298 . S
Dy280 O294 2.275 1_655 S
Dy280 C302 2.738 . S
Dy281 O284 2.298 . S
Dy281 O287 2.275 1_455 S
Dy281 O289 2.307 1_455 S
Dy281 O291 2.395 . S
Dy281 O292 2.379 . S
Dy281 O295 2.339 . S
Dy281 C311 2.738 . S
C282 O294 1.254 . S
C282 O295 1.257 . S
O283 Dy280 2.307 1_455 S
O283 C293 1.266 . S
O284 Dy281 2.298 . S
O284 C293 1.236 . S
O285 Dy280 2.395 . S
O285 C302 1.255 . S
O286 Dy280 2.379 . S
O286 C302 1.249 . S
O287 Dy281 2.275 1_655 S
O287 C303 1.254 . S
O288 Dy280 2.339 . S
O288 C303 1.257 . S
O289 Dy281 2.307 1_655 S
O289 C304 1.266 . S
O290 Dy280 2.298 . S
O290 C304 1.236 . S
O291 Dy281 2.395 . S
O291 C311 1.255 . S
O292 Dy281 2.379 . S
O292 C311 1.249 . S
C293 O283 1.266 . S
C293 O284 1.236 . S
O294 Dy280 2.275 1_455 S
O294 C282 1.254 . S
O295 Dy281 2.339 . S
O295 C282 1.257 . S
C296 C299 1.344 . S
C296 C300 1.328 . S
C296 C302 1.516 . S
C297 C298 1.304 . S
C297 C301 1.323 . S
C298 C297 1.304 . S
C298 C299 1.371 . S
C298 H312 0.930 . S
C299 C296 1.344 . S
C299 C298 1.371 . S
C299 H313 0.931 . S
C300 C296 1.328 . S
C300 C301 1.433 . S
C300 H314 0.931 . S
C301 C297 1.323 . S
C301 C300 1.433 . S
C301 H315 0.933 . S
C302 Dy280 2.738 . S
C302 O285 1.255 . S
C302 O286 1.249 . S
C302 C296 1.516 . S
C303 O287 1.254 . S
C303 O288 1.257 . S
C304 O289 1.266 . S
C304 O290 1.236 . S
C305 C308 1.344 . S
C305 C309 1.328 . S
C305 C311 1.516 . S
C306 C307 1.304 . S
C306 C310 1.323 . S
C307 C306 1.304 . S
C307 C308 1.371 . S
C307 H316 0.930 . S
C308 C305 1.344 . S
C308 C307 1.371 . S
C308 H317 0.931 . S
C309 C305 1.328 . S
C309 C310 1.433 . S
C309 H318 0.931 . S
C310 C306 1.323 . S
C310 C309 1.433 . S
C310 H319 0.933 . S
C311 Dy281 2.738 . S
C311 O291 1.255 . S
C311 O292 1.249 . S
C311 C305 1.516 . S
H312 C298 0.930 . S
H313 C299 0.931 . S
H314 C300 0.931 . S
H315 C301 0.933 . S
H316 C307 0.930 . S
H317 C308 0.931 . S
H318 C309 0.931 . S
H319 C310 0.933 . S
Dy320 O323 2.307 . S
Dy320 O325 2.395 . S
Dy320 O326 2.379 . S
Dy320 O328 2.339 . S
Dy320 O330 2.298 1_556 S
Dy320 O334 2.275 1_556 S
Dy320 C342 2.738 . S
Dy321 O324 2.298 1_554 S
Dy321 O327 2.275 1_554 S
Dy321 O329 2.307 . S
Dy321 O331 2.395 . S
Dy321 O332 2.379 . S
Dy321 O335 2.339 . S
Dy321 C351 2.738 . S
C322 O334 1.254 . S
C322 O335 1.257 . S
O323 Dy320 2.307 . S
O323 C333 1.266 . S
O324 Dy321 2.298 1_556 S
O324 C333 1.236 . S
O325 Dy320 2.395 . S
O325 C342 1.255 . S
O326 Dy320 2.379 . S
O326 C342 1.249 . S
O327 Dy321 2.275 1_556 S
O327 C343 1.254 . S
O328 Dy320 2.339 . S
O328 C343 1.257 . S
O329 Dy321 2.307 . S
O329 C344 1.266 . S
O330 Dy320 2.298 1_554 S
O330 C344 1.236 . S
O331 Dy321 2.395 . S
O331 C351 1.255 . S
O332 Dy321 2.379 . S
O332 C351 1.249 . S
C333 O323 1.266 . S
C333 O324 1.236 . S
O334 Dy320 2.275 1_554 S
O334 C322 1.254 . S
O335 Dy321 2.339 . S
O335 C322 1.257 . S
C336 C339 1.344 . S
C336 C340 1.328 . S
C336 C342 1.516 . S
C337 C338 1.304 . S
C337 C341 1.323 . S
C338 C337 1.304 . S
C338 C339 1.371 . S
C338 H352 0.930 1_556 S
C339 C336 1.344 . S
C339 C338 1.371 . S
C339 H353 0.931 1_556 S
C340 C336 1.328 . S
C340 C341 1.433 . S
C340 H354 0.931 . S
C341 C337 1.323 . S
C341 C340 1.433 . S
C341 H355 0.933 . S
C342 Dy320 2.738 . S
C342 O325 1.255 . S
C342 O326 1.249 . S
C342 C336 1.516 . S
C343 O327 1.254 . S
C343 O328 1.257 . S
C344 O329 1.266 . S
C344 O330 1.236 . S
C345 C348 1.344 . S
C345 C349 1.328 . S
C345 C351 1.516 . S
C346 C347 1.304 . S
C346 C350 1.323 . S
C347 C346 1.304 . S
C347 C348 1.371 . S
C347 H356 0.930 1_554 S
C348 C345 1.344 . S
C348 C347 1.371 . S
C348 H357 0.931 1_554 S
C349 C345 1.328 . S
C349 C350 1.433 . S
C349 H358 0.931 . S
C350 C346 1.323 . S
C350 C349 1.433 . S
C350 H359 0.933 . S
C351 Dy321 2.738 . S
C351 O331 1.255 . S
C351 O332 1.249 . S
C351 C345 1.516 . S
H352 C338 0.930 1_554 S
H353 C339 0.931 1_554 S
H354 C340 0.931 . S
H355 C341 0.933 . S
H356 C347 0.930 1_556 S
H357 C348 0.931 1_556 S
H358 C349 0.931 . S
H359 C350 0.933 . S
Dy360 O363 2.307 . S
Dy360 O365 2.395 1_545 S
Dy360 O366 2.379 . S
Dy360 O368 2.339 . S
Dy360 O370 2.298 1_545 S
Dy360 O374 2.275 1_545 S
Dy360 C382 2.738 . S
Dy361 O364 2.298 1_565 S
Dy361 O367 2.275 1_565 S
Dy361 O369 2.307 . S
Dy361 O371 2.395 1_565 S
Dy361 O372 2.379 . S
Dy361 O375 2.339 . S
Dy361 C391 2.738 . S
C362 O374 1.254 . S
C362 O375 1.257 . S
O363 Dy360 2.307 . S
O363 C373 1.266 . S
O364 Dy361 2.298 1_545 S
O364 C373 1.236 . S
O365 Dy360 2.395 1_565 S
O365 C382 1.255 1_565 S
O366 Dy360 2.379 . S
O366 C382 1.249 . S
O367 Dy361 2.275 1_545 S
O367 C383 1.254 . S
O368 Dy360 2.339 . S
O368 C383 1.257 . S
O369 Dy361 2.307 . S
O369 C384 1.266 . S
O370 Dy360 2.298 1_565 S
O370 C384 1.236 . S
O371 Dy361 2.395 1_545 S
O371 C391 1.255 1_545 S
O372 Dy361 2.379 . S
O372 C391 1.249 . S
C373 O363 1.266 . S
C373 O364 1.236 . S
O374 Dy360 2.275 1_565 S
O374 C362 1.254 . S
O375 Dy361 2.339 . S
O375 C362 1.257 . S
C376 C379 1.344 1_545 S
C376 C380 1.328 . S
C376 C382 1.516 . S
C377 C378 1.304 1_545 S
C377 C381 1.323 . S
C378 C377 1.304 1_565 S
C378 C379 1.371 . S
C378 H392 0.930 . S
C379 C376 1.344 1_565 S
C379 C378 1.371 . S
C379 H393 0.931 . S
C380 C376 1.328 . S
C380 C381 1.433 . S
C380 H394 0.931 . S
C381 C377 1.323 . S
C381 C380 1.433 . S
C381 H395 0.933 . S
C382 Dy360 2.738 . S
C382 O365 1.255 1_545 S
C382 O366 1.249 . S
C382 C376 1.516 . S
C383 O367 1.254 . S
C383 O368 1.257 . S
C384 O369 1.266 . S
C384 O370 1.236 . S
C385 C388 1.344 1_565 S
C385 C389 1.328 . S
C385 C391 1.516 . S
C386 C387 1.304 1_565 S
C386 C390 1.323 . S
C387 C386 1.304 1_545 S
C387 C388 1.371 . S
C387 H396 0.930 . S
C388 C385 1.344 1_545 S
C388 C387 1.371 . S
C388 H397 0.931 . S
C389 C385 1.328 . S
C389 C390 1.433 . S
C389 H398 0.931 . S
C390 C386 1.323 . S
C390 C389 1.433 . S
C390 H399 0.933 . S
C391 Dy361 2.738 . S
C391 O371 1.255 1_565 S
C391 O372 1.249 . S
C391 C385 1.516 . S
H392 C378 0.930 . S
H393 C379 0.931 . S
H394 C380 0.931 . S
H395 C381 0.933 . S
H396 C387 0.930 . S
H397 C388 0.931 . S
H398 C389 0.931 . S
H399 C390 0.933 . S
Dy400 O403 2.307 . S
Dy400 O405 2.395 . S
Dy400 O406 2.379 . S
Dy400 O408 2.339 . S
Dy400 O410 2.298 . S
Dy400 O414 2.275 . S
Dy400 C422 2.738 . S
Dy401 O404 2.298 . S
Dy401 O407 2.275 . S
Dy401 O409 2.307 . S
Dy401 O411 2.395 . S
Dy401 O412 2.379 . S
Dy401 O415 2.339 . S
Dy401 C431 2.738 . S
C402 O414 1.254 . S
C402 O415 1.257 . S
O403 Dy400 2.307 . S
O403 C413 1.266 . S
O404 Dy401 2.298 . S
O404 C413 1.236 . S
O405 Dy400 2.395 . S
O405 C422 1.255 . S
O406 Dy400 2.379 . S
O406 C422 1.249 . S
O407 Dy401 2.275 . S
O407 C423 1.254 . S
O408 Dy400 2.339 . S
O408 C423 1.257 . S
O409 Dy401 2.307 . S
O409 C424 1.266 . S
O410 Dy400 2.298 . S
O410 C424 1.236 . S
O411 Dy401 2.395 . S
O411 C431 1.255 . S
O412 Dy401 2.379 . S
O412 C431 1.249 . S
C413 O403 1.266 . S
C413 O404 1.236 . S
O414 Dy400 2.275 . S
O414 C402 1.254 . S
O415 Dy401 2.339 . S
O415 C402 1.257 . S
C416 C419 1.344 . S
C416 C420 1.328 . S
C416 C422 1.516 . S
C417 C418 1.304 . S
C417 C421 1.323 . S
C418 C417 1.304 . S
C418 C419 1.371 . S
C418 H432 0.930 . S
C419 C416 1.344 . S
C419 C418 1.371 . S
C419 H433 0.931 . S
C420 C416 1.328 . S
C420 C421 1.433 . S
C420 H434 0.931 . S
C421 C417 1.323 . S
C421 C420 1.433 . S
C421 H435 0.933 . S
C422 Dy400 2.738 . S
C422 O405 1.255 . S
C422 O406 1.249 . S
C422 C416 1.516 . S
C423 O407 1.254 . S
C423 O408 1.257 . S
C424 O409 1.266 . S
C424 O410 1.236 . S
C425 C428 1.344 . S
C425 C429 1.328 . S
C425 C431 1.516 . S
C426 C427 1.304 . S
C426 C430 1.323 . S
C427 C426 1.304 . S
C427 C428 1.371 . S
C427 H436 0.930 . S
C428 C425 1.344 . S
C428 C427 1.371 . S
C428 H437 0.931 . S
C429 C425 1.328 . S
C429 C430 1.433 . S
C429 H438 0.931 . S
C430 C426 1.323 . S
C430 C429 1.433 . S
C430 H439 0.933 . S
C431 Dy401 2.738 . S
C431 O411 1.255 . S
C431 O412 1.249 . S
C431 C425 1.516 . S
H432 C418 0.930 . S
H433 C419 0.931 . S
H434 C420 0.931 . S
H435 C421 0.933 . S
H436 C427 0.930 . S
H437 C428 0.931 . S
H438 C429 0.931 . S
H439 C430 0.933 . S
Dy440 O443 2.307 . S
Dy440 O445 2.395 . S
Dy440 O446 2.379 . S
Dy440 O448 2.339 1_655 S
Dy440 O450 2.298 . S
Dy440 O454 2.275 . S
Dy440 C462 2.738 . S
Dy441 O444 2.298 . S
Dy441 O447 2.275 . S
Dy441 O449 2.307 . S
Dy441 O451 2.395 . S
Dy441 O452 2.379 . S
Dy441 O455 2.339 1_455 S
Dy441 C471 2.738 . S
C442 O454 1.254 . S
C442 O455 1.257 . S
O443 Dy440 2.307 . S
O443 C453 1.266 1_655 S
O444 Dy441 2.298 . S
O444 C453 1.236 . S
O445 Dy440 2.395 . S
O445 C462 1.255 . S
O446 Dy440 2.379 . S
O446 C462 1.249 . S
O447 Dy441 2.275 . S
O447 C463 1.254 . S
O448 Dy440 2.339 1_455 S
O448 C463 1.257 . S
O449 Dy441 2.307 . S
O449 C464 1.266 1_455 S
O450 Dy440 2.298 . S
O450 C464 1.236 . S
O451 Dy441 2.395 . S
O451 C471 1.255 . S
O452 Dy441 2.379 . S
O452 C471 1.249 . S
C453 O443 1.266 1_455 S
C453 O444 1.236 . S
O454 Dy440 2.275 . S
O454 C442 1.254 . S
O455 Dy441 2.339 1_655 S
O455 C442 1.257 . S
C456 C459 1.344 . S
C456 C460 1.328 . S
C456 C462 1.516 . S
C457 C458 1.304 . S
C457 C461 1.323 . S
C458 C457 1.304 . S
C458 C459 1.371 . S
C458 H472 0.930 . S
C459 C456 1.344 . S
C459 C458 1.371 . S
C459 H473 0.931 . S
C460 C456 1.328 . S
C460 C461 1.433 . S
C460 H474 0.931 . S
C461 C457 1.323 . S
C461 C460 1.433 . S
C461 H475 0.933 . S
C462 Dy440 2.738 . S
C462 O445 1.255 . S
C462 O446 1.249 . S
C462 C456 1.516 . S
C463 O447 1.254 . S
C463 O448 1.257 . S
C464 O449 1.266 1_655 S
C464 O450 1.236 . S
C465 C468 1.344 . S
C465 C469 1.328 . S
C465 C471 1.516 . S
C466 C467 1.304 . S
C466 C470 1.323 . S
C467 C466 1.304 . S
C467 C468 1.371 . S
C467 H476 0.930 . S
C468 C465 1.344 . S
C468 C467 1.371 . S
C468 H477 0.931 . S
C469 C465 1.328 . S
C469 C470 1.433 . S
C469 H478 0.931 . S
C470 C466 1.323 . S
C470 C469 1.433 . S
C470 H479 0.933 . S
C471 Dy441 2.738 . S
C471 O451 1.255 . S
C471 O452 1.249 . S
C471 C465 1.516 . S
H472 C458 0.930 . S
H473 C459 0.931 . S
H474 C460 0.931 . S
H475 C461 0.933 . S
H476 C467 0.930 . S
H477 C468 0.931 . S
H478 C469 0.931 . S
H479 C470 0.933 . S
Dy480 O483 2.307 . S
Dy480 O485 2.395 . S
Dy480 O486 2.379 . S
Dy480 O488 2.339 . S
Dy480 O490 2.298 . S
Dy480 O494 2.275 . S
Dy480 C502 2.738 . S
Dy481 O484 2.298 . S
Dy481 O487 2.275 . S
Dy481 O489 2.307 . S
Dy481 O491 2.395 . S
Dy481 O492 2.379 . S
Dy481 O495 2.339 . S
Dy481 C511 2.738 . S
C482 O494 1.254 . S
C482 O495 1.257 . S
O483 Dy480 2.307 . S
O483 C493 1.266 . S
O484 Dy481 2.298 . S
O484 C493 1.236 . S
O485 Dy480 2.395 . S
O485 C502 1.255 . S
O486 Dy480 2.379 . S
O486 C502 1.249 . S
O487 Dy481 2.275 . S
O487 C503 1.254 . S
O488 Dy480 2.339 . S
O488 C503 1.257 . S
O489 Dy481 2.307 . S
O489 C504 1.266 . S
O490 Dy480 2.298 . S
O490 C504 1.236 . S
O491 Dy481 2.395 . S
O491 C511 1.255 . S
O492 Dy481 2.379 . S
O492 C511 1.249 . S
C493 O483 1.266 . S
C493 O484 1.236 . S
O494 Dy480 2.275 . S
O494 C482 1.254 . S
O495 Dy481 2.339 . S
O495 C482 1.257 . S
C496 C499 1.344 . S
C496 C500 1.328 . S
C496 C502 1.516 . S
C497 C498 1.304 . S
C497 C501 1.323 . S
C498 C497 1.304 . S
C498 C499 1.371 . S
C498 H512 0.930 . S
C499 C496 1.344 . S
C499 C498 1.371 . S
C499 H513 0.931 . S
C500 C496 1.328 . S
C500 C501 1.433 . S
C500 H514 0.931 . S
C501 C497 1.323 . S
C501 C500 1.433 . S
C501 H515 0.933 . S
C502 Dy480 2.738 . S
C502 O485 1.255 . S
C502 O486 1.249 . S
C502 C496 1.516 . S
C503 O487 1.254 . S
C503 O488 1.257 . S
C504 O489 1.266 . S
C504 O490 1.236 . S
C505 C508 1.344 . S
C505 C509 1.328 . S
C505 C511 1.516 . S
C506 C507 1.304 . S
C506 C510 1.323 . S
C507 C506 1.304 . S
C507 C508 1.371 . S
C507 H516 0.930 . S
C508 C505 1.344 . S
C508 C507 1.371 . S
C508 H517 0.931 . S
C509 C505 1.328 . S
C509 C510 1.433 . S
C509 H518 0.931 . S
C510 C506 1.323 . S
C510 C509 1.433 . S
C510 H519 0.933 . S
C511 Dy481 2.738 . S
C511 O491 1.255 . S
C511 O492 1.249 . S
C511 C505 1.516 . S
H512 C498 0.930 . S
H513 C499 0.931 . S
H514 C500 0.931 . S
H515 C501 0.933 . S
H516 C507 0.930 . S
H517 C508 0.931 . S
H518 C509 0.931 . S
H519 C510 0.933 . S
Dy520 O523 2.307 . S
Dy520 O525 2.395 . S
Dy520 O526 2.379 . S
Dy520 O528 2.339 . S
Dy520 O530 2.298 1_556 S
Dy520 O534 2.275 1_556 S
Dy520 C542 2.738 . S
Dy521 O524 2.298 1_554 S
Dy521 O527 2.275 1_554 S
Dy521 O529 2.307 . S
Dy521 O531 2.395 . S
Dy521 O532 2.379 . S
Dy521 O535 2.339 . S
Dy521 C551 2.738 . S
C522 O534 1.254 . S
C522 O535 1.257 . S
O523 Dy520 2.307 . S
O523 C533 1.266 . S
O524 Dy521 2.298 1_556 S
O524 C533 1.236 . S
O525 Dy520 2.395 . S
O525 C542 1.255 . S
O526 Dy520 2.379 . S
O526 C542 1.249 . S
O527 Dy521 2.275 1_556 S
O527 C543 1.254 . S
O528 Dy520 2.339 . S
O528 C543 1.257 . S
O529 Dy521 2.307 . S
O529 C544 1.266 . S
O530 Dy520 2.298 1_554 S
O530 C544 1.236 . S
O531 Dy521 2.395 . S
O531 C551 1.255 . S
O532 Dy521 2.379 . S
O532 C551 1.249 . S
C533 O523 1.266 . S
C533 O524 1.236 . S
O534 Dy520 2.275 1_554 S
O534 C522 1.254 . S
O535 Dy521 2.339 . S
O535 C522 1.257 . S
C536 C539 1.344 . S
C536 C540 1.328 . S
C536 C542 1.516 . S
C537 C538 1.304 . S
C537 C541 1.323 . S
C538 C537 1.304 . S
C538 C539 1.371 . S
C538 H552 0.930 1_556 S
C539 C536 1.344 . S
C539 C538 1.371 . S
C539 H553 0.931 1_556 S
C540 C536 1.328 . S
C540 C541 1.433 . S
C540 H554 0.931 . S
C541 C537 1.323 . S
C541 C540 1.433 . S
C541 H555 0.933 . S
C542 Dy520 2.738 . S
C542 O525 1.255 . S
C542 O526 1.249 . S
C542 C536 1.516 . S
C543 O527 1.254 . S
C543 O528 1.257 . S
C544 O529 1.266 . S
C544 O530 1.236 . S
C545 C548 1.344 . S
C545 C549 1.328 . S
C545 C551 1.516 . S
C546 C547 1.304 . S
C546 C550 1.323 . S
C547 C546 1.304 . S
C547 C548 1.371 . S
C547 H556 0.930 1_554 S
C548 C545 1.344 . S
C548 C547 1.371 . S
C548 H557 0.931 1_554 S
C549 C545 1.328 . S
C549 C550 1.433 . S
C549 H558 0.931 . S
C550 C546 1.323 . S
C550 C549 1.433 . S
C550 H559 0.933 . S
C551 Dy521 2.738 . S
C551 O531 1.255 . S
C551 O532 1.249 . S
C551 C545 1.516 . S
H552 C538 0.930 1_554 S
H553 C539 0.931 1_554 S
H554 C540 0.931 . S
H555 C541 0.933 . S
H556 C547 0.930 1_556 S
H557 C548 0.931 1_556 S
H558 C549 0.931 . S
H559 C550 0.933 . S
Dy560 O563 2.307 . S
Dy560 O565 2.395 . S
Dy560 O566 2.379 . S
Dy560 O568 2.339 1_565 S
Dy560 O570 2.298 1_565 S
Dy560 O574 2.275 . S
Dy560 C582 2.738 . S
Dy561 O564 2.298 1_545 S
Dy561 O567 2.275 . S
Dy561 O569 2.307 . S
Dy561 O571 2.395 . S
Dy561 O572 2.379 . S
Dy561 O575 2.339 1_545 S
Dy561 C591 2.738 . S
C562 O574 1.254 . S
C562 O575 1.257 . S
O563 Dy560 2.307 . S
O563 C573 1.266 . S
O564 Dy561 2.298 1_565 S
O564 C573 1.236 . S
O565 Dy560 2.395 . S
O565 C582 1.255 . S
O566 Dy560 2.379 . S
O566 C582 1.249 . S
O567 Dy561 2.275 . S
O567 C583 1.254 . S
O568 Dy560 2.339 1_545 S
O568 C583 1.257 . S
O569 Dy561 2.307 . S
O569 C584 1.266 . S
O570 Dy560 2.298 1_545 S
O570 C584 1.236 . S
O571 Dy561 2.395 . S
O571 C591 1.255 . S
O572 Dy561 2.379 . S
O572 C591 1.249 . S
C573 O563 1.266 . S
C573 O564 1.236 . S
O574 Dy560 2.275 . S
O574 C562 1.254 . S
O575 Dy561 2.339 1_565 S
O575 C562 1.257 . S
C576 C579 1.344 . S
C576 C580 1.328 . S
C576 C582 1.516 . S
C577 C578 1.304 . S
C577 C581 1.323 . S
C578 C577 1.304 . S
C578 C579 1.371 . S
C578 H592 0.930 . S
C579 C576 1.344 . S
C579 C578 1.371 . S
C579 H593 0.931 . S
C580 C576 1.328 . S
C580 C581 1.433 . S
C580 H594 0.931 . S
C581 C577 1.323 . S
C581 C580 1.433 . S
C581 H595 0.933 . S
C582 Dy560 2.738 . S
C582 O565 1.255 . S
C582 O566 1.249 . S
C582 C576 1.516 . S
C583 O567 1.254 . S
C583 O568 1.257 . S
C584 O569 1.266 . S
C584 O570 1.236 . S
C585 C588 1.344 . S
C585 C589 1.328 . S
C585 C591 1.516 . S
C586 C587 1.304 . S
C586 C590 1.323 . S
C587 C586 1.304 . S
C587 C588 1.371 . S
C587 H596 0.930 . S
C588 C585 1.344 . S
C588 C587 1.371 . S
C588 H597 0.931 . S
C589 C585 1.328 . S
C589 C590 1.433 . S
C589 H598 0.931 . S
C590 C586 1.323 . S
C590 C589 1.433 . S
C590 H599 0.933 . S
C591 Dy561 2.738 . S
C591 O571 1.255 . S
C591 O572 1.249 . S
C591 C585 1.516 . S
H592 C578 0.930 . S
H593 C579 0.931 . S
H594 C580 0.931 . S
H595 C581 0.933 . S
H596 C587 0.930 . S
H597 C588 0.931 . S
H598 C589 0.931 . S
H599 C590 0.933 . S
Dy600 O603 2.307 . S
Dy600 O605 2.395 . S
Dy600 O606 2.379 . S
Dy600 O608 2.339 . S
Dy600 O610 2.298 1_554 S
Dy600 O614 2.275 1_554 S
Dy600 C622 2.738 . S
Dy601 O604 2.298 1_556 S
Dy601 O607 2.275 1_556 S
Dy601 O609 2.307 . S
Dy601 O611 2.395 . S
Dy601 O612 2.379 . S
Dy601 O615 2.339 . S
Dy601 C631 2.738 . S
C602 O614 1.254 . S
C602 O615 1.257 . S
O603 Dy600 2.307 . S
O603 C613 1.266 . S
O604 Dy601 2.298 1_554 S
O604 C613 1.236 . S
O605 Dy600 2.395 . S
O605 C622 1.255 . S
O606 Dy600 2.379 . S
O606 C622 1.249 . S
O607 Dy601 2.275 1_554 S
O607 C623 1.254 . S
O608 Dy600 2.339 . S
O608 C623 1.257 . S
O609 Dy601 2.307 . S
O609 C624 1.266 . S
O610 Dy600 2.298 1_556 S
O610 C624 1.236 . S
O611 Dy601 2.395 . S
O611 C631 1.255 . S
O612 Dy601 2.379 . S
O612 C631 1.249 . S
C613 O603 1.266 . S
C613 O604 1.236 . S
O614 Dy600 2.275 1_556 S
O614 C602 1.254 . S
O615 Dy601 2.339 . S
O615 C602 1.257 . S
C616 C619 1.344 . S
C616 C620 1.328 . S
C616 C622 1.516 . S
C617 C618 1.304 . S
C617 C621 1.323 . S
C618 C617 1.304 . S
C618 C619 1.371 . S
C618 H632 0.930 1_554 S
C619 C616 1.344 . S
C619 C618 1.371 . S
C619 H633 0.931 1_554 S
C620 C616 1.328 . S
C620 C621 1.433 . S
C620 H634 0.931 . S
C621 C617 1.323 . S
C621 C620 1.433 . S
C621 H635 0.933 . S
C622 Dy600 2.738 . S
C622 O605 1.255 . S
C622 O606 1.249 . S
C622 C616 1.516 . S
C623 O607 1.254 . S
C623 O608 1.257 . S
C624 O609 1.266 . S
C624 O610 1.236 . S
C625 C628 1.344 . S
C625 C629 1.328 . S
C625 C631 1.516 . S
C626 C627 1.304 . S
C626 C630 1.323 . S
C627 C626 1.304 . S
C627 C628 1.371 . S
C627 H636 0.930 1_556 S
C628 C625 1.344 . S
C628 C627 1.371 . S
C628 H637 0.931 1_556 S
C629 C625 1.328 . S
C629 C630 1.433 . S
C629 H638 0.931 . S
C630 C626 1.323 . S
C630 C629 1.433 . S
C630 H639 0.933 . S
C631 Dy601 2.738 . S
C631 O611 1.255 . S
C631 O612 1.249 . S
C631 C625 1.516 . S
H632 C618 0.930 1_556 S
H633 C619 0.931 1_556 S
H634 C620 0.931 . S
H635 C621 0.933 . S
H636 C627 0.930 1_554 S
H637 C628 0.931 1_554 S
H638 C629 0.931 . S
H639 C630 0.933 . S
H640 C646 0.930 . S
H641 C650 0.930 . S
H642 C655 0.929 . S
H643 C653 0.929 . S
H644 C648 0.929 . S
H645 C654 0.929 . S
C646 H640 0.930 . S
C646 C647 1.367 . S
C646 C654 1.378 . S
C647 C646 1.367 . S
C647 C655 1.433 1_655 S
C648 H644 0.929 . S
C648 C650 1.378 . S
C648 C652 1.350 1_455 S
C649 C652 1.463 . S
C649 C654 1.350 . S
C649 N657 1.427 1_655 S
C650 H641 0.930 . S
C650 C648 1.378 . S
C650 C651 1.367 . S
C651 C650 1.367 . S
C651 C653 1.433 1_455 S
C652 C648 1.350 1_655 S
C652 C649 1.463 . S
C652 N656 1.427 . S
C653 H643 0.929 . S
C653 C651 1.433 1_655 S
C653 N656 1.384 . S
C654 H645 0.929 . S
C654 C646 1.378 . S
C654 C649 1.350 . S
C655 H642 0.929 . S
C655 C647 1.433 1_455 S
C655 N657 1.384 . S
N656 C652 1.427 . S
N656 C653 1.384 . S
N657 C649 1.427 1_455 S
N657 C655 1.384 . S
H658 C664 0.930 . S
H659 C668 0.930 . S
H660 C673 0.929 . S
H661 C671 0.929 . S
H662 C666 0.929 . S
H663 C672 0.929 . S
C664 H658 0.930 . S
C664 C665 1.367 . S
C664 C672 1.378 . S
C665 C664 1.367 . S
C665 C673 1.433 . S
C666 H662 0.929 . S
C666 C668 1.378 . S
C666 C670 1.350 . S
C667 C670 1.463 . S
C667 C672 1.350 . S
C667 N675 1.427 . S
C668 H659 0.930 . S
C668 C666 1.378 . S
C668 C669 1.367 . S
C669 C668 1.367 . S
C669 C671 1.433 . S
C670 C666 1.350 . S
C670 C667 1.463 . S
C670 N674 1.427 . S
C671 H661 0.929 . S
C671 C669 1.433 . S
C671 N674 1.384 . S
C672 H663 0.929 . S
C672 C664 1.378 . S
C672 C667 1.350 . S
C673 H660 0.929 . S
C673 C665 1.433 . S
C673 N675 1.384 . S
N674 C670 1.427 . S
N674 C671 1.384 . S
N675 C667 1.427 . S
N675 C673 1.384 . S
H676 C682 0.930 . S
H677 C686 0.930 . S
H678 C691 0.929 . S
H679 C689 0.929 . S
H680 C684 0.929 . S
H681 C690 0.929 . S
C682 H676 0.930 . S
C682 C683 1.367 . S
C682 C690 1.378 . S
C683 C682 1.367 . S
C683 C691 1.433 . S
C684 H680 0.929 . S
C684 C686 1.378 . S
C684 C688 1.350 . S
C685 C688 1.463 . S
C685 C690 1.350 . S
C685 N693 1.427 . S
C686 H677 0.930 . S
C686 C684 1.378 . S
C686 C687 1.367 . S
C687 C686 1.367 . S
C687 C689 1.433 . S
C688 C684 1.350 . S
C688 C685 1.463 . S
C688 N692 1.427 . S
C689 H679 0.929 . S
C689 C687 1.433 . S
C689 N692 1.384 . S
C690 H681 0.929 . S
C690 C682 1.378 . S
C690 C685 1.350 . S
C691 H678 0.929 . S
C691 C683 1.433 . S
C691 N693 1.384 . S
N692 C688 1.427 . S
N692 C689 1.384 . S
N693 C685 1.427 . S
N693 C691 1.384 . S
H694 C700 0.930 . S
H695 C704 0.930 . S
H696 C709 0.929 . S
H697 C707 0.929 . S
H698 C702 0.929 . S
H699 C708 0.929 . S
C700 H694 0.930 . S
C700 C701 1.367 . S
C700 C708 1.378 . S
C701 C700 1.367 . S
C701 C709 1.433 1_545 S
C702 H698 0.929 . S
C702 C704 1.378 . S
C702 C706 1.350 1_565 S
C703 C706 1.463 . S
C703 C708 1.350 . S
C703 N711 1.427 1_545 S
C704 H695 0.930 . S
C704 C702 1.378 . S
C704 C705 1.367 1_565 S
C705 C704 1.367 1_545 S
C705 C707 1.433 . S
C706 C702 1.350 1_545 S
C706 C703 1.463 . S
C706 N710 1.427 . S
C707 H697 0.929 . S
C707 C705 1.433 . S
C707 N710 1.384 . S
C708 H699 0.929 . S
C708 C700 1.378 . S
C708 C703 1.350 . S
C709 H696 0.929 . S
C709 C701 1.433 1_565 S
C709 N711 1.384 . S
N710 C706 1.427 . S
N710 C707 1.384 . S
N711 C703 1.427 1_565 S
N711 C709 1.384 . S
H712 C718 0.930 . S
H713 C722 0.930 . S
H714 C727 0.929 . S
H715 C725 0.929 . S
H716 C720 0.929 . S
H717 C726 0.929 . S
C718 H712 0.930 . S
C718 C719 1.367 . S
C718 C726 1.378 . S
C719 C718 1.367 . S
C719 C727 1.433 1_565 S
C720 H716 0.929 . S
C720 C722 1.378 . S
C720 C724 1.350 1_545 S
C721 C724 1.463 . S
C721 C726 1.350 . S
C721 N729 1.427 1_565 S
C722 H713 0.930 . S
C722 C720 1.378 . S
C722 C723 1.367 1_545 S
C723 C722 1.367 1_565 S
C723 C725 1.433 . S
C724 C720 1.350 1_565 S
C724 C721 1.463 . S
C724 N728 1.427 . S
C725 H715 0.929 . S
C725 C723 1.433 . S
C725 N728 1.384 . S
C726 H717 0.929 . S
C726 C718 1.378 . S
C726 C721 1.350 . S
C727 H714 0.929 . S
C727 C719 1.433 1_545 S
C727 N729 1.384 . S
N728 C724 1.427 . S
N728 C725 1.384 . S
N729 C721 1.427 1_545 S
N729 C727 1.384 . S
H730 C736 0.930 . S
H731 C740 0.930 . S
H732 C745 0.929 . S
H733 C743 0.929 . S
H734 C738 0.929 . S
H735 C744 0.929 . S
C736 H730 0.930 . S
C736 C737 1.367 . S
C736 C744 1.378 . S
C737 C736 1.367 . S
C737 C745 1.433 1_455 S
C738 H734 0.929 . S
C738 C740 1.378 . S
C738 C742 1.350 1_655 S
C739 C742 1.463 . S
C739 C744 1.350 . S
C739 N747 1.427 1_455 S
C740 H731 0.930 . S
C740 C738 1.378 . S
C740 C741 1.367 . S
C741 C740 1.367 . S
C741 C743 1.433 1_655 S
C742 C738 1.350 1_455 S
C742 C739 1.463 . S
C742 N746 1.427 . S
C743 H733 0.929 . S
C743 C741 1.433 1_455 S
C743 N746 1.384 . S
C744 H735 0.929 . S
C744 C736 1.378 . S
C744 C739 1.350 . S
C745 H732 0.929 . S
C745 C737 1.433 1_655 S
C745 N747 1.384 . S
N746 C742 1.427 . S
N746 C743 1.384 . S
N747 C739 1.427 1_655 S
N747 C745 1.384 . S
H748 C754 0.930 . S
H749 C758 0.930 . S
H750 C763 0.929 . S
H751 C761 0.929 . S
H752 C756 0.929 . S
H753 C762 0.929 . S
C754 H748 0.930 . S
C754 C755 1.367 . S
C754 C762 1.378 . S
C755 C754 1.367 . S
C755 C763 1.433 . S
C756 H752 0.929 . S
C756 C758 1.378 . S
C756 C760 1.350 . S
C757 C760 1.463 . S
C757 C762 1.350 . S
C757 N765 1.427 . S
C758 H749 0.930 . S
C758 C756 1.378 . S
C758 C759 1.367 . S
C759 C758 1.367 . S
C759 C761 1.433 . S
C760 C756 1.350 . S
C760 C757 1.463 . S
C760 N764 1.427 . S
C761 H751 0.929 . S
C761 C759 1.433 . S
C761 N764 1.384 . S
C762 H753 0.929 . S
C762 C754 1.378 . S
C762 C757 1.350 . S
C763 H750 0.929 . S
C763 C755 1.433 . S
C763 N765 1.384 . S
N764 C760 1.427 . S
N764 C761 1.384 . S
N765 C757 1.427 . S
N765 C763 1.384 . S
H766 C772 0.930 . S
H767 C776 0.930 . S
H768 C781 0.929 . S
H769 C779 0.929 . S
H770 C774 0.929 . S
H771 C780 0.929 . S
C772 H766 0.930 . S
C772 C773 1.367 . S
C772 C780 1.378 . S
C773 C772 1.367 . S
C773 C781 1.433 . S
C774 H770 0.929 . S
C774 C776 1.378 . S
C774 C778 1.350 . S
C775 C778 1.463 . S
C775 C780 1.350 . S
C775 N783 1.427 . S
C776 H767 0.930 . S
C776 C774 1.378 . S
C776 C777 1.367 . S
C777 C776 1.367 . S
C777 C779 1.433 . S
C778 C774 1.350 . S
C778 C775 1.463 . S
C778 N782 1.427 . S
C779 H769 0.929 . S
C779 C777 1.433 . S
C779 N782 1.384 . S
C780 H771 0.929 . S
C780 C772 1.378 . S
C780 C775 1.350 . S
C781 H768 0.929 . S
C781 C773 1.433 . S
C781 N783 1.384 . S
N782 C778 1.427 . S
N782 C779 1.384 . S
N783 C775 1.427 . S
N783 C781 1.384 . S
H784 C790 0.930 . S
H785 C794 0.930 . S
H786 C799 0.929 . S
H787 C797 0.929 . S
H788 C792 0.929 . S
H789 C798 0.929 . S
C790 H784 0.930 . S
C790 C791 1.367 . S
C790 C798 1.378 . S
C791 C790 1.367 . S
C791 C799 1.433 . S
C792 H788 0.929 . S
C792 C794 1.378 . S
C792 C796 1.350 . S
C793 C796 1.463 . S
C793 C798 1.350 . S
C793 N801 1.427 . S
C794 H785 0.930 . S
C794 C792 1.378 . S
C794 C795 1.367 . S
C795 C794 1.367 . S
C795 C797 1.433 . S
C796 C792 1.350 . S
C796 C793 1.463 . S
C796 N800 1.427 . S
C797 H787 0.929 . S
C797 C795 1.433 . S
C797 N800 1.384 . S
C798 H789 0.929 . S
C798 C790 1.378 . S
C798 C793 1.350 . S
C799 H786 0.929 . S
C799 C791 1.433 . S
C799 N801 1.384 . S
N800 C796 1.427 . S
N800 C797 1.384 . S
N801 C793 1.427 . S
N801 C799 1.384 . S
H802 C808 0.930 . S
H803 C812 0.930 . S
H804 C817 0.929 . S
H805 C815 0.929 . S
H806 C810 0.929 . S
H807 C816 0.929 . S
C808 H802 0.930 . S
C808 C809 1.367 . S
C808 C816 1.378 . S
C809 C808 1.367 . S
C809 C817 1.433 . S
C810 H806 0.929 . S
C810 C812 1.378 . S
C810 C814 1.350 . S
C811 C814 1.463 . S
C811 C816 1.350 . S
C811 N819 1.427 . S
C812 H803 0.930 . S
C812 C810 1.378 . S
C812 C813 1.367 . S
C813 C812 1.367 . S
C813 C815 1.433 . S
C814 C810 1.350 . S
C814 C811 1.463 . S
C814 N818 1.427 . S
C815 H805 0.929 . S
C815 C813 1.433 . S
C815 N818 1.384 . S
C816 H807 0.929 . S
C816 C808 1.378 . S
C816 C811 1.350 . S
C817 H804 0.929 . S
C817 C809 1.433 . S
C817 N819 1.384 . S
N818 C814 1.427 . S
N818 C815 1.384 . S
N819 C811 1.427 . S
N819 C817 1.384 . S
H820 C826 0.930 . S
H821 C830 0.930 . S
H822 C835 0.929 . S
H823 C833 0.929 . S
H824 C828 0.929 . S
H825 C834 0.929 . S
C826 H820 0.930 . S
C826 C827 1.367 1_545 S
C826 C834 1.378 . S
C827 C826 1.367 1_565 S
C827 C835 1.433 . S
C828 H824 0.929 . S
C828 C830 1.378 . S
C828 C832 1.350 . S
C829 C832 1.463 . S
C829 C834 1.350 1_565 S
C829 N837 1.427 . S
C830 H821 0.930 . S
C830 C828 1.378 . S
C830 C831 1.367 . S
C831 C830 1.367 . S
C831 C833 1.433 1_565 S
C832 C828 1.350 . S
C832 C829 1.463 . S
C832 N836 1.427 1_565 S
C833 H823 0.929 . S
C833 C831 1.433 1_545 S
C833 N836 1.384 . S
C834 H825 0.929 . S
C834 C826 1.378 . S
C834 C829 1.350 1_545 S
C835 H822 0.929 . S
C835 C827 1.433 . S
C835 N837 1.384 . S
N836 C832 1.427 1_545 S
N836 C833 1.384 . S
N837 C829 1.427 . S
N837 C835 1.384 . S
H838 C844 0.929 1_655 S
H839 C848 0.930 . S
H840 C853 0.929 . S
H841 C851 0.929 . S
H842 C846 0.929 . S
H843 C852 0.929 . S
C844 H838 0.929 1_455 S
C844 C845 1.394 . S
C844 C852 1.355 1_455 S
C845 C844 1.394 . S
C845 C853 1.433 . S
C846 H842 0.929 . S
C846 C848 1.378 . S
C846 C850 1.350 . S
C847 C850 1.463 . S
C847 C852 1.350 1_455 S
C847 N855 1.427 . S
C848 H839 0.930 . S
C848 C846 1.378 . S
C848 C849 1.351 1_455 S
C849 C848 1.351 1_655 S
C849 C851 1.436 . S
C850 C846 1.350 . S
C850 C847 1.463 . S
C850 N854 1.427 1_455 S
C851 H841 0.929 . S
C851 C849 1.436 . S
C851 N854 1.384 . S
C852 H843 0.929 . S
C852 C844 1.355 1_655 S
C852 C847 1.350 1_655 S
C853 H840 0.929 . S
C853 C845 1.433 . S
C853 N855 1.384 . S
N854 C850 1.427 1_655 S
N854 C851 1.384 . S
N855 C847 1.427 . S
N855 C853 1.384 . S
H856 C862 0.930 1_554 S
H857 C866 0.930 . S
H858 C871 0.929 . S
H859 C869 0.929 1_554 S
H860 C864 0.929 . S
H861 C870 0.929 1_554 S
C862 H856 0.930 1_556 S
C862 C863 1.367 . S
C862 C870 1.378 . S
C863 C862 1.367 . S
C863 C871 1.433 . S
C864 H860 0.929 . S
C864 C866 1.378 . S
C864 C868 1.350 . S
C865 C868 1.463 . S
C865 C870 1.350 . S
C865 N873 1.427 . S
C866 H857 0.930 . S
C866 C864 1.378 . S
C866 C867 1.367 . S
C867 C866 1.367 . S
C867 C869 1.433 . S
C868 C864 1.350 . S
C868 C865 1.463 . S
C868 N872 1.427 . S
C869 H859 0.929 1_556 S
C869 C867 1.433 . S
C869 N872 1.384 . S
C870 H861 0.929 1_556 S
C870 C862 1.378 . S
C870 C865 1.350 . S
C871 H858 0.929 . S
C871 C863 1.433 . S
C871 N873 1.384 . S
N872 C868 1.427 . S
N872 C869 1.384 . S
N873 C865 1.427 . S
N873 C871 1.384 . S
H874 C880 0.930 . S
H875 C884 0.930 . S
H876 C889 0.929 . S
H877 C887 0.929 . S
H878 C882 0.929 . S
H879 C888 0.929 . S
C880 H874 0.930 . S
C880 C881 1.367 . S
C880 C888 1.378 . S
C881 C880 1.367 . S
C881 C889 1.433 . S
C882 H878 0.929 . S
C882 C884 1.378 . S
C882 C886 1.350 . S
C883 C886 1.463 . S
C883 C888 1.350 . S
C883 N891 1.427 . S
C884 H875 0.930 . S
C884 C882 1.378 . S
C884 C885 1.367 . S
C885 C884 1.367 . S
C885 C887 1.433 . S
C886 C882 1.350 . S
C886 C883 1.463 . S
C886 N890 1.427 . S
C887 H877 0.929 . S
C887 C885 1.433 . S
C887 N890 1.384 . S
C888 H879 0.929 . S
C888 C880 1.378 . S
C888 C883 1.350 . S
C889 H876 0.929 . S
C889 C881 1.433 . S
C889 N891 1.384 . S
N890 C886 1.427 . S
N890 C887 1.384 . S
N891 C883 1.427 . S
N891 C889 1.384 . S
H892 C898 0.930 . S
H893 C902 0.930 . S
H894 C907 0.929 . S
H895 C905 0.929 . S
H896 C900 0.929 . S
H897 C906 0.929 . S
C898 H892 0.930 . S
C898 C899 1.367 . S
C898 C906 1.378 . S
C899 C898 1.367 . S
C899 C907 1.433 . S
C900 H896 0.929 . S
C900 C902 1.378 . S
C900 C904 1.350 . S
C901 C904 1.463 . S
C901 C906 1.350 . S
C901 N909 1.427 . S
C902 H893 0.930 . S
C902 C900 1.378 . S
C902 C903 1.367 . S
C903 C902 1.367 . S
C903 C905 1.433 . S
C904 C900 1.350 . S
C904 C901 1.463 . S
C904 N908 1.427 . S
C905 H895 0.929 . S
C905 C903 1.433 . S
C905 N908 1.384 . S
C906 H897 0.929 . S
C906 C898 1.378 . S
C906 C901 1.350 . S
C907 H894 0.929 . S
C907 C899 1.433 . S
C907 N909 1.384 . S
N908 C904 1.427 . S
N908 C905 1.384 . S
N909 C901 1.427 . S
N909 C907 1.384 . S
H910 C916 0.930 . S
H911 C920 0.930 . S
H912 C925 0.929 . S
H913 C923 0.929 . S
H914 C918 0.929 . S
H915 C924 0.929 . S
C916 H910 0.930 . S
C916 C917 1.367 . S
C916 C924 1.378 . S
C917 C916 1.367 . S
C917 C925 1.433 . S
C918 H914 0.929 . S
C918 C920 1.378 . S
C918 C922 1.350 . S
C919 C922 1.463 . S
C919 C924 1.350 . S
C919 N927 1.427 . S
C920 H911 0.930 . S
C920 C918 1.378 . S
C920 C921 1.367 . S
C921 C920 1.367 . S
C921 C923 1.433 . S
C922 C918 1.350 . S
C922 C919 1.463 . S
C922 N926 1.427 . S
C923 H913 0.929 . S
C923 C921 1.433 . S
C923 N926 1.384 . S
C924 H915 0.929 . S
C924 C916 1.378 . S
C924 C919 1.350 . S
C925 H912 0.929 . S
C925 C917 1.433 . S
C925 N927 1.384 . S
N926 C922 1.427 . S
N926 C923 1.384 . S
N927 C919 1.427 . S
N927 C925 1.384 . S
H928 C934 0.930 . S
H929 C938 0.930 . S
H930 C943 0.929 . S
H931 C941 0.929 . S
H932 C936 0.929 . S
H933 C942 0.929 . S
C934 H928 0.930 . S
C934 C935 1.367 . S
C934 C942 1.378 . S
C935 C934 1.367 . S
C935 C943 1.433 . S
C936 H932 0.929 . S
C936 C938 1.378 . S
C936 C940 1.350 . S
C937 C940 1.463 . S
C937 C942 1.350 . S
C937 N945 1.427 . S
C938 H929 0.930 . S
C938 C936 1.378 . S
C938 C939 1.367 . S
C939 C938 1.367 . S
C939 C941 1.433 . S
C940 C936 1.350 . S
C940 C937 1.463 . S
C940 N944 1.427 . S
C941 H931 0.929 . S
C941 C939 1.433 . S
C941 N944 1.384 . S
C942 H933 0.929 . S
C942 C934 1.378 . S
C942 C937 1.350 . S
C943 H930 0.929 . S
C943 C935 1.433 . S
C943 N945 1.384 . S
N944 C940 1.427 . S
N944 C941 1.384 . S
N945 C937 1.427 . S
N945 C943 1.384 . S
H946 C952 0.930 . S
H947 C956 0.930 . S
H948 C961 0.929 . S
H949 C959 0.929 . S
H950 C954 0.929 . S
H951 C960 0.929 . S
C952 H946 0.930 . S
C952 C953 1.367 . S
C952 C960 1.378 . S
C953 C952 1.367 . S
C953 C961 1.433 . S
C954 H950 0.929 . S
C954 C956 1.378 . S
C954 C958 1.350 . S
C955 C958 1.463 . S
C955 C960 1.350 . S
C955 N963 1.427 . S
C956 H947 0.930 . S
C956 C954 1.378 . S
C956 C957 1.367 . S
C957 C956 1.367 . S
C957 C959 1.433 . S
C958 C954 1.350 . S
C958 C955 1.463 . S
C958 N962 1.427 . S
C959 H949 0.929 . S
C959 C957 1.433 . S
C959 N962 1.384 . S
C960 H951 0.929 . S
C960 C952 1.378 . S
C960 C955 1.350 . S
C961 H948 0.929 . S
C961 C953 1.433 . S
C961 N963 1.384 . S
N962 C958 1.427 . S
N962 C959 1.384 . S
N963 C955 1.427 . S
N963 C961 1.384 . S
H964 C970 0.930 . S
H965 C974 0.930 . S
H966 C979 0.929 . S
H967 C977 0.929 . S
H968 C972 0.929 . S
H969 C978 0.929 . S
C970 H964 0.930 . S
C970 C971 1.367 . S
C970 C978 1.378 . S
C971 C970 1.367 . S
C971 C979 1.433 . S
C972 H968 0.929 . S
C972 C974 1.378 . S
C972 C976 1.350 . S
C973 C976 1.463 . S
C973 C978 1.350 . S
C973 N981 1.427 . S
C974 H965 0.930 . S
C974 C972 1.378 . S
C974 C975 1.367 . S
C975 C974 1.367 . S
C975 C977 1.433 . S
C976 C972 1.350 . S
C976 C973 1.463 . S
C976 N980 1.427 . S
C977 H967 0.929 . S
C977 C975 1.433 . S
C977 N980 1.384 . S
C978 H969 0.929 . S
C978 C970 1.378 . S
C978 C973 1.350 . S
C979 H966 0.929 . S
C979 C971 1.433 . S
C979 N981 1.384 . S
N980 C976 1.427 . S
N980 C977 1.384 . S
N981 C973 1.427 . S
N981 C979 1.384 . S
H982 C988 0.930 . S
H983 C992 0.930 . S
H984 C997 0.929 . S
H985 C995 0.929 . S
H986 C990 0.929 . S
H987 C996 0.929 . S
C988 H982 0.930 . S
C988 C989 1.367 . S
C988 C996 1.378 . S
C989 C988 1.367 . S
C989 C997 1.433 . S
C990 H986 0.929 . S
C990 C992 1.378 . S
C990 C994 1.350 . S
C991 C994 1.463 . S
C991 C996 1.350 . S
C991 N999 1.427 . S
C992 H983 0.930 . S
C992 C990 1.378 . S
C992 C993 1.367 . S
C993 C992 1.367 . S
C993 C995 1.433 . S
C994 C990 1.350 . S
C994 C991 1.463 . S
C994 N998 1.427 . S
C995 H985 0.929 . S
C995 C993 1.433 . S
C995 N998 1.384 . S
C996 H987 0.929 . S
C996 C988 1.378 . S
C996 C991 1.350 . S
C997 H984 0.929 . S
C997 C989 1.433 . S
C997 N999 1.384 . S
N998 C994 1.427 . S
N998 C995 1.384 . S
N999 C991 1.427 . S
N999 C997 1.384 . S
H1000 C1006 0.930 . S
H1001 C1010 0.930 . S
H1002 C1015 0.929 . S
H1003 C1013 0.929 . S
H1004 C1008 0.929 . S
H1005 C1014 0.929 . S
C1006 H1000 0.930 . S
C1006 C1007 1.367 . S
C1006 C1014 1.378 . S
C1007 C1006 1.367 . S
C1007 C1015 1.433 . S
C1008 H1004 0.929 . S
C1008 C1010 1.378 . S
C1008 C1012 1.350 . S
C1009 C1012 1.463 . S
C1009 C1014 1.350 . S
C1009 N1017 1.427 . S
C1010 H1001 0.930 . S
C1010 C1008 1.378 . S
C1010 C1011 1.367 . S
C1011 C1010 1.367 . S
C1011 C1013 1.433 . S
C1012 C1008 1.350 . S
C1012 C1009 1.463 . S
C1012 N1016 1.427 . S
C1013 H1003 0.929 . S
C1013 C1011 1.433 . S
C1013 N1016 1.384 . S
C1014 H1005 0.929 . S
C1014 C1006 1.378 . S
C1014 C1009 1.350 . S
C1015 H1002 0.929 . S
C1015 C1007 1.433 . S
C1015 N1017 1.384 . S
N1016 C1012 1.427 . S
N1016 C1013 1.384 . S
N1017 C1009 1.427 . S
N1017 C1015 1.384 . S
H1018 C1024 0.930 . S
H1019 C1028 0.930 . S
H1020 C1033 0.929 . S
H1021 C1031 0.929 . S
H1022 C1026 0.929 . S
H1023 C1032 0.929 . S
C1024 H1018 0.930 . S
C1024 C1025 1.367 1_655 S
C1024 C1032 1.378 . S
C1025 C1024 1.367 1_455 S
C1025 C1033 1.433 . S
C1026 H1022 0.929 . S
C1026 C1028 1.378 . S
C1026 C1030 1.350 1_455 S
C1027 C1030 1.463 . S
C1027 C1032 1.350 . S
C1027 N1035 1.427 1_655 S
C1028 H1019 0.930 . S
C1028 C1026 1.378 . S
C1028 C1029 1.367 1_455 S
C1029 C1028 1.367 1_655 S
C1029 C1031 1.433 . S
C1030 C1026 1.350 1_655 S
C1030 C1027 1.463 . S
C1030 N1034 1.427 . S
C1031 H1021 0.929 . S
C1031 C1029 1.433 . S
C1031 N1034 1.384 . S
C1032 H1023 0.929 . S
C1032 C1024 1.378 . S
C1032 C1027 1.350 . S
C1033 H1020 0.929 . S
C1033 C1025 1.433 . S
C1033 N1035 1.384 . S
N1034 C1030 1.427 . S
N1034 C1031 1.384 . S
N1035 C1027 1.427 1_455 S
N1035 C1033 1.384 . S
H1036 C1042 0.930 . S
H1037 C1046 0.930 . S
H1038 C1051 0.929 . S
H1039 C1049 0.929 . S
H1040 C1044 0.929 . S
H1041 C1050 0.929 . S
C1042 H1036 0.930 . S
C1042 C1043 1.367 . S
C1042 C1050 1.378 . S
C1043 C1042 1.367 . S
C1043 C1051 1.433 . S
C1044 H1040 0.929 . S
C1044 C1046 1.378 . S
C1044 C1048 1.350 . S
C1045 C1048 1.463 . S
C1045 C1050 1.350 . S
C1045 N1053 1.427 . S
C1046 H1037 0.930 . S
C1046 C1044 1.378 . S
C1046 C1047 1.367 . S
C1047 C1046 1.367 . S
C1047 C1049 1.433 . S
C1048 C1044 1.350 . S
C1048 C1045 1.463 . S
C1048 N1052 1.427 . S
C1049 H1039 0.929 . S
C1049 C1047 1.433 . S
C1049 N1052 1.384 . S
C1050 H1041 0.929 . S
C1050 C1042 1.378 . S
C1050 C1045 1.350 . S
C1051 H1038 0.929 . S
C1051 C1043 1.433 . S
C1051 N1053 1.384 . S
N1052 C1048 1.427 . S
N1052 C1049 1.384 . S
N1053 C1045 1.427 . S
N1053 C1051 1.384 . S
H1054 C1060 0.930 . S
H1055 C1064 0.930 . S
H1056 C1069 0.929 . S
H1057 C1067 0.929 . S
H1058 C1062 0.929 . S
H1059 C1068 0.929 . S
C1060 H1054 0.930 . S
C1060 C1061 1.367 . S
C1060 C1068 1.378 . S
C1061 C1060 1.367 . S
C1061 C1069 1.433 . S
C1062 H1058 0.929 . S
C1062 C1064 1.378 . S
C1062 C1066 1.350 . S
C1063 C1066 1.463 . S
C1063 C1068 1.350 . S
C1063 N1071 1.427 . S
C1064 H1055 0.930 . S
C1064 C1062 1.378 . S
C1064 C1065 1.367 . S
C1065 C1064 1.367 . S
C1065 C1067 1.433 . S
C1066 C1062 1.350 . S
C1066 C1063 1.463 . S
C1066 N1070 1.427 . S
C1067 H1057 0.929 . S
C1067 C1065 1.433 . S
C1067 N1070 1.384 . S
C1068 H1059 0.929 . S
C1068 C1060 1.378 . S
C1068 C1063 1.350 . S
C1069 H1056 0.929 . S
C1069 C1061 1.433 . S
C1069 N1071 1.384 . S
N1070 C1066 1.427 . S
N1070 C1067 1.384 . S
N1071 C1063 1.427 . S
N1071 C1069 1.384 . S
H1072 C1078 0.930 . S
H1073 C1082 0.930 . S
H1074 C1087 0.929 . S
H1075 C1085 0.929 . S
H1076 C1080 0.929 . S
H1077 C1086 0.929 . S
C1078 H1072 0.930 . S
C1078 C1079 1.367 . S
C1078 C1086 1.378 . S
C1079 C1078 1.367 . S
C1079 C1087 1.433 . S
C1080 H1076 0.929 . S
C1080 C1082 1.378 . S
C1080 C1084 1.350 . S
C1081 C1084 1.463 . S
C1081 C1086 1.350 . S
C1081 N1089 1.427 . S
C1082 H1073 0.930 . S
C1082 C1080 1.378 . S
C1082 C1083 1.367 . S
C1083 C1082 1.367 . S
C1083 C1085 1.433 . S
C1084 C1080 1.350 . S
C1084 C1081 1.463 . S
C1084 N1088 1.427 . S
C1085 H1075 0.929 . S
C1085 C1083 1.433 . S
C1085 N1088 1.384 . S
C1086 H1077 0.929 . S
C1086 C1078 1.378 . S
C1086 C1081 1.350 . S
C1087 H1074 0.929 . S
C1087 C1079 1.433 . S
C1087 N1089 1.384 . S
N1088 C1084 1.427 . S
N1088 C1085 1.384 . S
N1089 C1081 1.427 . S
N1089 C1087 1.384 . S
H1090 C1096 0.930 . S
H1091 C1100 0.930 . S
H1092 C1105 0.929 . S
H1093 C1103 0.929 . S
H1094 C1098 0.929 . S
H1095 C1104 0.929 . S
C1096 H1090 0.930 . S
C1096 C1097 1.367 . S
C1096 C1104 1.378 . S
C1097 C1096 1.367 . S
C1097 C1105 1.433 . S
C1098 H1094 0.929 . S
C1098 C1100 1.378 . S
C1098 C1102 1.350 . S
C1099 C1102 1.463 . S
C1099 C1104 1.350 . S
C1099 N1107 1.427 . S
C1100 H1091 0.930 . S
C1100 C1098 1.378 . S
C1100 C1101 1.367 . S
C1101 C1100 1.367 . S
C1101 C1103 1.433 . S
C1102 C1098 1.350 . S
C1102 C1099 1.463 . S
C1102 N1106 1.427 . S
C1103 H1093 0.929 . S
C1103 C1101 1.433 . S
C1103 N1106 1.384 . S
C1104 H1095 0.929 . S
C1104 C1096 1.378 . S
C1104 C1099 1.350 . S
C1105 H1092 0.929 . S
C1105 C1097 1.433 . S
C1105 N1107 1.384 . S
N1106 C1102 1.427 . S
N1106 C1103 1.384 . S
N1107 C1099 1.427 . S
N1107 C1105 1.384 . S
H1108 C1114 0.930 . S
H1109 C1118 0.930 . S
H1110 C1123 0.929 . S
H1111 C1121 0.929 . S
H1112 C1116 0.929 . S
H1113 C1122 0.929 . S
C1114 H1108 0.930 . S
C1114 C1115 1.367 1_565 S
C1114 C1122 1.378 . S
C1115 C1114 1.367 1_545 S
C1115 C1123 1.433 . S
C1116 H1112 0.929 . S
C1116 C1118 1.378 . S
C1116 C1120 1.350 . S
C1117 C1120 1.463 . S
C1117 C1122 1.350 1_545 S
C1117 N1125 1.427 . S
C1118 H1109 0.930 . S
C1118 C1116 1.378 . S
C1118 C1119 1.367 . S
C1119 C1118 1.367 . S
C1119 C1121 1.433 1_545 S
C1120 C1116 1.350 . S
C1120 C1117 1.463 . S
C1120 N1124 1.427 1_545 S
C1121 H1111 0.929 . S
C1121 C1119 1.433 1_565 S
C1121 N1124 1.384 . S
C1122 H1113 0.929 . S
C1122 C1114 1.378 . S
C1122 C1117 1.350 1_565 S
C1123 H1110 0.929 . S
C1123 C1115 1.433 . S
C1123 N1125 1.384 . S
N1124 C1120 1.427 1_565 S
N1124 C1121 1.384 . S
N1125 C1117 1.427 . S
N1125 C1123 1.384 . S
H1126 C1132 0.930 . S
H1127 C1136 0.930 . S
H1128 C1141 0.929 . S
H1129 C1139 0.929 . S
H1130 C1134 0.929 . S
H1131 C1140 0.929 . S
C1132 H1126 0.930 . S
C1132 C1133 1.367 . S
C1132 C1140 1.378 . S
C1133 C1132 1.367 . S
C1133 C1141 1.433 . S
C1134 H1130 0.929 . S
C1134 C1136 1.378 . S
C1134 C1138 1.350 . S
C1135 C1138 1.463 . S
C1135 C1140 1.350 . S
C1135 N1143 1.427 . S
C1136 H1127 0.930 . S
C1136 C1134 1.378 . S
C1136 C1137 1.367 . S
C1137 C1136 1.367 . S
C1137 C1139 1.433 . S
C1138 C1134 1.350 . S
C1138 C1135 1.463 . S
C1138 N1142 1.427 . S
C1139 H1129 0.929 . S
C1139 C1137 1.433 . S
C1139 N1142 1.384 . S
C1140 H1131 0.929 . S
C1140 C1132 1.378 . S
C1140 C1135 1.350 . S
C1141 H1128 0.929 . S
C1141 C1133 1.433 . S
C1141 N1143 1.384 . S
N1142 C1138 1.427 . S
N1142 C1139 1.384 . S
N1143 C1135 1.427 . S
N1143 C1141 1.384 . S
H1144 C1150 0.930 . S
H1145 C1154 0.930 . S
H1146 C1159 0.929 . S
H1147 C1157 0.929 . S
H1148 C1152 0.929 . S
H1149 C1158 0.929 . S
C1150 H1144 0.930 . S
C1150 C1151 1.367 . S
C1150 C1158 1.378 . S
C1151 C1150 1.367 . S
C1151 C1159 1.433 . S
C1152 H1148 0.929 . S
C1152 C1154 1.378 . S
C1152 C1156 1.350 . S
C1153 C1156 1.463 . S
C1153 C1158 1.350 . S
C1153 N1161 1.427 . S
C1154 H1145 0.930 . S
C1154 C1152 1.378 . S
C1154 C1155 1.367 . S
C1155 C1154 1.367 . S
C1155 C1157 1.433 . S
C1156 C1152 1.350 . S
C1156 C1153 1.463 . S
C1156 N1160 1.427 . S
C1157 H1147 0.929 . S
C1157 C1155 1.433 . S
C1157 N1160 1.384 . S
C1158 H1149 0.929 . S
C1158 C1150 1.378 . S
C1158 C1153 1.350 . S
C1159 H1146 0.929 . S
C1159 C1151 1.433 . S
C1159 N1161 1.384 . S
N1160 C1156 1.427 . S
N1160 C1157 1.384 . S
N1161 C1153 1.427 . S
N1161 C1159 1.384 . S
H1162 C1168 0.930 . S
H1163 C1172 0.930 . S
H1164 C1177 0.929 . S
H1165 C1175 0.929 . S
H1166 C1170 0.929 . S
H1167 C1176 0.929 . S
C1168 H1162 0.930 . S
C1168 C1169 1.367 . S
C1168 C1176 1.378 . S
C1169 C1168 1.367 . S
C1169 C1177 1.433 . S
C1170 H1166 0.929 . S
C1170 C1172 1.378 . S
C1170 C1174 1.350 . S
C1171 C1174 1.463 . S
C1171 C1176 1.350 . S
C1171 N1179 1.427 . S
C1172 H1163 0.930 . S
C1172 C1170 1.378 . S
C1172 C1173 1.367 . S
C1173 C1172 1.367 . S
C1173 C1175 1.433 . S
C1174 C1170 1.350 . S
C1174 C1171 1.463 . S
C1174 N1178 1.427 . S
C1175 H1165 0.929 . S
C1175 C1173 1.433 . S
C1175 N1178 1.384 . S
C1176 H1167 0.929 . S
C1176 C1168 1.378 . S
C1176 C1171 1.350 . S
C1177 H1164 0.929 . S
C1177 C1169 1.433 . S
C1177 N1179 1.384 . S
N1178 C1174 1.427 . S
N1178 C1175 1.384 . S
N1179 C1171 1.427 . S
N1179 C1177 1.384 . S
H1180 C1186 0.930 . S
H1181 C1190 0.930 . S
H1182 C1195 0.929 . S
H1183 C1193 0.929 . S
H1184 C1188 0.929 . S
H1185 C1194 0.929 . S
C1186 H1180 0.930 . S
C1186 C1187 1.367 . S
C1186 C1194 1.378 . S
C1187 C1186 1.367 . S
C1187 C1195 1.433 . S
C1188 H1184 0.929 . S
C1188 C1190 1.378 . S
C1188 C1192 1.350 . S
C1189 C1192 1.463 . S
C1189 C1194 1.350 . S
C1189 N1197 1.427 . S
C1190 H1181 0.930 . S
C1190 C1188 1.378 . S
C1190 C1191 1.367 . S
C1191 C1190 1.367 . S
C1191 C1193 1.433 . S
C1192 C1188 1.350 . S
C1192 C1189 1.463 . S
C1192 N1196 1.427 . S
C1193 H1183 0.929 . S
C1193 C1191 1.433 . S
C1193 N1196 1.384 . S
C1194 H1185 0.929 . S
C1194 C1186 1.378 . S
C1194 C1189 1.350 . S
C1195 H1182 0.929 . S
C1195 C1187 1.433 . S
C1195 N1197 1.384 . S
N1196 C1192 1.427 . S
N1196 C1193 1.384 . S
N1197 C1189 1.427 . S
N1197 C1195 1.384 . S
H1198 C1204 0.930 . S
H1199 C1208 0.930 . S
H1200 C1213 0.929 . S
H1201 C1211 0.929 . S
H1202 C1206 0.929 . S
H1203 C1212 0.929 . S
C1204 H1198 0.930 . S
C1204 C1205 1.367 . S
C1204 C1212 1.378 . S
C1205 C1204 1.367 . S
C1205 C1213 1.433 . S
C1206 H1202 0.929 . S
C1206 C1208 1.378 . S
C1206 C1210 1.350 . S
C1207 C1210 1.463 . S
C1207 C1212 1.350 . S
C1207 N1215 1.427 . S
C1208 H1199 0.930 . S
C1208 C1206 1.378 . S
C1208 C1209 1.367 . S
C1209 C1208 1.367 . S
C1209 C1211 1.433 . S
C1210 C1206 1.350 . S
C1210 C1207 1.463 . S
C1210 N1214 1.427 . S
C1211 H1201 0.929 . S
C1211 C1209 1.433 . S
C1211 N1214 1.384 . S
C1212 H1203 0.929 . S
C1212 C1204 1.378 . S
C1212 C1207 1.350 . S
C1213 H1200 0.929 . S
C1213 C1205 1.433 . S
C1213 N1215 1.384 . S
N1214 C1210 1.427 . S
N1214 C1211 1.384 . S
N1215 C1207 1.427 . S
N1215 C1213 1.384 . S
H1216 C1222 0.930 . S
H1217 C1226 0.930 . S
H1218 C1231 0.929 . S
H1219 C1229 0.929 . S
H1220 C1224 0.929 . S
H1221 C1230 0.929 . S
C1222 H1216 0.930 . S
C1222 C1223 1.367 . S
C1222 C1230 1.378 . S
C1223 C1222 1.367 . S
C1223 C1231 1.433 . S
C1224 H1220 0.929 . S
C1224 C1226 1.378 . S
C1224 C1228 1.350 . S
C1225 C1228 1.463 . S
C1225 C1230 1.350 . S
C1225 N1233 1.427 . S
C1226 H1217 0.930 . S
C1226 C1224 1.378 . S
C1226 C1227 1.367 . S
C1227 C1226 1.367 . S
C1227 C1229 1.433 . S
C1228 C1224 1.350 . S
C1228 C1225 1.463 . S
C1228 N1232 1.427 . S
C1229 H1219 0.929 . S
C1229 C1227 1.433 . S
C1229 N1232 1.384 . S
C1230 H1221 0.929 . S
C1230 C1222 1.378 . S
C1230 C1225 1.350 . S
C1231 H1218 0.929 . S
C1231 C1223 1.433 . S
C1231 N1233 1.384 . S
N1232 C1228 1.427 . S
N1232 C1229 1.384 . S
N1233 C1225 1.427 . S
N1233 C1231 1.384 . S
H1234 C1240 0.930 . S
H1235 C1244 0.930 . S
H1236 C1249 0.929 . S
H1237 C1247 0.929 . S
H1238 C1242 0.929 . S
H1239 C1248 0.929 . S
C1240 H1234 0.930 . S
C1240 C1241 1.367 . S
C1240 C1248 1.378 . S
C1241 C1240 1.367 . S
C1241 C1249 1.433 . S
C1242 H1238 0.929 . S
C1242 C1244 1.378 . S
C1242 C1246 1.350 . S
C1243 C1246 1.463 . S
C1243 C1248 1.350 . S
C1243 N1251 1.427 . S
C1244 H1235 0.930 . S
C1244 C1242 1.378 . S
C1244 C1245 1.367 . S
C1245 C1244 1.367 . S
C1245 C1247 1.433 . S
C1246 C1242 1.350 . S
C1246 C1243 1.463 . S
C1246 N1250 1.427 . S
C1247 H1237 0.929 . S
C1247 C1245 1.433 . S
C1247 N1250 1.384 . S
C1248 H1239 0.929 . S
C1248 C1240 1.378 . S
C1248 C1243 1.350 . S
C1249 H1236 0.929 . S
C1249 C1241 1.433 . S
C1249 N1251 1.384 . S
N1250 C1246 1.427 . S
N1250 C1247 1.384 . S
N1251 C1243 1.427 . S
N1251 C1249 1.384 . S
H1252 C1258 0.930 . S
H1253 C1262 0.930 . S
H1254 C1267 0.929 . S
H1255 C1265 0.929 . S
H1256 C1260 0.929 . S
H1257 C1266 0.929 . S
C1258 H1252 0.930 . S
C1258 C1259 1.367 . S
C1258 C1266 1.378 . S
C1259 C1258 1.367 . S
C1259 C1267 1.433 . S
C1260 H1256 0.929 . S
C1260 C1262 1.378 . S
C1260 C1264 1.350 . S
C1261 C1264 1.463 . S
C1261 C1266 1.350 . S
C1261 N1269 1.427 . S
C1262 H1253 0.930 . S
C1262 C1260 1.378 . S
C1262 C1263 1.367 . S
C1263 C1262 1.367 . S
C1263 C1265 1.433 . S
C1264 C1260 1.350 . S
C1264 C1261 1.463 . S
C1264 N1268 1.427 . S
C1265 H1255 0.929 . S
C1265 C1263 1.433 . S
C1265 N1268 1.384 . S
C1266 H1257 0.929 . S
C1266 C1258 1.378 . S
C1266 C1261 1.350 . S
C1267 H1254 0.929 . S
C1267 C1259 1.433 . S
C1267 N1269 1.384 . S
N1268 C1264 1.427 . S
N1268 C1265 1.384 . S
N1269 C1261 1.427 . S
N1269 C1267 1.384 . S
H1270 C1276 0.930 . S
H1271 C1280 0.930 . S
H1272 C1285 0.929 . S
H1273 C1283 0.929 . S
H1274 C1278 0.929 . S
H1275 C1284 0.929 . S
C1276 H1270 0.930 . S
C1276 C1277 1.367 . S
C1276 C1284 1.378 . S
C1277 C1276 1.367 . S
C1277 C1285 1.433 . S
C1278 H1274 0.929 . S
C1278 C1280 1.378 . S
C1278 C1282 1.350 . S
C1279 C1282 1.463 . S
C1279 C1284 1.350 . S
C1279 N1287 1.427 . S
C1280 H1271 0.930 . S
C1280 C1278 1.378 . S
C1280 C1281 1.367 . S
C1281 C1280 1.367 . S
C1281 C1283 1.433 . S
C1282 C1278 1.350 . S
C1282 C1279 1.463 . S
C1282 N1286 1.427 . S
C1283 H1273 0.929 . S
C1283 C1281 1.433 . S
C1283 N1286 1.384 . S
C1284 H1275 0.929 . S
C1284 C1276 1.378 . S
C1284 C1279 1.350 . S
C1285 H1272 0.929 . S
C1285 C1277 1.433 . S
C1285 N1287 1.384 . S
N1286 C1282 1.427 . S
N1286 C1283 1.384 . S
N1287 C1279 1.427 . S
N1287 C1285 1.384 . S
H1288 C1294 0.930 . S
H1289 C1298 0.930 . S
H1290 C1303 0.929 . S
H1291 C1301 0.939 . S
H1292 C1296 0.929 . S
H1293 C1302 0.929 . S
C1294 H1288 0.930 . S
C1294 C1295 1.367 . S
C1294 C1302 1.378 . S
C1295 C1294 1.367 . S
C1295 C1303 1.433 . S
C1296 H1292 0.929 . S
C1296 C1298 1.378 . S
C1296 C1300 1.350 . S
C1297 C1300 1.463 . S
C1297 C1302 1.350 . S
C1297 N1305 1.427 . S
C1298 H1289 0.930 . S
C1298 C1296 1.378 . S
C1298 C1299 1.367 . S
C1299 C1298 1.367 . S
C1299 C1301 1.433 . S
C1300 C1296 1.350 . S
C1300 C1297 1.463 . S
C1300 N1304 1.427 . S
C1301 H1291 0.939 . S
C1301 C1299 1.433 . S
C1301 N1304 1.384 . S
C1302 H1293 0.929 . S
C1302 C1294 1.378 . S
C1302 C1297 1.350 . S
C1303 H1290 0.929 . S
C1303 C1295 1.433 . S
C1303 N1305 1.384 . S
N1304 C1300 1.427 . S
N1304 C1301 1.384 . S
N1305 C1297 1.427 . S
N1305 C1303 1.384 . S
H1306 C1312 0.930 . S
H1307 C1316 0.930 1_556 S
H1308 C1321 0.929 . S
H1309 C1319 0.929 . S
H1310 C1314 0.929 1_556 S
H1311 C1320 0.929 . S
C1312 H1306 0.930 . S
C1312 C1313 1.367 . S
C1312 C1320 1.378 . S
C1313 C1312 1.367 . S
C1313 C1321 1.433 . S
C1314 H1310 0.929 1_554 S
C1314 C1316 1.378 . S
C1314 C1318 1.350 . S
C1315 C1318 1.463 . S
C1315 C1320 1.350 . S
C1315 N1323 1.427 . S
C1316 H1307 0.930 1_554 S
C1316 C1314 1.378 . S
C1316 C1317 1.367 . S
C1317 C1316 1.367 . S
C1317 C1319 1.433 . S
C1318 C1314 1.350 . S
C1318 C1315 1.463 . S
C1318 N1322 1.427 . S
C1319 H1309 0.929 . S
C1319 C1317 1.433 . S
C1319 N1322 1.384 . S
C1320 H1311 0.929 . S
C1320 C1312 1.378 . S
C1320 C1315 1.350 . S
C1321 H1308 0.929 . S
C1321 C1313 1.433 . S
C1321 N1323 1.384 . S
N1322 C1318 1.427 . S
N1322 C1319 1.384 . S
N1323 C1315 1.427 . S
N1323 C1321 1.384 . S
H1324 C1330 0.930 . S
H1325 C1334 0.930 . S
H1326 C1339 0.929 . S
H1327 C1337 0.929 . S
H1328 C1332 0.929 . S
H1329 C1338 0.929 . S
C1330 H1324 0.930 . S
C1330 C1331 1.367 . S
C1330 C1338 1.378 . S
C1331 C1330 1.367 . S
C1331 C1339 1.433 . S
C1332 H1328 0.929 . S
C1332 C1334 1.378 . S
C1332 C1336 1.350 . S
C1333 C1336 1.463 . S
C1333 C1338 1.350 . S
C1333 N1341 1.427 . S
C1334 H1325 0.930 . S
C1334 C1332 1.378 . S
C1334 C1335 1.367 . S
C1335 C1334 1.367 . S
C1335 C1337 1.433 . S
C1336 C1332 1.350 . S
C1336 C1333 1.463 . S
C1336 N1340 1.427 . S
C1337 H1327 0.929 . S
C1337 C1335 1.433 . S
C1337 N1340 1.384 . S
C1338 H1329 0.929 . S
C1338 C1330 1.378 . S
C1338 C1333 1.350 . S
C1339 H1326 0.929 . S
C1339 C1331 1.433 . S
C1339 N1341 1.384 . S
N1340 C1336 1.427 . S
N1340 C1337 1.384 . S
N1341 C1333 1.427 . S
N1341 C1339 1.384 . S
H1342 C1348 0.930 . S
H1343 C1352 0.930 . S
H1344 C1357 0.929 . S
H1345 C1355 0.929 . S
H1346 C1350 0.929 . S
H1347 C1356 0.929 . S
C1348 H1342 0.930 . S
C1348 C1349 1.367 . S
C1348 C1356 1.378 . S
C1349 C1348 1.367 . S
C1349 C1357 1.433 . S
C1350 H1346 0.929 . S
C1350 C1352 1.378 . S
C1350 C1354 1.350 . S
C1351 C1354 1.463 . S
C1351 C1356 1.350 . S
C1351 N1359 1.427 . S
C1352 H1343 0.930 . S
C1352 C1350 1.378 . S
C1352 C1353 1.367 . S
C1353 C1352 1.367 . S
C1353 C1355 1.433 . S
C1354 C1350 1.350 . S
C1354 C1351 1.463 . S
C1354 N1358 1.427 . S
C1355 H1345 0.929 . S
C1355 C1353 1.433 . S
C1355 N1358 1.384 . S
C1356 H1347 0.929 . S
C1356 C1348 1.378 . S
C1356 C1351 1.350 . S
C1357 H1344 0.929 . S
C1357 C1349 1.433 . S
C1357 N1359 1.384 . S
N1358 C1354 1.427 . S
N1358 C1355 1.384 . S
N1359 C1351 1.427 . S
N1359 C1357 1.384 . S
H1360 C1366 0.930 . S
H1361 C1370 0.930 . S
H1362 C1375 0.929 . S
H1363 C1373 0.929 . S
H1364 C1368 0.929 . S
H1365 C1374 0.929 . S
C1366 H1360 0.930 . S
C1366 C1367 1.367 . S
C1366 C1374 1.378 . S
C1367 C1366 1.367 . S
C1367 C1375 1.433 . S
C1368 H1364 0.929 . S
C1368 C1370 1.378 . S
C1368 C1372 1.350 . S
C1369 C1372 1.463 . S
C1369 C1374 1.350 . S
C1369 N1377 1.427 . S
C1370 H1361 0.930 . S
C1370 C1368 1.378 . S
C1370 C1371 1.367 . S
C1371 C1370 1.367 . S
C1371 C1373 1.433 . S
C1372 C1368 1.350 . S
C1372 C1369 1.463 . S
C1372 N1376 1.427 . S
C1373 H1363 0.929 . S
C1373 C1371 1.433 . S
C1373 N1376 1.384 . S
C1374 H1365 0.929 . S
C1374 C1366 1.378 . S
C1374 C1369 1.350 . S
C1375 H1362 0.929 . S
C1375 C1367 1.433 . S
C1375 N1377 1.384 . S
N1376 C1372 1.427 . S
N1376 C1373 1.384 . S
N1377 C1369 1.427 . S
N1377 C1375 1.384 . S
H1378 C1384 0.930 . S
H1379 C1388 0.930 . S
H1380 C1393 0.929 . S
H1381 C1391 0.929 . S
H1382 C1386 0.929 . S
H1383 C1392 0.929 . S
C1384 H1378 0.930 . S
C1384 C1385 1.367 . S
C1384 C1392 1.378 . S
C1385 C1384 1.367 . S
C1385 C1393 1.433 . S
C1386 H1382 0.929 . S
C1386 C1388 1.378 . S
C1386 C1390 1.350 . S
C1387 C1390 1.463 . S
C1387 C1392 1.350 . S
C1387 N1395 1.427 . S
C1388 H1379 0.930 . S
C1388 C1386 1.378 . S
C1388 C1389 1.367 . S
C1389 C1388 1.367 . S
C1389 C1391 1.433 . S
C1390 C1386 1.350 . S
C1390 C1387 1.463 . S
C1390 N1394 1.427 . S
C1391 H1381 0.929 . S
C1391 C1389 1.433 . S
C1391 N1394 1.384 . S
C1392 H1383 0.929 . S
C1392 C1384 1.378 . S
C1392 C1387 1.350 . S
C1393 H1380 0.929 . S
C1393 C1385 1.433 . S
C1393 N1395 1.384 . S
N1394 C1390 1.427 . S
N1394 C1391 1.384 . S
N1395 C1387 1.427 . S
N1395 C1393 1.384 . S
H1396 C1402 0.930 . S
H1397 C1406 0.930 . S
H1398 C1411 0.929 . S
H1399 C1409 0.929 . S
H1400 C1404 0.929 . S
H1401 C1410 0.929 . S
C1402 H1396 0.930 . S
C1402 C1403 1.367 . S
C1402 C1410 1.378 . S
C1403 C1402 1.367 . S
C1403 C1411 1.433 . S
C1404 H1400 0.929 . S
C1404 C1406 1.378 . S
C1404 C1408 1.350 . S
C1405 C1408 1.463 . S
C1405 C1410 1.350 . S
C1405 N1413 1.427 . S
C1406 H1397 0.930 . S
C1406 C1404 1.378 . S
C1406 C1407 1.367 . S
C1407 C1406 1.367 . S
C1407 C1409 1.433 . S
C1408 C1404 1.350 . S
C1408 C1405 1.463 . S
C1408 N1412 1.427 . S
C1409 H1399 0.929 . S
C1409 C1407 1.433 . S
C1409 N1412 1.384 . S
C1410 H1401 0.929 . S
C1410 C1402 1.378 . S
C1410 C1405 1.350 . S
C1411 H1398 0.929 . S
C1411 C1403 1.433 . S
C1411 N1413 1.384 . S
N1412 C1408 1.427 . S
N1412 C1409 1.384 . S
N1413 C1405 1.427 . S
N1413 C1411 1.384 . S
H1414 C1420 0.930 . S
H1415 C1424 0.930 . S
H1416 C1429 0.929 . S
H1417 C1427 0.929 . S
H1418 C1422 0.929 . S
H1419 C1428 0.929 . S
C1420 H1414 0.930 . S
C1420 C1421 1.367 . S
C1420 C1428 1.378 . S
C1421 C1420 1.367 . S
C1421 C1429 1.433 . S
C1422 H1418 0.929 . S
C1422 C1424 1.378 . S
C1422 C1426 1.350 . S
C1423 C1426 1.463 . S
C1423 C1428 1.350 . S
C1423 N1431 1.427 . S
C1424 H1415 0.930 . S
C1424 C1422 1.378 . S
C1424 C1425 1.367 . S
C1425 C1424 1.367 . S
C1425 C1427 1.433 . S
C1426 C1422 1.350 . S
C1426 C1423 1.463 . S
C1426 N1430 1.427 . S
C1427 H1417 0.929 . S
C1427 C1425 1.433 . S
C1427 N1430 1.384 . S
C1428 H1419 0.929 . S
C1428 C1420 1.378 . S
C1428 C1423 1.350 . S
C1429 H1416 0.929 . S
C1429 C1421 1.433 . S
C1429 N1431 1.384 . S
N1430 C1426 1.427 . S
N1430 C1427 1.384 . S
N1431 C1423 1.427 . S
N1431 C1429 1.384 . S
H1432 C1438 0.930 . S
H1433 C1442 0.930 . S
H1434 C1447 0.929 . S
H1435 C1445 0.929 . S
H1436 C1440 0.929 . S
H1437 C1446 0.929 . S
C1438 H1432 0.930 . S
C1438 C1439 1.367 . S
C1438 C1446 1.378 . S
C1439 C1438 1.367 . S
C1439 C1447 1.433 . S
C1440 H1436 0.929 . S
C1440 C1442 1.378 . S
C1440 C1444 1.350 . S
C1441 C1444 1.463 . S
C1441 C1446 1.350 . S
C1441 N1449 1.427 . S
C1442 H1433 0.930 . S
C1442 C1440 1.378 . S
C1442 C1443 1.367 . S
C1443 C1442 1.367 . S
C1443 C1445 1.433 . S
C1444 C1440 1.350 . S
C1444 C1441 1.463 . S
C1444 N1448 1.427 . S
C1445 H1435 0.929 . S
C1445 C1443 1.433 . S
C1445 N1448 1.384 . S
C1446 H1437 0.929 . S
C1446 C1438 1.378 . S
C1446 C1441 1.350 . S
C1447 H1434 0.929 . S
C1447 C1439 1.433 . S
C1447 N1449 1.384 . S
N1448 C1444 1.427 . S
N1448 C1445 1.384 . S
N1449 C1441 1.427 . S
N1449 C1447 1.384 . S
H1450 C1456 0.930 . S
H1451 C1460 0.930 . S
H1452 C1465 0.929 . S
H1453 C1463 0.929 . S
H1454 C1458 0.929 . S
H1455 C1464 0.929 . S
C1456 H1450 0.930 . S
C1456 C1457 1.367 . S
C1456 C1464 1.378 . S
C1457 C1456 1.367 . S
C1457 C1465 1.433 . S
C1458 H1454 0.929 . S
C1458 C1460 1.378 . S
C1458 C1462 1.350 . S
C1459 C1462 1.463 . S
C1459 C1464 1.350 . S
C1459 N1467 1.427 . S
C1460 H1451 0.930 . S
C1460 C1458 1.378 . S
C1460 C1461 1.367 . S
C1461 C1460 1.367 . S
C1461 C1463 1.433 . S
C1462 C1458 1.350 . S
C1462 C1459 1.463 . S
C1462 N1466 1.427 . S
C1463 H1453 0.929 . S
C1463 C1461 1.433 . S
C1463 N1466 1.384 . S
C1464 H1455 0.929 . S
C1464 C1456 1.378 . S
C1464 C1459 1.350 . S
C1465 H1452 0.929 . S
C1465 C1457 1.433 . S
C1465 N1467 1.384 . S
N1466 C1462 1.427 . S
N1466 C1463 1.384 . S
N1467 C1459 1.427 . S
N1467 C1465 1.384 . S
H1468 C1474 0.930 . S
H1469 C1478 0.930 . S
H1470 C1483 0.929 . S
H1471 C1481 0.929 . S
H1472 C1476 0.929 . S
H1473 C1482 0.929 . S
C1474 H1468 0.930 . S
C1474 C1475 1.367 . S
C1474 C1482 1.378 . S
C1475 C1474 1.367 . S
C1475 C1483 1.433 . S
C1476 H1472 0.929 . S
C1476 C1478 1.378 . S
C1476 C1480 1.350 . S
C1477 C1480 1.463 . S
C1477 C1482 1.350 . S
C1477 N1485 1.427 . S
C1478 H1469 0.930 . S
C1478 C1476 1.378 . S
C1478 C1479 1.367 . S
C1479 C1478 1.367 . S
C1479 C1481 1.433 . S
C1480 C1476 1.350 . S
C1480 C1477 1.463 . S
C1480 N1484 1.427 . S
C1481 H1471 0.929 . S
C1481 C1479 1.433 . S
C1481 N1484 1.384 . S
C1482 H1473 0.929 . S
C1482 C1474 1.378 . S
C1482 C1477 1.350 . S
C1483 H1470 0.929 . S
C1483 C1475 1.433 . S
C1483 N1485 1.384 . S
N1484 C1480 1.427 . S
N1484 C1481 1.384 . S
N1485 C1477 1.427 . S
N1485 C1483 1.384 . S
H1486 C1492 0.930 . S
H1487 C1496 0.930 . S
H1488 C1501 0.929 . S
H1489 C1499 0.929 . S
H1490 C1494 0.929 . S
H1491 C1500 0.929 . S
C1492 H1486 0.930 . S
C1492 C1493 1.367 . S
C1492 C1500 1.378 . S
C1493 C1492 1.367 . S
C1493 C1501 1.433 . S
C1494 H1490 0.929 . S
C1494 C1496 1.378 . S
C1494 C1498 1.350 . S
C1495 C1498 1.463 . S
C1495 C1500 1.350 . S
C1495 N1503 1.427 . S
C1496 H1487 0.930 . S
C1496 C1494 1.378 . S
C1496 C1497 1.367 . S
C1497 C1496 1.367 . S
C1497 C1499 1.433 . S
C1498 C1494 1.350 . S
C1498 C1495 1.463 . S
C1498 N1502 1.427 . S
C1499 H1489 0.929 . S
C1499 C1497 1.433 . S
C1499 N1502 1.384 . S
C1500 H1491 0.929 . S
C1500 C1492 1.378 . S
C1500 C1495 1.350 . S
C1501 H1488 0.929 . S
C1501 C1493 1.433 . S
C1501 N1503 1.384 . S
N1502 C1498 1.427 . S
N1502 C1499 1.384 . S
N1503 C1495 1.427 . S
N1503 C1501 1.384 . S
C647 C23 2.255 . S
C651 C53 2.249 . S
C665 C103 1.222 . S
C669 C57 1.175 . S
C683 C133 2.002 . S
C687 C104 2.013 . S
C701 C24 1.121 . S
C705 C137 1.087 . S
C719 C13 1.121 . S
C723 C386 1.088 . S
C737 C282 2.256 . S
C741 C64 2.250 . S
C755 C82 1.224 . S
C759 C426 1.167 . S
C773 C144 2.000 . S
C777 C533 2.015 . S
C791 C322 1.224 . S
C795 C66 1.169 . S
C809 C504 1.999 . S
C813 C93 2.014 . S
C827 C573 1.110 . S
C831 C146 1.086 . S
C845 C2 2.250 . S
C849 C464 2.259 . S
C863 C26 0.389 . S
C867 C337 0.540 . S
C881 C503 1.749 . S
C885 C183 1.750 . S
C899 C226 0.538 . S
C903 C577 0.431 . S
C917 C463 1.748 . S
C921 C263 1.750 . S
C935 C106 0.533 . S
C939 C297 0.387 . S
C953 C362 1.750 . S
C957 C162 1.751 . S
C971 C242 1.748 . S
C975 C402 1.748 . S
C989 C202 1.217 . S
C993 C466 1.152 . S
C1007 C384 2.000 . S
C1011 C213 2.012 . S
C1025 C453 2.247 . S
C1029 C303 2.249 . S
C1043 C223 1.222 . S
C1047 C177 1.157 . S
C1061 C373 2.002 . S
C1065 C344 2.013 . S
C1079 C543 1.217 . S
C1083 C457 1.171 . S
C1097 C253 1.999 . S
C1101 C224 2.014 . S
C1115 C377 1.081 . S
C1119 C584 1.118 . S
C1133 C546 0.551 . S
C1137 C17 0.429 . S
C1151 C97 0.538 . S
C1155 C586 0.388 . S
C1169 C482 1.749 . S
C1173 C42 1.748 . S
C1187 C306 0.422 . S
C1191 C217 0.557 . S
C1205 C143 1.748 . S
C1209 C423 1.750 . S
C1223 C493 2.001 . S
C1227 C544 2.015 . S
C1241 C304 1.107 . S
C1245 C497 1.078 . S
C1259 C266 1.074 . S
C1263 C293 1.112 . S
C1277 C186 1.175 . S
C1281 C522 1.220 . S
C1295 C506 1.097 . S
C1299 C613 1.121 . S
C1313 C617 0.431 . S
C1317 C346 0.535 . S
C1331 C63 1.750 . S
C1335 C383 1.751 . S
C1349 C333 2.014 . S
C1353 C264 2.003 . S
C1367 C343 1.224 . S
C1371 C417 1.173 . S
C1385 C624 1.112 . S
C1389 C257 1.074 . S
C1403 C537 0.542 . S
C1407 C626 0.432 . S
C1421 C442 1.750 . S
C1425 C122 1.748 . S
C1439 C413 2.245 . S
C1443 C583 2.254 . S
C1457 C424 2.251 . S
C1461 C602 2.255 . S
C1475 C184 2.248 . S
C1479 C562 2.250 . S
C1493 C623 2.254 . S
C1497 C173 2.251 . S
