# Generated by pormake.
# Topology umm, (4)-cn, num edge types: 1
# Building blocks:
#     Node 0, Type 0, BuildingBlock: ESEHIV_clean_sbu_0, # of connection points: 4
#     Node 1, Type 0, BuildingBlock: ESEHIV_clean_sbu_0, # of connection points: 4
#     Node 2, Type 0, BuildingBlock: ESEHIV_clean_sbu_0, # of connection points: 4
#     Node 3, Type 0, BuildingBlock: ESEHIV_clean_sbu_0, # of connection points: 4
#     Node 4, Type 0, BuildingBlock: ESEHIV_clean_sbu_0, # of connection points: 4
#     Node 5, Type 0, BuildingBlock: ESEHIV_clean_sbu_0, # of connection points: 4
#     Node 6, Type 0, BuildingBlock: ESEHIV_clean_sbu_0, # of connection points: 4
#     Node 7, Type 0, BuildingBlock: ESEHIV_clean_sbu_0, # of connection points: 4
#     Node 8, Type 0, BuildingBlock: ESEHIV_clean_sbu_0, # of connection points: 4
#     Node 9, Type 0, BuildingBlock: ESEHIV_clean_sbu_0, # of connection points: 4
#     Node 10, Type 0, BuildingBlock: ESEHIV_clean_sbu_0, # of connection points: 4
#     Node 11, Type 0, BuildingBlock: ESEHIV_clean_sbu_0, # of connection points: 4
#     Edge 12, Type (0, 0), BuildingBlock: ZUJKAS_clean_linker_0, # of connection points: 2
#     Edge 13, Type (0, 0), BuildingBlock: ZUJKAS_clean_linker_0, # of connection points: 2
#     Edge 14, Type (0, 0), BuildingBlock: ZUJKAS_clean_linker_0, # of connection points: 2
#     Edge 15, Type (0, 0), BuildingBlock: ZUJKAS_clean_linker_0, # of connection points: 2
#     Edge 16, Type (0, 0), BuildingBlock: ZUJKAS_clean_linker_0, # of connection points: 2
#     Edge 17, Type (0, 0), BuildingBlock: ZUJKAS_clean_linker_0, # of connection points: 2
#     Edge 18, Type (0, 0), BuildingBlock: ZUJKAS_clean_linker_0, # of connection points: 2
#     Edge 19, Type (0, 0), BuildingBlock: ZUJKAS_clean_linker_0, # of connection points: 2
#     Edge 20, Type (0, 0), BuildingBlock: ZUJKAS_clean_linker_0, # of connection points: 2
#     Edge 21, Type (0, 0), BuildingBlock: ZUJKAS_clean_linker_0, # of connection points: 2
#     Edge 22, Type (0, 0), BuildingBlock: ZUJKAS_clean_linker_0, # of connection points: 2
#     Edge 23, Type (0, 0), BuildingBlock: ZUJKAS_clean_linker_0, # of connection points: 2
#     Edge 24, Type (0, 0), BuildingBlock: ZUJKAS_clean_linker_0, # of connection points: 2
#     Edge 25, Type (0, 0), BuildingBlock: ZUJKAS_clean_linker_0, # of connection points: 2
#     Edge 26, Type (0, 0), BuildingBlock: ZUJKAS_clean_linker_0, # of connection points: 2
#     Edge 27, Type (0, 0), BuildingBlock: ZUJKAS_clean_linker_0, # of connection points: 2
#     Edge 28, Type (0, 0), BuildingBlock: ZUJKAS_clean_linker_0, # of connection points: 2
#     Edge 29, Type (0, 0), BuildingBlock: ZUJKAS_clean_linker_0, # of connection points: 2
#     Edge 30, Type (0, 0), BuildingBlock: ZUJKAS_clean_linker_0, # of connection points: 2
#     Edge 31, Type (0, 0), BuildingBlock: ZUJKAS_clean_linker_0, # of connection points: 2
#     Edge 32, Type (0, 0), BuildingBlock: ZUJKAS_clean_linker_0, # of connection points: 2
#     Edge 33, Type (0, 0), BuildingBlock: ZUJKAS_clean_linker_0, # of connection points: 2
#     Edge 34, Type (0, 0), BuildingBlock: ZUJKAS_clean_linker_0, # of connection points: 2
#     Edge 35, Type (0, 0), BuildingBlock: ZUJKAS_clean_linker_0, # of connection points: 2
# Relax obj value: 0.042
# Max RMSD: 0.101
# Mean RMSD: 0.101
data_MOF--net-umm--node1-ESEHIV_clean_sbu_0--edge1-ZUJKAS_clean_linker_0
_symmetry_space_group_name_H-M    P1
_symmetry_Int_Tables_number       1
_symmetry_cell_setting            triclinic
loop_
_symmetry_equiv_pos_as_xyz
'x, y, z'
_cell_length_a     83.267792
_cell_length_b     83.291045
_cell_length_c     37.049269
_cell_angle_alpha  89.898181
_cell_angle_beta   89.975346
_cell_angle_gamma 120.02677
loop_
_atom_site_label
_atom_site_type_symbol
_atom_site_fract_x
_atom_site_fract_y
_atom_site_fract_z
_atom_type_partial_charge
Cu0 Cu 0.41158 0.54009 0.10448 0.0
N1 N 0.41415 0.51907 0.10453 0.0
N2 N 0.42681 0.50086 0.10536 0.0
C3 C 0.42996 0.51843 0.10743 0.0
C4 C 0.40829 0.49013 0.10094 0.0
C5 C 0.40056 0.50138 0.10037 0.0
O6 O 0.42393 0.55434 0.1478 0.0
C7 C 0.42078 0.56635 0.04557 0.0
O8 O 0.4139 0.57453 0.06542 0.0
H9 H 0.44345 0.53063 0.11105 0.0
H10 H 0.38606 0.49699 0.09661 0.0
N11 N 0.38627 0.53214 0.10772 0.0
N12 N 0.35777 0.52732 0.09707 0.0
C13 C 0.37549 0.5354 0.0852 0.0
C14 C 0.37501 0.5217 0.13461 0.0
C15 C 0.35743 0.51866 0.12811 0.0
C16 C 0.41811 0.56369 0.16496 0.0
O17 O 0.40491 0.5659 0.15065 0.0
H18 H 0.38044 0.54333 0.06048 0.0
H19 H 0.37937 0.51674 0.15749 0.0
O20 O 0.42164 0.55262 0.05849 0.0
H21 H 0.40086 0.47524 0.09742 0.0
H22 H 0.34542 0.51098 0.14528 0.0
Cu23 Cu 0.8757 0.40352 0.45412 0.0
N24 N 0.90083 0.41139 0.45953 0.0
N25 N 0.9316 0.43021 0.46006 0.0
C26 C 0.91499 0.4284 0.45157 0.0
C27 C 0.92764 0.41355 0.47357 0.0
C28 C 0.90867 0.40198 0.47317 0.0
O29 O 0.86751 0.41119 0.49655 0.0
C30 C 0.85797 0.41014 0.39351 0.0
O31 O 0.84234 0.40093 0.41152 0.0
H32 H 0.91303 0.43937 0.44077 0.0
H33 H 0.90114 0.38778 0.48255 0.0
N34 N 0.86205 0.37768 0.45356 0.0
N35 N 0.84048 0.34866 0.43977 0.0
C36 C 0.84998 0.36647 0.42841 0.0
C37 C 0.86023 0.3666 0.48157 0.0
C38 C 0.84698 0.3487 0.47314 0.0
C39 C 0.87654 0.42709 0.51114 0.0
O40 O 0.89096 0.44036 0.49425 0.0
H41 H 0.84747 0.37138 0.40318 0.0
H42 H 0.86748 0.37137 0.50697 0.0
O43 O 0.87308 0.41328 0.40821 0.0
H44 H 0.93769 0.40991 0.48314 0.0
H45 H 0.84216 0.33673 0.49063 0.0
Cu46 Cu 0.48004 0.87425 0.76471 0.0
N47 N 0.49742 0.89951 0.76376 0.0
N48 N 0.50939 0.93024 0.76435 0.0
C49 C 0.49444 0.91356 0.77194 0.0
C50 C 0.52225 0.92649 0.75103 0.0
C51 C 0.51483 0.90753 0.75071 0.0
O52 O 0.46535 0.86939 0.80868 0.0
C53 C 0.4531 0.85377 0.70872 0.0
O54 O 0.44612 0.83932 0.73037 0.0
H55 H 0.48128 0.91155 0.7816 0.0
H56 H 0.52142 0.90008 0.74056 0.0
N57 N 0.49264 0.86094 0.76566 0.0
N58 N 0.49998 0.83891 0.75586 0.0
C59 C 0.48842 0.84532 0.74749 0.0
C60 C 0.50744 0.86459 0.7861 0.0
C61 C 0.51204 0.85106 0.78004 0.0
C62 C 0.46065 0.85523 0.82864 0.0
O63 O 0.46377 0.8421 0.81733 0.0
H64 H 0.4771 0.83877 0.72852 0.0
H65 H 0.51419 0.87613 0.80457 0.0
O66 O 0.46632 0.86923 0.71969 0.0
H67 H 0.53593 0.93671 0.74164 0.0
H68 H 0.52306 0.84996 0.79319 0.0
Cu69 Cu 0.61521 0.45557 0.10613 0.0
N70 N 0.58933 0.44353 0.10378 0.0
N71 N 0.56151 0.4415 0.10239 0.0
C72 C 0.57994 0.45271 0.10687 0.0
C73 C 0.55921 0.42448 0.09641 0.0
C74 C 0.57644 0.42579 0.0971 0.0
O75 O 0.62236 0.46806 0.15259 0.0
C76 C 0.62027 0.46075 0.03476 0.0
O77 O 0.61065 0.44265 0.03867 0.0
H78 H 0.58664 0.46744 0.11221 0.0
H79 H 0.57933 0.4147 0.09218 0.0
N80 N 0.6256 0.44018 0.10416 0.0
N81 N 0.64828 0.43366 0.09498 0.0
C82 C 0.6435 0.44692 0.09539 0.0
C83 C 0.61864 0.42189 0.10968 0.0
C84 C 0.63263 0.41781 0.10387 0.0
C85 C 0.6158 0.45651 0.17864 0.0
O86 O 0.6053 0.43884 0.17094 0.0
H87 H 0.65273 0.46134 0.08862 0.0
H88 H 0.6045 0.41223 0.11748 0.0
O89 O 0.62421 0.47086 0.06285 0.0
H90 H 0.54612 0.41208 0.09087 0.0
H91 H 0.63141 0.40429 0.10638 0.0
Cu92 Cu 0.1648 0.61962 0.44533 0.0
N93 N 0.14007 0.61351 0.44667 0.0
N94 N 0.10922 0.5958 0.44836 0.0
C95 C 0.12561 0.59628 0.45127 0.0
C96 C 0.11359 0.61348 0.44169 0.0
C97 C 0.13267 0.6244 0.4407 0.0
O98 O 0.16838 0.60766 0.48736 0.0
C99 C 0.18286 0.61306 0.38429 0.0
O100 O 0.19839 0.62094 0.4028 0.0
H101 H 0.12714 0.58424 0.45532 0.0
H102 H 0.14059 0.63913 0.43527 0.0
N103 N 0.17984 0.6453 0.44923 0.0
N104 N 0.20235 0.67456 0.44004 0.0
C105 C 0.19349 0.65708 0.42696 0.0
C106 C 0.17993 0.65568 0.47708 0.0
C107 C 0.19381 0.67372 0.47155 0.0
C108 C 0.18312 0.6149 0.50625 0.0
O109 O 0.19787 0.6299 0.49437 0.0
H110 H 0.19722 0.65284 0.40227 0.0
H111 H 0.17076 0.65037 0.50016 0.0
O112 O 0.16804 0.61092 0.39868 0.0
H113 H 0.10373 0.61819 0.4376 0.0
H114 H 0.19737 0.68529 0.48941 0.0
Cu115 Cu 0.55887 0.16485 0.76368 0.0
N116 N 0.53933 0.14044 0.76422 0.0
N117 N 0.5249 0.10949 0.76625 0.0
C118 C 0.54061 0.12551 0.77373 0.0
C119 C 0.51326 0.11457 0.75157 0.0
C120 C 0.52221 0.13369 0.75036 0.0
O121 O 0.5734 0.16766 0.80693 0.0
C122 C 0.58574 0.1812 0.70485 0.0
O123 O 0.59533 0.19604 0.72477 0.0
H124 H 0.55321 0.12639 0.78389 0.0
H125 H 0.51693 0.14206 0.73875 0.0
N126 N 0.54942 0.18105 0.76507 0.0
N127 N 0.54613 0.20587 0.75671 0.0
C128 C 0.55628 0.19774 0.74893 0.0
C129 C 0.53446 0.17853 0.78368 0.0
C130 C 0.53235 0.19377 0.7785 0.0
C131 C 0.58003 0.18183 0.82737 0.0
O132 O 0.57954 0.19662 0.81669 0.0
H133 H 0.56841 0.20378 0.73177 0.0
H134 H 0.52582 0.16653 0.80021 0.0
O135 O 0.57127 0.16735 0.7178 0.0
H136 H 0.49948 0.10516 0.74154 0.0
H137 H 0.52176 0.19595 0.79055 0.0
Cu138 Cu 0.47712 0.62171 0.60517 0.0
N139 N 0.49553 0.61525 0.60906 0.0
N140 N 0.51065 0.5994 0.60699 0.0
C141 C 0.49554 0.60014 0.59615 0.0
C142 C 0.5206 0.61477 0.62711 0.0
C143 C 0.51124 0.62447 0.62833 0.0
O144 O 0.46502 0.61409 0.55815 0.0
C145 C 0.45811 0.59784 0.66448 0.0
O146 O 0.46354 0.58705 0.64961 0.0
H147 H 0.4843 0.58948 0.58057 0.0
H148 H 0.51536 0.63717 0.64298 0.0
N149 N 0.48902 0.64751 0.6061 0.0
N150 N 0.49647 0.67656 0.6195 0.0
C151 C 0.48425 0.65836 0.62479 0.0
C152 C 0.50467 0.65918 0.58828 0.0
C153 C 0.50933 0.67711 0.59655 0.0
C154 C 0.45517 0.59761 0.54638 0.0
O155 O 0.45083 0.58355 0.56814 0.0
H156 H 0.47226 0.65299 0.64235 0.0
H157 H 0.51219 0.6549 0.57065 0.0
O158 O 0.46114 0.61251 0.64788 0.0
H159 H 0.53361 0.61864 0.64039 0.0
H160 H 0.52116 0.68957 0.58612 0.0
Cu161 Cu 0.87141 0.46888 0.95728 0.0
N162 N 0.89622 0.48767 0.96127 0.0
N163 N 0.92724 0.50235 0.95883 0.0
C164 C 0.91118 0.48765 0.94742 0.0
C165 C 0.92208 0.51208 0.9803 0.0
C166 C 0.90298 0.50299 0.98178 0.0
O167 O 0.86691 0.45888 0.90869 0.0
C168 C 0.87717 0.44921 1.01458 0.0
O169 O 0.89457 0.45794 1.00406 0.0
H170 H 0.91029 0.47649 0.93106 0.0
H171 H 0.89462 0.50692 0.99772 0.0
N172 N 0.85572 0.47853 0.96413 0.0
N173 N 0.83012 0.4794 0.97874 0.0
C174 C 0.83834 0.46896 0.97728 0.0
C175 C 0.85866 0.49562 0.95682 0.0
C176 C 0.8429 0.49623 0.96598 0.0
C177 C 0.87205 0.44807 0.89562 0.0
O178 O 0.88037 0.44172 0.91654 0.0
H179 H 0.83195 0.45464 0.9859 0.0
H180 H 0.87131 0.50678 0.94543 0.0
O181 O 0.86517 0.45079 0.99599 0.0
H182 H 0.93141 0.52468 0.99458 0.0
H183 H 0.8409 0.50803 0.96283 0.0
Cu184 Cu 0.41262 0.87036 0.27199 0.0
N185 N 0.41974 0.89539 0.27561 0.0
N186 N 0.43764 0.92623 0.2758 0.0
C187 C 0.43676 0.90988 0.26908 0.0
C188 C 0.4205 0.92181 0.28716 0.0
C189 C 0.40947 0.90275 0.28696 0.0
O190 O 0.42204 0.86631 0.22641 0.0
C191 C 0.41855 0.84919 0.32757 0.0
O192 O 0.40853 0.83429 0.30805 0.0
H193 H 0.44836 0.90841 0.26029 0.0
H194 H 0.39505 0.8948 0.29488 0.0
N195 N 0.38671 0.85608 0.2712 0.0
N196 N 0.35752 0.83412 0.28335 0.0
C197 C 0.37534 0.84281 0.29462 0.0
C198 C 0.37565 0.85595 0.24461 0.0
C199 C 0.35768 0.84244 0.25196 0.0
C200 C 0.42142 0.87508 0.19863 0.0
O201 O 0.4152 0.8867 0.2023 0.0
H202 H 0.38008 0.83916 0.31876 0.0
H203 H 0.38037 0.86479 0.22102 0.0
O204 O 0.42227 0.86499 0.31542 0.0
H205 H 0.41622 0.93163 0.2949 0.0
H206 H 0.3457 0.83889 0.23527 0.0
Cu207 Cu 0.58115 0.43006 0.61043 0.0
N208 N 0.56119 0.43435 0.61214 0.0
N209 N 0.54412 0.44811 0.60756 0.0
C210 C 0.56001 0.44861 0.5979 0.0
C211 C 0.53485 0.43275 0.62819 0.0
C212 C 0.54541 0.42432 0.63093 0.0
O213 O 0.59424 0.4392 0.56482 0.0
C214 C 0.59942 0.45676 0.66525 0.0
O215 O 0.59224 0.46556 0.6484 0.0
H216 H 0.57102 0.45966 0.58243 0.0
H217 H 0.54209 0.41201 0.6464 0.0
N218 N 0.5712 0.40439 0.61137 0.0
N219 N 0.56429 0.37552 0.62559 0.0
C220 C 0.57549 0.39381 0.63237 0.0
C221 C 0.55699 0.39244 0.5906 0.0
C222 C 0.55268 0.37467 0.5993 0.0
C223 C 0.60415 0.45618 0.55582 0.0
O224 O 0.60699 0.46918 0.57913 0.0
H225 H 0.58627 0.39936 0.65268 0.0
H226 H 0.55013 0.39644 0.57071 0.0
O227 O 0.59681 0.44141 0.65258 0.0
H228 H 0.52156 0.42812 0.641 0.0
H229 H 0.54189 0.36209 0.58702 0.0
Cu230 Cu 0.16364 0.54962 0.94676 0.0
N231 N 0.13808 0.53322 0.95155 0.0
N232 N 0.10725 0.5212 0.95192 0.0
C233 C 0.12376 0.53519 0.94015 0.0
C234 C 0.11141 0.50993 0.97101 0.0
C235 C 0.13035 0.51739 0.97081 0.0
O236 O 0.16956 0.56133 0.89932 0.0
C237 C 0.16216 0.57101 1.00553 0.0
O238 O 0.1456 0.5662 0.99307 0.0
H239 H 0.12547 0.54707 0.92511 0.0
H240 H 0.13803 0.51192 0.98463 0.0
N241 N 0.17579 0.53597 0.94952 0.0
N242 N 0.19729 0.52819 0.96182 0.0
C243 C 0.19247 0.54141 0.9645 0.0
C244 C 0.1699 0.51882 0.93668 0.0
C245 C 0.18309 0.51394 0.94439 0.0
C246 C 0.16464 0.57235 0.88627 0.0
O247 O 0.15531 0.57781 0.90649 0.0
H248 H 0.20078 0.55471 0.97747 0.0
H249 H 0.15693 0.51048 0.92264 0.0
O250 O 0.17247 0.56659 0.98776 0.0
H251 H 0.10151 0.49731 0.98465 0.0
H252 H 0.1824 0.50102 0.93721 0.0
Cu253 Cu 0.62781 0.16172 0.26602 0.0
N254 N 0.61919 0.13639 0.27194 0.0
N255 N 0.60081 0.1056 0.27425 0.0
C256 C 0.60291 0.12177 0.26159 0.0
C257 C 0.61646 0.11024 0.29286 0.0
C258 C 0.62774 0.1292 0.29135 0.0
O259 O 0.6208 0.16686 0.2191 0.0
C260 C 0.60588 0.16081 0.326 0.0
O261 O 0.59385 0.14426 0.31392 0.0
H262 H 0.59242 0.12301 0.2467 0.0
H263 H 0.64105 0.13729 0.30442 0.0
N264 N 0.65359 0.17394 0.26579 0.0
N265 N 0.68317 0.19474 0.2773 0.0
C266 C 0.66527 0.1885 0.2862 0.0
C267 C 0.6644 0.17079 0.24334 0.0
C268 C 0.68268 0.18362 0.25035 0.0
C269 C 0.6046 0.1614 0.20693 0.0
O270 O 0.59013 0.1519 0.22792 0.0
H271 H 0.66069 0.19474 0.30634 0.0
H272 H 0.6593 0.16008 0.22296 0.0
O273 O 0.6205 0.17092 0.30768 0.0
H274 H 0.61944 0.10065 0.30704 0.0
H275 H 0.69466 0.18467 0.23667 0.0
H276 H 0.40755 0.58298 0.20941 0.0
H277 H 0.41467 0.58999 0.27339 0.0
H278 H 0.4487 0.56448 0.27098 0.0
H279 H 0.44183 0.55759 0.20676 0.0
H280 H 0.40627 0.56487 0.32847 0.0
H281 H 0.48221 0.61321 0.32264 0.0
H282 H 0.46758 0.60719 0.28324 0.0
H283 H 0.4748 0.59155 0.30011 0.0
C284 C 0.41679 0.5791 0.22227 0.0
C285 C 0.42415 0.56975 0.20277 0.0
C286 C 0.42079 0.58307 0.25897 0.0
C287 C 0.43233 0.57791 0.27707 0.0
C288 C 0.44003 0.56891 0.25755 0.0
H289 H 0.43683 0.56447 0.51018 0.0
H290 H 0.43086 0.55962 0.44529 0.0
C291 C 0.43604 0.56494 0.22078 0.0
C292 C 0.43547 0.58107 0.31669 0.0
H293 H 0.46916 0.60228 0.3808 0.0
C294 C 0.42002 0.5731 0.33989 0.0
C295 C 0.45339 0.59196 0.33165 0.0
C296 C 0.47045 0.60163 0.30815 0.0
C297 C 0.42201 0.5755 0.37753 0.0
C298 C 0.43997 0.58594 0.39257 0.0
C299 C 0.4554 0.59413 0.36935 0.0
C300 C 0.44306 0.58876 0.43227 0.0
C301 C 0.40481 0.56711 0.40079 0.0
C302 C 0.4521 0.60676 0.44666 0.0
C303 C 0.4556 0.60958 0.48375 0.0
C304 C 0.45022 0.59446 0.50738 0.0
C305 C 0.44103 0.57643 0.49292 0.0
C306 C 0.43755 0.57362 0.45577 0.0
H307 H 0.39225 0.5639 0.38488 0.0
H308 H 0.40269 0.55396 0.41273 0.0
H309 H 0.40622 0.57657 0.42317 0.0
H310 H 0.45653 0.61867 0.42912 0.0
H311 H 0.46276 0.62367 0.49381 0.0
H312 H 0.89325 0.45889 0.55152 0.0
H313 H 0.8903 0.46179 0.61655 0.0
H314 H 0.84927 0.4037 0.62285 0.0
H315 H 0.85179 0.40074 0.55778 0.0
H316 H 0.84031 0.42459 0.66591 0.0
H317 H 0.91327 0.44282 0.68945 0.0
H318 H 0.91102 0.45828 0.65877 0.0
H319 H 0.90186 0.43435 0.64661 0.0
C320 C 0.88341 0.44677 0.56662 0.0
C321 C 0.87289 0.42954 0.54941 0.0
C322 C 0.88186 0.44842 0.60389 0.0
C323 C 0.86993 0.43285 0.62476 0.0
C324 C 0.85869 0.41587 0.60738 0.0
H325 H 0.88095 0.42528 0.85765 0.0
H326 H 0.87905 0.42024 0.79229 0.0
C327 C 0.86014 0.41422 0.5701 0.0
C328 C 0.86957 0.43407 0.66479 0.0
H329 H 0.89698 0.44528 0.73976 0.0
C330 C 0.85269 0.42908 0.68208 0.0
C331 C 0.88564 0.43953 0.68598 0.0
C332 C 0.90393 0.44387 0.66935 0.0
C333 C 0.85152 0.42978 0.71986 0.0
C334 C 0.86776 0.43601 0.74092 0.0
C335 C 0.88455 0.44064 0.72365 0.0
C336 C 0.86779 0.43815 0.7808 0.0
C337 C 0.83283 0.42353 0.73684 0.0
C338 C 0.86211 0.4499 0.79617 0.0
C339 C 0.86305 0.45269 0.83348 0.0
C340 C 0.86993 0.444 0.85632 0.0
C341 C 0.87553 0.43216 0.84092 0.0
C342 C 0.87449 0.42928 0.80353 0.0
H343 H 0.82134 0.41395 0.71884 0.0
H344 H 0.83141 0.41644 0.76304 0.0
H345 H 0.83125 0.4358 0.74175 0.0
H346 H 0.85735 0.45728 0.77921 0.0
H347 H 0.85876 0.46203 0.8443 0.0
H348 H 0.45402 0.88066 0.86242 0.0
H349 H 0.44646 0.88125 0.92613 0.0
H350 H 0.44526 0.82951 0.94391 0.0
H351 H 0.45286 0.82879 0.88037 0.0
H352 H 0.4155 0.85421 0.96836 0.0
H353 H 0.48317 0.86527 1.01917 0.0
H354 H 0.4796 0.86902 0.97254 0.0
H355 H 0.47062 0.84587 0.98945 0.0
C356 C 0.45199 0.86931 0.87977 0.0
C357 C 0.45415 0.85473 0.86623 0.0
C358 C 0.4477 0.86969 0.9162 0.0
C359 C 0.44563 0.8556 0.93989 0.0
C360 C 0.44715 0.84071 0.92626 0.0
H361 H 0.42782 0.8472 0.17576 0.0
H362 H 0.43326 0.8409 0.11337 0.0
C363 C 0.45137 0.84027 0.88982 0.0
C364 C 0.44202 0.85661 0.97888 0.0
H365 H 0.46131 0.86258 0.06279 0.0
C366 C 0.42549 0.85598 0.98901 0.0
C367 C 0.455 0.85875 1.00585 0.0
C368 C 0.47318 0.85991 0.99638 0.0
C369 C 0.42163 0.85759 0.02532 0.0
C370 C 0.43487 0.86036 0.0522 0.0
C371 C 0.45119 0.86048 0.0422 0.0
C372 C 0.4325 0.86441 0.0903 0.0
C373 C 0.40334 0.85625 0.03456 0.0
C374 C 0.43091 0.88001 0.09816 0.0
C375 C 0.4278 0.88359 0.13347 0.0
C376 C 0.4264 0.87177 0.16199 0.0
C377 C 0.42879 0.85655 0.15441 0.0
C378 C 0.43185 0.85291 0.1188 0.0
H379 H 0.3927 0.8485 1.01359 0.0
H380 H 0.39802 0.84929 0.06102 0.0
H381 H 0.40528 0.87041 0.03613 0.0
H382 H 0.43189 0.88937 0.07683 0.0
H383 H 0.42629 0.89559 0.1383 0.0
H384 H 0.60757 0.43371 0.23626 0.0
H385 H 0.61262 0.44173 0.29974 0.0
H386 H 0.63802 0.49977 0.27278 0.0
H387 H 0.6329 0.49178 0.2081 0.0
H388 H 0.64766 0.46622 0.33595 0.0
H389 H 0.59503 0.48878 0.34665 0.0
H390 H 0.59485 0.4747 0.30947 0.0
H391 H 0.61252 0.49864 0.31191 0.0
C392 C 0.61425 0.44823 0.24354 0.0
C393 C 0.61973 0.46212 0.21701 0.0
C394 C 0.6172 0.45278 0.27997 0.0
C395 C 0.6256 0.4713 0.29097 0.0
C396 C 0.63137 0.48536 0.26475 0.0
H397 H 0.62087 0.49053 0.52383 0.0
H398 H 0.63002 0.49803 0.46038 0.0
C399 C 0.6285 0.48079 0.2279 0.0
C400 C 0.62769 0.47529 0.33018 0.0
H401 H 0.60629 0.48342 0.40064 0.0
C402 C 0.63895 0.47041 0.35013 0.0
C403 C 0.61635 0.4808 0.34856 0.0
C404 C 0.60391 0.48601 0.32829 0.0
C405 C 0.63836 0.46984 0.38798 0.0
C406 C 0.62595 0.47396 0.40629 0.0
C407 C 0.61571 0.48015 0.38649 0.0
C408 C 0.62185 0.4699 0.4453 0.0
C409 C 0.65056 0.46423 0.40797 0.0
C410 C 0.61418 0.45159 0.4578 0.0
C411 C 0.60889 0.44724 0.49388 0.0
C412 C 0.61109 0.46111 0.51826 0.0
C413 C 0.61907 0.47952 0.50582 0.0
C414 C 0.62428 0.48385 0.46957 0.0
H415 H 0.66315 0.4675 0.39203 0.0
H416 H 0.6549 0.47127 0.43452 0.0
H417 H 0.64274 0.44903 0.41269 0.0
H418 H 0.6118 0.44053 0.43938 0.0
H419 H 0.60274 0.43292 0.50246 0.0
H420 H 0.21183 0.62729 0.55444 0.0
H421 H 0.21019 0.61929 0.61842 0.0
H422 H 0.15164 0.58059 0.60778 0.0
H423 H 0.15322 0.58819 0.54371 0.0
H424 H 0.19051 0.62449 0.6702 0.0
H425 H 0.16824 0.54981 0.66337 0.0
H426 H 0.17689 0.56488 0.62449 0.0
H427 H 0.15317 0.55545 0.63873 0.0
C428 C 0.19866 0.61681 0.56552 0.0
C429 C 0.18267 0.60835 0.54381 0.0
C430 C 0.19774 0.6123 0.60218 0.0
C431 C 0.18083 0.59921 0.61797 0.0
C432 C 0.16493 0.59044 0.59617 0.0
H433 H 0.15156 0.59102 0.84579 0.0
H434 H 0.15612 0.59805 0.78117 0.0
C435 C 0.16585 0.59486 0.55947 0.0
C436 C 0.1796 0.59563 0.65758 0.0
H437 H 0.16555 0.56125 0.7208 0.0
C438 C 0.18517 0.61067 0.68125 0.0
C439 C 0.17282 0.57764 0.67212 0.0
C440 C 0.16761 0.56105 0.64837 0.0
C441 C 0.18384 0.60818 0.71891 0.0
C442 C 0.17633 0.59009 0.73341 0.0
C443 C 0.17111 0.5751 0.70976 0.0
C444 C 0.17395 0.58637 0.77298 0.0
C445 C 0.19077 0.62502 0.74277 0.0
C446 C 0.18215 0.57716 0.78991 0.0
C447 C 0.17941 0.57295 0.82677 0.0
C448 C 0.16837 0.57784 0.84762 0.0
C449 C 0.16029 0.58721 0.83069 0.0
C450 C 0.16296 0.59132 0.79371 0.0
H451 H 0.20085 0.63788 0.72835 0.0
H452 H 0.17888 0.62666 0.75115 0.0
H453 H 0.19752 0.62358 0.76744 0.0
H454 H 0.19065 0.57315 0.77453 0.0
H455 H 0.18584 0.56571 0.83884 0.0
H456 H 0.57231 0.14678 0.16777 0.0
H457 H 0.56898 0.15041 0.10302 0.0
H458 H 0.62805 0.1871 0.09407 0.0
H459 H 0.63156 0.18325 0.1584 0.0
H460 H 0.57728 0.18049 0.06145 0.0
H461 H 0.61919 0.1494 1.01666 0.0
H462 H 0.61144 0.14786 0.06268 0.0
H463 H 0.63154 0.16862 0.04671 0.0
C464 C 0.58459 0.15567 0.15205 0.0
C465 C 0.60222 0.1646 0.1683 0.0
C466 C 0.58267 0.15771 0.115 0.0
C467 C 0.59831 0.16869 0.09344 0.0
C468 C 0.61583 0.17813 0.10986 0.0
H469 H 0.5953 0.20946 0.87786 0.0
H470 H 0.60042 0.2065 0.94192 0.0
C471 C 0.61778 0.17602 0.14678 0.0
C472 C 0.59632 0.17041 0.05387 0.0
H473 H 0.6112 0.16455 0.97148 0.0
C474 C 0.58466 0.17696 0.04178 0.0
C475 C 0.60571 0.16551 0.02811 0.0
C476 C 0.61752 0.15728 0.03912 0.0
C477 C 0.58238 0.17906 1.00479 0.0
C478 C 0.59237 0.17489 0.97908 0.0
C479 C 0.60377 0.16801 0.99114 0.0
C480 C 0.59076 0.17709 0.93956 0.0
C481 C 0.56896 0.18534 0.99361 0.0
C482 C 0.58457 0.16178 0.91642 0.0
C483 C 0.58188 0.16349 0.8796 0.0
C484 C 0.58534 0.18057 0.86514 0.0
C485 C 0.59235 0.19607 0.88809 0.0
C486 C 0.59513 0.19436 0.92484 0.0
H487 H 0.5588 0.18295 1.01534 0.0
H488 H 0.57679 0.20043 0.98772 0.0
H489 H 0.56123 0.17799 0.96893 0.0
H490 H 0.58126 0.14834 0.92705 0.0
H491 H 0.57648 0.15125 0.86278 0.0
H492 H 0.32155 0.50089 0.10002 0.0
H493 H 0.29529 0.5025 0.07481 0.0
H494 H 0.3327 0.55714 0.03291 0.0
H495 H 0.3591 0.55543 0.05764 0.0
H496 H 0.28353 0.52634 0.09069 0.0
H497 H 0.30154 0.53244 0.94512 0.0
H498 H 0.3131 0.5261 0.97863 0.0
H499 H 0.3194 0.54998 0.97266 0.0
C500 C 0.32419 0.51322 0.08535 0.0
C501 C 0.3424 0.52802 0.08078 0.0
C502 C 0.30917 0.51411 0.07086 0.0
C503 C 0.312 0.52984 0.05155 0.0
C504 C 0.33018 0.54466 0.0469 0.0
H505 H 0.23132 0.5588 0.96835 0.0
H506 H 0.2597 0.56009 0.99056 0.0
C507 C 0.34526 0.5437 0.06111 0.0
C508 C 0.29578 0.53087 0.03772 0.0
H509 H 0.27592 0.53606 0.96109 0.0
C510 C 0.28188 0.52843 0.06233 0.0
C511 C 0.29362 0.53365 1.0007 0.0
C512 C 0.30761 0.53552 0.97267 0.0
C513 C 0.26591 0.52864 0.05095 0.0
C514 C 0.26375 0.53132 1.01403 0.0
C515 C 0.27771 0.53407 0.98943 0.0
C516 C 0.2467 0.53059 1.00038 0.0
C517 C 0.2514 0.52601 0.07842 0.0
C518 C 0.23009 0.51357 0.9984 0.0
C519 C 0.21391 0.51279 0.98566 0.0
C520 C 0.21402 0.52904 0.97485 0.0
C521 C 0.23073 0.54609 0.97687 0.0
C522 C 0.24696 0.54683 0.98932 0.0
H523 H 0.2565 0.52716 0.10653 0.0
H524 H 0.24696 0.53642 0.07425 0.0
H525 H 0.23902 0.51205 0.07496 0.0
H526 H 0.22966 0.50089 1.00673 0.0
H527 H 0.20125 0.49949 0.98477 0.0
H528 H 0.83514 0.34299 0.36769 0.0
H529 H 0.80848 0.31714 0.33755 0.0
H530 H 0.78439 0.2939 0.44111 0.0
H531 H 0.81082 0.3196 0.47135 0.0
H532 H 0.79389 0.27489 0.3549 0.0
H533 H 0.74453 0.30067 0.37695 0.0
H534 H 0.76935 0.31606 0.375 0.0
H535 H 0.75901 0.30196 0.41424 0.0
C536 C 0.82413 0.33239 0.38398 0.0
C537 C 0.82511 0.33331 0.42189 0.0
C538 C 0.80898 0.31764 0.36677 0.0
C539 C 0.7945 0.30374 0.38721 0.0
C540 C 0.79545 0.30456 0.42496 0.0
H541 H 0.68735 0.20775 0.3456 0.0
H542 H 0.71486 0.23434 0.37129 0.0
C543 C 0.81062 0.31918 0.44216 0.0
C544 C 0.77838 0.28822 0.36928 0.0
H545 H 0.73231 0.27068 0.35238 0.0
C546 C 0.78043 0.27397 0.35404 0.0
C547 C 0.76089 0.2871 0.36863 0.0
C548 C 0.75818 0.30227 0.38436 0.0
C549 C 0.76526 0.2583 0.33878 0.0
C550 C 0.7477 0.25715 0.33798 0.0
C551 C 0.74575 0.27156 0.35299 0.0
C552 C 0.7311 0.24102 0.3222 0.0
C553 C 0.76805 0.24286 0.3248 0.0
C554 C 0.73099 0.23607 0.28597 0.0
C555 C 0.71533 0.22082 0.27133 0.0
C556 C 0.69936 0.21039 0.29248 0.0
C557 C 0.69939 0.21558 0.32857 0.0
C558 C 0.71512 0.23073 0.34329 0.0
H559 H 0.78063 0.24348 0.33652 0.0
H560 H 0.75589 0.22907 0.33099 0.0
H561 H 0.76987 0.24418 0.29507 0.0
H562 H 0.74297 0.2441 0.26889 0.0
H563 H 0.71561 0.2174 0.24326 0.0
H564 H 0.46936 0.80735 0.73424 0.0
H565 H 0.46787 0.77884 0.7131 0.0
H566 H 0.52706 0.80397 0.72652 0.0
H567 H 0.52861 0.83245 0.74802 0.0
H568 H 0.48401 0.7728 0.65529 0.0
H569 H 0.50866 0.75575 0.78066 0.0
H570 H 0.50181 0.77315 0.7792 0.0
H571 H 0.52451 0.77855 0.76396 0.0
C572 C 0.48208 0.80684 0.73256 0.0
C573 C 0.49911 0.82216 0.74295 0.0
C574 C 0.48119 0.7905 0.72063 0.0
C575 C 0.49729 0.78913 0.71887 0.0
C576 C 0.51437 0.8045 0.72863 0.0
H577 H 0.5259 0.71027 0.63476 0.0
H578 H 0.52517 0.73715 0.6593 0.0
C579 C 0.51525 0.82081 0.74081 0.0
C580 C 0.4963 0.77181 0.70579 0.0
H581 H 0.50729 0.73862 0.728 0.0
C582 C 0.48895 0.76523 0.67132 0.0
C583 C 0.50268 0.7619 0.72681 0.0
C584 C 0.50968 0.76757 0.76485 0.0
C585 C 0.48828 0.74932 0.65692 0.0
C586 C 0.49504 0.73971 0.67761 0.0
C587 C 0.50219 0.74611 0.7122 0.0
C588 C 0.49528 0.72324 0.66336 0.0
C589 C 0.48079 0.74315 0.61932 0.0
C590 C 0.4787 0.70646 0.65796 0.0
C591 C 0.47907 0.69105 0.64397 0.0
C592 C 0.49603 0.69221 0.63498 0.0
C593 C 0.51261 0.70901 0.64088 0.0
C594 C 0.51223 0.72434 0.6551 0.0
H595 H 0.47894 0.75376 0.60469 0.0
H596 H 0.49024 0.74006 0.60343 0.0
H597 H 0.46712 0.73022 0.62097 0.0
H598 H 0.46548 0.70532 0.66451 0.0
H599 H 0.46607 0.67837 0.63954 0.0
H600 H 0.68148 0.46514 0.10234 0.0
H601 H 0.71171 0.47042 0.08304 0.0
H602 H 0.68683 0.41335 0.04953 0.0
H603 H 0.65623 0.4081 0.0676 0.0
H604 H 0.73182 0.45429 0.10484 0.0
H605 H 0.71466 0.44132 0.95893 0.0
H606 H 0.69998 0.44435 0.99074 0.0
H607 H 0.69968 0.42265 0.9885 0.0
C608 C 0.68233 0.45371 0.09052 0.0
C609 C 0.66631 0.43625 0.086 0.0
C610 C 0.69969 0.45673 0.07976 0.0
C611 C 0.7015 0.44239 0.06423 0.0
C612 C 0.68569 0.42474 0.06075 0.0
H613 H 0.80024 0.44464 0.97743 0.0
H614 H 0.76895 0.43483 0.99941 0.0
C615 C 0.66824 0.4217 0.07148 0.0
C616 C 0.72003 0.44616 0.05171 0.0
H617 H 0.74463 0.44797 0.97644 0.0
C618 C 0.73461 0.45285 0.07678 0.0
C619 C 0.72365 0.4443 1.01507 0.0
C620 C 0.70874 0.43792 0.98662 0.0
C621 C 0.75271 0.45781 0.06621 0.0
C622 C 0.75637 0.45624 0.02951 0.0
C623 C 0.74175 0.44918 1.00455 0.0
C624 C 0.77539 0.46224 1.01639 0.0
C625 C 0.76776 0.46461 0.0944 0.0
C626 C 0.78932 0.48095 1.01822 0.0
C627 C 0.80723 0.48661 1.00572 0.0
C628 C 0.81157 0.47365 0.99114 0.0
C629 C 0.79748 0.45493 0.98902 0.0
C630 C 0.77955 0.44931 1.00136 0.0
H631 H 0.76194 0.46073 0.12211 0.0
H632 H 0.77713 0.45893 0.08958 0.0
H633 H 0.77619 0.47996 0.09297 0.0
H634 H 0.78631 0.4912 0.02923 0.0
H635 H 0.81774 0.50108 1.00794 0.0
H636 H 0.21108 0.68159 0.36906 0.0
H637 H 0.23799 0.70887 0.343 0.0
H638 H 0.25623 0.7312 0.44964 0.0
H639 H 0.22953 0.70393 0.4759 0.0
H640 H 0.2478 0.74794 0.35484 0.0
H641 H 0.30222 0.7323 0.40008 0.0
H642 H 0.27804 0.71469 0.3969 0.0
H643 H 0.28596 0.73073 0.43386 0.0
C644 C 0.2209 0.69222 0.38696 0.0
C645 C 0.21815 0.69059 0.42456 0.0
C646 C 0.23621 0.70782 0.37204 0.0
C647 C 0.24915 0.72193 0.39445 0.0
C648 C 0.24648 0.72036 0.43194 0.0
H649 H 0.35215 0.82527 0.35455 0.0
H650 H 0.32555 0.79825 0.38203 0.0
C651 C 0.23112 0.70485 0.44686 0.0
C652 C 0.26521 0.73855 0.37862 0.0
H653 H 0.31244 0.76134 0.37203 0.0
C654 C 0.26194 0.75088 0.35844 0.0
C655 C 0.28361 0.74235 0.38372 0.0
C656 C 0.28778 0.7293 0.40459 0.0
C657 C 0.27664 0.76711 0.34353 0.0
C658 C 0.29508 0.77082 0.34814 0.0
C659 C 0.29832 0.75849 0.3685 0.0
C660 C 0.31115 0.78725 0.33154 0.0
C661 C 0.27228 0.78031 0.3237 0.0
C662 C 0.31204 0.7899 0.29402 0.0
C663 C 0.32715 0.80533 0.27833 0.0
C664 C 0.34184 0.81834 0.29977 0.0
C665 C 0.3411 0.81548 0.3373 0.0
C666 C 0.32589 0.80008 0.35303 0.0
H667 H 0.25861 0.77843 0.33193 0.0
H668 H 0.28308 0.79496 0.32859 0.0
H669 H 0.27172 0.77759 0.2943 0.0
H670 H 0.30113 0.77991 0.27676 0.0
H671 H 0.32748 0.80687 0.24929 0.0
H672 H 0.5793 0.23605 0.73986 0.0
H673 H 0.58492 0.26669 0.72143 0.0
H674 H 0.52626 0.24707 0.72811 0.0
H675 H 0.5206 0.21654 0.74684 0.0
H676 H 0.57289 0.27749 0.66351 0.0
H677 H 0.54695 0.29358 0.78789 0.0
H678 H 0.55142 0.27452 0.78533 0.0
H679 H 0.53001 0.27199 0.76833 0.0
C680 C 0.5676 0.23824 0.7373 0.0
C681 C 0.5495 0.22386 0.7451 0.0
C682 C 0.57084 0.2558 0.72692 0.0
C683 C 0.55607 0.25934 0.72416 0.0
C684 C 0.53796 0.24488 0.73115 0.0
H685 H 0.53457 0.3416 0.63764 0.0
H686 H 0.53452 0.31452 0.66333 0.0
C687 C 0.53473 0.22739 0.74175 0.0
C688 C 0.55944 0.27793 0.71287 0.0
H689 H 0.55045 0.31239 0.73603 0.0
C690 C 0.56823 0.28525 0.67962 0.0
C691 C 0.55348 0.28815 0.734 0.0
C692 C 0.54512 0.28175 0.77104 0.0
C693 C 0.57045 0.30205 0.66625 0.0
C694 C 0.56378 0.31181 0.68671 0.0
C695 C 0.55549 0.30481 0.72037 0.0
C696 C 0.56411 0.3286 0.67242 0.0
C697 C 0.57927 0.30896 0.62972 0.0
C698 C 0.58077 0.34559 0.66957 0.0
C699 C 0.58084 0.36117 0.65497 0.0
C700 C 0.56426 0.35993 0.6427 0.0
C701 C 0.5476 0.34294 0.64629 0.0
C702 C 0.54752 0.32748 0.66115 0.0
H703 H 0.582 0.29881 0.6156 0.0
H704 H 0.57017 0.31197 0.6125 0.0
H705 H 0.59263 0.3221 0.63302 0.0
H706 H 0.59371 0.34674 0.67838 0.0
H707 H 0.59388 0.37403 0.6524 0.0
H708 H 0.46352 0.52095 0.08854 0.0
H709 H 0.48599 0.51018 0.08894 0.0
H710 H 0.44337 0.45622 0.12486 0.0
H711 H 0.42086 0.46687 0.1249 0.0
H712 H 0.49689 0.49539 0.14645 0.0
H713 H 0.46469 0.44447 0.03522 0.0
H714 H 0.45892 0.46231 0.04402 0.0
H715 H 0.44922 0.44176 0.07153 0.0
C716 C 0.45892 0.50683 0.09681 0.0
C717 C 0.44029 0.49475 0.10644 0.0
C718 C 0.47178 0.50068 0.09684 0.0
C719 C 0.46628 0.48231 0.1063 0.0
C720 C 0.44782 0.47032 0.11661 0.0
H721 H 0.52495 0.42003 0.11903 0.0
H722 H 0.50158 0.42972 0.12092 0.0
C723 C 0.43496 0.47645 0.1166 0.0
C724 C 0.4799 0.47575 0.10587 0.0
H725 H 0.48952 0.44446 0.06636 0.0
C726 C 0.49532 0.4843 0.12887 0.0
C727 C 0.47778 0.46121 0.08303 0.0
C728 C 0.46186 0.45198 0.05679 0.0
C729 C 0.50857 0.47856 0.12996 0.0
C730 C 0.50653 0.46412 0.1069 0.0
C731 C 0.49104 0.45549 0.08407 0.0
C732 C 0.52059 0.45813 0.10537 0.0
C733 C 0.52446 0.48781 0.15627 0.0
C734 C 0.53892 0.47075 0.09526 0.0
C735 C 0.55224 0.46525 0.09409 0.0
C736 C 0.54753 0.44694 0.10277 0.0
C737 C 0.52904 0.43419 0.11206 0.0
C738 C 0.51569 0.43973 0.1133 0.0
H739 H 0.52123 0.49463 0.17861 0.0
H740 H 0.52794 0.47765 0.16801 0.0
H741 H 0.53688 0.49863 0.1419 0.0
H742 H 0.54291 0.48487 0.08804 0.0
H743 H 0.56621 0.47534 0.08594 0.0
H744 H 0.96278 0.43853 0.49795 0.0
H745 H 0.99282 0.46701 0.49437 0.0
H746 H 0.97147 0.4883 0.41284 0.0
H747 H 0.94146 0.45973 0.41561 0.0
H748 H 1.01627 0.48336 0.43126 0.0
H749 H 0.99279 0.52907 0.49252 0.0
H750 H 0.97977 0.50412 0.49687 0.0
H751 H 0.97919 0.51497 0.45535 0.0
C752 C 0.96445 0.44912 0.47894 0.0
C753 C 0.94956 0.44679 0.45721 0.0
C754 C 0.98164 0.46546 0.4771 0.0
C755 C 0.98425 0.47984 0.45375 0.0
C756 C 0.9696 0.47749 0.43156 0.0
H757 H 0.07806 0.59037 0.41419 0.0
H758 H 0.04759 0.56213 0.41481 0.0
C759 C 0.95243 0.46114 0.43326 0.0
C760 C 1.00238 0.49724 0.45244 0.0
H761 H 0.02364 0.54355 0.47103 0.0
C762 C 1.01792 0.49653 0.43999 0.0
C763 C 1.00441 0.51438 0.46366 0.0
C764 C 0.98822 0.51578 0.47813 0.0
C765 C 0.03547 0.51257 0.43815 0.0
C766 C 0.03758 0.52969 0.44993 0.0
C767 C 0.02199 0.53041 0.46208 0.0
C768 C 0.05592 0.54694 0.45029 0.0
C769 C 0.05149 0.51109 0.42294 0.0
C770 C 0.07057 0.54793 0.47071 0.0
C771 C 0.08796 0.56402 0.47039 0.0
C772 C 0.09101 0.57955 0.44996 0.0
C773 C 0.07615 0.57872 0.43038 0.0
C774 C 0.05876 0.56256 0.43057 0.0
H775 H 0.04663 0.49856 0.40583 0.0
H776 H 0.06082 0.5235 0.40659 0.0
H777 H 0.05967 0.51001 0.44551 0.0
H778 H 0.06855 0.53623 0.48695 0.0
H779 H 0.099 0.56434 0.48635 0.0
H780 H 0.53867 0.09664 0.81768 0.0
H781 H 0.53531 0.06572 0.82106 0.0
H782 H 0.502 0.04981 0.72442 0.0
H783 H 0.50492 0.0805 0.72159 0.0
H784 H 0.48767 0.0225 0.77248 0.0
H785 H 0.56298 0.04797 0.75995 0.0
H786 H 0.55742 0.0575 0.79812 0.0
H787 H 0.55329 0.06285 0.75316 0.0
C788 C 0.53064 0.08652 0.7972 0.0
C789 C 0.52214 0.09102 0.76928 0.0
C790 C 0.5288 0.06889 0.79903 0.0
C791 C 0.51876 0.05554 0.77251 0.0
C792 C 0.50988 0.05988 0.74512 0.0
H793 H 0.52853 0.95968 0.72007 0.0
H794 H 0.53022 0.98978 0.72335 0.0
C795 C 0.5115 0.07741 0.74358 0.0
C796 C 0.51753 0.0371 0.77305 0.0
H797 H 0.54369 0.01599 0.77285 0.0
C798 C 0.49992 0.02107 0.77252 0.0
C799 C 0.53352 0.03521 0.77256 0.0
C800 C 0.55286 0.05179 0.7706 0.0
C801 C 0.49784 1.00326 0.77151 0.0
C802 C 0.51383 1.00137 0.77216 0.0
C803 C 0.53143 0.0174 0.77273 0.0
C804 C 0.51271 0.98298 0.77066 0.0
C805 C 0.47855 0.98671 0.76853 0.0
C806 C 0.50248 0.96915 0.7964 0.0
C807 C 0.50134 0.95182 0.79431 0.0
C808 C 0.51073 0.94814 0.7669 0.0
C809 C 0.52129 0.96215 0.74169 0.0
C810 C 0.52222 0.97935 0.74349 0.0
H811 H 0.46853 0.99068 0.75792 0.0
H812 H 0.47834 0.97594 0.7506 0.0
H813 H 0.4737 0.98055 0.79572 0.0
H814 H 0.49546 0.97176 0.81825 0.0
H815 H 0.49334 0.94138 0.8144 0.0
H816 H 0.53056 0.58951 0.65012 0.0
H817 H 0.53616 0.56373 0.64141 0.0
H818 H 0.50483 0.54931 0.5424 0.0
H819 H 0.49917 0.57523 0.55089 0.0
H820 H 0.49473 0.51921 0.58655 0.0
H821 H 0.57107 0.559 0.5712 0.0
H822 H 0.5634 0.56515 0.6114 0.0
H823 H 0.55687 0.5697 0.5679 0.0
C824 C 0.52513 0.58111 0.62613 0.0
C825 C 0.51451 0.58454 0.60108 0.0
C826 C 0.52836 0.56635 0.62118 0.0
C827 C 0.5212 0.5548 0.59093 0.0
C828 C 0.51057 0.55813 0.56584 0.0
H829 H 0.55464 0.4719 0.5508 0.0
H830 H 0.54795 0.49712 0.54186 0.0
C831 C 0.50729 0.57289 0.57082 0.0
C832 C 0.52408 0.53872 0.58668 0.0
H833 H 0.5577 0.52669 0.58568 0.0
C834 C 0.50849 0.52084 0.58587 0.0
C835 C 0.54203 0.54087 0.58517 0.0
C836 C 0.55929 0.55973 0.58357 0.0
C837 C 0.51038 0.50501 0.58534 0.0
C838 C 0.52834 0.50715 0.58631 0.0
C839 C 0.54392 0.52505 0.58536 0.0
C840 C 0.53132 0.49111 0.59024 0.0
C841 C 0.49312 0.48615 0.58392 0.0
C842 C 0.52425 0.47941 0.62043 0.0
C843 C 0.52805 0.46503 0.6256 0.0
C844 C 0.5392 0.46217 0.60088 0.0
C845 C 0.54615 0.47383 0.57048 0.0
C846 C 0.54227 0.48819 0.56526 0.0
H847 H 0.48134 0.48691 0.57165 0.0
H848 H 0.49551 0.47619 0.56823 0.0
H849 H 0.48903 0.48071 0.61179 0.0
H850 H 0.5162 0.48172 0.6406 0.0
H851 H 0.52278 0.4566 0.64966 0.0
H852 H 0.07758 0.50313 0.99651 0.0
H853 H 0.04719 0.50037 0.99012 0.0
H854 H 0.06517 0.53273 0.89223 0.0
H855 H 0.09579 0.53552 0.89833 0.0
H856 H 0.04685 0.54413 0.93866 0.0
H857 H 1.00598 0.46808 0.91997 0.0
H858 H 0.02016 0.47451 0.95971 0.0
H859 H 0.03094 0.48101 0.91592 0.0
C860 C 0.07506 0.50942 0.97325 0.0
C861 C 0.08916 0.51941 0.94774 0.0
C862 C 0.05762 0.50782 0.96964 0.0
C863 C 0.05377 0.51603 0.94033 0.0
C864 C 0.06781 0.52618 0.91495 0.0
H865 H 0.93952 0.49098 0.90176 0.0
H866 H 0.97061 0.49533 0.8932 0.0
C867 C 0.08533 0.52782 0.91856 0.0
C868 C 0.03526 0.51451 0.93716 0.0
H869 H 0.98884 0.4831 0.93603 0.0
C870 C 0.03417 0.5308 0.93765 0.0
C871 C 1.01871 0.49713 0.93524 0.0
C872 C 1.01897 0.4792 0.93229 0.0
C873 C 1.01696 0.53013 0.9379 0.0
C874 C 1.00041 0.5127 0.93831 0.0
C875 C 1.00151 0.49645 0.93617 0.0
C876 C 0.98183 0.51095 0.9424 0.0
C877 C 1.0167 0.54811 0.93777 0.0
C878 C 0.97773 0.51818 0.97298 0.0
C879 C 0.95998 0.51569 0.97797 0.0
C880 C 0.94583 0.50574 0.95265 0.0
C881 C 0.95 0.49857 0.92194 0.0
C882 C 0.9678 0.50111 0.91693 0.0
H883 H 0.02968 0.55961 0.92608 0.0
H884 H 1.00472 0.54681 0.92219 0.0
H885 H 1.01554 0.55191 0.96595 0.0
H886 H 0.98815 0.52537 0.99352 0.0
H887 H 0.95723 0.52108 1.00228 0.0
H888 H 0.44585 0.95645 0.31616 0.0
H889 H 0.47352 0.98716 0.3116 0.0
H890 H 0.49341 0.9682 0.22315 0.0
H891 H 0.46589 0.93736 0.22807 0.0
H892 H 0.52029 0.98696 0.27069 0.0
H893 H 0.48615 0.0277 0.23907 0.0
H894 H 0.47743 0.01457 0.27994 0.0
H895 H 0.47394 1.0027 0.23759 0.0
C896 C 0.45601 0.9589 0.29545 0.0
C897 C 0.45367 0.9445 0.27242 0.0
C898 C 0.47179 0.97649 0.29277 0.0
C899 C 0.48541 0.98012 0.26657 0.0
C900 C 0.48308 0.96576 0.24349 0.0
H901 H 0.57597 0.09241 0.21939 0.0
H902 H 0.54825 0.0616 0.21515 0.0
C903 C 0.46738 0.94812 0.2464 0.0
C904 C 0.50248 0.99863 0.26436 0.0
H905 H 0.51794 0.04501 0.2574 0.0
C906 C 0.51977 0.99964 0.26747 0.0
C907 C 0.50185 0.01518 0.25952 0.0
C908 C 0.48385 0.01501 0.25345 0.0
C909 C 0.53639 0.01673 0.26693 0.0
C910 C 0.53571 0.03333 0.26419 0.0
C911 C 0.51846 0.03231 0.25997 0.0
C912 C 0.55268 0.0519 0.26638 0.0
C913 C 0.55452 0.01677 0.26892 0.0
C914 C 0.56425 0.05678 0.29674 0.0
C915 C 0.58012 0.07428 0.29908 0.0
C916 C 0.58461 0.08742 0.27136 0.0
C917 C 0.57284 0.08262 0.24122 0.0
C918 C 0.55703 0.06502 0.23874 0.0
H919 H 0.55297 1.00345 0.25926 0.0
H920 H 0.56546 0.02824 0.25263 0.0
H921 H 0.5592 0.01861 0.29741 0.0
H922 H 0.56089 0.04713 0.31892 0.0
H923 H 0.58863 0.07767 0.32303 0.0
H924 H 0.45288 0.5693 0.70863 0.0
H925 H 0.44585 0.56572 0.77311 0.0
H926 H 0.44165 0.61523 0.77185 0.0
H927 H 0.44873 0.61899 0.70705 0.0
H928 H 0.46816 0.59347 0.8261 0.0
H929 H 0.39444 0.5764 0.82787 0.0
H930 H 0.40526 0.57348 0.78807 0.0
H931 H 0.41036 0.59623 0.80154 0.0
C932 C 0.45018 0.57931 0.72181 0.0
C933 C 0.45139 0.59445 0.70251 0.0
C934 C 0.44621 0.57725 0.75878 0.0
C935 C 0.44315 0.59015 0.77732 0.0
C936 C 0.44374 0.60498 0.75802 0.0
H937 H 0.41937 0.59397 1.00739 0.0
H938 H 0.42581 0.6013 0.94302 0.0
C939 C 0.44781 0.60711 0.72096 0.0
C940 C 0.44054 0.58861 0.81719 0.0
H941 H 0.40887 0.57949 0.88424 0.0
C942 C 0.4552 0.59045 0.83883 0.0
C943 C 0.42372 0.58488 0.8338 0.0
C944 C 0.40745 0.5825 0.81176 0.0
C945 C 0.45348 0.58854 0.87656 0.0
C946 C 0.43644 0.58417 0.89317 0.0
C947 C 0.42191 0.58277 0.87158 0.0
C948 C 0.43319 0.58024 0.93262 0.0
C949 C 0.47006 0.59143 0.89827 0.0
C950 C 0.43511 0.56593 0.9483 0.0
C951 C 0.43157 0.56179 0.98507 0.0
C952 C 0.42579 0.57173 1.00709 0.0
C953 C 0.42389 0.58609 0.99136 0.0
C954 C 0.4275 0.59026 0.9545 0.0
H955 H 0.48324 0.60034 0.88358 0.0
H956 H 0.47063 0.59791 0.92477 0.0
H957 H 0.46907 0.57782 0.90316 0.0
H958 H 0.43903 0.55768 0.93193 0.0
H959 H 0.43302 0.55053 0.99606 0.0
H960 H 0.88773 0.42688 0.34792 0.0
H961 H 0.88751 0.43114 0.28277 0.0
H962 H 0.82813 0.40737 0.2852 0.0
H963 H 0.82814 0.40297 0.3507 0.0
H964 H 0.86623 0.40077 0.2321 0.0
H965 H 0.8483 0.45678 0.22581 0.0
H966 H 0.8579 0.45241 0.26587 0.0
H967 H 0.83413 0.43703 0.25402 0.0
C968 C 0.8746 0.42274 0.3348 0.0
C969 C 0.85793 0.41455 0.35465 0.0
C970 C 0.87452 0.42515 0.29749 0.0
C971 C 0.85783 0.41962 0.27918 0.0
C972 C 0.84119 0.41189 0.29889 0.0
H973 H 0.84339 0.43349 0.04886 0.0
H974 H 0.83675 0.42364 0.11204 0.0
C975 C 0.84123 0.40939 0.33632 0.0
C976 C 0.85793 0.42123 0.23927 0.0
H977 H 0.85263 0.44556 0.17057 0.0
C978 C 0.86316 0.41048 0.21859 0.0
C979 C 0.85373 0.43376 0.22174 0.0
C980 C 0.84829 0.44578 0.24283 0.0
C981 C 0.86457 0.41213 0.18082 0.0
C982 C 0.8611 0.42521 0.16332 0.0
C983 C 0.85531 0.43555 0.18396 0.0
C984 C 0.86452 0.42925 0.12404 0.0
C985 C 0.8697 0.39976 0.16007 0.0
C986 C 0.88227 0.43546 0.10957 0.0
C987 C 0.88608 0.44097 0.07345 0.0
C988 C 0.87227 0.44062 0.05103 0.0
C989 C 0.85434 0.43386 0.06527 0.0
C990 C 0.85053 0.42831 0.10145 0.0
H991 H 0.86577 0.38676 0.17514 0.0
H992 H 0.86288 0.3961 0.13322 0.0
H993 H 0.88494 0.40712 0.15597 0.0
H994 H 0.89342 0.43673 0.12658 0.0
H995 H 0.90007 0.44621 0.06354 0.0
H996 H 0.42983 0.82182 0.67173 0.0
H997 H 0.42356 0.81854 0.60665 0.0
H998 H 0.45737 0.87775 0.59346 0.0
H999 H 0.46387 0.88116 0.65806 0.0
H1000 H 0.40792 0.83378 0.56017 0.0
H1001 H 0.48095 0.85787 0.52277 0.0
H1002 H 0.47238 0.85128 0.5683 0.0
H1003 H 0.47842 0.87387 0.55129 0.0
C1004 C 0.43581 0.83417 0.65502 0.0
C1005 C 0.44749 0.85174 0.67015 0.0
C1006 C 0.43224 0.83225 0.61781 0.0
C1007 C 0.44035 0.84786 0.59505 0.0
C1008 C 0.45135 0.86547 0.61032 0.0
H1009 H 0.44054 0.87729 0.37362 0.0
H1010 H 0.44554 0.8751 0.43794 0.0
C1011 C 0.45494 0.86739 0.64738 0.0
C1012 C 0.4375 0.84588 0.5553 0.0
H1013 H 0.46092 0.85621 0.47506 0.0
C1014 C 0.41946 0.83847 0.54152 0.0
C1015 C 0.45258 0.85191 0.53098 0.0
C1016 C 0.47215 0.85901 0.54403 0.0
C1017 C 0.4162 0.83772 0.50412 0.0
C1018 C 0.43136 0.8443 0.47987 0.0
C1019 C 0.44932 0.85123 0.49365 0.0
C1020 C 0.42902 0.84519 0.44025 0.0
C1021 C 0.39665 0.8306 0.49089 0.0
C1022 C 0.41848 0.82904 0.41984 0.0
C1023 C 0.41563 0.83022 0.38285 0.0
C1024 C 0.42327 0.8476 0.36561 0.0
C1025 C 0.43437 0.86368 0.38596 0.0
C1026 C 0.43725 0.86247 0.4228 0.0
H1027 H 0.38716 0.82953 0.51304 0.0
H1028 H 0.39635 0.83979 0.46948 0.0
H1029 H 0.39129 0.81658 0.47916 0.0
H1030 H 0.41228 0.81553 0.4326 0.0
H1031 H 0.40703 0.81756 0.36804 0.0
H1032 H 0.60734 0.48915 0.69839 0.0
H1033 H 0.61898 0.49902 0.75957 0.0
H1034 H 0.62347 0.45001 0.77375 0.0
H1035 H 0.61202 0.44011 0.7124 0.0
H1036 H 0.60097 0.47943 0.81947 0.0
H1037 H 0.67193 0.48989 0.81747 0.0
H1038 H 0.65955 0.48891 0.77672 0.0
H1039 H 0.65532 0.46788 0.79886 0.0
C1040 C 0.61112 0.48061 0.71424 0.0
C1041 C 0.60866 0.46377 0.70054 0.0
C1042 C 0.61781 0.48631 0.74922 0.0
C1043 C 0.62231 0.47539 0.77111 0.0
C1044 C 0.6205 0.4589 0.75707 0.0
H1045 H 0.62586 0.44368 0.97862 0.0
H1046 H 0.63023 0.45288 0.91555 0.0
C1047 C 0.61382 0.45318 0.72205 0.0
C1048 C 0.62674 0.47999 0.80984 0.0
H1049 H 0.65686 0.48346 0.87591 0.0
C1050 C 0.61341 0.48079 0.83178 0.0
C1051 C 0.64304 0.48191 0.82577 0.0
C1052 C 0.65836 0.4823 0.80339 0.0
C1053 C 0.61518 0.48189 0.86951 0.0
C1054 C 0.63088 0.48251 0.88564 0.0
C1055 C 0.64484 0.48301 0.86351 0.0
C1056 C 0.63129 0.47903 0.9248 0.0
C1057 C 0.59956 0.48092 0.89189 0.0
C1058 C 0.63109 0.49102 0.95131 0.0
C1059 C 0.62855 0.48573 0.98785 0.0
C1060 C 0.62607 0.46837 0.998 0.0
C1061 C 0.62745 0.45703 0.97157 0.0
C1062 C 0.63007 0.46233 0.93546 0.0
H1063 H 0.5874 0.47826 0.87519 0.0
H1064 H 0.59497 0.46977 0.9125 0.0
H1065 H 0.60451 0.49426 0.90623 0.0
H1066 H 0.63226 0.50411 0.94364 0.0
H1067 H 0.62759 0.49473 1.00773 0.0
H1068 H 0.19441 0.58054 0.04228 0.0
H1069 H 0.20084 0.58877 0.10631 0.0
H1070 H 0.14809 0.58623 0.1172 0.0
H1071 H 0.14155 0.57814 0.05345 0.0
H1072 H 0.19878 0.61951 0.14968 0.0
H1073 H 0.14908 0.5469 0.19062 0.0
H1074 H 0.15947 0.55285 0.14623 0.0
H1075 H 0.14091 0.55702 0.15761 0.0
C1076 C 0.1843 0.58203 0.05813 0.0
C1077 C 0.1674 0.57856 0.04269 0.0
C1078 C 0.188 0.58671 0.09472 0.0
C1079 C 0.17483 0.58787 0.11651 0.0
C1080 C 0.15835 0.58523 0.10087 0.0
H1081 H 0.15337 0.59859 0.33814 0.0
H1082 H 0.15319 0.59273 0.27372 0.0
C1083 C 0.15468 0.58066 0.06434 0.0
C1084 C 0.17774 0.5909 0.15599 0.0
H1085 H 0.161 0.56933 0.23704 0.0
C1086 C 0.19069 0.60854 0.16889 0.0
C1087 C 0.16716 0.57653 0.18085 0.0
C1088 C 0.15344 0.55719 0.16832 0.0
C1089 C 0.19277 0.6124 0.20614 0.0
C1090 C 0.1819 0.59808 0.23108 0.0
C1091 C 0.16933 0.58031 0.21801 0.0
C1092 C 0.18238 0.60144 0.27064 0.0
C1093 C 0.20599 0.63195 0.21834 0.0
C1094 C 0.1988 0.60798 0.29073 0.0
C1095 C 0.19898 0.61145 0.32783 0.0
C1096 C 0.18269 0.60828 0.34558 0.0
C1097 C 0.1662 0.60124 0.32548 0.0
C1098 C 0.16606 0.59787 0.28853 0.0
H1099 H 0.20992 0.64209 0.19587 0.0
H1100 H 0.1998 0.63611 0.2404 0.0
H1101 H 0.21885 0.63271 0.22875 0.0
H1102 H 0.21148 0.61043 0.27774 0.0
H1103 H 0.2119 0.61679 0.34247 0.0
H1104 H 0.5677 0.15302 0.65654 0.0
H1105 H 0.57328 0.15335 0.59187 0.0
H1106 H 0.61935 0.20917 0.59983 0.0
H1107 H 0.61388 0.20903 0.665 0.0
H1108 H 0.57297 0.17989 0.54132 0.0
H1109 H 0.63998 0.18015 0.54209 0.0
H1110 H 0.62468 0.17284 0.58074 0.0
H1111 H 0.63836 0.19701 0.56981 0.0
C1112 C 0.57916 0.16535 0.64477 0.0
C1113 C 0.59034 0.18102 0.66611 0.0
C1114 C 0.58229 0.16551 0.6077 0.0
C1115 C 0.59675 0.18124 0.59104 0.0
C1116 C 0.60822 0.19681 0.61222 0.0
H1117 H 0.62979 0.19254 0.36282 0.0
H1118 H 0.62774 0.19979 0.42616 0.0
C1119 C 0.60506 0.1967 0.64946 0.0
C1120 C 0.59915 0.18139 0.55128 0.0
H1121 H 0.62721 0.1801 0.48543 0.0
C1122 C 0.58489 0.18006 0.52905 0.0
C1123 C 0.61478 0.18178 0.53534 0.0
C1124 C 0.63033 0.18291 0.55807 0.0
C1125 C 0.58567 0.17882 0.49134 0.0
C1126 C 0.60093 0.17842 0.47542 0.0
C1127 C 0.6155 0.18036 0.49759 0.0
C1128 C 0.60151 0.17484 0.4362 0.0
C1129 C 0.57014 0.17798 0.46896 0.0
C1130 C 0.58741 0.15846 0.42063 0.0
C1131 C 0.58848 0.15434 0.38444 0.0
C1132 C 0.60378 0.1664 0.363 0.0
C1133 C 0.61775 0.18298 0.37844 0.0
C1134 C 0.61664 0.18712 0.41471 0.0
H1135 H 0.56317 0.18457 0.48317 0.0
H1136 H 0.57527 0.18495 0.44245 0.0
H1137 H 0.55958 0.16326 0.46408 0.0
H1138 H 0.57582 0.14853 0.43678 0.0
H1139 H 0.57754 0.14138 0.37362 0.0
loop_
_geom_bond_atom_site_label_1
_geom_bond_atom_site_label_2
_geom_bond_distance
_geom_bond_site_symmetry_2
_ccdc_geom_bond_type
Cu0 N1 1.999 . S
Cu0 O6 1.974 . S
Cu0 N11 1.985 . S
Cu0 O20 1.959 . S
N1 Cu0 1.999 . S
N1 C3 1.263 . S
N1 C5 1.389 . S
N2 C3 1.358 . S
N2 C4 1.400 . S
C3 N1 1.263 . S
C3 N2 1.358 . S
C3 H9 0.930 . S
C4 N2 1.400 . S
C4 C5 1.351 . S
C4 H21 0.930 . S
C5 N1 1.389 . S
C5 C4 1.351 . S
C5 H10 0.930 . S
O6 Cu0 1.974 . S
O6 C16 1.282 . S
C7 O8 1.261 . S
C7 O20 1.251 . S
O8 C7 1.261 . S
H9 C3 0.930 . S
H10 C5 0.930 . S
N11 Cu0 1.985 . S
N11 C13 1.335 . S
N11 C14 1.390 . S
N12 C13 1.345 . S
N12 C15 1.336 . S
C13 N11 1.335 . S
C13 N12 1.345 . S
C13 H18 0.930 . S
C14 N11 1.390 . S
C14 C15 1.346 . S
C14 H19 0.930 . S
C15 N12 1.336 . S
C15 C14 1.346 . S
C15 H22 0.929 . S
C16 O6 1.282 . S
C16 O17 1.216 . S
O17 C16 1.216 . S
H18 C13 0.930 . S
H19 C14 0.930 . S
O20 Cu0 1.959 . S
O20 C7 1.251 . S
H21 C4 0.930 . S
H22 C15 0.929 . S
Cu23 N24 1.999 . S
Cu23 O29 1.974 . S
Cu23 N34 1.985 . S
Cu23 O43 1.959 . S
N24 Cu23 1.999 . S
N24 C26 1.263 . S
N24 C28 1.389 . S
N25 C26 1.358 . S
N25 C27 1.400 . S
C26 N24 1.263 . S
C26 N25 1.358 . S
C26 H32 0.930 . S
C27 N25 1.400 . S
C27 C28 1.351 . S
C27 H44 0.930 . S
C28 N24 1.389 . S
C28 C27 1.351 . S
C28 H33 0.930 . S
O29 Cu23 1.974 . S
O29 C39 1.282 . S
C30 O31 1.261 . S
C30 O43 1.251 . S
O31 C30 1.261 . S
H32 C26 0.930 . S
H33 C28 0.930 . S
N34 Cu23 1.985 . S
N34 C36 1.335 . S
N34 C37 1.390 . S
N35 C36 1.345 . S
N35 C38 1.336 . S
C36 N34 1.335 . S
C36 N35 1.345 . S
C36 H41 0.930 . S
C37 N34 1.390 . S
C37 C38 1.346 . S
C37 H42 0.930 . S
C38 N35 1.336 . S
C38 C37 1.346 . S
C38 H45 0.929 . S
C39 O29 1.282 . S
C39 O40 1.216 . S
O40 C39 1.216 . S
H41 C36 0.930 . S
H42 C37 0.930 . S
O43 Cu23 1.959 . S
O43 C30 1.251 . S
H44 C27 0.930 . S
H45 C38 0.929 . S
Cu46 N47 1.999 . S
Cu46 O52 1.974 . S
Cu46 N57 1.985 . S
Cu46 O66 1.959 . S
N47 Cu46 1.999 . S
N47 C49 1.263 . S
N47 C51 1.389 . S
N48 C49 1.358 . S
N48 C50 1.400 . S
C49 N47 1.263 . S
C49 N48 1.358 . S
C49 H55 0.930 . S
C50 N48 1.400 . S
C50 C51 1.351 . S
C50 H67 0.930 . S
C51 N47 1.389 . S
C51 C50 1.351 . S
C51 H56 0.930 . S
O52 Cu46 1.974 . S
O52 C62 1.282 . S
C53 O54 1.261 . S
C53 O66 1.251 . S
O54 C53 1.261 . S
H55 C49 0.930 . S
H56 C51 0.930 . S
N57 Cu46 1.985 . S
N57 C59 1.335 . S
N57 C60 1.390 . S
N58 C59 1.345 . S
N58 C61 1.336 . S
C59 N57 1.335 . S
C59 N58 1.345 . S
C59 H64 0.930 . S
C60 N57 1.390 . S
C60 C61 1.346 . S
C60 H65 0.930 . S
C61 N58 1.336 . S
C61 C60 1.346 . S
C61 H68 0.929 . S
C62 O52 1.282 . S
C62 O63 1.216 . S
O63 C62 1.216 . S
H64 C59 0.930 . S
H65 C60 0.930 . S
O66 Cu46 1.959 . S
O66 C53 1.251 . S
H67 C50 0.930 . S
H68 C61 0.929 . S
Cu69 N70 1.999 . S
Cu69 O75 1.974 . S
Cu69 N80 1.985 . S
Cu69 O89 1.959 . S
N70 Cu69 1.999 . S
N70 C72 1.263 . S
N70 C74 1.389 . S
N71 C72 1.358 . S
N71 C73 1.400 . S
C72 N70 1.263 . S
C72 N71 1.358 . S
C72 H78 0.930 . S
C73 N71 1.400 . S
C73 C74 1.351 . S
C73 H90 0.930 . S
C74 N70 1.389 . S
C74 C73 1.351 . S
C74 H79 0.930 . S
O75 Cu69 1.974 . S
O75 C85 1.282 . S
C76 O77 1.261 . S
C76 O89 1.251 . S
O77 C76 1.261 . S
H78 C72 0.930 . S
H79 C74 0.930 . S
N80 Cu69 1.985 . S
N80 C82 1.335 . S
N80 C83 1.390 . S
N81 C82 1.345 . S
N81 C84 1.336 . S
C82 N80 1.335 . S
C82 N81 1.345 . S
C82 H87 0.930 . S
C83 N80 1.390 . S
C83 C84 1.346 . S
C83 H88 0.930 . S
C84 N81 1.336 . S
C84 C83 1.346 . S
C84 H91 0.929 . S
C85 O75 1.282 . S
C85 O86 1.216 . S
O86 C85 1.216 . S
H87 C82 0.930 . S
H88 C83 0.930 . S
O89 Cu69 1.959 . S
O89 C76 1.251 . S
H90 C73 0.930 . S
H91 C84 0.929 . S
Cu92 N93 1.999 . S
Cu92 O98 1.974 . S
Cu92 N103 1.985 . S
Cu92 O112 1.959 . S
N93 Cu92 1.999 . S
N93 C95 1.263 . S
N93 C97 1.389 . S
N94 C95 1.358 . S
N94 C96 1.400 . S
C95 N93 1.263 . S
C95 N94 1.358 . S
C95 H101 0.930 . S
C96 N94 1.400 . S
C96 C97 1.351 . S
C96 H113 0.930 . S
C97 N93 1.389 . S
C97 C96 1.351 . S
C97 H102 0.930 . S
O98 Cu92 1.974 . S
O98 C108 1.282 . S
C99 O100 1.261 . S
C99 O112 1.251 . S
O100 C99 1.261 . S
H101 C95 0.930 . S
H102 C97 0.930 . S
N103 Cu92 1.985 . S
N103 C105 1.335 . S
N103 C106 1.390 . S
N104 C105 1.345 . S
N104 C107 1.336 . S
C105 N103 1.335 . S
C105 N104 1.345 . S
C105 H110 0.930 . S
C106 N103 1.390 . S
C106 C107 1.346 . S
C106 H111 0.930 . S
C107 N104 1.336 . S
C107 C106 1.346 . S
C107 H114 0.929 . S
C108 O98 1.282 . S
C108 O109 1.216 . S
O109 C108 1.216 . S
H110 C105 0.930 . S
H111 C106 0.930 . S
O112 Cu92 1.959 . S
O112 C99 1.251 . S
H113 C96 0.930 . S
H114 C107 0.929 . S
Cu115 N116 1.999 . S
Cu115 O121 1.974 . S
Cu115 N126 1.985 . S
Cu115 O135 1.959 . S
N116 Cu115 1.999 . S
N116 C118 1.263 . S
N116 C120 1.389 . S
N117 C118 1.358 . S
N117 C119 1.400 . S
C118 N116 1.263 . S
C118 N117 1.358 . S
C118 H124 0.930 . S
C119 N117 1.400 . S
C119 C120 1.351 . S
C119 H136 0.930 . S
C120 N116 1.389 . S
C120 C119 1.351 . S
C120 H125 0.930 . S
O121 Cu115 1.974 . S
O121 C131 1.282 . S
C122 O123 1.261 . S
C122 O135 1.251 . S
O123 C122 1.261 . S
H124 C118 0.930 . S
H125 C120 0.930 . S
N126 Cu115 1.985 . S
N126 C128 1.335 . S
N126 C129 1.390 . S
N127 C128 1.345 . S
N127 C130 1.336 . S
C128 N126 1.335 . S
C128 N127 1.345 . S
C128 H133 0.930 . S
C129 N126 1.390 . S
C129 C130 1.346 . S
C129 H134 0.930 . S
C130 N127 1.336 . S
C130 C129 1.346 . S
C130 H137 0.929 . S
C131 O121 1.282 . S
C131 O132 1.216 . S
O132 C131 1.216 . S
H133 C128 0.930 . S
H134 C129 0.930 . S
O135 Cu115 1.959 . S
O135 C122 1.251 . S
H136 C119 0.930 . S
H137 C130 0.929 . S
Cu138 N139 1.999 . S
Cu138 O144 1.974 . S
Cu138 N149 1.985 . S
Cu138 O158 1.959 . S
N139 Cu138 1.999 . S
N139 C141 1.263 . S
N139 C143 1.389 . S
N140 C141 1.358 . S
N140 C142 1.400 . S
C141 N139 1.263 . S
C141 N140 1.358 . S
C141 H147 0.930 . S
C142 N140 1.400 . S
C142 C143 1.351 . S
C142 H159 0.930 . S
C143 N139 1.389 . S
C143 C142 1.351 . S
C143 H148 0.930 . S
O144 Cu138 1.974 . S
O144 C154 1.282 . S
C145 O146 1.261 . S
C145 O158 1.251 . S
O146 C145 1.261 . S
H147 C141 0.930 . S
H148 C143 0.930 . S
N149 Cu138 1.985 . S
N149 C151 1.335 . S
N149 C152 1.390 . S
N150 C151 1.345 . S
N150 C153 1.336 . S
C151 N149 1.335 . S
C151 N150 1.345 . S
C151 H156 0.930 . S
C152 N149 1.390 . S
C152 C153 1.346 . S
C152 H157 0.930 . S
C153 N150 1.336 . S
C153 C152 1.346 . S
C153 H160 0.929 . S
C154 O144 1.282 . S
C154 O155 1.216 . S
O155 C154 1.216 . S
H156 C151 0.930 . S
H157 C152 0.930 . S
O158 Cu138 1.959 . S
O158 C145 1.251 . S
H159 C142 0.930 . S
H160 C153 0.929 . S
Cu161 N162 1.999 . S
Cu161 O167 1.974 . S
Cu161 N172 1.985 . S
Cu161 O181 1.959 . S
N162 Cu161 1.999 . S
N162 C164 1.263 . S
N162 C166 1.389 . S
N163 C164 1.358 . S
N163 C165 1.400 . S
C164 N162 1.263 . S
C164 N163 1.358 . S
C164 H170 0.930 . S
C165 N163 1.400 . S
C165 C166 1.351 . S
C165 H182 0.930 . S
C166 N162 1.389 . S
C166 C165 1.351 . S
C166 H171 0.930 . S
O167 Cu161 1.974 . S
O167 C177 1.282 . S
C168 O169 1.261 . S
C168 O181 1.251 . S
O169 C168 1.261 . S
H170 C164 0.930 . S
H171 C166 0.930 . S
N172 Cu161 1.985 . S
N172 C174 1.335 . S
N172 C175 1.390 . S
N173 C174 1.345 . S
N173 C176 1.336 . S
C174 N172 1.335 . S
C174 N173 1.345 . S
C174 H179 0.930 . S
C175 N172 1.390 . S
C175 C176 1.346 . S
C175 H180 0.930 . S
C176 N173 1.336 . S
C176 C175 1.346 . S
C176 H183 0.929 . S
C177 O167 1.282 . S
C177 O178 1.216 . S
O178 C177 1.216 . S
H179 C174 0.930 . S
H180 C175 0.930 . S
O181 Cu161 1.959 . S
O181 C168 1.251 . S
H182 C165 0.930 . S
H183 C176 0.929 . S
Cu184 N185 1.999 . S
Cu184 O190 1.974 . S
Cu184 N195 1.985 . S
Cu184 O204 1.959 . S
N185 Cu184 1.999 . S
N185 C187 1.263 . S
N185 C189 1.389 . S
N186 C187 1.358 . S
N186 C188 1.400 . S
C187 N185 1.263 . S
C187 N186 1.358 . S
C187 H193 0.930 . S
C188 N186 1.400 . S
C188 C189 1.351 . S
C188 H205 0.930 . S
C189 N185 1.389 . S
C189 C188 1.351 . S
C189 H194 0.930 . S
O190 Cu184 1.974 . S
O190 C200 1.282 . S
C191 O192 1.261 . S
C191 O204 1.251 . S
O192 C191 1.261 . S
H193 C187 0.930 . S
H194 C189 0.930 . S
N195 Cu184 1.985 . S
N195 C197 1.335 . S
N195 C198 1.390 . S
N196 C197 1.345 . S
N196 C199 1.336 . S
C197 N195 1.335 . S
C197 N196 1.345 . S
C197 H202 0.930 . S
C198 N195 1.390 . S
C198 C199 1.346 . S
C198 H203 0.930 . S
C199 N196 1.336 . S
C199 C198 1.346 . S
C199 H206 0.929 . S
C200 O190 1.282 . S
C200 O201 1.216 . S
O201 C200 1.216 . S
H202 C197 0.930 . S
H203 C198 0.930 . S
O204 Cu184 1.959 . S
O204 C191 1.251 . S
H205 C188 0.930 . S
H206 C199 0.929 . S
Cu207 N208 1.999 . S
Cu207 O213 1.974 . S
Cu207 N218 1.985 . S
Cu207 O227 1.959 . S
N208 Cu207 1.999 . S
N208 C210 1.263 . S
N208 C212 1.389 . S
N209 C210 1.358 . S
N209 C211 1.400 . S
C210 N208 1.263 . S
C210 N209 1.358 . S
C210 H216 0.930 . S
C211 N209 1.400 . S
C211 C212 1.351 . S
C211 H228 0.930 . S
C212 N208 1.389 . S
C212 C211 1.351 . S
C212 H217 0.930 . S
O213 Cu207 1.974 . S
O213 C223 1.282 . S
C214 O215 1.261 . S
C214 O227 1.251 . S
O215 C214 1.261 . S
H216 C210 0.930 . S
H217 C212 0.930 . S
N218 Cu207 1.985 . S
N218 C220 1.335 . S
N218 C221 1.390 . S
N219 C220 1.345 . S
N219 C222 1.336 . S
C220 N218 1.335 . S
C220 N219 1.345 . S
C220 H225 0.930 . S
C221 N218 1.390 . S
C221 C222 1.346 . S
C221 H226 0.930 . S
C222 N219 1.336 . S
C222 C221 1.346 . S
C222 H229 0.929 . S
C223 O213 1.282 . S
C223 O224 1.216 . S
O224 C223 1.216 . S
H225 C220 0.930 . S
H226 C221 0.930 . S
O227 Cu207 1.959 . S
O227 C214 1.251 . S
H228 C211 0.930 . S
H229 C222 0.929 . S
Cu230 N231 1.999 . S
Cu230 O236 1.974 . S
Cu230 N241 1.985 . S
Cu230 O250 1.959 . S
N231 Cu230 1.999 . S
N231 C233 1.263 . S
N231 C235 1.389 . S
N232 C233 1.358 . S
N232 C234 1.400 . S
C233 N231 1.263 . S
C233 N232 1.358 . S
C233 H239 0.930 . S
C234 N232 1.400 . S
C234 C235 1.351 . S
C234 H251 0.930 . S
C235 N231 1.389 . S
C235 C234 1.351 . S
C235 H240 0.930 . S
O236 Cu230 1.974 . S
O236 C246 1.282 . S
C237 O238 1.261 . S
C237 O250 1.251 . S
O238 C237 1.261 . S
H239 C233 0.930 . S
H240 C235 0.930 . S
N241 Cu230 1.985 . S
N241 C243 1.335 . S
N241 C244 1.390 . S
N242 C243 1.345 . S
N242 C245 1.336 . S
C243 N241 1.335 . S
C243 N242 1.345 . S
C243 H248 0.930 . S
C244 N241 1.390 . S
C244 C245 1.346 . S
C244 H249 0.930 . S
C245 N242 1.336 . S
C245 C244 1.346 . S
C245 H252 0.929 . S
C246 O236 1.282 . S
C246 O247 1.216 . S
O247 C246 1.216 . S
H248 C243 0.930 . S
H249 C244 0.930 . S
O250 Cu230 1.959 . S
O250 C237 1.251 . S
H251 C234 0.930 . S
H252 C245 0.929 . S
Cu253 N254 1.999 . S
Cu253 O259 1.974 . S
Cu253 N264 1.985 . S
Cu253 O273 1.959 . S
N254 Cu253 1.999 . S
N254 C256 1.263 . S
N254 C258 1.389 . S
N255 C256 1.358 . S
N255 C257 1.400 . S
C256 N254 1.263 . S
C256 N255 1.358 . S
C256 H262 0.930 . S
C257 N255 1.400 . S
C257 C258 1.351 . S
C257 H274 0.930 . S
C258 N254 1.389 . S
C258 C257 1.351 . S
C258 H263 0.930 . S
O259 Cu253 1.974 . S
O259 C269 1.282 . S
C260 O261 1.261 . S
C260 O273 1.251 . S
O261 C260 1.261 . S
H262 C256 0.930 . S
H263 C258 0.930 . S
N264 Cu253 1.985 . S
N264 C266 1.335 . S
N264 C267 1.390 . S
N265 C266 1.345 . S
N265 C268 1.336 . S
C266 N264 1.335 . S
C266 N265 1.345 . S
C266 H271 0.930 . S
C267 N264 1.390 . S
C267 C268 1.346 . S
C267 H272 0.930 . S
C268 N265 1.336 . S
C268 C267 1.346 . S
C268 H275 0.929 . S
C269 O259 1.282 . S
C269 O270 1.216 . S
O270 C269 1.216 . S
H271 C266 0.930 . S
H272 C267 0.930 . S
O273 Cu253 1.959 . S
O273 C260 1.251 . S
H274 C257 0.930 . S
H275 C268 0.929 . S
H276 C284 0.929 . S
H277 C286 0.930 . S
H278 C288 0.930 . S
H279 C291 0.929 . S
H280 C294 0.930 . S
H281 C296 0.960 . S
H282 C296 0.960 . S
H283 C296 0.960 . S
C284 H276 0.929 . S
C284 C285 1.377 . S
C284 C286 1.384 . S
C285 C284 1.377 . S
C285 C291 1.390 . S
C286 H277 0.930 . S
C286 C284 1.384 . S
C286 C287 1.372 . S
C287 C286 1.372 . S
C287 C288 1.400 . S
C287 C292 1.490 . S
C288 H278 0.930 . S
C288 C287 1.400 . S
C288 C291 1.386 . S
H289 C305 0.930 . S
H290 C306 0.931 . S
C291 H279 0.929 . S
C291 C285 1.390 . S
C291 C288 1.386 . S
C292 C287 1.490 . S
C292 C294 1.395 . S
C292 C295 1.403 . S
H293 C299 0.930 . S
C294 H280 0.930 . S
C294 C292 1.395 . S
C294 C297 1.403 . S
C295 C292 1.403 . S
C295 C296 1.524 . S
C295 C299 1.400 . S
C296 H281 0.960 . S
C296 H282 0.960 . S
C296 H283 0.960 . S
C296 C295 1.524 . S
C297 C294 1.403 . S
C297 C298 1.392 . S
C297 C301 1.495 . S
C298 C297 1.392 . S
C298 C299 1.385 . S
C298 C300 1.478 . S
C299 H293 0.930 . S
C299 C295 1.400 . S
C299 C298 1.385 . S
C300 C298 1.478 . S
C300 C302 1.381 . S
C300 C306 1.383 . S
C301 C297 1.495 . S
C301 H307 0.959 . S
C301 H308 0.961 . S
C301 H309 0.960 . S
C302 C300 1.381 . S
C302 C303 1.394 . S
C302 H310 0.930 . S
C303 C302 1.394 . S
C303 C304 1.383 . S
C303 H311 0.929 . S
C304 C303 1.383 . S
C304 C305 1.377 . S
C305 H289 0.930 . S
C305 C304 1.377 . S
C305 C306 1.379 . S
C306 H290 0.931 . S
C306 C300 1.383 . S
C306 C305 1.379 . S
H307 C301 0.959 . S
H308 C301 0.961 . S
H309 C301 0.960 . S
H310 C302 0.930 . S
H311 C303 0.929 . S
H312 C320 0.929 . S
H313 C322 0.930 . S
H314 C324 0.930 . S
H315 C327 0.929 . S
H316 C330 0.930 . S
H317 C332 0.960 . S
H318 C332 0.960 . S
H319 C332 0.960 . S
C320 H312 0.929 . S
C320 C321 1.377 . S
C320 C322 1.384 . S
C321 C320 1.377 . S
C321 C327 1.390 . S
C322 H313 0.930 . S
C322 C320 1.384 . S
C322 C323 1.372 . S
C323 C322 1.372 . S
C323 C324 1.400 . S
C323 C328 1.490 . S
C324 H314 0.930 . S
C324 C323 1.400 . S
C324 C327 1.386 . S
H325 C341 0.930 . S
H326 C342 0.931 . S
C327 H315 0.929 . S
C327 C321 1.390 . S
C327 C324 1.386 . S
C328 C323 1.490 . S
C328 C330 1.395 . S
C328 C331 1.403 . S
H329 C335 0.930 . S
C330 H316 0.930 . S
C330 C328 1.395 . S
C330 C333 1.403 . S
C331 C328 1.403 . S
C331 C332 1.524 . S
C331 C335 1.400 . S
C332 H317 0.960 . S
C332 H318 0.960 . S
C332 H319 0.960 . S
C332 C331 1.524 . S
C333 C330 1.403 . S
C333 C334 1.392 . S
C333 C337 1.495 . S
C334 C333 1.392 . S
C334 C335 1.385 . S
C334 C336 1.478 . S
C335 H329 0.930 . S
C335 C331 1.400 . S
C335 C334 1.385 . S
C336 C334 1.478 . S
C336 C338 1.381 . S
C336 C342 1.383 . S
C337 C333 1.495 . S
C337 H343 0.959 . S
C337 H344 0.961 . S
C337 H345 0.960 . S
C338 C336 1.381 . S
C338 C339 1.394 . S
C338 H346 0.930 . S
C339 C338 1.394 . S
C339 C340 1.383 . S
C339 H347 0.929 . S
C340 C339 1.383 . S
C340 C341 1.377 . S
C341 H325 0.930 . S
C341 C340 1.377 . S
C341 C342 1.379 . S
C342 H326 0.931 . S
C342 C336 1.383 . S
C342 C341 1.379 . S
H343 C337 0.959 . S
H344 C337 0.961 . S
H345 C337 0.960 . S
H346 C338 0.930 . S
H347 C339 0.929 . S
H348 C356 0.929 . S
H349 C358 0.930 . S
H350 C360 0.930 . S
H351 C363 0.929 . S
H352 C366 0.930 . S
H353 C368 0.960 . S
H354 C368 0.960 . S
H355 C368 0.960 . S
C356 H348 0.929 . S
C356 C357 1.377 . S
C356 C358 1.384 . S
C357 C356 1.377 . S
C357 C363 1.390 . S
C358 H349 0.930 . S
C358 C356 1.384 . S
C358 C359 1.372 . S
C359 C358 1.372 . S
C359 C360 1.400 . S
C359 C364 1.490 . S
C360 H350 0.930 . S
C360 C359 1.400 . S
C360 C363 1.386 . S
H361 C377 0.930 . S
H362 C378 0.931 . S
C363 H351 0.929 . S
C363 C357 1.390 . S
C363 C360 1.386 . S
C364 C359 1.490 . S
C364 C366 1.395 . S
C364 C367 1.403 . S
H365 C371 0.930 . S
C366 H352 0.930 . S
C366 C364 1.395 . S
C366 C369 1.403 1_556 S
C367 C364 1.403 . S
C367 C368 1.524 . S
C367 C371 1.400 1_556 S
C368 H353 0.960 . S
C368 H354 0.960 . S
C368 H355 0.960 . S
C368 C367 1.524 . S
C369 C366 1.403 1_554 S
C369 C370 1.392 . S
C369 C373 1.495 . S
C370 C369 1.392 . S
C370 C371 1.385 . S
C370 C372 1.478 . S
C371 H365 0.930 . S
C371 C367 1.400 1_554 S
C371 C370 1.385 . S
C372 C370 1.478 . S
C372 C374 1.381 . S
C372 C378 1.383 . S
C373 C369 1.495 . S
C373 H379 0.959 . S
C373 H380 0.961 . S
C373 H381 0.960 . S
C374 C372 1.381 . S
C374 C375 1.394 . S
C374 H382 0.930 . S
C375 C374 1.394 . S
C375 C376 1.383 . S
C375 H383 0.929 . S
C376 C375 1.383 . S
C376 C377 1.377 . S
C377 H361 0.930 . S
C377 C376 1.377 . S
C377 C378 1.379 . S
C378 H362 0.931 . S
C378 C372 1.383 . S
C378 C377 1.379 . S
H379 C373 0.959 . S
H380 C373 0.961 . S
H381 C373 0.960 . S
H382 C374 0.930 . S
H383 C375 0.929 . S
H384 C392 0.929 . S
H385 C394 0.930 . S
H386 C396 0.930 . S
H387 C399 0.929 . S
H388 C402 0.930 . S
H389 C404 0.960 . S
H390 C404 0.960 . S
H391 C404 0.960 . S
C392 H384 0.929 . S
C392 C393 1.377 . S
C392 C394 1.384 . S
C393 C392 1.377 . S
C393 C399 1.390 . S
C394 H385 0.930 . S
C394 C392 1.384 . S
C394 C395 1.372 . S
C395 C394 1.372 . S
C395 C396 1.400 . S
C395 C400 1.490 . S
C396 H386 0.930 . S
C396 C395 1.400 . S
C396 C399 1.386 . S
H397 C413 0.930 . S
H398 C414 0.931 . S
C399 H387 0.929 . S
C399 C393 1.390 . S
C399 C396 1.386 . S
C400 C395 1.490 . S
C400 C402 1.395 . S
C400 C403 1.403 . S
H401 C407 0.930 . S
C402 H388 0.930 . S
C402 C400 1.395 . S
C402 C405 1.403 . S
C403 C400 1.403 . S
C403 C404 1.524 . S
C403 C407 1.400 . S
C404 H389 0.960 . S
C404 H390 0.960 . S
C404 H391 0.960 . S
C404 C403 1.524 . S
C405 C402 1.403 . S
C405 C406 1.392 . S
C405 C409 1.495 . S
C406 C405 1.392 . S
C406 C407 1.385 . S
C406 C408 1.478 . S
C407 H401 0.930 . S
C407 C403 1.400 . S
C407 C406 1.385 . S
C408 C406 1.478 . S
C408 C410 1.381 . S
C408 C414 1.383 . S
C409 C405 1.495 . S
C409 H415 0.959 . S
C409 H416 0.961 . S
C409 H417 0.960 . S
C410 C408 1.381 . S
C410 C411 1.394 . S
C410 H418 0.930 . S
C411 C410 1.394 . S
C411 C412 1.383 . S
C411 H419 0.929 . S
C412 C411 1.383 . S
C412 C413 1.377 . S
C413 H397 0.930 . S
C413 C412 1.377 . S
C413 C414 1.379 . S
C414 H398 0.931 . S
C414 C408 1.383 . S
C414 C413 1.379 . S
H415 C409 0.959 . S
H416 C409 0.961 . S
H417 C409 0.960 . S
H418 C410 0.930 . S
H419 C411 0.929 . S
H420 C428 0.929 . S
H421 C430 0.930 . S
H422 C432 0.930 . S
H423 C435 0.929 . S
H424 C438 0.930 . S
H425 C440 0.960 . S
H426 C440 0.960 . S
H427 C440 0.960 . S
C428 H420 0.929 . S
C428 C429 1.377 . S
C428 C430 1.384 . S
C429 C428 1.377 . S
C429 C435 1.390 . S
C430 H421 0.930 . S
C430 C428 1.384 . S
C430 C431 1.372 . S
C431 C430 1.372 . S
C431 C432 1.400 . S
C431 C436 1.490 . S
C432 H422 0.930 . S
C432 C431 1.400 . S
C432 C435 1.386 . S
H433 C449 0.930 . S
H434 C450 0.931 . S
C435 H423 0.929 . S
C435 C429 1.390 . S
C435 C432 1.386 . S
C436 C431 1.490 . S
C436 C438 1.395 . S
C436 C439 1.403 . S
H437 C443 0.930 . S
C438 H424 0.930 . S
C438 C436 1.395 . S
C438 C441 1.403 . S
C439 C436 1.403 . S
C439 C440 1.524 . S
C439 C443 1.400 . S
C440 H425 0.960 . S
C440 H426 0.960 . S
C440 H427 0.960 . S
C440 C439 1.524 . S
C441 C438 1.403 . S
C441 C442 1.392 . S
C441 C445 1.495 . S
C442 C441 1.392 . S
C442 C443 1.385 . S
C442 C444 1.478 . S
C443 H437 0.930 . S
C443 C439 1.400 . S
C443 C442 1.385 . S
C444 C442 1.478 . S
C444 C446 1.381 . S
C444 C450 1.383 . S
C445 C441 1.495 . S
C445 H451 0.959 . S
C445 H452 0.961 . S
C445 H453 0.960 . S
C446 C444 1.381 . S
C446 C447 1.394 . S
C446 H454 0.930 . S
C447 C446 1.394 . S
C447 C448 1.383 . S
C447 H455 0.929 . S
C448 C447 1.383 . S
C448 C449 1.377 . S
C449 H433 0.930 . S
C449 C448 1.377 . S
C449 C450 1.379 . S
C450 H434 0.931 . S
C450 C444 1.383 . S
C450 C449 1.379 . S
H451 C445 0.959 . S
H452 C445 0.961 . S
H453 C445 0.960 . S
H454 C446 0.930 . S
H455 C447 0.929 . S
H456 C464 0.929 . S
H457 C466 0.930 . S
H458 C468 0.930 . S
H459 C471 0.929 . S
H460 C474 0.930 . S
H461 C476 0.960 . S
H462 C476 0.960 . S
H463 C476 0.960 . S
C464 H456 0.929 . S
C464 C465 1.377 . S
C464 C466 1.384 . S
C465 C464 1.377 . S
C465 C471 1.390 . S
C466 H457 0.930 . S
C466 C464 1.384 . S
C466 C467 1.372 . S
C467 C466 1.372 . S
C467 C468 1.400 . S
C467 C472 1.490 . S
C468 H458 0.930 . S
C468 C467 1.400 . S
C468 C471 1.386 . S
H469 C485 0.930 . S
H470 C486 0.931 . S
C471 H459 0.929 . S
C471 C465 1.390 . S
C471 C468 1.386 . S
C472 C467 1.490 . S
C472 C474 1.395 . S
C472 C475 1.403 . S
H473 C479 0.930 . S
C474 H460 0.930 . S
C474 C472 1.395 . S
C474 C477 1.403 1_554 S
C475 C472 1.403 . S
C475 C476 1.524 . S
C475 C479 1.400 1_554 S
C476 H461 0.960 . S
C476 H462 0.960 . S
C476 H463 0.960 . S
C476 C475 1.524 . S
C477 C474 1.403 1_556 S
C477 C478 1.392 . S
C477 C481 1.495 . S
C478 C477 1.392 . S
C478 C479 1.385 . S
C478 C480 1.478 . S
C479 H473 0.930 . S
C479 C475 1.400 1_556 S
C479 C478 1.385 . S
C480 C478 1.478 . S
C480 C482 1.381 . S
C480 C486 1.383 . S
C481 C477 1.495 . S
C481 H487 0.959 . S
C481 H488 0.961 . S
C481 H489 0.960 . S
C482 C480 1.381 . S
C482 C483 1.394 . S
C482 H490 0.930 . S
C483 C482 1.394 . S
C483 C484 1.383 . S
C483 H491 0.929 . S
C484 C483 1.383 . S
C484 C485 1.377 . S
C485 H469 0.930 . S
C485 C484 1.377 . S
C485 C486 1.379 . S
C486 H470 0.931 . S
C486 C480 1.383 . S
C486 C485 1.379 . S
H487 C481 0.959 . S
H488 C481 0.961 . S
H489 C481 0.960 . S
H490 C482 0.930 . S
H491 C483 0.929 . S
H492 C500 0.929 . S
H493 C502 0.930 . S
H494 C504 0.930 . S
H495 C507 0.929 . S
H496 C510 0.930 . S
H497 C512 0.960 . S
H498 C512 0.960 . S
H499 C512 0.960 . S
C500 H492 0.929 . S
C500 C501 1.377 . S
C500 C502 1.384 . S
C501 C500 1.377 . S
C501 C507 1.390 . S
C502 H493 0.930 . S
C502 C500 1.384 . S
C502 C503 1.372 . S
C503 C502 1.372 . S
C503 C504 1.400 . S
C503 C508 1.490 . S
C504 H494 0.930 . S
C504 C503 1.400 . S
C504 C507 1.386 . S
H505 C521 0.930 . S
H506 C522 0.931 . S
C507 H495 0.929 . S
C507 C501 1.390 . S
C507 C504 1.386 . S
C508 C503 1.490 . S
C508 C510 1.395 . S
C508 C511 1.403 1_554 S
H509 C515 0.930 . S
C510 H496 0.930 . S
C510 C508 1.395 . S
C510 C513 1.403 . S
C511 C508 1.403 1_556 S
C511 C512 1.524 . S
C511 C515 1.400 . S
C512 H497 0.960 . S
C512 H498 0.960 . S
C512 H499 0.960 . S
C512 C511 1.524 . S
C513 C510 1.403 . S
C513 C514 1.392 1_554 S
C513 C517 1.495 . S
C514 C513 1.392 1_556 S
C514 C515 1.385 . S
C514 C516 1.478 . S
C515 H509 0.930 . S
C515 C511 1.400 . S
C515 C514 1.385 . S
C516 C514 1.478 . S
C516 C518 1.381 . S
C516 C522 1.383 . S
C517 C513 1.495 . S
C517 H523 0.959 . S
C517 H524 0.961 . S
C517 H525 0.960 . S
C518 C516 1.381 . S
C518 C519 1.394 . S
C518 H526 0.930 . S
C519 C518 1.394 . S
C519 C520 1.383 . S
C519 H527 0.929 . S
C520 C519 1.383 . S
C520 C521 1.377 . S
C521 H505 0.930 . S
C521 C520 1.377 . S
C521 C522 1.379 . S
C522 H506 0.931 . S
C522 C516 1.383 . S
C522 C521 1.379 . S
H523 C517 0.959 . S
H524 C517 0.961 . S
H525 C517 0.960 . S
H526 C518 0.930 . S
H527 C519 0.929 . S
H528 C536 0.929 . S
H529 C538 0.930 . S
H530 C540 0.930 . S
H531 C543 0.929 . S
H532 C546 0.930 . S
H533 C548 0.960 . S
H534 C548 0.960 . S
H535 C548 0.960 . S
C536 H528 0.929 . S
C536 C537 1.377 . S
C536 C538 1.384 . S
C537 C536 1.377 . S
C537 C543 1.390 . S
C538 H529 0.930 . S
C538 C536 1.384 . S
C538 C539 1.372 . S
C539 C538 1.372 . S
C539 C540 1.400 . S
C539 C544 1.490 . S
C540 H530 0.930 . S
C540 C539 1.400 . S
C540 C543 1.386 . S
H541 C557 0.930 . S
H542 C558 0.931 . S
C543 H531 0.929 . S
C543 C537 1.390 . S
C543 C540 1.386 . S
C544 C539 1.490 . S
C544 C546 1.395 . S
C544 C547 1.403 . S
H545 C551 0.930 . S
C546 H532 0.930 . S
C546 C544 1.395 . S
C546 C549 1.403 . S
C547 C544 1.403 . S
C547 C548 1.524 . S
C547 C551 1.400 . S
C548 H533 0.960 . S
C548 H534 0.960 . S
C548 H535 0.960 . S
C548 C547 1.524 . S
C549 C546 1.403 . S
C549 C550 1.392 . S
C549 C553 1.495 . S
C550 C549 1.392 . S
C550 C551 1.385 . S
C550 C552 1.478 . S
C551 H545 0.930 . S
C551 C547 1.400 . S
C551 C550 1.385 . S
C552 C550 1.478 . S
C552 C554 1.381 . S
C552 C558 1.383 . S
C553 C549 1.495 . S
C553 H559 0.959 . S
C553 H560 0.961 . S
C553 H561 0.960 . S
C554 C552 1.381 . S
C554 C555 1.394 . S
C554 H562 0.930 . S
C555 C554 1.394 . S
C555 C556 1.383 . S
C555 H563 0.929 . S
C556 C555 1.383 . S
C556 C557 1.377 . S
C557 H541 0.930 . S
C557 C556 1.377 . S
C557 C558 1.379 . S
C558 H542 0.931 . S
C558 C552 1.383 . S
C558 C557 1.379 . S
H559 C553 0.959 . S
H560 C553 0.961 . S
H561 C553 0.960 . S
H562 C554 0.930 . S
H563 C555 0.929 . S
H564 C572 0.929 . S
H565 C574 0.930 . S
H566 C576 0.930 . S
H567 C579 0.929 . S
H568 C582 0.930 . S
H569 C584 0.960 . S
H570 C584 0.960 . S
H571 C584 0.960 . S
C572 H564 0.929 . S
C572 C573 1.377 . S
C572 C574 1.384 . S
C573 C572 1.377 . S
C573 C579 1.390 . S
C574 H565 0.930 . S
C574 C572 1.384 . S
C574 C575 1.372 . S
C575 C574 1.372 . S
C575 C576 1.400 . S
C575 C580 1.490 . S
C576 H566 0.930 . S
C576 C575 1.400 . S
C576 C579 1.386 . S
H577 C593 0.930 . S
H578 C594 0.931 . S
C579 H567 0.929 . S
C579 C573 1.390 . S
C579 C576 1.386 . S
C580 C575 1.490 . S
C580 C582 1.395 . S
C580 C583 1.403 . S
H581 C587 0.930 . S
C582 H568 0.930 . S
C582 C580 1.395 . S
C582 C585 1.403 . S
C583 C580 1.403 . S
C583 C584 1.524 . S
C583 C587 1.400 . S
C584 H569 0.960 . S
C584 H570 0.960 . S
C584 H571 0.960 . S
C584 C583 1.524 . S
C585 C582 1.403 . S
C585 C586 1.392 . S
C585 C589 1.495 . S
C586 C585 1.392 . S
C586 C587 1.385 . S
C586 C588 1.478 . S
C587 H581 0.930 . S
C587 C583 1.400 . S
C587 C586 1.385 . S
C588 C586 1.478 . S
C588 C590 1.381 . S
C588 C594 1.383 . S
C589 C585 1.495 . S
C589 H595 0.959 . S
C589 H596 0.961 . S
C589 H597 0.960 . S
C590 C588 1.381 . S
C590 C591 1.394 . S
C590 H598 0.930 . S
C591 C590 1.394 . S
C591 C592 1.383 . S
C591 H599 0.929 . S
C592 C591 1.383 . S
C592 C593 1.377 . S
C593 H577 0.930 . S
C593 C592 1.377 . S
C593 C594 1.379 . S
C594 H578 0.931 . S
C594 C588 1.383 . S
C594 C593 1.379 . S
H595 C589 0.959 . S
H596 C589 0.961 . S
H597 C589 0.960 . S
H598 C590 0.930 . S
H599 C591 0.929 . S
H600 C608 0.929 . S
H601 C610 0.930 . S
H602 C612 0.930 . S
H603 C615 0.929 . S
H604 C618 0.930 . S
H605 C620 0.960 . S
H606 C620 0.960 . S
H607 C620 0.960 . S
C608 H600 0.929 . S
C608 C609 1.377 . S
C608 C610 1.384 . S
C609 C608 1.377 . S
C609 C615 1.390 . S
C610 H601 0.930 . S
C610 C608 1.384 . S
C610 C611 1.372 . S
C611 C610 1.372 . S
C611 C612 1.400 . S
C611 C616 1.490 . S
C612 H602 0.930 . S
C612 C611 1.400 . S
C612 C615 1.386 . S
H613 C629 0.930 . S
H614 C630 0.931 . S
C615 H603 0.929 . S
C615 C609 1.390 . S
C615 C612 1.386 . S
C616 C611 1.490 . S
C616 C618 1.395 . S
C616 C619 1.403 1_554 S
H617 C623 0.930 . S
C618 H604 0.930 . S
C618 C616 1.395 . S
C618 C621 1.403 . S
C619 C616 1.403 1_556 S
C619 C620 1.524 . S
C619 C623 1.400 . S
C620 H605 0.960 . S
C620 H606 0.960 . S
C620 H607 0.960 . S
C620 C619 1.524 . S
C621 C618 1.403 . S
C621 C622 1.392 1_554 S
C621 C625 1.495 . S
C622 C621 1.392 1_556 S
C622 C623 1.385 . S
C622 C624 1.478 . S
C623 H617 0.930 . S
C623 C619 1.400 . S
C623 C622 1.385 . S
C624 C622 1.478 . S
C624 C626 1.381 . S
C624 C630 1.383 . S
C625 C621 1.495 . S
C625 H631 0.959 . S
C625 H632 0.961 . S
C625 H633 0.960 . S
C626 C624 1.381 . S
C626 C627 1.394 . S
C626 H634 0.930 . S
C627 C626 1.394 . S
C627 C628 1.383 . S
C627 H635 0.929 . S
C628 C627 1.383 . S
C628 C629 1.377 . S
C629 H613 0.930 . S
C629 C628 1.377 . S
C629 C630 1.379 . S
C630 H614 0.931 . S
C630 C624 1.383 . S
C630 C629 1.379 . S
H631 C625 0.959 . S
H632 C625 0.961 . S
H633 C625 0.960 . S
H634 C626 0.930 . S
H635 C627 0.929 . S
H636 C644 0.929 . S
H637 C646 0.930 . S
H638 C648 0.930 . S
H639 C651 0.929 . S
H640 C654 0.930 . S
H641 C656 0.960 . S
H642 C656 0.960 . S
H643 C656 0.960 . S
C644 H636 0.929 . S
C644 C645 1.377 . S
C644 C646 1.384 . S
C645 C644 1.377 . S
C645 C651 1.390 . S
C646 H637 0.930 . S
C646 C644 1.384 . S
C646 C647 1.372 . S
C647 C646 1.372 . S
C647 C648 1.400 . S
C647 C652 1.490 . S
C648 H638 0.930 . S
C648 C647 1.400 . S
C648 C651 1.386 . S
H649 C665 0.930 . S
H650 C666 0.931 . S
C651 H639 0.929 . S
C651 C645 1.390 . S
C651 C648 1.386 . S
C652 C647 1.490 . S
C652 C654 1.395 . S
C652 C655 1.403 . S
H653 C659 0.930 . S
C654 H640 0.930 . S
C654 C652 1.395 . S
C654 C657 1.403 . S
C655 C652 1.403 . S
C655 C656 1.524 . S
C655 C659 1.400 . S
C656 H641 0.960 . S
C656 H642 0.960 . S
C656 H643 0.960 . S
C656 C655 1.524 . S
C657 C654 1.403 . S
C657 C658 1.392 . S
C657 C661 1.495 . S
C658 C657 1.392 . S
C658 C659 1.385 . S
C658 C660 1.478 . S
C659 H653 0.930 . S
C659 C655 1.400 . S
C659 C658 1.385 . S
C660 C658 1.478 . S
C660 C662 1.381 . S
C660 C666 1.383 . S
C661 C657 1.495 . S
C661 H667 0.959 . S
C661 H668 0.961 . S
C661 H669 0.960 . S
C662 C660 1.381 . S
C662 C663 1.394 . S
C662 H670 0.930 . S
C663 C662 1.394 . S
C663 C664 1.383 . S
C663 H671 0.929 . S
C664 C663 1.383 . S
C664 C665 1.377 . S
C665 H649 0.930 . S
C665 C664 1.377 . S
C665 C666 1.379 . S
C666 H650 0.931 . S
C666 C660 1.383 . S
C666 C665 1.379 . S
H667 C661 0.959 . S
H668 C661 0.961 . S
H669 C661 0.960 . S
H670 C662 0.930 . S
H671 C663 0.929 . S
H672 C680 0.929 . S
H673 C682 0.930 . S
H674 C684 0.930 . S
H675 C687 0.929 . S
H676 C690 0.930 . S
H677 C692 0.960 . S
H678 C692 0.960 . S
H679 C692 0.960 . S
C680 H672 0.929 . S
C680 C681 1.377 . S
C680 C682 1.384 . S
C681 C680 1.377 . S
C681 C687 1.390 . S
C682 H673 0.930 . S
C682 C680 1.384 . S
C682 C683 1.372 . S
C683 C682 1.372 . S
C683 C684 1.400 . S
C683 C688 1.490 . S
C684 H674 0.930 . S
C684 C683 1.400 . S
C684 C687 1.386 . S
H685 C701 0.930 . S
H686 C702 0.931 . S
C687 H675 0.929 . S
C687 C681 1.390 . S
C687 C684 1.386 . S
C688 C683 1.490 . S
C688 C690 1.395 . S
C688 C691 1.403 . S
H689 C695 0.930 . S
C690 H676 0.930 . S
C690 C688 1.395 . S
C690 C693 1.403 . S
C691 C688 1.403 . S
C691 C692 1.524 . S
C691 C695 1.400 . S
C692 H677 0.960 . S
C692 H678 0.960 . S
C692 H679 0.960 . S
C692 C691 1.524 . S
C693 C690 1.403 . S
C693 C694 1.392 . S
C693 C697 1.495 . S
C694 C693 1.392 . S
C694 C695 1.385 . S
C694 C696 1.478 . S
C695 H689 0.930 . S
C695 C691 1.400 . S
C695 C694 1.385 . S
C696 C694 1.478 . S
C696 C698 1.381 . S
C696 C702 1.383 . S
C697 C693 1.495 . S
C697 H703 0.959 . S
C697 H704 0.961 . S
C697 H705 0.960 . S
C698 C696 1.381 . S
C698 C699 1.394 . S
C698 H706 0.930 . S
C699 C698 1.394 . S
C699 C700 1.383 . S
C699 H707 0.929 . S
C700 C699 1.383 . S
C700 C701 1.377 . S
C701 H685 0.930 . S
C701 C700 1.377 . S
C701 C702 1.379 . S
C702 H686 0.931 . S
C702 C696 1.383 . S
C702 C701 1.379 . S
H703 C697 0.959 . S
H704 C697 0.961 . S
H705 C697 0.960 . S
H706 C698 0.930 . S
H707 C699 0.929 . S
H708 C716 0.929 . S
H709 C718 0.930 . S
H710 C720 0.930 . S
H711 C723 0.929 . S
H712 C726 0.930 . S
H713 C728 0.960 . S
H714 C728 0.960 . S
H715 C728 0.960 . S
C716 H708 0.929 . S
C716 C717 1.377 . S
C716 C718 1.384 . S
C717 C716 1.377 . S
C717 C723 1.390 . S
C718 H709 0.930 . S
C718 C716 1.384 . S
C718 C719 1.372 . S
C719 C718 1.372 . S
C719 C720 1.400 . S
C719 C724 1.490 . S
C720 H710 0.930 . S
C720 C719 1.400 . S
C720 C723 1.386 . S
H721 C737 0.930 . S
H722 C738 0.931 . S
C723 H711 0.929 . S
C723 C717 1.390 . S
C723 C720 1.386 . S
C724 C719 1.490 . S
C724 C726 1.395 . S
C724 C727 1.403 . S
H725 C731 0.930 . S
C726 H712 0.930 . S
C726 C724 1.395 . S
C726 C729 1.403 . S
C727 C724 1.403 . S
C727 C728 1.524 . S
C727 C731 1.400 . S
C728 H713 0.960 . S
C728 H714 0.960 . S
C728 H715 0.960 . S
C728 C727 1.524 . S
C729 C726 1.403 . S
C729 C730 1.392 . S
C729 C733 1.495 . S
C730 C729 1.392 . S
C730 C731 1.385 . S
C730 C732 1.478 . S
C731 H725 0.930 . S
C731 C727 1.400 . S
C731 C730 1.385 . S
C732 C730 1.478 . S
C732 C734 1.381 . S
C732 C738 1.383 . S
C733 C729 1.495 . S
C733 H739 0.959 . S
C733 H740 0.961 . S
C733 H741 0.960 . S
C734 C732 1.381 . S
C734 C735 1.394 . S
C734 H742 0.930 . S
C735 C734 1.394 . S
C735 C736 1.383 . S
C735 H743 0.929 . S
C736 C735 1.383 . S
C736 C737 1.377 . S
C737 H721 0.930 . S
C737 C736 1.377 . S
C737 C738 1.379 . S
C738 H722 0.931 . S
C738 C732 1.383 . S
C738 C737 1.379 . S
H739 C733 0.959 . S
H740 C733 0.961 . S
H741 C733 0.960 . S
H742 C734 0.930 . S
H743 C735 0.929 . S
H744 C752 0.929 . S
H745 C754 0.930 . S
H746 C756 0.930 . S
H747 C759 0.929 . S
H748 C762 0.930 . S
H749 C764 0.960 . S
H750 C764 0.960 . S
H751 C764 0.960 . S
C752 H744 0.929 . S
C752 C753 1.377 . S
C752 C754 1.384 . S
C753 C752 1.377 . S
C753 C759 1.390 . S
C754 H745 0.930 . S
C754 C752 1.384 . S
C754 C755 1.372 . S
C755 C754 1.372 . S
C755 C756 1.400 . S
C755 C760 1.490 . S
C756 H746 0.930 . S
C756 C755 1.400 . S
C756 C759 1.386 . S
H757 C773 0.930 . S
H758 C774 0.931 . S
C759 H747 0.929 . S
C759 C753 1.390 . S
C759 C756 1.386 . S
C760 C755 1.490 . S
C760 C762 1.395 . S
C760 C763 1.403 . S
H761 C767 0.930 . S
C762 H748 0.930 . S
C762 C760 1.395 . S
C762 C765 1.403 1_655 S
C763 C760 1.403 . S
C763 C764 1.524 . S
C763 C767 1.400 1_655 S
C764 H749 0.960 . S
C764 H750 0.960 . S
C764 H751 0.960 . S
C764 C763 1.524 . S
C765 C762 1.403 1_455 S
C765 C766 1.392 . S
C765 C769 1.495 . S
C766 C765 1.392 . S
C766 C767 1.385 . S
C766 C768 1.478 . S
C767 H761 0.930 . S
C767 C763 1.400 1_455 S
C767 C766 1.385 . S
C768 C766 1.478 . S
C768 C770 1.381 . S
C768 C774 1.383 . S
C769 C765 1.495 . S
C769 H775 0.959 . S
C769 H776 0.961 . S
C769 H777 0.960 . S
C770 C768 1.381 . S
C770 C771 1.394 . S
C770 H778 0.930 . S
C771 C770 1.394 . S
C771 C772 1.383 . S
C771 H779 0.929 . S
C772 C771 1.383 . S
C772 C773 1.377 . S
C773 H757 0.930 . S
C773 C772 1.377 . S
C773 C774 1.379 . S
C774 H758 0.931 . S
C774 C768 1.383 . S
C774 C773 1.379 . S
H775 C769 0.959 . S
H776 C769 0.961 . S
H777 C769 0.960 . S
H778 C770 0.930 . S
H779 C771 0.929 . S
H780 C788 0.929 . S
H781 C790 0.930 . S
H782 C792 0.930 . S
H783 C795 0.929 . S
H784 C798 0.930 . S
H785 C800 0.960 . S
H786 C800 0.960 . S
H787 C800 0.960 . S
C788 H780 0.929 . S
C788 C789 1.377 . S
C788 C790 1.384 . S
C789 C788 1.377 . S
C789 C795 1.390 . S
C790 H781 0.930 . S
C790 C788 1.384 . S
C790 C791 1.372 . S
C791 C790 1.372 . S
C791 C792 1.400 . S
C791 C796 1.490 . S
C792 H782 0.930 . S
C792 C791 1.400 . S
C792 C795 1.386 . S
H793 C809 0.930 . S
H794 C810 0.931 . S
C795 H783 0.929 . S
C795 C789 1.390 . S
C795 C792 1.386 . S
C796 C791 1.490 . S
C796 C798 1.395 . S
C796 C799 1.403 . S
H797 C803 0.930 . S
C798 H784 0.930 . S
C798 C796 1.395 . S
C798 C801 1.403 1_545 S
C799 C796 1.403 . S
C799 C800 1.524 . S
C799 C803 1.400 1_545 S
C800 H785 0.960 . S
C800 H786 0.960 . S
C800 H787 0.960 . S
C800 C799 1.524 . S
C801 C798 1.403 1_565 S
C801 C802 1.392 . S
C801 C805 1.495 . S
C802 C801 1.392 . S
C802 C803 1.385 . S
C802 C804 1.478 . S
C803 H797 0.930 . S
C803 C799 1.400 1_565 S
C803 C802 1.385 . S
C804 C802 1.478 . S
C804 C806 1.381 . S
C804 C810 1.383 . S
C805 C801 1.495 . S
C805 H811 0.959 . S
C805 H812 0.961 . S
C805 H813 0.960 . S
C806 C804 1.381 . S
C806 C807 1.394 . S
C806 H814 0.930 . S
C807 C806 1.394 . S
C807 C808 1.383 . S
C807 H815 0.929 . S
C808 C807 1.383 . S
C808 C809 1.377 . S
C809 H793 0.930 . S
C809 C808 1.377 . S
C809 C810 1.379 . S
C810 H794 0.931 . S
C810 C804 1.383 . S
C810 C809 1.379 . S
H811 C805 0.959 . S
H812 C805 0.961 . S
H813 C805 0.960 . S
H814 C806 0.930 . S
H815 C807 0.929 . S
H816 C824 0.929 . S
H817 C826 0.930 . S
H818 C828 0.930 . S
H819 C831 0.929 . S
H820 C834 0.930 . S
H821 C836 0.960 . S
H822 C836 0.960 . S
H823 C836 0.960 . S
C824 H816 0.929 . S
C824 C825 1.377 . S
C824 C826 1.384 . S
C825 C824 1.377 . S
C825 C831 1.390 . S
C826 H817 0.930 . S
C826 C824 1.384 . S
C826 C827 1.372 . S
C827 C826 1.372 . S
C827 C828 1.400 . S
C827 C832 1.490 . S
C828 H818 0.930 . S
C828 C827 1.400 . S
C828 C831 1.386 . S
H829 C845 0.930 . S
H830 C846 0.931 . S
C831 H819 0.929 . S
C831 C825 1.390 . S
C831 C828 1.386 . S
C832 C827 1.490 . S
C832 C834 1.395 . S
C832 C835 1.403 . S
H833 C839 0.930 . S
C834 H820 0.930 . S
C834 C832 1.395 . S
C834 C837 1.403 . S
C835 C832 1.403 . S
C835 C836 1.524 . S
C835 C839 1.400 . S
C836 H821 0.960 . S
C836 H822 0.960 . S
C836 H823 0.960 . S
C836 C835 1.524 . S
C837 C834 1.403 . S
C837 C838 1.392 . S
C837 C841 1.495 . S
C838 C837 1.392 . S
C838 C839 1.385 . S
C838 C840 1.478 . S
C839 H833 0.930 . S
C839 C835 1.400 . S
C839 C838 1.385 . S
C840 C838 1.478 . S
C840 C842 1.381 . S
C840 C846 1.383 . S
C841 C837 1.495 . S
C841 H847 0.959 . S
C841 H848 0.961 . S
C841 H849 0.960 . S
C842 C840 1.381 . S
C842 C843 1.394 . S
C842 H850 0.930 . S
C843 C842 1.394 . S
C843 C844 1.383 . S
C843 H851 0.929 . S
C844 C843 1.383 . S
C844 C845 1.377 . S
C845 H829 0.930 . S
C845 C844 1.377 . S
C845 C846 1.379 . S
C846 H830 0.931 . S
C846 C840 1.383 . S
C846 C845 1.379 . S
H847 C841 0.959 . S
H848 C841 0.961 . S
H849 C841 0.960 . S
H850 C842 0.930 . S
H851 C843 0.929 . S
H852 C860 0.929 . S
H853 C862 0.930 . S
H854 C864 0.930 . S
H855 C867 0.929 . S
H856 C870 0.930 . S
H857 C872 0.960 . S
H858 C872 0.960 . S
H859 C872 0.960 . S
C860 H852 0.929 . S
C860 C861 1.377 . S
C860 C862 1.384 . S
C861 C860 1.377 . S
C861 C867 1.390 . S
C862 H853 0.930 . S
C862 C860 1.384 . S
C862 C863 1.372 . S
C863 C862 1.372 . S
C863 C864 1.400 . S
C863 C868 1.490 . S
C864 H854 0.930 . S
C864 C863 1.400 . S
C864 C867 1.386 . S
H865 C881 0.930 . S
H866 C882 0.931 . S
C867 H855 0.929 . S
C867 C861 1.390 . S
C867 C864 1.386 . S
C868 C863 1.490 . S
C868 C870 1.395 . S
C868 C871 1.403 . S
H869 C875 0.930 . S
C870 H856 0.930 . S
C870 C868 1.395 . S
C870 C873 1.403 1_455 S
C871 C868 1.403 . S
C871 C872 1.524 . S
C871 C875 1.400 1_455 S
C872 H857 0.960 . S
C872 H858 0.960 . S
C872 H859 0.960 . S
C872 C871 1.524 . S
C873 C870 1.403 1_655 S
C873 C874 1.392 . S
C873 C877 1.495 . S
C874 C873 1.392 . S
C874 C875 1.385 . S
C874 C876 1.478 . S
C875 H869 0.930 . S
C875 C871 1.400 1_655 S
C875 C874 1.385 . S
C876 C874 1.478 . S
C876 C878 1.381 . S
C876 C882 1.383 . S
C877 C873 1.495 . S
C877 H883 0.959 . S
C877 H884 0.961 . S
C877 H885 0.960 . S
C878 C876 1.381 . S
C878 C879 1.394 . S
C878 H886 0.930 . S
C879 C878 1.394 . S
C879 C880 1.383 . S
C879 H887 0.929 . S
C880 C879 1.383 . S
C880 C881 1.377 . S
C881 H865 0.930 . S
C881 C880 1.377 . S
C881 C882 1.379 . S
C882 H866 0.931 . S
C882 C876 1.383 . S
C882 C881 1.379 . S
H883 C877 0.959 . S
H884 C877 0.961 . S
H885 C877 0.960 . S
H886 C878 0.930 . S
H887 C879 0.929 . S
H888 C896 0.929 . S
H889 C898 0.930 . S
H890 C900 0.930 . S
H891 C903 0.929 . S
H892 C906 0.930 . S
H893 C908 0.960 . S
H894 C908 0.960 . S
H895 C908 0.960 . S
C896 H888 0.929 . S
C896 C897 1.377 . S
C896 C898 1.384 . S
C897 C896 1.377 . S
C897 C903 1.390 . S
C898 H889 0.930 . S
C898 C896 1.384 . S
C898 C899 1.372 . S
C899 C898 1.372 . S
C899 C900 1.400 . S
C899 C904 1.490 . S
C900 H890 0.930 . S
C900 C899 1.400 . S
C900 C903 1.386 . S
H901 C917 0.930 . S
H902 C918 0.931 . S
C903 H891 0.929 . S
C903 C897 1.390 . S
C903 C900 1.386 . S
C904 C899 1.490 . S
C904 C906 1.395 . S
C904 C907 1.403 . S
H905 C911 0.930 . S
C906 H892 0.930 . S
C906 C904 1.395 . S
C906 C909 1.403 1_565 S
C907 C904 1.403 . S
C907 C908 1.524 . S
C907 C911 1.400 1_565 S
C908 H893 0.960 . S
C908 H894 0.960 . S
C908 H895 0.960 . S
C908 C907 1.524 . S
C909 C906 1.403 1_545 S
C909 C910 1.392 . S
C909 C913 1.495 . S
C910 C909 1.392 . S
C910 C911 1.385 . S
C910 C912 1.478 . S
C911 H905 0.930 . S
C911 C907 1.400 1_545 S
C911 C910 1.385 . S
C912 C910 1.478 . S
C912 C914 1.381 . S
C912 C918 1.383 . S
C913 C909 1.495 . S
C913 H919 0.959 . S
C913 H920 0.961 . S
C913 H921 0.960 . S
C914 C912 1.381 . S
C914 C915 1.394 . S
C914 H922 0.930 . S
C915 C914 1.394 . S
C915 C916 1.383 . S
C915 H923 0.929 . S
C916 C915 1.383 . S
C916 C917 1.377 . S
C917 H901 0.930 . S
C917 C916 1.377 . S
C917 C918 1.379 . S
C918 H902 0.931 . S
C918 C912 1.383 . S
C918 C917 1.379 . S
H919 C913 0.959 . S
H920 C913 0.961 . S
H921 C913 0.960 . S
H922 C914 0.930 . S
H923 C915 0.929 . S
H924 C932 0.929 . S
H925 C934 0.930 . S
H926 C936 0.930 . S
H927 C939 0.929 . S
H928 C942 0.930 . S
H929 C944 0.960 . S
H930 C944 0.960 . S
H931 C944 0.960 . S
C932 H924 0.929 . S
C932 C933 1.377 . S
C932 C934 1.384 . S
C933 C932 1.377 . S
C933 C939 1.390 . S
C934 H925 0.930 . S
C934 C932 1.384 . S
C934 C935 1.372 . S
C935 C934 1.372 . S
C935 C936 1.400 . S
C935 C940 1.490 . S
C936 H926 0.930 . S
C936 C935 1.400 . S
C936 C939 1.386 . S
H937 C953 0.930 . S
H938 C954 0.931 . S
C939 H927 0.929 . S
C939 C933 1.390 . S
C939 C936 1.386 . S
C940 C935 1.490 . S
C940 C942 1.395 . S
C940 C943 1.403 . S
H941 C947 0.930 . S
C942 H928 0.930 . S
C942 C940 1.395 . S
C942 C945 1.403 . S
C943 C940 1.403 . S
C943 C944 1.524 . S
C943 C947 1.400 . S
C944 H929 0.960 . S
C944 H930 0.960 . S
C944 H931 0.960 . S
C944 C943 1.524 . S
C945 C942 1.403 . S
C945 C946 1.392 . S
C945 C949 1.495 . S
C946 C945 1.392 . S
C946 C947 1.385 . S
C946 C948 1.478 . S
C947 H941 0.930 . S
C947 C943 1.400 . S
C947 C946 1.385 . S
C948 C946 1.478 . S
C948 C950 1.381 . S
C948 C954 1.383 . S
C949 C945 1.495 . S
C949 H955 0.959 . S
C949 H956 0.961 . S
C949 H957 0.960 . S
C950 C948 1.381 . S
C950 C951 1.394 . S
C950 H958 0.930 . S
C951 C950 1.394 . S
C951 C952 1.383 . S
C951 H959 0.929 . S
C952 C951 1.383 . S
C952 C953 1.377 . S
C953 H937 0.930 . S
C953 C952 1.377 . S
C953 C954 1.379 . S
C954 H938 0.931 . S
C954 C948 1.383 . S
C954 C953 1.379 . S
H955 C949 0.959 . S
H956 C949 0.961 . S
H957 C949 0.960 . S
H958 C950 0.930 . S
H959 C951 0.929 . S
H960 C968 0.929 . S
H961 C970 0.930 . S
H962 C972 0.930 . S
H963 C975 0.929 . S
H964 C978 0.930 . S
H965 C980 0.960 . S
H966 C980 0.960 . S
H967 C980 0.960 . S
C968 H960 0.929 . S
C968 C969 1.377 . S
C968 C970 1.384 . S
C969 C968 1.377 . S
C969 C975 1.390 . S
C970 H961 0.930 . S
C970 C968 1.384 . S
C970 C971 1.372 . S
C971 C970 1.372 . S
C971 C972 1.400 . S
C971 C976 1.490 . S
C972 H962 0.930 . S
C972 C971 1.400 . S
C972 C975 1.386 . S
H973 C989 0.930 . S
H974 C990 0.931 . S
C975 H963 0.929 . S
C975 C969 1.390 . S
C975 C972 1.386 . S
C976 C971 1.490 . S
C976 C978 1.395 . S
C976 C979 1.403 . S
H977 C983 0.930 . S
C978 H964 0.930 . S
C978 C976 1.395 . S
C978 C981 1.403 . S
C979 C976 1.403 . S
C979 C980 1.524 . S
C979 C983 1.400 . S
C980 H965 0.960 . S
C980 H966 0.960 . S
C980 H967 0.960 . S
C980 C979 1.524 . S
C981 C978 1.403 . S
C981 C982 1.392 . S
C981 C985 1.495 . S
C982 C981 1.392 . S
C982 C983 1.385 . S
C982 C984 1.478 . S
C983 H977 0.930 . S
C983 C979 1.400 . S
C983 C982 1.385 . S
C984 C982 1.478 . S
C984 C986 1.381 . S
C984 C990 1.383 . S
C985 C981 1.495 . S
C985 H991 0.959 . S
C985 H992 0.961 . S
C985 H993 0.960 . S
C986 C984 1.381 . S
C986 C987 1.394 . S
C986 H994 0.930 . S
C987 C986 1.394 . S
C987 C988 1.383 . S
C987 H995 0.929 . S
C988 C987 1.383 . S
C988 C989 1.377 . S
C989 H973 0.930 . S
C989 C988 1.377 . S
C989 C990 1.379 . S
C990 H974 0.931 . S
C990 C984 1.383 . S
C990 C989 1.379 . S
H991 C985 0.959 . S
H992 C985 0.961 . S
H993 C985 0.960 . S
H994 C986 0.930 . S
H995 C987 0.929 . S
H996 C1004 0.929 . S
H997 C1006 0.930 . S
H998 C1008 0.930 . S
H999 C1011 0.929 . S
H1000 C1014 0.930 . S
H1001 C1016 0.960 . S
H1002 C1016 0.960 . S
H1003 C1016 0.960 . S
C1004 H996 0.929 . S
C1004 C1005 1.377 . S
C1004 C1006 1.384 . S
C1005 C1004 1.377 . S
C1005 C1011 1.390 . S
C1006 H997 0.930 . S
C1006 C1004 1.384 . S
C1006 C1007 1.372 . S
C1007 C1006 1.372 . S
C1007 C1008 1.400 . S
C1007 C1012 1.490 . S
C1008 H998 0.930 . S
C1008 C1007 1.400 . S
C1008 C1011 1.386 . S
H1009 C1025 0.930 . S
H1010 C1026 0.931 . S
C1011 H999 0.929 . S
C1011 C1005 1.390 . S
C1011 C1008 1.386 . S
C1012 C1007 1.490 . S
C1012 C1014 1.395 . S
C1012 C1015 1.403 . S
H1013 C1019 0.930 . S
C1014 H1000 0.930 . S
C1014 C1012 1.395 . S
C1014 C1017 1.403 . S
C1015 C1012 1.403 . S
C1015 C1016 1.524 . S
C1015 C1019 1.400 . S
C1016 H1001 0.960 . S
C1016 H1002 0.960 . S
C1016 H1003 0.960 . S
C1016 C1015 1.524 . S
C1017 C1014 1.403 . S
C1017 C1018 1.392 . S
C1017 C1021 1.495 . S
C1018 C1017 1.392 . S
C1018 C1019 1.385 . S
C1018 C1020 1.478 . S
C1019 H1013 0.930 . S
C1019 C1015 1.400 . S
C1019 C1018 1.385 . S
C1020 C1018 1.478 . S
C1020 C1022 1.381 . S
C1020 C1026 1.383 . S
C1021 C1017 1.495 . S
C1021 H1027 0.959 . S
C1021 H1028 0.961 . S
C1021 H1029 0.960 . S
C1022 C1020 1.381 . S
C1022 C1023 1.394 . S
C1022 H1030 0.930 . S
C1023 C1022 1.394 . S
C1023 C1024 1.383 . S
C1023 H1031 0.929 . S
C1024 C1023 1.383 . S
C1024 C1025 1.377 . S
C1025 H1009 0.930 . S
C1025 C1024 1.377 . S
C1025 C1026 1.379 . S
C1026 H1010 0.931 . S
C1026 C1020 1.383 . S
C1026 C1025 1.379 . S
H1027 C1021 0.959 . S
H1028 C1021 0.961 . S
H1029 C1021 0.960 . S
H1030 C1022 0.930 . S
H1031 C1023 0.929 . S
H1032 C1040 0.929 . S
H1033 C1042 0.930 . S
H1034 C1044 0.930 . S
H1035 C1047 0.929 . S
H1036 C1050 0.930 . S
H1037 C1052 0.960 . S
H1038 C1052 0.960 . S
H1039 C1052 0.960 . S
C1040 H1032 0.929 . S
C1040 C1041 1.377 . S
C1040 C1042 1.384 . S
C1041 C1040 1.377 . S
C1041 C1047 1.390 . S
C1042 H1033 0.930 . S
C1042 C1040 1.384 . S
C1042 C1043 1.372 . S
C1043 C1042 1.372 . S
C1043 C1044 1.400 . S
C1043 C1048 1.490 . S
C1044 H1034 0.930 . S
C1044 C1043 1.400 . S
C1044 C1047 1.386 . S
H1045 C1061 0.930 . S
H1046 C1062 0.931 . S
C1047 H1035 0.929 . S
C1047 C1041 1.390 . S
C1047 C1044 1.386 . S
C1048 C1043 1.490 . S
C1048 C1050 1.395 . S
C1048 C1051 1.403 . S
H1049 C1055 0.930 . S
C1050 H1036 0.930 . S
C1050 C1048 1.395 . S
C1050 C1053 1.403 . S
C1051 C1048 1.403 . S
C1051 C1052 1.524 . S
C1051 C1055 1.400 . S
C1052 H1037 0.960 . S
C1052 H1038 0.960 . S
C1052 H1039 0.960 . S
C1052 C1051 1.524 . S
C1053 C1050 1.403 . S
C1053 C1054 1.392 . S
C1053 C1057 1.495 . S
C1054 C1053 1.392 . S
C1054 C1055 1.385 . S
C1054 C1056 1.478 . S
C1055 H1049 0.930 . S
C1055 C1051 1.400 . S
C1055 C1054 1.385 . S
C1056 C1054 1.478 . S
C1056 C1058 1.381 . S
C1056 C1062 1.383 . S
C1057 C1053 1.495 . S
C1057 H1063 0.959 . S
C1057 H1064 0.961 . S
C1057 H1065 0.960 . S
C1058 C1056 1.381 . S
C1058 C1059 1.394 . S
C1058 H1066 0.930 . S
C1059 C1058 1.394 . S
C1059 C1060 1.383 . S
C1059 H1067 0.929 . S
C1060 C1059 1.383 . S
C1060 C1061 1.377 . S
C1061 H1045 0.930 . S
C1061 C1060 1.377 . S
C1061 C1062 1.379 . S
C1062 H1046 0.931 . S
C1062 C1056 1.383 . S
C1062 C1061 1.379 . S
H1063 C1057 0.959 . S
H1064 C1057 0.961 . S
H1065 C1057 0.960 . S
H1066 C1058 0.930 . S
H1067 C1059 0.929 . S
H1068 C1076 0.929 . S
H1069 C1078 0.930 . S
H1070 C1080 0.930 . S
H1071 C1083 0.929 . S
H1072 C1086 0.930 . S
H1073 C1088 0.960 . S
H1074 C1088 0.960 . S
H1075 C1088 0.960 . S
C1076 H1068 0.929 . S
C1076 C1077 1.377 . S
C1076 C1078 1.384 . S
C1077 C1076 1.377 . S
C1077 C1083 1.390 . S
C1078 H1069 0.930 . S
C1078 C1076 1.384 . S
C1078 C1079 1.372 . S
C1079 C1078 1.372 . S
C1079 C1080 1.400 . S
C1079 C1084 1.490 . S
C1080 H1070 0.930 . S
C1080 C1079 1.400 . S
C1080 C1083 1.386 . S
H1081 C1097 0.930 . S
H1082 C1098 0.931 . S
C1083 H1071 0.929 . S
C1083 C1077 1.390 . S
C1083 C1080 1.386 . S
C1084 C1079 1.490 . S
C1084 C1086 1.395 . S
C1084 C1087 1.403 . S
H1085 C1091 0.930 . S
C1086 H1072 0.930 . S
C1086 C1084 1.395 . S
C1086 C1089 1.403 . S
C1087 C1084 1.403 . S
C1087 C1088 1.524 . S
C1087 C1091 1.400 . S
C1088 H1073 0.960 . S
C1088 H1074 0.960 . S
C1088 H1075 0.960 . S
C1088 C1087 1.524 . S
C1089 C1086 1.403 . S
C1089 C1090 1.392 . S
C1089 C1093 1.495 . S
C1090 C1089 1.392 . S
C1090 C1091 1.385 . S
C1090 C1092 1.478 . S
C1091 H1085 0.930 . S
C1091 C1087 1.400 . S
C1091 C1090 1.385 . S
C1092 C1090 1.478 . S
C1092 C1094 1.381 . S
C1092 C1098 1.383 . S
C1093 C1089 1.495 . S
C1093 H1099 0.959 . S
C1093 H1100 0.961 . S
C1093 H1101 0.960 . S
C1094 C1092 1.381 . S
C1094 C1095 1.394 . S
C1094 H1102 0.930 . S
C1095 C1094 1.394 . S
C1095 C1096 1.383 . S
C1095 H1103 0.929 . S
C1096 C1095 1.383 . S
C1096 C1097 1.377 . S
C1097 H1081 0.930 . S
C1097 C1096 1.377 . S
C1097 C1098 1.379 . S
C1098 H1082 0.931 . S
C1098 C1092 1.383 . S
C1098 C1097 1.379 . S
H1099 C1093 0.959 . S
H1100 C1093 0.961 . S
H1101 C1093 0.960 . S
H1102 C1094 0.930 . S
H1103 C1095 0.929 . S
H1104 C1112 0.929 . S
H1105 C1114 0.930 . S
H1106 C1116 0.930 . S
H1107 C1119 0.929 . S
H1108 C1122 0.930 . S
H1109 C1124 0.960 . S
H1110 C1124 0.960 . S
H1111 C1124 0.960 . S
C1112 H1104 0.929 . S
C1112 C1113 1.377 . S
C1112 C1114 1.384 . S
C1113 C1112 1.377 . S
C1113 C1119 1.390 . S
C1114 H1105 0.930 . S
C1114 C1112 1.384 . S
C1114 C1115 1.372 . S
C1115 C1114 1.372 . S
C1115 C1116 1.400 . S
C1115 C1120 1.490 . S
C1116 H1106 0.930 . S
C1116 C1115 1.400 . S
C1116 C1119 1.386 . S
H1117 C1133 0.930 . S
H1118 C1134 0.931 . S
C1119 H1107 0.929 . S
C1119 C1113 1.390 . S
C1119 C1116 1.386 . S
C1120 C1115 1.490 . S
C1120 C1122 1.395 . S
C1120 C1123 1.403 . S
H1121 C1127 0.930 . S
C1122 H1108 0.930 . S
C1122 C1120 1.395 . S
C1122 C1125 1.403 . S
C1123 C1120 1.403 . S
C1123 C1124 1.524 . S
C1123 C1127 1.400 . S
C1124 H1109 0.960 . S
C1124 H1110 0.960 . S
C1124 H1111 0.960 . S
C1124 C1123 1.524 . S
C1125 C1122 1.403 . S
C1125 C1126 1.392 . S
C1125 C1129 1.495 . S
C1126 C1125 1.392 . S
C1126 C1127 1.385 . S
C1126 C1128 1.478 . S
C1127 H1121 0.930 . S
C1127 C1123 1.400 . S
C1127 C1126 1.385 . S
C1128 C1126 1.478 . S
C1128 C1130 1.381 . S
C1128 C1134 1.383 . S
C1129 C1125 1.495 . S
C1129 H1135 0.959 . S
C1129 H1136 0.961 . S
C1129 H1137 0.960 . S
C1130 C1128 1.381 . S
C1130 C1131 1.394 . S
C1130 H1138 0.930 . S
C1131 C1130 1.394 . S
C1131 C1132 1.383 . S
C1131 H1139 0.929 . S
C1132 C1131 1.383 . S
C1132 C1133 1.377 . S
C1133 H1117 0.930 . S
C1133 C1132 1.377 . S
C1133 C1134 1.379 . S
C1134 H1118 0.931 . S
C1134 C1128 1.383 . S
C1134 C1133 1.379 . S
H1135 C1129 0.959 . S
H1136 C1129 0.961 . S
H1137 C1129 0.960 . S
H1138 C1130 0.930 . S
H1139 C1131 0.929 . S
C285 C16 1.498 . S
C304 C154 1.482 . S
C321 C39 1.502 . S
C340 C177 1.493 . S
C357 C62 1.504 . S
C376 C200 1.514 . S
C393 C85 1.502 . S
C412 C223 1.494 . S
C429 C108 1.499 . S
C448 C246 1.482 . S
C465 C269 1.505 . S
C484 C131 1.510 . S
C501 N12 1.755 . S
C520 N242 1.759 . S
C537 N35 1.755 . S
C556 N265 1.741 . S
C573 N58 1.752 . S
C592 N150 1.739 . S
C609 N81 1.754 . S
C628 N173 1.761 . S
C645 N104 1.754 . S
C664 N196 1.739 . S
C681 N127 1.752 . S
C700 N219 1.739 . S
C717 N2 1.703 . S
C736 N71 1.696 . S
C753 N25 1.712 . S
C772 N94 1.721 . S
C789 N117 1.713 . S
C808 N48 1.730 . S
C825 N140 1.701 . S
C844 N209 1.685 . S
C861 N232 1.701 . S
C880 N163 1.687 . S
C897 N186 1.700 . S
C916 N255 1.671 . S
C933 C145 1.423 . S
C952 C7 1.412 1_556 S
C969 C30 1.424 . S
C988 C168 1.420 1_554 S
C1005 C53 1.427 . S
C1024 C191 1.431 . S
C1041 C214 1.424 . S
C1060 C76 1.415 1_556 S
C1077 C237 1.426 1_554 S
C1096 C99 1.431 . S
C1113 C122 1.423 . S
C1132 C260 1.416 . S
