# Generated by pormake.
# Topology wjg, (4)-cn, num edge types: 1
# Building blocks:
#     Node 0, Type 0, BuildingBlock: QUQFOY_clean_sbu_1, # of connection points: 4
#     Node 1, Type 0, BuildingBlock: QUQFOY_clean_sbu_1, # of connection points: 4
#     Node 2, Type 0, BuildingBlock: QUQFOY_clean_sbu_1, # of connection points: 4
#     Node 3, Type 0, BuildingBlock: QUQFOY_clean_sbu_1, # of connection points: 4
#     Node 4, Type 0, BuildingBlock: QUQFOY_clean_sbu_1, # of connection points: 4
#     Node 5, Type 0, BuildingBlock: QUQFOY_clean_sbu_1, # of connection points: 4
#     Node 6, Type 0, BuildingBlock: QUQFOY_clean_sbu_1, # of connection points: 4
#     Node 7, Type 0, BuildingBlock: QUQFOY_clean_sbu_1, # of connection points: 4
#     Node 8, Type 0, BuildingBlock: QUQFOY_clean_sbu_1, # of connection points: 4
#     Node 9, Type 0, BuildingBlock: QUQFOY_clean_sbu_1, # of connection points: 4
#     Node 10, Type 0, BuildingBlock: QUQFOY_clean_sbu_1, # of connection points: 4
#     Node 11, Type 0, BuildingBlock: QUQFOY_clean_sbu_1, # of connection points: 4
#     Edge 12, Type (0, 0), BuildingBlock: ZUJKAS_clean_linker_0, # of connection points: 2
#     Edge 13, Type (0, 0), BuildingBlock: ZUJKAS_clean_linker_0, # of connection points: 2
#     Edge 14, Type (0, 0), BuildingBlock: ZUJKAS_clean_linker_0, # of connection points: 2
#     Edge 15, Type (0, 0), BuildingBlock: ZUJKAS_clean_linker_0, # of connection points: 2
#     Edge 16, Type (0, 0), BuildingBlock: ZUJKAS_clean_linker_0, # of connection points: 2
#     Edge 17, Type (0, 0), BuildingBlock: ZUJKAS_clean_linker_0, # of connection points: 2
#     Edge 18, Type (0, 0), BuildingBlock: ZUJKAS_clean_linker_0, # of connection points: 2
#     Edge 19, Type (0, 0), BuildingBlock: ZUJKAS_clean_linker_0, # of connection points: 2
#     Edge 20, Type (0, 0), BuildingBlock: ZUJKAS_clean_linker_0, # of connection points: 2
#     Edge 21, Type (0, 0), BuildingBlock: ZUJKAS_clean_linker_0, # of connection points: 2
#     Edge 22, Type (0, 0), BuildingBlock: ZUJKAS_clean_linker_0, # of connection points: 2
#     Edge 23, Type (0, 0), BuildingBlock: ZUJKAS_clean_linker_0, # of connection points: 2
#     Edge 24, Type (0, 0), BuildingBlock: ZUJKAS_clean_linker_0, # of connection points: 2
#     Edge 25, Type (0, 0), BuildingBlock: ZUJKAS_clean_linker_0, # of connection points: 2
#     Edge 26, Type (0, 0), BuildingBlock: ZUJKAS_clean_linker_0, # of connection points: 2
#     Edge 27, Type (0, 0), BuildingBlock: ZUJKAS_clean_linker_0, # of connection points: 2
#     Edge 28, Type (0, 0), BuildingBlock: ZUJKAS_clean_linker_0, # of connection points: 2
#     Edge 29, Type (0, 0), BuildingBlock: ZUJKAS_clean_linker_0, # of connection points: 2
#     Edge 30, Type (0, 0), BuildingBlock: ZUJKAS_clean_linker_0, # of connection points: 2
#     Edge 31, Type (0, 0), BuildingBlock: ZUJKAS_clean_linker_0, # of connection points: 2
#     Edge 32, Type (0, 0), BuildingBlock: ZUJKAS_clean_linker_0, # of connection points: 2
#     Edge 33, Type (0, 0), BuildingBlock: ZUJKAS_clean_linker_0, # of connection points: 2
#     Edge 34, Type (0, 0), BuildingBlock: ZUJKAS_clean_linker_0, # of connection points: 2
#     Edge 35, Type (0, 0), BuildingBlock: ZUJKAS_clean_linker_0, # of connection points: 2
# Relax obj value: 0.303
# Max RMSD: 0.127
# Mean RMSD: 0.125
data_MOF--net-wjg--node1-QUQFOY_clean_sbu_1--edge1-ZUJKAS_clean_linker_0
_symmetry_space_group_name_H-M    P1
_symmetry_Int_Tables_number       1
_symmetry_cell_setting            triclinic
loop_
_symmetry_equiv_pos_as_xyz
'x, y, z'
_cell_length_a     44.095043
_cell_length_b     43.946092
_cell_length_c     52.114153
_cell_angle_alpha  89.970845
_cell_angle_beta   90.044075
_cell_angle_gamma 120.17025
loop_
_atom_site_label
_atom_site_type_symbol
_atom_site_fract_x
_atom_site_fract_y
_atom_site_fract_z
_atom_type_partial_charge
O0 O 0.13283 0.33396 0.32957 0.0
Cd1 Cd 0.10201 0.35546 0.33717 0.0
Cd2 Cd 0.16624 0.41527 0.34854 0.0
O3 O 0.18359 0.38306 0.33388 0.0
O4 O 0.05837 0.32819 0.31651 0.0
O5 O 0.09658 0.38456 0.3097 0.0
C6 C 0.06838 0.35613 0.30278 0.0
C7 C 0.20865 0.4758 0.347 0.0
C8 C 0.1661 0.3503 0.32902 0.0
C9 C 0.1139 0.37555 0.39191 0.0
O10 O 0.14321 0.40052 0.38414 0.0
O11 O 0.09121 0.3544 0.37597 0.0
O12 O 0.21265 0.45374 0.36057 0.0
O13 O 0.18029 0.46369 0.33365 0.0
O14 O 0.81137 0.18489 0.65552 0.0
Cd15 Cd 0.76769 0.13776 0.66459 0.0
Cd16 Cd 0.74754 0.18074 0.69126 0.0
O17 O 0.79721 0.21758 0.67907 0.0
O18 O 0.76598 0.10286 0.63922 0.0
O19 O 0.72503 0.11773 0.64167 0.0
C20 C 0.73735 0.10005 0.63034 0.0
C21 C 0.71287 0.20673 0.69853 0.0
C22 C 0.81884 0.21463 0.6647 0.0
C23 C 0.75921 0.12858 0.72159 0.0
O24 O 0.74596 0.14839 0.72042 0.0
O25 O 0.76981 0.12068 0.70132 0.0
O26 O 0.73783 0.21157 0.71365 0.0
O27 O 0.70658 0.18635 0.67905 0.0
O28 O 0.59215 0.73681 0.05136 0.0
Cd29 Cd 0.56843 0.73816 0.01778 0.0
Cd30 Cd 0.63347 0.75093 1.00042 0.0
O31 O 0.64467 0.7484 0.03876 0.0
O32 O 0.52572 0.73368 0.03418 0.0
O33 O 0.52261 0.69591 1.00523 0.0
C34 C 0.50673 0.70591 0.02091 0.0
C35 C 0.63669 0.71729 0.96704 0.0
C36 C 0.62282 0.74287 0.05662 0.0
C37 C 0.61742 0.80863 0.99296 0.0
O38 O 0.63986 0.79885 0.99021 0.0
O39 O 0.58741 0.78779 1.00239 0.0
O40 O 0.66463 0.74269 0.97732 0.0
O41 O 0.6067 0.70958 0.97682 0.0
O42 O 0.85673 0.64576 0.32489 0.0
Cd43 Cd 0.87584 0.61282 0.3329 0.0
Cd44 Cd 0.81003 0.56331 0.32683 0.0
O45 O 0.80599 0.60377 0.31015 0.0
O46 O 0.92353 0.63251 0.31762 0.0
O47 O 0.8766 0.58423 0.30333 0.0
C48 C 0.90938 0.60774 0.30064 0.0
C49 C 0.77403 0.50505 0.31341 0.0
C50 C 0.82725 0.63621 0.31445 0.0
C51 C 0.84033 0.5798 0.38076 0.0
O52 O 0.81372 0.56558 0.36613 0.0
O53 O 0.8709 0.59844 0.3713 0.0
O54 O 0.76133 0.52342 0.32261 0.0
O55 O 0.80752 0.52038 0.31015 0.0
O56 O 0.19738 0.8793 0.66414 0.0
Cd57 Cd 0.24887 0.89389 0.67037 0.0
Cd58 Cd 0.22558 0.82674 0.66094 0.0
O59 O 0.18368 0.82911 0.64525 0.0
O60 O 0.28077 0.94071 0.65429 0.0
O61 O 0.27418 0.89022 0.63991 0.0
C62 C 0.28743 0.92376 0.63696 0.0
C63 C 0.24371 0.78888 0.64437 0.0
C64 C 0.1755 0.85188 0.65201 0.0
C65 C 0.24329 0.85362 0.716 0.0
O66 O 0.22796 0.82817 0.70035 0.0
O67 O 0.25848 0.88521 0.70784 0.0
O68 O 0.21334 0.77714 0.65468 0.0
O69 O 0.26332 0.8225 0.6419 0.0
O70 O 0.40306 0.25829 0.04758 0.0
Cd71 Cd 0.41615 0.24623 0.01275 0.0
Cd72 Cd 0.35309 0.24343 1.00157 0.0
O73 O 0.35184 0.25408 0.04018 0.0
O74 O 0.45874 0.24648 0.0257 0.0
O75 O 0.46119 0.28044 0.9938 0.0
C76 C 0.47727 0.27037 1.00925 0.0
C77 C 0.35032 0.27606 0.96718 0.0
C78 C 0.37608 0.25861 0.05565 0.0
C79 C 0.35399 0.17624 0.99662 0.0
O80 O 0.33592 0.19131 0.9948 0.0
O81 O 0.38638 0.19384 1.00239 0.0
O82 O 0.32299 0.25617 0.98089 0.0
O83 O 0.37987 0.27883 0.97389 0.0
O84 O 0.67581 0.86462 0.36251 0.0
Cd85 Cd 0.65216 0.89335 0.35406 0.0
Cd86 Cd 0.59334 0.82817 0.34873 0.0
O87 O 0.62693 0.81327 0.36445 0.0
O88 O 0.67782 0.93886 0.37294 0.0
O89 O 0.62286 0.89811 0.3815 0.0
C90 C 0.65031 0.92793 0.38722 0.0
C91 C 0.53303 0.78726 0.35383 0.0
C92 C 0.66013 0.83166 0.36644 0.0
C93 C 0.62743 0.87391 0.30105 0.0
O94 O 0.60463 0.84528 0.31138 0.0
O95 O 0.64905 0.89957 0.31489 0.0
O96 O 0.55365 0.78013 0.34123 0.0
O97 O 0.54663 0.81783 0.36445 0.0
O98 O 0.78738 0.66776 0.68576 0.0
Cd99 Cd 0.73528 0.63044 0.683 0.0
Cd100 Cd 0.75889 0.58675 0.69132 0.0
O101 O 0.8034 0.63227 0.70313 0.0
O102 O 0.70651 0.648 0.70011 0.0
O103 O 0.71218 0.60379 0.71501 0.0
C104 C 0.70047 0.62528 0.71806 0.0
C105 C 0.74406 0.53226 0.70961 0.0
C106 C 0.81079 0.66291 0.69594 0.0
C107 C 0.734 0.59178 0.63756 0.0
O108 O 0.75046 0.58205 0.65233 0.0
O109 O 0.7211 0.60988 0.64634 0.0
O110 O 0.77245 0.55034 0.69669 0.0
O111 O 0.72467 0.54606 0.71363 0.0
O112 O 0.16086 0.73851 0.98381 0.0
Cd113 Cd 0.17217 0.74185 0.0223 0.0
Cd114 Cd 0.10889 0.73638 0.02252 0.0
O115 O 0.1059 0.72627 0.98347 0.0
O116 O 0.21957 0.74745 0.01934 0.0
O117 O 0.17614 0.70181 0.03863 0.0
C118 C 0.2082 0.7178 0.03075 0.0
C119 C 0.0749 0.69903 0.05542 0.0
C120 C 0.13328 0.73161 0.9715 0.0
C121 C 0.16875 0.8055 0.03824 0.0
O122 O 0.1369 0.78908 0.03107 0.0
O123 O 0.18634 0.7898 0.03899 0.0
O124 O 0.06295 0.71437 0.04072 0.0
O125 O 0.10546 0.70318 0.05023 0.0
O126 O 0.32928 0.13033 0.36478 0.0
Cd127 Cd 0.3561 0.10545 0.35439 0.0
Cd128 Cd 0.41102 0.16985 0.35501 0.0
O129 O 0.37667 0.18029 0.37475 0.0
O130 O 0.33468 0.05889 0.37187 0.0
O131 O 0.38754 0.1036 0.38129 0.0
C132 C 0.36218 0.07218 0.38644 0.0
C133 C 0.47129 0.20526 0.36293 0.0
C134 C 0.34344 0.16139 0.37368 0.0
C135 C 0.3819 0.13406 0.3035 0.0
O136 O 0.40136 0.16175 0.3163 0.0
O137 O 0.36247 0.10505 0.315 0.0
O138 O 0.45268 0.218 0.35438 0.0
O139 O 0.45551 0.17214 0.36831 0.0
O140 O 0.18722 0.37755 0.70142 0.0
Cd141 Cd 0.23123 0.3754 0.69188 0.0
Cd142 Cd 0.25117 0.43973 0.66692 0.0
O143 O 0.20091 0.42503 0.67861 0.0
O144 O 0.23271 0.34093 0.71612 0.0
O145 O 0.27344 0.39729 0.71528 0.0
C146 C 0.26104 0.36658 0.7257 0.0
C147 C 0.28513 0.50104 0.66107 0.0
C148 C 0.17934 0.39964 0.69259 0.0
C149 C 0.24072 0.37784 0.63483 0.0
O150 O 0.25424 0.41095 0.63696 0.0
O151 O 0.22953 0.35818 0.65456 0.0
O152 O 0.26067 0.48111 0.64548 0.0
O153 O 0.29127 0.48644 0.68027 0.0
O154 O 0.85894 0.25661 0.96659 0.0
Cd155 Cd 0.8287 0.24965 0.99848 0.0
Cd156 Cd 0.87778 0.23573 0.01969 0.0
O157 O 0.89483 0.23984 0.98206 0.0
O158 O 0.79296 0.25801 0.98166 0.0
O159 O 0.82238 0.28768 0.01576 0.0
C160 C 0.79868 0.28131 0.99873 0.0
C161 C 0.91271 0.26846 0.05433 0.0
C162 C 0.8826 0.24861 0.96312 0.0
C163 C 0.8041 0.17692 0.02074 0.0
O164 O 0.83534 0.18722 0.02786 0.0
O165 O 0.79676 0.19786 1.00917 0.0
O166 O 0.91577 0.24332 0.04421 0.0
O167 O 0.89074 0.27615 0.04393 0.0
H168 H 0.20771 0.53197 0.32403 0.0
H169 H 0.25433 0.59421 0.32541 0.0
H170 H 0.31782 0.56622 0.37167 0.0
H171 H 0.27173 0.50492 0.37084 0.0
H172 H 0.31751 0.62532 0.38981 0.0
H173 H 0.34618 0.63519 0.28498 0.0
H174 H 0.30215 0.62227 0.29456 0.0
H175 H 0.31911 0.59337 0.30052 0.0
C176 C 0.23164 0.53922 0.33448 0.0
C177 C 0.23607 0.51348 0.34722 0.0
C178 C 0.25823 0.57472 0.33522 0.0
C179 C 0.28963 0.58481 0.34854 0.0
C180 C 0.29377 0.55912 0.36141 0.0
H181 H 0.50132 0.71918 0.33858 0.0
H182 H 0.43904 0.67622 0.3376 0.0
C183 C 0.26737 0.52396 0.36079 0.0
C184 C 0.31929 0.62162 0.34871 0.0
H185 H 0.3863 0.68102 0.3111 0.0
C186 C 0.33222 0.63801 0.37256 0.0
C187 C 0.33833 0.63801 0.32615 0.0
C188 C 0.32602 0.62139 0.30006 0.0
C189 C 0.36502 0.6689 0.37467 0.0
C190 C 0.38504 0.68405 0.35226 0.0
C191 C 0.37082 0.66923 0.32824 0.0
C192 C 0.42274 0.71121 0.35351 0.0
C193 C 0.37918 0.68349 0.40097 0.0
C194 C 0.43442 0.74522 0.3631 0.0
C195 C 0.47043 0.77004 0.36392 0.0
C196 C 0.49508 0.76116 0.35495 0.0
C197 C 0.48311 0.72699 0.34559 0.0
C198 C 0.44743 0.70237 0.3449 0.0
H199 H 0.36205 0.66611 0.41656 0.0
H200 H 0.40583 0.68712 0.40344 0.0
H201 H 0.38133 0.70962 0.40308 0.0
H202 H 0.41574 0.75268 0.36962 0.0
H203 H 0.47888 0.79625 0.37105 0.0
H204 H 0.69046 0.21879 0.74363 0.0
H205 H 0.67671 0.26515 0.75239 0.0
H206 H 0.6866 0.29042 0.67163 0.0
H207 H 0.6981 0.24253 0.6628 0.0
H208 H 0.72308 0.32872 0.74708 0.0
H209 H 0.61159 0.31114 0.68845 0.0
H210 H 0.62056 0.27576 0.6935 0.0
H211 H 0.6424 0.30749 0.66821 0.0
C212 C 0.68806 0.23325 0.72767 0.0
C213 C 0.69518 0.22716 0.70256 0.0
C214 C 0.68037 0.25985 0.73268 0.0
C215 C 0.68056 0.28146 0.71272 0.0
C216 C 0.68532 0.27369 0.68734 0.0
H217 H 0.78247 0.49974 0.70668 0.0
H218 H 0.76223 0.43756 0.71248 0.0
C219 C 0.69206 0.24637 0.68226 0.0
C220 C 0.68239 0.31543 0.71885 0.0
H221 H 0.65628 0.37235 0.69796 0.0
C222 C 0.70771 0.33776 0.73676 0.0
C223 C 0.66215 0.32742 0.70585 0.0
C224 C 0.6324 0.30393 0.68817 0.0
C225 C 0.71504 0.37234 0.74062 0.0
C226 C 0.69743 0.38545 0.72561 0.0
C227 C 0.67026 0.36248 0.70915 0.0
C228 C 0.70978 0.42364 0.72441 0.0
C229 C 0.7424 0.39481 0.76024 0.0
C230 C 0.68695 0.43661 0.72901 0.0
C231 C 0.6985 0.47245 0.72555 0.0
C232 C 0.73293 0.49568 0.71717 0.0
C233 C 0.75586 0.48265 0.71328 0.0
C234 C 0.74436 0.44705 0.71673 0.0
H235 H 0.74348 0.37844 0.77607 0.0
H236 H 0.76858 0.40839 0.75093 0.0
H237 H 0.73715 0.41498 0.76854 0.0
H238 H 0.66008 0.41892 0.73478 0.0
H239 H 0.68014 0.48167 0.72849 0.0
H240 H 0.46968 0.71787 0.05682 0.0
H241 H 0.407 0.69445 0.05857 0.0
H242 H 0.39266 0.62849 0.99306 0.0
H243 H 0.45649 0.65288 0.99077 0.0
H244 H 0.36159 0.66497 0.98541 0.0
H245 H 0.32128 0.6078 0.08139 0.0
H246 H 0.3595 0.65028 0.0851 0.0
H247 H 0.36237 0.61646 0.06742 0.0
C248 C 0.45329 0.6979 0.043 0.0
C249 C 0.46812 0.68747 0.02348 0.0
C250 C 0.41721 0.68404 0.0443 0.0
C251 C 0.39484 0.65903 0.02634 0.0
C252 C 0.40937 0.64741 1.00735 0.0
H253 H 0.18984 0.64938 0.04232 0.0
H254 H 0.22805 0.62349 0.03964 0.0
C255 C 0.44579 0.6614 1.00602 0.0
C256 C 0.35765 0.65022 0.02528 0.0
H257 H 0.29249 0.64098 0.06554 0.0
C258 C 0.34586 0.65839 1.00271 0.0
C259 C 0.33639 0.64075 0.04756 0.0
C260 C 0.34549 0.62793 0.07159 0.0
C261 C 0.31595 0.66183 1.0028 0.0
C262 C 0.29793 0.65773 0.02613 0.0
C263 C 0.30693 0.64509 0.04782 0.0
C264 C 0.27444 0.67244 0.02926 0.0
C265 C 0.30535 0.67228 0.97829 0.0
C266 C 0.28832 0.70861 0.02544 0.0
C267 C 0.26688 0.72332 0.02705 0.0
C268 C 0.23104 0.70225 0.03275 0.0
C269 C 0.21738 0.66624 0.0379 0.0
C270 C 0.23905 0.6514 0.03623 0.0
H271 H 0.31266 0.66217 0.96125 0.0
H272 H 0.27668 0.66228 0.97777 0.0
H273 H 0.31935 0.70142 0.97688 0.0
H274 H 0.31581 0.72549 0.0208 0.0
H275 H 0.27836 0.75121 0.02326 0.0
H276 H 0.50811 0.27558 0.37063 0.0
H277 H 0.57037 0.31512 0.36226 0.0
H278 H 0.5837 0.2261 0.34708 0.0
H279 H 0.52096 0.18601 0.35583 0.0
H280 H 0.63695 0.31663 0.38224 0.0
H281 H 0.60598 0.28881 0.2781 0.0
H282 H 0.57183 0.28016 0.30096 0.0
H283 H 0.59161 0.25313 0.30075 0.0
C284 C 0.52446 0.26435 0.36622 0.0
C285 C 0.50977 0.2278 0.36377 0.0
C286 C 0.56 0.28695 0.36146 0.0
C287 C 0.58142 0.27347 0.35384 0.0
C288 C 0.56744 0.23689 0.35291 0.0
H289 H 0.79131 0.45355 0.31798 0.0
H290 H 0.74988 0.39045 0.32451 0.0
C291 C 0.53176 0.2141 0.35806 0.0
C292 C 0.61701 0.29839 0.34428 0.0
H293 H 0.65798 0.34064 0.28896 0.0
C294 C 0.64228 0.32124 0.36186 0.0
C295 C 0.62352 0.30433 0.31766 0.0
C296 C 0.59694 0.28045 0.29811 0.0
C297 C 0.67282 0.35148 0.3535 0.0
C298 C 0.67798 0.3589 0.32692 0.0
C299 C 0.65398 0.33465 0.30929 0.0
C300 C 0.70368 0.39459 0.31776 0.0
C301 C 0.69781 0.37693 0.37318 0.0
C302 C 0.69136 0.41723 0.31063 0.0
C303 C 0.71475 0.45302 0.30707 0.0
C304 C 0.75094 0.46674 0.3103 0.0
C305 C 0.76353 0.44357 0.3152 0.0
C306 C 0.73995 0.40764 0.31909 0.0
H307 H 0.6893 0.36779 0.39315 0.0
H308 H 0.72429 0.38035 0.37031 0.0
H309 H 0.70006 0.40309 0.37072 0.0
H310 H 0.66344 0.40761 0.3095 0.0
H311 H 0.70436 0.47028 0.30326 0.0
H312 H 0.30998 0.80511 0.62959 0.0
H313 H 0.33231 0.76418 0.62536 0.0
H314 H 0.22923 0.6772 0.64248 0.0
H315 H 0.20675 0.71743 0.6462 0.0
H316 H 0.33395 0.72125 0.66281 0.0
H317 H 0.25593 0.64033 0.58094 0.0
H318 H 0.26001 0.68239 0.58824 0.0
H319 H 0.22786 0.6431 0.60452 0.0
C320 C 0.29195 0.77716 0.63184 0.0
C321 C 0.25656 0.76449 0.63813 0.0
C322 C 0.30479 0.75387 0.62956 0.0
C323 C 0.28234 0.7176 0.63329 0.0
C324 C 0.24687 0.70495 0.63892 0.0
H325 H 0.29518 0.5498 0.69718 0.0
H326 H 0.30542 0.60889 0.68853 0.0
C327 C 0.23408 0.72808 0.64117 0.0
C328 C 0.29586 0.69278 0.63324 0.0
H329 H 0.27521 0.61169 0.61129 0.0
C330 C 0.32176 0.69762 0.65114 0.0
C331 C 0.28061 0.66238 0.61763 0.0
C332 C 0.25486 0.65696 0.59656 0.0
C333 C 0.33083 0.67155 0.65516 0.0
C334 C 0.31284 0.6395 0.64139 0.0
C335 C 0.28885 0.63596 0.62218 0.0
C336 C 0.31556 0.60797 0.64789 0.0
C337 C 0.35918 0.67852 0.67439 0.0
C338 C 0.31852 0.58783 0.62817 0.0
C339 C 0.31155 0.55367 0.63302 0.0
C340 C 0.30244 0.53939 0.65778 0.0
C341 C 0.30284 0.56058 0.67803 0.0
C342 C 0.30885 0.59448 0.67305 0.0
H343 H 0.37918 0.70698 0.675 0.0
H344 H 0.34738 0.67093 0.6938 0.0
H345 H 0.37246 0.66338 0.66988 0.0
H346 H 0.32374 0.59757 0.60863 0.0
H347 H 0.31118 0.53763 0.61709 0.0
H348 H 0.78467 0.31089 0.04003 0.0
H349 H 0.73698 0.32426 0.04318 0.0
H350 H 0.71373 0.30016 0.96292 0.0
H351 H 0.76088 0.28652 0.95963 0.0
H352 H 0.70768 0.36325 0.98863 0.0
H353 H 0.63497 0.22902 0.0318 0.0
H354 H 0.67825 0.25948 0.04361 0.0
H355 H 0.67289 0.24244 0.01166 0.0
C356 C 0.77012 0.30956 0.0229 0.0
C357 C 0.77615 0.29725 0.99967 0.0
C358 C 0.74294 0.31719 0.02473 0.0
C359 C 0.7219 0.31304 1.00328 0.0
C360 C 0.72983 0.30365 0.97962 0.0
H361 H 0.52205 0.29674 0.96806 0.0
H362 H 0.58405 0.31274 0.96724 0.0
C363 C 0.75665 0.29569 0.97783 0.0
C364 C 0.68832 0.31249 1.00621 0.0
H365 H 0.60364 0.25801 0.02449 0.0
C366 C 0.68492 0.34052 0.99673 0.0
C367 C 0.65879 0.2826 0.01656 0.0
C368 C 0.66105 0.25148 0.02643 0.0
C369 C 0.65248 0.33944 0.99752 0.0
C370 C 0.6227 0.30913 1.00741 0.0
C371 C 0.62644 0.28132 0.01701 0.0
C372 C 0.58712 0.30494 1.00803 0.0
C373 C 0.65053 0.37084 0.98806 0.0
C374 C 0.56822 0.2953 0.03112 0.0
C375 C 0.53283 0.2853 0.03144 0.0
C376 C 0.51561 0.28521 1.00874 0.0
C377 C 0.53484 0.2968 0.98583 0.0
C378 C 0.57031 0.30618 0.98541 0.0
H379 H 0.67663 0.39523 0.98868 0.0
H380 H 0.64146 0.36632 0.96782 0.0
H381 H 0.63178 0.375 0.99963 0.0
H382 H 0.58056 0.29418 0.04881 0.0
H383 H 0.5187 0.27682 0.04944 0.0
H384 H 0.13724 0.27916 0.32287 0.0
H385 H 0.16595 0.24492 0.33135 0.0
H386 H 0.26495 0.34078 0.34113 0.0
H387 H 0.23665 0.37538 0.3328 0.0
H388 H 0.22778 0.2458 0.30957 0.0
H389 H 0.24328 0.2877 0.4117 0.0
H390 H 0.21382 0.29215 0.38996 0.0
H391 H 0.26015 0.3227 0.38848 0.0
C392 C 0.16528 0.29304 0.32621 0.0
C393 C 0.18454 0.33003 0.32756 0.0
C394 C 0.18158 0.27339 0.33114 0.0
C395 C 0.21727 0.29043 0.3375 0.0
C396 C 0.23717 0.32726 0.33676 0.0
H397 H 0.36572 0.23046 0.38422 0.0
H398 H 0.33185 0.25997 0.37827 0.0
C399 C 0.22096 0.34695 0.33179 0.0
C400 C 0.23323 0.26981 0.3465 0.0
H401 H 0.26975 0.25457 0.3992 0.0
C402 C 0.2368 0.24748 0.32917 0.0
C403 C 0.2447 0.27209 0.37216 0.0
C404 C 0.2401 0.2947 0.39178 0.0
C405 C 0.25267 0.22808 0.33662 0.0
C406 C 0.26447 0.2306 0.36224 0.0
C407 C 0.26048 0.25263 0.37965 0.0
C408 C 0.28288 0.21207 0.37073 0.0
C409 C 0.25773 0.20598 0.3168 0.0
C410 C 0.26597 0.17523 0.37009 0.0
C411 C 0.28523 0.15822 0.37347 0.0
C412 C 0.32168 0.17787 0.37762 0.0
C413 C 0.33776 0.21453 0.38086 0.0
C414 C 0.31847 0.2315 0.37739 0.0
H415 H 0.25414 0.21287 0.29695 0.0
H416 H 0.28431 0.20921 0.31837 0.0
H417 H 0.23819 0.17782 0.32005 0.0
H418 H 0.23827 0.15978 0.36559 0.0
H419 H 0.27194 0.1299 0.37116 0.0
H420 H 0.8444 0.28178 0.68243 0.0
H421 H 0.90593 0.32787 0.68557 0.0
H422 H 0.9363 0.26184 0.64497 0.0
H423 H 0.87499 0.21594 0.64133 0.0
H424 H 0.95288 0.31834 0.71225 0.0
H425 H 0.00057 0.35657 0.61294 0.0
H426 H 0.95443 0.33303 0.6208 0.0
H427 H 0.97797 0.30968 0.61673 0.0
C428 C 0.86408 0.27742 0.67352 0.0
C429 C 0.85478 0.24502 0.66181 0.0
C430 C 0.89924 0.30381 0.67538 0.0
C431 C 0.92568 0.29838 0.6654 0.0
C432 C 0.91632 0.26693 0.65235 0.0
H433 H 0.12374 0.34351 0.71576 0.0
H434 H 0.0621 0.32631 0.71198 0.0
C435 C 0.88118 0.24057 0.65041 0.0
C436 C 0.96297 0.32317 0.67152 0.0
H437 H 0.04449 0.36539 0.64476 0.0
C438 C 0.97289 0.32932 0.69747 0.0
C439 C 0.98902 0.33791 0.6523 0.0
C440 C 0.9799 0.33426 0.62414 0.0
C441 C 0.00831 0.34778 0.7047 0.0
C442 C 0.0344 0.35981 0.68548 0.0
C443 C 0.02445 0.3558 0.65953 0.0
C444 C 0.07181 0.37333 0.69161 0.0
C445 C 0.01741 0.35345 0.73286 0.0
C446 C 0.09783 0.4057 0.68171 0.0
C447 C 0.13319 0.41553 0.68366 0.0
C448 C 0.1431 0.39296 0.69537 0.0
C449 C 0.11708 0.36156 0.70667 0.0
C450 C 0.08175 0.35175 0.70465 0.0
H451 H -0.00354 0.35438 0.74406 0.0
H452 H 0.01989 0.33112 0.74027 0.0
H453 H 0.0426 0.37821 0.7362 0.0
H454 H 0.09068 0.42268 0.67152 0.0
H455 H 0.15256 0.43995 0.6748 0.0
H456 H 0.73625 0.14506 1.00386 0.0
H457 H 0.69548 0.08196 0.99954 0.0
H458 H 0.77006 0.06018 0.03648 0.0
H459 H 0.81107 0.12324 0.04102 0.0
H460 H 0.71356 0.03859 0.97094 0.0
H461 H 0.6758 0.99066 0.07085 0.0
H462 H 0.6941 0.03639 0.06212 0.0
H463 H 0.72223 0.01807 0.06603 0.0
C464 C 0.74374 0.12691 0.01164 0.0
C465 C 0.77707 0.13923 0.02265 0.0
C466 C 0.72039 0.09086 1.00907 0.0
C467 C 0.72976 0.06651 0.01774 0.0
C468 C 0.76218 0.07861 0.02998 0.0
H469 H 0.67921 0.86081 0.973 0.0
H470 H 0.70204 0.9241 0.97594 0.0
C471 C 0.78562 0.11468 0.0325 0.0
C472 C 0.70735 0.02874 0.01165 0.0
H473 H 0.66406 0.94717 0.03881 0.0
C474 C 0.70229 0.01857 0.98575 0.0
C475 C 0.69257 0.00283 0.03101 0.0
C476 C 0.69612 0.01246 0.05907 0.0
C477 C 0.68396 0.98295 0.97871 0.0
C478 C 0.67062 0.95701 0.9981 0.0
C479 C 0.67445 0.96721 0.02398 0.0
C480 C 0.65463 0.91913 0.99221 0.0
C481 C 0.6794 0.97332 0.95063 0.0
C482 C 0.62014 0.89545 0.99985 0.0
C483 C 0.60694 0.85922 0.99815 0.0
C484 C 0.62826 0.84611 0.98914 0.0
C485 C 0.6621 0.86999 0.98004 0.0
C486 C 0.67518 0.9062 0.98163 0.0
H487 H 0.68256 0.99548 0.93844 0.0
H488 H 0.6996 0.96671 0.94481 0.0
H489 H 0.65318 0.94999 0.94692 0.0
H490 H 0.60395 0.90501 1.00811 0.0
H491 H 0.58078 0.8416 1.00534 0.0
H492 H 0.63569 0.76087 0.36686 0.0
H493 H 0.66973 0.73213 0.35818 0.0
H494 H 0.76533 0.83263 0.36018 0.0
H495 H 0.7316 0.86185 0.36877 0.0
H496 H 0.71704 0.7576 0.31079 0.0
H497 H 0.78347 0.75944 0.40231 0.0
H498 H 0.74243 0.75935 0.40183 0.0
H499 H 0.78229 0.79837 0.39305 0.0
C500 C 0.66402 0.77686 0.36623 0.0
C501 C 0.68088 0.81375 0.36822 0.0
C502 C 0.68338 0.76036 0.36115 0.0
C503 C 0.71988 0.78037 0.35838 0.0
C504 C 0.73712 0.81682 0.36235 0.0
H505 H 0.86528 0.70745 0.32183 0.0
H506 H 0.84184 0.7468 0.32832 0.0
C507 C 0.71778 0.83342 0.36729 0.0
C508 C 0.73928 0.76359 0.34853 0.0
H509 H 0.79545 0.73534 0.36606 0.0
C510 C 0.73431 0.75278 0.32279 0.0
C511 C 0.7621 0.758 0.36419 0.0
C512 C 0.76799 0.7692 0.39195 0.0
C513 C 0.75128 0.73591 0.31232 0.0
C514 C 0.7731 0.729 0.32825 0.0
C515 C 0.77876 0.74072 0.35385 0.0
C516 C 0.78825 0.70741 0.3195 0.0
C517 C 0.74578 0.72584 0.28432 0.0
C518 C 0.76609 0.6726 0.31143 0.0
C519 C 0.77943 0.65013 0.30745 0.0
C520 C 0.8151 0.66192 0.31192 0.0
C521 C 0.83765 0.69749 0.31831 0.0
C522 C 0.8243 0.71999 0.32214 0.0
H523 H 0.73898 0.74315 0.27318 0.0
H524 H 0.76951 0.72729 0.27574 0.0
H525 H 0.72363 0.69844 0.28243 0.0
H526 H 0.73808 0.6621 0.30974 0.0
H527 H 0.76128 0.62288 0.30265 0.0
H528 H 0.12515 0.80681 0.61843 0.0
H529 H 0.0619 0.78352 0.62184 0.0
H530 H 0.07934 0.85121 0.6869 0.0
H531 H 0.14224 0.87603 0.68248 0.0
H532 H 0.02541 0.74615 0.65872 0.0
H533 H 0.0025 0.85826 0.65516 0.0
H534 H 0.04384 0.86256 0.64579 0.0
H535 H 0.03487 0.86634 0.67906 0.0
C536 C 0.11546 0.81758 0.63283 0.0
C537 C 0.1386 0.84321 0.65017 0.0
C538 C 0.07932 0.80419 0.63485 0.0
C539 C 0.06567 0.81567 0.65457 0.0
C540 C 0.089 0.84256 0.67105 0.0
H541 H 0.86602 0.66937 0.72435 0.0
H542 H 0.92838 0.70993 0.71615 0.0
C543 C 0.12512 0.85661 0.6686 0.0
C544 C 0.02747 0.7962 0.66025 0.0
H545 H 0.95848 0.80645 0.67768 0.0
C546 C 0.01071 0.7594 0.66243 0.0
C547 C 0.00799 0.81325 0.66496 0.0
C548 C 0.02323 0.85224 0.66082 0.0
C549 C 0.97543 0.73929 0.66962 0.0
C550 C 0.9567 0.75656 0.67617 0.0
C551 C 0.97309 0.79327 0.67336 0.0
C552 C 0.91953 0.73665 0.68457 0.0
C553 C 0.95855 0.69968 0.66948 0.0
C554 C 0.89398 0.74034 0.67115 0.0
C555 C 0.85845 0.71809 0.67643 0.0
C556 C 0.84782 0.69136 0.69497 0.0
C557 C 0.87346 0.68942 0.70973 0.0
C558 C 0.90906 0.71231 0.70485 0.0
H559 H 0.97276 0.69087 0.65664 0.0
H560 H 0.95932 0.69039 0.68914 0.0
H561 H 0.93079 0.68688 0.66309 0.0
H562 H 0.90139 0.75916 0.65562 0.0
H563 H 0.83934 0.72028 0.66472 0.0
H564 H 0.28431 0.12984 0.98825 0.0
H565 H 0.25312 0.06645 0.99608 0.0
H566 H 0.35113 0.071 0.01258 0.0
H567 H 0.38274 0.1344 1.00459 0.0
H568 H 0.30253 0.01153 0.98272 0.0
H569 H 0.24215 0.02954 0.07073 0.0
H570 H 0.23542 0.048 0.04199 0.0
H571 H 0.27894 0.06569 0.05475 0.0
C572 C 0.29938 0.11733 0.99307 0.0
C573 C 0.33602 0.13732 0.99611 0.0
C574 C 0.28144 0.08114 0.99774 0.0
C575 C 0.2998 0.06435 1.00556 0.0
C576 C 0.33652 0.08366 1.00684 0.0
H577 H 0.23804 0.85001 0.04949 0.0
H578 H 0.27057 0.91392 0.04424 0.0
C579 C 0.35452 0.11987 1.00218 0.0
C580 C 0.28063 0.027 0.01347 0.0
H581 H 0.22301 0.97081 0.05814 0.0
C582 C 0.28527 0.00258 0.99926 0.0
C583 C 0.25826 0.0156 0.03514 0.0
C584 C 0.25353 0.04106 0.05172 0.0
C585 C 0.26739 0.96676 1.00577 0.0
C586 C 0.2449 0.95532 0.02738 0.0
C587 C 0.2404 0.97977 0.04167 0.0
C588 C 0.22485 0.91777 0.03473 0.0
C589 C 0.27199 0.94131 0.98907 0.0
C590 C 0.18818 0.89923 0.03276 0.0
C591 C 0.16943 0.86273 0.03595 0.0
C592 C 0.18712 0.84423 0.04118 0.0
C593 C 0.22361 0.86336 0.04525 0.0
C594 C 0.2423 0.89986 0.04207 0.0
H595 H 0.28385 0.95304 0.97021 0.0
H596 H 0.28958 0.93378 0.9989 0.0
H597 H 0.24642 0.91698 0.98569 0.0
H598 H 0.17425 0.91273 0.02737 0.0
H599 H 0.14134 0.84888 0.03283 0.0
H600 H 0.90976 0.31994 0.08229 0.0
H601 H 0.9381 0.34483 0.12361 0.0
H602 H 0.98651 0.28057 0.12208 0.0
H603 H 0.95899 0.2562 0.08079 0.0
H604 H 0.9291 0.31049 0.16854 0.0
H605 H 0.06894 0.37489 0.14132 0.0
H606 H 0.03431 0.3604 0.11782 0.0
H607 H 0.04558 0.32969 0.13145 0.0
C608 C 0.92694 0.31157 0.09055 0.0
C609 C 0.93219 0.28616 0.07814 0.0
C610 C 0.94304 0.32575 0.11422 0.0
C611 C 0.96489 0.315 0.12585 0.0
C612 C 0.97052 0.29001 0.11328 0.0
H613 H 0.01023 0.29934 0.28277 0.0
H614 H 0.98436 0.29392 0.24048 0.0
C615 C 0.95453 0.2759 0.08967 0.0
C616 C 0.97991 0.32784 0.15188 0.0
H617 H 0.05609 0.3618 0.18625 0.0
C618 C 0.95694 0.3222 0.17234 0.0
C619 C 0.01631 0.34372 0.1569 0.0
C620 C 0.04273 0.35289 0.13565 0.0
C621 C 0.96913 0.33028 0.19777 0.0
C622 C 0.00517 0.3437 0.20299 0.0
C623 C 0.02839 0.35108 0.18238 0.0
C624 C 0.01907 0.34823 0.22965 0.0
C625 C 0.94315 0.32415 0.21879 0.0
C626 C 0.04753 0.38052 0.23776 0.0
C627 C 0.06266 0.38365 0.262 0.0
C628 C 0.04976 0.35446 0.27857 0.0
C629 C 0.02069 0.32246 0.27064 0.0
C630 C 0.00568 0.31935 0.24644 0.0
H631 H 0.92041 0.32577 0.21129 0.0
H632 H 0.93296 0.29734 0.22679 0.0
H633 H 0.9555 0.34354 0.23457 0.0
H634 H 0.05848 0.40315 0.22511 0.0
H635 H 0.08513 0.40863 0.26742 0.0
H636 H 0.68023 0.09304 0.60386 0.0
H637 H 0.65598 0.06146 0.5634 0.0
H638 H 0.73309 0.02857 0.56312 0.0
H639 H 0.75708 0.0595 0.60349 0.0
H640 H 0.6897 0.07333 0.51692 0.0
H641 H 0.64336 0.93671 0.54844 0.0
H642 H 0.65439 0.97213 0.57083 0.0
H643 H 0.68831 0.96596 0.55697 0.0
C644 C 0.69167 0.07863 0.59538 0.0
C645 C 0.72053 0.07871 0.60701 0.0
C646 C 0.67784 0.06067 0.57221 0.0
C647 C 0.69237 0.0422 0.56037 0.0
C648 C 0.72088 0.04193 0.57213 0.0
H649 H 0.70458 0.9905 0.40431 0.0
H650 H 0.71005 0.01859 0.44575 0.0
C651 C 0.73472 0.05985 0.5952 0.0
C652 C 0.67936 0.02494 0.53498 0.0
H653 H 0.65162 0.94746 0.50306 0.0
C654 C 0.6809 0.04568 0.51395 0.0
C655 C 0.66732 0.98874 0.5311 0.0
C656 C 0.66287 0.9645 0.55309 0.0
C657 C 0.67243 0.03164 0.489 0.0
C658 C 0.66269 0.99602 0.48488 0.0
C659 C 0.65945 0.97486 0.5061 0.0
C660 C 0.65778 0.98066 0.45869 0.0
C661 C 0.67419 0.05519 0.46729 0.0
C662 C 0.62661 0.94977 0.45206 0.0
C663 C 0.62346 0.93345 0.42831 0.0
C664 C 0.65154 0.94755 0.4108 0.0
C665 C 0.68233 0.97901 0.41722 0.0
C666 C 0.68545 0.99528 0.44092 0.0
H667 H 0.67047 0.07695 0.47433 0.0
H668 H 0.70045 0.06715 0.45817 0.0
H669 H 0.65404 0.04017 0.45245 0.0
H670 H 0.60497 0.93788 0.46549 0.0
H671 H 0.59945 0.90916 0.42406 0.0
H672 H 0.69491 0.7355 0.93817 0.0
H673 H 0.69825 0.71158 0.89679 0.0
H674 H 0.58785 0.63493 0.90094 0.0
H675 H 0.58403 0.65975 0.94213 0.0
H676 H 0.68703 0.64986 0.88096 0.0
H677 H 0.59192 0.67839 0.83247 0.0
H678 H 0.60863 0.69443 0.86419 0.0
H679 H 0.57418 0.6496 0.85962 0.0
C680 C 0.67131 0.7134 0.93042 0.0
C681 C 0.63912 0.69974 0.94341 0.0
C682 C 0.67327 0.69972 0.90668 0.0
C683 C 0.64317 0.6719 0.89537 0.0
C684 C 0.61126 0.65705 0.90886 0.0
H685 H 0.67637 0.57666 0.75697 0.0
H686 H 0.65741 0.58301 0.7998 0.0
C687 C 0.60917 0.67105 0.93255 0.0
C688 C 0.6456 0.65924 0.86932 0.0
H689 H 0.61503 0.6498 0.80781 0.0
C690 C 0.67114 0.64967 0.86499 0.0
C691 C 0.62516 0.65937 0.84836 0.0
C692 C 0.59866 0.6713 0.85124 0.0
C693 C 0.67744 0.6411 0.84034 0.0
C694 C 0.65675 0.64084 0.81942 0.0
C695 C 0.63065 0.64964 0.82384 0.0
C696 C 0.6637 0.6344 0.79254 0.0
C697 C 0.70742 0.63415 0.83685 0.0
C698 C 0.67132 0.66001 0.77359 0.0
C699 C 0.6813 0.65603 0.74891 0.0
C700 C 0.68415 0.62645 0.74267 0.0
C701 C 0.67474 0.59993 0.76123 0.0
C702 C 0.66424 0.60369 0.78583 0.0
H703 H 0.72613 0.6444 0.8532 0.0
H704 H 0.69688 0.60534 0.8357 0.0
H705 H 0.72211 0.64639 0.81891 0.0
H706 H 0.67089 0.68384 0.77817 0.0
H707 H 0.68838 0.67699 0.73511 0.0
H708 H 0.00987 0.68506 0.07086 0.0
H709 H 0.98211 0.66263 0.11253 0.0
H710 H 0.06864 0.64929 0.13554 0.0
H711 H 0.0965 0.67134 0.09371 0.0
H712 H 0.00142 0.59366 0.15204 0.0
H713 H 0.02251 0.72589 0.17637 0.0
H714 H -0.00132 0.70785 0.14708 0.0
H715 H 0.04364 0.71846 0.14941 0.0
C716 C 0.0228 0.67685 0.08459 0.0
C717 C 0.05561 0.68034 0.079 0.0
C718 C 0.00695 0.66419 0.10847 0.0
C719 C 0.02365 0.65498 0.12734 0.0
C720 C 0.05539 0.65646 0.12132 0.0
H721 H 0.9786 0.65291 0.28985 0.0
H722 H 0.00823 0.66116 0.24866 0.0
C723 C 0.07127 0.66906 0.09738 0.0
C724 C 0.00908 0.64601 0.15376 0.0
H725 H 0.9881 0.67972 0.20534 0.0
C726 C -0.00142 0.61246 0.16376 0.0
C727 C 0.00599 0.67079 0.16922 0.0
C728 C 0.01858 0.70788 0.16014 0.0
C729 C 0.98424 0.60277 0.18859 0.0
C730 C 0.97997 0.62717 0.20366 0.0
C731 C 0.9912 0.66093 0.19379 0.0
C732 C 0.96348 0.61847 0.22956 0.0
C733 C 0.97423 0.5667 0.19856 0.0
C734 C 0.92866 0.59117 0.23278 0.0
C735 C 0.91168 0.58623 0.25642 0.0
C736 C 0.92907 0.60875 0.27724 0.0
C737 C 0.96441 0.63507 0.27426 0.0
C738 C 0.98139 0.63989 0.25068 0.0
H739 H 0.98831 0.55541 0.18818 0.0
H740 H 0.97994 0.56751 0.21939 0.0
H741 H 0.94568 0.54878 0.19567 0.0
H742 H 0.91402 0.57474 0.2167 0.0
H743 H 0.88439 0.56587 0.25797 0.0
H744 H 0.41146 0.09671 0.4248 0.0
H745 H 0.40617 0.07052 0.4672 0.0
H746 H 0.30822 0.98005 0.44456 0.0
H747 H 0.31305 0.00619 0.40229 0.0
H748 H 0.30293 0.0112 0.48869 0.0
H749 H 0.41587 0.98887 0.49558 0.0
H750 H 0.42722 0.03258 0.48589 0.0
H751 H 0.40027 0.99592 0.46535 0.0
C752 C 0.38922 0.07083 0.4286 0.0
C753 C 0.3626 0.05362 0.41014 0.0
C754 C 0.3863 0.05583 0.45287 0.0
C755 C 0.35687 0.02321 0.45906 0.0
C756 C 0.33118 0.00522 0.44022 0.0
H757 H 0.3025 0.89446 0.59611 0.0
H758 H 0.32307 0.92045 0.55362 0.0
C759 C 0.33404 0.02019 0.41601 0.0
C760 C 0.35082 0.00961 0.48582 0.0
H761 H 0.38452 0.98288 0.53426 0.0
C762 C 0.32076 0.00493 0.49861 0.0
C763 C 0.37401 0.00132 0.49874 0.0
C764 C 0.40601 0.00459 0.48566 0.0
C765 C 0.3133 0.99242 0.52392 0.0
C766 C 0.33685 0.98487 0.53707 0.0
C767 C 0.36676 0.98914 0.52425 0.0
C768 C 0.32973 0.97116 0.56378 0.0
C769 C 0.27985 0.98672 0.53622 0.0
C770 C 0.32803 0.99151 0.58388 0.0
C771 C 0.31626 0.97675 0.60822 0.0
C772 C 0.30606 0.94134 0.61291 0.0
C773 C 0.31002 0.92176 0.59316 0.0
C774 C 0.3218 0.93657 0.56884 0.0
H775 H 0.26104 0.98628 0.52181 0.0
H776 H 0.26683 0.9616 0.54711 0.0
H777 H 0.28614 0.00849 0.54987 0.0
H778 H 0.33454 0.01845 0.58048 0.0
H779 H 0.31369 0.99264 0.62298 0.0
H780 H 0.29177 0.27503 0.9488 0.0
H781 H 0.28433 0.29671 0.90749 0.0
H782 H 0.39354 0.3368 0.89016 0.0
H783 H 0.40117 0.31472 0.93147 0.0
H784 H 0.31658 0.36355 0.88527 0.0
H785 H 0.34281 0.27154 0.82928 0.0
H786 H 0.33486 0.26696 0.8634 0.0
H787 H 0.37683 0.29981 0.85124 0.0
C788 C 0.31435 0.28872 0.93635 0.0
C789 C 0.34703 0.29289 0.94341 0.0
C790 C 0.31003 0.30113 0.9127 0.0
C791 C 0.3382 0.31785 0.89551 0.0
C792 C 0.37125 0.32338 0.9029 0.0
H793 H 0.31712 0.41595 0.75373 0.0
H794 H 0.33991 0.40689 0.79423 0.0
C795 C 0.37563 0.31095 0.92661 0.0
C796 C 0.33234 0.32832 0.86963 0.0
H797 H 0.33056 0.30987 0.80572 0.0
C798 C 0.31995 0.35209 0.86785 0.0
C799 C 0.33634 0.31299 0.84692 0.0
C800 C 0.34816 0.28618 0.84766 0.0
C801 C 0.31097 0.36056 0.84406 0.0
C802 C 0.31495 0.34522 0.82136 0.0
C803 C 0.32783 0.32185 0.8231 0.0
C804 C 0.30323 0.35086 0.7959 0.0
C805 C 0.29594 0.38475 0.84354 0.0
C806 C 0.27593 0.32223 0.78289 0.0
C807 C 0.26303 0.32727 0.75973 0.0
C808 C 0.27725 0.36109 0.74895 0.0
C809 C 0.30549 0.38959 0.76153 0.0
C810 C 0.31839 0.3845 0.78478 0.0
H811 H 0.28785 0.38846 0.86294 0.0
H812 H 0.31609 0.41092 0.83621 0.0
H813 H 0.27287 0.37429 0.83056 0.0
H814 H 0.26392 0.29602 0.79102 0.0
H815 H 0.24134 0.30469 0.75056 0.0
H816 H 0.14219 0.42175 0.43148 0.0
H817 H 0.15436 0.40818 0.47444 0.0
H818 H 0.09373 0.29726 0.45768 0.0
H819 H 0.08109 0.31066 0.41458 0.0
H820 H 0.10957 0.35906 0.51724 0.0
H821 H 0.20108 0.3248 0.46862 0.0
H822 H 0.18528 0.35084 0.45296 0.0
H823 H 0.15643 0.30453 0.45744 0.0
C824 C 0.13026 0.39444 0.43728 0.0
C825 C 0.11071 0.36729 0.41964 0.0
C826 C 0.13741 0.38672 0.46178 0.0
C827 C 0.12546 0.35177 0.46902 0.0
C828 C 0.10339 0.32443 0.45233 0.0
H829 H 0.18477 0.3138 0.62186 0.0
H830 H 0.15459 0.2992 0.58036 0.0
C831 C 0.09584 0.33213 0.42783 0.0
C832 C 0.13954 0.34471 0.49272 0.0
H833 H 0.20354 0.32834 0.51361 0.0
C834 C 0.12954 0.35158 0.51656 0.0
C835 C 0.16598 0.33545 0.49163 0.0
C836 C 0.17813 0.32857 0.46636 0.0
C837 C 0.14599 0.35037 0.53934 0.0
C838 C 0.17313 0.34209 0.53819 0.0
C839 C 0.18248 0.33428 0.51442 0.0
C840 C 0.19462 0.34571 0.56113 0.0
C841 C 0.13557 0.35978 0.56439 0.0
C842 C 0.22814 0.37545 0.56351 0.0
C843 C 0.24547 0.38388 0.58715 0.0
C844 C 0.22963 0.36258 0.6088 0.0
C845 C 0.19783 0.33069 0.60558 0.0
C846 C 0.18033 0.32245 0.58193 0.0
H847 H 0.11657 0.36909 0.56163 0.0
H848 H 0.12335 0.3363 0.57705 0.0
H849 H 0.1591 0.38065 0.5744 0.0
H850 H 0.23969 0.39363 0.54762 0.0
H851 H 0.26993 0.40859 0.58898 0.0
H852 H 0.87161 0.27468 0.91882 0.0
H853 H 0.86102 0.24716 0.87662 0.0
H854 H 0.89442 0.17635 0.90462 0.0
H855 H 0.90487 0.20363 0.94713 0.0
H856 H 0.89783 0.22988 0.83966 0.0
H857 H 0.7889 0.1119 0.88714 0.0
H858 H 0.81188 0.15418 0.90282 0.0
H859 H 0.8324 0.12797 0.89957 0.0
C860 C 0.87792 0.25409 0.91582 0.0
C861 C 0.88863 0.24106 0.93647 0.0
C862 C 0.87173 0.23827 0.89166 0.0
C863 C 0.87602 0.20909 0.88769 0.0
C864 C 0.89031 0.19842 0.90745 0.0
H865 H 0.81296 0.11652 0.73307 0.0
H866 H 0.84335 0.1287 0.77442 0.0
C867 C 0.89669 0.21438 0.93167 0.0
C868 C 0.86151 0.18778 0.864 0.0
H869 H 0.79115 0.11143 0.84227 0.0
C870 C 0.87499 0.20365 0.84016 0.0
C871 C 0.83135 0.15374 0.86478 0.0
C872 C 0.81498 0.13586 0.88988 0.0
C873 C 0.85837 0.18703 0.8171 0.0
C874 C 0.82761 0.15343 0.81792 0.0
C875 C 0.81493 0.13696 0.84171 0.0
C876 C 0.80571 0.13762 0.79468 0.0
C877 C 0.87256 0.20652 0.79214 0.0
C878 C 0.77315 0.13591 0.79287 0.0
C879 C 0.75559 0.12871 0.76938 0.0
C880 C 0.77025 0.12298 0.74722 0.0
C881 C 0.80088 0.12076 0.74974 0.0
C882 C 0.81855 0.12816 0.7733 0.0
H883 H 0.89351 0.23429 0.79519 0.0
H884 H 0.88373 0.19321 0.7807 0.0
H885 H 0.85121 0.20634 0.7807 0.0
H886 H 0.76258 0.1428 0.80919 0.0
H887 H 0.73198 0.13046 0.76814 0.0
H888 H 0.57798 0.83519 0.26542 0.0
H889 H 0.58871 0.81879 0.22307 0.0
H890 H 0.69926 0.89264 0.23111 0.0
H891 H 0.68873 0.90935 0.27377 0.0
H892 H 0.66008 0.88138 0.17686 0.0
H893 H 0.64766 0.76341 0.22613 0.0
H894 H 0.61468 0.77468 0.23366 0.0
H895 H 0.6594 0.80385 0.2429 0.0
C896 C 0.60444 0.8489 0.25784 0.0
C897 C 0.63253 0.87342 0.27301 0.0
C898 C 0.61054 0.83933 0.2337 0.0
C899 C 0.64481 0.85403 0.22426 0.0
C900 C 0.67263 0.88091 0.2382 0.0
H901 H 0.68856 0.7892 0.07482 0.0
H902 H 0.7018 0.81704 0.11731 0.0
C903 C 0.66651 0.89066 0.26245 0.0
C904 C 0.65138 0.83834 0.20129 0.0
H905 H 0.6458 0.76195 0.18056 0.0
C906 C 0.65771 0.8556 0.17762 0.0
C907 C 0.64827 0.80473 0.2025 0.0
C908 C 0.64239 0.78555 0.22766 0.0
C909 C 0.65894 0.83915 0.1548 0.0
C910 C 0.65428 0.80479 0.15587 0.0
C911 C 0.64957 0.7883 0.17977 0.0
C912 C 0.64943 0.78389 0.13225 0.0
C913 C 0.66304 0.85774 0.12959 0.0
C914 C 0.61646 0.75436 0.12729 0.0
C915 C 0.60896 0.73823 0.10324 0.0
C916 C 0.63435 0.75122 0.08367 0.0
C917 C 0.66849 0.77845 0.08952 0.0
C918 C 0.67595 0.79474 0.11367 0.0
H919 H 0.66079 0.88168 0.13182 0.0
H920 H 0.68924 0.86583 0.12139 0.0
H921 H 0.64291 0.83985 0.11563 0.0
H922 H 0.59569 0.7453 0.14143 0.0
H923 H 0.58244 0.71727 0.09934 0.0
H924 H 0.78536 0.52789 0.40675 0.0
H925 H 0.76727 0.53029 0.45058 0.0
H926 H 0.86144 0.63051 0.46174 0.0
H927 H 0.88014 0.62795 0.41777 0.0
H928 H 0.84288 0.58778 0.50479 0.0
H929 H 0.72853 0.59462 0.46815 0.0
H930 H 0.72959 0.55667 0.45671 0.0
H931 H 0.76386 0.59999 0.44764 0.0
C932 C 0.8026 0.55014 0.41869 0.0
C933 C 0.83406 0.57788 0.40876 0.0
C934 C 0.79203 0.55163 0.44365 0.0
C935 C 0.81241 0.58112 0.45911 0.0
C936 C 0.84509 0.60772 0.44997 0.0
H937 H 0.73527 0.63336 0.5978 0.0
H938 H 0.75336 0.63168 0.55348 0.0
C939 C 0.85589 0.6061 0.42494 0.0
C940 C 0.79885 0.58444 0.48442 0.0
H941 H 0.72873 0.58372 0.51307 0.0
C942 C 0.81805 0.58712 0.50659 0.0
C943 C 0.76679 0.58439 0.48673 0.0
C944 C 0.74616 0.58414 0.46353 0.0
C945 C 0.8054 0.58834 0.53108 0.0
C946 C 0.77229 0.58605 0.53346 0.0
C947 C 0.75376 0.58482 0.51124 0.0
C948 C 0.75649 0.5845 0.55893 0.0
C949 C 0.8278 0.59234 0.55417 0.0
C950 C 0.75021 0.55742 0.57614 0.0
C951 C 0.73995 0.55833 0.60131 0.0
C952 C 0.73523 0.58609 0.6097 0.0
C953 C 0.73846 0.61153 0.59184 0.0
C954 C 0.7491 0.61076 0.5666 0.0
H955 H 0.85587 0.60393 0.54887 0.0
H956 H 0.82558 0.60923 0.56902 0.0
H957 H 0.81891 0.56603 0.56268 0.0
H958 H 0.7547 0.53631 0.57041 0.0
H959 H 0.73741 0.53821 0.6146 0.0
H960 H 0.17753 0.72301 0.9402 0.0
H961 H 0.19401 0.74492 0.89644 0.0
H962 H 0.11393 0.77379 0.89528 0.0
H963 H 0.09697 0.75152 0.93929 0.0
H964 H 0.12245 0.74512 0.84777 0.0
H965 H 0.24855 0.85304 0.88538 0.0
H966 H 0.23966 0.80997 0.8947 0.0
H967 H 0.2116 0.82593 0.90584 0.0
C968 C 0.1628 0.73322 0.93044 0.0
C969 C 0.13613 0.73581 0.94327 0.0
C970 C 0.17248 0.74603 0.90552 0.0
C971 C 0.15591 0.76194 0.89296 0.0
C972 C 0.12732 0.76197 0.90482 0.0
H973 H 0.2455 0.89552 0.75603 0.0
H974 H 0.22447 0.8759 0.8 0.0
C975 C 0.11745 0.74895 0.92986 0.0
C976 C 0.16991 0.78005 0.86809 0.0
H977 H 0.24459 0.84491 0.83991 0.0
C978 C 0.14901 0.76713 0.84606 0.0
C979 C 0.20436 0.80927 0.86599 0.0
C980 C 0.22727 0.82565 0.88926 0.0
C981 C 0.16227 0.78158 0.82177 0.0
C982 C 0.19749 0.8093 0.81948 0.0
C983 C 0.2178 0.82336 0.84167 0.0
C984 C 0.21398 0.82273 0.79407 0.0
C985 C 0.13851 0.76688 0.79872 0.0
C986 C 0.21682 0.79993 0.77673 0.0
C987 C 0.2289 0.81104 0.75184 0.0
C988 C 0.23868 0.84532 0.74376 0.0
C989 C 0.23832 0.86902 0.76172 0.0
C990 C 0.22604 0.85777 0.78675 0.0
H991 H 0.11039 0.75333 0.80431 0.0
H992 H 0.14356 0.78798 0.78473 0.0
H993 H 0.14351 0.74735 0.78903 0.0
H994 H 0.20858 0.77309 0.78221 0.0
H995 H 0.22917 0.79222 0.73855 0.0
H996 H 0.43224 0.1811 0.27165 0.0
H997 H 0.42383 0.19821 0.22883 0.0
H998 H 0.31568 0.115 0.22971 0.0
H999 H 0.32398 0.09754 0.27284 0.0
H1000 H 0.39695 0.15842 0.18106 0.0
H1001 H 0.31394 0.20966 0.22084 0.0
H1002 H 0.34193 0.20071 0.24096 0.0
H1003 H 0.30204 0.165 0.22832 0.0
C1004 C 0.40688 0.16583 0.26249 0.0
C1005 C 0.37876 0.138 0.2756 0.0
C1006 C 0.40208 0.17575 0.23807 0.0
C1007 C 0.36898 0.15833 0.22636 0.0
C1008 C 0.34131 0.12908 0.23863 0.0
H1009 H 0.31408 0.21879 0.0809 0.0
H1010 H 0.30861 0.19464 0.12418 0.0
C1011 C 0.34621 0.11884 0.26309 0.0
C1012 C 0.36363 0.17235 0.20194 0.0
H1013 H 0.32877 0.2202 0.17706 0.0
C1014 C 0.38174 0.17159 0.18009 0.0
C1015 C 0.34377 0.18953 0.20078 0.0
C1016 C 0.32438 0.1916 0.22394 0.0
C1017 C 0.38106 0.18808 0.15722 0.0
C1018 C 0.36249 0.20663 0.15636 0.0
C1019 C 0.34328 0.20632 0.1779 0.0
C1020 C 0.36373 0.22698 0.13325 0.0
C1021 C 0.40042 0.18565 0.13415 0.0
C1022 C 0.39596 0.25499 0.12487 0.0
C1023 C 0.39915 0.26883 0.10025 0.0
C1024 C 0.37005 0.25512 0.08367 0.0
C1025 C 0.3369 0.23013 0.09329 0.0
C1026 C 0.3338 0.21602 0.11793 0.0
H1027 H 0.4053 0.16325 0.1358 0.0
H1028 H 0.38553 0.18251 0.11621 0.0
H1029 H 0.42621 0.21021 0.1326 0.0
H1030 H 0.41924 0.26433 0.13664 0.0
H1031 H 0.425 0.2881 0.09338 0.0
loop_
_geom_bond_atom_site_label_1
_geom_bond_atom_site_label_2
_geom_bond_distance
_geom_bond_site_symmetry_2
_ccdc_geom_bond_type
O0 Cd1 2.223 . S
O0 C8 1.315 . S
Cd1 O0 2.223 . S
Cd1 O4 2.297 . S
Cd1 O5 2.439 . S
Cd1 O11 2.240 . S
Cd2 O3 2.240 . S
Cd2 O10 2.223 . S
Cd2 O12 2.297 . S
Cd2 O13 2.439 . S
O3 Cd2 2.240 . S
O3 C8 1.279 . S
O4 Cd1 2.297 . S
O4 C6 1.247 . S
O5 Cd1 2.439 . S
O5 C6 1.208 . S
C6 O4 1.247 . S
C6 O5 1.208 . S
C7 O12 1.247 . S
C7 O13 1.208 . S
C8 O0 1.315 . S
C8 O3 1.279 . S
C9 O10 1.315 . S
C9 O11 1.279 . S
O10 Cd2 2.223 . S
O10 C9 1.315 . S
O11 Cd1 2.240 . S
O11 C9 1.279 . S
O12 Cd2 2.297 . S
O12 C7 1.247 . S
O13 Cd2 2.439 . S
O13 C7 1.208 . S
O14 Cd15 2.223 . S
O14 C22 1.315 . S
Cd15 O14 2.223 . S
Cd15 O18 2.297 . S
Cd15 O19 2.439 . S
Cd15 O25 2.240 . S
Cd16 O17 2.240 . S
Cd16 O24 2.223 . S
Cd16 O26 2.297 . S
Cd16 O27 2.439 . S
O17 Cd16 2.240 . S
O17 C22 1.279 . S
O18 Cd15 2.297 . S
O18 C20 1.247 . S
O19 Cd15 2.439 . S
O19 C20 1.208 . S
C20 O18 1.247 . S
C20 O19 1.208 . S
C21 O26 1.247 . S
C21 O27 1.208 . S
C22 O14 1.315 . S
C22 O17 1.279 . S
C23 O24 1.315 . S
C23 O25 1.279 . S
O24 Cd16 2.223 . S
O24 C23 1.315 . S
O25 Cd15 2.240 . S
O25 C23 1.279 . S
O26 Cd16 2.297 . S
O26 C21 1.247 . S
O27 Cd16 2.439 . S
O27 C21 1.208 . S
O28 Cd29 2.223 . S
O28 C36 1.315 . S
Cd29 O28 2.223 . S
Cd29 O32 2.297 . S
Cd29 O33 2.439 1_554 S
Cd29 O39 2.240 1_554 S
Cd30 O31 2.240 . S
Cd30 O38 2.223 . S
Cd30 O40 2.297 1_554 S
Cd30 O41 2.439 1_554 S
O31 Cd30 2.240 . S
O31 C36 1.279 . S
O32 Cd29 2.297 . S
O32 C34 1.247 . S
O33 Cd29 2.439 1_556 S
O33 C34 1.208 1_556 S
C34 O32 1.247 . S
C34 O33 1.208 1_554 S
C35 O40 1.247 . S
C35 O41 1.208 . S
C36 O28 1.315 . S
C36 O31 1.279 . S
C37 O38 1.308 1_556 S
C37 O39 1.289 . S
O38 Cd30 2.223 . S
O38 C37 1.308 1_554 S
O39 Cd29 2.240 1_556 S
O39 C37 1.289 . S
O40 Cd30 2.297 1_556 S
O40 C35 1.247 . S
O41 Cd30 2.439 1_556 S
O41 C35 1.208 . S
O42 Cd43 2.223 . S
O42 C50 1.315 . S
Cd43 O42 2.223 . S
Cd43 O46 2.297 . S
Cd43 O47 2.439 . S
Cd43 O53 2.240 . S
Cd44 O45 2.240 . S
Cd44 O52 2.223 . S
Cd44 O54 2.297 . S
Cd44 O55 2.439 . S
O45 Cd44 2.240 . S
O45 C50 1.279 . S
O46 Cd43 2.297 . S
O46 C48 1.247 . S
O47 Cd43 2.439 . S
O47 C48 1.208 . S
C48 O46 1.247 . S
C48 O47 1.208 . S
C49 O54 1.247 . S
C49 O55 1.208 . S
C50 O42 1.315 . S
C50 O45 1.279 . S
C51 O52 1.315 . S
C51 O53 1.279 . S
O52 Cd44 2.223 . S
O52 C51 1.315 . S
O53 Cd43 2.240 . S
O53 C51 1.279 . S
O54 Cd44 2.297 . S
O54 C49 1.247 . S
O55 Cd44 2.439 . S
O55 C49 1.208 . S
O56 Cd57 2.223 . S
O56 C64 1.315 . S
Cd57 O56 2.223 . S
Cd57 O60 2.297 . S
Cd57 O61 2.439 . S
Cd57 O67 2.240 . S
Cd58 O59 2.240 . S
Cd58 O66 2.223 . S
Cd58 O68 2.297 . S
Cd58 O69 2.439 . S
O59 Cd58 2.240 . S
O59 C64 1.279 . S
O60 Cd57 2.297 . S
O60 C62 1.247 . S
O61 Cd57 2.439 . S
O61 C62 1.208 . S
C62 O60 1.247 . S
C62 O61 1.208 . S
C63 O68 1.247 . S
C63 O69 1.208 . S
C64 O56 1.315 . S
C64 O59 1.279 . S
C65 O66 1.315 . S
C65 O67 1.279 . S
O66 Cd58 2.223 . S
O66 C65 1.315 . S
O67 Cd57 2.240 . S
O67 C65 1.279 . S
O68 Cd58 2.297 . S
O68 C63 1.247 . S
O69 Cd58 2.439 . S
O69 C63 1.208 . S
O70 Cd71 2.223 . S
O70 C78 1.315 . S
Cd71 O70 2.223 . S
Cd71 O74 2.297 . S
Cd71 O75 2.439 1_554 S
Cd71 O81 2.240 1_554 S
Cd72 O73 2.240 . S
Cd72 O80 2.223 . S
Cd72 O82 2.297 1_554 S
Cd72 O83 2.439 1_554 S
O73 Cd72 2.240 . S
O73 C78 1.279 . S
O74 Cd71 2.297 . S
O74 C76 1.247 . S
O75 Cd71 2.439 1_556 S
O75 C76 1.208 1_556 S
C76 O74 1.247 . S
C76 O75 1.208 1_554 S
C77 O82 1.247 . S
C77 O83 1.208 . S
C78 O70 1.315 . S
C78 O73 1.279 . S
C79 O80 1.308 1_556 S
C79 O81 1.289 . S
O80 Cd72 2.223 . S
O80 C79 1.308 1_554 S
O81 Cd71 2.240 1_556 S
O81 C79 1.289 . S
O82 Cd72 2.297 1_556 S
O82 C77 1.247 . S
O83 Cd72 2.439 1_556 S
O83 C77 1.208 . S
O84 Cd85 2.223 . S
O84 C92 1.315 . S
Cd85 O84 2.223 . S
Cd85 O88 2.297 . S
Cd85 O89 2.439 . S
Cd85 O95 2.240 . S
Cd86 O87 2.240 . S
Cd86 O94 2.223 . S
Cd86 O96 2.297 . S
Cd86 O97 2.439 . S
O87 Cd86 2.240 . S
O87 C92 1.279 . S
O88 Cd85 2.297 . S
O88 C90 1.247 . S
O89 Cd85 2.439 . S
O89 C90 1.208 . S
C90 O88 1.247 . S
C90 O89 1.208 . S
C91 O96 1.247 . S
C91 O97 1.208 . S
C92 O84 1.315 . S
C92 O87 1.279 . S
C93 O94 1.315 . S
C93 O95 1.279 . S
O94 Cd86 2.223 . S
O94 C93 1.315 . S
O95 Cd85 2.240 . S
O95 C93 1.279 . S
O96 Cd86 2.297 . S
O96 C91 1.247 . S
O97 Cd86 2.439 . S
O97 C91 1.208 . S
O98 Cd99 2.223 . S
O98 C106 1.315 . S
Cd99 O98 2.223 . S
Cd99 O102 2.297 . S
Cd99 O103 2.439 . S
Cd99 O109 2.240 . S
Cd100 O101 2.240 . S
Cd100 O108 2.223 . S
Cd100 O110 2.297 . S
Cd100 O111 2.439 . S
O101 Cd100 2.240 . S
O101 C106 1.279 . S
O102 Cd99 2.297 . S
O102 C104 1.247 . S
O103 Cd99 2.439 . S
O103 C104 1.208 . S
C104 O102 1.247 . S
C104 O103 1.208 . S
C105 O110 1.247 . S
C105 O111 1.208 . S
C106 O98 1.315 . S
C106 O101 1.279 . S
C107 O108 1.315 . S
C107 O109 1.279 . S
O108 Cd100 2.223 . S
O108 C107 1.315 . S
O109 Cd99 2.240 . S
O109 C107 1.279 . S
O110 Cd100 2.297 . S
O110 C105 1.247 . S
O111 Cd100 2.439 . S
O111 C105 1.208 . S
O112 Cd113 2.223 . S
O112 C120 1.315 . S
Cd113 O112 2.223 . S
Cd113 O116 2.297 . S
Cd113 O117 2.439 1_556 S
Cd113 O123 2.240 1_556 S
Cd114 O115 2.240 . S
Cd114 O122 2.223 . S
Cd114 O124 2.297 1_556 S
Cd114 O125 2.439 1_556 S
O115 Cd114 2.240 . S
O115 C120 1.279 . S
O116 Cd113 2.297 . S
O116 C118 1.247 . S
O117 Cd113 2.439 1_554 S
O117 C118 1.208 1_554 S
C118 O116 1.247 . S
C118 O117 1.208 1_556 S
C119 O124 1.247 . S
C119 O125 1.208 . S
C120 O112 1.315 . S
C120 O115 1.279 . S
C121 O122 1.308 1_554 S
C121 O123 1.289 . S
O122 Cd114 2.223 . S
O122 C121 1.308 1_556 S
O123 Cd113 2.240 1_554 S
O123 C121 1.289 . S
O124 Cd114 2.297 1_554 S
O124 C119 1.247 . S
O125 Cd114 2.439 1_554 S
O125 C119 1.208 . S
O126 Cd127 2.223 . S
O126 C134 1.315 . S
Cd127 O126 2.223 . S
Cd127 O130 2.297 . S
Cd127 O131 2.439 . S
Cd127 O137 2.240 . S
Cd128 O129 2.240 . S
Cd128 O136 2.223 . S
Cd128 O138 2.297 . S
Cd128 O139 2.439 . S
O129 Cd128 2.240 . S
O129 C134 1.279 . S
O130 Cd127 2.297 . S
O130 C132 1.247 . S
O131 Cd127 2.439 . S
O131 C132 1.208 . S
C132 O130 1.247 . S
C132 O131 1.208 . S
C133 O138 1.247 . S
C133 O139 1.208 . S
C134 O126 1.315 . S
C134 O129 1.279 . S
C135 O136 1.315 . S
C135 O137 1.279 . S
O136 Cd128 2.223 . S
O136 C135 1.315 . S
O137 Cd127 2.240 . S
O137 C135 1.279 . S
O138 Cd128 2.297 . S
O138 C133 1.247 . S
O139 Cd128 2.439 . S
O139 C133 1.208 . S
O140 Cd141 2.223 . S
O140 C148 1.315 . S
Cd141 O140 2.223 . S
Cd141 O144 2.297 . S
Cd141 O145 2.439 . S
Cd141 O151 2.240 . S
Cd142 O143 2.240 . S
Cd142 O150 2.223 . S
Cd142 O152 2.297 . S
Cd142 O153 2.439 . S
O143 Cd142 2.240 . S
O143 C148 1.279 . S
O144 Cd141 2.297 . S
O144 C146 1.247 . S
O145 Cd141 2.439 . S
O145 C146 1.208 . S
C146 O144 1.247 . S
C146 O145 1.208 . S
C147 O152 1.247 . S
C147 O153 1.208 . S
C148 O140 1.315 . S
C148 O143 1.279 . S
C149 O150 1.315 . S
C149 O151 1.279 . S
O150 Cd142 2.223 . S
O150 C149 1.315 . S
O151 Cd141 2.240 . S
O151 C149 1.279 . S
O152 Cd142 2.297 . S
O152 C147 1.247 . S
O153 Cd142 2.439 . S
O153 C147 1.208 . S
O154 Cd155 2.223 . S
O154 C162 1.315 . S
Cd155 O154 2.223 . S
Cd155 O158 2.297 . S
Cd155 O159 2.439 1_556 S
Cd155 O165 2.240 1_556 S
Cd156 O157 2.240 . S
Cd156 O164 2.223 . S
Cd156 O166 2.297 1_556 S
Cd156 O167 2.439 1_556 S
O157 Cd156 2.240 . S
O157 C162 1.279 . S
O158 Cd155 2.297 . S
O158 C160 1.247 . S
O159 Cd155 2.439 1_554 S
O159 C160 1.208 1_554 S
C160 O158 1.247 . S
C160 O159 1.208 1_556 S
C161 O166 1.247 . S
C161 O167 1.208 . S
C162 O154 1.315 . S
C162 O157 1.279 . S
C163 O164 1.308 1_554 S
C163 O165 1.289 . S
O164 Cd156 2.223 . S
O164 C163 1.308 1_556 S
O165 Cd155 2.240 1_554 S
O165 C163 1.289 . S
O166 Cd156 2.297 1_554 S
O166 C161 1.247 . S
O167 Cd156 2.439 1_554 S
O167 C161 1.208 . S
H168 C176 0.929 . S
H169 C178 0.930 . S
H170 C180 0.930 . S
H171 C183 0.929 . S
H172 C186 0.930 . S
H173 C188 0.960 . S
H174 C188 0.960 . S
H175 C188 0.960 . S
C176 H168 0.929 . S
C176 C177 1.377 . S
C176 C178 1.384 . S
C177 C176 1.377 . S
C177 C183 1.390 . S
C178 H169 0.930 . S
C178 C176 1.384 . S
C178 C179 1.372 . S
C179 C178 1.372 . S
C179 C180 1.400 . S
C179 C184 1.490 . S
C180 H170 0.930 . S
C180 C179 1.400 . S
C180 C183 1.386 . S
H181 C197 0.930 . S
H182 C198 0.931 . S
C183 H171 0.929 . S
C183 C177 1.390 . S
C183 C180 1.386 . S
C184 C179 1.490 . S
C184 C186 1.395 . S
C184 C187 1.403 . S
H185 C191 0.930 . S
C186 H172 0.930 . S
C186 C184 1.395 . S
C186 C189 1.403 . S
C187 C184 1.403 . S
C187 C188 1.524 . S
C187 C191 1.400 . S
C188 H173 0.960 . S
C188 H174 0.960 . S
C188 H175 0.960 . S
C188 C187 1.524 . S
C189 C186 1.403 . S
C189 C190 1.392 . S
C189 C193 1.495 . S
C190 C189 1.392 . S
C190 C191 1.385 . S
C190 C192 1.478 . S
C191 H185 0.930 . S
C191 C187 1.400 . S
C191 C190 1.385 . S
C192 C190 1.478 . S
C192 C194 1.381 . S
C192 C198 1.383 . S
C193 C189 1.495 . S
C193 H199 0.959 . S
C193 H200 0.961 . S
C193 H201 0.960 . S
C194 C192 1.381 . S
C194 C195 1.394 . S
C194 H202 0.930 . S
C195 C194 1.394 . S
C195 C196 1.383 . S
C195 H203 0.929 . S
C196 C195 1.383 . S
C196 C197 1.377 . S
C197 H181 0.930 . S
C197 C196 1.377 . S
C197 C198 1.379 . S
C198 H182 0.931 . S
C198 C192 1.383 . S
C198 C197 1.379 . S
H199 C193 0.959 . S
H200 C193 0.961 . S
H201 C193 0.960 . S
H202 C194 0.930 . S
H203 C195 0.929 . S
H204 C212 0.929 . S
H205 C214 0.930 . S
H206 C216 0.930 . S
H207 C219 0.929 . S
H208 C222 0.930 . S
H209 C224 0.960 . S
H210 C224 0.960 . S
H211 C224 0.960 . S
C212 H204 0.929 . S
C212 C213 1.377 . S
C212 C214 1.384 . S
C213 C212 1.377 . S
C213 C219 1.390 . S
C214 H205 0.930 . S
C214 C212 1.384 . S
C214 C215 1.372 . S
C215 C214 1.372 . S
C215 C216 1.400 . S
C215 C220 1.490 . S
C216 H206 0.930 . S
C216 C215 1.400 . S
C216 C219 1.386 . S
H217 C233 0.930 . S
H218 C234 0.931 . S
C219 H207 0.929 . S
C219 C213 1.390 . S
C219 C216 1.386 . S
C220 C215 1.490 . S
C220 C222 1.395 . S
C220 C223 1.403 . S
H221 C227 0.930 . S
C222 H208 0.930 . S
C222 C220 1.395 . S
C222 C225 1.403 . S
C223 C220 1.403 . S
C223 C224 1.524 . S
C223 C227 1.400 . S
C224 H209 0.960 . S
C224 H210 0.960 . S
C224 H211 0.960 . S
C224 C223 1.524 . S
C225 C222 1.403 . S
C225 C226 1.392 . S
C225 C229 1.495 . S
C226 C225 1.392 . S
C226 C227 1.385 . S
C226 C228 1.478 . S
C227 H221 0.930 . S
C227 C223 1.400 . S
C227 C226 1.385 . S
C228 C226 1.478 . S
C228 C230 1.381 . S
C228 C234 1.383 . S
C229 C225 1.495 . S
C229 H235 0.959 . S
C229 H236 0.961 . S
C229 H237 0.960 . S
C230 C228 1.381 . S
C230 C231 1.394 . S
C230 H238 0.930 . S
C231 C230 1.394 . S
C231 C232 1.383 . S
C231 H239 0.929 . S
C232 C231 1.383 . S
C232 C233 1.377 . S
C233 H217 0.930 . S
C233 C232 1.377 . S
C233 C234 1.379 . S
C234 H218 0.931 . S
C234 C228 1.383 . S
C234 C233 1.379 . S
H235 C229 0.959 . S
H236 C229 0.961 . S
H237 C229 0.960 . S
H238 C230 0.930 . S
H239 C231 0.929 . S
H240 C248 0.929 . S
H241 C250 0.930 . S
H242 C252 0.930 . S
H243 C255 0.929 . S
H244 C258 0.930 . S
H245 C260 0.960 . S
H246 C260 0.960 . S
H247 C260 0.960 . S
C248 H240 0.929 . S
C248 C249 1.365 1_556 S
C248 C250 1.384 . S
C249 C248 1.365 1_554 S
C249 C255 1.402 . S
C250 H241 0.930 . S
C250 C248 1.384 . S
C250 C251 1.388 . S
C251 C250 1.388 . S
C251 C252 1.383 1_556 S
C251 C256 1.491 . S
C252 H242 0.930 . S
C252 C251 1.383 1_554 S
C252 C255 1.386 . S
H253 C269 0.930 . S
H254 C270 0.931 . S
C255 H243 0.929 . S
C255 C249 1.402 . S
C255 C252 1.386 . S
C256 C251 1.491 . S
C256 C258 1.395 . S
C256 C259 1.403 1_556 S
H257 C263 0.930 . S
C258 H244 0.930 . S
C258 C256 1.395 . S
C258 C261 1.403 . S
C259 C256 1.403 1_554 S
C259 C260 1.524 . S
C259 C263 1.400 . S
C260 H245 0.960 . S
C260 H246 0.960 . S
C260 H247 0.960 . S
C260 C259 1.524 . S
C261 C258 1.403 . S
C261 C262 1.392 . S
C261 C265 1.495 . S
C262 C261 1.392 . S
C262 C263 1.385 1_556 S
C262 C264 1.478 . S
C263 H257 0.930 . S
C263 C259 1.400 . S
C263 C262 1.385 1_554 S
C264 C262 1.478 . S
C264 C266 1.381 . S
C264 C270 1.383 1_556 S
C265 C261 1.495 . S
C265 H271 0.959 . S
C265 H272 0.961 . S
C265 H273 0.960 . S
C266 C264 1.381 . S
C266 C267 1.394 . S
C266 H274 0.930 . S
C267 C266 1.394 . S
C267 C268 1.383 . S
C267 H275 0.929 . S
C268 C267 1.383 . S
C268 C269 1.377 1_556 S
C269 H253 0.930 . S
C269 C268 1.377 1_554 S
C269 C270 1.379 . S
C270 H254 0.931 . S
C270 C264 1.383 1_554 S
C270 C269 1.379 . S
H271 C265 0.959 . S
H272 C265 0.961 . S
H273 C265 0.960 . S
H274 C266 0.930 . S
H275 C267 0.929 . S
H276 C284 0.929 . S
H277 C286 0.930 . S
H278 C288 0.930 . S
H279 C291 0.929 . S
H280 C294 0.930 . S
H281 C296 0.960 . S
H282 C296 0.960 . S
H283 C296 0.960 . S
C284 H276 0.929 . S
C284 C285 1.377 . S
C284 C286 1.384 . S
C285 C284 1.377 . S
C285 C291 1.390 . S
C286 H277 0.930 . S
C286 C284 1.384 . S
C286 C287 1.372 . S
C287 C286 1.372 . S
C287 C288 1.400 . S
C287 C292 1.490 . S
C288 H278 0.930 . S
C288 C287 1.400 . S
C288 C291 1.386 . S
H289 C305 0.930 . S
H290 C306 0.931 . S
C291 H279 0.929 . S
C291 C285 1.390 . S
C291 C288 1.386 . S
C292 C287 1.490 . S
C292 C294 1.395 . S
C292 C295 1.403 . S
H293 C299 0.930 . S
C294 H280 0.930 . S
C294 C292 1.395 . S
C294 C297 1.403 . S
C295 C292 1.403 . S
C295 C296 1.524 . S
C295 C299 1.400 . S
C296 H281 0.960 . S
C296 H282 0.960 . S
C296 H283 0.960 . S
C296 C295 1.524 . S
C297 C294 1.403 . S
C297 C298 1.392 . S
C297 C301 1.495 . S
C298 C297 1.392 . S
C298 C299 1.385 . S
C298 C300 1.478 . S
C299 H293 0.930 . S
C299 C295 1.400 . S
C299 C298 1.385 . S
C300 C298 1.478 . S
C300 C302 1.381 . S
C300 C306 1.383 . S
C301 C297 1.495 . S
C301 H307 0.959 . S
C301 H308 0.961 . S
C301 H309 0.960 . S
C302 C300 1.381 . S
C302 C303 1.394 . S
C302 H310 0.930 . S
C303 C302 1.394 . S
C303 C304 1.383 . S
C303 H311 0.929 . S
C304 C303 1.383 . S
C304 C305 1.377 . S
C305 H289 0.930 . S
C305 C304 1.377 . S
C305 C306 1.379 . S
C306 H290 0.931 . S
C306 C300 1.383 . S
C306 C305 1.379 . S
H307 C301 0.959 . S
H308 C301 0.961 . S
H309 C301 0.960 . S
H310 C302 0.930 . S
H311 C303 0.929 . S
H312 C320 0.929 . S
H313 C322 0.930 . S
H314 C324 0.930 . S
H315 C327 0.929 . S
H316 C330 0.930 . S
H317 C332 0.960 . S
H318 C332 0.960 . S
H319 C332 0.960 . S
C320 H312 0.929 . S
C320 C321 1.377 . S
C320 C322 1.384 . S
C321 C320 1.377 . S
C321 C327 1.390 . S
C322 H313 0.930 . S
C322 C320 1.384 . S
C322 C323 1.372 . S
C323 C322 1.372 . S
C323 C324 1.400 . S
C323 C328 1.490 . S
C324 H314 0.930 . S
C324 C323 1.400 . S
C324 C327 1.386 . S
H325 C341 0.930 . S
H326 C342 0.931 . S
C327 H315 0.929 . S
C327 C321 1.390 . S
C327 C324 1.386 . S
C328 C323 1.490 . S
C328 C330 1.395 . S
C328 C331 1.403 . S
H329 C335 0.930 . S
C330 H316 0.930 . S
C330 C328 1.395 . S
C330 C333 1.403 . S
C331 C328 1.403 . S
C331 C332 1.524 . S
C331 C335 1.400 . S
C332 H317 0.960 . S
C332 H318 0.960 . S
C332 H319 0.960 . S
C332 C331 1.524 . S
C333 C330 1.403 . S
C333 C334 1.392 . S
C333 C337 1.495 . S
C334 C333 1.392 . S
C334 C335 1.385 . S
C334 C336 1.478 . S
C335 H329 0.930 . S
C335 C331 1.400 . S
C335 C334 1.385 . S
C336 C334 1.478 . S
C336 C338 1.381 . S
C336 C342 1.383 . S
C337 C333 1.495 . S
C337 H343 0.959 . S
C337 H344 0.961 . S
C337 H345 0.960 . S
C338 C336 1.381 . S
C338 C339 1.394 . S
C338 H346 0.930 . S
C339 C338 1.394 . S
C339 C340 1.383 . S
C339 H347 0.929 . S
C340 C339 1.383 . S
C340 C341 1.377 . S
C341 H325 0.930 . S
C341 C340 1.377 . S
C341 C342 1.379 . S
C342 H326 0.931 . S
C342 C336 1.383 . S
C342 C341 1.379 . S
H343 C337 0.959 . S
H344 C337 0.961 . S
H345 C337 0.960 . S
H346 C338 0.930 . S
H347 C339 0.929 . S
H348 C356 0.929 . S
H349 C358 0.930 . S
H350 C360 0.930 . S
H351 C363 0.929 . S
H352 C366 0.930 . S
H353 C368 0.960 . S
H354 C368 0.960 1_554 S
H355 C368 0.960 . S
C356 H348 0.929 . S
C356 C357 1.376 1_554 S
C356 C358 1.384 . S
C357 C356 1.376 1_556 S
C357 C363 1.391 . S
C358 H349 0.930 . S
C358 C356 1.384 . S
C358 C359 1.372 . S
C359 C358 1.372 . S
C359 C360 1.400 1_554 S
C359 C364 1.490 . S
C360 H350 0.930 . S
C360 C359 1.400 1_556 S
C360 C363 1.386 . S
H361 C377 0.930 . S
H362 C378 0.931 . S
C363 H351 0.929 . S
C363 C357 1.391 . S
C363 C360 1.386 . S
C364 C359 1.490 . S
C364 C366 1.395 . S
C364 C367 1.403 1_554 S
H365 C371 0.930 . S
C366 H352 0.930 . S
C366 C364 1.395 . S
C366 C369 1.403 . S
C367 C364 1.403 1_556 S
C367 C368 1.524 . S
C367 C371 1.400 . S
C368 H353 0.960 . S
C368 H354 0.960 1_556 S
C368 H355 0.960 . S
C368 C367 1.524 . S
C369 C366 1.403 . S
C369 C370 1.392 . S
C369 C373 1.495 . S
C370 C369 1.392 . S
C370 C371 1.385 1_554 S
C370 C372 1.478 . S
C371 H365 0.930 . S
C371 C367 1.400 . S
C371 C370 1.385 1_556 S
C372 C370 1.478 . S
C372 C374 1.381 . S
C372 C378 1.383 1_554 S
C373 C369 1.495 . S
C373 H379 0.959 . S
C373 H380 0.961 . S
C373 H381 0.960 . S
C374 C372 1.381 . S
C374 C375 1.394 . S
C374 H382 0.930 . S
C375 C374 1.394 . S
C375 C376 1.423 . S
C375 H383 0.929 . S
C376 C375 1.423 . S
C376 C377 1.338 1_554 S
C377 H361 0.930 . S
C377 C376 1.338 1_556 S
C377 C378 1.379 . S
C378 H362 0.931 . S
C378 C372 1.383 1_556 S
C378 C377 1.379 . S
H379 C373 0.959 . S
H380 C373 0.961 . S
H381 C373 0.960 . S
H382 C374 0.930 . S
H383 C375 0.929 . S
H384 C392 0.929 . S
H385 C394 0.930 . S
H386 C396 0.930 . S
H387 C399 0.929 . S
H388 C402 0.930 . S
H389 C404 0.960 . S
H390 C404 0.960 . S
H391 C404 0.960 . S
C392 H384 0.929 . S
C392 C393 1.377 . S
C392 C394 1.384 . S
C393 C392 1.377 . S
C393 C399 1.390 . S
C394 H385 0.930 . S
C394 C392 1.384 . S
C394 C395 1.372 . S
C395 C394 1.372 . S
C395 C396 1.400 . S
C395 C400 1.490 . S
C396 H386 0.930 . S
C396 C395 1.400 . S
C396 C399 1.386 . S
H397 C413 0.930 . S
H398 C414 0.931 . S
C399 H387 0.929 . S
C399 C393 1.390 . S
C399 C396 1.386 . S
C400 C395 1.490 . S
C400 C402 1.395 . S
C400 C403 1.403 . S
H401 C407 0.930 . S
C402 H388 0.930 . S
C402 C400 1.395 . S
C402 C405 1.403 . S
C403 C400 1.403 . S
C403 C404 1.524 . S
C403 C407 1.400 . S
C404 H389 0.960 . S
C404 H390 0.960 . S
C404 H391 0.960 . S
C404 C403 1.524 . S
C405 C402 1.403 . S
C405 C406 1.392 . S
C405 C409 1.495 . S
C406 C405 1.392 . S
C406 C407 1.385 . S
C406 C408 1.478 . S
C407 H401 0.930 . S
C407 C403 1.400 . S
C407 C406 1.385 . S
C408 C406 1.478 . S
C408 C410 1.381 . S
C408 C414 1.383 . S
C409 C405 1.495 . S
C409 H415 0.959 . S
C409 H416 0.961 . S
C409 H417 0.960 . S
C410 C408 1.381 . S
C410 C411 1.394 . S
C410 H418 0.930 . S
C411 C410 1.394 . S
C411 C412 1.383 . S
C411 H419 0.929 . S
C412 C411 1.383 . S
C412 C413 1.377 . S
C413 H397 0.930 . S
C413 C412 1.377 . S
C413 C414 1.379 . S
C414 H398 0.931 . S
C414 C408 1.383 . S
C414 C413 1.379 . S
H415 C409 0.959 . S
H416 C409 0.961 . S
H417 C409 0.960 . S
H418 C410 0.930 . S
H419 C411 0.929 . S
H420 C428 0.929 . S
H421 C430 0.930 . S
H422 C432 0.930 . S
H423 C435 0.929 . S
H424 C438 0.930 . S
H425 C440 0.960 . S
H426 C440 0.960 . S
H427 C440 0.960 . S
C428 H420 0.929 . S
C428 C429 1.377 . S
C428 C430 1.384 . S
C429 C428 1.377 . S
C429 C435 1.390 . S
C430 H421 0.930 . S
C430 C428 1.384 . S
C430 C431 1.372 . S
C431 C430 1.372 . S
C431 C432 1.400 . S
C431 C436 1.490 . S
C432 H422 0.930 . S
C432 C431 1.400 . S
C432 C435 1.386 . S
H433 C449 0.930 . S
H434 C450 0.931 . S
C435 H423 0.929 . S
C435 C429 1.390 . S
C435 C432 1.386 . S
C436 C431 1.490 . S
C436 C438 1.395 . S
C436 C439 1.403 . S
H437 C443 0.930 . S
C438 H424 0.930 . S
C438 C436 1.395 . S
C438 C441 1.403 1_655 S
C439 C436 1.403 . S
C439 C440 1.524 . S
C439 C443 1.400 1_655 S
C440 H425 0.960 . S
C440 H426 0.960 . S
C440 H427 0.960 . S
C440 C439 1.524 . S
C441 C438 1.403 1_455 S
C441 C442 1.392 . S
C441 C445 1.495 . S
C442 C441 1.392 . S
C442 C443 1.385 . S
C442 C444 1.478 . S
C443 H437 0.930 . S
C443 C439 1.400 1_455 S
C443 C442 1.385 . S
C444 C442 1.478 . S
C444 C446 1.381 . S
C444 C450 1.383 . S
C445 C441 1.495 . S
C445 H451 0.959 . S
C445 H452 0.961 . S
C445 H453 0.960 . S
C446 C444 1.381 . S
C446 C447 1.394 . S
C446 H454 0.930 . S
C447 C446 1.394 . S
C447 C448 1.383 . S
C447 H455 0.929 . S
C448 C447 1.383 . S
C448 C449 1.377 . S
C449 H433 0.930 . S
C449 C448 1.377 . S
C449 C450 1.379 . S
C450 H434 0.931 . S
C450 C444 1.383 . S
C450 C449 1.379 . S
H451 C445 0.959 . S
H452 C445 0.961 . S
H453 C445 0.960 . S
H454 C446 0.930 . S
H455 C447 0.929 . S
H456 C464 0.929 . S
H457 C466 0.930 . S
H458 C468 0.930 . S
H459 C471 0.929 . S
H460 C474 0.930 . S
H461 C476 0.960 . S
H462 C476 0.960 . S
H463 C476 0.960 . S
C464 H456 0.929 . S
C464 C465 1.379 . S
C464 C466 1.384 . S
C465 C464 1.379 . S
C465 C471 1.389 1_554 S
C466 H457 0.930 . S
C466 C464 1.384 . S
C466 C467 1.374 . S
C467 C466 1.374 . S
C467 C468 1.398 1_554 S
C467 C472 1.489 1_554 S
C468 H458 0.930 . S
C468 C467 1.398 1_556 S
C468 C471 1.386 . S
H469 C485 0.930 . S
H470 C486 0.931 . S
C471 H459 0.929 . S
C471 C465 1.389 1_556 S
C471 C468 1.386 . S
C472 C467 1.489 1_556 S
C472 C474 1.402 . S
C472 C475 1.396 1_556 S
H473 C479 0.930 . S
C474 H460 0.930 . S
C474 C472 1.402 . S
C474 C477 1.403 1_545 S
C475 C472 1.396 1_554 S
C475 C476 1.524 . S
C475 C479 1.400 1_545 S
C476 H461 0.960 . S
C476 H462 0.960 . S
C476 H463 0.960 . S
C476 C475 1.524 . S
C477 C474 1.403 1_565 S
C477 C478 1.392 . S
C477 C481 1.495 . S
C478 C477 1.392 . S
C478 C479 1.385 1_556 S
C478 C480 1.478 . S
C479 H473 0.930 . S
C479 C475 1.400 1_565 S
C479 C478 1.385 1_554 S
C480 C478 1.478 . S
C480 C482 1.381 1_556 S
C480 C486 1.383 . S
C481 C477 1.495 . S
C481 H487 0.959 . S
C481 H488 0.961 . S
C481 H489 0.960 . S
C482 C480 1.381 1_554 S
C482 C483 1.394 . S
C482 H490 0.930 . S
C483 C482 1.394 . S
C483 C484 1.383 1_554 S
C483 H491 0.929 . S
C484 C483 1.383 1_556 S
C484 C485 1.377 . S
C485 H469 0.930 . S
C485 C484 1.377 . S
C485 C486 1.379 . S
C486 H470 0.931 . S
C486 C480 1.383 . S
C486 C485 1.379 . S
H487 C481 0.959 . S
H488 C481 0.961 . S
H489 C481 0.960 . S
H490 C482 0.930 . S
H491 C483 0.929 . S
H492 C500 0.929 . S
H493 C502 0.930 . S
H494 C504 0.930 . S
H495 C507 0.929 . S
H496 C510 0.930 . S
H497 C512 0.960 . S
H498 C512 0.960 . S
H499 C512 0.960 . S
C500 H492 0.929 . S
C500 C501 1.377 . S
C500 C502 1.384 . S
C501 C500 1.377 . S
C501 C507 1.390 . S
C502 H493 0.930 . S
C502 C500 1.384 . S
C502 C503 1.372 . S
C503 C502 1.372 . S
C503 C504 1.400 . S
C503 C508 1.490 . S
C504 H494 0.930 . S
C504 C503 1.400 . S
C504 C507 1.386 . S
H505 C521 0.930 . S
H506 C522 0.931 . S
C507 H495 0.929 . S
C507 C501 1.390 . S
C507 C504 1.386 . S
C508 C503 1.490 . S
C508 C510 1.395 . S
C508 C511 1.403 . S
H509 C515 0.930 . S
C510 H496 0.930 . S
C510 C508 1.395 . S
C510 C513 1.403 . S
C511 C508 1.403 . S
C511 C512 1.524 . S
C511 C515 1.400 . S
C512 H497 0.960 . S
C512 H498 0.960 . S
C512 H499 0.960 . S
C512 C511 1.524 . S
C513 C510 1.403 . S
C513 C514 1.392 . S
C513 C517 1.495 . S
C514 C513 1.392 . S
C514 C515 1.385 . S
C514 C516 1.478 . S
C515 H509 0.930 . S
C515 C511 1.400 . S
C515 C514 1.385 . S
C516 C514 1.478 . S
C516 C518 1.381 . S
C516 C522 1.383 . S
C517 C513 1.495 . S
C517 H523 0.959 . S
C517 H524 0.961 . S
C517 H525 0.960 . S
C518 C516 1.381 . S
C518 C519 1.394 . S
C518 H526 0.930 . S
C519 C518 1.394 . S
C519 C520 1.383 . S
C519 H527 0.929 . S
C520 C519 1.383 . S
C520 C521 1.377 . S
C521 H505 0.930 . S
C521 C520 1.377 . S
C521 C522 1.379 . S
C522 H506 0.931 . S
C522 C516 1.383 . S
C522 C521 1.379 . S
H523 C517 0.959 . S
H524 C517 0.961 . S
H525 C517 0.960 . S
H526 C518 0.930 . S
H527 C519 0.929 . S
H528 C536 0.929 . S
H529 C538 0.930 . S
H530 C540 0.930 . S
H531 C543 0.929 . S
H532 C546 0.930 . S
H533 C548 0.960 . S
H534 C548 0.960 . S
H535 C548 0.960 . S
C536 H528 0.929 . S
C536 C537 1.377 . S
C536 C538 1.384 . S
C537 C536 1.377 . S
C537 C543 1.390 . S
C538 H529 0.930 . S
C538 C536 1.384 . S
C538 C539 1.372 . S
C539 C538 1.372 . S
C539 C540 1.400 . S
C539 C544 1.490 . S
C540 H530 0.930 . S
C540 C539 1.400 . S
C540 C543 1.386 . S
H541 C557 0.930 . S
H542 C558 0.931 . S
C543 H531 0.929 . S
C543 C537 1.390 . S
C543 C540 1.386 . S
C544 C539 1.490 . S
C544 C546 1.395 . S
C544 C547 1.403 . S
H545 C551 0.930 . S
C546 H532 0.930 . S
C546 C544 1.395 . S
C546 C549 1.403 1_455 S
C547 C544 1.403 . S
C547 C548 1.524 . S
C547 C551 1.400 1_455 S
C548 H533 0.960 . S
C548 H534 0.960 . S
C548 H535 0.960 . S
C548 C547 1.524 . S
C549 C546 1.403 1_655 S
C549 C550 1.392 . S
C549 C553 1.495 . S
C550 C549 1.392 . S
C550 C551 1.385 . S
C550 C552 1.478 . S
C551 H545 0.930 . S
C551 C547 1.400 1_655 S
C551 C550 1.385 . S
C552 C550 1.478 . S
C552 C554 1.381 . S
C552 C558 1.383 . S
C553 C549 1.495 . S
C553 H559 0.959 . S
C553 H560 0.961 . S
C553 H561 0.960 . S
C554 C552 1.381 . S
C554 C555 1.394 . S
C554 H562 0.930 . S
C555 C554 1.394 . S
C555 C556 1.383 . S
C555 H563 0.929 . S
C556 C555 1.383 . S
C556 C557 1.377 . S
C557 H541 0.930 . S
C557 C556 1.377 . S
C557 C558 1.379 . S
C558 H542 0.931 . S
C558 C552 1.383 . S
C558 C557 1.379 . S
H559 C553 0.959 . S
H560 C553 0.961 . S
H561 C553 0.960 . S
H562 C554 0.930 . S
H563 C555 0.929 . S
H564 C572 0.929 . S
H565 C574 0.930 . S
H566 C576 0.930 . S
H567 C579 0.929 . S
H568 C582 0.930 . S
H569 C584 0.960 . S
H570 C584 0.960 . S
H571 C584 0.960 . S
C572 H564 0.929 . S
C572 C573 1.381 . S
C572 C574 1.384 . S
C573 C572 1.381 . S
C573 C579 1.386 1_556 S
C574 H565 0.930 . S
C574 C572 1.384 . S
C574 C575 1.372 . S
C575 C574 1.372 . S
C575 C576 1.400 1_556 S
C575 C580 1.490 . S
C576 H566 0.930 . S
C576 C575 1.400 1_554 S
C576 C579 1.386 . S
H577 C593 0.930 . S
H578 C594 0.931 . S
C579 H567 0.929 . S
C579 C573 1.386 1_554 S
C579 C576 1.386 . S
C580 C575 1.490 . S
C580 C582 1.395 . S
C580 C583 1.403 1_556 S
H581 C587 0.930 . S
C582 H568 0.930 . S
C582 C580 1.395 . S
C582 C585 1.403 1_545 S
C583 C580 1.403 1_554 S
C583 C584 1.524 . S
C583 C587 1.400 1_545 S
C584 H569 0.960 . S
C584 H570 0.960 . S
C584 H571 0.960 . S
C584 C583 1.524 . S
C585 C582 1.403 1_565 S
C585 C586 1.392 . S
C585 C589 1.495 . S
C586 C585 1.392 . S
C586 C587 1.385 1_556 S
C586 C588 1.478 . S
C587 H581 0.930 . S
C587 C583 1.400 1_565 S
C587 C586 1.385 1_554 S
C588 C586 1.478 . S
C588 C590 1.381 . S
C588 C594 1.383 1_556 S
C589 C585 1.495 . S
C589 H595 0.959 . S
C589 H596 0.961 . S
C589 H597 0.960 . S
C590 C588 1.381 . S
C590 C591 1.394 . S
C590 H598 0.930 . S
C591 C590 1.394 . S
C591 C592 1.383 . S
C591 H599 0.929 . S
C592 C591 1.383 . S
C592 C593 1.377 1_556 S
C593 H577 0.930 . S
C593 C592 1.377 1_554 S
C593 C594 1.379 . S
C594 H578 0.931 . S
C594 C588 1.383 1_554 S
C594 C593 1.379 . S
H595 C589 0.959 . S
H596 C589 0.961 . S
H597 C589 0.960 . S
H598 C590 0.930 . S
H599 C591 0.929 . S
H600 C608 0.929 . S
H601 C610 0.930 . S
H602 C612 0.930 . S
H603 C615 0.929 . S
H604 C618 0.930 . S
H605 C620 0.960 . S
H606 C620 0.960 . S
H607 C620 0.960 . S
C608 H600 0.929 . S
C608 C609 1.377 . S
C608 C610 1.384 . S
C609 C608 1.377 . S
C609 C615 1.390 . S
C610 H601 0.930 . S
C610 C608 1.384 . S
C610 C611 1.372 . S
C611 C610 1.372 . S
C611 C612 1.400 . S
C611 C616 1.490 . S
C612 H602 0.930 . S
C612 C611 1.400 . S
C612 C615 1.386 . S
H613 C629 0.930 . S
H614 C630 0.931 . S
C615 H603 0.929 . S
C615 C609 1.390 . S
C615 C612 1.386 . S
C616 C611 1.490 . S
C616 C618 1.395 . S
C616 C619 1.403 1_655 S
H617 C623 0.930 . S
C618 H604 0.930 . S
C618 C616 1.395 . S
C618 C621 1.403 . S
C619 C616 1.403 1_455 S
C619 C620 1.524 . S
C619 C623 1.400 . S
C620 H605 0.960 . S
C620 H606 0.960 . S
C620 H607 0.960 . S
C620 C619 1.524 . S
C621 C618 1.403 . S
C621 C622 1.392 1_655 S
C621 C625 1.495 . S
C622 C621 1.392 1_455 S
C622 C623 1.385 . S
C622 C624 1.478 . S
C623 H617 0.930 . S
C623 C619 1.400 . S
C623 C622 1.385 . S
C624 C622 1.478 . S
C624 C626 1.381 . S
C624 C630 1.383 . S
C625 C621 1.495 . S
C625 H631 0.959 . S
C625 H632 0.961 . S
C625 H633 0.960 . S
C626 C624 1.381 . S
C626 C627 1.394 . S
C626 H634 0.930 . S
C627 C626 1.394 . S
C627 C628 1.383 . S
C627 H635 0.929 . S
C628 C627 1.383 . S
C628 C629 1.377 . S
C629 H613 0.930 . S
C629 C628 1.377 . S
C629 C630 1.379 . S
C630 H614 0.931 . S
C630 C624 1.383 . S
C630 C629 1.379 . S
H631 C625 0.959 . S
H632 C625 0.961 . S
H633 C625 0.960 . S
H634 C626 0.930 . S
H635 C627 0.929 . S
H636 C644 0.929 . S
H637 C646 0.930 . S
H638 C648 0.930 . S
H639 C651 0.929 . S
H640 C654 0.930 . S
H641 C656 0.960 . S
H642 C656 0.960 . S
H643 C656 0.960 . S
C644 H636 0.929 . S
C644 C645 1.377 . S
C644 C646 1.384 . S
C645 C644 1.377 . S
C645 C651 1.390 . S
C646 H637 0.930 . S
C646 C644 1.384 . S
C646 C647 1.372 . S
C647 C646 1.372 . S
C647 C648 1.400 . S
C647 C652 1.490 . S
C648 H638 0.930 . S
C648 C647 1.400 . S
C648 C651 1.386 . S
H649 C665 0.930 . S
H650 C666 0.931 . S
C651 H639 0.929 . S
C651 C645 1.390 . S
C651 C648 1.386 . S
C652 C647 1.490 . S
C652 C654 1.395 . S
C652 C655 1.403 1_545 S
H653 C659 0.930 . S
C654 H640 0.930 . S
C654 C652 1.395 . S
C654 C657 1.403 . S
C655 C652 1.403 1_565 S
C655 C656 1.524 . S
C655 C659 1.400 . S
C656 H641 0.960 . S
C656 H642 0.960 . S
C656 H643 0.960 . S
C656 C655 1.524 . S
C657 C654 1.403 . S
C657 C658 1.392 1_545 S
C657 C661 1.495 . S
C658 C657 1.392 1_565 S
C658 C659 1.385 . S
C658 C660 1.478 . S
C659 H653 0.930 . S
C659 C655 1.400 . S
C659 C658 1.385 . S
C660 C658 1.478 . S
C660 C662 1.381 . S
C660 C666 1.383 . S
C661 C657 1.495 . S
C661 H667 0.959 . S
C661 H668 0.961 . S
C661 H669 0.960 . S
C662 C660 1.381 . S
C662 C663 1.394 . S
C662 H670 0.930 . S
C663 C662 1.394 . S
C663 C664 1.383 . S
C663 H671 0.929 . S
C664 C663 1.383 . S
C664 C665 1.377 . S
C665 H649 0.930 . S
C665 C664 1.377 . S
C665 C666 1.379 . S
C666 H650 0.931 . S
C666 C660 1.383 . S
C666 C665 1.379 . S
H667 C661 0.959 . S
H668 C661 0.961 . S
H669 C661 0.960 . S
H670 C662 0.930 . S
H671 C663 0.929 . S
H672 C680 0.929 . S
H673 C682 0.930 . S
H674 C684 0.930 . S
H675 C687 0.929 . S
H676 C690 0.930 . S
H677 C692 0.960 . S
H678 C692 0.960 . S
H679 C692 0.960 . S
C680 H672 0.929 . S
C680 C681 1.377 . S
C680 C682 1.384 . S
C681 C680 1.377 . S
C681 C687 1.390 . S
C682 H673 0.930 . S
C682 C680 1.384 . S
C682 C683 1.372 . S
C683 C682 1.372 . S
C683 C684 1.400 . S
C683 C688 1.490 . S
C684 H674 0.930 . S
C684 C683 1.400 . S
C684 C687 1.386 . S
H685 C701 0.930 . S
H686 C702 0.931 . S
C687 H675 0.929 . S
C687 C681 1.390 . S
C687 C684 1.386 . S
C688 C683 1.490 . S
C688 C690 1.395 . S
C688 C691 1.403 . S
H689 C695 0.930 . S
C690 H676 0.930 . S
C690 C688 1.395 . S
C690 C693 1.403 . S
C691 C688 1.403 . S
C691 C692 1.524 . S
C691 C695 1.400 . S
C692 H677 0.960 . S
C692 H678 0.960 . S
C692 H679 0.960 . S
C692 C691 1.524 . S
C693 C690 1.403 . S
C693 C694 1.392 . S
C693 C697 1.495 . S
C694 C693 1.392 . S
C694 C695 1.385 . S
C694 C696 1.478 . S
C695 H689 0.930 . S
C695 C691 1.400 . S
C695 C694 1.385 . S
C696 C694 1.478 . S
C696 C698 1.381 . S
C696 C702 1.383 . S
C697 C693 1.495 . S
C697 H703 0.959 . S
C697 H704 0.961 . S
C697 H705 0.960 . S
C698 C696 1.381 . S
C698 C699 1.394 . S
C698 H706 0.930 . S
C699 C698 1.394 . S
C699 C700 1.383 . S
C699 H707 0.929 . S
C700 C699 1.383 . S
C700 C701 1.377 . S
C701 H685 0.930 . S
C701 C700 1.377 . S
C701 C702 1.379 . S
C702 H686 0.931 . S
C702 C696 1.383 . S
C702 C701 1.379 . S
H703 C697 0.959 . S
H704 C697 0.961 . S
H705 C697 0.960 . S
H706 C698 0.930 . S
H707 C699 0.929 . S
H708 C716 0.929 . S
H709 C718 0.930 1_655 S
H710 C720 0.930 . S
H711 C723 0.929 . S
H712 C726 0.942 . S
H713 C728 0.960 . S
H714 C728 0.960 . S
H715 C728 0.960 . S
C716 H708 0.929 . S
C716 C717 1.377 . S
C716 C718 1.384 . S
C717 C716 1.377 . S
C717 C723 1.390 . S
C718 H709 0.930 1_455 S
C718 C716 1.384 . S
C718 C719 1.372 . S
C719 C718 1.372 . S
C719 C720 1.400 . S
C719 C724 1.490 . S
C720 H710 0.930 . S
C720 C719 1.400 . S
C720 C723 1.386 . S
H721 C737 0.930 . S
H722 C738 0.931 1_455 S
C723 H711 0.929 . S
C723 C717 1.390 . S
C723 C720 1.386 . S
C724 C719 1.490 . S
C724 C726 1.392 . S
C724 C727 1.403 . S
H725 C731 0.946 . S
C726 H712 0.942 . S
C726 C724 1.392 . S
C726 C729 1.395 1_455 S
C727 C724 1.403 . S
C727 C728 1.524 . S
C727 C731 1.390 1_455 S
C728 H713 0.960 . S
C728 H714 0.960 . S
C728 H715 0.960 . S
C728 C727 1.524 . S
C729 C726 1.395 1_655 S
C729 C730 1.392 . S
C729 C733 1.495 . S
C730 C729 1.392 . S
C730 C731 1.382 . S
C730 C732 1.478 . S
C731 H725 0.946 . S
C731 C727 1.390 1_655 S
C731 C730 1.382 . S
C732 C730 1.478 . S
C732 C734 1.381 . S
C732 C738 1.383 . S
C733 C729 1.495 . S
C733 H739 0.959 . S
C733 H740 0.961 . S
C733 H741 0.960 . S
C734 C732 1.381 . S
C734 C735 1.394 . S
C734 H742 0.930 . S
C735 C734 1.394 . S
C735 C736 1.383 . S
C735 H743 0.929 . S
C736 C735 1.383 . S
C736 C737 1.377 . S
C737 H721 0.930 . S
C737 C736 1.377 . S
C737 C738 1.379 . S
C738 H722 0.931 1_655 S
C738 C732 1.383 . S
C738 C737 1.379 . S
H739 C733 0.959 . S
H740 C733 0.961 . S
H741 C733 0.960 . S
H742 C734 0.930 . S
H743 C735 0.929 . S
H744 C752 0.929 . S
H745 C754 0.930 . S
H746 C756 0.930 1_565 S
H747 C759 0.929 . S
H748 C762 0.930 . S
H749 C764 0.960 . S
H750 C764 0.960 . S
H751 C764 0.960 . S
C752 H744 0.929 . S
C752 C753 1.377 . S
C752 C754 1.384 . S
C753 C752 1.377 . S
C753 C759 1.390 . S
C754 H745 0.930 . S
C754 C752 1.384 . S
C754 C755 1.372 . S
C755 C754 1.372 . S
C755 C756 1.400 . S
C755 C760 1.490 . S
C756 H746 0.930 1_545 S
C756 C755 1.400 . S
C756 C759 1.386 . S
H757 C773 0.930 . S
H758 C774 0.931 . S
C759 H747 0.929 . S
C759 C753 1.390 . S
C759 C756 1.386 . S
C760 C755 1.490 . S
C760 C762 1.395 . S
C760 C763 1.403 . S
H761 C767 0.930 . S
C762 H748 0.930 . S
C762 C760 1.395 . S
C762 C765 1.403 1_545 S
C763 C760 1.403 . S
C763 C764 1.524 . S
C763 C767 1.400 1_545 S
C764 H749 0.960 . S
C764 H750 0.960 . S
C764 H751 0.960 . S
C764 C763 1.524 . S
C765 C762 1.403 1_565 S
C765 C766 1.392 . S
C765 C769 1.495 . S
C766 C765 1.392 . S
C766 C767 1.385 . S
C766 C768 1.478 . S
C767 H761 0.930 . S
C767 C763 1.400 1_565 S
C767 C766 1.385 . S
C768 C766 1.478 . S
C768 C770 1.381 . S
C768 C774 1.383 . S
C769 C765 1.495 . S
C769 H775 0.959 . S
C769 H776 0.961 . S
C769 H777 0.953 1_565 S
C770 C768 1.381 . S
C770 C771 1.394 . S
C770 H778 0.930 1_565 S
C771 C770 1.394 . S
C771 C772 1.383 . S
C771 H779 0.929 . S
C772 C771 1.383 . S
C772 C773 1.377 . S
C773 H757 0.930 . S
C773 C772 1.377 . S
C773 C774 1.379 . S
C774 H758 0.931 . S
C774 C768 1.383 . S
C774 C773 1.379 . S
H775 C769 0.959 . S
H776 C769 0.961 . S
H777 C769 0.953 1_545 S
H778 C770 0.930 1_545 S
H779 C771 0.929 . S
H780 C788 0.929 . S
H781 C790 0.930 . S
H782 C792 0.930 . S
H783 C795 0.929 . S
H784 C798 0.930 . S
H785 C800 0.960 . S
H786 C800 0.960 . S
H787 C800 0.960 . S
C788 H780 0.929 . S
C788 C789 1.377 . S
C788 C790 1.384 . S
C789 C788 1.377 . S
C789 C795 1.390 . S
C790 H781 0.930 . S
C790 C788 1.384 . S
C790 C791 1.372 . S
C791 C790 1.372 . S
C791 C792 1.400 . S
C791 C796 1.490 . S
C792 H782 0.930 . S
C792 C791 1.400 . S
C792 C795 1.386 . S
H793 C809 0.930 . S
H794 C810 0.931 . S
C795 H783 0.929 . S
C795 C789 1.390 . S
C795 C792 1.386 . S
C796 C791 1.490 . S
C796 C798 1.395 . S
C796 C799 1.403 . S
H797 C803 0.930 . S
C798 H784 0.930 . S
C798 C796 1.395 . S
C798 C801 1.403 . S
C799 C796 1.403 . S
C799 C800 1.524 . S
C799 C803 1.400 . S
C800 H785 0.960 . S
C800 H786 0.960 . S
C800 H787 0.960 . S
C800 C799 1.524 . S
C801 C798 1.403 . S
C801 C802 1.392 . S
C801 C805 1.495 . S
C802 C801 1.392 . S
C802 C803 1.385 . S
C802 C804 1.478 . S
C803 H797 0.930 . S
C803 C799 1.400 . S
C803 C802 1.385 . S
C804 C802 1.478 . S
C804 C806 1.381 . S
C804 C810 1.383 . S
C805 C801 1.495 . S
C805 H811 0.959 . S
C805 H812 0.961 . S
C805 H813 0.960 . S
C806 C804 1.381 . S
C806 C807 1.394 . S
C806 H814 0.930 . S
C807 C806 1.394 . S
C807 C808 1.383 . S
C807 H815 0.929 . S
C808 C807 1.383 . S
C808 C809 1.377 . S
C809 H793 0.930 . S
C809 C808 1.377 . S
C809 C810 1.379 . S
C810 H794 0.931 . S
C810 C804 1.383 . S
C810 C809 1.379 . S
H811 C805 0.959 . S
H812 C805 0.961 . S
H813 C805 0.960 . S
H814 C806 0.930 . S
H815 C807 0.929 . S
H816 C824 0.929 . S
H817 C826 0.930 . S
H818 C828 0.930 . S
H819 C831 0.929 . S
H820 C834 0.930 . S
H821 C836 0.960 . S
H822 C836 0.960 . S
H823 C836 0.960 . S
C824 H816 0.929 . S
C824 C825 1.377 . S
C824 C826 1.384 . S
C825 C824 1.377 . S
C825 C831 1.390 . S
C826 H817 0.930 . S
C826 C824 1.384 . S
C826 C827 1.372 . S
C827 C826 1.372 . S
C827 C828 1.400 . S
C827 C832 1.490 . S
C828 H818 0.930 . S
C828 C827 1.400 . S
C828 C831 1.386 . S
H829 C845 0.930 . S
H830 C846 0.931 . S
C831 H819 0.929 . S
C831 C825 1.390 . S
C831 C828 1.386 . S
C832 C827 1.490 . S
C832 C834 1.395 . S
C832 C835 1.403 . S
H833 C839 0.930 . S
C834 H820 0.930 . S
C834 C832 1.395 . S
C834 C837 1.403 . S
C835 C832 1.403 . S
C835 C836 1.524 . S
C835 C839 1.400 . S
C836 H821 0.960 . S
C836 H822 0.960 . S
C836 H823 0.960 . S
C836 C835 1.524 . S
C837 C834 1.403 . S
C837 C838 1.392 . S
C837 C841 1.495 . S
C838 C837 1.392 . S
C838 C839 1.385 . S
C838 C840 1.478 . S
C839 H833 0.930 . S
C839 C835 1.400 . S
C839 C838 1.385 . S
C840 C838 1.478 . S
C840 C842 1.381 . S
C840 C846 1.383 . S
C841 C837 1.495 . S
C841 H847 0.959 . S
C841 H848 0.961 . S
C841 H849 0.960 . S
C842 C840 1.381 . S
C842 C843 1.394 . S
C842 H850 0.930 . S
C843 C842 1.394 . S
C843 C844 1.383 . S
C843 H851 0.929 . S
C844 C843 1.383 . S
C844 C845 1.377 . S
C845 H829 0.930 . S
C845 C844 1.377 . S
C845 C846 1.379 . S
C846 H830 0.931 . S
C846 C840 1.383 . S
C846 C845 1.379 . S
H847 C841 0.959 . S
H848 C841 0.961 . S
H849 C841 0.960 . S
H850 C842 0.930 . S
H851 C843 0.929 . S
H852 C860 0.929 . S
H853 C862 0.930 . S
H854 C864 0.930 . S
H855 C867 0.929 . S
H856 C870 0.930 . S
H857 C872 0.960 . S
H858 C872 0.960 . S
H859 C872 0.960 . S
C860 H852 0.929 . S
C860 C861 1.377 . S
C860 C862 1.384 . S
C861 C860 1.377 . S
C861 C867 1.390 . S
C862 H853 0.930 . S
C862 C860 1.384 . S
C862 C863 1.372 . S
C863 C862 1.372 . S
C863 C864 1.400 . S
C863 C868 1.490 . S
C864 H854 0.930 . S
C864 C863 1.400 . S
C864 C867 1.386 . S
H865 C881 0.930 . S
H866 C882 0.931 . S
C867 H855 0.929 . S
C867 C861 1.390 . S
C867 C864 1.386 . S
C868 C863 1.490 . S
C868 C870 1.395 . S
C868 C871 1.403 . S
H869 C875 0.930 . S
C870 H856 0.930 . S
C870 C868 1.395 . S
C870 C873 1.403 . S
C871 C868 1.403 . S
C871 C872 1.524 . S
C871 C875 1.400 . S
C872 H857 0.960 . S
C872 H858 0.960 . S
C872 H859 0.960 . S
C872 C871 1.524 . S
C873 C870 1.403 . S
C873 C874 1.392 . S
C873 C877 1.495 . S
C874 C873 1.392 . S
C874 C875 1.385 . S
C874 C876 1.478 . S
C875 H869 0.930 . S
C875 C871 1.400 . S
C875 C874 1.385 . S
C876 C874 1.478 . S
C876 C878 1.381 . S
C876 C882 1.383 . S
C877 C873 1.495 . S
C877 H883 0.959 . S
C877 H884 0.961 . S
C877 H885 0.960 . S
C878 C876 1.381 . S
C878 C879 1.394 . S
C878 H886 0.930 . S
C879 C878 1.394 . S
C879 C880 1.383 . S
C879 H887 0.929 . S
C880 C879 1.383 . S
C880 C881 1.377 . S
C881 H865 0.930 . S
C881 C880 1.377 . S
C881 C882 1.379 . S
C882 H866 0.931 . S
C882 C876 1.383 . S
C882 C881 1.379 . S
H883 C877 0.959 . S
H884 C877 0.961 . S
H885 C877 0.960 . S
H886 C878 0.930 . S
H887 C879 0.929 . S
H888 C896 0.929 . S
H889 C898 0.930 . S
H890 C900 0.930 . S
H891 C903 0.929 . S
H892 C906 0.930 . S
H893 C908 0.960 . S
H894 C908 0.960 . S
H895 C908 0.960 . S
C896 H888 0.929 . S
C896 C897 1.377 . S
C896 C898 1.384 . S
C897 C896 1.377 . S
C897 C903 1.390 . S
C898 H889 0.930 . S
C898 C896 1.384 . S
C898 C899 1.372 . S
C899 C898 1.372 . S
C899 C900 1.400 . S
C899 C904 1.490 . S
C900 H890 0.930 . S
C900 C899 1.400 . S
C900 C903 1.386 . S
H901 C917 0.930 . S
H902 C918 0.931 . S
C903 H891 0.929 . S
C903 C897 1.390 . S
C903 C900 1.386 . S
C904 C899 1.490 . S
C904 C906 1.395 . S
C904 C907 1.403 . S
H905 C911 0.930 . S
C906 H892 0.930 . S
C906 C904 1.395 . S
C906 C909 1.403 . S
C907 C904 1.403 . S
C907 C908 1.524 . S
C907 C911 1.400 . S
C908 H893 0.960 . S
C908 H894 0.960 . S
C908 H895 0.960 . S
C908 C907 1.524 . S
C909 C906 1.403 . S
C909 C910 1.392 . S
C909 C913 1.495 . S
C910 C909 1.392 . S
C910 C911 1.385 . S
C910 C912 1.478 . S
C911 H905 0.930 . S
C911 C907 1.400 . S
C911 C910 1.385 . S
C912 C910 1.478 . S
C912 C914 1.381 . S
C912 C918 1.383 . S
C913 C909 1.495 . S
C913 H919 0.959 . S
C913 H920 0.961 . S
C913 H921 0.960 . S
C914 C912 1.381 . S
C914 C915 1.394 . S
C914 H922 0.930 . S
C915 C914 1.394 . S
C915 C916 1.383 . S
C915 H923 0.929 . S
C916 C915 1.383 . S
C916 C917 1.377 . S
C917 H901 0.930 . S
C917 C916 1.377 . S
C917 C918 1.379 . S
C918 H902 0.931 . S
C918 C912 1.383 . S
C918 C917 1.379 . S
H919 C913 0.959 . S
H920 C913 0.961 . S
H921 C913 0.960 . S
H922 C914 0.930 . S
H923 C915 0.929 . S
H924 C932 0.929 . S
H925 C934 0.930 . S
H926 C936 0.930 . S
H927 C939 0.929 . S
H928 C942 0.930 . S
H929 C944 0.960 . S
H930 C944 0.960 . S
H931 C944 0.960 . S
C932 H924 0.929 . S
C932 C933 1.377 . S
C932 C934 1.384 . S
C933 C932 1.377 . S
C933 C939 1.390 . S
C934 H925 0.930 . S
C934 C932 1.384 . S
C934 C935 1.372 . S
C935 C934 1.372 . S
C935 C936 1.400 . S
C935 C940 1.490 . S
C936 H926 0.930 . S
C936 C935 1.400 . S
C936 C939 1.386 . S
H937 C953 0.930 . S
H938 C954 0.931 . S
C939 H927 0.929 . S
C939 C933 1.390 . S
C939 C936 1.386 . S
C940 C935 1.490 . S
C940 C942 1.395 . S
C940 C943 1.403 . S
H941 C947 0.930 . S
C942 H928 0.930 . S
C942 C940 1.395 . S
C942 C945 1.403 . S
C943 C940 1.403 . S
C943 C944 1.524 . S
C943 C947 1.400 . S
C944 H929 0.960 . S
C944 H930 0.960 . S
C944 H931 0.960 . S
C944 C943 1.524 . S
C945 C942 1.403 . S
C945 C946 1.392 . S
C945 C949 1.495 . S
C946 C945 1.392 . S
C946 C947 1.385 . S
C946 C948 1.478 . S
C947 H941 0.930 . S
C947 C943 1.400 . S
C947 C946 1.385 . S
C948 C946 1.478 . S
C948 C950 1.381 . S
C948 C954 1.383 . S
C949 C945 1.495 . S
C949 H955 0.959 . S
C949 H956 0.961 . S
C949 H957 0.960 . S
C950 C948 1.381 . S
C950 C951 1.394 . S
C950 H958 0.930 . S
C951 C950 1.394 . S
C951 C952 1.383 . S
C951 H959 0.929 . S
C952 C951 1.383 . S
C952 C953 1.377 . S
C953 H937 0.930 . S
C953 C952 1.377 . S
C953 C954 1.379 . S
C954 H938 0.931 . S
C954 C948 1.383 . S
C954 C953 1.379 . S
H955 C949 0.959 . S
H956 C949 0.961 . S
H957 C949 0.960 . S
H958 C950 0.930 . S
H959 C951 0.929 . S
H960 C968 0.929 . S
H961 C970 0.930 . S
H962 C972 0.930 . S
H963 C975 0.929 . S
H964 C978 0.930 . S
H965 C980 0.960 . S
H966 C980 0.960 . S
H967 C980 0.960 . S
C968 H960 0.929 . S
C968 C969 1.377 . S
C968 C970 1.384 . S
C969 C968 1.377 . S
C969 C975 1.390 . S
C970 H961 0.930 . S
C970 C968 1.384 . S
C970 C971 1.372 . S
C971 C970 1.372 . S
C971 C972 1.400 . S
C971 C976 1.490 . S
C972 H962 0.930 . S
C972 C971 1.400 . S
C972 C975 1.386 . S
H973 C989 0.930 . S
H974 C990 0.931 . S
C975 H963 0.929 . S
C975 C969 1.390 . S
C975 C972 1.386 . S
C976 C971 1.490 . S
C976 C978 1.395 . S
C976 C979 1.403 . S
H977 C983 0.930 . S
C978 H964 0.930 . S
C978 C976 1.395 . S
C978 C981 1.403 . S
C979 C976 1.403 . S
C979 C980 1.524 . S
C979 C983 1.400 . S
C980 H965 0.960 . S
C980 H966 0.960 . S
C980 H967 0.960 . S
C980 C979 1.524 . S
C981 C978 1.403 . S
C981 C982 1.392 . S
C981 C985 1.495 . S
C982 C981 1.392 . S
C982 C983 1.385 . S
C982 C984 1.478 . S
C983 H977 0.930 . S
C983 C979 1.400 . S
C983 C982 1.385 . S
C984 C982 1.478 . S
C984 C986 1.381 . S
C984 C990 1.383 . S
C985 C981 1.495 . S
C985 H991 0.959 . S
C985 H992 0.961 . S
C985 H993 0.960 . S
C986 C984 1.381 . S
C986 C987 1.394 . S
C986 H994 0.930 . S
C987 C986 1.394 . S
C987 C988 1.383 . S
C987 H995 0.929 . S
C988 C987 1.383 . S
C988 C989 1.377 . S
C989 H973 0.930 . S
C989 C988 1.377 . S
C989 C990 1.379 . S
C990 H974 0.931 . S
C990 C984 1.383 . S
C990 C989 1.379 . S
H991 C985 0.959 . S
H992 C985 0.961 . S
H993 C985 0.960 . S
H994 C986 0.930 . S
H995 C987 0.929 . S
H996 C1004 0.929 . S
H997 C1006 0.930 . S
H998 C1008 0.930 . S
H999 C1011 0.929 . S
H1000 C1014 0.930 . S
H1001 C1016 0.960 . S
H1002 C1016 0.960 . S
H1003 C1016 0.960 . S
C1004 H996 0.929 . S
C1004 C1005 1.377 . S
C1004 C1006 1.384 . S
C1005 C1004 1.377 . S
C1005 C1011 1.390 . S
C1006 H997 0.930 . S
C1006 C1004 1.384 . S
C1006 C1007 1.372 . S
C1007 C1006 1.372 . S
C1007 C1008 1.400 . S
C1007 C1012 1.490 . S
C1008 H998 0.930 . S
C1008 C1007 1.400 . S
C1008 C1011 1.386 . S
H1009 C1025 0.930 . S
H1010 C1026 0.931 . S
C1011 H999 0.929 . S
C1011 C1005 1.390 . S
C1011 C1008 1.386 . S
C1012 C1007 1.490 . S
C1012 C1014 1.395 . S
C1012 C1015 1.403 . S
H1013 C1019 0.930 . S
C1014 H1000 0.930 . S
C1014 C1012 1.395 . S
C1014 C1017 1.403 . S
C1015 C1012 1.403 . S
C1015 C1016 1.524 . S
C1015 C1019 1.400 . S
C1016 H1001 0.960 . S
C1016 H1002 0.960 . S
C1016 H1003 0.960 . S
C1016 C1015 1.524 . S
C1017 C1014 1.403 . S
C1017 C1018 1.392 . S
C1017 C1021 1.495 . S
C1018 C1017 1.392 . S
C1018 C1019 1.385 . S
C1018 C1020 1.478 . S
C1019 H1013 0.930 . S
C1019 C1015 1.400 . S
C1019 C1018 1.385 . S
C1020 C1018 1.478 . S
C1020 C1022 1.381 . S
C1020 C1026 1.383 . S
C1021 C1017 1.495 . S
C1021 H1027 0.959 . S
C1021 H1028 0.961 . S
C1021 H1029 0.960 . S
C1022 C1020 1.381 . S
C1022 C1023 1.394 . S
C1022 H1030 0.930 . S
C1023 C1022 1.394 . S
C1023 C1024 1.383 . S
C1023 H1031 0.929 . S
C1024 C1023 1.383 . S
C1024 C1025 1.377 . S
C1025 H1009 0.930 . S
C1025 C1024 1.377 . S
C1025 C1026 1.379 . S
C1026 H1010 0.931 . S
C1026 C1020 1.383 . S
C1026 C1025 1.379 . S
H1027 C1021 0.959 . S
H1028 C1021 0.961 . S
H1029 C1021 0.960 . S
H1030 C1022 0.930 . S
H1031 C1023 0.929 . S
C177 C7 1.663 . S
C196 C91 1.651 . S
C213 C21 1.666 . S
C232 C105 1.622 . S
C249 C34 1.562 . S
C268 C118 1.571 . S
C285 C133 1.663 . S
C304 C49 1.623 . S
C321 C63 1.661 . S
C340 C147 1.684 . S
C357 C160 1.564 . S
C376 C76 1.598 . S
C393 C8 1.389 . S
C412 C134 1.389 . S
C429 C22 1.387 . S
C448 C148 1.379 . S
C465 C163 1.304 . S
C484 C37 1.299 . S
C501 C92 1.387 . S
C520 C50 1.380 . S
C537 C64 1.388 . S
C556 C106 1.383 . S
C573 C79 1.306 . S
C592 C121 1.300 1_556 S
C609 C161 1.531 . S
C628 C6 1.519 . S
C645 C20 1.713 . S
C664 C90 1.708 . S
C681 C35 1.529 . S
C700 C104 1.522 . S
C717 C119 1.528 . S
C736 C48 1.530 . S
C753 C132 1.713 . S
C772 C62 1.702 . S
C789 C77 1.529 . S
C808 C146 1.520 . S
C825 C9 0.776 . S
C844 C149 0.755 . S
C861 C162 0.936 . S
C880 C23 0.914 . S
C897 C93 0.941 . S
C916 C36 0.917 . S
C933 C51 0.774 . S
C952 C107 0.743 . S
C969 C120 0.934 . S
C988 C65 0.896 . S
C1005 C135 0.935 . S
C1024 C78 0.894 . S
