# Generated by pormake.
# Topology pcb, (4)-cn, num edge types: 1
# Building blocks:
#     Node 0, Type 0, BuildingBlock: TATPOV_clean_sbu_0, # of connection points: 4
#     Node 1, Type 0, BuildingBlock: TATPOV_clean_sbu_0, # of connection points: 4
#     Node 2, Type 0, BuildingBlock: TATPOV_clean_sbu_0, # of connection points: 4
#     Node 3, Type 0, BuildingBlock: TATPOV_clean_sbu_0, # of connection points: 4
#     Node 4, Type 0, BuildingBlock: TATPOV_clean_sbu_0, # of connection points: 4
#     Node 5, Type 0, BuildingBlock: TATPOV_clean_sbu_0, # of connection points: 4
#     Node 6, Type 0, BuildingBlock: TATPOV_clean_sbu_0, # of connection points: 4
#     Node 7, Type 0, BuildingBlock: TATPOV_clean_sbu_0, # of connection points: 4
#     Node 8, Type 0, BuildingBlock: TATPOV_clean_sbu_0, # of connection points: 4
#     Node 9, Type 0, BuildingBlock: TATPOV_clean_sbu_0, # of connection points: 4
#     Node 10, Type 0, BuildingBlock: TATPOV_clean_sbu_0, # of connection points: 4
#     Node 11, Type 0, BuildingBlock: TATPOV_clean_sbu_0, # of connection points: 4
#     Node 12, Type 0, BuildingBlock: TATPOV_clean_sbu_0, # of connection points: 4
#     Node 13, Type 0, BuildingBlock: TATPOV_clean_sbu_0, # of connection points: 4
#     Node 14, Type 0, BuildingBlock: TATPOV_clean_sbu_0, # of connection points: 4
#     Node 15, Type 0, BuildingBlock: TATPOV_clean_sbu_0, # of connection points: 4
#     Edge 16, Type (0, 0), BuildingBlock: EZIPEK_clean_linker_0, # of connection points: 2
#     Edge 17, Type (0, 0), BuildingBlock: EZIPEK_clean_linker_0, # of connection points: 2
#     Edge 18, Type (0, 0), BuildingBlock: EZIPEK_clean_linker_0, # of connection points: 2
#     Edge 19, Type (0, 0), BuildingBlock: EZIPEK_clean_linker_0, # of connection points: 2
#     Edge 20, Type (0, 0), BuildingBlock: EZIPEK_clean_linker_0, # of connection points: 2
#     Edge 21, Type (0, 0), BuildingBlock: EZIPEK_clean_linker_0, # of connection points: 2
#     Edge 22, Type (0, 0), BuildingBlock: EZIPEK_clean_linker_0, # of connection points: 2
#     Edge 23, Type (0, 0), BuildingBlock: EZIPEK_clean_linker_0, # of connection points: 2
#     Edge 24, Type (0, 0), BuildingBlock: EZIPEK_clean_linker_0, # of connection points: 2
#     Edge 25, Type (0, 0), BuildingBlock: EZIPEK_clean_linker_0, # of connection points: 2
#     Edge 26, Type (0, 0), BuildingBlock: EZIPEK_clean_linker_0, # of connection points: 2
#     Edge 27, Type (0, 0), BuildingBlock: EZIPEK_clean_linker_0, # of connection points: 2
#     Edge 28, Type (0, 0), BuildingBlock: EZIPEK_clean_linker_0, # of connection points: 2
#     Edge 29, Type (0, 0), BuildingBlock: EZIPEK_clean_linker_0, # of connection points: 2
#     Edge 30, Type (0, 0), BuildingBlock: EZIPEK_clean_linker_0, # of connection points: 2
#     Edge 31, Type (0, 0), BuildingBlock: EZIPEK_clean_linker_0, # of connection points: 2
#     Edge 32, Type (0, 0), BuildingBlock: EZIPEK_clean_linker_0, # of connection points: 2
#     Edge 33, Type (0, 0), BuildingBlock: EZIPEK_clean_linker_0, # of connection points: 2
#     Edge 34, Type (0, 0), BuildingBlock: EZIPEK_clean_linker_0, # of connection points: 2
#     Edge 35, Type (0, 0), BuildingBlock: EZIPEK_clean_linker_0, # of connection points: 2
#     Edge 36, Type (0, 0), BuildingBlock: EZIPEK_clean_linker_0, # of connection points: 2
#     Edge 37, Type (0, 0), BuildingBlock: EZIPEK_clean_linker_0, # of connection points: 2
#     Edge 38, Type (0, 0), BuildingBlock: EZIPEK_clean_linker_0, # of connection points: 2
#     Edge 39, Type (0, 0), BuildingBlock: EZIPEK_clean_linker_0, # of connection points: 2
#     Edge 40, Type (0, 0), BuildingBlock: EZIPEK_clean_linker_0, # of connection points: 2
#     Edge 41, Type (0, 0), BuildingBlock: EZIPEK_clean_linker_0, # of connection points: 2
#     Edge 42, Type (0, 0), BuildingBlock: EZIPEK_clean_linker_0, # of connection points: 2
#     Edge 43, Type (0, 0), BuildingBlock: EZIPEK_clean_linker_0, # of connection points: 2
#     Edge 44, Type (0, 0), BuildingBlock: EZIPEK_clean_linker_0, # of connection points: 2
#     Edge 45, Type (0, 0), BuildingBlock: EZIPEK_clean_linker_0, # of connection points: 2
#     Edge 46, Type (0, 0), BuildingBlock: EZIPEK_clean_linker_0, # of connection points: 2
#     Edge 47, Type (0, 0), BuildingBlock: EZIPEK_clean_linker_0, # of connection points: 2
# Relax obj value: 0.182
# Max RMSD: 0.083
# Mean RMSD: 0.083
data_MOF--net-pcb--node1-TATPOV_clean_sbu_0--edge1-EZIPEK_clean_linker_0
_symmetry_space_group_name_H-M    P1
_symmetry_Int_Tables_number       1
_symmetry_cell_setting            triclinic
loop_
_symmetry_equiv_pos_as_xyz
'x, y, z'
_cell_length_a     34.76982
_cell_length_b     33.876103
_cell_length_c     33.944859
_cell_angle_alpha  90.202165
_cell_angle_beta   89.933187
_cell_angle_gamma 90.257387
loop_
_atom_site_label
_atom_site_type_symbol
_atom_site_fract_x
_atom_site_fract_y
_atom_site_fract_z
_atom_type_partial_charge
Zn0 Zn 0.07774 0.13951 0.20614 0.0
Zn1 Zn 0.13115 0.18306 0.20105 0.0
O2 O 0.09089 0.21501 0.23382 0.0
O3 O 0.04021 0.17688 0.22743 0.0
O4 O 0.18092 0.21126 0.21028 0.0
O5 O 0.10135 0.10118 0.24455 0.0
O6 O 0.14562 0.12284 0.20476 0.0
C7 C 0.05495 0.20908 0.23875 0.0
C8 C 0.09876 0.1654 0.12598 0.0
O9 O 0.11653 0.19232 0.14475 0.0
O10 O 0.08479 0.13632 0.14498 0.0
C11 C 0.21206 0.20138 0.19341 0.0
O12 O 0.21215 0.17272 0.16725 0.0
C13 C 0.13161 0.0948 0.22525 0.0
Zn14 Zn 0.93828 0.15099 0.11558 0.0
Zn15 Zn 0.8692 0.18034 0.13415 0.0
O16 O 0.90654 0.2142 0.16733 0.0
O17 O 0.96349 0.19113 0.15137 0.0
O18 O 0.81907 0.20346 0.15134 0.0
O19 O 0.92788 0.16251 0.05849 0.0
O20 O 0.87065 0.18617 0.0737 0.0
C21 C 0.94291 0.21493 0.17091 0.0
C22 C 0.88647 0.09307 0.14812 0.0
O23 O 0.86374 0.12232 0.15032 0.0
O24 O 0.92056 0.09772 0.13571 0.0
C25 C 0.81123 0.19805 0.18748 0.0
O26 O 0.83416 0.17637 0.20911 0.0
C27 C 0.89588 0.17671 0.04807 0.0
Zn28 Zn 0.90246 0.87467 0.08245 0.0
Zn29 Zn 0.85843 0.84128 0.13642 0.0
O30 O 0.91201 0.81676 0.14703 0.0
O31 O 0.94766 0.84365 0.10054 0.0
O32 O 0.82334 0.81247 0.17324 0.0
O33 O 0.89177 0.9271 0.10767 0.0
O34 O 0.85499 0.89977 0.15324 0.0
C35 C 0.94445 0.82119 0.13004 0.0
C36 C 0.83926 0.83591 0.04766 0.0
O37 O 0.83154 0.82829 0.0835 0.0
O38 O 0.86909 0.85529 0.03867 0.0
C39 C 0.83204 0.80062 0.20748 0.0
O40 O 0.86593 0.80888 0.22248 0.0
C41 C 0.87065 0.93013 0.13788 0.0
Zn42 Zn 0.14139 0.89381 0.10313 0.0
Zn43 Zn 0.17981 0.85327 0.15372 0.0
O44 O 0.12695 0.82683 0.16059 0.0
O45 O 0.09478 0.86058 0.11614 0.0
O46 O 0.21386 0.82369 0.19029 0.0
O47 O 0.17431 0.87884 0.05797 0.0
O48 O 0.20438 0.83999 0.09939 0.0
C49 C 0.09589 0.83399 0.14222 0.0
C50 C 0.16756 0.94282 0.16434 0.0
O51 O 0.18073 0.91017 0.17696 0.0
O52 O 0.14996 0.94416 0.13185 0.0
C53 C 0.20355 0.81356 0.22469 0.0
O54 O 0.1692 0.82294 0.23777 0.0
C55 C 0.1993 0.85274 0.06452 0.0
Zn56 Zn 0.09293 0.85849 0.89627 0.0
Zn57 Zn 0.13847 0.84181 0.8368 0.0
O58 O 0.08671 0.81496 0.82322 0.0
O59 O 0.05054 0.8243 0.87538 0.0
O60 O 0.17338 0.8195 0.7958 0.0
O61 O 0.09708 0.91524 0.87816 0.0
O62 O 0.13624 0.90153 0.82864 0.0
C63 C 0.05496 0.80996 0.84123 0.0
C64 C 0.16244 0.82729 0.92345 0.0
O65 O 0.16923 0.82686 0.88664 0.0
O66 O 0.13015 0.83855 0.93623 0.0
C67 C 0.17557 0.78215 0.79811 0.0
O68 O 0.15395 0.76324 0.82366 0.0
C69 C 0.11716 0.92629 0.84901 0.0
Zn70 Zn 0.03985 0.15046 0.88604 0.0
Zn71 Zn 0.10962 0.17639 0.87155 0.0
O72 O 0.07459 0.21044 0.83576 0.0
O73 O 0.01673 0.1861 0.84624 0.0
O74 O 0.16116 0.20076 0.86031 0.0
O75 O 0.04236 0.1678 0.94252 0.0
O76 O 0.10418 0.17658 0.93246 0.0
C77 C 0.03867 0.21007 0.8286 0.0
C78 C 0.09263 0.09084 0.85604 0.0
O79 O 0.11558 0.1199 0.8523 0.0
O80 O 0.05924 0.09581 0.87023 0.0
C81 C 0.17242 0.19744 0.82483 0.0
O82 O 0.15148 0.17725 0.79959 0.0
C83 C 0.07575 0.17361 0.95612 0.0
Zn84 Zn 0.9067 0.12483 0.80731 0.0
Zn85 Zn 0.84763 0.17248 0.799 0.0
O86 O 0.89207 0.20207 0.77172 0.0
O87 O 0.93879 0.15874 0.77156 0.0
O88 O 0.8033 0.20886 0.79113 0.0
O89 O 0.87661 0.07915 0.78593 0.0
O90 O 0.82765 0.11894 0.77673 0.0
C91 C 0.92629 0.19256 0.76244 0.0
C92 C 0.88021 0.15859 0.8806 0.0
O93 O 0.85467 0.17367 0.8586 0.0
O94 O 0.90628 0.13688 0.86615 0.0
C95 C 0.80158 0.24194 0.80879 0.0
O96 O 0.82883 0.25249 0.83349 0.0
C97 C 0.84243 0.08463 0.77457 0.0
Zn98 Zn 0.86211 0.89081 0.85377 0.0
Zn99 Zn 0.82012 0.84255 0.80953 0.0
O100 O 0.87526 0.82137 0.80261 0.0
O101 O 0.91023 0.86256 0.83819 0.0
O102 O 0.78855 0.80646 0.77507 0.0
O103 O 0.83366 0.87232 0.9013 0.0
O104 O 0.79932 0.83082 0.86541 0.0
C105 C 0.90767 0.83263 0.81601 0.0
C106 C 0.8209 0.93291 0.79604 0.0
O107 O 0.80893 0.89848 0.78666 0.0
O108 O 0.84416 0.9377 0.82422 0.0
C109 C 0.80286 0.78666 0.74678 0.0
O110 O 0.83955 0.78991 0.73821 0.0
C111 C 0.80838 0.84548 0.89876 0.0
Zn112 Zn 0.5559 0.64256 0.62408 0.0
Zn113 Zn 0.61932 0.65874 0.65306 0.0
O114 O 0.57827 0.68367 0.6903 0.0
O115 O 0.52787 0.68544 0.6518 0.0
O116 O 0.66771 0.6774 0.67952 0.0
O117 O 0.55878 0.58778 0.64767 0.0
O118 O 0.62093 0.59779 0.65184 0.0
C119 C 0.54413 0.69532 0.6836 0.0
C120 C 0.60542 0.67112 0.56602 0.0
O121 O 0.62461 0.68039 0.59662 0.0
O122 O 0.57455 0.65157 0.56909 0.0
C123 C 0.69846 0.68586 0.66113 0.0
O124 O 0.70078 0.67978 0.62301 0.0
C125 C 0.59235 0.57407 0.65168 0.0
Zn126 Zn 0.40008 0.60363 0.65302 0.0
Zn127 Zn 0.33823 0.64433 0.67308 0.0
O128 O 0.38213 0.67223 0.70356 0.0
O129 O 0.4322 0.6349 0.69088 0.0
O130 O 0.29308 0.67657 0.68972 0.0
O131 O 0.39356 0.62186 0.59676 0.0
O132 O 0.34008 0.65265 0.61317 0.0
C133 C 0.41748 0.66414 0.70849 0.0
C134 C 0.34149 0.55488 0.68641 0.0
O135 O 0.32363 0.58747 0.69008 0.0
O136 O 0.37467 0.55388 0.67118 0.0
C137 C 0.28883 0.68198 0.72645 0.0
O138 O 0.31276 0.66534 0.75121 0.0
C139 C 0.36449 0.64207 0.58725 0.0
Zn140 Zn 0.37885 0.34605 0.63248 0.0
Zn141 Zn 0.33082 0.30523 0.67631 0.0
O142 O 0.3838 0.28226 0.69226 0.0
O143 O 0.4234 0.31873 0.65675 0.0
O144 O 0.29391 0.27597 0.71092 0.0
O145 O 0.36015 0.39708 0.65422 0.0
O146 O 0.3202 0.36358 0.69212 0.0
C147 C 0.41777 0.29157 0.68154 0.0
C148 C 0.32685 0.29975 0.58648 0.0
O149 O 0.3134 0.28959 0.61991 0.0
O150 O 0.35491 0.32346 0.58407 0.0
C151 C 0.29842 0.27556 0.74803 0.0
O152 O 0.32813 0.29352 0.764 0.0
C153 C 0.33416 0.39631 0.68023 0.0
Zn154 Zn 0.59675 0.32939 0.60347 0.0
Zn155 Zn 0.64195 0.32299 0.66292 0.0
O156 O 0.59602 0.28869 0.68073 0.0
O157 O 0.55603 0.29804 0.6316 0.0
O158 O 0.68022 0.3139 0.70539 0.0
O159 O 0.63203 0.30307 0.56555 0.0
O160 O 0.67394 0.30599 0.61376 0.0
C161 C 0.56328 0.28315 0.66491 0.0
C162 C 0.61324 0.40408 0.64128 0.0
O163 O 0.62939 0.38214 0.6667 0.0
O164 O 0.59972 0.3888 0.61007 0.0
C165 C 0.67491 0.32029 0.74182 0.0
O166 O 0.64256 0.3358 0.75434 0.0
C167 C 0.66593 0.2982 0.57793 0.0
Zn168 Zn 0.65152 0.38128 0.39807 0.0
Zn169 Zn 0.68571 0.33345 0.3468 0.0
O170 O 0.6285 0.31984 0.33834 0.0
O171 O 0.6002 0.35896 0.38153 0.0
O172 O 0.71395 0.29942 0.30795 0.0
O173 O 0.67294 0.42874 0.37092 0.0
O174 O 0.7013 0.38947 0.32807 0.0
C175 C 0.59821 0.33277 0.35495 0.0
C176 C 0.70134 0.32668 0.4358 0.0
O177 O 0.70642 0.31429 0.40069 0.0
O178 O 0.67997 0.3561 0.44237 0.0
C179 C 0.69848 0.27864 0.281 0.0
O180 O 0.66096 0.27782 0.2769 0.0
C181 C 0.69354 0.42403 0.34058 0.0
Zn182 Zn 0.60397 0.61301 0.34046 0.0
Zn183 Zn 0.6565 0.6643 0.31816 0.0
O184 O 0.60824 0.6818 0.28677 0.0
O185 O 0.56636 0.63564 0.30295 0.0
O186 O 0.69715 0.7026 0.30096 0.0
O187 O 0.60699 0.63442 0.39562 0.0
O188 O 0.65201 0.67659 0.37717 0.0
C189 C 0.5748 0.66649 0.2839 0.0
C190 C 0.66919 0.57413 0.31078 0.0
O191 O 0.68101 0.60949 0.30604 0.0
O192 O 0.63618 0.56738 0.32483 0.0
C193 C 0.7162 0.69636 0.26967 0.0
O194 O 0.70914 0.66469 0.2484 0.0
C195 C 0.6305 0.66186 0.4037 0.0
Zn196 Zn 0.41044 0.60666 0.35906 0.0
Zn197 Zn 0.35301 0.6504 0.33286 0.0
O198 O 0.39999 0.67264 0.30227 0.0
O199 O 0.44748 0.63665 0.32544 0.0
O200 O 0.31018 0.68331 0.31219 0.0
O201 O 0.3844 0.55837 0.33767 0.0
O202 O 0.33559 0.59422 0.31731 0.0
C203 C 0.4355 0.6637 0.30311 0.0
C204 C 0.37151 0.64702 0.42118 0.0
O205 O 0.35156 0.6607 0.39289 0.0
O206 O 0.39903 0.62364 0.41453 0.0
C207 C 0.31361 0.72059 0.31064 0.0
O208 O 0.34475 0.7377 0.32455 0.0
C209 C 0.35175 0.56086 0.32152 0.0
Zn210 Zn 0.38384 0.36556 0.39822 0.0
Zn211 Zn 0.35295 0.3171 0.3458 0.0
O212 O 0.41094 0.30661 0.33784 0.0
O213 O 0.43619 0.34708 0.38199 0.0
O214 O 0.32709 0.28221 0.30634 0.0
O215 O 0.35555 0.3387 0.44162 0.0
O216 O 0.32999 0.29724 0.39868 0.0
C217 C 0.44017 0.32164 0.35496 0.0
C218 C 0.34101 0.40675 0.34064 0.0
O219 O 0.33536 0.37214 0.32705 0.0
O220 O 0.3606 0.41203 0.37156 0.0
C221 C 0.33187 0.28705 0.26959 0.0
O222 O 0.35642 0.31364 0.25674 0.0
C223 C 0.33405 0.3095 0.43397 0.0
C224 C 0.2778 0.28549 0.2208 0.0
C225 C 0.30674 0.2652 0.24203 0.0
C226 C 0.27725 0.20162 0.22518 0.0
C227 C 0.24799 0.22197 0.20449 0.0
N228 N 0.2263 0.28125 0.1728 0.0
N229 N 0.34029 0.20483 0.25572 0.0
C230 C 0.25032 0.26333 0.19903 0.0
C231 C 0.30853 0.22345 0.24124 0.0
N232 N 0.27494 0.32566 0.22351 0.0
N233 N 0.274 0.16194 0.23163 0.0
H234 H 0.36369 0.22027 0.26745 0.0
H235 H 0.34506 0.17465 0.25272 0.0
H236 H 0.2519 0.14473 0.2199 0.0
H237 H 0.29185 0.14641 0.25064 0.0
H238 H 0.25167 0.34148 0.21262 0.0
H239 H 0.2944 0.34319 0.23911 0.0
H240 H 0.22893 0.31076 0.16467 0.0
H241 H 0.20612 0.26553 0.15618 0.0
C242 C 0.74874 0.2801 0.22872 0.0
C243 C 0.72338 0.25774 0.25265 0.0
C244 C 0.74983 0.1965 0.22564 0.0
C245 C 0.77889 0.21882 0.20648 0.0
N246 N 0.80932 0.28185 0.19377 0.0
N247 N 0.70116 0.19474 0.2768 0.0
C248 C 0.77906 0.26068 0.20865 0.0
C249 C 0.72394 0.2159 0.25162 0.0
N250 N 0.7434 0.31985 0.22469 0.0
N251 N 0.74666 0.15689 0.21842 0.0
H252 H 0.68162 0.20789 0.29608 0.0
H253 H 0.70356 0.16437 0.28068 0.0
H254 H 0.76503 0.14191 0.19923 0.0
H255 H 0.72384 0.13963 0.22847 0.0
H256 H 0.75854 0.33703 0.2045 0.0
H257 H 0.72116 0.335 0.23873 0.0
H258 H 0.81303 0.312 0.19868 0.0
H259 H 0.83261 0.26897 0.17937 0.0
C260 C 0.81324 0.73516 0.23618 0.0
C261 C 0.80436 0.77532 0.2288 0.0
C262 C 0.73749 0.7639 0.24858 0.0
C263 C 0.74679 0.7242 0.2576 0.0
N264 N 0.79502 0.67463 0.26924 0.0
N265 N 0.76108 0.83018 0.23629 0.0
C266 C 0.78517 0.71061 0.25424 0.0
C267 C 0.76737 0.7904 0.23766 0.0
N268 N 0.8476 0.71985 0.22401 0.0
N269 N 0.69995 0.77579 0.24841 0.0
H270 H 0.78256 0.85041 0.22878 0.0
H271 H 0.73585 0.84338 0.2462 0.0
H272 H 0.67708 0.7572 0.25572 0.0
H273 H 0.69112 0.80309 0.2378 0.0
H274 H 0.85369 0.68978 0.2244 0.0
H275 H 0.86903 0.73666 0.21051 0.0
H276 H 0.82332 0.66493 0.27133 0.0
H277 H 0.77529 0.65601 0.28315 0.0
C278 C 0.26622 0.77626 0.30856 0.0
C279 C 0.28448 0.74402 0.28953 0.0
C280 C 0.24394 0.75338 0.23157 0.0
C281 C 0.22944 0.78867 0.24839 0.0
N282 N 0.23108 0.83727 0.30061 0.0
N283 N 0.29661 0.70727 0.22959 0.0
C284 C 0.24157 0.80109 0.28639 0.0
C285 C 0.27493 0.73393 0.25012 0.0
N286 N 0.27143 0.78244 0.34801 0.0
N287 N 0.22733 0.73768 0.19851 0.0
H288 H 0.32076 0.6935 0.24134 0.0
H289 H 0.29314 0.70204 0.19953 0.0
H290 H 0.20359 0.7503 0.18473 0.0
H291 H 0.23443 0.70996 0.18733 0.0
H292 H 0.25572 0.80299 0.3642 0.0
H293 H 0.28884 0.76453 0.36535 0.0
H294 H 0.24253 0.84955 0.32624 0.0
H295 H 0.2135 0.85662 0.2851 0.0
C296 C 0.27193 0.74385 0.76237 0.0
C297 C 0.2597 0.7099 0.74119 0.0
C298 C 0.19253 0.72949 0.74972 0.0
C299 C 0.20466 0.76004 0.77557 0.0
N300 N 0.2557 0.79314 0.8112 0.0
N301 N 0.20852 0.66774 0.71752 0.0
C302 C 0.24433 0.76668 0.78295 0.0
C303 C 0.22001 0.70212 0.73524 0.0
N304 N 0.30982 0.75486 0.76196 0.0
N305 N 0.15483 0.72716 0.73849 0.0
H306 H 0.22779 0.64685 0.70664 0.0
H307 H 0.17998 0.65838 0.71635 0.0
H308 H 0.13406 0.74703 0.74837 0.0
H309 H 0.14484 0.70798 0.71671 0.0
H310 H 0.31972 0.78159 0.77344 0.0
H311 H 0.33087 0.73917 0.74668 0.0
H312 H 0.284 0.79566 0.82097 0.0
H313 H 0.23655 0.81031 0.82745 0.0
C314 C 0.23799 0.19477 0.79508 0.0
C315 C 0.20761 0.21766 0.81094 0.0
C316 C 0.24196 0.27852 0.79353 0.0
C317 C 0.26953 0.2556 0.77295 0.0
N318 N 0.29408 0.1923 0.75256 0.0
N319 N 0.17819 0.28115 0.82224 0.0
C320 C 0.26774 0.21377 0.77343 0.0
C321 C 0.20915 0.25954 0.80996 0.0
N322 N 0.23879 0.15497 0.80169 0.0
N323 N 0.24692 0.31845 0.79696 0.0
H324 H 0.15344 0.26854 0.83424 0.0
H325 H 0.17565 0.31142 0.81784 0.0
H326 H 0.26969 0.33366 0.78385 0.0
H327 H 0.23021 0.33617 0.81528 0.0
H328 H 0.26191 0.13702 0.79423 0.0
H329 H 0.21764 0.14031 0.81793 0.0
H330 H 0.29169 0.16204 0.74767 0.0
H331 H 0.31756 0.20515 0.73826 0.0
C332 C 0.73112 0.25425 0.81004 0.0
C333 C 0.76863 0.26809 0.80112 0.0
C334 C 0.74145 0.32526 0.7675 0.0
C335 C 0.70476 0.30714 0.76952 0.0
N336 N 0.66358 0.25454 0.79258 0.0
N337 N 0.81046 0.31676 0.77151 0.0
C338 C 0.69904 0.27211 0.79153 0.0
C339 C 0.77415 0.30413 0.78066 0.0
N340 N 0.72638 0.22412 0.83631 0.0
N341 N 0.74476 0.36259 0.75269 0.0
H342 H 0.83519 0.30236 0.78094 0.0
H343 H 0.81619 0.34019 0.75259 0.0
H344 H 0.72096 0.37855 0.74303 0.0
H345 H 0.77013 0.37901 0.75344 0.0
H346 H 0.69967 0.21493 0.84683 0.0
H347 H 0.74953 0.2108 0.85052 0.0
H348 H 0.65867 0.22643 0.80386 0.0
H349 H 0.63918 0.26721 0.78018 0.0
C350 C 0.7831 0.71926 0.72346 0.0
C351 C 0.7778 0.7608 0.72283 0.0
C352 C 0.72071 0.75294 0.6814 0.0
C353 C 0.72697 0.71157 0.68064 0.0
N354 N 0.76682 0.65551 0.69485 0.0
N355 N 0.74687 0.81795 0.69525 0.0
C356 C 0.75912 0.69476 0.69974 0.0
C357 C 0.74806 0.77789 0.70011 0.0
N358 N 0.80979 0.70315 0.74815 0.0
N359 N 0.68814 0.76828 0.66496 0.0
H360 H 0.7667 0.83719 0.70822 0.0
H361 H 0.72846 0.83196 0.67565 0.0
H362 H 0.66816 0.75126 0.64942 0.0
H363 H 0.67953 0.79743 0.66884 0.0
H364 H 0.81222 0.67298 0.75322 0.0
H365 H 0.82782 0.72011 0.76606 0.0
H366 H 0.79198 0.64217 0.70457 0.0
H367 H 0.74926 0.63671 0.67828 0.0
C368 C 0.1115 0.19496 0.01793 0.0
C369 C 0.08184 0.17251 -0.00036 0.0
C370 C 0.05933 0.15263 0.06487 0.0
C371 C 0.09303 0.16853 0.0825 0.0
N372 N 0.15692 0.19575 0.07153 0.0
N373 N 0.03653 0.11811 0.00761 0.0
C374 C 0.12089 0.18721 0.0579 0.0
C375 C 0.05827 0.14782 0.02355 0.0
N376 N 0.12992 0.22449 -0.00193 0.0
N377 N 0.02761 0.14344 0.08682 0.0
H378 H 0.03841 0.10952 0.97817 0.0
H379 H 0.021 0.0983 0.025 0.0
H380 H 0.02508 0.15047 0.11661 0.0
H381 H 0.00193 0.13388 0.07402 0.0
H382 H 0.14969 0.24333 0.01167 0.0
H383 H 0.12204 0.23332 0.96984 0.0
H384 H 0.17862 0.20672 0.05331 0.0
H385 H 0.16673 0.1871 0.09914 0.0
C386 C 0.91017 0.19236 0.93875 0.0
C387 C 0.88065 0.16777 0.92319 0.0
C388 C 0.85786 0.15276 0.98978 0.0
C389 C 0.88698 0.1779 0.00545 0.0
N390 N 0.93552 0.22774 0.9955 0.0
N391 N 0.82166 0.13123 0.93254 0.0
C392 C 0.91153 0.19959 0.98003 0.0
C393 C 0.85275 0.15044 0.9483 0.0
N394 N 0.9372 0.2083 0.91408 0.0
N395 N 0.83704 0.12874 0.01422 0.0
H396 H 0.81791 0.12702 0.90234 0.0
H397 H 0.7981 0.12208 0.94919 0.0
H398 H 0.83989 0.12888 0.04475 0.0
H399 H 0.81901 0.10625 0.00417 0.0
H400 H 0.96216 0.22228 0.92385 0.0
H401 H 0.93569 0.20591 0.88347 0.0
H402 H 0.95179 0.24716 0.97854 0.0
H403 H 0.93658 0.23407 0.0256 0.0
C404 C 0.77628 0.85517 0.96276 0.0
C405 C 0.79402 0.8288 0.9361 0.0
C406 C 0.82369 0.79318 0.99034 0.0
C407 C 0.81288 0.82451 0.01559 0.0
N408 N 0.76938 0.87716 0.03085 0.0
N409 N 0.8209 0.76477 0.92436 0.0
C410 C 0.78513 0.85235 0.00352 0.0
C411 C 0.81244 0.7945 0.95012 0.0
N412 N 0.75364 0.88448 0.94813 0.0
N413 N 0.84686 0.76407 0.00452 0.0
H414 H 0.81235 0.76578 0.89493 0.0
H415 H 0.83339 0.73817 0.93247 0.0
H416 H 0.85409 0.76251 0.03434 0.0
H417 H 0.85906 0.74202 0.98723 0.0
H418 H 0.74167 0.90698 0.96499 0.0
H419 H 0.74686 0.88572 0.91817 0.0
H420 H 0.74839 0.89799 0.02462 0.0
H421 H 0.77601 0.87497 0.06075 0.0
C422 C 0.20045 0.79562 0.01982 0.0
C423 C 0.2161 0.83286 0.02978 0.0
C424 C 0.22019 0.84981 0.9601 0.0
C425 C 0.19299 0.81948 0.95256 0.0
N426 N 0.16411 0.75795 0.9712 0.0
N427 N 0.2517 0.89002 0.01045 0.0
C428 C 0.18629 0.78982 0.98099 0.0
C429 C 0.23081 0.85751 -0.00016 0.0
N430 N 0.19726 0.76729 0.04808 0.0
N431 N 0.23363 0.87231 0.92974 0.0
H432 H 0.25953 0.89489 0.03979 0.0
H433 H 0.26083 0.91178 0.99098 0.0
H434 H 0.22614 0.86649 0.90055 0.0
H435 H 0.25421 0.89446 0.9329 0.0
H436 H 0.18716 0.73882 0.04267 0.0
H437 H 0.20832 0.7716 0.07634 0.0
H438 H 0.1546 0.73695 0.99132 0.0
H439 H 0.15479 0.75324 0.9423 0.0
C440 C 0.99357 0.23163 0.26392 0.0
C441 C 0.02824 0.24226 0.24518 0.0
C442 C 0.99347 0.26405 0.1876 0.0
C443 C 0.96217 0.24046 0.20043 0.0
N444 N 0.92556 0.21587 0.25543 0.0
N445 N 0.05682 0.29092 0.20369 0.0
C446 C 0.95944 0.22996 0.24077 0.0
C447 C 0.0261 0.26755 0.21252 0.0
N448 N 0.99519 0.21855 0.30175 0.0
N449 N 0.99288 0.27985 0.15074 0.0
H450 H 0.08093 0.29165 0.22204 0.0
H451 H 0.05712 0.31097 0.18051 0.0
H452 H 0.96847 0.27764 0.13292 0.0
H453 H 0.01621 0.29438 0.13802 0.0
H454 H 0.97151 0.20887 0.31784 0.0
H455 H 0.02129 0.21867 0.31703 0.0
H456 H 0.92185 0.20613 0.2842 0.0
H457 H 0.90042 0.21581 0.23871 0.0
C458 C 0.89272 0.98695 0.17888 0.0
C459 C 0.86443 0.97001 0.15406 0.0
C460 C 0.84249 0.03528 0.1341 0.0
C461 C 0.87281 0.05246 0.15667 0.0
N462 N 0.91823 0.04637 0.2097 0.0
N463 N 0.80489 0.97642 0.11921 0.0
C464 C 0.89498 0.02872 0.18235 0.0
C465 C 0.83648 0.99383 0.13584 0.0
N466 N 0.91859 0.96306 0.19729 0.0
N467 N 0.82172 0.05766 0.10837 0.0
H468 H 0.80047 0.94592 0.12 0.0
H469 H 0.78158 0.99219 0.10833 0.0
H470 H 0.82475 0.08808 0.1057 0.0
H471 H 0.80294 0.04571 0.0876 0.0
H472 H 0.94287 0.97348 0.21201 0.0
H473 H 0.91626 0.93232 0.19651 0.0
H474 H 0.93313 0.03093 0.23126 0.0
H475 H 0.91972 0.07699 0.21299 0.0
C476 C 0.99602 0.82026 0.18061 0.0
C477 C 0.98024 0.80383 0.14577 0.0
C478 C 0.04468 0.78697 0.12247 0.0
C479 C 0.05985 0.81279 0.15139 0.0
N480 N 0.05254 0.84882 0.21203 0.0
N481 N 0.98736 0.76249 0.08892 0.0
C482 C 0.03641 0.8268 0.18253 0.0
C483 C 0.00409 0.78323 0.11895 0.0
N484 N 0.97221 0.83079 0.21081 0.0
N485 N 0.06932 0.76773 0.09771 0.0
H486 H 0.95754 0.75888 0.08728 0.0
H487 H 0.00239 0.74899 0.06609 0.0
H488 H 0.09913 0.77042 0.10061 0.0
H489 H 0.06077 0.74757 0.07623 0.0
H490 H 0.98181 0.84114 0.23798 0.0
H491 H 0.9427 0.82548 0.20987 0.0
H492 H 0.03683 0.86404 0.23325 0.0
H493 H 0.08224 0.85253 0.21463 0.0
C494 C 0.11371 0.02467 0.20862 0.0
C495 C 0.14285 0.0533 0.21682 0.0
C496 C 0.19196 0.00515 0.19703 0.0
C497 C 0.16252 0.97679 0.1911 0.0
N498 N 0.09801 0.95526 0.20541 0.0
N499 N 0.21011 0.06751 0.22755 0.0
C500 C 0.12443 0.98509 0.20252 0.0
C501 C 0.18226 0.04248 0.2139 0.0
N502 N 0.07638 0.03539 0.20194 0.0
N503 N 0.22861 0.99694 0.18531 0.0
H504 H 0.20363 0.09438 0.24107 0.0
H505 H 0.2391 0.06002 0.22883 0.0
H506 H 0.23634 0.96928 0.17427 0.0
H507 H 0.25059 0.01793 0.18487 0.0
H508 H 0.05534 0.01534 0.19278 0.0
H509 H 0.06726 0.06449 0.19956 0.0
H510 H 0.07038 0.95958 0.21658 0.0
H511 H 0.10523 0.92573 0.20068 0.0
C512 C 0.95317 0.781 0.83758 0.0
C513 C 0.94267 0.80935 0.80904 0.0
C514 C 0.00883 0.81189 0.7852 0.0
C515 C 0.02038 0.79408 0.8209 0.0
N516 N 0.00554 0.75002 0.87372 0.0
N517 N 0.95798 0.84711 0.75132 0.0
C518 C 0.99291 0.77384 0.84413 0.0
C519 C 0.96964 0.82255 0.78075 0.0
N520 N 0.92516 0.76304 0.85947 0.0
N521 N 0.03523 0.81883 0.75627 0.0
H522 H 0.92902 0.8538 0.74689 0.0
H523 H 0.97684 0.8616 0.73235 0.0
H524 H 0.06337 0.80853 0.7582 0.0
H525 H 0.02822 0.8302 0.72877 0.0
H526 H 0.93033 0.7418 0.88083 0.0
H527 H 0.89598 0.7682 0.85454 0.0
H528 H 0.98776 0.73586 0.89392 0.0
H529 H 0.03481 0.7442 0.87738 0.0
C530 C 0.08841 0.98598 0.81814 0.0
C531 C 0.11851 0.96881 0.84018 0.0
C532 C 0.13647 0.03318 0.86726 0.0
C533 C 0.10543 0.0504 0.84625 0.0
N534 N 0.05901 0.04602 0.79379 0.0
N535 N 0.17767 0.97616 0.87598 0.0
C536 C 0.08373 0.02763 0.81899 0.0
C537 C 0.14494 0.99265 0.86119 0.0
N538 N 0.06342 0.96223 0.79784 0.0
N539 N 0.15585 0.05447 0.89529 0.0
H540 H 0.18414 0.94633 0.87216 0.0
H541 H 0.19995 0.99255 0.8885 0.0
H542 H 0.15029 0.08402 0.90154 0.0
H543 H 0.17555 0.04207 0.91467 0.0
H544 H 0.03809 0.97229 0.78508 0.0
H545 H 0.06738 0.93181 0.7952 0.0
H546 H 0.04466 0.03159 0.77098 0.0
H547 H 0.05556 0.07662 0.79348 0.0
C548 C 0.02459 0.21563 0.75806 0.0
C549 C 0.02198 0.23288 0.79596 0.0
C550 C 0.95714 0.25462 0.78074 0.0
C551 C 0.95526 0.22344 0.7532 0.0
N552 N 0.98831 0.18807 0.70275 0.0
N553 N 0.99065 0.27889 0.8389 0.0
C554 C 0.98998 0.21005 0.73637 0.0
C555 C 0.99021 0.25712 0.80508 0.0
N556 N 0.05915 0.20187 0.74514 0.0
N557 N 0.92632 0.27882 0.78541 0.0
H558 H 0.01529 0.28048 0.85644 0.0
H559 H 0.96689 0.29418 0.84959 0.0
H560 H 0.90232 0.27614 0.7671 0.0
H561 H 0.92613 0.30293 0.80453 0.0
H562 H 0.06339 0.18867 0.71777 0.0
H563 H 0.08417 0.20623 0.7616 0.0
H564 H 0.01197 0.17471 0.68959 0.0
H565 H 0.96213 0.18372 0.68821 0.0
C566 C 0.78474 0.99571 0.79461 0.0
C567 C 0.80876 0.96859 0.77463 0.0
C568 C 0.83757 0.0221 0.73661 0.0
C569 C 0.8198 0.0493 0.76259 0.0
N570 N 0.76496 0.064 0.80326 0.0
N571 N 0.84808 0.95314 0.71873 0.0
C572 C 0.78899 0.03674 0.78689 0.0
C573 C 0.83126 0.98095 0.74221 0.0
N574 N 0.7601 0.98203 0.82283 0.0
N575 N 0.8621 0.03612 0.70845 0.0
H576 H 0.84316 0.92302 0.72295 0.0
H577 H 0.86491 0.95948 0.6942 0.0
H578 H 0.86563 0.0664 0.70382 0.0
H579 H 0.87829 0.0185 0.68965 0.0
H580 H 0.74457 6e-05 0.84189 0.0
H581 H 0.75593 0.95183 0.82746 0.0
H582 H 0.74088 0.05681 0.82003 0.0
H583 H 0.76694 0.09394 0.79664 0.0
C584 C 0.60194 0.69949 0.45958 0.0
C585 C 0.63238 0.67613 0.44467 0.0
C586 C 0.65215 0.65855 0.51129 0.0
C587 C 0.62013 0.67984 0.52621 0.0
N588 N 0.57146 0.72907 0.51693 0.0
N589 N 0.69283 0.6436 0.45501 0.0
C590 C 0.59742 0.70337 0.50099 0.0
C591 C 0.65992 0.65948 0.47023 0.0
N592 N 0.57654 0.71637 0.43404 0.0
N593 N 0.67304 0.63482 0.53567 0.0
H594 H 0.69872 0.64334 0.42487 0.0
H595 H 0.71572 0.63411 0.47226 0.0
H596 H 0.66826 0.63305 0.56591 0.0
H597 H 0.69358 0.61488 0.52569 0.0
H598 H 0.55107 0.72986 0.44277 0.0
H599 H 0.58048 0.71561 0.40355 0.0
H600 H 0.5558 0.74928 0.50051 0.0
H601 H 0.56811 0.73245 0.54733 0.0
C602 C 0.38644 0.67777 0.52718 0.0
C603 C 0.35917 0.65249 0.54535 0.0
C604 C 0.3307 0.63732 0.48098 0.0
C605 C 0.3623 0.65653 0.46267 0.0
N606 N 0.41897 0.69732 0.4669 0.0
N607 N 0.3049 0.60813 0.54069 0.0
C608 C 0.3895 0.67798 0.48541 0.0
C609 C 0.33051 0.63299 0.52267 0.0
N610 N 0.40912 0.7016 0.55007 0.0
N611 N 0.30144 0.62243 0.45844 0.0
H612 H 0.30346 0.60466 0.57116 0.0
H613 H 0.28645 0.58919 0.52554 0.0
H614 H 0.30125 0.62413 0.42779 0.0
H615 H 0.27586 0.6114 0.47003 0.0
H616 H 0.42758 0.72309 0.53889 0.0
H617 H 0.40702 0.70215 0.58075 0.0
H618 H 0.44252 0.70952 0.4815 0.0
H619 H 0.42043 0.70002 0.43631 0.0
C620 C 0.3353 0.25936 0.48687 0.0
C621 C 0.31513 0.28982 0.46752 0.0
C622 C 0.28427 0.3093 0.52914 0.0
C623 C 0.31056 0.28487 0.54921 0.0
N624 N 0.35082 0.2278 0.54933 0.0
N625 N 0.26165 0.33398 0.4659 0.0
C626 C 0.33204 0.2562 0.52851 0.0
C627 C 0.28594 0.31094 0.48734 0.0
N628 N 0.35964 0.236 0.46562 0.0
N629 N 0.26026 0.33292 0.55051 0.0
H630 H 0.26325 0.33496 0.43517 0.0
H631 H 0.23887 0.34985 0.47781 0.0
H632 H 0.25862 0.33095 0.58117 0.0
H633 H 0.24222 0.35403 0.53837 0.0
H634 H 0.37786 0.21509 0.47784 0.0
H635 H 0.36132 0.23779 0.43496 0.0
H636 H 0.36661 0.20506 0.53663 0.0
H637 H 0.34829 0.22594 0.57995 0.0
C638 C 0.69843 0.26809 0.47932 0.0
C639 C 0.71568 0.3049 0.47052 0.0
C640 C 0.72483 0.31748 0.54082 0.0
C641 C 0.69602 0.28888 0.54831 0.0
N642 N 0.66423 0.2292 0.52856 0.0
N643 N 0.75478 0.35945 0.49132 0.0
C644 C 0.68669 0.26083 0.51879 0.0
C645 C 0.73306 0.32727 0.501 0.0
N646 N 0.69176 0.24154 0.44978 0.0
N647 N 0.74287 0.33586 0.5715 0.0
H648 H 0.76161 0.36574 0.46201 0.0
H649 H 0.7652 0.37987 0.51169 0.0
H650 H 0.7381 0.32746 0.60062 0.0
H651 H 0.76518 0.35615 0.56807 0.0
H652 H 0.68012 0.21355 0.45418 0.0
H653 H 0.7013 0.24646 0.42108 0.0
H654 H 0.65291 0.20921 0.50829 0.0
H655 H 0.65676 0.22355 0.55784 0.0
C656 C 0.51154 0.68609 0.74676 0.0
C657 C 0.51941 0.71167 0.71509 0.0
C658 C 0.45146 0.72806 0.7111 0.0
C659 C 0.4439 0.6914 0.72931 0.0
N660 N 0.46324 0.64329 0.77665 0.0
N661 N 0.50038 0.76865 0.67901 0.0
C662 C 0.47283 0.67391 0.75258 0.0
C663 C 0.49039 0.73782 0.70262 0.0
N664 N 0.54119 0.67161 0.76845 0.0
N665 N 0.4216 0.75128 0.69973 0.0
H666 H 0.52928 0.77467 0.67284 0.0
H667 H 0.48076 0.78754 0.6658 0.0
H668 H 0.39324 0.74391 0.70672 0.0
H669 H 0.425 0.77872 0.68647 0.0
H670 H 0.53753 0.65316 0.79263 0.0
H671 H 0.56939 0.68119 0.76363 0.0
H672 H 0.48316 0.62651 0.79206 0.0
H673 H 0.43452 0.63486 0.78046 0.0
C674 C 0.34236 0.49511 0.72804 0.0
C675 C 0.32393 0.51688 0.69805 0.0
C676 C 0.29468 0.45628 0.67241 0.0
C677 C 0.32059 0.43448 0.69578 0.0
N678 N 0.36425 0.43079 0.75028 0.0
N679 N 0.27792 0.52027 0.64531 0.0
C680 C 0.34215 0.4532 0.72585 0.0
C681 C 0.29759 0.49818 0.67211 0.0
N682 N 0.36098 0.51496 0.7575 0.0
N683 N 0.26857 0.43649 0.64962 0.0
H684 H 0.27876 0.55105 0.64549 0.0
H685 H 0.26147 0.50841 0.62255 0.0
H686 H 0.26661 0.40571 0.64981 0.0
H687 H 0.24717 0.45016 0.63327 0.0
H688 H 0.37368 0.50137 0.78161 0.0
H689 H 0.36097 0.54577 0.75907 0.0
H690 H 0.38387 0.44232 0.77042 0.0
H691 H 0.36312 0.39998 0.74972 0.0
C692 C 0.50706 0.23822 0.66481 0.0
C693 C 0.53104 0.26421 0.68643 0.0
C694 C 0.4759 0.28877 0.72326 0.0
C695 C 0.45179 0.26996 0.6954 0.0
N696 N 0.44158 0.21685 0.64984 0.0
N697 N 0.54105 0.29846 0.7477 0.0
C698 C 0.46658 0.24041 0.67022 0.0
C699 C 0.51635 0.28374 0.7201 0.0
N700 N 0.52336 0.21401 0.63731 0.0
N701 N 0.46002 0.31369 0.75037 0.0
H702 H 0.57056 0.29339 0.74618 0.0
H703 H 0.53219 0.31183 0.7738 0.0
H704 H 0.43023 0.31643 0.75329 0.0
H705 H 0.47594 0.33188 0.76905 0.0
H706 H 0.50796 0.19586 0.61818 0.0
H707 H 0.55321 0.21224 0.63423 0.0
H708 H 0.4499 0.19421 0.63094 0.0
H709 H 0.41188 0.21894 0.65398 0.0
C710 C 0.62815 0.51221 0.67294 0.0
C711 C 0.59799 0.53038 0.65135 0.0
C712 C 0.57348 0.46494 0.63431 0.0
C713 C 0.60762 0.44717 0.64838 0.0
N714 N 0.67178 0.45688 0.67491 0.0
N715 N 0.55007 0.5215 0.59984 0.0
C716 C 0.63628 0.47152 0.66619 0.0
C717 C 0.57282 0.50612 0.62872 0.0
N718 N 0.64822 0.53299 0.7007 0.0
N719 N 0.54122 0.44294 0.62705 0.0
H720 H 0.55216 0.55064 0.59035 0.0
H721 H 0.5333 0.50372 0.58141 0.0
H722 H 0.53917 0.41306 0.63411 0.0
H723 H 0.51514 0.45574 0.61905 0.0
H724 H 0.66829 0.51982 0.71922 0.0
H725 H 0.64159 0.56196 0.70849 0.0
H726 H 0.69434 0.47477 0.68466 0.0
H727 H 0.68013 0.42813 0.66837 0.0
C728 C 0.5013 0.28721 0.37009 0.0
C729 C 0.47968 0.31061 0.34375 0.0
C730 C 0.53863 0.33692 0.31431 0.0
C731 C 0.5599 0.31748 0.344 0.0
N732 N 0.5645 0.26586 0.39203 0.0
N733 N 0.47619 0.34817 0.284 0.0
C734 C 0.54212 0.28946 0.36899 0.0
C735 C 0.49799 0.33191 0.31316 0.0
N736 N 0.48246 0.26468 0.39737 0.0
N737 N 0.55721 0.36186 0.28899 0.0
H738 H 0.44636 0.34475 0.28303 0.0
H739 H 0.48749 0.36231 0.2594 0.0
H740 H 0.58712 0.36469 0.2885 0.0
H741 H 0.54335 0.38031 0.26918 0.0
H742 H 0.49594 0.24996 0.42033 0.0
H743 H 0.45259 0.26137 0.39724 0.0
H744 H 0.55387 0.24312 0.40949 0.0
H745 H 0.5945 0.26726 0.39125 0.0
C746 C 0.72768 0.48815 0.33972 0.0
C747 C 0.7056 0.45981 0.31895 0.0
C748 C 0.68098 0.51147 0.27591 0.0
C749 C 0.69414 0.53972 0.30351 0.0
N750 N 0.73651 0.55745 0.3566 0.0
N751 N 0.66737 0.44229 0.26241 0.0
C752 C 0.72073 0.52892 0.33307 0.0
C753 C 0.6852 0.47068 0.28456 0.0
N754 N 0.7539 0.47556 0.36676 0.0
N755 N 0.66297 0.52422 0.24263 0.0
H756 H 0.67128 0.41224 0.26746 0.0
H757 H 0.6485 0.44826 0.23946 0.0
H758 H 0.65988 0.5543 0.23676 0.0
H759 H 0.65401 0.50573 0.21985 0.0
H760 H 0.77256 0.49418 0.38202 0.0
H761 H 0.75878 0.44553 0.37147 0.0
H762 H 0.75292 0.5517 0.38151 0.0
H763 H 0.73268 0.58745 0.35106 0.0
C764 C 0.52561 0.71772 0.28662 0.0
C765 C 0.54266 0.68705 0.26456 0.0
C766 C 0.47928 0.66235 0.24611 0.0
C767 C 0.46412 0.68395 0.2782 0.0
N768 N 0.46848 0.73923 0.3222 0.0
N769 N 0.53732 0.6402 0.21224 0.0
C770 C 0.48568 0.71503 0.29531 0.0
C771 C 0.51961 0.66369 0.23937 0.0
N772 N 0.54835 0.74714 0.30132 0.0
N773 N 0.45529 0.63863 0.2247 0.0
H774 H 0.56712 0.64152 0.20827 0.0
H775 H 0.52309 0.62045 0.19375 0.0
H776 H 0.42573 0.63789 0.23025 0.0
H777 H 0.46399 0.62147 0.20086 0.0
H778 H 0.538 0.77121 0.31715 0.0
H779 H 0.57765 0.74854 0.29463 0.0
H780 H 0.48303 0.76044 0.33875 0.0
H781 H 0.43898 0.73746 0.32787 0.0
C782 C 0.34944 0.45743 0.28861 0.0
C783 C 0.32713 0.4421 0.31997 0.0
C784 C 0.30423 0.50799 0.33693 0.0
C785 C 0.33215 0.52364 0.31079 0.0
N786 N 0.3704 0.51585 0.25264 0.0
N787 N 0.27344 0.44905 0.36355 0.0
C788 C 0.3506 0.49897 0.28302 0.0
C789 C 0.30063 0.46633 0.34016 0.0
N790 N 0.37166 0.43252 0.26665 0.0
N791 N 0.28384 0.53285 0.36075 0.0
H792 H 0.27116 0.41837 0.36582 0.0
H793 H 0.25168 0.46442 0.37791 0.0
H794 H 0.2852 0.56345 0.35782 0.0
H795 H 0.26607 0.52346 0.38358 0.0
H796 H 0.39176 0.44185 0.24592 0.0
H797 H 0.37006 0.40192 0.2697 0.0
H798 H 0.38336 0.50001 0.22995 0.0
H799 H 0.37114 0.54644 0.24885 0.0
loop_
_geom_bond_atom_site_label_1
_geom_bond_atom_site_label_2
_geom_bond_distance
_geom_bond_site_symmetry_2
_ccdc_geom_bond_type
Zn0 O3 2.031 . S
Zn0 O5 2.049 . S
Zn0 O10 2.067 . S
Zn1 O2 1.962 . S
Zn1 O4 1.986 . S
Zn1 O6 1.996 . S
Zn1 O9 1.943 . S
O2 Zn1 1.962 . S
O2 C7 1.254 . S
O3 Zn0 2.031 . S
O3 C7 1.269 . S
O4 Zn1 1.986 . S
O4 C11 1.262 . S
O5 Zn0 2.049 . S
O5 C13 1.260 . S
O6 Zn1 1.996 . S
O6 C13 1.257 . S
C7 O2 1.254 . S
C7 O3 1.269 . S
C8 O9 1.249 . S
C8 O10 1.270 . S
O9 Zn1 1.943 . S
O9 C8 1.249 . S
O10 Zn0 2.067 . S
O10 C8 1.270 . S
C11 O4 1.262 . S
C11 O12 1.232 . S
O12 C11 1.232 . S
C13 O5 1.260 . S
C13 O6 1.257 . S
Zn14 O17 2.031 . S
Zn14 O19 2.049 . S
Zn14 O24 2.067 . S
Zn15 O16 1.962 . S
Zn15 O18 1.986 . S
Zn15 O20 1.996 . S
Zn15 O23 1.943 . S
O16 Zn15 1.962 . S
O16 C21 1.254 . S
O17 Zn14 2.031 . S
O17 C21 1.269 . S
O18 Zn15 1.986 . S
O18 C25 1.262 . S
O19 Zn14 2.049 . S
O19 C27 1.260 . S
O20 Zn15 1.996 . S
O20 C27 1.257 . S
C21 O16 1.254 . S
C21 O17 1.269 . S
C22 O23 1.249 . S
C22 O24 1.270 . S
O23 Zn15 1.943 . S
O23 C22 1.249 . S
O24 Zn14 2.067 . S
O24 C22 1.270 . S
C25 O18 1.262 . S
C25 O26 1.232 . S
O26 C25 1.232 . S
C27 O19 1.260 . S
C27 O20 1.257 . S
Zn28 O31 2.031 . S
Zn28 O33 2.049 . S
Zn28 O38 2.067 . S
Zn29 O30 1.962 . S
Zn29 O32 1.986 . S
Zn29 O34 1.996 . S
Zn29 O37 1.943 . S
O30 Zn29 1.962 . S
O30 C35 1.254 . S
O31 Zn28 2.031 . S
O31 C35 1.269 . S
O32 Zn29 1.986 . S
O32 C39 1.262 . S
O33 Zn28 2.049 . S
O33 C41 1.260 . S
O34 Zn29 1.996 . S
O34 C41 1.257 . S
C35 O30 1.254 . S
C35 O31 1.269 . S
C36 O37 1.249 . S
C36 O38 1.270 . S
O37 Zn29 1.943 . S
O37 C36 1.249 . S
O38 Zn28 2.067 . S
O38 C36 1.270 . S
C39 O32 1.262 . S
C39 O40 1.232 . S
O40 C39 1.232 . S
C41 O33 1.260 . S
C41 O34 1.257 . S
Zn42 O45 2.031 . S
Zn42 O47 2.049 . S
Zn42 O52 2.067 . S
Zn43 O44 1.962 . S
Zn43 O46 1.986 . S
Zn43 O48 1.996 . S
Zn43 O51 1.943 . S
O44 Zn43 1.962 . S
O44 C49 1.254 . S
O45 Zn42 2.031 . S
O45 C49 1.269 . S
O46 Zn43 1.986 . S
O46 C53 1.262 . S
O47 Zn42 2.049 . S
O47 C55 1.260 . S
O48 Zn43 1.996 . S
O48 C55 1.257 . S
C49 O44 1.254 . S
C49 O45 1.269 . S
C50 O51 1.249 . S
C50 O52 1.270 . S
O51 Zn43 1.943 . S
O51 C50 1.249 . S
O52 Zn42 2.067 . S
O52 C50 1.270 . S
C53 O46 1.262 . S
C53 O54 1.232 . S
O54 C53 1.232 . S
C55 O47 1.260 . S
C55 O48 1.257 . S
Zn56 O59 2.031 . S
Zn56 O61 2.049 . S
Zn56 O66 2.067 . S
Zn57 O58 1.962 . S
Zn57 O60 1.986 . S
Zn57 O62 1.996 . S
Zn57 O65 1.943 . S
O58 Zn57 1.962 . S
O58 C63 1.254 . S
O59 Zn56 2.031 . S
O59 C63 1.269 . S
O60 Zn57 1.986 . S
O60 C67 1.262 . S
O61 Zn56 2.049 . S
O61 C69 1.260 . S
O62 Zn57 1.996 . S
O62 C69 1.257 . S
C63 O58 1.254 . S
C63 O59 1.269 . S
C64 O65 1.249 . S
C64 O66 1.270 . S
O65 Zn57 1.943 . S
O65 C64 1.249 . S
O66 Zn56 2.067 . S
O66 C64 1.270 . S
C67 O60 1.262 . S
C67 O68 1.232 . S
O68 C67 1.232 . S
C69 O61 1.260 . S
C69 O62 1.257 . S
Zn70 O73 2.031 . S
Zn70 O75 2.049 . S
Zn70 O80 2.067 . S
Zn71 O72 1.962 . S
Zn71 O74 1.986 . S
Zn71 O76 1.996 . S
Zn71 O79 1.943 . S
O72 Zn71 1.962 . S
O72 C77 1.254 . S
O73 Zn70 2.031 . S
O73 C77 1.269 . S
O74 Zn71 1.986 . S
O74 C81 1.262 . S
O75 Zn70 2.049 . S
O75 C83 1.260 . S
O76 Zn71 1.996 . S
O76 C83 1.257 . S
C77 O72 1.254 . S
C77 O73 1.269 . S
C78 O79 1.249 . S
C78 O80 1.270 . S
O79 Zn71 1.943 . S
O79 C78 1.249 . S
O80 Zn70 2.067 . S
O80 C78 1.270 . S
C81 O74 1.262 . S
C81 O82 1.232 . S
O82 C81 1.232 . S
C83 O75 1.260 . S
C83 O76 1.257 . S
Zn84 O87 2.031 . S
Zn84 O89 2.049 . S
Zn84 O94 2.067 . S
Zn85 O86 1.962 . S
Zn85 O88 1.986 . S
Zn85 O90 1.996 . S
Zn85 O93 1.943 . S
O86 Zn85 1.962 . S
O86 C91 1.254 . S
O87 Zn84 2.031 . S
O87 C91 1.269 . S
O88 Zn85 1.986 . S
O88 C95 1.262 . S
O89 Zn84 2.049 . S
O89 C97 1.260 . S
O90 Zn85 1.996 . S
O90 C97 1.257 . S
C91 O86 1.254 . S
C91 O87 1.269 . S
C92 O93 1.249 . S
C92 O94 1.270 . S
O93 Zn85 1.943 . S
O93 C92 1.249 . S
O94 Zn84 2.067 . S
O94 C92 1.270 . S
C95 O88 1.262 . S
C95 O96 1.232 . S
O96 C95 1.232 . S
C97 O89 1.260 . S
C97 O90 1.257 . S
Zn98 O101 2.031 . S
Zn98 O103 2.049 . S
Zn98 O108 2.067 . S
Zn99 O100 1.962 . S
Zn99 O102 1.986 . S
Zn99 O104 1.996 . S
Zn99 O107 1.943 . S
O100 Zn99 1.962 . S
O100 C105 1.254 . S
O101 Zn98 2.031 . S
O101 C105 1.269 . S
O102 Zn99 1.986 . S
O102 C109 1.262 . S
O103 Zn98 2.049 . S
O103 C111 1.260 . S
O104 Zn99 1.996 . S
O104 C111 1.257 . S
C105 O100 1.254 . S
C105 O101 1.269 . S
C106 O107 1.249 . S
C106 O108 1.270 . S
O107 Zn99 1.943 . S
O107 C106 1.249 . S
O108 Zn98 2.067 . S
O108 C106 1.270 . S
C109 O102 1.262 . S
C109 O110 1.232 . S
O110 C109 1.232 . S
C111 O103 1.260 . S
C111 O104 1.257 . S
Zn112 O115 2.031 . S
Zn112 O117 2.049 . S
Zn112 O122 2.067 . S
Zn113 O114 1.962 . S
Zn113 O116 1.986 . S
Zn113 O118 1.996 . S
Zn113 O121 1.943 . S
O114 Zn113 1.962 . S
O114 C119 1.254 . S
O115 Zn112 2.031 . S
O115 C119 1.269 . S
O116 Zn113 1.986 . S
O116 C123 1.262 . S
O117 Zn112 2.049 . S
O117 C125 1.260 . S
O118 Zn113 1.996 . S
O118 C125 1.257 . S
C119 O114 1.254 . S
C119 O115 1.269 . S
C120 O121 1.249 . S
C120 O122 1.270 . S
O121 Zn113 1.943 . S
O121 C120 1.249 . S
O122 Zn112 2.067 . S
O122 C120 1.270 . S
C123 O116 1.262 . S
C123 O124 1.232 . S
O124 C123 1.232 . S
C125 O117 1.260 . S
C125 O118 1.257 . S
Zn126 O129 2.031 . S
Zn126 O131 2.049 . S
Zn126 O136 2.067 . S
Zn127 O128 1.962 . S
Zn127 O130 1.986 . S
Zn127 O132 1.996 . S
Zn127 O135 1.943 . S
O128 Zn127 1.962 . S
O128 C133 1.254 . S
O129 Zn126 2.031 . S
O129 C133 1.269 . S
O130 Zn127 1.986 . S
O130 C137 1.262 . S
O131 Zn126 2.049 . S
O131 C139 1.260 . S
O132 Zn127 1.996 . S
O132 C139 1.257 . S
C133 O128 1.254 . S
C133 O129 1.269 . S
C134 O135 1.249 . S
C134 O136 1.270 . S
O135 Zn127 1.943 . S
O135 C134 1.249 . S
O136 Zn126 2.067 . S
O136 C134 1.270 . S
C137 O130 1.262 . S
C137 O138 1.232 . S
O138 C137 1.232 . S
C139 O131 1.260 . S
C139 O132 1.257 . S
Zn140 O143 2.031 . S
Zn140 O145 2.049 . S
Zn140 O150 2.067 . S
Zn141 O142 1.962 . S
Zn141 O144 1.986 . S
Zn141 O146 1.996 . S
Zn141 O149 1.943 . S
O142 Zn141 1.962 . S
O142 C147 1.254 . S
O143 Zn140 2.031 . S
O143 C147 1.269 . S
O144 Zn141 1.986 . S
O144 C151 1.262 . S
O145 Zn140 2.049 . S
O145 C153 1.260 . S
O146 Zn141 1.996 . S
O146 C153 1.257 . S
C147 O142 1.254 . S
C147 O143 1.269 . S
C148 O149 1.249 . S
C148 O150 1.270 . S
O149 Zn141 1.943 . S
O149 C148 1.249 . S
O150 Zn140 2.067 . S
O150 C148 1.270 . S
C151 O144 1.262 . S
C151 O152 1.232 . S
O152 C151 1.232 . S
C153 O145 1.260 . S
C153 O146 1.257 . S
Zn154 O157 2.031 . S
Zn154 O159 2.049 . S
Zn154 O164 2.067 . S
Zn155 O156 1.962 . S
Zn155 O158 1.986 . S
Zn155 O160 1.996 . S
Zn155 O163 1.943 . S
O156 Zn155 1.962 . S
O156 C161 1.254 . S
O157 Zn154 2.031 . S
O157 C161 1.269 . S
O158 Zn155 1.986 . S
O158 C165 1.262 . S
O159 Zn154 2.049 . S
O159 C167 1.260 . S
O160 Zn155 1.996 . S
O160 C167 1.257 . S
C161 O156 1.254 . S
C161 O157 1.269 . S
C162 O163 1.249 . S
C162 O164 1.270 . S
O163 Zn155 1.943 . S
O163 C162 1.249 . S
O164 Zn154 2.067 . S
O164 C162 1.270 . S
C165 O158 1.262 . S
C165 O166 1.232 . S
O166 C165 1.232 . S
C167 O159 1.260 . S
C167 O160 1.257 . S
Zn168 O171 2.031 . S
Zn168 O173 2.049 . S
Zn168 O178 2.067 . S
Zn169 O170 1.962 . S
Zn169 O172 1.986 . S
Zn169 O174 1.996 . S
Zn169 O177 1.943 . S
O170 Zn169 1.962 . S
O170 C175 1.254 . S
O171 Zn168 2.031 . S
O171 C175 1.269 . S
O172 Zn169 1.986 . S
O172 C179 1.262 . S
O173 Zn168 2.049 . S
O173 C181 1.260 . S
O174 Zn169 1.996 . S
O174 C181 1.257 . S
C175 O170 1.254 . S
C175 O171 1.269 . S
C176 O177 1.249 . S
C176 O178 1.270 . S
O177 Zn169 1.943 . S
O177 C176 1.249 . S
O178 Zn168 2.067 . S
O178 C176 1.270 . S
C179 O172 1.262 . S
C179 O180 1.232 . S
O180 C179 1.232 . S
C181 O173 1.260 . S
C181 O174 1.257 . S
Zn182 O185 2.031 . S
Zn182 O187 2.049 . S
Zn182 O192 2.067 . S
Zn183 O184 1.962 . S
Zn183 O186 1.986 . S
Zn183 O188 1.996 . S
Zn183 O191 1.943 . S
O184 Zn183 1.962 . S
O184 C189 1.254 . S
O185 Zn182 2.031 . S
O185 C189 1.269 . S
O186 Zn183 1.986 . S
O186 C193 1.262 . S
O187 Zn182 2.049 . S
O187 C195 1.260 . S
O188 Zn183 1.996 . S
O188 C195 1.257 . S
C189 O184 1.254 . S
C189 O185 1.269 . S
C190 O191 1.249 . S
C190 O192 1.270 . S
O191 Zn183 1.943 . S
O191 C190 1.249 . S
O192 Zn182 2.067 . S
O192 C190 1.270 . S
C193 O186 1.262 . S
C193 O194 1.232 . S
O194 C193 1.232 . S
C195 O187 1.260 . S
C195 O188 1.257 . S
Zn196 O199 2.031 . S
Zn196 O201 2.049 . S
Zn196 O206 2.067 . S
Zn197 O198 1.962 . S
Zn197 O200 1.986 . S
Zn197 O202 1.996 . S
Zn197 O205 1.943 . S
O198 Zn197 1.962 . S
O198 C203 1.254 . S
O199 Zn196 2.031 . S
O199 C203 1.269 . S
O200 Zn197 1.986 . S
O200 C207 1.262 . S
O201 Zn196 2.049 . S
O201 C209 1.260 . S
O202 Zn197 1.996 . S
O202 C209 1.257 . S
C203 O198 1.254 . S
C203 O199 1.269 . S
C204 O205 1.249 . S
C204 O206 1.270 . S
O205 Zn197 1.943 . S
O205 C204 1.249 . S
O206 Zn196 2.067 . S
O206 C204 1.270 . S
C207 O200 1.262 . S
C207 O208 1.232 . S
O208 C207 1.232 . S
C209 O201 1.260 . S
C209 O202 1.257 . S
Zn210 O213 2.031 . S
Zn210 O215 2.049 . S
Zn210 O220 2.067 . S
Zn211 O212 1.962 . S
Zn211 O214 1.986 . S
Zn211 O216 1.996 . S
Zn211 O219 1.943 . S
O212 Zn211 1.962 . S
O212 C217 1.254 . S
O213 Zn210 2.031 . S
O213 C217 1.269 . S
O214 Zn211 1.986 . S
O214 C221 1.262 . S
O215 Zn210 2.049 . S
O215 C223 1.260 . S
O216 Zn211 1.996 . S
O216 C223 1.257 . S
C217 O212 1.254 . S
C217 O213 1.269 . S
C218 O219 1.249 . S
C218 O220 1.270 . S
O219 Zn211 1.943 . S
O219 C218 1.249 . S
O220 Zn210 2.067 . S
O220 C218 1.270 . S
C221 O214 1.262 . S
C221 O222 1.232 . S
O222 C221 1.232 . S
C223 O215 1.260 . S
C223 O216 1.257 . S
C224 C225 1.363 . S
C224 C230 1.379 . S
C224 N232 1.356 . S
C225 C224 1.363 . S
C225 C231 1.363 . S
C226 C227 1.363 . S
C226 C231 1.379 . S
C226 N233 1.356 . S
C227 C226 1.363 . S
C227 C230 1.363 . S
N228 C230 1.356 . S
N228 H240 0.984 . S
N228 H241 0.985 . S
N229 C231 1.356 . S
N229 H234 0.984 . S
N229 H235 0.985 . S
C230 C224 1.379 . S
C230 C227 1.363 . S
C230 N228 1.356 . S
C231 C225 1.363 . S
C231 C226 1.379 . S
C231 N229 1.356 . S
N232 C224 1.356 . S
N232 H238 0.984 . S
N232 H239 0.984 . S
N233 C226 1.356 . S
N233 H236 0.984 . S
N233 H237 0.985 . S
H234 N229 0.984 . S
H235 N229 0.985 . S
H236 N233 0.984 . S
H237 N233 0.985 . S
H238 N232 0.984 . S
H239 N232 0.984 . S
H240 N228 0.984 . S
H241 N228 0.985 . S
C242 C243 1.363 . S
C242 C248 1.379 . S
C242 N250 1.356 . S
C243 C242 1.363 . S
C243 C249 1.363 . S
C244 C245 1.363 . S
C244 C249 1.379 . S
C244 N251 1.356 . S
C245 C244 1.363 . S
C245 C248 1.363 . S
N246 C248 1.356 . S
N246 H258 0.984 . S
N246 H259 0.985 . S
N247 C249 1.356 . S
N247 H252 0.984 . S
N247 H253 0.985 . S
C248 C242 1.379 . S
C248 C245 1.363 . S
C248 N246 1.356 . S
C249 C243 1.363 . S
C249 C244 1.379 . S
C249 N247 1.356 . S
N250 C242 1.356 . S
N250 H256 0.984 . S
N250 H257 0.984 . S
N251 C244 1.356 . S
N251 H254 0.984 . S
N251 H255 0.985 . S
H252 N247 0.984 . S
H253 N247 0.985 . S
H254 N251 0.984 . S
H255 N251 0.985 . S
H256 N250 0.984 . S
H257 N250 0.984 . S
H258 N246 0.984 . S
H259 N246 0.985 . S
C260 C261 1.363 . S
C260 C266 1.379 . S
C260 N268 1.356 . S
C261 C260 1.363 . S
C261 C267 1.363 . S
C262 C263 1.363 . S
C262 C267 1.379 . S
C262 N269 1.356 . S
C263 C262 1.363 . S
C263 C266 1.363 . S
N264 C266 1.356 . S
N264 H276 0.984 . S
N264 H277 0.985 . S
N265 C267 1.356 . S
N265 H270 0.984 . S
N265 H271 0.985 . S
C266 C260 1.379 . S
C266 C263 1.363 . S
C266 N264 1.356 . S
C267 C261 1.363 . S
C267 C262 1.379 . S
C267 N265 1.356 . S
N268 C260 1.356 . S
N268 H274 0.984 . S
N268 H275 0.984 . S
N269 C262 1.356 . S
N269 H272 0.984 . S
N269 H273 0.985 . S
H270 N265 0.984 . S
H271 N265 0.985 . S
H272 N269 0.984 . S
H273 N269 0.985 . S
H274 N268 0.984 . S
H275 N268 0.984 . S
H276 N264 0.984 . S
H277 N264 0.985 . S
C278 C279 1.363 . S
C278 C284 1.379 . S
C278 N286 1.356 . S
C279 C278 1.363 . S
C279 C285 1.363 . S
C280 C281 1.363 . S
C280 C285 1.379 . S
C280 N287 1.356 . S
C281 C280 1.363 . S
C281 C284 1.363 . S
N282 C284 1.356 . S
N282 H294 0.984 . S
N282 H295 0.985 . S
N283 C285 1.356 . S
N283 H288 0.984 . S
N283 H289 0.985 . S
C284 C278 1.379 . S
C284 C281 1.363 . S
C284 N282 1.356 . S
C285 C279 1.363 . S
C285 C280 1.379 . S
C285 N283 1.356 . S
N286 C278 1.356 . S
N286 H292 0.984 . S
N286 H293 0.984 . S
N287 C280 1.356 . S
N287 H290 0.984 . S
N287 H291 0.985 . S
H288 N283 0.984 . S
H289 N283 0.985 . S
H290 N287 0.984 . S
H291 N287 0.985 . S
H292 N286 0.984 . S
H293 N286 0.984 . S
H294 N282 0.984 . S
H295 N282 0.985 . S
C296 C297 1.363 . S
C296 C302 1.379 . S
C296 N304 1.356 . S
C297 C296 1.363 . S
C297 C303 1.363 . S
C298 C299 1.363 . S
C298 C303 1.379 . S
C298 N305 1.356 . S
C299 C298 1.363 . S
C299 C302 1.363 . S
N300 C302 1.356 . S
N300 H312 0.984 . S
N300 H313 0.985 . S
N301 C303 1.356 . S
N301 H306 0.984 . S
N301 H307 0.985 . S
C302 C296 1.379 . S
C302 C299 1.363 . S
C302 N300 1.356 . S
C303 C297 1.363 . S
C303 C298 1.379 . S
C303 N301 1.356 . S
N304 C296 1.356 . S
N304 H310 0.984 . S
N304 H311 0.984 . S
N305 C298 1.356 . S
N305 H308 0.984 . S
N305 H309 0.985 . S
H306 N301 0.984 . S
H307 N301 0.985 . S
H308 N305 0.984 . S
H309 N305 0.985 . S
H310 N304 0.984 . S
H311 N304 0.984 . S
H312 N300 0.984 . S
H313 N300 0.985 . S
C314 C315 1.363 . S
C314 C320 1.379 . S
C314 N322 1.356 . S
C315 C314 1.363 . S
C315 C321 1.363 . S
C316 C317 1.363 . S
C316 C321 1.379 . S
C316 N323 1.356 . S
C317 C316 1.363 . S
C317 C320 1.363 . S
N318 C320 1.356 . S
N318 H330 0.984 . S
N318 H331 0.985 . S
N319 C321 1.356 . S
N319 H324 0.984 . S
N319 H325 0.985 . S
C320 C314 1.379 . S
C320 C317 1.363 . S
C320 N318 1.356 . S
C321 C315 1.363 . S
C321 C316 1.379 . S
C321 N319 1.356 . S
N322 C314 1.356 . S
N322 H328 0.984 . S
N322 H329 0.984 . S
N323 C316 1.356 . S
N323 H326 0.984 . S
N323 H327 0.985 . S
H324 N319 0.984 . S
H325 N319 0.985 . S
H326 N323 0.984 . S
H327 N323 0.985 . S
H328 N322 0.984 . S
H329 N322 0.984 . S
H330 N318 0.984 . S
H331 N318 0.985 . S
C332 C333 1.363 . S
C332 C338 1.379 . S
C332 N340 1.356 . S
C333 C332 1.363 . S
C333 C339 1.363 . S
C334 C335 1.363 . S
C334 C339 1.379 . S
C334 N341 1.356 . S
C335 C334 1.363 . S
C335 C338 1.363 . S
N336 C338 1.356 . S
N336 H348 0.984 . S
N336 H349 0.985 . S
N337 C339 1.356 . S
N337 H342 0.984 . S
N337 H343 0.985 . S
C338 C332 1.379 . S
C338 C335 1.363 . S
C338 N336 1.356 . S
C339 C333 1.363 . S
C339 C334 1.379 . S
C339 N337 1.356 . S
N340 C332 1.356 . S
N340 H346 0.984 . S
N340 H347 0.984 . S
N341 C334 1.356 . S
N341 H344 0.984 . S
N341 H345 0.985 . S
H342 N337 0.984 . S
H343 N337 0.985 . S
H344 N341 0.984 . S
H345 N341 0.985 . S
H346 N340 0.984 . S
H347 N340 0.984 . S
H348 N336 0.984 . S
H349 N336 0.985 . S
C350 C351 1.363 . S
C350 C356 1.379 . S
C350 N358 1.356 . S
C351 C350 1.363 . S
C351 C357 1.363 . S
C352 C353 1.363 . S
C352 C357 1.379 . S
C352 N359 1.356 . S
C353 C352 1.363 . S
C353 C356 1.363 . S
N354 C356 1.356 . S
N354 H366 0.984 . S
N354 H367 0.985 . S
N355 C357 1.356 . S
N355 H360 0.984 . S
N355 H361 0.985 . S
C356 C350 1.379 . S
C356 C353 1.363 . S
C356 N354 1.356 . S
C357 C351 1.363 . S
C357 C352 1.379 . S
C357 N355 1.356 . S
N358 C350 1.356 . S
N358 H364 0.984 . S
N358 H365 0.984 . S
N359 C352 1.356 . S
N359 H362 0.984 . S
N359 H363 0.985 . S
H360 N355 0.984 . S
H361 N355 0.985 . S
H362 N359 0.984 . S
H363 N359 0.985 . S
H364 N358 0.984 . S
H365 N358 0.984 . S
H366 N354 0.984 . S
H367 N354 0.985 . S
C368 C369 1.363 1_554 S
C368 C374 1.379 . S
C368 N376 1.356 1_554 S
C369 C368 1.363 1_556 S
C369 C375 1.363 . S
C370 C371 1.363 . S
C370 C375 1.379 1_554 S
C370 N377 1.356 . S
C371 C370 1.363 . S
C371 C374 1.363 . S
N372 C374 1.356 . S
N372 H384 0.984 . S
N372 H385 0.985 . S
N373 C375 1.356 . S
N373 H378 0.984 . S
N373 H379 0.985 . S
C374 C368 1.379 . S
C374 C371 1.363 . S
C374 N372 1.356 . S
C375 C369 1.363 . S
C375 C370 1.379 1_556 S
C375 N373 1.356 . S
N376 C368 1.356 1_556 S
N376 H382 0.984 . S
N376 H383 0.984 . S
N377 C370 1.356 . S
N377 H380 0.984 . S
N377 H381 0.985 . S
H378 N373 0.984 . S
H379 N373 0.985 . S
H380 N377 0.984 . S
H381 N377 0.985 . S
H382 N376 0.984 . S
H383 N376 0.984 . S
H384 N372 0.984 . S
H385 N372 0.985 . S
C386 C387 1.363 . S
C386 C392 1.379 1_556 S
C386 N394 1.356 . S
C387 C386 1.363 . S
C387 C393 1.363 . S
C388 C389 1.363 . S
C388 C393 1.379 1_554 S
C388 N395 1.356 . S
C389 C388 1.363 . S
C389 C392 1.363 . S
N390 C392 1.356 . S
N390 H402 0.984 . S
N390 H403 0.985 . S
N391 C393 1.356 . S
N391 H396 0.984 . S
N391 H397 0.985 . S
C392 C386 1.379 1_554 S
C392 C389 1.363 . S
C392 N390 1.356 . S
C393 C387 1.363 . S
C393 C388 1.379 1_556 S
C393 N391 1.356 . S
N394 C386 1.356 . S
N394 H400 0.984 . S
N394 H401 0.984 . S
N395 C388 1.356 . S
N395 H398 0.984 . S
N395 H399 0.985 . S
H396 N391 0.984 . S
H397 N391 0.985 . S
H398 N395 0.984 . S
H399 N395 0.985 . S
H400 N394 0.984 . S
H401 N394 0.984 . S
H402 N390 0.984 . S
H403 N390 0.985 . S
C404 C405 1.363 . S
C404 C410 1.379 1_556 S
C404 N412 1.356 . S
C405 C404 1.363 . S
C405 C411 1.363 1_556 S
C406 C407 1.363 . S
C406 C411 1.379 . S
C406 N413 1.356 . S
C407 C406 1.363 . S
C407 C410 1.363 . S
N408 C410 1.356 . S
N408 H420 0.984 . S
N408 H421 0.985 . S
N409 C411 1.356 1_556 S
N409 H414 0.984 . S
N409 H415 0.985 . S
C410 C404 1.379 1_554 S
C410 C407 1.363 . S
C410 N408 1.356 . S
C411 C405 1.363 1_554 S
C411 C406 1.379 . S
C411 N409 1.356 1_554 S
N412 C404 1.356 . S
N412 H418 0.984 . S
N412 H419 0.984 . S
N413 C406 1.356 . S
N413 H416 0.984 . S
N413 H417 0.985 . S
H414 N409 0.984 . S
H415 N409 0.985 . S
H416 N413 0.984 . S
H417 N413 0.985 . S
H418 N412 0.984 . S
H419 N412 0.984 . S
H420 N408 0.984 . S
H421 N408 0.985 . S
C422 C423 1.363 1_556 S
C422 C428 1.379 . S
C422 N430 1.356 1_556 S
C423 C422 1.363 1_554 S
C423 C429 1.363 . S
C424 C425 1.363 . S
C424 C429 1.379 1_556 S
C424 N431 1.356 . S
C425 C424 1.363 . S
C425 C428 1.363 . S
N426 C428 1.356 . S
N426 H438 0.984 . S
N426 H439 0.985 . S
N427 C429 1.356 . S
N427 H432 0.984 . S
N427 H433 0.985 . S
C428 C422 1.379 . S
C428 C425 1.363 . S
C428 N426 1.356 . S
C429 C423 1.363 . S
C429 C424 1.379 1_554 S
C429 N427 1.356 . S
N430 C422 1.356 1_554 S
N430 H436 0.984 . S
N430 H437 0.984 . S
N431 C424 1.356 . S
N431 H434 0.984 . S
N431 H435 0.985 . S
H432 N427 0.984 . S
H433 N427 0.985 . S
H434 N431 0.984 . S
H435 N431 0.985 . S
H436 N430 0.984 . S
H437 N430 0.984 . S
H438 N426 0.984 . S
H439 N426 0.985 . S
C440 C441 1.363 . S
C440 C446 1.379 1_455 S
C440 N448 1.356 . S
C441 C440 1.363 . S
C441 C447 1.363 . S
C442 C443 1.363 . S
C442 C447 1.379 1_655 S
C442 N449 1.356 . S
C443 C442 1.363 . S
C443 C446 1.363 . S
N444 C446 1.356 . S
N444 H456 0.984 . S
N444 H457 0.985 . S
N445 C447 1.356 . S
N445 H450 0.984 . S
N445 H451 0.985 . S
C446 C440 1.379 1_655 S
C446 C443 1.363 . S
C446 N444 1.356 . S
C447 C441 1.363 . S
C447 C442 1.379 1_455 S
C447 N445 1.356 . S
N448 C440 1.356 . S
N448 H454 0.984 . S
N448 H455 0.984 . S
N449 C442 1.356 . S
N449 H452 0.984 . S
N449 H453 0.985 . S
H450 N445 0.984 . S
H451 N445 0.985 . S
H452 N449 0.984 . S
H453 N449 0.985 . S
H454 N448 0.984 . S
H455 N448 0.984 . S
H456 N444 0.984 . S
H457 N444 0.985 . S
C458 C459 1.363 . S
C458 C464 1.379 1_565 S
C458 N466 1.356 . S
C459 C458 1.363 . S
C459 C465 1.363 1_565 S
C460 C461 1.363 . S
C460 C465 1.379 . S
C460 N467 1.356 . S
C461 C460 1.363 . S
C461 C464 1.363 . S
N462 C464 1.356 . S
N462 H474 0.984 . S
N462 H475 0.985 . S
N463 C465 1.356 1_565 S
N463 H468 0.984 . S
N463 H469 0.985 . S
C464 C458 1.379 1_545 S
C464 C461 1.363 . S
C464 N462 1.356 . S
C465 C459 1.363 1_545 S
C465 C460 1.379 . S
C465 N463 1.356 1_545 S
N466 C458 1.356 . S
N466 H472 0.984 . S
N466 H473 0.984 . S
N467 C460 1.356 . S
N467 H470 0.984 . S
N467 H471 0.985 . S
H468 N463 0.984 . S
H469 N463 0.985 . S
H470 N467 0.984 . S
H471 N467 0.985 . S
H472 N466 0.984 . S
H473 N466 0.984 . S
H474 N462 0.984 . S
H475 N462 0.985 . S
C476 C477 1.363 . S
C476 C482 1.379 1_655 S
C476 N484 1.356 . S
C477 C476 1.363 . S
C477 C483 1.363 . S
C478 C479 1.363 . S
C478 C483 1.379 1_455 S
C478 N485 1.356 . S
C479 C478 1.363 . S
C479 C482 1.363 . S
N480 C482 1.356 . S
N480 H492 0.984 . S
N480 H493 0.985 . S
N481 C483 1.356 . S
N481 H486 0.984 . S
N481 H487 0.985 . S
C482 C476 1.379 1_455 S
C482 C479 1.363 . S
C482 N480 1.356 . S
C483 C477 1.363 . S
C483 C478 1.379 1_655 S
C483 N481 1.356 . S
N484 C476 1.356 . S
N484 H490 0.984 . S
N484 H491 0.984 . S
N485 C478 1.356 . S
N485 H488 0.984 . S
N485 H489 0.985 . S
H486 N481 0.984 . S
H487 N481 0.985 . S
H488 N485 0.984 . S
H489 N485 0.985 . S
H490 N484 0.984 . S
H491 N484 0.984 . S
H492 N480 0.984 . S
H493 N480 0.985 . S
C494 C495 1.363 . S
C494 C500 1.379 1_545 S
C494 N502 1.356 . S
C495 C494 1.363 . S
C495 C501 1.363 1_545 S
C496 C497 1.363 . S
C496 C501 1.379 . S
C496 N503 1.356 . S
C497 C496 1.363 . S
C497 C500 1.363 . S
N498 C500 1.356 . S
N498 H510 0.984 . S
N498 H511 0.985 . S
N499 C501 1.356 1_545 S
N499 H504 0.984 . S
N499 H505 0.985 . S
C500 C494 1.379 1_565 S
C500 C497 1.363 . S
C500 N498 1.356 . S
C501 C495 1.363 1_565 S
C501 C496 1.379 . S
C501 N499 1.356 1_565 S
N502 C494 1.356 . S
N502 H508 0.984 . S
N502 H509 0.984 . S
N503 C496 1.356 . S
N503 H506 0.984 . S
N503 H507 0.985 . S
H504 N499 0.984 . S
H505 N499 0.985 . S
H506 N503 0.984 . S
H507 N503 0.985 . S
H508 N502 0.984 . S
H509 N502 0.984 . S
H510 N498 0.984 . S
H511 N498 0.985 . S
C512 C513 1.363 . S
C512 C518 1.379 1_655 S
C512 N520 1.356 . S
C513 C512 1.363 . S
C513 C519 1.363 . S
C514 C515 1.363 . S
C514 C519 1.379 1_455 S
C514 N521 1.356 . S
C515 C514 1.363 . S
C515 C518 1.363 . S
N516 C518 1.356 . S
N516 H528 0.984 . S
N516 H529 0.985 . S
N517 C519 1.356 . S
N517 H522 0.984 . S
N517 H523 0.985 . S
C518 C512 1.379 1_455 S
C518 C515 1.363 . S
C518 N516 1.356 . S
C519 C513 1.363 . S
C519 C514 1.379 1_655 S
C519 N517 1.356 . S
N520 C512 1.356 . S
N520 H526 0.984 . S
N520 H527 0.984 . S
N521 C514 1.356 . S
N521 H524 0.984 . S
N521 H525 0.985 . S
H522 N517 0.984 . S
H523 N517 0.985 . S
H524 N521 0.984 . S
H525 N521 0.985 . S
H526 N520 0.984 . S
H527 N520 0.984 . S
H528 N516 0.984 . S
H529 N516 0.985 . S
C530 C531 1.363 . S
C530 C536 1.379 1_565 S
C530 N538 1.356 . S
C531 C530 1.363 . S
C531 C537 1.363 1_565 S
C532 C533 1.363 . S
C532 C537 1.379 . S
C532 N539 1.356 . S
C533 C532 1.363 . S
C533 C536 1.363 . S
N534 C536 1.356 . S
N534 H546 0.984 . S
N534 H547 0.985 . S
N535 C537 1.356 1_565 S
N535 H540 0.984 . S
N535 H541 0.985 . S
C536 C530 1.379 1_545 S
C536 C533 1.363 . S
C536 N534 1.356 . S
C537 C531 1.363 1_545 S
C537 C532 1.379 . S
C537 N535 1.356 1_545 S
N538 C530 1.356 . S
N538 H544 0.984 . S
N538 H545 0.984 . S
N539 C532 1.356 . S
N539 H542 0.984 . S
N539 H543 0.985 . S
H540 N535 0.984 . S
H541 N535 0.985 . S
H542 N539 0.984 . S
H543 N539 0.985 . S
H544 N538 0.984 . S
H545 N538 0.984 . S
H546 N534 0.984 . S
H547 N534 0.985 . S
C548 C549 1.363 . S
C548 C554 1.379 1_455 S
C548 N556 1.356 . S
C549 C548 1.363 . S
C549 C555 1.363 . S
C550 C551 1.363 . S
C550 C555 1.379 1_655 S
C550 N557 1.356 . S
C551 C550 1.363 . S
C551 C554 1.363 . S
N552 C554 1.356 . S
N552 H564 0.984 . S
N552 H565 0.985 . S
N553 C555 1.356 . S
N553 H558 0.984 . S
N553 H559 0.985 . S
C554 C548 1.379 1_655 S
C554 C551 1.363 . S
C554 N552 1.356 . S
C555 C549 1.363 . S
C555 C550 1.379 1_455 S
C555 N553 1.356 . S
N556 C548 1.356 . S
N556 H562 0.984 . S
N556 H563 0.984 . S
N557 C550 1.356 . S
N557 H560 0.984 . S
N557 H561 0.985 . S
H558 N553 0.984 . S
H559 N553 0.985 . S
H560 N557 0.984 . S
H561 N557 0.985 . S
H562 N556 0.984 . S
H563 N556 0.984 . S
H564 N552 0.984 . S
H565 N552 0.985 . S
C566 C567 1.363 . S
C566 C572 1.379 1_565 S
C566 N574 1.356 . S
C567 C566 1.363 . S
C567 C573 1.363 . S
C568 C569 1.363 . S
C568 C573 1.379 1_545 S
C568 N575 1.356 . S
C569 C568 1.363 . S
C569 C572 1.363 . S
N570 C572 1.356 . S
N570 H582 0.984 . S
N570 H583 0.985 . S
N571 C573 1.356 . S
N571 H576 0.984 . S
N571 H577 0.985 . S
C572 C566 1.379 1_545 S
C572 C569 1.363 . S
C572 N570 1.356 . S
C573 C567 1.363 . S
C573 C568 1.379 1_565 S
C573 N571 1.356 . S
N574 C566 1.356 . S
N574 H580 0.984 . S
N574 H581 0.984 . S
N575 C568 1.356 . S
N575 H578 0.984 . S
N575 H579 0.985 . S
H576 N571 0.984 . S
H577 N571 0.985 . S
H578 N575 0.984 . S
H579 N575 0.985 . S
H580 N574 0.984 . S
H581 N574 0.984 . S
H582 N570 0.984 . S
H583 N570 0.985 . S
C584 C585 1.363 . S
C584 C590 1.379 . S
C584 N592 1.356 . S
C585 C584 1.363 . S
C585 C591 1.363 . S
C586 C587 1.363 . S
C586 C591 1.379 . S
C586 N593 1.356 . S
C587 C586 1.363 . S
C587 C590 1.363 . S
N588 C590 1.356 . S
N588 H600 0.984 . S
N588 H601 0.985 . S
N589 C591 1.356 . S
N589 H594 0.984 . S
N589 H595 0.985 . S
C590 C584 1.379 . S
C590 C587 1.363 . S
C590 N588 1.356 . S
C591 C585 1.363 . S
C591 C586 1.379 . S
C591 N589 1.356 . S
N592 C584 1.356 . S
N592 H598 0.984 . S
N592 H599 0.984 . S
N593 C586 1.356 . S
N593 H596 0.984 . S
N593 H597 0.985 . S
H594 N589 0.984 . S
H595 N589 0.985 . S
H596 N593 0.984 . S
H597 N593 0.985 . S
H598 N592 0.984 . S
H599 N592 0.984 . S
H600 N588 0.984 . S
H601 N588 0.985 . S
C602 C603 1.363 . S
C602 C608 1.379 . S
C602 N610 1.356 . S
C603 C602 1.363 . S
C603 C609 1.363 . S
C604 C605 1.363 . S
C604 C609 1.379 . S
C604 N611 1.356 . S
C605 C604 1.363 . S
C605 C608 1.363 . S
N606 C608 1.356 . S
N606 H618 0.984 . S
N606 H619 0.985 . S
N607 C609 1.356 . S
N607 H612 0.984 . S
N607 H613 0.985 . S
C608 C602 1.379 . S
C608 C605 1.363 . S
C608 N606 1.356 . S
C609 C603 1.363 . S
C609 C604 1.379 . S
C609 N607 1.356 . S
N610 C602 1.356 . S
N610 H616 0.984 . S
N610 H617 0.984 . S
N611 C604 1.356 . S
N611 H614 0.984 . S
N611 H615 0.985 . S
H612 N607 0.984 . S
H613 N607 0.985 . S
H614 N611 0.984 . S
H615 N611 0.985 . S
H616 N610 0.984 . S
H617 N610 0.984 . S
H618 N606 0.984 . S
H619 N606 0.985 . S
C620 C621 1.363 . S
C620 C626 1.379 . S
C620 N628 1.356 . S
C621 C620 1.363 . S
C621 C627 1.363 . S
C622 C623 1.363 . S
C622 C627 1.379 . S
C622 N629 1.356 . S
C623 C622 1.363 . S
C623 C626 1.363 . S
N624 C626 1.356 . S
N624 H636 0.984 . S
N624 H637 0.985 . S
N625 C627 1.356 . S
N625 H630 0.984 . S
N625 H631 0.985 . S
C626 C620 1.379 . S
C626 C623 1.363 . S
C626 N624 1.356 . S
C627 C621 1.363 . S
C627 C622 1.379 . S
C627 N625 1.356 . S
N628 C620 1.356 . S
N628 H634 0.984 . S
N628 H635 0.984 . S
N629 C622 1.356 . S
N629 H632 0.984 . S
N629 H633 0.985 . S
H630 N625 0.984 . S
H631 N625 0.985 . S
H632 N629 0.984 . S
H633 N629 0.985 . S
H634 N628 0.984 . S
H635 N628 0.984 . S
H636 N624 0.984 . S
H637 N624 0.985 . S
C638 C639 1.363 . S
C638 C644 1.379 . S
C638 N646 1.356 . S
C639 C638 1.363 . S
C639 C645 1.363 . S
C640 C641 1.363 . S
C640 C645 1.379 . S
C640 N647 1.356 . S
C641 C640 1.363 . S
C641 C644 1.363 . S
N642 C644 1.356 . S
N642 H654 0.984 . S
N642 H655 0.985 . S
N643 C645 1.356 . S
N643 H648 0.984 . S
N643 H649 0.985 . S
C644 C638 1.379 . S
C644 C641 1.363 . S
C644 N642 1.356 . S
C645 C639 1.363 . S
C645 C640 1.379 . S
C645 N643 1.356 . S
N646 C638 1.356 . S
N646 H652 0.984 . S
N646 H653 0.984 . S
N647 C640 1.356 . S
N647 H650 0.984 . S
N647 H651 0.985 . S
H648 N643 0.984 . S
H649 N643 0.985 . S
H650 N647 0.984 . S
H651 N647 0.985 . S
H652 N646 0.984 . S
H653 N646 0.984 . S
H654 N642 0.984 . S
H655 N642 0.985 . S
C656 C657 1.363 . S
C656 C662 1.379 . S
C656 N664 1.356 . S
C657 C656 1.363 . S
C657 C663 1.363 . S
C658 C659 1.363 . S
C658 C663 1.379 . S
C658 N665 1.356 . S
C659 C658 1.363 . S
C659 C662 1.363 . S
N660 C662 1.356 . S
N660 H672 0.984 . S
N660 H673 0.985 . S
N661 C663 1.356 . S
N661 H666 0.984 . S
N661 H667 0.985 . S
C662 C656 1.379 . S
C662 C659 1.363 . S
C662 N660 1.356 . S
C663 C657 1.363 . S
C663 C658 1.379 . S
C663 N661 1.356 . S
N664 C656 1.356 . S
N664 H670 0.984 . S
N664 H671 0.984 . S
N665 C658 1.356 . S
N665 H668 0.984 . S
N665 H669 0.985 . S
H666 N661 0.984 . S
H667 N661 0.985 . S
H668 N665 0.984 . S
H669 N665 0.985 . S
H670 N664 0.984 . S
H671 N664 0.984 . S
H672 N660 0.984 . S
H673 N660 0.985 . S
C674 C675 1.363 . S
C674 C680 1.379 . S
C674 N682 1.356 . S
C675 C674 1.363 . S
C675 C681 1.363 . S
C676 C677 1.363 . S
C676 C681 1.379 . S
C676 N683 1.356 . S
C677 C676 1.363 . S
C677 C680 1.363 . S
N678 C680 1.356 . S
N678 H690 0.984 . S
N678 H691 0.985 . S
N679 C681 1.356 . S
N679 H684 0.984 . S
N679 H685 0.985 . S
C680 C674 1.379 . S
C680 C677 1.363 . S
C680 N678 1.356 . S
C681 C675 1.363 . S
C681 C676 1.379 . S
C681 N679 1.356 . S
N682 C674 1.356 . S
N682 H688 0.984 . S
N682 H689 0.984 . S
N683 C676 1.356 . S
N683 H686 0.984 . S
N683 H687 0.985 . S
H684 N679 0.984 . S
H685 N679 0.985 . S
H686 N683 0.984 . S
H687 N683 0.985 . S
H688 N682 0.984 . S
H689 N682 0.984 . S
H690 N678 0.984 . S
H691 N678 0.985 . S
C692 C693 1.363 . S
C692 C698 1.379 . S
C692 N700 1.356 . S
C693 C692 1.363 . S
C693 C699 1.363 . S
C694 C695 1.363 . S
C694 C699 1.379 . S
C694 N701 1.356 . S
C695 C694 1.363 . S
C695 C698 1.363 . S
N696 C698 1.356 . S
N696 H708 0.984 . S
N696 H709 0.985 . S
N697 C699 1.356 . S
N697 H702 0.984 . S
N697 H703 0.985 . S
C698 C692 1.379 . S
C698 C695 1.363 . S
C698 N696 1.356 . S
C699 C693 1.363 . S
C699 C694 1.379 . S
C699 N697 1.356 . S
N700 C692 1.356 . S
N700 H706 0.984 . S
N700 H707 0.984 . S
N701 C694 1.356 . S
N701 H704 0.984 . S
N701 H705 0.985 . S
H702 N697 0.984 . S
H703 N697 0.985 . S
H704 N701 0.984 . S
H705 N701 0.985 . S
H706 N700 0.984 . S
H707 N700 0.984 . S
H708 N696 0.984 . S
H709 N696 0.985 . S
C710 C711 1.363 . S
C710 C716 1.379 . S
C710 N718 1.356 . S
C711 C710 1.363 . S
C711 C717 1.363 . S
C712 C713 1.363 . S
C712 C717 1.379 . S
C712 N719 1.356 . S
C713 C712 1.363 . S
C713 C716 1.363 . S
N714 C716 1.356 . S
N714 H726 0.984 . S
N714 H727 0.985 . S
N715 C717 1.356 . S
N715 H720 0.984 . S
N715 H721 0.985 . S
C716 C710 1.379 . S
C716 C713 1.363 . S
C716 N714 1.356 . S
C717 C711 1.363 . S
C717 C712 1.379 . S
C717 N715 1.356 . S
N718 C710 1.356 . S
N718 H724 0.984 . S
N718 H725 0.984 . S
N719 C712 1.356 . S
N719 H722 0.984 . S
N719 H723 0.985 . S
H720 N715 0.984 . S
H721 N715 0.985 . S
H722 N719 0.984 . S
H723 N719 0.985 . S
H724 N718 0.984 . S
H725 N718 0.984 . S
H726 N714 0.984 . S
H727 N714 0.985 . S
C728 C729 1.363 . S
C728 C734 1.379 . S
C728 N736 1.356 . S
C729 C728 1.363 . S
C729 C735 1.363 . S
C730 C731 1.363 . S
C730 C735 1.379 . S
C730 N737 1.356 . S
C731 C730 1.363 . S
C731 C734 1.363 . S
N732 C734 1.356 . S
N732 H744 0.984 . S
N732 H745 0.985 . S
N733 C735 1.356 . S
N733 H738 0.984 . S
N733 H739 0.985 . S
C734 C728 1.379 . S
C734 C731 1.363 . S
C734 N732 1.356 . S
C735 C729 1.363 . S
C735 C730 1.379 . S
C735 N733 1.356 . S
N736 C728 1.356 . S
N736 H742 0.984 . S
N736 H743 0.984 . S
N737 C730 1.356 . S
N737 H740 0.984 . S
N737 H741 0.985 . S
H738 N733 0.984 . S
H739 N733 0.985 . S
H740 N737 0.984 . S
H741 N737 0.985 . S
H742 N736 0.984 . S
H743 N736 0.984 . S
H744 N732 0.984 . S
H745 N732 0.985 . S
C746 C747 1.363 . S
C746 C752 1.379 . S
C746 N754 1.356 . S
C747 C746 1.363 . S
C747 C753 1.363 . S
C748 C749 1.363 . S
C748 C753 1.379 . S
C748 N755 1.356 . S
C749 C748 1.363 . S
C749 C752 1.363 . S
N750 C752 1.356 . S
N750 H762 0.984 . S
N750 H763 0.985 . S
N751 C753 1.356 . S
N751 H756 0.984 . S
N751 H757 0.985 . S
C752 C746 1.379 . S
C752 C749 1.363 . S
C752 N750 1.356 . S
C753 C747 1.363 . S
C753 C748 1.379 . S
C753 N751 1.356 . S
N754 C746 1.356 . S
N754 H760 0.984 . S
N754 H761 0.984 . S
N755 C748 1.356 . S
N755 H758 0.984 . S
N755 H759 0.985 . S
H756 N751 0.984 . S
H757 N751 0.985 . S
H758 N755 0.984 . S
H759 N755 0.985 . S
H760 N754 0.984 . S
H761 N754 0.984 . S
H762 N750 0.984 . S
H763 N750 0.985 . S
C764 C765 1.363 . S
C764 C770 1.379 . S
C764 N772 1.356 . S
C765 C764 1.363 . S
C765 C771 1.363 . S
C766 C767 1.363 . S
C766 C771 1.379 . S
C766 N773 1.356 . S
C767 C766 1.363 . S
C767 C770 1.363 . S
N768 C770 1.356 . S
N768 H780 0.984 . S
N768 H781 0.985 . S
N769 C771 1.356 . S
N769 H774 0.984 . S
N769 H775 0.985 . S
C770 C764 1.379 . S
C770 C767 1.363 . S
C770 N768 1.356 . S
C771 C765 1.363 . S
C771 C766 1.379 . S
C771 N769 1.356 . S
N772 C764 1.356 . S
N772 H778 0.984 . S
N772 H779 0.984 . S
N773 C766 1.356 . S
N773 H776 0.984 . S
N773 H777 0.985 . S
H774 N769 0.984 . S
H775 N769 0.985 . S
H776 N773 0.984 . S
H777 N773 0.985 . S
H778 N772 0.984 . S
H779 N772 0.984 . S
H780 N768 0.984 . S
H781 N768 0.985 . S
C782 C783 1.363 . S
C782 C788 1.379 . S
C782 N790 1.356 . S
C783 C782 1.363 . S
C783 C789 1.363 . S
C784 C785 1.363 . S
C784 C789 1.379 . S
C784 N791 1.356 . S
C785 C784 1.363 . S
C785 C788 1.363 . S
N786 C788 1.356 . S
N786 H798 0.984 . S
N786 H799 0.985 . S
N787 C789 1.356 . S
N787 H792 0.984 . S
N787 H793 0.985 . S
C788 C782 1.379 . S
C788 C785 1.363 . S
C788 N786 1.356 . S
C789 C783 1.363 . S
C789 C784 1.379 . S
C789 N787 1.356 . S
N790 C782 1.356 . S
N790 H796 0.984 . S
N790 H797 0.984 . S
N791 C784 1.356 . S
N791 H794 0.984 . S
N791 H795 0.985 . S
H792 N787 0.984 . S
H793 N787 0.985 . S
H794 N791 0.984 . S
H795 N791 0.985 . S
H796 N790 0.984 . S
H797 N790 0.984 . S
H798 N786 0.984 . S
H799 N786 0.985 . S
C225 C221 1.137 . S
C227 C11 1.137 . S
C243 C179 1.137 . S
C245 C25 1.137 . S
C261 C39 1.137 . S
C263 C193 1.137 . S
C279 C207 1.137 . S
C281 C53 1.137 . S
C297 C137 1.137 . S
C299 C67 1.137 . S
C315 C81 1.137 . S
C317 C151 1.137 . S
C333 C95 1.137 . S
C335 C165 1.137 . S
C351 C109 1.137 . S
C353 C123 1.137 . S
C369 C83 1.256 . S
C371 C8 1.438 . S
C387 C92 1.438 . S
C389 C27 1.256 . S
C405 C111 1.256 . S
C407 C36 1.438 . S
C423 C55 1.256 . S
C425 C64 1.438 . S
C441 C7 1.418 . S
C443 C21 1.418 . S
C459 C41 1.256 . S
C461 C22 1.438 . S
C477 C35 1.418 . S
C479 C49 1.418 . S
C495 C13 1.256 . S
C497 C50 1.438 . S
C513 C105 1.418 . S
C515 C63 1.418 . S
C531 C69 1.256 . S
C533 C78 1.438 . S
C549 C77 1.418 . S
C551 C91 1.418 . S
C567 C106 1.438 . S
C569 C97 1.256 . S
C585 C195 1.256 . S
C587 C120 1.438 . S
C603 C139 1.256 . S
C605 C204 1.438 . S
C621 C223 1.256 . S
C623 C148 1.438 . S
C639 C176 1.438 . S
C641 C167 1.256 . S
C657 C119 1.418 . S
C659 C133 1.418 . S
C675 C134 1.438 . S
C677 C153 1.256 . S
C693 C161 1.418 . S
C695 C147 1.418 . S
C711 C125 1.256 . S
C713 C162 1.438 . S
C729 C217 1.418 . S
C731 C175 1.418 . S
C747 C181 1.256 . S
C749 C190 1.438 . S
C765 C189 1.418 . S
C767 C203 1.418 . S
C783 C218 1.438 . S
C785 C209 1.256 . S
