# Generated by pormake.
# Topology lcy-e, (6)-cn, num edge types: 1
# Building blocks:
#     Node 0, Type 0, BuildingBlock: PAMTUU_clean_sbu_0, # of connection points: 6
#     Node 1, Type 0, BuildingBlock: PAMTUU_clean_sbu_0, # of connection points: 6
#     Node 2, Type 0, BuildingBlock: PAMTUU_clean_sbu_0, # of connection points: 6
#     Node 3, Type 0, BuildingBlock: PAMTUU_clean_sbu_0, # of connection points: 6
#     Node 4, Type 0, BuildingBlock: PAMTUU_clean_sbu_0, # of connection points: 6
#     Node 5, Type 0, BuildingBlock: PAMTUU_clean_sbu_0, # of connection points: 6
#     Node 6, Type 0, BuildingBlock: PAMTUU_clean_sbu_0, # of connection points: 6
#     Node 7, Type 0, BuildingBlock: PAMTUU_clean_sbu_0, # of connection points: 6
#     Node 8, Type 0, BuildingBlock: PAMTUU_clean_sbu_0, # of connection points: 6
#     Node 9, Type 0, BuildingBlock: PAMTUU_clean_sbu_0, # of connection points: 6
#     Node 10, Type 0, BuildingBlock: PAMTUU_clean_sbu_0, # of connection points: 6
#     Node 11, Type 0, BuildingBlock: PAMTUU_clean_sbu_0, # of connection points: 6
#     Edge 12, Type (0, 0), BuildingBlock: XIVTED_clean_linker_0, # of connection points: 2
#     Edge 13, Type (0, 0), BuildingBlock: XIVTED_clean_linker_0, # of connection points: 2
#     Edge 14, Type (0, 0), BuildingBlock: XIVTED_clean_linker_0, # of connection points: 2
#     Edge 15, Type (0, 0), BuildingBlock: XIVTED_clean_linker_0, # of connection points: 2
#     Edge 16, Type (0, 0), BuildingBlock: XIVTED_clean_linker_0, # of connection points: 2
#     Edge 17, Type (0, 0), BuildingBlock: XIVTED_clean_linker_0, # of connection points: 2
#     Edge 18, Type (0, 0), BuildingBlock: XIVTED_clean_linker_0, # of connection points: 2
#     Edge 19, Type (0, 0), BuildingBlock: XIVTED_clean_linker_0, # of connection points: 2
#     Edge 20, Type (0, 0), BuildingBlock: XIVTED_clean_linker_0, # of connection points: 2
#     Edge 21, Type (0, 0), BuildingBlock: XIVTED_clean_linker_0, # of connection points: 2
#     Edge 22, Type (0, 0), BuildingBlock: XIVTED_clean_linker_0, # of connection points: 2
#     Edge 23, Type (0, 0), BuildingBlock: XIVTED_clean_linker_0, # of connection points: 2
#     Edge 24, Type (0, 0), BuildingBlock: XIVTED_clean_linker_0, # of connection points: 2
#     Edge 25, Type (0, 0), BuildingBlock: XIVTED_clean_linker_0, # of connection points: 2
#     Edge 26, Type (0, 0), BuildingBlock: XIVTED_clean_linker_0, # of connection points: 2
#     Edge 27, Type (0, 0), BuildingBlock: XIVTED_clean_linker_0, # of connection points: 2
#     Edge 28, Type (0, 0), BuildingBlock: XIVTED_clean_linker_0, # of connection points: 2
#     Edge 29, Type (0, 0), BuildingBlock: XIVTED_clean_linker_0, # of connection points: 2
#     Edge 30, Type (0, 0), BuildingBlock: XIVTED_clean_linker_0, # of connection points: 2
#     Edge 31, Type (0, 0), BuildingBlock: XIVTED_clean_linker_0, # of connection points: 2
#     Edge 32, Type (0, 0), BuildingBlock: XIVTED_clean_linker_0, # of connection points: 2
#     Edge 33, Type (0, 0), BuildingBlock: XIVTED_clean_linker_0, # of connection points: 2
#     Edge 34, Type (0, 0), BuildingBlock: XIVTED_clean_linker_0, # of connection points: 2
#     Edge 35, Type (0, 0), BuildingBlock: XIVTED_clean_linker_0, # of connection points: 2
#     Edge 36, Type (0, 0), BuildingBlock: XIVTED_clean_linker_0, # of connection points: 2
#     Edge 37, Type (0, 0), BuildingBlock: XIVTED_clean_linker_0, # of connection points: 2
#     Edge 38, Type (0, 0), BuildingBlock: XIVTED_clean_linker_0, # of connection points: 2
#     Edge 39, Type (0, 0), BuildingBlock: XIVTED_clean_linker_0, # of connection points: 2
#     Edge 40, Type (0, 0), BuildingBlock: XIVTED_clean_linker_0, # of connection points: 2
#     Edge 41, Type (0, 0), BuildingBlock: XIVTED_clean_linker_0, # of connection points: 2
#     Edge 42, Type (0, 0), BuildingBlock: XIVTED_clean_linker_0, # of connection points: 2
#     Edge 43, Type (0, 0), BuildingBlock: XIVTED_clean_linker_0, # of connection points: 2
#     Edge 44, Type (0, 0), BuildingBlock: XIVTED_clean_linker_0, # of connection points: 2
#     Edge 45, Type (0, 0), BuildingBlock: XIVTED_clean_linker_0, # of connection points: 2
#     Edge 46, Type (0, 0), BuildingBlock: XIVTED_clean_linker_0, # of connection points: 2
#     Edge 47, Type (0, 0), BuildingBlock: XIVTED_clean_linker_0, # of connection points: 2
# Relax obj value: 0.149
# Max RMSD: 0.297
# Mean RMSD: 0.284
data_MOF--net-lcy-e--node1-PAMTUU_clean_sbu_0--edge1-XIVTED_clean_linker_0
_symmetry_space_group_name_H-M    P1
_symmetry_Int_Tables_number       1
_symmetry_cell_setting            triclinic
loop_
_symmetry_equiv_pos_as_xyz
'x, y, z'
_cell_length_a     44.792479
_cell_length_b     44.792797
_cell_length_c     44.754916
_cell_angle_alpha  90.027237
_cell_angle_beta   90.252936
_cell_angle_gamma 89.442161
loop_
_atom_site_label
_atom_site_type_symbol
_atom_site_fract_x
_atom_site_fract_y
_atom_site_fract_z
_atom_type_partial_charge
Tb0 Tb 0.09814 0.28333 0.47157 0.0
Tb1 Tb 0.11675 0.23394 0.52228 0.0
C2 C 0.06779 0.28032 0.53522 0.0
C3 C 0.09939 0.33344 0.40477 0.0
C4 C 0.12415 0.36002 0.3534 0.0
C5 C 0.10976 0.37755 0.37525 0.0
C6 C 0.0974 0.36436 0.40055 0.0
C7 C 0.1146 0.31587 0.38355 0.0
C8 C 0.12679 0.32904 0.35807 0.0
C9 C 0.08457 0.32001 0.43082 0.0
O10 O 0.13997 0.29838 0.49029 0.0
O11 O 0.13487 0.27706 0.53652 0.0
O12 O 0.15462 0.2382 0.4931 0.0
O13 O 0.12959 0.25196 0.45063 0.0
O14 O 0.12125 0.22086 0.56711 0.0
O15 O 0.13494 0.19147 0.53127 0.0
O16 O 0.08756 0.21177 0.48995 0.0
O17 O 0.06106 0.253 0.47517 0.0
O18 O 0.07864 0.29779 0.51425 0.0
O19 O 0.07383 0.25166 0.53562 0.0
C20 C 0.14558 0.29806 0.51905 0.0
O21 O 0.07921 0.29148 0.42945 0.0
O22 O 0.09434 0.32795 0.4571 0.0
C23 C 0.15321 0.24029 0.46396 0.0
C24 C 0.11484 0.16877 0.574 0.0
C25 C 0.08685 0.11976 0.6013 0.0
C26 C 0.11503 0.11636 0.58798 0.0
C27 C 0.12892 0.14068 0.57456 0.0
C28 C 0.08639 0.17214 0.58675 0.0
C29 C 0.0726 0.14787 0.60042 0.0
C30 C 0.1302 0.19401 0.55987 0.0
C31 C 0.06364 0.22397 0.47774 0.0
H32 H 0.10792 0.40155 0.3728 0.0
H33 H 0.08597 0.37835 0.41671 0.0
H34 H 0.11665 0.29192 0.38635 0.0
H35 H 0.13756 0.31484 0.34168 0.0
H36 H 0.1267 0.09507 0.58861 0.0
H37 H 0.15082 0.1376 0.56477 0.0
H38 H 0.07486 0.19351 0.58631 0.0
H39 H 0.05075 0.15107 0.61027 0.0
Tb40 Tb 0.0275 0.91199 0.78095 0.0
Tb41 Tb 0.97623 0.89058 0.73288 0.0
C42 C 0.96241 0.94042 0.77814 0.0
C43 C 0.09583 0.91204 0.82913 0.0
C44 C 0.14815 0.88673 0.8547 0.0
C45 C 0.12696 0.90171 0.87258 0.0
C46 C 0.10121 0.91432 0.8599 0.0
C47 C 0.11646 0.89639 0.81124 0.0
C48 C 0.14239 0.88394 0.82389 0.0
C49 C 0.06903 0.92671 0.81619 0.0
O50 O 0.01039 0.87062 0.79804 0.0
O51 O 0.96373 0.8724 0.77656 0.0
O52 O 0.00714 0.85396 0.73843 0.0
O53 O 0.04876 0.8808 0.74956 0.0
O54 O 0.93147 0.88584 0.71941 0.0
O55 O 0.96771 0.86989 0.69178 0.0
O56 O 0.00687 0.92026 0.7096 0.0
O57 O 0.02088 0.94828 0.74986 0.0
O58 O 0.98442 0.93096 0.79556 0.0
O59 O 0.9612 0.93327 0.74977 0.0
C60 C 0.98195 0.86404 0.79831 0.0
O61 O 0.06925 0.93177 0.7875 0.0
O62 O 0.04325 0.9169 0.8251 0.0
C63 C 0.03616 0.85665 0.73879 0.0
C64 C 0.92471 0.88789 0.66715 0.0
C65 C 0.89677 0.91213 0.61594 0.0
C66 C 0.88592 0.88596 0.6293 0.0
C67 C 0.89978 0.87399 0.65464 0.0
C68 C 0.93586 0.91391 0.65391 0.0
C69 C 0.92204 0.92589 0.62838 0.0
C70 C 0.93901 0.87456 0.69362 0.0
C71 C 0.01767 0.945 0.72096 0.0
H72 H 0.1302 0.90372 0.89648 0.0
H73 H 0.08552 0.92607 0.87416 0.0
H74 H 0.1128 0.89409 0.78741 0.0
H75 H 0.15823 0.87276 0.80938 0.0
H76 H 0.86677 0.87458 0.62001 0.0
H77 H 0.89103 0.85379 0.66446 0.0
H78 H 0.95516 0.92494 0.66333 0.0
H79 H 0.93075 0.94619 0.61875 0.0
Tb80 Tb 0.37671 0.75568 0.97722 0.0
Tb81 Tb 0.35719 0.80634 0.02701 0.0
C82 C 0.4039 0.75822 0.0427 0.0
C83 C 0.37557 0.70373 0.91173 0.0
C84 C 0.35057 0.67687 0.86029 0.0
C85 C 0.36861 0.66021 0.88018 0.0
C86 C 0.38103 0.67354 0.90552 0.0
C87 C 0.35685 0.72033 0.89252 0.0
C88 C 0.34452 0.70704 0.867 0.0
C89 C 0.39025 0.7175 0.93784 0.0
O90 O 0.33306 0.74378 0.9928 0.0
O91 O 0.3361 0.76408 0.03964 0.0
O92 O 0.32152 0.80462 0.99464 0.0
O93 O 0.34805 0.78834 0.95404 0.0
O94 O 0.35265 0.82035 0.07168 0.0
O95 O 0.33861 0.84865 0.03508 0.0
O96 O 0.38916 0.82721 0.99679 0.0
O97 O 0.41442 0.7849 0.98259 0.0
O98 O 0.39342 0.74094 0.02125 0.0
O99 O 0.3988 0.78706 0.04265 0.0
C100 C 0.32631 0.74332 0.02121 0.0
O101 O 0.39628 0.74586 0.93586 0.0
O102 O 0.37968 0.71061 0.96401 0.0
C103 C 0.32494 0.80243 0.9657 0.0
C104 C 0.35751 0.87242 0.0779 0.0
C105 C 0.38374 0.92272 0.10487 0.0
C106 C 0.35771 0.91012 0.11678 0.0
C107 C 0.34473 0.88523 0.1034 0.0
C108 C 0.38351 0.88479 0.06584 0.0
C109 C 0.39647 0.90986 0.07917 0.0
C110 C 0.3429 0.84674 0.06383 0.0
C111 C 0.41286 0.814 0.98532 0.0
H112 H 0.3732 0.63677 0.87618 0.0
H113 H 0.39518 0.66027 0.92017 0.0
H114 H 0.35213 0.74368 0.89696 0.0
H115 H 0.33089 0.72061 0.85217 0.0
H116 H 0.34712 0.91973 0.1363 0.0
H117 H 0.32457 0.87607 0.11287 0.0
H118 H 0.3937 0.87512 0.04612 0.0
H119 H 0.41666 0.9189 0.06965 0.0
Tb120 Tb 0.44922 0.13678 0.27598 0.0
Tb121 Tb 0.49855 0.15776 0.22618 0.0
C122 C 0.51522 0.10998 0.27248 0.0
C123 C 0.38303 0.13535 0.32622 0.0
C124 C 0.33213 0.16116 0.35317 0.0
C125 C 0.34391 0.13376 0.36345 0.0
C126 C 0.3691 0.12101 0.35009 0.0
C127 C 0.37141 0.16263 0.31568 0.0
C128 C 0.34606 0.1754 0.329 0.0
C129 C 0.40933 0.12129 0.31239 0.0
O130 O 0.46537 0.17933 0.29119 0.0
O131 O 0.51171 0.17643 0.26983 0.0
O132 O 0.46741 0.19414 0.23146 0.0
O133 O 0.42652 0.16715 0.2445 0.0
O134 O 0.54295 0.16384 0.21248 0.0
O135 O 0.50594 0.17663 0.18401 0.0
O136 O 0.46845 0.12604 0.20425 0.0
O137 O 0.45575 0.0998 0.24596 0.0
O138 O 0.49302 0.11848 0.29002 0.0
O139 O 0.51519 0.11624 0.24391 0.0
C140 C 0.49378 0.18587 0.29133 0.0
O141 O 0.40771 0.11705 0.28361 0.0
O142 O 0.43524 0.13168 0.32046 0.0
C143 C 0.43845 0.19142 0.23329 0.0
C144 C 0.54959 0.15909 0.1604 0.0
C145 C 0.57811 0.13317 0.11043 0.0
C146 C 0.58713 0.16109 0.12155 0.0
C147 C 0.573 0.17389 0.14627 0.0
C148 C 0.54035 0.13126 0.14948 0.0
C149 C 0.55444 0.11843 0.12461 0.0
C150 C 0.53482 0.17331 0.1861 0.0
C151 C 0.45798 0.1018 0.21691 0.0
H152 H 0.33348 0.12199 0.38171 0.0
H153 H 0.37769 0.09987 0.35838 0.0
H154 H 0.38195 0.17403 0.29722 0.0
H155 H 0.33771 0.19663 0.32074 0.0
H156 H 0.60494 0.17328 0.11092 0.0
H157 H 0.58029 0.19546 0.1543 0.0
H158 H 0.52227 0.11949 0.16017 0.0
H159 H 0.54714 0.0968 0.11679 0.0
Tb160 Tb 0.5965 0.26234 0.55269 0.0
Tb161 Tb 0.62293 0.30148 0.49656 0.0
C162 C 0.57667 0.25221 0.48679 0.0
C163 C 0.59117 0.21714 0.62208 0.0
C164 C 0.61885 0.18647 0.67009 0.0
C165 C 0.5926 0.20331 0.67462 0.0
C166 C 0.57887 0.21843 0.65082 0.0
C167 C 0.61747 0.20048 0.61743 0.0
C168 C 0.63108 0.18514 0.64118 0.0
C169 C 0.57719 0.23462 0.59776 0.0
O170 O 0.6281 0.23239 0.53204 0.0
O171 O 0.65341 0.26257 0.49864 0.0
O172 O 0.63994 0.31953 0.53822 0.0
O173 O 0.64132 0.27629 0.56503 0.0
O174 O 0.61738 0.31592 0.45241 0.0
O175 O 0.65341 0.33276 0.47945 0.0
O176 O 0.57917 0.3201 0.50781 0.0
O177 O 0.58039 0.30772 0.55712 0.0
O178 O 0.56636 0.25698 0.51398 0.0
O179 O 0.60276 0.26202 0.47877 0.0
C180 C 0.64933 0.23665 0.51236 0.0
O181 O 0.58342 0.26293 0.5977 0.0
O182 O 0.57825 0.22329 0.57092 0.0
C183 C 0.65148 0.30313 0.55967 0.0
C184 C 0.62982 0.36607 0.44523 0.0
C185 C 0.60875 0.42091 0.42137 0.0
C186 C 0.63527 0.40752 0.41075 0.0
C187 C 0.6456 0.38033 0.42248 0.0
C188 C 0.60418 0.37998 0.45697 0.0
C189 C 0.59373 0.40712 0.44516 0.0
C190 C 0.63851 0.33557 0.45448 0.0
C191 C 0.57011 0.32424 0.53529 0.0
H192 H 0.58245 0.20453 0.69651 0.0
H193 H 0.55872 0.23135 0.6549 0.0
H194 H 0.62764 0.19955 0.59552 0.0
H195 H 0.65146 0.17264 0.63703 0.0
H196 H 0.6478 0.41775 0.3929 0.0
H197 H 0.66545 0.37 0.41315 0.0
H198 H 0.59159 0.36933 0.47452 0.0
H199 H 0.57315 0.41655 0.45379 0.0
Tb200 Tb 0.99878 0.39006 0.79487 0.0
Tb201 Tb 0.94961 0.40847 0.74309 0.0
C202 C 0.99647 0.35985 0.73122 0.0
C203 C 0.04967 0.39321 0.86149 0.0
C204 C 0.0771 0.419 0.91231 0.0
C205 C 0.09319 0.41474 0.88568 0.0
C206 C 0.07969 0.40187 0.86065 0.0
C207 C 0.03329 0.39813 0.88785 0.0
C208 C 0.04685 0.41091 0.91295 0.0
C209 C 0.03634 0.37782 0.8354 0.0
O210 O 0.01033 0.43365 0.77859 0.0
O211 O 0.99282 0.42817 0.73104 0.0
O212 O 0.94981 0.44478 0.77489 0.0
O213 O 0.96583 0.4192 0.81644 0.0
O214 O 0.9377 0.41101 0.69757 0.0
O215 O 0.90819 0.42759 0.73191 0.0
O216 O 0.9271 0.37778 0.77363 0.0
O217 O 0.96857 0.35301 0.79143 0.0
O218 O 0.01383 0.3714 0.75199 0.0
O219 O 0.96775 0.3654 0.73081 0.0
C220 C 0.01251 0.43915 0.75 0.0
O221 O 0.00806 0.37137 0.83687 0.0
O222 O 0.04361 0.3876 0.80898 0.0
C223 C 0.95197 0.4421 0.804 0.0
C224 C 0.88583 0.40662 0.68919 0.0
C225 C 0.83487 0.38108 0.66247 0.0
C226 C 0.8455 0.37067 0.69027 0.0
C227 C 0.8708 0.38329 0.70349 0.0
C228 C 0.87582 0.41653 0.6612 0.0
C229 C 0.85066 0.40385 0.64791 0.0
C230 C 0.9112 0.4216 0.70358 0.0
C231 C 0.93958 0.35496 0.78767 0.0
H232 H 0.11638 0.42118 0.88417 0.0
H233 H 0.09288 0.39832 0.84071 0.0
H234 H 0.01013 0.39161 0.88935 0.0
H235 H 0.03386 0.41357 0.93314 0.0
H236 H 0.83383 0.35335 0.70223 0.0
H237 H 0.87828 0.37525 0.72511 0.0
H238 H 0.88726 0.43437 0.64976 0.0
H239 H 0.84354 0.41199 0.62622 0.0
Tb240 Tb 0.84582 0.73401 0.99975 0.0
Tb241 Tb 0.86618 0.7834 0.04995 0.0
C242 C 0.81803 0.79922 1.00345 0.0
C243 C 0.84584 0.66839 0.94773 0.0
C244 C 0.87029 0.61801 0.91806 0.0
C245 C 0.86088 0.64339 0.90187 0.0
C246 C 0.84868 0.66818 0.91653 0.0
C247 C 0.85585 0.64337 0.96408 0.0
C248 C 0.86791 0.61846 0.94939 0.0
C249 C 0.83133 0.69427 0.96251 0.0
O250 O 0.88795 0.75098 0.98483 0.0
O251 O 0.88594 0.79711 0.0072 0.0
O252 O 0.90316 0.75288 0.04466 0.0
O253 O 0.87705 0.71158 0.0306 0.0
O254 O 0.87033 0.82756 0.06515 0.0
O255 O 0.88572 0.7904 0.09206 0.0
O256 O 0.83607 0.75182 0.07153 0.0
O257 O 0.80898 0.73929 0.03017 0.0
O258 O 0.82804 0.77782 0.98574 0.0
O259 O 0.82399 0.79914 0.03212 0.0
C260 C 0.89478 0.77934 0.98531 0.0
O261 O 0.82672 0.69231 0.9912 0.0
O262 O 0.84068 0.72068 0.95493 0.0
C263 C 0.90107 0.72388 0.04215 0.0
C264 C 0.86512 0.8313 0.1177 0.0
C265 C 0.83668 0.8534 0.16943 0.0
C266 C 0.86756 0.8474 0.16949 0.0
C267 C 0.88163 0.83652 0.14383 0.0
C268 C 0.83419 0.83679 0.11763 0.0
C269 C 0.82013 0.84792 0.14322 0.0
C270 C 0.88033 0.81902 0.09126 0.0
C271 C 0.81174 0.74102 0.05922 0.0
H272 H 0.86289 0.64414 0.87778 0.0
H273 H 0.84118 0.68716 0.9034 0.0
H274 H 0.85398 0.64277 0.98819 0.0
H275 H 0.87462 0.59925 0.96258 0.0
H276 H 0.88096 0.85171 0.1892 0.0
H277 H 0.90547 0.83218 0.14436 0.0
H278 H 0.82092 0.83244 0.09783 0.0
H279 H 0.79627 0.85206 0.14259 0.0
Tb280 Tb 0.52106 0.63373 0.25493 0.0
Tb281 Tb 0.46955 0.6491 0.30469 0.0
C282 C 0.45818 0.6022 0.25638 0.0
C283 C 0.58712 0.63869 0.20381 0.0
C284 C 0.63587 0.66615 0.17514 0.0
C285 C 0.60634 0.67274 0.16631 0.0
C286 C 0.58224 0.65916 0.18045 0.0
C287 C 0.61659 0.63246 0.21295 0.0
C288 C 0.64069 0.64613 0.19889 0.0
C289 C 0.56203 0.62261 0.21781 0.0
O290 O 0.50226 0.67644 0.24223 0.0
O291 O 0.45577 0.66908 0.2617 0.0
O292 O 0.49865 0.68734 0.30364 0.0
O293 O 0.54133 0.66391 0.28764 0.0
O294 O 0.42413 0.6509 0.31672 0.0
O295 O 0.45856 0.66594 0.34697 0.0
O296 O 0.50217 0.6192 0.32647 0.0
O297 O 0.51878 0.59559 0.28429 0.0
O298 O 0.47874 0.61445 0.23945 0.0
O299 O 0.458 0.60653 0.28532 0.0
C300 C 0.47339 0.68126 0.24161 0.0
O301 O 0.56431 0.61746 0.2464 0.0
O302 O 0.53494 0.63059 0.21024 0.0
C303 C 0.52779 0.68636 0.30112 0.0
C304 C 0.41507 0.64541 0.3686 0.0
C305 C 0.38554 0.6218 0.41896 0.0
C306 C 0.36972 0.63837 0.39724 0.0
C307 C 0.38436 0.6501 0.37243 0.0
C308 C 0.43085 0.62797 0.38959 0.0
C309 C 0.41622 0.61631 0.41456 0.0
C310 C 0.43023 0.66037 0.34358 0.0
C311 C 0.5162 0.59676 0.31341 0.0
H312 H 0.60185 0.68831 0.1483 0.0
H313 H 0.55984 0.66445 0.17278 0.0
H314 H 0.62107 0.61655 0.23068 0.0
H315 H 0.66313 0.64026 0.20598 0.0
H316 H 0.34598 0.6425 0.39948 0.0
H317 H 0.37173 0.66336 0.35645 0.0
H318 H 0.45459 0.6239 0.3871 0.0
H319 H 0.42918 0.60382 0.43087 0.0
Tb320 Tb 0.24897 0.48653 0.12724 0.0
Tb321 Tb 0.19789 0.53561 0.14787 0.0
C322 C 0.24409 0.552 0.1004 0.0
C323 C 0.30048 0.42079 0.12627 0.0
C324 C 0.32733 0.36987 0.1523 0.0
C325 C 0.33833 0.38179 0.12546 0.0
C326 C 0.325 0.407 0.11259 0.0
C327 C 0.28915 0.40895 0.15292 0.0
C328 C 0.30242 0.38357 0.1658 0.0
C329 C 0.28679 0.44721 0.1122 0.0
O330 O 0.26229 0.50241 0.17083 0.0
O331 O 0.24087 0.54893 0.16755 0.0
O332 O 0.20182 0.50336 0.18333 0.0
O333 O 0.21723 0.46309 0.15575 0.0
O334 O 0.18334 0.58003 0.15375 0.0
O335 O 0.15573 0.54303 0.16671 0.0
O336 O 0.17669 0.50548 0.11566 0.0
O337 O 0.21873 0.49184 0.09002 0.0
O338 O 0.26208 0.5302 0.10932 0.0
O339 O 0.21551 0.55188 0.1064 0.0
C340 C 0.26192 0.5308 0.17782 0.0
O341 O 0.25828 0.44549 0.10665 0.0
O342 O 0.29389 0.47299 0.12361 0.0
C343 C 0.20402 0.47448 0.1794 0.0
C344 C 0.1312 0.58604 0.14854 0.0
C345 C 0.0809 0.61363 0.12183 0.0
C346 C 0.09332 0.62507 0.14837 0.0
C347 C 0.1182 0.61138 0.16158 0.0
C348 C 0.11897 0.5744 0.12208 0.0
C349 C 0.0939 0.58803 0.10888 0.0
C350 C 0.15715 0.57184 0.16312 0.0
C351 C 0.18964 0.49382 0.09196 0.0
H352 H 0.35722 0.37152 0.1143 0.0
H353 H 0.33388 0.41575 0.09191 0.0
H354 H 0.27017 0.4194 0.16377 0.0
H355 H 0.29361 0.37506 0.18659 0.0
H356 H 0.0836 0.64452 0.15912 0.0
H357 H 0.12727 0.62055 0.18207 0.0
H358 H 0.1288 0.55484 0.11165 0.0
H359 H 0.08502 0.57886 0.08832 0.0
Tb360 Tb 0.75009 0.06116 0.89601 0.0
Tb361 Tb 0.70013 0.01103 0.87843 0.0
C362 C 0.74727 0.99737 0.92657 0.0
C363 C 0.80142 0.12682 0.89224 0.0
C364 C 0.82942 0.17706 0.86662 0.0
C365 C 0.84611 0.15138 0.87435 0.0
C366 C 0.8323 0.12666 0.88714 0.0
C367 C 0.78449 0.15209 0.88375 0.0
C368 C 0.79835 0.17693 0.87108 0.0
C369 C 0.78772 0.10119 0.90776 0.0
O370 O 0.7627 0.04337 0.85299 0.0
O371 O 0.74327 0.99688 0.85951 0.0
O372 O 0.70259 0.04152 0.8411 0.0
O373 O 0.71692 0.08297 0.86701 0.0
O374 O 0.68741 0.96616 0.87389 0.0
O375 O 0.65754 1.00214 0.86117 0.0
O376 O 0.67872 0.04219 0.90976 0.0
O377 O 0.72087 0.05782 0.93404 0.0
O378 O 0.76466 0.01814 0.91532 0.0
O379 O 0.71855 0.99715 0.92091 0.0
C380 C 0.76346 0.01461 0.84787 0.0
O381 O 0.75937 0.10328 0.91404 0.0
O382 O 0.79497 0.07456 0.89825 0.0
C383 C 0.70454 0.07058 0.84341 0.0
C384 C 0.63578 0.95837 0.87993 0.0
C385 C 0.58745 0.9292 0.90717 0.0
C386 C 0.59898 0.91902 0.87975 0.0
C387 C 0.62289 0.93348 0.86629 0.0
C388 C 0.62448 0.96874 0.9073 0.0
C389 C 0.60041 0.95431 0.92078 0.0
C390 C 0.66058 0.97341 0.86493 0.0
C391 C 0.69182 0.05484 0.93288 0.0
H392 H 0.86999 0.15041 0.87072 0.0
H393 H 0.84588 0.10751 0.89345 0.0
H394 H 0.76061 0.15299 0.88739 0.0
H395 H 0.78482 0.19636 0.86566 0.0
H396 H 0.58925 0.90004 0.86845 0.0
H397 H 0.63124 0.92529 0.8451 0.0
H398 H 0.63425 0.98796 0.91817 0.0
H399 H 0.59222 0.96254 0.94201 0.0
Tb400 Tb 0.72268 0.97876 0.40334 0.0
Tb401 Tb 0.77299 0.02635 0.37919 0.0
C402 C 0.73021 0.04437 0.42996 0.0
C403 C 0.67089 0.91354 0.40449 0.0
C404 C 0.64141 0.86351 0.37949 0.0
C405 C 0.62629 0.89098 0.38318 0.0
C406 C 0.64081 0.91561 0.39561 0.0
C407 C 0.68613 0.88619 0.40056 0.0
C408 C 0.67159 0.86153 0.38818 0.0
C409 C 0.68569 0.93947 0.41884 0.0
O410 O 0.70604 0.99612 0.36166 0.0
O411 O 0.72914 0.04156 0.36222 0.0
O412 O 0.76493 0.99525 0.34342 0.0
O413 O 0.75285 0.95531 0.37251 0.0
O414 O 0.7871 0.06992 0.36995 0.0
O415 O 0.8157 0.03192 0.36072 0.0
O416 O 0.79504 0.99564 0.41092 0.0
O417 O 0.75431 0.98393 0.43908 0.0
O418 O 0.7115 0.02276 0.42285 0.0
O419 O 0.75812 0.04381 0.42136 0.0
C420 C 0.70634 0.02452 0.35489 0.0
O421 O 0.71443 0.93734 0.42338 0.0
O422 O 0.67798 0.96602 0.40939 0.0
C423 C 0.76219 0.96645 0.34705 0.0
C424 C 0.8394 0.07612 0.37681 0.0
C425 C 0.88873 0.10578 0.40254 0.0
C426 C 0.89252 0.08721 0.37747 0.0
C427 C 0.86808 0.07265 0.36468 0.0
C428 C 0.83564 0.09422 0.40222 0.0
C429 C 0.86003 0.10898 0.41486 0.0
C430 C 0.81386 0.06095 0.36247 0.0
C431 C 0.78324 0.98547 0.43581 0.0
H432 H 0.60318 0.89353 0.37638 0.0
H433 H 0.62839 0.93628 0.39847 0.0
H434 H 0.70924 0.88363 0.40738 0.0
H435 H 0.68386 0.84069 0.38611 0.0
H436 H 0.91426 0.08451 0.36727 0.0
H437 H 0.87154 0.05882 0.34511 0.0
H438 H 0.81386 0.09714 0.41228 0.0
H439 H 0.85642 0.12284 0.43437 0.0
Tb440 Tb 0.27384 0.4988 0.6556 0.0
Tb441 Tb 0.21584 0.55226 0.63687 0.0
C442 C 0.21674 0.49552 0.68123 0.0
C443 C 0.34558 0.45636 0.6462 0.0
C444 C 0.3959 0.43645 0.61401 0.0
C445 C 0.3935 0.4309 0.64485 0.0
C446 C 0.3686 0.44081 0.66076 0.0
C447 C 0.34746 0.46167 0.61535 0.0
C448 C 0.37245 0.4517 0.59932 0.0
C449 C 0.32032 0.46749 0.66387 0.0
O450 O 0.24929 0.48288 0.61652 0.0
O451 O 0.20492 0.51126 0.61285 0.0
O452 O 0.24935 0.56275 0.60462 0.0
O453 O 0.2862 0.5266 0.6166 0.0
O454 O 0.1794 0.5669 0.66211 0.0
O455 O 0.18397 0.57933 0.61515 0.0
O456 O 0.24739 0.57591 0.6654 0.0
O457 O 0.27403 0.53614 0.68729 0.0
O458 O 0.23966 0.47845 0.68528 0.0
O459 O 0.2254 0.51684 0.66449 0.0
C460 C 0.22195 0.48781 0.60615 0.0
O461 O 0.31905 0.49631 0.66777 0.0
O462 O 0.29423 0.45642 0.65757 0.0
C463 C 0.27542 0.54929 0.60035 0.0
C464 C 0.16129 0.61478 0.64753 0.0
C465 C 0.14095 0.67271 0.66278 0.0
C466 C 0.13309 0.65973 0.63523 0.0
C467 C 0.14302 0.63104 0.62779 0.0
C468 C 0.1704 0.62817 0.67447 0.0
C469 C 0.16027 0.65684 0.68204 0.0
C470 C 0.16931 0.5836 0.64014 0.0
C471 C 0.26626 0.5647 0.68545 0.0
H472 H 0.41082 0.41868 0.65674 0.0
H473 H 0.36741 0.43645 0.68454 0.0
H474 H 0.32977 0.47369 0.60381 0.0
H475 H 0.37369 0.45639 0.57562 0.0
H476 H 0.11876 0.67153 0.61956 0.0
H477 H 0.1359 0.62127 0.6068 0.0
H478 H 0.18469 0.61623 0.69007 0.0
H479 H 0.16662 0.66603 0.7035 0.0
H480 H 0.18749 0.33373 0.49364 0.0
H481 H 0.16536 0.46621 0.60956 0.0
H482 H 0.13482 0.32365 0.57338 0.0
H483 H 0.24944 0.45233 0.56482 0.0
H484 H 0.14742 0.41905 0.5883 0.0
H485 H 0.20543 0.38178 0.51267 0.0
C486 C 0.18002 0.34148 0.51532 0.0
C487 C 0.15991 0.3246 0.53214 0.0
C488 C 0.16965 0.4266 0.58289 0.0
C489 C 0.17934 0.37986 0.55334 0.0
C490 C 0.17972 0.45365 0.59461 0.0
C491 C 0.20884 0.46318 0.58874 0.0
C492 C 0.18865 0.40938 0.56473 0.0
C493 C 0.2268 0.44574 0.56978 0.0
C494 C 0.19014 0.36888 0.52605 0.0
C495 C 0.15065 0.33578 0.55993 0.0
N496 N 0.21639 0.41969 0.55835 0.0
N497 N 0.16014 0.36293 0.56952 0.0
H498 H 0.79856 0.04077 0.80603 0.0
H499 H 0.93673 0.93054 0.83256 0.0
H500 H 0.79152 0.96131 0.85981 0.0
H501 H 0.92635 0.98202 0.75172 0.0
H502 H 0.88698 0.94772 0.84857 0.0
H503 H 0.84831 0.02435 0.79008 0.0
C504 C 0.80732 0.01961 0.81408 0.0
C505 C 0.79081 1.00222 0.83403 0.0
C506 C 0.8958 0.95546 0.82749 0.0
C507 C 0.84811 0.98389 0.81678 0.0
C508 C 0.92432 0.94608 0.81858 0.0
C509 C 0.93569 0.95511 0.7909 0.0
C510 C 0.87888 0.97437 0.80878 0.0
C511 C 0.91841 0.97466 0.77329 0.0
C512 C 0.83575 0.01036 0.80513 0.0
C513 C 0.80335 0.97516 0.84408 0.0
N514 N 0.89091 0.9837 0.78254 0.0
N515 N 0.83145 0.96699 0.83565 0.0
H516 H 0.29478 0.73588 0.07342 0.0
H517 H 0.29512 0.55891 0.067 0.0
H518 H 0.32693 0.68819 0.99592 0.0
H519 H 0.22126 0.60807 0.10527 0.0
H520 H 0.31493 0.60624 0.04763 0.0
H521 H 0.27473 0.68867 0.09279 0.0
C522 C 0.29746 0.71561 0.06046 0.0
C523 C 0.31216 0.71604 0.03288 0.0
C524 C 0.29433 0.60645 0.06023 0.0
C525 C 0.29038 0.66223 0.05521 0.0
C526 C 0.28309 0.57957 0.07122 0.0
C527 C 0.25635 0.57955 0.08735 0.0
C528 C 0.27916 0.6334 0.06628 0.0
C529 C 0.24171 0.60699 0.09249 0.0
C530 C 0.28611 0.68878 0.07148 0.0
C531 C 0.31534 0.68903 0.01708 0.0
N532 N 0.25344 0.63284 0.08223 0.0
N533 N 0.30482 0.66319 0.0286 0.0
H534 H 0.57095 0.11428 0.2495 0.0
H535 H 0.65031 1.00287 0.36084 0.0
H536 H 0.52342 0.07741 0.32441 0.0
H537 H 0.6984 0.07608 0.32171 0.0
H538 H 0.60362 0.02446 0.34236 0.0
H539 H 0.61766 0.09504 0.27035 0.0
C540 C 0.57025 0.10186 0.27025 0.0
C541 C 0.5431 0.09713 0.28511 0.0
C542 C 0.62437 0.0358 0.33785 0.0
C543 C 0.59675 0.07505 0.30896 0.0
C544 C 0.65113 0.0234 0.3481 0.0
C545 C 0.67843 0.03758 0.34252 0.0
C546 C 0.6248 0.06227 0.3213 0.0
C547 C 0.67791 0.06438 0.32636 0.0
C548 C 0.59703 0.09118 0.28222 0.0
C549 C 0.54378 0.08139 0.31217 0.0
N550 N 0.65149 0.07572 0.31597 0.0
N551 N 0.57021 0.07055 0.3231 0.0
H552 H 0.69232 0.23018 0.46834 0.0
H553 H 0.67901 0.05345 0.4631 0.0
H554 H 0.64401 0.18037 0.53489 0.0
H555 H 0.75708 0.09859 0.43036 0.0
H556 H 0.66178 0.10087 0.48512 0.0
H557 H 0.7135 0.18283 0.44977 0.0
C558 C 0.68646 0.20951 0.47929 0.0
C559 C 0.6662 0.20945 0.50312 0.0
C560 C 0.68279 0.10019 0.47325 0.0
C561 C 0.6896 0.15535 0.48152 0.0
C562 C 0.69257 0.07318 0.4607 0.0
C563 C 0.71962 0.07192 0.44511 0.0
C564 C 0.69985 0.12617 0.46954 0.0
C565 C 0.73624 0.09833 0.44249 0.0
C566 C 0.69842 0.18251 0.46861 0.0
C567 C 0.65933 0.18178 0.51631 0.0
N568 N 0.72597 0.12437 0.45431 0.0
N569 N 0.67065 0.15594 0.50511 0.0
H570 H 0.06065 0.45516 0.78365 0.0
H571 H 0.16446 0.51146 0.65278 0.0
H572 H 0.02932 0.45321 0.69223 0.0
H573 H 0.1986 0.46428 0.72977 0.0
H574 H 0.11343 0.50031 0.66867 0.0
H575 H 0.10965 0.4699 0.76621 0.0
C576 C 0.06383 0.45826 0.75988 0.0
C577 C 0.04066 0.45274 0.73935 0.0
C578 C 0.13213 0.49248 0.68204 0.0
C579 C 0.09717 0.46975 0.71935 0.0
C580 C 0.16125 0.49898 0.67314 0.0
C581 C 0.18578 0.48897 0.69015 0.0
C582 C 0.12759 0.47649 0.70853 0.0
C583 C 0.18028 0.47242 0.71606 0.0
C584 C 0.09199 0.46647 0.74999 0.0
C585 C 0.04646 0.4572 0.70884 0.0
N586 N 0.15177 0.46697 0.72465 0.0
N587 N 0.07421 0.46546 0.69971 0.0
H588 H 0.80183 0.97087 0.91711 0.0
H589 H 0.77669 0.83572 0.0295 0.0
H590 H 0.72117 0.96231 0.96856 0.0
H591 H 0.8298 0.82601 0.94989 0.0
H592 H 0.76048 0.88525 0.01234 0.0
H593 H 0.81814 0.92139 0.93494 0.0
C594 C 0.7879 0.9589 0.93268 0.0
C595 C 0.76016 0.97071 0.94147 0.0
C596 C 0.77542 0.87215 0.99848 0.0
C597 C 0.77849 0.91424 0.96166 0.0
C598 C 0.78453 0.84385 0.00816 0.0
C599 C 0.80427 0.82661 0.99087 0.0
C600 C 0.78676 0.88366 0.97172 0.0
C601 C 0.81411 0.83838 0.9636 0.0
C602 C 0.79701 0.93055 0.9425 0.0
C603 C 0.74274 0.95402 0.96128 0.0
N604 N 0.80554 0.86636 0.95501 0.0
N605 N 0.75221 0.92669 0.97077 0.0
H606 H 0.43303 0.61393 0.20168 0.0
H607 H 0.29648 0.50324 0.21999 0.0
H608 H 0.42158 0.56059 0.28095 0.0
H609 H 0.28917 0.58441 0.1686 0.0
H610 H 0.3453 0.51936 0.23853 0.0
H611 H 0.38387 0.59766 0.18384 0.0
C612 C 0.42049 0.59828 0.215 0.0
C613 C 0.43144 0.58847 0.24278 0.0
C614 C 0.33286 0.53379 0.22347 0.0
C615 C 0.37525 0.57004 0.22265 0.0
C616 C 0.30497 0.5247 0.21303 0.0
C617 C 0.28863 0.54271 0.19305 0.0
C618 C 0.34491 0.56071 0.21324 0.0
C619 C 0.30082 0.57012 0.1844 0.0
C620 C 0.3923 0.58936 0.20501 0.0
C621 C 0.41399 0.56863 0.25938 0.0
N622 N 0.32844 0.57813 0.19424 0.0
N623 N 0.38682 0.55999 0.24903 0.0
H624 H 0.55171 0.18452 0.3112 0.0
H625 H 0.51796 0.26068 0.46967 0.0
H626 H 0.46354 0.21531 0.33567 0.0
H627 H 0.59794 0.21069 0.44902 0.0
H628 H 0.49667 0.2453 0.42118 0.0
H629 H 0.56954 0.19779 0.36108 0.0
C630 C 0.53623 0.19462 0.32684 0.0
C631 C 0.50612 0.19884 0.31918 0.0
C632 C 0.51866 0.23728 0.42758 0.0
C633 C 0.52619 0.2135 0.3767 0.0
C634 C 0.53055 0.24566 0.4554 0.0
C635 C 0.55962 0.23679 0.46328 0.0
C636 C 0.53621 0.22025 0.40767 0.0
C637 C 0.5754 0.21798 0.44371 0.0
C638 C 0.5463 0.20182 0.35551 0.0
C639 C 0.48696 0.21163 0.34063 0.0
N640 N 0.56367 0.21065 0.41675 0.0
N641 N 0.49729 0.21845 0.36842 0.0
H642 H 0.02755 0.25401 0.57208 0.0
H643 H 0.04985 0.37089 0.70407 0.0
H644 H 0.07716 0.33519 0.5603 0.0
H645 H 0.97129 0.31636 0.69721 0.0
H646 H 0.06602 0.35236 0.65497 0.0
H647 H 0.01101 0.27206 0.62101 0.0
C648 C 0.03455 0.27586 0.57961 0.0
C649 C 0.05351 0.29327 0.56202 0.0
C650 C 0.0454 0.34428 0.66441 0.0
C651 C 0.03561 0.3135 0.61837 0.0
C652 C 0.03641 0.35447 0.69257 0.0
C653 C 0.00932 0.34493 0.70474 0.0
C654 C 0.0274 0.32406 0.64867 0.0
C655 C 0.99238 0.32417 0.68861 0.0
C656 C 0.02525 0.28604 0.60757 0.0
C657 C 0.06221 0.32126 0.57298 0.0
N658 N 1.00173 0.31435 0.66145 0.0
N659 N 0.0535 0.33036 0.60067 0.0
H660 H 0.00542 0.86691 0.85435 0.0
H661 H 0.89244 0.75641 0.92931 0.0
H662 H 0.93085 0.83115 0.80502 0.0
H663 H 0.92853 0.83031 0.97933 0.0
H664 H 0.91332 0.7771 0.88372 0.0
H665 H 0.9843 0.84719 0.90049 0.0
C666 C 0.98476 0.85458 0.85315 0.0
C667 C 0.96995 0.85039 0.82573 0.0
C668 C 0.91671 0.78874 0.90467 0.0
C669 C 0.94589 0.82783 0.87848 0.0
C670 C 0.90508 0.77686 0.93081 0.0
C671 C 0.90899 0.79157 0.95828 0.0
C672 C 0.93296 0.81521 0.90597 0.0
C673 C 0.92512 0.81825 0.95865 0.0
C674 C 0.97265 0.84365 0.87955 0.0
C675 C 0.94301 0.83474 0.82564 0.0
N676 N 0.93683 0.82912 0.93283 0.0
N677 N 0.93196 0.82372 0.85164 0.0
H678 H 0.41942 0.67107 0.2144 0.0
H679 H 0.44614 0.78286 0.07874 0.0
H680 H 0.49961 0.72291 0.20619 0.0
H681 H 0.39084 0.70508 0.06982 0.0
H682 H 0.46218 0.76536 0.12815 0.0
H683 H 0.40355 0.68855 0.16469 0.0
C684 C 0.43334 0.68664 0.20245 0.0
C685 C 0.4608 0.6957 0.21451 0.0
C686 C 0.44679 0.75194 0.11526 0.0
C687 C 0.44296 0.71547 0.15766 0.0
C688 C 0.43776 0.76183 0.08702 0.0
C689 C 0.41743 0.7452 0.07003 0.0
C690 C 0.43484 0.7256 0.12702 0.0
C691 C 0.40696 0.7183 0.08199 0.0
C692 C 0.42448 0.69626 0.17394 0.0
C693 C 0.47824 0.71545 0.19778 0.0
N694 N 0.4155 0.70949 0.10993 0.0
N695 N 0.46901 0.72472 0.17029 0.0
H696 H 0.17561 0.34676 0.32199 0.0
H697 H 0.15872 0.48857 0.21668 0.0
H698 H 0.0983 0.40513 0.32089 0.0
H699 H 0.2196 0.41661 0.19492 0.0
H700 H 0.13857 0.45877 0.25698 0.0
H701 H 0.19407 0.37197 0.27712 0.0
C702 C 0.1624 0.36467 0.31226 0.0
C703 C 0.13551 0.37408 0.32559 0.0
C704 C 0.1562 0.44929 0.24336 0.0
C705 C 0.15672 0.40312 0.27457 0.0
C706 C 0.16785 0.46638 0.22038 0.0
C707 C 0.191 0.4551 0.20252 0.0
C708 C 0.168 0.42072 0.249 0.0
C709 C 0.20171 0.42608 0.20818 0.0
C710 C 0.17301 0.37906 0.2867 0.0
C711 C 0.11951 0.39757 0.31203 0.0
N712 N 0.19031 0.40991 0.23123 0.0
N713 N 0.13046 0.41135 0.2875 0.0
H714 H 0.83682 0.91879 0.60783 0.0
H715 H 0.84506 0.98536 0.44166 0.0
H716 H 0.9208 0.93538 0.56431 0.0
H717 H 0.7642 0.96398 0.48903 0.0
H718 H 0.87416 0.96914 0.48577 0.0
H719 H 0.81062 0.9376 0.56404 0.0
C720 C 0.84978 0.9263 0.58893 0.0
C721 C 0.88104 0.92515 0.58963 0.0
C722 C 0.85003 0.96811 0.48633 0.0
C723 C 0.85105 0.94711 0.53906 0.0
C724 C 0.83344 0.97731 0.46119 0.0
C725 C 0.80211 0.97602 0.46152 0.0
C726 C 0.83507 0.95765 0.51181 0.0
C727 C 0.78825 0.96545 0.48749 0.0
C728 C 0.83479 0.9372 0.56389 0.0
C729 C 0.89664 0.93592 0.5647 0.0
N730 N 0.80476 0.95674 0.51138 0.0
N731 N 0.88148 0.94632 0.54029 0.0
H732 H 0.244 0.61825 0.70713 0.0
H733 H 0.379 0.63687 0.82359 0.0
H734 H 0.31803 0.55648 0.71634 0.0
H735 H 0.29562 0.6851 0.83288 0.0
H736 H 0.3592 0.61221 0.77943 0.0
H737 H 0.26494 0.64811 0.74829 0.0
C738 C 0.26475 0.61114 0.71756 0.0
C739 C 0.27916 0.58469 0.70843 0.0
C740 C 0.34518 0.62819 0.79108 0.0
C741 C 0.30316 0.61866 0.75522 0.0
C742 C 0.35642 0.64219 0.8165 0.0
C743 C 0.33884 0.66282 0.83242 0.0
C744 C 0.3161 0.63486 0.78114 0.0
C745 C 0.31005 0.66942 0.82136 0.0
C746 C 0.27657 0.62807 0.74111 0.0
C747 C 0.30593 0.57648 0.72281 0.0
N748 N 0.29952 0.65539 0.79647 0.0
N749 N 0.31698 0.59334 0.74539 0.0
H750 H 0.55396 0.10323 0.06225 0.0
H751 H 0.71276 0.08193 0.98313 0.0
H752 H 0.63805 0.13194 0.09926 0.0
H753 H 0.63081 0.05166 0.94248 0.0
H754 H 0.68482 0.09924 0.02604 0.0
H755 H 0.58072 0.08279 0.0189 0.0
C756 C 0.57803 0.10507 0.06138 0.0
C757 C 0.59375 0.11957 0.08438 0.0
C758 C 0.67279 0.08883 0.00783 0.0
C759 C 0.6244 0.09644 0.0348 0.0
C760 C 0.6888 0.07887 0.98315 0.0
C761 C 0.67417 0.0653 0.95895 0.0
C762 C 0.64171 0.08536 0.00865 0.0
C763 C 0.64303 0.06207 0.96055 0.0
C764 C 0.59325 0.09355 0.03655 0.0
C765 C 0.62489 0.1215 0.08189 0.0
N766 N 0.62779 0.07207 0.985 0.0
N767 N 0.63908 0.11016 0.05762 0.0
H768 H 0.64172 0.12957 0.67015 0.0
H769 H 0.69591 0.13169 0.84117 0.0
H770 H 0.6286 0.2059 0.7276 0.0
H771 H 0.68791 0.05176 0.78789 0.0
H772 H 0.67628 0.16093 0.79882 0.0
H773 H 0.66414 0.10242 0.71204 0.0
C774 C 0.64376 0.14071 0.69153 0.0
C775 C 0.63319 0.17004 0.69535 0.0
C776 C 0.67887 0.13698 0.79651 0.0
C777 C 0.65874 0.13897 0.74362 0.0
C778 C 0.69014 0.1203 0.82062 0.0
C779 C 0.69344 0.08918 0.81819 0.0
C780 C 0.67122 0.12244 0.76972 0.0
C781 C 0.6856 0.07564 0.79097 0.0
C782 C 0.65639 0.12513 0.71553 0.0
C783 C 0.63612 0.18319 0.72374 0.0
N784 N 0.67494 0.09231 0.76789 0.0
N785 N 0.64866 0.1676 0.74678 0.0
H786 H 0.20944 0.46009 0.04555 0.0
H787 H 0.05526 0.45802 0.95501 0.0
H788 H 0.12936 0.50198 0.07979 0.0
H789 H 0.13351 0.4059 0.93228 0.0
H790 H 0.08127 0.47606 0.99982 0.0
H791 H 0.18145 0.44224 1.00287 0.0
C792 C 0.18588 0.46563 0.04412 0.0
C793 C 0.17179 0.48271 0.06637 0.0
C794 C 0.09266 0.46068 0.98497 0.0
C795 C 0.1393 0.46206 0.01701 0.0
C796 C 0.07782 0.45028 0.95943 0.0
C797 C 0.09227 0.43056 0.93961 0.0
C798 C 0.12215 0.45131 0.99067 0.0
C799 C 0.12161 0.42155 0.94642 0.0
C800 C 0.16983 0.45528 0.01964 0.0
C801 C 0.14111 0.48886 0.06319 0.0
N802 N 0.1355 0.43202 0.97124 0.0
N803 N 0.12586 0.47862 0.03885 0.0
H804 H 0.75889 0.98138 0.28852 0.0
H805 H 0.84406 0.83746 0.22836 0.0
H806 H 0.78088 0.9075 0.34668 0.0
H807 H 0.79638 0.89951 0.17145 0.0
H808 H 0.82246 0.86232 0.27224 0.0
H809 H 0.77363 0.95145 0.24565 0.0
C810 C 0.76676 0.95873 0.29226 0.0
C811 C 0.76892 0.94697 0.32124 0.0
C812 C 0.81651 0.87023 0.25013 0.0
C813 C 0.78613 0.9125 0.27201 0.0
C814 C 0.82895 0.85621 0.22511 0.0
C815 C 0.82212 0.86654 0.1962 0.0
C816 C 0.79746 0.89501 0.24619 0.0
C817 C 0.80213 0.89067 0.19326 0.0
C818 C 0.77506 0.94158 0.2677 0.0
C819 C 0.77892 0.91738 0.32468 0.0
N820 N 0.79078 0.90424 0.21791 0.0
N821 N 0.78757 0.90121 0.30032 0.0
H822 H 0.3255 0.5233 0.57527 0.0
H823 H 0.34295 0.65129 0.45175 0.0
H824 H 0.26681 0.59998 0.56705 0.0
H825 H 0.39336 0.56867 0.44948 0.0
H826 H 0.3174 0.63395 0.49627 0.0
H827 H 0.35339 0.54087 0.53182 0.0
C828 C 0.31852 0.54387 0.56451 0.0
C829 C 0.2936 0.56007 0.5749 0.0
C830 C 0.33401 0.61954 0.48606 0.0
C831 C 0.3255 0.58028 0.52511 0.0
C832 C 0.34852 0.62936 0.46043 0.0
C833 C 0.3702 0.61132 0.44651 0.0
C834 C 0.34121 0.59146 0.49818 0.0
C835 C 0.37697 0.58345 0.45948 0.0
C836 C 0.33442 0.55383 0.53962 0.0
C837 C 0.28568 0.58656 0.55988 0.0
N838 N 0.36249 0.57435 0.48454 0.0
N839 N 0.30153 0.59577 0.53584 0.0
H840 H 0.20466 0.21595 0.48584 0.0
H841 H 0.28313 0.18911 0.32763 0.0
H842 H 0.16201 0.24086 0.40265 0.0
H843 H 0.32116 0.16461 0.41302 0.0
H844 H 0.23932 0.20985 0.35354 0.0
H845 H 0.24783 0.1985 0.45845 0.0
C846 C 0.20429 0.2178 0.46171 0.0
C847 C 0.17946 0.22989 0.44658 0.0
C848 C 0.2573 0.19994 0.36653 0.0
C849 C 0.22947 0.20965 0.41474 0.0
C850 C 0.28236 0.18825 0.35179 0.0
C851 C 0.30577 0.17486 0.36817 0.0
C852 C 0.25577 0.19834 0.39784 0.0
C853 C 0.30348 0.17418 0.3994 0.0
C854 C 0.22913 0.20776 0.44602 0.0
C855 C 0.1806 0.23163 0.41524 0.0
N856 N 0.27899 0.18567 0.41312 0.0
N857 N 0.20522 0.22155 0.4003 0.0
H858 H 0.06002 0.12053 0.65593 0.0
H859 H 0.02448 0.94569 0.65975 0.0
H860 H 0.08268 0.0613 0.58324 0.0
H861 H 0.02799 1.00237 0.73774 0.0
H862 H 0.03869 0.98861 0.62884 0.0
H863 H 0.04033 0.07815 0.68357 0.0
C864 C 0.06052 0.09863 0.64564 0.0
C865 C 0.07309 0.0944 0.6173 0.0
C866 C 0.03627 0.99152 0.65273 0.0
C867 C 0.05084 0.04568 0.64894 0.0
C868 C 0.02813 0.9671 0.67034 0.0
C869 C 0.02531 0.97038 0.7014 0.0
C870 C 0.04117 0.01937 0.6663 0.0
C871 C 0.03019 0.99866 0.71395 0.0
C872 C 0.04949 0.0744 0.66151 0.0
C873 C 0.07349 0.06544 0.6052 0.0
N874 N 0.03783 0.02199 0.69638 0.0
N875 N 0.06255 0.04213 0.6211 0.0
H876 H 0.17896 0.83467 0.84102 0.0
H877 H 0.28935 0.84941 0.97975 0.0
H878 H 0.18213 0.9116 0.8991 0.0
H879 H 0.30713 0.78695 0.90845 0.0
H880 H 0.24838 0.8706 0.95081 0.0
H881 H 0.22441 0.8152 0.8652 0.0
C882 C 0.18925 0.84761 0.85865 0.0
C883 C 0.17633 0.87472 0.86823 0.0
C884 C 0.26126 0.8524 0.94127 0.0
C885 C 0.22812 0.85231 0.89616 0.0
C886 C 0.28466 0.84018 0.95787 0.0
C887 C 0.3016 0.81626 0.94656 0.0
C888 C 0.25425 0.84045 0.91315 0.0
C889 C 0.29463 0.80544 0.91793 0.0
C890 C 0.21516 0.83641 0.87246 0.0
C891 C 0.19065 0.89027 0.89139 0.0
N892 N 0.27119 0.81742 0.90227 0.0
N893 N 0.21553 0.87877 0.90461 0.0
H894 H 0.44014 0.04807 0.23802 0.0
H895 H 0.40687 0.97341 0.07911 0.0
H896 H 0.45592 0.09481 0.15524 0.0
H897 H 0.39222 0.93159 0.16456 0.0
H898 H 0.42717 0.01721 0.10508 0.0
H899 H 0.42464 1.00479 0.2101 0.0
C900 C 0.44037 0.04933 0.21385 0.0
C901 C 0.44923 0.07538 0.19901 0.0
C902 C 0.41956 0.99838 0.11805 0.0
C903 C 0.4312 0.02515 0.16652 0.0
C904 C 0.40813 0.97334 0.10328 0.0
C905 C 0.39755 0.9489 0.11972 0.0
C906 C 0.42053 0.99883 0.14943 0.0
C907 C 0.39955 0.95008 0.15096 0.0
C908 C 0.43147 0.02439 0.19784 0.0
C909 C 0.44915 0.07526 0.16761 0.0
N910 N 0.41069 0.97457 0.1647 0.0
N911 N 0.44013 0.05051 0.15233 0.0
H912 H 0.81519 0.3229 0.66204 0.0
H913 H 0.67299 0.35994 0.55944 0.0
H914 H 0.79075 0.41157 0.63236 0.0
H915 H 0.68817 0.2734 0.59945 0.0
H916 H 0.71661 0.37873 0.58575 0.0
H917 H 0.76937 0.30386 0.63922 0.0
C918 C 0.80017 0.33842 0.6509 0.0
C919 C 0.80705 0.36891 0.64898 0.0
C920 C 0.71038 0.35566 0.58895 0.0
C921 C 0.75469 0.34715 0.62255 0.0
C922 C 0.68542 0.34487 0.57388 0.0
C923 C 0.6769 0.31499 0.57716 0.0
C924 C 0.72724 0.33644 0.60734 0.0
C925 C 0.6939 0.2966 0.59629 0.0
C926 C 0.77405 0.32749 0.63778 0.0
C927 C 0.78681 0.38782 0.63392 0.0
N928 N 0.71839 0.30757 0.61053 0.0
N929 N 0.76169 0.37664 0.62126 0.0
H930 H 0.96301 0.45457 0.86343 0.0
H931 H 0.85027 0.59445 0.86521 0.0
H932 H 0.91199 0.48504 0.78707 0.0
H933 H 0.91589 0.57943 0.93471 0.0
H934 H 0.86946 0.55091 0.83876 0.0
H935 H 0.94262 0.4966 0.89253 0.0
C936 C 0.94744 0.46994 0.85284 0.0
C937 C 0.93931 0.46635 0.82272 0.0
C938 C 0.87973 0.55712 0.85979 0.0
C939 C 0.91592 0.51422 0.85579 0.0
C940 C 0.86889 0.58217 0.87485 0.0
C941 C 0.88165 0.59097 0.90214 0.0
C942 C 0.90346 0.5404 0.87205 0.0
C943 C 0.90519 0.57346 0.91385 0.0
C944 C 0.93593 0.49396 0.8694 0.0
C945 C 0.91911 0.487 0.81012 0.0
N946 N 0.91538 0.54904 0.89872 0.0
N947 N 0.90814 0.50994 0.82669 0.0
H948 H 0.80657 0.74084 0.1208 0.0
H949 H 0.64166 0.67275 0.11479 0.0
H950 H 0.75885 0.71844 0.03989 0.0
H951 H 0.68873 0.68797 0.19767 0.0
H952 H 0.68418 0.69206 0.08753 0.0
H953 H 0.76361 0.72372 0.14999 0.0
C954 C 0.78716 0.73235 0.10918 0.0
C955 C 0.78641 0.73105 0.07782 0.0
C956 C 0.68529 0.6913 0.11169 0.0
C957 C 0.73732 0.71158 0.11097 0.0
C958 C 0.66084 0.68047 0.12731 0.0
C959 C 0.66152 0.67883 0.1586 0.0
C960 C 0.71079 0.70067 0.12736 0.0
C961 C 0.68735 0.6886 0.17353 0.0
C962 C 0.76267 0.7226 0.12583 0.0
C963 C 0.76061 0.71991 0.06397 0.0
N964 N 0.71097 0.69912 0.15778 0.0
N965 N 0.73723 0.71066 0.08059 0.0
H966 H 0.60772 0.43357 0.36156 0.0
H967 H 0.51553 0.58762 0.37476 0.0
H968 H 0.57951 0.46956 0.44648 0.0
H969 H 0.5469 0.54846 0.29234 0.0
H970 H 0.5383 0.54546 0.40221 0.0
H971 H 0.5856 0.47657 0.33664 0.0
C972 C 0.5972 0.45069 0.37509 0.0
C973 C 0.59581 0.44788 0.4063 0.0
C974 C 0.54013 0.54622 0.37811 0.0
C975 C 0.56957 0.49742 0.37754 0.0
C976 C 0.52712 0.57026 0.36244 0.0
C977 C 0.52922 0.5717 0.33114 0.0
C978 C 0.55531 0.52355 0.36234 0.0
C979 C 0.54455 0.5485 0.31639 0.0
C980 C 0.58426 0.47524 0.36075 0.0
C981 C 0.581 0.47061 0.42238 0.0
N982 N 0.5569 0.52557 0.33206 0.0
N983 N 0.56847 0.49442 0.40784 0.0
H984 H 0.38712 0.36086 0.15901 0.0
H985 H 0.37666 0.19814 0.23295 0.0
H986 H 0.30251 0.3199 0.17798 0.0
H987 H 0.45811 0.24365 0.21037 0.0
H988 H 0.34806 0.24196 0.21489 0.0
H989 H 0.41267 0.31763 0.17991 0.0
C990 C 0.37389 0.34263 0.16748 0.0
C991 C 0.34264 0.34387 0.1664 0.0
C992 C 0.37221 0.24217 0.21402 0.0
C993 C 0.37188 0.29395 0.19079 0.0
C994 C 0.3885 0.2172 0.22427 0.0
C995 C 0.41986 0.21707 0.22311 0.0
C996 C 0.38749 0.267 0.20265 0.0
C997 C 0.43404 0.24246 0.21174 0.0
C998 C 0.3885 0.3179 0.1796 0.0
C999 C 0.32667 0.31983 0.17843 0.0
N1000 N 0.41781 0.26617 0.20201 0.0
N1001 N 0.34147 0.2957 0.18999 0.0
H1002 H 0.88042 0.34173 0.77561 0.0
H1003 H 0.88303 0.19976 0.88466 0.0
H1004 H 0.95711 0.31146 0.82639 0.0
H1005 H 0.81045 0.21673 0.82297 0.0
H1006 H 0.90836 0.24351 0.86572 0.0
H1007 H 0.85218 0.29902 0.79495 0.0
C1008 C 0.89127 0.32625 0.79084 0.0
C1009 C 0.92124 0.33015 0.79925 0.0
C1010 C 0.88692 0.23771 0.8562 0.0
C1011 C 0.88917 0.28153 0.82145 0.0
C1012 C 0.87248 0.21251 0.8669 0.0
C1013 C 0.84467 0.20418 0.85518 0.0
C1014 C 0.87353 0.25507 0.8336 0.0
C1015 C 0.8318 0.22231 0.83279 0.0
C1016 C 0.87519 0.30186 0.80178 0.0
C1017 C 0.93417 0.30935 0.81902 0.0
N1018 N 0.84636 0.24688 0.82266 0.0
N1019 N 0.9181 0.2861 0.82939 0.0
H1020 H 0.0724 0.67342 0.11401 0.0
H1021 H 0.90802 0.66219 0.04305 0.0
H1022 H 0.03033 0.5888 0.0971 0.0
H1023 H 0.95403 0.74409 0.06341 0.0
H1024 H 0.95227 0.63396 0.06055 0.0
H1025 H 0.02896 0.69891 0.09318 0.0
C1026 C 0.0539 0.66018 0.10599 0.0
C1027 C 0.05489 0.62894 0.10763 0.0
C1028 C 0.95252 0.65812 0.06106 0.0
C1029 C 0.00476 0.65809 0.08338 0.0
C1030 C 0.92731 0.67422 0.0511 0.0
C1031 C 0.92715 0.70559 0.05185 0.0
C1032 C 0.97762 0.6736 0.07171 0.0
C1033 C 0.95284 0.71999 0.06244 0.0
C1034 C 0.02908 0.67475 0.09392 0.0
C1035 C 0.0305 0.61294 0.0962 0.0
N1036 N 0.97682 0.70394 0.07191 0.0
N1037 N 0.00629 0.6277 0.0847 0.0
H1038 H 0.6627 0.81972 0.34146 0.0
H1039 H 0.50746 0.73265 0.33533 0.0
H1040 H 0.58379 0.84618 0.39018 0.0
H1041 H 0.58778 0.69847 0.29412 0.0
H1042 H 0.5353 0.77507 0.35411 0.0
H1043 H 0.63604 0.77597 0.32273 0.0
C1044 C 0.63984 0.81634 0.34835 0.0
C1045 C 0.62552 0.83688 0.36743 0.0
C1046 C 0.54695 0.75833 0.34101 0.0
C1047 C 0.59476 0.78687 0.34575 0.0
C1048 C 0.53101 0.73401 0.33018 0.0
C1049 C 0.54523 0.71184 0.31302 0.0
C1050 C 0.57748 0.76083 0.33462 0.0
C1051 C 0.57588 0.71496 0.30729 0.0
C1052 C 0.62461 0.79138 0.33752 0.0
C1053 C 0.5957 0.83139 0.37516 0.0
N1054 N 0.59097 0.73904 0.31799 0.0
N1055 N 0.5814 0.80703 0.36431 0.0
H1056 H 0.56604 0.35594 0.5865 0.0
H1057 H 0.39943 0.40989 0.55854 0.0
H1058 H 0.52284 0.34442 0.50103 0.0
H1059 H 0.45402 0.43971 0.63221 0.0
H1060 H 0.4441 0.38808 0.5352 0.0
H1061 H 0.52544 0.38874 0.60206 0.0
C1062 C 0.54805 0.36062 0.57087 0.0
C1063 C 0.5476 0.3473 0.54256 0.0
C1064 C 0.44629 0.39974 0.55628 0.0
C1065 C 0.50057 0.38454 0.56041 0.0
C1066 C 0.42084 0.41225 0.56958 0.0
C1067 C 0.4229 0.42615 0.59766 0.0
C1068 C 0.47387 0.40108 0.57128 0.0
C1069 C 0.4512 0.42849 0.61096 0.0
C1070 C 0.52486 0.37942 0.57974 0.0
C1071 C 0.52392 0.35432 0.52308 0.0
N1072 N 0.47543 0.41582 0.59784 0.0
N1073 N 0.50098 0.37211 0.53256 0.0
H1074 H 0.08351 0.69149 0.65375 0.0
H1075 H 0.09704 0.84553 0.74395 0.0
H1076 H 0.16646 0.71947 0.69397 0.0
H1077 H 0.01599 0.81037 0.70565 0.0
H1078 H 0.12447 0.80182 0.72417 0.0
H1079 H 0.06006 0.73744 0.67046 0.0
C1080 C 0.09698 0.70749 0.66578 0.0
C1081 C 0.12713 0.70156 0.67223 0.0
C1082 C 0.10069 0.80387 0.72014 0.0
C1083 C 0.09996 0.75446 0.69231 0.0
C1084 C 0.08507 0.82878 0.73135 0.0
C1085 C 0.05413 0.83153 0.72667 0.0
C1086 C 0.08517 0.78186 0.70405 0.0
C1087 C 0.03973 0.80918 0.71018 0.0
C1088 C 0.08345 0.73374 0.67562 0.0
C1089 C 0.1431 0.72298 0.68868 0.0
N1090 N 0.05532 0.78545 0.69959 0.0
N1091 N 0.1293 0.7485 0.69822 0.0
H1092 H 0.46521 0.79297 0.96235 0.0
H1093 H 0.53796 0.95318 0.93507 0.0
H1094 H 0.42026 0.87526 0.98626 0.0
H1095 H 0.57934 0.869 0.91172 0.0
H1096 H 0.4956 0.92598 0.95606 0.0
H1097 H 0.50777 0.82132 0.94559 0.0
C1098 C 0.46423 0.81708 0.96414 0.0
C1099 C 0.43892 0.83171 0.97567 0.0
C1100 C 0.514 0.91352 0.94639 0.0
C1101 C 0.4881 0.86459 0.95627 0.0
C1102 C 0.53826 0.929 0.93456 0.0
C1103 C 0.56216 0.91335 0.92137 0.0
C1104 C 0.51374 0.88218 0.94512 0.0
C1105 C 0.56122 0.88205 0.92113 0.0
C1106 C 0.48869 0.83331 0.95452 0.0
C1107 C 0.43922 0.86304 0.97743 0.0
N1108 N 0.53745 0.86758 0.93272 0.0
N1109 N 0.46343 0.87848 0.96774 0.0
H1110 H 0.88978 0.16414 0.42046 0.0
H1111 H 0.06123 0.16258 0.4727 0.0
H1112 H 0.94617 0.08587 0.4131 0.0
H1113 H 0.00822 0.24262 0.45988 0.0
H1114 H 0.01865 0.13288 0.45541 0.0
H1115 H 0.93218 0.19199 0.43991 0.0
C1116 C 0.91104 0.15272 0.42318 0.0
C1117 C 0.91438 0.1226 0.41514 0.0
C1118 C 0.01645 0.15696 0.4564 0.0
C1119 C 0.96329 0.15451 0.43725 0.0
C1120 C 0.0407 0.17391 0.46632 0.0
C1121 C 0.0384 0.20518 0.46767 0.0
C1122 C 0.98965 0.17138 0.44809 0.0
C1123 C 0.0112 0.21862 0.45912 0.0
C1124 C 0.93534 0.16871 0.4341 0.0
C1125 C 0.94266 0.10913 0.41875 0.0
N1126 N 0.98799 0.20169 0.4498 0.0
N1127 N 0.96602 0.12515 0.4296 0.0
loop_
_geom_bond_atom_site_label_1
_geom_bond_atom_site_label_2
_geom_bond_distance
_geom_bond_site_symmetry_2
_ccdc_geom_bond_type
Tb0 C9 2.764 . S
Tb0 O10 2.325 . S
Tb0 O13 2.303 . S
Tb0 O17 2.322 . S
Tb0 O18 2.349 . S
Tb0 O21 2.415 . S
Tb0 O22 2.399 . S
Tb1 O11 2.322 . S
Tb1 O12 2.349 . S
Tb1 O14 2.415 . S
Tb1 O15 2.399 . S
Tb1 O16 2.325 . S
Tb1 O19 2.303 . S
Tb1 C30 2.764 . S
C2 O18 1.261 . S
C2 O19 1.257 . S
C3 C6 1.358 . S
C3 C7 1.332 . S
C3 C9 1.504 . S
C4 C5 1.373 . S
C4 C8 1.308 . S
C5 C4 1.373 . S
C5 C6 1.429 . S
C5 H32 0.932 . S
C6 C3 1.358 . S
C6 C5 1.429 . S
C6 H33 0.930 . S
C7 C3 1.332 . S
C7 C8 1.394 . S
C7 H34 0.932 . S
C8 C4 1.308 . S
C8 C7 1.394 . S
C8 H35 0.929 . S
C9 Tb0 2.764 . S
C9 C3 1.504 . S
C9 O21 1.239 . S
C9 O22 1.263 . S
O10 Tb0 2.325 . S
O10 C20 1.236 . S
O11 Tb1 2.322 . S
O11 C20 1.257 . S
O12 Tb1 2.349 . S
O12 C23 1.261 . S
O13 Tb0 2.303 . S
O13 C23 1.257 . S
O14 Tb1 2.415 . S
O14 C30 1.239 . S
O15 Tb1 2.399 . S
O15 C30 1.263 . S
O16 Tb1 2.325 . S
O16 C31 1.236 . S
O17 Tb0 2.322 . S
O17 C31 1.257 . S
O18 Tb0 2.349 . S
O18 C2 1.261 . S
O19 Tb1 2.303 . S
O19 C2 1.257 . S
C20 O10 1.236 . S
C20 O11 1.257 . S
O21 Tb0 2.415 . S
O21 C9 1.239 . S
O22 Tb0 2.399 . S
O22 C9 1.263 . S
C23 O12 1.261 . S
C23 O13 1.257 . S
C24 C27 1.358 . S
C24 C28 1.332 . S
C24 C30 1.504 . S
C25 C26 1.373 . S
C25 C29 1.308 . S
C26 C25 1.373 . S
C26 C27 1.429 . S
C26 H36 0.932 . S
C27 C24 1.358 . S
C27 C26 1.429 . S
C27 H37 0.930 . S
C28 C24 1.332 . S
C28 C29 1.394 . S
C28 H38 0.932 . S
C29 C25 1.308 . S
C29 C28 1.394 . S
C29 H39 0.929 . S
C30 Tb1 2.764 . S
C30 O14 1.239 . S
C30 O15 1.263 . S
C30 C24 1.504 . S
C31 O16 1.236 . S
C31 O17 1.257 . S
H32 C5 0.932 . S
H33 C6 0.930 . S
H34 C7 0.932 . S
H35 C8 0.929 . S
H36 C26 0.932 . S
H37 C27 0.930 . S
H38 C28 0.932 . S
H39 C29 0.929 . S
Tb40 C49 2.764 . S
Tb40 O50 2.325 . S
Tb40 O53 2.303 . S
Tb40 O57 2.322 . S
Tb40 O58 2.349 . S
Tb40 O61 2.415 . S
Tb40 O62 2.399 . S
Tb41 O51 2.322 . S
Tb41 O52 2.349 1_655 S
Tb41 O54 2.415 . S
Tb41 O55 2.399 . S
Tb41 O56 2.325 1_655 S
Tb41 O59 2.303 . S
Tb41 C70 2.764 . S
C42 O58 1.261 1_655 S
C42 O59 1.257 . S
C43 C46 1.358 . S
C43 C47 1.332 . S
C43 C49 1.504 . S
C44 C45 1.373 . S
C44 C48 1.308 . S
C45 C44 1.373 . S
C45 C46 1.429 . S
C45 H72 0.932 . S
C46 C43 1.358 . S
C46 C45 1.429 . S
C46 H73 0.930 . S
C47 C43 1.332 . S
C47 C48 1.394 . S
C47 H74 0.932 . S
C48 C44 1.308 . S
C48 C47 1.394 . S
C48 H75 0.929 . S
C49 Tb40 2.764 . S
C49 C43 1.504 . S
C49 O61 1.239 . S
C49 O62 1.263 . S
O50 Tb40 2.325 . S
O50 C60 1.230 1_455 S
O51 Tb41 2.322 . S
O51 C60 1.262 . S
O52 Tb41 2.349 1_455 S
O52 C63 1.261 . S
O53 Tb40 2.303 . S
O53 C63 1.257 . S
O54 Tb41 2.415 . S
O54 C70 1.239 . S
O55 Tb41 2.399 . S
O55 C70 1.263 . S
O56 Tb41 2.325 1_455 S
O56 C71 1.236 . S
O57 Tb40 2.322 . S
O57 C71 1.257 . S
O58 Tb40 2.349 . S
O58 C42 1.261 1_455 S
O59 Tb41 2.303 . S
O59 C42 1.257 . S
C60 O50 1.230 1_655 S
C60 O51 1.262 . S
O61 Tb40 2.415 . S
O61 C49 1.239 . S
O62 Tb40 2.399 . S
O62 C49 1.263 . S
C63 O52 1.261 . S
C63 O53 1.257 . S
C64 C67 1.358 . S
C64 C68 1.332 . S
C64 C70 1.504 . S
C65 C66 1.373 . S
C65 C69 1.308 . S
C66 C65 1.373 . S
C66 C67 1.429 . S
C66 H76 0.932 . S
C67 C64 1.358 . S
C67 C66 1.429 . S
C67 H77 0.930 . S
C68 C64 1.332 . S
C68 C69 1.394 . S
C68 H78 0.932 . S
C69 C65 1.308 . S
C69 C68 1.394 . S
C69 H79 0.929 . S
C70 Tb41 2.764 . S
C70 O54 1.239 . S
C70 O55 1.263 . S
C70 C64 1.504 . S
C71 O56 1.236 . S
C71 O57 1.257 . S
H72 C45 0.932 . S
H73 C46 0.930 . S
H74 C47 0.932 . S
H75 C48 0.929 . S
H76 C66 0.932 . S
H77 C67 0.930 . S
H78 C68 0.932 . S
H79 C69 0.929 . S
Tb80 C89 2.764 . S
Tb80 O90 2.325 . S
Tb80 O93 2.303 . S
Tb80 O97 2.322 . S
Tb80 O98 2.349 1_556 S
Tb80 O101 2.415 . S
Tb80 O102 2.399 . S
Tb81 O91 2.322 . S
Tb81 O92 2.349 1_554 S
Tb81 O94 2.415 . S
Tb81 O95 2.399 . S
Tb81 O96 2.326 . S
Tb81 O99 2.303 . S
Tb81 C110 2.764 . S
C82 O98 1.261 . S
C82 O99 1.257 . S
C83 C86 1.358 . S
C83 C87 1.332 . S
C83 C89 1.504 . S
C84 C85 1.373 . S
C84 C88 1.308 . S
C85 C84 1.373 . S
C85 C86 1.429 . S
C85 H112 0.932 . S
C86 C83 1.358 . S
C86 C85 1.429 . S
C86 H113 0.930 . S
C87 C83 1.332 . S
C87 C88 1.394 . S
C87 H114 0.932 . S
C88 C84 1.308 . S
C88 C87 1.394 . S
C88 H115 0.929 . S
C89 Tb80 2.764 . S
C89 C83 1.504 . S
C89 O101 1.239 . S
C89 O102 1.263 . S
O90 Tb80 2.325 . S
O90 C100 1.236 1_556 S
O91 Tb81 2.322 . S
O91 C100 1.257 . S
O92 Tb81 2.349 1_556 S
O92 C103 1.261 . S
O93 Tb80 2.303 . S
O93 C103 1.257 . S
O94 Tb81 2.415 . S
O94 C110 1.239 . S
O95 Tb81 2.399 . S
O95 C110 1.263 . S
O96 Tb81 2.326 . S
O96 C111 1.235 1_554 S
O97 Tb80 2.322 . S
O97 C111 1.257 . S
O98 Tb80 2.349 1_554 S
O98 C82 1.261 . S
O99 Tb81 2.303 . S
O99 C82 1.257 . S
C100 O90 1.236 1_554 S
C100 O91 1.257 . S
O101 Tb80 2.415 . S
O101 C89 1.239 . S
O102 Tb80 2.399 . S
O102 C89 1.263 . S
C103 O92 1.261 . S
C103 O93 1.257 . S
C104 C107 1.358 . S
C104 C108 1.332 . S
C104 C110 1.504 . S
C105 C106 1.373 . S
C105 C109 1.308 . S
C106 C105 1.373 . S
C106 C107 1.429 . S
C106 H116 0.932 . S
C107 C104 1.358 . S
C107 C106 1.429 . S
C107 H117 0.930 . S
C108 C104 1.332 . S
C108 C109 1.394 . S
C108 H118 0.932 . S
C109 C105 1.308 . S
C109 C108 1.394 . S
C109 H119 0.929 . S
C110 Tb81 2.764 . S
C110 O94 1.239 . S
C110 O95 1.263 . S
C110 C104 1.504 . S
C111 O96 1.235 1_556 S
C111 O97 1.257 . S
H112 C85 0.932 . S
H113 C86 0.930 . S
H114 C87 0.932 . S
H115 C88 0.929 . S
H116 C106 0.932 . S
H117 C107 0.930 . S
H118 C108 0.932 . S
H119 C109 0.929 . S
Tb120 C129 2.764 . S
Tb120 O130 2.325 . S
Tb120 O133 2.303 . S
Tb120 O137 2.322 . S
Tb120 O138 2.349 . S
Tb120 O141 2.415 . S
Tb120 O142 2.399 . S
Tb121 O131 2.322 . S
Tb121 O132 2.349 . S
Tb121 O134 2.415 . S
Tb121 O135 2.399 . S
Tb121 O136 2.325 . S
Tb121 O139 2.303 . S
Tb121 C150 2.764 . S
C122 O138 1.261 . S
C122 O139 1.257 . S
C123 C126 1.358 . S
C123 C127 1.332 . S
C123 C129 1.504 . S
C124 C125 1.373 . S
C124 C128 1.308 . S
C125 C124 1.373 . S
C125 C126 1.429 . S
C125 H152 0.932 . S
C126 C123 1.358 . S
C126 C125 1.429 . S
C126 H153 0.930 . S
C127 C123 1.332 . S
C127 C128 1.394 . S
C127 H154 0.932 . S
C128 C124 1.308 . S
C128 C127 1.394 . S
C128 H155 0.929 . S
C129 Tb120 2.764 . S
C129 C123 1.504 . S
C129 O141 1.239 . S
C129 O142 1.263 . S
O130 Tb120 2.325 . S
O130 C140 1.236 . S
O131 Tb121 2.322 . S
O131 C140 1.257 . S
O132 Tb121 2.349 . S
O132 C143 1.261 . S
O133 Tb120 2.303 . S
O133 C143 1.257 . S
O134 Tb121 2.415 . S
O134 C150 1.239 . S
O135 Tb121 2.399 . S
O135 C150 1.263 . S
O136 Tb121 2.325 . S
O136 C151 1.236 . S
O137 Tb120 2.322 . S
O137 C151 1.257 . S
O138 Tb120 2.349 . S
O138 C122 1.261 . S
O139 Tb121 2.303 . S
O139 C122 1.257 . S
C140 O130 1.236 . S
C140 O131 1.257 . S
O141 Tb120 2.415 . S
O141 C129 1.239 . S
O142 Tb120 2.399 . S
O142 C129 1.263 . S
C143 O132 1.261 . S
C143 O133 1.257 . S
C144 C147 1.358 . S
C144 C148 1.332 . S
C144 C150 1.504 . S
C145 C146 1.373 . S
C145 C149 1.308 . S
C146 C145 1.373 . S
C146 C147 1.429 . S
C146 H156 0.932 . S
C147 C144 1.358 . S
C147 C146 1.429 . S
C147 H157 0.930 . S
C148 C144 1.332 . S
C148 C149 1.394 . S
C148 H158 0.932 . S
C149 C145 1.308 . S
C149 C148 1.394 . S
C149 H159 0.929 . S
C150 Tb121 2.764 . S
C150 O134 1.239 . S
C150 O135 1.263 . S
C150 C144 1.504 . S
C151 O136 1.236 . S
C151 O137 1.257 . S
H152 C125 0.932 . S
H153 C126 0.930 . S
H154 C127 0.932 . S
H155 C128 0.929 . S
H156 C146 0.932 . S
H157 C147 0.930 . S
H158 C148 0.932 . S
H159 C149 0.929 . S
Tb160 C169 2.764 . S
Tb160 O170 2.325 . S
Tb160 O173 2.303 . S
Tb160 O177 2.322 . S
Tb160 O178 2.349 . S
Tb160 O181 2.415 . S
Tb160 O182 2.399 . S
Tb161 O171 2.322 . S
Tb161 O172 2.349 . S
Tb161 O174 2.415 . S
Tb161 O175 2.399 . S
Tb161 O176 2.325 . S
Tb161 O179 2.303 . S
Tb161 C190 2.764 . S
C162 O178 1.261 . S
C162 O179 1.257 . S
C163 C166 1.358 . S
C163 C167 1.332 . S
C163 C169 1.504 . S
C164 C165 1.373 . S
C164 C168 1.308 . S
C165 C164 1.373 . S
C165 C166 1.429 . S
C165 H192 0.932 . S
C166 C163 1.358 . S
C166 C165 1.429 . S
C166 H193 0.930 . S
C167 C163 1.332 . S
C167 C168 1.394 . S
C167 H194 0.932 . S
C168 C164 1.308 . S
C168 C167 1.394 . S
C168 H195 0.929 . S
C169 Tb160 2.764 . S
C169 C163 1.504 . S
C169 O181 1.239 . S
C169 O182 1.263 . S
O170 Tb160 2.325 . S
O170 C180 1.236 . S
O171 Tb161 2.322 . S
O171 C180 1.257 . S
O172 Tb161 2.349 . S
O172 C183 1.261 . S
O173 Tb160 2.303 . S
O173 C183 1.257 . S
O174 Tb161 2.415 . S
O174 C190 1.239 . S
O175 Tb161 2.399 . S
O175 C190 1.263 . S
O176 Tb161 2.325 . S
O176 C191 1.236 . S
O177 Tb160 2.322 . S
O177 C191 1.257 . S
O178 Tb160 2.349 . S
O178 C162 1.261 . S
O179 Tb161 2.303 . S
O179 C162 1.257 . S
C180 O170 1.236 . S
C180 O171 1.257 . S
O181 Tb160 2.415 . S
O181 C169 1.239 . S
O182 Tb160 2.399 . S
O182 C169 1.263 . S
C183 O172 1.261 . S
C183 O173 1.257 . S
C184 C187 1.358 . S
C184 C188 1.332 . S
C184 C190 1.504 . S
C185 C186 1.373 . S
C185 C189 1.308 . S
C186 C185 1.373 . S
C186 C187 1.429 . S
C186 H196 0.932 . S
C187 C184 1.358 . S
C187 C186 1.429 . S
C187 H197 0.930 . S
C188 C184 1.332 . S
C188 C189 1.394 . S
C188 H198 0.932 . S
C189 C185 1.308 . S
C189 C188 1.394 . S
C189 H199 0.929 . S
C190 Tb161 2.764 . S
C190 O174 1.239 . S
C190 O175 1.263 . S
C190 C184 1.504 . S
C191 O176 1.236 . S
C191 O177 1.257 . S
H192 C165 0.932 . S
H193 C166 0.930 . S
H194 C167 0.932 . S
H195 C168 0.929 . S
H196 C186 0.932 . S
H197 C187 0.930 . S
H198 C188 0.932 . S
H199 C189 0.929 . S
Tb200 C209 2.766 . S
Tb200 O210 2.326 . S
Tb200 O213 2.301 1_455 S
Tb200 O217 2.320 1_455 S
Tb200 O218 2.350 . S
Tb200 O221 2.416 . S
Tb200 O222 2.402 . S
Tb201 O211 2.322 . S
Tb201 O212 2.349 . S
Tb201 O214 2.415 . S
Tb201 O215 2.399 . S
Tb201 O216 2.325 . S
Tb201 O219 2.303 . S
Tb201 C230 2.764 . S
C202 O218 1.261 1_655 S
C202 O219 1.257 . S
C203 C206 1.358 . S
C203 C207 1.332 . S
C203 C209 1.504 . S
C204 C205 1.373 . S
C204 C208 1.308 . S
C205 C204 1.373 . S
C205 C206 1.429 . S
C205 H232 0.932 . S
C206 C203 1.358 . S
C206 C205 1.429 . S
C206 H233 0.930 . S
C207 C203 1.332 . S
C207 C208 1.394 . S
C207 H234 0.932 . S
C208 C204 1.308 . S
C208 C207 1.394 . S
C208 H235 0.929 . S
C209 Tb200 2.766 . S
C209 C203 1.504 . S
C209 O221 1.239 . S
C209 O222 1.263 . S
O210 Tb200 2.326 . S
O210 C220 1.236 . S
O211 Tb201 2.322 . S
O211 C220 1.257 1_655 S
O212 Tb201 2.349 . S
O212 C223 1.261 . S
O213 Tb200 2.301 1_655 S
O213 C223 1.257 . S
O214 Tb201 2.415 . S
O214 C230 1.239 . S
O215 Tb201 2.399 . S
O215 C230 1.263 . S
O216 Tb201 2.325 . S
O216 C231 1.236 . S
O217 Tb200 2.320 1_655 S
O217 C231 1.257 . S
O218 Tb200 2.350 . S
O218 C202 1.261 1_455 S
O219 Tb201 2.303 . S
O219 C202 1.257 . S
C220 O210 1.236 . S
C220 O211 1.257 1_455 S
O221 Tb200 2.416 . S
O221 C209 1.239 . S
O222 Tb200 2.402 . S
O222 C209 1.263 . S
C223 O212 1.261 . S
C223 O213 1.257 . S
C224 C227 1.358 . S
C224 C228 1.332 . S
C224 C230 1.504 . S
C225 C226 1.373 . S
C225 C229 1.308 . S
C226 C225 1.373 . S
C226 C227 1.429 . S
C226 H236 0.932 . S
C227 C224 1.358 . S
C227 C226 1.429 . S
C227 H237 0.930 . S
C228 C224 1.332 . S
C228 C229 1.394 . S
C228 H238 0.932 . S
C229 C225 1.308 . S
C229 C228 1.394 . S
C229 H239 0.929 . S
C230 Tb201 2.764 . S
C230 O214 1.239 . S
C230 O215 1.263 . S
C230 C224 1.504 . S
C231 O216 1.236 . S
C231 O217 1.257 . S
H232 C205 0.932 . S
H233 C206 0.930 . S
H234 C207 0.932 . S
H235 C208 0.929 . S
H236 C226 0.932 . S
H237 C227 0.930 . S
H238 C228 0.932 . S
H239 C229 0.929 . S
Tb240 C249 2.764 . S
Tb240 O250 2.325 . S
Tb240 O253 2.303 1_556 S
Tb240 O257 2.322 1_556 S
Tb240 O258 2.349 . S
Tb240 O261 2.415 . S
Tb240 O262 2.399 . S
Tb241 O251 2.302 1_554 S
Tb241 O252 2.349 . S
Tb241 O254 2.415 . S
Tb241 O255 2.399 . S
Tb241 O256 2.325 . S
Tb241 O259 2.303 . S
Tb241 C270 2.764 . S
C242 O258 1.261 . S
C242 O259 1.257 1_556 S
C243 C246 1.358 . S
C243 C247 1.332 . S
C243 C249 1.504 . S
C244 C245 1.373 . S
C244 C248 1.308 . S
C245 C244 1.373 . S
C245 C246 1.429 . S
C245 H272 0.932 . S
C246 C243 1.358 . S
C246 C245 1.429 . S
C246 H273 0.930 . S
C247 C243 1.332 . S
C247 C248 1.394 . S
C247 H274 0.932 . S
C248 C244 1.308 . S
C248 C247 1.394 . S
C248 H275 0.929 . S
C249 Tb240 2.764 . S
C249 C243 1.504 . S
C249 O261 1.239 . S
C249 O262 1.263 . S
O250 Tb240 2.325 . S
O250 C260 1.236 . S
O251 Tb241 2.302 1_556 S
O251 C260 1.280 . S
O252 Tb241 2.349 . S
O252 C263 1.261 . S
O253 Tb240 2.303 1_554 S
O253 C263 1.257 . S
O254 Tb241 2.415 . S
O254 C270 1.239 . S
O255 Tb241 2.399 . S
O255 C270 1.263 . S
O256 Tb241 2.325 . S
O256 C271 1.236 . S
O257 Tb240 2.322 1_554 S
O257 C271 1.257 . S
O258 Tb240 2.349 . S
O258 C242 1.261 . S
O259 Tb241 2.303 . S
O259 C242 1.257 1_554 S
C260 O250 1.236 . S
C260 O251 1.280 . S
O261 Tb240 2.415 . S
O261 C249 1.239 . S
O262 Tb240 2.399 . S
O262 C249 1.263 . S
C263 O252 1.261 . S
C263 O253 1.257 . S
C264 C267 1.358 . S
C264 C268 1.332 . S
C264 C270 1.504 . S
C265 C266 1.373 . S
C265 C269 1.308 . S
C266 C265 1.373 . S
C266 C267 1.429 . S
C266 H276 0.932 . S
C267 C264 1.358 . S
C267 C266 1.429 . S
C267 H277 0.930 . S
C268 C264 1.332 . S
C268 C269 1.394 . S
C268 H278 0.932 . S
C269 C265 1.308 . S
C269 C268 1.394 . S
C269 H279 0.929 . S
C270 Tb241 2.764 . S
C270 O254 1.239 . S
C270 O255 1.263 . S
C270 C264 1.504 . S
C271 O256 1.236 . S
C271 O257 1.257 . S
H272 C245 0.932 . S
H273 C246 0.930 . S
H274 C247 0.932 . S
H275 C248 0.929 . S
H276 C266 0.932 . S
H277 C267 0.930 . S
H278 C268 0.932 . S
H279 C269 0.929 . S
Tb280 C289 2.764 . S
Tb280 O290 2.325 . S
Tb280 O293 2.303 . S
Tb280 O297 2.322 . S
Tb280 O298 2.349 . S
Tb280 O301 2.415 . S
Tb280 O302 2.399 . S
Tb281 O291 2.322 . S
Tb281 O292 2.349 . S
Tb281 O294 2.415 . S
Tb281 O295 2.399 . S
Tb281 O296 2.325 . S
Tb281 O299 2.303 . S
Tb281 C310 2.764 . S
C282 O298 1.261 . S
C282 O299 1.257 . S
C283 C286 1.358 . S
C283 C287 1.332 . S
C283 C289 1.504 . S
C284 C285 1.373 . S
C284 C288 1.308 . S
C285 C284 1.373 . S
C285 C286 1.429 . S
C285 H312 0.932 . S
C286 C283 1.358 . S
C286 C285 1.429 . S
C286 H313 0.930 . S
C287 C283 1.332 . S
C287 C288 1.394 . S
C287 H314 0.932 . S
C288 C284 1.308 . S
C288 C287 1.394 . S
C288 H315 0.929 . S
C289 Tb280 2.764 . S
C289 C283 1.504 . S
C289 O301 1.239 . S
C289 O302 1.263 . S
O290 Tb280 2.325 . S
O290 C300 1.236 . S
O291 Tb281 2.322 . S
O291 C300 1.257 . S
O292 Tb281 2.349 . S
O292 C303 1.261 . S
O293 Tb280 2.303 . S
O293 C303 1.257 . S
O294 Tb281 2.415 . S
O294 C310 1.239 . S
O295 Tb281 2.399 . S
O295 C310 1.263 . S
O296 Tb281 2.325 . S
O296 C311 1.236 . S
O297 Tb280 2.322 . S
O297 C311 1.257 . S
O298 Tb280 2.349 . S
O298 C282 1.261 . S
O299 Tb281 2.303 . S
O299 C282 1.257 . S
C300 O290 1.236 . S
C300 O291 1.257 . S
O301 Tb280 2.415 . S
O301 C289 1.239 . S
O302 Tb280 2.399 . S
O302 C289 1.263 . S
C303 O292 1.261 . S
C303 O293 1.257 . S
C304 C307 1.358 . S
C304 C308 1.332 . S
C304 C310 1.504 . S
C305 C306 1.373 . S
C305 C309 1.308 . S
C306 C305 1.373 . S
C306 C307 1.429 . S
C306 H316 0.932 . S
C307 C304 1.358 . S
C307 C306 1.429 . S
C307 H317 0.930 . S
C308 C304 1.332 . S
C308 C309 1.394 . S
C308 H318 0.932 . S
C309 C305 1.308 . S
C309 C308 1.394 . S
C309 H319 0.929 . S
C310 Tb281 2.764 . S
C310 O294 1.239 . S
C310 O295 1.263 . S
C310 C304 1.504 . S
C311 O296 1.236 . S
C311 O297 1.257 . S
H312 C285 0.932 . S
H313 C286 0.930 . S
H314 C287 0.932 . S
H315 C288 0.929 . S
H316 C306 0.932 . S
H317 C307 0.930 . S
H318 C308 0.932 . S
H319 C309 0.929 . S
Tb320 C329 2.764 . S
Tb320 O330 2.325 . S
Tb320 O333 2.303 . S
Tb320 O337 2.322 . S
Tb320 O338 2.349 . S
Tb320 O341 2.415 . S
Tb320 O342 2.399 . S
Tb321 O331 2.322 . S
Tb321 O332 2.349 . S
Tb321 O334 2.415 . S
Tb321 O335 2.399 . S
Tb321 O336 2.325 . S
Tb321 O339 2.303 . S
Tb321 C350 2.764 . S
C322 O338 1.261 . S
C322 O339 1.257 . S
C323 C326 1.358 . S
C323 C327 1.332 . S
C323 C329 1.504 . S
C324 C325 1.373 . S
C324 C328 1.308 . S
C325 C324 1.373 . S
C325 C326 1.429 . S
C325 H352 0.932 . S
C326 C323 1.358 . S
C326 C325 1.429 . S
C326 H353 0.930 . S
C327 C323 1.332 . S
C327 C328 1.394 . S
C327 H354 0.932 . S
C328 C324 1.308 . S
C328 C327 1.394 . S
C328 H355 0.929 . S
C329 Tb320 2.764 . S
C329 C323 1.504 . S
C329 O341 1.239 . S
C329 O342 1.263 . S
O330 Tb320 2.325 . S
O330 C340 1.236 . S
O331 Tb321 2.322 . S
O331 C340 1.257 . S
O332 Tb321 2.349 . S
O332 C343 1.261 . S
O333 Tb320 2.303 . S
O333 C343 1.257 . S
O334 Tb321 2.415 . S
O334 C350 1.239 . S
O335 Tb321 2.399 . S
O335 C350 1.263 . S
O336 Tb321 2.325 . S
O336 C351 1.236 . S
O337 Tb320 2.322 . S
O337 C351 1.257 . S
O338 Tb320 2.349 . S
O338 C322 1.261 . S
O339 Tb321 2.303 . S
O339 C322 1.257 . S
C340 O330 1.236 . S
C340 O331 1.257 . S
O341 Tb320 2.415 . S
O341 C329 1.239 . S
O342 Tb320 2.399 . S
O342 C329 1.263 . S
C343 O332 1.261 . S
C343 O333 1.257 . S
C344 C347 1.358 . S
C344 C348 1.332 . S
C344 C350 1.504 . S
C345 C346 1.373 . S
C345 C349 1.308 . S
C346 C345 1.373 . S
C346 C347 1.429 . S
C346 H356 0.932 . S
C347 C344 1.358 . S
C347 C346 1.429 . S
C347 H357 0.930 . S
C348 C344 1.332 . S
C348 C349 1.394 . S
C348 H358 0.932 . S
C349 C345 1.308 . S
C349 C348 1.394 . S
C349 H359 0.929 . S
C350 Tb321 2.764 . S
C350 O334 1.239 . S
C350 O335 1.263 . S
C350 C344 1.504 . S
C351 O336 1.236 . S
C351 O337 1.257 . S
H352 C325 0.932 . S
H353 C326 0.930 . S
H354 C327 0.932 . S
H355 C328 0.929 . S
H356 C346 0.932 . S
H357 C347 0.930 . S
H358 C348 0.932 . S
H359 C349 0.929 . S
Tb360 C369 2.764 . S
Tb360 O370 2.325 . S
Tb360 O373 2.303 . S
Tb360 O377 2.322 . S
Tb360 O378 2.349 . S
Tb360 O381 2.415 . S
Tb360 O382 2.399 . S
Tb361 O371 2.322 . S
Tb361 O372 2.349 1_565 S
Tb361 O374 2.415 . S
Tb361 O375 2.399 . S
Tb361 O376 2.325 1_565 S
Tb361 O379 2.303 . S
Tb361 C390 2.764 . S
C362 O378 1.261 1_565 S
C362 O379 1.257 . S
C363 C366 1.358 . S
C363 C367 1.332 . S
C363 C369 1.504 . S
C364 C365 1.373 . S
C364 C368 1.308 . S
C365 C364 1.373 . S
C365 C366 1.429 . S
C365 H392 0.932 . S
C366 C363 1.358 . S
C366 C365 1.429 . S
C366 H393 0.930 . S
C367 C363 1.332 . S
C367 C368 1.394 . S
C367 H394 0.932 . S
C368 C364 1.308 . S
C368 C367 1.394 . S
C368 H395 0.929 . S
C369 Tb360 2.764 . S
C369 C363 1.504 . S
C369 O381 1.239 . S
C369 O382 1.263 . S
O370 Tb360 2.325 . S
O370 C380 1.236 . S
O371 Tb361 2.322 . S
O371 C380 1.257 1_565 S
O372 Tb361 2.349 1_545 S
O372 C383 1.261 . S
O373 Tb360 2.303 . S
O373 C383 1.257 . S
O374 Tb361 2.415 . S
O374 C390 1.239 . S
O375 Tb361 2.399 . S
O375 C390 1.263 . S
O376 Tb361 2.325 1_545 S
O376 C391 1.236 . S
O377 Tb360 2.322 . S
O377 C391 1.257 . S
O378 Tb360 2.349 . S
O378 C362 1.261 1_545 S
O379 Tb361 2.303 . S
O379 C362 1.257 . S
C380 O370 1.236 . S
C380 O371 1.257 1_545 S
O381 Tb360 2.415 . S
O381 C369 1.239 . S
O382 Tb360 2.399 . S
O382 C369 1.263 . S
C383 O372 1.261 . S
C383 O373 1.257 . S
C384 C387 1.358 . S
C384 C388 1.332 . S
C384 C390 1.504 . S
C385 C386 1.373 . S
C385 C389 1.308 . S
C386 C385 1.373 . S
C386 C387 1.429 . S
C386 H396 0.932 . S
C387 C384 1.358 . S
C387 C386 1.429 . S
C387 H397 0.930 . S
C388 C384 1.332 . S
C388 C389 1.394 . S
C388 H398 0.932 . S
C389 C385 1.308 . S
C389 C388 1.394 . S
C389 H399 0.929 . S
C390 Tb361 2.764 . S
C390 O374 1.239 . S
C390 O375 1.263 . S
C390 C384 1.504 . S
C391 O376 1.236 . S
C391 O377 1.257 . S
H392 C365 0.932 . S
H393 C366 0.930 . S
H394 C367 0.932 . S
H395 C368 0.929 . S
H396 C386 0.932 . S
H397 C387 0.930 . S
H398 C388 0.932 . S
H399 C389 0.929 . S
Tb400 C409 2.764 . S
Tb400 O410 2.325 . S
Tb400 O413 2.303 . S
Tb400 O417 2.322 . S
Tb400 O418 2.349 . S
Tb400 O421 2.415 . S
Tb400 O422 2.399 . S
Tb401 O411 2.322 . S
Tb401 O412 2.349 1_545 S
Tb401 O414 2.415 . S
Tb401 O415 2.399 . S
Tb401 O416 2.325 1_545 S
Tb401 O419 2.303 . S
Tb401 C430 2.764 . S
C402 O418 1.261 1_545 S
C402 O419 1.257 . S
C403 C406 1.358 . S
C403 C407 1.332 . S
C403 C409 1.504 . S
C404 C405 1.373 . S
C404 C408 1.308 . S
C405 C404 1.373 . S
C405 C406 1.429 . S
C405 H432 0.932 . S
C406 C403 1.358 . S
C406 C405 1.429 . S
C406 H433 0.930 . S
C407 C403 1.332 . S
C407 C408 1.394 . S
C407 H434 0.932 . S
C408 C404 1.308 . S
C408 C407 1.394 . S
C408 H435 0.929 . S
C409 Tb400 2.764 . S
C409 C403 1.504 . S
C409 O421 1.239 . S
C409 O422 1.263 . S
O410 Tb400 2.325 . S
O410 C420 1.236 1_565 S
O411 Tb401 2.322 . S
O411 C420 1.257 . S
O412 Tb401 2.349 1_565 S
O412 C423 1.261 . S
O413 Tb400 2.303 . S
O413 C423 1.257 . S
O414 Tb401 2.415 . S
O414 C430 1.239 . S
O415 Tb401 2.399 . S
O415 C430 1.263 . S
O416 Tb401 2.325 1_565 S
O416 C431 1.236 . S
O417 Tb400 2.322 . S
O417 C431 1.257 . S
O418 Tb400 2.349 . S
O418 C402 1.261 1_565 S
O419 Tb401 2.303 . S
O419 C402 1.257 . S
C420 O410 1.236 1_545 S
C420 O411 1.257 . S
O421 Tb400 2.415 . S
O421 C409 1.239 . S
O422 Tb400 2.399 . S
O422 C409 1.263 . S
C423 O412 1.261 . S
C423 O413 1.257 . S
C424 C427 1.358 . S
C424 C428 1.332 . S
C424 C430 1.504 . S
C425 C426 1.373 . S
C425 C429 1.308 . S
C426 C425 1.373 . S
C426 C427 1.429 . S
C426 H436 0.932 . S
C427 C424 1.358 . S
C427 C426 1.429 . S
C427 H437 0.930 . S
C428 C424 1.332 . S
C428 C429 1.394 . S
C428 H438 0.932 . S
C429 C425 1.308 . S
C429 C428 1.394 . S
C429 H439 0.929 . S
C430 Tb401 2.764 . S
C430 O414 1.239 . S
C430 O415 1.263 . S
C430 C424 1.504 . S
C431 O416 1.236 . S
C431 O417 1.257 . S
H432 C405 0.932 . S
H433 C406 0.930 . S
H434 C407 0.932 . S
H435 C408 0.929 . S
H436 C426 0.932 . S
H437 C427 0.930 . S
H438 C428 0.932 . S
H439 C429 0.929 . S
Tb440 C449 2.764 . S
Tb440 O450 2.325 . S
Tb440 O453 2.303 . S
Tb440 O457 2.322 . S
Tb440 O458 2.349 . S
Tb440 O461 2.415 . S
Tb440 O462 2.399 . S
Tb441 O451 2.322 . S
Tb441 O452 2.349 . S
Tb441 O454 2.415 . S
Tb441 O455 2.399 . S
Tb441 O456 2.325 . S
Tb441 O459 2.303 . S
Tb441 C470 2.764 . S
C442 O458 1.261 . S
C442 O459 1.257 . S
C443 C446 1.358 . S
C443 C447 1.332 . S
C443 C449 1.504 . S
C444 C445 1.373 . S
C444 C448 1.308 . S
C445 C444 1.373 . S
C445 C446 1.429 . S
C445 H472 0.932 . S
C446 C443 1.358 . S
C446 C445 1.429 . S
C446 H473 0.930 . S
C447 C443 1.332 . S
C447 C448 1.394 . S
C447 H474 0.932 . S
C448 C444 1.308 . S
C448 C447 1.394 . S
C448 H475 0.929 . S
C449 Tb440 2.764 . S
C449 C443 1.504 . S
C449 O461 1.239 . S
C449 O462 1.263 . S
O450 Tb440 2.325 . S
O450 C460 1.236 . S
O451 Tb441 2.322 . S
O451 C460 1.257 . S
O452 Tb441 2.349 . S
O452 C463 1.261 . S
O453 Tb440 2.303 . S
O453 C463 1.257 . S
O454 Tb441 2.415 . S
O454 C470 1.239 . S
O455 Tb441 2.399 . S
O455 C470 1.263 . S
O456 Tb441 2.325 . S
O456 C471 1.236 . S
O457 Tb440 2.322 . S
O457 C471 1.257 . S
O458 Tb440 2.349 . S
O458 C442 1.261 . S
O459 Tb441 2.303 . S
O459 C442 1.257 . S
C460 O450 1.236 . S
C460 O451 1.257 . S
O461 Tb440 2.415 . S
O461 C449 1.239 . S
O462 Tb440 2.399 . S
O462 C449 1.263 . S
C463 O452 1.261 . S
C463 O453 1.257 . S
C464 C467 1.358 . S
C464 C468 1.332 . S
C464 C470 1.504 . S
C465 C466 1.373 . S
C465 C469 1.308 . S
C466 C465 1.373 . S
C466 C467 1.429 . S
C466 H476 0.932 . S
C467 C464 1.358 . S
C467 C466 1.429 . S
C467 H477 0.930 . S
C468 C464 1.332 . S
C468 C469 1.394 . S
C468 H478 0.932 . S
C469 C465 1.308 . S
C469 C468 1.394 . S
C469 H479 0.929 . S
C470 Tb441 2.764 . S
C470 O454 1.239 . S
C470 O455 1.263 . S
C470 C464 1.504 . S
C471 O456 1.236 . S
C471 O457 1.257 . S
H472 C445 0.932 . S
H473 C446 0.930 . S
H474 C447 0.932 . S
H475 C448 0.929 . S
H476 C466 0.932 . S
H477 C467 0.930 . S
H478 C468 0.932 . S
H479 C469 0.929 . S
H480 C486 0.930 . S
H481 C490 0.930 . S
H482 C495 0.929 . S
H483 C493 0.929 . S
H484 C488 0.929 . S
H485 C494 0.929 . S
C486 H480 0.930 . S
C486 C487 1.367 . S
C486 C494 1.378 . S
C487 C486 1.367 . S
C487 C495 1.433 . S
C488 H484 0.929 . S
C488 C490 1.378 . S
C488 C492 1.350 . S
C489 C492 1.463 . S
C489 C494 1.350 . S
C489 N497 1.427 . S
C490 H481 0.930 . S
C490 C488 1.378 . S
C490 C491 1.367 . S
C491 C490 1.367 . S
C491 C493 1.433 . S
C492 C488 1.350 . S
C492 C489 1.463 . S
C492 N496 1.427 . S
C493 H483 0.929 . S
C493 C491 1.433 . S
C493 N496 1.384 . S
C494 H485 0.929 . S
C494 C486 1.378 . S
C494 C489 1.350 . S
C495 H482 0.929 . S
C495 C487 1.433 . S
C495 N497 1.384 . S
N496 C492 1.427 . S
N496 C493 1.384 . S
N497 C489 1.427 . S
N497 C495 1.384 . S
H498 C504 0.930 . S
H499 C508 0.930 . S
H500 C513 0.929 . S
H501 C511 0.929 1_545 S
H502 C506 0.929 . S
H503 C512 0.929 . S
C504 H498 0.930 . S
C504 C505 1.367 . S
C504 C512 1.378 . S
C505 C504 1.367 . S
C505 C513 1.433 1_545 S
C506 H502 0.929 . S
C506 C508 1.378 . S
C506 C510 1.350 . S
C507 C510 1.463 . S
C507 C512 1.350 1_565 S
C507 N515 1.427 . S
C508 H499 0.930 . S
C508 C506 1.378 . S
C508 C509 1.367 . S
C509 C508 1.367 . S
C509 C511 1.433 . S
C510 C506 1.350 . S
C510 C507 1.463 . S
C510 N514 1.427 . S
C511 H501 0.929 1_565 S
C511 C509 1.433 . S
C511 N514 1.384 . S
C512 H503 0.929 . S
C512 C504 1.378 . S
C512 C507 1.350 1_545 S
C513 H500 0.929 . S
C513 C505 1.433 1_565 S
C513 N515 1.384 . S
N514 C510 1.427 . S
N514 C511 1.384 . S
N515 C507 1.427 . S
N515 C513 1.384 . S
H516 C522 0.930 . S
H517 C526 0.930 . S
H518 C531 0.929 . S
H519 C529 0.929 . S
H520 C524 0.929 . S
H521 C530 0.929 . S
C522 H516 0.930 . S
C522 C523 1.367 . S
C522 C530 1.378 . S
C523 C522 1.367 . S
C523 C531 1.433 1_554 S
C524 H520 0.929 . S
C524 C526 1.378 . S
C524 C528 1.350 . S
C525 C528 1.463 . S
C525 C530 1.350 . S
C525 N533 1.427 . S
C526 H517 0.930 . S
C526 C524 1.378 . S
C526 C527 1.367 . S
C527 C526 1.367 . S
C527 C529 1.433 . S
C528 C524 1.350 . S
C528 C525 1.463 . S
C528 N532 1.427 . S
C529 H519 0.929 . S
C529 C527 1.433 . S
C529 N532 1.384 . S
C530 H521 0.929 . S
C530 C522 1.378 . S
C530 C525 1.350 . S
C531 H518 0.929 . S
C531 C523 1.433 1_556 S
C531 N533 1.384 1_556 S
N532 C528 1.427 . S
N532 C529 1.384 . S
N533 C525 1.427 . S
N533 C531 1.384 1_554 S
H534 C540 0.930 . S
H535 C544 0.930 1_565 S
H536 C549 0.929 . S
H537 C547 0.929 . S
H538 C542 0.929 . S
H539 C548 0.929 . S
C540 H534 0.930 . S
C540 C541 1.367 . S
C540 C548 1.378 . S
C541 C540 1.367 . S
C541 C549 1.433 . S
C542 H538 0.929 . S
C542 C544 1.378 . S
C542 C546 1.350 . S
C543 C546 1.463 . S
C543 C548 1.350 . S
C543 N551 1.427 . S
C544 H535 0.930 1_545 S
C544 C542 1.378 . S
C544 C545 1.367 . S
C545 C544 1.367 . S
C545 C547 1.433 . S
C546 C542 1.350 . S
C546 C543 1.463 . S
C546 N550 1.427 . S
C547 H537 0.929 . S
C547 C545 1.433 . S
C547 N550 1.384 . S
C548 H539 0.929 . S
C548 C540 1.378 . S
C548 C543 1.350 . S
C549 H536 0.929 . S
C549 C541 1.433 . S
C549 N551 1.384 . S
N550 C546 1.427 . S
N550 C547 1.384 . S
N551 C543 1.427 . S
N551 C549 1.384 . S
H552 C558 0.930 . S
H553 C562 0.930 . S
H554 C567 0.929 . S
H555 C565 0.929 . S
H556 C560 0.929 . S
H557 C566 0.929 . S
C558 H552 0.930 . S
C558 C559 1.367 . S
C558 C566 1.378 . S
C559 C558 1.367 . S
C559 C567 1.433 . S
C560 H556 0.929 . S
C560 C562 1.378 . S
C560 C564 1.350 . S
C561 C564 1.463 . S
C561 C566 1.350 . S
C561 N569 1.427 . S
C562 H553 0.930 . S
C562 C560 1.378 . S
C562 C563 1.367 . S
C563 C562 1.367 . S
C563 C565 1.433 . S
C564 C560 1.350 . S
C564 C561 1.463 . S
C564 N568 1.427 . S
C565 H555 0.929 . S
C565 C563 1.433 . S
C565 N568 1.384 . S
C566 H557 0.929 . S
C566 C558 1.378 . S
C566 C561 1.350 . S
C567 H554 0.929 . S
C567 C559 1.433 . S
C567 N569 1.384 . S
N568 C564 1.427 . S
N568 C565 1.384 . S
N569 C561 1.427 . S
N569 C567 1.384 . S
H570 C576 0.930 . S
H571 C580 0.930 . S
H572 C585 0.929 . S
H573 C583 0.929 . S
H574 C578 0.929 . S
H575 C584 0.929 . S
C576 H570 0.930 . S
C576 C577 1.367 . S
C576 C584 1.378 . S
C577 C576 1.367 . S
C577 C585 1.433 . S
C578 H574 0.929 . S
C578 C580 1.378 . S
C578 C582 1.350 . S
C579 C582 1.463 . S
C579 C584 1.350 . S
C579 N587 1.427 . S
C580 H571 0.930 . S
C580 C578 1.378 . S
C580 C581 1.367 . S
C581 C580 1.367 . S
C581 C583 1.433 . S
C582 C578 1.350 . S
C582 C579 1.463 . S
C582 N586 1.427 . S
C583 H573 0.929 . S
C583 C581 1.433 . S
C583 N586 1.384 . S
C584 H575 0.929 . S
C584 C576 1.378 . S
C584 C579 1.350 . S
C585 H572 0.929 . S
C585 C577 1.433 . S
C585 N587 1.384 . S
N586 C582 1.427 . S
N586 C583 1.384 . S
N587 C579 1.427 . S
N587 C585 1.384 . S
H588 C594 0.930 . S
H589 C598 0.930 1_554 S
H590 C603 0.929 . S
H591 C601 0.929 . S
H592 C596 0.929 . S
H593 C602 0.929 . S
C594 H588 0.930 . S
C594 C595 1.367 . S
C594 C602 1.378 . S
C595 C594 1.367 . S
C595 C603 1.433 . S
C596 H592 0.929 . S
C596 C598 1.378 . S
C596 C600 1.350 . S
C597 C600 1.463 . S
C597 C602 1.350 . S
C597 N605 1.427 . S
C598 H589 0.930 1_556 S
C598 C596 1.378 . S
C598 C599 1.367 . S
C599 C598 1.367 . S
C599 C601 1.433 . S
C600 C596 1.350 . S
C600 C597 1.463 . S
C600 N604 1.427 . S
C601 H591 0.929 . S
C601 C599 1.433 . S
C601 N604 1.384 . S
C602 H593 0.929 . S
C602 C594 1.378 . S
C602 C597 1.350 . S
C603 H590 0.929 . S
C603 C595 1.433 . S
C603 N605 1.384 . S
N604 C600 1.427 . S
N604 C601 1.384 . S
N605 C597 1.427 . S
N605 C603 1.384 . S
H606 C612 0.930 . S
H607 C616 0.930 . S
H608 C621 0.929 . S
H609 C619 0.929 . S
H610 C614 0.929 . S
H611 C620 0.929 . S
C612 H606 0.930 . S
C612 C613 1.367 . S
C612 C620 1.378 . S
C613 C612 1.367 . S
C613 C621 1.433 . S
C614 H610 0.929 . S
C614 C616 1.378 . S
C614 C618 1.350 . S
C615 C618 1.463 . S
C615 C620 1.350 . S
C615 N623 1.427 . S
C616 H607 0.930 . S
C616 C614 1.378 . S
C616 C617 1.367 . S
C617 C616 1.367 . S
C617 C619 1.433 . S
C618 C614 1.350 . S
C618 C615 1.463 . S
C618 N622 1.427 . S
C619 H609 0.929 . S
C619 C617 1.433 . S
C619 N622 1.384 . S
C620 H611 0.929 . S
C620 C612 1.378 . S
C620 C615 1.350 . S
C621 H608 0.929 . S
C621 C613 1.433 . S
C621 N623 1.384 . S
N622 C618 1.427 . S
N622 C619 1.384 . S
N623 C615 1.427 . S
N623 C621 1.384 . S
H624 C630 0.930 . S
H625 C634 0.930 . S
H626 C639 0.929 . S
H627 C637 0.929 . S
H628 C632 0.929 . S
H629 C638 0.929 . S
C630 H624 0.930 . S
C630 C631 1.367 . S
C630 C638 1.378 . S
C631 C630 1.367 . S
C631 C639 1.433 . S
C632 H628 0.929 . S
C632 C634 1.378 . S
C632 C636 1.350 . S
C633 C636 1.463 . S
C633 C638 1.350 . S
C633 N641 1.427 . S
C634 H625 0.930 . S
C634 C632 1.378 . S
C634 C635 1.367 . S
C635 C634 1.367 . S
C635 C637 1.433 . S
C636 C632 1.350 . S
C636 C633 1.463 . S
C636 N640 1.427 . S
C637 H627 0.929 . S
C637 C635 1.433 . S
C637 N640 1.384 . S
C638 H629 0.929 . S
C638 C630 1.378 . S
C638 C633 1.350 . S
C639 H626 0.929 . S
C639 C631 1.433 . S
C639 N641 1.384 . S
N640 C636 1.427 . S
N640 C637 1.384 . S
N641 C633 1.427 . S
N641 C639 1.384 . S
H642 C648 0.930 . S
H643 C652 0.930 . S
H644 C657 0.929 . S
H645 C655 0.929 . S
H646 C650 0.929 . S
H647 C656 0.929 1_655 S
C648 H642 0.930 . S
C648 C649 1.367 . S
C648 C656 1.378 . S
C649 C648 1.367 . S
C649 C657 1.433 . S
C650 H646 0.929 . S
C650 C652 1.378 . S
C650 C654 1.350 . S
C651 C654 1.463 . S
C651 C656 1.350 . S
C651 N659 1.427 . S
C652 H643 0.930 . S
C652 C650 1.378 . S
C652 C653 1.367 . S
C653 C652 1.367 . S
C653 C655 1.433 1_455 S
C654 C650 1.350 . S
C654 C651 1.463 . S
C654 N658 1.427 1_455 S
C655 H645 0.929 . S
C655 C653 1.433 1_655 S
C655 N658 1.384 . S
C656 H647 0.929 1_455 S
C656 C648 1.378 . S
C656 C651 1.350 . S
C657 H644 0.929 . S
C657 C649 1.433 . S
C657 N659 1.384 . S
N658 C654 1.427 1_655 S
N658 C655 1.384 . S
N659 C651 1.427 . S
N659 C657 1.384 . S
H660 C666 0.930 . S
H661 C670 0.930 . S
H662 C675 0.929 . S
H663 C673 0.929 . S
H664 C668 0.929 . S
H665 C674 0.929 . S
C666 H660 0.930 . S
C666 C667 1.367 . S
C666 C674 1.378 . S
C667 C666 1.367 . S
C667 C675 1.433 . S
C668 H664 0.929 . S
C668 C670 1.378 . S
C668 C672 1.350 . S
C669 C672 1.463 . S
C669 C674 1.350 . S
C669 N677 1.427 . S
C670 H661 0.930 . S
C670 C668 1.378 . S
C670 C671 1.367 . S
C671 C670 1.367 . S
C671 C673 1.433 . S
C672 C668 1.350 . S
C672 C669 1.463 . S
C672 N676 1.427 . S
C673 H663 0.929 . S
C673 C671 1.433 . S
C673 N676 1.384 . S
C674 H665 0.929 . S
C674 C666 1.378 . S
C674 C669 1.350 . S
C675 H662 0.929 . S
C675 C667 1.433 . S
C675 N677 1.384 . S
N676 C672 1.427 . S
N676 C673 1.384 . S
N677 C669 1.427 . S
N677 C675 1.384 . S
H678 C684 0.930 . S
H679 C688 0.930 . S
H680 C693 0.929 . S
H681 C691 0.929 . S
H682 C686 0.929 . S
H683 C692 0.929 . S
C684 H678 0.930 . S
C684 C685 1.367 . S
C684 C692 1.378 . S
C685 C684 1.367 . S
C685 C693 1.433 . S
C686 H682 0.929 . S
C686 C688 1.378 . S
C686 C690 1.350 . S
C687 C690 1.463 . S
C687 C692 1.350 . S
C687 N695 1.427 . S
C688 H679 0.930 . S
C688 C686 1.378 . S
C688 C689 1.367 . S
C689 C688 1.367 . S
C689 C691 1.433 . S
C690 C686 1.350 . S
C690 C687 1.463 . S
C690 N694 1.427 . S
C691 H681 0.929 . S
C691 C689 1.433 . S
C691 N694 1.384 . S
C692 H683 0.929 . S
C692 C684 1.378 . S
C692 C687 1.350 . S
C693 H680 0.929 . S
C693 C685 1.433 . S
C693 N695 1.384 . S
N694 C690 1.427 . S
N694 C691 1.384 . S
N695 C687 1.427 . S
N695 C693 1.384 . S
H696 C702 0.930 . S
H697 C706 0.930 . S
H698 C711 0.929 . S
H699 C709 0.929 . S
H700 C704 0.929 . S
H701 C710 0.929 . S
C702 H696 0.930 . S
C702 C703 1.367 . S
C702 C710 1.378 . S
C703 C702 1.367 . S
C703 C711 1.433 . S
C704 H700 0.929 . S
C704 C706 1.378 . S
C704 C708 1.350 . S
C705 C708 1.463 . S
C705 C710 1.350 . S
C705 N713 1.427 . S
C706 H697 0.930 . S
C706 C704 1.378 . S
C706 C707 1.367 . S
C707 C706 1.367 . S
C707 C709 1.433 . S
C708 C704 1.350 . S
C708 C705 1.463 . S
C708 N712 1.427 . S
C709 H699 0.929 . S
C709 C707 1.433 . S
C709 N712 1.384 . S
C710 H701 0.929 . S
C710 C702 1.378 . S
C710 C705 1.350 . S
C711 H698 0.929 . S
C711 C703 1.433 . S
C711 N713 1.384 . S
N712 C708 1.427 . S
N712 C709 1.384 . S
N713 C705 1.427 . S
N713 C711 1.384 . S
H714 C720 0.930 . S
H715 C724 0.930 . S
H716 C729 0.929 . S
H717 C727 0.929 . S
H718 C722 0.929 . S
H719 C728 0.929 . S
C720 H714 0.930 . S
C720 C721 1.367 . S
C720 C728 1.378 . S
C721 C720 1.367 . S
C721 C729 1.433 . S
C722 H718 0.929 . S
C722 C724 1.378 . S
C722 C726 1.350 . S
C723 C726 1.463 . S
C723 C728 1.350 . S
C723 N731 1.427 . S
C724 H715 0.930 . S
C724 C722 1.378 . S
C724 C725 1.367 . S
C725 C724 1.367 . S
C725 C727 1.433 . S
C726 C722 1.350 . S
C726 C723 1.463 . S
C726 N730 1.427 . S
C727 H717 0.929 . S
C727 C725 1.433 . S
C727 N730 1.384 . S
C728 H719 0.929 . S
C728 C720 1.378 . S
C728 C723 1.350 . S
C729 H716 0.929 . S
C729 C721 1.433 . S
C729 N731 1.384 . S
N730 C726 1.427 . S
N730 C727 1.384 . S
N731 C723 1.427 . S
N731 C729 1.384 . S
H732 C738 0.930 . S
H733 C742 0.930 . S
H734 C747 0.929 . S
H735 C745 0.929 . S
H736 C740 0.929 . S
H737 C746 0.929 . S
C738 H732 0.930 . S
C738 C739 1.367 . S
C738 C746 1.378 . S
C739 C738 1.367 . S
C739 C747 1.433 . S
C740 H736 0.929 . S
C740 C742 1.378 . S
C740 C744 1.350 . S
C741 C744 1.463 . S
C741 C746 1.350 . S
C741 N749 1.427 . S
C742 H733 0.930 . S
C742 C740 1.378 . S
C742 C743 1.367 . S
C743 C742 1.367 . S
C743 C745 1.433 . S
C744 C740 1.350 . S
C744 C741 1.463 . S
C744 N748 1.427 . S
C745 H735 0.929 . S
C745 C743 1.433 . S
C745 N748 1.384 . S
C746 H737 0.929 . S
C746 C738 1.378 . S
C746 C741 1.350 . S
C747 H734 0.929 . S
C747 C739 1.433 . S
C747 N749 1.384 . S
N748 C744 1.427 . S
N748 C745 1.384 . S
N749 C741 1.427 . S
N749 C747 1.384 . S
H750 C756 0.930 . S
H751 C760 0.930 . S
H752 C765 0.929 . S
H753 C763 0.929 . S
H754 C758 0.929 1_554 S
H755 C764 0.929 . S
C756 H750 0.930 . S
C756 C757 1.367 . S
C756 C764 1.378 . S
C757 C756 1.367 . S
C757 C765 1.433 . S
C758 H754 0.929 1_556 S
C758 C760 1.378 . S
C758 C762 1.350 1_556 S
C759 C762 1.463 . S
C759 C764 1.350 . S
C759 N767 1.427 . S
C760 H751 0.930 . S
C760 C758 1.378 . S
C760 C761 1.367 . S
C761 C760 1.367 . S
C761 C763 1.433 . S
C762 C758 1.350 1_554 S
C762 C759 1.463 . S
C762 N766 1.427 1_554 S
C763 H753 0.929 . S
C763 C761 1.433 . S
C763 N766 1.384 . S
C764 H755 0.929 . S
C764 C756 1.378 . S
C764 C759 1.350 . S
C765 H752 0.929 . S
C765 C757 1.433 . S
C765 N767 1.384 . S
N766 C762 1.427 1_556 S
N766 C763 1.384 . S
N767 C759 1.427 . S
N767 C765 1.384 . S
H768 C774 0.930 . S
H769 C778 0.930 . S
H770 C783 0.929 . S
H771 C781 0.929 . S
H772 C776 0.929 . S
H773 C782 0.929 . S
C774 H768 0.930 . S
C774 C775 1.367 . S
C774 C782 1.378 . S
C775 C774 1.367 . S
C775 C783 1.433 . S
C776 H772 0.929 . S
C776 C778 1.378 . S
C776 C780 1.350 . S
C777 C780 1.463 . S
C777 C782 1.350 . S
C777 N785 1.427 . S
C778 H769 0.930 . S
C778 C776 1.378 . S
C778 C779 1.367 . S
C779 C778 1.367 . S
C779 C781 1.433 . S
C780 C776 1.350 . S
C780 C777 1.463 . S
C780 N784 1.427 . S
C781 H771 0.929 . S
C781 C779 1.433 . S
C781 N784 1.384 . S
C782 H773 0.929 . S
C782 C774 1.378 . S
C782 C777 1.350 . S
C783 H770 0.929 . S
C783 C775 1.433 . S
C783 N785 1.384 . S
N784 C780 1.427 . S
N784 C781 1.384 . S
N785 C777 1.427 . S
N785 C783 1.384 . S
H786 C792 0.930 . S
H787 C796 0.930 . S
H788 C801 0.929 . S
H789 C799 0.929 . S
H790 C794 0.929 . S
H791 C800 0.929 . S
C792 H786 0.930 . S
C792 C793 1.367 . S
C792 C800 1.378 1_554 S
C793 C792 1.367 . S
C793 C801 1.433 . S
C794 H790 0.929 . S
C794 C796 1.378 . S
C794 C798 1.350 . S
C795 C798 1.463 . S
C795 C800 1.350 . S
C795 N803 1.427 . S
C796 H787 0.930 . S
C796 C794 1.378 . S
C796 C797 1.367 . S
C797 C796 1.367 . S
C797 C799 1.433 . S
C798 C794 1.350 . S
C798 C795 1.463 . S
C798 N802 1.427 . S
C799 H789 0.929 . S
C799 C797 1.433 . S
C799 N802 1.384 . S
C800 H791 0.929 . S
C800 C792 1.378 1_556 S
C800 C795 1.350 . S
C801 H788 0.929 . S
C801 C793 1.433 . S
C801 N803 1.384 1_554 S
N802 C798 1.427 . S
N802 C799 1.384 . S
N803 C795 1.427 . S
N803 C801 1.384 1_556 S
H804 C810 0.930 . S
H805 C814 0.930 . S
H806 C819 0.929 . S
H807 C817 0.929 . S
H808 C812 0.929 . S
H809 C818 0.929 . S
C810 H804 0.930 . S
C810 C811 1.367 . S
C810 C818 1.378 . S
C811 C810 1.367 . S
C811 C819 1.433 . S
C812 H808 0.929 . S
C812 C814 1.378 . S
C812 C816 1.350 . S
C813 C816 1.463 . S
C813 C818 1.350 . S
C813 N821 1.427 . S
C814 H805 0.930 . S
C814 C812 1.378 . S
C814 C815 1.367 . S
C815 C814 1.367 . S
C815 C817 1.433 . S
C816 C812 1.350 . S
C816 C813 1.463 . S
C816 N820 1.427 . S
C817 H807 0.929 . S
C817 C815 1.433 . S
C817 N820 1.384 . S
C818 H809 0.929 . S
C818 C810 1.378 . S
C818 C813 1.350 . S
C819 H806 0.929 . S
C819 C811 1.433 . S
C819 N821 1.384 . S
N820 C816 1.427 . S
N820 C817 1.384 . S
N821 C813 1.427 . S
N821 C819 1.384 . S
H822 C828 0.930 . S
H823 C832 0.930 . S
H824 C837 0.929 . S
H825 C835 0.929 . S
H826 C830 0.929 . S
H827 C836 0.929 . S
C828 H822 0.930 . S
C828 C829 1.367 . S
C828 C836 1.378 . S
C829 C828 1.367 . S
C829 C837 1.433 . S
C830 H826 0.929 . S
C830 C832 1.378 . S
C830 C834 1.350 . S
C831 C834 1.463 . S
C831 C836 1.350 . S
C831 N839 1.427 . S
C832 H823 0.930 . S
C832 C830 1.378 . S
C832 C833 1.367 . S
C833 C832 1.367 . S
C833 C835 1.433 . S
C834 C830 1.350 . S
C834 C831 1.463 . S
C834 N838 1.427 . S
C835 H825 0.929 . S
C835 C833 1.433 . S
C835 N838 1.384 . S
C836 H827 0.929 . S
C836 C828 1.378 . S
C836 C831 1.350 . S
C837 H824 0.929 . S
C837 C829 1.433 . S
C837 N839 1.384 . S
N838 C834 1.427 . S
N838 C835 1.384 . S
N839 C831 1.427 . S
N839 C837 1.384 . S
H840 C846 0.930 . S
H841 C850 0.930 . S
H842 C855 0.929 . S
H843 C853 0.929 . S
H844 C848 0.929 . S
H845 C854 0.929 . S
C846 H840 0.930 . S
C846 C847 1.367 . S
C846 C854 1.378 . S
C847 C846 1.367 . S
C847 C855 1.433 . S
C848 H844 0.929 . S
C848 C850 1.378 . S
C848 C852 1.350 . S
C849 C852 1.463 . S
C849 C854 1.350 . S
C849 N857 1.427 . S
C850 H841 0.930 . S
C850 C848 1.378 . S
C850 C851 1.367 . S
C851 C850 1.367 . S
C851 C853 1.433 . S
C852 C848 1.350 . S
C852 C849 1.463 . S
C852 N856 1.427 . S
C853 H843 0.929 . S
C853 C851 1.433 . S
C853 N856 1.384 . S
C854 H845 0.929 . S
C854 C846 1.378 . S
C854 C849 1.350 . S
C855 H842 0.929 . S
C855 C847 1.433 . S
C855 N857 1.384 . S
N856 C852 1.427 . S
N856 C853 1.384 . S
N857 C849 1.427 . S
N857 C855 1.384 . S
H858 C864 0.930 . S
H859 C868 0.930 . S
H860 C873 0.929 . S
H861 C871 0.929 . S
H862 C866 0.928 1_545 S
H863 C872 0.929 . S
C864 H858 0.930 . S
C864 C865 1.367 . S
C864 C872 1.378 . S
C865 C864 1.367 . S
C865 C873 1.433 . S
C866 H862 0.928 1_565 S
C866 C868 1.390 . S
C866 C870 1.338 1_565 S
C867 C870 1.463 . S
C867 C872 1.350 . S
C867 N875 1.427 . S
C868 H859 0.930 . S
C868 C866 1.390 . S
C868 C869 1.367 . S
C869 C868 1.367 . S
C869 C871 1.433 . S
C870 C866 1.338 1_545 S
C870 C867 1.463 . S
C870 N874 1.427 . S
C871 H861 0.929 . S
C871 C869 1.433 . S
C871 N874 1.384 1_565 S
C872 H863 0.929 . S
C872 C864 1.378 . S
C872 C867 1.350 . S
C873 H860 0.929 . S
C873 C865 1.433 . S
C873 N875 1.384 . S
N874 C870 1.427 . S
N874 C871 1.384 1_545 S
N875 C867 1.427 . S
N875 C873 1.384 . S
H876 C882 0.930 . S
H877 C886 0.930 . S
H878 C891 0.929 . S
H879 C889 0.929 . S
H880 C884 0.929 . S
H881 C890 0.929 . S
C882 H876 0.930 . S
C882 C883 1.367 . S
C882 C890 1.378 . S
C883 C882 1.367 . S
C883 C891 1.433 . S
C884 H880 0.929 . S
C884 C886 1.378 . S
C884 C888 1.350 . S
C885 C888 1.463 . S
C885 C890 1.350 . S
C885 N893 1.427 . S
C886 H877 0.930 . S
C886 C884 1.378 . S
C886 C887 1.367 . S
C887 C886 1.367 . S
C887 C889 1.433 . S
C888 C884 1.350 . S
C888 C885 1.463 . S
C888 N892 1.427 . S
C889 H879 0.929 . S
C889 C887 1.433 . S
C889 N892 1.384 . S
C890 H881 0.929 . S
C890 C882 1.378 . S
C890 C885 1.350 . S
C891 H878 0.929 . S
C891 C883 1.433 . S
C891 N893 1.384 . S
N892 C888 1.427 . S
N892 C889 1.384 . S
N893 C885 1.427 . S
N893 C891 1.384 . S
H894 C900 0.930 . S
H895 C904 0.930 . S
H896 C909 0.929 . S
H897 C907 0.929 . S
H898 C902 0.929 . S
H899 C908 0.929 . S
C900 H894 0.930 . S
C900 C901 1.367 . S
C900 C908 1.378 . S
C901 C900 1.367 . S
C901 C909 1.433 . S
C902 H898 0.929 . S
C902 C904 1.378 . S
C902 C906 1.350 . S
C903 C906 1.463 1_545 S
C903 C908 1.350 . S
C903 N911 1.427 . S
C904 H895 0.930 . S
C904 C902 1.378 . S
C904 C905 1.367 . S
C905 C904 1.367 . S
C905 C907 1.433 . S
C906 C902 1.350 . S
C906 C903 1.463 1_565 S
C906 N910 1.427 . S
C907 H897 0.929 . S
C907 C905 1.433 . S
C907 N910 1.384 . S
C908 H899 0.929 . S
C908 C900 1.378 . S
C908 C903 1.350 . S
C909 H896 0.929 . S
C909 C901 1.433 . S
C909 N911 1.384 . S
N910 C906 1.427 . S
N910 C907 1.384 . S
N911 C903 1.427 . S
N911 C909 1.384 . S
H912 C918 0.930 . S
H913 C922 0.930 . S
H914 C927 0.929 . S
H915 C925 0.929 . S
H916 C920 0.929 . S
H917 C926 0.929 . S
C918 H912 0.930 . S
C918 C919 1.367 . S
C918 C926 1.378 . S
C919 C918 1.367 . S
C919 C927 1.433 . S
C920 H916 0.929 . S
C920 C922 1.378 . S
C920 C924 1.350 . S
C921 C924 1.463 . S
C921 C926 1.350 . S
C921 N929 1.427 . S
C922 H913 0.930 . S
C922 C920 1.378 . S
C922 C923 1.367 . S
C923 C922 1.367 . S
C923 C925 1.433 . S
C924 C920 1.350 . S
C924 C921 1.463 . S
C924 N928 1.427 . S
C925 H915 0.929 . S
C925 C923 1.433 . S
C925 N928 1.384 . S
C926 H917 0.929 . S
C926 C918 1.378 . S
C926 C921 1.350 . S
C927 H914 0.929 . S
C927 C919 1.433 . S
C927 N929 1.384 . S
N928 C924 1.427 . S
N928 C925 1.384 . S
N929 C921 1.427 . S
N929 C927 1.384 . S
H930 C936 0.930 . S
H931 C940 0.930 . S
H932 C945 0.929 . S
H933 C943 0.929 . S
H934 C938 0.929 . S
H935 C944 0.929 . S
C936 H930 0.930 . S
C936 C937 1.367 . S
C936 C944 1.378 . S
C937 C936 1.367 . S
C937 C945 1.433 . S
C938 H934 0.929 . S
C938 C940 1.378 . S
C938 C942 1.350 . S
C939 C942 1.463 . S
C939 C944 1.350 . S
C939 N947 1.427 . S
C940 H931 0.930 . S
C940 C938 1.378 . S
C940 C941 1.367 . S
C941 C940 1.367 . S
C941 C943 1.433 . S
C942 C938 1.350 . S
C942 C939 1.463 . S
C942 N946 1.427 . S
C943 H933 0.929 . S
C943 C941 1.433 . S
C943 N946 1.384 . S
C944 H935 0.929 . S
C944 C936 1.378 . S
C944 C939 1.350 . S
C945 H932 0.929 . S
C945 C937 1.433 . S
C945 N947 1.384 . S
N946 C942 1.427 . S
N946 C943 1.384 . S
N947 C939 1.427 . S
N947 C945 1.384 . S
H948 C954 0.930 . S
H949 C958 0.930 . S
H950 C963 0.929 . S
H951 C961 0.929 . S
H952 C956 0.929 . S
H953 C962 0.929 . S
C954 H948 0.930 . S
C954 C955 1.367 . S
C954 C962 1.378 . S
C955 C954 1.367 . S
C955 C963 1.433 . S
C956 H952 0.929 . S
C956 C958 1.378 . S
C956 C960 1.350 . S
C957 C960 1.463 . S
C957 C962 1.350 . S
C957 N965 1.427 . S
C958 H949 0.930 . S
C958 C956 1.378 . S
C958 C959 1.367 . S
C959 C958 1.367 . S
C959 C961 1.433 . S
C960 C956 1.350 . S
C960 C957 1.463 . S
C960 N964 1.427 . S
C961 H951 0.929 . S
C961 C959 1.433 . S
C961 N964 1.384 . S
C962 H953 0.929 . S
C962 C954 1.378 . S
C962 C957 1.350 . S
C963 H950 0.929 . S
C963 C955 1.433 . S
C963 N965 1.384 . S
N964 C960 1.427 . S
N964 C961 1.384 . S
N965 C957 1.427 . S
N965 C963 1.384 . S
H966 C972 0.930 . S
H967 C976 0.930 . S
H968 C981 0.929 . S
H969 C979 0.929 . S
H970 C974 0.929 . S
H971 C980 0.929 . S
C972 H966 0.930 . S
C972 C973 1.367 . S
C972 C980 1.378 . S
C973 C972 1.367 . S
C973 C981 1.433 . S
C974 H970 0.929 . S
C974 C976 1.378 . S
C974 C978 1.350 . S
C975 C978 1.463 . S
C975 C980 1.350 . S
C975 N983 1.427 . S
C976 H967 0.930 . S
C976 C974 1.378 . S
C976 C977 1.367 . S
C977 C976 1.367 . S
C977 C979 1.433 . S
C978 C974 1.350 . S
C978 C975 1.463 . S
C978 N982 1.427 . S
C979 H969 0.929 . S
C979 C977 1.433 . S
C979 N982 1.384 . S
C980 H971 0.929 . S
C980 C972 1.378 . S
C980 C975 1.350 . S
C981 H968 0.929 . S
C981 C973 1.433 . S
C981 N983 1.384 . S
N982 C978 1.427 . S
N982 C979 1.384 . S
N983 C975 1.427 . S
N983 C981 1.384 . S
H984 C990 0.930 . S
H985 C994 0.930 . S
H986 C999 0.929 . S
H987 C997 0.929 . S
H988 C992 0.929 . S
H989 C998 0.929 . S
C990 H984 0.930 . S
C990 C991 1.367 . S
C990 C998 1.378 . S
C991 C990 1.367 . S
C991 C999 1.433 . S
C992 H988 0.929 . S
C992 C994 1.378 . S
C992 C996 1.350 . S
C993 C996 1.463 . S
C993 C998 1.350 . S
C993 N1001 1.427 . S
C994 H985 0.930 . S
C994 C992 1.378 . S
C994 C995 1.367 . S
C995 C994 1.367 . S
C995 C997 1.433 . S
C996 C992 1.350 . S
C996 C993 1.463 . S
C996 N1000 1.427 . S
C997 H987 0.929 . S
C997 C995 1.433 . S
C997 N1000 1.384 . S
C998 H989 0.929 . S
C998 C990 1.378 . S
C998 C993 1.350 . S
C999 H986 0.929 . S
C999 C991 1.433 . S
C999 N1001 1.384 . S
N1000 C996 1.427 . S
N1000 C997 1.384 . S
N1001 C993 1.427 . S
N1001 C999 1.384 . S
H1002 C1008 0.930 . S
H1003 C1012 0.930 . S
H1004 C1017 0.929 . S
H1005 C1015 0.929 . S
H1006 C1010 0.929 . S
H1007 C1016 0.929 . S
C1008 H1002 0.930 . S
C1008 C1009 1.367 . S
C1008 C1016 1.378 . S
C1009 C1008 1.367 . S
C1009 C1017 1.433 . S
C1010 H1006 0.929 . S
C1010 C1012 1.378 . S
C1010 C1014 1.350 . S
C1011 C1014 1.463 . S
C1011 C1016 1.350 . S
C1011 N1019 1.427 . S
C1012 H1003 0.930 . S
C1012 C1010 1.378 . S
C1012 C1013 1.367 . S
C1013 C1012 1.367 . S
C1013 C1015 1.433 . S
C1014 C1010 1.350 . S
C1014 C1011 1.463 . S
C1014 N1018 1.427 . S
C1015 H1005 0.929 . S
C1015 C1013 1.433 . S
C1015 N1018 1.384 . S
C1016 H1007 0.929 . S
C1016 C1008 1.378 . S
C1016 C1011 1.350 . S
C1017 H1004 0.929 . S
C1017 C1009 1.433 . S
C1017 N1019 1.384 . S
N1018 C1014 1.427 . S
N1018 C1015 1.384 . S
N1019 C1011 1.427 . S
N1019 C1017 1.384 . S
H1020 C1026 0.930 . S
H1021 C1030 0.930 . S
H1022 C1035 0.929 . S
H1023 C1033 0.929 . S
H1024 C1028 0.929 . S
H1025 C1034 0.929 . S
C1026 H1020 0.930 . S
C1026 C1027 1.367 . S
C1026 C1034 1.378 . S
C1027 C1026 1.367 . S
C1027 C1035 1.433 . S
C1028 H1024 0.929 . S
C1028 C1030 1.378 . S
C1028 C1032 1.350 . S
C1029 C1032 1.463 1_455 S
C1029 C1034 1.350 . S
C1029 N1037 1.427 . S
C1030 H1021 0.930 . S
C1030 C1028 1.378 . S
C1030 C1031 1.367 . S
C1031 C1030 1.367 . S
C1031 C1033 1.433 . S
C1032 C1028 1.350 . S
C1032 C1029 1.463 1_655 S
C1032 N1036 1.427 . S
C1033 H1023 0.929 . S
C1033 C1031 1.433 . S
C1033 N1036 1.384 . S
C1034 H1025 0.929 . S
C1034 C1026 1.378 . S
C1034 C1029 1.350 . S
C1035 H1022 0.929 . S
C1035 C1027 1.433 . S
C1035 N1037 1.384 . S
N1036 C1032 1.427 . S
N1036 C1033 1.384 . S
N1037 C1029 1.427 . S
N1037 C1035 1.384 . S
H1038 C1044 0.930 . S
H1039 C1048 0.930 . S
H1040 C1053 0.929 . S
H1041 C1051 0.929 . S
H1042 C1046 0.929 . S
H1043 C1052 0.929 . S
C1044 H1038 0.930 . S
C1044 C1045 1.367 . S
C1044 C1052 1.378 . S
C1045 C1044 1.367 . S
C1045 C1053 1.433 . S
C1046 H1042 0.929 . S
C1046 C1048 1.378 . S
C1046 C1050 1.350 . S
C1047 C1050 1.463 . S
C1047 C1052 1.350 . S
C1047 N1055 1.427 . S
C1048 H1039 0.930 . S
C1048 C1046 1.378 . S
C1048 C1049 1.367 . S
C1049 C1048 1.367 . S
C1049 C1051 1.433 . S
C1050 C1046 1.350 . S
C1050 C1047 1.463 . S
C1050 N1054 1.427 . S
C1051 H1041 0.929 . S
C1051 C1049 1.433 . S
C1051 N1054 1.384 . S
C1052 H1043 0.929 . S
C1052 C1044 1.378 . S
C1052 C1047 1.350 . S
C1053 H1040 0.929 . S
C1053 C1045 1.433 . S
C1053 N1055 1.384 . S
N1054 C1050 1.427 . S
N1054 C1051 1.384 . S
N1055 C1047 1.427 . S
N1055 C1053 1.384 . S
H1056 C1062 0.930 . S
H1057 C1066 0.930 . S
H1058 C1071 0.929 . S
H1059 C1069 0.929 . S
H1060 C1064 0.929 . S
H1061 C1070 0.929 . S
C1062 H1056 0.930 . S
C1062 C1063 1.367 . S
C1062 C1070 1.378 . S
C1063 C1062 1.367 . S
C1063 C1071 1.433 . S
C1064 H1060 0.929 . S
C1064 C1066 1.378 . S
C1064 C1068 1.350 . S
C1065 C1068 1.463 . S
C1065 C1070 1.350 . S
C1065 N1073 1.427 . S
C1066 H1057 0.930 . S
C1066 C1064 1.378 . S
C1066 C1067 1.367 . S
C1067 C1066 1.367 . S
C1067 C1069 1.433 . S
C1068 C1064 1.350 . S
C1068 C1065 1.463 . S
C1068 N1072 1.427 . S
C1069 H1059 0.929 . S
C1069 C1067 1.433 . S
C1069 N1072 1.384 . S
C1070 H1061 0.929 . S
C1070 C1062 1.378 . S
C1070 C1065 1.350 . S
C1071 H1058 0.929 . S
C1071 C1063 1.433 . S
C1071 N1073 1.384 . S
N1072 C1068 1.427 . S
N1072 C1069 1.384 . S
N1073 C1065 1.427 . S
N1073 C1071 1.384 . S
H1074 C1080 0.930 . S
H1075 C1084 0.930 . S
H1076 C1089 0.929 . S
H1077 C1087 0.929 . S
H1078 C1082 0.929 . S
H1079 C1088 0.929 . S
C1080 H1074 0.930 . S
C1080 C1081 1.367 . S
C1080 C1088 1.378 . S
C1081 C1080 1.367 . S
C1081 C1089 1.433 . S
C1082 H1078 0.929 . S
C1082 C1084 1.378 . S
C1082 C1086 1.350 . S
C1083 C1086 1.463 . S
C1083 C1088 1.350 . S
C1083 N1091 1.427 . S
C1084 H1075 0.930 . S
C1084 C1082 1.378 . S
C1084 C1085 1.367 . S
C1085 C1084 1.367 . S
C1085 C1087 1.433 . S
C1086 C1082 1.350 . S
C1086 C1083 1.463 . S
C1086 N1090 1.427 . S
C1087 H1077 0.929 . S
C1087 C1085 1.433 . S
C1087 N1090 1.384 . S
C1088 H1079 0.929 . S
C1088 C1080 1.378 . S
C1088 C1083 1.350 . S
C1089 H1076 0.929 . S
C1089 C1081 1.433 . S
C1089 N1091 1.384 . S
N1090 C1086 1.427 . S
N1090 C1087 1.384 . S
N1091 C1083 1.427 . S
N1091 C1089 1.384 . S
H1092 C1098 0.930 . S
H1093 C1102 0.930 . S
H1094 C1107 0.929 1_554 S
H1095 C1105 0.929 . S
H1096 C1100 0.929 . S
H1097 C1106 0.929 . S
C1098 H1092 0.930 . S
C1098 C1099 1.367 . S
C1098 C1106 1.378 . S
C1099 C1098 1.367 . S
C1099 C1107 1.433 . S
C1100 H1096 0.929 . S
C1100 C1102 1.378 . S
C1100 C1104 1.350 . S
C1101 C1104 1.463 . S
C1101 C1106 1.350 . S
C1101 N1109 1.427 . S
C1102 H1093 0.930 . S
C1102 C1100 1.378 . S
C1102 C1103 1.367 . S
C1103 C1102 1.367 . S
C1103 C1105 1.433 . S
C1104 C1100 1.350 . S
C1104 C1101 1.463 . S
C1104 N1108 1.427 . S
C1105 H1095 0.929 . S
C1105 C1103 1.433 . S
C1105 N1108 1.384 . S
C1106 H1097 0.929 . S
C1106 C1098 1.378 . S
C1106 C1101 1.350 . S
C1107 H1094 0.929 1_556 S
C1107 C1099 1.433 . S
C1107 N1109 1.384 . S
N1108 C1104 1.427 . S
N1108 C1105 1.384 . S
N1109 C1101 1.427 . S
N1109 C1107 1.384 . S
H1110 C1116 0.930 . S
H1111 C1120 0.930 . S
H1112 C1125 0.929 . S
H1113 C1123 0.929 . S
H1114 C1118 0.929 . S
H1115 C1124 0.929 . S
C1116 H1110 0.930 . S
C1116 C1117 1.367 . S
C1116 C1124 1.378 . S
C1117 C1116 1.367 . S
C1117 C1125 1.433 . S
C1118 H1114 0.929 . S
C1118 C1120 1.378 . S
C1118 C1122 1.350 1_455 S
C1119 C1122 1.463 . S
C1119 C1124 1.350 . S
C1119 N1127 1.427 . S
C1120 H1111 0.930 . S
C1120 C1118 1.378 . S
C1120 C1121 1.367 . S
C1121 C1120 1.367 . S
C1121 C1123 1.433 . S
C1122 C1118 1.350 1_655 S
C1122 C1119 1.463 . S
C1122 N1126 1.427 . S
C1123 H1113 0.929 . S
C1123 C1121 1.433 . S
C1123 N1126 1.384 1_455 S
C1124 H1115 0.929 . S
C1124 C1116 1.378 . S
C1124 C1119 1.350 . S
C1125 H1112 0.929 . S
C1125 C1117 1.433 . S
C1125 N1127 1.384 . S
N1126 C1122 1.427 . S
N1126 C1123 1.384 1_655 S
N1127 C1119 1.427 . S
N1127 C1125 1.384 . S
C487 C20 1.583 . S
C491 C460 1.574 . S
C505 C380 1.725 . S
C509 C42 1.775 . S
C523 C100 1.481 . S
C527 C322 1.544 . S
C541 C122 1.711 . S
C545 C420 1.668 . S
C559 C180 1.729 . S
C563 C402 1.747 . S
C577 C220 1.466 . S
C581 C442 1.516 . S
C595 C362 1.608 . S
C599 C242 1.605 . S
C613 C282 1.482 . S
C617 C340 1.463 . S
C631 C140 1.585 . S
C635 C162 1.638 . S
C649 C2 1.550 . S
C653 C202 1.544 1_455 S
C667 C60 1.651 . S
C671 C260 1.658 . S
C685 C300 1.613 . S
C689 C82 1.692 . S
C703 C4 1.881 . S
C707 C343 1.858 . S
C721 C65 1.175 . S
C725 C431 1.175 . S
C739 C471 1.872 . S
C743 C84 1.803 . S
C757 C145 1.627 . S
C761 C391 1.633 . S
C775 C164 1.481 . S
C779 C383 1.464 . S
C793 C351 2.051 . S
C797 C204 1.968 . S
C811 C423 1.677 . S
C815 C265 1.730 . S
C829 C463 1.136 . S
C833 C305 1.170 . S
C847 C23 1.553 . S
C851 C124 1.572 . S
C865 C25 1.230 . S
C869 C71 1.232 . S
C883 C44 1.475 . S
C887 C103 1.458 . S
C901 C151 1.195 . S
C905 C105 1.193 . S
C919 C225 1.869 . S
C923 C183 1.796 . S
C937 C223 1.674 . S
C941 C244 1.671 . S
C955 C271 1.951 . S
C959 C284 1.897 . S
C973 C185 1.793 . S
C977 C311 1.797 . S
C991 C324 2.004 . S
C995 C143 1.997 . S
C1009 C231 2.190 . S
C1013 C364 2.117 . S
C1027 C345 1.503 . S
C1031 C263 1.468 . S
C1045 C404 1.400 . S
C1049 C303 1.383 . S
C1063 C191 1.333 . S
C1067 C444 1.286 . S
C1081 C465 1.344 . S
C1085 C63 1.302 . S
C1099 C111 1.417 . S
C1103 C385 1.413 . S
C1117 C425 1.672 . S
C1121 C31 1.674 . S
