# Generated by pormake.
# Topology zfh, (5)-cn, num edge types: 1
# Building blocks:
#     Node 0, Type 0, BuildingBlock: BEQFEK_clean_sbu_0, # of connection points: 5
#     Node 1, Type 0, BuildingBlock: BEQFEK_clean_sbu_0, # of connection points: 5
#     Node 2, Type 0, BuildingBlock: BEQFEK_clean_sbu_0, # of connection points: 5
#     Node 3, Type 0, BuildingBlock: BEQFEK_clean_sbu_0, # of connection points: 5
#     Node 4, Type 0, BuildingBlock: BEQFEK_clean_sbu_0, # of connection points: 5
#     Node 5, Type 0, BuildingBlock: BEQFEK_clean_sbu_0, # of connection points: 5
#     Node 6, Type 0, BuildingBlock: BEQFEK_clean_sbu_0, # of connection points: 5
#     Node 7, Type 0, BuildingBlock: BEQFEK_clean_sbu_0, # of connection points: 5
#     Node 8, Type 0, BuildingBlock: BEQFEK_clean_sbu_0, # of connection points: 5
#     Node 9, Type 0, BuildingBlock: BEQFEK_clean_sbu_0, # of connection points: 5
#     Node 10, Type 0, BuildingBlock: BEQFEK_clean_sbu_0, # of connection points: 5
#     Node 11, Type 0, BuildingBlock: BEQFEK_clean_sbu_0, # of connection points: 5
#     Node 12, Type 0, BuildingBlock: BEQFEK_clean_sbu_0, # of connection points: 5
#     Node 13, Type 0, BuildingBlock: BEQFEK_clean_sbu_0, # of connection points: 5
#     Node 14, Type 0, BuildingBlock: BEQFEK_clean_sbu_0, # of connection points: 5
#     Node 15, Type 0, BuildingBlock: BEQFEK_clean_sbu_0, # of connection points: 5
#     Edge 16, Type (0, 0), None
#     Edge 17, Type (0, 0), None
#     Edge 18, Type (0, 0), None
#     Edge 19, Type (0, 0), None
#     Edge 20, Type (0, 0), None
#     Edge 21, Type (0, 0), None
#     Edge 22, Type (0, 0), None
#     Edge 23, Type (0, 0), None
#     Edge 24, Type (0, 0), None
#     Edge 25, Type (0, 0), None
#     Edge 26, Type (0, 0), None
#     Edge 27, Type (0, 0), None
#     Edge 28, Type (0, 0), None
#     Edge 29, Type (0, 0), None
#     Edge 30, Type (0, 0), None
#     Edge 31, Type (0, 0), None
#     Edge 32, Type (0, 0), None
#     Edge 33, Type (0, 0), None
#     Edge 34, Type (0, 0), None
#     Edge 35, Type (0, 0), None
#     Edge 36, Type (0, 0), None
#     Edge 37, Type (0, 0), None
#     Edge 38, Type (0, 0), None
#     Edge 39, Type (0, 0), None
#     Edge 40, Type (0, 0), None
#     Edge 41, Type (0, 0), None
#     Edge 42, Type (0, 0), None
#     Edge 43, Type (0, 0), None
#     Edge 44, Type (0, 0), None
#     Edge 45, Type (0, 0), None
#     Edge 46, Type (0, 0), None
#     Edge 47, Type (0, 0), None
#     Edge 48, Type (0, 0), None
#     Edge 49, Type (0, 0), None
#     Edge 50, Type (0, 0), None
#     Edge 51, Type (0, 0), None
#     Edge 52, Type (0, 0), None
#     Edge 53, Type (0, 0), None
#     Edge 54, Type (0, 0), None
#     Edge 55, Type (0, 0), None
# Relax obj value: 0.254
# Max RMSD: 0.172
# Mean RMSD: 0.172
data_MOF--net-zfh--node1-BEQFEK_clean_sbu_0--edge1-none
_symmetry_space_group_name_H-M    P1
_symmetry_Int_Tables_number       1
_symmetry_cell_setting            triclinic
loop_
_symmetry_equiv_pos_as_xyz
'x, y, z'
_cell_length_a     20.611297
_cell_length_b     20.6119
_cell_length_c     23.071261
_cell_angle_alpha  89.999877
_cell_angle_beta   90.000257
_cell_angle_gamma 89.999999
loop_
_atom_site_label
_atom_site_type_symbol
_atom_site_fract_x
_atom_site_fract_y
_atom_site_fract_z
_atom_type_partial_charge
Co0 Co 0.63771 0.20525 0.34782 0.0
Co1 Co 0.58459 0.31242 0.26431 0.0
C2 C 0.52027 0.17956 0.27829 0.0
O3 O 0.55895 0.15858 0.31749 0.0
O4 O 0.52578 0.23622 0.25705 0.0
C5 C 0.67898 0.12303 0.44665 0.0
O6 O 0.61909 0.10256 0.45319 0.0
C7 C 0.48449 0.40959 0.27042 0.0
C8 C 0.5136 0.48224 0.20545 0.0
C9 C 0.47207 0.47196 0.25187 0.0
N10 N 0.53356 0.38484 0.2386 0.0
N11 N 0.54958 0.42792 0.19875 0.0
C12 C 0.45355 0.37645 0.32109 0.0
H13 H 0.47247 0.32646 0.32651 0.0
H14 H 0.46256 0.40494 0.36111 0.0
H15 H 0.40022 0.37474 0.31457 0.0
C16 C 0.62133 0.31321 0.43249 0.0
N17 N 0.61761 0.28772 0.3787 0.0
N18 N 0.60576 0.33442 0.34176 0.0
C19 C 0.60522 0.39164 0.37033 0.0
C20 C 0.613 0.38011 0.42896 0.0
C21 C 0.63333 0.27418 0.48603 0.0
H22 H 0.6058 0.22818 0.48323 0.0
H23 H 0.61789 0.30053 0.5256 0.0
H24 H 0.68583 0.26281 0.4893 0.0
O25 O 0.69765 0.21019 0.28102 0.0
O26 O 0.66432 0.28529 0.2186 0.0
H27 H 0.61666 0.45123 0.29485 0.0
H28 H 0.64851 0.48569 0.3602 0.0
C29 C 0.60821 0.45666 0.34176 0.0
H30 H 0.56258 0.48361 0.35002 0.0
H31 H 0.58768 0.42163 0.16969 0.0
O32 O 0.69254 0.16149 0.40575 0.0
C33 C 0.7042 0.24023 0.23329 0.0
Co34 Co 0.40273 0.63766 0.34781 0.0
Co35 Co 0.29553 0.58457 0.26431 0.0
C36 C 0.42838 0.52021 0.27827 0.0
O37 O 0.44938 0.55888 0.31746 0.0
O38 O 0.37172 0.52576 0.25704 0.0
C39 C 0.48497 0.67894 0.44664 0.0
O40 O 0.50545 0.61905 0.45318 0.0
C41 C 0.19836 0.48448 0.27042 0.0
C42 C 0.12569 0.51359 0.20547 0.0
C43 C 0.13598 0.47206 0.25187 0.0
N44 N 0.2231 0.53355 0.2386 0.0
N45 N 0.18001 0.54958 0.19877 0.0
C46 C 0.23151 0.45353 0.32109 0.0
H47 H 0.28149 0.47245 0.3265 0.0
H48 H 0.20302 0.46253 0.36111 0.0
H49 H 0.23321 0.4002 0.31455 0.0
C50 C 0.29477 0.62129 0.43249 0.0
N51 N 0.32025 0.61757 0.3787 0.0
N52 N 0.27355 0.60573 0.34176 0.0
C53 C 0.21633 0.6052 0.37034 0.0
C54 C 0.22787 0.61297 0.42897 0.0
C55 C 0.33382 0.63328 0.48602 0.0
H56 H 0.37982 0.60575 0.48323 0.0
H57 H 0.30747 0.61784 0.5256 0.0
H58 H 0.34519 0.68578 0.4893 0.0
O59 O 0.39778 0.6976 0.28101 0.0
O60 O 0.32265 0.6643 0.21861 0.0
H61 H 0.15672 0.61664 0.29487 0.0
H62 H 0.12227 0.64848 0.36023 0.0
C63 C 0.15131 0.60818 0.34179 0.0
H64 H 0.12436 0.56256 0.35004 0.0
H65 H 0.1863 0.58768 0.1697 0.0
O66 O 0.4465 0.69248 0.40574 0.0
C67 C 0.36773 0.70417 0.23329 0.0
Co68 Co 0.97028 0.40271 0.34781 0.0
Co69 Co 1.02338 0.29552 0.26432 0.0
C70 C 0.08773 0.42836 0.27827 0.0
O71 O 1.04905 0.44937 0.31746 0.0
O72 O 0.08219 0.3717 0.25704 0.0
C73 C 0.92901 0.48496 0.44662 0.0
O74 O 0.9889 0.50544 0.45316 0.0
C75 C 0.12347 0.19834 0.27042 0.0
C76 C 0.09435 0.12569 0.20546 0.0
C77 C 0.13589 0.13597 0.25187 0.0
N78 N 0.0744 0.22309 0.23861 0.0
N79 N 0.05837 0.18001 0.19877 0.0
C80 C 0.15442 0.23148 0.32109 0.0
H81 H 0.1355 0.28147 0.32651 0.0
H82 H 0.14542 0.20299 0.36111 0.0
H83 H 0.20775 0.23319 0.31456 0.0
C84 C 0.98666 0.29476 0.43249 0.0
N85 N 0.99037 0.32024 0.3787 0.0
N86 N 1.00222 0.27354 0.34176 0.0
C87 C 1.00275 0.21632 0.37034 0.0
C88 C 0.99498 0.22786 0.42897 0.0
C89 C 0.97467 0.33381 0.48602 0.0
H90 H 1.00219 0.37981 0.48322 0.0
H91 H 0.99012 0.30746 0.5256 0.0
H92 H 0.92217 0.34517 0.48931 0.0
O93 O 0.91034 0.39776 0.28101 0.0
O94 O 0.94365 0.32265 0.2186 0.0
H95 H 0.99128 0.15671 0.29487 0.0
H96 H 0.95946 0.12226 0.36024 0.0
C97 C 0.99976 0.1513 0.34179 0.0
H98 H 1.04538 0.12435 0.35003 0.0
H99 H 1.02027 0.1863 0.1697 0.0
O100 O 0.91545 0.44649 0.40573 0.0
C101 C 0.90378 0.36772 0.23329 0.0
Co102 Co 0.20524 0.97026 0.34779 0.0
Co103 Co 0.31244 1.02337 0.2643 0.0
C104 C 0.17959 0.08772 0.27826 0.0
O105 O 0.15858 1.04904 0.31744 0.0
O106 O 0.23625 0.08219 0.25703 0.0
C107 C 0.12301 0.92899 0.44662 0.0
O108 O 0.10254 0.98887 0.45316 0.0
C109 C 0.40964 0.12344 0.27044 0.0
C110 C 0.48228 0.09437 0.20546 0.0
C111 C 0.47203 0.13584 0.25192 0.0
N112 N 0.38487 0.07441 0.2386 0.0
N113 N 0.42795 0.05841 0.19874 0.0
C114 C 0.37649 0.15438 0.32112 0.0
H115 H 0.3265 0.13547 0.32652 0.0
H116 H 0.40498 0.14536 0.36114 0.0
H117 H 0.3748 0.20771 0.3146 0.0
C118 C 0.3132 0.98663 0.43247 0.0
N119 N 0.28772 0.99036 0.37868 0.0
N120 N 0.33442 1.00219 0.34174 0.0
C121 C 0.39164 1.00271 0.37031 0.0
C122 C 0.3801 0.99494 0.42894 0.0
C123 C 0.27416 0.97465 0.486 0.0
H124 H 0.22815 1.00218 0.4832 0.0
H125 H 0.3005 0.9901 0.52558 0.0
H126 H 0.26279 0.92215 0.48929 0.0
O127 O 0.2102 0.91033 0.28098 0.0
O128 O 0.28531 0.94365 0.21858 0.0
H129 H 0.45124 0.99127 0.29484 0.0
H130 H 0.48568 0.95939 0.36019 0.0
C131 C 0.45666 0.99971 0.34175 0.0
H132 H 0.48363 1.04531 0.35002 0.0
H133 H 0.42163 1.02034 0.16964 0.0
O134 O 0.16147 0.91543 0.40571 0.0
C135 C 0.24025 0.90377 0.23326 0.0
Co136 Co 0.13771 0.9027 0.07362 0.0
Co137 Co 0.08458 0.79553 0.15713 0.0
C138 C 1.02026 0.92838 0.14318 0.0
O139 O 0.05895 0.94936 0.10399 0.0
O140 O 1.02577 0.87172 0.16441 0.0
C141 C 0.17896 0.98494 -0.02521 0.0
O142 O 0.11907 1.00542 -0.03175 0.0
C143 C 0.98449 0.69835 0.15105 0.0
C144 C 1.01363 0.62569 0.216 0.0
C145 C 0.97208 0.63597 0.1696 0.0
N146 N 1.03356 0.7231 0.18286 0.0
N147 N 1.0496 0.68001 0.22269 0.0
C148 C 0.95354 0.73149 0.10038 0.0
H149 H 0.97245 0.78148 0.09496 0.0
H150 H 0.96253 0.703 0.06036 0.0
H151 H 0.9002 0.7332 0.10692 0.0
C152 C 0.12131 0.79474 -0.01105 0.0
N153 N 0.11759 0.82023 0.04274 0.0
N154 N 0.10574 0.77353 0.07968 0.0
C155 C 0.1052 0.71631 0.05111 0.0
C156 C 0.11298 0.72785 -0.00752 0.0
C157 C 0.13332 0.83378 0.93542 0.0
H158 H 0.10579 0.87979 0.93821 0.0
H159 H 0.11787 0.80743 0.89584 0.0
H160 H 0.18581 0.84514 0.93214 0.0
O161 O 0.19767 0.89774 0.1404 0.0
O162 O 0.16432 0.82266 0.20284 0.0
H163 H 0.11665 0.65671 0.12658 0.0
H164 H 0.14848 0.62225 0.06122 0.0
C165 C 0.10818 0.65129 0.07967 0.0
H166 H 0.06256 0.62435 0.07142 0.0
H167 H 0.08771 0.68631 0.25175 0.0
O168 O 0.19252 0.94647 0.01569 0.0
C169 C 0.20422 0.86768 0.18812 0.0
Co170 Co 0.70526 0.13769 0.07364 0.0
Co171 Co 0.81243 0.08456 0.15716 0.0
C172 C 0.67957 1.02024 0.14318 0.0
O173 O 0.65859 0.05893 0.104 0.0
O174 O 0.73623 1.02575 0.16442 0.0
C175 C 0.62303 0.17895 -0.0252 0.0
O176 O 0.60256 0.11907 -0.03175 0.0
C177 C 0.90963 0.98449 0.15103 0.0
C178 C 0.98227 1.01358 0.21601 0.0
C179 C 0.97202 0.9721 0.16955 0.0
N180 N 0.88486 1.03353 0.18286 0.0
N181 N 0.92794 1.04954 0.22272 0.0
C182 C 0.87648 0.95355 0.10035 0.0
H183 H 0.82649 0.97245 0.09495 0.0
H184 H 0.90497 0.96256 0.06033 0.0
H185 H 0.87479 0.90021 0.10688 0.0
C186 C 0.81322 0.1213 -0.01102 0.0
N187 N 0.78773 0.11758 0.04276 0.0
N188 N 0.83443 0.10573 0.07971 0.0
C189 C 0.89165 0.10521 0.05114 0.0
C190 C 0.88012 0.11299 -0.00749 0.0
C191 C 0.77418 0.1333 0.93544 0.0
H192 H 0.72818 0.10577 0.93823 0.0
H193 H 0.80054 0.11786 0.89587 0.0
H194 H 0.76282 0.1858 0.93216 0.0
O195 O 0.71022 0.19765 0.14042 0.0
O196 O 0.78531 0.16429 0.20287 0.0
H197 H 0.95124 0.11664 0.12662 0.0
H198 H 0.98569 0.14853 0.06127 0.0
C199 C 0.95667 0.1082 0.0797 0.0
H200 H 0.98364 0.0626 0.07143 0.0
H201 H 0.92163 0.08761 0.25181 0.0
O202 O 0.66149 0.19251 0.0157 0.0
C203 C 0.74028 0.20419 0.18814 0.0
Co204 Co 0.47025 0.70524 0.07365 0.0
Co205 Co 0.52339 0.81241 0.15715 0.0
C206 C 0.5877 0.67955 0.14318 0.0
O207 O 0.549 0.65857 0.104 0.0
O208 O 0.5822 0.73622 0.16441 0.0
C209 C 0.429 0.62301 -0.02519 0.0
O210 O 0.48888 0.60254 -0.03172 0.0
C211 C 0.62346 0.90961 0.15103 0.0
C212 C 0.59437 0.98224 0.21601 0.0
C213 C 0.63585 0.972 0.16955 0.0
N214 N 0.57442 0.88484 0.18286 0.0
N215 N 0.55841 0.92791 0.22272 0.0
C216 C 0.6544 0.87647 0.10035 0.0
H217 H 0.6355 0.82648 0.09494 0.0
H218 H 0.64539 0.90496 0.06033 0.0
H219 H 0.70774 0.87478 0.10688 0.0
C220 C 0.48664 0.8132 -0.01103 0.0
N221 N 0.49036 0.78771 0.04276 0.0
N222 N 0.50221 0.83441 0.07971 0.0
C223 C 0.50274 0.89163 0.05114 0.0
C224 C 0.49496 0.8801 -0.00749 0.0
C225 C 0.47465 0.77416 0.93544 0.0
H226 H 0.50218 0.72816 0.93824 0.0
H227 H 0.4901 0.80051 0.89587 0.0
H228 H 0.42215 0.7628 0.93216 0.0
O229 O 0.41029 0.71021 0.14042 0.0
O230 O 0.44367 0.78528 0.20287 0.0
H231 H 0.49129 0.95122 0.12662 0.0
H232 H 0.45942 0.98567 0.06127 0.0
C233 C 0.49974 0.95665 0.0797 0.0
H234 H 0.54535 0.98361 0.07144 0.0
H235 H 0.52034 0.92159 0.25181 0.0
O236 O 0.41543 0.66148 0.01571 0.0
C237 C 0.40376 0.74026 0.18815 0.0
Co238 Co 0.90274 0.47027 0.07366 0.0
Co239 Co 0.79554 0.52338 0.15715 0.0
C240 C 0.92838 0.58772 0.1432 0.0
O241 O 0.94939 0.54903 0.10403 0.0
O242 O 0.87172 0.5822 0.16443 0.0
C243 C 0.98499 0.42901 -0.02518 0.0
O244 O 1.00547 0.48889 -0.03171 0.0
C245 C 0.69833 0.62344 0.15103 0.0
C246 C 0.62569 0.59434 0.216 0.0
C247 C 0.63594 0.63583 0.16955 0.0
N248 N 0.7231 0.5744 0.18286 0.0
N249 N 0.68002 0.55838 0.22271 0.0
C250 C 0.73148 0.65439 0.10036 0.0
H251 H 0.78147 0.63549 0.09495 0.0
H252 H 0.70299 0.64539 0.06033 0.0
H253 H 0.73317 0.70773 0.10689 0.0
C254 C 0.79478 0.48666 -0.01103 0.0
N255 N 0.82027 0.49038 0.04276 0.0
N256 N 0.77356 0.50221 0.0797 0.0
C257 C 0.71634 0.50273 0.05113 0.0
C258 C 0.72789 0.49497 -0.0075 0.0
C259 C 0.83383 0.47467 0.93544 0.0
H260 H 0.87984 0.50219 0.93824 0.0
H261 H 0.80749 0.49012 0.89587 0.0
H262 H 0.8452 0.42217 0.93216 0.0
O263 O 0.89776 0.4103 0.14043 0.0
O264 O 0.82266 0.44365 0.20287 0.0
H265 H 0.65674 0.49128 0.1266 0.0
H266 H 0.6223 0.45941 0.06124 0.0
C267 C 0.65132 0.49973 0.07968 0.0
H268 H 0.62435 0.54534 0.07141 0.0
H269 H 0.68633 0.52031 0.2518 0.0
O270 O 0.94651 0.41546 0.01572 0.0
C271 C 0.8677 0.40375 0.18814 0.0
Co272 Co 0.47025 0.90273 0.57361 0.0
Co273 Co 0.5234 0.79556 0.65711 0.0
C274 C 0.58773 0.9284 0.64312 0.0
O275 O 0.54904 0.94939 0.60393 0.0
O276 O 0.58221 0.87175 0.66436 0.0
C277 C 0.42902 0.98499 0.47479 0.0
O278 O 0.48892 1.00544 0.46826 0.0
C279 C 0.62348 0.69837 0.65098 0.0
C280 C 0.59439 0.62573 0.71597 0.0
C281 C 0.6359 0.636 0.66954 0.0
N282 N 0.57443 0.72313 0.68281 0.0
N283 N 0.55842 0.68005 0.72267 0.0
C284 C 0.6544 0.73151 0.6003 0.0
H285 H 0.63549 0.7815 0.59489 0.0
H286 H 0.64536 0.70301 0.56028 0.0
H287 H 0.70774 0.7332 0.6068 0.0
C288 C 0.48655 0.79476 0.48895 0.0
N289 N 0.49033 0.82025 0.54273 0.0
N290 N 0.50219 0.77356 0.57968 0.0
C291 C 0.50267 0.71633 0.55112 0.0
C292 C 0.49479 0.72786 0.49251 0.0
C293 C 0.47456 0.83379 0.43542 0.0
H294 H 0.50211 0.87978 0.4382 0.0
H295 H 0.48998 0.80743 0.39584 0.0
H296 H 0.42207 0.84518 0.43214 0.0
O297 O 0.41034 0.89779 0.64043 0.0
O298 O 0.44369 0.82269 0.70284 0.0
H299 H 0.49127 0.65675 0.62661 0.0
H300 H 0.45943 0.62226 0.56126 0.0
C301 C 0.49972 0.65132 0.57969 0.0
H302 H 0.54535 0.62438 0.57144 0.0
H303 H 0.52033 0.68635 0.75175 0.0
O304 O 0.41543 0.94652 0.51568 0.0
C305 C 0.4038 0.86775 0.68816 0.0
Co306 Co 0.70522 0.47028 0.57362 0.0
Co307 Co 0.81243 0.52338 0.65711 0.0
C308 C 0.6796 0.58775 0.64314 0.0
O309 O 0.65858 0.54907 0.60396 0.0
O310 O 0.73625 0.5822 0.66438 0.0
C311 C 0.62295 0.42904 0.4748 0.0
O312 O 0.60249 0.48893 0.46827 0.0
C313 C 0.90962 0.62346 0.65099 0.0
C314 C 0.98227 0.59436 0.71595 0.0
C315 C 0.972 0.63588 0.66953 0.0
N316 N 0.88487 0.5744 0.68281 0.0
N317 N 0.92796 0.55839 0.72266 0.0
C318 C 0.87648 0.65438 0.6003 0.0
H319 H 0.82649 0.63548 0.5949 0.0
H320 H 0.90497 0.64536 0.56028 0.0
H321 H 0.87479 0.70772 0.60681 0.0
C322 C 0.81319 0.48656 0.48895 0.0
N323 N 0.78771 0.49034 0.54274 0.0
N324 N 0.83441 0.50219 0.57968 0.0
C325 C 0.89164 0.50267 0.55111 0.0
C326 C 0.8801 0.49479 0.4925 0.0
C327 C 0.77415 0.47458 0.43542 0.0
H328 H 0.72816 0.50213 0.43821 0.0
H329 H 0.80051 0.48999 0.39584 0.0
H330 H 0.76275 0.42208 0.43215 0.0
O331 O 0.71017 0.41036 0.64043 0.0
O332 O 0.78531 0.44367 0.70283 0.0
H333 H 0.95123 0.49125 0.62659 0.0
H334 H 0.98571 0.45942 0.56124 0.0
C335 C 0.95666 0.49971 0.57967 0.0
H336 H 0.98359 0.54534 0.57141 0.0
H337 H 0.92166 0.52029 0.75173 0.0
O338 O 0.66143 0.41545 0.51569 0.0
C339 C 0.74023 0.4038 0.68815 0.0
Co340 Co 0.13772 0.70521 0.57362 0.0
Co341 Co 0.08461 0.81241 0.65711 0.0
C342 C 1.02025 0.67958 0.64314 0.0
O343 O 0.05893 0.65857 0.60396 0.0
O344 O 1.02578 0.73623 0.66437 0.0
C345 C 0.17895 0.62293 0.47482 0.0
O346 O 0.11906 0.60247 0.4683 0.0
C347 C 0.98453 0.9096 0.65098 0.0
C348 C 1.01363 0.98225 0.71596 0.0
C349 C 0.97211 0.97198 0.66954 0.0
N350 N 1.03359 0.88485 0.68281 0.0
N351 N 1.0496 0.92793 0.72266 0.0
C352 C 0.9536 0.87647 0.6003 0.0
H353 H 0.97251 0.82648 0.59489 0.0
H354 H 0.96263 0.90496 0.56028 0.0
H355 H 0.90026 0.87478 0.60681 0.0
C356 C 0.12143 0.81317 0.48895 0.0
N357 N 0.11765 0.78769 0.54273 0.0
N358 N 0.1058 0.83439 0.57968 0.0
C359 C 0.10532 0.89162 0.55111 0.0
C360 C 0.11319 0.88008 0.49249 0.0
C361 C 0.13341 0.77413 0.43542 0.0
H362 H 0.10586 0.72813 0.43821 0.0
H363 H 0.11798 0.80048 0.39584 0.0
H364 H 0.1859 0.76274 0.43214 0.0
O365 O 0.19764 0.71016 0.64043 0.0
O366 O 0.16432 0.78528 0.70283 0.0
H367 H 0.11675 0.95121 0.62659 0.0
H368 H 0.14857 0.98569 0.56123 0.0
C369 C 0.10829 0.95663 0.57967 0.0
H370 H 0.06265 0.98357 0.57142 0.0
H371 H 0.08769 0.92162 0.75173 0.0
O372 O 0.19254 0.66141 0.5157 0.0
C373 C 0.20419 0.74021 0.68816 0.0
Co374 Co 0.90277 0.13771 0.57364 0.0
Co375 Co 0.79557 0.08458 0.65713 0.0
C376 C 0.92841 1.02023 0.64314 0.0
O377 O 0.94942 0.05892 0.60397 0.0
O378 O 0.87175 1.02576 0.66438 0.0
C379 C 0.98503 0.17895 0.47482 0.0
O380 O 1.00549 0.11905 0.4683 0.0
C381 C 0.69836 0.98453 0.65096 0.0
C382 C 0.62573 1.01358 0.71596 0.0
C383 C 0.63597 0.97213 0.66949 0.0
N384 N 0.72313 1.03355 0.68281 0.0
N385 N 0.68006 1.04953 0.72268 0.0
C386 C 0.73149 0.95361 0.60027 0.0
H387 H 0.78149 0.9725 0.59487 0.0
H388 H 0.70301 0.96266 0.56025 0.0
H389 H 0.73317 0.90027 0.60676 0.0
C390 C 0.7948 0.12142 0.48897 0.0
N391 N 0.82029 0.11764 0.54276 0.0
N392 N 0.77359 0.10579 0.5797 0.0
C393 C 0.71636 0.10533 0.55114 0.0
C394 C 0.7279 0.1132 0.49252 0.0
C395 C 0.83385 0.1334 0.43544 0.0
H396 H 0.87984 0.10584 0.43823 0.0
H397 H 0.80748 0.11797 0.39586 0.0
H398 H 0.84524 0.18589 0.43216 0.0
O399 O 0.89782 0.19762 0.64046 0.0
O400 O 0.82269 0.16428 0.70286 0.0
H401 H 0.65677 0.11674 0.62662 0.0
H402 H 0.62231 0.14862 0.56128 0.0
C403 C 0.65134 0.1083 0.5797 0.0
H404 H 0.62439 0.06269 0.57143 0.0
H405 H 0.68638 0.08759 0.75179 0.0
O406 O 0.94656 0.19253 0.51571 0.0
C407 C 0.86776 0.20416 0.68818 0.0
Co408 Co 0.97026 0.20522 0.84785 0.0
Co409 Co 1.0234 0.3124 0.76434 0.0
C410 C 0.08773 0.17956 0.77831 0.0
O411 O 1.04904 0.15857 0.81749 0.0
O412 O 0.08222 0.23622 0.75708 0.0
C413 C 0.92904 0.12295 0.94667 0.0
O414 O 0.98894 0.10249 0.95319 0.0
C415 C 0.12348 0.40959 0.77044 0.0
C416 C 0.09436 0.48224 0.70548 0.0
C417 C 0.13589 0.47197 0.75189 0.0
N418 N 0.07442 0.38484 0.73863 0.0
N419 N 0.05839 0.42792 0.69878 0.0
C420 C 0.15441 0.37646 0.82113 0.0
H421 H 0.13551 0.32647 0.82654 0.0
H422 H 0.14539 0.40495 0.86115 0.0
H423 H 0.20775 0.37477 0.81461 0.0
C424 C 0.98657 0.31319 0.93251 0.0
N425 N 0.99035 0.2877 0.87872 0.0
N426 N 1.00221 0.3344 0.84178 0.0
C427 C 1.0027 0.39162 0.87034 0.0
C428 C 0.99482 0.38009 0.92895 0.0
C429 C 0.97458 0.27415 -0.01396 0.0
H430 H 1.00212 0.22816 -0.01674 0.0
H431 H 0.99 0.30051 0.02562 0.0
H432 H 0.92208 0.26277 -0.01069 0.0
O433 O 0.91032 0.21018 0.78106 0.0
O434 O 0.94369 0.28527 0.71862 0.0
H435 H 0.99128 0.45121 0.79486 0.0
H436 H 0.95945 0.4857 0.86021 0.0
C437 C 0.99974 0.45664 0.84177 0.0
H438 H 1.04537 0.48357 0.85002 0.0
H439 H 1.02029 0.42162 0.66972 0.0
O440 O 0.91546 0.16143 0.90579 0.0
C441 C 0.90378 0.24024 0.73334 0.0
Co442 Co 0.40276 0.97025 0.84783 0.0
Co443 Co 0.29557 1.0234 0.76432 0.0
C444 C 0.42843 0.08772 0.77831 0.0
O445 O 0.44941 1.04902 0.81748 0.0
O446 O 0.37177 0.08221 0.75707 0.0
C447 C 0.48502 0.92902 0.94666 0.0
O448 O 0.50547 0.98891 0.95319 0.0
C449 C 0.19836 0.12345 0.77047 0.0
C450 C 0.12573 0.09438 0.70547 0.0
C451 C 0.13597 0.13584 0.75194 0.0
N452 N 0.22314 0.07442 0.73862 0.0
N453 N 0.18006 0.05843 0.69876 0.0
C454 C 0.2315 0.15437 0.82116 0.0
H455 H 0.2815 0.13548 0.82655 0.0
H456 H 0.20302 0.14533 0.86118 0.0
H457 H 0.23317 0.20771 0.81465 0.0
C458 C 0.29478 0.98655 0.93248 0.0
N459 N 0.32028 0.99033 0.8787 0.0
N460 N 0.27358 1.00219 0.84175 0.0
C461 C 0.21635 1.00266 0.87031 0.0
C462 C 0.22788 0.99478 0.92893 0.0
C463 C 0.33382 0.97456 -0.01398 0.0
H464 H 0.37981 1.00211 -0.01676 0.0
H465 H 0.30745 0.98997 0.02559 0.0
H466 H 0.34521 0.92207 -0.01071 0.0
O467 O 0.39779 0.91031 0.78103 0.0
O468 O 0.3227 0.94369 0.71859 0.0
H469 H 0.15677 0.99126 0.79482 0.0
H470 H 0.1223 0.95938 0.86016 0.0
C471 C 0.15133 0.99969 0.84174 0.0
H472 H 0.12438 1.0453 0.85002 0.0
H473 H 0.18638 1.02036 0.66965 0.0
O474 O 0.44655 0.91543 0.90577 0.0
C475 C 0.36773 0.90378 0.73331 0.0
Co476 Co 0.63775 0.40274 0.84783 0.0
Co477 Co 0.58459 0.29556 0.76432 0.0
C478 C 0.52028 0.42841 0.77831 0.0
O479 O 0.55898 0.4494 0.81748 0.0
O480 O 0.52577 0.37175 0.75708 0.0
C481 C 0.67897 0.48501 0.94665 0.0
O482 O 0.61907 0.50546 0.95316 0.0
C483 C 0.48454 0.19835 0.77047 0.0
C484 C 0.51361 0.12573 0.70547 0.0
C485 C 0.47215 0.13596 0.75194 0.0
N486 N 0.53356 0.22313 0.73862 0.0
N487 N 0.54956 0.18006 0.69876 0.0
C488 C 0.45361 0.23148 0.82116 0.0
H489 H 0.4725 0.28148 0.82656 0.0
H490 H 0.46266 0.20299 0.86118 0.0
H491 H 0.40027 0.23315 0.81466 0.0
C492 C 0.62144 0.29477 0.93248 0.0
N493 N 0.61766 0.32026 0.8787 0.0
N494 N 0.60581 0.27357 0.84175 0.0
C495 C 0.60533 0.21634 0.87031 0.0
C496 C 0.61321 0.22787 0.92893 0.0
C497 C 0.63343 0.33381 -0.01398 0.0
H498 H 0.60588 0.3798 -0.01677 0.0
H499 H 0.618 0.30745 0.02559 0.0
H500 H 0.68592 0.34519 -0.01071 0.0
O501 O 0.69769 0.39778 0.78103 0.0
O502 O 0.6643 0.3227 0.71859 0.0
H503 H 0.61675 0.15676 0.79482 0.0
H504 H 0.64862 0.12229 0.86017 0.0
C505 C 0.60831 0.15133 0.84174 0.0
H506 H 0.56269 0.12437 0.85001 0.0
H507 H 0.58762 0.18639 0.66965 0.0
O508 O 0.69257 0.44653 0.90577 0.0
C509 C 0.70421 0.36772 0.73331 0.0
Co510 Co 0.20522 0.6377 0.84781 0.0
Co511 Co 0.31243 0.58457 0.76432 0.0
C512 C 0.17959 0.52022 0.77829 0.0
O513 O 0.15857 0.55892 0.81745 0.0
O514 O 0.23625 0.52575 0.75706 0.0
C515 C 0.12293 0.67892 0.94663 0.0
O516 O 0.10246 0.61903 0.95316 0.0
C517 C 0.40964 0.48452 0.77047 0.0
C518 C 0.48228 0.51361 0.70548 0.0
C519 C 0.47203 0.47214 0.75194 0.0
N520 N 0.38487 0.53356 0.73863 0.0
N521 N 0.42795 0.54956 0.69877 0.0
C522 C 0.37651 0.45359 0.82115 0.0
H523 H 0.32651 0.47248 0.82655 0.0
H524 H 0.40499 0.46263 0.86117 0.0
H525 H 0.37484 0.40025 0.81465 0.0
C526 C 0.31318 0.6214 0.93248 0.0
N527 N 0.2877 0.61762 0.8787 0.0
N528 N 0.3344 0.60577 0.84176 0.0
C529 C 0.39163 0.6053 0.87033 0.0
C530 C 0.38009 0.61317 0.92894 0.0
C531 C 0.27413 0.63338 -0.01399 0.0
H532 H 0.22814 0.60583 -0.01678 0.0
H533 H 0.30049 0.61795 0.02559 0.0
H534 H 0.26274 0.68587 -0.01071 0.0
O535 O 0.21019 0.69764 0.78103 0.0
O536 O 0.28529 0.66428 0.7186 0.0
H537 H 0.45122 0.61673 0.79484 0.0
H538 H 0.48568 0.64859 0.86019 0.0
C539 C 0.45665 0.60828 0.84176 0.0
H540 H 0.4836 0.56267 0.85003 0.0
H541 H 0.42162 0.58763 0.66967 0.0
O542 O 0.16142 0.69251 0.90575 0.0
C543 C 0.24026 0.70418 0.73331 0.0
loop_
_geom_bond_atom_site_label_1
_geom_bond_atom_site_label_2
_geom_bond_distance
_geom_bond_site_symmetry_2
_ccdc_geom_bond_type
Co0 O3 1.970 . S
Co0 N17 1.989 . S
Co0 O25 1.967 . S
Co0 O32 1.920 . S
Co1 O4 1.966 . S
Co1 N10 2.022 . S
Co1 N18 1.993 . S
Co1 O26 1.941 . S
C2 O3 1.258 . S
C2 O4 1.263 . S
O3 Co0 1.970 . S
O3 C2 1.258 . S
O4 Co1 1.966 . S
O4 C2 1.263 . S
C5 O6 1.235 . S
C5 O32 1.289 . S
O6 C5 1.235 . S
C7 C9 1.400 . S
C7 N10 1.351 . S
C7 C12 1.501 . S
C8 C9 1.387 . S
C8 N11 1.341 . S
C9 C7 1.400 . S
C9 C8 1.387 . S
N10 Co1 2.022 . S
N10 C7 1.351 . S
N10 N11 1.365 . S
N11 C8 1.341 . S
N11 N10 1.365 . S
N11 H31 0.862 . S
C12 C7 1.501 . S
C12 H13 0.961 . S
C12 H14 0.961 . S
C12 H15 0.960 . S
H13 C12 0.961 . S
H14 C12 0.961 . S
H15 C12 0.960 . S
C16 N17 1.342 . S
C16 C20 1.401 . S
C16 C21 1.499 . S
N17 Co0 1.989 . S
N17 C16 1.342 . S
N17 N18 1.388 . S
N18 Co1 1.993 . S
N18 N17 1.388 . S
N18 C19 1.346 . S
C19 N18 1.346 . S
C19 C20 1.396 . S
C19 C29 1.510 . S
C20 C16 1.401 . S
C20 C19 1.396 . S
C21 C16 1.499 . S
C21 H22 0.959 . S
C21 H23 0.960 . S
C21 H24 0.961 . S
H22 C21 0.959 . S
H23 C21 0.960 . S
H24 C21 0.961 . S
O25 Co0 1.967 . S
O25 C33 1.258 . S
O26 Co1 1.941 . S
O26 C33 1.266 . S
H27 C29 0.959 . S
H28 C29 0.961 . S
C29 C19 1.510 . S
C29 H27 0.959 . S
C29 H28 0.961 . S
C29 H30 0.960 . S
H30 C29 0.960 . S
H31 N11 0.862 . S
O32 Co0 1.920 . S
O32 C5 1.289 . S
C33 O25 1.258 . S
C33 O26 1.266 . S
Co34 O37 1.970 . S
Co34 N51 1.989 . S
Co34 O59 1.967 . S
Co34 O66 1.920 . S
Co35 O38 1.966 . S
Co35 N44 2.022 . S
Co35 N52 1.993 . S
Co35 O60 1.941 . S
C36 O37 1.258 . S
C36 O38 1.263 . S
O37 Co34 1.970 . S
O37 C36 1.258 . S
O38 Co35 1.966 . S
O38 C36 1.263 . S
C39 O40 1.235 . S
C39 O66 1.289 . S
O40 C39 1.235 . S
C41 C43 1.400 . S
C41 N44 1.351 . S
C41 C46 1.501 . S
C42 C43 1.387 . S
C42 N45 1.341 . S
C43 C41 1.400 . S
C43 C42 1.387 . S
N44 Co35 2.022 . S
N44 C41 1.351 . S
N44 N45 1.365 . S
N45 C42 1.341 . S
N45 N44 1.365 . S
N45 H65 0.862 . S
C46 C41 1.501 . S
C46 H47 0.961 . S
C46 H48 0.961 . S
C46 H49 0.960 . S
H47 C46 0.961 . S
H48 C46 0.961 . S
H49 C46 0.960 . S
C50 N51 1.342 . S
C50 C54 1.401 . S
C50 C55 1.499 . S
N51 Co34 1.989 . S
N51 C50 1.342 . S
N51 N52 1.388 . S
N52 Co35 1.993 . S
N52 N51 1.388 . S
N52 C53 1.346 . S
C53 N52 1.346 . S
C53 C54 1.396 . S
C53 C63 1.510 . S
C54 C50 1.401 . S
C54 C53 1.396 . S
C55 C50 1.499 . S
C55 H56 0.959 . S
C55 H57 0.960 . S
C55 H58 0.961 . S
H56 C55 0.959 . S
H57 C55 0.960 . S
H58 C55 0.961 . S
O59 Co34 1.967 . S
O59 C67 1.258 . S
O60 Co35 1.941 . S
O60 C67 1.266 . S
H61 C63 0.959 . S
H62 C63 0.961 . S
C63 C53 1.510 . S
C63 H61 0.959 . S
C63 H62 0.961 . S
C63 H64 0.960 . S
H64 C63 0.960 . S
H65 N45 0.862 . S
O66 Co34 1.920 . S
O66 C39 1.289 . S
C67 O59 1.258 . S
C67 O60 1.266 . S
Co68 O71 1.970 . S
Co68 N85 1.989 . S
Co68 O93 1.967 . S
Co68 O100 1.920 . S
Co69 O72 1.966 1_655 S
Co69 N78 2.022 1_655 S
Co69 N86 1.993 . S
Co69 O94 1.941 . S
C70 O71 1.258 1_455 S
C70 O72 1.263 . S
O71 Co68 1.970 . S
O71 C70 1.258 1_655 S
O72 Co69 1.966 1_455 S
O72 C70 1.263 . S
C73 O74 1.235 . S
C73 O100 1.289 . S
O74 C73 1.235 . S
C75 C77 1.400 . S
C75 N78 1.351 . S
C75 C80 1.501 . S
C76 C77 1.387 . S
C76 N79 1.341 . S
C77 C75 1.400 . S
C77 C76 1.387 . S
N78 Co69 2.022 1_455 S
N78 C75 1.351 . S
N78 N79 1.365 . S
N79 C76 1.341 . S
N79 N78 1.365 . S
N79 H99 0.862 1_455 S
C80 C75 1.501 . S
C80 H81 0.961 . S
C80 H82 0.961 . S
C80 H83 0.960 . S
H81 C80 0.961 . S
H82 C80 0.961 . S
H83 C80 0.960 . S
C84 N85 1.342 . S
C84 C88 1.401 . S
C84 C89 1.499 . S
N85 Co68 1.989 . S
N85 C84 1.342 . S
N85 N86 1.388 . S
N86 Co69 1.993 . S
N86 N85 1.388 . S
N86 C87 1.346 . S
C87 N86 1.346 . S
C87 C88 1.396 . S
C87 C97 1.510 . S
C88 C84 1.401 . S
C88 C87 1.396 . S
C89 C84 1.499 . S
C89 H90 0.959 . S
C89 H91 0.960 . S
C89 H92 0.961 . S
H90 C89 0.959 . S
H91 C89 0.960 . S
H92 C89 0.961 . S
O93 Co68 1.967 . S
O93 C101 1.258 . S
O94 Co69 1.941 . S
O94 C101 1.266 . S
H95 C97 0.959 . S
H96 C97 0.961 . S
C97 C87 1.510 . S
C97 H95 0.959 . S
C97 H96 0.961 . S
C97 H98 0.960 . S
H98 C97 0.960 . S
H99 N79 0.862 1_655 S
O100 Co68 1.920 . S
O100 C73 1.289 . S
C101 O93 1.258 . S
C101 O94 1.266 . S
Co102 O105 1.970 . S
Co102 N119 1.989 . S
Co102 O127 1.967 . S
Co102 O134 1.920 . S
Co103 O106 1.966 1_565 S
Co103 N112 2.022 1_565 S
Co103 N120 1.993 . S
Co103 O128 1.941 . S
C104 O105 1.258 1_545 S
C104 O106 1.263 . S
O105 Co102 1.970 . S
O105 C104 1.258 1_565 S
O106 Co103 1.966 1_545 S
O106 C104 1.263 . S
C107 O108 1.235 . S
C107 O134 1.289 . S
O108 C107 1.235 . S
C109 C111 1.400 . S
C109 N112 1.351 . S
C109 C114 1.501 . S
C110 C111 1.387 . S
C110 N113 1.341 . S
C111 C109 1.400 . S
C111 C110 1.387 . S
N112 Co103 2.022 1_545 S
N112 C109 1.351 . S
N112 N113 1.365 . S
N113 C110 1.341 . S
N113 N112 1.365 . S
N113 H133 0.862 1_545 S
C114 C109 1.501 . S
C114 H115 0.961 . S
C114 H116 0.961 . S
C114 H117 0.960 . S
H115 C114 0.961 . S
H116 C114 0.961 . S
H117 C114 0.960 . S
C118 N119 1.342 . S
C118 C122 1.401 . S
C118 C123 1.499 . S
N119 Co102 1.989 . S
N119 C118 1.342 . S
N119 N120 1.388 . S
N120 Co103 1.993 . S
N120 N119 1.388 . S
N120 C121 1.346 . S
C121 N120 1.346 . S
C121 C122 1.396 . S
C121 C131 1.510 . S
C122 C118 1.401 . S
C122 C121 1.396 . S
C123 C118 1.499 . S
C123 H124 0.959 . S
C123 H125 0.960 . S
C123 H126 0.961 . S
H124 C123 0.959 . S
H125 C123 0.960 . S
H126 C123 0.961 . S
O127 Co102 1.967 . S
O127 C135 1.258 . S
O128 Co103 1.941 . S
O128 C135 1.266 . S
H129 C131 0.959 . S
H130 C131 0.961 . S
C131 C121 1.510 . S
C131 H129 0.959 . S
C131 H130 0.961 . S
C131 H132 0.960 . S
H132 C131 0.960 . S
H133 N113 0.862 1_565 S
O134 Co102 1.920 . S
O134 C107 1.289 . S
C135 O127 1.258 . S
C135 O128 1.266 . S
Co136 O139 1.970 . S
Co136 N153 1.989 . S
Co136 O161 1.967 . S
Co136 O168 1.920 . S
Co137 O140 1.966 1_455 S
Co137 N146 2.022 1_455 S
Co137 N154 1.993 . S
Co137 O162 1.941 . S
C138 O139 1.258 1_655 S
C138 O140 1.263 . S
O139 Co136 1.970 . S
O139 C138 1.258 1_455 S
O140 Co137 1.966 1_655 S
O140 C138 1.263 . S
C141 O142 1.235 1_554 S
C141 O168 1.289 . S
O142 C141 1.235 1_556 S
C143 C145 1.400 . S
C143 N146 1.351 . S
C143 C148 1.501 . S
C144 C145 1.387 . S
C144 N147 1.341 . S
C145 C143 1.400 . S
C145 C144 1.387 . S
N146 Co137 2.022 1_655 S
N146 C143 1.351 . S
N146 N147 1.365 . S
N147 C144 1.341 . S
N147 N146 1.365 . S
N147 H167 0.862 1_655 S
C148 C143 1.501 . S
C148 H149 0.961 . S
C148 H150 0.961 . S
C148 H151 0.960 . S
H149 C148 0.961 . S
H150 C148 0.961 . S
H151 C148 0.960 . S
C152 N153 1.342 . S
C152 C156 1.401 . S
C152 C157 1.499 . S
N153 Co136 1.989 . S
N153 C152 1.342 . S
N153 N154 1.388 . S
N154 Co137 1.993 . S
N154 N153 1.388 . S
N154 C155 1.346 . S
C155 N154 1.346 . S
C155 C156 1.396 . S
C155 C165 1.510 . S
C156 C152 1.401 . S
C156 C155 1.396 . S
C157 C152 1.499 . S
C157 H158 0.959 . S
C157 H159 0.960 1_554 S
C157 H160 0.961 . S
H158 C157 0.959 . S
H159 C157 0.960 1_556 S
H160 C157 0.961 . S
O161 Co136 1.967 . S
O161 C169 1.258 . S
O162 Co137 1.941 . S
O162 C169 1.266 . S
H163 C165 0.959 . S
H164 C165 0.961 . S
C165 C155 1.510 . S
C165 H163 0.959 . S
C165 H164 0.961 . S
C165 H166 0.960 . S
H166 C165 0.960 . S
H167 N147 0.862 1_455 S
O168 Co136 1.920 . S
O168 C141 1.289 . S
C169 O161 1.258 . S
C169 O162 1.266 . S
Co170 O173 1.970 . S
Co170 N187 1.989 . S
Co170 O195 1.967 . S
Co170 O202 1.920 . S
Co171 O174 1.966 1_545 S
Co171 N180 2.022 1_545 S
Co171 N188 1.993 . S
Co171 O196 1.941 . S
C172 O173 1.258 1_565 S
C172 O174 1.263 . S
O173 Co170 1.970 . S
O173 C172 1.258 1_545 S
O174 Co171 1.966 1_565 S
O174 C172 1.263 . S
C175 O176 1.235 1_554 S
C175 O202 1.289 . S
O176 C175 1.235 1_556 S
C177 C179 1.400 . S
C177 N180 1.351 . S
C177 C182 1.501 . S
C178 C179 1.387 . S
C178 N181 1.341 . S
C179 C177 1.400 . S
C179 C178 1.387 . S
N180 Co171 2.022 1_565 S
N180 C177 1.351 . S
N180 N181 1.365 . S
N181 C178 1.341 . S
N181 N180 1.365 . S
N181 H201 0.862 1_565 S
C182 C177 1.501 . S
C182 H183 0.961 . S
C182 H184 0.961 . S
C182 H185 0.960 . S
H183 C182 0.961 . S
H184 C182 0.961 . S
H185 C182 0.960 . S
C186 N187 1.342 . S
C186 C190 1.401 . S
C186 C191 1.499 . S
N187 Co170 1.989 . S
N187 C186 1.342 . S
N187 N188 1.388 . S
N188 Co171 1.993 . S
N188 N187 1.388 . S
N188 C189 1.346 . S
C189 N188 1.346 . S
C189 C190 1.396 . S
C189 C199 1.510 . S
C190 C186 1.401 . S
C190 C189 1.396 . S
C191 C186 1.499 . S
C191 H192 0.959 . S
C191 H193 0.960 1_554 S
C191 H194 0.961 . S
H192 C191 0.959 . S
H193 C191 0.960 1_556 S
H194 C191 0.961 . S
O195 Co170 1.967 . S
O195 C203 1.258 . S
O196 Co171 1.941 . S
O196 C203 1.266 . S
H197 C199 0.959 . S
H198 C199 0.961 . S
C199 C189 1.510 . S
C199 H197 0.959 . S
C199 H198 0.961 . S
C199 H200 0.960 . S
H200 C199 0.960 . S
H201 N181 0.862 1_545 S
O202 Co170 1.920 . S
O202 C175 1.289 . S
C203 O195 1.258 . S
C203 O196 1.266 . S
Co204 O207 1.970 . S
Co204 N221 1.989 . S
Co204 O229 1.967 . S
Co204 O236 1.920 . S
Co205 O208 1.966 . S
Co205 N214 2.022 . S
Co205 N222 1.993 . S
Co205 O230 1.941 . S
C206 O207 1.258 . S
C206 O208 1.263 . S
O207 Co204 1.970 . S
O207 C206 1.258 . S
O208 Co205 1.966 . S
O208 C206 1.263 . S
C209 O210 1.235 1_554 S
C209 O236 1.289 . S
O210 C209 1.235 1_556 S
C211 C213 1.400 . S
C211 N214 1.351 . S
C211 C216 1.501 . S
C212 C213 1.387 . S
C212 N215 1.341 . S
C213 C211 1.400 . S
C213 C212 1.387 . S
N214 Co205 2.022 . S
N214 C211 1.351 . S
N214 N215 1.365 . S
N215 C212 1.341 . S
N215 N214 1.365 . S
N215 H235 0.862 . S
C216 C211 1.501 . S
C216 H217 0.961 . S
C216 H218 0.961 . S
C216 H219 0.960 . S
H217 C216 0.961 . S
H218 C216 0.961 . S
H219 C216 0.960 . S
C220 N221 1.342 . S
C220 C224 1.401 . S
C220 C225 1.499 . S
N221 Co204 1.989 . S
N221 C220 1.342 . S
N221 N222 1.388 . S
N222 Co205 1.993 . S
N222 N221 1.388 . S
N222 C223 1.346 . S
C223 N222 1.346 . S
C223 C224 1.396 . S
C223 C233 1.510 . S
C224 C220 1.401 . S
C224 C223 1.396 . S
C225 C220 1.499 . S
C225 H226 0.959 . S
C225 H227 0.960 1_554 S
C225 H228 0.961 . S
H226 C225 0.959 . S
H227 C225 0.960 1_556 S
H228 C225 0.961 . S
O229 Co204 1.967 . S
O229 C237 1.258 . S
O230 Co205 1.941 . S
O230 C237 1.266 . S
H231 C233 0.959 . S
H232 C233 0.961 . S
C233 C223 1.510 . S
C233 H231 0.959 . S
C233 H232 0.961 . S
C233 H234 0.960 . S
H234 C233 0.960 . S
H235 N215 0.862 . S
O236 Co204 1.920 . S
O236 C209 1.289 . S
C237 O229 1.258 . S
C237 O230 1.266 . S
Co238 O241 1.970 . S
Co238 N255 1.989 . S
Co238 O263 1.967 . S
Co238 O270 1.920 . S
Co239 O242 1.966 . S
Co239 N248 2.022 . S
Co239 N256 1.993 . S
Co239 O264 1.941 . S
C240 O241 1.258 . S
C240 O242 1.263 . S
O241 Co238 1.970 . S
O241 C240 1.258 . S
O242 Co239 1.966 . S
O242 C240 1.263 . S
C243 O244 1.235 1_554 S
C243 O270 1.289 . S
O244 C243 1.235 1_556 S
C245 C247 1.400 . S
C245 N248 1.351 . S
C245 C250 1.501 . S
C246 C247 1.387 . S
C246 N249 1.341 . S
C247 C245 1.400 . S
C247 C246 1.387 . S
N248 Co239 2.022 . S
N248 C245 1.351 . S
N248 N249 1.365 . S
N249 C246 1.341 . S
N249 N248 1.365 . S
N249 H269 0.862 . S
C250 C245 1.501 . S
C250 H251 0.961 . S
C250 H252 0.961 . S
C250 H253 0.960 . S
H251 C250 0.961 . S
H252 C250 0.961 . S
H253 C250 0.960 . S
C254 N255 1.342 . S
C254 C258 1.401 . S
C254 C259 1.499 . S
N255 Co238 1.989 . S
N255 C254 1.342 . S
N255 N256 1.388 . S
N256 Co239 1.993 . S
N256 N255 1.388 . S
N256 C257 1.346 . S
C257 N256 1.346 . S
C257 C258 1.396 . S
C257 C267 1.510 . S
C258 C254 1.401 . S
C258 C257 1.396 . S
C259 C254 1.499 . S
C259 H260 0.959 . S
C259 H261 0.960 1_554 S
C259 H262 0.961 . S
H260 C259 0.959 . S
H261 C259 0.960 1_556 S
H262 C259 0.961 . S
O263 Co238 1.967 . S
O263 C271 1.258 . S
O264 Co239 1.941 . S
O264 C271 1.266 . S
H265 C267 0.959 . S
H266 C267 0.961 . S
C267 C257 1.510 . S
C267 H265 0.959 . S
C267 H266 0.961 . S
C267 H268 0.960 . S
H268 C267 0.960 . S
H269 N249 0.862 . S
O270 Co238 1.920 . S
O270 C243 1.289 . S
C271 O263 1.258 . S
C271 O264 1.266 . S
Co272 O275 1.970 . S
Co272 N289 1.989 . S
Co272 O297 1.967 . S
Co272 O304 1.920 . S
Co273 O276 1.966 . S
Co273 N282 2.022 . S
Co273 N290 1.993 . S
Co273 O298 1.941 . S
C274 O275 1.258 . S
C274 O276 1.263 . S
O275 Co272 1.970 . S
O275 C274 1.258 . S
O276 Co273 1.966 . S
O276 C274 1.263 . S
C277 O278 1.235 . S
C277 O304 1.289 . S
O278 C277 1.235 . S
C279 C281 1.400 . S
C279 N282 1.351 . S
C279 C284 1.501 . S
C280 C281 1.387 . S
C280 N283 1.341 . S
C281 C279 1.400 . S
C281 C280 1.387 . S
N282 Co273 2.022 . S
N282 C279 1.351 . S
N282 N283 1.365 . S
N283 C280 1.341 . S
N283 N282 1.365 . S
N283 H303 0.862 . S
C284 C279 1.501 . S
C284 H285 0.961 . S
C284 H286 0.961 . S
C284 H287 0.960 . S
H285 C284 0.961 . S
H286 C284 0.961 . S
H287 C284 0.960 . S
C288 N289 1.342 . S
C288 C292 1.401 . S
C288 C293 1.499 . S
N289 Co272 1.989 . S
N289 C288 1.342 . S
N289 N290 1.388 . S
N290 Co273 1.993 . S
N290 N289 1.388 . S
N290 C291 1.346 . S
C291 N290 1.346 . S
C291 C292 1.396 . S
C291 C301 1.510 . S
C292 C288 1.401 . S
C292 C291 1.396 . S
C293 C288 1.499 . S
C293 H294 0.959 . S
C293 H295 0.960 . S
C293 H296 0.961 . S
H294 C293 0.959 . S
H295 C293 0.960 . S
H296 C293 0.961 . S
O297 Co272 1.967 . S
O297 C305 1.258 . S
O298 Co273 1.941 . S
O298 C305 1.266 . S
H299 C301 0.959 . S
H300 C301 0.961 . S
C301 C291 1.510 . S
C301 H299 0.959 . S
C301 H300 0.961 . S
C301 H302 0.960 . S
H302 C301 0.960 . S
H303 N283 0.862 . S
O304 Co272 1.920 . S
O304 C277 1.289 . S
C305 O297 1.258 . S
C305 O298 1.266 . S
Co306 O309 1.970 . S
Co306 N323 1.989 . S
Co306 O331 1.967 . S
Co306 O338 1.920 . S
Co307 O310 1.966 . S
Co307 N316 2.022 . S
Co307 N324 1.993 . S
Co307 O332 1.941 . S
C308 O309 1.258 . S
C308 O310 1.263 . S
O309 Co306 1.970 . S
O309 C308 1.258 . S
O310 Co307 1.966 . S
O310 C308 1.263 . S
C311 O312 1.235 . S
C311 O338 1.289 . S
O312 C311 1.235 . S
C313 C315 1.400 . S
C313 N316 1.351 . S
C313 C318 1.501 . S
C314 C315 1.387 . S
C314 N317 1.341 . S
C315 C313 1.400 . S
C315 C314 1.387 . S
N316 Co307 2.022 . S
N316 C313 1.351 . S
N316 N317 1.365 . S
N317 C314 1.341 . S
N317 N316 1.365 . S
N317 H337 0.862 . S
C318 C313 1.501 . S
C318 H319 0.961 . S
C318 H320 0.961 . S
C318 H321 0.960 . S
H319 C318 0.961 . S
H320 C318 0.961 . S
H321 C318 0.960 . S
C322 N323 1.342 . S
C322 C326 1.401 . S
C322 C327 1.499 . S
N323 Co306 1.989 . S
N323 C322 1.342 . S
N323 N324 1.388 . S
N324 Co307 1.993 . S
N324 N323 1.388 . S
N324 C325 1.346 . S
C325 N324 1.346 . S
C325 C326 1.396 . S
C325 C335 1.510 . S
C326 C322 1.401 . S
C326 C325 1.396 . S
C327 C322 1.499 . S
C327 H328 0.959 . S
C327 H329 0.960 . S
C327 H330 0.961 . S
H328 C327 0.959 . S
H329 C327 0.960 . S
H330 C327 0.961 . S
O331 Co306 1.967 . S
O331 C339 1.258 . S
O332 Co307 1.941 . S
O332 C339 1.266 . S
H333 C335 0.959 . S
H334 C335 0.961 . S
C335 C325 1.510 . S
C335 H333 0.959 . S
C335 H334 0.961 . S
C335 H336 0.960 . S
H336 C335 0.960 . S
H337 N317 0.862 . S
O338 Co306 1.920 . S
O338 C311 1.289 . S
C339 O331 1.258 . S
C339 O332 1.266 . S
Co340 O343 1.970 . S
Co340 N357 1.989 . S
Co340 O365 1.967 . S
Co340 O372 1.920 . S
Co341 O344 1.966 1_455 S
Co341 N350 2.022 1_455 S
Co341 N358 1.993 . S
Co341 O366 1.941 . S
C342 O343 1.258 1_655 S
C342 O344 1.263 . S
O343 Co340 1.970 . S
O343 C342 1.258 1_455 S
O344 Co341 1.966 1_655 S
O344 C342 1.263 . S
C345 O346 1.235 . S
C345 O372 1.289 . S
O346 C345 1.235 . S
C347 C349 1.400 . S
C347 N350 1.351 . S
C347 C352 1.501 . S
C348 C349 1.387 . S
C348 N351 1.341 . S
C349 C347 1.400 . S
C349 C348 1.387 . S
N350 Co341 2.022 1_655 S
N350 C347 1.351 . S
N350 N351 1.365 . S
N351 C348 1.341 . S
N351 N350 1.365 . S
N351 H371 0.862 1_655 S
C352 C347 1.501 . S
C352 H353 0.961 . S
C352 H354 0.961 . S
C352 H355 0.960 . S
H353 C352 0.961 . S
H354 C352 0.961 . S
H355 C352 0.960 . S
C356 N357 1.342 . S
C356 C360 1.401 . S
C356 C361 1.499 . S
N357 Co340 1.989 . S
N357 C356 1.342 . S
N357 N358 1.388 . S
N358 Co341 1.993 . S
N358 N357 1.388 . S
N358 C359 1.346 . S
C359 N358 1.346 . S
C359 C360 1.396 . S
C359 C369 1.510 . S
C360 C356 1.401 . S
C360 C359 1.396 . S
C361 C356 1.499 . S
C361 H362 0.959 . S
C361 H363 0.960 . S
C361 H364 0.961 . S
H362 C361 0.959 . S
H363 C361 0.960 . S
H364 C361 0.961 . S
O365 Co340 1.967 . S
O365 C373 1.258 . S
O366 Co341 1.941 . S
O366 C373 1.266 . S
H367 C369 0.959 . S
H368 C369 0.961 . S
C369 C359 1.510 . S
C369 H367 0.959 . S
C369 H368 0.961 . S
C369 H370 0.960 . S
H370 C369 0.960 . S
H371 N351 0.862 1_455 S
O372 Co340 1.920 . S
O372 C345 1.289 . S
C373 O365 1.258 . S
C373 O366 1.266 . S
Co374 O377 1.970 . S
Co374 N391 1.989 . S
Co374 O399 1.967 . S
Co374 O406 1.920 . S
Co375 O378 1.966 1_545 S
Co375 N384 2.022 1_545 S
Co375 N392 1.993 . S
Co375 O400 1.941 . S
C376 O377 1.258 1_565 S
C376 O378 1.263 . S
O377 Co374 1.970 . S
O377 C376 1.258 1_545 S
O378 Co375 1.966 1_565 S
O378 C376 1.263 . S
C379 O380 1.235 . S
C379 O406 1.289 . S
O380 C379 1.235 . S
C381 C383 1.400 . S
C381 N384 1.351 . S
C381 C386 1.501 . S
C382 C383 1.387 . S
C382 N385 1.341 . S
C383 C381 1.400 . S
C383 C382 1.387 . S
N384 Co375 2.022 1_565 S
N384 C381 1.351 . S
N384 N385 1.365 . S
N385 C382 1.341 . S
N385 N384 1.365 . S
N385 H405 0.862 1_565 S
C386 C381 1.501 . S
C386 H387 0.961 . S
C386 H388 0.961 . S
C386 H389 0.960 . S
H387 C386 0.961 . S
H388 C386 0.961 . S
H389 C386 0.960 . S
C390 N391 1.342 . S
C390 C394 1.401 . S
C390 C395 1.499 . S
N391 Co374 1.989 . S
N391 C390 1.342 . S
N391 N392 1.388 . S
N392 Co375 1.993 . S
N392 N391 1.388 . S
N392 C393 1.346 . S
C393 N392 1.346 . S
C393 C394 1.396 . S
C393 C403 1.510 . S
C394 C390 1.401 . S
C394 C393 1.396 . S
C395 C390 1.499 . S
C395 H396 0.959 . S
C395 H397 0.960 . S
C395 H398 0.961 . S
H396 C395 0.959 . S
H397 C395 0.960 . S
H398 C395 0.961 . S
O399 Co374 1.967 . S
O399 C407 1.258 . S
O400 Co375 1.941 . S
O400 C407 1.266 . S
H401 C403 0.959 . S
H402 C403 0.961 . S
C403 C393 1.510 . S
C403 H401 0.959 . S
C403 H402 0.961 . S
C403 H404 0.960 . S
H404 C403 0.960 . S
H405 N385 0.862 1_545 S
O406 Co374 1.920 . S
O406 C379 1.289 . S
C407 O399 1.258 . S
C407 O400 1.266 . S
Co408 O411 1.970 . S
Co408 N425 1.989 . S
Co408 O433 1.967 . S
Co408 O440 1.920 . S
Co409 O412 1.966 1_655 S
Co409 N418 2.022 1_655 S
Co409 N426 1.993 . S
Co409 O434 1.941 . S
C410 O411 1.258 1_455 S
C410 O412 1.263 . S
O411 Co408 1.970 . S
O411 C410 1.258 1_655 S
O412 Co409 1.966 1_455 S
O412 C410 1.263 . S
C413 O414 1.235 1_556 S
C413 O440 1.289 . S
O414 C413 1.235 1_554 S
C415 C417 1.400 . S
C415 N418 1.351 . S
C415 C420 1.501 . S
C416 C417 1.387 . S
C416 N419 1.341 . S
C417 C415 1.400 . S
C417 C416 1.387 . S
N418 Co409 2.022 1_455 S
N418 C415 1.351 . S
N418 N419 1.365 . S
N419 C416 1.341 . S
N419 N418 1.365 . S
N419 H439 0.862 1_455 S
C420 C415 1.501 . S
C420 H421 0.961 . S
C420 H422 0.961 . S
C420 H423 0.960 . S
H421 C420 0.961 . S
H422 C420 0.961 . S
H423 C420 0.960 . S
C424 N425 1.342 . S
C424 C428 1.401 . S
C424 C429 1.499 . S
N425 Co408 1.989 . S
N425 C424 1.342 . S
N425 N426 1.388 . S
N426 Co409 1.993 . S
N426 N425 1.388 . S
N426 C427 1.346 . S
C427 N426 1.346 . S
C427 C428 1.396 . S
C427 C437 1.510 . S
C428 C424 1.401 . S
C428 C427 1.396 . S
C429 C424 1.499 . S
C429 H430 0.959 . S
C429 H431 0.960 1_556 S
C429 H432 0.961 . S
H430 C429 0.959 . S
H431 C429 0.960 1_554 S
H432 C429 0.961 . S
O433 Co408 1.967 . S
O433 C441 1.258 . S
O434 Co409 1.941 . S
O434 C441 1.266 . S
H435 C437 0.959 . S
H436 C437 0.961 . S
C437 C427 1.510 . S
C437 H435 0.959 . S
C437 H436 0.961 . S
C437 H438 0.960 . S
H438 C437 0.960 . S
H439 N419 0.862 1_655 S
O440 Co408 1.920 . S
O440 C413 1.289 . S
C441 O433 1.258 . S
C441 O434 1.266 . S
Co442 O445 1.970 . S
Co442 N459 1.989 . S
Co442 O467 1.967 . S
Co442 O474 1.920 . S
Co443 O446 1.966 1_565 S
Co443 N452 2.022 1_565 S
Co443 N460 1.993 . S
Co443 O468 1.941 . S
C444 O445 1.258 1_545 S
C444 O446 1.263 . S
O445 Co442 1.970 . S
O445 C444 1.258 1_565 S
O446 Co443 1.966 1_545 S
O446 C444 1.263 . S
C447 O448 1.235 1_556 S
C447 O474 1.289 . S
O448 C447 1.235 1_554 S
C449 C451 1.400 . S
C449 N452 1.351 . S
C449 C454 1.501 . S
C450 C451 1.387 . S
C450 N453 1.341 . S
C451 C449 1.400 . S
C451 C450 1.387 . S
N452 Co443 2.022 1_545 S
N452 C449 1.351 . S
N452 N453 1.365 . S
N453 C450 1.341 . S
N453 N452 1.365 . S
N453 H473 0.862 1_545 S
C454 C449 1.501 . S
C454 H455 0.961 . S
C454 H456 0.961 . S
C454 H457 0.960 . S
H455 C454 0.961 . S
H456 C454 0.961 . S
H457 C454 0.960 . S
C458 N459 1.342 . S
C458 C462 1.401 . S
C458 C463 1.499 . S
N459 Co442 1.989 . S
N459 C458 1.342 . S
N459 N460 1.388 . S
N460 Co443 1.993 . S
N460 N459 1.388 . S
N460 C461 1.346 . S
C461 N460 1.346 . S
C461 C462 1.396 . S
C461 C471 1.510 . S
C462 C458 1.401 . S
C462 C461 1.396 . S
C463 C458 1.499 . S
C463 H464 0.959 . S
C463 H465 0.960 1_556 S
C463 H466 0.961 . S
H464 C463 0.959 . S
H465 C463 0.960 1_554 S
H466 C463 0.961 . S
O467 Co442 1.967 . S
O467 C475 1.258 . S
O468 Co443 1.941 . S
O468 C475 1.266 . S
H469 C471 0.959 . S
H470 C471 0.961 . S
C471 C461 1.510 . S
C471 H469 0.959 . S
C471 H470 0.961 . S
C471 H472 0.960 . S
H472 C471 0.960 . S
H473 N453 0.862 1_565 S
O474 Co442 1.920 . S
O474 C447 1.289 . S
C475 O467 1.258 . S
C475 O468 1.266 . S
Co476 O479 1.970 . S
Co476 N493 1.989 . S
Co476 O501 1.967 . S
Co476 O508 1.920 . S
Co477 O480 1.966 . S
Co477 N486 2.022 . S
Co477 N494 1.993 . S
Co477 O502 1.941 . S
C478 O479 1.258 . S
C478 O480 1.263 . S
O479 Co476 1.970 . S
O479 C478 1.258 . S
O480 Co477 1.966 . S
O480 C478 1.263 . S
C481 O482 1.235 1_556 S
C481 O508 1.289 . S
O482 C481 1.235 1_554 S
C483 C485 1.400 . S
C483 N486 1.351 . S
C483 C488 1.501 . S
C484 C485 1.387 . S
C484 N487 1.341 . S
C485 C483 1.400 . S
C485 C484 1.387 . S
N486 Co477 2.022 . S
N486 C483 1.351 . S
N486 N487 1.365 . S
N487 C484 1.341 . S
N487 N486 1.365 . S
N487 H507 0.862 . S
C488 C483 1.501 . S
C488 H489 0.961 . S
C488 H490 0.961 . S
C488 H491 0.960 . S
H489 C488 0.961 . S
H490 C488 0.961 . S
H491 C488 0.960 . S
C492 N493 1.342 . S
C492 C496 1.401 . S
C492 C497 1.499 . S
N493 Co476 1.989 . S
N493 C492 1.342 . S
N493 N494 1.388 . S
N494 Co477 1.993 . S
N494 N493 1.388 . S
N494 C495 1.346 . S
C495 N494 1.346 . S
C495 C496 1.396 . S
C495 C505 1.510 . S
C496 C492 1.401 . S
C496 C495 1.396 . S
C497 C492 1.499 . S
C497 H498 0.959 . S
C497 H499 0.960 1_556 S
C497 H500 0.961 . S
H498 C497 0.959 . S
H499 C497 0.960 1_554 S
H500 C497 0.961 . S
O501 Co476 1.967 . S
O501 C509 1.258 . S
O502 Co477 1.941 . S
O502 C509 1.266 . S
H503 C505 0.959 . S
H504 C505 0.961 . S
C505 C495 1.510 . S
C505 H503 0.959 . S
C505 H504 0.961 . S
C505 H506 0.960 . S
H506 C505 0.960 . S
H507 N487 0.862 . S
O508 Co476 1.920 . S
O508 C481 1.289 . S
C509 O501 1.258 . S
C509 O502 1.266 . S
Co510 O513 1.970 . S
Co510 N527 1.989 . S
Co510 O535 1.967 . S
Co510 O542 1.920 . S
Co511 O514 1.966 . S
Co511 N520 2.022 . S
Co511 N528 1.993 . S
Co511 O536 1.941 . S
C512 O513 1.258 . S
C512 O514 1.263 . S
O513 Co510 1.970 . S
O513 C512 1.258 . S
O514 Co511 1.966 . S
O514 C512 1.263 . S
C515 O516 1.235 1_556 S
C515 O542 1.289 . S
O516 C515 1.235 1_554 S
C517 C519 1.400 . S
C517 N520 1.351 . S
C517 C522 1.501 . S
C518 C519 1.387 . S
C518 N521 1.341 . S
C519 C517 1.400 . S
C519 C518 1.387 . S
N520 Co511 2.022 . S
N520 C517 1.351 . S
N520 N521 1.365 . S
N521 C518 1.341 . S
N521 N520 1.365 . S
N521 H541 0.862 . S
C522 C517 1.501 . S
C522 H523 0.961 . S
C522 H524 0.961 . S
C522 H525 0.960 . S
H523 C522 0.961 . S
H524 C522 0.961 . S
H525 C522 0.960 . S
C526 N527 1.342 . S
C526 C530 1.401 . S
C526 C531 1.499 . S
N527 Co510 1.989 . S
N527 C526 1.342 . S
N527 N528 1.388 . S
N528 Co511 1.993 . S
N528 N527 1.388 . S
N528 C529 1.346 . S
C529 N528 1.346 . S
C529 C530 1.396 . S
C529 C539 1.510 . S
C530 C526 1.401 . S
C530 C529 1.396 . S
C531 C526 1.499 . S
C531 H532 0.959 . S
C531 H533 0.960 1_556 S
C531 H534 0.961 . S
H532 C531 0.959 . S
H533 C531 0.960 1_554 S
H534 C531 0.961 . S
O535 Co510 1.967 . S
O535 C543 1.258 . S
O536 Co511 1.941 . S
O536 C543 1.266 . S
H537 C539 0.959 . S
H538 C539 0.961 . S
C539 C529 1.510 . S
C539 H537 0.959 . S
C539 H538 0.961 . S
C539 H540 0.960 . S
H540 C539 0.960 . S
H541 N521 0.862 . S
O542 Co510 1.920 . S
O542 C515 1.289 . S
C543 O535 1.258 . S
C543 O536 1.266 . S
C111 C2 2.599 . S
C36 C9 2.599 . S
C70 C43 2.599 . S
C104 C77 2.599 . S
C179 C138 2.599 . S
C213 C172 2.599 . S
C206 C247 2.599 . S
C145 C240 2.599 . S
C274 C383 2.599 . S
C308 C281 2.599 . S
C315 C342 2.599 . S
C376 C349 2.599 . S
C451 C410 2.599 . S
C444 C485 2.599 . S
C478 C519 2.599 . S
C512 C417 2.599 . S
C33 C203 2.879 . S
C67 C237 2.879 . S
C271 C101 2.879 . S
C135 C169 2.879 . S
C475 C305 2.879 . S
C509 C339 2.879 . S
C373 C543 2.879 . S
C441 C407 2.879 . S
C5 C394 1.524 . S
C39 C292 1.524 . S
C73 C326 1.524 . S
C107 C360 1.524 . S
C462 C141 1.524 1_556 S
C175 C496 1.524 1_554 S
C530 C209 1.524 1_556 S
C243 C428 1.524 1_554 S
C122 C277 1.524 . S
C20 C311 1.524 . S
C54 C345 1.524 . S
C88 C379 1.524 . S
C190 C413 1.524 1_554 S
C447 C224 1.524 1_556 S
C258 C481 1.524 1_554 S
C156 C515 1.524 1_554 S
