# Generated by pormake.
# Topology hcp, (12)-cn, num edge types: 1
# Building blocks:
#     Node 0, Type 0, BuildingBlock: QEWDON_clean_sbu_0, # of connection points: 12
#     Node 1, Type 0, BuildingBlock: QEWDON_clean_sbu_0, # of connection points: 12
#     Edge 2, Type (0, 0), BuildingBlock: ZUJKAS_clean_linker_0, # of connection points: 2
#     Edge 3, Type (0, 0), BuildingBlock: ZUJKAS_clean_linker_0, # of connection points: 2
#     Edge 4, Type (0, 0), BuildingBlock: ZUJKAS_clean_linker_0, # of connection points: 2
#     Edge 5, Type (0, 0), BuildingBlock: ZUJKAS_clean_linker_0, # of connection points: 2
#     Edge 6, Type (0, 0), BuildingBlock: ZUJKAS_clean_linker_0, # of connection points: 2
#     Edge 7, Type (0, 0), BuildingBlock: ZUJKAS_clean_linker_0, # of connection points: 2
#     Edge 8, Type (0, 0), BuildingBlock: ZUJKAS_clean_linker_0, # of connection points: 2
#     Edge 9, Type (0, 0), BuildingBlock: ZUJKAS_clean_linker_0, # of connection points: 2
#     Edge 10, Type (0, 0), BuildingBlock: ZUJKAS_clean_linker_0, # of connection points: 2
#     Edge 11, Type (0, 0), BuildingBlock: ZUJKAS_clean_linker_0, # of connection points: 2
#     Edge 12, Type (0, 0), BuildingBlock: ZUJKAS_clean_linker_0, # of connection points: 2
#     Edge 13, Type (0, 0), BuildingBlock: ZUJKAS_clean_linker_0, # of connection points: 2
# Relax obj value: 0.189
# Max RMSD: 0.273
# Mean RMSD: 0.272
data_MOF--net-hcp--node1-QEWDON_clean_sbu_0--edge1-ZUJKAS_clean_linker_0
_symmetry_space_group_name_H-M    P1
_symmetry_Int_Tables_number       1
_symmetry_cell_setting            triclinic
loop_
_symmetry_equiv_pos_as_xyz
'x, y, z'
_cell_length_a     23.238701
_cell_length_b     22.771958
_cell_length_c     39.012564
_cell_angle_alpha  93.782229
_cell_angle_beta   88.616431
_cell_angle_gamma 120.45128
loop_
_atom_site_label
_atom_site_type_symbol
_atom_site_fract_x
_atom_site_fract_y
_atom_site_fract_z
_atom_type_partial_charge
Zn0 Zn 0.71831 0.24867 0.26678 0.0
Zn1 Zn 0.79656 0.36878 0.21151 0.0
O2 O 0.72915 0.33534 0.24987 0.0
H3 H 0.71488 0.36148 0.26414 0.0
C4 C 0.59144 0.12729 0.24346 0.0
O5 O 0.53758 0.12011 0.25894 0.0
Zn6 Zn 0.58402 0.4611 0.22723 0.0
Zn7 Zn 0.51019 0.33617 0.27502 0.0
O8 O 0.54675 0.35999 0.227 0.0
H9 H 0.52445 0.32796 0.20771 0.0
Zn10 Zn 0.57649 0.22834 0.21005 0.0
O11 O 0.63556 0.32772 0.19961 0.0
Zn12 Zn 0.61185 0.33593 0.15249 0.0
H13 H 0.65989 0.36703 0.21538 0.0
Zn14 Zn 0.62703 0.37551 0.338 0.0
O15 O 0.65924 0.41833 0.29343 0.0
H16 H 0.63676 0.39461 0.27217 0.0
Zn17 Zn 0.75357 0.49673 0.29862 0.0
C18 C 0.51183 0.24752 0.35852 0.0
O19 O 0.47237 0.18115 0.35916 0.0
O20 O 0.79054 0.2306 0.24713 0.0
O21 O 0.83682 0.30731 0.20719 0.0
O22 O 0.47584 0.40065 0.29084 0.0
O23 O 0.5167 0.47892 0.25182 0.0
O24 O 0.51397 0.17027 0.17025 0.0
O25 O 0.5517 0.24304 0.12876 0.0
C26 C 0.86341 0.50335 0.24718 0.0
O27 O 0.70043 0.41858 0.37473 0.0
O28 O 0.7861 0.50075 0.34731 0.0
O29 O 0.44153 0.23276 0.28226 0.0
C30 C 0.83256 0.25785 0.22318 0.0
O31 O 0.66421 0.20332 0.31116 0.0
C32 C 0.58672 0.45123 0.15207 0.0
O33 O 0.6213 0.17433 0.22283 0.0
C34 C 0.47908 0.45182 0.2774 0.0
O35 O 0.55871 0.27138 0.33685 0.0
C36 C 0.7517 0.39165 0.13736 0.0
O37 O 0.87077 0.46517 0.22437 0.0
O38 O 0.80832 0.47808 0.26313 0.0
C39 C 0.51469 0.1832 0.13901 0.0
O40 O 0.59549 0.4904 0.17865 0.0
O41 O 0.56285 0.38811 0.15572 0.0
C42 C 0.70625 0.57063 0.26757 0.0
O43 O 0.69658 0.38158 0.12552 0.0
O44 O 0.75233 0.37433 0.16781 0.0
C45 C 0.76066 0.46768 0.37421 0.0
O46 O 0.7518 0.58139 0.28874 0.0
O47 O 0.67117 0.51076 0.25361 0.0
C48 C 0.42079 0.18812 0.25715 0.0
O49 O 0.445 0.20694 0.22648 0.0
C50 C 0.68426 0.22695 0.34178 0.0
O51 O 0.74174 0.28389 0.34672 0.0
Zn52 Zn 0.40219 0.56516 0.75759 0.0
Zn53 Zn 0.47793 0.67834 0.70399 0.0
O54 O 0.41001 0.65092 0.74168 0.0
H55 H 0.40122 0.6796 0.7576 0.0
C56 C 0.2746 0.46109 0.72717 0.0
O57 O 0.21795 0.45814 0.73475 0.0
Zn58 Zn 0.27038 0.79376 0.69457 0.0
Zn59 Zn 0.19067 0.65412 0.72792 0.0
O60 O 0.2411 0.69469 0.68341 0.0
H61 H 0.21642 0.66754 0.70227 0.0
Zn62 Zn 0.29568 0.57959 0.69039 0.0
O63 O 0.35661 0.68494 0.69423 0.0
Zn64 Zn 0.36824 0.71022 0.64575 0.0
H65 H 0.35577 0.71459 0.71284 0.0
Zn66 Zn 0.32877 0.67326 0.81323 0.0
O67 O 0.32947 0.73505 0.77745 0.0
H68 H 0.29057 0.73045 0.7664 0.0
Zn69 Zn 0.42419 0.81475 0.77795 0.0
C70 C 0.19978 0.63328 0.8539 0.0
O71 O 0.1825 0.65996 0.83018 0.0
O72 O 0.46675 0.53875 0.73495 0.0
O73 O 0.53485 0.63721 0.71208 0.0
O74 O 0.17326 0.72273 0.75663 0.0
O75 O 0.19115 0.79524 0.71675 0.0
O76 O 0.23797 0.54384 0.64648 0.0
O77 O 0.29397 0.63568 0.61671 0.0
C78 C 0.53276 0.82172 0.7253 0.0
O79 O 0.42046 0.7142 0.83663 0.0
O80 O 0.46136 0.82263 0.82523 0.0
O81 O 0.10656 0.55443 0.73018 0.0
C82 C 0.52215 0.57937 0.72159 0.0
O83 O 0.40978 0.55946 0.80922 0.0
C84 C 0.34721 0.83901 0.6333 0.0
O85 O 0.31761 0.5092 0.70967 0.0
C86 C 0.16481 0.76878 0.74498 0.0
O87 O 0.2542 0.63282 0.85085 0.0
C88 C 0.46224 0.67108 0.63001 0.0
O89 O 0.54152 0.78089 0.70507 0.0
O90 O 0.47884 0.79663 0.74229 0.0
C91 C 0.24639 0.57469 0.61922 0.0
O92 O 0.30743 0.84902 0.65232 0.0
O93 O 0.35524 0.78909 0.6382 0.0
C94 C 0.3784 0.89298 0.74695 0.0
O95 O 0.45209 0.71978 0.62525 0.0
O96 O 0.4388 0.63744 0.65665 0.0
C97 C 0.45849 0.77766 0.84423 0.0
O98 O 0.42015 0.89859 0.76922 0.0
O99 O 0.34468 0.83533 0.73022 0.0
C100 C 0.10026 0.49932 0.71632 0.0
O101 O 0.14888 0.50215 0.69744 0.0
C102 C 0.37034 0.55142 0.83382 0.0
O103 O 0.31331 0.54821 0.82823 0.0
H104 H 0.57119 0.88951 0.87106 0.0
H105 H 0.57947 0.94371 0.92846 0.0
H106 H 0.38782 0.77252 0.9535 0.0
H107 H 0.38364 0.71569 0.8984 0.0
H108 H 0.50482 0.98841 0.94365 0.0
H109 H 0.46191 0.81316 0.04482 0.0
H110 H 0.48092 0.79664 0.00149 0.0
H111 H 0.39617 0.77104 0.01353 0.0
C112 C 0.5332 0.86198 0.88978 0.0
C113 C 0.47701 0.79867 0.88047 0.0
C114 C 0.5373 0.89316 0.92237 0.0
C115 C 0.48396 0.86264 0.94543 0.0
C116 C 0.43063 0.7967 0.93696 0.0
H117 H 0.43585 0.15876 0.08228 0.0
H118 H 0.41062 0.07096 0.03551 0.0
C119 C 0.42816 0.76418 0.90512 0.0
C120 C 0.47853 0.90391 0.975 0.0
H121 H 0.43247 0.89917 0.05878 0.0
C122 C 0.49067 0.96944 0.96909 0.0
C123 C 0.45838 0.87881 0.00801 0.0
C124 C 0.44933 0.81132 0.01732 0.0
C125 C 0.48624 0.01174 0.99542 0.0
C126 C 0.46422 0.98594 0.02824 0.0
C127 C 0.44902 0.9191 0.03367 0.0
C128 C 0.46591 0.0299 0.05853 0.0
C129 C 0.50845 0.0844 0.9878 0.0
C130 C 0.49924 0.03152 0.08842 0.0
C131 C 0.50942 0.07802 0.11577 0.0
C132 C 0.48857 0.12555 0.1134 0.0
C133 C 0.45242 0.12243 0.08441 0.0
C134 C 0.43918 0.07319 0.05754 0.0
H135 H 0.54 0.10022 0.96453 0.0
H136 H 0.46395 0.08873 0.98291 0.0
H137 H 0.5375 0.12068 0.0096 0.0
H138 H 0.52058 0.99911 0.09008 0.0
H139 H 0.53821 0.08015 0.13776 0.0
H140 H 0.48164 0.56279 0.62955 0.0
H141 H 0.49316 0.49929 0.57957 0.0
H142 H 0.49049 0.64144 0.51284 0.0
H143 H 0.47866 0.70559 0.56273 0.0
H144 H 0.39121 0.44426 0.52207 0.0
H145 H 0.65376 0.61515 0.4821 0.0
H146 H 0.62678 0.6185 0.52566 0.0
H147 H 0.6022 0.65196 0.49228 0.0
C148 C 0.48422 0.58114 0.6043 0.0
C149 C 0.47836 0.63877 0.6001 0.0
C150 C 0.49086 0.54479 0.57582 0.0
C151 C 0.49254 0.56577 0.54267 0.0
C152 C 0.4897 0.62488 0.53833 0.0
H153 H 0.52368 0.37032 0.34799 0.0
H154 H 0.51508 0.44908 0.39089 0.0
C155 C 0.48287 0.66134 0.56687 0.0
C156 C 0.49233 0.52258 0.51271 0.0
H157 H 0.59081 0.51102 0.44957 0.0
C158 C 0.43467 0.45883 0.50607 0.0
C159 C 0.54882 0.54248 0.49176 0.0
C160 C 0.61173 0.6106 0.49817 0.0
C161 C 0.43236 0.4136 0.47924 0.0
C162 C 0.48992 0.43204 0.45919 0.0
C163 C 0.54692 0.49685 0.46515 0.0
C164 C 0.49298 0.38365 0.43297 0.0
C165 C 0.36818 0.34669 0.47253 0.0
C166 C 0.48348 0.32089 0.44243 0.0
C167 C 0.48827 0.27594 0.41799 0.0
C168 C 0.50402 0.29372 0.38388 0.0
C169 C 0.51306 0.35626 0.37434 0.0
C170 C 0.50777 0.40101 0.39873 0.0
H171 H 0.32436 0.34959 0.48237 0.0
H172 H 0.36049 0.33125 0.44466 0.0
H173 H 0.37028 0.30636 0.48598 0.0
H174 H 0.47344 0.30713 0.46886 0.0
H175 H 0.48144 0.22811 0.42594 0.0
H176 H 0.76894 0.47024 0.08478 0.0
H177 H 0.85699 0.51259 0.04256 0.0
H178 H 0.96007 0.43352 0.09693 0.0
H179 H 0.86996 0.38919 0.13973 0.0
H180 H -0.00984 0.60287 0.04672 0.0
H181 H 0.94184 0.34551 -0.0003 0.0
H182 H 0.88539 0.35705 0.02808 0.0
H183 H 0.96206 0.36836 0.0446 0.0
C184 C 0.81045 0.46204 0.08812 0.0
C185 C 0.81193 0.4256 0.11554 0.0
C186 C 0.86102 0.48655 0.06384 0.0
C187 C 0.91473 0.47533 0.06604 0.0
C188 C 0.9184 0.44166 0.09426 0.0
H189 H 0.22505 0.58105 0.90917 0.0
H190 H 0.16008 0.54339 0.9617 0.0
C191 C 0.86736 0.41704 0.11893 0.0
C192 C 0.96484 0.49808 0.03792 0.0
H193 H 0.02152 0.439 0.96999 0.0
C194 C -0.00251 0.56706 0.03019 0.0
C195 C 0.97429 0.45142 0.01611 0.0
C196 C 0.93881 0.37632 0.02221 0.0
C197 C 0.03785 0.59027 0.00104 0.0
C198 C 0.04557 0.54329 0.97871 0.0
C199 C 0.01518 0.47485 0.98704 0.0
C200 C 0.0838 0.5642 0.94621 0.0
C201 C 0.07158 0.66496 0.99421 0.0
C202 C 0.06194 0.58734 0.91968 0.0
C203 C 0.09891 0.60881 0.88948 0.0
C204 C 0.15852 0.60743 0.88515 0.0
C205 C 0.17947 0.58288 0.91155 0.0
C206 C 0.14238 0.56128 0.94166 0.0
H207 H 0.07386 0.69671 0.0176 0.0
H208 H 0.12308 0.68373 0.98471 0.0
H209 H 0.04294 0.67202 0.97414 0.0
H210 H 0.01627 0.58899 0.92238 0.0
H211 H 0.08103 0.62703 0.86969 0.0
H212 H 0.47012 0.95087 0.62944 0.0
H213 H 0.52267 0.01584 0.5787 0.0
H214 H 0.34586 0.8792 0.51845 0.0
H215 H 0.29295 0.81543 0.56951 0.0
H216 H 0.55311 0.97466 0.51786 0.0
H217 H 0.37423 0.0619 0.49514 0.0
H218 H 0.3748 0.02398 0.53421 0.0
H219 H 0.33608 0.97097 0.49582 0.0
C220 C 0.44245 0.93556 0.60539 0.0
C221 C 0.37743 0.87923 0.60323 0.0
C222 C 0.47242 0.97235 0.57643 0.0
C223 C 0.43784 0.9533 0.54483 0.0
C224 C 0.37292 0.89614 0.54268 0.0
H225 H 0.55906 0.11329 0.34132 0.0
H226 H 0.49843 0.04588 0.38995 0.0
C227 C 0.34283 0.85958 0.57173 0.0
C228 C 0.47078 0.99216 0.51405 0.0
H229 H 0.45666 0.08488 0.45265 0.0
C230 C 0.53208 0.99894 0.50371 0.0
C231 C 0.44316 0.02351 0.49536 0.0
C232 C 0.37876 0.02036 0.50582 0.0
C233 C 0.56641 0.036 0.4753 0.0
C234 C 0.53927 0.06807 0.45692 0.0
C235 C 0.47747 0.06042 0.46683 0.0
C236 C 0.57493 0.11053 0.42765 0.0
C237 C 0.63113 0.0398 0.46492 0.0
C238 C 0.63729 0.17031 0.43279 0.0
C239 C 0.67207 0.20895 0.40505 0.0
C240 C 0.64526 0.18852 0.37152 0.0
C241 C 0.58174 0.1298 0.36666 0.0
C242 C 0.54684 0.09136 0.39446 0.0
H243 H 0.63634 0.99882 0.47581 0.0
H244 H 0.63486 0.03578 0.43652 0.0
H245 H 0.67352 0.08968 0.47464 0.0
H246 H 0.6593 0.18689 0.45829 0.0
H247 H 0.72051 0.25422 0.40986 0.0
H248 H 0.58008 0.38927 0.0889 0.0
H249 H 0.54827 0.41366 0.03457 0.0
H250 H 0.53843 0.58213 0.08583 0.0
H251 H 0.5728 0.56004 0.13962 0.0
H252 H 0.43202 0.40451 0.02244 0.0
H253 H 0.63434 0.66789 0.00075 0.0
H254 H 0.64172 0.61716 0.03207 0.0
H255 H 0.59738 0.66186 0.04218 0.0
C256 C 0.57271 0.43253 0.08832 0.0
C257 C 0.57866 0.47254 0.11849 0.0
C258 C 0.55434 0.44626 0.05735 0.0
C259 C 0.54135 0.49997 0.05611 0.0
C260 C 0.54971 0.54148 0.08596 0.0
H261 H 0.32845 0.57509 0.89697 0.0
H262 H 0.36497 0.56241 0.95347 0.0
C263 C 0.56909 0.52851 0.11677 0.0
C264 C 0.51342 0.50882 0.02448 0.0
H265 H 0.53507 0.62499 0.96699 0.0
C266 C 0.4547 0.45272 0.01031 0.0
C267 C 0.54301 0.5718 0.00871 0.0
C268 C 0.60794 0.63285 0.02152 0.0
C269 C 0.4249 0.45797 0.98078 0.0
C270 C 0.45411 0.52096 0.96541 0.0
C271 C 0.51234 0.57721 0.97953 0.0
C272 C 0.42967 0.52695 0.9322 0.0
C273 C 0.36322 0.39607 0.9656 0.0
C274 C 0.45411 0.51098 0.90213 0.0
C275 C 0.4339 0.51845 0.87029 0.0
C276 C 0.38855 0.54172 0.86796 0.0
C277 C 0.36307 0.55667 0.89817 0.0
C278 C 0.38397 0.54972 0.93027 0.0
H279 H 0.3432 0.35233 0.9823 0.0
H280 H 0.32383 0.40882 0.96132 0.0
H281 H 0.37535 0.38023 0.94021 0.0
H282 H 0.48933 0.49325 0.90334 0.0
H283 H 0.4539 0.50589 0.84742 0.0
H284 H 0.89126 0.56799 0.38403 0.0
H285 H 0.96703 0.57644 0.42899 0.0
H286 H 0.80421 0.40657 0.47714 0.0
H287 H 0.72772 0.3978 0.43264 0.0
H288 H 0.90247 0.52089 0.52339 0.0
H289 H 0.01252 0.41901 0.42546 0.0
H290 H 0.00839 0.49175 0.41359 0.0
H291 H 0.93259 0.41249 0.41953 0.0
C292 C 0.87125 0.53317 0.40448 0.0
C293 C 0.8038 0.48133 0.40435 0.0
C294 C 0.91459 0.53802 0.43007 0.0
C295 C 0.89113 0.49108 0.45571 0.0
C296 C 0.82304 0.44277 0.45726 0.0
H297 H 0.12183 0.461 0.62121 0.0
H298 H 0.03022 0.4263 0.5803 0.0
C299 C 0.77956 0.43791 0.43177 0.0
C300 C 0.93867 0.48878 0.47902 0.0
H301 H 0.069 0.45994 0.47937 0.0
C302 C 0.93849 0.5069 0.51401 0.0
C303 C 0.98469 0.46954 0.46646 0.0
C304 C 0.98446 0.44647 0.42926 0.0
C305 C 0.986 0.5099 0.53663 0.0
C306 C 0.03365 0.49302 0.52379 0.0
C307 C 0.03211 0.47249 0.48902 0.0
C308 C 0.09004 0.50421 0.54522 0.0
C309 C 0.98698 0.53427 0.57368 0.0
C310 C 0.15443 0.55647 0.53772 0.0
C311 C 0.20675 0.57611 0.56077 0.0
C312 C 0.19538 0.54367 0.5917 0.0
C313 C 0.13199 0.4873 0.59771 0.0
C314 C 0.07954 0.4677 0.57455 0.0
H315 H 0.95367 0.55575 0.57805 0.0
H316 H 0.97004 0.49076 0.59024 0.0
H317 H 0.03844 0.57387 0.5819 0.0
H318 H 0.16342 0.58474 0.51499 0.0
H319 H 0.25522 0.61914 0.55519 0.0
H320 H 0.66992 0.10001 0.19983 0.0
H321 H 0.68942 1.00413 0.20051 0.0
H322 H 0.58061 0.94449 0.2952 0.0
H323 H 0.55805 0.03803 0.29372 0.0
H324 H 0.74922 0.96484 0.24316 0.0
H325 H 0.47985 0.77089 0.23648 0.0
H326 H 0.51071 0.85978 0.23033 0.0
H327 H 0.49996 0.83019 0.27301 0.0
C328 C 0.65054 0.06672 0.22093 0.0
C329 C 0.61164 0.07593 0.24653 0.0
C330 C 0.66163 0.01188 0.22124 0.0
C331 C 0.63461 0.96582 0.2473 0.0
C332 C 0.59975 0.97783 0.27412 0.0
H333 H 0.70701 0.66181 0.31597 0.0
H334 H 0.68758 0.75614 0.30757 0.0
C335 C 0.58754 0.03179 0.27348 0.0
C336 C 0.64202 0.90475 0.24627 0.0
H337 H 0.55377 0.73132 0.25057 0.0
C338 C 0.70643 0.91379 0.24445 0.0
C339 C 0.58602 0.83784 0.24724 0.0
C340 C 0.51525 0.82394 0.24649 0.0
C341 C 0.7164 0.85805 0.2452 0.0
C342 C 0.66073 0.79205 0.24815 0.0
C343 C 0.59626 0.78239 0.24866 0.0
C344 C 0.6692 0.73319 0.25291 0.0
C345 C 0.78629 0.86966 0.24334 0.0
C346 C 0.66438 0.68899 0.22491 0.0
C347 C 0.67539 0.63507 0.22969 0.0
C348 C 0.69098 0.62476 0.26246 0.0
C349 C 0.69506 0.66881 0.29044 0.0
C350 C 0.6839 0.72243 0.28571 0.0
H351 H 0.82387 0.92323 0.23824 0.0
H352 H 0.79934 0.85727 0.26798 0.0
H353 H 0.78896 0.83506 0.22274 0.0
H354 H 0.65362 0.69713 0.19936 0.0
H355 H 0.67444 0.60333 0.20764 0.0
H356 H 0.1127 0.73876 0.80918 0.0
H357 H -0.00211 0.70615 0.82383 0.0
H358 H 0.97762 0.78105 0.72882 0.0
H359 H 0.0922 0.81463 0.7142 0.0
H360 H 0.89665 0.78785 0.78382 0.0
H361 H 0.87453 0.53191 0.76313 0.0
H362 H 0.92742 0.58936 0.79744 0.0
H363 H 0.95058 0.60899 0.75363 0.0
C364 C 0.08465 0.75095 0.79211 0.0
C365 C 0.11033 0.77688 0.75994 0.0
C366 C 0.01908 0.73202 0.8005 0.0
C367 C 0.97901 0.73887 0.77675 0.0
C368 C 0.00786 0.77457 0.74723 0.0
H369 H 0.62882 0.61887 0.67968 0.0
H370 H 0.73786 0.63974 0.69791 0.0
C371 C 0.07349 0.79391 0.73892 0.0
C372 C 0.90575 0.69827 0.77842 0.0
H373 H 0.77725 0.53699 0.75735 0.0
C374 C 0.87019 0.7328 0.77908 0.0
C375 C 0.87159 0.62626 0.77225 0.0
C376 C 0.90766 0.58659 0.7714 0.0
C377 C 0.80202 0.69789 0.77117 0.0
C378 C 0.76946 0.6272 0.76181 0.0
C379 C 0.8033 0.59145 0.76407 0.0
C380 C 0.70252 0.59259 0.74624 0.0
C381 C 0.76606 0.73753 0.77074 0.0
C382 C 0.64646 0.55367 0.76613 0.0
C383 C 0.58394 0.54046 0.75542 0.0
C384 C 0.57797 0.56752 0.72518 0.0
C385 C 0.63265 0.59834 0.70324 0.0
C386 C 0.69472 0.61029 0.71364 0.0
H387 H 0.79318 0.78695 0.78613 0.0
H388 H 0.76212 0.74852 0.74387 0.0
H389 H 0.71471 0.7075 0.78087 0.0
H390 H 0.65198 0.5395 0.79129 0.0
H391 H 0.5423 0.5164 0.77276 0.0
H392 H 0.37004 0.08069 0.20915 0.0
H393 H 0.27565 0.96549 0.21499 0.0
H394 H 0.25395 0.01818 0.32078 0.0
H395 H 0.34829 0.13416 0.31513 0.0
H396 H 0.25805 0.86678 0.26175 0.0
H397 H 0.06585 0.94313 0.27855 0.0
H398 H 0.14792 0.99936 0.26213 0.0
H399 H 0.13684 0.98564 0.30718 0.0
C400 C 0.3454 0.06792 0.23373 0.0
C401 C 0.36646 0.11693 0.26161 0.0
C402 C 0.29141 1.00194 0.23701 0.0
C403 C 0.25702 0.98355 0.26814 0.0
C404 C 0.27895 0.03167 0.29633 0.0
H405 H 0.88761 0.59277 0.30395 0.0
H406 H 0.98393 0.70932 0.31333 0.0
C407 C 0.33318 0.09779 0.29311 0.0
C408 C 0.19836 0.91383 0.27073 0.0
H409 H 0.0285 0.82579 0.27862 0.0
C410 C 0.20792 0.85782 0.2657 0.0
C411 C 0.13303 0.90221 0.27619 0.0
C412 C 0.11977 0.96056 0.28111 0.0
C413 C 0.15392 0.79052 0.26535 0.0
C414 C 0.08813 0.77872 0.26925 0.0
C415 C 0.07878 0.83476 0.27557 0.0
C416 C 0.02854 0.70908 0.26397 0.0
C417 C 0.16812 0.73275 0.26068 0.0
C418 C 0.02046 0.67115 0.23283 0.0
C419 C 0.96638 0.60501 0.22764 0.0
C420 C 0.91792 0.5753 0.25315 0.0
C421 C 0.92416 0.61418 0.28386 0.0
C422 C 0.97921 0.68063 0.28924 0.0
H423 H 0.2191 0.74872 0.27 0.0
H424 H 0.13143 0.68775 0.2745 0.0
H425 H 0.16536 0.71722 0.23292 0.0
H426 H 0.05632 0.69266 0.21243 0.0
H427 H 0.9626 0.57706 0.20341 0.0
H428 H 0.19872 0.33422 0.69796 0.0
H429 H 0.21285 0.23522 0.70258 0.0
H430 H 0.38008 0.35525 0.77172 0.0
H431 H 0.36437 0.45284 0.76796 0.0
H432 H 0.32705 0.22921 0.68432 0.0
H433 H 0.26725 0.18047 0.82178 0.0
H434 H 0.24654 0.23393 0.79901 0.0
H435 H 0.3303 0.26672 0.81441 0.0
C436 C 0.238 0.33896 0.71438 0.0
C437 C 0.28147 0.40143 0.73205 0.0
C438 C 0.24613 0.28266 0.71694 0.0
C439 C 0.29732 0.2878 0.7376 0.0
C440 C 0.33984 0.3499 0.75589 0.0
H441 H 0.44529 0.01911 0.78041 0.0
H442 H 0.42636 0.11456 0.7769 0.0
C443 C 0.33166 0.40615 0.75327 0.0
C444 C 0.3083 0.22929 0.73861 0.0
H445 H 0.31483 0.12052 0.79243 0.0
C446 C 0.324 0.20508 0.7079 0.0
C447 C 0.30458 0.19828 0.76945 0.0
C448 C 0.28567 0.22068 0.803 0.0
C449 C 0.33755 0.15156 0.70726 0.0
C450 C 0.33389 0.12044 0.73811 0.0
C451 C 0.31782 0.14451 0.76882 0.0
C452 C 0.34661 0.06293 0.73917 0.0
C453 C 0.35743 0.13023 0.67369 0.0
C454 C 0.30825 1.00206 0.71911 0.0
C455 C 0.31961 0.94761 0.72075 0.0
C456 C 0.36842 0.95189 0.74296 0.0
C457 C 0.40696 0.01333 0.76296 0.0
C458 C 0.39612 0.0681 0.76111 0.0
H459 H 0.37675 0.17126 0.65534 0.0
H460 H 0.39621 0.11653 0.67773 0.0
H461 H 0.31299 0.0849 0.66166 0.0
H462 H 0.26879 0.9962 0.70248 0.0
H463 H 0.28941 0.90233 0.70486 0.0
H464 H 0.3934 0.41031 0.33155 0.0
H465 H 0.27641 0.3775 0.32591 0.0
H466 H 0.32107 0.48744 0.23403 0.0
H467 H 0.43805 0.52057 0.23924 0.0
H468 H 0.1909 0.44836 0.29925 0.0
H469 H 0.22205 0.25819 0.21554 0.0
H470 H 0.27608 0.30412 0.25206 0.0
H471 H 0.28424 0.34725 0.21387 0.0
C472 C 0.37913 0.43062 0.31114 0.0
C473 C 0.4241 0.46515 0.28488 0.0
C474 C 0.31219 0.41166 0.30798 0.0
C475 C 0.29053 0.42838 0.27897 0.0
C476 C 0.33735 0.47351 0.25632 0.0
H477 H 0.93053 0.30148 0.17477 0.0
H478 H 0.04369 0.32623 0.18611 0.0
C479 C 0.40433 0.4926 0.25948 0.0
C480 C 0.22032 0.38682 0.26811 0.0
H481 H 0.11611 0.2485 0.21535 0.0
C482 C 0.17424 0.4045 0.28111 0.0
C483 C 0.19942 0.32938 0.24462 0.0
C484 C 0.2477 0.308 0.2307 0.0
C485 C 0.10732 0.36681 0.27041 0.0
C486 C 0.08664 0.31008 0.24646 0.0
C487 C 0.13254 0.29181 0.23384 0.0
C488 C 0.01799 0.27283 0.2329 0.0
C489 C 0.0592 0.38856 0.28417 0.0
C490 C 0.96587 0.22913 0.25377 0.0
C491 C 0.90102 0.21441 0.24726 0.0
C492 C 0.88855 0.24476 0.22027 0.0
C493 C 0.93902 0.27887 0.19625 0.0
C494 C 0.00372 0.29305 0.20265 0.0
H495 H 0.08475 0.43768 0.2999 0.0
H496 H 0.03209 0.39398 0.26268 0.0
H497 H 0.02159 0.34876 0.30039 0.0
H498 H 0.97637 0.21262 0.27704 0.0
H499 H 0.86295 0.18666 0.2659 0.0
H500 H 0.07611 0.37207 0.69441 0.0
H501 H 0.97605 0.26197 0.70308 0.0
H502 H 0.88734 0.36378 0.76058 0.0
H503 H 0.98697 0.47446 0.75153 0.0
H504 H 0.91623 0.1983 0.76193 0.0
H505 H 0.74298 0.24678 0.68944 0.0
H506 H 0.83246 0.30091 0.68772 0.0
H507 H 0.7874 0.30839 0.72423 0.0
C508 C 0.03523 0.37125 0.70875 0.0
C509 C 0.03943 0.43235 0.72194 0.0
C510 C 0.97806 0.30809 0.71382 0.0
C511 C 0.92352 0.30439 0.73202 0.0
C512 C 0.92803 0.36522 0.74581 0.0
H513 H 0.54068 0.92552 0.7701 0.0
H514 H 0.63268 0.04487 0.77599 0.0
C515 C 0.98527 0.42853 0.74075 0.0
C516 C 0.86219 0.23673 0.73623 0.0
H517 H 0.69608 0.14125 0.71497 0.0
C518 C 0.86805 0.1861 0.75187 0.0
C519 C 0.79905 0.22059 0.7232 0.0
C520 C 0.78986 0.2717 0.70494 0.0
C521 C 0.81307 0.11972 0.75416 0.0
C522 C 0.75057 0.10322 0.74033 0.0
C523 C 0.74397 0.15424 0.72578 0.0
C524 C 0.69392 0.0316 0.73719 0.0
C525 C 0.82235 0.06707 0.77076 0.0
C526 C 0.69735 0.98505 0.71314 0.0
C527 C 0.64449 0.91777 0.70916 0.0
C528 C 0.58667 0.89485 0.72931 0.0
C529 C 0.58341 0.9416 0.7536 0.0
C530 C 0.6363 0.00966 0.75724 0.0
H531 H 0.86872 0.09091 0.78665 0.0
H532 H 0.77904 0.03568 0.78717 0.0
H533 H 0.82561 0.03241 0.75045 0.0
H534 H 0.74108 1.00095 0.69725 0.0
H535 H 0.64937 0.88351 0.6903 0.0
loop_
_geom_bond_atom_site_label_1
_geom_bond_atom_site_label_2
_geom_bond_distance
_geom_bond_site_symmetry_2
_ccdc_geom_bond_type
Zn0 O2 1.933 . S
Zn0 O20 1.985 . S
Zn0 O31 1.955 . S
Zn1 O2 1.911 . S
Zn1 O21 1.970 . S
Zn1 O37 1.945 . S
Zn1 O44 1.981 . S
O2 Zn0 1.933 . S
O2 Zn1 1.911 . S
O2 H3 0.841 . S
H3 O2 0.841 . S
C4 O5 1.246 . S
C4 O33 1.276 . S
O5 C4 1.246 . S
Zn6 O8 1.911 . S
Zn6 O23 1.970 . S
Zn6 O40 1.945 . S
Zn6 O47 1.981 . S
Zn7 O8 1.933 . S
Zn7 O22 1.985 . S
Zn7 O29 1.955 . S
O8 Zn6 1.911 . S
O8 Zn7 1.933 . S
O8 H9 0.841 . S
H9 O8 0.841 . S
Zn10 O11 1.933 . S
Zn10 O24 1.985 . S
Zn10 O33 1.955 . S
O11 Zn10 1.933 . S
O11 Zn12 1.911 . S
O11 H13 0.841 . S
Zn12 O11 1.911 . S
Zn12 O25 1.970 . S
Zn12 O41 1.981 . S
Zn12 O43 1.945 . S
H13 O11 0.841 . S
Zn14 O15 1.933 . S
Zn14 O27 1.985 . S
Zn14 O35 1.955 . S
O15 Zn14 1.933 . S
O15 H16 0.841 . S
O15 Zn17 1.911 . S
H16 O15 0.841 . S
Zn17 O15 1.911 . S
Zn17 O28 1.970 . S
Zn17 O38 1.981 . S
Zn17 O46 1.945 . S
C18 O19 1.246 . S
C18 O35 1.276 . S
O19 C18 1.246 . S
O20 Zn0 1.985 . S
O20 C30 1.245 . S
O21 Zn1 1.970 . S
O21 C30 1.263 . S
O22 Zn7 1.985 . S
O22 C34 1.245 . S
O23 Zn6 1.970 . S
O23 C34 1.263 . S
O24 Zn10 1.985 . S
O24 C39 1.245 . S
O25 Zn12 1.970 . S
O25 C39 1.263 . S
C26 O37 1.262 . S
C26 O38 1.245 . S
O27 Zn14 1.985 . S
O27 C45 1.245 . S
O28 Zn17 1.970 . S
O28 C45 1.263 . S
O29 Zn7 1.955 . S
O29 C48 1.276 . S
C30 O20 1.245 . S
C30 O21 1.263 . S
O31 Zn0 1.955 . S
O31 C50 1.276 . S
C32 O40 1.262 . S
C32 O41 1.245 . S
O33 C4 1.276 . S
O33 Zn10 1.955 . S
C34 O22 1.245 . S
C34 O23 1.263 . S
O35 Zn14 1.955 . S
O35 C18 1.276 . S
C36 O43 1.262 . S
C36 O44 1.245 . S
O37 Zn1 1.945 . S
O37 C26 1.262 . S
O38 Zn17 1.981 . S
O38 C26 1.245 . S
C39 O24 1.245 . S
C39 O25 1.263 . S
O40 Zn6 1.945 . S
O40 C32 1.262 . S
O41 Zn12 1.981 . S
O41 C32 1.245 . S
C42 O46 1.262 . S
C42 O47 1.245 . S
O43 Zn12 1.945 . S
O43 C36 1.262 . S
O44 Zn1 1.981 . S
O44 C36 1.245 . S
C45 O27 1.245 . S
C45 O28 1.263 . S
O46 Zn17 1.945 . S
O46 C42 1.262 . S
O47 Zn6 1.981 . S
O47 C42 1.245 . S
C48 O29 1.276 . S
C48 O49 1.246 . S
O49 C48 1.246 . S
C50 O31 1.276 . S
C50 O51 1.246 . S
O51 C50 1.246 . S
Zn52 O54 1.933 . S
Zn52 O72 1.985 . S
Zn52 O83 1.955 . S
Zn53 O54 1.911 . S
Zn53 O73 1.970 . S
Zn53 O89 1.945 . S
Zn53 O96 1.981 . S
O54 Zn52 1.933 . S
O54 Zn53 1.911 . S
O54 H55 0.841 . S
H55 O54 0.841 . S
C56 O57 1.246 . S
C56 O85 1.276 . S
O57 C56 1.246 . S
Zn58 O60 1.911 . S
Zn58 O75 1.970 . S
Zn58 O92 1.945 . S
Zn58 O99 1.981 . S
Zn59 O60 1.933 . S
Zn59 O74 1.985 . S
Zn59 O81 1.955 . S
O60 Zn58 1.911 . S
O60 Zn59 1.933 . S
O60 H61 0.841 . S
H61 O60 0.841 . S
Zn62 O63 1.933 . S
Zn62 O76 1.985 . S
Zn62 O85 1.955 . S
O63 Zn62 1.933 . S
O63 Zn64 1.911 . S
O63 H65 0.841 . S
Zn64 O63 1.911 . S
Zn64 O77 1.970 . S
Zn64 O93 1.981 . S
Zn64 O95 1.945 . S
H65 O63 0.841 . S
Zn66 O67 1.933 . S
Zn66 O79 1.985 . S
Zn66 O87 1.955 . S
O67 Zn66 1.933 . S
O67 H68 0.841 . S
O67 Zn69 1.911 . S
H68 O67 0.841 . S
Zn69 O67 1.911 . S
Zn69 O80 1.970 . S
Zn69 O90 1.981 . S
Zn69 O98 1.945 . S
C70 O71 1.246 . S
C70 O87 1.276 . S
O71 C70 1.246 . S
O72 Zn52 1.985 . S
O72 C82 1.245 . S
O73 Zn53 1.970 . S
O73 C82 1.263 . S
O74 Zn59 1.985 . S
O74 C86 1.245 . S
O75 Zn58 1.970 . S
O75 C86 1.263 . S
O76 Zn62 1.985 . S
O76 C91 1.245 . S
O77 Zn64 1.970 . S
O77 C91 1.263 . S
C78 O89 1.262 . S
C78 O90 1.245 . S
O79 Zn66 1.985 . S
O79 C97 1.245 . S
O80 Zn69 1.970 . S
O80 C97 1.263 . S
O81 Zn59 1.955 . S
O81 C100 1.276 . S
C82 O72 1.245 . S
C82 O73 1.263 . S
O83 Zn52 1.955 . S
O83 C102 1.276 . S
C84 O92 1.262 . S
C84 O93 1.245 . S
O85 C56 1.276 . S
O85 Zn62 1.955 . S
C86 O74 1.245 . S
C86 O75 1.263 . S
O87 Zn66 1.955 . S
O87 C70 1.276 . S
C88 O95 1.262 . S
C88 O96 1.245 . S
O89 Zn53 1.945 . S
O89 C78 1.262 . S
O90 Zn69 1.981 . S
O90 C78 1.245 . S
C91 O76 1.245 . S
C91 O77 1.263 . S
O92 Zn58 1.945 . S
O92 C84 1.262 . S
O93 Zn64 1.981 . S
O93 C84 1.245 . S
C94 O98 1.262 . S
C94 O99 1.245 . S
O95 Zn64 1.945 . S
O95 C88 1.262 . S
O96 Zn53 1.981 . S
O96 C88 1.245 . S
C97 O79 1.245 . S
C97 O80 1.263 . S
O98 Zn69 1.945 . S
O98 C94 1.262 . S
O99 Zn58 1.981 . S
O99 C94 1.245 . S
C100 O81 1.276 . S
C100 O101 1.246 . S
O101 C100 1.246 . S
C102 O83 1.276 . S
C102 O103 1.246 . S
O103 C102 1.246 . S
H104 C112 0.929 . S
H105 C114 0.930 . S
H106 C116 0.930 . S
H107 C119 0.929 . S
H108 C122 0.930 . S
H109 C124 0.960 . S
H110 C124 0.960 1_556 S
H111 C124 0.960 1_556 S
C112 H104 0.929 . S
C112 C113 1.377 . S
C112 C114 1.384 . S
C113 C112 1.377 . S
C113 C119 1.390 . S
C114 H105 0.930 . S
C114 C112 1.384 . S
C114 C115 1.372 . S
C115 C114 1.372 . S
C115 C116 1.400 . S
C115 C120 1.490 . S
C116 H106 0.930 . S
C116 C115 1.400 . S
C116 C119 1.386 . S
H117 C133 0.930 . S
H118 C134 0.931 . S
C119 H107 0.929 . S
C119 C113 1.390 . S
C119 C116 1.386 . S
C120 C115 1.490 . S
C120 C122 1.395 1_565 S
C120 C123 1.409 . S
H121 C127 0.930 . S
C122 H108 0.930 . S
C122 C120 1.395 1_545 S
C122 C125 1.403 . S
C123 C120 1.409 . S
C123 C124 1.522 1_556 S
C123 C127 1.394 1_556 S
C124 H109 0.960 . S
C124 H110 0.960 1_554 S
C124 H111 0.960 1_554 S
C124 C123 1.522 1_554 S
C125 C122 1.403 . S
C125 C126 1.392 1_556 S
C125 C129 1.495 . S
C126 C125 1.392 1_554 S
C126 C127 1.385 1_545 S
C126 C128 1.478 . S
C127 H121 0.930 . S
C127 C123 1.394 1_554 S
C127 C126 1.385 1_565 S
C128 C126 1.478 . S
C128 C130 1.381 . S
C128 C134 1.383 . S
C129 C125 1.495 . S
C129 H135 0.959 . S
C129 H136 0.962 . S
C129 H137 0.960 1_556 S
C130 C128 1.381 . S
C130 C131 1.394 . S
C130 H138 0.930 . S
C131 C130 1.394 . S
C131 C132 1.383 . S
C131 H139 0.929 . S
C132 C131 1.383 . S
C132 C133 1.377 . S
C133 H117 0.930 . S
C133 C132 1.377 . S
C133 C134 1.379 . S
C134 H118 0.931 . S
C134 C128 1.383 . S
C134 C133 1.379 . S
H135 C129 0.959 . S
H136 C129 0.962 . S
H137 C129 0.960 1_554 S
H138 C130 0.930 . S
H139 C131 0.929 . S
H140 C148 0.929 . S
H141 C150 0.930 . S
H142 C152 0.930 . S
H143 C155 0.929 . S
H144 C158 0.930 . S
H145 C160 0.960 . S
H146 C160 0.960 . S
H147 C160 0.960 . S
C148 H140 0.929 . S
C148 C149 1.377 . S
C148 C150 1.384 . S
C149 C148 1.377 . S
C149 C155 1.390 . S
C150 H141 0.930 . S
C150 C148 1.384 . S
C150 C151 1.372 . S
C151 C150 1.372 . S
C151 C152 1.400 . S
C151 C156 1.490 . S
C152 H142 0.930 . S
C152 C151 1.400 . S
C152 C155 1.386 . S
H153 C169 0.930 . S
H154 C170 0.931 . S
C155 H143 0.929 . S
C155 C149 1.390 . S
C155 C152 1.386 . S
C156 C151 1.490 . S
C156 C158 1.395 . S
C156 C159 1.403 . S
H157 C163 0.930 . S
C158 H144 0.930 . S
C158 C156 1.395 . S
C158 C161 1.403 . S
C159 C156 1.403 . S
C159 C160 1.524 . S
C159 C163 1.400 . S
C160 H145 0.960 . S
C160 H146 0.960 . S
C160 H147 0.960 . S
C160 C159 1.524 . S
C161 C158 1.403 . S
C161 C162 1.392 . S
C161 C165 1.495 . S
C162 C161 1.392 . S
C162 C163 1.385 . S
C162 C164 1.478 . S
C163 H157 0.930 . S
C163 C159 1.400 . S
C163 C162 1.385 . S
C164 C162 1.478 . S
C164 C166 1.381 . S
C164 C170 1.383 . S
C165 C161 1.495 . S
C165 H171 0.959 . S
C165 H172 0.961 . S
C165 H173 0.960 . S
C166 C164 1.381 . S
C166 C167 1.394 . S
C166 H174 0.930 . S
C167 C166 1.394 . S
C167 C168 1.383 . S
C167 H175 0.929 . S
C168 C167 1.383 . S
C168 C169 1.377 . S
C169 H153 0.930 . S
C169 C168 1.377 . S
C169 C170 1.379 . S
C170 H154 0.931 . S
C170 C164 1.383 . S
C170 C169 1.379 . S
H171 C165 0.959 . S
H172 C165 0.961 . S
H173 C165 0.960 . S
H174 C166 0.930 . S
H175 C167 0.929 . S
H176 C184 0.929 . S
H177 C186 0.930 . S
H178 C188 0.930 . S
H179 C191 0.929 . S
H180 C194 0.930 . S
H181 C196 0.960 1_556 S
H182 C196 0.960 . S
H183 C196 0.960 . S
C184 H176 0.929 . S
C184 C185 1.377 . S
C184 C186 1.384 . S
C185 C184 1.377 . S
C185 C191 1.390 . S
C186 H177 0.930 . S
C186 C184 1.384 . S
C186 C187 1.372 . S
C187 C186 1.372 . S
C187 C188 1.400 . S
C187 C192 1.490 . S
C188 H178 0.930 . S
C188 C187 1.400 . S
C188 C191 1.386 . S
H189 C205 0.930 . S
H190 C206 0.931 . S
C191 H179 0.929 . S
C191 C185 1.390 . S
C191 C188 1.386 . S
C192 C187 1.490 . S
C192 C194 1.395 . S
C192 C195 1.403 . S
H193 C199 0.930 . S
C194 H180 0.930 . S
C194 C192 1.395 . S
C194 C197 1.403 1_654 S
C195 C192 1.403 . S
C195 C196 1.524 . S
C195 C199 1.400 1_654 S
C196 H181 0.960 1_554 S
C196 H182 0.960 . S
C196 H183 0.960 . S
C196 C195 1.524 . S
C197 C194 1.403 1_456 S
C197 C198 1.392 . S
C197 C201 1.495 . S
C198 C197 1.392 . S
C198 C199 1.385 . S
C198 C200 1.478 . S
C199 H193 0.930 . S
C199 C195 1.400 1_456 S
C199 C198 1.385 . S
C200 C198 1.478 . S
C200 C202 1.381 . S
C200 C206 1.383 . S
C201 C197 1.495 . S
C201 H207 0.959 1_556 S
C201 H208 0.961 . S
C201 H209 0.960 . S
C202 C200 1.381 . S
C202 C203 1.394 . S
C202 H210 0.930 . S
C203 C202 1.394 . S
C203 C204 1.383 . S
C203 H211 0.929 . S
C204 C203 1.383 . S
C204 C205 1.377 . S
C205 H189 0.930 . S
C205 C204 1.377 . S
C205 C206 1.379 . S
C206 H190 0.931 . S
C206 C200 1.383 . S
C206 C205 1.379 . S
H207 C201 0.959 1_554 S
H208 C201 0.961 . S
H209 C201 0.960 . S
H210 C202 0.930 . S
H211 C203 0.929 . S
H212 C220 0.929 . S
H213 C222 0.930 . S
H214 C224 0.930 . S
H215 C227 0.929 . S
H216 C230 0.930 . S
H217 C232 0.960 1_545 S
H218 C232 0.960 1_545 S
H219 C232 0.960 . S
C220 H212 0.929 . S
C220 C221 1.377 . S
C220 C222 1.384 . S
C221 C220 1.377 . S
C221 C227 1.390 . S
C222 H213 0.930 . S
C222 C220 1.384 . S
C222 C223 1.372 . S
C223 C222 1.372 . S
C223 C224 1.400 . S
C223 C228 1.490 . S
C224 H214 0.930 . S
C224 C223 1.400 . S
C224 C227 1.386 . S
H225 C241 0.930 . S
H226 C242 0.931 . S
C227 H215 0.929 . S
C227 C221 1.390 . S
C227 C224 1.386 . S
C228 C223 1.490 . S
C228 C230 1.395 . S
C228 C231 1.403 . S
H229 C235 0.930 . S
C230 H216 0.930 . S
C230 C228 1.395 . S
C230 C233 1.403 1_565 S
C231 C228 1.403 . S
C231 C232 1.524 . S
C231 C235 1.400 1_565 S
C232 H217 0.960 1_565 S
C232 H218 0.960 1_565 S
C232 H219 0.960 . S
C232 C231 1.524 . S
C233 C230 1.403 1_545 S
C233 C234 1.392 . S
C233 C237 1.495 . S
C234 C233 1.392 . S
C234 C235 1.385 . S
C234 C236 1.478 . S
C235 H229 0.930 . S
C235 C231 1.400 1_545 S
C235 C234 1.385 . S
C236 C234 1.478 . S
C236 C238 1.381 . S
C236 C242 1.383 . S
C237 C233 1.495 . S
C237 H243 0.959 1_545 S
C237 H244 0.961 1_545 S
C237 H245 0.960 . S
C238 C236 1.381 . S
C238 C239 1.394 . S
C238 H246 0.930 . S
C239 C238 1.394 . S
C239 C240 1.383 . S
C239 H247 0.929 . S
C240 C239 1.383 . S
C240 C241 1.377 . S
C241 H225 0.930 . S
C241 C240 1.377 . S
C241 C242 1.379 . S
C242 H226 0.931 . S
C242 C236 1.383 . S
C242 C241 1.379 . S
H243 C237 0.959 1_565 S
H244 C237 0.961 1_565 S
H245 C237 0.960 . S
H246 C238 0.930 . S
H247 C239 0.929 . S
H248 C256 0.929 . S
H249 C258 0.930 . S
H250 C260 0.930 . S
H251 C263 0.929 . S
H252 C266 0.930 . S
H253 C268 0.960 . S
H254 C268 0.960 . S
H255 C268 0.960 . S
C256 H248 0.929 . S
C256 C257 1.377 . S
C256 C258 1.384 . S
C257 C256 1.377 . S
C257 C263 1.390 . S
C258 H249 0.930 . S
C258 C256 1.384 . S
C258 C259 1.372 . S
C259 C258 1.372 . S
C259 C260 1.400 . S
C259 C264 1.490 . S
C260 H250 0.930 . S
C260 C259 1.400 . S
C260 C263 1.386 . S
H261 C277 0.930 . S
H262 C278 0.931 . S
C263 H251 0.929 . S
C263 C257 1.390 . S
C263 C260 1.386 . S
C264 C259 1.490 . S
C264 C266 1.395 . S
C264 C267 1.403 . S
H265 C271 0.930 . S
C266 H252 0.930 . S
C266 C264 1.395 . S
C266 C269 1.403 1_554 S
C267 C264 1.403 . S
C267 C268 1.524 . S
C267 C271 1.400 1_554 S
C268 H253 0.960 . S
C268 H254 0.960 . S
C268 H255 0.960 . S
C268 C267 1.524 . S
C269 C266 1.403 1_556 S
C269 C270 1.392 . S
C269 C273 1.495 . S
C270 C269 1.392 . S
C270 C271 1.385 . S
C270 C272 1.478 . S
C271 H265 0.930 . S
C271 C267 1.400 1_556 S
C271 C270 1.385 . S
C272 C270 1.478 . S
C272 C274 1.381 . S
C272 C278 1.383 . S
C273 C269 1.495 . S
C273 H279 0.959 . S
C273 H280 0.961 . S
C273 H281 0.960 . S
C274 C272 1.381 . S
C274 C275 1.394 . S
C274 H282 0.930 . S
C275 C274 1.394 . S
C275 C276 1.383 . S
C275 H283 0.929 . S
C276 C275 1.383 . S
C276 C277 1.377 . S
C277 H261 0.930 . S
C277 C276 1.377 . S
C277 C278 1.379 . S
C278 H262 0.931 . S
C278 C272 1.383 . S
C278 C277 1.379 . S
H279 C273 0.959 . S
H280 C273 0.961 . S
H281 C273 0.960 . S
H282 C274 0.930 . S
H283 C275 0.929 . S
H284 C292 0.929 . S
H285 C294 0.930 . S
H286 C296 0.930 . S
H287 C299 0.929 . S
H288 C302 0.930 . S
H289 C304 0.960 . S
H290 C304 0.960 . S
H291 C304 0.960 1_655 S
C292 H284 0.929 . S
C292 C293 1.377 . S
C292 C294 1.384 . S
C293 C292 1.377 . S
C293 C299 1.390 . S
C294 H285 0.930 . S
C294 C292 1.384 . S
C294 C295 1.372 . S
C295 C294 1.372 . S
C295 C296 1.400 . S
C295 C300 1.490 . S
C296 H286 0.930 . S
C296 C295 1.400 . S
C296 C299 1.386 . S
H297 C313 0.930 . S
H298 C314 0.931 . S
C299 H287 0.929 . S
C299 C293 1.390 . S
C299 C296 1.386 . S
C300 C295 1.490 . S
C300 C302 1.395 . S
C300 C303 1.403 1_655 S
H301 C307 0.930 . S
C302 H288 0.930 . S
C302 C300 1.395 . S
C302 C305 1.403 . S
C303 C300 1.403 1_455 S
C303 C304 1.524 . S
C303 C307 1.400 . S
C304 H289 0.960 . S
C304 H290 0.960 . S
C304 H291 0.960 1_455 S
C304 C303 1.524 . S
C305 C302 1.403 . S
C305 C306 1.392 1_655 S
C305 C309 1.495 . S
C306 C305 1.392 1_455 S
C306 C307 1.385 . S
C306 C308 1.478 . S
C307 H301 0.930 . S
C307 C303 1.400 . S
C307 C306 1.385 . S
C308 C306 1.478 . S
C308 C310 1.381 . S
C308 C314 1.383 . S
C309 C305 1.495 . S
C309 H315 0.959 . S
C309 H316 0.961 . S
C309 H317 0.960 1_655 S
C310 C308 1.381 . S
C310 C311 1.394 . S
C310 H318 0.930 . S
C311 C310 1.394 . S
C311 C312 1.383 . S
C311 H319 0.929 . S
C312 C311 1.383 . S
C312 C313 1.377 . S
C313 H297 0.930 . S
C313 C312 1.377 . S
C313 C314 1.379 . S
C314 H298 0.931 . S
C314 C308 1.383 . S
C314 C313 1.379 . S
H315 C309 0.959 . S
H316 C309 0.961 . S
H317 C309 0.960 1_455 S
H318 C310 0.930 . S
H319 C311 0.929 . S
H320 C328 0.929 . S
H321 C330 0.930 1_565 S
H322 C332 0.930 . S
H323 C335 0.929 . S
H324 C338 0.930 . S
H325 C340 0.960 . S
H326 C340 0.960 . S
H327 C340 0.960 . S
C328 H320 0.929 . S
C328 C329 1.377 . S
C328 C330 1.384 . S
C329 C328 1.377 . S
C329 C335 1.390 . S
C330 H321 0.930 1_545 S
C330 C328 1.384 . S
C330 C331 1.372 1_545 S
C331 C330 1.372 1_565 S
C331 C332 1.400 . S
C331 C336 1.490 . S
C332 H322 0.930 . S
C332 C331 1.400 . S
C332 C335 1.386 1_565 S
H333 C349 0.930 . S
H334 C350 0.931 . S
C335 H323 0.929 . S
C335 C329 1.390 . S
C335 C332 1.386 1_545 S
C336 C331 1.490 . S
C336 C338 1.395 . S
C336 C339 1.403 . S
H337 C343 0.930 . S
C338 H324 0.930 . S
C338 C336 1.395 . S
C338 C341 1.403 . S
C339 C336 1.403 . S
C339 C340 1.524 . S
C339 C343 1.400 . S
C340 H325 0.960 . S
C340 H326 0.960 . S
C340 H327 0.960 . S
C340 C339 1.524 . S
C341 C338 1.403 . S
C341 C342 1.392 . S
C341 C345 1.495 . S
C342 C341 1.392 . S
C342 C343 1.385 . S
C342 C344 1.478 . S
C343 H337 0.930 . S
C343 C339 1.400 . S
C343 C342 1.385 . S
C344 C342 1.478 . S
C344 C346 1.381 . S
C344 C350 1.383 . S
C345 C341 1.495 . S
C345 H351 0.959 . S
C345 H352 0.961 . S
C345 H353 0.960 . S
C346 C344 1.381 . S
C346 C347 1.394 . S
C346 H354 0.930 . S
C347 C346 1.394 . S
C347 C348 1.383 . S
C347 H355 0.929 . S
C348 C347 1.383 . S
C348 C349 1.377 . S
C349 H333 0.930 . S
C349 C348 1.377 . S
C349 C350 1.379 . S
C350 H334 0.931 . S
C350 C344 1.383 . S
C350 C349 1.379 . S
H351 C345 0.959 . S
H352 C345 0.961 . S
H353 C345 0.960 . S
H354 C346 0.930 . S
H355 C347 0.929 . S
H356 C364 0.929 . S
H357 C366 0.930 1_655 S
H358 C368 0.926 1_655 S
H359 C371 0.929 . S
H360 C374 0.930 . S
H361 C376 0.960 . S
H362 C376 0.960 . S
H363 C376 0.960 . S
C364 H356 0.929 . S
C364 C365 1.377 . S
C364 C366 1.384 . S
C365 C364 1.377 . S
C365 C371 1.390 . S
C366 H357 0.930 1_455 S
C366 C364 1.384 . S
C366 C367 1.372 1_455 S
C367 C366 1.372 1_655 S
C367 C368 1.392 1_655 S
C367 C372 1.490 . S
C368 H358 0.926 1_455 S
C368 C367 1.392 1_455 S
C368 C371 1.397 . S
H369 C385 0.930 . S
H370 C386 0.931 . S
C371 H359 0.929 . S
C371 C365 1.390 . S
C371 C368 1.397 . S
C372 C367 1.490 . S
C372 C374 1.395 . S
C372 C375 1.403 . S
H373 C379 0.930 . S
C374 H360 0.930 . S
C374 C372 1.395 . S
C374 C377 1.403 . S
C375 C372 1.403 . S
C375 C376 1.524 . S
C375 C379 1.400 . S
C376 H361 0.960 . S
C376 H362 0.960 . S
C376 H363 0.960 . S
C376 C375 1.524 . S
C377 C374 1.403 . S
C377 C378 1.392 . S
C377 C381 1.495 . S
C378 C377 1.392 . S
C378 C379 1.385 . S
C378 C380 1.478 . S
C379 H373 0.930 . S
C379 C375 1.400 . S
C379 C378 1.385 . S
C380 C378 1.478 . S
C380 C382 1.381 . S
C380 C386 1.383 . S
C381 C377 1.495 . S
C381 H387 0.959 . S
C381 H388 0.961 . S
C381 H389 0.960 . S
C382 C380 1.381 . S
C382 C383 1.394 . S
C382 H390 0.930 . S
C383 C382 1.394 . S
C383 C384 1.383 . S
C383 H391 0.929 . S
C384 C383 1.383 . S
C384 C385 1.377 . S
C385 H369 0.930 . S
C385 C384 1.377 . S
C385 C386 1.379 . S
C386 H370 0.931 . S
C386 C380 1.383 . S
C386 C385 1.379 . S
H387 C381 0.959 . S
H388 C381 0.961 . S
H389 C381 0.960 . S
H390 C382 0.930 . S
H391 C383 0.929 . S
H392 C400 0.929 . S
H393 C402 0.930 . S
H394 C404 0.932 . S
H395 C407 0.929 . S
H396 C410 0.930 . S
H397 C412 0.960 . S
H398 C412 0.960 . S
H399 C412 0.960 . S
C400 H392 0.929 . S
C400 C401 1.377 . S
C400 C402 1.384 1_545 S
C401 C400 1.377 . S
C401 C407 1.390 . S
C402 H393 0.930 . S
C402 C400 1.384 1_565 S
C402 C403 1.372 . S
C403 C402 1.372 . S
C403 C404 1.404 . S
C403 C408 1.490 . S
C404 H394 0.932 . S
C404 C403 1.404 . S
C404 C407 1.379 1_565 S
H405 C421 0.930 . S
H406 C422 0.931 . S
C407 H395 0.929 . S
C407 C401 1.390 . S
C407 C404 1.379 1_545 S
C408 C403 1.490 . S
C408 C410 1.395 . S
C408 C411 1.403 . S
H409 C415 0.930 . S
C410 H396 0.930 . S
C410 C408 1.395 . S
C410 C413 1.403 . S
C411 C408 1.403 . S
C411 C412 1.524 . S
C411 C415 1.400 . S
C412 H397 0.960 . S
C412 H398 0.960 . S
C412 H399 0.960 . S
C412 C411 1.524 . S
C413 C410 1.403 . S
C413 C414 1.392 . S
C413 C417 1.495 . S
C414 C413 1.392 . S
C414 C415 1.385 . S
C414 C416 1.478 . S
C415 H409 0.930 . S
C415 C411 1.400 . S
C415 C414 1.385 . S
C416 C414 1.478 . S
C416 C418 1.381 . S
C416 C422 1.383 . S
C417 C413 1.495 . S
C417 H423 0.959 . S
C417 H424 0.961 . S
C417 H425 0.960 . S
C418 C416 1.381 . S
C418 C419 1.394 1_455 S
C418 H426 0.930 . S
C419 C418 1.394 1_655 S
C419 C420 1.383 . S
C419 H427 0.929 . S
C420 C419 1.383 . S
C420 C421 1.377 . S
C421 H405 0.930 . S
C421 C420 1.377 . S
C421 C422 1.379 1_655 S
C422 H406 0.931 . S
C422 C416 1.383 . S
C422 C421 1.379 1_455 S
H423 C417 0.959 . S
H424 C417 0.961 . S
H425 C417 0.960 . S
H426 C418 0.930 . S
H427 C419 0.929 . S
H428 C436 0.929 . S
H429 C438 0.930 . S
H430 C440 0.930 . S
H431 C443 0.929 . S
H432 C446 0.930 . S
H433 C448 0.960 . S
H434 C448 0.960 . S
H435 C448 0.960 . S
C436 H428 0.929 . S
C436 C437 1.377 . S
C436 C438 1.384 . S
C437 C436 1.377 . S
C437 C443 1.390 . S
C438 H429 0.930 . S
C438 C436 1.384 . S
C438 C439 1.372 . S
C439 C438 1.372 . S
C439 C440 1.400 . S
C439 C444 1.490 . S
C440 H430 0.930 . S
C440 C439 1.400 . S
C440 C443 1.386 . S
H441 C457 0.930 . S
H442 C458 0.931 . S
C443 H431 0.929 . S
C443 C437 1.390 . S
C443 C440 1.386 . S
C444 C439 1.490 . S
C444 C446 1.395 . S
C444 C447 1.403 . S
H445 C451 0.930 . S
C446 H432 0.930 . S
C446 C444 1.395 . S
C446 C449 1.403 . S
C447 C444 1.403 . S
C447 C448 1.524 . S
C447 C451 1.400 . S
C448 H433 0.960 . S
C448 H434 0.960 . S
C448 H435 0.960 . S
C448 C447 1.524 . S
C449 C446 1.403 . S
C449 C450 1.392 . S
C449 C453 1.495 . S
C450 C449 1.392 . S
C450 C451 1.385 . S
C450 C452 1.478 . S
C451 H445 0.930 . S
C451 C447 1.400 . S
C451 C450 1.385 . S
C452 C450 1.478 . S
C452 C454 1.381 1_545 S
C452 C458 1.383 . S
C453 C449 1.495 . S
C453 H459 0.959 . S
C453 H460 0.961 . S
C453 H461 0.960 . S
C454 C452 1.381 1_565 S
C454 C455 1.394 . S
C454 H462 0.930 . S
C455 C454 1.394 . S
C455 C456 1.383 . S
C455 H463 0.929 . S
C456 C455 1.383 . S
C456 C457 1.377 . S
C457 H441 0.930 . S
C457 C456 1.377 . S
C457 C458 1.379 1_565 S
C458 H442 0.931 . S
C458 C452 1.383 . S
C458 C457 1.379 1_545 S
H459 C453 0.959 . S
H460 C453 0.961 . S
H461 C453 0.960 . S
H462 C454 0.930 . S
H463 C455 0.929 . S
H464 C472 0.929 . S
H465 C474 0.930 . S
H466 C476 0.930 . S
H467 C479 0.929 . S
H468 C482 0.930 . S
H469 C484 0.960 . S
H470 C484 0.960 . S
H471 C484 0.960 . S
C472 H464 0.929 . S
C472 C473 1.377 . S
C472 C474 1.384 . S
C473 C472 1.377 . S
C473 C479 1.390 . S
C474 H465 0.930 . S
C474 C472 1.384 . S
C474 C475 1.372 . S
C475 C474 1.372 . S
C475 C476 1.400 . S
C475 C480 1.490 . S
C476 H466 0.930 . S
C476 C475 1.400 . S
C476 C479 1.386 . S
H477 C493 0.930 . S
H478 C494 0.931 . S
C479 H467 0.929 . S
C479 C473 1.390 . S
C479 C476 1.386 . S
C480 C475 1.490 . S
C480 C482 1.395 . S
C480 C483 1.403 . S
H481 C487 0.930 . S
C482 H468 0.930 . S
C482 C480 1.395 . S
C482 C485 1.403 . S
C483 C480 1.403 . S
C483 C484 1.524 . S
C483 C487 1.400 . S
C484 H469 0.960 . S
C484 H470 0.960 . S
C484 H471 0.960 . S
C484 C483 1.524 . S
C485 C482 1.403 . S
C485 C486 1.392 . S
C485 C489 1.495 . S
C486 C485 1.392 . S
C486 C487 1.385 . S
C486 C488 1.478 . S
C487 H481 0.930 . S
C487 C483 1.400 . S
C487 C486 1.385 . S
C488 C486 1.478 . S
C488 C490 1.381 1_455 S
C488 C494 1.383 . S
C489 C485 1.495 . S
C489 H495 0.959 . S
C489 H496 0.961 . S
C489 H497 0.960 . S
C490 C488 1.381 1_655 S
C490 C491 1.394 . S
C490 H498 0.930 1_655 S
C491 C490 1.394 . S
C491 C492 1.383 . S
C491 H499 0.929 . S
C492 C491 1.383 . S
C492 C493 1.377 . S
C493 H477 0.930 . S
C493 C492 1.377 . S
C493 C494 1.379 1_655 S
C494 H478 0.931 . S
C494 C488 1.383 . S
C494 C493 1.379 1_455 S
H495 C489 0.959 . S
H496 C489 0.961 . S
H497 C489 0.960 . S
H498 C490 0.930 1_455 S
H499 C491 0.929 . S
H500 C508 0.929 . S
H501 C510 0.930 . S
H502 C512 0.930 . S
H503 C515 0.929 . S
H504 C518 0.930 . S
H505 C520 0.960 . S
H506 C520 0.960 . S
H507 C520 0.960 . S
C508 H500 0.929 . S
C508 C509 1.377 . S
C508 C510 1.384 . S
C509 C508 1.377 . S
C509 C515 1.390 . S
C510 H501 0.930 . S
C510 C508 1.384 . S
C510 C511 1.372 1_455 S
C511 C510 1.372 1_655 S
C511 C512 1.400 . S
C511 C516 1.490 . S
C512 H502 0.930 . S
C512 C511 1.400 . S
C512 C515 1.386 1_655 S
H513 C529 0.930 . S
H514 C530 0.931 . S
C515 H503 0.929 . S
C515 C509 1.390 . S
C515 C512 1.386 1_455 S
C516 C511 1.490 . S
C516 C518 1.395 . S
C516 C519 1.403 . S
H517 C523 0.930 . S
C518 H504 0.930 . S
C518 C516 1.395 . S
C518 C521 1.403 . S
C519 C516 1.403 . S
C519 C520 1.524 . S
C519 C523 1.400 . S
C520 H505 0.960 . S
C520 H506 0.960 . S
C520 H507 0.960 . S
C520 C519 1.524 . S
C521 C518 1.403 . S
C521 C522 1.392 . S
C521 C525 1.495 . S
C522 C521 1.392 . S
C522 C523 1.385 . S
C522 C524 1.478 . S
C523 H517 0.930 . S
C523 C519 1.400 . S
C523 C522 1.385 . S
C524 C522 1.478 . S
C524 C526 1.381 1_545 S
C524 C530 1.383 . S
C525 C521 1.495 . S
C525 H531 0.959 . S
C525 H532 0.961 . S
C525 H533 0.960 . S
C526 C524 1.381 1_565 S
C526 C527 1.394 . S
C526 H534 0.930 . S
C527 C526 1.394 . S
C527 C528 1.383 . S
C527 H535 0.929 . S
C528 C527 1.383 . S
C528 C529 1.377 . S
C529 H513 0.930 . S
C529 C528 1.377 . S
C529 C530 1.379 1_565 S
C530 H514 0.931 . S
C530 C524 1.383 . S
C530 C529 1.379 1_545 S
H531 C525 0.959 . S
H532 C525 0.961 . S
H533 C525 0.960 . S
H534 C526 0.930 . S
H535 C527 0.929 . S
C113 C97 0.528 . S
C132 C39 0.514 . S
C149 C88 2.235 . S
C168 C18 2.234 . S
C185 C36 1.833 . S
C204 C70 1.800 . S
C221 C84 2.836 . S
C240 C50 2.832 . S
C257 C32 1.800 . S
C276 C102 1.790 . S
C293 C45 1.548 . S
C312 C91 1.525 . S
C329 C4 1.247 . S
C348 C42 1.263 . S
C365 C86 0.599 . S
C384 C82 0.540 . S
C401 C48 1.334 . S
C420 C26 1.319 . S
C437 C56 1.257 . S
C456 C94 1.295 . S
C473 C34 0.587 . S
C492 C30 0.511 . S
C509 C100 1.339 . S
C528 C78 1.321 . S
