# Generated by pormake.
# Topology mmt, (4)-cn, num edge types: 1
# Building blocks:
#     Node 0, Type 0, BuildingBlock: NAHDIM_clean_sbu_0, # of connection points: 4
#     Node 1, Type 0, BuildingBlock: NAHDIM_clean_sbu_0, # of connection points: 4
#     Node 2, Type 0, BuildingBlock: NAHDIM_clean_sbu_0, # of connection points: 4
#     Node 3, Type 0, BuildingBlock: NAHDIM_clean_sbu_0, # of connection points: 4
#     Node 4, Type 0, BuildingBlock: NAHDIM_clean_sbu_0, # of connection points: 4
#     Node 5, Type 0, BuildingBlock: NAHDIM_clean_sbu_0, # of connection points: 4
#     Node 6, Type 0, BuildingBlock: NAHDIM_clean_sbu_0, # of connection points: 4
#     Node 7, Type 0, BuildingBlock: NAHDIM_clean_sbu_0, # of connection points: 4
#     Edge 8, Type (0, 0), BuildingBlock: UVAHIK_clean_linker_0, # of connection points: 2
#     Edge 9, Type (0, 0), BuildingBlock: UVAHIK_clean_linker_0, # of connection points: 2
#     Edge 10, Type (0, 0), BuildingBlock: UVAHIK_clean_linker_0, # of connection points: 2
#     Edge 11, Type (0, 0), BuildingBlock: UVAHIK_clean_linker_0, # of connection points: 2
#     Edge 12, Type (0, 0), BuildingBlock: UVAHIK_clean_linker_0, # of connection points: 2
#     Edge 13, Type (0, 0), BuildingBlock: UVAHIK_clean_linker_0, # of connection points: 2
#     Edge 14, Type (0, 0), BuildingBlock: UVAHIK_clean_linker_0, # of connection points: 2
#     Edge 15, Type (0, 0), BuildingBlock: UVAHIK_clean_linker_0, # of connection points: 2
#     Edge 16, Type (0, 0), BuildingBlock: UVAHIK_clean_linker_0, # of connection points: 2
#     Edge 17, Type (0, 0), BuildingBlock: UVAHIK_clean_linker_0, # of connection points: 2
#     Edge 18, Type (0, 0), BuildingBlock: UVAHIK_clean_linker_0, # of connection points: 2
#     Edge 19, Type (0, 0), BuildingBlock: UVAHIK_clean_linker_0, # of connection points: 2
#     Edge 20, Type (0, 0), BuildingBlock: UVAHIK_clean_linker_0, # of connection points: 2
#     Edge 21, Type (0, 0), BuildingBlock: UVAHIK_clean_linker_0, # of connection points: 2
#     Edge 22, Type (0, 0), BuildingBlock: UVAHIK_clean_linker_0, # of connection points: 2
#     Edge 23, Type (0, 0), BuildingBlock: UVAHIK_clean_linker_0, # of connection points: 2
# Relax obj value: 0.080
# Max RMSD: 0.131
# Mean RMSD: 0.131
data_MOF--net-mmt--node1-NAHDIM_clean_sbu_0--edge1-UVAHIK_clean_linker_0
_symmetry_space_group_name_H-M    P1
_symmetry_Int_Tables_number       1
_symmetry_cell_setting            triclinic
loop_
_symmetry_equiv_pos_as_xyz
'x, y, z'
_cell_length_a     28.450624
_cell_length_b     48.649254
_cell_length_c     56.600738
_cell_angle_alpha  89.983745
_cell_angle_beta   89.987218
_cell_angle_gamma 89.976687
loop_
_atom_site_label
_atom_site_type_symbol
_atom_site_fract_x
_atom_site_fract_y
_atom_site_fract_z
_atom_type_partial_charge
C0 C 0.07367 0.54086 0.38213 0.0
O1 O 0.05027 0.55383 0.36551 0.0
O2 O 0.17469 0.58342 0.35112 0.0
Zn3 Zn 0.14791 0.54532 0.34813 0.0
O4 O 0.10077 0.54493 0.3216 0.0
C5 C 0.24005 0.51917 0.34922 0.0
O6 O 0.24887 0.53672 0.36628 0.0
O7 O 0.11656 0.53475 0.37864 0.0
C8 C 0.11377 0.54073 0.30041 0.0
O9 O 0.15856 0.53677 0.29592 0.0
C10 C 0.20664 0.59176 0.33716 0.0
O11 O 0.22227 0.57516 0.32063 0.0
O12 O 0.19938 0.51871 0.33996 0.0
C13 C 0.38835 0.93969 0.39183 0.0
O14 O 0.41149 0.92189 0.37879 0.0
O15 O 0.32062 0.89148 0.35637 0.0
Zn16 Zn 0.32653 0.93261 0.35385 0.0
O17 O 0.37371 0.94274 0.32878 0.0
C18 C 0.25136 0.93986 0.32335 0.0
O19 O 0.27832 0.9224 0.31193 0.0
O20 O 0.34836 0.948 0.38482 0.0
C21 C 0.37137 0.96615 0.31889 0.0
O22 O 0.33889 0.98363 0.32573 0.0
C23 C 0.34597 0.87509 0.3444 0.0
O24 O 0.37813 0.8851 0.33014 0.0
O25 O 0.26398 0.94786 0.34376 0.0
C26 C 0.58089 0.44557 0.11137 0.0
O27 O 0.56165 0.42663 0.1248 0.0
O28 O 0.67461 0.40393 0.14278 0.0
Zn29 Zn 0.65046 0.44236 0.14728 0.0
O30 O 0.60204 0.44199 0.17315 0.0
C31 C 0.74271 0.46788 0.14623 0.0
O32 O 0.74874 0.45277 0.12723 0.0
O33 O 0.62031 0.45569 0.11735 0.0
C34 C 0.61268 0.44697 0.19454 0.0
O35 O 0.65655 0.45242 0.20003 0.0
C36 C 0.70576 0.39434 0.1566 0.0
O37 O 0.72223 0.40997 0.17362 0.0
O38 O 0.70343 0.4672 0.15688 0.0
C39 C 0.87962 0.04767 0.1025 0.0
O40 O 0.90095 0.06607 0.11567 0.0
O41 O 0.81075 0.09202 0.1403 0.0
Zn42 Zn 0.81979 0.05095 0.14152 0.0
O43 O 0.87011 0.04096 0.16479 0.0
C44 C 0.72033 0.04511 0.15001 0.0
O45 O 0.71846 0.06893 0.1391 0.0
O46 O 0.84104 0.03752 0.10972 0.0
C47 C 0.86538 0.04342 0.18701 0.0
O48 O 0.82603 0.05345 0.19559 0.0
C49 C 0.83816 0.1093 0.14996 0.0
O50 O 0.87542 0.10051 0.16139 0.0
O51 O 0.75972 0.03303 0.15211 0.0
C52 C 0.86584 0.46425 0.60423 0.0
O53 O 0.89463 0.45637 0.62106 0.0
O54 O 0.79291 0.40544 0.6359 0.0
Zn55 Zn 0.8002 0.44644 0.63874 0.0
O56 O 0.84694 0.45637 0.66408 0.0
C57 C 0.72309 0.45041 0.66816 0.0
O58 O 0.74756 0.43012 0.6773 0.0
O59 O 0.82176 0.46237 0.60763 0.0
C60 C 0.8643 0.44006 0.6793 0.0
O61 O 0.8524 0.41397 0.67899 0.0
C62 C 0.8242 0.38909 0.62821 0.0
O63 O 0.865 0.39891 0.62139 0.0
O64 O 0.73815 0.46187 0.64944 0.0
C65 C 0.60376 0.04491 0.60343 0.0
O66 O 0.58241 0.06381 0.61608 0.0
O67 O 0.68038 0.09182 0.63679 0.0
Zn68 Zn 0.66779 0.05152 0.64073 0.0
O69 O 0.61915 0.04619 0.66622 0.0
C70 C 0.74122 0.04066 0.67175 0.0
O71 O 0.71693 0.05949 0.68308 0.0
O72 O 0.64324 0.03579 0.61041 0.0
C73 C 0.61886 0.02389 0.67793 0.0
O74 O 0.64919 0.0045 0.67257 0.0
C75 C 0.71869 0.09982 0.62752 0.0
O76 O 0.74903 0.08141 0.62005 0.0
O77 O 0.72755 0.03317 0.65137 0.0
C78 C 0.36026 0.54206 0.89814 0.0
O79 O 0.38527 0.55813 0.88435 0.0
O80 O 0.29548 0.59172 0.8625 0.0
Zn81 Zn 0.29907 0.55036 0.8601 0.0
O82 O 0.34732 0.53925 0.836 0.0
C83 C 0.20826 0.5505 0.83843 0.0
O84 O 0.21871 0.57663 0.83585 0.0
O85 O 0.31923 0.53512 0.89155 0.0
C86 C 0.34468 0.54607 0.81436 0.0
O87 O 0.3094 0.56138 0.80718 0.0
C88 C 0.32734 0.60772 0.85484 0.0
O89 O 0.3654 0.59727 0.84525 0.0
O90 O 0.23682 0.53494 0.84938 0.0
C91 C 0.11335 0.94889 0.89348 0.0
O92 O 0.09438 0.92928 0.88068 0.0
O93 O 0.1941 0.90718 0.85757 0.0
Zn94 Zn 0.17551 0.94704 0.855 0.0
O95 O 0.12332 0.95082 0.83142 0.0
C96 C 0.27131 0.96646 0.85252 0.0
O97 O 0.2774 0.94932 0.87021 0.0
O98 O 0.15095 0.96021 0.88623 0.0
C99 C 0.12869 0.9472 0.80935 0.0
O100 O 0.17028 0.94042 0.80113 0.0
C101 C 0.22471 0.89667 0.84392 0.0
O102 O 0.24459 0.91208 0.8277 0.0
O103 O 0.2304 0.96958 0.84395 0.0
C104 C 0.32567 0.5084 0.34415 0.0
C105 C 0.27856 0.50346 0.338 0.0
C106 C 0.36216 0.49684 0.33089 0.0
C107 C 0.38373 0.47407 0.27043 0.0
H108 H 0.503 0.44809 0.29491 0.0
C109 C 0.52985 0.43889 0.2076 0.0
C110 C 0.57555 0.44798 0.21279 0.0
C111 C 0.494 0.4414 0.2243 0.0
C112 C 0.46997 0.45546 0.28782 0.0
H113 H 0.2328 0.48081 0.31428 0.0
H114 H 0.29636 0.46053 0.29138 0.0
H115 H 0.43939 0.45956 0.32229 0.0
H116 H 0.61983 0.46609 0.23981 0.0
H117 H 0.55698 0.47115 0.26874 0.0
H118 H 0.41426 0.47095 0.23611 0.0
C119 C 0.30511 0.47377 0.30612 0.0
C120 C 0.43357 0.46195 0.30349 0.0
C121 C 0.26871 0.48531 0.31932 0.0
C122 C 0.58496 0.4589 0.23527 0.0
C123 C 0.54897 0.46162 0.25193 0.0
C124 C 0.42004 0.46775 0.25482 0.0
C125 C 0.35216 0.48012 0.31127 0.0
C126 C 0.39014 0.47145 0.29493 0.0
C127 C 0.50289 0.4533 0.24649 0.0
C128 C 0.46372 0.45851 0.26329 0.0
H129 H 0.33443 0.52224 0.35847 0.0
H130 H 0.39809 0.50219 0.33523 0.0
H131 H 0.35104 0.48191 0.26328 0.0
H132 H 0.52158 0.43008 0.19052 0.0
H133 H 0.45913 0.43426 0.2197 0.0
C134 C 0.90172 0.0398 0.22733 0.0
C135 C 0.9041 0.03502 0.20287 0.0
C136 C 0.9387 0.03175 0.24211 0.0
C137 C 0.0648 0.01245 0.2402 0.0
H138 H 0.03942 0.9773 0.30039 0.0
C139 C 0.20176 0.94653 0.28753 0.0
C140 C 0.2094 0.95151 0.31167 0.0
C141 C 0.16384 0.95855 0.27587 0.0
C142 C 0.04695 0.98739 0.28375 0.0
H143 H 0.94686 0.01777 0.17478 0.0
H144 H 0.01048 0.00332 0.20044 0.0
H145 H 0.97416 0.99528 0.27682 0.0
H146 H 0.18253 0.97246 0.34269 0.0
H147 H 0.11538 0.99325 0.32219 0.0
H148 H 0.13733 0.00377 0.24676 0.0
C149 C 0.98071 0.01383 0.20825 0.0
C150 C 0.00968 -0.00226 0.27028 0.0
C151 C 0.94401 0.02196 0.19352 0.0
C152 C 0.17758 0.9683 0.32406 0.0
C153 C 0.13915 0.98012 0.31239 0.0
C154 C 0.10184 0.00192 0.25353 0.0
C155 C 0.97869 0.01874 0.2327 0.0
C156 C 0.01816 0.00991 0.24812 0.0
C157 C 0.13241 0.97563 0.28811 0.0
C158 C 0.09322 0.98885 0.27521 0.0
H159 H 0.87145 0.04987 0.23506 0.0
H160 H 0.93621 0.03602 0.26085 0.0
H161 H 0.07271 0.02233 0.22352 0.0
H162 H 0.22554 0.93368 0.27745 0.0
H163 H 0.15905 0.95445 0.25721 0.0
C164 C 0.77641 0.4972 0.17826 0.0
C165 C 0.78268 0.48271 0.15702 0.0
C166 C 0.81486 0.50846 0.19009 0.0
C167 C 0.94148 0.49755 0.19699 0.0
H168 H 0.93355 0.56414 0.23444 0.0
C169 C 0.09249 0.53192 0.25816 0.0
C170 C 0.07869 0.53912 0.28119 0.0
C171 C 0.05903 0.52892 0.24028 0.0
C172 C 0.93623 0.54549 0.22408 0.0
H173 H 0.83398 0.46997 0.13085 0.0
H174 H 0.90121 0.48995 0.15143 0.0
H175 H 0.87014 0.55267 0.20711 0.0
H176 H 0.01909 0.54962 0.30336 0.0
H177 H 0.96075 0.54423 0.27221 0.0
H178 H 0.00701 0.49004 0.21434 0.0
C179 C 0.86655 0.49218 0.15912 0.0
C180 C 0.89996 0.53891 0.20844 0.0
C181 C 0.828 0.48087 0.14726 0.0
C182 C 0.03088 0.544 0.28581 0.0
C183 C -0.00253 0.54112 0.26791 0.0
C184 C 0.97781 0.50418 0.21256 0.0
C185 C 0.86051 0.50557 0.18093 0.0
C186 C 0.90166 0.51454 0.19512 0.0
C187 C 0.01111 0.5332 0.24503 0.0
C188 C 0.97507 0.52789 0.22666 0.0
H189 H 0.74196 0.49905 0.18626 0.0
H190 H 0.80895 0.51834 0.20697 0.0
H191 H 0.94365 0.47842 0.18726 0.0
H192 H 0.12908 0.52813 0.25399 0.0
H193 H 0.07062 0.52306 0.22276 0.0
C194 C 0.68089 0.00926 0.17482 0.0
C195 C 0.67855 0.03432 0.1625 0.0
C196 C 0.64345 0.00069 0.18898 0.0
C197 C 0.54689 0.02958 0.2235 0.0
H198 H 0.50611 0.9538 0.22894 0.0
C199 C 0.39764 -0.00217 0.28667 0.0
C200 C 0.4039 0.97337 0.29949 0.0
C201 C 0.42817 0.00465 0.26826 0.0
C202 C 0.51742 0.97501 0.22778 0.0
H203 H 0.63409 0.06936 0.15445 0.0
H204 H 0.56872 0.05432 0.17916 0.0
H205 H 0.56394 0.96637 0.19893 0.0
H206 H 0.44705 0.93682 0.30301 0.0
H207 H 0.50096 0.94902 0.27124 0.0
H208 H 0.50152 0.03821 0.25266 0.0
C209 C 0.59979 0.04149 0.17806 0.0
C210 C 0.55039 0.9822 0.21054 0.0
C211 C 0.63713 0.05001 0.1638 0.0
C212 C 0.44124 0.95581 0.29344 0.0
C213 C 0.47193 0.96271 0.2751 0.0
C214 C 0.51415 0.02238 0.24079 0.0
C215 C 0.60297 0.01704 0.19119 0.0
C216 C 0.5657 0.00954 0.20834 0.0
C217 C 0.46582 0.98725 0.26232 0.0
C218 C 0.49926 0.99498 0.24327 0.0
H219 H 0.71225 -0.00334 0.17415 0.0
H220 H 0.64707 0.98184 0.19901 0.0
H221 H 0.55861 0.05073 0.22252 0.0
H222 H 0.36898 0.0117 0.29075 0.0
H223 H 0.42201 0.02351 0.25856 0.0
C224 C 0.41599 0.51829 0.80485 0.0
C225 C 0.38179 0.53736 0.79768 0.0
C226 C 0.45168 0.5103 0.78944 0.0
C227 C 0.48544 0.50831 0.72635 0.0
H228 H 0.60965 0.49693 0.75284 0.0
C229 C 0.65381 0.48236 0.67142 0.0
C230 C 0.68101 0.46074 0.68066 0.0
C231 C 0.61581 0.49292 0.68429 0.0
C232 C 0.5751 0.49994 0.74522 0.0
H233 H 0.35799 0.56289 0.76862 0.0
H234 H 0.42109 0.54929 0.74176 0.0
H235 H 0.54658 0.51369 0.77802 0.0
H236 H 0.68882 0.43274 0.7103 0.0
H237 H 0.62311 0.45123 0.73262 0.0
H238 H 0.51468 0.4946 0.69342 0.0
C239 C 0.41982 0.54023 0.75922 0.0
C240 C 0.53889 0.50943 0.75965 0.0
C241 C 0.38381 0.54811 0.77465 0.0
C242 C 0.66883 0.44951 0.7027 0.0
C243 C 0.63131 0.46017 0.71557 0.0
C244 C 0.52194 0.49898 0.71182 0.0
C245 C 0.45437 0.52137 0.76652 0.0
C246 C 0.49339 0.5132 0.75054 0.0
C247 C 0.60484 0.4822 0.70668 0.0
C248 C 0.56684 0.4942 0.72127 0.0
H249 H 0.41521 0.50941 0.8224 0.0
H250 H 0.47706 0.49526 0.79547 0.0
H251 H 0.45074 0.51084 0.71881 0.0
H252 H 0.66227 0.49139 0.65445 0.0
H253 H 0.5959 0.50995 0.67708 0.0
C254 C 0.78728 0.02976 0.70794 0.0
C255 C 0.78154 0.02723 0.6834 0.0
C256 C 0.82449 0.01672 0.71936 0.0
C257 C 0.94329 0.99216 0.71126 0.0
H258 H 0.91891 0.95207 0.76924 0.0
C259 C 0.09343 0.94729 0.7687 0.0
C260 C 0.08865 0.95159 0.79314 0.0
C261 C 0.05572 0.9524 0.75345 0.0
C262 C 0.92637 0.96332 0.75315 0.0
H263 H 0.8105 0.0093 0.65148 0.0
H264 H 0.8767 0.98689 0.67157 0.0
H265 H 0.85326 0.96907 0.74573 0.0
H266 H 0.04041 0.96435 0.82076 0.0
H267 H 0.97537 0.97374 0.79429 0.0
H268 H 0.01642 0.98756 0.71921 0.0
C269 C 0.8519 -0.00119 0.68187 0.0
C270 C 0.88878 0.97292 0.73967 0.0
C271 C 0.81408 0.01155 0.67043 0.0
C272 C 0.04529 0.96073 0.80204 0.0
C273 C 0.00779 0.96591 0.78684 0.0
C274 C 0.98102 0.98276 0.7249 0.0
C275 C 0.85714 0.00114 0.70647 0.0
C276 C 0.8969 0.98798 0.71892 0.0
C277 C 0.01254 0.96192 0.76235 0.0
C278 C 0.97293 0.96885 0.74632 0.0
H279 H 0.76271 0.0416 0.71844 0.0
H280 H 0.82811 0.01913 0.7383 0.0
H281 H 0.9504 0.00385 0.69537 0.0
H282 H 0.12636 0.94015 0.76131 0.0
H283 H 0.06039 0.94888 0.7347 0.0
C284 C 0.15833 0.51042 0.82618 0.0
C285 C 0.16697 0.53888 0.82609 0.0
C286 C 0.12255 0.4993 0.81218 0.0
C287 C 0.0585 0.51451 0.75767 0.0
H288 H 0.97397 0.45642 0.77754 0.0
C289 C 0.90642 0.47902 0.69873 0.0
C290 C 0.89725 0.45069 0.69731 0.0
C291 C 0.93772 0.48927 0.7155 0.0
C292 C -0.0023 0.47242 0.77167 0.0
H293 H 0.14319 0.57811 0.81225 0.0
H294 H 0.08086 0.55873 0.78801 0.0
H295 H 0.03059 0.47542 0.80568 0.0
H296 H 0.91349 0.4109 0.71258 0.0
H297 H 0.96898 0.42882 0.74168 0.0
H298 H 0.0265 0.5114 0.72367 0.0
C299 C 0.10219 0.54497 0.79858 0.0
C300 C 0.02999 0.48333 0.78779 0.0
C301 C 0.13777 0.55608 0.81259 0.0
C302 C 0.91981 0.43284 0.71322 0.0
C303 C 0.95137 0.44313 0.72999 0.0
C304 C 0.02651 0.50356 0.74158 0.0
C305 C 0.09491 0.51643 0.7978 0.0
C306 C 0.06047 0.50463 0.78097 0.0
C307 C 0.9609 0.47146 0.7312 0.0
C308 C 0.99548 0.48253 0.7484 0.0
H309 H 0.18016 0.49662 0.83643 0.0
H310 H 0.11783 0.47721 0.81187 0.0
H311 H 0.08226 0.53048 0.75174 0.0
H312 H 0.88935 0.49339 0.68688 0.0
H313 H 0.94354 0.51126 0.71623 0.0
C314 C 0.35729 0.96695 0.84332 0.0
C315 C 0.31218 0.978 0.83984 0.0
C316 C 0.39446 0.97464 0.82859 0.0
C317 C 0.43511 0.02592 0.78531 0.0
H318 H 0.49654 0.96374 0.75558 0.0
C319 C 0.54708 0.03744 0.70077 0.0
C320 C 0.58628 0.02019 0.69799 0.0
C321 C 0.51627 0.0337 0.71975 0.0
C322 C 0.48054 0.98141 0.76398 0.0
H323 H 0.27134 0.00712 0.8193 0.0
H324 H 0.33647 0.02079 0.79381 0.0
H325 H 0.44001 0.95592 0.78707 0.0
H326 H 0.62478 0.98604 0.71323 0.0
H327 H 0.57207 0.98006 0.74665 0.0
H328 H 0.47575 0.05147 0.76231 0.0
C329 C 0.34298 0.00609 0.80782 0.0
C330 C 0.44805 0.97689 0.78203 0.0
C331 C 0.30568 -0.00184 0.82234 0.0
C332 C 0.59451 -0.00056 0.71473 0.0
C333 C 0.56413 0.99595 0.73386 0.0
C334 C 0.46811 0.0305 0.76743 0.0
C335 C 0.38734 0.99378 0.81035 0.0
C336 C 0.42466 -0.00095 0.79269 0.0
C337 C 0.52435 0.01286 0.73652 0.0
C338 C 0.49085 0.00826 0.75634 0.0
H339 H 0.36345 0.95138 0.85664 0.0
H340 H 0.42849 0.96505 0.83104 0.0
H341 H 0.4177 0.04337 0.79337 0.0
H342 H 0.53978 0.05356 0.68809 0.0
H343 H 0.48563 0.04683 0.72097 0.0
C344 C 0.00211 0.53828 0.40783 0.0
C345 C 0.05058 0.53389 0.40476 0.0
C346 C 0.98039 0.53197 0.42931 0.0
C347 C 0.00563 0.5224 0.49243 0.0
H348 H 0.88811 0.48205 0.49343 0.0
C349 C 0.93368 0.47377 0.57749 0.0
C350 C 0.88495 0.4742 0.58148 0.0
C351 C 0.95221 0.48249 0.55594 0.0
C352 C 0.92053 0.49371 0.49347 0.0
H353 H 0.11423 0.51936 0.4218 0.0
H354 H 0.07629 0.5084 0.45927 0.0
H355 H 0.92366 0.49445 0.45565 0.0
H356 H 0.81739 0.48441 0.56604 0.0
H357 H 0.84991 0.5001 0.52842 0.0
H358 H 0.00263 0.52179 0.53015 0.0
C359 C 0.05518 0.51689 0.44511 0.0
C360 C 0.94094 0.50074 0.47182 0.0
C361 C 0.07684 0.52302 0.4236 0.0
C362 C 0.85511 0.48376 0.56348 0.0
C363 C 0.87371 0.49261 0.54189 0.0
C364 C 0.98514 0.51552 0.51404 0.0
C365 C 0.00676 0.52134 0.4482 0.0
C366 C 0.98398 0.51487 0.4711 0.0
C367 C 0.92251 0.49201 0.53786 0.0
C368 C 0.94265 0.50078 0.51483 0.0
H369 H 0.98088 0.54662 0.39366 0.0
H370 H 0.94308 0.53579 0.43125 0.0
H371 H 0.0384 0.53373 0.49241 0.0
H372 H 0.95769 0.46639 0.59092 0.0
H373 H 0.98986 0.48127 0.55332 0.0
C374 C 0.3856 0.96993 0.42769 0.0
C375 C 0.40915 0.95013 0.41402 0.0
C376 C 0.40592 0.98006 0.44842 0.0
C377 C 0.49558 0.96381 0.49348 0.0
H378 H 0.49083 0.04205 0.50636 0.0
C379 C 0.60411 0.01395 0.56802 0.0
C380 C 0.58164 0.03421 0.58165 0.0
C381 C 0.58275 0.00368 0.54762 0.0
C382 C 0.49201 0.02011 0.50315 0.0
H383 H 0.4724 0.92535 0.41144 0.0
H384 H 0.50787 0.94314 0.44744 0.0
H385 H 0.45334 0.02395 0.47088 0.0
H386 H 0.51915 0.05959 0.58454 0.0
H387 H 0.48179 0.04149 0.54912 0.0
H388 H 0.53426 0.95996 0.52572 0.0
C389 C 0.4735 0.95063 0.4423 0.0
C390 C 0.4705 0.00975 0.48284 0.0
C391 C 0.45325 0.94055 0.42159 0.0
C392 C 0.53748 0.04404 0.57441 0.0
C393 C 0.51615 0.03378 0.55402 0.0
C394 C 0.51705 0.97417 0.51379 0.0
C395 C 0.45014 0.97054 0.45592 0.0
C396 C 0.47215 0.98149 0.47775 0.0
C397 C 0.53849 0.01346 0.54042 0.0
C398 C 0.5156 0.00245 0.51884 0.0
H399 H 0.35152 0.97769 0.42236 0.0
H400 H 0.38681 0.99517 0.45868 0.0
H401 H 0.49686 0.94189 0.49023 0.0
H402 H 0.63821 0.006 0.57309 0.0
H403 H 0.60115 0.98828 0.53735 0.0
C404 C 0.5776 0.47503 0.0751 0.0
C405 C 0.5566 0.45527 0.08981 0.0
C406 C 0.55441 0.4844 0.0549 0.0
C407 C 0.46027 0.46616 0.01282 0.0
H408 H 0.46631 0.5436 0.99685 0.0
C409 C 0.3552 0.51377 0.93519 0.0
C410 C 0.3801 0.53225 0.92077 0.0
C411 C 0.37471 0.50443 0.95642 0.0
C412 C 0.46458 0.52188 0.00098 0.0
H413 H 0.49475 0.42984 0.09484 0.0
H414 H 0.45409 0.44644 0.05972 0.0
H415 H 0.50445 0.5271 0.03269 0.0
H416 H 0.44492 0.55545 0.91736 0.0
H417 H 0.47881 0.53911 0.95419 0.0
H418 H 0.42047 0.461 0.98101 0.0
C419 C 0.48875 0.45443 0.06364 0.0
C420 C 0.4865 0.51242 0.02149 0.0
C421 C 0.51198 0.44502 0.08384 0.0
C422 C 0.42471 0.54127 0.92806 0.0
C423 C 0.44407 0.53204 0.94926 0.0
C424 C 0.43824 0.47566 0.99231 0.0
C425 C 0.50965 0.47428 0.04897 0.0
C426 C 0.48499 0.48441 0.02754 0.0
C427 C 0.41934 0.51351 0.96368 0.0
C428 C 0.44057 0.50358 0.98606 0.0
H429 H 0.61204 0.48326 0.07914 0.0
H430 H 0.57181 0.49939 0.04377 0.0
H431 H 0.4589 0.44441 0.01684 0.0
H432 H 0.32073 0.50645 0.93006 0.0
H433 H 0.35466 0.49032 0.96727 0.0
C434 C 0.10929 0.9798 0.92886 0.0
C435 C 0.09004 0.95833 0.91538 0.0
C436 C 0.08628 0.98921 0.94913 0.0
C437 C 0.96954 0.99114 0.97742 0.0
H438 H 0.0407 0.00855 0.03388 0.0
C439 C 0.88136 0.01688 0.06693 0.0
C440 C 0.90167 0.03811 0.08031 0.0
C441 C 0.90367 0.00716 0.04656 0.0
C442 C 0.02037 0.00408 0.01817 0.0
H443 H 0.03182 0.92966 0.91277 0.0
H444 H 0.992 0.94593 0.9482 0.0
H445 H 0.08147 0.99134 -0.00098 0.0
H446 H 0.96075 0.06622 0.08249 0.0
H447 H -0.0008 0.04951 0.0469 0.0
H448 H 0.90844 0.00394 0.99658 0.0
C449 C 0.02454 0.95573 0.94294 0.0
C450 C 0.04375 0.9942 -0.0018 0.0
C451 C 0.04755 0.9463 0.92271 0.0
C452 C 0.94427 0.04972 0.07268 0.0
C453 C 0.96651 0.04003 0.05235 0.0
C454 C 0.94615 0.00104 -0.0026 0.0
C455 C 0.04352 0.97737 0.95631 0.0
C456 C 0.01861 0.98767 0.97759 0.0
C457 C 0.94672 0.01848 0.03917 0.0
C458 C 0.97134 0.00769 0.01797 0.0
H459 H 0.14191 0.98955 0.92366 0.0
H460 H 0.10155 0.00611 0.95892 0.0
H461 H 0.94926 0.98666 0.9617 0.0
H462 H 0.8486 0.00747 0.07237 0.0
H463 H 0.88772 0.99037 0.03689 0.0
C464 C 0.20677 0.63841 0.35587 0.0
C465 C 0.22556 0.61995 0.33927 0.0
C466 C 0.22385 0.66526 0.35742 0.0
C467 C 0.28659 0.71764 0.32256 0.0
H468 H 0.30027 0.75386 0.3832 0.0
C469 C 0.3625 0.82706 0.33081 0.0
C470 C 0.33752 0.84513 0.34556 0.0
C471 C 0.35263 0.79893 0.33098 0.0
C472 C 0.29636 0.74405 0.36614 0.0
H473 H 0.2777 0.61503 0.3116 0.0
H474 H 0.30785 0.66178 0.31451 0.0
H475 H 0.27607 0.70577 0.38172 0.0
H476 H 0.28339 0.84775 0.3725 0.0
H477 H 0.26605 0.79872 0.37268 0.0
H478 H 0.3065 0.75596 0.30697 0.0
C479 C 0.27939 0.65563 0.32607 0.0
C480 C 0.28244 0.71654 0.36528 0.0
C481 C 0.26225 0.62879 0.32448 0.0
C482 C 0.30326 0.83439 0.36089 0.0
C483 C 0.29351 0.80627 0.36111 0.0
C484 C 0.3006 0.74512 0.32342 0.0
C485 C 0.26017 0.67423 0.34244 0.0
C486 C 0.27701 0.70309 0.34347 0.0
C487 C 0.31771 0.78828 0.34596 0.0
C488 C 0.30525 0.75869 0.3452 0.0
H489 H 0.17842 0.63225 0.3675 0.0
H490 H 0.20784 0.67917 0.37001 0.0
H491 H 0.28203 0.70803 0.30545 0.0
H492 H 0.38924 0.83466 0.31885 0.0
H493 H 0.37226 0.78552 0.31932 0.0
C494 C 0.85344 0.15799 0.16211 0.0
C495 C 0.82731 0.13898 0.14883 0.0
C496 C 0.84197 0.18592 0.16167 0.0
C497 C 0.74328 0.23273 0.14802 0.0
H498 H 0.84005 0.28884 0.14936 0.0
C499 C 0.70058 0.34789 0.13776 0.0
C500 C 0.7222 0.36567 0.15403 0.0
C501 C 0.71486 0.3205 0.13601 0.0
C502 C 0.81268 0.27337 0.14913 0.0
H503 H 0.76938 0.13446 0.1242 0.0
H504 H 0.75003 0.18316 0.12306 0.0
H505 H 0.86248 0.24041 0.14813 0.0
H506 H 0.77645 0.36883 0.18083 0.0
H507 H 0.80137 0.32098 0.17772 0.0
H508 H 0.69354 0.2657 0.14893 0.0
C509 C 0.77874 0.17646 0.13423 0.0
C510 C 0.82548 0.24564 0.14848 0.0
C511 C 0.79001 0.14854 0.13478 0.0
C512 C 0.75902 0.35564 0.16816 0.0
C513 C 0.7735 0.32828 0.16629 0.0
C514 C 0.73052 0.26043 0.14853 0.0
C515 C 0.80428 0.19546 0.14784 0.0
C516 C 0.79091 0.22499 0.14801 0.0
C517 C 0.75125 0.31037 0.15036 0.0
C518 C 0.76506 0.28103 0.14918 0.0
H519 H 0.88229 0.15126 0.17318 0.0
H520 H 0.862 0.19993 0.1726 0.0
H521 H 0.71574 0.21738 0.14811 0.0
H522 H 0.67219 0.355 0.12657 0.0
H523 H 0.69745 0.30723 0.12338 0.0
C524 C 0.77382 0.13836 0.61784 0.0
C525 C 0.72987 0.12946 0.62622 0.0
C526 C 0.78503 0.16633 0.61754 0.0
C527 C 0.75189 0.23205 0.64536 0.0
H528 H 0.81784 0.26467 0.59234 0.0
C529 C 0.771 0.34898 0.635 0.0
C530 C 0.8147 0.35923 0.62747 0.0
C531 C 0.76189 0.32082 0.63462 0.0
C532 C 0.7999 0.25578 0.60739 0.0
H533 H 0.66286 0.14297 0.6404 0.0
H534 H 0.68221 0.19171 0.63959 0.0
H535 H 0.79919 0.21568 0.59181 0.0
H536 H 0.88308 0.3479 0.61356 0.0
H537 H 0.86719 0.29856 0.61307 0.0
H538 H 0.75241 0.27209 0.66093 0.0
C539 C 0.70832 0.17706 0.63363 0.0
C540 C 0.7892 0.22774 0.60708 0.0
C541 C 0.69713 0.14913 0.63395 0.0
C542 C 0.84903 0.34067 0.61944 0.0
C543 C 0.83986 0.31243 0.61904 0.0
C544 C 0.76254 0.26004 0.64567 0.0
C545 C 0.75253 0.18597 0.62561 0.0
C546 C 0.76478 0.21562 0.62601 0.0
C547 C 0.79624 0.30221 0.62673 0.0
C548 C 0.78637 0.27226 0.62662 0.0
H549 H 0.79988 0.12372 0.61181 0.0
H550 H 0.81955 0.17251 0.61147 0.0
H551 H 0.73389 0.22323 0.66043 0.0
H552 H 0.74369 0.36271 0.64122 0.0
H553 H 0.72768 0.31364 0.64031 0.0
C554 C 0.28171 0.64916 0.86757 0.0
C555 C 0.32054 0.63782 0.8557 0.0
C556 C 0.27419 0.67753 0.86753 0.0
C557 C 0.29929 0.73916 0.8328 0.0
H558 H 0.26186 0.77827 0.88946 0.0
C559 C 0.2762 0.85678 0.83353 0.0
C560 C 0.23792 0.86742 0.84627 0.0
C561 C 0.28849 0.82909 0.83555 0.0
C562 C 0.27177 0.7676 0.87342 0.0
H563 H 0.38233 0.6474 0.83477 0.0
H564 H 0.36899 0.69695 0.83463 0.0
H565 H 0.27946 0.72922 0.8916 0.0
H566 H 0.18251 0.85737 0.87115 0.0
H567 H 0.20325 0.80892 0.87424 0.0
H568 H 0.29066 0.77722 0.81446 0.0
C569 C 0.34431 0.68383 0.84387 0.0
C570 C 0.28197 0.73954 0.87468 0.0
C571 C 0.35205 0.65548 0.84406 0.0
C572 C 0.21232 0.84982 0.86117 0.0
C573 C 0.22441 0.82207 0.86305 0.0
C574 C 0.28878 0.76714 0.83149 0.0
C575 C 0.30514 0.69511 0.85547 0.0
C576 C 0.29571 0.72504 0.85437 0.0
C577 C 0.26257 0.81135 0.85021 0.0
C578 C 0.27475 0.7817 0.85177 0.0
H579 H 0.2568 0.63611 0.87672 0.0
H580 H 0.24347 0.68564 0.87644 0.0
H581 H 0.30912 0.7284 0.81678 0.0
H582 H 0.29688 0.86986 0.82205 0.0
H583 H 0.31856 0.82164 0.82571 0.0
loop_
_geom_bond_atom_site_label_1
_geom_bond_atom_site_label_2
_geom_bond_distance
_geom_bond_site_symmetry_2
_ccdc_geom_bond_type
C0 O1 1.160 . S
C0 O7 1.185 . S
O1 C0 1.160 . S
O2 Zn3 1.899 . S
O2 C10 1.284 . S
Zn3 O2 1.899 . S
Zn3 O4 2.032 . S
Zn3 O7 2.086 . S
Zn3 O12 1.977 . S
O4 Zn3 2.032 . S
O4 C8 1.278 . S
C5 O6 1.203 . S
C5 O12 1.267 . S
O6 C5 1.203 . S
O7 C0 1.185 . S
O7 Zn3 2.086 . S
C8 O4 1.278 . S
C8 O9 1.211 . S
O9 C8 1.211 . S
C10 O2 1.284 . S
C10 O11 1.273 . S
O11 C10 1.273 . S
O12 Zn3 1.977 . S
O12 C5 1.267 . S
C13 O14 1.160 . S
C13 O20 1.185 . S
O14 C13 1.160 . S
O15 Zn16 1.899 . S
O15 C23 1.284 . S
Zn16 O15 1.899 . S
Zn16 O17 2.032 . S
Zn16 O20 2.086 . S
Zn16 O25 1.977 . S
O17 Zn16 2.032 . S
O17 C21 1.278 . S
C18 O19 1.203 . S
C18 O25 1.267 . S
O19 C18 1.203 . S
O20 C13 1.185 . S
O20 Zn16 2.086 . S
C21 O17 1.278 . S
C21 O22 1.211 . S
O22 C21 1.211 . S
C23 O15 1.284 . S
C23 O24 1.273 . S
O24 C23 1.273 . S
O25 Zn16 1.977 . S
O25 C18 1.267 . S
C26 O27 1.160 . S
C26 O33 1.185 . S
O27 C26 1.160 . S
O28 Zn29 1.899 . S
O28 C36 1.284 . S
Zn29 O28 1.899 . S
Zn29 O30 2.032 . S
Zn29 O33 2.086 . S
Zn29 O38 1.977 . S
O30 Zn29 2.032 . S
O30 C34 1.278 . S
C31 O32 1.203 . S
C31 O38 1.267 . S
O32 C31 1.203 . S
O33 C26 1.185 . S
O33 Zn29 2.086 . S
C34 O30 1.278 . S
C34 O35 1.211 . S
O35 C34 1.211 . S
C36 O28 1.284 . S
C36 O37 1.273 . S
O37 C36 1.273 . S
O38 Zn29 1.977 . S
O38 C31 1.267 . S
C39 O40 1.160 . S
C39 O46 1.185 . S
O40 C39 1.160 . S
O41 Zn42 1.899 . S
O41 C49 1.284 . S
Zn42 O41 1.899 . S
Zn42 O43 2.032 . S
Zn42 O46 2.086 . S
Zn42 O51 1.977 . S
O43 Zn42 2.032 . S
O43 C47 1.278 . S
C44 O45 1.203 . S
C44 O51 1.267 . S
O45 C44 1.203 . S
O46 C39 1.185 . S
O46 Zn42 2.086 . S
C47 O43 1.278 . S
C47 O48 1.211 . S
O48 C47 1.211 . S
C49 O41 1.284 . S
C49 O50 1.273 . S
O50 C49 1.273 . S
O51 Zn42 1.977 . S
O51 C44 1.267 . S
C52 O53 1.160 . S
C52 O59 1.185 . S
O53 C52 1.160 . S
O54 Zn55 1.899 . S
O54 C62 1.284 . S
Zn55 O54 1.899 . S
Zn55 O56 2.032 . S
Zn55 O59 2.086 . S
Zn55 O64 1.977 . S
O56 Zn55 2.032 . S
O56 C60 1.278 . S
C57 O58 1.203 . S
C57 O64 1.267 . S
O58 C57 1.203 . S
O59 C52 1.185 . S
O59 Zn55 2.086 . S
C60 O56 1.278 . S
C60 O61 1.211 . S
O61 C60 1.211 . S
C62 O54 1.284 . S
C62 O63 1.273 . S
O63 C62 1.273 . S
O64 Zn55 1.977 . S
O64 C57 1.267 . S
C65 O66 1.160 . S
C65 O72 1.185 . S
O66 C65 1.160 . S
O67 Zn68 1.899 . S
O67 C75 1.284 . S
Zn68 O67 1.899 . S
Zn68 O69 2.032 . S
Zn68 O72 2.086 . S
Zn68 O77 1.977 . S
O69 Zn68 2.032 . S
O69 C73 1.278 . S
C70 O71 1.203 . S
C70 O77 1.267 . S
O71 C70 1.203 . S
O72 C65 1.185 . S
O72 Zn68 2.086 . S
C73 O69 1.278 . S
C73 O74 1.211 . S
O74 C73 1.211 . S
C75 O67 1.284 . S
C75 O76 1.273 . S
O76 C75 1.273 . S
O77 Zn68 1.977 . S
O77 C70 1.267 . S
C78 O79 1.160 . S
C78 O85 1.185 . S
O79 C78 1.160 . S
O80 Zn81 1.899 . S
O80 C88 1.284 . S
Zn81 O80 1.899 . S
Zn81 O82 2.032 . S
Zn81 O85 2.086 . S
Zn81 O90 1.977 . S
O82 Zn81 2.032 . S
O82 C86 1.278 . S
C83 O84 1.203 . S
C83 O90 1.267 . S
O84 C83 1.203 . S
O85 C78 1.185 . S
O85 Zn81 2.086 . S
C86 O82 1.278 . S
C86 O87 1.211 . S
O87 C86 1.211 . S
C88 O80 1.284 . S
C88 O89 1.273 . S
O89 C88 1.273 . S
O90 Zn81 1.977 . S
O90 C83 1.267 . S
C91 O92 1.160 . S
C91 O98 1.185 . S
O92 C91 1.160 . S
O93 Zn94 1.899 . S
O93 C101 1.284 . S
Zn94 O93 1.899 . S
Zn94 O95 2.032 . S
Zn94 O98 2.086 . S
Zn94 O103 1.977 . S
O95 Zn94 2.032 . S
O95 C99 1.278 . S
C96 O97 1.203 . S
C96 O103 1.267 . S
O97 C96 1.203 . S
O98 C91 1.185 . S
O98 Zn94 2.086 . S
C99 O95 1.278 . S
C99 O100 1.211 . S
O100 C99 1.211 . S
C101 O93 1.284 . S
C101 O102 1.273 . S
O102 C101 1.273 . S
O103 Zn94 1.977 . S
O103 C96 1.267 . S
C104 C105 1.349 . S
C104 C106 1.327 . S
C104 H129 0.950 . S
C105 C104 1.349 . S
C105 C121 1.349 . S
C106 C104 1.327 . S
C106 C125 1.429 . S
C106 H130 0.950 . S
C107 C124 1.574 . S
C107 C126 1.368 . S
C107 H131 0.949 . S
H108 C112 0.949 . S
C109 C110 1.349 . S
C109 C111 1.327 . S
C109 H132 0.950 . S
C110 C109 1.349 . S
C110 C122 1.349 . S
C111 C109 1.327 . S
C111 C127 1.429 . S
C111 H133 0.950 . S
C112 H108 0.949 . S
C112 C120 1.574 . S
C112 C128 1.368 . S
H113 C121 0.950 . S
H114 C119 0.950 . S
H115 C120 0.949 . S
H116 C122 0.950 . S
H117 C123 0.950 . S
H118 C124 0.949 . S
C119 H114 0.950 . S
C119 C121 1.327 . S
C119 C125 1.429 . S
C120 C112 1.574 . S
C120 H115 0.949 . S
C120 C126 1.368 . S
C121 C105 1.349 . S
C121 H113 0.950 . S
C121 C119 1.327 . S
C122 C110 1.349 . S
C122 H116 0.950 . S
C122 C123 1.327 . S
C123 H117 0.950 . S
C123 C122 1.327 . S
C123 C127 1.429 . S
C124 C107 1.574 . S
C124 H118 0.949 . S
C124 C128 1.368 . S
C125 C106 1.429 . S
C125 C119 1.429 . S
C125 C126 1.523 . S
C126 C107 1.368 . S
C126 C120 1.368 . S
C126 C125 1.523 . S
C127 C111 1.429 . S
C127 C123 1.429 . S
C127 C128 1.523 . S
C128 C112 1.368 . S
C128 C124 1.368 . S
C128 C127 1.523 . S
H129 C104 0.950 . S
H130 C106 0.950 . S
H131 C107 0.949 . S
H132 C109 0.950 . S
H133 C111 0.950 . S
C134 C135 1.349 . S
C134 C136 1.327 . S
C134 H159 0.950 . S
C135 C134 1.349 . S
C135 C151 1.356 . S
C136 C134 1.327 . S
C136 C155 1.429 1_655 S
C136 H160 0.950 . S
C137 C154 1.574 1_545 S
C137 C156 1.368 . S
C137 H161 0.949 . S
H138 C142 0.949 . S
C139 C140 1.349 . S
C139 C141 1.327 . S
C139 H162 0.950 . S
C140 C139 1.349 . S
C140 C152 1.349 . S
C141 C139 1.327 . S
C141 C157 1.429 . S
C141 H163 0.950 . S
C142 H138 0.949 . S
C142 C150 1.574 . S
C142 C158 1.360 1_545 S
H143 C151 0.949 1_455 S
H144 C149 0.950 . S
H145 C150 0.949 . S
H146 C152 0.950 . S
H147 C153 0.950 1_545 S
H148 C154 0.949 . S
C149 H144 0.950 . S
C149 C151 1.321 1_455 S
C149 C155 1.429 . S
C150 C142 1.574 . S
C150 H145 0.949 . S
C150 C156 1.368 . S
C151 C135 1.356 . S
C151 H143 0.949 1_655 S
C151 C149 1.321 1_655 S
C152 C140 1.349 . S
C152 H146 0.950 . S
C152 C153 1.327 . S
C153 H147 0.950 1_565 S
C153 C152 1.327 . S
C153 C157 1.429 . S
C154 C137 1.574 1_565 S
C154 H148 0.949 . S
C154 C158 1.372 . S
C155 C136 1.429 1_455 S
C155 C149 1.429 . S
C155 C156 1.523 . S
C156 C137 1.368 . S
C156 C150 1.368 . S
C156 C155 1.523 . S
C157 C141 1.429 . S
C157 C153 1.429 . S
C157 C158 1.529 . S
C158 C142 1.360 1_565 S
C158 C154 1.372 . S
C158 C157 1.529 . S
H159 C134 0.950 . S
H160 C136 0.950 . S
H161 C137 0.949 . S
H162 C139 0.950 . S
H163 C141 0.950 . S
C164 C165 1.349 . S
C164 C166 1.327 . S
C164 H189 0.950 . S
C165 C164 1.349 . S
C165 C181 1.349 . S
C166 C164 1.327 . S
C166 C185 1.429 . S
C166 H190 0.950 . S
C167 C184 1.574 . S
C167 C186 1.368 . S
C167 H191 0.949 . S
H168 C172 0.949 . S
C169 C170 1.349 . S
C169 C171 1.327 . S
C169 H192 0.950 . S
C170 C169 1.349 . S
C170 C182 1.349 1_455 S
C171 C169 1.327 . S
C171 C187 1.429 1_455 S
C171 H193 0.950 . S
C172 H168 0.949 . S
C172 C180 1.574 . S
C172 C188 1.368 . S
H173 C181 0.950 . S
H174 C179 0.950 . S
H175 C180 0.949 . S
H176 C182 0.950 . S
H177 C183 0.950 . S
H178 C184 0.949 . S
C179 H174 0.950 . S
C179 C181 1.327 . S
C179 C185 1.429 . S
C180 C172 1.574 . S
C180 H175 0.949 . S
C180 C186 1.368 . S
C181 C165 1.349 . S
C181 H173 0.950 . S
C181 C179 1.327 . S
C182 C170 1.349 1_655 S
C182 H176 0.950 . S
C182 C183 1.327 . S
C183 H177 0.950 . S
C183 C182 1.327 . S
C183 C187 1.429 . S
C184 C167 1.574 . S
C184 H178 0.949 . S
C184 C188 1.368 . S
C185 C166 1.429 . S
C185 C179 1.429 . S
C185 C186 1.523 . S
C186 C167 1.368 . S
C186 C180 1.368 . S
C186 C185 1.523 . S
C187 C171 1.429 1_655 S
C187 C183 1.429 . S
C187 C188 1.523 . S
C188 C172 1.368 . S
C188 C184 1.368 . S
C188 C187 1.523 . S
H189 C164 0.950 . S
H190 C166 0.950 . S
H191 C167 0.949 . S
H192 C169 0.950 . S
H193 C171 0.950 . S
C194 C195 1.349 . S
C194 C196 1.327 1_545 S
C194 H219 0.950 1_545 S
C195 C194 1.349 . S
C195 C211 1.349 . S
C196 C194 1.327 1_565 S
C196 C215 1.429 1_565 S
C196 H220 0.950 . S
C197 C214 1.574 . S
C197 C216 1.381 . S
C197 H221 0.949 . S
H198 C202 0.949 . S
C199 C200 1.349 . S
C199 C201 1.327 . S
C199 H222 0.950 . S
C200 C199 1.349 . S
C200 C212 1.349 . S
C201 C199 1.327 . S
C201 C217 1.429 . S
C201 H223 0.950 1_565 S
C202 H198 0.949 . S
C202 C210 1.574 . S
C202 C218 1.368 . S
H203 C211 0.950 . S
H204 C209 0.950 . S
H205 C210 0.949 . S
H206 C212 0.950 . S
H207 C213 0.950 . S
H208 C214 0.949 . S
C209 H204 0.950 . S
C209 C211 1.327 . S
C209 C215 1.429 . S
C210 C202 1.574 . S
C210 H205 0.949 . S
C210 C216 1.352 1_565 S
C211 C195 1.349 . S
C211 H203 0.950 . S
C211 C209 1.327 . S
C212 C200 1.349 . S
C212 H206 0.950 . S
C212 C213 1.327 . S
C213 H207 0.950 . S
C213 C212 1.327 . S
C213 C217 1.429 . S
C214 C197 1.574 . S
C214 H208 0.949 . S
C214 C218 1.368 1_545 S
C215 C196 1.429 1_545 S
C215 C209 1.429 . S
C215 C216 1.529 . S
C216 C197 1.381 . S
C216 C210 1.352 1_545 S
C216 C215 1.529 . S
C217 C201 1.429 . S
C217 C213 1.429 . S
C217 C218 1.523 . S
C218 C202 1.368 . S
C218 C214 1.368 1_565 S
C218 C217 1.523 . S
H219 C194 0.950 1_565 S
H220 C196 0.950 . S
H221 C197 0.949 . S
H222 C199 0.950 . S
H223 C201 0.950 1_545 S
C224 C225 1.349 . S
C224 C226 1.327 . S
C224 H249 0.950 . S
C225 C224 1.349 . S
C225 C241 1.349 . S
C226 C224 1.327 . S
C226 C245 1.429 . S
C226 H250 0.950 . S
C227 C244 1.574 . S
C227 C246 1.368 . S
C227 H251 0.949 . S
H228 C232 0.949 . S
C229 C230 1.349 . S
C229 C231 1.327 . S
C229 H252 0.950 . S
C230 C229 1.349 . S
C230 C242 1.349 . S
C231 C229 1.327 . S
C231 C247 1.429 . S
C231 H253 0.950 . S
C232 H228 0.949 . S
C232 C240 1.574 . S
C232 C248 1.368 . S
H233 C241 0.950 . S
H234 C239 0.950 . S
H235 C240 0.949 . S
H236 C242 0.950 . S
H237 C243 0.950 . S
H238 C244 0.949 . S
C239 H234 0.950 . S
C239 C241 1.327 . S
C239 C245 1.429 . S
C240 C232 1.574 . S
C240 H235 0.949 . S
C240 C246 1.368 . S
C241 C225 1.349 . S
C241 H233 0.950 . S
C241 C239 1.327 . S
C242 C230 1.349 . S
C242 H236 0.950 . S
C242 C243 1.327 . S
C243 H237 0.950 . S
C243 C242 1.327 . S
C243 C247 1.429 . S
C244 C227 1.574 . S
C244 H238 0.949 . S
C244 C248 1.368 . S
C245 C226 1.429 . S
C245 C239 1.429 . S
C245 C246 1.523 . S
C246 C227 1.368 . S
C246 C240 1.368 . S
C246 C245 1.523 . S
C247 C231 1.429 . S
C247 C243 1.429 . S
C247 C248 1.523 . S
C248 C232 1.368 . S
C248 C244 1.368 . S
C248 C247 1.523 . S
H249 C224 0.950 . S
H250 C226 0.950 . S
H251 C227 0.949 . S
H252 C229 0.950 . S
H253 C231 0.950 . S
C254 C255 1.349 . S
C254 C256 1.327 . S
C254 H279 0.950 . S
C255 C254 1.349 . S
C255 C271 1.349 . S
C256 C254 1.327 . S
C256 C275 1.429 . S
C256 H280 0.950 . S
C257 C274 1.574 . S
C257 C276 1.363 1_565 S
C257 H281 0.949 . S
H258 C262 0.949 . S
C259 C260 1.349 . S
C259 C261 1.327 . S
C259 H282 0.950 . S
C260 C259 1.349 . S
C260 C272 1.349 1_455 S
C261 C259 1.327 . S
C261 C277 1.429 1_455 S
C261 H283 0.950 . S
C262 H258 0.949 . S
C262 C270 1.574 1_565 S
C262 C278 1.368 . S
H263 C271 0.950 . S
H264 C269 0.950 . S
H265 C270 0.949 . S
H266 C272 0.950 . S
H267 C273 0.950 . S
H268 C274 0.949 . S
C269 H264 0.950 . S
C269 C271 1.327 . S
C269 C275 1.429 . S
C270 C262 1.574 1_545 S
C270 H265 0.949 . S
C270 C276 1.369 . S
C271 C255 1.349 . S
C271 H263 0.950 . S
C271 C269 1.327 . S
C272 C260 1.349 1_655 S
C272 H266 0.950 . S
C272 C273 1.327 . S
C273 H267 0.950 . S
C273 C272 1.327 . S
C273 C277 1.429 . S
C274 C257 1.574 . S
C274 H268 0.949 . S
C274 C278 1.368 . S
C275 C256 1.429 . S
C275 C269 1.429 . S
C275 C276 1.529 . S
C276 C257 1.363 1_545 S
C276 C270 1.369 . S
C276 C275 1.529 . S
C277 C261 1.429 1_655 S
C277 C273 1.429 . S
C277 C278 1.523 . S
C278 C262 1.368 . S
C278 C274 1.368 . S
C278 C277 1.523 . S
H279 C254 0.950 . S
H280 C256 0.950 . S
H281 C257 0.949 . S
H282 C259 0.950 . S
H283 C261 0.950 . S
C284 C285 1.349 . S
C284 C286 1.327 . S
C284 H309 0.950 . S
C285 C284 1.349 . S
C285 C301 1.349 . S
C286 C284 1.327 . S
C286 C305 1.429 . S
C286 H310 0.950 . S
C287 C304 1.574 . S
C287 C306 1.368 . S
C287 H311 0.949 . S
H288 C292 0.949 . S
C289 C290 1.349 . S
C289 C291 1.327 1_655 S
C289 H312 0.950 . S
C290 C289 1.349 . S
C290 C302 1.349 . S
C291 C289 1.327 1_455 S
C291 C307 1.429 . S
C291 H313 0.950 . S
C292 H288 0.949 . S
C292 C300 1.574 . S
C292 C308 1.368 . S
H293 C301 0.950 . S
H294 C299 0.950 . S
H295 C300 0.949 . S
H296 C302 0.950 . S
H297 C303 0.950 . S
H298 C304 0.949 . S
C299 H294 0.950 . S
C299 C301 1.327 . S
C299 C305 1.429 . S
C300 C292 1.574 . S
C300 H295 0.949 . S
C300 C306 1.368 . S
C301 C285 1.349 . S
C301 H293 0.950 . S
C301 C299 1.327 . S
C302 C290 1.349 . S
C302 H296 0.950 . S
C302 C303 1.327 . S
C303 H297 0.950 . S
C303 C302 1.327 . S
C303 C307 1.429 1_655 S
C304 C287 1.574 . S
C304 H298 0.949 . S
C304 C308 1.368 . S
C305 C286 1.429 . S
C305 C299 1.429 . S
C305 C306 1.523 . S
C306 C287 1.368 . S
C306 C300 1.368 . S
C306 C305 1.523 . S
C307 C291 1.429 . S
C307 C303 1.429 1_455 S
C307 C308 1.523 . S
C308 C292 1.368 . S
C308 C304 1.368 . S
C308 C307 1.523 . S
H309 C284 0.950 . S
H310 C286 0.950 . S
H311 C287 0.949 . S
H312 C289 0.950 . S
H313 C291 0.950 . S
C314 C315 1.349 . S
C314 C316 1.327 . S
C314 H339 0.950 . S
C315 C314 1.349 . S
C315 C331 1.349 . S
C316 C314 1.327 . S
C316 C335 1.429 . S
C316 H340 0.950 . S
C317 C334 1.574 . S
C317 C336 1.359 1_545 S
C317 H341 0.949 . S
H318 C322 0.949 1_565 S
C319 C320 1.349 . S
C319 C321 1.327 . S
C319 H342 0.950 . S
C320 C319 1.349 . S
C320 C332 1.349 . S
C321 C319 1.327 . S
C321 C337 1.429 . S
C321 H343 0.950 . S
C322 H318 0.949 1_545 S
C322 C330 1.574 1_545 S
C322 C338 1.368 . S
H323 C331 0.950 . S
H324 C329 0.950 1_545 S
H325 C330 0.949 . S
H326 C332 0.950 . S
H327 C333 0.950 . S
H328 C334 0.949 . S
C329 H324 0.950 1_565 S
C329 C331 1.327 . S
C329 C335 1.429 . S
C330 C322 1.574 1_565 S
C330 H325 0.949 . S
C330 C336 1.374 . S
C331 C315 1.349 . S
C331 H323 0.950 . S
C331 C329 1.327 . S
C332 C320 1.349 . S
C332 H326 0.950 . S
C332 C333 1.327 . S
C333 H327 0.950 . S
C333 C332 1.327 . S
C333 C337 1.429 . S
C334 C317 1.574 . S
C334 H328 0.949 . S
C334 C338 1.368 . S
C335 C316 1.429 . S
C335 C329 1.429 . S
C335 C336 1.529 . S
C336 C317 1.359 1_565 S
C336 C330 1.374 . S
C336 C335 1.529 . S
C337 C321 1.429 . S
C337 C333 1.429 . S
C337 C338 1.523 . S
C338 C322 1.368 . S
C338 C334 1.368 . S
C338 C337 1.523 . S
H339 C314 0.950 . S
H340 C316 0.950 . S
H341 C317 0.949 . S
H342 C319 0.950 . S
H343 C321 0.950 . S
C344 C345 1.349 . S
C344 C346 1.327 . S
C344 H369 0.950 . S
C345 C344 1.349 . S
C345 C361 1.349 . S
C346 C344 1.327 . S
C346 C365 1.429 . S
C346 H370 0.950 1_455 S
C347 C364 1.574 . S
C347 C366 1.368 . S
C347 H371 0.949 . S
H348 C352 0.949 . S
C349 C350 1.349 . S
C349 C351 1.327 . S
C349 H372 0.950 . S
C350 C349 1.349 . S
C350 C362 1.349 . S
C351 C349 1.327 . S
C351 C367 1.429 . S
C351 H373 0.950 1_655 S
C352 H348 0.949 . S
C352 C360 1.574 . S
C352 C368 1.368 . S
H353 C361 0.950 . S
H354 C359 0.950 . S
H355 C360 0.949 . S
H356 C362 0.950 . S
H357 C363 0.950 . S
H358 C364 0.949 . S
C359 H354 0.950 . S
C359 C361 1.327 . S
C359 C365 1.429 . S
C360 C352 1.574 . S
C360 H355 0.949 . S
C360 C366 1.368 1_655 S
C361 C345 1.349 . S
C361 H353 0.950 . S
C361 C359 1.327 . S
C362 C350 1.349 . S
C362 H356 0.950 . S
C362 C363 1.327 . S
C363 H357 0.950 . S
C363 C362 1.327 . S
C363 C367 1.429 . S
C364 C347 1.574 . S
C364 H358 0.949 . S
C364 C368 1.368 1_455 S
C365 C346 1.429 . S
C365 C359 1.429 . S
C365 C366 1.523 . S
C366 C347 1.368 . S
C366 C360 1.368 1_455 S
C366 C365 1.523 . S
C367 C351 1.429 . S
C367 C363 1.429 . S
C367 C368 1.523 . S
C368 C352 1.368 . S
C368 C364 1.368 1_655 S
C368 C367 1.523 . S
H369 C344 0.950 . S
H370 C346 0.950 1_655 S
H371 C347 0.949 . S
H372 C349 0.950 . S
H373 C351 0.950 1_455 S
C374 C375 1.349 . S
C374 C376 1.327 . S
C374 H399 0.962 . S
C375 C374 1.349 . S
C375 C391 1.349 . S
C376 C374 1.327 . S
C376 C395 1.429 . S
C376 H400 0.950 1_565 S
C377 C394 1.574 . S
C377 C396 1.368 . S
C377 H401 0.949 . S
H378 C382 0.949 . S
C379 C380 1.349 . S
C379 C381 1.327 . S
C379 H402 0.962 . S
C380 C379 1.349 . S
C380 C392 1.349 . S
C381 C379 1.327 . S
C381 C397 1.429 . S
C381 H403 0.950 1_545 S
C382 H378 0.949 . S
C382 C390 1.574 . S
C382 C398 1.368 . S
H383 C391 0.950 . S
H384 C389 0.950 . S
H385 C390 0.949 . S
H386 C392 0.950 . S
H387 C393 0.950 . S
H388 C394 0.949 . S
C389 H384 0.950 . S
C389 C391 1.327 . S
C389 C395 1.429 . S
C390 C382 1.574 . S
C390 H385 0.949 . S
C390 C396 1.368 1_545 S
C391 C375 1.349 . S
C391 H383 0.950 . S
C391 C389 1.327 . S
C392 C380 1.349 . S
C392 H386 0.950 . S
C392 C393 1.327 . S
C393 H387 0.950 . S
C393 C392 1.327 . S
C393 C397 1.429 . S
C394 C377 1.574 . S
C394 H388 0.949 . S
C394 C398 1.368 1_565 S
C395 C376 1.429 . S
C395 C389 1.429 . S
C395 C396 1.523 . S
C396 C377 1.368 . S
C396 C390 1.368 1_565 S
C396 C395 1.523 . S
C397 C381 1.429 . S
C397 C393 1.429 . S
C397 C398 1.523 . S
C398 C382 1.368 . S
C398 C394 1.368 1_545 S
C398 C397 1.523 . S
H399 C374 0.962 . S
H400 C376 0.950 1_545 S
H401 C377 0.949 . S
H402 C379 0.962 . S
H403 C381 0.950 1_565 S
C404 C405 1.349 . S
C404 C406 1.327 . S
C404 H429 0.950 . S
C405 C404 1.349 . S
C405 C421 1.349 . S
C406 C404 1.327 . S
C406 C425 1.429 . S
C406 H430 0.950 . S
C407 C424 1.574 1_554 S
C407 C426 1.368 . S
C407 H431 0.949 . S
H408 C412 0.949 . S
C409 C410 1.349 . S
C409 C411 1.327 . S
C409 H432 0.950 . S
C410 C409 1.349 . S
C410 C422 1.349 . S
C411 C409 1.327 . S
C411 C427 1.429 . S
C411 H433 0.950 . S
C412 H408 0.949 . S
C412 C420 1.574 1_556 S
C412 C428 1.368 . S
H413 C421 0.950 . S
H414 C419 0.950 . S
H415 C420 0.949 . S
H416 C422 0.950 . S
H417 C423 0.950 . S
H418 C424 0.949 . S
C419 H414 0.950 . S
C419 C421 1.327 . S
C419 C425 1.429 . S
C420 C412 1.574 1_554 S
C420 H415 0.949 . S
C420 C426 1.368 . S
C421 C405 1.349 . S
C421 H413 0.950 . S
C421 C419 1.327 . S
C422 C410 1.349 . S
C422 H416 0.950 . S
C422 C423 1.327 . S
C423 H417 0.950 . S
C423 C422 1.327 . S
C423 C427 1.429 . S
C424 C407 1.574 1_556 S
C424 H418 0.949 . S
C424 C428 1.368 . S
C425 C406 1.429 . S
C425 C419 1.429 . S
C425 C426 1.523 . S
C426 C407 1.368 . S
C426 C420 1.368 . S
C426 C425 1.523 . S
C427 C411 1.429 . S
C427 C423 1.429 . S
C427 C428 1.523 . S
C428 C412 1.368 . S
C428 C424 1.368 . S
C428 C427 1.523 . S
H429 C404 0.950 . S
H430 C406 0.950 . S
H431 C407 0.949 . S
H432 C409 0.950 . S
H433 C411 0.950 . S
C434 C435 1.349 . S
C434 C436 1.327 . S
C434 H459 0.950 . S
C435 C434 1.349 . S
C435 C451 1.349 . S
C436 C434 1.327 . S
C436 C455 1.429 . S
C436 H460 0.950 . S
C437 C454 1.571 . S
C437 C456 1.368 1_645 S
C437 H461 0.949 . S
H438 C442 0.949 . S
C439 C440 1.349 . S
C439 C441 1.327 . S
C439 H462 0.950 . S
C440 C439 1.349 . S
C440 C452 1.349 . S
C441 C439 1.327 . S
C441 C457 1.429 . S
C441 H463 0.950 . S
C442 H438 0.949 . S
C442 C450 1.571 . S
C442 C458 1.368 1_465 S
H443 C451 0.950 . S
H444 C449 0.950 1_545 S
H445 C450 0.949 1_556 S
H446 C452 0.950 . S
H447 C453 0.950 1_565 S
H448 C454 0.949 1_554 S
C449 H444 0.950 1_565 S
C449 C451 1.327 . S
C449 C455 1.429 . S
C450 C442 1.571 . S
C450 H445 0.949 1_554 S
C450 C456 1.371 1_554 S
C451 C435 1.349 . S
C451 H443 0.950 . S
C451 C449 1.327 . S
C452 C440 1.349 . S
C452 H446 0.950 . S
C452 C453 1.327 . S
C453 H447 0.950 1_545 S
C453 C452 1.327 . S
C453 C457 1.429 . S
C454 C437 1.571 . S
C454 H448 0.949 1_556 S
C454 C458 1.371 1_556 S
C455 C436 1.429 . S
C455 C449 1.429 . S
C455 C456 1.523 . S
C456 C437 1.368 1_465 S
C456 C450 1.371 1_556 S
C456 C455 1.523 . S
C457 C441 1.429 . S
C457 C453 1.429 . S
C457 C458 1.523 . S
C458 C442 1.368 1_645 S
C458 C454 1.371 1_554 S
C458 C457 1.523 . S
H459 C434 0.950 . S
H460 C436 0.950 . S
H461 C437 0.949 . S
H462 C439 0.950 . S
H463 C441 0.950 . S
C464 C465 1.349 . S
C464 C466 1.327 . S
C464 H489 0.950 . S
C465 C464 1.349 . S
C465 C481 1.349 . S
C466 C464 1.327 . S
C466 C485 1.429 . S
C466 H490 0.950 . S
C467 C484 1.574 . S
C467 C486 1.368 . S
C467 H491 0.949 . S
H468 C472 0.949 . S
C469 C470 1.349 . S
C469 C471 1.327 . S
C469 H492 0.950 . S
C470 C469 1.349 . S
C470 C482 1.349 . S
C471 C469 1.327 . S
C471 C487 1.429 . S
C471 H493 0.950 . S
C472 H468 0.949 . S
C472 C480 1.574 . S
C472 C488 1.368 . S
H473 C481 0.950 . S
H474 C479 0.950 . S
H475 C480 0.949 . S
H476 C482 0.950 . S
H477 C483 0.950 . S
H478 C484 0.949 . S
C479 H474 0.950 . S
C479 C481 1.327 . S
C479 C485 1.429 . S
C480 C472 1.574 . S
C480 H475 0.949 . S
C480 C486 1.368 . S
C481 C465 1.349 . S
C481 H473 0.950 . S
C481 C479 1.327 . S
C482 C470 1.349 . S
C482 H476 0.950 . S
C482 C483 1.327 . S
C483 H477 0.950 . S
C483 C482 1.327 . S
C483 C487 1.429 . S
C484 C467 1.574 . S
C484 H478 0.949 . S
C484 C488 1.368 . S
C485 C466 1.429 . S
C485 C479 1.429 . S
C485 C486 1.523 . S
C486 C467 1.368 . S
C486 C480 1.368 . S
C486 C485 1.523 . S
C487 C471 1.429 . S
C487 C483 1.429 . S
C487 C488 1.523 . S
C488 C472 1.368 . S
C488 C484 1.368 . S
C488 C487 1.523 . S
H489 C464 0.950 . S
H490 C466 0.950 . S
H491 C467 0.949 . S
H492 C469 0.950 . S
H493 C471 0.950 . S
C494 C495 1.349 . S
C494 C496 1.327 . S
C494 H519 0.950 . S
C495 C494 1.349 . S
C495 C511 1.349 . S
C496 C494 1.327 . S
C496 C515 1.429 . S
C496 H520 0.950 . S
C497 C514 1.574 . S
C497 C516 1.368 . S
C497 H521 0.949 . S
H498 C502 0.949 . S
C499 C500 1.349 . S
C499 C501 1.327 . S
C499 H522 0.950 . S
C500 C499 1.349 . S
C500 C512 1.349 . S
C501 C499 1.327 . S
C501 C517 1.429 . S
C501 H523 0.950 . S
C502 H498 0.949 . S
C502 C510 1.574 . S
C502 C518 1.368 . S
H503 C511 0.950 . S
H504 C509 0.950 . S
H505 C510 0.949 . S
H506 C512 0.950 . S
H507 C513 0.950 . S
H508 C514 0.949 . S
C509 H504 0.950 . S
C509 C511 1.327 . S
C509 C515 1.429 . S
C510 C502 1.574 . S
C510 H505 0.949 . S
C510 C516 1.368 . S
C511 C495 1.349 . S
C511 H503 0.950 . S
C511 C509 1.327 . S
C512 C500 1.349 . S
C512 H506 0.950 . S
C512 C513 1.327 . S
C513 H507 0.950 . S
C513 C512 1.327 . S
C513 C517 1.429 . S
C514 C497 1.574 . S
C514 H508 0.949 . S
C514 C518 1.368 . S
C515 C496 1.429 . S
C515 C509 1.429 . S
C515 C516 1.523 . S
C516 C497 1.368 . S
C516 C510 1.368 . S
C516 C515 1.523 . S
C517 C501 1.429 . S
C517 C513 1.429 . S
C517 C518 1.523 . S
C518 C502 1.368 . S
C518 C514 1.368 . S
C518 C517 1.523 . S
H519 C494 0.950 . S
H520 C496 0.950 . S
H521 C497 0.949 . S
H522 C499 0.950 . S
H523 C501 0.950 . S
C524 C525 1.349 . S
C524 C526 1.327 . S
C524 H549 0.950 . S
C525 C524 1.349 . S
C525 C541 1.349 . S
C526 C524 1.327 . S
C526 C545 1.429 . S
C526 H550 0.950 . S
C527 C544 1.574 . S
C527 C546 1.368 . S
C527 H551 0.949 . S
H528 C532 0.949 . S
C529 C530 1.349 . S
C529 C531 1.327 . S
C529 H552 0.950 . S
C530 C529 1.349 . S
C530 C542 1.349 . S
C531 C529 1.327 . S
C531 C547 1.429 . S
C531 H553 0.950 . S
C532 H528 0.949 . S
C532 C540 1.574 . S
C532 C548 1.368 . S
H533 C541 0.950 . S
H534 C539 0.950 . S
H535 C540 0.949 . S
H536 C542 0.950 . S
H537 C543 0.950 . S
H538 C544 0.949 . S
C539 H534 0.950 . S
C539 C541 1.327 . S
C539 C545 1.429 . S
C540 C532 1.574 . S
C540 H535 0.949 . S
C540 C546 1.368 . S
C541 C525 1.349 . S
C541 H533 0.950 . S
C541 C539 1.327 . S
C542 C530 1.349 . S
C542 H536 0.950 . S
C542 C543 1.327 . S
C543 H537 0.950 . S
C543 C542 1.327 . S
C543 C547 1.429 . S
C544 C527 1.574 . S
C544 H538 0.949 . S
C544 C548 1.368 . S
C545 C526 1.429 . S
C545 C539 1.429 . S
C545 C546 1.523 . S
C546 C527 1.368 . S
C546 C540 1.368 . S
C546 C545 1.523 . S
C547 C531 1.429 . S
C547 C543 1.429 . S
C547 C548 1.523 . S
C548 C532 1.368 . S
C548 C544 1.368 . S
C548 C547 1.523 . S
H549 C524 0.950 . S
H550 C526 0.950 . S
H551 C527 0.949 . S
H552 C529 0.950 . S
H553 C531 0.950 . S
C554 C555 1.349 . S
C554 C556 1.327 . S
C554 H579 0.950 . S
C555 C554 1.349 . S
C555 C571 1.349 . S
C556 C554 1.327 . S
C556 C575 1.429 . S
C556 H580 0.950 . S
C557 C574 1.574 . S
C557 C576 1.368 . S
C557 H581 0.949 . S
H558 C562 0.949 . S
C559 C560 1.349 . S
C559 C561 1.327 . S
C559 H582 0.950 . S
C560 C559 1.349 . S
C560 C572 1.349 . S
C561 C559 1.327 . S
C561 C577 1.429 . S
C561 H583 0.950 . S
C562 H558 0.949 . S
C562 C570 1.574 . S
C562 C578 1.368 . S
H563 C571 0.950 . S
H564 C569 0.950 . S
H565 C570 0.949 . S
H566 C572 0.950 . S
H567 C573 0.950 . S
H568 C574 0.949 . S
C569 H564 0.950 . S
C569 C571 1.327 . S
C569 C575 1.429 . S
C570 C562 1.574 . S
C570 H565 0.949 . S
C570 C576 1.368 . S
C571 C555 1.349 . S
C571 H563 0.950 . S
C571 C569 1.327 . S
C572 C560 1.349 . S
C572 H566 0.950 . S
C572 C573 1.327 . S
C573 H567 0.950 . S
C573 C572 1.327 . S
C573 C577 1.429 . S
C574 C557 1.574 . S
C574 H568 0.949 . S
C574 C578 1.368 . S
C575 C556 1.429 . S
C575 C569 1.429 . S
C575 C576 1.523 . S
C576 C557 1.368 . S
C576 C570 1.368 . S
C576 C575 1.523 . S
C577 C561 1.429 . S
C577 C573 1.429 . S
C577 C578 1.523 . S
C578 C562 1.368 . S
C578 C574 1.368 . S
C578 C577 1.523 . S
H579 C554 0.950 . S
H580 C556 0.950 . S
H581 C557 0.949 . S
H582 C559 0.950 . S
H583 C561 0.950 . S
C105 C5 1.049 . S
C110 C34 1.054 . S
C135 C47 1.054 . S
C140 C18 1.049 . S
C165 C31 1.049 . S
C170 C8 1.054 . S
C195 C44 1.049 . S
C200 C21 1.054 . S
C225 C86 1.054 . S
C230 C57 1.049 . S
C255 C70 1.049 . S
C260 C99 1.054 . S
C285 C83 1.049 . S
C290 C60 1.054 . S
C315 C96 1.049 . S
C320 C73 1.054 . S
C345 C0 1.484 . S
C350 C52 1.484 . S
C375 C13 1.484 . S
C380 C65 1.484 . S
C405 C26 1.484 . S
C410 C78 1.484 . S
C435 C91 1.484 . S
C440 C39 1.484 . S
C465 C10 1.505 . S
C470 C23 1.505 . S
C495 C49 1.505 . S
C500 C36 1.505 . S
C525 C75 1.505 . S
C530 C62 1.505 . S
C555 C88 1.505 . S
C560 C101 1.505 . S
