# Generated by pormake.
# Topology uoi, (4)-cn, num edge types: 1
# Building blocks:
#     Node 0, Type 0, BuildingBlock: AZAVOO_clean_sbu_0, # of connection points: 4
#     Node 1, Type 0, BuildingBlock: AZAVOO_clean_sbu_0, # of connection points: 4
#     Node 2, Type 0, BuildingBlock: AZAVOO_clean_sbu_0, # of connection points: 4
#     Node 3, Type 0, BuildingBlock: AZAVOO_clean_sbu_0, # of connection points: 4
#     Node 4, Type 0, BuildingBlock: AZAVOO_clean_sbu_0, # of connection points: 4
#     Node 5, Type 0, BuildingBlock: AZAVOO_clean_sbu_0, # of connection points: 4
#     Node 6, Type 0, BuildingBlock: AZAVOO_clean_sbu_0, # of connection points: 4
#     Node 7, Type 0, BuildingBlock: AZAVOO_clean_sbu_0, # of connection points: 4
#     Node 8, Type 0, BuildingBlock: AZAVOO_clean_sbu_0, # of connection points: 4
#     Node 9, Type 0, BuildingBlock: AZAVOO_clean_sbu_0, # of connection points: 4
#     Node 10, Type 0, BuildingBlock: AZAVOO_clean_sbu_0, # of connection points: 4
#     Node 11, Type 0, BuildingBlock: AZAVOO_clean_sbu_0, # of connection points: 4
#     Node 12, Type 0, BuildingBlock: AZAVOO_clean_sbu_0, # of connection points: 4
#     Node 13, Type 0, BuildingBlock: AZAVOO_clean_sbu_0, # of connection points: 4
#     Node 14, Type 0, BuildingBlock: AZAVOO_clean_sbu_0, # of connection points: 4
#     Node 15, Type 0, BuildingBlock: AZAVOO_clean_sbu_0, # of connection points: 4
#     Node 16, Type 0, BuildingBlock: AZAVOO_clean_sbu_0, # of connection points: 4
#     Node 17, Type 0, BuildingBlock: AZAVOO_clean_sbu_0, # of connection points: 4
#     Node 18, Type 0, BuildingBlock: AZAVOO_clean_sbu_0, # of connection points: 4
#     Node 19, Type 0, BuildingBlock: AZAVOO_clean_sbu_0, # of connection points: 4
#     Node 20, Type 0, BuildingBlock: AZAVOO_clean_sbu_0, # of connection points: 4
#     Node 21, Type 0, BuildingBlock: AZAVOO_clean_sbu_0, # of connection points: 4
#     Node 22, Type 0, BuildingBlock: AZAVOO_clean_sbu_0, # of connection points: 4
#     Node 23, Type 0, BuildingBlock: AZAVOO_clean_sbu_0, # of connection points: 4
#     Node 24, Type 0, BuildingBlock: AZAVOO_clean_sbu_0, # of connection points: 4
#     Node 25, Type 0, BuildingBlock: AZAVOO_clean_sbu_0, # of connection points: 4
#     Node 26, Type 0, BuildingBlock: AZAVOO_clean_sbu_0, # of connection points: 4
#     Node 27, Type 0, BuildingBlock: AZAVOO_clean_sbu_0, # of connection points: 4
#     Node 28, Type 0, BuildingBlock: AZAVOO_clean_sbu_0, # of connection points: 4
#     Node 29, Type 0, BuildingBlock: AZAVOO_clean_sbu_0, # of connection points: 4
#     Node 30, Type 0, BuildingBlock: AZAVOO_clean_sbu_0, # of connection points: 4
#     Node 31, Type 0, BuildingBlock: AZAVOO_clean_sbu_0, # of connection points: 4
#     Edge 32, Type (0, 0), BuildingBlock: OJICUG_clean_linker_0, # of connection points: 2
#     Edge 33, Type (0, 0), BuildingBlock: OJICUG_clean_linker_0, # of connection points: 2
#     Edge 34, Type (0, 0), BuildingBlock: OJICUG_clean_linker_0, # of connection points: 2
#     Edge 35, Type (0, 0), BuildingBlock: OJICUG_clean_linker_0, # of connection points: 2
#     Edge 36, Type (0, 0), BuildingBlock: OJICUG_clean_linker_0, # of connection points: 2
#     Edge 37, Type (0, 0), BuildingBlock: OJICUG_clean_linker_0, # of connection points: 2
#     Edge 38, Type (0, 0), BuildingBlock: OJICUG_clean_linker_0, # of connection points: 2
#     Edge 39, Type (0, 0), BuildingBlock: OJICUG_clean_linker_0, # of connection points: 2
#     Edge 40, Type (0, 0), BuildingBlock: OJICUG_clean_linker_0, # of connection points: 2
#     Edge 41, Type (0, 0), BuildingBlock: OJICUG_clean_linker_0, # of connection points: 2
#     Edge 42, Type (0, 0), BuildingBlock: OJICUG_clean_linker_0, # of connection points: 2
#     Edge 43, Type (0, 0), BuildingBlock: OJICUG_clean_linker_0, # of connection points: 2
#     Edge 44, Type (0, 0), BuildingBlock: OJICUG_clean_linker_0, # of connection points: 2
#     Edge 45, Type (0, 0), BuildingBlock: OJICUG_clean_linker_0, # of connection points: 2
#     Edge 46, Type (0, 0), BuildingBlock: OJICUG_clean_linker_0, # of connection points: 2
#     Edge 47, Type (0, 0), BuildingBlock: OJICUG_clean_linker_0, # of connection points: 2
#     Edge 48, Type (0, 0), BuildingBlock: OJICUG_clean_linker_0, # of connection points: 2
#     Edge 49, Type (0, 0), BuildingBlock: OJICUG_clean_linker_0, # of connection points: 2
#     Edge 50, Type (0, 0), BuildingBlock: OJICUG_clean_linker_0, # of connection points: 2
#     Edge 51, Type (0, 0), BuildingBlock: OJICUG_clean_linker_0, # of connection points: 2
#     Edge 52, Type (0, 0), BuildingBlock: OJICUG_clean_linker_0, # of connection points: 2
#     Edge 53, Type (0, 0), BuildingBlock: OJICUG_clean_linker_0, # of connection points: 2
#     Edge 54, Type (0, 0), BuildingBlock: OJICUG_clean_linker_0, # of connection points: 2
#     Edge 55, Type (0, 0), BuildingBlock: OJICUG_clean_linker_0, # of connection points: 2
#     Edge 56, Type (0, 0), BuildingBlock: OJICUG_clean_linker_0, # of connection points: 2
#     Edge 57, Type (0, 0), BuildingBlock: OJICUG_clean_linker_0, # of connection points: 2
#     Edge 58, Type (0, 0), BuildingBlock: OJICUG_clean_linker_0, # of connection points: 2
#     Edge 59, Type (0, 0), BuildingBlock: OJICUG_clean_linker_0, # of connection points: 2
#     Edge 60, Type (0, 0), BuildingBlock: OJICUG_clean_linker_0, # of connection points: 2
#     Edge 61, Type (0, 0), BuildingBlock: OJICUG_clean_linker_0, # of connection points: 2
#     Edge 62, Type (0, 0), BuildingBlock: OJICUG_clean_linker_0, # of connection points: 2
#     Edge 63, Type (0, 0), BuildingBlock: OJICUG_clean_linker_0, # of connection points: 2
#     Edge 64, Type (0, 0), BuildingBlock: OJICUG_clean_linker_0, # of connection points: 2
#     Edge 65, Type (0, 0), BuildingBlock: OJICUG_clean_linker_0, # of connection points: 2
#     Edge 66, Type (0, 0), BuildingBlock: OJICUG_clean_linker_0, # of connection points: 2
#     Edge 67, Type (0, 0), BuildingBlock: OJICUG_clean_linker_0, # of connection points: 2
#     Edge 68, Type (0, 0), BuildingBlock: OJICUG_clean_linker_0, # of connection points: 2
#     Edge 69, Type (0, 0), BuildingBlock: OJICUG_clean_linker_0, # of connection points: 2
#     Edge 70, Type (0, 0), BuildingBlock: OJICUG_clean_linker_0, # of connection points: 2
#     Edge 71, Type (0, 0), BuildingBlock: OJICUG_clean_linker_0, # of connection points: 2
#     Edge 72, Type (0, 0), BuildingBlock: OJICUG_clean_linker_0, # of connection points: 2
#     Edge 73, Type (0, 0), BuildingBlock: OJICUG_clean_linker_0, # of connection points: 2
#     Edge 74, Type (0, 0), BuildingBlock: OJICUG_clean_linker_0, # of connection points: 2
#     Edge 75, Type (0, 0), BuildingBlock: OJICUG_clean_linker_0, # of connection points: 2
#     Edge 76, Type (0, 0), BuildingBlock: OJICUG_clean_linker_0, # of connection points: 2
#     Edge 77, Type (0, 0), BuildingBlock: OJICUG_clean_linker_0, # of connection points: 2
#     Edge 78, Type (0, 0), BuildingBlock: OJICUG_clean_linker_0, # of connection points: 2
#     Edge 79, Type (0, 0), BuildingBlock: OJICUG_clean_linker_0, # of connection points: 2
#     Edge 80, Type (0, 0), BuildingBlock: OJICUG_clean_linker_0, # of connection points: 2
#     Edge 81, Type (0, 0), BuildingBlock: OJICUG_clean_linker_0, # of connection points: 2
#     Edge 82, Type (0, 0), BuildingBlock: OJICUG_clean_linker_0, # of connection points: 2
#     Edge 83, Type (0, 0), BuildingBlock: OJICUG_clean_linker_0, # of connection points: 2
#     Edge 84, Type (0, 0), BuildingBlock: OJICUG_clean_linker_0, # of connection points: 2
#     Edge 85, Type (0, 0), BuildingBlock: OJICUG_clean_linker_0, # of connection points: 2
#     Edge 86, Type (0, 0), BuildingBlock: OJICUG_clean_linker_0, # of connection points: 2
#     Edge 87, Type (0, 0), BuildingBlock: OJICUG_clean_linker_0, # of connection points: 2
#     Edge 88, Type (0, 0), BuildingBlock: OJICUG_clean_linker_0, # of connection points: 2
#     Edge 89, Type (0, 0), BuildingBlock: OJICUG_clean_linker_0, # of connection points: 2
#     Edge 90, Type (0, 0), BuildingBlock: OJICUG_clean_linker_0, # of connection points: 2
#     Edge 91, Type (0, 0), BuildingBlock: OJICUG_clean_linker_0, # of connection points: 2
#     Edge 92, Type (0, 0), BuildingBlock: OJICUG_clean_linker_0, # of connection points: 2
#     Edge 93, Type (0, 0), BuildingBlock: OJICUG_clean_linker_0, # of connection points: 2
#     Edge 94, Type (0, 0), BuildingBlock: OJICUG_clean_linker_0, # of connection points: 2
#     Edge 95, Type (0, 0), BuildingBlock: OJICUG_clean_linker_0, # of connection points: 2
# Relax obj value: 0.345
# Max RMSD: 0.232
# Mean RMSD: 0.225
data_MOF--net-uoi--node1-AZAVOO_clean_sbu_0--edge1-OJICUG_clean_linker_0
_symmetry_space_group_name_H-M    P1
_symmetry_Int_Tables_number       1
_symmetry_cell_setting            triclinic
loop_
_symmetry_equiv_pos_as_xyz
'x, y, z'
_cell_length_a     61.536606
_cell_length_b     61.319438
_cell_length_c     12.447851
_cell_angle_alpha  90.004408
_cell_angle_beta   90.030371
_cell_angle_gamma 90.01927
loop_
_atom_site_label
_atom_site_type_symbol
_atom_site_fract_x
_atom_site_fract_y
_atom_site_fract_z
_atom_type_partial_charge
Mg0 Mg 0.20762 0.17332 0.09445 0.0
O1 O 0.19861 0.20278 0.19715 0.0
O2 O 0.17398 0.22255 0.10971 0.0
Mg3 Mg 0.16204 0.20244 0.96544 0.0
C4 C 0.18744 0.2201 0.18685 0.0
C5 C 0.23872 0.17522 0.2964 0.0
O6 O 0.24109 0.19502 0.25795 0.0
O7 O 0.1775 0.15288 0.14143 0.0
O8 O 0.15161 0.17235 0.05927 0.0
O9 O 0.22778 0.19778 0.99894 0.0
O10 O 0.19455 0.18804 0.95562 0.0
C11 C 0.1576 0.15595 0.11498 0.0
C12 C 0.21085 0.20045 0.93871 0.0
O13 O 0.22725 0.16156 0.2438 0.0
Mg14 Mg 0.0767 0.9573 0.34329 0.0
O15 O 0.04701 0.94876 0.44462 0.0
O16 O 0.02713 0.92403 0.35839 0.0
Mg17 Mg 0.04736 0.91159 0.21568 0.0
C18 C 0.02965 0.93769 0.43478 0.0
C19 C 0.07477 0.98858 0.54546 0.0
O20 O 0.05504 0.9911 0.50712 0.0
O21 O 0.0965 0.92702 0.39286 0.0
O22 O 0.07705 0.90091 0.31167 0.0
O23 O 0.05289 0.97753 0.24466 0.0
O24 O 0.06233 0.94396 0.20428 0.0
C25 C 0.09333 0.90701 0.3677 0.0
C26 C 0.0503 0.96043 0.18509 0.0
O27 O 0.08832 0.97708 0.4926 0.0
Mg28 Mg 0.29469 0.82412 0.58309 0.0
O29 O 0.30444 0.79415 0.67826 0.0
O30 O 0.32867 0.77451 0.58802 0.0
Mg31 Mg 0.34022 0.79626 0.44815 0.0
C32 C 0.31544 0.77681 0.66611 0.0
C33 C 0.26368 0.81812 0.77873 0.0
O34 O 0.26063 0.80016 0.72314 0.0
O35 O 0.32455 0.84426 0.63363 0.0
O36 O 0.3507 0.82558 0.54883 0.0
O37 O 0.27467 0.80037 0.48391 0.0
O38 O 0.30766 0.8109 0.4401 0.0
C39 C 0.34449 0.84149 0.60745 0.0
C40 C 0.29141 0.79849 0.42177 0.0
O41 O 0.27551 0.83309 0.73815 0.0
Mg42 Mg 0.42529 0.04538 0.8426 0.0
O43 O 0.4551 0.05552 0.93745 0.0
O44 O 0.4747 0.07957 0.84558 0.0
Mg45 Mg 0.45317 0.09058 0.70392 0.0
C46 C 0.47237 0.06655 0.92472 0.0
C47 C 0.43116 0.01463 0.03977 0.0
O48 O 0.44897 0.01136 0.98389 0.0
O49 O 0.40512 0.0756 0.88947 0.0
O50 O 0.4238 0.10147 0.80217 0.0
O51 O 0.44909 0.02496 0.74569 0.0
O52 O 0.43857 0.05788 0.69883 0.0
C53 C 0.40787 0.09549 0.86089 0.0
C54 C 0.45097 0.04155 0.68216 0.0
O55 O 0.4163 0.02657 0.99912 0.0
Mg56 Mg 0.20882 0.82286 0.42853 0.0
O57 O 0.19874 0.79293 0.33349 0.0
O58 O 0.17482 0.77327 0.42574 0.0
Mg59 Mg 0.1638 0.79487 0.56718 0.0
C60 C 0.18778 0.77558 0.34653 0.0
C61 C 0.23924 0.81726 0.22996 0.0
O62 O 0.24246 0.79915 0.28401 0.0
O63 O 0.17877 0.84312 0.38148 0.0
O64 O 0.15303 0.82435 0.46878 0.0
O65 O 0.22912 0.79896 0.52558 0.0
O66 O 0.19634 0.80958 0.57229 0.0
C67 C 0.15897 0.84033 0.41001 0.0
C68 C 0.2126 0.79714 0.58922 0.0
O69 O 0.22751 0.83209 0.27233 0.0
Mg70 Mg 0.42664 0.95828 0.68704 0.0
O71 O 0.45664 0.94877 0.59224 0.0
O72 O 0.47632 0.92458 0.68292 0.0
Mg73 Mg 0.45477 0.91289 0.82291 0.0
C74 C 0.47398 0.93783 0.60471 0.0
C75 C 0.43208 0.98943 0.49028 0.0
O76 O 0.45012 0.99264 0.54457 0.0
O77 O 0.4069 0.92805 0.63659 0.0
O78 O 0.42575 0.90204 0.72185 0.0
O79 O 0.45013 0.9786 0.78645 0.0
O80 O 0.43988 0.94542 0.83019 0.0
C81 C 0.40987 0.90808 0.66291 0.0
C82 C 0.45211 0.96181 0.84868 0.0
O83 O 0.41739 0.97744 0.53191 0.0
Mg84 Mg 0.29166 0.17711 0.95046 0.0
O85 O 0.29928 0.20869 0.86517 0.0
O86 O 0.32496 0.22732 0.95072 0.0
Mg87 Mg 0.33737 0.20466 0.08525 0.0
C88 C 0.31061 0.22582 0.87702 0.0
C89 C 0.27354 0.15708 0.72145 0.0
O90 O 0.28697 0.14066 0.73488 0.0
O91 O 0.32174 0.15856 0.88863 0.0
O92 O 0.34786 0.17653 0.97737 0.0
O93 O 0.27152 0.19854 0.05989 0.0
O94 O 0.30519 0.18896 0.09539 0.0
C95 C 0.34171 0.16127 0.91462 0.0
C96 C 0.28862 0.20053 0.11955 0.0
O97 O 0.2716 0.17134 0.79537 0.0
Mg98 Mg 0.07268 0.04119 0.19922 0.0
O99 O 0.04247 0.05005 0.10613 0.0
O100 O 0.02398 0.07603 0.19033 0.0
Mg101 Mg 0.04597 0.08811 0.32823 0.0
C102 C 0.02561 0.06179 0.11599 0.0
C103 C 0.09282 0.02294 0.9715 0.0
O104 O 0.1087 0.03704 0.98384 0.0
O105 O 0.09302 0.07054 0.14087 0.0
O106 O 0.07517 0.09733 0.22525 0.0
O107 O 0.0492 0.02217 0.30358 0.0
O108 O 0.06029 0.05537 0.3418 0.0
C109 C 0.0907 0.09068 0.1658 0.0
C110 C 0.04768 0.0394 0.36307 0.0
O111 O 0.07881 0.02057 0.04606 0.0
Mg112 Mg 0.79397 0.82578 0.93968 0.0
O113 O 0.8037 0.79563 0.84563 0.0
O114 O 0.82784 0.77605 0.93698 0.0
Mg115 Mg 0.83909 0.79777 0.07757 0.0
C116 C 0.81471 0.7783 0.85836 0.0
C117 C 0.76303 0.82001 0.74314 0.0
O118 O 0.75974 0.80209 0.79872 0.0
O119 O 0.82411 0.84575 0.89037 0.0
O120 O 0.84992 0.82693 0.97703 0.0
O121 O 0.7736 0.80219 0.03829 0.0
O122 O 0.80658 0.81256 0.08336 0.0
C123 C 0.84397 0.84284 0.91775 0.0
C124 C 0.79025 0.80024 0.10113 0.0
O125 O 0.77504 0.83483 0.78379 0.0
Mg126 Mg 0.92548 0.04457 0.69417 0.0
O127 O 0.95581 0.05408 0.60183 0.0
O128 O 0.97527 0.07849 0.69222 0.0
Mg129 Mg 0.95354 0.08978 0.83229 0.0
C130 C 0.97307 0.06517 0.61421 0.0
C131 C 0.93144 0.01341 0.49902 0.0
O132 O 0.94896 0.0099 0.55683 0.0
O133 O 0.90589 0.07492 0.64412 0.0
O134 O 0.92451 0.10077 0.73187 0.0
O135 O 0.94839 0.02385 0.79454 0.0
O136 O 0.9386 0.05718 0.83797 0.0
C137 C 0.90871 0.09482 0.67215 0.0
C138 C 0.95057 0.04061 0.85686 0.0
O139 O 0.91664 0.02565 0.53784 0.0
Mg140 Mg 0.7061 0.17722 0.45159 0.0
O141 O 0.69659 0.20756 0.35849 0.0
O142 O 0.67239 0.2271 0.44949 0.0
Mg143 Mg 0.66096 0.20523 0.58913 0.0
C144 C 0.6856 0.22489 0.37127 0.0
C145 C 0.73709 0.18306 0.2553 0.0
O146 O 0.74039 0.20096 0.31094 0.0
O147 O 0.67593 0.15755 0.40059 0.0
O148 O 0.65006 0.17629 0.48712 0.0
O149 O 0.72649 0.20052 0.55159 0.0
O150 O 0.6934 0.19029 0.59537 0.0
C151 C 0.65605 0.16047 0.42736 0.0
C152 C 0.7098 0.20248 0.61403 0.0
O153 O 0.72507 0.16824 0.29584 0.0
Mg154 Mg 0.57361 0.95838 0.18663 0.0
O155 O 0.54367 0.94842 0.09233 0.0
O156 O 0.52407 0.92438 0.18424 0.0
Mg157 Mg 0.54574 0.91315 0.32492 0.0
C158 C 0.52637 0.93745 0.10529 0.0
C159 C 0.56768 0.98912 0.98945 0.0
O160 O 0.54987 0.99243 0.04531 0.0
O161 O 0.59362 0.92818 0.13838 0.0
O162 O 0.57493 0.90226 0.22526 0.0
O163 O 0.55001 0.97881 0.28454 0.0
O164 O 0.56046 0.9458 0.33049 0.0
C165 C 0.59081 0.90826 0.16623 0.0
C166 C 0.54814 0.96217 0.34783 0.0
O167 O 0.58254 0.97721 0.03024 0.0
Mg168 Mg 0.79255 0.17789 0.60673 0.0
O169 O 0.80232 0.20779 0.70244 0.0
O170 O 0.82596 0.2278 0.61031 0.0
Mg171 Mg 0.83752 0.20628 0.46965 0.0
C172 C 0.81301 0.2253 0.6894 0.0
C173 C 0.76191 0.18345 0.80449 0.0
O174 O 0.75871 0.20152 0.75006 0.0
O175 O 0.82271 0.15789 0.65461 0.0
O176 O 0.84845 0.17695 0.56878 0.0
O177 O 0.77223 0.20171 0.50907 0.0
O178 O 0.80512 0.19129 0.46324 0.0
C179 C 0.84255 0.16089 0.62717 0.0
C180 C 0.7888 0.20363 0.44585 0.0
O181 O 0.77371 0.16861 0.7626 0.0
Mg182 Mg 0.57233 0.04502 0.34222 0.0
O183 O 0.54255 0.05474 0.43821 0.0
O184 O 0.52306 0.07927 0.34878 0.0
Mg185 Mg 0.54464 0.09097 0.20894 0.0
C186 C 0.52532 0.06587 0.42646 0.0
C187 C 0.56672 0.01379 0.53834 0.0
O188 O 0.5486 0.01081 0.48444 0.0
O189 O 0.59248 0.0749 0.39343 0.0
O190 O 0.57388 0.10131 0.30987 0.0
O191 O 0.54852 0.02511 0.24279 0.0
O192 O 0.55907 0.05825 0.1999 0.0
C193 C 0.58974 0.09495 0.36815 0.0
C194 C 0.54665 0.04201 0.18123 0.0
O195 O 0.58153 0.0256 0.49646 0.0
Mg196 Mg 0.70695 0.82519 0.09587 0.0
O197 O 0.69728 0.79524 0.19147 0.0
O198 O 0.6733 0.77539 0.10039 0.0
Mg199 Mg 0.66174 0.79693 0.95981 0.0
C200 C 0.68641 0.77781 0.17896 0.0
C201 C 0.73789 0.81966 0.29263 0.0
O202 O 0.74108 0.80161 0.23794 0.0
O203 O 0.67686 0.84521 0.14484 0.0
O204 O 0.65097 0.82624 0.05951 0.0
O205 O 0.72719 0.80142 0.99765 0.0
O206 O 0.69421 0.81178 0.95276 0.0
C207 C 0.65697 0.84225 0.11798 0.0
C208 C 0.71051 0.79944 0.93502 0.0
O209 O 0.72598 0.83446 0.25123 0.0
Mg210 Mg 0.92872 0.95824 0.84869 0.0
O211 O 0.95815 0.94769 0.94562 0.0
O212 O 0.9775 0.92345 0.85351 0.0
Mg213 Mg 0.95611 0.9126 0.71137 0.0
C214 C 0.9753 0.93647 0.93276 0.0
C215 C 0.93398 0.98869 0.04808 0.0
O216 O 0.95233 0.99161 0.99616 0.0
O217 O 0.90798 0.92835 0.89479 0.0
O218 O 0.92652 0.90218 0.80916 0.0
O219 O 0.95315 0.97836 0.75379 0.0
O220 O 0.94229 0.9456 0.70597 0.0
C221 C 0.91058 0.90839 0.86716 0.0
C222 C 0.95503 0.96174 0.69045 0.0
O223 O 0.91922 0.97714 1.00407 0.0
Mg224 Mg 0.70738 0.67767 0.59582 0.0
O225 O 0.69731 0.70755 0.69101 0.0
O226 O 0.67339 0.72724 0.59891 0.0
Mg227 Mg 0.6623 0.70563 0.45756 0.0
C228 C 0.68636 0.7249 0.6781 0.0
C229 C 0.73798 0.68348 0.79339 0.0
O230 O 0.7412 0.70147 0.73823 0.0
O231 O 0.67733 0.65737 0.64297 0.0
O232 O 0.65152 0.67617 0.55619 0.0
O233 O 0.72767 0.70161 0.49881 0.0
O234 O 0.69486 0.69099 0.45217 0.0
C235 C 0.65749 0.66018 0.61482 0.0
C236 C 0.71111 0.70346 0.43532 0.0
O237 O 0.72617 0.66858 0.75206 0.0
Mg238 Mg 0.5722 0.45658 0.83227 0.0
O239 O 0.54235 0.44698 0.92822 0.0
O240 O 0.52297 0.42222 0.83957 0.0
Mg241 Mg 0.54457 0.41045 0.69996 0.0
C242 C 0.52517 0.43574 0.91679 0.0
C243 C 0.56677 0.48799 0.02815 0.0
O244 O 0.54857 0.49094 0.97485 0.0
O245 O 0.59229 0.42676 0.8845 0.0
O246 O 0.57376 0.40021 0.80149 0.0
O247 O 0.54845 0.47641 0.7322 0.0
O248 O 0.55894 0.44321 0.6903 0.0
C249 C 0.58957 0.40666 0.85982 0.0
C250 C 0.54654 0.45943 0.67116 0.0
O251 O 0.5815 0.47614 0.98597 0.0
Mg252 Mg 0.79241 0.32523 0.10675 0.0
O253 O 0.80254 0.29535 0.20169 0.0
O254 O 0.8259 0.27536 0.10778 0.0
Mg255 Mg 0.83692 0.29686 0.96598 0.0
C256 C 0.81321 0.27786 0.1879 0.0
C257 C 0.76215 0.3195 0.30551 0.0
O258 O 0.75882 0.30154 0.2503 0.0
O259 O 0.82272 0.34539 0.15198 0.0
O260 O 0.84807 0.32627 0.06369 0.0
O261 O 0.77183 0.30133 1.01074 0.0
O262 O 0.80454 0.31186 0.96231 0.0
C263 C 0.84244 0.34236 0.12248 0.0
C264 C 0.7882 0.29947 0.94621 0.0
O265 O 0.77396 0.33438 0.26398 0.0
Mg266 Mg 0.92653 0.54479 0.32639 0.0
O267 O 0.95656 0.55419 0.42131 0.0
O268 O 0.97618 0.57861 0.33195 0.0
Mg269 Mg 0.95457 0.59044 0.19235 0.0
C270 C 0.97387 0.5652 0.40951 0.0
C271 C 0.93219 0.51333 0.52124 0.0
O272 O 0.95001 0.51008 0.46536 0.0
O273 O 0.90679 0.57491 0.37805 0.0
O274 O 0.92554 0.60113 0.29378 0.0
O275 O 0.94994 0.52456 0.22643 0.0
O276 O 0.9398 0.55784 0.18369 0.0
C277 C 0.90969 0.59494 0.35251 0.0
C278 C 0.95202 0.54145 0.1649 0.0
O279 O 0.91744 0.52546 0.48112 0.0
Mg280 Mg 0.70588 0.3248 0.95168 0.0
O281 O 0.69666 0.29443 0.85802 0.0
O282 O 0.67235 0.27481 0.94796 0.0
Mg283 Mg 0.66052 0.29665 0.08686 0.0
C284 C 0.68571 0.27706 0.87037 0.0
C285 C 0.73716 0.31917 0.7561 0.0
O286 O 0.74035 0.30116 0.81106 0.0
O287 O 0.67577 0.34433 0.899 0.0
O288 O 0.64974 0.32553 0.98402 0.0
O289 O 0.72613 0.30159 0.05269 0.0
O290 O 0.69292 0.31167 0.09483 0.0
C291 C 0.65583 0.34135 0.92454 0.0
C292 C 0.70932 0.29955 0.11429 0.0
O293 O 0.72512 0.33393 0.79691 0.0
Mg294 Mg 0.92733 0.45798 0.17112 0.0
O295 O 0.95671 0.44739 0.07425 0.0
O296 O 0.97636 0.42349 0.16687 0.0
Mg297 Mg 0.95508 0.41266 0.30954 0.0
C298 C 0.97397 0.43635 0.08713 0.0
C299 C 0.93294 0.48837 0.97209 0.0
O300 O 0.95106 0.49145 0.02596 0.0
O301 O 0.90658 0.42797 0.12652 0.0
O302 O 0.92534 0.4021 0.21329 0.0
O303 O 0.95177 0.47812 0.26625 0.0
O304 O 0.94079 0.44545 0.31456 0.0
C305 C 0.90928 0.4081 0.1555 0.0
C306 C 0.95347 0.46159 0.33032 0.0
O307 O 0.91808 0.47674 0.01474 0.0
Mg308 Mg 0.79414 0.67812 0.4396 0.0
O309 O 0.80354 0.70827 0.3447 0.0
O310 O 0.82795 0.72786 0.4343 0.0
Mg311 Mg 0.83971 0.70612 0.57375 0.0
C312 C 0.81457 0.72561 0.35671 0.0
C313 C 0.76286 0.68374 0.24418 0.0
O314 O 0.75971 0.70177 0.29909 0.0
O315 O 0.82409 0.65824 0.38784 0.0
O316 O 0.85028 0.67696 0.47219 0.0
O317 O 0.77405 0.70164 0.53968 0.0
O318 O 0.80719 0.69137 0.58229 0.0
C319 C 0.84406 0.66108 0.41339 0.0
C320 C 0.79088 0.70365 0.60127 0.0
O321 O 0.77484 0.66894 0.28511 0.0
Mg322 Mg 0.57447 0.54349 0.67621 0.0
O323 O 0.54462 0.55354 0.58171 0.0
O324 O 0.52487 0.57735 0.67426 0.0
Mg325 Mg 0.54646 0.58851 0.81542 0.0
C326 C 0.52726 0.56441 0.59486 0.0
C327 C 0.56846 0.51284 0.47903 0.0
O328 O 0.55076 0.50946 0.53558 0.0
O329 O 0.59452 0.57378 0.62911 0.0
O330 O 0.57569 0.59952 0.71646 0.0
O331 O 0.55079 0.52296 0.77333 0.0
O332 O 0.56124 0.5559 0.82031 0.0
C333 C 0.59163 0.59366 0.65754 0.0
C334 C 0.5489 0.53952 0.83705 0.0
O335 O 0.58336 0.52478 0.51934 0.0
Mg336 Mg 0.29148 0.32454 0.4509 0.0
O337 O 0.29897 0.29293 0.36571 0.0
O338 O 0.32484 0.27439 0.45013 0.0
Mg339 Mg 0.33745 0.29711 0.58397 0.0
C340 C 0.31036 0.27583 0.37707 0.0
C341 C 0.27401 0.3431 0.21847 0.0
O342 O 0.28888 0.35838 0.22617 0.0
O343 O 0.32144 0.34305 0.38732 0.0
O344 O 0.34775 0.32517 0.47508 0.0
O345 O 0.27151 0.30323 0.56156 0.0
O346 O 0.30528 0.31277 0.59536 0.0
C347 C 0.34146 0.34037 0.41233 0.0
C348 C 0.28873 0.30121 0.62031 0.0
O349 O 0.27099 0.33007 0.29688 0.0
Mg350 Mg 0.42752 0.54312 0.17697 0.0
O351 O 0.45737 0.55283 0.08125 0.0
O352 O 0.47705 0.57701 0.17207 0.0
Mg353 Mg 0.45558 0.5886 0.31256 0.0
C354 C 0.47469 0.5638 0.09368 0.0
C355 C 0.43283 0.51214 0.97944 0.0
O356 O 0.45099 0.50899 0.03279 0.0
O357 O 0.40753 0.57325 0.12761 0.0
O358 O 0.42636 0.59932 0.21265 0.0
O359 O 0.45125 0.52291 0.2755 0.0
O360 O 0.44085 0.556 0.31988 0.0
C361 C 0.41043 0.59322 0.1542 0.0
C362 C 0.45317 0.53967 0.33794 0.0
O363 O 0.41814 0.524 0.02197 0.0
Mg364 Mg 0.20805 0.67541 0.92773 0.0
O365 O 0.19849 0.70547 0.83302 0.0
O366 O 0.17457 0.72534 0.92404 0.0
Mg367 Mg 0.16287 0.70366 0.06376 0.0
C368 C 0.1877 0.72292 0.84561 0.0
C369 C 0.23905 0.68127 0.73173 0.0
O370 O 0.24228 0.69917 0.78759 0.0
O371 O 0.17793 0.65558 0.87727 0.0
O372 O 0.15206 0.67457 0.96249 0.0
O373 O 0.22831 0.69899 0.02701 0.0
O374 O 0.19528 0.68869 0.07111 0.0
C375 C 0.15803 0.65862 0.90356 0.0
C376 C 0.21161 0.70097 0.08939 0.0
O377 O 0.22711 0.66638 0.77216 0.0
Mg378 Mg 0.07429 0.45686 0.67056 0.0
O379 O 0.04481 0.44671 0.57331 0.0
O380 O 0.02484 0.42299 0.66528 0.0
Mg381 Mg 0.04615 0.41156 0.80687 0.0
C382 C 0.02739 0.43593 0.58599 0.0
C383 C 0.0686 0.4876 0.47348 0.0
O384 O 0.05069 0.49077 0.52871 0.0
O385 O 0.09475 0.4268 0.62411 0.0
O386 O 0.07577 0.40095 0.70976 0.0
O387 O 0.05013 0.47707 0.76664 0.0
O388 O 0.06075 0.44421 0.81368 0.0
C389 C 0.09187 0.4069 0.65214 0.0
C390 C 0.04824 0.46046 0.83004 0.0
O391 O 0.08349 0.4758 0.51477 0.0
Mg392 Mg 0.29456 0.67662 0.08288 0.0
O393 O 0.30449 0.7066 0.17768 0.0
O394 O 0.32854 0.72624 0.08619 0.0
Mg395 Mg 0.33972 0.70461 0.94524 0.0
C396 C 0.31549 0.72393 0.165 0.0
C397 C 0.2639 0.68219 0.28091 0.0
O398 O 0.2607 0.70031 0.22681 0.0
O399 O 0.32463 0.65652 0.13131 0.0
O400 O 0.35049 0.67531 0.04497 0.0
O401 O 0.27429 0.70043 0.98503 0.0
O402 O 0.30717 0.68991 0.93938 0.0
C403 C 0.34449 0.65937 0.10386 0.0
C404 C 0.2909 0.70232 0.92198 0.0
O405 O 0.27571 0.66739 0.23878 0.0
Mg406 Mg 0.0737 0.54337 0.82565 0.0
O407 O 0.04384 0.55337 0.92056 0.0
O408 O 0.02463 0.578 0.83034 0.0
Mg409 Mg 0.04628 0.58915 0.68961 0.0
C410 C 0.02672 0.56468 0.90845 0.0
C411 C 0.06798 0.51233 0.02238 0.0
O412 O 0.04994 0.50922 0.96795 0.0
O413 O 0.09399 0.57328 0.87537 0.0
O414 O 0.07559 0.59956 0.7897 0.0
O415 O 0.04988 0.52332 0.72693 0.0
O416 O 0.06057 0.55634 0.68265 0.0
C417 C 0.09139 0.59328 0.84852 0.0
C418 C 0.04809 0.54012 0.6646 0.0
O419 O 0.08277 0.52419 0.98079 0.0
Mg420 Mg 0.20799 0.32296 0.59379 0.0
O421 O 0.199 0.29358 0.69765 0.0
O422 O 0.17415 0.27392 0.61097 0.0
Mg423 Mg 0.16219 0.29386 0.46637 0.0
C424 C 0.1877 0.27631 0.68778 0.0
C425 C 0.23883 0.32187 0.79791 0.0
O426 O 0.24089 0.3017 0.76411 0.0
O427 O 0.17797 0.34353 0.64034 0.0
O428 O 0.15188 0.32411 0.55933 0.0
O429 O 0.22802 0.29837 0.49822 0.0
O430 O 0.19476 0.30813 0.45583 0.0
C431 C 0.15804 0.34054 0.61437 0.0
C432 C 0.21101 0.29572 0.43844 0.0
O433 O 0.22771 0.33525 0.74189 0.0
Mg434 Mg 0.42507 0.45612 0.3328 0.0
O435 O 0.45493 0.44607 0.42737 0.0
O436 O 0.4744 0.42182 0.33625 0.0
Mg437 Mg 0.45279 0.41075 0.19495 0.0
C438 C 0.47215 0.43496 0.41497 0.0
C439 C 0.43111 0.48708 0.52882 0.0
O440 O 0.44882 0.49034 0.47214 0.0
O441 O 0.4049 0.42596 0.38087 0.0
O442 O 0.42346 0.39998 0.29393 0.0
O443 O 0.44878 0.47648 0.23519 0.0
O444 O 0.43828 0.44349 0.18921 0.0
C445 C 0.40759 0.40604 0.3528 0.0
C446 C 0.45068 0.45982 0.17211 0.0
O447 O 0.41621 0.47507 0.48901 0.0
C448 C 0.25837 0.18254 0.58307 0.0
C449 C 0.26347 0.16112 0.61445 0.0
H450 H 0.24724 0.20373 0.45816 0.0
C451 C 0.26017 0.14412 0.54014 0.0
H452 H 0.26086 0.19607 0.63763 0.0
C453 C 0.25183 0.14848 0.43708 0.0
C454 C 0.24729 0.17002 0.40522 0.0
H455 H 0.26402 0.12745 0.5617 0.0
H456 H 0.24936 0.13509 0.38169 0.0
C457 C 0.25069 0.18696 0.47956 0.0
C458 C 0.10137 0.00201 0.6857 0.0
C459 C 0.07998 0.9969 0.65474 0.0
H460 H 0.12225 0.0146 0.80985 0.0
C461 C 0.0632 0.99949 0.73037 0.0
H462 H 0.11463 1.00015 0.6293 0.0
C463 C 0.06763 0.00698 0.83422 0.0
C464 C 0.08887 0.01277 0.8646 0.0
H465 H 0.04656 0.99556 0.70966 0.0
H466 H 0.05423 0.00883 0.8898 0.0
C467 C 0.10572 0.01022 0.78908 0.0
C468 C 0.24882 0.7988 0.05787 0.0
C469 C 0.24591 0.81833 0.11513 0.0
H470 H 0.25512 0.78353 0.90733 0.0
C471 C 0.24858 0.83822 0.06012 0.0
H472 H 0.24705 0.78315 0.09715 0.0
C473 C 0.25444 0.83844 0.95063 0.0
C474 C 0.25683 0.81877 0.8934 0.0
H475 H 0.24643 0.85356 0.10198 0.0
H476 H 0.25686 0.85392 0.91059 0.0
C477 C 0.25357 0.79902 0.94836 0.0
C478 C 0.45021 0.00443 0.20939 0.0
C479 C 0.43052 0.00773 0.15445 0.0
H480 H 0.46604 0.99763 0.35792 0.0
C481 C 0.41093 0.00521 0.21158 0.0
H482 H 0.46564 0.00607 0.16844 0.0
C483 C 0.41116 0.99913 0.32086 0.0
C484 C 0.43099 0.99638 0.37579 0.0
H485 H 0.39549 0.00765 0.17157 0.0
H486 H 0.39589 0.99685 0.36259 0.0
C487 C 0.45044 0.99946 0.3187 0.0
C488 C 0.74754 0.84044 0.46272 0.0
C489 C 0.74479 0.82061 0.40722 0.0
H490 H 0.75606 0.85596 0.61245 0.0
C491 C 0.74783 0.80101 0.46376 0.0
H492 H 0.7453 0.85582 0.42141 0.0
C493 C 0.75277 0.8011 0.57309 0.0
C494 C 0.7561 0.82078 0.62856 0.0
H495 H 0.74599 0.78541 0.42408 0.0
H496 H 0.7544 0.78556 0.6136 0.0
C497 C 0.7536 0.84052 0.572 0.0
C498 C 0.91184 0.00469 0.32444 0.0
C499 C 0.93119 0.00651 0.3843 0.0
H500 H 0.89736 0.99703 0.17113 0.0
C501 C 0.95105 0.0026 0.332 0.0
H502 H 0.89628 0.00761 0.36237 0.0
C503 C 0.95171 0.9978 0.22256 0.0
C504 C 0.93249 0.99545 0.16273 0.0
H505 H 0.96629 0.00366 0.37507 0.0
H506 H 0.96745 0.99556 0.1854 0.0
C507 C 0.91246 0.99874 0.21503 0.0
C508 C 0.7523 0.20208 0.97606 0.0
C509 C 0.75515 0.18248 0.91923 0.0
H510 H 0.74593 0.2175 0.12615 0.0
C511 C 0.75232 0.16265 0.97455 0.0
H512 H 0.7542 0.21768 0.93653 0.0
C513 C 0.74634 0.16256 0.08391 0.0
C514 C 0.744 0.18229 0.14072 0.0
H515 H 0.75442 0.14727 0.93302 0.0
H516 H 0.7438 0.14712 0.1242 0.0
C517 C 0.74743 0.20197 0.08546 0.0
C518 C 0.58788 0.99826 0.81729 0.0
C519 C 0.56829 0.99586 0.87458 0.0
H520 H 0.60291 0.00638 0.66599 0.0
C521 C 0.5486 0.9991 0.81961 0.0
H522 H 0.60332 0.99586 0.85733 0.0
C523 C 0.54836 0.0039 0.71012 0.0
C524 C 0.56781 0.00688 0.65289 0.0
H525 H 0.53318 0.99755 0.86069 0.0
H526 H 0.53276 0.00571 0.6709 0.0
C527 C 0.58765 0.00418 0.70782 0.0
C528 C 0.74777 0.70237 0.96414 0.0
C529 C 0.74476 0.6827 0.90817 0.0
H530 H 0.75426 0.71802 0.11358 0.0
C531 C 0.74743 0.66294 0.96438 0.0
H532 H 0.74599 0.71792 0.9239 0.0
C533 C 0.75341 0.66301 0.07376 0.0
C534 C 0.7559 0.68282 0.1297 0.0
H535 H 0.7452 0.64751 0.92354 0.0
H536 H 0.75583 0.64762 0.11474 0.0
C537 C 0.75263 0.70243 0.07356 0.0
C538 C 0.54912 0.5028 0.30999 0.0
C539 C 0.5689 0.50609 0.36411 0.0
H540 H 0.53302 0.49608 0.16205 0.0
C541 C 0.58839 0.50372 0.306 0.0
H542 H 0.53377 0.50433 0.35172 0.0
C543 C 0.58797 0.49776 0.1966 0.0
C544 C 0.56804 0.49498 0.14254 0.0
H545 H 0.6039 0.50617 0.34536 0.0
H546 H 0.60317 0.49557 0.15414 0.0
C547 C 0.54869 0.49795 0.20057 0.0
C548 C 0.75266 0.34003 0.47652 0.0
C549 C 0.75543 0.32028 0.42037 0.0
H550 H 0.74412 0.35532 0.62675 0.0
C551 C 0.75249 0.3006 0.47633 0.0
H552 H 0.75483 0.35547 0.43568 0.0
C553 C 0.74757 0.30053 0.58567 0.0
C554 C 0.74418 0.32012 0.64173 0.0
H555 H 0.75433 0.28506 0.43612 0.0
H556 H 0.74598 0.28493 0.62565 0.0
C557 C 0.74663 0.33994 0.58582 0.0
C558 C 0.95136 0.49777 0.79978 0.0
C559 C 0.93189 0.4951 0.85725 0.0
H560 H 0.96659 0.50405 0.64925 0.0
C561 C 0.91208 0.49813 0.80253 0.0
H562 H 0.96695 0.49571 0.83884 0.0
C563 C 0.9119 0.50414 0.69315 0.0
C564 C 0.9315 0.50631 0.63574 0.0
H565 H 0.8968 0.49618 0.84454 0.0
H566 H 0.89648 0.50685 0.65336 0.0
C567 C 0.95116 0.50267 0.6904 0.0
C568 C 0.24918 0.31185 0.98574 0.0
C569 C 0.24729 0.32793 0.90576 0.0
H570 H 0.25822 0.30419 0.14731 0.0
C571 C 0.25332 0.34946 0.93094 0.0
H572 H 0.24453 0.29513 0.96944 0.0
C573 C 0.26174 0.35459 0.03298 0.0
C574 C 0.2636 0.33843 0.11288 0.0
H575 H 0.25202 0.36221 0.87103 0.0
H576 H 0.26684 0.37117 0.0493 0.0
C577 C 0.2569 0.31709 0.08824 0.0
C578 C 0.45045 0.49755 0.69726 0.0
C579 C 0.43068 0.49402 0.64347 0.0
H580 H 0.46656 0.50447 0.84495 0.0
C581 C 0.41119 0.49629 0.70176 0.0
H582 H 0.4658 0.49611 0.6554 0.0
C583 C 0.41162 0.50232 0.81107 0.0
C584 C 0.43154 0.50527 0.86488 0.0
H585 H 0.39569 0.49367 0.66264 0.0
H586 H 0.39642 0.50439 0.85373 0.0
C587 C 0.45089 0.50247 0.80661 0.0
C588 C 0.25436 0.6612 0.45046 0.0
C589 C 0.25709 0.6811 0.39558 0.0
H590 H 0.24593 0.64547 0.59977 0.0
C591 C 0.25411 0.70062 0.45282 0.0
H592 H 0.25656 0.64587 0.40862 0.0
C593 C 0.24924 0.70038 0.56221 0.0
C594 C 0.24593 0.68063 0.61707 0.0
H595 H 0.25593 0.71627 0.41366 0.0
H596 H 0.24764 0.71587 0.60325 0.0
C597 C 0.24838 0.66097 0.55982 0.0
C598 C 0.08894 0.49694 0.3019 0.0
C599 C 0.06931 0.49436 0.35863 0.0
H600 H 0.10408 0.50521 0.15105 0.0
C601 C 0.04965 0.49744 0.30311 0.0
H602 H 0.10435 0.49465 0.34237 0.0
C603 C 0.04949 0.50227 0.19365 0.0
C604 C 0.06898 0.50542 0.13697 0.0
H605 H 0.0342 0.49574 0.34375 0.0
H606 H 0.03392 0.50395 0.15402 0.0
C607 C 0.08878 0.50287 0.19245 0.0
C608 C 0.13006 0.10067 0.14065 0.0
C609 C 0.108 0.10674 0.14198 0.0
H610 H 0.16327 0.11158 0.13528 0.0
C611 C 0.10269 0.12901 0.13871 0.0
H612 H 0.13466 0.08365 0.14548 0.0
C613 C 0.1189 0.14484 0.13451 0.0
C614 C 0.14097 0.13893 0.13446 0.0
H615 H 0.08587 0.13424 0.14094 0.0
H616 H 0.11412 0.16183 0.13093 0.0
C617 C 0.14642 0.11665 0.13758 0.0
C618 C 0.14851 0.87971 0.38728 0.0
C619 C 0.14258 0.85756 0.39088 0.0
H620 H 0.13748 0.91295 0.38157 0.0
C621 C 0.12041 0.85209 0.39275 0.0
H622 H 0.16547 0.88444 0.38814 0.0
C623 C 0.10453 0.86829 0.39037 0.0
C624 C 0.11034 0.89044 0.38737 0.0
H625 H 0.1153 0.8352 0.39683 0.0
H626 H 0.08759 0.86343 0.38996 0.0
C627 C 0.13251 0.89603 0.38627 0.0
C628 C 0.39882 0.86934 0.63776 0.0
C629 C 0.39301 0.89149 0.64032 0.0
H630 H 0.38805 0.83627 0.62801 0.0
C631 C 0.37085 0.8971 0.63745 0.0
H632 H 0.41574 0.86448 0.64115 0.0
C633 C 0.35486 0.8808 0.633 0.0
C634 C 0.36079 0.85866 0.6297 0.0
H635 H 0.36587 0.91402 0.64166 0.0
H636 H 0.33792 0.88555 0.62921 0.0
C637 C 0.38295 0.85316 0.63174 0.0
C638 C 0.38015 0.15019 0.8852 0.0
C639 C 0.35808 0.14439 0.88919 0.0
H640 H 0.41308 0.13931 0.87582 0.0
C641 C 0.35246 0.12215 0.888 0.0
H642 H 0.38501 0.16717 0.88753 0.0
C643 C 0.36867 0.10606 0.88459 0.0
C644 C 0.39075 0.11197 0.88069 0.0
H645 H 0.3356 0.11718 0.89352 0.0
H646 H 0.36392 0.08906 0.88263 0.0
C647 C 0.39624 0.13422 0.88018 0.0
C648 C 0.89875 0.86981 0.88894 0.0
C649 C 0.89334 0.89207 0.88768 0.0
H650 H 0.88739 0.83692 0.89667 0.0
C651 C 0.87128 0.89806 0.8904 0.0
H652 H 0.91558 0.86465 0.88567 0.0
C653 C 0.85499 0.88203 0.8937 0.0
C654 C 0.86053 0.85978 0.89592 0.0
H655 H 0.86661 0.91508 0.88721 0.0
H656 H 0.83814 0.88706 0.89764 0.0
C657 C 0.88259 0.85391 0.89375 0.0
C658 C 0.88117 0.14955 0.64816 0.0
C659 C 0.85907 0.14382 0.647 0.0
H660 H 0.91411 0.13856 0.65419 0.0
C661 C 0.85338 0.1216 0.64813 0.0
H662 H 0.88609 0.16652 0.64596 0.0
C663 C 0.86955 0.10547 0.64966 0.0
C664 C 0.89166 0.11131 0.65169 0.0
H665 H 0.83648 0.11669 0.64487 0.0
H666 H 0.86475 0.08848 0.65238 0.0
C667 C 0.89723 0.13353 0.65126 0.0
C668 C 0.60134 0.13348 0.39497 0.0
C669 C 0.60683 0.11126 0.39136 0.0
H670 H 0.61258 0.16637 0.40658 0.0
C671 C 0.62891 0.10532 0.39417 0.0
H672 H 0.5845 0.1386 0.39168 0.0
C673 C 0.64513 0.12138 0.39963 0.0
C674 C 0.63952 0.14359 0.40403 0.0
H675 H 0.63365 0.08834 0.38921 0.0
H676 H 0.662 0.11638 0.40338 0.0
C677 C 0.61744 0.14941 0.40202 0.0
C678 C 0.60233 0.86956 0.14526 0.0
C679 C 0.60788 0.89179 0.14569 0.0
H680 H 0.61348 0.83659 0.1389 0.0
C681 C 0.62998 0.89765 0.14279 0.0
H682 H 0.58547 0.86451 0.14878 0.0
C683 C 0.64617 0.88152 0.14025 0.0
C684 C 0.64049 0.8593 0.13894 0.0
H685 H 0.63477 0.91464 0.14543 0.0
H686 H 0.66305 0.88645 0.13624 0.0
C687 C 0.61839 0.85356 0.14115 0.0
C688 C 0.6308 0.60455 0.63657 0.0
C689 C 0.60866 0.61024 0.63802 0.0
H690 H 0.66381 0.61599 0.63261 0.0
C691 C 0.60296 0.63243 0.63757 0.0
H692 H 0.63569 0.58759 0.63928 0.0
C693 C 0.61893 0.64856 0.63497 0.0
C694 C 0.64107 0.64298 0.6343 0.0
H695 H 0.58606 0.63736 0.64002 0.0
H696 H 0.61392 0.66549 0.63272 0.0
C697 C 0.64689 0.62079 0.63551 0.0
C698 C 0.60116 0.36818 0.88821 0.0
C699 C 0.60664 0.3904 0.88417 0.0
H700 H 0.61242 0.33533 0.90162 0.0
C701 C 0.62869 0.39639 0.88806 0.0
H702 H 0.58433 0.36303 0.88416 0.0
C703 C 0.64492 0.38038 0.89502 0.0
C704 C 0.63933 0.35815 0.89989 0.0
H705 H 0.63343 0.41337 0.88285 0.0
H706 H 0.66177 0.38541 0.89955 0.0
C707 C 0.61726 0.35229 0.89677 0.0
C708 C 0.85357 0.38167 0.14024 0.0
C709 C 0.8591 0.35941 0.14003 0.0
H710 H 0.86521 0.41474 0.14075 0.0
C711 C 0.88117 0.35355 0.13909 0.0
H712 H 0.8367 0.38668 0.13849 0.0
C713 C 0.89734 0.36947 0.13895 0.0
C714 C 0.89194 0.39173 0.13839 0.0
H715 H 0.88597 0.33655 0.13751 0.0
H716 H 0.91419 0.36432 0.14011 0.0
C717 C 0.86987 0.39771 0.1387 0.0
C718 C 0.88253 0.64967 0.38684 0.0
C719 C 0.86041 0.64405 0.3898 0.0
H720 H 0.91537 0.63856 0.37524 0.0
C721 C 0.85459 0.62187 0.38582 0.0
H722 H 0.88756 0.66659 0.39101 0.0
C723 C 0.87066 0.60568 0.37986 0.0
C724 C 0.89278 0.61142 0.3761 0.0
H725 H 0.83769 0.61702 0.39025 0.0
H726 H 0.86575 0.58874 0.37527 0.0
C727 C 0.89849 0.6336 0.37926 0.0
C728 C 0.39594 0.36734 0.37368 0.0
C729 C 0.39048 0.3896 0.37377 0.0
H730 H 0.38469 0.33441 0.38288 0.0
C731 C 0.36842 0.39552 0.37879 0.0
H732 H 0.41276 0.36223 0.36852 0.0
C733 C 0.35219 0.37945 0.38375 0.0
C734 C 0.3578 0.35721 0.38542 0.0
H735 H 0.36368 0.41253 0.37657 0.0
H736 H 0.33536 0.38444 0.3901 0.0
C737 C 0.37984 0.35139 0.38025 0.0
C738 C 0.39906 0.63189 0.1307 0.0
C739 C 0.3934 0.6097 0.13284 0.0
H740 H 0.38804 0.66489 0.12261 0.0
C741 C 0.37128 0.60392 0.13093 0.0
H742 H 0.41594 0.63688 0.1334 0.0
C743 C 0.35516 0.6201 0.12782 0.0
C744 C 0.36093 0.6423 0.12496 0.0
H745 H 0.36642 0.58696 0.13485 0.0
H746 H 0.33825 0.61524 0.1247 0.0
C747 C 0.38305 0.64795 0.12606 0.0
C748 C 0.11941 0.64769 0.87804 0.0
C749 C 0.14145 0.64175 0.88092 0.0
H750 H 0.08641 0.63703 0.86822 0.0
C751 C 0.14694 0.61949 0.87842 0.0
H752 H 0.11464 0.66468 0.88113 0.0
C753 C 0.13063 0.60351 0.87407 0.0
C754 C 0.10859 0.60956 0.87053 0.0
H755 H 0.16378 0.61442 0.88288 0.0
H756 H 0.13527 0.58649 0.8706 0.0
C757 C 0.10322 0.63182 0.87215 0.0
C758 C 0.1195 0.35212 0.63427 0.0
C759 C 0.14162 0.3578 0.6325 0.0
H760 H 0.08659 0.36312 0.63861 0.0
C761 C 0.14732 0.38002 0.63144 0.0
H762 H 0.11453 0.33517 0.63386 0.0
C763 C 0.13115 0.39619 0.63142 0.0
C764 C 0.10903 0.39038 0.63383 0.0
H765 H 0.16423 0.3849 0.6277 0.0
H766 H 0.13596 0.41318 0.63246 0.0
C767 C 0.10346 0.36816 0.63547 0.0
C768 C 0.19266 0.21792 0.78344 0.0
C769 C 0.20743 0.21968 0.86921 0.0
H770 H 0.17453 0.23419 0.66118 0.0
C771 C 0.21543 0.24034 0.89708 0.0
H772 H 0.18604 0.20219 0.76092 0.0
C773 C 0.20841 0.25893 0.841 0.0
C774 C 0.1934 0.25716 0.75555 0.0
H775 H 0.22638 0.24225 0.96466 0.0
H776 H 0.21462 0.27468 0.86514 0.0
C777 C 0.18575 0.23635 0.7274 0.0
C778 C 0.99216 0.95584 0.09041 0.0
C779 C 0.99442 0.94204 1.00042 0.0
H780 H 0.00817 0.97335 0.21767 0.0
C781 C 0.0154 0.9359 0.96832 0.0
H782 H 0.97621 0.96069 0.11774 0.0
C783 C 0.03358 0.94318 0.02513 0.0
C784 C 0.03131 0.95695 0.11478 0.0
H785 H 0.01786 0.92561 0.89862 0.0
H786 H 0.04953 0.93767 1.00014 0.0
C787 C 0.01043 0.96338 0.14666 0.0
C788 C 0.29626 0.74042 0.32371 0.0
C789 C 0.30979 0.74299 0.23311 0.0
H790 H 0.27902 0.75606 0.45268 0.0
C791 C 0.31562 0.76417 0.20149 0.0
H792 H 0.29162 0.72432 0.35066 0.0
C793 C 0.30837 0.78225 0.25966 0.0
C794 C 0.29494 0.77965 0.35016 0.0
H795 H 0.32566 0.76685 0.13125 0.0
H796 H 0.31364 0.79836 0.23507 0.0
C797 C 0.28876 0.75857 0.38125 0.0
C798 C 0.50889 0.04654 0.58518 0.0
C799 C 0.50632 0.05998 0.4941 0.0
H800 H 0.49331 0.02934 0.71455 0.0
C801 C 0.4852 0.06557 0.46151 0.0
H802 H 0.52496 0.04207 0.61272 0.0
C803 C 0.46719 0.05819 0.51933 0.0
C804 C 0.46979 0.04494 0.61064 0.0
H805 H 0.48252 0.0755 0.39079 0.0
H806 H 0.45113 0.0633 0.49399 0.0
C807 C 0.4908 0.03896 0.64257 0.0
C808 C 0.2068 0.73912 0.68582 0.0
C809 C 0.19375 0.74192 0.77796 0.0
H810 H 0.22384 0.75449 0.5554 0.0
C811 C 0.18878 0.7632 0.81144 0.0
H812 H 0.21079 0.72293 0.65757 0.0
C813 C 0.19634 0.78116 0.7534 0.0
C814 C 0.20919 0.77833 0.66106 0.0
H815 H 0.17917 0.76603 0.88299 0.0
H816 H 0.19168 0.79737 0.77932 0.0
C817 C 0.21458 0.75715 0.62824 0.0
C818 C 0.49191 0.96425 0.88854 0.0
C819 C 0.47088 0.95837 0.92047 0.0
H820 H 0.52605 0.96101 0.9184 0.0
C821 C 0.46823 0.94512 1.01176 0.0
H822 H 0.49445 0.97382 0.81645 0.0
C823 C 0.48622 0.93773 0.06985 0.0
C824 C 0.50736 0.94326 0.03737 0.0
H825 H 0.45215 0.94005 0.03693 0.0
H826 H 0.48352 0.92784 0.14067 0.0
C827 C 0.50997 0.95662 0.94602 0.0
C828 C 0.28076 0.23875 0.18006 0.0
C829 C 0.29181 0.21898 0.19437 0.0
H830 H 0.27832 0.27234 0.22445 0.0
C831 C 0.30863 0.21788 0.27083 0.0
H832 H 0.2679 0.24015 0.12093 0.0
C833 C 0.31489 0.23634 0.32889 0.0
C834 C 0.30444 0.25638 0.3121 0.0
H835 H 0.31742 0.2028 0.28367 0.0
H836 H 0.32801 0.23488 0.38648 0.0
C837 C 0.28704 0.25727 0.23818 0.0
C838 C 0.0079 0.03708 0.40341 0.0
C839 C 0.02884 0.04374 0.43322 0.0
H840 H 0.97375 0.03987 0.43314 0.0
C841 C 0.03128 0.05811 0.52046 0.0
H842 H 0.00548 0.0266 0.33431 0.0
C843 C 0.01318 0.0657 0.57709 0.0
C844 C 0.99214 0.05926 0.547 0.0
H845 H 0.04728 0.06379 0.54387 0.0
H846 H 0.01574 0.07643 0.64506 0.0
C847 C 0.98974 0.04493 0.45915 0.0
C848 C 0.80704 0.78397 0.26357 0.0
C849 C 0.79363 0.78139 0.17291 0.0
H850 H 0.82446 0.76854 0.39153 0.0
C851 C 0.78747 0.76032 0.14161 0.0
H852 H 0.8123 0.80007 0.28838 0.0
C853 C 0.79502 0.74215 0.1989 0.0
C854 C 0.80862 0.7447 0.28932 0.0
H855 H 0.77773 0.75782 0.07011 0.0
H856 H 0.79042 0.72605 0.17175 0.0
C857 C 0.81438 0.76588 0.32134 0.0
C858 C 0.00771 0.03982 0.96944 0.0
C859 C 0.00641 0.05623 0.04887 0.0
H860 H 0.99092 0.02148 0.84768 0.0
C861 C 0.98612 0.06572 0.07011 0.0
H862 H 0.02301 0.03188 0.95194 0.0
C863 C 0.96778 0.05944 1.01177 0.0
C864 C 0.96921 0.04357 0.93039 0.0
H865 H 0.98434 0.07801 0.132 0.0
H866 H 0.95248 0.06747 0.02859 0.0
C867 C 0.98928 0.03353 0.91084 0.0
C868 C 0.70536 0.26049 0.7131 0.0
C869 C 0.69165 0.25796 0.80304 0.0
H870 H 0.72268 0.24481 0.58451 0.0
C871 C 0.6857 0.23679 0.83444 0.0
H872 H 0.7101 0.27657 0.68639 0.0
C873 C 0.69296 0.2187 0.77643 0.0
C874 C 0.70647 0.22127 0.68622 0.0
H875 H 0.67553 0.23415 0.90422 0.0
H876 H 0.68755 0.20262 0.80067 0.0
C877 C 0.71284 0.24232 0.65565 0.0
C878 C 0.5141 0.93823 0.56938 0.0
C879 C 0.49295 0.94376 0.53697 0.0
H880 H 0.54815 0.94052 0.53633 0.0
C881 C 0.49031 0.95716 0.44576 0.0
H882 H 0.51682 0.92833 0.64017 0.0
C883 C 0.50835 0.96474 0.38807 0.0
C884 C 0.52939 0.9588 0.41977 0.0
H885 H 0.47423 0.96158 0.41831 0.0
H886 H 0.50579 0.97431 0.31599 0.0
C887 C 0.53207 0.9456 0.5112 0.0
C888 C 0.81227 0.23757 0.22251 0.0
C889 C 0.80739 0.25886 0.25621 0.0
H890 H 0.80941 0.20339 0.25487 0.0
C891 C 0.79459 0.26167 0.34919 0.0
H892 H 0.82169 0.23472 0.1504 0.0
C893 C 0.78691 0.24364 0.40715 0.0
C894 C 0.79216 0.22245 0.37396 0.0
H895 H 0.79069 0.27786 0.3777 0.0
H896 H 0.77781 0.24631 0.4805 0.0
C897 C 0.80483 0.21961 0.28102 0.0
C898 C 0.48877 0.04723 0.08356 0.0
C899 C 0.49135 0.06082 0.99302 0.0
H900 H 0.50431 0.02978 0.21228 0.0
C901 C 0.51248 0.06663 0.96148 0.0
H902 H 0.47271 0.04261 0.1105 0.0
C903 C 0.53047 0.05925 0.01954 0.0
C904 C 0.52786 0.04571 0.10983 0.0
H905 H 0.51517 0.07672 0.89133 0.0
H906 H 0.54654 0.06449 0.99497 0.0
C907 C 0.50684 0.03959 0.14096 0.0
C908 C 0.69394 0.78323 0.77186 0.0
C909 C 0.70709 0.78058 0.8634 0.0
H910 H 0.67681 0.76789 0.64264 0.0
C911 C 0.71291 0.75946 0.8955 0.0
H912 H 0.68892 0.79937 0.74651 0.0
C913 C 0.70535 0.74133 0.83788 0.0
C914 C 0.69209 0.74396 0.74626 0.0
H915 H 0.72241 0.75692 0.96776 0.0
H916 H 0.70971 0.7252 0.86556 0.0
C917 C 0.68661 0.76517 0.71367 0.0
C918 C 0.98974 0.93688 0.47383 0.0
C919 C 0.01072 0.94371 0.50284 0.0
H920 H 0.95574 0.93801 0.50833 0.0
C921 C 0.01301 0.95822 0.5902 0.0
H922 H 0.98721 0.92611 0.40601 0.0
C923 C 0.99478 0.96548 0.64769 0.0
C924 C 0.97393 0.95822 0.61935 0.0
H925 H 0.02892 0.96381 0.61488 0.0
H926 H 0.99708 0.97598 0.71681 0.0
C927 C 0.97163 0.94403 0.53135 0.0
C928 C 0.68722 0.73754 0.21357 0.0
C929 C 0.69238 0.7588 0.24678 0.0
H930 H 0.68993 0.70336 0.24579 0.0
C931 C 0.70552 0.76153 0.33871 0.0
H932 H 0.67754 0.73474 0.1422 0.0
C933 C 0.71323 0.74346 0.39627 0.0
C934 C 0.70768 0.7223 0.36366 0.0
H935 H 0.70965 0.77771 0.36676 0.0
H936 H 0.72259 0.74608 0.4689 0.0
C937 C 0.69472 0.71954 0.27158 0.0
C938 C 0.48866 0.4545 0.57293 0.0
C939 C 0.49115 0.44066 0.4832 0.0
H940 H 0.50429 0.47211 0.70086 0.0
C941 C 0.51224 0.43456 0.45241 0.0
H942 H 0.47263 0.45935 0.59931 0.0
C943 C 0.53027 0.44189 0.51038 0.0
C944 C 0.52774 0.45568 0.59982 0.0
H945 H 0.51487 0.42426 0.38292 0.0
H946 H 0.5463 0.43643 0.48638 0.0
C947 C 0.50676 0.46209 0.6302 0.0
C948 C 0.80386 0.28352 0.78064 0.0
C949 C 0.79144 0.28063 0.87436 0.0
H950 H 0.82072 0.26848 0.64987 0.0
C951 C 0.78651 0.25941 0.90839 0.0
H952 H 0.80818 0.29976 0.75377 0.0
C953 C 0.79432 0.24141 0.85062 0.0
C954 C 0.80696 0.24428 0.75716 0.0
H955 H 0.7776 0.25672 0.9823 0.0
H956 H 0.79069 0.2252 0.87975 0.0
C957 C 0.81146 0.26559 0.72247 0.0
C958 C 0.99168 0.53784 0.12277 0.0
C959 C 0.97084 0.54487 0.09334 0.0
H960 H 0.02583 0.53975 0.09106 0.0
C961 C 0.96855 0.55887 1.00452 0.0
H962 H 0.99398 0.52761 0.19282 0.0
C963 C 0.98669 0.56586 0.94648 0.0
C964 C 0.00765 0.55917 0.97648 0.0
H965 H 0.95264 0.56478 0.98112 0.0
H966 H 0.98423 0.57637 0.87762 0.0
C967 C 0.0099 0.54507 0.06535 0.0
C968 C 0.71254 0.25975 0.1564 0.0
C969 C 0.70596 0.28076 0.18645 0.0
H970 H 0.71009 0.2255 0.18762 0.0
C971 C 0.69229 0.28325 0.27614 0.0
H972 H 0.7225 0.25731 0.08563 0.0
C973 C 0.68515 0.26513 0.33435 0.0
C974 C 0.69136 0.24401 0.30358 0.0
H975 H 0.6867 0.2993 0.29993 0.0
H976 H 0.67488 0.26773 0.40382 0.0
C977 C 0.70516 0.24156 0.21395 0.0
C978 C 0.9694 0.44532 0.49466 0.0
C979 C 0.9723 0.45795 0.40146 0.0
H980 H 0.98435 0.42814 0.6248 0.0
C981 C 0.99347 0.46281 0.36738 0.0
H982 H 0.95321 0.44104 0.52156 0.0
C983 C 0.01138 0.4548 0.4248 0.0
C984 C 0.00849 0.44202 0.51796 0.0
H985 H 0.99617 0.47187 0.29384 0.0
H986 H 0.02755 0.45844 0.39578 0.0
C987 C 0.98724 0.43752 0.55246 0.0
C988 C 0.78784 0.74349 0.64291 0.0
C989 C 0.79437 0.72247 0.67311 0.0
H990 H 0.79033 0.77775 0.67419 0.0
C991 C 0.80804 0.71997 0.76285 0.0
H992 H 0.77788 0.74594 0.5721 0.0
C993 C 0.8152 0.73808 0.82109 0.0
C994 C 0.80902 0.75922 0.79032 0.0
H995 H 0.81358 0.70391 0.78676 0.0
H996 H 0.82545 0.73547 0.89067 0.0
C997 C 0.79524 0.76168 0.70051 0.0
C998 C 0.53279 0.55589 1.00077 0.0
C999 C 0.53012 0.54284 0.90882 0.0
H1000 H 0.51756 0.57305 0.13008 0.0
C1001 C 0.50906 0.53706 0.8765 0.0
H1002 H 0.54889 0.56085 0.02638 0.0
C1003 C 0.49101 0.54465 0.93416 0.0
C1004 C 0.49367 0.5579 0.02589 0.0
H1005 H 0.5065 0.52762 0.80401 0.0
H1006 H 0.47492 0.54036 0.9063 0.0
C1007 C 0.51482 0.56327 0.05887 0.0
C1008 C 0.28722 0.24443 0.73862 0.0
C1009 C 0.30471 0.24528 0.81204 0.0
H1010 H 0.26797 0.2616 0.6221 0.0
C1011 C 0.31525 0.2653 0.82847 0.0
H1012 H 0.27842 0.22938 0.72517 0.0
C1013 C 0.30897 0.28377 0.77062 0.0
C1014 C 0.29203 0.28272 0.6948 0.0
H1015 H 0.32845 0.26672 0.88566 0.0
H1016 H 0.31783 0.29883 0.7832 0.0
C1017 C 0.28091 0.26297 0.68076 0.0
C1018 C 0.51103 0.5454 0.43471 0.0
C1019 C 0.5083 0.55855 0.52672 0.0
H1020 H 0.49564 0.52825 0.30452 0.0
C1021 C 0.48712 0.56376 0.55971 0.0
H1022 H 0.52714 0.54126 0.4067 0.0
C1023 C 0.46919 0.55625 0.50152 0.0
C1024 C 0.47194 0.5432 0.40963 0.0
H1025 H 0.48434 0.57348 0.63104 0.0
H1026 H 0.45306 0.56108 0.52712 0.0
C1027 C 0.49303 0.53765 0.37711 0.0
C1028 C 0.20682 0.75907 0.18724 0.0
C1029 C 0.19344 0.75651 0.27836 0.0
H1030 H 0.2239 0.74342 0.05774 0.0
C1031 C 0.18772 0.73531 0.31041 0.0
H1032 H 0.21136 0.77517 0.15993 0.0
C1033 C 0.19494 0.71723 0.25217 0.0
C1034 C 0.20822 0.71983 0.16113 0.0
H1035 H 0.1778 0.73264 0.38104 0.0
H1036 H 0.18974 0.70112 0.27708 0.0
C1037 C 0.21429 0.74091 0.1296 0.0
C1038 C 0.03205 0.44398 0.99336 0.0
C1039 C 0.02939 0.45699 0.90123 0.0
H1040 H 0.01682 0.42697 0.12313 0.0
C1041 C 0.00833 0.46264 0.86852 0.0
H1042 H 0.04815 0.4391 0.01923 0.0
C1043 C 0.99028 0.45507 0.92627 0.0
C1044 C 0.99292 0.44197 0.01853 0.0
H1045 H 0.00578 0.47203 0.79584 0.0
H1046 H 0.97419 0.45933 0.89828 0.0
C1047 C 0.01408 0.43664 0.05158 0.0
C1048 C 0.30748 0.71849 0.75888 0.0
C1049 C 0.29434 0.72117 0.85035 0.0
H1050 H 0.32474 0.7338 0.6301 0.0
C1051 C 0.28857 0.74229 0.88251 0.0
H1052 H 0.31244 0.70234 0.73345 0.0
C1053 C 0.29623 0.76041 0.82513 0.0
C1054 C 0.30953 0.75776 0.73378 0.0
H1055 H 0.27907 0.74486 0.95467 0.0
H1056 H 0.29192 0.77655 0.85288 0.0
C1057 C 0.31492 0.73653 0.701 0.0
C1058 C 0.01398 0.5649 0.44536 0.0
C1059 C 0.99285 0.55915 0.477 0.0
H1060 H 0.04804 0.5626 0.47844 0.0
C1061 C 0.99024 0.54539 0.56694 0.0
H1062 H 0.01668 0.57509 0.37556 0.0
C1063 C 0.0083 0.53765 0.62404 0.0
C1064 C 0.02933 0.54378 0.59306 0.0
H1065 H 0.97417 0.54079 0.59381 0.0
H1066 H 0.00576 0.52777 0.69511 0.0
C1067 C 0.03196 0.55737 0.50298 0.0
C1068 C 0.19269 0.27843 0.28311 0.0
C1069 C 0.2075 0.27656 0.36865 0.0
H1070 H 0.17441 0.26229 0.16086 0.0
C1071 C 0.21544 0.25586 0.3961 0.0
H1072 H 0.18612 0.2942 0.26093 0.0
C1073 C 0.2083 0.23734 0.33987 0.0
C1074 C 0.19324 0.23921 0.25468 0.0
H1075 H 0.22642 0.25388 0.46348 0.0
H1076 H 0.21447 0.22155 0.36365 0.0
C1077 C 0.18567 0.26006 0.22688 0.0
C1078 C 0.46701 0.44283 1.01038 0.0
C1079 C 0.4695 0.4564 0.10065 0.0
H1080 H 0.48248 0.42537 0.88278 0.0
C1081 C 0.49045 0.46281 0.13162 0.0
H1082 H 0.451 0.43741 0.98575 0.0
C1083 C 0.5086 0.45534 0.07436 0.0
C1084 C 0.50614 0.44158 0.98433 0.0
H1085 H 0.49288 0.4727 0.20276 0.0
H1086 H 0.52462 0.46014 0.10118 0.0
C1087 C 0.48507 0.43556 0.95268 0.0
loop_
_geom_bond_atom_site_label_1
_geom_bond_atom_site_label_2
_geom_bond_distance
_geom_bond_site_symmetry_2
_ccdc_geom_bond_type
Mg0 O1 2.028 . S
Mg0 O7 1.986 . S
Mg0 O9 2.114 . S
Mg0 O10 2.251 . S
Mg0 O13 2.010 . S
O1 Mg0 2.028 . S
O1 C4 1.250 . S
O2 Mg3 2.028 . S
O2 C4 1.248 . S
Mg3 O2 2.028 . S
Mg3 O8 2.032 . S
Mg3 O10 2.079 . S
C4 O1 1.250 . S
C4 O2 1.248 . S
C5 O6 1.264 . S
C5 O13 1.249 . S
O6 C5 1.264 . S
O7 Mg0 1.986 . S
O7 C11 1.246 . S
O8 Mg3 2.032 . S
O8 C11 1.259 . S
O9 Mg0 2.114 . S
O9 C12 1.252 . S
O10 Mg0 2.251 . S
O10 Mg3 2.079 . S
O10 C12 1.273 . S
C11 O7 1.246 . S
C11 O8 1.259 . S
C12 O9 1.252 . S
C12 O10 1.273 . S
O13 Mg0 2.010 . S
O13 C5 1.249 . S
Mg14 O15 2.028 . S
Mg14 O21 1.986 . S
Mg14 O23 2.114 . S
Mg14 O24 2.251 . S
Mg14 O27 2.010 . S
O15 Mg14 2.028 . S
O15 C18 1.250 . S
O16 Mg17 2.028 . S
O16 C18 1.248 . S
Mg17 O16 2.028 . S
Mg17 O22 2.032 . S
Mg17 O24 2.079 . S
C18 O15 1.250 . S
C18 O16 1.248 . S
C19 O20 1.264 . S
C19 O27 1.249 . S
O20 C19 1.264 . S
O21 Mg14 1.986 . S
O21 C25 1.246 . S
O22 Mg17 2.032 . S
O22 C25 1.259 . S
O23 Mg14 2.114 . S
O23 C26 1.252 . S
O24 Mg14 2.251 . S
O24 Mg17 2.079 . S
O24 C26 1.273 . S
C25 O21 1.246 . S
C25 O22 1.259 . S
C26 O23 1.252 . S
C26 O24 1.273 . S
O27 Mg14 2.010 . S
O27 C19 1.249 . S
Mg28 O29 2.028 . S
Mg28 O35 1.986 . S
Mg28 O37 2.114 . S
Mg28 O38 2.251 . S
Mg28 O41 2.010 . S
O29 Mg28 2.028 . S
O29 C32 1.250 . S
O30 Mg31 2.028 . S
O30 C32 1.248 . S
Mg31 O30 2.028 . S
Mg31 O36 2.032 . S
Mg31 O38 2.079 . S
C32 O29 1.250 . S
C32 O30 1.248 . S
C33 O34 1.264 . S
C33 O41 1.249 . S
O34 C33 1.264 . S
O35 Mg28 1.986 . S
O35 C39 1.246 . S
O36 Mg31 2.032 . S
O36 C39 1.259 . S
O37 Mg28 2.114 . S
O37 C40 1.252 . S
O38 Mg28 2.251 . S
O38 Mg31 2.079 . S
O38 C40 1.273 . S
C39 O35 1.246 . S
C39 O36 1.259 . S
C40 O37 1.252 . S
C40 O38 1.273 . S
O41 Mg28 2.010 . S
O41 C33 1.249 . S
Mg42 O43 2.028 1_556 S
Mg42 O49 1.986 . S
Mg42 O51 2.114 . S
Mg42 O52 2.251 . S
Mg42 O55 2.010 1_556 S
O43 Mg42 2.028 1_554 S
O43 C46 1.250 . S
O44 Mg45 2.028 1_554 S
O44 C46 1.248 . S
Mg45 O44 2.028 1_556 S
Mg45 O50 2.032 . S
Mg45 O52 2.079 . S
C46 O43 1.250 . S
C46 O44 1.248 . S
C47 O48 1.264 1_554 S
C47 O55 1.249 . S
O48 C47 1.264 1_556 S
O49 Mg42 1.986 . S
O49 C53 1.246 . S
O50 Mg45 2.032 . S
O50 C53 1.259 . S
O51 Mg42 2.114 . S
O51 C54 1.252 . S
O52 Mg42 2.251 . S
O52 Mg45 2.079 . S
O52 C54 1.273 . S
C53 O49 1.246 . S
C53 O50 1.259 . S
C54 O51 1.252 . S
C54 O52 1.273 . S
O55 Mg42 2.010 1_554 S
O55 C47 1.249 . S
Mg56 O57 2.028 . S
Mg56 O63 1.986 . S
Mg56 O65 2.114 . S
Mg56 O66 2.251 . S
Mg56 O69 2.010 . S
O57 Mg56 2.028 . S
O57 C60 1.250 . S
O58 Mg59 2.028 . S
O58 C60 1.248 . S
Mg59 O58 2.028 . S
Mg59 O64 2.032 . S
Mg59 O66 2.079 . S
C60 O57 1.250 . S
C60 O58 1.248 . S
C61 O62 1.264 . S
C61 O69 1.249 . S
O62 C61 1.264 . S
O63 Mg56 1.986 . S
O63 C67 1.246 . S
O64 Mg59 2.032 . S
O64 C67 1.259 . S
O65 Mg56 2.114 . S
O65 C68 1.252 . S
O66 Mg56 2.251 . S
O66 Mg59 2.079 . S
O66 C68 1.273 . S
C67 O63 1.246 . S
C67 O64 1.259 . S
C68 O65 1.252 . S
C68 O66 1.273 . S
O69 Mg56 2.010 . S
O69 C61 1.249 . S
Mg70 O71 2.028 . S
Mg70 O77 1.986 . S
Mg70 O79 2.114 . S
Mg70 O80 2.251 . S
Mg70 O83 2.010 . S
O71 Mg70 2.028 . S
O71 C74 1.250 . S
O72 Mg73 2.028 . S
O72 C74 1.248 . S
Mg73 O72 2.028 . S
Mg73 O78 2.032 . S
Mg73 O80 2.079 . S
C74 O71 1.250 . S
C74 O72 1.248 . S
C75 O76 1.264 . S
C75 O83 1.249 . S
O76 C75 1.264 . S
O77 Mg70 1.986 . S
O77 C81 1.246 . S
O78 Mg73 2.032 . S
O78 C81 1.259 . S
O79 Mg70 2.114 . S
O79 C82 1.252 . S
O80 Mg70 2.251 . S
O80 Mg73 2.079 . S
O80 C82 1.273 . S
C81 O77 1.246 . S
C81 O78 1.259 . S
C82 O79 1.252 . S
C82 O80 1.273 . S
O83 Mg70 2.010 . S
O83 C75 1.249 . S
Mg84 O85 2.028 . S
Mg84 O91 1.986 . S
Mg84 O93 2.114 . S
Mg84 O94 2.251 . S
Mg84 O97 2.010 . S
O85 Mg84 2.028 . S
O85 C88 1.250 . S
O86 Mg87 2.028 . S
O86 C88 1.248 . S
Mg87 O86 2.028 . S
Mg87 O92 2.032 . S
Mg87 O94 2.079 . S
C88 O85 1.250 . S
C88 O86 1.248 . S
C89 O90 1.264 . S
C89 O97 1.249 . S
O90 C89 1.264 . S
O91 Mg84 1.986 . S
O91 C95 1.246 . S
O92 Mg87 2.032 . S
O92 C95 1.259 . S
O93 Mg84 2.114 . S
O93 C96 1.252 . S
O94 Mg84 2.251 . S
O94 Mg87 2.079 . S
O94 C96 1.273 . S
C95 O91 1.246 . S
C95 O92 1.259 . S
C96 O93 1.252 . S
C96 O94 1.273 . S
O97 Mg84 2.010 . S
O97 C89 1.249 . S
Mg98 O99 2.028 1_554 S
Mg98 O105 1.986 . S
Mg98 O107 2.114 . S
Mg98 O108 2.251 . S
Mg98 O111 2.010 1_554 S
O99 Mg98 2.028 1_556 S
O99 C102 1.250 . S
O100 Mg101 2.028 1_556 S
O100 C102 1.248 . S
Mg101 O100 2.028 1_554 S
Mg101 O106 2.032 . S
Mg101 O108 2.079 . S
C102 O99 1.250 . S
C102 O100 1.248 . S
C103 O104 1.264 1_556 S
C103 O111 1.249 . S
O104 C103 1.264 1_554 S
O105 Mg98 1.986 . S
O105 C109 1.246 . S
O106 Mg101 2.032 . S
O106 C109 1.259 . S
O107 Mg98 2.114 . S
O107 C110 1.252 . S
O108 Mg98 2.251 . S
O108 Mg101 2.079 . S
O108 C110 1.273 . S
C109 O105 1.246 . S
C109 O106 1.259 . S
C110 O107 1.252 . S
C110 O108 1.273 . S
O111 Mg98 2.010 1_556 S
O111 C103 1.249 . S
Mg112 O113 2.028 . S
Mg112 O119 1.986 . S
Mg112 O121 2.114 . S
Mg112 O122 2.251 . S
Mg112 O125 2.010 . S
O113 Mg112 2.028 . S
O113 C116 1.250 . S
O114 Mg115 2.028 . S
O114 C116 1.248 . S
Mg115 O114 2.028 . S
Mg115 O120 2.032 . S
Mg115 O122 2.079 . S
C116 O113 1.250 . S
C116 O114 1.248 . S
C117 O118 1.264 . S
C117 O125 1.249 . S
O118 C117 1.264 . S
O119 Mg112 1.986 . S
O119 C123 1.246 . S
O120 Mg115 2.032 . S
O120 C123 1.259 . S
O121 Mg112 2.114 . S
O121 C124 1.252 . S
O122 Mg112 2.251 . S
O122 Mg115 2.079 . S
O122 C124 1.273 . S
C123 O119 1.246 . S
C123 O120 1.259 . S
C124 O121 1.252 . S
C124 O122 1.273 . S
O125 Mg112 2.010 . S
O125 C117 1.249 . S
Mg126 O127 2.028 . S
Mg126 O133 1.986 . S
Mg126 O135 2.114 . S
Mg126 O136 2.251 . S
Mg126 O139 2.010 . S
O127 Mg126 2.028 . S
O127 C130 1.250 . S
O128 Mg129 2.028 . S
O128 C130 1.248 . S
Mg129 O128 2.028 . S
Mg129 O134 2.032 . S
Mg129 O136 2.079 . S
C130 O127 1.250 . S
C130 O128 1.248 . S
C131 O132 1.264 . S
C131 O139 1.249 . S
O132 C131 1.264 . S
O133 Mg126 1.986 . S
O133 C137 1.246 . S
O134 Mg129 2.032 . S
O134 C137 1.259 . S
O135 Mg126 2.114 . S
O135 C138 1.252 . S
O136 Mg126 2.251 . S
O136 Mg129 2.079 . S
O136 C138 1.273 . S
C137 O133 1.246 . S
C137 O134 1.259 . S
C138 O135 1.252 . S
C138 O136 1.273 . S
O139 Mg126 2.010 . S
O139 C131 1.249 . S
Mg140 O141 2.028 . S
Mg140 O147 1.986 . S
Mg140 O149 2.114 . S
Mg140 O150 2.251 . S
Mg140 O153 2.010 . S
O141 Mg140 2.028 . S
O141 C144 1.250 . S
O142 Mg143 2.028 . S
O142 C144 1.248 . S
Mg143 O142 2.028 . S
Mg143 O148 2.032 . S
Mg143 O150 2.079 . S
C144 O141 1.250 . S
C144 O142 1.248 . S
C145 O146 1.264 . S
C145 O153 1.249 . S
O146 C145 1.264 . S
O147 Mg140 1.986 . S
O147 C151 1.246 . S
O148 Mg143 2.032 . S
O148 C151 1.259 . S
O149 Mg140 2.114 . S
O149 C152 1.252 . S
O150 Mg140 2.251 . S
O150 Mg143 2.079 . S
O150 C152 1.273 . S
C151 O147 1.246 . S
C151 O148 1.259 . S
C152 O149 1.252 . S
C152 O150 1.273 . S
O153 Mg140 2.010 . S
O153 C145 1.249 . S
Mg154 O155 2.028 1_554 S
Mg154 O161 1.986 . S
Mg154 O163 2.114 . S
Mg154 O164 2.251 . S
Mg154 O167 2.010 1_554 S
O155 Mg154 2.028 1_556 S
O155 C158 1.250 . S
O156 Mg157 2.028 1_556 S
O156 C158 1.248 . S
Mg157 O156 2.028 1_554 S
Mg157 O162 2.032 . S
Mg157 O164 2.079 . S
C158 O155 1.250 . S
C158 O156 1.248 . S
C159 O160 1.264 1_556 S
C159 O167 1.249 . S
O160 C159 1.264 1_554 S
O161 Mg154 1.986 . S
O161 C165 1.246 . S
O162 Mg157 2.032 . S
O162 C165 1.259 . S
O163 Mg154 2.114 . S
O163 C166 1.252 . S
O164 Mg154 2.251 . S
O164 Mg157 2.079 . S
O164 C166 1.273 . S
C165 O161 1.246 . S
C165 O162 1.259 . S
C166 O163 1.252 . S
C166 O164 1.273 . S
O167 Mg154 2.010 1_556 S
O167 C159 1.249 . S
Mg168 O169 2.028 . S
Mg168 O175 1.986 . S
Mg168 O177 2.114 . S
Mg168 O178 2.251 . S
Mg168 O181 2.010 . S
O169 Mg168 2.028 . S
O169 C172 1.250 . S
O170 Mg171 2.028 . S
O170 C172 1.248 . S
Mg171 O170 2.028 . S
Mg171 O176 2.032 . S
Mg171 O178 2.079 . S
C172 O169 1.250 . S
C172 O170 1.248 . S
C173 O174 1.264 . S
C173 O181 1.249 . S
O174 C173 1.264 . S
O175 Mg168 1.986 . S
O175 C179 1.246 . S
O176 Mg171 2.032 . S
O176 C179 1.259 . S
O177 Mg168 2.114 . S
O177 C180 1.252 . S
O178 Mg168 2.251 . S
O178 Mg171 2.079 . S
O178 C180 1.273 . S
C179 O175 1.246 . S
C179 O176 1.259 . S
C180 O177 1.252 . S
C180 O178 1.273 . S
O181 Mg168 2.010 . S
O181 C173 1.249 . S
Mg182 O183 2.028 . S
Mg182 O189 1.986 . S
Mg182 O191 2.114 . S
Mg182 O192 2.251 . S
Mg182 O195 2.010 . S
O183 Mg182 2.028 . S
O183 C186 1.250 . S
O184 Mg185 2.028 . S
O184 C186 1.248 . S
Mg185 O184 2.028 . S
Mg185 O190 2.032 . S
Mg185 O192 2.079 . S
C186 O183 1.250 . S
C186 O184 1.248 . S
C187 O188 1.264 . S
C187 O195 1.249 . S
O188 C187 1.264 . S
O189 Mg182 1.986 . S
O189 C193 1.246 . S
O190 Mg185 2.032 . S
O190 C193 1.259 . S
O191 Mg182 2.114 . S
O191 C194 1.252 . S
O192 Mg182 2.251 . S
O192 Mg185 2.079 . S
O192 C194 1.273 . S
C193 O189 1.246 . S
C193 O190 1.259 . S
C194 O191 1.252 . S
C194 O192 1.273 . S
O195 Mg182 2.010 . S
O195 C187 1.249 . S
Mg196 O197 2.028 . S
Mg196 O203 1.986 . S
Mg196 O205 2.114 . S
Mg196 O206 2.251 . S
Mg196 O209 2.010 . S
O197 Mg196 2.028 . S
O197 C200 1.250 . S
O198 Mg199 2.028 . S
O198 C200 1.248 . S
Mg199 O198 2.028 . S
Mg199 O204 2.032 . S
Mg199 O206 2.079 . S
C200 O197 1.250 . S
C200 O198 1.248 . S
C201 O202 1.264 . S
C201 O209 1.249 . S
O202 C201 1.264 . S
O203 Mg196 1.986 . S
O203 C207 1.246 . S
O204 Mg199 2.032 . S
O204 C207 1.259 . S
O205 Mg196 2.114 . S
O205 C208 1.252 . S
O206 Mg196 2.251 . S
O206 Mg199 2.079 . S
O206 C208 1.273 . S
C207 O203 1.246 . S
C207 O204 1.259 . S
C208 O205 1.252 . S
C208 O206 1.273 . S
O209 Mg196 2.010 . S
O209 C201 1.249 . S
Mg210 O211 2.028 1_556 S
Mg210 O217 1.986 . S
Mg210 O219 2.114 . S
Mg210 O220 2.251 . S
Mg210 O223 2.010 1_556 S
O211 Mg210 2.028 1_554 S
O211 C214 1.250 . S
O212 Mg213 2.028 1_554 S
O212 C214 1.248 . S
Mg213 O212 2.028 1_556 S
Mg213 O218 2.032 . S
Mg213 O220 2.079 . S
C214 O211 1.250 . S
C214 O212 1.248 . S
C215 O216 1.264 1_554 S
C215 O223 1.249 . S
O216 C215 1.264 1_556 S
O217 Mg210 1.986 . S
O217 C221 1.246 . S
O218 Mg213 2.032 . S
O218 C221 1.259 . S
O219 Mg210 2.114 . S
O219 C222 1.252 . S
O220 Mg210 2.251 . S
O220 Mg213 2.079 . S
O220 C222 1.273 . S
C221 O217 1.246 . S
C221 O218 1.259 . S
C222 O219 1.252 . S
C222 O220 1.273 . S
O223 Mg210 2.010 1_554 S
O223 C215 1.249 . S
Mg224 O225 2.028 . S
Mg224 O231 1.986 . S
Mg224 O233 2.114 . S
Mg224 O234 2.251 . S
Mg224 O237 2.010 . S
O225 Mg224 2.028 . S
O225 C228 1.250 . S
O226 Mg227 2.028 . S
O226 C228 1.248 . S
Mg227 O226 2.028 . S
Mg227 O232 2.032 . S
Mg227 O234 2.079 . S
C228 O225 1.250 . S
C228 O226 1.248 . S
C229 O230 1.264 . S
C229 O237 1.249 . S
O230 C229 1.264 . S
O231 Mg224 1.986 . S
O231 C235 1.246 . S
O232 Mg227 2.032 . S
O232 C235 1.259 . S
O233 Mg224 2.114 . S
O233 C236 1.252 . S
O234 Mg224 2.251 . S
O234 Mg227 2.079 . S
O234 C236 1.273 . S
C235 O231 1.246 . S
C235 O232 1.259 . S
C236 O233 1.252 . S
C236 O234 1.273 . S
O237 Mg224 2.010 . S
O237 C229 1.249 . S
Mg238 O239 2.028 1_556 S
Mg238 O245 1.986 . S
Mg238 O247 2.114 . S
Mg238 O248 2.251 . S
Mg238 O251 2.010 1_556 S
O239 Mg238 2.028 1_554 S
O239 C242 1.250 . S
O240 Mg241 2.028 1_554 S
O240 C242 1.248 . S
Mg241 O240 2.028 1_556 S
Mg241 O246 2.032 . S
Mg241 O248 2.079 . S
C242 O239 1.250 . S
C242 O240 1.248 . S
C243 O244 1.264 1_554 S
C243 O251 1.249 . S
O244 C243 1.264 1_556 S
O245 Mg238 1.986 . S
O245 C249 1.246 . S
O246 Mg241 2.032 . S
O246 C249 1.259 . S
O247 Mg238 2.114 . S
O247 C250 1.252 . S
O248 Mg238 2.251 . S
O248 Mg241 2.079 . S
O248 C250 1.273 . S
C249 O245 1.246 . S
C249 O246 1.259 . S
C250 O247 1.252 . S
C250 O248 1.273 . S
O251 Mg238 2.010 1_554 S
O251 C243 1.249 . S
Mg252 O253 2.028 . S
Mg252 O259 1.986 . S
Mg252 O261 2.114 . S
Mg252 O262 2.251 . S
Mg252 O265 2.010 . S
O253 Mg252 2.028 . S
O253 C256 1.250 . S
O254 Mg255 2.028 . S
O254 C256 1.248 . S
Mg255 O254 2.028 . S
Mg255 O260 2.032 . S
Mg255 O262 2.079 . S
C256 O253 1.250 . S
C256 O254 1.248 . S
C257 O258 1.264 . S
C257 O265 1.249 . S
O258 C257 1.264 . S
O259 Mg252 1.986 . S
O259 C263 1.246 . S
O260 Mg255 2.032 . S
O260 C263 1.259 . S
O261 Mg252 2.114 . S
O261 C264 1.252 . S
O262 Mg252 2.251 . S
O262 Mg255 2.079 . S
O262 C264 1.273 . S
C263 O259 1.246 . S
C263 O260 1.259 . S
C264 O261 1.252 . S
C264 O262 1.273 . S
O265 Mg252 2.010 . S
O265 C257 1.249 . S
Mg266 O267 2.028 . S
Mg266 O273 1.986 . S
Mg266 O275 2.114 . S
Mg266 O276 2.251 . S
Mg266 O279 2.010 . S
O267 Mg266 2.028 . S
O267 C270 1.250 . S
O268 Mg269 2.028 . S
O268 C270 1.248 . S
Mg269 O268 2.028 . S
Mg269 O274 2.032 . S
Mg269 O276 2.079 . S
C270 O267 1.250 . S
C270 O268 1.248 . S
C271 O272 1.264 . S
C271 O279 1.249 . S
O272 C271 1.264 . S
O273 Mg266 1.986 . S
O273 C277 1.246 . S
O274 Mg269 2.032 . S
O274 C277 1.259 . S
O275 Mg266 2.114 . S
O275 C278 1.252 . S
O276 Mg266 2.251 . S
O276 Mg269 2.079 . S
O276 C278 1.273 . S
C277 O273 1.246 . S
C277 O274 1.259 . S
C278 O275 1.252 . S
C278 O276 1.273 . S
O279 Mg266 2.010 . S
O279 C271 1.249 . S
Mg280 O281 2.028 . S
Mg280 O287 1.986 . S
Mg280 O289 2.114 . S
Mg280 O290 2.251 . S
Mg280 O293 2.010 . S
O281 Mg280 2.028 . S
O281 C284 1.250 . S
O282 Mg283 2.028 . S
O282 C284 1.248 . S
Mg283 O282 2.028 . S
Mg283 O288 2.032 . S
Mg283 O290 2.079 . S
C284 O281 1.250 . S
C284 O282 1.248 . S
C285 O286 1.264 . S
C285 O293 1.249 . S
O286 C285 1.264 . S
O287 Mg280 1.986 . S
O287 C291 1.246 . S
O288 Mg283 2.032 . S
O288 C291 1.259 . S
O289 Mg280 2.114 . S
O289 C292 1.252 . S
O290 Mg280 2.251 . S
O290 Mg283 2.079 . S
O290 C292 1.273 . S
C291 O287 1.246 . S
C291 O288 1.259 . S
C292 O289 1.252 . S
C292 O290 1.273 . S
O293 Mg280 2.010 . S
O293 C285 1.249 . S
Mg294 O295 2.028 1_554 S
Mg294 O301 1.986 . S
Mg294 O303 2.114 . S
Mg294 O304 2.251 . S
Mg294 O307 2.010 1_554 S
O295 Mg294 2.028 1_556 S
O295 C298 1.250 . S
O296 Mg297 2.028 1_556 S
O296 C298 1.248 . S
Mg297 O296 2.028 1_554 S
Mg297 O302 2.032 . S
Mg297 O304 2.079 . S
C298 O295 1.250 . S
C298 O296 1.248 . S
C299 O300 1.264 1_556 S
C299 O307 1.249 . S
O300 C299 1.264 1_554 S
O301 Mg294 1.986 . S
O301 C305 1.246 . S
O302 Mg297 2.032 . S
O302 C305 1.259 . S
O303 Mg294 2.114 . S
O303 C306 1.252 . S
O304 Mg294 2.251 . S
O304 Mg297 2.079 . S
O304 C306 1.273 . S
C305 O301 1.246 . S
C305 O302 1.259 . S
C306 O303 1.252 . S
C306 O304 1.273 . S
O307 Mg294 2.010 1_556 S
O307 C299 1.249 . S
Mg308 O309 2.028 . S
Mg308 O315 1.986 . S
Mg308 O317 2.114 . S
Mg308 O318 2.251 . S
Mg308 O321 2.010 . S
O309 Mg308 2.028 . S
O309 C312 1.250 . S
O310 Mg311 2.028 . S
O310 C312 1.248 . S
Mg311 O310 2.028 . S
Mg311 O316 2.032 . S
Mg311 O318 2.079 . S
C312 O309 1.250 . S
C312 O310 1.248 . S
C313 O314 1.264 . S
C313 O321 1.249 . S
O314 C313 1.264 . S
O315 Mg308 1.986 . S
O315 C319 1.246 . S
O316 Mg311 2.032 . S
O316 C319 1.259 . S
O317 Mg308 2.114 . S
O317 C320 1.252 . S
O318 Mg308 2.251 . S
O318 Mg311 2.079 . S
O318 C320 1.273 . S
C319 O315 1.246 . S
C319 O316 1.259 . S
C320 O317 1.252 . S
C320 O318 1.273 . S
O321 Mg308 2.010 . S
O321 C313 1.249 . S
Mg322 O323 2.028 . S
Mg322 O329 1.986 . S
Mg322 O331 2.114 . S
Mg322 O332 2.251 . S
Mg322 O335 2.010 . S
O323 Mg322 2.028 . S
O323 C326 1.250 . S
O324 Mg325 2.028 . S
O324 C326 1.248 . S
Mg325 O324 2.028 . S
Mg325 O330 2.032 . S
Mg325 O332 2.079 . S
C326 O323 1.250 . S
C326 O324 1.248 . S
C327 O328 1.264 . S
C327 O335 1.249 . S
O328 C327 1.264 . S
O329 Mg322 1.986 . S
O329 C333 1.246 . S
O330 Mg325 2.032 . S
O330 C333 1.259 . S
O331 Mg322 2.114 . S
O331 C334 1.252 . S
O332 Mg322 2.251 . S
O332 Mg325 2.079 . S
O332 C334 1.273 . S
C333 O329 1.246 . S
C333 O330 1.259 . S
C334 O331 1.252 . S
C334 O332 1.273 . S
O335 Mg322 2.010 . S
O335 C327 1.249 . S
Mg336 O337 2.028 . S
Mg336 O343 1.986 . S
Mg336 O345 2.114 . S
Mg336 O346 2.251 . S
Mg336 O349 2.010 . S
O337 Mg336 2.028 . S
O337 C340 1.250 . S
O338 Mg339 2.028 . S
O338 C340 1.248 . S
Mg339 O338 2.028 . S
Mg339 O344 2.032 . S
Mg339 O346 2.079 . S
C340 O337 1.250 . S
C340 O338 1.248 . S
C341 O342 1.264 . S
C341 O349 1.249 . S
O342 C341 1.264 . S
O343 Mg336 1.986 . S
O343 C347 1.246 . S
O344 Mg339 2.032 . S
O344 C347 1.259 . S
O345 Mg336 2.114 . S
O345 C348 1.252 . S
O346 Mg336 2.251 . S
O346 Mg339 2.079 . S
O346 C348 1.273 . S
C347 O343 1.246 . S
C347 O344 1.259 . S
C348 O345 1.252 . S
C348 O346 1.273 . S
O349 Mg336 2.010 . S
O349 C341 1.249 . S
Mg350 O351 2.028 1_554 S
Mg350 O357 1.986 . S
Mg350 O359 2.114 . S
Mg350 O360 2.251 . S
Mg350 O363 2.010 1_554 S
O351 Mg350 2.028 1_556 S
O351 C354 1.250 . S
O352 Mg353 2.028 1_556 S
O352 C354 1.248 . S
Mg353 O352 2.028 1_554 S
Mg353 O358 2.032 . S
Mg353 O360 2.079 . S
C354 O351 1.250 . S
C354 O352 1.248 . S
C355 O356 1.264 1_556 S
C355 O363 1.249 . S
O356 C355 1.264 1_554 S
O357 Mg350 1.986 . S
O357 C361 1.246 . S
O358 Mg353 2.032 . S
O358 C361 1.259 . S
O359 Mg350 2.114 . S
O359 C362 1.252 . S
O360 Mg350 2.251 . S
O360 Mg353 2.079 . S
O360 C362 1.273 . S
C361 O357 1.246 . S
C361 O358 1.259 . S
C362 O359 1.252 . S
C362 O360 1.273 . S
O363 Mg350 2.010 1_556 S
O363 C355 1.249 . S
Mg364 O365 2.028 . S
Mg364 O371 1.986 . S
Mg364 O373 2.114 . S
Mg364 O374 2.251 . S
Mg364 O377 2.010 . S
O365 Mg364 2.028 . S
O365 C368 1.250 . S
O366 Mg367 2.028 . S
O366 C368 1.248 . S
Mg367 O366 2.028 . S
Mg367 O372 2.032 . S
Mg367 O374 2.079 . S
C368 O365 1.250 . S
C368 O366 1.248 . S
C369 O370 1.264 . S
C369 O377 1.249 . S
O370 C369 1.264 . S
O371 Mg364 1.986 . S
O371 C375 1.246 . S
O372 Mg367 2.032 . S
O372 C375 1.259 . S
O373 Mg364 2.114 . S
O373 C376 1.252 . S
O374 Mg364 2.251 . S
O374 Mg367 2.079 . S
O374 C376 1.273 . S
C375 O371 1.246 . S
C375 O372 1.259 . S
C376 O373 1.252 . S
C376 O374 1.273 . S
O377 Mg364 2.010 . S
O377 C369 1.249 . S
Mg378 O379 2.028 . S
Mg378 O385 1.986 . S
Mg378 O387 2.114 . S
Mg378 O388 2.251 . S
Mg378 O391 2.010 . S
O379 Mg378 2.028 . S
O379 C382 1.250 . S
O380 Mg381 2.028 . S
O380 C382 1.248 . S
Mg381 O380 2.028 . S
Mg381 O386 2.032 . S
Mg381 O388 2.079 . S
C382 O379 1.250 . S
C382 O380 1.248 . S
C383 O384 1.264 . S
C383 O391 1.249 . S
O384 C383 1.264 . S
O385 Mg378 1.986 . S
O385 C389 1.246 . S
O386 Mg381 2.032 . S
O386 C389 1.259 . S
O387 Mg378 2.114 . S
O387 C390 1.252 . S
O388 Mg378 2.251 . S
O388 Mg381 2.079 . S
O388 C390 1.273 . S
C389 O385 1.246 . S
C389 O386 1.259 . S
C390 O387 1.252 . S
C390 O388 1.273 . S
O391 Mg378 2.010 . S
O391 C383 1.249 . S
Mg392 O393 2.028 . S
Mg392 O399 1.986 . S
Mg392 O401 2.114 . S
Mg392 O402 2.251 . S
Mg392 O405 2.010 . S
O393 Mg392 2.028 . S
O393 C396 1.250 . S
O394 Mg395 2.028 . S
O394 C396 1.248 . S
Mg395 O394 2.028 . S
Mg395 O400 2.032 . S
Mg395 O402 2.079 . S
C396 O393 1.250 . S
C396 O394 1.248 . S
C397 O398 1.264 . S
C397 O405 1.249 . S
O398 C397 1.264 . S
O399 Mg392 1.986 . S
O399 C403 1.246 . S
O400 Mg395 2.032 . S
O400 C403 1.259 . S
O401 Mg392 2.114 . S
O401 C404 1.252 . S
O402 Mg392 2.251 . S
O402 Mg395 2.079 . S
O402 C404 1.273 . S
C403 O399 1.246 . S
C403 O400 1.259 . S
C404 O401 1.252 . S
C404 O402 1.273 . S
O405 Mg392 2.010 . S
O405 C397 1.249 . S
Mg406 O407 2.028 1_556 S
Mg406 O413 1.986 . S
Mg406 O415 2.114 . S
Mg406 O416 2.251 . S
Mg406 O419 2.010 1_556 S
O407 Mg406 2.028 1_554 S
O407 C410 1.250 . S
O408 Mg409 2.028 1_554 S
O408 C410 1.248 . S
Mg409 O408 2.028 1_556 S
Mg409 O414 2.032 . S
Mg409 O416 2.079 . S
C410 O407 1.250 . S
C410 O408 1.248 . S
C411 O412 1.264 1_554 S
C411 O419 1.249 . S
O412 C411 1.264 1_556 S
O413 Mg406 1.986 . S
O413 C417 1.246 . S
O414 Mg409 2.032 . S
O414 C417 1.259 . S
O415 Mg406 2.114 . S
O415 C418 1.252 . S
O416 Mg406 2.251 . S
O416 Mg409 2.079 . S
O416 C418 1.273 . S
C417 O413 1.246 . S
C417 O414 1.259 . S
C418 O415 1.252 . S
C418 O416 1.273 . S
O419 Mg406 2.010 1_554 S
O419 C411 1.249 . S
Mg420 O421 2.028 . S
Mg420 O427 1.986 . S
Mg420 O429 2.114 . S
Mg420 O430 2.251 . S
Mg420 O433 2.010 . S
O421 Mg420 2.028 . S
O421 C424 1.250 . S
O422 Mg423 2.028 . S
O422 C424 1.248 . S
Mg423 O422 2.028 . S
Mg423 O428 2.032 . S
Mg423 O430 2.079 . S
C424 O421 1.250 . S
C424 O422 1.248 . S
C425 O426 1.264 . S
C425 O433 1.249 . S
O426 C425 1.264 . S
O427 Mg420 1.986 . S
O427 C431 1.246 . S
O428 Mg423 2.032 . S
O428 C431 1.259 . S
O429 Mg420 2.114 . S
O429 C432 1.252 . S
O430 Mg420 2.251 . S
O430 Mg423 2.079 . S
O430 C432 1.273 . S
C431 O427 1.246 . S
C431 O428 1.259 . S
C432 O429 1.252 . S
C432 O430 1.273 . S
O433 Mg420 2.010 . S
O433 C425 1.249 . S
Mg434 O435 2.028 . S
Mg434 O441 1.986 . S
Mg434 O443 2.114 . S
Mg434 O444 2.251 . S
Mg434 O447 2.010 . S
O435 Mg434 2.028 . S
O435 C438 1.250 . S
O436 Mg437 2.028 . S
O436 C438 1.248 . S
Mg437 O436 2.028 . S
Mg437 O442 2.032 . S
Mg437 O444 2.079 . S
C438 O435 1.250 . S
C438 O436 1.248 . S
C439 O440 1.264 . S
C439 O447 1.249 . S
O440 C439 1.264 . S
O441 Mg434 1.986 . S
O441 C445 1.246 . S
O442 Mg437 2.032 . S
O442 C445 1.259 . S
O443 Mg434 2.114 . S
O443 C446 1.252 . S
O444 Mg434 2.251 . S
O444 Mg437 2.079 . S
O444 C446 1.273 . S
C445 O441 1.246 . S
C445 O442 1.259 . S
C446 O443 1.252 . S
C446 O444 1.273 . S
O447 Mg434 2.010 . S
O447 C439 1.249 . S
C448 C449 1.387 . S
C448 H452 0.950 . S
C448 C457 1.390 . S
C449 C448 1.387 . S
C449 C451 1.387 . S
H450 C457 0.950 . S
C451 C449 1.387 . S
C451 C453 1.390 . S
C451 H455 0.950 . S
H452 C448 0.950 . S
C453 C451 1.390 . S
C453 C454 1.387 . S
C453 H456 0.950 . S
C454 C453 1.387 . S
C454 C457 1.387 . S
H455 C451 0.950 . S
H456 C453 0.950 . S
C457 C448 1.390 . S
C457 H450 0.950 . S
C457 C454 1.387 . S
C458 C459 1.387 . S
C458 H462 0.950 . S
C458 C467 1.390 1_565 S
C459 C458 1.387 . S
C459 C461 1.387 . S
H460 C467 0.950 . S
C461 C459 1.387 . S
C461 C463 1.390 1_565 S
C461 H465 0.950 . S
H462 C458 0.950 . S
C463 C461 1.390 1_545 S
C463 C464 1.387 . S
C463 H466 0.950 . S
C464 C463 1.387 . S
C464 C467 1.387 . S
H465 C461 0.950 . S
H466 C463 0.950 . S
C467 C458 1.390 1_545 S
C467 H460 0.950 . S
C467 C464 1.387 . S
C468 C469 1.387 . S
C468 H472 0.950 . S
C468 C477 1.390 1_554 S
C469 C468 1.387 . S
C469 C471 1.387 . S
H470 C477 0.950 . S
C471 C469 1.387 . S
C471 C473 1.390 1_554 S
C471 H475 0.950 . S
H472 C468 0.950 . S
C473 C471 1.390 1_556 S
C473 C474 1.387 . S
C473 H476 0.950 . S
C474 C473 1.387 . S
C474 C477 1.387 . S
H475 C471 0.950 . S
H476 C473 0.950 . S
C477 C468 1.390 1_556 S
C477 H470 0.950 . S
C477 C474 1.387 . S
C478 C479 1.387 . S
C478 H482 0.950 . S
C478 C487 1.390 1_545 S
C479 C478 1.387 . S
C479 C481 1.387 . S
H480 C487 0.950 . S
C481 C479 1.387 . S
C481 C483 1.390 1_545 S
C481 H485 0.950 . S
H482 C478 0.950 . S
C483 C481 1.390 1_565 S
C483 C484 1.387 . S
C483 H486 0.950 . S
C484 C483 1.387 . S
C484 C487 1.387 . S
H485 C481 0.950 . S
H486 C483 0.950 . S
C487 C478 1.390 1_565 S
C487 H480 0.950 . S
C487 C484 1.387 . S
C488 C489 1.387 . S
C488 H492 0.950 . S
C488 C497 1.390 . S
C489 C488 1.387 . S
C489 C491 1.387 . S
H490 C497 0.950 . S
C491 C489 1.387 . S
C491 C493 1.390 . S
C491 H495 0.950 . S
H492 C488 0.950 . S
C493 C491 1.390 . S
C493 C494 1.387 . S
C493 H496 0.950 . S
C494 C493 1.387 . S
C494 C497 1.387 . S
H495 C491 0.950 . S
H496 C493 0.950 . S
C497 C488 1.390 . S
C497 H490 0.950 . S
C497 C494 1.387 . S
C498 C499 1.387 . S
C498 H502 0.950 . S
C498 C507 1.390 1_545 S
C499 C498 1.387 . S
C499 C501 1.387 . S
H500 C507 0.950 . S
C501 C499 1.387 . S
C501 C503 1.390 1_545 S
C501 H505 0.950 . S
H502 C498 0.950 . S
C503 C501 1.390 1_565 S
C503 C504 1.387 . S
C503 H506 0.950 . S
C504 C503 1.387 . S
C504 C507 1.387 . S
H505 C501 0.950 . S
H506 C503 0.950 . S
C507 C498 1.390 1_565 S
C507 H500 0.950 . S
C507 C504 1.387 . S
C508 C509 1.387 . S
C508 H512 0.950 . S
C508 C517 1.390 1_556 S
C509 C508 1.387 . S
C509 C511 1.387 . S
H510 C517 0.950 . S
C511 C509 1.387 . S
C511 C513 1.390 1_556 S
C511 H515 0.950 . S
H512 C508 0.950 . S
C513 C511 1.390 1_554 S
C513 C514 1.387 . S
C513 H516 0.950 . S
C514 C513 1.387 . S
C514 C517 1.387 . S
H515 C511 0.950 . S
H516 C513 0.950 . S
C517 C508 1.390 1_554 S
C517 H510 0.950 . S
C517 C514 1.387 . S
C518 C519 1.387 . S
C518 H522 0.950 . S
C518 C527 1.390 1_565 S
C519 C518 1.387 . S
C519 C521 1.387 . S
H520 C527 0.950 . S
C521 C519 1.387 . S
C521 C523 1.390 1_565 S
C521 H525 0.950 . S
H522 C518 0.950 . S
C523 C521 1.390 1_545 S
C523 C524 1.387 . S
C523 H526 0.950 . S
C524 C523 1.387 . S
C524 C527 1.387 . S
H525 C521 0.950 . S
H526 C523 0.950 . S
C527 C518 1.390 1_545 S
C527 H520 0.950 . S
C527 C524 1.387 . S
C528 C529 1.387 . S
C528 H532 0.950 . S
C528 C537 1.390 1_556 S
C529 C528 1.387 . S
C529 C531 1.387 . S
H530 C537 0.950 . S
C531 C529 1.387 . S
C531 C533 1.390 1_556 S
C531 H535 0.950 . S
H532 C528 0.950 . S
C533 C531 1.390 1_554 S
C533 C534 1.387 . S
C533 H536 0.950 . S
C534 C533 1.387 . S
C534 C537 1.387 . S
H535 C531 0.950 . S
H536 C533 0.950 . S
C537 C528 1.390 1_554 S
C537 H530 0.950 . S
C537 C534 1.387 . S
C538 C539 1.387 . S
C538 H542 0.950 . S
C538 C547 1.390 . S
C539 C538 1.387 . S
C539 C541 1.387 . S
H540 C547 0.950 . S
C541 C539 1.387 . S
C541 C543 1.390 . S
C541 H545 0.950 . S
H542 C538 0.950 . S
C543 C541 1.390 . S
C543 C544 1.387 . S
C543 H546 0.950 . S
C544 C543 1.387 . S
C544 C547 1.387 . S
H545 C541 0.950 . S
H546 C543 0.950 . S
C547 C538 1.390 . S
C547 H540 0.950 . S
C547 C544 1.387 . S
C548 C549 1.387 . S
C548 H552 0.950 . S
C548 C557 1.390 . S
C549 C548 1.387 . S
C549 C551 1.387 . S
H550 C557 0.950 . S
C551 C549 1.387 . S
C551 C553 1.390 . S
C551 H555 0.950 . S
H552 C548 0.950 . S
C553 C551 1.390 . S
C553 C554 1.387 . S
C553 H556 0.950 . S
C554 C553 1.387 . S
C554 C557 1.387 . S
H555 C551 0.950 . S
H556 C553 0.950 . S
C557 C548 1.390 . S
C557 H550 0.950 . S
C557 C554 1.387 . S
C558 C559 1.387 . S
C558 H562 0.950 . S
C558 C567 1.390 . S
C559 C558 1.387 . S
C559 C561 1.387 . S
H560 C567 0.950 . S
C561 C559 1.387 . S
C561 C563 1.390 . S
C561 H565 0.950 . S
H562 C558 0.950 . S
C563 C561 1.390 . S
C563 C564 1.387 . S
C563 H566 0.950 . S
C564 C563 1.387 . S
C564 C567 1.387 . S
H565 C561 0.950 . S
H566 C563 0.950 . S
C567 C558 1.390 . S
C567 H560 0.950 . S
C567 C564 1.387 . S
C568 C569 1.387 . S
C568 H572 0.950 . S
C568 C577 1.390 1_556 S
C569 C568 1.387 . S
C569 C571 1.387 . S
H570 C577 0.950 . S
C571 C569 1.387 . S
C571 C573 1.390 1_556 S
C571 H575 0.950 . S
H572 C568 0.950 . S
C573 C571 1.390 1_554 S
C573 C574 1.387 . S
C573 H576 0.950 . S
C574 C573 1.387 . S
C574 C577 1.387 . S
H575 C571 0.950 . S
H576 C573 0.950 . S
C577 C568 1.390 1_554 S
C577 H570 0.950 . S
C577 C574 1.387 . S
C578 C579 1.387 . S
C578 H582 0.950 . S
C578 C587 1.390 . S
C579 C578 1.387 . S
C579 C581 1.387 . S
H580 C587 0.950 . S
C581 C579 1.387 . S
C581 C583 1.390 . S
C581 H585 0.950 . S
H582 C578 0.950 . S
C583 C581 1.390 . S
C583 C584 1.387 . S
C583 H586 0.950 . S
C584 C583 1.387 . S
C584 C587 1.387 . S
H585 C581 0.950 . S
H586 C583 0.950 . S
C587 C578 1.390 . S
C587 H580 0.950 . S
C587 C584 1.387 . S
C588 C589 1.387 . S
C588 H592 0.950 . S
C588 C597 1.390 . S
C589 C588 1.387 . S
C589 C591 1.387 . S
H590 C597 0.950 . S
C591 C589 1.387 . S
C591 C593 1.390 . S
C591 H595 0.950 . S
H592 C588 0.950 . S
C593 C591 1.390 . S
C593 C594 1.387 . S
C593 H596 0.950 . S
C594 C593 1.387 . S
C594 C597 1.387 . S
H595 C591 0.950 . S
H596 C593 0.950 . S
C597 C588 1.390 . S
C597 H590 0.950 . S
C597 C594 1.387 . S
C598 C599 1.387 . S
C598 H602 0.950 . S
C598 C607 1.390 . S
C599 C598 1.387 . S
C599 C601 1.387 . S
H600 C607 0.950 . S
C601 C599 1.387 . S
C601 C603 1.390 . S
C601 H605 0.950 . S
H602 C598 0.950 . S
C603 C601 1.390 . S
C603 C604 1.387 . S
C603 H606 0.950 . S
C604 C603 1.387 . S
C604 C607 1.387 . S
H605 C601 0.950 . S
H606 C603 0.950 . S
C607 C598 1.390 . S
C607 H600 0.950 . S
C607 C604 1.387 . S
C608 C609 1.387 . S
C608 H612 0.950 . S
C608 C617 1.390 . S
C609 C608 1.387 . S
C609 C611 1.387 . S
H610 C617 0.950 . S
C611 C609 1.387 . S
C611 C613 1.390 . S
C611 H615 0.950 1_554 S
H612 C608 0.950 . S
C613 C611 1.390 . S
C613 C614 1.387 . S
C613 H616 0.950 . S
C614 C613 1.387 . S
C614 C617 1.387 . S
H615 C611 0.950 1_556 S
H616 C613 0.950 . S
C617 C608 1.390 . S
C617 H610 0.950 . S
C617 C614 1.387 . S
C618 C619 1.387 . S
C618 H622 0.950 . S
C618 C627 1.390 . S
C619 C618 1.387 . S
C619 C621 1.387 . S
H620 C627 0.950 . S
C621 C619 1.387 . S
C621 C623 1.390 . S
C621 H625 0.950 . S
H622 C618 0.950 . S
C623 C621 1.390 . S
C623 C624 1.387 . S
C623 H626 0.950 . S
C624 C623 1.387 . S
C624 C627 1.387 . S
H625 C621 0.950 . S
H626 C623 0.950 . S
C627 C618 1.390 . S
C627 H620 0.950 . S
C627 C624 1.387 . S
C628 C629 1.387 . S
C628 H632 0.950 . S
C628 C637 1.390 . S
C629 C628 1.387 . S
C629 C631 1.387 . S
H630 C637 0.950 . S
C631 C629 1.387 . S
C631 C633 1.390 . S
C631 H635 0.950 . S
H632 C628 0.950 . S
C633 C631 1.390 . S
C633 C634 1.387 . S
C633 H636 0.950 . S
C634 C633 1.387 . S
C634 C637 1.387 . S
H635 C631 0.950 . S
H636 C633 0.950 . S
C637 C628 1.390 . S
C637 H630 0.950 . S
C637 C634 1.387 . S
C638 C639 1.387 . S
C638 H642 0.950 . S
C638 C647 1.390 . S
C639 C638 1.387 . S
C639 C641 1.387 . S
H640 C647 0.950 1_554 S
C641 C639 1.387 . S
C641 C643 1.390 . S
C641 H645 0.950 . S
H642 C638 0.950 . S
C643 C641 1.390 . S
C643 C644 1.387 . S
C643 H646 0.950 . S
C644 C643 1.387 . S
C644 C647 1.387 . S
H645 C641 0.950 . S
H646 C643 0.950 . S
C647 C638 1.390 . S
C647 H640 0.950 1_556 S
C647 C644 1.387 . S
C648 C649 1.387 . S
C648 H652 0.950 1_556 S
C648 C657 1.390 . S
C649 C648 1.387 . S
C649 C651 1.387 . S
H650 C657 0.950 . S
C651 C649 1.387 . S
C651 C653 1.390 . S
C651 H655 0.950 . S
H652 C648 0.950 1_554 S
C653 C651 1.390 . S
C653 C654 1.387 . S
C653 H656 0.950 . S
C654 C653 1.387 . S
C654 C657 1.387 . S
H655 C651 0.950 . S
H656 C653 0.950 . S
C657 C648 1.390 . S
C657 H650 0.950 . S
C657 C654 1.387 . S
C658 C659 1.387 . S
C658 H662 0.950 . S
C658 C667 1.390 . S
C659 C658 1.387 . S
C659 C661 1.387 . S
H660 C667 0.950 . S
C661 C659 1.387 . S
C661 C663 1.390 . S
C661 H665 0.950 . S
H662 C658 0.950 . S
C663 C661 1.390 . S
C663 C664 1.387 . S
C663 H666 0.950 . S
C664 C663 1.387 . S
C664 C667 1.387 . S
H665 C661 0.950 . S
H666 C663 0.950 . S
C667 C658 1.390 . S
C667 H660 0.950 . S
C667 C664 1.387 . S
C668 C669 1.387 . S
C668 H672 0.950 . S
C668 C677 1.390 . S
C669 C668 1.387 . S
C669 C671 1.387 . S
H670 C677 0.950 . S
C671 C669 1.387 . S
C671 C673 1.390 . S
C671 H675 0.950 . S
H672 C668 0.950 . S
C673 C671 1.390 . S
C673 C674 1.387 . S
C673 H676 0.950 . S
C674 C673 1.387 . S
C674 C677 1.387 . S
H675 C671 0.950 . S
H676 C673 0.950 . S
C677 C668 1.390 . S
C677 H670 0.950 . S
C677 C674 1.387 . S
C678 C679 1.387 . S
C678 H682 0.950 1_554 S
C678 C687 1.390 . S
C679 C678 1.387 . S
C679 C681 1.387 . S
H680 C687 0.950 . S
C681 C679 1.387 . S
C681 C683 1.390 . S
C681 H685 0.950 . S
H682 C678 0.950 1_556 S
C683 C681 1.390 . S
C683 C684 1.387 . S
C683 H686 0.950 . S
C684 C683 1.387 . S
C684 C687 1.387 . S
H685 C681 0.950 . S
H686 C683 0.950 . S
C687 C678 1.390 . S
C687 H680 0.950 . S
C687 C684 1.387 . S
C688 C689 1.387 . S
C688 H692 0.950 . S
C688 C697 1.390 . S
C689 C688 1.387 . S
C689 C691 1.387 . S
H690 C697 0.950 . S
C691 C689 1.387 . S
C691 C693 1.390 . S
C691 H695 0.950 . S
H692 C688 0.950 . S
C693 C691 1.390 . S
C693 C694 1.387 . S
C693 H696 0.950 . S
C694 C693 1.387 . S
C694 C697 1.387 . S
H695 C691 0.950 . S
H696 C693 0.950 . S
C697 C688 1.390 . S
C697 H690 0.950 . S
C697 C694 1.387 . S
C698 C699 1.387 . S
C698 H702 0.950 1_556 S
C698 C707 1.390 . S
C699 C698 1.387 . S
C699 C701 1.387 . S
H700 C707 0.950 . S
C701 C699 1.387 . S
C701 C703 1.390 . S
C701 H705 0.950 . S
H702 C698 0.950 1_554 S
C703 C701 1.390 . S
C703 C704 1.387 . S
C703 H706 0.950 . S
C704 C703 1.387 . S
C704 C707 1.387 . S
H705 C701 0.950 . S
H706 C703 0.950 . S
C707 C698 1.390 . S
C707 H700 0.950 . S
C707 C704 1.387 . S
C708 C709 1.387 . S
C708 H712 0.950 . S
C708 C717 1.390 . S
C709 C708 1.387 . S
C709 C711 1.387 . S
H710 C717 0.950 . S
C711 C709 1.387 . S
C711 C713 1.390 . S
C711 H715 0.950 . S
H712 C708 0.950 . S
C713 C711 1.390 . S
C713 C714 1.387 . S
C713 H716 0.950 . S
C714 C713 1.387 . S
C714 C717 1.387 . S
H715 C711 0.950 . S
H716 C713 0.950 . S
C717 C708 1.390 . S
C717 H710 0.950 . S
C717 C714 1.387 . S
C718 C719 1.387 . S
C718 H722 0.950 . S
C718 C727 1.390 . S
C719 C718 1.387 . S
C719 C721 1.387 . S
H720 C727 0.950 . S
C721 C719 1.387 . S
C721 C723 1.390 . S
C721 H725 0.950 . S
H722 C718 0.950 . S
C723 C721 1.390 . S
C723 C724 1.387 . S
C723 H726 0.950 . S
C724 C723 1.387 . S
C724 C727 1.387 . S
H725 C721 0.950 . S
H726 C723 0.950 . S
C727 C718 1.390 . S
C727 H720 0.950 . S
C727 C724 1.387 . S
C728 C729 1.387 . S
C728 H732 0.950 . S
C728 C737 1.390 . S
C729 C728 1.387 . S
C729 C731 1.387 . S
H730 C737 0.950 . S
C731 C729 1.387 . S
C731 C733 1.390 . S
C731 H735 0.950 . S
H732 C728 0.950 . S
C733 C731 1.390 . S
C733 C734 1.387 . S
C733 H736 0.950 . S
C734 C733 1.387 . S
C734 C737 1.387 . S
H735 C731 0.950 . S
H736 C733 0.950 . S
C737 C728 1.390 . S
C737 H730 0.950 . S
C737 C734 1.387 . S
C738 C739 1.387 . S
C738 H742 0.950 1_554 S
C738 C747 1.390 . S
C739 C738 1.387 . S
C739 C741 1.387 . S
H740 C747 0.950 . S
C741 C739 1.387 . S
C741 C743 1.390 . S
C741 H745 0.950 . S
H742 C738 0.950 1_556 S
C743 C741 1.390 . S
C743 C744 1.387 . S
C743 H746 0.950 . S
C744 C743 1.387 . S
C744 C747 1.387 . S
H745 C741 0.950 . S
H746 C743 0.950 . S
C747 C738 1.390 . S
C747 H740 0.950 . S
C747 C744 1.387 . S
C748 C749 1.387 . S
C748 H752 0.950 . S
C748 C757 1.390 . S
C749 C748 1.387 . S
C749 C751 1.387 . S
H750 C757 0.950 . S
C751 C749 1.387 . S
C751 C753 1.390 . S
C751 H755 0.950 . S
H752 C748 0.950 . S
C753 C751 1.390 . S
C753 C754 1.387 . S
C753 H756 0.950 1_556 S
C754 C753 1.387 . S
C754 C757 1.387 . S
H755 C751 0.950 . S
H756 C753 0.950 1_554 S
C757 C748 1.390 . S
C757 H750 0.950 . S
C757 C754 1.387 . S
C758 C759 1.387 . S
C758 H762 0.950 . S
C758 C767 1.390 . S
C759 C758 1.387 . S
C759 C761 1.387 . S
H760 C767 0.950 . S
C761 C759 1.387 . S
C761 C763 1.390 . S
C761 H765 0.950 . S
H762 C758 0.950 . S
C763 C761 1.390 . S
C763 C764 1.387 . S
C763 H766 0.950 . S
C764 C763 1.387 . S
C764 C767 1.387 . S
H765 C761 0.950 . S
H766 C763 0.950 . S
C767 C758 1.390 . S
C767 H760 0.950 . S
C767 C764 1.387 . S
C768 C769 1.387 1_554 S
C768 H772 0.950 . S
C768 C777 1.390 . S
C769 C768 1.387 1_556 S
C769 C771 1.387 . S
H770 C777 0.950 . S
C771 C769 1.387 . S
C771 C773 1.390 . S
C771 H775 0.950 . S
H772 C768 0.950 . S
C773 C771 1.390 . S
C773 C774 1.387 . S
C773 H776 0.950 . S
C774 C773 1.387 . S
C774 C777 1.387 1_556 S
H775 C771 0.950 . S
H776 C773 0.950 . S
C777 C768 1.390 . S
C777 H770 0.950 . S
C777 C774 1.387 1_554 S
C778 C779 1.387 . S
C778 H782 0.950 . S
C778 C787 1.390 1_655 S
C779 C778 1.387 . S
C779 C781 1.387 . S
H780 C787 0.950 . S
C781 C779 1.387 . S
C781 C783 1.390 1_655 S
C781 H785 0.950 . S
H782 C778 0.950 . S
C783 C781 1.390 1_455 S
C783 C784 1.387 . S
C783 H786 0.950 . S
C784 C783 1.387 . S
C784 C787 1.387 . S
H785 C781 0.950 . S
H786 C783 0.950 . S
C787 C778 1.390 1_455 S
C787 H780 0.950 . S
C787 C784 1.387 . S
C788 C789 1.387 . S
C788 H792 0.950 . S
C788 C797 1.390 . S
C789 C788 1.387 . S
C789 C791 1.387 . S
H790 C797 0.950 . S
C791 C789 1.387 . S
C791 C793 1.390 . S
C791 H795 0.950 . S
H792 C788 0.950 . S
C793 C791 1.390 . S
C793 C794 1.387 . S
C793 H796 0.950 . S
C794 C793 1.387 . S
C794 C797 1.387 . S
H795 C791 0.950 . S
H796 C793 0.950 . S
C797 C788 1.390 . S
C797 H790 0.950 . S
C797 C794 1.387 . S
C798 C799 1.387 . S
C798 H802 0.950 . S
C798 C807 1.390 . S
C799 C798 1.387 . S
C799 C801 1.387 . S
H800 C807 0.950 . S
C801 C799 1.387 . S
C801 C803 1.390 . S
C801 H805 0.950 . S
H802 C798 0.950 . S
C803 C801 1.390 . S
C803 C804 1.387 . S
C803 H806 0.950 . S
C804 C803 1.387 . S
C804 C807 1.387 . S
H805 C801 0.950 . S
H806 C803 0.950 . S
C807 C798 1.390 . S
C807 H800 0.950 . S
C807 C804 1.387 . S
C808 C809 1.387 . S
C808 H812 0.950 . S
C808 C817 1.390 . S
C809 C808 1.387 . S
C809 C811 1.387 . S
H810 C817 0.950 . S
C811 C809 1.387 . S
C811 C813 1.390 . S
C811 H815 0.950 . S
H812 C808 0.950 . S
C813 C811 1.390 . S
C813 C814 1.387 . S
C813 H816 0.950 . S
C814 C813 1.387 . S
C814 C817 1.387 . S
H815 C811 0.950 . S
H816 C813 0.950 . S
C817 C808 1.390 . S
C817 H810 0.950 . S
C817 C814 1.387 . S
C818 C819 1.387 . S
C818 H822 0.950 . S
C818 C827 1.390 . S
C819 C818 1.387 . S
C819 C821 1.387 . S
H820 C827 0.950 . S
C821 C819 1.387 . S
C821 C823 1.390 . S
C821 H825 0.950 . S
H822 C818 0.950 . S
C823 C821 1.390 . S
C823 C824 1.387 . S
C823 H826 0.950 . S
C824 C823 1.387 . S
C824 C827 1.387 . S
H825 C821 0.950 . S
H826 C823 0.950 . S
C827 C818 1.390 . S
C827 H820 0.950 . S
C827 C824 1.387 . S
C828 C829 1.387 1_556 S
C828 H832 0.950 . S
C828 C837 1.390 . S
C829 C828 1.387 1_554 S
C829 C831 1.387 . S
H830 C837 0.950 . S
C831 C829 1.387 . S
C831 C833 1.390 . S
C831 H835 0.950 . S
H832 C828 0.950 . S
C833 C831 1.390 . S
C833 C834 1.387 . S
C833 H836 0.950 . S
C834 C833 1.387 . S
C834 C837 1.387 1_554 S
H835 C831 0.950 . S
H836 C833 0.950 . S
C837 C828 1.390 . S
C837 H830 0.950 . S
C837 C834 1.387 1_556 S
C838 C839 1.387 . S
C838 H842 0.950 . S
C838 C847 1.390 1_455 S
C839 C838 1.387 . S
C839 C841 1.387 . S
H840 C847 0.950 . S
C841 C839 1.387 . S
C841 C843 1.390 1_455 S
C841 H845 0.950 . S
H842 C838 0.950 . S
C843 C841 1.390 1_655 S
C843 C844 1.387 . S
C843 H846 0.950 . S
C844 C843 1.387 . S
C844 C847 1.387 . S
H845 C841 0.950 . S
H846 C843 0.950 . S
C847 C838 1.390 1_655 S
C847 H840 0.950 . S
C847 C844 1.387 . S
C848 C849 1.387 . S
C848 H852 0.950 . S
C848 C857 1.390 . S
C849 C848 1.387 . S
C849 C851 1.387 1_554 S
H850 C857 0.950 . S
C851 C849 1.387 1_556 S
C851 C853 1.390 1_556 S
C851 H855 0.950 . S
H852 C848 0.950 . S
C853 C851 1.390 1_554 S
C853 C854 1.387 . S
C853 H856 0.950 1_554 S
C854 C853 1.387 . S
C854 C857 1.387 . S
H855 C851 0.950 . S
H856 C853 0.950 1_556 S
C857 C848 1.390 . S
C857 H850 0.950 . S
C857 C854 1.387 . S
C858 C859 1.387 . S
C858 H862 0.950 . S
C858 C867 1.390 . S
C859 C858 1.387 . S
C859 C861 1.387 . S
H860 C867 0.951 . S
C861 C859 1.387 . S
C861 C863 1.390 1_455 S
C861 H865 0.950 . S
H862 C858 0.950 . S
C863 C861 1.390 1_655 S
C863 C864 1.387 . S
C863 H866 0.950 . S
C864 C863 1.387 . S
C864 C867 1.387 1_655 S
H865 C861 0.950 . S
H866 C863 0.950 . S
C867 C858 1.390 . S
C867 H860 0.951 . S
C867 C864 1.387 1_455 S
C868 C869 1.387 . S
C868 H872 0.950 . S
C868 C877 1.390 . S
C869 C868 1.387 . S
C869 C871 1.387 . S
H870 C877 0.950 . S
C871 C869 1.387 . S
C871 C873 1.390 . S
C871 H875 0.950 . S
H872 C868 0.950 . S
C873 C871 1.390 . S
C873 C874 1.387 . S
C873 H876 0.950 . S
C874 C873 1.387 . S
C874 C877 1.387 . S
H875 C871 0.950 . S
H876 C873 0.950 . S
C877 C868 1.390 . S
C877 H870 0.950 . S
C877 C874 1.387 . S
C878 C879 1.387 . S
C878 H882 0.950 . S
C878 C887 1.390 . S
C879 C878 1.387 . S
C879 C881 1.387 . S
H880 C887 0.950 . S
C881 C879 1.387 . S
C881 C883 1.390 . S
C881 H885 0.950 . S
H882 C878 0.950 . S
C883 C881 1.390 . S
C883 C884 1.387 . S
C883 H886 0.950 . S
C884 C883 1.387 . S
C884 C887 1.387 . S
H885 C881 0.950 . S
H886 C883 0.950 . S
C887 C878 1.390 . S
C887 H880 0.950 . S
C887 C884 1.387 . S
C888 C889 1.387 . S
C888 H892 0.950 . S
C888 C897 1.390 . S
C889 C888 1.387 . S
C889 C891 1.387 . S
H890 C897 0.950 . S
C891 C889 1.387 . S
C891 C893 1.390 . S
C891 H895 0.950 . S
H892 C888 0.950 . S
C893 C891 1.390 . S
C893 C894 1.387 . S
C893 H896 0.950 . S
C894 C893 1.387 . S
C894 C897 1.387 . S
H895 C891 0.950 . S
H896 C893 0.950 . S
C897 C888 1.390 . S
C897 H890 0.950 . S
C897 C894 1.387 . S
C898 C899 1.387 . S
C898 H902 0.950 . S
C898 C907 1.390 . S
C899 C898 1.387 . S
C899 C901 1.387 . S
H900 C907 0.950 . S
C901 C899 1.387 . S
C901 C903 1.390 . S
C901 H905 0.950 . S
H902 C898 0.950 . S
C903 C901 1.390 . S
C903 C904 1.387 . S
C903 H906 0.950 . S
C904 C903 1.387 . S
C904 C907 1.387 . S
H905 C901 0.950 . S
H906 C903 0.950 . S
C907 C898 1.390 . S
C907 H900 0.950 . S
C907 C904 1.387 . S
C908 C909 1.387 . S
C908 H912 0.950 . S
C908 C917 1.390 . S
C909 C908 1.387 . S
C909 C911 1.387 1_556 S
H910 C917 0.950 . S
C911 C909 1.387 1_554 S
C911 C913 1.390 . S
C911 H915 0.950 . S
H912 C908 0.950 . S
C913 C911 1.390 . S
C913 C914 1.387 1_554 S
C913 H916 0.950 . S
C914 C913 1.387 1_556 S
C914 C917 1.387 . S
H915 C911 0.950 . S
H916 C913 0.950 . S
C917 C908 1.390 . S
C917 H910 0.950 . S
C917 C914 1.387 . S
C918 C919 1.387 . S
C918 H922 0.950 . S
C918 C927 1.390 1_455 S
C919 C918 1.387 . S
C919 C921 1.387 . S
H920 C927 0.950 . S
C921 C919 1.387 . S
C921 C923 1.390 1_455 S
C921 H925 0.950 . S
H922 C918 0.950 . S
C923 C921 1.390 1_655 S
C923 C924 1.387 . S
C923 H926 0.950 . S
C924 C923 1.387 . S
C924 C927 1.387 . S
H925 C921 0.950 . S
H926 C923 0.950 . S
C927 C918 1.390 1_655 S
C927 H920 0.950 . S
C927 C924 1.387 . S
C928 C929 1.387 . S
C928 H932 0.950 . S
C928 C937 1.390 . S
C929 C928 1.387 . S
C929 C931 1.387 . S
H930 C937 0.950 . S
C931 C929 1.387 . S
C931 C933 1.390 . S
C931 H935 0.950 . S
H932 C928 0.950 . S
C933 C931 1.390 . S
C933 C934 1.387 . S
C933 H936 0.950 . S
C934 C933 1.387 . S
C934 C937 1.387 . S
H935 C931 0.950 . S
H936 C933 0.950 . S
C937 C928 1.390 . S
C937 H930 0.950 . S
C937 C934 1.387 . S
C938 C939 1.387 . S
C938 H942 0.950 . S
C938 C947 1.390 . S
C939 C938 1.387 . S
C939 C941 1.387 . S
H940 C947 0.950 . S
C941 C939 1.387 . S
C941 C943 1.390 . S
C941 H945 0.950 . S
H942 C938 0.950 . S
C943 C941 1.390 . S
C943 C944 1.387 . S
C943 H946 0.950 . S
C944 C943 1.387 . S
C944 C947 1.387 . S
H945 C941 0.950 . S
H946 C943 0.950 . S
C947 C938 1.390 . S
C947 H940 0.950 . S
C947 C944 1.387 . S
C948 C949 1.387 . S
C948 H952 0.950 . S
C948 C957 1.390 . S
C949 C948 1.387 . S
C949 C951 1.387 1_556 S
H950 C957 0.950 . S
C951 C949 1.387 1_554 S
C951 C953 1.390 . S
C951 H955 0.950 . S
H952 C948 0.950 . S
C953 C951 1.390 . S
C953 C954 1.387 1_554 S
C953 H956 0.950 . S
C954 C953 1.387 1_556 S
C954 C957 1.387 . S
H955 C951 0.950 . S
H956 C953 0.950 . S
C957 C948 1.390 . S
C957 H950 0.950 . S
C957 C954 1.387 . S
C958 C959 1.387 . S
C958 H962 0.950 . S
C958 C967 1.390 1_655 S
C959 C958 1.387 . S
C959 C961 1.387 . S
H960 C967 0.950 . S
C961 C959 1.387 . S
C961 C963 1.390 1_655 S
C961 H965 0.950 . S
H962 C958 0.950 . S
C963 C961 1.390 1_455 S
C963 C964 1.387 . S
C963 H966 0.950 . S
C964 C963 1.387 . S
C964 C967 1.387 . S
H965 C961 0.950 . S
H966 C963 0.950 . S
C967 C958 1.390 1_455 S
C967 H960 0.950 . S
C967 C964 1.387 . S
C968 C969 1.387 . S
C968 H972 0.950 . S
C968 C977 1.390 . S
C969 C968 1.387 . S
C969 C971 1.387 1_554 S
H970 C977 0.950 . S
C971 C969 1.387 1_556 S
C971 C973 1.390 1_556 S
C971 H975 0.950 . S
H972 C968 0.950 . S
C973 C971 1.390 1_554 S
C973 C974 1.387 . S
C973 H976 0.950 1_554 S
C974 C973 1.387 . S
C974 C977 1.387 . S
H975 C971 0.950 . S
H976 C973 0.950 1_556 S
C977 C968 1.390 . S
C977 H970 0.950 . S
C977 C974 1.387 . S
C978 C979 1.387 . S
C978 H982 0.950 . S
C978 C987 1.390 1_655 S
C979 C978 1.387 . S
C979 C981 1.387 . S
H980 C987 0.950 . S
C981 C979 1.387 . S
C981 C983 1.390 1_655 S
C981 H985 0.950 . S
H982 C978 0.950 . S
C983 C981 1.390 1_455 S
C983 C984 1.387 . S
C983 H986 0.950 . S
C984 C983 1.387 . S
C984 C987 1.387 . S
H985 C981 0.950 . S
H986 C983 0.950 . S
C987 C978 1.390 1_455 S
C987 H980 0.950 . S
C987 C984 1.387 . S
C988 C989 1.387 . S
C988 H992 0.950 . S
C988 C997 1.390 . S
C989 C988 1.387 . S
C989 C991 1.387 . S
H990 C997 0.950 . S
C991 C989 1.387 . S
C991 C993 1.390 . S
C991 H995 0.950 . S
H992 C988 0.950 . S
C993 C991 1.390 . S
C993 C994 1.387 . S
C993 H996 0.950 . S
C994 C993 1.387 . S
C994 C997 1.387 . S
H995 C991 0.950 . S
H996 C993 0.950 . S
C997 C988 1.390 . S
C997 H990 0.950 . S
C997 C994 1.387 . S
C998 C999 1.387 . S
C998 H1002 0.950 . S
C998 C1007 1.390 . S
C999 C998 1.387 . S
C999 C1001 1.387 . S
H1000 C1007 0.950 . S
C1001 C999 1.387 . S
C1001 C1003 1.390 . S
C1001 H1005 0.950 . S
H1002 C998 0.950 . S
C1003 C1001 1.390 . S
C1003 C1004 1.387 . S
C1003 H1006 0.950 . S
C1004 C1003 1.387 . S
C1004 C1007 1.387 . S
H1005 C1001 0.950 . S
H1006 C1003 0.950 . S
C1007 C998 1.390 . S
C1007 H1000 0.950 . S
C1007 C1004 1.387 . S
C1008 C1009 1.387 . S
C1008 H1012 0.950 . S
C1008 C1017 1.390 . S
C1009 C1008 1.387 . S
C1009 C1011 1.387 . S
H1010 C1017 0.950 . S
C1011 C1009 1.387 . S
C1011 C1013 1.390 . S
C1011 H1015 0.950 . S
H1012 C1008 0.950 . S
C1013 C1011 1.390 . S
C1013 C1014 1.387 . S
C1013 H1016 0.950 . S
C1014 C1013 1.387 . S
C1014 C1017 1.387 . S
H1015 C1011 0.950 . S
H1016 C1013 0.950 . S
C1017 C1008 1.390 . S
C1017 H1010 0.950 . S
C1017 C1014 1.387 . S
C1018 C1019 1.387 . S
C1018 H1022 0.950 . S
C1018 C1027 1.390 . S
C1019 C1018 1.387 . S
C1019 C1021 1.387 . S
H1020 C1027 0.950 . S
C1021 C1019 1.387 . S
C1021 C1023 1.390 . S
C1021 H1025 0.950 . S
H1022 C1018 0.950 . S
C1023 C1021 1.390 . S
C1023 C1024 1.387 . S
C1023 H1026 0.950 . S
C1024 C1023 1.387 . S
C1024 C1027 1.387 . S
H1025 C1021 0.950 . S
H1026 C1023 0.950 . S
C1027 C1018 1.390 . S
C1027 H1020 0.950 . S
C1027 C1024 1.387 . S
C1028 C1029 1.387 1_556 S
C1028 H1032 0.950 . S
C1028 C1037 1.390 . S
C1029 C1028 1.387 1_554 S
C1029 C1031 1.387 . S
H1030 C1037 0.950 . S
C1031 C1029 1.387 . S
C1031 C1033 1.390 . S
C1031 H1035 0.950 . S
H1032 C1028 0.950 . S
C1033 C1031 1.390 . S
C1033 C1034 1.387 . S
C1033 H1036 0.950 . S
C1034 C1033 1.387 . S
C1034 C1037 1.387 1_554 S
H1035 C1031 0.950 . S
H1036 C1033 0.950 . S
C1037 C1028 1.390 . S
C1037 H1030 0.950 . S
C1037 C1034 1.387 1_556 S
C1038 C1039 1.387 . S
C1038 H1042 0.950 . S
C1038 C1047 1.390 1_455 S
C1039 C1038 1.387 . S
C1039 C1041 1.387 . S
H1040 C1047 0.950 . S
C1041 C1039 1.387 . S
C1041 C1043 1.390 1_455 S
C1041 H1045 0.950 . S
H1042 C1038 0.950 . S
C1043 C1041 1.390 1_655 S
C1043 C1044 1.387 . S
C1043 H1046 0.950 . S
C1044 C1043 1.387 . S
C1044 C1047 1.387 . S
H1045 C1041 0.950 . S
H1046 C1043 0.950 . S
C1047 C1038 1.390 1_655 S
C1047 H1040 0.950 . S
C1047 C1044 1.387 . S
C1048 C1049 1.387 . S
C1048 H1052 0.950 . S
C1048 C1057 1.390 . S
C1049 C1048 1.387 . S
C1049 C1051 1.387 1_556 S
H1050 C1057 0.950 . S
C1051 C1049 1.387 1_554 S
C1051 C1053 1.390 . S
C1051 H1055 0.950 . S
H1052 C1048 0.950 . S
C1053 C1051 1.390 . S
C1053 C1054 1.387 1_554 S
C1053 H1056 0.950 . S
C1054 C1053 1.387 1_556 S
C1054 C1057 1.387 . S
H1055 C1051 0.950 . S
H1056 C1053 0.950 . S
C1057 C1048 1.390 . S
C1057 H1050 0.950 . S
C1057 C1054 1.387 . S
C1058 C1059 1.387 . S
C1058 H1062 0.950 . S
C1058 C1067 1.390 1_655 S
C1059 C1058 1.387 . S
C1059 C1061 1.387 . S
H1060 C1067 0.950 . S
C1061 C1059 1.387 . S
C1061 C1063 1.381 1_655 S
C1061 H1065 0.950 . S
H1062 C1058 0.950 . S
C1063 C1061 1.381 1_455 S
C1063 C1064 1.396 . S
C1063 H1066 0.950 . S
C1064 C1063 1.396 . S
C1064 C1067 1.387 . S
H1065 C1061 0.950 . S
H1066 C1063 0.950 . S
C1067 C1058 1.390 1_455 S
C1067 H1060 0.950 . S
C1067 C1064 1.387 . S
C1068 C1069 1.387 . S
C1068 H1072 0.950 . S
C1068 C1077 1.390 . S
C1069 C1068 1.387 . S
C1069 C1071 1.387 . S
H1070 C1077 0.950 . S
C1071 C1069 1.387 . S
C1071 C1073 1.390 . S
C1071 H1075 0.950 . S
H1072 C1068 0.950 . S
C1073 C1071 1.390 . S
C1073 C1074 1.387 . S
C1073 H1076 0.950 . S
C1074 C1073 1.387 . S
C1074 C1077 1.387 . S
H1075 C1071 0.950 . S
H1076 C1073 0.950 . S
C1077 C1068 1.390 . S
C1077 H1070 0.950 . S
C1077 C1074 1.387 . S
C1078 C1079 1.387 . S
C1078 H1082 0.950 . S
C1078 C1087 1.390 . S
C1079 C1078 1.387 . S
C1079 C1081 1.387 . S
H1080 C1087 0.950 . S
C1081 C1079 1.387 . S
C1081 C1083 1.390 . S
C1081 H1085 0.950 . S
H1082 C1078 0.950 . S
C1083 C1081 1.390 . S
C1083 C1084 1.387 . S
C1083 H1086 0.950 . S
C1084 C1083 1.387 . S
C1084 C1087 1.387 . S
H1085 C1081 0.950 . S
H1086 C1083 0.950 . S
C1087 C1078 1.390 . S
C1087 H1080 0.950 . S
C1087 C1084 1.387 . S
C449 C89 1.694 . S
C454 C5 1.694 . S
C459 C19 1.637 . S
C464 C103 1.635 . S
C469 C61 1.695 . S
C474 C33 1.695 . S
C479 C47 1.635 . S
C484 C75 1.634 . S
C489 C201 1.694 . S
C494 C117 1.694 . S
C499 C131 1.635 . S
C504 C215 1.634 . S
C509 C173 1.696 . S
C514 C145 1.696 . S
C519 C159 1.635 . S
C524 C187 1.634 . S
C529 C229 1.695 . S
C534 C313 1.695 . S
C539 C327 1.635 . S
C544 C243 1.634 . S
C549 C257 1.695 . S
C554 C285 1.695 . S
C559 C299 1.635 . S
C564 C271 1.634 . S
C569 C425 1.696 . S
C574 C341 1.696 . S
C579 C439 1.637 . S
C584 C355 1.636 . S
C589 C397 1.694 . S
C594 C369 1.694 . S
C599 C383 1.635 . S
C604 C411 1.634 . S
C609 C109 1.198 . S
C614 C11 1.196 . S
C619 C67 1.191 . S
C624 C25 1.198 . S
C629 C81 1.200 . S
C634 C39 1.192 . S
C639 C95 1.194 . S
C644 C53 1.202 . S
C649 C221 1.198 . S
C654 C123 1.196 . S
C659 C179 1.193 . S
C664 C137 1.196 . S
C669 C193 1.196 . S
C674 C151 1.193 . S
C679 C165 1.198 . S
C684 C207 1.195 . S
C689 C333 1.196 . S
C694 C235 1.194 . S
C699 C249 1.202 . S
C704 C291 1.194 . S
C709 C263 1.193 . S
C714 C305 1.198 . S
C719 C319 1.194 . S
C724 C277 1.200 . S
C729 C445 1.196 . S
C734 C347 1.194 . S
C739 C361 1.198 . S
C744 C403 1.194 . S
C749 C375 1.192 . S
C754 C417 1.200 . S
C759 C431 1.194 . S
C764 C389 1.196 . S
C769 C12 1.189 1_556 S
C774 C424 1.181 . S
C779 C214 1.139 . S
C784 C26 1.153 . S
C789 C396 1.179 . S
C794 C40 1.188 . S
C799 C186 1.156 . S
C804 C54 1.171 . S
C809 C368 1.179 . S
C814 C68 1.188 . S
C819 C82 1.156 . S
C824 C158 1.140 . S
C829 C96 1.187 1_554 S
C834 C340 1.180 . S
C839 C110 1.170 . S
C844 C130 1.156 . S
C849 C124 1.187 1_554 S
C854 C312 1.179 . S
C859 C102 1.144 . S
C864 C138 1.157 . S
C869 C284 1.184 . S
C874 C152 1.192 . S
C879 C74 1.156 . S
C884 C166 1.171 . S
C889 C256 1.180 . S
C894 C180 1.188 . S
C899 C46 1.144 . S
C904 C194 1.157 . S
C909 C208 1.187 1_556 S
C914 C228 1.179 . S
C919 C18 1.156 . S
C924 C222 1.171 . S
C929 C200 1.183 . S
C934 C236 1.192 . S
C939 C438 1.156 . S
C944 C250 1.171 . S
C949 C264 1.190 1_556 S
C954 C172 1.181 . S
C959 C278 1.155 . S
C964 C410 1.140 . S
C969 C292 1.188 1_554 S
C974 C144 1.179 . S
C979 C306 1.172 . S
C984 C382 1.160 . S
C989 C320 1.189 . S
C994 C116 1.181 . S
C999 C334 1.157 . S
C1004 C354 1.143 . S
C1009 C88 1.183 . S
C1014 C348 1.191 . S
C1019 C326 1.159 . S
C1024 C362 1.174 . S
C1029 C60 1.181 . S
C1034 C376 1.189 1_554 S
C1039 C390 1.155 . S
C1044 C298 1.139 . S
C1049 C404 1.188 1_556 S
C1054 C32 1.181 . S
C1059 C270 1.156 . S
C1064 C418 1.170 . S
C1069 C432 1.190 . S
C1074 C4 1.181 . S
C1079 C446 1.154 . S
C1084 C242 1.139 . S
