# Generated by pormake.
# Topology umx, (4)-cn, num edge types: 1
# Building blocks:
#     Node 0, Type 0, BuildingBlock: NAWXER_clean_sbu_0, # of connection points: 4
#     Node 1, Type 0, BuildingBlock: NAWXER_clean_sbu_0, # of connection points: 4
#     Node 2, Type 0, BuildingBlock: NAWXER_clean_sbu_0, # of connection points: 4
#     Node 3, Type 0, BuildingBlock: NAWXER_clean_sbu_0, # of connection points: 4
#     Node 4, Type 0, BuildingBlock: NAWXER_clean_sbu_0, # of connection points: 4
#     Node 5, Type 0, BuildingBlock: NAWXER_clean_sbu_0, # of connection points: 4
#     Node 6, Type 0, BuildingBlock: NAWXER_clean_sbu_0, # of connection points: 4
#     Node 7, Type 0, BuildingBlock: NAWXER_clean_sbu_0, # of connection points: 4
#     Edge 8, Type (0, 0), BuildingBlock: TEMPAE_clean_linker_10, # of connection points: 2
#     Edge 9, Type (0, 0), BuildingBlock: TEMPAE_clean_linker_10, # of connection points: 2
#     Edge 10, Type (0, 0), BuildingBlock: TEMPAE_clean_linker_10, # of connection points: 2
#     Edge 11, Type (0, 0), BuildingBlock: TEMPAE_clean_linker_10, # of connection points: 2
#     Edge 12, Type (0, 0), BuildingBlock: TEMPAE_clean_linker_10, # of connection points: 2
#     Edge 13, Type (0, 0), BuildingBlock: TEMPAE_clean_linker_10, # of connection points: 2
#     Edge 14, Type (0, 0), BuildingBlock: TEMPAE_clean_linker_10, # of connection points: 2
#     Edge 15, Type (0, 0), BuildingBlock: TEMPAE_clean_linker_10, # of connection points: 2
#     Edge 16, Type (0, 0), BuildingBlock: TEMPAE_clean_linker_10, # of connection points: 2
#     Edge 17, Type (0, 0), BuildingBlock: TEMPAE_clean_linker_10, # of connection points: 2
#     Edge 18, Type (0, 0), BuildingBlock: TEMPAE_clean_linker_10, # of connection points: 2
#     Edge 19, Type (0, 0), BuildingBlock: TEMPAE_clean_linker_10, # of connection points: 2
#     Edge 20, Type (0, 0), BuildingBlock: TEMPAE_clean_linker_10, # of connection points: 2
#     Edge 21, Type (0, 0), BuildingBlock: TEMPAE_clean_linker_10, # of connection points: 2
#     Edge 22, Type (0, 0), BuildingBlock: TEMPAE_clean_linker_10, # of connection points: 2
#     Edge 23, Type (0, 0), BuildingBlock: TEMPAE_clean_linker_10, # of connection points: 2
# Relax obj value: 0.027
# Max RMSD: 0.221
# Mean RMSD: 0.220
data_MOF--net-umx--node1-NAWXER_clean_sbu_0--edge1-TEMPAE_clean_linker_10
_symmetry_space_group_name_H-M    P1
_symmetry_Int_Tables_number       1
_symmetry_cell_setting            triclinic
loop_
_symmetry_equiv_pos_as_xyz
'x, y, z'
_cell_length_a     39.474089
_cell_length_b     39.451021
_cell_length_c     29.752305
_cell_angle_alpha  95.729865
_cell_angle_beta   95.866214
_cell_angle_gamma 90.055348
loop_
_atom_site_label
_atom_site_type_symbol
_atom_site_fract_x
_atom_site_fract_y
_atom_site_fract_z
_atom_type_partial_charge
C0 C 0.22374 0.40137 0.03492 0.0
C1 C 0.11733 0.46113 0.03036 0.0
O2 O 0.19358 0.38958 0.03079 0.0
Zn3 Zn 0.17085 0.43208 0.03274 0.0
O4 O 0.22901 0.43368 0.03944 0.0
Zn5 Zn 0.19777 0.47852 0.04377 0.0
O6 O 0.21117 0.49933 0.1044 0.0
O7 O 0.18127 0.45193 0.10295 0.0
O8 O 0.14256 0.48222 0.03832 0.0
O9 O 0.12261 0.42939 0.02417 0.0
O10 O 0.18243 0.4533 0.972 0.0
O11 O 0.21014 0.50169 0.99365 0.0
C12 C 0.19706 0.47765 0.1255 0.0
C13 C 0.19747 0.47998 0.96198 0.0
C14 C 0.50982 0.19275 0.44759 0.0
C15 C 0.51717 0.2029 0.61321 0.0
O16 O 0.48837 0.2058 0.4732 0.0
Zn17 Zn 0.51362 0.19829 0.52991 0.0
O18 O 0.53748 0.1802 0.46537 0.0
Zn19 Zn 0.56126 0.17457 0.53338 0.0
O20 O 0.56619 0.12668 0.53374 0.0
O21 O 0.51247 0.14308 0.52781 0.0
O22 O 0.54311 0.18813 0.59788 0.0
O23 O 0.49398 0.21362 0.58551 0.0
O24 O 0.55666 0.232 0.5297 0.0
O25 O 0.60252 0.20023 0.53726 0.0
C26 C 0.53467 0.11935 0.53003 0.0
C27 C 0.58915 0.22909 0.53299 0.0
C28 C 0.87396 0.53591 0.01993 0.0
C29 C 0.76322 0.58738 0.00881 0.0
O30 O 0.85031 0.51308 0.01609 0.0
Zn31 Zn 0.79491 0.51259 1.00735 0.0
O32 O 0.86637 0.56712 0.01975 0.0
Zn33 Zn 0.81841 0.5608 0.01343 0.0
O34 O 0.80855 0.5419 0.07694 0.0
O35 O 0.78359 0.49152 0.05931 0.0
O36 O 0.79242 0.60123 0.01124 0.0
O37 O 0.7604 0.55492 1.00759 0.0
O38 O 0.78373 0.48801 0.94789 0.0
O39 O 0.80958 0.53716 0.9454 0.0
C40 C 0.79497 0.51515 0.08924 0.0
C41 C 0.79615 0.50954 0.92493 0.0
C42 C 0.4739 0.79404 0.4418 0.0
C43 C 0.48195 0.80023 0.60717 0.0
O44 O 0.44855 0.8095 0.45794 0.0
Zn45 Zn 0.43074 0.82154 0.52356 0.0
O46 O 0.49651 0.78148 0.46863 0.0
Zn47 Zn 0.47772 0.79647 0.52456 0.0
O48 O 0.43394 0.76365 0.52348 0.0
O49 O 0.38884 0.79668 0.51871 0.0
O50 O 0.50314 0.78752 0.58096 0.0
O51 O 0.45449 0.8135 0.59016 0.0
O52 O 0.42724 0.86981 0.52805 0.0
O53 O 0.48016 0.85162 0.52644 0.0
C54 C 0.40155 0.76732 0.52091 0.0
C55 C 0.45876 0.87612 0.528 0.0
C56 C 0.19551 0.5112 0.46616 0.0
C57 C 0.2001 0.51539 0.63104 0.0
O58 O 0.18222 0.53841 0.48382 0.0
Zn59 Zn 0.17363 0.56069 0.55104 0.0
O60 O 0.20788 0.48937 0.49174 0.0
Zn61 Zn 0.1984 0.51364 0.54844 0.0
O62 O 0.14309 0.51126 0.54424 0.0
O63 O 0.12548 0.56453 0.54553 0.0
O64 O 0.21266 0.49335 0.60358 0.0
O65 O 0.18489 0.54124 0.6158 0.0
O66 O 0.19853 0.60259 0.55802 0.0
O67 O 0.2315 0.55755 0.55155 0.0
C68 C 0.11879 0.53291 0.54306 0.0
C69 C 0.22787 0.58997 0.55549 0.0
C70 C 0.40344 0.2234 0.01434 0.0
C71 C 0.464 0.1174 0.0124 0.0
O72 O 0.43557 0.22878 0.02343 0.0
Zn73 Zn 0.48066 0.198 0.02616 0.0
O74 O 0.392 0.19324 1.00462 0.0
Zn75 Zn 0.43455 0.17065 0.01115 0.0
O76 O 0.45222 0.18104 0.08295 0.0
O77 O 0.50022 0.21061 0.08729 0.0
O78 O 0.43247 0.12228 1.00266 0.0
O79 O 0.48467 0.14287 0.02187 0.0
O80 O 0.50467 0.21153 0.97686 0.0
O81 O 0.45754 0.18257 0.95278 0.0
C82 C 0.47763 0.19649 0.10694 0.0
C83 C 0.4841 0.19838 0.94418 0.0
C84 C 0.79734 0.4775 0.5844 0.0
C85 C 0.79377 0.48121 0.42064 0.0
O86 O 0.78549 0.50079 0.56084 0.0
Zn87 Zn 0.79489 0.47908 0.50298 0.0
O88 O 0.81018 0.45075 0.56469 0.0
Zn89 Zn 0.81794 0.43117 0.49552 0.0
O90 O 0.86595 0.42576 0.49821 0.0
O91 O 0.85022 0.47949 0.50978 0.0
O92 O 0.80752 0.45398 0.43362 0.0
O93 O 0.78213 0.50267 0.44968 0.0
O94 O 0.76028 0.43623 0.49642 0.0
O95 O 0.79131 0.39023 0.48525 0.0
C96 C 0.87372 0.45711 0.50676 0.0
C97 C 0.76255 0.40375 0.4896 0.0
C98 C 0.58562 0.76466 0.03938 0.0
C99 C 0.53479 0.87558 0.04063 0.0
O100 O 0.59955 0.79385 0.04799 0.0
Zn101 Zn 0.55924 0.81991 0.04163 0.0
O102 O 0.55315 0.7619 0.03118 0.0
Zn103 Zn 0.51096 0.79666 0.02892 0.0
O104 O 0.48978 0.78522 0.968 0.0
O105 O 0.54042 0.80952 0.97076 0.0
O106 O 0.51171 0.85211 0.03451 0.0
O107 O 0.56598 0.86777 0.04645 0.0
O108 O 0.53554 0.81169 0.10149 0.0
O109 O 0.48645 0.78576 0.07864 0.0
C110 C 0.51358 0.79635 0.94754 0.0
C111 C 0.50793 0.79808 0.11081 0.0
C112 C 0.22071 0.50558 0.20167 0.0
C113 C 0.19816 0.48206 0.17566 0.0
C114 C 0.22162 0.51001 0.24923 0.0
C115 C 0.1991 0.49081 0.27116 0.0
C116 C 0.17632 0.46702 0.24507 0.0
C117 C 0.17628 0.46278 0.1977 0.0
C118 C 0.24655 0.53534 0.27599 0.0
C119 C 0.15159 0.4464 0.26714 0.0
C120 C 0.21746 0.48076 0.39711 0.0
C121 C 0.19652 0.50574 0.41634 0.0
C122 C 0.21895 0.47592 0.34992 0.0
C123 C 0.19865 0.49621 0.32131 0.0
C124 C 0.17733 0.52133 0.34052 0.0
C125 C 0.1767 0.52593 0.38779 0.0
C126 C 0.24227 0.44915 0.33067 0.0
C127 C 0.15495 0.54316 0.31111 0.0
H128 H 0.23781 0.52044 0.18489 0.0
H129 H 0.15864 0.44466 0.17784 0.0
H130 H 0.23255 0.55571 0.29453 0.0
H131 H 0.26283 0.52256 0.30175 0.0
H132 H 0.26321 0.54732 0.25398 0.0
H133 H 0.13572 0.42875 0.24205 0.0
H134 H 0.16561 0.43127 0.29234 0.0
H135 H 0.13448 0.46372 0.28576 0.0
H136 H 0.23301 0.46521 0.41897 0.0
H137 H 0.16034 0.5452 0.40236 0.0
H138 H 0.26036 0.46096 0.31048 0.0
H139 H 0.22717 0.42975 0.30735 0.0
H140 H 0.25705 0.43609 0.35758 0.0
H141 H 0.17079 0.55765 0.29076 0.0
H142 H 0.13976 0.5615 0.33137 0.0
H143 H 0.13723 0.52676 0.28687 0.0
C144 C 0.48889 0.22618 0.6815 0.0
C145 C 0.51397 0.2058 0.66265 0.0
C146 C 0.48493 0.22762 0.72809 0.0
C147 C 0.50622 0.2078 0.75625 0.0
C148 C 0.53196 0.18767 0.73753 0.0
C149 C 0.53566 0.1871 0.69109 0.0
C150 C 0.4575 0.24974 0.74698 0.0
C151 C 0.55485 0.16579 0.76622 0.0
C152 C 0.51316 0.22524 0.8851 0.0
C153 C 0.49015 0.2011 0.89634 0.0
C154 C 0.51819 0.22825 0.83954 0.0
C155 C 0.50022 0.20622 0.80459 0.0
C156 C 0.47713 0.18171 0.81584 0.0
C157 C 0.47221 0.17963 0.86148 0.0
C158 C 0.54269 0.25497 0.82876 0.0
C159 C 0.4579 0.15734 0.77967 0.0
H160 H 0.47218 0.24086 0.65981 0.0
H161 H 0.55506 0.17118 0.67685 0.0
H162 H 0.43785 0.2335 0.75865 0.0
H163 H 0.46843 0.26674 0.77692 0.0
H164 H 0.4449 0.26562 0.72147 0.0
H165 H 0.57456 0.15271 0.74691 0.0
H166 H 0.56776 0.18151 0.79607 0.0
H167 H 0.53936 0.14618 0.7793 0.0
H168 H 0.52691 0.24207 0.91186 0.0
H169 H 0.4545 0.16079 0.86988 0.0
H170 H 0.52949 0.27181 0.80501 0.0
H171 H 0.56376 0.24259 0.81154 0.0
H172 H 0.55376 0.27091 0.85968 0.0
H173 H 0.44232 0.17177 0.75506 0.0
H174 H 0.44083 0.13981 0.7941 0.0
H175 H 0.47612 0.14189 0.76046 0.0
C176 C 0.81363 0.46896 0.34384 0.0
C177 C 0.7925 0.48751 0.37227 0.0
C178 C 0.81329 0.47448 0.29799 0.0
C179 C 0.79086 0.49877 0.27982 0.0
C180 C 0.76927 0.51746 0.3082 0.0
C181 C 0.77056 0.51182 0.35427 0.0
C182 C 0.83711 0.45441 0.26906 0.0
C183 C 0.74467 0.54322 0.28981 0.0
C184 C 0.81287 0.53289 0.17131 0.0
C185 C 0.79286 0.51186 0.13802 0.0
C186 C 0.81203 0.52932 0.21765 0.0
C187 C 0.79025 0.50448 0.23106 0.0
C188 C 0.76931 0.4838 0.19767 0.0
C189 C 0.77108 0.48753 0.15152 0.0
C190 C 0.83514 0.55148 0.2522 0.0
C191 C 0.74543 0.45735 0.21067 0.0
H192 H 0.83087 0.45032 0.35758 0.0
H193 H 0.75408 0.52613 0.37604 0.0
H194 H 0.82226 0.43909 0.2404 0.0
H195 H 0.85377 0.47206 0.25424 0.0
H196 H 0.85346 0.43695 0.28864 0.0
H197 H 0.72927 0.55529 0.31615 0.0
H198 H 0.7588 0.56347 0.27598 0.0
H199 H 0.72717 0.53073 0.2614 0.0
H200 H 0.82982 0.55168 0.16112 0.0
H201 H 0.75531 0.47141 0.12599 0.0
H202 H 0.85347 0.53531 0.27096 0.0
H203 H 0.82004 0.56533 0.27749 0.0
H204 H 0.8497 0.57037 0.23632 0.0
H205 H 0.7603 0.43741 0.22739 0.0
H206 H 0.72922 0.44492 0.18083 0.0
H207 H 0.72868 0.4692 0.23546 0.0
C208 C 0.48543 0.77444 0.87074 0.0
C209 C 0.51026 0.79515 0.89737 0.0
C210 C 0.48172 0.77383 0.82319 0.0
C211 C 0.50297 0.79488 0.80189 0.0
C212 C 0.52821 0.81566 0.82859 0.0
C213 C 0.53172 0.81535 0.87594 0.0
C214 C 0.45484 0.75096 0.79578 0.0
C215 C 0.551 0.83885 0.80723 0.0
C216 C 0.51173 0.77661 0.6756 0.0
C217 C 0.48816 0.79926 0.65695 0.0
C218 C 0.51662 0.77464 0.72273 0.0
C219 C 0.49791 0.79624 0.75184 0.0
C220 C 0.47446 0.81948 0.7332 0.0
C221 C 0.46968 0.82051 0.68599 0.0
C222 C 0.54151 0.74922 0.74134 0.0
C223 C 0.45445 0.84335 0.76314 0.0
H224 H 0.46891 0.75861 0.88706 0.0
H225 H 0.55086 0.83156 0.89629 0.0
H226 H 0.43556 0.76661 0.77778 0.0
H227 H 0.46651 0.73417 0.76954 0.0
H228 H 0.44165 0.73481 0.81726 0.0
H229 H 0.56982 0.85292 0.83269 0.0
H230 H 0.56496 0.82386 0.78162 0.0
H231 H 0.53531 0.85763 0.78921 0.0
H232 H 0.52591 0.75994 0.6533 0.0
H233 H 0.45154 0.8382 0.67183 0.0
H234 H 0.52823 0.73161 0.76073 0.0
H235 H 0.56171 0.76263 0.76527 0.0
H236 H 0.55374 0.73395 0.71413 0.0
H237 H 0.43843 0.8285 0.78283 0.0
H238 H 0.4377 0.86036 0.74334 0.0
H239 H 0.47212 0.85935 0.78796 0.0
C240 C 0.77479 0.50484 0.65473 0.0
C241 C 0.79613 0.48088 0.63422 0.0
C242 C 0.77339 0.50822 0.70192 0.0
C243 C 0.79425 0.48753 0.72931 0.0
C244 C 0.81573 0.4632 0.70879 0.0
C245 C 0.81622 0.45999 0.66145 0.0
C246 C 0.74984 0.53416 0.72253 0.0
C247 C 0.83875 0.44107 0.73692 0.0
C248 C 0.81736 0.52212 0.8522 0.0
C249 C 0.79574 0.50313 0.875 0.0
C250 C 0.81738 0.51695 0.80491 0.0
C251 C 0.79485 0.49255 0.77962 0.0
C252 C 0.77291 0.47326 0.80236 0.0
C253 C 0.77382 0.47858 0.84991 0.0
C254 C 0.84154 0.53766 0.78203 0.0
C255 C 0.74824 0.44732 0.7764 0.0
H256 H 0.75896 0.52085 0.63385 0.0
H257 H 0.83284 0.44148 0.64584 0.0
H258 H 0.73282 0.52173 0.74359 0.0
H259 H 0.76494 0.5539 0.74525 0.0
H260 H 0.73391 0.54692 0.69635 0.0
H261 H 0.85331 0.42279 0.71566 0.0
H262 H 0.85708 0.4573 0.7605 0.0
H263 H 0.82356 0.42651 0.75798 0.0
H264 H 0.83459 0.54095 0.8714 0.0
H265 H 0.75697 0.46393 0.86734 0.0
H266 H 0.82693 0.55323 0.75789 0.0
H267 H 0.85798 0.52046 0.76212 0.0
H268 H 0.85811 0.55494 0.80676 0.0
H269 H 0.73072 0.45989 0.75176 0.0
H270 H 0.73285 0.43447 0.79911 0.0
H271 H 0.76227 0.42768 0.7566 0.0
C272 C 0.47678 0.77448 0.17036 0.0
C273 C 0.50166 0.79655 0.1588 0.0
C274 C 0.47146 0.77228 0.21597 0.0
C275 C 0.49111 0.79303 0.25071 0.0
C276 C 0.51601 0.81558 0.23918 0.0
C277 C 0.52114 0.81688 0.19343 0.0
C278 C 0.44496 0.74764 0.22702 0.0
C279 C 0.53711 0.83851 0.27517 0.0
C280 C 0.45727 0.81325 0.36518 0.0
C281 C 0.47725 0.7923 0.39248 0.0
C282 C 0.4612 0.81338 0.31887 0.0
C283 C 0.48537 0.79168 0.29917 0.0
C284 C 0.50502 0.76982 0.32624 0.0
C285 C 0.50091 0.77057 0.37268 0.0
C286 C 0.4401 0.83741 0.29131 0.0
C287 C 0.53074 0.74601 0.30627 0.0
H288 H 0.46179 0.75854 0.14379 0.0
H289 H 0.5403 0.83412 0.18476 0.0
H290 H 0.45692 0.7296 0.25006 0.0
H291 H 0.42523 0.76167 0.24514 0.0
H292 H 0.4323 0.7328 0.19615 0.0
H293 H 0.5552 0.85485 0.26051 0.0
H294 H 0.5202 0.85517 0.29504 0.0
H295 H 0.55183 0.82296 0.29925 0.0
H296 H 0.43904 0.83025 0.38023 0.0
H297 H 0.5163 0.75418 0.39351 0.0
H298 H 0.42569 0.82301 0.26146 0.0
H299 H 0.45706 0.85573 0.27822 0.0
H300 H 0.42177 0.85199 0.31145 0.0
H301 H 0.51841 0.72981 0.27643 0.0
H302 H 0.54255 0.72924 0.33123 0.0
H303 H 0.55119 0.76097 0.29418 0.0
C304 C 0.22183 0.50989 0.90182 0.0
C305 C 0.19962 0.48528 0.91375 0.0
C306 C 0.22386 0.51502 0.8561 0.0
C307 C 0.20283 0.49543 0.82162 0.0
C308 C 0.18039 0.47056 0.83348 0.0
C309 C 0.17923 0.46563 0.87934 0.0
C310 C 0.2484 0.54149 0.84469 0.0
C311 C 0.15721 0.44947 0.79775 0.0
C312 C 0.18121 0.53056 0.70807 0.0
C313 C 0.20193 0.511 0.6801 0.0
C314 C 0.18152 0.52597 0.75425 0.0
C315 C 0.20344 0.50155 0.77315 0.0
C316 C 0.22496 0.48221 0.74537 0.0
C317 C 0.22377 0.48699 0.69906 0.0
C318 C 0.15784 0.54676 0.7826 0.0
C319 C 0.24899 0.45625 0.76447 0.0
H320 H 0.23781 0.52502 0.9282 0.0
H321 H 0.1619 0.44665 0.88826 0.0
H322 H 0.26579 0.52967 0.82073 0.0
H323 H 0.23416 0.5616 0.82751 0.0
H324 H 0.26393 0.55365 0.87532 0.0
H325 H 0.14141 0.43102 0.8126 0.0
H326 H 0.14003 0.46642 0.77855 0.0
H327 H 0.17248 0.43518 0.77304 0.0
H328 H 0.16414 0.54906 0.69366 0.0
H329 H 0.23999 0.47193 0.67771 0.0
H330 H 0.17261 0.56112 0.81217 0.0
H331 H 0.13995 0.52958 0.7961 0.0
H332 H 0.1428 0.56511 0.76292 0.0
H333 H 0.26567 0.46835 0.794 0.0
H334 H 0.26525 0.44452 0.73892 0.0
H335 H 0.23424 0.43574 0.77682 0.0
C336 C 0.47842 0.21359 0.37828 0.0
C337 C 0.5036 0.19283 0.39762 0.0
C338 C 0.47332 0.21493 0.33107 0.0
C339 C 0.49356 0.19467 0.30249 0.0
C340 C 0.51864 0.17326 0.32176 0.0
C341 C 0.52351 0.17278 0.36909 0.0
C342 C 0.44658 0.23835 0.31181 0.0
C343 C 0.54043 0.15093 0.29238 0.0
C344 C 0.46128 0.17458 0.17787 0.0
C345 C 0.48099 0.19688 0.15705 0.0
C346 C 0.46501 0.17369 0.22517 0.0
C347 C 0.4887 0.19595 0.2524 0.0
C348 C 0.50825 0.21894 0.23168 0.0
C349 C 0.50434 0.21897 0.18423 0.0
C350 C 0.44401 0.14851 0.24593 0.0
C351 C 0.53347 0.24337 0.25964 0.0
H352 H 0.46306 0.22931 0.40012 0.0
H353 H 0.54292 0.15655 0.38374 0.0
H354 H 0.45862 0.25708 0.29273 0.0
H355 H 0.42764 0.2235 0.28748 0.0
H356 H 0.43297 0.25245 0.33862 0.0
H357 H 0.55819 0.13507 0.31258 0.0
H358 H 0.52401 0.13384 0.26729 0.0
H359 H 0.55555 0.16693 0.27298 0.0
H360 H 0.44332 0.15729 0.15711 0.0
H361 H 0.51954 0.23638 0.16842 0.0
H362 H 0.42873 0.16211 0.27121 0.0
H363 H 0.46105 0.13093 0.26421 0.0
H364 H 0.42647 0.13317 0.22007 0.0
H365 H 0.52051 0.25923 0.28553 0.0
H366 H 0.5458 0.26047 0.2385 0.0
H367 H 0.55359 0.22892 0.27809 0.0
C368 C 0.93318 0.54371 1.00138 0.0
C369 C 0.9099 0.52593 0.02301 0.0
C370 C 0.96731 0.53388 1.00244 0.0
C371 C 0.97852 0.50639 0.02708 0.0
C372 C 0.95523 0.48894 0.05003 0.0
C373 C 0.92094 0.49855 0.04699 0.0
C374 C 0.99115 0.55233 0.9763 0.0
C375 C 0.96653 0.46016 0.07775 0.0
C376 C 0.05708 0.45778 0.99692 0.0
C377 C 0.08223 0.47351 0.02879 0.0
C378 C 0.0233 0.46876 0.99539 0.0
C379 C 0.01439 0.49522 0.02764 0.0
C380 C 0.03971 0.51095 0.06025 0.0
C381 C 0.07358 0.50028 0.05988 0.0
C382 C -0.0028 0.45218 0.95916 0.0
C383 C 0.03092 0.53852 0.09599 0.0
H384 H 0.92444 0.56472 0.98249 0.0
H385 H 0.90285 0.48504 0.06399 0.0
H386 H 0.01289 0.5636 0.99958 0.0
H387 H 0.00183 0.53402 0.95079 0.0
H388 H 0.97826 0.57296 0.95848 0.0
H389 H 0.94573 0.45079 0.09595 0.0
H390 H 0.97549 0.43859 0.05534 0.0
H391 H 0.98827 0.46867 0.10302 0.0
H392 H 0.064 0.4372 0.97272 0.0
H393 H 0.09312 0.51212 0.08479 0.0
H394 H 0.98443 0.47185 0.93944 0.0
H395 H 0.97724 0.43925 0.97509 0.0
H396 H 0.00869 0.43314 0.93529 0.0
H397 H 0.01981 0.56062 0.07967 0.0
H398 H 0.05347 0.54748 0.11964 0.0
H399 H 0.01138 0.52887 0.11599 0.0
C400 C 0.45572 0.93747 0.55559 0.0
C401 C 0.47057 0.9115 0.52888 0.0
C402 C 0.46651 0.97141 0.5565 0.0
C403 C 0.49178 0.97953 0.52867 0.0
C404 C 0.50648 0.95336 0.5011 0.0
C405 C 0.49612 0.91947 0.5022 0.0
C406 C 0.4511 -0.00151 0.5875 0.0
C407 C 0.53271 0.96121 0.46994 0.0
C408 C 0.49494 0.07125 0.50112 0.0
C409 C 0.52371 0.0837 0.52935 0.0
C410 C 0.48468 0.03708 0.49976 0.0
C411 C 0.50293 0.01544 0.52862 0.0
C412 C 0.53167 0.02818 0.55779 0.0
C413 C 0.5421 0.06207 0.55717 0.0
C414 C 0.45456 0.02407 0.46718 0.0
C415 C 0.55105 0.00619 0.59014 0.0
H416 H 0.43609 0.93111 0.57641 0.0
H417 H 0.50726 0.89927 0.4812 0.0
H418 H 0.47152 0.01242 0.61052 0.0
H419 H 0.43759 0.01738 0.5672 0.0
H420 H 0.43282 0.98767 0.60843 0.0
H421 H 0.54067 0.93804 0.44944 0.0
H422 H 0.52228 0.97972 0.44652 0.0
H423 H 0.55559 0.9732 0.49004 0.0
H424 H 0.48096 0.08806 0.47939 0.0
H425 H 0.56419 0.07194 0.5793 0.0
H426 H 0.43399 0.0155 0.48628 0.0
H427 H 0.4621 0.00168 0.4449 0.0
H428 H 0.44419 0.04377 0.44551 0.0
H429 H 0.53351 0.99613 0.61262 0.0
H430 H 0.57216 0.02036 0.61162 0.0
H431 H 0.56186 0.98396 0.57089 0.0
C432 C 0.0737 0.49306 0.55945 0.0
C433 C 0.08314 0.52119 0.53817 0.0
C434 C 0.03955 0.48236 0.55592 0.0
C435 C 0.01468 0.49951 0.52912 0.0
C436 C 0.02431 0.52752 0.50683 0.0
C437 C 0.0584 0.53842 0.51231 0.0
C438 C 0.03001 0.45304 0.58128 0.0
C439 C -0.0013 0.54574 0.47679 0.0
C440 C 0.93273 0.4517 0.48512 0.0
C441 C 0.90968 0.46776 0.51283 0.0
C442 C 0.967 0.46201 0.48978 0.0
C443 C 0.97856 0.4881 0.5241 0.0
C444 C 0.95545 0.50381 0.55291 0.0
C445 C 0.92104 0.49387 0.54632 0.0
C446 C 0.99063 0.4455 0.45742 0.0
C447 C 0.96711 0.53096 0.59079 0.0
H448 H 0.09292 0.47999 0.57976 0.0
H449 H 0.06587 0.56001 0.49555 0.0
H450 H 0.01029 0.46123 0.60401 0.0
H451 H 0.01888 0.43182 0.557 0.0
H452 H 0.05222 0.44331 0.60201 0.0
H453 H 0.01064 0.56619 0.46044 0.0
H454 H 0.9858 0.52728 0.44983 0.0
H455 H 0.97875 0.55724 0.49698 0.0
H456 H 0.92372 0.43165 0.459 0.0
H457 H 0.90312 0.50599 0.56797 0.0
H458 H 0.01194 0.43308 0.47653 0.0
H459 H 0.00195 0.4652 0.43916 0.0
H460 H 0.97739 0.4261 0.43199 0.0
H461 H 0.98846 0.52134 0.6131 0.0
H462 H 0.94632 0.53914 0.61182 0.0
H463 H 0.97674 0.55357 0.57649 0.0
C464 C 0.54575 0.93273 0.01688 0.0
C465 C 0.52539 0.91139 0.03808 0.0
C466 C 0.53649 0.96652 0.01195 0.0
C467 C 0.50683 0.97948 0.03015 0.0
C468 C 0.48664 0.95823 0.05268 0.0
C469 C 0.49584 0.92412 0.0556 0.0
C470 C 0.55799 0.98807 0.98637 0.0
C471 C 0.45542 0.97153 0.07373 0.0
C472 C 0.50031 0.07553 0.05121 0.0
C473 C 0.47636 0.08254 0.01541 0.0
C474 C 0.51016 0.04196 0.05682 0.0
C475 C 0.4966 0.01513 0.02486 0.0
C476 C 0.47319 0.02233 0.98779 0.0
C477 C 0.46282 0.05598 0.98402 0.0
C478 C 0.53436 0.0351 0.09751 0.0
C479 C 0.45911 0.99452 0.95219 0.0
H480 H 0.56841 0.92264 1.00286 0.0
H481 H 0.48026 0.90753 0.07219 0.0
H482 H 0.54216 -0.00281 0.95707 0.0
H483 H 0.56786 0.01091 0.00863 0.0
H484 H 0.57993 0.97387 0.97358 0.0
H485 H 0.44371 0.95228 0.09239 0.0
H486 H 0.46217 0.99454 0.0976 0.0
H487 H 0.43613 0.9792 0.04697 0.0
H488 H 0.51034 0.09618 0.07578 0.0
H489 H 0.44435 0.06161 0.95628 0.0
H490 H 0.55766 0.02265 0.08627 0.0
H491 H 0.52223 0.0173 0.11785 0.0
H492 H 0.54196 0.05876 0.11974 0.0
H493 H 0.48029 0.98023 0.93758 0.0
H494 H 0.44267 0.0047 0.92417 0.0
H495 H 0.44392 0.97609 0.96787 0.0
C496 C 0.2513 0.34764 0.05466 0.0
C497 C 0.2525 0.37789 0.034 0.0
C498 C 0.27791 0.32429 0.0528 0.0
C499 C 0.30567 0.33091 0.02824 0.0
C500 C 0.30706 0.36158 1.00748 0.0
C501 C 0.28062 0.38508 0.01132 0.0
C502 C 0.27608 0.29234 0.07656 0.0
C503 C 0.33575 0.36895 0.97986 0.0
C504 C 0.38582 0.2796 0.04942 0.0
C505 C 0.37977 0.25204 0.01607 0.0
C506 C 0.36206 0.30583 0.05356 0.0
C507 C 0.33228 0.30483 0.02258 0.0
C508 C 0.32689 0.27774 0.98757 0.0
C509 C 0.35046 0.25129 0.98526 0.0
C510 C 0.36811 0.33378 0.09212 0.0
C511 C 0.29593 0.27637 0.95308 0.0
H512 H 0.22959 0.34237 0.07257 0.0
H513 H 0.28127 0.40846 0.99509 0.0
H514 H 0.27338 0.26971 0.05111 0.0
H515 H 0.29997 0.28938 0.09887 0.0
H516 H 0.25428 0.29252 0.09744 0.0
H517 H 0.33353 0.39443 0.96703 0.0
H518 H 0.36065 0.36761 1.00051 0.0
H519 H 0.33581 0.34932 0.95042 0.0
H520 H 0.40847 0.27992 0.0734 0.0
H521 H 0.34607 0.23004 0.95919 0.0
H522 H 0.34777 0.33285 0.11513 0.0
H523 H 0.36686 0.3591 0.07891 0.0
H524 H 0.39317 0.33151 0.11222 0.0
H525 H 0.27265 0.27268 0.97006 0.0
H526 H 0.29722 0.25533 0.92557 0.0
H527 H 0.29323 0.30081 0.93762 0.0
C528 C 0.7082 0.39205 0.52085 0.0
C529 C 0.73254 0.382 0.4912 0.0
C530 C 0.68211 0.36961 0.52778 0.0
C531 C 0.67993 0.33684 0.50345 0.0
C532 C 0.70326 0.32744 0.47138 0.0
C533 C 0.7297 0.34997 0.46621 0.0
C534 C 0.65822 0.38019 0.56306 0.0
C535 C 0.70111 0.29307 0.44384 0.0
C536 C 0.64351 0.26151 0.55234 0.0
C537 C 0.61091 0.25861 0.52887 0.0
C538 C 0.66564 0.28795 0.54592 0.0
C539 C 0.65521 0.31126 0.51411 0.0
C540 C 0.62203 0.3088 0.49091 0.0
C541 C 0.60002 0.28269 0.49911 0.0
C542 C 0.70049 0.29039 0.5723 0.0
C543 C 0.6104 0.33266 0.45592 0.0
H544 H 0.71066 0.41676 0.54051 0.0
H545 H 0.74846 0.34237 0.44306 0.0
H546 H 0.63136 0.37567 0.54878 0.0
H547 H 0.663 0.36447 0.59194 0.0
H548 H 0.66154 0.40746 0.57628 0.0
H549 H 0.71866 0.29128 0.41682 0.0
H550 H 0.7077 0.27282 0.46646 0.0
H551 H 0.67473 0.28788 0.42784 0.0
H552 H 0.65174 0.24295 0.57559 0.0
H553 H 0.57485 0.28016 0.48064 0.0
H554 H 0.70534 0.31663 0.58897 0.0
H555 H 0.7203 0.28483 0.54879 0.0
H556 H 0.70339 0.27229 0.59871 0.0
H557 H 0.6142 0.35955 0.47047 0.0
H558 H 0.58315 0.32862 0.44291 0.0
H559 H 0.62598 0.32869 0.42688 0.0
C560 C 0.73194 0.63895 0.98801 0.0
C561 C 0.73287 0.60882 0.0092 0.0
C562 C 0.70454 0.66122 0.9912 0.0
C563 C 0.67811 0.65362 0.01752 0.0
C564 C 0.67848 0.62272 0.03799 0.0
C565 C 0.70575 0.60035 0.03299 0.0
C566 C 0.70454 0.69349 0.9678 0.0
C567 C 0.65118 0.61422 0.06722 0.0
C568 C 0.63699 0.73344 0.06636 0.0
C569 C 0.60698 0.73424 0.03711 0.0
C570 C 0.65934 0.70609 0.06208 0.0
C571 C 0.65195 0.67958 0.02668 0.0
C572 C 0.62112 0.67977 0.99789 0.0
C573 C 0.59865 0.70699 1.00391 0.0
C574 C 0.69152 0.70626 0.0943 0.0
C575 C 0.61282 0.65236 0.95914 0.0
H576 H 0.75285 0.64522 0.96922 0.0
H577 H 0.7067 0.57707 0.0496 0.0
H578 H 0.67956 0.6966 0.94795 0.0
H579 H 0.70852 0.71584 0.99358 0.0
H580 H 0.72487 0.69367 0.94461 0.0
H581 H 0.65348 0.58786 0.0772 0.0
H582 H 0.65309 0.63225 0.09851 0.0
H583 H 0.62551 0.61717 0.04919 0.0
H584 H 0.64313 0.75445 0.09234 0.0
H585 H 0.57545 0.70784 0.98116 0.0
H586 H 0.7139 0.71048 0.07574 0.0
H587 H 0.69479 0.68127 0.10823 0.0
H588 H 0.69147 0.72654 0.12303 0.0
H589 H 0.63082 0.65438 0.93319 0.0
H590 H 0.58645 0.65445 0.94268 0.0
H591 H 0.61596 0.62672 0.97115 0.0
C592 C 0.34684 0.73585 0.49927 0.0
C593 C 0.37923 0.73791 0.52337 0.0
C594 C 0.32437 0.70919 0.50379 0.0
C595 C 0.33421 0.68485 0.5344 0.0
C596 C 0.36714 0.68658 0.55836 0.0
C597 C 0.38953 0.71288 0.55196 0.0
C598 C 0.28982 0.70755 0.47661 0.0
C599 C 0.37812 0.66166 0.59225 0.0
C600 C 0.25938 0.64434 0.57946 0.0
C601 C 0.25718 0.61257 0.5538 0.0
C602 C 0.28554 0.66744 0.57516 0.0
C603 C 0.30916 0.65892 0.54319 0.0
C604 C 0.30739 0.62654 0.5178 0.0
C605 C 0.28164 0.60346 0.52399 0.0
C606 C 0.28729 0.70132 0.60387 0.0
C607 C 0.33153 0.61697 0.48249 0.0
H608 H 0.33907 0.75516 0.47693 0.0
H609 H 0.41454 0.71477 0.57091 0.0
H610 H 0.285 0.68168 0.45871 0.0
H611 H 0.26968 0.71258 0.49974 0.0
H612 H 0.28746 0.7264 0.45114 0.0
H613 H 0.40516 0.6655 0.60637 0.0
H614 H 0.36189 0.66465 0.6207 0.0
H615 H 0.37463 0.63511 0.57626 0.0
H616 H 0.24049 0.65118 0.60271 0.0
H617 H 0.27959 0.57894 0.50382 0.0
H618 H 0.28112 0.7221 0.58197 0.0
H619 H 0.31347 0.70623 0.62074 0.0
H620 H 0.26927 0.70251 0.63032 0.0
H621 H 0.32735 0.63384 0.45478 0.0
H622 H 0.32798 0.5901 0.46754 0.0
H623 H 0.35832 0.62075 0.49748 0.0
loop_
_geom_bond_atom_site_label_1
_geom_bond_atom_site_label_2
_geom_bond_distance
_geom_bond_site_symmetry_2
_ccdc_geom_bond_type
C0 O2 1.247 . S
C0 O4 1.258 . S
C1 O8 1.247 . S
C1 O9 1.258 . S
O2 C0 1.247 . S
O2 Zn3 2.028 . S
Zn3 O2 2.028 . S
Zn3 O7 2.035 . S
Zn3 O9 2.035 . S
Zn3 O10 2.028 1_554 S
O4 C0 1.258 . S
O4 Zn5 2.035 . S
Zn5 O4 2.035 . S
Zn5 O6 2.028 . S
Zn5 O8 2.028 . S
Zn5 O11 2.035 1_554 S
O6 Zn5 2.028 . S
O6 C12 1.247 . S
O7 Zn3 2.035 . S
O7 C12 1.258 . S
O8 C1 1.247 . S
O8 Zn5 2.028 . S
O9 C1 1.258 . S
O9 Zn3 2.035 . S
O10 Zn3 2.028 1_556 S
O10 C13 1.247 . S
O11 Zn5 2.035 1_556 S
O11 C13 1.258 . S
C12 O6 1.247 . S
C12 O7 1.258 . S
C13 O10 1.247 . S
C13 O11 1.258 . S
C14 O16 1.247 . S
C14 O18 1.258 . S
C15 O22 1.247 . S
C15 O23 1.258 . S
O16 C14 1.247 . S
O16 Zn17 2.028 . S
Zn17 O16 2.028 . S
Zn17 O21 2.035 . S
Zn17 O23 2.035 . S
Zn17 O24 2.028 . S
O18 C14 1.258 . S
O18 Zn19 2.035 . S
Zn19 O18 2.035 . S
Zn19 O20 2.028 . S
Zn19 O22 2.028 . S
Zn19 O25 2.035 . S
O20 Zn19 2.028 . S
O20 C26 1.247 . S
O21 Zn17 2.035 . S
O21 C26 1.258 . S
O22 C15 1.247 . S
O22 Zn19 2.028 . S
O23 C15 1.258 . S
O23 Zn17 2.035 . S
O24 Zn17 2.028 . S
O24 C27 1.247 . S
O25 Zn19 2.035 . S
O25 C27 1.258 . S
C26 O20 1.247 . S
C26 O21 1.258 . S
C27 O24 1.247 . S
C27 O25 1.258 . S
C28 O30 1.247 . S
C28 O32 1.258 . S
C29 O36 1.247 . S
C29 O37 1.258 . S
O30 C28 1.247 . S
O30 Zn31 2.028 . S
Zn31 O30 2.028 . S
Zn31 O35 2.035 . S
Zn31 O37 2.035 . S
Zn31 O38 2.028 1_554 S
O32 C28 1.258 . S
O32 Zn33 2.035 . S
Zn33 O32 2.035 . S
Zn33 O34 2.028 . S
Zn33 O36 2.028 . S
Zn33 O39 2.035 1_554 S
O34 Zn33 2.028 . S
O34 C40 1.247 . S
O35 Zn31 2.035 . S
O35 C40 1.258 . S
O36 C29 1.247 . S
O36 Zn33 2.028 . S
O37 C29 1.258 . S
O37 Zn31 2.035 . S
O38 Zn31 2.028 1_556 S
O38 C41 1.247 . S
O39 Zn33 2.035 1_556 S
O39 C41 1.258 . S
C40 O34 1.247 . S
C40 O35 1.258 . S
C41 O38 1.247 . S
C41 O39 1.258 . S
C42 O44 1.247 . S
C42 O46 1.258 . S
C43 O50 1.247 . S
C43 O51 1.258 . S
O44 C42 1.247 . S
O44 Zn45 2.028 . S
Zn45 O44 2.028 . S
Zn45 O49 2.035 . S
Zn45 O51 2.035 . S
Zn45 O52 2.028 . S
O46 C42 1.258 . S
O46 Zn47 2.035 . S
Zn47 O46 2.035 . S
Zn47 O48 2.028 . S
Zn47 O50 2.028 . S
Zn47 O53 2.035 . S
O48 Zn47 2.028 . S
O48 C54 1.247 . S
O49 Zn45 2.035 . S
O49 C54 1.258 . S
O50 C43 1.247 . S
O50 Zn47 2.028 . S
O51 C43 1.258 . S
O51 Zn45 2.035 . S
O52 Zn45 2.028 . S
O52 C55 1.247 . S
O53 Zn47 2.035 . S
O53 C55 1.258 . S
C54 O48 1.247 . S
C54 O49 1.258 . S
C55 O52 1.247 . S
C55 O53 1.258 . S
C56 O58 1.247 . S
C56 O60 1.258 . S
C57 O64 1.247 . S
C57 O65 1.258 . S
O58 C56 1.247 . S
O58 Zn59 2.028 . S
Zn59 O58 2.028 . S
Zn59 O63 2.035 . S
Zn59 O65 2.035 . S
Zn59 O66 2.028 . S
O60 C56 1.258 . S
O60 Zn61 2.035 . S
Zn61 O60 2.035 . S
Zn61 O62 2.028 . S
Zn61 O64 2.028 . S
Zn61 O67 2.035 . S
O62 Zn61 2.028 . S
O62 C68 1.247 . S
O63 Zn59 2.035 . S
O63 C68 1.258 . S
O64 C57 1.247 . S
O64 Zn61 2.028 . S
O65 C57 1.258 . S
O65 Zn59 2.035 . S
O66 Zn59 2.028 . S
O66 C69 1.247 . S
O67 Zn61 2.035 . S
O67 C69 1.258 . S
C68 O62 1.247 . S
C68 O63 1.258 . S
C69 O66 1.247 . S
C69 O67 1.258 . S
C70 O72 1.247 . S
C70 O74 1.258 . S
C71 O78 1.247 . S
C71 O79 1.258 . S
O72 C70 1.247 . S
O72 Zn73 2.028 . S
Zn73 O72 2.028 . S
Zn73 O77 2.035 . S
Zn73 O79 2.035 . S
Zn73 O80 2.028 1_554 S
O74 C70 1.258 . S
O74 Zn75 2.035 . S
Zn75 O74 2.035 . S
Zn75 O76 2.028 . S
Zn75 O78 2.028 . S
Zn75 O81 2.035 1_554 S
O76 Zn75 2.028 . S
O76 C82 1.247 . S
O77 Zn73 2.035 . S
O77 C82 1.258 . S
O78 C71 1.247 . S
O78 Zn75 2.028 . S
O79 C71 1.258 . S
O79 Zn73 2.035 . S
O80 Zn73 2.028 1_556 S
O80 C83 1.247 . S
O81 Zn75 2.035 1_556 S
O81 C83 1.258 . S
C82 O76 1.247 . S
C82 O77 1.258 . S
C83 O80 1.247 . S
C83 O81 1.258 . S
C84 O86 1.247 . S
C84 O88 1.258 . S
C85 O92 1.247 . S
C85 O93 1.258 . S
O86 C84 1.247 . S
O86 Zn87 2.028 . S
Zn87 O86 2.028 . S
Zn87 O91 2.035 . S
Zn87 O93 2.035 . S
Zn87 O94 2.028 . S
O88 C84 1.258 . S
O88 Zn89 2.035 . S
Zn89 O88 2.035 . S
Zn89 O90 2.028 . S
Zn89 O92 2.028 . S
Zn89 O95 2.035 . S
O90 Zn89 2.028 . S
O90 C96 1.247 . S
O91 Zn87 2.035 . S
O91 C96 1.258 . S
O92 C85 1.247 . S
O92 Zn89 2.028 . S
O93 C85 1.258 . S
O93 Zn87 2.035 . S
O94 Zn87 2.028 . S
O94 C97 1.247 . S
O95 Zn89 2.035 . S
O95 C97 1.258 . S
C96 O90 1.247 . S
C96 O91 1.258 . S
C97 O94 1.247 . S
C97 O95 1.258 . S
C98 O100 1.247 . S
C98 O102 1.258 . S
C99 O106 1.247 . S
C99 O107 1.258 . S
O100 C98 1.247 . S
O100 Zn101 2.028 . S
Zn101 O100 2.028 . S
Zn101 O105 2.035 1_554 S
Zn101 O107 2.035 . S
Zn101 O108 2.028 . S
O102 C98 1.258 . S
O102 Zn103 2.035 . S
Zn103 O102 2.035 . S
Zn103 O104 2.028 1_554 S
Zn103 O106 2.028 . S
Zn103 O109 2.035 . S
O104 Zn103 2.028 1_556 S
O104 C110 1.247 . S
O105 Zn101 2.035 1_556 S
O105 C110 1.258 . S
O106 C99 1.247 . S
O106 Zn103 2.028 . S
O107 C99 1.258 . S
O107 Zn101 2.035 . S
O108 Zn101 2.028 . S
O108 C111 1.247 . S
O109 Zn103 2.035 . S
O109 C111 1.258 . S
C110 O104 1.247 . S
C110 O105 1.258 . S
C111 O108 1.247 . S
C111 O109 1.258 . S
C112 C113 1.391 . S
C112 C114 1.394 . S
C112 H128 0.931 . S
C113 C112 1.391 . S
C113 C117 1.376 . S
C114 C112 1.394 . S
C114 C115 1.369 . S
C114 C118 1.531 . S
C115 C114 1.369 . S
C115 C116 1.410 . S
C115 C123 1.503 . S
C116 C115 1.410 . S
C116 C117 1.392 . S
C116 C119 1.511 . S
C117 C113 1.376 . S
C117 C116 1.392 . S
C117 H129 0.929 . S
C118 C114 1.531 . S
C118 H130 0.960 . S
C118 H131 0.962 . S
C118 H132 0.960 . S
C119 C116 1.511 . S
C119 H133 0.961 . S
C119 H134 0.961 . S
C119 H135 0.961 . S
C120 C121 1.370 . S
C120 C122 1.363 . S
C120 H136 0.931 . S
C121 C120 1.370 . S
C121 C125 1.408 . S
C122 C120 1.363 . S
C122 C123 1.370 . S
C122 C126 1.524 . S
C123 C115 1.503 . S
C123 C122 1.370 . S
C123 C124 1.403 . S
C124 C123 1.403 . S
C124 C125 1.404 . S
C124 C127 1.539 . S
C125 C121 1.408 . S
C125 C124 1.404 . S
C125 H137 0.930 . S
C126 C122 1.524 . S
C126 H138 0.956 . S
C126 H139 0.961 . S
C126 H140 0.961 . S
C127 C124 1.539 . S
C127 H141 0.958 . S
C127 H142 0.961 . S
C127 H143 0.960 . S
H128 C112 0.931 . S
H129 C117 0.929 . S
H130 C118 0.960 . S
H131 C118 0.962 . S
H132 C118 0.960 . S
H133 C119 0.961 . S
H134 C119 0.961 . S
H135 C119 0.961 . S
H136 C120 0.931 . S
H137 C125 0.930 . S
H138 C126 0.956 . S
H139 C126 0.961 . S
H140 C126 0.961 . S
H141 C127 0.958 . S
H142 C127 0.961 . S
H143 C127 0.960 . S
C144 C145 1.391 . S
C144 C146 1.394 . S
C144 H160 0.931 . S
C145 C144 1.391 . S
C145 C149 1.376 . S
C146 C144 1.394 . S
C146 C147 1.369 . S
C146 C150 1.531 . S
C147 C146 1.369 . S
C147 C148 1.410 . S
C147 C155 1.503 . S
C148 C147 1.410 . S
C148 C149 1.392 . S
C148 C151 1.511 . S
C149 C145 1.376 . S
C149 C148 1.392 . S
C149 H161 0.929 . S
C150 C146 1.531 . S
C150 H162 0.960 . S
C150 H163 0.962 . S
C150 H164 0.960 . S
C151 C148 1.511 . S
C151 H165 0.961 . S
C151 H166 0.961 . S
C151 H167 0.961 . S
C152 C153 1.370 . S
C152 C154 1.363 . S
C152 H168 0.931 . S
C153 C152 1.370 . S
C153 C157 1.408 . S
C154 C152 1.363 . S
C154 C155 1.370 . S
C154 C158 1.524 . S
C155 C147 1.503 . S
C155 C154 1.370 . S
C155 C156 1.403 . S
C156 C155 1.403 . S
C156 C157 1.404 . S
C156 C159 1.539 . S
C157 C153 1.408 . S
C157 C156 1.404 . S
C157 H169 0.930 . S
C158 C154 1.524 . S
C158 H170 0.956 . S
C158 H171 0.961 . S
C158 H172 0.961 . S
C159 C156 1.539 . S
C159 H173 0.958 . S
C159 H174 0.961 . S
C159 H175 0.960 . S
H160 C144 0.931 . S
H161 C149 0.929 . S
H162 C150 0.960 . S
H163 C150 0.962 . S
H164 C150 0.960 . S
H165 C151 0.961 . S
H166 C151 0.961 . S
H167 C151 0.961 . S
H168 C152 0.931 . S
H169 C157 0.930 . S
H170 C158 0.956 . S
H171 C158 0.961 . S
H172 C158 0.961 . S
H173 C159 0.958 . S
H174 C159 0.961 . S
H175 C159 0.960 . S
C176 C177 1.391 . S
C176 C178 1.394 . S
C176 H192 0.931 . S
C177 C176 1.391 . S
C177 C181 1.376 . S
C178 C176 1.394 . S
C178 C179 1.369 . S
C178 C182 1.531 . S
C179 C178 1.369 . S
C179 C180 1.410 . S
C179 C187 1.503 . S
C180 C179 1.410 . S
C180 C181 1.392 . S
C180 C183 1.511 . S
C181 C177 1.376 . S
C181 C180 1.392 . S
C181 H193 0.929 . S
C182 C178 1.531 . S
C182 H194 0.960 . S
C182 H195 0.962 . S
C182 H196 0.960 . S
C183 C180 1.511 . S
C183 H197 0.961 . S
C183 H198 0.961 . S
C183 H199 0.961 . S
C184 C185 1.370 . S
C184 C186 1.363 . S
C184 H200 0.931 . S
C185 C184 1.370 . S
C185 C189 1.408 . S
C186 C184 1.363 . S
C186 C187 1.370 . S
C186 C190 1.524 . S
C187 C179 1.503 . S
C187 C186 1.370 . S
C187 C188 1.403 . S
C188 C187 1.403 . S
C188 C189 1.404 . S
C188 C191 1.539 . S
C189 C185 1.408 . S
C189 C188 1.404 . S
C189 H201 0.930 . S
C190 C186 1.524 . S
C190 H202 0.956 . S
C190 H203 0.961 . S
C190 H204 0.961 . S
C191 C188 1.539 . S
C191 H205 0.958 . S
C191 H206 0.961 . S
C191 H207 0.960 . S
H192 C176 0.931 . S
H193 C181 0.929 . S
H194 C182 0.960 . S
H195 C182 0.962 . S
H196 C182 0.960 . S
H197 C183 0.961 . S
H198 C183 0.961 . S
H199 C183 0.961 . S
H200 C184 0.931 . S
H201 C189 0.930 . S
H202 C190 0.956 . S
H203 C190 0.961 . S
H204 C190 0.961 . S
H205 C191 0.958 . S
H206 C191 0.961 . S
H207 C191 0.960 . S
C208 C209 1.391 . S
C208 C210 1.394 . S
C208 H224 0.931 . S
C209 C208 1.391 . S
C209 C213 1.376 . S
C210 C208 1.394 . S
C210 C211 1.369 . S
C210 C214 1.531 . S
C211 C210 1.369 . S
C211 C212 1.410 . S
C211 C219 1.503 . S
C212 C211 1.410 . S
C212 C213 1.392 . S
C212 C215 1.511 . S
C213 C209 1.376 . S
C213 C212 1.392 . S
C213 H225 0.929 . S
C214 C210 1.531 . S
C214 H226 0.960 . S
C214 H227 0.962 . S
C214 H228 0.960 . S
C215 C212 1.511 . S
C215 H229 0.961 . S
C215 H230 0.961 . S
C215 H231 0.961 . S
C216 C217 1.370 . S
C216 C218 1.363 . S
C216 H232 0.931 . S
C217 C216 1.370 . S
C217 C221 1.408 . S
C218 C216 1.363 . S
C218 C219 1.370 . S
C218 C222 1.524 . S
C219 C211 1.503 . S
C219 C218 1.370 . S
C219 C220 1.403 . S
C220 C219 1.403 . S
C220 C221 1.404 . S
C220 C223 1.539 . S
C221 C217 1.408 . S
C221 C220 1.404 . S
C221 H233 0.930 . S
C222 C218 1.524 . S
C222 H234 0.956 . S
C222 H235 0.961 . S
C222 H236 0.961 . S
C223 C220 1.539 . S
C223 H237 0.958 . S
C223 H238 0.961 . S
C223 H239 0.960 . S
H224 C208 0.931 . S
H225 C213 0.929 . S
H226 C214 0.960 . S
H227 C214 0.962 . S
H228 C214 0.960 . S
H229 C215 0.961 . S
H230 C215 0.961 . S
H231 C215 0.961 . S
H232 C216 0.931 . S
H233 C221 0.930 . S
H234 C222 0.956 . S
H235 C222 0.961 . S
H236 C222 0.961 . S
H237 C223 0.958 . S
H238 C223 0.961 . S
H239 C223 0.960 . S
C240 C241 1.391 . S
C240 C242 1.394 . S
C240 H256 0.931 . S
C241 C240 1.391 . S
C241 C245 1.376 . S
C242 C240 1.394 . S
C242 C243 1.369 . S
C242 C246 1.531 . S
C243 C242 1.369 . S
C243 C244 1.410 . S
C243 C251 1.503 . S
C244 C243 1.410 . S
C244 C245 1.392 . S
C244 C247 1.511 . S
C245 C241 1.376 . S
C245 C244 1.392 . S
C245 H257 0.929 . S
C246 C242 1.531 . S
C246 H258 0.960 . S
C246 H259 0.962 . S
C246 H260 0.960 . S
C247 C244 1.511 . S
C247 H261 0.961 . S
C247 H262 0.961 . S
C247 H263 0.961 . S
C248 C249 1.370 . S
C248 C250 1.363 . S
C248 H264 0.931 . S
C249 C248 1.370 . S
C249 C253 1.408 . S
C250 C248 1.363 . S
C250 C251 1.370 . S
C250 C254 1.524 . S
C251 C243 1.503 . S
C251 C250 1.370 . S
C251 C252 1.403 . S
C252 C251 1.403 . S
C252 C253 1.404 . S
C252 C255 1.539 . S
C253 C249 1.408 . S
C253 C252 1.404 . S
C253 H265 0.930 . S
C254 C250 1.524 . S
C254 H266 0.956 . S
C254 H267 0.961 . S
C254 H268 0.961 . S
C255 C252 1.539 . S
C255 H269 0.958 . S
C255 H270 0.961 . S
C255 H271 0.960 . S
H256 C240 0.931 . S
H257 C245 0.929 . S
H258 C246 0.960 . S
H259 C246 0.962 . S
H260 C246 0.960 . S
H261 C247 0.961 . S
H262 C247 0.961 . S
H263 C247 0.961 . S
H264 C248 0.931 . S
H265 C253 0.930 . S
H266 C254 0.956 . S
H267 C254 0.961 . S
H268 C254 0.961 . S
H269 C255 0.958 . S
H270 C255 0.961 . S
H271 C255 0.960 . S
C272 C273 1.391 . S
C272 C274 1.394 . S
C272 H288 0.931 . S
C273 C272 1.391 . S
C273 C277 1.376 . S
C274 C272 1.394 . S
C274 C275 1.369 . S
C274 C278 1.531 . S
C275 C274 1.369 . S
C275 C276 1.410 . S
C275 C283 1.503 . S
C276 C275 1.410 . S
C276 C277 1.392 . S
C276 C279 1.511 . S
C277 C273 1.376 . S
C277 C276 1.392 . S
C277 H289 0.929 . S
C278 C274 1.531 . S
C278 H290 0.960 . S
C278 H291 0.962 . S
C278 H292 0.960 . S
C279 C276 1.511 . S
C279 H293 0.961 . S
C279 H294 0.961 . S
C279 H295 0.961 . S
C280 C281 1.370 . S
C280 C282 1.363 . S
C280 H296 0.931 . S
C281 C280 1.370 . S
C281 C285 1.408 . S
C282 C280 1.363 . S
C282 C283 1.370 . S
C282 C286 1.524 . S
C283 C275 1.503 . S
C283 C282 1.370 . S
C283 C284 1.403 . S
C284 C283 1.403 . S
C284 C285 1.404 . S
C284 C287 1.539 . S
C285 C281 1.408 . S
C285 C284 1.404 . S
C285 H297 0.930 . S
C286 C282 1.524 . S
C286 H298 0.956 . S
C286 H299 0.961 . S
C286 H300 0.961 . S
C287 C284 1.539 . S
C287 H301 0.958 . S
C287 H302 0.961 . S
C287 H303 0.960 . S
H288 C272 0.931 . S
H289 C277 0.929 . S
H290 C278 0.960 . S
H291 C278 0.962 . S
H292 C278 0.960 . S
H293 C279 0.961 . S
H294 C279 0.961 . S
H295 C279 0.961 . S
H296 C280 0.931 . S
H297 C285 0.930 . S
H298 C286 0.956 . S
H299 C286 0.961 . S
H300 C286 0.961 . S
H301 C287 0.958 . S
H302 C287 0.961 . S
H303 C287 0.960 . S
C304 C305 1.391 . S
C304 C306 1.394 . S
C304 H320 0.931 . S
C305 C304 1.391 . S
C305 C309 1.376 . S
C306 C304 1.394 . S
C306 C307 1.369 . S
C306 C310 1.531 . S
C307 C306 1.369 . S
C307 C308 1.410 . S
C307 C315 1.503 . S
C308 C307 1.410 . S
C308 C309 1.392 . S
C308 C311 1.511 . S
C309 C305 1.376 . S
C309 C308 1.392 . S
C309 H321 0.929 . S
C310 C306 1.531 . S
C310 H322 0.960 . S
C310 H323 0.962 . S
C310 H324 0.960 . S
C311 C308 1.511 . S
C311 H325 0.961 . S
C311 H326 0.961 . S
C311 H327 0.961 . S
C312 C313 1.370 . S
C312 C314 1.363 . S
C312 H328 0.931 . S
C313 C312 1.370 . S
C313 C317 1.408 . S
C314 C312 1.363 . S
C314 C315 1.370 . S
C314 C318 1.524 . S
C315 C307 1.503 . S
C315 C314 1.370 . S
C315 C316 1.403 . S
C316 C315 1.403 . S
C316 C317 1.404 . S
C316 C319 1.539 . S
C317 C313 1.408 . S
C317 C316 1.404 . S
C317 H329 0.930 . S
C318 C314 1.524 . S
C318 H330 0.956 . S
C318 H331 0.961 . S
C318 H332 0.961 . S
C319 C316 1.539 . S
C319 H333 0.958 . S
C319 H334 0.961 . S
C319 H335 0.960 . S
H320 C304 0.931 . S
H321 C309 0.929 . S
H322 C310 0.960 . S
H323 C310 0.962 . S
H324 C310 0.960 . S
H325 C311 0.961 . S
H326 C311 0.961 . S
H327 C311 0.961 . S
H328 C312 0.931 . S
H329 C317 0.930 . S
H330 C318 0.956 . S
H331 C318 0.961 . S
H332 C318 0.961 . S
H333 C319 0.958 . S
H334 C319 0.961 . S
H335 C319 0.960 . S
C336 C337 1.391 . S
C336 C338 1.394 . S
C336 H352 0.931 . S
C337 C336 1.391 . S
C337 C341 1.376 . S
C338 C336 1.394 . S
C338 C339 1.369 . S
C338 C342 1.531 . S
C339 C338 1.369 . S
C339 C340 1.410 . S
C339 C347 1.503 . S
C340 C339 1.410 . S
C340 C341 1.392 . S
C340 C343 1.511 . S
C341 C337 1.376 . S
C341 C340 1.392 . S
C341 H353 0.929 . S
C342 C338 1.531 . S
C342 H354 0.960 . S
C342 H355 0.962 . S
C342 H356 0.960 . S
C343 C340 1.511 . S
C343 H357 0.961 . S
C343 H358 0.961 . S
C343 H359 0.961 . S
C344 C345 1.370 . S
C344 C346 1.363 . S
C344 H360 0.931 . S
C345 C344 1.370 . S
C345 C349 1.408 . S
C346 C344 1.363 . S
C346 C347 1.370 . S
C346 C350 1.524 . S
C347 C339 1.503 . S
C347 C346 1.370 . S
C347 C348 1.403 . S
C348 C347 1.403 . S
C348 C349 1.404 . S
C348 C351 1.539 . S
C349 C345 1.408 . S
C349 C348 1.404 . S
C349 H361 0.930 . S
C350 C346 1.524 . S
C350 H362 0.956 . S
C350 H363 0.961 . S
C350 H364 0.961 . S
C351 C348 1.539 . S
C351 H365 0.958 . S
C351 H366 0.961 . S
C351 H367 0.960 . S
H352 C336 0.931 . S
H353 C341 0.929 . S
H354 C342 0.960 . S
H355 C342 0.962 . S
H356 C342 0.960 . S
H357 C343 0.961 . S
H358 C343 0.961 . S
H359 C343 0.961 . S
H360 C344 0.931 . S
H361 C349 0.930 . S
H362 C350 0.956 . S
H363 C350 0.961 . S
H364 C350 0.961 . S
H365 C351 0.958 . S
H366 C351 0.961 . S
H367 C351 0.960 . S
C368 C369 1.391 . S
C368 C370 1.394 . S
C368 H384 0.931 1_554 S
C369 C368 1.391 . S
C369 C373 1.376 . S
C370 C368 1.394 . S
C370 C371 1.369 . S
C370 C374 1.531 1_554 S
C371 C370 1.369 . S
C371 C372 1.410 . S
C371 C379 1.503 1_655 S
C372 C371 1.410 . S
C372 C373 1.392 . S
C372 C375 1.511 . S
C373 C369 1.376 . S
C373 C372 1.392 . S
C373 H385 0.929 . S
C374 C370 1.531 1_556 S
C374 H386 0.960 . S
C374 H387 0.962 . S
C374 H388 0.960 . S
C375 C372 1.511 . S
C375 H389 0.961 . S
C375 H390 0.961 1_655 S
C375 H391 0.961 . S
C376 C377 1.370 1_556 S
C376 C378 1.363 . S
C376 H392 0.931 . S
C377 C376 1.370 1_554 S
C377 C381 1.408 . S
C378 C376 1.363 . S
C378 C379 1.370 1_556 S
C378 C382 1.524 . S
C379 C371 1.503 1_455 S
C379 C378 1.370 1_554 S
C379 C380 1.403 . S
C380 C379 1.403 . S
C380 C381 1.404 . S
C380 C383 1.539 . S
C381 C377 1.408 . S
C381 C380 1.404 . S
C381 H393 0.930 . S
C382 C378 1.524 . S
C382 H394 0.956 1_455 S
C382 H395 0.963 . S
C382 H396 0.961 . S
C383 C380 1.539 . S
C383 H397 0.958 . S
C383 H398 0.961 . S
C383 H399 0.960 . S
H384 C368 0.931 1_556 S
H385 C373 0.929 . S
H386 C374 0.960 . S
H387 C374 0.962 . S
H388 C374 0.960 . S
H389 C375 0.961 . S
H390 C375 0.961 1_455 S
H391 C375 0.961 . S
H392 C376 0.931 . S
H393 C381 0.930 . S
H394 C382 0.956 1_655 S
H395 C382 0.963 . S
H396 C382 0.961 . S
H397 C383 0.958 . S
H398 C383 0.961 . S
H399 C383 0.960 . S
C400 C401 1.391 . S
C400 C402 1.394 . S
C400 H416 0.931 . S
C401 C400 1.391 . S
C401 C405 1.376 . S
C402 C400 1.394 . S
C402 C403 1.369 . S
C402 C406 1.531 . S
C403 C402 1.369 . S
C403 C404 1.410 . S
C403 C411 1.503 1_565 S
C404 C403 1.410 . S
C404 C405 1.392 . S
C404 C407 1.511 . S
C405 C401 1.376 . S
C405 C404 1.392 . S
C405 H417 0.929 . S
C406 C402 1.531 . S
C406 H418 0.960 1_565 S
C406 H419 0.962 . S
C406 H420 0.960 . S
C407 C404 1.511 . S
C407 H421 0.961 . S
C407 H422 0.961 1_565 S
C407 H423 0.961 . S
C408 C409 1.370 . S
C408 C410 1.363 . S
C408 H424 0.931 . S
C409 C408 1.370 . S
C409 C413 1.408 . S
C410 C408 1.363 . S
C410 C411 1.370 . S
C410 C414 1.524 . S
C411 C403 1.503 1_545 S
C411 C410 1.370 . S
C411 C412 1.403 . S
C412 C411 1.403 . S
C412 C413 1.404 . S
C412 C415 1.539 . S
C413 C409 1.408 . S
C413 C412 1.404 . S
C413 H425 0.930 . S
C414 C410 1.524 . S
C414 H426 0.956 1_545 S
C414 H427 0.961 1_545 S
C414 H428 0.961 . S
C415 C412 1.539 . S
C415 H429 0.958 . S
C415 H430 0.961 . S
C415 H431 0.960 . S
H416 C400 0.931 . S
H417 C405 0.929 . S
H418 C406 0.960 1_545 S
H419 C406 0.962 . S
H420 C406 0.960 . S
H421 C407 0.961 . S
H422 C407 0.961 1_545 S
H423 C407 0.961 . S
H424 C408 0.931 . S
H425 C413 0.930 . S
H426 C414 0.956 1_565 S
H427 C414 0.961 1_565 S
H428 C414 0.961 . S
H429 C415 0.958 . S
H430 C415 0.961 . S
H431 C415 0.960 . S
C432 C433 1.391 . S
C432 C434 1.394 . S
C432 H448 0.931 . S
C433 C432 1.391 . S
C433 C437 1.376 . S
C434 C432 1.394 . S
C434 C435 1.369 . S
C434 C438 1.531 . S
C435 C434 1.369 . S
C435 C436 1.410 . S
C435 C443 1.503 1_455 S
C436 C435 1.410 . S
C436 C437 1.392 . S
C436 C439 1.511 . S
C437 C433 1.376 . S
C437 C436 1.392 . S
C437 H449 0.929 . S
C438 C434 1.531 . S
C438 H450 0.960 1_455 S
C438 H451 0.966 . S
C438 H452 0.960 . S
C439 C436 1.511 . S
C439 H453 0.961 . S
C439 H454 0.961 . S
C439 H455 0.961 . S
C440 C441 1.370 . S
C440 C442 1.363 . S
C440 H456 0.931 . S
C441 C440 1.370 . S
C441 C445 1.408 . S
C442 C440 1.363 . S
C442 C443 1.370 . S
C442 C446 1.524 . S
C443 C435 1.503 1_655 S
C443 C442 1.370 . S
C443 C444 1.403 . S
C444 C443 1.403 . S
C444 C445 1.404 . S
C444 C447 1.539 . S
C445 C441 1.408 . S
C445 C444 1.404 . S
C445 H457 0.930 . S
C446 C442 1.524 . S
C446 H458 0.956 . S
C446 H459 0.961 . S
C446 H460 0.961 . S
C447 C444 1.539 . S
C447 H461 0.958 . S
C447 H462 0.961 . S
C447 H463 0.960 1_655 S
H448 C432 0.931 . S
H449 C437 0.929 . S
H450 C438 0.960 1_655 S
H451 C438 0.966 . S
H452 C438 0.960 . S
H453 C439 0.961 . S
H454 C439 0.961 . S
H455 C439 0.961 . S
H456 C440 0.931 . S
H457 C445 0.930 . S
H458 C446 0.956 . S
H459 C446 0.961 . S
H460 C446 0.961 . S
H461 C447 0.958 . S
H462 C447 0.961 . S
H463 C447 0.960 1_455 S
C464 C465 1.391 1_556 S
C464 C466 1.394 . S
C464 H480 0.931 . S
C465 C464 1.391 1_554 S
C465 C469 1.376 . S
C466 C464 1.394 . S
C466 C467 1.369 1_556 S
C466 C470 1.531 . S
C467 C466 1.369 1_554 S
C467 C468 1.410 . S
C467 C475 1.503 1_565 S
C468 C467 1.410 . S
C468 C469 1.392 . S
C468 C471 1.511 . S
C469 C465 1.376 . S
C469 C468 1.392 . S
C469 H481 0.929 . S
C470 C466 1.531 . S
C470 H482 0.960 . S
C470 H483 0.962 . S
C470 H484 0.960 . S
C471 C468 1.511 . S
C471 H485 0.961 . S
C471 H486 0.961 1_565 S
C471 H487 0.961 . S
C472 C473 1.370 . S
C472 C474 1.363 . S
C472 H488 0.931 . S
C473 C472 1.370 . S
C473 C477 1.408 1_554 S
C474 C472 1.363 . S
C474 C475 1.370 . S
C474 C478 1.524 . S
C475 C467 1.503 1_545 S
C475 C474 1.370 . S
C475 C476 1.403 1_554 S
C476 C475 1.403 1_556 S
C476 C477 1.404 . S
C476 C479 1.539 . S
C477 C473 1.408 1_556 S
C477 C476 1.404 . S
C477 H489 0.930 . S
C478 C474 1.524 . S
C478 H490 0.956 . S
C478 H491 0.961 . S
C478 H492 0.961 . S
C479 C476 1.539 . S
C479 H493 0.958 . S
C479 H494 0.961 . S
C479 H495 0.960 1_545 S
H480 C464 0.931 . S
H481 C469 0.929 . S
H482 C470 0.960 . S
H483 C470 0.962 . S
H484 C470 0.960 . S
H485 C471 0.961 . S
H486 C471 0.961 1_545 S
H487 C471 0.961 . S
H488 C472 0.931 . S
H489 C477 0.930 . S
H490 C478 0.956 . S
H491 C478 0.961 . S
H492 C478 0.961 . S
H493 C479 0.958 . S
H494 C479 0.961 . S
H495 C479 0.960 1_565 S
C496 C497 1.391 . S
C496 C498 1.394 . S
C496 H512 0.931 . S
C497 C496 1.391 . S
C497 C501 1.376 1_554 S
C498 C496 1.394 . S
C498 C499 1.369 1_554 S
C498 C502 1.531 . S
C499 C498 1.369 1_556 S
C499 C500 1.410 . S
C499 C507 1.503 . S
C500 C499 1.410 . S
C500 C501 1.392 . S
C500 C503 1.511 . S
C501 C497 1.376 1_556 S
C501 C500 1.392 . S
C501 H513 0.929 . S
C502 C498 1.531 . S
C502 H514 0.960 . S
C502 H515 0.962 . S
C502 H516 0.960 . S
C503 C500 1.511 . S
C503 H517 0.961 . S
C503 H518 0.961 . S
C503 H519 0.961 . S
C504 C505 1.370 . S
C504 C506 1.363 . S
C504 H520 0.931 . S
C505 C504 1.370 . S
C505 C509 1.408 1_554 S
C506 C504 1.363 . S
C506 C507 1.370 1_554 S
C506 C510 1.524 . S
C507 C499 1.503 . S
C507 C506 1.370 1_556 S
C507 C508 1.403 . S
C508 C507 1.403 . S
C508 C509 1.404 . S
C508 C511 1.539 . S
C509 C505 1.408 1_556 S
C509 C508 1.404 . S
C509 H521 0.930 . S
C510 C506 1.524 . S
C510 H522 0.956 . S
C510 H523 0.961 . S
C510 H524 0.961 . S
C511 C508 1.539 . S
C511 H525 0.958 . S
C511 H526 0.961 . S
C511 H527 0.960 . S
H512 C496 0.931 . S
H513 C501 0.929 . S
H514 C502 0.960 . S
H515 C502 0.962 . S
H516 C502 0.960 . S
H517 C503 0.961 . S
H518 C503 0.961 . S
H519 C503 0.961 . S
H520 C504 0.931 . S
H521 C509 0.930 . S
H522 C510 0.956 . S
H523 C510 0.961 . S
H524 C510 0.961 . S
H525 C511 0.958 . S
H526 C511 0.961 . S
H527 C511 0.960 . S
C528 C529 1.391 . S
C528 C530 1.394 . S
C528 H544 0.931 . S
C529 C528 1.391 . S
C529 C533 1.376 . S
C530 C528 1.394 . S
C530 C531 1.369 . S
C530 C534 1.531 . S
C531 C530 1.369 . S
C531 C532 1.410 . S
C531 C539 1.503 . S
C532 C531 1.410 . S
C532 C533 1.392 . S
C532 C535 1.511 . S
C533 C529 1.376 . S
C533 C532 1.392 . S
C533 H545 0.929 . S
C534 C530 1.531 . S
C534 H546 0.960 . S
C534 H547 0.962 . S
C534 H548 0.960 . S
C535 C532 1.511 . S
C535 H549 0.961 . S
C535 H550 0.961 . S
C535 H551 0.961 . S
C536 C537 1.370 . S
C536 C538 1.363 . S
C536 H552 0.931 . S
C537 C536 1.370 . S
C537 C541 1.408 . S
C538 C536 1.363 . S
C538 C539 1.370 . S
C538 C542 1.524 . S
C539 C531 1.503 . S
C539 C538 1.370 . S
C539 C540 1.403 . S
C540 C539 1.403 . S
C540 C541 1.404 . S
C540 C543 1.539 . S
C541 C537 1.408 . S
C541 C540 1.404 . S
C541 H553 0.930 . S
C542 C538 1.524 . S
C542 H554 0.956 . S
C542 H555 0.961 . S
C542 H556 0.961 . S
C543 C540 1.539 . S
C543 H557 0.958 . S
C543 H558 0.961 . S
C543 H559 0.960 . S
H544 C528 0.931 . S
H545 C533 0.929 . S
H546 C534 0.960 . S
H547 C534 0.962 . S
H548 C534 0.960 . S
H549 C535 0.961 . S
H550 C535 0.961 . S
H551 C535 0.961 . S
H552 C536 0.931 . S
H553 C541 0.930 . S
H554 C542 0.956 . S
H555 C542 0.961 . S
H556 C542 0.961 . S
H557 C543 0.958 . S
H558 C543 0.961 . S
H559 C543 0.960 . S
C560 C561 1.391 . S
C560 C562 1.394 . S
C560 H576 0.931 . S
C561 C560 1.391 . S
C561 C565 1.376 . S
C562 C560 1.394 . S
C562 C563 1.369 . S
C562 C566 1.523 1_554 S
C563 C562 1.369 . S
C563 C564 1.410 . S
C563 C571 1.503 . S
C564 C563 1.410 . S
C564 C565 1.392 . S
C564 C567 1.511 . S
C565 C561 1.376 . S
C565 C564 1.392 . S
C565 H577 0.929 . S
C566 C562 1.523 1_556 S
C566 H578 0.968 . S
C566 H579 0.948 1_556 S
C566 H580 0.974 . S
C567 C564 1.511 . S
C567 H581 0.961 . S
C567 H582 0.961 . S
C567 H583 0.961 . S
C568 C569 1.370 . S
C568 C570 1.363 . S
C568 H584 0.931 . S
C569 C568 1.370 . S
C569 C573 1.408 1_554 S
C570 C568 1.363 . S
C570 C571 1.370 . S
C570 C574 1.524 . S
C571 C563 1.503 . S
C571 C570 1.370 . S
C571 C572 1.403 1_554 S
C572 C571 1.403 1_556 S
C572 C573 1.404 . S
C572 C575 1.539 . S
C573 C569 1.408 1_556 S
C573 C572 1.404 . S
C573 H585 0.930 . S
C574 C570 1.524 . S
C574 H586 0.956 . S
C574 H587 0.961 . S
C574 H588 0.961 . S
C575 C572 1.539 . S
C575 H589 0.958 . S
C575 H590 0.961 . S
C575 H591 0.960 . S
H576 C560 0.931 . S
H577 C565 0.929 . S
H578 C566 0.968 . S
H579 C566 0.948 1_554 S
H580 C566 0.974 . S
H581 C567 0.961 . S
H582 C567 0.961 . S
H583 C567 0.961 . S
H584 C568 0.931 . S
H585 C573 0.930 . S
H586 C574 0.956 . S
H587 C574 0.961 . S
H588 C574 0.961 . S
H589 C575 0.958 . S
H590 C575 0.961 . S
H591 C575 0.960 . S
C592 C593 1.391 . S
C592 C594 1.394 . S
C592 H608 0.931 . S
C593 C592 1.391 . S
C593 C597 1.376 . S
C594 C592 1.394 . S
C594 C595 1.369 . S
C594 C598 1.531 . S
C595 C594 1.369 . S
C595 C596 1.410 . S
C595 C603 1.503 . S
C596 C595 1.410 . S
C596 C597 1.392 . S
C596 C599 1.511 . S
C597 C593 1.376 . S
C597 C596 1.392 . S
C597 H609 0.929 . S
C598 C594 1.531 . S
C598 H610 0.960 . S
C598 H611 0.962 . S
C598 H612 0.960 . S
C599 C596 1.511 . S
C599 H613 0.961 . S
C599 H614 0.961 . S
C599 H615 0.961 . S
C600 C601 1.370 . S
C600 C602 1.363 . S
C600 H616 0.931 . S
C601 C600 1.370 . S
C601 C605 1.408 . S
C602 C600 1.363 . S
C602 C603 1.370 . S
C602 C606 1.524 . S
C603 C595 1.503 . S
C603 C602 1.370 . S
C603 C604 1.403 . S
C604 C603 1.403 . S
C604 C605 1.404 . S
C604 C607 1.539 . S
C605 C601 1.408 . S
C605 C604 1.404 . S
C605 H617 0.930 . S
C606 C602 1.524 . S
C606 H618 0.956 . S
C606 H619 0.961 . S
C606 H620 0.961 . S
C607 C604 1.539 . S
C607 H621 0.958 . S
C607 H622 0.961 . S
C607 H623 0.960 . S
H608 C592 0.931 . S
H609 C597 0.929 . S
H610 C598 0.960 . S
H611 C598 0.962 . S
H612 C598 0.960 . S
H613 C599 0.961 . S
H614 C599 0.961 . S
H615 C599 0.961 . S
H616 C600 0.931 . S
H617 C605 0.930 . S
H618 C606 0.956 . S
H619 C606 0.961 . S
H620 C606 0.961 . S
H621 C607 0.958 . S
H622 C607 0.961 . S
H623 C607 0.960 . S
C113 C12 1.535 . S
C121 C56 1.542 . S
C145 C15 1.563 . S
C153 C83 1.544 . S
C177 C85 1.549 . S
C185 C40 1.554 . S
C209 C110 1.530 . S
C217 C43 1.544 . S
C241 C84 1.542 . S
C249 C41 1.543 . S
C273 C111 1.561 . S
C281 C42 1.555 . S
C305 C13 1.543 . S
C313 C57 1.558 . S
C337 C14 1.534 . S
C345 C82 1.541 . S
C369 C28 1.951 . S
C377 C1 1.980 . S
C401 C55 1.973 . S
C409 C26 1.966 . S
C433 C68 1.974 . S
C441 C96 1.971 . S
C465 C99 1.984 . S
C473 C71 1.963 . S
C497 C0 1.900 . S
C505 C70 1.911 . S
C529 C97 1.908 . S
C537 C27 1.910 . S
C561 C29 1.903 . S
C569 C98 1.910 . S
C593 C54 1.908 . S
C601 C69 1.910 . S
