# Generated by pormake.
# Topology uoz, (4)-cn, num edge types: 1
# Building blocks:
#     Node 0, Type 0, BuildingBlock: AZAVOO_clean_sbu_0, # of connection points: 4
#     Node 1, Type 0, BuildingBlock: AZAVOO_clean_sbu_0, # of connection points: 4
#     Node 2, Type 0, BuildingBlock: AZAVOO_clean_sbu_0, # of connection points: 4
#     Node 3, Type 0, BuildingBlock: AZAVOO_clean_sbu_0, # of connection points: 4
#     Node 4, Type 0, BuildingBlock: AZAVOO_clean_sbu_0, # of connection points: 4
#     Node 5, Type 0, BuildingBlock: AZAVOO_clean_sbu_0, # of connection points: 4
#     Node 6, Type 0, BuildingBlock: AZAVOO_clean_sbu_0, # of connection points: 4
#     Node 7, Type 0, BuildingBlock: AZAVOO_clean_sbu_0, # of connection points: 4
#     Node 8, Type 0, BuildingBlock: AZAVOO_clean_sbu_0, # of connection points: 4
#     Node 9, Type 0, BuildingBlock: AZAVOO_clean_sbu_0, # of connection points: 4
#     Node 10, Type 0, BuildingBlock: AZAVOO_clean_sbu_0, # of connection points: 4
#     Node 11, Type 0, BuildingBlock: AZAVOO_clean_sbu_0, # of connection points: 4
#     Node 12, Type 0, BuildingBlock: AZAVOO_clean_sbu_0, # of connection points: 4
#     Node 13, Type 0, BuildingBlock: AZAVOO_clean_sbu_0, # of connection points: 4
#     Node 14, Type 0, BuildingBlock: AZAVOO_clean_sbu_0, # of connection points: 4
#     Node 15, Type 0, BuildingBlock: AZAVOO_clean_sbu_0, # of connection points: 4
#     Edge 16, Type (0, 0), BuildingBlock: MIFKUJ_clean_linker_0, # of connection points: 2
#     Edge 17, Type (0, 0), BuildingBlock: MIFKUJ_clean_linker_0, # of connection points: 2
#     Edge 18, Type (0, 0), BuildingBlock: MIFKUJ_clean_linker_0, # of connection points: 2
#     Edge 19, Type (0, 0), BuildingBlock: MIFKUJ_clean_linker_0, # of connection points: 2
#     Edge 20, Type (0, 0), BuildingBlock: MIFKUJ_clean_linker_0, # of connection points: 2
#     Edge 21, Type (0, 0), BuildingBlock: MIFKUJ_clean_linker_0, # of connection points: 2
#     Edge 22, Type (0, 0), BuildingBlock: MIFKUJ_clean_linker_0, # of connection points: 2
#     Edge 23, Type (0, 0), BuildingBlock: MIFKUJ_clean_linker_0, # of connection points: 2
#     Edge 24, Type (0, 0), BuildingBlock: MIFKUJ_clean_linker_0, # of connection points: 2
#     Edge 25, Type (0, 0), BuildingBlock: MIFKUJ_clean_linker_0, # of connection points: 2
#     Edge 26, Type (0, 0), BuildingBlock: MIFKUJ_clean_linker_0, # of connection points: 2
#     Edge 27, Type (0, 0), BuildingBlock: MIFKUJ_clean_linker_0, # of connection points: 2
#     Edge 28, Type (0, 0), BuildingBlock: MIFKUJ_clean_linker_0, # of connection points: 2
#     Edge 29, Type (0, 0), BuildingBlock: MIFKUJ_clean_linker_0, # of connection points: 2
#     Edge 30, Type (0, 0), BuildingBlock: MIFKUJ_clean_linker_0, # of connection points: 2
#     Edge 31, Type (0, 0), BuildingBlock: MIFKUJ_clean_linker_0, # of connection points: 2
#     Edge 32, Type (0, 0), BuildingBlock: MIFKUJ_clean_linker_0, # of connection points: 2
#     Edge 33, Type (0, 0), BuildingBlock: MIFKUJ_clean_linker_0, # of connection points: 2
#     Edge 34, Type (0, 0), BuildingBlock: MIFKUJ_clean_linker_0, # of connection points: 2
#     Edge 35, Type (0, 0), BuildingBlock: MIFKUJ_clean_linker_0, # of connection points: 2
#     Edge 36, Type (0, 0), BuildingBlock: MIFKUJ_clean_linker_0, # of connection points: 2
#     Edge 37, Type (0, 0), BuildingBlock: MIFKUJ_clean_linker_0, # of connection points: 2
#     Edge 38, Type (0, 0), BuildingBlock: MIFKUJ_clean_linker_0, # of connection points: 2
#     Edge 39, Type (0, 0), BuildingBlock: MIFKUJ_clean_linker_0, # of connection points: 2
#     Edge 40, Type (0, 0), BuildingBlock: MIFKUJ_clean_linker_0, # of connection points: 2
#     Edge 41, Type (0, 0), BuildingBlock: MIFKUJ_clean_linker_0, # of connection points: 2
#     Edge 42, Type (0, 0), BuildingBlock: MIFKUJ_clean_linker_0, # of connection points: 2
#     Edge 43, Type (0, 0), BuildingBlock: MIFKUJ_clean_linker_0, # of connection points: 2
#     Edge 44, Type (0, 0), BuildingBlock: MIFKUJ_clean_linker_0, # of connection points: 2
#     Edge 45, Type (0, 0), BuildingBlock: MIFKUJ_clean_linker_0, # of connection points: 2
#     Edge 46, Type (0, 0), BuildingBlock: MIFKUJ_clean_linker_0, # of connection points: 2
#     Edge 47, Type (0, 0), BuildingBlock: MIFKUJ_clean_linker_0, # of connection points: 2
# Relax obj value: 0.122
# Max RMSD: 0.106
# Mean RMSD: 0.106
data_MOF--net-uoz--node1-AZAVOO_clean_sbu_0--edge1-MIFKUJ_clean_linker_0
_symmetry_space_group_name_H-M    P1
_symmetry_Int_Tables_number       1
_symmetry_cell_setting            triclinic
loop_
_symmetry_equiv_pos_as_xyz
'x, y, z'
_cell_length_a     76.259303
_cell_length_b     76.238549
_cell_length_c     29.258945
_cell_angle_alpha  90.038768
_cell_angle_beta   90.001827
_cell_angle_gamma 89.989711
loop_
_atom_site_label
_atom_site_type_symbol
_atom_site_fract_x
_atom_site_fract_y
_atom_site_fract_z
_atom_type_partial_charge
Mg0 Mg 0.01557 0.59136 0.34435 0.0
O1 O 0.01135 0.57251 0.28347 0.0
O2 O 0.00624 0.5888 0.22137 0.0
Mg3 Mg 0.00887 0.61759 0.24084 0.0
C4 C 0.00776 0.57391 0.24093 0.0
C5 C 0.01697 0.55433 0.39209 0.0
O6 O 0.00381 0.55135 0.36417 0.0
O7 O 0.04355 0.5972 0.32023 0.0
O8 O 0.03794 0.61278 0.25696 0.0
O9 O 0.98642 0.59256 0.35448 0.0
O10 O 0.00152 0.6108 0.31097 0.0
C11 C 0.04864 0.60562 0.28491 0.0
C12 C 0.98658 0.60551 0.3259 0.0
O13 O 0.02476 0.56905 0.39058 0.0
Mg14 Mg 0.66844 0.74607 0.59451 0.0
O15 O 0.684 0.74443 0.52738 0.0
O16 O 0.66474 0.74046 0.47056 0.0
Mg17 Mg 0.63713 0.73954 0.50086 0.0
C18 C 0.68044 0.74229 0.48502 0.0
C19 C 0.7066 0.74737 0.63349 0.0
O20 O 0.70801 0.73365 0.60655 0.0
O21 O 0.6601 0.77412 0.57571 0.0
O22 O 0.63993 0.76825 0.52219 0.0
O23 O 0.67005 0.71673 0.60022 0.0
O24 O 0.64869 0.73096 0.56542 0.0
C25 C 0.64831 0.77904 0.54746 0.0
C26 C 0.65615 0.71628 0.57486 0.0
O27 O 0.69226 0.75588 0.63413 0.0
Mg28 Mg 0.52037 0.41494 0.8057 0.0
O29 O 0.52199 0.43495 0.74685 0.0
O30 O 0.52795 0.41987 0.68297 0.0
Mg31 Mg 0.53096 0.39086 0.70026 0.0
C32 C 0.52479 0.43426 0.70378 0.0
C33 C 0.51533 0.45018 0.8575 0.0
O34 O 0.52852 0.45405 0.83045 0.0
O35 O 0.49333 0.40588 0.77914 0.0
O36 O 0.50196 0.39025 0.71856 0.0
O37 O 0.54939 0.41747 0.81856 0.0
O38 O 0.53757 0.39884 0.76977 0.0
C39 C 0.48994 0.39585 0.74519 0.0
C40 C 0.55144 0.40586 0.78677 0.0
O41 O 0.50829 0.43511 0.85435 0.0
Mg42 Mg 0.86047 0.25737 0.09501 0.0
O43 O 0.84154 0.26078 0.03391 0.0
O44 O 0.85804 0.26708 0.97281 0.0
Mg45 Mg 0.88677 0.26663 0.99291 0.0
C46 C 0.84312 0.26451 0.99145 0.0
C47 C 0.84115 0.25099 0.18248 0.0
O48 O 0.85538 0.25986 0.19294 0.0
O49 O 0.86798 0.22995 0.06884 0.0
O50 O 0.88377 0.23728 0.00732 0.0
O51 O 0.85945 0.28639 0.1071 0.0
O52 O 0.87879 0.27323 0.06264 0.0
C53 C 0.87706 0.22577 0.03373 0.0
C54 C 0.87211 0.2876 0.07783 0.0
O55 O 0.83867 0.2468 0.1409 0.0
Mg56 Mg 0.00153 0.41149 0.83587 0.0
O57 O 0.99773 0.42814 0.90071 0.0
O58 O 0.98921 0.40984 0.95624 0.0
Mg59 Mg 0.98728 0.38203 0.92757 0.0
C60 C 0.99318 0.42518 0.94209 0.0
C61 C 0.01322 0.43065 0.75409 0.0
O62 O 0.0059 0.41581 0.74144 0.0
O63 O 0.02764 0.40119 0.86521 0.0
O64 O 0.01694 0.3825 0.91722 0.0
O65 O 0.97289 0.41486 0.81911 0.0
O66 O 0.98391 0.39305 0.85961 0.0
C67 C 0.02982 0.38949 0.89607 0.0
C68 C 0.9704 0.4009 0.84334 0.0
O69 O 0.01457 0.43381 0.79665 0.0
Mg70 Mg 0.85019 0.74496 0.08952 0.0
O71 O 0.82996 0.74055 0.14711 0.0
O72 O 0.84483 0.73797 0.21265 0.0
Mg73 Mg 0.87383 0.74217 0.19851 0.0
C74 C 0.83044 0.73805 0.19033 0.0
C75 C 0.83106 0.74494 0.99855 0.0
O76 O 0.84529 0.73562 0.99125 0.0
O77 O 0.85297 0.77376 0.11123 0.0
O78 O 0.86711 0.77034 0.17782 0.0
O79 O 0.85419 0.71575 0.08369 0.0
O80 O 0.86961 0.73324 0.12841 0.0
C81 C 0.85989 0.78001 0.14755 0.0
C82 C 0.86619 0.71761 0.11464 0.0
O83 O 0.82855 0.75129 0.03822 0.0
Mg84 Mg 0.52594 0.59631 0.29858 0.0
O85 O 0.52912 0.58025 0.36435 0.0
O86 O 0.53566 0.5989 0.42094 0.0
Mg87 Mg 0.53604 0.62675 0.39208 0.0
C88 C 0.53279 0.58338 0.40622 0.0
C89 C 0.51764 0.57504 0.21627 0.0
O90 O 0.52525 0.58959 0.20266 0.0
O91 O 0.49866 0.60494 0.32349 0.0
O92 O 0.50667 0.62419 0.37744 0.0
O93 O 0.55509 0.59463 0.28705 0.0
O94 O 0.54183 0.6159 0.32491 0.0
C95 C 0.49488 0.61632 0.35411 0.0
C96 C 0.55617 0.60871 0.31157 0.0
O97 O 0.51506 0.57292 0.25886 0.0
Mg98 Mg 0.67906 0.26086 0.58402 0.0
O99 O 0.69659 0.2634 0.64775 0.0
O100 O 0.67923 0.27077 0.70641 0.0
Mg101 Mg 0.65108 0.27338 0.68098 0.0
C102 C 0.69431 0.2671 0.68999 0.0
C103 C 0.71599 0.25507 0.54106 0.0
O104 O 0.71899 0.26897 0.56642 0.0
O105 O 0.66904 0.23446 0.61148 0.0
O106 O 0.65117 0.24383 0.66702 0.0
O107 O 0.68244 0.28964 0.56963 0.0
O108 O 0.66153 0.27842 0.61298 0.0
C109 C 0.65791 0.23149 0.64324 0.0
C110 C 0.66944 0.29201 0.59732 0.0
O111 O 0.70094 0.24791 0.5426 0.0
Mg112 Mg 0.35176 0.24335 0.58926 0.0
O113 O 0.33235 0.23846 0.64867 0.0
O114 O 0.34882 0.23184 0.70969 0.0
Mg115 Mg 0.37777 0.2322 0.69104 0.0
C116 C 0.3339 0.23438 0.69095 0.0
C117 C 0.33348 0.25066 0.50079 0.0
O118 O 0.34795 0.24207 0.49101 0.0
O119 O 0.35848 0.27033 0.62025 0.0
O120 O 0.37514 0.26165 0.67884 0.0
O121 O 0.35193 0.21464 0.57102 0.0
O122 O 0.36973 0.22692 0.62112 0.0
C123 C 0.36818 0.27377 0.65479 0.0
C124 C 0.36402 0.21293 0.60167 0.0
O125 O 0.33045 0.25446 0.54241 0.0
Mg126 Mg 0.16786 0.7577 0.06749 0.0
O127 O 0.19889 0.75885 0.07962 0.0
O128 O 0.18383 0.76699 0.13698 0.0
Mg129 Mg 0.16762 0.77176 0.19794 0.0
C130 C 0.19874 0.76281 0.12179 0.0
C131 C 0.19227 0.76094 0.98757 0.0
O132 O 0.17631 0.76461 0.97357 0.0
O133 O 0.16858 0.7328 0.11248 0.0
O134 O 0.16377 0.74198 0.18494 0.0
O135 O 0.16443 0.78724 0.05129 0.0
O136 O 0.16705 0.77784 0.12089 0.0
C137 C 0.16534 0.72976 0.15489 0.0
C138 C 0.16397 0.79071 0.09411 0.0
O139 O 0.19461 0.75748 0.0299 0.0
Mg140 Mg 0.17029 0.24535 0.09758 0.0
O141 O 0.18749 0.24019 0.03405 0.0
O142 O 0.1697 0.23316 0.97595 0.0
Mg143 Mg 0.1415 0.23469 1.0008 0.0
C144 C 0.18499 0.23574 0.99237 0.0
C145 C 0.20797 0.24813 0.14011 0.0
O146 O 0.21007 0.23396 0.11514 0.0
O147 O 0.16309 0.27251 0.06852 0.0
O148 O 0.14578 0.26407 0.01087 0.0
O149 O 0.17062 0.21644 0.11296 0.0
O150 O 0.15077 0.2296 0.07017 0.0
C151 C 0.15335 0.27606 0.03412 0.0
C152 C 0.15723 0.21527 0.08597 0.0
O153 O 0.19345 0.2563 0.13825 0.0
Mg154 Mg 0.34859 0.74633 0.56355 0.0
O155 O 0.33269 0.74743 0.49611 0.0
O156 O 0.35245 0.74842 0.43956 0.0
Mg157 Mg 0.38012 0.748 0.46871 0.0
C158 C 0.33659 0.74802 0.45355 0.0
C159 C 0.31195 0.75071 0.61044 0.0
O160 O 0.31185 0.76459 0.58386 0.0
O161 O 0.35446 0.7172 0.54945 0.0
O162 O 0.37424 0.72021 0.49328 0.0
O163 O 0.35031 0.7759 0.56553 0.0
O164 O 0.3696 0.75868 0.53199 0.0
C165 C 0.36519 0.71075 0.5204 0.0
C166 C 0.36435 0.7743 0.54105 0.0
O167 O 0.32458 0.73988 0.60721 0.0
Mg168 Mg 0.51489 0.08317 0.79331 0.0
O169 O 0.51357 0.06196 0.7372 0.0
O170 O 0.50864 0.07553 0.67066 0.0
Mg171 Mg 0.50626 0.10493 0.68323 0.0
C172 C 0.51129 0.06161 0.69392 0.0
C173 C 0.51622 0.04948 0.85038 0.0
O174 O 0.50231 0.04725 0.82452 0.0
O175 O 0.54243 0.09102 0.76816 0.0
O176 O 0.53518 0.10499 0.70369 0.0
O177 O 0.48562 0.08204 0.80354 0.0
O178 O 0.49896 0.09916 0.75361 0.0
C179 C 0.54664 0.09981 0.73253 0.0
C180 C 0.4846 0.09313 0.77024 0.0
O181 O 0.5254 0.06325 0.84503 0.0
Mg182 Mg 0.01252 0.9053 0.34017 0.0
O183 O 0.01878 0.92475 0.28199 0.0
O184 O 0.02614 0.90913 0.21995 0.0
Mg185 Mg 0.02088 0.8804 0.23488 0.0
C186 C 0.0242 0.92371 0.24074 0.0
C187 C 0.01293 0.94126 0.39117 0.0
O188 O 0.02718 0.94271 0.36621 0.0
O189 O 0.98503 0.90135 0.31034 0.0
O190 O 0.9918 0.88666 0.24652 0.0
O191 O 0.04129 0.9028 0.35476 0.0
O192 O 0.02681 0.88585 0.30664 0.0
C193 C 0.98057 0.89383 0.27303 0.0
C194 C 0.04156 0.89063 0.32391 0.0
O195 O 0.00349 0.92761 0.38703 0.0
Mg196 Mg 0.51106 0.90048 0.29221 0.0
O197 O 0.51059 0.91504 0.36088 0.0
O198 O 0.50875 0.89498 0.41657 0.0
Mg199 Mg 0.50853 0.86772 0.38388 0.0
C200 C 0.50968 0.91091 0.4032 0.0
C201 C 0.51077 0.92536 0.21345 0.0
O202 O 0.50017 0.91235 0.20317 0.0
O203 O 0.53992 0.89375 0.30583 0.0
O204 O 0.53648 0.87283 0.35889 0.0
O205 O 0.48153 0.90019 0.29167 0.0
O206 O 0.49807 0.87947 0.32179 0.0
C207 C 0.54614 0.88211 0.33272 0.0
C208 C 0.48269 0.88584 0.31504 0.0
O209 O 0.51834 0.92516 0.25218 0.0
Mg210 Mg 0.02467 0.08792 0.8361 0.0
O211 O 0.02976 0.06893 0.89591 0.0
O212 O 0.03845 0.08494 0.95596 0.0
Mg213 Mg 0.03573 0.11381 0.93777 0.0
C214 C 0.03527 0.07018 0.93707 0.0
C215 C 0.01883 0.06754 0.74984 0.0
O216 O 0.02832 0.0813 0.73896 0.0
O217 O 0.99766 0.09449 0.86639 0.0
O218 O 0.00619 0.10935 0.9287 0.0
O219 O 0.0536 0.088 0.82109 0.0
O220 O 0.04022 0.107 0.86634 0.0
C221 C 0.99423 0.1027 0.90348 0.0
C222 C 0.05453 0.10106 0.84923 0.0
O223 O 0.01407 0.06574 0.79125 0.0
H224 H 0.15976 0.71757 0.2417 0.0
H225 H 0.14758 0.68927 0.26344 0.0
H226 H 0.15009 0.67208 0.12311 0.0
H227 H 0.16202 0.70054 0.10075 0.0
H228 H 0.11772 0.67006 0.15624 0.0
H229 H 0.17418 0.65183 0.20723 0.0
H230 H 0.20215 0.65499 0.24863 0.0
H231 H 0.17447 0.65716 0.37626 0.0
H232 H 0.14628 0.65434 0.33561 0.0
H233 H 0.06726 0.5987 0.20829 0.0
H234 H 0.09532 0.61194 0.18711 0.0
H235 H 0.09933 0.63501 0.32144 0.0
H236 H 0.07172 0.62086 0.34343 0.0
H237 H 0.1317 0.63037 0.28557 0.0
H238 H 0.07681 0.65586 0.23685 0.0
H239 H 0.04787 0.65566 0.1992 0.0
H240 H 0.07218 0.64285 0.07107 0.0
H241 H 0.10126 0.64271 0.10818 0.0
C242 C 0.15809 0.70768 0.21548 0.0
C243 C 0.16154 0.71149 0.16928 0.0
C244 C 0.15126 0.69139 0.22812 0.0
C245 C 0.1479 0.67854 0.19491 0.0
C246 C 0.15256 0.68183 0.14928 0.0
C247 C 0.15939 0.69813 0.13658 0.0
C248 C 0.13707 0.66301 0.20662 0.0
C249 C 0.12106 0.66107 0.18363 0.0
C250 C 0.14111 0.6517 0.24353 0.0
C251 C 0.15808 0.65295 0.26827 0.0
C252 C 0.17403 0.65307 0.24411 0.0
C253 C 0.18994 0.65479 0.26745 0.0
C254 C 0.19009 0.65628 0.31504 0.0
C255 C 0.17433 0.65599 0.33939 0.0
C256 C 0.15838 0.6543 0.31621 0.0
C257 C 0.07457 0.60594 0.23384 0.0
C258 C 0.0674 0.6089 0.27731 0.0
C259 C 0.09054 0.61357 0.22172 0.0
C260 C 0.09915 0.62491 0.25224 0.0
C261 C 0.09289 0.62638 0.29726 0.0
C262 C 0.07711 0.61832 0.30982 0.0
C263 C 0.11245 0.63752 0.23502 0.0
C264 C 0.12871 0.63905 0.25727 0.0
C265 C 0.1086 0.64879 0.19785 0.0
C266 C 0.09116 0.64907 0.17536 0.0
C267 C 0.07596 0.6529 0.2007 0.0
C268 C 0.05954 0.65285 0.17947 0.0
C269 C 0.05818 0.6492 0.1328 0.0
C270 C 0.07325 0.64564 0.10723 0.0
C271 C 0.0897 0.64562 0.12834 0.0
H272 H 0.04546 0.64917 0.11642 0.0
H273 H 0.20241 0.65766 0.33303 0.0
H274 H 0.56397 0.85204 0.3213 0.0
H275 H 0.59222 0.8451 0.35557 0.0
H276 H 0.59894 0.89942 0.39338 0.0
H277 H 0.57044 0.90639 0.35851 0.0
H278 H 0.62709 0.85388 0.3594 0.0
H279 H 0.61035 0.8979 0.50689 0.0
H280 H 0.58601 0.9163 0.53536 0.0
H281 H 0.54864 0.87986 0.48015 0.0
H282 H 0.57279 0.86112 0.45216 0.0
H283 H 0.67121 0.806 0.5316 0.0
H284 H 0.6634 0.83478 0.49924 0.0
H285 H 0.60854 0.82228 0.51492 0.0
H286 H 0.61628 0.79376 0.54646 0.0
H287 H 0.61445 0.85769 0.52551 0.0
H288 H 0.63015 0.80918 0.41963 0.0
H289 H 0.65153 0.78783 0.38924 0.0
H290 H 0.68733 0.82972 0.35889 0.0
H291 H 0.6662 0.85128 0.38967 0.0
C292 C 0.57189 0.86263 0.33489 0.0
C293 C 0.56514 0.87969 0.3374 0.0
C294 C 0.58806 0.85869 0.35444 0.0
C295 C 0.59758 0.87169 0.37765 0.0
C296 C 0.59177 0.88919 0.37574 0.0
C297 C 0.57557 0.89318 0.35563 0.0
C298 C 0.61099 0.86591 0.41114 0.0
C299 C 0.62478 0.85523 0.39583 0.0
C300 C 0.60793 0.86755 0.45872 0.0
C301 C 0.59334 0.87827 0.47707 0.0
C302 C 0.59694 0.8938 0.5011 0.0
C303 C 0.58318 0.90428 0.51712 0.0
C304 C 0.56579 0.8993 0.50937 0.0
C305 C 0.56211 0.88372 0.48604 0.0
C306 C 0.57582 0.87315 0.4702 0.0
C307 C 0.65754 0.80979 0.52981 0.0
C308 C 0.6443 0.79775 0.54121 0.0
C309 C 0.65309 0.82616 0.51122 0.0
C310 C 0.63538 0.8306 0.50431 0.0
C311 C 0.62227 0.81921 0.5201 0.0
C312 C 0.62669 0.80287 0.53796 0.0
C313 C 0.63007 0.84514 0.47359 0.0
C314 C 0.61768 0.85733 0.4894 0.0
C315 C 0.63419 0.84465 0.42641 0.0
C316 C 0.64673 0.83177 0.40732 0.0
C317 C 0.64262 0.8138 0.40661 0.0
C318 C 0.65468 0.80167 0.38935 0.0
C319 C 0.6708 0.80741 0.37226 0.0
C320 C 0.67486 0.8253 0.37225 0.0
C321 C 0.66286 0.83747 0.38961 0.0
H322 H 0.68013 0.79801 0.35893 0.0
H323 H 0.55517 0.9075 0.52151 0.0
H324 H 0.45851 0.409 0.7784 0.0
H325 H 0.42886 0.39791 0.76162 0.0
H326 H 0.45131 0.35758 0.67602 0.0
H327 H 0.48032 0.36874 0.69105 0.0
H328 H 0.42374 0.36925 0.63613 0.0
H329 H 0.43858 0.35161 0.79469 0.0
H330 H 0.44501 0.35826 0.87557 0.0
H331 H 0.39681 0.38714 0.88618 0.0
H332 H 0.3902 0.38074 0.8052 0.0
H333 H 0.38901 0.28476 0.72443 0.0
H334 H 0.39971 0.31393 0.7395 0.0
H335 H 0.36753 0.33441 0.63045 0.0
H336 H 0.3572 0.30457 0.61346 0.0
H337 H 0.38942 0.34419 0.76422 0.0
H338 H 0.38937 0.36846 0.58221 0.0
H339 H 0.38702 0.35777 0.5027 0.0
H340 H 0.41178 0.30937 0.54117 0.0
H341 H 0.41438 0.31987 0.62074 0.0
C342 C 0.45701 0.39785 0.75579 0.0
C343 C 0.4718 0.38978 0.73608 0.0
C344 C 0.44009 0.39154 0.74618 0.0
C345 C 0.43779 0.37691 0.71739 0.0
C346 C 0.4526 0.36905 0.69769 0.0
C347 C 0.4693 0.37542 0.70666 0.0
C348 C 0.42043 0.36857 0.70927 0.0
C349 C 0.41598 0.36408 0.66414 0.0
C350 C 0.41004 0.36204 0.74551 0.0
C351 C 0.41403 0.36591 0.79393 0.0
C352 C 0.42943 0.35946 0.81427 0.0
C353 C 0.43309 0.36317 0.86009 0.0
C354 C 0.42136 0.37317 0.88595 0.0
C355 C 0.40591 0.37944 0.86607 0.0
C356 C 0.4022 0.37578 0.82024 0.0
C357 C 0.384 0.29538 0.70364 0.0
C358 C 0.3725 0.29218 0.66699 0.0
C359 C 0.39003 0.31222 0.71275 0.0
C360 C 0.38464 0.32646 0.68588 0.0
C361 C 0.37214 0.3236 0.65124 0.0
C362 C 0.36622 0.30655 0.64157 0.0
C363 C 0.39402 0.34346 0.69151 0.0
C364 C 0.39665 0.34994 0.73601 0.0
C365 C 0.4033 0.35126 0.65488 0.0
C366 C 0.40182 0.34484 0.60732 0.0
C367 C 0.39429 0.35555 0.57359 0.0
C368 C 0.39293 0.34953 0.52857 0.0
C369 C 0.39918 0.33287 0.51694 0.0
C370 C 0.40688 0.32224 0.55025 0.0
C371 C 0.4083 0.32821 0.59528 0.0
H372 H 0.3981 0.32823 0.48209 0.0
H373 H 0.42421 0.37603 0.92142 0.0
H374 H 0.8794 0.19814 0.09371 0.0
H375 H 0.89185 0.16908 0.07742 0.0
H376 H 0.89616 0.18263 0.93476 0.0
H377 H 0.88383 0.21148 0.95069 0.0
H378 H 0.88865 0.14696 0.94771 0.0
H379 H 0.92927 0.19197 0.00314 0.0
H380 H 0.93952 0.2136 0.05992 0.0
H381 H 0.94233 0.17322 0.16193 0.0
H382 H 0.93187 0.1514 0.10578 0.0
H383 H 0.96735 0.11477 0.85075 0.0
H384 H 0.94011 0.12787 0.87884 0.0
H385 H 0.9528 0.11101 0.0158 0.0
H386 H 0.98044 0.09882 0.98797 0.0
H387 H 0.94778 0.14347 0.01762 0.0
H388 H 0.91446 0.09687 0.95505 0.0
H389 H 0.90463 0.0754 0.8975 0.0
H390 H 0.888 0.11726 0.80951 0.0
H391 H 0.89796 0.13902 0.86622 0.0
C392 C 0.88253 0.1947 0.05873 0.0
C393 C 0.88096 0.20717 0.0236 0.0
C394 C 0.88963 0.17812 0.04946 0.0
C395 C 0.8951 0.1738 0.00494 0.0
C396 C 0.89202 0.18567 0.96931 0.0
C397 C 0.88512 0.20223 0.97857 0.0
C398 C 0.90653 0.15842 0.99614 0.0
C399 C 0.90156 0.14602 0.96307 0.0
C400 C 0.9232 0.15706 0.01692 0.0
C401 C 0.92959 0.17013 0.05052 0.0
C402 C 0.93196 0.18775 0.03778 0.0
C403 C 0.93782 0.20003 0.06981 0.0
C404 C 0.94152 0.1948 0.11455 0.0
C405 C 0.93942 0.17726 0.1273 0.0
C406 C 0.93352 0.16493 0.0954 0.0
C407 C 0.96397 0.11336 0.88652 0.0
C408 C 0.97595 0.10592 0.9173 0.0
C409 C 0.94835 0.12079 0.90265 0.0
C410 C 0.94432 0.12049 0.94962 0.0
C411 C 0.95562 0.11156 0.97954 0.0
C412 C 0.97138 0.10453 0.96363 0.0
C413 C 0.93015 0.13186 0.9684 0.0
C414 C 0.93468 0.14376 0.00316 0.0
C415 C 0.91311 0.13262 0.94917 0.0
C416 C 0.90705 0.1196 0.91488 0.0
C417 C 0.90882 0.10152 0.9233 0.0
C418 C 0.9032 0.08929 0.89084 0.0
C419 C 0.89571 0.09496 0.84985 0.0
C420 C 0.8938 0.11289 0.84128 0.0
C421 C 0.8994 0.12518 0.87362 0.0
H422 H 0.89138 0.08547 0.82476 0.0
H423 H 0.94606 0.20433 0.13931 0.0
H424 H 0.06141 0.4072 0.88968 0.0
H425 H 0.09009 0.39712 0.91855 0.0
H426 H 0.06657 0.34805 0.95913 0.0
H427 H 0.03833 0.35803 0.93175 0.0
H428 H 0.08588 0.36038 0.02626 0.0
H429 H 0.09187 0.35328 0.85929 0.0
H430 H 0.09358 0.3649 0.7807 0.0
H431 H 0.13653 0.39812 0.8197 0.0
H432 H 0.13494 0.38679 0.89866 0.0
H433 H 0.14174 0.28749 0.95192 0.0
H434 H 0.12978 0.31601 0.93355 0.0
H435 H 0.14528 0.3354 0.06619 0.0
H436 H 0.15689 0.30626 0.08562 0.0
H437 H 0.13695 0.34922 0.92556 0.0
H438 H 0.11237 0.361 0.10503 0.0
H439 H 0.10788 0.34559 0.17837 0.0
H440 H 0.09805 0.29748 0.10632 0.0
H441 H 0.10233 0.31267 0.03267 0.0
C442 C 0.06249 0.39424 0.90451 0.0
C443 C 0.0476 0.38346 0.90882 0.0
C444 C 0.07883 0.38853 0.92113 0.0
C445 C 0.08043 0.37191 0.94161 0.0
C446 C 0.06563 0.36106 0.94439 0.0
C447 C 0.04946 0.36676 0.92843 0.0
C448 C 0.09727 0.36514 0.96002 0.0
C449 C 0.09724 0.35831 0.00459 0.0
C450 C 0.11222 0.36262 0.93218 0.0
C451 C 0.11313 0.36939 0.88487 0.0
C452 C 0.10159 0.36316 0.85112 0.0
C453 C 0.10255 0.36967 0.80653 0.0
C454 C 0.11511 0.38229 0.79526 0.0
C455 C 0.12678 0.38838 0.82852 0.0
C456 C 0.12585 0.38192 0.87317 0.0
C457 C 0.14289 0.29784 0.97712 0.0
C458 C 0.1498 0.29446 0.02078 0.0
C459 C 0.13622 0.3143 0.96627 0.0
C460 C 0.1363 0.32784 0.99871 0.0
C461 C 0.14481 0.32507 0.04082 0.0
C462 C 0.15147 0.30843 0.05189 0.0
C463 C 0.12486 0.34331 0.99038 0.0
C464 C 0.12599 0.35201 0.94808 0.0
C465 C 0.11057 0.3471 0.01966 0.0
C466 C 0.1079 0.33789 0.0636 0.0
C467 C 0.10925 0.34714 0.10496 0.0
C468 C 0.10673 0.33845 0.14653 0.0
C469 C 0.10275 0.32055 0.14701 0.0
C470 C 0.10119 0.31132 0.10592 0.0
C471 C 0.10366 0.31996 0.06429 0.0
H472 H 0.10083 0.31384 0.17922 0.0
H473 H 0.11584 0.38731 0.76072 0.0
H474 H 0.96669 0.88871 0.18856 0.0
H475 H 0.93724 0.87865 0.17037 0.0
H476 H 0.92247 0.8837 0.31212 0.0
H477 H 0.95219 0.89376 0.33072 0.0
H478 H 0.91828 0.85098 0.281 0.0
H479 H 0.90058 0.90717 0.23021 0.0
H480 H 0.90286 0.93534 0.18935 0.0
H481 H 0.9043 0.90812 0.0609 0.0
H482 H 0.9023 0.87976 0.10096 0.0
H483 H 0.84924 0.79855 0.22126 0.0
H484 H 0.8603 0.82737 0.24404 0.0
H485 H 0.88653 0.83231 0.11402 0.0
H486 H 0.8747 0.80383 0.09039 0.0
H487 H 0.87924 0.86465 0.15007 0.0
H488 H 0.90601 0.8102 0.20043 0.0
H489 H 0.90575 0.78119 0.23775 0.0
H490 H 0.88967 0.80501 0.36404 0.0
H491 H 0.88958 0.83415 0.32717 0.0
C492 C 0.95706 0.88814 0.21574 0.0
C493 C 0.96182 0.89176 0.2612 0.0
C494 C 0.94013 0.88255 0.20518 0.0
C495 C 0.9276 0.88046 0.23983 0.0
C496 C 0.93193 0.88531 0.28481 0.0
C497 C 0.9489 0.89107 0.29539 0.0
C498 C 0.91147 0.87022 0.23011 0.0
C499 C 0.90937 0.8543 0.2534 0.0
C500 C 0.90019 0.87426 0.1931 0.0
C501 C 0.90134 0.8913 0.16869 0.0
C502 C 0.9015 0.90717 0.19326 0.0
C503 C 0.90273 0.92318 0.17023 0.0
C504 C 0.90374 0.92352 0.12256 0.0
C505 C 0.9035 0.90784 0.09782 0.0
C506 C 0.90228 0.89179 0.12069 0.0
C507 C 0.85664 0.80622 0.19678 0.0
C508 C 0.86126 0.79905 0.15427 0.0
C509 C 0.86301 0.82263 0.20984 0.0
C510 C 0.87467 0.83173 0.18126 0.0
C511 C 0.87762 0.82548 0.13671 0.0
C512 C 0.87087 0.80922 0.12318 0.0
C513 C 0.88637 0.84542 0.20055 0.0
C514 C 0.88775 0.86177 0.17879 0.0
C515 C 0.89728 0.84173 0.23858 0.0
C516 C 0.89758 0.82429 0.26095 0.0
C517 C 0.90233 0.80922 0.23609 0.0
C518 C 0.90224 0.79277 0.25714 0.0
C519 C 0.89764 0.79125 0.3032 0.0
C520 C 0.89318 0.8062 0.32833 0.0
C521 C 0.89319 0.82268 0.30739 0.0
H522 H 0.89758 0.7785 0.31945 0.0
H523 H 0.90469 0.93593 0.1048 0.0
H524 H 0.3883 0.69073 0.56675 0.0
H525 H 0.40198 0.66438 0.53528 0.0
H526 H 0.36261 0.66246 0.42958 0.0
H527 H 0.34911 0.68904 0.46076 0.0
H528 H 0.39729 0.62997 0.4998 0.0
H529 H 0.384 0.66366 0.33224 0.0
H530 H 0.37358 0.69205 0.30184 0.0
H531 H 0.39745 0.71895 0.41485 0.0
H532 H 0.40801 0.69073 0.44575 0.0
H533 H 0.46525 0.59578 0.34485 0.0
H534 H 0.43516 0.60353 0.36865 0.0
H535 H 0.45328 0.65482 0.40936 0.0
H536 H 0.48291 0.64725 0.38633 0.0
H537 H 0.42248 0.65573 0.35856 0.0
H538 H 0.44928 0.62302 0.4861 0.0
H539 H 0.4612 0.59625 0.5219 0.0
H540 H 0.41311 0.56899 0.49395 0.0
H541 H 0.40101 0.59554 0.45739 0.0
C542 C 0.38195 0.68403 0.53858 0.0
C543 C 0.36765 0.69176 0.51623 0.0
C544 C 0.38979 0.66897 0.52048 0.0
C545 C 0.38349 0.66165 0.47959 0.0
C546 C 0.36771 0.66796 0.46104 0.0
C547 C 0.35993 0.68307 0.47902 0.0
C548 C 0.39568 0.65111 0.45119 0.0
C549 C 0.40251 0.63532 0.46828 0.0
C550 C 0.40258 0.65812 0.41013 0.0
C551 C 0.39661 0.67514 0.39141 0.0
C552 C 0.38703 0.67566 0.35047 0.0
C553 C 0.38108 0.6917 0.33323 0.0
C554 C 0.38478 0.70728 0.35653 0.0
C555 C 0.39452 0.70687 0.39697 0.0
C556 C 0.40048 0.69087 0.41436 0.0
C557 C 0.46267 0.60876 0.35835 0.0
C558 C 0.47642 0.6209 0.36388 0.0
C559 C 0.44556 0.61312 0.3721 0.0
C560 C 0.44204 0.62974 0.39079 0.0
C561 C 0.45569 0.64195 0.39489 0.0
C562 C 0.47266 0.63757 0.38186 0.0
C563 C 0.42446 0.63482 0.40775 0.0
C564 C 0.41666 0.64976 0.38864 0.0
C565 C 0.4169 0.62711 0.44708 0.0
C566 C 0.42434 0.61116 0.46848 0.0
C567 C 0.44133 0.61126 0.48714 0.0
C568 C 0.4481 0.59614 0.50766 0.0
C569 C 0.43792 0.58092 0.51011 0.0
C570 C 0.42098 0.58077 0.49195 0.0
C571 C 0.41417 0.59584 0.47132 0.0
H572 H 0.44312 0.56927 0.5263 0.0
H573 H 0.38013 0.71968 0.34319 0.0
H574 H 0.62788 0.22146 0.68503 0.0
H575 H 0.61865 0.19214 0.70584 0.0
H576 H 0.66613 0.17075 0.64797 0.0
H577 H 0.67529 0.20047 0.62533 0.0
H578 H 0.64038 0.15039 0.62695 0.0
H579 H 0.66033 0.17131 0.76625 0.0
H580 H 0.6658 0.19206 0.82929 0.0
H581 H 0.61071 0.19364 0.85931 0.0
H582 H 0.60485 0.17313 0.79602 0.0
H583 H 0.5751 0.09702 0.79067 0.0
H584 H 0.60412 0.11038 0.78014 0.0
H585 H 0.58811 0.12921 0.64738 0.0
H586 H 0.55989 0.11544 0.65664 0.0
H587 H 0.61139 0.14219 0.77723 0.0
H588 H 0.61812 0.13816 0.57574 0.0
H589 H 0.61609 0.11533 0.51638 0.0
H590 H 0.62443 0.07539 0.61744 0.0
H591 H 0.62681 0.09797 0.6774 0.0
C592 C 0.63646 0.21058 0.67678 0.0
C593 C 0.65241 0.21332 0.65385 0.0
C594 C 0.63122 0.19377 0.68913 0.0
C595 C 0.64195 0.17923 0.67991 0.0
C596 C 0.65775 0.1818 0.65603 0.0
C597 C 0.66293 0.19875 0.64299 0.0
C598 C 0.63579 0.16148 0.69353 0.0
C599 C 0.63425 0.14843 0.65998 0.0
C600 C 0.6288 0.15838 0.73766 0.0
C601 C 0.63216 0.17062 0.77629 0.0
C602 C 0.64936 0.17612 0.78617 0.0
C603 C 0.65253 0.18785 0.82197 0.0
C604 C 0.63861 0.19415 0.84831 0.0
C605 C 0.62149 0.18872 0.83894 0.0
C606 C 0.61824 0.17699 0.80316 0.0
C607 C 0.57801 0.10359 0.75875 0.0
C608 C 0.56507 0.10531 0.72477 0.0
C609 C 0.59459 0.11125 0.75278 0.0
C610 C 0.5985 0.1207 0.71271 0.0
C611 C 0.5858 0.12162 0.67808 0.0
C612 C 0.56943 0.1139 0.68379 0.0
C613 C 0.61443 0.13191 0.70904 0.0
C614 C 0.61797 0.14374 0.74464 0.0
C615 C 0.62388 0.13345 0.66748 0.0
C616 C 0.62265 0.11982 0.63121 0.0
C617 C 0.61971 0.12454 0.58534 0.0
C618 C 0.61844 0.11162 0.55155 0.0
C619 C 0.62013 0.09393 0.56313 0.0
C620 C 0.6231 0.08911 0.60852 0.0
C621 C 0.62438 0.10196 0.64244 0.0
H622 H 0.61913 0.08395 0.53692 0.0
H623 H 0.64109 0.20325 0.87599 0.0
H624 H 0.94152 0.42027 0.8677 0.0
H625 H 0.91449 0.40875 0.90297 0.0
H626 H 0.93336 0.35594 0.88277 0.0
H627 H 0.9602 0.36731 0.84885 0.0
H628 H 0.8965 0.35968 0.86873 0.0
H629 H 0.94372 0.37498 0.98217 0.0
H630 H 0.96308 0.39759 0.01551 0.0
H631 H 0.91839 0.43012 0.04376 0.0
H632 H 0.89879 0.40764 0.0106 0.0
H633 H 0.90034 0.29402 0.02392 0.0
H634 H 0.90721 0.32081 0.98261 0.0
H635 H 0.86329 0.34691 0.04573 0.0
H636 H 0.85587 0.31969 0.0867 0.0
H637 H 0.9002 0.36601 0.03734 0.0
H638 H 0.854 0.33958 0.95409 0.0
H639 H 0.83758 0.31465 0.922 0.0
H640 H 0.88045 0.30297 0.83199 0.0
H641 H 0.8976 0.32719 0.86535 0.0
C642 C 0.93956 0.40622 0.86971 0.0
C643 C 0.95285 0.39461 0.85588 0.0
C644 C 0.92419 0.39968 0.88982 0.0
C645 C 0.92196 0.3815 0.89536 0.0
C646 C 0.93475 0.36999 0.87844 0.0
C647 C 0.95011 0.37649 0.85933 0.0
C648 C 0.90796 0.37407 0.92447 0.0
C649 C 0.89688 0.36132 0.90554 0.0
C650 C 0.9082 0.37658 0.97236 0.0
C651 C 0.91984 0.38972 0.99389 0.0
C652 C 0.93805 0.38695 0.99563 0.0
C653 C 0.94906 0.39974 0.01438 0.0
C654 C 0.94198 0.41531 0.03158 0.0
C655 C 0.92386 0.41806 0.03039 0.0
C656 C 0.91279 0.40529 0.01173 0.0
C657 C 0.89205 0.30538 0.02909 0.0
C658 C 0.87732 0.3046 0.05778 0.0
C659 C 0.89609 0.32072 0.00567 0.0
C660 C 0.8856 0.33569 0.01075 0.0
C661 C 0.87145 0.3354 0.04133 0.0
C662 C 0.86726 0.31988 0.0646 0.0
C663 C 0.88938 0.35103 0.98161 0.0
C664 C 0.89876 0.36508 1.00053 0.0
C665 C 0.88753 0.34969 0.93359 0.0
C666 C 0.87714 0.33528 0.91241 0.0
C667 C 0.86003 0.33161 0.92778 0.0
C668 C 0.85058 0.31758 0.90936 0.0
C669 C 0.85789 0.30734 0.87468 0.0
C670 C 0.87477 0.31097 0.85873 0.0
C671 C 0.8844 0.32482 0.87754 0.0
H672 H 0.85048 0.29659 0.86017 0.0
H673 H 0.95053 0.42524 0.04588 0.0
H674 H 0.47493 0.09164 0.68123 0.0
H675 H 0.4492 0.10538 0.64642 0.0
H676 H 0.43126 0.12147 0.78001 0.0
H677 H 0.45656 0.10679 0.81495 0.0
H678 H 0.40398 0.11578 0.7281 0.0
H679 H 0.45789 0.14811 0.71082 0.0
H680 H 0.4887 0.15224 0.68754 0.0
H681 H 0.47482 0.14202 0.5478 0.0
H682 H 0.44394 0.13757 0.57041 0.0
H683 H 0.37031 0.20117 0.68772 0.0
H684 H 0.38572 0.17439 0.70967 0.0
H685 H 0.38858 0.15882 0.56809 0.0
H686 H 0.37297 0.18576 0.54596 0.0
H687 H 0.42125 0.16078 0.6142 0.0
H688 H 0.36508 0.13448 0.63518 0.0
H689 H 0.33467 0.1327 0.66341 0.0
H690 H 0.35317 0.13466 0.80192 0.0
H691 H 0.38368 0.13672 0.77454 0.0
C692 C 0.46526 0.09779 0.7031 0.0
C693 C 0.46772 0.09845 0.75055 0.0
C694 C 0.4506 0.10567 0.68325 0.0
C695 C 0.43857 0.11495 0.71045 0.0
C696 C 0.4404 0.11449 0.75826 0.0
C697 C 0.45484 0.10615 0.77822 0.0
C698 C 0.42532 0.12666 0.68907 0.0
C699 C 0.40775 0.12564 0.70326 0.0
C700 C 0.43017 0.13941 0.65611 0.0
C701 C 0.44867 0.14231 0.64237 0.0
C702 C 0.46144 0.14665 0.67517 0.0
C703 C 0.4789 0.14905 0.66211 0.0
C704 C 0.48372 0.14734 0.61624 0.0
C705 C 0.47107 0.1433 0.58333 0.0
C706 C 0.45359 0.14084 0.59624 0.0
C707 C 0.37408 0.19198 0.66134 0.0
C708 C 0.37078 0.19561 0.61514 0.0
C709 C 0.38269 0.17658 0.67395 0.0
C710 C 0.38825 0.16463 0.6405 0.0
C711 C 0.3843 0.16787 0.59438 0.0
C712 C 0.37539 0.18319 0.58182 0.0
C713 C 0.4 0.15003 0.65361 0.0
C714 C 0.41737 0.15062 0.63813 0.0
C715 C 0.39502 0.13723 0.68608 0.0
C716 C 0.37668 0.13585 0.70275 0.0
C717 C 0.36266 0.13466 0.67166 0.0
C718 C 0.3454 0.13358 0.68751 0.0
C719 C 0.34199 0.13359 0.73443 0.0
C720 C 0.35583 0.13465 0.76559 0.0
C721 C 0.37312 0.13574 0.74991 0.0
H722 H 0.32862 0.13277 0.74663 0.0
H723 H 0.49725 0.1492 0.60619 0.0
H724 H 0.58583 0.59041 0.33527 0.0
H725 H 0.61169 0.6023 0.37526 0.0
H726 H 0.58978 0.65435 0.36569 0.0
H727 H 0.56404 0.64259 0.327 0.0
H728 H 0.62633 0.65339 0.35075 0.0
H729 H 0.58136 0.63189 0.45775 0.0
H730 H 0.56286 0.60828 0.48915 0.0
H731 H 0.60882 0.57795 0.52002 0.0
H732 H 0.62759 0.6014 0.48834 0.0
H733 H 0.62539 0.71092 0.53052 0.0
H734 H 0.61735 0.68612 0.48253 0.0
H735 H 0.66527 0.65964 0.51913 0.0
H736 H 0.67383 0.68493 0.56666 0.0
H737 H 0.62656 0.64009 0.51679 0.0
H738 H 0.67093 0.66987 0.42997 0.0
H739 H 0.68632 0.69587 0.39983 0.0
H740 H 0.63952 0.71209 0.33027 0.0
H741 H 0.62366 0.68655 0.36114 0.0
C742 C 0.58683 0.60442 0.34083 0.0
C743 C 0.573 0.61562 0.32834 0.0
C744 C 0.60153 0.61117 0.36368 0.0
C745 C 0.60261 0.62919 0.37336 0.0
C746 C 0.58926 0.64043 0.35826 0.0
C747 C 0.57453 0.63369 0.33639 0.0
C748 C 0.61635 0.63651 0.40357 0.0
C749 C 0.62674 0.65025 0.38689 0.0
C750 C 0.61703 0.63219 0.45056 0.0
C751 C 0.60584 0.61826 0.47025 0.0
C752 C 0.5875 0.62014 0.47101 0.0
C753 C 0.57697 0.60679 0.48885 0.0
C754 C 0.58465 0.59157 0.50638 0.0
C755 C 0.60289 0.58972 0.50631 0.0
C756 C 0.61348 0.60303 0.48844 0.0
C757 C 0.63428 0.69987 0.52852 0.0
C758 C 0.65041 0.70004 0.55166 0.0
C759 C 0.6296 0.68567 0.50128 0.0
C760 C 0.64083 0.67123 0.49698 0.0
C761 C 0.65651 0.67077 0.52202 0.0
C762 C 0.66133 0.68517 0.54913 0.0
C763 C 0.63609 0.65733 0.46409 0.0
C764 C 0.62712 0.64254 0.48029 0.0
C765 C 0.63658 0.66081 0.41664 0.0
C766 C 0.64608 0.67626 0.39801 0.0
C767 C 0.66386 0.67907 0.40865 0.0
C768 C 0.67268 0.69372 0.39138 0.0
C769 C 0.66393 0.70555 0.36298 0.0
C770 C 0.64629 0.70287 0.35216 0.0
C771 C 0.63738 0.68832 0.36956 0.0
H772 H 0.67082 0.71676 0.3492 0.0
H773 H 0.57647 0.58124 0.52015 0.0
H774 H 0.17665 0.80779 0.1687 0.0
H775 H 0.16272 0.83237 0.20858 0.0
H776 H 0.12328 0.83502 0.10284 0.0
H777 H 0.13812 0.81155 0.06121 0.0
H778 H 0.12557 0.86535 0.13634 0.0
H779 H 0.12001 0.80777 0.20369 0.0
H780 H 0.13112 0.7802 0.23702 0.0
H781 H 0.15604 0.80918 0.34489 0.0
H782 H 0.14525 0.83694 0.31177 0.0
H783 H 0.04562 0.86371 0.26373 0.0
H784 H 0.07246 0.85391 0.22676 0.0
H785 H 0.10237 0.89118 0.30544 0.0
H786 H 0.0752 0.90186 0.34138 0.0
H787 H 0.10974 0.84662 0.29343 0.0
H788 H 0.10724 0.90493 0.22388 0.0
H789 H 0.09089 0.92897 0.1869 0.0
H790 H 0.07528 0.89424 0.07878 0.0
H791 H 0.09127 0.86989 0.11559 0.0
C792 C 0.16538 0.81412 0.15331 0.0
C793 C 0.15831 0.80778 0.11224 0.0
C794 C 0.15733 0.82804 0.17624 0.0
C795 C 0.14152 0.83513 0.15971 0.0
C796 C 0.13536 0.82975 0.11661 0.0
C797 C 0.14383 0.81629 0.0928 0.0
C798 C 0.13019 0.84625 0.18941 0.0
C799 C 0.1223 0.86133 0.17085 0.0
C800 C 0.12577 0.84109 0.23461 0.0
C801 C 0.13203 0.82442 0.25497 0.0
C802 C 0.12792 0.80825 0.23441 0.0
C803 C 0.13416 0.7926 0.25324 0.0
C804 C 0.14433 0.79294 0.29296 0.0
C805 C 0.14821 0.80894 0.31405 0.0
C806 C 0.14204 0.82463 0.29527 0.0
C807 C 0.0578 0.8701 0.27277 0.0
C808 C 0.05819 0.88386 0.30478 0.0
C809 C 0.07314 0.86439 0.25174 0.0
C810 C 0.08925 0.87205 0.26288 0.0
C811 C 0.08994 0.88532 0.29606 0.0
C812 C 0.07446 0.89131 0.31665 0.0
C813 C 0.10521 0.86547 0.24015 0.0
C814 C 0.1137 0.85104 0.25972 0.0
C815 C 0.10965 0.87084 0.19544 0.0
C816 C 0.10035 0.88556 0.17272 0.0
C817 C 0.10019 0.90238 0.19244 0.0
C818 C 0.09102 0.91607 0.17145 0.0
C819 C 0.08204 0.91313 0.13054 0.0
C820 C 0.08225 0.8965 0.11047 0.0
C821 C 0.09138 0.88275 0.13136 0.0
H822 H 0.07492 0.92374 0.11438 0.0
H823 H 0.14917 0.78082 0.30746 0.0
H824 H 0.9537 0.59096 0.31882 0.0
H825 H 0.92725 0.60498 0.28682 0.0
H826 H 0.9566 0.65253 0.2642 0.0
H827 H 0.98294 0.63858 0.29446 0.0
H828 H 0.92061 0.65453 0.31231 0.0
H829 H 0.95326 0.63109 0.17902 0.0
H830 H 0.96588 0.60616 0.13647 0.0
H831 H 0.91535 0.58134 0.13214 0.0
H832 H 0.90252 0.60602 0.17543 0.0
H833 H 0.89628 0.7184 0.16325 0.0
H834 H 0.91072 0.6944 0.20259 0.0
H835 H 0.87095 0.65852 0.15498 0.0
H836 H 0.85641 0.68277 0.11419 0.0
H837 H 0.90387 0.64397 0.15062 0.0
H838 H 0.86967 0.67128 0.26434 0.0
H839 H 0.85657 0.69588 0.30711 0.0
H840 H 0.90767 0.71202 0.35208 0.0
H841 H 0.92114 0.68772 0.30891 0.0
C842 C 0.95441 0.60442 0.30715 0.0
C843 C 0.97033 0.6137 0.30893 0.0
C844 C 0.93936 0.61236 0.28893 0.0
C845 C 0.94007 0.62976 0.27338 0.0
C846 C 0.95584 0.6391 0.27621 0.0
C847 C 0.97087 0.6311 0.2933 0.0
C848 C 0.9247 0.63848 0.25282 0.0
C849 C 0.91676 0.65217 0.27715 0.0
C850 C 0.91932 0.63488 0.20757 0.0
C851 C 0.927 0.62025 0.18096 0.0
C852 C 0.94489 0.62023 0.16938 0.0
C853 C 0.95207 0.60617 0.14506 0.0
C854 C 0.94144 0.59214 0.13174 0.0
C855 C 0.92358 0.59219 0.14257 0.0
C856 C 0.91635 0.60621 0.167 0.0
C857 C 0.89051 0.70544 0.16113 0.0
C858 C 0.87506 0.70252 0.1362 0.0
C859 C 0.89878 0.69171 0.18376 0.0
C860 C 0.89166 0.67475 0.18275 0.0
C861 C 0.87654 0.67156 0.15659 0.0
C862 C 0.86827 0.68539 0.13337 0.0
C863 C 0.90037 0.66069 0.20942 0.0
C864 C 0.9071 0.646 0.18634 0.0
C865 C 0.90445 0.66321 0.25622 0.0
C866 C 0.89642 0.67765 0.28328 0.0
C867 C 0.87813 0.68011 0.28322 0.0
C868 C 0.87064 0.69401 0.30752 0.0
C869 C 0.88128 0.7055 0.33231 0.0
C870 C 0.89944 0.70308 0.33292 0.0
C871 C 0.90701 0.68922 0.3086 0.0
H872 H 0.87546 0.71627 0.35105 0.0
H873 H 0.94702 0.58126 0.11293 0.0
H874 H 0.08373 0.08308 0.87726 0.0
H875 H 0.10943 0.09569 0.91666 0.0
H876 H 0.08826 0.14761 0.89677 0.0
H877 H 0.06257 0.13511 0.85915 0.0
H878 H 0.12549 0.14487 0.88202 0.0
H879 H 0.07882 0.12815 0.98932 0.0
H880 H 0.05961 0.10683 0.02818 0.0
H881 H 0.10474 0.07849 0.07559 0.0
H882 H 0.12422 0.09949 0.0362 0.0
H883 H 0.12643 0.20922 0.04291 0.0
H884 H 0.11729 0.18269 0.00338 0.0
H885 H 0.16383 0.156 0.04982 0.0
H886 H 0.17344 0.18296 0.08914 0.0
H887 H 0.12421 0.13798 0.05068 0.0
H888 H 0.1706 0.16131 0.95816 0.0
H889 H 0.18761 0.18552 0.9241 0.0
H890 H 0.142 0.20271 0.85068 0.0
H891 H 0.12461 0.17885 0.88509 0.0
C892 C 0.08488 0.09719 0.88044 0.0
C893 C 0.07132 0.10821 0.86523 0.0
C894 C 0.09947 0.10434 0.90297 0.0
C895 C 0.10071 0.12256 0.90945 0.0
C896 C 0.0876 0.13354 0.89178 0.0
C897 C 0.07293 0.12641 0.87045 0.0
C898 C 0.11446 0.1305 0.93845 0.0
C899 C 0.12556 0.14308 0.9188 0.0
C900 C 0.11469 0.12796 0.98637 0.0
C901 C 0.10296 0.1152 0.00923 0.0
C902 C 0.08464 0.11723 0.0075 0.0
C903 C 0.0737 0.10524 0.02974 0.0
C904 C 0.08096 0.0913 0.0543 0.0
C905 C 0.09915 0.08928 0.05648 0.0
C906 C 0.11014 0.1012 0.03416 0.0
C907 C 0.13474 0.19774 0.04503 0.0
C908 C 0.15082 0.19828 0.0684 0.0
C909 C 0.12944 0.18256 0.02263 0.0
C910 C 0.13999 0.16754 0.02339 0.0
C911 C 0.15557 0.16755 0.04891 0.0
C912 C 0.161 0.18291 0.07129 0.0
C913 C 0.13485 0.15259 0.99424 0.0
C914 C 0.12507 0.13896 0.01376 0.0
C915 C 0.1358 0.15417 0.94618 0.0
C916 C 0.14629 0.1683 0.92435 0.0
C917 C 0.16417 0.17032 0.93498 0.0
C918 C 0.17388 0.18398 0.91561 0.0
C919 C 0.16589 0.19564 0.88524 0.0
C920 C 0.14818 0.19365 0.87418 0.0
C921 C 0.13839 0.18005 0.89357 0.0
H922 H 0.17343 0.20617 0.87019 0.0
H923 H 0.07249 0.08211 0.07182 0.0
H924 H 0.64967 0.3169 0.55612 0.0
H925 H 0.63697 0.34291 0.59253 0.0
H926 H 0.66612 0.33175 0.7157 0.0
H927 H 0.67838 0.30547 0.67945 0.0
H928 H 0.6334 0.33499 0.73505 0.0
H929 H 0.67337 0.37001 0.65141 0.0
H930 H 0.68987 0.38055 0.58441 0.0
H931 H 0.64177 0.39563 0.51905 0.0
H932 H 0.62494 0.38495 0.58535 0.0
H933 H 0.58175 0.4019 0.83535 0.0
H934 H 0.6094 0.38916 0.80759 0.0
H935 H 0.5879 0.38636 0.67135 0.0
H936 H 0.5607 0.3994 0.69862 0.0
H937 H 0.62282 0.394 0.66933 0.0
H938 H 0.58382 0.352 0.74413 0.0
H939 H 0.5669 0.34064 0.80959 0.0
H940 H 0.61386 0.33843 0.89037 0.0
H941 H 0.63103 0.34999 0.82546 0.0
C942 C 0.65372 0.32038 0.59044 0.0
C943 C 0.66498 0.3094 0.61512 0.0
C944 C 0.64655 0.33526 0.61123 0.0
C945 C 0.65069 0.33941 0.65685 0.0
C946 C 0.66276 0.32886 0.68051 0.0
C947 C 0.66978 0.31391 0.65985 0.0
C948 C 0.64054 0.35309 0.68155 0.0
C949 C 0.63154 0.34808 0.72133 0.0
C950 C 0.63782 0.37009 0.6634 0.0
C951 C 0.64788 0.37658 0.62336 0.0
C952 C 0.66629 0.37546 0.62264 0.0
C953 C 0.67571 0.38148 0.58478 0.0
C954 C 0.66688 0.38874 0.54748 0.0
C955 C 0.6486 0.39001 0.54798 0.0
C956 C 0.63911 0.384 0.58574 0.0
C957 C 0.58314 0.3989 0.79934 0.0
C958 C 0.56893 0.40107 0.76934 0.0
C959 C 0.59888 0.39161 0.78355 0.0
C960 C 0.60057 0.38652 0.73755 0.0
C961 C 0.58685 0.39006 0.70702 0.0
C962 C 0.57117 0.39723 0.7228 0.0
C963 C 0.6155 0.37563 0.7218 0.0
C964 C 0.62525 0.38111 0.68369 0.0
C965 C 0.61895 0.35902 0.74133 0.0
C966 C 0.60864 0.35207 0.78024 0.0
C967 C 0.5905 0.34921 0.77598 0.0
C968 C 0.58088 0.34272 0.81295 0.0
C969 C 0.58929 0.33888 0.85417 0.0
C970 C 0.60736 0.34146 0.85847 0.0
C971 C 0.61704 0.34798 0.82162 0.0
H972 H 0.58182 0.33384 0.88275 0.0
H973 H 0.67419 0.39339 0.5182 0.0
H974 H 0.35343 0.80872 0.53583 0.0
H975 H 0.36989 0.83366 0.50385 0.0
H976 H 0.4131 0.79911 0.4729 0.0
H977 H 0.39698 0.77447 0.50456 0.0
H978 H 0.42344 0.82992 0.51619 0.0
H979 H 0.38328 0.81141 0.39233 0.0
H980 H 0.35399 0.80783 0.3577 0.0
H981 H 0.34364 0.86272 0.37693 0.0
H982 H 0.37276 0.86655 0.41231 0.0
H983 H 0.48013 0.8526 0.34637 0.0
H984 H 0.45647 0.83967 0.39064 0.0
H985 H 0.42696 0.8878 0.38054 0.0
H986 H 0.45078 0.90089 0.33507 0.0
H987 H 0.40589 0.8588 0.37129 0.0
H988 H 0.44696 0.87931 0.47832 0.0
H989 H 0.47625 0.88483 0.51092 0.0
H990 H 0.48417 0.82947 0.52816 0.0
H991 H 0.45508 0.82357 0.49476 0.0
C992 C 0.36645 0.80652 0.52222 0.0
C993 C 0.37386 0.78961 0.5224 0.0
C994 C 0.3758 0.82074 0.50393 0.0
C995 C 0.3927 0.8182 0.48598 0.0
C996 C 0.4001 0.80137 0.48667 0.0
C997 C 0.39079 0.78725 0.50451 0.0
C998 C 0.40303 0.83274 0.46588 0.0
C999 C 0.41959 0.83631 0.48463 0.0
C1000 C 0.39765 0.84174 0.42598 0.0
C1001 C 0.38008 0.83921 0.4055 0.0
C1002 C 0.37467 0.82266 0.38965 0.0
C1003 C 0.35812 0.8206 0.36977 0.0
C1004 C 0.34696 0.83505 0.3652 0.0
C1005 C 0.35229 0.85155 0.38058 0.0
C1006 C 0.3688 0.85366 0.40055 0.0
C1007 C 0.46861 0.86046 0.35337 0.0
C1008 C 0.4674 0.87783 0.33782 0.0
C1009 C 0.4551 0.85306 0.3788 0.0
C1010 C 0.44016 0.86293 0.38991 0.0
C1011 C 0.43848 0.88004 0.3727 0.0
C1012 C 0.45204 0.88747 0.34674 0.0
C1013 C 0.42668 0.85507 0.42013 0.0
C1014 C 0.40957 0.85284 0.40356 0.0
C1015 C 0.43141 0.84756 0.46262 0.0
C1016 C 0.4488 0.851 0.48388 0.0
C1017 C 0.45496 0.8683 0.48887 0.0
C1018 C 0.47154 0.8715 0.50747 0.0
C1019 C 0.48206 0.85751 0.5216 0.0
C1020 C 0.47599 0.84029 0.51724 0.0
C1021 C 0.45944 0.83701 0.49852 0.0
H1022 H 0.4949 0.86001 0.53594 0.0
H1023 H 0.3342 0.83352 0.34956 0.0
H1024 H 0.00885 0.53953 0.26909 0.0
H1025 H 0.00461 0.51325 0.22237 0.0
H1026 H 0.99673 0.54559 0.10318 0.0
H1027 H 0.00057 0.57185 0.14954 0.0
H1028 H 0.97344 0.51971 0.10466 0.0
H1029 H 0.03602 0.52481 0.12392 0.0
H1030 H 0.06352 0.52729 0.16781 0.0
H1031 H 0.05294 0.47802 0.23322 0.0
H1032 H 0.02524 0.47536 0.19012 0.0
H1033 H 0.99385 0.46042 0.924 0.0
H1034 H 0.99441 0.48453 0.97927 0.0
H1035 H 0.99301 0.44737 0.09022 0.0
H1036 H 0.99215 0.42316 0.03535 0.0
H1037 H 0.01967 0.47398 0.0976 0.0
H1038 H 0.95809 0.46793 0.07266 0.0
H1039 H 0.93121 0.46536 0.02638 0.0
H1040 H 0.94033 0.51651 0.9698 0.0
H1041 H 0.96747 0.51925 0.01514 0.0
C1042 C 0.00619 0.54107 0.23296 0.0
C1043 C 0.00516 0.55784 0.2131 0.0
C1044 C 0.00381 0.52602 0.20626 0.0
C1045 C 0.00053 0.52745 0.15915 0.0
C1046 C 0.99923 0.54416 0.13944 0.0
C1047 C 0.00153 0.55918 0.16606 0.0
C1048 C 0.99871 0.5116 0.12999 0.0
C1049 C 0.98362 0.5098 0.10286 0.0
C1050 C 0.01181 0.49843 0.12838 0.0
C1051 C 0.02847 0.49998 0.15419 0.0
C1052 C 0.0395 0.51457 0.14793 0.0
C1053 C 0.05513 0.516 0.17261 0.0
C1054 C 0.05995 0.50285 0.20339 0.0
C1055 C 0.04917 0.48821 0.20943 0.0
C1056 C 0.03351 0.48673 0.18487 0.0
C1057 C 0.99359 0.45736 0.96014 0.0
C1058 C 0.99299 0.43986 0.97524 0.0
C1059 C 0.99387 0.47114 0.99163 0.0
C1060 C 0.99374 0.46768 0.03873 0.0
C1061 C 0.99314 0.45027 0.05398 0.0
C1062 C 0.99259 0.43648 0.02254 0.0
C1063 C 0.99455 0.48229 0.07197 0.0
C1064 C 0.00944 0.48384 0.09979 0.0
C1065 C 0.98132 0.49525 0.07404 0.0
C1066 C 0.96492 0.49373 0.04699 0.0
C1067 C 0.95446 0.47857 0.05004 0.0
C1068 C 0.93916 0.47709 0.02403 0.0
C1069 C 0.93409 0.49075 0.99509 0.0
C1070 C 0.94429 0.50593 0.9922 0.0
C1071 C 0.95963 0.50746 0.01807 0.0
H1072 H 0.92223 0.48958 0.97498 0.0
H1073 H 0.07206 0.50398 0.22246 0.0
H1074 H 0.79663 0.73962 0.15783 0.0
H1075 H 0.76948 0.73823 0.2024 0.0
H1076 H 0.79958 0.73081 0.32571 0.0
H1077 H 0.82663 0.73182 0.28169 0.0
H1078 H 0.7715 0.71001 0.32564 0.0
H1079 H 0.78347 0.77125 0.29509 0.0
H1080 H 0.78898 0.79684 0.24557 0.0
H1081 H 0.73914 0.78928 0.18017 0.0
H1082 H 0.73344 0.7635 0.22893 0.0
H1083 H 0.71546 0.73821 0.50245 0.0
H1084 H 0.73925 0.73567 0.44693 0.0
H1085 H 0.70223 0.7416 0.33656 0.0
H1086 H 0.67836 0.74449 0.3919 0.0
H1087 H 0.73151 0.76136 0.3234 0.0
H1088 H 0.71842 0.70161 0.35971 0.0
H1089 H 0.71308 0.67627 0.4102 0.0
H1090 H 0.76494 0.68123 0.46575 0.0
H1091 H 0.77057 0.70669 0.41589 0.0
C1092 C 0.79746 0.73753 0.19437 0.0
C1093 C 0.81384 0.73599 0.21617 0.0
C1094 C 0.78194 0.73681 0.21981 0.0
C1095 C 0.78252 0.73465 0.26748 0.0
C1096 C 0.79881 0.7325 0.289 0.0
C1097 C 0.81429 0.73317 0.26369 0.0
C1098 C 0.76634 0.73528 0.29557 0.0
C1099 C 0.76281 0.72128 0.32534 0.0
C1100 C 0.75475 0.74979 0.29438 0.0
C1101 C 0.75813 0.76534 0.26526 0.0
C1102 C 0.77375 0.77497 0.26991 0.0
C1103 C 0.7769 0.78952 0.24202 0.0
C1104 C 0.76444 0.79465 0.20965 0.0
C1105 C 0.74879 0.78527 0.2052 0.0
C1106 C 0.74559 0.7707 0.23296 0.0
C1107 C 0.71237 0.73905 0.46639 0.0
C1108 C 0.69498 0.7414 0.45159 0.0
C1109 C 0.72596 0.73747 0.43469 0.0
C1110 C 0.72246 0.73817 0.38761 0.0
C1111 C 0.70519 0.74091 0.37273 0.0
C1112 C 0.69157 0.74247 0.40441 0.0
C1113 C 0.7369 0.73625 0.35408 0.0
C1114 C 0.74007 0.74999 0.32329 0.0
C1115 C 0.74818 0.72152 0.3544 0.0
C1116 C 0.74487 0.70615 0.38429 0.0
C1117 C 0.72865 0.69738 0.38291 0.0
C1118 C 0.72557 0.68298 0.41138 0.0
C1119 C 0.73863 0.67719 0.44126 0.0
C1120 C 0.75483 0.68574 0.44262 0.0
C1121 C 0.75798 0.70013 0.4142 0.0
H1122 H 0.73622 0.66605 0.46329 0.0
H1123 H 0.7669 0.80592 0.18809 0.0
H1124 H 0.52625 0.54867 0.38926 0.0
H1125 H 0.52489 0.52476 0.44452 0.0
H1126 H 0.53839 0.5606 0.55305 0.0
H1127 H 0.53986 0.58465 0.49806 0.0
H1128 H 0.55558 0.52941 0.56169 0.0
H1129 H 0.49726 0.54912 0.53911 0.0
H1130 H 0.4713 0.55789 0.49466 0.0
H1131 H 0.46679 0.50567 0.44094 0.0
H1132 H 0.49313 0.4967 0.48394 0.0
H1133 H 0.5283 0.46808 0.73459 0.0
H1134 H 0.52933 0.4949 0.68839 0.0
H1135 H 0.52168 0.46425 0.56609 0.0
H1136 H 0.52081 0.43746 0.61165 0.0
H1137 H 0.50051 0.49488 0.57122 0.0
H1138 H 0.56106 0.4767 0.59 0.0
H1139 H 0.58716 0.46875 0.63525 0.0
H1140 H 0.58632 0.51927 0.70019 0.0
H1141 H 0.56004 0.52743 0.65576 0.0
C1142 C 0.52904 0.5515 0.4248 0.0
C1143 C 0.53305 0.56864 0.43919 0.0
C1144 C 0.52821 0.53781 0.45637 0.0
C1145 C 0.53128 0.54098 0.50294 0.0
C1146 C 0.53591 0.55791 0.51727 0.0
C1147 C 0.53671 0.57164 0.48573 0.0
C1148 C 0.52914 0.52667 0.5367 0.0
C1149 C 0.54345 0.52204 0.56431 0.0
C1150 C 0.51331 0.51704 0.53997 0.0
C1151 C 0.49729 0.52228 0.51447 0.0
C1152 C 0.49084 0.53953 0.51752 0.0
C1153 C 0.47603 0.54454 0.49261 0.0
C1154 C 0.46736 0.53234 0.46505 0.0
C1155 C 0.47352 0.51511 0.4623 0.0
C1156 C 0.48841 0.51006 0.48689 0.0
C1157 C 0.52673 0.46708 0.6979 0.0
C1158 C 0.52457 0.45064 0.67674 0.0
C1159 C 0.52737 0.48239 0.6716 0.0
C1160 C 0.52566 0.48149 0.62389 0.0
C1161 C 0.52302 0.46518 0.60288 0.0
C1162 C 0.52262 0.44989 0.62898 0.0
C1163 C 0.52706 0.49742 0.59533 0.0
C1164 C 0.51257 0.50238 0.56882 0.0
C1165 C 0.54264 0.50745 0.59345 0.0
C1166 C 0.55847 0.50259 0.61999 0.0
C1167 C 0.56635 0.48605 0.61424 0.0
C1168 C 0.58119 0.48152 0.63967 0.0
C1169 C 0.58836 0.49348 0.67069 0.0
C1170 C 0.58073 0.51001 0.67623 0.0
C1171 C 0.56587 0.5146 0.65092 0.0
H1172 H 0.59986 0.48995 0.69034 0.0
H1173 H 0.45587 0.53625 0.44586 0.0
H1174 H 0.84196 0.26729 0.89861 0.0
H1175 H 0.81626 0.26868 0.84969 0.0
H1176 H 0.78265 0.2659 0.9681 0.0
H1177 H 0.8085 0.26412 0.01768 0.0
H1178 H 0.77108 0.24465 0.90342 0.0
H1179 H 0.7874 0.30532 0.90778 0.0
H1180 H 0.80734 0.33072 0.90258 0.0
H1181 H 0.8193 0.31747 0.76339 0.0
H1182 H 0.79933 0.29204 0.76768 0.0
H1183 H 0.69399 0.2693 0.78318 0.0
H1184 H 0.71905 0.26933 0.83497 0.0
H1185 H 0.75425 0.26509 0.72015 0.0
H1186 H 0.7292 0.26504 0.66774 0.0
H1187 H 0.76433 0.29056 0.7845 0.0
H1188 H 0.74669 0.22995 0.78147 0.0
H1189 H 0.72556 0.2056 0.78788 0.0
H1190 H 0.71536 0.21952 0.9276 0.0
H1191 H 0.73625 0.24414 0.92181 0.0
C1192 C 0.82913 0.2671 0.91448 0.0
C1193 C 0.82731 0.26567 0.96219 0.0
C1194 C 0.81442 0.26798 0.88635 0.0
C1195 C 0.79751 0.26769 0.90523 0.0
C1196 C 0.79559 0.26621 0.95282 0.0
C1197 C 0.81036 0.26521 0.9811 0.0
C1198 C 0.78194 0.26834 0.87489 0.0
C1199 C 0.76945 0.25486 0.87796 0.0
C1200 C 0.77999 0.28145 0.84099 0.0
C1201 C 0.79197 0.29673 0.83817 0.0
C1202 C 0.79433 0.3078 0.87612 0.0
C1203 C 0.80557 0.32223 0.87327 0.0
C1204 C 0.81461 0.32568 0.83272 0.0
C1205 C 0.8123 0.31478 0.79478 0.0
C1206 C 0.80095 0.3004 0.79733 0.0
C1207 C 0.70704 0.26838 0.76878 0.0
C1208 C 0.70958 0.26712 0.72125 0.0
C1209 C 0.72134 0.26834 0.79851 0.0
C1210 C 0.73846 0.26708 0.78136 0.0
C1211 C 0.7411 0.26605 0.73398 0.0
C1212 C 0.72678 0.26595 0.70414 0.0
C1213 C 0.75357 0.26687 0.81304 0.0
C1214 C 0.76595 0.28041 0.81013 0.0
C1215 C 0.75532 0.25392 0.84734 0.0
C1216 C 0.74291 0.23899 0.85106 0.0
C1217 C 0.73984 0.22791 0.81346 0.0
C1218 C 0.72792 0.21404 0.817 0.0
C1219 C 0.71908 0.21105 0.85809 0.0
C1220 C 0.7222 0.22187 0.89578 0.0
C1221 C 0.73409 0.23577 0.8924 0.0
H1222 H 0.70985 0.20031 0.86075 0.0
H1223 H 0.8234 0.33679 0.8307 0.0
H1224 H 0.21954 0.23114 0.01511 0.0
H1225 H 0.24459 0.22931 0.96312 0.0
H1226 H 0.20987 0.23553 0.84772 0.0
H1227 H 0.1848 0.23668 0.89928 0.0
H1228 H 0.23335 0.21243 0.82736 0.0
H1229 H 0.23523 0.27028 0.89306 0.0
H1230 H 0.23587 0.29188 0.95584 0.0
H1231 H 0.2841 0.2698 0.00509 0.0
H1232 H 0.28363 0.24792 0.94288 0.0
H1233 H 0.29934 0.23903 0.66652 0.0
H1234 H 0.27364 0.23804 0.71676 0.0
H1235 H 0.30699 0.22576 0.83142 0.0
H1236 H 0.33261 0.22678 0.78201 0.0
H1237 H 0.28417 0.25201 0.85112 0.0
H1238 H 0.28212 0.19439 0.78337 0.0
H1239 H 0.28124 0.17331 0.71944 0.0
H1240 H 0.23301 0.19601 0.67216 0.0
H1241 H 0.23372 0.21739 0.7355 0.0
C1242 C 0.21726 0.23206 0.97866 0.0
C1243 C 0.20021 0.23413 0.96133 0.0
C1244 C 0.23159 0.23109 0.94895 0.0
C1245 C 0.22917 0.23263 0.90148 0.0
C1246 C 0.2121 0.23433 0.88416 0.0
C1247 C 0.19776 0.23501 0.91374 0.0
C1248 C 0.24438 0.23278 0.86979 0.0
C1249 C 0.24436 0.22125 0.83228 0.0
C1250 C 0.25889 0.24409 0.87646 0.0
C1251 C 0.25931 0.25737 0.91356 0.0
C1252 C 0.24592 0.26997 0.91743 0.0
C1253 C 0.24626 0.28227 0.95289 0.0
C1254 C 0.26 0.28218 0.9845 0.0
C1255 C 0.27346 0.26984 0.9806 0.0
C1256 C 0.27317 0.2575 0.94523 0.0
C1257 C 0.30119 0.23602 0.70236 0.0
C1258 C 0.31807 0.23303 0.72015 0.0
C1259 C 0.28649 0.23541 0.73099 0.0
C1260 C 0.28844 0.23178 0.77778 0.0
C1261 C 0.30521 0.22864 0.79546 0.0
C1262 C 0.31985 0.22919 0.767 0.0
C1263 C 0.27312 0.23167 0.80891 0.0
C1264 C 0.27313 0.24323 0.84625 0.0
C1265 C 0.25856 0.22051 0.80184 0.0
C1266 C 0.25807 0.2076 0.76391 0.0
C1267 C 0.2714 0.19498 0.75914 0.0
C1268 C 0.27091 0.18296 0.72305 0.0
C1269 C 0.2571 0.18335 0.69168 0.0
C1270 C 0.24371 0.19574 0.69644 0.0
C1271 C 0.24414 0.20779 0.73245 0.0
H1272 H 0.25675 0.17404 0.66376 0.0
H1273 H 0.26023 0.2917 0.01195 0.0
H1274 H 0.34018 0.74432 0.36125 0.0
H1275 H 0.31733 0.74473 0.30324 0.0
H1276 H 0.27809 0.75191 0.40775 0.0
H1277 H 0.30097 0.7512 0.46662 0.0
H1278 H 0.26701 0.72898 0.34274 0.0
H1279 H 0.29222 0.78624 0.34623 0.0
H1280 H 0.31616 0.80782 0.3454 0.0
H1281 H 0.33071 0.79137 0.21017 0.0
H1282 H 0.30699 0.76934 0.21066 0.0
H1283 H 0.19913 0.76681 0.21391 0.0
H1284 H 0.22336 0.762 0.26631 0.0
H1285 H 0.2572 0.74923 0.15301 0.0
H1286 H 0.23267 0.7539 0.09963 0.0
H1287 H 0.27177 0.77312 0.21865 0.0
H1288 H 0.24355 0.71703 0.215 0.0
H1289 H 0.21819 0.69701 0.21829 0.0
H1290 H 0.20775 0.71314 0.35623 0.0
H1291 H 0.23288 0.73349 0.35355 0.0
C1292 C 0.3267 0.74599 0.37214 0.0
C1293 C 0.32245 0.74794 0.4187 0.0
C1294 C 0.31364 0.74621 0.3388 0.0
C1295 C 0.29603 0.7486 0.35106 0.0
C1296 C 0.29162 0.75007 0.39753 0.0
C1297 C 0.30472 0.74976 0.43111 0.0
C1298 C 0.28237 0.75018 0.31509 0.0
C1299 C 0.26797 0.73872 0.31584 0.0
C1300 C 0.2838 0.76267 0.27945 0.0
C1301 C 0.29796 0.77601 0.2787 0.0
C1302 C 0.30061 0.78712 0.31645 0.0
C1303 C 0.31414 0.79945 0.31601 0.0
C1304 C 0.325 0.80098 0.27775 0.0
C1305 C 0.32231 0.79016 0.23982 0.0
C1306 C 0.30882 0.77773 0.24016 0.0
C1307 C 0.21168 0.76299 0.19987 0.0
C1308 C 0.21396 0.76066 0.15256 0.0
C1309 C 0.22552 0.76018 0.23001 0.0
C1310 C 0.24197 0.75503 0.21359 0.0
C1311 C 0.24452 0.7531 0.16628 0.0
C1312 C 0.23054 0.75577 0.13592 0.0
C1313 C 0.25643 0.75198 0.24638 0.0
C1314 C 0.27095 0.76321 0.24517 0.0
C1315 C 0.25498 0.73942 0.28185 0.0
C1316 C 0.24005 0.72691 0.28394 0.0
C1317 C 0.23579 0.71641 0.24595 0.0
C1318 C 0.22146 0.70498 0.24771 0.0
C1319 C 0.21134 0.70384 0.2874 0.0
C1320 C 0.21559 0.71405 0.32549 0.0
C1321 C 0.22989 0.72552 0.32389 0.0
H1322 H 0.20022 0.69503 0.28865 0.0
H1323 H 0.33547 0.81056 0.27744 0.0
H1324 H 0.51304 0.9462 0.38893 0.0
H1325 H 0.51469 0.96935 0.44623 0.0
H1326 H 0.50921 0.93102 0.55361 0.0
H1327 H 0.50739 0.90765 0.49643 0.0
H1328 H 0.48881 0.96009 0.56871 0.0
H1329 H 0.54827 0.94778 0.53422 0.0
H1330 H 0.57392 0.94232 0.485 0.0
H1331 H 0.56998 0.99443 0.43047 0.0
H1332 H 0.54406 0.00012 0.47868 0.0
H1333 H 0.51103 0.02835 0.73019 0.0
H1334 H 0.51216 0.00047 0.68836 0.0
H1335 H 0.51454 0.02867 0.56079 0.0
H1336 H 0.51338 0.05643 0.60189 0.0
H1337 H 0.53896 0.00156 0.56642 0.0
H1338 H 0.47684 0.01155 0.59461 0.0
H1339 H 0.45113 0.01648 0.6441 0.0
H1340 H 0.46104 0.96779 0.71317 0.0
H1341 H 0.48698 0.9627 0.66443 0.0
C1342 C 0.51214 0.94263 0.42467 0.0
C1343 C 0.51015 0.92503 0.438 0.0
C1344 C 0.51316 0.9559 0.45741 0.0
C1345 C 0.5123 0.95186 0.50415 0.0
C1346 C 0.50996 0.93438 0.51769 0.0
C1347 C 0.50896 0.92106 0.48492 0.0
C1348 C 0.51388 0.96604 0.53854 0.0
C1349 C 0.49993 0.96895 0.56889 0.0
C1350 C 0.52839 0.97761 0.53863 0.0
C1351 C 0.54413 0.97434 0.5099 0.0
C1352 C 0.55279 0.95804 0.51151 0.0
C1353 C 0.56739 0.95491 0.48381 0.0
C1354 C 0.57357 0.96801 0.45461 0.0
C1355 C 0.56517 0.98429 0.45311 0.0
C1356 C 0.55053 0.98749 0.48064 0.0
C1357 C 0.51182 0.0286 0.69324 0.0
C1358 C 0.51204 0.04463 0.66939 0.0
C1359 C 0.51244 0.01267 0.66944 0.0
C1360 C 0.5134 0.01255 0.62152 0.0
C1361 C 0.51386 0.0285 0.59778 0.0
C1362 C 0.51308 0.04436 0.62139 0.0
C1363 C 0.51364 0.9959 0.59545 0.0
C1364 C 0.52798 0.99251 0.56675 0.0
C1365 C 0.49958 0.98382 0.59719 0.0
C1366 C 0.48396 0.98685 0.62629 0.0
C1367 C 0.47362 0.00197 0.62062 0.0
C1368 C 0.45899 0.00478 0.64847 0.0
C1369 C 0.45449 0.99248 0.68186 0.0
C1370 C 0.46457 0.97732 0.68736 0.0
C1371 C 0.47923 0.97446 0.65962 0.0
H1372 H 0.44316 0.99468 0.70339 0.0
H1373 H 0.58488 0.96556 0.4332 0.0
H1374 H 0.01849 0.03873 0.92631 0.0
H1375 H 0.01904 0.01372 0.97871 0.0
H1376 H 0.05739 0.04029 0.06228 0.0
H1377 H 0.05641 0.0655 0.01091 0.0
H1378 H 0.04184 0.99088 0.00909 0.0
H1379 H 0.05001 0.03245 0.1731 0.0
H1380 H 0.04367 0.06244 0.20033 0.0
H1381 H 0.0013 0.06662 0.10428 0.0
H1382 H 0.00724 0.0366 0.07692 0.0
H1383 H 0.05245 0.93024 0.18739 0.0
H1384 H 0.05744 0.9558 0.13859 0.0
H1385 H 0.00857 0.97827 0.18514 0.0
H1386 H 0.00435 0.95329 0.23657 0.0
H1387 H 0.0297 0.00319 0.17267 0.0
H1388 H 0.01352 0.95337 0.0795 0.0
H1389 H 0.01679 0.92292 0.05208 0.0
H1390 H 0.06868 0.93458 0.00385 0.0
H1391 H 0.06575 0.96506 0.03131 0.0
C1392 C 0.02717 0.03914 0.9556 0.0
C1393 C 0.0372 0.05417 0.965 0.0
C1394 C 0.0275 0.02483 0.98548 0.0
C1395 C 0.03797 0.02528 0.02498 0.0
C1396 C 0.04885 0.03983 0.03271 0.0
C1397 C 0.04832 0.05422 0.0033 0.0
C1398 C 0.03681 0.01096 0.05923 0.0
C1399 C 0.03921 0.99357 0.04486 0.0
C1400 C 0.03311 0.01442 0.10583 0.0
C1401 C 0.02919 0.03235 0.12269 0.0
C1402 C 0.03929 0.03975 0.15796 0.0
C1403 C 0.03578 0.05676 0.17337 0.0
C1404 C 0.02213 0.06645 0.15394 0.0
C1405 C 0.01191 0.05913 0.1192 0.0
C1406 C 0.01535 0.04212 0.10371 0.0
C1407 C 0.04296 0.94082 0.18756 0.0
C1408 C 0.02797 0.93985 0.21521 0.0
C1409 C 0.04572 0.95534 0.15945 0.0
C1410 C 0.0331 0.96875 0.15695 0.0
C1411 C 0.01846 0.96808 0.18618 0.0
C1412 C 0.01602 0.95382 0.21549 0.0
C1413 C 0.03468 0.98304 0.12262 0.0
C1414 C 0.0324 0.00046 0.13696 0.0
C1415 C 0.03793 0.97956 0.07574 0.0
C1416 C 0.03946 0.96144 0.05769 0.0
C1417 C 0.02562 0.94942 0.06304 0.0
C1418 C 0.02742 0.93216 0.04754 0.0
C1419 C 0.04295 0.92681 0.02632 0.0
C1420 C 0.05666 0.93874 0.02028 0.0
C1421 C 0.05493 0.95602 0.03572 0.0
H1422 H 0.04434 0.91343 0.0145 0.0
H1423 H 0.01945 0.07962 0.16588 0.0
H1424 H 0.00901 0.42781 0.66223 0.0
H1425 H 0.01526 0.44953 0.60395 0.0
H1426 H 0.03565 0.48466 0.70673 0.0
H1427 H 0.02885 0.46294 0.76613 0.0
H1428 H 0.01472 0.50182 0.65206 0.0
H1429 H 0.06311 0.46421 0.62704 0.0
H1430 H 0.07897 0.43635 0.61609 0.0
H1431 H 0.05011 0.42666 0.49263 0.0
H1432 H 0.03388 0.45434 0.50315 0.0
H1433 H 0.03708 0.55957 0.46836 0.0
H1434 H 0.04176 0.5392 0.53185 0.0
H1435 H 0.01159 0.49975 0.46128 0.0
H1436 H 0.00669 0.52008 0.39783 0.0
H1437 H 0.04287 0.48689 0.50413 0.0
H1438 H 0.99185 0.52296 0.5385 0.0
H1439 H 0.97669 0.55118 0.55034 0.0
H1440 H 0.01266 0.5642 0.65807 0.0
H1441 H 0.02818 0.53614 0.6464 0.0
C1442 C 0.01499 0.44007 0.67264 0.0
C1443 C 0.01843 0.44362 0.71894 0.0
C1444 C 0.0187 0.45246 0.63906 0.0
C1445 C 0.02624 0.46865 0.65069 0.0
C1446 C 0.02993 0.47221 0.69688 0.0
C1447 C 0.02607 0.45979 0.73076 0.0
C1448 C 0.02904 0.4821 0.61462 0.0
C1449 C 0.02128 0.49867 0.62019 0.0
C1450 C 0.03743 0.478 0.5727 0.0
C1451 C 0.0472 0.46133 0.56605 0.0
C1452 C 0.06005 0.45609 0.59771 0.0
C1453 C 0.06913 0.44033 0.59155 0.0
C1454 C 0.06554 0.42973 0.55372 0.0
C1455 C 0.05288 0.43488 0.52192 0.0
C1456 C 0.04376 0.45063 0.52792 0.0
C1457 C 0.03163 0.54649 0.46606 0.0
C1458 C 0.0214 0.54147 0.42818 0.0
C1459 C 0.03429 0.53489 0.50242 0.0
C1460 C 0.02692 0.51804 0.50134 0.0
C1461 C 0.01739 0.51272 0.46271 0.0
C1462 C 0.01454 0.52437 0.42659 0.0
C1463 C 0.02819 0.50626 0.54144 0.0
C1464 C 0.03668 0.49006 0.53648 0.0
C1465 C 0.02068 0.51075 0.58408 0.0
C1466 C 0.0113 0.52757 0.5912 0.0
C1467 C 0.99661 0.53191 0.56443 0.0
C1468 C 0.98794 0.54786 0.57116 0.0
C1469 C 0.99374 0.5595 0.60483 0.0
C1470 C 0.0082 0.55519 0.63193 0.0
C1471 C 0.01694 0.53927 0.62529 0.0
H1472 H 0.987 0.57184 0.61 0.0
H1473 H 0.07258 0.41753 0.54903 0.0
H1474 H 0.80153 0.7656 0.99885 0.0
H1475 H 0.78072 0.77001 0.93609 0.0
H1476 H 0.81095 0.73498 0.85111 0.0
H1477 H 0.83192 0.73085 0.913 0.0
H1478 H 0.80113 0.76256 0.80316 0.0
H1479 H 0.77269 0.72185 0.90546 0.0
H1480 H 0.76078 0.71185 0.97935 0.0
H1481 H 0.72541 0.75569 0.98181 0.0
H1482 H 0.73729 0.76607 0.90816 0.0
H1483 H 0.73922 0.73267 0.63948 0.0
H1484 H 0.76076 0.7366 0.70043 0.0
H1485 H 0.7271 0.77468 0.76522 0.0
H1486 H 0.70543 0.77081 0.7044 0.0
H1487 H 0.73798 0.74936 0.82458 0.0
H1488 H 0.76457 0.78794 0.71653 0.0
H1489 H 0.77635 0.79694 0.64167 0.0
H1490 H 0.81512 0.75619 0.64885 0.0
H1491 H 0.80341 0.74676 0.72348 0.0
C1492 C 0.80374 0.75886 0.96676 0.0
C1493 C 0.81835 0.74781 0.96101 0.0
C1494 C 0.79182 0.76136 0.93095 0.0
C1495 C 0.79417 0.75269 0.88897 0.0
C1496 C 0.80886 0.74184 0.88309 0.0
C1497 C 0.82082 0.73943 0.91866 0.0
C1498 C 0.78127 0.75456 0.8512 0.0
C1499 C 0.78734 0.75956 0.80777 0.0
C1500 C 0.76319 0.75109 0.85741 0.0
C1501 C 0.75602 0.74485 0.90161 0.0
C1502 C 0.76247 0.72943 0.92195 0.0
C1503 C 0.75571 0.72368 0.96374 0.0
C1504 C 0.74239 0.73316 0.98534 0.0
C1505 C 0.73576 0.74838 0.9651 0.0
C1506 C 0.74249 0.7542 0.92332 0.0
C1507 C 0.73649 0.74208 0.6663 0.0
C1508 C 0.72056 0.75137 0.66715 0.0
C1509 C 0.74885 0.74436 0.70107 0.0
C1510 C 0.74555 0.75598 0.73732 0.0
C1511 C 0.7299 0.76565 0.73757 0.0
C1512 C 0.71757 0.76346 0.70266 0.0
C1513 C 0.7579 0.75706 0.77642 0.0
C1514 C 0.75173 0.7526 0.82009 0.0
C1515 C 0.7759 0.7609 0.77033 0.0
C1516 C 0.78301 0.76655 0.72548 0.0
C1517 C 0.77552 0.7808 0.70199 0.0
C1518 C 0.7822 0.786 0.65962 0.0
C1519 C 0.79645 0.77712 0.64047 0.0
C1520 C 0.80407 0.76304 0.66371 0.0
C1521 C 0.79743 0.75778 0.70608 0.0
H1522 H 0.80161 0.78117 0.60767 0.0
H1523 H 0.73717 0.72869 0.01769 0.0
H1524 H 0.50149 0.54315 0.2306 0.0
H1525 H 0.49514 0.52048 0.17324 0.0
H1526 H 0.51753 0.55335 0.06838 0.0
H1527 H 0.52347 0.57599 0.12472 0.0
H1528 H 0.48883 0.53862 0.03738 0.0
H1529 H 0.54048 0.51884 0.1201 0.0
H1530 H 0.55684 0.5098 0.18891 0.0
H1531 H 0.51993 0.46823 0.21225 0.0
H1532 H 0.50323 0.47717 0.14382 0.0
H1533 H 0.52373 0.4848 0.86465 0.0
H1534 H 0.51792 0.50448 0.92871 0.0
H1535 H 0.48994 0.46323 0.99828 0.0
H1536 H 0.49563 0.44338 0.93392 0.0
H1537 H 0.51523 0.47944 0.05275 0.0
H1538 H 0.46703 0.49661 0.95977 0.0
H1539 H 0.45201 0.50564 0.88898 0.0
H1540 H 0.48348 0.55227 0.88312 0.0
H1541 H 0.49888 0.54341 0.95354 0.0
C1542 C 0.50494 0.54554 0.19525 0.0
C1543 C 0.51305 0.56135 0.1823 0.0
C1544 C 0.50136 0.53257 0.16253 0.0
C1545 C 0.50599 0.53514 0.11648 0.0
C1546 C 0.51376 0.55106 0.10358 0.0
C1547 C 0.51723 0.56399 0.13601 0.0
C1548 C 0.50339 0.52126 0.08137 0.0
C1549 C 0.49463 0.52569 0.04074 0.0
C1550 C 0.51047 0.50418 0.08619 0.0
C1551 C 0.52049 0.49881 0.12725 0.0
C1552 C 0.53578 0.50786 0.14013 0.0
C1553 C 0.54512 0.50274 0.17901 0.0
C1554 C 0.53939 0.48849 0.20503 0.0
C1555 C 0.52433 0.4793 0.19213 0.0
C1556 C 0.51492 0.48438 0.15331 0.0
C1557 C 0.51614 0.47995 0.89327 0.0
C1558 C 0.51016 0.46252 0.89421 0.0
C1559 C 0.51277 0.49124 0.92982 0.0
C1560 C 0.50342 0.48534 0.96816 0.0
C1561 C 0.49714 0.46804 0.96894 0.0
C1562 C 0.50034 0.45676 0.93207 0.0
C1563 C 0.50125 0.49707 0.00826 0.0
C1564 C 0.50908 0.49223 0.04979 0.0
C1565 C 0.49346 0.51383 0.00414 0.0
C1566 C 0.48418 0.51928 0.96185 0.0
C1567 C 0.47084 0.50873 0.94323 0.0
C1568 C 0.46224 0.51383 0.90318 0.0
C1569 C 0.46681 0.52951 0.88153 0.0
C1570 C 0.47996 0.54013 0.89994 0.0
C1571 C 0.48861 0.53509 0.93996 0.0
H1572 H 0.46014 0.53343 0.85053 0.0
H1573 H 0.54664 0.48454 0.23512 0.0
H1574 H 0.84256 0.26031 0.27211 0.0
H1575 H 0.82083 0.25517 0.33128 0.0
H1576 H 0.78845 0.22715 0.23483 0.0
H1577 H 0.81016 0.23267 0.17454 0.0
H1578 H 0.76919 0.24928 0.28271 0.0
H1579 H 0.8104 0.20525 0.32153 0.0
H1580 H 0.83944 0.19239 0.33723 0.0
H1581 H 0.84588 0.22687 0.4521 0.0
H1582 H 0.81698 0.24012 0.43672 0.0
H1583 H 0.71156 0.23203 0.46994 0.0
H1584 H 0.73236 0.22562 0.40835 0.0
H1585 H 0.77081 0.2589 0.4729 0.0
H1586 H 0.75016 0.26538 0.53447 0.0
H1587 H 0.78528 0.22822 0.43759 0.0
H1588 H 0.74584 0.27484 0.38916 0.0
H1589 H 0.71674 0.28748 0.37265 0.0
H1590 H 0.7069 0.24666 0.27475 0.0
H1591 H 0.73587 0.23365 0.29116 0.0
C1592 C 0.83091 0.25292 0.26335 0.0
C1593 C 0.82813 0.24688 0.21852 0.0
C1594 C 0.81851 0.24988 0.29745 0.0
C1595 C 0.80312 0.24049 0.28784 0.0
C1596 C 0.80029 0.23433 0.24313 0.0
C1597 C 0.81271 0.23747 0.20875 0.0
C1598 C 0.78969 0.23811 0.3242 0.0
C1599 C 0.77261 0.24426 0.31623 0.0
C1600 C 0.79415 0.23173 0.36818 0.0
C1601 C 0.81153 0.22375 0.37779 0.0
C1602 C 0.81805 0.21017 0.34997 0.0
C1603 C 0.83448 0.2028 0.35884 0.0
C1604 C 0.84451 0.20883 0.3956 0.0
C1605 C 0.8381 0.22221 0.42363 0.0
C1606 C 0.82168 0.22964 0.4149 0.0
C1607 C 0.72454 0.23777 0.4714 0.0
C1608 C 0.72916 0.24934 0.50694 0.0
C1609 C 0.73637 0.23414 0.43608 0.0
C1610 C 0.75305 0.24194 0.43581 0.0
C1611 C 0.758 0.25276 0.47242 0.0
C1612 C 0.74615 0.2565 0.50752 0.0
C1613 C 0.76504 0.23981 0.39625 0.0
C1614 C 0.78182 0.23285 0.40372 0.0
C1615 C 0.76027 0.2453 0.35174 0.0
C1616 C 0.74291 0.25316 0.3418 0.0
C1617 C 0.7374 0.26848 0.3644 0.0
C1618 C 0.72095 0.27572 0.35501 0.0
C1619 C 0.70996 0.26784 0.32279 0.0
C1620 C 0.71542 0.25273 0.29978 0.0
C1621 C 0.73185 0.24542 0.3091 0.0
H1622 H 0.69723 0.27347 0.31555 0.0
H1623 H 0.85723 0.20311 0.4024 0.0
H1624 H 0.30245 0.26906 0.50658 0.0
H1625 H 0.28097 0.27388 0.44543 0.0
H1626 H 0.314 0.24542 0.35135 0.0
H1627 H 0.33559 0.24107 0.41141 0.0
H1628 H 0.30065 0.27222 0.3091 0.0
H1629 H 0.27778 0.22647 0.40648 0.0
H1630 H 0.26773 0.2136 0.47924 0.0
H1631 H 0.22798 0.25327 0.49048 0.0
H1632 H 0.23794 0.2665 0.418 0.0
H1633 H 0.24168 0.23625 0.14633 0.0
H1634 H 0.26279 0.24197 0.20743 0.0
H1635 H 0.22579 0.27658 0.27298 0.0
H1636 H 0.20458 0.27101 0.2118 0.0
H1637 H 0.23966 0.25132 0.33164 0.0
H1638 H 0.26079 0.29395 0.22533 0.0
H1639 H 0.27071 0.30458 0.15009 0.0
H1640 H 0.31394 0.26852 0.15331 0.0
H1641 H 0.30413 0.25748 0.22829 0.0
C1642 C 0.30517 0.26397 0.47275 0.0
C1643 C 0.32069 0.25459 0.464 0.0
C1644 C 0.29286 0.26667 0.43785 0.0
C1645 C 0.29574 0.25981 0.39381 0.0
C1646 C 0.31145 0.25088 0.3849 0.0
C1647 C 0.32378 0.24833 0.41948 0.0
C1648 C 0.28226 0.26122 0.35715 0.0
C1649 C 0.28733 0.26758 0.31404 0.0
C1650 C 0.26475 0.25553 0.36365 0.0
C1651 C 0.25874 0.2476 0.40717 0.0
C1652 C 0.26698 0.23252 0.42467 0.0
C1653 C 0.26129 0.22515 0.46581 0.0
C1654 C 0.24727 0.23265 0.48955 0.0
C1655 C 0.23887 0.2475 0.47211 0.0
C1656 C 0.24453 0.25494 0.431 0.0
C1657 C 0.2381 0.24527 0.17339 0.0
C1658 C 0.22143 0.25314 0.17423 0.0
C1659 C 0.25021 0.24856 0.20823 0.0
C1660 C 0.24587 0.25974 0.24469 0.0
C1661 C 0.22939 0.26793 0.24514 0.0
C1662 C 0.21733 0.26478 0.21003 0.0
C1663 C 0.25818 0.26196 0.28355 0.0
C1664 C 0.25289 0.25625 0.32699 0.0
C1665 C 0.27554 0.26801 0.27716 0.0
C1666 C 0.28164 0.2748 0.23234 0.0
C1667 C 0.27234 0.2882 0.20988 0.0
C1668 C 0.27796 0.29431 0.16728 0.0
C1669 C 0.29292 0.2872 0.14689 0.0
C1670 C 0.30235 0.27401 0.16914 0.0
C1671 C 0.29678 0.26784 0.21173 0.0
H1672 H 0.29724 0.29193 0.11388 0.0
H1673 H 0.24287 0.22693 0.5214 0.0
H1674 H 0.31365 0.72927 0.68543 0.0
H1675 H 0.29486 0.72998 0.753 0.0
H1676 H 0.26261 0.76958 0.68949 0.0
H1677 H 0.2817 0.76935 0.62245 0.0
H1678 H 0.26994 0.77918 0.77232 0.0
H1679 H 0.24922 0.72547 0.70472 0.0
H1680 H 0.25189 0.69569 0.6725 0.0
H1681 H 0.27357 0.67718 0.79903 0.0
H1682 H 0.27124 0.70691 0.83182 0.0
H1683 H 0.19263 0.77555 0.90313 0.0
H1684 H 0.2151 0.77294 0.84435 0.0
H1685 H 0.24703 0.74211 0.93563 0.0
H1686 H 0.22446 0.74483 0.99543 0.0
H1687 H 0.24251 0.72737 0.84576 0.0
H1688 H 0.26043 0.78129 0.91465 0.0
H1689 H 0.2564 0.81107 0.94584 0.0
H1690 H 0.23861 0.82917 0.81486 0.0
H1691 H 0.24229 0.79943 0.78302 0.0
C1692 C 0.3024 0.73794 0.68552 0.0
C1693 C 0.29919 0.74929 0.64852 0.0
C1694 C 0.29163 0.73831 0.72424 0.0
C1695 C 0.27723 0.74979 0.72643 0.0
C1696 C 0.27368 0.76068 0.68881 0.0
C1697 C 0.28456 0.76047 0.65035 0.0
C1698 C 0.26637 0.75117 0.76862 0.0
C1699 C 0.2638 0.76784 0.78798 0.0
C1700 C 0.25882 0.73634 0.79021 0.0
C1701 C 0.26024 0.71846 0.77054 0.0
C1702 C 0.25469 0.71508 0.72554 0.0
C1703 C 0.25612 0.6982 0.7072 0.0
C1704 C 0.26295 0.68456 0.73365 0.0
C1705 C 0.26832 0.68776 0.77855 0.0
C1706 C 0.26693 0.70462 0.79704 0.0
C1707 C 0.20448 0.76832 0.911 0.0
C1708 C 0.20676 0.76037 0.95393 0.0
C1709 C 0.21734 0.76689 0.87734 0.0
C1710 C 0.23274 0.75738 0.88565 0.0
C1711 C 0.23521 0.74952 0.92861 0.0
C1712 C 0.22238 0.75116 0.96274 0.0
C1713 C 0.24584 0.75538 0.8485 0.0
C1714 C 0.24883 0.73863 0.83019 0.0
C1715 C 0.25367 0.77014 0.82757 0.0
C1716 C 0.25152 0.78809 0.84653 0.0
C1717 C 0.25553 0.79159 0.89257 0.0
C1718 C 0.25333 0.80847 0.91036 0.0
C1719 C 0.24722 0.822 0.88237 0.0
C1720 C 0.24333 0.81868 0.83651 0.0
C1721 C 0.2455 0.80181 0.81856 0.0
H1722 H 0.24552 0.83506 0.89621 0.0
H1723 H 0.26404 0.6715 0.71939 0.0
H1724 H 0.53378 0.95319 0.21899 0.0
H1725 H 0.53965 0.97535 0.15997 0.0
H1726 H 0.50101 0.95121 0.0725 0.0
H1727 H 0.49527 0.92913 0.13046 0.0
H1728 H 0.53055 0.95781 0.02638 0.0
H1729 H 0.49266 0.98925 0.13215 0.0
H1730 H 0.48469 0.00164 0.20723 0.0
H1731 H 0.53168 0.03266 0.20727 0.0
H1732 H 0.54004 0.02029 0.13239 0.0
H1733 H 0.50042 0.01801 0.86528 0.0
H1734 H 0.50477 0.99802 0.92909 0.0
H1735 H 0.54481 0.03202 0.98384 0.0
H1736 H 0.54038 0.05236 0.91981 0.0
H1737 H 0.52144 0.02163 0.04957 0.0
H1738 H 0.55666 0.9935 0.9373 0.0
H1739 H 0.56395 0.98148 0.8614 0.0
H1740 H 0.52197 0.94423 0.87309 0.0
H1741 H 0.51425 0.95619 0.9488 0.0
C1742 C 0.52651 0.95268 0.18722 0.0
C1743 C 0.51409 0.93936 0.17941 0.0
C1744 C 0.52986 0.96536 0.15358 0.0
C1745 C 0.52077 0.96494 0.11178 0.0
C1746 C 0.50828 0.95174 0.1043 0.0
C1747 C 0.50497 0.93913 0.13766 0.0
C1748 C 0.52412 0.97799 0.07512 0.0
C1749 C 0.52851 0.97177 0.03143 0.0
C1750 C 0.52211 0.99626 0.08204 0.0
C1751 C 0.51708 0.00368 0.127 0.0
C1752 C 0.50137 0.9986 0.14837 0.0
C1753 C 0.49677 0.00564 0.19084 0.0
C1754 C 0.50771 0.01788 0.21209 0.0
C1755 C 0.52324 0.02315 0.19083 0.0
C1756 C 0.52791 0.01613 0.14837 0.0
C1757 C 0.51028 0.02122 0.89058 0.0
C1758 C 0.52006 0.03679 0.88739 0.0
C1759 C 0.5128 0.00971 0.92702 0.0
C1760 C 0.52525 0.01342 0.96103 0.0
C1761 C 0.53518 0.02888 0.95787 0.0
C1762 C 0.53269 0.04043 0.92118 0.0
C1763 C 0.52718 0.00133 1.0005 0.0
C1764 C 0.52384 0.00772 0.04469 0.0
C1765 C 0.53014 0.98318 0.99409 0.0
C1766 C 0.53483 0.97581 0.94869 0.0
C1767 C 0.54891 0.98281 0.92359 0.0
C1768 C 0.55313 0.976 0.8806 0.0
C1769 C 0.54342 0.96212 0.86241 0.0
C1770 C 0.52949 0.95499 0.88723 0.0
C1771 C 0.5252 0.96176 0.93023 0.0
H1772 H 0.5467 0.95687 0.82911 0.0
H1773 H 0.50412 0.02332 0.24496 0.0
H1774 H 0.99815 0.03805 0.75771 0.0
H1775 H 0.99191 0.01619 0.69824 0.0
H1776 H 0.02389 0.04523 0.60305 0.0
H1777 H 0.02977 0.06716 0.66142 0.0
H1778 H 0.99542 0.03458 0.56175 0.0
H1779 H 0.0388 0.00782 0.66084 0.0
H1780 H 0.05023 0.99685 0.73433 0.0
H1781 H 0.0068 0.96123 0.74487 0.0
H1782 H 0.995 0.97215 0.67165 0.0
H1783 H 0.02733 0.97381 0.40015 0.0
H1784 H 0.02287 0.99482 0.4621 0.0
H1785 H 0.98554 0.95989 0.52501 0.0
H1786 H 0.98987 0.93874 0.46282 0.0
H1787 H 0.01098 0.97207 0.58558 0.0
H1788 H 0.97059 0.99623 0.47846 0.0
H1789 H 0.96055 0.007 0.40346 0.0
H1790 H -0.00036 0.04751 0.40659 0.0
H1791 H 0.01009 0.03684 0.48133 0.0
C1792 C 0.00377 0.03978 0.72403 0.0
C1793 C 0.0145 0.05432 0.71439 0.0
C1794 C 0.00024 0.02726 0.69011 0.0
C1795 C 0.00756 0.02897 0.6462 0.0
C1796 C 0.01803 0.04363 0.63653 0.0
C1797 C 0.02145 0.05614 0.67013 0.0
C1798 C 0.0048 0.01546 0.61016 0.0
C1799 C 0.99889 0.02092 0.56696 0.0
C1800 C 0.00883 0.99752 0.61717 0.0
C1801 C 0.01591 0.99096 0.66112 0.0
C1802 C 0.03162 0.99775 0.67903 0.0
C1803 C 0.03817 0.99152 0.72058 0.0
C1804 C 0.02921 0.97839 0.74433 0.0
C1805 C 0.0137 0.97143 0.72649 0.0
C1806 C 0.00708 0.97762 0.68497 0.0
C1807 C 0.01802 0.97066 0.42686 0.0
C1808 C 0.00897 0.9546 0.42657 0.0
C1809 C 0.01544 0.98271 0.46218 0.0
C1810 C 0.00381 0.97896 0.49804 0.0
C1811 C 0.99454 0.96305 0.49759 0.0
C1812 C 0.99698 0.95103 0.46194 0.0
C1813 C 0.00214 0.99134 0.53697 0.0
C1814 C 0.0072 0.98566 0.58065 0.0
C1815 C 0.9975 0.00911 0.53031 0.0
C1816 C 0.9912 0.01565 0.48542 0.0
C1817 C 0.97713 0.00736 0.46302 0.0
C1818 C 0.97135 0.01346 0.42057 0.0
C1819 C 0.97947 0.02791 0.40024 0.0
C1820 C 0.99336 0.03632 0.42237 0.0
C1821 C 0.99921 0.03026 0.46482 0.0
H1822 H 0.97498 0.03261 0.36736 0.0
H1823 H 0.03431 0.97358 0.7765 0.0
loop_
_geom_bond_atom_site_label_1
_geom_bond_atom_site_label_2
_geom_bond_distance
_geom_bond_site_symmetry_2
_ccdc_geom_bond_type
Mg0 O1 2.028 . S
Mg0 O7 1.986 . S
Mg0 O9 2.114 1_455 S
Mg0 O10 2.235 1_455 S
Mg0 O13 2.010 . S
O1 Mg0 2.028 . S
O1 C4 1.250 . S
O2 Mg3 2.028 . S
O2 C4 1.248 . S
Mg3 O2 2.028 . S
Mg3 O8 2.032 . S
Mg3 O10 2.058 1_455 S
C4 O1 1.250 . S
C4 O2 1.248 . S
C5 O6 1.264 . S
C5 O13 1.249 . S
O6 C5 1.264 . S
O7 Mg0 1.986 . S
O7 C11 1.246 . S
O8 Mg3 2.032 . S
O8 C11 1.259 . S
O9 Mg0 2.114 1_655 S
O9 C12 1.252 . S
O10 Mg0 2.235 1_655 S
O10 Mg3 2.058 1_655 S
O10 C12 1.307 . S
C11 O7 1.246 . S
C11 O8 1.259 . S
C12 O9 1.252 . S
C12 O10 1.307 . S
O13 Mg0 2.010 . S
O13 C5 1.249 . S
Mg14 O15 2.028 . S
Mg14 O21 1.986 . S
Mg14 O23 2.114 . S
Mg14 O24 2.251 . S
Mg14 O27 2.010 . S
O15 Mg14 2.028 . S
O15 C18 1.250 . S
O16 Mg17 2.028 . S
O16 C18 1.248 . S
Mg17 O16 2.028 . S
Mg17 O22 2.032 . S
Mg17 O24 2.079 . S
C18 O15 1.250 . S
C18 O16 1.248 . S
C19 O20 1.264 . S
C19 O27 1.249 . S
O20 C19 1.264 . S
O21 Mg14 1.986 . S
O21 C25 1.246 . S
O22 Mg17 2.032 . S
O22 C25 1.259 . S
O23 Mg14 2.114 . S
O23 C26 1.252 . S
O24 Mg14 2.251 . S
O24 Mg17 2.079 . S
O24 C26 1.273 . S
C25 O21 1.246 . S
C25 O22 1.259 . S
C26 O23 1.252 . S
C26 O24 1.273 . S
O27 Mg14 2.010 . S
O27 C19 1.249 . S
Mg28 O29 2.028 . S
Mg28 O35 1.986 . S
Mg28 O37 2.114 . S
Mg28 O38 2.251 . S
Mg28 O41 2.010 . S
O29 Mg28 2.028 . S
O29 C32 1.250 . S
O30 Mg31 2.028 . S
O30 C32 1.248 . S
Mg31 O30 2.028 . S
Mg31 O36 2.032 . S
Mg31 O38 2.079 . S
C32 O29 1.250 . S
C32 O30 1.248 . S
C33 O34 1.264 . S
C33 O41 1.249 . S
O34 C33 1.264 . S
O35 Mg28 1.986 . S
O35 C39 1.246 . S
O36 Mg31 2.032 . S
O36 C39 1.259 . S
O37 Mg28 2.114 . S
O37 C40 1.252 . S
O38 Mg28 2.251 . S
O38 Mg31 2.079 . S
O38 C40 1.273 . S
C39 O35 1.246 . S
C39 O36 1.259 . S
C40 O37 1.252 . S
C40 O38 1.273 . S
O41 Mg28 2.010 . S
O41 C33 1.249 . S
Mg42 O43 2.028 . S
Mg42 O49 1.986 . S
Mg42 O51 2.114 . S
Mg42 O52 2.251 1_554 S
Mg42 O55 2.010 . S
O43 Mg42 2.028 . S
O43 C46 1.250 1_554 S
O44 Mg45 2.028 . S
O44 C46 1.248 . S
Mg45 O44 2.028 . S
Mg45 O50 2.032 . S
Mg45 O52 2.079 . S
C46 O43 1.250 1_556 S
C46 O44 1.248 . S
C47 O48 1.264 . S
C47 O55 1.249 . S
O48 C47 1.264 . S
O49 Mg42 1.986 . S
O49 C53 1.246 . S
O50 Mg45 2.032 . S
O50 C53 1.259 1_556 S
O51 Mg42 2.114 . S
O51 C54 1.252 . S
O52 Mg42 2.251 1_556 S
O52 Mg45 2.079 . S
O52 C54 1.273 1_556 S
C53 O49 1.246 . S
C53 O50 1.259 1_554 S
C54 O51 1.252 . S
C54 O52 1.273 1_554 S
O55 Mg42 2.010 . S
O55 C47 1.249 . S
Mg56 O57 2.028 . S
Mg56 O63 1.986 . S
Mg56 O65 2.114 1_455 S
Mg56 O66 2.234 1_455 S
Mg56 O69 2.010 . S
O57 Mg56 2.028 . S
O57 C60 1.250 . S
O58 Mg59 2.028 . S
O58 C60 1.248 . S
Mg59 O58 2.028 . S
Mg59 O64 2.032 . S
Mg59 O66 2.057 1_455 S
C60 O57 1.250 . S
C60 O58 1.248 . S
C61 O62 1.264 . S
C61 O69 1.249 . S
O62 C61 1.264 . S
O63 Mg56 1.986 . S
O63 C67 1.246 . S
O64 Mg59 2.032 . S
O64 C67 1.259 . S
O65 Mg56 2.114 1_655 S
O65 C68 1.252 . S
O66 Mg56 2.234 1_655 S
O66 Mg59 2.057 1_655 S
O66 C68 1.309 . S
C67 O63 1.246 . S
C67 O64 1.259 . S
C68 O65 1.252 . S
C68 O66 1.309 . S
O69 Mg56 2.010 . S
O69 C61 1.249 . S
Mg70 O71 2.028 . S
Mg70 O77 1.986 . S
Mg70 O79 2.114 . S
Mg70 O80 2.251 . S
Mg70 O83 2.010 . S
O71 Mg70 2.028 . S
O71 C74 1.250 . S
O72 Mg73 2.028 . S
O72 C74 1.248 . S
Mg73 O72 2.028 . S
Mg73 O78 2.032 . S
Mg73 O80 2.079 . S
C74 O71 1.250 . S
C74 O72 1.248 . S
C75 O76 1.264 1_554 S
C75 O83 1.249 . S
O76 C75 1.264 1_556 S
O77 Mg70 1.986 . S
O77 C81 1.246 . S
O78 Mg73 2.032 . S
O78 C81 1.259 . S
O79 Mg70 2.114 . S
O79 C82 1.252 . S
O80 Mg70 2.251 . S
O80 Mg73 2.079 . S
O80 C82 1.273 . S
C81 O77 1.246 . S
C81 O78 1.259 . S
C82 O79 1.252 . S
C82 O80 1.273 . S
O83 Mg70 2.010 . S
O83 C75 1.249 . S
Mg84 O85 2.028 . S
Mg84 O91 1.986 . S
Mg84 O93 2.114 . S
Mg84 O94 2.251 . S
Mg84 O97 2.010 . S
O85 Mg84 2.028 . S
O85 C88 1.250 . S
O86 Mg87 2.028 . S
O86 C88 1.248 . S
Mg87 O86 2.028 . S
Mg87 O92 2.032 . S
Mg87 O94 2.079 . S
C88 O85 1.250 . S
C88 O86 1.248 . S
C89 O90 1.264 . S
C89 O97 1.249 . S
O90 C89 1.264 . S
O91 Mg84 1.986 . S
O91 C95 1.246 . S
O92 Mg87 2.032 . S
O92 C95 1.259 . S
O93 Mg84 2.114 . S
O93 C96 1.252 . S
O94 Mg84 2.251 . S
O94 Mg87 2.079 . S
O94 C96 1.273 . S
C95 O91 1.246 . S
C95 O92 1.259 . S
C96 O93 1.252 . S
C96 O94 1.273 . S
O97 Mg84 2.010 . S
O97 C89 1.249 . S
Mg98 O99 2.028 . S
Mg98 O105 1.986 . S
Mg98 O107 2.114 . S
Mg98 O108 2.251 . S
Mg98 O111 2.010 . S
O99 Mg98 2.028 . S
O99 C102 1.250 . S
O100 Mg101 2.028 . S
O100 C102 1.248 . S
Mg101 O100 2.028 . S
Mg101 O106 2.032 . S
Mg101 O108 2.079 . S
C102 O99 1.250 . S
C102 O100 1.248 . S
C103 O104 1.264 . S
C103 O111 1.249 . S
O104 C103 1.264 . S
O105 Mg98 1.986 . S
O105 C109 1.246 . S
O106 Mg101 2.032 . S
O106 C109 1.259 . S
O107 Mg98 2.114 . S
O107 C110 1.252 . S
O108 Mg98 2.251 . S
O108 Mg101 2.079 . S
O108 C110 1.273 . S
C109 O105 1.246 . S
C109 O106 1.259 . S
C110 O107 1.252 . S
C110 O108 1.273 . S
O111 Mg98 2.010 . S
O111 C103 1.249 . S
Mg112 O113 2.028 . S
Mg112 O119 1.986 . S
Mg112 O121 2.114 . S
Mg112 O122 2.251 . S
Mg112 O125 2.010 . S
O113 Mg112 2.028 . S
O113 C116 1.250 . S
O114 Mg115 2.028 . S
O114 C116 1.248 . S
Mg115 O114 2.028 . S
Mg115 O120 2.032 . S
Mg115 O122 2.079 . S
C116 O113 1.250 . S
C116 O114 1.248 . S
C117 O118 1.264 . S
C117 O125 1.249 . S
O118 C117 1.264 . S
O119 Mg112 1.986 . S
O119 C123 1.246 . S
O120 Mg115 2.032 . S
O120 C123 1.259 . S
O121 Mg112 2.114 . S
O121 C124 1.252 . S
O122 Mg112 2.251 . S
O122 Mg115 2.079 . S
O122 C124 1.273 . S
C123 O119 1.246 . S
C123 O120 1.259 . S
C124 O121 1.252 . S
C124 O122 1.273 . S
O125 Mg112 2.010 . S
O125 C117 1.249 . S
Mg126 O127 2.028 . S
Mg126 O133 1.986 . S
Mg126 O135 2.114 . S
Mg126 O136 2.251 . S
Mg126 O139 2.010 . S
O127 Mg126 2.028 . S
O127 C130 1.250 . S
O128 Mg129 2.028 . S
O128 C130 1.248 . S
Mg129 O128 2.028 . S
Mg129 O134 2.032 . S
Mg129 O136 2.079 . S
C130 O127 1.250 . S
C130 O128 1.248 . S
C131 O132 1.264 1_554 S
C131 O139 1.249 . S
O132 C131 1.264 1_556 S
O133 Mg126 1.986 . S
O133 C137 1.246 . S
O134 Mg129 2.032 . S
O134 C137 1.259 . S
O135 Mg126 2.114 . S
O135 C138 1.252 . S
O136 Mg126 2.251 . S
O136 Mg129 2.079 . S
O136 C138 1.273 . S
C137 O133 1.246 . S
C137 O134 1.259 . S
C138 O135 1.252 . S
C138 O136 1.273 . S
O139 Mg126 2.010 . S
O139 C131 1.249 . S
Mg140 O141 2.028 . S
Mg140 O147 1.986 . S
Mg140 O149 2.114 . S
Mg140 O150 2.251 1_554 S
Mg140 O153 2.010 . S
O141 Mg140 2.028 . S
O141 C144 1.250 1_554 S
O142 Mg143 2.028 . S
O142 C144 1.248 . S
Mg143 O142 2.028 . S
Mg143 O148 2.032 . S
Mg143 O150 2.079 . S
C144 O141 1.250 1_556 S
C144 O142 1.248 . S
C145 O146 1.264 . S
C145 O153 1.249 . S
O146 C145 1.264 . S
O147 Mg140 1.986 . S
O147 C151 1.246 . S
O148 Mg143 2.032 . S
O148 C151 1.259 1_556 S
O149 Mg140 2.114 . S
O149 C152 1.252 . S
O150 Mg140 2.251 1_556 S
O150 Mg143 2.079 . S
O150 C152 1.273 1_556 S
C151 O147 1.246 . S
C151 O148 1.259 1_554 S
C152 O149 1.252 . S
C152 O150 1.273 1_554 S
O153 Mg140 2.010 . S
O153 C145 1.249 . S
Mg154 O155 2.028 . S
Mg154 O161 1.986 . S
Mg154 O163 2.114 . S
Mg154 O164 2.251 . S
Mg154 O167 2.010 . S
O155 Mg154 2.028 . S
O155 C158 1.250 . S
O156 Mg157 2.028 . S
O156 C158 1.248 . S
Mg157 O156 2.028 . S
Mg157 O162 2.032 . S
Mg157 O164 2.079 . S
C158 O155 1.250 . S
C158 O156 1.248 . S
C159 O160 1.264 . S
C159 O167 1.249 . S
O160 C159 1.264 . S
O161 Mg154 1.986 . S
O161 C165 1.246 . S
O162 Mg157 2.032 . S
O162 C165 1.259 . S
O163 Mg154 2.114 . S
O163 C166 1.252 . S
O164 Mg154 2.251 . S
O164 Mg157 2.079 . S
O164 C166 1.273 . S
C165 O161 1.246 . S
C165 O162 1.259 . S
C166 O163 1.252 . S
C166 O164 1.273 . S
O167 Mg154 2.010 . S
O167 C159 1.249 . S
Mg168 O169 2.028 . S
Mg168 O175 1.986 . S
Mg168 O177 2.114 . S
Mg168 O178 2.251 . S
Mg168 O181 2.010 . S
O169 Mg168 2.028 . S
O169 C172 1.250 . S
O170 Mg171 2.028 . S
O170 C172 1.248 . S
Mg171 O170 2.028 . S
Mg171 O176 2.032 . S
Mg171 O178 2.079 . S
C172 O169 1.250 . S
C172 O170 1.248 . S
C173 O174 1.264 . S
C173 O181 1.249 . S
O174 C173 1.264 . S
O175 Mg168 1.986 . S
O175 C179 1.246 . S
O176 Mg171 2.032 . S
O176 C179 1.259 . S
O177 Mg168 2.114 . S
O177 C180 1.252 . S
O178 Mg168 2.251 . S
O178 Mg171 2.079 . S
O178 C180 1.273 . S
C179 O175 1.246 . S
C179 O176 1.259 . S
C180 O177 1.252 . S
C180 O178 1.273 . S
O181 Mg168 2.010 . S
O181 C173 1.249 . S
Mg182 O183 2.028 . S
Mg182 O189 1.986 1_455 S
Mg182 O191 2.114 . S
Mg182 O192 2.251 . S
Mg182 O195 2.010 . S
O183 Mg182 2.028 . S
O183 C186 1.250 . S
O184 Mg185 2.028 . S
O184 C186 1.248 . S
Mg185 O184 2.028 . S
Mg185 O190 2.032 1_455 S
Mg185 O192 2.079 . S
C186 O183 1.250 . S
C186 O184 1.248 . S
C187 O188 1.264 . S
C187 O195 1.249 . S
O188 C187 1.264 . S
O189 Mg182 1.986 1_655 S
O189 C193 1.246 . S
O190 Mg185 2.032 1_655 S
O190 C193 1.259 . S
O191 Mg182 2.114 . S
O191 C194 1.252 . S
O192 Mg182 2.251 . S
O192 Mg185 2.079 . S
O192 C194 1.273 . S
C193 O189 1.246 . S
C193 O190 1.259 . S
C194 O191 1.252 . S
C194 O192 1.273 . S
O195 Mg182 2.010 . S
O195 C187 1.249 . S
Mg196 O197 2.028 . S
Mg196 O203 1.986 . S
Mg196 O205 2.114 . S
Mg196 O206 2.251 . S
Mg196 O209 2.010 . S
O197 Mg196 2.028 . S
O197 C200 1.250 . S
O198 Mg199 2.028 . S
O198 C200 1.248 . S
Mg199 O198 2.028 . S
Mg199 O204 2.032 . S
Mg199 O206 2.079 . S
C200 O197 1.250 . S
C200 O198 1.248 . S
C201 O202 1.264 . S
C201 O209 1.249 . S
O202 C201 1.264 . S
O203 Mg196 1.986 . S
O203 C207 1.246 . S
O204 Mg199 2.032 . S
O204 C207 1.259 . S
O205 Mg196 2.114 . S
O205 C208 1.252 . S
O206 Mg196 2.251 . S
O206 Mg199 2.079 . S
O206 C208 1.273 . S
C207 O203 1.246 . S
C207 O204 1.259 . S
C208 O205 1.252 . S
C208 O206 1.273 . S
O209 Mg196 2.010 . S
O209 C201 1.249 . S
Mg210 O211 2.028 . S
Mg210 O217 1.986 1_455 S
Mg210 O219 2.114 . S
Mg210 O220 2.251 . S
Mg210 O223 2.010 . S
O211 Mg210 2.028 . S
O211 C214 1.250 . S
O212 Mg213 2.028 . S
O212 C214 1.248 . S
Mg213 O212 2.028 . S
Mg213 O218 2.032 1_455 S
Mg213 O220 2.079 . S
C214 O211 1.250 . S
C214 O212 1.248 . S
C215 O216 1.264 . S
C215 O223 1.249 . S
O216 C215 1.264 . S
O217 Mg210 1.986 1_655 S
O217 C221 1.246 . S
O218 Mg213 2.032 1_655 S
O218 C221 1.259 . S
O219 Mg210 2.114 . S
O219 C222 1.252 . S
O220 Mg210 2.251 . S
O220 Mg213 2.079 . S
O220 C222 1.273 . S
C221 O217 1.246 . S
C221 O218 1.259 . S
C222 O219 1.252 . S
C222 O220 1.273 . S
O223 Mg210 2.010 . S
O223 C215 1.249 . S
H224 C242 0.951 . S
H225 C244 0.951 . S
H226 C246 0.950 . S
H227 C247 0.950 . S
H228 C249 0.950 . S
H229 C252 0.950 . S
H230 C253 0.950 . S
H231 C255 0.950 . S
H232 C256 0.950 . S
H233 C257 0.951 . S
H234 C259 0.951 . S
H235 C261 0.950 . S
H236 C262 0.950 . S
H237 C264 0.950 . S
H238 C267 0.950 . S
H239 C268 0.950 . S
H240 C270 0.950 . S
H241 C271 0.950 . S
C242 H224 0.951 . S
C242 C243 1.366 . S
C242 C244 1.388 . S
C243 C242 1.366 . S
C243 C247 1.385 . S
C244 H225 0.951 . S
C244 C242 1.388 . S
C244 C245 1.366 . S
C245 C244 1.366 . S
C245 C246 1.414 . S
C245 C248 1.499 . S
C246 H226 0.950 . S
C246 C245 1.414 . S
C246 C247 1.374 . S
C247 H227 0.950 . S
C247 C243 1.385 . S
C247 C246 1.374 . S
C248 C245 1.499 . S
C248 C249 1.373 . S
C248 C250 1.389 . S
C249 H228 0.950 . S
C249 C248 1.373 . S
C249 C265 1.377 . S
C250 C248 1.389 . S
C250 C251 1.524 . S
C250 C264 1.377 . S
C251 C250 1.524 . S
C251 C252 1.397 . S
C251 C256 1.363 . S
C252 H229 0.950 . S
C252 C251 1.397 . S
C252 C253 1.334 . S
C253 H230 0.950 . S
C253 C252 1.334 . S
C253 C254 1.287 . S
C254 C253 1.287 . S
C254 C255 1.524 . S
C254 H273 0.913 . S
C255 H231 0.950 . S
C255 C254 1.524 . S
C255 C256 1.415 . S
C256 H232 0.950 . S
C256 C251 1.363 . S
C256 C255 1.415 . S
C257 H233 0.951 . S
C257 C258 1.366 . S
C257 C259 1.388 . S
C258 C257 1.366 . S
C258 C262 1.385 . S
C259 H234 0.951 . S
C259 C257 1.388 . S
C259 C260 1.366 . S
C260 C259 1.366 . S
C260 C261 1.414 . S
C260 C263 1.499 . S
C261 H235 0.950 . S
C261 C260 1.414 . S
C261 C262 1.374 . S
C262 H236 0.950 . S
C262 C258 1.385 . S
C262 C261 1.374 . S
C263 C260 1.499 . S
C263 C264 1.373 . S
C263 C265 1.389 . S
C264 H237 0.950 . S
C264 C250 1.377 . S
C264 C263 1.373 . S
C265 C249 1.377 . S
C265 C263 1.389 . S
C265 C266 1.524 . S
C266 C265 1.524 . S
C266 C267 1.397 . S
C266 C271 1.363 . S
C267 H238 0.950 . S
C267 C266 1.397 . S
C267 C268 1.334 . S
C268 H239 0.950 . S
C268 C267 1.334 . S
C268 C269 1.287 . S
C269 C268 1.287 . S
C269 C270 1.524 . S
C269 H272 0.999 . S
C270 H240 0.950 . S
C270 C269 1.524 . S
C270 C271 1.415 . S
C271 H241 0.950 . S
C271 C266 1.363 . S
C271 C270 1.415 . S
H272 C269 0.999 . S
H273 C254 0.913 . S
H274 C292 0.951 . S
H275 C294 0.951 . S
H276 C296 0.950 . S
H277 C297 0.950 . S
H278 C299 0.950 . S
H279 C302 0.950 . S
H280 C303 0.950 . S
H281 C305 0.950 . S
H282 C306 0.950 . S
H283 C307 0.951 . S
H284 C309 0.951 . S
H285 C311 0.950 . S
H286 C312 0.950 . S
H287 C314 0.950 . S
H288 C317 0.950 . S
H289 C318 0.950 . S
H290 C320 0.950 . S
H291 C321 0.950 . S
C292 H274 0.951 . S
C292 C293 1.366 . S
C292 C294 1.388 . S
C293 C292 1.366 . S
C293 C297 1.385 . S
C294 H275 0.951 . S
C294 C292 1.388 . S
C294 C295 1.366 . S
C295 C294 1.366 . S
C295 C296 1.414 . S
C295 C298 1.499 . S
C296 H276 0.950 . S
C296 C295 1.414 . S
C296 C297 1.374 . S
C297 H277 0.950 . S
C297 C293 1.385 . S
C297 C296 1.374 . S
C298 C295 1.499 . S
C298 C299 1.373 . S
C298 C300 1.389 . S
C299 H278 0.950 . S
C299 C298 1.373 . S
C299 C315 1.377 . S
C300 C298 1.389 . S
C300 C301 1.524 . S
C300 C314 1.377 . S
C301 C300 1.524 . S
C301 C302 1.397 . S
C301 C306 1.363 . S
C302 H279 0.950 . S
C302 C301 1.397 . S
C302 C303 1.334 . S
C303 H280 0.950 . S
C303 C302 1.334 . S
C303 C304 1.287 . S
C304 C303 1.287 . S
C304 C305 1.524 . S
C304 H323 0.913 . S
C305 H281 0.950 . S
C305 C304 1.524 . S
C305 C306 1.415 . S
C306 H282 0.950 . S
C306 C301 1.363 . S
C306 C305 1.415 . S
C307 H283 0.951 . S
C307 C308 1.366 . S
C307 C309 1.388 . S
C308 C307 1.366 . S
C308 C312 1.385 . S
C309 H284 0.951 . S
C309 C307 1.388 . S
C309 C310 1.366 . S
C310 C309 1.366 . S
C310 C311 1.414 . S
C310 C313 1.499 . S
C311 H285 0.950 . S
C311 C310 1.414 . S
C311 C312 1.374 . S
C312 H286 0.950 . S
C312 C308 1.385 . S
C312 C311 1.374 . S
C313 C310 1.499 . S
C313 C314 1.373 . S
C313 C315 1.389 . S
C314 H287 0.950 . S
C314 C300 1.377 . S
C314 C313 1.373 . S
C315 C299 1.377 . S
C315 C313 1.389 . S
C315 C316 1.524 . S
C316 C315 1.524 . S
C316 C317 1.397 . S
C316 C321 1.363 . S
C317 H288 0.950 . S
C317 C316 1.397 . S
C317 C318 1.334 . S
C318 H289 0.950 . S
C318 C317 1.334 . S
C318 C319 1.287 . S
C319 C318 1.287 . S
C319 C320 1.524 . S
C319 H322 0.999 . S
C320 H290 0.950 . S
C320 C319 1.524 . S
C320 C321 1.415 . S
C321 H291 0.950 . S
C321 C316 1.363 . S
C321 C320 1.415 . S
H322 C319 0.999 . S
H323 C304 0.913 . S
H324 C342 0.951 . S
H325 C344 0.951 . S
H326 C346 0.950 . S
H327 C347 0.950 . S
H328 C349 0.950 . S
H329 C352 0.950 . S
H330 C353 0.950 . S
H331 C355 0.950 . S
H332 C356 0.950 . S
H333 C357 0.951 . S
H334 C359 0.951 . S
H335 C361 0.950 . S
H336 C362 0.950 . S
H337 C364 0.950 . S
H338 C367 0.950 . S
H339 C368 0.950 . S
H340 C370 0.950 . S
H341 C371 0.950 . S
C342 H324 0.951 . S
C342 C343 1.366 . S
C342 C344 1.388 . S
C343 C342 1.366 . S
C343 C347 1.385 . S
C344 H325 0.951 . S
C344 C342 1.388 . S
C344 C345 1.366 . S
C345 C344 1.366 . S
C345 C346 1.414 . S
C345 C348 1.499 . S
C346 H326 0.950 . S
C346 C345 1.414 . S
C346 C347 1.374 . S
C347 H327 0.950 . S
C347 C343 1.385 . S
C347 C346 1.374 . S
C348 C345 1.499 . S
C348 C349 1.373 . S
C348 C350 1.389 . S
C349 H328 0.950 . S
C349 C348 1.373 . S
C349 C365 1.377 . S
C350 C348 1.389 . S
C350 C351 1.524 . S
C350 C364 1.377 . S
C351 C350 1.524 . S
C351 C352 1.397 . S
C351 C356 1.363 . S
C352 H329 0.950 . S
C352 C351 1.397 . S
C352 C353 1.334 . S
C353 H330 0.950 . S
C353 C352 1.334 . S
C353 C354 1.287 . S
C354 C353 1.287 . S
C354 C355 1.524 . S
C354 H373 0.913 . S
C355 H331 0.950 . S
C355 C354 1.524 . S
C355 C356 1.415 . S
C356 H332 0.950 . S
C356 C351 1.363 . S
C356 C355 1.415 . S
C357 H333 0.951 . S
C357 C358 1.366 . S
C357 C359 1.388 . S
C358 C357 1.366 . S
C358 C362 1.385 . S
C359 H334 0.951 . S
C359 C357 1.388 . S
C359 C360 1.366 . S
C360 C359 1.366 . S
C360 C361 1.414 . S
C360 C363 1.499 . S
C361 H335 0.950 . S
C361 C360 1.414 . S
C361 C362 1.374 . S
C362 H336 0.950 . S
C362 C358 1.385 . S
C362 C361 1.374 . S
C363 C360 1.499 . S
C363 C364 1.373 . S
C363 C365 1.389 . S
C364 H337 0.950 . S
C364 C350 1.377 . S
C364 C363 1.373 . S
C365 C349 1.377 . S
C365 C363 1.389 . S
C365 C366 1.524 . S
C366 C365 1.524 . S
C366 C367 1.397 . S
C366 C371 1.363 . S
C367 H338 0.950 . S
C367 C366 1.397 . S
C367 C368 1.334 . S
C368 H339 0.950 . S
C368 C367 1.334 . S
C368 C369 1.287 . S
C369 C368 1.287 . S
C369 C370 1.524 . S
C369 H372 0.999 . S
C370 H340 0.950 . S
C370 C369 1.524 . S
C370 C371 1.415 . S
C371 H341 0.950 . S
C371 C366 1.363 . S
C371 C370 1.415 . S
H372 C369 0.999 . S
H373 C354 0.913 . S
H374 C392 0.951 . S
H375 C394 0.951 . S
H376 C396 0.950 . S
H377 C397 0.950 . S
H378 C399 0.950 . S
H379 C402 0.949 1_556 S
H380 C403 0.950 . S
H381 C405 0.950 . S
H382 C406 0.950 . S
H383 C407 0.951 . S
H384 C409 0.951 . S
H385 C411 0.950 . S
H386 C412 0.950 . S
H387 C414 0.950 . S
H388 C417 0.950 . S
H389 C418 0.950 . S
H390 C420 0.950 . S
H391 C421 0.950 . S
C392 H374 0.951 . S
C392 C393 1.357 1_554 S
C392 C394 1.388 . S
C393 C392 1.357 1_556 S
C393 C397 1.397 . S
C394 H375 0.951 . S
C394 C392 1.388 . S
C394 C395 1.366 1_554 S
C395 C394 1.366 1_556 S
C395 C396 1.414 . S
C395 C398 1.499 . S
C396 H376 0.950 . S
C396 C395 1.414 . S
C396 C397 1.374 . S
C397 H377 0.950 . S
C397 C393 1.397 . S
C397 C396 1.374 . S
C398 C395 1.499 . S
C398 C399 1.373 . S
C398 C400 1.389 . S
C399 H378 0.950 . S
C399 C398 1.373 . S
C399 C415 1.377 . S
C400 C398 1.389 . S
C400 C401 1.524 1_556 S
C400 C414 1.377 . S
C401 C400 1.524 1_554 S
C401 C402 1.397 . S
C401 C406 1.363 . S
C402 H379 0.949 1_554 S
C402 C401 1.397 . S
C402 C403 1.334 . S
C403 H380 0.950 . S
C403 C402 1.334 . S
C403 C404 1.287 . S
C404 C403 1.287 . S
C404 C405 1.524 . S
C404 H423 0.913 . S
C405 H381 0.950 . S
C405 C404 1.524 . S
C405 C406 1.415 . S
C406 H382 0.950 . S
C406 C401 1.363 . S
C406 C405 1.415 . S
C407 H383 0.951 . S
C407 C408 1.366 . S
C407 C409 1.388 . S
C408 C407 1.366 . S
C408 C412 1.385 . S
C409 H384 0.951 . S
C409 C407 1.388 . S
C409 C410 1.366 . S
C410 C409 1.366 . S
C410 C411 1.414 . S
C410 C413 1.499 . S
C411 H385 0.950 . S
C411 C410 1.414 . S
C411 C412 1.374 . S
C412 H386 0.950 . S
C412 C408 1.385 . S
C412 C411 1.374 . S
C413 C410 1.499 . S
C413 C414 1.373 . S
C413 C415 1.389 . S
C414 H387 0.950 . S
C414 C400 1.377 . S
C414 C413 1.373 . S
C415 C399 1.377 . S
C415 C413 1.389 . S
C415 C416 1.524 . S
C416 C415 1.524 . S
C416 C417 1.397 . S
C416 C421 1.363 . S
C417 H388 0.950 . S
C417 C416 1.397 . S
C417 C418 1.334 . S
C418 H389 0.950 . S
C418 C417 1.334 . S
C418 C419 1.287 . S
C419 C418 1.287 . S
C419 C420 1.524 . S
C419 H422 0.999 . S
C420 H390 0.950 . S
C420 C419 1.524 . S
C420 C421 1.415 . S
C421 H391 0.950 . S
C421 C416 1.363 . S
C421 C420 1.415 . S
H422 C419 0.999 . S
H423 C404 0.913 . S
H424 C442 0.951 . S
H425 C444 0.951 . S
H426 C446 0.950 . S
H427 C447 0.950 . S
H428 C449 0.950 . S
H429 C452 0.950 . S
H430 C453 0.950 . S
H431 C455 0.950 . S
H432 C456 0.950 . S
H433 C457 0.951 . S
H434 C459 0.951 . S
H435 C461 0.950 1_554 S
H436 C462 0.950 . S
H437 C464 0.950 . S
H438 C467 0.950 . S
H439 C468 0.950 . S
H440 C470 0.950 . S
H441 C471 0.950 . S
C442 H424 0.951 . S
C442 C443 1.366 . S
C442 C444 1.388 . S
C443 C442 1.366 . S
C443 C447 1.385 . S
C444 H425 0.951 . S
C444 C442 1.388 . S
C444 C445 1.366 . S
C445 C444 1.366 . S
C445 C446 1.414 . S
C445 C448 1.499 . S
C446 H426 0.950 . S
C446 C445 1.414 . S
C446 C447 1.374 . S
C447 H427 0.950 . S
C447 C443 1.385 . S
C447 C446 1.374 . S
C448 C445 1.499 . S
C448 C449 1.373 . S
C448 C450 1.389 . S
C449 H428 0.950 . S
C449 C448 1.373 . S
C449 C465 1.377 . S
C450 C448 1.389 . S
C450 C451 1.524 . S
C450 C464 1.377 . S
C451 C450 1.524 . S
C451 C452 1.397 . S
C451 C456 1.363 . S
C452 H429 0.950 . S
C452 C451 1.397 . S
C452 C453 1.334 . S
C453 H430 0.950 . S
C453 C452 1.334 . S
C453 C454 1.287 . S
C454 C453 1.287 . S
C454 C455 1.524 . S
C454 H473 0.913 . S
C455 H431 0.950 . S
C455 C454 1.524 . S
C455 C456 1.415 . S
C456 H432 0.950 . S
C456 C451 1.363 . S
C456 C455 1.415 . S
C457 H433 0.951 . S
C457 C458 1.372 . S
C457 C459 1.388 . S
C458 C457 1.372 . S
C458 C462 1.382 1_556 S
C459 H434 0.951 . S
C459 C457 1.388 . S
C459 C460 1.366 . S
C460 C459 1.366 . S
C460 C461 1.414 . S
C460 C463 1.499 . S
C461 H435 0.950 1_556 S
C461 C460 1.414 . S
C461 C462 1.374 1_556 S
C462 H436 0.950 . S
C462 C458 1.382 1_554 S
C462 C461 1.374 1_554 S
C463 C460 1.499 . S
C463 C464 1.373 . S
C463 C465 1.389 . S
C464 H437 0.950 . S
C464 C450 1.377 . S
C464 C463 1.373 . S
C465 C449 1.377 . S
C465 C463 1.389 . S
C465 C466 1.524 1_556 S
C466 C465 1.524 1_554 S
C466 C467 1.397 . S
C466 C471 1.363 1_554 S
C467 H438 0.950 . S
C467 C466 1.397 . S
C467 C468 1.334 . S
C468 H439 0.950 . S
C468 C467 1.334 . S
C468 C469 1.287 . S
C469 C468 1.287 . S
C469 C470 1.524 . S
C469 H472 0.999 . S
C470 H440 0.950 . S
C470 C469 1.524 . S
C470 C471 1.415 1_554 S
C471 H441 0.950 . S
C471 C466 1.363 1_556 S
C471 C470 1.415 1_556 S
H472 C469 0.999 . S
H473 C454 0.913 . S
H474 C492 0.951 . S
H475 C494 0.951 . S
H476 C496 0.950 . S
H477 C497 0.950 . S
H478 C499 0.950 . S
H479 C502 0.950 . S
H480 C503 0.950 . S
H481 C505 0.950 . S
H482 C506 0.950 . S
H483 C507 0.951 . S
H484 C509 0.951 . S
H485 C511 0.950 . S
H486 C512 0.950 . S
H487 C514 0.950 . S
H488 C517 0.950 . S
H489 C518 0.950 . S
H490 C520 0.950 . S
H491 C521 0.950 . S
C492 H474 0.951 . S
C492 C493 1.366 . S
C492 C494 1.388 . S
C493 C492 1.366 . S
C493 C497 1.385 . S
C494 H475 0.951 . S
C494 C492 1.388 . S
C494 C495 1.366 . S
C495 C494 1.366 . S
C495 C496 1.414 . S
C495 C498 1.499 . S
C496 H476 0.950 . S
C496 C495 1.414 . S
C496 C497 1.374 . S
C497 H477 0.950 . S
C497 C493 1.385 . S
C497 C496 1.374 . S
C498 C495 1.499 . S
C498 C499 1.373 . S
C498 C500 1.389 . S
C499 H478 0.950 . S
C499 C498 1.373 . S
C499 C515 1.377 . S
C500 C498 1.389 . S
C500 C501 1.524 . S
C500 C514 1.377 . S
C501 C500 1.524 . S
C501 C502 1.397 . S
C501 C506 1.363 . S
C502 H479 0.950 . S
C502 C501 1.397 . S
C502 C503 1.334 . S
C503 H480 0.950 . S
C503 C502 1.334 . S
C503 C504 1.287 . S
C504 C503 1.287 . S
C504 C505 1.524 . S
C504 H523 0.913 . S
C505 H481 0.950 . S
C505 C504 1.524 . S
C505 C506 1.415 . S
C506 H482 0.950 . S
C506 C501 1.363 . S
C506 C505 1.415 . S
C507 H483 0.951 . S
C507 C508 1.366 . S
C507 C509 1.388 . S
C508 C507 1.366 . S
C508 C512 1.385 . S
C509 H484 0.951 . S
C509 C507 1.388 . S
C509 C510 1.366 . S
C510 C509 1.366 . S
C510 C511 1.414 . S
C510 C513 1.499 . S
C511 H485 0.950 . S
C511 C510 1.414 . S
C511 C512 1.374 . S
C512 H486 0.950 . S
C512 C508 1.385 . S
C512 C511 1.374 . S
C513 C510 1.499 . S
C513 C514 1.373 . S
C513 C515 1.389 . S
C514 H487 0.950 . S
C514 C500 1.377 . S
C514 C513 1.373 . S
C515 C499 1.377 . S
C515 C513 1.389 . S
C515 C516 1.524 . S
C516 C515 1.524 . S
C516 C517 1.397 . S
C516 C521 1.363 . S
C517 H488 0.950 . S
C517 C516 1.397 . S
C517 C518 1.334 . S
C518 H489 0.950 . S
C518 C517 1.334 . S
C518 C519 1.287 . S
C519 C518 1.287 . S
C519 C520 1.524 . S
C519 H522 0.999 . S
C520 H490 0.950 . S
C520 C519 1.524 . S
C520 C521 1.415 . S
C521 H491 0.950 . S
C521 C516 1.363 . S
C521 C520 1.415 . S
H522 C519 0.999 . S
H523 C504 0.913 . S
H524 C542 0.951 . S
H525 C544 0.951 . S
H526 C546 0.950 . S
H527 C547 0.950 . S
H528 C549 0.950 . S
H529 C552 0.950 . S
H530 C553 0.950 . S
H531 C555 0.950 . S
H532 C556 0.950 . S
H533 C557 0.951 . S
H534 C559 0.951 . S
H535 C561 0.950 . S
H536 C562 0.950 . S
H537 C564 0.950 . S
H538 C567 0.950 . S
H539 C568 0.950 . S
H540 C570 0.950 . S
H541 C571 0.950 . S
C542 H524 0.951 . S
C542 C543 1.366 . S
C542 C544 1.388 . S
C543 C542 1.366 . S
C543 C547 1.385 . S
C544 H525 0.951 . S
C544 C542 1.388 . S
C544 C545 1.366 . S
C545 C544 1.366 . S
C545 C546 1.414 . S
C545 C548 1.499 . S
C546 H526 0.950 . S
C546 C545 1.414 . S
C546 C547 1.374 . S
C547 H527 0.950 . S
C547 C543 1.385 . S
C547 C546 1.374 . S
C548 C545 1.499 . S
C548 C549 1.373 . S
C548 C550 1.389 . S
C549 H528 0.950 . S
C549 C548 1.373 . S
C549 C565 1.377 . S
C550 C548 1.389 . S
C550 C551 1.524 . S
C550 C564 1.377 . S
C551 C550 1.524 . S
C551 C552 1.397 . S
C551 C556 1.363 . S
C552 H529 0.950 . S
C552 C551 1.397 . S
C552 C553 1.334 . S
C553 H530 0.950 . S
C553 C552 1.334 . S
C553 C554 1.287 . S
C554 C553 1.287 . S
C554 C555 1.524 . S
C554 H573 0.913 . S
C555 H531 0.950 . S
C555 C554 1.524 . S
C555 C556 1.415 . S
C556 H532 0.950 . S
C556 C551 1.363 . S
C556 C555 1.415 . S
C557 H533 0.951 . S
C557 C558 1.366 . S
C557 C559 1.388 . S
C558 C557 1.366 . S
C558 C562 1.385 . S
C559 H534 0.951 . S
C559 C557 1.388 . S
C559 C560 1.366 . S
C560 C559 1.366 . S
C560 C561 1.414 . S
C560 C563 1.499 . S
C561 H535 0.950 . S
C561 C560 1.414 . S
C561 C562 1.374 . S
C562 H536 0.950 . S
C562 C558 1.385 . S
C562 C561 1.374 . S
C563 C560 1.499 . S
C563 C564 1.373 . S
C563 C565 1.389 . S
C564 H537 0.950 . S
C564 C550 1.377 . S
C564 C563 1.373 . S
C565 C549 1.377 . S
C565 C563 1.389 . S
C565 C566 1.524 . S
C566 C565 1.524 . S
C566 C567 1.397 . S
C566 C571 1.363 . S
C567 H538 0.950 . S
C567 C566 1.397 . S
C567 C568 1.334 . S
C568 H539 0.950 . S
C568 C567 1.334 . S
C568 C569 1.287 . S
C569 C568 1.287 . S
C569 C570 1.524 . S
C569 H572 0.999 . S
C570 H540 0.950 . S
C570 C569 1.524 . S
C570 C571 1.415 . S
C571 H541 0.950 . S
C571 C566 1.363 . S
C571 C570 1.415 . S
H572 C569 0.999 . S
H573 C554 0.913 . S
H574 C592 0.951 . S
H575 C594 0.951 . S
H576 C596 0.950 . S
H577 C597 0.950 . S
H578 C599 0.950 . S
H579 C602 0.950 . S
H580 C603 0.950 . S
H581 C605 0.950 . S
H582 C606 0.950 . S
H583 C607 0.951 . S
H584 C609 0.951 . S
H585 C611 0.950 . S
H586 C612 0.950 . S
H587 C614 0.950 . S
H588 C617 0.950 . S
H589 C618 0.950 . S
H590 C620 0.950 . S
H591 C621 0.950 . S
C592 H574 0.951 . S
C592 C593 1.366 . S
C592 C594 1.388 . S
C593 C592 1.366 . S
C593 C597 1.385 . S
C594 H575 0.951 . S
C594 C592 1.388 . S
C594 C595 1.366 . S
C595 C594 1.366 . S
C595 C596 1.414 . S
C595 C598 1.499 . S
C596 H576 0.950 . S
C596 C595 1.414 . S
C596 C597 1.374 . S
C597 H577 0.950 . S
C597 C593 1.385 . S
C597 C596 1.374 . S
C598 C595 1.499 . S
C598 C599 1.373 . S
C598 C600 1.389 . S
C599 H578 0.950 . S
C599 C598 1.373 . S
C599 C615 1.377 . S
C600 C598 1.389 . S
C600 C601 1.524 . S
C600 C614 1.377 . S
C601 C600 1.524 . S
C601 C602 1.397 . S
C601 C606 1.363 . S
C602 H579 0.950 . S
C602 C601 1.397 . S
C602 C603 1.334 . S
C603 H580 0.950 . S
C603 C602 1.334 . S
C603 C604 1.287 . S
C604 C603 1.287 . S
C604 C605 1.524 . S
C604 H623 0.913 . S
C605 H581 0.950 . S
C605 C604 1.524 . S
C605 C606 1.415 . S
C606 H582 0.950 . S
C606 C601 1.363 . S
C606 C605 1.415 . S
C607 H583 0.951 . S
C607 C608 1.366 . S
C607 C609 1.388 . S
C608 C607 1.366 . S
C608 C612 1.385 . S
C609 H584 0.951 . S
C609 C607 1.388 . S
C609 C610 1.366 . S
C610 C609 1.366 . S
C610 C611 1.414 . S
C610 C613 1.499 . S
C611 H585 0.950 . S
C611 C610 1.414 . S
C611 C612 1.374 . S
C612 H586 0.950 . S
C612 C608 1.385 . S
C612 C611 1.374 . S
C613 C610 1.499 . S
C613 C614 1.373 . S
C613 C615 1.389 . S
C614 H587 0.950 . S
C614 C600 1.377 . S
C614 C613 1.373 . S
C615 C599 1.377 . S
C615 C613 1.389 . S
C615 C616 1.524 . S
C616 C615 1.524 . S
C616 C617 1.397 . S
C616 C621 1.363 . S
C617 H588 0.950 . S
C617 C616 1.397 . S
C617 C618 1.334 . S
C618 H589 0.950 . S
C618 C617 1.334 . S
C618 C619 1.287 . S
C619 C618 1.287 . S
C619 C620 1.524 . S
C619 H622 0.999 . S
C620 H590 0.950 . S
C620 C619 1.524 . S
C620 C621 1.415 . S
C621 H591 0.950 . S
C621 C616 1.363 . S
C621 C620 1.415 . S
H622 C619 0.999 . S
H623 C604 0.913 . S
H624 C642 0.951 . S
H625 C644 0.951 . S
H626 C646 0.950 . S
H627 C647 0.950 . S
H628 C649 0.950 . S
H629 C652 0.950 . S
H630 C653 0.950 . S
H631 C655 0.950 . S
H632 C656 0.950 . S
H633 C657 0.951 . S
H634 C659 0.951 . S
H635 C661 0.950 . S
H636 C662 0.950 . S
H637 C664 0.950 1_554 S
H638 C667 0.950 . S
H639 C668 0.950 . S
H640 C670 0.950 . S
H641 C671 0.950 . S
C642 H624 0.951 . S
C642 C643 1.366 . S
C642 C644 1.388 . S
C643 C642 1.366 . S
C643 C647 1.385 . S
C644 H625 0.951 . S
C644 C642 1.388 . S
C644 C645 1.366 . S
C645 C644 1.366 . S
C645 C646 1.414 . S
C645 C648 1.499 . S
C646 H626 0.950 . S
C646 C645 1.414 . S
C646 C647 1.374 . S
C647 H627 0.950 . S
C647 C643 1.385 . S
C647 C646 1.374 . S
C648 C645 1.499 . S
C648 C649 1.373 . S
C648 C650 1.389 . S
C649 H628 0.950 . S
C649 C648 1.373 . S
C649 C665 1.377 . S
C650 C648 1.389 . S
C650 C651 1.524 1_556 S
C650 C664 1.377 . S
C651 C650 1.524 1_554 S
C651 C652 1.397 1_554 S
C651 C656 1.363 . S
C652 H629 0.950 . S
C652 C651 1.397 1_556 S
C652 C653 1.334 1_556 S
C653 H630 0.950 . S
C653 C652 1.334 1_554 S
C653 C654 1.287 . S
C654 C653 1.287 . S
C654 C655 1.524 . S
C654 H673 0.913 . S
C655 H631 0.950 . S
C655 C654 1.524 . S
C655 C656 1.415 . S
C656 H632 0.950 . S
C656 C651 1.363 . S
C656 C655 1.415 . S
C657 H633 0.951 . S
C657 C658 1.366 . S
C657 C659 1.388 . S
C658 C657 1.366 . S
C658 C662 1.385 1_556 S
C659 H634 0.951 . S
C659 C657 1.388 . S
C659 C660 1.366 . S
C660 C659 1.366 . S
C660 C661 1.414 1_556 S
C660 C663 1.499 . S
C661 H635 0.950 . S
C661 C660 1.414 1_554 S
C661 C662 1.374 . S
C662 H636 0.950 . S
C662 C658 1.385 1_554 S
C662 C661 1.374 . S
C663 C660 1.499 . S
C663 C664 1.373 . S
C663 C665 1.389 . S
C664 H637 0.950 1_556 S
C664 C650 1.377 . S
C664 C663 1.373 . S
C665 C649 1.377 . S
C665 C663 1.389 . S
C665 C666 1.524 . S
C666 C665 1.524 . S
C666 C667 1.397 . S
C666 C671 1.363 . S
C667 H638 0.950 . S
C667 C666 1.397 . S
C667 C668 1.334 . S
C668 H639 0.950 . S
C668 C667 1.334 . S
C668 C669 1.287 . S
C669 C668 1.287 . S
C669 C670 1.524 . S
C669 H672 0.999 . S
C670 H640 0.950 . S
C670 C669 1.524 . S
C670 C671 1.415 . S
C671 H641 0.950 . S
C671 C666 1.363 . S
C671 C670 1.415 . S
H672 C669 0.999 . S
H673 C654 0.913 . S
H674 C692 0.951 . S
H675 C694 0.951 . S
H676 C696 0.950 . S
H677 C697 0.950 . S
H678 C699 0.950 . S
H679 C702 0.950 . S
H680 C703 0.950 . S
H681 C705 0.950 . S
H682 C706 0.950 . S
H683 C707 0.951 . S
H684 C709 0.951 . S
H685 C711 0.950 . S
H686 C712 0.950 . S
H687 C714 0.950 . S
H688 C717 0.950 . S
H689 C718 0.950 . S
H690 C720 0.950 . S
H691 C721 0.950 . S
C692 H674 0.951 . S
C692 C693 1.366 . S
C692 C694 1.388 . S
C693 C692 1.366 . S
C693 C697 1.385 . S
C694 H675 0.951 . S
C694 C692 1.388 . S
C694 C695 1.366 . S
C695 C694 1.366 . S
C695 C696 1.414 . S
C695 C698 1.499 . S
C696 H676 0.950 . S
C696 C695 1.414 . S
C696 C697 1.374 . S
C697 H677 0.950 . S
C697 C693 1.385 . S
C697 C696 1.374 . S
C698 C695 1.499 . S
C698 C699 1.373 . S
C698 C700 1.389 . S
C699 H678 0.950 . S
C699 C698 1.373 . S
C699 C715 1.377 . S
C700 C698 1.389 . S
C700 C701 1.524 . S
C700 C714 1.377 . S
C701 C700 1.524 . S
C701 C702 1.397 . S
C701 C706 1.363 . S
C702 H679 0.950 . S
C702 C701 1.397 . S
C702 C703 1.334 . S
C703 H680 0.950 . S
C703 C702 1.334 . S
C703 C704 1.287 . S
C704 C703 1.287 . S
C704 C705 1.524 . S
C704 H723 0.913 . S
C705 H681 0.950 . S
C705 C704 1.524 . S
C705 C706 1.415 . S
C706 H682 0.950 . S
C706 C701 1.363 . S
C706 C705 1.415 . S
C707 H683 0.951 . S
C707 C708 1.366 . S
C707 C709 1.388 . S
C708 C707 1.366 . S
C708 C712 1.385 . S
C709 H684 0.951 . S
C709 C707 1.388 . S
C709 C710 1.366 . S
C710 C709 1.366 . S
C710 C711 1.414 . S
C710 C713 1.499 . S
C711 H685 0.950 . S
C711 C710 1.414 . S
C711 C712 1.374 . S
C712 H686 0.950 . S
C712 C708 1.385 . S
C712 C711 1.374 . S
C713 C710 1.499 . S
C713 C714 1.373 . S
C713 C715 1.389 . S
C714 H687 0.950 . S
C714 C700 1.377 . S
C714 C713 1.373 . S
C715 C699 1.377 . S
C715 C713 1.389 . S
C715 C716 1.524 . S
C716 C715 1.524 . S
C716 C717 1.397 . S
C716 C721 1.363 . S
C717 H688 0.950 . S
C717 C716 1.397 . S
C717 C718 1.334 . S
C718 H689 0.950 . S
C718 C717 1.334 . S
C718 C719 1.287 . S
C719 C718 1.287 . S
C719 C720 1.524 . S
C719 H722 0.999 . S
C720 H690 0.950 . S
C720 C719 1.524 . S
C720 C721 1.415 . S
C721 H691 0.950 . S
C721 C716 1.363 . S
C721 C720 1.415 . S
H722 C719 0.999 . S
H723 C704 0.913 . S
H724 C742 0.951 . S
H725 C744 0.951 . S
H726 C746 0.950 . S
H727 C747 0.950 . S
H728 C749 0.950 . S
H729 C752 0.950 . S
H730 C753 0.950 . S
H731 C755 0.950 . S
H732 C756 0.950 . S
H733 C757 0.951 . S
H734 C759 0.951 . S
H735 C761 0.950 . S
H736 C762 0.950 . S
H737 C764 0.950 . S
H738 C767 0.950 . S
H739 C768 0.950 . S
H740 C770 0.950 . S
H741 C771 0.950 . S
C742 H724 0.951 . S
C742 C743 1.366 . S
C742 C744 1.388 . S
C743 C742 1.366 . S
C743 C747 1.385 . S
C744 H725 0.951 . S
C744 C742 1.388 . S
C744 C745 1.366 . S
C745 C744 1.366 . S
C745 C746 1.414 . S
C745 C748 1.499 . S
C746 H726 0.950 . S
C746 C745 1.414 . S
C746 C747 1.374 . S
C747 H727 0.950 . S
C747 C743 1.385 . S
C747 C746 1.374 . S
C748 C745 1.499 . S
C748 C749 1.373 . S
C748 C750 1.389 . S
C749 H728 0.950 . S
C749 C748 1.373 . S
C749 C765 1.377 . S
C750 C748 1.389 . S
C750 C751 1.524 . S
C750 C764 1.377 . S
C751 C750 1.524 . S
C751 C752 1.397 . S
C751 C756 1.363 . S
C752 H729 0.950 . S
C752 C751 1.397 . S
C752 C753 1.334 . S
C753 H730 0.950 . S
C753 C752 1.334 . S
C753 C754 1.287 . S
C754 C753 1.287 . S
C754 C755 1.524 . S
C754 H773 0.913 . S
C755 H731 0.950 . S
C755 C754 1.524 . S
C755 C756 1.415 . S
C756 H732 0.950 . S
C756 C751 1.363 . S
C756 C755 1.415 . S
C757 H733 0.951 . S
C757 C758 1.366 . S
C757 C759 1.388 . S
C758 C757 1.366 . S
C758 C762 1.385 . S
C759 H734 0.951 . S
C759 C757 1.388 . S
C759 C760 1.366 . S
C760 C759 1.366 . S
C760 C761 1.414 . S
C760 C763 1.499 . S
C761 H735 0.950 . S
C761 C760 1.414 . S
C761 C762 1.374 . S
C762 H736 0.950 . S
C762 C758 1.385 . S
C762 C761 1.374 . S
C763 C760 1.499 . S
C763 C764 1.373 . S
C763 C765 1.389 . S
C764 H737 0.950 . S
C764 C750 1.377 . S
C764 C763 1.373 . S
C765 C749 1.377 . S
C765 C763 1.389 . S
C765 C766 1.524 . S
C766 C765 1.524 . S
C766 C767 1.397 . S
C766 C771 1.363 . S
C767 H738 0.950 . S
C767 C766 1.397 . S
C767 C768 1.334 . S
C768 H739 0.950 . S
C768 C767 1.334 . S
C768 C769 1.287 . S
C769 C768 1.287 . S
C769 C770 1.524 . S
C769 H772 0.999 . S
C770 H740 0.950 . S
C770 C769 1.524 . S
C770 C771 1.415 . S
C771 H741 0.950 . S
C771 C766 1.363 . S
C771 C770 1.415 . S
H772 C769 0.999 . S
H773 C754 0.913 . S
H774 C792 0.951 . S
H775 C794 0.951 . S
H776 C796 0.950 . S
H777 C797 0.950 . S
H778 C799 0.950 . S
H779 C802 0.950 . S
H780 C803 0.950 . S
H781 C805 0.950 . S
H782 C806 0.950 . S
H783 C807 0.951 . S
H784 C809 0.951 . S
H785 C811 0.950 . S
H786 C812 0.950 . S
H787 C814 0.950 . S
H788 C817 0.950 . S
H789 C818 0.950 . S
H790 C820 0.950 . S
H791 C821 0.950 . S
C792 H774 0.951 . S
C792 C793 1.366 . S
C792 C794 1.388 . S
C793 C792 1.366 . S
C793 C797 1.385 . S
C794 H775 0.951 . S
C794 C792 1.388 . S
C794 C795 1.366 . S
C795 C794 1.366 . S
C795 C796 1.414 . S
C795 C798 1.499 . S
C796 H776 0.950 . S
C796 C795 1.414 . S
C796 C797 1.374 . S
C797 H777 0.950 . S
C797 C793 1.385 . S
C797 C796 1.374 . S
C798 C795 1.499 . S
C798 C799 1.373 . S
C798 C800 1.389 . S
C799 H778 0.950 . S
C799 C798 1.373 . S
C799 C815 1.377 . S
C800 C798 1.389 . S
C800 C801 1.524 . S
C800 C814 1.377 . S
C801 C800 1.524 . S
C801 C802 1.397 . S
C801 C806 1.363 . S
C802 H779 0.950 . S
C802 C801 1.397 . S
C802 C803 1.334 . S
C803 H780 0.950 . S
C803 C802 1.334 . S
C803 C804 1.287 . S
C804 C803 1.287 . S
C804 C805 1.524 . S
C804 H823 0.913 . S
C805 H781 0.950 . S
C805 C804 1.524 . S
C805 C806 1.415 . S
C806 H782 0.950 . S
C806 C801 1.363 . S
C806 C805 1.415 . S
C807 H783 0.951 . S
C807 C808 1.366 . S
C807 C809 1.388 . S
C808 C807 1.366 . S
C808 C812 1.385 . S
C809 H784 0.951 . S
C809 C807 1.388 . S
C809 C810 1.366 . S
C810 C809 1.366 . S
C810 C811 1.414 . S
C810 C813 1.499 . S
C811 H785 0.950 . S
C811 C810 1.414 . S
C811 C812 1.374 . S
C812 H786 0.950 . S
C812 C808 1.385 . S
C812 C811 1.374 . S
C813 C810 1.499 . S
C813 C814 1.373 . S
C813 C815 1.389 . S
C814 H787 0.950 . S
C814 C800 1.377 . S
C814 C813 1.373 . S
C815 C799 1.377 . S
C815 C813 1.389 . S
C815 C816 1.524 . S
C816 C815 1.524 . S
C816 C817 1.397 . S
C816 C821 1.363 . S
C817 H788 0.950 . S
C817 C816 1.397 . S
C817 C818 1.334 . S
C818 H789 0.950 . S
C818 C817 1.334 . S
C818 C819 1.287 . S
C819 C818 1.287 . S
C819 C820 1.524 . S
C819 H822 0.999 . S
C820 H790 0.950 . S
C820 C819 1.524 . S
C820 C821 1.415 . S
C821 H791 0.950 . S
C821 C816 1.363 . S
C821 C820 1.415 . S
H822 C819 0.999 . S
H823 C804 0.913 . S
H824 C842 0.951 . S
H825 C844 0.951 . S
H826 C846 0.950 . S
H827 C847 0.950 . S
H828 C849 0.950 . S
H829 C852 0.950 . S
H830 C853 0.950 . S
H831 C855 0.950 . S
H832 C856 0.950 . S
H833 C857 0.951 . S
H834 C859 0.951 . S
H835 C861 0.950 . S
H836 C862 0.950 . S
H837 C864 0.950 . S
H838 C867 0.950 . S
H839 C868 0.950 . S
H840 C870 0.950 . S
H841 C871 0.950 . S
C842 H824 0.951 . S
C842 C843 1.366 . S
C842 C844 1.388 . S
C843 C842 1.366 . S
C843 C847 1.385 . S
C844 H825 0.951 . S
C844 C842 1.388 . S
C844 C845 1.366 . S
C845 C844 1.366 . S
C845 C846 1.414 . S
C845 C848 1.499 . S
C846 H826 0.950 . S
C846 C845 1.414 . S
C846 C847 1.374 . S
C847 H827 0.950 . S
C847 C843 1.385 . S
C847 C846 1.374 . S
C848 C845 1.499 . S
C848 C849 1.373 . S
C848 C850 1.389 . S
C849 H828 0.950 . S
C849 C848 1.373 . S
C849 C865 1.377 . S
C850 C848 1.389 . S
C850 C851 1.524 . S
C850 C864 1.377 . S
C851 C850 1.524 . S
C851 C852 1.397 . S
C851 C856 1.363 . S
C852 H829 0.950 . S
C852 C851 1.397 . S
C852 C853 1.334 . S
C853 H830 0.950 . S
C853 C852 1.334 . S
C853 C854 1.287 . S
C854 C853 1.287 . S
C854 C855 1.524 . S
C854 H873 0.913 . S
C855 H831 0.950 . S
C855 C854 1.524 . S
C855 C856 1.415 . S
C856 H832 0.950 . S
C856 C851 1.363 . S
C856 C855 1.415 . S
C857 H833 0.951 . S
C857 C858 1.366 . S
C857 C859 1.388 . S
C858 C857 1.366 . S
C858 C862 1.385 . S
C859 H834 0.951 . S
C859 C857 1.388 . S
C859 C860 1.366 . S
C860 C859 1.366 . S
C860 C861 1.414 . S
C860 C863 1.499 . S
C861 H835 0.950 . S
C861 C860 1.414 . S
C861 C862 1.374 . S
C862 H836 0.950 . S
C862 C858 1.385 . S
C862 C861 1.374 . S
C863 C860 1.499 . S
C863 C864 1.373 . S
C863 C865 1.389 . S
C864 H837 0.950 . S
C864 C850 1.377 . S
C864 C863 1.373 . S
C865 C849 1.377 . S
C865 C863 1.389 . S
C865 C866 1.524 . S
C866 C865 1.524 . S
C866 C867 1.397 . S
C866 C871 1.363 . S
C867 H838 0.950 . S
C867 C866 1.397 . S
C867 C868 1.334 . S
C868 H839 0.950 . S
C868 C867 1.334 . S
C868 C869 1.287 . S
C869 C868 1.287 . S
C869 C870 1.524 . S
C869 H872 0.999 . S
C870 H840 0.950 . S
C870 C869 1.524 . S
C870 C871 1.415 . S
C871 H841 0.950 . S
C871 C866 1.363 . S
C871 C870 1.415 . S
H872 C869 0.999 . S
H873 C854 0.913 . S
H874 C892 0.951 . S
H875 C894 0.951 . S
H876 C896 0.950 . S
H877 C897 0.950 . S
H878 C899 0.950 . S
H879 C902 0.950 . S
H880 C903 0.950 1_556 S
H881 C905 0.950 . S
H882 C906 0.950 . S
H883 C907 0.951 . S
H884 C909 0.951 . S
H885 C911 0.950 . S
H886 C912 0.950 . S
H887 C914 0.950 1_554 S
H888 C917 0.950 . S
H889 C918 0.950 . S
H890 C920 0.950 . S
H891 C921 0.950 . S
C892 H874 0.951 . S
C892 C893 1.366 . S
C892 C894 1.388 . S
C893 C892 1.366 . S
C893 C897 1.385 . S
C894 H875 0.951 . S
C894 C892 1.388 . S
C894 C895 1.366 . S
C895 C894 1.366 . S
C895 C896 1.414 . S
C895 C898 1.499 . S
C896 H876 0.950 . S
C896 C895 1.414 . S
C896 C897 1.374 . S
C897 H877 0.950 . S
C897 C893 1.385 . S
C897 C896 1.374 . S
C898 C895 1.499 . S
C898 C899 1.373 . S
C898 C900 1.389 . S
C899 H878 0.950 . S
C899 C898 1.373 . S
C899 C915 1.377 . S
C900 C898 1.389 . S
C900 C901 1.524 1_556 S
C900 C914 1.377 . S
C901 C900 1.524 1_554 S
C901 C902 1.397 1_554 S
C901 C906 1.363 . S
C902 H879 0.950 . S
C902 C901 1.397 1_556 S
C902 C903 1.334 1_556 S
C903 H880 0.950 1_554 S
C903 C902 1.334 1_554 S
C903 C904 1.287 . S
C904 C903 1.287 . S
C904 C905 1.524 . S
C904 H923 0.913 . S
C905 H881 0.950 . S
C905 C904 1.524 . S
C905 C906 1.415 . S
C906 H882 0.950 . S
C906 C901 1.363 . S
C906 C905 1.415 . S
C907 H883 0.951 . S
C907 C908 1.366 . S
C907 C909 1.388 . S
C908 C907 1.366 . S
C908 C912 1.385 1_556 S
C909 H884 0.951 . S
C909 C907 1.388 . S
C909 C910 1.366 . S
C910 C909 1.366 . S
C910 C911 1.414 1_556 S
C910 C913 1.499 . S
C911 H885 0.950 . S
C911 C910 1.414 1_554 S
C911 C912 1.374 . S
C912 H886 0.950 . S
C912 C908 1.385 1_554 S
C912 C911 1.374 . S
C913 C910 1.499 . S
C913 C914 1.373 . S
C913 C915 1.389 . S
C914 H887 0.950 1_556 S
C914 C900 1.377 . S
C914 C913 1.373 . S
C915 C899 1.377 . S
C915 C913 1.389 . S
C915 C916 1.524 . S
C916 C915 1.524 . S
C916 C917 1.397 . S
C916 C921 1.363 . S
C917 H888 0.950 . S
C917 C916 1.397 . S
C917 C918 1.334 . S
C918 H889 0.950 . S
C918 C917 1.334 . S
C918 C919 1.287 . S
C919 C918 1.287 . S
C919 C920 1.524 . S
C919 H922 0.999 . S
C920 H890 0.950 . S
C920 C919 1.524 . S
C920 C921 1.415 . S
C921 H891 0.950 . S
C921 C916 1.363 . S
C921 C920 1.415 . S
H922 C919 0.999 . S
H923 C904 0.913 . S
H924 C942 0.951 . S
H925 C944 0.951 . S
H926 C946 0.950 . S
H927 C947 0.950 . S
H928 C949 0.950 . S
H929 C952 0.950 . S
H930 C953 0.950 . S
H931 C955 0.950 . S
H932 C956 0.950 . S
H933 C957 0.951 . S
H934 C959 0.951 . S
H935 C961 0.950 . S
H936 C962 0.950 . S
H937 C964 0.950 . S
H938 C967 0.950 . S
H939 C968 0.950 . S
H940 C970 0.950 . S
H941 C971 0.950 . S
C942 H924 0.951 . S
C942 C943 1.366 . S
C942 C944 1.388 . S
C943 C942 1.366 . S
C943 C947 1.385 . S
C944 H925 0.951 . S
C944 C942 1.388 . S
C944 C945 1.366 . S
C945 C944 1.366 . S
C945 C946 1.414 . S
C945 C948 1.499 . S
C946 H926 0.950 . S
C946 C945 1.414 . S
C946 C947 1.374 . S
C947 H927 0.950 . S
C947 C943 1.385 . S
C947 C946 1.374 . S
C948 C945 1.499 . S
C948 C949 1.373 . S
C948 C950 1.389 . S
C949 H928 0.950 . S
C949 C948 1.373 . S
C949 C965 1.377 . S
C950 C948 1.389 . S
C950 C951 1.524 . S
C950 C964 1.377 . S
C951 C950 1.524 . S
C951 C952 1.397 . S
C951 C956 1.363 . S
C952 H929 0.950 . S
C952 C951 1.397 . S
C952 C953 1.334 . S
C953 H930 0.950 . S
C953 C952 1.334 . S
C953 C954 1.287 . S
C954 C953 1.287 . S
C954 C955 1.524 . S
C954 H973 0.913 . S
C955 H931 0.950 . S
C955 C954 1.524 . S
C955 C956 1.415 . S
C956 H932 0.950 . S
C956 C951 1.363 . S
C956 C955 1.415 . S
C957 H933 0.951 . S
C957 C958 1.366 . S
C957 C959 1.388 . S
C958 C957 1.366 . S
C958 C962 1.385 . S
C959 H934 0.951 . S
C959 C957 1.388 . S
C959 C960 1.366 . S
C960 C959 1.366 . S
C960 C961 1.414 . S
C960 C963 1.499 . S
C961 H935 0.950 . S
C961 C960 1.414 . S
C961 C962 1.374 . S
C962 H936 0.950 . S
C962 C958 1.385 . S
C962 C961 1.374 . S
C963 C960 1.499 . S
C963 C964 1.373 . S
C963 C965 1.389 . S
C964 H937 0.950 . S
C964 C950 1.377 . S
C964 C963 1.373 . S
C965 C949 1.377 . S
C965 C963 1.389 . S
C965 C966 1.524 . S
C966 C965 1.524 . S
C966 C967 1.397 . S
C966 C971 1.363 . S
C967 H938 0.950 . S
C967 C966 1.397 . S
C967 C968 1.334 . S
C968 H939 0.950 . S
C968 C967 1.334 . S
C968 C969 1.287 . S
C969 C968 1.287 . S
C969 C970 1.524 . S
C969 H972 0.999 . S
C970 H940 0.950 . S
C970 C969 1.524 . S
C970 C971 1.415 . S
C971 H941 0.950 . S
C971 C966 1.363 . S
C971 C970 1.415 . S
H972 C969 0.999 . S
H973 C954 0.913 . S
H974 C992 0.951 . S
H975 C994 0.951 . S
H976 C996 0.950 . S
H977 C997 0.950 . S
H978 C999 0.950 . S
H979 C1002 0.950 . S
H980 C1003 0.950 . S
H981 C1005 0.950 . S
H982 C1006 0.950 . S
H983 C1007 0.951 . S
H984 C1009 0.951 . S
H985 C1011 0.950 . S
H986 C1012 0.950 . S
H987 C1014 0.950 . S
H988 C1017 0.950 . S
H989 C1018 0.950 . S
H990 C1020 0.950 . S
H991 C1021 0.950 . S
C992 H974 0.951 . S
C992 C993 1.366 . S
C992 C994 1.388 . S
C993 C992 1.366 . S
C993 C997 1.385 . S
C994 H975 0.951 . S
C994 C992 1.388 . S
C994 C995 1.366 . S
C995 C994 1.366 . S
C995 C996 1.414 . S
C995 C998 1.499 . S
C996 H976 0.950 . S
C996 C995 1.414 . S
C996 C997 1.374 . S
C997 H977 0.950 . S
C997 C993 1.385 . S
C997 C996 1.374 . S
C998 C995 1.499 . S
C998 C999 1.373 . S
C998 C1000 1.389 . S
C999 H978 0.950 . S
C999 C998 1.373 . S
C999 C1015 1.377 . S
C1000 C998 1.389 . S
C1000 C1001 1.524 . S
C1000 C1014 1.377 . S
C1001 C1000 1.524 . S
C1001 C1002 1.397 . S
C1001 C1006 1.363 . S
C1002 H979 0.950 . S
C1002 C1001 1.397 . S
C1002 C1003 1.334 . S
C1003 H980 0.950 . S
C1003 C1002 1.334 . S
C1003 C1004 1.287 . S
C1004 C1003 1.287 . S
C1004 C1005 1.524 . S
C1004 H1023 0.913 . S
C1005 H981 0.950 . S
C1005 C1004 1.524 . S
C1005 C1006 1.415 . S
C1006 H982 0.950 . S
C1006 C1001 1.363 . S
C1006 C1005 1.415 . S
C1007 H983 0.951 . S
C1007 C1008 1.366 . S
C1007 C1009 1.388 . S
C1008 C1007 1.366 . S
C1008 C1012 1.385 . S
C1009 H984 0.951 . S
C1009 C1007 1.388 . S
C1009 C1010 1.366 . S
C1010 C1009 1.366 . S
C1010 C1011 1.414 . S
C1010 C1013 1.499 . S
C1011 H985 0.950 . S
C1011 C1010 1.414 . S
C1011 C1012 1.374 . S
C1012 H986 0.950 . S
C1012 C1008 1.385 . S
C1012 C1011 1.374 . S
C1013 C1010 1.499 . S
C1013 C1014 1.373 . S
C1013 C1015 1.389 . S
C1014 H987 0.950 . S
C1014 C1000 1.377 . S
C1014 C1013 1.373 . S
C1015 C999 1.377 . S
C1015 C1013 1.389 . S
C1015 C1016 1.524 . S
C1016 C1015 1.524 . S
C1016 C1017 1.397 . S
C1016 C1021 1.363 . S
C1017 H988 0.950 . S
C1017 C1016 1.397 . S
C1017 C1018 1.334 . S
C1018 H989 0.950 . S
C1018 C1017 1.334 . S
C1018 C1019 1.287 . S
C1019 C1018 1.287 . S
C1019 C1020 1.524 . S
C1019 H1022 0.999 . S
C1020 H990 0.950 . S
C1020 C1019 1.524 . S
C1020 C1021 1.415 . S
C1021 H991 0.950 . S
C1021 C1016 1.363 . S
C1021 C1020 1.415 . S
H1022 C1019 0.999 . S
H1023 C1004 0.913 . S
H1024 C1042 0.951 . S
H1025 C1044 0.951 . S
H1026 C1046 0.950 1_655 S
H1027 C1047 0.950 1_655 S
H1028 C1049 0.950 . S
H1029 C1052 0.950 . S
H1030 C1053 0.950 . S
H1031 C1055 0.950 . S
H1032 C1056 0.950 . S
H1033 C1057 0.951 1_655 S
H1034 C1059 0.951 1_655 S
H1035 C1061 0.950 . S
H1036 C1062 0.950 . S
H1037 C1064 0.950 . S
H1038 C1067 0.950 . S
H1039 C1068 0.950 . S
H1040 C1070 0.950 . S
H1041 C1071 0.950 . S
C1042 H1024 0.951 . S
C1042 C1043 1.366 . S
C1042 C1044 1.388 . S
C1043 C1042 1.366 . S
C1043 C1047 1.385 . S
C1044 H1025 0.951 . S
C1044 C1042 1.388 . S
C1044 C1045 1.366 . S
C1045 C1044 1.366 . S
C1045 C1046 1.414 . S
C1045 C1048 1.499 . S
C1046 H1026 0.950 1_455 S
C1046 C1045 1.414 . S
C1046 C1047 1.374 . S
C1047 H1027 0.950 1_455 S
C1047 C1043 1.385 . S
C1047 C1046 1.374 . S
C1048 C1045 1.499 . S
C1048 C1049 1.373 1_455 S
C1048 C1050 1.389 . S
C1049 H1028 0.950 . S
C1049 C1048 1.373 1_655 S
C1049 C1065 1.377 . S
C1050 C1048 1.389 . S
C1050 C1051 1.524 . S
C1050 C1064 1.377 . S
C1051 C1050 1.524 . S
C1051 C1052 1.397 . S
C1051 C1056 1.363 . S
C1052 H1029 0.950 . S
C1052 C1051 1.397 . S
C1052 C1053 1.334 . S
C1053 H1030 0.950 . S
C1053 C1052 1.334 . S
C1053 C1054 1.287 . S
C1054 C1053 1.287 . S
C1054 C1055 1.524 . S
C1054 H1073 0.913 . S
C1055 H1031 0.950 . S
C1055 C1054 1.524 . S
C1055 C1056 1.415 . S
C1056 H1032 0.950 . S
C1056 C1051 1.363 . S
C1056 C1055 1.415 . S
C1057 H1033 0.951 1_455 S
C1057 C1058 1.366 . S
C1057 C1059 1.388 . S
C1058 C1057 1.366 . S
C1058 C1062 1.385 . S
C1059 H1034 0.951 1_455 S
C1059 C1057 1.388 . S
C1059 C1060 1.366 1_556 S
C1060 C1059 1.366 1_554 S
C1060 C1061 1.414 . S
C1060 C1063 1.499 . S
C1061 H1035 0.950 . S
C1061 C1060 1.414 . S
C1061 C1062 1.374 1_554 S
C1062 H1036 0.950 . S
C1062 C1058 1.385 . S
C1062 C1061 1.374 1_556 S
C1063 C1060 1.499 . S
C1063 C1064 1.373 . S
C1063 C1065 1.389 1_455 S
C1064 H1037 0.950 . S
C1064 C1050 1.377 . S
C1064 C1063 1.373 . S
C1065 C1049 1.377 . S
C1065 C1063 1.389 1_655 S
C1065 C1066 1.524 . S
C1066 C1065 1.524 . S
C1066 C1067 1.397 . S
C1066 C1071 1.363 . S
C1067 H1038 0.950 . S
C1067 C1066 1.397 . S
C1067 C1068 1.334 . S
C1068 H1039 0.950 . S
C1068 C1067 1.334 . S
C1068 C1069 1.287 . S
C1069 C1068 1.287 . S
C1069 C1070 1.524 . S
C1069 H1072 0.999 . S
C1070 H1040 0.950 . S
C1070 C1069 1.524 . S
C1070 C1071 1.415 . S
C1071 H1041 0.950 . S
C1071 C1066 1.363 . S
C1071 C1070 1.415 . S
H1072 C1069 0.999 . S
H1073 C1054 0.913 . S
H1074 C1092 0.951 . S
H1075 C1094 0.951 . S
H1076 C1096 0.950 . S
H1077 C1097 0.950 . S
H1078 C1099 0.950 . S
H1079 C1102 0.950 . S
H1080 C1103 0.950 . S
H1081 C1105 0.950 . S
H1082 C1106 0.950 . S
H1083 C1107 0.951 . S
H1084 C1109 0.951 . S
H1085 C1111 0.950 . S
H1086 C1112 0.950 . S
H1087 C1114 0.950 . S
H1088 C1117 0.950 . S
H1089 C1118 0.950 . S
H1090 C1120 0.950 . S
H1091 C1121 0.950 . S
C1092 H1074 0.951 . S
C1092 C1093 1.366 . S
C1092 C1094 1.388 . S
C1093 C1092 1.366 . S
C1093 C1097 1.385 . S
C1094 H1075 0.951 . S
C1094 C1092 1.388 . S
C1094 C1095 1.366 . S
C1095 C1094 1.366 . S
C1095 C1096 1.414 . S
C1095 C1098 1.499 . S
C1096 H1076 0.950 . S
C1096 C1095 1.414 . S
C1096 C1097 1.374 . S
C1097 H1077 0.950 . S
C1097 C1093 1.385 . S
C1097 C1096 1.374 . S
C1098 C1095 1.499 . S
C1098 C1099 1.373 . S
C1098 C1100 1.389 . S
C1099 H1078 0.950 . S
C1099 C1098 1.373 . S
C1099 C1115 1.377 . S
C1100 C1098 1.389 . S
C1100 C1101 1.524 . S
C1100 C1114 1.377 . S
C1101 C1100 1.524 . S
C1101 C1102 1.397 . S
C1101 C1106 1.363 . S
C1102 H1079 0.950 . S
C1102 C1101 1.397 . S
C1102 C1103 1.334 . S
C1103 H1080 0.950 . S
C1103 C1102 1.334 . S
C1103 C1104 1.287 . S
C1104 C1103 1.287 . S
C1104 C1105 1.524 . S
C1104 H1123 0.913 . S
C1105 H1081 0.950 . S
C1105 C1104 1.524 . S
C1105 C1106 1.415 . S
C1106 H1082 0.950 . S
C1106 C1101 1.363 . S
C1106 C1105 1.415 . S
C1107 H1083 0.951 . S
C1107 C1108 1.366 . S
C1107 C1109 1.388 . S
C1108 C1107 1.366 . S
C1108 C1112 1.385 . S
C1109 H1084 0.951 . S
C1109 C1107 1.388 . S
C1109 C1110 1.366 . S
C1110 C1109 1.366 . S
C1110 C1111 1.414 . S
C1110 C1113 1.499 . S
C1111 H1085 0.950 . S
C1111 C1110 1.414 . S
C1111 C1112 1.374 . S
C1112 H1086 0.950 . S
C1112 C1108 1.385 . S
C1112 C1111 1.374 . S
C1113 C1110 1.499 . S
C1113 C1114 1.373 . S
C1113 C1115 1.389 . S
C1114 H1087 0.950 . S
C1114 C1100 1.377 . S
C1114 C1113 1.373 . S
C1115 C1099 1.377 . S
C1115 C1113 1.389 . S
C1115 C1116 1.524 . S
C1116 C1115 1.524 . S
C1116 C1117 1.397 . S
C1116 C1121 1.363 . S
C1117 H1088 0.950 . S
C1117 C1116 1.397 . S
C1117 C1118 1.334 . S
C1118 H1089 0.950 . S
C1118 C1117 1.334 . S
C1118 C1119 1.287 . S
C1119 C1118 1.287 . S
C1119 C1120 1.524 . S
C1119 H1122 0.999 . S
C1120 H1090 0.950 . S
C1120 C1119 1.524 . S
C1120 C1121 1.415 . S
C1121 H1091 0.950 . S
C1121 C1116 1.363 . S
C1121 C1120 1.415 . S
H1122 C1119 0.999 . S
H1123 C1104 0.913 . S
H1124 C1142 0.951 . S
H1125 C1144 0.951 . S
H1126 C1146 0.950 . S
H1127 C1147 0.950 . S
H1128 C1149 0.950 . S
H1129 C1152 0.950 . S
H1130 C1153 0.950 . S
H1131 C1155 0.950 . S
H1132 C1156 0.950 . S
H1133 C1157 0.951 . S
H1134 C1159 0.951 . S
H1135 C1161 0.950 . S
H1136 C1162 0.950 . S
H1137 C1164 0.950 . S
H1138 C1167 0.950 . S
H1139 C1168 0.950 . S
H1140 C1170 0.950 . S
H1141 C1171 0.950 . S
C1142 H1124 0.951 . S
C1142 C1143 1.366 . S
C1142 C1144 1.388 . S
C1143 C1142 1.366 . S
C1143 C1147 1.385 . S
C1144 H1125 0.951 . S
C1144 C1142 1.388 . S
C1144 C1145 1.366 . S
C1145 C1144 1.366 . S
C1145 C1146 1.414 . S
C1145 C1148 1.499 . S
C1146 H1126 0.950 . S
C1146 C1145 1.414 . S
C1146 C1147 1.374 . S
C1147 H1127 0.950 . S
C1147 C1143 1.385 . S
C1147 C1146 1.374 . S
C1148 C1145 1.499 . S
C1148 C1149 1.373 . S
C1148 C1150 1.389 . S
C1149 H1128 0.950 . S
C1149 C1148 1.373 . S
C1149 C1165 1.377 . S
C1150 C1148 1.389 . S
C1150 C1151 1.524 . S
C1150 C1164 1.377 . S
C1151 C1150 1.524 . S
C1151 C1152 1.397 . S
C1151 C1156 1.363 . S
C1152 H1129 0.950 . S
C1152 C1151 1.397 . S
C1152 C1153 1.334 . S
C1153 H1130 0.950 . S
C1153 C1152 1.334 . S
C1153 C1154 1.287 . S
C1154 C1153 1.287 . S
C1154 C1155 1.524 . S
C1154 H1173 0.913 . S
C1155 H1131 0.950 . S
C1155 C1154 1.524 . S
C1155 C1156 1.415 . S
C1156 H1132 0.950 . S
C1156 C1151 1.363 . S
C1156 C1155 1.415 . S
C1157 H1133 0.951 . S
C1157 C1158 1.366 . S
C1157 C1159 1.388 . S
C1158 C1157 1.366 . S
C1158 C1162 1.385 . S
C1159 H1134 0.951 . S
C1159 C1157 1.388 . S
C1159 C1160 1.366 . S
C1160 C1159 1.366 . S
C1160 C1161 1.414 . S
C1160 C1163 1.499 . S
C1161 H1135 0.950 . S
C1161 C1160 1.414 . S
C1161 C1162 1.374 . S
C1162 H1136 0.950 . S
C1162 C1158 1.385 . S
C1162 C1161 1.374 . S
C1163 C1160 1.499 . S
C1163 C1164 1.373 . S
C1163 C1165 1.389 . S
C1164 H1137 0.950 . S
C1164 C1150 1.377 . S
C1164 C1163 1.373 . S
C1165 C1149 1.377 . S
C1165 C1163 1.389 . S
C1165 C1166 1.524 . S
C1166 C1165 1.524 . S
C1166 C1167 1.397 . S
C1166 C1171 1.363 . S
C1167 H1138 0.950 . S
C1167 C1166 1.397 . S
C1167 C1168 1.334 . S
C1168 H1139 0.950 . S
C1168 C1167 1.334 . S
C1168 C1169 1.287 . S
C1169 C1168 1.287 . S
C1169 C1170 1.524 . S
C1169 H1172 0.999 . S
C1170 H1140 0.950 . S
C1170 C1169 1.524 . S
C1170 C1171 1.415 . S
C1171 H1141 0.950 . S
C1171 C1166 1.363 . S
C1171 C1170 1.415 . S
H1172 C1169 0.999 . S
H1173 C1154 0.913 . S
H1174 C1192 0.951 . S
H1175 C1194 0.951 . S
H1176 C1196 0.950 . S
H1177 C1197 0.950 1_554 S
H1178 C1199 0.950 . S
H1179 C1202 0.950 . S
H1180 C1203 0.950 . S
H1181 C1205 0.950 . S
H1182 C1206 0.950 . S
H1183 C1207 0.951 . S
H1184 C1209 0.951 . S
H1185 C1211 0.950 . S
H1186 C1212 0.950 . S
H1187 C1214 0.950 . S
H1188 C1217 0.950 . S
H1189 C1218 0.950 . S
H1190 C1220 0.950 . S
H1191 C1221 0.950 . S
C1192 H1174 0.951 . S
C1192 C1193 1.366 . S
C1192 C1194 1.388 . S
C1193 C1192 1.366 . S
C1193 C1197 1.385 . S
C1194 H1175 0.951 . S
C1194 C1192 1.388 . S
C1194 C1195 1.366 . S
C1195 C1194 1.366 . S
C1195 C1196 1.414 . S
C1195 C1198 1.499 . S
C1196 H1176 0.950 . S
C1196 C1195 1.414 . S
C1196 C1197 1.374 . S
C1197 H1177 0.950 1_556 S
C1197 C1193 1.385 . S
C1197 C1196 1.374 . S
C1198 C1195 1.499 . S
C1198 C1199 1.373 . S
C1198 C1200 1.389 . S
C1199 H1178 0.950 . S
C1199 C1198 1.373 . S
C1199 C1215 1.377 . S
C1200 C1198 1.389 . S
C1200 C1201 1.524 . S
C1200 C1214 1.377 . S
C1201 C1200 1.524 . S
C1201 C1202 1.397 . S
C1201 C1206 1.363 . S
C1202 H1179 0.950 . S
C1202 C1201 1.397 . S
C1202 C1203 1.334 . S
C1203 H1180 0.950 . S
C1203 C1202 1.334 . S
C1203 C1204 1.287 . S
C1204 C1203 1.287 . S
C1204 C1205 1.524 . S
C1204 H1223 0.913 . S
C1205 H1181 0.950 . S
C1205 C1204 1.524 . S
C1205 C1206 1.415 . S
C1206 H1182 0.950 . S
C1206 C1201 1.363 . S
C1206 C1205 1.415 . S
C1207 H1183 0.951 . S
C1207 C1208 1.366 . S
C1207 C1209 1.388 . S
C1208 C1207 1.366 . S
C1208 C1212 1.385 . S
C1209 H1184 0.951 . S
C1209 C1207 1.388 . S
C1209 C1210 1.366 . S
C1210 C1209 1.366 . S
C1210 C1211 1.414 . S
C1210 C1213 1.499 . S
C1211 H1185 0.950 . S
C1211 C1210 1.414 . S
C1211 C1212 1.374 . S
C1212 H1186 0.950 . S
C1212 C1208 1.385 . S
C1212 C1211 1.374 . S
C1213 C1210 1.499 . S
C1213 C1214 1.373 . S
C1213 C1215 1.389 . S
C1214 H1187 0.950 . S
C1214 C1200 1.377 . S
C1214 C1213 1.373 . S
C1215 C1199 1.377 . S
C1215 C1213 1.389 . S
C1215 C1216 1.524 . S
C1216 C1215 1.524 . S
C1216 C1217 1.397 . S
C1216 C1221 1.363 . S
C1217 H1188 0.950 . S
C1217 C1216 1.397 . S
C1217 C1218 1.334 . S
C1218 H1189 0.950 . S
C1218 C1217 1.334 . S
C1218 C1219 1.287 . S
C1219 C1218 1.287 . S
C1219 C1220 1.524 . S
C1219 H1222 0.999 . S
C1220 H1190 0.950 . S
C1220 C1219 1.524 . S
C1220 C1221 1.415 . S
C1221 H1191 0.950 . S
C1221 C1216 1.363 . S
C1221 C1220 1.415 . S
H1222 C1219 0.999 . S
H1223 C1204 0.913 . S
H1224 C1242 0.951 1_554 S
H1225 C1244 0.951 . S
H1226 C1246 0.950 . S
H1227 C1247 0.950 . S
H1228 C1249 0.950 . S
H1229 C1252 0.950 . S
H1230 C1253 0.950 . S
H1231 C1255 0.950 . S
H1232 C1256 0.950 . S
H1233 C1257 0.951 . S
H1234 C1259 0.951 . S
H1235 C1261 0.950 . S
H1236 C1262 0.950 . S
H1237 C1264 0.950 . S
H1238 C1267 0.950 . S
H1239 C1268 0.950 . S
H1240 C1270 0.950 . S
H1241 C1271 0.950 . S
C1242 H1224 0.951 1_556 S
C1242 C1243 1.366 . S
C1242 C1244 1.388 . S
C1243 C1242 1.366 . S
C1243 C1247 1.385 . S
C1244 H1225 0.951 . S
C1244 C1242 1.388 . S
C1244 C1245 1.366 . S
C1245 C1244 1.366 . S
C1245 C1246 1.414 . S
C1245 C1248 1.499 . S
C1246 H1226 0.950 . S
C1246 C1245 1.414 . S
C1246 C1247 1.374 . S
C1247 H1227 0.950 . S
C1247 C1243 1.385 . S
C1247 C1246 1.374 . S
C1248 C1245 1.499 . S
C1248 C1249 1.373 . S
C1248 C1250 1.389 . S
C1249 H1228 0.950 . S
C1249 C1248 1.373 . S
C1249 C1265 1.377 . S
C1250 C1248 1.389 . S
C1250 C1251 1.524 . S
C1250 C1264 1.377 . S
C1251 C1250 1.524 . S
C1251 C1252 1.397 . S
C1251 C1256 1.363 . S
C1252 H1229 0.950 . S
C1252 C1251 1.397 . S
C1252 C1253 1.334 . S
C1253 H1230 0.950 . S
C1253 C1252 1.334 . S
C1253 C1254 1.287 . S
C1254 C1253 1.287 . S
C1254 C1255 1.524 . S
C1254 H1273 0.913 1_556 S
C1255 H1231 0.950 . S
C1255 C1254 1.524 . S
C1255 C1256 1.415 . S
C1256 H1232 0.950 . S
C1256 C1251 1.363 . S
C1256 C1255 1.415 . S
C1257 H1233 0.951 . S
C1257 C1258 1.366 . S
C1257 C1259 1.388 . S
C1258 C1257 1.366 . S
C1258 C1262 1.385 . S
C1259 H1234 0.951 . S
C1259 C1257 1.388 . S
C1259 C1260 1.366 . S
C1260 C1259 1.366 . S
C1260 C1261 1.414 . S
C1260 C1263 1.499 . S
C1261 H1235 0.950 . S
C1261 C1260 1.414 . S
C1261 C1262 1.374 . S
C1262 H1236 0.950 . S
C1262 C1258 1.385 . S
C1262 C1261 1.374 . S
C1263 C1260 1.499 . S
C1263 C1264 1.373 . S
C1263 C1265 1.389 . S
C1264 H1237 0.950 . S
C1264 C1250 1.377 . S
C1264 C1263 1.373 . S
C1265 C1249 1.377 . S
C1265 C1263 1.389 . S
C1265 C1266 1.524 . S
C1266 C1265 1.524 . S
C1266 C1267 1.397 . S
C1266 C1271 1.363 . S
C1267 H1238 0.950 . S
C1267 C1266 1.397 . S
C1267 C1268 1.334 . S
C1268 H1239 0.950 . S
C1268 C1267 1.334 . S
C1268 C1269 1.287 . S
C1269 C1268 1.287 . S
C1269 C1270 1.524 . S
C1269 H1272 0.999 . S
C1270 H1240 0.950 . S
C1270 C1269 1.524 . S
C1270 C1271 1.415 . S
C1271 H1241 0.950 . S
C1271 C1266 1.363 . S
C1271 C1270 1.415 . S
H1272 C1269 0.999 . S
H1273 C1254 0.913 1_554 S
H1274 C1292 0.951 . S
H1275 C1294 0.951 . S
H1276 C1296 0.950 . S
H1277 C1297 0.950 . S
H1278 C1299 0.950 . S
H1279 C1302 0.950 . S
H1280 C1303 0.950 . S
H1281 C1305 0.950 . S
H1282 C1306 0.950 . S
H1283 C1307 0.951 . S
H1284 C1309 0.951 . S
H1285 C1311 0.950 . S
H1286 C1312 0.950 . S
H1287 C1314 0.950 . S
H1288 C1317 0.950 . S
H1289 C1318 0.950 . S
H1290 C1320 0.950 . S
H1291 C1321 0.950 . S
C1292 H1274 0.951 . S
C1292 C1293 1.366 . S
C1292 C1294 1.388 . S
C1293 C1292 1.366 . S
C1293 C1297 1.385 . S
C1294 H1275 0.951 . S
C1294 C1292 1.388 . S
C1294 C1295 1.366 . S
C1295 C1294 1.366 . S
C1295 C1296 1.414 . S
C1295 C1298 1.499 . S
C1296 H1276 0.950 . S
C1296 C1295 1.414 . S
C1296 C1297 1.374 . S
C1297 H1277 0.950 . S
C1297 C1293 1.385 . S
C1297 C1296 1.374 . S
C1298 C1295 1.499 . S
C1298 C1299 1.373 . S
C1298 C1300 1.389 . S
C1299 H1278 0.950 . S
C1299 C1298 1.373 . S
C1299 C1315 1.377 . S
C1300 C1298 1.389 . S
C1300 C1301 1.524 . S
C1300 C1314 1.377 . S
C1301 C1300 1.524 . S
C1301 C1302 1.397 . S
C1301 C1306 1.363 . S
C1302 H1279 0.950 . S
C1302 C1301 1.397 . S
C1302 C1303 1.334 . S
C1303 H1280 0.950 . S
C1303 C1302 1.334 . S
C1303 C1304 1.287 . S
C1304 C1303 1.287 . S
C1304 C1305 1.524 . S
C1304 H1323 0.913 . S
C1305 H1281 0.950 . S
C1305 C1304 1.524 . S
C1305 C1306 1.415 . S
C1306 H1282 0.950 . S
C1306 C1301 1.363 . S
C1306 C1305 1.415 . S
C1307 H1283 0.951 . S
C1307 C1308 1.366 . S
C1307 C1309 1.388 . S
C1308 C1307 1.366 . S
C1308 C1312 1.385 . S
C1309 H1284 0.951 . S
C1309 C1307 1.388 . S
C1309 C1310 1.366 . S
C1310 C1309 1.366 . S
C1310 C1311 1.414 . S
C1310 C1313 1.499 . S
C1311 H1285 0.950 . S
C1311 C1310 1.414 . S
C1311 C1312 1.374 . S
C1312 H1286 0.950 . S
C1312 C1308 1.385 . S
C1312 C1311 1.374 . S
C1313 C1310 1.499 . S
C1313 C1314 1.373 . S
C1313 C1315 1.389 . S
C1314 H1287 0.950 . S
C1314 C1300 1.377 . S
C1314 C1313 1.373 . S
C1315 C1299 1.377 . S
C1315 C1313 1.389 . S
C1315 C1316 1.524 . S
C1316 C1315 1.524 . S
C1316 C1317 1.397 . S
C1316 C1321 1.363 . S
C1317 H1288 0.950 . S
C1317 C1316 1.397 . S
C1317 C1318 1.334 . S
C1318 H1289 0.950 . S
C1318 C1317 1.334 . S
C1318 C1319 1.287 . S
C1319 C1318 1.287 . S
C1319 C1320 1.524 . S
C1319 H1322 0.999 . S
C1320 H1290 0.950 . S
C1320 C1319 1.524 . S
C1320 C1321 1.415 . S
C1321 H1291 0.950 . S
C1321 C1316 1.363 . S
C1321 C1320 1.415 . S
H1322 C1319 0.999 . S
H1323 C1304 0.913 . S
H1324 C1342 0.951 . S
H1325 C1344 0.951 . S
H1326 C1346 0.950 . S
H1327 C1347 0.950 . S
H1328 C1349 0.950 . S
H1329 C1352 0.950 . S
H1330 C1353 0.950 . S
H1331 C1355 0.928 1_545 S
H1332 C1356 0.950 . S
H1333 C1357 0.951 . S
H1334 C1359 0.951 . S
H1335 C1361 0.950 . S
H1336 C1362 0.950 . S
H1337 C1364 0.950 . S
H1338 C1367 0.950 . S
H1339 C1368 0.950 . S
H1340 C1370 0.928 1_565 S
H1341 C1371 0.950 . S
C1342 H1324 0.951 . S
C1342 C1343 1.366 . S
C1342 C1344 1.388 . S
C1343 C1342 1.366 . S
C1343 C1347 1.385 . S
C1344 H1325 0.951 . S
C1344 C1342 1.388 . S
C1344 C1345 1.366 . S
C1345 C1344 1.366 . S
C1345 C1346 1.414 . S
C1345 C1348 1.499 . S
C1346 H1326 0.950 . S
C1346 C1345 1.414 . S
C1346 C1347 1.374 . S
C1347 H1327 0.950 . S
C1347 C1343 1.385 . S
C1347 C1346 1.374 . S
C1348 C1345 1.499 . S
C1348 C1349 1.373 . S
C1348 C1350 1.389 . S
C1349 H1328 0.950 . S
C1349 C1348 1.373 . S
C1349 C1365 1.377 1_565 S
C1350 C1348 1.389 . S
C1350 C1351 1.524 . S
C1350 C1364 1.377 1_565 S
C1351 C1350 1.524 . S
C1351 C1352 1.397 . S
C1351 C1356 1.363 1_565 S
C1352 H1329 0.950 . S
C1352 C1351 1.397 . S
C1352 C1353 1.334 . S
C1353 H1330 0.950 . S
C1353 C1352 1.334 . S
C1353 C1354 1.287 . S
C1354 C1353 1.287 . S
C1354 C1355 1.557 . S
C1354 H1373 0.913 . S
C1355 H1331 0.928 1_565 S
C1355 C1354 1.557 . S
C1355 C1356 1.407 1_565 S
C1356 H1332 0.950 . S
C1356 C1351 1.363 1_545 S
C1356 C1355 1.407 1_545 S
C1357 H1333 0.951 . S
C1357 C1358 1.366 . S
C1357 C1359 1.388 . S
C1358 C1357 1.366 . S
C1358 C1362 1.385 . S
C1359 H1334 0.951 . S
C1359 C1357 1.388 . S
C1359 C1360 1.366 . S
C1360 C1359 1.366 . S
C1360 C1361 1.414 . S
C1360 C1363 1.499 . S
C1361 H1335 0.950 . S
C1361 C1360 1.414 . S
C1361 C1362 1.374 . S
C1362 H1336 0.950 . S
C1362 C1358 1.385 . S
C1362 C1361 1.374 . S
C1363 C1360 1.499 . S
C1363 C1364 1.373 . S
C1363 C1365 1.389 . S
C1364 H1337 0.950 . S
C1364 C1350 1.377 1_545 S
C1364 C1363 1.373 . S
C1365 C1349 1.377 1_545 S
C1365 C1363 1.389 . S
C1365 C1366 1.524 . S
C1366 C1365 1.524 . S
C1366 C1367 1.397 . S
C1366 C1371 1.363 1_545 S
C1367 H1338 0.950 . S
C1367 C1366 1.397 . S
C1367 C1368 1.334 . S
C1368 H1339 0.950 . S
C1368 C1367 1.334 . S
C1368 C1369 1.287 . S
C1369 C1368 1.287 . S
C1369 C1370 1.557 . S
C1369 H1372 0.999 . S
C1370 H1340 0.928 1_545 S
C1370 C1369 1.557 . S
C1370 C1371 1.407 1_545 S
C1371 H1341 0.950 . S
C1371 C1366 1.363 1_565 S
C1371 C1370 1.407 1_565 S
H1372 C1369 0.999 . S
H1373 C1354 0.913 . S
H1374 C1392 0.951 1_655 S
H1375 C1394 0.951 1_655 S
H1376 C1396 0.950 . S
H1377 C1397 0.950 . S
H1378 C1399 0.950 . S
H1379 C1402 0.950 . S
H1380 C1403 0.947 . S
H1381 C1405 0.950 . S
H1382 C1406 0.950 . S
H1383 C1407 0.951 . S
H1384 C1409 0.951 . S
H1385 C1411 0.950 1_655 S
H1386 C1412 0.950 1_655 S
H1387 C1414 0.988 . S
H1388 C1417 0.950 . S
H1389 C1418 0.950 . S
H1390 C1420 0.950 . S
H1391 C1421 0.950 . S
C1392 H1374 0.951 1_455 S
C1392 C1393 1.366 . S
C1392 C1394 1.388 . S
C1393 C1392 1.366 . S
C1393 C1397 1.385 . S
C1394 H1375 0.951 1_455 S
C1394 C1392 1.388 . S
C1394 C1395 1.366 1_556 S
C1395 C1394 1.366 1_554 S
C1395 C1396 1.414 1_554 S
C1395 C1398 1.499 . S
C1396 H1376 0.950 . S
C1396 C1395 1.414 1_556 S
C1396 C1397 1.374 . S
C1397 H1377 0.950 . S
C1397 C1393 1.385 . S
C1397 C1396 1.374 . S
C1398 C1395 1.499 . S
C1398 C1399 1.373 1_545 S
C1398 C1400 1.389 . S
C1399 H1378 0.950 . S
C1399 C1398 1.373 1_565 S
C1399 C1415 1.377 . S
C1400 C1398 1.389 . S
C1400 C1401 1.524 1_455 S
C1400 C1414 1.377 . S
C1401 C1400 1.524 1_655 S
C1401 C1402 1.397 1_655 S
C1401 C1406 1.363 . S
C1402 H1379 0.950 . S
C1402 C1401 1.397 1_455 S
C1402 C1403 1.331 . S
C1403 H1380 0.947 . S
C1403 C1402 1.331 . S
C1403 C1404 1.294 1_455 S
C1404 C1403 1.294 1_655 S
C1404 C1405 1.524 . S
C1404 H1423 0.913 . S
C1405 H1381 0.950 . S
C1405 C1404 1.524 . S
C1405 C1406 1.415 . S
C1406 H1382 0.950 . S
C1406 C1401 1.363 . S
C1406 C1405 1.415 . S
C1407 H1383 0.951 . S
C1407 C1408 1.366 . S
C1407 C1409 1.388 . S
C1408 C1407 1.366 . S
C1408 C1412 1.385 . S
C1409 H1384 0.951 . S
C1409 C1407 1.388 . S
C1409 C1410 1.366 . S
C1410 C1409 1.366 . S
C1410 C1411 1.414 . S
C1410 C1413 1.499 . S
C1411 H1385 0.950 1_455 S
C1411 C1410 1.414 . S
C1411 C1412 1.374 . S
C1412 H1386 0.950 1_455 S
C1412 C1408 1.385 . S
C1412 C1411 1.374 . S
C1413 C1410 1.499 . S
C1413 C1414 1.373 1_565 S
C1413 C1415 1.389 . S
C1414 H1387 0.988 . S
C1414 C1400 1.377 . S
C1414 C1413 1.373 1_545 S
C1415 C1399 1.377 . S
C1415 C1413 1.389 . S
C1415 C1416 1.524 . S
C1416 C1415 1.524 . S
C1416 C1417 1.397 . S
C1416 C1421 1.363 . S
C1417 H1388 0.950 . S
C1417 C1416 1.397 . S
C1417 C1418 1.334 . S
C1418 H1389 0.950 . S
C1418 C1417 1.334 . S
C1418 C1419 1.287 . S
C1419 C1418 1.287 . S
C1419 C1420 1.524 . S
C1419 H1422 0.999 . S
C1420 H1390 0.950 . S
C1420 C1419 1.524 . S
C1420 C1421 1.415 . S
C1421 H1391 0.950 . S
C1421 C1416 1.363 . S
C1421 C1420 1.415 . S
H1422 C1419 0.999 . S
H1423 C1404 0.913 . S
H1424 C1442 0.939 1_655 S
H1425 C1444 0.952 . S
H1426 C1446 0.950 . S
H1427 C1447 0.950 . S
H1428 C1449 0.950 . S
H1429 C1452 0.950 . S
H1430 C1453 0.950 . S
H1431 C1455 0.950 . S
H1432 C1456 0.950 . S
H1433 C1457 0.951 . S
H1434 C1459 0.951 . S
H1435 C1461 0.923 1_655 S
H1436 C1462 0.931 1_655 S
H1437 C1464 0.950 . S
H1438 C1467 0.950 . S
H1439 C1468 0.950 . S
H1440 C1470 0.950 . S
H1441 C1471 0.950 . S
C1442 H1424 0.939 1_455 S
C1442 C1443 1.366 . S
C1442 C1444 1.388 . S
C1443 C1442 1.366 . S
C1443 C1447 1.385 . S
C1444 H1425 0.952 . S
C1444 C1442 1.388 . S
C1444 C1445 1.366 . S
C1445 C1444 1.366 . S
C1445 C1446 1.414 . S
C1445 C1448 1.499 . S
C1446 H1426 0.950 . S
C1446 C1445 1.414 . S
C1446 C1447 1.374 . S
C1447 H1427 0.950 . S
C1447 C1443 1.385 . S
C1447 C1446 1.374 . S
C1448 C1445 1.499 . S
C1448 C1449 1.373 . S
C1448 C1450 1.389 . S
C1449 H1428 0.950 . S
C1449 C1448 1.373 . S
C1449 C1465 1.377 . S
C1450 C1448 1.389 . S
C1450 C1451 1.524 . S
C1450 C1464 1.377 . S
C1451 C1450 1.524 . S
C1451 C1452 1.397 . S
C1451 C1456 1.363 . S
C1452 H1429 0.950 . S
C1452 C1451 1.397 . S
C1452 C1453 1.334 . S
C1453 H1430 0.950 . S
C1453 C1452 1.334 . S
C1453 C1454 1.287 . S
C1454 C1453 1.287 . S
C1454 C1455 1.524 . S
C1454 H1473 0.913 . S
C1455 H1431 0.950 . S
C1455 C1454 1.524 . S
C1455 C1456 1.415 . S
C1456 H1432 0.950 . S
C1456 C1451 1.363 . S
C1456 C1455 1.415 . S
C1457 H1433 0.951 . S
C1457 C1458 1.366 . S
C1457 C1459 1.388 . S
C1458 C1457 1.366 . S
C1458 C1462 1.385 . S
C1459 H1434 0.951 . S
C1459 C1457 1.388 . S
C1459 C1460 1.366 . S
C1460 C1459 1.366 . S
C1460 C1461 1.414 . S
C1460 C1463 1.499 . S
C1461 H1435 0.923 1_455 S
C1461 C1460 1.414 . S
C1461 C1462 1.374 . S
C1462 H1436 0.931 1_455 S
C1462 C1458 1.385 . S
C1462 C1461 1.374 . S
C1463 C1460 1.499 . S
C1463 C1464 1.373 . S
C1463 C1465 1.389 . S
C1464 H1437 0.950 . S
C1464 C1450 1.377 . S
C1464 C1463 1.373 . S
C1465 C1449 1.377 . S
C1465 C1463 1.389 . S
C1465 C1466 1.524 . S
C1466 C1465 1.524 . S
C1466 C1467 1.397 1_455 S
C1466 C1471 1.363 . S
C1467 H1438 0.950 . S
C1467 C1466 1.397 1_655 S
C1467 C1468 1.334 . S
C1468 H1439 0.950 . S
C1468 C1467 1.334 . S
C1468 C1469 1.287 . S
C1469 C1468 1.287 . S
C1469 C1470 1.524 1_655 S
C1469 H1472 0.999 . S
C1470 H1440 0.950 . S
C1470 C1469 1.524 1_455 S
C1470 C1471 1.415 . S
C1471 H1441 0.950 . S
C1471 C1466 1.363 . S
C1471 C1470 1.415 . S
H1472 C1469 0.999 . S
H1473 C1454 0.913 . S
H1474 C1492 0.951 1_554 S
H1475 C1494 0.951 . S
H1476 C1496 0.950 . S
H1477 C1497 0.950 . S
H1478 C1499 0.950 . S
H1479 C1502 0.950 . S
H1480 C1503 0.950 . S
H1481 C1505 0.950 . S
H1482 C1506 0.950 . S
H1483 C1507 0.951 . S
H1484 C1509 0.951 . S
H1485 C1511 0.950 . S
H1486 C1512 0.950 . S
H1487 C1514 0.950 . S
H1488 C1517 0.950 . S
H1489 C1518 0.950 . S
H1490 C1520 0.950 . S
H1491 C1521 0.950 . S
C1492 H1474 0.951 1_556 S
C1492 C1493 1.366 . S
C1492 C1494 1.388 . S
C1493 C1492 1.366 . S
C1493 C1497 1.385 . S
C1494 H1475 0.951 . S
C1494 C1492 1.388 . S
C1494 C1495 1.366 . S
C1495 C1494 1.366 . S
C1495 C1496 1.414 . S
C1495 C1498 1.499 . S
C1496 H1476 0.950 . S
C1496 C1495 1.414 . S
C1496 C1497 1.374 . S
C1497 H1477 0.950 . S
C1497 C1493 1.385 . S
C1497 C1496 1.374 . S
C1498 C1495 1.499 . S
C1498 C1499 1.373 . S
C1498 C1500 1.389 . S
C1499 H1478 0.950 . S
C1499 C1498 1.373 . S
C1499 C1515 1.377 . S
C1500 C1498 1.389 . S
C1500 C1501 1.524 . S
C1500 C1514 1.377 . S
C1501 C1500 1.524 . S
C1501 C1502 1.397 . S
C1501 C1506 1.363 . S
C1502 H1479 0.950 . S
C1502 C1501 1.397 . S
C1502 C1503 1.334 . S
C1503 H1480 0.950 . S
C1503 C1502 1.334 . S
C1503 C1504 1.287 . S
C1504 C1503 1.287 . S
C1504 C1505 1.524 . S
C1504 H1523 0.932 . S
C1505 H1481 0.950 . S
C1505 C1504 1.524 . S
C1505 C1506 1.415 . S
C1506 H1482 0.950 . S
C1506 C1501 1.363 . S
C1506 C1505 1.415 . S
C1507 H1483 0.951 . S
C1507 C1508 1.366 . S
C1507 C1509 1.388 . S
C1508 C1507 1.366 . S
C1508 C1512 1.385 . S
C1509 H1484 0.951 . S
C1509 C1507 1.388 . S
C1509 C1510 1.366 . S
C1510 C1509 1.366 . S
C1510 C1511 1.414 . S
C1510 C1513 1.499 . S
C1511 H1485 0.950 . S
C1511 C1510 1.414 . S
C1511 C1512 1.374 . S
C1512 H1486 0.950 . S
C1512 C1508 1.385 . S
C1512 C1511 1.374 . S
C1513 C1510 1.499 . S
C1513 C1514 1.373 . S
C1513 C1515 1.389 . S
C1514 H1487 0.950 . S
C1514 C1500 1.377 . S
C1514 C1513 1.373 . S
C1515 C1499 1.377 . S
C1515 C1513 1.389 . S
C1515 C1516 1.524 . S
C1516 C1515 1.524 . S
C1516 C1517 1.397 . S
C1516 C1521 1.363 . S
C1517 H1488 0.950 . S
C1517 C1516 1.397 . S
C1517 C1518 1.334 . S
C1518 H1489 0.950 . S
C1518 C1517 1.334 . S
C1518 C1519 1.287 . S
C1519 C1518 1.287 . S
C1519 C1520 1.524 . S
C1519 H1522 0.999 . S
C1520 H1490 0.950 . S
C1520 C1519 1.524 . S
C1520 C1521 1.415 . S
C1521 H1491 0.950 . S
C1521 C1516 1.363 . S
C1521 C1520 1.415 . S
H1522 C1519 0.999 . S
H1523 C1504 0.932 . S
H1524 C1542 0.951 . S
H1525 C1544 0.951 . S
H1526 C1546 0.950 . S
H1527 C1547 0.950 . S
H1528 C1549 0.950 . S
H1529 C1552 0.950 . S
H1530 C1553 0.950 . S
H1531 C1555 0.950 . S
H1532 C1556 0.950 . S
H1533 C1557 0.951 . S
H1534 C1559 0.951 . S
H1535 C1561 0.950 1_554 S
H1536 C1562 0.950 . S
H1537 C1564 0.950 . S
H1538 C1567 0.950 . S
H1539 C1568 0.950 . S
H1540 C1570 0.950 . S
H1541 C1571 0.950 . S
C1542 H1524 0.951 . S
C1542 C1543 1.366 . S
C1542 C1544 1.388 . S
C1543 C1542 1.366 . S
C1543 C1547 1.385 . S
C1544 H1525 0.951 . S
C1544 C1542 1.388 . S
C1544 C1545 1.366 . S
C1545 C1544 1.366 . S
C1545 C1546 1.414 . S
C1545 C1548 1.499 . S
C1546 H1526 0.950 . S
C1546 C1545 1.414 . S
C1546 C1547 1.374 . S
C1547 H1527 0.950 . S
C1547 C1543 1.385 . S
C1547 C1546 1.374 . S
C1548 C1545 1.499 . S
C1548 C1549 1.373 . S
C1548 C1550 1.389 . S
C1549 H1528 0.950 . S
C1549 C1548 1.373 . S
C1549 C1565 1.377 . S
C1550 C1548 1.389 . S
C1550 C1551 1.524 . S
C1550 C1564 1.377 . S
C1551 C1550 1.524 . S
C1551 C1552 1.397 . S
C1551 C1556 1.363 . S
C1552 H1529 0.950 . S
C1552 C1551 1.397 . S
C1552 C1553 1.334 . S
C1553 H1530 0.950 . S
C1553 C1552 1.334 . S
C1553 C1554 1.287 . S
C1554 C1553 1.287 . S
C1554 C1555 1.524 . S
C1554 H1573 0.913 . S
C1555 H1531 0.950 . S
C1555 C1554 1.524 . S
C1555 C1556 1.415 . S
C1556 H1532 0.950 . S
C1556 C1551 1.363 . S
C1556 C1555 1.415 . S
C1557 H1533 0.951 . S
C1557 C1558 1.366 . S
C1557 C1559 1.388 . S
C1558 C1557 1.366 . S
C1558 C1562 1.385 . S
C1559 H1534 0.951 . S
C1559 C1557 1.388 . S
C1559 C1560 1.366 . S
C1560 C1559 1.366 . S
C1560 C1561 1.414 . S
C1560 C1563 1.499 1_556 S
C1561 H1535 0.950 1_556 S
C1561 C1560 1.414 . S
C1561 C1562 1.374 . S
C1562 H1536 0.950 . S
C1562 C1558 1.385 . S
C1562 C1561 1.374 . S
C1563 C1560 1.499 1_554 S
C1563 C1564 1.373 . S
C1563 C1565 1.389 . S
C1564 H1537 0.950 . S
C1564 C1550 1.377 . S
C1564 C1563 1.373 . S
C1565 C1549 1.377 . S
C1565 C1563 1.389 . S
C1565 C1566 1.524 1_554 S
C1566 C1565 1.524 1_556 S
C1566 C1567 1.397 . S
C1566 C1571 1.363 . S
C1567 H1538 0.950 . S
C1567 C1566 1.397 . S
C1567 C1568 1.334 . S
C1568 H1539 0.950 . S
C1568 C1567 1.334 . S
C1568 C1569 1.287 . S
C1569 C1568 1.287 . S
C1569 C1570 1.524 . S
C1569 H1572 0.999 . S
C1570 H1540 0.950 . S
C1570 C1569 1.524 . S
C1570 C1571 1.415 . S
C1571 H1541 0.950 . S
C1571 C1566 1.363 . S
C1571 C1570 1.415 . S
H1572 C1569 0.999 . S
H1573 C1554 0.913 . S
H1574 C1592 0.951 . S
H1575 C1594 0.951 . S
H1576 C1596 0.950 . S
H1577 C1597 0.950 . S
H1578 C1599 0.950 . S
H1579 C1602 0.950 . S
H1580 C1603 0.950 . S
H1581 C1605 0.950 . S
H1582 C1606 0.950 . S
H1583 C1607 0.951 . S
H1584 C1609 0.951 . S
H1585 C1611 0.950 . S
H1586 C1612 0.950 . S
H1587 C1614 0.950 . S
H1588 C1617 0.950 . S
H1589 C1618 0.950 . S
H1590 C1620 0.950 . S
H1591 C1621 0.950 . S
C1592 H1574 0.951 . S
C1592 C1593 1.366 . S
C1592 C1594 1.388 . S
C1593 C1592 1.366 . S
C1593 C1597 1.385 . S
C1594 H1575 0.951 . S
C1594 C1592 1.388 . S
C1594 C1595 1.366 . S
C1595 C1594 1.366 . S
C1595 C1596 1.414 . S
C1595 C1598 1.499 . S
C1596 H1576 0.950 . S
C1596 C1595 1.414 . S
C1596 C1597 1.374 . S
C1597 H1577 0.950 . S
C1597 C1593 1.385 . S
C1597 C1596 1.374 . S
C1598 C1595 1.499 . S
C1598 C1599 1.373 . S
C1598 C1600 1.389 . S
C1599 H1578 0.950 . S
C1599 C1598 1.373 . S
C1599 C1615 1.377 . S
C1600 C1598 1.389 . S
C1600 C1601 1.524 . S
C1600 C1614 1.377 . S
C1601 C1600 1.524 . S
C1601 C1602 1.397 . S
C1601 C1606 1.363 . S
C1602 H1579 0.950 . S
C1602 C1601 1.397 . S
C1602 C1603 1.334 . S
C1603 H1580 0.950 . S
C1603 C1602 1.334 . S
C1603 C1604 1.287 . S
C1604 C1603 1.287 . S
C1604 C1605 1.524 . S
C1604 H1623 0.913 . S
C1605 H1581 0.950 . S
C1605 C1604 1.524 . S
C1605 C1606 1.415 . S
C1606 H1582 0.950 . S
C1606 C1601 1.363 . S
C1606 C1605 1.415 . S
C1607 H1583 0.951 . S
C1607 C1608 1.366 . S
C1607 C1609 1.388 . S
C1608 C1607 1.366 . S
C1608 C1612 1.385 . S
C1609 H1584 0.951 . S
C1609 C1607 1.388 . S
C1609 C1610 1.366 . S
C1610 C1609 1.366 . S
C1610 C1611 1.414 . S
C1610 C1613 1.499 . S
C1611 H1585 0.950 . S
C1611 C1610 1.414 . S
C1611 C1612 1.374 . S
C1612 H1586 0.950 . S
C1612 C1608 1.385 . S
C1612 C1611 1.374 . S
C1613 C1610 1.499 . S
C1613 C1614 1.373 . S
C1613 C1615 1.389 . S
C1614 H1587 0.950 . S
C1614 C1600 1.377 . S
C1614 C1613 1.373 . S
C1615 C1599 1.377 . S
C1615 C1613 1.389 . S
C1615 C1616 1.524 . S
C1616 C1615 1.524 . S
C1616 C1617 1.397 . S
C1616 C1621 1.363 . S
C1617 H1588 0.950 . S
C1617 C1616 1.397 . S
C1617 C1618 1.334 . S
C1618 H1589 0.950 . S
C1618 C1617 1.334 . S
C1618 C1619 1.287 . S
C1619 C1618 1.287 . S
C1619 C1620 1.524 . S
C1619 H1622 0.999 . S
C1620 H1590 0.950 . S
C1620 C1619 1.524 . S
C1620 C1621 1.415 . S
C1621 H1591 0.950 . S
C1621 C1616 1.363 . S
C1621 C1620 1.415 . S
H1622 C1619 0.999 . S
H1623 C1604 0.913 . S
H1624 C1642 0.951 . S
H1625 C1644 0.951 . S
H1626 C1646 0.950 . S
H1627 C1647 0.950 . S
H1628 C1649 0.950 . S
H1629 C1652 0.950 . S
H1630 C1653 0.950 . S
H1631 C1655 0.950 . S
H1632 C1656 0.950 . S
H1633 C1657 0.951 . S
H1634 C1659 0.951 . S
H1635 C1661 0.950 . S
H1636 C1662 0.950 . S
H1637 C1664 0.950 . S
H1638 C1667 0.950 . S
H1639 C1668 0.950 . S
H1640 C1670 0.950 . S
H1641 C1671 0.950 . S
C1642 H1624 0.951 . S
C1642 C1643 1.366 . S
C1642 C1644 1.388 . S
C1643 C1642 1.366 . S
C1643 C1647 1.385 . S
C1644 H1625 0.951 . S
C1644 C1642 1.388 . S
C1644 C1645 1.366 . S
C1645 C1644 1.366 . S
C1645 C1646 1.414 . S
C1645 C1648 1.499 . S
C1646 H1626 0.950 . S
C1646 C1645 1.414 . S
C1646 C1647 1.374 . S
C1647 H1627 0.950 . S
C1647 C1643 1.385 . S
C1647 C1646 1.374 . S
C1648 C1645 1.499 . S
C1648 C1649 1.373 . S
C1648 C1650 1.389 . S
C1649 H1628 0.950 . S
C1649 C1648 1.373 . S
C1649 C1665 1.377 . S
C1650 C1648 1.389 . S
C1650 C1651 1.524 . S
C1650 C1664 1.377 . S
C1651 C1650 1.524 . S
C1651 C1652 1.397 . S
C1651 C1656 1.363 . S
C1652 H1629 0.950 . S
C1652 C1651 1.397 . S
C1652 C1653 1.334 . S
C1653 H1630 0.950 . S
C1653 C1652 1.334 . S
C1653 C1654 1.287 . S
C1654 C1653 1.287 . S
C1654 C1655 1.524 . S
C1654 H1673 0.913 . S
C1655 H1631 0.950 . S
C1655 C1654 1.524 . S
C1655 C1656 1.415 . S
C1656 H1632 0.950 . S
C1656 C1651 1.363 . S
C1656 C1655 1.415 . S
C1657 H1633 0.951 . S
C1657 C1658 1.366 . S
C1657 C1659 1.388 . S
C1658 C1657 1.366 . S
C1658 C1662 1.385 . S
C1659 H1634 0.951 . S
C1659 C1657 1.388 . S
C1659 C1660 1.366 . S
C1660 C1659 1.366 . S
C1660 C1661 1.414 . S
C1660 C1663 1.499 . S
C1661 H1635 0.950 . S
C1661 C1660 1.414 . S
C1661 C1662 1.374 . S
C1662 H1636 0.950 . S
C1662 C1658 1.385 . S
C1662 C1661 1.374 . S
C1663 C1660 1.499 . S
C1663 C1664 1.373 . S
C1663 C1665 1.389 . S
C1664 H1637 0.950 . S
C1664 C1650 1.377 . S
C1664 C1663 1.373 . S
C1665 C1649 1.377 . S
C1665 C1663 1.389 . S
C1665 C1666 1.524 . S
C1666 C1665 1.524 . S
C1666 C1667 1.397 . S
C1666 C1671 1.363 . S
C1667 H1638 0.950 . S
C1667 C1666 1.397 . S
C1667 C1668 1.334 . S
C1668 H1639 0.950 . S
C1668 C1667 1.334 . S
C1668 C1669 1.287 . S
C1669 C1668 1.287 . S
C1669 C1670 1.524 . S
C1669 H1672 0.999 . S
C1670 H1640 0.950 . S
C1670 C1669 1.524 . S
C1670 C1671 1.415 . S
C1671 H1641 0.950 . S
C1671 C1666 1.363 . S
C1671 C1670 1.415 . S
H1672 C1669 0.999 . S
H1673 C1654 0.913 . S
H1674 C1692 0.951 . S
H1675 C1694 0.951 . S
H1676 C1696 0.950 . S
H1677 C1697 0.950 . S
H1678 C1699 0.950 . S
H1679 C1702 0.950 . S
H1680 C1703 0.950 . S
H1681 C1705 0.950 . S
H1682 C1706 0.950 . S
H1683 C1707 0.951 . S
H1684 C1709 0.951 . S
H1685 C1711 0.950 . S
H1686 C1712 0.950 1_554 S
H1687 C1714 0.950 . S
H1688 C1717 0.950 . S
H1689 C1718 0.950 . S
H1690 C1720 0.950 . S
H1691 C1721 0.950 . S
C1692 H1674 0.951 . S
C1692 C1693 1.366 . S
C1692 C1694 1.388 . S
C1693 C1692 1.366 . S
C1693 C1697 1.385 . S
C1694 H1675 0.951 . S
C1694 C1692 1.388 . S
C1694 C1695 1.366 . S
C1695 C1694 1.366 . S
C1695 C1696 1.414 . S
C1695 C1698 1.499 . S
C1696 H1676 0.950 . S
C1696 C1695 1.414 . S
C1696 C1697 1.374 . S
C1697 H1677 0.950 . S
C1697 C1693 1.385 . S
C1697 C1696 1.374 . S
C1698 C1695 1.499 . S
C1698 C1699 1.373 . S
C1698 C1700 1.389 . S
C1699 H1678 0.950 . S
C1699 C1698 1.373 . S
C1699 C1715 1.377 . S
C1700 C1698 1.389 . S
C1700 C1701 1.524 . S
C1700 C1714 1.377 . S
C1701 C1700 1.524 . S
C1701 C1702 1.397 . S
C1701 C1706 1.363 . S
C1702 H1679 0.950 . S
C1702 C1701 1.397 . S
C1702 C1703 1.334 . S
C1703 H1680 0.950 . S
C1703 C1702 1.334 . S
C1703 C1704 1.287 . S
C1704 C1703 1.287 . S
C1704 C1705 1.524 . S
C1704 H1723 0.913 . S
C1705 H1681 0.950 . S
C1705 C1704 1.524 . S
C1705 C1706 1.415 . S
C1706 H1682 0.950 . S
C1706 C1701 1.363 . S
C1706 C1705 1.415 . S
C1707 H1683 0.951 . S
C1707 C1708 1.366 . S
C1707 C1709 1.388 . S
C1708 C1707 1.366 . S
C1708 C1712 1.385 . S
C1709 H1684 0.951 . S
C1709 C1707 1.388 . S
C1709 C1710 1.366 . S
C1710 C1709 1.366 . S
C1710 C1711 1.414 . S
C1710 C1713 1.499 . S
C1711 H1685 0.950 . S
C1711 C1710 1.414 . S
C1711 C1712 1.374 . S
C1712 H1686 0.950 1_556 S
C1712 C1708 1.385 . S
C1712 C1711 1.374 . S
C1713 C1710 1.499 . S
C1713 C1714 1.373 . S
C1713 C1715 1.389 . S
C1714 H1687 0.950 . S
C1714 C1700 1.377 . S
C1714 C1713 1.373 . S
C1715 C1699 1.377 . S
C1715 C1713 1.389 . S
C1715 C1716 1.524 . S
C1716 C1715 1.524 . S
C1716 C1717 1.397 . S
C1716 C1721 1.363 . S
C1717 H1688 0.950 . S
C1717 C1716 1.397 . S
C1717 C1718 1.334 . S
C1718 H1689 0.950 . S
C1718 C1717 1.334 . S
C1718 C1719 1.287 . S
C1719 C1718 1.287 . S
C1719 C1720 1.524 . S
C1719 H1722 0.999 . S
C1720 H1690 0.950 . S
C1720 C1719 1.524 . S
C1720 C1721 1.415 . S
C1721 H1691 0.950 . S
C1721 C1716 1.363 . S
C1721 C1720 1.415 . S
H1722 C1719 0.999 . S
H1723 C1704 0.913 . S
H1724 C1742 0.951 . S
H1725 C1744 0.951 . S
H1726 C1746 0.950 . S
H1727 C1747 0.950 . S
H1728 C1749 0.950 . S
H1729 C1752 0.950 . S
H1730 C1753 0.950 . S
H1731 C1755 0.950 . S
H1732 C1756 0.950 . S
H1733 C1757 0.951 . S
H1734 C1759 0.951 . S
H1735 C1761 0.949 . S
H1736 C1762 0.950 . S
H1737 C1764 0.950 . S
H1738 C1767 0.950 . S
H1739 C1768 0.950 . S
H1740 C1770 0.950 . S
H1741 C1771 0.950 1_554 S
C1742 H1724 0.951 . S
C1742 C1743 1.366 . S
C1742 C1744 1.388 . S
C1743 C1742 1.366 . S
C1743 C1747 1.385 . S
C1744 H1725 0.951 . S
C1744 C1742 1.388 . S
C1744 C1745 1.366 . S
C1745 C1744 1.366 . S
C1745 C1746 1.414 . S
C1745 C1748 1.499 . S
C1746 H1726 0.950 . S
C1746 C1745 1.414 . S
C1746 C1747 1.374 . S
C1747 H1727 0.950 . S
C1747 C1743 1.385 . S
C1747 C1746 1.374 . S
C1748 C1745 1.499 . S
C1748 C1749 1.373 . S
C1748 C1750 1.389 1_565 S
C1749 H1728 0.950 . S
C1749 C1748 1.373 . S
C1749 C1765 1.377 . S
C1750 C1748 1.389 1_545 S
C1750 C1751 1.524 . S
C1750 C1764 1.377 . S
C1751 C1750 1.524 . S
C1751 C1752 1.397 . S
C1751 C1756 1.363 . S
C1752 H1729 0.950 . S
C1752 C1751 1.397 . S
C1752 C1753 1.334 . S
C1753 H1730 0.950 . S
C1753 C1752 1.334 . S
C1753 C1754 1.287 . S
C1754 C1753 1.287 . S
C1754 C1755 1.524 . S
C1754 H1773 0.913 . S
C1755 H1731 0.950 . S
C1755 C1754 1.524 . S
C1755 C1756 1.415 . S
C1756 H1732 0.950 . S
C1756 C1751 1.363 . S
C1756 C1755 1.415 . S
C1757 H1733 0.951 . S
C1757 C1758 1.366 . S
C1757 C1759 1.388 . S
C1758 C1757 1.366 . S
C1758 C1762 1.385 . S
C1759 H1734 0.951 . S
C1759 C1757 1.388 . S
C1759 C1760 1.366 . S
C1760 C1759 1.366 . S
C1760 C1761 1.414 . S
C1760 C1763 1.499 1_556 S
C1761 H1735 0.949 . S
C1761 C1760 1.414 . S
C1761 C1762 1.374 . S
C1762 H1736 0.950 . S
C1762 C1758 1.385 . S
C1762 C1761 1.374 . S
C1763 C1760 1.499 1_554 S
C1763 C1764 1.373 . S
C1763 C1765 1.389 1_545 S
C1764 H1737 0.950 . S
C1764 C1750 1.377 . S
C1764 C1763 1.373 . S
C1765 C1749 1.377 . S
C1765 C1763 1.389 1_565 S
C1765 C1766 1.524 1_554 S
C1766 C1765 1.524 1_556 S
C1766 C1767 1.397 . S
C1766 C1771 1.363 . S
C1767 H1738 0.950 . S
C1767 C1766 1.397 . S
C1767 C1768 1.334 . S
C1768 H1739 0.950 . S
C1768 C1767 1.334 . S
C1768 C1769 1.287 . S
C1769 C1768 1.287 . S
C1769 C1770 1.524 . S
C1769 H1772 0.999 . S
C1770 H1740 0.950 . S
C1770 C1769 1.524 . S
C1770 C1771 1.415 . S
C1771 H1741 0.950 1_556 S
C1771 C1766 1.363 . S
C1771 C1770 1.415 . S
H1772 C1769 0.999 . S
H1773 C1754 0.913 . S
H1774 C1792 0.951 . S
H1775 C1794 0.951 . S
H1776 C1796 0.950 . S
H1777 C1797 0.950 . S
H1778 C1799 0.950 . S
H1779 C1802 0.950 . S
H1780 C1803 0.950 . S
H1781 C1805 0.950 . S
H1782 C1806 0.950 . S
H1783 C1807 0.951 . S
H1784 C1809 0.951 . S
H1785 C1811 0.950 . S
H1786 C1812 0.950 . S
H1787 C1814 0.950 . S
H1788 C1817 0.950 . S
H1789 C1818 0.950 . S
H1790 C1820 0.950 . S
H1791 C1821 0.950 . S
C1792 H1774 0.951 . S
C1792 C1793 1.366 . S
C1792 C1794 1.388 . S
C1793 C1792 1.366 . S
C1793 C1797 1.385 . S
C1794 H1775 0.951 . S
C1794 C1792 1.388 . S
C1794 C1795 1.366 . S
C1795 C1794 1.366 . S
C1795 C1796 1.414 . S
C1795 C1798 1.499 . S
C1796 H1776 0.950 . S
C1796 C1795 1.414 . S
C1796 C1797 1.374 . S
C1797 H1777 0.950 . S
C1797 C1793 1.385 . S
C1797 C1796 1.374 . S
C1798 C1795 1.499 . S
C1798 C1799 1.373 . S
C1798 C1800 1.389 1_545 S
C1799 H1778 0.950 . S
C1799 C1798 1.373 . S
C1799 C1815 1.377 . S
C1800 C1798 1.389 1_565 S
C1800 C1801 1.524 . S
C1800 C1814 1.377 . S
C1801 C1800 1.524 . S
C1801 C1802 1.397 . S
C1801 C1806 1.363 . S
C1802 H1779 0.950 . S
C1802 C1801 1.397 . S
C1802 C1803 1.334 . S
C1803 H1780 0.950 . S
C1803 C1802 1.334 . S
C1803 C1804 1.287 . S
C1804 C1803 1.287 . S
C1804 C1805 1.524 . S
C1804 H1823 0.913 . S
C1805 H1781 0.950 . S
C1805 C1804 1.524 . S
C1805 C1806 1.415 . S
C1806 H1782 0.950 . S
C1806 C1801 1.363 . S
C1806 C1805 1.415 . S
C1807 H1783 0.951 . S
C1807 C1808 1.366 . S
C1807 C1809 1.388 . S
C1808 C1807 1.366 . S
C1808 C1812 1.385 . S
C1809 H1784 0.951 . S
C1809 C1807 1.388 . S
C1809 C1810 1.366 . S
C1810 C1809 1.366 . S
C1810 C1811 1.414 . S
C1810 C1813 1.499 . S
C1811 H1785 0.950 . S
C1811 C1810 1.414 . S
C1811 C1812 1.374 . S
C1812 H1786 0.950 . S
C1812 C1808 1.385 . S
C1812 C1811 1.374 . S
C1813 C1810 1.499 . S
C1813 C1814 1.373 . S
C1813 C1815 1.389 1_565 S
C1814 H1787 0.950 . S
C1814 C1800 1.377 . S
C1814 C1813 1.373 . S
C1815 C1799 1.377 . S
C1815 C1813 1.389 1_545 S
C1815 C1816 1.524 . S
C1816 C1815 1.524 . S
C1816 C1817 1.397 1_455 S
C1816 C1821 1.363 . S
C1817 H1788 0.950 . S
C1817 C1816 1.397 1_655 S
C1817 C1818 1.334 . S
C1818 H1789 0.950 . S
C1818 C1817 1.334 . S
C1818 C1819 1.287 . S
C1819 C1818 1.287 . S
C1819 C1820 1.524 1_655 S
C1819 H1822 0.999 . S
C1820 H1790 0.950 . S
C1820 C1819 1.524 1_455 S
C1820 C1821 1.415 . S
C1821 H1791 0.950 . S
C1821 C1816 1.363 . S
C1821 C1820 1.415 . S
H1822 C1819 0.999 . S
H1823 C1804 0.913 . S
C243 C137 1.411 . S
C258 C11 1.412 . S
C293 C207 1.412 . S
C308 C25 1.412 . S
C343 C39 1.411 . S
C358 C123 1.411 . S
C393 C53 1.411 1_556 S
C408 C221 1.411 . S
C443 C67 1.411 . S
C458 C151 1.411 1_556 S
C493 C193 1.411 . S
C508 C81 1.412 . S
C543 C165 1.412 . S
C558 C95 1.412 . S
C593 C109 1.412 . S
C608 C179 1.412 . S
C643 C68 1.404 . S
C658 C54 1.404 1_556 S
C693 C180 1.403 . S
C708 C124 1.403 . S
C743 C96 1.404 . S
C758 C26 1.404 . S
C793 C138 1.403 . S
C808 C194 1.403 . S
C843 C12 1.403 . S
C858 C82 1.404 . S
C893 C222 1.404 . S
C908 C152 1.404 1_556 S
C943 C110 1.403 . S
C958 C40 1.403 . S
C993 C166 1.404 . S
C1008 C208 1.404 . S
C1043 C4 0.370 . S
C1058 C60 0.370 . S
C1093 C74 0.368 . S
C1108 C18 0.368 . S
C1143 C88 0.371 . S
C1158 C32 0.371 . S
C1193 C46 0.369 . S
C1208 C102 0.369 . S
C1243 C144 0.368 . S
C1258 C116 0.368 . S
C1293 C158 0.370 . S
C1308 C130 0.370 . S
C1343 C200 0.370 . S
C1358 C172 0.370 . S
C1393 C214 0.371 . S
C1408 C186 0.371 . S
C1443 C61 1.444 . S
C1458 C5 1.444 . S
C1493 C75 1.443 1_556 S
C1508 C19 1.443 . S
C1543 C89 1.443 . S
C1558 C33 1.443 . S
C1593 C47 1.445 . S
C1608 C103 1.445 . S
C1643 C117 1.443 . S
C1658 C145 1.443 . S
C1693 C159 1.444 . S
C1708 C131 1.444 1_556 S
C1743 C201 1.443 . S
C1758 C173 1.443 . S
C1793 C215 1.443 . S
C1808 C187 1.443 . S
