# Generated by pormake.
# Topology ulj, (4)-cn, num edge types: 1
# Building blocks:
#     Node 0, Type 0, BuildingBlock: ESEHIV_clean_sbu_0, # of connection points: 4
#     Node 1, Type 0, BuildingBlock: ESEHIV_clean_sbu_0, # of connection points: 4
#     Node 2, Type 0, BuildingBlock: ESEHIV_clean_sbu_0, # of connection points: 4
#     Node 3, Type 0, BuildingBlock: ESEHIV_clean_sbu_0, # of connection points: 4
#     Node 4, Type 0, BuildingBlock: ESEHIV_clean_sbu_0, # of connection points: 4
#     Node 5, Type 0, BuildingBlock: ESEHIV_clean_sbu_0, # of connection points: 4
#     Node 6, Type 0, BuildingBlock: ESEHIV_clean_sbu_0, # of connection points: 4
#     Node 7, Type 0, BuildingBlock: ESEHIV_clean_sbu_0, # of connection points: 4
#     Node 8, Type 0, BuildingBlock: ESEHIV_clean_sbu_0, # of connection points: 4
#     Node 9, Type 0, BuildingBlock: ESEHIV_clean_sbu_0, # of connection points: 4
#     Node 10, Type 0, BuildingBlock: ESEHIV_clean_sbu_0, # of connection points: 4
#     Node 11, Type 0, BuildingBlock: ESEHIV_clean_sbu_0, # of connection points: 4
#     Node 12, Type 0, BuildingBlock: ESEHIV_clean_sbu_0, # of connection points: 4
#     Node 13, Type 0, BuildingBlock: ESEHIV_clean_sbu_0, # of connection points: 4
#     Node 14, Type 0, BuildingBlock: ESEHIV_clean_sbu_0, # of connection points: 4
#     Node 15, Type 0, BuildingBlock: ESEHIV_clean_sbu_0, # of connection points: 4
#     Node 16, Type 0, BuildingBlock: ESEHIV_clean_sbu_0, # of connection points: 4
#     Node 17, Type 0, BuildingBlock: ESEHIV_clean_sbu_0, # of connection points: 4
#     Node 18, Type 0, BuildingBlock: ESEHIV_clean_sbu_0, # of connection points: 4
#     Node 19, Type 0, BuildingBlock: ESEHIV_clean_sbu_0, # of connection points: 4
#     Node 20, Type 0, BuildingBlock: ESEHIV_clean_sbu_0, # of connection points: 4
#     Node 21, Type 0, BuildingBlock: ESEHIV_clean_sbu_0, # of connection points: 4
#     Node 22, Type 0, BuildingBlock: ESEHIV_clean_sbu_0, # of connection points: 4
#     Node 23, Type 0, BuildingBlock: ESEHIV_clean_sbu_0, # of connection points: 4
#     Node 24, Type 0, BuildingBlock: ESEHIV_clean_sbu_0, # of connection points: 4
#     Node 25, Type 0, BuildingBlock: ESEHIV_clean_sbu_0, # of connection points: 4
#     Node 26, Type 0, BuildingBlock: ESEHIV_clean_sbu_0, # of connection points: 4
#     Node 27, Type 0, BuildingBlock: ESEHIV_clean_sbu_0, # of connection points: 4
#     Node 28, Type 0, BuildingBlock: ESEHIV_clean_sbu_0, # of connection points: 4
#     Node 29, Type 0, BuildingBlock: ESEHIV_clean_sbu_0, # of connection points: 4
#     Node 30, Type 0, BuildingBlock: ESEHIV_clean_sbu_0, # of connection points: 4
#     Node 31, Type 0, BuildingBlock: ESEHIV_clean_sbu_0, # of connection points: 4
#     Node 32, Type 0, BuildingBlock: ESEHIV_clean_sbu_0, # of connection points: 4
#     Node 33, Type 0, BuildingBlock: ESEHIV_clean_sbu_0, # of connection points: 4
#     Node 34, Type 0, BuildingBlock: ESEHIV_clean_sbu_0, # of connection points: 4
#     Node 35, Type 0, BuildingBlock: ESEHIV_clean_sbu_0, # of connection points: 4
#     Node 36, Type 0, BuildingBlock: ESEHIV_clean_sbu_0, # of connection points: 4
#     Node 37, Type 0, BuildingBlock: ESEHIV_clean_sbu_0, # of connection points: 4
#     Node 38, Type 0, BuildingBlock: ESEHIV_clean_sbu_0, # of connection points: 4
#     Node 39, Type 0, BuildingBlock: ESEHIV_clean_sbu_0, # of connection points: 4
#     Node 40, Type 0, BuildingBlock: ESEHIV_clean_sbu_0, # of connection points: 4
#     Node 41, Type 0, BuildingBlock: ESEHIV_clean_sbu_0, # of connection points: 4
#     Node 42, Type 0, BuildingBlock: ESEHIV_clean_sbu_0, # of connection points: 4
#     Node 43, Type 0, BuildingBlock: ESEHIV_clean_sbu_0, # of connection points: 4
#     Node 44, Type 0, BuildingBlock: ESEHIV_clean_sbu_0, # of connection points: 4
#     Node 45, Type 0, BuildingBlock: ESEHIV_clean_sbu_0, # of connection points: 4
#     Node 46, Type 0, BuildingBlock: ESEHIV_clean_sbu_0, # of connection points: 4
#     Node 47, Type 0, BuildingBlock: ESEHIV_clean_sbu_0, # of connection points: 4
#     Edge 48, Type (0, 0), BuildingBlock: OJICUG_clean_linker_0, # of connection points: 2
#     Edge 49, Type (0, 0), BuildingBlock: OJICUG_clean_linker_0, # of connection points: 2
#     Edge 50, Type (0, 0), BuildingBlock: OJICUG_clean_linker_0, # of connection points: 2
#     Edge 51, Type (0, 0), BuildingBlock: OJICUG_clean_linker_0, # of connection points: 2
#     Edge 52, Type (0, 0), BuildingBlock: OJICUG_clean_linker_0, # of connection points: 2
#     Edge 53, Type (0, 0), BuildingBlock: OJICUG_clean_linker_0, # of connection points: 2
#     Edge 54, Type (0, 0), BuildingBlock: OJICUG_clean_linker_0, # of connection points: 2
#     Edge 55, Type (0, 0), BuildingBlock: OJICUG_clean_linker_0, # of connection points: 2
#     Edge 56, Type (0, 0), BuildingBlock: OJICUG_clean_linker_0, # of connection points: 2
#     Edge 57, Type (0, 0), BuildingBlock: OJICUG_clean_linker_0, # of connection points: 2
#     Edge 58, Type (0, 0), BuildingBlock: OJICUG_clean_linker_0, # of connection points: 2
#     Edge 59, Type (0, 0), BuildingBlock: OJICUG_clean_linker_0, # of connection points: 2
#     Edge 60, Type (0, 0), BuildingBlock: OJICUG_clean_linker_0, # of connection points: 2
#     Edge 61, Type (0, 0), BuildingBlock: OJICUG_clean_linker_0, # of connection points: 2
#     Edge 62, Type (0, 0), BuildingBlock: OJICUG_clean_linker_0, # of connection points: 2
#     Edge 63, Type (0, 0), BuildingBlock: OJICUG_clean_linker_0, # of connection points: 2
#     Edge 64, Type (0, 0), BuildingBlock: OJICUG_clean_linker_0, # of connection points: 2
#     Edge 65, Type (0, 0), BuildingBlock: OJICUG_clean_linker_0, # of connection points: 2
#     Edge 66, Type (0, 0), BuildingBlock: OJICUG_clean_linker_0, # of connection points: 2
#     Edge 67, Type (0, 0), BuildingBlock: OJICUG_clean_linker_0, # of connection points: 2
#     Edge 68, Type (0, 0), BuildingBlock: OJICUG_clean_linker_0, # of connection points: 2
#     Edge 69, Type (0, 0), BuildingBlock: OJICUG_clean_linker_0, # of connection points: 2
#     Edge 70, Type (0, 0), BuildingBlock: OJICUG_clean_linker_0, # of connection points: 2
#     Edge 71, Type (0, 0), BuildingBlock: OJICUG_clean_linker_0, # of connection points: 2
#     Edge 72, Type (0, 0), BuildingBlock: OJICUG_clean_linker_0, # of connection points: 2
#     Edge 73, Type (0, 0), BuildingBlock: OJICUG_clean_linker_0, # of connection points: 2
#     Edge 74, Type (0, 0), BuildingBlock: OJICUG_clean_linker_0, # of connection points: 2
#     Edge 75, Type (0, 0), BuildingBlock: OJICUG_clean_linker_0, # of connection points: 2
#     Edge 76, Type (0, 0), BuildingBlock: OJICUG_clean_linker_0, # of connection points: 2
#     Edge 77, Type (0, 0), BuildingBlock: OJICUG_clean_linker_0, # of connection points: 2
#     Edge 78, Type (0, 0), BuildingBlock: OJICUG_clean_linker_0, # of connection points: 2
#     Edge 79, Type (0, 0), BuildingBlock: OJICUG_clean_linker_0, # of connection points: 2
#     Edge 80, Type (0, 0), BuildingBlock: OJICUG_clean_linker_0, # of connection points: 2
#     Edge 81, Type (0, 0), BuildingBlock: OJICUG_clean_linker_0, # of connection points: 2
#     Edge 82, Type (0, 0), BuildingBlock: OJICUG_clean_linker_0, # of connection points: 2
#     Edge 83, Type (0, 0), BuildingBlock: OJICUG_clean_linker_0, # of connection points: 2
#     Edge 84, Type (0, 0), BuildingBlock: OJICUG_clean_linker_0, # of connection points: 2
#     Edge 85, Type (0, 0), BuildingBlock: OJICUG_clean_linker_0, # of connection points: 2
#     Edge 86, Type (0, 0), BuildingBlock: OJICUG_clean_linker_0, # of connection points: 2
#     Edge 87, Type (0, 0), BuildingBlock: OJICUG_clean_linker_0, # of connection points: 2
#     Edge 88, Type (0, 0), BuildingBlock: OJICUG_clean_linker_0, # of connection points: 2
#     Edge 89, Type (0, 0), BuildingBlock: OJICUG_clean_linker_0, # of connection points: 2
#     Edge 90, Type (0, 0), BuildingBlock: OJICUG_clean_linker_0, # of connection points: 2
#     Edge 91, Type (0, 0), BuildingBlock: OJICUG_clean_linker_0, # of connection points: 2
#     Edge 92, Type (0, 0), BuildingBlock: OJICUG_clean_linker_0, # of connection points: 2
#     Edge 93, Type (0, 0), BuildingBlock: OJICUG_clean_linker_0, # of connection points: 2
#     Edge 94, Type (0, 0), BuildingBlock: OJICUG_clean_linker_0, # of connection points: 2
#     Edge 95, Type (0, 0), BuildingBlock: OJICUG_clean_linker_0, # of connection points: 2
#     Edge 96, Type (0, 0), BuildingBlock: OJICUG_clean_linker_0, # of connection points: 2
#     Edge 97, Type (0, 0), BuildingBlock: OJICUG_clean_linker_0, # of connection points: 2
#     Edge 98, Type (0, 0), BuildingBlock: OJICUG_clean_linker_0, # of connection points: 2
#     Edge 99, Type (0, 0), BuildingBlock: OJICUG_clean_linker_0, # of connection points: 2
#     Edge 100, Type (0, 0), BuildingBlock: OJICUG_clean_linker_0, # of connection points: 2
#     Edge 101, Type (0, 0), BuildingBlock: OJICUG_clean_linker_0, # of connection points: 2
#     Edge 102, Type (0, 0), BuildingBlock: OJICUG_clean_linker_0, # of connection points: 2
#     Edge 103, Type (0, 0), BuildingBlock: OJICUG_clean_linker_0, # of connection points: 2
#     Edge 104, Type (0, 0), BuildingBlock: OJICUG_clean_linker_0, # of connection points: 2
#     Edge 105, Type (0, 0), BuildingBlock: OJICUG_clean_linker_0, # of connection points: 2
#     Edge 106, Type (0, 0), BuildingBlock: OJICUG_clean_linker_0, # of connection points: 2
#     Edge 107, Type (0, 0), BuildingBlock: OJICUG_clean_linker_0, # of connection points: 2
#     Edge 108, Type (0, 0), BuildingBlock: OJICUG_clean_linker_0, # of connection points: 2
#     Edge 109, Type (0, 0), BuildingBlock: OJICUG_clean_linker_0, # of connection points: 2
#     Edge 110, Type (0, 0), BuildingBlock: OJICUG_clean_linker_0, # of connection points: 2
#     Edge 111, Type (0, 0), BuildingBlock: OJICUG_clean_linker_0, # of connection points: 2
#     Edge 112, Type (0, 0), BuildingBlock: OJICUG_clean_linker_0, # of connection points: 2
#     Edge 113, Type (0, 0), BuildingBlock: OJICUG_clean_linker_0, # of connection points: 2
#     Edge 114, Type (0, 0), BuildingBlock: OJICUG_clean_linker_0, # of connection points: 2
#     Edge 115, Type (0, 0), BuildingBlock: OJICUG_clean_linker_0, # of connection points: 2
#     Edge 116, Type (0, 0), BuildingBlock: OJICUG_clean_linker_0, # of connection points: 2
#     Edge 117, Type (0, 0), BuildingBlock: OJICUG_clean_linker_0, # of connection points: 2
#     Edge 118, Type (0, 0), BuildingBlock: OJICUG_clean_linker_0, # of connection points: 2
#     Edge 119, Type (0, 0), BuildingBlock: OJICUG_clean_linker_0, # of connection points: 2
#     Edge 120, Type (0, 0), BuildingBlock: OJICUG_clean_linker_0, # of connection points: 2
#     Edge 121, Type (0, 0), BuildingBlock: OJICUG_clean_linker_0, # of connection points: 2
#     Edge 122, Type (0, 0), BuildingBlock: OJICUG_clean_linker_0, # of connection points: 2
#     Edge 123, Type (0, 0), BuildingBlock: OJICUG_clean_linker_0, # of connection points: 2
#     Edge 124, Type (0, 0), BuildingBlock: OJICUG_clean_linker_0, # of connection points: 2
#     Edge 125, Type (0, 0), BuildingBlock: OJICUG_clean_linker_0, # of connection points: 2
#     Edge 126, Type (0, 0), BuildingBlock: OJICUG_clean_linker_0, # of connection points: 2
#     Edge 127, Type (0, 0), BuildingBlock: OJICUG_clean_linker_0, # of connection points: 2
#     Edge 128, Type (0, 0), BuildingBlock: OJICUG_clean_linker_0, # of connection points: 2
#     Edge 129, Type (0, 0), BuildingBlock: OJICUG_clean_linker_0, # of connection points: 2
#     Edge 130, Type (0, 0), BuildingBlock: OJICUG_clean_linker_0, # of connection points: 2
#     Edge 131, Type (0, 0), BuildingBlock: OJICUG_clean_linker_0, # of connection points: 2
#     Edge 132, Type (0, 0), BuildingBlock: OJICUG_clean_linker_0, # of connection points: 2
#     Edge 133, Type (0, 0), BuildingBlock: OJICUG_clean_linker_0, # of connection points: 2
#     Edge 134, Type (0, 0), BuildingBlock: OJICUG_clean_linker_0, # of connection points: 2
#     Edge 135, Type (0, 0), BuildingBlock: OJICUG_clean_linker_0, # of connection points: 2
#     Edge 136, Type (0, 0), BuildingBlock: OJICUG_clean_linker_0, # of connection points: 2
#     Edge 137, Type (0, 0), BuildingBlock: OJICUG_clean_linker_0, # of connection points: 2
#     Edge 138, Type (0, 0), BuildingBlock: OJICUG_clean_linker_0, # of connection points: 2
#     Edge 139, Type (0, 0), BuildingBlock: OJICUG_clean_linker_0, # of connection points: 2
#     Edge 140, Type (0, 0), BuildingBlock: OJICUG_clean_linker_0, # of connection points: 2
#     Edge 141, Type (0, 0), BuildingBlock: OJICUG_clean_linker_0, # of connection points: 2
#     Edge 142, Type (0, 0), BuildingBlock: OJICUG_clean_linker_0, # of connection points: 2
#     Edge 143, Type (0, 0), BuildingBlock: OJICUG_clean_linker_0, # of connection points: 2
# Relax obj value: 0.037
# Max RMSD: 0.127
# Mean RMSD: 0.127
data_MOF--net-ulj--node1-ESEHIV_clean_sbu_0--edge1-OJICUG_clean_linker_0
_symmetry_space_group_name_H-M    P1
_symmetry_Int_Tables_number       1
_symmetry_cell_setting            triclinic
loop_
_symmetry_equiv_pos_as_xyz
'x, y, z'
_cell_length_a     51.195408
_cell_length_b     51.486328
_cell_length_c     51.586549
_cell_angle_alpha  89.613719
_cell_angle_beta   90.134634
_cell_angle_gamma 89.828423
loop_
_atom_site_label
_atom_site_type_symbol
_atom_site_fract_x
_atom_site_fract_y
_atom_site_fract_z
_atom_type_partial_charge
Cu0 Cu 0.16469 0.30366 0.34704 0.0
N1 N 0.16076 0.29202 0.38144 0.0
N2 N 0.14279 0.26942 0.41423 0.0
C3 C 0.14169 0.27546 0.38872 0.0
C4 C 0.16347 0.28284 0.4234 0.0
C5 C 0.17437 0.29694 0.40319 0.0
O6 O 0.129 0.31531 0.33848 0.0
C7 C 0.20482 0.2707 0.33591 0.0
O8 O 0.21156 0.28074 0.35828 0.0
H9 H 0.12772 0.26735 0.37525 0.0
H10 H 0.1912 0.30955 0.40421 0.0
N11 N 0.18797 0.33136 0.34138 0.0
N12 N 0.21558 0.35442 0.31666 0.0
C13 C 0.20315 0.33169 0.32008 0.0
C14 C 0.19079 0.35505 0.35197 0.0
C15 C 0.20773 0.36946 0.33654 0.0
C16 C 0.12324 0.33822 0.33061 0.0
O17 O 0.14137 0.35236 0.31945 0.0
H18 H 0.20356 0.31616 0.30608 0.0
H19 H 0.18013 0.36189 0.36868 0.0
O20 O 0.18186 0.27571 0.3272 0.0
H21 H 0.17035 0.28238 0.44326 0.0
H22 H 0.21311 0.38958 0.33921 0.0
Cu23 Cu 0.5627 0.65114 0.95041 0.0
N24 N 0.55933 0.654 0.9143 0.0
N25 N 0.53956 0.67341 0.88037 0.0
C26 C 0.5364 0.66068 0.90315 0.0
C27 C 0.56563 0.67463 0.87685 0.0
C28 C 0.57776 0.66268 0.8978 0.0
O29 O 0.57198 0.68735 0.95894 0.0
C30 C 0.52712 0.61185 0.95399 0.0
O31 O 0.54241 0.605 0.93477 0.0
H32 H 0.51794 0.65945 0.91328 0.0
H33 H 0.59842 0.66327 0.9022 0.0
N34 N 0.58854 0.62839 0.96293 0.0
N35 N 0.60543 0.60206 0.99352 0.0
C36 C 0.59099 0.62349 0.98852 0.0
C37 C 0.60203 0.60938 0.95112 0.0
C38 C 0.61249 0.59308 0.96998 0.0
C39 C 0.59596 0.69372 0.96205 0.0
O40 O 0.61325 0.6754 0.96671 0.0
H41 H 0.58034 0.63419 1.0031 0.0
H42 H 0.6025 0.60641 0.93039 0.0
O43 O 0.53074 0.6343 0.964 0.0
H44 H 0.57524 0.68518 0.86138 0.0
H45 H 0.62334 0.57536 0.96659 0.0
Cu46 Cu 0.92498 0.28074 0.33548 0.0
N47 N 0.92619 0.28428 0.3716 0.0
N48 N 0.94207 0.29897 0.40929 0.0
C49 C 0.94445 0.29898 0.38325 0.0
C50 C 0.92132 0.28355 0.41428 0.0
C51 C 0.91171 0.27428 0.39097 0.0
O52 O 0.96111 0.26971 0.32852 0.0
C53 C 0.88654 0.31654 0.33001 0.0
O54 O 0.87817 0.30048 0.34804 0.0
H55 H 0.95883 0.3101 0.3726 0.0
H56 H 0.89523 0.26146 0.38833 0.0
N57 N 0.90253 0.25523 0.32268 0.0
N58 N 0.88112 0.23417 0.29139 0.0
C59 C 0.89193 0.25677 0.29874 0.0
C60 C 0.89793 0.23088 0.33105 0.0
C61 C 0.88478 0.21779 0.31168 0.0
C62 C 0.96656 0.24776 0.31837 0.0
O63 O 0.94994 0.23756 0.30195 0.0
H64 H 0.8941 0.27348 0.28608 0.0
H65 H 0.90524 0.22273 0.34904 0.0
O66 O 0.90964 0.31297 0.32117 0.0
H67 H 0.91358 0.27935 0.43335 0.0
H68 H 0.87943 0.19746 0.31201 0.0
Cu69 Cu 0.52397 0.92221 0.94448 0.0
N70 N 0.53119 0.91578 0.9092 0.0
N71 N 0.54959 0.89453 0.87583 0.0
C72 C 0.54823 0.89713 0.90186 0.0
C73 C 0.5326 0.91242 0.86637 0.0
C74 C 0.52112 0.92531 0.88695 0.0
O75 O 0.51427 0.88709 0.95613 0.0
C76 C 0.55709 0.96256 0.94731 0.0
O77 O 0.54503 0.96576 0.92502 0.0
H78 H 0.55956 0.88574 0.91557 0.0
H79 H 0.50635 0.94032 0.88572 0.0
N80 N 0.49725 0.94565 0.95357 0.0
N81 N 0.47912 0.97304 0.98223 0.0
C82 C 0.49368 0.95147 0.97879 0.0
C83 C 0.48463 0.96453 0.94033 0.0
C84 C 0.47336 0.98143 0.95799 0.0
C85 C 0.49055 0.88137 0.96138 0.0
O86 O 0.47472 0.89983 0.96908 0.0
H87 H 0.5035 0.94112 0.99436 0.0
H88 H 0.48524 0.96707 0.91952 0.0
O89 O 0.55375 0.94101 0.95939 0.0
H90 H 0.52841 0.91571 0.84604 0.0
H91 H 0.4628 0.9991 0.95333 0.0
Cu92 Cu 0.17053 0.76364 0.22382 0.0
N93 N 0.16922 0.76881 0.18779 0.0
N94 N 0.1508 0.78795 0.15294 0.0
C95 C 0.16044 0.79122 0.17715 0.0
C96 C 0.15385 0.7624 0.14805 0.0
C97 C 0.16509 0.75065 0.16957 0.0
O98 O 0.13445 0.75232 0.23015 0.0
C99 C 0.20786 0.79984 0.23112 0.0
O100 O 0.21731 0.78441 0.21321 0.0
H101 H 0.15815 0.80889 0.18818 0.0
H102 H 0.16723 0.72997 0.17275 0.0
N103 N 0.19393 0.73795 0.23573 0.0
N104 N 0.21889 0.71587 0.26422 0.0
C105 C 0.20225 0.73601 0.26055 0.0
C106 C 0.20585 0.71854 0.22307 0.0
C107 C 0.2212 0.70488 0.24057 0.0
C108 C 0.12933 0.72853 0.23522 0.0
O109 O 0.14744 0.71407 0.2462 0.0
H110 H 0.19583 0.74899 0.27567 0.0
H111 H 0.20363 0.71462 0.20262 0.0
O112 O 0.18458 0.79562 0.23909 0.0
H113 H 0.14677 0.75258 0.13095 0.0
H114 H 0.23341 0.68835 0.23602 0.0
Cu115 Cu 1.02975 0.65721 0.09995 0.0
N116 N 0.04039 0.65548 0.1349 0.0
N117 N 0.05809 0.66982 0.17211 0.0
C118 C 0.05288 0.67513 0.14689 0.0
C119 C 0.04807 0.64583 0.17612 0.0
C120 C 0.03707 0.63713 0.15324 0.0
O121 O 1.00659 0.6878 0.09933 0.0
C122 C 0.08188 0.64558 0.08568 0.0
O123 O 0.08753 0.64766 0.11039 0.0
H124 H 0.05863 0.69273 0.1369 0.0
H125 H 1.02727 0.61881 0.15029 0.0
N126 N 1.01132 0.62867 0.08687 0.0
N127 N 0.99757 0.60559 0.05256 0.0
C128 C 1.00036 0.62946 0.06303 0.0
C129 C 1.0156 0.60329 0.09175 0.0
C130 C 1.00693 0.58902 0.07078 0.0
C131 C 0.98573 0.6842 0.11248 0.0
O132 O 0.98128 0.66073 0.12159 0.0
H133 H 0.99729 0.64743 0.05242 0.0
H134 H 1.02669 0.59583 0.10804 0.0
O135 O 0.06038 0.65516 0.07727 0.0
H136 H 0.0485 0.63523 0.19429 0.0
H137 H 1.00881 0.56821 0.06858 0.0
Cu138 Cu 0.90462 0.79033 0.22967 0.0
N139 N 0.90585 0.78469 0.19372 0.0
N140 N 0.92364 0.76488 0.15923 0.0
C141 C 0.91395 0.76199 0.18348 0.0
C142 C 0.92138 0.79049 0.15392 0.0
C143 C 0.91054 0.80264 0.17521 0.0
O144 O 0.94094 0.80019 0.23606 0.0
C145 C 0.86692 0.75459 0.23844 0.0
O146 O 0.85746 0.76908 0.21954 0.0
H147 H 0.91563 0.74426 0.19477 0.0
H148 H 0.909 0.82338 0.17801 0.0
N149 N 0.88221 0.81707 0.24078 0.0
N150 N 0.85907 0.84127 0.2687 0.0
C151 C 0.8749 0.82043 0.2657 0.0
C152 C 0.87041 0.83626 0.22737 0.0
C153 C 0.85618 0.8512 0.24449 0.0
C154 C 0.94693 0.82386 0.24027 0.0
O155 O 0.92985 0.83889 0.2518 0.0
H156 H 0.8816 0.80801 0.28137 0.0
H157 H 0.87201 0.8392 0.20666 0.0
O158 O 0.89015 0.75921 0.24627 0.0
H159 H 0.92866 0.80003 0.13664 0.0
H160 H 0.84438 0.86792 0.23932 0.0
Cu161 Cu 0.0373 0.88932 0.09505 0.0
N162 N 1.02804 0.89209 0.13019 0.0
N163 N 1.01303 0.87933 0.16913 0.0
C164 C 1.01601 0.87316 0.14385 0.0
C165 C 1.02403 0.90306 0.17142 0.0
C166 C 1.03341 0.91077 0.14748 0.0
O167 O 0.06277 0.86075 0.09467 0.0
C168 C 0.98431 0.89587 0.08103 0.0
O169 O 0.97928 0.89586 0.10595 0.0
H170 H 1.00922 0.85536 0.13512 0.0
H171 H 0.04384 0.92849 0.14317 0.0
N172 N 0.05188 0.91927 0.08025 0.0
N173 N 0.05993 0.94354 0.0448 0.0
C174 C 0.06088 0.91956 0.05566 0.0
C175 C 0.04511 0.94405 0.08516 0.0
C176 C 0.05026 0.95906 0.06346 0.0
C177 C 0.08408 0.86577 0.10655 0.0
O178 O 0.08781 0.88965 0.11457 0.0
H179 H 0.06502 0.90202 0.04495 0.0
H180 H 1.03444 0.95029 0.10207 0.0
O181 O 1.00614 0.88676 0.07326 0.0
H182 H 1.02556 0.91403 0.18916 0.0
H183 H 0.04565 0.97948 0.06109 0.0
Cu184 Cu 0.33336 0.16899 0.25284 0.0
N185 N 0.35899 0.1663 0.22688 0.0
N186 N 0.3857 0.14479 0.19979 0.0
C187 C 0.36353 0.14397 0.21401 0.0
C188 C 0.39546 0.1688 0.20388 0.0
C189 C 0.37903 0.18196 0.22062 0.0
O190 O 0.34835 0.15032 0.28311 0.0
C191 C 0.28425 0.16507 0.22493 0.0
O192 O 0.26283 0.15229 0.21935 0.0
H193 H 0.35158 0.12683 0.21645 0.0
H194 H 0.38223 0.20103 0.22865 0.0
N195 N 0.32185 0.20205 0.26316 0.0
N196 N 0.29291 0.23072 0.2789 0.0
C197 C 0.29911 0.20543 0.27597 0.0
C198 C 0.33052 0.22615 0.25785 0.0
C199 C 0.31279 0.24388 0.26774 0.0
C200 C 0.36698 0.16162 0.29509 0.0
O201 O 0.37344 0.18517 0.28754 0.0
H202 H 0.28704 0.18948 0.28254 0.0
H203 H 0.34794 0.23054 0.24689 0.0
O204 O 0.30172 0.15362 0.23881 0.0
H205 H 0.41357 0.17613 0.19596 0.0
H206 H 0.31405 0.26481 0.26616 0.0
Cu207 Cu 0.40561 0.49947 0.04039 0.0
N208 N 0.39992 0.46612 0.05503 0.0
N209 N 0.37907 0.43584 0.07901 0.0
C210 C 0.37951 0.46089 0.07077 0.0
C211 C 0.40023 0.42489 0.06777 0.0
C212 C 0.41298 0.44352 0.05303 0.0
O213 O 0.37427 0.50516 1.01866 0.0
C214 C 0.43527 0.51302 0.08118 0.0
O215 O 0.4445 0.49029 0.07433 0.0
H216 H 0.36506 0.47538 0.07572 0.0
H217 H 0.43058 0.44074 0.04184 0.0
N218 N 0.43479 0.50484 1.01868 0.0
N219 N 0.46483 0.52824 0.99703 0.0
C220 C 0.44367 0.52886 1.01264 0.0
C221 C 0.45109 0.48832 1.00666 0.0
C222 C 0.46949 0.50267 0.99321 0.0
C223 C 0.37419 0.48983 0.9992 0.0
O224 O 0.39433 0.47429 0.9962 0.0
H225 H 0.43447 0.54652 1.01937 0.0
H226 H 0.44969 0.46739 1.00749 0.0
O227 O 0.41518 0.5221 0.06931 0.0
H228 H 0.40639 0.4049 0.07015 0.0
H229 H 0.48525 0.49481 0.9817 0.0
Cu230 Cu 0.73078 0.39087 0.26261 0.0
N231 N 0.72315 0.41166 0.23296 0.0
N232 N 0.70581 0.44149 0.20567 0.0
C233 C 0.70363 0.42916 0.22893 0.0
C234 C 0.72739 0.43121 0.19475 0.0
C235 C 0.73795 0.41309 0.21147 0.0
O236 O 0.7095 0.40335 0.29179 0.0
C237 C 0.74085 0.34284 0.23909 0.0
O238 O 0.75856 0.35734 0.22775 0.0
H239 H 0.68869 0.43344 0.24309 0.0
H240 H 0.75576 0.40227 0.20836 0.0
N241 N 0.76656 0.39385 0.27106 0.0
N242 N 0.80673 0.38213 0.28447 0.0
C243 C 0.78091 0.37642 0.28468 0.0
C244 C 0.78393 0.41129 0.26203 0.0
C245 C 0.80868 0.40409 0.2702 0.0
C246 C 0.68468 0.40128 0.29175 0.0
O247 O 0.67343 0.38925 0.27232 0.0
H248 H 0.77267 0.35921 0.29357 0.0
H249 H 0.77906 0.42767 0.24968 0.0
O250 O 0.72534 0.35353 0.25525 0.0
H251 H 0.73521 0.43652 0.17598 0.0
H252 H 0.82669 0.41414 0.26583 0.0
Cu253 Cu 0.6524 0.09535 1.03241 0.0
N254 N 0.65184 0.12857 0.04716 0.0
N255 N 0.67015 0.16268 0.06702 0.0
C256 C 0.67425 0.14044 0.05395 0.0
C257 C 0.64384 0.16501 0.0683 0.0
C258 C 0.63257 0.14399 0.05589 0.0
O259 O 0.6815 0.09867 1.00778 0.0
C260 C 0.64621 0.07528 0.08326 0.0
O261 O 0.65311 0.09818 0.09191 0.0
H262 H 0.69328 0.13175 0.05099 0.0
H263 H 0.61196 0.13963 0.05455 0.0
N264 N 0.62279 0.08477 1.01393 0.0
N265 N 0.59661 0.0562 0.99423 0.0
C266 C 0.61931 0.0598 1.00695 0.0
C267 C 0.60133 0.0975 1.00563 0.0
C268 C 0.58525 0.07993 0.9932 0.0
C269 C 0.67561 0.11485 0.98972 0.0
O270 O 0.65148 0.12351 0.9887 0.0
H271 H 0.63348 0.0446 1.01082 0.0
H272 H 0.5977 0.11802 1.00829 0.0
O273 O 0.65219 0.06913 0.06008 0.0
H274 H 0.63343 0.1802 0.0784 0.0
H275 H 0.56659 0.08425 0.98422 0.0
Cu276 Cu 0.35293 0.89085 0.30285 0.0
N277 N 0.35468 0.91383 0.33105 0.0
N278 N 0.36735 0.94415 0.35954 0.0
C279 C 0.3731 0.93157 0.33722 0.0
C280 C 0.34461 0.93367 0.36764 0.0
C281 C 0.33696 0.91506 0.35019 0.0
O282 O 0.3764 0.90301 0.27512 0.0
C283 C 0.36611 0.83593 0.30286 0.0
O284 O 0.368 0.83826 0.27756 0.0
H285 H 0.39016 0.93534 0.32545 0.0
H286 H 0.31968 0.90309 0.3514 0.0
N287 N 0.31813 0.88927 0.29087 0.0
N288 N 0.28032 0.87295 0.27602 0.0
C289 C 0.30616 0.8687 0.27998 0.0
C290 C 0.29918 0.9072 0.29385 0.0
C291 C 0.27588 0.8972 0.28477 0.0
C292 C 0.37468 0.92631 0.26654 0.0
O293 O 0.35666 0.94164 0.27622 0.0
H294 H 0.31603 0.85062 0.27579 0.0
H295 H 0.302 0.92604 0.30254 0.0
O296 O 0.36142 0.85608 0.31635 0.0
H297 H 0.33434 0.93874 0.38522 0.0
H298 H 0.25717 0.90705 0.28456 0.0
Cu299 Cu 0.12692 0.47624 1.02926 0.0
N300 N 0.14559 0.46552 0.99968 0.0
N301 N 0.17534 0.44523 0.97494 0.0
C302 C 0.16962 0.45458 0.99877 0.0
C303 C 0.15428 0.45118 0.9602 0.0
C304 C 0.13607 0.46363 0.97545 0.0
O305 O 0.13958 0.45484 0.05878 0.0
C306 C 0.07111 0.48069 0.03733 0.0
O307 O 0.0775 0.48843 0.06072 0.0
H308 H 0.18186 0.45188 1.01571 0.0
H309 H 0.11671 0.4698 0.96957 0.0
N310 N 0.13443 0.51151 0.03554 0.0
N311 N 0.13056 0.55409 0.04437 0.0
C312 C 0.11782 0.5317 0.03902 0.0
C313 C 0.15845 0.52159 0.03839 0.0
C314 C 0.15617 0.54768 0.04386 0.0
C315 C 0.14629 0.43107 0.05596 0.0
O316 O 0.14137 0.41957 0.03384 0.0
H317 H 0.0968 0.52992 0.0384 0.0
H318 H 0.17641 0.51057 0.03698 0.0
O319 O 0.08916 0.47325 1.02199 0.0
H320 H 0.15178 0.44617 0.94001 0.0
H321 H 0.17221 0.56083 0.04743 0.0
Cu322 Cu 0.71981 0.67664 0.31836 0.0
N323 N 0.71276 0.65184 0.34434 0.0
N324 N 0.69287 0.62002 0.36681 0.0
C325 C 0.69247 0.63515 0.34519 0.0
C326 C 0.71432 0.62769 0.38 0.0
C327 C 0.72644 0.64726 0.36617 0.0
O328 O 0.69735 0.66868 0.28885 0.0
C329 C 0.70918 0.73153 0.31854 0.0
O330 O 0.70611 0.7291 0.29339 0.0
H331 H 0.67753 0.63446 0.33035 0.0
H332 H 0.74404 0.65744 0.37163 0.0
N333 N 0.75515 0.67554 0.30848 0.0
N334 N 0.79348 0.68846 0.29186 0.0
C335 C 0.76752 0.69323 0.29356 0.0
C336 C 0.77392 0.65891 0.31644 0.0
C337 C 0.79757 0.66686 0.30628 0.0
C338 C 0.70096 0.6474 0.27685 0.0
O339 O 0.72056 0.63239 0.28391 0.0
H340 H 0.75777 0.7098 0.28483 0.0
H341 H 0.77074 0.64243 0.32912 0.0
O342 O 0.71371 0.71134 0.33229 0.0
H343 H 0.7211 0.61957 0.39821 0.0
H344 H 0.81629 0.65746 0.30926 0.0
Cu345 Cu 0.93269 0.06136 1.02482 0.0
N346 N 0.92192 0.07336 0.99181 0.0
N347 N 0.90168 0.09335 0.95848 0.0
C348 C 0.90429 0.09175 0.98462 0.0
C349 C 0.91827 0.07538 0.94901 0.0
C350 C 0.93066 0.06321 0.96948 0.0
O351 O 0.91169 0.07682 0.05293 0.0
C352 C 0.98501 0.08119 1.01619 0.0
O353 O 0.97358 0.09979 1.00275 0.0
H354 H 0.89306 0.10316 0.99817 0.0
H355 H 0.94496 0.04776 0.96824 0.0
N356 N 0.92667 1.02544 1.02635 0.0
N357 N 0.93268 0.9829 0.03389 0.0
C358 C 0.94411 1.00651 1.03213 0.0
C359 C 0.90351 1.01337 1.02419 0.0
C360 C 0.90712 0.98719 1.02895 0.0
C361 C 0.90714 0.10095 0.05633 0.0
O362 O 0.91852 0.11798 0.04105 0.0
H363 H 0.96452 1.01015 0.03621 0.0
H364 H 0.88516 1.0231 1.02025 0.0
O365 O 0.97088 0.06477 1.02832 0.0
H366 H 0.92131 0.07134 0.92867 0.0
H367 H 0.89202 0.97252 1.02928 0.0
Cu368 Cu 0.27203 0.34481 0.16794 0.0
N369 N 0.2389 0.35376 0.15414 0.0
N370 N 0.20669 0.37385 0.13204 0.0
C371 C 0.23257 0.36814 0.13291 0.0
C372 C 0.19641 0.3625 0.15328 0.0
C373 C 0.21618 0.35009 0.16672 0.0
O374 O 0.3 0.36317 0.14886 0.0
C375 C 0.25883 0.37075 0.21579 0.0
O376 O 0.24836 0.38897 0.20111 0.0
H377 H 0.24674 0.37528 0.11907 0.0
H378 H 0.21433 0.33997 0.18507 0.0
N379 N 0.27855 0.30863 0.16567 0.0
N380 N 0.28594 0.26682 0.17687 0.0
C381 C 0.27544 0.28993 0.18408 0.0
C382 C 0.29127 0.29683 0.14622 0.0
C383 C 0.2958 0.27123 0.15299 0.0
C384 C 0.30117 0.38775 0.14561 0.0
O385 O 0.28326 0.40244 0.15638 0.0
H386 H 0.26665 0.29347 0.2028 0.0
H387 H 0.29758 0.30644 0.12861 0.0
O388 O 0.27126 0.35215 0.20515 0.0
H389 H 0.17604 0.36336 0.15883 0.0
H390 H 0.30572 0.25696 0.14122 0.0
Cu391 Cu 0.31301 0.68785 0.39447 0.0
N392 N 0.31313 0.65177 0.39995 0.0
N393 N 0.2957 0.61904 0.42326 0.0
C394 C 0.29103 0.63964 0.40747 0.0
C395 C 0.32194 0.61789 0.42553 0.0
C396 C 0.3326 0.63805 0.41118 0.0
O397 O 0.31861 0.69899 0.43035 0.0
C398 C 0.27854 0.68478 0.35429 0.0
O399 O 0.29555 0.66631 0.34935 0.0
H400 H 0.27185 0.64815 0.40472 0.0
H401 H 0.35272 0.64438 0.412 0.0
N402 N 0.33896 0.70214 0.37303 0.0
N403 N 0.35743 0.73386 0.34932 0.0
C404 C 0.33955 0.72779 0.36755 0.0
C405 C 0.35702 0.69136 0.35752 0.0
C406 C 0.36847 0.71092 0.34284 0.0
C407 C 0.34161 0.70501 0.43789 0.0
O408 O 0.35799 0.71472 0.4209 0.0
H409 H 0.32615 0.74159 0.37607 0.0
H410 H 0.3609 0.67074 0.35626 0.0
O411 O 0.28085 0.69716 0.37561 0.0
H412 H 0.33251 0.60494 0.43846 0.0
H413 H 0.38342 0.70836 0.32828 0.0
Cu414 Cu 0.93896 0.53267 0.93159 0.0
N415 N 0.90717 0.54811 0.92027 0.0
N416 N 0.87932 0.56891 0.89312 0.0
C417 C 0.90391 0.5597 0.89683 0.0
C418 C 0.86662 0.56276 0.91529 0.0
C419 C 0.88372 0.54986 0.93185 0.0
O420 O 0.94634 0.50536 0.90622 0.0
C421 C 0.95704 0.57872 0.95192 0.0
O422 O 0.93235 0.58539 0.94985 0.0
H423 H 0.91959 0.56171 0.88294 0.0
H424 H 0.87934 0.54233 0.95097 0.0
N425 N 0.94086 0.51632 0.96417 0.0
N426 N 0.96797 0.50197 0.99569 0.0
C427 C 0.96293 0.50305 0.96997 0.0
C428 C 0.93122 0.52383 0.98716 0.0
C429 C 0.9477 0.5148 1.00661 0.0
C430 C 0.93396 0.48417 0.91029 0.0
O431 O 0.91877 0.4824 0.9307 0.0
H432 H 0.97688 0.49765 0.95522 0.0
H433 H 0.91534 0.53751 0.9895 0.0
O434 O 0.96511 0.55926 0.93885 0.0
H435 H 0.84634 0.5671 0.91929 0.0
H436 H 0.94592 0.51933 1.02697 0.0
Cu437 Cu 0.77418 0.87734 0.4025 0.0
N438 N 0.77474 0.91333 0.40812 0.0
N439 N 0.79127 0.94662 0.43089 0.0
C440 C 0.79655 0.9252 0.41673 0.0
C441 C 0.76497 0.94848 0.43099 0.0
C442 C 0.75486 0.92794 0.41702 0.0
O443 O 0.77128 0.86488 0.4383 0.0
C444 C 0.80614 0.87901 0.35993 0.0
O445 O 0.78989 0.89834 0.35548 0.0
H446 H 0.81568 0.91626 0.41569 0.0
H447 H 0.73454 0.92227 0.41631 0.0
N448 N 0.74619 0.86421 0.38319 0.0
N449 N 0.72456 0.83332 0.36161 0.0
C450 C 0.74516 0.8389 0.37688 0.0
C451 C 0.72568 0.87537 0.37106 0.0
C452 C 0.71227 0.85627 0.35763 0.0
C453 C 0.74973 0.85592 0.44696 0.0
O454 O 0.73571 0.8409 0.43196 0.0
H455 H 0.75971 0.82486 0.38308 0.0
H456 H 0.72108 0.89588 0.37152 0.0
O457 O 0.8046 0.8671 0.38172 0.0
H458 H 0.75381 0.96238 0.44209 0.0
H459 H 0.6949 0.85904 0.34593 0.0
Cu460 Cu 0.59757 0.4992 0.42671 0.0
N461 N 0.60271 0.47262 0.40219 0.0
N462 N 0.61913 0.44685 0.3711 0.0
C463 C 0.62312 0.46804 0.38614 0.0
C464 C 0.59545 0.43783 0.37827 0.0
C465 C 0.58549 0.45363 0.39729 0.0
O466 O 0.62031 0.52866 0.41832 0.0
C467 C 0.60895 0.49876 0.48126 0.0
O468 O 0.60974 0.52417 0.47881 0.0
H469 H 0.64028 0.48023 0.38521 0.0
H470 H 0.56689 0.45144 0.40695 0.0
N471 N 0.56206 0.50941 0.42659 0.0
N472 N 0.52161 0.51994 0.44021 0.0
C473 C 0.54661 0.51439 0.44723 0.0
C474 C 0.54631 0.51182 0.40581 0.0
C475 C 0.52152 0.51835 0.41407 0.0
C476 C 0.62069 0.53837 0.3955 0.0
O477 O 0.60506 0.52869 0.37782 0.0
H478 H 0.55369 0.51406 0.46699 0.0
H479 H 0.55236 0.50866 0.386 0.0
O480 O 0.60505 0.48497 0.46119 0.0
H481 H 0.58598 0.42077 0.37055 0.0
H482 H 0.50467 0.52127 0.40168 0.0
Cu483 Cu 0.2778 0.69921 0.66576 0.0
N484 N 0.2747 0.66303 0.66243 0.0
N485 N 0.29067 0.62763 0.64244 0.0
C486 C 0.29609 0.64858 0.65719 0.0
C487 C 0.26462 0.62868 0.63849 0.0
C488 C 0.25486 0.65049 0.65079 0.0
O489 O 0.27591 0.70923 0.62916 0.0
C490 C 0.30952 0.69525 0.70785 0.0
O491 O 0.29048 0.67901 0.71315 0.0
H492 H 0.31572 0.65549 0.66072 0.0
H493 H 0.23546 0.65851 0.64822 0.0
N494 N 0.25231 0.7176 0.68449 0.0
N495 N 0.23582 0.75334 0.70324 0.0
C496 C 0.25455 0.74344 0.68778 0.0
C497 C 0.23156 0.71056 0.69889 0.0
C498 C 0.22132 0.73265 0.71051 0.0
C499 C 0.25451 0.71803 0.61977 0.0
O500 O 0.23998 0.73311 0.63426 0.0
H501 H 0.27016 0.75472 0.67923 0.0
H502 H 0.22467 0.69084 0.70118 0.0
O503 O 0.30961 0.70635 0.6856 0.0
H504 H 0.25379 0.61601 0.62575 0.0
H505 H 0.20453 0.73342 0.7232 0.0
Cu506 Cu 0.98811 0.52116 0.65563 0.0
N507 N 0.9792 0.49207 0.67655 0.0
N508 N 0.95722 0.46081 0.69796 0.0
C509 C 0.95547 0.48362 0.68469 0.0
C510 C 0.98294 0.45499 0.6983 0.0
C511 C 0.99631 0.47413 0.68523 0.0
O512 O 0.9745 0.55275 0.67244 0.0
C513 C 0.9822 0.49294 0.61024 0.0
O514 O 0.99402 0.47593 0.62534 0.0
H515 H 0.93729 0.49351 0.68031 0.0
H516 H 1.01711 0.47455 0.68173 0.0
N517 N 1.02486 0.52453 0.65349 0.0
N518 N 0.06504 0.53146 0.637 0.0
C519 C 0.03905 0.52951 0.63195 0.0
C520 C 0.04241 0.52341 0.67291 0.0
C521 C 0.06706 0.52757 0.66287 0.0
C522 C 0.95056 0.55965 0.67306 0.0
O523 O 0.9333 0.54591 0.66023 0.0
H524 H 1.03026 0.53229 0.61305 0.0
H525 H 0.03759 0.51997 0.69304 0.0
O526 O 0.97631 0.51507 0.61971 0.0
H527 H 0.99157 0.43796 0.70733 0.0
H528 H 0.08502 0.52774 0.67395 0.0
Cu529 Cu 0.09626 0.06117 0.64308 0.0
N530 N 0.1052 0.09313 0.65835 0.0
N531 N 0.12221 0.12391 0.68391 0.0
C532 C 0.11485 0.09868 0.68213 0.0
C533 C 0.11681 0.13452 0.66055 0.0
C534 C 0.10633 0.11562 0.64496 0.0
O535 O 0.11784 1.03321 0.65874 0.0
C536 C 0.09936 0.05069 0.58747 0.0
O537 O 0.09187 1.02683 0.59261 0.0
H538 H 0.11751 0.08435 0.69738 0.0
H539 H 0.10067 0.11789 0.62485 0.0
N540 N 0.06017 0.0546 0.64749 0.0
N541 N 1.01774 0.04593 0.63974 0.0
C542 C 0.04154 0.05074 0.62921 0.0
C543 C 0.04765 0.0524 0.67028 0.0
C544 C 1.02167 0.04701 0.66562 0.0
C545 C 0.14261 0.03573 0.66016 0.0
O546 O 0.15319 0.05666 0.64998 0.0
H547 H 0.04548 0.0508 0.60862 0.0
H548 H 0.05689 0.05435 0.68905 0.0
O549 O 0.10299 0.06647 0.60605 0.0
H550 H 0.12038 0.15453 0.65507 0.0
H551 H 1.00685 0.04403 0.68025 0.0
Cu552 Cu 0.67136 0.80566 0.84466 0.0
N553 N 0.66563 0.8009 0.88046 0.0
N554 N 0.6472 0.78098 0.91478 0.0
C555 C 0.64767 0.78357 0.88873 0.0
C556 C 0.66573 0.79751 0.92338 0.0
C557 C 0.67693 0.80996 0.90218 0.0
O558 O 0.63481 0.81007 0.83325 0.0
C559 C 0.71682 0.77855 0.84571 0.0
O560 O 0.71958 0.79678 0.86319 0.0
H561 H 0.63592 0.77214 0.87562 0.0
H562 H 0.69264 0.82395 0.90259 0.0
N563 N 0.69011 0.83445 0.83203 0.0
N564 N 0.71138 0.8568 0.80101 0.0
C565 C 0.69987 0.83419 0.80774 0.0
C566 C 0.69579 0.8581 0.84136 0.0
C567 C 0.70903 0.8719 0.82228 0.0
C568 C 0.62649 0.83156 0.82364 0.0
O569 O 0.64228 0.8454 0.80912 0.0
H570 H 0.69831 0.81753 0.79517 0.0
H571 H 0.69032 0.86498 0.86036 0.0
O572 O 0.69465 0.77685 0.83416 0.0
H573 H 0.67113 0.80013 0.94349 0.0
H574 H 0.71584 0.89171 0.82381 0.0
Cu575 Cu 0.05 0.14329 0.44385 0.0
N576 N 0.04385 0.14957 0.40832 0.0
N577 N 1.02973 0.17276 0.37387 0.0
C578 C 1.03051 0.17073 0.40001 0.0
C579 C 0.04316 0.15183 0.36536 0.0
C580 C 0.05204 0.13771 0.38662 0.0
O581 O 0.06272 0.17775 0.45471 0.0
C582 C 1.01255 0.10585 0.44836 0.0
O583 O 1.02409 0.10046 0.42633 0.0
H584 H 1.0215 0.18442 0.41309 0.0
H585 H 0.0639 0.12032 0.38621 0.0
N586 N 0.07507 0.11823 0.45339 0.0
N587 N 0.09268 0.09161 0.48339 0.0
C588 C 0.08098 0.11467 0.47865 0.0
C589 C 0.08339 0.09651 0.44152 0.0
C590 C 0.09431 0.08006 0.46 0.0
C591 C 0.08738 0.18199 0.45456 0.0
O592 O 0.10345 0.16218 0.45293 0.0
H593 H 0.07437 0.12774 0.49364 0.0
H594 H 0.0797 0.09188 0.42144 0.0
O595 O 1.01862 0.12723 0.45945 0.0
H596 H 0.04678 0.14727 0.34524 0.0
H597 H 0.10147 0.06057 0.4567 0.0
Cu598 Cu 0.41889 0.77366 0.83506 0.0
N599 N 0.41895 0.78394 0.86998 0.0
N600 N 0.43421 0.80329 0.90585 0.0
C601 C 0.43832 0.79815 0.8805 0.0
C602 C 0.41118 0.79173 0.91142 0.0
C603 C 0.40186 0.7798 0.88932 0.0
O604 O 0.45269 0.75569 0.83112 0.0
C605 C 0.38567 0.8114 0.81887 0.0
O606 O 0.37261 0.79892 0.83692 0.0
H607 H 0.4548 0.80516 0.86942 0.0
H608 H 0.38377 0.76922 0.88751 0.0
N609 N 0.39311 0.74965 0.82516 0.0
N610 N 0.36724 0.72784 0.79777 0.0
C611 C 0.3866 0.74542 0.80017 0.0
C612 C 0.37723 0.73428 0.83918 0.0
C613 C 0.36133 0.72076 0.82236 0.0
C614 C 0.45328 0.73478 0.8447 0.0
O615 O 0.43231 0.72853 0.85792 0.0
H616 H 0.39605 0.75511 0.78406 0.0
H617 H 0.37712 0.73294 0.86009 0.0
O618 O 0.4093 0.80455 0.81438 0.0
H619 H 0.40157 0.79195 0.93007 0.0
H620 H 0.34624 0.70717 0.82791 0.0
Cu621 Cu 1.02482 0.41979 0.45374 0.0
N622 N 1.02672 0.41555 0.41757 0.0
N623 N 0.04323 0.39703 0.38181 0.0
C624 C 0.04181 0.39642 0.40791 0.0
C625 C 1.02828 0.41754 0.3746 0.0
C626 C 1.01788 0.42881 0.39672 0.0
O627 O 1.01723 0.38387 0.4642 0.0
C628 C 0.06089 0.45787 0.45205 0.0
O629 O 0.04375 0.46447 0.4342 0.0
H630 H 0.05268 0.38298 0.42007 0.0
H631 H 1.00564 0.44594 0.39752 0.0
N632 N 1.00001 0.44229 0.46865 0.0
N633 N 0.98351 0.46416 0.50253 0.0
C634 C 0.99796 0.4437 0.49465 0.0
C635 C 0.98652 0.46292 0.4595 0.0
C636 C 0.97627 0.47644 0.4804 0.0
C637 C 0.99352 0.37707 0.46801 0.0
O638 O 0.97627 0.39496 0.47389 0.0
H639 H 1.00845 0.43074 0.50762 0.0
H640 H 0.98549 0.46863 0.43931 0.0
O641 O 0.05772 0.43628 0.46404 0.0
H642 H 1.02545 0.42422 0.35485 0.0
H643 H 0.96509 0.49429 0.47938 0.0
Cu644 Cu 0.67711 0.24452 0.713 0.0
N645 N 0.66901 0.25684 0.67946 0.0
N646 N 0.64688 0.27956 0.64918 0.0
C647 C 0.6511 0.27562 0.6748 0.0
C648 C 0.66285 0.26251 0.63722 0.0
C649 C 0.67624 0.24836 0.6559 0.0
O650 O 0.64328 0.23139 0.72554 0.0
C651 C 0.71623 0.27883 0.72139 0.0
O652 O 0.7206 0.27087 0.69765 0.0
H653 H 0.64125 0.28612 0.69005 0.0
H654 H 0.68967 0.23258 0.65241 0.0
N655 N 0.70283 0.21848 0.71575 0.0
N656 N 0.73607 0.20115 0.73854 0.0
C657 C 0.71203 0.21188 0.73942 0.0
C658 C 0.72175 0.21135 0.69911 0.0
C659 C 0.74225 0.20063 0.71313 0.0
C660 C 0.63855 0.20708 0.72756 0.0
O661 O 0.6581 0.19055 0.72695 0.0
H662 H 0.70263 0.21794 0.75717 0.0
H663 H 0.72218 0.21629 0.67876 0.0
O664 O 0.69478 0.27224 0.73226 0.0
H665 H 0.66428 0.25995 0.61647 0.0
H666 H 0.76102 0.19488 0.7054 0.0
Cu667 Cu 0.51315 0.14411 0.62318 0.0
N668 N 0.52045 0.14569 0.65887 0.0
N669 N 0.54405 0.15989 0.69263 0.0
C670 C 0.53725 0.16374 0.66763 0.0
C671 C 0.53074 0.13848 0.70009 0.0
C672 C 0.51597 0.12987 0.67927 0.0
O673 O 0.49974 0.17948 0.61655 0.0
C674 C 0.55241 0.10973 0.61761 0.0
O675 O 0.5375 0.09973 0.63574 0.0
H676 H 0.54595 0.17831 0.65514 0.0
H677 H 0.50428 0.11243 0.67864 0.0
N678 N 0.48915 0.11954 0.6106 0.0
N679 N 0.47052 0.09561 0.57936 0.0
C680 C 0.48588 0.11612 0.58489 0.0
C681 C 0.47539 0.10039 0.62197 0.0
C682 C 0.46388 0.08557 0.60271 0.0
C683 C 0.47509 0.18322 0.61457 0.0
O684 O 0.45988 0.16324 0.61026 0.0
H685 H 0.49577 0.12785 0.57047 0.0
H686 H 0.47455 0.09683 0.64263 0.0
O687 O 0.54597 0.13175 0.60775 0.0
H688 H 0.53243 0.12908 0.71885 0.0
H689 H 0.45197 0.06849 0.60571 0.0
Cu690 Cu 0.40051 0.29656 0.73474 0.0
N691 N 0.40196 0.285 0.7002 0.0
N692 N 0.41759 0.26403 0.66537 0.0
C693 C 0.42213 0.27144 0.6901 0.0
C694 C 0.39359 0.27361 0.65972 0.0
C695 C 0.38404 0.28646 0.68116 0.0
O696 O 0.43494 0.31247 0.74067 0.0
C697 C 0.37908 0.24701 0.74896 0.0
O698 O 0.38435 0.24023 0.72506 0.0
H699 H 0.43925 0.26606 0.70126 0.0
H700 H 0.36502 0.29542 0.68294 0.0
N701 N 0.37531 0.32232 0.74131 0.0
N702 N 0.34954 0.34783 0.76553 0.0
C703 C 0.3683 0.32929 0.76549 0.0
C704 C 0.36044 0.33691 0.72532 0.0
C705 C 0.34459 0.35267 0.74018 0.0
C706 C 0.43792 0.33358 0.72781 0.0
O707 O 0.41822 0.34215 0.7138 0.0
H708 H 0.37706 0.3209 0.78272 0.0
H709 H 0.36108 0.33628 0.7044 0.0
O710 O 0.38822 0.26835 0.75762 0.0
H711 H 0.38328 0.27111 0.64158 0.0
H712 H 0.33024 0.36629 0.73275 0.0
Cu713 Cu 0.55606 0.40687 0.6269 0.0
N714 N 0.55306 0.40323 0.66299 0.0
N715 N 0.53113 0.38555 0.6964 0.0
C716 C 0.52955 0.3994 0.6741 0.0
C717 C 0.55683 0.3806 0.69966 0.0
C718 C 0.57029 0.39148 0.67902 0.0
O719 O 0.56344 0.37069 0.61704 0.0
C720 C 0.5225 0.44753 0.62591 0.0
O721 O 0.53948 0.45318 0.64415 0.0
H722 H 0.51134 0.40345 0.66411 0.0
H723 H 0.59061 0.38812 0.6744 0.0
N724 N 0.58252 0.42844 0.61401 0.0
N725 N 0.60149 0.45244 0.58296 0.0
C726 C 0.58339 0.43434 0.58856 0.0
C727 C 0.60056 0.44369 0.62523 0.0
C728 C 0.61233 0.4586 0.60602 0.0
C729 C 0.58543 0.36367 0.60762 0.0
O730 O 0.60018 0.38103 0.59614 0.0
H731 H 0.57008 0.42612 0.57452 0.0
H732 H 0.6042 0.44463 0.64586 0.0
O733 O 0.52453 0.42542 0.61483 0.0
H734 H 0.56506 0.36821 0.71463 0.0
H735 H 0.62734 0.47307 0.60886 0.0
Cu736 Cu 0.85071 0.67565 0.77313 0.0
N737 N 0.88487 0.66659 0.76259 0.0
N738 N 0.91345 0.64233 0.73991 0.0
C739 C 0.88808 0.64795 0.74461 0.0
C740 C 0.92685 0.65828 0.7559 0.0
C741 C 0.90919 0.67318 0.76988 0.0
O742 O 0.8402 0.64334 0.79137 0.0
C743 C 0.84981 0.71319 0.73649 0.0
O744 O 0.87161 0.71644 0.74952 0.0
H745 H 0.8717 0.63815 0.73577 0.0
H746 H 0.91378 0.68742 0.78451 0.0
N747 N 0.84247 0.7012 0.79754 0.0
N748 N 0.8134 0.72715 0.81732 0.0
C749 C 0.81701 0.70677 0.80145 0.0
C750 C 0.8558 0.71872 0.81148 0.0
C751 C 0.83787 0.73466 0.82387 0.0
C752 C 0.85432 0.64025 0.81185 0.0
O753 O 0.87158 0.65815 0.8175 0.0
H754 H 0.80137 0.69611 0.79228 0.0
H755 H 0.87685 0.72034 0.81196 0.0
O756 O 0.83552 0.69347 0.74232 0.0
H757 H 0.94789 0.65917 0.75758 0.0
H758 H 0.84258 0.75107 0.83601 0.0
Cu759 Cu 0.90172 0.98923 0.54206 0.0
N760 N 0.89548 0.95507 0.55484 0.0
N761 N 0.87195 0.92183 0.5712 0.0
C762 C 0.87153 0.94652 0.56197 0.0
C763 C 0.89724 0.91446 0.56968 0.0
C764 C 0.91163 0.93484 0.55943 0.0
O765 O 0.87068 0.99576 0.52012 0.0
C766 C 0.93248 1.00377 0.58269 0.0
O767 O 0.94231 0.98123 0.5761 0.0
H768 H 0.85407 0.95837 0.56062 0.0
H769 H 0.93239 0.93481 0.5556 0.0
N770 N 0.93061 0.99522 0.52022 0.0
N771 N 0.95901 1.01953 0.49748 0.0
C772 C 0.93806 1.01949 0.51333 0.0
C773 C 0.94769 0.97922 0.50859 0.0
C774 C 0.96508 0.99415 0.49439 0.0
C775 C 0.87102 0.98124 0.50003 0.0
O776 O 0.89125 0.96591 0.49667 0.0
H777 H 0.92787 0.03684 0.51948 0.0
H778 H 0.9474 0.95826 0.51011 0.0
O779 O 0.91166 1.01175 0.57123 0.0
H780 H 0.90474 0.8955 0.57505 0.0
H781 H 0.98104 0.98686 0.48276 0.0
Cu782 Cu 0.23799 0.90587 0.76229 0.0
N783 N 0.23027 0.93 0.73522 0.0
N784 N 0.21161 0.96012 0.7091 0.0
C785 C 0.20869 0.94473 0.73041 0.0
C786 C 0.23577 0.95462 0.70023 0.0
C787 C 0.24708 0.93627 0.7162 0.0
O788 O 0.22412 0.91853 0.79545 0.0
C789 C 0.23538 0.86152 0.73186 0.0
O790 O 0.25015 0.87663 0.71749 0.0
H791 H 0.19148 0.94462 0.74253 0.0
H792 H 0.26641 0.92805 0.71407 0.0
N793 N 0.27456 0.90288 0.76653 0.0
N794 N 0.31402 0.88528 0.77501 0.0
C795 C 0.28792 0.88112 0.77305 0.0
C796 C 0.29277 0.92155 0.76442 0.0
C797 C 0.31702 0.91082 0.76957 0.0
C798 C 0.20001 0.92107 0.80104 0.0
O799 O 0.18237 0.91377 0.78408 0.0
H800 H 0.27847 0.86273 0.77684 0.0
H801 H 0.28868 0.94163 0.75959 0.0
O802 O 0.22621 0.87072 0.75291 0.0
H803 H 0.24471 0.96313 0.68319 0.0
H804 H 0.3354 0.92113 0.76929 0.0
Cu805 Cu 0.17566 0.58238 0.52691 0.0
N806 N 0.17688 0.61789 0.53491 0.0
N807 N 0.19389 0.65466 0.55089 0.0
C808 C 0.19665 0.62866 0.54837 0.0
C809 C 0.17127 0.66036 0.53844 0.0
C810 C 0.16087 0.63771 0.5286 0.0
O811 O 0.20958 0.57607 0.50978 0.0
C812 C 0.14076 0.56982 0.56442 0.0
O813 O 0.12889 0.58796 0.55076 0.0
H814 H 0.2126 0.61736 0.55641 0.0
H815 H 0.14295 0.63592 0.51768 0.0
N816 N 0.14993 0.57232 0.50298 0.0
N817 N 0.1233 0.54494 0.48223 0.0
C818 C 0.14198 0.54749 0.50051 0.0
C819 C 0.13561 0.58607 0.48577 0.0
C820 C 0.11927 0.56921 0.47288 0.0
C821 C 0.211 0.58864 0.48829 0.0
O822 O 0.19078 0.60267 0.48108 0.0
H823 H 0.14998 0.53156 0.51182 0.0
H824 H 0.13698 0.60679 0.48267 0.0
O825 O 0.16436 0.56387 0.55857 0.0
H826 H 0.16275 0.67951 0.53637 0.0
H827 H 0.10523 0.5745 0.45802 0.0
Cu828 Cu 0.85075 0.38145 0.79288 0.0
N829 N 0.87855 0.38209 0.81651 0.0
N830 N 0.90733 0.40129 0.84289 0.0
C831 C 0.88765 0.40472 0.82579 0.0
C832 C 0.91084 0.37531 0.84444 0.0
C833 C 0.89327 0.36349 0.82785 0.0
O834 O 0.86341 0.40345 0.76414 0.0
C835 C 0.80497 0.38343 0.82576 0.0
O836 O 0.78366 0.39516 0.83368 0.0
H837 H 0.87922 0.4234 0.82075 0.0
H838 H 0.89094 0.34286 0.82497 0.0
N839 N 0.83925 0.34894 0.7812 0.0
N840 N 0.8096 0.31976 0.76804 0.0
C841 C 0.81491 0.34514 0.77182 0.0
C842 C 0.84989 0.3251 0.78327 0.0
C843 C 0.83172 0.30709 0.77504 0.0
C844 C 0.88389 0.39543 0.75254 0.0
O845 O 0.89263 0.37207 0.75834 0.0
H846 H 0.80113 0.36078 0.76844 0.0
H847 H 0.86913 0.32096 0.79092 0.0
O848 O 0.8203 0.3957 0.81037 0.0
H849 H 0.92481 0.36555 0.85695 0.0
H850 H 0.83435 0.28623 0.77498 0.0
Cu851 Cu 0.66692 0.99172 0.53287 0.0
N852 N 0.66887 0.95571 0.52821 0.0
N853 N 0.68729 0.91868 0.51454 0.0
C854 C 0.68786 0.94487 0.5138 0.0
C855 C 0.66682 0.91275 0.52999 0.0
C856 C 0.65561 0.93566 0.53858 0.0
O857 O 0.70384 0.99896 0.5407 0.0
C858 C 0.6252 0.99839 0.50048 0.0
O859 O 0.61773 0.9803 0.51693 0.0
H860 H 0.70193 0.9562 0.50296 0.0
H861 H 0.63929 0.93752 0.55171 0.0
N862 N 0.64643 1.00252 0.5608 0.0
N863 N 0.62204 1.02963 0.58449 0.0
C864 C 0.63487 1.02607 0.56196 0.0
C865 C 0.6407 0.99057 0.5833 0.0
C866 C 0.62565 1.00724 0.59796 0.0
C867 C 0.71159 1.00505 0.56346 0.0
O868 O 0.69581 1.01826 0.57849 0.0
H869 H 0.63636 0.0405 0.5467 0.0
H870 H 0.64722 0.9713 0.58876 0.0
O871 O 0.64869 1.00676 0.50238 0.0
H872 H 0.66067 0.8933 0.53512 0.0
H873 H 0.61779 1.00303 0.61698 0.0
Cu874 Cu 0.20816 0.20056 0.80088 0.0
N875 N 0.19398 0.18285 0.82969 0.0
N876 N 0.1732 0.15237 0.85308 0.0
C877 C 0.18692 0.1576 0.83125 0.0
C878 C 0.1721 0.17507 0.86596 0.0
C879 C 0.18493 0.19373 0.85157 0.0
O880 O 0.18966 0.18889 0.76946 0.0
C881 C 0.18865 0.25267 0.81419 0.0
O882 O 0.16512 0.24284 0.8165 0.0
H883 H 0.19056 0.14369 0.81602 0.0
H884 H 0.18684 0.21402 0.85642 0.0
N885 N 0.24388 0.19257 0.79721 0.0
N886 N 0.28671 0.19744 0.78903 0.0
C887 C 0.26341 0.20952 0.79227 0.0
C888 C 0.25521 0.16897 0.79726 0.0
C889 C 0.28153 0.17189 0.79216 0.0
C890 C 0.16644 0.17986 0.77006 0.0
O891 O 0.15293 0.18146 0.7916 0.0
H892 H 0.26039 0.23024 0.79009 0.0
H893 H 0.24494 0.15087 0.80025 0.0
O894 O 0.20742 0.23818 0.8068 0.0
H895 H 0.16265 0.17801 0.88446 0.0
H896 H 0.2957 0.15634 0.79062 0.0
Cu897 Cu 0.41109 0.57535 0.54677 0.0
N898 N 0.41124 0.61044 0.53635 0.0
N899 N 0.39612 0.64646 0.51644 0.0
C900 C 0.3926 0.62078 0.52085 0.0
C901 C 0.41803 0.65243 0.52982 0.0
C902 C 0.42724 0.63025 0.54211 0.0
O903 O 0.37678 0.57199 0.56403 0.0
C904 C 0.44441 0.56053 0.50893 0.0
O905 O 0.45702 0.57897 0.52112 0.0
H906 H 0.37695 0.60938 0.51262 0.0
H907 H 0.4444 0.62877 0.55426 0.0
N908 N 0.43683 0.56469 0.57083 0.0
N909 N 0.46319 0.53684 0.59211 0.0
C910 C 0.44408 0.53961 0.5742 0.0
C911 C 0.4521 0.57834 0.58702 0.0
C912 C 0.46824 0.56124 0.60023 0.0
C913 C 0.37594 0.58492 0.58517 0.0
O914 O 0.39729 0.59671 0.59279 0.0
H915 H 0.43531 0.52368 0.56376 0.0
H916 H 0.45158 0.59919 0.58916 0.0
O917 O 0.42105 0.55514 0.51603 0.0
H918 H 0.42683 0.67148 0.53082 0.0
H919 H 0.48285 0.56646 0.61444 0.0
Cu920 Cu 0.78545 0.86788 0.65504 0.0
N921 N 0.79034 0.90296 0.64546 0.0
N922 N 0.78026 0.93967 0.62368 0.0
C923 C 0.77387 0.91471 0.62854 0.0
C924 C 0.80154 0.94409 0.63854 0.0
C925 C 0.80784 0.92133 0.65185 0.0
O926 O 0.7756 0.85153 0.62254 0.0
C927 C 0.765 0.87693 0.70414 0.0
O928 O 0.78712 0.88975 0.70545 0.0
H929 H 0.75726 0.905 0.61997 0.0
H930 H 0.82396 0.91845 0.66517 0.0
N931 N 0.81269 0.84721 0.66862 0.0
N932 N 0.83075 0.81075 0.68519 0.0
C933 C 0.80893 0.82206 0.67546 0.0
C934 C 0.83774 0.85223 0.67453 0.0
C935 C 0.84896 0.82977 0.68456 0.0
C936 C 0.78518 0.85568 0.5999 0.0
O937 O 0.77427 0.84405 0.58007 0.0
H938 H 0.79043 0.81221 0.67317 0.0
H939 H 0.84716 0.87082 0.6718 0.0
O940 O 0.75889 0.86634 0.6826 0.0
H941 H 0.81194 0.96233 0.6395 0.0
H942 H 0.86889 0.82779 0.69134 0.0
Cu943 Cu 0.8034 0.20464 0.88583 0.0
N944 N 0.77548 0.20056 0.90887 0.0
N945 N 0.74494 0.18159 0.93348 0.0
C946 C 0.76794 0.17849 0.92109 0.0
C947 C 0.73783 0.20648 0.92894 0.0
C948 C 0.75673 0.21814 0.91388 0.0
O949 O 0.83182 0.18309 0.89998 0.0
C950 C 0.80033 0.20012 0.83015 0.0
O951 O 0.82301 0.21201 0.82971 0.0
H952 H 0.77824 0.16018 0.91966 0.0
H953 H 0.75628 0.23772 0.90614 0.0
N954 N 0.81379 0.23987 0.88418 0.0
N955 N 0.81913 0.28164 0.8719 0.0
C956 C 0.80656 0.2589 0.86731 0.0
C957 C 0.8313 0.25099 0.90001 0.0
C958 C 0.8346 0.27653 0.8926 0.0
C959 C 0.83295 0.15856 0.897 0.0
O960 O 0.81605 0.14737 0.8815 0.0
H961 H 0.79266 0.25596 0.85179 0.0
H962 H 0.84107 0.24111 0.91589 0.0
O963 O 0.7902 0.19411 0.8519 0.0
H964 H 0.71978 0.21534 0.93536 0.0
H965 H 0.84723 0.29032 0.90214 0.0
Cu966 Cu 0.46721 0.05959 0.42075 0.0
N967 N 0.45841 0.08727 0.39791 0.0
N968 N 0.43726 0.11405 0.37008 0.0
C969 C 0.43698 0.09078 0.38267 0.0
C970 C 0.45986 0.12527 0.37762 0.0
C971 C 0.47265 0.10891 0.39467 0.0
O972 O 0.44876 1.02847 0.40904 0.0
C973 C 0.45776 0.05507 0.47587 0.0
O974 O 0.45944 1.02989 0.47223 0.0
H975 H 0.42126 0.07687 0.38131 0.0
H976 H 0.49104 0.11264 0.40429 0.0
N977 N 0.50373 0.05332 0.42058 0.0
N978 N 0.54396 0.04172 0.43435 0.0
C979 C 0.51801 0.04194 0.43964 0.0
C980 C 0.52132 0.06051 0.40255 0.0
C981 C 0.54604 0.05347 0.41097 0.0
C982 C 0.42406 1.02621 0.41099 0.0
O983 O 0.4109 0.04438 0.42311 0.0
H984 H 0.50956 0.03446 0.45735 0.0
H985 H 0.51654 0.07041 0.38459 0.0
O986 O 0.45881 0.07029 0.45628 0.0
H987 H 0.4669 0.14403 0.37121 0.0
H988 H 0.5641 0.05653 0.40053 0.0
Cu989 Cu 0.26756 0.39112 0.89949 0.0
N990 N 0.27107 0.42597 0.90967 0.0
N991 N 0.29094 0.45737 0.93242 0.0
C992 C 0.29378 0.4348 0.91947 0.0
C993 C 0.26526 0.46315 0.93057 0.0
C994 C 0.25305 0.44379 0.91644 0.0
O995 O 0.27105 0.37067 0.93113 0.0
C996 C 0.29486 0.39224 0.85266 0.0
O997 O 0.2775 0.4105 0.84778 0.0
H998 H 0.31167 0.42354 0.91915 0.0
H999 H 0.23228 0.44185 0.91325 0.0
N1000 N 0.23729 0.38038 0.88209 0.0
N1001 N 0.21365 0.35206 0.85899 0.0
C1002 C 0.23626 0.3565 0.87165 0.0
C1003 C 0.21441 0.39176 0.87576 0.0
C1004 C 0.19963 0.37416 0.86169 0.0
C1005 C 0.25974 0.37469 0.95281 0.0
O1006 O 0.26656 0.36045 0.97293 0.0
H1007 H 0.25203 0.34254 0.87345 0.0
H1008 H 0.20889 0.41136 0.88087 0.0
O1009 O 0.29542 0.38203 0.87525 0.0
H1010 H 0.25577 0.47948 0.93976 0.0
H1011 H 0.18036 0.37756 0.85367 0.0
Cu1012 Cu 0.11638 1.02031 0.9308 0.0
N1013 N 0.14402 0.99772 0.92187 0.0
N1014 N 0.16776 0.97246 0.89538 0.0
C1015 C 0.14638 0.98768 0.89787 0.0
C1016 C 0.17951 0.97312 0.91887 0.0
C1017 C 0.16479 0.98865 0.9352 0.0
O1018 O 0.11686 0.04846 0.90462 0.0
C1019 C 0.0869 0.97486 0.94069 0.0
O1020 O 0.10525 0.96151 0.92902 0.0
H1021 H 0.13268 0.99189 0.88239 0.0
H1022 H 0.169 0.9931 0.95524 0.0
N1023 N 0.11782 0.0378 0.96276 0.0
N1024 N 0.09233 0.05905 0.99133 0.0
C1025 C 0.09696 0.03661 0.97873 0.0
C1026 C 0.12756 0.0618 0.96638 0.0
C1027 C 0.11194 0.07489 0.98389 0.0
C1028 C 0.13961 0.05668 0.89838 0.0
O1029 O 0.16022 0.04556 0.90885 0.0
H1030 H 0.08269 1.02145 0.9776 0.0
H1031 H 0.14231 0.07065 0.95426 0.0
O1032 O 0.0847 0.99908 0.93536 0.0
H1033 H 0.19731 0.96291 0.92403 0.0
H1034 H 0.11324 0.09534 0.98842 0.0
Cu1035 Cu 0.79258 0.19574 0.16577 0.0
N1036 N 0.80539 0.16283 0.15555 0.0
N1037 N 0.83061 0.13599 0.13182 0.0
C1038 C 0.825 0.16087 0.13819 0.0
C1039 C 0.8136 0.12168 0.14601 0.0
C1040 C 0.79806 0.13825 0.16052 0.0
O1041 O 0.77126 0.20621 0.13565 0.0
C1042 C 0.83665 0.20173 0.19504 0.0
O1043 O 0.83284 0.17656 0.19611 0.0
H1044 H 0.83485 0.17773 0.1304 0.0
H1045 H 0.78228 0.13277 0.17332 0.0
N1046 N 0.76984 0.20064 0.19404 0.0
N1047 N 0.7525 0.23345 0.21727 0.0
C1048 C 0.75583 0.22292 0.19355 0.0
C1049 C 0.77472 0.19627 0.21938 0.0
C1050 C 0.76387 0.2163 0.23371 0.0
C1051 C 0.75018 0.19284 0.13519 0.0
O1052 O 0.74624 0.17562 0.15366 0.0
H1053 H 0.75179 0.23329 0.17568 0.0
H1054 H 0.78856 0.18207 0.22665 0.0
O1055 O 0.82267 0.21524 0.17926 0.0
H1056 H 0.81193 0.10076 0.14559 0.0
H1057 H 0.7673 0.21973 0.25412 0.0
Cu1058 Cu 0.47581 1.02105 0.13817 0.0
N1059 N 0.46671 0.99352 0.16086 0.0
N1060 N 0.44676 0.9673 0.18984 0.0
C1061 C 0.44596 0.99038 0.17684 0.0
C1062 C 0.46898 0.95577 0.18166 0.0
C1063 C 0.48105 0.97181 0.16395 0.0
O1064 O 0.45749 0.05316 0.14838 0.0
C1065 C 0.47103 1.02302 0.08192 0.0
O1066 O 0.47582 0.04799 0.08383 0.0
H1067 H 0.43055 1.00463 0.17871 0.0
H1068 H 0.49923 0.96799 0.15401 0.0
N1069 N 0.51205 1.02673 0.1418 0.0
N1070 N 0.5544 0.0356 0.13443 0.0
C1071 C 0.53032 1.03263 0.12377 0.0
C1072 C 0.52505 1.02576 0.16446 0.0
C1073 C 0.55099 1.03121 0.16004 0.0
C1074 C 0.43275 0.05631 0.14855 0.0
O1075 O 0.41781 0.03761 0.13975 0.0
H1076 H 0.52598 0.03529 0.10339 0.0
H1077 H 0.51618 1.02149 0.18301 0.0
O1078 O 0.46917 1.00934 0.10255 0.0
H1079 H 0.4764 0.93716 0.18822 0.0
H1080 H 0.56618 1.03184 0.17464 0.0
Cu1081 Cu 0.59899 0.55636 0.15022 0.0
N1082 N 0.60757 0.58442 0.17158 0.0
N1083 N 0.62795 0.61028 0.20001 0.0
C1084 C 0.62678 0.58625 0.18944 0.0
C1085 C 0.6086 0.62389 0.18826 0.0
C1086 C 0.59617 0.60795 0.17082 0.0
O1087 O 0.61862 0.52553 0.16225 0.0
C1088 C 0.60645 0.55331 0.09452 0.0
O1089 O 0.60161 0.52836 0.09686 0.0
H1090 H 0.63961 0.57028 0.19448 0.0
H1091 H 0.58019 0.61326 0.15807 0.0
N1092 N 0.56275 0.55078 0.1528 0.0
N1093 N 0.52017 0.54604 0.14321 0.0
C1094 C 0.54465 0.54927 0.13372 0.0
C1095 C 0.54926 0.54864 0.17504 0.0
C1096 C 0.52314 0.54563 0.16924 0.0
C1097 C 0.64339 0.52418 0.1599 0.0
O1098 O 0.65549 0.5431 0.14769 0.0
H1099 H 0.54941 0.55013 0.1133 0.0
H1100 H 0.55786 0.54939 0.19419 0.0
O1101 O 0.60699 0.56736 0.11474 0.0
H1102 H 0.60408 0.64415 0.19143 0.0
H1103 H 0.50754 0.54347 0.1832 0.0
C1104 C 0.23667 0.38848 0.25567 0.0
C1105 C 0.25187 0.36903 0.24379 0.0
H1106 H 0.21341 0.39922 0.28863 0.0
C1107 C 0.25778 0.34642 0.25812 0.0
H1108 H 0.23179 0.40618 0.24526 0.0
C1109 C 0.24716 0.34251 0.28278 0.0
C1110 C 0.2306 0.36115 0.29394 0.0
H1111 H 0.26947 0.33104 0.24976 0.0
H1112 H 0.25096 0.32433 0.29274 0.0
C1113 C 0.22625 0.38462 0.28057 0.0
C1114 C 0.60881 0.55053 0.0457 0.0
C1115 C 0.60877 0.56562 0.06837 0.0
H1116 H 0.60798 0.55024 1.00408 0.0
C1117 C 0.60955 0.59283 0.06578 0.0
H1118 H 0.60826 0.52953 0.04693 0.0
C1119 C 0.60931 0.60464 0.04125 0.0
C1120 C 0.60851 0.58962 1.01859 0.0
H1121 H 0.60962 0.60513 0.08273 0.0
H1122 H 0.60936 0.62563 0.03999 0.0
C1123 C 0.60881 0.56239 1.0211 0.0
C1124 C 0.87886 0.20386 0.25475 0.0
C1125 C 0.87199 0.22772 0.26573 0.0
H1126 H 0.87427 0.17779 0.22315 0.0
C1127 C 0.85624 0.24504 0.25123 0.0
H1128 H 0.8915 0.19046 0.26513 0.0
C1129 C 0.84606 0.23773 0.22696 0.0
C1130 C 0.85192 0.21316 0.21667 0.0
H1131 H 0.85085 0.26368 0.25924 0.0
H1132 H 0.83251 0.25061 0.21704 0.0
C1133 C 0.8692 0.19681 0.2305 0.0
C1134 C 0.47218 0.97101 1.02973 0.0
C1135 C 0.4744 0.98577 1.00677 0.0
H1136 H 0.46904 0.97098 0.07114 0.0
C1137 C 0.47371 1.01302 1.00862 0.0
H1138 H 0.47236 0.95001 1.029 0.0
C1139 C 0.47193 1.02514 0.03291 0.0
C1140 C 0.47051 1.01033 0.05594 0.0
H1141 H 0.47559 1.02499 0.9914 0.0
H1142 H 0.47224 0.04615 0.03364 0.0
C1143 C 0.47016 0.98309 0.05393 0.0
C1144 C 0.24962 0.71766 0.33113 0.0
C1145 C 0.25983 0.69237 0.33337 0.0
H1146 H 0.22898 0.7452 0.3072 0.0
C1147 C 0.25472 0.67466 0.31333 0.0
H1148 H 0.25342 0.73186 0.34605 0.0
C1149 C 0.24083 0.68221 0.29115 0.0
C1150 C 0.23161 0.70779 0.28816 0.0
H1151 H 0.2621 0.65494 0.31444 0.0
H1152 H 0.23761 0.66795 0.27619 0.0
C1153 C 0.23568 0.7253 0.30874 0.0
C1154 C 0.9982 0.57718 1.0135 0.0
C1155 C 0.98937 0.59969 1.02629 0.0
H1156 H 0.99572 0.55323 0.97961 0.0
C1157 C 0.97225 0.61646 1.01288 0.0
H1158 H 1.01176 0.56401 1.02295 0.0
C1159 C 0.96328 0.61041 0.98797 0.0
C1160 C 0.97128 0.58748 0.97554 0.0
H1161 H 0.96495 0.63389 1.02202 0.0
H1162 H 0.94921 0.62329 0.9788 0.0
C1163 C 0.98937 0.57121 0.98839 0.0
C1164 C 0.83894 0.87684 0.29413 0.0
C1165 C 0.84774 0.851 0.29258 0.0
H1166 H 0.81961 0.90587 0.31653 0.0
C1167 C 0.8448 0.83491 0.31466 0.0
H1168 H 0.84131 0.89009 0.27796 0.0
C1169 C 0.83252 0.84418 0.33721 0.0
C1170 C 0.82282 0.86973 0.33817 0.0
H1171 H 0.85118 0.81487 0.31431 0.0
H1172 H 0.82967 0.83103 0.35342 0.0
C1173 C 0.82665 0.88601 0.31649 0.0
C1174 C 0.05674 0.97736 0.97958 0.0
C1175 C 0.07677 0.96464 0.96593 0.0
H1176 H 1.03589 0.98096 1.01546 0.0
C1177 C 0.08949 0.9435 0.97811 0.0
H1178 H 0.04615 0.99334 0.97068 0.0
C1179 C 0.08359 0.93639 1.00367 0.0
C1180 C 0.06483 0.95017 1.0179 0.0
H1181 H 0.10495 0.93305 0.96835 0.0
H1182 H 0.09448 0.92066 1.01264 0.0
C1183 C 0.05103 0.9704 1.00535 0.0
C1184 C 0.27196 0.2642 0.30597 0.0
C1185 C 0.27003 0.2413 0.29154 0.0
H1186 H 0.25302 0.29096 0.33128 0.0
C1187 C 0.24562 0.22861 0.29045 0.0
H1188 H 0.29038 0.27437 0.30732 0.0
C1189 C 0.22378 0.23851 0.30381 0.0
C1190 C 0.22621 0.26085 0.31909 0.0
H1191 H 0.24346 0.211 0.27934 0.0
H1192 H 0.20538 0.22824 0.30296 0.0
C1193 C 0.25051 0.2736 0.31979 0.0
C1194 C 0.49571 0.59476 0.98853 0.0
C1195 C 0.50878 0.59188 0.96474 0.0
H1196 H 0.47153 0.5767 1.01762 0.0
C1197 C 0.50605 0.56812 0.95156 0.0
H1198 H 0.49747 0.61263 0.99933 0.0
C1199 C 0.49157 0.54763 0.96205 0.0
C1200 C 0.47901 0.5501 0.98605 0.0
H1201 H 0.51559 0.56501 0.93311 0.0
H1202 H 0.49021 0.52974 0.95123 0.0
C1203 C 0.48088 0.57412 0.99902 0.0
C1204 C 0.87258 0.35041 0.29645 0.0
C1205 C 0.86752 0.3357 0.31895 0.0
H1206 H 0.8571 0.37681 0.26771 0.0
C1207 C 0.8426 0.33774 0.33036 0.0
H1208 H 0.89145 0.34924 0.28708 0.0
C1209 C 0.82303 0.35313 0.31922 0.0
C1210 C 0.82769 0.36729 0.29641 0.0
H1211 H 0.83785 0.32695 0.3478 0.0
H1212 H 0.8041 0.35389 0.3285 0.0
C1213 C 0.85288 0.36618 0.28536 0.0
C1214 C 0.58233 0.98501 0.98339 0.0
C1215 C 0.56904 0.98592 0.95951 0.0
H1216 H 0.60175 1.00688 1.01321 0.0
C1217 C 0.56537 1.01034 0.94743 0.0
H1218 H 0.58533 0.96665 0.99333 0.0
C1219 C 0.57416 1.03316 0.95896 0.0
C1220 C 0.58737 1.03238 0.98274 0.0
H1221 H 0.55516 1.01207 0.92909 0.0
H1222 H 0.57086 0.05149 0.94907 0.0
C1223 C 0.59167 1.00803 0.99476 0.0
C1224 C 0.2521 0.81975 0.23531 0.0
C1225 C 0.2256 0.81963 0.24265 0.0
H1226 H 0.28994 0.83655 0.23995 0.0
C1227 C 0.21721 0.83779 0.26112 0.0
H1228 H 0.25947 0.80613 0.22117 0.0
C1229 C 0.23502 0.85556 0.27191 0.0
C1230 C 0.26161 0.85524 0.26472 0.0
H1231 H 0.197 0.83822 0.26727 0.0
H1232 H 0.22809 0.86918 0.28625 0.0
C1233 C 0.26979 0.83714 0.24623 0.0
C1234 C 0.09398 0.58623 0.04392 0.0
C1235 C 0.11933 0.57887 0.05182 0.0
H1236 H 0.06244 0.61359 0.04769 0.0
C1237 C 0.13317 0.59569 0.06827 0.0
H1238 H 0.08282 0.57397 1.03105 0.0
C1239 C 0.12154 0.61837 0.07772 0.0
C1240 C 0.09584 0.62515 0.07077 0.0
H1241 H 0.15259 0.59072 0.07501 0.0
H1242 H 0.13233 0.63006 0.09143 0.0
C1243 C 0.08242 0.60919 0.05315 0.0
C1244 C 0.82336 0.73319 0.24252 0.0
C1245 C 0.84921 0.73573 0.25156 0.0
H1246 H 0.78567 0.71629 0.24804 0.0
C1247 C 0.85682 0.72144 0.27366 0.0
H1248 H 0.81669 0.74373 0.2255 0.0
C1249 C 0.83874 0.70546 0.28665 0.0
C1250 C 0.81266 0.70369 0.27794 0.0
H1251 H 0.8765 0.72298 0.2812 0.0
H1252 H 0.84496 0.69512 0.30393 0.0
C1253 C 0.80538 0.71754 0.25555 0.0
C1254 C 0.93092 0.94193 0.05917 0.0
C1255 C 0.9446 0.9589 0.04265 0.0
H1256 H 0.93278 0.9085 0.08415 0.0
C1257 C 0.97052 0.95272 0.03605 0.0
H1258 H 0.911 0.94622 0.06474 0.0
C1259 C 0.98279 0.93063 0.04661 0.0
C1260 C 0.96961 0.91466 0.06455 0.0
H1261 H 0.98146 0.96531 1.02319 0.0
H1262 H 1.00309 0.92705 0.042 0.0
C1263 C 0.94337 0.92026 0.07023 0.0
C1264 C 0.30777 0.22481 0.18781 0.0
C1265 C 0.28688 0.24242 0.19122 0.0
H1266 H 0.32338 0.18678 0.19571 0.0
C1267 C 0.26626 0.23492 0.20758 0.0
H1268 H 0.32406 0.22992 0.17549 0.0
C1269 C 0.26593 0.21009 0.21912 0.0
C1270 C 0.28662 0.19241 0.21538 0.0
H1271 H 0.2498 0.24781 0.21051 0.0
H1272 H 0.24922 0.20451 0.23069 0.0
C1273 C 0.30765 0.20018 0.19977 0.0
C1274 C 0.35969 0.80665 0.34163 0.0
C1275 C 0.36636 0.80967 0.31534 0.0
H1276 H 0.35188 0.78035 0.373 0.0
C1277 C 0.37162 0.78718 0.30081 0.0
H1278 H 0.35554 0.82343 0.3535 0.0
C1279 C 0.36955 0.76235 0.3121 0.0
C1280 C 0.36191 0.75936 0.33813 0.0
H1281 H 0.37682 0.7887 0.28052 0.0
H1282 H 0.37302 0.74548 0.30017 0.0
C1283 C 0.35741 0.78188 0.35281 0.0
C1284 C 1.01043 0.47817 0.9943 0.0
C1285 C 0.99271 0.49437 1.00756 0.0
H1286 H 0.04878 0.4612 0.99305 0.0
C1287 C 1.00059 0.50438 1.0317 0.0
H1288 H 1.00511 0.46959 0.97596 0.0
C1289 C 1.02561 0.49915 0.04172 0.0
C1290 C 0.04364 0.4839 1.02786 0.0
H1291 H 0.98788 0.51709 0.04255 0.0
H1292 H 1.03113 0.50788 0.05996 0.0
C1293 C 1.03555 0.47318 1.00419 0.0
C1294 C 0.70777 0.80512 0.32646 0.0
C1295 C 0.71813 0.808 0.35153 0.0
H1296 H 0.69695 0.77874 0.29625 0.0
C1297 C 0.72361 0.78553 0.36624 0.0
H1298 H 0.70347 0.82206 0.31464 0.0
C1299 C 0.7197 0.76079 0.35589 0.0
C1300 C 0.71046 0.75781 0.3304 0.0
H1301 H 0.73124 0.78709 0.38575 0.0
H1302 H 0.72472 0.74399 0.36766 0.0
C1303 C 0.70416 0.78029 0.31593 0.0
C1304 C 0.48069 0.52986 0.50016 0.0
C1305 C 0.45965 0.54464 0.49052 0.0
H1306 H 0.51649 0.51003 0.49195 0.0
C1307 C 0.45819 0.5495 0.46377 0.0
H1308 H 0.48262 0.52639 0.52083 0.0
C1309 C 0.47797 0.54061 0.44713 0.0
C1310 C 0.49983 0.52683 0.45691 0.0
H1311 H 0.44268 0.56161 0.45596 0.0
H1312 H 0.47674 0.54579 0.42682 0.0
C1313 C 0.50041 0.52092 0.4836 0.0
C1314 C 0.24082 0.79986 0.69254 0.0
C1315 C 0.23277 0.78046 0.71003 0.0
H1316 H 0.24748 0.84015 0.6855 0.0
C1317 C 0.22316 0.78815 0.7344 0.0
H1318 H 0.24774 0.79478 0.67342 0.0
C1319 C 0.22291 0.81459 0.74147 0.0
C1320 C 0.23216 0.83379 0.72421 0.0
H1321 H 0.21683 0.77369 0.74834 0.0
H1322 H 0.21638 0.81986 0.76068 0.0
C1323 C 0.24052 0.82601 0.69949 0.0
C1324 C 0.12964 0.55521 0.60982 0.0
C1325 C 0.12461 0.55488 0.58309 0.0
H1326 H 0.11464 0.54849 0.648 0.0
C1327 C 0.10071 0.54474 0.57439 0.0
H1328 H 0.14764 0.56348 0.61708 0.0
C1329 C 0.08175 0.53611 0.59194 0.0
C1330 C 0.0859 0.53777 0.61886 0.0
H1331 H 0.09624 0.54445 0.55384 0.0
H1332 H 0.06357 0.52879 0.58425 0.0
C1333 C 0.11049 0.54677 0.62753 0.0
C1334 C 0.96665 0.03787 0.58729 0.0
C1335 C 0.94913 1.02046 0.59911 0.0
H1336 H 1.00227 0.0596 0.59083 0.0
C1337 C 0.95352 1.01325 0.62505 0.0
H1338 H 0.96433 0.04298 0.567 0.0
C1339 C 0.97529 1.02256 0.63866 0.0
C1340 C 0.99371 0.03886 0.62649 0.0
H1341 H 0.94096 0.99909 0.63432 0.0
H1342 H 0.9785 1.01563 0.65826 0.0
C1343 C 0.98871 0.04693 0.60079 0.0
C1344 C 0.75595 0.88683 0.75099 0.0
C1345 C 0.74935 0.87314 0.72832 0.0
H1346 H 0.74933 0.89243 0.79159 0.0
C1347 C 0.72908 0.85483 0.72977 0.0
H1348 H 0.77143 0.90111 0.75072 0.0
C1349 C 0.71637 0.84982 0.75342 0.0
C1350 C 0.72349 0.86304 0.77628 0.0
H1351 H 0.72345 0.84392 0.71279 0.0
H1352 H 0.70099 0.83546 0.75376 0.0
C1353 C 0.74318 0.88193 0.77455 0.0
C1354 C 0.0937 0.05385 0.51373 0.0
C1355 C 0.09753 0.08049 0.5088 0.0
H1356 H 0.09118 1.0235 0.54236 0.0
C1357 C 0.10404 0.09665 0.52969 0.0
H1358 H 0.08844 0.0409 0.49815 0.0
C1359 C 0.10564 0.08674 0.55498 0.0
C1360 C 0.10062 0.06036 0.56017 0.0
H1361 H 0.10739 0.11718 0.52652 0.0
H1362 H 0.11007 0.10002 0.57057 0.0
C1363 C 0.09514 0.04392 0.53914 0.0
C1364 C 0.35457 0.73443 0.75146 0.0
C1365 C 0.35501 0.71889 0.77411 0.0
H1366 H 0.34008 0.73915 0.71249 0.0
C1367 C 0.34259 0.69463 0.77348 0.0
H1368 H 0.3638 0.75331 0.75123 0.0
C1369 C 0.32912 0.68659 0.75138 0.0
C1370 C 0.32765 0.70252 0.72915 0.0
H1371 H 0.34298 0.68187 0.79023 0.0
H1372 H 0.31922 0.66803 0.752 0.0
C1373 C 0.34104 0.72632 0.72919 0.0
C1374 C 0.97963 0.45297 0.549 0.0
C1375 C 0.97945 0.47187 0.52923 0.0
H1376 H 0.9802 0.44479 0.58962 0.0
C1377 C 0.97714 0.49819 0.53637 0.0
H1378 H 0.98074 0.43253 0.54431 0.0
C1379 C 0.97659 0.50534 0.56273 0.0
C1380 C 0.97835 0.4863 0.58239 0.0
H1381 H 0.977 0.51329 0.52168 0.0
H1382 H 0.97605 0.52574 0.56768 0.0
C1383 C 0.97917 0.46004 0.57508 0.0
C1384 C 0.74312 0.18914 0.78448 0.0
C1385 C 0.75324 0.19753 0.76056 0.0
H1386 H 0.75001 0.1829 0.82499 0.0
C1387 C 0.7797 0.20469 0.75928 0.0
H1388 H 0.72284 0.18342 0.78602 0.0
C1389 C 0.79532 0.20461 0.78167 0.0
C1390 C 0.7849 0.19713 0.80583 0.0
H1391 H 0.78801 0.21159 0.74124 0.0
H1392 H 0.81533 0.2112 0.78017 0.0
C1393 C 0.75875 0.1888 0.80679 0.0
C1394 C 0.46115 0.09256 0.5069 0.0
C1395 C 0.4582 0.06575 0.50274 0.0
H1396 H 0.46707 0.12302 0.53437 0.0
C1397 C 0.45761 0.04911 0.52453 0.0
H1398 H 0.46165 0.10602 0.49069 0.0
C1399 C 0.46074 0.05892 0.5497 0.0
C1400 C 0.46477 0.08562 0.55374 0.0
H1401 H 0.45538 1.02835 0.52214 0.0
H1402 H 0.461 0.04545 0.56589 0.0
C1403 C 0.46446 0.10232 0.53201 0.0
C1404 C 0.32404 0.38356 0.78558 0.0
C1405 C 0.33711 0.35957 0.78787 0.0
H1406 H 0.30092 0.41272 0.80409 0.0
C1407 C 0.33742 0.34714 0.81232 0.0
H1408 H 0.32369 0.39403 0.76734 0.0
C1409 C 0.32455 0.3581 0.83364 0.0
C1410 C 0.31093 0.38173 0.83106 0.0
H1411 H 0.34699 0.32855 0.81494 0.0
H1412 H 0.32464 0.34766 0.85194 0.0
C1413 C 0.31111 0.39443 0.80682 0.0
C1414 C 0.60447 0.45981 0.5105 0.0
C1415 C 0.60977 0.48643 0.50747 0.0
H1416 H 0.59802 0.42818 0.53683 0.0
C1417 C 0.61429 0.50133 0.52985 0.0
H1418 H 0.60098 0.44768 0.49379 0.0
C1419 C 0.61267 0.49003 0.55465 0.0
C1420 C 0.60622 0.46366 0.55762 0.0
H1421 H 0.61849 0.52188 0.52826 0.0
H1422 H 0.61541 0.50215 0.5715 0.0
C1423 C 0.60263 0.44863 0.53522 0.0
C1424 C 0.74226 0.74832 0.81601 0.0
C1425 C 0.74049 0.76294 0.83884 0.0
H1426 H 0.76684 0.72585 0.79098 0.0
C1427 C 0.7629 0.76468 0.85473 0.0
H1428 H 0.72557 0.74675 0.80318 0.0
C1429 C 0.78651 0.7529 0.84777 0.0
C1430 C 0.78862 0.73878 0.82472 0.0
H1431 H 0.76242 0.77561 0.87259 0.0
H1432 H 0.80316 0.75486 0.86056 0.0
C1433 C 0.76603 0.73637 0.80904 0.0
C1434 C 0.97302 0.06607 0.49782 0.0
C1435 C 0.97136 0.04181 0.48528 0.0
H1436 H 0.98739 0.10543 0.49634 0.0
C1437 C 0.98202 0.03962 0.46038 0.0
H1438 H 0.96507 0.06839 0.51709 0.0
C1439 C 0.99426 0.06077 0.44842 0.0
C1440 C 0.99671 0.08488 0.46105 0.0
H1441 H 0.98076 1.02148 0.44998 0.0
H1442 H 1.00233 0.05788 0.42927 0.0
C1443 C 0.98576 0.08732 0.48593 0.0
C1444 C 0.32917 0.83981 0.78155 0.0
C1445 C 0.33409 0.86666 0.78262 0.0
H1446 H 0.34208 0.80144 0.7917 0.0
C1447 C 0.35854 0.8748 0.79241 0.0
H1448 H 0.31105 0.83254 0.77363 0.0
C1449 C 0.37675 0.85668 0.80226 0.0
C1450 C 0.37086 0.83009 0.80253 0.0
H1451 H 0.36318 0.89522 0.7937 0.0
H1452 H 0.3946 0.86358 0.81115 0.0
C1453 C 0.34718 0.82186 0.79155 0.0
C1454 C 0.10593 0.50075 0.49189 0.0
C1455 C 0.11029 0.5214 0.4743 0.0
H1456 H 0.08696 0.46403 0.49871 0.0
C1457 C 0.10095 0.51908 0.44885 0.0
H1458 H 0.11285 0.50199 0.51168 0.0
C1459 C 0.08648 0.49744 0.44147 0.0
C1460 C 0.08077 0.47747 0.45931 0.0
H1461 H 0.10447 0.53425 0.43468 0.0
H1462 H 0.07894 0.49683 0.42184 0.0
C1463 C 0.09124 0.47895 0.48446 0.0
C1464 C 0.78591 0.28527 0.7446 0.0
C1465 C 0.78548 0.30864 0.75846 0.0
H1466 H 0.76434 0.25779 0.72226 0.0
C1467 C 0.76119 0.32123 0.76202 0.0
H1468 H 0.8041 0.27505 0.7414 0.0
C1469 C 0.7381 0.31104 0.75126 0.0
C1470 C 0.73901 0.28836 0.73638 0.0
H1471 H 0.76005 0.33909 0.7729 0.0
H1472 H 0.71984 0.32142 0.75367 0.0
C1473 C 0.76307 0.27543 0.73355 0.0
C1474 C 0.60348 0.05724 0.61891 0.0
C1475 C 0.60745 0.05236 0.59248 0.0
H1476 H 0.58361 0.07983 0.64737 0.0
C1477 C 0.59608 0.06952 0.57415 0.0
H1478 H 0.61239 0.04499 0.6336 0.0
C1479 C 0.57976 0.09 0.58215 0.0
C1480 C 0.57456 0.0936 0.60859 0.0
H1481 H 0.59866 0.06636 0.5536 0.0
H1482 H 0.56989 0.10181 0.56766 0.0
C1483 C 0.58723 0.0775 0.62682 0.0
C1484 C 0.3517 0.2073 0.75631 0.0
C1485 C 0.35777 0.23306 0.7629 0.0
H1486 H 0.3246 0.17584 0.75942 0.0
C1487 C 0.34086 0.24634 0.77978 0.0
H1488 H 0.36416 0.19657 0.74321 0.0
C1489 C 0.31781 0.23455 0.78875 0.0
C1490 C 0.31133 0.20906 0.78142 0.0
H1491 H 0.34472 0.26631 0.785 0.0
H1492 H 0.30483 0.24553 0.8011 0.0
C1493 C 0.32896 0.1954 0.76561 0.0
C1494 C 0.49965 0.48939 0.63436 0.0
C1495 C 0.50383 0.46827 0.61765 0.0
H1496 H 0.48347 0.5273 0.63953 0.0
C1497 C 0.49265 0.46925 0.59273 0.0
H1498 H 0.50771 0.48928 0.6538 0.0
C1499 C 0.47865 0.49145 0.58445 0.0
C1500 C 0.47568 0.51306 0.60091 0.0
H1501 H 0.49569 0.45345 0.5793 0.0
H1502 H 0.47108 0.49211 0.56485 0.0
C1503 C 0.48588 0.51139 0.62613 0.0
C1504 C 0.86267 0.74776 0.70524 0.0
C1505 C 0.84239 0.73452 0.71813 0.0
H1506 H 0.87495 0.78188 0.68477 0.0
C1507 C 0.8173 0.74573 0.71776 0.0
H1508 H 0.88229 0.73979 0.70522 0.0
C1509 C 0.81311 0.77031 0.70605 0.0
C1510 C 0.83398 0.78425 0.69469 0.0
H1511 H 0.80139 0.73641 0.728 0.0
H1512 H 0.79388 0.779 0.70717 0.0
C1513 C 0.85857 0.77216 0.69379 0.0
C1514 C 0.79095 0.33706 0.83199 0.0
C1515 C 0.81006 0.35641 0.83493 0.0
H1516 H 0.77885 0.29817 0.84091 0.0
C1517 C 0.83234 0.35057 0.84967 0.0
H1518 H 0.7732 0.34124 0.82126 0.0
C1519 C 0.83571 0.3259 0.86094 0.0
C1520 C 0.81651 0.30643 0.85833 0.0
H1521 H 0.84652 0.36553 0.85366 0.0
H1522 H 0.85324 0.32237 0.87217 0.0
C1523 C 0.79423 0.31232 0.84327 0.0
C1524 C 0.61064 1.02986 0.46474 0.0
C1525 C 0.60523 1.00948 0.4822 0.0
H1526 H 0.59541 0.05621 0.43582 0.0
C1527 C 0.57948 0.99983 0.48311 0.0
H1528 H 0.63014 0.03787 0.46354 0.0
C1529 C 0.5597 1.01035 0.4675 0.0
C1530 C 0.56485 1.03084 0.4502 0.0
H1531 H 0.57434 0.98411 0.49617 0.0
H1532 H 0.5403 1.00217 0.46888 0.0
C1533 C 0.5907 0.04033 0.44882 0.0
C1534 C 0.22621 0.31288 0.83433 0.0
C1535 C 0.20668 0.32843 0.84555 0.0
H1536 H 0.2359 0.27731 0.81541 0.0
C1537 C 0.18066 0.31976 0.8445 0.0
H1538 H 0.24637 0.31916 0.83428 0.0
C1539 C 0.17456 0.29555 0.83359 0.0
C1540 C 0.19432 0.27957 0.82326 0.0
H1541 H 0.16518 0.33123 0.853 0.0
H1542 H 0.15446 0.28907 0.83387 0.0
C1543 C 0.22014 0.28888 0.82331 0.0
C1544 C 0.056 0.09081 0.99623 0.0
C1545 C 0.06711 0.06637 1.00188 0.0
H1546 H 1.02156 0.11465 0.99629 0.0
C1547 C 0.05164 0.04791 1.01495 0.0
H1548 H 0.06711 0.10542 0.98592 0.0
C1549 C 1.02541 0.05321 1.02096 0.0
C1550 C 1.01385 0.07707 1.01384 0.0
H1551 H 0.0596 1.02895 1.01966 0.0
H1552 H 1.01389 0.03809 1.03006 0.0
C1553 C 1.02971 0.09603 1.00201 0.0
C1554 C 0.75384 0.2798 0.20406 0.0
C1555 C 0.74694 0.26065 0.22238 0.0
H1556 H 0.75703 0.32017 0.19494 0.0
C1557 C 0.73613 0.26885 0.2461 0.0
H1558 H 0.76277 0.2746 0.18584 0.0
C1559 C 0.73268 0.29555 0.25136 0.0
C1560 C 0.74047 0.31452 0.23317 0.0
H1561 H 0.73068 0.25464 0.26065 0.0
H1562 H 0.72496 0.30133 0.26998 0.0
C1563 C 0.75074 0.30618 0.2094 0.0
C1564 C 0.62028 0.06621 0.12343 0.0
C1565 C 0.62473 0.06139 0.09702 0.0
H1566 H 0.59464 0.06214 0.15582 0.0
C1567 C 0.60618 0.04659 0.08335 0.0
H1568 H 0.63397 0.07771 0.13451 0.0
C1569 C 0.58324 0.03789 0.09557 0.0
C1570 C 0.57848 0.04343 0.12184 0.0
H1571 H 0.60876 0.04276 0.0629 0.0
H1572 H 0.56912 1.02705 0.08439 0.0
C1573 C 0.59761 0.05726 0.13567 0.0
C1574 C 0.47571 0.5272 0.13971 0.0
C1575 C 0.49616 0.54192 0.12884 0.0
H1576 H 0.4397 0.50705 0.13304 0.0
C1577 C 0.49319 0.55117 0.10323 0.0
H1578 H 0.47729 0.51948 0.1592 0.0
C1579 C 0.47117 0.54447 0.08843 0.0
C1580 C 0.45168 0.52837 0.0989 0.0
H1581 H 0.50833 0.56277 0.0943 0.0
H1582 H 0.4704 0.55016 0.06818 0.0
C1583 C 0.45391 0.52029 0.12483 0.0
C1584 C 0.08453 0.34039 0.36068 0.0
C1585 C 0.09905 0.35132 0.34021 0.0
H1586 H 0.05534 0.34637 0.38983 0.0
C1587 C 0.09252 0.37662 0.33175 0.0
H1588 H 0.08895 0.32104 0.36783 0.0
C1589 C 0.07311 0.39113 0.34438 0.0
C1590 C 0.05997 0.38084 0.36601 0.0
H1591 H 0.10325 0.38571 0.31607 0.0
H1592 H 0.0695 0.41094 0.33817 0.0
C1593 C 0.06538 0.35501 0.37348 0.0
C1594 C 0.60735 0.75402 0.92081 0.0
C1595 C 0.63218 0.76207 0.92946 0.0
H1596 H 0.57592 0.72668 0.92482 0.0
C1597 C 0.64294 0.74966 0.95139 0.0
H1598 H 0.59837 0.76332 0.90414 0.0
C1599 C 0.63013 0.72859 0.96316 0.0
C1600 C 0.60594 0.71967 0.9537 0.0
H1601 H 0.66202 0.75519 0.9585 0.0
H1602 H 0.63977 0.71846 0.979 0.0
C1603 C 0.59429 0.73323 0.9329 0.0
C1604 C 0.9975 0.23631 0.355 0.0
C1605 C 0.98664 0.23042 0.33064 0.0
H1606 H 1.01973 0.22279 0.38771 0.0
C1607 C 0.9922 0.20593 0.3199 0.0
H1608 H 0.99361 0.25486 0.36401 0.0
C1609 C 1.00708 0.18743 0.33361 0.0
C1610 C 1.01668 0.19276 0.35858 0.0
H1611 H 0.98416 0.20061 0.30124 0.0
H1612 H 1.01003 0.1685 0.32508 0.0
C1613 C 1.01222 0.21772 0.36879 0.0
C1614 C 0.49051 0.8433 0.93087 0.0
C1615 C 0.47855 0.85725 0.951 0.0
H1616 H 0.48593 0.81506 0.90088 0.0
C1617 C 0.45275 0.85085 0.95785 0.0
H1618 H 0.51029 0.84776 0.92494 0.0
C1619 C 0.43865 0.83235 0.94385 0.0
C1620 C 0.4499 0.81972 0.92248 0.0
H1621 H 0.44289 0.86118 0.97324 0.0
H1622 H 0.41845 0.82908 0.94896 0.0
C1623 C 0.47634 0.82479 0.91678 0.0
C1624 C 0.102 0.68888 0.22763 0.0
C1625 C 0.10714 0.71518 0.22208 0.0
H1626 H 0.08285 0.65391 0.21629 0.0
C1627 C 0.09377 0.72695 0.20121 0.0
H1628 H 0.11193 0.6791 0.2435 0.0
C1629 C 0.07694 0.71238 0.18545 0.0
C1630 C 0.07301 0.68562 0.19008 0.0
H1631 H 0.09729 0.7471 0.1962 0.0
H1632 H 0.06754 0.72203 0.16923 0.0
C1633 C 0.08521 0.67434 0.21192 0.0
C1634 C 0.95984 0.75173 0.12965 0.0
C1635 C 0.9377 0.74537 0.14465 0.0
H1636 H 0.99256 0.73752 0.10761 0.0
C1637 C 0.93044 0.71919 0.14661 0.0
H1638 H 0.96611 0.77172 0.12788 0.0
C1639 C 0.94538 0.69977 0.13492 0.0
C1640 C 0.96827 0.70581 0.12102 0.0
H1641 H 0.91337 0.71367 0.15767 0.0
H1642 H 0.93931 0.67979 0.13754 0.0
C1643 C 0.97503 0.73213 0.11803 0.0
C1644 C 0.97387 0.86286 0.22875 0.0
C1645 C 0.96805 0.83647 0.22489 0.0
H1646 H 0.99227 0.89714 0.21419 0.0
C1647 C 0.97949 0.82379 0.20365 0.0
H1648 H 0.9654 0.8733 0.24486 0.0
C1649 C 0.99501 0.83757 0.18591 0.0
C1650 C 0.99953 0.86439 0.18893 0.0
H1651 H 0.97539 0.80352 0.19992 0.0
H1652 H 1.00291 0.82725 0.16948 0.0
C1653 C 0.98937 0.87661 0.21106 0.0
C1654 C 0.12566 0.85217 0.12849 0.0
C1655 C 0.10282 0.8451 0.11502 0.0
H1656 H 0.15876 0.83962 0.15082 0.0
C1657 C 0.0973 0.8185 0.11222 0.0
H1658 H 0.13075 0.87241 0.13095 0.0
C1659 C 0.11365 0.79958 0.12367 0.0
C1660 C 0.13573 0.80688 0.13829 0.0
H1661 H 0.07987 0.81234 0.10209 0.0
H1662 H 0.10829 0.77933 0.12211 0.0
C1663 C 0.14177 0.83337 0.14002 0.0
C1664 C 0.38303 0.12159 0.32004 0.0
C1665 C 0.38273 0.14871 0.31607 0.0
H1666 H 0.40073 0.08914 0.34015 0.0
C1667 C 0.39941 0.16394 0.3314 0.0
H1668 H 0.37052 0.10921 0.30856 0.0
C1669 C 0.41649 0.15258 0.34941 0.0
C1670 C 0.41778 0.12545 0.35275 0.0
H1671 H 0.39961 0.18489 0.32925 0.0
H1672 H 0.42887 0.16527 0.36063 0.0
C1673 C 0.40038 0.11008 0.33818 0.0
C1674 C 0.35722 0.47707 0.95594 0.0
C1675 C 0.35194 0.48701 0.98074 0.0
H1676 H 0.34208 0.46035 0.92119 0.0
C1677 C 0.32569 0.49 0.98823 0.0
H1678 H 0.37717 0.47469 0.94939 0.0
C1679 C 0.30534 0.48155 0.97183 0.0
C1680 C 0.31095 0.46995 0.94774 0.0
H1681 H 0.32098 0.49733 1.00729 0.0
H1682 H 0.28538 0.48271 0.97862 0.0
C1683 C 0.3371 0.4687 0.93975 0.0
C1684 C 0.64099 0.40994 0.31205 0.0
C1685 C 0.66826 0.41312 0.31254 0.0
H1686 H 0.60423 0.41835 0.3296 0.0
C1687 C 0.67919 0.42811 0.33257 0.0
H1688 H 0.63173 0.39875 0.2969 0.0
C1689 C 0.66319 0.43948 0.35162 0.0
C1690 C 0.6359 0.436 0.35118 0.0
H1691 H 0.70009 0.4311 0.33354 0.0
H1692 H 0.67225 0.45063 0.36689 0.0
C1693 C 0.62512 0.42115 0.33101 0.0
C1694 C 0.72207 0.12833 0.97859 0.0
C1695 C 0.69519 0.12782 0.97273 0.0
H1696 H 0.75933 0.14608 0.97027 0.0
C1697 C 0.68595 0.14329 0.95202 0.0
H1698 H 0.7298 0.11682 0.9945 0.0
C1699 C 0.70252 0.16021 0.93881 0.0
C1700 C 0.72898 0.16187 0.94547 0.0
H1701 H 0.66548 0.14327 0.94667 0.0
H1702 H 0.69451 0.17255 0.92365 0.0
C1703 C 0.73891 0.14514 0.96487 0.0
C1704 C 0.41119 0.92034 0.23417 0.0
C1705 C 0.39299 0.93659 0.24642 0.0
H1706 H 0.44189 0.91694 0.20644 0.0
C1707 C 0.39248 0.96308 0.23936 0.0
H1708 H 0.41209 0.89984 0.23894 0.0
C1709 C 0.40985 0.9731 0.22082 0.0
C1710 C 0.42826 0.95693 0.20863 0.0
H1711 H 0.37879 0.97628 0.24838 0.0
H1712 H 0.40903 0.99365 0.2164 0.0
C1713 C 0.42847 0.93031 0.21552 0.0
C1714 C 0.17366 0.40755 0.12089 0.0
C1715 C 0.19262 0.38933 0.11307 0.0
H1716 H 0.14455 0.43553 0.1091 0.0
C1717 C 0.19657 0.38553 0.08646 0.0
H1718 H 0.17029 0.41091 0.14131 0.0
C1719 C 0.18134 0.39901 0.0681 0.0
C1720 C 0.1623 0.41717 0.07587 0.0
H1721 H 0.2109 0.37154 0.0799 0.0
H1722 H 0.18462 0.39531 0.04771 0.0
C1723 C 0.15896 0.42164 0.1025 0.0
C1724 C 0.65895 0.65182 0.25165 0.0
C1725 C 0.68248 0.63852 0.25648 0.0
H1726 H 0.623 0.65308 0.23055 0.0
C1727 C 0.68784 0.61589 0.24229 0.0
H1728 H 0.65409 0.6692 0.26235 0.0
C1729 C 0.67009 0.60669 0.22384 0.0
C1730 C 0.64637 0.61979 0.21911 0.0
H1731 H 0.70581 0.60516 0.24543 0.0
H1732 H 0.67518 0.5894 0.21317 0.0
C1733 C 0.6411 0.64254 0.23328 0.0
C1734 C 0.85745 0.10064 0.11181 0.0
C1735 C 0.85006 0.12703 0.11322 0.0
H1736 H 0.88105 0.07172 0.09311 0.0
C1737 C 0.86212 0.14457 0.09587 0.0
H1738 H 0.849 0.08642 0.12479 0.0
C1739 C 0.88076 0.13612 0.07787 0.0
C1740 C 0.88797 0.10979 0.07637 0.0
H1741 H 0.85703 0.16494 0.09575 0.0
H1742 H 0.88928 0.15032 0.06485 0.0
C1743 C 0.87605 0.09216 0.09363 0.0
C1744 C 0.35796 0.39631 0.09813 0.0
C1745 C 0.35999 0.4236 0.09611 0.0
H1746 H 0.33816 0.36364 0.11515 0.0
C1747 C 0.34276 0.43871 0.1111 0.0
H1748 H 0.37056 0.38383 0.0869 0.0
C1749 C 0.32401 0.42705 0.12717 0.0
C1750 C 0.32186 0.39985 0.12901 0.0
H1751 H 0.34371 0.45967 0.11066 0.0
H1752 H 0.31112 0.43949 0.13819 0.0
C1753 C 0.33923 0.38464 0.11436 0.0
C1754 C 0.3412 0.67151 0.47387 0.0
C1755 C 0.35289 0.69318 0.46191 0.0
H1756 H 0.34558 0.63977 0.50061 0.0
C1757 C 0.37795 0.70064 0.47025 0.0
H1758 H 0.32201 0.66505 0.46786 0.0
C1759 C 0.39163 0.68597 0.48881 0.0
C1760 C 0.38072 0.66329 0.49957 0.0
H1761 H 0.3876 0.71718 0.46147 0.0
H1762 H 0.41132 0.69177 0.49367 0.0
C1763 C 0.35496 0.65673 0.49241 0.0
C1764 C 0.93156 0.43688 0.90122 0.0
C1765 C 0.93354 0.46245 0.89166 0.0
H1766 H 0.92205 0.39727 0.89308 0.0
C1767 C 0.93 0.46699 0.86503 0.0
H1768 H 0.93403 0.43289 0.92174 0.0
C1769 C 0.92259 0.44659 0.84868 0.0
C1770 C 0.91908 0.42125 0.85859 0.0
H1771 H 0.93104 0.48655 0.85723 0.0
H1772 H 0.91861 0.45078 0.82845 0.0
C1773 C 0.9247 0.41646 0.88483 0.0
C1774 C 0.69582 0.87665 0.49282 0.0
C1775 C 0.70456 0.90116 0.50087 0.0
H1776 H 0.70339 0.84296 0.46989 0.0
C1777 C 0.73001 0.90892 0.49394 0.0
H1778 H 0.67642 0.87001 0.49779 0.0
C1779 C 0.74562 0.89331 0.47803 0.0
C1780 C 0.73611 0.86962 0.46845 0.0
H1781 H 0.73767 0.92739 0.50029 0.0
H1782 H 0.76458 0.90051 0.47216 0.0
C1783 C 0.71135 0.86112 0.47678 0.0
C1784 C 0.64059 0.56865 0.36263 0.0
C1785 C 0.63901 0.55973 0.38843 0.0
H1786 H 0.65894 0.59422 0.33546 0.0
C1787 C 0.6553 0.57121 0.40708 0.0
H1788 H 0.62846 0.56023 0.34767 0.0
C1789 C 0.67276 0.59101 0.40006 0.0
C1790 C 0.6745 0.59984 0.37418 0.0
H1791 H 0.65458 0.56492 0.42714 0.0
H1792 H 0.68472 0.59948 0.41507 0.0
C1793 C 0.65808 0.58835 0.3556 0.0
C1794 C 0.23636 0.66486 0.5723 0.0
C1795 C 0.21072 0.67217 0.5652 0.0
H1796 H 0.27063 0.67373 0.59452 0.0
C1797 C 0.20143 0.6965 0.57345 0.0
H1798 H 0.2446 0.64663 0.56592 0.0
C1799 C 0.21658 0.71223 0.58957 0.0
C1800 C 0.24147 0.70414 0.59804 0.0
H1801 H 0.18194 0.70301 0.56852 0.0
H1802 H 0.20816 0.73024 0.59643 0.0
C1803 C 0.25154 0.68064 0.58848 0.0
C1804 C 0.94944 0.61348 0.72399 0.0
C1805 C 0.92347 0.62262 0.7223 0.0
H1806 H 0.97842 0.58676 0.70991 0.0
C1807 C 0.90715 0.61151 0.7033 0.0
H1808 H 0.96272 0.62127 0.73828 0.0
C1809 C 0.9161 0.59152 0.68724 0.0
C1810 C 0.94181 0.58205 0.6893 0.0
H1811 H 0.88727 0.61814 0.70069 0.0
H1812 H 0.9027 0.58339 0.67322 0.0
C1813 C 0.95849 0.59356 0.70768 0.0
C1814 C 0.2037 1.00094 0.68457 0.0
C1815 C 0.19377 0.97924 0.698 0.0
H1816 H 0.19574 0.03526 0.66242 0.0
C1817 C 0.16643 0.97636 0.69934 0.0
H1818 H 0.22454 1.00418 0.68343 0.0
C1819 C 0.1496 0.99445 0.68703 0.0
C1820 C 0.15975 1.01597 0.67333 0.0
H1821 H 0.15808 0.95986 0.7094 0.0
H1822 H 0.1287 0.99156 0.68822 0.0
C1823 C 0.18704 1.01894 0.67252 0.0
C1824 C 0.59341 0.86785 0.82351 0.0
C1825 C 0.60325 0.84495 0.83508 0.0
H1826 H 0.56888 0.90145 0.82721 0.0
C1827 C 0.59335 0.83757 0.85948 0.0
H1828 H 0.6006 0.87426 0.80481 0.0
C1829 C 0.57527 0.85342 0.87251 0.0
C1830 C 0.56637 0.87697 0.86142 0.0
H1831 H 0.60053 0.82021 0.86914 0.0
H1832 H 0.56862 0.84742 0.89151 0.0
C1833 C 0.57516 0.88353 0.8364 0.0
C1834 C 0.12381 0.21392 0.45799 0.0
C1835 C 0.09843 0.20815 0.44924 0.0
H1836 H 0.15768 0.23795 0.45396 0.0
C1837 C 0.08675 0.22482 0.43085 0.0
H1838 H 0.13345 0.20125 0.4719 0.0
C1839 C 0.10092 0.24562 0.42011 0.0
C1840 C 0.12691 0.25044 0.4278 0.0
H1841 H 0.06745 0.22065 0.42334 0.0
H1842 H 0.09185 0.2574 0.40512 0.0
C1843 C 0.13775 0.23493 0.44763 0.0
C1844 C 0.52348 0.71283 0.85674 0.0
C1845 C 0.51929 0.68754 0.86661 0.0
H1846 H 0.50579 0.74794 0.84171 0.0
C1847 C 0.49405 0.67718 0.86539 0.0
H1848 H 0.54272 0.72143 0.85757 0.0
C1849 C 0.47317 0.69217 0.85627 0.0
C1850 C 0.47682 0.71808 0.84819 0.0
H1851 H 0.49028 0.65772 0.8725 0.0
H1852 H 0.4538 0.68375 0.85673 0.0
C1853 C 0.50236 0.72802 0.8476 0.0
C1854 C 0.95818 0.34383 0.46413 0.0
C1855 C 0.9834 0.35228 0.45733 0.0
H1856 H 0.92527 0.32019 0.45427 0.0
C1857 C 0.99612 0.34005 0.43657 0.0
H1858 H 0.9478 0.35288 0.47999 0.0
C1859 C 0.98301 0.32152 0.4216 0.0
C1860 C 0.95702 0.31456 0.42722 0.0
H1861 H 1.01546 0.34614 0.43066 0.0
H1862 H 0.99286 0.31339 0.40496 0.0
C1863 C 0.9452 0.32509 0.44936 0.0
C1864 C 0.606 0.17078 0.73009 0.0
C1865 C 0.61161 0.19686 0.7239 0.0
H1866 H 0.57989 0.13861 0.72529 0.0
C1867 C 0.59273 0.21143 0.71026 0.0
H1868 H 0.62013 0.15898 0.74054 0.0
C1869 C 0.56982 0.19959 0.70122 0.0
C1870 C 0.56503 0.17306 0.70597 0.0
H1871 H 0.59644 0.23148 0.70498 0.0
H1872 H 0.55629 0.21092 0.68956 0.0
C1873 C 0.58289 0.15907 0.72141 0.0
C1874 C 0.46025 0.24294 0.65492 0.0
C1875 C 0.43339 0.24664 0.64977 0.0
H1876 H 0.49484 0.22044 0.6474 0.0
C1877 C 0.42188 0.23171 0.63008 0.0
H1878 H 0.46999 0.25435 0.66957 0.0
C1879 C 0.4362 0.21252 0.61724 0.0
C1880 C 0.46253 0.2077 0.62352 0.0
H1881 H 0.40137 0.23375 0.62545 0.0
H1882 H 0.42619 0.20051 0.60322 0.0
C1883 C 0.47467 0.22374 0.64191 0.0
C1884 C 0.5103 0.34774 0.71864 0.0
C1885 C 0.5092 0.37363 0.70949 0.0
H1886 H 0.48847 0.31449 0.73197 0.0
C1887 C 0.48523 0.38684 0.71049 0.0
H1888 H 0.52845 0.33695 0.71797 0.0
C1889 C 0.46258 0.37409 0.71846 0.0
C1890 C 0.46314 0.3477 0.7257 0.0
H1891 H 0.48382 0.40683 0.70396 0.0
H1892 H 0.44426 0.38467 0.71772 0.0
C1893 C 0.48742 0.33486 0.72669 0.0
C1894 C 0.61991 0.32943 0.6025 0.0
C1895 C 0.59789 0.33876 0.61585 0.0
H1896 H 0.65267 0.30344 0.60255 0.0
C1897 C 0.591 0.32666 0.63939 0.0
H1898 H 0.62588 0.3384 0.58441 0.0
C1899 C 0.60666 0.30682 0.65002 0.0
C1900 C 0.6294 0.29835 0.63721 0.0
H1901 H 0.57436 0.33352 0.65037 0.0
H1902 H 0.60125 0.29845 0.66854 0.0
C1903 C 0.63534 0.30939 0.61293 0.0
C1904 C 0.84841 0.60119 0.87341 0.0
C1905 C 0.86936 0.58351 0.87084 0.0
H1906 H 0.82657 0.63267 0.8562 0.0
C1907 C 0.88139 0.58165 0.84636 0.0
H1908 H 0.83872 0.60346 0.89187 0.0
C1909 C 0.87396 0.59814 0.82574 0.0
C1910 C 0.85416 0.61684 0.82885 0.0
H1911 H 0.89729 0.56812 0.84335 0.0
H1912 H 0.88507 0.59756 0.80789 0.0
C1913 C 0.84112 0.61777 0.85278 0.0
C1914 C 0.82282 0.97796 0.48921 0.0
C1915 C 0.84906 0.97884 0.48127 0.0
H1916 H 0.78358 0.96675 0.47931 0.0
C1917 C 0.85504 0.97217 0.45555 0.0
H1918 H 0.81765 0.98253 0.50901 0.0
C1919 C 0.83577 0.96309 0.4387 0.0
C1920 C 0.80985 0.96033 0.44701 0.0
H1921 H 0.87507 0.97266 0.44879 0.0
H1922 H 0.84136 0.95713 0.4194 0.0
C1923 C 0.80334 0.96879 0.47219 0.0
C1924 C 0.21031 0.94056 0.84484 0.0
C1925 C 0.19183 0.93336 0.82593 0.0
H1926 H 0.21724 0.95858 0.88165 0.0
C1927 C 0.16532 0.93865 0.83075 0.0
H1928 H 0.23091 0.93682 0.84185 0.0
C1929 C 0.15752 0.95116 0.85352 0.0
C1930 C 0.17596 0.95869 0.8723 0.0
H1931 H 0.15047 0.93337 0.81676 0.0
H1932 H 0.13692 0.95481 0.85644 0.0
C1933 C 0.20247 0.95295 0.86776 0.0
C1934 C 0.23081 0.59362 0.4447 0.0
C1935 C 0.23457 0.5898 0.4715 0.0
H1936 H 0.24734 0.60553 0.40845 0.0
C1937 C 0.25996 0.59225 0.48163 0.0
H1938 H 0.21151 0.5918 0.43623 0.0
C1939 C 0.28068 0.6003 0.46548 0.0
C1940 C 0.27626 0.60603 0.439 0.0
H1941 H 0.26341 0.58984 0.50223 0.0
H1942 H 0.29967 0.60371 0.47406 0.0
C1943 C 0.2513 0.60161 0.42874 0.0
C1944 C 0.89642 0.43978 0.73412 0.0
C1945 C 0.90012 0.41264 0.73554 0.0
H1946 H 0.91174 0.47657 0.72089 0.0
C1947 C 0.92152 0.40187 0.7223 0.0
H1948 H 0.88022 0.44879 0.74413 0.0
C1949 C 0.93943 0.41765 0.70926 0.0
C1950 C 0.93663 0.44481 0.70886 0.0
H1951 H 0.92499 0.3811 0.72261 0.0
H1952 H 0.9559 0.40851 0.69982 0.0
C1953 C 0.91446 0.45571 0.72081 0.0
C1954 C 0.73932 0.96482 0.56806 0.0
C1955 C 0.73341 0.99025 0.57603 0.0
H1956 H 0.75822 0.92874 0.57729 0.0
C1957 C 0.74538 0.99951 0.5988 0.0
H1958 H 0.73029 0.95684 0.55088 0.0
C1959 C 0.76198 0.98344 0.6137 0.0
C1960 C 0.76639 0.95748 0.6066 0.0
H1961 H 0.7411 1.0189 0.60564 0.0
H1962 H 0.77015 0.99084 0.63155 0.0
C1963 C 0.75525 0.94858 0.58333 0.0
C1964 C 0.1254 0.13251 0.73099 0.0
C1965 C 0.13408 0.13709 0.7056 0.0
H1966 H 0.12838 0.14281 0.77107 0.0
C1967 C 0.15379 0.1557 0.70152 0.0
H1968 H 0.11016 0.11843 0.73467 0.0
C1969 C 0.16457 0.16944 0.72236 0.0
C1970 C 0.1554 0.16536 0.7477 0.0
H1971 H 0.16099 0.15951 0.68215 0.0
H1972 H 0.17978 0.18354 0.71858 0.0
C1973 C 0.13571 0.14668 0.75175 0.0
C1974 C 0.35439 0.59536 0.62699 0.0
C1975 C 0.35174 0.58974 0.60044 0.0
H1976 H 0.33703 0.61139 0.66108 0.0
C1977 C 0.3272 0.5936 0.58868 0.0
H1978 H 0.37297 0.59253 0.63673 0.0
C1979 C 0.30641 0.60463 0.60284 0.0
C1980 C 0.30988 0.612 0.62896 0.0
H1981 H 0.32461 0.58984 0.5682 0.0
H1982 H 0.28825 0.60892 0.59289 0.0
C1983 C 0.33383 0.6063 0.64099 0.0
C1984 C 0.82536 0.90886 0.5676 0.0
C1985 C 0.84988 0.90626 0.57971 0.0
H1986 H 0.78622 0.89443 0.56404 0.0
C1987 C 0.85261 0.88747 0.59957 0.0
H1988 H 0.82259 0.92276 0.55199 0.0
C1989 C 0.83142 0.87169 0.60697 0.0
C1990 C 0.80704 0.87414 0.59461 0.0
H1991 H 0.87123 0.88484 0.60924 0.0
H1992 H 0.83444 0.85676 0.62147 0.0
C1993 C 0.80445 0.89267 0.57458 0.0
C1994 C 0.87881 0.13547 0.95101 0.0
C1995 C 0.88441 0.10988 0.94337 0.0
H1996 H 0.85875 0.17119 0.9421 0.0
C1997 C 0.87335 0.10077 0.92016 0.0
H1998 H 0.88719 0.14311 0.96867 0.0
C1999 C 0.85695 0.11666 0.9051 0.0
C2000 C 0.85148 0.14232 0.91254 0.0
H2001 H 0.87706 0.08111 0.91381 0.0
H2002 H 0.84855 0.1088 0.88754 0.0
C2003 C 0.86274 0.15161 0.93564 0.0
C2004 C 0.40906 0.96712 0.36909 0.0
C2005 C 0.38187 0.9646 0.37227 0.0
H2006 H 0.44382 0.98818 0.37902 0.0
C2007 C 0.36899 0.98233 0.38854 0.0
H2008 H 0.41969 0.95373 0.35692 0.0
C2009 C 0.38276 1.00195 0.40125 0.0
C2010 C 0.40991 1.00448 0.39817 0.0
H2011 H 0.34806 0.98135 0.39123 0.0
H2012 H 0.37199 1.01527 0.4134 0.0
C2013 C 0.42293 0.98676 0.38195 0.0
C2014 C 0.21571 0.39338 0.94248 0.0
C2015 C 0.2393 0.39478 0.95622 0.0
H2016 H 0.17695 0.40822 0.93749 0.0
C2017 C 0.24184 0.41345 0.97581 0.0
H2018 H 0.21273 0.37821 0.92839 0.0
C2019 C 0.22121 0.43049 0.98144 0.0
C2020 C 0.19741 0.42906 0.96781 0.0
H2021 H 0.25972 0.41462 0.98702 0.0
H2022 H 0.22382 0.4446 0.99668 0.0
C2023 C 0.19509 0.41044 0.94801 0.0
C2024 C 0.13027 0.10329 0.88685 0.0
C2025 C 0.14408 0.08018 0.8823 0.0
H2026 H 0.12893 0.14463 0.88117 0.0
C2027 C 0.166 0.08092 0.86592 0.0
H2028 H 0.1136 0.10336 0.89974 0.0
C2029 C 0.17474 0.1044 0.85527 0.0
C2030 C 0.16211 0.12783 0.86122 0.0
H2031 H 0.17716 0.06341 0.86229 0.0
H2032 H 0.1923 0.10438 0.84362 0.0
C2033 C 0.13933 0.12694 0.87655 0.0
C2034 C 0.71613 0.17704 0.07292 0.0
C2035 C 0.68985 0.17702 0.08117 0.0
H2036 H 0.75632 0.18317 0.08349 0.0
C2037 C 0.68393 0.18821 0.10523 0.0
H2038 H 0.72135 0.16892 0.05432 0.0
C2039 C 0.70394 0.19655 0.12171 0.0
C2040 C 0.7303 0.19434 0.11442 0.0
H2041 H 0.66406 0.18848 0.11234 0.0
H2042 H 0.69891 0.20273 0.14112 0.0
C2043 C 0.73618 0.18564 0.08939 0.0
C2044 C 0.39343 0.08189 0.16327 0.0
C2045 C 0.42071 0.07998 0.16036 0.0
H2046 H 0.36101 0.10385 0.17769 0.0
C2047 C 0.43622 0.10042 0.16979 0.0
H2048 H 0.38077 0.06664 0.15626 0.0
C2049 C 0.42478 0.1219 0.18215 0.0
C2050 C 0.39752 0.12347 0.18562 0.0
H2051 H 0.45727 0.09968 0.16796 0.0
H2052 H 0.43743 0.1369 0.18963 0.0
C2053 C 0.38204 0.10324 0.17575 0.0
C2054 C 0.663 0.46446 0.20045 0.0
C2055 C 0.68983 0.46227 0.19482 0.0
H2056 H 0.62709 0.48535 0.19362 0.0
C2057 C 0.7009 0.48055 0.1777 0.0
H2058 H 0.65378 0.45067 0.21343 0.0
C2059 C 0.68574 0.50029 0.16642 0.0
C2060 C 0.65889 0.50243 0.17173 0.0
H2061 H 0.72151 0.47986 0.17316 0.0
H2062 H 0.69521 0.51394 0.15347 0.0
C2063 C 0.64767 0.48423 0.18892 0.0
loop_
_geom_bond_atom_site_label_1
_geom_bond_atom_site_label_2
_geom_bond_distance
_geom_bond_site_symmetry_2
_ccdc_geom_bond_type
Cu0 N1 1.999 . S
Cu0 O6 1.974 . S
Cu0 N11 1.985 . S
Cu0 O20 1.959 . S
N1 Cu0 1.999 . S
N1 C3 1.263 . S
N1 C5 1.389 . S
N2 C3 1.358 . S
N2 C4 1.400 . S
C3 N1 1.263 . S
C3 N2 1.358 . S
C3 H9 0.930 . S
C4 N2 1.400 . S
C4 C5 1.351 . S
C4 H21 0.930 . S
C5 N1 1.389 . S
C5 C4 1.351 . S
C5 H10 0.930 . S
O6 Cu0 1.974 . S
O6 C16 1.282 . S
C7 O8 1.261 . S
C7 O20 1.251 . S
O8 C7 1.261 . S
H9 C3 0.930 . S
H10 C5 0.930 . S
N11 Cu0 1.985 . S
N11 C13 1.335 . S
N11 C14 1.390 . S
N12 C13 1.345 . S
N12 C15 1.336 . S
C13 N11 1.335 . S
C13 N12 1.345 . S
C13 H18 0.930 . S
C14 N11 1.390 . S
C14 C15 1.346 . S
C14 H19 0.930 . S
C15 N12 1.336 . S
C15 C14 1.346 . S
C15 H22 0.929 . S
C16 O6 1.282 . S
C16 O17 1.216 . S
O17 C16 1.216 . S
H18 C13 0.930 . S
H19 C14 0.930 . S
O20 Cu0 1.959 . S
O20 C7 1.251 . S
H21 C4 0.930 . S
H22 C15 0.929 . S
Cu23 N24 1.999 . S
Cu23 O29 1.974 . S
Cu23 N34 1.985 . S
Cu23 O43 1.959 . S
N24 Cu23 1.999 . S
N24 C26 1.263 . S
N24 C28 1.389 . S
N25 C26 1.358 . S
N25 C27 1.400 . S
C26 N24 1.263 . S
C26 N25 1.358 . S
C26 H32 0.930 . S
C27 N25 1.400 . S
C27 C28 1.351 . S
C27 H44 0.930 . S
C28 N24 1.389 . S
C28 C27 1.351 . S
C28 H33 0.930 . S
O29 Cu23 1.974 . S
O29 C39 1.282 . S
C30 O31 1.261 . S
C30 O43 1.251 . S
O31 C30 1.261 . S
H32 C26 0.930 . S
H33 C28 0.930 . S
N34 Cu23 1.985 . S
N34 C36 1.335 . S
N34 C37 1.390 . S
N35 C36 1.345 . S
N35 C38 1.336 . S
C36 N34 1.335 . S
C36 N35 1.345 . S
C36 H41 0.930 . S
C37 N34 1.390 . S
C37 C38 1.346 . S
C37 H42 0.930 . S
C38 N35 1.336 . S
C38 C37 1.346 . S
C38 H45 0.929 . S
C39 O29 1.282 . S
C39 O40 1.216 . S
O40 C39 1.216 . S
H41 C36 0.930 . S
H42 C37 0.930 . S
O43 Cu23 1.959 . S
O43 C30 1.251 . S
H44 C27 0.930 . S
H45 C38 0.929 . S
Cu46 N47 1.999 . S
Cu46 O52 1.974 . S
Cu46 N57 1.985 . S
Cu46 O66 1.959 . S
N47 Cu46 1.999 . S
N47 C49 1.263 . S
N47 C51 1.389 . S
N48 C49 1.358 . S
N48 C50 1.400 . S
C49 N47 1.263 . S
C49 N48 1.358 . S
C49 H55 0.930 . S
C50 N48 1.400 . S
C50 C51 1.351 . S
C50 H67 0.930 . S
C51 N47 1.389 . S
C51 C50 1.351 . S
C51 H56 0.930 . S
O52 Cu46 1.974 . S
O52 C62 1.282 . S
C53 O54 1.261 . S
C53 O66 1.251 . S
O54 C53 1.261 . S
H55 C49 0.930 . S
H56 C51 0.930 . S
N57 Cu46 1.985 . S
N57 C59 1.335 . S
N57 C60 1.390 . S
N58 C59 1.345 . S
N58 C61 1.336 . S
C59 N57 1.335 . S
C59 N58 1.345 . S
C59 H64 0.930 . S
C60 N57 1.390 . S
C60 C61 1.346 . S
C60 H65 0.930 . S
C61 N58 1.336 . S
C61 C60 1.346 . S
C61 H68 0.929 . S
C62 O52 1.282 . S
C62 O63 1.216 . S
O63 C62 1.216 . S
H64 C59 0.930 . S
H65 C60 0.930 . S
O66 Cu46 1.959 . S
O66 C53 1.251 . S
H67 C50 0.930 . S
H68 C61 0.929 . S
Cu69 N70 1.999 . S
Cu69 O75 1.974 . S
Cu69 N80 1.985 . S
Cu69 O89 1.959 . S
N70 Cu69 1.999 . S
N70 C72 1.263 . S
N70 C74 1.389 . S
N71 C72 1.358 . S
N71 C73 1.400 . S
C72 N70 1.263 . S
C72 N71 1.358 . S
C72 H78 0.930 . S
C73 N71 1.400 . S
C73 C74 1.351 . S
C73 H90 0.930 . S
C74 N70 1.389 . S
C74 C73 1.351 . S
C74 H79 0.930 . S
O75 Cu69 1.974 . S
O75 C85 1.282 . S
C76 O77 1.261 . S
C76 O89 1.251 . S
O77 C76 1.261 . S
H78 C72 0.930 . S
H79 C74 0.930 . S
N80 Cu69 1.985 . S
N80 C82 1.335 . S
N80 C83 1.390 . S
N81 C82 1.345 . S
N81 C84 1.336 . S
C82 N80 1.335 . S
C82 N81 1.345 . S
C82 H87 0.930 . S
C83 N80 1.390 . S
C83 C84 1.346 . S
C83 H88 0.930 . S
C84 N81 1.336 . S
C84 C83 1.346 . S
C84 H91 0.929 . S
C85 O75 1.282 . S
C85 O86 1.216 . S
O86 C85 1.216 . S
H87 C82 0.930 . S
H88 C83 0.930 . S
O89 Cu69 1.959 . S
O89 C76 1.251 . S
H90 C73 0.930 . S
H91 C84 0.929 . S
Cu92 N93 1.999 . S
Cu92 O98 1.974 . S
Cu92 N103 1.985 . S
Cu92 O112 1.959 . S
N93 Cu92 1.999 . S
N93 C95 1.263 . S
N93 C97 1.389 . S
N94 C95 1.358 . S
N94 C96 1.400 . S
C95 N93 1.263 . S
C95 N94 1.358 . S
C95 H101 0.930 . S
C96 N94 1.400 . S
C96 C97 1.351 . S
C96 H113 0.930 . S
C97 N93 1.389 . S
C97 C96 1.351 . S
C97 H102 0.930 . S
O98 Cu92 1.974 . S
O98 C108 1.282 . S
C99 O100 1.261 . S
C99 O112 1.251 . S
O100 C99 1.261 . S
H101 C95 0.930 . S
H102 C97 0.930 . S
N103 Cu92 1.985 . S
N103 C105 1.335 . S
N103 C106 1.390 . S
N104 C105 1.345 . S
N104 C107 1.336 . S
C105 N103 1.335 . S
C105 N104 1.345 . S
C105 H110 0.930 . S
C106 N103 1.390 . S
C106 C107 1.346 . S
C106 H111 0.930 . S
C107 N104 1.336 . S
C107 C106 1.346 . S
C107 H114 0.929 . S
C108 O98 1.282 . S
C108 O109 1.216 . S
O109 C108 1.216 . S
H110 C105 0.930 . S
H111 C106 0.930 . S
O112 Cu92 1.959 . S
O112 C99 1.251 . S
H113 C96 0.930 . S
H114 C107 0.929 . S
Cu115 N116 1.999 . S
Cu115 O121 1.974 1_455 S
Cu115 N126 1.985 1_455 S
Cu115 O135 1.959 . S
N116 Cu115 1.999 . S
N116 C118 1.263 . S
N116 C120 1.389 . S
N117 C118 1.358 . S
N117 C119 1.400 . S
C118 N116 1.263 . S
C118 N117 1.358 . S
C118 H124 0.930 . S
C119 N117 1.400 . S
C119 C120 1.351 . S
C119 H136 0.930 . S
C120 N116 1.389 . S
C120 C119 1.351 . S
C120 H125 0.930 . S
O121 Cu115 1.974 1_655 S
O121 C131 1.282 . S
C122 O123 1.261 . S
C122 O135 1.251 . S
O123 C122 1.261 . S
H124 C118 0.930 . S
H125 C120 0.930 . S
N126 Cu115 1.985 1_655 S
N126 C128 1.335 . S
N126 C129 1.390 . S
N127 C128 1.345 . S
N127 C130 1.336 . S
C128 N126 1.335 . S
C128 N127 1.345 . S
C128 H133 0.930 . S
C129 N126 1.390 . S
C129 C130 1.346 . S
C129 H134 0.930 . S
C130 N127 1.336 . S
C130 C129 1.346 . S
C130 H137 0.929 . S
C131 O121 1.282 . S
C131 O132 1.216 . S
O132 C131 1.216 . S
H133 C128 0.930 . S
H134 C129 0.930 . S
O135 Cu115 1.959 . S
O135 C122 1.251 . S
H136 C119 0.930 . S
H137 C130 0.929 . S
Cu138 N139 1.999 . S
Cu138 O144 1.974 . S
Cu138 N149 1.985 . S
Cu138 O158 1.959 . S
N139 Cu138 1.999 . S
N139 C141 1.263 . S
N139 C143 1.389 . S
N140 C141 1.358 . S
N140 C142 1.400 . S
C141 N139 1.263 . S
C141 N140 1.358 . S
C141 H147 0.930 . S
C142 N140 1.400 . S
C142 C143 1.351 . S
C142 H159 0.930 . S
C143 N139 1.389 . S
C143 C142 1.351 . S
C143 H148 0.930 . S
O144 Cu138 1.974 . S
O144 C154 1.282 . S
C145 O146 1.261 . S
C145 O158 1.251 . S
O146 C145 1.261 . S
H147 C141 0.930 . S
H148 C143 0.930 . S
N149 Cu138 1.985 . S
N149 C151 1.335 . S
N149 C152 1.390 . S
N150 C151 1.345 . S
N150 C153 1.336 . S
C151 N149 1.335 . S
C151 N150 1.345 . S
C151 H156 0.930 . S
C152 N149 1.390 . S
C152 C153 1.346 . S
C152 H157 0.930 . S
C153 N150 1.336 . S
C153 C152 1.346 . S
C153 H160 0.929 . S
C154 O144 1.282 . S
C154 O155 1.216 . S
O155 C154 1.216 . S
H156 C151 0.930 . S
H157 C152 0.930 . S
O158 Cu138 1.959 . S
O158 C145 1.251 . S
H159 C142 0.930 . S
H160 C153 0.929 . S
Cu161 N162 1.999 . S
Cu161 O167 1.974 1_655 S
Cu161 N172 1.985 1_655 S
Cu161 O181 1.959 . S
N162 Cu161 1.999 . S
N162 C164 1.263 . S
N162 C166 1.389 . S
N163 C164 1.358 . S
N163 C165 1.400 . S
C164 N162 1.263 . S
C164 N163 1.358 . S
C164 H170 0.930 . S
C165 N163 1.400 . S
C165 C166 1.351 . S
C165 H182 0.930 . S
C166 N162 1.389 . S
C166 C165 1.351 . S
C166 H171 0.930 . S
O167 Cu161 1.974 1_455 S
O167 C177 1.282 . S
C168 O169 1.261 . S
C168 O181 1.251 . S
O169 C168 1.261 . S
H170 C164 0.930 . S
H171 C166 0.930 . S
N172 Cu161 1.985 1_455 S
N172 C174 1.335 . S
N172 C175 1.390 . S
N173 C174 1.345 . S
N173 C176 1.336 . S
C174 N172 1.335 . S
C174 N173 1.345 . S
C174 H179 0.930 . S
C175 N172 1.390 . S
C175 C176 1.346 . S
C175 H180 0.930 . S
C176 N173 1.336 . S
C176 C175 1.346 . S
C176 H183 0.929 . S
C177 O167 1.282 . S
C177 O178 1.216 . S
O178 C177 1.216 . S
H179 C174 0.930 . S
H180 C175 0.930 . S
O181 Cu161 1.959 . S
O181 C168 1.251 . S
H182 C165 0.930 . S
H183 C176 0.929 . S
Cu184 N185 1.999 . S
Cu184 O190 1.974 . S
Cu184 N195 1.985 . S
Cu184 O204 1.959 . S
N185 Cu184 1.999 . S
N185 C187 1.263 . S
N185 C189 1.389 . S
N186 C187 1.358 . S
N186 C188 1.400 . S
C187 N185 1.263 . S
C187 N186 1.358 . S
C187 H193 0.930 . S
C188 N186 1.400 . S
C188 C189 1.351 . S
C188 H205 0.930 . S
C189 N185 1.389 . S
C189 C188 1.351 . S
C189 H194 0.930 . S
O190 Cu184 1.974 . S
O190 C200 1.282 . S
C191 O192 1.261 . S
C191 O204 1.251 . S
O192 C191 1.261 . S
H193 C187 0.930 . S
H194 C189 0.930 . S
N195 Cu184 1.985 . S
N195 C197 1.335 . S
N195 C198 1.390 . S
N196 C197 1.345 . S
N196 C199 1.336 . S
C197 N195 1.335 . S
C197 N196 1.345 . S
C197 H202 0.930 . S
C198 N195 1.390 . S
C198 C199 1.346 . S
C198 H203 0.930 . S
C199 N196 1.336 . S
C199 C198 1.346 . S
C199 H206 0.929 . S
C200 O190 1.282 . S
C200 O201 1.216 . S
O201 C200 1.216 . S
H202 C197 0.930 . S
H203 C198 0.930 . S
O204 Cu184 1.959 . S
O204 C191 1.251 . S
H205 C188 0.930 . S
H206 C199 0.929 . S
Cu207 N208 1.999 . S
Cu207 O213 1.974 1_554 S
Cu207 N218 1.985 1_554 S
Cu207 O227 1.959 . S
N208 Cu207 1.999 . S
N208 C210 1.263 . S
N208 C212 1.389 . S
N209 C210 1.358 . S
N209 C211 1.400 . S
C210 N208 1.263 . S
C210 N209 1.358 . S
C210 H216 0.930 . S
C211 N209 1.400 . S
C211 C212 1.351 . S
C211 H228 0.930 . S
C212 N208 1.389 . S
C212 C211 1.351 . S
C212 H217 0.930 . S
O213 Cu207 1.974 1_556 S
O213 C223 1.282 . S
C214 O215 1.261 . S
C214 O227 1.251 . S
O215 C214 1.261 . S
H216 C210 0.930 . S
H217 C212 0.930 . S
N218 Cu207 1.985 1_556 S
N218 C220 1.335 . S
N218 C221 1.390 . S
N219 C220 1.345 . S
N219 C222 1.336 . S
C220 N218 1.335 . S
C220 N219 1.345 . S
C220 H225 0.930 . S
C221 N218 1.390 . S
C221 C222 1.346 . S
C221 H226 0.930 . S
C222 N219 1.336 . S
C222 C221 1.346 . S
C222 H229 0.929 . S
C223 O213 1.282 . S
C223 O224 1.216 . S
O224 C223 1.216 . S
H225 C220 0.930 . S
H226 C221 0.930 . S
O227 Cu207 1.959 . S
O227 C214 1.251 . S
H228 C211 0.930 . S
H229 C222 0.929 . S
Cu230 N231 1.999 . S
Cu230 O236 1.974 . S
Cu230 N241 1.985 . S
Cu230 O250 1.959 . S
N231 Cu230 1.999 . S
N231 C233 1.263 . S
N231 C235 1.389 . S
N232 C233 1.358 . S
N232 C234 1.400 . S
C233 N231 1.263 . S
C233 N232 1.358 . S
C233 H239 0.930 . S
C234 N232 1.400 . S
C234 C235 1.351 . S
C234 H251 0.930 . S
C235 N231 1.389 . S
C235 C234 1.351 . S
C235 H240 0.930 . S
O236 Cu230 1.974 . S
O236 C246 1.282 . S
C237 O238 1.261 . S
C237 O250 1.251 . S
O238 C237 1.261 . S
H239 C233 0.930 . S
H240 C235 0.930 . S
N241 Cu230 1.985 . S
N241 C243 1.335 . S
N241 C244 1.390 . S
N242 C243 1.345 . S
N242 C245 1.336 . S
C243 N241 1.335 . S
C243 N242 1.345 . S
C243 H248 0.930 . S
C244 N241 1.390 . S
C244 C245 1.346 . S
C244 H249 0.930 . S
C245 N242 1.336 . S
C245 C244 1.346 . S
C245 H252 0.929 . S
C246 O236 1.282 . S
C246 O247 1.216 . S
O247 C246 1.216 . S
H248 C243 0.930 . S
H249 C244 0.930 . S
O250 Cu230 1.959 . S
O250 C237 1.251 . S
H251 C234 0.930 . S
H252 C245 0.929 . S
Cu253 N254 1.999 . S
Cu253 O259 1.974 1_554 S
Cu253 N264 1.985 1_554 S
Cu253 O273 1.959 . S
N254 Cu253 1.999 . S
N254 C256 1.263 . S
N254 C258 1.389 . S
N255 C256 1.358 . S
N255 C257 1.400 . S
C256 N254 1.263 . S
C256 N255 1.358 . S
C256 H262 0.930 . S
C257 N255 1.400 . S
C257 C258 1.351 . S
C257 H274 0.930 . S
C258 N254 1.389 . S
C258 C257 1.351 . S
C258 H263 0.930 . S
O259 Cu253 1.974 1_556 S
O259 C269 1.282 . S
C260 O261 1.261 . S
C260 O273 1.251 . S
O261 C260 1.261 . S
H262 C256 0.930 . S
H263 C258 0.930 . S
N264 Cu253 1.985 1_556 S
N264 C266 1.335 . S
N264 C267 1.390 . S
N265 C266 1.345 . S
N265 C268 1.336 . S
C266 N264 1.335 . S
C266 N265 1.345 . S
C266 H271 0.930 . S
C267 N264 1.390 . S
C267 C268 1.346 . S
C267 H272 0.930 . S
C268 N265 1.336 . S
C268 C267 1.346 . S
C268 H275 0.929 . S
C269 O259 1.282 . S
C269 O270 1.216 . S
O270 C269 1.216 . S
H271 C266 0.930 . S
H272 C267 0.930 . S
O273 Cu253 1.959 . S
O273 C260 1.251 . S
H274 C257 0.930 . S
H275 C268 0.929 . S
Cu276 N277 1.999 . S
Cu276 O282 1.974 . S
Cu276 N287 1.985 . S
Cu276 O296 1.959 . S
N277 Cu276 1.999 . S
N277 C279 1.263 . S
N277 C281 1.389 . S
N278 C279 1.358 . S
N278 C280 1.400 . S
C279 N277 1.263 . S
C279 N278 1.358 . S
C279 H285 0.930 . S
C280 N278 1.400 . S
C280 C281 1.351 . S
C280 H297 0.930 . S
C281 N277 1.389 . S
C281 C280 1.351 . S
C281 H286 0.930 . S
O282 Cu276 1.974 . S
O282 C292 1.282 . S
C283 O284 1.261 . S
C283 O296 1.251 . S
O284 C283 1.261 . S
H285 C279 0.930 . S
H286 C281 0.930 . S
N287 Cu276 1.985 . S
N287 C289 1.335 . S
N287 C290 1.390 . S
N288 C289 1.345 . S
N288 C291 1.336 . S
C289 N287 1.335 . S
C289 N288 1.345 . S
C289 H294 0.930 . S
C290 N287 1.390 . S
C290 C291 1.346 . S
C290 H295 0.930 . S
C291 N288 1.336 . S
C291 C290 1.346 . S
C291 H298 0.929 . S
C292 O282 1.282 . S
C292 O293 1.216 . S
O293 C292 1.216 . S
H294 C289 0.930 . S
H295 C290 0.930 . S
O296 Cu276 1.959 . S
O296 C283 1.251 . S
H297 C280 0.930 . S
H298 C291 0.929 . S
Cu299 N300 1.999 . S
Cu299 O305 1.974 1_556 S
Cu299 N310 1.985 1_556 S
Cu299 O319 1.959 . S
N300 Cu299 1.999 . S
N300 C302 1.263 . S
N300 C304 1.389 . S
N301 C302 1.358 . S
N301 C303 1.400 . S
C302 N300 1.263 . S
C302 N301 1.358 . S
C302 H308 0.930 . S
C303 N301 1.400 . S
C303 C304 1.351 . S
C303 H320 0.930 . S
C304 N300 1.389 . S
C304 C303 1.351 . S
C304 H309 0.930 . S
O305 Cu299 1.974 1_554 S
O305 C315 1.282 . S
C306 O307 1.261 . S
C306 O319 1.251 . S
O307 C306 1.261 . S
H308 C302 0.930 . S
H309 C304 0.930 . S
N310 Cu299 1.985 1_554 S
N310 C312 1.335 . S
N310 C313 1.390 . S
N311 C312 1.345 . S
N311 C314 1.336 . S
C312 N310 1.335 . S
C312 N311 1.345 . S
C312 H317 0.930 . S
C313 N310 1.390 . S
C313 C314 1.346 . S
C313 H318 0.930 . S
C314 N311 1.336 . S
C314 C313 1.346 . S
C314 H321 0.929 . S
C315 O305 1.282 . S
C315 O316 1.216 . S
O316 C315 1.216 . S
H317 C312 0.930 . S
H318 C313 0.930 . S
O319 Cu299 1.959 . S
O319 C306 1.251 . S
H320 C303 0.930 . S
H321 C314 0.929 . S
Cu322 N323 1.999 . S
Cu322 O328 1.974 . S
Cu322 N333 1.985 . S
Cu322 O342 1.959 . S
N323 Cu322 1.999 . S
N323 C325 1.263 . S
N323 C327 1.389 . S
N324 C325 1.358 . S
N324 C326 1.400 . S
C325 N323 1.263 . S
C325 N324 1.358 . S
C325 H331 0.930 . S
C326 N324 1.400 . S
C326 C327 1.351 . S
C326 H343 0.930 . S
C327 N323 1.389 . S
C327 C326 1.351 . S
C327 H332 0.930 . S
O328 Cu322 1.974 . S
O328 C338 1.282 . S
C329 O330 1.261 . S
C329 O342 1.251 . S
O330 C329 1.261 . S
H331 C325 0.930 . S
H332 C327 0.930 . S
N333 Cu322 1.985 . S
N333 C335 1.335 . S
N333 C336 1.390 . S
N334 C335 1.345 . S
N334 C337 1.336 . S
C335 N333 1.335 . S
C335 N334 1.345 . S
C335 H340 0.930 . S
C336 N333 1.390 . S
C336 C337 1.346 . S
C336 H341 0.930 . S
C337 N334 1.336 . S
C337 C336 1.346 . S
C337 H344 0.929 . S
C338 O328 1.282 . S
C338 O339 1.216 . S
O339 C338 1.216 . S
H340 C335 0.930 . S
H341 C336 0.930 . S
O342 Cu322 1.959 . S
O342 C329 1.251 . S
H343 C326 0.930 . S
H344 C337 0.929 . S
Cu345 N346 1.999 . S
Cu345 O351 1.974 1_556 S
Cu345 N356 1.985 1_556 S
Cu345 O365 1.959 . S
N346 Cu345 1.999 . S
N346 C348 1.263 . S
N346 C350 1.389 . S
N347 C348 1.358 . S
N347 C349 1.400 . S
C348 N346 1.263 . S
C348 N347 1.358 . S
C348 H354 0.930 . S
C349 N347 1.400 . S
C349 C350 1.351 . S
C349 H366 0.930 . S
C350 N346 1.389 . S
C350 C349 1.351 . S
C350 H355 0.930 . S
O351 Cu345 1.974 1_554 S
O351 C361 1.282 . S
C352 O353 1.261 . S
C352 O365 1.251 . S
O353 C352 1.261 . S
H354 C348 0.930 . S
H355 C350 0.930 . S
N356 Cu345 1.985 1_554 S
N356 C358 1.335 . S
N356 C359 1.390 . S
N357 C358 1.345 . S
N357 C360 1.336 . S
C358 N356 1.335 . S
C358 N357 1.345 . S
C358 H363 0.930 . S
C359 N356 1.390 . S
C359 C360 1.346 . S
C359 H364 0.930 . S
C360 N357 1.336 . S
C360 C359 1.346 . S
C360 H367 0.929 . S
C361 O351 1.282 . S
C361 O362 1.216 . S
O362 C361 1.216 . S
H363 C358 0.930 . S
H364 C359 0.930 . S
O365 Cu345 1.959 . S
O365 C352 1.251 . S
H366 C349 0.930 . S
H367 C360 0.929 . S
Cu368 N369 1.999 . S
Cu368 O374 1.974 . S
Cu368 N379 1.985 . S
Cu368 O388 1.959 . S
N369 Cu368 1.999 . S
N369 C371 1.263 . S
N369 C373 1.389 . S
N370 C371 1.358 . S
N370 C372 1.400 . S
C371 N369 1.263 . S
C371 N370 1.358 . S
C371 H377 0.930 . S
C372 N370 1.400 . S
C372 C373 1.351 . S
C372 H389 0.930 . S
C373 N369 1.389 . S
C373 C372 1.351 . S
C373 H378 0.930 . S
O374 Cu368 1.974 . S
O374 C384 1.282 . S
C375 O376 1.261 . S
C375 O388 1.251 . S
O376 C375 1.261 . S
H377 C371 0.930 . S
H378 C373 0.930 . S
N379 Cu368 1.985 . S
N379 C381 1.335 . S
N379 C382 1.390 . S
N380 C381 1.345 . S
N380 C383 1.336 . S
C381 N379 1.335 . S
C381 N380 1.345 . S
C381 H386 0.930 . S
C382 N379 1.390 . S
C382 C383 1.346 . S
C382 H387 0.930 . S
C383 N380 1.336 . S
C383 C382 1.346 . S
C383 H390 0.929 . S
C384 O374 1.282 . S
C384 O385 1.216 . S
O385 C384 1.216 . S
H386 C381 0.930 . S
H387 C382 0.930 . S
O388 Cu368 1.959 . S
O388 C375 1.251 . S
H389 C372 0.930 . S
H390 C383 0.929 . S
Cu391 N392 1.999 . S
Cu391 O397 1.974 . S
Cu391 N402 1.985 . S
Cu391 O411 1.959 . S
N392 Cu391 1.999 . S
N392 C394 1.263 . S
N392 C396 1.389 . S
N393 C394 1.358 . S
N393 C395 1.400 . S
C394 N392 1.263 . S
C394 N393 1.358 . S
C394 H400 0.930 . S
C395 N393 1.400 . S
C395 C396 1.351 . S
C395 H412 0.930 . S
C396 N392 1.389 . S
C396 C395 1.351 . S
C396 H401 0.930 . S
O397 Cu391 1.974 . S
O397 C407 1.282 . S
C398 O399 1.261 . S
C398 O411 1.251 . S
O399 C398 1.261 . S
H400 C394 0.930 . S
H401 C396 0.930 . S
N402 Cu391 1.985 . S
N402 C404 1.335 . S
N402 C405 1.390 . S
N403 C404 1.345 . S
N403 C406 1.336 . S
C404 N402 1.335 . S
C404 N403 1.345 . S
C404 H409 0.930 . S
C405 N402 1.390 . S
C405 C406 1.346 . S
C405 H410 0.930 . S
C406 N403 1.336 . S
C406 C405 1.346 . S
C406 H413 0.929 . S
C407 O397 1.282 . S
C407 O408 1.216 . S
O408 C407 1.216 . S
H409 C404 0.930 . S
H410 C405 0.930 . S
O411 Cu391 1.959 . S
O411 C398 1.251 . S
H412 C395 0.930 . S
H413 C406 0.929 . S
Cu414 N415 1.999 . S
Cu414 O420 1.974 . S
Cu414 N425 1.985 . S
Cu414 O434 1.959 . S
N415 Cu414 1.999 . S
N415 C417 1.263 . S
N415 C419 1.389 . S
N416 C417 1.358 . S
N416 C418 1.400 . S
C417 N415 1.263 . S
C417 N416 1.358 . S
C417 H423 0.930 . S
C418 N416 1.400 . S
C418 C419 1.351 . S
C418 H435 0.930 . S
C419 N415 1.389 . S
C419 C418 1.351 . S
C419 H424 0.930 . S
O420 Cu414 1.974 . S
O420 C430 1.282 . S
C421 O422 1.261 . S
C421 O434 1.251 . S
O422 C421 1.261 . S
H423 C417 0.930 . S
H424 C419 0.930 . S
N425 Cu414 1.985 . S
N425 C427 1.335 . S
N425 C428 1.390 . S
N426 C427 1.345 . S
N426 C429 1.336 . S
C427 N425 1.335 . S
C427 N426 1.345 . S
C427 H432 0.930 . S
C428 N425 1.390 . S
C428 C429 1.346 . S
C428 H433 0.930 . S
C429 N426 1.336 . S
C429 C428 1.346 . S
C429 H436 0.929 . S
C430 O420 1.282 . S
C430 O431 1.216 . S
O431 C430 1.216 . S
H432 C427 0.930 . S
H433 C428 0.930 . S
O434 Cu414 1.959 . S
O434 C421 1.251 . S
H435 C418 0.930 . S
H436 C429 0.929 . S
Cu437 N438 1.999 . S
Cu437 O443 1.974 . S
Cu437 N448 1.985 . S
Cu437 O457 1.959 . S
N438 Cu437 1.999 . S
N438 C440 1.263 . S
N438 C442 1.389 . S
N439 C440 1.358 . S
N439 C441 1.400 . S
C440 N438 1.263 . S
C440 N439 1.358 . S
C440 H446 0.930 . S
C441 N439 1.400 . S
C441 C442 1.351 . S
C441 H458 0.930 . S
C442 N438 1.389 . S
C442 C441 1.351 . S
C442 H447 0.930 . S
O443 Cu437 1.974 . S
O443 C453 1.282 . S
C444 O445 1.261 . S
C444 O457 1.251 . S
O445 C444 1.261 . S
H446 C440 0.930 . S
H447 C442 0.930 . S
N448 Cu437 1.985 . S
N448 C450 1.335 . S
N448 C451 1.390 . S
N449 C450 1.345 . S
N449 C452 1.336 . S
C450 N448 1.335 . S
C450 N449 1.345 . S
C450 H455 0.930 . S
C451 N448 1.390 . S
C451 C452 1.346 . S
C451 H456 0.930 . S
C452 N449 1.336 . S
C452 C451 1.346 . S
C452 H459 0.929 . S
C453 O443 1.282 . S
C453 O454 1.216 . S
O454 C453 1.216 . S
H455 C450 0.930 . S
H456 C451 0.930 . S
O457 Cu437 1.959 . S
O457 C444 1.251 . S
H458 C441 0.930 . S
H459 C452 0.929 . S
Cu460 N461 1.999 . S
Cu460 O466 1.974 . S
Cu460 N471 1.985 . S
Cu460 O480 1.959 . S
N461 Cu460 1.999 . S
N461 C463 1.263 . S
N461 C465 1.389 . S
N462 C463 1.358 . S
N462 C464 1.400 . S
C463 N461 1.263 . S
C463 N462 1.358 . S
C463 H469 0.930 . S
C464 N462 1.400 . S
C464 C465 1.351 . S
C464 H481 0.930 . S
C465 N461 1.389 . S
C465 C464 1.351 . S
C465 H470 0.930 . S
O466 Cu460 1.974 . S
O466 C476 1.282 . S
C467 O468 1.261 . S
C467 O480 1.251 . S
O468 C467 1.261 . S
H469 C463 0.930 . S
H470 C465 0.930 . S
N471 Cu460 1.985 . S
N471 C473 1.335 . S
N471 C474 1.390 . S
N472 C473 1.345 . S
N472 C475 1.336 . S
C473 N471 1.335 . S
C473 N472 1.345 . S
C473 H478 0.930 . S
C474 N471 1.390 . S
C474 C475 1.346 . S
C474 H479 0.930 . S
C475 N472 1.336 . S
C475 C474 1.346 . S
C475 H482 0.929 . S
C476 O466 1.282 . S
C476 O477 1.216 . S
O477 C476 1.216 . S
H478 C473 0.930 . S
H479 C474 0.930 . S
O480 Cu460 1.959 . S
O480 C467 1.251 . S
H481 C464 0.930 . S
H482 C475 0.929 . S
Cu483 N484 1.999 . S
Cu483 O489 1.974 . S
Cu483 N494 1.985 . S
Cu483 O503 1.959 . S
N484 Cu483 1.999 . S
N484 C486 1.263 . S
N484 C488 1.389 . S
N485 C486 1.358 . S
N485 C487 1.400 . S
C486 N484 1.263 . S
C486 N485 1.358 . S
C486 H492 0.930 . S
C487 N485 1.400 . S
C487 C488 1.351 . S
C487 H504 0.930 . S
C488 N484 1.389 . S
C488 C487 1.351 . S
C488 H493 0.930 . S
O489 Cu483 1.974 . S
O489 C499 1.282 . S
C490 O491 1.261 . S
C490 O503 1.251 . S
O491 C490 1.261 . S
H492 C486 0.930 . S
H493 C488 0.930 . S
N494 Cu483 1.985 . S
N494 C496 1.335 . S
N494 C497 1.390 . S
N495 C496 1.345 . S
N495 C498 1.336 . S
C496 N494 1.335 . S
C496 N495 1.345 . S
C496 H501 0.930 . S
C497 N494 1.390 . S
C497 C498 1.346 . S
C497 H502 0.930 . S
C498 N495 1.336 . S
C498 C497 1.346 . S
C498 H505 0.929 . S
C499 O489 1.282 . S
C499 O500 1.216 . S
O500 C499 1.216 . S
H501 C496 0.930 . S
H502 C497 0.930 . S
O503 Cu483 1.959 . S
O503 C490 1.251 . S
H504 C487 0.930 . S
H505 C498 0.929 . S
Cu506 N507 1.999 . S
Cu506 O512 1.974 . S
Cu506 N517 1.985 . S
Cu506 O526 1.959 . S
N507 Cu506 1.999 . S
N507 C509 1.263 . S
N507 C511 1.389 . S
N508 C509 1.358 . S
N508 C510 1.400 . S
C509 N507 1.263 . S
C509 N508 1.358 . S
C509 H515 0.930 . S
C510 N508 1.400 . S
C510 C511 1.351 . S
C510 H527 0.930 . S
C511 N507 1.389 . S
C511 C510 1.351 . S
C511 H516 0.930 . S
O512 Cu506 1.974 . S
O512 C522 1.282 . S
C513 O514 1.261 . S
C513 O526 1.251 . S
O514 C513 1.261 . S
H515 C509 0.930 . S
H516 C511 0.930 . S
N517 Cu506 1.985 . S
N517 C519 1.335 . S
N517 C520 1.390 . S
N518 C519 1.345 . S
N518 C521 1.336 . S
C519 N517 1.335 . S
C519 N518 1.345 . S
C519 H524 0.930 . S
C520 N517 1.390 . S
C520 C521 1.346 . S
C520 H525 0.930 . S
C521 N518 1.336 . S
C521 C520 1.346 . S
C521 H528 0.929 . S
C522 O512 1.282 . S
C522 O523 1.216 . S
O523 C522 1.216 . S
H524 C519 0.930 . S
H525 C520 0.930 . S
O526 Cu506 1.959 . S
O526 C513 1.251 . S
H527 C510 0.930 . S
H528 C521 0.929 . S
Cu529 N530 1.999 . S
Cu529 O535 1.974 1_545 S
Cu529 N540 1.985 1_545 S
Cu529 O549 1.959 . S
N530 Cu529 1.999 . S
N530 C532 1.263 . S
N530 C534 1.389 . S
N531 C532 1.358 . S
N531 C533 1.400 . S
C532 N530 1.263 . S
C532 N531 1.358 . S
C532 H538 0.930 . S
C533 N531 1.400 . S
C533 C534 1.351 . S
C533 H550 0.930 . S
C534 N530 1.389 . S
C534 C533 1.351 . S
C534 H539 0.930 . S
O535 Cu529 1.974 1_565 S
O535 C545 1.282 . S
C536 O537 1.261 . S
C536 O549 1.251 . S
O537 C536 1.261 . S
H538 C532 0.930 . S
H539 C534 0.930 . S
N540 Cu529 1.985 1_565 S
N540 C542 1.335 . S
N540 C543 1.390 . S
N541 C542 1.345 . S
N541 C544 1.336 . S
C542 N540 1.335 . S
C542 N541 1.345 . S
C542 H547 0.930 . S
C543 N540 1.390 . S
C543 C544 1.346 . S
C543 H548 0.930 . S
C544 N541 1.336 . S
C544 C543 1.346 . S
C544 H551 0.929 . S
C545 O535 1.282 . S
C545 O546 1.216 . S
O546 C545 1.216 . S
H547 C542 0.930 . S
H548 C543 0.930 . S
O549 Cu529 1.959 . S
O549 C536 1.251 . S
H550 C533 0.930 . S
H551 C544 0.929 . S
Cu552 N553 1.999 . S
Cu552 O558 1.974 . S
Cu552 N563 1.985 . S
Cu552 O572 1.959 . S
N553 Cu552 1.999 . S
N553 C555 1.263 . S
N553 C557 1.389 . S
N554 C555 1.358 . S
N554 C556 1.400 . S
C555 N553 1.263 . S
C555 N554 1.358 . S
C555 H561 0.930 . S
C556 N554 1.400 . S
C556 C557 1.351 . S
C556 H573 0.930 . S
C557 N553 1.389 . S
C557 C556 1.351 . S
C557 H562 0.930 . S
O558 Cu552 1.974 . S
O558 C568 1.282 . S
C559 O560 1.261 . S
C559 O572 1.251 . S
O560 C559 1.261 . S
H561 C555 0.930 . S
H562 C557 0.930 . S
N563 Cu552 1.985 . S
N563 C565 1.335 . S
N563 C566 1.390 . S
N564 C565 1.345 . S
N564 C567 1.336 . S
C565 N563 1.335 . S
C565 N564 1.345 . S
C565 H570 0.930 . S
C566 N563 1.390 . S
C566 C567 1.346 . S
C566 H571 0.930 . S
C567 N564 1.336 . S
C567 C566 1.346 . S
C567 H574 0.929 . S
C568 O558 1.282 . S
C568 O569 1.216 . S
O569 C568 1.216 . S
H570 C565 0.930 . S
H571 C566 0.930 . S
O572 Cu552 1.959 . S
O572 C559 1.251 . S
H573 C556 0.930 . S
H574 C567 0.929 . S
Cu575 N576 1.999 . S
Cu575 O581 1.974 1_655 S
Cu575 N586 1.985 1_655 S
Cu575 O595 1.959 . S
N576 Cu575 1.999 . S
N576 C578 1.263 . S
N576 C580 1.389 . S
N577 C578 1.358 . S
N577 C579 1.400 . S
C578 N576 1.263 . S
C578 N577 1.358 . S
C578 H584 0.930 . S
C579 N577 1.400 . S
C579 C580 1.351 . S
C579 H596 0.930 . S
C580 N576 1.389 . S
C580 C579 1.351 . S
C580 H585 0.930 . S
O581 Cu575 1.974 1_455 S
O581 C591 1.282 . S
C582 O583 1.261 . S
C582 O595 1.251 . S
O583 C582 1.261 . S
H584 C578 0.930 . S
H585 C580 0.930 . S
N586 Cu575 1.985 1_455 S
N586 C588 1.335 . S
N586 C589 1.390 . S
N587 C588 1.345 . S
N587 C590 1.336 . S
C588 N586 1.335 . S
C588 N587 1.345 . S
C588 H593 0.930 . S
C589 N586 1.390 . S
C589 C590 1.346 . S
C589 H594 0.930 . S
C590 N587 1.336 . S
C590 C589 1.346 . S
C590 H597 0.929 . S
C591 O581 1.282 . S
C591 O592 1.216 . S
O592 C591 1.216 . S
H593 C588 0.930 . S
H594 C589 0.930 . S
O595 Cu575 1.959 . S
O595 C582 1.251 . S
H596 C579 0.930 . S
H597 C590 0.929 . S
Cu598 N599 1.999 . S
Cu598 O604 1.974 . S
Cu598 N609 1.985 . S
Cu598 O618 1.959 . S
N599 Cu598 1.999 . S
N599 C601 1.263 . S
N599 C603 1.389 . S
N600 C601 1.358 . S
N600 C602 1.400 . S
C601 N599 1.263 . S
C601 N600 1.358 . S
C601 H607 0.930 . S
C602 N600 1.400 . S
C602 C603 1.351 . S
C602 H619 0.930 . S
C603 N599 1.389 . S
C603 C602 1.351 . S
C603 H608 0.930 . S
O604 Cu598 1.974 . S
O604 C614 1.282 . S
C605 O606 1.261 . S
C605 O618 1.251 . S
O606 C605 1.261 . S
H607 C601 0.930 . S
H608 C603 0.930 . S
N609 Cu598 1.985 . S
N609 C611 1.335 . S
N609 C612 1.390 . S
N610 C611 1.345 . S
N610 C613 1.336 . S
C611 N609 1.335 . S
C611 N610 1.345 . S
C611 H616 0.930 . S
C612 N609 1.390 . S
C612 C613 1.346 . S
C612 H617 0.930 . S
C613 N610 1.336 . S
C613 C612 1.346 . S
C613 H620 0.929 . S
C614 O604 1.282 . S
C614 O615 1.216 . S
O615 C614 1.216 . S
H616 C611 0.930 . S
H617 C612 0.930 . S
O618 Cu598 1.959 . S
O618 C605 1.251 . S
H619 C602 0.930 . S
H620 C613 0.929 . S
Cu621 N622 1.999 . S
Cu621 O627 1.974 1_455 S
Cu621 N632 1.985 1_455 S
Cu621 O641 1.959 . S
N622 Cu621 1.999 . S
N622 C624 1.263 . S
N622 C626 1.389 . S
N623 C624 1.358 . S
N623 C625 1.400 . S
C624 N622 1.263 . S
C624 N623 1.358 . S
C624 H630 0.930 . S
C625 N623 1.400 . S
C625 C626 1.351 . S
C625 H642 0.930 . S
C626 N622 1.389 . S
C626 C625 1.351 . S
C626 H631 0.930 . S
O627 Cu621 1.974 1_655 S
O627 C637 1.282 . S
C628 O629 1.261 . S
C628 O641 1.251 . S
O629 C628 1.261 . S
H630 C624 0.930 . S
H631 C626 0.930 . S
N632 Cu621 1.985 1_655 S
N632 C634 1.335 . S
N632 C635 1.390 . S
N633 C634 1.345 . S
N633 C636 1.336 . S
C634 N632 1.335 . S
C634 N633 1.345 . S
C634 H639 0.930 . S
C635 N632 1.390 . S
C635 C636 1.346 . S
C635 H640 0.930 . S
C636 N633 1.336 . S
C636 C635 1.346 . S
C636 H643 0.929 . S
C637 O627 1.282 . S
C637 O638 1.216 . S
O638 C637 1.216 . S
H639 C634 0.930 . S
H640 C635 0.930 . S
O641 Cu621 1.959 . S
O641 C628 1.251 . S
H642 C625 0.930 . S
H643 C636 0.929 . S
Cu644 N645 1.999 . S
Cu644 O650 1.974 . S
Cu644 N655 1.985 . S
Cu644 O664 1.959 . S
N645 Cu644 1.999 . S
N645 C647 1.263 . S
N645 C649 1.389 . S
N646 C647 1.358 . S
N646 C648 1.400 . S
C647 N645 1.263 . S
C647 N646 1.358 . S
C647 H653 0.930 . S
C648 N646 1.400 . S
C648 C649 1.351 . S
C648 H665 0.930 . S
C649 N645 1.389 . S
C649 C648 1.351 . S
C649 H654 0.930 . S
O650 Cu644 1.974 . S
O650 C660 1.282 . S
C651 O652 1.261 . S
C651 O664 1.251 . S
O652 C651 1.261 . S
H653 C647 0.930 . S
H654 C649 0.930 . S
N655 Cu644 1.985 . S
N655 C657 1.335 . S
N655 C658 1.390 . S
N656 C657 1.345 . S
N656 C659 1.336 . S
C657 N655 1.335 . S
C657 N656 1.345 . S
C657 H662 0.930 . S
C658 N655 1.390 . S
C658 C659 1.346 . S
C658 H663 0.930 . S
C659 N656 1.336 . S
C659 C658 1.346 . S
C659 H666 0.929 . S
C660 O650 1.282 . S
C660 O661 1.216 . S
O661 C660 1.216 . S
H662 C657 0.930 . S
H663 C658 0.930 . S
O664 Cu644 1.959 . S
O664 C651 1.251 . S
H665 C648 0.930 . S
H666 C659 0.929 . S
Cu667 N668 1.999 . S
Cu667 O673 1.974 . S
Cu667 N678 1.985 . S
Cu667 O687 1.959 . S
N668 Cu667 1.999 . S
N668 C670 1.263 . S
N668 C672 1.389 . S
N669 C670 1.358 . S
N669 C671 1.400 . S
C670 N668 1.263 . S
C670 N669 1.358 . S
C670 H676 0.930 . S
C671 N669 1.400 . S
C671 C672 1.351 . S
C671 H688 0.930 . S
C672 N668 1.389 . S
C672 C671 1.351 . S
C672 H677 0.930 . S
O673 Cu667 1.974 . S
O673 C683 1.282 . S
C674 O675 1.261 . S
C674 O687 1.251 . S
O675 C674 1.261 . S
H676 C670 0.930 . S
H677 C672 0.930 . S
N678 Cu667 1.985 . S
N678 C680 1.335 . S
N678 C681 1.390 . S
N679 C680 1.345 . S
N679 C682 1.336 . S
C680 N678 1.335 . S
C680 N679 1.345 . S
C680 H685 0.930 . S
C681 N678 1.390 . S
C681 C682 1.346 . S
C681 H686 0.930 . S
C682 N679 1.336 . S
C682 C681 1.346 . S
C682 H689 0.929 . S
C683 O673 1.282 . S
C683 O684 1.216 . S
O684 C683 1.216 . S
H685 C680 0.930 . S
H686 C681 0.930 . S
O687 Cu667 1.959 . S
O687 C674 1.251 . S
H688 C671 0.930 . S
H689 C682 0.929 . S
Cu690 N691 1.999 . S
Cu690 O696 1.974 . S
Cu690 N701 1.985 . S
Cu690 O710 1.959 . S
N691 Cu690 1.999 . S
N691 C693 1.263 . S
N691 C695 1.389 . S
N692 C693 1.358 . S
N692 C694 1.400 . S
C693 N691 1.263 . S
C693 N692 1.358 . S
C693 H699 0.930 . S
C694 N692 1.400 . S
C694 C695 1.351 . S
C694 H711 0.930 . S
C695 N691 1.389 . S
C695 C694 1.351 . S
C695 H700 0.930 . S
O696 Cu690 1.974 . S
O696 C706 1.282 . S
C697 O698 1.261 . S
C697 O710 1.251 . S
O698 C697 1.261 . S
H699 C693 0.930 . S
H700 C695 0.930 . S
N701 Cu690 1.985 . S
N701 C703 1.335 . S
N701 C704 1.390 . S
N702 C703 1.345 . S
N702 C705 1.336 . S
C703 N701 1.335 . S
C703 N702 1.345 . S
C703 H708 0.930 . S
C704 N701 1.390 . S
C704 C705 1.346 . S
C704 H709 0.930 . S
C705 N702 1.336 . S
C705 C704 1.346 . S
C705 H712 0.929 . S
C706 O696 1.282 . S
C706 O707 1.216 . S
O707 C706 1.216 . S
H708 C703 0.930 . S
H709 C704 0.930 . S
O710 Cu690 1.959 . S
O710 C697 1.251 . S
H711 C694 0.930 . S
H712 C705 0.929 . S
Cu713 N714 1.999 . S
Cu713 O719 1.974 . S
Cu713 N724 1.985 . S
Cu713 O733 1.959 . S
N714 Cu713 1.999 . S
N714 C716 1.263 . S
N714 C718 1.389 . S
N715 C716 1.358 . S
N715 C717 1.400 . S
C716 N714 1.263 . S
C716 N715 1.358 . S
C716 H722 0.930 . S
C717 N715 1.400 . S
C717 C718 1.351 . S
C717 H734 0.930 . S
C718 N714 1.389 . S
C718 C717 1.351 . S
C718 H723 0.930 . S
O719 Cu713 1.974 . S
O719 C729 1.282 . S
C720 O721 1.261 . S
C720 O733 1.251 . S
O721 C720 1.261 . S
H722 C716 0.930 . S
H723 C718 0.930 . S
N724 Cu713 1.985 . S
N724 C726 1.335 . S
N724 C727 1.390 . S
N725 C726 1.345 . S
N725 C728 1.336 . S
C726 N724 1.335 . S
C726 N725 1.345 . S
C726 H731 0.930 . S
C727 N724 1.390 . S
C727 C728 1.346 . S
C727 H732 0.930 . S
C728 N725 1.336 . S
C728 C727 1.346 . S
C728 H735 0.929 . S
C729 O719 1.282 . S
C729 O730 1.216 . S
O730 C729 1.216 . S
H731 C726 0.930 . S
H732 C727 0.930 . S
O733 Cu713 1.959 . S
O733 C720 1.251 . S
H734 C717 0.930 . S
H735 C728 0.929 . S
Cu736 N737 1.999 . S
Cu736 O742 1.974 . S
Cu736 N747 1.985 . S
Cu736 O756 1.959 . S
N737 Cu736 1.999 . S
N737 C739 1.263 . S
N737 C741 1.389 . S
N738 C739 1.358 . S
N738 C740 1.400 . S
C739 N737 1.263 . S
C739 N738 1.358 . S
C739 H745 0.930 . S
C740 N738 1.400 . S
C740 C741 1.351 . S
C740 H757 0.930 . S
C741 N737 1.389 . S
C741 C740 1.351 . S
C741 H746 0.930 . S
O742 Cu736 1.974 . S
O742 C752 1.282 . S
C743 O744 1.261 . S
C743 O756 1.251 . S
O744 C743 1.261 . S
H745 C739 0.930 . S
H746 C741 0.930 . S
N747 Cu736 1.985 . S
N747 C749 1.335 . S
N747 C750 1.390 . S
N748 C749 1.345 . S
N748 C751 1.336 . S
C749 N747 1.335 . S
C749 N748 1.345 . S
C749 H754 0.930 . S
C750 N747 1.390 . S
C750 C751 1.346 . S
C750 H755 0.930 . S
C751 N748 1.336 . S
C751 C750 1.346 . S
C751 H758 0.929 . S
C752 O742 1.282 . S
C752 O753 1.216 . S
O753 C752 1.216 . S
H754 C749 0.930 . S
H755 C750 0.930 . S
O756 Cu736 1.959 . S
O756 C743 1.251 . S
H757 C740 0.930 . S
H758 C751 0.929 . S
Cu759 N760 1.999 . S
Cu759 O765 1.974 . S
Cu759 N770 1.985 . S
Cu759 O779 1.959 . S
N760 Cu759 1.999 . S
N760 C762 1.263 . S
N760 C764 1.389 . S
N761 C762 1.358 . S
N761 C763 1.400 . S
C762 N760 1.263 . S
C762 N761 1.358 . S
C762 H768 0.930 . S
C763 N761 1.400 . S
C763 C764 1.351 . S
C763 H780 0.930 . S
C764 N760 1.389 . S
C764 C763 1.351 . S
C764 H769 0.930 . S
O765 Cu759 1.974 . S
O765 C775 1.282 . S
C766 O767 1.261 . S
C766 O779 1.251 . S
O767 C766 1.261 . S
H768 C762 0.930 . S
H769 C764 0.930 . S
N770 Cu759 1.985 . S
N770 C772 1.335 . S
N770 C773 1.390 . S
N771 C772 1.345 . S
N771 C774 1.336 . S
C772 N770 1.335 . S
C772 N771 1.345 . S
C772 H777 0.930 . S
C773 N770 1.390 . S
C773 C774 1.346 . S
C773 H778 0.930 . S
C774 N771 1.336 . S
C774 C773 1.346 . S
C774 H781 0.929 . S
C775 O765 1.282 . S
C775 O776 1.216 . S
O776 C775 1.216 . S
H777 C772 0.930 . S
H778 C773 0.930 . S
O779 Cu759 1.959 . S
O779 C766 1.251 . S
H780 C763 0.930 . S
H781 C774 0.929 . S
Cu782 N783 1.999 . S
Cu782 O788 1.974 . S
Cu782 N793 1.985 . S
Cu782 O802 1.959 . S
N783 Cu782 1.999 . S
N783 C785 1.263 . S
N783 C787 1.389 . S
N784 C785 1.358 . S
N784 C786 1.400 . S
C785 N783 1.263 . S
C785 N784 1.358 . S
C785 H791 0.930 . S
C786 N784 1.400 . S
C786 C787 1.351 . S
C786 H803 0.930 . S
C787 N783 1.389 . S
C787 C786 1.351 . S
C787 H792 0.930 . S
O788 Cu782 1.974 . S
O788 C798 1.282 . S
C789 O790 1.261 . S
C789 O802 1.251 . S
O790 C789 1.261 . S
H791 C785 0.930 . S
H792 C787 0.930 . S
N793 Cu782 1.985 . S
N793 C795 1.335 . S
N793 C796 1.390 . S
N794 C795 1.345 . S
N794 C797 1.336 . S
C795 N793 1.335 . S
C795 N794 1.345 . S
C795 H800 0.930 . S
C796 N793 1.390 . S
C796 C797 1.346 . S
C796 H801 0.930 . S
C797 N794 1.336 . S
C797 C796 1.346 . S
C797 H804 0.929 . S
C798 O788 1.282 . S
C798 O799 1.216 . S
O799 C798 1.216 . S
H800 C795 0.930 . S
H801 C796 0.930 . S
O802 Cu782 1.959 . S
O802 C789 1.251 . S
H803 C786 0.930 . S
H804 C797 0.929 . S
Cu805 N806 1.999 . S
Cu805 O811 1.974 . S
Cu805 N816 1.985 . S
Cu805 O825 1.959 . S
N806 Cu805 1.999 . S
N806 C808 1.263 . S
N806 C810 1.389 . S
N807 C808 1.358 . S
N807 C809 1.400 . S
C808 N806 1.263 . S
C808 N807 1.358 . S
C808 H814 0.930 . S
C809 N807 1.400 . S
C809 C810 1.351 . S
C809 H826 0.930 . S
C810 N806 1.389 . S
C810 C809 1.351 . S
C810 H815 0.930 . S
O811 Cu805 1.974 . S
O811 C821 1.282 . S
C812 O813 1.261 . S
C812 O825 1.251 . S
O813 C812 1.261 . S
H814 C808 0.930 . S
H815 C810 0.930 . S
N816 Cu805 1.985 . S
N816 C818 1.335 . S
N816 C819 1.390 . S
N817 C818 1.345 . S
N817 C820 1.336 . S
C818 N816 1.335 . S
C818 N817 1.345 . S
C818 H823 0.930 . S
C819 N816 1.390 . S
C819 C820 1.346 . S
C819 H824 0.930 . S
C820 N817 1.336 . S
C820 C819 1.346 . S
C820 H827 0.929 . S
C821 O811 1.282 . S
C821 O822 1.216 . S
O822 C821 1.216 . S
H823 C818 0.930 . S
H824 C819 0.930 . S
O825 Cu805 1.959 . S
O825 C812 1.251 . S
H826 C809 0.930 . S
H827 C820 0.929 . S
Cu828 N829 1.999 . S
Cu828 O834 1.974 . S
Cu828 N839 1.985 . S
Cu828 O848 1.959 . S
N829 Cu828 1.999 . S
N829 C831 1.263 . S
N829 C833 1.389 . S
N830 C831 1.358 . S
N830 C832 1.400 . S
C831 N829 1.263 . S
C831 N830 1.358 . S
C831 H837 0.930 . S
C832 N830 1.400 . S
C832 C833 1.351 . S
C832 H849 0.930 . S
C833 N829 1.389 . S
C833 C832 1.351 . S
C833 H838 0.930 . S
O834 Cu828 1.974 . S
O834 C844 1.282 . S
C835 O836 1.261 . S
C835 O848 1.251 . S
O836 C835 1.261 . S
H837 C831 0.930 . S
H838 C833 0.930 . S
N839 Cu828 1.985 . S
N839 C841 1.335 . S
N839 C842 1.390 . S
N840 C841 1.345 . S
N840 C843 1.336 . S
C841 N839 1.335 . S
C841 N840 1.345 . S
C841 H846 0.930 . S
C842 N839 1.390 . S
C842 C843 1.346 . S
C842 H847 0.930 . S
C843 N840 1.336 . S
C843 C842 1.346 . S
C843 H850 0.929 . S
C844 O834 1.282 . S
C844 O845 1.216 . S
O845 C844 1.216 . S
H846 C841 0.930 . S
H847 C842 0.930 . S
O848 Cu828 1.959 . S
O848 C835 1.251 . S
H849 C832 0.930 . S
H850 C843 0.929 . S
Cu851 N852 1.999 . S
Cu851 O857 1.974 . S
Cu851 N862 1.985 . S
Cu851 O871 1.959 . S
N852 Cu851 1.999 . S
N852 C854 1.263 . S
N852 C856 1.389 . S
N853 C854 1.358 . S
N853 C855 1.400 . S
C854 N852 1.263 . S
C854 N853 1.358 . S
C854 H860 0.930 . S
C855 N853 1.400 . S
C855 C856 1.351 . S
C855 H872 0.930 . S
C856 N852 1.389 . S
C856 C855 1.351 . S
C856 H861 0.930 . S
O857 Cu851 1.974 . S
O857 C867 1.282 . S
C858 O859 1.261 . S
C858 O871 1.251 . S
O859 C858 1.261 . S
H860 C854 0.930 . S
H861 C856 0.930 . S
N862 Cu851 1.985 . S
N862 C864 1.335 . S
N862 C865 1.390 . S
N863 C864 1.345 . S
N863 C866 1.336 . S
C864 N862 1.335 . S
C864 N863 1.345 . S
C864 H869 0.930 . S
C865 N862 1.390 . S
C865 C866 1.346 . S
C865 H870 0.930 . S
C866 N863 1.336 . S
C866 C865 1.346 . S
C866 H873 0.929 . S
C867 O857 1.282 . S
C867 O868 1.216 . S
O868 C867 1.216 . S
H869 C864 0.930 . S
H870 C865 0.930 . S
O871 Cu851 1.959 . S
O871 C858 1.251 . S
H872 C855 0.930 . S
H873 C866 0.929 . S
Cu874 N875 1.999 . S
Cu874 O880 1.974 . S
Cu874 N885 1.985 . S
Cu874 O894 1.959 . S
N875 Cu874 1.999 . S
N875 C877 1.263 . S
N875 C879 1.389 . S
N876 C877 1.358 . S
N876 C878 1.400 . S
C877 N875 1.263 . S
C877 N876 1.358 . S
C877 H883 0.930 . S
C878 N876 1.400 . S
C878 C879 1.351 . S
C878 H895 0.930 . S
C879 N875 1.389 . S
C879 C878 1.351 . S
C879 H884 0.930 . S
O880 Cu874 1.974 . S
O880 C890 1.282 . S
C881 O882 1.261 . S
C881 O894 1.251 . S
O882 C881 1.261 . S
H883 C877 0.930 . S
H884 C879 0.930 . S
N885 Cu874 1.985 . S
N885 C887 1.335 . S
N885 C888 1.390 . S
N886 C887 1.345 . S
N886 C889 1.336 . S
C887 N885 1.335 . S
C887 N886 1.345 . S
C887 H892 0.930 . S
C888 N885 1.390 . S
C888 C889 1.346 . S
C888 H893 0.930 . S
C889 N886 1.336 . S
C889 C888 1.346 . S
C889 H896 0.929 . S
C890 O880 1.282 . S
C890 O891 1.216 . S
O891 C890 1.216 . S
H892 C887 0.930 . S
H893 C888 0.930 . S
O894 Cu874 1.959 . S
O894 C881 1.251 . S
H895 C878 0.930 . S
H896 C889 0.929 . S
Cu897 N898 1.999 . S
Cu897 O903 1.974 . S
Cu897 N908 1.985 . S
Cu897 O917 1.959 . S
N898 Cu897 1.999 . S
N898 C900 1.263 . S
N898 C902 1.389 . S
N899 C900 1.358 . S
N899 C901 1.400 . S
C900 N898 1.263 . S
C900 N899 1.358 . S
C900 H906 0.930 . S
C901 N899 1.400 . S
C901 C902 1.351 . S
C901 H918 0.930 . S
C902 N898 1.389 . S
C902 C901 1.351 . S
C902 H907 0.930 . S
O903 Cu897 1.974 . S
O903 C913 1.282 . S
C904 O905 1.261 . S
C904 O917 1.251 . S
O905 C904 1.261 . S
H906 C900 0.930 . S
H907 C902 0.930 . S
N908 Cu897 1.985 . S
N908 C910 1.335 . S
N908 C911 1.390 . S
N909 C910 1.345 . S
N909 C912 1.336 . S
C910 N908 1.335 . S
C910 N909 1.345 . S
C910 H915 0.930 . S
C911 N908 1.390 . S
C911 C912 1.346 . S
C911 H916 0.930 . S
C912 N909 1.336 . S
C912 C911 1.346 . S
C912 H919 0.929 . S
C913 O903 1.282 . S
C913 O914 1.216 . S
O914 C913 1.216 . S
H915 C910 0.930 . S
H916 C911 0.930 . S
O917 Cu897 1.959 . S
O917 C904 1.251 . S
H918 C901 0.930 . S
H919 C912 0.929 . S
Cu920 N921 1.999 . S
Cu920 O926 1.974 . S
Cu920 N931 1.985 . S
Cu920 O940 1.959 . S
N921 Cu920 1.999 . S
N921 C923 1.263 . S
N921 C925 1.389 . S
N922 C923 1.358 . S
N922 C924 1.400 . S
C923 N921 1.263 . S
C923 N922 1.358 . S
C923 H929 0.930 . S
C924 N922 1.400 . S
C924 C925 1.351 . S
C924 H941 0.930 . S
C925 N921 1.389 . S
C925 C924 1.351 . S
C925 H930 0.930 . S
O926 Cu920 1.974 . S
O926 C936 1.282 . S
C927 O928 1.261 . S
C927 O940 1.251 . S
O928 C927 1.261 . S
H929 C923 0.930 . S
H930 C925 0.930 . S
N931 Cu920 1.985 . S
N931 C933 1.335 . S
N931 C934 1.390 . S
N932 C933 1.345 . S
N932 C935 1.336 . S
C933 N931 1.335 . S
C933 N932 1.345 . S
C933 H938 0.930 . S
C934 N931 1.390 . S
C934 C935 1.346 . S
C934 H939 0.930 . S
C935 N932 1.336 . S
C935 C934 1.346 . S
C935 H942 0.929 . S
C936 O926 1.282 . S
C936 O937 1.216 . S
O937 C936 1.216 . S
H938 C933 0.930 . S
H939 C934 0.930 . S
O940 Cu920 1.959 . S
O940 C927 1.251 . S
H941 C924 0.930 . S
H942 C935 0.929 . S
Cu943 N944 1.999 . S
Cu943 O949 1.974 . S
Cu943 N954 1.985 . S
Cu943 O963 1.959 . S
N944 Cu943 1.999 . S
N944 C946 1.263 . S
N944 C948 1.389 . S
N945 C946 1.358 . S
N945 C947 1.400 . S
C946 N944 1.263 . S
C946 N945 1.358 . S
C946 H952 0.930 . S
C947 N945 1.400 . S
C947 C948 1.351 . S
C947 H964 0.930 . S
C948 N944 1.389 . S
C948 C947 1.351 . S
C948 H953 0.930 . S
O949 Cu943 1.974 . S
O949 C959 1.282 . S
C950 O951 1.261 . S
C950 O963 1.251 . S
O951 C950 1.261 . S
H952 C946 0.930 . S
H953 C948 0.930 . S
N954 Cu943 1.985 . S
N954 C956 1.335 . S
N954 C957 1.390 . S
N955 C956 1.345 . S
N955 C958 1.336 . S
C956 N954 1.335 . S
C956 N955 1.345 . S
C956 H961 0.930 . S
C957 N954 1.390 . S
C957 C958 1.346 . S
C957 H962 0.930 . S
C958 N955 1.336 . S
C958 C957 1.346 . S
C958 H965 0.929 . S
C959 O949 1.282 . S
C959 O960 1.216 . S
O960 C959 1.216 . S
H961 C956 0.930 . S
H962 C957 0.930 . S
O963 Cu943 1.959 . S
O963 C950 1.251 . S
H964 C947 0.930 . S
H965 C958 0.929 . S
Cu966 N967 1.999 . S
Cu966 O972 1.974 1_545 S
Cu966 N977 1.985 1_545 S
Cu966 O986 1.959 . S
N967 Cu966 1.999 . S
N967 C969 1.263 . S
N967 C971 1.389 . S
N968 C969 1.358 . S
N968 C970 1.400 . S
C969 N967 1.263 . S
C969 N968 1.358 . S
C969 H975 0.930 . S
C970 N968 1.400 . S
C970 C971 1.351 . S
C970 H987 0.930 . S
C971 N967 1.389 . S
C971 C970 1.351 . S
C971 H976 0.930 . S
O972 Cu966 1.974 1_565 S
O972 C982 1.282 . S
C973 O974 1.261 . S
C973 O986 1.251 . S
O974 C973 1.261 . S
H975 C969 0.930 . S
H976 C971 0.930 . S
N977 Cu966 1.985 1_565 S
N977 C979 1.335 . S
N977 C980 1.390 . S
N978 C979 1.345 . S
N978 C981 1.336 . S
C979 N977 1.335 . S
C979 N978 1.345 . S
C979 H984 0.930 . S
C980 N977 1.390 . S
C980 C981 1.346 . S
C980 H985 0.930 . S
C981 N978 1.336 . S
C981 C980 1.346 . S
C981 H988 0.929 . S
C982 O972 1.282 . S
C982 O983 1.216 . S
O983 C982 1.216 . S
H984 C979 0.930 . S
H985 C980 0.930 . S
O986 Cu966 1.959 . S
O986 C973 1.251 . S
H987 C970 0.930 . S
H988 C981 0.929 . S
Cu989 N990 1.999 . S
Cu989 O995 1.974 . S
Cu989 N1000 1.985 . S
Cu989 O1009 1.959 . S
N990 Cu989 1.999 . S
N990 C992 1.263 . S
N990 C994 1.389 . S
N991 C992 1.358 . S
N991 C993 1.400 . S
C992 N990 1.263 . S
C992 N991 1.358 . S
C992 H998 0.930 . S
C993 N991 1.400 . S
C993 C994 1.351 . S
C993 H1010 0.930 . S
C994 N990 1.389 . S
C994 C993 1.351 . S
C994 H999 0.930 . S
O995 Cu989 1.974 . S
O995 C1005 1.282 . S
C996 O997 1.261 . S
C996 O1009 1.251 . S
O997 C996 1.261 . S
H998 C992 0.930 . S
H999 C994 0.930 . S
N1000 Cu989 1.985 . S
N1000 C1002 1.335 . S
N1000 C1003 1.390 . S
N1001 C1002 1.345 . S
N1001 C1004 1.336 . S
C1002 N1000 1.335 . S
C1002 N1001 1.345 . S
C1002 H1007 0.930 . S
C1003 N1000 1.390 . S
C1003 C1004 1.346 . S
C1003 H1008 0.930 . S
C1004 N1001 1.336 . S
C1004 C1003 1.346 . S
C1004 H1011 0.929 . S
C1005 O995 1.282 . S
C1005 O1006 1.216 . S
O1006 C1005 1.216 . S
H1007 C1002 0.930 . S
H1008 C1003 0.930 . S
O1009 Cu989 1.959 . S
O1009 C996 1.251 . S
H1010 C993 0.930 . S
H1011 C1004 0.929 . S
Cu1012 N1013 1.999 . S
Cu1012 O1018 1.974 1_565 S
Cu1012 N1023 1.985 1_565 S
Cu1012 O1032 1.959 . S
N1013 Cu1012 1.999 . S
N1013 C1015 1.263 . S
N1013 C1017 1.389 . S
N1014 C1015 1.358 . S
N1014 C1016 1.400 . S
C1015 N1013 1.263 . S
C1015 N1014 1.358 . S
C1015 H1021 0.930 . S
C1016 N1014 1.400 . S
C1016 C1017 1.351 . S
C1016 H1033 0.930 . S
C1017 N1013 1.389 . S
C1017 C1016 1.351 . S
C1017 H1022 0.930 . S
O1018 Cu1012 1.974 1_545 S
O1018 C1028 1.282 . S
C1019 O1020 1.261 . S
C1019 O1032 1.251 . S
O1020 C1019 1.261 . S
H1021 C1015 0.930 . S
H1022 C1017 0.930 . S
N1023 Cu1012 1.985 1_545 S
N1023 C1025 1.335 . S
N1023 C1026 1.390 . S
N1024 C1025 1.345 . S
N1024 C1027 1.336 . S
C1025 N1023 1.335 . S
C1025 N1024 1.345 . S
C1025 H1030 0.930 . S
C1026 N1023 1.390 . S
C1026 C1027 1.346 . S
C1026 H1031 0.930 . S
C1027 N1024 1.336 . S
C1027 C1026 1.346 . S
C1027 H1034 0.929 . S
C1028 O1018 1.282 . S
C1028 O1029 1.216 . S
O1029 C1028 1.216 . S
H1030 C1025 0.930 . S
H1031 C1026 0.930 . S
O1032 Cu1012 1.959 . S
O1032 C1019 1.251 . S
H1033 C1016 0.930 . S
H1034 C1027 0.929 . S
Cu1035 N1036 1.999 . S
Cu1035 O1041 1.974 . S
Cu1035 N1046 1.985 . S
Cu1035 O1055 1.959 . S
N1036 Cu1035 1.999 . S
N1036 C1038 1.263 . S
N1036 C1040 1.389 . S
N1037 C1038 1.358 . S
N1037 C1039 1.400 . S
C1038 N1036 1.263 . S
C1038 N1037 1.358 . S
C1038 H1044 0.930 . S
C1039 N1037 1.400 . S
C1039 C1040 1.351 . S
C1039 H1056 0.930 . S
C1040 N1036 1.389 . S
C1040 C1039 1.351 . S
C1040 H1045 0.930 . S
O1041 Cu1035 1.974 . S
O1041 C1051 1.282 . S
C1042 O1043 1.261 . S
C1042 O1055 1.251 . S
O1043 C1042 1.261 . S
H1044 C1038 0.930 . S
H1045 C1040 0.930 . S
N1046 Cu1035 1.985 . S
N1046 C1048 1.335 . S
N1046 C1049 1.390 . S
N1047 C1048 1.345 . S
N1047 C1050 1.336 . S
C1048 N1046 1.335 . S
C1048 N1047 1.345 . S
C1048 H1053 0.930 . S
C1049 N1046 1.390 . S
C1049 C1050 1.346 . S
C1049 H1054 0.930 . S
C1050 N1047 1.336 . S
C1050 C1049 1.346 . S
C1050 H1057 0.929 . S
C1051 O1041 1.282 . S
C1051 O1052 1.216 . S
O1052 C1051 1.216 . S
H1053 C1048 0.930 . S
H1054 C1049 0.930 . S
O1055 Cu1035 1.959 . S
O1055 C1042 1.251 . S
H1056 C1039 0.930 . S
H1057 C1050 0.929 . S
Cu1058 N1059 1.999 . S
Cu1058 O1064 1.974 1_565 S
Cu1058 N1069 1.985 1_565 S
Cu1058 O1078 1.959 . S
N1059 Cu1058 1.999 . S
N1059 C1061 1.263 . S
N1059 C1063 1.389 . S
N1060 C1061 1.358 . S
N1060 C1062 1.400 . S
C1061 N1059 1.263 . S
C1061 N1060 1.358 . S
C1061 H1067 0.930 . S
C1062 N1060 1.400 . S
C1062 C1063 1.351 . S
C1062 H1079 0.930 . S
C1063 N1059 1.389 . S
C1063 C1062 1.351 . S
C1063 H1068 0.930 . S
O1064 Cu1058 1.974 1_545 S
O1064 C1074 1.282 . S
C1065 O1066 1.261 . S
C1065 O1078 1.251 . S
O1066 C1065 1.261 . S
H1067 C1061 0.930 . S
H1068 C1063 0.930 . S
N1069 Cu1058 1.985 1_545 S
N1069 C1071 1.335 . S
N1069 C1072 1.390 . S
N1070 C1071 1.345 . S
N1070 C1073 1.336 . S
C1071 N1069 1.335 . S
C1071 N1070 1.345 . S
C1071 H1076 0.930 . S
C1072 N1069 1.390 . S
C1072 C1073 1.346 . S
C1072 H1077 0.930 . S
C1073 N1070 1.336 . S
C1073 C1072 1.346 . S
C1073 H1080 0.929 . S
C1074 O1064 1.282 . S
C1074 O1075 1.216 . S
O1075 C1074 1.216 . S
H1076 C1071 0.930 . S
H1077 C1072 0.930 . S
O1078 Cu1058 1.959 . S
O1078 C1065 1.251 . S
H1079 C1062 0.930 . S
H1080 C1073 0.929 . S
Cu1081 N1082 1.999 . S
Cu1081 O1087 1.974 . S
Cu1081 N1092 1.985 . S
Cu1081 O1101 1.959 . S
N1082 Cu1081 1.999 . S
N1082 C1084 1.263 . S
N1082 C1086 1.389 . S
N1083 C1084 1.358 . S
N1083 C1085 1.400 . S
C1084 N1082 1.263 . S
C1084 N1083 1.358 . S
C1084 H1090 0.930 . S
C1085 N1083 1.400 . S
C1085 C1086 1.351 . S
C1085 H1102 0.930 . S
C1086 N1082 1.389 . S
C1086 C1085 1.351 . S
C1086 H1091 0.930 . S
O1087 Cu1081 1.974 . S
O1087 C1097 1.282 . S
C1088 O1089 1.261 . S
C1088 O1101 1.251 . S
O1089 C1088 1.261 . S
H1090 C1084 0.930 . S
H1091 C1086 0.930 . S
N1092 Cu1081 1.985 . S
N1092 C1094 1.335 . S
N1092 C1095 1.390 . S
N1093 C1094 1.345 . S
N1093 C1096 1.336 . S
C1094 N1092 1.335 . S
C1094 N1093 1.345 . S
C1094 H1099 0.930 . S
C1095 N1092 1.390 . S
C1095 C1096 1.346 . S
C1095 H1100 0.930 . S
C1096 N1093 1.336 . S
C1096 C1095 1.346 . S
C1096 H1103 0.929 . S
C1097 O1087 1.282 . S
C1097 O1098 1.216 . S
O1098 C1097 1.216 . S
H1099 C1094 0.930 . S
H1100 C1095 0.930 . S
O1101 Cu1081 1.959 . S
O1101 C1088 1.251 . S
H1102 C1085 0.930 . S
H1103 C1096 0.929 . S
C1104 C1105 1.387 . S
C1104 H1108 0.950 . S
C1104 C1113 1.390 . S
C1105 C1104 1.387 . S
C1105 C1107 1.387 . S
H1106 C1113 0.950 . S
C1107 C1105 1.387 . S
C1107 C1109 1.390 . S
C1107 H1111 0.950 . S
H1108 C1104 0.950 . S
C1109 C1107 1.390 . S
C1109 C1110 1.387 . S
C1109 H1112 0.950 . S
C1110 C1109 1.387 . S
C1110 C1113 1.387 . S
H1111 C1107 0.950 . S
H1112 C1109 0.950 . S
C1113 C1104 1.390 . S
C1113 H1106 0.950 . S
C1113 C1110 1.387 . S
C1114 C1115 1.387 . S
C1114 H1118 0.950 . S
C1114 C1123 1.390 1_554 S
C1115 C1114 1.387 . S
C1115 C1117 1.387 . S
H1116 C1123 0.950 . S
C1117 C1115 1.387 . S
C1117 C1119 1.390 . S
C1117 H1121 0.950 . S
H1118 C1114 0.950 . S
C1119 C1117 1.390 . S
C1119 C1120 1.387 1_554 S
C1119 H1122 0.950 . S
C1120 C1119 1.387 1_556 S
C1120 C1123 1.387 . S
H1121 C1117 0.950 . S
H1122 C1119 0.950 . S
C1123 C1114 1.390 1_556 S
C1123 H1116 0.950 . S
C1123 C1120 1.387 . S
C1124 C1125 1.387 . S
C1124 H1128 0.950 . S
C1124 C1133 1.390 . S
C1125 C1124 1.387 . S
C1125 C1127 1.387 . S
H1126 C1133 0.950 . S
C1127 C1125 1.387 . S
C1127 C1129 1.390 . S
C1127 H1131 0.950 . S
H1128 C1124 0.950 . S
C1129 C1127 1.390 . S
C1129 C1130 1.387 . S
C1129 H1132 0.950 . S
C1130 C1129 1.387 . S
C1130 C1133 1.387 . S
H1131 C1127 0.950 . S
H1132 C1129 0.950 . S
C1133 C1124 1.390 . S
C1133 H1126 0.950 . S
C1133 C1130 1.387 . S
C1134 C1135 1.387 1_554 S
C1134 H1138 0.950 . S
C1134 C1143 1.390 . S
C1135 C1134 1.387 1_556 S
C1135 C1137 1.385 1_556 S
H1136 C1143 0.950 . S
C1137 C1135 1.385 1_554 S
C1137 C1139 1.400 . S
C1137 H1141 0.942 1_554 S
H1138 C1134 0.950 . S
C1139 C1137 1.400 . S
C1139 C1140 1.387 . S
C1139 H1142 0.950 . S
C1140 C1139 1.387 . S
C1140 C1143 1.387 . S
H1141 C1137 0.942 1_556 S
H1142 C1139 0.950 . S
C1143 C1134 1.390 . S
C1143 H1136 0.950 . S
C1143 C1140 1.387 . S
C1144 C1145 1.387 . S
C1144 H1148 0.950 . S
C1144 C1153 1.390 . S
C1145 C1144 1.387 . S
C1145 C1147 1.387 . S
H1146 C1153 0.950 . S
C1147 C1145 1.387 . S
C1147 C1149 1.390 . S
C1147 H1151 0.950 . S
H1148 C1144 0.950 . S
C1149 C1147 1.390 . S
C1149 C1150 1.387 . S
C1149 H1152 0.950 . S
C1150 C1149 1.387 . S
C1150 C1153 1.387 . S
H1151 C1147 0.950 . S
H1152 C1149 0.950 . S
C1153 C1144 1.390 . S
C1153 H1146 0.950 . S
C1153 C1150 1.387 . S
C1154 C1155 1.380 1_556 S
C1154 H1158 0.924 1_556 S
C1154 C1163 1.424 . S
C1155 C1154 1.380 1_554 S
C1155 C1157 1.387 1_554 S
H1156 C1163 0.950 . S
C1157 C1155 1.387 1_556 S
C1157 C1159 1.390 . S
C1157 H1161 0.950 . S
H1158 C1154 0.924 1_554 S
C1159 C1157 1.390 . S
C1159 C1160 1.387 . S
C1159 H1162 0.950 . S
C1160 C1159 1.387 . S
C1160 C1163 1.387 . S
H1161 C1157 0.950 . S
H1162 C1159 0.950 . S
C1163 C1154 1.424 . S
C1163 H1156 0.950 . S
C1163 C1160 1.387 . S
C1164 C1165 1.387 . S
C1164 H1168 0.950 . S
C1164 C1173 1.390 . S
C1165 C1164 1.387 . S
C1165 C1167 1.387 . S
H1166 C1173 0.950 . S
C1167 C1165 1.387 . S
C1167 C1169 1.390 . S
C1167 H1171 0.950 . S
H1168 C1164 0.950 . S
C1169 C1167 1.390 . S
C1169 C1170 1.387 . S
C1169 H1172 0.950 . S
C1170 C1169 1.387 . S
C1170 C1173 1.387 . S
H1171 C1167 0.950 . S
H1172 C1169 0.950 . S
C1173 C1164 1.390 . S
C1173 H1166 0.950 . S
C1173 C1170 1.387 . S
C1174 C1175 1.387 . S
C1174 H1178 0.950 . S
C1174 C1183 1.390 . S
C1175 C1174 1.387 . S
C1175 C1177 1.387 . S
H1176 C1183 0.950 . S
C1177 C1175 1.387 . S
C1177 C1179 1.350 1_556 S
C1177 H1181 0.950 . S
H1178 C1174 0.950 . S
C1179 C1177 1.350 1_554 S
C1179 C1180 1.394 . S
C1179 H1182 0.984 . S
C1180 C1179 1.394 . S
C1180 C1183 1.387 1_554 S
H1181 C1177 0.950 . S
H1182 C1179 0.984 . S
C1183 C1174 1.390 . S
C1183 H1176 0.950 . S
C1183 C1180 1.387 1_556 S
C1184 C1185 1.387 . S
C1184 H1188 0.950 . S
C1184 C1193 1.390 . S
C1185 C1184 1.387 . S
C1185 C1187 1.387 . S
H1186 C1193 0.950 . S
C1187 C1185 1.387 . S
C1187 C1189 1.390 . S
C1187 H1191 0.950 . S
H1188 C1184 0.950 . S
C1189 C1187 1.390 . S
C1189 C1190 1.387 . S
C1189 H1192 0.950 . S
C1190 C1189 1.387 . S
C1190 C1193 1.387 . S
H1191 C1187 0.950 . S
H1192 C1189 0.950 . S
C1193 C1184 1.390 . S
C1193 H1186 0.950 . S
C1193 C1190 1.387 . S
C1194 C1195 1.387 . S
C1194 H1198 0.950 . S
C1194 C1203 1.390 . S
C1195 C1194 1.387 . S
C1195 C1197 1.387 . S
H1196 C1203 0.950 . S
C1197 C1195 1.387 . S
C1197 C1199 1.390 . S
C1197 H1201 0.950 . S
H1198 C1194 0.950 . S
C1199 C1197 1.390 . S
C1199 C1200 1.387 . S
C1199 H1202 0.950 . S
C1200 C1199 1.387 . S
C1200 C1203 1.387 . S
H1201 C1197 0.950 . S
H1202 C1199 0.950 . S
C1203 C1194 1.390 . S
C1203 H1196 0.950 . S
C1203 C1200 1.387 . S
C1204 C1205 1.387 . S
C1204 H1208 0.950 . S
C1204 C1213 1.390 . S
C1205 C1204 1.387 . S
C1205 C1207 1.387 . S
H1206 C1213 0.950 . S
C1207 C1205 1.387 . S
C1207 C1209 1.390 . S
C1207 H1211 0.950 . S
H1208 C1204 0.950 . S
C1209 C1207 1.390 . S
C1209 C1210 1.387 . S
C1209 H1212 0.950 . S
C1210 C1209 1.387 . S
C1210 C1213 1.387 . S
H1211 C1207 0.950 . S
H1212 C1209 0.950 . S
C1213 C1204 1.390 . S
C1213 H1206 0.950 . S
C1213 C1210 1.387 . S
C1214 C1215 1.387 . S
C1214 H1218 0.950 . S
C1214 C1223 1.390 . S
C1215 C1214 1.387 . S
C1215 C1217 1.387 . S
H1216 C1223 0.950 . S
C1217 C1215 1.387 . S
C1217 C1219 1.390 . S
C1217 H1221 0.950 . S
H1218 C1214 0.950 . S
C1219 C1217 1.390 . S
C1219 C1220 1.387 1_565 S
C1219 H1222 0.950 1_565 S
C1220 C1219 1.387 1_545 S
C1220 C1223 1.387 1_545 S
H1221 C1217 0.950 . S
H1222 C1219 0.950 1_545 S
C1223 C1214 1.390 . S
C1223 H1216 0.950 . S
C1223 C1220 1.387 1_565 S
C1224 C1225 1.387 . S
C1224 H1228 0.950 . S
C1224 C1233 1.390 . S
C1225 C1224 1.387 . S
C1225 C1227 1.387 . S
H1226 C1233 0.950 . S
C1227 C1225 1.387 . S
C1227 C1229 1.390 . S
C1227 H1231 0.950 . S
H1228 C1224 0.950 . S
C1229 C1227 1.390 . S
C1229 C1230 1.387 . S
C1229 H1232 0.950 . S
C1230 C1229 1.387 . S
C1230 C1233 1.387 . S
H1231 C1227 0.950 . S
H1232 C1229 0.950 . S
C1233 C1224 1.390 . S
C1233 H1226 0.950 . S
C1233 C1230 1.387 . S
C1234 C1235 1.387 . S
C1234 H1238 0.950 . S
C1234 C1243 1.390 . S
C1235 C1234 1.387 . S
C1235 C1237 1.387 . S
H1236 C1243 0.950 . S
C1237 C1235 1.387 . S
C1237 C1239 1.390 . S
C1237 H1241 0.950 . S
H1238 C1234 0.950 . S
C1239 C1237 1.390 . S
C1239 C1240 1.387 . S
C1239 H1242 0.950 . S
C1240 C1239 1.387 . S
C1240 C1243 1.387 . S
H1241 C1237 0.950 . S
H1242 C1239 0.950 . S
C1243 C1234 1.390 . S
C1243 H1236 0.950 . S
C1243 C1240 1.387 . S
C1244 C1245 1.387 . S
C1244 H1248 0.950 . S
C1244 C1253 1.390 . S
C1245 C1244 1.387 . S
C1245 C1247 1.387 . S
H1246 C1253 0.950 . S
C1247 C1245 1.387 . S
C1247 C1249 1.390 . S
C1247 H1251 0.950 . S
H1248 C1244 0.950 . S
C1249 C1247 1.390 . S
C1249 C1250 1.387 . S
C1249 H1252 0.950 . S
C1250 C1249 1.387 . S
C1250 C1253 1.387 . S
H1251 C1247 0.950 . S
H1252 C1249 0.950 . S
C1253 C1244 1.390 . S
C1253 H1246 0.950 . S
C1253 C1250 1.387 . S
C1254 C1255 1.387 1_565 S
C1254 H1258 0.950 1_565 S
C1254 C1263 1.390 . S
C1255 C1254 1.387 1_545 S
C1255 C1257 1.387 1_545 S
H1256 C1263 0.950 . S
C1257 C1255 1.387 1_565 S
C1257 C1259 1.390 . S
C1257 H1261 0.950 . S
H1258 C1254 0.950 1_545 S
C1259 C1257 1.390 . S
C1259 C1260 1.387 . S
C1259 H1262 0.950 . S
C1260 C1259 1.387 . S
C1260 C1263 1.387 . S
H1261 C1257 0.950 . S
H1262 C1259 0.950 . S
C1263 C1254 1.390 . S
C1263 H1256 0.950 . S
C1263 C1260 1.387 . S
C1264 C1265 1.387 . S
C1264 H1268 0.950 . S
C1264 C1273 1.390 . S
C1265 C1264 1.387 . S
C1265 C1267 1.387 . S
H1266 C1273 0.950 . S
C1267 C1265 1.387 . S
C1267 C1269 1.390 . S
C1267 H1271 0.950 . S
H1268 C1264 0.950 . S
C1269 C1267 1.390 . S
C1269 C1270 1.387 . S
C1269 H1272 0.950 . S
C1270 C1269 1.387 . S
C1270 C1273 1.387 . S
H1271 C1267 0.950 . S
H1272 C1269 0.950 . S
C1273 C1264 1.390 . S
C1273 H1266 0.950 . S
C1273 C1270 1.387 . S
C1274 C1275 1.387 . S
C1274 H1278 0.950 . S
C1274 C1283 1.390 . S
C1275 C1274 1.387 . S
C1275 C1277 1.387 . S
H1276 C1283 0.950 . S
C1277 C1275 1.387 . S
C1277 C1279 1.390 . S
C1277 H1281 0.950 . S
H1278 C1274 0.950 . S
C1279 C1277 1.390 . S
C1279 C1280 1.387 . S
C1279 H1282 0.950 . S
C1280 C1279 1.387 . S
C1280 C1283 1.387 . S
H1281 C1277 0.950 . S
H1282 C1279 0.950 . S
C1283 C1274 1.390 . S
C1283 H1276 0.950 . S
C1283 C1280 1.387 . S
C1284 C1285 1.387 1_455 S
C1284 H1288 0.950 . S
C1284 C1293 1.390 . S
C1285 C1284 1.387 1_655 S
C1285 C1287 1.387 1_655 S
H1286 C1293 0.950 . S
C1287 C1285 1.387 1_455 S
C1287 C1289 1.390 . S
C1287 H1291 0.950 1_455 S
H1288 C1284 0.950 . S
C1289 C1287 1.390 . S
C1289 C1290 1.387 . S
C1289 H1292 0.950 . S
C1290 C1289 1.387 . S
C1290 C1293 1.387 . S
H1291 C1287 0.950 1_655 S
H1292 C1289 0.950 . S
C1293 C1284 1.390 . S
C1293 H1286 0.950 . S
C1293 C1290 1.387 . S
C1294 C1295 1.387 . S
C1294 H1298 0.950 . S
C1294 C1303 1.390 . S
C1295 C1294 1.387 . S
C1295 C1297 1.387 . S
H1296 C1303 0.950 . S
C1297 C1295 1.387 . S
C1297 C1299 1.390 . S
C1297 H1301 0.950 . S
H1298 C1294 0.950 . S
C1299 C1297 1.390 . S
C1299 C1300 1.387 . S
C1299 H1302 0.950 . S
C1300 C1299 1.387 . S
C1300 C1303 1.387 . S
H1301 C1297 0.950 . S
H1302 C1299 0.950 . S
C1303 C1294 1.390 . S
C1303 H1296 0.950 . S
C1303 C1300 1.387 . S
C1304 C1305 1.387 . S
C1304 H1308 0.950 . S
C1304 C1313 1.390 . S
C1305 C1304 1.387 . S
C1305 C1307 1.387 . S
H1306 C1313 0.950 . S
C1307 C1305 1.387 . S
C1307 C1309 1.390 . S
C1307 H1311 0.950 . S
H1308 C1304 0.950 . S
C1309 C1307 1.390 . S
C1309 C1310 1.387 . S
C1309 H1312 0.950 . S
C1310 C1309 1.387 . S
C1310 C1313 1.387 . S
H1311 C1307 0.950 . S
H1312 C1309 0.950 . S
C1313 C1304 1.390 . S
C1313 H1306 0.950 . S
C1313 C1310 1.387 . S
C1314 C1315 1.387 . S
C1314 H1318 0.950 . S
C1314 C1323 1.390 . S
C1315 C1314 1.387 . S
C1315 C1317 1.387 . S
H1316 C1323 0.950 . S
C1317 C1315 1.387 . S
C1317 C1319 1.390 . S
C1317 H1321 0.950 . S
H1318 C1314 0.950 . S
C1319 C1317 1.390 . S
C1319 C1320 1.387 . S
C1319 H1322 0.950 . S
C1320 C1319 1.387 . S
C1320 C1323 1.387 . S
H1321 C1317 0.950 . S
H1322 C1319 0.950 . S
C1323 C1314 1.390 . S
C1323 H1316 0.950 . S
C1323 C1320 1.387 . S
C1324 C1325 1.387 . S
C1324 H1328 0.950 . S
C1324 C1333 1.390 . S
C1325 C1324 1.387 . S
C1325 C1327 1.387 . S
H1326 C1333 0.950 . S
C1327 C1325 1.387 . S
C1327 C1329 1.390 . S
C1327 H1331 0.950 . S
H1328 C1324 0.950 . S
C1329 C1327 1.390 . S
C1329 C1330 1.387 1_455 S
C1329 H1332 0.950 1_455 S
C1330 C1329 1.387 1_655 S
C1330 C1333 1.387 1_655 S
H1331 C1327 0.950 . S
H1332 C1329 0.950 1_655 S
C1333 C1324 1.390 . S
C1333 H1326 0.950 . S
C1333 C1330 1.387 1_455 S
C1334 C1335 1.387 . S
C1334 H1338 0.950 . S
C1334 C1343 1.390 . S
C1335 C1334 1.387 . S
C1335 C1337 1.387 . S
H1336 C1343 0.950 . S
C1337 C1335 1.387 . S
C1337 C1339 1.390 . S
C1337 H1341 0.950 . S
H1338 C1334 0.950 . S
C1339 C1337 1.390 . S
C1339 C1340 1.387 1_655 S
C1339 H1342 0.950 1_655 S
C1340 C1339 1.387 1_455 S
C1340 C1343 1.387 1_455 S
H1341 C1337 0.950 . S
H1342 C1339 0.950 1_455 S
C1343 C1334 1.390 . S
C1343 H1336 0.950 . S
C1343 C1340 1.387 1_655 S
C1344 C1345 1.387 . S
C1344 H1348 0.950 . S
C1344 C1353 1.390 . S
C1345 C1344 1.387 . S
C1345 C1347 1.387 . S
H1346 C1353 0.950 . S
C1347 C1345 1.387 . S
C1347 C1349 1.390 . S
C1347 H1351 0.950 . S
H1348 C1344 0.950 . S
C1349 C1347 1.390 . S
C1349 C1350 1.387 . S
C1349 H1352 0.950 . S
C1350 C1349 1.387 . S
C1350 C1353 1.387 . S
H1351 C1347 0.950 . S
H1352 C1349 0.950 . S
C1353 C1344 1.390 . S
C1353 H1346 0.950 . S
C1353 C1350 1.387 . S
C1354 C1355 1.387 . S
C1354 H1358 0.950 . S
C1354 C1363 1.390 . S
C1355 C1354 1.387 . S
C1355 C1357 1.387 . S
H1356 C1363 0.950 . S
C1357 C1355 1.387 . S
C1357 C1359 1.390 . S
C1357 H1361 0.950 . S
H1358 C1354 0.950 . S
C1359 C1357 1.390 . S
C1359 C1360 1.387 . S
C1359 H1362 0.950 . S
C1360 C1359 1.387 . S
C1360 C1363 1.387 . S
H1361 C1357 0.950 . S
H1362 C1359 0.950 . S
C1363 C1354 1.390 . S
C1363 H1356 0.950 . S
C1363 C1360 1.387 . S
C1364 C1365 1.387 . S
C1364 H1368 0.950 . S
C1364 C1373 1.390 . S
C1365 C1364 1.387 . S
C1365 C1367 1.387 . S
H1366 C1373 0.950 . S
C1367 C1365 1.387 . S
C1367 C1369 1.390 . S
C1367 H1371 0.950 . S
H1368 C1364 0.950 . S
C1369 C1367 1.390 . S
C1369 C1370 1.387 . S
C1369 H1372 0.950 . S
C1370 C1369 1.387 . S
C1370 C1373 1.387 . S
H1371 C1367 0.950 . S
H1372 C1369 0.950 . S
C1373 C1364 1.390 . S
C1373 H1366 0.950 . S
C1373 C1370 1.387 . S
C1374 C1375 1.387 . S
C1374 H1378 0.950 . S
C1374 C1383 1.390 . S
C1375 C1374 1.387 . S
C1375 C1377 1.387 . S
H1376 C1383 0.950 . S
C1377 C1375 1.387 . S
C1377 C1379 1.390 . S
C1377 H1381 0.950 . S
H1378 C1374 0.950 . S
C1379 C1377 1.390 . S
C1379 C1380 1.387 . S
C1379 H1382 0.950 . S
C1380 C1379 1.387 . S
C1380 C1383 1.387 . S
H1381 C1377 0.950 . S
H1382 C1379 0.950 . S
C1383 C1374 1.390 . S
C1383 H1376 0.950 . S
C1383 C1380 1.387 . S
C1384 C1385 1.387 . S
C1384 H1388 0.950 . S
C1384 C1393 1.390 . S
C1385 C1384 1.387 . S
C1385 C1387 1.387 . S
H1386 C1393 0.950 . S
C1387 C1385 1.387 . S
C1387 C1389 1.390 . S
C1387 H1391 0.950 . S
H1388 C1384 0.950 . S
C1389 C1387 1.390 . S
C1389 C1390 1.387 . S
C1389 H1392 0.950 . S
C1390 C1389 1.387 . S
C1390 C1393 1.387 . S
H1391 C1387 0.950 . S
H1392 C1389 0.950 . S
C1393 C1384 1.390 . S
C1393 H1386 0.950 . S
C1393 C1390 1.387 . S
C1394 C1395 1.387 . S
C1394 H1398 0.950 . S
C1394 C1403 1.390 . S
C1395 C1394 1.387 . S
C1395 C1397 1.387 . S
H1396 C1403 0.950 . S
C1397 C1395 1.387 . S
C1397 C1399 1.390 . S
C1397 H1401 0.950 . S
H1398 C1394 0.950 . S
C1399 C1397 1.390 . S
C1399 C1400 1.387 . S
C1399 H1402 0.950 . S
C1400 C1399 1.387 . S
C1400 C1403 1.387 . S
H1401 C1397 0.950 . S
H1402 C1399 0.950 . S
C1403 C1394 1.390 . S
C1403 H1396 0.950 . S
C1403 C1400 1.387 . S
C1404 C1405 1.387 . S
C1404 H1408 0.950 . S
C1404 C1413 1.390 . S
C1405 C1404 1.387 . S
C1405 C1407 1.387 . S
H1406 C1413 0.950 . S
C1407 C1405 1.387 . S
C1407 C1409 1.390 . S
C1407 H1411 0.950 . S
H1408 C1404 0.950 . S
C1409 C1407 1.390 . S
C1409 C1410 1.387 . S
C1409 H1412 0.950 . S
C1410 C1409 1.387 . S
C1410 C1413 1.387 . S
H1411 C1407 0.950 . S
H1412 C1409 0.950 . S
C1413 C1404 1.390 . S
C1413 H1406 0.950 . S
C1413 C1410 1.387 . S
C1414 C1415 1.387 . S
C1414 H1418 0.950 . S
C1414 C1423 1.390 . S
C1415 C1414 1.387 . S
C1415 C1417 1.387 . S
H1416 C1423 0.950 . S
C1417 C1415 1.387 . S
C1417 C1419 1.390 . S
C1417 H1421 0.950 . S
H1418 C1414 0.950 . S
C1419 C1417 1.390 . S
C1419 C1420 1.387 . S
C1419 H1422 0.950 . S
C1420 C1419 1.387 . S
C1420 C1423 1.387 . S
H1421 C1417 0.950 . S
H1422 C1419 0.950 . S
C1423 C1414 1.390 . S
C1423 H1416 0.950 . S
C1423 C1420 1.387 . S
C1424 C1425 1.387 . S
C1424 H1428 0.950 . S
C1424 C1433 1.390 . S
C1425 C1424 1.387 . S
C1425 C1427 1.387 . S
H1426 C1433 0.950 . S
C1427 C1425 1.387 . S
C1427 C1429 1.390 . S
C1427 H1431 0.950 . S
H1428 C1424 0.950 . S
C1429 C1427 1.390 . S
C1429 C1430 1.387 . S
C1429 H1432 0.950 . S
C1430 C1429 1.387 . S
C1430 C1433 1.387 . S
H1431 C1427 0.950 . S
H1432 C1429 0.950 . S
C1433 C1424 1.390 . S
C1433 H1426 0.950 . S
C1433 C1430 1.387 . S
C1434 C1435 1.387 1_545 S
C1434 H1438 0.948 . S
C1434 C1443 1.390 . S
C1435 C1434 1.387 1_565 S
C1435 C1437 1.387 1_565 S
H1436 C1443 0.950 . S
C1437 C1435 1.387 1_545 S
C1437 C1439 1.390 . S
C1437 H1441 0.950 1_545 S
H1438 C1434 0.948 . S
C1439 C1437 1.390 . S
C1439 C1440 1.387 . S
C1439 H1442 0.950 . S
C1440 C1439 1.387 . S
C1440 C1443 1.387 . S
H1441 C1437 0.950 1_565 S
H1442 C1439 0.950 . S
C1443 C1434 1.390 . S
C1443 H1436 0.950 . S
C1443 C1440 1.387 . S
C1444 C1445 1.387 . S
C1444 H1448 0.950 . S
C1444 C1453 1.390 . S
C1445 C1444 1.387 . S
C1445 C1447 1.387 . S
H1446 C1453 0.950 . S
C1447 C1445 1.387 . S
C1447 C1449 1.390 . S
C1447 H1451 0.950 . S
H1448 C1444 0.950 . S
C1449 C1447 1.390 . S
C1449 C1450 1.387 . S
C1449 H1452 0.950 . S
C1450 C1449 1.387 . S
C1450 C1453 1.387 . S
H1451 C1447 0.950 . S
H1452 C1449 0.950 . S
C1453 C1444 1.390 . S
C1453 H1446 0.950 . S
C1453 C1450 1.387 . S
C1454 C1455 1.387 . S
C1454 H1458 0.950 . S
C1454 C1463 1.390 . S
C1455 C1454 1.387 . S
C1455 C1457 1.387 . S
H1456 C1463 0.950 . S
C1457 C1455 1.387 . S
C1457 C1459 1.390 . S
C1457 H1461 0.950 . S
H1458 C1454 0.950 . S
C1459 C1457 1.390 . S
C1459 C1460 1.387 . S
C1459 H1462 0.950 . S
C1460 C1459 1.387 . S
C1460 C1463 1.387 . S
H1461 C1457 0.950 . S
H1462 C1459 0.950 . S
C1463 C1454 1.390 . S
C1463 H1456 0.950 . S
C1463 C1460 1.387 . S
C1464 C1465 1.387 . S
C1464 H1468 0.950 . S
C1464 C1473 1.390 . S
C1465 C1464 1.387 . S
C1465 C1467 1.387 . S
H1466 C1473 0.950 . S
C1467 C1465 1.387 . S
C1467 C1469 1.390 . S
C1467 H1471 0.950 . S
H1468 C1464 0.950 . S
C1469 C1467 1.390 . S
C1469 C1470 1.387 . S
C1469 H1472 0.950 . S
C1470 C1469 1.387 . S
C1470 C1473 1.387 . S
H1471 C1467 0.950 . S
H1472 C1469 0.950 . S
C1473 C1464 1.390 . S
C1473 H1466 0.950 . S
C1473 C1470 1.387 . S
C1474 C1475 1.387 1_545 S
C1474 H1478 0.950 1_545 S
C1474 C1483 1.390 . S
C1475 C1474 1.387 1_565 S
C1475 C1477 1.387 1_565 S
H1476 C1483 0.950 . S
C1477 C1475 1.387 1_545 S
C1477 C1479 1.390 . S
C1477 H1481 0.950 . S
H1478 C1474 0.950 1_565 S
C1479 C1477 1.390 . S
C1479 C1480 1.387 . S
C1479 H1482 0.950 . S
C1480 C1479 1.387 . S
C1480 C1483 1.387 . S
H1481 C1477 0.950 . S
H1482 C1479 0.950 . S
C1483 C1474 1.390 . S
C1483 H1476 0.950 . S
C1483 C1480 1.387 . S
C1484 C1485 1.387 . S
C1484 H1488 0.950 . S
C1484 C1493 1.390 . S
C1485 C1484 1.387 . S
C1485 C1487 1.387 . S
H1486 C1493 0.950 . S
C1487 C1485 1.387 . S
C1487 C1489 1.390 . S
C1487 H1491 0.950 . S
H1488 C1484 0.950 . S
C1489 C1487 1.390 . S
C1489 C1490 1.387 . S
C1489 H1492 0.950 . S
C1490 C1489 1.387 . S
C1490 C1493 1.387 . S
H1491 C1487 0.950 . S
H1492 C1489 0.950 . S
C1493 C1484 1.390 . S
C1493 H1486 0.950 . S
C1493 C1490 1.387 . S
C1494 C1495 1.387 . S
C1494 H1498 0.950 . S
C1494 C1503 1.390 . S
C1495 C1494 1.387 . S
C1495 C1497 1.387 . S
H1496 C1503 0.950 . S
C1497 C1495 1.387 . S
C1497 C1499 1.390 . S
C1497 H1501 0.950 . S
H1498 C1494 0.950 . S
C1499 C1497 1.390 . S
C1499 C1500 1.387 . S
C1499 H1502 0.950 . S
C1500 C1499 1.387 . S
C1500 C1503 1.387 . S
H1501 C1497 0.950 . S
H1502 C1499 0.950 . S
C1503 C1494 1.390 . S
C1503 H1496 0.950 . S
C1503 C1500 1.387 . S
C1504 C1505 1.387 . S
C1504 H1508 0.950 . S
C1504 C1513 1.390 . S
C1505 C1504 1.387 . S
C1505 C1507 1.387 . S
H1506 C1513 0.950 . S
C1507 C1505 1.387 . S
C1507 C1509 1.390 . S
C1507 H1511 0.950 . S
H1508 C1504 0.950 . S
C1509 C1507 1.390 . S
C1509 C1510 1.387 . S
C1509 H1512 0.950 . S
C1510 C1509 1.387 . S
C1510 C1513 1.387 . S
H1511 C1507 0.950 . S
H1512 C1509 0.950 . S
C1513 C1504 1.390 . S
C1513 H1506 0.950 . S
C1513 C1510 1.387 . S
C1514 C1515 1.387 . S
C1514 H1518 0.950 . S
C1514 C1523 1.390 . S
C1515 C1514 1.387 . S
C1515 C1517 1.387 . S
H1516 C1523 0.950 . S
C1517 C1515 1.387 . S
C1517 C1519 1.390 . S
C1517 H1521 0.950 . S
H1518 C1514 0.950 . S
C1519 C1517 1.390 . S
C1519 C1520 1.387 . S
C1519 H1522 0.950 . S
C1520 C1519 1.387 . S
C1520 C1523 1.387 . S
H1521 C1517 0.950 . S
H1522 C1519 0.950 . S
C1523 C1514 1.390 . S
C1523 H1516 0.950 . S
C1523 C1520 1.387 . S
C1524 C1525 1.387 . S
C1524 H1528 0.950 . S
C1524 C1533 1.390 . S
C1525 C1524 1.387 . S
C1525 C1527 1.387 . S
H1526 C1533 0.950 . S
C1527 C1525 1.387 . S
C1527 C1529 1.390 . S
C1527 H1531 0.950 . S
H1528 C1524 0.950 . S
C1529 C1527 1.390 . S
C1529 C1530 1.387 . S
C1529 H1532 0.950 . S
C1530 C1529 1.387 . S
C1530 C1533 1.387 . S
H1531 C1527 0.950 . S
H1532 C1529 0.950 . S
C1533 C1524 1.390 . S
C1533 H1526 0.950 . S
C1533 C1530 1.387 . S
C1534 C1535 1.387 . S
C1534 H1538 0.950 . S
C1534 C1543 1.390 . S
C1535 C1534 1.387 . S
C1535 C1537 1.387 . S
H1536 C1543 0.950 . S
C1537 C1535 1.387 . S
C1537 C1539 1.390 . S
C1537 H1541 0.950 . S
H1538 C1534 0.950 . S
C1539 C1537 1.390 . S
C1539 C1540 1.387 . S
C1539 H1542 0.950 . S
C1540 C1539 1.387 . S
C1540 C1543 1.387 . S
H1541 C1537 0.950 . S
H1542 C1539 0.950 . S
C1543 C1534 1.390 . S
C1543 H1536 0.950 . S
C1543 C1540 1.387 . S
C1544 C1545 1.387 1_655 S
C1544 H1548 0.950 . S
C1544 C1553 1.390 . S
C1545 C1544 1.387 1_455 S
C1545 C1547 1.387 1_455 S
H1546 C1553 0.950 . S
C1547 C1545 1.387 1_655 S
C1547 C1549 1.390 . S
C1547 H1551 0.950 1_655 S
H1548 C1544 0.950 . S
C1549 C1547 1.390 . S
C1549 C1550 1.387 . S
C1549 H1552 0.950 . S
C1550 C1549 1.387 . S
C1550 C1553 1.387 . S
H1551 C1547 0.950 1_455 S
H1552 C1549 0.950 . S
C1553 C1544 1.390 . S
C1553 H1546 0.950 . S
C1553 C1550 1.387 . S
C1554 C1555 1.387 . S
C1554 H1558 0.950 . S
C1554 C1563 1.390 . S
C1555 C1554 1.387 . S
C1555 C1557 1.387 . S
H1556 C1563 0.950 . S
C1557 C1555 1.387 . S
C1557 C1559 1.390 . S
C1557 H1561 0.950 . S
H1558 C1554 0.950 . S
C1559 C1557 1.390 . S
C1559 C1560 1.387 . S
C1559 H1562 0.950 . S
C1560 C1559 1.387 . S
C1560 C1563 1.387 . S
H1561 C1557 0.950 . S
H1562 C1559 0.950 . S
C1563 C1554 1.390 . S
C1563 H1556 0.950 . S
C1563 C1560 1.387 . S
C1564 C1565 1.387 . S
C1564 H1568 0.950 . S
C1564 C1573 1.390 . S
C1565 C1564 1.387 . S
C1565 C1567 1.387 . S
H1566 C1573 0.950 . S
C1567 C1565 1.387 . S
C1567 C1569 1.390 . S
C1567 H1571 0.950 . S
H1568 C1564 0.950 . S
C1569 C1567 1.390 . S
C1569 C1570 1.387 . S
C1569 H1572 0.950 . S
C1570 C1569 1.387 . S
C1570 C1573 1.387 . S
H1571 C1567 0.950 . S
H1572 C1569 0.950 . S
C1573 C1564 1.390 . S
C1573 H1566 0.950 . S
C1573 C1570 1.387 . S
C1574 C1575 1.387 . S
C1574 H1578 0.950 . S
C1574 C1583 1.390 . S
C1575 C1574 1.387 . S
C1575 C1577 1.387 . S
H1576 C1583 0.950 . S
C1577 C1575 1.387 . S
C1577 C1579 1.390 . S
C1577 H1581 0.950 . S
H1578 C1574 0.950 . S
C1579 C1577 1.390 . S
C1579 C1580 1.387 . S
C1579 H1582 0.950 . S
C1580 C1579 1.387 . S
C1580 C1583 1.387 . S
H1581 C1577 0.950 . S
H1582 C1579 0.950 . S
C1583 C1574 1.390 . S
C1583 H1576 0.950 . S
C1583 C1580 1.387 . S
C1584 C1585 1.387 . S
C1584 H1588 0.950 . S
C1584 C1593 1.390 . S
C1585 C1584 1.387 . S
C1585 C1587 1.387 . S
H1586 C1593 0.950 . S
C1587 C1585 1.387 . S
C1587 C1589 1.390 . S
C1587 H1591 0.950 . S
H1588 C1584 0.950 . S
C1589 C1587 1.390 . S
C1589 C1590 1.387 . S
C1589 H1592 0.950 . S
C1590 C1589 1.387 . S
C1590 C1593 1.387 . S
H1591 C1587 0.950 . S
H1592 C1589 0.950 . S
C1593 C1584 1.390 . S
C1593 H1586 0.950 . S
C1593 C1590 1.387 . S
C1594 C1595 1.387 . S
C1594 H1598 0.950 . S
C1594 C1603 1.390 . S
C1595 C1594 1.387 . S
C1595 C1597 1.387 . S
H1596 C1603 0.950 . S
C1597 C1595 1.387 . S
C1597 C1599 1.390 . S
C1597 H1601 0.950 . S
H1598 C1594 0.950 . S
C1599 C1597 1.390 . S
C1599 C1600 1.387 . S
C1599 H1602 0.950 . S
C1600 C1599 1.387 . S
C1600 C1603 1.387 . S
H1601 C1597 0.950 . S
H1602 C1599 0.950 . S
C1603 C1594 1.390 . S
C1603 H1596 0.950 . S
C1603 C1600 1.387 . S
C1604 C1605 1.387 . S
C1604 H1608 0.950 . S
C1604 C1613 1.390 . S
C1605 C1604 1.387 . S
C1605 C1607 1.387 . S
H1606 C1613 0.950 . S
C1607 C1605 1.387 . S
C1607 C1609 1.390 . S
C1607 H1611 0.950 . S
H1608 C1604 0.950 . S
C1609 C1607 1.390 . S
C1609 C1610 1.387 . S
C1609 H1612 0.950 . S
C1610 C1609 1.387 . S
C1610 C1613 1.387 . S
H1611 C1607 0.950 . S
H1612 C1609 0.950 . S
C1613 C1604 1.390 . S
C1613 H1606 0.950 . S
C1613 C1610 1.387 . S
C1614 C1615 1.387 . S
C1614 H1618 0.950 . S
C1614 C1623 1.390 . S
C1615 C1614 1.387 . S
C1615 C1617 1.387 . S
H1616 C1623 0.950 . S
C1617 C1615 1.387 . S
C1617 C1619 1.390 . S
C1617 H1621 0.950 . S
H1618 C1614 0.950 . S
C1619 C1617 1.390 . S
C1619 C1620 1.387 . S
C1619 H1622 0.950 . S
C1620 C1619 1.387 . S
C1620 C1623 1.387 . S
H1621 C1617 0.950 . S
H1622 C1619 0.950 . S
C1623 C1614 1.390 . S
C1623 H1616 0.950 . S
C1623 C1620 1.387 . S
C1624 C1625 1.387 . S
C1624 H1628 0.950 . S
C1624 C1633 1.390 . S
C1625 C1624 1.387 . S
C1625 C1627 1.387 . S
H1626 C1633 0.950 . S
C1627 C1625 1.387 . S
C1627 C1629 1.390 . S
C1627 H1631 0.950 . S
H1628 C1624 0.950 . S
C1629 C1627 1.390 . S
C1629 C1630 1.387 . S
C1629 H1632 0.950 . S
C1630 C1629 1.387 . S
C1630 C1633 1.387 . S
H1631 C1627 0.950 . S
H1632 C1629 0.950 . S
C1633 C1624 1.390 . S
C1633 H1626 0.950 . S
C1633 C1630 1.387 . S
C1634 C1635 1.387 . S
C1634 H1638 0.950 . S
C1634 C1643 1.390 . S
C1635 C1634 1.387 . S
C1635 C1637 1.387 . S
H1636 C1643 0.950 . S
C1637 C1635 1.387 . S
C1637 C1639 1.390 . S
C1637 H1641 0.950 . S
H1638 C1634 0.950 . S
C1639 C1637 1.390 . S
C1639 C1640 1.387 . S
C1639 H1642 0.950 . S
C1640 C1639 1.387 . S
C1640 C1643 1.387 . S
H1641 C1637 0.950 . S
H1642 C1639 0.950 . S
C1643 C1634 1.390 . S
C1643 H1636 0.950 . S
C1643 C1640 1.387 . S
C1644 C1645 1.387 . S
C1644 H1648 0.950 . S
C1644 C1653 1.390 . S
C1645 C1644 1.387 . S
C1645 C1647 1.387 . S
H1646 C1653 0.950 . S
C1647 C1645 1.387 . S
C1647 C1649 1.390 . S
C1647 H1651 0.950 . S
H1648 C1644 0.950 . S
C1649 C1647 1.390 . S
C1649 C1650 1.387 . S
C1649 H1652 0.950 . S
C1650 C1649 1.387 . S
C1650 C1653 1.387 . S
H1651 C1647 0.950 . S
H1652 C1649 0.950 . S
C1653 C1644 1.390 . S
C1653 H1646 0.950 . S
C1653 C1650 1.387 . S
C1654 C1655 1.387 . S
C1654 H1658 0.950 . S
C1654 C1663 1.390 . S
C1655 C1654 1.387 . S
C1655 C1657 1.387 . S
H1656 C1663 0.950 . S
C1657 C1655 1.387 . S
C1657 C1659 1.390 . S
C1657 H1661 0.950 . S
H1658 C1654 0.950 . S
C1659 C1657 1.390 . S
C1659 C1660 1.387 . S
C1659 H1662 0.950 . S
C1660 C1659 1.387 . S
C1660 C1663 1.387 . S
H1661 C1657 0.950 . S
H1662 C1659 0.950 . S
C1663 C1654 1.390 . S
C1663 H1656 0.950 . S
C1663 C1660 1.387 . S
C1664 C1665 1.387 . S
C1664 H1668 0.950 . S
C1664 C1673 1.390 . S
C1665 C1664 1.387 . S
C1665 C1667 1.387 . S
H1666 C1673 0.950 . S
C1667 C1665 1.387 . S
C1667 C1669 1.390 . S
C1667 H1671 0.950 . S
H1668 C1664 0.950 . S
C1669 C1667 1.390 . S
C1669 C1670 1.387 . S
C1669 H1672 0.950 . S
C1670 C1669 1.387 . S
C1670 C1673 1.387 . S
H1671 C1667 0.950 . S
H1672 C1669 0.950 . S
C1673 C1664 1.390 . S
C1673 H1666 0.950 . S
C1673 C1670 1.387 . S
C1674 C1675 1.387 . S
C1674 H1678 0.950 . S
C1674 C1683 1.390 . S
C1675 C1674 1.387 . S
C1675 C1677 1.387 . S
H1676 C1683 0.950 . S
C1677 C1675 1.387 . S
C1677 C1679 1.390 . S
C1677 H1681 0.950 . S
H1678 C1674 0.950 . S
C1679 C1677 1.390 . S
C1679 C1680 1.387 . S
C1679 H1682 0.950 . S
C1680 C1679 1.387 . S
C1680 C1683 1.387 . S
H1681 C1677 0.950 . S
H1682 C1679 0.950 . S
C1683 C1674 1.390 . S
C1683 H1676 0.950 . S
C1683 C1680 1.387 . S
C1684 C1685 1.387 . S
C1684 H1688 0.950 . S
C1684 C1693 1.390 . S
C1685 C1684 1.387 . S
C1685 C1687 1.387 . S
H1686 C1693 0.950 . S
C1687 C1685 1.387 . S
C1687 C1689 1.390 . S
C1687 H1691 0.950 . S
H1688 C1684 0.950 . S
C1689 C1687 1.390 . S
C1689 C1690 1.387 . S
C1689 H1692 0.950 . S
C1690 C1689 1.387 . S
C1690 C1693 1.387 . S
H1691 C1687 0.950 . S
H1692 C1689 0.950 . S
C1693 C1684 1.390 . S
C1693 H1686 0.950 . S
C1693 C1690 1.387 . S
C1694 C1695 1.387 . S
C1694 H1698 0.950 . S
C1694 C1703 1.390 . S
C1695 C1694 1.387 . S
C1695 C1697 1.387 . S
H1696 C1703 0.950 . S
C1697 C1695 1.387 . S
C1697 C1699 1.390 . S
C1697 H1701 0.950 . S
H1698 C1694 0.950 . S
C1699 C1697 1.390 . S
C1699 C1700 1.387 . S
C1699 H1702 0.950 . S
C1700 C1699 1.387 . S
C1700 C1703 1.387 . S
H1701 C1697 0.950 . S
H1702 C1699 0.950 . S
C1703 C1694 1.390 . S
C1703 H1696 0.950 . S
C1703 C1700 1.387 . S
C1704 C1705 1.387 . S
C1704 H1708 0.950 . S
C1704 C1713 1.390 . S
C1705 C1704 1.387 . S
C1705 C1707 1.387 . S
H1706 C1713 0.950 . S
C1707 C1705 1.387 . S
C1707 C1709 1.390 . S
C1707 H1711 0.950 . S
H1708 C1704 0.950 . S
C1709 C1707 1.390 . S
C1709 C1710 1.387 . S
C1709 H1712 0.950 . S
C1710 C1709 1.387 . S
C1710 C1713 1.387 . S
H1711 C1707 0.950 . S
H1712 C1709 0.950 . S
C1713 C1704 1.390 . S
C1713 H1706 0.950 . S
C1713 C1710 1.387 . S
C1714 C1715 1.387 . S
C1714 H1718 0.950 . S
C1714 C1723 1.390 . S
C1715 C1714 1.387 . S
C1715 C1717 1.387 . S
H1716 C1723 0.950 . S
C1717 C1715 1.387 . S
C1717 C1719 1.390 . S
C1717 H1721 0.950 . S
H1718 C1714 0.950 . S
C1719 C1717 1.390 . S
C1719 C1720 1.387 . S
C1719 H1722 0.950 . S
C1720 C1719 1.387 . S
C1720 C1723 1.387 . S
H1721 C1717 0.950 . S
H1722 C1719 0.950 . S
C1723 C1714 1.390 . S
C1723 H1716 0.950 . S
C1723 C1720 1.387 . S
C1724 C1725 1.387 . S
C1724 H1728 0.950 . S
C1724 C1733 1.390 . S
C1725 C1724 1.387 . S
C1725 C1727 1.387 . S
H1726 C1733 0.950 . S
C1727 C1725 1.387 . S
C1727 C1729 1.390 . S
C1727 H1731 0.950 . S
H1728 C1724 0.950 . S
C1729 C1727 1.390 . S
C1729 C1730 1.387 . S
C1729 H1732 0.950 . S
C1730 C1729 1.387 . S
C1730 C1733 1.387 . S
H1731 C1727 0.950 . S
H1732 C1729 0.950 . S
C1733 C1724 1.390 . S
C1733 H1726 0.950 . S
C1733 C1730 1.387 . S
C1734 C1735 1.387 . S
C1734 H1738 0.950 . S
C1734 C1743 1.390 . S
C1735 C1734 1.387 . S
C1735 C1737 1.387 . S
H1736 C1743 0.950 . S
C1737 C1735 1.387 . S
C1737 C1739 1.390 . S
C1737 H1741 0.950 . S
H1738 C1734 0.950 . S
C1739 C1737 1.390 . S
C1739 C1740 1.387 . S
C1739 H1742 0.950 . S
C1740 C1739 1.387 . S
C1740 C1743 1.387 . S
H1741 C1737 0.950 . S
H1742 C1739 0.950 . S
C1743 C1734 1.390 . S
C1743 H1736 0.950 . S
C1743 C1740 1.387 . S
C1744 C1745 1.387 . S
C1744 H1748 0.950 . S
C1744 C1753 1.390 . S
C1745 C1744 1.387 . S
C1745 C1747 1.387 . S
H1746 C1753 0.950 . S
C1747 C1745 1.387 . S
C1747 C1749 1.390 . S
C1747 H1751 0.950 . S
H1748 C1744 0.950 . S
C1749 C1747 1.390 . S
C1749 C1750 1.387 . S
C1749 H1752 0.950 . S
C1750 C1749 1.387 . S
C1750 C1753 1.387 . S
H1751 C1747 0.950 . S
H1752 C1749 0.950 . S
C1753 C1744 1.390 . S
C1753 H1746 0.950 . S
C1753 C1750 1.387 . S
C1754 C1755 1.387 . S
C1754 H1758 0.950 . S
C1754 C1763 1.390 . S
C1755 C1754 1.387 . S
C1755 C1757 1.387 . S
H1756 C1763 0.950 . S
C1757 C1755 1.387 . S
C1757 C1759 1.390 . S
C1757 H1761 0.950 . S
H1758 C1754 0.950 . S
C1759 C1757 1.390 . S
C1759 C1760 1.387 . S
C1759 H1762 0.950 . S
C1760 C1759 1.387 . S
C1760 C1763 1.387 . S
H1761 C1757 0.950 . S
H1762 C1759 0.950 . S
C1763 C1754 1.390 . S
C1763 H1756 0.950 . S
C1763 C1760 1.387 . S
C1764 C1765 1.387 . S
C1764 H1768 0.950 . S
C1764 C1773 1.390 . S
C1765 C1764 1.387 . S
C1765 C1767 1.387 . S
H1766 C1773 0.950 . S
C1767 C1765 1.387 . S
C1767 C1769 1.390 . S
C1767 H1771 0.950 . S
H1768 C1764 0.950 . S
C1769 C1767 1.390 . S
C1769 C1770 1.387 . S
C1769 H1772 0.950 . S
C1770 C1769 1.387 . S
C1770 C1773 1.387 . S
H1771 C1767 0.950 . S
H1772 C1769 0.950 . S
C1773 C1764 1.390 . S
C1773 H1766 0.950 . S
C1773 C1770 1.387 . S
C1774 C1775 1.387 . S
C1774 H1778 0.950 . S
C1774 C1783 1.390 . S
C1775 C1774 1.387 . S
C1775 C1777 1.387 . S
H1776 C1783 0.950 . S
C1777 C1775 1.387 . S
C1777 C1779 1.390 . S
C1777 H1781 0.950 . S
H1778 C1774 0.950 . S
C1779 C1777 1.390 . S
C1779 C1780 1.387 . S
C1779 H1782 0.950 . S
C1780 C1779 1.387 . S
C1780 C1783 1.387 . S
H1781 C1777 0.950 . S
H1782 C1779 0.950 . S
C1783 C1774 1.390 . S
C1783 H1776 0.950 . S
C1783 C1780 1.387 . S
C1784 C1785 1.387 . S
C1784 H1788 0.950 . S
C1784 C1793 1.390 . S
C1785 C1784 1.387 . S
C1785 C1787 1.387 . S
H1786 C1793 0.950 . S
C1787 C1785 1.387 . S
C1787 C1789 1.390 . S
C1787 H1791 0.950 . S
H1788 C1784 0.950 . S
C1789 C1787 1.390 . S
C1789 C1790 1.387 . S
C1789 H1792 0.950 . S
C1790 C1789 1.387 . S
C1790 C1793 1.387 . S
H1791 C1787 0.950 . S
H1792 C1789 0.950 . S
C1793 C1784 1.390 . S
C1793 H1786 0.950 . S
C1793 C1790 1.387 . S
C1794 C1795 1.387 . S
C1794 H1798 0.950 . S
C1794 C1803 1.390 . S
C1795 C1794 1.387 . S
C1795 C1797 1.387 . S
H1796 C1803 0.950 . S
C1797 C1795 1.387 . S
C1797 C1799 1.390 . S
C1797 H1801 0.950 . S
H1798 C1794 0.950 . S
C1799 C1797 1.390 . S
C1799 C1800 1.387 . S
C1799 H1802 0.950 . S
C1800 C1799 1.387 . S
C1800 C1803 1.387 . S
H1801 C1797 0.950 . S
H1802 C1799 0.950 . S
C1803 C1794 1.390 . S
C1803 H1796 0.950 . S
C1803 C1800 1.387 . S
C1804 C1805 1.387 . S
C1804 H1808 0.950 . S
C1804 C1813 1.390 . S
C1805 C1804 1.387 . S
C1805 C1807 1.387 . S
H1806 C1813 0.950 . S
C1807 C1805 1.387 . S
C1807 C1809 1.390 . S
C1807 H1811 0.950 . S
H1808 C1804 0.950 . S
C1809 C1807 1.390 . S
C1809 C1810 1.387 . S
C1809 H1812 0.950 . S
C1810 C1809 1.387 . S
C1810 C1813 1.387 . S
H1811 C1807 0.950 . S
H1812 C1809 0.950 . S
C1813 C1804 1.390 . S
C1813 H1806 0.950 . S
C1813 C1810 1.387 . S
C1814 C1815 1.387 . S
C1814 H1818 0.950 . S
C1814 C1823 1.390 . S
C1815 C1814 1.387 . S
C1815 C1817 1.387 . S
H1816 C1823 0.950 . S
C1817 C1815 1.387 . S
C1817 C1819 1.390 . S
C1817 H1821 0.950 . S
H1818 C1814 0.950 . S
C1819 C1817 1.390 . S
C1819 C1820 1.387 . S
C1819 H1822 0.950 . S
C1820 C1819 1.387 . S
C1820 C1823 1.387 . S
H1821 C1817 0.950 . S
H1822 C1819 0.950 . S
C1823 C1814 1.390 . S
C1823 H1816 0.950 . S
C1823 C1820 1.387 . S
C1824 C1825 1.387 . S
C1824 H1828 0.950 . S
C1824 C1833 1.390 . S
C1825 C1824 1.387 . S
C1825 C1827 1.387 . S
H1826 C1833 0.950 . S
C1827 C1825 1.387 . S
C1827 C1829 1.390 . S
C1827 H1831 0.950 . S
H1828 C1824 0.950 . S
C1829 C1827 1.390 . S
C1829 C1830 1.387 . S
C1829 H1832 0.950 . S
C1830 C1829 1.387 . S
C1830 C1833 1.387 . S
H1831 C1827 0.950 . S
H1832 C1829 0.950 . S
C1833 C1824 1.390 . S
C1833 H1826 0.950 . S
C1833 C1830 1.387 . S
C1834 C1835 1.387 . S
C1834 H1838 0.950 . S
C1834 C1843 1.390 . S
C1835 C1834 1.387 . S
C1835 C1837 1.387 . S
H1836 C1843 0.950 . S
C1837 C1835 1.387 . S
C1837 C1839 1.390 . S
C1837 H1841 0.950 . S
H1838 C1834 0.950 . S
C1839 C1837 1.390 . S
C1839 C1840 1.387 . S
C1839 H1842 0.950 . S
C1840 C1839 1.387 . S
C1840 C1843 1.387 . S
H1841 C1837 0.950 . S
H1842 C1839 0.950 . S
C1843 C1834 1.390 . S
C1843 H1836 0.950 . S
C1843 C1840 1.387 . S
C1844 C1845 1.387 . S
C1844 H1848 0.950 . S
C1844 C1853 1.390 . S
C1845 C1844 1.387 . S
C1845 C1847 1.387 . S
H1846 C1853 0.950 . S
C1847 C1845 1.387 . S
C1847 C1849 1.390 . S
C1847 H1851 0.950 . S
H1848 C1844 0.950 . S
C1849 C1847 1.390 . S
C1849 C1850 1.387 . S
C1849 H1852 0.950 . S
C1850 C1849 1.387 . S
C1850 C1853 1.387 . S
H1851 C1847 0.950 . S
H1852 C1849 0.950 . S
C1853 C1844 1.390 . S
C1853 H1846 0.950 . S
C1853 C1850 1.387 . S
C1854 C1855 1.387 . S
C1854 H1858 0.950 . S
C1854 C1863 1.390 . S
C1855 C1854 1.387 . S
C1855 C1857 1.387 . S
H1856 C1863 0.950 . S
C1857 C1855 1.387 . S
C1857 C1859 1.390 . S
C1857 H1861 0.950 . S
H1858 C1854 0.950 . S
C1859 C1857 1.390 . S
C1859 C1860 1.387 . S
C1859 H1862 0.950 . S
C1860 C1859 1.387 . S
C1860 C1863 1.387 . S
H1861 C1857 0.950 . S
H1862 C1859 0.950 . S
C1863 C1854 1.390 . S
C1863 H1856 0.950 . S
C1863 C1860 1.387 . S
C1864 C1865 1.387 . S
C1864 H1868 0.950 . S
C1864 C1873 1.390 . S
C1865 C1864 1.387 . S
C1865 C1867 1.387 . S
H1866 C1873 0.950 . S
C1867 C1865 1.387 . S
C1867 C1869 1.390 . S
C1867 H1871 0.950 . S
H1868 C1864 0.950 . S
C1869 C1867 1.390 . S
C1869 C1870 1.387 . S
C1869 H1872 0.950 . S
C1870 C1869 1.387 . S
C1870 C1873 1.387 . S
H1871 C1867 0.950 . S
H1872 C1869 0.950 . S
C1873 C1864 1.390 . S
C1873 H1866 0.950 . S
C1873 C1870 1.387 . S
C1874 C1875 1.387 . S
C1874 H1878 0.950 . S
C1874 C1883 1.390 . S
C1875 C1874 1.387 . S
C1875 C1877 1.387 . S
H1876 C1883 0.950 . S
C1877 C1875 1.387 . S
C1877 C1879 1.390 . S
C1877 H1881 0.950 . S
H1878 C1874 0.950 . S
C1879 C1877 1.390 . S
C1879 C1880 1.387 . S
C1879 H1882 0.950 . S
C1880 C1879 1.387 . S
C1880 C1883 1.387 . S
H1881 C1877 0.950 . S
H1882 C1879 0.950 . S
C1883 C1874 1.390 . S
C1883 H1876 0.950 . S
C1883 C1880 1.387 . S
C1884 C1885 1.387 . S
C1884 H1888 0.950 . S
C1884 C1893 1.390 . S
C1885 C1884 1.387 . S
C1885 C1887 1.387 . S
H1886 C1893 0.950 . S
C1887 C1885 1.387 . S
C1887 C1889 1.390 . S
C1887 H1891 0.950 . S
H1888 C1884 0.950 . S
C1889 C1887 1.390 . S
C1889 C1890 1.387 . S
C1889 H1892 0.950 . S
C1890 C1889 1.387 . S
C1890 C1893 1.387 . S
H1891 C1887 0.950 . S
H1892 C1889 0.950 . S
C1893 C1884 1.390 . S
C1893 H1886 0.950 . S
C1893 C1890 1.387 . S
C1894 C1895 1.387 . S
C1894 H1898 0.950 . S
C1894 C1903 1.390 . S
C1895 C1894 1.387 . S
C1895 C1897 1.387 . S
H1896 C1903 0.950 . S
C1897 C1895 1.387 . S
C1897 C1899 1.390 . S
C1897 H1901 0.950 . S
H1898 C1894 0.950 . S
C1899 C1897 1.390 . S
C1899 C1900 1.387 . S
C1899 H1902 0.950 . S
C1900 C1899 1.387 . S
C1900 C1903 1.387 . S
H1901 C1897 0.950 . S
H1902 C1899 0.950 . S
C1903 C1894 1.390 . S
C1903 H1896 0.950 . S
C1903 C1900 1.387 . S
C1904 C1905 1.387 . S
C1904 H1908 0.950 . S
C1904 C1913 1.390 . S
C1905 C1904 1.387 . S
C1905 C1907 1.387 . S
H1906 C1913 0.950 . S
C1907 C1905 1.387 . S
C1907 C1909 1.390 . S
C1907 H1911 0.950 . S
H1908 C1904 0.950 . S
C1909 C1907 1.390 . S
C1909 C1910 1.387 . S
C1909 H1912 0.950 . S
C1910 C1909 1.387 . S
C1910 C1913 1.387 . S
H1911 C1907 0.950 . S
H1912 C1909 0.950 . S
C1913 C1904 1.390 . S
C1913 H1906 0.950 . S
C1913 C1910 1.387 . S
C1914 C1915 1.387 . S
C1914 H1918 0.950 . S
C1914 C1923 1.390 . S
C1915 C1914 1.387 . S
C1915 C1917 1.387 . S
H1916 C1923 0.950 . S
C1917 C1915 1.387 . S
C1917 C1919 1.390 . S
C1917 H1921 0.950 . S
H1918 C1914 0.950 . S
C1919 C1917 1.390 . S
C1919 C1920 1.387 . S
C1919 H1922 0.950 . S
C1920 C1919 1.387 . S
C1920 C1923 1.387 . S
H1921 C1917 0.950 . S
H1922 C1919 0.950 . S
C1923 C1914 1.390 . S
C1923 H1916 0.950 . S
C1923 C1920 1.387 . S
C1924 C1925 1.387 . S
C1924 H1928 0.950 . S
C1924 C1933 1.390 . S
C1925 C1924 1.387 . S
C1925 C1927 1.387 . S
H1926 C1933 0.950 . S
C1927 C1925 1.387 . S
C1927 C1929 1.390 . S
C1927 H1931 0.950 . S
H1928 C1924 0.950 . S
C1929 C1927 1.390 . S
C1929 C1930 1.387 . S
C1929 H1932 0.950 . S
C1930 C1929 1.387 . S
C1930 C1933 1.387 . S
H1931 C1927 0.950 . S
H1932 C1929 0.950 . S
C1933 C1924 1.390 . S
C1933 H1926 0.950 . S
C1933 C1930 1.387 . S
C1934 C1935 1.387 . S
C1934 H1938 0.950 . S
C1934 C1943 1.390 . S
C1935 C1934 1.387 . S
C1935 C1937 1.387 . S
H1936 C1943 0.950 . S
C1937 C1935 1.387 . S
C1937 C1939 1.390 . S
C1937 H1941 0.950 . S
H1938 C1934 0.950 . S
C1939 C1937 1.390 . S
C1939 C1940 1.387 . S
C1939 H1942 0.950 . S
C1940 C1939 1.387 . S
C1940 C1943 1.387 . S
H1941 C1937 0.950 . S
H1942 C1939 0.950 . S
C1943 C1934 1.390 . S
C1943 H1936 0.950 . S
C1943 C1940 1.387 . S
C1944 C1945 1.387 . S
C1944 H1948 0.950 . S
C1944 C1953 1.390 . S
C1945 C1944 1.387 . S
C1945 C1947 1.387 . S
H1946 C1953 0.950 . S
C1947 C1945 1.387 . S
C1947 C1949 1.390 . S
C1947 H1951 0.950 . S
H1948 C1944 0.950 . S
C1949 C1947 1.390 . S
C1949 C1950 1.387 . S
C1949 H1952 0.950 . S
C1950 C1949 1.387 . S
C1950 C1953 1.387 . S
H1951 C1947 0.950 . S
H1952 C1949 0.950 . S
C1953 C1944 1.390 . S
C1953 H1946 0.950 . S
C1953 C1950 1.387 . S
C1954 C1955 1.387 . S
C1954 H1958 0.950 . S
C1954 C1963 1.390 . S
C1955 C1954 1.387 . S
C1955 C1957 1.387 . S
H1956 C1963 0.950 . S
C1957 C1955 1.387 . S
C1957 C1959 1.390 . S
C1957 H1961 0.950 . S
H1958 C1954 0.950 . S
C1959 C1957 1.390 . S
C1959 C1960 1.387 . S
C1959 H1962 0.950 . S
C1960 C1959 1.387 . S
C1960 C1963 1.387 . S
H1961 C1957 0.950 . S
H1962 C1959 0.950 . S
C1963 C1954 1.390 . S
C1963 H1956 0.950 . S
C1963 C1960 1.387 . S
C1964 C1965 1.387 . S
C1964 H1968 0.950 . S
C1964 C1973 1.390 . S
C1965 C1964 1.387 . S
C1965 C1967 1.387 . S
H1966 C1973 0.950 . S
C1967 C1965 1.387 . S
C1967 C1969 1.390 . S
C1967 H1971 0.950 . S
H1968 C1964 0.950 . S
C1969 C1967 1.390 . S
C1969 C1970 1.387 . S
C1969 H1972 0.950 . S
C1970 C1969 1.387 . S
C1970 C1973 1.387 . S
H1971 C1967 0.950 . S
H1972 C1969 0.950 . S
C1973 C1964 1.390 . S
C1973 H1966 0.950 . S
C1973 C1970 1.387 . S
C1974 C1975 1.387 . S
C1974 H1978 0.950 . S
C1974 C1983 1.390 . S
C1975 C1974 1.387 . S
C1975 C1977 1.387 . S
H1976 C1983 0.950 . S
C1977 C1975 1.387 . S
C1977 C1979 1.390 . S
C1977 H1981 0.950 . S
H1978 C1974 0.950 . S
C1979 C1977 1.390 . S
C1979 C1980 1.387 . S
C1979 H1982 0.950 . S
C1980 C1979 1.387 . S
C1980 C1983 1.387 . S
H1981 C1977 0.950 . S
H1982 C1979 0.950 . S
C1983 C1974 1.390 . S
C1983 H1976 0.950 . S
C1983 C1980 1.387 . S
C1984 C1985 1.387 . S
C1984 H1988 0.950 . S
C1984 C1993 1.390 . S
C1985 C1984 1.387 . S
C1985 C1987 1.387 . S
H1986 C1993 0.950 . S
C1987 C1985 1.387 . S
C1987 C1989 1.390 . S
C1987 H1991 0.950 . S
H1988 C1984 0.950 . S
C1989 C1987 1.390 . S
C1989 C1990 1.387 . S
C1989 H1992 0.950 . S
C1990 C1989 1.387 . S
C1990 C1993 1.387 . S
H1991 C1987 0.950 . S
H1992 C1989 0.950 . S
C1993 C1984 1.390 . S
C1993 H1986 0.950 . S
C1993 C1990 1.387 . S
C1994 C1995 1.387 . S
C1994 H1998 0.950 . S
C1994 C2003 1.390 . S
C1995 C1994 1.387 . S
C1995 C1997 1.387 . S
H1996 C2003 0.950 . S
C1997 C1995 1.387 . S
C1997 C1999 1.390 . S
C1997 H2001 0.950 . S
H1998 C1994 0.950 . S
C1999 C1997 1.390 . S
C1999 C2000 1.387 . S
C1999 H2002 0.950 . S
C2000 C1999 1.387 . S
C2000 C2003 1.387 . S
H2001 C1997 0.950 . S
H2002 C1999 0.950 . S
C2003 C1994 1.390 . S
C2003 H1996 0.950 . S
C2003 C2000 1.387 . S
C2004 C2005 1.387 . S
C2004 H2008 0.950 . S
C2004 C2013 1.390 . S
C2005 C2004 1.387 . S
C2005 C2007 1.387 . S
H2006 C2013 0.950 . S
C2007 C2005 1.387 . S
C2007 C2009 1.390 . S
C2007 H2011 0.950 . S
H2008 C2004 0.950 . S
C2009 C2007 1.390 . S
C2009 C2010 1.387 . S
C2009 H2012 0.950 . S
C2010 C2009 1.387 . S
C2010 C2013 1.387 . S
H2011 C2007 0.950 . S
H2012 C2009 0.950 . S
C2013 C2004 1.390 . S
C2013 H2006 0.950 . S
C2013 C2010 1.387 . S
C2014 C2015 1.387 . S
C2014 H2018 0.950 . S
C2014 C2023 1.390 . S
C2015 C2014 1.387 . S
C2015 C2017 1.387 . S
H2016 C2023 0.950 . S
C2017 C2015 1.387 . S
C2017 C2019 1.390 . S
C2017 H2021 0.950 . S
H2018 C2014 0.950 . S
C2019 C2017 1.390 . S
C2019 C2020 1.387 . S
C2019 H2022 0.950 . S
C2020 C2019 1.387 . S
C2020 C2023 1.387 . S
H2021 C2017 0.950 . S
H2022 C2019 0.950 . S
C2023 C2014 1.390 . S
C2023 H2016 0.950 . S
C2023 C2020 1.387 . S
C2024 C2025 1.387 . S
C2024 H2028 0.950 . S
C2024 C2033 1.390 . S
C2025 C2024 1.387 . S
C2025 C2027 1.387 . S
H2026 C2033 0.950 . S
C2027 C2025 1.387 . S
C2027 C2029 1.390 . S
C2027 H2031 0.950 . S
H2028 C2024 0.950 . S
C2029 C2027 1.390 . S
C2029 C2030 1.387 . S
C2029 H2032 0.950 . S
C2030 C2029 1.387 . S
C2030 C2033 1.387 . S
H2031 C2027 0.950 . S
H2032 C2029 0.950 . S
C2033 C2024 1.390 . S
C2033 H2026 0.950 . S
C2033 C2030 1.387 . S
C2034 C2035 1.387 . S
C2034 H2038 0.950 . S
C2034 C2043 1.390 . S
C2035 C2034 1.387 . S
C2035 C2037 1.387 . S
H2036 C2043 0.950 . S
C2037 C2035 1.387 . S
C2037 C2039 1.390 . S
C2037 H2041 0.950 . S
H2038 C2034 0.950 . S
C2039 C2037 1.390 . S
C2039 C2040 1.387 . S
C2039 H2042 0.950 . S
C2040 C2039 1.387 . S
C2040 C2043 1.387 . S
H2041 C2037 0.950 . S
H2042 C2039 0.950 . S
C2043 C2034 1.390 . S
C2043 H2036 0.950 . S
C2043 C2040 1.387 . S
C2044 C2045 1.387 . S
C2044 H2048 0.950 . S
C2044 C2053 1.390 . S
C2045 C2044 1.387 . S
C2045 C2047 1.387 . S
H2046 C2053 0.950 . S
C2047 C2045 1.387 . S
C2047 C2049 1.390 . S
C2047 H2051 0.950 . S
H2048 C2044 0.950 . S
C2049 C2047 1.390 . S
C2049 C2050 1.387 . S
C2049 H2052 0.950 . S
C2050 C2049 1.387 . S
C2050 C2053 1.387 . S
H2051 C2047 0.950 . S
H2052 C2049 0.950 . S
C2053 C2044 1.390 . S
C2053 H2046 0.950 . S
C2053 C2050 1.387 . S
C2054 C2055 1.387 . S
C2054 H2058 0.950 . S
C2054 C2063 1.390 . S
C2055 C2054 1.387 . S
C2055 C2057 1.387 . S
H2056 C2063 0.950 . S
C2057 C2055 1.387 . S
C2057 C2059 1.390 . S
C2057 H2061 0.950 . S
H2058 C2054 0.950 . S
C2059 C2057 1.390 . S
C2059 C2060 1.387 . S
C2059 H2062 0.950 . S
C2060 C2059 1.387 . S
C2060 C2063 1.387 . S
H2061 C2057 0.950 . S
H2062 C2059 0.950 . S
C2063 C2054 1.390 . S
C2063 H2056 0.950 . S
C2063 C2060 1.387 . S
C1105 C375 1.473 . S
C1110 N12 1.467 . S
C1115 C1088 1.476 . S
C1120 N35 1.472 . S
C1125 N58 1.467 . S
C1130 C1042 1.472 . S
C1135 N81 1.468 . S
C1140 C1065 1.471 . S
C1145 C398 1.477 . S
C1150 N104 1.472 . S
C1155 N127 1.470 . S
C1160 C421 1.477 . S
C1165 N150 1.470 . S
C1170 C444 1.476 . S
C1175 C1019 1.473 . S
C1180 N173 1.465 . S
C1185 N196 1.468 . S
C1190 C7 1.472 . S
C1195 C30 1.474 . S
C1200 N219 1.469 . S
C1205 C53 1.473 . S
C1210 N242 1.469 . S
C1215 C76 1.475 . S
C1220 N265 1.471 . S
C1225 C99 1.474 . S
C1230 N288 1.469 . S
C1235 N311 1.464 . S
C1240 C122 1.469 . S
C1245 C145 1.474 . S
C1250 N334 1.469 . S
C1255 N357 1.469 . S
C1260 C168 1.473 . S
C1265 N380 1.467 . S
C1270 C191 1.473 . S
C1275 C283 1.472 . S
C1280 N403 1.468 . S
C1285 N426 1.468 . S
C1290 C306 1.471 . S
C1295 N449 1.470 . S
C1300 C329 1.476 . S
C1305 C904 1.474 . S
C1310 N472 1.468 . S
C1315 N495 1.469 . S
C1320 C789 1.474 . S
C1325 C812 1.477 . S
C1330 N518 1.472 . S
C1335 C766 1.475 . S
C1340 N541 1.471 . S
C1345 C927 1.476 . S
C1350 N564 1.470 . S
C1355 N587 1.465 . S
C1360 C536 1.469 . S
C1365 N610 1.471 . S
C1370 C490 1.476 . S
C1375 N633 1.468 . S
C1380 C513 1.475 . S
C1385 N656 1.469 . S
C1390 C950 1.474 . S
C1395 C973 1.470 . S
C1400 N679 1.462 . S
C1405 N702 1.467 . S
C1410 C996 1.472 . S
C1415 C467 1.474 . S
C1420 N725 1.468 . S
C1425 C559 1.477 . S
C1430 N748 1.471 . S
C1435 N771 1.467 . S
C1440 C582 1.469 . S
C1445 N794 1.472 . S
C1450 C605 1.477 . S
C1455 N817 1.465 . S
C1460 C628 1.468 . S
C1465 N840 1.469 . S
C1470 C651 1.475 . S
C1475 N863 1.472 . S
C1480 C674 1.477 . S
C1485 C697 1.475 . S
C1490 N886 1.470 . S
C1495 C720 1.476 . S
C1500 N909 1.471 . S
C1505 C743 1.475 . S
C1510 N932 1.470 . S
C1515 C835 1.477 . S
C1520 N955 1.471 . S
C1525 C858 1.474 . S
C1530 N978 1.469 . S
C1535 N1001 1.469 . S
C1540 C881 1.474 . S
C1545 N1024 1.468 . S
C1550 C352 1.473 . S
C1555 N1047 1.471 . S
C1560 C237 1.477 . S
C1565 C260 1.472 . S
C1570 N1070 1.464 . S
C1575 N1093 1.467 . S
C1580 C214 1.469 . S
C1585 C16 1.621 . S
C1590 N623 1.486 . S
C1595 N554 1.502 . S
C1600 C39 1.635 . S
C1605 C62 1.619 . S
C1610 N577 1.485 . S
C1615 C85 1.634 . S
C1620 N600 1.502 . S
C1625 C108 1.624 . S
C1630 N117 1.491 . S
C1635 N140 1.508 . S
C1640 C131 1.645 . S
C1645 C154 1.621 . S
C1650 N163 1.487 . S
C1655 C177 1.639 . S
C1660 N94 1.512 . S
C1665 C200 1.621 . S
C1670 N968 1.485 . S
C1675 C223 1.636 . S
C1680 N991 1.509 . S
C1685 C246 1.634 . S
C1690 N462 1.502 . S
C1695 C269 1.640 . S
C1700 N945 1.512 . S
C1705 C292 1.618 . S
C1710 N1060 1.487 . S
C1715 N370 1.503 . S
C1720 C315 1.640 . S
C1725 C338 1.631 . S
C1730 N1083 1.496 . S
C1735 N1037 1.508 . S
C1740 C361 1.644 . S
C1745 N209 1.490 . S
C1750 C384 1.616 . S
C1755 C407 1.634 . S
C1760 N899 1.501 . S
C1765 C430 1.636 . S
C1770 N830 1.502 . S
C1775 N853 1.503 . S
C1780 C453 1.636 . S
C1785 C476 1.631 . S
C1790 N324 1.498 . S
C1795 N807 1.498 . S
C1800 C499 1.632 . S
C1805 N738 1.501 . S
C1810 C522 1.636 . S
C1815 N784 1.508 . S
C1820 C545 1.643 . S
C1825 C568 1.633 . S
C1830 N71 1.500 . S
C1835 C591 1.637 . S
C1840 N2 1.507 . S
C1845 N25 1.502 . S
C1850 C614 1.636 . S
C1855 C637 1.638 . S
C1860 N48 1.509 . S
C1865 C660 1.630 . S
C1870 N669 1.499 . S
C1875 N692 1.497 . S
C1880 C683 1.631 . S
C1885 N715 1.502 . S
C1890 C706 1.633 . S
C1895 C729 1.632 . S
C1900 N646 1.498 . S
C1905 N416 1.500 . S
C1910 C752 1.633 . S
C1915 C775 1.636 . S
C1920 N439 1.501 . S
C1925 C798 1.621 . S
C1930 N1014 1.490 . S
C1935 C821 1.631 . S
C1940 N393 1.499 . S
C1945 C844 1.636 . S
C1950 N508 1.502 . S
C1955 C867 1.635 . S
C1960 N922 1.504 . S
C1965 N531 1.491 . S
C1970 C890 1.620 . S
C1975 C913 1.632 . S
C1980 N485 1.500 . S
C1985 N761 1.498 . S
C1990 C936 1.634 . S
C1995 N347 1.489 . S
C2000 C959 1.617 . S
C2005 N278 1.508 . S
C2010 C982 1.640 . S
C2015 C1005 1.619 . S
C2020 N301 1.487 . S
C2025 C1028 1.640 . S
C2030 N876 1.510 . S
C2035 N255 1.492 . S
C2040 C1051 1.621 . S
C2045 C1074 1.636 . S
C2050 N186 1.508 . S
C2055 N232 1.499 . S
C2060 C1097 1.632 . S
