# Generated by pormake.
# Topology zfm, (5)-cn, num edge types: 1
# Building blocks:
#     Node 0, Type 0, BuildingBlock: BEQFEK_clean_sbu_0, # of connection points: 5
#     Node 1, Type 0, BuildingBlock: BEQFEK_clean_sbu_0, # of connection points: 5
#     Node 2, Type 0, BuildingBlock: BEQFEK_clean_sbu_0, # of connection points: 5
#     Node 3, Type 0, BuildingBlock: BEQFEK_clean_sbu_0, # of connection points: 5
#     Node 4, Type 0, BuildingBlock: BEQFEK_clean_sbu_0, # of connection points: 5
#     Node 5, Type 0, BuildingBlock: BEQFEK_clean_sbu_0, # of connection points: 5
#     Node 6, Type 0, BuildingBlock: BEQFEK_clean_sbu_0, # of connection points: 5
#     Node 7, Type 0, BuildingBlock: BEQFEK_clean_sbu_0, # of connection points: 5
#     Node 8, Type 0, BuildingBlock: BEQFEK_clean_sbu_0, # of connection points: 5
#     Node 9, Type 0, BuildingBlock: BEQFEK_clean_sbu_0, # of connection points: 5
#     Node 10, Type 0, BuildingBlock: BEQFEK_clean_sbu_0, # of connection points: 5
#     Node 11, Type 0, BuildingBlock: BEQFEK_clean_sbu_0, # of connection points: 5
#     Node 12, Type 0, BuildingBlock: BEQFEK_clean_sbu_0, # of connection points: 5
#     Node 13, Type 0, BuildingBlock: BEQFEK_clean_sbu_0, # of connection points: 5
#     Node 14, Type 0, BuildingBlock: BEQFEK_clean_sbu_0, # of connection points: 5
#     Node 15, Type 0, BuildingBlock: BEQFEK_clean_sbu_0, # of connection points: 5
#     Edge 16, Type (0, 0), BuildingBlock: TEMPAE_clean_linker_10, # of connection points: 2
#     Edge 17, Type (0, 0), BuildingBlock: TEMPAE_clean_linker_10, # of connection points: 2
#     Edge 18, Type (0, 0), BuildingBlock: TEMPAE_clean_linker_10, # of connection points: 2
#     Edge 19, Type (0, 0), BuildingBlock: TEMPAE_clean_linker_10, # of connection points: 2
#     Edge 20, Type (0, 0), BuildingBlock: TEMPAE_clean_linker_10, # of connection points: 2
#     Edge 21, Type (0, 0), BuildingBlock: TEMPAE_clean_linker_10, # of connection points: 2
#     Edge 22, Type (0, 0), BuildingBlock: TEMPAE_clean_linker_10, # of connection points: 2
#     Edge 23, Type (0, 0), BuildingBlock: TEMPAE_clean_linker_10, # of connection points: 2
#     Edge 24, Type (0, 0), BuildingBlock: TEMPAE_clean_linker_10, # of connection points: 2
#     Edge 25, Type (0, 0), BuildingBlock: TEMPAE_clean_linker_10, # of connection points: 2
#     Edge 26, Type (0, 0), BuildingBlock: TEMPAE_clean_linker_10, # of connection points: 2
#     Edge 27, Type (0, 0), BuildingBlock: TEMPAE_clean_linker_10, # of connection points: 2
#     Edge 28, Type (0, 0), BuildingBlock: TEMPAE_clean_linker_10, # of connection points: 2
#     Edge 29, Type (0, 0), BuildingBlock: TEMPAE_clean_linker_10, # of connection points: 2
#     Edge 30, Type (0, 0), BuildingBlock: TEMPAE_clean_linker_10, # of connection points: 2
#     Edge 31, Type (0, 0), BuildingBlock: TEMPAE_clean_linker_10, # of connection points: 2
#     Edge 32, Type (0, 0), BuildingBlock: TEMPAE_clean_linker_10, # of connection points: 2
#     Edge 33, Type (0, 0), BuildingBlock: TEMPAE_clean_linker_10, # of connection points: 2
#     Edge 34, Type (0, 0), BuildingBlock: TEMPAE_clean_linker_10, # of connection points: 2
#     Edge 35, Type (0, 0), BuildingBlock: TEMPAE_clean_linker_10, # of connection points: 2
#     Edge 36, Type (0, 0), BuildingBlock: TEMPAE_clean_linker_10, # of connection points: 2
#     Edge 37, Type (0, 0), BuildingBlock: TEMPAE_clean_linker_10, # of connection points: 2
#     Edge 38, Type (0, 0), BuildingBlock: TEMPAE_clean_linker_10, # of connection points: 2
#     Edge 39, Type (0, 0), BuildingBlock: TEMPAE_clean_linker_10, # of connection points: 2
#     Edge 40, Type (0, 0), BuildingBlock: TEMPAE_clean_linker_10, # of connection points: 2
#     Edge 41, Type (0, 0), BuildingBlock: TEMPAE_clean_linker_10, # of connection points: 2
#     Edge 42, Type (0, 0), BuildingBlock: TEMPAE_clean_linker_10, # of connection points: 2
#     Edge 43, Type (0, 0), BuildingBlock: TEMPAE_clean_linker_10, # of connection points: 2
#     Edge 44, Type (0, 0), BuildingBlock: TEMPAE_clean_linker_10, # of connection points: 2
#     Edge 45, Type (0, 0), BuildingBlock: TEMPAE_clean_linker_10, # of connection points: 2
#     Edge 46, Type (0, 0), BuildingBlock: TEMPAE_clean_linker_10, # of connection points: 2
#     Edge 47, Type (0, 0), BuildingBlock: TEMPAE_clean_linker_10, # of connection points: 2
#     Edge 48, Type (0, 0), BuildingBlock: TEMPAE_clean_linker_10, # of connection points: 2
#     Edge 49, Type (0, 0), BuildingBlock: TEMPAE_clean_linker_10, # of connection points: 2
#     Edge 50, Type (0, 0), BuildingBlock: TEMPAE_clean_linker_10, # of connection points: 2
#     Edge 51, Type (0, 0), BuildingBlock: TEMPAE_clean_linker_10, # of connection points: 2
#     Edge 52, Type (0, 0), BuildingBlock: TEMPAE_clean_linker_10, # of connection points: 2
#     Edge 53, Type (0, 0), BuildingBlock: TEMPAE_clean_linker_10, # of connection points: 2
#     Edge 54, Type (0, 0), BuildingBlock: TEMPAE_clean_linker_10, # of connection points: 2
#     Edge 55, Type (0, 0), BuildingBlock: TEMPAE_clean_linker_10, # of connection points: 2
# Relax obj value: 0.135
# Max RMSD: 0.195
# Mean RMSD: 0.195
data_MOF--net-zfm--node1-BEQFEK_clean_sbu_0--edge1-TEMPAE_clean_linker_10
_symmetry_space_group_name_H-M    P1
_symmetry_Int_Tables_number       1
_symmetry_cell_setting            triclinic
loop_
_symmetry_equiv_pos_as_xyz
'x, y, z'
_cell_length_a     28.737936
_cell_length_b     28.733317
_cell_length_c     77.474756
_cell_angle_alpha  89.98786
_cell_angle_beta   90.001685
_cell_angle_gamma 89.988822
loop_
_atom_site_label
_atom_site_type_symbol
_atom_site_fract_x
_atom_site_fract_y
_atom_site_fract_z
_atom_type_partial_charge
Co0 Co 0.45032 0.07076 0.152 0.0
Co1 Co 0.45088 0.0909 0.11193 0.0
C2 C 0.40595 0.00522 0.12759 0.0
O3 O 0.41997 0.01461 0.14277 0.0
O4 O 0.41559 0.03179 0.1149 0.0
C5 C 0.43895 0.03238 0.18609 0.0
O6 O 0.41192 0.00255 0.17807 0.0
C7 C 0.46973 0.06836 0.07572 0.0
C8 C 0.4646 0.13708 0.06302 0.0
C9 C 0.47272 0.09035 0.05978 0.0
N10 N 0.46075 0.10073 0.0878 0.0
N11 N 0.45778 0.14173 0.08014 0.0
C12 C 0.4708 0.01724 0.07947 0.0
H13 H 0.43477 0.00521 0.08203 0.0
H14 H 0.49155 0.01073 0.09131 0.0
H15 H 0.48487 0.99664 0.06859 0.0
C16 C 0.55154 0.08244 0.1468 0.0
N17 N 0.5076 0.08241 0.1408 0.0
N18 N 0.50812 0.09117 0.12413 0.0
C19 C 0.55251 0.09782 0.11906 0.0
C20 C 0.58144 0.09258 0.13326 0.0
C21 C 0.5644 0.07202 0.16512 0.0
H22 H 0.5467 0.09719 0.17377 0.0
H23 H 0.55186 0.03669 0.16856 0.0
H24 H 0.60254 0.07415 0.16721 0.0
O25 O 0.40533 0.12229 0.14844 0.0
O26 O 0.40951 0.14055 0.12056 0.0
H27 H 0.54784 0.1359 0.09539 0.0
H28 H 0.60505 0.11232 0.09968 0.0
C29 C 0.56713 0.10576 0.10075 0.0
H30 H 0.55826 0.07466 0.09296 0.0
H31 H 0.4506 0.17281 0.08658 0.0
O32 O 0.45935 0.06394 0.1774 0.0
C33 C 0.39267 0.1469 0.13558 0.0
Co34 Co 0.41606 0.44388 0.65099 0.0
Co35 Co 0.41578 0.44988 0.61032 0.0
C36 C 0.49163 0.40074 0.62921 0.0
O37 O 0.47312 0.41025 0.64374 0.0
O38 O 0.47391 0.41527 0.61513 0.0
C39 C 0.45323 0.45711 0.68517 0.0
O40 O 0.49219 0.46577 0.6769 0.0
C41 C 0.44518 0.46832 0.57451 0.0
C42 C 0.37744 0.47522 0.56126 0.0
C43 C 0.42505 0.47638 0.55846 0.0
N44 N 0.41099 0.4625 0.58616 0.0
N45 N 0.37061 0.46648 0.57814 0.0
C46 C 0.49576 0.46927 0.57907 0.0
H47 H 0.50038 0.48126 0.59258 0.0
H48 H 0.51532 0.49248 0.57021 0.0
H49 H 0.51011 0.43352 0.57802 0.0
C50 C 0.40846 0.54651 0.64693 0.0
N51 N 0.41122 0.50314 0.64039 0.0
N52 N 0.41084 0.5056 0.62342 0.0
C53 C 0.40763 0.55063 0.61867 0.0
C54 C 0.40571 0.57788 0.6334 0.0
C55 C 0.40964 0.55785 0.66576 0.0
H56 H 0.38579 0.53434 0.67288 0.0
H57 H 0.44541 0.55224 0.67072 0.0
H58 H 0.39951 0.59458 0.66815 0.0
O59 O 0.36269 0.4038 0.64461 0.0
O60 O 0.3651 0.40618 0.61594 0.0
H61 H 0.37895 0.55364 0.59326 0.0
H62 H 0.40898 0.60606 0.59967 0.0
C63 C 0.40936 0.56749 0.60041 0.0
H64 H 0.44137 0.55426 0.59411 0.0
H65 H 0.33835 0.4635 0.58422 0.0
O66 O 0.41659 0.44824 0.67659 0.0
C67 C 0.34768 0.39078 0.62992 0.0
Co68 Co 0.05031 0.42329 0.15331 0.0
Co69 Co 0.05014 0.40818 0.11296 0.0
C70 C 0.09572 0.4914 0.13018 0.0
O71 O 0.08201 0.48011 0.14524 0.0
O72 O 0.08559 0.4666 0.11707 0.0
C73 C 0.03732 0.46468 0.18702 0.0
O74 O 0.0363 0.50411 0.17844 0.0
C75 C 0.034 0.43612 0.07705 0.0
C76 C 0.03252 0.36868 0.06339 0.0
C77 C 0.02883 0.41629 0.0608 0.0
N78 N 0.04067 0.40188 0.08862 0.0
N79 N 0.03995 0.36165 0.08037 0.0
C80 C 0.02928 0.48634 0.08186 0.0
H81 H 0.01613 0.48959 0.09527 0.0
H82 H 0.00536 0.50464 0.07289 0.0
H83 H 0.064 0.50315 0.08119 0.0
C84 C 0.94877 0.41361 0.14767 0.0
N85 N 0.9929 0.41384 0.14184 0.0
N86 N 0.99267 0.40704 0.12503 0.0
C87 C 0.94833 0.4017 0.11969 0.0
C88 C 0.91912 0.40558 0.13387 0.0
C89 C 0.9353 0.42203 0.16606 0.0
H90 H 0.95515 0.39818 0.17457 0.0
H91 H 0.94451 0.45825 0.16964 0.0
H92 H 0.89748 0.41656 0.16813 0.0
O93 O 0.09426 0.37151 0.14895 0.0
O94 O 0.09106 0.35701 0.12077 0.0
H95 H 0.95199 0.36593 0.09554 0.0
H96 H 0.89591 0.39196 0.09986 0.0
C97 C 0.93406 0.39647 0.10122 0.0
H98 H 0.94483 0.42784 0.09391 0.0
H99 H 0.04422 0.32937 0.08634 0.0
O100 O 0.04194 0.42671 0.17877 0.0
C101 C 0.1072 0.34843 0.13576 0.0
Co102 Co 0.08412 0.04673 0.65086 0.0
Co103 Co 0.0757 0.04648 0.61042 0.0
C104 C 0.00241 0.08958 0.63154 0.0
O105 O 0.02558 0.07973 0.64508 0.0
O106 O 0.01622 0.07654 0.61668 0.0
C107 C 0.07932 0.07545 0.685 0.0
O108 O 0.07546 0.11535 0.67682 0.0
C109 C 0.04468 0.03082 0.57463 0.0
C110 C 0.11184 0.02941 0.56074 0.0
C111 C 0.06421 0.02562 0.55833 0.0
N112 N 0.07923 0.03752 0.58606 0.0
N113 N 0.11923 0.03686 0.57766 0.0
C114 C 0.99457 0.02629 0.57959 0.0
H115 H 0.99152 0.0134 0.59305 0.0
H116 H 0.97607 0.00224 0.57073 0.0
H117 H 0.97781 0.06103 0.57888 0.0
C118 C 0.09475 0.94581 0.6449 0.0
N119 N 0.08928 0.98964 0.63912 0.0
N120 N 0.08495 0.98912 0.62221 0.0
C121 C 0.08697 0.94466 0.61672 0.0
C122 C 0.09363 0.91586 0.63088 0.0
C123 C 0.0971 0.93297 0.66359 0.0
H124 H 0.06409 0.94319 0.66998 0.0
H125 H 0.10287 0.89509 0.6654 0.0
H126 H 0.12565 0.95271 0.66986 0.0
O127 O 0.13551 0.08891 0.64463 0.0
O128 O 0.12421 0.09293 0.61627 0.0
H129 H 0.08388 0.89151 0.59689 0.0
H130 H 0.04665 0.94151 0.59357 0.0
C131 C 0.08109 0.92983 0.59834 0.0
H132 H 0.10826 0.94658 0.5903 0.0
H133 H 0.15165 0.04106 0.58353 0.0
O134 O 0.0843 0.03844 0.67621 0.0
C135 C 0.14509 0.10606 0.62992 0.0
Co136 Co 0.44611 0.41973 0.85006 0.0
Co137 Co 0.45008 0.41495 0.89087 0.0
C138 C 0.40263 0.49322 0.8728 0.0
O139 O 0.41238 0.47614 0.85806 0.0
O140 O 0.41662 0.47386 0.88664 0.0
C141 C 0.43665 0.45557 0.81545 0.0
O142 O 0.41321 0.48869 0.82324 0.0
C143 C 0.46945 0.44285 0.9266 0.0
C144 C 0.46717 0.37546 0.94035 0.0
C145 C 0.47357 0.42277 0.94284 0.0
N146 N 0.46141 0.40885 0.91506 0.0
N147 N 0.46016 0.36866 0.92335 0.0
C148 C 0.46848 0.49353 0.9221 0.0
H149 H 0.43204 0.50381 0.91931 0.0
H150 H 0.48916 0.49962 0.91021 0.0
H151 H 0.48154 0.51581 0.9327 0.0
C152 C 0.548 0.41161 0.85481 0.0
N153 N 0.50444 0.41346 0.86116 0.0
N154 N 0.50618 0.41056 0.87811 0.0
C155 C 0.55093 0.40609 0.88304 0.0
C156 C 0.57881 0.40637 0.86844 0.0
C157 C 0.5597 0.41589 0.83606 0.0
H158 H 0.5413 0.38826 0.82875 0.0
H159 H 0.54715 0.44997 0.83119 0.0
H160 H 0.5977 0.41284 0.83378 0.0
O161 O 0.4052 0.36592 0.85545 0.0
O162 O 0.40626 0.36547 0.88418 0.0
H163 H 0.54992 0.3754 0.90818 0.0
H164 H 0.60521 0.40108 0.90242 0.0
C165 C 0.56689 0.40488 0.90142 0.0
H166 H 0.55627 0.43753 0.90795 0.0
H167 H 0.45395 0.33665 0.91743 0.0
O168 O 0.45404 0.42279 0.82443 0.0
C169 C 0.39135 0.34962 0.86986 0.0
Co170 Co 0.07537 0.44905 0.35118 0.0
Co171 Co 0.07783 0.45212 0.39198 0.0
C172 C 0.00014 0.40593 0.37344 0.0
O173 O 0.01863 0.41536 0.35889 0.0
O174 O 0.01825 0.41999 0.38751 0.0
C175 C 0.03413 0.45726 0.31745 0.0
O176 O 0.995 0.4531 0.32608 0.0
C177 C 0.05299 0.46912 0.42843 0.0
C178 C 0.12238 0.47017 0.44076 0.0
C179 C 0.0753 0.47419 0.44425 0.0
N180 N 0.08557 0.46289 0.41618 0.0
N181 N 0.12692 0.46358 0.42364 0.0
C182 C 0.00181 0.46598 0.425 0.0
H183 H 0.9936 0.4306 0.42017 0.0
H184 H 0.99218 0.49106 0.4147 0.0
H185 H 0.98069 0.47244 0.43671 0.0
C186 C 0.08462 0.55078 0.35618 0.0
N187 N 0.08197 0.5071 0.36241 0.0
N188 N 0.08323 0.50854 0.37939 0.0
C189 C 0.08684 0.55327 0.38446 0.0
C190 C 0.08825 0.58136 0.36993 0.0
C191 C 0.0814 0.56303 0.33746 0.0
H192 H 0.10756 0.54274 0.33009 0.0
H193 H 0.04643 0.55333 0.33257 0.0
H194 H 0.0872 0.60078 0.33529 0.0
O195 O 0.12856 0.4075 0.35646 0.0
O196 O 0.1262 0.40694 0.38517 0.0
H197 H 0.116 0.55373 0.40983 0.0
H198 H 0.08774 0.60758 0.40387 0.0
C199 C 0.086 0.56908 0.40286 0.0
H200 H 0.05365 0.55657 0.40912 0.0
H201 H 0.15828 0.45915 0.41705 0.0
O202 O 0.07248 0.45713 0.32566 0.0
C203 C 0.14306 0.39243 0.37096 0.0
Co204 Co 0.0496 0.08077 0.84933 0.0
Co205 Co 0.0505 0.07481 0.88984 0.0
C206 C 0.09354 0.00056 0.86912 0.0
O207 O 0.08345 0.02287 0.85541 0.0
O208 O 0.08028 0.01503 0.88386 0.0
C209 C 0.07789 0.0757 0.81522 0.0
O210 O 0.11785 0.07295 0.82341 0.0
C211 C 0.03499 0.04537 0.92583 0.0
C212 C 0.03807 0.11279 0.93955 0.0
C213 C 0.03188 0.0655 0.94209 0.0
N214 N 0.04221 0.0794 0.91422 0.0
N215 N 0.04404 0.11956 0.9225 0.0
C216 C 0.0353 0.99469 0.92134 0.0
H217 H 0.00979 0.98797 0.91088 0.0
H218 H 0.02773 0.9722 0.9326 0.0
H219 H 0.07019 0.98533 0.91631 0.0
C220 C 0.94882 0.0922 0.85569 0.0
N221 N 0.99279 0.08645 0.86127 0.0
N222 N 0.99287 0.08354 0.87823 0.0
C223 C 0.9487 0.08691 0.88394 0.0
C224 C 0.91949 0.09296 0.86988 0.0
C225 C 0.93522 0.09406 0.83707 0.0
H226 H 0.94446 0.06058 0.8308 0.0
H227 H 0.89739 0.1006 0.83548 0.0
H228 H 0.95527 0.12194 0.83052 0.0
O229 O 0.09154 0.1328 0.85501 0.0
O230 O 0.0967 0.12307 0.88343 0.0
H231 H 0.89624 0.08631 0.90404 0.0
H232 H 0.94583 0.04873 0.9076 0.0
C233 C 0.93447 0.0829 0.90246 0.0
H234 H 0.9519 0.11053 0.91007 0.0
H235 H 0.04959 0.15161 0.91651 0.0
O236 O 0.04076 0.0799 0.824 0.0
C237 C 0.1092 0.14326 0.86955 0.0
Co238 Co 0.41117 0.05043 0.35012 0.0
Co239 Co 0.41302 0.04764 0.3908 0.0
C240 C 0.4888 0.09355 0.37121 0.0
O241 O 0.46891 0.0839 0.35694 0.0
O242 O 0.47201 0.07972 0.38553 0.0
C243 C 0.44847 0.03253 0.31638 0.0
O244 O 0.4867 0.02317 0.32502 0.0
C245 C 0.4427 0.03103 0.42668 0.0
C246 C 0.37515 0.02665 0.4402 0.0
C247 C 0.42279 0.02444 0.44285 0.0
N248 N 0.40837 0.03705 0.41509 0.0
N249 N 0.36811 0.03459 0.42328 0.0
C250 C 0.49312 0.02841 0.42196 0.0
H251 H 0.49712 0.01549 0.40855 0.0
H252 H 0.51227 0.00519 0.43095 0.0
H253 H 0.50847 0.06379 0.42268 0.0
C254 C 0.40101 0.9484 0.35535 0.0
N255 N 0.40517 0.99219 0.36139 0.0
N256 N 0.40641 0.991 0.37838 0.0
C257 C 0.40354 0.94635 0.38362 0.0
C258 C 0.39958 0.91806 0.36922 0.0
C259 C 0.4008 0.93554 0.33665 0.0
H260 H 0.37775 0.95955 0.3294 0.0
H261 H 0.43658 0.93896 0.33144 0.0
H262 H 0.3889 0.89914 0.33476 0.0
O263 O 0.35875 0.09199 0.35608 0.0
O264 O 0.36385 0.09296 0.38473 0.0
H265 H 0.37792 0.94587 0.4095 0.0
H266 H 0.40577 0.89226 0.4031 0.0
C267 C 0.40707 0.93075 0.402 0.0
H268 H 0.44014 0.94356 0.40762 0.0
H269 H 0.33578 0.03799 0.41727 0.0
O270 O 0.41188 0.04375 0.32461 0.0
C271 C 0.34562 0.10723 0.37072 0.0
Co272 Co 0.55137 0.92274 0.85078 0.0
Co273 Co 0.55014 0.92923 0.89148 0.0
C274 C 0.59364 0.0036 0.87086 0.0
O275 O 0.58401 0.98138 0.85708 0.0
O276 O 0.58047 0.98868 0.88554 0.0
C277 C 0.57206 0.94342 0.81584 0.0
O278 O 0.60857 0.96251 0.82317 0.0
C279 C 0.53315 0.96101 0.92708 0.0
C280 C 0.53235 0.89445 0.94136 0.0
C281 C 0.52791 0.94214 0.9435 0.0
N282 N 0.54053 0.92606 0.91586 0.0
N283 N 0.54019 0.88641 0.9245 0.0
C284 C 0.52805 0.01085 0.92181 0.0
H285 H 0.51529 0.01316 0.90832 0.0
H286 H 0.50365 0.02943 0.93051 0.0
H287 H 0.56256 0.02808 0.92247 0.0
C288 C 0.45037 0.91115 0.8566 0.0
N289 N 0.49407 0.9169 0.86249 0.0
N290 N 0.49319 0.92047 0.87943 0.0
C291 C 0.44867 0.91761 0.88481 0.0
C292 C 0.42022 0.91121 0.87055 0.0
C293 C 0.43775 0.90891 0.83789 0.0
H294 H 0.45786 0.88064 0.83159 0.0
H295 H 0.44763 0.94213 0.83157 0.0
H296 H 0.39996 0.90272 0.83603 0.0
O297 O 0.59377 0.87125 0.857 0.0
O298 O 0.5963 0.88039 0.88552 0.0
H299 H 0.45042 0.89489 0.91107 0.0
H300 H 0.39513 0.91889 0.90451 0.0
C301 C 0.43343 0.92226 0.90319 0.0
H302 H 0.4445 0.95661 0.90825 0.0
H303 H 0.54496 0.8538 0.91884 0.0
O304 O 0.54212 0.92297 0.82526 0.0
C305 C 0.61006 0.86044 0.87175 0.0
Co306 Co 0.57804 0.54961 0.34828 0.0
Co307 Co 0.57684 0.54825 0.38902 0.0
C308 C 0.50084 0.59365 0.36937 0.0
O309 O 0.52104 0.58389 0.35519 0.0
O310 O 0.5173 0.5798 0.38376 0.0
C311 C 0.53826 0.53767 0.31467 0.0
O312 O 0.49904 0.53782 0.32337 0.0
C313 C 0.54905 0.53203 0.42524 0.0
C314 C 0.61731 0.53233 0.4384 0.0
C315 C 0.57001 0.52769 0.44134 0.0
N316 N 0.5826 0.53845 0.41336 0.0
N317 N 0.62327 0.53858 0.42133 0.0
C318 C 0.49816 0.53428 0.42117 0.0
H319 H 0.48983 0.56948 0.41618 0.0
H320 H 0.48986 0.50896 0.41081 0.0
H321 H 0.47609 0.52765 0.43262 0.0
C322 C 0.58667 0.448 0.35391 0.0
N323 N 0.58354 0.49194 0.35985 0.0
N324 N 0.58353 0.49123 0.37684 0.0
C325 C 0.58689 0.44672 0.38222 0.0
C326 C 0.58934 0.41801 0.36787 0.0
C327 C 0.58508 0.43494 0.33524 0.0
H328 H 0.61078 0.456 0.32795 0.0
H329 H 0.55 0.44291 0.33004 0.0
H330 H 0.59255 0.39738 0.33335 0.0
O331 O 0.63094 0.59101 0.35384 0.0
O332 O 0.62565 0.59349 0.38247 0.0
H333 H 0.61386 0.4477 0.40792 0.0
H334 H 0.58677 0.39327 0.40197 0.0
C335 C 0.58468 0.43169 0.40069 0.0
H336 H 0.55165 0.44405 0.40649 0.0
H337 H 0.65512 0.54328 0.4151 0.0
O338 O 0.57651 0.54119 0.32282 0.0
C339 C 0.64395 0.60707 0.36837 0.0
Co340 Co 0.94565 0.58354 0.85288 0.0
Co341 Co 0.94919 0.58364 0.89371 0.0
C342 C 0.90194 0.50763 0.87439 0.0
O343 O 0.91162 0.52676 0.86001 0.0
O344 O 0.91585 0.52504 0.8886 0.0
C345 C 0.95539 0.54299 0.8193 0.0
O346 O 0.95599 0.50417 0.82826 0.0
C347 C 0.96831 0.55269 0.92928 0.0
C348 C 0.96668 0.61918 0.94361 0.0
C349 C 0.97271 0.57168 0.94571 0.0
N350 N 0.96047 0.58751 0.91803 0.0
N351 N 0.95961 0.62713 0.92669 0.0
C352 C 0.96707 0.50232 0.92435 0.0
H353 H 0.98897 0.49664 0.91274 0.0
H354 H 0.9786 0.47922 0.93495 0.0
H355 H 0.93084 0.49282 0.92089 0.0
C356 C 0.04758 0.59084 0.85776 0.0
N357 N 0.00397 0.58836 0.86404 0.0
N358 N 0.00558 0.58921 0.88103 0.0
C359 C 0.05036 0.59277 0.88605 0.0
C360 C 0.07832 0.59412 0.87148 0.0
C361 C 0.05957 0.58881 0.83899 0.0
H362 H 0.03814 0.61441 0.8318 0.0
H363 H 0.05123 0.55364 0.83396 0.0
H364 H 0.09701 0.59617 0.83677 0.0
O365 O 0.90519 0.63707 0.8589 0.0
O366 O 0.90512 0.63391 0.88761 0.0
H367 H 0.04957 0.62058 0.91164 0.0
H368 H 0.10463 0.59507 0.90548 0.0
C369 C 0.06627 0.59173 0.90444 0.0
H370 H 0.05533 0.55847 0.91045 0.0
H371 H 0.95369 0.65958 0.92105 0.0
O372 O 0.95242 0.5816 0.82727 0.0
C373 C 0.89084 0.65161 0.8735 0.0
Co374 Co 0.91275 0.95071 0.34858 0.0
Co375 Co 0.91181 0.95147 0.38936 0.0
C376 C 0.98872 0.90616 0.36988 0.0
O377 O 0.96969 0.91649 0.35554 0.0
O378 O 0.97109 0.91944 0.38414 0.0
C379 C 0.95394 0.96497 0.3154 0.0
O380 O 0.99248 0.9663 0.32451 0.0
C381 C 0.93792 0.97202 0.42563 0.0
C382 C 0.8714 0.95807 0.43897 0.0
C383 C 0.91709 0.97126 0.44183 0.0
N384 N 0.9058 0.96011 0.41377 0.0
N385 N 0.86612 0.95203 0.42186 0.0
C386 C 0.98814 0.98089 0.42165 0.0
H387 H 0.99709 0.96906 0.40848 0.0
H388 H 0.99524 0.01875 0.42239 0.0
H389 H 0.01064 0.96314 0.43126 0.0
C390 C 0.90351 0.05229 0.35443 0.0
N391 N 0.9066 0.00826 0.36029 0.0
N392 N 0.90494 0.00866 0.37728 0.0
C393 C 0.89991 0.05298 0.3827 0.0
C394 C 0.89883 0.08199 0.36841 0.0
C395 C 0.90631 0.06574 0.3358 0.0
H396 H 0.88161 0.04433 0.32819 0.0
H397 H 0.94194 0.0586 0.33097 0.0
H398 H 0.8982 0.10317 0.33391 0.0
O399 O 0.8598 0.90871 0.35382 0.0
O400 O 0.86341 0.90642 0.3825 0.0
H401 H 0.87287 0.04691 0.40834 0.0
H402 H 0.89096 0.10518 0.40261 0.0
C403 C 0.89914 0.06763 0.40122 0.0
H404 H 0.93369 0.06085 0.40703 0.0
H405 H 0.83552 0.9417 0.41571 0.0
O406 O 0.9153 0.95966 0.32316 0.0
C407 C 0.84603 0.89269 0.36827 0.0
Co408 Co 0.5513 0.58216 0.15093 0.0
Co409 Co 0.54931 0.58568 0.11025 0.0
C410 C 0.59565 0.50782 0.12894 0.0
O411 O 0.58534 0.52553 0.14352 0.0
O412 O 0.58237 0.52669 0.11491 0.0
C413 C 0.53992 0.54051 0.1843 0.0
O414 O 0.54007 0.5017 0.17533 0.0
C415 C 0.53253 0.55671 0.07449 0.0
C416 C 0.53054 0.62403 0.06072 0.0
C417 C 0.52706 0.57638 0.05822 0.0
N418 N 0.53918 0.59112 0.08597 0.0
N419 N 0.53812 0.63126 0.07766 0.0
C420 C 0.5282 0.50652 0.07939 0.0
H421 H 0.51501 0.50333 0.0928 0.0
H422 H 0.50444 0.48792 0.07045 0.0
H423 H 0.56305 0.48997 0.07878 0.0
C424 C 0.44952 0.59019 0.14562 0.0
N425 N 0.49337 0.58823 0.13955 0.0
N426 N 0.49242 0.59048 0.12259 0.0
C427 C 0.44784 0.59443 0.11735 0.0
C428 C 0.41927 0.59452 0.13178 0.0
C429 C 0.43684 0.58688 0.16431 0.0
H430 H 0.44481 0.55131 0.16903 0.0
H431 H 0.39937 0.59432 0.16643 0.0
H432 H 0.45811 0.61184 0.17185 0.0
O433 O 0.59252 0.63567 0.14573 0.0
O434 O 0.59334 0.63514 0.11701 0.0
H435 H 0.39435 0.59708 0.0976 0.0
H436 H 0.44467 0.56208 0.09255 0.0
C437 C 0.43271 0.59455 0.09887 0.0
H438 H 0.44902 0.62438 0.0921 0.0
H439 H 0.54233 0.66362 0.08357 0.0
O440 O 0.54329 0.57916 0.17639 0.0
C441 C 0.60743 0.65136 0.13138 0.0
Co442 Co 0.91574 0.54675 0.65494 0.0
Co443 Co 0.92394 0.54438 0.61431 0.0
C444 C 0.99594 0.59093 0.63493 0.0
O445 O 0.97296 0.58182 0.64859 0.0
O446 O 0.98267 0.57599 0.62026 0.0
C447 C 0.95364 0.53572 0.6888 0.0
O448 O 0.99298 0.53505 0.68017 0.0
C449 C 0.95437 0.5291 0.57831 0.0
C450 C 0.88672 0.5227 0.56496 0.0
C451 C 0.93434 0.52189 0.56219 0.0
N452 N 0.92007 0.53406 0.58999 0.0
N453 N 0.87976 0.53043 0.58189 0.0
C454 C 0.00495 0.52809 0.58287 0.0
H455 H 0.01913 0.56395 0.5821 0.0
H456 H 0.00966 0.51531 0.59627 0.0
H457 H 0.02462 0.50551 0.57382 0.0
C458 C 0.90727 0.44495 0.64941 0.0
N459 N 0.91214 0.48876 0.64348 0.0
N460 N 0.91636 0.48769 0.62656 0.0
C461 C 0.91494 0.44307 0.62125 0.0
C462 C 0.90867 0.41467 0.63551 0.0
C463 C 0.90426 0.43233 0.6681 0.0
H464 H 0.8779 0.45457 0.67454 0.0
H465 H 0.93836 0.43911 0.67432 0.0
H466 H 0.89506 0.3951 0.66985 0.0
O467 O 0.863 0.58719 0.6484 0.0
O468 O 0.87429 0.58962 0.62 0.0
H469 H 0.89214 0.44163 0.59501 0.0
H470 H 0.92148 0.38924 0.60178 0.0
C471 C 0.9211 0.42773 0.60293 0.0
H472 H 0.95415 0.44199 0.59779 0.0
H473 H 0.84746 0.5328 0.58798 0.0
O474 O 0.91556 0.53915 0.68052 0.0
C475 C 0.85301 0.60314 0.63352 0.0
Co476 Co 0.94997 0.92232 0.15172 0.0
Co477 Co 0.95114 0.91904 0.11105 0.0
C478 C 0.90663 0.99759 0.12955 0.0
O479 O 0.91636 0.97916 0.14407 0.0
O480 O 0.92008 0.97915 0.11546 0.0
C481 C 0.96081 0.96453 0.18507 0.0
O482 O 0.95959 0.00337 0.17614 0.0
C483 C 0.96716 0.94425 0.07479 0.0
C484 C 0.96945 0.87527 0.06221 0.0
C485 C 0.97282 0.92255 0.0589 0.0
N486 N 0.96057 0.91129 0.08685 0.0
N487 N 0.96175 0.87016 0.07924 0.0
C488 C 0.97148 0.99501 0.0788 0.0
H489 H 0.98462 -8e-05 0.09215 0.0
H490 H 0.99528 0.01247 0.06956 0.0
H491 H 0.93664 0.01147 0.07788 0.0
C492 C 0.05157 0.91216 0.14614 0.0
N493 N 0.00761 0.91503 0.14021 0.0
N494 N 0.00814 0.913 0.12324 0.0
C495 C 0.0525 0.90841 0.11784 0.0
C496 C 0.08145 0.90754 0.13217 0.0
C497 C 0.06459 0.91466 0.16481 0.0
H498 H 0.04267 0.89018 0.17232 0.0
H499 H 0.0577 0.95034 0.16966 0.0
H500 H 0.10185 0.90606 0.16683 0.0
O501 O 0.90771 0.86938 0.14689 0.0
O502 O 0.90543 0.87162 0.11819 0.0
H503 H 0.05188 0.87833 0.09262 0.0
H504 H 0.10549 0.90796 0.09784 0.0
C505 C 0.06712 0.90886 0.0993 0.0
H506 H 0.05365 0.94076 0.09301 0.0
H507 H 0.95773 0.83857 0.08572 0.0
O508 O 0.95841 0.92583 0.17715 0.0
C509 C 0.89158 0.85508 0.13254 0.0
Co510 Co 0.58387 0.94386 0.65159 0.0
Co511 Co 0.58331 0.948 0.6109 0.0
C512 C 0.50674 0.90176 0.63033 0.0
O513 O 0.52598 0.9112 0.64472 0.0
O514 O 0.5243 0.91556 0.61612 0.0
C515 C 0.54861 0.95974 0.68599 0.0
O516 O 0.51009 0.97185 0.67804 0.0
C517 C 0.55346 0.96633 0.5751 0.0
C518 C 0.62087 0.9665 0.56134 0.0
C519 C 0.57339 0.97125 0.55885 0.0
N520 N 0.58776 0.95943 0.58664 0.0
N521 N 0.62792 0.95962 0.57832 0.0
C522 C 0.50285 0.96381 0.57959 0.0
H523 H 0.49448 0.92782 0.58373 0.0
H524 H 0.49554 0.98719 0.59066 0.0
H525 H 0.48009 0.97282 0.56856 0.0
C526 C 0.59309 0.04626 0.64686 0.0
N527 N 0.58982 0.00259 0.64064 0.0
N528 N 0.59007 0.00419 0.62364 0.0
C529 C 0.5937 0.04893 0.61857 0.0
C530 C 0.59596 0.07695 0.6331 0.0
C531 C 0.59208 0.05862 0.6656 0.0
H532 H 0.6146 0.03438 0.67297 0.0
H533 H 0.55595 0.05513 0.67047 0.0
H534 H 0.60392 0.09494 0.66774 0.0
O535 O 0.63611 0.90238 0.64528 0.0
O536 O 0.6327 0.90275 0.61662 0.0
H537 H 0.62062 0.04919 0.59286 0.0
H538 H 0.59339 0.10328 0.59913 0.0
C539 C 0.59142 0.06482 0.6002 0.0
H540 H 0.55839 0.05269 0.59433 0.0
H541 H 0.66015 0.95457 0.58424 0.0
O542 O 0.5841 0.94837 0.67715 0.0
C543 C 0.65019 0.88789 0.63066 0.0
C544 C 0.4237 0.99381 0.2145 0.0
C545 C 0.44359 0.0306 0.20514 0.0
C546 C 0.42583 0.99261 0.23259 0.0
C547 C 0.44807 0.02927 0.24158 0.0
C548 C 0.46885 0.06615 0.23222 0.0
C549 C 0.46656 0.06627 0.2141 0.0
C550 C 0.40363 0.95246 0.24211 0.0
C551 C 0.49261 0.10603 0.24135 0.0
C552 C 0.41119 0.05075 0.28799 0.0
C553 C 0.44815 0.03095 0.29727 0.0
C554 C 0.41093 0.05071 0.26988 0.0
C555 C 0.44822 0.02978 0.2608 0.0
C556 C 0.48539 0.00927 0.27007 0.0
C557 C 0.48507 0.01037 0.2882 0.0
C558 C 0.37087 0.07337 0.26045 0.0
C559 C 0.52544 0.98609 0.26084 0.0
H560 H 0.40607 0.96598 0.20769 0.0
H561 H 0.48202 0.09483 0.20699 0.0
H562 H 0.42942 0.9358 0.25079 0.0
H563 H 0.37478 0.96544 0.25031 0.0
H564 H 0.3896 0.92564 0.23319 0.0
H565 H 0.50813 0.1314 0.23218 0.0
H566 H 0.46716 0.12458 0.24963 0.0
H567 H 0.52049 0.09264 0.24992 0.0
H568 H 0.38265 0.06694 0.29489 0.0
H569 H 0.51365 0.99482 0.29528 0.0
H570 H 0.35311 0.04742 0.25215 0.0
H571 H 0.3841 0.10132 0.25187 0.0
H572 H 0.34486 0.08864 0.26942 0.0
H573 H 0.51222 0.95774 0.25245 0.0
H574 H 0.55137 0.97124 0.26995 0.0
H575 H 0.54327 0.01159 0.25237 0.0
C576 C 0.46391 0.41948 0.78772 0.0
C577 C 0.44149 0.45603 0.79639 0.0
C578 C 0.46726 0.41912 0.76962 0.0
C579 C 0.44795 0.45629 0.75998 0.0
C580 C 0.42588 0.49356 0.76867 0.0
C581 C 0.42284 0.49294 0.78674 0.0
C582 C 0.49088 0.37866 0.7608 0.0
C583 C 0.40504 0.53395 0.75886 0.0
C584 C 0.4888 0.47614 0.71384 0.0
C585 C 0.45203 0.45698 0.7043 0.0
C586 C 0.48801 0.4761 0.73198 0.0
C587 C 0.44984 0.45584 0.74076 0.0
C588 C 0.41285 0.43603 0.73119 0.0
C589 C 0.41423 0.43714 0.71308 0.0
C590 C 0.52779 0.49813 0.74174 0.0
C591 C 0.37176 0.41366 0.74007 0.0
H592 H 0.47846 0.39085 0.79506 0.0
H593 H 0.40553 0.5214 0.7933 0.0
H594 H 0.46585 0.3608 0.75214 0.0
H595 H 0.51995 0.39137 0.75265 0.0
H596 H 0.50481 0.35287 0.77016 0.0
H597 H 0.39032 0.56089 0.76757 0.0
H598 H 0.43189 0.55039 0.75057 0.0
H599 H 0.37696 0.52129 0.75023 0.0
H600 H 0.51805 0.49167 0.70715 0.0
H601 H 0.38583 0.42197 0.7058 0.0
H602 H 0.54402 0.4722 0.75048 0.0
H603 H 0.51455 0.52692 0.74992 0.0
H604 H 0.55502 0.51217 0.73299 0.0
H605 H 0.38391 0.38558 0.74881 0.0
H606 H 0.34649 0.39865 0.73076 0.0
H607 H 0.35344 0.43976 0.74815 0.0
C608 C 0.99175 0.45562 0.2892 0.0
C609 C 0.03361 0.46065 0.29835 0.0
C610 C 0.9909 0.45712 0.27108 0.0
C611 C 0.03288 0.46398 0.26187 0.0
C612 C 0.07515 0.46975 0.27102 0.0
C613 C 0.07502 0.46795 0.28914 0.0
C614 C 0.94515 0.45073 0.26179 0.0
C615 C 0.12062 0.47727 0.26167 0.0
C616 C 0.04 0.42265 0.21534 0.0
C617 C 0.03465 0.46441 0.20615 0.0
C618 C 0.03926 0.42201 0.23346 0.0
C619 C 0.03279 0.46412 0.24264 0.0
C620 C 0.02675 0.5063 0.23346 0.0
C621 C 0.02784 0.50596 0.21533 0.0
C622 C 0.0459 0.37632 0.24278 0.0
C623 C 0.01951 0.55185 0.2428 0.0
H624 H 0.95958 0.44991 0.29619 0.0
H625 H 0.1075 0.47205 0.29609 0.0
H626 H 0.93834 0.48096 0.25325 0.0
H627 H 0.94681 0.41937 0.25346 0.0
H628 H 0.91544 0.44683 0.27085 0.0
H629 H 0.15027 0.48224 0.27068 0.0
H630 H 0.12821 0.44692 0.25327 0.0
H631 H 0.11808 0.50827 0.25318 0.0
H632 H 0.04531 0.39036 0.20839 0.0
H633 H 0.02357 0.53837 0.20835 0.0
H634 H 0.0157 0.36939 0.25132 0.0
H635 H 0.07725 0.37815 0.25112 0.0
H636 H 0.04994 0.34658 0.23374 0.0
H637 H 0.98863 0.54944 0.25134 0.0
H638 H 0.0145 0.58147 0.23377 0.0
H639 H 0.04998 0.55937 0.25114 0.0
C640 C 0.0341 0.07318 0.78723 0.0
C641 C 0.07661 0.07397 0.79613 0.0
C642 C 0.03286 0.07178 0.76911 0.0
C643 C 0.07511 0.07147 0.7597 0.0
C644 C 0.11807 0.07198 0.76862 0.0
C645 C 0.1183 0.07308 0.78671 0.0
C646 C 0.98638 0.07103 0.76003 0.0
C647 C 0.16387 0.07199 0.75904 0.0
C648 C 0.07744 0.03143 0.71294 0.0
C649 C 0.07755 0.07403 0.70409 0.0
C650 C 0.07581 0.03 0.73106 0.0
C651 C 0.0746 0.07216 0.74051 0.0
C652 C 0.07445 0.11522 0.73164 0.0
C653 C 0.07578 0.11562 0.71355 0.0
C654 C 0.07577 0.98343 0.74008 0.0
C655 C 0.0735 0.16092 0.74127 0.0
H656 H 0.00174 0.07368 0.79442 0.0
H657 H 0.15132 0.07367 0.79347 0.0
H658 H 0.98267 0.1025 0.75185 0.0
H659 H 0.98426 0.04037 0.75136 0.0
H660 H 0.95675 0.06978 0.76922 0.0
H661 H 0.19424 0.07155 0.76791 0.0
H662 H 0.16601 0.0412 0.75044 0.0
H663 H 0.16627 0.10338 0.75075 0.0
H664 H 0.07859 0.99914 0.70572 0.0
H665 H 0.07584 0.14871 0.70683 0.0
H666 H 0.04505 0.98069 0.7487 0.0
H667 H 0.1072 0.98021 0.74831 0.0
H668 H 0.07517 0.95386 0.73085 0.0
H669 H 0.04258 0.16242 0.74983 0.0
H670 H 0.0726 0.19137 0.73244 0.0
H671 H 0.10474 0.16383 0.74962 0.0
C672 C 0.53508 0.91683 0.78822 0.0
C673 C 0.56604 0.94642 0.79689 0.0
C674 C 0.5305 0.91869 0.77016 0.0
C675 C 0.55685 0.95152 0.76064 0.0
C676 C 0.58731 0.98217 0.76939 0.0
C677 C 0.59185 0.97896 0.78738 0.0
C678 C 0.49824 0.8849 0.76125 0.0
C679 C 0.61541 0.0182 0.75974 0.0
C680 C 0.5839 0.9301 0.71332 0.0
C681 C 0.55044 0.9578 0.70507 0.0
C682 C 0.58564 0.92696 0.73138 0.0
C683 C 0.55382 0.95296 0.74146 0.0
C684 C 0.52013 0.98126 0.7332 0.0
C685 C 0.51851 0.98294 0.71508 0.0
C686 C 0.62157 0.89576 0.73968 0.0
C687 C 0.48626 0.01025 0.74351 0.0
H688 H 0.51512 0.89155 0.7955 0.0
H689 H 0.61553 0.00224 0.79401 0.0
H690 H 0.47205 0.90412 0.75352 0.0
H691 H 0.51837 0.86282 0.75218 0.0
H692 H 0.47974 0.86195 0.77053 0.0
H693 H 0.63571 0.04095 0.76855 0.0
H694 H 0.63993 0.00074 0.75078 0.0
H695 H 0.59205 0.04034 0.75182 0.0
H696 H 0.60839 0.91023 0.70564 0.0
H697 H 0.49271 0.00454 0.70875 0.0
H698 H 0.60428 0.87039 0.74837 0.0
H699 H 0.64559 0.91682 0.74771 0.0
H700 H 0.64242 0.87629 0.73 0.0
H701 H 0.46541 0.98758 0.75214 0.0
H702 H 0.46215 0.03035 0.73514 0.0
H703 H 0.50561 0.03497 0.75185 0.0
C704 C 0.57965 0.53493 0.28621 0.0
C705 C 0.53781 0.53541 0.29555 0.0
C706 C 0.57966 0.53476 0.26809 0.0
C707 C 0.53681 0.5351 0.25907 0.0
C708 C 0.49446 0.53494 0.2684 0.0
C709 C 0.49547 0.53505 0.28652 0.0
C710 C 0.62555 0.53479 0.25859 0.0
C711 C 0.44808 0.53529 0.25924 0.0
C712 C 0.53713 0.58056 0.213 0.0
C713 C 0.53751 0.53915 0.20341 0.0
C714 C 0.53653 0.57972 0.23112 0.0
C715 C 0.53632 0.53645 0.23987 0.0
C716 C 0.53618 0.49454 0.23027 0.0
C717 C 0.53673 0.49639 0.21216 0.0
C718 C 0.53659 0.62517 0.24091 0.0
C719 C 0.53593 0.44773 0.23914 0.0
H720 H 0.61254 0.5351 0.29307 0.0
H721 H 0.46296 0.53541 0.29361 0.0
H722 H 0.62739 0.5045 0.24973 0.0
H723 H 0.62843 0.56663 0.25056 0.0
H724 H 0.6558 0.53343 0.2675 0.0
H725 H 0.4183 0.5341 0.26838 0.0
H726 H 0.44496 0.56717 0.25125 0.0
H727 H 0.44557 0.50505 0.25039 0.0
H728 H 0.53764 0.61376 0.20636 0.0
H729 H 0.53703 0.46421 0.20486 0.0
H730 H 0.56806 0.62735 0.24917 0.0
H731 H 0.5059 0.62693 0.24957 0.0
H732 H 0.53599 0.65585 0.23218 0.0
H733 H 0.5674 0.44412 0.24733 0.0
H734 H 0.53509 0.41838 0.22981 0.0
H735 H 0.50526 0.44494 0.24777 0.0
C736 C 0.91214 0.53475 0.7173 0.0
C737 C 0.95396 0.53476 0.70796 0.0
C738 C 0.91218 0.53562 0.73544 0.0
C739 C 0.95505 0.53662 0.74445 0.0
C740 C 0.99736 0.5362 0.7351 0.0
C741 C 0.9963 0.53519 0.71698 0.0
C742 C 0.86633 0.53583 0.74496 0.0
C743 C 0.04378 0.53726 0.74423 0.0
C744 C 0.95595 0.58282 0.79048 0.0
C745 C 0.95648 0.54154 0.80016 0.0
C746 C 0.95557 0.58173 0.77235 0.0
C747 C 0.95569 0.53834 0.76368 0.0
C748 C 0.95652 0.49658 0.77337 0.0
C749 C 0.95696 0.49868 0.79147 0.0
C750 C 0.95483 0.62702 0.76246 0.0
C751 C 0.95668 0.44963 0.7646 0.0
H752 H 0.87926 0.53435 0.71045 0.0
H753 H 0.02882 0.53527 0.7099 0.0
H754 H 0.86455 0.50569 0.75389 0.0
H755 H 0.86345 0.5678 0.75292 0.0
H756 H 0.83605 0.5343 0.73606 0.0
H757 H 0.07353 0.53634 0.73508 0.0
H758 H 0.04652 0.56927 0.75218 0.0
H759 H 0.04671 0.50715 0.75313 0.0
H760 H 0.95561 0.61609 0.79706 0.0
H761 H 0.95731 0.46658 0.79882 0.0
H762 H 0.92329 0.62869 0.75422 0.0
H763 H 0.98544 0.62902 0.75377 0.0
H764 H 0.95511 0.65783 0.77113 0.0
H765 H 0.92524 0.44594 0.75641 0.0
H766 H 0.95749 0.42042 0.77399 0.0
H767 H 0.98738 0.44667 0.75599 0.0
C768 C 0.99866 0.97062 0.28773 0.0
C769 C 0.95572 0.9678 0.2963 0.0
C770 C 0.00104 0.97128 0.26963 0.0
C771 C 0.95949 0.96915 0.25985 0.0
C772 C 0.91601 0.96707 0.26841 0.0
C773 C 0.91464 0.96641 0.28653 0.0
C774 C 0.04806 0.97356 0.26097 0.0
C775 C 0.87093 0.9649 0.25843 0.0
C776 C 0.96075 0.00846 0.213 0.0
C777 C 0.96255 0.96581 0.20419 0.0
C778 C 0.96015 0.0101 0.23111 0.0
C779 C 0.96151 0.96811 0.24066 0.0
C780 C 0.96407 0.925 0.23186 0.0
C781 C 0.96454 0.92436 0.21374 0.0
C782 C 0.95741 0.05674 0.24004 0.0
C783 C 0.96574 0.87948 0.24159 0.0
H784 H 0.03059 0.97175 0.29516 0.0
H785 H 0.8813 0.96435 0.29303 0.0
H786 H 0.0535 0.942 0.25297 0.0
H787 H 0.04962 0.00401 0.25219 0.0
H788 H 0.07701 0.97621 0.27042 0.0
H789 H 0.83997 0.96461 0.26702 0.0
H790 H 0.86825 0.99518 0.2496 0.0
H791 H 0.87026 0.93306 0.25033 0.0
H792 H 0.95918 0.04067 0.20574 0.0
H793 H 0.96606 0.89126 0.20706 0.0
H794 H 0.98716 0.06089 0.24903 0.0
H795 H 0.92512 0.05872 0.24785 0.0
H796 H 0.95763 0.08623 0.23076 0.0
H797 H 0.99577 0.87928 0.25059 0.0
H798 H 0.96873 0.849 0.23284 0.0
H799 H 0.93379 0.87547 0.24949 0.0
C800 C 0.51836 0.03905 0.03996 0.0
C801 C 0.48111 0.06964 0.0426 0.0
C802 C 0.52644 0.01917 0.02368 0.0
C803 C 0.49678 0.0306 0.0097 0.0
C804 C 0.45973 0.06237 0.01224 0.0
C805 C 0.45252 0.08174 0.02867 0.0
C806 C 0.5666 0.9858 0.02145 0.0
C807 C 0.4274 0.07548 0.99767 0.0
C808 C 0.54053 0.00842 0.96409 0.0
C809 C 0.51894 0.966 0.96012 0.0
C810 C 0.53333 0.0301 0.98012 0.0
C811 C 0.50405 0.00868 0.99249 0.0
C812 C 0.48219 0.96584 0.98854 0.0
C813 C 0.49012 0.94491 0.97244 0.0
C814 C 0.55761 0.07556 0.98391 0.0
C815 C 0.45063 0.94195 1.00137 0.0
H816 H 0.54153 0.03105 0.05059 0.0
H817 H 0.42401 0.10585 0.0307 0.0
H818 H 0.55344 0.95136 0.0172 0.0
H819 H 0.59045 0.99867 0.01125 0.0
H820 H 0.58675 0.98104 0.03356 0.0
H821 H 0.40074 0.10128 0.00171 0.0
H822 H 0.44762 0.09027 0.98677 0.0
H823 H 0.40942 0.04397 0.99277 0.0
H824 H 0.56406 0.02413 0.95486 0.0
H825 H 0.47351 0.91201 0.96945 0.0
H826 H 0.58124 0.07124 0.99512 0.0
H827 H 0.53171 0.10256 0.98744 0.0
H828 H 0.57825 0.08828 0.97275 0.0
H829 H 0.47028 0.9337 0.01331 0.0
H830 H 0.4356 0.9092 0.99618 0.0
H831 H 0.42172 0.96554 0.00506 0.0
C832 C 0.56336 0.54684 0.47259 0.0
C833 C 0.54824 0.5206 0.45843 0.0
C834 C 0.54402 0.54013 0.48904 0.0
C835 C 0.50914 0.50592 0.49139 0.0
C836 C 0.49426 0.4788 0.47715 0.0
C837 C 0.51417 0.48636 0.46083 0.0
C838 C 0.56078 0.56975 0.50389 0.0
C839 C 0.45749 0.44168 0.47917 0.0
C840 C 0.48762 0.45984 0.53672 0.0
C841 C 0.44775 0.4847 0.54157 0.0
C842 C 0.50809 0.46648 0.52044 0.0
C843 C 0.48808 0.49865 0.50874 0.0
C844 C 0.44776 0.52377 0.51358 0.0
C845 C 0.42793 0.51626 0.52989 0.0
C846 C 0.5508 0.43869 0.51569 0.0
C847 C 0.4255 0.55851 0.5015 0.0
H848 H 0.59009 0.57301 0.47075 0.0
H849 H 0.50367 0.46491 0.45 0.0
H850 H 0.53118 0.58946 0.50947 0.0
H851 H 0.57497 0.54726 0.51427 0.0
H852 H 0.58815 0.59485 0.4999 0.0
H853 H 0.44977 0.42366 0.46681 0.0
H854 H 0.46903 0.41542 0.48876 0.0
H855 H 0.42484 0.45735 0.48413 0.0
H856 H 0.5022 0.43429 0.54546 0.0
H857 H 0.39695 0.53538 0.53358 0.0
H858 H 0.57978 0.46248 0.51228 0.0
H859 H 0.54348 0.41702 0.50415 0.0
H860 H 0.56244 0.41555 0.52633 0.0
H861 H 0.45109 0.58576 0.49791 0.0
H862 H 0.39457 0.57562 0.50731 0.0
H863 H 0.41467 0.5409 0.48941 0.0
C864 C 0.01666 0.51535 0.96421 0.0
C865 C 0.98068 0.54786 0.96237 0.0
C866 C 0.02511 0.4936 0.98016 0.0
C867 C 0.99703 0.50494 0.99459 0.0
C868 C 0.96094 0.53816 0.9928 0.0
C869 C 0.95345 0.55948 0.97673 0.0
C870 C 0.06428 0.45881 0.98159 0.0
C871 C 0.93021 0.55115 0.00786 0.0
C872 C 0.99079 0.41892 0.03184 0.0
C873 C 0.02055 0.43947 0.04398 0.0
C874 C 0.98269 0.43991 0.01575 0.0
C875 C 0.00545 0.48217 0.0116 0.0
C876 C 0.03608 0.50274 0.02372 0.0
C877 C 0.0433 0.48109 0.03976 0.0
C878 C 0.94963 0.417 0.00321 0.0
C879 C 0.06143 0.54748 0.0197 0.0
H880 H 0.03878 0.50757 0.95325 0.0
H881 H 0.92591 0.585 0.97533 0.0
H882 H 0.08981 0.47066 0.99139 0.0
H883 H 0.05054 0.42473 0.98598 0.0
H884 H 0.08273 0.45368 0.96913 0.0
H885 H 0.90344 0.57733 0.00429 0.0
H886 H 0.91241 0.51969 0.0129 0.0
H887 H 0.95168 0.56546 0.01851 0.0
H888 H 0.97332 0.3866 0.03504 0.0
H889 H 0.06753 0.49633 0.04885 0.0
H890 H 0.96798 0.40899 0.99097 0.0
H891 H 0.92074 0.44117 1.00005 0.0
H892 H 0.93461 0.38426 0.00843 0.0
H893 H 0.08326 0.54292 0.00802 0.0
H894 H 0.08406 0.55896 0.03052 0.0
H895 H 0.03602 0.57552 0.01687 0.0
C896 C 0.06216 0.98777 0.52942 0.0
C897 C 0.04101 0.01704 0.54157 0.0
C898 C 0.04177 0.98003 0.51322 0.0
C899 C -0.00053 0.00257 0.50901 0.0
C900 C 0.97807 0.03242 0.5212 0.0
C901 C 0.99918 0.03938 0.53735 0.0
C902 C 0.06555 0.94782 0.50059 0.0
C903 C 0.93319 0.05744 0.51712 0.0
C904 C 0.96999 0.01612 0.46146 0.0
C905 C 0.93834 0.97967 0.45894 0.0
C906 C 0.99001 0.02413 0.47772 0.0
C907 C 0.97785 0.99511 0.49179 0.0
C908 C 0.9454 0.95865 0.48937 0.0
C909 C 0.92583 0.95155 0.47298 0.0
C910 C 0.02411 0.0637 0.47985 0.0
C911 C 0.93165 0.9269 0.50404 0.0
H912 H 0.09462 0.9706 0.53263 0.0
H913 H 0.98349 0.06322 0.54647 0.0
H914 H 0.04169 0.91911 0.49694 0.0
H915 H 0.07433 0.96703 0.4886 0.0
H916 H 0.09799 0.93251 0.50595 0.0
H917 H 0.92068 0.0789 0.5281 0.0
H918 H 0.93816 0.0804 0.50575 0.0
H919 H 0.90574 0.03189 0.51371 0.0
H920 H 0.97842 0.03905 0.45084 0.0
H921 H 0.90116 0.92346 0.47108 0.0
H922 H 0.05812 0.05008 0.48436 0.0
H923 H 0.01134 0.08828 0.48982 0.0
H924 H 0.02969 0.08319 0.46764 0.0
H925 H 0.96286 0.90874 0.50912 0.0
H926 H 0.90568 0.90037 0.50004 0.0
H927 H 0.91681 0.94762 0.5148 0.0
C928 C 0.48941 0.5736 0.02923 0.0
C929 C 0.51893 0.55304 0.04145 0.0
C930 C 0.48167 0.5526 0.01313 0.0
C931 C 0.50443 0.51028 0.00909 0.0
C932 C 0.53468 0.48961 0.02132 0.0
C933 C 0.54168 0.51134 0.03734 0.0
C934 C 0.4491 0.57566 1.00045 0.0
C935 C 0.55994 0.44474 0.01743 0.0
C936 C 0.45346 0.43387 0.97382 0.0
C937 C 0.48138 0.44562 0.95967 0.0
C938 C 0.46047 0.45477 0.98999 0.0
C939 C 0.49669 0.48772 0.99205 0.0
C940 C 0.5255 0.49908 0.97782 0.0
C941 C 0.5176 0.47768 0.9618 0.0
C942 C 0.42905 0.44173 0.00484 0.0
C943 C 0.56476 0.53368 0.97955 0.0
H944 H 0.47197 0.60599 0.03235 0.0
H945 H 0.56578 0.49614 0.04649 0.0
H946 H 0.46793 0.58375 0.98831 0.0
H947 H 0.42031 0.55157 0.9971 0.0
H948 H 0.43392 0.60839 0.00561 0.0
H949 H 0.58189 0.43296 0.02839 0.0
H950 H 0.53451 0.41691 0.01434 0.0
H951 H 0.58245 0.4493 0.00592 0.0
H952 H 0.42573 0.40867 0.97218 0.0
H953 H 0.54023 0.4855 0.95099 0.0
H954 H 0.41097 0.47317 0.00977 0.0
H955 H 0.45002 0.42744 0.01563 0.0
H956 H 0.40248 0.41554 1.0011 0.0
H957 H 0.55093 0.56781 0.98386 0.0
H958 H 0.58386 0.53878 0.96722 0.0
H959 H 0.58974 0.52168 0.98952 0.0
C960 C 0.99665 0.53956 0.54048 0.0
C961 C 0.9571 0.51416 0.54529 0.0
C962 C 0.01695 0.53363 0.52412 0.0
C963 C 0.99714 0.50157 0.51234 0.0
C964 C 0.95727 0.47576 0.51718 0.0
C965 C 0.93755 0.48263 0.53355 0.0
C966 C 0.05916 0.56217 0.51936 0.0
C967 C 0.9353 0.44102 0.50503 0.0
C968 C 0.02064 0.51508 0.4643 0.0
C969 C 0.05489 0.4812 0.46156 0.0
C970 C 0.00174 0.52234 0.4808 0.0
C971 C 0.01776 0.49521 0.49487 0.0
C972 C 0.05295 0.46148 0.49219 0.0
C973 C 0.07133 0.45512 0.47557 0.0
C974 C 0.96466 0.55901 0.48317 0.0
C975 C 0.07087 0.43182 0.50685 0.0
H976 H 0.01105 0.565 0.5493 0.0
H977 H 0.90686 0.46305 0.53722 0.0
H978 H 0.08834 0.53891 0.51569 0.0
H979 H 0.0512 0.58423 0.50798 0.0
H980 H 0.0708 0.58499 0.5301 0.0
H981 H 0.9049 0.42312 0.51089 0.0
H982 H 0.92372 0.45886 0.49308 0.0
H983 H 0.96129 0.41439 0.5012 0.0
H984 H 0.0091 0.53637 0.45357 0.0
H985 H 0.0982 0.42924 0.47347 0.0
H986 H 0.97611 0.58488 0.49291 0.0
H987 H 0.93228 0.54275 0.48811 0.0
H988 H 0.95652 0.57757 0.47096 0.0
H989 H 0.08486 0.45429 0.51727 0.0
H990 H 0.09867 0.40746 0.50264 0.0
H991 H 0.04189 0.41127 0.51247 0.0
C992 C 0.05095 0.05599 0.97322 0.0
C993 C 0.02393 0.04301 0.95897 0.0
C994 C 0.04314 0.03628 0.98953 0.0
C995 C 0.00697 0.00331 0.99164 0.0
C996 C 0.97924 0.99047 0.9773 0.0
C997 C 0.98797 0.01065 0.96112 0.0
C998 C 0.07347 0.05081 0.0045 0.0
C999 C 0.94006 0.95579 0.97909 0.0
C1000 C 0.01192 0.92178 0.03018 0.0
C1001 C 0.98166 0.94372 0.0418 0.0
C1002 C 0.02058 0.94085 0.01382 0.0
C1003 C 0.99797 0.98256 0.00891 0.0
C1004 C 0.96687 0.00455 0.02051 0.0
C1005 C 0.95901 0.98476 0.03682 0.0
C1006 C 0.05406 0.91648 0.00182 0.0
C1007 C 0.94175 0.04882 0.01567 0.0
H1008 H 0.07849 0.0814 0.97156 0.0
H1009 H 0.96603 0.00185 0.95022 0.0
H1010 H 0.05174 0.06642 0.01483 0.0
H1011 H 0.09097 0.01988 0.01011 0.0
H1012 H 0.10048 0.07643 1.00065 0.0
H1013 H 0.92215 0.94912 0.96663 0.0
H1014 H 0.95365 0.92231 0.98414 0.0
H1015 H 0.91411 0.96879 0.98853 0.0
H1016 H 0.0293 0.88989 0.03398 0.0
H1017 H 0.9344 0.001 0.04553 0.0
H1018 H 0.08312 0.94022 0.99844 0.0
H1019 H 0.03616 0.90714 0.98962 0.0
H1020 H 0.06881 0.88432 0.00761 0.0
H1021 H 0.96731 0.07647 0.01251 0.0
H1022 H 0.91876 0.06159 0.02618 0.0
H1023 H 0.92031 0.04295 0.00396 0.0
C1024 C 0.51686 0.01348 0.53992 0.0
C1025 C 0.55049 0.97866 0.54199 0.0
C1026 C 0.49597 0.02143 0.52379 0.0
C1027 C 0.50936 0.99404 0.50942 0.0
C1028 C 0.54372 0.95914 0.51144 0.0
C1029 C 0.56412 0.95212 0.5277 0.0
C1030 C 0.45984 0.05931 0.52211 0.0
C1031 C 0.55886 0.92917 0.49645 0.0
C1032 C 0.42583 0.98528 0.47155 0.0
C1033 C 0.44581 0.01619 0.45967 0.0
C1034 C 0.44629 0.97755 0.48774 0.0
C1035 C 0.48739 0.00181 0.49226 0.0
C1036 C 0.50747 0.03345 0.48038 0.0
C1037 C 0.48638 0.0403 0.46422 0.0
C1038 C 0.42396 0.94336 0.50002 0.0
C1039 C 0.55099 0.06036 0.48479 0.0
H1040 H 0.50749 0.03509 0.55085 0.0
H1041 H 0.59051 0.92547 0.52929 0.0
H1042 H 0.47131 0.08536 0.51243 0.0
H1043 H 0.42658 0.04434 0.51742 0.0
H1044 H 0.45327 0.07743 0.53454 0.0
H1045 H 0.58586 0.9034 0.5002 0.0
H1046 H 0.52846 0.91019 0.49112 0.0
H1047 H 0.57294 0.95134 0.48596 0.0
H1048 H 0.39432 0.96675 0.46809 0.0
H1049 H 0.50111 0.06534 0.45532 0.0
H1050 H 0.41437 0.96121 0.51221 0.0
H1051 H 0.44909 0.91547 0.50337 0.0
H1052 H 0.39224 0.92706 0.49449 0.0
H1053 H 0.54487 0.08198 0.49644 0.0
H1054 H 0.56235 0.08344 0.47409 0.0
H1055 H 0.57973 0.03596 0.48789 0.0
C1056 C 0.65377 0.04651 0.13621 0.0
C1057 C 0.63258 0.08949 0.13323 0.0
C1058 C 0.70218 0.04176 0.13531 0.0
C1059 C 0.73005 0.08128 0.13162 0.0
C1060 C 0.70872 0.12518 0.12903 0.0
C1061 C 0.65994 0.12865 0.12968 0.0
C1062 C 0.72339 0.99414 0.13799 0.0
C1063 C 0.73724 0.16815 0.12536 0.0
C1064 C 0.85328 0.05345 0.14438 0.0
C1065 C 0.86997 0.03386 0.12898 0.0
C1066 C 0.80921 0.07442 0.14505 0.0
C1067 C 0.78125 0.0753 0.13001 0.0
C1068 C 0.80041 0.06115 0.11402 0.0
C1069 C 0.84485 0.04099 0.11367 0.0
C1070 C 0.79068 0.09071 0.16224 0.0
C1071 C 0.77196 0.06175 0.09764 0.0
H1072 H 0.63223 0.01634 0.13885 0.0
H1073 H 0.64312 0.16186 0.12739 0.0
H1074 H 0.74324 0.98369 0.12633 0.0
H1075 H 0.74819 0.99506 0.14896 0.0
H1076 H 0.69675 0.96708 0.14067 0.0
H1077 H 0.71589 0.20037 0.12578 0.0
H1078 H 0.76605 0.17139 0.13482 0.0
H1079 H 0.75321 0.16533 0.11237 0.0
H1080 H 0.87288 0.04902 0.15623 0.0
H1081 H 0.85767 0.02663 0.10163 0.0
H1082 H 0.76742 0.06359 0.16768 0.0
H1083 H 0.76996 0.12304 0.16075 0.0
H1084 H 0.8192 0.09715 0.17162 0.0
H1085 H 0.74678 0.03246 0.09793 0.0
H1086 H 0.79412 0.05788 0.08598 0.0
H1087 H 0.75172 0.09445 0.09653 0.0
C1088 C 0.46355 0.83923 0.61483 0.0
C1089 C 0.47042 0.86516 0.62997 0.0
C1090 C 0.44282 0.79508 0.61543 0.0
C1091 C 0.4277 0.77706 0.63149 0.0
C1092 C 0.42857 0.80579 0.64631 0.0
C1093 C 0.45029 0.84949 0.64542 0.0
C1094 C 0.4424 0.76571 0.59928 0.0
C1095 C 0.41104 0.78856 0.66352 0.0
C1096 C 0.37133 0.65723 0.63051 0.0
C1097 C 0.40958 0.62885 0.63429 0.0
C1098 C 0.37592 0.70594 0.63026 0.0
C1099 C 0.42011 0.72612 0.63335 0.0
C1100 C 0.4586 0.69719 0.63743 0.0
C1101 C 0.45267 0.64885 0.63801 0.0
C1102 C 0.33389 0.73555 0.62628 0.0
C1103 C 0.50649 0.71714 0.64063 0.0
H1104 H 0.47848 0.85117 0.60277 0.0
H1105 H 0.45462 0.8697 0.65713 0.0
H1106 H 0.47032 0.7391 0.60015 0.0
H1107 H 0.40885 0.74705 0.5979 0.0
H1108 H 0.44841 0.7869 0.58749 0.0
H1109 H 0.40491 0.81771 0.67267 0.0
H1110 H 0.37825 0.76862 0.66196 0.0
H1111 H 0.43726 0.76486 0.6693 0.0
H1112 H 0.33805 0.64126 0.62763 0.0
H1113 H 0.48209 0.62645 0.64083 0.0
H1114 H 0.33671 0.74941 0.61296 0.0
H1115 H 0.33198 0.76577 0.63516 0.0
H1116 H 0.301 0.71541 0.62727 0.0
H1117 H 0.51846 0.73646 0.62904 0.0
H1118 H 0.53257 0.68981 0.64369 0.0
H1119 H 0.50532 0.74218 0.65151 0.0
C1120 C 0.84782 0.45288 0.13738 0.0
C1121 C 0.86808 0.40985 0.13369 0.0
C1122 C 0.79959 0.45897 0.13628 0.0
C1123 C 0.77096 0.42072 0.13167 0.0
C1124 C 0.79131 0.37667 0.12845 0.0
C1125 C 0.83995 0.3719 0.12929 0.0
C1126 C 0.77945 0.50671 0.13966 0.0
C1127 C 0.76193 0.33495 0.12384 0.0
C1128 C 0.64746 0.45017 0.1436 0.0
C1129 C 0.63226 0.47156 0.12832 0.0
C1130 C 0.69102 0.4282 0.14441 0.0
C1131 C 0.72009 0.42833 0.12967 0.0
C1132 C 0.70251 0.44471 0.11372 0.0
C1133 C 0.65848 0.46571 0.11319 0.0
C1134 C 0.70783 0.40948 0.16151 0.0
C1135 C 0.73225 0.44539 0.09765 0.0
H1136 H 0.86996 0.4821 0.1407 0.0
H1137 H 0.85606 0.33863 0.12648 0.0
H1138 H 0.76057 0.5192 0.12805 0.0
H1139 H 0.75399 0.505 0.1504 0.0
H1140 H 0.80661 0.53267 0.14303 0.0
H1141 H 0.7823 0.30209 0.12414 0.0
H1142 H 0.73209 0.33171 0.13285 0.0
H1143 H 0.74744 0.33943 0.11068 0.0
H1144 H 0.62699 0.45368 0.15529 0.0
H1145 H 0.64684 0.48157 0.10125 0.0
H1146 H 0.73138 0.43529 0.1676 0.0
H1147 H 0.72781 0.37679 0.15971 0.0
H1148 H 0.67846 0.40275 0.1705 0.0
H1149 H 0.7584 0.47366 0.09877 0.0
H1150 H 0.71122 0.45164 0.08584 0.0
H1151 H 0.75144 0.41218 0.09613 0.0
C1152 C 0.05286 0.644 0.62041 0.0
C1153 C 0.03181 0.62798 0.63564 0.0
C1154 C 0.07416 0.68794 0.61979 0.0
C1155 C 0.07391 0.71642 0.6347 0.0
C1156 C 0.05812 0.69795 0.65058 0.0
C1157 C 0.03767 0.65368 0.6509 0.0
C1158 C 0.0922 0.70574 0.60273 0.0
C1159 C 0.05741 0.72698 0.66683 0.0
C1160 C 0.12836 0.83718 0.63552 0.0
C1161 C 0.08988 0.86481 0.63133 0.0
C1162 C 0.12438 0.78844 0.63618 0.0
C1163 C 0.0806 0.76749 0.63297 0.0
C1164 C 0.04176 0.79568 0.62867 0.0
C1165 C 0.04706 0.84402 0.62776 0.0
C1166 C 0.16668 0.75953 0.64046 0.0
C1167 C 0.99428 0.77489 0.62533 0.0
H1168 H 0.04944 0.62402 0.60861 0.0
H1169 H 0.02237 0.64131 0.66284 0.0
H1170 H 0.0658 0.729 0.59683 0.0
H1171 H 0.12451 0.7263 0.60454 0.0
H1172 H 0.09933 0.67685 0.59358 0.0
H1173 H 0.05193 0.70532 0.67853 0.0
H1174 H 0.09028 0.74674 0.66833 0.0
H1175 H 0.0286 0.75263 0.66599 0.0
H1176 H 0.16147 0.85374 0.63823 0.0
H1177 H 0.01746 0.86582 0.62457 0.0
H1178 H 0.17069 0.73076 0.63103 0.0
H1179 H 0.16233 0.74348 0.65338 0.0
H1180 H 0.19908 0.78061 0.64054 0.0
H1181 H 0.99613 0.74996 0.61442 0.0
H1182 H 0.96777 0.80176 0.62222 0.0
H1183 H 0.98242 0.75526 0.63686 0.0
C1184 C 0.65025 0.45281 0.86409 0.0
C1185 C 0.62984 0.41001 0.86796 0.0
C1186 C 0.6985 0.45874 0.86521 0.0
C1187 C 0.72695 0.42051 0.87002 0.0
C1188 C 0.70645 0.37654 0.87326 0.0
C1189 C 0.65781 0.37199 0.87244 0.0
C1190 C 0.71881 0.50639 0.86182 0.0
C1191 C 0.7356 0.33477 0.87802 0.0
C1192 C 0.85117 0.45011 0.85923 0.0
C1193 C 0.86535 0.47138 0.87466 0.0
C1194 C 0.8077 0.42813 0.85801 0.0
C1195 C 0.77766 0.42821 0.87248 0.0
C1196 C 0.79415 0.44454 0.8886 0.0
C1197 C 0.83813 0.46551 0.88954 0.0
C1198 C 0.79211 0.40932 0.84077 0.0
C1199 C 0.76332 0.44513 0.90438 0.0
H1200 H 0.62819 0.48209 0.86074 0.0
H1201 H 0.64154 0.33892 0.87545 0.0
H1202 H 0.737 0.51916 0.87354 0.0
H1203 H 0.74488 0.50446 0.85129 0.0
H1204 H 0.69182 0.53226 0.85815 0.0
H1205 H 0.71559 0.30181 0.87698 0.0
H1206 H 0.7668 0.33237 0.86963 0.0
H1207 H 0.74793 0.33837 0.89152 0.0
H1208 H 0.87244 0.45368 0.84774 0.0
H1209 H 0.84895 0.48138 0.90158 0.0
H1210 H 0.76886 0.43502 0.83445 0.0
H1211 H 0.77214 0.37656 0.84241 0.0
H1212 H 0.82208 0.40267 0.83206 0.0
H1213 H 0.73677 0.47293 0.90291 0.0
H1214 H 0.78341 0.45198 0.91636 0.0
H1215 H 0.74461 0.41164 0.90582 0.0
C1216 C 0.12319 0.6608 0.37045 0.0
C1217 C 0.08384 0.63229 0.3694 0.0
C1218 C 0.11869 0.70954 0.37037 0.0
C1219 C 0.07372 0.72962 0.36946 0.0
C1220 C 0.03397 0.70049 0.36836 0.0
C1221 C 0.03962 0.6521 0.36827 0.0
C1222 C 0.16178 0.73942 0.37141 0.0
C1223 C 0.98533 0.72039 0.36745 0.0
C1224 C 0.03664 0.84742 0.38569 0.0
C1225 C 0.025 0.86943 0.37009 0.0
C1226 C 0.0574 0.80322 0.38576 0.0
C1227 C 0.06712 0.78092 0.36988 0.0
C1228 C 0.06138 0.80567 0.35423 0.0
C1229 C 0.04037 0.84975 0.35452 0.0
C1230 C 0.06361 0.77834 0.40277 0.0
C1231 C 0.07236 0.7836 0.33703 0.0
H1232 H 0.15734 0.64493 0.37135 0.0
H1233 H 0.0094 0.62957 0.36753 0.0
H1234 H 0.16234 0.76476 0.36061 0.0
H1235 H 0.16144 0.75978 0.38357 0.0
H1236 H 0.19423 0.71843 0.37099 0.0
H1237 H 0.95826 0.69287 0.36666 0.0
H1238 H 0.97837 0.74201 0.37903 0.0
H1239 H 0.98197 0.74328 0.35598 0.0
H1240 H 0.0257 0.86262 0.39784 0.0
H1241 H 0.03246 0.86686 0.34239 0.0
H1242 H 0.0967 0.75851 0.403 0.0
H1243 H 0.03477 0.7531 0.40453 0.0
H1244 H 0.06323 0.80294 0.41383 0.0
H1245 H 0.10529 0.76354 0.33764 0.0
H1246 H 0.07519 0.81001 0.3266 0.0
H1247 H 0.04412 0.75898 0.33355 0.0
C1248 C 0.84662 0.04779 0.87208 0.0
C1249 C 0.8684 0.09076 0.86984 0.0
C1250 C 0.79806 0.0443 0.87205 0.0
C1251 C 0.77073 0.08505 0.86996 0.0
C1252 C 0.79278 0.1288 0.86792 0.0
C1253 C 0.84167 0.13107 0.86773 0.0
C1254 C 0.77605 0.99683 0.87412 0.0
C1255 C 0.76485 0.17296 0.86594 0.0
C1256 C 0.65211 0.04978 0.85432 0.0
C1257 C 0.63004 0.04016 0.87009 0.0
C1258 C 0.69674 0.06942 0.85389 0.0
C1259 C 0.71921 0.08061 0.8696 0.0
C1260 C 0.69419 0.07772 0.8853 0.0
C1261 C 0.6498 0.05736 0.88538 0.0
C1262 C 0.72189 0.07232 0.83682 0.0
C1263 C 0.71632 0.09082 0.90228 0.0
H1264 H 0.86777 0.01682 0.87371 0.0
H1265 H 0.85904 0.16426 0.86607 0.0
H1266 H 0.75355 0.99635 0.88576 0.0
H1267 H 0.75363 0.98903 0.86282 0.0
H1268 H 0.80234 0.96869 0.87539 0.0
H1269 H 0.78726 0.20446 0.86571 0.0
H1270 H 0.74454 0.17172 0.85377 0.0
H1271 H 0.73952 0.17629 0.87668 0.0
H1272 H 0.63665 0.03784 0.84236 0.0
H1273 H 0.63263 0.05115 0.89763 0.0
H1274 H 0.74609 0.04236 0.83567 0.0
H1275 H 0.74289 0.10458 0.83594 0.0
H1276 H 0.69734 0.0712 0.82574 0.0
H1277 H 0.73964 0.06225 0.90655 0.0
H1278 H 0.68978 0.09657 0.91249 0.0
H1279 H 0.73774 0.12274 0.90095 0.0
C1280 C 0.36501 0.83841 0.36876 0.0
C1281 C 0.4043 0.86715 0.36871 0.0
C1282 C 0.36981 0.78969 0.36874 0.0
C1283 C 0.41496 0.76987 0.36872 0.0
C1284 C 0.45465 0.79924 0.36858 0.0
C1285 C 0.44874 0.84759 0.36858 0.0
C1286 C 0.32682 0.75954 0.3689 0.0
C1287 C 0.50346 0.77963 0.36854 0.0
C1288 C 0.45106 0.65161 0.38483 0.0
C1289 C 0.46445 0.63029 0.3693 0.0
C1290 C 0.4299 0.69563 0.38484 0.0
C1291 C 0.42181 0.71858 0.36895 0.0
C1292 C 0.42949 0.69457 0.35326 0.0
C1293 C 0.45061 0.65056 0.35362 0.0
C1294 C 0.42139 0.71964 0.40188 0.0
C1295 C 0.42056 0.71741 0.33603 0.0
H1296 H 0.3307 0.85408 0.36891 0.0
H1297 H 0.47889 0.87029 0.36859 0.0
H1298 H 0.32755 0.73491 0.35788 0.0
H1299 H 0.32601 0.73838 0.38087 0.0
H1300 H 0.29431 0.78039 0.36818 0.0
H1301 H 0.53045 0.80731 0.36831 0.0
H1302 H 0.50898 0.75786 0.38019 0.0
H1303 H 0.5085 0.75694 0.3571 0.0
H1304 H 0.46081 0.636 0.39704 0.0
H1305 H 0.45988 0.63401 0.34153 0.0
H1306 H 0.38821 0.73933 0.40165 0.0
H1307 H 0.44986 0.74489 0.40432 0.0
H1308 H 0.42046 0.69448 0.41277 0.0
H1309 H 0.38745 0.73723 0.33619 0.0
H1310 H 0.41926 0.69151 0.3254 0.0
H1311 H 0.44904 0.74239 0.33323 0.0
C1312 C 0.14895 0.9455 0.88343 0.0
C1313 C 0.13056 0.96464 0.86821 0.0
C1314 C 0.19348 0.92539 0.88358 0.0
C1315 C 0.22007 0.92478 0.8682 0.0
C1316 C 0.19917 0.93822 0.85243 0.0
C1317 C 0.1544 0.95758 0.8526 0.0
C1318 C 0.21393 0.90993 0.90058 0.0
C1319 C 0.22608 0.93789 0.8357 0.0
C1320 C 0.34731 0.95637 0.87299 0.0
C1321 C 0.36912 0.91369 0.87009 0.0
C1322 C 0.29878 0.96017 0.87244 0.0
C1323 C 0.27151 0.91998 0.86916 0.0
C1324 C 0.29356 0.87648 0.86647 0.0
C1325 C 0.34242 0.87394 0.8668 0.0
C1326 C 0.27679 0.0074 0.87519 0.0
C1327 C 0.26562 0.83286 0.86327 0.0
H1328 H 0.13047 0.94981 0.89551 0.0
H1329 H 0.14021 0.97135 0.84068 0.0
H1330 H 0.23549 0.87822 0.89893 0.0
H1331 H 0.23679 0.93783 0.90569 0.0
H1332 H 0.18641 0.90281 0.9103 0.0
H1333 H 0.20271 0.94066 0.82432 0.0
H1334 H 0.25032 0.96796 0.83551 0.0
H1335 H 0.24724 0.9058 0.83446 0.0
H1336 H 0.36842 0.98692 0.87551 0.0
H1337 H 0.35979 0.84096 0.86463 0.0
H1338 H 0.25316 0.0063 0.88651 0.0
H1339 H 0.25552 0.01702 0.86378 0.0
H1340 H 0.30306 0.03515 0.87737 0.0
H1341 H 0.24072 0.8272 0.87401 0.0
H1342 H 0.28804 0.80155 0.86201 0.0
H1343 H 0.24482 0.83671 0.8513 0.0
C1344 C 0.53389 0.15493 0.38664 0.0
C1345 C 0.52501 0.1303 0.37134 0.0
C1346 C 0.55448 0.19916 0.38619 0.0
C1347 C 0.56733 0.21866 0.3701 0.0
C1348 C 0.56444 0.19124 0.35497 0.0
C1349 C 0.54303 0.14738 0.35574 0.0
C1350 C 0.5571 0.22708 0.40267 0.0
C1351 C 0.57929 0.21012 0.33764 0.0
C1352 C 0.54122 0.34715 0.36508 0.0
C1353 C 0.58498 0.36703 0.36761 0.0
C1354 C 0.53533 0.29882 0.3657 0.0
C1355 C 0.57445 0.26977 0.36868 0.0
C1356 C 0.61909 0.28987 0.37082 0.0
C1357 C 0.62375 0.33858 0.37045 0.0
C1358 C 0.487 0.27894 0.3635 0.0
C1359 C 0.66163 0.26009 0.37375 0.0
H1360 H 0.52071 0.14185 0.39883 0.0
H1361 H 0.53718 0.12821 0.34388 0.0
H1362 H 0.52849 0.25304 0.40281 0.0
H1363 H 0.55359 0.20467 0.41429 0.0
H1364 H 0.59039 0.24642 0.4035 0.0
H1365 H 0.58414 0.18186 0.32802 0.0
H1366 H 0.55214 0.23417 0.33273 0.0
H1367 H 0.61218 0.2301 0.33877 0.0
H1368 H 0.51144 0.36962 0.36295 0.0
H1369 H 0.65755 0.35448 0.37242 0.0
H1370 H 0.47711 0.25883 0.37517 0.0
H1371 H 0.48629 0.25463 0.35238 0.0
H1372 H 0.4604 0.30639 0.36132 0.0
H1373 H 0.65952 0.24337 0.38663 0.0
H1374 H 0.69432 0.28067 0.37312 0.0
H1375 H 0.66334 0.23181 0.36402 0.0
C1376 C 0.14937 0.54753 0.86645 0.0
C1377 C 0.12932 0.59013 0.87088 0.0
C1378 C 0.19768 0.54153 0.86696 0.0
C1379 C 0.22656 0.57948 0.8717 0.0
C1380 C 0.20635 0.62322 0.87557 0.0
C1381 C 0.15765 0.62785 0.87536 0.0
C1382 C 0.21768 0.49412 0.86291 0.0
C1383 C 0.23596 0.6647 0.88027 0.0
C1384 C 0.33998 0.53385 0.88916 0.0
C1385 C 0.36573 0.52914 0.87387 0.0
C1386 C 0.2958 0.55454 0.88903 0.0
C1387 C 0.27752 0.57178 0.87332 0.0
C1388 C 0.30603 0.57296 0.85843 0.0
C1389 C 0.3498 0.55131 0.85884 0.0
C1390 C 0.26667 0.55271 0.90524 0.0
C1391 C 0.28848 0.59264 0.84159 0.0
H1392 H 0.12702 0.51852 0.86306 0.0
H1393 H 0.14166 0.66078 0.87875 0.0
H1394 H 0.24257 0.49671 0.85201 0.0
H1395 H 0.23718 0.48074 0.87424 0.0
H1396 H 0.19037 0.4684 0.85945 0.0
H1397 H 0.21558 0.69757 0.88028 0.0
H1398 H 0.25093 0.65963 0.89333 0.0
H1399 H 0.26545 0.66835 0.87112 0.0
H1400 H 0.35215 0.51736 0.90091 0.0
H1401 H 0.36991 0.54876 0.84705 0.0
H1402 H 0.2403 0.52469 0.90395 0.0
H1403 H 0.24774 0.58589 0.90723 0.0
H1404 H 0.28809 0.54541 0.91687 0.0
H1405 H 0.2648 0.56712 0.8354 0.0
H1406 H 0.31746 0.60005 0.8325 0.0
H1407 H 0.26844 0.62513 0.84377 0.0
C1408 C 0.95882 0.34241 0.38909 0.0
C1409 C 0.96403 0.36916 0.37405 0.0
C1410 C 0.93805 0.29828 0.38848 0.0
C1411 C 0.92123 0.28108 0.37253 0.0
C1412 C 0.92056 0.31059 0.35791 0.0
C1413 C 0.94235 0.35424 0.35879 0.0
C1414 C 0.9394 0.26805 0.40441 0.0
C1415 C 0.90129 0.29424 0.34084 0.0
C1416 C 0.94556 0.15342 0.3644 0.0
C1417 C 0.90279 0.13306 0.36837 0.0
C1418 C 0.95161 0.20167 0.36551 0.0
C1419 C 0.91355 0.23022 0.37039 0.0
C1420 C 0.86967 0.20976 0.37384 0.0
C1421 C 0.86498 0.16109 0.37301 0.0
C1422 C 0.99918 0.2219 0.3619 0.0
C1423 C 0.82809 0.23902 0.37872 0.0
H1424 H 0.97503 0.35374 0.401 0.0
H1425 H 0.94543 0.37508 0.34718 0.0
H1426 H 0.90618 0.24897 0.40608 0.0
H1427 H 0.96749 0.24179 0.403 0.0
H1428 H 0.9463 0.28868 0.41627 0.0
H1429 H 0.89429 0.32383 0.33198 0.0
H1430 H 0.92687 0.2708 0.33455 0.0
H1431 H 0.86865 0.27425 0.34272 0.0
H1432 H 0.97467 0.13132 0.3609 0.0
H1433 H 0.83192 0.14489 0.37607 0.0
H1434 H 0.01216 0.24052 0.37349 0.0
H1435 H 0.997 0.2476 0.35124 0.0
H1436 H 0.025 0.19481 0.35829 0.0
H1437 H 0.83268 0.25259 0.39201 0.0
H1438 H 0.79518 0.21877 0.37827 0.0
H1439 H 0.82487 0.26947 0.36999 0.0
C1440 C 0.15915 0.52948 0.11333 0.0
C1441 C 0.1325 0.52729 0.1285 0.0
C1442 C 0.20312 0.55061 0.1133 0.0
C1443 C 0.2203 0.57077 0.12871 0.0
C1444 C 0.19086 0.57442 0.14328 0.0
C1445 C 0.14728 0.55238 0.14305 0.0
C1446 C 0.23322 0.54623 0.09741 0.0
C1447 C 0.20725 0.59719 0.15975 0.0
C1448 C 0.34806 0.54851 0.13728 0.0
C1449 C 0.36823 0.59039 0.13205 0.0
C1450 C 0.29983 0.54214 0.13647 0.0
C1451 C 0.27111 0.57903 0.13058 0.0
C1452 C 0.29136 0.62214 0.12587 0.0
C1453 C 0.34 0.6271 0.12644 0.0
C1454 C 0.27978 0.4954 0.14146 0.0
C1455 C 0.26189 0.66254 0.1199 0.0
H1456 H 0.14778 0.51091 0.10191 0.0
H1457 H 0.12653 0.55178 0.15473 0.0
H1458 H 0.25212 0.57911 0.09481 0.0
H1459 H 0.25961 0.51861 0.09956 0.0
H1460 H 0.21252 0.53689 0.08581 0.0
H1461 H 0.23064 0.57296 0.16676 0.0
H1462 H 0.22728 0.62932 0.15694 0.0
H1463 H 0.17767 0.60605 0.16838 0.0
H1464 H 0.37029 0.52022 0.14153 0.0
H1465 H 0.35604 0.6595 0.12243 0.0
H1466 H 0.26116 0.47997 0.13029 0.0
H1467 H 0.25412 0.49972 0.15204 0.0
H1468 H 0.30697 0.4705 0.14579 0.0
H1469 H 0.24791 0.65514 0.10685 0.0
H1470 H 0.28209 0.69547 0.11931 0.0
H1471 H 0.23172 0.66756 0.12864 0.0
C1472 C 0.94884 0.14741 0.61785 0.0
C1473 C 0.96591 0.12591 0.63283 0.0
C1474 C 0.92826 0.19167 0.61862 0.0
C1475 C 0.92481 0.21468 0.63473 0.0
C1476 C 0.93598 0.19041 0.65007 0.0
C1477 C 0.95613 0.14609 0.64894 0.0
C1478 C 0.91551 0.21586 0.60199 0.0
C1479 C 0.93228 0.21336 0.66754 0.0
C1480 C 0.95559 0.34276 0.63403 0.0
C1481 C 0.91207 0.36365 0.63596 0.0
C1482 C 0.95998 0.29426 0.63373 0.0
C1483 C 0.91961 0.26612 0.63523 0.0
C1484 C 0.87541 0.28728 0.63722 0.0
C1485 C 0.87219 0.33611 0.63764 0.0
C1486 C 0.0079 0.2732 0.63174 0.0
C1487 C 0.83167 0.25847 0.63863 0.0
H1488 H 0.95534 0.13177 0.60534 0.0
H1489 H 0.96821 0.12935 0.66066 0.0
H1490 H 0.88312 0.23645 0.60351 0.0
H1491 H 0.94378 0.24031 0.59837 0.0
H1492 H 0.91077 0.19069 0.59125 0.0
H1493 H 0.93324 0.18743 0.67818 0.0
H1494 H 0.96199 0.23761 0.66926 0.0
H1495 H 0.8998 0.23398 0.66862 0.0
H1496 H 0.98621 0.36454 0.6327 0.0
H1497 H 0.83855 0.3528 0.63901 0.0
H1498 H 0.00937 0.25189 0.61981 0.0
H1499 H 0.01546 0.24979 0.64278 0.0
H1500 H 0.03567 0.30004 0.63105 0.0
H1501 H 0.82616 0.23888 0.62647 0.0
H1502 H 0.80041 0.28018 0.64115 0.0
H1503 H 0.83514 0.23247 0.64914 0.0
C1504 C 0.15941 0.87413 0.12513 0.0
C1505 C 0.13267 0.91009 0.13223 0.0
C1506 C 0.20802 0.87826 0.12385 0.0
C1507 C 0.22981 0.91981 0.12944 0.0
C1508 C 0.20273 0.95569 0.13701 0.0
C1509 C 0.15447 0.95016 0.13843 0.0
C1510 C 0.2357 0.83887 0.11606 0.0
C1511 C 0.22447 0.00074 0.14305 0.0
C1512 C 0.35613 0.94163 0.13959 0.0
C1513 C 0.3688 0.96984 0.12555 0.0
C1514 C 0.31222 0.92033 0.14023 0.0
C1515 C 0.28035 0.92782 0.1266 0.0
C1516 C 0.2952 0.95117 0.11148 0.0
C1517 C 0.33953 0.97155 0.11107 0.0
C1518 C 0.29832 0.89411 0.1563 0.0
C1519 C 0.26247 0.95956 0.09655 0.0
H1520 H 0.14217 0.84311 0.12037 0.0
H1521 H 0.13346 0.97795 0.14382 0.0
H1522 H 0.24649 0.84841 0.10278 0.0
H1523 H 0.2678 0.83225 0.12363 0.0
H1524 H 0.21513 0.80618 0.11538 0.0
H1525 H 0.19857 0.02476 0.14888 0.0
H1526 H 0.25193 0.99352 0.15275 0.0
H1527 H 0.24127 0.01868 0.132 0.0
H1528 H 0.37894 0.9392 0.1507 0.0
H1529 H 0.34918 0.99265 0.10003 0.0
H1530 H 0.27718 0.86304 0.15301 0.0
H1531 H 0.27672 0.917 0.1646 0.0
H1532 H 0.32918 0.88286 0.16387 0.0
H1533 H 0.24286 0.9275 0.09334 0.0
H1534 H 0.28119 0.97161 0.08483 0.0
H1535 H 0.23675 0.98662 0.10025 0.0
C1536 C 0.53223 0.33675 0.61358 0.0
C1537 C 0.52742 0.36366 0.62859 0.0
C1538 C 0.55313 0.29267 0.61418 0.0
C1539 C 0.57062 0.27573 0.63007 0.0
C1540 C 0.57151 0.30534 0.64466 0.0
C1541 C 0.54944 0.34888 0.6438 0.0
C1542 C 0.55142 0.26227 0.59829 0.0
C1543 C 0.59159 0.2893 0.66164 0.0
C1544 C 0.54871 0.14758 0.63813 0.0
C1545 C 0.59146 0.12794 0.63366 0.0
C1546 C 0.54192 0.19578 0.63727 0.0
C1547 C 0.57926 0.225 0.63217 0.0
C1548 C 0.62322 0.20526 0.62832 0.0
C1549 C 0.62861 0.15664 0.62885 0.0
C1550 C 0.49427 0.21524 0.6413 0.0
C1551 C 0.66413 0.23523 0.62326 0.0
H1552 H 0.5157 0.34798 0.60171 0.0
H1553 H 0.54662 0.36984 0.6554 0.0
H1554 H 0.58496 0.24396 0.59636 0.0
H1555 H 0.52408 0.23536 0.6 0.0
H1556 H 0.54327 0.28259 0.58647 0.0
H1557 H 0.59856 0.31902 0.67044 0.0
H1558 H 0.56653 0.2656 0.66808 0.0
H1559 H 0.62439 0.26968 0.65961 0.0
H1560 H 0.52011 0.12496 0.64175 0.0
H1561 H 0.66166 0.14099 0.6254 0.0
H1562 H 0.48034 0.23378 0.62984 0.0
H1563 H 0.49665 0.24086 0.65196 0.0
H1564 H 0.4691 0.18771 0.64507 0.0
H1565 H 0.65896 0.2486 0.60997 0.0
H1566 H 0.6974 0.21555 0.62361 0.0
H1567 H 0.66704 0.26579 0.63195 0.0
C1568 C 0.15235 0.2791 0.12572 0.0
C1569 C 0.14635 0.31553 0.13753 0.0
C1570 C 0.19219 0.25085 0.12631 0.0
C1571 C 0.22736 0.26031 0.13864 0.0
C1572 C 0.22116 0.2967 0.15071 0.0
C1573 C 0.18041 0.32345 0.15016 0.0
C1574 C 0.19704 0.21145 0.11354 0.0
C1575 C 0.25836 0.30858 0.16376 0.0
C1576 C 0.31655 0.16699 0.14884 0.0
C1577 C 0.35291 0.17885 0.1376 0.0
C1578 C 0.27539 0.19314 0.14929 0.0
C1579 C 0.27117 0.23289 0.13863 0.0
C1580 C 0.30857 0.24611 0.12776 0.0
C1581 C 0.34876 0.2184 0.12715 0.0
C1582 C 0.23581 0.17722 0.16068 0.0
C1583 C 0.30584 0.28909 0.11659 0.0
H1584 H 0.12605 0.27294 0.11595 0.0
H1585 H 0.17625 0.35206 0.15915 0.0
H1586 H 0.22664 0.21842 0.10473 0.0
H1587 H 0.20472 0.17845 0.12042 0.0
H1588 H 0.16512 0.20658 0.10565 0.0
H1589 H 0.24777 0.33748 0.17244 0.0
H1590 H 0.26671 0.27768 0.17177 0.0
H1591 H 0.29077 0.31883 0.15696 0.0
H1592 H 0.31937 0.13589 0.1567 0.0
H1593 H 0.37686 0.22748 0.11844 0.0
H1594 H 0.20486 0.16935 0.15262 0.0
H1595 H 0.22575 0.20534 0.16974 0.0
H1596 H 0.24484 0.14569 0.16827 0.0
H1597 H 0.27791 0.28489 0.10683 0.0
H1598 H 0.33908 0.2962 0.10976 0.0
H1599 H 0.29679 0.31984 0.12458 0.0
C1600 C 0.2168 0.14904 0.63861 0.0
C1601 C 0.17566 0.14696 0.629 0.0
C1602 C 0.24439 0.18937 0.63846 0.0
C1603 C 0.22919 0.2289 0.62907 0.0
C1604 C 0.18716 0.22706 0.61959 0.0
C1605 C 0.16134 0.18573 0.61941 0.0
C1606 C 0.2898 0.18963 0.64826 0.0
C1607 C 0.16898 0.26896 0.60993 0.0
C1608 C 0.28151 0.34498 0.64221 0.0
C1609 C 0.31407 0.35211 0.62902 0.0
C1610 C 0.25258 0.30561 0.64213 0.0
C1611 C 0.25767 0.27198 0.62889 0.0
C1612 C 0.29035 0.27923 0.61551 0.0
C1613 C 0.31764 0.3196 0.61559 0.0
C1614 C 0.21696 0.29974 0.65629 0.0
C1615 C 0.29762 0.24362 0.60142 0.0
H1616 H 0.22757 0.11899 0.64608 0.0
H1617 H 0.12889 0.1843 0.61228 0.0
H1618 H 0.31881 0.19877 0.63943 0.0
H1619 H 0.28879 0.2165 0.65852 0.0
H1620 H 0.29747 0.15542 0.65431 0.0
H1621 H 0.1346 0.2623 0.60385 0.0
H1622 H 0.16555 0.29895 0.61887 0.0
H1623 H 0.19394 0.27924 0.5997 0.0
H1624 H 0.27879 0.37013 0.65259 0.0
H1625 H 0.34334 0.32466 0.60552 0.0
H1626 H 0.22556 0.26872 0.66419 0.0
H1627 H 0.182 0.29381 0.65061 0.0
H1628 H 0.21525 0.33055 0.66493 0.0
H1629 H 0.30798 0.20983 0.60721 0.0
H1630 H 0.32483 0.25439 0.59205 0.0
H1631 H 0.26468 0.23774 0.59429 0.0
C1632 C 0.34615 0.28412 0.85674 0.0
C1633 C 0.35247 0.3162 0.87014 0.0
C1634 C 0.30716 0.25465 0.85651 0.0
C1635 C 0.2731 0.25876 0.86965 0.0
C1636 C 0.27934 0.29129 0.88315 0.0
C1637 C 0.31933 0.31907 0.88338 0.0
C1638 C 0.30234 0.21923 0.84224 0.0
C1639 C 0.24322 0.29759 0.89713 0.0
C1640 C 0.15095 0.21515 0.86024 0.0
C1641 C 0.14982 0.17423 0.87002 0.0
C1642 C 0.19082 0.24338 0.86012 0.0
C1643 C 0.23086 0.22908 0.8694 0.0
C1644 C 0.23007 0.18711 0.87895 0.0
C1645 C 0.18919 0.16064 0.87941 0.0
C1646 C 0.18995 0.28869 0.85025 0.0
C1647 C 0.27252 0.16988 0.88852 0.0
H1648 H 0.37179 0.28195 0.84651 0.0
H1649 H 0.32375 0.34445 0.8936 0.0
H1650 H 0.29776 0.18394 0.84781 0.0
H1651 H 0.2709 0.22688 0.83443 0.0
H1652 H 0.33306 0.21882 0.83353 0.0
H1653 H 0.25281 0.32541 0.90644 0.0
H1654 H 0.20915 0.30652 0.89125 0.0
H1655 H 0.23851 0.26462 0.90436 0.0
H1656 H 0.12044 0.22531 0.85292 0.0
H1657 H 0.18849 0.12834 0.88666 0.0
H1658 H 0.21716 0.28848 0.84011 0.0
H1659 H 0.19789 0.31803 0.85909 0.0
H1660 H 0.15571 0.29524 0.84406 0.0
H1661 H 0.30272 0.16802 0.87962 0.0
H1662 H 0.26703 0.13495 0.89433 0.0
H1663 H 0.28174 0.19462 0.89896 0.0
C1664 C 0.32432 0.18451 0.38242 0.0
C1665 C 0.31394 0.1474 0.37134 0.0
C1666 C 0.29791 0.22547 0.38212 0.0
C1667 C 0.25916 0.22861 0.37091 0.0
C1668 C 0.24778 0.19068 0.36001 0.0
C1669 C 0.27601 0.15077 0.36009 0.0
C1670 C 0.31205 0.26568 0.39353 0.0
C1671 C 0.20573 0.19221 0.34834 0.0
C1672 C 0.16717 0.31675 0.3834 0.0
C1673 C 0.17492 0.35231 0.37135 0.0
C1674 C 0.19374 0.27592 0.38315 0.0
C1675 C 0.23003 0.27129 0.37094 0.0
C1676 C 0.23883 0.30764 0.35901 0.0
C1677 C 0.21044 0.34745 0.35913 0.0
C1678 C 0.18235 0.23738 0.39573 0.0
C1679 C 0.27828 0.30452 0.34619 0.0
H1680 H 0.35431 0.1822 0.39088 0.0
H1681 H 0.26825 0.12204 0.35149 0.0
H1682 H 0.3177 0.2973 0.38558 0.0
H1683 H 0.28382 0.27372 0.40282 0.0
H1684 H 0.34438 0.2583 0.40091 0.0
H1685 H 0.20068 0.1591 0.34117 0.0
H1686 H 0.17399 0.19935 0.35606 0.0
H1687 H 0.20937 0.22093 0.33887 0.0
H1688 H 0.13905 0.32012 0.39265 0.0
H1689 H 0.21625 0.37497 0.34979 0.0
H1690 H 0.21257 0.23064 0.40427 0.0
H1691 H 0.17508 0.20468 0.3886 0.0
H1692 H 0.15174 0.24578 0.40392 0.0
H1693 H 0.31158 0.29842 0.35309 0.0
H1694 H 0.28165 0.33661 0.33829 0.0
H1695 H 0.27274 0.27455 0.33742 0.0
C1696 C 0.65279 0.78923 0.8622 0.0
C1697 C 0.65017 0.82871 0.87272 0.0
C1698 C 0.69229 0.76043 0.86255 0.0
C1699 C 0.73058 0.77269 0.87315 0.0
C1700 C 0.72824 0.81302 0.8836 0.0
C1701 C 0.68768 0.84007 0.88349 0.0
C1702 C 0.69297 0.71685 0.85167 0.0
C1703 C 0.76888 0.8281 0.89462 0.0
C1704 C 0.81721 0.67998 0.88654 0.0
C1705 C 0.85212 0.68523 0.87405 0.0
C1706 C 0.77725 0.7079 0.88627 0.0
C1707 C 0.77287 0.74297 0.87355 0.0
C1708 C 0.80879 0.74951 0.86126 0.0
C1709 C 0.84767 0.71988 0.86145 0.0
C1710 C 0.73914 0.69895 0.89929 0.0
C1711 C 0.80601 0.78761 0.84787 0.0
H1712 H 0.62375 0.78065 0.85385 0.0
H1713 H 0.68593 0.87119 0.89138 0.0
H1714 H 0.7215 0.71884 0.84207 0.0
H1715 H 0.69987 0.68608 0.85995 0.0
H1716 H 0.65964 0.71131 0.84471 0.0
H1717 H 0.76209 0.86146 0.90142 0.0
H1718 H 0.77678 0.80101 0.90439 0.0
H1719 H 0.80038 0.83227 0.88648 0.0
H1720 H 0.82023 0.65262 0.89612 0.0
H1721 H 0.87468 0.72387 0.85179 0.0
H1722 H 0.70614 0.69082 0.89249 0.0
H1723 H 0.73294 0.73058 0.90716 0.0
H1724 H 0.74761 0.66965 0.9081 0.0
H1725 H 0.77599 0.78137 0.83919 0.0
H1726 H 0.8381 0.78982 0.83991 0.0
H1727 H 0.80023 0.82171 0.85425 0.0
C1728 C 0.82461 0.81525 0.37979 0.0
C1729 C 0.81475 0.85215 0.36853 0.0
C1730 C 0.79827 0.77429 0.37944 0.0
C1731 C 0.76008 0.77087 0.368 0.0
C1732 C 0.74933 0.80847 0.35684 0.0
C1733 C 0.77751 0.84844 0.35698 0.0
C1734 C 0.81178 0.73443 0.39115 0.0
C1735 C 0.70791 0.8066 0.34487 0.0
C1736 C 0.71195 0.65145 0.35675 0.0
C1737 C 0.67586 0.64716 0.36878 0.0
C1738 C 0.74023 0.69132 0.35649 0.0
C1739 C 0.73082 0.72828 0.36809 0.0
C1740 C 0.694 0.72421 0.38012 0.0
C1741 C 0.66749 0.68334 0.38051 0.0
C1742 C 0.78023 0.69384 0.34389 0.0
C1743 C 0.68203 0.76335 0.39236 0.0
H1744 H 0.85408 0.81779 0.38848 0.0
H1745 H 0.77012 0.877 0.34825 0.0
H1746 H 0.7832 0.72699 0.40036 0.0
H1747 H 0.81747 0.70244 0.3834 0.0
H1748 H 0.84391 0.74188 0.39862 0.0
H1749 H 0.7035 0.83932 0.33741 0.0
H1750 H 0.7118 0.7773 0.33567 0.0
H1751 H 0.67572 0.80015 0.35242 0.0
H1752 H 0.71824 0.62348 0.34765 0.0
H1753 H 0.63895 0.68041 0.3896 0.0
H1754 H 0.81325 0.70008 0.35095 0.0
H1755 H 0.77517 0.7235 0.33493 0.0
H1756 H 0.78385 0.66145 0.33618 0.0
H1757 H 0.71182 0.77039 0.40107 0.0
H1758 H 0.65097 0.75539 0.40037 0.0
H1759 H 0.67523 0.79574 0.38497 0.0
C1760 C 0.68215 0.67871 0.11904 0.0
C1761 C 0.64689 0.68407 0.13137 0.0
C1762 C 0.72261 0.70577 0.11969 0.0
C1763 C 0.72718 0.74013 0.13266 0.0
C1764 C 0.69109 0.7466 0.14489 0.0
C1765 C 0.65164 0.71777 0.1443 0.0
C1766 C 0.76085 0.69695 0.10671 0.0
C1767 C 0.69409 0.78403 0.15851 0.0
C1768 C 0.84814 0.78545 0.14326 0.0
C1769 C 0.85064 0.82446 0.1325 0.0
C1770 C 0.80815 0.75731 0.14339 0.0
C1771 C 0.76937 0.7699 0.13307 0.0
C1772 C 0.77148 0.81012 0.12257 0.0
C1773 C 0.81246 0.8364 0.12217 0.0
C1774 C 0.80764 0.7138 0.15431 0.0
C1775 C 0.73039 0.82559 0.11184 0.0
H1776 H 0.6789 0.652 0.10922 0.0
H1777 H 0.62438 0.72175 0.15386 0.0
H1778 H 0.76667 0.72851 0.09876 0.0
H1779 H 0.79396 0.68927 0.11352 0.0
H1780 H 0.75268 0.66744 0.09796 0.0
H1781 H 0.66229 0.78563 0.16665 0.0
H1782 H 0.72451 0.77766 0.16699 0.0
H1783 H 0.69935 0.81846 0.15231 0.0
H1784 H 0.87774 0.77653 0.15129 0.0
H1785 H 0.81419 0.86726 0.11413 0.0
H1786 H 0.80128 0.68296 0.14601 0.0
H1787 H 0.77882 0.71546 0.16381 0.0
H1788 H 0.84085 0.7086 0.16139 0.0
H1789 H 0.72263 0.79914 0.10182 0.0
H1790 H 0.73667 0.8595 0.10535 0.0
H1791 H 0.699 0.82882 0.1201 0.0
C1792 C 0.83237 0.67956 0.62083 0.0
C1793 C 0.8212 0.64312 0.63213 0.0
C1794 C 0.8058 0.72039 0.62043 0.0
C1795 C 0.76613 0.72412 0.63115 0.0
C1796 C 0.75384 0.6868 0.64221 0.0
C1797 C 0.78216 0.64699 0.64283 0.0
C1798 C 0.82088 0.75997 0.60887 0.0
C1799 C 0.71089 0.689 0.65341 0.0
C1800 C 0.71779 0.84334 0.6424 0.0
C1801 C 0.68257 0.84822 0.63005 0.0
C1802 C 0.74608 0.8035 0.64266 0.0
C1803 C 0.73754 0.76714 0.63072 0.0
C1804 C 0.70183 0.77193 0.61828 0.0
C1805 C 0.67529 0.81281 0.61791 0.0
C1806 C 0.78492 0.80024 0.65573 0.0
C1807 C 0.69079 0.73337 0.60568 0.0
H1808 H 0.86314 0.67692 0.61278 0.0
H1809 H 0.77368 0.61878 0.65158 0.0
H1810 H 0.79309 0.76813 0.59941 0.0
H1811 H 0.82673 0.79177 0.6167 0.0
H1812 H 0.85335 0.75188 0.60169 0.0
H1813 H 0.70486 0.65605 0.66057 0.0
H1814 H 0.7142 0.71776 0.66287 0.0
H1815 H 0.67985 0.69649 0.64534 0.0
H1816 H 0.72325 0.87074 0.6518 0.0
H1817 H 0.64742 0.81622 0.60856 0.0
H1818 H 0.81842 0.79322 0.64909 0.0
H1819 H 0.7784 0.77079 0.66466 0.0
H1820 H 0.78855 0.8326 0.66346 0.0
H1821 H 0.72163 0.72571 0.59756 0.0
H1822 H 0.66115 0.74225 0.59707 0.0
H1823 H 0.68212 0.70104 0.61283 0.0
loop_
_geom_bond_atom_site_label_1
_geom_bond_atom_site_label_2
_geom_bond_distance
_geom_bond_site_symmetry_2
_ccdc_geom_bond_type
Co0 O3 1.970 . S
Co0 N17 1.989 . S
Co0 O25 1.967 . S
Co0 O32 1.920 . S
Co1 O4 1.966 . S
Co1 N10 2.022 . S
Co1 N18 1.993 . S
Co1 O26 1.941 . S
C2 O3 1.258 . S
C2 O4 1.263 . S
O3 Co0 1.970 . S
O3 C2 1.258 . S
O4 Co1 1.966 . S
O4 C2 1.263 . S
C5 O6 1.235 . S
C5 O32 1.289 . S
O6 C5 1.235 . S
C7 C9 1.400 . S
C7 N10 1.351 . S
C7 C12 1.501 1_545 S
C8 C9 1.387 . S
C8 N11 1.341 . S
C9 C7 1.400 . S
C9 C8 1.387 . S
N10 Co1 2.022 . S
N10 C7 1.351 . S
N10 N11 1.365 . S
N11 C8 1.341 . S
N11 N10 1.365 . S
N11 H31 0.862 . S
C12 C7 1.501 1_565 S
C12 H13 0.961 1_565 S
C12 H14 0.961 . S
C12 H15 0.960 . S
H13 C12 0.961 1_545 S
H14 C12 0.961 . S
H15 C12 0.960 . S
C16 N17 1.342 . S
C16 C20 1.401 . S
C16 C21 1.499 . S
N17 Co0 1.989 . S
N17 C16 1.342 . S
N17 N18 1.388 . S
N18 Co1 1.993 . S
N18 N17 1.388 . S
N18 C19 1.346 . S
C19 N18 1.346 . S
C19 C20 1.396 . S
C19 C29 1.510 . S
C20 C16 1.401 . S
C20 C19 1.396 . S
C21 C16 1.499 . S
C21 H22 0.959 . S
C21 H23 0.960 . S
C21 H24 0.961 . S
H22 C21 0.959 . S
H23 C21 0.960 . S
H24 C21 0.961 . S
O25 Co0 1.967 . S
O25 C33 1.258 . S
O26 Co1 1.941 . S
O26 C33 1.266 . S
H27 C29 0.959 . S
H28 C29 0.961 . S
C29 C19 1.510 . S
C29 H27 0.959 . S
C29 H28 0.961 . S
C29 H30 0.960 . S
H30 C29 0.960 . S
H31 N11 0.862 . S
O32 Co0 1.920 . S
O32 C5 1.289 . S
C33 O25 1.258 . S
C33 O26 1.266 . S
Co34 O37 1.970 . S
Co34 N51 1.989 . S
Co34 O59 1.967 . S
Co34 O66 1.920 . S
Co35 O38 1.966 . S
Co35 N44 2.022 . S
Co35 N52 1.993 . S
Co35 O60 1.941 . S
C36 O37 1.258 . S
C36 O38 1.263 . S
O37 Co34 1.970 . S
O37 C36 1.258 . S
O38 Co35 1.966 . S
O38 C36 1.263 . S
C39 O40 1.235 . S
C39 O66 1.289 . S
O40 C39 1.235 . S
C41 C43 1.400 . S
C41 N44 1.351 . S
C41 C46 1.501 . S
C42 C43 1.387 . S
C42 N45 1.341 . S
C43 C41 1.400 . S
C43 C42 1.387 . S
N44 Co35 2.022 . S
N44 C41 1.351 . S
N44 N45 1.365 . S
N45 C42 1.341 . S
N45 N44 1.365 . S
N45 H65 0.862 . S
C46 C41 1.501 . S
C46 H47 0.961 . S
C46 H48 0.961 . S
C46 H49 0.960 . S
H47 C46 0.961 . S
H48 C46 0.961 . S
H49 C46 0.960 . S
C50 N51 1.342 . S
C50 C54 1.401 . S
C50 C55 1.499 . S
N51 Co34 1.989 . S
N51 C50 1.342 . S
N51 N52 1.388 . S
N52 Co35 1.993 . S
N52 N51 1.388 . S
N52 C53 1.346 . S
C53 N52 1.346 . S
C53 C54 1.396 . S
C53 C63 1.510 . S
C54 C50 1.401 . S
C54 C53 1.396 . S
C55 C50 1.499 . S
C55 H56 0.959 . S
C55 H57 0.960 . S
C55 H58 0.961 . S
H56 C55 0.959 . S
H57 C55 0.960 . S
H58 C55 0.961 . S
O59 Co34 1.967 . S
O59 C67 1.258 . S
O60 Co35 1.941 . S
O60 C67 1.266 . S
H61 C63 0.959 . S
H62 C63 0.961 . S
C63 C53 1.510 . S
C63 H61 0.959 . S
C63 H62 0.961 . S
C63 H64 0.960 . S
H64 C63 0.960 . S
H65 N45 0.862 . S
O66 Co34 1.920 . S
O66 C39 1.289 . S
C67 O59 1.258 . S
C67 O60 1.266 . S
Co68 O71 1.970 . S
Co68 N85 1.989 . S
Co68 O93 1.967 . S
Co68 O100 1.920 . S
Co69 O72 1.966 . S
Co69 N78 2.022 . S
Co69 N86 1.993 . S
Co69 O94 1.941 . S
C70 O71 1.258 . S
C70 O72 1.263 . S
O71 Co68 1.970 . S
O71 C70 1.258 . S
O72 Co69 1.966 . S
O72 C70 1.263 . S
C73 O74 1.235 . S
C73 O100 1.289 . S
O74 C73 1.235 . S
C75 C77 1.400 . S
C75 N78 1.351 . S
C75 C80 1.501 . S
C76 C77 1.387 . S
C76 N79 1.341 . S
C77 C75 1.400 . S
C77 C76 1.387 . S
N78 Co69 2.022 . S
N78 C75 1.351 . S
N78 N79 1.365 . S
N79 C76 1.341 . S
N79 N78 1.365 . S
N79 H99 0.862 . S
C80 C75 1.501 . S
C80 H81 0.961 . S
C80 H82 0.961 . S
C80 H83 0.960 . S
H81 C80 0.961 . S
H82 C80 0.961 . S
H83 C80 0.960 . S
C84 N85 1.342 1_655 S
C84 C88 1.401 . S
C84 C89 1.499 . S
N85 Co68 1.989 . S
N85 C84 1.342 1_455 S
N85 N86 1.388 . S
N86 Co69 1.993 . S
N86 N85 1.388 . S
N86 C87 1.346 1_455 S
C87 N86 1.346 1_655 S
C87 C88 1.396 . S
C87 C97 1.510 . S
C88 C84 1.401 . S
C88 C87 1.396 . S
C89 C84 1.499 . S
C89 H90 0.938 1_655 S
C89 H91 0.960 . S
C89 H92 0.961 . S
H90 C89 0.938 1_455 S
H91 C89 0.960 . S
H92 C89 0.961 . S
O93 Co68 1.967 . S
O93 C101 1.258 . S
O94 Co69 1.941 . S
O94 C101 1.266 . S
H95 C97 0.959 . S
H96 C97 0.961 . S
C97 C87 1.510 . S
C97 H95 0.959 . S
C97 H96 0.961 . S
C97 H98 0.960 . S
H98 C97 0.960 . S
H99 N79 0.862 . S
O100 Co68 1.920 . S
O100 C73 1.289 . S
C101 O93 1.258 . S
C101 O94 1.266 . S
Co102 O105 1.970 . S
Co102 N119 1.989 . S
Co102 O127 1.967 . S
Co102 O134 1.920 . S
Co103 O106 1.966 . S
Co103 N112 2.022 . S
Co103 N120 1.993 . S
Co103 O128 1.941 . S
C104 O105 1.258 . S
C104 O106 1.263 . S
O105 Co102 1.970 . S
O105 C104 1.258 . S
O106 Co103 1.966 . S
O106 C104 1.263 . S
C107 O108 1.235 . S
C107 O134 1.289 . S
O108 C107 1.235 . S
C109 C111 1.400 . S
C109 N112 1.351 . S
C109 C114 1.501 1_455 S
C110 C111 1.387 . S
C110 N113 1.341 . S
C111 C109 1.400 . S
C111 C110 1.387 . S
N112 Co103 2.022 . S
N112 C109 1.351 . S
N112 N113 1.365 . S
N113 C110 1.341 . S
N113 N112 1.365 . S
N113 H133 0.862 . S
C114 C109 1.501 1_655 S
C114 H115 0.961 1_655 S
C114 H116 0.961 . S
C114 H117 0.960 . S
H115 C114 0.961 1_455 S
H116 C114 0.961 . S
H117 C114 0.960 . S
C118 N119 1.342 1_565 S
C118 C122 1.401 . S
C118 C123 1.499 . S
N119 Co102 1.989 . S
N119 C118 1.342 1_545 S
N119 N120 1.388 . S
N120 Co103 1.993 . S
N120 N119 1.388 . S
N120 C121 1.346 1_545 S
C121 N120 1.346 1_565 S
C121 C122 1.396 . S
C121 C131 1.510 . S
C122 C118 1.401 . S
C122 C121 1.396 . S
C123 C118 1.499 . S
C123 H124 0.938 1_565 S
C123 H125 0.960 . S
C123 H126 0.961 . S
H124 C123 0.938 1_545 S
H125 C123 0.960 . S
H126 C123 0.961 . S
O127 Co102 1.967 . S
O127 C135 1.258 . S
O128 Co103 1.941 . S
O128 C135 1.266 . S
H129 C131 0.959 . S
H130 C131 0.961 . S
C131 C121 1.510 . S
C131 H129 0.959 . S
C131 H130 0.961 . S
C131 H132 0.960 . S
H132 C131 0.960 . S
H133 N113 0.862 . S
O134 Co102 1.920 . S
O134 C107 1.289 . S
C135 O127 1.258 . S
C135 O128 1.266 . S
Co136 O139 1.970 . S
Co136 N153 1.989 . S
Co136 O161 1.967 . S
Co136 O168 1.920 . S
Co137 O140 1.966 . S
Co137 N146 2.022 . S
Co137 N154 1.993 . S
Co137 O162 1.941 . S
C138 O139 1.258 . S
C138 O140 1.263 . S
O139 Co136 1.970 . S
O139 C138 1.258 . S
O140 Co137 1.966 . S
O140 C138 1.263 . S
C141 O142 1.235 . S
C141 O168 1.289 . S
O142 C141 1.235 . S
C143 C145 1.400 . S
C143 N146 1.351 . S
C143 C148 1.501 . S
C144 C145 1.387 . S
C144 N147 1.341 . S
C145 C143 1.400 . S
C145 C144 1.387 . S
N146 Co137 2.022 . S
N146 C143 1.351 . S
N146 N147 1.365 . S
N147 C144 1.341 . S
N147 N146 1.365 . S
N147 H167 0.862 . S
C148 C143 1.501 . S
C148 H149 0.961 . S
C148 H150 0.961 . S
C148 H151 0.960 . S
H149 C148 0.961 . S
H150 C148 0.961 . S
H151 C148 0.960 . S
C152 N153 1.342 . S
C152 C156 1.401 . S
C152 C157 1.499 . S
N153 Co136 1.989 . S
N153 C152 1.342 . S
N153 N154 1.388 . S
N154 Co137 1.993 . S
N154 N153 1.388 . S
N154 C155 1.346 . S
C155 N154 1.346 . S
C155 C156 1.396 . S
C155 C165 1.510 . S
C156 C152 1.401 . S
C156 C155 1.396 . S
C157 C152 1.499 . S
C157 H158 0.959 . S
C157 H159 0.960 . S
C157 H160 0.961 . S
H158 C157 0.959 . S
H159 C157 0.960 . S
H160 C157 0.961 . S
O161 Co136 1.967 . S
O161 C169 1.258 . S
O162 Co137 1.941 . S
O162 C169 1.266 . S
H163 C165 0.959 . S
H164 C165 0.961 . S
C165 C155 1.510 . S
C165 H163 0.959 . S
C165 H164 0.961 . S
C165 H166 0.960 . S
H166 C165 0.960 . S
H167 N147 0.862 . S
O168 Co136 1.920 . S
O168 C141 1.289 . S
C169 O161 1.258 . S
C169 O162 1.266 . S
Co170 O173 1.970 . S
Co170 N187 1.989 . S
Co170 O195 1.967 . S
Co170 O202 1.920 . S
Co171 O174 1.966 . S
Co171 N180 2.022 . S
Co171 N188 1.993 . S
Co171 O196 1.941 . S
C172 O173 1.258 . S
C172 O174 1.263 . S
O173 Co170 1.970 . S
O173 C172 1.258 . S
O174 Co171 1.966 . S
O174 C172 1.263 . S
C175 O176 1.235 . S
C175 O202 1.289 . S
O176 C175 1.235 . S
C177 C179 1.400 . S
C177 N180 1.351 . S
C177 C182 1.501 1_455 S
C178 C179 1.387 . S
C178 N181 1.341 . S
C179 C177 1.400 . S
C179 C178 1.387 . S
N180 Co171 2.022 . S
N180 C177 1.351 . S
N180 N181 1.365 . S
N181 C178 1.341 . S
N181 N180 1.365 . S
N181 H201 0.862 . S
C182 C177 1.501 1_655 S
C182 H183 0.961 1_655 S
C182 H184 0.961 . S
C182 H185 0.960 . S
H183 C182 0.961 1_455 S
H184 C182 0.961 . S
H185 C182 0.960 . S
C186 N187 1.342 . S
C186 C190 1.401 . S
C186 C191 1.499 . S
N187 Co170 1.989 . S
N187 C186 1.342 . S
N187 N188 1.388 . S
N188 Co171 1.993 . S
N188 N187 1.388 . S
N188 C189 1.346 . S
C189 N188 1.346 . S
C189 C190 1.396 . S
C189 C199 1.510 . S
C190 C186 1.401 . S
C190 C189 1.396 . S
C191 C186 1.499 . S
C191 H192 0.959 . S
C191 H193 0.960 . S
C191 H194 0.961 . S
H192 C191 0.959 . S
H193 C191 0.960 . S
H194 C191 0.961 . S
O195 Co170 1.967 . S
O195 C203 1.258 . S
O196 Co171 1.941 . S
O196 C203 1.266 . S
H197 C199 0.959 . S
H198 C199 0.961 . S
C199 C189 1.510 . S
C199 H197 0.959 . S
C199 H198 0.961 . S
C199 H200 0.960 . S
H200 C199 0.960 . S
H201 N181 0.862 . S
O202 Co170 1.920 . S
O202 C175 1.289 . S
C203 O195 1.258 . S
C203 O196 1.266 . S
Co204 O207 1.970 . S
Co204 N221 1.989 . S
Co204 O229 1.967 . S
Co204 O236 1.920 . S
Co205 O208 1.966 . S
Co205 N214 2.022 . S
Co205 N222 1.993 . S
Co205 O230 1.941 . S
C206 O207 1.258 . S
C206 O208 1.263 . S
O207 Co204 1.970 . S
O207 C206 1.258 . S
O208 Co205 1.966 . S
O208 C206 1.263 . S
C209 O210 1.235 . S
C209 O236 1.289 . S
O210 C209 1.235 . S
C211 C213 1.400 . S
C211 N214 1.351 . S
C211 C216 1.501 1_545 S
C212 C213 1.387 . S
C212 N215 1.341 . S
C213 C211 1.400 . S
C213 C212 1.387 . S
N214 Co205 2.022 . S
N214 C211 1.351 . S
N214 N215 1.365 . S
N215 C212 1.341 . S
N215 N214 1.365 . S
N215 H235 0.862 . S
C216 C211 1.501 1_565 S
C216 H217 0.961 1_565 S
C216 H218 0.961 . S
C216 H219 0.960 . S
H217 C216 0.961 1_545 S
H218 C216 0.961 . S
H219 C216 0.960 . S
C220 N221 1.342 1_655 S
C220 C224 1.401 . S
C220 C225 1.499 . S
N221 Co204 1.989 . S
N221 C220 1.342 1_455 S
N221 N222 1.388 . S
N222 Co205 1.993 . S
N222 N221 1.388 . S
N222 C223 1.346 1_455 S
C223 N222 1.346 1_655 S
C223 C224 1.396 . S
C223 C233 1.510 . S
C224 C220 1.401 . S
C224 C223 1.396 . S
C225 C220 1.499 . S
C225 H226 0.938 1_655 S
C225 H227 0.960 . S
C225 H228 0.961 . S
H226 C225 0.938 1_455 S
H227 C225 0.960 . S
H228 C225 0.961 . S
O229 Co204 1.967 . S
O229 C237 1.258 . S
O230 Co205 1.941 . S
O230 C237 1.266 . S
H231 C233 0.959 . S
H232 C233 0.961 . S
C233 C223 1.510 . S
C233 H231 0.959 . S
C233 H232 0.961 . S
C233 H234 0.960 . S
H234 C233 0.960 . S
H235 N215 0.862 . S
O236 Co204 1.920 . S
O236 C209 1.289 . S
C237 O229 1.258 . S
C237 O230 1.266 . S
Co238 O241 1.970 . S
Co238 N255 1.989 . S
Co238 O263 1.967 . S
Co238 O270 1.920 . S
Co239 O242 1.966 . S
Co239 N248 2.022 . S
Co239 N256 1.993 . S
Co239 O264 1.941 . S
C240 O241 1.258 . S
C240 O242 1.263 . S
O241 Co238 1.970 . S
O241 C240 1.258 . S
O242 Co239 1.966 . S
O242 C240 1.263 . S
C243 O244 1.235 . S
C243 O270 1.289 . S
O244 C243 1.235 . S
C245 C247 1.400 . S
C245 N248 1.351 . S
C245 C250 1.501 . S
C246 C247 1.387 . S
C246 N249 1.341 . S
C247 C245 1.400 . S
C247 C246 1.387 . S
N248 Co239 2.022 . S
N248 C245 1.351 . S
N248 N249 1.365 . S
N249 C246 1.341 . S
N249 N248 1.365 . S
N249 H269 0.862 . S
C250 C245 1.501 . S
C250 H251 0.961 . S
C250 H252 0.961 . S
C250 H253 0.960 . S
H251 C250 0.961 . S
H252 C250 0.961 . S
H253 C250 0.960 . S
C254 N255 1.342 1_565 S
C254 C258 1.401 . S
C254 C259 1.499 . S
N255 Co238 1.989 . S
N255 C254 1.342 1_545 S
N255 N256 1.388 . S
N256 Co239 1.993 . S
N256 N255 1.388 . S
N256 C257 1.346 1_545 S
C257 N256 1.346 1_565 S
C257 C258 1.396 . S
C257 C267 1.510 . S
C258 C254 1.401 . S
C258 C257 1.396 . S
C259 C254 1.499 . S
C259 H260 0.938 1_565 S
C259 H261 0.960 . S
C259 H262 0.961 . S
H260 C259 0.938 1_545 S
H261 C259 0.960 . S
H262 C259 0.961 . S
O263 Co238 1.967 . S
O263 C271 1.258 . S
O264 Co239 1.941 . S
O264 C271 1.266 . S
H265 C267 0.959 . S
H266 C267 0.961 . S
C267 C257 1.510 . S
C267 H265 0.959 . S
C267 H266 0.961 . S
C267 H268 0.960 . S
H268 C267 0.960 . S
H269 N249 0.862 . S
O270 Co238 1.920 . S
O270 C243 1.289 . S
C271 O263 1.258 . S
C271 O264 1.266 . S
Co272 O275 1.970 . S
Co272 N289 1.989 . S
Co272 O297 1.967 . S
Co272 O304 1.920 . S
Co273 O276 1.966 . S
Co273 N282 2.022 . S
Co273 N290 1.993 . S
Co273 O298 1.941 . S
C274 O275 1.258 . S
C274 O276 1.263 . S
O275 Co272 1.970 . S
O275 C274 1.258 . S
O276 Co273 1.966 . S
O276 C274 1.263 . S
C277 O278 1.235 . S
C277 O304 1.289 . S
O278 C277 1.235 . S
C279 C281 1.400 . S
C279 N282 1.351 . S
C279 C284 1.501 1_565 S
C280 C281 1.387 . S
C280 N283 1.341 . S
C281 C279 1.400 . S
C281 C280 1.387 . S
N282 Co273 2.022 . S
N282 C279 1.351 . S
N282 N283 1.365 . S
N283 C280 1.341 . S
N283 N282 1.365 . S
N283 H303 0.862 . S
C284 C279 1.501 1_545 S
C284 H285 0.961 1_545 S
C284 H286 0.961 . S
C284 H287 0.960 . S
H285 C284 0.961 1_565 S
H286 C284 0.961 . S
H287 C284 0.960 . S
C288 N289 1.342 . S
C288 C292 1.401 . S
C288 C293 1.499 . S
N289 Co272 1.989 . S
N289 C288 1.342 . S
N289 N290 1.388 . S
N290 Co273 1.993 . S
N290 N289 1.388 . S
N290 C291 1.346 . S
C291 N290 1.346 . S
C291 C292 1.396 . S
C291 C301 1.510 . S
C292 C288 1.401 . S
C292 C291 1.396 . S
C293 C288 1.499 . S
C293 H294 0.959 . S
C293 H295 0.960 . S
C293 H296 0.961 . S
H294 C293 0.959 . S
H295 C293 0.960 . S
H296 C293 0.961 . S
O297 Co272 1.967 . S
O297 C305 1.258 . S
O298 Co273 1.941 . S
O298 C305 1.266 . S
H299 C301 0.959 . S
H300 C301 0.961 . S
C301 C291 1.510 . S
C301 H299 0.959 . S
C301 H300 0.961 . S
C301 H302 0.960 . S
H302 C301 0.960 . S
H303 N283 0.862 . S
O304 Co272 1.920 . S
O304 C277 1.289 . S
C305 O297 1.258 . S
C305 O298 1.266 . S
Co306 O309 1.970 . S
Co306 N323 1.989 . S
Co306 O331 1.967 . S
Co306 O338 1.920 . S
Co307 O310 1.966 . S
Co307 N316 2.022 . S
Co307 N324 1.993 . S
Co307 O332 1.941 . S
C308 O309 1.258 . S
C308 O310 1.263 . S
O309 Co306 1.970 . S
O309 C308 1.258 . S
O310 Co307 1.966 . S
O310 C308 1.263 . S
C311 O312 1.235 . S
C311 O338 1.289 . S
O312 C311 1.235 . S
C313 C315 1.400 . S
C313 N316 1.351 . S
C313 C318 1.501 . S
C314 C315 1.387 . S
C314 N317 1.341 . S
C315 C313 1.400 . S
C315 C314 1.387 . S
N316 Co307 2.022 . S
N316 C313 1.351 . S
N316 N317 1.365 . S
N317 C314 1.341 . S
N317 N316 1.365 . S
N317 H337 0.862 . S
C318 C313 1.501 . S
C318 H319 0.961 . S
C318 H320 0.961 . S
C318 H321 0.960 . S
H319 C318 0.961 . S
H320 C318 0.961 . S
H321 C318 0.960 . S
C322 N323 1.342 . S
C322 C326 1.401 . S
C322 C327 1.499 . S
N323 Co306 1.989 . S
N323 C322 1.342 . S
N323 N324 1.388 . S
N324 Co307 1.993 . S
N324 N323 1.388 . S
N324 C325 1.346 . S
C325 N324 1.346 . S
C325 C326 1.396 . S
C325 C335 1.510 . S
C326 C322 1.401 . S
C326 C325 1.396 . S
C327 C322 1.499 . S
C327 H328 0.959 . S
C327 H329 0.960 . S
C327 H330 0.961 . S
H328 C327 0.959 . S
H329 C327 0.960 . S
H330 C327 0.961 . S
O331 Co306 1.967 . S
O331 C339 1.258 . S
O332 Co307 1.941 . S
O332 C339 1.266 . S
H333 C335 0.959 . S
H334 C335 0.961 . S
C335 C325 1.510 . S
C335 H333 0.959 . S
C335 H334 0.961 . S
C335 H336 0.960 . S
H336 C335 0.960 . S
H337 N317 0.862 . S
O338 Co306 1.920 . S
O338 C311 1.289 . S
C339 O331 1.258 . S
C339 O332 1.266 . S
Co340 O343 1.970 . S
Co340 N357 1.989 . S
Co340 O365 1.967 . S
Co340 O372 1.920 . S
Co341 O344 1.966 . S
Co341 N350 2.022 . S
Co341 N358 1.993 . S
Co341 O366 1.941 . S
C342 O343 1.258 . S
C342 O344 1.263 . S
O343 Co340 1.970 . S
O343 C342 1.258 . S
O344 Co341 1.966 . S
O344 C342 1.263 . S
C345 O346 1.235 . S
C345 O372 1.289 . S
O346 C345 1.235 . S
C347 C349 1.400 . S
C347 N350 1.351 . S
C347 C352 1.501 . S
C348 C349 1.387 . S
C348 N351 1.341 . S
C349 C347 1.400 . S
C349 C348 1.387 . S
N350 Co341 2.022 . S
N350 C347 1.351 . S
N350 N351 1.365 . S
N351 C348 1.341 . S
N351 N350 1.365 . S
N351 H371 0.862 . S
C352 C347 1.501 . S
C352 H353 0.961 . S
C352 H354 0.961 . S
C352 H355 0.960 . S
H353 C352 0.961 . S
H354 C352 0.961 . S
H355 C352 0.960 . S
C356 N357 1.342 1_455 S
C356 C360 1.401 . S
C356 C361 1.499 . S
N357 Co340 1.989 . S
N357 C356 1.342 1_655 S
N357 N358 1.388 . S
N358 Co341 1.993 . S
N358 N357 1.388 . S
N358 C359 1.346 1_655 S
C359 N358 1.346 1_455 S
C359 C360 1.396 . S
C359 C369 1.510 . S
C360 C356 1.401 . S
C360 C359 1.396 . S
C361 C356 1.499 . S
C361 H362 0.938 1_455 S
C361 H363 0.960 . S
C361 H364 0.961 . S
H362 C361 0.938 1_655 S
H363 C361 0.960 . S
H364 C361 0.961 . S
O365 Co340 1.967 . S
O365 C373 1.258 . S
O366 Co341 1.941 . S
O366 C373 1.266 . S
H367 C369 0.959 . S
H368 C369 0.961 . S
C369 C359 1.510 . S
C369 H367 0.959 . S
C369 H368 0.961 . S
C369 H370 0.960 . S
H370 C369 0.960 . S
H371 N351 0.862 . S
O372 Co340 1.920 . S
O372 C345 1.289 . S
C373 O365 1.258 . S
C373 O366 1.266 . S
Co374 O377 1.970 . S
Co374 N391 1.989 . S
Co374 O399 1.967 . S
Co374 O406 1.920 . S
Co375 O378 1.966 . S
Co375 N384 2.022 . S
Co375 N392 1.993 . S
Co375 O400 1.941 . S
C376 O377 1.258 . S
C376 O378 1.263 . S
O377 Co374 1.970 . S
O377 C376 1.258 . S
O378 Co375 1.966 . S
O378 C376 1.263 . S
C379 O380 1.235 . S
C379 O406 1.289 . S
O380 C379 1.235 . S
C381 C383 1.400 . S
C381 N384 1.351 . S
C381 C386 1.501 1_655 S
C382 C383 1.387 . S
C382 N385 1.341 . S
C383 C381 1.400 . S
C383 C382 1.387 . S
N384 Co375 2.022 . S
N384 C381 1.351 . S
N384 N385 1.365 . S
N385 C382 1.341 . S
N385 N384 1.365 . S
N385 H405 0.862 . S
C386 C381 1.501 1_455 S
C386 H387 0.961 1_455 S
C386 H388 0.961 . S
C386 H389 0.960 . S
H387 C386 0.961 1_655 S
H388 C386 0.961 . S
H389 C386 0.960 . S
C390 N391 1.342 1_545 S
C390 C394 1.401 . S
C390 C395 1.499 . S
N391 Co374 1.989 . S
N391 C390 1.342 1_565 S
N391 N392 1.388 . S
N392 Co375 1.993 . S
N392 N391 1.388 . S
N392 C393 1.346 1_565 S
C393 N392 1.346 1_545 S
C393 C394 1.396 . S
C393 C403 1.510 . S
C394 C390 1.401 . S
C394 C393 1.396 . S
C395 C390 1.499 . S
C395 H396 0.938 1_545 S
C395 H397 0.960 . S
C395 H398 0.961 . S
H396 C395 0.938 1_565 S
H397 C395 0.960 . S
H398 C395 0.961 . S
O399 Co374 1.967 . S
O399 C407 1.258 . S
O400 Co375 1.941 . S
O400 C407 1.266 . S
H401 C403 0.959 . S
H402 C403 0.961 . S
C403 C393 1.510 . S
C403 H401 0.959 . S
C403 H402 0.961 . S
C403 H404 0.960 . S
H404 C403 0.960 . S
H405 N385 0.862 . S
O406 Co374 1.920 . S
O406 C379 1.289 . S
C407 O399 1.258 . S
C407 O400 1.266 . S
Co408 O411 1.970 . S
Co408 N425 1.989 . S
Co408 O433 1.967 . S
Co408 O440 1.920 . S
Co409 O412 1.966 . S
Co409 N418 2.022 . S
Co409 N426 1.993 . S
Co409 O434 1.941 . S
C410 O411 1.258 . S
C410 O412 1.263 . S
O411 Co408 1.970 . S
O411 C410 1.258 . S
O412 Co409 1.966 . S
O412 C410 1.263 . S
C413 O414 1.235 . S
C413 O440 1.289 . S
O414 C413 1.235 . S
C415 C417 1.400 . S
C415 N418 1.351 . S
C415 C420 1.501 . S
C416 C417 1.387 . S
C416 N419 1.341 . S
C417 C415 1.400 . S
C417 C416 1.387 . S
N418 Co409 2.022 . S
N418 C415 1.351 . S
N418 N419 1.365 . S
N419 C416 1.341 . S
N419 N418 1.365 . S
N419 H439 0.862 . S
C420 C415 1.501 . S
C420 H421 0.961 . S
C420 H422 0.961 . S
C420 H423 0.960 . S
H421 C420 0.961 . S
H422 C420 0.961 . S
H423 C420 0.960 . S
C424 N425 1.342 . S
C424 C428 1.401 . S
C424 C429 1.499 . S
N425 Co408 1.989 . S
N425 C424 1.342 . S
N425 N426 1.388 . S
N426 Co409 1.993 . S
N426 N425 1.388 . S
N426 C427 1.346 . S
C427 N426 1.346 . S
C427 C428 1.396 . S
C427 C437 1.510 . S
C428 C424 1.401 . S
C428 C427 1.396 . S
C429 C424 1.499 . S
C429 H430 0.959 . S
C429 H431 0.960 . S
C429 H432 0.961 . S
H430 C429 0.959 . S
H431 C429 0.960 . S
H432 C429 0.961 . S
O433 Co408 1.967 . S
O433 C441 1.258 . S
O434 Co409 1.941 . S
O434 C441 1.266 . S
H435 C437 0.959 . S
H436 C437 0.961 . S
C437 C427 1.510 . S
C437 H435 0.959 . S
C437 H436 0.961 . S
C437 H438 0.960 . S
H438 C437 0.960 . S
H439 N419 0.862 . S
O440 Co408 1.920 . S
O440 C413 1.289 . S
C441 O433 1.258 . S
C441 O434 1.266 . S
Co442 O445 1.970 . S
Co442 N459 1.989 . S
Co442 O467 1.967 . S
Co442 O474 1.920 . S
Co443 O446 1.966 . S
Co443 N452 2.022 . S
Co443 N460 1.993 . S
Co443 O468 1.941 . S
C444 O445 1.258 . S
C444 O446 1.263 . S
O445 Co442 1.970 . S
O445 C444 1.258 . S
O446 Co443 1.966 . S
O446 C444 1.263 . S
C447 O448 1.235 . S
C447 O474 1.289 . S
O448 C447 1.235 . S
C449 C451 1.400 . S
C449 N452 1.351 . S
C449 C454 1.501 1_655 S
C450 C451 1.387 . S
C450 N453 1.341 . S
C451 C449 1.400 . S
C451 C450 1.387 . S
N452 Co443 2.022 . S
N452 C449 1.351 . S
N452 N453 1.365 . S
N453 C450 1.341 . S
N453 N452 1.365 . S
N453 H473 0.862 . S
C454 C449 1.501 1_455 S
C454 H455 0.961 1_455 S
C454 H456 0.961 . S
C454 H457 0.960 . S
H455 C454 0.961 1_655 S
H456 C454 0.961 . S
H457 C454 0.960 . S
C458 N459 1.342 . S
C458 C462 1.401 . S
C458 C463 1.499 . S
N459 Co442 1.989 . S
N459 C458 1.342 . S
N459 N460 1.388 . S
N460 Co443 1.993 . S
N460 N459 1.388 . S
N460 C461 1.346 . S
C461 N460 1.346 . S
C461 C462 1.396 . S
C461 C471 1.510 . S
C462 C458 1.401 . S
C462 C461 1.396 . S
C463 C458 1.499 . S
C463 H464 0.959 . S
C463 H465 0.960 . S
C463 H466 0.961 . S
H464 C463 0.959 . S
H465 C463 0.960 . S
H466 C463 0.961 . S
O467 Co442 1.967 . S
O467 C475 1.258 . S
O468 Co443 1.941 . S
O468 C475 1.266 . S
H469 C471 0.959 . S
H470 C471 0.961 . S
C471 C461 1.510 . S
C471 H469 0.959 . S
C471 H470 0.961 . S
C471 H472 0.960 . S
H472 C471 0.960 . S
H473 N453 0.862 . S
O474 Co442 1.920 . S
O474 C447 1.289 . S
C475 O467 1.258 . S
C475 O468 1.266 . S
Co476 O479 1.970 . S
Co476 N493 1.989 . S
Co476 O501 1.967 . S
Co476 O508 1.920 . S
Co477 O480 1.966 . S
Co477 N486 2.022 . S
Co477 N494 1.993 . S
Co477 O502 1.941 . S
C478 O479 1.258 . S
C478 O480 1.263 . S
O479 Co476 1.970 . S
O479 C478 1.258 . S
O480 Co477 1.966 . S
O480 C478 1.263 . S
C481 O482 1.235 . S
C481 O508 1.289 . S
O482 C481 1.235 . S
C483 C485 1.400 . S
C483 N486 1.351 . S
C483 C488 1.501 1_565 S
C484 C485 1.387 . S
C484 N487 1.341 . S
C485 C483 1.400 . S
C485 C484 1.387 . S
N486 Co477 2.022 . S
N486 C483 1.351 . S
N486 N487 1.365 . S
N487 C484 1.341 . S
N487 N486 1.365 . S
N487 H507 0.862 . S
C488 C483 1.501 1_545 S
C488 H489 0.961 1_545 S
C488 H490 0.961 . S
C488 H491 0.960 . S
H489 C488 0.961 1_565 S
H490 C488 0.961 . S
H491 C488 0.960 . S
C492 N493 1.342 1_455 S
C492 C496 1.401 . S
C492 C497 1.499 . S
N493 Co476 1.989 . S
N493 C492 1.342 1_655 S
N493 N494 1.388 . S
N494 Co477 1.993 . S
N494 N493 1.388 . S
N494 C495 1.346 1_655 S
C495 N494 1.346 1_455 S
C495 C496 1.396 . S
C495 C505 1.510 . S
C496 C492 1.401 . S
C496 C495 1.396 . S
C497 C492 1.499 . S
C497 H498 0.938 1_455 S
C497 H499 0.960 . S
C497 H500 0.961 . S
H498 C497 0.938 1_655 S
H499 C497 0.960 . S
H500 C497 0.961 . S
O501 Co476 1.967 . S
O501 C509 1.258 . S
O502 Co477 1.941 . S
O502 C509 1.266 . S
H503 C505 0.959 . S
H504 C505 0.961 . S
C505 C495 1.510 . S
C505 H503 0.959 . S
C505 H504 0.961 . S
C505 H506 0.960 . S
H506 C505 0.960 . S
H507 N487 0.862 . S
O508 Co476 1.920 . S
O508 C481 1.289 . S
C509 O501 1.258 . S
C509 O502 1.266 . S
Co510 O513 1.970 . S
Co510 N527 1.989 . S
Co510 O535 1.967 . S
Co510 O542 1.920 . S
Co511 O514 1.966 . S
Co511 N520 2.022 . S
Co511 N528 1.993 . S
Co511 O536 1.941 . S
C512 O513 1.258 . S
C512 O514 1.263 . S
O513 Co510 1.970 . S
O513 C512 1.258 . S
O514 Co511 1.966 . S
O514 C512 1.263 . S
C515 O516 1.235 . S
C515 O542 1.289 . S
O516 C515 1.235 . S
C517 C519 1.400 . S
C517 N520 1.351 . S
C517 C522 1.501 . S
C518 C519 1.387 . S
C518 N521 1.341 . S
C519 C517 1.400 . S
C519 C518 1.387 . S
N520 Co511 2.022 . S
N520 C517 1.351 . S
N520 N521 1.365 . S
N521 C518 1.341 . S
N521 N520 1.365 . S
N521 H541 0.862 . S
C522 C517 1.501 . S
C522 H523 0.961 . S
C522 H524 0.961 . S
C522 H525 0.960 . S
H523 C522 0.961 . S
H524 C522 0.961 . S
H525 C522 0.960 . S
C526 N527 1.342 1_545 S
C526 C530 1.401 . S
C526 C531 1.499 . S
N527 Co510 1.989 . S
N527 C526 1.342 1_565 S
N527 N528 1.388 . S
N528 Co511 1.993 . S
N528 N527 1.388 . S
N528 C529 1.346 1_565 S
C529 N528 1.346 1_545 S
C529 C530 1.396 . S
C529 C539 1.510 . S
C530 C526 1.401 . S
C530 C529 1.396 . S
C531 C526 1.499 . S
C531 H532 0.938 1_545 S
C531 H533 0.960 . S
C531 H534 0.961 . S
H532 C531 0.938 1_565 S
H533 C531 0.960 . S
H534 C531 0.961 . S
O535 Co510 1.967 . S
O535 C543 1.258 . S
O536 Co511 1.941 . S
O536 C543 1.266 . S
H537 C539 0.959 . S
H538 C539 0.961 . S
C539 C529 1.510 . S
C539 H537 0.959 . S
C539 H538 0.961 . S
C539 H540 0.960 . S
H540 C539 0.960 . S
H541 N521 0.862 . S
O542 Co510 1.920 . S
O542 C515 1.289 . S
C543 O535 1.258 . S
C543 O536 1.266 . S
C544 C545 1.391 . S
C544 C546 1.394 . S
C544 H560 0.931 . S
C545 C544 1.391 . S
C545 C549 1.376 . S
C546 C544 1.394 . S
C546 C547 1.369 . S
C546 C550 1.531 . S
C547 C546 1.369 . S
C547 C548 1.410 . S
C547 C555 1.503 . S
C548 C547 1.410 . S
C548 C549 1.392 . S
C548 C551 1.511 . S
C549 C545 1.376 . S
C549 C548 1.392 . S
C549 H561 0.929 . S
C550 C546 1.531 . S
C550 H562 0.960 . S
C550 H563 0.962 . S
C550 H564 0.960 1_545 S
C551 C548 1.511 . S
C551 H565 0.961 . S
C551 H566 0.961 . S
C551 H567 0.961 . S
C552 C553 1.370 . S
C552 C554 1.363 . S
C552 H568 0.931 . S
C553 C552 1.370 . S
C553 C557 1.408 . S
C554 C552 1.363 . S
C554 C555 1.370 . S
C554 C558 1.524 . S
C555 C547 1.503 . S
C555 C554 1.370 . S
C555 C556 1.403 . S
C556 C555 1.403 . S
C556 C557 1.404 . S
C556 C559 1.539 1_545 S
C557 C553 1.408 . S
C557 C556 1.404 . S
C557 H569 0.930 . S
C558 C554 1.524 . S
C558 H570 0.956 . S
C558 H571 0.961 . S
C558 H572 0.961 . S
C559 C556 1.539 1_565 S
C559 H573 0.958 . S
C559 H574 0.961 . S
C559 H575 0.960 . S
H560 C544 0.931 . S
H561 C549 0.929 . S
H562 C550 0.960 . S
H563 C550 0.962 . S
H564 C550 0.960 1_565 S
H565 C551 0.961 . S
H566 C551 0.961 . S
H567 C551 0.961 . S
H568 C552 0.931 . S
H569 C557 0.930 . S
H570 C558 0.956 . S
H571 C558 0.961 . S
H572 C558 0.961 . S
H573 C559 0.958 . S
H574 C559 0.961 . S
H575 C559 0.960 . S
C576 C577 1.391 . S
C576 C578 1.394 . S
C576 H592 0.931 . S
C577 C576 1.391 . S
C577 C581 1.376 . S
C578 C576 1.394 . S
C578 C579 1.369 . S
C578 C582 1.531 . S
C579 C578 1.369 . S
C579 C580 1.410 . S
C579 C587 1.503 . S
C580 C579 1.410 . S
C580 C581 1.392 . S
C580 C583 1.511 . S
C581 C577 1.376 . S
C581 C580 1.392 . S
C581 H593 0.929 . S
C582 C578 1.531 . S
C582 H594 0.960 . S
C582 H595 0.962 . S
C582 H596 0.960 . S
C583 C580 1.511 . S
C583 H597 0.961 . S
C583 H598 0.961 . S
C583 H599 0.961 . S
C584 C585 1.370 . S
C584 C586 1.363 . S
C584 H600 0.931 . S
C585 C584 1.370 . S
C585 C589 1.408 . S
C586 C584 1.363 . S
C586 C587 1.370 . S
C586 C590 1.524 . S
C587 C579 1.503 . S
C587 C586 1.370 . S
C587 C588 1.403 . S
C588 C587 1.403 . S
C588 C589 1.404 . S
C588 C591 1.539 . S
C589 C585 1.408 . S
C589 C588 1.404 . S
C589 H601 0.930 . S
C590 C586 1.524 . S
C590 H602 0.956 . S
C590 H603 0.961 . S
C590 H604 0.961 . S
C591 C588 1.539 . S
C591 H605 0.958 . S
C591 H606 0.961 . S
C591 H607 0.960 . S
H592 C576 0.931 . S
H593 C581 0.929 . S
H594 C582 0.960 . S
H595 C582 0.962 . S
H596 C582 0.960 . S
H597 C583 0.961 . S
H598 C583 0.961 . S
H599 C583 0.961 . S
H600 C584 0.931 . S
H601 C589 0.930 . S
H602 C590 0.956 . S
H603 C590 0.961 . S
H604 C590 0.961 . S
H605 C591 0.958 . S
H606 C591 0.961 . S
H607 C591 0.960 . S
C608 C609 1.391 . S
C608 C610 1.394 . S
C608 H624 0.931 . S
C609 C608 1.391 . S
C609 C613 1.376 . S
C610 C608 1.394 . S
C610 C611 1.369 . S
C610 C614 1.531 1_455 S
C611 C610 1.369 . S
C611 C612 1.410 . S
C611 C619 1.503 . S
C612 C611 1.410 . S
C612 C613 1.392 . S
C612 C615 1.511 . S
C613 C609 1.376 . S
C613 C612 1.392 . S
C613 H625 0.929 . S
C614 C610 1.531 1_655 S
C614 H626 0.960 . S
C614 H627 0.962 1_655 S
C614 H628 0.960 . S
C615 C612 1.511 . S
C615 H629 0.961 . S
C615 H630 0.961 . S
C615 H631 0.961 . S
C616 C617 1.370 . S
C616 C618 1.363 . S
C616 H632 0.931 . S
C617 C616 1.370 . S
C617 C621 1.408 . S
C618 C616 1.363 . S
C618 C619 1.370 . S
C618 C622 1.524 . S
C619 C611 1.503 . S
C619 C618 1.370 . S
C619 C620 1.403 . S
C620 C619 1.403 . S
C620 C621 1.404 . S
C620 C623 1.539 . S
C621 C617 1.408 . S
C621 C620 1.404 . S
C621 H633 0.930 . S
C622 C618 1.524 . S
C622 H634 0.956 . S
C622 H635 0.961 . S
C622 H636 0.961 . S
C623 C620 1.539 . S
C623 H637 0.958 1_455 S
C623 H638 0.961 . S
C623 H639 0.960 . S
H624 C608 0.931 . S
H625 C613 0.929 . S
H626 C614 0.960 . S
H627 C614 0.962 1_455 S
H628 C614 0.960 . S
H629 C615 0.961 . S
H630 C615 0.961 . S
H631 C615 0.961 . S
H632 C616 0.931 . S
H633 C621 0.930 . S
H634 C622 0.956 . S
H635 C622 0.961 . S
H636 C622 0.961 . S
H637 C623 0.958 1_655 S
H638 C623 0.961 . S
H639 C623 0.960 . S
C640 C641 1.391 . S
C640 C642 1.394 . S
C640 H656 0.931 . S
C641 C640 1.391 . S
C641 C645 1.376 . S
C642 C640 1.394 . S
C642 C643 1.369 . S
C642 C646 1.531 1_455 S
C643 C642 1.369 . S
C643 C644 1.410 . S
C643 C651 1.503 . S
C644 C643 1.410 . S
C644 C645 1.392 . S
C644 C647 1.511 . S
C645 C641 1.376 . S
C645 C644 1.392 . S
C645 H657 0.929 . S
C646 C642 1.531 1_655 S
C646 H658 0.960 . S
C646 H659 0.962 . S
C646 H660 0.960 . S
C647 C644 1.511 . S
C647 H661 0.961 . S
C647 H662 0.961 . S
C647 H663 0.961 . S
C648 C649 1.370 . S
C648 C650 1.363 . S
C648 H664 0.931 . S
C649 C648 1.370 . S
C649 C653 1.408 . S
C650 C648 1.363 . S
C650 C651 1.370 . S
C650 C654 1.524 1_545 S
C651 C643 1.503 . S
C651 C650 1.370 . S
C651 C652 1.403 . S
C652 C651 1.403 . S
C652 C653 1.404 . S
C652 C655 1.539 . S
C653 C649 1.408 . S
C653 C652 1.404 . S
C653 H665 0.930 . S
C654 C650 1.524 1_565 S
C654 H666 0.956 . S
C654 H667 0.961 . S
C654 H668 0.961 . S
C655 C652 1.539 . S
C655 H669 0.958 . S
C655 H670 0.961 . S
C655 H671 0.960 . S
H656 C640 0.931 . S
H657 C645 0.929 . S
H658 C646 0.960 . S
H659 C646 0.962 . S
H660 C646 0.960 . S
H661 C647 0.961 . S
H662 C647 0.961 . S
H663 C647 0.961 . S
H664 C648 0.931 . S
H665 C653 0.930 . S
H666 C654 0.956 . S
H667 C654 0.961 . S
H668 C654 0.961 . S
H669 C655 0.958 . S
H670 C655 0.961 . S
H671 C655 0.960 . S
C672 C673 1.391 . S
C672 C674 1.394 . S
C672 H688 0.931 . S
C673 C672 1.391 . S
C673 C677 1.376 . S
C674 C672 1.394 . S
C674 C675 1.369 . S
C674 C678 1.531 . S
C675 C674 1.369 . S
C675 C676 1.410 . S
C675 C683 1.503 . S
C676 C675 1.410 . S
C676 C677 1.392 . S
C676 C679 1.511 . S
C677 C673 1.376 . S
C677 C676 1.392 . S
C677 H689 0.929 . S
C678 C674 1.531 . S
C678 H690 0.960 . S
C678 H691 0.962 . S
C678 H692 0.960 . S
C679 C676 1.511 . S
C679 H693 0.961 . S
C679 H694 0.961 . S
C679 H695 0.961 . S
C680 C681 1.370 . S
C680 C682 1.363 . S
C680 H696 0.931 . S
C681 C680 1.370 . S
C681 C685 1.408 . S
C682 C680 1.363 . S
C682 C683 1.370 . S
C682 C686 1.524 . S
C683 C675 1.503 . S
C683 C682 1.370 . S
C683 C684 1.403 . S
C684 C683 1.403 . S
C684 C685 1.404 . S
C684 C687 1.539 1_565 S
C685 C681 1.408 . S
C685 C684 1.404 . S
C685 H697 0.930 . S
C686 C682 1.524 . S
C686 H698 0.956 . S
C686 H699 0.961 . S
C686 H700 0.961 . S
C687 C684 1.539 1_545 S
C687 H701 0.958 . S
C687 H702 0.961 . S
C687 H703 0.960 . S
H688 C672 0.931 . S
H689 C677 0.929 . S
H690 C678 0.960 . S
H691 C678 0.962 . S
H692 C678 0.960 . S
H693 C679 0.961 . S
H694 C679 0.961 . S
H695 C679 0.961 . S
H696 C680 0.931 . S
H697 C685 0.930 . S
H698 C686 0.956 . S
H699 C686 0.961 . S
H700 C686 0.961 . S
H701 C687 0.958 . S
H702 C687 0.961 . S
H703 C687 0.960 . S
C704 C705 1.391 . S
C704 C706 1.394 . S
C704 H720 0.931 . S
C705 C704 1.391 . S
C705 C709 1.376 . S
C706 C704 1.394 . S
C706 C707 1.369 . S
C706 C710 1.531 . S
C707 C706 1.369 . S
C707 C708 1.410 . S
C707 C715 1.503 . S
C708 C707 1.410 . S
C708 C709 1.392 . S
C708 C711 1.511 . S
C709 C705 1.376 . S
C709 C708 1.392 . S
C709 H721 0.929 . S
C710 C706 1.531 . S
C710 H722 0.960 . S
C710 H723 0.962 . S
C710 H724 0.960 . S
C711 C708 1.511 . S
C711 H725 0.961 . S
C711 H726 0.961 . S
C711 H727 0.961 . S
C712 C713 1.370 . S
C712 C714 1.363 . S
C712 H728 0.931 . S
C713 C712 1.370 . S
C713 C717 1.408 . S
C714 C712 1.363 . S
C714 C715 1.370 . S
C714 C718 1.524 . S
C715 C707 1.503 . S
C715 C714 1.370 . S
C715 C716 1.403 . S
C716 C715 1.403 . S
C716 C717 1.404 . S
C716 C719 1.539 . S
C717 C713 1.408 . S
C717 C716 1.404 . S
C717 H729 0.930 . S
C718 C714 1.524 . S
C718 H730 0.956 . S
C718 H731 0.961 . S
C718 H732 0.961 . S
C719 C716 1.539 . S
C719 H733 0.958 . S
C719 H734 0.961 . S
C719 H735 0.960 . S
H720 C704 0.931 . S
H721 C709 0.929 . S
H722 C710 0.960 . S
H723 C710 0.962 . S
H724 C710 0.960 . S
H725 C711 0.961 . S
H726 C711 0.961 . S
H727 C711 0.961 . S
H728 C712 0.931 . S
H729 C717 0.930 . S
H730 C718 0.956 . S
H731 C718 0.961 . S
H732 C718 0.961 . S
H733 C719 0.958 . S
H734 C719 0.961 . S
H735 C719 0.960 . S
C736 C737 1.391 . S
C736 C738 1.394 . S
C736 H752 0.931 . S
C737 C736 1.391 . S
C737 C741 1.376 . S
C738 C736 1.394 . S
C738 C739 1.369 . S
C738 C742 1.531 . S
C739 C738 1.369 . S
C739 C740 1.410 . S
C739 C747 1.503 . S
C740 C739 1.410 . S
C740 C741 1.392 . S
C740 C743 1.511 1_655 S
C741 C737 1.376 . S
C741 C740 1.392 . S
C741 H753 0.929 . S
C742 C738 1.531 . S
C742 H754 0.960 . S
C742 H755 0.962 . S
C742 H756 0.960 . S
C743 C740 1.511 1_455 S
C743 H757 0.961 . S
C743 H758 0.961 1_455 S
C743 H759 0.961 . S
C744 C745 1.370 . S
C744 C746 1.363 . S
C744 H760 0.931 . S
C745 C744 1.370 . S
C745 C749 1.408 . S
C746 C744 1.363 . S
C746 C747 1.370 . S
C746 C750 1.524 . S
C747 C739 1.503 . S
C747 C746 1.370 . S
C747 C748 1.403 . S
C748 C747 1.403 . S
C748 C749 1.404 . S
C748 C751 1.539 . S
C749 C745 1.408 . S
C749 C748 1.404 . S
C749 H761 0.930 . S
C750 C746 1.524 . S
C750 H762 0.956 . S
C750 H763 0.961 . S
C750 H764 0.961 . S
C751 C748 1.539 . S
C751 H765 0.958 . S
C751 H766 0.961 1_655 S
C751 H767 0.960 1_655 S
H752 C736 0.931 . S
H753 C741 0.929 . S
H754 C742 0.960 . S
H755 C742 0.962 . S
H756 C742 0.960 . S
H757 C743 0.961 . S
H758 C743 0.961 1_655 S
H759 C743 0.961 . S
H760 C744 0.931 . S
H761 C749 0.930 . S
H762 C750 0.956 . S
H763 C750 0.961 . S
H764 C750 0.961 . S
H765 C751 0.958 . S
H766 C751 0.961 1_455 S
H767 C751 0.960 1_455 S
C768 C769 1.391 . S
C768 C770 1.394 . S
C768 H784 0.931 1_655 S
C769 C768 1.391 . S
C769 C773 1.376 . S
C770 C768 1.394 . S
C770 C771 1.369 . S
C770 C774 1.531 1_655 S
C771 C770 1.369 . S
C771 C772 1.410 . S
C771 C779 1.503 . S
C772 C771 1.410 . S
C772 C773 1.392 . S
C772 C775 1.511 . S
C773 C769 1.376 . S
C773 C772 1.392 . S
C773 H785 0.929 . S
C774 C770 1.531 1_455 S
C774 H786 0.960 . S
C774 H787 0.962 . S
C774 H788 0.960 . S
C775 C772 1.511 . S
C775 H789 0.961 . S
C775 H790 0.961 . S
C775 H791 0.961 . S
C776 C777 1.370 . S
C776 C778 1.363 . S
C776 H792 0.931 1_565 S
C777 C776 1.370 . S
C777 C781 1.408 . S
C778 C776 1.363 . S
C778 C779 1.370 . S
C778 C782 1.524 1_565 S
C779 C771 1.503 . S
C779 C778 1.370 . S
C779 C780 1.403 . S
C780 C779 1.403 . S
C780 C781 1.404 . S
C780 C783 1.539 . S
C781 C777 1.408 . S
C781 C780 1.404 . S
C781 H793 0.930 . S
C782 C778 1.524 1_545 S
C782 H794 0.956 . S
C782 H795 0.961 . S
C782 H796 0.961 . S
C783 C780 1.539 . S
C783 H797 0.958 . S
C783 H798 0.961 . S
C783 H799 0.960 . S
H784 C768 0.931 1_455 S
H785 C773 0.929 . S
H786 C774 0.960 . S
H787 C774 0.962 . S
H788 C774 0.960 . S
H789 C775 0.961 . S
H790 C775 0.961 . S
H791 C775 0.961 . S
H792 C776 0.931 1_545 S
H793 C781 0.930 . S
H794 C782 0.956 . S
H795 C782 0.961 . S
H796 C782 0.961 . S
H797 C783 0.958 . S
H798 C783 0.961 . S
H799 C783 0.960 . S
C800 C801 1.391 1_565 S
C800 C802 1.394 . S
C800 H816 0.931 . S
C801 C800 1.391 1_545 S
C801 C805 1.376 . S
C802 C800 1.394 . S
C802 C803 1.369 . S
C802 C806 1.531 . S
C803 C802 1.369 . S
C803 C804 1.410 1_565 S
C803 C811 1.503 1_554 S
C804 C803 1.410 1_545 S
C804 C805 1.392 . S
C804 C807 1.478 1_554 S
C805 C801 1.376 . S
C805 C804 1.392 . S
C805 H817 0.929 . S
C806 C802 1.531 . S
C806 H818 0.960 . S
C806 H819 0.962 . S
C806 H820 0.960 . S
C807 C804 1.478 1_556 S
C807 H821 0.938 1_556 S
C807 H822 0.996 . S
C807 H823 0.985 . S
C808 C809 1.368 1_545 S
C808 C810 1.364 . S
C808 H824 0.932 . S
C809 C808 1.368 1_565 S
C809 C813 1.408 . S
C810 C808 1.364 . S
C810 C811 1.370 1_545 S
C810 C814 1.524 1_556 S
C811 C803 1.503 1_556 S
C811 C810 1.370 1_565 S
C811 C812 1.403 . S
C812 C811 1.403 . S
C812 C813 1.404 . S
C812 C815 1.539 . S
C813 C809 1.408 . S
C813 C812 1.404 . S
C813 H825 0.930 . S
C814 C810 1.524 1_554 S
C814 H826 0.956 . S
C814 H827 0.961 . S
C814 H828 0.961 1_554 S
C815 C812 1.539 . S
C815 H829 0.958 . S
C815 H830 0.961 . S
C815 H831 0.960 . S
H816 C800 0.931 . S
H817 C805 0.929 . S
H818 C806 0.960 . S
H819 C806 0.962 . S
H820 C806 0.960 . S
H821 C807 0.938 1_554 S
H822 C807 0.996 . S
H823 C807 0.985 . S
H824 C808 0.932 . S
H825 C813 0.930 . S
H826 C814 0.956 . S
H827 C814 0.961 . S
H828 C814 0.961 1_556 S
H829 C815 0.958 . S
H830 C815 0.961 . S
H831 C815 0.960 . S
C832 C833 1.391 . S
C832 C834 1.394 . S
C832 H848 0.931 . S
C833 C832 1.391 . S
C833 C837 1.376 . S
C834 C832 1.394 . S
C834 C835 1.369 . S
C834 C838 1.531 . S
C835 C834 1.369 . S
C835 C836 1.410 . S
C835 C843 1.503 . S
C836 C835 1.410 . S
C836 C837 1.392 . S
C836 C839 1.511 . S
C837 C833 1.376 . S
C837 C836 1.392 . S
C837 H849 0.929 . S
C838 C834 1.531 . S
C838 H850 0.960 . S
C838 H851 0.962 . S
C838 H852 0.960 . S
C839 C836 1.511 . S
C839 H853 0.961 . S
C839 H854 0.961 . S
C839 H855 0.961 . S
C840 C841 1.370 . S
C840 C842 1.363 . S
C840 H856 0.931 . S
C841 C840 1.370 . S
C841 C845 1.408 . S
C842 C840 1.363 . S
C842 C843 1.370 . S
C842 C846 1.524 . S
C843 C835 1.503 . S
C843 C842 1.370 . S
C843 C844 1.403 . S
C844 C843 1.403 . S
C844 C845 1.404 . S
C844 C847 1.539 . S
C845 C841 1.408 . S
C845 C844 1.404 . S
C845 H857 0.930 . S
C846 C842 1.524 . S
C846 H858 0.956 . S
C846 H859 0.961 . S
C846 H860 0.961 . S
C847 C844 1.539 . S
C847 H861 0.958 . S
C847 H862 0.961 . S
C847 H863 0.960 . S
H848 C832 0.931 . S
H849 C837 0.929 . S
H850 C838 0.960 . S
H851 C838 0.962 . S
H852 C838 0.960 . S
H853 C839 0.961 . S
H854 C839 0.961 . S
H855 C839 0.961 . S
H856 C840 0.931 . S
H857 C845 0.930 . S
H858 C846 0.956 . S
H859 C846 0.961 . S
H860 C846 0.961 . S
H861 C847 0.958 . S
H862 C847 0.961 . S
H863 C847 0.960 . S
C864 C865 1.391 . S
C864 C866 1.394 1_655 S
C864 H880 0.931 . S
C865 C864 1.391 . S
C865 C869 1.376 . S
C866 C864 1.394 1_455 S
C866 C867 1.369 . S
C866 C870 1.531 . S
C867 C866 1.369 . S
C867 C868 1.408 1_455 S
C867 C875 1.504 1_556 S
C868 C867 1.408 1_655 S
C868 C869 1.392 . S
C868 C871 1.544 . S
C869 C865 1.376 . S
C869 C868 1.392 . S
C869 H881 0.929 . S
C870 C866 1.531 . S
C870 H882 0.960 . S
C870 H883 0.962 . S
C870 H884 0.960 . S
C871 C868 1.544 . S
C871 H885 0.971 . S
C871 H886 0.917 1_556 S
C871 H887 0.964 . S
C872 C873 1.370 . S
C872 C874 1.363 1_455 S
C872 H888 0.931 1_455 S
C873 C872 1.370 . S
C873 C877 1.408 . S
C874 C872 1.363 1_655 S
C874 C875 1.370 1_655 S
C874 C878 1.524 . S
C875 C867 1.504 1_554 S
C875 C874 1.370 1_455 S
C875 C876 1.403 . S
C876 C875 1.403 . S
C876 C877 1.404 . S
C876 C879 1.539 . S
C877 C873 1.408 . S
C877 C876 1.404 . S
C877 H889 0.930 . S
C878 C874 1.524 . S
C878 H890 0.956 . S
C878 H891 0.961 . S
C878 H892 0.961 . S
C879 C876 1.539 . S
C879 H893 0.958 1_554 S
C879 H894 0.961 . S
C879 H895 0.960 1_554 S
H880 C864 0.931 . S
H881 C869 0.929 . S
H882 C870 0.960 . S
H883 C870 0.962 . S
H884 C870 0.960 . S
H885 C871 0.971 . S
H886 C871 0.917 1_554 S
H887 C871 0.964 . S
H888 C872 0.931 1_655 S
H889 C877 0.930 . S
H890 C878 0.956 . S
H891 C878 0.961 . S
H892 C878 0.961 . S
H893 C879 0.958 1_556 S
H894 C879 0.961 . S
H895 C879 0.960 1_556 S
C896 C897 1.391 . S
C896 C898 1.394 1_545 S
C896 H912 0.931 1_545 S
C897 C896 1.391 . S
C897 C901 1.376 1_455 S
C898 C896 1.394 1_565 S
C898 C899 1.363 1_465 S
C898 C902 1.531 . S
C899 C898 1.363 1_645 S
C899 C900 1.424 . S
C899 C907 1.497 1_545 S
C900 C899 1.424 . S
C900 C901 1.392 . S
C900 C903 1.511 . S
C901 C897 1.376 1_655 S
C901 C900 1.392 . S
C901 H913 0.929 . S
C902 C898 1.531 . S
C902 H914 0.960 . S
C902 H915 0.962 . S
C902 H916 0.960 . S
C903 C900 1.511 . S
C903 H917 0.961 . S
C903 H918 0.961 . S
C903 H919 0.961 . S
C904 C905 1.370 1_455 S
C904 C906 1.363 1_565 S
C904 H920 0.931 1_565 S
C905 C904 1.370 1_655 S
C905 C909 1.408 . S
C906 C904 1.363 1_545 S
C906 C907 1.370 1_445 S
C906 C910 1.524 . S
C907 C899 1.497 1_565 S
C907 C906 1.370 1_665 S
C907 C908 1.403 . S
C908 C907 1.403 . S
C908 C909 1.404 . S
C908 C911 1.539 . S
C909 C905 1.408 . S
C909 C908 1.404 . S
C909 H921 0.930 . S
C910 C906 1.524 . S
C910 H922 0.956 . S
C910 H923 0.961 . S
C910 H924 0.961 . S
C911 C908 1.539 . S
C911 H925 0.958 . S
C911 H926 0.961 . S
C911 H927 0.960 . S
H912 C896 0.931 1_565 S
H913 C901 0.929 . S
H914 C902 0.960 . S
H915 C902 0.962 . S
H916 C902 0.960 . S
H917 C903 0.961 . S
H918 C903 0.961 . S
H919 C903 0.961 . S
H920 C904 0.931 1_545 S
H921 C909 0.930 . S
H922 C910 0.956 . S
H923 C910 0.961 . S
H924 C910 0.961 . S
H925 C911 0.958 . S
H926 C911 0.961 . S
H927 C911 0.960 . S
C928 C929 1.391 . S
C928 C930 1.394 . S
C928 H944 0.931 . S
C929 C928 1.391 . S
C929 C933 1.376 . S
C930 C928 1.394 . S
C930 C931 1.369 . S
C930 C934 1.531 . S
C931 C930 1.369 . S
C931 C932 1.410 . S
C931 C939 1.503 1_554 S
C932 C931 1.410 . S
C932 C933 1.392 . S
C932 C935 1.552 . S
C933 C929 1.376 . S
C933 C932 1.392 . S
C933 H945 0.929 . S
C934 C930 1.531 . S
C934 H946 1.004 . S
C934 H947 0.962 . S
C934 H948 0.960 . S
C935 C932 1.552 . S
C935 H949 0.996 . S
C935 H950 0.920 1_554 S
C935 H951 0.931 1_554 S
C936 C937 1.370 . S
C936 C938 1.363 . S
C936 H952 0.931 . S
C937 C936 1.370 . S
C937 C941 1.408 . S
C938 C936 1.363 . S
C938 C939 1.370 . S
C938 C942 1.524 1_556 S
C939 C931 1.503 1_556 S
C939 C938 1.370 . S
C939 C940 1.403 . S
C940 C939 1.403 . S
C940 C941 1.404 . S
C940 C943 1.539 . S
C941 C937 1.408 . S
C941 C940 1.404 . S
C941 H953 0.930 . S
C942 C938 1.524 1_554 S
C942 H954 0.956 . S
C942 H955 0.961 . S
C942 H956 0.947 1_554 S
C943 C940 1.539 . S
C943 H957 0.958 . S
C943 H958 0.961 . S
C943 H959 0.960 . S
H944 C928 0.931 . S
H945 C933 0.929 . S
H946 C934 1.004 . S
H947 C934 0.962 . S
H948 C934 0.960 . S
H949 C935 0.996 . S
H950 C935 0.920 1_556 S
H951 C935 0.931 1_556 S
H952 C936 0.931 . S
H953 C941 0.930 . S
H954 C942 0.956 . S
H955 C942 0.961 . S
H956 C942 0.947 1_556 S
H957 C943 0.958 . S
H958 C943 0.961 . S
H959 C943 0.960 . S
C960 C961 1.391 . S
C960 C962 1.394 . S
C960 H976 0.931 . S
C961 C960 1.391 . S
C961 C965 1.376 1_655 S
C962 C960 1.394 . S
C962 C963 1.369 1_655 S
C962 C966 1.531 . S
C963 C962 1.369 1_455 S
C963 C964 1.410 . S
C963 C971 1.503 . S
C964 C963 1.410 . S
C964 C965 1.392 . S
C964 C967 1.511 . S
C965 C961 1.376 1_455 S
C965 C964 1.392 . S
C965 H977 0.929 . S
C966 C962 1.531 . S
C966 H978 0.960 1_655 S
C966 H979 0.962 . S
C966 H980 0.960 . S
C967 C964 1.511 . S
C967 H981 0.961 . S
C967 H982 0.961 . S
C967 H983 0.961 . S
C968 C969 1.370 1_655 S
C968 C970 1.363 . S
C968 H984 0.931 . S
C969 C968 1.370 1_455 S
C969 C973 1.408 . S
C970 C968 1.363 . S
C970 C971 1.370 1_655 S
C970 C974 1.524 . S
C971 C963 1.503 . S
C971 C970 1.370 1_455 S
C971 C972 1.403 . S
C972 C971 1.403 . S
C972 C973 1.404 . S
C972 C975 1.539 . S
C973 C969 1.408 . S
C973 C972 1.404 . S
C973 H985 0.930 . S
C974 C970 1.524 . S
C974 H986 0.956 . S
C974 H987 0.961 . S
C974 H988 0.961 . S
C975 C972 1.539 . S
C975 H989 0.958 . S
C975 H990 0.961 . S
C975 H991 0.960 . S
H976 C960 0.931 . S
H977 C965 0.929 . S
H978 C966 0.960 1_455 S
H979 C966 0.962 . S
H980 C966 0.960 . S
H981 C967 0.961 . S
H982 C967 0.961 . S
H983 C967 0.961 . S
H984 C968 0.931 . S
H985 C973 0.930 . S
H986 C974 0.956 . S
H987 C974 0.961 . S
H988 C974 0.961 . S
H989 C975 0.958 . S
H990 C975 0.961 . S
H991 C975 0.960 . S
C992 C993 1.391 . S
C992 C994 1.394 . S
C992 H1008 0.931 . S
C993 C992 1.391 . S
C993 C997 1.355 1_445 S
C994 C992 1.394 . S
C994 C995 1.369 . S
C994 C998 1.531 1_556 S
C995 C994 1.369 . S
C995 C996 1.410 1_445 S
C995 C1003 1.503 1_456 S
C996 C995 1.410 1_665 S
C996 C997 1.402 . S
C996 C999 1.511 . S
C997 C993 1.355 1_665 S
C997 C996 1.402 . S
C997 H1009 0.940 . S
C998 C994 1.531 1_554 S
C998 H1010 0.960 . S
C998 H1011 0.962 . S
C998 H1012 0.957 1_554 S
C999 C996 1.511 . S
C999 H1013 0.961 . S
C999 H1014 0.961 . S
C999 H1015 0.961 . S
C1000 C1001 1.370 . S
C1000 C1002 1.360 1_655 S
C1000 H1016 0.931 . S
C1001 C1000 1.370 . S
C1001 C1005 1.408 1_565 S
C1002 C1000 1.360 1_455 S
C1002 C1003 1.368 1_465 S
C1002 C1006 1.530 . S
C1003 C995 1.503 1_654 S
C1003 C1002 1.368 1_645 S
C1003 C1004 1.403 . S
C1004 C1003 1.403 . S
C1004 C1005 1.404 . S
C1004 C1007 1.539 . S
C1005 C1001 1.408 1_545 S
C1005 C1004 1.404 . S
C1005 H1017 0.930 . S
C1006 C1002 1.530 . S
C1006 H1018 0.956 . S
C1006 H1019 0.961 1_554 S
C1006 H1020 0.961 . S
C1007 C1004 1.539 . S
C1007 H1021 0.958 . S
C1007 H1022 0.961 . S
C1007 H1023 0.960 1_554 S
H1008 C992 0.931 . S
H1009 C997 0.940 . S
H1010 C998 0.960 . S
H1011 C998 0.962 . S
H1012 C998 0.957 1_556 S
H1013 C999 0.961 . S
H1014 C999 0.961 . S
H1015 C999 0.961 . S
H1016 C1000 0.931 . S
H1017 C1005 0.930 . S
H1018 C1006 0.956 . S
H1019 C1006 0.961 1_556 S
H1020 C1006 0.961 . S
H1021 C1007 0.958 . S
H1022 C1007 0.961 . S
H1023 C1007 0.960 1_556 S
C1024 C1025 1.391 . S
C1024 C1026 1.394 1_565 S
C1024 H1040 0.931 . S
C1025 C1024 1.391 . S
C1025 C1029 1.376 . S
C1026 C1024 1.394 1_545 S
C1026 C1027 1.369 . S
C1026 C1030 1.531 . S
C1027 C1026 1.369 . S
C1027 C1028 1.410 1_545 S
C1027 C1035 1.503 . S
C1028 C1027 1.410 1_565 S
C1028 C1029 1.392 . S
C1028 C1031 1.511 . S
C1029 C1025 1.376 . S
C1029 C1028 1.392 . S
C1029 H1041 0.929 . S
C1030 C1026 1.531 . S
C1030 H1042 0.960 . S
C1030 H1043 0.962 . S
C1030 H1044 0.960 . S
C1031 C1028 1.511 . S
C1031 H1045 0.961 . S
C1031 H1046 0.961 . S
C1031 H1047 0.961 . S
C1032 C1033 1.370 . S
C1032 C1034 1.363 1_545 S
C1032 H1048 0.931 1_545 S
C1033 C1032 1.370 . S
C1033 C1037 1.408 . S
C1034 C1032 1.363 1_565 S
C1034 C1035 1.370 1_565 S
C1034 C1038 1.524 . S
C1035 C1027 1.503 . S
C1035 C1034 1.370 1_545 S
C1035 C1036 1.403 . S
C1036 C1035 1.403 . S
C1036 C1037 1.404 . S
C1036 C1039 1.539 . S
C1037 C1033 1.408 . S
C1037 C1036 1.404 . S
C1037 H1049 0.930 . S
C1038 C1034 1.524 . S
C1038 H1050 0.956 . S
C1038 H1051 0.961 . S
C1038 H1052 0.961 . S
C1039 C1036 1.539 . S
C1039 H1053 0.958 . S
C1039 H1054 0.961 . S
C1039 H1055 0.960 . S
H1040 C1024 0.931 . S
H1041 C1029 0.929 . S
H1042 C1030 0.960 . S
H1043 C1030 0.962 . S
H1044 C1030 0.960 . S
H1045 C1031 0.961 . S
H1046 C1031 0.961 . S
H1047 C1031 0.961 . S
H1048 C1032 0.931 1_565 S
H1049 C1037 0.930 . S
H1050 C1038 0.956 . S
H1051 C1038 0.961 . S
H1052 C1038 0.961 . S
H1053 C1039 0.958 . S
H1054 C1039 0.961 . S
H1055 C1039 0.960 . S
C1056 C1057 1.391 . S
C1056 C1058 1.394 1_545 S
C1056 H1072 0.931 1_545 S
C1057 C1056 1.391 . S
C1057 C1061 1.376 . S
C1058 C1056 1.394 1_565 S
C1058 C1059 1.369 1_565 S
C1058 C1062 1.531 . S
C1059 C1058 1.369 1_545 S
C1059 C1060 1.410 . S
C1059 C1067 1.503 . S
C1060 C1059 1.410 . S
C1060 C1061 1.392 . S
C1060 C1063 1.511 . S
C1061 C1057 1.376 . S
C1061 C1060 1.392 . S
C1061 H1073 0.929 . S
C1062 C1058 1.531 . S
C1062 H1074 0.960 . S
C1062 H1075 0.962 . S
C1062 H1076 0.960 . S
C1063 C1060 1.511 . S
C1063 H1077 0.961 . S
C1063 H1078 0.961 . S
C1063 H1079 0.961 . S
C1064 C1065 1.370 1_545 S
C1064 C1066 1.363 . S
C1064 H1080 0.931 . S
C1065 C1064 1.370 1_565 S
C1065 C1069 1.408 . S
C1066 C1064 1.363 . S
C1066 C1067 1.370 . S
C1066 C1070 1.524 . S
C1067 C1059 1.503 . S
C1067 C1066 1.370 . S
C1067 C1068 1.403 1_545 S
C1068 C1067 1.403 1_565 S
C1068 C1069 1.404 . S
C1068 C1071 1.539 . S
C1069 C1065 1.408 . S
C1069 C1068 1.404 . S
C1069 H1081 0.930 . S
C1070 C1066 1.524 . S
C1070 H1082 0.956 . S
C1070 H1083 0.961 . S
C1070 H1084 0.961 . S
C1071 C1068 1.539 . S
C1071 H1085 0.958 . S
C1071 H1086 0.961 . S
C1071 H1087 0.960 . S
H1072 C1056 0.931 1_565 S
H1073 C1061 0.929 . S
H1074 C1062 0.960 . S
H1075 C1062 0.962 . S
H1076 C1062 0.960 . S
H1077 C1063 0.961 . S
H1078 C1063 0.961 . S
H1079 C1063 0.961 . S
H1080 C1064 0.931 . S
H1081 C1069 0.930 . S
H1082 C1070 0.956 . S
H1083 C1070 0.961 . S
H1084 C1070 0.961 . S
H1085 C1071 0.958 . S
H1086 C1071 0.961 . S
H1087 C1071 0.960 . S
C1088 C1089 1.391 . S
C1088 C1090 1.394 . S
C1088 H1104 0.931 . S
C1089 C1088 1.391 . S
C1089 C1093 1.376 . S
C1090 C1088 1.394 . S
C1090 C1091 1.369 . S
C1090 C1094 1.531 . S
C1091 C1090 1.369 . S
C1091 C1092 1.410 . S
C1091 C1099 1.503 . S
C1092 C1091 1.410 . S
C1092 C1093 1.392 . S
C1092 C1095 1.511 . S
C1093 C1089 1.376 . S
C1093 C1092 1.392 . S
C1093 H1105 0.929 . S
C1094 C1090 1.531 . S
C1094 H1106 0.960 . S
C1094 H1107 0.962 . S
C1094 H1108 0.960 . S
C1095 C1092 1.511 . S
C1095 H1109 0.961 . S
C1095 H1110 0.961 . S
C1095 H1111 0.961 . S
C1096 C1097 1.370 . S
C1096 C1098 1.363 . S
C1096 H1112 0.931 . S
C1097 C1096 1.370 . S
C1097 C1101 1.408 . S
C1098 C1096 1.363 . S
C1098 C1099 1.370 . S
C1098 C1102 1.524 . S
C1099 C1091 1.503 . S
C1099 C1098 1.370 . S
C1099 C1100 1.403 . S
C1100 C1099 1.403 . S
C1100 C1101 1.404 . S
C1100 C1103 1.539 . S
C1101 C1097 1.408 . S
C1101 C1100 1.404 . S
C1101 H1113 0.930 . S
C1102 C1098 1.524 . S
C1102 H1114 0.956 . S
C1102 H1115 0.961 . S
C1102 H1116 0.961 . S
C1103 C1100 1.539 . S
C1103 H1117 0.958 . S
C1103 H1118 0.961 . S
C1103 H1119 0.960 . S
H1104 C1088 0.931 . S
H1105 C1093 0.929 . S
H1106 C1094 0.960 . S
H1107 C1094 0.962 . S
H1108 C1094 0.960 . S
H1109 C1095 0.961 . S
H1110 C1095 0.961 . S
H1111 C1095 0.961 . S
H1112 C1096 0.931 . S
H1113 C1101 0.930 . S
H1114 C1102 0.956 . S
H1115 C1102 0.961 . S
H1116 C1102 0.961 . S
H1117 C1103 0.958 . S
H1118 C1103 0.961 . S
H1119 C1103 0.960 . S
C1120 C1121 1.391 . S
C1120 C1122 1.394 . S
C1120 H1136 0.931 . S
C1121 C1120 1.391 . S
C1121 C1125 1.376 . S
C1122 C1120 1.394 . S
C1122 C1123 1.369 . S
C1122 C1126 1.531 . S
C1123 C1122 1.369 . S
C1123 C1124 1.410 . S
C1123 C1131 1.503 . S
C1124 C1123 1.410 . S
C1124 C1125 1.392 . S
C1124 C1127 1.511 . S
C1125 C1121 1.376 . S
C1125 C1124 1.392 . S
C1125 H1137 0.929 . S
C1126 C1122 1.531 . S
C1126 H1138 0.960 . S
C1126 H1139 0.962 . S
C1126 H1140 0.960 . S
C1127 C1124 1.511 . S
C1127 H1141 0.961 . S
C1127 H1142 0.961 . S
C1127 H1143 0.961 . S
C1128 C1129 1.370 . S
C1128 C1130 1.363 . S
C1128 H1144 0.931 . S
C1129 C1128 1.370 . S
C1129 C1133 1.408 . S
C1130 C1128 1.363 . S
C1130 C1131 1.370 . S
C1130 C1134 1.524 . S
C1131 C1123 1.503 . S
C1131 C1130 1.370 . S
C1131 C1132 1.403 . S
C1132 C1131 1.403 . S
C1132 C1133 1.404 . S
C1132 C1135 1.539 . S
C1133 C1129 1.408 . S
C1133 C1132 1.404 . S
C1133 H1145 0.930 . S
C1134 C1130 1.524 . S
C1134 H1146 0.956 . S
C1134 H1147 0.961 . S
C1134 H1148 0.961 . S
C1135 C1132 1.539 . S
C1135 H1149 0.958 . S
C1135 H1150 0.961 . S
C1135 H1151 0.960 . S
H1136 C1120 0.931 . S
H1137 C1125 0.929 . S
H1138 C1126 0.960 . S
H1139 C1126 0.962 . S
H1140 C1126 0.960 . S
H1141 C1127 0.961 . S
H1142 C1127 0.961 . S
H1143 C1127 0.961 . S
H1144 C1128 0.931 . S
H1145 C1133 0.930 . S
H1146 C1134 0.956 . S
H1147 C1134 0.961 . S
H1148 C1134 0.961 . S
H1149 C1135 0.958 . S
H1150 C1135 0.961 . S
H1151 C1135 0.960 . S
C1152 C1153 1.391 1_455 S
C1152 C1154 1.394 . S
C1152 H1168 0.931 . S
C1153 C1152 1.391 1_655 S
C1153 C1157 1.376 . S
C1154 C1152 1.394 . S
C1154 C1155 1.369 . S
C1154 C1158 1.531 . S
C1155 C1154 1.369 . S
C1155 C1156 1.410 1_455 S
C1155 C1163 1.503 . S
C1156 C1155 1.410 1_655 S
C1156 C1157 1.392 . S
C1156 C1159 1.511 . S
C1157 C1153 1.376 . S
C1157 C1156 1.392 . S
C1157 H1169 0.929 . S
C1158 C1154 1.531 . S
C1158 H1170 0.960 . S
C1158 H1171 0.962 . S
C1158 H1172 0.960 . S
C1159 C1156 1.511 . S
C1159 H1173 0.961 . S
C1159 H1174 0.961 . S
C1159 H1175 0.961 . S
C1160 C1161 1.370 . S
C1160 C1162 1.363 . S
C1160 H1176 0.931 . S
C1161 C1160 1.370 . S
C1161 C1165 1.408 . S
C1162 C1160 1.363 . S
C1162 C1163 1.370 . S
C1162 C1166 1.524 . S
C1163 C1155 1.503 . S
C1163 C1162 1.370 . S
C1163 C1164 1.403 . S
C1164 C1163 1.403 . S
C1164 C1165 1.404 . S
C1164 C1167 1.539 1_455 S
C1165 C1161 1.408 . S
C1165 C1164 1.404 . S
C1165 H1177 0.930 . S
C1166 C1162 1.524 . S
C1166 H1178 0.956 . S
C1166 H1179 0.961 . S
C1166 H1180 0.961 . S
C1167 C1164 1.539 1_655 S
C1167 H1181 0.958 1_655 S
C1167 H1182 0.961 . S
C1167 H1183 0.960 . S
H1168 C1152 0.931 . S
H1169 C1157 0.929 . S
H1170 C1158 0.960 . S
H1171 C1158 0.962 . S
H1172 C1158 0.960 . S
H1173 C1159 0.961 . S
H1174 C1159 0.961 . S
H1175 C1159 0.961 . S
H1176 C1160 0.931 . S
H1177 C1165 0.930 . S
H1178 C1166 0.956 . S
H1179 C1166 0.961 . S
H1180 C1166 0.961 . S
H1181 C1167 0.958 1_455 S
H1182 C1167 0.961 . S
H1183 C1167 0.960 . S
C1184 C1185 1.391 . S
C1184 C1186 1.394 . S
C1184 H1200 0.931 . S
C1185 C1184 1.391 . S
C1185 C1189 1.376 . S
C1186 C1184 1.394 . S
C1186 C1187 1.369 . S
C1186 C1190 1.531 . S
C1187 C1186 1.369 . S
C1187 C1188 1.410 . S
C1187 C1195 1.503 . S
C1188 C1187 1.410 . S
C1188 C1189 1.392 . S
C1188 C1191 1.511 . S
C1189 C1185 1.376 . S
C1189 C1188 1.392 . S
C1189 H1201 0.929 . S
C1190 C1186 1.531 . S
C1190 H1202 0.960 . S
C1190 H1203 0.962 . S
C1190 H1204 0.960 . S
C1191 C1188 1.511 . S
C1191 H1205 0.961 . S
C1191 H1206 0.961 . S
C1191 H1207 0.961 . S
C1192 C1193 1.370 . S
C1192 C1194 1.363 . S
C1192 H1208 0.931 . S
C1193 C1192 1.370 . S
C1193 C1197 1.408 . S
C1194 C1192 1.363 . S
C1194 C1195 1.370 . S
C1194 C1198 1.524 . S
C1195 C1187 1.503 . S
C1195 C1194 1.370 . S
C1195 C1196 1.403 . S
C1196 C1195 1.403 . S
C1196 C1197 1.404 . S
C1196 C1199 1.539 . S
C1197 C1193 1.408 . S
C1197 C1196 1.404 . S
C1197 H1209 0.930 . S
C1198 C1194 1.524 . S
C1198 H1210 0.956 . S
C1198 H1211 0.961 . S
C1198 H1212 0.961 . S
C1199 C1196 1.539 . S
C1199 H1213 0.958 . S
C1199 H1214 0.961 . S
C1199 H1215 0.960 . S
H1200 C1184 0.931 . S
H1201 C1189 0.929 . S
H1202 C1190 0.960 . S
H1203 C1190 0.962 . S
H1204 C1190 0.960 . S
H1205 C1191 0.961 . S
H1206 C1191 0.961 . S
H1207 C1191 0.961 . S
H1208 C1192 0.931 . S
H1209 C1197 0.930 . S
H1210 C1198 0.956 . S
H1211 C1198 0.961 . S
H1212 C1198 0.961 . S
H1213 C1199 0.958 . S
H1214 C1199 0.961 . S
H1215 C1199 0.960 . S
C1216 C1217 1.391 . S
C1216 C1218 1.394 . S
C1216 H1232 0.931 . S
C1217 C1216 1.391 . S
C1217 C1221 1.376 . S
C1218 C1216 1.394 . S
C1218 C1219 1.369 . S
C1218 C1222 1.531 . S
C1219 C1218 1.369 . S
C1219 C1220 1.410 1_455 S
C1219 C1227 1.503 . S
C1220 C1219 1.410 1_655 S
C1220 C1221 1.392 1_655 S
C1220 C1223 1.511 . S
C1221 C1217 1.376 . S
C1221 C1220 1.392 1_455 S
C1221 H1233 0.929 1_455 S
C1222 C1218 1.531 . S
C1222 H1234 0.960 . S
C1222 H1235 0.962 . S
C1222 H1236 0.960 . S
C1223 C1220 1.511 . S
C1223 H1237 0.961 . S
C1223 H1238 0.961 . S
C1223 H1239 0.961 . S
C1224 C1225 1.370 1_455 S
C1224 C1226 1.363 . S
C1224 H1240 0.931 . S
C1225 C1224 1.370 1_655 S
C1225 C1229 1.408 . S
C1226 C1224 1.363 . S
C1226 C1227 1.370 . S
C1226 C1230 1.524 . S
C1227 C1219 1.503 . S
C1227 C1226 1.370 . S
C1227 C1228 1.403 1_455 S
C1228 C1227 1.403 1_655 S
C1228 C1229 1.404 . S
C1228 C1231 1.539 . S
C1229 C1225 1.408 . S
C1229 C1228 1.404 . S
C1229 H1241 0.930 . S
C1230 C1226 1.524 . S
C1230 H1242 0.956 . S
C1230 H1243 0.961 . S
C1230 H1244 0.961 . S
C1231 C1228 1.539 . S
C1231 H1245 0.958 . S
C1231 H1246 0.961 . S
C1231 H1247 0.960 . S
H1232 C1216 0.931 . S
H1233 C1221 0.929 1_655 S
H1234 C1222 0.960 . S
H1235 C1222 0.962 . S
H1236 C1222 0.960 . S
H1237 C1223 0.961 . S
H1238 C1223 0.961 . S
H1239 C1223 0.961 . S
H1240 C1224 0.931 . S
H1241 C1229 0.930 . S
H1242 C1230 0.956 . S
H1243 C1230 0.961 . S
H1244 C1230 0.961 . S
H1245 C1231 0.958 . S
H1246 C1231 0.961 . S
H1247 C1231 0.960 . S
C1248 C1249 1.391 . S
C1248 C1250 1.394 . S
C1248 H1264 0.931 . S
C1249 C1248 1.391 . S
C1249 C1253 1.376 . S
C1250 C1248 1.394 . S
C1250 C1251 1.369 . S
C1250 C1254 1.531 1_545 S
C1251 C1250 1.369 . S
C1251 C1252 1.410 . S
C1251 C1259 1.503 . S
C1252 C1251 1.410 . S
C1252 C1253 1.392 . S
C1252 C1255 1.511 . S
C1253 C1249 1.376 . S
C1253 C1252 1.392 . S
C1253 H1265 0.929 . S
C1254 C1250 1.531 1_565 S
C1254 H1266 0.960 1_565 S
C1254 H1267 0.962 . S
C1254 H1268 0.960 1_565 S
C1255 C1252 1.511 . S
C1255 H1269 0.961 . S
C1255 H1270 0.961 . S
C1255 H1271 0.961 . S
C1256 C1257 1.370 . S
C1256 C1258 1.363 . S
C1256 H1272 0.931 . S
C1257 C1256 1.370 . S
C1257 C1261 1.408 1_565 S
C1258 C1256 1.363 . S
C1258 C1259 1.370 1_565 S
C1258 C1262 1.524 . S
C1259 C1251 1.503 . S
C1259 C1258 1.370 1_545 S
C1259 C1260 1.403 . S
C1260 C1259 1.403 . S
C1260 C1261 1.404 . S
C1260 C1263 1.539 . S
C1261 C1257 1.408 1_545 S
C1261 C1260 1.404 . S
C1261 H1273 0.930 . S
C1262 C1258 1.524 . S
C1262 H1274 0.956 . S
C1262 H1275 0.961 . S
C1262 H1276 0.961 . S
C1263 C1260 1.539 . S
C1263 H1277 0.958 . S
C1263 H1278 0.961 . S
C1263 H1279 0.960 . S
H1264 C1248 0.931 . S
H1265 C1253 0.929 . S
H1266 C1254 0.960 1_545 S
H1267 C1254 0.962 . S
H1268 C1254 0.960 1_545 S
H1269 C1255 0.961 . S
H1270 C1255 0.961 . S
H1271 C1255 0.961 . S
H1272 C1256 0.931 . S
H1273 C1261 0.930 . S
H1274 C1262 0.956 . S
H1275 C1262 0.961 . S
H1276 C1262 0.961 . S
H1277 C1263 0.958 . S
H1278 C1263 0.961 . S
H1279 C1263 0.960 . S
C1280 C1281 1.391 . S
C1280 C1282 1.394 . S
C1280 H1296 0.931 . S
C1281 C1280 1.391 . S
C1281 C1285 1.376 . S
C1282 C1280 1.394 . S
C1282 C1283 1.369 . S
C1282 C1286 1.531 . S
C1283 C1282 1.369 . S
C1283 C1284 1.410 . S
C1283 C1291 1.503 . S
C1284 C1283 1.410 . S
C1284 C1285 1.392 . S
C1284 C1287 1.511 . S
C1285 C1281 1.376 . S
C1285 C1284 1.392 . S
C1285 H1297 0.929 . S
C1286 C1282 1.531 . S
C1286 H1298 0.960 . S
C1286 H1299 0.962 . S
C1286 H1300 0.960 . S
C1287 C1284 1.511 . S
C1287 H1301 0.961 . S
C1287 H1302 0.961 . S
C1287 H1303 0.961 . S
C1288 C1289 1.370 . S
C1288 C1290 1.363 . S
C1288 H1304 0.931 . S
C1289 C1288 1.370 . S
C1289 C1293 1.408 . S
C1290 C1288 1.363 . S
C1290 C1291 1.370 . S
C1290 C1294 1.524 . S
C1291 C1283 1.503 . S
C1291 C1290 1.370 . S
C1291 C1292 1.403 . S
C1292 C1291 1.403 . S
C1292 C1293 1.404 . S
C1292 C1295 1.539 . S
C1293 C1289 1.408 . S
C1293 C1292 1.404 . S
C1293 H1305 0.930 . S
C1294 C1290 1.524 . S
C1294 H1306 0.956 . S
C1294 H1307 0.961 . S
C1294 H1308 0.961 . S
C1295 C1292 1.539 . S
C1295 H1309 0.958 . S
C1295 H1310 0.961 . S
C1295 H1311 0.960 . S
H1296 C1280 0.931 . S
H1297 C1285 0.929 . S
H1298 C1286 0.960 . S
H1299 C1286 0.962 . S
H1300 C1286 0.960 . S
H1301 C1287 0.961 . S
H1302 C1287 0.961 . S
H1303 C1287 0.961 . S
H1304 C1288 0.931 . S
H1305 C1293 0.930 . S
H1306 C1294 0.956 . S
H1307 C1294 0.961 . S
H1308 C1294 0.961 . S
H1309 C1295 0.958 . S
H1310 C1295 0.961 . S
H1311 C1295 0.960 . S
C1312 C1313 1.391 . S
C1312 C1314 1.394 1_545 S
C1312 H1328 0.931 . S
C1313 C1312 1.391 . S
C1313 C1317 1.376 1_545 S
C1314 C1312 1.394 1_565 S
C1314 C1315 1.369 . S
C1314 C1318 1.531 . S
C1315 C1314 1.369 . S
C1315 C1316 1.410 . S
C1315 C1323 1.503 . S
C1316 C1315 1.410 . S
C1316 C1317 1.392 . S
C1316 C1319 1.511 . S
C1317 C1313 1.376 1_565 S
C1317 C1316 1.392 . S
C1317 H1329 0.929 . S
C1318 C1314 1.531 . S
C1318 H1330 0.960 . S
C1318 H1331 0.962 1_565 S
C1318 H1332 0.960 . S
C1319 C1316 1.511 . S
C1319 H1333 0.961 . S
C1319 H1334 0.961 . S
C1319 H1335 0.961 . S
C1320 C1321 1.370 . S
C1320 C1322 1.363 1_565 S
C1320 H1336 0.931 1_565 S
C1321 C1320 1.370 . S
C1321 C1325 1.408 . S
C1322 C1320 1.363 1_545 S
C1322 C1323 1.370 1_545 S
C1322 C1326 1.524 . S
C1323 C1315 1.503 . S
C1323 C1322 1.370 1_565 S
C1323 C1324 1.403 . S
C1324 C1323 1.403 . S
C1324 C1325 1.404 . S
C1324 C1327 1.539 . S
C1325 C1321 1.408 . S
C1325 C1324 1.404 . S
C1325 H1337 0.930 . S
C1326 C1322 1.524 . S
C1326 H1338 0.956 . S
C1326 H1339 0.961 . S
C1326 H1340 0.961 . S
C1327 C1324 1.539 . S
C1327 H1341 0.958 . S
C1327 H1342 0.961 . S
C1327 H1343 0.960 . S
H1328 C1312 0.931 . S
H1329 C1317 0.929 . S
H1330 C1318 0.960 . S
H1331 C1318 0.962 1_545 S
H1332 C1318 0.960 . S
H1333 C1319 0.961 . S
H1334 C1319 0.961 . S
H1335 C1319 0.961 . S
H1336 C1320 0.931 1_545 S
H1337 C1325 0.930 . S
H1338 C1326 0.956 . S
H1339 C1326 0.961 . S
H1340 C1326 0.961 . S
H1341 C1327 0.958 . S
H1342 C1327 0.961 . S
H1343 C1327 0.960 . S
C1344 C1345 1.391 . S
C1344 C1346 1.394 . S
C1344 H1360 0.931 . S
C1345 C1344 1.391 . S
C1345 C1349 1.376 . S
C1346 C1344 1.394 . S
C1346 C1347 1.369 . S
C1346 C1350 1.531 . S
C1347 C1346 1.369 . S
C1347 C1348 1.410 . S
C1347 C1355 1.503 . S
C1348 C1347 1.410 . S
C1348 C1349 1.392 . S
C1348 C1351 1.511 . S
C1349 C1345 1.376 . S
C1349 C1348 1.392 . S
C1349 H1361 0.929 . S
C1350 C1346 1.531 . S
C1350 H1362 0.960 . S
C1350 H1363 0.962 . S
C1350 H1364 0.960 . S
C1351 C1348 1.511 . S
C1351 H1365 0.961 . S
C1351 H1366 0.961 . S
C1351 H1367 0.961 . S
C1352 C1353 1.370 . S
C1352 C1354 1.363 . S
C1352 H1368 0.931 . S
C1353 C1352 1.370 . S
C1353 C1357 1.408 . S
C1354 C1352 1.363 . S
C1354 C1355 1.370 . S
C1354 C1358 1.524 . S
C1355 C1347 1.503 . S
C1355 C1354 1.370 . S
C1355 C1356 1.403 . S
C1356 C1355 1.403 . S
C1356 C1357 1.404 . S
C1356 C1359 1.539 . S
C1357 C1353 1.408 . S
C1357 C1356 1.404 . S
C1357 H1369 0.930 . S
C1358 C1354 1.524 . S
C1358 H1370 0.956 . S
C1358 H1371 0.961 . S
C1358 H1372 0.961 . S
C1359 C1356 1.539 . S
C1359 H1373 0.958 . S
C1359 H1374 0.961 . S
C1359 H1375 0.960 . S
H1360 C1344 0.931 . S
H1361 C1349 0.929 . S
H1362 C1350 0.960 . S
H1363 C1350 0.962 . S
H1364 C1350 0.960 . S
H1365 C1351 0.961 . S
H1366 C1351 0.961 . S
H1367 C1351 0.961 . S
H1368 C1352 0.931 . S
H1369 C1357 0.930 . S
H1370 C1358 0.956 . S
H1371 C1358 0.961 . S
H1372 C1358 0.961 . S
H1373 C1359 0.958 . S
H1374 C1359 0.961 . S
H1375 C1359 0.960 . S
C1376 C1377 1.391 . S
C1376 C1378 1.394 . S
C1376 H1392 0.931 . S
C1377 C1376 1.391 . S
C1377 C1381 1.376 . S
C1378 C1376 1.394 . S
C1378 C1379 1.369 . S
C1378 C1382 1.531 . S
C1379 C1378 1.369 . S
C1379 C1380 1.410 . S
C1379 C1387 1.503 . S
C1380 C1379 1.410 . S
C1380 C1381 1.392 . S
C1380 C1383 1.511 . S
C1381 C1377 1.376 . S
C1381 C1380 1.392 . S
C1381 H1393 0.929 . S
C1382 C1378 1.531 . S
C1382 H1394 0.960 . S
C1382 H1395 0.962 . S
C1382 H1396 0.960 . S
C1383 C1380 1.511 . S
C1383 H1397 0.961 . S
C1383 H1398 0.961 . S
C1383 H1399 0.961 . S
C1384 C1385 1.370 . S
C1384 C1386 1.363 . S
C1384 H1400 0.931 . S
C1385 C1384 1.370 . S
C1385 C1389 1.408 . S
C1386 C1384 1.363 . S
C1386 C1387 1.370 . S
C1386 C1390 1.524 . S
C1387 C1379 1.503 . S
C1387 C1386 1.370 . S
C1387 C1388 1.403 . S
C1388 C1387 1.403 . S
C1388 C1389 1.404 . S
C1388 C1391 1.539 . S
C1389 C1385 1.408 . S
C1389 C1388 1.404 . S
C1389 H1401 0.930 . S
C1390 C1386 1.524 . S
C1390 H1402 0.956 . S
C1390 H1403 0.961 . S
C1390 H1404 0.961 . S
C1391 C1388 1.539 . S
C1391 H1405 0.958 . S
C1391 H1406 0.961 . S
C1391 H1407 0.960 . S
H1392 C1376 0.931 . S
H1393 C1381 0.929 . S
H1394 C1382 0.960 . S
H1395 C1382 0.962 . S
H1396 C1382 0.960 . S
H1397 C1383 0.961 . S
H1398 C1383 0.961 . S
H1399 C1383 0.961 . S
H1400 C1384 0.931 . S
H1401 C1389 0.930 . S
H1402 C1390 0.956 . S
H1403 C1390 0.961 . S
H1404 C1390 0.961 . S
H1405 C1391 0.958 . S
H1406 C1391 0.961 . S
H1407 C1391 0.960 . S
C1408 C1409 1.391 . S
C1408 C1410 1.394 . S
C1408 H1424 0.931 . S
C1409 C1408 1.391 . S
C1409 C1413 1.376 1_455 S
C1410 C1408 1.394 . S
C1410 C1411 1.369 1_455 S
C1410 C1414 1.531 . S
C1411 C1410 1.369 1_655 S
C1411 C1412 1.410 . S
C1411 C1419 1.503 . S
C1412 C1411 1.410 . S
C1412 C1413 1.392 . S
C1412 C1415 1.511 . S
C1413 C1409 1.376 1_655 S
C1413 C1412 1.392 . S
C1413 H1425 0.929 . S
C1414 C1410 1.531 . S
C1414 H1426 0.960 . S
C1414 H1427 0.962 . S
C1414 H1428 0.960 . S
C1415 C1412 1.511 . S
C1415 H1429 0.961 . S
C1415 H1430 0.961 . S
C1415 H1431 0.961 . S
C1416 C1417 1.370 . S
C1416 C1418 1.363 . S
C1416 H1432 0.931 . S
C1417 C1416 1.370 . S
C1417 C1421 1.408 . S
C1418 C1416 1.363 . S
C1418 C1419 1.370 . S
C1418 C1422 1.524 1_655 S
C1419 C1411 1.503 . S
C1419 C1418 1.370 . S
C1419 C1420 1.403 . S
C1420 C1419 1.403 . S
C1420 C1421 1.404 . S
C1420 C1423 1.539 . S
C1421 C1417 1.408 . S
C1421 C1420 1.404 . S
C1421 H1433 0.930 . S
C1422 C1418 1.524 1_455 S
C1422 H1434 0.956 . S
C1422 H1435 0.956 1_455 S
C1422 H1436 0.961 . S
C1423 C1420 1.539 . S
C1423 H1437 0.958 . S
C1423 H1438 0.961 . S
C1423 H1439 0.960 . S
H1424 C1408 0.931 . S
H1425 C1413 0.929 . S
H1426 C1414 0.960 . S
H1427 C1414 0.962 . S
H1428 C1414 0.960 . S
H1429 C1415 0.961 . S
H1430 C1415 0.961 . S
H1431 C1415 0.961 . S
H1432 C1416 0.931 . S
H1433 C1421 0.930 . S
H1434 C1422 0.956 . S
H1435 C1422 0.956 1_655 S
H1436 C1422 0.961 . S
H1437 C1423 0.958 . S
H1438 C1423 0.961 . S
H1439 C1423 0.960 . S
C1440 C1441 1.391 . S
C1440 C1442 1.394 . S
C1440 H1456 0.931 . S
C1441 C1440 1.391 . S
C1441 C1445 1.376 . S
C1442 C1440 1.394 . S
C1442 C1443 1.369 . S
C1442 C1446 1.531 . S
C1443 C1442 1.369 . S
C1443 C1444 1.410 . S
C1443 C1451 1.503 . S
C1444 C1443 1.410 . S
C1444 C1445 1.392 . S
C1444 C1447 1.511 . S
C1445 C1441 1.376 . S
C1445 C1444 1.392 . S
C1445 H1457 0.929 . S
C1446 C1442 1.531 . S
C1446 H1458 0.960 . S
C1446 H1459 0.962 . S
C1446 H1460 0.960 . S
C1447 C1444 1.511 . S
C1447 H1461 0.961 . S
C1447 H1462 0.961 . S
C1447 H1463 0.961 . S
C1448 C1449 1.370 . S
C1448 C1450 1.363 . S
C1448 H1464 0.931 . S
C1449 C1448 1.370 . S
C1449 C1453 1.408 . S
C1450 C1448 1.363 . S
C1450 C1451 1.370 . S
C1450 C1454 1.524 . S
C1451 C1443 1.503 . S
C1451 C1450 1.370 . S
C1451 C1452 1.403 . S
C1452 C1451 1.403 . S
C1452 C1453 1.404 . S
C1452 C1455 1.539 . S
C1453 C1449 1.408 . S
C1453 C1452 1.404 . S
C1453 H1465 0.930 . S
C1454 C1450 1.524 . S
C1454 H1466 0.956 . S
C1454 H1467 0.961 . S
C1454 H1468 0.961 . S
C1455 C1452 1.539 . S
C1455 H1469 0.958 . S
C1455 H1470 0.961 . S
C1455 H1471 0.960 . S
H1456 C1440 0.931 . S
H1457 C1445 0.929 . S
H1458 C1446 0.960 . S
H1459 C1446 0.962 . S
H1460 C1446 0.960 . S
H1461 C1447 0.961 . S
H1462 C1447 0.961 . S
H1463 C1447 0.961 . S
H1464 C1448 0.931 . S
H1465 C1453 0.930 . S
H1466 C1454 0.956 . S
H1467 C1454 0.961 . S
H1468 C1454 0.961 . S
H1469 C1455 0.958 . S
H1470 C1455 0.961 . S
H1471 C1455 0.960 . S
C1472 C1473 1.391 1_655 S
C1472 C1474 1.394 . S
C1472 H1488 0.931 . S
C1473 C1472 1.391 1_455 S
C1473 C1477 1.376 . S
C1474 C1472 1.394 . S
C1474 C1475 1.369 . S
C1474 C1478 1.531 . S
C1475 C1474 1.369 . S
C1475 C1476 1.410 . S
C1475 C1483 1.503 . S
C1476 C1475 1.410 . S
C1476 C1477 1.392 1_655 S
C1476 C1479 1.511 . S
C1477 C1473 1.376 . S
C1477 C1476 1.392 1_455 S
C1477 H1489 0.929 . S
C1478 C1474 1.531 . S
C1478 H1490 0.960 . S
C1478 H1491 0.962 . S
C1478 H1492 0.960 . S
C1479 C1476 1.511 . S
C1479 H1493 0.961 1_655 S
C1479 H1494 0.961 1_655 S
C1479 H1495 0.961 . S
C1480 C1481 1.370 . S
C1480 C1482 1.363 1_655 S
C1480 H1496 0.931 1_655 S
C1481 C1480 1.370 . S
C1481 C1485 1.408 . S
C1482 C1480 1.363 1_455 S
C1482 C1483 1.370 1_455 S
C1482 C1486 1.524 . S
C1483 C1475 1.503 . S
C1483 C1482 1.370 1_655 S
C1483 C1484 1.403 . S
C1484 C1483 1.403 . S
C1484 C1485 1.404 . S
C1484 C1487 1.539 . S
C1485 C1481 1.408 . S
C1485 C1484 1.404 . S
C1485 H1497 0.930 . S
C1486 C1482 1.524 . S
C1486 H1498 0.956 . S
C1486 H1499 0.961 . S
C1486 H1500 0.961 . S
C1487 C1484 1.539 . S
C1487 H1501 0.958 . S
C1487 H1502 0.961 . S
C1487 H1503 0.960 . S
H1488 C1472 0.931 . S
H1489 C1477 0.929 . S
H1490 C1478 0.960 . S
H1491 C1478 0.962 . S
H1492 C1478 0.960 . S
H1493 C1479 0.961 1_455 S
H1494 C1479 0.961 1_455 S
H1495 C1479 0.961 . S
H1496 C1480 0.931 1_455 S
H1497 C1485 0.930 . S
H1498 C1486 0.956 . S
H1499 C1486 0.961 . S
H1500 C1486 0.961 . S
H1501 C1487 0.958 . S
H1502 C1487 0.961 . S
H1503 C1487 0.960 . S
C1504 C1505 1.391 . S
C1504 C1506 1.394 . S
C1504 H1520 0.931 . S
C1505 C1504 1.391 . S
C1505 C1509 1.376 . S
C1506 C1504 1.394 . S
C1506 C1507 1.369 . S
C1506 C1510 1.531 . S
C1507 C1506 1.369 . S
C1507 C1508 1.410 1_565 S
C1507 C1515 1.503 . S
C1508 C1507 1.410 1_545 S
C1508 C1509 1.392 1_545 S
C1508 C1511 1.511 . S
C1509 C1505 1.376 . S
C1509 C1508 1.392 1_565 S
C1509 H1521 0.929 1_565 S
C1510 C1506 1.531 . S
C1510 H1522 0.960 . S
C1510 H1523 0.962 . S
C1510 H1524 0.960 . S
C1511 C1508 1.511 . S
C1511 H1525 0.961 . S
C1511 H1526 0.961 . S
C1511 H1527 0.961 . S
C1512 C1513 1.370 1_565 S
C1512 C1514 1.363 . S
C1512 H1528 0.931 . S
C1513 C1512 1.370 1_545 S
C1513 C1517 1.408 . S
C1514 C1512 1.363 . S
C1514 C1515 1.370 . S
C1514 C1518 1.524 . S
C1515 C1507 1.503 . S
C1515 C1514 1.370 . S
C1515 C1516 1.403 1_565 S
C1516 C1515 1.403 1_545 S
C1516 C1517 1.404 . S
C1516 C1519 1.539 . S
C1517 C1513 1.408 . S
C1517 C1516 1.404 . S
C1517 H1529 0.930 . S
C1518 C1514 1.524 . S
C1518 H1530 0.956 . S
C1518 H1531 0.961 . S
C1518 H1532 0.961 . S
C1519 C1516 1.539 . S
C1519 H1533 0.958 . S
C1519 H1534 0.961 . S
C1519 H1535 0.960 . S
H1520 C1504 0.931 . S
H1521 C1509 0.929 1_545 S
H1522 C1510 0.960 . S
H1523 C1510 0.962 . S
H1524 C1510 0.960 . S
H1525 C1511 0.961 . S
H1526 C1511 0.961 . S
H1527 C1511 0.961 . S
H1528 C1512 0.931 . S
H1529 C1517 0.930 . S
H1530 C1518 0.956 . S
H1531 C1518 0.961 . S
H1532 C1518 0.961 . S
H1533 C1519 0.958 . S
H1534 C1519 0.961 . S
H1535 C1519 0.960 . S
C1536 C1537 1.391 . S
C1536 C1538 1.394 . S
C1536 H1552 0.931 . S
C1537 C1536 1.391 . S
C1537 C1541 1.376 . S
C1538 C1536 1.394 . S
C1538 C1539 1.369 . S
C1538 C1542 1.531 . S
C1539 C1538 1.369 . S
C1539 C1540 1.410 . S
C1539 C1547 1.503 . S
C1540 C1539 1.410 . S
C1540 C1541 1.392 . S
C1540 C1543 1.511 . S
C1541 C1537 1.376 . S
C1541 C1540 1.392 . S
C1541 H1553 0.929 . S
C1542 C1538 1.531 . S
C1542 H1554 0.960 . S
C1542 H1555 0.962 . S
C1542 H1556 0.960 . S
C1543 C1540 1.511 . S
C1543 H1557 0.961 . S
C1543 H1558 0.961 . S
C1543 H1559 0.961 . S
C1544 C1545 1.370 . S
C1544 C1546 1.363 . S
C1544 H1560 0.931 . S
C1545 C1544 1.370 . S
C1545 C1549 1.408 . S
C1546 C1544 1.363 . S
C1546 C1547 1.370 . S
C1546 C1550 1.524 . S
C1547 C1539 1.503 . S
C1547 C1546 1.370 . S
C1547 C1548 1.403 . S
C1548 C1547 1.403 . S
C1548 C1549 1.404 . S
C1548 C1551 1.539 . S
C1549 C1545 1.408 . S
C1549 C1548 1.404 . S
C1549 H1561 0.930 . S
C1550 C1546 1.524 . S
C1550 H1562 0.956 . S
C1550 H1563 0.961 . S
C1550 H1564 0.961 . S
C1551 C1548 1.539 . S
C1551 H1565 0.958 . S
C1551 H1566 0.961 . S
C1551 H1567 0.960 . S
H1552 C1536 0.931 . S
H1553 C1541 0.929 . S
H1554 C1542 0.960 . S
H1555 C1542 0.962 . S
H1556 C1542 0.960 . S
H1557 C1543 0.961 . S
H1558 C1543 0.961 . S
H1559 C1543 0.961 . S
H1560 C1544 0.931 . S
H1561 C1549 0.930 . S
H1562 C1550 0.956 . S
H1563 C1550 0.961 . S
H1564 C1550 0.961 . S
H1565 C1551 0.958 . S
H1566 C1551 0.961 . S
H1567 C1551 0.960 . S
C1568 C1569 1.391 . S
C1568 C1570 1.394 . S
C1568 H1584 0.931 . S
C1569 C1568 1.391 . S
C1569 C1573 1.376 . S
C1570 C1568 1.394 . S
C1570 C1571 1.369 . S
C1570 C1574 1.531 . S
C1571 C1570 1.369 . S
C1571 C1572 1.410 . S
C1571 C1579 1.503 . S
C1572 C1571 1.410 . S
C1572 C1573 1.392 . S
C1572 C1575 1.511 . S
C1573 C1569 1.376 . S
C1573 C1572 1.392 . S
C1573 H1585 0.929 . S
C1574 C1570 1.531 . S
C1574 H1586 0.960 . S
C1574 H1587 0.962 . S
C1574 H1588 0.960 . S
C1575 C1572 1.511 . S
C1575 H1589 0.961 . S
C1575 H1590 0.961 . S
C1575 H1591 0.961 . S
C1576 C1577 1.370 . S
C1576 C1578 1.363 . S
C1576 H1592 0.931 . S
C1577 C1576 1.370 . S
C1577 C1581 1.408 . S
C1578 C1576 1.363 . S
C1578 C1579 1.370 . S
C1578 C1582 1.524 . S
C1579 C1571 1.503 . S
C1579 C1578 1.370 . S
C1579 C1580 1.403 . S
C1580 C1579 1.403 . S
C1580 C1581 1.404 . S
C1580 C1583 1.539 . S
C1581 C1577 1.408 . S
C1581 C1580 1.404 . S
C1581 H1593 0.930 . S
C1582 C1578 1.524 . S
C1582 H1594 0.956 . S
C1582 H1595 0.961 . S
C1582 H1596 0.961 . S
C1583 C1580 1.539 . S
C1583 H1597 0.958 . S
C1583 H1598 0.961 . S
C1583 H1599 0.960 . S
H1584 C1568 0.931 . S
H1585 C1573 0.929 . S
H1586 C1574 0.960 . S
H1587 C1574 0.962 . S
H1588 C1574 0.960 . S
H1589 C1575 0.961 . S
H1590 C1575 0.961 . S
H1591 C1575 0.961 . S
H1592 C1576 0.931 . S
H1593 C1581 0.930 . S
H1594 C1582 0.956 . S
H1595 C1582 0.961 . S
H1596 C1582 0.961 . S
H1597 C1583 0.958 . S
H1598 C1583 0.961 . S
H1599 C1583 0.960 . S
C1600 C1601 1.391 . S
C1600 C1602 1.394 . S
C1600 H1616 0.931 . S
C1601 C1600 1.391 . S
C1601 C1605 1.376 . S
C1602 C1600 1.394 . S
C1602 C1603 1.369 . S
C1602 C1606 1.531 . S
C1603 C1602 1.369 . S
C1603 C1604 1.410 . S
C1603 C1611 1.503 . S
C1604 C1603 1.410 . S
C1604 C1605 1.392 . S
C1604 C1607 1.511 . S
C1605 C1601 1.376 . S
C1605 C1604 1.392 . S
C1605 H1617 0.929 . S
C1606 C1602 1.531 . S
C1606 H1618 0.960 . S
C1606 H1619 0.962 . S
C1606 H1620 0.960 . S
C1607 C1604 1.511 . S
C1607 H1621 0.961 . S
C1607 H1622 0.961 . S
C1607 H1623 0.961 . S
C1608 C1609 1.370 . S
C1608 C1610 1.363 . S
C1608 H1624 0.931 . S
C1609 C1608 1.370 . S
C1609 C1613 1.408 . S
C1610 C1608 1.363 . S
C1610 C1611 1.370 . S
C1610 C1614 1.524 . S
C1611 C1603 1.503 . S
C1611 C1610 1.370 . S
C1611 C1612 1.403 . S
C1612 C1611 1.403 . S
C1612 C1613 1.404 . S
C1612 C1615 1.539 . S
C1613 C1609 1.408 . S
C1613 C1612 1.404 . S
C1613 H1625 0.930 . S
C1614 C1610 1.524 . S
C1614 H1626 0.956 . S
C1614 H1627 0.961 . S
C1614 H1628 0.961 . S
C1615 C1612 1.539 . S
C1615 H1629 0.958 . S
C1615 H1630 0.961 . S
C1615 H1631 0.960 . S
H1616 C1600 0.931 . S
H1617 C1605 0.929 . S
H1618 C1606 0.960 . S
H1619 C1606 0.962 . S
H1620 C1606 0.960 . S
H1621 C1607 0.961 . S
H1622 C1607 0.961 . S
H1623 C1607 0.961 . S
H1624 C1608 0.931 . S
H1625 C1613 0.930 . S
H1626 C1614 0.956 . S
H1627 C1614 0.961 . S
H1628 C1614 0.961 . S
H1629 C1615 0.958 . S
H1630 C1615 0.961 . S
H1631 C1615 0.960 . S
C1632 C1633 1.391 . S
C1632 C1634 1.394 . S
C1632 H1648 0.931 . S
C1633 C1632 1.391 . S
C1633 C1637 1.376 . S
C1634 C1632 1.394 . S
C1634 C1635 1.369 . S
C1634 C1638 1.531 . S
C1635 C1634 1.369 . S
C1635 C1636 1.410 . S
C1635 C1643 1.503 . S
C1636 C1635 1.410 . S
C1636 C1637 1.392 . S
C1636 C1639 1.511 . S
C1637 C1633 1.376 . S
C1637 C1636 1.392 . S
C1637 H1649 0.929 . S
C1638 C1634 1.531 . S
C1638 H1650 0.960 . S
C1638 H1651 0.962 . S
C1638 H1652 0.960 . S
C1639 C1636 1.511 . S
C1639 H1653 0.961 . S
C1639 H1654 0.961 . S
C1639 H1655 0.961 . S
C1640 C1641 1.370 . S
C1640 C1642 1.363 . S
C1640 H1656 0.931 . S
C1641 C1640 1.370 . S
C1641 C1645 1.408 . S
C1642 C1640 1.363 . S
C1642 C1643 1.370 . S
C1642 C1646 1.524 . S
C1643 C1635 1.503 . S
C1643 C1642 1.370 . S
C1643 C1644 1.403 . S
C1644 C1643 1.403 . S
C1644 C1645 1.404 . S
C1644 C1647 1.539 . S
C1645 C1641 1.408 . S
C1645 C1644 1.404 . S
C1645 H1657 0.930 . S
C1646 C1642 1.524 . S
C1646 H1658 0.956 . S
C1646 H1659 0.961 . S
C1646 H1660 0.961 . S
C1647 C1644 1.539 . S
C1647 H1661 0.958 . S
C1647 H1662 0.961 . S
C1647 H1663 0.960 . S
H1648 C1632 0.931 . S
H1649 C1637 0.929 . S
H1650 C1638 0.960 . S
H1651 C1638 0.962 . S
H1652 C1638 0.960 . S
H1653 C1639 0.961 . S
H1654 C1639 0.961 . S
H1655 C1639 0.961 . S
H1656 C1640 0.931 . S
H1657 C1645 0.930 . S
H1658 C1646 0.956 . S
H1659 C1646 0.961 . S
H1660 C1646 0.961 . S
H1661 C1647 0.958 . S
H1662 C1647 0.961 . S
H1663 C1647 0.960 . S
C1664 C1665 1.391 . S
C1664 C1666 1.394 . S
C1664 H1680 0.931 . S
C1665 C1664 1.391 . S
C1665 C1669 1.376 . S
C1666 C1664 1.394 . S
C1666 C1667 1.369 . S
C1666 C1670 1.531 . S
C1667 C1666 1.369 . S
C1667 C1668 1.410 . S
C1667 C1675 1.503 . S
C1668 C1667 1.410 . S
C1668 C1669 1.392 . S
C1668 C1671 1.511 . S
C1669 C1665 1.376 . S
C1669 C1668 1.392 . S
C1669 H1681 0.929 . S
C1670 C1666 1.531 . S
C1670 H1682 0.960 . S
C1670 H1683 0.962 . S
C1670 H1684 0.960 . S
C1671 C1668 1.511 . S
C1671 H1685 0.961 . S
C1671 H1686 0.961 . S
C1671 H1687 0.961 . S
C1672 C1673 1.370 . S
C1672 C1674 1.363 . S
C1672 H1688 0.931 . S
C1673 C1672 1.370 . S
C1673 C1677 1.408 . S
C1674 C1672 1.363 . S
C1674 C1675 1.370 . S
C1674 C1678 1.524 . S
C1675 C1667 1.503 . S
C1675 C1674 1.370 . S
C1675 C1676 1.403 . S
C1676 C1675 1.403 . S
C1676 C1677 1.404 . S
C1676 C1679 1.539 . S
C1677 C1673 1.408 . S
C1677 C1676 1.404 . S
C1677 H1689 0.930 . S
C1678 C1674 1.524 . S
C1678 H1690 0.956 . S
C1678 H1691 0.961 . S
C1678 H1692 0.961 . S
C1679 C1676 1.539 . S
C1679 H1693 0.958 . S
C1679 H1694 0.961 . S
C1679 H1695 0.960 . S
H1680 C1664 0.931 . S
H1681 C1669 0.929 . S
H1682 C1670 0.960 . S
H1683 C1670 0.962 . S
H1684 C1670 0.960 . S
H1685 C1671 0.961 . S
H1686 C1671 0.961 . S
H1687 C1671 0.961 . S
H1688 C1672 0.931 . S
H1689 C1677 0.930 . S
H1690 C1678 0.956 . S
H1691 C1678 0.961 . S
H1692 C1678 0.961 . S
H1693 C1679 0.958 . S
H1694 C1679 0.961 . S
H1695 C1679 0.960 . S
C1696 C1697 1.391 . S
C1696 C1698 1.394 . S
C1696 H1712 0.931 . S
C1697 C1696 1.391 . S
C1697 C1701 1.376 . S
C1698 C1696 1.394 . S
C1698 C1699 1.369 . S
C1698 C1702 1.531 . S
C1699 C1698 1.369 . S
C1699 C1700 1.410 . S
C1699 C1707 1.503 . S
C1700 C1699 1.410 . S
C1700 C1701 1.392 . S
C1700 C1703 1.511 . S
C1701 C1697 1.376 . S
C1701 C1700 1.392 . S
C1701 H1713 0.929 . S
C1702 C1698 1.531 . S
C1702 H1714 0.960 . S
C1702 H1715 0.962 . S
C1702 H1716 0.960 . S
C1703 C1700 1.511 . S
C1703 H1717 0.961 . S
C1703 H1718 0.961 . S
C1703 H1719 0.961 . S
C1704 C1705 1.370 . S
C1704 C1706 1.363 . S
C1704 H1720 0.931 . S
C1705 C1704 1.370 . S
C1705 C1709 1.408 . S
C1706 C1704 1.363 . S
C1706 C1707 1.370 . S
C1706 C1710 1.524 . S
C1707 C1699 1.503 . S
C1707 C1706 1.370 . S
C1707 C1708 1.403 . S
C1708 C1707 1.403 . S
C1708 C1709 1.404 . S
C1708 C1711 1.539 . S
C1709 C1705 1.408 . S
C1709 C1708 1.404 . S
C1709 H1721 0.930 . S
C1710 C1706 1.524 . S
C1710 H1722 0.956 . S
C1710 H1723 0.961 . S
C1710 H1724 0.961 . S
C1711 C1708 1.539 . S
C1711 H1725 0.958 . S
C1711 H1726 0.961 . S
C1711 H1727 0.960 . S
H1712 C1696 0.931 . S
H1713 C1701 0.929 . S
H1714 C1702 0.960 . S
H1715 C1702 0.962 . S
H1716 C1702 0.960 . S
H1717 C1703 0.961 . S
H1718 C1703 0.961 . S
H1719 C1703 0.961 . S
H1720 C1704 0.931 . S
H1721 C1709 0.930 . S
H1722 C1710 0.956 . S
H1723 C1710 0.961 . S
H1724 C1710 0.961 . S
H1725 C1711 0.958 . S
H1726 C1711 0.961 . S
H1727 C1711 0.960 . S
C1728 C1729 1.391 . S
C1728 C1730 1.394 . S
C1728 H1744 0.931 . S
C1729 C1728 1.391 . S
C1729 C1733 1.376 . S
C1730 C1728 1.394 . S
C1730 C1731 1.369 . S
C1730 C1734 1.531 . S
C1731 C1730 1.369 . S
C1731 C1732 1.410 . S
C1731 C1739 1.503 . S
C1732 C1731 1.410 . S
C1732 C1733 1.392 . S
C1732 C1735 1.511 . S
C1733 C1729 1.376 . S
C1733 C1732 1.392 . S
C1733 H1745 0.929 . S
C1734 C1730 1.531 . S
C1734 H1746 0.960 . S
C1734 H1747 0.962 . S
C1734 H1748 0.960 . S
C1735 C1732 1.511 . S
C1735 H1749 0.961 . S
C1735 H1750 0.961 . S
C1735 H1751 0.961 . S
C1736 C1737 1.370 . S
C1736 C1738 1.363 . S
C1736 H1752 0.931 . S
C1737 C1736 1.370 . S
C1737 C1741 1.408 . S
C1738 C1736 1.363 . S
C1738 C1739 1.370 . S
C1738 C1742 1.524 . S
C1739 C1731 1.503 . S
C1739 C1738 1.370 . S
C1739 C1740 1.403 . S
C1740 C1739 1.403 . S
C1740 C1741 1.404 . S
C1740 C1743 1.539 . S
C1741 C1737 1.408 . S
C1741 C1740 1.404 . S
C1741 H1753 0.930 . S
C1742 C1738 1.524 . S
C1742 H1754 0.956 . S
C1742 H1755 0.961 . S
C1742 H1756 0.961 . S
C1743 C1740 1.539 . S
C1743 H1757 0.958 . S
C1743 H1758 0.961 . S
C1743 H1759 0.960 . S
H1744 C1728 0.931 . S
H1745 C1733 0.929 . S
H1746 C1734 0.960 . S
H1747 C1734 0.962 . S
H1748 C1734 0.960 . S
H1749 C1735 0.961 . S
H1750 C1735 0.961 . S
H1751 C1735 0.961 . S
H1752 C1736 0.931 . S
H1753 C1741 0.930 . S
H1754 C1742 0.956 . S
H1755 C1742 0.961 . S
H1756 C1742 0.961 . S
H1757 C1743 0.958 . S
H1758 C1743 0.961 . S
H1759 C1743 0.960 . S
C1760 C1761 1.391 . S
C1760 C1762 1.394 . S
C1760 H1776 0.931 . S
C1761 C1760 1.391 . S
C1761 C1765 1.376 . S
C1762 C1760 1.394 . S
C1762 C1763 1.369 . S
C1762 C1766 1.531 . S
C1763 C1762 1.369 . S
C1763 C1764 1.410 . S
C1763 C1771 1.503 . S
C1764 C1763 1.410 . S
C1764 C1765 1.392 . S
C1764 C1767 1.511 . S
C1765 C1761 1.376 . S
C1765 C1764 1.392 . S
C1765 H1777 0.929 . S
C1766 C1762 1.531 . S
C1766 H1778 0.960 . S
C1766 H1779 0.962 . S
C1766 H1780 0.960 . S
C1767 C1764 1.511 . S
C1767 H1781 0.961 . S
C1767 H1782 0.961 . S
C1767 H1783 0.961 . S
C1768 C1769 1.370 . S
C1768 C1770 1.363 . S
C1768 H1784 0.931 . S
C1769 C1768 1.370 . S
C1769 C1773 1.408 . S
C1770 C1768 1.363 . S
C1770 C1771 1.370 . S
C1770 C1774 1.524 . S
C1771 C1763 1.503 . S
C1771 C1770 1.370 . S
C1771 C1772 1.403 . S
C1772 C1771 1.403 . S
C1772 C1773 1.404 . S
C1772 C1775 1.539 . S
C1773 C1769 1.408 . S
C1773 C1772 1.404 . S
C1773 H1785 0.930 . S
C1774 C1770 1.524 . S
C1774 H1786 0.956 . S
C1774 H1787 0.961 . S
C1774 H1788 0.961 . S
C1775 C1772 1.539 . S
C1775 H1789 0.958 . S
C1775 H1790 0.961 . S
C1775 H1791 0.960 . S
H1776 C1760 0.931 . S
H1777 C1765 0.929 . S
H1778 C1766 0.960 . S
H1779 C1766 0.962 . S
H1780 C1766 0.960 . S
H1781 C1767 0.961 . S
H1782 C1767 0.961 . S
H1783 C1767 0.961 . S
H1784 C1768 0.931 . S
H1785 C1773 0.930 . S
H1786 C1774 0.956 . S
H1787 C1774 0.961 . S
H1788 C1774 0.961 . S
H1789 C1775 0.958 . S
H1790 C1775 0.961 . S
H1791 C1775 0.960 . S
C1792 C1793 1.391 . S
C1792 C1794 1.394 . S
C1792 H1808 0.931 . S
C1793 C1792 1.391 . S
C1793 C1797 1.376 . S
C1794 C1792 1.394 . S
C1794 C1795 1.369 . S
C1794 C1798 1.531 . S
C1795 C1794 1.369 . S
C1795 C1796 1.410 . S
C1795 C1803 1.503 . S
C1796 C1795 1.410 . S
C1796 C1797 1.392 . S
C1796 C1799 1.511 . S
C1797 C1793 1.376 . S
C1797 C1796 1.392 . S
C1797 H1809 0.929 . S
C1798 C1794 1.531 . S
C1798 H1810 0.960 . S
C1798 H1811 0.962 . S
C1798 H1812 0.960 . S
C1799 C1796 1.511 . S
C1799 H1813 0.961 . S
C1799 H1814 0.961 . S
C1799 H1815 0.961 . S
C1800 C1801 1.370 . S
C1800 C1802 1.363 . S
C1800 H1816 0.931 . S
C1801 C1800 1.370 . S
C1801 C1805 1.408 . S
C1802 C1800 1.363 . S
C1802 C1803 1.370 . S
C1802 C1806 1.524 . S
C1803 C1795 1.503 . S
C1803 C1802 1.370 . S
C1803 C1804 1.403 . S
C1804 C1803 1.403 . S
C1804 C1805 1.404 . S
C1804 C1807 1.539 . S
C1805 C1801 1.408 . S
C1805 C1804 1.404 . S
C1805 H1817 0.930 . S
C1806 C1802 1.524 . S
C1806 H1818 0.956 . S
C1806 H1819 0.961 . S
C1806 H1820 0.961 . S
C1807 C1804 1.539 . S
C1807 H1821 0.958 . S
C1807 H1822 0.961 . S
C1807 H1823 0.960 . S
H1808 C1792 0.931 . S
H1809 C1797 0.929 . S
H1810 C1798 0.960 . S
H1811 C1798 0.962 . S
H1812 C1798 0.960 . S
H1813 C1799 0.961 . S
H1814 C1799 0.961 . S
H1815 C1799 0.961 . S
H1816 C1800 0.931 . S
H1817 C1805 0.930 . S
H1818 C1806 0.956 . S
H1819 C1806 0.961 . S
H1820 C1806 0.961 . S
H1821 C1807 0.958 . S
H1822 C1807 0.961 . S
H1823 C1807 0.960 . S
C545 C5 1.522 . S
C553 C243 1.533 . S
C577 C141 1.545 . S
C585 C39 1.542 . S
C609 C175 1.522 . S
C617 C73 1.533 . S
C641 C209 1.543 . S
C649 C107 1.541 . S
C673 C277 1.524 . S
C681 C515 1.535 . S
C705 C311 1.522 . S
C713 C413 1.533 . S
C737 C447 1.522 . S
C745 C345 1.533 . S
C769 C379 1.541 . S
C777 C481 1.542 . S
C801 C9 1.534 . S
C809 C281 1.504 . S
C833 C315 1.529 . S
C841 C43 1.502 . S
C865 C349 1.479 . S
C873 C77 1.526 . S
C897 C111 1.518 . S
C905 C383 1.506 . S
C929 C417 1.493 . S
C937 C145 1.517 . S
C961 C451 1.546 . S
C969 C179 1.497 . S
C993 C213 1.470 . S
C1001 C485 1.527 . S
C1025 C519 1.478 . S
C1033 C247 1.526 . S
C1057 C20 0.930 . S
C1065 C478 0.943 . S
C1089 C512 0.921 . S
C1097 C54 0.945 . S
C1121 C88 0.924 . S
C1129 C410 0.935 . S
C1153 C444 0.943 . S
C1161 C122 0.940 . S
C1185 C156 0.937 . S
C1193 C342 0.948 . S
C1217 C190 0.939 . S
C1225 C376 0.933 . S
C1249 C224 0.959 . S
C1257 C274 0.954 . S
C1281 C258 0.939 . S
C1289 C308 0.933 . S
C1313 C206 0.967 . S
C1321 C292 0.954 . S
C1345 C240 0.947 . S
C1353 C326 0.944 . S
C1377 C360 0.954 . S
C1385 C138 0.944 . S
C1409 C172 0.963 . S
C1417 C394 0.949 . S
C1441 C70 0.937 . S
C1449 C428 0.948 . S
C1473 C104 0.962 . S
C1481 C462 0.954 . S
C1505 C496 0.926 . S
C1513 C2 0.936 . S
C1537 C36 0.960 . S
C1545 C530 0.948 . S
C1569 C101 1.165 . S
C1577 C33 1.230 . S
C1601 C135 1.208 . S
C1609 C67 1.213 . S
C1633 C169 1.250 . S
C1641 C237 1.195 . S
C1665 C271 1.200 . S
C1673 C203 1.216 . S
C1697 C305 1.180 . S
C1705 C373 1.229 . S
C1729 C407 1.214 . S
C1737 C339 1.204 . S
C1761 C441 1.240 . S
C1769 C509 1.195 . S
C1793 C475 1.240 . S
C1801 C543 1.195 . S
