# Generated by pormake.
# Topology why, (6)-cn, num edge types: 1
# Building blocks:
#     Node 0, Type 0, BuildingBlock: KUMBUR_clean_sbu_1, # of connection points: 6
#     Node 1, Type 0, BuildingBlock: KUMBUR_clean_sbu_1, # of connection points: 6
#     Node 2, Type 0, BuildingBlock: KUMBUR_clean_sbu_1, # of connection points: 6
#     Node 3, Type 0, BuildingBlock: KUMBUR_clean_sbu_1, # of connection points: 6
#     Node 4, Type 0, BuildingBlock: KUMBUR_clean_sbu_1, # of connection points: 6
#     Node 5, Type 0, BuildingBlock: KUMBUR_clean_sbu_1, # of connection points: 6
#     Node 6, Type 0, BuildingBlock: KUMBUR_clean_sbu_1, # of connection points: 6
#     Node 7, Type 0, BuildingBlock: KUMBUR_clean_sbu_1, # of connection points: 6
#     Node 8, Type 0, BuildingBlock: KUMBUR_clean_sbu_1, # of connection points: 6
#     Node 9, Type 0, BuildingBlock: KUMBUR_clean_sbu_1, # of connection points: 6
#     Node 10, Type 0, BuildingBlock: KUMBUR_clean_sbu_1, # of connection points: 6
#     Node 11, Type 0, BuildingBlock: KUMBUR_clean_sbu_1, # of connection points: 6
#     Node 12, Type 0, BuildingBlock: KUMBUR_clean_sbu_1, # of connection points: 6
#     Node 13, Type 0, BuildingBlock: KUMBUR_clean_sbu_1, # of connection points: 6
#     Node 14, Type 0, BuildingBlock: KUMBUR_clean_sbu_1, # of connection points: 6
#     Node 15, Type 0, BuildingBlock: KUMBUR_clean_sbu_1, # of connection points: 6
#     Edge 16, Type (0, 0), BuildingBlock: XIVTED_clean_linker_0, # of connection points: 2
#     Edge 17, Type (0, 0), BuildingBlock: XIVTED_clean_linker_0, # of connection points: 2
#     Edge 18, Type (0, 0), BuildingBlock: XIVTED_clean_linker_0, # of connection points: 2
#     Edge 19, Type (0, 0), BuildingBlock: XIVTED_clean_linker_0, # of connection points: 2
#     Edge 20, Type (0, 0), BuildingBlock: XIVTED_clean_linker_0, # of connection points: 2
#     Edge 21, Type (0, 0), BuildingBlock: XIVTED_clean_linker_0, # of connection points: 2
#     Edge 22, Type (0, 0), BuildingBlock: XIVTED_clean_linker_0, # of connection points: 2
#     Edge 23, Type (0, 0), BuildingBlock: XIVTED_clean_linker_0, # of connection points: 2
#     Edge 24, Type (0, 0), BuildingBlock: XIVTED_clean_linker_0, # of connection points: 2
#     Edge 25, Type (0, 0), BuildingBlock: XIVTED_clean_linker_0, # of connection points: 2
#     Edge 26, Type (0, 0), BuildingBlock: XIVTED_clean_linker_0, # of connection points: 2
#     Edge 27, Type (0, 0), BuildingBlock: XIVTED_clean_linker_0, # of connection points: 2
#     Edge 28, Type (0, 0), BuildingBlock: XIVTED_clean_linker_0, # of connection points: 2
#     Edge 29, Type (0, 0), BuildingBlock: XIVTED_clean_linker_0, # of connection points: 2
#     Edge 30, Type (0, 0), BuildingBlock: XIVTED_clean_linker_0, # of connection points: 2
#     Edge 31, Type (0, 0), BuildingBlock: XIVTED_clean_linker_0, # of connection points: 2
#     Edge 32, Type (0, 0), BuildingBlock: XIVTED_clean_linker_0, # of connection points: 2
#     Edge 33, Type (0, 0), BuildingBlock: XIVTED_clean_linker_0, # of connection points: 2
#     Edge 34, Type (0, 0), BuildingBlock: XIVTED_clean_linker_0, # of connection points: 2
#     Edge 35, Type (0, 0), BuildingBlock: XIVTED_clean_linker_0, # of connection points: 2
#     Edge 36, Type (0, 0), BuildingBlock: XIVTED_clean_linker_0, # of connection points: 2
#     Edge 37, Type (0, 0), BuildingBlock: XIVTED_clean_linker_0, # of connection points: 2
#     Edge 38, Type (0, 0), BuildingBlock: XIVTED_clean_linker_0, # of connection points: 2
#     Edge 39, Type (0, 0), BuildingBlock: XIVTED_clean_linker_0, # of connection points: 2
#     Edge 40, Type (0, 0), BuildingBlock: XIVTED_clean_linker_0, # of connection points: 2
#     Edge 41, Type (0, 0), BuildingBlock: XIVTED_clean_linker_0, # of connection points: 2
#     Edge 42, Type (0, 0), BuildingBlock: XIVTED_clean_linker_0, # of connection points: 2
#     Edge 43, Type (0, 0), BuildingBlock: XIVTED_clean_linker_0, # of connection points: 2
#     Edge 44, Type (0, 0), BuildingBlock: XIVTED_clean_linker_0, # of connection points: 2
#     Edge 45, Type (0, 0), BuildingBlock: XIVTED_clean_linker_0, # of connection points: 2
#     Edge 46, Type (0, 0), BuildingBlock: XIVTED_clean_linker_0, # of connection points: 2
#     Edge 47, Type (0, 0), BuildingBlock: XIVTED_clean_linker_0, # of connection points: 2
#     Edge 48, Type (0, 0), BuildingBlock: XIVTED_clean_linker_0, # of connection points: 2
#     Edge 49, Type (0, 0), BuildingBlock: XIVTED_clean_linker_0, # of connection points: 2
#     Edge 50, Type (0, 0), BuildingBlock: XIVTED_clean_linker_0, # of connection points: 2
#     Edge 51, Type (0, 0), BuildingBlock: XIVTED_clean_linker_0, # of connection points: 2
#     Edge 52, Type (0, 0), BuildingBlock: XIVTED_clean_linker_0, # of connection points: 2
#     Edge 53, Type (0, 0), BuildingBlock: XIVTED_clean_linker_0, # of connection points: 2
#     Edge 54, Type (0, 0), BuildingBlock: XIVTED_clean_linker_0, # of connection points: 2
#     Edge 55, Type (0, 0), BuildingBlock: XIVTED_clean_linker_0, # of connection points: 2
#     Edge 56, Type (0, 0), BuildingBlock: XIVTED_clean_linker_0, # of connection points: 2
#     Edge 57, Type (0, 0), BuildingBlock: XIVTED_clean_linker_0, # of connection points: 2
#     Edge 58, Type (0, 0), BuildingBlock: XIVTED_clean_linker_0, # of connection points: 2
#     Edge 59, Type (0, 0), BuildingBlock: XIVTED_clean_linker_0, # of connection points: 2
#     Edge 60, Type (0, 0), BuildingBlock: XIVTED_clean_linker_0, # of connection points: 2
#     Edge 61, Type (0, 0), BuildingBlock: XIVTED_clean_linker_0, # of connection points: 2
#     Edge 62, Type (0, 0), BuildingBlock: XIVTED_clean_linker_0, # of connection points: 2
#     Edge 63, Type (0, 0), BuildingBlock: XIVTED_clean_linker_0, # of connection points: 2
# Relax obj value: 0.282
# Max RMSD: 0.218
# Mean RMSD: 0.218
data_MOF--net-why--node1-KUMBUR_clean_sbu_1--edge1-XIVTED_clean_linker_0
_symmetry_space_group_name_H-M    P1
_symmetry_Int_Tables_number       1
_symmetry_cell_setting            triclinic
loop_
_symmetry_equiv_pos_as_xyz
'x, y, z'
_cell_length_a     46.327393
_cell_length_b     46.436631
_cell_length_c     41.21341
_cell_angle_alpha  89.957309
_cell_angle_beta   89.798264
_cell_angle_gamma 90.053957
loop_
_atom_site_label
_atom_site_type_symbol
_atom_site_fract_x
_atom_site_fract_y
_atom_site_fract_z
_atom_type_partial_charge
Tb0 Tb 0.43723 0.23168 0.08313 0.0
C1 C 0.46564 0.13869 0.96607 0.0
N2 N 0.45762 0.13957 0.99763 0.0
C3 C 0.42996 0.09622 0.9904 0.0
C4 C 0.45572 0.11692 0.94504 0.0
C5 C 0.44074 0.11812 1.0103 0.0
C6 C 0.43719 0.09581 0.95749 0.0
C7 C 0.49653 0.1574 0.92373 0.0
C8 C 0.48549 0.15854 0.95564 0.0
C9 C 0.48586 0.13665 0.90205 0.0
C10 C 0.46541 0.11643 0.91269 0.0
Tb11 Tb 0.47393 0.1776 0.02812 0.0
N12 N 0.49554 0.17763 0.97767 0.0
C13 C 0.51863 0.17643 0.915 0.0
C14 C 0.51816 0.19531 0.96962 0.0
C15 C 0.52974 0.19522 0.93822 0.0
H16 H 0.43499 0.11811 0.03564 0.0
H17 H 0.54746 0.20944 0.93206 0.0
H18 H 0.38253 0.26591 0.04919 0.0
H19 H 0.50824 0.27008 0.17773 0.0
H20 H 0.52778 0.20944 0.98725 0.0
H21 H 0.52786 0.17617 0.89081 0.0
H22 H 0.48018 0.23347 0.14746 0.0
H23 H 0.41614 0.07966 1.00049 0.0
H24 H 0.49386 0.13556 0.87734 0.0
H25 H 0.45789 0.10003 0.89604 0.0
H26 H 0.36915 0.31626 0.0367 0.0
H27 H 0.42903 0.07871 0.94217 0.0
H28 H 0.50506 0.32149 0.16215 0.0
N29 N 0.42137 0.27744 0.07329 0.0
C30 C 0.43749 0.29915 0.0856 0.0
C31 C 0.38861 0.31175 0.05023 0.0
C32 C 0.43049 0.3282 0.07974 0.0
C33 C 0.39627 0.28328 0.05726 0.0
C34 C 0.40611 0.33433 0.06099 0.0
N35 N 0.4626 0.26384 0.11429 0.0
C36 C 0.47878 0.25591 0.14059 0.0
C37 C 0.47425 0.31371 0.12373 0.0
C38 C 0.45902 0.29206 0.10706 0.0
C39 C 0.49294 0.30552 0.14871 0.0
C40 C 0.49468 0.27654 0.15768 0.0
H41 H 0.39995 0.35637 0.05589 0.0
H42 H 0.44237 0.3725 0.08968 0.0
H43 H 0.48076 0.35977 0.12838 0.0
O44 O 0.40201 0.20683 0.10059 0.0
O45 O 0.48539 0.23371 0.08222 0.0
O46 O 0.49775 0.22024 0.03132 0.0
O47 O 0.41652 0.24498 0.12544 0.0
O48 O 0.45726 0.19289 0.10615 0.0
O49 O 0.44537 0.16114 0.06769 0.0
O50 O 0.50247 0.14293 0.03085 0.0
O51 O 0.42623 0.17514 0.02117 0.0
O52 O 0.40816 0.21794 0.04187 0.0
O53 O 0.50339 0.17644 0.0672 0.0
O54 O 0.46717 0.2175 1.00137 0.0
O55 O 0.43703 0.24735 0.03212 0.0
C56 C 0.50169 0.23776 0.05633 0.0
C57 C 0.3676 0.23486 0.13105 0.0
C58 C 0.33579 0.26298 0.16638 0.0
C59 C 0.3126 0.25686 0.14555 0.0
C60 C 0.34434 0.2292 0.1103 0.0
C61 C 0.31693 0.24007 0.11772 0.0
C62 C 0.36304 0.25146 0.15907 0.0
C63 C 0.45018 0.1662 0.09862 0.0
C64 C 0.39719 0.22482 0.12438 0.0
C65 C 0.44711 0.35001 0.0942 0.0
C66 C 0.46899 0.34277 0.11621 0.0
C67 C 0.40569 0.19499 0.02252 0.0
C68 C 0.54821 0.15895 0.04764 0.0
C69 C 0.58705 0.1637 1.00761 0.0
C70 C 0.60527 0.17433 0.03204 0.0
C71 C 0.56672 0.16943 0.07176 0.0
C72 C 0.55896 0.15522 1.01595 0.0
C73 C 0.59523 0.17674 0.064 0.0
C74 C 0.45086 0.24059 1.00495 0.0
C75 C 0.51714 0.15464 0.05436 0.0
H76 H 0.29131 0.26547 0.15043 0.0
H77 H 0.34734 0.21662 0.08843 0.0
H78 H 0.29901 0.2357 0.10167 0.0
H79 H 0.38098 0.25547 0.1753 0.0
H80 H 0.62715 0.18093 0.02639 0.0
H81 H 0.55896 0.17254 0.09633 0.0
H82 H 0.54488 0.14726 0.99708 0.0
H83 H 0.60937 0.18503 0.08265 0.0
Tb84 Tb 0.66746 0.67773 0.33113 0.0
C85 C 0.75431 0.71675 0.21476 0.0
N86 N 0.75625 0.70795 0.24606 0.0
C87 C 0.80045 0.68319 0.23381 0.0
C88 C 0.77505 0.7086 0.19144 0.0
C89 C 0.77953 0.69222 0.25614 0.0
C90 C 0.79802 0.69109 0.20122 0.0
C91 C 0.73126 0.74784 0.17548 0.0
C92 C 0.73273 0.73593 0.2069 0.0
C93 C 0.75095 0.73875 0.1516 0.0
C94 C 0.7728 0.7191 0.15956 0.0
Tb95 Tb 0.71986 0.72234 0.2801 0.0
N96 N 0.71468 0.74466 0.2309 0.0
C97 C 0.7108 0.76932 0.16943 0.0
C98 C 0.6957 0.7667 0.22556 0.0
C99 C 0.69319 0.77902 0.1947 0.0
H100 H 0.78159 0.68596 0.28126 0.0
H101 H 0.67776 0.79609 0.19048 0.0
H102 H 0.60148 0.66324 0.3065 0.0
H103 H 0.70631 0.76362 0.41063 0.0
H104 H 0.68219 0.77467 0.24492 0.0
H105 H 0.70903 0.77914 0.14566 0.0
H106 H 0.71087 0.72938 0.36634 0.0
H107 H 0.81848 0.6702 0.24176 0.0
H108 H 0.75002 0.74743 0.12722 0.0
H109 H 0.78838 0.7129 0.14118 0.0
H110 H 0.55176 0.67118 0.32711 0.0
H111 H 0.8144 0.6843 0.18404 0.0
H112 H 0.65951 0.76996 0.4386 0.0
N113 N 0.62096 0.68794 0.34383 0.0
C114 C 0.61713 0.70473 0.37046 0.0
C115 C 0.56996 0.68075 0.33948 0.0
C116 C 0.58928 0.71002 0.38287 0.0
C117 C 0.598 0.6764 0.32778 0.0
C118 C 0.5656 0.69733 0.36738 0.0
N119 N 0.6674 0.71458 0.36874 0.0
C120 C 0.6904 0.73104 0.37803 0.0
C121 C 0.63748 0.73861 0.40875 0.0
C122 C 0.64111 0.71873 0.3832 0.0
C123 C 0.6614 0.75442 0.41911 0.0
C124 C 0.68783 0.75092 0.40335 0.0
H125 H 0.54384 0.70077 0.37628 0.0
H126 H 0.56472 0.73267 0.41967 0.0
H127 H 0.60687 0.75778 0.44227 0.0
O128 O 0.64877 0.6366 0.32913 0.0
O129 O 0.64458 0.71743 0.31425 0.0
O130 O 0.68064 0.74803 0.29608 0.0
O131 O 0.66159 0.65372 0.37457 0.0
O132 O 0.7113 0.67712 0.35429 0.0
O133 O 0.74319 0.70058 0.32003 0.0
O134 O 0.75345 0.75204 0.27443 0.0
O135 O 0.72379 0.67582 0.26554 0.0
O136 O 0.68777 0.65056 0.29247 0.0
O137 O 0.72611 0.75291 0.31709 0.0
O138 O 0.67913 0.71554 0.25485 0.0
O139 O 0.65504 0.67713 0.27948 0.0
C140 C 0.65347 0.74352 0.30577 0.0
C141 C 0.61936 0.62396 0.37393 0.0
C142 C 0.58482 0.61999 0.41884 0.0
C143 C 0.5645 0.60822 0.39739 0.0
C144 C 0.59888 0.61096 0.3534 0.0
C145 C 0.57161 0.60355 0.36499 0.0
C146 C 0.61236 0.62785 0.40704 0.0
C147 C 0.73768 0.68644 0.34714 0.0
C148 C 0.64766 0.63318 0.36025 0.0
C149 C 0.58592 0.72854 0.40951 0.0
C150 C 0.60995 0.74284 0.42238 0.0
C151 C 0.70822 0.65208 0.26982 0.0
C152 C 0.73924 0.7977 0.29354 0.0
C153 C 0.73069 0.83623 0.25435 0.0
C154 C 0.71999 0.85368 0.27949 0.0
C155 C 0.72883 0.81551 0.31846 0.0
C156 C 0.74117 0.80876 0.26183 0.0
C157 C 0.71958 0.84349 0.31145 0.0
C158 C 0.65971 0.69482 0.25479 0.0
C159 C 0.74523 0.7669 0.29966 0.0
H160 H 0.5433 0.60185 0.40596 0.0
H161 H 0.60371 0.60699 0.32806 0.0
H162 H 0.55594 0.59401 0.3488 0.0
H163 H 0.62804 0.63712 0.42347 0.0
H164 H 0.71175 0.87502 0.27438 0.0
H165 H 0.72716 0.80753 0.34311 0.0
H166 H 0.74901 0.79525 0.24229 0.0
H167 H 0.71124 0.85701 0.3307 0.0
Tb168 Tb 0.22583 0.91618 0.58471 0.0
C169 C 0.18667 1.00097 0.46962 0.0
N170 N 0.19344 1.00353 0.50149 0.0
C171 C 0.21653 1.0489 0.49082 0.0
C172 C 0.19527 1.02192 0.44681 0.0
C173 C 0.20717 1.02769 0.51259 0.0
C174 C 0.21094 1.0458 0.4577 0.0
C175 C 0.15897 0.97635 0.42836 0.0
C176 C 0.16892 0.97852 0.46054 0.0
C177 C 0.16873 0.99622 0.40503 0.0
C178 C 0.1869 1.01895 0.41423 0.0
Tb179 Tb 0.17895 0.96653 0.53449 0.0
N180 N 0.15942 0.96031 0.48399 0.0
C181 C 0.13858 0.9551 0.42097 0.0
C182 C 0.13828 0.9406 0.47731 0.0
C183 C 0.12788 0.93743 0.44568 0.0
H184 H 0.21165 1.03022 0.53812 0.0
H185 H 0.11149 0.9215 0.44044 0.0
H186 H 0.24205 0.85011 0.56177 0.0
H187 H 0.13842 0.95417 0.66316 0.0
H188 H 0.12962 0.92705 0.49629 0.0
H189 H 0.13026 0.9528 0.39657 0.0
H190 H 0.17227 0.95838 0.61818 0.0
H191 H 0.22801 1.06763 0.49959 0.0
H192 H 0.1616 0.99476 0.38007 0.0
H193 H 0.19352 1.03467 0.39623 0.0
H194 H 0.23572 0.80089 0.58408 0.0
H195 H 0.21799 1.06238 0.44094 0.0
H196 H 0.13392 0.90826 0.69308 0.0
N197 N 0.21689 0.8698 0.59875 0.0
C198 C 0.20031 0.86618 0.62568 0.0
C199 C 0.22562 0.81907 0.59596 0.0
C200 C 0.19595 0.83862 0.63908 0.0
C201 C 0.22905 0.84683 0.5833 0.0
C202 C 0.20931 0.81498 0.62422 0.0
N203 N 0.18887 0.9159 0.62239 0.0
C204 C 0.17154 0.93846 0.63088 0.0
C205 C 0.16595 0.88647 0.6637 0.0
C206 C 0.18562 0.88999 0.6378 0.0
C207 C 0.14935 0.91008 0.67336 0.0
C208 C 0.15182 0.93601 0.65651 0.0
H209 H 0.20662 0.79344 0.63389 0.0
H210 H 0.17431 0.81448 0.67704 0.0
H211 H 0.14792 0.85633 0.69852 0.0
O212 O 0.26732 0.89817 0.58241 0.0
O213 O 0.18667 0.89164 0.56871 0.0
O214 O 0.15465 0.92596 0.54965 0.0
O215 O 0.25047 0.91193 0.62778 0.0
O216 O 0.22678 0.96049 0.60706 0.0
O217 O 0.19821 0.99035 0.57589 0.0
O218 O 0.14759 0.99804 0.52612 0.0
O219 O 0.2257 0.97297 0.52092 0.0
O220 O 0.25186 0.93634 0.54502 0.0
O221 O 0.14657 0.97234 0.56984 0.0
O222 O 0.18716 0.92603 0.50956 0.0
O223 O 0.22665 0.90319 0.53316 0.0
C224 C 0.16026 0.89912 0.55965 0.0
C225 C 0.28069 0.87015 0.6277 0.0
C226 C 0.28223 0.83506 0.67199 0.0
C227 C 0.29661 0.81569 0.65141 0.0
C228 C 0.29612 0.85064 0.60808 0.0
C229 C 0.3037 0.82356 0.61978 0.0
C230 C 0.27431 0.86241 0.6601 0.0
C231 C 0.21501 0.98609 0.60129 0.0
C232 C 0.27107 0.89793 0.61348 0.0
C233 C 0.17769 0.83544 0.6661 0.0
C234 C 0.16268 0.8593 0.67834 0.0
C235 C 0.24969 0.95747 0.52349 0.0
C236 C 0.10192 0.98215 0.54411 0.0
C237 C 1.06466 0.97064 0.50429 0.0
C238 C 1.04689 0.9604 0.52951 0.0
C239 C 0.08379 0.97207 0.56899 0.0
C240 C 0.09168 0.98234 0.512 0.0
C241 C 1.0563 0.96153 0.56169 0.0
C242 C 0.20828 0.90717 0.50906 0.0
C243 C 0.13223 0.98997 0.55106 0.0
H244 H 0.30307 0.79465 0.66012 0.0
H245 H 0.30185 0.85608 0.58331 0.0
H246 H 0.31517 0.80862 0.60427 0.0
H247 H 0.26297 0.8773 0.67585 0.0
H248 H 1.02581 0.95145 0.52433 0.0
H249 H 0.09113 0.97176 0.59392 0.0
H250 H 0.1054 0.99007 0.49253 0.0
H251 H 1.0425 0.95356 0.58095 0.0
Tb252 Tb 0.988 0.47841 0.83493 0.0
C253 C 0.89114 0.45123 0.73636 0.0
N254 N 0.89871 0.45674 0.7677 0.0
C255 C 0.85799 0.48829 0.77344 0.0
C256 C 0.86693 0.46457 0.72222 0.0
C257 C 0.88212 0.47448 0.78652 0.0
C258 C 0.85038 0.48336 0.74117 0.0
C259 C 0.90118 0.42649 0.68566 0.0
C260 C 0.9081 0.43245 0.71826 0.0
C261 C 0.877 0.43965 0.67155 0.0
C262 C 0.85994 0.45864 0.68977 0.0
Tb263 Tb 0.93613 0.42939 0.78662 0.0
N264 N 0.9311 0.4197 0.73275 0.0
C265 C 0.91861 0.40725 0.66831 0.0
C266 C 0.94799 0.40065 0.71604 0.0
C267 C 0.94212 0.3943 0.68357 0.0
H268 H 0.88747 0.47833 0.81143 0.0
H269 H 0.95547 0.37908 0.67048 0.0
H270 H 1.04876 0.49014 0.79351 0.0
H271 H 0.96695 0.42192 0.9486 0.0
H272 H 0.96545 0.3896 0.72811 0.0
H273 H 0.91393 0.40204 0.64324 0.0
H274 H 0.95318 0.4461 0.89889 0.0
H275 H 0.84515 0.50259 0.78836 0.0
H276 H 0.87127 0.43523 0.64658 0.0
H277 H 0.84135 0.46861 0.67853 0.0
H278 H 0.10088 0.48478 0.8033 0.0
H279 H 0.83161 0.49402 0.7312 0.0
H280 H 1.0184 0.4158 0.96225 0.0
N281 N 1.03641 0.47085 0.83841 0.0
C282 C 1.04544 0.45921 0.86693 0.0
C283 C 0.08551 0.47733 0.82127 0.0
C284 C 0.0751 0.45621 0.87366 0.0
C285 C 1.05589 0.47993 0.81562 0.0
C286 C 0.09517 0.46557 0.85047 0.0
N287 N 0.9961 0.45194 0.88126 0.0
C288 C 0.9756 0.44268 0.9028 0.0
C289 C 1.03357 0.4362 0.91815 0.0
C290 C 1.02473 0.44927 0.8889 0.0
C291 C 1.01249 0.42599 0.93956 0.0
C292 C 0.98343 0.42926 0.93184 0.0
H293 H 0.11814 0.46372 0.85481 0.0
H294 H 0.10649 0.4415 0.90878 0.0
H295 H 1.0702 0.42397 0.94768 0.0
O296 O 0.99099 0.50609 0.87556 0.0
O297 O 1.00634 0.43363 0.82767 0.0
O298 O 0.97343 0.40248 0.8038 0.0
O299 O 1.00847 0.51842 0.8295 0.0
O300 O 0.94164 0.48093 0.85133 0.0
O301 O 0.93071 0.43543 0.83922 0.0
O302 O 0.9268 0.38612 0.77698 0.0
O303 O 0.9389 0.47398 0.76427 0.0
O304 O 0.9646 0.50468 0.79807 0.0
O305 O 0.89729 0.41197 0.80493 0.0
O306 O 0.97887 0.43148 0.76466 0.0
O307 O 0.99931 0.47428 0.78317 0.0
C308 C 0.99892 0.40737 0.8177 0.0
C309 C 1.03582 0.53158 0.87527 0.0
C310 C 1.06933 0.53083 0.92104 0.0
C311 C 0.09104 0.54198 0.9007 0.0
C312 C 1.05777 0.54359 0.85581 0.0
C313 C 0.08519 0.54847 0.86841 0.0
C314 C 1.04163 0.52571 0.90822 0.0
C315 C 0.92299 0.45953 0.85319 0.0
C316 C 1.00769 0.52415 0.86029 0.0
C317 C 0.0838 0.44376 0.90307 0.0
C318 C 1.06311 0.43375 0.9252 0.0
C319 C 0.94917 0.50005 0.77146 0.0
C320 C 0.8774 0.37988 0.76595 0.0
C321 C 0.86362 0.35527 0.71606 0.0
C322 C 0.83677 0.36924 0.7169 0.0
C323 C 0.85021 0.39331 0.76684 0.0
C324 C 0.88349 0.3603 0.74096 0.0
C325 C 0.83 0.38787 0.74246 0.0
C326 C 0.99677 0.45335 0.76163 0.0
C327 C 0.90071 0.38818 0.78852 0.0
H328 H 0.11241 0.54644 0.91004 0.0
H329 H 1.05393 0.5487 0.83054 0.0
H330 H 0.10198 0.55738 0.85306 0.0
H331 H 1.02493 0.51675 0.9237 0.0
H332 H 0.82108 0.36573 0.69788 0.0
H333 H 0.84485 0.4086 0.78575 0.0
H334 H 0.90453 0.35013 0.73982 0.0
H335 H 0.80927 0.39858 0.74302 0.0
Tb336 Tb 0.67877 0.95894 1.00641 0.0
C337 C 0.72574 0.84241 0.93837 0.0
N338 N 0.73872 0.86407 0.95489 0.0
C339 C 0.77432 0.83109 0.97484 0.0
C340 C 0.73612 0.81395 0.94001 0.0
C341 C 0.76333 0.85904 0.97212 0.0
C342 C 0.76045 0.80836 0.95904 0.0
C343 C 0.69047 0.82808 0.89825 0.0
C344 C 0.70329 0.84932 0.91788 0.0
C345 C 0.69971 0.79937 0.9009 0.0
C346 C 0.72252 0.79231 0.92176 0.0
Tb347 Tb 0.71819 0.90853 0.95026 0.0
N348 N 0.69542 0.87737 0.91565 0.0
C349 C 0.66952 0.83657 0.87578 0.0
C350 C 0.67641 0.88609 0.89222 0.0
C351 C 0.66278 0.86576 0.87244 0.0
H352 H 0.77441 0.87648 0.98406 0.0
H353 H 0.64716 0.87262 0.85456 0.0
H354 H 0.72019 1.01715 1.00208 0.0
H355 H 0.60541 0.92366 0.10096 0.0
H356 H 0.67118 0.90865 0.8896 0.0
H357 H 0.6591 0.82091 0.86025 0.0
H358 H 0.62514 0.9254 0.04573 0.0
H359 H 0.79356 0.82712 0.98896 0.0
H360 H 0.68996 0.78263 0.88626 0.0
H361 H 0.73 0.77023 0.92289 0.0
H362 H 0.74014 1.0533 0.03956 0.0
H363 H 0.76915 0.78678 0.96095 0.0
H364 H 0.62571 0.95489 0.14379 0.0
N365 N 0.69665 0.99481 0.03879 0.0
C366 C 0.68853 0.99442 0.07039 0.0
C367 C 0.72573 1.03676 0.04861 0.0
C368 C 0.69911 1.01485 0.09266 0.0
C369 C 0.71433 1.0162 0.0274 0.0
C370 C 0.71834 1.03591 0.08148 0.0
N371 N 0.65758 0.95655 0.05681 0.0
C372 C 0.63482 0.93882 0.06403 0.0
C373 C 0.65727 0.97446 0.11176 0.0
C374 C 0.66815 0.97453 0.07976 0.0
C375 C 0.63481 0.95551 0.11955 0.0
C376 C 0.62331 0.93786 0.09544 0.0
H377 H 0.72702 1.05199 0.09781 0.0
H378 H 0.69746 1.02946 0.1426 0.0
H379 H 0.66062 0.99408 0.15933 0.0
O380 O 0.65143 0.99459 1.00902 0.0
O381 O 0.72504 0.95781 0.02201 0.0
O382 O 0.74753 0.92212 0.99148 0.0
O383 O 0.64866 0.96503 0.9686 0.0
O384 O 0.68196 0.91617 0.02745 0.0
O385 O 0.71927 0.89226 1.00053 0.0
O386 O 0.7528 0.93575 0.93567 0.0
O387 O 0.67308 0.89275 0.95612 0.0
O388 O 0.65127 0.91922 0.99688 0.0
O389 O 0.73799 0.90083 0.90576 0.0
O390 O 0.69351 0.94557 0.92984 0.0
O391 O 0.70672 0.97701 0.96728 0.0
C392 C 0.74781 0.94133 1.01574 0.0
C393 C 0.60483 0.98272 0.99075 0.0
C394 C 0.56504 0.97887 0.02971 0.0
C395 C 0.54652 0.97095 1.0043 0.0
C396 C 0.58597 0.97504 0.96566 0.0
C397 C 0.55691 0.96938 0.97243 0.0
C398 C 0.59395 0.98525 0.02256 0.0
C399 C 0.70149 0.89568 0.02541 0.0
C400 C 0.63609 0.98603 0.98438 0.0
C401 C 0.68946 1.01409 0.12501 0.0
C402 C 0.6685 0.99395 0.13454 0.0
C403 C 0.65113 0.89717 0.97602 0.0
C404 C 0.787 0.91037 0.90184 0.0
C405 C 0.81775 0.88189 0.86559 0.0
C406 C 0.84124 0.88698 0.88634 0.0
C407 C 0.81058 0.91502 0.92245 0.0
C408 C 0.79095 0.89424 0.87331 0.0
C409 C 0.83762 0.90351 0.9145 0.0
C410 C 0.70081 0.97226 0.93663 0.0
C411 C 0.75756 0.92042 0.90958 0.0
H412 H 0.52404 0.96601 1.00906 0.0
H413 H 0.59382 0.97294 0.94098 0.0
H414 H 0.5425 0.96327 0.953 0.0
H415 H 0.60827 0.99098 0.04224 0.0
H416 H 0.8622 0.87772 0.8812 0.0
H417 H 0.8081 0.92719 0.94469 0.0
H418 H 0.7728 0.89102 0.85716 0.0
H419 H 0.85576 0.90705 0.93049 0.0
Tb420 Tb 0.42933 0.4262 0.75627 0.0
C421 C 0.54567 0.47249 0.68743 0.0
N422 N 0.52485 0.48571 0.70521 0.0
C423 C 0.55986 0.51876 0.72634 0.0
C424 C 0.57469 0.48141 0.68901 0.0
C425 C 0.53129 0.50926 0.72365 0.0
C426 C 0.58173 0.50454 0.70927 0.0
C427 C 0.55773 0.43847 0.64498 0.0
C428 C 0.53734 0.45141 0.66575 0.0
C429 C 0.58698 0.44618 0.64753 0.0
C430 C 0.59545 0.46763 0.66951 0.0
Tb431 Tb 0.47941 0.46721 0.70077 0.0
N432 N 0.50882 0.44488 0.66379 0.0
C433 C 0.54794 0.41891 0.62163 0.0
C434 C 0.4989 0.42722 0.63969 0.0
C435 C 0.51836 0.41359 0.61868 0.0
H436 H 0.51446 0.52055 0.73662 0.0
H437 H 0.51053 0.39903 0.60019 0.0
H438 H 0.36948 0.46511 0.75238 0.0
H439 H 0.46851 0.35631 0.85176 0.0
H440 H 0.4761 0.42297 0.63729 0.0
H441 H 0.56292 0.40845 0.6052 0.0
H442 H 0.46505 0.37446 0.79599 0.0
H443 H 0.56496 0.53712 0.74144 0.0
H444 H 0.60307 0.43629 0.632 0.0
H445 H 0.61794 0.47397 0.67057 0.0
H446 H 0.3332 0.48465 0.79029 0.0
H447 H 0.60379 0.51209 0.71119 0.0
H448 H 0.43746 0.37671 0.89492 0.0
N449 N 0.39329 0.44344 0.78912 0.0
C450 C 0.3945 0.43613 0.82091 0.0
C451 C 0.35043 0.47112 0.79927 0.0
C452 C 0.37407 0.44651 0.84344 0.0
C453 C 0.37105 0.45997 0.77782 0.0
C454 C 0.35212 0.46464 0.83231 0.0
N455 N 0.43318 0.40618 0.80713 0.0
C456 C 0.45169 0.38415 0.81445 0.0
C457 C 0.41626 0.40669 0.86256 0.0
C458 C 0.41526 0.41671 0.83028 0.0
C459 C 0.4361 0.38513 0.87044 0.0
C460 C 0.45364 0.37356 0.84616 0.0
H461 H 0.33601 0.47314 0.84884 0.0
H462 H 0.3604 0.44566 0.89381 0.0
H463 H 0.39736 0.4106 0.91057 0.0
O464 O 0.39462 0.39768 0.76081 0.0
O465 O 0.42906 0.47264 0.77127 0.0
O466 O 0.46656 0.49523 0.74355 0.0
O467 O 0.4224 0.3962 0.71855 0.0
O468 O 0.47237 0.42933 0.77671 0.0
O469 O 0.4954 0.46766 0.75105 0.0
O470 O 0.44944 0.49895 0.68592 0.0
O471 O 0.49542 0.42188 0.70468 0.0
O472 O 0.46935 0.39939 0.7455 0.0
O473 O 0.49006 0.49315 0.66104 0.0
O474 O 0.4424 0.44291 0.67871 0.0
O475 O 0.41039 0.45343 0.71719 0.0
C476 C 0.44623 0.49528 0.76673 0.0
C477 C 0.40774 0.35178 0.74166 0.0
C478 C 0.41801 0.31312 0.78027 0.0
C479 C 0.42513 0.29493 0.75418 0.0
C480 C 0.41471 0.33326 0.71595 0.0
C481 C 0.42303 0.30487 0.72223 0.0
C482 C 0.4084 0.34111 0.77365 0.0
C483 C 0.4927 0.44903 0.77508 0.0
C484 C 0.40265 0.38274 0.73559 0.0
C485 C 0.37574 0.43776 0.87603 0.0
C486 C 0.39679 0.41782 0.88557 0.0
C487 C 0.49133 0.39965 0.72435 0.0
C488 C 0.47252 0.54025 0.66188 0.0
C489 C 0.49536 0.5804 0.63295 0.0
C490 C 0.48434 0.59945 0.65639 0.0
C491 C 0.46194 0.55956 0.68524 0.0
C492 C 0.48917 0.55087 0.63588 0.0
C493 C 0.46784 0.58902 0.6824 0.0
C494 C 0.41524 0.44828 0.68629 0.0
C495 C 0.46712 0.50894 0.66376 0.0
H496 H 0.43244 0.27312 0.75852 0.0
H497 H 0.41435 0.34095 0.69112 0.0
H498 H 0.42861 0.29074 0.7023 0.0
H499 H 0.40296 0.35508 0.79376 0.0
H500 H 0.48876 0.62231 0.65481 0.0
H501 H 0.44921 0.55198 0.70562 0.0
H502 H 0.4971 0.53602 0.61761 0.0
H503 H 0.45963 0.60383 0.70047 0.0
Tb504 Tb 0.9667 0.1773 0.51049 0.0
C505 C 0.94284 0.27083 0.40674 0.0
N506 N 0.92697 0.26808 0.43431 0.0
C507 C 0.91511 0.31822 0.43294 0.0
C508 C 0.94531 0.29763 0.39094 0.0
C509 C 0.91356 0.29123 0.44793 0.0
C510 C 0.93084 0.32139 0.40414 0.0
C511 C 0.97712 0.24993 0.36901 0.0
C512 C 0.95837 0.24707 0.39588 0.0
C513 C 0.97863 0.27625 0.35224 0.0
C514 C 0.96273 0.30003 0.36314 0.0
Tb515 Tb 0.92167 0.22256 0.45311 0.0
N516 N 0.95684 0.22205 0.41331 0.0
C517 C 0.99461 0.22661 0.36053 0.0
C518 C 0.97523 0.19996 0.40603 0.0
C519 C 0.994 0.20174 0.37946 0.0
H520 H 0.90081 0.2886 0.46969 0.0
H521 H 1.00819 0.18393 0.37375 0.0
H522 H 0.92995 0.11537 0.50004 0.0
H523 H 1.02771 0.21726 0.61215 0.0
H524 H 0.97617 0.18094 0.42042 0.0
H525 H 1.00936 0.22795 0.34012 0.0
H526 H 1.01005 0.21687 0.5559 0.0
H527 H 0.90401 0.33648 0.44345 0.0
H528 H 0.99269 0.27868 0.33134 0.0
H529 H 0.96471 0.32038 0.35045 0.0
H530 H 0.9149 0.07435 0.53338 0.0
H531 H 0.93211 0.34235 0.39265 0.0
H532 H 1.0123 0.17912 0.65044 0.0
N533 N 0.95194 0.13699 0.53851 0.0
C534 C 0.95946 0.13592 0.57031 0.0
C535 C 0.92748 0.09152 0.54408 0.0
C536 C 0.95113 0.11271 0.59036 0.0
C537 C 0.93639 0.11491 0.5251 0.0
C538 C 0.93476 0.09046 0.57687 0.0
N539 N 0.98465 0.17912 0.562 0.0
C540 C 1.00302 0.20023 0.57227 0.0
C541 C 0.98592 0.1571 0.61494 0.0
C542 C 0.97641 0.15779 0.58248 0.0
C543 C 1.00437 0.17894 0.62574 0.0
C544 C 1.01312 0.20049 0.60421 0.0
H545 H 0.92788 0.07226 0.59146 0.0
H546 H 0.9535 0.09466 0.63882 0.0
H547 H 0.98413 0.13353 0.66033 0.0
O548 O 1.00258 0.15087 0.51766 0.0
O549 O 0.92064 0.17289 0.526 0.0
O550 O 0.89486 0.20438 0.49373 0.0
O551 O 0.99798 0.1764 0.47359 0.0
O552 O 0.95387 0.2172 0.53471 0.0
O553 O 0.92241 0.24252 0.50093 0.0
O554 O 0.8787 0.23556 0.45764 0.0
O555 O 0.96283 0.24667 0.4641 0.0
O556 O 0.98869 0.22014 0.50188 0.0
O557 O 0.89579 0.22585 0.41084 0.0
O558 O 0.92198 0.17761 0.43439 0.0
O559 O 0.95163 0.15136 0.46805 0.0
C560 C 0.89645 0.18678 0.51909 0.0
C561 C 1.04437 0.17431 0.49793 0.0
C562 C 0.08173 0.18852 0.53652 0.0
C563 C 0.09497 0.20516 0.51216 0.0
C564 C 1.05813 0.19075 0.47379 0.0
C565 C 0.08341 0.20591 0.48088 0.0
C566 C 1.05693 0.17261 0.52892 0.0
C567 C 0.93562 0.23835 0.52881 0.0
C568 C 1.01561 0.16147 0.49205 0.0
C569 C 0.95978 0.11225 0.623 0.0
C570 C 0.9772 0.13439 0.63526 0.0
C571 C 0.98612 0.24304 0.4825 0.0
C572 C 0.85863 0.26149 0.4142 0.0
C573 C 0.84058 0.28955 0.36862 0.0
C574 C 0.82733 0.30869 0.39044 0.0
C575 C 0.84459 0.28057 0.43563 0.0
C576 C 0.85649 0.26614 0.38066 0.0
C577 C 0.82941 0.3042 0.42376 0.0
C578 C 0.93515 0.15331 0.44195 0.0
C579 C 0.87379 0.23585 0.42681 0.0
H580 H 0.11421 0.21759 0.51732 0.0
H581 H 1.04895 0.19246 0.44972 0.0
H582 H 0.09372 0.21882 0.46227 0.0
H583 H 1.0465 0.16019 0.54789 0.0
H584 H 0.81528 0.3271 0.38171 0.0
H585 H 0.84532 0.27733 0.46164 0.0
H586 H 0.86641 0.25106 0.36394 0.0
H587 H 0.81895 0.3189 0.44044 0.0
Tb588 Tb 0.21259 0.71268 0.26243 0.0
C589 C 0.09524 0.66973 0.19601 0.0
N590 N 0.11608 0.65589 0.21291 0.0
C591 C 0.0805 0.62416 0.23583 0.0
C592 C 1.06594 0.662 0.1991 0.0
C593 C 0.10932 0.63239 0.23145 0.0
C594 C 1.05864 0.63934 0.22 0.0
C595 C 0.08343 0.7025 0.1524 0.0
C596 C 0.10379 0.68964 0.17316 0.0
C597 C 1.05395 0.69641 0.15672 0.0
C598 C 1.0452 0.67617 0.18009 0.0
Tb599 Tb 0.16221 0.67265 0.20633 0.0
N600 N 0.13248 0.69422 0.16929 0.0
C601 C 0.09349 0.71988 0.12698 0.0
C602 C 0.14253 0.70943 0.14312 0.0
C603 C 0.1232 0.72291 0.12196 0.0
H604 H 0.12611 0.62031 0.24343 0.0
H605 H 0.13122 0.73558 0.10181 0.0
H606 H 0.27253 0.67366 0.25623 0.0
H607 H 0.17625 0.78223 0.35941 0.0
H608 H 0.16546 0.71183 0.13913 0.0
H609 H 0.07857 0.73015 0.11043 0.0
H610 H 0.17894 0.76465 0.30322 0.0
H611 H 0.07519 0.606 0.25121 0.0
H612 H 1.03788 0.70633 0.1413 0.0
H613 H 1.02251 0.67081 0.18234 0.0
H614 H 0.30906 0.65324 0.29288 0.0
H615 H 1.03637 0.6327 0.2231 0.0
H616 H 0.20722 0.7606 0.40171 0.0
N617 N 0.24917 0.69478 0.29393 0.0
C618 C 0.24845 0.70158 0.32587 0.0
C619 C 0.29202 0.66671 0.30254 0.0
C620 C 0.26904 0.69065 0.34774 0.0
C621 C 0.27123 0.67838 0.28179 0.0
C622 C 0.29072 0.67256 0.33575 0.0
N623 N 0.21013 0.73223 0.31347 0.0
C624 C 0.19214 0.75451 0.32141 0.0
C625 C 0.22759 0.73069 0.36849 0.0
C626 C 0.22809 0.72109 0.33605 0.0
C627 C 0.20821 0.7525 0.37709 0.0
C628 C 0.1907 0.76475 0.35329 0.0
H629 H 0.30695 0.66365 0.35173 0.0
H630 H 0.28329 0.69054 0.39781 0.0
H631 H 0.24694 0.72579 0.41601 0.0
O632 O 0.24624 0.74243 0.26634 0.0
O633 O 0.21337 0.66596 0.2757 0.0
O634 O 0.17485 0.64456 0.24893 0.0
O635 O 0.21801 0.74302 0.22463 0.0
O636 O 0.17005 0.70874 0.28441 0.0
O637 O 0.14574 0.6724 0.25682 0.0
O638 O 0.19274 0.64151 0.19144 0.0
O639 O 0.15366 0.72019 0.20594 0.0
O640 O 0.17047 0.73664 0.25488 0.0
O641 O 0.15162 0.64585 0.16741 0.0
O642 O 0.19942 0.69654 0.18409 0.0
O643 O 0.23157 0.68624 0.22251 0.0
C644 C 0.19553 0.64387 0.2715 0.0
C645 C 0.23234 0.78801 0.24672 0.0
C646 C 0.22462 0.82807 0.28438 0.0
C647 C 0.21702 0.84568 0.25799 0.0
C648 C 0.22484 0.806 0.22075 0.0
C649 C 0.21746 0.83475 0.22639 0.0
C650 C 0.233 0.79952 0.27836 0.0
C651 C 0.14936 0.68943 0.28215 0.0
C652 C 0.23766 0.75699 0.24112 0.0
C653 C 0.26783 0.69889 0.38052 0.0
C654 C 0.24713 0.71894 0.39089 0.0
C655 C 0.15216 0.7389 0.23011 0.0
C656 C 0.17108 0.59938 0.16823 0.0
C657 C 0.15079 0.55823 0.13912 0.0
C658 C 0.16256 0.53967 0.16252 0.0
C659 C 0.18241 0.58059 0.19165 0.0
C660 C 0.15532 0.58801 0.14216 0.0
C661 C 0.17813 0.55087 0.18871 0.0
C662 C 0.22657 0.69142 0.19165 0.0
C663 C 0.17518 0.63087 0.16976 0.0
H664 H 0.21072 0.86788 0.26179 0.0
H665 H 0.22427 0.7977 0.1962 0.0
H666 H 0.21156 0.84848 0.20624 0.0
H667 H 0.23885 0.78596 0.29866 0.0
H668 H 0.15946 0.5166 0.16073 0.0
H669 H 0.19455 0.58878 0.21207 0.0
H670 H 0.14689 0.60248 0.12381 0.0
H671 H 0.18694 0.53645 0.20678 0.0
Tb672 Tb 0.93114 0.72954 0.58366 0.0
C673 C 0.96386 0.64099 0.46562 0.0
N674 N 0.95578 0.64065 0.49719 0.0
C675 C 0.92894 0.59709 0.4881 0.0
C676 C 0.95438 0.61974 0.44369 0.0
C677 C 0.93922 0.61854 0.50892 0.0
C678 C 0.93626 0.59787 0.45522 0.0
C679 C 0.99428 0.66178 0.42407 0.0
C680 C 0.98328 0.66163 0.45604 0.0
C681 C 0.98404 0.64153 0.40155 0.0
C682 C 0.96405 0.62053 0.41134 0.0
Tb683 Tb 0.97119 0.67797 0.52921 0.0
N684 N 0.99292 0.68026 0.47882 0.0
C685 C 1.01591 0.68159 0.41608 0.0
C686 C 1.01512 0.6987 0.47143 0.0
C687 C 1.02662 0.69988 0.44002 0.0
H688 H 0.9334 0.61766 0.53423 0.0
H689 H 1.04393 0.71475 0.43438 0.0
H690 H 0.87564 0.76194 0.54933 0.0
H691 H 1.00047 0.76459 0.68136 0.0
H692 H 1.02436 0.71261 0.4895 0.0
H693 H 1.02506 0.68235 0.39187 0.0
H694 H 0.97685 0.72887 0.64559 0.0
H695 H 0.9154 0.57996 0.49745 0.0
H696 H 0.992 0.64145 0.3768 0.0
H697 H 0.95685 0.60456 0.39401 0.0
H698 H 0.85696 0.8115 0.54392 0.0
H699 H 0.92845 0.58114 0.43917 0.0
H700 H 0.98918 0.81644 0.67547 0.0
N701 N 0.91115 0.77419 0.57877 0.0
C702 C 0.92401 0.79571 0.59558 0.0
C703 C 0.87602 0.80741 0.55831 0.0
C704 C 0.91386 0.82425 0.59381 0.0
C705 C 0.88676 0.77937 0.56122 0.0
C706 C 0.88986 0.83004 0.57433 0.0
N707 N 0.95355 0.76044 0.61891 0.0
C708 C 0.97191 0.75149 0.64287 0.0
C709 C 0.95857 0.80964 0.63662 0.0
C710 C 0.94598 0.78857 0.61658 0.0
C711 C 0.97895 0.80091 0.65962 0.0
C712 C 0.98532 0.77164 0.66307 0.0
H713 H 0.88133 0.85168 0.5723 0.0
H714 H 0.92 0.86788 0.61121 0.0
H715 H 0.95923 0.85506 0.64877 0.0
O716 O 0.8953 0.7032 0.5965 0.0
O717 O 0.97682 0.74395 0.57936 0.0
O718 O 0.99776 0.71852 0.53731 0.0
O719 O 0.9104 0.73714 0.62761 0.0
O720 O 0.95411 0.692 0.60541 0.0
O721 O 0.9421 0.66038 0.56749 0.0
O722 O 0.99942 0.64292 0.53013 0.0
O723 O 0.924 0.67586 0.51771 0.0
O724 O 0.90371 0.71674 0.5407 0.0
O725 O 0.99998 0.67453 0.56867 0.0
O726 O 0.96652 0.71964 0.50559 0.0
O727 O 0.93153 0.7463 0.53342 0.0
C728 C 0.99823 0.74023 0.55855 0.0
C729 C 0.861 0.72931 0.62951 0.0
C730 C 0.8303 0.75894 0.66463 0.0
C731 C 0.80708 0.75419 0.6434 0.0
C732 C 0.83769 0.72501 0.60842 0.0
C733 C 0.81081 0.73727 0.61556 0.0
C734 C 0.85692 0.74587 0.65771 0.0
C735 C 0.94686 0.66533 0.59835 0.0
C736 C 0.89029 0.71832 0.62268 0.0
C737 C 0.9273 0.84575 0.61243 0.0
C738 C 0.94963 0.83845 0.63382 0.0
C739 C 0.90257 0.69474 0.51985 0.0
C740 C 1.0449 0.65767 0.54911 0.0
C741 C 0.0843 0.66529 0.51051 0.0
C742 C 0.10207 0.67437 0.53609 0.0
C743 C 1.06297 0.66648 0.57446 0.0
C744 C 1.05614 0.65618 0.51741 0.0
C745 C 0.09154 0.67448 0.56797 0.0
C746 C 0.94872 0.74164 0.5082 0.0
C747 C 1.01371 0.65322 0.55475 0.0
H748 H 0.78626 0.764 0.64796 0.0
H749 H 0.84027 0.71251 0.58643 0.0
H750 H 0.79288 0.73399 0.5992 0.0
H751 H 0.87481 0.74884 0.67428 0.0
H752 H 0.12394 0.68156 0.5314 0.0
H753 H 1.05479 0.66788 0.59907 0.0
H754 H 1.04245 0.64956 0.49753 0.0
H755 H 0.10532 0.68155 0.58756 0.0
Tb756 Tb 0.16906 0.17663 0.83704 0.0
C757 C 0.25321 0.21604 0.71912 0.0
N758 N 0.25612 0.20754 0.75042 0.0
C759 C 0.30021 0.18311 0.73693 0.0
C760 C 0.27334 0.2078 0.69516 0.0
C761 C 0.27984 0.19217 0.75988 0.0
C762 C 0.29674 0.19061 0.70433 0.0
C763 C 0.22883 0.24661 0.68033 0.0
C764 C 0.23129 0.23502 0.71182 0.0
C765 C 0.24787 0.23736 0.65585 0.0
C766 C 0.27007 0.21794 0.66325 0.0
Tb767 Tb 0.22056 0.22192 0.78553 0.0
N768 N 0.21391 0.24393 0.73636 0.0
C769 C 0.20811 0.26795 0.67477 0.0
C770 C 0.19471 0.26588 0.73146 0.0
C771 C 0.19123 0.27787 0.70057 0.0
H772 H 0.28267 0.18623 0.785 0.0
H773 H 0.17566 0.29488 0.69673 0.0
H774 H 0.10306 0.16185 0.81262 0.0
H775 H 0.20729 0.26276 0.91657 0.0
H776 H 0.18178 0.274 0.75126 0.0
H777 H 0.20561 0.27752 0.65096 0.0
H778 H 0.21184 0.22909 0.87164 0.0
H779 H 0.31859 0.17038 0.74439 0.0
H780 H 0.24617 0.24577 0.6314 0.0
H781 H 0.28515 0.21165 0.64439 0.0
H782 H 1.0534 0.16896 0.83383 0.0
H783 H 0.31268 0.18377 0.68666 0.0
H784 H 0.16082 0.26782 0.94556 0.0
N785 N 0.12254 0.18623 0.85022 0.0
C786 C 0.11872 0.20258 0.87719 0.0
C787 C 1.07159 0.17856 0.84621 0.0
C788 C 0.09092 0.2074 0.88996 0.0
C789 C 0.09959 0.17469 0.83417 0.0
C790 C 1.06726 0.19467 0.87446 0.0
N791 N 0.16883 0.21314 0.87504 0.0
C792 C 0.19159 0.2301 0.88394 0.0
C793 C 0.13898 0.23631 0.91574 0.0
C794 C 0.14264 0.21672 0.88991 0.0
C795 C 0.16275 0.25247 0.92588 0.0
C796 C 0.18899 0.24969 0.90954 0.0
H797 H 1.04554 0.19775 0.88362 0.0
H798 H 1.0664 0.22929 0.92738 0.0
H799 H 0.10842 0.25471 0.94986 0.0
O800 O 0.15087 0.1353 0.8348 0.0
O801 O 0.14582 0.21653 0.82113 0.0
O802 O 0.18164 0.24752 0.8031 0.0
O803 O 0.16361 0.15226 0.88034 0.0
O804 O 0.21296 0.17696 0.86001 0.0
O805 O 0.24442 0.19974 0.82467 0.0
O806 O 0.25375 0.25181 0.77827 0.0
O807 O 0.22431 0.17554 0.77006 0.0
O808 O 0.18962 0.14956 0.7983 0.0
O809 O 0.22834 0.25231 0.82238 0.0
O810 O 0.17909 0.21587 0.76212 0.0
O811 O 0.15636 0.17615 0.78548 0.0
C812 C 0.15456 0.24283 0.81316 0.0
C813 C 0.12171 0.12197 0.87953 0.0
C814 C 0.08739 0.11688 0.92453 0.0
C815 C 1.06713 0.10522 0.90293 0.0
C816 C 0.1013 0.10907 0.85884 0.0
C817 C 0.07416 0.10116 0.87041 0.0
C818 C 0.11479 0.12526 0.91275 0.0
C819 C 0.23922 0.18624 0.85225 0.0
C820 C 0.14988 0.13165 0.86588 0.0
C821 C 0.08756 0.22554 0.91694 0.0
C822 C 0.11152 0.24 0.92975 0.0
C823 C 0.20948 0.1514 0.77499 0.0
C824 C 0.24013 0.29729 0.79838 0.0
C825 C 0.22978 0.33603 0.76 0.0
C826 C 0.22014 0.35328 0.78585 0.0
C827 C 0.23074 0.31491 0.82396 0.0
C828 C 0.24063 0.30853 0.76667 0.0
C829 C 0.2211 0.34289 0.81769 0.0
C830 C 0.1603 0.19469 0.76151 0.0
C831 C 0.24657 0.26651 0.80399 0.0
H832 H 1.04604 0.09843 0.91146 0.0
H833 H 0.10606 0.10553 0.8334 0.0
H834 H 1.05854 0.09169 0.8541 0.0
H835 H 0.13044 0.13444 0.92927 0.0
H836 H 0.21168 0.37465 0.78138 0.0
H837 H 0.23017 0.30679 0.84861 0.0
H838 H 0.2477 0.29519 0.74662 0.0
H839 H 0.21357 0.35627 0.83747 0.0
Tb840 Tb 0.72521 0.41893 0.07921 0.0
C841 C 0.69003 0.50572 0.96431 0.0
N842 N 0.69613 0.50646 0.99645 0.0
C843 C 0.7208 0.55158 0.98908 0.0
C844 C 0.6997 0.52748 0.94301 0.0
C845 C 0.71038 0.52965 1.00927 0.0
C846 C 0.7158 0.5503 0.95572 0.0
C847 C 0.66276 0.48385 0.92085 0.0
C848 C 0.67203 0.48427 0.95338 0.0
C849 C 0.67349 0.50454 0.89901 0.0
C850 C 0.692 0.52631 0.91008 0.0
Tb851 Tb 0.68014 0.468 0.02679 0.0
N852 N 0.6617 0.46524 0.97544 0.0
C853 C 0.6421 0.46344 0.91166 0.0
C854 C 0.64045 0.44628 0.967 0.0
C855 C 0.63057 0.44485 0.935 0.0
H856 H 0.71459 0.53096 0.03494 0.0
H857 H 0.61396 0.42954 0.92843 0.0
H858 H 0.74831 0.3544 0.05981 0.0
H859 H 0.63929 0.45342 0.1615 0.0
H860 H 0.63115 0.43216 0.98493 0.0
H861 H 0.63426 0.46247 0.88695 0.0
H862 H 0.67132 0.45889 0.11486 0.0
H863 H 0.73267 0.56949 0.99928 0.0
H864 H 0.66689 0.50443 0.87382 0.0
H865 H 0.69943 0.54267 0.89324 0.0
H866 H 0.74645 0.30548 0.08407 0.0
H867 H 0.72369 0.56745 0.94019 0.0
H868 H 0.63866 0.4079 0.19254 0.0
N869 N 0.72171 0.37283 0.09624 0.0
C870 C 0.70564 0.3687 0.12351 0.0
C871 C 0.73485 0.32307 0.09534 0.0
C872 C 0.70376 0.34131 0.138 0.0
C873 C 0.73579 0.35061 0.08159 0.0
C874 C 0.71897 0.31844 0.12381 0.0
N875 N 0.69098 0.41772 0.1198 0.0
C876 C 0.67238 0.43927 0.12829 0.0
C877 C 0.67112 0.3876 0.1624 0.0
C878 C 0.68978 0.39185 0.13571 0.0
C879 C 0.65336 0.41032 0.17221 0.0
C880 C 0.65368 0.43606 0.15475 0.0
H881 H 0.71819 0.29706 0.13432 0.0
H882 H 0.68472 0.31664 0.17725 0.0
H883 H 0.65597 0.35702 0.19842 0.0
O884 O 0.77021 0.41712 0.07301 0.0
O885 O 0.68439 0.39497 0.06807 0.0
O886 O 0.65603 0.42617 0.0378 0.0
O887 O 0.75177 0.40772 0.11901 0.0
O888 O 0.72454 0.46298 0.10142 0.0
O889 O 0.69691 0.49245 0.06907 0.0
O890 O 0.64717 0.49806 1.02006 0.0
O891 O 0.72779 0.47444 1.01773 0.0
O892 O 0.7486 0.43231 0.03463 0.0
O893 O 0.64878 0.47161 0.0635 0.0
O894 O 0.68911 0.42795 1.00096 0.0
O895 O 0.72118 0.39928 0.03055 0.0
C896 C 0.65958 0.40117 0.05361 0.0
C897 C 0.79359 0.38141 0.10408 0.0
C898 C 0.81364 0.34262 0.13688 0.0
C899 C 0.82849 0.3322 0.10956 0.0
C900 C 0.80871 0.37078 0.07694 0.0
C901 C 0.82594 0.34624 0.07973 0.0
C902 C 0.79632 0.36727 0.13393 0.0
C903 C 0.71284 0.48837 0.09514 0.0
C904 C 0.7751 0.40723 0.10175 0.0
C905 C 0.68632 0.3375 0.16559 0.0
C906 C 0.66998 0.36054 0.17769 0.0
C907 C 0.74908 0.45538 1.01602 0.0
C908 C 0.60294 0.47954 0.03962 0.0
C909 C 0.56479 0.46818 1.00089 0.0
C910 C 0.54899 0.4548 0.02586 0.0
C911 C 0.58671 0.46642 0.06438 0.0
C912 C 0.59122 0.48127 1.00824 0.0
C913 C 0.55974 0.45437 0.05753 0.0
C914 C 0.70577 0.40515 1.00429 0.0
C915 C 0.63302 0.48879 0.04552 0.0
H916 H 0.84193 0.31319 0.11125 0.0
H917 H 0.80716 0.38127 0.05353 0.0
H918 H 0.8374 0.33811 0.05873 0.0
H919 H 0.78526 0.37578 0.15508 0.0
H920 H 0.52845 0.4446 0.02086 0.0
H921 H 0.59519 0.46486 0.08879 0.0
H922 H 0.60348 0.49127 0.98883 0.0
H923 H 0.54747 0.44401 0.07665 0.0
Tb924 Tb 0.48395 0.9748 0.33331 0.0
C925 C 0.40072 0.93744 0.2157 0.0
N926 N 0.39841 0.94596 0.24711 0.0
C927 C 0.3556 0.97269 0.23433 0.0
C928 C 0.38082 0.94667 0.19212 0.0
C929 C 0.37566 0.96262 0.25695 0.0
C930 C 0.35835 0.96495 0.20171 0.0
C931 C 0.42386 0.90645 0.17617 0.0
C932 C 0.42199 0.91779 0.2078 0.0
C933 C 0.4049 0.91648 0.15214 0.0
C934 C 0.38345 0.93661 0.16009 0.0
Tb935 Tb 0.43371 0.92976 0.28125 0.0
N936 N 0.43944 0.90822 0.23185 0.0
C937 C 0.444 0.88465 0.16998 0.0
C938 C 0.45829 0.88611 0.22632 0.0
C939 C 0.46104 0.87421 0.19528 0.0
H940 H 0.37339 0.96886 0.28204 0.0
H941 H 0.4762 0.85691 0.19094 0.0
H942 H 0.55008 0.99188 0.31094 0.0
H943 H 0.4453 0.88696 0.41065 0.0
H944 H 0.47137 0.87771 0.24577 0.0
H945 H 0.446 0.87523 0.14604 0.0
H946 H 0.44099 0.9216 0.36663 0.0
H947 H 0.33798 0.98638 0.24209 0.0
H948 H 0.40614 0.90824 0.12759 0.0
H949 H 0.36851 0.94362 0.14153 0.0
H950 H 0.5994 0.98512 0.33286 0.0
H951 H 0.34263 0.97259 0.18432 0.0
H952 H 0.49148 0.88159 0.43977 0.0
N953 N 0.53033 0.96579 0.34708 0.0
C954 C 0.53389 0.9487 0.37352 0.0
C955 C 0.58117 0.97472 0.34445 0.0
C956 C 0.56152 0.94403 0.38662 0.0
C957 C 0.55336 0.97839 0.332 0.0
C958 C 0.58524 0.95771 0.37208 0.0
N959 N 0.48385 0.93777 0.37069 0.0
C960 C 0.46112 0.92045 0.37901 0.0
C961 C 0.51343 0.9139 0.41093 0.0
C962 C 0.50992 0.93402 0.38558 0.0
C963 C 0.48967 0.89735 0.42048 0.0
C964 C 0.46358 0.90031 0.40408 0.0
H965 H 0.60682 0.9548 0.38156 0.0
H966 H 0.5857 0.92158 0.42373 0.0
H967 H 0.54368 0.89505 0.44488 0.0
O968 O 0.50114 1.01647 0.33057 0.0
O969 O 0.5081 0.93567 0.31627 0.0
O970 O 0.47274 0.9044 0.29813 0.0
O971 O 0.49016 0.99874 0.37661 0.0
O972 O 0.44015 0.9742 0.35658 0.0
O973 O 0.40927 0.95124 0.32105 0.0
O974 O 0.40095 0.8997 0.27268 0.0
O975 O 0.43287 0.97534 0.26326 0.0
O976 O 0.4611 1.00303 0.2975 0.0
O977 O 0.42552 0.89857 0.31719 0.0
O978 O 0.47538 0.93598 0.25775 0.0
O979 O 0.49687 0.97593 0.28177 0.0
C980 C 0.49971 0.90932 0.30807 0.0
C981 C 0.53044 1.03115 0.37407 0.0
C982 C 0.56843 1.03386 0.41514 0.0
C983 C 0.58398 1.05261 0.39469 0.0
C984 C 0.54636 1.05031 0.35451 0.0
C985 C 0.57298 1.06074 0.36469 0.0
C986 C 0.54149 1.02317 0.40467 0.0
C987 C 0.41401 0.96501 0.34861 0.0
C988 C 0.50259 1.01998 0.36165 0.0
C989 C 0.56468 0.92526 0.41307 0.0
C990 C 0.54072 0.91018 0.42513 0.0
C991 C 0.44463 1.00039 0.27131 0.0
C992 C 0.41447 0.85389 0.29206 0.0
C993 C 0.42353 0.8151 0.25326 0.0
C994 C 0.43437 0.79801 0.27859 0.0
C995 C 0.42502 0.83637 0.31712 0.0
C996 C 0.41279 0.84259 0.26042 0.0
C997 C 0.43466 0.80848 0.31039 0.0
C998 C 0.49322 0.95801 0.25718 0.0
C999 C 0.40777 0.88457 0.29816 0.0
H1000 H 0.60443 1.06168 0.40223 0.0
H1001 H 0.53828 1.05713 0.3311 0.0
H1002 H 0.58505 0.0754 0.34935 0.0
H1003 H 0.5294 1.00856 0.4201 0.0
H1004 H 0.44271 0.77665 0.27376 0.0
H1005 H 0.42645 0.84448 0.3417 0.0
H1006 H 0.40478 0.85582 0.24075 0.0
H1007 H 0.44307 0.79519 0.32976 0.0
Tb1008 Tb 0.17551 0.46224 0.51148 0.0
C1009 C 0.21366 0.34229 0.45328 0.0
N1010 N 0.22945 0.36436 0.46532 0.0
C1011 C 0.26294 0.33074 0.48841 0.0
C1012 C 0.2212 0.3134 0.45932 0.0
C1013 C 0.25477 0.35903 0.48119 0.0
C1014 C 0.24577 0.3078 0.47796 0.0
C1015 C 0.17712 0.32681 0.41534 0.0
C1016 C 0.19197 0.34885 0.43181 0.0
C1017 C 0.1829 0.29791 0.42307 0.0
C1018 C 0.20494 0.2912 0.44509 0.0
Tb1019 Tb 0.21271 0.40984 0.45509 0.0
N1020 N 0.18789 0.37695 0.42433 0.0
C1021 C 0.1583 0.33449 0.39028 0.0
C1022 C 0.17162 0.38439 0.39792 0.0
C1023 C 0.15609 0.36337 0.38101 0.0
H1024 H 0.26829 0.37664 0.48905 0.0
H1025 H 0.14244 0.36944 0.36089 0.0
H1026 H 0.21693 0.52041 0.5037 0.0
H1027 H 0.10342 0.43054 0.60872 0.0
H1028 H 0.16986 0.40675 0.39081 0.0
H1029 H 0.14647 0.31822 0.37697 0.0
H1030 H 0.12249 0.43027 0.55314 0.0
H1031 H 0.28254 0.32664 0.50185 0.0
H1032 H 0.17144 0.28061 0.41105 0.0
H1033 H 0.21011 0.26883 0.44975 0.0
H1034 H 0.23695 0.55813 0.53891 0.0
H1035 H 0.25234 0.2859 0.4832 0.0
H1036 H 0.12373 0.46382 0.64954 0.0
N1037 N 0.19343 0.49968 0.54165 0.0
C1038 C 0.1855 0.50071 0.57329 0.0
C1039 C 0.22257 0.54202 0.54896 0.0
C1040 C 0.19621 0.52208 0.59434 0.0
C1041 C 0.21109 0.52052 0.52902 0.0
C1042 C 0.21535 0.54264 0.58187 0.0
N1043 N 0.15465 0.46223 0.56212 0.0
C1044 C 0.13222 0.44451 0.57061 0.0
C1045 C 0.15473 0.48238 0.61606 0.0
C1046 C 0.16528 0.48121 0.58394 0.0
C1047 C 0.13257 0.46353 0.62516 0.0
C1048 C 0.12106 0.44473 0.6022 0.0
H1049 H 0.22411 0.55941 0.59722 0.0
H1050 H 0.19493 0.53879 0.64344 0.0
H1051 H 0.15843 0.50398 0.66249 0.0
O1052 O 0.14581 0.49609 0.51213 0.0
O1053 O 0.22219 0.46169 0.52492 0.0
O1054 O 0.24322 0.42469 0.49497 0.0
O1055 O 0.14633 0.4657 0.47241 0.0
O1056 O 0.17958 0.4204 0.53473 0.0
O1057 O 0.21454 0.39482 0.50605 0.0
O1058 O 0.24664 0.43569 0.43627 0.0
O1059 O 0.16433 0.40694 0.45593 0.0
O1060 O 0.15113 0.42014 0.50689 0.0
O1061 O 0.23318 0.39662 0.41258 0.0
O1062 O 0.19105 0.44803 0.43298 0.0
O1063 O 0.20316 0.47962 0.4714 0.0
C1064 C 0.24445 0.44453 0.51859 0.0
C1065 C 0.10076 0.48004 0.49273 0.0
C1066 C 1.06124 0.47204 0.53114 0.0
C1067 C 1.04451 0.46051 0.50593 0.0
C1068 C 0.08364 0.46878 0.46774 0.0
C1069 C 1.05553 0.45937 0.47431 0.0
C1070 C 0.0889 0.4826 0.52406 0.0
C1071 C 0.19866 0.39951 0.5322 0.0
C1072 C 0.13177 0.48593 0.48723 0.0
C1073 C 0.18682 0.52268 0.62679 0.0
C1074 C 0.16606 0.50286 0.63764 0.0
C1075 C 0.14726 0.40319 0.48134 0.0
C1076 C 0.28149 0.40863 0.40538 0.0
C1077 C 0.31363 0.38161 0.36935 0.0
C1078 C 0.33692 0.38837 0.38978 0.0
C1079 C 0.30485 0.41495 0.42573 0.0
C1080 C 0.28616 0.3923 0.37719 0.0
C1081 C 0.33248 0.40496 0.41776 0.0
C1082 C 0.19772 0.47478 0.44052 0.0
C1083 C 0.25167 0.41757 0.41269 0.0
H1084 H 1.02304 0.45223 0.51073 0.0
H1085 H 0.09227 0.46654 0.44341 0.0
H1086 H 1.04254 0.4504 0.45501 0.0
H1087 H 0.10183 0.49117 0.54365 0.0
H1088 H 0.35839 0.3804 0.38451 0.0
H1089 H 0.30178 0.42734 0.44772 0.0
H1090 H 0.2681 0.38779 0.36129 0.0
H1091 H 0.35049 0.40982 0.4335 0.0
Tb1092 Tb 0.92716 0.92212 0.25861 0.0
C1093 C 1.0472 0.96208 0.1944 0.0
N1094 N 1.0264 0.97663 0.21069 0.0
C1095 C 1.06229 1.00767 0.23382 0.0
C1096 C 0.07662 0.96903 0.19798 0.0
C1097 C 1.03336 1.00017 0.22896 0.0
C1098 C 0.08408 0.9917 0.2187 0.0
C1099 C 1.05898 0.92875 0.15131 0.0
C1100 C 1.03857 0.94228 0.17159 0.0
C1101 C 0.08854 0.93399 0.15619 0.0
C1102 C 0.09736 0.95412 0.17954 0.0
Tb1103 Tb 0.98001 0.96101 0.20371 0.0
N1104 N 1.00985 0.9386 0.16716 0.0
C1105 C 1.04897 0.91165 0.12575 0.0
C1106 C 0.99993 0.92372 0.14079 0.0
C1107 C 1.0193 0.90961 0.12008 0.0
H1108 H 1.01659 1.01281 0.24034 0.0
H1109 H 1.01135 0.89718 0.09978 0.0
H1110 H 0.86638 0.9591 0.25026 0.0
H1111 H 0.9623 0.85449 0.35794 0.0
H1112 H 0.97703 0.92204 0.13631 0.0
H1113 H 1.06393 0.90088 0.10956 0.0
H1114 H 0.96063 0.87114 0.30139 0.0
H1115 H 1.06774 1.02586 0.24902 0.0
H1116 H 0.10464 0.92352 0.14117 0.0
H1117 H 0.12014 0.95886 0.18219 0.0
H1118 H 0.82838 0.97916 0.2855 0.0
H1119 H 0.10645 0.99776 0.22216 0.0
H1120 H 0.92987 0.87608 0.39906 0.0
N1121 N 0.88936 0.93935 0.28901 0.0
C1122 C 0.88944 0.93317 0.32111 0.0
C1123 C 0.84554 0.96637 0.2959 0.0
C1124 C 0.868 0.94389 0.3422 0.0
C1125 C 0.86718 0.95492 0.27596 0.0
C1126 C 0.84615 0.96116 0.32927 0.0
N1127 N 0.92864 0.90323 0.31019 0.0
C1128 C 0.94678 0.88135 0.31902 0.0
C1129 C 0.90977 0.90513 0.36478 0.0
C1130 C 0.90993 0.91429 0.33216 0.0
C1131 C 0.92935 0.88384 0.37427 0.0
C1132 C 0.94767 0.87161 0.35114 0.0
H1133 H 0.82926 0.96986 0.34463 0.0
H1134 H 0.8524 0.94434 0.39188 0.0
H1135 H 0.88907 0.91022 0.4117 0.0
O1136 O 0.89335 0.89234 0.26066 0.0
O1137 O 0.92456 0.96967 0.26687 0.0
O1138 O 0.96786 0.98776 0.24755 0.0
O1139 O 0.92371 0.89173 0.22066 0.0
O1140 O 0.9683 0.92759 0.28351 0.0
O1141 O 0.99711 0.95945 0.25383 0.0
O1142 O 0.95096 0.99373 0.18951 0.0
O1143 O 0.9857 0.91319 0.20299 0.0
O1144 O 0.96941 0.89795 0.25254 0.0
O1145 O 0.99169 0.98752 0.16482 0.0
O1146 O 0.94262 0.93835 0.18051 0.0
O1147 O 0.90919 0.94843 0.21805 0.0
C1148 C 0.9449 0.98979 0.2671 0.0
C1149 C 0.90877 0.84685 0.24233 0.0
C1150 C 0.91887 0.80835 0.28126 0.0
C1151 C 0.92619 0.7901 0.25529 0.0
C1152 C 0.91612 0.82832 0.21678 0.0
C1153 C 0.92439 0.79995 0.22327 0.0
C1154 C 0.90911 0.83626 0.27435 0.0
C1155 C 0.99136 0.94399 0.28006 0.0
C1156 C 0.90331 0.87772 0.23605 0.0
C1157 C 0.86853 0.93615 0.37517 0.0
C1158 C 0.8894 0.91674 0.38646 0.0
C1159 C 0.98776 0.89523 0.22779 0.0
C1160 C 0.97494 1.03497 0.16666 0.0
C1161 C 0.99744 0.07553 0.13813 0.0
C1162 C 0.98744 0.09411 0.16261 0.0
C1163 C 0.96545 1.05381 0.19109 0.0
C1164 C 0.99094 1.04601 0.14036 0.0
C1165 C 0.97167 0.08323 0.18894 0.0
C1166 C 0.91527 0.94362 0.18731 0.0
C1167 C 0.969 1.00373 0.16773 0.0
H1168 H 0.93345 0.76829 0.25972 0.0
H1169 H 0.91597 0.83595 0.19193 0.0
H1170 H 0.93016 0.78577 0.20345 0.0
H1171 H 0.90317 0.85025 0.29421 0.0
H1172 H 0.99214 0.11694 0.16159 0.0
H1173 H 0.95333 1.04587 0.21177 0.0
H1174 H 0.99808 1.03152 0.12132 0.0
H1175 H 0.96428 0.09768 0.20781 0.0
Tb1176 Tb 0.46292 0.67687 1.00868 0.0
C1177 C 0.41588 0.79289 0.94016 0.0
N1178 N 0.40291 0.77186 0.95782 0.0
C1179 C 0.36927 0.80622 0.97928 0.0
C1180 C 0.40657 0.82171 0.94199 0.0
C1181 C 0.37915 0.77787 0.97632 0.0
C1182 C 0.38328 0.82832 0.96239 0.0
C1183 C 0.4497 0.80553 0.89753 0.0
C1184 C 0.43705 0.78496 0.9183 0.0
C1185 C 0.44165 0.8346 0.90037 0.0
C1186 C 0.4201 0.84268 0.92257 0.0
Tb1187 Tb 0.42208 0.72678 0.95306 0.0
N1188 N 0.44382 0.7566 0.91602 0.0
C1189 C 0.46926 0.79609 0.87387 0.0
C1190 C 0.46143 0.74701 0.89157 0.0
C1191 C 0.47481 0.76664 0.87057 0.0
H1192 H 0.368 0.7609 0.98917 0.0
H1193 H 0.48933 0.75906 0.85182 0.0
H1194 H 0.42366 0.61713 1.00309 0.0
H1195 H 0.53174 0.71457 0.10558 0.0
H1196 H 0.46583 0.7243 0.8889 0.0
H1197 H 0.47949 0.81121 0.85743 0.0
H1198 H 0.51418 0.71184 0.04947 0.0
H1199 H 0.35077 0.81098 0.99446 0.0
H1200 H 0.45132 0.85083 0.88486 0.0
H1201 H 0.41347 0.86502 0.92383 0.0
H1202 H 0.40342 0.58062 0.04011 0.0
H1203 H 0.37543 0.85021 0.9645 0.0
H1204 H 0.51047 0.68324 0.14797 0.0
N1205 N 0.44491 0.64053 0.04051 0.0
C1206 C 0.45176 0.64138 0.07244 0.0
C1207 C 0.41689 0.59769 0.04957 0.0
C1208 C 0.44095 0.62078 0.09448 0.0
C1209 C 0.42845 0.61848 0.02862 0.0
C1210 C 0.42288 0.59903 0.08273 0.0
N1211 N 0.48214 0.68007 0.05979 0.0
C1212 C 0.50421 0.69836 0.06766 0.0
C1213 C 0.48074 0.66256 0.11488 0.0
C1214 C 0.47115 0.66196 0.08246 0.0
C1215 C 0.50237 0.68218 0.12336 0.0
C1216 C 0.51443 0.69988 0.09951 0.0
H1217 H 0.41407 0.58279 0.09886 0.0
H1218 H 0.44099 0.6066 0.14462 0.0
H1219 H 0.47603 0.64319 0.1625 0.0
O1220 O 0.49255 0.6433 1.01427 0.0
O1221 O 0.41636 0.67667 0.02374 0.0
O1222 O 0.39407 0.71401 0.99582 0.0
O1223 O 0.4934 0.67004 0.97125 0.0
O1224 O 0.45937 0.71975 0.02954 0.0
O1225 O 0.42176 0.74331 1.00324 0.0
O1226 O 0.39049 0.69632 0.93889 0.0
O1227 O 0.46777 0.74177 0.95613 0.0
O1228 O 0.48917 0.71729 0.99867 0.0
O1229 O 0.39647 0.73627 0.91292 0.0
O1230 O 0.44719 0.69036 0.93114 0.0
O1231 O 0.43672 0.6576 0.96881 0.0
C1232 C 0.39384 0.69389 1.01907 0.0
C1233 C 0.53834 0.65715 0.99451 0.0
C1234 C 0.5778 0.66691 0.03236 0.0
C1235 C 0.59535 0.67503 1.00599 0.0
C1236 C 0.55632 0.66513 0.96856 0.0
C1237 C 0.58474 0.67378 0.97431 0.0
C1238 C 0.54962 0.65722 0.02626 0.0
C1239 C 0.43994 0.74031 0.02764 0.0
C1240 C 0.50738 0.65116 0.98882 0.0
C1241 C 0.44923 0.62208 0.12722 0.0
C1242 C 0.46916 0.64292 0.1374 0.0
C1243 C 0.48938 0.73851 0.97673 0.0
C1244 C 0.34926 0.71865 0.91393 0.0
C1245 C 0.30952 0.74189 0.88496 0.0
C1246 C 0.28994 0.7299 0.9073 0.0
C1247 C 0.32944 0.70711 0.93627 0.0
C1248 C 0.33908 0.73597 0.88842 0.0
C1249 C 0.29992 0.71273 0.93287 0.0
C1250 C 0.44184 0.66313 0.93802 0.0
C1251 C 0.38064 0.71339 0.9162 0.0
H1252 H 0.61727 0.68236 1.00989 0.0
H1253 H 0.54819 0.66521 0.94394 0.0
H1254 H 0.59843 0.6801 0.95419 0.0
H1255 H 0.53609 0.65104 0.04656 0.0
H1256 H 0.26702 0.73406 0.9052 0.0
H1257 H 0.33666 0.69381 0.95626 0.0
H1258 H 0.35429 0.74463 0.87086 0.0
H1259 H 0.28471 0.70377 0.95013 0.0
Tb1260 Tb 0.71178 0.21107 0.7584 0.0
C1261 C 0.59647 0.16424 0.6889 0.0
N1262 N 0.61707 0.15111 0.70692 0.0
C1263 C 0.5818 0.11823 0.72817 0.0
C1264 C 0.56741 0.15537 0.6904 0.0
C1265 C 0.61041 0.12768 0.72554 0.0
C1266 C 0.56013 0.13237 0.71085 0.0
C1267 C 0.5849 0.19805 0.6461 0.0
C1268 C 0.60504 0.1852 0.6671 0.0
C1269 C 0.55561 0.19038 0.64855 0.0
C1270 C 0.54688 0.16906 0.67067 0.0
Tb1271 Tb 0.66255 0.1696 0.70266 0.0
N1272 N 0.63358 0.19172 0.6653 0.0
C1273 C 0.59497 0.21748 0.62266 0.0
C1274 C 0.64379 0.20924 0.64112 0.0
C1275 C 0.62459 0.22277 0.61987 0.0
H1276 H 0.62708 0.11645 0.7387 0.0
H1277 H 0.63265 0.23723 0.60131 0.0
H1278 H 0.77206 0.17266 0.75537 0.0
H1279 H 0.67241 0.28274 0.85217 0.0
H1280 H 0.66663 0.21347 0.63885 0.0
H1281 H 0.58018 0.22787 0.60605 0.0
H1282 H 0.6763 0.26369 0.79681 0.0
H1283 H 0.57652 0.09997 0.74341 0.0
H1284 H 0.5397 0.20021 0.63285 0.0
H1285 H 0.52437 0.16277 0.67167 0.0
H1286 H 0.80795 0.15355 0.79375 0.0
H1287 H 0.53804 0.12486 0.71272 0.0
H1288 H 0.70263 0.26255 0.89599 0.0
N1289 N 0.7476 0.19437 0.7917 0.0
C1290 C 0.746 0.2019 0.82339 0.0
C1291 C 0.79053 0.16703 0.80247 0.0
C1292 C 0.7662 0.19179 0.84619 0.0
C1293 C 0.77012 0.17794 0.78075 0.0
C1294 C 0.78837 0.17368 0.83543 0.0
N1295 N 0.70762 0.23176 0.80885 0.0
C1296 C 0.68931 0.25412 0.81557 0.0
C1297 C 0.7239 0.23189 0.8644 0.0
C1298 C 0.72518 0.22142 0.83232 0.0
C1299 C 0.7042 0.25377 0.8717 0.0
C1300 C 0.68712 0.26522 0.84703 0.0
H1301 H 0.80432 0.16539 0.85216 0.0
H1302 H 0.77931 0.19317 0.89663 0.0
H1303 H 0.74224 0.2285 0.91258 0.0
O1304 O 0.74626 0.23987 0.76223 0.0
O1305 O 0.71274 0.16445 0.77274 0.0
O1306 O 0.67514 0.14183 0.74554 0.0
O1307 O 0.7184 0.24079 0.72021 0.0
O1308 O 0.66867 0.20745 0.7791 0.0
O1309 O 0.64656 0.16888 0.75314 0.0
O1310 O 0.69302 0.13816 0.6882 0.0
O1311 O 0.64649 0.21492 0.70608 0.0
O1312 O 0.67138 0.23719 0.74769 0.0
O1313 O 0.65264 0.14328 0.66306 0.0
O1314 O 0.6998 0.19381 0.68097 0.0
O1315 O 0.73135 0.18361 0.71983 0.0
C1316 C 0.69564 0.14177 0.76836 0.0
C1317 C 0.73282 0.28556 0.74267 0.0
C1318 C 0.72426 0.32496 0.7809 0.0
C1319 C 0.71594 0.34264 0.75488 0.0
C1320 C 0.72473 0.30363 0.71699 0.0
C1321 C 0.71659 0.33211 0.7231 0.0
C1322 C 0.73343 0.29677 0.77444 0.0
C1323 C 0.64903 0.18707 0.77764 0.0
C1324 C 0.73806 0.25455 0.73692 0.0
C1325 C 0.76416 0.20087 0.87864 0.0
C1326 C 0.74305 0.22096 0.88772 0.0
C1327 C 0.64989 0.23695 0.7261 0.0
C1328 C 0.67083 0.09666 0.66447 0.0
C1329 C 0.65215 1.05593 0.63353 0.0
C1330 C 0.65357 1.03872 0.66148 0.0
C1331 C 0.67266 0.0791 0.69209 0.0
C1332 C 0.66106 0.0848 0.63518 0.0
C1333 C 0.66413 1.05021 0.69051 0.0
C1334 C 0.7268 0.18827 0.68882 0.0
C1335 C 0.67587 0.12794 0.66587 0.0
H1336 H 0.70889 0.36455 0.75914 0.0
H1337 H 0.72411 0.29554 0.69235 0.0
H1338 H 0.71014 0.34587 0.70321 0.0
H1339 H 0.73963 0.28316 0.79457 0.0
H1340 H 0.64667 1.01643 0.66078 0.0
H1341 H 0.68014 0.0878 0.71488 0.0
H1342 H 0.65923 0.09844 0.6139 0.0
H1343 H 0.66532 1.03682 0.71197 0.0
H1344 H 0.53551 0.25972 0.1071 0.0
H1345 H 0.61216 0.39258 1.0111 0.0
H1346 H 0.52342 0.27127 1.00457 0.0
H1347 H 0.65034 0.35441 0.09578 0.0
H1348 H 0.57553 0.3539 1.01099 0.0
H1349 H 0.57223 0.29829 0.10635 0.0
C1350 C 0.54025 0.27033 0.08433 0.0
C1351 C 0.5256 0.26147 0.05589 0.0
C1352 C 0.59188 0.35389 0.02969 0.0
C1353 C 0.56869 0.30738 0.0549 0.0
C1354 C 0.61309 0.37636 0.02986 0.0
C1355 C 0.63538 0.37759 0.05339 0.0
C1356 C 0.59168 0.3321 0.05378 0.0
C1357 C 0.63431 0.35507 0.07683 0.0
C1358 C 0.56163 0.29255 0.0839 0.0
C1359 C 0.53377 0.27661 0.02728 0.0
N1360 N 0.61316 0.33397 0.07657 0.0
N1361 N 0.55411 0.29857 0.02763 0.0
H1362 H 0.66189 0.80349 0.2997 0.0
H1363 H 0.49186 0.8496 0.30051 0.0
H1364 H 0.5931 0.74201 0.31181 0.0
H1365 H 0.56015 0.91119 0.31463 0.0
H1366 H 0.5281 0.81068 0.30013 0.0
H1367 H 0.62582 0.84266 0.30057 0.0
C1368 C 0.63931 0.79794 0.30247 0.0
C1369 C 0.63124 0.76862 0.30575 0.0
C1370 C 0.53532 0.83267 0.30331 0.0
C1371 C 0.58861 0.81466 0.30641 0.0
C1372 C 0.51439 0.85522 0.30349 0.0
C1373 C 0.52225 0.88449 0.30767 0.0
C1374 C 0.56513 0.8387 0.30682 0.0
C1375 C 0.55235 0.88942 0.3114 0.0
C1376 C 0.61848 0.82063 0.30304 0.0
C1377 C 0.60108 0.7638 0.3093 0.0
N1378 N 0.57225 0.86721 0.31069 0.0
N1379 N 0.58133 0.78612 0.30933 0.0
H1380 H 0.16561 0.83899 0.5603 0.0
H1381 H 0.99588 0.79804 0.57637 0.0
H1382 H 0.0993 0.90372 0.55688 0.0
H1383 H 1.05726 0.73695 0.53897 0.0
H1384 H 1.03358 0.83534 0.57589 0.0
H1385 H 0.12806 0.80135 0.55889 0.0
C1386 C 0.14323 0.84559 0.55934 0.0
C1387 C 0.13639 0.87539 0.55868 0.0
C1388 C 1.03904 0.81384 0.5678 0.0
C1389 C 0.09189 0.83089 0.55761 0.0
C1390 C 1.01728 0.79211 0.56825 0.0
C1391 C 1.02261 0.76346 0.55788 0.0
C1392 C 1.06749 0.80759 0.55758 0.0
C1393 C 1.05137 0.75828 0.54723 0.0
C1394 C 0.12154 0.82372 0.55842 0.0
C1395 C 0.10637 0.88151 0.55736 0.0
N1396 N 1.07235 0.77966 0.54773 0.0
N1397 N 0.08571 0.85987 0.55722 0.0
H1398 H 0.99195 0.34751 0.81082 0.0
H1399 H 0.16245 0.30303 0.80779 0.0
H1400 H 1.05948 0.40988 0.8247 0.0
H1401 H 0.09426 0.24094 0.82013 0.0
H1402 H 0.12607 0.34195 0.80971 0.0
H1403 H 1.02866 0.30904 0.8101 0.0
C1404 C 1.01439 0.3534 0.81387 0.0
C1405 C 1.02183 0.38276 0.81825 0.0
C1406 C 0.11893 0.31984 0.81203 0.0
C1407 C 1.06537 0.33746 0.81671 0.0
C1408 C 0.13995 0.29729 0.81085 0.0
C1409 C 0.13216 0.26786 0.81386 0.0
C1410 C 0.08913 0.31363 0.81575 0.0
C1411 C 0.10206 0.2628 0.81779 0.0
C1412 C 1.03561 0.3311 0.81343 0.0
C1413 C 1.05192 0.38802 0.82177 0.0
N1414 N 0.08214 0.28498 0.8184 0.0
N1415 N 1.07212 0.36605 0.82072 0.0
H1416 H 0.65493 0.83827 0.96421 0.0
H1417 H 0.48585 0.79699 0.96169 0.0
H1418 H 0.5911 0.90151 0.99012 0.0
H1419 H 0.54879 0.73495 0.99301 0.0
H1420 H 0.52335 0.83468 0.96275 0.0
H1421 H 0.61731 0.80075 0.96547 0.0
C1422 C 0.63302 0.84457 0.96999 0.0
C1423 C 0.62691 0.87387 0.97699 0.0
C1424 C 0.52915 0.81287 0.96934 0.0
C1425 C 0.58227 0.82963 0.97785 0.0
C1426 C 0.50755 0.79096 0.96854 0.0
C1427 C 0.51346 0.76196 0.9771 0.0
C1428 C 0.55793 0.80636 0.97785 0.0
C1429 C 0.54252 0.75655 0.98614 0.0
C1430 C 0.61134 0.82277 0.97087 0.0
C1431 C 0.59754 0.87965 0.98457 0.0
N1432 N 0.56332 0.77808 0.98581 0.0
N1433 N 0.57669 0.85817 0.98432 0.0
H1434 H 0.55043 0.40284 0.71069 0.0
H1435 H 0.59106 0.23365 0.7115 0.0
H1436 H 0.48707 0.33993 0.7394 0.0
H1437 H 0.65378 0.29668 0.74097 0.0
H1438 H 0.55356 0.27133 0.71203 0.0
H1439 H 0.58787 0.36514 0.71208 0.0
C1440 C 0.54404 0.38112 0.71704 0.0
C1441 C 0.5147 0.37535 0.72478 0.0
C1442 C 0.57547 0.27712 0.71833 0.0
C1443 C 0.55894 0.33051 0.72586 0.0
C1444 C 0.59729 0.25538 0.71785 0.0
C1445 C 0.62646 0.2612 0.72609 0.0
C1446 C 0.58219 0.30601 0.72613 0.0
C1447 C 0.63206 0.2904 0.73441 0.0
C1448 C 0.56583 0.35937 0.71802 0.0
C1449 C 0.50892 0.34618 0.73316 0.0
N1450 N 0.61063 0.3113 0.73375 0.0
N1451 N 0.53035 0.32526 0.733 0.0
H1452 H 1.03228 0.2524 0.52594 0.0
H1453 H 0.1142 0.38161 0.42949 0.0
H1454 H 0.99659 0.28902 0.439 0.0
H1455 H 0.12315 0.37094 0.53255 0.0
H1456 H 0.07632 0.3441 0.42955 0.0
H1457 H 1.06943 0.29036 0.52601 0.0
C1458 C 1.03187 0.26828 0.50679 0.0
C1459 C 1.01008 0.26684 0.48269 0.0
C1460 C 0.08649 0.34982 0.45225 0.0
C1461 C 1.05466 0.31143 0.48215 0.0
C1462 C 0.10856 0.37139 0.45223 0.0
C1463 C 0.12273 0.38013 0.48103 0.0
C1464 C 0.07824 0.33557 0.48124 0.0
C1465 C 0.1133 0.36562 0.50956 0.0
C1466 C 1.05348 0.29028 0.50688 0.0
C1467 C 1.01213 0.28865 0.45849 0.0
N1468 N 0.09234 0.3443 0.50884 0.0
N1469 N 1.03369 0.3094 0.45875 0.0
H1470 H 0.12958 0.77193 0.28154 0.0
H1471 H 1.01953 0.87165 0.17602 0.0
H1472 H 0.11877 0.76115 0.1787 0.0
H1473 H 1.01169 0.86328 0.27955 0.0
H1474 H 1.05822 0.83525 0.17643 0.0
H1475 H 0.09053 0.80807 0.28133 0.0
C1476 C 0.11937 0.77712 0.25871 0.0
C1477 C 0.12838 0.76273 0.23005 0.0
C1478 C 1.04813 0.84122 0.19918 0.0
C1479 C 0.08228 0.80558 0.22963 0.0
C1480 C 1.02578 0.86239 0.199 0.0
C1481 C 1.01146 0.87131 0.22776 0.0
C1482 C 1.0575 0.82843 0.2285 0.0
C1483 C 1.02131 0.85756 0.2565 0.0
C1484 C 0.09663 0.79794 0.25868 0.0
C1485 C 0.11319 0.77101 0.20161 0.0
N1486 N 1.04341 0.83742 0.25611 0.0
N1487 N 0.09154 0.79158 0.20213 0.0
H1488 H 0.28175 0.22705 0.86276 0.0
H1489 H 0.38216 0.14617 0.99221 0.0
H1490 H 0.25345 0.14567 0.90149 0.0
H1491 H 0.36893 0.23771 0.99786 0.0
H1492 H 0.34205 0.14296 0.95294 0.0
H1493 H 0.31981 0.22893 0.90421 0.0
C1494 C 0.28356 0.20926 0.87964 0.0
C1495 C 0.26377 0.18603 0.87776 0.0
C1496 C 0.34782 0.16378 0.96279 0.0
C1497 C 0.309 0.18795 0.92625 0.0
C1498 C 0.37097 0.16571 0.98544 0.0
C1499 C 0.37957 0.19233 0.99923 0.0
C1500 C 0.33315 0.18876 0.95224 0.0
C1501 C 0.36363 0.21661 0.98856 0.0
C1502 C 0.30546 0.21052 0.90368 0.0
C1503 C 0.26777 0.16408 0.90132 0.0
N1504 N 0.34194 0.2143 0.96576 0.0
N1505 N 0.28986 0.16539 0.9239 0.0
H1506 H 0.75789 0.50521 0.13721 0.0
H1507 H 0.66712 0.6111 0.25282 0.0
H1508 H 0.6705 0.52791 0.11341 0.0
H1509 H 0.75445 0.63464 0.22864 0.0
H1510 H 0.6688 0.57337 0.21096 0.0
H1511 H 0.75833 0.54425 0.1783 0.0
C1512 C 0.73872 0.51823 0.14043 0.0
C1513 C 0.71421 0.5128 0.12086 0.0
C1514 C 0.68775 0.58657 0.21485 0.0
C1515 C 0.71425 0.55788 0.16982 0.0
C1516 C 0.68691 0.60834 0.23913 0.0
C1517 C 0.71067 0.62683 0.24514 0.0
C1518 C 0.71297 0.58169 0.19631 0.0
C1519 C 0.73543 0.62139 0.22562 0.0
C1520 C 0.73904 0.54077 0.16408 0.0
C1521 C 0.69016 0.53094 0.12711 0.0
N1522 N 0.73602 0.59944 0.2028 0.0
N1523 N 0.69068 0.55191 0.15089 0.0
H1524 H 0.37303 0.92319 0.36275 0.0
H1525 H 0.26498 1.00487 0.48329 0.0
H1526 H 0.39765 1.00801 0.39418 0.0
H1527 H 0.29233 0.91845 0.50492 0.0
H1528 H 0.30423 1.00831 0.44234 0.0
H1529 H 0.33499 0.92243 0.40473 0.0
C1530 C 0.37037 0.94195 0.37807 0.0
C1531 C 0.38918 0.96577 0.37407 0.0
C1532 C 0.3017 0.98859 0.45609 0.0
C1533 C 0.34389 0.96523 0.42301 0.0
C1534 C 0.27905 0.98655 0.47972 0.0
C1535 C 0.27472 0.96132 0.49855 0.0
C1536 C 0.32005 0.96487 0.44965 0.0
C1537 C 0.29424 0.93851 0.49171 0.0
C1538 C 0.34848 0.94138 0.4024 0.0
C1539 C 0.38412 0.98906 0.3957 0.0
N1540 N 0.31525 0.94066 0.46796 0.0
N1541 N 0.36204 0.98835 0.41853 0.0
H1542 H 0.93089 0.60736 0.59172 0.0
H1543 H 0.9657 0.55776 0.7773 0.0
H1544 H 0.9616 0.66603 0.66461 0.0
H1545 H 0.92795 0.50046 0.70715 0.0
H1546 H 0.96481 0.59666 0.73681 0.0
H1547 H 0.93037 0.5685 0.63244 0.0
C1548 C 0.93763 0.61233 0.61618 0.0
C1549 C 0.94637 0.64076 0.62395 0.0
C1550 C 0.95654 0.57569 0.73011 0.0
C1551 C 0.94581 0.59497 0.67211 0.0
C1552 C 0.95694 0.55313 0.75354 0.0
C1553 C 0.94663 0.52506 0.74655 0.0
C1554 C 0.94596 0.5709 0.69845 0.0
C1555 C 0.93593 0.52135 0.71455 0.0
C1556 C 0.93725 0.58981 0.63973 0.0
C1557 C 0.95464 0.64491 0.65675 0.0
N1558 N 0.93599 0.54359 0.69214 0.0
N1559 N 0.95421 0.62266 0.67911 0.0
H1560 H 0.80249 0.91534 1.01082 0.0
H1561 H 0.91879 0.92835 0.12156 0.0
H1562 H 0.75378 0.96848 0.07659 0.0
H1563 H 0.8561 0.95812 0.191 0.0
H1564 H 0.88112 0.92758 0.07988 0.0
H1565 H 0.84249 0.91492 0.0496 0.0
C1566 C 0.80002 0.92718 0.03326 0.0
C1567 C 0.77396 0.94216 0.03946 0.0
C1568 C 0.87514 0.93407 0.10417 0.0
C1569 C 0.82145 0.94191 0.08581 0.0
C1570 C 0.89712 0.93468 0.12836 0.0
C1571 C 0.89139 0.94318 0.16074 0.0
C1572 C 0.84631 0.9422 0.11145 0.0
C1573 C 0.86225 0.9512 0.1669 0.0
C1574 C 0.82336 0.92707 0.05578 0.0
C1575 C 0.77305 0.95676 0.0698 0.0
N1576 N 0.84134 0.95062 0.14293 0.0
N1577 N 0.79592 0.95612 0.09138 0.0
H1578 H 0.46134 0.66428 0.87314 0.0
H1579 H 0.41668 0.49933 0.82613 0.0
H1580 H 0.42389 0.60528 0.94193 0.0
H1581 H 0.47255 0.5504 0.76542 0.0
H1582 H 0.41585 0.53864 0.86618 0.0
H1583 H 0.4625 0.62519 0.83244 0.0
C1584 C 0.45325 0.64324 0.87996 0.0
C1585 C 0.44253 0.63884 0.91188 0.0
C1586 C 0.42826 0.54149 0.8441 0.0
C1587 C 0.44351 0.59271 0.86382 0.0
C1588 C 0.42867 0.51878 0.82077 0.0
C1589 C 0.4446 0.52076 0.79137 0.0
C1590 C 0.44359 0.56745 0.83872 0.0
C1591 C 0.45976 0.54717 0.78713 0.0
C1592 C 0.45398 0.62064 0.8564 0.0
C1593 C 0.43249 0.61043 0.91819 0.0
N1594 N 0.45873 0.56904 0.81001 0.0
N1595 N 0.43309 0.58903 0.8948 0.0
H1596 H 0.78438 0.17089 0.69612 0.0
H1597 H 0.84023 0.20882 0.51299 0.0
H1598 H 0.72758 0.20349 0.62241 0.0
H1599 H 0.89209 0.16195 0.58148 0.0
H1600 H 0.80013 0.20884 0.55248 0.0
H1601 H 0.82389 0.16948 0.65596 0.0
C1602 C 0.77995 0.17786 0.67158 0.0
C1603 C 0.7518 0.18735 0.66344 0.0
C1604 C 0.82016 0.19837 0.55899 0.0
C1605 C 0.7985 0.18592 0.6159 0.0
C1606 C 0.84339 0.19825 0.53612 0.0
C1607 C 0.87031 0.18505 0.54294 0.0
C1608 C 0.82316 0.18557 0.58997 0.0
C1609 C 0.87216 0.17219 0.57419 0.0
C1610 C 0.80285 0.17697 0.64835 0.0
C1611 C 0.74841 0.19592 0.63057 0.0
N1612 N 0.84941 0.17292 0.59608 0.0
N1613 N 0.77108 0.19513 0.60855 0.0
H1614 H 0.17694 0.47503 0.37659 0.0
H1615 H 0.226 0.63866 0.32985 0.0
H1616 H 0.2179 0.53193 0.44472 0.0
H1617 H 0.16767 0.58965 0.27042 0.0
H1618 H 0.22637 0.59906 0.36957 0.0
H1619 H 0.17634 0.51449 0.3364 0.0
C1620 C 0.18592 0.49569 0.38336 0.0
C1621 C 0.19744 0.49943 0.41491 0.0
C1622 C 0.21352 0.59674 0.34784 0.0
C1623 C 0.19709 0.54593 0.36749 0.0
C1624 C 0.21338 0.61959 0.32471 0.0
C1625 C 0.19691 0.61823 0.2958 0.0
C1626 C 0.19735 0.57131 0.34269 0.0
C1627 C 0.18091 0.59235 0.29177 0.0
C1628 C 0.1855 0.5185 0.3601 0.0
C1629 C 0.20861 0.52735 0.42125 0.0
N1630 N 0.18168 0.57032 0.31445 0.0
N1631 N 0.20828 0.54899 0.39813 0.0
H1632 H 0.75255 0.64332 0.39297 0.0
H1633 H 0.86276 0.73671 0.50039 0.0
H1634 H 0.77872 0.72792 0.36203 0.0
H1635 H 0.88261 0.64757 0.48286 0.0
H1636 H 0.82449 0.73402 0.45921 0.0
H1637 H 0.79164 0.64405 0.43406 0.0
C1638 C 0.76634 0.66209 0.3946 0.0
C1639 C 0.76194 0.68543 0.37302 0.0
C1640 C 0.83705 0.71493 0.46441 0.0
C1641 C 0.80697 0.68687 0.4219 0.0
C1642 C 0.8592 0.71642 0.48824 0.0
C1643 C 0.87689 0.69247 0.49576 0.0
C1644 C 0.831 0.68891 0.44802 0.0
C1645 C 0.87013 0.66685 0.47846 0.0
C1646 C 0.78889 0.66247 0.41826 0.0
C1647 C 0.781 0.7091 0.37731 0.0
N1648 N 0.84789 0.66572 0.4561 0.0
N1649 N 0.80194 0.70933 0.40108 0.0
H1650 H 0.16936 0.10881 0.7596 0.0
H1651 H 0.26086 1.00447 0.64208 0.0
H1652 H 0.25533 0.13481 0.73265 0.0
H1653 H 0.17214 1.02419 0.6213 0.0
H1654 H 0.26112 1.0438 0.68293 0.0
H1655 H 0.1714 1.07057 0.7183 0.0
C1656 C 0.18895 0.1065 0.74543 0.0
C1657 C 0.21218 0.12588 0.75053 0.0
C1658 C 0.24156 1.03959 0.66944 0.0
C1659 C 0.21496 0.08008 0.70227 0.0
C1660 C 0.24136 1.01685 0.64591 0.0
C1661 C 0.21651 1.01049 0.62721 0.0
C1662 C 0.21639 1.05598 0.67595 0.0
C1663 C 0.19207 1.02791 0.63428 0.0
C1664 C 0.19 0.08441 0.72146 0.0
C1665 C 0.23669 0.12093 0.73037 0.0
N1666 N 0.19255 1.04906 0.65788 0.0
N1667 N 0.23752 0.09869 0.70788 0.0
H1668 H 0.76774 0.50266 0.9771 0.0
H1669 H 0.8921 0.41368 0.8798 0.0
H1670 H 0.78978 0.41454 0.99796 0.0
H1671 H 0.89358 0.5063 0.88252 0.0
H1672 H 0.85124 0.41388 0.91798 0.0
H1673 H 0.80909 0.50488 0.9387 0.0
C1674 C 0.78104 0.48372 0.97384 0.0
C1675 C 0.77459 0.45838 0.99167 0.0
C1676 C 0.86035 0.43428 0.91037 0.0
C1677 C 0.8227 0.46066 0.94622 0.0
C1678 C 0.88397 0.43422 0.88824 0.0
C1679 C 0.89719 0.46001 0.87739 0.0
C1680 C 0.84854 0.46037 0.92202 0.0
C1681 C 0.88478 0.4857 0.8899 0.0
C1682 C 0.80491 0.48504 0.9517 0.0
C1683 C 0.79327 0.43474 0.98546 0.0
N1684 N 0.86142 0.48521 0.91101 0.0
N1685 N 0.81578 0.43643 0.96357 0.0
H1686 H 0.46517 1.05704 0.27752 0.0
H1687 H 0.43112 0.10908 0.09249 0.0
H1688 H 0.42177 1.0032 0.20806 0.0
H1689 H 0.46507 0.16638 0.16493 0.0
H1690 H 0.42872 1.07049 0.13339 0.0
H1691 H 0.46613 0.09629 0.23724 0.0
C1692 C 0.45547 1.0533 0.25403 0.0
C1693 C 0.44297 1.0261 0.24715 0.0
C1694 C 0.43673 0.09144 0.14055 0.0
C1695 C 0.44463 0.07219 0.19927 0.0
C1696 C 0.43821 0.11381 0.11687 0.0
C1697 C 0.44844 0.14179 0.12443 0.0
C1698 C 0.44567 0.09623 0.17288 0.0
C1699 C 0.45699 0.14562 0.15721 0.0
C1700 C 0.45619 0.07601 0.23071 0.0
C1701 C 0.43136 1.02342 0.21542 0.0
N1702 N 0.45552 0.12349 0.1797 0.0
N1703 N 0.43257 1.04571 0.19314 0.0
H1704 H 0.29926 0.41776 0.51406 0.0
H1705 H 0.35784 0.46656 0.69252 0.0
H1706 H 0.25121 0.47316 0.57811 0.0
H1707 H 0.41425 0.42912 0.62102 0.0
H1708 H 0.31835 0.46606 0.65265 0.0
H1709 H 0.33985 0.41864 0.55288 0.0
C1710 C 0.297 0.43027 0.53607 0.0
C1711 C 0.271 0.44561 0.54184 0.0
C1712 C 0.33929 0.45789 0.64545 0.0
C1713 C 0.31864 0.44628 0.58806 0.0
C1714 C 0.36219 0.45812 0.66854 0.0
C1715 C 0.39026 0.44792 0.66095 0.0
C1716 C 0.34347 0.44698 0.61371 0.0
C1717 C 0.3935 0.43738 0.62874 0.0
C1718 C 0.32051 0.43073 0.55853 0.0
C1719 C 0.27034 0.46108 0.57162 0.0
N1720 N 0.37079 0.43706 0.60687 0.0
N1721 N 0.29323 0.46084 0.59312 0.0
H1722 H 0.89208 0.13562 0.3982 0.0
H1723 H 0.98798 1.02715 0.28966 0.0
H1724 H 0.97849 0.11345 0.42664 0.0
H1725 H 0.89732 1.01072 0.30304 0.0
H1726 H 0.98543 1.06455 0.33198 0.0
H1727 H 0.89362 0.09683 0.35705 0.0
C1728 C 0.91141 0.12267 0.39609 0.0
C1729 C 0.93501 0.12821 0.41699 0.0
C1730 C 0.96599 1.0529 0.32568 0.0
C1731 C 0.93736 0.0834 0.36778 0.0
C1732 C 0.9674 1.03128 0.30117 0.0
C1733 C 0.94293 1.01487 0.29205 0.0
C1734 C 0.93962 1.05964 0.34127 0.0
C1735 C 0.91699 1.02224 0.30861 0.0
C1736 C 0.91226 0.1003 0.37231 0.0
C1737 C 0.95943 0.11025 0.41197 0.0
N1738 N 0.91602 1.04391 0.33168 0.0
N1739 N 0.96005 0.08936 0.38805 0.0
H1740 H 0.28403 0.67303 0.19696 0.0
H1741 H 0.33895 0.71986 1.01614 0.0
H1742 H 0.22667 0.70972 0.12629 0.0
H1743 H 0.38899 0.66575 0.07937 0.0
H1744 H 0.2993 0.71911 0.05631 0.0
H1745 H 0.32296 0.67301 0.15605 0.0
C1746 C 0.27937 0.6812 0.17296 0.0
C1747 C 0.25124 0.69138 0.16587 0.0
C1748 C 0.31887 0.70729 0.06151 0.0
C1749 C 0.29724 0.69166 0.11751 0.0
C1750 C 0.34184 0.70768 0.03829 0.0
C1751 C 0.36809 0.69267 0.04345 0.0
C1752 C 0.32155 0.69215 0.09119 0.0
C1753 C 0.36959 0.67755 0.0734 0.0
C1754 C 0.30192 0.68111 0.14928 0.0
C1755 C 0.24751 0.70152 0.13361 0.0
N1756 N 0.34718 0.67785 0.09569 0.0
N1757 N 0.26987 0.70154 0.11119 0.0
H1758 H 0.72917 0.13544 0.82458 0.0
H1759 H 0.67772 0.97312 0.87367 0.0
H1760 H 0.66525 0.08897 0.77004 0.0
H1761 H 0.7221 1.02887 0.94028 0.0
H1762 H 0.6764 1.01286 0.83382 0.0
H1763 H 0.73028 0.09574 0.86424 0.0
C1764 C 0.71551 0.1169 0.82043 0.0
C1765 C 0.69739 0.1162 0.79276 0.0
C1766 C 0.68648 1.01655 0.85711 0.0
C1767 C 0.69869 1.0692 0.83954 0.0
C1768 C 0.68731 0.99359 0.88015 0.0
C1769 C 0.70001 0.99695 0.91115 0.0
C1770 C 0.69887 1.04371 0.86416 0.0
C1771 C 0.71192 1.02462 0.91718 0.0
C1772 C 0.7161 0.09399 0.84351 0.0
C1773 C 0.68009 0.09102 0.79007 0.0
N1774 N 0.71121 1.04639 0.89426 0.0
N1775 N 0.68133 1.06893 0.8126 0.0
H1776 H 0.57689 0.12246 0.96117 0.0
H1777 H 0.62802 0.13596 0.80127 0.0
H1778 H 0.61581 0.20605 0.97458 0.0
H1779 H 0.63355 0.22661 0.82312 0.0
H1780 H 0.61133 0.12696 0.8566 0.0
H1781 H 0.58604 0.12617 0.90304 0.0
C1782 C 0.58779 0.14142 0.95191 0.0
C1783 C 0.59585 0.16387 0.97289 0.0
C1784 C 0.61538 0.14894 0.84919 0.0
C1785 C 0.60694 0.16809 0.90619 0.0
C1786 C 0.62483 0.15407 0.81743 0.0
C1787 C 0.63237 0.18204 0.80769 0.0
C1788 C 0.61334 0.17205 0.8712 0.0
C1789 C 0.62836 0.20466 0.82979 0.0
C1790 C 0.59321 0.14344 0.91863 0.0
C1791 C 0.60978 0.18795 0.95951 0.0
N1792 N 0.61948 0.19912 0.86056 0.0
N1793 N 0.61473 0.18946 0.92705 0.0
H1794 H 0.77101 0.83082 0.20573 0.0
H1795 H 0.66008 0.87965 0.06834 0.0
H1796 H 0.68403 0.85977 0.2242 0.0
H1797 H 0.75173 0.87404 0.0507 0.0
H1798 H 0.66767 0.86329 0.12381 0.0
H1799 H 0.7638 0.83963 0.14764 0.0
C1800 C 0.7505 0.8393 0.19757 0.0
C1801 C 0.72815 0.84486 0.21984 0.0
C1802 C 0.68613 0.86528 0.10777 0.0
C1803 C 0.71966 0.85445 0.15357 0.0
C1804 C 0.68179 0.87441 0.07603 0.0
C1805 C 0.70536 0.8785 0.0551 0.0
C1806 C 0.71429 0.8602 0.11876 0.0
C1807 C 0.73299 0.87106 0.06611 0.0
C1808 C 0.7464 0.84421 0.16447 0.0
C1809 C 0.70202 0.85574 0.208 0.0
N1810 N 0.73678 0.8626 0.09746 0.0
N1811 N 0.69846 0.86003 0.17568 0.0
H1812 H 1.00326 0.90185 0.32353 0.0
H1813 H 1.07093 1.00935 0.45417 0.0
H1814 H 1.02248 0.99061 0.30193 0.0
H1815 H 1.0406 0.92348 0.47549 0.0
H1816 H 1.05935 1.0017 0.39685 0.0
H1817 H 1.02429 0.90778 0.37707 0.0
C1818 C 1.01208 0.92261 0.33005 0.0
C1819 C 1.01026 0.94604 0.3087 0.0
C1820 C 1.05523 0.98457 0.4141 0.0
C1821 C 1.03444 0.95311 0.37015 0.0
C1822 C 1.06178 0.98891 0.44681 0.0
C1823 C 1.05635 0.96713 0.46975 0.0
C1824 C 1.0433 0.95821 0.40424 0.0
C1825 C 1.04452 0.9411 0.45883 0.0
C1826 C 1.02412 0.926 0.36066 0.0
C1827 C 1.02302 0.97216 0.31791 0.0
N1828 N 1.03839 0.9374 0.42692 0.0
N1829 N 1.03419 0.97518 0.34826 0.0
H1830 H 0.90742 0.2901 0.52591 0.0
H1831 H 0.88976 0.30269 0.71826 0.0
H1832 H 0.94503 0.2301 0.59375 0.0
H1833 H 0.85793 0.36648 0.65122 0.0
H1834 H 0.90908 0.27517 0.67266 0.0
H1835 H 0.88912 0.31836 0.57123 0.0
C1836 C 0.91206 0.28296 0.5503 0.0
C1837 C 0.92773 0.25759 0.55594 0.0
C1838 C 0.89777 0.29511 0.66785 0.0
C1839 C 0.90652 0.28978 0.60807 0.0
C1840 C 0.88668 0.31077 0.69385 0.0
C1841 C 0.87221 0.33685 0.68843 0.0
C1842 C 0.8944 0.3056 0.63615 0.0
C1843 C 0.8686 0.34627 0.65637 0.0
C1844 C 0.90152 0.29911 0.57621 0.0
C1845 C 0.93319 0.24957 0.58817 0.0
N1846 N 0.87975 0.33069 0.63141 0.0
N1847 N 0.92241 0.26551 0.61303 0.0
H1848 H 0.5766 1.01848 0.07741 0.0
H1849 H 0.51378 1.00902 0.23268 0.0
H1850 H 0.53197 0.93834 0.06044 0.0
H1851 H 0.50821 0.91821 0.21169 0.0
H1852 H 0.53272 1.01723 0.17792 0.0
H1853 H 0.56346 1.01552 0.13477 0.0
C1854 C 0.56373 1.00042 0.08572 0.0
C1855 C 0.5551 0.97876 0.06401 0.0
C1856 C 0.52801 0.99542 0.18548 0.0
C1857 C 0.53954 0.97544 0.1296 0.0
C1858 C 0.51722 0.99074 0.21681 0.0
C1859 C 0.50923 0.96291 0.22664 0.0
C1860 C 0.53086 0.97201 0.16401 0.0
C1861 C 0.51358 0.94007 0.20492 0.0
C1862 C 0.55601 0.99888 0.11847 0.0
C1863 C 0.53858 0.95581 0.07612 0.0
N1864 N 0.52379 0.94516 0.17459 0.0
N1865 N 0.5315 0.9547 0.10811 0.0
H1866 H 0.46499 0.28548 0.80488 0.0
H1867 H 0.40456 0.27424 0.98655 0.0
H1868 H 0.3829 0.32134 0.83354 0.0
H1869 H 0.48964 0.24781 0.95619 0.0
H1870 H 0.39661 0.29472 0.93228 0.0
H1871 H 0.47433 0.2729 0.86125 0.0
C1872 C 0.44875 0.29038 0.82302 0.0
C1873 C 0.42296 0.30409 0.81439 0.0
C1874 C 0.41711 0.28467 0.93769 0.0
C1875 C 0.4337 0.29021 0.87938 0.0
C1876 C 0.42169 0.27313 0.96871 0.0
C1877 C 0.44749 0.25861 0.97561 0.0
C1878 C 0.4386 0.2817 0.91369 0.0
C1879 C 0.4691 0.25805 0.95167 0.0
C1880 C 0.45422 0.28351 0.85533 0.0
C1881 C 0.40305 0.31069 0.83914 0.0
N1882 N 0.46405 0.26907 0.92178 0.0
N1883 N 0.40875 0.30354 0.87051 0.0
H1884 H 0.13941 0.14623 0.73133 0.0
H1885 H 0.09798 0.23548 0.57186 0.0
H1886 H 0.14067 0.23885 0.72463 0.0
H1887 H 0.08831 0.14325 0.57877 0.0
H1888 H 0.11284 0.23671 0.62857 0.0
H1889 H 0.11806 0.14411 0.67686 0.0
C1890 C 0.13481 0.16607 0.71859 0.0
C1891 C 0.14244 0.1927 0.73206 0.0
C1892 C 0.10748 0.21616 0.61775 0.0
C1893 C 0.11844 0.19056 0.66998 0.0
C1894 C 0.09932 0.21544 0.58524 0.0
C1895 C 0.09222 0.1892 0.57048 0.0
C1896 C 0.10872 0.19043 0.63572 0.0
C1897 C 0.0936 0.16395 0.58925 0.0
C1898 C 0.12283 0.16489 0.68747 0.0
C1899 C 0.13595 0.21783 0.71467 0.0
N1900 N 0.10181 0.16516 0.62087 0.0
N1901 N 0.12461 0.21614 0.68446 0.0
H1902 H 0.16402 0.88563 0.47377 0.0
H1903 H 0.18089 0.85982 0.31082 0.0
H1904 H 0.25692 0.8875 0.4774 0.0
H1905 H 0.26213 0.82013 0.33538 0.0
H1906 H 0.17584 0.87592 0.36675 0.0
H1907 H 0.16653 0.86452 0.41981 0.0
C1908 C 0.18501 0.88173 0.46303 0.0
C1909 C 0.21031 0.88924 0.47957 0.0
C1910 C 0.19456 0.86326 0.36017 0.0
C1911 C 0.21345 0.86551 0.41735 0.0
C1912 C 0.19772 0.85453 0.328 0.0
C1913 C 0.222 0.83867 0.31832 0.0
C1914 C 0.2158 0.85605 0.38306 0.0
C1915 C 0.24293 0.83213 0.34186 0.0
C1916 C 0.18644 0.86983 0.4321 0.0
C1917 C 0.23693 0.88244 0.4652 0.0
N1918 N 0.23946 0.84102 0.37311 0.0
N1919 N 0.23785 0.87119 0.43465 0.0
H1920 H 0.10988 0.71138 0.48133 0.0
H1921 H 0.12636 0.63946 0.3069 0.0
H1922 H 0.07845 0.62574 0.46148 0.0
H1923 H 0.13324 0.7307 0.32488 0.0
H1924 H 0.10819 0.63287 0.36255 0.0
H1925 H 0.12063 0.71751 0.42371 0.0
C1926 C 0.10569 0.69369 0.46487 0.0
C1927 C 0.0936 0.66792 0.4762 0.0
C1928 C 0.11322 0.65437 0.35404 0.0
C1929 C 0.10521 0.67493 0.41006 0.0
C1930 C 0.12325 0.65816 0.32222 0.0
C1931 C 0.13155 0.68562 0.31151 0.0
C1932 C 0.11176 0.67822 0.37503 0.0
C1933 C 0.12752 0.70909 0.33242 0.0
C1934 C 0.11141 0.69732 0.4319 0.0
C1935 C 0.08786 0.64594 0.45367 0.0
N1936 N 0.1183 0.70482 0.36327 0.0
N1937 N 0.09384 0.64988 0.42163 0.0
H1938 H 0.18204 0.35994 0.73259 0.0
H1939 H 0.24892 0.37534 0.55466 0.0
H1940 H 0.26821 0.33127 0.70933 0.0
H1941 H 0.15867 0.38597 0.57778 0.0
H1942 H 0.2571 0.35756 0.61009 0.0
H1943 H 0.17403 0.37041 0.67535 0.0
C1944 C 0.19944 0.3563 0.71546 0.0
C1945 C 0.22592 0.34505 0.72576 0.0
C1946 C 0.23544 0.36334 0.60277 0.0
C1947 C 0.21676 0.35637 0.65994 0.0
C1948 C 0.23073 0.37315 0.57107 0.0
C1949 C 0.20313 0.38231 0.5618 0.0
C1950 C 0.21237 0.36289 0.62508 0.0
C1951 C 0.18037 0.37948 0.5841 0.0
C1952 C 0.19475 0.36187 0.68269 0.0
C1953 C 0.24747 0.33998 0.70235 0.0
N1954 N 0.18555 0.37036 0.61475 0.0
N1955 N 0.24247 0.34578 0.67051 0.0
H1956 H 0.51122 0.40585 0.81398 0.0
H1957 H 0.56463 0.51109 0.95505 0.0
H1958 H 0.51476 0.49811 0.80255 0.0
H1959 H 0.5448 0.42106 0.96844 0.0
H1960 H 0.55259 0.50651 0.89742 0.0
H1961 H 0.53117 0.41067 0.8683 0.0
C1962 C 0.51663 0.42713 0.82282 0.0
C1963 C 0.51101 0.45165 0.80403 0.0
C1964 C 0.5508 0.48781 0.91301 0.0
C1965 C 0.5336 0.45742 0.86635 0.0
C1966 C 0.5576 0.4904 0.94586 0.0
C1967 C 0.55537 0.46648 0.96661 0.0
C1968 C 0.54194 0.46103 0.90079 0.0
C1969 C 0.54623 0.44018 0.95348 0.0
C1970 C 0.52792 0.42989 0.85388 0.0
C1971 C 0.51886 0.47868 0.81633 0.0
N1972 N 0.53991 0.43817 0.92142 0.0
N1973 N 0.52945 0.4809 0.847 0.0
H1974 H 0.39092 0.76438 0.05374 0.0
H1975 H 0.46986 0.79103 0.22272 0.0
H1976 H 0.48286 0.75742 0.06778 0.0
H1977 H 0.38233 0.81859 0.20559 0.0
H1978 H 0.47414 0.7778 0.16564 0.0
H1979 H 0.38652 0.7855 0.10824 0.0
C1980 C 0.41022 0.76795 0.06796 0.0
C1981 C 0.43725 0.75883 0.05652 0.0
C1982 C 0.45396 0.78676 0.17428 0.0
C1983 C 0.43236 0.78217 0.11878 0.0
C1984 C 0.45141 0.79396 0.20698 0.0
C1985 C 0.42559 0.80556 0.21898 0.0
C1986 C 0.43042 0.79091 0.15335 0.0
C1987 C 0.4026 0.80962 0.19728 0.0
C1988 C 0.40769 0.77972 0.09914 0.0
C1989 C 0.46154 0.76362 0.07599 0.0
N1990 N 0.40548 0.80212 0.16552 0.0
N1991 N 0.45848 0.77461 0.10626 0.0
H1992 H 1.06418 0.51436 0.5774 0.0
H1993 H 1.01272 0.41005 0.72072 0.0
H1994 H 1.03739 0.4263 0.56309 0.0
H1995 H 1.01525 0.50247 0.73096 0.0
H1996 H 1.0291 0.41496 0.66468 0.0
H1997 H 1.05244 0.50987 0.63523 0.0
C1998 C 1.0556 0.49416 0.58642 0.0
C1999 C 1.05145 0.47074 0.56539 0.0
C2000 C 1.02624 0.43417 0.67921 0.0
C2001 C 1.03843 0.46535 0.63143 0.0
C2002 C 1.01689 0.43139 0.7112 0.0
C2003 C 1.01208 0.45591 0.7303 0.0
C2004 C 1.03106 0.4617 0.66621 0.0
C2005 C 1.01867 0.48299 0.71705 0.0
C2006 C 1.04897 0.49161 0.61937 0.0
C2007 C 1.04039 0.44505 0.57832 0.0
N2008 N 1.02762 0.4852 0.68566 0.0
N2009 N 1.03439 0.443 0.61052 0.0
H2010 H 0.96468 0.77852 0.30581 0.0
H2011 H 0.99202 0.75725 0.46743 0.0
H2012 H 0.88477 0.81872 0.33505 0.0
H2013 H 0.9005 0.76728 0.48222 0.0
H2014 H 0.98705 0.7763 0.4128 0.0
H2015 H 0.9742 0.76651 0.36206 0.0
C2016 C 0.94906 0.78478 0.3241 0.0
C2017 C 0.92384 0.79956 0.31554 0.0
C2018 C 0.96786 0.77402 0.42761 0.0
C2019 C 0.9354 0.78732 0.38085 0.0
C2020 C 0.9708 0.76354 0.45907 0.0
C2021 C 0.94647 0.75984 0.47896 0.0
C2022 C 0.94023 0.78036 0.41561 0.0
C2023 C 0.91967 0.76926 0.46738 0.0
C2024 C 0.95485 0.77852 0.35651 0.0
C2025 C 0.90464 0.8075 0.34051 0.0
N2026 N 0.91715 0.77867 0.43618 0.0
N2027 N 0.91076 0.80118 0.372 0.0
H2028 H 0.5714 0.6294 0.0837 0.0
H2029 H 0.64783 0.73583 0.2095 0.0
H2030 H 0.60675 0.7125 0.05859 0.0
H2031 H 0.63174 0.64653 0.23173 0.0
H2032 H 0.62632 0.72907 0.1564 0.0
H2033 H 0.58751 0.63651 0.13982 0.0
C2034 C 0.58255 0.64912 0.08998 0.0
C2035 C 0.58805 0.67026 0.06631 0.0
C2036 C 0.62745 0.71088 0.1728 0.0
C2037 C 0.60628 0.67858 0.13042 0.0
C2038 C 0.6399 0.71471 0.20317 0.0
C2039 C 0.64249 0.69151 0.22478 0.0
C2040 C 0.6172 0.68361 0.1638 0.0
C2041 C 0.63057 0.66491 0.21566 0.0
C2042 C 0.59176 0.65312 0.12197 0.0
C2043 C 0.60257 0.69538 0.07582 0.0
N2044 N 0.61865 0.66158 0.18568 0.0
N2045 N 0.61111 0.69883 0.10707 0.0
H2046 H 0.75322 0.37616 0.98109 0.0
H2047 H 0.67864 0.3527 0.80881 0.0
H2048 H 0.66305 0.39115 0.96226 0.0
H2049 H 0.76303 0.31891 0.8308 0.0
H2050 H 0.67328 0.36737 0.86536 0.0
H2051 H 0.75778 0.35367 0.92728 0.0
C2052 C 0.7343 0.37426 0.96587 0.0
C2053 C 0.70787 0.38614 0.9757 0.0
C2054 C 0.69299 0.35671 0.85791 0.0
C2055 C 0.71293 0.36102 0.91428 0.0
C2056 C 0.69618 0.34865 0.82552 0.0
C2057 C 0.72145 0.33492 0.81501 0.0
C2058 C 0.71536 0.35127 0.88006 0.0
C2059 C 0.74321 0.32952 0.83792 0.0
C2060 C 0.73693 0.36163 0.93512 0.0
C2061 C 0.68402 0.38314 0.95513 0.0
N2062 N 0.73976 0.3379 0.86934 0.0
N2063 N 0.68718 0.37122 0.9253 0.0
H2064 H 0.37182 0.30543 0.18839 0.0
H2065 H 0.27828 0.3384 0.34781 0.0
H2066 H 0.29143 0.26276 0.21094 0.0
H2067 H 0.35756 0.38269 0.32419 0.0
H2068 H 0.28305 0.31021 0.29816 0.0
H2069 H 0.3671 0.33372 0.23802 0.0
C2070 C 0.35318 0.30195 0.20384 0.0
C2071 C 0.33208 0.28148 0.19557 0.0
C2072 C 0.29943 0.32607 0.30379 0.0
C2073 C 0.32645 0.31406 0.25249 0.0
C2074 C 0.29668 0.34228 0.33211 0.0
C2075 C 0.31744 0.36318 0.3401 0.0
C2076 C 0.32315 0.33065 0.28314 0.0
C2077 C 0.34113 0.36674 0.31914 0.0
C2078 C 0.35046 0.31821 0.23214 0.0
C2079 C 0.30812 0.27838 0.21622 0.0
N2080 N 0.34328 0.35073 0.29158 0.0
N2081 N 0.30602 0.29439 0.24377 0.0
H2082 H 0.53918 0.64853 0.44549 0.0
H2083 H 0.5458 0.55817 0.60878 0.0
H2084 H 0.61183 0.5953 0.47071 0.0
H2085 H 0.48461 0.62673 0.59341 0.0
H2086 H 0.57171 0.57312 0.55973 0.0
H2087 H 0.52059 0.64343 0.5009 0.0
C2088 C 0.5515 0.63627 0.46301 0.0
C2089 C 0.57701 0.62227 0.45364 0.0
C2090 C 0.55282 0.58513 0.56725 0.0
C2091 C 0.55556 0.61566 0.5168 0.0
C2092 C 0.53792 0.57649 0.59515 0.0
C2093 C 0.51283 0.59105 0.60502 0.0
C2094 C 0.54239 0.60829 0.54875 0.0
C2095 C 0.50386 0.61491 0.58672 0.0
C2096 C 0.54087 0.63327 0.49458 0.0
C2097 C 0.59216 0.60655 0.47711 0.0
N2098 N 0.51839 0.62254 0.55926 0.0
N2099 N 0.58096 0.60326 0.50749 0.0
H2100 H 0.25299 0.78813 0.69449 0.0
H2101 H 0.3312 0.79376 0.86487 0.0
H2102 H 0.30142 0.86192 0.72675 0.0
H2103 H 0.26538 0.73122 0.8424 0.0
H2104 H 0.31834 0.82062 0.81594 0.0
H2105 H 0.25412 0.76871 0.74976 0.0
C2106 C 0.26332 0.80049 0.71348 0.0
C2107 C 0.27722 0.82656 0.70619 0.0
C2108 C 0.30641 0.80125 0.82188 0.0
C2109 C 0.27929 0.80423 0.76921 0.0
C2110 C 0.31385 0.78583 0.84973 0.0
C2111 C 0.29952 0.76007 0.85751 0.0
C2112 C 0.28477 0.79063 0.80131 0.0
C2113 C 0.27696 0.75098 0.8373 0.0
C2114 C 0.26404 0.78941 0.74498 0.0
C2115 C 0.29036 0.8418 0.73151 0.0
N2116 N 0.27057 0.76601 0.80987 0.0
N2117 N 0.29152 0.83017 0.76181 0.0
H2118 H 0.16556 0.51398 0.0983 0.0
H2119 H 1.03826 0.54945 0.9735 0.0
H2120 H 0.09911 0.57717 0.11554 0.0
H2121 H 0.11527 0.50257 0.94771 0.0
H2122 H 1.05416 0.55002 0.03017 0.0
H2123 H 0.14142 0.50035 0.04768 0.0
C2124 C 0.14561 0.5246 0.09171 0.0
C2125 C 0.13449 0.54697 0.11088 0.0
C2126 C 1.06738 0.53924 1.01219 0.0
C2127 C 0.10687 0.53163 0.0531 0.0
C2128 C 1.05819 0.5387 0.97993 0.0
C2129 C 0.07571 0.52631 0.95591 0.0
C2130 C 0.09418 0.52715 0.02045 0.0
C2131 C 0.1014 0.51279 0.96548 0.0
C2132 C 0.13194 0.51695 0.06277 0.0
C2133 C 0.10865 0.56014 0.10115 0.0
N2134 N 0.11003 0.51383 0.99695 0.0
N2135 N 0.09584 0.55243 0.07284 0.0
H2136 H 0.86223 0.87995 0.82115 0.0
H2137 H 0.78533 0.76184 0.70831 0.0
H2138 H 0.77968 0.84133 0.8432 0.0
H2139 H 0.86867 0.79913 0.68718 0.0
H2140 H 0.78236 0.79159 0.75725 0.0
H2141 H 0.86512 0.85043 0.77203 0.0
C2142 C 0.84481 0.86516 0.81579 0.0
C2143 C 0.82059 0.86333 0.83626 0.0
C2144 C 0.8013 0.79326 0.7419 0.0
C2145 C 0.82358 0.82963 0.77985 0.0
C2146 C 0.8029 0.77641 0.71383 0.0
C2147 C 0.82736 0.77779 0.69369 0.0
C2148 C 0.82428 0.81175 0.74989 0.0
C2149 C 0.84961 0.79693 0.70227 0.0
C2150 C 0.84636 0.84843 0.78762 0.0
C2151 C 0.79853 0.84391 0.82786 0.0
N2152 N 0.84755 0.81308 0.72967 0.0
N2153 N 0.80054 0.8279 0.80035 0.0
H2154 H 0.77119 0.32959 0.18055 0.0
H2155 H 0.88184 0.28644 0.32098 0.0
H2156 H 0.86334 0.32448 0.16608 0.0
H2157 H 0.79086 0.3013 0.33617 0.0
H2158 H 0.87501 0.29432 0.26271 0.0
H2159 H 0.77746 0.31277 0.23619 0.0
C2160 C 0.79274 0.32472 0.1891 0.0
C2161 C 0.81684 0.32876 0.16893 0.0
C2162 C 0.85654 0.29573 0.2788 0.0
C2163 C 0.82421 0.30956 0.23247 0.0
C2164 C 0.86042 0.29117 0.31196 0.0
C2165 C 0.8369 0.29351 0.33332 0.0
C2166 C 0.82894 0.30251 0.26703 0.0
C2167 C 0.80963 0.29982 0.32054 0.0
C2168 C 0.79632 0.3151 0.22081 0.0
C2169 C 0.84421 0.3216 0.1809 0.0
N2170 N 0.80642 0.30417 0.28823 0.0
N2171 N 0.84721 0.31261 0.21207 0.0
H2172 H 0.11587 0.09285 0.97582 0.0
H2173 H 0.98602 0.12293 0.10055 0.0
H2174 H 1.04073 0.14316 0.95209 0.0
H2175 H 1.04702 1.05352 0.1115 0.0
H2176 H 1.01181 0.13855 0.05154 0.0
H2177 H 0.0971 0.08679 0.03126 0.0
C2178 C 0.09581 0.10325 0.98259 0.0
C2179 C 0.07973 0.11841 0.95944 0.0
C2180 C 1.01969 0.12005 0.06484 0.0
C2181 C 1.05799 0.11133 0.02243 0.0
C2182 C 1.00506 0.11121 0.09288 0.0
C2183 C 1.01422 0.08672 0.10994 0.0
C2184 C 1.04385 0.10448 0.05395 0.0
C2185 C 1.03895 0.07225 0.09878 0.0
C2186 C 0.08496 0.09956 1.01406 0.0
C2187 C 1.05367 0.13117 0.96926 0.0
N2188 N 1.05284 0.08128 0.07146 0.0
N2189 N 1.0435 0.12719 0.99993 0.0
H2190 H 0.59909 1.03183 0.62292 0.0
H2191 H 0.62414 1.02067 0.43112 0.0
H2192 H 0.67828 1.05503 0.5743 0.0
H2193 H 0.53968 1.03192 0.47367 0.0
H2194 H 0.64499 1.01952 0.48545 0.0
H2195 H 0.57801 1.01892 0.57011 0.0
C2196 C 0.61216 1.03365 0.60117 0.0
C2197 C 0.64037 1.04456 0.60276 0.0
C2198 C 0.62185 1.02189 0.48291 0.0
C2199 C 0.61664 1.02979 0.54273 0.0
C2200 C 0.60992 1.02257 0.45192 0.0
C2201 C 0.58019 1.02709 0.44781 0.0
C2202 C 0.60394 1.02551 0.51011 0.0
C2203 C 0.56272 1.02855 0.4757 0.0
C2204 C 0.60012 1.02645 0.57114 0.0
C2205 C 0.65639 1.04682 0.57397 0.0
N2206 N 0.57491 1.02814 0.50573 0.0
N2207 N 0.6443 1.03955 0.54514 0.0
loop_
_geom_bond_atom_site_label_1
_geom_bond_atom_site_label_2
_geom_bond_distance
_geom_bond_site_symmetry_2
_ccdc_geom_bond_type
Tb0 N29 2.617 . S
Tb0 N35 2.572 . S
Tb0 O44 2.465 . S
Tb0 O45 2.387 . S
Tb0 O47 2.428 . S
Tb0 O48 2.308 . S
Tb0 O52 2.349 . S
Tb0 O55 2.393 . S
Tb0 C64 2.802 . S
C1 N2 1.379 1_556 S
C1 C4 1.416 . S
C1 C8 1.424 . S
N2 C1 1.379 1_554 S
N2 C5 1.334 . S
N2 Tb11 2.617 . S
C3 C5 1.390 . S
C3 C6 1.339 . S
C3 H23 0.930 . S
C4 C1 1.416 . S
C4 C6 1.416 1_556 S
C4 C10 1.448 . S
C5 N2 1.334 . S
C5 C3 1.390 . S
C5 H16 0.930 . S
C6 C3 1.339 . S
C6 C4 1.416 1_554 S
C6 H27 0.930 . S
C7 C8 1.413 . S
C7 C9 1.427 . S
C7 C13 1.416 . S
C8 C1 1.424 . S
C8 C7 1.413 . S
C8 N12 1.361 . S
C9 C7 1.427 . S
C9 C10 1.328 . S
C9 H24 0.929 . S
C10 C4 1.448 . S
C10 C9 1.328 . S
C10 H25 0.930 . S
Tb11 N2 2.617 . S
Tb11 N12 2.572 1_554 S
Tb11 O46 2.349 . S
Tb11 O49 2.393 . S
Tb11 O50 2.465 1_554 S
Tb11 O51 2.387 . S
Tb11 O53 2.428 1_554 S
Tb11 O54 2.308 1_554 S
Tb11 C75 2.802 1_554 S
N12 C8 1.361 . S
N12 Tb11 2.572 1_556 S
N12 C14 1.340 . S
C13 C7 1.416 . S
C13 C15 1.332 . S
C13 H21 0.931 . S
C14 N12 1.340 . S
C14 C15 1.407 . S
C14 H20 0.930 . S
C15 C13 1.332 . S
C15 C14 1.407 . S
C15 H17 0.929 . S
H16 C5 0.930 . S
H17 C15 0.929 . S
H18 C33 0.930 . S
H19 C40 0.929 . S
H20 C14 0.930 . S
H21 C13 0.931 . S
H22 C36 0.930 . S
H23 C3 0.930 . S
H24 C9 0.929 . S
H25 C10 0.930 . S
H26 C31 0.930 . S
H27 C6 0.930 . S
H28 C39 0.931 . S
N29 Tb0 2.617 . S
N29 C30 1.379 . S
N29 C33 1.334 . S
C30 N29 1.379 . S
C30 C32 1.416 . S
C30 C38 1.424 . S
C31 H26 0.930 . S
C31 C33 1.390 . S
C31 C34 1.339 . S
C32 C30 1.416 . S
C32 C34 1.416 . S
C32 C65 1.448 . S
C33 H18 0.930 . S
C33 N29 1.334 . S
C33 C31 1.390 . S
C34 C31 1.339 . S
C34 C32 1.416 . S
C34 H41 0.930 . S
N35 Tb0 2.572 . S
N35 C36 1.340 . S
N35 C38 1.361 . S
C36 H22 0.930 . S
C36 N35 1.340 . S
C36 C40 1.407 . S
C37 C38 1.413 . S
C37 C39 1.416 . S
C37 C66 1.427 . S
C38 C30 1.424 . S
C38 N35 1.361 . S
C38 C37 1.413 . S
C39 H28 0.931 . S
C39 C37 1.416 . S
C39 C40 1.332 . S
C40 H19 0.929 . S
C40 C36 1.407 . S
C40 C39 1.332 . S
H41 C34 0.930 . S
H42 C65 0.930 . S
H43 C66 0.929 . S
O44 Tb0 2.465 . S
O44 C64 1.264 . S
O45 Tb0 2.387 . S
O45 C56 1.264 . S
O46 Tb11 2.349 . S
O46 C56 1.243 . S
O47 Tb0 2.428 . S
O47 C64 1.256 . S
O48 Tb0 2.308 . S
O48 C63 1.266 . S
O49 Tb11 2.393 . S
O49 C63 1.248 . S
O50 Tb11 2.465 1_556 S
O50 C75 1.264 . S
O51 Tb11 2.387 . S
O51 C67 1.264 . S
O52 Tb0 2.349 . S
O52 C67 1.243 . S
O53 Tb11 2.428 1_556 S
O53 C75 1.256 . S
O54 Tb11 2.308 1_556 S
O54 C74 1.266 . S
O55 Tb0 2.393 . S
O55 C74 1.248 1_554 S
C56 O45 1.264 . S
C56 O46 1.243 . S
C57 C60 1.399 . S
C57 C62 1.383 . S
C57 C64 1.496 . S
C58 C59 1.399 . S
C58 C62 1.389 . S
C59 C58 1.399 . S
C59 C61 1.380 . S
C59 H76 0.929 . S
C60 C57 1.399 . S
C60 C61 1.392 . S
C60 H77 0.929 . S
C61 C59 1.380 . S
C61 C60 1.392 . S
C61 H78 0.929 . S
C62 C57 1.383 . S
C62 C58 1.389 . S
C62 H79 0.931 . S
C63 O48 1.266 . S
C63 O49 1.248 . S
C64 Tb0 2.802 . S
C64 O44 1.264 . S
C64 O47 1.256 . S
C64 C57 1.496 . S
C65 C32 1.448 . S
C65 H42 0.930 . S
C65 C66 1.328 . S
C66 C37 1.427 . S
C66 H43 0.929 . S
C66 C65 1.328 . S
C67 O51 1.264 . S
C67 O52 1.243 . S
C68 C71 1.399 . S
C68 C72 1.383 . S
C68 C75 1.496 . S
C69 C70 1.399 . S
C69 C72 1.389 . S
C70 C69 1.399 . S
C70 C73 1.380 . S
C70 H80 0.929 . S
C71 C68 1.399 . S
C71 C73 1.392 . S
C71 H81 0.929 . S
C72 C68 1.383 . S
C72 C69 1.389 . S
C72 H82 0.931 . S
C73 C70 1.380 . S
C73 C71 1.392 . S
C73 H83 0.929 . S
C74 O54 1.266 . S
C74 O55 1.248 1_556 S
C75 Tb11 2.802 1_556 S
C75 O50 1.264 . S
C75 O53 1.256 . S
C75 C68 1.496 . S
H76 C59 0.929 . S
H77 C60 0.929 . S
H78 C61 0.929 . S
H79 C62 0.931 . S
H80 C70 0.929 . S
H81 C71 0.929 . S
H82 C72 0.931 . S
H83 C73 0.929 . S
Tb84 N113 2.617 . S
Tb84 N119 2.572 . S
Tb84 O128 2.465 . S
Tb84 O129 2.387 . S
Tb84 O131 2.428 . S
Tb84 O132 2.308 . S
Tb84 O136 2.349 . S
Tb84 O139 2.393 . S
Tb84 C148 2.802 . S
C85 N86 1.379 . S
C85 C88 1.416 . S
C85 C92 1.424 . S
N86 C85 1.379 . S
N86 C89 1.334 . S
N86 Tb95 2.617 . S
C87 C89 1.390 . S
C87 C90 1.339 . S
C87 H107 0.930 . S
C88 C85 1.416 . S
C88 C90 1.416 . S
C88 C94 1.448 . S
C89 N86 1.334 . S
C89 C87 1.390 . S
C89 H100 0.930 . S
C90 C87 1.339 . S
C90 C88 1.416 . S
C90 H111 0.930 . S
C91 C92 1.413 . S
C91 C93 1.427 . S
C91 C97 1.416 . S
C92 C85 1.424 . S
C92 C91 1.413 . S
C92 N96 1.361 . S
C93 C91 1.427 . S
C93 C94 1.328 . S
C93 H108 0.929 . S
C94 C88 1.448 . S
C94 C93 1.328 . S
C94 H109 0.930 . S
Tb95 N86 2.617 . S
Tb95 N96 2.572 . S
Tb95 O130 2.349 . S
Tb95 O133 2.393 . S
Tb95 O134 2.465 . S
Tb95 O135 2.387 . S
Tb95 O137 2.428 . S
Tb95 O138 2.308 . S
Tb95 C159 2.802 . S
N96 C92 1.361 . S
N96 Tb95 2.572 . S
N96 C98 1.340 . S
C97 C91 1.416 . S
C97 C99 1.332 . S
C97 H105 0.931 . S
C98 N96 1.340 . S
C98 C99 1.407 . S
C98 H104 0.930 . S
C99 C97 1.332 . S
C99 C98 1.407 . S
C99 H101 0.929 . S
H100 C89 0.930 . S
H101 C99 0.929 . S
H102 C117 0.930 . S
H103 C124 0.929 . S
H104 C98 0.930 . S
H105 C97 0.931 . S
H106 C120 0.930 . S
H107 C87 0.930 . S
H108 C93 0.929 . S
H109 C94 0.930 . S
H110 C115 0.930 . S
H111 C90 0.930 . S
H112 C123 0.931 . S
N113 Tb84 2.617 . S
N113 C114 1.379 . S
N113 C117 1.334 . S
C114 N113 1.379 . S
C114 C116 1.416 . S
C114 C122 1.424 . S
C115 H110 0.930 . S
C115 C117 1.390 . S
C115 C118 1.339 . S
C116 C114 1.416 . S
C116 C118 1.416 . S
C116 C149 1.448 . S
C117 H102 0.930 . S
C117 N113 1.334 . S
C117 C115 1.390 . S
C118 C115 1.339 . S
C118 C116 1.416 . S
C118 H125 0.930 . S
N119 Tb84 2.572 . S
N119 C120 1.340 . S
N119 C122 1.361 . S
C120 H106 0.930 . S
C120 N119 1.340 . S
C120 C124 1.407 . S
C121 C122 1.413 . S
C121 C123 1.416 . S
C121 C150 1.427 . S
C122 C114 1.424 . S
C122 N119 1.361 . S
C122 C121 1.413 . S
C123 H112 0.931 . S
C123 C121 1.416 . S
C123 C124 1.332 . S
C124 H103 0.929 . S
C124 C120 1.407 . S
C124 C123 1.332 . S
H125 C118 0.930 . S
H126 C149 0.930 . S
H127 C150 0.929 . S
O128 Tb84 2.465 . S
O128 C148 1.264 . S
O129 Tb84 2.387 . S
O129 C140 1.264 . S
O130 Tb95 2.349 . S
O130 C140 1.243 . S
O131 Tb84 2.428 . S
O131 C148 1.256 . S
O132 Tb84 2.308 . S
O132 C147 1.266 . S
O133 Tb95 2.393 . S
O133 C147 1.248 . S
O134 Tb95 2.465 . S
O134 C159 1.264 . S
O135 Tb95 2.387 . S
O135 C151 1.264 . S
O136 Tb84 2.349 . S
O136 C151 1.243 . S
O137 Tb95 2.428 . S
O137 C159 1.256 . S
O138 Tb95 2.308 . S
O138 C158 1.266 . S
O139 Tb84 2.393 . S
O139 C158 1.248 . S
C140 O129 1.264 . S
C140 O130 1.243 . S
C141 C144 1.399 . S
C141 C146 1.383 . S
C141 C148 1.496 . S
C142 C143 1.399 . S
C142 C146 1.389 . S
C143 C142 1.399 . S
C143 C145 1.380 . S
C143 H160 0.929 . S
C144 C141 1.399 . S
C144 C145 1.392 . S
C144 H161 0.929 . S
C145 C143 1.380 . S
C145 C144 1.392 . S
C145 H162 0.929 . S
C146 C141 1.383 . S
C146 C142 1.389 . S
C146 H163 0.931 . S
C147 O132 1.266 . S
C147 O133 1.248 . S
C148 Tb84 2.802 . S
C148 O128 1.264 . S
C148 O131 1.256 . S
C148 C141 1.496 . S
C149 C116 1.448 . S
C149 H126 0.930 . S
C149 C150 1.328 . S
C150 C121 1.427 . S
C150 H127 0.929 . S
C150 C149 1.328 . S
C151 O135 1.264 . S
C151 O136 1.243 . S
C152 C155 1.399 . S
C152 C156 1.383 . S
C152 C159 1.496 . S
C153 C154 1.399 . S
C153 C156 1.389 . S
C154 C153 1.399 . S
C154 C157 1.380 . S
C154 H164 0.929 . S
C155 C152 1.399 . S
C155 C157 1.392 . S
C155 H165 0.929 . S
C156 C152 1.383 . S
C156 C153 1.389 . S
C156 H166 0.931 . S
C157 C154 1.380 . S
C157 C155 1.392 . S
C157 H167 0.929 . S
C158 O138 1.266 . S
C158 O139 1.248 . S
C159 Tb95 2.802 . S
C159 O134 1.264 . S
C159 O137 1.256 . S
C159 C152 1.496 . S
H160 C143 0.929 . S
H161 C144 0.929 . S
H162 C145 0.929 . S
H163 C146 0.931 . S
H164 C154 0.929 . S
H165 C155 0.929 . S
H166 C156 0.931 . S
H167 C157 0.929 . S
Tb168 N197 2.617 . S
Tb168 N203 2.572 . S
Tb168 O212 2.465 . S
Tb168 O213 2.387 . S
Tb168 O215 2.428 . S
Tb168 O216 2.308 . S
Tb168 O220 2.349 . S
Tb168 O223 2.393 . S
Tb168 C232 2.802 . S
C169 N170 1.379 . S
C169 C172 1.416 . S
C169 C176 1.424 . S
N170 C169 1.379 . S
N170 C173 1.334 . S
N170 Tb179 2.617 . S
C171 C173 1.390 . S
C171 C174 1.339 . S
C171 H191 0.930 . S
C172 C169 1.416 . S
C172 C174 1.416 . S
C172 C178 1.448 . S
C173 N170 1.334 . S
C173 C171 1.390 . S
C173 H184 0.930 . S
C174 C171 1.339 . S
C174 C172 1.416 . S
C174 H195 0.930 . S
C175 C176 1.413 . S
C175 C177 1.427 . S
C175 C181 1.416 . S
C176 C169 1.424 . S
C176 C175 1.413 . S
C176 N180 1.361 . S
C177 C175 1.427 . S
C177 C178 1.328 . S
C177 H192 0.929 . S
C178 C172 1.448 . S
C178 C177 1.328 . S
C178 H193 0.930 . S
Tb179 N170 2.617 . S
Tb179 N180 2.572 . S
Tb179 O214 2.349 . S
Tb179 O217 2.393 . S
Tb179 O218 2.465 . S
Tb179 O219 2.387 . S
Tb179 O221 2.428 . S
Tb179 O222 2.308 . S
Tb179 C243 2.802 . S
N180 C176 1.361 . S
N180 Tb179 2.572 . S
N180 C182 1.340 . S
C181 C175 1.416 . S
C181 C183 1.332 . S
C181 H189 0.931 . S
C182 N180 1.340 . S
C182 C183 1.407 . S
C182 H188 0.930 . S
C183 C181 1.332 . S
C183 C182 1.407 . S
C183 H185 0.929 . S
H184 C173 0.930 . S
H185 C183 0.929 . S
H186 C201 0.930 . S
H187 C208 0.929 . S
H188 C182 0.930 . S
H189 C181 0.931 . S
H190 C204 0.930 . S
H191 C171 0.930 . S
H192 C177 0.929 . S
H193 C178 0.930 . S
H194 C199 0.930 . S
H195 C174 0.930 . S
H196 C207 0.931 . S
N197 Tb168 2.617 . S
N197 C198 1.379 . S
N197 C201 1.334 . S
C198 N197 1.379 . S
C198 C200 1.416 . S
C198 C206 1.424 . S
C199 H194 0.930 . S
C199 C201 1.390 . S
C199 C202 1.339 . S
C200 C198 1.416 . S
C200 C202 1.416 . S
C200 C233 1.448 . S
C201 H186 0.930 . S
C201 N197 1.334 . S
C201 C199 1.390 . S
C202 C199 1.339 . S
C202 C200 1.416 . S
C202 H209 0.930 . S
N203 Tb168 2.572 . S
N203 C204 1.340 . S
N203 C206 1.361 . S
C204 H190 0.930 . S
C204 N203 1.340 . S
C204 C208 1.407 . S
C205 C206 1.413 . S
C205 C207 1.416 . S
C205 C234 1.427 . S
C206 C198 1.424 . S
C206 N203 1.361 . S
C206 C205 1.413 . S
C207 H196 0.931 . S
C207 C205 1.416 . S
C207 C208 1.332 . S
C208 H187 0.929 . S
C208 C204 1.407 . S
C208 C207 1.332 . S
H209 C202 0.930 . S
H210 C233 0.930 . S
H211 C234 0.929 . S
O212 Tb168 2.465 . S
O212 C232 1.264 . S
O213 Tb168 2.387 . S
O213 C224 1.264 . S
O214 Tb179 2.349 . S
O214 C224 1.243 . S
O215 Tb168 2.428 . S
O215 C232 1.256 . S
O216 Tb168 2.308 . S
O216 C231 1.266 . S
O217 Tb179 2.393 . S
O217 C231 1.248 . S
O218 Tb179 2.465 . S
O218 C243 1.264 . S
O219 Tb179 2.387 . S
O219 C235 1.264 . S
O220 Tb168 2.349 . S
O220 C235 1.243 . S
O221 Tb179 2.428 . S
O221 C243 1.256 . S
O222 Tb179 2.308 . S
O222 C242 1.266 . S
O223 Tb168 2.393 . S
O223 C242 1.248 . S
C224 O213 1.264 . S
C224 O214 1.243 . S
C225 C228 1.399 . S
C225 C230 1.383 . S
C225 C232 1.496 . S
C226 C227 1.399 . S
C226 C230 1.389 . S
C227 C226 1.399 . S
C227 C229 1.380 . S
C227 H244 0.929 . S
C228 C225 1.399 . S
C228 C229 1.392 . S
C228 H245 0.929 . S
C229 C227 1.380 . S
C229 C228 1.392 . S
C229 H246 0.929 . S
C230 C225 1.383 . S
C230 C226 1.389 . S
C230 H247 0.931 . S
C231 O216 1.266 . S
C231 O217 1.248 . S
C232 Tb168 2.802 . S
C232 O212 1.264 . S
C232 O215 1.256 . S
C232 C225 1.496 . S
C233 C200 1.448 . S
C233 H210 0.930 . S
C233 C234 1.328 . S
C234 C205 1.427 . S
C234 H211 0.929 . S
C234 C233 1.328 . S
C235 O219 1.264 . S
C235 O220 1.243 . S
C236 C239 1.399 . S
C236 C240 1.383 . S
C236 C243 1.496 . S
C237 C238 1.399 . S
C237 C240 1.389 . S
C238 C237 1.399 . S
C238 C241 1.380 . S
C238 H248 0.929 1_455 S
C239 C236 1.399 . S
C239 C241 1.392 . S
C239 H249 0.929 . S
C240 C236 1.383 . S
C240 C237 1.389 . S
C240 H250 0.931 . S
C241 C238 1.380 . S
C241 C239 1.392 . S
C241 H251 0.905 1_455 S
C242 O222 1.266 . S
C242 O223 1.248 . S
C243 Tb179 2.802 . S
C243 O218 1.264 . S
C243 O221 1.256 . S
C243 C236 1.496 . S
H244 C227 0.929 . S
H245 C228 0.929 . S
H246 C229 0.929 . S
H247 C230 0.931 . S
H248 C238 0.929 1_655 S
H249 C239 0.929 . S
H250 C240 0.931 . S
H251 C241 0.905 1_655 S
Tb252 N281 2.617 . S
Tb252 N287 2.572 . S
Tb252 O296 2.465 . S
Tb252 O297 2.387 . S
Tb252 O299 2.428 . S
Tb252 O300 2.308 . S
Tb252 O304 2.349 . S
Tb252 O307 2.393 . S
Tb252 C316 2.802 . S
C253 N254 1.379 . S
C253 C256 1.416 . S
C253 C260 1.424 . S
N254 C253 1.379 . S
N254 C257 1.334 . S
N254 Tb263 2.617 . S
C255 C257 1.390 . S
C255 C258 1.339 . S
C255 H275 0.930 . S
C256 C253 1.416 . S
C256 C258 1.416 . S
C256 C262 1.448 . S
C257 N254 1.334 . S
C257 C255 1.390 . S
C257 H268 0.930 . S
C258 C255 1.339 . S
C258 C256 1.416 . S
C258 H279 0.930 . S
C259 C260 1.413 . S
C259 C261 1.427 . S
C259 C265 1.416 . S
C260 C253 1.424 . S
C260 C259 1.413 . S
C260 N264 1.361 . S
C261 C259 1.427 . S
C261 C262 1.328 . S
C261 H276 0.929 . S
C262 C256 1.448 . S
C262 C261 1.328 . S
C262 H277 0.930 . S
Tb263 N254 2.617 . S
Tb263 N264 2.572 . S
Tb263 O298 2.349 . S
Tb263 O301 2.393 . S
Tb263 O302 2.465 . S
Tb263 O303 2.387 . S
Tb263 O305 2.428 . S
Tb263 O306 2.308 . S
Tb263 C327 2.802 . S
N264 C260 1.361 . S
N264 Tb263 2.572 . S
N264 C266 1.340 . S
C265 C259 1.416 . S
C265 C267 1.332 . S
C265 H273 0.931 . S
C266 N264 1.340 . S
C266 C267 1.407 . S
C266 H272 0.930 . S
C267 C265 1.332 . S
C267 C266 1.407 . S
C267 H269 0.929 . S
H268 C257 0.930 . S
H269 C267 0.929 . S
H270 C285 0.930 . S
H271 C292 0.929 . S
H272 C266 0.930 . S
H273 C265 0.931 . S
H274 C288 0.930 . S
H275 C255 0.930 . S
H276 C261 0.929 . S
H277 C262 0.930 . S
H278 C283 0.930 . S
H279 C258 0.930 . S
H280 C291 0.931 . S
N281 Tb252 2.617 . S
N281 C282 1.379 . S
N281 C285 1.334 1_655 S
C282 N281 1.379 . S
C282 C284 1.416 1_655 S
C282 C290 1.424 . S
C283 H278 0.930 . S
C283 C285 1.390 . S
C283 C286 1.339 . S
C284 C282 1.416 1_455 S
C284 C286 1.416 . S
C284 C317 1.448 . S
C285 H270 0.930 . S
C285 N281 1.334 1_455 S
C285 C283 1.390 . S
C286 C283 1.339 . S
C286 C284 1.416 . S
C286 H293 0.930 . S
N287 Tb252 2.572 . S
N287 C288 1.340 . S
N287 C290 1.361 . S
C288 H274 0.930 . S
C288 N287 1.340 . S
C288 C292 1.407 . S
C289 C290 1.413 . S
C289 C291 1.416 . S
C289 C318 1.427 1_655 S
C290 C282 1.424 . S
C290 N287 1.361 . S
C290 C289 1.413 . S
C291 H280 0.931 . S
C291 C289 1.416 . S
C291 C292 1.332 . S
C292 H271 0.929 . S
C292 C288 1.407 . S
C292 C291 1.332 . S
H293 C286 0.930 . S
H294 C317 0.930 . S
H295 C318 0.929 . S
O296 Tb252 2.465 . S
O296 C316 1.264 . S
O297 Tb252 2.387 . S
O297 C308 1.264 . S
O298 Tb263 2.349 . S
O298 C308 1.243 . S
O299 Tb252 2.428 . S
O299 C316 1.256 . S
O300 Tb252 2.308 . S
O300 C315 1.266 . S
O301 Tb263 2.393 . S
O301 C315 1.248 . S
O302 Tb263 2.465 . S
O302 C327 1.264 . S
O303 Tb263 2.387 . S
O303 C319 1.264 . S
O304 Tb252 2.349 . S
O304 C319 1.243 . S
O305 Tb263 2.428 . S
O305 C327 1.256 . S
O306 Tb263 2.308 . S
O306 C326 1.266 . S
O307 Tb252 2.393 . S
O307 C326 1.248 . S
C308 O297 1.264 . S
C308 O298 1.243 . S
C309 C312 1.399 . S
C309 C314 1.383 . S
C309 C316 1.496 . S
C310 C311 1.399 . S
C310 C314 1.389 . S
C311 C310 1.399 . S
C311 C313 1.380 . S
C311 H328 0.929 . S
C312 C309 1.399 . S
C312 C313 1.392 . S
C312 H329 0.929 . S
C313 C311 1.380 . S
C313 C312 1.392 . S
C313 H330 0.911 1_655 S
C314 C309 1.383 . S
C314 C310 1.389 . S
C314 H331 0.931 . S
C315 O300 1.266 . S
C315 O301 1.248 . S
C316 Tb252 2.802 . S
C316 O296 1.264 . S
C316 O299 1.256 . S
C316 C309 1.496 . S
C317 C284 1.448 . S
C317 H294 0.930 . S
C317 C318 1.328 . S
C318 C289 1.427 1_455 S
C318 H295 0.929 . S
C318 C317 1.328 . S
C319 O303 1.264 . S
C319 O304 1.243 . S
C320 C323 1.399 . S
C320 C324 1.383 . S
C320 C327 1.496 . S
C321 C322 1.399 . S
C321 C324 1.389 . S
C322 C321 1.399 . S
C322 C325 1.380 . S
C322 H332 0.929 . S
C323 C320 1.399 . S
C323 C325 1.392 . S
C323 H333 0.929 . S
C324 C320 1.383 . S
C324 C321 1.389 . S
C324 H334 0.931 . S
C325 C322 1.380 . S
C325 C323 1.392 . S
C325 H335 0.929 . S
C326 O306 1.266 . S
C326 O307 1.248 . S
C327 Tb263 2.802 . S
C327 O302 1.264 . S
C327 O305 1.256 . S
C327 C320 1.496 . S
H328 C311 0.929 . S
H329 C312 0.929 . S
H330 C313 0.911 1_455 S
H331 C314 0.931 . S
H332 C322 0.929 . S
H333 C323 0.929 . S
H334 C324 0.931 . S
H335 C325 0.929 . S
Tb336 N365 2.617 . S
Tb336 N371 2.572 1_556 S
Tb336 O380 2.465 1_556 S
Tb336 O381 2.387 . S
Tb336 O383 2.428 1_556 S
Tb336 O384 2.308 1_556 S
Tb336 O388 2.349 . S
Tb336 O391 2.393 . S
Tb336 C400 2.802 1_556 S
C337 N338 1.379 . S
C337 C340 1.416 . S
C337 C344 1.424 . S
N338 C337 1.379 . S
N338 C341 1.334 . S
N338 Tb347 2.617 . S
C339 C341 1.390 . S
C339 C342 1.339 . S
C339 H359 0.930 . S
C340 C337 1.416 . S
C340 C342 1.416 . S
C340 C346 1.448 . S
C341 N338 1.334 . S
C341 C339 1.390 . S
C341 H352 0.930 . S
C342 C339 1.339 . S
C342 C340 1.416 . S
C342 H363 0.930 . S
C343 C344 1.413 . S
C343 C345 1.427 . S
C343 C349 1.416 . S
C344 C337 1.424 . S
C344 C343 1.413 . S
C344 N348 1.361 . S
C345 C343 1.427 . S
C345 C346 1.328 . S
C345 H360 0.929 . S
C346 C340 1.448 . S
C346 C345 1.328 . S
C346 H361 0.930 . S
Tb347 N338 2.617 . S
Tb347 N348 2.572 . S
Tb347 O382 2.349 . S
Tb347 O385 2.393 . S
Tb347 O386 2.465 . S
Tb347 O387 2.387 . S
Tb347 O389 2.428 . S
Tb347 O390 2.308 . S
Tb347 C411 2.802 . S
N348 C344 1.361 . S
N348 Tb347 2.572 . S
N348 C350 1.340 . S
C349 C343 1.416 . S
C349 C351 1.332 . S
C349 H357 0.931 . S
C350 N348 1.340 . S
C350 C351 1.407 . S
C350 H356 0.930 . S
C351 C349 1.332 . S
C351 C350 1.407 . S
C351 H353 0.929 . S
H352 C341 0.930 . S
H353 C351 0.929 . S
H354 C369 0.930 . S
H355 C376 0.929 . S
H356 C350 0.930 . S
H357 C349 0.931 . S
H358 C372 0.930 . S
H359 C339 0.930 . S
H360 C345 0.929 . S
H361 C346 0.930 . S
H362 C367 0.930 . S
H363 C342 0.930 . S
H364 C375 0.931 . S
N365 Tb336 2.617 . S
N365 C366 1.379 1_556 S
N365 C369 1.334 . S
C366 N365 1.379 1_554 S
C366 C368 1.416 . S
C366 C374 1.424 . S
C367 H362 0.930 . S
C367 C369 1.390 . S
C367 C370 1.339 . S
C368 C366 1.416 . S
C368 C370 1.416 1_554 S
C368 C401 1.448 . S
C369 H354 0.930 . S
C369 N365 1.334 . S
C369 C367 1.390 . S
C370 C367 1.339 . S
C370 C368 1.416 1_556 S
C370 H377 0.930 . S
N371 Tb336 2.572 1_554 S
N371 C372 1.340 . S
N371 C374 1.361 . S
C372 H358 0.930 . S
C372 N371 1.340 . S
C372 C376 1.407 . S
C373 C374 1.413 . S
C373 C375 1.416 . S
C373 C402 1.427 . S
C374 C366 1.424 . S
C374 N371 1.361 . S
C374 C373 1.413 . S
C375 H364 0.931 . S
C375 C373 1.416 . S
C375 C376 1.332 . S
C376 H355 0.929 . S
C376 C372 1.407 . S
C376 C375 1.332 . S
H377 C370 0.930 . S
H378 C401 0.930 . S
H379 C402 0.929 . S
O380 Tb336 2.465 1_554 S
O380 C400 1.264 . S
O381 Tb336 2.387 . S
O381 C392 1.264 . S
O382 Tb347 2.349 . S
O382 C392 1.243 . S
O383 Tb336 2.428 1_554 S
O383 C400 1.256 . S
O384 Tb336 2.308 1_554 S
O384 C399 1.266 . S
O385 Tb347 2.393 . S
O385 C399 1.248 1_556 S
O386 Tb347 2.465 . S
O386 C411 1.264 . S
O387 Tb347 2.387 . S
O387 C403 1.264 . S
O388 Tb336 2.349 . S
O388 C403 1.243 . S
O389 Tb347 2.428 . S
O389 C411 1.256 . S
O390 Tb347 2.308 . S
O390 C410 1.266 . S
O391 Tb336 2.393 . S
O391 C410 1.248 . S
C392 O381 1.264 . S
C392 O382 1.243 . S
C393 C396 1.399 . S
C393 C398 1.383 . S
C393 C400 1.496 . S
C394 C395 1.399 . S
C394 C398 1.389 . S
C395 C394 1.399 . S
C395 C397 1.380 . S
C395 H412 0.929 . S
C396 C393 1.399 . S
C396 C397 1.392 . S
C396 H413 0.929 . S
C397 C395 1.380 . S
C397 C396 1.392 . S
C397 H414 0.929 . S
C398 C393 1.383 . S
C398 C394 1.389 . S
C398 H415 0.931 . S
C399 O384 1.266 . S
C399 O385 1.248 1_554 S
C400 Tb336 2.802 1_554 S
C400 O380 1.264 . S
C400 O383 1.256 . S
C400 C393 1.496 . S
C401 C368 1.448 . S
C401 H378 0.930 . S
C401 C402 1.328 . S
C402 C373 1.427 . S
C402 H379 0.929 . S
C402 C401 1.328 . S
C403 O387 1.264 . S
C403 O388 1.243 . S
C404 C407 1.399 . S
C404 C408 1.383 . S
C404 C411 1.496 . S
C405 C406 1.399 . S
C405 C408 1.389 . S
C406 C405 1.399 . S
C406 C409 1.380 . S
C406 H416 0.929 . S
C407 C404 1.399 . S
C407 C409 1.392 . S
C407 H417 0.929 . S
C408 C404 1.383 . S
C408 C405 1.389 . S
C408 H418 0.931 . S
C409 C406 1.380 . S
C409 C407 1.392 . S
C409 H419 0.929 . S
C410 O390 1.266 . S
C410 O391 1.248 . S
C411 Tb347 2.802 . S
C411 O386 1.264 . S
C411 O389 1.256 . S
C411 C404 1.496 . S
H412 C395 0.929 . S
H413 C396 0.929 . S
H414 C397 0.929 . S
H415 C398 0.931 . S
H416 C406 0.929 . S
H417 C407 0.929 . S
H418 C408 0.931 . S
H419 C409 0.929 . S
Tb420 N449 2.617 . S
Tb420 N455 2.572 . S
Tb420 O464 2.465 . S
Tb420 O465 2.387 . S
Tb420 O467 2.428 . S
Tb420 O468 2.308 . S
Tb420 O472 2.349 . S
Tb420 O475 2.393 . S
Tb420 C484 2.802 . S
C421 N422 1.379 . S
C421 C424 1.416 . S
C421 C428 1.424 . S
N422 C421 1.379 . S
N422 C425 1.334 . S
N422 Tb431 2.617 . S
C423 C425 1.390 . S
C423 C426 1.339 . S
C423 H443 0.930 . S
C424 C421 1.416 . S
C424 C426 1.416 . S
C424 C430 1.448 . S
C425 N422 1.334 . S
C425 C423 1.390 . S
C425 H436 0.930 . S
C426 C423 1.339 . S
C426 C424 1.416 . S
C426 H447 0.930 . S
C427 C428 1.413 . S
C427 C429 1.427 . S
C427 C433 1.416 . S
C428 C421 1.424 . S
C428 C427 1.413 . S
C428 N432 1.361 . S
C429 C427 1.427 . S
C429 C430 1.328 . S
C429 H444 0.929 . S
C430 C424 1.448 . S
C430 C429 1.328 . S
C430 H445 0.930 . S
Tb431 N422 2.617 . S
Tb431 N432 2.572 . S
Tb431 O466 2.349 . S
Tb431 O469 2.393 . S
Tb431 O470 2.465 . S
Tb431 O471 2.387 . S
Tb431 O473 2.428 . S
Tb431 O474 2.308 . S
Tb431 C495 2.802 . S
N432 C428 1.361 . S
N432 Tb431 2.572 . S
N432 C434 1.340 . S
C433 C427 1.416 . S
C433 C435 1.332 . S
C433 H441 0.931 . S
C434 N432 1.340 . S
C434 C435 1.407 . S
C434 H440 0.930 . S
C435 C433 1.332 . S
C435 C434 1.407 . S
C435 H437 0.929 . S
H436 C425 0.930 . S
H437 C435 0.929 . S
H438 C453 0.930 . S
H439 C460 0.929 . S
H440 C434 0.930 . S
H441 C433 0.931 . S
H442 C456 0.930 . S
H443 C423 0.930 . S
H444 C429 0.929 . S
H445 C430 0.930 . S
H446 C451 0.930 . S
H447 C426 0.930 . S
H448 C459 0.931 . S
N449 Tb420 2.617 . S
N449 C450 1.379 . S
N449 C453 1.334 . S
C450 N449 1.379 . S
C450 C452 1.416 . S
C450 C458 1.424 . S
C451 H446 0.930 . S
C451 C453 1.390 . S
C451 C454 1.339 . S
C452 C450 1.416 . S
C452 C454 1.416 . S
C452 C485 1.448 . S
C453 H438 0.930 . S
C453 N449 1.334 . S
C453 C451 1.390 . S
C454 C451 1.339 . S
C454 C452 1.416 . S
C454 H461 0.930 . S
N455 Tb420 2.572 . S
N455 C456 1.340 . S
N455 C458 1.361 . S
C456 H442 0.930 . S
C456 N455 1.340 . S
C456 C460 1.407 . S
C457 C458 1.413 . S
C457 C459 1.416 . S
C457 C486 1.427 . S
C458 C450 1.424 . S
C458 N455 1.361 . S
C458 C457 1.413 . S
C459 H448 0.931 . S
C459 C457 1.416 . S
C459 C460 1.332 . S
C460 H439 0.929 . S
C460 C456 1.407 . S
C460 C459 1.332 . S
H461 C454 0.930 . S
H462 C485 0.930 . S
H463 C486 0.929 . S
O464 Tb420 2.465 . S
O464 C484 1.264 . S
O465 Tb420 2.387 . S
O465 C476 1.264 . S
O466 Tb431 2.349 . S
O466 C476 1.243 . S
O467 Tb420 2.428 . S
O467 C484 1.256 . S
O468 Tb420 2.308 . S
O468 C483 1.266 . S
O469 Tb431 2.393 . S
O469 C483 1.248 . S
O470 Tb431 2.465 . S
O470 C495 1.264 . S
O471 Tb431 2.387 . S
O471 C487 1.264 . S
O472 Tb420 2.349 . S
O472 C487 1.243 . S
O473 Tb431 2.428 . S
O473 C495 1.256 . S
O474 Tb431 2.308 . S
O474 C494 1.266 . S
O475 Tb420 2.393 . S
O475 C494 1.248 . S
C476 O465 1.264 . S
C476 O466 1.243 . S
C477 C480 1.399 . S
C477 C482 1.383 . S
C477 C484 1.496 . S
C478 C479 1.399 . S
C478 C482 1.389 . S
C479 C478 1.399 . S
C479 C481 1.380 . S
C479 H496 0.929 . S
C480 C477 1.399 . S
C480 C481 1.392 . S
C480 H497 0.929 . S
C481 C479 1.380 . S
C481 C480 1.392 . S
C481 H498 0.929 . S
C482 C477 1.383 . S
C482 C478 1.389 . S
C482 H499 0.931 . S
C483 O468 1.266 . S
C483 O469 1.248 . S
C484 Tb420 2.802 . S
C484 O464 1.264 . S
C484 O467 1.256 . S
C484 C477 1.496 . S
C485 C452 1.448 . S
C485 H462 0.930 . S
C485 C486 1.328 . S
C486 C457 1.427 . S
C486 H463 0.929 . S
C486 C485 1.328 . S
C487 O471 1.264 . S
C487 O472 1.243 . S
C488 C491 1.399 . S
C488 C492 1.383 . S
C488 C495 1.496 . S
C489 C490 1.399 . S
C489 C492 1.389 . S
C490 C489 1.399 . S
C490 C493 1.380 . S
C490 H500 0.929 . S
C491 C488 1.399 . S
C491 C493 1.392 . S
C491 H501 0.929 . S
C492 C488 1.383 . S
C492 C489 1.389 . S
C492 H502 0.931 . S
C493 C490 1.380 . S
C493 C491 1.392 . S
C493 H503 0.929 . S
C494 O474 1.266 . S
C494 O475 1.248 . S
C495 Tb431 2.802 . S
C495 O470 1.264 . S
C495 O473 1.256 . S
C495 C488 1.496 . S
H496 C479 0.929 . S
H497 C480 0.929 . S
H498 C481 0.929 . S
H499 C482 0.931 . S
H500 C490 0.929 . S
H501 C491 0.929 . S
H502 C492 0.931 . S
H503 C493 0.929 . S
Tb504 N533 2.617 . S
Tb504 N539 2.572 . S
Tb504 O548 2.465 . S
Tb504 O549 2.387 . S
Tb504 O551 2.428 . S
Tb504 O552 2.308 . S
Tb504 O556 2.349 . S
Tb504 O559 2.393 . S
Tb504 C568 2.802 . S
C505 N506 1.379 . S
C505 C508 1.416 . S
C505 C512 1.424 . S
N506 C505 1.379 . S
N506 C509 1.334 . S
N506 Tb515 2.617 . S
C507 C509 1.390 . S
C507 C510 1.339 . S
C507 H527 0.930 . S
C508 C505 1.416 . S
C508 C510 1.416 . S
C508 C514 1.448 . S
C509 N506 1.334 . S
C509 C507 1.390 . S
C509 H520 0.930 . S
C510 C507 1.339 . S
C510 C508 1.416 . S
C510 H531 0.930 . S
C511 C512 1.413 . S
C511 C513 1.427 . S
C511 C517 1.416 . S
C512 C505 1.424 . S
C512 C511 1.413 . S
C512 N516 1.361 . S
C513 C511 1.427 . S
C513 C514 1.328 . S
C513 H528 0.929 . S
C514 C508 1.448 . S
C514 C513 1.328 . S
C514 H529 0.930 . S
Tb515 N506 2.617 . S
Tb515 N516 2.572 . S
Tb515 O550 2.349 . S
Tb515 O553 2.393 . S
Tb515 O554 2.465 . S
Tb515 O555 2.387 . S
Tb515 O557 2.428 . S
Tb515 O558 2.308 . S
Tb515 C579 2.802 . S
N516 C512 1.361 . S
N516 Tb515 2.572 . S
N516 C518 1.340 . S
C517 C511 1.416 . S
C517 C519 1.332 . S
C517 H525 0.931 . S
C518 N516 1.340 . S
C518 C519 1.407 . S
C518 H524 0.930 . S
C519 C517 1.332 . S
C519 C518 1.407 . S
C519 H521 0.929 . S
H520 C509 0.930 . S
H521 C519 0.929 . S
H522 C537 0.930 . S
H523 C544 0.929 . S
H524 C518 0.930 . S
H525 C517 0.931 . S
H526 C540 0.930 . S
H527 C507 0.930 . S
H528 C513 0.929 . S
H529 C514 0.930 . S
H530 C535 0.930 . S
H531 C510 0.930 . S
H532 C543 0.931 . S
N533 Tb504 2.617 . S
N533 C534 1.379 . S
N533 C537 1.334 . S
C534 N533 1.379 . S
C534 C536 1.416 . S
C534 C542 1.424 . S
C535 H530 0.930 . S
C535 C537 1.390 . S
C535 C538 1.339 . S
C536 C534 1.416 . S
C536 C538 1.416 . S
C536 C569 1.448 . S
C537 H522 0.930 . S
C537 N533 1.334 . S
C537 C535 1.390 . S
C538 C535 1.339 . S
C538 C536 1.416 . S
C538 H545 0.930 . S
N539 Tb504 2.572 . S
N539 C540 1.340 . S
N539 C542 1.361 . S
C540 H526 0.930 . S
C540 N539 1.340 . S
C540 C544 1.407 . S
C541 C542 1.413 . S
C541 C543 1.416 . S
C541 C570 1.427 . S
C542 C534 1.424 . S
C542 N539 1.361 . S
C542 C541 1.413 . S
C543 H532 0.931 . S
C543 C541 1.416 . S
C543 C544 1.332 . S
C544 H523 0.929 . S
C544 C540 1.407 . S
C544 C543 1.332 . S
H545 C538 0.930 . S
H546 C569 0.930 . S
H547 C570 0.929 . S
O548 Tb504 2.465 . S
O548 C568 1.264 . S
O549 Tb504 2.387 . S
O549 C560 1.264 . S
O550 Tb515 2.349 . S
O550 C560 1.243 . S
O551 Tb504 2.428 . S
O551 C568 1.256 . S
O552 Tb504 2.308 . S
O552 C567 1.266 . S
O553 Tb515 2.393 . S
O553 C567 1.248 . S
O554 Tb515 2.465 . S
O554 C579 1.264 . S
O555 Tb515 2.387 . S
O555 C571 1.264 . S
O556 Tb504 2.349 . S
O556 C571 1.243 . S
O557 Tb515 2.428 . S
O557 C579 1.256 . S
O558 Tb515 2.308 . S
O558 C578 1.266 . S
O559 Tb504 2.393 . S
O559 C578 1.248 . S
C560 O549 1.264 . S
C560 O550 1.243 . S
C561 C564 1.399 . S
C561 C566 1.383 . S
C561 C568 1.496 . S
C562 C563 1.399 . S
C562 C566 1.389 . S
C563 C562 1.399 . S
C563 C565 1.380 . S
C563 H580 0.929 1_655 S
C564 C561 1.399 . S
C564 C565 1.392 . S
C564 H581 0.929 . S
C565 C563 1.380 . S
C565 C564 1.392 . S
C565 H582 0.905 1_655 S
C566 C561 1.383 . S
C566 C562 1.389 . S
C566 H583 0.931 . S
C567 O552 1.266 . S
C567 O553 1.248 . S
C568 Tb504 2.802 . S
C568 O548 1.264 . S
C568 O551 1.256 . S
C568 C561 1.496 . S
C569 C536 1.448 . S
C569 H546 0.930 . S
C569 C570 1.328 . S
C570 C541 1.427 . S
C570 H547 0.929 . S
C570 C569 1.328 . S
C571 O555 1.264 . S
C571 O556 1.243 . S
C572 C575 1.399 . S
C572 C576 1.383 . S
C572 C579 1.496 . S
C573 C574 1.399 . S
C573 C576 1.389 . S
C574 C573 1.399 . S
C574 C577 1.380 . S
C574 H584 0.929 . S
C575 C572 1.399 . S
C575 C577 1.392 . S
C575 H585 0.929 . S
C576 C572 1.383 . S
C576 C573 1.389 . S
C576 H586 0.931 . S
C577 C574 1.380 . S
C577 C575 1.392 . S
C577 H587 0.929 . S
C578 O558 1.266 . S
C578 O559 1.248 . S
C579 Tb515 2.802 . S
C579 O554 1.264 . S
C579 O557 1.256 . S
C579 C572 1.496 . S
H580 C563 0.929 1_455 S
H581 C564 0.929 . S
H582 C565 0.905 1_455 S
H583 C566 0.931 . S
H584 C574 0.929 . S
H585 C575 0.929 . S
H586 C576 0.931 . S
H587 C577 0.929 . S
Tb588 N617 2.617 . S
Tb588 N623 2.572 . S
Tb588 O632 2.465 . S
Tb588 O633 2.387 . S
Tb588 O635 2.428 . S
Tb588 O636 2.308 . S
Tb588 O640 2.349 . S
Tb588 O643 2.393 . S
Tb588 C652 2.802 . S
C589 N590 1.379 . S
C589 C592 1.416 1_455 S
C589 C596 1.424 . S
N590 C589 1.379 . S
N590 C593 1.334 1_455 S
N590 Tb599 2.617 . S
C591 C593 1.390 . S
C591 C594 1.339 . S
C591 H611 0.930 . S
C592 C589 1.416 1_655 S
C592 C594 1.416 . S
C592 C598 1.448 . S
C593 N590 1.334 1_655 S
C593 C591 1.390 . S
C593 H604 0.930 . S
C594 C591 1.339 . S
C594 C592 1.416 . S
C594 H615 0.930 . S
C595 C596 1.413 . S
C595 C597 1.427 1_455 S
C595 C601 1.416 . S
C596 C589 1.424 . S
C596 C595 1.413 . S
C596 N600 1.361 . S
C597 C595 1.427 1_655 S
C597 C598 1.328 . S
C597 H612 0.929 . S
C598 C592 1.448 . S
C598 C597 1.328 . S
C598 H613 0.930 . S
Tb599 N590 2.617 . S
Tb599 N600 2.572 . S
Tb599 O634 2.349 . S
Tb599 O637 2.393 . S
Tb599 O638 2.465 . S
Tb599 O639 2.387 . S
Tb599 O641 2.428 . S
Tb599 O642 2.308 . S
Tb599 C663 2.802 . S
N600 C596 1.361 . S
N600 Tb599 2.572 . S
N600 C602 1.340 . S
C601 C595 1.416 . S
C601 C603 1.332 . S
C601 H609 0.931 . S
C602 N600 1.340 . S
C602 C603 1.407 . S
C602 H608 0.930 . S
C603 C601 1.332 . S
C603 C602 1.407 . S
C603 H605 0.929 . S
H604 C593 0.930 . S
H605 C603 0.929 . S
H606 C621 0.930 . S
H607 C628 0.929 . S
H608 C602 0.930 . S
H609 C601 0.931 . S
H610 C624 0.930 . S
H611 C591 0.930 . S
H612 C597 0.929 . S
H613 C598 0.930 . S
H614 C619 0.930 . S
H615 C594 0.930 . S
H616 C627 0.931 . S
N617 Tb588 2.617 . S
N617 C618 1.379 . S
N617 C621 1.334 . S
C618 N617 1.379 . S
C618 C620 1.416 . S
C618 C626 1.424 . S
C619 H614 0.930 . S
C619 C621 1.390 . S
C619 C622 1.339 . S
C620 C618 1.416 . S
C620 C622 1.416 . S
C620 C653 1.448 . S
C621 H606 0.930 . S
C621 N617 1.334 . S
C621 C619 1.390 . S
C622 C619 1.339 . S
C622 C620 1.416 . S
C622 H629 0.930 . S
N623 Tb588 2.572 . S
N623 C624 1.340 . S
N623 C626 1.361 . S
C624 H610 0.930 . S
C624 N623 1.340 . S
C624 C628 1.407 . S
C625 C626 1.413 . S
C625 C627 1.416 . S
C625 C654 1.427 . S
C626 C618 1.424 . S
C626 N623 1.361 . S
C626 C625 1.413 . S
C627 H616 0.931 . S
C627 C625 1.416 . S
C627 C628 1.332 . S
C628 H607 0.929 . S
C628 C624 1.407 . S
C628 C627 1.332 . S
H629 C622 0.930 . S
H630 C653 0.930 . S
H631 C654 0.929 . S
O632 Tb588 2.465 . S
O632 C652 1.264 . S
O633 Tb588 2.387 . S
O633 C644 1.264 . S
O634 Tb599 2.349 . S
O634 C644 1.243 . S
O635 Tb588 2.428 . S
O635 C652 1.256 . S
O636 Tb588 2.308 . S
O636 C651 1.266 . S
O637 Tb599 2.393 . S
O637 C651 1.248 . S
O638 Tb599 2.465 . S
O638 C663 1.264 . S
O639 Tb599 2.387 . S
O639 C655 1.264 . S
O640 Tb588 2.349 . S
O640 C655 1.243 . S
O641 Tb599 2.428 . S
O641 C663 1.256 . S
O642 Tb599 2.308 . S
O642 C662 1.266 . S
O643 Tb588 2.393 . S
O643 C662 1.248 . S
C644 O633 1.264 . S
C644 O634 1.243 . S
C645 C648 1.399 . S
C645 C650 1.383 . S
C645 C652 1.496 . S
C646 C647 1.399 . S
C646 C650 1.389 . S
C647 C646 1.399 . S
C647 C649 1.380 . S
C647 H664 0.929 . S
C648 C645 1.399 . S
C648 C649 1.392 . S
C648 H665 0.929 . S
C649 C647 1.380 . S
C649 C648 1.392 . S
C649 H666 0.929 . S
C650 C645 1.383 . S
C650 C646 1.389 . S
C650 H667 0.931 . S
C651 O636 1.266 . S
C651 O637 1.248 . S
C652 Tb588 2.802 . S
C652 O632 1.264 . S
C652 O635 1.256 . S
C652 C645 1.496 . S
C653 C620 1.448 . S
C653 H630 0.930 . S
C653 C654 1.328 . S
C654 C625 1.427 . S
C654 H631 0.929 . S
C654 C653 1.328 . S
C655 O639 1.264 . S
C655 O640 1.243 . S
C656 C659 1.399 . S
C656 C660 1.383 . S
C656 C663 1.496 . S
C657 C658 1.399 . S
C657 C660 1.389 . S
C658 C657 1.399 . S
C658 C661 1.380 . S
C658 H668 0.929 . S
C659 C656 1.399 . S
C659 C661 1.392 . S
C659 H669 0.929 . S
C660 C656 1.383 . S
C660 C657 1.389 . S
C660 H670 0.931 . S
C661 C658 1.380 . S
C661 C659 1.392 . S
C661 H671 0.911 1_455 S
C662 O642 1.266 . S
C662 O643 1.248 . S
C663 Tb599 2.802 . S
C663 O638 1.264 . S
C663 O641 1.256 . S
C663 C656 1.496 . S
H664 C647 0.929 . S
H665 C648 0.929 . S
H666 C649 0.929 . S
H667 C650 0.931 . S
H668 C658 0.929 . S
H669 C659 0.929 . S
H670 C660 0.931 . S
H671 C661 0.911 1_655 S
Tb672 N701 2.617 . S
Tb672 N707 2.572 . S
Tb672 O716 2.465 . S
Tb672 O717 2.387 . S
Tb672 O719 2.428 . S
Tb672 O720 2.308 . S
Tb672 O724 2.349 . S
Tb672 O727 2.393 . S
Tb672 C736 2.802 . S
C673 N674 1.379 . S
C673 C676 1.416 . S
C673 C680 1.424 . S
N674 C673 1.379 . S
N674 C677 1.334 . S
N674 Tb683 2.617 . S
C675 C677 1.390 . S
C675 C678 1.339 . S
C675 H695 0.930 . S
C676 C673 1.416 . S
C676 C678 1.416 . S
C676 C682 1.448 . S
C677 N674 1.334 . S
C677 C675 1.390 . S
C677 H688 0.930 . S
C678 C675 1.339 . S
C678 C676 1.416 . S
C678 H699 0.930 . S
C679 C680 1.413 . S
C679 C681 1.427 . S
C679 C685 1.416 . S
C680 C673 1.424 . S
C680 C679 1.413 . S
C680 N684 1.361 . S
C681 C679 1.427 . S
C681 C682 1.328 . S
C681 H696 0.929 . S
C682 C676 1.448 . S
C682 C681 1.328 . S
C682 H697 0.930 . S
Tb683 N674 2.617 . S
Tb683 N684 2.572 . S
Tb683 O718 2.349 . S
Tb683 O721 2.393 . S
Tb683 O722 2.465 . S
Tb683 O723 2.387 . S
Tb683 O725 2.428 . S
Tb683 O726 2.308 . S
Tb683 C747 2.802 . S
N684 C680 1.361 . S
N684 Tb683 2.572 . S
N684 C686 1.340 . S
C685 C679 1.416 . S
C685 C687 1.332 . S
C685 H693 0.931 . S
C686 N684 1.340 . S
C686 C687 1.407 . S
C686 H692 0.930 . S
C687 C685 1.332 . S
C687 C686 1.407 . S
C687 H689 0.929 . S
H688 C677 0.930 . S
H689 C687 0.929 . S
H690 C705 0.930 . S
H691 C712 0.929 . S
H692 C686 0.930 . S
H693 C685 0.931 . S
H694 C708 0.930 . S
H695 C675 0.930 . S
H696 C681 0.929 . S
H697 C682 0.930 . S
H698 C703 0.930 . S
H699 C678 0.930 . S
H700 C711 0.931 . S
N701 Tb672 2.617 . S
N701 C702 1.379 . S
N701 C705 1.334 . S
C702 N701 1.379 . S
C702 C704 1.416 . S
C702 C710 1.424 . S
C703 H698 0.930 . S
C703 C705 1.390 . S
C703 C706 1.339 . S
C704 C702 1.416 . S
C704 C706 1.416 . S
C704 C737 1.448 . S
C705 H690 0.930 . S
C705 N701 1.334 . S
C705 C703 1.390 . S
C706 C703 1.339 . S
C706 C704 1.416 . S
C706 H713 0.930 . S
N707 Tb672 2.572 . S
N707 C708 1.340 . S
N707 C710 1.361 . S
C708 H694 0.930 . S
C708 N707 1.340 . S
C708 C712 1.407 . S
C709 C710 1.413 . S
C709 C711 1.416 . S
C709 C738 1.427 . S
C710 C702 1.424 . S
C710 N707 1.361 . S
C710 C709 1.413 . S
C711 H700 0.931 . S
C711 C709 1.416 . S
C711 C712 1.332 . S
C712 H691 0.929 . S
C712 C708 1.407 . S
C712 C711 1.332 . S
H713 C706 0.930 . S
H714 C737 0.930 . S
H715 C738 0.929 . S
O716 Tb672 2.465 . S
O716 C736 1.264 . S
O717 Tb672 2.387 . S
O717 C728 1.264 . S
O718 Tb683 2.349 . S
O718 C728 1.243 . S
O719 Tb672 2.428 . S
O719 C736 1.256 . S
O720 Tb672 2.308 . S
O720 C735 1.266 . S
O721 Tb683 2.393 . S
O721 C735 1.248 . S
O722 Tb683 2.465 . S
O722 C747 1.264 . S
O723 Tb683 2.387 . S
O723 C739 1.264 . S
O724 Tb672 2.349 . S
O724 C739 1.243 . S
O725 Tb683 2.428 . S
O725 C747 1.256 . S
O726 Tb683 2.308 . S
O726 C746 1.266 . S
O727 Tb672 2.393 . S
O727 C746 1.248 . S
C728 O717 1.264 . S
C728 O718 1.243 . S
C729 C732 1.399 . S
C729 C734 1.383 . S
C729 C736 1.496 . S
C730 C731 1.399 . S
C730 C734 1.389 . S
C731 C730 1.399 . S
C731 C733 1.380 . S
C731 H748 0.929 . S
C732 C729 1.399 . S
C732 C733 1.392 . S
C732 H749 0.929 . S
C733 C731 1.380 . S
C733 C732 1.392 . S
C733 H750 0.929 . S
C734 C729 1.383 . S
C734 C730 1.389 . S
C734 H751 0.931 . S
C735 O720 1.266 . S
C735 O721 1.248 . S
C736 Tb672 2.802 . S
C736 O716 1.264 . S
C736 O719 1.256 . S
C736 C729 1.496 . S
C737 C704 1.448 . S
C737 H714 0.930 . S
C737 C738 1.328 . S
C738 C709 1.427 . S
C738 H715 0.929 . S
C738 C737 1.328 . S
C739 O723 1.264 . S
C739 O724 1.243 . S
C740 C743 1.399 . S
C740 C744 1.383 . S
C740 C747 1.496 . S
C741 C742 1.399 . S
C741 C744 1.389 . S
C742 C741 1.399 . S
C742 C745 1.380 . S
C742 H752 0.929 1_655 S
C743 C740 1.399 . S
C743 C745 1.392 . S
C743 H753 0.929 . S
C744 C740 1.383 . S
C744 C741 1.389 . S
C744 H754 0.931 . S
C745 C742 1.380 . S
C745 C743 1.392 . S
C745 H755 0.905 1_655 S
C746 O726 1.266 . S
C746 O727 1.248 . S
C747 Tb683 2.802 . S
C747 O722 1.264 . S
C747 O725 1.256 . S
C747 C740 1.496 . S
H748 C731 0.929 . S
H749 C732 0.929 . S
H750 C733 0.929 . S
H751 C734 0.931 . S
H752 C742 0.929 1_455 S
H753 C743 0.929 . S
H754 C744 0.931 . S
H755 C745 0.905 1_455 S
Tb756 N785 2.617 . S
Tb756 N791 2.572 . S
Tb756 O800 2.465 . S
Tb756 O801 2.387 . S
Tb756 O803 2.428 . S
Tb756 O804 2.308 . S
Tb756 O808 2.349 . S
Tb756 O811 2.393 . S
Tb756 C820 2.802 . S
C757 N758 1.379 . S
C757 C760 1.416 . S
C757 C764 1.424 . S
N758 C757 1.379 . S
N758 C761 1.334 . S
N758 Tb767 2.617 . S
C759 C761 1.390 . S
C759 C762 1.339 . S
C759 H779 0.930 . S
C760 C757 1.416 . S
C760 C762 1.416 . S
C760 C766 1.448 . S
C761 N758 1.334 . S
C761 C759 1.390 . S
C761 H772 0.930 . S
C762 C759 1.339 . S
C762 C760 1.416 . S
C762 H783 0.930 . S
C763 C764 1.413 . S
C763 C765 1.427 . S
C763 C769 1.416 . S
C764 C757 1.424 . S
C764 C763 1.413 . S
C764 N768 1.361 . S
C765 C763 1.427 . S
C765 C766 1.328 . S
C765 H780 0.929 . S
C766 C760 1.448 . S
C766 C765 1.328 . S
C766 H781 0.930 . S
Tb767 N758 2.617 . S
Tb767 N768 2.572 . S
Tb767 O802 2.349 . S
Tb767 O805 2.393 . S
Tb767 O806 2.465 . S
Tb767 O807 2.387 . S
Tb767 O809 2.428 . S
Tb767 O810 2.308 . S
Tb767 C831 2.802 . S
N768 C764 1.361 . S
N768 Tb767 2.572 . S
N768 C770 1.340 . S
C769 C763 1.416 . S
C769 C771 1.332 . S
C769 H777 0.931 . S
C770 N768 1.340 . S
C770 C771 1.407 . S
C770 H776 0.930 . S
C771 C769 1.332 . S
C771 C770 1.407 . S
C771 H773 0.929 . S
H772 C761 0.930 . S
H773 C771 0.929 . S
H774 C789 0.930 . S
H775 C796 0.929 . S
H776 C770 0.930 . S
H777 C769 0.931 . S
H778 C792 0.930 . S
H779 C759 0.930 . S
H780 C765 0.929 . S
H781 C766 0.930 . S
H782 C787 0.930 . S
H783 C762 0.930 . S
H784 C795 0.931 . S
N785 Tb756 2.617 . S
N785 C786 1.379 . S
N785 C789 1.334 1_455 S
C786 N785 1.379 . S
C786 C788 1.416 1_455 S
C786 C794 1.424 . S
C787 H782 0.930 . S
C787 C789 1.390 . S
C787 C790 1.339 . S
C788 C786 1.416 1_655 S
C788 C790 1.416 . S
C788 C821 1.448 . S
C789 H774 0.930 . S
C789 N785 1.334 1_655 S
C789 C787 1.390 . S
C790 C787 1.339 . S
C790 C788 1.416 . S
C790 H797 0.930 . S
N791 Tb756 2.572 . S
N791 C792 1.340 . S
N791 C794 1.361 . S
C792 H778 0.930 . S
C792 N791 1.340 . S
C792 C796 1.407 . S
C793 C794 1.413 . S
C793 C795 1.416 . S
C793 C822 1.427 1_455 S
C794 C786 1.424 . S
C794 N791 1.361 . S
C794 C793 1.413 . S
C795 H784 0.931 . S
C795 C793 1.416 . S
C795 C796 1.332 . S
C796 H775 0.929 . S
C796 C792 1.407 . S
C796 C795 1.332 . S
H797 C790 0.930 . S
H798 C821 0.930 . S
H799 C822 0.929 . S
O800 Tb756 2.465 . S
O800 C820 1.264 . S
O801 Tb756 2.387 . S
O801 C812 1.264 . S
O802 Tb767 2.349 . S
O802 C812 1.243 . S
O803 Tb756 2.428 . S
O803 C820 1.256 . S
O804 Tb756 2.308 . S
O804 C819 1.266 . S
O805 Tb767 2.393 . S
O805 C819 1.248 . S
O806 Tb767 2.465 . S
O806 C831 1.264 . S
O807 Tb767 2.387 . S
O807 C823 1.264 . S
O808 Tb756 2.349 . S
O808 C823 1.243 . S
O809 Tb767 2.428 . S
O809 C831 1.256 . S
O810 Tb767 2.308 . S
O810 C830 1.266 . S
O811 Tb756 2.393 . S
O811 C830 1.248 . S
C812 O801 1.264 . S
C812 O802 1.243 . S
C813 C816 1.399 . S
C813 C818 1.383 . S
C813 C820 1.496 . S
C814 C815 1.399 . S
C814 C818 1.389 . S
C815 C814 1.399 . S
C815 C817 1.380 . S
C815 H832 0.929 1_545 S
C816 C813 1.399 . S
C816 C817 1.392 . S
C816 H833 0.929 . S
C817 C815 1.380 . S
C817 C816 1.392 . S
C817 H834 0.911 1_455 S
C818 C813 1.383 . S
C818 C814 1.389 . S
C818 H835 0.931 . S
C819 O804 1.266 . S
C819 O805 1.248 . S
C820 Tb756 2.802 . S
C820 O800 1.264 . S
C820 O803 1.256 . S
C820 C813 1.496 . S
C821 C788 1.448 . S
C821 H798 0.930 . S
C821 C822 1.328 . S
C822 C793 1.427 1_655 S
C822 H799 0.929 . S
C822 C821 1.328 . S
C823 O807 1.264 . S
C823 O808 1.243 . S
C824 C827 1.399 . S
C824 C828 1.383 . S
C824 C831 1.496 . S
C825 C826 1.399 . S
C825 C828 1.389 . S
C826 C825 1.399 . S
C826 C829 1.380 . S
C826 H836 0.929 . S
C827 C824 1.399 . S
C827 C829 1.392 . S
C827 H837 0.929 . S
C828 C824 1.383 . S
C828 C825 1.389 . S
C828 H838 0.931 . S
C829 C826 1.380 . S
C829 C827 1.392 . S
C829 H839 0.929 . S
C830 O810 1.266 . S
C830 O811 1.248 . S
C831 Tb767 2.802 . S
C831 O806 1.264 . S
C831 O809 1.256 . S
C831 C824 1.496 . S
H832 C815 0.929 1_565 S
H833 C816 0.929 . S
H834 C817 0.911 1_655 S
H835 C818 0.931 . S
H836 C826 0.929 . S
H837 C827 0.929 . S
H838 C828 0.931 . S
H839 C829 0.929 . S
Tb840 N869 2.617 . S
Tb840 N875 2.572 . S
Tb840 O884 2.465 . S
Tb840 O885 2.387 . S
Tb840 O887 2.428 . S
Tb840 O888 2.308 . S
Tb840 O892 2.349 . S
Tb840 O895 2.393 . S
Tb840 C904 2.802 . S
C841 N842 1.379 1_556 S
C841 C844 1.416 . S
C841 C848 1.424 . S
N842 C841 1.379 1_554 S
N842 C845 1.334 . S
N842 Tb851 2.617 . S
C843 C845 1.390 . S
C843 C846 1.339 . S
C843 H863 0.930 . S
C844 C841 1.416 . S
C844 C846 1.416 1_556 S
C844 C850 1.448 . S
C845 N842 1.334 . S
C845 C843 1.390 . S
C845 H856 0.930 . S
C846 C843 1.339 . S
C846 C844 1.416 1_554 S
C846 H867 0.930 . S
C847 C848 1.413 . S
C847 C849 1.427 . S
C847 C853 1.416 . S
C848 C841 1.424 . S
C848 C847 1.413 . S
C848 N852 1.361 . S
C849 C847 1.427 . S
C849 C850 1.328 . S
C849 H864 0.929 . S
C850 C844 1.448 . S
C850 C849 1.328 . S
C850 H865 0.930 . S
Tb851 N842 2.617 . S
Tb851 N852 2.572 1_554 S
Tb851 O886 2.349 . S
Tb851 O889 2.393 . S
Tb851 O890 2.465 1_554 S
Tb851 O891 2.387 . S
Tb851 O893 2.428 1_554 S
Tb851 O894 2.308 1_554 S
Tb851 C915 2.802 1_554 S
N852 C848 1.361 . S
N852 Tb851 2.572 1_556 S
N852 C854 1.340 . S
C853 C847 1.416 . S
C853 C855 1.332 . S
C853 H861 0.931 . S
C854 N852 1.340 . S
C854 C855 1.407 . S
C854 H860 0.930 . S
C855 C853 1.332 . S
C855 C854 1.407 . S
C855 H857 0.929 . S
H856 C845 0.930 . S
H857 C855 0.929 . S
H858 C873 0.930 . S
H859 C880 0.929 . S
H860 C854 0.930 . S
H861 C853 0.931 . S
H862 C876 0.930 . S
H863 C843 0.930 . S
H864 C849 0.929 . S
H865 C850 0.930 . S
H866 C871 0.930 . S
H867 C846 0.930 . S
H868 C879 0.931 . S
N869 Tb840 2.617 . S
N869 C870 1.379 . S
N869 C873 1.334 . S
C870 N869 1.379 . S
C870 C872 1.416 . S
C870 C878 1.424 . S
C871 H866 0.930 . S
C871 C873 1.390 . S
C871 C874 1.339 . S
C872 C870 1.416 . S
C872 C874 1.416 . S
C872 C905 1.448 . S
C873 H858 0.930 . S
C873 N869 1.334 . S
C873 C871 1.390 . S
C874 C871 1.339 . S
C874 C872 1.416 . S
C874 H881 0.930 . S
N875 Tb840 2.572 . S
N875 C876 1.340 . S
N875 C878 1.361 . S
C876 H862 0.930 . S
C876 N875 1.340 . S
C876 C880 1.407 . S
C877 C878 1.413 . S
C877 C879 1.416 . S
C877 C906 1.427 . S
C878 C870 1.424 . S
C878 N875 1.361 . S
C878 C877 1.413 . S
C879 H868 0.931 . S
C879 C877 1.416 . S
C879 C880 1.332 . S
C880 H859 0.929 . S
C880 C876 1.407 . S
C880 C879 1.332 . S
H881 C874 0.930 . S
H882 C905 0.930 . S
H883 C906 0.929 . S
O884 Tb840 2.465 . S
O884 C904 1.264 . S
O885 Tb840 2.387 . S
O885 C896 1.264 . S
O886 Tb851 2.349 . S
O886 C896 1.243 . S
O887 Tb840 2.428 . S
O887 C904 1.256 . S
O888 Tb840 2.308 . S
O888 C903 1.266 . S
O889 Tb851 2.393 . S
O889 C903 1.248 . S
O890 Tb851 2.465 1_556 S
O890 C915 1.264 . S
O891 Tb851 2.387 . S
O891 C907 1.264 . S
O892 Tb840 2.349 . S
O892 C907 1.243 . S
O893 Tb851 2.428 1_556 S
O893 C915 1.256 . S
O894 Tb851 2.308 1_556 S
O894 C914 1.266 . S
O895 Tb840 2.393 . S
O895 C914 1.248 1_554 S
C896 O885 1.264 . S
C896 O886 1.243 . S
C897 C900 1.399 . S
C897 C902 1.383 . S
C897 C904 1.496 . S
C898 C899 1.399 . S
C898 C902 1.389 . S
C899 C898 1.399 . S
C899 C901 1.380 . S
C899 H916 0.929 . S
C900 C897 1.399 . S
C900 C901 1.392 . S
C900 H917 0.929 . S
C901 C899 1.380 . S
C901 C900 1.392 . S
C901 H918 0.929 . S
C902 C897 1.383 . S
C902 C898 1.389 . S
C902 H919 0.931 . S
C903 O888 1.266 . S
C903 O889 1.248 . S
C904 Tb840 2.802 . S
C904 O884 1.264 . S
C904 O887 1.256 . S
C904 C897 1.496 . S
C905 C872 1.448 . S
C905 H882 0.930 . S
C905 C906 1.328 . S
C906 C877 1.427 . S
C906 H883 0.929 . S
C906 C905 1.328 . S
C907 O891 1.264 . S
C907 O892 1.243 . S
C908 C911 1.399 . S
C908 C912 1.383 . S
C908 C915 1.496 . S
C909 C910 1.399 . S
C909 C912 1.389 . S
C910 C909 1.399 . S
C910 C913 1.380 . S
C910 H920 0.929 . S
C911 C908 1.399 . S
C911 C913 1.392 . S
C911 H921 0.929 . S
C912 C908 1.383 . S
C912 C909 1.389 . S
C912 H922 0.931 . S
C913 C910 1.380 . S
C913 C911 1.392 . S
C913 H923 0.929 . S
C914 O894 1.266 . S
C914 O895 1.248 1_556 S
C915 Tb851 2.802 1_556 S
C915 O890 1.264 . S
C915 O893 1.256 . S
C915 C908 1.496 . S
H916 C899 0.929 . S
H917 C900 0.929 . S
H918 C901 0.929 . S
H919 C902 0.931 . S
H920 C910 0.929 . S
H921 C911 0.929 . S
H922 C912 0.931 . S
H923 C913 0.929 . S
Tb924 N953 2.617 . S
Tb924 N959 2.572 . S
Tb924 O968 2.465 . S
Tb924 O969 2.387 . S
Tb924 O971 2.428 . S
Tb924 O972 2.308 . S
Tb924 O976 2.349 . S
Tb924 O979 2.393 . S
Tb924 C988 2.802 . S
C925 N926 1.379 . S
C925 C928 1.416 . S
C925 C932 1.424 . S
N926 C925 1.379 . S
N926 C929 1.334 . S
N926 Tb935 2.617 . S
C927 C929 1.390 . S
C927 C930 1.339 . S
C927 H947 0.930 . S
C928 C925 1.416 . S
C928 C930 1.416 . S
C928 C934 1.448 . S
C929 N926 1.334 . S
C929 C927 1.390 . S
C929 H940 0.930 . S
C930 C927 1.339 . S
C930 C928 1.416 . S
C930 H951 0.930 . S
C931 C932 1.413 . S
C931 C933 1.427 . S
C931 C937 1.416 . S
C932 C925 1.424 . S
C932 C931 1.413 . S
C932 N936 1.361 . S
C933 C931 1.427 . S
C933 C934 1.328 . S
C933 H948 0.929 . S
C934 C928 1.448 . S
C934 C933 1.328 . S
C934 H949 0.930 . S
Tb935 N926 2.617 . S
Tb935 N936 2.572 . S
Tb935 O970 2.349 . S
Tb935 O973 2.393 . S
Tb935 O974 2.465 . S
Tb935 O975 2.387 . S
Tb935 O977 2.428 . S
Tb935 O978 2.308 . S
Tb935 C999 2.802 . S
N936 C932 1.361 . S
N936 Tb935 2.572 . S
N936 C938 1.340 . S
C937 C931 1.416 . S
C937 C939 1.332 . S
C937 H945 0.931 . S
C938 N936 1.340 . S
C938 C939 1.407 . S
C938 H944 0.930 . S
C939 C937 1.332 . S
C939 C938 1.407 . S
C939 H941 0.929 . S
H940 C929 0.930 . S
H941 C939 0.929 . S
H942 C957 0.930 . S
H943 C964 0.929 . S
H944 C938 0.930 . S
H945 C937 0.931 . S
H946 C960 0.930 . S
H947 C927 0.930 . S
H948 C933 0.929 . S
H949 C934 0.930 . S
H950 C955 0.930 . S
H951 C930 0.930 . S
H952 C963 0.931 . S
N953 Tb924 2.617 . S
N953 C954 1.379 . S
N953 C957 1.334 . S
C954 N953 1.379 . S
C954 C956 1.416 . S
C954 C962 1.424 . S
C955 H950 0.930 . S
C955 C957 1.390 . S
C955 C958 1.339 . S
C956 C954 1.416 . S
C956 C958 1.416 . S
C956 C989 1.448 . S
C957 H942 0.930 . S
C957 N953 1.334 . S
C957 C955 1.390 . S
C958 C955 1.339 . S
C958 C956 1.416 . S
C958 H965 0.930 . S
N959 Tb924 2.572 . S
N959 C960 1.340 . S
N959 C962 1.361 . S
C960 H946 0.930 . S
C960 N959 1.340 . S
C960 C964 1.407 . S
C961 C962 1.413 . S
C961 C963 1.416 . S
C961 C990 1.427 . S
C962 C954 1.424 . S
C962 N959 1.361 . S
C962 C961 1.413 . S
C963 H952 0.931 . S
C963 C961 1.416 . S
C963 C964 1.332 . S
C964 H943 0.929 . S
C964 C960 1.407 . S
C964 C963 1.332 . S
H965 C958 0.930 . S
H966 C989 0.930 . S
H967 C990 0.929 . S
O968 Tb924 2.465 . S
O968 C988 1.264 . S
O969 Tb924 2.387 . S
O969 C980 1.264 . S
O970 Tb935 2.349 . S
O970 C980 1.243 . S
O971 Tb924 2.428 . S
O971 C988 1.256 . S
O972 Tb924 2.308 . S
O972 C987 1.266 . S
O973 Tb935 2.393 . S
O973 C987 1.248 . S
O974 Tb935 2.465 . S
O974 C999 1.264 . S
O975 Tb935 2.387 . S
O975 C991 1.264 . S
O976 Tb924 2.349 . S
O976 C991 1.243 . S
O977 Tb935 2.428 . S
O977 C999 1.256 . S
O978 Tb935 2.308 . S
O978 C998 1.266 . S
O979 Tb924 2.393 . S
O979 C998 1.248 . S
C980 O969 1.264 . S
C980 O970 1.243 . S
C981 C984 1.399 . S
C981 C986 1.383 . S
C981 C988 1.496 . S
C982 C983 1.399 . S
C982 C986 1.389 . S
C983 C982 1.399 . S
C983 C985 1.380 . S
C983 H1000 0.929 1_565 S
C984 C981 1.399 . S
C984 C985 1.392 . S
C984 H1001 0.929 . S
C985 C983 1.380 . S
C985 C984 1.392 . S
C985 H1002 0.929 . S
C986 C981 1.383 . S
C986 C982 1.389 . S
C986 H1003 0.931 . S
C987 O972 1.266 . S
C987 O973 1.248 . S
C988 Tb924 2.802 . S
C988 O968 1.264 . S
C988 O971 1.256 . S
C988 C981 1.496 . S
C989 C956 1.448 . S
C989 H966 0.930 . S
C989 C990 1.328 . S
C990 C961 1.427 . S
C990 H967 0.929 . S
C990 C989 1.328 . S
C991 O975 1.264 . S
C991 O976 1.243 . S
C992 C995 1.399 . S
C992 C996 1.383 . S
C992 C999 1.496 . S
C993 C994 1.399 . S
C993 C996 1.389 . S
C994 C993 1.399 . S
C994 C997 1.380 . S
C994 H1004 0.929 . S
C995 C992 1.399 . S
C995 C997 1.392 . S
C995 H1005 0.929 . S
C996 C992 1.383 . S
C996 C993 1.389 . S
C996 H1006 0.931 . S
C997 C994 1.380 . S
C997 C995 1.392 . S
C997 H1007 0.929 . S
C998 O978 1.266 . S
C998 O979 1.248 . S
C999 Tb935 2.802 . S
C999 O974 1.264 . S
C999 O977 1.256 . S
C999 C992 1.496 . S
H1000 C983 0.929 1_545 S
H1001 C984 0.929 . S
H1002 C985 0.929 . S
H1003 C986 0.931 . S
H1004 C994 0.929 . S
H1005 C995 0.929 . S
H1006 C996 0.931 . S
H1007 C997 0.929 . S
Tb1008 N1037 2.617 . S
Tb1008 N1043 2.572 . S
Tb1008 O1052 2.465 . S
Tb1008 O1053 2.387 . S
Tb1008 O1055 2.428 . S
Tb1008 O1056 2.308 . S
Tb1008 O1060 2.349 . S
Tb1008 O1063 2.393 . S
Tb1008 C1072 2.802 . S
C1009 N1010 1.379 . S
C1009 C1012 1.416 . S
C1009 C1016 1.424 . S
N1010 C1009 1.379 . S
N1010 C1013 1.334 . S
N1010 Tb1019 2.617 . S
C1011 C1013 1.390 . S
C1011 C1014 1.339 . S
C1011 H1031 0.930 . S
C1012 C1009 1.416 . S
C1012 C1014 1.416 . S
C1012 C1018 1.448 . S
C1013 N1010 1.334 . S
C1013 C1011 1.390 . S
C1013 H1024 0.930 . S
C1014 C1011 1.339 . S
C1014 C1012 1.416 . S
C1014 H1035 0.930 . S
C1015 C1016 1.413 . S
C1015 C1017 1.427 . S
C1015 C1021 1.416 . S
C1016 C1009 1.424 . S
C1016 C1015 1.413 . S
C1016 N1020 1.361 . S
C1017 C1015 1.427 . S
C1017 C1018 1.328 . S
C1017 H1032 0.929 . S
C1018 C1012 1.448 . S
C1018 C1017 1.328 . S
C1018 H1033 0.930 . S
Tb1019 N1010 2.617 . S
Tb1019 N1020 2.572 . S
Tb1019 O1054 2.349 . S
Tb1019 O1057 2.393 . S
Tb1019 O1058 2.465 . S
Tb1019 O1059 2.387 . S
Tb1019 O1061 2.428 . S
Tb1019 O1062 2.308 . S
Tb1019 C1083 2.802 . S
N1020 C1016 1.361 . S
N1020 Tb1019 2.572 . S
N1020 C1022 1.340 . S
C1021 C1015 1.416 . S
C1021 C1023 1.332 . S
C1021 H1029 0.931 . S
C1022 N1020 1.340 . S
C1022 C1023 1.407 . S
C1022 H1028 0.930 . S
C1023 C1021 1.332 . S
C1023 C1022 1.407 . S
C1023 H1025 0.929 . S
H1024 C1013 0.930 . S
H1025 C1023 0.929 . S
H1026 C1041 0.930 . S
H1027 C1048 0.929 . S
H1028 C1022 0.930 . S
H1029 C1021 0.931 . S
H1030 C1044 0.930 . S
H1031 C1011 0.930 . S
H1032 C1017 0.929 . S
H1033 C1018 0.930 . S
H1034 C1039 0.930 . S
H1035 C1014 0.930 . S
H1036 C1047 0.931 . S
N1037 Tb1008 2.617 . S
N1037 C1038 1.379 . S
N1037 C1041 1.334 . S
C1038 N1037 1.379 . S
C1038 C1040 1.416 . S
C1038 C1046 1.424 . S
C1039 H1034 0.930 . S
C1039 C1041 1.390 . S
C1039 C1042 1.339 . S
C1040 C1038 1.416 . S
C1040 C1042 1.416 . S
C1040 C1073 1.448 . S
C1041 H1026 0.930 . S
C1041 N1037 1.334 . S
C1041 C1039 1.390 . S
C1042 C1039 1.339 . S
C1042 C1040 1.416 . S
C1042 H1049 0.930 . S
N1043 Tb1008 2.572 . S
N1043 C1044 1.340 . S
N1043 C1046 1.361 . S
C1044 H1030 0.930 . S
C1044 N1043 1.340 . S
C1044 C1048 1.407 . S
C1045 C1046 1.413 . S
C1045 C1047 1.416 . S
C1045 C1074 1.427 . S
C1046 C1038 1.424 . S
C1046 N1043 1.361 . S
C1046 C1045 1.413 . S
C1047 H1036 0.931 . S
C1047 C1045 1.416 . S
C1047 C1048 1.332 . S
C1048 H1027 0.929 . S
C1048 C1044 1.407 . S
C1048 C1047 1.332 . S
H1049 C1042 0.930 . S
H1050 C1073 0.930 . S
H1051 C1074 0.929 . S
O1052 Tb1008 2.465 . S
O1052 C1072 1.264 . S
O1053 Tb1008 2.387 . S
O1053 C1064 1.264 . S
O1054 Tb1019 2.349 . S
O1054 C1064 1.243 . S
O1055 Tb1008 2.428 . S
O1055 C1072 1.256 . S
O1056 Tb1008 2.308 . S
O1056 C1071 1.266 . S
O1057 Tb1019 2.393 . S
O1057 C1071 1.248 . S
O1058 Tb1019 2.465 . S
O1058 C1083 1.264 . S
O1059 Tb1019 2.387 . S
O1059 C1075 1.264 . S
O1060 Tb1008 2.349 . S
O1060 C1075 1.243 . S
O1061 Tb1019 2.428 . S
O1061 C1083 1.256 . S
O1062 Tb1019 2.308 . S
O1062 C1082 1.266 . S
O1063 Tb1008 2.393 . S
O1063 C1082 1.248 . S
C1064 O1053 1.264 . S
C1064 O1054 1.243 . S
C1065 C1068 1.399 . S
C1065 C1070 1.383 . S
C1065 C1072 1.496 . S
C1066 C1067 1.399 . S
C1066 C1070 1.389 . S
C1067 C1066 1.399 . S
C1067 C1069 1.380 . S
C1067 H1084 0.929 1_455 S
C1068 C1065 1.399 . S
C1068 C1069 1.392 . S
C1068 H1085 0.929 . S
C1069 C1067 1.380 . S
C1069 C1068 1.392 . S
C1069 H1086 0.905 1_455 S
C1070 C1065 1.383 . S
C1070 C1066 1.389 . S
C1070 H1087 0.931 . S
C1071 O1056 1.266 . S
C1071 O1057 1.248 . S
C1072 Tb1008 2.802 . S
C1072 O1052 1.264 . S
C1072 O1055 1.256 . S
C1072 C1065 1.496 . S
C1073 C1040 1.448 . S
C1073 H1050 0.930 . S
C1073 C1074 1.328 . S
C1074 C1045 1.427 . S
C1074 H1051 0.929 . S
C1074 C1073 1.328 . S
C1075 O1059 1.264 . S
C1075 O1060 1.243 . S
C1076 C1079 1.399 . S
C1076 C1080 1.383 . S
C1076 C1083 1.496 . S
C1077 C1078 1.399 . S
C1077 C1080 1.389 . S
C1078 C1077 1.399 . S
C1078 C1081 1.380 . S
C1078 H1088 0.929 . S
C1079 C1076 1.399 . S
C1079 C1081 1.392 . S
C1079 H1089 0.929 . S
C1080 C1076 1.383 . S
C1080 C1077 1.389 . S
C1080 H1090 0.931 . S
C1081 C1078 1.380 . S
C1081 C1079 1.392 . S
C1081 H1091 0.929 . S
C1082 O1062 1.266 . S
C1082 O1063 1.248 . S
C1083 Tb1019 2.802 . S
C1083 O1058 1.264 . S
C1083 O1061 1.256 . S
C1083 C1076 1.496 . S
H1084 C1067 0.929 1_655 S
H1085 C1068 0.929 . S
H1086 C1069 0.905 1_655 S
H1087 C1070 0.931 . S
H1088 C1078 0.929 . S
H1089 C1079 0.929 . S
H1090 C1080 0.931 . S
H1091 C1081 0.929 . S
Tb1092 N1121 2.617 . S
Tb1092 N1127 2.572 . S
Tb1092 O1136 2.465 . S
Tb1092 O1137 2.387 . S
Tb1092 O1139 2.428 . S
Tb1092 O1140 2.308 . S
Tb1092 O1144 2.349 . S
Tb1092 O1147 2.393 . S
Tb1092 C1156 2.802 . S
C1093 N1094 1.379 . S
C1093 C1096 1.416 1_655 S
C1093 C1100 1.424 . S
N1094 C1093 1.379 . S
N1094 C1097 1.334 1_655 S
N1094 Tb1103 2.617 . S
C1095 C1097 1.390 . S
C1095 C1098 1.339 . S
C1095 H1115 0.930 . S
C1096 C1093 1.416 1_455 S
C1096 C1098 1.416 . S
C1096 C1102 1.448 . S
C1097 N1094 1.334 1_455 S
C1097 C1095 1.390 . S
C1097 H1108 0.930 . S
C1098 C1095 1.339 . S
C1098 C1096 1.416 . S
C1098 H1119 0.930 . S
C1099 C1100 1.413 . S
C1099 C1101 1.427 1_655 S
C1099 C1105 1.416 . S
C1100 C1093 1.424 . S
C1100 C1099 1.413 . S
C1100 N1104 1.361 . S
C1101 C1099 1.427 1_455 S
C1101 C1102 1.328 . S
C1101 H1116 0.929 . S
C1102 C1096 1.448 . S
C1102 C1101 1.328 . S
C1102 H1117 0.930 . S
Tb1103 N1094 2.617 . S
Tb1103 N1104 2.572 . S
Tb1103 O1138 2.349 . S
Tb1103 O1141 2.393 . S
Tb1103 O1142 2.465 . S
Tb1103 O1143 2.387 . S
Tb1103 O1145 2.428 . S
Tb1103 O1146 2.308 . S
Tb1103 C1167 2.802 . S
N1104 C1100 1.361 . S
N1104 Tb1103 2.572 . S
N1104 C1106 1.340 . S
C1105 C1099 1.416 . S
C1105 C1107 1.332 . S
C1105 H1113 0.931 . S
C1106 N1104 1.340 . S
C1106 C1107 1.407 . S
C1106 H1112 0.930 . S
C1107 C1105 1.332 . S
C1107 C1106 1.407 . S
C1107 H1109 0.929 . S
H1108 C1097 0.930 . S
H1109 C1107 0.929 . S
H1110 C1125 0.930 . S
H1111 C1132 0.929 . S
H1112 C1106 0.930 . S
H1113 C1105 0.931 . S
H1114 C1128 0.930 . S
H1115 C1095 0.930 . S
H1116 C1101 0.929 . S
H1117 C1102 0.930 . S
H1118 C1123 0.930 . S
H1119 C1098 0.930 . S
H1120 C1131 0.931 . S
N1121 Tb1092 2.617 . S
N1121 C1122 1.379 . S
N1121 C1125 1.334 . S
C1122 N1121 1.379 . S
C1122 C1124 1.416 . S
C1122 C1130 1.424 . S
C1123 H1118 0.930 . S
C1123 C1125 1.390 . S
C1123 C1126 1.339 . S
C1124 C1122 1.416 . S
C1124 C1126 1.416 . S
C1124 C1157 1.448 . S
C1125 H1110 0.930 . S
C1125 N1121 1.334 . S
C1125 C1123 1.390 . S
C1126 C1123 1.339 . S
C1126 C1124 1.416 . S
C1126 H1133 0.930 . S
N1127 Tb1092 2.572 . S
N1127 C1128 1.340 . S
N1127 C1130 1.361 . S
C1128 H1114 0.930 . S
C1128 N1127 1.340 . S
C1128 C1132 1.407 . S
C1129 C1130 1.413 . S
C1129 C1131 1.416 . S
C1129 C1158 1.427 . S
C1130 C1122 1.424 . S
C1130 N1127 1.361 . S
C1130 C1129 1.413 . S
C1131 H1120 0.931 . S
C1131 C1129 1.416 . S
C1131 C1132 1.332 . S
C1132 H1111 0.929 . S
C1132 C1128 1.407 . S
C1132 C1131 1.332 . S
H1133 C1126 0.930 . S
H1134 C1157 0.930 . S
H1135 C1158 0.929 . S
O1136 Tb1092 2.465 . S
O1136 C1156 1.264 . S
O1137 Tb1092 2.387 . S
O1137 C1148 1.264 . S
O1138 Tb1103 2.349 . S
O1138 C1148 1.243 . S
O1139 Tb1092 2.428 . S
O1139 C1156 1.256 . S
O1140 Tb1092 2.308 . S
O1140 C1155 1.266 . S
O1141 Tb1103 2.393 . S
O1141 C1155 1.248 . S
O1142 Tb1103 2.465 . S
O1142 C1167 1.264 . S
O1143 Tb1103 2.387 . S
O1143 C1159 1.264 . S
O1144 Tb1092 2.349 . S
O1144 C1159 1.243 . S
O1145 Tb1103 2.428 . S
O1145 C1167 1.256 . S
O1146 Tb1103 2.308 . S
O1146 C1166 1.266 . S
O1147 Tb1092 2.393 . S
O1147 C1166 1.248 . S
C1148 O1137 1.264 . S
C1148 O1138 1.243 . S
C1149 C1152 1.399 . S
C1149 C1154 1.383 . S
C1149 C1156 1.496 . S
C1150 C1151 1.399 . S
C1150 C1154 1.389 . S
C1151 C1150 1.399 . S
C1151 C1153 1.380 . S
C1151 H1168 0.929 . S
C1152 C1149 1.399 . S
C1152 C1153 1.392 . S
C1152 H1169 0.929 . S
C1153 C1151 1.380 . S
C1153 C1152 1.392 . S
C1153 H1170 0.929 . S
C1154 C1149 1.383 . S
C1154 C1150 1.389 . S
C1154 H1171 0.931 . S
C1155 O1140 1.266 . S
C1155 O1141 1.248 . S
C1156 Tb1092 2.802 . S
C1156 O1136 1.264 . S
C1156 O1139 1.256 . S
C1156 C1149 1.496 . S
C1157 C1124 1.448 . S
C1157 H1134 0.930 . S
C1157 C1158 1.328 . S
C1158 C1129 1.427 . S
C1158 H1135 0.929 . S
C1158 C1157 1.328 . S
C1159 O1143 1.264 . S
C1159 O1144 1.243 . S
C1160 C1163 1.399 . S
C1160 C1164 1.383 . S
C1160 C1167 1.496 . S
C1161 C1162 1.399 . S
C1161 C1164 1.389 . S
C1162 C1161 1.399 . S
C1162 C1165 1.380 . S
C1162 H1172 0.929 1_565 S
C1163 C1160 1.399 . S
C1163 C1165 1.392 . S
C1163 H1173 0.929 . S
C1164 C1160 1.383 . S
C1164 C1161 1.389 . S
C1164 H1174 0.931 . S
C1165 C1162 1.380 . S
C1165 C1163 1.392 . S
C1165 H1175 0.911 1_655 S
C1166 O1146 1.266 . S
C1166 O1147 1.248 . S
C1167 Tb1103 2.802 . S
C1167 O1142 1.264 . S
C1167 O1145 1.256 . S
C1167 C1160 1.496 . S
H1168 C1151 0.929 . S
H1169 C1152 0.929 . S
H1170 C1153 0.929 . S
H1171 C1154 0.931 . S
H1172 C1162 0.929 1_545 S
H1173 C1163 0.929 . S
H1174 C1164 0.931 . S
H1175 C1165 0.911 1_455 S
Tb1176 N1205 2.617 . S
Tb1176 N1211 2.572 1_556 S
Tb1176 O1220 2.465 1_556 S
Tb1176 O1221 2.387 . S
Tb1176 O1223 2.428 1_556 S
Tb1176 O1224 2.308 1_556 S
Tb1176 O1228 2.349 . S
Tb1176 O1231 2.393 . S
Tb1176 C1240 2.802 1_556 S
C1177 N1178 1.379 . S
C1177 C1180 1.416 . S
C1177 C1184 1.424 . S
N1178 C1177 1.379 . S
N1178 C1181 1.334 . S
N1178 Tb1187 2.617 . S
C1179 C1181 1.390 . S
C1179 C1182 1.339 . S
C1179 H1199 0.930 . S
C1180 C1177 1.416 . S
C1180 C1182 1.416 . S
C1180 C1186 1.448 . S
C1181 N1178 1.334 . S
C1181 C1179 1.390 . S
C1181 H1192 0.930 . S
C1182 C1179 1.339 . S
C1182 C1180 1.416 . S
C1182 H1203 0.930 . S
C1183 C1184 1.413 . S
C1183 C1185 1.427 . S
C1183 C1189 1.416 . S
C1184 C1177 1.424 . S
C1184 C1183 1.413 . S
C1184 N1188 1.361 . S
C1185 C1183 1.427 . S
C1185 C1186 1.328 . S
C1185 H1200 0.929 . S
C1186 C1180 1.448 . S
C1186 C1185 1.328 . S
C1186 H1201 0.930 . S
Tb1187 N1178 2.617 . S
Tb1187 N1188 2.572 . S
Tb1187 O1222 2.349 . S
Tb1187 O1225 2.393 . S
Tb1187 O1226 2.465 . S
Tb1187 O1227 2.387 . S
Tb1187 O1229 2.428 . S
Tb1187 O1230 2.308 . S
Tb1187 C1251 2.802 . S
N1188 C1184 1.361 . S
N1188 Tb1187 2.572 . S
N1188 C1190 1.340 . S
C1189 C1183 1.416 . S
C1189 C1191 1.332 . S
C1189 H1197 0.931 . S
C1190 N1188 1.340 . S
C1190 C1191 1.407 . S
C1190 H1196 0.930 . S
C1191 C1189 1.332 . S
C1191 C1190 1.407 . S
C1191 H1193 0.929 . S
H1192 C1181 0.930 . S
H1193 C1191 0.929 . S
H1194 C1209 0.930 . S
H1195 C1216 0.929 . S
H1196 C1190 0.930 . S
H1197 C1189 0.931 . S
H1198 C1212 0.930 . S
H1199 C1179 0.930 . S
H1200 C1185 0.929 . S
H1201 C1186 0.930 . S
H1202 C1207 0.930 . S
H1203 C1182 0.930 . S
H1204 C1215 0.931 . S
N1205 Tb1176 2.617 . S
N1205 C1206 1.379 1_556 S
N1205 C1209 1.334 . S
C1206 N1205 1.379 1_554 S
C1206 C1208 1.416 . S
C1206 C1214 1.424 . S
C1207 H1202 0.930 . S
C1207 C1209 1.390 . S
C1207 C1210 1.339 . S
C1208 C1206 1.416 . S
C1208 C1210 1.416 1_554 S
C1208 C1241 1.448 . S
C1209 H1194 0.930 . S
C1209 N1205 1.334 . S
C1209 C1207 1.390 . S
C1210 C1207 1.339 . S
C1210 C1208 1.416 1_556 S
C1210 H1217 0.930 . S
N1211 Tb1176 2.572 1_554 S
N1211 C1212 1.340 . S
N1211 C1214 1.361 . S
C1212 H1198 0.930 . S
C1212 N1211 1.340 . S
C1212 C1216 1.407 . S
C1213 C1214 1.413 . S
C1213 C1215 1.416 . S
C1213 C1242 1.427 . S
C1214 C1206 1.424 . S
C1214 N1211 1.361 . S
C1214 C1213 1.413 . S
C1215 H1204 0.931 . S
C1215 C1213 1.416 . S
C1215 C1216 1.332 . S
C1216 H1195 0.929 . S
C1216 C1212 1.407 . S
C1216 C1215 1.332 . S
H1217 C1210 0.930 . S
H1218 C1241 0.930 . S
H1219 C1242 0.929 . S
O1220 Tb1176 2.465 1_554 S
O1220 C1240 1.264 . S
O1221 Tb1176 2.387 . S
O1221 C1232 1.264 . S
O1222 Tb1187 2.349 . S
O1222 C1232 1.243 . S
O1223 Tb1176 2.428 1_554 S
O1223 C1240 1.256 . S
O1224 Tb1176 2.308 1_554 S
O1224 C1239 1.266 . S
O1225 Tb1187 2.393 . S
O1225 C1239 1.248 1_556 S
O1226 Tb1187 2.465 . S
O1226 C1251 1.264 . S
O1227 Tb1187 2.387 . S
O1227 C1243 1.264 . S
O1228 Tb1176 2.349 . S
O1228 C1243 1.243 . S
O1229 Tb1187 2.428 . S
O1229 C1251 1.256 . S
O1230 Tb1187 2.308 . S
O1230 C1250 1.266 . S
O1231 Tb1176 2.393 . S
O1231 C1250 1.248 . S
C1232 O1221 1.264 . S
C1232 O1222 1.243 . S
C1233 C1236 1.399 . S
C1233 C1238 1.383 . S
C1233 C1240 1.496 . S
C1234 C1235 1.399 . S
C1234 C1238 1.389 . S
C1235 C1234 1.399 . S
C1235 C1237 1.380 . S
C1235 H1252 0.929 . S
C1236 C1233 1.399 . S
C1236 C1237 1.392 . S
C1236 H1253 0.929 . S
C1237 C1235 1.380 . S
C1237 C1236 1.392 . S
C1237 H1254 0.929 . S
C1238 C1233 1.383 . S
C1238 C1234 1.389 . S
C1238 H1255 0.931 . S
C1239 O1224 1.266 . S
C1239 O1225 1.248 1_554 S
C1240 Tb1176 2.802 1_554 S
C1240 O1220 1.264 . S
C1240 O1223 1.256 . S
C1240 C1233 1.496 . S
C1241 C1208 1.448 . S
C1241 H1218 0.930 . S
C1241 C1242 1.328 . S
C1242 C1213 1.427 . S
C1242 H1219 0.929 . S
C1242 C1241 1.328 . S
C1243 O1227 1.264 . S
C1243 O1228 1.243 . S
C1244 C1247 1.399 . S
C1244 C1248 1.383 . S
C1244 C1251 1.496 . S
C1245 C1246 1.399 . S
C1245 C1248 1.389 . S
C1246 C1245 1.399 . S
C1246 C1249 1.380 . S
C1246 H1256 0.929 . S
C1247 C1244 1.399 . S
C1247 C1249 1.392 . S
C1247 H1257 0.929 . S
C1248 C1244 1.383 . S
C1248 C1245 1.389 . S
C1248 H1258 0.931 . S
C1249 C1246 1.380 . S
C1249 C1247 1.392 . S
C1249 H1259 0.929 . S
C1250 O1230 1.266 . S
C1250 O1231 1.248 . S
C1251 Tb1187 2.802 . S
C1251 O1226 1.264 . S
C1251 O1229 1.256 . S
C1251 C1244 1.496 . S
H1252 C1235 0.929 . S
H1253 C1236 0.929 . S
H1254 C1237 0.929 . S
H1255 C1238 0.931 . S
H1256 C1246 0.929 . S
H1257 C1247 0.929 . S
H1258 C1248 0.931 . S
H1259 C1249 0.929 . S
Tb1260 N1289 2.617 . S
Tb1260 N1295 2.572 . S
Tb1260 O1304 2.465 . S
Tb1260 O1305 2.387 . S
Tb1260 O1307 2.428 . S
Tb1260 O1308 2.308 . S
Tb1260 O1312 2.349 . S
Tb1260 O1315 2.393 . S
Tb1260 C1324 2.802 . S
C1261 N1262 1.379 . S
C1261 C1264 1.416 . S
C1261 C1268 1.424 . S
N1262 C1261 1.379 . S
N1262 C1265 1.334 . S
N1262 Tb1271 2.617 . S
C1263 C1265 1.390 . S
C1263 C1266 1.339 . S
C1263 H1283 0.930 . S
C1264 C1261 1.416 . S
C1264 C1266 1.416 . S
C1264 C1270 1.448 . S
C1265 N1262 1.334 . S
C1265 C1263 1.390 . S
C1265 H1276 0.930 . S
C1266 C1263 1.339 . S
C1266 C1264 1.416 . S
C1266 H1287 0.930 . S
C1267 C1268 1.413 . S
C1267 C1269 1.427 . S
C1267 C1273 1.416 . S
C1268 C1261 1.424 . S
C1268 C1267 1.413 . S
C1268 N1272 1.361 . S
C1269 C1267 1.427 . S
C1269 C1270 1.328 . S
C1269 H1284 0.929 . S
C1270 C1264 1.448 . S
C1270 C1269 1.328 . S
C1270 H1285 0.930 . S
Tb1271 N1262 2.617 . S
Tb1271 N1272 2.572 . S
Tb1271 O1306 2.349 . S
Tb1271 O1309 2.393 . S
Tb1271 O1310 2.465 . S
Tb1271 O1311 2.387 . S
Tb1271 O1313 2.428 . S
Tb1271 O1314 2.308 . S
Tb1271 C1335 2.802 . S
N1272 C1268 1.361 . S
N1272 Tb1271 2.572 . S
N1272 C1274 1.340 . S
C1273 C1267 1.416 . S
C1273 C1275 1.332 . S
C1273 H1281 0.931 . S
C1274 N1272 1.340 . S
C1274 C1275 1.407 . S
C1274 H1280 0.930 . S
C1275 C1273 1.332 . S
C1275 C1274 1.407 . S
C1275 H1277 0.929 . S
H1276 C1265 0.930 . S
H1277 C1275 0.929 . S
H1278 C1293 0.930 . S
H1279 C1300 0.929 . S
H1280 C1274 0.930 . S
H1281 C1273 0.931 . S
H1282 C1296 0.930 . S
H1283 C1263 0.930 . S
H1284 C1269 0.929 . S
H1285 C1270 0.930 . S
H1286 C1291 0.930 . S
H1287 C1266 0.930 . S
H1288 C1299 0.931 . S
N1289 Tb1260 2.617 . S
N1289 C1290 1.379 . S
N1289 C1293 1.334 . S
C1290 N1289 1.379 . S
C1290 C1292 1.416 . S
C1290 C1298 1.424 . S
C1291 H1286 0.930 . S
C1291 C1293 1.390 . S
C1291 C1294 1.339 . S
C1292 C1290 1.416 . S
C1292 C1294 1.416 . S
C1292 C1325 1.448 . S
C1293 H1278 0.930 . S
C1293 N1289 1.334 . S
C1293 C1291 1.390 . S
C1294 C1291 1.339 . S
C1294 C1292 1.416 . S
C1294 H1301 0.930 . S
N1295 Tb1260 2.572 . S
N1295 C1296 1.340 . S
N1295 C1298 1.361 . S
C1296 H1282 0.930 . S
C1296 N1295 1.340 . S
C1296 C1300 1.407 . S
C1297 C1298 1.413 . S
C1297 C1299 1.416 . S
C1297 C1326 1.427 . S
C1298 C1290 1.424 . S
C1298 N1295 1.361 . S
C1298 C1297 1.413 . S
C1299 H1288 0.931 . S
C1299 C1297 1.416 . S
C1299 C1300 1.332 . S
C1300 H1279 0.929 . S
C1300 C1296 1.407 . S
C1300 C1299 1.332 . S
H1301 C1294 0.930 . S
H1302 C1325 0.930 . S
H1303 C1326 0.929 . S
O1304 Tb1260 2.465 . S
O1304 C1324 1.264 . S
O1305 Tb1260 2.387 . S
O1305 C1316 1.264 . S
O1306 Tb1271 2.349 . S
O1306 C1316 1.243 . S
O1307 Tb1260 2.428 . S
O1307 C1324 1.256 . S
O1308 Tb1260 2.308 . S
O1308 C1323 1.266 . S
O1309 Tb1271 2.393 . S
O1309 C1323 1.248 . S
O1310 Tb1271 2.465 . S
O1310 C1335 1.264 . S
O1311 Tb1271 2.387 . S
O1311 C1327 1.264 . S
O1312 Tb1260 2.349 . S
O1312 C1327 1.243 . S
O1313 Tb1271 2.428 . S
O1313 C1335 1.256 . S
O1314 Tb1271 2.308 . S
O1314 C1334 1.266 . S
O1315 Tb1260 2.393 . S
O1315 C1334 1.248 . S
C1316 O1305 1.264 . S
C1316 O1306 1.243 . S
C1317 C1320 1.399 . S
C1317 C1322 1.383 . S
C1317 C1324 1.496 . S
C1318 C1319 1.399 . S
C1318 C1322 1.389 . S
C1319 C1318 1.399 . S
C1319 C1321 1.380 . S
C1319 H1336 0.929 . S
C1320 C1317 1.399 . S
C1320 C1321 1.392 . S
C1320 H1337 0.929 . S
C1321 C1319 1.380 . S
C1321 C1320 1.392 . S
C1321 H1338 0.929 . S
C1322 C1317 1.383 . S
C1322 C1318 1.389 . S
C1322 H1339 0.931 . S
C1323 O1308 1.266 . S
C1323 O1309 1.248 . S
C1324 Tb1260 2.802 . S
C1324 O1304 1.264 . S
C1324 O1307 1.256 . S
C1324 C1317 1.496 . S
C1325 C1292 1.448 . S
C1325 H1302 0.930 . S
C1325 C1326 1.328 . S
C1326 C1297 1.427 . S
C1326 H1303 0.929 . S
C1326 C1325 1.328 . S
C1327 O1311 1.264 . S
C1327 O1312 1.243 . S
C1328 C1331 1.399 . S
C1328 C1332 1.383 . S
C1328 C1335 1.496 . S
C1329 C1330 1.399 . S
C1329 C1332 1.389 . S
C1330 C1329 1.399 . S
C1330 C1333 1.380 . S
C1330 H1340 0.929 1_545 S
C1331 C1328 1.399 . S
C1331 C1333 1.392 . S
C1331 H1341 0.929 . S
C1332 C1328 1.383 . S
C1332 C1329 1.389 . S
C1332 H1342 0.931 . S
C1333 C1330 1.380 . S
C1333 C1331 1.392 . S
C1333 H1343 0.929 . S
C1334 O1314 1.266 . S
C1334 O1315 1.248 . S
C1335 Tb1271 2.802 . S
C1335 O1310 1.264 . S
C1335 O1313 1.256 . S
C1335 C1328 1.496 . S
H1336 C1319 0.929 . S
H1337 C1320 0.929 . S
H1338 C1321 0.929 . S
H1339 C1322 0.931 . S
H1340 C1330 0.929 1_565 S
H1341 C1331 0.929 . S
H1342 C1332 0.931 . S
H1343 C1333 0.929 . S
H1344 C1350 0.930 . S
H1345 C1354 0.930 . S
H1346 C1359 0.929 . S
H1347 C1357 0.929 . S
H1348 C1352 0.929 . S
H1349 C1358 0.929 . S
C1350 H1344 0.930 . S
C1350 C1351 1.367 . S
C1350 C1358 1.378 . S
C1351 C1350 1.367 . S
C1351 C1359 1.433 . S
C1352 H1348 0.929 . S
C1352 C1354 1.378 . S
C1352 C1356 1.350 . S
C1353 C1356 1.463 . S
C1353 C1358 1.350 . S
C1353 N1361 1.427 . S
C1354 H1345 0.930 . S
C1354 C1352 1.378 . S
C1354 C1355 1.367 . S
C1355 C1354 1.367 . S
C1355 C1357 1.433 . S
C1356 C1352 1.350 . S
C1356 C1353 1.463 . S
C1356 N1360 1.427 . S
C1357 H1347 0.929 . S
C1357 C1355 1.433 . S
C1357 N1360 1.384 . S
C1358 H1349 0.929 . S
C1358 C1350 1.378 . S
C1358 C1353 1.350 . S
C1359 H1346 0.929 . S
C1359 C1351 1.433 . S
C1359 N1361 1.384 . S
N1360 C1356 1.427 . S
N1360 C1357 1.384 . S
N1361 C1353 1.427 . S
N1361 C1359 1.384 . S
H1362 C1368 0.930 . S
H1363 C1372 0.930 . S
H1364 C1377 0.929 . S
H1365 C1375 0.929 . S
H1366 C1370 0.929 . S
H1367 C1376 0.929 . S
C1368 H1362 0.930 . S
C1368 C1369 1.367 . S
C1368 C1376 1.378 . S
C1369 C1368 1.367 . S
C1369 C1377 1.433 . S
C1370 H1366 0.929 . S
C1370 C1372 1.378 . S
C1370 C1374 1.350 . S
C1371 C1374 1.463 . S
C1371 C1376 1.350 . S
C1371 N1379 1.427 . S
C1372 H1363 0.930 . S
C1372 C1370 1.378 . S
C1372 C1373 1.367 . S
C1373 C1372 1.367 . S
C1373 C1375 1.433 . S
C1374 C1370 1.350 . S
C1374 C1371 1.463 . S
C1374 N1378 1.427 . S
C1375 H1365 0.929 . S
C1375 C1373 1.433 . S
C1375 N1378 1.384 . S
C1376 H1367 0.929 . S
C1376 C1368 1.378 . S
C1376 C1371 1.350 . S
C1377 H1364 0.929 . S
C1377 C1369 1.433 . S
C1377 N1379 1.384 . S
N1378 C1374 1.427 . S
N1378 C1375 1.384 . S
N1379 C1371 1.427 . S
N1379 C1377 1.384 . S
H1380 C1386 0.930 . S
H1381 C1390 0.930 . S
H1382 C1395 0.929 . S
H1383 C1393 0.929 . S
H1384 C1388 0.929 . S
H1385 C1394 0.929 . S
C1386 H1380 0.930 . S
C1386 C1387 1.367 . S
C1386 C1394 1.378 . S
C1387 C1386 1.367 . S
C1387 C1395 1.433 . S
C1388 H1384 0.929 . S
C1388 C1390 1.378 . S
C1388 C1392 1.350 . S
C1389 C1392 1.463 1_455 S
C1389 C1394 1.350 . S
C1389 N1397 1.437 . S
C1390 H1381 0.930 . S
C1390 C1388 1.378 . S
C1390 C1391 1.367 . S
C1391 C1390 1.367 . S
C1391 C1393 1.433 . S
C1392 C1388 1.350 . S
C1392 C1389 1.463 1_655 S
C1392 N1396 1.437 . S
C1393 H1383 0.929 . S
C1393 C1391 1.433 . S
C1393 N1396 1.402 . S
C1394 H1385 0.929 . S
C1394 C1386 1.378 . S
C1394 C1389 1.350 . S
C1395 H1382 0.929 . S
C1395 C1387 1.433 . S
C1395 N1397 1.402 . S
N1396 C1392 1.437 . S
N1396 C1393 1.402 . S
N1397 C1389 1.437 . S
N1397 C1395 1.402 . S
H1398 C1404 0.930 . S
H1399 C1408 0.930 . S
H1400 C1413 0.929 . S
H1401 C1411 0.929 . S
H1402 C1406 0.929 . S
H1403 C1412 0.929 . S
C1404 H1398 0.930 . S
C1404 C1405 1.367 . S
C1404 C1412 1.378 . S
C1405 C1404 1.367 . S
C1405 C1413 1.433 . S
C1406 H1402 0.929 . S
C1406 C1408 1.378 . S
C1406 C1410 1.350 . S
C1407 C1410 1.463 1_655 S
C1407 C1412 1.350 . S
C1407 N1415 1.427 . S
C1408 H1399 0.930 . S
C1408 C1406 1.378 . S
C1408 C1409 1.367 . S
C1409 C1408 1.367 . S
C1409 C1411 1.433 . S
C1410 C1406 1.350 . S
C1410 C1407 1.463 1_455 S
C1410 N1414 1.427 . S
C1411 H1401 0.929 . S
C1411 C1409 1.433 . S
C1411 N1414 1.384 . S
C1412 H1403 0.929 . S
C1412 C1404 1.378 . S
C1412 C1407 1.350 . S
C1413 H1400 0.929 . S
C1413 C1405 1.433 . S
C1413 N1415 1.384 . S
N1414 C1410 1.427 . S
N1414 C1411 1.384 . S
N1415 C1407 1.427 . S
N1415 C1413 1.384 . S
H1416 C1422 0.930 . S
H1417 C1426 0.930 . S
H1418 C1431 0.929 . S
H1419 C1429 0.929 . S
H1420 C1424 0.929 . S
H1421 C1430 0.929 . S
C1422 H1416 0.930 . S
C1422 C1423 1.367 . S
C1422 C1430 1.378 . S
C1423 C1422 1.367 . S
C1423 C1431 1.433 . S
C1424 H1420 0.929 . S
C1424 C1426 1.378 . S
C1424 C1428 1.350 . S
C1425 C1428 1.463 . S
C1425 C1430 1.350 . S
C1425 N1433 1.427 . S
C1426 H1417 0.930 . S
C1426 C1424 1.378 . S
C1426 C1427 1.367 . S
C1427 C1426 1.367 . S
C1427 C1429 1.433 . S
C1428 C1424 1.350 . S
C1428 C1425 1.463 . S
C1428 N1432 1.427 . S
C1429 H1419 0.929 . S
C1429 C1427 1.433 . S
C1429 N1432 1.384 . S
C1430 H1421 0.929 . S
C1430 C1422 1.378 . S
C1430 C1425 1.350 . S
C1431 H1418 0.929 . S
C1431 C1423 1.433 . S
C1431 N1433 1.384 . S
N1432 C1428 1.427 . S
N1432 C1429 1.384 . S
N1433 C1425 1.427 . S
N1433 C1431 1.384 . S
H1434 C1440 0.930 . S
H1435 C1444 0.930 . S
H1436 C1449 0.929 . S
H1437 C1447 0.929 . S
H1438 C1442 0.929 . S
H1439 C1448 0.929 . S
C1440 H1434 0.930 . S
C1440 C1441 1.367 . S
C1440 C1448 1.378 . S
C1441 C1440 1.367 . S
C1441 C1449 1.433 . S
C1442 H1438 0.929 . S
C1442 C1444 1.378 . S
C1442 C1446 1.350 . S
C1443 C1446 1.463 . S
C1443 C1448 1.350 . S
C1443 N1451 1.427 . S
C1444 H1435 0.930 . S
C1444 C1442 1.378 . S
C1444 C1445 1.367 . S
C1445 C1444 1.367 . S
C1445 C1447 1.433 . S
C1446 C1442 1.350 . S
C1446 C1443 1.463 . S
C1446 N1450 1.427 . S
C1447 H1437 0.929 . S
C1447 C1445 1.433 . S
C1447 N1450 1.384 . S
C1448 H1439 0.929 . S
C1448 C1440 1.378 . S
C1448 C1443 1.350 . S
C1449 H1436 0.929 . S
C1449 C1441 1.433 . S
C1449 N1451 1.384 . S
N1450 C1446 1.427 . S
N1450 C1447 1.384 . S
N1451 C1443 1.427 . S
N1451 C1449 1.384 . S
H1452 C1458 0.930 . S
H1453 C1462 0.930 . S
H1454 C1467 0.929 . S
H1455 C1465 0.929 . S
H1456 C1460 0.929 . S
H1457 C1466 0.929 . S
C1458 H1452 0.930 . S
C1458 C1459 1.367 . S
C1458 C1466 1.378 . S
C1459 C1458 1.367 . S
C1459 C1467 1.433 . S
C1460 H1456 0.929 . S
C1460 C1462 1.378 . S
C1460 C1464 1.350 . S
C1461 C1464 1.463 1_655 S
C1461 C1466 1.350 . S
C1461 N1469 1.427 . S
C1462 H1453 0.930 . S
C1462 C1460 1.378 . S
C1462 C1463 1.367 . S
C1463 C1462 1.367 . S
C1463 C1465 1.433 . S
C1464 C1460 1.350 . S
C1464 C1461 1.463 1_455 S
C1464 N1468 1.427 . S
C1465 H1455 0.929 . S
C1465 C1463 1.433 . S
C1465 N1468 1.384 . S
C1466 H1457 0.929 . S
C1466 C1458 1.378 . S
C1466 C1461 1.350 . S
C1467 H1454 0.929 . S
C1467 C1459 1.433 . S
C1467 N1469 1.384 . S
N1468 C1464 1.427 . S
N1468 C1465 1.384 . S
N1469 C1461 1.427 . S
N1469 C1467 1.384 . S
H1470 C1476 0.930 . S
H1471 C1480 0.930 . S
H1472 C1485 0.929 . S
H1473 C1483 0.929 . S
H1474 C1478 0.929 . S
H1475 C1484 0.929 . S
C1476 H1470 0.930 . S
C1476 C1477 1.367 . S
C1476 C1484 1.378 . S
C1477 C1476 1.367 . S
C1477 C1485 1.433 . S
C1478 H1474 0.929 . S
C1478 C1480 1.378 . S
C1478 C1482 1.350 . S
C1479 C1482 1.463 1_455 S
C1479 C1484 1.350 . S
C1479 N1487 1.427 . S
C1480 H1471 0.930 . S
C1480 C1478 1.378 . S
C1480 C1481 1.367 . S
C1481 C1480 1.367 . S
C1481 C1483 1.433 . S
C1482 C1478 1.350 . S
C1482 C1479 1.463 1_655 S
C1482 N1486 1.427 . S
C1483 H1473 0.929 . S
C1483 C1481 1.433 . S
C1483 N1486 1.384 . S
C1484 H1475 0.929 . S
C1484 C1476 1.378 . S
C1484 C1479 1.350 . S
C1485 H1472 0.929 . S
C1485 C1477 1.433 . S
C1485 N1487 1.384 . S
N1486 C1482 1.427 . S
N1486 C1483 1.384 . S
N1487 C1479 1.427 . S
N1487 C1485 1.384 . S
H1488 C1494 0.930 . S
H1489 C1498 0.930 . S
H1490 C1503 0.929 . S
H1491 C1501 0.929 . S
H1492 C1496 0.929 . S
H1493 C1502 0.929 . S
C1494 H1488 0.930 . S
C1494 C1495 1.367 . S
C1494 C1502 1.378 . S
C1495 C1494 1.367 . S
C1495 C1503 1.433 . S
C1496 H1492 0.929 . S
C1496 C1498 1.378 . S
C1496 C1500 1.350 . S
C1497 C1500 1.463 . S
C1497 C1502 1.350 . S
C1497 N1505 1.427 . S
C1498 H1489 0.930 . S
C1498 C1496 1.378 . S
C1498 C1499 1.367 . S
C1499 C1498 1.367 . S
C1499 C1501 1.433 . S
C1500 C1496 1.350 . S
C1500 C1497 1.463 . S
C1500 N1504 1.427 . S
C1501 H1491 0.929 . S
C1501 C1499 1.433 . S
C1501 N1504 1.384 . S
C1502 H1493 0.929 . S
C1502 C1494 1.378 . S
C1502 C1497 1.350 . S
C1503 H1490 0.929 . S
C1503 C1495 1.433 . S
C1503 N1505 1.384 . S
N1504 C1500 1.427 . S
N1504 C1501 1.384 . S
N1505 C1497 1.427 . S
N1505 C1503 1.384 . S
H1506 C1512 0.930 . S
H1507 C1516 0.930 . S
H1508 C1521 0.929 . S
H1509 C1519 0.929 . S
H1510 C1514 0.929 . S
H1511 C1520 0.929 . S
C1512 H1506 0.930 . S
C1512 C1513 1.367 . S
C1512 C1520 1.378 . S
C1513 C1512 1.367 . S
C1513 C1521 1.433 . S
C1514 H1510 0.929 . S
C1514 C1516 1.378 . S
C1514 C1518 1.350 . S
C1515 C1518 1.463 . S
C1515 C1520 1.350 . S
C1515 N1523 1.427 . S
C1516 H1507 0.930 . S
C1516 C1514 1.378 . S
C1516 C1517 1.367 . S
C1517 C1516 1.367 . S
C1517 C1519 1.433 . S
C1518 C1514 1.350 . S
C1518 C1515 1.463 . S
C1518 N1522 1.427 . S
C1519 H1509 0.929 . S
C1519 C1517 1.433 . S
C1519 N1522 1.384 . S
C1520 H1511 0.929 . S
C1520 C1512 1.378 . S
C1520 C1515 1.350 . S
C1521 H1508 0.929 . S
C1521 C1513 1.433 . S
C1521 N1523 1.384 . S
N1522 C1518 1.427 . S
N1522 C1519 1.384 . S
N1523 C1515 1.427 . S
N1523 C1521 1.384 . S
H1524 C1530 0.930 . S
H1525 C1534 0.930 . S
H1526 C1539 0.929 . S
H1527 C1537 0.929 . S
H1528 C1532 0.929 . S
H1529 C1538 0.929 . S
C1530 H1524 0.930 . S
C1530 C1531 1.367 . S
C1530 C1538 1.378 . S
C1531 C1530 1.367 . S
C1531 C1539 1.433 . S
C1532 H1528 0.929 . S
C1532 C1534 1.378 . S
C1532 C1536 1.350 . S
C1533 C1536 1.463 . S
C1533 C1538 1.350 . S
C1533 N1541 1.427 . S
C1534 H1525 0.930 . S
C1534 C1532 1.378 . S
C1534 C1535 1.367 . S
C1535 C1534 1.367 . S
C1535 C1537 1.433 . S
C1536 C1532 1.350 . S
C1536 C1533 1.463 . S
C1536 N1540 1.427 . S
C1537 H1527 0.929 . S
C1537 C1535 1.433 . S
C1537 N1540 1.384 . S
C1538 H1529 0.929 . S
C1538 C1530 1.378 . S
C1538 C1533 1.350 . S
C1539 H1526 0.929 . S
C1539 C1531 1.433 . S
C1539 N1541 1.384 . S
N1540 C1536 1.427 . S
N1540 C1537 1.384 . S
N1541 C1533 1.427 . S
N1541 C1539 1.384 . S
H1542 C1548 0.930 . S
H1543 C1552 0.930 . S
H1544 C1557 0.929 . S
H1545 C1555 0.929 . S
H1546 C1550 0.929 . S
H1547 C1556 0.929 . S
C1548 H1542 0.930 . S
C1548 C1549 1.367 . S
C1548 C1556 1.378 . S
C1549 C1548 1.367 . S
C1549 C1557 1.433 . S
C1550 H1546 0.929 . S
C1550 C1552 1.378 . S
C1550 C1554 1.350 . S
C1551 C1554 1.463 . S
C1551 C1556 1.350 . S
C1551 N1559 1.427 . S
C1552 H1543 0.930 . S
C1552 C1550 1.378 . S
C1552 C1553 1.367 . S
C1553 C1552 1.367 . S
C1553 C1555 1.433 . S
C1554 C1550 1.350 . S
C1554 C1551 1.463 . S
C1554 N1558 1.427 . S
C1555 H1545 0.929 . S
C1555 C1553 1.433 . S
C1555 N1558 1.384 . S
C1556 H1547 0.929 . S
C1556 C1548 1.378 . S
C1556 C1551 1.350 . S
C1557 H1544 0.929 . S
C1557 C1549 1.433 . S
C1557 N1559 1.384 . S
N1558 C1554 1.427 . S
N1558 C1555 1.384 . S
N1559 C1551 1.427 . S
N1559 C1557 1.384 . S
H1560 C1566 0.930 1_556 S
H1561 C1570 0.930 . S
H1562 C1575 0.929 . S
H1563 C1573 0.929 . S
H1564 C1568 0.929 . S
H1565 C1574 0.929 . S
C1566 H1560 0.930 1_554 S
C1566 C1567 1.367 . S
C1566 C1574 1.378 . S
C1567 C1566 1.367 . S
C1567 C1575 1.433 . S
C1568 H1564 0.929 . S
C1568 C1570 1.378 . S
C1568 C1572 1.350 . S
C1569 C1572 1.463 . S
C1569 C1574 1.350 . S
C1569 N1577 1.427 . S
C1570 H1561 0.930 . S
C1570 C1568 1.378 . S
C1570 C1571 1.367 . S
C1571 C1570 1.367 . S
C1571 C1573 1.433 . S
C1572 C1568 1.350 . S
C1572 C1569 1.463 . S
C1572 N1576 1.427 . S
C1573 H1563 0.929 . S
C1573 C1571 1.433 . S
C1573 N1576 1.384 . S
C1574 H1565 0.929 . S
C1574 C1566 1.378 . S
C1574 C1569 1.350 . S
C1575 H1562 0.929 . S
C1575 C1567 1.433 . S
C1575 N1577 1.384 . S
N1576 C1572 1.427 . S
N1576 C1573 1.384 . S
N1577 C1569 1.427 . S
N1577 C1575 1.384 . S
H1578 C1584 0.930 . S
H1579 C1588 0.930 . S
H1580 C1593 0.929 . S
H1581 C1591 0.929 . S
H1582 C1586 0.929 . S
H1583 C1592 0.929 . S
C1584 H1578 0.930 . S
C1584 C1585 1.367 . S
C1584 C1592 1.378 . S
C1585 C1584 1.367 . S
C1585 C1593 1.433 . S
C1586 H1582 0.929 . S
C1586 C1588 1.378 . S
C1586 C1590 1.350 . S
C1587 C1590 1.463 . S
C1587 C1592 1.350 . S
C1587 N1595 1.427 . S
C1588 H1579 0.930 . S
C1588 C1586 1.378 . S
C1588 C1589 1.367 . S
C1589 C1588 1.367 . S
C1589 C1591 1.433 . S
C1590 C1586 1.350 . S
C1590 C1587 1.463 . S
C1590 N1594 1.427 . S
C1591 H1581 0.929 . S
C1591 C1589 1.433 . S
C1591 N1594 1.384 . S
C1592 H1583 0.929 . S
C1592 C1584 1.378 . S
C1592 C1587 1.350 . S
C1593 H1580 0.929 . S
C1593 C1585 1.433 . S
C1593 N1595 1.384 . S
N1594 C1590 1.427 . S
N1594 C1591 1.384 . S
N1595 C1587 1.427 . S
N1595 C1593 1.384 . S
H1596 C1602 0.930 . S
H1597 C1606 0.930 . S
H1598 C1611 0.929 . S
H1599 C1609 0.929 . S
H1600 C1604 0.929 . S
H1601 C1610 0.929 . S
C1602 H1596 0.930 . S
C1602 C1603 1.367 . S
C1602 C1610 1.378 . S
C1603 C1602 1.367 . S
C1603 C1611 1.433 . S
C1604 H1600 0.929 . S
C1604 C1606 1.378 . S
C1604 C1608 1.350 . S
C1605 C1608 1.463 . S
C1605 C1610 1.350 . S
C1605 N1613 1.427 . S
C1606 H1597 0.930 . S
C1606 C1604 1.378 . S
C1606 C1607 1.367 . S
C1607 C1606 1.367 . S
C1607 C1609 1.433 . S
C1608 C1604 1.350 . S
C1608 C1605 1.463 . S
C1608 N1612 1.427 . S
C1609 H1599 0.929 . S
C1609 C1607 1.433 . S
C1609 N1612 1.384 . S
C1610 H1601 0.929 . S
C1610 C1602 1.378 . S
C1610 C1605 1.350 . S
C1611 H1598 0.929 . S
C1611 C1603 1.433 . S
C1611 N1613 1.384 . S
N1612 C1608 1.427 . S
N1612 C1609 1.384 . S
N1613 C1605 1.427 . S
N1613 C1611 1.384 . S
H1614 C1620 0.930 . S
H1615 C1624 0.930 . S
H1616 C1629 0.929 . S
H1617 C1627 0.929 . S
H1618 C1622 0.929 . S
H1619 C1628 0.929 . S
C1620 H1614 0.930 . S
C1620 C1621 1.367 . S
C1620 C1628 1.378 . S
C1621 C1620 1.367 . S
C1621 C1629 1.433 . S
C1622 H1618 0.929 . S
C1622 C1624 1.378 . S
C1622 C1626 1.350 . S
C1623 C1626 1.463 . S
C1623 C1628 1.350 . S
C1623 N1631 1.427 . S
C1624 H1615 0.930 . S
C1624 C1622 1.378 . S
C1624 C1625 1.367 . S
C1625 C1624 1.367 . S
C1625 C1627 1.433 . S
C1626 C1622 1.350 . S
C1626 C1623 1.463 . S
C1626 N1630 1.427 . S
C1627 H1617 0.929 . S
C1627 C1625 1.433 . S
C1627 N1630 1.384 . S
C1628 H1619 0.929 . S
C1628 C1620 1.378 . S
C1628 C1623 1.350 . S
C1629 H1616 0.929 . S
C1629 C1621 1.433 . S
C1629 N1631 1.384 . S
N1630 C1626 1.427 . S
N1630 C1627 1.384 . S
N1631 C1623 1.427 . S
N1631 C1629 1.384 . S
H1632 C1638 0.930 . S
H1633 C1642 0.930 . S
H1634 C1647 0.929 . S
H1635 C1645 0.929 . S
H1636 C1640 0.929 . S
H1637 C1646 0.929 . S
C1638 H1632 0.930 . S
C1638 C1639 1.367 . S
C1638 C1646 1.378 . S
C1639 C1638 1.367 . S
C1639 C1647 1.433 . S
C1640 H1636 0.929 . S
C1640 C1642 1.378 . S
C1640 C1644 1.350 . S
C1641 C1644 1.463 . S
C1641 C1646 1.350 . S
C1641 N1649 1.427 . S
C1642 H1633 0.930 . S
C1642 C1640 1.378 . S
C1642 C1643 1.367 . S
C1643 C1642 1.367 . S
C1643 C1645 1.433 . S
C1644 C1640 1.350 . S
C1644 C1641 1.463 . S
C1644 N1648 1.427 . S
C1645 H1635 0.929 . S
C1645 C1643 1.433 . S
C1645 N1648 1.384 . S
C1646 H1637 0.929 . S
C1646 C1638 1.378 . S
C1646 C1641 1.350 . S
C1647 H1634 0.929 . S
C1647 C1639 1.433 . S
C1647 N1649 1.384 . S
N1648 C1644 1.427 . S
N1648 C1645 1.384 . S
N1649 C1641 1.427 . S
N1649 C1647 1.384 . S
H1650 C1656 0.930 . S
H1651 C1660 0.930 . S
H1652 C1665 0.929 . S
H1653 C1663 0.929 . S
H1654 C1658 0.929 . S
H1655 C1664 0.929 . S
C1656 H1650 0.930 . S
C1656 C1657 1.367 . S
C1656 C1664 1.378 1_545 S
C1657 C1656 1.367 . S
C1657 C1665 1.433 . S
C1658 H1654 0.929 . S
C1658 C1660 1.378 . S
C1658 C1662 1.350 . S
C1659 C1662 1.463 . S
C1659 C1664 1.350 . S
C1659 N1667 1.453 . S
C1660 H1651 0.930 . S
C1660 C1658 1.378 . S
C1660 C1661 1.367 . S
C1661 C1660 1.367 . S
C1661 C1663 1.433 . S
C1662 C1658 1.350 . S
C1662 C1659 1.463 . S
C1662 N1666 1.427 . S
C1663 H1653 0.929 . S
C1663 C1661 1.433 . S
C1663 N1666 1.384 . S
C1664 H1655 0.929 . S
C1664 C1656 1.378 1_565 S
C1664 C1659 1.350 . S
C1665 H1652 0.929 . S
C1665 C1657 1.433 . S
C1665 N1667 1.348 1_545 S
N1666 C1662 1.427 . S
N1666 C1663 1.384 . S
N1667 C1659 1.453 . S
N1667 C1665 1.348 1_565 S
H1668 C1674 0.930 . S
H1669 C1678 0.930 . S
H1670 C1683 0.929 . S
H1671 C1681 0.929 . S
H1672 C1676 0.929 . S
H1673 C1682 0.929 . S
C1674 H1668 0.930 . S
C1674 C1675 1.367 . S
C1674 C1682 1.378 . S
C1675 C1674 1.367 . S
C1675 C1683 1.433 . S
C1676 H1672 0.929 . S
C1676 C1678 1.378 . S
C1676 C1680 1.350 . S
C1677 C1680 1.463 . S
C1677 C1682 1.350 . S
C1677 N1685 1.427 . S
C1678 H1669 0.930 . S
C1678 C1676 1.378 . S
C1678 C1679 1.367 . S
C1679 C1678 1.367 . S
C1679 C1681 1.433 . S
C1680 C1676 1.350 . S
C1680 C1677 1.463 . S
C1680 N1684 1.427 . S
C1681 H1671 0.929 . S
C1681 C1679 1.433 . S
C1681 N1684 1.384 . S
C1682 H1673 0.929 . S
C1682 C1674 1.378 . S
C1682 C1677 1.350 . S
C1683 H1670 0.929 . S
C1683 C1675 1.433 . S
C1683 N1685 1.384 . S
N1684 C1680 1.427 . S
N1684 C1681 1.384 . S
N1685 C1677 1.427 . S
N1685 C1683 1.384 . S
H1686 C1692 0.927 1_545 S
H1687 C1696 0.930 . S
H1688 C1701 0.929 . S
H1689 C1699 0.929 . S
H1690 C1694 0.929 . S
H1691 C1700 0.929 . S
C1692 H1686 0.927 1_565 S
C1692 C1693 1.397 . S
C1692 C1700 1.351 1_565 S
C1693 C1692 1.397 . S
C1693 C1701 1.433 . S
C1694 H1690 0.929 . S
C1694 C1696 1.378 . S
C1694 C1698 1.350 . S
C1695 C1698 1.463 . S
C1695 C1700 1.350 . S
C1695 N1703 1.427 1_545 S
C1696 H1687 0.930 . S
C1696 C1694 1.378 . S
C1696 C1697 1.367 . S
C1697 C1696 1.367 . S
C1697 C1699 1.433 . S
C1698 C1694 1.350 . S
C1698 C1695 1.463 . S
C1698 N1702 1.427 . S
C1699 H1689 0.929 . S
C1699 C1697 1.433 . S
C1699 N1702 1.384 . S
C1700 H1691 0.929 . S
C1700 C1692 1.351 1_545 S
C1700 C1695 1.350 . S
C1701 H1688 0.929 . S
C1701 C1693 1.433 . S
C1701 N1703 1.384 . S
N1702 C1698 1.427 . S
N1702 C1699 1.384 . S
N1703 C1695 1.427 1_565 S
N1703 C1701 1.384 . S
H1704 C1710 0.930 . S
H1705 C1714 0.930 . S
H1706 C1719 0.929 . S
H1707 C1717 0.929 . S
H1708 C1712 0.929 . S
H1709 C1718 0.929 . S
C1710 H1704 0.930 . S
C1710 C1711 1.367 . S
C1710 C1718 1.378 . S
C1711 C1710 1.367 . S
C1711 C1719 1.433 . S
C1712 H1708 0.929 . S
C1712 C1714 1.378 . S
C1712 C1716 1.350 . S
C1713 C1716 1.463 . S
C1713 C1718 1.350 . S
C1713 N1721 1.427 . S
C1714 H1705 0.930 . S
C1714 C1712 1.378 . S
C1714 C1715 1.367 . S
C1715 C1714 1.367 . S
C1715 C1717 1.433 . S
C1716 C1712 1.350 . S
C1716 C1713 1.463 . S
C1716 N1720 1.427 . S
C1717 H1707 0.929 . S
C1717 C1715 1.433 . S
C1717 N1720 1.384 . S
C1718 H1709 0.929 . S
C1718 C1710 1.378 . S
C1718 C1713 1.350 . S
C1719 H1706 0.929 . S
C1719 C1711 1.433 . S
C1719 N1721 1.384 . S
N1720 C1716 1.427 . S
N1720 C1717 1.384 . S
N1721 C1713 1.427 . S
N1721 C1719 1.384 . S
H1722 C1728 0.930 . S
H1723 C1732 0.930 . S
H1724 C1737 0.929 . S
H1725 C1735 0.929 . S
H1726 C1730 0.929 . S
H1727 C1736 0.929 . S
C1728 H1722 0.930 . S
C1728 C1729 1.367 . S
C1728 C1736 1.378 . S
C1729 C1728 1.367 . S
C1729 C1737 1.433 . S
C1730 H1726 0.929 . S
C1730 C1732 1.378 1_545 S
C1730 C1734 1.350 . S
C1731 C1734 1.463 . S
C1731 C1736 1.350 . S
C1731 N1739 1.427 . S
C1732 H1723 0.930 . S
C1732 C1730 1.378 1_565 S
C1732 C1733 1.367 . S
C1733 C1732 1.367 . S
C1733 C1735 1.433 . S
C1734 C1730 1.350 . S
C1734 C1731 1.463 . S
C1734 N1738 1.427 . S
C1735 H1725 0.929 . S
C1735 C1733 1.433 . S
C1735 N1738 1.384 1_565 S
C1736 H1727 0.929 . S
C1736 C1728 1.378 . S
C1736 C1731 1.350 . S
C1737 H1724 0.929 . S
C1737 C1729 1.433 . S
C1737 N1739 1.384 . S
N1738 C1734 1.427 . S
N1738 C1735 1.384 1_545 S
N1739 C1731 1.427 . S
N1739 C1737 1.384 . S
H1740 C1746 0.930 . S
H1741 C1750 0.930 . S
H1742 C1755 0.929 . S
H1743 C1753 0.929 1_556 S
H1744 C1748 0.929 . S
H1745 C1754 0.929 . S
C1746 H1740 0.930 . S
C1746 C1747 1.367 . S
C1746 C1754 1.378 . S
C1747 C1746 1.367 . S
C1747 C1755 1.433 . S
C1748 H1744 0.929 . S
C1748 C1750 1.378 . S
C1748 C1752 1.350 . S
C1749 C1752 1.463 . S
C1749 C1754 1.350 . S
C1749 N1757 1.427 . S
C1750 H1741 0.930 . S
C1750 C1748 1.378 . S
C1750 C1751 1.367 . S
C1751 C1750 1.367 . S
C1751 C1753 1.433 . S
C1752 C1748 1.350 . S
C1752 C1749 1.463 . S
C1752 N1756 1.427 . S
C1753 H1743 0.929 1_554 S
C1753 C1751 1.433 . S
C1753 N1756 1.384 . S
C1754 H1745 0.929 . S
C1754 C1746 1.378 . S
C1754 C1749 1.350 . S
C1755 H1742 0.929 . S
C1755 C1747 1.433 . S
C1755 N1757 1.384 . S
N1756 C1752 1.427 . S
N1756 C1753 1.384 . S
N1757 C1749 1.427 . S
N1757 C1755 1.384 . S
H1758 C1764 0.930 . S
H1759 C1768 0.930 . S
H1760 C1773 0.929 . S
H1761 C1771 0.929 . S
H1762 C1766 0.929 . S
H1763 C1772 0.929 . S
C1764 H1758 0.930 . S
C1764 C1765 1.367 . S
C1764 C1772 1.378 . S
C1765 C1764 1.367 . S
C1765 C1773 1.433 . S
C1766 H1762 0.929 . S
C1766 C1768 1.378 . S
C1766 C1770 1.350 . S
C1767 C1770 1.463 . S
C1767 C1772 1.350 1_565 S
C1767 N1775 1.427 . S
C1768 H1759 0.930 . S
C1768 C1766 1.378 . S
C1768 C1769 1.367 . S
C1769 C1768 1.367 . S
C1769 C1771 1.433 . S
C1770 C1766 1.350 . S
C1770 C1767 1.463 . S
C1770 N1774 1.427 . S
C1771 H1761 0.929 . S
C1771 C1769 1.433 . S
C1771 N1774 1.384 . S
C1772 H1763 0.929 . S
C1772 C1764 1.378 . S
C1772 C1767 1.350 1_545 S
C1773 H1760 0.929 . S
C1773 C1765 1.433 . S
C1773 N1775 1.384 1_545 S
N1774 C1770 1.427 . S
N1774 C1771 1.384 . S
N1775 C1767 1.427 . S
N1775 C1773 1.384 1_565 S
H1776 C1782 0.930 . S
H1777 C1786 0.930 . S
H1778 C1791 0.929 . S
H1779 C1789 0.929 . S
H1780 C1784 0.929 . S
H1781 C1790 0.929 . S
C1782 H1776 0.930 . S
C1782 C1783 1.367 . S
C1782 C1790 1.378 . S
C1783 C1782 1.367 . S
C1783 C1791 1.433 . S
C1784 H1780 0.929 . S
C1784 C1786 1.378 . S
C1784 C1788 1.350 . S
C1785 C1788 1.463 . S
C1785 C1790 1.350 . S
C1785 N1793 1.427 . S
C1786 H1777 0.930 . S
C1786 C1784 1.378 . S
C1786 C1787 1.367 . S
C1787 C1786 1.367 . S
C1787 C1789 1.433 . S
C1788 C1784 1.350 . S
C1788 C1785 1.463 . S
C1788 N1792 1.427 . S
C1789 H1779 0.929 . S
C1789 C1787 1.433 . S
C1789 N1792 1.384 . S
C1790 H1781 0.929 . S
C1790 C1782 1.378 . S
C1790 C1785 1.350 . S
C1791 H1778 0.929 . S
C1791 C1783 1.433 . S
C1791 N1793 1.384 . S
N1792 C1788 1.427 . S
N1792 C1789 1.384 . S
N1793 C1785 1.427 . S
N1793 C1791 1.384 . S
H1794 C1800 0.930 . S
H1795 C1804 0.930 . S
H1796 C1809 0.929 . S
H1797 C1807 0.929 . S
H1798 C1802 0.929 . S
H1799 C1808 0.929 . S
C1800 H1794 0.930 . S
C1800 C1801 1.367 . S
C1800 C1808 1.378 . S
C1801 C1800 1.367 . S
C1801 C1809 1.433 . S
C1802 H1798 0.929 . S
C1802 C1804 1.378 . S
C1802 C1806 1.350 . S
C1803 C1806 1.463 . S
C1803 C1808 1.350 . S
C1803 N1811 1.427 . S
C1804 H1795 0.930 . S
C1804 C1802 1.378 . S
C1804 C1805 1.367 . S
C1805 C1804 1.367 . S
C1805 C1807 1.433 . S
C1806 C1802 1.350 . S
C1806 C1803 1.463 . S
C1806 N1810 1.427 . S
C1807 H1797 0.929 . S
C1807 C1805 1.433 . S
C1807 N1810 1.384 . S
C1808 H1799 0.929 . S
C1808 C1800 1.378 . S
C1808 C1803 1.350 . S
C1809 H1796 0.929 . S
C1809 C1801 1.433 . S
C1809 N1811 1.384 . S
N1810 C1806 1.427 . S
N1810 C1807 1.384 . S
N1811 C1803 1.427 . S
N1811 C1809 1.384 . S
H1812 C1818 0.930 . S
H1813 C1822 0.930 1_655 S
H1814 C1827 0.929 . S
H1815 C1825 0.929 . S
H1816 C1820 0.929 . S
H1817 C1826 0.929 . S
C1818 H1812 0.930 . S
C1818 C1819 1.367 . S
C1818 C1826 1.378 . S
C1819 C1818 1.367 . S
C1819 C1827 1.433 . S
C1820 H1816 0.929 . S
C1820 C1822 1.380 1_655 S
C1820 C1824 1.350 . S
C1821 C1824 1.463 . S
C1821 C1826 1.350 . S
C1821 N1829 1.427 . S
C1822 H1813 0.930 1_455 S
C1822 C1820 1.380 1_455 S
C1822 C1823 1.364 . S
C1823 C1822 1.364 . S
C1823 C1825 1.433 . S
C1824 C1820 1.350 . S
C1824 C1821 1.463 . S
C1824 N1828 1.427 1_655 S
C1825 H1815 0.929 . S
C1825 C1823 1.433 . S
C1825 N1828 1.384 . S
C1826 H1817 0.929 . S
C1826 C1818 1.378 . S
C1826 C1821 1.350 . S
C1827 H1814 0.929 . S
C1827 C1819 1.433 . S
C1827 N1829 1.384 . S
N1828 C1824 1.427 1_455 S
N1828 C1825 1.384 . S
N1829 C1821 1.427 . S
N1829 C1827 1.384 . S
H1830 C1836 0.930 . S
H1831 C1840 0.930 . S
H1832 C1845 0.929 . S
H1833 C1843 0.929 . S
H1834 C1838 0.929 . S
H1835 C1844 0.929 . S
C1836 H1830 0.930 . S
C1836 C1837 1.367 . S
C1836 C1844 1.378 . S
C1837 C1836 1.367 . S
C1837 C1845 1.433 . S
C1838 H1834 0.929 . S
C1838 C1840 1.378 . S
C1838 C1842 1.350 . S
C1839 C1842 1.463 . S
C1839 C1844 1.350 . S
C1839 N1847 1.427 . S
C1840 H1831 0.930 . S
C1840 C1838 1.378 . S
C1840 C1841 1.367 . S
C1841 C1840 1.367 . S
C1841 C1843 1.433 . S
C1842 C1838 1.350 . S
C1842 C1839 1.463 . S
C1842 N1846 1.427 . S
C1843 H1833 0.929 . S
C1843 C1841 1.433 . S
C1843 N1846 1.384 . S
C1844 H1835 0.929 . S
C1844 C1836 1.378 . S
C1844 C1839 1.350 . S
C1845 H1832 0.929 . S
C1845 C1837 1.433 . S
C1845 N1847 1.384 . S
N1846 C1842 1.427 . S
N1846 C1843 1.384 . S
N1847 C1839 1.427 . S
N1847 C1845 1.384 . S
H1848 C1854 0.930 . S
H1849 C1858 0.930 . S
H1850 C1863 0.929 . S
H1851 C1861 0.929 . S
H1852 C1856 0.929 . S
H1853 C1862 0.929 . S
C1854 H1848 0.930 . S
C1854 C1855 1.367 . S
C1854 C1862 1.378 . S
C1855 C1854 1.367 . S
C1855 C1863 1.433 . S
C1856 H1852 0.929 . S
C1856 C1858 1.378 . S
C1856 C1860 1.350 . S
C1857 C1860 1.463 . S
C1857 C1862 1.350 . S
C1857 N1865 1.427 . S
C1858 H1849 0.930 . S
C1858 C1856 1.378 . S
C1858 C1859 1.367 . S
C1859 C1858 1.367 . S
C1859 C1861 1.433 . S
C1860 C1856 1.350 . S
C1860 C1857 1.463 . S
C1860 N1864 1.427 . S
C1861 H1851 0.929 . S
C1861 C1859 1.433 . S
C1861 N1864 1.384 . S
C1862 H1853 0.929 . S
C1862 C1854 1.378 . S
C1862 C1857 1.350 . S
C1863 H1850 0.929 . S
C1863 C1855 1.433 . S
C1863 N1865 1.384 . S
N1864 C1860 1.427 . S
N1864 C1861 1.384 . S
N1865 C1857 1.427 . S
N1865 C1863 1.384 . S
H1866 C1872 0.930 . S
H1867 C1876 0.930 1_554 S
H1868 C1881 0.929 . S
H1869 C1879 0.929 . S
H1870 C1874 0.929 . S
H1871 C1880 0.929 . S
C1872 H1866 0.930 . S
C1872 C1873 1.367 . S
C1872 C1880 1.378 . S
C1873 C1872 1.367 . S
C1873 C1881 1.433 . S
C1874 H1870 0.929 . S
C1874 C1876 1.378 . S
C1874 C1878 1.350 . S
C1875 C1878 1.463 . S
C1875 C1880 1.350 . S
C1875 N1883 1.427 . S
C1876 H1867 0.930 1_556 S
C1876 C1874 1.378 . S
C1876 C1877 1.367 . S
C1877 C1876 1.367 . S
C1877 C1879 1.433 . S
C1878 C1874 1.350 . S
C1878 C1875 1.463 . S
C1878 N1882 1.427 . S
C1879 H1869 0.929 . S
C1879 C1877 1.433 . S
C1879 N1882 1.384 . S
C1880 H1871 0.929 . S
C1880 C1872 1.378 . S
C1880 C1875 1.350 . S
C1881 H1868 0.929 . S
C1881 C1873 1.433 . S
C1881 N1883 1.384 . S
N1882 C1878 1.427 . S
N1882 C1879 1.384 . S
N1883 C1875 1.427 . S
N1883 C1881 1.384 . S
H1884 C1890 0.930 . S
H1885 C1894 0.930 . S
H1886 C1899 0.929 . S
H1887 C1897 0.929 . S
H1888 C1892 0.929 . S
H1889 C1898 0.929 . S
C1890 H1884 0.930 . S
C1890 C1891 1.367 . S
C1890 C1898 1.378 . S
C1891 C1890 1.367 . S
C1891 C1899 1.433 . S
C1892 H1888 0.929 . S
C1892 C1894 1.378 1_455 S
C1892 C1896 1.350 . S
C1893 C1896 1.463 . S
C1893 C1898 1.350 . S
C1893 N1901 1.427 . S
C1894 H1885 0.930 . S
C1894 C1892 1.378 1_655 S
C1894 C1895 1.367 . S
C1895 C1894 1.367 . S
C1895 C1897 1.433 . S
C1896 C1892 1.350 . S
C1896 C1893 1.463 . S
C1896 N1900 1.427 . S
C1897 H1887 0.929 . S
C1897 C1895 1.433 . S
C1897 N1900 1.384 1_655 S
C1898 H1889 0.929 . S
C1898 C1890 1.378 . S
C1898 C1893 1.350 . S
C1899 H1886 0.929 . S
C1899 C1891 1.433 . S
C1899 N1901 1.384 . S
N1900 C1896 1.427 . S
N1900 C1897 1.384 1_455 S
N1901 C1893 1.427 . S
N1901 C1899 1.384 . S
H1902 C1908 0.930 . S
H1903 C1912 0.930 . S
H1904 C1917 0.929 . S
H1905 C1915 0.929 . S
H1906 C1910 0.929 . S
H1907 C1916 0.929 . S
C1908 H1902 0.930 . S
C1908 C1909 1.367 . S
C1908 C1916 1.378 . S
C1909 C1908 1.367 . S
C1909 C1917 1.433 . S
C1910 H1906 0.929 . S
C1910 C1912 1.378 . S
C1910 C1914 1.350 . S
C1911 C1914 1.463 . S
C1911 C1916 1.350 . S
C1911 N1919 1.427 . S
C1912 H1903 0.930 . S
C1912 C1910 1.378 . S
C1912 C1913 1.367 . S
C1913 C1912 1.367 . S
C1913 C1915 1.433 . S
C1914 C1910 1.350 . S
C1914 C1911 1.463 . S
C1914 N1918 1.427 . S
C1915 H1905 0.929 . S
C1915 C1913 1.433 . S
C1915 N1918 1.384 . S
C1916 H1907 0.929 . S
C1916 C1908 1.378 . S
C1916 C1911 1.350 . S
C1917 H1904 0.929 . S
C1917 C1909 1.433 . S
C1917 N1919 1.384 . S
N1918 C1914 1.427 . S
N1918 C1915 1.384 . S
N1919 C1911 1.427 . S
N1919 C1917 1.384 . S
H1920 C1926 0.930 . S
H1921 C1930 0.930 . S
H1922 C1935 0.929 . S
H1923 C1933 0.929 . S
H1924 C1928 0.929 . S
H1925 C1934 0.929 . S
C1926 H1920 0.930 . S
C1926 C1927 1.367 1_455 S
C1926 C1934 1.378 . S
C1927 C1926 1.367 1_655 S
C1927 C1935 1.433 . S
C1928 H1924 0.929 . S
C1928 C1930 1.378 . S
C1928 C1932 1.350 . S
C1929 C1932 1.463 . S
C1929 C1934 1.350 . S
C1929 N1937 1.427 1_455 S
C1930 H1921 0.930 . S
C1930 C1928 1.378 . S
C1930 C1931 1.367 . S
C1931 C1930 1.367 . S
C1931 C1933 1.433 . S
C1932 C1928 1.350 . S
C1932 C1929 1.463 . S
C1932 N1936 1.427 . S
C1933 H1923 0.929 . S
C1933 C1931 1.433 . S
C1933 N1936 1.384 . S
C1934 H1925 0.929 . S
C1934 C1926 1.378 . S
C1934 C1929 1.350 . S
C1935 H1922 0.929 . S
C1935 C1927 1.433 . S
C1935 N1937 1.384 . S
N1936 C1932 1.427 . S
N1936 C1933 1.384 . S
N1937 C1929 1.427 1_655 S
N1937 C1935 1.384 . S
H1938 C1944 0.930 . S
H1939 C1948 0.930 . S
H1940 C1953 0.929 . S
H1941 C1951 0.929 . S
H1942 C1946 0.929 . S
H1943 C1952 0.929 . S
C1944 H1938 0.930 . S
C1944 C1945 1.367 . S
C1944 C1952 1.378 . S
C1945 C1944 1.367 . S
C1945 C1953 1.433 . S
C1946 H1942 0.929 . S
C1946 C1948 1.378 . S
C1946 C1950 1.350 . S
C1947 C1950 1.463 . S
C1947 C1952 1.350 . S
C1947 N1955 1.427 . S
C1948 H1939 0.930 . S
C1948 C1946 1.378 . S
C1948 C1949 1.367 . S
C1949 C1948 1.367 . S
C1949 C1951 1.433 . S
C1950 C1946 1.350 . S
C1950 C1947 1.463 . S
C1950 N1954 1.427 . S
C1951 H1941 0.929 . S
C1951 C1949 1.433 . S
C1951 N1954 1.384 . S
C1952 H1943 0.929 . S
C1952 C1944 1.378 . S
C1952 C1947 1.350 . S
C1953 H1940 0.929 . S
C1953 C1945 1.433 . S
C1953 N1955 1.384 . S
N1954 C1950 1.427 . S
N1954 C1951 1.384 . S
N1955 C1947 1.427 . S
N1955 C1953 1.384 . S
H1956 C1962 0.930 . S
H1957 C1966 0.930 . S
H1958 C1971 0.929 . S
H1959 C1969 0.929 . S
H1960 C1964 0.929 . S
H1961 C1970 0.929 . S
C1962 H1956 0.930 . S
C1962 C1963 1.367 . S
C1962 C1970 1.378 . S
C1963 C1962 1.367 . S
C1963 C1971 1.433 . S
C1964 H1960 0.929 . S
C1964 C1966 1.378 . S
C1964 C1968 1.350 . S
C1965 C1968 1.463 . S
C1965 C1970 1.350 . S
C1965 N1973 1.427 . S
C1966 H1957 0.930 . S
C1966 C1964 1.378 . S
C1966 C1967 1.367 . S
C1967 C1966 1.367 . S
C1967 C1969 1.433 . S
C1968 C1964 1.350 . S
C1968 C1965 1.463 . S
C1968 N1972 1.427 . S
C1969 H1959 0.929 . S
C1969 C1967 1.433 . S
C1969 N1972 1.384 . S
C1970 H1961 0.929 . S
C1970 C1962 1.378 . S
C1970 C1965 1.350 . S
C1971 H1958 0.929 . S
C1971 C1963 1.433 . S
C1971 N1973 1.384 . S
N1972 C1968 1.427 . S
N1972 C1969 1.384 . S
N1973 C1965 1.427 . S
N1973 C1971 1.384 . S
H1974 C1980 0.930 1_556 S
H1975 C1984 0.930 . S
H1976 C1989 0.929 . S
H1977 C1987 0.929 . S
H1978 C1982 0.929 . S
H1979 C1988 0.929 . S
C1980 H1974 0.930 1_554 S
C1980 C1981 1.367 . S
C1980 C1988 1.378 . S
C1981 C1980 1.367 . S
C1981 C1989 1.433 . S
C1982 H1978 0.929 . S
C1982 C1984 1.378 . S
C1982 C1986 1.350 . S
C1983 C1986 1.463 . S
C1983 C1988 1.350 . S
C1983 N1991 1.427 . S
C1984 H1975 0.930 . S
C1984 C1982 1.378 . S
C1984 C1985 1.367 . S
C1985 C1984 1.367 . S
C1985 C1987 1.433 . S
C1986 C1982 1.350 . S
C1986 C1983 1.463 . S
C1986 N1990 1.427 . S
C1987 H1977 0.929 . S
C1987 C1985 1.433 . S
C1987 N1990 1.384 . S
C1988 H1979 0.929 . S
C1988 C1980 1.378 . S
C1988 C1983 1.350 . S
C1989 H1976 0.929 . S
C1989 C1981 1.433 . S
C1989 N1991 1.384 . S
N1990 C1986 1.427 . S
N1990 C1987 1.384 . S
N1991 C1983 1.427 . S
N1991 C1989 1.384 . S
H1992 C1998 0.930 . S
H1993 C2002 0.930 . S
H1994 C2007 0.929 . S
H1995 C2005 0.929 . S
H1996 C2000 0.929 . S
H1997 C2006 0.929 . S
C1998 H1992 0.930 . S
C1998 C1999 1.367 . S
C1998 C2006 1.378 . S
C1999 C1998 1.367 . S
C1999 C2007 1.433 1_455 S
C2000 H1996 0.929 . S
C2000 C2002 1.378 . S
C2000 C2004 1.350 . S
C2001 C2004 1.463 . S
C2001 C2006 1.350 1_655 S
C2001 N2009 1.427 . S
C2002 H1993 0.930 . S
C2002 C2000 1.378 . S
C2002 C2003 1.367 . S
C2003 C2002 1.367 . S
C2003 C2005 1.433 . S
C2004 C2000 1.350 . S
C2004 C2001 1.463 . S
C2004 N2008 1.427 . S
C2005 H1995 0.929 . S
C2005 C2003 1.433 . S
C2005 N2008 1.384 . S
C2006 H1997 0.929 . S
C2006 C1998 1.378 . S
C2006 C2001 1.350 1_455 S
C2007 H1994 0.929 . S
C2007 C1999 1.433 1_655 S
C2007 N2009 1.384 . S
N2008 C2004 1.427 . S
N2008 C2005 1.384 . S
N2009 C2001 1.427 . S
N2009 C2007 1.384 . S
H2010 C2016 0.930 . S
H2011 C2020 0.930 . S
H2012 C2025 0.929 . S
H2013 C2023 0.929 . S
H2014 C2018 0.929 . S
H2015 C2024 0.929 . S
C2016 H2010 0.930 . S
C2016 C2017 1.367 . S
C2016 C2024 1.378 . S
C2017 C2016 1.367 . S
C2017 C2025 1.433 . S
C2018 H2014 0.929 . S
C2018 C2020 1.378 . S
C2018 C2022 1.350 . S
C2019 C2022 1.463 . S
C2019 C2024 1.350 . S
C2019 N2027 1.427 . S
C2020 H2011 0.930 . S
C2020 C2018 1.378 . S
C2020 C2021 1.367 . S
C2021 C2020 1.367 . S
C2021 C2023 1.433 . S
C2022 C2018 1.350 . S
C2022 C2019 1.463 . S
C2022 N2026 1.427 . S
C2023 H2013 0.929 . S
C2023 C2021 1.433 . S
C2023 N2026 1.384 . S
C2024 H2015 0.929 . S
C2024 C2016 1.378 . S
C2024 C2019 1.350 . S
C2025 H2012 0.929 . S
C2025 C2017 1.433 . S
C2025 N2027 1.384 . S
N2026 C2022 1.427 . S
N2026 C2023 1.384 . S
N2027 C2019 1.427 . S
N2027 C2025 1.384 . S
H2028 C2034 0.930 . S
H2029 C2038 0.930 . S
H2030 C2043 0.929 . S
H2031 C2041 0.929 . S
H2032 C2036 0.929 . S
H2033 C2042 0.929 . S
C2034 H2028 0.930 . S
C2034 C2035 1.367 . S
C2034 C2042 1.378 . S
C2035 C2034 1.367 . S
C2035 C2043 1.433 . S
C2036 H2032 0.929 . S
C2036 C2038 1.378 . S
C2036 C2040 1.350 . S
C2037 C2040 1.463 . S
C2037 C2042 1.350 . S
C2037 N2045 1.427 . S
C2038 H2029 0.930 . S
C2038 C2036 1.378 . S
C2038 C2039 1.367 . S
C2039 C2038 1.367 . S
C2039 C2041 1.433 . S
C2040 C2036 1.350 . S
C2040 C2037 1.463 . S
C2040 N2044 1.427 . S
C2041 H2031 0.929 . S
C2041 C2039 1.433 . S
C2041 N2044 1.384 . S
C2042 H2033 0.929 . S
C2042 C2034 1.378 . S
C2042 C2037 1.350 . S
C2043 H2030 0.929 . S
C2043 C2035 1.433 . S
C2043 N2045 1.384 . S
N2044 C2040 1.427 . S
N2044 C2041 1.384 . S
N2045 C2037 1.427 . S
N2045 C2043 1.384 . S
H2046 C2052 0.930 1_554 S
H2047 C2056 0.930 . S
H2048 C2061 0.929 . S
H2049 C2059 0.929 . S
H2050 C2054 0.929 . S
H2051 C2060 0.929 . S
C2052 H2046 0.930 1_556 S
C2052 C2053 1.367 . S
C2052 C2060 1.378 . S
C2053 C2052 1.367 . S
C2053 C2061 1.433 . S
C2054 H2050 0.929 . S
C2054 C2056 1.378 . S
C2054 C2058 1.350 . S
C2055 C2058 1.463 . S
C2055 C2060 1.350 . S
C2055 N2063 1.427 . S
C2056 H2047 0.930 . S
C2056 C2054 1.378 . S
C2056 C2057 1.367 . S
C2057 C2056 1.367 . S
C2057 C2059 1.433 . S
C2058 C2054 1.350 . S
C2058 C2055 1.463 . S
C2058 N2062 1.427 . S
C2059 H2049 0.929 . S
C2059 C2057 1.433 . S
C2059 N2062 1.384 . S
C2060 H2051 0.929 . S
C2060 C2052 1.378 . S
C2060 C2055 1.350 . S
C2061 H2048 0.929 . S
C2061 C2053 1.433 . S
C2061 N2063 1.384 . S
N2062 C2058 1.427 . S
N2062 C2059 1.384 . S
N2063 C2055 1.427 . S
N2063 C2061 1.384 . S
H2064 C2070 0.930 . S
H2065 C2074 0.930 . S
H2066 C2079 0.929 . S
H2067 C2077 0.929 . S
H2068 C2072 0.929 . S
H2069 C2078 0.929 . S
C2070 H2064 0.930 . S
C2070 C2071 1.367 . S
C2070 C2078 1.378 . S
C2071 C2070 1.367 . S
C2071 C2079 1.433 . S
C2072 H2068 0.929 . S
C2072 C2074 1.378 . S
C2072 C2076 1.350 . S
C2073 C2076 1.463 . S
C2073 C2078 1.350 . S
C2073 N2081 1.427 . S
C2074 H2065 0.930 . S
C2074 C2072 1.378 . S
C2074 C2075 1.367 . S
C2075 C2074 1.367 . S
C2075 C2077 1.433 . S
C2076 C2072 1.350 . S
C2076 C2073 1.463 . S
C2076 N2080 1.427 . S
C2077 H2067 0.929 . S
C2077 C2075 1.433 . S
C2077 N2080 1.384 . S
C2078 H2069 0.929 . S
C2078 C2070 1.378 . S
C2078 C2073 1.350 . S
C2079 H2066 0.929 . S
C2079 C2071 1.433 . S
C2079 N2081 1.384 . S
N2080 C2076 1.427 . S
N2080 C2077 1.384 . S
N2081 C2073 1.427 . S
N2081 C2079 1.384 . S
H2082 C2088 0.930 . S
H2083 C2092 0.930 . S
H2084 C2097 0.929 . S
H2085 C2095 0.929 . S
H2086 C2090 0.929 . S
H2087 C2096 0.929 . S
C2088 H2082 0.930 . S
C2088 C2089 1.367 . S
C2088 C2096 1.378 . S
C2089 C2088 1.367 . S
C2089 C2097 1.433 . S
C2090 H2086 0.929 . S
C2090 C2092 1.378 . S
C2090 C2094 1.350 . S
C2091 C2094 1.463 . S
C2091 C2096 1.350 . S
C2091 N2099 1.427 . S
C2092 H2083 0.930 . S
C2092 C2090 1.378 . S
C2092 C2093 1.367 . S
C2093 C2092 1.367 . S
C2093 C2095 1.433 . S
C2094 C2090 1.350 . S
C2094 C2091 1.463 . S
C2094 N2098 1.427 . S
C2095 H2085 0.929 . S
C2095 C2093 1.433 . S
C2095 N2098 1.384 . S
C2096 H2087 0.929 . S
C2096 C2088 1.378 . S
C2096 C2091 1.350 . S
C2097 H2084 0.929 . S
C2097 C2089 1.433 . S
C2097 N2099 1.384 . S
N2098 C2094 1.427 . S
N2098 C2095 1.384 . S
N2099 C2091 1.427 . S
N2099 C2097 1.384 . S
H2100 C2106 0.930 . S
H2101 C2110 0.930 . S
H2102 C2115 0.929 . S
H2103 C2113 0.929 . S
H2104 C2108 0.929 . S
H2105 C2114 0.929 . S
C2106 H2100 0.930 . S
C2106 C2107 1.367 . S
C2106 C2114 1.378 . S
C2107 C2106 1.367 . S
C2107 C2115 1.433 . S
C2108 H2104 0.929 . S
C2108 C2110 1.378 . S
C2108 C2112 1.350 . S
C2109 C2112 1.463 . S
C2109 C2114 1.350 . S
C2109 N2117 1.427 . S
C2110 H2101 0.930 . S
C2110 C2108 1.378 . S
C2110 C2111 1.367 . S
C2111 C2110 1.367 . S
C2111 C2113 1.433 . S
C2112 C2108 1.350 . S
C2112 C2109 1.463 . S
C2112 N2116 1.427 . S
C2113 H2103 0.929 . S
C2113 C2111 1.433 . S
C2113 N2116 1.384 . S
C2114 H2105 0.929 . S
C2114 C2106 1.378 . S
C2114 C2109 1.350 . S
C2115 H2102 0.929 . S
C2115 C2107 1.433 . S
C2115 N2117 1.384 . S
N2116 C2112 1.427 . S
N2116 C2113 1.384 . S
N2117 C2109 1.427 . S
N2117 C2115 1.384 . S
H2118 C2124 0.930 . S
H2119 C2128 0.930 . S
H2120 C2133 0.929 . S
H2121 C2131 0.929 . S
H2122 C2126 0.929 . S
H2123 C2132 0.929 . S
C2124 H2118 0.930 . S
C2124 C2125 1.367 . S
C2124 C2132 1.378 . S
C2125 C2124 1.367 . S
C2125 C2133 1.433 . S
C2126 H2122 0.929 . S
C2126 C2128 1.378 . S
C2126 C2130 1.350 . S
C2127 C2130 1.463 1_454 S
C2127 C2132 1.350 . S
C2127 N2135 1.427 . S
C2128 H2119 0.930 . S
C2128 C2126 1.378 . S
C2128 C2129 1.367 . S
C2129 C2128 1.367 . S
C2129 C2131 1.433 . S
C2130 C2126 1.350 . S
C2130 C2127 1.463 1_656 S
C2130 N2134 1.427 . S
C2131 H2121 0.929 . S
C2131 C2129 1.433 . S
C2131 N2134 1.384 . S
C2132 H2123 0.929 . S
C2132 C2124 1.378 . S
C2132 C2127 1.350 . S
C2133 H2120 0.929 . S
C2133 C2125 1.433 . S
C2133 N2135 1.384 . S
N2134 C2130 1.427 . S
N2134 C2131 1.384 . S
N2135 C2127 1.427 . S
N2135 C2133 1.384 . S
H2136 C2142 0.930 . S
H2137 C2146 0.930 . S
H2138 C2151 0.929 . S
H2139 C2149 0.929 . S
H2140 C2144 0.929 . S
H2141 C2150 0.929 . S
C2142 H2136 0.930 . S
C2142 C2143 1.367 . S
C2142 C2150 1.378 . S
C2143 C2142 1.367 . S
C2143 C2151 1.433 . S
C2144 H2140 0.929 . S
C2144 C2146 1.378 . S
C2144 C2148 1.350 . S
C2145 C2148 1.463 . S
C2145 C2150 1.350 . S
C2145 N2153 1.427 . S
C2146 H2137 0.930 . S
C2146 C2144 1.378 . S
C2146 C2147 1.367 . S
C2147 C2146 1.367 . S
C2147 C2149 1.433 . S
C2148 C2144 1.350 . S
C2148 C2145 1.463 . S
C2148 N2152 1.427 . S
C2149 H2139 0.929 . S
C2149 C2147 1.433 . S
C2149 N2152 1.384 . S
C2150 H2141 0.929 . S
C2150 C2142 1.378 . S
C2150 C2145 1.350 . S
C2151 H2138 0.929 . S
C2151 C2143 1.433 . S
C2151 N2153 1.384 . S
N2152 C2148 1.427 . S
N2152 C2149 1.384 . S
N2153 C2145 1.427 . S
N2153 C2151 1.384 . S
H2154 C2160 0.930 . S
H2155 C2164 0.930 . S
H2156 C2169 0.929 . S
H2157 C2167 0.929 . S
H2158 C2162 0.929 . S
H2159 C2168 0.929 . S
C2160 H2154 0.930 . S
C2160 C2161 1.367 . S
C2160 C2168 1.378 . S
C2161 C2160 1.367 . S
C2161 C2169 1.433 . S
C2162 H2158 0.929 . S
C2162 C2164 1.378 . S
C2162 C2166 1.350 . S
C2163 C2166 1.463 . S
C2163 C2168 1.350 . S
C2163 N2171 1.427 . S
C2164 H2155 0.930 . S
C2164 C2162 1.378 . S
C2164 C2165 1.367 . S
C2165 C2164 1.367 . S
C2165 C2167 1.433 . S
C2166 C2162 1.350 . S
C2166 C2163 1.463 . S
C2166 N2170 1.427 . S
C2167 H2157 0.929 . S
C2167 C2165 1.433 . S
C2167 N2170 1.384 . S
C2168 H2159 0.929 . S
C2168 C2160 1.378 . S
C2168 C2163 1.350 . S
C2169 H2156 0.929 . S
C2169 C2161 1.433 . S
C2169 N2171 1.384 . S
N2170 C2166 1.427 . S
N2170 C2167 1.384 . S
N2171 C2163 1.427 . S
N2171 C2169 1.384 . S
H2172 C2178 0.930 . S
H2173 C2182 0.930 . S
H2174 C2187 0.929 . S
H2175 C2185 0.929 . S
H2176 C2180 0.929 . S
H2177 C2186 0.929 . S
C2178 H2172 0.930 . S
C2178 C2179 1.367 1_565 S
C2178 C2186 1.378 . S
C2179 C2178 1.367 1_545 S
C2179 C2187 1.433 . S
C2180 H2176 0.929 . S
C2180 C2182 1.378 . S
C2180 C2184 1.350 1_545 S
C2181 C2184 1.463 1_446 S
C2181 C2186 1.350 1_545 S
C2181 N2189 1.427 . S
C2182 H2173 0.930 . S
C2182 C2180 1.378 . S
C2182 C2183 1.367 1_545 S
C2183 C2182 1.367 1_565 S
C2183 C2185 1.433 . S
C2184 C2180 1.350 1_565 S
C2184 C2181 1.463 1_664 S
C2184 N2188 1.427 . S
C2185 H2175 0.929 . S
C2185 C2183 1.433 . S
C2185 N2188 1.384 . S
C2186 H2177 0.929 . S
C2186 C2178 1.378 . S
C2186 C2181 1.350 1_565 S
C2187 H2174 0.929 . S
C2187 C2179 1.433 . S
C2187 N2189 1.384 . S
N2188 C2184 1.427 . S
N2188 C2185 1.384 . S
N2189 C2181 1.427 . S
N2189 C2187 1.384 . S
H2190 C2196 0.930 . S
H2191 C2200 0.930 . S
H2192 C2205 0.929 . S
H2193 C2203 0.929 . S
H2194 C2198 0.929 . S
H2195 C2204 0.929 . S
C2196 H2190 0.930 . S
C2196 C2197 1.367 1_565 S
C2196 C2204 1.378 . S
C2197 C2196 1.367 1_545 S
C2197 C2205 1.433 . S
C2198 H2194 0.929 . S
C2198 C2200 1.378 . S
C2198 C2202 1.350 1_545 S
C2199 C2202 1.463 1_545 S
C2199 C2204 1.350 1_545 S
C2199 N2207 1.427 . S
C2200 H2191 0.930 . S
C2200 C2198 1.378 . S
C2200 C2201 1.367 1_545 S
C2201 C2200 1.367 1_565 S
C2201 C2203 1.433 . S
C2202 C2198 1.350 1_565 S
C2202 C2199 1.463 1_565 S
C2202 N2206 1.427 . S
C2203 H2193 0.929 . S
C2203 C2201 1.433 . S
C2203 N2206 1.384 . S
C2204 H2195 0.929 . S
C2204 C2196 1.378 . S
C2204 C2199 1.350 1_565 S
C2205 H2192 0.929 . S
C2205 C2197 1.433 . S
C2205 N2207 1.384 . S
N2206 C2202 1.427 . S
N2206 C2203 1.384 . S
N2207 C2199 1.427 . S
N2207 C2205 1.384 . S
C1351 C56 2.101 . S
C1355 C896 2.096 . S
C1369 C140 2.100 . S
C1373 C980 2.099 . S
C1387 C224 2.089 . S
C1391 C728 2.088 . S
C1405 C308 2.101 . S
C1409 C812 2.097 . S
C1423 C403 2.088 . S
C1427 C1243 2.090 . S
C1441 C487 2.091 . S
C1445 C1327 2.087 . S
C1459 C571 2.092 . S
C1463 C1075 2.098 . S
C1477 C655 2.092 . S
C1481 C1159 2.099 . S
C1495 C819 3.513 . S
C1499 C67 3.565 1_556 S
C1513 C903 3.518 . S
C1517 C151 3.562 . S
C1531 C987 3.515 . S
C1535 C235 3.564 . S
C1549 C735 3.514 . S
C1553 C319 3.566 . S
C1567 C392 3.565 1_554 S
C1571 C1166 3.516 . S
C1585 C1250 3.517 . S
C1589 C476 3.562 . S
C1603 C1334 3.515 . S
C1607 C560 3.566 . S
C1621 C1082 3.517 . S
C1625 C644 3.563 . S
C1639 C147 3.516 . S
C1643 C739 3.565 . S
C1657 C823 3.564 . S
C1661 C231 3.517 . S
C1675 C907 3.564 1_556 S
C1679 C315 3.514 . S
C1693 C991 3.565 . S
C1697 C63 3.514 . S
C1711 C1064 3.566 . S
C1715 C494 3.514 . S
C1729 C578 3.518 . S
C1733 C1148 3.563 . S
C1747 C662 3.519 . S
C1751 C1232 3.563 1_554 S
C1765 C1316 3.562 . S
C1769 C410 3.518 . S
C1783 C69 0.615 . S
C1787 C1323 0.531 . S
C1801 C153 0.579 . S
C1805 C399 0.548 . S
C1819 C1155 0.549 . S
C1823 C237 0.580 . S
C1837 C567 0.546 . S
C1841 C321 0.592 . S
C1855 C394 0.616 . S
C1859 C998 0.531 . S
C1873 C478 0.607 . S
C1877 C74 0.541 . S
C1891 C830 0.530 . S
C1895 C562 0.625 . S
C1909 C242 0.546 . S
C1913 C646 0.591 . S
C1927 C741 0.620 . S
C1931 C651 0.535 . S
C1945 C825 0.620 . S
C1949 C1071 0.535 . S
C1963 C483 0.543 . S
C1967 C909 0.585 . S
C1981 C1239 0.541 . S
C1985 C993 0.608 . S
C1999 C1066 0.586 . S
C2003 C326 0.543 . S
C2017 C1150 0.593 . S
C2021 C746 0.546 . S
C2035 C1234 0.579 . S
C2039 C158 0.549 . S
C2053 C914 0.540 . S
C2057 C1318 0.610 . S
C2071 C58 1.282 . S
C2075 C1077 1.282 . S
C2089 C142 1.268 . S
C2093 C489 1.268 . S
C2107 C226 1.274 . S
C2111 C1245 1.274 . S
C2125 C657 1.294 . S
C2129 C310 1.294 . S
C2143 C405 1.298 . S
C2147 C730 1.298 . S
C2161 C898 1.294 . S
C2165 C573 1.294 . S
C2179 C814 1.290 . S
C2183 C1161 1.290 . S
C2197 C1329 1.272 . S
C2201 C982 1.272 . S
