# Generated by pormake.
# Topology lhb, (8)-cn, num edge types: 1
# Building blocks:
#     Node 0, Type 0, BuildingBlock: OLANAS_clean_sbu_2, # of connection points: 8
#     Node 1, Type 0, BuildingBlock: OLANAS_clean_sbu_2, # of connection points: 8
#     Node 2, Type 0, BuildingBlock: OLANAS_clean_sbu_2, # of connection points: 8
#     Node 3, Type 0, BuildingBlock: OLANAS_clean_sbu_2, # of connection points: 8
#     Node 4, Type 0, BuildingBlock: OLANAS_clean_sbu_2, # of connection points: 8
#     Node 5, Type 0, BuildingBlock: OLANAS_clean_sbu_2, # of connection points: 8
#     Node 6, Type 0, BuildingBlock: OLANAS_clean_sbu_2, # of connection points: 8
#     Node 7, Type 0, BuildingBlock: OLANAS_clean_sbu_2, # of connection points: 8
#     Edge 8, Type (0, 0), BuildingBlock: XIVTED_clean_linker_0, # of connection points: 2
#     Edge 9, Type (0, 0), BuildingBlock: XIVTED_clean_linker_0, # of connection points: 2
#     Edge 10, Type (0, 0), BuildingBlock: XIVTED_clean_linker_0, # of connection points: 2
#     Edge 11, Type (0, 0), BuildingBlock: XIVTED_clean_linker_0, # of connection points: 2
#     Edge 12, Type (0, 0), BuildingBlock: XIVTED_clean_linker_0, # of connection points: 2
#     Edge 13, Type (0, 0), BuildingBlock: XIVTED_clean_linker_0, # of connection points: 2
#     Edge 14, Type (0, 0), BuildingBlock: XIVTED_clean_linker_0, # of connection points: 2
#     Edge 15, Type (0, 0), BuildingBlock: XIVTED_clean_linker_0, # of connection points: 2
#     Edge 16, Type (0, 0), BuildingBlock: XIVTED_clean_linker_0, # of connection points: 2
#     Edge 17, Type (0, 0), BuildingBlock: XIVTED_clean_linker_0, # of connection points: 2
#     Edge 18, Type (0, 0), BuildingBlock: XIVTED_clean_linker_0, # of connection points: 2
#     Edge 19, Type (0, 0), BuildingBlock: XIVTED_clean_linker_0, # of connection points: 2
#     Edge 20, Type (0, 0), BuildingBlock: XIVTED_clean_linker_0, # of connection points: 2
#     Edge 21, Type (0, 0), BuildingBlock: XIVTED_clean_linker_0, # of connection points: 2
#     Edge 22, Type (0, 0), BuildingBlock: XIVTED_clean_linker_0, # of connection points: 2
#     Edge 23, Type (0, 0), BuildingBlock: XIVTED_clean_linker_0, # of connection points: 2
#     Edge 24, Type (0, 0), BuildingBlock: XIVTED_clean_linker_0, # of connection points: 2
#     Edge 25, Type (0, 0), BuildingBlock: XIVTED_clean_linker_0, # of connection points: 2
#     Edge 26, Type (0, 0), BuildingBlock: XIVTED_clean_linker_0, # of connection points: 2
#     Edge 27, Type (0, 0), BuildingBlock: XIVTED_clean_linker_0, # of connection points: 2
#     Edge 28, Type (0, 0), BuildingBlock: XIVTED_clean_linker_0, # of connection points: 2
#     Edge 29, Type (0, 0), BuildingBlock: XIVTED_clean_linker_0, # of connection points: 2
#     Edge 30, Type (0, 0), BuildingBlock: XIVTED_clean_linker_0, # of connection points: 2
#     Edge 31, Type (0, 0), BuildingBlock: XIVTED_clean_linker_0, # of connection points: 2
#     Edge 32, Type (0, 0), BuildingBlock: XIVTED_clean_linker_0, # of connection points: 2
#     Edge 33, Type (0, 0), BuildingBlock: XIVTED_clean_linker_0, # of connection points: 2
#     Edge 34, Type (0, 0), BuildingBlock: XIVTED_clean_linker_0, # of connection points: 2
#     Edge 35, Type (0, 0), BuildingBlock: XIVTED_clean_linker_0, # of connection points: 2
#     Edge 36, Type (0, 0), BuildingBlock: XIVTED_clean_linker_0, # of connection points: 2
#     Edge 37, Type (0, 0), BuildingBlock: XIVTED_clean_linker_0, # of connection points: 2
#     Edge 38, Type (0, 0), BuildingBlock: XIVTED_clean_linker_0, # of connection points: 2
#     Edge 39, Type (0, 0), BuildingBlock: XIVTED_clean_linker_0, # of connection points: 2
# Relax obj value: 0.220
# Max RMSD: 0.285
# Mean RMSD: 0.285
data_MOF--net-lhb--node1-OLANAS_clean_sbu_2--edge1-XIVTED_clean_linker_0
_symmetry_space_group_name_H-M    P1
_symmetry_Int_Tables_number       1
_symmetry_cell_setting            triclinic
loop_
_symmetry_equiv_pos_as_xyz
'x, y, z'
_cell_length_a     30.702108
_cell_length_b     19.216762
_cell_length_c     65.42358
_cell_angle_alpha  89.96131
_cell_angle_beta   89.988942
_cell_angle_gamma 90.017391
loop_
_atom_site_label
_atom_site_type_symbol
_atom_site_fract_x
_atom_site_fract_y
_atom_site_fract_z
_atom_type_partial_charge
C0 C 0.03859 0.90927 0.00712 0.0
O1 O 0.0455 0.85899 0.02037 0.0
C2 C 0.07421 0.94212 -0.00438 0.0
C3 C 0.11854 0.92524 -0.00467 0.0
C4 C 0.14597 0.96272 0.98184 0.0
C5 C 0.12875 0.01482 0.96885 0.0
C6 C 0.08403 0.02834 0.96992 0.0
N7 N 0.06022 0.9931 0.98349 0.0
N8 N 0.00116 0.07855 0.00443 0.0
Co9 Co 0.00114 1.00847 0.98291 0.0
N10 N 0.94208 0.02363 0.98178 0.0
C11 C 0.88145 0.08676 -0.00671 0.0
C12 C 0.85605 0.05044 0.97871 0.0
C13 C 0.87541 1.00095 0.96551 0.0
C14 C 0.92017 0.98904 0.96742 0.0
C15 C 0.92598 0.07165 -0.00566 0.0
N16 N 0.99119 0.94088 0.96142 0.0
N17 N 0.9977 0.9346 0.00312 0.0
N18 N 0.01438 0.07966 0.96283 0.0
C19 C 0.95961 0.10275 0.00743 0.0
O20 O 0.9505 0.15131 0.02093 0.0
C21 C 0.05786 0.07852 0.95816 0.0
O22 O 0.07556 0.12349 0.94548 0.0
C23 C 0.9863 0.13544 0.95677 0.0
C24 C 0.96871 0.25909 0.9564 0.0
C25 C 0.99307 0.20306 0.96418 0.0
C26 C 0.95503 0.12356 0.94179 0.0
C27 C 0.93097 0.17873 0.93339 0.0
C28 C 0.93766 0.24628 0.94103 0.0
C29 C 0.9482 0.94108 0.95583 0.0
O30 O 0.93242 0.89709 0.94234 0.0
C31 C 0.02019 0.88586 0.95572 0.0
C32 C 0.05218 0.89836 0.94108 0.0
C33 C 0.07672 0.84341 0.93283 0.0
C34 C 0.06998 0.77571 0.94043 0.0
C35 C 0.03845 0.76249 0.95557 0.0
C36 C 0.0135 0.81818 0.96308 0.0
C37 C 0.96067 0.91725 0.01538 0.0
C38 C 0.92333 0.88778 0.0066 0.0
C39 C 0.88667 0.87389 0.01868 0.0
C40 C 0.88895 0.88427 0.03988 0.0
C41 C 0.92729 0.90935 0.04889 0.0
C42 C 0.9626 0.92728 0.03652 0.0
C43 C 0.03673 0.09741 0.01748 0.0
C44 C 0.10568 0.13453 0.04318 0.0
C45 C 0.06664 0.11021 0.05166 0.0
C46 C 0.03272 0.08973 0.03873 0.0
C47 C 0.07463 0.12701 0.00932 0.0
C48 C 0.10993 0.14229 0.02201 0.0
H49 H 0.13148 0.88431 0.00494 0.0
H50 H 0.1804 0.95087 0.98129 0.0
H51 H 0.14954 0.04291 0.95834 0.0
H52 H 0.86682 0.12525 0.00321 0.0
H53 H 0.82152 0.06091 0.97757 0.0
H54 H 0.85612 0.97345 0.95427 0.0
H55 H 0.01789 0.21189 0.97565 0.0
H56 H 0.95118 0.07124 0.93606 0.0
H57 H 0.92105 0.28988 0.93402 0.0
H58 H 0.0562 0.95092 0.9355 0.0
H59 H 0.08691 0.73224 0.93354 0.0
H60 H 0.98822 0.80904 0.97431 0.0
H61 H 0.9227 0.87536 -0.00947 0.0
H62 H 0.86106 0.8719 0.0494 0.0
H63 H 0.99221 0.94711 0.04338 0.0
H64 H 0.13275 0.14788 0.0531 0.0
H65 H 0.00277 0.06985 0.0452 0.0
H66 H 0.07686 0.13864 -0.00674 0.0
C67 C 0.20627 0.19106 0.25294 0.0
O68 O 0.19652 0.14289 0.26647 0.0
C69 C 0.17274 0.22446 0.24022 0.0
C70 C 0.12792 0.21144 0.2395 0.0
C71 C 0.1028 0.24846 0.22497 0.0
C72 C 0.12267 0.29658 0.21147 0.0
C73 C 0.1677 0.30636 0.21301 0.0
N74 N 0.18933 0.27125 0.22737 0.0
N75 N 0.24928 0.35561 0.24746 0.0
Co76 Co 0.24873 0.2811 0.2274 0.0
N77 N 0.30808 0.29144 0.22678 0.0
C78 C 0.36948 0.35483 0.23722 0.0
C79 C 0.39432 0.31525 0.22317 0.0
C80 C 0.37421 0.26461 0.21061 0.0
C81 C 0.32923 0.25492 0.21258 0.0
C82 C 0.32479 0.3413 0.23854 0.0
N83 N 0.2575 0.20762 0.20733 0.0
N84 N 0.24838 0.21182 0.24931 0.0
N85 N 0.23959 0.34925 0.20574 0.0
C86 C 0.29133 0.37722 0.25067 0.0
O87 O 0.30107 0.42704 0.26366 0.0
C88 C 0.19629 0.35179 0.20077 0.0
O89 O 0.18078 0.39719 0.18762 0.0
C90 C 0.26945 0.40436 0.20069 0.0
C91 C 0.29431 0.52469 0.20466 0.0
C92 C 0.26368 0.47177 0.20873 0.0
C93 C 0.30385 0.3915 0.18719 0.0
C94 C 0.33524 0.44304 0.1832 0.0
C95 C 0.33182 0.50701 0.19344 0.0
C96 C 0.30043 0.20635 0.20154 0.0
O97 O 0.31594 0.15818 0.18927 0.0
C98 C 0.2299 0.14746 0.20527 0.0
C99 C 0.19303 0.1504 0.19278 0.0
C100 C 0.16634 0.09145 0.19012 0.0
C101 C 0.17661 0.03 0.20079 0.0
C102 C 0.21494 0.02478 0.21238 0.0
C103 C 0.24119 0.0842 0.21474 0.0
C104 C 0.28409 0.19173 0.2623 0.0
C105 C 0.32253 0.16389 0.25402 0.0
C106 C 0.35777 0.14769 0.26668 0.0
C107 C 0.35314 0.15282 0.28788 0.0
C108 C 0.31392 0.17556 0.29648 0.0
C109 C 0.27997 0.19697 0.28367 0.0
C110 C 0.21395 0.37721 0.26031 0.0
C111 C 0.15027 0.43065 0.28654 0.0
C112 C 0.18536 0.39318 0.29465 0.0
C113 C 0.217 0.36645 0.28146 0.0
C114 C 0.17845 0.41454 0.25229 0.0
C115 C 0.14647 0.44143 0.26543 0.0
H116 H 0.1129 0.17373 0.24957 0.0
H117 H 0.06806 0.23944 0.22403 0.0
H118 H 0.10358 0.32437 0.20022 0.0
H119 H 0.38461 0.39479 0.24645 0.0
H120 H 0.42899 0.32437 0.22186 0.0
H121 H 0.39306 0.23485 0.19971 0.0
H122 H 0.2349 0.48271 0.21768 0.0
H123 H 0.30497 0.3419 0.17941 0.0
H124 H 0.35764 0.54485 0.19171 0.0
H125 H 0.18693 0.19769 0.18426 0.0
H126 H 0.15654 0.98417 0.19878 0.0
H127 H 0.27093 0.08084 0.22354 0.0
H128 H 0.32528 0.15402 0.23791 0.0
H129 H 0.38026 0.13906 0.29772 0.0
H130 H 0.25001 0.21603 0.29033 0.0
H131 H 0.12523 0.45045 0.2967 0.0
H132 H 0.24483 0.33909 0.28767 0.0
H133 H 0.17659 0.42537 0.23612 0.0
C134 C 0.70974 0.7055 0.25281 0.0
O135 O 0.69955 0.65558 0.26571 0.0
C136 C 0.6768 0.73964 0.23994 0.0
C137 C 0.63239 0.72459 0.23806 0.0
C138 C 0.60812 0.76174 0.22325 0.0
C139 C 0.62848 0.81184 0.21056 0.0
C140 C 0.67308 0.82361 0.21324 0.0
N141 N 0.69381 0.78866 0.22795 0.0
N142 N 0.75291 0.87107 0.24962 0.0
Co143 Co 0.75322 0.79897 0.22882 0.0
N144 N 0.81265 0.80931 0.22899 0.0
C145 C 0.87384 0.86896 0.24141 0.0
C146 C 0.89957 0.82943 0.22771 0.0
C147 C 0.88007 0.78055 0.21436 0.0
C148 C 0.83477 0.77286 0.21512 0.0
C149 C 0.82886 0.85719 0.24156 0.0
N150 N 0.76317 0.72796 0.20818 0.0
N151 N 0.7519 0.72728 0.24992 0.0
N152 N 0.74487 0.8695 0.20781 0.0
C153 C 0.79482 0.89222 0.2535 0.0
O154 O 0.80396 0.94115 0.26688 0.0
C155 C 0.7021 0.87101 0.20193 0.0
O156 O 0.68722 0.91704 0.1888 0.0
C157 C 0.77467 0.92552 0.20377 0.0
C158 C 0.79807 0.0464 0.20838 0.0
C159 C 0.76723 0.9929 0.21156 0.0
C160 C 0.81089 0.91323 0.19147 0.0
C161 C 0.84257 0.9649 0.18856 0.0
C162 C 0.8374 0.02897 0.19854 0.0
C163 C 0.80653 0.72598 0.20321 0.0
O164 O 0.8226 0.67854 0.19085 0.0
C165 C 0.73506 0.66958 0.20444 0.0
C166 C 0.70399 0.6735 0.18893 0.0
C167 C 0.68003 0.61432 0.1833 0.0
C168 C 0.68579 0.55186 0.19409 0.0
C169 C 0.71769 0.5464 0.20939 0.0
C170 C 0.74216 0.60583 0.21451 0.0
C171 C 0.78691 0.70658 0.26318 0.0
C172 C 0.82555 0.67807 0.25521 0.0
C173 C 0.8601 0.66051 0.26821 0.0
C174 C 0.85386 0.66424 0.28936 0.0
C175 C 0.81412 0.68665 0.29751 0.0
C176 C 0.78142 0.71056 0.28447 0.0
C177 C 0.71695 0.89238 0.2621 0.0
C178 C 0.65232 0.94742 0.28752 0.0
C179 C 0.68796 0.91265 0.29616 0.0
C180 C 0.71977 0.88433 0.28335 0.0
C181 C 0.68121 0.92754 0.25358 0.0
C182 C 0.64855 0.95442 0.26628 0.0
H183 H 0.61711 0.68501 0.24741 0.0
H184 H 0.57372 0.75114 0.22143 0.0
H185 H 0.61011 0.83958 0.19904 0.0
H186 H 0.88858 0.90724 0.25137 0.0
H187 H 0.93448 0.83703 0.22733 0.0
H188 H 0.89965 0.75052 0.20381 0.0
H189 H 0.73708 1.00329 0.21951 0.0
H190 H 0.81307 0.86391 0.18359 0.0
H191 H 0.86326 0.067 0.19743 0.0
H192 H 0.70073 0.72136 0.18029 0.0
H193 H 0.669 0.50542 0.18892 0.0
H194 H 0.76784 0.60192 0.22578 0.0
H195 H 0.82878 0.66838 0.23912 0.0
H196 H 0.87961 0.64741 0.29959 0.0
H197 H 0.75107 0.72937 0.29084 0.0
H198 H 0.62694 0.96805 0.29733 0.0
H199 H 0.74773 0.85823 0.28993 0.0
H200 H 0.67958 0.93692 0.23735 0.0
C201 C 0.04493 0.39488 0.50225 0.0
O202 O 0.05406 0.3441 0.51503 0.0
C203 C 0.07879 0.42936 0.49 0.0
C204 C 0.12334 0.41456 0.4888 0.0
C205 C 0.1487 0.4528 0.47463 0.0
C206 C 0.12926 0.50358 0.46188 0.0
C207 C 0.08442 0.51472 0.46379 0.0
N208 N 0.06266 0.47892 0.47796 0.0
N209 N 0.00385 0.56071 0.49985 0.0
Co210 Co 0.00334 0.49075 0.47841 0.0
N211 N 0.94403 0.50259 0.4783 0.0
C212 C 0.88376 0.56683 0.48967 0.0
C213 C 0.85835 0.53144 0.4749 0.0
C214 C 0.87755 0.482 0.46163 0.0
C215 C 0.92218 0.46907 0.46369 0.0
C216 C 0.92813 0.55077 0.49088 0.0
N217 N 0.99343 0.42265 0.45702 0.0
N218 N 0.00308 0.41737 0.49891 0.0
N219 N 0.01318 0.56236 0.45796 0.0
C220 C 0.96216 0.58308 0.50353 0.0
O221 O 0.95332 0.63193 0.51697 0.0
C222 C 0.05617 0.56283 0.45233 0.0
O223 O 0.07197 0.60893 0.43945 0.0
C224 C 0.98449 0.61931 0.4535 0.0
C225 C 0.96775 0.74315 0.45546 0.0
C226 C 0.99282 0.68564 0.46151 0.0
C227 C 0.95032 0.61 0.43975 0.0
C228 C 0.9247 0.66658 0.4333 0.0
C229 C 0.93381 0.73299 0.44133 0.0
C230 C 0.95032 0.42248 0.45162 0.0
O231 O 0.93437 0.37774 0.4384 0.0
C232 C 0.02195 0.36574 0.45235 0.0
C233 C 0.05518 0.37432 0.43801 0.0
C234 C 0.08239 0.31827 0.43274 0.0
C235 C 0.07573 0.2534 0.44222 0.0
C236 C 0.0413 0.24324 0.45609 0.0
C237 C 0.01498 0.30032 0.46127 0.0
C238 C 0.96704 0.39397 0.5111 0.0
C239 C 0.93105 0.36091 0.50203 0.0
C240 C 0.89834 0.33159 0.51419 0.0
C241 C 0.90228 0.33388 0.53546 0.0
C242 C 0.93829 0.36563 0.54474 0.0
C243 C 0.97008 0.39704 0.53251 0.0
C244 C 0.04035 0.5835 0.51177 0.0
C245 C 0.10654 0.64129 0.53578 0.0
C246 C 0.0722 0.60548 0.54519 0.0
C247 C 0.03951 0.57565 0.53311 0.0
C248 C 0.07477 0.62004 0.50259 0.0
C249 C 0.10812 0.64808 0.51453 0.0
H250 H 0.13795 0.37458 0.49822 0.0
H251 H 0.18325 0.44255 0.47336 0.0
H252 H 0.14848 0.53226 0.45086 0.0
H253 H 0.86935 0.60587 0.49948 0.0
H254 H 0.82397 0.54292 0.47357 0.0
H255 H 0.85832 0.45569 0.45013 0.0
H256 H 0.01938 0.69259 0.47213 0.0
H257 H 0.94511 0.5586 0.4336 0.0
H258 H 0.91653 0.77796 0.43557 0.0
H259 H 0.05825 0.424 0.43034 0.0
H260 H 0.096 0.20969 0.43795 0.0
H261 H 0.98856 0.29378 0.47201 0.0
H262 H 0.92923 0.35448 0.48572 0.0
H263 H 0.87683 0.31124 0.54486 0.0
H264 H 0.99815 0.42127 0.53959 0.0
H265 H 0.13241 0.66346 0.54501 0.0
H266 H 0.01262 0.54851 0.5403 0.0
H267 H 0.07503 0.62956 0.4864 0.0
C268 C 0.21302 0.65749 0.75107 0.0
O269 O 0.20293 0.60919 0.76451 0.0
C270 C 0.18039 0.68799 0.73726 0.0
C271 C 0.13628 0.67131 0.73506 0.0
C272 C 0.11221 0.70656 0.71976 0.0
C273 C 0.13252 0.75629 0.70693 0.0
C274 C 0.17691 0.76937 0.70986 0.0
N275 N 0.19729 0.73646 0.72505 0.0
N276 N 0.25071 0.82511 0.74781 0.0
Co277 Co 0.256 0.75228 0.72731 0.0
N278 N 0.31483 0.7682 0.72882 0.0
C279 C 0.37189 0.83693 0.74151 0.0
C280 C 0.40018 0.80139 0.72797 0.0
C281 C 0.384 0.74981 0.71452 0.0
C282 C 0.33941 0.73492 0.71515 0.0
C283 C 0.32778 0.81861 0.74139 0.0
N284 N 0.27067 0.68153 0.70723 0.0
N285 N 0.25473 0.682 0.74878 0.0
N286 N 0.24781 0.8205 0.70571 0.0
C287 C 0.29131 0.85015 0.75263 0.0
O288 O 0.29712 0.90081 0.76586 0.0
C289 C 0.2057 0.81806 0.69884 0.0
O290 O 0.19064 0.86274 0.68535 0.0
C291 C 0.27548 0.87962 0.70219 0.0
C292 C 0.29406 1.00137 0.70865 0.0
C293 C 0.26761 0.9429 0.71233 0.0
C294 C 0.30884 0.87543 0.68772 0.0
C295 C 0.33528 0.93352 0.68352 0.0
C296 C 0.32856 0.99519 0.69464 0.0
C297 C 0.31433 0.68429 0.70299 0.0
O298 O 0.33336 0.63863 0.69098 0.0
C299 C 0.24468 0.62113 0.7029 0.0
C300 C 0.21224 0.6246 0.68797 0.0
C301 C 0.18649 0.56608 0.68345 0.0
C302 C 0.19346 0.5042 0.69444 0.0
C303 C 0.22714 0.49871 0.70889 0.0
C304 C 0.2526 0.55789 0.7131 0.0
C305 C 0.2889 0.66649 0.76303 0.0
C306 C 0.32891 0.64017 0.75618 0.0
C307 C 0.36293 0.62852 0.76998 0.0
C308 C 0.35548 0.63728 0.79095 0.0
C309 C 0.31474 0.65922 0.79811 0.0
C310 C 0.28193 0.67575 0.78409 0.0
C311 C 0.21226 0.84387 0.75899 0.0
C312 C 0.13866 0.8842 0.7812 0.0
C313 C 0.17596 0.86152 0.79159 0.0
C314 C 0.21214 0.83907 0.78042 0.0
C315 C 0.17584 0.87174 0.74889 0.0
C316 C 0.1384 0.88934 0.7599 0.0
H317 H 0.12101 0.63231 0.74461 0.0
H318 H 0.078 0.69492 0.71774 0.0
H319 H 0.11425 0.78287 0.69513 0.0
H320 H 0.38401 0.87763 0.75141 0.0
H321 H 0.43447 0.81439 0.72773 0.0
H322 H 0.40548 0.72321 0.70399 0.0
H323 H 0.24073 0.94656 0.72295 0.0
H324 H 0.31247 0.82768 0.67912 0.0
H325 H 0.34873 0.04009 0.69145 0.0
H326 H 0.20852 0.67236 0.67936 0.0
H327 H 0.17392 0.45886 0.69094 0.0
H328 H 0.27861 0.55493 0.72423 0.0
H329 H 0.33382 0.62882 0.74022 0.0
H330 H 0.38145 0.62663 0.80175 0.0
H331 H 0.25072 0.69429 0.78957 0.0
H332 H 0.11012 0.9002 0.78978 0.0
H333 H 0.24089 0.82089 0.78838 0.0
H334 H 0.17667 0.88145 0.73269 0.0
C335 C 0.70677 0.15553 0.7552 0.0
O336 O 0.69985 0.10566 0.76859 0.0
C337 C 0.67095 0.19103 0.74453 0.0
C338 C 0.6263 0.17658 0.74507 0.0
C339 C 0.59862 0.21536 0.73203 0.0
C340 C 0.61587 0.26651 0.71871 0.0
C341 C 0.66086 0.27803 0.71908 0.0
N342 N 0.68505 0.24115 0.7321 0.0
N343 N 0.74919 0.32157 0.75114 0.0
Co344 Co 0.74436 0.25113 0.72981 0.0
N345 N 0.80365 0.26082 0.72718 0.0
C346 C 0.86783 0.31718 0.73743 0.0
C347 C 0.89035 0.27773 0.72252 0.0
C348 C 0.86785 0.22988 0.70992 0.0
C349 C 0.82287 0.22289 0.71271 0.0
C350 C 0.82287 0.30703 0.73935 0.0
N351 N 0.74951 0.18156 0.70829 0.0
N352 N 0.74784 0.17763 0.75016 0.0
N353 N 0.73115 0.32326 0.70979 0.0
C354 C 0.79189 0.34163 0.7531 0.0
O355 O 0.80421 0.39031 0.76599 0.0
C356 C 0.68715 0.32527 0.70632 0.0
O357 O 0.66934 0.36999 0.6936 0.0
C358 C 0.76024 0.37645 0.70251 0.0
C359 C 0.77848 0.49917 0.69818 0.0
C360 C 0.75313 0.44688 0.70738 0.0
C361 C 0.79287 0.35892 0.68861 0.0
C362 C 0.81976 0.40991 0.67982 0.0
C363 C 0.81244 0.47994 0.68493 0.0
C364 C 0.79193 0.1776 0.70183 0.0
O365 O 0.80468 0.13277 0.68788 0.0
C366 C 0.71794 0.12934 0.70301 0.0
C367 C 0.68296 0.1471 0.69039 0.0
C368 C 0.65546 0.09579 0.68214 0.0
C369 C 0.6636 0.02579 0.68707 0.0
C370 C 0.6992 1.0067 0.69932 0.0
C371 C 0.72572 0.05894 0.70769 0.0
C372 C 0.78595 0.15595 0.76107 0.0
C373 C 0.82029 0.12233 0.75089 0.0
C374 C 0.85828 0.10481 0.76148 0.0
C375 C 0.86004 0.11439 0.78262 0.0
C376 C 0.8243 0.14183 0.79323 0.0
C377 C 0.78799 0.16519 0.78232 0.0
C378 C 0.71554 0.34882 0.76411 0.0
C379 C 0.65701 0.41837 0.78971 0.0
C380 C 0.69187 0.38156 0.79829 0.0
C381 C 0.7204 0.34513 0.78548 0.0
C382 C 0.68114 0.38785 0.75579 0.0
C383 C 0.65134 0.42154 0.76856 0.0
H384 H 0.6133 0.13624 0.75487 0.0
H385 H 0.56397 0.20508 0.73202 0.0
H386 H 0.59489 0.29522 0.70844 0.0
H387 H 0.88493 0.35413 0.74698 0.0
H388 H 0.92514 0.28436 0.72071 0.0
H389 H 0.88497 0.19984 0.69847 0.0
H390 H 0.72637 0.46101 0.71731 0.0
H391 H 0.79576 0.30543 0.68401 0.0
H392 H 0.83135 0.52046 0.6776 0.0
H393 H 0.67901 0.20085 0.68608 0.0
H394 H 0.64437 0.98499 0.68009 0.0
H395 H 0.75418 0.04487 0.71657 0.0
H396 H 0.81752 0.10905 0.73495 0.0
H397 H 0.88896 0.0985 0.79093 0.0
H398 H 0.76062 0.18791 0.79036 0.0
H399 H 0.63386 0.44456 0.7996 0.0
H400 H 0.74756 0.31685 0.79202 0.0
H401 H 0.67867 0.39576 0.73958 0.0
C402 C 0.54117 0.91113 0.49986 0.0
O403 O 0.55054 0.86264 0.51335 0.0
C404 C 0.575 0.94626 0.48776 0.0
C405 C 0.61996 0.93441 0.48741 0.0
C406 C 0.64544 0.97382 0.47356 0.0
C407 C 0.62572 0.02264 0.46025 0.0
C408 C 0.58044 0.03046 0.4612 0.0
N409 N 0.55859 0.99425 0.47525 0.0
N410 N 0.49773 0.07579 0.4964 0.0
Co411 Co 0.49918 1.00432 0.47519 0.0
N412 N 0.43975 1.01417 0.47439 0.0
C413 C 0.37777 0.0751 0.4853 0.0
C414 C 0.35336 0.03679 0.4708 0.0
C415 C 0.37392 0.98782 0.45785 0.0
C416 C 0.41889 0.97845 0.4599 0.0
C417 C 0.42254 0.0622 0.48662 0.0
N418 N 0.49093 0.93392 0.45414 0.0
N419 N 0.49921 0.93202 0.49606 0.0
N420 N 0.50872 0.07565 0.45449 0.0
C421 C 0.45544 0.09688 0.49937 0.0
O422 O 0.44505 0.14644 0.51234 0.0
C423 C 0.55203 0.07743 0.44937 0.0
O424 O 0.56802 0.12499 0.43701 0.0
C425 C 0.48103 0.13528 0.45163 0.0
C426 C 0.46482 0.25775 0.45822 0.0
C427 C 0.49104 0.19873 0.46124 0.0
C428 C 0.44543 0.13162 0.43834 0.0
C429 C 0.41873 0.19021 0.43501 0.0
C430 C 0.42775 0.25198 0.44578 0.0
C431 C 0.44804 0.93162 0.44846 0.0
O432 O 0.43319 0.88527 0.43543 0.0
C433 C 0.52102 0.87856 0.44984 0.0
C434 C 0.55658 0.89136 0.43709 0.0
C435 C 0.58836 0.84006 0.43382 0.0
C436 C 0.58387 0.77583 0.44382 0.0
C437 C 0.54524 0.75809 0.4542 0.0
C438 C 0.51438 0.81116 0.45777 0.0
C439 C 0.46336 0.91233 0.50887 0.0
C440 C 0.42596 0.88172 0.50045 0.0
C441 C 0.39035 0.86574 0.51295 0.0
C442 C 0.39386 0.87414 0.53413 0.0
C443 C 0.43216 0.90021 0.54283 0.0
C444 C 0.46631 0.92143 0.53014 0.0
C445 C 0.53258 0.09613 0.50983 0.0
C446 C 0.59942 0.13754 0.53624 0.0
C447 C 0.55924 0.11667 0.54429 0.0
C448 C 0.52662 0.09295 0.53114 0.0
C449 C 0.57173 0.12311 0.50199 0.0
C450 C 0.6062 0.1399 0.5151 0.0
H451 H 0.63486 0.89611 0.49731 0.0
H452 H 0.68033 0.96615 0.47302 0.0
H453 H 0.64511 0.05257 0.44959 0.0
H454 H 0.36226 0.11364 0.49491 0.0
H455 H 0.31866 0.04556 0.46946 0.0
H456 H 0.35539 0.95905 0.4466 0.0
H457 H 0.51979 0.20246 0.47073 0.0
H458 H 0.44026 0.08402 0.42986 0.0
H459 H 0.40766 0.29752 0.44333 0.0
H460 H 0.55824 0.9408 0.42923 0.0
H461 H 0.60972 0.7379 0.44243 0.0
H462 H 0.48477 0.80038 0.46616 0.0
H463 H 0.42436 0.87026 0.48435 0.0
H464 H 0.3667 0.85999 0.5439 0.0
H465 H 0.49557 0.94332 0.5368 0.0
H466 H 0.62529 0.15356 0.54651 0.0
H467 H 0.49605 0.07468 0.53743 0.0
H468 H 0.57554 0.13196 0.48589 0.0
C469 C 0.53589 0.42857 -0.00228 0.0
O470 O 0.54899 0.37637 0.00918 0.0
C471 C 0.56586 0.46646 0.98417 0.0
C472 C 0.61041 0.45583 0.9809 0.0
C473 C 0.63177 0.49895 0.96648 0.0
C474 C 0.60854 0.55085 0.95566 0.0
C475 C 0.564 0.55804 0.95968 0.0
N476 N 0.54595 0.51655 0.97366 0.0
N477 N 0.49372 0.5934 -0.0 0.0
Co478 Co 0.48719 0.52674 0.97789 0.0
N479 N 0.42839 0.53761 0.98169 0.0
C480 C 0.37191 0.59972 -0.00248 0.0
C481 C 0.34259 0.5669 0.98387 0.0
C482 C 0.35791 0.52017 0.96877 0.0
C483 C 0.40269 0.50705 0.96792 0.0
C484 C 0.41621 0.58371 -0.00421 0.0
N485 N 0.47135 0.46159 0.95635 0.0
N486 N 0.49326 0.45002 -0.00278 0.0
N487 N 0.49077 0.6021 0.95809 0.0
C488 C 0.45353 0.61427 0.00671 0.0
O489 O 0.44867 0.65844 0.02188 0.0
C490 C 0.53246 0.60705 0.95072 0.0
O491 O 0.54446 0.65695 0.93816 0.0
C492 C 0.46021 0.65826 0.95611 0.0
C493 C 0.44216 0.78044 0.96151 0.0
C494 C 0.46909 0.72278 0.96523 0.0
C495 C 0.4247 0.65178 0.94288 0.0
C496 C 0.39698 0.70876 0.93905 0.0
C497 C 0.40495 0.77191 0.9493 0.0
C498 C 0.42713 0.46284 0.95352 0.0
O499 O 0.40748 0.42117 0.94052 0.0
C500 C 0.49832 0.40534 0.94927 0.0
C501 C 0.53325 0.41916 0.93625 0.0
C502 C 0.56126 0.36575 0.92973 0.0
C503 C 0.55312 0.29747 0.93652 0.0
C504 C 0.51675 0.28154 0.9488 0.0
C505 C 0.48963 0.33639 0.95518 0.0
C506 C 0.46088 0.42162 0.0107 0.0
C507 C 0.42424 0.38721 0.00285 0.0
C508 C 0.39575 0.35193 0.01592 0.0
C509 C 0.40353 0.35198 0.03699 0.0
C510 C 0.43963 0.38675 0.04516 0.0
C511 C 0.46837 0.4211 0.03191 0.0
C512 C 0.53328 0.6079 0.0108 0.0
C513 C 0.6128 0.62465 0.03085 0.0
C514 C 0.57774 0.59409 0.04129 0.0
C515 C 0.53791 0.58598 0.03114 0.0
C516 C 0.56767 0.64296 0.0011 0.0
C517 C 0.6079 0.64956 0.01091 0.0
H518 H 0.62805 0.41576 -0.01094 0.0
H519 H 0.66622 0.49201 0.96365 0.0
H520 H 0.62477 0.58367 0.94457 0.0
H521 H 0.36039 0.63698 0.00868 0.0
H522 H 0.30816 0.57845 0.9848 0.0
H523 H 0.33564 0.49603 0.95809 0.0
H524 H 0.49826 0.72887 0.97436 0.0
H525 H 0.42093 0.60364 0.93449 0.0
H526 H 0.38445 0.81661 0.9463 0.0
H527 H 0.53793 0.47189 0.93108 0.0
H528 H 0.57433 0.2559 0.93163 0.0
H529 H 0.46123 0.32559 0.96435 0.0
H530 H 0.41875 0.38458 0.98665 0.0
H531 H 0.38055 0.32634 0.04709 0.0
H532 H 0.49718 0.44581 0.03804 0.0
H533 H 0.64359 0.63273 0.03862 0.0
H534 H 0.51058 0.5625 0.03897 0.0
H535 H 0.56332 0.66495 0.98606 0.0
H536 H 0.04863 0.99638 0.07523 0.0
H537 H 0.1124 0.19826 0.17742 0.0
H538 H 0.07433 0.21658 0.07859 0.0
H539 H 0.14337 0.98294 0.16491 0.0
H540 H 0.07052 0.2021 0.14563 0.0
H541 H 0.05482 0.98933 0.11266 0.0
C542 C 0.05457 0.04335 0.08394 0.0
C543 C 0.06195 0.10685 0.07402 0.0
C544 C 0.08566 0.15367 0.15025 0.0
C545 C 0.06872 0.09947 0.11638 0.0
C546 C 0.10985 0.15148 0.1683 0.0
C547 C 0.13251 0.09073 0.17378 0.0
C548 C 0.08371 0.0945 0.13773 0.0
C549 C 0.12663 0.03112 0.16158 0.0
C550 C 0.05813 0.03938 0.10519 0.0
C551 C 0.06928 0.16651 0.08582 0.0
N552 N 0.10334 0.03485 0.14402 0.0
N553 N 0.073 0.16128 0.10642 0.0
H554 H 0.953 0.0226 0.07098 0.0
H555 H 0.88511 0.84515 0.17607 0.0
H556 H 0.91019 0.80996 0.07736 0.0
H557 H 0.87672 0.06565 0.16337 0.0
H558 H 0.92261 0.82916 0.14356 0.0
H559 H 0.95247 0.03445 0.10829 0.0
C560 C 0.94416 0.9782 0.08029 0.0
C561 C 0.93072 0.91571 0.07125 0.0
C562 C 0.91349 0.88118 0.14828 0.0
C563 C 0.93036 0.92856 0.11359 0.0
C564 C 0.89189 0.89045 0.16681 0.0
C565 C 0.87628 0.95653 0.17238 0.0
C566 C 0.91984 0.93847 0.13534 0.0
C567 C 0.88762 1.01347 0.15991 0.0
C568 C 0.94392 0.9849 0.10149 0.0
C569 C 0.91971 0.85948 0.08386 0.0
N570 N 0.90798 1.00289 0.14181 0.0
N571 N 0.91934 0.86742 0.10445 0.0
H572 H 0.13308 0.43151 0.42251 0.0
H573 H 0.19739 0.26958 0.31445 0.0
H574 H 0.10323 0.22161 0.40339 0.0
H575 H 0.17856 0.48887 0.32523 0.0
H576 H 0.18833 0.24795 0.35113 0.0
H577 H 0.17385 0.44834 0.39078 0.0
C578 C 0.13555 0.38864 0.41187 0.0
C579 C 0.1139 0.32544 0.41558 0.0
C580 C 0.18699 0.3009 0.34548 0.0
C581 C 0.16124 0.34405 0.37951 0.0
C582 C 0.19237 0.31325 0.32462 0.0
C583 C 0.18787 0.38089 0.31689 0.0
C584 C 0.1772 0.35668 0.35856 0.0
C585 C 0.18131 0.43579 0.33064 0.0
C586 C 0.15907 0.39821 0.39383 0.0
C587 C 0.11939 0.27117 0.4014 0.0
N588 N 0.17562 0.42241 0.35083 0.0
N589 N 0.14207 0.28203 0.3839 0.0
H590 H 0.80129 0.78978 0.32583 0.0
H591 H 0.92543 0.5711 0.40181 0.0
H592 H 0.81182 0.56743 0.31905 0.0
H593 H 0.84958 0.74299 0.42558 0.0
H594 H 0.87891 0.56746 0.37239 0.0
H595 H 0.81143 0.77626 0.36296 0.0
C596 C 0.80424 0.7381 0.33231 0.0
C597 C 0.8069 0.67965 0.3196 0.0
C598 C 0.87184 0.60523 0.38422 0.0
C599 C 0.81901 0.66394 0.3614 0.0
C600 C 0.89845 0.60718 0.40133 0.0
C601 C 0.89225 0.6581 0.41647 0.0
C602 C 0.8396 0.65604 0.38162 0.0
C603 C 0.85693 0.70435 0.41408 0.0
C604 C 0.80996 0.73033 0.3534 0.0
C605 C 0.81056 0.61368 0.32848 0.0
N606 N 0.83265 0.70352 0.39668 0.0
N607 N 0.81753 0.60765 0.34882 0.0
H608 H 0.07746 0.71004 0.57302 0.0
H609 H 0.16857 0.4609 0.65628 0.0
H610 H 0.06622 0.48707 0.56811 0.0
H611 H 0.13455 0.67401 0.67004 0.0
H612 H 0.12507 0.46747 0.62545 0.0
H613 H 0.09157 0.69793 0.60961 0.0
C614 C 0.0772 0.6586 0.57981 0.0
C615 C 0.07153 0.59933 0.56763 0.0
C616 C 0.12639 0.51242 0.63541 0.0
C617 C 0.0883 0.5849 0.60924 0.0
C618 C 0.15115 0.50871 0.65319 0.0
C619 C 0.15565 0.56724 0.6659 0.0
C620 C 0.10674 0.57554 0.62993 0.0
C621 C 0.13293 0.62804 0.66056 0.0
C622 C 0.0851 0.65167 0.60067 0.0
C623 C 0.07087 0.53389 0.57705 0.0
N624 N 0.11008 0.631 0.64279 0.0
N625 N 0.08019 0.52823 0.59729 0.0
H626 H 0.81463 0.30295 0.65182 0.0
H627 H 0.95496 0.47522 0.57047 0.0
H628 H 0.89773 0.47439 0.66979 0.0
H629 H 0.92927 0.25456 0.57002 0.0
H630 H 0.94115 0.47675 0.60746 0.0
H631 H 0.86105 0.28228 0.62289 0.0
C632 C 0.84315 0.33546 0.65018 0.0
C633 C 0.8516 0.39126 0.66348 0.0
C634 C 0.93982 0.42771 0.59933 0.0
C635 C 0.90419 0.36928 0.62922 0.0
C636 C 0.94765 0.42686 0.57828 0.0
C637 C 0.94171 0.36508 0.56723 0.0
C638 C 0.9256 0.36655 0.60905 0.0
C639 C 0.93269 0.30366 0.57798 0.0
C640 C 0.86969 0.32368 0.63337 0.0
C641 C 0.88883 0.43223 0.65968 0.0
N642 N 0.92389 0.3062 0.59823 0.0
N643 N 0.91316 0.42158 0.64258 0.0
H644 H 0.15819 0.97487 0.81445 0.0
H645 H 0.15199 0.77407 0.92098 0.0
H646 H 0.19739 0.76007 0.81955 0.0
H647 H 0.06467 0.93877 0.90207 0.0
H648 H 0.18942 0.78409 0.88794 0.0
H649 H 0.14774 0.97917 0.85137 0.0
C650 C 0.16503 0.9288 0.82346 0.0
C651 C 0.17732 0.86644 0.81405 0.0
C652 C 0.16256 0.81866 0.89141 0.0
C653 C 0.16535 0.87088 0.85613 0.0
C654 C 0.14089 0.81279 0.91015 0.0
C655 C 0.1046 0.85516 0.91448 0.0
C656 C 0.14839 0.86826 0.87718 0.0
C657 C 0.09272 0.90559 0.89995 0.0
C658 C 0.15921 0.93132 0.84447 0.0
C659 C 0.18711 0.80872 0.82635 0.0
N660 N 0.11441 0.91039 0.88202 0.0
N661 N 0.18005 0.81182 0.84688 0.0
H662 H 0.84221 0.03254 0.81773 0.0
H663 H 0.85562 0.24755 0.92148 0.0
H664 H 0.80648 0.24951 0.81971 0.0
H665 H 0.94385 0.08407 0.90263 0.0
H666 H 0.81696 0.23463 0.88881 0.0
H667 H 0.85545 0.03505 0.85445 0.0
C668 C 0.83677 0.08057 0.82601 0.0
C669 C 0.82469 0.14149 0.81574 0.0
C670 C 0.84435 0.20104 0.89222 0.0
C671 C 0.83971 0.1447 0.85758 0.0
C672 C 0.86668 0.20856 0.91073 0.0
C673 C 0.90334 0.16696 0.91501 0.0
C674 C 0.85823 0.15054 0.87823 0.0
C675 C 0.91538 0.11637 0.90058 0.0
C676 C 0.84414 0.08191 0.84691 0.0
C677 C 0.81663 0.20188 0.82717 0.0
N678 N 0.89293 0.10979 0.88293 0.0
N679 N 0.82516 0.20247 0.84759 0.0
H680 H 0.5778 0.02957 0.67237 0.0
H681 H 0.56553 0.23375 0.56682 0.0
H682 H 0.65958 0.20195 0.6538 0.0
H683 H 0.53687 0.01483 0.57182 0.0
H684 H 0.57091 0.24085 0.60401 0.0
H685 H 0.53684 0.0424 0.64045 0.0
C686 C 0.5869 0.07071 0.6619 0.0
C687 C 0.62339 0.11328 0.66575 0.0
C688 C 0.56239 0.1916 0.59702 0.0
C689 C 0.57515 0.12994 0.62982 0.0
C690 C 0.55939 0.18753 0.57588 0.0
C691 C 0.55184 0.1233 0.56643 0.0
C692 C 0.55832 0.13084 0.60874 0.0
C693 C 0.54332 0.06504 0.57869 0.0
C694 C 0.56313 0.07822 0.64381 0.0
C695 C 0.63203 0.16759 0.65191 0.0
N696 N 0.54775 0.06977 0.59934 0.0
N697 N 0.60842 0.17373 0.63454 0.0
H698 H 0.42674 0.79411 0.56998 0.0
H699 H 0.35382 0.04049 0.65699 0.0
H700 H 0.44448 0.01616 0.56622 0.0
H701 H 0.38561 0.82507 0.66895 0.0
H702 H 0.39416 0.03437 0.6253 0.0
H703 H 0.41874 0.80373 0.60706 0.0
C704 C 0.42977 0.84473 0.57712 0.0
C705 C 0.43566 0.90459 0.56521 0.0
C706 C 0.39311 0.98877 0.63503 0.0
C707 C 0.42581 0.91632 0.60737 0.0
C708 C 0.37019 0.99221 0.65334 0.0
C709 C 0.36568 0.93286 0.66577 0.0
C710 C 0.41074 0.92512 0.62869 0.0
C711 C 0.38704 0.87163 0.65966 0.0
C712 C 0.42539 0.85024 0.59824 0.0
C713 C 0.43969 0.969 0.575 0.0
N714 N 0.40788 0.86893 0.64134 0.0
N715 N 0.43376 0.97343 0.59555 0.0
H716 H 0.56301 0.46648 0.89967 0.0
H717 H 0.69919 0.27087 0.82458 0.0
H718 H 0.64026 0.29726 0.92413 0.0
H719 H 0.69543 0.49505 0.82279 0.0
H720 H 0.6835 0.27518 0.86142 0.0
H721 H 0.61426 0.47803 0.87203 0.0
C722 C 0.5911 0.43257 0.89972 0.0
C723 C 0.59631 0.37978 0.9144 0.0
C724 C 0.68769 0.32339 0.85306 0.0
C725 C 0.65454 0.39123 0.8817 0.0
C726 C 0.69665 0.32091 0.83211 0.0
C727 C 0.69718 0.38266 0.8207 0.0
C728 C 0.67868 0.38789 0.86226 0.0
C729 C 0.69397 0.44627 0.83107 0.0
C730 C 0.62042 0.43914 0.88367 0.0
C731 C 0.63346 0.33685 0.91283 0.0
N732 N 0.68358 0.44727 0.85118 0.0
N733 N 0.66048 0.34212 0.89641 0.0
H734 H 0.37476 0.81366 0.91227 0.0
H735 H 0.32054 0.55582 0.82616 0.0
H736 H 0.34766 0.5974 0.9255 0.0
H737 H 0.29321 0.77479 0.82022 0.0
H738 H 0.32243 0.56885 0.86332 0.0
H739 H 0.33616 0.80235 0.88028 0.0
C740 C 0.35966 0.76412 0.9089 0.0
C741 C 0.36542 0.70597 0.92171 0.0
C742 C 0.31495 0.61383 0.85398 0.0
C743 C 0.32245 0.69231 0.88421 0.0
C744 C 0.31408 0.6064 0.83281 0.0
C745 C 0.30737 0.66457 0.8203 0.0
C746 C 0.31027 0.68029 0.8626 0.0
C747 C 0.29883 0.72893 0.82948 0.0
C748 C 0.33774 0.7577 0.89037 0.0
C749 C 0.34545 0.64315 0.9159 0.0
N750 N 0.30151 0.73548 0.85013 0.0
N751 N 0.32582 0.63752 0.89735 0.0
H752 H 0.52153 0.62019 0.07313 0.0
H753 H 0.71419 0.6509 0.14696 0.0
H754 H 0.64613 0.52764 0.05922 0.0
H755 H 0.5967 0.56994 0.1743 0.0
H756 H 0.6829 0.63183 0.11319 0.0
H757 H 0.54067 0.61806 0.10967 0.0
C758 C 0.5523 0.59765 0.07778 0.0
C759 C 0.58292 0.57592 0.06314 0.0
C760 C 0.66385 0.61877 0.12661 0.0
C761 C 0.60494 0.57517 0.10437 0.0
C762 C 0.68135 0.63057 0.14583 0.0
C763 C 0.65773 0.61253 0.16335 0.0
C764 C 0.62221 0.58967 0.12485 0.0
C765 C 0.61567 0.58474 0.16104 0.0
C766 C 0.56316 0.5968 0.09855 0.0
C767 C 0.62223 0.54704 0.06997 0.0
N768 N 0.59888 0.57441 0.14199 0.0
N769 N 0.63263 0.54924 0.09006 0.0
H770 H 0.36879 0.54409 0.15788 0.0
H771 H 0.43347 0.28048 0.07286 0.0
H772 H 0.37558 0.32257 0.16927 0.0
H773 H 0.45709 0.50125 0.06849 0.0
H774 H 0.42387 0.29252 0.10977 0.0
H775 H 0.41237 0.52862 0.12762 0.0
C776 C 0.38029 0.49216 0.15449 0.0
C777 C 0.36779 0.43443 0.1664 0.0
C778 C 0.43216 0.33812 0.10084 0.0
C779 C 0.41672 0.41625 0.13064 0.0
C780 C 0.43752 0.33128 0.07978 0.0
C781 C 0.44496 0.39028 0.06761 0.0
C782 C 0.43362 0.40458 0.1097 0.0
C783 C 0.45088 0.45458 0.07731 0.0
C784 C 0.40511 0.48341 0.13691 0.0
C785 C 0.38324 0.36857 0.16046 0.0
N786 N 0.44409 0.4603 0.09775 0.0
N787 N 0.40613 0.36111 0.14279 0.0
H788 H 0.62341 0.74039 0.40851 0.0
H789 H 0.67809 1.01376 0.32499 0.0
H790 H 0.63006 0.96081 0.42143 0.0
H791 H 0.70546 0.7949 0.3181 0.0
H792 H 0.67174 0.99712 0.36188 0.0
H793 H 0.66582 0.75913 0.37795 0.0
C794 C 0.63474 0.79266 0.40541 0.0
C795 C 0.62212 0.84935 0.41766 0.0
C796 C 0.68001 0.95291 0.35238 0.0
C797 C 0.66955 0.87128 0.38176 0.0
C798 C 0.68329 0.96234 0.33134 0.0
C799 C 0.69123 0.90526 0.31855 0.0
C800 C 0.68387 0.88567 0.3606 0.0
C801 C 0.69879 0.84006 0.32747 0.0
C802 C 0.65885 0.80331 0.38768 0.0
C803 C 0.63764 0.91569 0.41228 0.0
N804 N 0.69403 0.83171 0.34796 0.0
N805 N 0.65966 0.92505 0.39448 0.0
H806 H 0.36646 0.08202 0.4217 0.0
H807 H 0.29598 0.28746 0.32084 0.0
H808 H 0.39616 0.29804 0.40941 0.0
H809 H 0.32284 0.06743 0.3228 0.0
H810 H 0.305 0.29249 0.35817 0.0
H811 H 0.32415 0.0783 0.39001 0.0
C812 C 0.36365 0.12891 0.41263 0.0
C813 C 0.38581 0.19004 0.41823 0.0
C814 C 0.30791 0.24289 0.35043 0.0
C815 C 0.33638 0.18641 0.38231 0.0
C816 C 0.30263 0.24003 0.32924 0.0
C817 C 0.30955 0.17721 0.31891 0.0
C818 C 0.31981 0.18238 0.36117 0.0
C819 C 0.31801 0.11699 0.33033 0.0
C820 C 0.33919 0.1268 0.39464 0.0
C821 C 0.37967 0.24968 0.40604 0.0
N822 N 0.32345 0.12116 0.35087 0.0
N823 N 0.35598 0.24608 0.38859 0.0
H824 H 0.09627 0.65694 0.96342 0.0
H825 H 0.91102 0.3648 0.96407 0.0
H826 H 0.95854 0.70127 0.96132 0.0
H827 H 0.04867 0.31991 0.96222 0.0
H828 H 0.92789 0.4881 0.96869 0.0
H829 H 0.07952 0.53376 0.96851 0.0
C830 C 0.0625 0.64085 0.96421 0.0
C831 C 0.02879 0.6895 0.96168 0.0
C832 C 0.95443 0.45122 0.96752 0.0
C833 C 0.00934 0.54844 0.96754 0.0
C834 C 0.94481 0.38082 0.96485 0.0
C835 C 0.97846 0.332 0.96249 0.0
C836 C 0.99806 0.47323 0.96775 0.0
C837 C 0.02165 0.35556 0.96401 0.0
C838 C 0.05295 0.57053 0.96718 0.0
C839 C 0.98562 0.66583 0.96325 0.0
N840 N 0.0302 0.42456 0.96629 0.0
N841 N 0.97716 0.59693 0.96584 0.0
H842 H 0.32152 0.64082 0.18367 0.0
H843 H 0.16922 0.91842 0.23102 0.0
H844 H 0.24573 0.58217 0.23674 0.0
H845 H 0.29605 0.97015 0.20703 0.0
H846 H 0.19176 0.79577 0.23326 0.0
H847 H 0.30775 0.76141 0.19112 0.0
C848 C 0.30286 0.65262 0.19726 0.0
C849 C 0.28593 0.59967 0.20988 0.0
C850 C 0.21488 0.83441 0.228 0.0
C851 C 0.26788 0.74056 0.21778 0.0
C852 C 0.20209 0.90428 0.22667 0.0
C853 C 0.23068 0.95462 0.21865 0.0
C854 C 0.25616 0.81478 0.22083 0.0
C855 C 0.27294 0.93344 0.21336 0.0
C856 C 0.29465 0.72229 0.20135 0.0
C857 C 0.25959 0.62036 0.22648 0.0
N858 N 0.28403 0.86506 0.21414 0.0
N859 N 0.25095 0.68921 0.22982 0.0
H860 H 0.82928 0.16253 0.18847 0.0
H861 H 0.66509 0.43964 0.22295 0.0
H862 H 0.74218 0.10456 0.23769 0.0
H863 H 0.79958 0.49199 0.21162 0.0
H864 H 0.68647 0.31703 0.22737 0.0
H865 H 0.81326 0.28302 0.1948 0.0
C866 C 0.80765 0.17432 0.20104 0.0
C867 C 0.78827 0.12152 0.21294 0.0
C868 C 0.71129 0.35585 0.22446 0.0
C869 C 0.7676 0.26239 0.21931 0.0
C870 C 0.69919 0.42562 0.22188 0.0
C871 C 0.73058 0.47608 0.21678 0.0
C872 C 0.75485 0.33646 0.22139 0.0
C873 C 0.77429 0.45513 0.2156 0.0
C874 C 0.79816 0.24399 0.20444 0.0
C875 C 0.75811 0.14249 0.22803 0.0
N876 N 0.78495 0.3868 0.21742 0.0
N877 N 0.74825 0.2113 0.23061 0.0
H878 H 0.04935 0.79965 0.46069 0.0
H879 H 0.95994 0.1862 0.46096 0.0
H880 H 0.91276 0.85092 0.46523 0.0
H881 H 0.0965 0.13591 0.46672 0.0
H882 H 0.94206 0.06441 0.46668 0.0
H883 H 0.06737 0.92141 0.46688 0.0
C884 C 0.02309 0.83613 0.46338 0.0
C885 C 0.97936 0.81491 0.46212 0.0
C886 C 0.97594 0.08006 0.46697 0.0
C887 C 0.9999 0.95515 0.46879 0.0
C888 C 0.98624 0.14998 0.46386 0.0
C889 C 0.02994 0.1716 0.46303 0.0
C890 C 0.00951 0.03093 0.46904 0.0
C891 C 0.06242 0.12154 0.46667 0.0
C892 C 0.03346 0.90592 0.46679 0.0
C893 C 0.94688 0.86508 0.46555 0.0
N894 N 0.05158 0.05346 0.4692 0.0
N895 N 0.95779 0.93289 0.46844 0.0
H896 H 0.21313 0.05966 0.71436 0.0
H897 H 0.30804 0.44108 0.71503 0.0
H898 H 0.35002 0.10365 0.72218 0.0
H899 H 0.17111 0.39626 0.72213 0.0
H900 H 0.32437 0.31894 0.72194 0.0
H901 H 0.19687 0.18146 0.72149 0.0
C902 C 0.23978 0.09438 0.71804 0.0
C903 C 0.28316 0.07126 0.71721 0.0
C904 C 0.29077 0.33599 0.72233 0.0
C905 C 0.26471 0.21187 0.72488 0.0
C906 C 0.28142 0.40605 0.71853 0.0
C907 C 0.23802 0.42897 0.71754 0.0
C908 C 0.2565 0.28824 0.72498 0.0
C909 C 0.20498 0.38066 0.72212 0.0
C910 C 0.23045 0.16432 0.72197 0.0
C911 C 0.31617 0.11936 0.72201 0.0
N912 N 0.21483 0.3125 0.72524 0.0
N913 N 0.30635 0.18748 0.72525 0.0
H914 H 0.75881 0.57551 0.7329 0.0
H915 H 0.70823 0.91836 0.66746 0.0
H916 H 0.76982 0.59248 0.66735 0.0
H917 H 0.72036 0.92632 0.73308 0.0
H918 H 0.72669 0.79573 0.66817 0.0
H919 H 0.74028 0.70048 0.73442 0.0
C920 C 0.75735 0.60546 0.71889 0.0
C921 C 0.76649 0.57386 0.7 0.0
C922 C 0.7254 0.82381 0.6825 0.0
C923 C 0.74526 0.71567 0.70159 0.0
C924 C 0.71458 0.89395 0.68209 0.0
C925 C 0.71214 0.93231 0.70027 0.0
C926 C 0.73395 0.79091 0.70124 0.0
C927 C 0.72175 0.89831 0.71875 0.0
C928 C 0.74703 0.67662 0.71977 0.0
C929 C 0.76399 0.61483 0.68229 0.0
N930 N 0.732 0.82914 0.7188 0.0
N931 N 0.75365 0.68318 0.68354 0.0
H932 H 0.57412 0.64281 0.43338 0.0
H933 H 0.41653 0.36363 0.47559 0.0
H934 H 0.49319 0.69947 0.48492 0.0
H935 H 0.54639 0.31289 0.45526 0.0
H936 H 0.43873 0.48621 0.47886 0.0
H937 H 0.55929 0.52204 0.44004 0.0
C938 C 0.5541 0.63053 0.44649 0.0
C939 C 0.53608 0.68297 0.45895 0.0
C940 C 0.46251 0.44776 0.47418 0.0
C941 C 0.51682 0.54189 0.46586 0.0
C942 C 0.44991 0.37797 0.47225 0.0
C943 C 0.47954 0.32796 0.46494 0.0
C944 C 0.50469 0.46763 0.46834 0.0
C945 C 0.52243 0.34934 0.46099 0.0
C946 C 0.54528 0.56075 0.45012 0.0
C947 C 0.50799 0.66168 0.47484 0.0
N948 N 0.53341 0.41764 0.46233 0.0
N949 N 0.4988 0.59274 0.4777 0.0
H950 H 0.52217 0.83512 0.95414 0.0
H951 H 0.47628 0.22797 0.9835 0.0
H952 H 0.39615 0.88921 0.97862 0.0
H953 H 0.53219 0.16424 0.92574 0.0
H954 H 0.45956 0.10536 -0.00918 0.0
H955 H 0.5422 0.95817 0.95435 0.0
C956 C 0.4992 0.87261 0.9602 0.0
C957 C 0.45735 0.85195 0.96632 0.0
C958 C 0.47592 0.11895 0.9767 0.0
C959 C 0.4801 0.9927 0.96642 0.0
C960 C 0.48522 0.18887 0.97236 0.0
C961 C 0.5064 0.20741 0.95401 0.0
C962 C 0.48895 0.06726 0.96288 0.0
C963 C 0.51746 0.15347 0.94042 0.0
C964 C 0.51053 0.94279 0.9601 0.0
C965 C 0.42865 0.90319 0.97367 0.0
N966 N 0.50902 0.08619 0.94523 0.0
N967 N 0.44044 0.97157 0.9734 0.0
H968 H 0.3261 0.40539 -0.00473 0.0
H969 H 0.18563 0.07114 0.0231 0.0
H970 H 0.37819 0.21438 0.01955 0.0
H971 H 0.12919 0.26299 0.00171 0.0
H972 H 0.25785 0.1145 0.01397 0.0
H973 H 0.25598 0.3468 -0.01038 0.0
C974 C 0.323 0.35057 -0.00118 0.0
C975 C 0.35741 0.31451 0.00806 0.0
C976 C 0.22976 0.14703 0.01098 0.0
C977 C 0.27784 0.24774 0.00202 0.0
C978 C 0.18867 0.12222 0.01621 0.0
C979 C 0.152 0.16429 0.01343 0.0
C980 C 0.23421 0.21499 0.0033 0.0
C981 C 0.15708 0.22958 0.00422 0.0
C982 C 0.28303 0.31728 -0.00425 0.0
C983 C 0.35203 0.24387 0.0126 0.0
N984 N 0.1977 0.25366 -0.0002 0.0
N985 N 0.3128 0.213 0.00978 0.0
H986 H 0.87491 0.75699 -0.00451 0.0
H987 H 0.61577 0.7878 0.00292 0.0
H988 H 0.80618 0.93177 0.02119 0.0
H989 H 0.68473 0.5932 -0.00118 0.0
H990 H 0.68467 0.85004 -0.00257 0.0
H991 H 0.80478 0.70606 0.98515 0.0
C992 C 0.84505 0.78515 -0.00144 0.0
C993 C 0.84591 0.8478 0.0095 0.0
C994 C 0.68452 0.79369 -0.00285 0.0
C995 C 0.76623 0.79074 -0.00235 0.0
C996 C 0.64524 0.75835 8e-05 0.0
C997 C 0.64501 0.68566 0.00138 0.0
C998 C 0.72352 0.75575 -0.00447 0.0
C999 C 0.68393 0.64946 -0.00208 0.0
C1000 C 0.80518 0.75618 -0.00729 0.0
C1001 C 0.80656 0.88265 0.01309 0.0
N1002 N 0.72185 0.68491 -0.00458 0.0
N1003 N 0.76824 0.85336 0.00734 0.0
H1004 H 0.08308 0.39922 0.23871 0.0
H1005 H 0.87761 0.55586 0.24067 0.0
H1006 H 0.1236 0.57329 0.27546 0.0
H1007 H 0.93958 0.71204 0.27787 0.0
H1008 H 0.94915 0.50667 0.23284 0.0
H1009 H 0.01347 0.45703 0.23242 0.0
C1010 C 0.07758 0.45059 0.24497 0.0
C1011 C 0.10875 0.48145 0.25772 0.0
C1012 C 0.94755 0.55204 0.24253 0.0
C1013 C 0.02886 0.54795 0.25109 0.0
C1014 C 0.9065 0.5804 0.24687 0.0
C1015 C 0.90282 0.63708 0.26026 0.0
C1016 C 0.985 0.58097 0.25168 0.0
C1017 C 0.94104 0.66731 0.26783 0.0
C1018 C 0.03754 0.48362 0.24156 0.0
C1019 C 0.10012 0.5476 0.26568 0.0
N1020 N 0.98033 0.63849 0.26363 0.0
N1021 N 0.06092 0.57816 0.26242 0.0
H1022 H 0.37382 0.74456 0.49239 0.0
H1023 H 0.12009 0.7876 0.51342 0.0
H1024 H 0.31272 0.93159 0.51456 0.0
H1025 H 0.17939 0.59385 0.49567 0.0
H1026 H 0.18791 0.84835 0.50519 0.0
H1027 H 0.30138 0.69586 0.48504 0.0
C1028 C 0.34509 0.77584 0.4952 0.0
C1029 C 0.34874 0.84145 0.50433 0.0
C1030 C 0.18601 0.79274 0.50268 0.0
C1031 C 0.26642 0.78662 0.49624 0.0
C1032 C 0.14727 0.75834 0.50729 0.0
C1033 C 0.14468 0.68605 0.50525 0.0
C1034 C 0.22259 0.75415 0.49643 0.0
C1035 C 0.18052 0.64986 0.49738 0.0
C1036 C 0.30385 0.74812 0.49111 0.0
C1037 C 0.31089 0.8803 0.50776 0.0
N1038 N 0.21842 0.68417 0.49357 0.0
N1039 N 0.27127 0.85198 0.50395 0.0
H1040 H 0.83363 0.39046 0.49143 0.0
H1041 H 0.62698 0.24108 0.48688 0.0
H1042 H 0.87474 0.19623 0.51791 0.0
H1043 H 0.68394 0.0837 0.52545 0.0
H1044 H 0.7002 0.2838 0.47871 0.0
H1045 H 0.76213 0.33995 0.48449 0.0
C1046 C 0.82792 0.33626 0.49504 0.0
C1047 C 0.85978 0.29733 0.50524 0.0
C1048 C 0.69692 0.23998 0.48896 0.0
C1049 C 0.77802 0.2387 0.49766 0.0
C1050 C 0.65505 0.21516 0.49342 0.0
C1051 C 0.64961 0.16003 0.50724 0.0
C1052 C 0.73333 0.20914 0.49846 0.0
C1053 C 0.68681 0.12753 0.51512 0.0
C1054 C 0.78692 0.3072 0.49117 0.0
C1055 C 0.85078 0.22785 0.51007 0.0
N1056 N 0.72693 0.15298 0.51079 0.0
N1057 N 0.81061 0.20113 0.50649 0.0
H1058 H 0.86836 0.97234 0.74748 0.0
H1059 H 0.12663 0.01843 0.74371 0.0
H1060 H 0.93492 0.16862 0.75314 0.0
H1061 H 0.06112 0.82365 0.75445 0.0
H1062 H 0.05615 0.07239 0.73564 0.0
H1063 H 0.93785 0.91662 0.73856 0.0
C1064 C 0.89748 1.00389 0.74618 0.0
C1065 C 0.89639 0.07475 0.75106 0.0
C1066 C 0.0573 0.01742 0.73925 0.0
C1067 C 0.97558 1.01193 0.7413 0.0
C1068 C 0.09745 0.98669 0.74369 0.0
C1069 C 0.0992 0.91692 0.74979 0.0
C1070 C 0.01891 0.97786 0.741 0.0
C1071 C 0.06073 0.87778 0.74983 0.0
C1072 C 0.93708 0.97221 0.74124 0.0
C1073 C 0.9348 0.11368 0.74946 0.0
N1074 N 0.02199 0.909 0.74577 0.0
N1075 N 0.97303 0.08161 0.74495 0.0
H1076 H 0.58414 0.37283 0.74533 0.0
H1077 H 0.43856 0.69692 0.7768 0.0
H1078 H 0.633 0.55834 0.77422 0.0
H1079 H 0.38642 0.51507 0.74708 0.0
H1080 H 0.51217 0.65594 0.76954 0.0
H1081 H 0.51452 0.43205 0.73917 0.0
C1082 C 0.58058 0.42678 0.74973 0.0
C1083 C 0.61397 0.46087 0.76034 0.0
C1084 C 0.48479 0.62514 0.76434 0.0
C1085 C 0.53463 0.52829 0.75389 0.0
C1086 C 0.44284 0.64854 0.76854 0.0
C1087 C 0.40674 0.60851 0.76284 0.0
C1088 C 0.49073 0.56051 0.75469 0.0
C1089 C 0.41368 0.54691 0.75186 0.0
C1090 C 0.5408 0.46039 0.74641 0.0
C1091 C 0.60775 0.53031 0.76611 0.0
N1092 N 0.45501 0.52399 0.74845 0.0
N1093 N 0.56864 0.56143 0.76305 0.0
H1094 H 0.58341 0.89925 0.24304 0.0
H1095 H 0.4308 0.22575 0.26626 0.0
H1096 H 0.62581 0.08957 0.27149 0.0
H1097 H 0.38134 0.02488 0.24861 0.0
H1098 H 0.50482 0.18589 0.25893 0.0
H1099 H 0.51232 0.95321 0.23603 0.0
C1100 C 0.57806 0.95308 0.24722 0.0
C1101 C 0.61008 0.99025 0.25787 0.0
C1102 C 0.47784 0.15069 0.25631 0.0
C1103 C 0.52934 0.05174 0.25025 0.0
C1104 C 0.43571 0.17356 0.26043 0.0
C1105 C 0.40044 0.12808 0.25819 0.0
C1106 C 0.48473 0.08145 0.25023 0.0
C1107 C 0.40803 0.06112 0.25055 0.0
C1108 C 0.53752 0.98366 0.24338 0.0
C1109 C 0.60168 0.05939 0.26329 0.0
N1110 N 0.44958 0.03925 0.24714 0.0
N1111 N 0.56198 0.08771 0.2596 0.0
loop_
_geom_bond_atom_site_label_1
_geom_bond_atom_site_label_2
_geom_bond_distance
_geom_bond_site_symmetry_2
_ccdc_geom_bond_type
C0 O1 1.201 . S
C0 C2 1.493 . S
C0 N17 1.318 1_455 S
O1 C0 1.201 . S
C2 C0 1.493 . S
C2 C3 1.381 . S
C2 N7 1.335 1_554 S
C3 C2 1.381 . S
C3 C4 1.411 1_554 S
C3 H49 0.931 . S
C4 C3 1.411 1_556 S
C4 C5 1.384 . S
C4 H50 0.930 . S
C5 C4 1.384 . S
C5 C6 1.376 . S
C5 H51 0.929 . S
C6 C5 1.376 . S
C6 N7 1.330 . S
C6 C21 1.484 1_565 S
N7 C2 1.335 1_556 S
N7 C6 1.330 . S
N7 Co9 1.859 1_565 S
N8 Co9 1.962 1_554 S
N8 C19 1.318 1_455 S
N8 C43 1.421 . S
Co9 N7 1.859 1_545 S
Co9 N8 1.962 1_556 S
Co9 N10 1.859 1_455 S
Co9 N16 1.958 1_445 S
Co9 N17 1.962 1_446 S
Co9 N18 1.958 . S
N10 Co9 1.859 1_655 S
N10 C14 1.330 . S
N10 C15 1.335 1_556 S
C11 C12 1.411 1_554 S
C11 C15 1.381 . S
C11 H52 0.931 . S
C12 C11 1.411 1_556 S
C12 C13 1.384 . S
C12 H53 0.930 . S
C13 C12 1.384 . S
C13 C14 1.376 . S
C13 H54 0.929 . S
C14 N10 1.330 . S
C14 C13 1.376 . S
C14 C29 1.484 1_545 S
C15 N10 1.335 1_554 S
C15 C11 1.381 . S
C15 C19 1.493 . S
N16 Co9 1.958 1_665 S
N16 C29 1.344 . S
N16 C31 1.433 . S
N17 C0 1.318 1_655 S
N17 Co9 1.962 1_664 S
N17 C37 1.421 . S
N18 Co9 1.958 . S
N18 C21 1.344 . S
N18 C23 1.436 . S
C19 N8 1.318 1_655 S
C19 C15 1.493 . S
C19 O20 1.201 . S
O20 C19 1.201 . S
C21 C6 1.484 1_545 S
C21 N18 1.344 . S
C21 O22 1.268 . S
O22 C21 1.268 . S
C23 N18 1.436 . S
C23 C25 1.395 . S
C23 C26 1.352 1_455 S
C24 C25 1.382 1_655 S
C24 C28 1.386 . S
C25 C23 1.395 . S
C25 C24 1.382 1_455 S
C25 H55 0.928 . S
C26 C23 1.352 1_655 S
C26 C27 1.367 . S
C26 H56 0.930 . S
C27 C26 1.367 . S
C27 C28 1.369 . S
C28 C24 1.386 . S
C28 C27 1.369 . S
C28 H57 0.930 . S
C29 C14 1.484 1_565 S
C29 N16 1.344 . S
C29 O30 1.268 . S
O30 C29 1.268 . S
C31 N16 1.433 . S
C31 C32 1.357 1_655 S
C31 C36 1.394 . S
C32 C31 1.357 1_455 S
C32 C33 1.367 . S
C32 H58 0.930 . S
C33 C32 1.367 . S
C33 C34 1.369 . S
C34 C33 1.369 . S
C34 C35 1.386 . S
C34 H59 0.930 . S
C35 C34 1.386 . S
C35 C36 1.382 1_455 S
C36 C31 1.394 . S
C36 C35 1.382 1_655 S
C36 H60 0.928 . S
C37 N17 1.421 . S
C37 C38 1.371 . S
C37 C42 1.385 . S
C38 C37 1.371 . S
C38 C39 1.367 . S
C38 H61 0.931 . S
C39 C38 1.367 . S
C39 C40 1.401 . S
C40 C39 1.401 . S
C40 C41 1.385 . S
C40 H62 0.930 . S
C41 C40 1.385 . S
C41 C42 1.402 . S
C42 C37 1.385 . S
C42 C41 1.402 . S
C42 H63 0.929 . S
C43 N8 1.421 . S
C43 C46 1.385 . S
C43 C47 1.371 . S
C44 C45 1.385 . S
C44 C48 1.401 . S
C44 H64 0.930 . S
C45 C44 1.385 . S
C45 C46 1.402 . S
C46 C43 1.385 . S
C46 C45 1.402 . S
C46 H65 0.929 . S
C47 C43 1.371 . S
C47 C48 1.367 . S
C47 H66 0.931 . S
C48 C44 1.401 . S
C48 C47 1.367 . S
H49 C3 0.931 . S
H50 C4 0.930 . S
H51 C5 0.929 . S
H52 C11 0.931 . S
H53 C12 0.930 . S
H54 C13 0.929 . S
H55 C25 0.928 . S
H56 C26 0.930 . S
H57 C28 0.930 . S
H58 C32 0.930 . S
H59 C34 0.930 . S
H60 C36 0.928 . S
H61 C38 0.931 . S
H62 C40 0.930 . S
H63 C42 0.929 . S
H64 C44 0.930 . S
H65 C46 0.929 . S
H66 C47 0.931 . S
C67 O68 1.201 . S
C67 C69 1.493 . S
C67 N84 1.318 . S
O68 C67 1.201 . S
C69 C67 1.493 . S
C69 C70 1.381 . S
C69 N74 1.335 . S
C70 C69 1.381 . S
C70 C71 1.411 . S
C70 H116 0.931 . S
C71 C70 1.411 . S
C71 C72 1.384 . S
C71 H117 0.930 . S
C72 C71 1.384 . S
C72 C73 1.376 . S
C72 H118 0.929 . S
C73 C72 1.376 . S
C73 N74 1.330 . S
C73 C88 1.484 . S
N74 C69 1.335 . S
N74 C73 1.330 . S
N74 Co76 1.859 . S
N75 Co76 1.962 . S
N75 C86 1.318 . S
N75 C110 1.421 . S
Co76 N74 1.859 . S
Co76 N75 1.962 . S
Co76 N77 1.859 . S
Co76 N83 1.958 . S
Co76 N84 1.962 . S
Co76 N85 1.958 . S
N77 Co76 1.859 . S
N77 C81 1.330 . S
N77 C82 1.335 . S
C78 C79 1.411 . S
C78 C82 1.381 . S
C78 H119 0.931 . S
C79 C78 1.411 . S
C79 C80 1.384 . S
C79 H120 0.930 . S
C80 C79 1.384 . S
C80 C81 1.376 . S
C80 H121 0.929 . S
C81 N77 1.330 . S
C81 C80 1.376 . S
C81 C96 1.484 . S
C82 N77 1.335 . S
C82 C78 1.381 . S
C82 C86 1.493 . S
N83 Co76 1.958 . S
N83 C96 1.344 . S
N83 C98 1.425 . S
N84 C67 1.318 . S
N84 Co76 1.962 . S
N84 C104 1.421 . S
N85 Co76 1.958 . S
N85 C88 1.344 . S
N85 C90 1.425 . S
C86 N75 1.318 . S
C86 C82 1.493 . S
C86 O87 1.201 . S
O87 C86 1.201 . S
C88 C73 1.484 . S
C88 N85 1.344 . S
C88 O89 1.268 . S
O89 C88 1.268 . S
C90 N85 1.425 . S
C90 C92 1.392 . S
C90 C93 1.368 . S
C91 C92 1.382 . S
C91 C95 1.386 . S
C92 C90 1.392 . S
C92 C91 1.382 . S
C92 H122 0.928 . S
C93 C90 1.368 . S
C93 C94 1.367 . S
C93 H123 0.930 . S
C94 C93 1.367 . S
C94 C95 1.369 . S
C95 C91 1.386 . S
C95 C94 1.369 . S
C95 H124 0.930 . S
C96 C81 1.484 . S
C96 N83 1.344 . S
C96 O97 1.268 . S
O97 C96 1.268 . S
C98 N83 1.425 . S
C98 C99 1.368 . S
C98 C103 1.392 . S
C99 C98 1.368 . S
C99 C100 1.367 . S
C99 H125 0.930 . S
C100 C99 1.367 . S
C100 C101 1.369 . S
C101 C100 1.369 . S
C101 C102 1.386 . S
C101 H126 0.930 1_545 S
C102 C101 1.386 . S
C102 C103 1.382 . S
C103 C98 1.392 . S
C103 C102 1.382 . S
C103 H127 0.928 . S
C104 N84 1.421 . S
C104 C105 1.371 . S
C104 C109 1.385 . S
C105 C104 1.371 . S
C105 C106 1.367 . S
C105 H128 0.931 . S
C106 C105 1.367 . S
C106 C107 1.401 . S
C107 C106 1.401 . S
C107 C108 1.385 . S
C107 H129 0.930 . S
C108 C107 1.385 . S
C108 C109 1.402 . S
C109 C104 1.385 . S
C109 C108 1.402 . S
C109 H130 0.929 . S
C110 N75 1.421 . S
C110 C113 1.385 . S
C110 C114 1.371 . S
C111 C112 1.385 . S
C111 C115 1.401 . S
C111 H131 0.930 . S
C112 C111 1.385 . S
C112 C113 1.402 . S
C113 C110 1.385 . S
C113 C112 1.402 . S
C113 H132 0.929 . S
C114 C110 1.371 . S
C114 C115 1.367 . S
C114 H133 0.931 . S
C115 C111 1.401 . S
C115 C114 1.367 . S
H116 C70 0.931 . S
H117 C71 0.930 . S
H118 C72 0.929 . S
H119 C78 0.931 . S
H120 C79 0.930 . S
H121 C80 0.929 . S
H122 C92 0.928 . S
H123 C93 0.930 . S
H124 C95 0.930 . S
H125 C99 0.930 . S
H126 C101 0.930 1_565 S
H127 C103 0.928 . S
H128 C105 0.931 . S
H129 C107 0.930 . S
H130 C109 0.929 . S
H131 C111 0.930 . S
H132 C113 0.929 . S
H133 C114 0.931 . S
C134 O135 1.201 . S
C134 C136 1.493 . S
C134 N151 1.318 . S
O135 C134 1.201 . S
C136 C134 1.493 . S
C136 C137 1.381 . S
C136 N141 1.335 . S
C137 C136 1.381 . S
C137 C138 1.411 . S
C137 H183 0.931 . S
C138 C137 1.411 . S
C138 C139 1.384 . S
C138 H184 0.930 . S
C139 C138 1.384 . S
C139 C140 1.376 . S
C139 H185 0.929 . S
C140 C139 1.376 . S
C140 N141 1.330 . S
C140 C155 1.484 . S
N141 C136 1.335 . S
N141 C140 1.330 . S
N141 Co143 1.859 . S
N142 Co143 1.962 . S
N142 C153 1.318 . S
N142 C177 1.421 . S
Co143 N141 1.859 . S
Co143 N142 1.962 . S
Co143 N144 1.859 . S
Co143 N150 1.958 . S
Co143 N151 1.962 . S
Co143 N152 1.958 . S
N144 Co143 1.859 . S
N144 C148 1.330 . S
N144 C149 1.335 . S
C145 C146 1.411 . S
C145 C149 1.381 . S
C145 H186 0.931 . S
C146 C145 1.411 . S
C146 C147 1.384 . S
C146 H187 0.930 . S
C147 C146 1.384 . S
C147 C148 1.376 . S
C147 H188 0.929 . S
C148 N144 1.330 . S
C148 C147 1.376 . S
C148 C163 1.484 . S
C149 N144 1.335 . S
C149 C145 1.381 . S
C149 C153 1.493 . S
N150 Co143 1.958 . S
N150 C163 1.344 . S
N150 C165 1.425 . S
N151 C134 1.318 . S
N151 Co143 1.962 . S
N151 C171 1.421 . S
N152 Co143 1.958 . S
N152 C155 1.344 . S
N152 C157 1.425 . S
C153 N142 1.318 . S
C153 C149 1.493 . S
C153 O154 1.201 . S
O154 C153 1.201 . S
C155 C140 1.484 . S
C155 N152 1.344 . S
C155 O156 1.268 . S
O156 C155 1.268 . S
C157 N152 1.425 . S
C157 C159 1.392 . S
C157 C160 1.368 . S
C158 C159 1.382 . S
C158 C162 1.386 . S
C159 C157 1.392 . S
C159 C158 1.382 . S
C159 H189 0.928 . S
C160 C157 1.368 . S
C160 C161 1.367 . S
C160 H190 0.930 . S
C161 C160 1.367 . S
C161 C162 1.369 . S
C162 C158 1.386 . S
C162 C161 1.369 . S
C162 H191 0.930 1_565 S
C163 C148 1.484 . S
C163 N150 1.344 . S
C163 O164 1.268 . S
O164 C163 1.268 . S
C165 N150 1.425 . S
C165 C166 1.368 . S
C165 C170 1.392 . S
C166 C165 1.368 . S
C166 C167 1.367 . S
C166 H192 0.930 . S
C167 C166 1.367 . S
C167 C168 1.369 . S
C168 C167 1.369 . S
C168 C169 1.386 . S
C168 H193 0.930 . S
C169 C168 1.386 . S
C169 C170 1.382 . S
C170 C165 1.392 . S
C170 C169 1.382 . S
C170 H194 0.928 . S
C171 N151 1.421 . S
C171 C172 1.371 . S
C171 C176 1.385 . S
C172 C171 1.371 . S
C172 C173 1.367 . S
C172 H195 0.931 . S
C173 C172 1.367 . S
C173 C174 1.401 . S
C174 C173 1.401 . S
C174 C175 1.385 . S
C174 H196 0.930 . S
C175 C174 1.385 . S
C175 C176 1.402 . S
C176 C171 1.385 . S
C176 C175 1.402 . S
C176 H197 0.929 . S
C177 N142 1.421 . S
C177 C180 1.385 . S
C177 C181 1.371 . S
C178 C179 1.385 . S
C178 C182 1.401 . S
C178 H198 0.930 . S
C179 C178 1.385 . S
C179 C180 1.402 . S
C180 C177 1.385 . S
C180 C179 1.402 . S
C180 H199 0.929 . S
C181 C177 1.371 . S
C181 C182 1.367 . S
C181 H200 0.931 . S
C182 C178 1.401 . S
C182 C181 1.367 . S
H183 C137 0.931 . S
H184 C138 0.930 . S
H185 C139 0.929 . S
H186 C145 0.931 . S
H187 C146 0.930 . S
H188 C147 0.929 . S
H189 C159 0.928 . S
H190 C160 0.930 . S
H191 C162 0.930 1_545 S
H192 C166 0.930 . S
H193 C168 0.930 . S
H194 C170 0.928 . S
H195 C172 0.931 . S
H196 C174 0.930 . S
H197 C176 0.929 . S
H198 C178 0.930 . S
H199 C180 0.929 . S
H200 C181 0.931 . S
C201 O202 1.201 . S
C201 C203 1.493 . S
C201 N218 1.318 1_455 S
O202 C201 1.201 . S
C203 C201 1.493 . S
C203 C204 1.381 . S
C203 N208 1.335 . S
C204 C203 1.381 . S
C204 C205 1.411 . S
C204 H250 0.931 . S
C205 C204 1.411 . S
C205 C206 1.384 . S
C205 H251 0.930 . S
C206 C205 1.384 . S
C206 C207 1.376 . S
C206 H252 0.929 . S
C207 C206 1.376 . S
C207 N208 1.330 . S
C207 C222 1.484 . S
N208 C203 1.335 . S
N208 C207 1.330 . S
N208 Co210 1.859 . S
N209 Co210 1.962 . S
N209 C220 1.318 1_455 S
N209 C244 1.421 . S
Co210 N208 1.859 . S
Co210 N209 1.962 . S
Co210 N211 1.859 1_455 S
Co210 N217 1.958 1_455 S
Co210 N218 1.962 1_455 S
Co210 N219 1.958 . S
N211 Co210 1.859 1_655 S
N211 C215 1.330 . S
N211 C216 1.335 . S
C212 C213 1.411 . S
C212 C216 1.381 . S
C212 H253 0.931 . S
C213 C212 1.411 . S
C213 C214 1.384 . S
C213 H254 0.930 . S
C214 C213 1.384 . S
C214 C215 1.376 . S
C214 H255 0.929 . S
C215 N211 1.330 . S
C215 C214 1.376 . S
C215 C230 1.484 . S
C216 N211 1.335 . S
C216 C212 1.381 . S
C216 C220 1.493 . S
N217 Co210 1.958 1_655 S
N217 C230 1.344 . S
N217 C232 1.433 . S
N218 C201 1.318 1_655 S
N218 Co210 1.962 1_655 S
N218 C238 1.421 . S
N219 Co210 1.958 . S
N219 C222 1.344 . S
N219 C224 1.436 . S
C220 N209 1.318 1_655 S
C220 C216 1.493 . S
C220 O221 1.201 . S
O221 C220 1.201 . S
C222 C207 1.484 . S
C222 N219 1.344 . S
C222 O223 1.268 . S
O223 C222 1.268 . S
C224 N219 1.436 . S
C224 C226 1.395 . S
C224 C227 1.352 1_455 S
C225 C226 1.382 1_655 S
C225 C229 1.386 . S
C226 C224 1.395 . S
C226 C225 1.382 1_455 S
C226 H256 0.928 . S
C227 C224 1.352 1_655 S
C227 C228 1.367 . S
C227 H257 0.930 . S
C228 C227 1.367 . S
C228 C229 1.369 . S
C229 C225 1.386 . S
C229 C228 1.369 . S
C229 H258 0.930 . S
C230 C215 1.484 . S
C230 N217 1.344 . S
C230 O231 1.268 . S
O231 C230 1.268 . S
C232 N217 1.433 . S
C232 C233 1.357 1_655 S
C232 C237 1.394 . S
C233 C232 1.357 1_455 S
C233 C234 1.367 . S
C233 H259 0.930 . S
C234 C233 1.367 . S
C234 C235 1.369 . S
C235 C234 1.369 . S
C235 C236 1.386 . S
C235 H260 0.930 . S
C236 C235 1.386 . S
C236 C237 1.382 1_455 S
C237 C232 1.394 . S
C237 C236 1.382 1_655 S
C237 H261 0.928 . S
C238 N218 1.421 . S
C238 C239 1.371 . S
C238 C243 1.385 . S
C239 C238 1.371 . S
C239 C240 1.367 . S
C239 H262 0.931 . S
C240 C239 1.367 . S
C240 C241 1.401 . S
C241 C240 1.401 . S
C241 C242 1.385 . S
C241 H263 0.930 . S
C242 C241 1.385 . S
C242 C243 1.402 . S
C243 C238 1.385 . S
C243 C242 1.402 . S
C243 H264 0.929 . S
C244 N209 1.421 . S
C244 C247 1.385 . S
C244 C248 1.371 . S
C245 C246 1.385 . S
C245 C249 1.401 . S
C245 H265 0.930 . S
C246 C245 1.385 . S
C246 C247 1.402 . S
C247 C244 1.385 . S
C247 C246 1.402 . S
C247 H266 0.929 . S
C248 C244 1.371 . S
C248 C249 1.367 . S
C248 H267 0.931 . S
C249 C245 1.401 . S
C249 C248 1.367 . S
H250 C204 0.931 . S
H251 C205 0.930 . S
H252 C206 0.929 . S
H253 C212 0.931 . S
H254 C213 0.930 . S
H255 C214 0.929 . S
H256 C226 0.928 . S
H257 C227 0.930 . S
H258 C229 0.930 . S
H259 C233 0.930 . S
H260 C235 0.930 . S
H261 C237 0.928 . S
H262 C239 0.931 . S
H263 C241 0.930 . S
H264 C243 0.929 . S
H265 C245 0.930 . S
H266 C247 0.929 . S
H267 C248 0.931 . S
C268 O269 1.201 . S
C268 C270 1.493 . S
C268 N285 1.318 . S
O269 C268 1.201 . S
C270 C268 1.493 . S
C270 C271 1.381 . S
C270 N275 1.335 . S
C271 C270 1.381 . S
C271 C272 1.411 . S
C271 H317 0.931 . S
C272 C271 1.411 . S
C272 C273 1.384 . S
C272 H318 0.930 . S
C273 C272 1.384 . S
C273 C274 1.376 . S
C273 H319 0.929 . S
C274 C273 1.376 . S
C274 N275 1.330 . S
C274 C289 1.484 . S
N275 C270 1.335 . S
N275 C274 1.330 . S
N275 Co277 1.859 . S
N276 Co277 1.962 . S
N276 C287 1.318 . S
N276 C311 1.421 . S
Co277 N275 1.859 . S
Co277 N276 1.962 . S
Co277 N278 1.859 . S
Co277 N284 1.958 . S
Co277 N285 1.962 . S
Co277 N286 1.958 . S
N278 Co277 1.859 . S
N278 C282 1.330 . S
N278 C283 1.335 . S
C279 C280 1.411 . S
C279 C283 1.381 . S
C279 H320 0.931 . S
C280 C279 1.411 . S
C280 C281 1.384 . S
C280 H321 0.930 . S
C281 C280 1.384 . S
C281 C282 1.376 . S
C281 H322 0.929 . S
C282 N278 1.330 . S
C282 C281 1.376 . S
C282 C297 1.484 . S
C283 N278 1.335 . S
C283 C279 1.381 . S
C283 C287 1.493 . S
N284 Co277 1.958 . S
N284 C297 1.344 . S
N284 C299 1.425 . S
N285 C268 1.318 . S
N285 Co277 1.962 . S
N285 C305 1.421 . S
N286 Co277 1.958 . S
N286 C289 1.344 . S
N286 C291 1.425 . S
C287 N276 1.318 . S
C287 C283 1.493 . S
C287 O288 1.201 . S
O288 C287 1.201 . S
C289 C274 1.484 . S
C289 N286 1.344 . S
C289 O290 1.268 . S
O290 C289 1.268 . S
C291 N286 1.425 . S
C291 C293 1.392 . S
C291 C294 1.368 . S
C292 C293 1.382 . S
C292 C296 1.386 . S
C293 C291 1.392 . S
C293 C292 1.382 . S
C293 H323 0.928 . S
C294 C291 1.368 . S
C294 C295 1.367 . S
C294 H324 0.930 . S
C295 C294 1.367 . S
C295 C296 1.369 . S
C296 C292 1.386 . S
C296 C295 1.369 . S
C296 H325 0.930 1_565 S
C297 C282 1.484 . S
C297 N284 1.344 . S
C297 O298 1.268 . S
O298 C297 1.268 . S
C299 N284 1.425 . S
C299 C300 1.368 . S
C299 C304 1.392 . S
C300 C299 1.368 . S
C300 C301 1.367 . S
C300 H326 0.930 . S
C301 C300 1.367 . S
C301 C302 1.369 . S
C302 C301 1.369 . S
C302 C303 1.386 . S
C302 H327 0.930 . S
C303 C302 1.386 . S
C303 C304 1.382 . S
C304 C299 1.392 . S
C304 C303 1.382 . S
C304 H328 0.928 . S
C305 N285 1.421 . S
C305 C306 1.371 . S
C305 C310 1.385 . S
C306 C305 1.371 . S
C306 C307 1.367 . S
C306 H329 0.931 . S
C307 C306 1.367 . S
C307 C308 1.401 . S
C308 C307 1.401 . S
C308 C309 1.385 . S
C308 H330 0.930 . S
C309 C308 1.385 . S
C309 C310 1.402 . S
C310 C305 1.385 . S
C310 C309 1.402 . S
C310 H331 0.929 . S
C311 N276 1.421 . S
C311 C314 1.385 . S
C311 C315 1.371 . S
C312 C313 1.385 . S
C312 C316 1.401 . S
C312 H332 0.930 . S
C313 C312 1.385 . S
C313 C314 1.402 . S
C314 C311 1.385 . S
C314 C313 1.402 . S
C314 H333 0.929 . S
C315 C311 1.371 . S
C315 C316 1.367 . S
C315 H334 0.931 . S
C316 C312 1.401 . S
C316 C315 1.367 . S
H317 C271 0.931 . S
H318 C272 0.930 . S
H319 C273 0.929 . S
H320 C279 0.931 . S
H321 C280 0.930 . S
H322 C281 0.929 . S
H323 C293 0.928 . S
H324 C294 0.930 . S
H325 C296 0.930 1_545 S
H326 C300 0.930 . S
H327 C302 0.930 . S
H328 C304 0.928 . S
H329 C306 0.931 . S
H330 C308 0.930 . S
H331 C310 0.929 . S
H332 C312 0.930 . S
H333 C314 0.929 . S
H334 C315 0.931 . S
C335 O336 1.201 . S
C335 C337 1.493 . S
C335 N352 1.318 . S
O336 C335 1.201 . S
C337 C335 1.493 . S
C337 C338 1.381 . S
C337 N342 1.335 . S
C338 C337 1.381 . S
C338 C339 1.411 . S
C338 H384 0.931 . S
C339 C338 1.411 . S
C339 C340 1.384 . S
C339 H385 0.930 . S
C340 C339 1.384 . S
C340 C341 1.376 . S
C340 H386 0.929 . S
C341 C340 1.376 . S
C341 N342 1.330 . S
C341 C356 1.484 . S
N342 C337 1.335 . S
N342 C341 1.330 . S
N342 Co344 1.859 . S
N343 Co344 1.962 . S
N343 C354 1.318 . S
N343 C378 1.421 . S
Co344 N342 1.859 . S
Co344 N343 1.962 . S
Co344 N345 1.859 . S
Co344 N351 1.958 . S
Co344 N352 1.962 . S
Co344 N353 1.958 . S
N345 Co344 1.859 . S
N345 C349 1.330 . S
N345 C350 1.335 . S
C346 C347 1.411 . S
C346 C350 1.381 . S
C346 H387 0.931 . S
C347 C346 1.411 . S
C347 C348 1.384 . S
C347 H388 0.930 . S
C348 C347 1.384 . S
C348 C349 1.376 . S
C348 H389 0.929 . S
C349 N345 1.330 . S
C349 C348 1.376 . S
C349 C364 1.484 . S
C350 N345 1.335 . S
C350 C346 1.381 . S
C350 C354 1.493 . S
N351 Co344 1.958 . S
N351 C364 1.344 . S
N351 C366 1.425 . S
N352 C335 1.318 . S
N352 Co344 1.962 . S
N352 C372 1.421 . S
N353 Co344 1.958 . S
N353 C356 1.344 . S
N353 C358 1.425 . S
C354 N343 1.318 . S
C354 C350 1.493 . S
C354 O355 1.201 . S
O355 C354 1.201 . S
C356 C341 1.484 . S
C356 N353 1.344 . S
C356 O357 1.268 . S
O357 C356 1.268 . S
C358 N353 1.425 . S
C358 C360 1.392 . S
C358 C361 1.368 . S
C359 C360 1.382 . S
C359 C363 1.386 . S
C360 C358 1.392 . S
C360 C359 1.382 . S
C360 H390 0.928 . S
C361 C358 1.368 . S
C361 C362 1.367 . S
C361 H391 0.930 . S
C362 C361 1.367 . S
C362 C363 1.369 . S
C363 C359 1.386 . S
C363 C362 1.369 . S
C363 H392 0.930 . S
C364 C349 1.484 . S
C364 N351 1.344 . S
C364 O365 1.268 . S
O365 C364 1.268 . S
C366 N351 1.425 . S
C366 C367 1.368 . S
C366 C371 1.392 . S
C367 C366 1.368 . S
C367 C368 1.367 . S
C367 H393 0.930 . S
C368 C367 1.367 . S
C368 C369 1.369 . S
C369 C368 1.369 . S
C369 C370 1.386 . S
C369 H394 0.930 1_545 S
C370 C369 1.386 . S
C370 C371 1.382 . S
C371 C366 1.392 . S
C371 C370 1.382 . S
C371 H395 0.928 . S
C372 N352 1.421 . S
C372 C373 1.371 . S
C372 C377 1.385 . S
C373 C372 1.371 . S
C373 C374 1.367 . S
C373 H396 0.931 . S
C374 C373 1.367 . S
C374 C375 1.401 . S
C375 C374 1.401 . S
C375 C376 1.385 . S
C375 H397 0.930 . S
C376 C375 1.385 . S
C376 C377 1.402 . S
C377 C372 1.385 . S
C377 C376 1.402 . S
C377 H398 0.929 . S
C378 N343 1.421 . S
C378 C381 1.385 . S
C378 C382 1.371 . S
C379 C380 1.385 . S
C379 C383 1.401 . S
C379 H399 0.930 . S
C380 C379 1.385 . S
C380 C381 1.402 . S
C381 C378 1.385 . S
C381 C380 1.402 . S
C381 H400 0.929 . S
C382 C378 1.371 . S
C382 C383 1.367 . S
C382 H401 0.931 . S
C383 C379 1.401 . S
C383 C382 1.367 . S
H384 C338 0.931 . S
H385 C339 0.930 . S
H386 C340 0.929 . S
H387 C346 0.931 . S
H388 C347 0.930 . S
H389 C348 0.929 . S
H390 C360 0.928 . S
H391 C361 0.930 . S
H392 C363 0.930 . S
H393 C367 0.930 . S
H394 C369 0.930 1_565 S
H395 C371 0.928 . S
H396 C373 0.931 . S
H397 C375 0.930 . S
H398 C377 0.929 . S
H399 C379 0.930 . S
H400 C381 0.929 . S
H401 C382 0.931 . S
C402 O403 1.201 . S
C402 C404 1.493 . S
C402 N419 1.318 . S
O403 C402 1.201 . S
C404 C402 1.493 . S
C404 C405 1.381 . S
C404 N409 1.335 . S
C405 C404 1.381 . S
C405 C406 1.411 . S
C405 H451 0.931 . S
C406 C405 1.411 . S
C406 C407 1.384 . S
C406 H452 0.930 . S
C407 C406 1.384 . S
C407 C408 1.376 . S
C407 H453 0.929 . S
C408 C407 1.376 . S
C408 N409 1.330 . S
C408 C423 1.484 1_565 S
N409 C404 1.335 . S
N409 C408 1.330 . S
N409 Co411 1.859 1_565 S
N410 Co411 1.962 . S
N410 C421 1.318 . S
N410 C445 1.421 . S
Co411 N409 1.859 1_545 S
Co411 N410 1.962 . S
Co411 N412 1.859 . S
Co411 N418 1.958 1_545 S
Co411 N419 1.962 1_545 S
Co411 N420 1.958 . S
N412 Co411 1.859 . S
N412 C416 1.330 . S
N412 C417 1.335 . S
C413 C414 1.411 . S
C413 C417 1.381 . S
C413 H454 0.931 . S
C414 C413 1.411 . S
C414 C415 1.384 . S
C414 H455 0.930 . S
C415 C414 1.384 . S
C415 C416 1.376 . S
C415 H456 0.929 . S
C416 N412 1.330 . S
C416 C415 1.376 . S
C416 C431 1.484 1_545 S
C417 N412 1.335 . S
C417 C413 1.381 . S
C417 C421 1.493 . S
N418 Co411 1.958 1_565 S
N418 C431 1.344 . S
N418 C433 1.425 . S
N419 C402 1.318 . S
N419 Co411 1.962 1_565 S
N419 C439 1.421 . S
N420 Co411 1.958 . S
N420 C423 1.344 . S
N420 C425 1.425 . S
C421 N410 1.318 . S
C421 C417 1.493 . S
C421 O422 1.201 . S
O422 C421 1.201 . S
C423 C408 1.484 1_545 S
C423 N420 1.344 . S
C423 O424 1.268 . S
O424 C423 1.268 . S
C425 N420 1.425 . S
C425 C427 1.392 . S
C425 C428 1.368 . S
C426 C427 1.382 . S
C426 C430 1.386 . S
C427 C425 1.392 . S
C427 C426 1.382 . S
C427 H457 0.928 . S
C428 C425 1.368 . S
C428 C429 1.367 . S
C428 H458 0.930 . S
C429 C428 1.367 . S
C429 C430 1.369 . S
C430 C426 1.386 . S
C430 C429 1.369 . S
C430 H459 0.930 . S
C431 C416 1.484 1_565 S
C431 N418 1.344 . S
C431 O432 1.268 . S
O432 C431 1.268 . S
C433 N418 1.425 . S
C433 C434 1.368 . S
C433 C438 1.392 . S
C434 C433 1.368 . S
C434 C435 1.367 . S
C434 H460 0.930 . S
C435 C434 1.367 . S
C435 C436 1.369 . S
C436 C435 1.369 . S
C436 C437 1.386 . S
C436 H461 0.930 . S
C437 C436 1.386 . S
C437 C438 1.382 . S
C438 C433 1.392 . S
C438 C437 1.382 . S
C438 H462 0.928 . S
C439 N419 1.421 . S
C439 C440 1.371 . S
C439 C444 1.385 . S
C440 C439 1.371 . S
C440 C441 1.367 . S
C440 H463 0.931 . S
C441 C440 1.367 . S
C441 C442 1.401 . S
C442 C441 1.401 . S
C442 C443 1.385 . S
C442 H464 0.930 . S
C443 C442 1.385 . S
C443 C444 1.402 . S
C444 C439 1.385 . S
C444 C443 1.402 . S
C444 H465 0.929 . S
C445 N410 1.421 . S
C445 C448 1.385 . S
C445 C449 1.371 . S
C446 C447 1.385 . S
C446 C450 1.401 . S
C446 H466 0.930 . S
C447 C446 1.385 . S
C447 C448 1.402 . S
C448 C445 1.385 . S
C448 C447 1.402 . S
C448 H467 0.929 . S
C449 C445 1.371 . S
C449 C450 1.367 . S
C449 H468 0.931 . S
C450 C446 1.401 . S
C450 C449 1.367 . S
H451 C405 0.931 . S
H452 C406 0.930 . S
H453 C407 0.929 . S
H454 C413 0.931 . S
H455 C414 0.930 . S
H456 C415 0.929 . S
H457 C427 0.928 . S
H458 C428 0.930 . S
H459 C430 0.930 . S
H460 C434 0.930 . S
H461 C436 0.930 . S
H462 C438 0.928 . S
H463 C440 0.931 . S
H464 C442 0.930 . S
H465 C444 0.929 . S
H466 C446 0.930 . S
H467 C448 0.929 . S
H468 C449 0.931 . S
C469 O470 1.201 . S
C469 C471 1.493 . S
C469 N486 1.318 . S
O470 C469 1.201 . S
C471 C469 1.493 . S
C471 C472 1.381 . S
C471 N476 1.335 1_554 S
C472 C471 1.381 . S
C472 C473 1.411 1_554 S
C472 H518 0.931 . S
C473 C472 1.411 1_556 S
C473 C474 1.384 . S
C473 H519 0.930 . S
C474 C473 1.384 . S
C474 C475 1.376 . S
C474 H520 0.929 . S
C475 C474 1.376 . S
C475 N476 1.330 . S
C475 C490 1.484 . S
N476 C471 1.335 1_556 S
N476 C475 1.330 . S
N476 Co478 1.859 . S
N477 Co478 1.962 1_554 S
N477 C488 1.318 . S
N477 C512 1.421 . S
Co478 N476 1.859 . S
Co478 N477 1.962 1_556 S
Co478 N479 1.859 . S
Co478 N485 1.958 . S
Co478 N486 1.962 1_556 S
Co478 N487 1.958 . S
N479 Co478 1.859 . S
N479 C483 1.330 . S
N479 C484 1.335 1_556 S
C480 C481 1.411 1_554 S
C480 C484 1.381 . S
C480 H521 0.931 . S
C481 C480 1.411 1_556 S
C481 C482 1.384 . S
C481 H522 0.930 . S
C482 C481 1.384 . S
C482 C483 1.376 . S
C482 H523 0.929 . S
C483 N479 1.330 . S
C483 C482 1.376 . S
C483 C498 1.484 . S
C484 N479 1.335 1_554 S
C484 C480 1.381 . S
C484 C488 1.493 . S
N485 Co478 1.958 . S
N485 C498 1.344 . S
N485 C500 1.425 . S
N486 C469 1.318 . S
N486 Co478 1.962 1_554 S
N486 C506 1.421 . S
N487 Co478 1.958 . S
N487 C490 1.344 . S
N487 C492 1.425 . S
C488 N477 1.318 . S
C488 C484 1.493 . S
C488 O489 1.201 . S
O489 C488 1.201 . S
C490 C475 1.484 . S
C490 N487 1.344 . S
C490 O491 1.268 . S
O491 C490 1.268 . S
C492 N487 1.425 . S
C492 C494 1.392 . S
C492 C495 1.368 . S
C493 C494 1.382 . S
C493 C497 1.386 . S
C494 C492 1.392 . S
C494 C493 1.382 . S
C494 H524 0.928 . S
C495 C492 1.368 . S
C495 C496 1.367 . S
C495 H525 0.930 . S
C496 C495 1.367 . S
C496 C497 1.369 . S
C497 C493 1.386 . S
C497 C496 1.369 . S
C497 H526 0.930 . S
C498 C483 1.484 . S
C498 N485 1.344 . S
C498 O499 1.268 . S
O499 C498 1.268 . S
C500 N485 1.425 . S
C500 C501 1.368 . S
C500 C505 1.392 . S
C501 C500 1.368 . S
C501 C502 1.367 . S
C501 H527 0.930 . S
C502 C501 1.367 . S
C502 C503 1.369 . S
C503 C502 1.369 . S
C503 C504 1.386 . S
C503 H528 0.930 . S
C504 C503 1.386 . S
C504 C505 1.382 . S
C505 C500 1.392 . S
C505 C504 1.382 . S
C505 H529 0.928 . S
C506 N486 1.421 . S
C506 C507 1.371 . S
C506 C511 1.385 . S
C507 C506 1.371 . S
C507 C508 1.367 . S
C507 H530 0.931 . S
C508 C507 1.367 . S
C508 C509 1.401 . S
C509 C508 1.401 . S
C509 C510 1.385 . S
C509 H531 0.930 . S
C510 C509 1.385 . S
C510 C511 1.402 . S
C511 C506 1.385 . S
C511 C510 1.402 . S
C511 H532 0.929 . S
C512 N477 1.421 . S
C512 C515 1.385 . S
C512 C516 1.371 . S
C513 C514 1.385 . S
C513 C517 1.401 . S
C513 H533 0.930 . S
C514 C513 1.385 . S
C514 C515 1.402 . S
C515 C512 1.385 . S
C515 C514 1.402 . S
C515 H534 0.929 . S
C516 C512 1.371 . S
C516 C517 1.367 . S
C516 H535 0.931 . S
C517 C513 1.401 . S
C517 C516 1.367 . S
H518 C472 0.931 . S
H519 C473 0.930 . S
H520 C474 0.929 . S
H521 C480 0.931 . S
H522 C481 0.930 . S
H523 C482 0.929 . S
H524 C494 0.928 . S
H525 C495 0.930 . S
H526 C497 0.930 . S
H527 C501 0.930 . S
H528 C503 0.930 . S
H529 C505 0.928 . S
H530 C507 0.931 . S
H531 C509 0.930 . S
H532 C511 0.929 . S
H533 C513 0.930 . S
H534 C515 0.929 . S
H535 C516 0.931 . S
H536 C542 0.930 1_565 S
H537 C546 0.930 . S
H538 C551 0.929 . S
H539 C549 0.929 . S
H540 C544 0.929 . S
H541 C550 0.929 1_565 S
C542 H536 0.930 1_545 S
C542 C543 1.367 . S
C542 C550 1.378 . S
C543 C542 1.367 . S
C543 C551 1.433 . S
C544 H540 0.929 . S
C544 C546 1.378 . S
C544 C548 1.350 . S
C545 C548 1.463 . S
C545 C550 1.350 . S
C545 N553 1.427 . S
C546 H537 0.930 . S
C546 C544 1.378 . S
C546 C547 1.367 . S
C547 C546 1.367 . S
C547 C549 1.433 . S
C548 C544 1.350 . S
C548 C545 1.463 . S
C548 N552 1.427 . S
C549 H539 0.929 . S
C549 C547 1.433 . S
C549 N552 1.384 . S
C550 H541 0.929 1_545 S
C550 C542 1.378 . S
C550 C545 1.350 . S
C551 H538 0.929 . S
C551 C543 1.433 . S
C551 N553 1.384 . S
N552 C548 1.427 . S
N552 C549 1.384 . S
N553 C545 1.427 . S
N553 C551 1.384 . S
H554 C560 0.930 1_545 S
H555 C564 0.930 . S
H556 C569 0.929 . S
H557 C567 0.918 1_545 S
H558 C562 0.929 . S
H559 C568 0.929 1_545 S
C560 H554 0.930 1_565 S
C560 C561 1.367 . S
C560 C568 1.378 . S
C561 C560 1.367 . S
C561 C569 1.433 . S
C562 H558 0.929 . S
C562 C564 1.378 . S
C562 C566 1.350 . S
C563 C566 1.463 . S
C563 C568 1.350 . S
C563 N571 1.427 . S
C564 H555 0.930 . S
C564 C562 1.378 . S
C564 C565 1.367 . S
C565 C564 1.367 . S
C565 C567 1.433 . S
C566 C562 1.350 . S
C566 C563 1.463 . S
C566 N570 1.427 . S
C567 H557 0.918 1_565 S
C567 C565 1.433 . S
C567 N570 1.384 . S
C568 H559 0.929 1_565 S
C568 C560 1.378 . S
C568 C563 1.350 . S
C569 H556 0.929 . S
C569 C561 1.433 . S
C569 N571 1.384 . S
N570 C566 1.427 . S
N570 C567 1.384 . S
N571 C563 1.427 . S
N571 C569 1.384 . S
H572 C578 0.930 . S
H573 C582 0.930 . S
H574 C587 0.929 . S
H575 C585 0.929 . S
H576 C580 0.929 . S
H577 C586 0.929 . S
C578 H572 0.930 . S
C578 C579 1.367 . S
C578 C586 1.378 . S
C579 C578 1.367 . S
C579 C587 1.433 . S
C580 H576 0.929 . S
C580 C582 1.378 . S
C580 C584 1.350 . S
C581 C584 1.463 . S
C581 C586 1.350 . S
C581 N589 1.427 . S
C582 H573 0.930 . S
C582 C580 1.378 . S
C582 C583 1.367 . S
C583 C582 1.367 . S
C583 C585 1.433 . S
C584 C580 1.350 . S
C584 C581 1.463 . S
C584 N588 1.427 . S
C585 H575 0.929 . S
C585 C583 1.433 . S
C585 N588 1.384 . S
C586 H577 0.929 . S
C586 C578 1.378 . S
C586 C581 1.350 . S
C587 H574 0.929 . S
C587 C579 1.433 . S
C587 N589 1.384 . S
N588 C584 1.427 . S
N588 C585 1.384 . S
N589 C581 1.427 . S
N589 C587 1.384 . S
H590 C596 0.930 . S
H591 C600 0.930 . S
H592 C605 0.929 . S
H593 C603 0.929 . S
H594 C598 0.929 . S
H595 C604 0.929 . S
C596 H590 0.930 . S
C596 C597 1.367 . S
C596 C604 1.378 . S
C597 C596 1.367 . S
C597 C605 1.433 . S
C598 H594 0.929 . S
C598 C600 1.378 . S
C598 C602 1.350 . S
C599 C602 1.463 . S
C599 C604 1.350 . S
C599 N607 1.427 . S
C600 H591 0.930 . S
C600 C598 1.378 . S
C600 C601 1.367 . S
C601 C600 1.367 . S
C601 C603 1.433 . S
C602 C598 1.350 . S
C602 C599 1.463 . S
C602 N606 1.427 . S
C603 H593 0.929 . S
C603 C601 1.433 . S
C603 N606 1.384 . S
C604 H595 0.929 . S
C604 C596 1.378 . S
C604 C599 1.350 . S
C605 H592 0.929 . S
C605 C597 1.433 . S
C605 N607 1.384 . S
N606 C602 1.427 . S
N606 C603 1.384 . S
N607 C599 1.427 . S
N607 C605 1.384 . S
H608 C614 0.930 . S
H609 C618 0.930 . S
H610 C623 0.929 . S
H611 C621 0.929 . S
H612 C616 0.929 . S
H613 C622 0.929 . S
C614 H608 0.930 . S
C614 C615 1.367 . S
C614 C622 1.378 . S
C615 C614 1.367 . S
C615 C623 1.433 . S
C616 H612 0.929 . S
C616 C618 1.378 . S
C616 C620 1.350 . S
C617 C620 1.463 . S
C617 C622 1.350 . S
C617 N625 1.427 . S
C618 H609 0.930 . S
C618 C616 1.378 . S
C618 C619 1.367 . S
C619 C618 1.367 . S
C619 C621 1.433 . S
C620 C616 1.350 . S
C620 C617 1.463 . S
C620 N624 1.427 . S
C621 H611 0.929 . S
C621 C619 1.433 . S
C621 N624 1.384 . S
C622 H613 0.929 . S
C622 C614 1.378 . S
C622 C617 1.350 . S
C623 H610 0.929 . S
C623 C615 1.433 . S
C623 N625 1.384 . S
N624 C620 1.427 . S
N624 C621 1.384 . S
N625 C617 1.427 . S
N625 C623 1.384 . S
H626 C632 0.930 . S
H627 C636 0.930 . S
H628 C641 0.929 . S
H629 C639 0.929 . S
H630 C634 0.929 . S
H631 C640 0.929 . S
C632 H626 0.930 . S
C632 C633 1.367 . S
C632 C640 1.378 . S
C633 C632 1.367 . S
C633 C641 1.433 . S
C634 H630 0.929 . S
C634 C636 1.378 . S
C634 C638 1.350 . S
C635 C638 1.463 . S
C635 C640 1.350 . S
C635 N643 1.427 . S
C636 H627 0.930 . S
C636 C634 1.378 . S
C636 C637 1.367 . S
C637 C636 1.367 . S
C637 C639 1.433 . S
C638 C634 1.350 . S
C638 C635 1.463 . S
C638 N642 1.427 . S
C639 H629 0.929 . S
C639 C637 1.433 . S
C639 N642 1.384 . S
C640 H631 0.929 . S
C640 C632 1.378 . S
C640 C635 1.350 . S
C641 H628 0.929 . S
C641 C633 1.433 . S
C641 N643 1.384 . S
N642 C638 1.427 . S
N642 C639 1.384 . S
N643 C635 1.427 . S
N643 C641 1.384 . S
H644 C650 0.930 . S
H645 C654 0.930 . S
H646 C659 0.929 . S
H647 C657 0.929 . S
H648 C652 0.929 . S
H649 C658 0.929 . S
C650 H644 0.930 . S
C650 C651 1.367 . S
C650 C658 1.378 . S
C651 C650 1.367 . S
C651 C659 1.433 . S
C652 H648 0.929 . S
C652 C654 1.378 . S
C652 C656 1.350 . S
C653 C656 1.463 . S
C653 C658 1.350 . S
C653 N661 1.427 . S
C654 H645 0.930 . S
C654 C652 1.378 . S
C654 C655 1.367 . S
C655 C654 1.367 . S
C655 C657 1.433 . S
C656 C652 1.350 . S
C656 C653 1.463 . S
C656 N660 1.427 . S
C657 H647 0.929 . S
C657 C655 1.433 . S
C657 N660 1.384 . S
C658 H649 0.929 . S
C658 C650 1.378 . S
C658 C653 1.350 . S
C659 H646 0.929 . S
C659 C651 1.433 . S
C659 N661 1.384 . S
N660 C656 1.427 . S
N660 C657 1.384 . S
N661 C653 1.427 . S
N661 C659 1.384 . S
H662 C668 0.930 . S
H663 C672 0.930 . S
H664 C677 0.929 . S
H665 C675 0.929 . S
H666 C670 0.929 . S
H667 C676 0.929 . S
C668 H662 0.930 . S
C668 C669 1.367 . S
C668 C676 1.378 . S
C669 C668 1.367 . S
C669 C677 1.433 . S
C670 H666 0.929 . S
C670 C672 1.378 . S
C670 C674 1.350 . S
C671 C674 1.463 . S
C671 C676 1.350 . S
C671 N679 1.427 . S
C672 H663 0.930 . S
C672 C670 1.378 . S
C672 C673 1.367 . S
C673 C672 1.367 . S
C673 C675 1.433 . S
C674 C670 1.350 . S
C674 C671 1.463 . S
C674 N678 1.427 . S
C675 H665 0.929 . S
C675 C673 1.433 . S
C675 N678 1.384 . S
C676 H667 0.929 . S
C676 C668 1.378 . S
C676 C671 1.350 . S
C677 H664 0.929 . S
C677 C669 1.433 . S
C677 N679 1.384 . S
N678 C674 1.427 . S
N678 C675 1.384 . S
N679 C671 1.427 . S
N679 C677 1.384 . S
H680 C686 0.930 . S
H681 C690 0.930 . S
H682 C695 0.929 . S
H683 C693 0.929 1_565 S
H684 C688 0.929 . S
H685 C694 0.929 1_565 S
C686 H680 0.930 . S
C686 C687 1.367 . S
C686 C694 1.378 . S
C687 C686 1.367 . S
C687 C695 1.433 . S
C688 H684 0.929 . S
C688 C690 1.378 . S
C688 C692 1.350 . S
C689 C692 1.463 . S
C689 C694 1.350 . S
C689 N697 1.427 . S
C690 H681 0.930 . S
C690 C688 1.378 . S
C690 C691 1.367 . S
C691 C690 1.367 . S
C691 C693 1.433 . S
C692 C688 1.350 . S
C692 C689 1.463 . S
C692 N696 1.427 . S
C693 H683 0.929 1_545 S
C693 C691 1.433 . S
C693 N696 1.384 . S
C694 H685 0.929 1_545 S
C694 C686 1.378 . S
C694 C689 1.350 . S
C695 H682 0.929 . S
C695 C687 1.433 . S
C695 N697 1.384 . S
N696 C692 1.427 . S
N696 C693 1.384 . S
N697 C689 1.427 . S
N697 C695 1.384 . S
H698 C704 0.930 . S
H699 C708 0.930 . S
H700 C713 0.929 . S
H701 C711 0.929 . S
H702 C706 0.929 . S
H703 C712 0.929 . S
C704 H698 0.930 . S
C704 C705 1.367 . S
C704 C712 1.378 . S
C705 C704 1.367 . S
C705 C713 1.433 . S
C706 H702 0.929 . S
C706 C708 1.378 . S
C706 C710 1.350 . S
C707 C710 1.463 . S
C707 C712 1.350 . S
C707 N715 1.427 . S
C708 H699 0.930 . S
C708 C706 1.378 . S
C708 C709 1.367 . S
C709 C708 1.367 . S
C709 C711 1.433 . S
C710 C706 1.350 . S
C710 C707 1.463 . S
C710 N714 1.427 . S
C711 H701 0.929 . S
C711 C709 1.433 . S
C711 N714 1.384 . S
C712 H703 0.929 . S
C712 C704 1.378 . S
C712 C707 1.350 . S
C713 H700 0.929 . S
C713 C705 1.433 . S
C713 N715 1.384 . S
N714 C710 1.427 . S
N714 C711 1.384 . S
N715 C707 1.427 . S
N715 C713 1.384 . S
H716 C722 0.930 . S
H717 C726 0.930 . S
H718 C731 0.929 . S
H719 C729 0.929 . S
H720 C724 0.929 . S
H721 C730 0.929 . S
C722 H716 0.930 . S
C722 C723 1.367 . S
C722 C730 1.378 . S
C723 C722 1.367 . S
C723 C731 1.433 . S
C724 H720 0.929 . S
C724 C726 1.378 . S
C724 C728 1.350 . S
C725 C728 1.463 . S
C725 C730 1.350 . S
C725 N733 1.427 . S
C726 H717 0.930 . S
C726 C724 1.378 . S
C726 C727 1.367 . S
C727 C726 1.367 . S
C727 C729 1.433 . S
C728 C724 1.350 . S
C728 C725 1.463 . S
C728 N732 1.427 . S
C729 H719 0.929 . S
C729 C727 1.433 . S
C729 N732 1.384 . S
C730 H721 0.929 . S
C730 C722 1.378 . S
C730 C725 1.350 . S
C731 H718 0.929 . S
C731 C723 1.433 . S
C731 N733 1.384 . S
N732 C728 1.427 . S
N732 C729 1.384 . S
N733 C725 1.427 . S
N733 C731 1.384 . S
H734 C740 0.930 . S
H735 C744 0.930 . S
H736 C749 0.929 . S
H737 C747 0.929 . S
H738 C742 0.929 . S
H739 C748 0.929 . S
C740 H734 0.930 . S
C740 C741 1.367 . S
C740 C748 1.378 . S
C741 C740 1.367 . S
C741 C749 1.433 . S
C742 H738 0.929 . S
C742 C744 1.378 . S
C742 C746 1.350 . S
C743 C746 1.463 . S
C743 C748 1.350 . S
C743 N751 1.427 . S
C744 H735 0.930 . S
C744 C742 1.378 . S
C744 C745 1.367 . S
C745 C744 1.367 . S
C745 C747 1.433 . S
C746 C742 1.350 . S
C746 C743 1.463 . S
C746 N750 1.427 . S
C747 H737 0.929 . S
C747 C745 1.433 . S
C747 N750 1.384 . S
C748 H739 0.929 . S
C748 C740 1.378 . S
C748 C743 1.350 . S
C749 H736 0.929 . S
C749 C741 1.433 . S
C749 N751 1.384 . S
N750 C746 1.427 . S
N750 C747 1.384 . S
N751 C743 1.427 . S
N751 C749 1.384 . S
H752 C758 0.930 . S
H753 C762 0.930 . S
H754 C767 0.929 . S
H755 C765 0.929 . S
H756 C760 0.929 . S
H757 C766 0.929 . S
C758 H752 0.930 . S
C758 C759 1.367 . S
C758 C766 1.378 . S
C759 C758 1.367 . S
C759 C767 1.433 . S
C760 H756 0.929 . S
C760 C762 1.378 . S
C760 C764 1.350 . S
C761 C764 1.463 . S
C761 C766 1.350 . S
C761 N769 1.427 . S
C762 H753 0.930 . S
C762 C760 1.378 . S
C762 C763 1.367 . S
C763 C762 1.367 . S
C763 C765 1.433 . S
C764 C760 1.350 . S
C764 C761 1.463 . S
C764 N768 1.427 . S
C765 H755 0.929 . S
C765 C763 1.433 . S
C765 N768 1.384 . S
C766 H757 0.929 . S
C766 C758 1.378 . S
C766 C761 1.350 . S
C767 H754 0.929 . S
C767 C759 1.433 . S
C767 N769 1.384 . S
N768 C764 1.427 . S
N768 C765 1.384 . S
N769 C761 1.427 . S
N769 C767 1.384 . S
H770 C776 0.930 . S
H771 C780 0.930 . S
H772 C785 0.929 . S
H773 C783 0.929 . S
H774 C778 0.929 . S
H775 C784 0.929 . S
C776 H770 0.930 . S
C776 C777 1.367 . S
C776 C784 1.378 . S
C777 C776 1.367 . S
C777 C785 1.433 . S
C778 H774 0.929 . S
C778 C780 1.378 . S
C778 C782 1.350 . S
C779 C782 1.463 . S
C779 C784 1.350 . S
C779 N787 1.427 . S
C780 H771 0.930 . S
C780 C778 1.378 . S
C780 C781 1.367 . S
C781 C780 1.367 . S
C781 C783 1.433 . S
C782 C778 1.350 . S
C782 C779 1.463 . S
C782 N786 1.427 . S
C783 H773 0.929 . S
C783 C781 1.433 . S
C783 N786 1.384 . S
C784 H775 0.929 . S
C784 C776 1.378 . S
C784 C779 1.350 . S
C785 H772 0.929 . S
C785 C777 1.433 . S
C785 N787 1.384 . S
N786 C782 1.427 . S
N786 C783 1.384 . S
N787 C779 1.427 . S
N787 C785 1.384 . S
H788 C794 0.930 . S
H789 C798 0.930 . S
H790 C803 0.929 . S
H791 C801 0.929 . S
H792 C796 0.929 . S
H793 C802 0.929 . S
C794 H788 0.930 . S
C794 C795 1.367 . S
C794 C802 1.378 . S
C795 C794 1.367 . S
C795 C803 1.433 . S
C796 H792 0.929 . S
C796 C798 1.378 . S
C796 C800 1.350 . S
C797 C800 1.463 . S
C797 C802 1.350 . S
C797 N805 1.427 . S
C798 H789 0.930 . S
C798 C796 1.378 . S
C798 C799 1.367 . S
C799 C798 1.367 . S
C799 C801 1.433 . S
C800 C796 1.350 . S
C800 C797 1.463 . S
C800 N804 1.427 . S
C801 H791 0.929 . S
C801 C799 1.433 . S
C801 N804 1.384 . S
C802 H793 0.929 . S
C802 C794 1.378 . S
C802 C797 1.350 . S
C803 H790 0.929 . S
C803 C795 1.433 . S
C803 N805 1.384 . S
N804 C800 1.427 . S
N804 C801 1.384 . S
N805 C797 1.427 . S
N805 C803 1.384 . S
H806 C812 0.930 . S
H807 C816 0.930 . S
H808 C821 0.929 . S
H809 C819 0.929 . S
H810 C814 0.929 . S
H811 C820 0.929 . S
C812 H806 0.930 . S
C812 C813 1.367 . S
C812 C820 1.378 . S
C813 C812 1.367 . S
C813 C821 1.433 . S
C814 H810 0.929 . S
C814 C816 1.378 . S
C814 C818 1.350 . S
C815 C818 1.463 . S
C815 C820 1.350 . S
C815 N823 1.427 . S
C816 H807 0.930 . S
C816 C814 1.378 . S
C816 C817 1.367 . S
C817 C816 1.367 . S
C817 C819 1.433 . S
C818 C814 1.350 . S
C818 C815 1.463 . S
C818 N822 1.427 . S
C819 H809 0.929 . S
C819 C817 1.433 . S
C819 N822 1.384 . S
C820 H811 0.929 . S
C820 C812 1.378 . S
C820 C815 1.350 . S
C821 H808 0.929 . S
C821 C813 1.433 . S
C821 N823 1.384 . S
N822 C818 1.427 . S
N822 C819 1.384 . S
N823 C815 1.427 . S
N823 C821 1.384 . S
H824 C830 0.930 . S
H825 C834 0.930 . S
H826 C839 0.929 . S
H827 C837 0.929 . S
H828 C832 0.929 . S
H829 C838 0.929 . S
C830 H824 0.930 . S
C830 C831 1.367 . S
C830 C838 1.378 . S
C831 C830 1.367 . S
C831 C839 1.433 1_455 S
C832 H828 0.929 . S
C832 C834 1.378 . S
C832 C836 1.350 . S
C833 C836 1.463 1_455 S
C833 C838 1.350 . S
C833 N841 1.427 1_455 S
C834 H825 0.930 . S
C834 C832 1.378 . S
C834 C835 1.367 . S
C835 C834 1.367 . S
C835 C837 1.433 1_655 S
C836 C832 1.350 . S
C836 C833 1.463 1_655 S
C836 N840 1.427 1_655 S
C837 H827 0.929 . S
C837 C835 1.433 1_455 S
C837 N840 1.384 . S
C838 H829 0.929 . S
C838 C830 1.378 . S
C838 C833 1.350 . S
C839 H826 0.929 . S
C839 C831 1.433 1_655 S
C839 N841 1.384 . S
N840 C836 1.427 1_455 S
N840 C837 1.384 . S
N841 C833 1.427 1_655 S
N841 C839 1.384 . S
H842 C848 0.930 . S
H843 C852 0.930 . S
H844 C857 0.929 . S
H845 C855 0.929 . S
H846 C850 0.929 . S
H847 C856 0.929 . S
C848 H842 0.930 . S
C848 C849 1.367 . S
C848 C856 1.378 . S
C849 C848 1.367 . S
C849 C857 1.433 . S
C850 H846 0.929 . S
C850 C852 1.378 . S
C850 C854 1.350 . S
C851 C854 1.463 . S
C851 C856 1.350 . S
C851 N859 1.427 . S
C852 H843 0.930 . S
C852 C850 1.378 . S
C852 C853 1.367 . S
C853 C852 1.367 . S
C853 C855 1.433 . S
C854 C850 1.350 . S
C854 C851 1.463 . S
C854 N858 1.427 . S
C855 H845 0.929 . S
C855 C853 1.433 . S
C855 N858 1.384 . S
C856 H847 0.929 . S
C856 C848 1.378 . S
C856 C851 1.350 . S
C857 H844 0.929 . S
C857 C849 1.433 . S
C857 N859 1.384 . S
N858 C854 1.427 . S
N858 C855 1.384 . S
N859 C851 1.427 . S
N859 C857 1.384 . S
H860 C866 0.930 . S
H861 C870 0.930 . S
H862 C875 0.929 . S
H863 C873 0.929 . S
H864 C868 0.929 . S
H865 C874 0.929 . S
C866 H860 0.930 . S
C866 C867 1.367 . S
C866 C874 1.378 . S
C867 C866 1.367 . S
C867 C875 1.433 . S
C868 H864 0.929 . S
C868 C870 1.378 . S
C868 C872 1.350 . S
C869 C872 1.463 . S
C869 C874 1.350 . S
C869 N877 1.427 . S
C870 H861 0.930 . S
C870 C868 1.378 . S
C870 C871 1.367 . S
C871 C870 1.367 . S
C871 C873 1.433 . S
C872 C868 1.350 . S
C872 C869 1.463 . S
C872 N876 1.427 . S
C873 H863 0.929 . S
C873 C871 1.433 . S
C873 N876 1.384 . S
C874 H865 0.929 . S
C874 C866 1.378 . S
C874 C869 1.350 . S
C875 H862 0.929 . S
C875 C867 1.433 . S
C875 N877 1.384 . S
N876 C872 1.427 . S
N876 C873 1.384 . S
N877 C869 1.427 . S
N877 C875 1.384 . S
H878 C884 0.930 . S
H879 C888 0.930 . S
H880 C893 0.929 . S
H881 C891 0.929 . S
H882 C886 0.929 . S
H883 C892 0.929 . S
C884 H878 0.930 . S
C884 C885 1.367 1_455 S
C884 C892 1.378 . S
C885 C884 1.367 1_655 S
C885 C893 1.433 . S
C886 H882 0.929 . S
C886 C888 1.378 . S
C886 C890 1.350 1_655 S
C887 C890 1.463 1_665 S
C887 C892 1.350 1_655 S
C887 N895 1.427 . S
C888 H879 0.930 . S
C888 C886 1.378 . S
C888 C889 1.367 1_655 S
C889 C888 1.367 1_455 S
C889 C891 1.433 . S
C890 C886 1.350 1_455 S
C890 C887 1.463 1_445 S
C890 N894 1.427 . S
C891 H881 0.929 . S
C891 C889 1.433 . S
C891 N894 1.384 . S
C892 H883 0.929 . S
C892 C884 1.378 . S
C892 C887 1.350 1_455 S
C893 H880 0.929 . S
C893 C885 1.433 . S
C893 N895 1.384 . S
N894 C890 1.427 . S
N894 C891 1.384 . S
N895 C887 1.427 . S
N895 C893 1.384 . S
H896 C902 0.930 . S
H897 C906 0.930 . S
H898 C911 0.929 . S
H899 C909 0.929 . S
H900 C904 0.929 . S
H901 C910 0.929 . S
C902 H896 0.930 . S
C902 C903 1.367 . S
C902 C910 1.378 . S
C903 C902 1.367 . S
C903 C911 1.433 . S
C904 H900 0.929 . S
C904 C906 1.378 . S
C904 C908 1.350 . S
C905 C908 1.463 . S
C905 C910 1.350 . S
C905 N913 1.427 . S
C906 H897 0.930 . S
C906 C904 1.378 . S
C906 C907 1.367 . S
C907 C906 1.367 . S
C907 C909 1.433 . S
C908 C904 1.350 . S
C908 C905 1.463 . S
C908 N912 1.427 . S
C909 H899 0.929 . S
C909 C907 1.433 . S
C909 N912 1.384 . S
C910 H901 0.929 . S
C910 C902 1.378 . S
C910 C905 1.350 . S
C911 H898 0.929 . S
C911 C903 1.433 . S
C911 N913 1.384 . S
N912 C908 1.427 . S
N912 C909 1.384 . S
N913 C905 1.427 . S
N913 C911 1.384 . S
H914 C920 0.930 . S
H915 C924 0.930 . S
H916 C929 0.929 . S
H917 C927 0.929 . S
H918 C922 0.929 . S
H919 C928 0.929 . S
C920 H914 0.930 . S
C920 C921 1.367 . S
C920 C928 1.378 . S
C921 C920 1.367 . S
C921 C929 1.433 . S
C922 H918 0.929 . S
C922 C924 1.378 . S
C922 C926 1.350 . S
C923 C926 1.463 . S
C923 C928 1.350 . S
C923 N931 1.427 . S
C924 H915 0.930 . S
C924 C922 1.378 . S
C924 C925 1.367 . S
C925 C924 1.367 . S
C925 C927 1.433 . S
C926 C922 1.350 . S
C926 C923 1.463 . S
C926 N930 1.427 . S
C927 H917 0.929 . S
C927 C925 1.433 . S
C927 N930 1.384 . S
C928 H919 0.929 . S
C928 C920 1.378 . S
C928 C923 1.350 . S
C929 H916 0.929 . S
C929 C921 1.433 . S
C929 N931 1.384 . S
N930 C926 1.427 . S
N930 C927 1.384 . S
N931 C923 1.427 . S
N931 C929 1.384 . S
H932 C938 0.930 . S
H933 C942 0.930 . S
H934 C947 0.929 . S
H935 C945 0.929 . S
H936 C940 0.929 . S
H937 C946 0.929 . S
C938 H932 0.930 . S
C938 C939 1.367 . S
C938 C946 1.378 . S
C939 C938 1.367 . S
C939 C947 1.433 . S
C940 H936 0.929 . S
C940 C942 1.378 . S
C940 C944 1.350 . S
C941 C944 1.463 . S
C941 C946 1.350 . S
C941 N949 1.427 . S
C942 H933 0.930 . S
C942 C940 1.378 . S
C942 C943 1.367 . S
C943 C942 1.367 . S
C943 C945 1.433 . S
C944 C940 1.350 . S
C944 C941 1.463 . S
C944 N948 1.427 . S
C945 H935 0.929 . S
C945 C943 1.433 . S
C945 N948 1.384 . S
C946 H937 0.929 . S
C946 C938 1.378 . S
C946 C941 1.350 . S
C947 H934 0.929 . S
C947 C939 1.433 . S
C947 N949 1.384 . S
N948 C944 1.427 . S
N948 C945 1.384 . S
N949 C941 1.427 . S
N949 C947 1.384 . S
H950 C956 0.930 . S
H951 C960 0.930 . S
H952 C965 0.929 . S
H953 C963 0.929 . S
H954 C958 0.929 . S
H955 C964 0.929 . S
C956 H950 0.930 . S
C956 C957 1.367 . S
C956 C964 1.378 . S
C957 C956 1.367 . S
C957 C965 1.433 . S
C958 H954 0.929 . S
C958 C960 1.378 . S
C958 C962 1.350 . S
C959 C962 1.463 1_565 S
C959 C964 1.350 . S
C959 N967 1.427 . S
C960 H951 0.930 . S
C960 C958 1.378 . S
C960 C961 1.367 . S
C961 C960 1.367 . S
C961 C963 1.433 . S
C962 C958 1.350 . S
C962 C959 1.463 1_545 S
C962 N966 1.427 . S
C963 H953 0.929 . S
C963 C961 1.433 . S
C963 N966 1.384 . S
C964 H955 0.929 . S
C964 C956 1.378 . S
C964 C959 1.350 . S
C965 H952 0.929 . S
C965 C957 1.433 . S
C965 N967 1.384 . S
N966 C962 1.427 . S
N966 C963 1.384 . S
N967 C959 1.427 . S
N967 C965 1.384 . S
H968 C974 0.930 1_556 S
H969 C978 0.930 . S
H970 C983 0.929 . S
H971 C981 0.929 1_556 S
H972 C976 0.929 . S
H973 C982 0.929 1_556 S
C974 H968 0.930 1_554 S
C974 C975 1.367 . S
C974 C982 1.378 . S
C975 C974 1.367 . S
C975 C983 1.433 . S
C976 H972 0.929 . S
C976 C978 1.378 . S
C976 C980 1.350 . S
C977 C980 1.463 . S
C977 C982 1.350 . S
C977 N985 1.427 . S
C978 H969 0.930 . S
C978 C976 1.378 . S
C978 C979 1.367 . S
C979 C978 1.367 . S
C979 C981 1.433 . S
C980 C976 1.350 . S
C980 C977 1.463 . S
C980 N984 1.427 . S
C981 H971 0.929 1_554 S
C981 C979 1.433 . S
C981 N984 1.384 . S
C982 H973 0.929 1_554 S
C982 C974 1.378 . S
C982 C977 1.350 . S
C983 H970 0.929 . S
C983 C975 1.433 . S
C983 N985 1.384 . S
N984 C980 1.427 . S
N984 C981 1.384 . S
N985 C977 1.427 . S
N985 C983 1.384 . S
H986 C992 0.930 . S
H987 C996 0.930 . S
H988 C1001 0.929 . S
H989 C999 0.929 . S
H990 C994 0.929 . S
H991 C1000 0.929 . S
C992 H986 0.930 . S
C992 C993 1.367 . S
C992 C1000 1.378 . S
C993 C992 1.367 . S
C993 C1001 1.433 . S
C994 H990 0.929 . S
C994 C996 1.378 . S
C994 C998 1.350 . S
C995 C998 1.463 . S
C995 C1000 1.350 . S
C995 N1003 1.427 . S
C996 H987 0.930 . S
C996 C994 1.378 . S
C996 C997 1.367 . S
C997 C996 1.367 . S
C997 C999 1.433 . S
C998 C994 1.350 . S
C998 C995 1.463 . S
C998 N1002 1.427 . S
C999 H989 0.929 . S
C999 C997 1.433 . S
C999 N1002 1.384 . S
C1000 H991 0.929 . S
C1000 C992 1.378 . S
C1000 C995 1.350 . S
C1001 H988 0.929 . S
C1001 C993 1.433 . S
C1001 N1003 1.384 . S
N1002 C998 1.427 . S
N1002 C999 1.384 . S
N1003 C995 1.427 . S
N1003 C1001 1.384 . S
H1004 C1010 0.930 . S
H1005 C1014 0.930 . S
H1006 C1019 0.929 . S
H1007 C1017 0.929 . S
H1008 C1012 0.929 . S
H1009 C1018 0.929 . S
C1010 H1004 0.930 . S
C1010 C1011 1.367 . S
C1010 C1018 1.378 . S
C1011 C1010 1.367 . S
C1011 C1019 1.433 . S
C1012 H1008 0.929 . S
C1012 C1014 1.378 . S
C1012 C1016 1.350 . S
C1013 C1016 1.463 1_455 S
C1013 C1018 1.350 . S
C1013 N1021 1.427 . S
C1014 H1005 0.930 . S
C1014 C1012 1.378 . S
C1014 C1015 1.367 . S
C1015 C1014 1.367 . S
C1015 C1017 1.433 . S
C1016 C1012 1.350 . S
C1016 C1013 1.463 1_655 S
C1016 N1020 1.427 . S
C1017 H1007 0.929 . S
C1017 C1015 1.433 . S
C1017 N1020 1.384 . S
C1018 H1009 0.929 . S
C1018 C1010 1.378 . S
C1018 C1013 1.350 . S
C1019 H1006 0.929 . S
C1019 C1011 1.433 . S
C1019 N1021 1.384 . S
N1020 C1016 1.427 . S
N1020 C1017 1.384 . S
N1021 C1013 1.427 . S
N1021 C1019 1.384 . S
H1022 C1028 0.930 . S
H1023 C1032 0.930 . S
H1024 C1037 0.929 . S
H1025 C1035 0.929 . S
H1026 C1030 0.929 . S
H1027 C1036 0.929 . S
C1028 H1022 0.930 . S
C1028 C1029 1.367 . S
C1028 C1036 1.378 . S
C1029 C1028 1.367 . S
C1029 C1037 1.433 . S
C1030 H1026 0.929 . S
C1030 C1032 1.378 . S
C1030 C1034 1.350 . S
C1031 C1034 1.463 . S
C1031 C1036 1.350 . S
C1031 N1039 1.427 . S
C1032 H1023 0.930 . S
C1032 C1030 1.378 . S
C1032 C1033 1.367 . S
C1033 C1032 1.367 . S
C1033 C1035 1.433 . S
C1034 C1030 1.350 . S
C1034 C1031 1.463 . S
C1034 N1038 1.427 . S
C1035 H1025 0.929 . S
C1035 C1033 1.433 . S
C1035 N1038 1.384 . S
C1036 H1027 0.929 . S
C1036 C1028 1.378 . S
C1036 C1031 1.350 . S
C1037 H1024 0.929 . S
C1037 C1029 1.433 . S
C1037 N1039 1.384 . S
N1038 C1034 1.427 . S
N1038 C1035 1.384 . S
N1039 C1031 1.427 . S
N1039 C1037 1.384 . S
H1040 C1046 0.930 . S
H1041 C1050 0.930 . S
H1042 C1055 0.929 . S
H1043 C1053 0.929 . S
H1044 C1048 0.929 . S
H1045 C1054 0.929 . S
C1046 H1040 0.930 . S
C1046 C1047 1.367 . S
C1046 C1054 1.378 . S
C1047 C1046 1.367 . S
C1047 C1055 1.433 . S
C1048 H1044 0.929 . S
C1048 C1050 1.378 . S
C1048 C1052 1.350 . S
C1049 C1052 1.463 . S
C1049 C1054 1.350 . S
C1049 N1057 1.427 . S
C1050 H1041 0.930 . S
C1050 C1048 1.378 . S
C1050 C1051 1.367 . S
C1051 C1050 1.367 . S
C1051 C1053 1.433 . S
C1052 C1048 1.350 . S
C1052 C1049 1.463 . S
C1052 N1056 1.427 . S
C1053 H1043 0.929 . S
C1053 C1051 1.433 . S
C1053 N1056 1.384 . S
C1054 H1045 0.929 . S
C1054 C1046 1.378 . S
C1054 C1049 1.350 . S
C1055 H1042 0.929 . S
C1055 C1047 1.433 . S
C1055 N1057 1.384 . S
N1056 C1052 1.427 . S
N1056 C1053 1.384 . S
N1057 C1049 1.427 . S
N1057 C1055 1.384 . S
H1058 C1064 0.924 1_565 S
H1059 C1068 0.924 1_545 S
H1060 C1073 0.929 . S
H1061 C1071 0.929 . S
H1062 C1066 0.929 . S
H1063 C1072 0.929 . S
C1064 H1058 0.924 1_545 S
C1064 C1065 1.367 . S
C1064 C1072 1.378 1_545 S
C1065 C1064 1.367 . S
C1065 C1073 1.433 . S
C1066 H1062 0.929 . S
C1066 C1068 1.378 1_545 S
C1066 C1070 1.350 1_545 S
C1067 C1070 1.463 1_645 S
C1067 C1072 1.350 1_545 S
C1067 N1075 1.427 . S
C1068 H1059 0.924 1_565 S
C1068 C1066 1.378 1_565 S
C1068 C1069 1.367 . S
C1069 C1068 1.367 . S
C1069 C1071 1.433 . S
C1070 C1066 1.350 1_565 S
C1070 C1067 1.463 1_465 S
C1070 N1074 1.427 . S
C1071 H1061 0.929 . S
C1071 C1069 1.433 . S
C1071 N1074 1.384 . S
C1072 H1063 0.929 . S
C1072 C1064 1.378 1_565 S
C1072 C1067 1.350 1_565 S
C1073 H1060 0.929 . S
C1073 C1065 1.433 . S
C1073 N1075 1.384 . S
N1074 C1070 1.427 . S
N1074 C1071 1.384 . S
N1075 C1067 1.427 . S
N1075 C1073 1.384 . S
H1076 C1082 0.930 . S
H1077 C1086 0.930 . S
H1078 C1091 0.929 . S
H1079 C1089 0.929 . S
H1080 C1084 0.929 . S
H1081 C1090 0.929 . S
C1082 H1076 0.930 . S
C1082 C1083 1.367 . S
C1082 C1090 1.378 . S
C1083 C1082 1.367 . S
C1083 C1091 1.433 . S
C1084 H1080 0.929 . S
C1084 C1086 1.378 . S
C1084 C1088 1.350 . S
C1085 C1088 1.463 . S
C1085 C1090 1.350 . S
C1085 N1093 1.427 . S
C1086 H1077 0.930 . S
C1086 C1084 1.378 . S
C1086 C1087 1.367 . S
C1087 C1086 1.367 . S
C1087 C1089 1.433 . S
C1088 C1084 1.350 . S
C1088 C1085 1.463 . S
C1088 N1092 1.427 . S
C1089 H1079 0.929 . S
C1089 C1087 1.433 . S
C1089 N1092 1.384 . S
C1090 H1081 0.929 . S
C1090 C1082 1.378 . S
C1090 C1085 1.350 . S
C1091 H1078 0.929 . S
C1091 C1083 1.433 . S
C1091 N1093 1.384 . S
N1092 C1088 1.427 . S
N1092 C1089 1.384 . S
N1093 C1085 1.427 . S
N1093 C1091 1.384 . S
H1094 C1100 0.930 . S
H1095 C1104 0.930 . S
H1096 C1109 0.929 . S
H1097 C1107 0.929 . S
H1098 C1102 0.929 . S
H1099 C1108 0.929 . S
C1100 H1094 0.930 . S
C1100 C1101 1.367 . S
C1100 C1108 1.378 . S
C1101 C1100 1.367 . S
C1101 C1109 1.433 . S
C1102 H1098 0.929 . S
C1102 C1104 1.378 . S
C1102 C1106 1.350 . S
C1103 C1106 1.463 1_565 S
C1103 C1108 1.350 . S
C1103 N1111 1.427 1_565 S
C1104 H1095 0.930 . S
C1104 C1102 1.378 . S
C1104 C1105 1.367 . S
C1105 C1104 1.367 . S
C1105 C1107 1.433 . S
C1106 C1102 1.350 . S
C1106 C1103 1.463 1_545 S
C1106 N1110 1.427 1_545 S
C1107 H1097 0.929 . S
C1107 C1105 1.433 . S
C1107 N1110 1.384 1_545 S
C1108 H1099 0.929 . S
C1108 C1100 1.378 . S
C1108 C1103 1.350 . S
C1109 H1096 0.929 . S
C1109 C1101 1.433 . S
C1109 N1111 1.384 1_565 S
N1110 C1106 1.427 1_565 S
N1110 C1107 1.384 1_565 S
N1111 C1103 1.427 1_545 S
N1111 C1109 1.384 1_545 S
C543 C45 1.103 . S
C547 C100 1.103 . S
C561 C41 1.105 . S
C565 C161 1.105 . S
C579 C234 1.107 . S
C583 C112 1.103 . S
C597 C175 1.108 . S
C601 C228 1.103 . S
C615 C246 1.100 . S
C619 C301 1.089 . S
C633 C362 1.101 . S
C637 C242 1.109 . S
C651 C313 1.090 . S
C655 C33 1.099 . S
C669 C376 1.090 . S
C673 C27 1.105 . S
C687 C368 1.098 . S
C691 C447 1.091 . S
C705 C443 1.102 . S
C709 C295 1.091 . S
C723 C502 1.102 . S
C727 C380 1.112 . S
C741 C496 1.091 . S
C745 C309 1.104 . S
C759 C514 1.105 . S
C763 C167 1.089 . S
C777 C94 1.091 . S
C781 C510 1.094 . S
C795 C435 1.092 . S
C799 C179 1.095 . S
C813 C429 1.106 . S
C817 C108 1.106 . S
C831 C35 1.890 . S
C835 C24 1.892 . S
C849 C91 1.888 . S
C853 C102 1.895 1_565 S
C867 C158 1.888 1_545 S
C871 C169 1.895 . S
C885 C225 1.892 . S
C889 C236 1.892 . S
C903 C292 1.890 1_545 S
C907 C303 1.893 . S
C921 C359 1.895 . S
C925 C370 1.888 1_565 S
C939 C437 1.890 . S
C943 C426 1.893 . S
C957 C493 1.889 . S
C961 C504 1.895 . S
C975 C508 1.325 . S
C979 C48 1.309 . S
C993 C39 1.325 . S
C997 C517 1.317 . S
C1011 C115 1.326 . S
C1015 C173 1.312 . S
C1029 C441 1.325 . S
C1033 C249 1.312 . S
C1047 C240 1.326 . S
C1051 C450 1.314 . S
C1065 C374 1.322 . S
C1069 C316 1.316 . S
C1083 C383 1.324 . S
C1087 C307 1.314 . S
C1101 C182 1.323 . S
C1105 C106 1.314 . S
