# Generated by pormake.
# Topology snx, (6)-cn, num edge types: 1
# Building blocks:
#     Node 0, Type 0, BuildingBlock: MIDCAF_clean_sbu_0, # of connection points: 6
#     Node 1, Type 0, BuildingBlock: MIDCAF_clean_sbu_0, # of connection points: 6
#     Node 2, Type 0, BuildingBlock: MIDCAF_clean_sbu_0, # of connection points: 6
#     Node 3, Type 0, BuildingBlock: MIDCAF_clean_sbu_0, # of connection points: 6
#     Node 4, Type 0, BuildingBlock: MIDCAF_clean_sbu_0, # of connection points: 6
#     Node 5, Type 0, BuildingBlock: MIDCAF_clean_sbu_0, # of connection points: 6
#     Edge 6, Type (0, 0), BuildingBlock: KIFKEQ_clean_linker_1, # of connection points: 2
#     Edge 7, Type (0, 0), BuildingBlock: KIFKEQ_clean_linker_1, # of connection points: 2
#     Edge 8, Type (0, 0), BuildingBlock: KIFKEQ_clean_linker_1, # of connection points: 2
#     Edge 9, Type (0, 0), BuildingBlock: KIFKEQ_clean_linker_1, # of connection points: 2
#     Edge 10, Type (0, 0), BuildingBlock: KIFKEQ_clean_linker_1, # of connection points: 2
#     Edge 11, Type (0, 0), BuildingBlock: KIFKEQ_clean_linker_1, # of connection points: 2
#     Edge 12, Type (0, 0), BuildingBlock: KIFKEQ_clean_linker_1, # of connection points: 2
#     Edge 13, Type (0, 0), BuildingBlock: KIFKEQ_clean_linker_1, # of connection points: 2
#     Edge 14, Type (0, 0), BuildingBlock: KIFKEQ_clean_linker_1, # of connection points: 2
#     Edge 15, Type (0, 0), BuildingBlock: KIFKEQ_clean_linker_1, # of connection points: 2
#     Edge 16, Type (0, 0), BuildingBlock: KIFKEQ_clean_linker_1, # of connection points: 2
#     Edge 17, Type (0, 0), BuildingBlock: KIFKEQ_clean_linker_1, # of connection points: 2
#     Edge 18, Type (0, 0), BuildingBlock: KIFKEQ_clean_linker_1, # of connection points: 2
#     Edge 19, Type (0, 0), BuildingBlock: KIFKEQ_clean_linker_1, # of connection points: 2
#     Edge 20, Type (0, 0), BuildingBlock: KIFKEQ_clean_linker_1, # of connection points: 2
#     Edge 21, Type (0, 0), BuildingBlock: KIFKEQ_clean_linker_1, # of connection points: 2
#     Edge 22, Type (0, 0), BuildingBlock: KIFKEQ_clean_linker_1, # of connection points: 2
#     Edge 23, Type (0, 0), BuildingBlock: KIFKEQ_clean_linker_1, # of connection points: 2
# Relax obj value: 0.219
# Max RMSD: 0.238
# Mean RMSD: 0.238
data_MOF--net-snx--node1-MIDCAF_clean_sbu_0--edge1-KIFKEQ_clean_linker_1
_symmetry_space_group_name_H-M    P1
_symmetry_Int_Tables_number       1
_symmetry_cell_setting            triclinic
loop_
_symmetry_equiv_pos_as_xyz
'x, y, z'
_cell_length_a     34.461553
_cell_length_b     34.395135
_cell_length_c     22.566087
_cell_angle_alpha  89.814066
_cell_angle_beta   89.870639
_cell_angle_gamma 119.72801
loop_
_atom_site_label
_atom_site_type_symbol
_atom_site_fract_x
_atom_site_fract_y
_atom_site_fract_z
_atom_type_partial_charge
Zn0 Zn 0.08367 0.35639 0.25925 0.0
Zn1 Zn 0.2911 0.36508 0.22444 0.0
Zn2 Zn 0.15293 0.35702 0.25194 0.0
C3 C 0.19283 0.32265 0.16532 0.0
C4 C 0.20629 0.32474 0.31537 0.0
O5 O 0.17051 0.42856 0.25785 0.0
O6 O 0.10504 0.41825 0.28759 0.0
C7 C 0.08108 0.32247 0.14952 0.0
O8 O 0.15573 0.32217 0.17224 0.0
O9 O 0.22379 0.34625 0.20215 0.0
O10 O 0.22953 0.34676 0.27028 0.0
O11 O 0.16884 0.32354 0.3229 0.0
O12 O 0.0629 0.34151 0.17616 0.0
O13 O 0.11494 0.32194 0.17242 0.0
O14 O 0.12543 0.318 0.33333 0.0
O15 O 0.05739 0.30645 0.31735 0.0
C16 C 0.08368 0.29821 0.34664 0.0
O17 O 0.209 0.42583 0.24737 0.0
O18 O 0.24596 0.39029 0.23511 0.0
C19 C 0.14588 0.44446 0.27666 0.0
C20 C 0.24654 0.42773 0.23819 0.0
Zn21 Zn 0.72158 0.09646 0.73429 0.0
Zn22 Zn 0.9191 0.27282 0.76131 0.0
Zn23 Zn 0.79908 0.15462 0.74684 0.0
C24 C 0.87604 0.18908 0.67235 0.0
C25 C 0.86978 0.18127 0.82373 0.0
O26 O 0.75923 0.18806 0.75363 0.0
O27 O 0.69291 0.12898 0.76935 0.0
C28 C 0.7589 0.09868 0.62785 0.0
O29 O 0.83743 0.1545 0.66996 0.0
O30 O 0.88189 0.21555 0.71449 0.0
O31 O 0.87509 0.20886 0.78327 0.0
O32 O 0.8322 0.14532 0.82408 0.0
O33 O 0.72028 0.08798 0.6465 0.0
O34 O 0.79316 0.12189 0.66074 0.0
O35 O 0.79083 0.10678 0.81793 0.0
O36 O 0.72847 0.0514 0.78181 0.0
C37 C 0.761 0.06504 0.81707 0.0
O38 O 0.80737 0.22574 0.75506 0.0
O39 O 0.87239 0.29215 0.76686 0.0
C40 C 0.71764 0.17095 0.76691 0.0
C41 C 0.82972 0.2692 0.76204 0.0
Zn42 Zn 0.6338 0.85749 0.20552 0.0
Zn43 Zn 0.6447 0.73194 0.27477 0.0
Zn44 Zn 0.64064 0.79613 0.23717 0.0
C45 C 0.67827 0.78844 0.3646 0.0
C46 C 0.70355 0.76381 0.17925 0.0
O47 O 0.56785 0.77567 0.23489 0.0
O48 O 0.57565 0.84328 0.23887 0.0
C49 C 0.69293 0.89394 0.29274 0.0
O50 O 0.67764 0.81323 0.32219 0.0
O51 O 0.65792 0.74651 0.35914 0.0
O52 O 0.69565 0.7398 0.22501 0.0
O53 O 0.68269 0.78583 0.17153 0.0
O54 O 0.68573 0.90755 0.24429 0.0
O55 O 0.6752 0.85146 0.30207 0.0
O56 O 0.67435 0.81982 0.14992 0.0
O57 O 0.63725 0.85276 0.11885 0.0
C58 C 0.66476 0.83953 0.10861 0.0
O59 O 0.57043 0.73631 0.24038 0.0
O60 O 0.58578 0.682 0.25515 0.0
C61 C 0.55083 0.80147 0.2413 0.0
C62 C 0.55741 0.69406 0.24454 0.0
Zn63 Zn 0.90315 0.63635 0.69727 0.0
Zn64 Zn 0.77061 0.64649 0.74332 0.0
Zn65 Zn 0.83488 0.64368 0.72153 0.0
C66 C 0.81229 0.71299 0.66311 0.0
C67 C 0.81029 0.66833 0.84661 0.0
O68 O 0.81332 0.57058 0.71924 0.0
O69 O 0.87762 0.57141 0.70913 0.0
C70 C 0.89379 0.67953 0.60126 0.0
O71 O 0.83023 0.68836 0.65387 0.0
O72 O 0.78733 0.70517 0.70764 0.0
O73 O 0.77017 0.64543 0.83072 0.0
O74 O 0.84182 0.67596 0.80955 0.0
O75 O 0.91323 0.65796 0.61504 0.0
O76 O 0.86467 0.68018 0.63657 0.0
O77 O 0.88217 0.67753 0.79331 0.0
O78 O 0.94305 0.67942 0.75822 0.0
C79 C 0.92415 0.69077 0.79701 0.0
O80 O 0.77455 0.57434 0.72216 0.0
O81 O 0.72272 0.59262 0.70589 0.0
C82 C 0.83579 0.54977 0.71606 0.0
C83 C 0.73331 0.56263 0.71204 0.0
Zn84 Zn 0.26888 0.90852 0.19958 0.0
Zn85 Zn 0.07467 0.72551 0.26276 0.0
Zn86 Zn 0.19757 0.84069 0.23699 0.0
C87 C 0.09735 0.78885 0.15764 0.0
C88 C 0.13282 0.81366 0.32401 0.0
O89 O 0.25289 0.82409 0.23307 0.0
O90 O 0.31207 0.88608 0.2012 0.0
C91 C 0.20261 0.88974 0.11585 0.0
O92 O 0.13842 0.81549 0.1741 0.0
O93 O 0.06897 0.75424 0.18692 0.0
O94 O 0.12814 0.78226 0.29064 0.0
O95 O 0.16997 0.84992 0.31968 0.0
O96 O 0.24438 0.9129 0.12231 0.0
O97 O 0.17856 0.86048 0.15504 0.0
O98 O 0.20942 0.88985 0.30491 0.0
O99 O 0.2679 0.9482 0.26436 0.0
C100 C 0.23878 0.93167 0.30508 0.0
O101 O 0.21336 0.78671 0.2457 0.0
O102 O 0.14228 0.75184 0.25767 0.0
C103 C 0.29467 0.84597 0.21865 0.0
C104 C 0.17772 0.74948 0.25409 0.0
Zn105 Zn 0.36931 0.27077 0.75032 0.0
Zn106 Zn 0.35542 0.11746 0.75454 0.0
Zn107 Zn 0.35861 0.19323 0.75123 0.0
C108 C 0.30904 0.11813 0.65421 0.0
C109 C 0.30736 0.1165 0.85124 0.0
O110 O 0.43079 0.24459 0.76157 0.0
O111 O 0.42998 0.30673 0.78333 0.0
C112 C 0.34136 0.23942 0.63819 0.0
O113 O 0.32659 0.15963 0.66834 0.0
O114 O 0.31412 0.09119 0.68688 0.0
O115 O 0.32745 0.09658 0.83298 0.0
O116 O 0.31348 0.1526 0.82536 0.0
O117 O 0.36219 0.27655 0.66431 0.0
O118 O 0.33389 0.20321 0.66495 0.0
O119 O 0.31658 0.19528 0.82419 0.0
O120 O 0.31773 0.25826 0.80102 0.0
C121 C 0.30244 0.22322 0.83229 0.0
O122 O 0.42749 0.20288 0.7581 0.0
O123 O 0.41918 0.13574 0.74271 0.0
C124 C 0.45147 0.28621 0.77656 0.0
C125 C 0.4444 0.17715 0.75063 0.0
H126 H 0.20449 0.51177 0.20329 0.0
H127 H 0.12406 0.4859 0.36084 0.0
H128 H 0.21622 0.58804 0.19892 0.0
H129 H 0.13745 0.56222 0.35871 0.0
H130 H 0.10936 0.66912 0.29077 0.0
H131 H 0.10871 0.59842 0.29984 0.0
H132 H 0.24541 0.66187 0.23723 0.0
H133 H 0.24457 0.73195 0.22432 0.0
C134 C 0.19065 0.52297 0.23805 0.0
C135 C 0.16289 0.49296 0.2819 0.0
C136 C 0.19726 0.56661 0.23561 0.0
C137 C 0.17668 0.58098 0.27754 0.0
C138 C 0.15241 0.5519 0.3244 0.0
C139 C 0.14518 0.50831 0.32613 0.0
C140 C 0.13922 0.66795 0.27879 0.0
C141 C 0.17744 0.70641 0.25818 0.0
C142 C 0.13913 0.6275 0.28469 0.0
C143 C 0.17741 0.62447 0.27059 0.0
C144 C 0.2154 0.66286 0.24878 0.0
C145 C 0.21524 0.70328 0.24228 0.0
H146 H 0.67433 0.18022 0.86137 0.0
H147 H 0.70731 0.21755 0.67804 0.0
H148 H 0.6157 0.20043 0.85621 0.0
H149 H 0.64947 0.23882 0.67282 0.0
H150 H 0.49107 0.15896 0.67051 0.0
H151 H 0.56908 0.17823 0.67535 0.0
H152 H 0.58562 0.25404 0.8348 0.0
H153 H 0.50673 0.23472 0.82931 0.0
C154 C 0.67062 0.19515 0.82097 0.0
C155 C 0.69572 0.19817 0.7704 0.0
C156 C 0.63711 0.20678 0.81794 0.0
C157 C 0.6277 0.22077 0.76389 0.0
C158 C 0.65589 0.22797 0.71498 0.0
C159 C 0.6894 0.2164 0.71812 0.0
C160 C 0.51168 0.18064 0.70576 0.0
C161 C 0.4931 0.1953 0.74958 0.0
C162 C 0.55649 0.19209 0.70828 0.0
C163 C 0.5836 0.21782 0.75538 0.0
C164 C 0.56552 0.23427 0.79795 0.0
C165 C 0.52058 0.22336 0.79476 0.0
H166 H 0.27142 0.50785 0.29266 0.0
H167 H 0.31656 0.44358 0.16846 0.0
H168 H 0.34537 0.57508 0.28997 0.0
H169 H 0.3888 0.51115 0.16173 0.0
H170 H 0.52731 0.60644 0.22249 0.0
H171 H 0.45155 0.54575 0.21802 0.0
H172 H 0.40303 0.63889 0.24376 0.0
H173 H 0.48017 0.69946 0.25409 0.0
C174 C 0.29699 0.50856 0.26391 0.0
C175 C 0.28881 0.47038 0.23175 0.0
C176 C 0.33931 0.54716 0.26194 0.0
C177 C 0.3738 0.54852 0.22663 0.0
C178 C 0.36401 0.51105 0.19135 0.0
C179 C 0.3224 0.47229 0.19473 0.0
C180 C 0.50064 0.61428 0.22709 0.0
C181 C 0.51007 0.6584 0.23739 0.0
C182 C 0.45678 0.57924 0.22367 0.0
C183 C 0.42056 0.58706 0.22922 0.0
C184 C 0.42985 0.63131 0.23918 0.0
C185 C 0.47416 0.66646 0.24374 0.0
H186 H 0.84407 0.49667 0.63615 0.0
H187 H 0.78115 0.49291 0.80301 0.0
H188 H 0.82378 0.41866 0.64831 0.0
H189 H 0.76033 0.4138 0.81576 0.0
H190 H 0.82549 0.32067 0.84945 0.0
H191 H 0.80895 0.38148 0.83706 0.0
H192 H 0.76821 0.33985 0.65663 0.0
H193 H 0.78623 0.27984 0.66909 0.0
C194 C 0.8246 0.4785 0.67468 0.0
C195 C 0.81415 0.50057 0.71863 0.0
C196 C 0.81264 0.43362 0.68157 0.0
C197 C 0.79048 0.40983 0.73315 0.0
C198 C 0.7776 0.43127 0.77567 0.0
C199 C 0.78926 0.47635 0.76835 0.0
C200 C 0.81123 0.32352 0.80802 0.0
C201 C 0.80646 0.29534 0.76046 0.0
C202 C 0.8016 0.35827 0.80087 0.0
C203 C 0.78768 0.3659 0.74561 0.0
C204 C 0.77932 0.33518 0.69958 0.0
C205 C 0.78906 0.30048 0.70681 0.0
H206 H 0.48884 0.7594 0.15597 0.0
H207 H 0.50621 0.81001 0.3341 0.0
H208 H 0.41609 0.75585 0.15087 0.0
H209 H 0.43376 0.80652 0.32946 0.0
H210 H 0.29715 0.79229 0.30649 0.0
H211 H 0.34975 0.76382 0.31501 0.0
H212 H 0.40812 0.82467 0.14629 0.0
H213 H 0.35597 0.85291 0.13816 0.0
C214 C 0.47604 0.76775 0.1949 0.0
C215 C 0.50258 0.78451 0.24564 0.0
C216 C 0.43471 0.76613 0.19188 0.0
C217 C 0.41949 0.78139 0.23954 0.0
C218 C 0.44433 0.79415 0.29225 0.0
C219 C 0.48577 0.79613 0.295 0.0
C220 C 0.32079 0.79875 0.27092 0.0
C221 C 0.32267 0.82469 0.22167 0.0
C222 C 0.35079 0.78252 0.27576 0.0
C223 C 0.38282 0.79171 0.23111 0.0
C224 C 0.38333 0.81626 0.18089 0.0
C225 C 0.35384 0.83287 0.17649 0.0
H226 H 0.65278 0.53794 0.75882 0.0
H227 H 0.73011 0.48229 0.68469 0.0
H228 H 0.59248 0.46382 0.78101 0.0
H229 H 0.6691 0.40631 0.70957 0.0
H230 H 0.51017 0.29142 0.69166 0.0
H231 H 0.5864 0.35428 0.67866 0.0
H232 H 0.5789 0.40338 0.85176 0.0
H233 H 0.50245 0.342 0.86324 0.0
C234 C 0.65703 0.5097 0.74737 0.0
C235 C 0.6967 0.51607 0.72095 0.0
C236 C 0.62259 0.46706 0.76108 0.0
C237 C 0.6265 0.42917 0.74885 0.0
C238 C 0.66553 0.43502 0.72055 0.0
C239 C 0.70055 0.47834 0.70688 0.0
C240 C 0.52567 0.31476 0.72775 0.0
C241 C 0.50055 0.31251 0.77811 0.0
C242 C 0.56927 0.35068 0.72034 0.0
C243 C 0.58806 0.38438 0.76349 0.0
C244 C 0.56481 0.37846 0.81713 0.0
C245 C 0.5212 0.34324 0.82397 0.0
H246 H 0.24009 0.24876 0.82941 0.0
H247 H 0.29459 0.18658 0.94279 0.0
H248 H 0.20321 0.26007 0.91371 0.0
H249 H 0.25644 0.19683 0.02805 0.0
H250 H 0.26218 0.30632 0.15551 0.0
H251 H 0.27621 0.26652 0.07769 0.0
H252 H 0.15118 0.23562 -0.005 0.0
H253 H 0.13797 0.27727 0.07249 0.0
C254 C 0.24288 0.23611 0.87231 0.0
C255 C 0.27071 0.21746 0.87992 0.0
C256 C 0.22142 0.24229 0.92069 0.0
C257 C 0.22749 0.2301 0.97789 0.0
C258 C 0.25178 0.20731 0.9846 0.0
C259 C 0.27322 0.20094 0.93582 0.0
C260 C 0.23761 0.29112 0.12085 0.0
C261 C 0.1994 0.29582 0.1195 0.0
C262 C 0.24526 0.26745 0.07668 0.0
C263 C 0.21481 0.24774 0.03003 0.0
C264 C 0.1755 0.25072 0.03009 0.0
C265 C 0.16789 0.27455 0.07442 0.0
H266 H 0.8801 0.13008 0.59551 0.0
H267 H 0.95469 0.26634 0.6573 0.0
H268 H 0.93975 0.14473 0.52519 0.0
H269 H 0.01326 0.2818 0.58566 0.0
H270 H 0.11717 0.30929 0.45887 0.0
H271 H 0.07252 0.27258 0.54746 0.0
H272 H 0.96162 0.18477 0.43577 0.0
H273 H 0.00664 0.22014 0.34875 0.0
C274 C 0.90919 0.16317 0.59385 0.0
C275 C 0.91237 0.19732 0.63083 0.0
C276 C 0.94349 0.17157 0.55384 0.0
C277 C 0.98134 0.21454 0.54939 0.0
C278 C 0.98515 0.24809 0.58837 0.0
C279 C 0.95116 0.23947 0.62886 0.0
C280 C 0.08405 0.28061 0.45374 0.0
C281 C 0.06494 0.26772 0.39744 0.0
C282 C 0.0582 0.26001 0.50429 0.0
C283 C 0.013 0.22657 0.4988 0.0
C284 C 0.99615 0.21027 0.4421 0.0
C285 C 0.0219 0.23069 0.39197 0.0
H286 H 0.7417 0.98271 0.78221 0.0
H287 H 0.7892 0.07149 0.93236 0.0
H288 H 0.73343 0.92098 0.84407 0.0
H289 H 0.77951 0.009 -0.00461 0.0
H290 H 0.63531 0.83051 -0.00371 0.0
H291 H 0.67411 0.8843 0.91749 0.0
H292 H 0.79407 0.94651 0.02336 0.0
H293 H 0.75472 0.89155 0.10233 0.0
C294 C 0.75104 0.98909 0.82848 0.0
C295 C 0.76499 0.03143 0.8531 0.0
C296 C 0.74646 0.95378 0.86377 0.0
C297 C 0.75496 0.95984 0.92476 0.0
C298 C 0.77289 0.0033 0.94841 0.0
C299 C 0.77814 0.03902 0.9126 0.0
C300 C 0.67066 0.85406 0.00123 0.0
C301 C 0.69213 0.857 0.05495 0.0
C302 C 0.69299 0.88515 0.95625 0.0
C303 C 0.73703 0.92023 0.96466 0.0
C304 C 0.76002 0.92016 0.016 0.0
C305 C 0.73775 0.88836 0.06074 0.0
H306 H 0.76795 0.83593 0.35477 0.0
H307 H 0.66019 0.77847 0.482 0.0
H308 H 0.81979 0.83745 0.43025 0.0
H309 H 0.71186 0.78162 0.55787 0.0
H310 H 0.80394 0.78546 0.68751 0.0
H311 H 0.7857 0.82766 0.61701 0.0
H312 H 0.80993 0.76053 0.47242 0.0
H313 H 0.82784 0.71772 0.54317 0.0
C314 C 0.75604 0.82622 0.39985 0.0
C315 C 0.71035 0.8072 0.41311 0.0
C316 C 0.78555 0.8267 0.44271 0.0
C317 C 0.76972 0.80934 0.49957 0.0
C318 C 0.72507 0.79557 0.51449 0.0
C319 C 0.69544 0.7939 0.47129 0.0
C320 C 0.80685 0.78075 0.64058 0.0
C321 C 0.81613 0.74747 0.62068 0.0
C322 C 0.79662 0.80512 0.60037 0.0
C323 C 0.79574 0.79682 0.53953 0.0
C324 C 0.81057 0.76769 0.51923 0.0
C325 C 0.82072 0.74307 0.55967 0.0
H326 H 0.89808 0.68684 0.91163 0.0
H327 H 0.01055 0.75749 0.79352 0.0
H328 H 0.94464 0.72719 -0.0047 0.0
H329 H 0.05741 0.79942 0.87698 0.0
H330 H 0.13116 0.793 0.04788 0.0
H331 H 0.09077 0.7819 0.95538 0.0
H332 H 0.98702 0.79276 0.04959 0.0
H333 H 0.02661 0.80114 0.14233 0.0
C334 C 0.93245 0.71219 0.90347 0.0
C335 C 0.9508 0.71901 0.84645 0.0
C336 C 0.95931 0.73557 0.95138 0.0
C337 C 0.00505 0.76664 0.94307 0.0
C338 C 0.02262 0.77522 0.8852 0.0
C339 C 0.99583 0.75131 0.83744 0.0
C340 C 0.10048 0.79449 0.04813 0.0
C341 C 0.08148 0.7973 0.10165 0.0
C342 C 0.07723 0.78822 -0.00482 0.0
C343 C 0.03489 0.78519 -0.00479 0.0
C344 C 0.01876 0.79344 0.04824 0.0
C345 C 0.04157 0.79876 0.10119 0.0
H346 H 0.2262 0.04809 0.63843 0.0
H347 H 0.34139 0.14905 0.54433 0.0
H348 H 0.19746 0.00587 0.54714 0.0
H349 H 0.31506 0.1056 0.45378 0.0
H350 H 0.21109 0.90951 0.41948 0.0
H351 H 0.21795 0.95991 0.49892 0.0
H352 H 0.26946 0.07044 0.37409 0.0
H353 H 0.26522 0.02007 0.29562 0.0
C354 C 0.24468 0.06168 0.59754 0.0
C355 C 0.28598 0.10136 0.59787 0.0
C356 C 0.22869 0.03725 0.54544 0.0
C357 C 0.25464 0.05129 0.49334 0.0
C358 C 0.29394 0.0935 0.49275 0.0
C359 C 0.30923 0.11857 0.54464 0.0
C360 C 0.22348 0.94451 0.40913 0.0
C361 C 0.23844 0.96113 0.35191 0.0
C362 C 0.22699 0.97352 0.45452 0.0
C363 C 0.24455 0.01964 0.44327 0.0
C364 C 0.25685 0.03551 0.38489 0.0
C365 C 0.25434 0.00665 0.33986 0.0
H366 H 0.76614 0.73895 0.19684 0.0
H367 H 0.71248 0.78778 0.06137 0.0
H368 H 0.80938 0.72585 0.12214 0.0
H369 H 0.75672 0.77548 0.98663 0.0
H370 H 0.8495 0.75766 0.864 0.0
H371 H 0.83666 0.793 0.95055 0.0
H372 H 0.77395 0.66553 0.04171 0.0
H373 H 0.78558 0.63041 0.95491 0.0
C374 C 0.76427 0.74785 0.15125 0.0
C375 C 0.73539 0.76399 0.1349 0.0
C376 C 0.78927 0.74052 0.10863 0.0
C377 C 0.78627 0.74948 0.04871 0.0
C378 C 0.76007 0.7688 0.03273 0.0
C379 C 0.73468 0.77584 0.07549 0.0
C380 C 0.83491 0.73786 0.90372 0.0
C381 C 0.81882 0.69154 0.90346 0.0
C382 C 0.82708 0.7579 0.95279 0.0
C383 C 0.804 0.7319 0.00249 0.0
C384 C 0.79213 0.68646 0.00419 0.0
C385 C 0.79897 0.66634 0.95476 0.0
H386 H 0.89397 0.65391 0.48884 0.0
H387 H 0.93675 0.77029 0.59857 0.0
H388 H 0.94892 0.69912 0.4142 0.0
H389 H 0.99272 0.81633 0.52368 0.0
H390 H 0.13027 0.8379 0.439 0.0
H391 H 0.06274 0.81556 0.49863 0.0
H392 H 0.98147 0.75948 0.34272 0.0
H393 H 0.04853 0.78075 0.28434 0.0
C394 C 0.91363 0.68977 0.49536 0.0
C395 C 0.91104 0.70875 0.54897 0.0
C396 C 0.94544 0.71581 0.45277 0.0
C397 C 0.97583 0.76133 0.46337 0.0
C398 C 0.97018 0.78127 0.51458 0.0
C399 C 0.93769 0.75514 0.55696 0.0
C400 C 0.09797 0.82179 0.41753 0.0
C401 C 0.09434 0.80981 0.35765 0.0
C402 C 0.05928 0.80921 0.45143 0.0
C403 C 0.01657 0.78495 0.42557 0.0
C404 C 0.01368 0.77714 0.36429 0.0
C405 C 0.05209 0.78916 0.33088 0.0
H406 H 0.16246 0.93786 0.13825 0.0
H407 H 0.20491 0.88401 -0.00387 0.0
H408 H 0.17035 0.99836 0.07303 0.0
H409 H 0.21053 0.94298 0.93 0.0
H410 H 0.31068 0.11716 0.97174 0.0
H411 H 0.2593 0.05453 0.03498 0.0
H412 H 0.17271 0.99272 0.88549 0.0
H413 H 0.22322 0.05632 0.82301 0.0
C414 C 0.17021 0.93705 0.09184 0.0
C415 C 0.18301 0.90636 0.07193 0.0
C416 C 0.17519 0.97196 0.05481 0.0
C417 C 0.19144 0.97547 -0.00315 0.0
C418 C 0.19765 0.94082 0.97446 0.0
C419 C 0.19407 0.90679 0.01205 0.0
C420 C 0.27923 0.09166 0.95354 0.0
C421 C 0.2704 0.09171 0.89301 0.0
C422 C 0.2499 0.05571 -0.0105 0.0
C423 C 0.21214 0.01883 0.96487 0.0
C424 C 0.20134 0.02091 0.90552 0.0
C425 C 0.23007 0.05739 0.87001 0.0
H426 H 0.25916 0.17867 0.59536 0.0
H427 H 0.3808 0.3 0.55041 0.0
H428 H 0.22224 0.18966 0.50898 0.0
H429 H 0.34459 0.31076 0.46461 0.0
H430 H 0.27774 0.31236 0.29891 0.0
H431 H 0.30828 0.28009 0.3676 0.0
H432 H 0.2009 0.25051 0.49065 0.0
H433 H 0.16995 0.28283 0.4213 0.0
C434 C 0.27835 0.20674 0.56584 0.0
C435 C 0.32268 0.23864 0.57937 0.0
C436 C 0.25717 0.21328 0.51694 0.0
C437 C 0.28044 0.25127 0.48043 0.0
C438 C 0.32583 0.28102 0.49159 0.0
C439 C 0.3466 0.27493 0.54076 0.0
C440 C 0.26043 0.29891 0.34041 0.0
C441 C 0.22204 0.3013 0.35532 0.0
C442 C 0.27783 0.28011 0.3796 0.0
C443 C 0.25722 0.26312 0.43464 0.0
C444 C 0.21733 0.26306 0.44828 0.0
C445 C 0.19987 0.28199 0.4089 0.0
H446 H 0.86275 0.14895 0.93736 0.0
H447 H 0.95779 0.23751 0.80701 0.0
H448 H 0.92213 0.17837 0.01245 0.0
H449 H 0.01625 0.2668 0.88141 0.0
H450 H 0.06117 0.35613 0.05408 0.0
H451 H 0.01444 0.31425 0.97059 0.0
H452 H 0.00508 0.19273 0.04013 0.0
H453 H 0.05325 0.2354 0.12356 0.0
C454 C 0.89638 0.17388 0.92457 0.0
C455 C 0.90548 0.19203 0.8671 0.0
C456 C 0.9303 0.19049 0.96724 0.0
C457 C 0.97345 0.2252 0.95254 0.0
C458 C 0.98311 0.24048 0.89387 0.0
C459 C 0.94951 0.22398 0.85157 0.0
C460 C 0.05021 0.32076 0.05045 0.0
C461 C 0.06096 0.29889 0.09436 0.0
C462 C 0.0235 0.29679 0.00292 0.0
C463 C 0.00622 0.25032 -0.00077 0.0
C464 C 0.01808 0.22854 0.04225 0.0
C465 C 0.04579 0.25288 0.08936 0.0
H466 H 0.7429 0.9843 0.27938 0.0
H467 H 0.69677 0.87946 0.41178 0.0
H468 H 0.77011 0.04041 0.35744 0.0
H469 H 0.72613 0.936 0.48959 0.0
H470 H 0.80887 0.05898 0.60993 0.0
H471 H 0.80444 0.01221 0.52545 0.0
H472 H 0.71284 0.0451 0.43875 0.0
H473 H 0.71636 0.09082 0.52375 0.0
C474 C 0.73973 0.97317 0.325 0.0
C475 C 0.71757 0.92723 0.33938 0.0
C476 C 0.75544 0.00538 0.36949 0.0
C477 C 0.75011 0.99234 0.42914 0.0
C478 C 0.73105 0.94674 0.44366 0.0
C479 C 0.71451 0.91438 0.3991 0.0
C480 C 0.78899 0.05731 0.57188 0.0
C481 C 0.76333 0.07876 0.57264 0.0
C482 C 0.78617 0.03031 0.52406 0.0
C483 C 0.75843 0.02534 0.47593 0.0
C484 C 0.7348 0.04889 0.47526 0.0
C485 C 0.73677 0.07494 0.52366 0.0
loop_
_geom_bond_atom_site_label_1
_geom_bond_atom_site_label_2
_geom_bond_distance
_geom_bond_site_symmetry_2
_ccdc_geom_bond_type
Zn0 O6 1.920 . S
Zn0 O12 1.898 . S
Zn0 O15 1.905 . S
Zn1 O9 1.905 . S
Zn1 O10 1.898 . S
Zn1 O18 1.920 . S
Zn2 O5 2.080 . S
Zn2 O8 2.114 . S
Zn2 O11 2.120 . S
Zn2 O13 2.120 . S
Zn2 O14 2.114 . S
Zn2 O17 2.080 . S
C3 O8 1.166 . S
C3 O9 1.182 . S
C4 O10 1.167 . S
C4 O11 1.299 . S
O5 Zn2 2.080 . S
O5 C19 1.305 . S
O6 Zn0 1.920 . S
O6 C19 1.234 . S
C7 O12 1.167 . S
C7 O13 1.299 . S
O8 Zn2 2.114 . S
O8 C3 1.166 . S
O9 Zn1 1.905 . S
O9 C3 1.182 . S
O10 Zn1 1.898 . S
O10 C4 1.167 . S
O11 Zn2 2.120 . S
O11 C4 1.299 . S
O12 Zn0 1.898 . S
O12 C7 1.167 . S
O13 Zn2 2.120 . S
O13 C7 1.299 . S
O14 Zn2 2.114 . S
O14 C16 1.166 . S
O15 Zn0 1.905 . S
O15 C16 1.182 . S
C16 O14 1.166 . S
C16 O15 1.182 . S
O17 Zn2 2.080 . S
O17 C20 1.305 . S
O18 Zn1 1.920 . S
O18 C20 1.234 . S
C19 O5 1.305 . S
C19 O6 1.234 . S
C20 O17 1.305 . S
C20 O18 1.234 . S
Zn21 O27 1.920 . S
Zn21 O33 1.898 . S
Zn21 O36 1.905 . S
Zn22 O30 1.905 . S
Zn22 O31 1.898 . S
Zn22 O39 1.920 . S
Zn23 O26 2.080 . S
Zn23 O29 2.114 . S
Zn23 O32 2.120 . S
Zn23 O34 2.120 . S
Zn23 O35 2.114 . S
Zn23 O38 2.080 . S
C24 O29 1.166 . S
C24 O30 1.182 . S
C25 O31 1.167 . S
C25 O32 1.299 . S
O26 Zn23 2.080 . S
O26 C40 1.305 . S
O27 Zn21 1.920 . S
O27 C40 1.234 . S
C28 O33 1.167 . S
C28 O34 1.299 . S
O29 Zn23 2.114 . S
O29 C24 1.166 . S
O30 Zn22 1.905 . S
O30 C24 1.182 . S
O31 Zn22 1.898 . S
O31 C25 1.167 . S
O32 Zn23 2.120 . S
O32 C25 1.299 . S
O33 Zn21 1.898 . S
O33 C28 1.167 . S
O34 Zn23 2.120 . S
O34 C28 1.299 . S
O35 Zn23 2.114 . S
O35 C37 1.166 . S
O36 Zn21 1.905 . S
O36 C37 1.182 . S
C37 O35 1.166 . S
C37 O36 1.182 . S
O38 Zn23 2.080 . S
O38 C41 1.305 . S
O39 Zn22 1.920 . S
O39 C41 1.234 . S
C40 O26 1.305 . S
C40 O27 1.234 . S
C41 O38 1.305 . S
C41 O39 1.234 . S
Zn42 O48 1.920 . S
Zn42 O54 1.898 . S
Zn42 O57 1.905 . S
Zn43 O51 1.905 . S
Zn43 O52 1.898 . S
Zn43 O60 1.920 . S
Zn44 O47 2.080 . S
Zn44 O50 2.114 . S
Zn44 O53 2.120 . S
Zn44 O55 2.120 . S
Zn44 O56 2.114 . S
Zn44 O59 2.080 . S
C45 O50 1.166 . S
C45 O51 1.182 . S
C46 O52 1.167 . S
C46 O53 1.299 . S
O47 Zn44 2.080 . S
O47 C61 1.305 . S
O48 Zn42 1.920 . S
O48 C61 1.234 . S
C49 O54 1.167 . S
C49 O55 1.299 . S
O50 Zn44 2.114 . S
O50 C45 1.166 . S
O51 Zn43 1.905 . S
O51 C45 1.182 . S
O52 Zn43 1.898 . S
O52 C46 1.167 . S
O53 Zn44 2.120 . S
O53 C46 1.299 . S
O54 Zn42 1.898 . S
O54 C49 1.167 . S
O55 Zn44 2.120 . S
O55 C49 1.299 . S
O56 Zn44 2.114 . S
O56 C58 1.166 . S
O57 Zn42 1.905 . S
O57 C58 1.182 . S
C58 O56 1.166 . S
C58 O57 1.182 . S
O59 Zn44 2.080 . S
O59 C62 1.305 . S
O60 Zn43 1.920 . S
O60 C62 1.234 . S
C61 O47 1.305 . S
C61 O48 1.234 . S
C62 O59 1.305 . S
C62 O60 1.234 . S
Zn63 O69 1.920 . S
Zn63 O75 1.898 . S
Zn63 O78 1.905 . S
Zn64 O72 1.905 . S
Zn64 O73 1.898 . S
Zn64 O81 1.920 . S
Zn65 O68 2.080 . S
Zn65 O71 2.114 . S
Zn65 O74 2.120 . S
Zn65 O76 2.120 . S
Zn65 O77 2.114 . S
Zn65 O80 2.080 . S
C66 O71 1.166 . S
C66 O72 1.182 . S
C67 O73 1.167 . S
C67 O74 1.299 . S
O68 Zn65 2.080 . S
O68 C82 1.305 . S
O69 Zn63 1.920 . S
O69 C82 1.234 . S
C70 O75 1.167 . S
C70 O76 1.299 . S
O71 Zn65 2.114 . S
O71 C66 1.166 . S
O72 Zn64 1.905 . S
O72 C66 1.182 . S
O73 Zn64 1.898 . S
O73 C67 1.167 . S
O74 Zn65 2.120 . S
O74 C67 1.299 . S
O75 Zn63 1.898 . S
O75 C70 1.167 . S
O76 Zn65 2.120 . S
O76 C70 1.299 . S
O77 Zn65 2.114 . S
O77 C79 1.166 . S
O78 Zn63 1.905 . S
O78 C79 1.182 . S
C79 O77 1.166 . S
C79 O78 1.182 . S
O80 Zn65 2.080 . S
O80 C83 1.305 . S
O81 Zn64 1.920 . S
O81 C83 1.234 . S
C82 O68 1.305 . S
C82 O69 1.234 . S
C83 O80 1.305 . S
C83 O81 1.234 . S
Zn84 O90 1.920 . S
Zn84 O96 1.898 . S
Zn84 O99 1.905 . S
Zn85 O93 1.905 . S
Zn85 O94 1.898 . S
Zn85 O102 1.920 . S
Zn86 O89 2.080 . S
Zn86 O92 2.114 . S
Zn86 O95 2.120 . S
Zn86 O97 2.120 . S
Zn86 O98 2.114 . S
Zn86 O101 2.080 . S
C87 O92 1.166 . S
C87 O93 1.182 . S
C88 O94 1.167 . S
C88 O95 1.299 . S
O89 Zn86 2.080 . S
O89 C103 1.305 . S
O90 Zn84 1.920 . S
O90 C103 1.234 . S
C91 O96 1.167 . S
C91 O97 1.299 . S
O92 Zn86 2.114 . S
O92 C87 1.166 . S
O93 Zn85 1.905 . S
O93 C87 1.182 . S
O94 Zn85 1.898 . S
O94 C88 1.167 . S
O95 Zn86 2.120 . S
O95 C88 1.299 . S
O96 Zn84 1.898 . S
O96 C91 1.167 . S
O97 Zn86 2.120 . S
O97 C91 1.299 . S
O98 Zn86 2.114 . S
O98 C100 1.166 . S
O99 Zn84 1.905 . S
O99 C100 1.182 . S
C100 O98 1.166 . S
C100 O99 1.182 . S
O101 Zn86 2.080 . S
O101 C104 1.305 . S
O102 Zn85 1.920 . S
O102 C104 1.234 . S
C103 O89 1.305 . S
C103 O90 1.234 . S
C104 O101 1.305 . S
C104 O102 1.234 . S
Zn105 O111 1.920 . S
Zn105 O117 1.898 . S
Zn105 O120 1.905 . S
Zn106 O114 1.905 . S
Zn106 O115 1.898 . S
Zn106 O123 1.920 . S
Zn107 O110 2.080 . S
Zn107 O113 2.114 . S
Zn107 O116 2.120 . S
Zn107 O118 2.120 . S
Zn107 O119 2.114 . S
Zn107 O122 2.080 . S
C108 O113 1.166 . S
C108 O114 1.182 . S
C109 O115 1.167 . S
C109 O116 1.299 . S
O110 Zn107 2.080 . S
O110 C124 1.305 . S
O111 Zn105 1.920 . S
O111 C124 1.234 . S
C112 O117 1.167 . S
C112 O118 1.299 . S
O113 Zn107 2.114 . S
O113 C108 1.166 . S
O114 Zn106 1.905 . S
O114 C108 1.182 . S
O115 Zn106 1.898 . S
O115 C109 1.167 . S
O116 Zn107 2.120 . S
O116 C109 1.299 . S
O117 Zn105 1.898 . S
O117 C112 1.167 . S
O118 Zn107 2.120 . S
O118 C112 1.299 . S
O119 Zn107 2.114 . S
O119 C121 1.166 . S
O120 Zn105 1.905 . S
O120 C121 1.182 . S
C121 O119 1.166 . S
C121 O120 1.182 . S
O122 Zn107 2.080 . S
O122 C125 1.305 . S
O123 Zn106 1.920 . S
O123 C125 1.234 . S
C124 O110 1.305 . S
C124 O111 1.234 . S
C125 O122 1.305 . S
C125 O123 1.234 . S
H126 C134 0.950 . S
H127 C139 0.950 . S
H128 C136 0.950 . S
H129 C138 0.950 . S
H130 C140 0.950 . S
H131 C142 0.950 . S
H132 C144 0.950 . S
H133 C145 0.950 . S
C134 H126 0.950 . S
C134 C135 1.386 . S
C134 C136 1.391 . S
C135 C134 1.386 . S
C135 C139 1.393 . S
C136 H128 0.950 . S
C136 C134 1.391 . S
C136 C137 1.400 . S
C137 C136 1.400 . S
C137 C138 1.398 . S
C137 C143 1.491 . S
C138 H129 0.950 . S
C138 C137 1.398 . S
C138 C139 1.391 . S
C139 H127 0.950 . S
C139 C135 1.393 . S
C139 C138 1.391 . S
C140 H130 0.950 . S
C140 C141 1.386 . S
C140 C142 1.391 . S
C141 C140 1.386 . S
C141 C145 1.393 . S
C142 H131 0.950 . S
C142 C140 1.391 . S
C142 C143 1.400 . S
C143 C137 1.491 . S
C143 C142 1.400 . S
C143 C144 1.398 . S
C144 H132 0.950 . S
C144 C143 1.398 . S
C144 C145 1.391 . S
C145 H133 0.950 . S
C145 C141 1.393 . S
C145 C144 1.391 . S
H146 C154 0.950 . S
H147 C159 0.950 . S
H148 C156 0.950 . S
H149 C158 0.950 . S
H150 C160 0.950 . S
H151 C162 0.950 . S
H152 C164 0.950 . S
H153 C165 0.950 . S
C154 H146 0.950 . S
C154 C155 1.386 . S
C154 C156 1.391 . S
C155 C154 1.386 . S
C155 C159 1.393 . S
C156 H148 0.950 . S
C156 C154 1.391 . S
C156 C157 1.400 . S
C157 C156 1.400 . S
C157 C158 1.398 . S
C157 C163 1.491 . S
C158 H149 0.950 . S
C158 C157 1.398 . S
C158 C159 1.391 . S
C159 H147 0.950 . S
C159 C155 1.393 . S
C159 C158 1.391 . S
C160 H150 0.950 . S
C160 C161 1.386 . S
C160 C162 1.391 . S
C161 C160 1.386 . S
C161 C165 1.393 . S
C162 H151 0.950 . S
C162 C160 1.391 . S
C162 C163 1.400 . S
C163 C157 1.491 . S
C163 C162 1.400 . S
C163 C164 1.398 . S
C164 H152 0.950 . S
C164 C163 1.398 . S
C164 C165 1.391 . S
C165 H153 0.950 . S
C165 C161 1.393 . S
C165 C164 1.391 . S
H166 C174 0.950 . S
H167 C179 0.950 . S
H168 C176 0.950 . S
H169 C178 0.950 . S
H170 C180 0.950 . S
H171 C182 0.950 . S
H172 C184 0.950 . S
H173 C185 0.950 . S
C174 H166 0.950 . S
C174 C175 1.386 . S
C174 C176 1.391 . S
C175 C174 1.386 . S
C175 C179 1.393 . S
C176 H168 0.950 . S
C176 C174 1.391 . S
C176 C177 1.400 . S
C177 C176 1.400 . S
C177 C178 1.398 . S
C177 C183 1.491 . S
C178 H169 0.950 . S
C178 C177 1.398 . S
C178 C179 1.391 . S
C179 H167 0.950 . S
C179 C175 1.393 . S
C179 C178 1.391 . S
C180 H170 0.950 . S
C180 C181 1.386 . S
C180 C182 1.391 . S
C181 C180 1.386 . S
C181 C185 1.393 . S
C182 H171 0.950 . S
C182 C180 1.391 . S
C182 C183 1.400 . S
C183 C177 1.491 . S
C183 C182 1.400 . S
C183 C184 1.398 . S
C184 H172 0.950 . S
C184 C183 1.398 . S
C184 C185 1.391 . S
C185 H173 0.950 . S
C185 C181 1.393 . S
C185 C184 1.391 . S
H186 C194 0.950 . S
H187 C199 0.950 . S
H188 C196 0.950 . S
H189 C198 0.950 . S
H190 C200 0.950 . S
H191 C202 0.950 . S
H192 C204 0.950 . S
H193 C205 0.950 . S
C194 H186 0.950 . S
C194 C195 1.386 . S
C194 C196 1.391 . S
C195 C194 1.386 . S
C195 C199 1.393 . S
C196 H188 0.950 . S
C196 C194 1.391 . S
C196 C197 1.400 . S
C197 C196 1.400 . S
C197 C198 1.398 . S
C197 C203 1.491 . S
C198 H189 0.950 . S
C198 C197 1.398 . S
C198 C199 1.391 . S
C199 H187 0.950 . S
C199 C195 1.393 . S
C199 C198 1.391 . S
C200 H190 0.950 . S
C200 C201 1.386 . S
C200 C202 1.391 . S
C201 C200 1.386 . S
C201 C205 1.393 . S
C202 H191 0.950 . S
C202 C200 1.391 . S
C202 C203 1.400 . S
C203 C197 1.491 . S
C203 C202 1.400 . S
C203 C204 1.398 . S
C204 H192 0.950 . S
C204 C203 1.398 . S
C204 C205 1.391 . S
C205 H193 0.950 . S
C205 C201 1.393 . S
C205 C204 1.391 . S
H206 C214 0.950 . S
H207 C219 0.950 . S
H208 C216 0.950 . S
H209 C218 0.950 . S
H210 C220 0.950 . S
H211 C222 0.950 . S
H212 C224 0.950 . S
H213 C225 0.950 . S
C214 H206 0.950 . S
C214 C215 1.386 . S
C214 C216 1.391 . S
C215 C214 1.386 . S
C215 C219 1.393 . S
C216 H208 0.950 . S
C216 C214 1.391 . S
C216 C217 1.400 . S
C217 C216 1.400 . S
C217 C218 1.398 . S
C217 C223 1.491 . S
C218 H209 0.950 . S
C218 C217 1.398 . S
C218 C219 1.391 . S
C219 H207 0.950 . S
C219 C215 1.393 . S
C219 C218 1.391 . S
C220 H210 0.950 . S
C220 C221 1.386 . S
C220 C222 1.391 . S
C221 C220 1.386 . S
C221 C225 1.393 . S
C222 H211 0.950 . S
C222 C220 1.391 . S
C222 C223 1.400 . S
C223 C217 1.491 . S
C223 C222 1.400 . S
C223 C224 1.398 . S
C224 H212 0.950 . S
C224 C223 1.398 . S
C224 C225 1.391 . S
C225 H213 0.950 . S
C225 C221 1.393 . S
C225 C224 1.391 . S
H226 C234 0.950 . S
H227 C239 0.950 . S
H228 C236 0.950 . S
H229 C238 0.950 . S
H230 C240 0.950 . S
H231 C242 0.950 . S
H232 C244 0.950 . S
H233 C245 0.950 . S
C234 H226 0.950 . S
C234 C235 1.386 . S
C234 C236 1.391 . S
C235 C234 1.386 . S
C235 C239 1.393 . S
C236 H228 0.950 . S
C236 C234 1.391 . S
C236 C237 1.400 . S
C237 C236 1.400 . S
C237 C238 1.398 . S
C237 C243 1.491 . S
C238 H229 0.950 . S
C238 C237 1.398 . S
C238 C239 1.391 . S
C239 H227 0.950 . S
C239 C235 1.393 . S
C239 C238 1.391 . S
C240 H230 0.950 . S
C240 C241 1.386 . S
C240 C242 1.391 . S
C241 C240 1.386 . S
C241 C245 1.393 . S
C242 H231 0.950 . S
C242 C240 1.391 . S
C242 C243 1.400 . S
C243 C237 1.491 . S
C243 C242 1.400 . S
C243 C244 1.398 . S
C244 H232 0.950 . S
C244 C243 1.398 . S
C244 C245 1.391 . S
C245 H233 0.950 . S
C245 C241 1.393 . S
C245 C244 1.391 . S
H246 C254 0.950 . S
H247 C259 0.950 . S
H248 C256 0.950 . S
H249 C258 0.950 . S
H250 C260 0.950 . S
H251 C262 0.950 . S
H252 C264 0.950 . S
H253 C265 0.950 . S
C254 H246 0.950 . S
C254 C255 1.386 . S
C254 C256 1.391 . S
C255 C254 1.386 . S
C255 C259 1.393 . S
C256 H248 0.950 . S
C256 C254 1.391 . S
C256 C257 1.400 . S
C257 C256 1.400 . S
C257 C258 1.398 . S
C257 C263 1.491 1_556 S
C258 H249 0.950 . S
C258 C257 1.398 . S
C258 C259 1.391 . S
C259 H247 0.950 . S
C259 C255 1.393 . S
C259 C258 1.391 . S
C260 H250 0.950 . S
C260 C261 1.386 . S
C260 C262 1.391 . S
C261 C260 1.386 . S
C261 C265 1.393 . S
C262 H251 0.950 . S
C262 C260 1.391 . S
C262 C263 1.400 . S
C263 C257 1.491 1_554 S
C263 C262 1.400 . S
C263 C264 1.398 . S
C264 H252 0.950 . S
C264 C263 1.398 . S
C264 C265 1.391 . S
C265 H253 0.950 . S
C265 C261 1.393 . S
C265 C264 1.391 . S
H266 C274 0.950 . S
H267 C279 0.950 . S
H268 C276 0.950 . S
H269 C278 0.950 . S
H270 C280 0.950 . S
H271 C282 0.950 . S
H272 C284 0.950 . S
H273 C285 0.950 . S
C274 H266 0.950 . S
C274 C275 1.386 . S
C274 C276 1.391 . S
C275 C274 1.386 . S
C275 C279 1.393 . S
C276 H268 0.950 . S
C276 C274 1.391 . S
C276 C277 1.400 . S
C277 C276 1.400 . S
C277 C278 1.398 . S
C277 C283 1.491 1_655 S
C278 H269 0.950 . S
C278 C277 1.398 . S
C278 C279 1.391 . S
C279 H267 0.950 . S
C279 C275 1.393 . S
C279 C278 1.391 . S
C280 H270 0.950 . S
C280 C281 1.386 . S
C280 C282 1.391 . S
C281 C280 1.386 . S
C281 C285 1.393 . S
C282 H271 0.950 . S
C282 C280 1.391 . S
C282 C283 1.400 . S
C283 C277 1.491 1_455 S
C283 C282 1.400 . S
C283 C284 1.398 . S
C284 H272 0.950 . S
C284 C283 1.398 . S
C284 C285 1.391 . S
C285 H273 0.950 . S
C285 C281 1.393 . S
C285 C284 1.391 . S
H286 C294 0.950 . S
H287 C299 0.950 . S
H288 C296 0.950 1_565 S
H289 C298 0.950 1_554 S
H290 C300 0.950 . S
H291 C302 0.950 1_545 S
H292 C304 0.950 1_556 S
H293 C305 0.950 . S
C294 H286 0.950 . S
C294 C295 1.386 . S
C294 C296 1.391 . S
C295 C294 1.386 . S
C295 C299 1.393 . S
C296 H288 0.950 1_545 S
C296 C294 1.391 . S
C296 C297 1.400 . S
C297 C296 1.400 . S
C297 C298 1.398 . S
C297 C303 1.491 1_546 S
C298 H289 0.950 1_556 S
C298 C297 1.398 . S
C298 C299 1.391 . S
C299 H287 0.950 . S
C299 C295 1.393 . S
C299 C298 1.391 . S
C300 H290 0.950 . S
C300 C301 1.386 . S
C300 C302 1.391 . S
C301 C300 1.386 . S
C301 C305 1.393 . S
C302 H291 0.950 1_565 S
C302 C300 1.391 . S
C302 C303 1.400 . S
C303 C297 1.491 1_564 S
C303 C302 1.400 . S
C303 C304 1.398 . S
C304 H292 0.950 1_554 S
C304 C303 1.398 . S
C304 C305 1.391 . S
C305 H293 0.950 . S
C305 C301 1.393 . S
C305 C304 1.391 . S
H306 C314 0.950 . S
H307 C319 0.950 . S
H308 C316 0.950 . S
H309 C318 0.950 . S
H310 C320 0.950 . S
H311 C322 0.950 . S
H312 C324 0.950 . S
H313 C325 0.950 . S
C314 H306 0.950 . S
C314 C315 1.386 . S
C314 C316 1.391 . S
C315 C314 1.386 . S
C315 C319 1.393 . S
C316 H308 0.950 . S
C316 C314 1.391 . S
C316 C317 1.400 . S
C317 C316 1.400 . S
C317 C318 1.398 . S
C317 C323 1.491 . S
C318 H309 0.950 . S
C318 C317 1.398 . S
C318 C319 1.391 . S
C319 H307 0.950 . S
C319 C315 1.393 . S
C319 C318 1.391 . S
C320 H310 0.950 . S
C320 C321 1.386 . S
C320 C322 1.391 . S
C321 C320 1.386 . S
C321 C325 1.393 . S
C322 H311 0.950 . S
C322 C320 1.391 . S
C322 C323 1.400 . S
C323 C317 1.491 . S
C323 C322 1.400 . S
C323 C324 1.398 . S
C324 H312 0.950 . S
C324 C323 1.398 . S
C324 C325 1.391 . S
C325 H313 0.950 . S
C325 C321 1.393 . S
C325 C324 1.391 . S
H326 C334 0.950 . S
H327 C339 0.950 . S
H328 C336 0.950 1_554 S
H329 C338 0.950 1_455 S
H330 C340 0.950 . S
H331 C342 0.950 1_556 S
H332 C344 0.950 1_655 S
H333 C345 0.950 . S
C334 H326 0.950 . S
C334 C335 1.386 . S
C334 C336 1.391 . S
C335 C334 1.386 . S
C335 C339 1.393 . S
C336 H328 0.950 1_556 S
C336 C334 1.391 . S
C336 C337 1.400 . S
C337 C336 1.400 . S
C337 C338 1.398 . S
C337 C343 1.491 1_656 S
C338 H329 0.950 1_655 S
C338 C337 1.398 . S
C338 C339 1.391 . S
C339 H327 0.950 . S
C339 C335 1.393 . S
C339 C338 1.391 . S
C340 H330 0.950 . S
C340 C341 1.386 . S
C340 C342 1.391 . S
C341 C340 1.386 . S
C341 C345 1.393 . S
C342 H331 0.950 1_554 S
C342 C340 1.391 . S
C342 C343 1.400 . S
C343 C337 1.491 1_454 S
C343 C342 1.400 . S
C343 C344 1.398 . S
C344 H332 0.950 1_455 S
C344 C343 1.398 . S
C344 C345 1.391 . S
C345 H333 0.950 . S
C345 C341 1.393 . S
C345 C344 1.391 . S
H346 C354 0.950 . S
H347 C359 0.950 . S
H348 C356 0.950 . S
H349 C358 0.950 . S
H350 C360 0.950 . S
H351 C362 0.950 . S
H352 C364 0.950 . S
H353 C365 0.950 . S
C354 H346 0.950 . S
C354 C355 1.386 . S
C354 C356 1.391 . S
C355 C354 1.386 . S
C355 C359 1.393 . S
C356 H348 0.950 . S
C356 C354 1.391 . S
C356 C357 1.400 . S
C357 C356 1.400 . S
C357 C358 1.398 . S
C357 C363 1.491 1_545 S
C358 H349 0.950 . S
C358 C357 1.398 . S
C358 C359 1.391 . S
C359 H347 0.950 . S
C359 C355 1.393 . S
C359 C358 1.391 . S
C360 H350 0.950 . S
C360 C361 1.386 . S
C360 C362 1.391 . S
C361 C360 1.386 . S
C361 C365 1.393 . S
C362 H351 0.950 . S
C362 C360 1.391 . S
C362 C363 1.400 . S
C363 C357 1.491 1_565 S
C363 C362 1.400 . S
C363 C364 1.398 . S
C364 H352 0.950 . S
C364 C363 1.398 . S
C364 C365 1.391 . S
C365 H353 0.950 . S
C365 C361 1.393 . S
C365 C364 1.391 . S
H366 C374 0.950 . S
H367 C379 0.950 . S
H368 C376 0.950 . S
H369 C378 0.950 1_556 S
H370 C380 0.950 . S
H371 C382 0.950 . S
H372 C384 0.950 1_554 S
H373 C385 0.950 . S
C374 H366 0.950 . S
C374 C375 1.386 . S
C374 C376 1.391 . S
C375 C374 1.386 . S
C375 C379 1.393 . S
C376 H368 0.950 . S
C376 C374 1.391 . S
C376 C377 1.400 . S
C377 C376 1.400 . S
C377 C378 1.398 . S
C377 C383 1.491 1_554 S
C378 H369 0.950 1_554 S
C378 C377 1.398 . S
C378 C379 1.391 . S
C379 H367 0.950 . S
C379 C375 1.393 . S
C379 C378 1.391 . S
C380 H370 0.950 . S
C380 C381 1.386 . S
C380 C382 1.391 . S
C381 C380 1.386 . S
C381 C385 1.393 . S
C382 H371 0.950 . S
C382 C380 1.391 . S
C382 C383 1.400 . S
C383 C377 1.491 1_556 S
C383 C382 1.400 . S
C383 C384 1.398 . S
C384 H372 0.950 1_556 S
C384 C383 1.398 . S
C384 C385 1.391 . S
C385 H373 0.950 . S
C385 C381 1.393 . S
C385 C384 1.391 . S
H386 C394 0.950 . S
H387 C399 0.950 . S
H388 C396 0.950 . S
H389 C398 0.950 1_455 S
H390 C400 0.950 . S
H391 C402 0.950 . S
H392 C404 0.950 1_655 S
H393 C405 0.950 . S
C394 H386 0.950 . S
C394 C395 1.386 . S
C394 C396 1.391 . S
C395 C394 1.386 . S
C395 C399 1.393 . S
C396 H388 0.950 . S
C396 C394 1.391 . S
C396 C397 1.400 . S
C397 C396 1.400 . S
C397 C398 1.398 . S
C397 C403 1.491 1_655 S
C398 H389 0.950 1_655 S
C398 C397 1.398 . S
C398 C399 1.391 . S
C399 H387 0.950 . S
C399 C395 1.393 . S
C399 C398 1.391 . S
C400 H390 0.950 . S
C400 C401 1.386 . S
C400 C402 1.391 . S
C401 C400 1.386 . S
C401 C405 1.393 . S
C402 H391 0.950 . S
C402 C400 1.391 . S
C402 C403 1.400 . S
C403 C397 1.491 1_455 S
C403 C402 1.400 . S
C403 C404 1.398 . S
C404 H392 0.950 1_455 S
C404 C403 1.398 . S
C404 C405 1.391 . S
C405 H393 0.950 . S
C405 C401 1.393 . S
C405 C404 1.391 . S
H406 C414 0.950 . S
H407 C419 0.950 . S
H408 C416 0.950 . S
H409 C418 0.950 . S
H410 C420 0.950 . S
H411 C422 0.950 . S
H412 C424 0.950 . S
H413 C425 0.950 . S
C414 H406 0.950 . S
C414 C415 1.386 . S
C414 C416 1.391 . S
C415 C414 1.386 . S
C415 C419 1.393 . S
C416 H408 0.950 . S
C416 C414 1.391 . S
C416 C417 1.400 . S
C417 C416 1.400 . S
C417 C418 1.398 . S
C417 C423 1.491 1_564 S
C418 H409 0.950 . S
C418 C417 1.398 . S
C418 C419 1.391 . S
C419 H407 0.950 . S
C419 C415 1.393 . S
C419 C418 1.391 . S
C420 H410 0.950 . S
C420 C421 1.386 . S
C420 C422 1.391 . S
C421 C420 1.386 . S
C421 C425 1.393 . S
C422 H411 0.950 . S
C422 C420 1.391 . S
C422 C423 1.400 . S
C423 C417 1.491 1_546 S
C423 C422 1.400 . S
C423 C424 1.398 . S
C424 H412 0.950 . S
C424 C423 1.398 . S
C424 C425 1.391 . S
C425 H413 0.950 . S
C425 C421 1.393 . S
C425 C424 1.391 . S
H426 C434 0.950 . S
H427 C439 0.950 . S
H428 C436 0.950 . S
H429 C438 0.950 . S
H430 C440 0.950 . S
H431 C442 0.950 . S
H432 C444 0.950 . S
H433 C445 0.950 . S
C434 H426 0.950 . S
C434 C435 1.386 . S
C434 C436 1.391 . S
C435 C434 1.386 . S
C435 C439 1.393 . S
C436 H428 0.950 . S
C436 C434 1.391 . S
C436 C437 1.400 . S
C437 C436 1.400 . S
C437 C438 1.398 . S
C437 C443 1.491 . S
C438 H429 0.950 . S
C438 C437 1.398 . S
C438 C439 1.391 . S
C439 H427 0.950 . S
C439 C435 1.393 . S
C439 C438 1.391 . S
C440 H430 0.950 . S
C440 C441 1.386 . S
C440 C442 1.391 . S
C441 C440 1.386 . S
C441 C445 1.393 . S
C442 H431 0.950 . S
C442 C440 1.391 . S
C442 C443 1.400 . S
C443 C437 1.491 . S
C443 C442 1.400 . S
C443 C444 1.398 . S
C444 H432 0.950 . S
C444 C443 1.398 . S
C444 C445 1.391 . S
C445 H433 0.950 . S
C445 C441 1.393 . S
C445 C444 1.391 . S
H446 C454 0.950 . S
H447 C459 0.950 . S
H448 C456 0.950 1_554 S
H449 C458 0.950 . S
H450 C460 0.950 . S
H451 C462 0.950 1_556 S
H452 C464 0.950 . S
H453 C465 0.950 . S
C454 H446 0.950 . S
C454 C455 1.386 . S
C454 C456 1.391 . S
C455 C454 1.386 . S
C455 C459 1.393 . S
C456 H448 0.950 1_556 S
C456 C454 1.391 . S
C456 C457 1.400 . S
C457 C456 1.400 . S
C457 C458 1.398 . S
C457 C463 1.491 1_656 S
C458 H449 0.950 . S
C458 C457 1.398 . S
C458 C459 1.391 . S
C459 H447 0.950 . S
C459 C455 1.393 . S
C459 C458 1.391 . S
C460 H450 0.950 . S
C460 C461 1.386 . S
C460 C462 1.391 . S
C461 C460 1.386 . S
C461 C465 1.393 . S
C462 H451 0.950 1_554 S
C462 C460 1.391 . S
C462 C463 1.400 . S
C463 C457 1.491 1_454 S
C463 C462 1.400 . S
C463 C464 1.398 . S
C464 H452 0.950 . S
C464 C463 1.398 . S
C464 C465 1.391 . S
C465 H453 0.950 . S
C465 C461 1.393 . S
C465 C464 1.391 . S
H466 C474 0.950 . S
H467 C479 0.950 . S
H468 C476 0.950 . S
H469 C478 0.950 . S
H470 C480 0.950 . S
H471 C482 0.950 . S
H472 C484 0.950 . S
H473 C485 0.950 . S
C474 H466 0.950 . S
C474 C475 1.386 . S
C474 C476 1.391 . S
C475 C474 1.386 . S
C475 C479 1.393 . S
C476 H468 0.950 . S
C476 C474 1.391 . S
C476 C477 1.400 . S
C477 C476 1.400 . S
C477 C478 1.398 . S
C477 C483 1.491 1_565 S
C478 H469 0.950 . S
C478 C477 1.398 . S
C478 C479 1.391 . S
C479 H467 0.950 . S
C479 C475 1.393 . S
C479 C478 1.391 . S
C480 H470 0.950 . S
C480 C481 1.386 . S
C480 C482 1.391 . S
C481 C480 1.386 . S
C481 C485 1.393 . S
C482 H471 0.950 . S
C482 C480 1.391 . S
C482 C483 1.400 . S
C483 C477 1.491 1_545 S
C483 C482 1.400 . S
C483 C484 1.398 . S
C484 H472 0.950 . S
C484 C483 1.398 . S
C484 C485 1.391 . S
C485 H473 0.950 . S
C485 C481 1.393 . S
C485 C484 1.391 . S
C135 C19 1.384 . S
C141 C104 1.401 . S
C155 C40 1.417 . S
C161 C125 1.381 . S
C175 C20 1.381 . S
C181 C62 1.407 . S
C195 C82 1.402 . S
C201 C41 1.418 . S
C215 C61 1.404 . S
C221 C103 1.382 . S
C235 C83 1.413 . S
C241 C124 1.409 . S
C255 C121 1.429 . S
C261 C3 1.419 . S
C275 C24 1.420 . S
C281 C16 1.428 . S
C295 C37 1.435 . S
C301 C58 1.408 . S
C315 C45 1.431 . S
C321 C66 1.396 . S
C335 C79 1.396 . S
C341 C87 1.424 . S
C355 C108 1.424 . S
C361 C100 1.425 . S
C375 C46 1.218 . S
C381 C67 1.232 . S
C395 C70 1.211 . S
C401 C88 1.189 . S
C415 C91 1.185 . S
C421 C109 1.182 . S
C435 C112 1.188 . S
C441 C4 1.210 . S
C455 C25 1.191 . S
C461 C7 1.181 . S
C475 C49 1.223 . S
C481 C28 1.233 . S
