# Generated by pormake.
# Topology sog, (5)-cn, num edge types: 1
# Building blocks:
#     Node 0, Type 0, BuildingBlock: BEQFEK_clean_sbu_0, # of connection points: 5
#     Node 1, Type 0, BuildingBlock: BEQFEK_clean_sbu_0, # of connection points: 5
#     Node 2, Type 0, BuildingBlock: BEQFEK_clean_sbu_0, # of connection points: 5
#     Node 3, Type 0, BuildingBlock: BEQFEK_clean_sbu_0, # of connection points: 5
#     Node 4, Type 0, BuildingBlock: BEQFEK_clean_sbu_0, # of connection points: 5
#     Node 5, Type 0, BuildingBlock: BEQFEK_clean_sbu_0, # of connection points: 5
#     Node 6, Type 0, BuildingBlock: BEQFEK_clean_sbu_0, # of connection points: 5
#     Node 7, Type 0, BuildingBlock: BEQFEK_clean_sbu_0, # of connection points: 5
#     Node 8, Type 0, BuildingBlock: BEQFEK_clean_sbu_0, # of connection points: 5
#     Node 9, Type 0, BuildingBlock: BEQFEK_clean_sbu_0, # of connection points: 5
#     Node 10, Type 0, BuildingBlock: BEQFEK_clean_sbu_0, # of connection points: 5
#     Node 11, Type 0, BuildingBlock: BEQFEK_clean_sbu_0, # of connection points: 5
#     Node 12, Type 0, BuildingBlock: BEQFEK_clean_sbu_0, # of connection points: 5
#     Node 13, Type 0, BuildingBlock: BEQFEK_clean_sbu_0, # of connection points: 5
#     Node 14, Type 0, BuildingBlock: BEQFEK_clean_sbu_0, # of connection points: 5
#     Node 15, Type 0, BuildingBlock: BEQFEK_clean_sbu_0, # of connection points: 5
#     Node 16, Type 0, BuildingBlock: BEQFEK_clean_sbu_0, # of connection points: 5
#     Node 17, Type 0, BuildingBlock: BEQFEK_clean_sbu_0, # of connection points: 5
#     Node 18, Type 0, BuildingBlock: BEQFEK_clean_sbu_0, # of connection points: 5
#     Node 19, Type 0, BuildingBlock: BEQFEK_clean_sbu_0, # of connection points: 5
#     Node 20, Type 0, BuildingBlock: BEQFEK_clean_sbu_0, # of connection points: 5
#     Node 21, Type 0, BuildingBlock: BEQFEK_clean_sbu_0, # of connection points: 5
#     Node 22, Type 0, BuildingBlock: BEQFEK_clean_sbu_0, # of connection points: 5
#     Node 23, Type 0, BuildingBlock: BEQFEK_clean_sbu_0, # of connection points: 5
#     Node 24, Type 0, BuildingBlock: BEQFEK_clean_sbu_0, # of connection points: 5
#     Node 25, Type 0, BuildingBlock: BEQFEK_clean_sbu_0, # of connection points: 5
#     Node 26, Type 0, BuildingBlock: BEQFEK_clean_sbu_0, # of connection points: 5
#     Node 27, Type 0, BuildingBlock: BEQFEK_clean_sbu_0, # of connection points: 5
#     Node 28, Type 0, BuildingBlock: BEQFEK_clean_sbu_0, # of connection points: 5
#     Node 29, Type 0, BuildingBlock: BEQFEK_clean_sbu_0, # of connection points: 5
#     Node 30, Type 0, BuildingBlock: BEQFEK_clean_sbu_0, # of connection points: 5
#     Node 31, Type 0, BuildingBlock: BEQFEK_clean_sbu_0, # of connection points: 5
#     Edge 32, Type (0, 0), BuildingBlock: UVAHIK_clean_linker_0, # of connection points: 2
#     Edge 33, Type (0, 0), BuildingBlock: UVAHIK_clean_linker_0, # of connection points: 2
#     Edge 34, Type (0, 0), BuildingBlock: UVAHIK_clean_linker_0, # of connection points: 2
#     Edge 35, Type (0, 0), BuildingBlock: UVAHIK_clean_linker_0, # of connection points: 2
#     Edge 36, Type (0, 0), BuildingBlock: UVAHIK_clean_linker_0, # of connection points: 2
#     Edge 37, Type (0, 0), BuildingBlock: UVAHIK_clean_linker_0, # of connection points: 2
#     Edge 38, Type (0, 0), BuildingBlock: UVAHIK_clean_linker_0, # of connection points: 2
#     Edge 39, Type (0, 0), BuildingBlock: UVAHIK_clean_linker_0, # of connection points: 2
#     Edge 40, Type (0, 0), BuildingBlock: UVAHIK_clean_linker_0, # of connection points: 2
#     Edge 41, Type (0, 0), BuildingBlock: UVAHIK_clean_linker_0, # of connection points: 2
#     Edge 42, Type (0, 0), BuildingBlock: UVAHIK_clean_linker_0, # of connection points: 2
#     Edge 43, Type (0, 0), BuildingBlock: UVAHIK_clean_linker_0, # of connection points: 2
#     Edge 44, Type (0, 0), BuildingBlock: UVAHIK_clean_linker_0, # of connection points: 2
#     Edge 45, Type (0, 0), BuildingBlock: UVAHIK_clean_linker_0, # of connection points: 2
#     Edge 46, Type (0, 0), BuildingBlock: UVAHIK_clean_linker_0, # of connection points: 2
#     Edge 47, Type (0, 0), BuildingBlock: UVAHIK_clean_linker_0, # of connection points: 2
#     Edge 48, Type (0, 0), BuildingBlock: UVAHIK_clean_linker_0, # of connection points: 2
#     Edge 49, Type (0, 0), BuildingBlock: UVAHIK_clean_linker_0, # of connection points: 2
#     Edge 50, Type (0, 0), BuildingBlock: UVAHIK_clean_linker_0, # of connection points: 2
#     Edge 51, Type (0, 0), BuildingBlock: UVAHIK_clean_linker_0, # of connection points: 2
#     Edge 52, Type (0, 0), BuildingBlock: UVAHIK_clean_linker_0, # of connection points: 2
#     Edge 53, Type (0, 0), BuildingBlock: UVAHIK_clean_linker_0, # of connection points: 2
#     Edge 54, Type (0, 0), BuildingBlock: UVAHIK_clean_linker_0, # of connection points: 2
#     Edge 55, Type (0, 0), BuildingBlock: UVAHIK_clean_linker_0, # of connection points: 2
#     Edge 56, Type (0, 0), BuildingBlock: UVAHIK_clean_linker_0, # of connection points: 2
#     Edge 57, Type (0, 0), BuildingBlock: UVAHIK_clean_linker_0, # of connection points: 2
#     Edge 58, Type (0, 0), BuildingBlock: UVAHIK_clean_linker_0, # of connection points: 2
#     Edge 59, Type (0, 0), BuildingBlock: UVAHIK_clean_linker_0, # of connection points: 2
#     Edge 60, Type (0, 0), BuildingBlock: UVAHIK_clean_linker_0, # of connection points: 2
#     Edge 61, Type (0, 0), BuildingBlock: UVAHIK_clean_linker_0, # of connection points: 2
#     Edge 62, Type (0, 0), BuildingBlock: UVAHIK_clean_linker_0, # of connection points: 2
#     Edge 63, Type (0, 0), BuildingBlock: UVAHIK_clean_linker_0, # of connection points: 2
#     Edge 64, Type (0, 0), BuildingBlock: UVAHIK_clean_linker_0, # of connection points: 2
#     Edge 65, Type (0, 0), BuildingBlock: UVAHIK_clean_linker_0, # of connection points: 2
#     Edge 66, Type (0, 0), BuildingBlock: UVAHIK_clean_linker_0, # of connection points: 2
#     Edge 67, Type (0, 0), BuildingBlock: UVAHIK_clean_linker_0, # of connection points: 2
#     Edge 68, Type (0, 0), BuildingBlock: UVAHIK_clean_linker_0, # of connection points: 2
#     Edge 69, Type (0, 0), BuildingBlock: UVAHIK_clean_linker_0, # of connection points: 2
#     Edge 70, Type (0, 0), BuildingBlock: UVAHIK_clean_linker_0, # of connection points: 2
#     Edge 71, Type (0, 0), BuildingBlock: UVAHIK_clean_linker_0, # of connection points: 2
#     Edge 72, Type (0, 0), BuildingBlock: UVAHIK_clean_linker_0, # of connection points: 2
#     Edge 73, Type (0, 0), BuildingBlock: UVAHIK_clean_linker_0, # of connection points: 2
#     Edge 74, Type (0, 0), BuildingBlock: UVAHIK_clean_linker_0, # of connection points: 2
#     Edge 75, Type (0, 0), BuildingBlock: UVAHIK_clean_linker_0, # of connection points: 2
#     Edge 76, Type (0, 0), BuildingBlock: UVAHIK_clean_linker_0, # of connection points: 2
#     Edge 77, Type (0, 0), BuildingBlock: UVAHIK_clean_linker_0, # of connection points: 2
#     Edge 78, Type (0, 0), BuildingBlock: UVAHIK_clean_linker_0, # of connection points: 2
#     Edge 79, Type (0, 0), BuildingBlock: UVAHIK_clean_linker_0, # of connection points: 2
#     Edge 80, Type (0, 0), BuildingBlock: UVAHIK_clean_linker_0, # of connection points: 2
#     Edge 81, Type (0, 0), BuildingBlock: UVAHIK_clean_linker_0, # of connection points: 2
#     Edge 82, Type (0, 0), BuildingBlock: UVAHIK_clean_linker_0, # of connection points: 2
#     Edge 83, Type (0, 0), BuildingBlock: UVAHIK_clean_linker_0, # of connection points: 2
#     Edge 84, Type (0, 0), BuildingBlock: UVAHIK_clean_linker_0, # of connection points: 2
#     Edge 85, Type (0, 0), BuildingBlock: UVAHIK_clean_linker_0, # of connection points: 2
#     Edge 86, Type (0, 0), BuildingBlock: UVAHIK_clean_linker_0, # of connection points: 2
#     Edge 87, Type (0, 0), BuildingBlock: UVAHIK_clean_linker_0, # of connection points: 2
#     Edge 88, Type (0, 0), BuildingBlock: UVAHIK_clean_linker_0, # of connection points: 2
#     Edge 89, Type (0, 0), BuildingBlock: UVAHIK_clean_linker_0, # of connection points: 2
#     Edge 90, Type (0, 0), BuildingBlock: UVAHIK_clean_linker_0, # of connection points: 2
#     Edge 91, Type (0, 0), BuildingBlock: UVAHIK_clean_linker_0, # of connection points: 2
#     Edge 92, Type (0, 0), BuildingBlock: UVAHIK_clean_linker_0, # of connection points: 2
#     Edge 93, Type (0, 0), BuildingBlock: UVAHIK_clean_linker_0, # of connection points: 2
#     Edge 94, Type (0, 0), BuildingBlock: UVAHIK_clean_linker_0, # of connection points: 2
#     Edge 95, Type (0, 0), BuildingBlock: UVAHIK_clean_linker_0, # of connection points: 2
#     Edge 96, Type (0, 0), BuildingBlock: UVAHIK_clean_linker_0, # of connection points: 2
#     Edge 97, Type (0, 0), BuildingBlock: UVAHIK_clean_linker_0, # of connection points: 2
#     Edge 98, Type (0, 0), BuildingBlock: UVAHIK_clean_linker_0, # of connection points: 2
#     Edge 99, Type (0, 0), BuildingBlock: UVAHIK_clean_linker_0, # of connection points: 2
#     Edge 100, Type (0, 0), BuildingBlock: UVAHIK_clean_linker_0, # of connection points: 2
#     Edge 101, Type (0, 0), BuildingBlock: UVAHIK_clean_linker_0, # of connection points: 2
#     Edge 102, Type (0, 0), BuildingBlock: UVAHIK_clean_linker_0, # of connection points: 2
#     Edge 103, Type (0, 0), BuildingBlock: UVAHIK_clean_linker_0, # of connection points: 2
#     Edge 104, Type (0, 0), BuildingBlock: UVAHIK_clean_linker_0, # of connection points: 2
#     Edge 105, Type (0, 0), BuildingBlock: UVAHIK_clean_linker_0, # of connection points: 2
#     Edge 106, Type (0, 0), BuildingBlock: UVAHIK_clean_linker_0, # of connection points: 2
#     Edge 107, Type (0, 0), BuildingBlock: UVAHIK_clean_linker_0, # of connection points: 2
#     Edge 108, Type (0, 0), BuildingBlock: UVAHIK_clean_linker_0, # of connection points: 2
#     Edge 109, Type (0, 0), BuildingBlock: UVAHIK_clean_linker_0, # of connection points: 2
#     Edge 110, Type (0, 0), BuildingBlock: UVAHIK_clean_linker_0, # of connection points: 2
#     Edge 111, Type (0, 0), BuildingBlock: UVAHIK_clean_linker_0, # of connection points: 2
# Relax obj value: 0.239
# Max RMSD: 0.198
# Mean RMSD: 0.198
data_MOF--net-sog--node1-BEQFEK_clean_sbu_0--edge1-UVAHIK_clean_linker_0
_symmetry_space_group_name_H-M    P1
_symmetry_Int_Tables_number       1
_symmetry_cell_setting            triclinic
loop_
_symmetry_equiv_pos_as_xyz
'x, y, z'
_cell_length_a     102.30417
_cell_length_b     22.333297
_cell_length_c     151.11449
_cell_angle_alpha  90.006278
_cell_angle_beta   90.008085
_cell_angle_gamma 89.993143
loop_
_atom_site_label
_atom_site_type_symbol
_atom_site_fract_x
_atom_site_fract_y
_atom_site_fract_z
_atom_type_partial_charge
Co0 Co 0.46504 0.215 0.0597 0.0
Co1 Co 0.45058 0.09315 0.06179 0.0
C2 C 0.46619 0.14902 0.07664 0.0
O3 O 0.46956 0.19387 0.07199 0.0
O4 O 0.45894 0.10805 0.07346 0.0
C5 C 0.48326 0.31275 0.06099 0.0
O6 O 0.48821 0.28283 0.06768 0.0
C7 C 0.45223 0.9665 0.06464 0.0
C8 C 0.43362 0.93151 0.05934 0.0
C9 C 0.44549 0.91399 0.06295 0.0
N10 N 0.44475 0.01274 0.06213 0.0
N11 N 0.43352 0.99185 0.05911 0.0
C12 C 0.46624 0.97288 0.06739 0.0
H13 H 0.47017 0.01703 0.06535 0.0
H14 H 0.47231 0.93687 0.06443 0.0
H15 H 0.4669 0.96937 0.0747 0.0
C16 C 0.47676 0.15213 0.04443 0.0
N17 N 0.46912 0.15329 0.05168 0.0
N18 N 0.4626 0.10268 0.05226 0.0
C19 C 0.46572 0.06796 0.04526 0.0
C20 C 0.47483 0.09804 0.04011 0.0
C21 C 0.48473 0.20419 0.04132 0.0
H22 H 0.47816 0.2427 0.04 0.0
H23 H 0.4916 0.21777 0.04664 0.0
H24 H 0.49029 0.1935 0.03522 0.0
O25 O 0.44615 0.23393 0.05902 0.0
O26 O 0.43547 0.1478 0.06025 0.0
H27 H 0.44915 0.00952 0.04433 0.0
H28 H 0.46215 0.99148 0.03669 0.0
C29 C 0.4599 0.00766 0.04345 0.0
H30 H 0.46396 0.9748 0.04819 0.0
H31 H 0.42607 0.01855 0.05653 0.0
O32 O 0.474 0.28988 0.05653 0.0
C33 C 0.43549 0.20447 0.05927 0.0
Co34 Co 0.78575 0.03263 0.06085 0.0
Co35 Co 0.80066 0.1537 0.06204 0.0
C36 C 0.78447 0.10557 0.07717 0.0
O37 O 0.78108 0.05894 0.07292 0.0
O38 O 0.79192 0.14475 0.07371 0.0
C39 C 0.76869 0.93086 0.06315 0.0
O40 O 0.76582 0.95437 0.07088 0.0
C41 C 0.80038 0.28162 0.06381 0.0
C42 C 0.81906 0.30989 0.05777 0.0
C43 C 0.80757 0.33155 0.06145 0.0
N44 N 0.80725 0.23273 0.06163 0.0
N45 N 0.81853 0.24965 0.05818 0.0
C46 C 0.78644 0.27991 0.06684 0.0
H47 H 0.78192 0.23605 0.06527 0.0
H48 H 0.78067 0.31612 0.06367 0.0
H49 H 0.78613 0.28673 0.07411 0.0
C50 C 0.77457 0.09066 0.04499 0.0
N51 N 0.78213 0.09163 0.05229 0.0
N52 N 0.78877 0.14201 0.05251 0.0
C53 C 0.78579 0.17448 0.04526 0.0
C54 C 0.77667 0.14308 0.04029 0.0
C55 C 0.76647 0.03805 0.04225 0.0
H56 H 0.77295 -0.00116 0.04121 0.0
H57 H 0.75955 0.02656 0.04765 0.0
H58 H 0.76095 0.04693 0.03607 0.0
O59 O 0.80455 0.01087 0.06049 0.0
O60 O 0.81541 0.09675 0.06112 0.0
H61 H 0.80243 0.23185 0.04375 0.0
H62 H 0.78913 0.24918 0.03631 0.0
C63 C 0.79166 0.23413 0.04308 0.0
H64 H 0.78789 0.26804 0.04777 0.0
H65 H 0.82555 0.22019 0.0557 0.0
O66 O 0.77637 0.95848 0.05797 0.0
C67 C 0.81527 0.03984 0.06059 0.0
Co68 Co 0.46621 0.0333 0.18659 0.0
Co69 Co 0.4506 0.15279 0.18577 0.0
C70 C 0.46657 0.10703 0.17035 0.0
O71 O 0.47042 0.06077 0.1745 0.0
O72 O 0.45897 0.14499 0.17395 0.0
C73 C 0.48253 0.9301 0.18369 0.0
O74 O 0.48431 0.9523 0.17573 0.0
C75 C 0.45034 0.28071 0.18403 0.0
C76 C 0.43179 0.30773 0.19036 0.0
C77 C 0.44306 0.33015 0.18649 0.0
N78 N 0.44373 0.23134 0.18634 0.0
N79 N 0.43252 0.24752 0.18997 0.0
C80 C 0.46418 0.28001 0.18079 0.0
H81 H 0.46892 0.23655 0.18231 0.0
H82 H 0.46991 0.31673 0.18387 0.0
H83 H 0.46423 0.2867 0.17352 0.0
C84 C 0.47752 0.09158 0.20239 0.0
N85 N 0.46978 0.09217 0.19518 0.0
N86 N 0.46286 0.14181 0.1951 0.0
C87 C 0.46585 0.17416 0.20236 0.0
C88 C 0.47526 0.14347 0.20719 0.0
C89 C 0.48592 0.03961 0.20498 0.0
H90 H 0.47963 -8e-05 0.20614 0.0
H91 H 0.49266 0.02864 0.19946 0.0
H92 H 0.49164 0.04894 0.21106 0.0
O93 O 0.44754 0.00988 0.18715 0.0
O94 O 0.43614 0.09437 0.18685 0.0
H95 H 0.44893 0.22927 0.20423 0.0
H96 H 0.46242 0.24818 0.21143 0.0
C97 C 0.45971 0.23296 0.2047 0.0
H98 H 0.46306 0.26747 0.19996 0.0
H99 H 0.42569 0.21759 0.19257 0.0
O100 O 0.47586 0.95945 0.18929 0.0
C101 C 0.43664 0.03745 0.18726 0.0
Co102 Co 0.78424 0.21476 0.1875 0.0
Co103 Co 0.79923 0.09429 0.18551 0.0
C104 C 0.783 0.14653 0.17072 0.0
O105 O 0.77956 0.19159 0.17531 0.0
O106 O 0.79051 0.10649 0.17389 0.0
C107 C 0.76687 0.31582 0.1858 0.0
O108 O 0.7634 0.29165 0.17823 0.0
C109 C 0.79901 0.96662 0.18319 0.0
C110 C 0.81787 0.93789 0.18891 0.0
C111 C 0.80629 0.91645 0.18534 0.0
N112 N 0.8059 0.01532 0.18544 0.0
N113 N 0.8173 -0.00186 0.18868 0.0
C114 C 0.785 0.96867 0.1803 0.0
H115 H 0.78054 0.01246 0.18199 0.0
H116 H 0.77929 0.93226 0.18347 0.0
H117 H 0.78453 0.96252 0.17303 0.0
C118 C 0.77313 0.15218 0.20298 0.0
N119 N 0.78068 0.15338 0.19569 0.0
N120 N 0.78736 0.10322 0.19514 0.0
C121 C 0.78446 0.06878 0.20221 0.0
C122 C 0.7753 0.09856 0.20737 0.0
C123 C 0.76496 0.20377 0.20604 0.0
H124 H 0.7714 0.24279 0.20734 0.0
H125 H 0.75806 0.21663 0.2007 0.0
H126 H 0.75944 0.19298 0.21215 0.0
O127 O 0.80303 0.23656 0.18794 0.0
O128 O 0.81395 0.15108 0.18677 0.0
H129 H 0.8012 0.01142 0.20321 0.0
H130 H 0.78823 0.99277 0.21083 0.0
C131 C 0.79046 0.0089 0.20407 0.0
H132 H 0.7865 0.97565 0.19934 0.0
H133 H 0.82435 0.02736 0.19117 0.0
O134 O 0.77491 0.28848 0.19076 0.0
C135 C 0.81377 0.2078 0.18764 0.0
Co136 Co 0.53479 0.77625 0.93668 0.0
Co137 Co 0.55011 0.89637 0.93554 0.0
C138 C 0.53365 0.8497 0.92042 0.0
O139 O 0.53009 0.80323 0.92464 0.0
O140 O 0.54128 0.88812 0.92389 0.0
C141 C 0.51809 0.67365 0.93421 0.0
O142 O 0.51567 0.69635 0.92636 0.0
C143 C 0.55013 0.0243 0.93378 0.0
C144 C 0.5689 0.05175 0.93977 0.0
C145 C 0.55745 0.07391 0.9361 0.0
N146 N 0.55689 0.97509 0.93597 0.0
N147 N 0.56822 0.99152 0.93939 0.0
C148 C 0.53617 0.02327 0.93078 0.0
H149 H 0.53155 0.97966 0.93237 0.0
H150 H 0.53051 0.0598 0.93397 0.0
H151 H 0.53583 0.03009 0.92351 0.0
C152 C 0.52391 0.83464 0.95262 0.0
N153 N 0.53142 0.83524 0.9453 0.0
N154 N 0.53823 0.88516 0.94509 0.0
C155 C 0.53541 0.91766 0.95237 0.0
C156 C 0.52622 0.8868 0.95735 0.0
C157 C 0.51563 0.7826 0.95535 0.0
H158 H 0.52198 0.74298 0.95641 0.0
H159 H 0.5087 0.77152 0.94994 0.0
H160 H 0.51011 0.79192 0.96151 0.0
O161 O 0.55352 0.75338 0.93695 0.0
O162 O 0.56469 0.83848 0.93641 0.0
H163 H 0.55225 0.97384 0.95387 0.0
H164 H 0.53903 0.99207 0.96133 0.0
C165 C 0.54148 0.97688 0.95455 0.0
H166 H 0.53782 0.01109 0.94987 0.0
H167 H 0.57519 0.96176 0.94186 0.0
O168 O 0.52531 0.70232 0.93957 0.0
C169 C 0.56435 0.78156 0.93687 0.0
Co170 Co 0.21552 0.97237 0.93778 0.0
Co171 Co 0.20098 0.85066 0.93588 0.0
C172 C 0.2163 0.90638 0.92086 0.0
O173 O 0.2198 0.95132 0.92545 0.0
O174 O 0.20909 0.86559 0.92413 0.0
C175 C 0.23367 0.0703 0.9364 0.0
O176 O 0.2385 0.04057 0.92965 0.0
C177 C 0.20311 0.72417 0.93329 0.0
C178 C 0.18434 0.68814 0.93817 0.0
C179 C 0.19645 0.67132 0.93486 0.0
N180 N 0.19535 0.77001 0.93556 0.0
N181 N 0.18403 0.7485 0.93833 0.0
C182 C 0.2172 0.73134 0.9308 0.0
H183 H 0.22087 0.77619 0.93273 0.0
H184 H 0.22327 0.69634 0.93402 0.0
H185 H 0.2182 0.72661 0.92353 0.0
C186 C 0.22785 0.90878 0.95281 0.0
N187 N 0.21985 0.91059 0.94574 0.0
N188 N 0.21325 0.86019 0.94525 0.0
C189 C 0.21667 0.82497 0.95212 0.0
C190 C 0.22612 0.85432 0.95709 0.0
C191 C 0.23687 0.95855 0.95538 0.0
H192 H 0.23108 0.99525 0.95841 0.0
H193 H 0.24174 0.97661 0.94939 0.0
H194 H 0.24439 0.94318 0.96015 0.0
O195 O 0.19661 0.99104 0.93866 0.0
O196 O 0.18589 0.90493 0.93759 0.0
H197 H 0.19942 0.7704 0.95281 0.0
H198 H 0.21087 0.75774 0.96166 0.0
C199 C 0.20994 0.76763 0.9545 0.0
H200 H 0.21441 0.73027 0.95073 0.0
H201 H 0.17636 0.77481 0.9407 0.0
O202 O 0.22448 0.04734 0.94091 0.0
C203 C 0.18594 0.96161 0.93856 0.0
Co204 Co 0.53425 0.96726 0.81031 0.0
Co205 Co 0.54934 0.84699 0.81221 0.0
C206 C 0.53284 0.89797 0.82697 0.0
O207 O 0.52939 0.94323 0.82243 0.0
O208 O 0.54045 0.85837 0.82379 0.0
C209 C 0.51701 0.06876 0.81206 0.0
O210 O 0.51367 0.04502 0.81969 0.0
C211 C 0.54917 0.71928 0.81442 0.0
C212 C 0.56808 0.69085 0.80875 0.0
C213 C 0.55649 0.66924 0.81228 0.0
N214 N 0.55605 0.7681 0.81222 0.0
N215 N 0.56748 0.75109 0.80902 0.0
C216 C 0.53513 0.72112 0.81724 0.0
H217 H 0.53065 0.76482 0.81553 0.0
H218 H 0.52948 0.6846 0.81405 0.0
H219 H 0.53459 0.71499 0.82452 0.0
C220 C 0.52347 0.90557 0.79464 0.0
N221 N 0.53088 0.90638 0.802 0.0
N222 N 0.5376 0.85631 0.80252 0.0
C223 C 0.53485 0.8223 0.79538 0.0
C224 C 0.52576 0.8523 0.79018 0.0
C225 C 0.51533 0.95728 0.79159 0.0
H226 H 0.52177 -0.00355 0.7904 0.0
H227 H 0.50832 0.96971 0.79688 0.0
H228 H 0.50992 0.94686 0.78542 0.0
O229 O 0.55302 0.98941 0.81003 0.0
O230 O 0.56403 0.90413 0.81113 0.0
H231 H 0.55164 0.76534 0.79437 0.0
H232 H 0.53872 0.7466 0.78671 0.0
C233 C 0.54091 0.7626 0.79349 0.0
H234 H 0.53698 0.72914 0.79819 0.0
H235 H 0.57455 0.78045 0.80657 0.0
O236 O 0.52492 0.04101 0.80706 0.0
C237 C 0.56379 0.9609 0.81035 0.0
Co238 Co 0.21536 0.78597 0.81092 0.0
Co239 Co 0.19978 0.90553 0.81181 0.0
C240 C 0.21591 0.8597 0.82716 0.0
O241 O 0.21971 0.81338 0.823 0.0
O242 O 0.20829 0.89766 0.82358 0.0
C243 C 0.23175 0.68283 0.81371 0.0
O244 O 0.23367 0.70504 0.82165 0.0
C245 C 0.19962 0.03344 0.81355 0.0
C246 C 0.18098 0.06068 0.80735 0.0
C247 C 0.19233 0.08297 0.81114 0.0
N248 N 0.19294 0.98415 0.81129 0.0
N249 N 0.18168 0.00045 0.80774 0.0
C250 C 0.21351 0.03259 0.8167 0.0
H251 H 0.21819 0.98902 0.81516 0.0
H252 H 0.21921 0.06915 0.81356 0.0
H253 H 0.21367 0.03947 0.82396 0.0
C254 C 0.22655 0.84443 0.79509 0.0
N255 N 0.21885 0.84489 0.80231 0.0
N256 N 0.21193 0.89451 0.80242 0.0
C257 C 0.21486 0.92694 0.79516 0.0
C258 C 0.22424 0.89636 0.7903 0.0
C259 C 0.235 0.79267 0.79248 0.0
H260 H 0.22874 0.75288 0.7913 0.0
H261 H 0.24174 0.78171 0.798 0.0
H262 H 0.24071 0.80223 0.78641 0.0
O263 O 0.19667 0.76259 0.81045 0.0
O264 O 0.1853 0.84719 0.8108 0.0
H265 H 0.19793 0.98222 0.79343 0.0
H266 H 0.21128 0.00081 0.7861 0.0
C267 C 0.2087 0.98577 0.79286 0.0
H268 H 0.21217 0.02033 0.79755 0.0
H269 H 0.17479 0.9706 0.80519 0.0
O270 O 0.22497 0.71211 0.80816 0.0
C271 C 0.18578 0.79027 0.81038 0.0
Co272 Co 0.46427 0.71128 0.56038 0.0
Co273 Co 0.4496 0.58944 0.56146 0.0
C274 C 0.46514 0.63994 0.5768 0.0
O275 O 0.46866 0.68635 0.57255 0.0
O276 O 0.45786 0.60049 0.57325 0.0
C277 C 0.48231 0.80957 0.56237 0.0
O278 O 0.48677 0.7801 0.56925 0.0
C279 C 0.45108 0.46239 0.56373 0.0
C280 C 0.43254 0.42844 0.55818 0.0
C281 C 0.44429 0.41033 0.5619 0.0
N282 N 0.44373 0.50911 0.56126 0.0
N283 N 0.43254 0.48883 0.55806 0.0
C284 C 0.46505 0.46786 0.56662 0.0
H285 H 0.46911 0.51208 0.56473 0.0
H286 H 0.47109 0.43194 0.56361 0.0
H287 H 0.46558 0.46321 0.57391 0.0
C288 C 0.47617 0.65279 0.54477 0.0
N289 N 0.46838 0.65202 0.55195 0.0
N290 N 0.46178 0.60151 0.55212 0.0
C291 C 0.46499 0.5688 0.54494 0.0
C292 C 0.47425 0.60012 0.54008 0.0
C293 C 0.48431 0.70541 0.54209 0.0
H294 H 0.47783 0.74447 0.54092 0.0
H295 H 0.49104 0.71724 0.54758 0.0
H296 H 0.49003 0.69628 0.536 0.0
O297 O 0.44541 0.73107 0.55973 0.0
O298 O 0.4346 0.64492 0.56019 0.0
H299 H 0.44841 0.51105 0.54343 0.0
H300 H 0.46169 0.49434 0.53594 0.0
C301 C 0.45918 0.50908 0.54273 0.0
H302 H 0.46301 0.4751 0.54739 0.0
H303 H 0.42517 0.51602 0.55549 0.0
O304 O 0.47337 0.78647 0.55764 0.0
C305 C 0.43471 0.70187 0.55965 0.0
Co306 Co 0.78595 0.52386 0.5602 0.0
Co307 Co 0.80002 0.64697 0.56127 0.0
C308 C 0.78506 0.59432 0.57669 0.0
O309 O 0.78173 0.54756 0.57246 0.0
O310 O 0.79204 0.6347 0.5731 0.0
C311 C 0.76774 0.42634 0.562 0.0
O312 O 0.76295 0.45694 0.56868 0.0
C313 C 0.79751 0.77352 0.56337 0.0
C314 C 0.8161 0.81029 0.55829 0.0
C315 C 0.80401 0.82657 0.56168 0.0
N316 N 0.80536 0.72798 0.56113 0.0
N317 N 0.81656 0.74993 0.55821 0.0
C318 C 0.78349 0.76585 0.56599 0.0
H319 H 0.77988 0.72069 0.56417 0.0
H320 H 0.77729 0.80032 0.56277 0.0
H321 H 0.7826 0.77119 0.57326 0.0
C322 C 0.77299 0.58302 0.54499 0.0
N323 N 0.78125 0.58328 0.55192 0.0
N324 N 0.78768 0.63422 0.55206 0.0
C325 C 0.78389 0.66772 0.5451 0.0
C326 C 0.77436 0.63667 0.54044 0.0
C327 C 0.76395 0.53237 0.54285 0.0
H328 H 0.7697 0.49467 0.54007 0.0
H329 H 0.75916 0.51644 0.549 0.0
H330 H 0.75634 0.54597 0.53803 0.0
O331 O 0.80493 0.50608 0.55928 0.0
O332 O 0.81527 0.59342 0.55979 0.0
H333 H 0.80082 0.72402 0.54394 0.0
H334 H 0.78903 0.73373 0.53521 0.0
C335 C 0.79024 0.72531 0.5424 0.0
H336 H 0.78568 0.76286 0.54608 0.0
H337 H 0.82428 0.72387 0.55586 0.0
O338 O 0.77704 0.44821 0.55747 0.0
C339 C 0.81546 0.53654 0.55915 0.0
Co340 Co 0.46534 0.52766 0.68727 0.0
Co341 Co 0.45061 0.6491 0.68551 0.0
C342 C 0.46634 0.59551 0.67052 0.0
O343 O 0.46988 0.55037 0.67504 0.0
O344 O 0.45896 0.6356 0.6738 0.0
C345 C 0.48344 0.42943 0.68573 0.0
O346 O 0.48817 0.45891 0.67892 0.0
C347 C 0.45213 0.77586 0.68283 0.0
C348 C 0.43354 0.81042 0.68822 0.0
C349 C 0.44536 0.8282 0.68456 0.0
N350 N 0.44471 0.72942 0.68534 0.0
N351 N 0.4335 0.75006 0.68842 0.0
C352 C 0.46613 0.76983 0.68003 0.0
H353 H 0.47014 0.72582 0.68207 0.0
H354 H 0.47217 0.80605 0.68295 0.0
H355 H 0.46672 0.77323 0.67272 0.0
C356 C 0.47692 0.58913 0.70271 0.0
N357 N 0.46929 0.58854 0.69545 0.0
N358 N 0.46268 0.63896 0.695 0.0
C359 C 0.46575 0.67301 0.70208 0.0
C360 C 0.47491 0.64266 0.70716 0.0
C361 C 0.48497 0.53694 0.70569 0.0
H362 H 0.47844 0.49816 0.70694 0.0
H363 H 0.49183 0.52405 0.70034 0.0
H364 H 0.49053 0.54711 0.71181 0.0
O365 O 0.44648 0.50806 0.68787 0.0
O366 O 0.43559 0.5938 0.68692 0.0
H367 H 0.4491 0.73078 0.70321 0.0
H368 H 0.4622 0.74889 0.71077 0.0
C369 C 0.45985 0.733 0.70401 0.0
H370 H 0.46377 0.76626 0.69927 0.0
H371 H 0.42609 0.72316 0.69101 0.0
O372 O 0.47437 0.45272 0.69031 0.0
C373 C 0.43576 0.537 0.68773 0.0
Co374 Co 0.78407 0.71368 0.68692 0.0
Co375 Co 0.79943 0.59386 0.68535 0.0
C376 C 0.78312 0.64324 0.67036 0.0
O377 O 0.77945 0.6886 0.67479 0.0
O378 O 0.79077 0.60434 0.67368 0.0
C379 C 0.76708 0.8157 0.6848 0.0
O380 O 0.76422 0.7924 0.67706 0.0
C381 C 0.79938 0.46615 0.68323 0.0
C382 C 0.81818 0.43794 0.6891 0.0
C383 C 0.80667 0.4162 0.68545 0.0
N384 N 0.80619 0.51506 0.68548 0.0
N385 N 0.81755 0.49818 0.68882 0.0
C386 C 0.7854 0.4678 0.68026 0.0
H387 H 0.78085 0.51141 0.68195 0.0
H388 H 0.77971 0.43115 0.68339 0.0
H389 H 0.78502 0.46177 0.67298 0.0
C390 C 0.77311 0.65262 0.7026 0.0
N391 N 0.78066 0.65326 0.6953 0.0
N392 N 0.78748 0.60343 0.69491 0.0
C393 C 0.78466 0.56977 0.70207 0.0
C394 C 0.77543 0.59974 0.70715 0.0
C395 C 0.76481 0.70417 0.7055 0.0
H396 H 0.77116 0.74359 0.70674 0.0
H397 H 0.75793 0.7162 0.70011 0.0
H398 H 0.75925 0.69377 0.71161 0.0
O399 O 0.80281 0.73641 0.6873 0.0
O400 O 0.81401 0.65149 0.68649 0.0
H401 H 0.80154 0.5136 0.70333 0.0
H402 H 0.78847 0.49464 0.71086 0.0
C403 C 0.79079 0.51042 0.70409 0.0
H404 H 0.78705 0.47658 0.69938 0.0
H405 H 0.82455 0.52763 0.69133 0.0
O406 O 0.77462 0.78742 0.69001 0.0
C407 C 0.81364 0.70832 0.68714 0.0
Co408 Co 0.53619 0.28441 0.43695 0.0
Co409 Co 0.55115 0.40528 0.43555 0.0
C410 C 0.53462 0.35681 0.42061 0.0
O411 O 0.53129 0.31035 0.42491 0.0
O412 O 0.54216 0.396 0.42397 0.0
C413 C 0.51909 0.18259 0.43486 0.0
O414 O 0.51607 0.20603 0.42716 0.0
C415 C 0.55087 0.53317 0.43372 0.0
C416 C 0.5697 0.5614 0.43954 0.0
C417 C 0.55813 0.58309 0.43599 0.0
N418 N 0.55778 0.48426 0.43584 0.0
N419 N 0.56915 0.50116 0.43916 0.0
C420 C 0.53686 0.5315 0.43083 0.0
H421 H 0.53237 0.48767 0.43245 0.0
H422 H 0.53118 0.56777 0.43406 0.0
H423 H 0.53639 0.53825 0.42356 0.0
C424 C 0.52524 0.34342 0.45281 0.0
N425 N 0.53275 0.3438 0.4455 0.0
N426 N 0.53944 0.39402 0.44519 0.0
C427 C 0.53656 0.42692 0.45242 0.0
C428 C 0.52743 0.39602 0.45745 0.0
C429 C 0.51702 0.29134 0.45561 0.0
H430 H 0.52341 0.25192 0.45671 0.0
H431 H 0.5101 0.27982 0.45021 0.0
H432 H 0.5115 0.30087 0.46177 0.0
O433 O 0.55498 0.26249 0.43715 0.0
O434 O 0.56588 0.34822 0.43638 0.0
H435 H 0.55324 0.48435 0.45368 0.0
H436 H 0.5402 0.50161 0.46132 0.0
C437 C 0.54249 0.48658 0.45451 0.0
H438 H 0.53856 0.52049 0.44988 0.0
H439 H 0.57621 0.47169 0.44157 0.0
O440 O 0.52685 0.21035 0.43997 0.0
C441 C 0.56572 0.29133 0.43693 0.0
Co442 Co 0.21421 0.46089 0.43713 0.0
Co443 Co 0.19998 0.33896 0.43497 0.0
C444 C 0.21582 0.39619 0.42023 0.0
O445 O 0.2192 0.4408 0.42492 0.0
O446 O 0.20846 0.35539 0.42336 0.0
C447 C 0.23248 0.55922 0.43657 0.0
O448 O 0.23734 0.53332 0.42949 0.0
C449 C 0.20272 0.21173 0.43319 0.0
C450 C 0.18377 0.17638 0.43785 0.0
C451 C 0.19626 0.15927 0.43533 0.0
N452 N 0.19463 0.25783 0.43469 0.0
N453 N 0.1832 0.23657 0.43728 0.0
C454 C 0.21653 0.21869 0.43002 0.0
H455 H 0.21693 0.25174 0.42459 0.0
H456 H 0.22272 0.23577 0.43549 0.0
H457 H 0.22057 0.17573 0.42756 0.0
C458 C 0.2257 0.39922 0.45254 0.0
N459 N 0.21827 0.39954 0.44518 0.0
N460 N 0.21162 0.34928 0.4447 0.0
C461 C 0.2143 0.31602 0.45194 0.0
C462 C 0.22341 0.34631 0.45706 0.0
C463 C 0.23372 0.4513 0.45558 0.0
H464 H 0.22716 0.48965 0.45702 0.0
H465 H 0.24047 0.46507 0.45021 0.0
H466 H 0.23942 0.44056 0.46162 0.0
O467 O 0.19519 0.479 0.43759 0.0
O468 O 0.1847 0.39231 0.43638 0.0
H469 H 0.19731 0.25976 0.45243 0.0
H470 H 0.20889 0.24587 0.4612 0.0
C471 C 0.20784 0.25769 0.45412 0.0
H472 H 0.21248 0.22156 0.45022 0.0
H473 H 0.17526 0.26319 0.43912 0.0
O474 O 0.22307 0.53477 0.44067 0.0
C475 C 0.18459 0.44904 0.4373 0.0
Co476 Co 0.5349 0.46276 0.31044 0.0
Co477 Co 0.54988 0.3424 0.3126 0.0
C478 C 0.5332 0.39456 0.32718 0.0
O479 O 0.52986 0.43956 0.32255 0.0
O480 O 0.54082 0.35459 0.32411 0.0
C481 C 0.51751 0.56393 0.3119 0.0
O482 O 0.51384 0.53988 0.31943 0.0
C483 C 0.54953 0.21474 0.31488 0.0
C484 C 0.56856 0.18587 0.30944 0.0
C485 C 0.55685 0.16452 0.31283 0.0
N486 N 0.55652 0.2634 0.31275 0.0
N487 N 0.56801 0.24612 0.30969 0.0
C488 C 0.53543 0.21693 0.31755 0.0
H489 H 0.53105 0.26078 0.31581 0.0
H490 H 0.52981 0.1806 0.31429 0.0
H491 H 0.53472 0.21072 0.32482 0.0
C492 C 0.5242 0.40015 0.29483 0.0
N493 N 0.53159 0.40143 0.3022 0.0
N494 N 0.5383 0.35137 0.30281 0.0
C495 C 0.53558 0.31695 0.2957 0.0
C496 C 0.52651 0.34661 0.29046 0.0
C497 C 0.51604 0.45158 0.29171 0.0
H498 H 0.52245 0.49071 0.29046 0.0
H499 H 0.50904 0.46434 0.297 0.0
H500 H 0.51061 0.44066 0.28557 0.0
O501 O 0.5537 0.4845 0.31027 0.0
O502 O 0.56464 0.3992 0.31158 0.0
H503 H 0.55237 0.25969 0.29495 0.0
H504 H 0.5397 0.2414 0.28707 0.0
C505 C 0.54166 0.25718 0.29389 0.0
H506 H 0.53753 0.2237 0.29851 0.0
H507 H 0.57517 0.2753 0.30731 0.0
O508 O 0.52568 0.5365 0.30704 0.0
C509 C 0.56445 0.45591 0.31072 0.0
Co510 Co 0.2152 0.28453 0.31029 0.0
Co511 Co 0.19969 0.40419 0.31144 0.0
C512 C 0.21597 0.35718 0.32663 0.0
O513 O 0.21967 0.31103 0.32239 0.0
O514 O 0.20834 0.39554 0.32315 0.0
C515 C 0.23182 0.18176 0.31282 0.0
O516 O 0.23409 0.20431 0.32069 0.0
C517 C 0.19958 0.53207 0.31331 0.0
C518 C 0.18085 0.55953 0.30726 0.0
C519 C 0.19226 0.5817 0.31098 0.0
N520 N 0.19286 0.48287 0.31107 0.0
N521 N 0.18155 0.4993 0.30761 0.0
C522 C 0.21352 0.53105 0.31637 0.0
H523 H 0.21816 0.48747 0.31479 0.0
H524 H 0.21919 0.56762 0.31321 0.0
H525 H 0.21378 0.53779 0.32364 0.0
C526 C 0.22635 0.34417 0.29455 0.0
N527 N 0.21865 0.34406 0.30177 0.0
N528 N 0.21174 0.3937 0.30198 0.0
C529 C 0.21467 0.4267 0.29477 0.0
C530 C 0.22405 0.3965 0.28986 0.0
C531 C 0.23482 0.29268 0.29186 0.0
H532 H 0.22858 0.25289 0.29064 0.0
H533 H 0.24158 0.28146 0.29736 0.0
H534 H 0.24052 0.30267 0.2858 0.0
O535 O 0.1965 0.2614 0.30985 0.0
O536 O 0.18517 0.34605 0.31041 0.0
H537 H 0.19778 0.48255 0.29326 0.0
H538 H 0.21099 0.50103 0.28581 0.0
C539 C 0.20854 0.4858 0.29258 0.0
H540 H 0.21217 0.52008 0.29727 0.0
H541 H 0.17462 0.46954 0.30509 0.0
O542 O 0.22475 0.21072 0.3074 0.0
C543 C 0.18562 0.28917 0.30989 0.0
Co544 Co 0.96611 0.21353 0.56073 0.0
Co545 Co 0.95066 0.09373 0.56158 0.0
C546 C 0.96622 0.14137 0.57709 0.0
O547 O 0.97008 0.1876 0.57293 0.0
O548 O 0.95878 0.10291 0.57345 0.0
C549 C 0.98276 0.31623 0.56334 0.0
O550 O 0.98497 0.29383 0.57123 0.0
C551 C 0.95123 0.966 0.56313 0.0
C552 C 0.93242 0.93692 0.55736 0.0
C553 C 0.9441 0.91579 0.56082 0.0
N554 N 0.94414 0.01459 0.56113 0.0
N555 N 0.93279 -0.00281 0.55784 0.0
C556 C 0.96523 0.96833 0.56601 0.0
H557 H 0.96953 0.01294 0.56464 0.0
H558 H 0.97105 0.93336 0.56258 0.0
H559 H 0.96576 0.95981 0.57323 0.0
C560 C 0.97837 0.15286 0.54543 0.0
N561 N 0.97011 0.15374 0.55236 0.0
N562 N 0.96316 0.10426 0.5524 0.0
C563 C 0.9666 0.07067 0.54536 0.0
C564 C 0.97644 0.10006 0.54076 0.0
C565 C 0.9879 0.20176 0.54339 0.0
H566 H 0.99254 0.21761 0.54959 0.0
H567 H 0.99558 0.18633 0.53873 0.0
H568 H 0.98258 0.24004 0.54039 0.0
O569 O 0.94736 0.23597 0.55988 0.0
O570 O 0.9361 0.1511 0.56021 0.0
H571 H 0.96084 0.00681 0.53531 0.0
H572 H 0.96366 0.97604 0.54614 0.0
C573 C 0.95962 0.01496 0.5425 0.0
H574 H 0.94905 0.0188 0.54396 0.0
H575 H 0.9256 0.02636 0.55551 0.0
O576 O 0.97564 0.28747 0.55793 0.0
C577 C 0.93651 0.20797 0.55968 0.0
Co578 Co 0.2849 0.02823 0.56001 0.0
Co579 Co 0.29965 0.1496 0.56173 0.0
C580 C 0.28399 0.09608 0.57677 0.0
O581 O 0.28043 0.05094 0.57225 0.0
O582 O 0.29136 0.13615 0.57347 0.0
C583 C 0.2668 0.93 0.56159 0.0
O584 O 0.26212 0.95943 0.56841 0.0
C585 C 0.29814 0.27638 0.5644 0.0
C586 C 0.31672 0.31088 0.55898 0.0
C587 C 0.30491 0.32869 0.56265 0.0
N588 N 0.30555 0.22992 0.56189 0.0
N589 N 0.31676 0.25051 0.55879 0.0
C590 C 0.28416 0.27037 0.56722 0.0
H591 H 0.28014 0.22635 0.56519 0.0
H592 H 0.2781 0.30658 0.56431 0.0
H593 H 0.28359 0.27381 0.57453 0.0
C594 C 0.27315 0.08986 0.54465 0.0
N595 N 0.28089 0.08914 0.55185 0.0
N596 N 0.28752 0.1395 0.55228 0.0
C597 C 0.28439 0.17359 0.54522 0.0
C598 C 0.27513 0.14337 0.5402 0.0
C599 C 0.26502 0.03784 0.54172 0.0
H600 H 0.27149 -0.00098 0.54039 0.0
H601 H 0.25826 0.02491 0.54713 0.0
H602 H 0.25933 0.04823 0.53566 0.0
O603 O 0.30375 0.00859 0.55936 0.0
O604 O 0.31466 0.09428 0.56028 0.0
H605 H 0.30105 0.23122 0.54406 0.0
H606 H 0.28797 0.24904 0.53646 0.0
C607 C 0.2903 0.23346 0.54324 0.0
H608 H 0.28637 0.26694 0.54794 0.0
H609 H 0.32416 0.22359 0.55619 0.0
O610 O 0.27585 0.95332 0.55698 0.0
C611 C 0.31448 0.03748 0.55948 0.0
Co612 Co 0.96369 0.03096 0.6876 0.0
Co613 Co 0.9494 0.15323 0.68555 0.0
C614 C 0.96529 0.09789 0.67078 0.0
O615 O 0.96854 0.05271 0.67539 0.0
O616 O 0.95799 0.13875 0.67394 0.0
C617 C 0.982 0.93336 0.68648 0.0
O618 O 0.98718 0.96363 0.6799 0.0
C619 C 0.95134 0.27984 0.68283 0.0
C620 C 0.93267 0.31543 0.68797 0.0
C621 C 0.94465 0.33255 0.68447 0.0
N622 N 0.94372 0.23383 0.68525 0.0
N623 N 0.93247 0.25508 0.68817 0.0
C624 C 0.96539 0.27298 0.68021 0.0
H625 H 0.96921 0.22871 0.6823 0.0
H626 H 0.97146 0.30881 0.68322 0.0
H627 H 0.9662 0.2764 0.67291 0.0
C628 C 0.97522 0.0926 0.70304 0.0
N629 N 0.96766 0.092 0.69575 0.0
N630 N 0.96121 0.14281 0.69519 0.0
C631 C 0.96429 0.1771 0.70224 0.0
C632 C 0.97331 0.14652 0.70741 0.0
C633 C 0.98314 0.04026 0.70611 0.0
H634 H 0.97656 0.00154 0.70726 0.0
H635 H 0.99015 0.02737 0.70084 0.0
H636 H 0.98855 0.05027 0.7123 0.0
O637 O 0.94476 0.01247 0.68802 0.0
O638 O 0.93419 0.09893 0.68684 0.0
H639 H 0.94785 0.23639 0.70307 0.0
H640 H 0.96073 0.25334 0.71086 0.0
C641 C 0.95858 0.23763 0.70406 0.0
H642 H 0.96283 0.27048 0.69939 0.0
H643 H 0.92491 0.22861 0.69066 0.0
O644 O 0.97252 0.95581 0.69078 0.0
C645 C 0.93414 0.04217 0.68772 0.0
Co646 Co 0.28595 0.21085 0.68695 0.0
Co647 Co 0.30065 0.0891 0.68579 0.0
C648 C 0.28501 0.13974 0.67051 0.0
O649 O 0.2815 0.18608 0.67478 0.0
O650 O 0.29231 0.10027 0.67403 0.0
C651 C 0.26791 0.3092 0.68502 0.0
O652 O 0.26342 0.27978 0.67814 0.0
C653 C 0.29915 0.96207 0.6835 0.0
C654 C 0.31775 0.92806 0.68896 0.0
C655 C 0.30596 0.90999 0.6853 0.0
N656 N 0.30653 0.00876 0.68595 0.0
N657 N 0.31775 0.98845 0.68909 0.0
C658 C 0.28515 0.96758 0.68068 0.0
H659 H 0.28111 0.01182 0.68259 0.0
H660 H 0.27914 0.93167 0.68372 0.0
H661 H 0.28455 0.96297 0.67339 0.0
C662 C 0.27421 0.15218 0.7026 0.0
N663 N 0.28192 0.15147 0.69538 0.0
N664 N 0.28854 0.10103 0.69517 0.0
C665 C 0.28543 0.06832 0.70237 0.0
C666 C 0.27622 0.09954 0.70728 0.0
C667 C 0.26609 0.20474 0.70533 0.0
H668 H 0.27257 0.24374 0.70652 0.0
H669 H 0.25934 0.21677 0.69986 0.0
H670 H 0.26039 0.19542 0.71142 0.0
O671 O 0.30481 0.23069 0.68755 0.0
O672 O 0.31564 0.1446 0.68703 0.0
H673 H 0.3021 0.01095 0.70381 0.0
H674 H 0.28891 0.99408 0.71138 0.0
C675 C 0.29133 0.00876 0.70457 0.0
H676 H 0.28749 0.97462 0.69994 0.0
H677 H 0.32515 0.01562 0.69163 0.0
O678 O 0.27686 0.28602 0.68973 0.0
C679 C 0.31552 0.20154 0.68759 0.0
Co680 Co 0.03423 0.77548 0.43712 0.0
Co681 Co 0.04971 0.8949 0.4356 0.0
C682 C 0.03344 0.84533 0.42055 0.0
O683 O 0.02968 0.80004 0.42497 0.0
O684 O 0.04111 0.88405 0.4239 0.0
C685 C 0.01733 0.67301 0.43515 0.0
O686 O 0.01445 0.69564 0.42737 0.0
C687 C 0.04906 0.02252 0.43381 0.0
C688 C 0.06818 0.0519 0.43905 0.0
C689 C 0.05631 0.07288 0.43588 0.0
N690 N 0.05626 0.97404 0.43568 0.0
N691 N 0.06779 0.99163 0.43865 0.0
C692 C 0.03491 0.01993 0.43129 0.0
H693 H 0.03072 0.97531 0.4328 0.0
H694 H 0.02927 0.05496 0.43483 0.0
H695 H 0.03398 0.02811 0.42407 0.0
C696 C 0.0228 0.83798 0.45254 0.0
N697 N 0.03068 0.83628 0.44541 0.0
N698 N 0.03766 0.88564 0.44509 0.0
C699 C 0.03464 0.91995 0.45214 0.0
C700 C 0.02504 0.89117 0.45705 0.0
C701 C 0.01336 0.78944 0.45492 0.0
H702 H 0.00846 0.7727 0.44886 0.0
H703 H 0.00587 0.80561 0.45967 0.0
H704 H 0.0188 0.75159 0.45794 0.0
O705 O 0.05301 0.75303 0.43759 0.0
O706 O 0.06432 0.83763 0.43683 0.0
H707 H 0.04105 0.98439 0.46193 0.0
H708 H 0.03762 0.01446 0.45113 0.0
C709 C 0.04183 0.9757 0.45472 0.0
H710 H 0.0523 0.97152 0.45298 0.0
H711 H 0.07511 0.96259 0.44084 0.0
O712 O 0.02487 0.7017 0.4403 0.0
C713 C 0.06388 0.78083 0.43749 0.0
Co714 Co 0.71599 0.96536 0.43736 0.0
Co715 Co 0.70092 0.84528 0.4352 0.0
C716 C 0.71759 0.89777 0.4206 0.0
O717 O 0.721 0.94271 0.42522 0.0
O718 O 0.70995 0.85794 0.42369 0.0
C719 C 0.73328 0.06699 0.43608 0.0
O720 O 0.73698 0.0436 0.42851 0.0
C721 C 0.70182 0.7177 0.43324 0.0
C722 C 0.6825 0.6878 0.43803 0.0
C723 C 0.69454 0.66713 0.43512 0.0
N724 N 0.69448 0.76598 0.43498 0.0
N725 N 0.68283 0.74807 0.43767 0.0
C726 C 0.71608 0.72069 0.43103 0.0
H727 H 0.72012 0.76556 0.43259 0.0
H728 H 0.72161 0.68605 0.43474 0.0
H729 H 0.71738 0.71217 0.42385 0.0
C730 C 0.72698 0.90156 0.4528 0.0
N731 N 0.71939 0.90367 0.44553 0.0
N732 N 0.71257 0.85396 0.44495 0.0
C733 C 0.7154 0.81898 0.45197 0.0
C734 C 0.72472 0.84772 0.45713 0.0
C735 C 0.73621 0.95031 0.45547 0.0
H736 H 0.73055 0.98764 0.45845 0.0
H737 H 0.74134 0.9678 0.44955 0.0
H738 H 0.74352 0.93408 0.46034 0.0
O739 O 0.69715 0.98684 0.43758 0.0
O740 O 0.68614 0.90171 0.4363 0.0
H741 H 0.70877 0.75324 0.46148 0.0
H742 H 0.71279 0.72438 0.45071 0.0
C743 C 0.70827 0.76253 0.45428 0.0
H744 H 0.69788 0.76615 0.45232 0.0
H745 H 0.67539 0.7769 0.43972 0.0
O746 O 0.7251 0.03913 0.44087 0.0
C747 C 0.68638 0.95842 0.43716 0.0
Co748 Co 0.03563 0.96703 0.31041 0.0
Co749 Co 0.04993 0.84443 0.31157 0.0
C750 C 0.03462 0.89663 0.32689 0.0
O751 O 0.03124 0.94322 0.32264 0.0
O752 O 0.04174 0.85658 0.32335 0.0
C753 C 0.01745 0.06487 0.31211 0.0
O754 O 0.01265 0.03468 0.31882 0.0
C755 C 0.04752 0.71783 0.31366 0.0
C756 C 0.06623 0.68139 0.30875 0.0
C757 C 0.05409 0.6649 0.31204 0.0
N758 N 0.05536 0.76352 0.31149 0.0
N759 N 0.06663 0.74176 0.30867 0.0
C760 C 0.03343 0.72525 0.31616 0.0
H761 H 0.02982 0.77035 0.31432 0.0
H762 H 0.02733 0.69068 0.31288 0.0
H763 H 0.03241 0.71983 0.32343 0.0
C764 C 0.0231 0.90752 0.29506 0.0
N765 N 0.0312 0.90749 0.30209 0.0
N766 N 0.03772 0.85679 0.30228 0.0
C767 C 0.03415 0.82324 0.29527 0.0
C768 C 0.02467 0.85398 0.29051 0.0
C769 C 0.01405 0.95794 0.29283 0.0
H770 H 0.01981 0.99565 0.29007 0.0
H771 H 0.00915 0.97399 0.29894 0.0
H772 H 0.00653 0.94403 0.28796 0.0
O773 O 0.05459 0.98534 0.30967 0.0
O774 O 0.06512 0.89847 0.31022 0.0
H775 H 0.05121 0.76764 0.29425 0.0
H776 H 0.03961 0.75746 0.28542 0.0
C777 C 0.04067 0.76592 0.29262 0.0
H778 H 0.03612 0.72817 0.29625 0.0
H779 H 0.07437 0.76795 0.30638 0.0
O780 O 0.02672 0.04255 0.3076 0.0
C781 C 0.06519 0.95537 0.30961 0.0
Co782 Co 0.71472 0.78136 0.31092 0.0
Co783 Co 0.69973 0.90224 0.31209 0.0
C784 C 0.71613 0.8548 0.32717 0.0
O785 O 0.71952 0.80812 0.32294 0.0
O786 O 0.7086 0.89371 0.32372 0.0
C787 C 0.73167 0.67925 0.31324 0.0
O788 O 0.73443 0.70247 0.321 0.0
C789 C 0.69994 0.03019 0.31381 0.0
C790 C 0.6812 0.05817 0.30782 0.0
C791 C 0.6927 0.08 0.31146 0.0
N792 N 0.69309 0.98118 0.31166 0.0
N793 N 0.68177 -0.00206 0.30824 0.0
C794 C 0.7139 0.0287 0.3168 0.0
H795 H 0.71845 0.98491 0.31521 0.0
H796 H 0.71961 0.065 0.3136 0.0
H797 H 0.71426 0.03554 0.32406 0.0
C798 C 0.72574 0.83921 0.29498 0.0
N799 N 0.71821 0.84016 0.30229 0.0
N800 N 0.71153 0.89043 0.30252 0.0
C801 C 0.71443 0.92282 0.29524 0.0
C802 C 0.72356 0.89151 0.29026 0.0
C803 C 0.73391 0.78681 0.29225 0.0
H804 H 0.72748 0.74744 0.2912 0.0
H805 H 0.74082 0.7755 0.29766 0.0
H806 H 0.73943 0.79585 0.28608 0.0
O807 O 0.69593 0.75933 0.31068 0.0
O808 O 0.68501 0.84508 0.31127 0.0
H809 H 0.69774 0.97996 0.29377 0.0
H810 H 0.71096 -0.00271 0.28627 0.0
C811 C 0.70851 0.98235 0.29306 0.0
H812 H 0.7123 0.01641 0.29772 0.0
H813 H 0.67475 0.96836 0.30579 0.0
O814 O 0.7241 0.70721 0.30801 0.0
C815 C 0.68519 0.78816 0.3108 0.0
Co816 Co 0.9652 0.71024 0.06098 0.0
Co817 Co 0.94981 0.59033 0.06193 0.0
C818 C 0.96582 0.63756 0.07728 0.0
O819 O 0.96956 0.68393 0.0731 0.0
O820 O 0.95828 0.59922 0.0737 0.0
C821 C 0.98189 0.81307 0.0634 0.0
O822 O 0.98429 0.79077 0.07128 0.0
C823 C 0.95048 0.46261 0.06341 0.0
C824 C 0.93155 0.43344 0.05785 0.0
C825 C 0.94332 0.41238 0.06116 0.0
N826 N 0.94332 0.51116 0.06152 0.0
N827 N 0.9319 0.4937 0.05835 0.0
C828 C 0.96456 0.46502 0.06612 0.0
H829 H 0.9688 0.50968 0.06471 0.0
H830 H 0.9703 0.43012 0.06262 0.0
H831 H 0.96528 0.45646 0.07334 0.0
C832 C 0.977 0.65024 0.04545 0.0
N833 N 0.96896 0.65081 0.0525 0.0
N834 N 0.96203 0.60126 0.0526 0.0
C835 C 0.96527 0.56791 0.04549 0.0
C836 C 0.97496 0.59755 0.04077 0.0
C837 C 0.98644 0.69931 0.0433 0.0
H838 H 0.981 0.73772 0.04045 0.0
H839 H 0.9913 0.71484 0.04945 0.0
H840 H 0.99395 0.68419 0.0385 0.0
O841 O 0.94643 0.73257 0.06043 0.0
O842 O 0.93519 0.64763 0.06082 0.0
H843 H 0.94774 0.51576 0.04428 0.0
H844 H 0.95933 0.50401 0.03549 0.0
C845 C 0.95827 0.5121 0.0427 0.0
H846 H 0.96243 0.47322 0.04629 0.0
H847 H 0.92463 0.52284 0.05613 0.0
O848 O 0.97464 0.78427 0.05808 0.0
C849 C 0.93558 0.70454 0.06036 0.0
Co850 Co 0.2846 0.52035 0.06007 0.0
Co851 Co 0.29905 0.64243 0.06164 0.0
C852 C 0.28376 0.58839 0.07681 0.0
O853 O 0.28025 0.54287 0.07235 0.0
O854 O 0.29098 0.62869 0.07342 0.0
C855 C 0.26645 0.42247 0.06164 0.0
O856 O 0.26166 0.45245 0.06838 0.0
C857 C 0.29682 0.76892 0.06405 0.0
C858 C 0.31553 0.80519 0.05911 0.0
C859 C 0.30343 0.82183 0.06245 0.0
N860 N 0.30461 0.72318 0.06179 0.0
N861 N 0.31588 0.74484 0.05897 0.0
C862 C 0.28276 0.76157 0.0666 0.0
H863 H 0.27908 0.71677 0.06465 0.0
H864 H 0.27664 0.79664 0.06344 0.0
H865 H 0.28182 0.76602 0.07389 0.0
C866 C 0.27223 0.58204 0.04487 0.0
N867 N 0.28025 0.58108 0.05194 0.0
N868 N 0.2868 0.63168 0.05231 0.0
C869 C 0.28332 0.66616 0.04538 0.0
C870 C 0.27389 0.63613 0.04048 0.0
C871 C 0.26324 0.53188 0.04243 0.0
H872 H 0.26905 0.49476 0.03953 0.0
H873 H 0.25832 0.51468 0.04845 0.0
H874 H 0.25575 0.54653 0.03758 0.0
O875 O 0.30355 0.50169 0.05929 0.0
O876 O 0.31416 0.58824 0.06006 0.0
H877 H 0.3005 0.72112 0.04454 0.0
H878 H 0.28895 0.73295 0.03572 0.0
C879 C 0.28996 0.72352 0.04289 0.0
H880 H 0.28548 0.76099 0.04663 0.0
H881 H 0.32357 0.7186 0.0566 0.0
O882 O 0.27565 0.44512 0.05711 0.0
C883 C 0.31418 0.53142 0.05929 0.0
Co884 Co 0.96454 0.52487 0.18778 0.0
Co885 Co 0.95017 0.64692 0.18583 0.0
C886 C 0.96579 0.59142 0.17093 0.0
O887 O 0.96916 0.54627 0.17551 0.0
O888 O 0.95854 0.63221 0.17416 0.0
C889 C 0.98275 0.42702 0.18657 0.0
O890 O 0.98778 0.45699 0.17991 0.0
C891 C 0.95248 0.77335 0.18333 0.0
C892 C 0.93364 0.80975 0.18803 0.0
C893 C 0.94583 0.82632 0.18484 0.0
N894 N 0.94462 0.72767 0.18551 0.0
N895 N 0.93327 0.7494 0.18817 0.0
C896 C 0.96661 0.76589 0.18097 0.0
H897 H 0.9702 0.72101 0.18295 0.0
H898 H 0.97264 0.80082 0.18422 0.0
H899 H 0.96776 0.77046 0.1737 0.0
C900 C 0.97662 0.58773 0.20297 0.0
N901 N 0.96873 0.58626 0.19584 0.0
N902 N 0.96219 0.6368 0.19533 0.0
C903 C 0.96553 0.67177 0.20225 0.0
C904 C 0.97487 0.6421 0.20727 0.0
C905 C 0.98562 0.53786 0.20554 0.0
H906 H 0.97981 0.50102 0.2085 0.0
H907 H 0.99057 0.5201 0.19956 0.0
H908 H 0.99309 0.55303 0.21036 0.0
O909 O 0.94559 0.50652 0.18839 0.0
O910 O 0.93498 0.59292 0.1873 0.0
H911 H 0.94836 0.72698 0.20281 0.0
H912 H 0.95967 0.73907 0.21176 0.0
C913 C 0.95885 0.72933 0.20458 0.0
H914 H 0.96346 0.76657 0.20087 0.0
H915 H 0.92553 0.72323 0.19046 0.0
O916 O 0.97338 0.44972 0.19095 0.0
C917 C 0.93495 0.53619 0.18819 0.0
Co918 Co 0.2871 0.7112 0.18681 0.0
Co919 Co 0.30148 0.58867 0.18576 0.0
C920 C 0.28589 0.63936 0.17045 0.0
O921 O 0.28252 0.68617 0.17466 0.0
O922 O 0.29311 0.59974 0.17401 0.0
C923 C 0.26889 0.80908 0.18502 0.0
O924 O 0.26411 0.77896 0.17829 0.0
C925 C 0.29953 0.46176 0.1836 0.0
C926 C 0.3181 0.4266 0.18896 0.0
C927 C 0.30619 0.40927 0.18538 0.0
N928 N 0.3071 0.50799 0.18597 0.0
N929 N 0.31829 0.48699 0.18906 0.0
C930 C 0.28552 0.46817 0.18087 0.0
H931 H 0.28165 0.51277 0.18275 0.0
H932 H 0.27943 0.43282 0.18398 0.0
H933 H 0.2848 0.46326 0.17358 0.0
C934 C 0.27523 0.65384 0.20253 0.0
N935 N 0.28294 0.65244 0.19531 0.0
N936 N 0.28946 0.6017 0.19515 0.0
C937 C 0.28628 0.56949 0.20239 0.0
C938 C 0.27712 0.60135 0.20726 0.0
C939 C 0.26719 0.70682 0.20519 0.0
H940 H 0.27373 0.74574 0.2063 0.0
H941 H 0.26042 0.7186 0.19972 0.0
H942 H 0.26153 0.69811 0.21131 0.0
O943 O 0.30603 0.73004 0.18738 0.0
O944 O 0.31663 0.64333 0.18691 0.0
H945 H 0.3028 0.51122 0.20381 0.0
H946 H 0.28969 0.49575 0.21149 0.0
C947 C 0.29204 0.50975 0.20465 0.0
H948 H 0.28803 0.47549 0.2001 0.0
H949 H 0.32582 0.51371 0.19153 0.0
O950 O 0.27814 0.7867 0.18954 0.0
C951 C 0.31666 0.70028 0.18742 0.0
Co952 Co 0.03489 0.27464 0.93755 0.0
Co953 Co 0.0492 0.39702 0.936 0.0
C954 C 0.03426 0.34206 0.92075 0.0
O955 O 0.03076 0.2966 0.92522 0.0
O956 O 0.04134 0.38281 0.92416 0.0
C957 C 0.01671 0.17697 0.93592 0.0
O958 O 0.01195 0.20718 0.92919 0.0
C959 C 0.04692 0.52345 0.93355 0.0
C960 C 0.06555 0.55997 0.93861 0.0
C961 C 0.05348 0.57645 0.9352 0.0
N962 N 0.05471 0.47782 0.93586 0.0
N963 N 0.06593 0.49962 0.93875 0.0
C964 C 0.0329 0.5159 0.93092 0.0
H965 H 0.02924 0.47102 0.93283 0.0
H966 H 0.02672 0.55084 0.93404 0.0
H967 H 0.03206 0.52039 0.92363 0.0
C968 C 0.0222 0.33644 0.95261 0.0
N969 N 0.03031 0.33557 0.9456 0.0
N970 N 0.03681 0.38628 0.94525 0.0
C971 C 0.03323 0.42074 0.95217 0.0
C972 C 0.02377 0.39056 0.95702 0.0
C973 C 0.01322 0.28613 0.95501 0.0
H974 H 0.01902 0.2492 0.95797 0.0
H975 H 0.00842 0.26871 0.94895 0.0
H976 H 0.00563 0.30072 0.95978 0.0
O977 O 0.05383 0.25638 0.93853 0.0
O978 O 0.06434 0.34319 0.93774 0.0
H979 H 0.05039 0.47578 0.9531 0.0
H980 H 0.03876 0.48747 0.96187 0.0
C981 C 0.03984 0.47811 0.95469 0.0
H982 H 0.03538 0.51559 0.95095 0.0
H983 H 0.0736 0.47349 0.94117 0.0
O984 O 0.02592 0.19938 0.94047 0.0
C985 C 0.06442 0.28642 0.93858 0.0
Co986 Co 0.71439 0.45839 0.93741 0.0
Co987 Co 0.70005 0.3362 0.93545 0.0
C988 C 0.71589 0.39102 0.92062 0.0
O989 O 0.71919 0.43624 0.92521 0.0
O990 O 0.70858 0.35032 0.92381 0.0
C991 C 0.73267 0.55604 0.93618 0.0
O992 O 0.73775 0.52585 0.92956 0.0
C993 C 0.70188 0.20954 0.93275 0.0
C994 C 0.68326 0.17423 0.93798 0.0
C995 C 0.69518 0.15693 0.93443 0.0
N996 N 0.69432 0.25566 0.93519 0.0
N997 N 0.68309 0.23458 0.93817 0.0
C998 C 0.71591 0.21619 0.93006 0.0
H999 H 0.71979 0.26035 0.93214 0.0
H1000 H 0.72198 0.1802 0.93302 0.0
H1001 H 0.71664 0.21289 0.92275 0.0
C1002 C 0.72595 0.39703 0.95286 0.0
N1003 N 0.71837 0.3975 0.94558 0.0
N1004 N 0.71191 0.34672 0.94505 0.0
C1005 C 0.71501 0.31254 0.95211 0.0
C1006 C 0.72405 0.34319 0.95725 0.0
C1007 C 0.73388 0.44942 0.9559 0.0
H1008 H 0.7273 0.48814 0.95705 0.0
H1009 H 0.74086 0.46225 0.95062 0.0
H1010 H 0.73931 0.43952 0.96209 0.0
O1011 O 0.69547 0.47708 0.93786 0.0
O1012 O 0.68487 0.39069 0.93674 0.0
H1013 H 0.69856 0.25344 0.95303 0.0
H1014 H 0.71153 0.23631 0.96074 0.0
C1015 C 0.7093 0.25208 0.95396 0.0
H1016 H 0.71347 0.21919 0.94926 0.0
H1017 H 0.67558 0.26117 0.9407 0.0
O1018 O 0.72327 0.53352 0.94054 0.0
C1019 C 0.68484 0.44747 0.93758 0.0
Co1020 Co 0.03667 0.4588 0.81052 0.0
Co1021 Co 0.05132 0.33691 0.81157 0.0
C1022 C 0.03574 0.38724 0.82691 0.0
O1023 O 0.03221 0.43369 0.82268 0.0
O1024 O 0.04303 0.34787 0.82335 0.0
C1025 C 0.0186 0.5571 0.81246 0.0
O1026 O 0.01404 0.52749 0.81931 0.0
C1027 C 0.04966 0.20993 0.81379 0.0
C1028 C 0.0682 0.17545 0.8083 0.0
C1029 C 0.05639 0.15767 0.81197 0.0
N1030 N 0.05711 0.25644 0.81135 0.0
N1031 N 0.06828 0.23584 0.80819 0.0
C1032 C 0.03568 0.21582 0.81662 0.0
H1033 H 0.03169 0.26016 0.81472 0.0
H1034 H 0.02961 0.18008 0.81359 0.0
H1035 H 0.03509 0.21123 0.82391 0.0
C1036 C 0.02487 0.40097 0.79483 0.0
N1037 N 0.0326 0.39986 0.80204 0.0
N1038 N 0.0392 0.34934 0.80219 0.0
C1039 C 0.03602 0.31691 0.79498 0.0
C1040 C 0.0268 0.34847 0.79011 0.0
C1041 C 0.01678 0.4538 0.79217 0.0
H1042 H 0.02329 0.49288 0.79109 0.0
H1043 H 0.00998 0.46539 0.79763 0.0
H1044 H 0.01114 0.4451 0.78603 0.0
O1045 O 0.05554 0.47829 0.80994 0.0
O1046 O 0.06638 0.39221 0.81039 0.0
H1047 H 0.05259 0.25904 0.79348 0.0
H1048 H 0.03934 0.24261 0.78595 0.0
C1049 C 0.04182 0.25719 0.79275 0.0
H1050 H 0.03795 0.22314 0.79738 0.0
H1051 H 0.07572 0.26282 0.80566 0.0
O1052 O 0.02763 0.53414 0.80779 0.0
C1053 C 0.06625 0.44917 0.80988 0.0
Co1054 Co 0.7141 0.28242 0.81047 0.0
Co1055 Co 0.69963 0.40468 0.81168 0.0
C1056 C 0.71529 0.35348 0.82691 0.0
O1057 O 0.71868 0.30704 0.82262 0.0
O1058 O 0.70803 0.39327 0.82342 0.0
C1059 C 0.73225 0.18442 0.81226 0.0
O1060 O 0.73696 0.21435 0.81903 0.0
C1061 C 0.70135 0.53163 0.81396 0.0
C1062 C 0.68277 0.56623 0.80854 0.0
C1063 C 0.69461 0.58393 0.81217 0.0
N1064 N 0.69388 0.48518 0.81153 0.0
N1065 N 0.68268 0.50585 0.80842 0.0
C1066 C 0.71535 0.52563 0.81675 0.0
H1067 H 0.71931 0.48132 0.81481 0.0
H1068 H 0.7214 0.56142 0.81372 0.0
H1069 H 0.71598 0.53004 0.82404 0.0
C1070 C 0.72587 0.34064 0.7948 0.0
N1071 N 0.71818 0.34161 0.80203 0.0
N1072 N 0.71165 0.3923 0.80225 0.0
C1073 C 0.71481 0.42494 0.79506 0.0
C1074 C 0.72396 0.39338 0.79013 0.0
C1075 C 0.7339 0.28781 0.79207 0.0
H1076 H 0.72736 0.2489 0.79095 0.0
H1077 H 0.74071 0.27584 0.7975 0.0
H1078 H 0.73953 0.29677 0.78593 0.0
O1079 O 0.6952 0.26327 0.80994 0.0
O1080 O 0.68452 0.34973 0.81052 0.0
H1081 H 0.69827 0.48313 0.79367 0.0
H1082 H 0.71145 0.49938 0.78607 0.0
C1083 C 0.70903 0.48479 0.79288 0.0
H1084 H 0.71298 0.51872 0.7975 0.0
H1085 H 0.67522 0.47892 0.8059 0.0
O1086 O 0.72309 0.20706 0.80768 0.0
C1087 C 0.68454 0.2928 0.80996 0.0
C1088 C 0.46928 0.09192 0.09074 0.0
C1089 C 0.47005 0.14618 0.08605 0.0
C1090 C 0.47177 0.09034 0.09983 0.0
C1091 C 0.46817 0.18222 0.11918 0.0
H1092 H 0.49006 0.06508 0.13096 0.0
C1093 C 0.46996 0.17227 0.15711 0.0
C1094 C 0.4703 0.11519 0.16099 0.0
C1095 C 0.47234 0.17934 0.14807 0.0
C1096 C 0.48379 0.09771 0.1278 0.0
H1097 H 0.47444 0.24097 0.08716 0.0
H1098 H 0.47845 0.23827 0.10311 0.0
H1099 H 0.48977 0.06994 0.11481 0.0
H1100 H 0.47368 0.02087 0.15851 0.0
H1101 H 0.4772 0.03258 0.14269 0.0
H1102 H 0.4615 0.20792 0.13199 0.0
C1103 C 0.47602 0.19704 0.0997 0.0
C1104 C 0.48372 0.10066 0.11855 0.0
C1105 C 0.47377 0.19846 0.09059 0.0
C1106 C 0.47343 0.0655 0.1557 0.0
C1107 C 0.47553 0.07237 0.14662 0.0
C1108 C 0.46804 0.17858 0.1284 0.0
C1109 C 0.47487 0.14313 0.10441 0.0
C1110 C 0.47583 0.14266 0.11417 0.0
C1111 C 0.4748 0.1293 0.14265 0.0
C1112 C 0.47576 0.1359 0.13285 0.0
H1113 H 0.4665 0.05086 0.08742 0.0
H1114 H 0.47073 0.04831 0.10333 0.0
H1115 H 0.46186 0.21445 0.11595 0.0
H1116 H 0.46773 0.21148 0.16104 0.0
H1117 H 0.47204 0.22409 0.14532 0.0
C1118 C 0.77749 0.06254 0.09169 0.0
C1119 C 0.78036 0.11286 0.08647 0.0
C1120 C 0.77505 0.06884 0.10074 0.0
C1121 C 0.78116 0.17596 0.11907 0.0
H1122 H 0.76014 0.06308 0.13241 0.0
C1123 C 0.77487 0.19436 0.1568 0.0
C1124 C 0.77899 0.14275 0.16134 0.0
C1125 C 0.77262 0.19248 0.14768 0.0
C1126 C 0.76599 0.09499 0.12874 0.0
H1127 H 0.78206 0.20954 0.08648 0.0
H1128 H 0.77714 0.22105 0.10214 0.0
H1129 H 0.76022 0.05853 0.11625 0.0
H1130 H 0.78321 0.04797 0.16 0.0
H1131 H 0.77901 0.04462 0.14408 0.0
H1132 H 0.78678 0.21264 0.13159 0.0
C1133 C 0.77733 0.17634 0.09937 0.0
C1134 C 0.76613 0.09223 0.11949 0.0
C1135 C 0.78005 0.16988 0.09037 0.0
C1136 C 0.78012 0.08854 0.15667 0.0
C1137 C 0.77764 0.08649 0.14758 0.0
C1138 C 0.78081 0.17936 0.12829 0.0
C1139 C 0.77516 0.12578 0.10474 0.0
C1140 C 0.77392 0.132 0.11453 0.0
C1141 C 0.7742 0.13878 0.14298 0.0
C1142 C 0.77341 0.13831 0.13321 0.0
H1143 H 0.77773 0.01795 0.08886 0.0
H1144 H 0.77362 0.02869 0.10463 0.0
H1145 H 0.78751 0.20655 0.11556 0.0
H1146 H 0.77392 0.23681 0.1602 0.0
H1147 H 0.76991 0.23331 0.14427 0.0
C1148 C 0.5293 0.91496 0.90732 0.0
C1149 C 0.52954 0.85767 0.91113 0.0
C1150 C 0.52662 0.9221 0.89832 0.0
C1151 C 0.5155 0.83961 0.87803 0.0
H1152 H 0.53628 0.96079 0.86621 0.0
C1153 C 0.52982 0.83885 0.84091 0.0
C1154 C 0.52873 0.89342 0.83633 0.0
C1155 C 0.52725 0.83606 0.84998 0.0
C1156 C 0.53028 0.9273 0.86944 0.0
H1157 H 0.52683 0.763 0.90859 0.0
H1158 H 0.5228 0.7749 0.89283 0.0
H1159 H 0.53691 0.95341 0.88223 0.0
H1160 H 0.52362 0.98736 0.8376 0.0
H1161 H 0.51945 0.98257 0.85351 0.0
H1162 H 0.50959 0.81154 0.86504 0.0
C1163 C 0.52425 0.81475 0.89679 0.0
C1164 C 0.53056 0.92316 0.87864 0.0
C1165 C 0.52665 0.80777 0.90584 0.0
C1166 C 0.52455 0.94464 0.84094 0.0
C1167 C 0.5222 0.94203 0.85004 0.0
C1168 C 0.51542 0.8431 0.86879 0.0
C1169 C 0.52444 0.87196 0.89287 0.0
C1170 C 0.52327 0.87892 0.88308 0.0
C1171 C 0.52375 0.88796 0.85466 0.0
C1172 C 0.52289 0.88673 0.86442 0.0
H1173 H 0.53133 0.95431 0.91128 0.0
H1174 H 0.52648 0.96701 0.89563 0.0
H1175 H 0.50955 0.80571 0.88119 0.0
H1176 H 0.53296 0.79857 0.83752 0.0
H1177 H 0.52859 0.79393 0.85341 0.0
C1178 C 0.22281 0.81844 0.84182 0.0
C1179 C 0.21973 0.86804 0.8365 0.0
C1180 C 0.22496 0.82559 0.85089 0.0
C1181 C 0.21768 0.93282 0.86903 0.0
H1182 H 0.23933 0.82435 0.8827 0.0
C1183 C 0.22366 0.95497 0.9068 0.0
C1184 C 0.22 0.90299 0.91142 0.0
C1185 C 0.22581 0.95292 0.89767 0.0
C1186 C 0.23329 0.85502 0.87894 0.0
H1187 H 0.21733 0.96441 0.83637 0.0
H1188 H 0.22173 0.97747 0.85207 0.0
H1189 H 0.23953 0.81853 0.86655 0.0
H1190 H 0.21643 0.80758 0.91021 0.0
H1191 H 0.22047 0.80395 0.89428 0.0
H1192 H 0.2116 0.96959 0.88145 0.0
C1193 C 0.22194 0.93261 0.84936 0.0
C1194 C 0.23331 0.85152 0.86969 0.0
C1195 C 0.21952 0.92527 0.84033 0.0
C1196 C 0.21916 0.84842 0.90682 0.0
C1197 C 0.22155 0.84622 0.89772 0.0
C1198 C 0.21785 0.93698 0.87824 0.0
C1199 C 0.22433 0.8827 0.85482 0.0
C1200 C 0.22532 0.88969 0.86461 0.0
C1201 C 0.22461 0.89869 0.89304 0.0
C1202 C 0.22549 0.89752 0.88328 0.0
H1203 H 0.22297 0.7737 0.83905 0.0
H1204 H 0.22658 0.7859 0.85485 0.0
H1205 H 0.21116 0.96214 0.86542 0.0
H1206 H 0.22438 -0.00231 0.91016 0.0
H1207 H 0.22821 0.9939 0.8942 0.0
C1208 C 0.47412 0.54826 0.65645 0.0
C1209 C 0.47013 0.59966 0.6611 0.0
C1210 C 0.47624 0.55071 0.64733 0.0
C1211 C 0.48283 0.64952 0.62854 0.0
H1212 H 0.46117 0.53934 0.61521 0.0
C1213 C 0.47175 0.68317 0.5914 0.0
C1214 C 0.46896 0.63286 0.58616 0.0
C1215 C 0.47399 0.67686 0.60048 0.0
C1216 C 0.46755 0.56957 0.61876 0.0
H1217 H 0.46597 0.69459 0.65992 0.0
H1218 H 0.46995 0.69895 0.64398 0.0
H1219 H 0.4619 0.53223 0.63123 0.0
H1220 H 0.46717 0.53621 0.58617 0.0
H1221 H 0.47174 0.52469 0.60187 0.0
H1222 H 0.48864 0.68659 0.61609 0.0
C1223 C 0.47131 0.6568 0.64741 0.0
C1224 C 0.4679 0.56558 0.62797 0.0
C1225 C 0.46897 0.65418 0.65651 0.0
C1226 C 0.46912 0.57587 0.59007 0.0
C1227 C 0.47164 0.5694 0.5991 0.0
C1228 C 0.48269 0.65288 0.61929 0.0
C1229 C 0.47465 0.60479 0.64271 0.0
C1230 C 0.47538 0.60604 0.63294 0.0
C1231 C 0.47375 0.61992 0.60449 0.0
C1232 C 0.47487 0.61354 0.61428 0.0
H1233 H 0.47509 0.50558 0.65979 0.0
H1234 H 0.47886 0.51008 0.64383 0.0
H1235 H 0.48873 0.68101 0.63225 0.0
H1236 H 0.47164 0.72772 0.58857 0.0
H1237 H 0.4754 0.71697 0.60439 0.0
C1238 C 0.77502 0.68835 0.65623 0.0
C1239 C 0.77925 0.63776 0.66097 0.0
C1240 C 0.77295 0.68496 0.6471 0.0
C1241 C 0.76714 0.58417 0.6284 0.0
H1242 H 0.78833 0.69633 0.61509 0.0
C1243 C 0.77878 0.55056 0.59133 0.0
C1244 C 0.78127 0.60108 0.58606 0.0
C1245 C 0.77647 0.55684 0.6004 0.0
C1246 C 0.78208 0.66549 0.61864 0.0
H1247 H 0.78385 0.54316 0.65996 0.0
H1248 H 0.77998 0.53715 0.64403 0.0
H1249 H 0.78734 0.70412 0.6311 0.0
H1250 H 0.78247 0.69793 0.58602 0.0
H1251 H 0.77778 0.70928 0.6017 0.0
H1252 H 0.76172 0.54579 0.61596 0.0
C1253 C 0.77838 0.5794 0.64738 0.0
C1254 C 0.78159 0.66988 0.62784 0.0
C1255 C 0.78067 0.58298 0.65648 0.0
C1256 C 0.78076 0.65813 0.58994 0.0
C1257 C 0.77817 0.66452 0.59896 0.0
C1258 C 0.76744 0.58037 0.61916 0.0
C1259 C 0.77484 0.63072 0.64258 0.0
C1260 C 0.77427 0.62879 0.63281 0.0
C1261 C 0.77633 0.6139 0.60437 0.0
C1262 C 0.77508 0.62045 0.61416 0.0
H1263 H 0.77385 0.73121 0.65949 0.0
H1264 H 0.77016 0.72506 0.64354 0.0
H1265 H 0.76137 0.55215 0.63211 0.0
H1266 H 0.77916 0.50597 0.58852 0.0
H1267 H 0.77528 0.51668 0.60433 0.0
C1268 C 0.52993 0.42072 0.40741 0.0
C1269 C 0.53035 0.3638 0.41133 0.0
C1270 C 0.52708 0.4269 0.39842 0.0
C1271 C 0.51586 0.34191 0.37837 0.0
H1272 H 0.53637 0.46233 0.36617 0.0
C1273 C 0.53011 0.33691 0.34124 0.0
C1274 C 0.52898 0.39091 0.33652 0.0
C1275 C 0.5275 0.33517 0.35032 0.0
C1276 C 0.53044 0.42905 0.3695 0.0
H1277 H 0.52777 0.26878 0.409 0.0
H1278 H 0.52347 0.27903 0.39326 0.0
H1279 H 0.53711 0.45693 0.3822 0.0
H1280 H 0.52374 0.48485 0.33754 0.0
H1281 H 0.5195 0.48187 0.35344 0.0
H1282 H 0.50991 0.31204 0.36548 0.0
C1283 C 0.5249 0.31931 0.39712 0.0
C1284 C 0.53079 0.42605 0.37871 0.0
C1285 C 0.52746 0.31329 0.40616 0.0
C1286 C 0.5247 0.44255 0.34099 0.0
C1287 C 0.52231 0.44099 0.35008 0.0
C1288 C 0.51572 0.34427 0.36912 0.0
C1289 C 0.52491 0.37615 0.39308 0.0
C1290 C 0.52361 0.38207 0.38329 0.0
C1291 C 0.52392 0.38755 0.35485 0.0
C1292 C 0.52309 0.38759 0.36462 0.0
H1293 H 0.53194 0.46052 0.41127 0.0
H1294 H 0.52682 0.47153 0.39563 0.0
H1295 H 0.51 0.30818 0.38164 0.0
H1296 H 0.53332 0.29632 0.33797 0.0
H1297 H 0.52889 0.29351 0.35387 0.0
C1298 C 0.22288 0.31475 0.34121 0.0
C1299 C 0.21992 0.36482 0.33596 0.0
C1300 C 0.22515 0.3213 0.35027 0.0
C1301 C 0.21835 0.42813 0.36854 0.0
H1302 H 0.23942 0.31642 0.38206 0.0
C1303 C 0.22388 0.44547 0.40639 0.0
C1304 C 0.21979 0.39341 0.41084 0.0
C1305 C 0.22627 0.44429 0.39729 0.0
C1306 C 0.23356 0.34802 0.37834 0.0
H1307 H 0.21788 0.46136 0.33593 0.0
H1308 H 0.2225 0.47335 0.35163 0.0
H1309 H 0.23971 0.31205 0.36591 0.0
H1310 H 0.21567 0.29867 0.4093 0.0
H1311 H 0.22013 0.29651 0.39342 0.0
H1312 H 0.21236 0.46433 0.38102 0.0
C1313 C 0.22252 0.42861 0.34887 0.0
C1314 C 0.23363 0.34535 0.3691 0.0
C1315 C 0.21997 0.42188 0.33985 0.0
C1316 C 0.21876 0.33955 0.40607 0.0
C1317 C 0.22138 0.33819 0.397 0.0
C1318 C 0.21849 0.43147 0.37776 0.0
C1319 C 0.22477 0.37825 0.35427 0.0
C1320 C 0.22581 0.38463 0.36407 0.0
C1321 C 0.22486 0.39082 0.3925 0.0
C1322 C 0.2259 0.3908 0.38274 0.0
H1323 H 0.22285 0.27014 0.33839 0.0
H1324 H 0.22665 0.28128 0.35418 0.0
H1325 H 0.21198 0.45834 0.36497 0.0
H1326 H 0.22476 0.48768 0.40988 0.0
H1327 H 0.22898 0.48539 0.39396 0.0
C1328 C 0.96852 0.15556 0.65674 0.0
C1329 C 0.9693 0.10117 0.6614 0.0
C1330 C 0.97109 0.15747 0.64767 0.0
C1331 C 0.9677 0.06582 0.62826 0.0
H1332 H 0.98933 0.18426 0.61656 0.0
C1333 C 0.96963 0.07635 0.59035 0.0
C1334 C 0.96984 0.13347 0.58648 0.0
C1335 C 0.97196 0.06933 0.59939 0.0
C1336 C 0.98313 0.15127 0.6197 0.0
H1337 H 0.97381 0.00652 0.66024 0.0
H1338 H 0.97797 0.00981 0.64432 0.0
H1339 H 0.98904 0.17902 0.63271 0.0
H1340 H 0.97296 0.22794 0.58898 0.0
H1341 H 0.97641 0.2163 0.60481 0.0
H1342 H 0.96111 0.04008 0.61544 0.0
C1343 C 0.97547 0.05088 0.64774 0.0
C1344 C 0.98306 0.1481 0.62895 0.0
C1345 C 0.97313 0.04912 0.65685 0.0
C1346 C 0.9728 0.18329 0.59178 0.0
C1347 C 0.97486 0.17646 0.60086 0.0
C1348 C 0.96758 0.06965 0.61905 0.0
C1349 C 0.97428 0.10489 0.64306 0.0
C1350 C 0.97526 0.10562 0.6333 0.0
C1351 C 0.97427 0.11946 0.60483 0.0
C1352 C 0.9752 0.11278 0.61463 0.0
H1353 H 0.96565 0.19645 0.66008 0.0
H1354 H 0.97002 0.19958 0.64418 0.0
H1355 H 0.96145 0.03323 0.63148 0.0
H1356 H 0.96754 0.03703 0.5864 0.0
H1357 H 0.97177 0.02455 0.60213 0.0
C1358 C 0.27621 0.04892 0.59084 0.0
C1359 C 0.28023 0.10027 0.58619 0.0
C1360 C 0.27409 0.0514 0.59996 0.0
C1361 C 0.2675 0.15024 0.61875 0.0
H1362 H 0.28903 0.03961 0.6321 0.0
C1363 C 0.27842 0.18324 0.65592 0.0
C1364 C 0.28117 0.13282 0.66115 0.0
C1365 C 0.2762 0.17709 0.64684 0.0
C1366 C 0.28268 0.06997 0.62853 0.0
H1367 H 0.28446 0.19514 0.58738 0.0
H1368 H 0.28047 0.19954 0.60331 0.0
H1369 H 0.28837 0.03267 0.61607 0.0
H1370 H 0.28291 0.03615 0.66111 0.0
H1371 H 0.27837 0.0249 0.6454 0.0
H1372 H 0.26165 0.18726 0.63119 0.0
C1373 C 0.27908 0.15741 0.59988 0.0
C1374 C 0.28238 0.06608 0.61933 0.0
C1375 C 0.28143 0.15477 0.59078 0.0
C1376 C 0.28098 0.07589 0.65722 0.0
C1377 C 0.27849 0.06958 0.64818 0.0
C1378 C 0.2676 0.1535 0.62799 0.0
C1379 C 0.2757 0.10545 0.60458 0.0
C1380 C 0.27495 0.1067 0.61435 0.0
C1381 C 0.27643 0.1202 0.64281 0.0
C1382 C 0.27537 0.11398 0.63301 0.0
H1383 H 0.27521 0.00626 0.58749 0.0
H1384 H 0.27143 0.0108 0.60345 0.0
H1385 H 0.26164 0.18185 0.61503 0.0
H1386 H 0.27856 0.22775 0.65877 0.0
H1387 H 0.27484 0.21727 0.64294 0.0
C1388 C 0.03102 0.90605 0.40672 0.0
C1389 C 0.0296 0.85111 0.41116 0.0
C1390 C 0.02868 0.91 0.39762 0.0
C1391 C 0.03161 0.82019 0.37798 0.0
H1392 H 0.01166 0.94489 0.36631 0.0
C1393 C 0.03027 0.83268 0.34012 0.0
C1394 C 0.03079 0.88978 0.33626 0.0
C1395 C 0.02776 0.82618 0.34914 0.0
C1396 C 0.01739 0.91014 0.36945 0.0
H1397 H 0.02413 0.75779 0.40962 0.0
H1398 H 0.02035 0.7646 0.39368 0.0
H1399 H 0.01154 0.93811 0.38246 0.0
H1400 H 0.02877 0.98487 0.33875 0.0
H1401 H 0.02502 0.97398 0.35458 0.0
H1402 H 0.03815 0.79397 0.36517 0.0
C1403 C 0.0232 0.80452 0.39727 0.0
C1404 C 0.01724 0.90611 0.37869 0.0
C1405 C 0.02532 0.80075 0.40639 0.0
C1406 C 0.02837 0.94025 0.34155 0.0
C1407 C 0.02613 0.93387 0.35063 0.0
C1408 C 0.03197 0.82481 0.36878 0.0
C1409 C 0.02507 0.85891 0.39279 0.0
C1410 C 0.0244 0.86125 0.38302 0.0
C1411 C 0.02602 0.87675 0.35458 0.0
C1412 C 0.02493 0.87005 0.36437 0.0
H1413 H 0.03424 0.94571 0.41023 0.0
H1414 H 0.03027 0.95236 0.3943 0.0
H1415 H 0.03739 0.78578 0.38118 0.0
H1416 H 0.03193 0.79292 0.33617 0.0
H1417 H 0.02737 0.78138 0.35186 0.0
C1418 C 0.72062 0.91962 0.3403 0.0
C1419 C 0.72032 0.86246 0.33645 0.0
C1420 C 0.72341 0.92642 0.34929 0.0
C1421 C 0.73479 0.8431 0.36944 0.0
H1422 H 0.71408 0.96344 0.38151 0.0
C1423 C 0.72071 0.83964 0.40659 0.0
C1424 C 0.72175 0.89392 0.41125 0.0
C1425 C 0.72326 0.83755 0.39751 0.0
C1426 C 0.72007 0.9302 0.37821 0.0
H1427 H 0.72306 0.76768 0.3389 0.0
H1428 H 0.72728 0.779 0.35464 0.0
H1429 H 0.71331 0.957 0.36548 0.0
H1430 H 0.72677 0.98803 0.41012 0.0
H1431 H 0.73092 0.98445 0.39421 0.0
H1432 H 0.74084 0.81429 0.38237 0.0
C1433 C 0.72579 0.819 0.35073 0.0
C1434 C 0.7197 0.92659 0.369 0.0
C1435 C 0.72328 0.81236 0.34169 0.0
C1436 C 0.72588 0.94553 0.40672 0.0
C1437 C 0.72822 0.94362 0.39762 0.0
C1438 C 0.73496 0.84605 0.37869 0.0
C1439 C 0.72566 0.87607 0.35469 0.0
C1440 C 0.72695 0.88262 0.36447 0.0
C1441 C 0.7267 0.88986 0.39291 0.0
C1442 C 0.72751 0.88935 0.38314 0.0
H1443 H 0.71855 0.95912 0.33639 0.0
H1444 H 0.72358 0.97122 0.35203 0.0
H1445 H 0.74072 0.8094 0.36621 0.0
H1446 H 0.71761 0.79907 0.40991 0.0
H1447 H 0.72195 0.79564 0.39401 0.0
C1448 C 0.96886 0.64949 0.15692 0.0
C1449 C 0.96967 0.59492 0.16152 0.0
C1450 C 0.97133 0.6517 0.14783 0.0
C1451 C 0.96781 0.56065 0.12836 0.0
H1452 H 0.98933 0.67968 0.11668 0.0
C1453 C 0.96952 0.57221 0.09046 0.0
C1454 C 0.96963 0.62945 0.08662 0.0
C1455 C 0.97195 0.56499 0.09949 0.0
C1456 C 0.98316 0.64652 0.11982 0.0
H1457 H 0.97412 0.50029 0.16028 0.0
H1458 H 0.97813 0.5041 0.14434 0.0
H1459 H 0.98912 0.67393 0.13283 0.0
H1460 H 0.9727 0.7239 0.08916 0.0
H1461 H 0.97632 0.71188 0.10497 0.0
H1462 H 0.96118 0.53523 0.11553 0.0
C1463 C 0.97567 0.54507 0.1478 0.0
C1464 C 0.98313 0.64306 0.12906 0.0
C1465 C 0.97342 0.543 0.15692 0.0
C1466 C 0.97262 0.67917 0.09193 0.0
C1467 C 0.97478 0.67213 0.10101 0.0
C1468 C 0.96765 0.56476 0.11915 0.0
C1469 C 0.97446 0.59926 0.14316 0.0
C1470 C 0.97538 0.60036 0.1334 0.0
C1471 C 0.97425 0.61501 0.10494 0.0
C1472 C 0.97523 0.60809 0.11474 0.0
H1473 H 0.96605 0.69029 0.1603 0.0
H1474 H 0.97025 0.69395 0.14438 0.0
H1475 H 0.9616 0.52789 0.13156 0.0
H1476 H 0.96741 0.53297 0.08649 0.0
H1477 H 0.97181 0.52013 0.1022 0.0
C1478 C 0.28119 0.64801 0.09072 0.0
C1479 C 0.28009 0.59306 0.08624 0.0
C1480 C 0.27894 0.65131 0.09983 0.0
C1481 C 0.28257 0.56145 0.11943 0.0
H1482 H 0.26208 0.68405 0.13117 0.0
C1483 C 0.28162 0.57462 0.15729 0.0
C1484 C 0.28194 0.63187 0.16112 0.0
C1485 C 0.27901 0.56762 0.14829 0.0
C1486 C 0.26796 0.64989 0.12801 0.0
H1487 H 0.2753 0.49894 0.08773 0.0
H1488 H 0.27167 0.50463 0.1037 0.0
H1489 H 0.26183 0.67705 0.11503 0.0
H1490 H 0.27945 0.72668 0.15858 0.0
H1491 H 0.27552 0.71495 0.14279 0.0
H1492 H 0.28938 0.53612 0.13221 0.0
C1493 C 0.2742 0.54506 0.10013 0.0
C1494 C 0.26773 0.64572 0.11877 0.0
C1495 C 0.27624 0.54191 0.09099 0.0
C1496 C 0.27921 0.68194 0.15581 0.0
C1497 C 0.27688 0.67507 0.14675 0.0
C1498 C 0.283 0.56622 0.12863 0.0
C1499 C 0.27573 0.59959 0.10464 0.0
C1500 C 0.27509 0.60167 0.11441 0.0
C1501 C 0.27697 0.61784 0.14283 0.0
C1502 C 0.27577 0.61075 0.13306 0.0
H1503 H 0.28407 0.68826 0.08723 0.0
H1504 H 0.28027 0.69379 0.10317 0.0
H1505 H 0.28851 0.52769 0.11621 0.0
H1506 H 0.28353 0.53515 0.16124 0.0
H1507 H 0.2788 0.52271 0.14559 0.0
C1508 C 0.02912 0.43034 0.84152 0.0
C1509 C 0.03196 0.38008 0.83628 0.0
C1510 C 0.02697 0.42403 0.85061 0.0
C1511 C 0.03375 0.31717 0.8689 0.0
H1512 H 0.01232 0.42739 0.88242 0.0
C1513 C 0.02706 0.29452 0.90657 0.0
C1514 C 0.03073 0.34609 0.91129 0.0
C1515 C 0.02509 0.2971 0.89743 0.0
C1516 C 0.0183 0.39626 0.8787 0.0
H1517 H 0.03394 0.28351 0.83631 0.0
H1518 H 0.02952 0.27197 0.85202 0.0
H1519 H 0.01238 0.43319 0.86627 0.0
H1520 H 0.03453 0.44141 0.91021 0.0
H1521 H 0.03083 0.44596 0.89424 0.0
H1522 H 0.03951 0.27994 0.88135 0.0
C1523 C 0.02951 0.31666 0.84925 0.0
C1524 C 0.01842 0.39974 0.86945 0.0
C1525 C 0.03194 0.32314 0.84021 0.0
C1526 C 0.03177 0.40085 0.90675 0.0
C1527 C 0.02959 0.40358 0.89763 0.0
C1528 C 0.03343 0.31306 0.8781 0.0
C1529 C 0.02735 0.36715 0.85463 0.0
C1530 C 0.02632 0.3608 0.86443 0.0
C1531 C 0.02652 0.35148 0.89286 0.0
C1532 C 0.02586 0.35306 0.88309 0.0
H1533 H 0.02914 0.47487 0.83868 0.0
H1534 H 0.02552 0.46412 0.85452 0.0
H1535 H 0.04019 0.28727 0.86533 0.0
H1536 H 0.02618 0.25167 0.90987 0.0
H1537 H 0.02267 0.25639 0.89389 0.0
C1538 C 0.71936 0.41679 0.84026 0.0
C1539 C 0.71918 0.36005 0.83627 0.0
C1540 C 0.72189 0.42269 0.84929 0.0
C1541 C 0.73286 0.33782 0.86938 0.0
H1542 H 0.71195 0.45742 0.88146 0.0
C1543 C 0.71881 0.33336 0.90654 0.0
C1544 C 0.71984 0.38758 0.91122 0.0
C1545 C 0.72127 0.33149 0.89745 0.0
C1546 C 0.71798 0.42437 0.87816 0.0
H1547 H 0.72184 0.26502 0.83855 0.0
H1548 H 0.72562 0.27478 0.85437 0.0
H1549 H 0.71134 0.45162 0.86542 0.0
H1550 H 0.72472 0.48186 0.9101 0.0
H1551 H 0.7287 0.47864 0.89417 0.0
H1552 H 0.7388 0.30865 0.88231 0.0
C1553 C 0.72423 0.31514 0.85052 0.0
C1554 C 0.71771 0.42113 0.86895 0.0
C1555 C 0.72197 0.3094 0.84144 0.0
C1556 C 0.72384 0.4394 0.90669 0.0
C1557 C 0.72608 0.43769 0.89757 0.0
C1558 C 0.73293 0.34043 0.87863 0.0
C1559 C 0.72399 0.37182 0.85461 0.0
C1560 C 0.72506 0.37753 0.86441 0.0
C1561 C 0.72461 0.38393 0.89286 0.0
C1562 C 0.72542 0.38351 0.88309 0.0
H1563 H 0.7174 0.4567 0.83641 0.0
H1564 H 0.72199 0.46722 0.85212 0.0
H1565 H 0.73884 0.30437 0.86614 0.0
H1566 H 0.71581 0.29264 0.90986 0.0
H1567 H 0.72 0.28958 0.89395 0.0
C1568 C 0.52928 0.91334 0.97323 0.0
C1569 C 0.52087 0.90387 0.96604 0.0
C1570 C 0.52434 0.93301 0.98134 0.0
C1571 C 0.49405 0.94403 0.99449 0.0
H1572 H 0.51268 0.07092 0.00666 0.0
C1573 C 0.47194 0.06765 0.02438 0.0
C1574 C 0.48028 0.07891 0.03154 0.0
C1575 C 0.47698 0.04663 0.01638 0.0
C1576 C 0.50745 0.03503 0.0034 0.0
H1577 H 0.50077 0.90554 0.96163 0.0
H1578 H 0.49202 0.94014 0.97583 0.0
H1579 H 0.52127 0.03146 0.99279 0.0
H1580 H 0.50034 0.07888 0.03605 0.0
H1581 H 0.50927 0.04169 0.02204 0.0
H1582 H 0.48023 0.94759 0.0051 0.0
C1583 C 0.50243 0.93217 0.97524 0.0
C1584 C 0.51236 0.01239 0.99545 0.0
C1585 C 0.5074 0.91258 0.96712 0.0
C1586 C 0.49377 0.07041 0.03056 0.0
C1587 C 0.49884 0.04935 0.02256 0.0
C1588 C 0.48914 0.96663 0.00244 0.0
C1589 C 0.51088 0.94329 0.9824 0.0
C1590 C 0.50571 0.9667 0.9909 0.0
C1591 C 0.49048 0.03666 0.0154 0.0
C1592 C 0.49576 0.01249 0.00697 0.0
H1593 H 0.5397 0.90605 0.97254 0.0
H1594 H 0.53107 0.94011 0.98677 0.0
H1595 H 0.4888 0.90825 0.9912 0.0
H1596 H 0.46151 0.07477 0.02499 0.0
H1597 H 0.47032 0.03841 0.01094 0.0
C1598 C 0.7577 0.16712 0.03055 0.0
C1599 C 0.77121 0.15981 0.03161 0.0
C1600 C 0.7526 0.18574 0.02242 0.0
C1601 C 0.76201 0.26519 0.00202 0.0
H1602 H 0.73022 0.19566 0.99257 0.0
C1603 C 0.7431 0.31739 0.96681 0.0
C1604 C 0.72958 0.3246 0.96582 0.0
C1605 C 0.74828 0.29749 0.97485 0.0
C1606 C 0.73903 0.216 0.99517 0.0
H1607 H 0.79 0.1636 0.02507 0.0
H1608 H 0.78114 0.196 0.01082 0.0
H1609 H 0.73904 0.15885 0.00654 0.0
H1610 H 0.71083 0.31919 0.97239 0.0
H1611 H 0.71982 0.28474 0.98649 0.0
H1612 H 0.76199 0.32247 0.99067 0.0
C1613 C 0.77447 0.18855 0.01628 0.0
C1614 C 0.74408 0.19486 0.00317 0.0
C1615 C 0.77955 0.16986 0.0244 0.0
C1616 C 0.72129 0.31302 0.97301 0.0
C1617 C 0.72644 0.29313 0.98104 0.0
C1618 C 0.75696 0.28636 0.99403 0.0
C1619 C 0.76095 0.19726 0.01522 0.0
C1620 C 0.75562 0.21924 0.00669 0.0
C1621 C 0.73998 0.28466 0.98204 0.0
C1622 C 0.7454 0.26207 0.99052 0.0
H1623 H 0.75112 0.1596 0.03606 0.0
H1624 H 0.74215 0.19252 0.02184 0.0
H1625 H 0.77082 0.28555 0.00463 0.0
H1626 H 0.74963 0.32613 0.96132 0.0
H1627 H 0.75874 0.29093 0.97538 0.0
C1628 C 0.49418 0.16893 0.2169 0.0
C1629 C 0.48071 0.15998 0.21588 0.0
C1630 C 0.49923 0.18773 0.22504 0.0
C1631 C 0.48943 0.26525 0.24551 0.0
H1632 H 0.52162 0.19944 0.25492 0.0
C1633 C 0.50776 0.31832 0.28079 0.0
C1634 C 0.52122 0.32729 0.28185 0.0
C1635 C 0.5028 0.29799 0.27272 0.0
C1636 C 0.5127 0.21876 0.25233 0.0
H1637 H 0.46196 0.16091 0.22249 0.0
H1638 H 0.47073 0.19358 0.23675 0.0
H1639 H 0.51306 0.16211 0.2409 0.0
H1640 H 0.54007 0.32433 0.27538 0.0
H1641 H 0.53145 0.28917 0.26121 0.0
H1642 H 0.48908 0.32205 0.2569 0.0
C1643 C 0.4774 0.1873 0.23126 0.0
C1644 C 0.50779 0.19732 0.24431 0.0
C1645 C 0.47238 0.16843 0.22314 0.0
C1646 C 0.52966 0.31686 0.2747 0.0
C1647 C 0.52472 0.29655 0.26663 0.0
C1648 C 0.49434 0.28674 0.25352 0.0
C1649 C 0.49086 0.1978 0.23228 0.0
C1650 C 0.49609 0.22028 0.24081 0.0
C1651 C 0.51124 0.28649 0.26556 0.0
C1652 C 0.50603 0.26374 0.25703 0.0
H1653 H 0.50075 0.16265 0.21135 0.0
H1654 H 0.50964 0.19586 0.22559 0.0
H1655 H 0.48051 0.28458 0.24291 0.0
H1656 H 0.50112 0.3261 0.28626 0.0
H1657 H 0.49239 0.29013 0.27213 0.0
C1658 C 0.77823 0.06847 0.22312 0.0
C1659 C 0.76988 0.07936 0.21594 0.0
C1660 C 0.77319 0.0478 0.23115 0.0
C1661 C 0.74274 0.03749 0.24413 0.0
H1662 H 0.76122 0.911 0.25651 0.0
C1663 C 0.72061 0.91799 0.27437 0.0
C1664 C 0.72898 0.90835 0.28158 0.0
C1665 C 0.72562 0.93722 0.26627 0.0
C1666 C 0.75601 0.94672 0.25317 0.0
H1667 H 0.74983 0.07884 0.21144 0.0
H1668 H 0.74091 0.04236 0.22548 0.0
H1669 H 0.76987 0.94937 0.24258 0.0
H1670 H 0.74906 0.90931 0.28604 0.0
H1671 H 0.75793 0.94323 0.27184 0.0
H1672 H 0.72889 0.0349 0.25473 0.0
C1673 C 0.75133 0.05004 0.22496 0.0
C1674 C 0.76097 0.96874 0.2452 0.0
C1675 C 0.7564 0.07069 0.21693 0.0
C1676 C 0.74247 0.9165 0.28052 0.0
C1677 C 0.74751 0.9357 0.27241 0.0
C1678 C 0.73777 0.01546 0.2521 0.0
C1679 C 0.7597 0.03787 0.23213 0.0
C1680 C 0.7544 0.01443 0.2406 0.0
C1681 C 0.73912 0.94693 0.26522 0.0
C1682 C 0.74436 0.96984 0.25671 0.0
H1683 H 0.78866 0.07572 0.2225 0.0
H1684 H 0.77986 0.03992 0.23659 0.0
H1685 H 0.73754 0.07329 0.24081 0.0
H1686 H 0.71018 0.91111 0.27504 0.0
H1687 H 0.71894 0.9444 0.26081 0.0
C1688 C 0.23176 0.87034 0.97301 0.0
C1689 C 0.232 0.8337 0.96547 0.0
C1690 C 0.23645 0.84894 0.9811 0.0
C1691 C 0.24276 0.70793 0.99303 0.0
H1692 H 0.26296 0.80934 0.00874 0.0
C1693 C 0.26818 0.61906 0.02459 0.0
C1694 C 0.26791 0.65605 0.03209 0.0
C1695 C 0.26347 0.64004 0.01648 0.0
C1696 C 0.25719 0.78069 0.00447 0.0
H1697 H 0.23759 0.74694 0.96033 0.0
H1698 H 0.2459 0.70945 0.97445 0.0
H1699 H 0.25588 0.84803 0.99443 0.0
H1700 H 0.26222 0.74285 0.03716 0.0
H1701 H 0.25387 0.77959 0.02301 0.0
H1702 H 0.24408 0.64059 0.00307 0.0
C1703 C 0.24192 0.75434 0.97417 0.0
C1704 C 0.25315 0.80284 0.99627 0.0
C1705 C 0.23723 0.77579 0.96609 0.0
C1706 C 0.2626 0.71376 0.03142 0.0
C1707 C 0.2579 0.73479 0.02333 0.0
C1708 C 0.2468 0.68577 0.00123 0.0
C1709 C 0.24145 0.79045 0.98179 0.0
C1710 C 0.24589 0.76673 0.99046 0.0
C1711 C 0.25843 0.69844 0.01574 0.0
C1712 C 0.25404 0.72194 0.00705 0.0
H1713 H 0.22757 0.91485 0.97271 0.0
H1714 H 0.2358 0.8776 0.98686 0.0
H1715 H 0.237 0.6793 0.98876 0.0
H1716 H 0.27242 0.57467 0.02493 0.0
H1717 H 0.26415 0.61118 0.01074 0.0
C1718 C 0.47193 0.67164 0.72294 0.0
C1719 C 0.48031 0.66094 0.71578 0.0
C1720 C 0.47693 0.69186 0.731 0.0
C1721 C 0.50725 0.7019 0.74414 0.0
H1722 H 0.48871 0.82905 0.75632 0.0
C1723 C 0.529 0.823 0.77442 0.0
C1724 C 0.52051 0.83362 0.78153 0.0
C1725 C 0.52412 0.80278 0.76633 0.0
C1726 C 0.49392 0.79312 0.75305 0.0
H1727 H 0.50041 0.66106 0.71135 0.0
H1728 H 0.50926 0.69676 0.72547 0.0
H1729 H 0.48021 0.79045 0.74237 0.0
H1730 H 0.50036 0.83312 0.78584 0.0
H1731 H 0.49172 0.79744 0.77167 0.0
H1732 H 0.52096 0.70457 0.75482 0.0
C1733 C 0.49883 0.68932 0.7249 0.0
C1734 C 0.48905 0.77097 0.74506 0.0
C1735 C 0.4938 0.66912 0.71683 0.0
C1736 C 0.50705 0.82518 0.78041 0.0
C1737 C 0.50214 0.80499 0.77231 0.0
C1738 C 0.51212 0.72406 0.75213 0.0
C1739 C 0.49042 0.70152 0.73205 0.0
C1740 C 0.49565 0.72504 0.74052 0.0
C1741 C 0.51064 0.79307 0.7652 0.0
C1742 C 0.50551 0.76988 0.75668 0.0
H1743 H 0.46149 0.66472 0.72228 0.0
H1744 H 0.47022 0.69973 0.73643 0.0
H1745 H 0.51246 0.66596 0.74086 0.0
H1746 H 0.53942 0.8301 0.77515 0.0
H1747 H 0.53089 0.79505 0.76094 0.0
C1748 C 0.25724 0.07372 0.71691 0.0
C1749 C 0.27072 0.08266 0.71594 0.0
C1750 C 0.25215 0.05417 0.725 0.0
C1751 C 0.26193 0.97545 0.74542 0.0
H1752 H 0.22944 0.03911 0.75469 0.0
C1753 C 0.24318 0.9229 0.78068 0.0
C1754 C 0.22972 0.91331 0.78164 0.0
C1755 C 0.24825 0.94241 0.77259 0.0
C1756 C 0.23845 0.02039 0.75214 0.0
H1757 H 0.28944 0.08103 0.72258 0.0
H1758 H 0.2806 0.04733 0.73676 0.0
H1759 H 0.23809 0.07754 0.74077 0.0
H1760 H 0.21101 0.91386 0.77497 0.0
H1761 H 0.21982 0.94769 0.76078 0.0
H1762 H 0.26229 0.91837 0.7568 0.0
C1763 C 0.27396 0.05405 0.73127 0.0
C1764 C 0.24341 0.04245 0.74417 0.0
C1765 C 0.27902 0.07356 0.7232 0.0
C1766 C 0.22142 0.92183 0.77437 0.0
C1767 C 0.22646 0.94138 0.76628 0.0
C1768 C 0.25697 0.95344 0.75339 0.0
C1769 C 0.26049 0.04344 0.73224 0.0
C1770 C 0.25521 0.02026 0.74072 0.0
C1771 C 0.23991 0.95254 0.76533 0.0
C1772 C 0.24517 0.97564 0.75684 0.0
H1773 H 0.2507 0.08051 0.71136 0.0
H1774 H 0.24175 0.04597 0.7255 0.0
H1775 H 0.27093 0.95669 0.74287 0.0
H1776 H 0.24972 0.91661 0.78624 0.0
H1777 H 0.25864 0.95104 0.77208 0.0
C1778 C 0.47173 0.57342 0.52417 0.0
C1779 C 0.47991 0.58317 0.53147 0.0
C1780 C 0.47695 0.55389 0.51614 0.0
C1781 C 0.50765 0.54378 0.50341 0.0
H1782 H 0.48935 0.41757 0.49085 0.0
C1783 C 0.53021 0.4238 0.47331 0.0
C1784 C 0.52193 0.41374 0.46607 0.0
C1785 C 0.5251 0.44355 0.48136 0.0
C1786 C 0.4945 0.45324 0.49423 0.0
H1787 H 0.49987 0.58222 0.53618 0.0
H1788 H 0.50911 0.54776 0.52211 0.0
H1789 H 0.48046 0.45584 0.50471 0.0
H1790 H 0.50191 0.4147 0.46149 0.0
H1791 H 0.49287 0.44956 0.47558 0.0
H1792 H 0.52169 0.5412 0.49292 0.0
C1793 C 0.49867 0.5554 0.52255 0.0
C1794 C 0.48941 0.47521 0.50216 0.0
C1795 C 0.49342 0.57491 0.53059 0.0
C1796 C 0.50843 0.42218 0.46703 0.0
C1797 C 0.5033 0.44191 0.47508 0.0
C1798 C 0.51274 0.52182 0.49547 0.0
C1799 C 0.49047 0.54398 0.51527 0.0
C1800 C 0.49591 0.52079 0.50683 0.0
C1801 C 0.51159 0.45338 0.48232 0.0
C1802 C 0.50622 0.47633 0.49079 0.0
H1803 H 0.46128 0.58039 0.52471 0.0
H1804 H 0.47041 0.54662 0.51061 0.0
H1805 H 0.5128 0.57945 0.50679 0.0
H1806 H 0.54065 0.41673 0.47271 0.0
H1807 H 0.53172 0.45092 0.48685 0.0
C1808 C 0.72998 0.8643 0.4731 0.0
C1809 C 0.73018 0.82695 0.46564 0.0
C1810 C 0.73454 0.84341 0.48124 0.0
C1811 C 0.74092 0.70353 0.49353 0.0
H1812 H 0.76167 0.80649 0.50867 0.0
C1813 C 0.76787 0.618 0.52472 0.0
C1814 C 0.76792 0.65563 0.53215 0.0
C1815 C 0.7627 0.63808 0.51669 0.0
C1816 C 0.75575 0.77744 0.50457 0.0
H1817 H 0.73546 0.73922 0.46072 0.0
H1818 H 0.74355 0.70258 0.47494 0.0
H1819 H 0.75411 0.84369 0.49441 0.0
H1820 H 0.7623 0.74261 0.53719 0.0
H1821 H 0.75317 0.77781 0.52318 0.0
H1822 H 0.74262 0.63718 0.50369 0.0
C1823 C 0.7397 0.74767 0.47455 0.0
C1824 C 0.75143 0.79874 0.49639 0.0
C1825 C 0.73513 0.76863 0.46641 0.0
C1826 C 0.76245 0.71305 0.53151 0.0
C1827 C 0.75729 0.73318 0.52349 0.0
C1828 C 0.74526 0.6822 0.50171 0.0
C1829 C 0.73938 0.78471 0.48208 0.0
C1830 C 0.74397 0.76203 0.49077 0.0
C1831 C 0.75751 0.69621 0.51596 0.0
C1832 C 0.75272 0.71893 0.50732 0.0
H1833 H 0.726 0.90916 0.47268 0.0
H1834 H 0.734 0.87277 0.48694 0.0
H1835 H 0.73502 0.67445 0.48941 0.0
H1836 H 0.77221 0.57381 0.52504 0.0
H1837 H 0.76314 0.60877 0.51099 0.0
C1838 C 0.72124 0.41969 0.77422 0.0
C1839 C 0.7295 0.41012 0.78148 0.0
C1840 C 0.72637 0.43875 0.76614 0.0
C1841 C 0.75483 0.51624 0.75666 0.0
H1842 H 0.74169 0.45331 0.73445 0.0
C1843 C 0.77849 0.57167 0.72297 0.0
C1844 C 0.77008 0.58138 0.71578 0.0
C1845 C 0.77355 0.55136 0.73104 0.0
C1846 C 0.74534 0.47185 0.74059 0.0
H1847 H 0.74953 0.41083 0.78606 0.0
H1848 H 0.75862 0.44367 0.77186 0.0
H1849 H 0.73328 0.41402 0.74839 0.0
H1850 H 0.75 0.57948 0.71133 0.0
H1851 H 0.74123 0.54461 0.72551 0.0
H1852 H 0.76687 0.57418 0.74887 0.0
C1853 C 0.74816 0.43743 0.77243 0.0
C1854 C 0.74055 0.44925 0.74858 0.0
C1855 C 0.74301 0.41827 0.78052 0.0
C1856 C 0.75663 0.57199 0.71681 0.0
C1857 C 0.75167 0.55162 0.72489 0.0
C1858 C 0.75962 0.53886 0.74867 0.0
C1859 C 0.73987 0.44844 0.76518 0.0
C1860 C 0.74522 0.47126 0.7567 0.0
C1861 C 0.76009 0.54058 0.73207 0.0
C1862 C 0.75492 0.51699 0.74055 0.0
H1863 H 0.71078 0.41316 0.77484 0.0
H1864 H 0.71971 0.4473 0.76071 0.0
H1865 H 0.75847 0.53484 0.7628 0.0
H1866 H 0.78891 0.57916 0.7223 0.0
H1867 H 0.78031 0.54283 0.73641 0.0
C1868 C 0.25612 0.17064 0.53069 0.0
C1869 C 0.26961 0.16176 0.53162 0.0
C1870 C 0.25097 0.19065 0.52265 0.0
C1871 C 0.26056 0.26952 0.50217 0.0
H1872 H 0.22816 0.2045 0.49295 0.0
C1873 C 0.24211 0.3184 0.46678 0.0
C1874 C 0.22868 0.32843 0.46574 0.0
C1875 C 0.24707 0.29932 0.47492 0.0
C1876 C 0.23714 0.22358 0.49549 0.0
H1877 H 0.2883 0.16423 0.52494 0.0
H1878 H 0.27935 0.1987 0.51083 0.0
H1879 H 0.23683 0.16717 0.50694 0.0
H1880 H 0.20991 0.32912 0.47233 0.0
H1881 H 0.21853 0.2957 0.4866 0.0
H1882 H 0.26089 0.32573 0.4907 0.0
C1883 C 0.27275 0.19161 0.51633 0.0
C1884 C 0.24211 0.20219 0.5035 0.0
C1885 C 0.27786 0.17167 0.52437 0.0
C1886 C 0.22029 0.32059 0.47298 0.0
C1887 C 0.22522 0.30138 0.48111 0.0
C1888 C 0.2556 0.29083 0.49416 0.0
C1889 C 0.25925 0.20188 0.5154 0.0
C1890 C 0.25389 0.22481 0.50692 0.0
C1891 C 0.23866 0.29009 0.48215 0.0
C1892 C 0.24385 0.26803 0.49072 0.0
H1893 H 0.24961 0.16321 0.53624 0.0
H1894 H 0.24055 0.1986 0.52217 0.0
H1895 H 0.26954 0.28864 0.5047 0.0
H1896 H 0.24872 0.32434 0.46124 0.0
H1897 H 0.25745 0.29054 0.47549 0.0
C1898 C 0.25802 0.57654 0.21683 0.0
C1899 C 0.27153 0.58497 0.21591 0.0
C1900 C 0.25283 0.55728 0.2249 0.0
C1901 C 0.26232 0.47806 0.24533 0.0
H1902 H 0.2298 0.5422 0.25448 0.0
C1903 C 0.24311 0.42393 0.2804 0.0
C1904 C 0.22963 0.41438 0.28127 0.0
C1905 C 0.24828 0.44404 0.27238 0.0
C1906 C 0.23882 0.52337 0.25196 0.0
H1907 H 0.29019 0.58286 0.22262 0.0
H1908 H 0.28117 0.54966 0.23678 0.0
H1909 H 0.23866 0.58091 0.24063 0.0
H1910 H 0.211 0.41575 0.27449 0.0
H1911 H 0.22001 0.45067 0.26042 0.0
H1912 H 0.26248 0.42053 0.25665 0.0
C1913 C 0.27458 0.55654 0.23126 0.0
C1914 C 0.2439 0.54558 0.24403 0.0
C1915 C 0.27975 0.57576 0.2232 0.0
C1916 C 0.22142 0.42367 0.27397 0.0
C1917 C 0.22657 0.44385 0.26595 0.0
C1918 C 0.25725 0.45588 0.25326 0.0
C1919 C 0.26109 0.54635 0.23217 0.0
C1920 C 0.25571 0.52318 0.24063 0.0
C1921 C 0.24005 0.45483 0.26509 0.0
C1922 C 0.24544 0.47825 0.25666 0.0
H1923 H 0.25155 0.58344 0.21125 0.0
H1924 H 0.24241 0.54941 0.22537 0.0
H1925 H 0.27133 0.45913 0.24281 0.0
H1926 H 0.24957 0.41705 0.28599 0.0
H1927 H 0.25869 0.45255 0.27194 0.0
C1928 C 0.01461 0.96988 0.4664 0.0
C1929 C 0.01935 0.91123 0.46553 0.0
C1930 C 0.01 0.99039 0.47455 0.0
C1931 C 0.99779 0.9389 0.49623 0.0
H1932 H 0.00789 0.09798 0.50396 0.0
C1933 C 0.98749 0.02231 0.53159 0.0
C1934 C 0.98262 0.08075 0.53241 0.0
C1935 C 0.99241 0.00213 0.5235 0.0
C1936 C 0.00488 0.05369 0.50186 0.0
H1937 H 0.02298 0.82782 0.4724 0.0
H1938 H 0.01486 0.86342 0.48667 0.0
H1939 H 0.01518 0.06116 0.48958 0.0
H1940 H 0.97915 0.1643 0.52554 0.0
H1941 H 0.98778 0.12926 0.51137 0.0
H1942 H 0.98747 0.93144 0.50849 0.0
C1943 C 0.01456 0.89343 0.48105 0.0
C1944 C 0.00905 0.03262 0.49362 0.0
C1945 C 0.01919 0.87298 0.47289 0.0
C1946 C 0.98303 0.11927 0.52508 0.0
C1947 C 0.98795 0.09915 0.51699 0.0
C1948 C 0.99363 0.95997 0.50447 0.0
C1949 C 0.01002 0.95256 0.48198 0.0
C1950 C 0.00554 0.975 0.49072 0.0
C1951 C 0.99255 0.04008 0.51608 0.0
C1952 C 0.99713 0.01759 0.50737 0.0
H1953 H 0.01456 -2e-05 0.46078 0.0
H1954 H 0.00637 0.03585 0.47502 0.0
H1955 H 0.99477 0.89464 0.49413 0.0
H1956 H 0.98736 0.99202 0.53719 0.0
H1957 H 0.99608 0.95674 0.52306 0.0
C1958 C 0.99239 0.17263 0.71692 0.0
C1959 C 0.97886 0.16538 0.71596 0.0
C1960 C 0.9976 0.19274 0.72494 0.0
C1961 C 0.98846 0.27458 0.74526 0.0
H1962 H 0.02039 0.20553 0.7546 0.0
C1963 C 0.00765 0.32461 0.78051 0.0
C1964 C 0.02118 0.33192 0.78147 0.0
C1965 C 0.00241 0.30585 0.77243 0.0
C1966 C 0.01154 0.22576 0.75203 0.0
H1967 H 0.96014 0.17101 0.72256 0.0
H1968 H 0.96919 0.20581 0.73664 0.0
H1969 H 0.01142 0.16816 0.74071 0.0
H1970 H 0.03986 0.32819 0.77478 0.0
H1971 H 0.03076 0.29555 0.76061 0.0
H1972 H 0.98857 0.33204 0.75661 0.0
C1973 C 0.97579 0.19728 0.73117 0.0
C1974 C 0.00641 0.20432 0.74407 0.0
C1975 C 0.97061 0.17719 0.72316 0.0
C1976 C 0.02939 0.32189 0.77419 0.0
C1977 C 0.02418 0.30306 0.76612 0.0
C1978 C 0.99359 0.29597 0.75323 0.0
C1979 C 0.98934 0.20574 0.73214 0.0
C1980 C 0.99481 0.22847 0.7406 0.0
C1981 C 0.01065 0.2942 0.76517 0.0
C1982 C 0.0052 0.27182 0.75669 0.0
H1983 H 0.99889 0.16374 0.71142 0.0
H1984 H 0.00806 0.19931 0.72544 0.0
H1985 H 0.97962 0.2948 0.74269 0.0
H1986 H 0.00118 0.33216 0.78608 0.0
H1987 H 0.99196 0.29901 0.77193 0.0
C1988 C 0.01307 0.77732 0.28145 0.0
C1989 C 0.01846 0.83486 0.28216 0.0
C1990 C 0.00811 0.75708 0.27339 0.0
C1991 C 0.99646 0.8081 0.2515 0.0
H1992 H 0.00507 0.64596 0.24437 0.0
C1993 C 0.98601 0.72033 0.21633 0.0
C1994 C 0.98073 0.66253 0.21567 0.0
C1995 C 0.99081 0.74133 0.2244 0.0
C1996 C 0.00247 0.69112 0.2463 0.0
H1997 H 0.02284 0.91673 0.27509 0.0
H1998 H 0.01413 0.88155 0.26094 0.0
H1999 H 0.01261 0.68346 0.25863 0.0
H2000 H 0.97629 0.5812 0.22286 0.0
H2001 H 0.98473 0.61763 0.237 0.0
H2002 H 0.98633 0.81573 0.23916 0.0
C2003 C 0.01358 0.85224 0.26664 0.0
C2004 C 0.00677 0.7126 0.25448 0.0
C2005 C 0.01855 0.87245 0.27472 0.0
C2006 C 0.98051 0.62563 0.22318 0.0
C2007 C 0.98532 0.64655 0.23126 0.0
C2008 C 0.99216 0.78661 0.24332 0.0
C2009 C 0.00846 0.79403 0.26586 0.0
C2010 C 0.0038 0.77129 0.25718 0.0
C2011 C 0.99042 0.70485 0.23198 0.0
C2012 C 0.99511 0.72786 0.24063 0.0
H2013 H 0.01281 0.74778 0.28714 0.0
H2014 H 0.00402 0.71241 0.27304 0.0
H2015 H 0.99387 0.85326 0.25344 0.0
H2016 H 0.98635 0.74939 0.21059 0.0
H2017 H 0.99486 0.78609 0.22471 0.0
C2018 C 0.0125 0.46786 0.96617 0.0
C2019 C 0.01776 0.41008 0.96542 0.0
C2020 C 0.00769 0.48823 0.97428 0.0
C2021 C 0.99596 0.43689 0.99608 0.0
H2022 H 0.00531 0.59741 0.00358 0.0
C2023 C 0.98591 0.52026 0.03147 0.0
C2024 C 0.98093 0.57847 0.03234 0.0
C2025 C 0.99068 0.50031 0.02333 0.0
C2026 C 0.0025 0.55273 0.00154 0.0
H2027 H 0.02211 0.32804 0.97246 0.0
H2028 H 0.01361 0.36331 0.98665 0.0
H2029 H 0.01258 0.56079 0.9892 0.0
H2030 H 0.97708 0.6618 0.02551 0.0
H2031 H 0.98542 0.62711 0.01124 0.0
H2032 H 0.98585 0.42882 0.00841 0.0
C2033 C 0.01306 0.39273 0.98096 0.0
C2034 C 0.00665 0.53176 0.9933 0.0
C2035 C 0.0179 0.37246 0.97285 0.0
C2036 C 0.98104 0.61695 0.02501 0.0
C2037 C 0.98581 0.59703 0.01686 0.0
C2038 C 0.99179 0.45788 0.00432 0.0
C2039 C 0.00803 0.45108 0.98178 0.0
C2040 C 0.00344 0.47359 0.99049 0.0
C2041 C 0.99054 0.53822 0.0159 0.0
C2042 C 0.99503 0.51599 0.00715 0.0
H2043 H 0.01221 0.49746 0.9605 0.0
H2044 H 0.00369 0.53306 0.97467 0.0
H2045 H 0.99318 0.39216 0.99405 0.0
H2046 H 0.98601 0.49001 0.03707 0.0
H2047 H 0.99448 0.45515 0.02286 0.0
C2048 C 0.44878 0.81401 0.05602 0.0
C2049 C 0.4508 0.85269 0.0632 0.0
C2050 C 0.45504 0.75854 0.05573 0.0
C2051 C 0.47068 0.6448 0.06966 0.0
H2052 H 0.48544 0.59122 0.04738 0.0
C2053 C 0.49184 0.40981 0.06683 0.0
C2054 C 0.48599 0.37722 0.05994 0.0
C2055 C 0.49125 0.47231 0.06687 0.0
C2056 C 0.48141 0.6057 0.05365 0.0
H2057 H 0.46019 0.86255 0.07597 0.0
H2058 H 0.47124 0.76571 0.07544 0.0
H2059 H 0.47593 0.69126 0.04846 0.0
H2060 H 0.47636 0.38432 0.04719 0.0
H2061 H 0.47525 0.49285 0.04729 0.0
H2062 H 0.47571 0.55874 0.07479 0.0
C2063 C 0.46494 0.77842 0.07 0.0
C2064 C 0.47591 0.66276 0.05426 0.0
C2065 C 0.45869 0.83395 0.07028 0.0
C2066 C 0.4808 0.40825 0.05265 0.0
C2067 C 0.48025 0.47059 0.05268 0.0
C2068 C 0.47617 0.58776 0.06905 0.0
C2069 C 0.46335 0.7406 0.06265 0.0
C2070 C 0.47021 0.68229 0.06221 0.0
C2071 C 0.48488 0.5031 0.06 0.0
C2072 C 0.48131 0.56706 0.06098 0.0
H2073 H 0.44271 0.82746 0.05049 0.0
H2074 H 0.45341 0.72973 0.05007 0.0
H2075 H 0.46629 0.65845 0.07586 0.0
H2076 H 0.49602 0.38714 0.0725 0.0
H2077 H 0.49513 0.49636 0.07252 0.0
C2078 C 0.76843 0.84387 0.05287 0.0
C2079 C 0.76593 0.86729 0.06133 0.0
C2080 C 0.76959 0.78227 0.05164 0.0
C2081 C 0.76657 0.6335 0.06234 0.0
H2082 H 0.80058 0.60715 0.05165 0.0
C2083 C 0.79599 0.41807 0.0683 0.0
C2084 C 0.8028 0.3936 0.0611 0.0
C2085 C 0.79014 0.47427 0.06759 0.0
C2086 C 0.79097 0.61334 0.05451 0.0
H2087 H 0.76104 0.84464 0.07489 0.0
H2088 H 0.76321 0.73699 0.07277 0.0
H2089 H 0.79079 0.70602 0.05111 0.0
H2090 H 0.8092 0.40851 0.04763 0.0
H2091 H 0.79891 0.50671 0.04632 0.0
H2092 H 0.76691 0.54073 0.06588 0.0
C2093 C 0.76429 0.76613 0.06708 0.0
C2094 C 0.78532 0.67003 0.05418 0.0
C2095 C 0.76308 0.82786 0.06831 0.0
C2096 C 0.80408 0.42687 0.05329 0.0
C2097 C 0.79815 0.48291 0.05254 0.0
C2098 C 0.7722 0.57652 0.06263 0.0
C2099 C 0.7683 0.74314 0.05886 0.0
C2100 C 0.77317 0.68095 0.0582 0.0
C2101 C 0.79099 0.50692 0.05965 0.0
C2102 C 0.78457 0.56615 0.05885 0.0
H2103 H 0.77042 0.87326 0.04732 0.0
H2104 H 0.77238 0.76552 0.04518 0.0
H2105 H 0.75717 0.64069 0.06546 0.0
H2106 H 0.79507 0.39344 0.07444 0.0
H2107 H 0.78499 0.49217 0.07326 0.0
C2108 C 0.48285 0.84285 0.19395 0.0
C2109 C 0.48505 0.86617 0.18544 0.0
C2110 C 0.48145 0.78135 0.19519 0.0
C2111 C 0.48363 0.63248 0.18446 0.0
H2112 H 0.45012 0.60718 0.19589 0.0
C2113 C 0.45398 0.41706 0.17929 0.0
C2114 C 0.44759 0.39261 0.18665 0.0
C2115 C 0.45975 0.47352 0.17981 0.0
C2116 C 0.45959 0.6131 0.19281 0.0
H2117 H 0.48916 0.84312 0.17177 0.0
H2118 H 0.48663 0.73571 0.17393 0.0
H2119 H 0.46005 0.70588 0.19617 0.0
H2120 H 0.4418 0.40793 0.20024 0.0
H2121 H 0.45195 0.50666 0.20123 0.0
H2122 H 0.48303 0.53966 0.18097 0.0
C2123 C 0.48593 0.7649 0.17964 0.0
C2124 C 0.46532 0.66967 0.193 0.0
C2125 C 0.48735 0.82652 0.1784 0.0
C2126 C 0.4466 0.42625 0.19446 0.0
C2127 C 0.45244 0.4826 0.19501 0.0
C2128 C 0.47793 0.57565 0.18431 0.0
C2129 C 0.48225 0.74217 0.18794 0.0
C2130 C 0.47729 0.68018 0.18871 0.0
C2131 C 0.45925 0.50646 0.18773 0.0
C2132 C 0.46573 0.56566 0.18836 0.0
H2133 H 0.48128 0.87232 0.19955 0.0
H2134 H 0.47892 0.76477 0.2017 0.0
H2135 H 0.4929 0.63934 0.18114 0.0
H2136 H 0.45467 0.39214 0.17316 0.0
H2137 H 0.4646 0.49131 0.17401 0.0
C2138 C 0.76104 0.41836 0.18054 0.0
C2139 C 0.76443 0.37983 0.18752 0.0
C2140 C 0.76254 0.48019 0.18148 0.0
C2141 C 0.78489 0.57738 0.19319 0.0
H2142 H 0.76554 0.70607 0.18203 0.0
C2143 C 0.8034 0.8207 0.19349 0.0
C2144 C 0.80154 0.85434 0.18576 0.0
C2145 C 0.79762 0.76445 0.19436 0.0
C2146 C 0.7711 0.67043 0.18511 0.0
H2147 H 0.77023 0.3758 0.20132 0.0
H2148 H 0.77267 0.48372 0.20298 0.0
H2149 H 0.75584 0.60619 0.18296 0.0
H2150 H 0.79288 0.85486 0.17268 0.0
H2151 H 0.78301 0.75575 0.17409 0.0
H2152 H 0.80033 0.64034 0.19505 0.0
C2153 C 0.76925 0.46614 0.19672 0.0
C2154 C 0.76549 0.61349 0.1857 0.0
C2155 C 0.76779 0.40443 0.19577 0.0
C2156 C 0.79425 0.83 0.17876 0.0
C2157 C 0.78854 0.77355 0.1796 0.0
C2158 C 0.7905 0.63401 0.19256 0.0
C2159 C 0.76737 0.50422 0.18943 0.0
C2160 C 0.7724 0.56631 0.18968 0.0
C2161 C 0.79001 0.74052 0.18746 0.0
C2162 C 0.78374 0.68103 0.18843 0.0
H2163 H 0.75833 0.4007 0.17412 0.0
H2164 H 0.76099 0.5085 0.17576 0.0
H2165 H 0.79059 0.54157 0.1961 0.0
H2166 H 0.80889 0.83887 0.199 0.0
H2167 H 0.79885 0.74041 0.20052 0.0
C2168 C 0.55416 0.16978 0.94417 0.0
C2169 C 0.55285 0.13624 0.93638 0.0
C2170 C 0.5483 0.22603 0.94486 0.0
C2171 C 0.52235 0.31924 0.9347 0.0
H2172 H 0.5408 0.44923 0.94621 0.0
C2173 C 0.51284 0.57029 0.92902 0.0
C2174 C 0.51553 0.60984 0.93601 0.0
C2175 C 0.51423 0.50862 0.93022 0.0
C2176 C 0.53537 0.41309 0.94315 0.0
H2177 H 0.54516 0.13584 0.92303 0.0
H2178 H 0.5352 0.23487 0.92412 0.0
H2179 H 0.55068 0.35049 0.94571 0.0
H2180 H 0.51996 0.61587 0.95003 0.0
H2181 H 0.52224 0.50824 0.95214 0.0
H2182 H 0.50727 0.38307 0.93184 0.0
C2183 C 0.54033 0.21705 0.92981 0.0
C2184 C 0.54107 0.35649 0.94283 0.0
C2185 C 0.5461 0.16068 0.92916 0.0
C2186 C 0.51808 0.58645 0.94447 0.0
C2187 C 0.51943 0.5249 0.94568 0.0
C2188 C 0.51667 0.3761 0.93497 0.0
C2189 C 0.54116 0.24992 0.93773 0.0
C2190 C 0.53472 0.30913 0.9385 0.0
C2191 C 0.51826 0.48577 0.93845 0.0
C2192 C 0.52322 0.42372 0.93911 0.0
H2193 H 0.55923 0.15147 0.94985 0.0
H2194 H 0.54906 0.25001 0.95107 0.0
H2195 H 0.51709 0.28331 0.93146 0.0
H2196 H 0.51076 0.58698 0.92244 0.0
H2197 H 0.51323 0.47948 0.92453 0.0
C2198 C 0.24253 0.16723 0.9307 0.0
C2199 C 0.23653 0.13458 0.93753 0.0
C2200 C 0.24213 0.22976 0.93075 0.0
C2201 C 0.23243 0.36285 0.94412 0.0
H2202 H 0.21766 0.41739 0.92189 0.0
C2203 C 0.19978 0.57128 0.94176 0.0
C2204 C 0.20191 0.61033 0.93464 0.0
C2205 C 0.20612 0.51597 0.94206 0.0
C2206 C 0.22197 0.40325 0.92809 0.0
H2207 H 0.22685 0.14147 0.95027 0.0
H2208 H 0.22605 0.25002 0.95031 0.0
H2209 H 0.22695 0.31742 0.92288 0.0
H2210 H 0.2116 0.62113 0.92199 0.0
H2211 H 0.22276 0.52459 0.92253 0.0
H2212 H 0.22695 0.44818 0.9494 0.0
C2213 C 0.23102 0.22781 0.9449 0.0
C2214 C 0.22737 0.34605 0.92865 0.0
C2215 C 0.2314 0.16546 0.94485 0.0
C2216 C 0.21002 0.59223 0.92764 0.0
C2217 C 0.21632 0.53688 0.92793 0.0
C2218 C 0.227 0.42007 0.94356 0.0
C2219 C 0.23579 0.2605 0.93765 0.0
C2220 C 0.23237 0.32467 0.93673 0.0
C2221 C 0.21459 0.49859 0.9352 0.0
C2222 C 0.22142 0.44022 0.9356 0.0
H2223 H 0.24668 0.14467 0.92501 0.0
H2224 H 0.24612 0.25392 0.92515 0.0
H2225 H 0.23635 0.34786 0.9504 0.0
H2226 H 0.19356 0.5843 0.94723 0.0
H2227 H 0.20438 0.48679 0.94767 0.0
C2228 C 0.55364 0.57343 0.80413 0.0
C2229 C 0.55178 0.60707 0.81186 0.0
C2230 C 0.54787 0.51717 0.80325 0.0
C2231 C 0.52131 0.42335 0.8125 0.0
H2232 H 0.54076 0.29419 0.80155 0.0
C2233 C 0.51125 0.17154 0.81726 0.0
C2234 C 0.51459 0.13274 0.8103 0.0
C2235 C 0.51277 0.23334 0.81626 0.0
C2236 C 0.53507 0.33008 0.80445 0.0
H2237 H 0.54313 0.60757 0.82493 0.0
H2238 H 0.53326 0.50846 0.82352 0.0
H2239 H 0.55052 0.39296 0.80255 0.0
H2240 H 0.52033 0.1282 0.79649 0.0
H2241 H 0.5228 0.23603 0.79474 0.0
H2242 H 0.50605 0.35922 0.81469 0.0
C2243 C 0.53879 0.52626 0.81801 0.0
C2244 C 0.5407 0.38671 0.80505 0.0
C2245 C 0.5445 0.58271 0.81885 0.0
C2246 C 0.51793 0.15704 0.80203 0.0
C2247 C 0.5194 0.2187 0.80103 0.0
C2248 C 0.5157 0.36643 0.81194 0.0
C2249 C 0.54025 0.49325 0.81015 0.0
C2250 C 0.53396 0.43383 0.80917 0.0
C2251 C 0.51757 0.25705 0.80829 0.0
C2252 C 0.52259 0.31913 0.80799 0.0
H2253 H 0.55913 0.59163 0.79861 0.0
H2254 H 0.54909 0.49312 0.79709 0.0
H2255 H 0.51578 0.45907 0.81558 0.0
H2256 H 0.50857 0.15414 0.8237 0.0
H2257 H 0.51125 0.26186 0.82197 0.0
C2258 C 0.19582 0.17893 0.80313 0.0
C2259 C 0.1969 0.14536 0.81093 0.0
C2260 C 0.20168 0.23521 0.80252 0.0
C2261 C 0.22732 0.32835 0.81306 0.0
H2262 H 0.20925 0.45848 0.80131 0.0
C2263 C 0.23671 0.57926 0.81895 0.0
C2264 C 0.23428 0.61894 0.81193 0.0
C2265 C 0.23531 0.51763 0.81771 0.0
C2266 C 0.21457 0.4223 0.80444 0.0
H2267 H 0.20419 0.14493 0.82438 0.0
H2268 H 0.21415 0.244 0.82344 0.0
H2269 H 0.19935 0.35974 0.80165 0.0
H2270 H 0.23033 0.62514 0.79784 0.0
H2271 H 0.22801 0.51758 0.79568 0.0
H2272 H 0.24231 0.39212 0.81615 0.0
C2273 C 0.2092 0.2262 0.81768 0.0
C2274 C 0.20886 0.3657 0.80466 0.0
C2275 C 0.20342 0.1698 0.81825 0.0
C2276 C 0.23199 0.59565 0.80343 0.0
C2277 C 0.23062 0.53414 0.80219 0.0
C2278 C 0.233 0.38521 0.81288 0.0
C2279 C 0.2086 0.25909 0.80976 0.0
C2280 C 0.21507 0.31829 0.80908 0.0
C2281 C 0.23154 0.49492 0.80942 0.0
C2282 C 0.22659 0.43288 0.80867 0.0
H2283 H 0.19092 0.1606 0.79737 0.0
H2284 H 0.2011 0.25922 0.79631 0.0
H2285 H 0.23247 0.29239 0.81637 0.0
H2286 H 0.23859 0.59584 0.82556 0.0
H2287 H 0.2361 0.48841 0.8234 0.0
C2288 C 0.44789 0.30985 0.55518 0.0
C2289 C 0.44942 0.34883 0.56238 0.0
C2290 C 0.45413 0.25423 0.55517 0.0
C2291 C 0.46865 0.14132 0.56981 0.0
H2292 H 0.4854 0.08675 0.54823 0.0
C2293 C 0.49037 0.90723 0.56831 0.0
C2294 C 0.48515 0.87386 0.56127 0.0
C2295 C 0.48975 0.96972 0.56818 0.0
C2296 C 0.48081 0.10153 0.55431 0.0
H2297 H 0.45782 0.35921 0.57545 0.0
H2298 H 0.46881 0.26223 0.57543 0.0
H2299 H 0.4756 0.18644 0.54877 0.0
H2300 H 0.47671 0.87944 0.54813 0.0
H2301 H 0.47552 0.98791 0.54793 0.0
H2302 H 0.4734 0.05595 0.57528 0.0
C2303 C 0.46293 0.27471 0.56975 0.0
C2304 C 0.47514 0.15835 0.5546 0.0
C2305 C 0.45673 0.33031 0.56975 0.0
C2306 C 0.48064 0.90402 0.55371 0.0
C2307 C 0.48005 0.96632 0.55357 0.0
C2308 C 0.47429 0.08453 0.56952 0.0
C2309 C 0.46188 0.23655 0.5624 0.0
C2310 C 0.46875 0.17823 0.56229 0.0
C2311 C 0.48397 -0.00034 0.56099 0.0
C2312 C 0.48018 0.06349 0.56171 0.0
H2313 H 0.44228 0.32322 0.54944 0.0
H2314 H 0.45292 0.22515 0.54949 0.0
H2315 H 0.46371 0.15525 0.57581 0.0
H2316 H 0.49403 0.88523 0.5742 0.0
H2317 H 0.49309 0.99443 0.57392 0.0
C2318 C 0.79069 0.9046 0.5693 0.0
C2319 C 0.79845 0.88727 0.56208 0.0
C2320 C 0.78426 0.95964 0.56924 0.0
C2321 C 0.77259 0.07735 0.5541 0.0
H2322 H 0.7739 0.17844 0.57493 0.0
C2323 C 0.76906 0.33179 0.55335 0.0
C2324 C 0.76447 0.36256 0.56084 0.0
C2325 C 0.76906 0.26945 0.55317 0.0
C2326 C 0.77311 0.15023 0.56913 0.0
H2327 H 0.80607 0.91428 0.54932 0.0
H2328 H 0.79503 0.01141 0.54929 0.0
H2329 H 0.78317 0.07837 0.57551 0.0
H2330 H 0.75487 0.35266 0.57355 0.0
H2331 H 0.75479 0.24335 0.5732 0.0
H2332 H 0.76291 0.1502 0.54763 0.0
C2333 C 0.79365 0.9818 0.55489 0.0
C2334 C 0.77851 0.09298 0.56945 0.0
C2335 C 0.80011 0.92675 0.55496 0.0
C2336 C 0.7586 0.33009 0.56773 0.0
C2337 C 0.75863 0.26754 0.56756 0.0
C2338 C 0.76716 0.13463 0.55378 0.0
C2339 C 0.78552 -0.00159 0.56198 0.0
C2340 C 0.77863 0.05663 0.56187 0.0
C2341 C 0.76446 0.23671 0.56047 0.0
C2342 C 0.76769 0.17228 0.56122 0.0
H2343 H 0.78948 0.87534 0.57495 0.0
H2344 H 0.7781 0.97134 0.57481 0.0
H2345 H 0.7723 0.04969 0.54821 0.0
H2346 H 0.77348 0.35573 0.54788 0.0
H2347 H 0.77365 0.24716 0.54761 0.0
C2348 C 0.4487 0.9284 0.69142 0.0
C2349 C 0.45059 0.8896 0.68424 0.0
C2350 C 0.45494 0.98396 0.69163 0.0
C2351 C 0.47025 0.09746 0.67747 0.0
H2352 H 0.48561 0.15142 0.69955 0.0
C2353 C 0.49175 0.33193 0.67986 0.0
C2354 C 0.48613 0.36495 0.6868 0.0
C2355 C 0.49108 0.26944 0.67988 0.0
C2356 C 0.48141 0.13683 0.69334 0.0
H2357 H 0.45969 0.8796 0.67138 0.0
H2358 H 0.47069 0.97656 0.67175 0.0
H2359 H 0.47598 0.05154 0.69865 0.0
H2360 H 0.47688 0.3586 0.69969 0.0
H2361 H 0.47562 0.25011 0.69969 0.0
H2362 H 0.47522 0.18324 0.67223 0.0
C2363 C 0.46452 0.96391 0.67726 0.0
C2364 C 0.47584 0.07987 0.69283 0.0
C2365 C 0.4583 0.90831 0.67707 0.0
C2366 C 0.48113 0.33434 0.69418 0.0
C2367 C 0.48049 0.27202 0.69421 0.0
C2368 C 0.47579 0.15439 0.67798 0.0
C2369 C 0.46308 0.00185 0.68461 0.0
C2370 C 0.46993 0.06019 0.68495 0.0
C2371 C 0.48486 0.2391 0.68686 0.0
C2372 C 0.48117 0.17523 0.68597 0.0
H2373 H 0.44278 0.91495 0.69702 0.0
H2374 H 0.45342 0.01286 0.69729 0.0
H2375 H 0.46569 0.0837 0.67133 0.0
H2376 H 0.49578 0.35425 0.67412 0.0
H2377 H 0.49476 0.24507 0.67421 0.0
C2378 C 0.76771 0.90383 0.69488 0.0
C2379 C 0.76467 0.87972 0.68654 0.0
C2380 C 0.76918 0.96546 0.69593 0.0
C2381 C 0.76591 0.11343 0.68504 0.0
H2382 H 0.80039 0.13966 0.69502 0.0
C2383 C 0.79495 0.32968 0.67867 0.0
C2384 C 0.80199 0.35397 0.68578 0.0
C2385 C 0.78922 0.27322 0.67941 0.0
C2386 C 0.79066 0.13349 0.69235 0.0
H2387 H 0.75917 0.90146 0.67306 0.0
H2388 H 0.76184 0.0091 0.67488 0.0
H2389 H 0.79058 0.0409 0.69582 0.0
H2390 H 0.80892 0.33838 0.69912 0.0
H2391 H 0.79884 0.23981 0.70047 0.0
H2392 H 0.76613 0.20613 0.68145 0.0
C2393 C 0.76313 0.98045 0.68059 0.0
C2394 C 0.785 0.07687 0.69284 0.0
C2395 C 0.76162 0.9187 0.67955 0.0
C2396 C 0.80362 0.32023 0.69352 0.0
C2397 C 0.79782 0.26393 0.69429 0.0
C2398 C 0.77155 0.17034 0.6846 0.0
C2399 C 0.76763 0.00397 0.68866 0.0
C2400 C 0.77265 0.06603 0.68909 0.0
C2401 C 0.79042 0.24011 0.68728 0.0
C2402 C 0.78408 0.18071 0.68814 0.0
H2403 H 0.76987 0.87488 0.70045 0.0
H2404 H 0.77235 0.98264 0.70229 0.0
H2405 H 0.75636 0.1063 0.68213 0.0
H2406 H 0.79376 0.35463 0.67258 0.0
H2407 H 0.78387 0.2555 0.6738 0.0
C2408 C 0.54639 0.66964 0.42927 0.0
C2409 C 0.55339 0.64518 0.43638 0.0
C2410 C 0.54058 0.72588 0.43004 0.0
C2411 C 0.54177 0.86501 0.4431 0.0
H2412 H 0.50767 0.89235 0.43259 0.0
C2413 C 0.5192 0.09542 0.44511 0.0
C2414 C 0.51643 0.11895 0.43669 0.0
C2415 C 0.52044 0.03381 0.44629 0.0
C2416 C 0.51716 0.88517 0.43559 0.0
H2417 H 0.56015 0.66014 0.44978 0.0
H2418 H 0.54992 0.7584 0.4512 0.0
H2419 H 0.51741 0.79242 0.43203 0.0
H2420 H 0.51116 0.09643 0.42319 0.0
H2421 H 0.51346 0.98878 0.42524 0.0
H2422 H 0.54168 0.95767 0.44652 0.0
C2423 C 0.54899 0.73457 0.44499 0.0
C2424 C 0.52278 0.8282 0.43522 0.0
C2425 C 0.55488 0.67849 0.44418 0.0
C2426 C 0.5134 0.07958 0.42974 0.0
C2427 C 0.5147 0.01784 0.43092 0.0
C2428 C 0.53613 0.92169 0.44352 0.0
C2429 C 0.54164 0.75857 0.43796 0.0
C2430 C 0.53526 0.81783 0.43884 0.0
C2431 C 0.51896 0.99477 0.43908 0.0
C2432 C 0.52387 0.9326 0.43965 0.0
H2433 H 0.5453 0.64497 0.42314 0.0
H2434 H 0.53528 0.74378 0.42443 0.0
H2435 H 0.55146 0.85882 0.44584 0.0
H2436 H 0.52134 0.12474 0.45064 0.0
H2437 H 0.52343 0.017 0.45271 0.0
C2438 C 0.19479 0.04813 0.43407 0.0
C2439 C 0.20196 0.09918 0.43643 0.0
C2440 C 0.20021 0.99124 0.4352 0.0
C2441 C 0.23153 0.91322 0.43713 0.0
H2442 H 0.21031 0.78565 0.44693 0.0
C2443 C 0.23187 0.64561 0.44688 0.0
C2444 C 0.23557 0.62195 0.43865 0.0
C2445 C 0.23103 0.70731 0.44807 0.0
C2446 C 0.21646 0.82101 0.44433 0.0
H2447 H 0.21994 0.13072 0.44248 0.0
H2448 H 0.22949 0.03176 0.44422 0.0
H2449 H 0.20134 0.88625 0.44587 0.0
H2450 H 0.24288 0.64369 0.42557 0.0
H2451 H 0.24124 0.7517 0.4276 0.0
H2452 H 0.24657 0.84732 0.43542 0.0
C2453 C 0.21987 0.03573 0.44128 0.0
C2454 C 0.21123 0.87833 0.4436 0.0
C2455 C 0.21442 0.09239 0.44021 0.0
C2456 C 0.23993 0.66082 0.43197 0.0
C2457 C 0.23901 0.7227 0.43314 0.0
C2458 C 0.23674 0.85559 0.4378 0.0
C2459 C 0.21284 0.98469 0.43875 0.0
C2460 C 0.21864 0.92471 0.43989 0.0
C2461 C 0.23381 0.7462 0.44102 0.0
C2462 C 0.22919 0.80885 0.44132 0.0
H2463 H 0.18509 0.0523 0.43126 0.0
H2464 H 0.1946 0.95241 0.43318 0.0
H2465 H 0.23742 0.94835 0.43422 0.0
H2466 H 0.22871 0.61646 0.4522 0.0
H2467 H 0.2273 0.72444 0.45429 0.0
C2468 C 0.54457 0.07815 0.31921 0.0
C2469 C 0.55209 0.10246 0.31233 0.0
C2470 C 0.53887 0.02173 0.31828 0.0
C2471 C 0.54124 0.88218 0.30536 0.0
H2472 H 0.50631 0.85428 0.31448 0.0
C2473 C 0.51871 0.65239 0.30191 0.0
C2474 C 0.51511 0.62791 0.31012 0.0
C2475 C 0.52017 0.71409 0.30096 0.0
C2476 C 0.51604 0.86161 0.31187 0.0
H2477 H 0.55985 0.087 0.29919 0.0
H2478 H 0.54983 0.98859 0.29751 0.0
H2479 H 0.51596 0.95423 0.31553 0.0
H2480 H 0.50861 0.64898 0.32343 0.0
H2481 H 0.51129 0.75677 0.32179 0.0
H2482 H 0.54146 0.78971 0.30184 0.0
C2483 C 0.54842 0.01262 0.30366 0.0
C2484 C 0.52161 0.91859 0.31253 0.0
C2485 C 0.55418 0.06884 0.30462 0.0
C2486 C 0.5115 0.66654 0.31704 0.0
C2487 C 0.51301 0.72837 0.3161 0.0
C2488 C 0.53566 0.82552 0.30466 0.0
C2489 C 0.54058 0.9887 0.31044 0.0
C2490 C 0.53435 0.92921 0.30938 0.0
C2491 C 0.51807 0.75229 0.3082 0.0
C2492 C 0.52308 0.81442 0.30801 0.0
H2493 H 0.54301 0.10299 0.32527 0.0
H2494 H 0.53317 0.00394 0.32371 0.0
H2495 H 0.55114 0.88853 0.303 0.0
H2496 H 0.52131 0.62368 0.29641 0.0
H2497 H 0.52377 0.73158 0.29474 0.0
C2498 C 0.19554 0.6777 0.30295 0.0
C2499 C 0.19685 0.64406 0.31073 0.0
C2500 C 0.20138 0.734 0.30228 0.0
C2501 C 0.2273 0.82723 0.31246 0.0
H2502 H 0.20885 0.95719 0.30094 0.0
C2503 C 0.23695 0.07836 0.31805 0.0
C2504 C 0.23429 0.11782 0.31104 0.0
C2505 C 0.2355 0.01669 0.31687 0.0
C2506 C 0.21427 0.92107 0.30401 0.0
H2507 H 0.20452 0.64357 0.32408 0.0
H2508 H 0.21445 0.74268 0.32302 0.0
H2509 H 0.19896 0.85847 0.30146 0.0
H2510 H 0.22982 0.12358 0.29702 0.0
H2511 H 0.22742 0.01596 0.29498 0.0
H2512 H 0.24238 0.89104 0.31531 0.0
C2513 C 0.20934 0.7249 0.31732 0.0
C2514 C 0.20857 0.86448 0.30433 0.0
C2515 C 0.20358 0.66847 0.31796 0.0
C2516 C 0.23169 0.09426 0.3026 0.0
C2517 C 0.23026 0.03271 0.30142 0.0
C2518 C 0.23297 0.88409 0.31218 0.0
C2519 C 0.20849 0.75786 0.30942 0.0
C2520 C 0.21492 0.81711 0.30867 0.0
C2521 C 0.23142 0.99372 0.30867 0.0
C2522 C 0.22643 0.9317 0.30804 0.0
H2523 H 0.19048 0.65942 0.29725 0.0
H2524 H 0.20062 0.75805 0.29607 0.0
H2525 H 0.23255 0.79132 0.3157 0.0
H2526 H 0.23907 0.09515 0.32462 0.0
H2527 H 0.23648 0.98766 0.32258 0.0
C2528 C 0.98325 0.40271 0.55295 0.0
C2529 C 0.98551 0.37979 0.56148 0.0
C2530 C 0.98212 0.46424 0.55163 0.0
C2531 C 0.9851 0.61368 0.56209 0.0
H2532 H 0.95128 0.6402 0.55113 0.0
C2533 C 0.95584 0.82985 0.56768 0.0
C2534 C 0.94897 0.85392 0.56048 0.0
C2535 C 0.96171 0.77368 0.56701 0.0
C2536 C 0.96085 0.63398 0.55406 0.0
H2537 H 0.99001 0.40335 0.57507 0.0
H2538 H 0.98794 0.51087 0.57276 0.0
H2539 H 0.96096 0.54103 0.5508 0.0
H2540 H 0.94254 0.83847 0.54703 0.0
H2541 H 0.9529 0.74033 0.54578 0.0
H2542 H 0.98485 0.7067 0.56548 0.0
C2543 C 0.987 0.48135 0.56711 0.0
C2544 C 0.96642 0.5771 0.55385 0.0
C2545 C 0.98815 0.41968 0.56844 0.0
C2546 C 0.9477 0.82039 0.55269 0.0
C2547 C 0.95366 0.76437 0.55198 0.0
C2548 C 0.97955 0.67085 0.56224 0.0
C2549 C 0.98325 0.50384 0.5588 0.0
C2550 C 0.97849 0.56612 0.55799 0.0
C2551 C 0.96085 0.74067 0.55911 0.0
C2552 C 0.96724 0.6813 0.55838 0.0
H2553 H 0.98142 0.373 0.54742 0.0
H2554 H 0.97952 0.4806 0.54511 0.0
H2555 H 0.99443 0.60643 0.5653 0.0
H2556 H 0.95676 0.85469 0.5738 0.0
H2557 H 0.96687 0.75605 0.5727 0.0
C2558 C 0.30155 0.4289 0.5558 0.0
C2559 C 0.29968 0.39012 0.56298 0.0
C2560 C 0.29532 0.48449 0.5556 0.0
C2561 C 0.28007 0.59802 0.56978 0.0
H2562 H 0.26463 0.65203 0.54773 0.0
C2563 C 0.25853 0.83246 0.56745 0.0
C2564 C 0.26412 0.86552 0.56051 0.0
C2565 C 0.25921 0.76997 0.56742 0.0
C2566 C 0.26885 0.63743 0.55394 0.0
H2567 H 0.29062 0.38015 0.57585 0.0
H2568 H 0.27963 0.47713 0.5755 0.0
H2569 H 0.27427 0.55215 0.54862 0.0
H2570 H 0.27332 0.85924 0.54761 0.0
H2571 H 0.2746 0.75076 0.54759 0.0
H2572 H 0.2751 0.68378 0.57504 0.0
C2573 C 0.28578 0.46446 0.56998 0.0
C2574 C 0.27443 0.58047 0.55443 0.0
C2575 C 0.29199 0.40885 0.57016 0.0
C2576 C 0.26909 0.83495 0.55311 0.0
C2577 C 0.26974 0.77263 0.55308 0.0
C2578 C 0.27451 0.65496 0.56929 0.0
C2579 C 0.28721 0.50241 0.56263 0.0
C2580 C 0.28036 0.56077 0.5623 0.0
C2581 C 0.26541 0.73968 0.56043 0.0
C2582 C 0.26911 0.67581 0.56131 0.0
H2583 H 0.30746 0.41544 0.55019 0.0
H2584 H 0.29683 0.51339 0.54994 0.0
H2585 H 0.28465 0.58425 0.57592 0.0
H2586 H 0.25452 0.85475 0.57321 0.0
H2587 H 0.25555 0.74557 0.5731 0.0
C2588 C 0.9581 0.41208 0.67724 0.0
C2589 C 0.95005 0.39367 0.68425 0.0
C2590 C 0.96441 0.46743 0.67755 0.0
C2591 C 0.97515 0.58344 0.69332 0.0
H2592 H 0.97529 0.68694 0.67273 0.0
C2593 C 0.97956 0.83796 0.69483 0.0
C2594 C 0.98484 0.86905 0.68758 0.0
C2595 C 0.97916 0.7756 0.69483 0.0
C2596 C 0.97565 0.65806 0.67848 0.0
H2597 H 0.94176 0.41932 0.69689 0.0
H2598 H 0.95256 0.51681 0.69736 0.0
H2599 H 0.96594 0.58713 0.67163 0.0
H2600 H 0.99518 0.85934 0.67514 0.0
H2601 H 0.99456 0.75006 0.67517 0.0
H2602 H 0.98449 0.65528 0.70025 0.0
C2603 C 0.95427 0.48784 0.69173 0.0
C2604 C 0.97022 0.60095 0.67786 0.0
C2605 C 0.94795 0.43252 0.6914 0.0
C2606 C 0.99093 0.8366 0.68078 0.0
C2607 C 0.9905 0.77407 0.68076 0.0
C2608 C 0.98061 0.64057 0.69394 0.0
C2609 C 0.96273 0.50544 0.68487 0.0
C2610 C 0.9696 0.56369 0.68533 0.0
C2611 C 0.98404 0.74314 0.68758 0.0
C2612 C 0.98061 0.67905 0.68659 0.0
H2613 H 0.95966 0.38335 0.67157 0.0
H2614 H 0.97082 0.47989 0.67216 0.0
H2615 H 0.97507 0.5551 0.69914 0.0
H2616 H 0.97492 0.86181 0.70023 0.0
H2617 H 0.97408 0.75323 0.70018 0.0
C2618 C 0.30242 0.80951 0.69203 0.0
C2619 C 0.30082 0.8485 0.68484 0.0
C2620 C 0.29619 0.7539 0.69206 0.0
C2621 C 0.28153 0.64098 0.67749 0.0
H2622 H 0.26499 0.58645 0.69914 0.0
C2623 C 0.25982 0.40688 0.6791 0.0
C2624 C 0.2651 0.37352 0.68612 0.0
C2625 C 0.26045 0.46937 0.67922 0.0
C2626 C 0.26952 0.60121 0.69304 0.0
H2627 H 0.29228 0.85891 0.67181 0.0
H2628 H 0.2813 0.76192 0.67188 0.0
H2629 H 0.27478 0.68614 0.69857 0.0
H2630 H 0.27365 0.37914 0.69923 0.0
H2631 H 0.27486 0.48762 0.69941 0.0
H2632 H 0.27673 0.55558 0.67205 0.0
C2633 C 0.28723 0.7744 0.67753 0.0
C2634 C 0.27518 0.65804 0.69273 0.0
C2635 C 0.29343 0.83 0.67751 0.0
C2636 C 0.26968 0.40371 0.69367 0.0
C2637 C 0.27028 0.46601 0.69379 0.0
C2638 C 0.27589 0.58418 0.67781 0.0
C2639 C 0.28836 0.73622 0.68487 0.0
C2640 C 0.2815 0.67791 0.68501 0.0
C2641 C 0.2663 0.49932 0.68638 0.0
C2642 C 0.27009 0.56315 0.68565 0.0
H2643 H 0.3081 0.82287 0.69775 0.0
H2644 H 0.29746 0.72481 0.69773 0.0
H2645 H 0.28641 0.6549 0.67148 0.0
H2646 H 0.25611 0.38486 0.67323 0.0
H2647 H 0.25706 0.49405 0.67349 0.0
C2648 C 0.05333 0.16836 0.44411 0.0
C2649 C 0.05143 0.13473 0.43638 0.0
C2650 C 0.04746 0.22443 0.44502 0.0
C2651 C 0.02083 0.31821 0.43573 0.0
H2652 H 0.04039 0.4477 0.4465 0.0
C2653 C 0.01156 0.56972 0.43017 0.0
C2654 C 0.0148 0.60929 0.43705 0.0
C2655 C 0.01289 0.508 0.43137 0.0
C2656 C 0.03467 0.41172 0.44365 0.0
H2657 H 0.04258 0.13387 0.42337 0.0
H2658 H 0.0326 0.23261 0.42482 0.0
H2659 H 0.05 0.34853 0.44574 0.0
H2660 H 0.02018 0.61536 0.45092 0.0
H2661 H 0.02237 0.50768 0.45301 0.0
H2662 H 0.00571 0.38272 0.43332 0.0
C2663 C 0.03821 0.215 0.43031 0.0
C2664 C 0.04021 0.35484 0.44319 0.0
C2665 C 0.04399 0.15876 0.42944 0.0
C2666 C 0.01787 0.58593 0.44544 0.0
C2667 C 0.01917 0.52434 0.44663 0.0
C2668 C 0.01532 0.37539 0.43614 0.0
C2669 C 0.03972 0.24813 0.43816 0.0
C2670 C 0.03344 0.30761 0.43912 0.0
C2671 C 0.01741 0.48512 0.43947 0.0
C2672 C 0.02226 0.42283 0.44001 0.0
H2673 H 0.05894 0.15034 0.44957 0.0
H2674 H 0.04874 0.24854 0.45117 0.0
H2675 H 0.01526 0.28244 0.4327 0.0
H2676 H 0.00908 0.58638 0.42365 0.0
H2677 H 0.01144 0.47878 0.42573 0.0
C2678 C 0.69707 0.57202 0.44349 0.0
C2679 C 0.69947 0.60544 0.43581 0.0
C2680 C 0.7029 0.51605 0.44462 0.0
C2681 C 0.73008 0.42179 0.43624 0.0
H2682 H 0.7097 0.29292 0.44645 0.0
C2683 C 0.7396 0.16987 0.43124 0.0
C2684 C 0.73577 0.13067 0.43803 0.0
C2685 C 0.73826 0.23167 0.43233 0.0
C2686 C 0.71564 0.32872 0.44377 0.0
H2687 H 0.70919 0.60602 0.42309 0.0
H2688 H 0.71911 0.50739 0.42492 0.0
H2689 H 0.70021 0.39213 0.4453 0.0
H2690 H 0.72932 0.12526 0.45168 0.0
H2691 H 0.72713 0.23309 0.45361 0.0
H2692 H 0.74532 0.35703 0.43438 0.0
C2693 C 0.71313 0.52513 0.43022 0.0
C2694 C 0.71018 0.38563 0.44308 0.0
C2695 C 0.70739 0.58132 0.42913 0.0
C2696 C 0.7321 0.15443 0.44627 0.0
C2697 C 0.7308 0.2161 0.44737 0.0
C2698 C 0.73553 0.36457 0.43687 0.0
C2699 C 0.71108 0.49219 0.43802 0.0
C2700 C 0.71725 0.43265 0.4392 0.0
C2701 C 0.73314 0.25499 0.44024 0.0
C2702 C 0.72829 0.31735 0.44056 0.0
H2703 H 0.69109 0.59011 0.44877 0.0
H2704 H 0.70121 0.4921 0.45075 0.0
H2705 H 0.73588 0.4574 0.43336 0.0
H2706 H 0.74255 0.15287 0.42483 0.0
H2707 H 0.74017 0.26062 0.42673 0.0
C2708 C 0.00842 0.16152 0.31778 0.0
C2709 C 0.01431 0.12876 0.31092 0.0
C2710 C 0.00857 0.22406 0.3176 0.0
C2711 C 0.01748 0.35658 0.30386 0.0
H2712 H 0.03317 0.41276 0.32571 0.0
C2713 C 0.05039 0.56461 0.30529 0.0
C2714 C 0.04858 0.60409 0.3124 0.0
C2715 C 0.04397 0.50946 0.30517 0.0
C2716 C 0.0286 0.39817 0.31961 0.0
H2717 H 0.02347 0.13519 0.29801 0.0
H2718 H 0.02386 0.24374 0.29774 0.0
H2719 H 0.02385 0.31279 0.32506 0.0
H2720 H 0.03939 0.61592 0.3252 0.0
H2721 H 0.02808 0.51977 0.32497 0.0
H2722 H 0.02276 0.44145 0.29833 0.0
C2723 C 0.01916 0.22167 0.30327 0.0
C2724 C 0.02317 0.34098 0.31925 0.0
C2725 C 0.01904 0.15933 0.30346 0.0
C2726 C 0.04071 0.58666 0.31955 0.0
C2727 C 0.03432 0.53153 0.31945 0.0
C2728 C 0.02295 0.4138 0.30422 0.0
C2729 C 0.01454 0.25463 0.31054 0.0
C2730 C 0.01786 0.31897 0.31131 0.0
C2731 C 0.03573 0.49276 0.3122 0.0
C2732 C 0.02886 0.4345 0.31203 0.0
H2733 H 0.00458 0.13914 0.32358 0.0
H2734 H 0.00471 0.24844 0.32322 0.0
H2735 H 0.01332 0.34107 0.29768 0.0
H2736 H 0.05643 0.57716 0.2997 0.0
H2737 H 0.04546 0.47988 0.29958 0.0
C2738 C 0.70422 0.16663 0.31831 0.0
C2739 C 0.69741 0.14212 0.31112 0.0
C2740 C 0.71005 0.22285 0.3176 0.0
C2741 C 0.70926 0.3619 0.30452 0.0
H2742 H 0.74305 0.38899 0.31549 0.0
C2743 C 0.73188 0.59234 0.30294 0.0
C2744 C 0.73438 0.61565 0.3114 0.0
C2745 C 0.73068 0.53076 0.3017 0.0
C2746 C 0.73365 0.38188 0.31236 0.0
H2747 H 0.69101 0.15698 0.29764 0.0
H2748 H 0.70128 0.25524 0.29633 0.0
H2749 H 0.73329 0.2891 0.31589 0.0
H2750 H 0.73924 0.59278 0.32496 0.0
H2751 H 0.73701 0.48519 0.32281 0.0
H2752 H 0.70945 0.4546 0.30113 0.0
C2753 C 0.70204 0.23145 0.30256 0.0
C2754 C 0.72801 0.32493 0.31264 0.0
C2755 C 0.69613 0.17538 0.3033 0.0
C2756 C 0.7372 0.57611 0.31837 0.0
C2757 C 0.73595 0.5144 0.31714 0.0
C2758 C 0.71491 0.41856 0.30419 0.0
C2759 C 0.70921 0.25547 0.30966 0.0
C2760 C 0.71564 0.31466 0.30886 0.0
C2761 C 0.73195 0.49154 0.30891 0.0
C2762 C 0.72706 0.42939 0.30823 0.0
H2763 H 0.70515 0.14199 0.32445 0.0
H2764 H 0.7152 0.24076 0.32327 0.0
H2765 H 0.69964 0.35577 0.30165 0.0
H2766 H 0.72991 0.62181 0.2974 0.0
H2767 H 0.72789 0.51412 0.29523 0.0
C2768 C 0.98745 0.91658 0.06839 0.0
C2769 C 0.98464 0.87654 0.06148 0.0
C2770 C 0.98633 0.97822 0.06703 0.0
C2771 C 0.96556 0.07389 0.0539 0.0
H2772 H 0.98425 0.20348 0.06534 0.0
C2773 C 0.94679 0.31715 0.05296 0.0
C2774 C 0.94821 0.35056 0.06075 0.0
C2775 C 0.95276 0.2612 0.05217 0.0
C2776 C 0.97888 0.16763 0.06216 0.0
H2777 H 0.98028 0.86942 0.04746 0.0
H2778 H 0.97843 0.97699 0.0451 0.0
H2779 H 0.9938 0.10316 0.06509 0.0
H2780 H 0.9563 0.35122 0.07399 0.0
H2781 H 0.96642 0.25269 0.07275 0.0
H2782 H 0.95038 0.13704 0.05132 0.0
C2783 C 0.98114 0.96077 0.05161 0.0
C2784 C 0.98441 0.11044 0.06197 0.0
C2785 C 0.98224 0.89926 0.05296 0.0
C2786 C 0.95526 0.32646 0.06787 0.0
C2787 C 0.96113 0.27036 0.06712 0.0
C2788 C 0.96001 0.1308 0.05415 0.0
C2789 C 0.98244 0.00054 0.05875 0.0
C2790 C 0.9777 0.06286 0.05794 0.0
C2791 C 0.96011 0.23746 0.05922 0.0
C2792 C 0.96649 0.17811 0.05841 0.0
H2793 H 0.98943 0.90039 0.07501 0.0
H2794 H 0.9874 0.00788 0.07266 0.0
H2795 H 0.96002 0.03782 0.05092 0.0
H2796 H 0.94149 0.33527 0.04736 0.0
H2797 H 0.95186 0.23723 0.04597 0.0
C2798 C 0.28996 0.90051 0.06983 0.0
C2799 C 0.29794 0.88274 0.06275 0.0
C2800 C 0.28362 0.95577 0.06965 0.0
C2801 C 0.27256 0.07296 0.05421 0.0
H2802 H 0.27308 0.17501 0.07495 0.0
C2803 C 0.26839 0.32751 0.05312 0.0
C2804 C 0.26346 0.35834 0.0605 0.0
C2805 C 0.26866 0.26515 0.05302 0.0
C2806 C 0.27252 0.14654 0.06916 0.0
H2807 H 0.30603 0.90923 0.0501 0.0
H2808 H 0.29513 0.00662 0.04983 0.0
H2809 H 0.28238 0.07501 0.07578 0.0
H2810 H 0.25355 0.34826 0.07311 0.0
H2811 H 0.25392 0.23897 0.07289 0.0
H2812 H 0.26306 0.14538 0.04751 0.0
C2813 C 0.29353 0.97724 0.05543 0.0
C2814 C 0.27793 0.08933 0.06963 0.0
C2815 C 0.2999 0.92201 0.05564 0.0
C2816 C 0.25755 0.32571 0.06736 0.0
C2817 C 0.25784 0.26317 0.06727 0.0
C2818 C 0.26711 0.13019 0.05374 0.0
C2819 C 0.28518 0.99429 0.06238 0.0
C2820 C 0.27832 0.0526 0.0621 0.0
C2821 C 0.26398 0.23242 0.0603 0.0
C2822 C 0.26735 0.16816 0.06115 0.0
H2823 H 0.28851 0.87142 0.07548 0.0
H2824 H 0.27728 0.96781 0.07511 0.0
H2825 H 0.27248 0.04502 0.04835 0.0
H2826 H 0.27287 0.3515 0.04767 0.0
H2827 H 0.27349 0.24295 0.04755 0.0
C2828 C 0.95961 0.90508 0.17774 0.0
C2829 C 0.95135 0.88719 0.18466 0.0
C2830 C 0.96595 0.96033 0.17806 0.0
C2831 C 0.97636 0.07732 0.19376 0.0
H2832 H 0.97669 0.17969 0.17305 0.0
C2833 C 0.98042 0.33191 0.19501 0.0
C2834 C 0.98567 0.36285 0.18775 0.0
C2835 C 0.98014 0.26955 0.19508 0.0
C2836 C 0.97701 0.15113 0.17883 0.0
H2837 H 0.94277 0.9135 0.19717 0.0
H2838 H 0.95366 0.01084 0.19768 0.0
H2839 H 0.96746 0.07965 0.172 0.0
H2840 H 0.99613 0.35293 0.17534 0.0
H2841 H 0.99574 0.24365 0.17551 0.0
H2842 H 0.98554 0.1497 0.20066 0.0
C2843 C 0.95548 0.98156 0.1921 0.0
C2844 C 0.97164 0.09389 0.17824 0.0
C2845 C 0.94911 0.92635 0.19176 0.0
C2846 C 0.99188 0.33031 0.18099 0.0
C2847 C 0.99159 0.26776 0.18105 0.0
C2848 C 0.98176 0.13457 0.19435 0.0
C2849 C 0.96411 -0.00128 0.18532 0.0
C2850 C 0.97094 0.05704 0.18575 0.0
C2851 C 0.98514 0.23692 0.18789 0.0
C2852 C 0.98182 0.17266 0.18695 0.0
H2853 H 0.96128 0.8761 0.1721 0.0
H2854 H 0.9725 0.97245 0.17272 0.0
H2855 H 0.9762 0.04929 0.1996 0.0
H2856 H 0.97571 0.35582 0.20038 0.0
H2857 H 0.97508 0.24725 0.20044 0.0
C2858 C 0.30247 0.30892 0.19211 0.0
C2859 C 0.30087 0.34811 0.18494 0.0
C2860 C 0.29613 0.25359 0.19216 0.0
C2861 C 0.28121 0.14156 0.17757 0.0
H2862 H 0.26513 0.08576 0.19931 0.0
C2863 C 0.26027 0.90615 0.17922 0.0
C2864 C 0.26586 0.87313 0.18617 0.0
C2865 C 0.26063 0.96869 0.17938 0.0
C2866 C 0.26952 0.10091 0.19318 0.0
H2867 H 0.29217 0.35917 0.17197 0.0
H2868 H 0.28099 0.26272 0.17207 0.0
H2869 H 0.27476 0.18577 0.19873 0.0
H2870 H 0.27469 0.87915 0.19919 0.0
H2871 H 0.27542 0.9877 0.19943 0.0
H2872 H 0.27645 0.0562 0.1721 0.0
C2873 C 0.28701 0.27482 0.17769 0.0
C2874 C 0.27509 0.15791 0.19287 0.0
C2875 C 0.29333 0.33013 0.17765 0.0
C2876 C 0.27048 0.9035 0.19368 0.0
C2877 C 0.27081 0.96584 0.19385 0.0
C2878 C 0.27566 0.08459 0.17789 0.0
C2879 C 0.28817 0.2364 0.185 0.0
C2880 C 0.28128 0.17817 0.18512 0.0
C2881 C 0.2665 -0.00103 0.1865 0.0
C2882 C 0.27004 0.06308 0.18576 0.0
H2883 H 0.30826 0.32189 0.1978 0.0
H2884 H 0.29742 0.22429 0.1978 0.0
H2885 H 0.28599 0.15578 0.17153 0.0
H2886 H 0.25653 0.88393 0.17338 0.0
H2887 H 0.257 0.99322 0.1737 0.0
C2888 C 0.0185 0.08192 0.94442 0.0
C2889 C 0.01365 0.11289 0.93703 0.0
C2890 C 0.0187 0.01956 0.94451 0.0
C2891 C 0.02259 0.90104 0.92837 0.0
H2892 H 0.0223 0.79941 0.94917 0.0
C2893 C 0.04004 0.65501 0.92776 0.0
C2894 C 0.04796 0.63728 0.93488 0.0
C2895 C 0.03367 0.71022 0.92792 0.0
C2896 C 0.02245 0.82737 0.94331 0.0
H2897 H 0.00383 0.10312 0.92438 0.0
H2898 H 0.00409 0.99382 0.92458 0.0
H2899 H 0.01292 0.89985 0.94997 0.0
H2900 H 0.05591 0.66381 0.94757 0.0
H2901 H 0.04497 0.76111 0.94779 0.0
H2902 H 0.03249 0.82947 0.92179 0.0
C2903 C 0.00798 0.0179 0.93022 0.0
C2904 C 0.01702 0.88464 0.94376 0.0
C2905 C 0.00776 0.08045 0.93014 0.0
C2906 C 0.04983 0.67655 0.942 0.0
C2907 C 0.04343 0.73173 0.94218 0.0
C2908 C 0.02799 0.84379 0.92792 0.0
C2909 C 0.01404 0.98698 0.93721 0.0
C2910 C 0.01736 0.92267 0.93636 0.0
C2911 C 0.03515 0.74873 0.9352 0.0
C2912 C 0.02828 0.80702 0.93545 0.0
H2913 H 0.02295 0.10578 0.94989 0.0
H2914 H 0.02346 -0.00279 0.95 0.0
H2915 H 0.02323 0.92955 0.92259 0.0
H2916 H 0.03866 0.62593 0.9221 0.0
H2917 H 0.02739 0.72223 0.92243 0.0
C2918 C 0.73031 0.65139 0.94455 0.0
C2919 C 0.73549 0.62037 0.93727 0.0
C2920 C 0.72987 0.71374 0.94456 0.0
C2921 C 0.72603 0.83124 0.92824 0.0
H2922 H 0.72574 0.93427 0.94889 0.0
C2923 C 0.70848 0.07724 0.92711 0.0
C2924 C 0.70055 0.09574 0.93417 0.0
C2925 C 0.71477 0.02182 0.92738 0.0
C2926 C 0.72574 0.9059 0.94308 0.0
H2927 H 0.74563 0.63022 0.92474 0.0
H2928 H 0.74494 0.73949 0.92479 0.0
H2929 H 0.73522 0.83414 0.94994 0.0
H2930 H 0.69244 0.07023 0.94686 0.0
H2931 H 0.70321 0.97264 0.94727 0.0
H2932 H 0.71618 0.90209 0.92145 0.0
C2933 C 0.74099 0.71543 0.93041 0.0
C2934 C 0.73123 0.84881 0.94367 0.0
C2935 C 0.74146 0.6529 0.93042 0.0
C2936 C 0.69853 0.05694 0.94134 0.0
C2937 C 0.70484 0.00157 0.94163 0.0
C2938 C 0.72056 0.8883 0.92765 0.0
C2939 C 0.73462 0.74627 0.93728 0.0
C2940 C 0.73113 0.81032 0.93631 0.0
C2941 C 0.71319 0.98387 0.93471 0.0
C2942 C 0.72006 0.9256 0.93512 0.0
H2943 H 0.72578 0.62748 0.94999 0.0
H2944 H 0.72487 0.73605 0.94995 0.0
H2945 H 0.72558 0.80233 0.9225 0.0
H2946 H 0.70997 0.10594 0.92142 0.0
H2947 H 0.7211 0.0093 0.92194 0.0
C2948 C 0.02026 0.65149 0.80379 0.0
C2949 C 0.01571 0.62132 0.81134 0.0
C2950 C 0.02077 0.71381 0.80363 0.0
C2951 C 0.02617 0.83238 0.81957 0.0
H2952 H 0.02504 0.93382 0.79876 0.0
C2953 C 0.04378 0.07805 0.81977 0.0
C2954 C 0.05118 0.09632 0.81244 0.0
C2955 C 0.03753 0.02257 0.81977 0.0
C2956 C 0.02545 0.90588 0.80461 0.0
H2957 H 0.00665 0.63261 0.82421 0.0
H2958 H 0.00743 0.74184 0.8239 0.0
H2959 H 0.01531 0.83401 0.79822 0.0
H2960 H 0.05842 0.07039 0.79953 0.0
H2961 H 0.04771 0.97251 0.79958 0.0
H2962 H 0.03665 0.90333 0.82588 0.0
C2963 C 0.01088 0.71714 0.81819 0.0
C2964 C 0.01981 0.84898 0.80432 0.0
C2965 C 0.01035 0.65464 0.81834 0.0
C2966 C 0.05274 0.05722 0.80526 0.0
C2967 C 0.04646 0.00171 0.80524 0.0
C2968 C 0.03178 0.88924 0.81986 0.0
C2969 C 0.0167 0.74714 0.81102 0.0
C2970 C 0.0204 0.81108 0.81173 0.0
C2971 C 0.03863 0.98426 0.81244 0.0
C2972 C 0.03175 0.92597 0.81233 0.0
H2973 H 0.0243 0.62694 0.79824 0.0
H2974 H 0.02533 0.73544 0.79801 0.0
H2975 H 0.02702 0.80392 0.82534 0.0
H2976 H 0.04266 0.10703 0.82547 0.0
H2977 H 0.03159 0.01027 0.82542 0.0
C2978 C 0.73054 0.0898 0.80365 0.0
C2979 C 0.73517 0.12022 0.81115 0.0
C2980 C 0.73008 0.02748 0.80353 0.0
C2981 C 0.72493 0.90927 0.81954 0.0
H2982 H 0.72589 0.80736 0.79878 0.0
C2983 C 0.70733 0.66355 0.81991 0.0
C2984 C 0.69984 0.64525 0.81261 0.0
C2985 C 0.71359 0.71901 0.81986 0.0
C2986 C 0.72554 0.83543 0.80462 0.0
H2987 H 0.7444 0.1094 0.82398 0.0
H2988 H 0.7437 0.00014 0.82373 0.0
H2989 H 0.73559 0.90722 0.79815 0.0
H2990 H 0.69248 0.67108 0.79973 0.0
H2991 H 0.70322 0.76889 0.7997 0.0
H2992 H 0.71454 0.83839 0.82593 0.0
C2993 C 0.74016 0.02464 0.81802 0.0
C2994 C 0.73115 0.89235 0.80428 0.0
C2995 C 0.74065 0.08716 0.81814 0.0
C2996 C 0.69822 0.68428 0.80543 0.0
C2997 C 0.70451 0.73975 0.80536 0.0
C2998 C 0.71935 0.85238 0.81989 0.0
C2999 C 0.73427 0.99439 0.81091 0.0
C3000 C 0.73062 0.93042 0.81167 0.0
C3001 C 0.71242 0.75723 0.81252 0.0
C3002 C 0.71931 0.81549 0.81237 0.0
H3003 H 0.72641 0.11416 0.79811 0.0
H3004 H 0.72546 0.00563 0.79794 0.0
H3005 H 0.72413 0.93786 0.82531 0.0
H3006 H 0.7085 0.63461 0.8256 0.0
H3007 H 0.71958 0.73135 0.82548 0.0
C3008 C 0.33868 0.5297 0.0582 0.0
C3009 C 0.32673 0.49872 0.05854 0.0
C3010 C 0.3505 0.49836 0.05773 0.0
C3011 C 0.3645 0.34946 0.05235 0.0
H3012 H 0.39347 0.40441 0.06676 0.0
C3013 C 0.41093 0.20721 0.05874 0.0
C3014 C 0.42297 0.23749 0.05854 0.0
C3015 C 0.39917 0.23914 0.05831 0.0
C3016 C 0.38552 0.38885 0.06262 0.0
H3017 H 0.31786 0.41035 0.05858 0.0
H3018 H 0.33841 0.35602 0.05791 0.0
H3019 H 0.37308 0.46067 0.0667 0.0
H3020 H 0.43207 0.32516 0.05758 0.0
H3021 H 0.41164 0.3804 0.05679 0.0
H3022 H 0.37695 0.27716 0.04837 0.0
C3023 C 0.33867 0.4045 0.05786 0.0
C3024 C 0.37384 0.42118 0.06257 0.0
C3025 C 0.32687 0.43576 0.05831 0.0
C3026 C 0.42299 0.30029 0.05779 0.0
C3027 C 0.41127 0.3321 0.05739 0.0
C3028 C 0.37618 0.317 0.05243 0.0
C3029 C 0.35063 0.43537 0.05761 0.0
C3030 C 0.36317 0.40182 0.05745 0.0
C3031 C 0.39923 0.30198 0.05771 0.0
C3032 C 0.38681 0.33634 0.05757 0.0
H3033 H 0.33893 0.57818 0.05832 0.0
H3034 H 0.35953 0.52353 0.05742 0.0
H3035 H 0.35654 0.33378 0.04824 0.0
H3036 H 0.41056 0.15889 0.05931 0.0
H3037 H 0.39004 0.21472 0.05864 0.0
C3038 C 0.8398 0.03672 0.06003 0.0
C3039 C 0.82776 0.00637 0.06013 0.0
C3040 C 0.85155 0.00479 0.05969 0.0
C3041 C 0.86527 0.85645 0.05392 0.0
H3042 H 0.89414 0.90691 0.06878 0.0
C3043 C 0.91107 0.70996 0.05976 0.0
C3044 C 0.92325 0.73916 0.05986 0.0
C3045 C 0.89947 0.743 0.05947 0.0
C3046 C 0.88622 0.89264 0.06451 0.0
H3047 H 0.81866 0.91851 0.05993 0.0
H3048 H 0.83911 0.8631 0.05945 0.0
H3049 H 0.87386 0.96419 0.06883 0.0
H3050 H 0.93274 0.82615 0.05961 0.0
H3051 H 0.91254 0.88347 0.05905 0.0
H3052 H 0.87762 0.78461 0.04966 0.0
C3053 C 0.83948 0.91157 0.05951 0.0
C3054 C 0.87461 0.92551 0.06453 0.0
C3055 C 0.82775 0.94342 0.05984 0.0
C3056 C 0.92355 0.80211 0.05958 0.0
C3057 C 0.91196 0.83507 0.05931 0.0
C3058 C 0.87689 0.82353 0.05391 0.0
C3059 C 0.85152 0.94184 0.05944 0.0
C3060 C 0.86398 0.9077 0.05925 0.0
C3061 C 0.89979 0.80594 0.0593 0.0
C3062 C 0.88748 0.84118 0.05922 0.0
H3063 H 0.84017 0.08517 0.06021 0.0
H3064 H 0.86066 0.02947 0.05954 0.0
H3065 H 0.85734 0.84206 0.04967 0.0
H3066 H 0.91048 0.66156 0.05997 0.0
H3067 H 0.89024 0.71926 0.05956 0.0
C3068 C 0.34121 0.70242 0.18809 0.0
C3069 C 0.32921 0.73313 0.188 0.0
C3070 C 0.353 0.73402 0.18848 0.0
C3071 C 0.36686 0.88208 0.19434 0.0
H3072 H 0.3955 0.83278 0.1792 0.0
C3073 C 0.41215 0.03076 0.18804 0.0
C3074 C 0.4244 0.00221 0.18782 0.0
C3075 C 0.40064 -0.00292 0.18843 0.0
C3076 C 0.38765 0.84672 0.18355 0.0
H3077 H 0.32024 0.82129 0.18831 0.0
H3078 H 0.34074 0.87602 0.18888 0.0
H3079 H 0.37531 0.77483 0.17932 0.0
H3080 H 0.43412 0.91571 0.18796 0.0
H3081 H 0.41408 0.85732 0.1887 0.0
H3082 H 0.37917 0.95432 0.1985 0.0
C3083 C 0.34105 0.82755 0.18877 0.0
C3084 C 0.37609 0.81344 0.18363 0.0
C3085 C 0.32929 0.79606 0.18839 0.0
C3086 C 0.42486 0.93927 0.18808 0.0
C3087 C 0.41337 0.90568 0.18846 0.0
C3088 C 0.37842 0.9154 0.19425 0.0
C3089 C 0.35305 0.79697 0.1888 0.0
C3090 C 0.36553 0.83093 0.18899 0.0
C3091 C 0.40113 0.93416 0.1886 0.0
C3092 C 0.38892 0.89825 0.18883 0.0
H3093 H 0.34151 0.65397 0.18784 0.0
H3094 H 0.36209 0.70911 0.1886 0.0
H3095 H 0.35899 0.89622 0.19865 0.0
H3096 H 0.41143 0.07913 0.18784 0.0
H3097 H 0.39135 0.02033 0.18844 0.0
C3098 C 0.82622 0.30426 0.18851 0.0
C3099 C 0.82624 0.24131 0.18822 0.0
C3100 C 0.83795 0.33613 0.18888 0.0
C3101 C 0.87315 0.32125 0.184 0.0
H3102 H 0.8762 0.4635 0.19859 0.0
C3103 C 0.92233 0.44051 0.18937 0.0
C3104 C 0.92239 0.50338 0.18879 0.0
C3105 C 0.91057 0.40895 0.18961 0.0
C3106 C 0.87545 0.42418 0.19443 0.0
H3107 H 0.83865 0.16251 0.18823 0.0
H3108 H 0.85912 0.21816 0.189 0.0
H3109 H 0.85579 0.40689 0.19854 0.0
H3110 H 0.91007 0.58237 0.18818 0.0
H3111 H 0.88949 0.527 0.18858 0.0
H3112 H 0.8928 0.33844 0.17991 0.0
C3113 C 0.85002 0.24289 0.18879 0.0
C3114 C 0.86376 0.39174 0.19439 0.0
C3115 C 0.83828 0.21097 0.18839 0.0
C3116 C 0.91038 0.53399 0.18862 0.0
C3117 C 0.89859 0.50231 0.18889 0.0
C3118 C 0.88483 0.35355 0.18406 0.0
C3119 C 0.84999 0.30586 0.18899 0.0
C3120 C 0.86247 0.33992 0.18917 0.0
C3121 C 0.89857 0.43941 0.18931 0.0
C3122 C 0.88611 0.40536 0.18927 0.0
H3123 H 0.81713 0.32915 0.18836 0.0
H3124 H 0.83757 0.38459 0.18891 0.0
H3125 H 0.87241 0.28221 0.17978 0.0
H3126 H 0.93138 0.41538 0.18956 0.0
H3127 H 0.91088 0.36057 0.19007 0.0
C3128 C 0.67226 0.54326 0.93874 0.0
C3129 C 0.67229 0.48044 0.93806 0.0
C3130 C 0.66053 0.57506 0.93887 0.0
C3131 C 0.62526 0.56028 0.94319 0.0
H3132 H 0.6229 0.70437 0.92894 0.0
C3133 C 0.57649 0.68413 0.93726 0.0
C3134 C 0.57671 0.74712 0.93728 0.0
C3135 C 0.58811 0.65141 0.93756 0.0
C3136 C 0.62344 0.66469 0.93305 0.0
H3137 H 0.65991 0.40176 0.93713 0.0
H3138 H 0.63937 0.45758 0.93734 0.0
H3139 H 0.64315 0.6471 0.92912 0.0
H3140 H 0.58937 0.82503 0.93772 0.0
H3141 H 0.60965 0.76785 0.93833 0.0
H3142 H 0.60554 0.57802 0.94713 0.0
C3143 C 0.64848 0.48204 0.93782 0.0
C3144 C 0.63505 0.63181 0.93314 0.0
C3145 C 0.66025 0.45011 0.93766 0.0
C3146 C 0.58884 0.77659 0.93765 0.0
C3147 C 0.60047 0.7438 0.93796 0.0
C3148 C 0.61365 0.59329 0.94311 0.0
C3149 C 0.64851 0.54491 0.93834 0.0
C3150 C 0.6361 0.5793 0.93822 0.0
C3151 C 0.60024 0.68083 0.93789 0.0
C3152 C 0.61261 0.64591 0.93804 0.0
H3153 H 0.68133 0.56819 0.9391 0.0
H3154 H 0.66088 0.62339 0.93943 0.0
H3155 H 0.62583 0.52043 0.94725 0.0
H3156 H 0.56733 0.6599 0.93696 0.0
H3157 H 0.58759 0.60299 0.93737 0.0
C3158 C 0.17347 0.05743 0.94018 0.0
C3159 C 0.17344 0.99465 0.93941 0.0
C3160 C 0.16176 0.08923 0.94067 0.0
C3161 C 0.12669 0.07401 0.94578 0.0
H3162 H 0.12342 0.21737 0.93146 0.0
C3163 C 0.07724 0.1912 0.93975 0.0
C3164 C 0.07701 0.25415 0.93945 0.0
C3165 C 0.08908 0.16034 0.94027 0.0
C3166 C 0.12423 0.17798 0.9356 0.0
H3167 H 0.16101 0.91605 0.93872 0.0
H3168 H 0.14051 0.97185 0.93954 0.0
H3169 H 0.14386 0.16151 0.93139 0.0
H3170 H 0.08909 0.334 0.93965 0.0
H3171 H 0.10976 0.28005 0.94068 0.0
H3172 H 0.10704 0.09046 0.94998 0.0
C3173 C 0.14965 -0.00372 0.93982 0.0
C3174 C 0.13594 0.14588 0.93555 0.0
C3175 C 0.16139 0.96436 0.9393 0.0
C3176 C 0.08891 0.28552 0.93982 0.0
C3177 C 0.10077 0.25458 0.94036 0.0
C3178 C 0.11498 0.10624 0.94585 0.0
C3179 C 0.14971 0.05912 0.94043 0.0
C3180 C 0.13729 0.09344 0.94061 0.0
C3181 C 0.10099 0.19161 0.94053 0.0
C3182 C 0.11359 0.15847 0.94073 0.0
H3183 H 0.18256 0.0823 0.94033 0.0
H3184 H 0.16213 0.13754 0.94127 0.0
H3185 H 0.1275 0.03423 0.94984 0.0
H3186 H 0.06827 0.1655 0.93946 0.0
H3187 H 0.0889 0.11185 0.94026 0.0
C3188 C 0.65998 0.29002 0.80947 0.0
C3189 C 0.67202 0.25964 0.80948 0.0
C3190 C 0.64822 0.25806 0.80925 0.0
C3191 C 0.63452 0.10956 0.81442 0.0
H3192 H 0.6057 0.16031 0.79954 0.0
C3193 C 0.58831 0.96487 0.80986 0.0
C3194 C 0.57622 0.99479 0.80987 0.0
C3195 C 0.6 -0.00282 0.80954 0.0
C3196 C 0.61361 0.14591 0.8038 0.0
H3197 H 0.6811 0.17172 0.80911 0.0
H3198 H 0.66066 0.11642 0.80867 0.0
H3199 H 0.62603 0.21752 0.79953 0.0
H3200 H 0.56697 0.08232 0.80954 0.0
H3201 H 0.58733 0.13843 0.80912 0.0
H3202 H 0.62212 0.03828 0.81875 0.0
C3203 C 0.66029 0.16485 0.80896 0.0
C3204 C 0.62525 0.17869 0.80379 0.0
C3205 C 0.67202 0.19669 0.80915 0.0
C3206 C 0.5761 0.05773 0.80951 0.0
C3207 C 0.58778 0.08999 0.80921 0.0
C3208 C 0.62288 0.07689 0.81445 0.0
C3209 C 0.64826 0.1951 0.80906 0.0
C3210 C 0.63584 0.1608 0.80909 0.0
C3211 C 0.59987 0.06013 0.80925 0.0
C3212 C 0.61229 0.09462 0.80913 0.0
H3213 H 0.65962 0.33847 0.80971 0.0
H3214 H 0.63909 0.28261 0.8094 0.0
H3215 H 0.64243 0.09517 0.81869 0.0
H3216 H 0.58876 0.91643 0.81009 0.0
H3217 H 0.60915 0.97278 0.80946 0.0
C3218 C 0.07853 0.54582 0.80888 0.0
C3219 C 0.0787 0.48293 0.80938 0.0
C3220 C 0.09016 0.57833 0.80868 0.0
C3221 C 0.12539 0.56605 0.80395 0.0
H3222 H 0.12762 0.7092 0.81841 0.0
C3223 C 0.1739 0.69224 0.8098 0.0
C3224 C 0.17351 0.75521 0.80989 0.0
C3225 C 0.16236 0.65889 0.80949 0.0
C3226 C 0.1271 0.6698 0.81425 0.0
H3227 H 0.09132 0.4049 0.80994 0.0
H3228 H 0.11169 0.46196 0.80965 0.0
H3229 H 0.10754 0.65066 0.81834 0.0
H3230 H 0.16064 0.83243 0.80959 0.0
H3231 H 0.14051 0.77416 0.80894 0.0
H3232 H 0.14497 0.58529 0.79986 0.0
C3233 C 0.1025 0.48593 0.80934 0.0
C3234 C 0.1156 0.63619 0.81422 0.0
C3235 C 0.09083 0.45327 0.80955 0.0
C3236 C 0.1613 0.78403 0.80958 0.0
C3237 C 0.14976 0.75062 0.80925 0.0
C3238 C 0.1369 0.59977 0.80397 0.0
C3239 C 0.10228 0.54886 0.80899 0.0
C3240 C 0.1146 0.584 0.80906 0.0
C3241 C 0.15015 0.68766 0.80924 0.0
C3242 C 0.13788 0.65206 0.80912 0.0
H3243 H 0.06938 0.57024 0.80868 0.0
H3244 H 0.08966 0.62669 0.80826 0.0
H3245 H 0.12486 0.52648 0.79982 0.0
H3246 H 0.18312 0.66848 0.81006 0.0
H3247 H 0.16301 0.61049 0.8096 0.0
C3248 C 0.42231 0.79837 0.55889 0.0
C3249 C 0.42225 0.73539 0.55902 0.0
C3250 C 0.41062 0.83046 0.55848 0.0
C3251 C 0.37538 0.81634 0.56307 0.0
H3252 H 0.37288 0.96062 0.54887 0.0
C3253 C 0.32669 0.94079 0.55813 0.0
C3254 C 0.3269 0.0036 0.55882 0.0
C3255 C 0.3383 0.90815 0.55779 0.0
C3256 C 0.37347 0.92073 0.55293 0.0
H3257 H 0.40979 0.65678 0.55869 0.0
H3258 H 0.38936 0.71294 0.55787 0.0
H3259 H 0.39308 0.90249 0.5488 0.0
H3260 H 0.33957 0.08137 0.55956 0.0
H3261 H 0.35991 0.0241 0.559 0.0
H3262 H 0.35579 0.83459 0.5672 0.0
C3263 C 0.39848 0.73744 0.55822 0.0
C3264 C 0.38504 0.8874 0.55289 0.0
C3265 C 0.4102 0.70525 0.55864 0.0
C3266 C 0.33905 0.03307 0.55903 0.0
C3267 C 0.3507 0.00029 0.55867 0.0
C3268 C 0.36382 0.84957 0.56309 0.0
C3269 C 0.39856 0.80044 0.55817 0.0
C3270 C 0.38614 0.83492 0.55798 0.0
C3271 C 0.35044 0.93743 0.55812 0.0
C3272 C 0.36274 0.90219 0.55804 0.0
H3273 H 0.4314 0.82316 0.55919 0.0
H3274 H 0.41103 0.87892 0.55859 0.0
H3275 H 0.37597 0.77675 0.56719 0.0
H3276 H 0.31753 0.91652 0.5579 0.0
H3277 H 0.33777 0.85985 0.55723 0.0
C3278 C 0.82844 0.4418 0.55794 0.0
C3279 C 0.82812 0.50469 0.5584 0.0
C3280 C 0.84033 0.41131 0.55748 0.0
C3281 C 0.8753 0.42845 0.56264 0.0
H3282 H 0.87898 0.28753 0.54784 0.0
C3283 C 0.92452 0.30554 0.55857 0.0
C3284 C 0.92421 0.24261 0.55892 0.0
C3285 C 0.91294 0.33849 0.55805 0.0
C3286 C 0.87807 0.3265 0.55207 0.0
H3287 H 0.84011 0.58485 0.55856 0.0
H3288 H 0.86088 0.53148 0.55767 0.0
H3289 H 0.85858 0.34405 0.54762 0.0
H3290 H 0.91143 0.16502 0.55888 0.0
H3291 H 0.89123 0.22268 0.55803 0.0
H3292 H 0.89476 0.41071 0.56713 0.0
C3293 C 0.85191 0.50581 0.5578 0.0
C3294 C 0.86638 0.35891 0.55194 0.0
C3295 C 0.83999 0.5364 0.55826 0.0
C3296 C 0.91204 0.2134 0.55863 0.0
C3297 C 0.90045 0.24643 0.55808 0.0
C3298 C 0.88699 0.3961 0.56276 0.0
C3299 C 0.85221 0.44289 0.55745 0.0
C3300 C 0.86483 0.41002 0.55727 0.0
C3301 C 0.90078 0.30936 0.55784 0.0
C3302 C 0.88847 0.34455 0.55752 0.0
H3303 H 0.8195 0.41585 0.55805 0.0
H3304 H 0.84021 0.36282 0.55735 0.0
H3305 H 0.87436 0.46705 0.56694 0.0
H3306 H 0.93371 0.32957 0.55875 0.0
H3307 H 0.91353 0.38688 0.55775 0.0
C3308 C 0.34004 0.205 0.68855 0.0
C3309 C 0.32798 0.2351 0.68819 0.0
C3310 C 0.35174 0.23722 0.68895 0.0
C3311 C 0.36518 0.38721 0.69427 0.0
H3312 H 0.39441 0.33438 0.67994 0.0
C3313 C 0.41119 0.53272 0.68815 0.0
C3314 C 0.42333 0.50319 0.68836 0.0
C3315 C 0.39953 0.50001 0.6885 0.0
C3316 C 0.38639 0.34937 0.68405 0.0
H3317 H 0.31881 0.32285 0.68803 0.0
H3318 H 0.33917 0.37867 0.68861 0.0
H3319 H 0.37422 0.27658 0.67996 0.0
H3320 H 0.43269 0.41605 0.68927 0.0
H3321 H 0.41243 0.35949 0.68992 0.0
H3322 H 0.37735 0.46039 0.69829 0.0
C3323 C 0.33959 0.33021 0.68871 0.0
C3324 C 0.37482 0.31616 0.68408 0.0
C3325 C 0.32791 0.29809 0.68832 0.0
C3326 C 0.42353 0.44037 0.68904 0.0
C3327 C 0.41191 0.40779 0.68937 0.0
C3328 C 0.37674 0.42052 0.69423 0.0
C3329 C 0.35165 0.30023 0.689 0.0
C3330 C 0.36407 0.33473 0.68917 0.0
C3331 C 0.39978 0.43714 0.68903 0.0
C3332 C 0.38747 0.40197 0.68911 0.0
H3333 H 0.34045 0.15654 0.6885 0.0
H3334 H 0.36087 0.21275 0.68928 0.0
H3335 H 0.35714 0.40229 0.69837 0.0
H3336 H 0.41068 0.58103 0.68763 0.0
H3337 H 0.39033 0.52386 0.68816 0.0
C3338 C 0.83813 0.71337 0.68791 0.0
C3339 C 0.826 0.7428 0.68764 0.0
C3340 C 0.84976 0.74619 0.68823 0.0
C3341 C 0.86298 0.89654 0.69348 0.0
H3342 H 0.89229 0.84335 0.67924 0.0
C3343 C 0.90955 0.03976 0.68786 0.0
C3344 C 0.92158 0.0093 0.6882 0.0
C3345 C 0.89777 0.00792 0.68805 0.0
C3346 C 0.88424 0.85846 0.68332 0.0
H3347 H 0.81659 0.82998 0.68751 0.0
H3348 H 0.83683 0.88697 0.68793 0.0
H3349 H 0.87203 0.7861 0.67913 0.0
H3350 H 0.9306 0.92145 0.68915 0.0
H3351 H 0.91013 0.86642 0.68952 0.0
H3352 H 0.87521 0.96925 0.6976 0.0
C3353 C 0.83737 0.83854 0.68804 0.0
C3354 C 0.87263 0.82558 0.68328 0.0
C3355 C 0.82576 0.80578 0.68775 0.0
C3356 C 0.92154 0.94646 0.68884 0.0
C3357 C 0.90979 0.91477 0.689 0.0
C3358 C 0.87459 0.92956 0.6935 0.0
C3359 C 0.84951 0.80917 0.68826 0.0
C3360 C 0.86187 0.84412 0.68837 0.0
C3361 C 0.89778 0.94504 0.68854 0.0
C3362 C 0.88536 0.91074 0.68845 0.0
H3363 H 0.83868 0.66493 0.68789 0.0
H3364 H 0.85894 0.72215 0.68852 0.0
H3365 H 0.85493 0.91163 0.69756 0.0
H3366 H 0.90923 0.08812 0.68737 0.0
H3367 H 0.88866 0.03246 0.68763 0.0
C3368 C 0.6741 0.05529 0.43808 0.0
C3369 C 0.67395 0.9924 0.43756 0.0
C3370 C 0.66244 0.0877 0.43826 0.0
C3371 C 0.62728 0.07404 0.44312 0.0
H3372 H 0.62441 0.2169 0.42865 0.0
C3373 C 0.57817 0.19475 0.43739 0.0
C3374 C 0.5782 0.25773 0.43729 0.0
C3375 C 0.58989 0.16281 0.43764 0.0
C3376 C 0.62511 0.17758 0.43282 0.0
H3377 H 0.66136 0.91431 0.43691 0.0
H3378 H 0.64098 0.97108 0.43719 0.0
H3379 H 0.64475 0.16006 0.42871 0.0
H3380 H 0.59062 0.33646 0.43746 0.0
H3381 H 0.61109 0.28062 0.438 0.0
H3382 H 0.60764 0.09158 0.44725 0.0
C3383 C 0.65016 0.99517 0.43752 0.0
C3384 C 0.63676 0.14496 0.43284 0.0
C3385 C 0.66184 0.96268 0.43731 0.0
C3386 C 0.59024 0.288 0.43749 0.0
C3387 C 0.60198 0.25598 0.43775 0.0
C3388 C 0.61563 0.10674 0.44312 0.0
C3389 C 0.65034 0.05806 0.43795 0.0
C3390 C 0.63796 0.09278 0.43798 0.0
C3391 C 0.60194 0.193 0.43781 0.0
C3392 C 0.6144 0.15882 0.43795 0.0
H3393 H 0.68324 0.07971 0.43831 0.0
H3394 H 0.6629 0.13606 0.43871 0.0
H3395 H 0.62797 0.0345 0.44724 0.0
H3396 H 0.56908 0.16991 0.43721 0.0
H3397 H 0.58951 0.11435 0.43754 0.0
C3398 C 0.07584 0.68305 0.43831 0.0
C3399 C 0.07618 0.746 0.43804 0.0
C3400 C 0.0874 0.64992 0.43866 0.0
C3401 C 0.12233 0.66089 0.4444 0.0
H3402 H 0.12577 0.52145 0.42927 0.0
C3403 C 0.17177 0.54421 0.43848 0.0
C3404 C 0.17198 0.48134 0.43793 0.0
C3405 C 0.15993 0.57514 0.43889 0.0
C3406 C 0.12491 0.55974 0.43364 0.0
H3407 H 0.08901 0.82342 0.43802 0.0
H3408 H 0.1092 0.76542 0.43858 0.0
H3409 H 0.10543 0.57832 0.42925 0.0
H3410 H 0.15984 0.4017 0.4375 0.0
H3411 H 0.13915 0.45582 0.43833 0.0
H3412 H 0.14181 0.64242 0.44878 0.0
C3413 C 0.09995 0.74182 0.4386 0.0
C3414 C 0.11326 0.59238 0.43361 0.0
C3415 C 0.08838 0.77503 0.43822 0.0
C3416 C 0.16004 0.45012 0.43788 0.0
C3417 C 0.14818 0.48115 0.43831 0.0
C3418 C 0.13397 0.62815 0.44445 0.0
C3419 C 0.09959 0.67889 0.43877 0.0
C3420 C 0.11187 0.64352 0.43895 0.0
C3421 C 0.14799 0.54406 0.43879 0.0
C3422 C 0.13543 0.57742 0.43902 0.0
H3423 H 0.06663 0.65915 0.43821 0.0
H3424 H 0.08679 0.60152 0.4389 0.0
H3425 H 0.12148 0.69953 0.4487 0.0
H3426 H 0.18076 0.5698 0.4385 0.0
H3427 H 0.16015 0.62361 0.43912 0.0
C3428 C 0.58899 0.45984 0.31063 0.0
C3429 C 0.5769 0.48972 0.31034 0.0
C3430 C 0.60069 0.49218 0.31042 0.0
C3431 C 0.61416 0.64207 0.31498 0.0
H3432 H 0.64329 0.58777 0.30067 0.0
C3433 C 0.66067 0.78476 0.31019 0.0
C3434 C 0.67272 0.75451 0.31045 0.0
C3435 C 0.64894 0.75273 0.30995 0.0
C3436 C 0.63529 0.6032 0.30477 0.0
H3437 H 0.56766 0.57712 0.30951 0.0
H3438 H 0.58804 0.63318 0.3091 0.0
H3439 H 0.62294 0.53079 0.30071 0.0
H3440 H 0.68184 0.66671 0.31065 0.0
H3441 H 0.66141 0.61111 0.31036 0.0
H3442 H 0.6265 0.71419 0.31909 0.0
C3443 C 0.58847 0.58484 0.30959 0.0
C3444 C 0.62364 0.57054 0.30479 0.0
C3445 C 0.57679 0.55259 0.30978 0.0
C3446 C 0.67275 0.69153 0.31043 0.0
C3447 C 0.66103 0.65957 0.3102 0.0
C3448 C 0.62581 0.67464 0.31497 0.0
C3449 C 0.60055 0.55505 0.30995 0.0
C3450 C 0.61294 0.58963 0.3099 0.0
C3451 C 0.64898 0.68975 0.30998 0.0
C3452 C 0.63652 0.65556 0.30987 0.0
H3453 H 0.58944 0.41148 0.31107 0.0
H3454 H 0.60985 0.46798 0.31079 0.0
H3455 H 0.60616 0.65745 0.31909 0.0
H3456 H 0.66028 0.83323 0.31016 0.0
H3457 H 0.63982 0.77734 0.30966 0.0
C3458 C 0.16112 0.2831 0.30919 0.0
C3459 C 0.17334 0.25423 0.30935 0.0
C3460 C 0.14957 0.24975 0.30878 0.0
C3461 C 0.13637 0.09958 0.3135 0.0
H3462 H 0.10781 0.1505 0.2984 0.0
C3463 C 0.08974 0.95685 0.30886 0.0
C3464 C 0.07778 0.98789 0.30896 0.0
C3465 C 0.10157 0.98811 0.30847 0.0
C3466 C 0.11566 0.13597 0.30271 0.0
H3467 H 0.18295 0.1675 0.30912 0.0
H3468 H 0.16283 0.10965 0.30836 0.0
H3469 H 0.12808 0.20801 0.29863 0.0
H3470 H 0.06893 0.07629 0.30866 0.0
H3471 H 0.0895 0.13046 0.30809 0.0
H3472 H 0.12392 0.02792 0.31765 0.0
C3473 C 0.16218 0.15802 0.30865 0.0
C3474 C 0.12726 0.16895 0.30284 0.0
C3475 C 0.17372 0.19129 0.30904 0.0
C3476 C 0.07794 0.05082 0.30857 0.0
C3477 C 0.08975 0.08198 0.30819 0.0
C3478 C 0.12476 0.06667 0.31338 0.0
C3479 C 0.14998 0.18683 0.30854 0.0
C3480 C 0.13772 0.15128 0.30827 0.0
C3481 C 0.10171 0.05107 0.30816 0.0
C3482 C 0.11424 0.08466 0.30802 0.0
H3483 H 0.16046 0.33148 0.30943 0.0
H3484 H 0.14031 0.27324 0.3088 0.0
H3485 H 0.14419 0.08525 0.31784 0.0
H3486 H 0.08998 0.90839 0.30912 0.0
H3487 H 0.11062 0.96295 0.30835 0.0
loop_
_geom_bond_atom_site_label_1
_geom_bond_atom_site_label_2
_geom_bond_distance
_geom_bond_site_symmetry_2
_ccdc_geom_bond_type
Co0 O3 1.970 . S
Co0 N17 1.989 . S
Co0 O25 1.967 . S
Co0 O32 1.920 . S
Co1 O4 1.966 . S
Co1 N10 2.022 1_545 S
Co1 N18 1.993 . S
Co1 O26 1.941 . S
C2 O3 1.258 . S
C2 O4 1.263 . S
O3 Co0 1.970 . S
O3 C2 1.258 . S
O4 Co1 1.966 . S
O4 C2 1.263 . S
C5 O6 1.235 . S
C5 O32 1.289 . S
O6 C5 1.235 . S
C7 C9 1.400 . S
C7 N10 1.351 . S
C7 C12 1.501 . S
C8 C9 1.387 . S
C8 N11 1.341 . S
C9 C7 1.400 . S
C9 C8 1.387 . S
N10 Co1 2.022 1_565 S
N10 C7 1.351 . S
N10 N11 1.365 . S
N11 C8 1.341 . S
N11 N10 1.365 . S
N11 H31 0.862 . S
C12 C7 1.501 . S
C12 H13 0.961 1_565 S
C12 H14 0.961 . S
C12 H15 0.960 . S
H13 C12 0.961 1_545 S
H14 C12 0.961 . S
H15 C12 0.960 . S
C16 N17 1.342 . S
C16 C20 1.401 . S
C16 C21 1.499 . S
N17 Co0 1.989 . S
N17 C16 1.342 . S
N17 N18 1.388 . S
N18 Co1 1.993 . S
N18 N17 1.388 . S
N18 C19 1.346 . S
C19 N18 1.346 . S
C19 C20 1.396 . S
C19 C29 1.510 . S
C20 C16 1.401 . S
C20 C19 1.396 . S
C21 C16 1.499 . S
C21 H22 0.959 . S
C21 H23 0.960 . S
C21 H24 0.961 . S
H22 C21 0.959 . S
H23 C21 0.960 . S
H24 C21 0.961 . S
O25 Co0 1.967 . S
O25 C33 1.258 . S
O26 Co1 1.941 . S
O26 C33 1.266 . S
H27 C29 0.962 . S
H28 C29 0.961 1_565 S
C29 C19 1.510 . S
C29 H27 0.962 . S
C29 H28 0.961 1_545 S
C29 H30 0.960 1_545 S
H30 C29 0.960 1_565 S
H31 N11 0.862 . S
O32 Co0 1.920 . S
O32 C5 1.289 . S
C33 O25 1.258 . S
C33 O26 1.266 . S
Co34 O37 1.970 . S
Co34 N51 1.989 . S
Co34 O59 1.967 . S
Co34 O66 1.920 1_545 S
Co35 O38 1.966 . S
Co35 N44 2.022 . S
Co35 N52 1.993 . S
Co35 O60 1.941 . S
C36 O37 1.258 . S
C36 O38 1.263 . S
O37 Co34 1.970 . S
O37 C36 1.258 . S
O38 Co35 1.966 . S
O38 C36 1.263 . S
C39 O40 1.235 . S
C39 O66 1.289 . S
O40 C39 1.235 . S
C41 C43 1.400 . S
C41 N44 1.351 . S
C41 C46 1.501 . S
C42 C43 1.387 . S
C42 N45 1.341 . S
C43 C41 1.400 . S
C43 C42 1.387 . S
N44 Co35 2.022 . S
N44 C41 1.351 . S
N44 N45 1.365 . S
N45 C42 1.341 . S
N45 N44 1.365 . S
N45 H65 0.862 . S
C46 C41 1.501 . S
C46 H47 0.961 . S
C46 H48 0.961 . S
C46 H49 0.960 . S
H47 C46 0.961 . S
H48 C46 0.961 . S
H49 C46 0.960 . S
C50 N51 1.342 . S
C50 C54 1.401 . S
C50 C55 1.499 . S
N51 Co34 1.989 . S
N51 C50 1.342 . S
N51 N52 1.388 . S
N52 Co35 1.993 . S
N52 N51 1.388 . S
N52 C53 1.346 . S
C53 N52 1.346 . S
C53 C54 1.396 . S
C53 C63 1.510 . S
C54 C50 1.401 . S
C54 C53 1.396 . S
C55 C50 1.499 . S
C55 H56 0.959 1_545 S
C55 H57 0.960 . S
C55 H58 0.961 . S
H56 C55 0.959 1_565 S
H57 C55 0.960 . S
H58 C55 0.961 . S
O59 Co34 1.967 . S
O59 C67 1.258 . S
O60 Co35 1.941 . S
O60 C67 1.266 . S
H61 C63 0.959 . S
H62 C63 0.961 . S
C63 C53 1.510 . S
C63 H61 0.959 . S
C63 H62 0.961 . S
C63 H64 0.960 . S
H64 C63 0.960 . S
H65 N45 0.862 . S
O66 Co34 1.920 1_565 S
O66 C39 1.289 . S
C67 O59 1.258 . S
C67 O60 1.266 . S
Co68 O71 1.970 . S
Co68 N85 1.989 . S
Co68 O93 1.967 . S
Co68 O100 1.920 1_545 S
Co69 O72 1.966 . S
Co69 N78 2.022 . S
Co69 N86 1.993 . S
Co69 O94 1.941 . S
C70 O71 1.258 . S
C70 O72 1.263 . S
O71 Co68 1.970 . S
O71 C70 1.258 . S
O72 Co69 1.966 . S
O72 C70 1.263 . S
C73 O74 1.235 . S
C73 O100 1.289 . S
O74 C73 1.235 . S
C75 C77 1.400 . S
C75 N78 1.351 . S
C75 C80 1.501 . S
C76 C77 1.387 . S
C76 N79 1.341 . S
C77 C75 1.400 . S
C77 C76 1.387 . S
N78 Co69 2.022 . S
N78 C75 1.351 . S
N78 N79 1.365 . S
N79 C76 1.341 . S
N79 N78 1.365 . S
N79 H99 0.862 . S
C80 C75 1.501 . S
C80 H81 0.961 . S
C80 H82 0.961 . S
C80 H83 0.960 . S
H81 C80 0.961 . S
H82 C80 0.961 . S
H83 C80 0.960 . S
C84 N85 1.342 . S
C84 C88 1.401 . S
C84 C89 1.499 . S
N85 Co68 1.989 . S
N85 C84 1.342 . S
N85 N86 1.388 . S
N86 Co69 1.993 . S
N86 N85 1.388 . S
N86 C87 1.346 . S
C87 N86 1.346 . S
C87 C88 1.396 . S
C87 C97 1.510 . S
C88 C84 1.401 . S
C88 C87 1.396 . S
C89 C84 1.499 . S
C89 H90 0.959 1_545 S
C89 H91 0.960 . S
C89 H92 0.961 . S
H90 C89 0.959 1_565 S
H91 C89 0.960 . S
H92 C89 0.961 . S
O93 Co68 1.967 . S
O93 C101 1.258 . S
O94 Co69 1.941 . S
O94 C101 1.266 . S
H95 C97 0.959 . S
H96 C97 0.961 . S
C97 C87 1.510 . S
C97 H95 0.959 . S
C97 H96 0.961 . S
C97 H98 0.960 . S
H98 C97 0.960 . S
H99 N79 0.862 . S
O100 Co68 1.920 1_565 S
O100 C73 1.289 . S
C101 O93 1.258 . S
C101 O94 1.266 . S
Co102 O105 1.970 . S
Co102 N119 1.989 . S
Co102 O127 1.967 . S
Co102 O134 1.920 . S
Co103 O106 1.966 . S
Co103 N112 2.022 1_545 S
Co103 N120 1.993 . S
Co103 O128 1.941 . S
C104 O105 1.258 . S
C104 O106 1.263 . S
O105 Co102 1.970 . S
O105 C104 1.258 . S
O106 Co103 1.966 . S
O106 C104 1.263 . S
C107 O108 1.235 . S
C107 O134 1.289 . S
O108 C107 1.235 . S
C109 C111 1.400 . S
C109 N112 1.351 . S
C109 C114 1.501 . S
C110 C111 1.387 . S
C110 N113 1.341 . S
C111 C109 1.400 . S
C111 C110 1.387 . S
N112 Co103 2.022 1_565 S
N112 C109 1.351 . S
N112 N113 1.365 . S
N113 C110 1.341 . S
N113 N112 1.365 . S
N113 H133 0.862 . S
C114 C109 1.501 . S
C114 H115 0.961 1_565 S
C114 H116 0.961 . S
C114 H117 0.960 . S
H115 C114 0.961 1_545 S
H116 C114 0.961 . S
H117 C114 0.960 . S
C118 N119 1.342 . S
C118 C122 1.401 . S
C118 C123 1.499 . S
N119 Co102 1.989 . S
N119 C118 1.342 . S
N119 N120 1.388 . S
N120 Co103 1.993 . S
N120 N119 1.388 . S
N120 C121 1.346 . S
C121 N120 1.346 . S
C121 C122 1.396 . S
C121 C131 1.510 . S
C122 C118 1.401 . S
C122 C121 1.396 . S
C123 C118 1.499 . S
C123 H124 0.959 . S
C123 H125 0.960 . S
C123 H126 0.961 . S
H124 C123 0.959 . S
H125 C123 0.960 . S
H126 C123 0.961 . S
O127 Co102 1.967 . S
O127 C135 1.258 . S
O128 Co103 1.941 . S
O128 C135 1.266 . S
H129 C131 0.962 . S
H130 C131 0.961 1_565 S
C131 C121 1.510 . S
C131 H129 0.962 . S
C131 H130 0.961 1_545 S
C131 H132 0.960 1_545 S
H132 C131 0.960 1_565 S
H133 N113 0.862 . S
O134 Co102 1.920 . S
O134 C107 1.289 . S
C135 O127 1.258 . S
C135 O128 1.266 . S
Co136 O139 1.970 . S
Co136 N153 1.989 . S
Co136 O161 1.967 . S
Co136 O168 1.920 . S
Co137 O140 1.966 . S
Co137 N146 2.022 1_565 S
Co137 N154 1.993 . S
Co137 O162 1.941 . S
C138 O139 1.258 . S
C138 O140 1.263 . S
O139 Co136 1.970 . S
O139 C138 1.258 . S
O140 Co137 1.966 . S
O140 C138 1.263 . S
C141 O142 1.235 . S
C141 O168 1.289 . S
O142 C141 1.235 . S
C143 C145 1.400 . S
C143 N146 1.351 . S
C143 C148 1.501 . S
C144 C145 1.387 . S
C144 N147 1.341 . S
C145 C143 1.400 . S
C145 C144 1.387 . S
N146 Co137 2.022 1_545 S
N146 C143 1.351 . S
N146 N147 1.365 . S
N147 C144 1.341 . S
N147 N146 1.365 . S
N147 H167 0.862 . S
C148 C143 1.501 . S
C148 H149 0.961 1_545 S
C148 H150 0.961 . S
C148 H151 0.960 . S
H149 C148 0.961 1_565 S
H150 C148 0.961 . S
H151 C148 0.960 . S
C152 N153 1.342 . S
C152 C156 1.401 . S
C152 C157 1.499 . S
N153 Co136 1.989 . S
N153 C152 1.342 . S
N153 N154 1.388 . S
N154 Co137 1.993 . S
N154 N153 1.388 . S
N154 C155 1.346 . S
C155 N154 1.346 . S
C155 C156 1.396 . S
C155 C165 1.510 . S
C156 C152 1.401 . S
C156 C155 1.396 . S
C157 C152 1.499 . S
C157 H158 0.959 . S
C157 H159 0.960 . S
C157 H160 0.961 . S
H158 C157 0.959 . S
H159 C157 0.960 . S
H160 C157 0.961 . S
O161 Co136 1.967 . S
O161 C169 1.258 . S
O162 Co137 1.941 . S
O162 C169 1.266 . S
H163 C165 0.962 . S
H164 C165 0.961 1_545 S
C165 C155 1.510 . S
C165 H163 0.962 . S
C165 H164 0.961 1_565 S
C165 H166 0.960 1_565 S
H166 C165 0.960 1_545 S
H167 N147 0.862 . S
O168 Co136 1.920 . S
O168 C141 1.289 . S
C169 O161 1.258 . S
C169 O162 1.266 . S
Co170 O173 1.970 . S
Co170 N187 1.989 . S
Co170 O195 1.967 . S
Co170 O202 1.920 1_565 S
Co171 O174 1.966 . S
Co171 N180 2.022 . S
Co171 N188 1.993 . S
Co171 O196 1.941 . S
C172 O173 1.258 . S
C172 O174 1.263 . S
O173 Co170 1.970 . S
O173 C172 1.258 . S
O174 Co171 1.966 . S
O174 C172 1.263 . S
C175 O176 1.235 . S
C175 O202 1.289 . S
O176 C175 1.235 . S
C177 C179 1.400 . S
C177 N180 1.351 . S
C177 C182 1.501 . S
C178 C179 1.387 . S
C178 N181 1.341 . S
C179 C177 1.400 . S
C179 C178 1.387 . S
N180 Co171 2.022 . S
N180 C177 1.351 . S
N180 N181 1.365 . S
N181 C178 1.341 . S
N181 N180 1.365 . S
N181 H201 0.862 . S
C182 C177 1.501 . S
C182 H183 0.961 . S
C182 H184 0.961 . S
C182 H185 0.960 . S
H183 C182 0.961 . S
H184 C182 0.961 . S
H185 C182 0.960 . S
C186 N187 1.342 . S
C186 C190 1.401 . S
C186 C191 1.499 . S
N187 Co170 1.989 . S
N187 C186 1.342 . S
N187 N188 1.388 . S
N188 Co171 1.993 . S
N188 N187 1.388 . S
N188 C189 1.346 . S
C189 N188 1.346 . S
C189 C190 1.396 . S
C189 C199 1.510 . S
C190 C186 1.401 . S
C190 C189 1.396 . S
C191 C186 1.499 . S
C191 H192 0.959 1_565 S
C191 H193 0.960 . S
C191 H194 0.961 . S
H192 C191 0.959 1_545 S
H193 C191 0.960 . S
H194 C191 0.961 . S
O195 Co170 1.967 . S
O195 C203 1.258 . S
O196 Co171 1.941 . S
O196 C203 1.266 . S
H197 C199 0.959 . S
H198 C199 0.961 . S
C199 C189 1.510 . S
C199 H197 0.959 . S
C199 H198 0.961 . S
C199 H200 0.960 . S
H200 C199 0.960 . S
H201 N181 0.862 . S
O202 Co170 1.920 1_545 S
O202 C175 1.289 . S
C203 O195 1.258 . S
C203 O196 1.266 . S
Co204 O207 1.970 . S
Co204 N221 1.989 . S
Co204 O229 1.967 . S
Co204 O236 1.920 1_565 S
Co205 O208 1.966 . S
Co205 N214 2.022 . S
Co205 N222 1.993 . S
Co205 O230 1.941 . S
C206 O207 1.258 . S
C206 O208 1.263 . S
O207 Co204 1.970 . S
O207 C206 1.258 . S
O208 Co205 1.966 . S
O208 C206 1.263 . S
C209 O210 1.235 . S
C209 O236 1.289 . S
O210 C209 1.235 . S
C211 C213 1.400 . S
C211 N214 1.351 . S
C211 C216 1.501 . S
C212 C213 1.387 . S
C212 N215 1.341 . S
C213 C211 1.400 . S
C213 C212 1.387 . S
N214 Co205 2.022 . S
N214 C211 1.351 . S
N214 N215 1.365 . S
N215 C212 1.341 . S
N215 N214 1.365 . S
N215 H235 0.862 . S
C216 C211 1.501 . S
C216 H217 0.961 . S
C216 H218 0.961 . S
C216 H219 0.960 . S
H217 C216 0.961 . S
H218 C216 0.961 . S
H219 C216 0.960 . S
C220 N221 1.342 . S
C220 C224 1.401 . S
C220 C225 1.499 . S
N221 Co204 1.989 . S
N221 C220 1.342 . S
N221 N222 1.388 . S
N222 Co205 1.993 . S
N222 N221 1.388 . S
N222 C223 1.346 . S
C223 N222 1.346 . S
C223 C224 1.396 . S
C223 C233 1.510 . S
C224 C220 1.401 . S
C224 C223 1.396 . S
C225 C220 1.499 . S
C225 H226 0.959 1_565 S
C225 H227 0.960 . S
C225 H228 0.961 . S
H226 C225 0.959 1_545 S
H227 C225 0.960 . S
H228 C225 0.961 . S
O229 Co204 1.967 . S
O229 C237 1.258 . S
O230 Co205 1.941 . S
O230 C237 1.266 . S
H231 C233 0.959 . S
H232 C233 0.961 . S
C233 C223 1.510 . S
C233 H231 0.959 . S
C233 H232 0.961 . S
C233 H234 0.960 . S
H234 C233 0.960 . S
H235 N215 0.862 . S
O236 Co204 1.920 1_545 S
O236 C209 1.289 . S
C237 O229 1.258 . S
C237 O230 1.266 . S
Co238 O241 1.970 . S
Co238 N255 1.989 . S
Co238 O263 1.967 . S
Co238 O270 1.920 . S
Co239 O242 1.966 . S
Co239 N248 2.022 1_565 S
Co239 N256 1.993 . S
Co239 O264 1.941 . S
C240 O241 1.258 . S
C240 O242 1.263 . S
O241 Co238 1.970 . S
O241 C240 1.258 . S
O242 Co239 1.966 . S
O242 C240 1.263 . S
C243 O244 1.235 . S
C243 O270 1.289 . S
O244 C243 1.235 . S
C245 C247 1.400 . S
C245 N248 1.351 . S
C245 C250 1.501 . S
C246 C247 1.387 . S
C246 N249 1.341 . S
C247 C245 1.400 . S
C247 C246 1.387 . S
N248 Co239 2.022 1_545 S
N248 C245 1.351 . S
N248 N249 1.365 . S
N249 C246 1.341 . S
N249 N248 1.365 . S
N249 H269 0.862 . S
C250 C245 1.501 . S
C250 H251 0.961 1_545 S
C250 H252 0.961 . S
C250 H253 0.960 . S
H251 C250 0.961 1_565 S
H252 C250 0.961 . S
H253 C250 0.960 . S
C254 N255 1.342 . S
C254 C258 1.401 . S
C254 C259 1.499 . S
N255 Co238 1.989 . S
N255 C254 1.342 . S
N255 N256 1.388 . S
N256 Co239 1.993 . S
N256 N255 1.388 . S
N256 C257 1.346 . S
C257 N256 1.346 . S
C257 C258 1.396 . S
C257 C267 1.510 . S
C258 C254 1.401 . S
C258 C257 1.396 . S
C259 C254 1.499 . S
C259 H260 0.959 . S
C259 H261 0.960 . S
C259 H262 0.961 . S
H260 C259 0.959 . S
H261 C259 0.960 . S
H262 C259 0.961 . S
O263 Co238 1.967 . S
O263 C271 1.258 . S
O264 Co239 1.941 . S
O264 C271 1.266 . S
H265 C267 0.962 . S
H266 C267 0.961 1_545 S
C267 C257 1.510 . S
C267 H265 0.962 . S
C267 H266 0.961 1_565 S
C267 H268 0.960 1_565 S
H268 C267 0.960 1_545 S
H269 N249 0.862 . S
O270 Co238 1.920 . S
O270 C243 1.289 . S
C271 O263 1.258 . S
C271 O264 1.266 . S
Co272 O275 1.970 . S
Co272 N289 1.989 . S
Co272 O297 1.967 . S
Co272 O304 1.920 . S
Co273 O276 1.966 . S
Co273 N282 2.022 . S
Co273 N290 1.993 . S
Co273 O298 1.941 . S
C274 O275 1.258 . S
C274 O276 1.263 . S
O275 Co272 1.970 . S
O275 C274 1.258 . S
O276 Co273 1.966 . S
O276 C274 1.263 . S
C277 O278 1.235 . S
C277 O304 1.289 . S
O278 C277 1.235 . S
C279 C281 1.400 . S
C279 N282 1.351 . S
C279 C284 1.501 . S
C280 C281 1.387 . S
C280 N283 1.341 . S
C281 C279 1.400 . S
C281 C280 1.387 . S
N282 Co273 2.022 . S
N282 C279 1.351 . S
N282 N283 1.365 . S
N283 C280 1.341 . S
N283 N282 1.365 . S
N283 H303 0.862 . S
C284 C279 1.501 . S
C284 H285 0.961 . S
C284 H286 0.961 . S
C284 H287 0.960 . S
H285 C284 0.961 . S
H286 C284 0.961 . S
H287 C284 0.960 . S
C288 N289 1.342 . S
C288 C292 1.401 . S
C288 C293 1.499 . S
N289 Co272 1.989 . S
N289 C288 1.342 . S
N289 N290 1.388 . S
N290 Co273 1.993 . S
N290 N289 1.388 . S
N290 C291 1.346 . S
C291 N290 1.346 . S
C291 C292 1.396 . S
C291 C301 1.510 . S
C292 C288 1.401 . S
C292 C291 1.396 . S
C293 C288 1.499 . S
C293 H294 0.959 . S
C293 H295 0.960 . S
C293 H296 0.961 . S
H294 C293 0.959 . S
H295 C293 0.960 . S
H296 C293 0.961 . S
O297 Co272 1.967 . S
O297 C305 1.258 . S
O298 Co273 1.941 . S
O298 C305 1.266 . S
H299 C301 0.959 . S
H300 C301 0.961 . S
C301 C291 1.510 . S
C301 H299 0.959 . S
C301 H300 0.961 . S
C301 H302 0.960 . S
H302 C301 0.960 . S
H303 N283 0.862 . S
O304 Co272 1.920 . S
O304 C277 1.289 . S
C305 O297 1.258 . S
C305 O298 1.266 . S
Co306 O309 1.970 . S
Co306 N323 1.989 . S
Co306 O331 1.967 . S
Co306 O338 1.920 . S
Co307 O310 1.966 . S
Co307 N316 2.022 . S
Co307 N324 1.993 . S
Co307 O332 1.941 . S
C308 O309 1.258 . S
C308 O310 1.263 . S
O309 Co306 1.970 . S
O309 C308 1.258 . S
O310 Co307 1.966 . S
O310 C308 1.263 . S
C311 O312 1.235 . S
C311 O338 1.289 . S
O312 C311 1.235 . S
C313 C315 1.400 . S
C313 N316 1.351 . S
C313 C318 1.501 . S
C314 C315 1.387 . S
C314 N317 1.341 . S
C315 C313 1.400 . S
C315 C314 1.387 . S
N316 Co307 2.022 . S
N316 C313 1.351 . S
N316 N317 1.365 . S
N317 C314 1.341 . S
N317 N316 1.365 . S
N317 H337 0.862 . S
C318 C313 1.501 . S
C318 H319 0.961 . S
C318 H320 0.961 . S
C318 H321 0.960 . S
H319 C318 0.961 . S
H320 C318 0.961 . S
H321 C318 0.960 . S
C322 N323 1.342 . S
C322 C326 1.401 . S
C322 C327 1.499 . S
N323 Co306 1.989 . S
N323 C322 1.342 . S
N323 N324 1.388 . S
N324 Co307 1.993 . S
N324 N323 1.388 . S
N324 C325 1.346 . S
C325 N324 1.346 . S
C325 C326 1.396 . S
C325 C335 1.510 . S
C326 C322 1.401 . S
C326 C325 1.396 . S
C327 C322 1.499 . S
C327 H328 0.959 . S
C327 H329 0.960 . S
C327 H330 0.961 . S
H328 C327 0.959 . S
H329 C327 0.960 . S
H330 C327 0.961 . S
O331 Co306 1.967 . S
O331 C339 1.258 . S
O332 Co307 1.941 . S
O332 C339 1.266 . S
H333 C335 0.959 . S
H334 C335 0.961 . S
C335 C325 1.510 . S
C335 H333 0.959 . S
C335 H334 0.961 . S
C335 H336 0.960 . S
H336 C335 0.960 . S
H337 N317 0.862 . S
O338 Co306 1.920 . S
O338 C311 1.289 . S
C339 O331 1.258 . S
C339 O332 1.266 . S
Co340 O343 1.970 . S
Co340 N357 1.989 . S
Co340 O365 1.967 . S
Co340 O372 1.920 . S
Co341 O344 1.966 . S
Co341 N350 2.022 . S
Co341 N358 1.993 . S
Co341 O366 1.941 . S
C342 O343 1.258 . S
C342 O344 1.263 . S
O343 Co340 1.970 . S
O343 C342 1.258 . S
O344 Co341 1.966 . S
O344 C342 1.263 . S
C345 O346 1.235 . S
C345 O372 1.289 . S
O346 C345 1.235 . S
C347 C349 1.400 . S
C347 N350 1.351 . S
C347 C352 1.501 . S
C348 C349 1.387 . S
C348 N351 1.341 . S
C349 C347 1.400 . S
C349 C348 1.387 . S
N350 Co341 2.022 . S
N350 C347 1.351 . S
N350 N351 1.365 . S
N351 C348 1.341 . S
N351 N350 1.365 . S
N351 H371 0.862 . S
C352 C347 1.501 . S
C352 H353 0.961 . S
C352 H354 0.961 . S
C352 H355 0.960 . S
H353 C352 0.961 . S
H354 C352 0.961 . S
H355 C352 0.960 . S
C356 N357 1.342 . S
C356 C360 1.401 . S
C356 C361 1.499 . S
N357 Co340 1.989 . S
N357 C356 1.342 . S
N357 N358 1.388 . S
N358 Co341 1.993 . S
N358 N357 1.388 . S
N358 C359 1.346 . S
C359 N358 1.346 . S
C359 C360 1.396 . S
C359 C369 1.510 . S
C360 C356 1.401 . S
C360 C359 1.396 . S
C361 C356 1.499 . S
C361 H362 0.959 . S
C361 H363 0.960 . S
C361 H364 0.961 . S
H362 C361 0.959 . S
H363 C361 0.960 . S
H364 C361 0.961 . S
O365 Co340 1.967 . S
O365 C373 1.258 . S
O366 Co341 1.941 . S
O366 C373 1.266 . S
H367 C369 0.959 . S
H368 C369 0.961 . S
C369 C359 1.510 . S
C369 H367 0.959 . S
C369 H368 0.961 . S
C369 H370 0.960 . S
H370 C369 0.960 . S
H371 N351 0.862 . S
O372 Co340 1.920 . S
O372 C345 1.289 . S
C373 O365 1.258 . S
C373 O366 1.266 . S
Co374 O377 1.970 . S
Co374 N391 1.989 . S
Co374 O399 1.967 . S
Co374 O406 1.920 . S
Co375 O378 1.966 . S
Co375 N384 2.022 . S
Co375 N392 1.993 . S
Co375 O400 1.941 . S
C376 O377 1.258 . S
C376 O378 1.263 . S
O377 Co374 1.970 . S
O377 C376 1.258 . S
O378 Co375 1.966 . S
O378 C376 1.263 . S
C379 O380 1.235 . S
C379 O406 1.289 . S
O380 C379 1.235 . S
C381 C383 1.400 . S
C381 N384 1.351 . S
C381 C386 1.501 . S
C382 C383 1.387 . S
C382 N385 1.341 . S
C383 C381 1.400 . S
C383 C382 1.387 . S
N384 Co375 2.022 . S
N384 C381 1.351 . S
N384 N385 1.365 . S
N385 C382 1.341 . S
N385 N384 1.365 . S
N385 H405 0.862 . S
C386 C381 1.501 . S
C386 H387 0.961 . S
C386 H388 0.961 . S
C386 H389 0.960 . S
H387 C386 0.961 . S
H388 C386 0.961 . S
H389 C386 0.960 . S
C390 N391 1.342 . S
C390 C394 1.401 . S
C390 C395 1.499 . S
N391 Co374 1.989 . S
N391 C390 1.342 . S
N391 N392 1.388 . S
N392 Co375 1.993 . S
N392 N391 1.388 . S
N392 C393 1.346 . S
C393 N392 1.346 . S
C393 C394 1.396 . S
C393 C403 1.510 . S
C394 C390 1.401 . S
C394 C393 1.396 . S
C395 C390 1.499 . S
C395 H396 0.959 . S
C395 H397 0.960 . S
C395 H398 0.961 . S
H396 C395 0.959 . S
H397 C395 0.960 . S
H398 C395 0.961 . S
O399 Co374 1.967 . S
O399 C407 1.258 . S
O400 Co375 1.941 . S
O400 C407 1.266 . S
H401 C403 0.959 . S
H402 C403 0.961 . S
C403 C393 1.510 . S
C403 H401 0.959 . S
C403 H402 0.961 . S
C403 H404 0.960 . S
H404 C403 0.960 . S
H405 N385 0.862 . S
O406 Co374 1.920 . S
O406 C379 1.289 . S
C407 O399 1.258 . S
C407 O400 1.266 . S
Co408 O411 1.970 . S
Co408 N425 1.989 . S
Co408 O433 1.967 . S
Co408 O440 1.920 . S
Co409 O412 1.966 . S
Co409 N418 2.022 . S
Co409 N426 1.993 . S
Co409 O434 1.941 . S
C410 O411 1.258 . S
C410 O412 1.263 . S
O411 Co408 1.970 . S
O411 C410 1.258 . S
O412 Co409 1.966 . S
O412 C410 1.263 . S
C413 O414 1.235 . S
C413 O440 1.289 . S
O414 C413 1.235 . S
C415 C417 1.400 . S
C415 N418 1.351 . S
C415 C420 1.501 . S
C416 C417 1.387 . S
C416 N419 1.341 . S
C417 C415 1.400 . S
C417 C416 1.387 . S
N418 Co409 2.022 . S
N418 C415 1.351 . S
N418 N419 1.365 . S
N419 C416 1.341 . S
N419 N418 1.365 . S
N419 H439 0.862 . S
C420 C415 1.501 . S
C420 H421 0.961 . S
C420 H422 0.961 . S
C420 H423 0.960 . S
H421 C420 0.961 . S
H422 C420 0.961 . S
H423 C420 0.960 . S
C424 N425 1.342 . S
C424 C428 1.401 . S
C424 C429 1.499 . S
N425 Co408 1.989 . S
N425 C424 1.342 . S
N425 N426 1.388 . S
N426 Co409 1.993 . S
N426 N425 1.388 . S
N426 C427 1.346 . S
C427 N426 1.346 . S
C427 C428 1.396 . S
C427 C437 1.510 . S
C428 C424 1.401 . S
C428 C427 1.396 . S
C429 C424 1.499 . S
C429 H430 0.959 . S
C429 H431 0.960 . S
C429 H432 0.961 . S
H430 C429 0.959 . S
H431 C429 0.960 . S
H432 C429 0.961 . S
O433 Co408 1.967 . S
O433 C441 1.258 . S
O434 Co409 1.941 . S
O434 C441 1.266 . S
H435 C437 0.959 . S
H436 C437 0.961 . S
C437 C427 1.510 . S
C437 H435 0.959 . S
C437 H436 0.961 . S
C437 H438 0.960 . S
H438 C437 0.960 . S
H439 N419 0.862 . S
O440 Co408 1.920 . S
O440 C413 1.289 . S
C441 O433 1.258 . S
C441 O434 1.266 . S
Co442 O445 1.970 . S
Co442 N459 1.989 . S
Co442 O467 1.967 . S
Co442 O474 1.920 . S
Co443 O446 1.966 . S
Co443 N452 2.022 . S
Co443 N460 1.993 . S
Co443 O468 1.941 . S
C444 O445 1.258 . S
C444 O446 1.263 . S
O445 Co442 1.970 . S
O445 C444 1.258 . S
O446 Co443 1.966 . S
O446 C444 1.263 . S
C447 O448 1.235 . S
C447 O474 1.289 . S
O448 C447 1.235 . S
C449 C451 1.400 . S
C449 N452 1.351 . S
C449 C454 1.501 . S
C450 C451 1.387 . S
C450 N453 1.341 . S
C451 C449 1.400 . S
C451 C450 1.387 . S
N452 Co443 2.022 . S
N452 C449 1.351 . S
N452 N453 1.365 . S
N453 C450 1.341 . S
N453 N452 1.365 . S
N453 H473 0.862 . S
C454 C449 1.501 . S
C454 H455 0.961 . S
C454 H456 0.961 . S
C454 H457 0.960 . S
H455 C454 0.961 . S
H456 C454 0.961 . S
H457 C454 0.960 . S
C458 N459 1.342 . S
C458 C462 1.401 . S
C458 C463 1.499 . S
N459 Co442 1.989 . S
N459 C458 1.342 . S
N459 N460 1.388 . S
N460 Co443 1.993 . S
N460 N459 1.388 . S
N460 C461 1.346 . S
C461 N460 1.346 . S
C461 C462 1.396 . S
C461 C471 1.510 . S
C462 C458 1.401 . S
C462 C461 1.396 . S
C463 C458 1.499 . S
C463 H464 0.959 . S
C463 H465 0.960 . S
C463 H466 0.961 . S
H464 C463 0.959 . S
H465 C463 0.960 . S
H466 C463 0.961 . S
O467 Co442 1.967 . S
O467 C475 1.258 . S
O468 Co443 1.941 . S
O468 C475 1.266 . S
H469 C471 0.959 . S
H470 C471 0.961 . S
C471 C461 1.510 . S
C471 H469 0.959 . S
C471 H470 0.961 . S
C471 H472 0.960 . S
H472 C471 0.960 . S
H473 N453 0.862 . S
O474 Co442 1.920 . S
O474 C447 1.289 . S
C475 O467 1.258 . S
C475 O468 1.266 . S
Co476 O479 1.970 . S
Co476 N493 1.989 . S
Co476 O501 1.967 . S
Co476 O508 1.920 . S
Co477 O480 1.966 . S
Co477 N486 2.022 . S
Co477 N494 1.993 . S
Co477 O502 1.941 . S
C478 O479 1.258 . S
C478 O480 1.263 . S
O479 Co476 1.970 . S
O479 C478 1.258 . S
O480 Co477 1.966 . S
O480 C478 1.263 . S
C481 O482 1.235 . S
C481 O508 1.289 . S
O482 C481 1.235 . S
C483 C485 1.400 . S
C483 N486 1.351 . S
C483 C488 1.501 . S
C484 C485 1.387 . S
C484 N487 1.341 . S
C485 C483 1.400 . S
C485 C484 1.387 . S
N486 Co477 2.022 . S
N486 C483 1.351 . S
N486 N487 1.365 . S
N487 C484 1.341 . S
N487 N486 1.365 . S
N487 H507 0.862 . S
C488 C483 1.501 . S
C488 H489 0.961 . S
C488 H490 0.961 . S
C488 H491 0.960 . S
H489 C488 0.961 . S
H490 C488 0.961 . S
H491 C488 0.960 . S
C492 N493 1.342 . S
C492 C496 1.401 . S
C492 C497 1.499 . S
N493 Co476 1.989 . S
N493 C492 1.342 . S
N493 N494 1.388 . S
N494 Co477 1.993 . S
N494 N493 1.388 . S
N494 C495 1.346 . S
C495 N494 1.346 . S
C495 C496 1.396 . S
C495 C505 1.510 . S
C496 C492 1.401 . S
C496 C495 1.396 . S
C497 C492 1.499 . S
C497 H498 0.959 . S
C497 H499 0.960 . S
C497 H500 0.961 . S
H498 C497 0.959 . S
H499 C497 0.960 . S
H500 C497 0.961 . S
O501 Co476 1.967 . S
O501 C509 1.258 . S
O502 Co477 1.941 . S
O502 C509 1.266 . S
H503 C505 0.959 . S
H504 C505 0.961 . S
C505 C495 1.510 . S
C505 H503 0.959 . S
C505 H504 0.961 . S
C505 H506 0.960 . S
H506 C505 0.960 . S
H507 N487 0.862 . S
O508 Co476 1.920 . S
O508 C481 1.289 . S
C509 O501 1.258 . S
C509 O502 1.266 . S
Co510 O513 1.970 . S
Co510 N527 1.989 . S
Co510 O535 1.967 . S
Co510 O542 1.920 . S
Co511 O514 1.966 . S
Co511 N520 2.022 . S
Co511 N528 1.993 . S
Co511 O536 1.941 . S
C512 O513 1.258 . S
C512 O514 1.263 . S
O513 Co510 1.970 . S
O513 C512 1.258 . S
O514 Co511 1.966 . S
O514 C512 1.263 . S
C515 O516 1.235 . S
C515 O542 1.289 . S
O516 C515 1.235 . S
C517 C519 1.400 . S
C517 N520 1.351 . S
C517 C522 1.501 . S
C518 C519 1.387 . S
C518 N521 1.341 . S
C519 C517 1.400 . S
C519 C518 1.387 . S
N520 Co511 2.022 . S
N520 C517 1.351 . S
N520 N521 1.365 . S
N521 C518 1.341 . S
N521 N520 1.365 . S
N521 H541 0.862 . S
C522 C517 1.501 . S
C522 H523 0.961 . S
C522 H524 0.961 . S
C522 H525 0.960 . S
H523 C522 0.961 . S
H524 C522 0.961 . S
H525 C522 0.960 . S
C526 N527 1.342 . S
C526 C530 1.401 . S
C526 C531 1.499 . S
N527 Co510 1.989 . S
N527 C526 1.342 . S
N527 N528 1.388 . S
N528 Co511 1.993 . S
N528 N527 1.388 . S
N528 C529 1.346 . S
C529 N528 1.346 . S
C529 C530 1.396 . S
C529 C539 1.510 . S
C530 C526 1.401 . S
C530 C529 1.396 . S
C531 C526 1.499 . S
C531 H532 0.959 . S
C531 H533 0.960 . S
C531 H534 0.961 . S
H532 C531 0.959 . S
H533 C531 0.960 . S
H534 C531 0.961 . S
O535 Co510 1.967 . S
O535 C543 1.258 . S
O536 Co511 1.941 . S
O536 C543 1.266 . S
H537 C539 0.959 . S
H538 C539 0.961 . S
C539 C529 1.510 . S
C539 H537 0.959 . S
C539 H538 0.961 . S
C539 H540 0.960 . S
H540 C539 0.960 . S
H541 N521 0.862 . S
O542 Co510 1.920 . S
O542 C515 1.289 . S
C543 O535 1.258 . S
C543 O536 1.266 . S
Co544 O547 1.970 . S
Co544 N561 1.989 . S
Co544 O569 1.967 . S
Co544 O576 1.920 . S
Co545 O548 1.966 . S
Co545 N554 2.022 1_545 S
Co545 N562 1.993 . S
Co545 O570 1.941 . S
C546 O547 1.258 . S
C546 O548 1.263 . S
O547 Co544 1.970 . S
O547 C546 1.258 . S
O548 Co545 1.966 . S
O548 C546 1.263 . S
C549 O550 1.235 . S
C549 O576 1.289 . S
O550 C549 1.235 . S
C551 C553 1.400 . S
C551 N554 1.351 . S
C551 C556 1.501 . S
C552 C553 1.387 . S
C552 N555 1.341 . S
C553 C551 1.400 . S
C553 C552 1.387 . S
N554 Co545 2.022 1_565 S
N554 C551 1.351 . S
N554 N555 1.365 . S
N555 C552 1.341 . S
N555 N554 1.365 . S
N555 H575 0.862 . S
C556 C551 1.501 . S
C556 H557 0.961 1_565 S
C556 H558 0.961 . S
C556 H559 0.960 . S
H557 C556 0.961 1_545 S
H558 C556 0.961 . S
H559 C556 0.960 . S
C560 N561 1.342 . S
C560 C564 1.401 . S
C560 C565 1.499 . S
N561 Co544 1.989 . S
N561 C560 1.342 . S
N561 N562 1.388 . S
N562 Co545 1.993 . S
N562 N561 1.388 . S
N562 C563 1.346 . S
C563 N562 1.346 . S
C563 C564 1.396 . S
C563 C573 1.510 . S
C564 C560 1.401 . S
C564 C563 1.396 . S
C565 C560 1.499 . S
C565 H566 0.959 . S
C565 H567 0.960 . S
C565 H568 0.961 . S
H566 C565 0.959 . S
H567 C565 0.960 . S
H568 C565 0.961 . S
O569 Co544 1.967 . S
O569 C577 1.258 . S
O570 Co545 1.941 . S
O570 C577 1.266 . S
H571 C573 0.962 . S
H572 C573 0.961 1_565 S
C573 C563 1.510 . S
C573 H571 0.962 . S
C573 H572 0.961 1_545 S
C573 H574 0.960 1_545 S
H574 C573 0.960 1_565 S
H575 N555 0.862 . S
O576 Co544 1.920 . S
O576 C549 1.289 . S
C577 O569 1.258 . S
C577 O570 1.266 . S
Co578 O581 1.970 . S
Co578 N595 1.989 . S
Co578 O603 1.967 . S
Co578 O610 1.920 1_545 S
Co579 O582 1.966 . S
Co579 N588 2.022 . S
Co579 N596 1.993 . S
Co579 O604 1.941 . S
C580 O581 1.258 . S
C580 O582 1.263 . S
O581 Co578 1.970 . S
O581 C580 1.258 . S
O582 Co579 1.966 . S
O582 C580 1.263 . S
C583 O584 1.235 . S
C583 O610 1.289 . S
O584 C583 1.235 . S
C585 C587 1.400 . S
C585 N588 1.351 . S
C585 C590 1.501 . S
C586 C587 1.387 . S
C586 N589 1.341 . S
C587 C585 1.400 . S
C587 C586 1.387 . S
N588 Co579 2.022 . S
N588 C585 1.351 . S
N588 N589 1.365 . S
N589 C586 1.341 . S
N589 N588 1.365 . S
N589 H609 0.862 . S
C590 C585 1.501 . S
C590 H591 0.961 . S
C590 H592 0.961 . S
C590 H593 0.960 . S
H591 C590 0.961 . S
H592 C590 0.961 . S
H593 C590 0.960 . S
C594 N595 1.342 . S
C594 C598 1.401 . S
C594 C599 1.499 . S
N595 Co578 1.989 . S
N595 C594 1.342 . S
N595 N596 1.388 . S
N596 Co579 1.993 . S
N596 N595 1.388 . S
N596 C597 1.346 . S
C597 N596 1.346 . S
C597 C598 1.396 . S
C597 C607 1.510 . S
C598 C594 1.401 . S
C598 C597 1.396 . S
C599 C594 1.499 . S
C599 H600 0.959 1_545 S
C599 H601 0.960 . S
C599 H602 0.961 . S
H600 C599 0.959 1_565 S
H601 C599 0.960 . S
H602 C599 0.961 . S
O603 Co578 1.967 . S
O603 C611 1.258 . S
O604 Co579 1.941 . S
O604 C611 1.266 . S
H605 C607 0.959 . S
H606 C607 0.961 . S
C607 C597 1.510 . S
C607 H605 0.959 . S
C607 H606 0.961 . S
C607 H608 0.960 . S
H608 C607 0.960 . S
H609 N589 0.862 . S
O610 Co578 1.920 1_565 S
O610 C583 1.289 . S
C611 O603 1.258 . S
C611 O604 1.266 . S
Co612 O615 1.970 . S
Co612 N629 1.989 . S
Co612 O637 1.967 . S
Co612 O644 1.920 1_545 S
Co613 O616 1.966 . S
Co613 N622 2.022 . S
Co613 N630 1.993 . S
Co613 O638 1.941 . S
C614 O615 1.258 . S
C614 O616 1.263 . S
O615 Co612 1.970 . S
O615 C614 1.258 . S
O616 Co613 1.966 . S
O616 C614 1.263 . S
C617 O618 1.235 . S
C617 O644 1.289 . S
O618 C617 1.235 . S
C619 C621 1.400 . S
C619 N622 1.351 . S
C619 C624 1.501 . S
C620 C621 1.387 . S
C620 N623 1.341 . S
C621 C619 1.400 . S
C621 C620 1.387 . S
N622 Co613 2.022 . S
N622 C619 1.351 . S
N622 N623 1.365 . S
N623 C620 1.341 . S
N623 N622 1.365 . S
N623 H643 0.862 . S
C624 C619 1.501 . S
C624 H625 0.961 . S
C624 H626 0.961 . S
C624 H627 0.960 . S
H625 C624 0.961 . S
H626 C624 0.961 . S
H627 C624 0.960 . S
C628 N629 1.342 . S
C628 C632 1.401 . S
C628 C633 1.499 . S
N629 Co612 1.989 . S
N629 C628 1.342 . S
N629 N630 1.388 . S
N630 Co613 1.993 . S
N630 N629 1.388 . S
N630 C631 1.346 . S
C631 N630 1.346 . S
C631 C632 1.396 . S
C631 C641 1.510 . S
C632 C628 1.401 . S
C632 C631 1.396 . S
C633 C628 1.499 . S
C633 H634 0.959 1_545 S
C633 H635 0.960 . S
C633 H636 0.961 . S
H634 C633 0.959 1_565 S
H635 C633 0.960 . S
H636 C633 0.961 . S
O637 Co612 1.967 . S
O637 C645 1.258 . S
O638 Co613 1.941 . S
O638 C645 1.266 . S
H639 C641 0.959 . S
H640 C641 0.961 . S
C641 C631 1.510 . S
C641 H639 0.959 . S
C641 H640 0.961 . S
C641 H642 0.960 . S
H642 C641 0.960 . S
H643 N623 0.862 . S
O644 Co612 1.920 1_565 S
O644 C617 1.289 . S
C645 O637 1.258 . S
C645 O638 1.266 . S
Co646 O649 1.970 . S
Co646 N663 1.989 . S
Co646 O671 1.967 . S
Co646 O678 1.920 . S
Co647 O650 1.966 . S
Co647 N656 2.022 1_545 S
Co647 N664 1.993 . S
Co647 O672 1.941 . S
C648 O649 1.258 . S
C648 O650 1.263 . S
O649 Co646 1.970 . S
O649 C648 1.258 . S
O650 Co647 1.966 . S
O650 C648 1.263 . S
C651 O652 1.235 . S
C651 O678 1.289 . S
O652 C651 1.235 . S
C653 C655 1.400 . S
C653 N656 1.351 . S
C653 C658 1.501 . S
C654 C655 1.387 . S
C654 N657 1.341 . S
C655 C653 1.400 . S
C655 C654 1.387 . S
N656 Co647 2.022 1_565 S
N656 C653 1.351 . S
N656 N657 1.365 . S
N657 C654 1.341 . S
N657 N656 1.365 . S
N657 H677 0.862 . S
C658 C653 1.501 . S
C658 H659 0.961 1_565 S
C658 H660 0.961 . S
C658 H661 0.960 . S
H659 C658 0.961 1_545 S
H660 C658 0.961 . S
H661 C658 0.960 . S
C662 N663 1.342 . S
C662 C666 1.401 . S
C662 C667 1.499 . S
N663 Co646 1.989 . S
N663 C662 1.342 . S
N663 N664 1.388 . S
N664 Co647 1.993 . S
N664 N663 1.388 . S
N664 C665 1.346 . S
C665 N664 1.346 . S
C665 C666 1.396 . S
C665 C675 1.510 . S
C666 C662 1.401 . S
C666 C665 1.396 . S
C667 C662 1.499 . S
C667 H668 0.959 . S
C667 H669 0.960 . S
C667 H670 0.961 . S
H668 C667 0.959 . S
H669 C667 0.960 . S
H670 C667 0.961 . S
O671 Co646 1.967 . S
O671 C679 1.258 . S
O672 Co647 1.941 . S
O672 C679 1.266 . S
H673 C675 0.962 . S
H674 C675 0.961 1_565 S
C675 C665 1.510 . S
C675 H673 0.962 . S
C675 H674 0.961 1_545 S
C675 H676 0.960 1_545 S
H676 C675 0.960 1_565 S
H677 N657 0.862 . S
O678 Co646 1.920 . S
O678 C651 1.289 . S
C679 O671 1.258 . S
C679 O672 1.266 . S
Co680 O683 1.970 . S
Co680 N697 1.989 . S
Co680 O705 1.967 . S
Co680 O712 1.920 . S
Co681 O684 1.966 . S
Co681 N690 2.022 1_565 S
Co681 N698 1.993 . S
Co681 O706 1.941 . S
C682 O683 1.258 . S
C682 O684 1.263 . S
O683 Co680 1.970 . S
O683 C682 1.258 . S
O684 Co681 1.966 . S
O684 C682 1.263 . S
C685 O686 1.235 . S
C685 O712 1.289 . S
O686 C685 1.235 . S
C687 C689 1.400 . S
C687 N690 1.351 . S
C687 C692 1.501 . S
C688 C689 1.387 . S
C688 N691 1.341 . S
C689 C687 1.400 . S
C689 C688 1.387 . S
N690 Co681 2.022 1_545 S
N690 C687 1.351 . S
N690 N691 1.365 . S
N691 C688 1.341 . S
N691 N690 1.365 . S
N691 H711 0.862 . S
C692 C687 1.501 . S
C692 H693 0.961 1_545 S
C692 H694 0.961 . S
C692 H695 0.960 . S
H693 C692 0.961 1_565 S
H694 C692 0.961 . S
H695 C692 0.960 . S
C696 N697 1.342 . S
C696 C700 1.401 . S
C696 C701 1.499 . S
N697 Co680 1.989 . S
N697 C696 1.342 . S
N697 N698 1.388 . S
N698 Co681 1.993 . S
N698 N697 1.388 . S
N698 C699 1.346 . S
C699 N698 1.346 . S
C699 C700 1.396 . S
C699 C709 1.510 . S
C700 C696 1.401 . S
C700 C699 1.396 . S
C701 C696 1.499 . S
C701 H702 0.959 . S
C701 H703 0.960 . S
C701 H704 0.961 . S
H702 C701 0.959 . S
H703 C701 0.960 . S
H704 C701 0.961 . S
O705 Co680 1.967 . S
O705 C713 1.258 . S
O706 Co681 1.941 . S
O706 C713 1.266 . S
H707 C709 0.962 . S
H708 C709 0.961 1_545 S
C709 C699 1.510 . S
C709 H707 0.962 . S
C709 H708 0.961 1_565 S
C709 H710 0.960 1_565 S
H710 C709 0.960 1_545 S
H711 N691 0.862 . S
O712 Co680 1.920 . S
O712 C685 1.289 . S
C713 O705 1.258 . S
C713 O706 1.266 . S
Co714 O717 1.970 . S
Co714 N731 1.989 . S
Co714 O739 1.967 . S
Co714 O746 1.920 1_565 S
Co715 O718 1.966 . S
Co715 N724 2.022 . S
Co715 N732 1.993 . S
Co715 O740 1.941 . S
C716 O717 1.258 . S
C716 O718 1.263 . S
O717 Co714 1.970 . S
O717 C716 1.258 . S
O718 Co715 1.966 . S
O718 C716 1.263 . S
C719 O720 1.235 . S
C719 O746 1.289 . S
O720 C719 1.235 . S
C721 C723 1.400 . S
C721 N724 1.351 . S
C721 C726 1.501 . S
C722 C723 1.387 . S
C722 N725 1.341 . S
C723 C721 1.400 . S
C723 C722 1.387 . S
N724 Co715 2.022 . S
N724 C721 1.351 . S
N724 N725 1.365 . S
N725 C722 1.341 . S
N725 N724 1.365 . S
N725 H745 0.862 . S
C726 C721 1.501 . S
C726 H727 0.961 . S
C726 H728 0.961 . S
C726 H729 0.960 . S
H727 C726 0.961 . S
H728 C726 0.961 . S
H729 C726 0.960 . S
C730 N731 1.342 . S
C730 C734 1.401 . S
C730 C735 1.499 . S
N731 Co714 1.989 . S
N731 C730 1.342 . S
N731 N732 1.388 . S
N732 Co715 1.993 . S
N732 N731 1.388 . S
N732 C733 1.346 . S
C733 N732 1.346 . S
C733 C734 1.396 . S
C733 C743 1.510 . S
C734 C730 1.401 . S
C734 C733 1.396 . S
C735 C730 1.499 . S
C735 H736 0.959 1_565 S
C735 H737 0.960 . S
C735 H738 0.961 . S
H736 C735 0.959 1_545 S
H737 C735 0.960 . S
H738 C735 0.961 . S
O739 Co714 1.967 . S
O739 C747 1.258 . S
O740 Co715 1.941 . S
O740 C747 1.266 . S
H741 C743 0.959 . S
H742 C743 0.961 . S
C743 C733 1.510 . S
C743 H741 0.959 . S
C743 H742 0.961 . S
C743 H744 0.960 . S
H744 C743 0.960 . S
H745 N725 0.862 . S
O746 Co714 1.920 1_545 S
O746 C719 1.289 . S
C747 O739 1.258 . S
C747 O740 1.266 . S
Co748 O751 1.970 . S
Co748 N765 1.989 . S
Co748 O773 1.967 . S
Co748 O780 1.920 1_565 S
Co749 O752 1.966 . S
Co749 N758 2.022 . S
Co749 N766 1.993 . S
Co749 O774 1.941 . S
C750 O751 1.258 . S
C750 O752 1.263 . S
O751 Co748 1.970 . S
O751 C750 1.258 . S
O752 Co749 1.966 . S
O752 C750 1.263 . S
C753 O754 1.235 . S
C753 O780 1.289 . S
O754 C753 1.235 . S
C755 C757 1.400 . S
C755 N758 1.351 . S
C755 C760 1.501 . S
C756 C757 1.387 . S
C756 N759 1.341 . S
C757 C755 1.400 . S
C757 C756 1.387 . S
N758 Co749 2.022 . S
N758 C755 1.351 . S
N758 N759 1.365 . S
N759 C756 1.341 . S
N759 N758 1.365 . S
N759 H779 0.862 . S
C760 C755 1.501 . S
C760 H761 0.961 . S
C760 H762 0.961 . S
C760 H763 0.960 . S
H761 C760 0.961 . S
H762 C760 0.961 . S
H763 C760 0.960 . S
C764 N765 1.342 . S
C764 C768 1.401 . S
C764 C769 1.499 . S
N765 Co748 1.989 . S
N765 C764 1.342 . S
N765 N766 1.388 . S
N766 Co749 1.993 . S
N766 N765 1.388 . S
N766 C767 1.346 . S
C767 N766 1.346 . S
C767 C768 1.396 . S
C767 C777 1.510 . S
C768 C764 1.401 . S
C768 C767 1.396 . S
C769 C764 1.499 . S
C769 H770 0.959 1_565 S
C769 H771 0.960 . S
C769 H772 0.961 . S
H770 C769 0.959 1_545 S
H771 C769 0.960 . S
H772 C769 0.961 . S
O773 Co748 1.967 . S
O773 C781 1.258 . S
O774 Co749 1.941 . S
O774 C781 1.266 . S
H775 C777 0.959 . S
H776 C777 0.961 . S
C777 C767 1.510 . S
C777 H775 0.959 . S
C777 H776 0.961 . S
C777 H778 0.960 . S
H778 C777 0.960 . S
H779 N759 0.862 . S
O780 Co748 1.920 1_545 S
O780 C753 1.289 . S
C781 O773 1.258 . S
C781 O774 1.266 . S
Co782 O785 1.970 . S
Co782 N799 1.989 . S
Co782 O807 1.967 . S
Co782 O814 1.920 . S
Co783 O786 1.966 . S
Co783 N792 2.022 1_565 S
Co783 N800 1.993 . S
Co783 O808 1.941 . S
C784 O785 1.258 . S
C784 O786 1.263 . S
O785 Co782 1.970 . S
O785 C784 1.258 . S
O786 Co783 1.966 . S
O786 C784 1.263 . S
C787 O788 1.235 . S
C787 O814 1.289 . S
O788 C787 1.235 . S
C789 C791 1.400 . S
C789 N792 1.351 . S
C789 C794 1.501 . S
C790 C791 1.387 . S
C790 N793 1.341 . S
C791 C789 1.400 . S
C791 C790 1.387 . S
N792 Co783 2.022 1_545 S
N792 C789 1.351 . S
N792 N793 1.365 . S
N793 C790 1.341 . S
N793 N792 1.365 . S
N793 H813 0.862 . S
C794 C789 1.501 . S
C794 H795 0.961 1_545 S
C794 H796 0.961 . S
C794 H797 0.960 . S
H795 C794 0.961 1_565 S
H796 C794 0.961 . S
H797 C794 0.960 . S
C798 N799 1.342 . S
C798 C802 1.401 . S
C798 C803 1.499 . S
N799 Co782 1.989 . S
N799 C798 1.342 . S
N799 N800 1.388 . S
N800 Co783 1.993 . S
N800 N799 1.388 . S
N800 C801 1.346 . S
C801 N800 1.346 . S
C801 C802 1.396 . S
C801 C811 1.510 . S
C802 C798 1.401 . S
C802 C801 1.396 . S
C803 C798 1.499 . S
C803 H804 0.959 . S
C803 H805 0.960 . S
C803 H806 0.961 . S
H804 C803 0.959 . S
H805 C803 0.960 . S
H806 C803 0.961 . S
O807 Co782 1.967 . S
O807 C815 1.258 . S
O808 Co783 1.941 . S
O808 C815 1.266 . S
H809 C811 0.962 . S
H810 C811 0.961 1_545 S
C811 C801 1.510 . S
C811 H809 0.962 . S
C811 H810 0.961 1_565 S
C811 H812 0.960 1_565 S
H812 C811 0.960 1_545 S
H813 N793 0.862 . S
O814 Co782 1.920 . S
O814 C787 1.289 . S
C815 O807 1.258 . S
C815 O808 1.266 . S
Co816 O819 1.970 . S
Co816 N833 1.989 . S
Co816 O841 1.967 . S
Co816 O848 1.920 . S
Co817 O820 1.966 . S
Co817 N826 2.022 . S
Co817 N834 1.993 . S
Co817 O842 1.941 . S
C818 O819 1.258 . S
C818 O820 1.263 . S
O819 Co816 1.970 . S
O819 C818 1.258 . S
O820 Co817 1.966 . S
O820 C818 1.263 . S
C821 O822 1.235 . S
C821 O848 1.289 . S
O822 C821 1.235 . S
C823 C825 1.400 . S
C823 N826 1.351 . S
C823 C828 1.501 . S
C824 C825 1.387 . S
C824 N827 1.341 . S
C825 C823 1.400 . S
C825 C824 1.387 . S
N826 Co817 2.022 . S
N826 C823 1.351 . S
N826 N827 1.365 . S
N827 C824 1.341 . S
N827 N826 1.365 . S
N827 H847 0.862 . S
C828 C823 1.501 . S
C828 H829 0.961 . S
C828 H830 0.961 . S
C828 H831 0.960 . S
H829 C828 0.961 . S
H830 C828 0.961 . S
H831 C828 0.960 . S
C832 N833 1.342 . S
C832 C836 1.401 . S
C832 C837 1.499 . S
N833 Co816 1.989 . S
N833 C832 1.342 . S
N833 N834 1.388 . S
N834 Co817 1.993 . S
N834 N833 1.388 . S
N834 C835 1.346 . S
C835 N834 1.346 . S
C835 C836 1.396 . S
C835 C845 1.510 . S
C836 C832 1.401 . S
C836 C835 1.396 . S
C837 C832 1.499 . S
C837 H838 0.959 . S
C837 H839 0.960 . S
C837 H840 0.961 . S
H838 C837 0.959 . S
H839 C837 0.960 . S
H840 C837 0.961 . S
O841 Co816 1.967 . S
O841 C849 1.258 . S
O842 Co817 1.941 . S
O842 C849 1.266 . S
H843 C845 0.959 . S
H844 C845 0.961 . S
C845 C835 1.510 . S
C845 H843 0.959 . S
C845 H844 0.961 . S
C845 H846 0.960 . S
H846 C845 0.960 . S
H847 N827 0.862 . S
O848 Co816 1.920 . S
O848 C821 1.289 . S
C849 O841 1.258 . S
C849 O842 1.266 . S
Co850 O853 1.970 . S
Co850 N867 1.989 . S
Co850 O875 1.967 . S
Co850 O882 1.920 . S
Co851 O854 1.966 . S
Co851 N860 2.022 . S
Co851 N868 1.993 . S
Co851 O876 1.941 . S
C852 O853 1.258 . S
C852 O854 1.263 . S
O853 Co850 1.970 . S
O853 C852 1.258 . S
O854 Co851 1.966 . S
O854 C852 1.263 . S
C855 O856 1.235 . S
C855 O882 1.289 . S
O856 C855 1.235 . S
C857 C859 1.400 . S
C857 N860 1.351 . S
C857 C862 1.501 . S
C858 C859 1.387 . S
C858 N861 1.341 . S
C859 C857 1.400 . S
C859 C858 1.387 . S
N860 Co851 2.022 . S
N860 C857 1.351 . S
N860 N861 1.365 . S
N861 C858 1.341 . S
N861 N860 1.365 . S
N861 H881 0.862 . S
C862 C857 1.501 . S
C862 H863 0.961 . S
C862 H864 0.961 . S
C862 H865 0.960 . S
H863 C862 0.961 . S
H864 C862 0.961 . S
H865 C862 0.960 . S
C866 N867 1.342 . S
C866 C870 1.401 . S
C866 C871 1.499 . S
N867 Co850 1.989 . S
N867 C866 1.342 . S
N867 N868 1.388 . S
N868 Co851 1.993 . S
N868 N867 1.388 . S
N868 C869 1.346 . S
C869 N868 1.346 . S
C869 C870 1.396 . S
C869 C879 1.510 . S
C870 C866 1.401 . S
C870 C869 1.396 . S
C871 C866 1.499 . S
C871 H872 0.959 . S
C871 H873 0.960 . S
C871 H874 0.961 . S
H872 C871 0.959 . S
H873 C871 0.960 . S
H874 C871 0.961 . S
O875 Co850 1.967 . S
O875 C883 1.258 . S
O876 Co851 1.941 . S
O876 C883 1.266 . S
H877 C879 0.959 . S
H878 C879 0.961 . S
C879 C869 1.510 . S
C879 H877 0.959 . S
C879 H878 0.961 . S
C879 H880 0.960 . S
H880 C879 0.960 . S
H881 N861 0.862 . S
O882 Co850 1.920 . S
O882 C855 1.289 . S
C883 O875 1.258 . S
C883 O876 1.266 . S
Co884 O887 1.970 . S
Co884 N901 1.989 . S
Co884 O909 1.967 . S
Co884 O916 1.920 . S
Co885 O888 1.966 . S
Co885 N894 2.022 . S
Co885 N902 1.993 . S
Co885 O910 1.941 . S
C886 O887 1.258 . S
C886 O888 1.263 . S
O887 Co884 1.970 . S
O887 C886 1.258 . S
O888 Co885 1.966 . S
O888 C886 1.263 . S
C889 O890 1.235 . S
C889 O916 1.289 . S
O890 C889 1.235 . S
C891 C893 1.400 . S
C891 N894 1.351 . S
C891 C896 1.501 . S
C892 C893 1.387 . S
C892 N895 1.341 . S
C893 C891 1.400 . S
C893 C892 1.387 . S
N894 Co885 2.022 . S
N894 C891 1.351 . S
N894 N895 1.365 . S
N895 C892 1.341 . S
N895 N894 1.365 . S
N895 H915 0.862 . S
C896 C891 1.501 . S
C896 H897 0.961 . S
C896 H898 0.961 . S
C896 H899 0.960 . S
H897 C896 0.961 . S
H898 C896 0.961 . S
H899 C896 0.960 . S
C900 N901 1.342 . S
C900 C904 1.401 . S
C900 C905 1.499 . S
N901 Co884 1.989 . S
N901 C900 1.342 . S
N901 N902 1.388 . S
N902 Co885 1.993 . S
N902 N901 1.388 . S
N902 C903 1.346 . S
C903 N902 1.346 . S
C903 C904 1.396 . S
C903 C913 1.510 . S
C904 C900 1.401 . S
C904 C903 1.396 . S
C905 C900 1.499 . S
C905 H906 0.959 . S
C905 H907 0.960 . S
C905 H908 0.961 . S
H906 C905 0.959 . S
H907 C905 0.960 . S
H908 C905 0.961 . S
O909 Co884 1.967 . S
O909 C917 1.258 . S
O910 Co885 1.941 . S
O910 C917 1.266 . S
H911 C913 0.959 . S
H912 C913 0.961 . S
C913 C903 1.510 . S
C913 H911 0.959 . S
C913 H912 0.961 . S
C913 H914 0.960 . S
H914 C913 0.960 . S
H915 N895 0.862 . S
O916 Co884 1.920 . S
O916 C889 1.289 . S
C917 O909 1.258 . S
C917 O910 1.266 . S
Co918 O921 1.970 . S
Co918 N935 1.989 . S
Co918 O943 1.967 . S
Co918 O950 1.920 . S
Co919 O922 1.966 . S
Co919 N928 2.022 . S
Co919 N936 1.993 . S
Co919 O944 1.941 . S
C920 O921 1.258 . S
C920 O922 1.263 . S
O921 Co918 1.970 . S
O921 C920 1.258 . S
O922 Co919 1.966 . S
O922 C920 1.263 . S
C923 O924 1.235 . S
C923 O950 1.289 . S
O924 C923 1.235 . S
C925 C927 1.400 . S
C925 N928 1.351 . S
C925 C930 1.501 . S
C926 C927 1.387 . S
C926 N929 1.341 . S
C927 C925 1.400 . S
C927 C926 1.387 . S
N928 Co919 2.022 . S
N928 C925 1.351 . S
N928 N929 1.365 . S
N929 C926 1.341 . S
N929 N928 1.365 . S
N929 H949 0.862 . S
C930 C925 1.501 . S
C930 H931 0.961 . S
C930 H932 0.961 . S
C930 H933 0.960 . S
H931 C930 0.961 . S
H932 C930 0.961 . S
H933 C930 0.960 . S
C934 N935 1.342 . S
C934 C938 1.401 . S
C934 C939 1.499 . S
N935 Co918 1.989 . S
N935 C934 1.342 . S
N935 N936 1.388 . S
N936 Co919 1.993 . S
N936 N935 1.388 . S
N936 C937 1.346 . S
C937 N936 1.346 . S
C937 C938 1.396 . S
C937 C947 1.510 . S
C938 C934 1.401 . S
C938 C937 1.396 . S
C939 C934 1.499 . S
C939 H940 0.959 . S
C939 H941 0.960 . S
C939 H942 0.961 . S
H940 C939 0.959 . S
H941 C939 0.960 . S
H942 C939 0.961 . S
O943 Co918 1.967 . S
O943 C951 1.258 . S
O944 Co919 1.941 . S
O944 C951 1.266 . S
H945 C947 0.959 . S
H946 C947 0.961 . S
C947 C937 1.510 . S
C947 H945 0.959 . S
C947 H946 0.961 . S
C947 H948 0.960 . S
H948 C947 0.960 . S
H949 N929 0.862 . S
O950 Co918 1.920 . S
O950 C923 1.289 . S
C951 O943 1.258 . S
C951 O944 1.266 . S
Co952 O955 1.970 . S
Co952 N969 1.989 . S
Co952 O977 1.967 . S
Co952 O984 1.920 . S
Co953 O956 1.966 . S
Co953 N962 2.022 . S
Co953 N970 1.993 . S
Co953 O978 1.941 . S
C954 O955 1.258 . S
C954 O956 1.263 . S
O955 Co952 1.970 . S
O955 C954 1.258 . S
O956 Co953 1.966 . S
O956 C954 1.263 . S
C957 O958 1.235 . S
C957 O984 1.289 . S
O958 C957 1.235 . S
C959 C961 1.400 . S
C959 N962 1.351 . S
C959 C964 1.501 . S
C960 C961 1.387 . S
C960 N963 1.341 . S
C961 C959 1.400 . S
C961 C960 1.387 . S
N962 Co953 2.022 . S
N962 C959 1.351 . S
N962 N963 1.365 . S
N963 C960 1.341 . S
N963 N962 1.365 . S
N963 H983 0.862 . S
C964 C959 1.501 . S
C964 H965 0.961 . S
C964 H966 0.961 . S
C964 H967 0.960 . S
H965 C964 0.961 . S
H966 C964 0.961 . S
H967 C964 0.960 . S
C968 N969 1.342 . S
C968 C972 1.401 . S
C968 C973 1.499 . S
N969 Co952 1.989 . S
N969 C968 1.342 . S
N969 N970 1.388 . S
N970 Co953 1.993 . S
N970 N969 1.388 . S
N970 C971 1.346 . S
C971 N970 1.346 . S
C971 C972 1.396 . S
C971 C981 1.510 . S
C972 C968 1.401 . S
C972 C971 1.396 . S
C973 C968 1.499 . S
C973 H974 0.959 . S
C973 H975 0.960 . S
C973 H976 0.961 . S
H974 C973 0.959 . S
H975 C973 0.960 . S
H976 C973 0.961 . S
O977 Co952 1.967 . S
O977 C985 1.258 . S
O978 Co953 1.941 . S
O978 C985 1.266 . S
H979 C981 0.959 . S
H980 C981 0.961 . S
C981 C971 1.510 . S
C981 H979 0.959 . S
C981 H980 0.961 . S
C981 H982 0.960 . S
H982 C981 0.960 . S
H983 N963 0.862 . S
O984 Co952 1.920 . S
O984 C957 1.289 . S
C985 O977 1.258 . S
C985 O978 1.266 . S
Co986 O989 1.970 . S
Co986 N1003 1.989 . S
Co986 O1011 1.967 . S
Co986 O1018 1.920 . S
Co987 O990 1.966 . S
Co987 N996 2.022 . S
Co987 N1004 1.993 . S
Co987 O1012 1.941 . S
C988 O989 1.258 . S
C988 O990 1.263 . S
O989 Co986 1.970 . S
O989 C988 1.258 . S
O990 Co987 1.966 . S
O990 C988 1.263 . S
C991 O992 1.235 . S
C991 O1018 1.289 . S
O992 C991 1.235 . S
C993 C995 1.400 . S
C993 N996 1.351 . S
C993 C998 1.501 . S
C994 C995 1.387 . S
C994 N997 1.341 . S
C995 C993 1.400 . S
C995 C994 1.387 . S
N996 Co987 2.022 . S
N996 C993 1.351 . S
N996 N997 1.365 . S
N997 C994 1.341 . S
N997 N996 1.365 . S
N997 H1017 0.862 . S
C998 C993 1.501 . S
C998 H999 0.961 . S
C998 H1000 0.961 . S
C998 H1001 0.960 . S
H999 C998 0.961 . S
H1000 C998 0.961 . S
H1001 C998 0.960 . S
C1002 N1003 1.342 . S
C1002 C1006 1.401 . S
C1002 C1007 1.499 . S
N1003 Co986 1.989 . S
N1003 C1002 1.342 . S
N1003 N1004 1.388 . S
N1004 Co987 1.993 . S
N1004 N1003 1.388 . S
N1004 C1005 1.346 . S
C1005 N1004 1.346 . S
C1005 C1006 1.396 . S
C1005 C1015 1.510 . S
C1006 C1002 1.401 . S
C1006 C1005 1.396 . S
C1007 C1002 1.499 . S
C1007 H1008 0.959 . S
C1007 H1009 0.960 . S
C1007 H1010 0.961 . S
H1008 C1007 0.959 . S
H1009 C1007 0.960 . S
H1010 C1007 0.961 . S
O1011 Co986 1.967 . S
O1011 C1019 1.258 . S
O1012 Co987 1.941 . S
O1012 C1019 1.266 . S
H1013 C1015 0.959 . S
H1014 C1015 0.961 . S
C1015 C1005 1.510 . S
C1015 H1013 0.959 . S
C1015 H1014 0.961 . S
C1015 H1016 0.960 . S
H1016 C1015 0.960 . S
H1017 N997 0.862 . S
O1018 Co986 1.920 . S
O1018 C991 1.289 . S
C1019 O1011 1.258 . S
C1019 O1012 1.266 . S
Co1020 O1023 1.970 . S
Co1020 N1037 1.989 . S
Co1020 O1045 1.967 . S
Co1020 O1052 1.920 . S
Co1021 O1024 1.966 . S
Co1021 N1030 2.022 . S
Co1021 N1038 1.993 . S
Co1021 O1046 1.941 . S
C1022 O1023 1.258 . S
C1022 O1024 1.263 . S
O1023 Co1020 1.970 . S
O1023 C1022 1.258 . S
O1024 Co1021 1.966 . S
O1024 C1022 1.263 . S
C1025 O1026 1.235 . S
C1025 O1052 1.289 . S
O1026 C1025 1.235 . S
C1027 C1029 1.400 . S
C1027 N1030 1.351 . S
C1027 C1032 1.501 . S
C1028 C1029 1.387 . S
C1028 N1031 1.341 . S
C1029 C1027 1.400 . S
C1029 C1028 1.387 . S
N1030 Co1021 2.022 . S
N1030 C1027 1.351 . S
N1030 N1031 1.365 . S
N1031 C1028 1.341 . S
N1031 N1030 1.365 . S
N1031 H1051 0.862 . S
C1032 C1027 1.501 . S
C1032 H1033 0.961 . S
C1032 H1034 0.961 . S
C1032 H1035 0.960 . S
H1033 C1032 0.961 . S
H1034 C1032 0.961 . S
H1035 C1032 0.960 . S
C1036 N1037 1.342 . S
C1036 C1040 1.401 . S
C1036 C1041 1.499 . S
N1037 Co1020 1.989 . S
N1037 C1036 1.342 . S
N1037 N1038 1.388 . S
N1038 Co1021 1.993 . S
N1038 N1037 1.388 . S
N1038 C1039 1.346 . S
C1039 N1038 1.346 . S
C1039 C1040 1.396 . S
C1039 C1049 1.510 . S
C1040 C1036 1.401 . S
C1040 C1039 1.396 . S
C1041 C1036 1.499 . S
C1041 H1042 0.959 . S
C1041 H1043 0.960 . S
C1041 H1044 0.961 . S
H1042 C1041 0.959 . S
H1043 C1041 0.960 . S
H1044 C1041 0.961 . S
O1045 Co1020 1.967 . S
O1045 C1053 1.258 . S
O1046 Co1021 1.941 . S
O1046 C1053 1.266 . S
H1047 C1049 0.959 . S
H1048 C1049 0.961 . S
C1049 C1039 1.510 . S
C1049 H1047 0.959 . S
C1049 H1048 0.961 . S
C1049 H1050 0.960 . S
H1050 C1049 0.960 . S
H1051 N1031 0.862 . S
O1052 Co1020 1.920 . S
O1052 C1025 1.289 . S
C1053 O1045 1.258 . S
C1053 O1046 1.266 . S
Co1054 O1057 1.970 . S
Co1054 N1071 1.989 . S
Co1054 O1079 1.967 . S
Co1054 O1086 1.920 . S
Co1055 O1058 1.966 . S
Co1055 N1064 2.022 . S
Co1055 N1072 1.993 . S
Co1055 O1080 1.941 . S
C1056 O1057 1.258 . S
C1056 O1058 1.263 . S
O1057 Co1054 1.970 . S
O1057 C1056 1.258 . S
O1058 Co1055 1.966 . S
O1058 C1056 1.263 . S
C1059 O1060 1.235 . S
C1059 O1086 1.289 . S
O1060 C1059 1.235 . S
C1061 C1063 1.400 . S
C1061 N1064 1.351 . S
C1061 C1066 1.501 . S
C1062 C1063 1.387 . S
C1062 N1065 1.341 . S
C1063 C1061 1.400 . S
C1063 C1062 1.387 . S
N1064 Co1055 2.022 . S
N1064 C1061 1.351 . S
N1064 N1065 1.365 . S
N1065 C1062 1.341 . S
N1065 N1064 1.365 . S
N1065 H1085 0.862 . S
C1066 C1061 1.501 . S
C1066 H1067 0.961 . S
C1066 H1068 0.961 . S
C1066 H1069 0.960 . S
H1067 C1066 0.961 . S
H1068 C1066 0.961 . S
H1069 C1066 0.960 . S
C1070 N1071 1.342 . S
C1070 C1074 1.401 . S
C1070 C1075 1.499 . S
N1071 Co1054 1.989 . S
N1071 C1070 1.342 . S
N1071 N1072 1.388 . S
N1072 Co1055 1.993 . S
N1072 N1071 1.388 . S
N1072 C1073 1.346 . S
C1073 N1072 1.346 . S
C1073 C1074 1.396 . S
C1073 C1083 1.510 . S
C1074 C1070 1.401 . S
C1074 C1073 1.396 . S
C1075 C1070 1.499 . S
C1075 H1076 0.959 . S
C1075 H1077 0.960 . S
C1075 H1078 0.961 . S
H1076 C1075 0.959 . S
H1077 C1075 0.960 . S
H1078 C1075 0.961 . S
O1079 Co1054 1.967 . S
O1079 C1087 1.258 . S
O1080 Co1055 1.941 . S
O1080 C1087 1.266 . S
H1081 C1083 0.959 . S
H1082 C1083 0.961 . S
C1083 C1073 1.510 . S
C1083 H1081 0.959 . S
C1083 H1082 0.961 . S
C1083 H1084 0.960 . S
H1084 C1083 0.960 . S
H1085 N1065 0.862 . S
O1086 Co1054 1.920 . S
O1086 C1059 1.289 . S
C1087 O1079 1.258 . S
C1087 O1080 1.266 . S
C1088 C1089 1.349 . S
C1088 C1090 1.327 . S
C1088 H1113 0.950 . S
C1089 C1088 1.349 . S
C1089 C1105 1.349 . S
C1090 C1088 1.327 . S
C1090 C1109 1.429 . S
C1090 H1114 0.950 . S
C1091 C1108 1.574 . S
C1091 C1110 1.368 . S
C1091 H1115 0.949 . S
H1092 C1096 0.949 . S
C1093 C1094 1.349 . S
C1093 C1095 1.327 . S
C1093 H1116 0.950 . S
C1094 C1093 1.349 . S
C1094 C1106 1.349 . S
C1095 C1093 1.327 . S
C1095 C1111 1.429 . S
C1095 H1117 0.950 . S
C1096 H1092 0.949 . S
C1096 C1104 1.574 . S
C1096 C1112 1.368 . S
H1097 C1105 0.950 . S
H1098 C1103 0.950 . S
H1099 C1104 0.949 . S
H1100 C1106 0.950 . S
H1101 C1107 0.950 . S
H1102 C1108 0.949 . S
C1103 H1098 0.950 . S
C1103 C1105 1.327 . S
C1103 C1109 1.429 . S
C1104 C1096 1.574 . S
C1104 H1099 0.949 . S
C1104 C1110 1.368 . S
C1105 C1089 1.349 . S
C1105 H1097 0.950 . S
C1105 C1103 1.327 . S
C1106 C1094 1.349 . S
C1106 H1100 0.950 . S
C1106 C1107 1.327 . S
C1107 H1101 0.950 . S
C1107 C1106 1.327 . S
C1107 C1111 1.429 . S
C1108 C1091 1.574 . S
C1108 H1102 0.949 . S
C1108 C1112 1.368 . S
C1109 C1090 1.429 . S
C1109 C1103 1.429 . S
C1109 C1110 1.523 . S
C1110 C1091 1.368 . S
C1110 C1104 1.368 . S
C1110 C1109 1.523 . S
C1111 C1095 1.429 . S
C1111 C1107 1.429 . S
C1111 C1112 1.523 . S
C1112 C1096 1.368 . S
C1112 C1108 1.368 . S
C1112 C1111 1.523 . S
H1113 C1088 0.950 . S
H1114 C1090 0.950 . S
H1115 C1091 0.949 . S
H1116 C1093 0.950 . S
H1117 C1095 0.950 . S
C1118 C1119 1.349 . S
C1118 C1120 1.327 . S
C1118 H1143 0.950 . S
C1119 C1118 1.349 . S
C1119 C1135 1.349 . S
C1120 C1118 1.327 . S
C1120 C1139 1.429 . S
C1120 H1144 0.950 . S
C1121 C1138 1.574 . S
C1121 C1140 1.368 . S
C1121 H1145 0.949 . S
H1122 C1126 0.949 . S
C1123 C1124 1.349 . S
C1123 C1125 1.327 . S
C1123 H1146 0.950 . S
C1124 C1123 1.349 . S
C1124 C1136 1.349 . S
C1125 C1123 1.327 . S
C1125 C1141 1.429 . S
C1125 H1147 0.950 . S
C1126 H1122 0.949 . S
C1126 C1134 1.574 . S
C1126 C1142 1.368 . S
H1127 C1135 0.950 . S
H1128 C1133 0.950 . S
H1129 C1134 0.949 . S
H1130 C1136 0.950 . S
H1131 C1137 0.950 . S
H1132 C1138 0.949 . S
C1133 H1128 0.950 . S
C1133 C1135 1.327 . S
C1133 C1139 1.429 . S
C1134 C1126 1.574 . S
C1134 H1129 0.949 . S
C1134 C1140 1.368 . S
C1135 C1119 1.349 . S
C1135 H1127 0.950 . S
C1135 C1133 1.327 . S
C1136 C1124 1.349 . S
C1136 H1130 0.950 . S
C1136 C1137 1.327 . S
C1137 H1131 0.950 . S
C1137 C1136 1.327 . S
C1137 C1141 1.429 . S
C1138 C1121 1.574 . S
C1138 H1132 0.949 . S
C1138 C1142 1.368 . S
C1139 C1120 1.429 . S
C1139 C1133 1.429 . S
C1139 C1140 1.523 . S
C1140 C1121 1.368 . S
C1140 C1134 1.368 . S
C1140 C1139 1.523 . S
C1141 C1125 1.429 . S
C1141 C1137 1.429 . S
C1141 C1142 1.523 . S
C1142 C1126 1.368 . S
C1142 C1138 1.368 . S
C1142 C1141 1.523 . S
H1143 C1118 0.950 . S
H1144 C1120 0.950 . S
H1145 C1121 0.949 . S
H1146 C1123 0.950 . S
H1147 C1125 0.950 . S
C1148 C1149 1.349 . S
C1148 C1150 1.327 . S
C1148 H1173 0.950 . S
C1149 C1148 1.349 . S
C1149 C1165 1.349 . S
C1150 C1148 1.327 . S
C1150 C1169 1.429 . S
C1150 H1174 0.950 . S
C1151 C1168 1.574 . S
C1151 C1170 1.368 . S
C1151 H1175 0.949 . S
H1152 C1156 0.949 . S
C1153 C1154 1.349 . S
C1153 C1155 1.327 . S
C1153 H1176 0.950 . S
C1154 C1153 1.349 . S
C1154 C1166 1.349 . S
C1155 C1153 1.327 . S
C1155 C1171 1.429 . S
C1155 H1177 0.950 . S
C1156 H1152 0.949 . S
C1156 C1164 1.574 . S
C1156 C1172 1.368 . S
H1157 C1165 0.950 . S
H1158 C1163 0.950 . S
H1159 C1164 0.949 . S
H1160 C1166 0.950 . S
H1161 C1167 0.950 . S
H1162 C1168 0.949 . S
C1163 H1158 0.950 . S
C1163 C1165 1.327 . S
C1163 C1169 1.429 . S
C1164 C1156 1.574 . S
C1164 H1159 0.949 . S
C1164 C1170 1.368 . S
C1165 C1149 1.349 . S
C1165 H1157 0.950 . S
C1165 C1163 1.327 . S
C1166 C1154 1.349 . S
C1166 H1160 0.950 . S
C1166 C1167 1.327 . S
C1167 H1161 0.950 . S
C1167 C1166 1.327 . S
C1167 C1171 1.429 . S
C1168 C1151 1.574 . S
C1168 H1162 0.949 . S
C1168 C1172 1.368 . S
C1169 C1150 1.429 . S
C1169 C1163 1.429 . S
C1169 C1170 1.523 . S
C1170 C1151 1.368 . S
C1170 C1164 1.368 . S
C1170 C1169 1.523 . S
C1171 C1155 1.429 . S
C1171 C1167 1.429 . S
C1171 C1172 1.523 . S
C1172 C1156 1.368 . S
C1172 C1168 1.368 . S
C1172 C1171 1.523 . S
H1173 C1148 0.950 . S
H1174 C1150 0.950 . S
H1175 C1151 0.949 . S
H1176 C1153 0.950 . S
H1177 C1155 0.950 . S
C1178 C1179 1.349 . S
C1178 C1180 1.327 . S
C1178 H1203 0.950 . S
C1179 C1178 1.349 . S
C1179 C1195 1.349 . S
C1180 C1178 1.327 . S
C1180 C1199 1.429 . S
C1180 H1204 0.950 . S
C1181 C1198 1.574 . S
C1181 C1200 1.368 . S
C1181 H1205 0.949 . S
H1182 C1186 0.949 . S
C1183 C1184 1.349 . S
C1183 C1185 1.327 . S
C1183 H1206 0.950 . S
C1184 C1183 1.349 . S
C1184 C1196 1.349 . S
C1185 C1183 1.327 . S
C1185 C1201 1.429 . S
C1185 H1207 0.950 . S
C1186 H1182 0.949 . S
C1186 C1194 1.574 . S
C1186 C1202 1.368 . S
H1187 C1195 0.950 . S
H1188 C1193 0.950 . S
H1189 C1194 0.949 . S
H1190 C1196 0.950 . S
H1191 C1197 0.950 . S
H1192 C1198 0.949 . S
C1193 H1188 0.950 . S
C1193 C1195 1.327 . S
C1193 C1199 1.429 . S
C1194 C1186 1.574 . S
C1194 H1189 0.949 . S
C1194 C1200 1.368 . S
C1195 C1179 1.349 . S
C1195 H1187 0.950 . S
C1195 C1193 1.327 . S
C1196 C1184 1.349 . S
C1196 H1190 0.950 . S
C1196 C1197 1.327 . S
C1197 H1191 0.950 . S
C1197 C1196 1.327 . S
C1197 C1201 1.429 . S
C1198 C1181 1.574 . S
C1198 H1192 0.949 . S
C1198 C1202 1.368 . S
C1199 C1180 1.429 . S
C1199 C1193 1.429 . S
C1199 C1200 1.523 . S
C1200 C1181 1.368 . S
C1200 C1194 1.368 . S
C1200 C1199 1.523 . S
C1201 C1185 1.429 . S
C1201 C1197 1.429 . S
C1201 C1202 1.523 . S
C1202 C1186 1.368 . S
C1202 C1198 1.368 . S
C1202 C1201 1.523 . S
H1203 C1178 0.950 . S
H1204 C1180 0.950 . S
H1205 C1181 0.949 . S
H1206 C1183 0.950 . S
H1207 C1185 0.950 . S
C1208 C1209 1.349 . S
C1208 C1210 1.327 . S
C1208 H1233 0.950 . S
C1209 C1208 1.349 . S
C1209 C1225 1.349 . S
C1210 C1208 1.327 . S
C1210 C1229 1.429 . S
C1210 H1234 0.950 . S
C1211 C1228 1.574 . S
C1211 C1230 1.368 . S
C1211 H1235 0.949 . S
H1212 C1216 0.949 . S
C1213 C1214 1.349 . S
C1213 C1215 1.327 . S
C1213 H1236 0.950 . S
C1214 C1213 1.349 . S
C1214 C1226 1.349 . S
C1215 C1213 1.327 . S
C1215 C1231 1.429 . S
C1215 H1237 0.950 . S
C1216 H1212 0.949 . S
C1216 C1224 1.574 . S
C1216 C1232 1.368 . S
H1217 C1225 0.950 . S
H1218 C1223 0.950 . S
H1219 C1224 0.949 . S
H1220 C1226 0.950 . S
H1221 C1227 0.950 . S
H1222 C1228 0.949 . S
C1223 H1218 0.950 . S
C1223 C1225 1.327 . S
C1223 C1229 1.429 . S
C1224 C1216 1.574 . S
C1224 H1219 0.949 . S
C1224 C1230 1.368 . S
C1225 C1209 1.349 . S
C1225 H1217 0.950 . S
C1225 C1223 1.327 . S
C1226 C1214 1.349 . S
C1226 H1220 0.950 . S
C1226 C1227 1.327 . S
C1227 H1221 0.950 . S
C1227 C1226 1.327 . S
C1227 C1231 1.429 . S
C1228 C1211 1.574 . S
C1228 H1222 0.949 . S
C1228 C1232 1.368 . S
C1229 C1210 1.429 . S
C1229 C1223 1.429 . S
C1229 C1230 1.523 . S
C1230 C1211 1.368 . S
C1230 C1224 1.368 . S
C1230 C1229 1.523 . S
C1231 C1215 1.429 . S
C1231 C1227 1.429 . S
C1231 C1232 1.523 . S
C1232 C1216 1.368 . S
C1232 C1228 1.368 . S
C1232 C1231 1.523 . S
H1233 C1208 0.950 . S
H1234 C1210 0.950 . S
H1235 C1211 0.949 . S
H1236 C1213 0.950 . S
H1237 C1215 0.950 . S
C1238 C1239 1.349 . S
C1238 C1240 1.327 . S
C1238 H1263 0.950 . S
C1239 C1238 1.349 . S
C1239 C1255 1.349 . S
C1240 C1238 1.327 . S
C1240 C1259 1.429 . S
C1240 H1264 0.950 . S
C1241 C1258 1.574 . S
C1241 C1260 1.368 . S
C1241 H1265 0.949 . S
H1242 C1246 0.949 . S
C1243 C1244 1.349 . S
C1243 C1245 1.327 . S
C1243 H1266 0.950 . S
C1244 C1243 1.349 . S
C1244 C1256 1.349 . S
C1245 C1243 1.327 . S
C1245 C1261 1.429 . S
C1245 H1267 0.950 . S
C1246 H1242 0.949 . S
C1246 C1254 1.574 . S
C1246 C1262 1.368 . S
H1247 C1255 0.950 . S
H1248 C1253 0.950 . S
H1249 C1254 0.949 . S
H1250 C1256 0.950 . S
H1251 C1257 0.950 . S
H1252 C1258 0.949 . S
C1253 H1248 0.950 . S
C1253 C1255 1.327 . S
C1253 C1259 1.429 . S
C1254 C1246 1.574 . S
C1254 H1249 0.949 . S
C1254 C1260 1.368 . S
C1255 C1239 1.349 . S
C1255 H1247 0.950 . S
C1255 C1253 1.327 . S
C1256 C1244 1.349 . S
C1256 H1250 0.950 . S
C1256 C1257 1.327 . S
C1257 H1251 0.950 . S
C1257 C1256 1.327 . S
C1257 C1261 1.429 . S
C1258 C1241 1.574 . S
C1258 H1252 0.949 . S
C1258 C1262 1.368 . S
C1259 C1240 1.429 . S
C1259 C1253 1.429 . S
C1259 C1260 1.523 . S
C1260 C1241 1.368 . S
C1260 C1254 1.368 . S
C1260 C1259 1.523 . S
C1261 C1245 1.429 . S
C1261 C1257 1.429 . S
C1261 C1262 1.523 . S
C1262 C1246 1.368 . S
C1262 C1258 1.368 . S
C1262 C1261 1.523 . S
H1263 C1238 0.950 . S
H1264 C1240 0.950 . S
H1265 C1241 0.949 . S
H1266 C1243 0.950 . S
H1267 C1245 0.950 . S
C1268 C1269 1.349 . S
C1268 C1270 1.327 . S
C1268 H1293 0.950 . S
C1269 C1268 1.349 . S
C1269 C1285 1.349 . S
C1270 C1268 1.327 . S
C1270 C1289 1.429 . S
C1270 H1294 0.950 . S
C1271 C1288 1.574 . S
C1271 C1290 1.368 . S
C1271 H1295 0.949 . S
H1272 C1276 0.949 . S
C1273 C1274 1.349 . S
C1273 C1275 1.327 . S
C1273 H1296 0.950 . S
C1274 C1273 1.349 . S
C1274 C1286 1.349 . S
C1275 C1273 1.327 . S
C1275 C1291 1.429 . S
C1275 H1297 0.950 . S
C1276 H1272 0.949 . S
C1276 C1284 1.574 . S
C1276 C1292 1.368 . S
H1277 C1285 0.950 . S
H1278 C1283 0.950 . S
H1279 C1284 0.949 . S
H1280 C1286 0.950 . S
H1281 C1287 0.950 . S
H1282 C1288 0.949 . S
C1283 H1278 0.950 . S
C1283 C1285 1.327 . S
C1283 C1289 1.429 . S
C1284 C1276 1.574 . S
C1284 H1279 0.949 . S
C1284 C1290 1.368 . S
C1285 C1269 1.349 . S
C1285 H1277 0.950 . S
C1285 C1283 1.327 . S
C1286 C1274 1.349 . S
C1286 H1280 0.950 . S
C1286 C1287 1.327 . S
C1287 H1281 0.950 . S
C1287 C1286 1.327 . S
C1287 C1291 1.429 . S
C1288 C1271 1.574 . S
C1288 H1282 0.949 . S
C1288 C1292 1.368 . S
C1289 C1270 1.429 . S
C1289 C1283 1.429 . S
C1289 C1290 1.523 . S
C1290 C1271 1.368 . S
C1290 C1284 1.368 . S
C1290 C1289 1.523 . S
C1291 C1275 1.429 . S
C1291 C1287 1.429 . S
C1291 C1292 1.523 . S
C1292 C1276 1.368 . S
C1292 C1288 1.368 . S
C1292 C1291 1.523 . S
H1293 C1268 0.950 . S
H1294 C1270 0.950 . S
H1295 C1271 0.949 . S
H1296 C1273 0.950 . S
H1297 C1275 0.950 . S
C1298 C1299 1.349 . S
C1298 C1300 1.327 . S
C1298 H1323 0.950 . S
C1299 C1298 1.349 . S
C1299 C1315 1.349 . S
C1300 C1298 1.327 . S
C1300 C1319 1.429 . S
C1300 H1324 0.950 . S
C1301 C1318 1.574 . S
C1301 C1320 1.368 . S
C1301 H1325 0.949 . S
H1302 C1306 0.949 . S
C1303 C1304 1.349 . S
C1303 C1305 1.327 . S
C1303 H1326 0.950 . S
C1304 C1303 1.349 . S
C1304 C1316 1.349 . S
C1305 C1303 1.327 . S
C1305 C1321 1.429 . S
C1305 H1327 0.950 . S
C1306 H1302 0.949 . S
C1306 C1314 1.574 . S
C1306 C1322 1.368 . S
H1307 C1315 0.950 . S
H1308 C1313 0.950 . S
H1309 C1314 0.949 . S
H1310 C1316 0.950 . S
H1311 C1317 0.950 . S
H1312 C1318 0.949 . S
C1313 H1308 0.950 . S
C1313 C1315 1.327 . S
C1313 C1319 1.429 . S
C1314 C1306 1.574 . S
C1314 H1309 0.949 . S
C1314 C1320 1.368 . S
C1315 C1299 1.349 . S
C1315 H1307 0.950 . S
C1315 C1313 1.327 . S
C1316 C1304 1.349 . S
C1316 H1310 0.950 . S
C1316 C1317 1.327 . S
C1317 H1311 0.950 . S
C1317 C1316 1.327 . S
C1317 C1321 1.429 . S
C1318 C1301 1.574 . S
C1318 H1312 0.949 . S
C1318 C1322 1.368 . S
C1319 C1300 1.429 . S
C1319 C1313 1.429 . S
C1319 C1320 1.523 . S
C1320 C1301 1.368 . S
C1320 C1314 1.368 . S
C1320 C1319 1.523 . S
C1321 C1305 1.429 . S
C1321 C1317 1.429 . S
C1321 C1322 1.523 . S
C1322 C1306 1.368 . S
C1322 C1318 1.368 . S
C1322 C1321 1.523 . S
H1323 C1298 0.950 . S
H1324 C1300 0.950 . S
H1325 C1301 0.949 . S
H1326 C1303 0.950 . S
H1327 C1305 0.950 . S
C1328 C1329 1.349 . S
C1328 C1330 1.327 . S
C1328 H1353 0.950 . S
C1329 C1328 1.349 . S
C1329 C1345 1.349 . S
C1330 C1328 1.327 . S
C1330 C1349 1.429 . S
C1330 H1354 0.950 . S
C1331 C1348 1.574 . S
C1331 C1350 1.368 . S
C1331 H1355 0.949 . S
H1332 C1336 0.949 . S
C1333 C1334 1.349 . S
C1333 C1335 1.327 . S
C1333 H1356 0.950 . S
C1334 C1333 1.349 . S
C1334 C1346 1.349 . S
C1335 C1333 1.327 . S
C1335 C1351 1.429 . S
C1335 H1357 0.950 . S
C1336 H1332 0.949 . S
C1336 C1344 1.574 . S
C1336 C1352 1.368 . S
H1337 C1345 0.950 . S
H1338 C1343 0.950 . S
H1339 C1344 0.949 . S
H1340 C1346 0.950 . S
H1341 C1347 0.950 . S
H1342 C1348 0.949 . S
C1343 H1338 0.950 . S
C1343 C1345 1.327 . S
C1343 C1349 1.429 . S
C1344 C1336 1.574 . S
C1344 H1339 0.949 . S
C1344 C1350 1.368 . S
C1345 C1329 1.349 . S
C1345 H1337 0.950 . S
C1345 C1343 1.327 . S
C1346 C1334 1.349 . S
C1346 H1340 0.950 . S
C1346 C1347 1.327 . S
C1347 H1341 0.950 . S
C1347 C1346 1.327 . S
C1347 C1351 1.429 . S
C1348 C1331 1.574 . S
C1348 H1342 0.949 . S
C1348 C1352 1.368 . S
C1349 C1330 1.429 . S
C1349 C1343 1.429 . S
C1349 C1350 1.523 . S
C1350 C1331 1.368 . S
C1350 C1344 1.368 . S
C1350 C1349 1.523 . S
C1351 C1335 1.429 . S
C1351 C1347 1.429 . S
C1351 C1352 1.523 . S
C1352 C1336 1.368 . S
C1352 C1348 1.368 . S
C1352 C1351 1.523 . S
H1353 C1328 0.950 . S
H1354 C1330 0.950 . S
H1355 C1331 0.949 . S
H1356 C1333 0.950 . S
H1357 C1335 0.950 . S
C1358 C1359 1.349 . S
C1358 C1360 1.327 . S
C1358 H1383 0.950 . S
C1359 C1358 1.349 . S
C1359 C1375 1.349 . S
C1360 C1358 1.327 . S
C1360 C1379 1.429 . S
C1360 H1384 0.950 . S
C1361 C1378 1.574 . S
C1361 C1380 1.368 . S
C1361 H1385 0.949 . S
H1362 C1366 0.949 . S
C1363 C1364 1.349 . S
C1363 C1365 1.327 . S
C1363 H1386 0.950 . S
C1364 C1363 1.349 . S
C1364 C1376 1.349 . S
C1365 C1363 1.327 . S
C1365 C1381 1.429 . S
C1365 H1387 0.950 . S
C1366 H1362 0.949 . S
C1366 C1374 1.574 . S
C1366 C1382 1.368 . S
H1367 C1375 0.950 . S
H1368 C1373 0.950 . S
H1369 C1374 0.949 . S
H1370 C1376 0.950 . S
H1371 C1377 0.950 . S
H1372 C1378 0.949 . S
C1373 H1368 0.950 . S
C1373 C1375 1.327 . S
C1373 C1379 1.429 . S
C1374 C1366 1.574 . S
C1374 H1369 0.949 . S
C1374 C1380 1.368 . S
C1375 C1359 1.349 . S
C1375 H1367 0.950 . S
C1375 C1373 1.327 . S
C1376 C1364 1.349 . S
C1376 H1370 0.950 . S
C1376 C1377 1.327 . S
C1377 H1371 0.950 . S
C1377 C1376 1.327 . S
C1377 C1381 1.429 . S
C1378 C1361 1.574 . S
C1378 H1372 0.949 . S
C1378 C1382 1.368 . S
C1379 C1360 1.429 . S
C1379 C1373 1.429 . S
C1379 C1380 1.523 . S
C1380 C1361 1.368 . S
C1380 C1374 1.368 . S
C1380 C1379 1.523 . S
C1381 C1365 1.429 . S
C1381 C1377 1.429 . S
C1381 C1382 1.523 . S
C1382 C1366 1.368 . S
C1382 C1378 1.368 . S
C1382 C1381 1.523 . S
H1383 C1358 0.950 . S
H1384 C1360 0.950 . S
H1385 C1361 0.949 . S
H1386 C1363 0.950 . S
H1387 C1365 0.950 . S
C1388 C1389 1.349 . S
C1388 C1390 1.327 . S
C1388 H1413 0.950 . S
C1389 C1388 1.349 . S
C1389 C1405 1.349 . S
C1390 C1388 1.327 . S
C1390 C1409 1.429 . S
C1390 H1414 0.950 . S
C1391 C1408 1.574 . S
C1391 C1410 1.368 . S
C1391 H1415 0.949 . S
H1392 C1396 0.949 . S
C1393 C1394 1.349 . S
C1393 C1395 1.327 . S
C1393 H1416 0.950 . S
C1394 C1393 1.349 . S
C1394 C1406 1.349 . S
C1395 C1393 1.327 . S
C1395 C1411 1.429 . S
C1395 H1417 0.950 . S
C1396 H1392 0.949 . S
C1396 C1404 1.574 . S
C1396 C1412 1.368 . S
H1397 C1405 0.950 . S
H1398 C1403 0.950 . S
H1399 C1404 0.949 . S
H1400 C1406 0.950 . S
H1401 C1407 0.950 . S
H1402 C1408 0.949 . S
C1403 H1398 0.950 . S
C1403 C1405 1.327 . S
C1403 C1409 1.429 . S
C1404 C1396 1.574 . S
C1404 H1399 0.949 . S
C1404 C1410 1.368 . S
C1405 C1389 1.349 . S
C1405 H1397 0.950 . S
C1405 C1403 1.327 . S
C1406 C1394 1.349 . S
C1406 H1400 0.950 . S
C1406 C1407 1.327 . S
C1407 H1401 0.950 . S
C1407 C1406 1.327 . S
C1407 C1411 1.429 . S
C1408 C1391 1.574 . S
C1408 H1402 0.949 . S
C1408 C1412 1.368 . S
C1409 C1390 1.429 . S
C1409 C1403 1.429 . S
C1409 C1410 1.523 . S
C1410 C1391 1.368 . S
C1410 C1404 1.368 . S
C1410 C1409 1.523 . S
C1411 C1395 1.429 . S
C1411 C1407 1.429 . S
C1411 C1412 1.523 . S
C1412 C1396 1.368 . S
C1412 C1408 1.368 . S
C1412 C1411 1.523 . S
H1413 C1388 0.950 . S
H1414 C1390 0.950 . S
H1415 C1391 0.949 . S
H1416 C1393 0.950 . S
H1417 C1395 0.950 . S
C1418 C1419 1.349 . S
C1418 C1420 1.327 . S
C1418 H1443 0.950 . S
C1419 C1418 1.349 . S
C1419 C1435 1.349 . S
C1420 C1418 1.327 . S
C1420 C1439 1.429 . S
C1420 H1444 0.950 . S
C1421 C1438 1.574 . S
C1421 C1440 1.368 . S
C1421 H1445 0.949 . S
H1422 C1426 0.949 . S
C1423 C1424 1.349 . S
C1423 C1425 1.327 . S
C1423 H1446 0.950 . S
C1424 C1423 1.349 . S
C1424 C1436 1.349 . S
C1425 C1423 1.327 . S
C1425 C1441 1.429 . S
C1425 H1447 0.950 . S
C1426 H1422 0.949 . S
C1426 C1434 1.574 . S
C1426 C1442 1.368 . S
H1427 C1435 0.950 . S
H1428 C1433 0.950 . S
H1429 C1434 0.949 . S
H1430 C1436 0.950 . S
H1431 C1437 0.950 . S
H1432 C1438 0.949 . S
C1433 H1428 0.950 . S
C1433 C1435 1.327 . S
C1433 C1439 1.429 . S
C1434 C1426 1.574 . S
C1434 H1429 0.949 . S
C1434 C1440 1.368 . S
C1435 C1419 1.349 . S
C1435 H1427 0.950 . S
C1435 C1433 1.327 . S
C1436 C1424 1.349 . S
C1436 H1430 0.950 . S
C1436 C1437 1.327 . S
C1437 H1431 0.950 . S
C1437 C1436 1.327 . S
C1437 C1441 1.429 . S
C1438 C1421 1.574 . S
C1438 H1432 0.949 . S
C1438 C1442 1.368 . S
C1439 C1420 1.429 . S
C1439 C1433 1.429 . S
C1439 C1440 1.523 . S
C1440 C1421 1.368 . S
C1440 C1434 1.368 . S
C1440 C1439 1.523 . S
C1441 C1425 1.429 . S
C1441 C1437 1.429 . S
C1441 C1442 1.523 . S
C1442 C1426 1.368 . S
C1442 C1438 1.368 . S
C1442 C1441 1.523 . S
H1443 C1418 0.950 . S
H1444 C1420 0.950 . S
H1445 C1421 0.949 . S
H1446 C1423 0.950 . S
H1447 C1425 0.950 . S
C1448 C1449 1.349 . S
C1448 C1450 1.327 . S
C1448 H1473 0.950 . S
C1449 C1448 1.349 . S
C1449 C1465 1.349 . S
C1450 C1448 1.327 . S
C1450 C1469 1.429 . S
C1450 H1474 0.950 . S
C1451 C1468 1.574 . S
C1451 C1470 1.368 . S
C1451 H1475 0.949 . S
H1452 C1456 0.949 . S
C1453 C1454 1.349 . S
C1453 C1455 1.327 . S
C1453 H1476 0.950 . S
C1454 C1453 1.349 . S
C1454 C1466 1.349 . S
C1455 C1453 1.327 . S
C1455 C1471 1.429 . S
C1455 H1477 0.950 . S
C1456 H1452 0.949 . S
C1456 C1464 1.574 . S
C1456 C1472 1.368 . S
H1457 C1465 0.950 . S
H1458 C1463 0.950 . S
H1459 C1464 0.949 . S
H1460 C1466 0.950 . S
H1461 C1467 0.950 . S
H1462 C1468 0.949 . S
C1463 H1458 0.950 . S
C1463 C1465 1.327 . S
C1463 C1469 1.429 . S
C1464 C1456 1.574 . S
C1464 H1459 0.949 . S
C1464 C1470 1.368 . S
C1465 C1449 1.349 . S
C1465 H1457 0.950 . S
C1465 C1463 1.327 . S
C1466 C1454 1.349 . S
C1466 H1460 0.950 . S
C1466 C1467 1.327 . S
C1467 H1461 0.950 . S
C1467 C1466 1.327 . S
C1467 C1471 1.429 . S
C1468 C1451 1.574 . S
C1468 H1462 0.949 . S
C1468 C1472 1.368 . S
C1469 C1450 1.429 . S
C1469 C1463 1.429 . S
C1469 C1470 1.523 . S
C1470 C1451 1.368 . S
C1470 C1464 1.368 . S
C1470 C1469 1.523 . S
C1471 C1455 1.429 . S
C1471 C1467 1.429 . S
C1471 C1472 1.523 . S
C1472 C1456 1.368 . S
C1472 C1468 1.368 . S
C1472 C1471 1.523 . S
H1473 C1448 0.950 . S
H1474 C1450 0.950 . S
H1475 C1451 0.949 . S
H1476 C1453 0.950 . S
H1477 C1455 0.950 . S
C1478 C1479 1.349 . S
C1478 C1480 1.327 . S
C1478 H1503 0.950 . S
C1479 C1478 1.349 . S
C1479 C1495 1.349 . S
C1480 C1478 1.327 . S
C1480 C1499 1.429 . S
C1480 H1504 0.950 . S
C1481 C1498 1.574 . S
C1481 C1500 1.368 . S
C1481 H1505 0.949 . S
H1482 C1486 0.949 . S
C1483 C1484 1.349 . S
C1483 C1485 1.327 . S
C1483 H1506 0.950 . S
C1484 C1483 1.349 . S
C1484 C1496 1.349 . S
C1485 C1483 1.327 . S
C1485 C1501 1.429 . S
C1485 H1507 0.950 . S
C1486 H1482 0.949 . S
C1486 C1494 1.574 . S
C1486 C1502 1.368 . S
H1487 C1495 0.950 . S
H1488 C1493 0.950 . S
H1489 C1494 0.949 . S
H1490 C1496 0.950 . S
H1491 C1497 0.950 . S
H1492 C1498 0.949 . S
C1493 H1488 0.950 . S
C1493 C1495 1.327 . S
C1493 C1499 1.429 . S
C1494 C1486 1.574 . S
C1494 H1489 0.949 . S
C1494 C1500 1.368 . S
C1495 C1479 1.349 . S
C1495 H1487 0.950 . S
C1495 C1493 1.327 . S
C1496 C1484 1.349 . S
C1496 H1490 0.950 . S
C1496 C1497 1.327 . S
C1497 H1491 0.950 . S
C1497 C1496 1.327 . S
C1497 C1501 1.429 . S
C1498 C1481 1.574 . S
C1498 H1492 0.949 . S
C1498 C1502 1.368 . S
C1499 C1480 1.429 . S
C1499 C1493 1.429 . S
C1499 C1500 1.523 . S
C1500 C1481 1.368 . S
C1500 C1494 1.368 . S
C1500 C1499 1.523 . S
C1501 C1485 1.429 . S
C1501 C1497 1.429 . S
C1501 C1502 1.523 . S
C1502 C1486 1.368 . S
C1502 C1498 1.368 . S
C1502 C1501 1.523 . S
H1503 C1478 0.950 . S
H1504 C1480 0.950 . S
H1505 C1481 0.949 . S
H1506 C1483 0.950 . S
H1507 C1485 0.950 . S
C1508 C1509 1.349 . S
C1508 C1510 1.327 . S
C1508 H1533 0.950 . S
C1509 C1508 1.349 . S
C1509 C1525 1.349 . S
C1510 C1508 1.327 . S
C1510 C1529 1.429 . S
C1510 H1534 0.950 . S
C1511 C1528 1.574 . S
C1511 C1530 1.368 . S
C1511 H1535 0.949 . S
H1512 C1516 0.949 . S
C1513 C1514 1.349 . S
C1513 C1515 1.327 . S
C1513 H1536 0.950 . S
C1514 C1513 1.349 . S
C1514 C1526 1.349 . S
C1515 C1513 1.327 . S
C1515 C1531 1.429 . S
C1515 H1537 0.950 . S
C1516 H1512 0.949 . S
C1516 C1524 1.574 . S
C1516 C1532 1.368 . S
H1517 C1525 0.950 . S
H1518 C1523 0.950 . S
H1519 C1524 0.949 . S
H1520 C1526 0.950 . S
H1521 C1527 0.950 . S
H1522 C1528 0.949 . S
C1523 H1518 0.950 . S
C1523 C1525 1.327 . S
C1523 C1529 1.429 . S
C1524 C1516 1.574 . S
C1524 H1519 0.949 . S
C1524 C1530 1.368 . S
C1525 C1509 1.349 . S
C1525 H1517 0.950 . S
C1525 C1523 1.327 . S
C1526 C1514 1.349 . S
C1526 H1520 0.950 . S
C1526 C1527 1.327 . S
C1527 H1521 0.950 . S
C1527 C1526 1.327 . S
C1527 C1531 1.429 . S
C1528 C1511 1.574 . S
C1528 H1522 0.949 . S
C1528 C1532 1.368 . S
C1529 C1510 1.429 . S
C1529 C1523 1.429 . S
C1529 C1530 1.523 . S
C1530 C1511 1.368 . S
C1530 C1524 1.368 . S
C1530 C1529 1.523 . S
C1531 C1515 1.429 . S
C1531 C1527 1.429 . S
C1531 C1532 1.523 . S
C1532 C1516 1.368 . S
C1532 C1528 1.368 . S
C1532 C1531 1.523 . S
H1533 C1508 0.950 . S
H1534 C1510 0.950 . S
H1535 C1511 0.949 . S
H1536 C1513 0.950 . S
H1537 C1515 0.950 . S
C1538 C1539 1.349 . S
C1538 C1540 1.327 . S
C1538 H1563 0.950 . S
C1539 C1538 1.349 . S
C1539 C1555 1.349 . S
C1540 C1538 1.327 . S
C1540 C1559 1.429 . S
C1540 H1564 0.950 . S
C1541 C1558 1.574 . S
C1541 C1560 1.368 . S
C1541 H1565 0.949 . S
H1542 C1546 0.949 . S
C1543 C1544 1.349 . S
C1543 C1545 1.327 . S
C1543 H1566 0.950 . S
C1544 C1543 1.349 . S
C1544 C1556 1.349 . S
C1545 C1543 1.327 . S
C1545 C1561 1.429 . S
C1545 H1567 0.950 . S
C1546 H1542 0.949 . S
C1546 C1554 1.574 . S
C1546 C1562 1.368 . S
H1547 C1555 0.950 . S
H1548 C1553 0.950 . S
H1549 C1554 0.949 . S
H1550 C1556 0.950 . S
H1551 C1557 0.950 . S
H1552 C1558 0.949 . S
C1553 H1548 0.950 . S
C1553 C1555 1.327 . S
C1553 C1559 1.429 . S
C1554 C1546 1.574 . S
C1554 H1549 0.949 . S
C1554 C1560 1.368 . S
C1555 C1539 1.349 . S
C1555 H1547 0.950 . S
C1555 C1553 1.327 . S
C1556 C1544 1.349 . S
C1556 H1550 0.950 . S
C1556 C1557 1.327 . S
C1557 H1551 0.950 . S
C1557 C1556 1.327 . S
C1557 C1561 1.429 . S
C1558 C1541 1.574 . S
C1558 H1552 0.949 . S
C1558 C1562 1.368 . S
C1559 C1540 1.429 . S
C1559 C1553 1.429 . S
C1559 C1560 1.523 . S
C1560 C1541 1.368 . S
C1560 C1554 1.368 . S
C1560 C1559 1.523 . S
C1561 C1545 1.429 . S
C1561 C1557 1.429 . S
C1561 C1562 1.523 . S
C1562 C1546 1.368 . S
C1562 C1558 1.368 . S
C1562 C1561 1.523 . S
H1563 C1538 0.950 . S
H1564 C1540 0.950 . S
H1565 C1541 0.949 . S
H1566 C1543 0.950 . S
H1567 C1545 0.950 . S
C1568 C1569 1.349 . S
C1568 C1570 1.327 . S
C1568 H1593 0.950 . S
C1569 C1568 1.349 . S
C1569 C1585 1.349 . S
C1570 C1568 1.327 . S
C1570 C1589 1.429 . S
C1570 H1594 0.950 . S
C1571 C1588 1.574 1_556 S
C1571 C1590 1.368 . S
C1571 H1595 0.949 . S
H1572 C1576 0.949 . S
C1573 C1574 1.349 . S
C1573 C1575 1.327 . S
C1573 H1596 0.950 . S
C1574 C1573 1.349 . S
C1574 C1586 1.349 . S
C1575 C1573 1.327 . S
C1575 C1591 1.429 . S
C1575 H1597 0.950 . S
C1576 H1572 0.949 . S
C1576 C1584 1.574 1_554 S
C1576 C1592 1.368 . S
H1577 C1585 0.950 . S
H1578 C1583 0.950 . S
H1579 C1584 0.949 . S
H1580 C1586 0.950 . S
H1581 C1587 0.950 . S
H1582 C1588 0.949 . S
C1583 H1578 0.950 . S
C1583 C1585 1.327 . S
C1583 C1589 1.429 . S
C1584 C1576 1.574 1_556 S
C1584 H1579 0.949 . S
C1584 C1590 1.368 1_545 S
C1585 C1569 1.349 . S
C1585 H1577 0.950 . S
C1585 C1583 1.327 . S
C1586 C1574 1.349 . S
C1586 H1580 0.950 . S
C1586 C1587 1.327 . S
C1587 H1581 0.950 . S
C1587 C1586 1.327 . S
C1587 C1591 1.429 . S
C1588 C1571 1.574 1_554 S
C1588 H1582 0.949 . S
C1588 C1592 1.368 1_565 S
C1589 C1570 1.429 . S
C1589 C1583 1.429 . S
C1589 C1590 1.523 . S
C1590 C1571 1.368 . S
C1590 C1584 1.368 1_565 S
C1590 C1589 1.523 . S
C1591 C1575 1.429 . S
C1591 C1587 1.429 . S
C1591 C1592 1.523 . S
C1592 C1576 1.368 . S
C1592 C1588 1.368 1_545 S
C1592 C1591 1.523 . S
H1593 C1568 0.950 . S
H1594 C1570 0.950 . S
H1595 C1571 0.949 . S
H1596 C1573 0.950 . S
H1597 C1575 0.950 . S
C1598 C1599 1.349 . S
C1598 C1600 1.327 . S
C1598 H1623 0.950 . S
C1599 C1598 1.349 . S
C1599 C1615 1.349 . S
C1600 C1598 1.327 . S
C1600 C1619 1.429 . S
C1600 H1624 0.950 . S
C1601 C1618 1.574 1_554 S
C1601 C1620 1.368 . S
C1601 H1625 0.949 . S
H1602 C1606 0.949 . S
C1603 C1604 1.349 . S
C1603 C1605 1.327 . S
C1603 H1626 0.950 . S
C1604 C1603 1.349 . S
C1604 C1616 1.349 . S
C1605 C1603 1.327 . S
C1605 C1621 1.429 . S
C1605 H1627 0.950 . S
C1606 H1602 0.949 . S
C1606 C1614 1.574 1_556 S
C1606 C1622 1.368 . S
H1607 C1615 0.950 . S
H1608 C1613 0.950 . S
H1609 C1614 0.949 . S
H1610 C1616 0.950 . S
H1611 C1617 0.950 . S
H1612 C1618 0.949 . S
C1613 H1608 0.950 . S
C1613 C1615 1.327 . S
C1613 C1619 1.429 . S
C1614 C1606 1.574 1_554 S
C1614 H1609 0.949 . S
C1614 C1620 1.368 . S
C1615 C1599 1.349 . S
C1615 H1607 0.950 . S
C1615 C1613 1.327 . S
C1616 C1604 1.349 . S
C1616 H1610 0.950 . S
C1616 C1617 1.327 . S
C1617 H1611 0.950 . S
C1617 C1616 1.327 . S
C1617 C1621 1.429 . S
C1618 C1601 1.574 1_556 S
C1618 H1612 0.949 . S
C1618 C1622 1.368 . S
C1619 C1600 1.429 . S
C1619 C1613 1.429 . S
C1619 C1620 1.523 . S
C1620 C1601 1.368 . S
C1620 C1614 1.368 . S
C1620 C1619 1.523 . S
C1621 C1605 1.429 . S
C1621 C1617 1.429 . S
C1621 C1622 1.523 . S
C1622 C1606 1.368 . S
C1622 C1618 1.368 . S
C1622 C1621 1.523 . S
H1623 C1598 0.950 . S
H1624 C1600 0.950 . S
H1625 C1601 0.949 . S
H1626 C1603 0.950 . S
H1627 C1605 0.950 . S
C1628 C1629 1.349 . S
C1628 C1630 1.327 . S
C1628 H1653 0.950 . S
C1629 C1628 1.349 . S
C1629 C1645 1.349 . S
C1630 C1628 1.327 . S
C1630 C1649 1.429 . S
C1630 H1654 0.950 . S
C1631 C1648 1.574 . S
C1631 C1650 1.368 . S
C1631 H1655 0.949 . S
H1632 C1636 0.949 . S
C1633 C1634 1.349 . S
C1633 C1635 1.327 . S
C1633 H1656 0.950 . S
C1634 C1633 1.349 . S
C1634 C1646 1.349 . S
C1635 C1633 1.327 . S
C1635 C1651 1.429 . S
C1635 H1657 0.950 . S
C1636 H1632 0.949 . S
C1636 C1644 1.574 . S
C1636 C1652 1.368 . S
H1637 C1645 0.950 . S
H1638 C1643 0.950 . S
H1639 C1644 0.949 . S
H1640 C1646 0.950 . S
H1641 C1647 0.950 . S
H1642 C1648 0.949 . S
C1643 H1638 0.950 . S
C1643 C1645 1.327 . S
C1643 C1649 1.429 . S
C1644 C1636 1.574 . S
C1644 H1639 0.949 . S
C1644 C1650 1.368 . S
C1645 C1629 1.349 . S
C1645 H1637 0.950 . S
C1645 C1643 1.327 . S
C1646 C1634 1.349 . S
C1646 H1640 0.950 . S
C1646 C1647 1.327 . S
C1647 H1641 0.950 . S
C1647 C1646 1.327 . S
C1647 C1651 1.429 . S
C1648 C1631 1.574 . S
C1648 H1642 0.949 . S
C1648 C1652 1.368 . S
C1649 C1630 1.429 . S
C1649 C1643 1.429 . S
C1649 C1650 1.523 . S
C1650 C1631 1.368 . S
C1650 C1644 1.368 . S
C1650 C1649 1.523 . S
C1651 C1635 1.429 . S
C1651 C1647 1.429 . S
C1651 C1652 1.523 . S
C1652 C1636 1.368 . S
C1652 C1648 1.368 . S
C1652 C1651 1.523 . S
H1653 C1628 0.950 . S
H1654 C1630 0.950 . S
H1655 C1631 0.949 . S
H1656 C1633 0.950 . S
H1657 C1635 0.950 . S
C1658 C1659 1.349 . S
C1658 C1660 1.327 . S
C1658 H1683 0.950 . S
C1659 C1658 1.349 . S
C1659 C1675 1.349 . S
C1660 C1658 1.327 . S
C1660 C1679 1.429 . S
C1660 H1684 0.950 1_545 S
C1661 C1678 1.574 . S
C1661 C1680 1.368 . S
C1661 H1685 0.949 . S
H1662 C1666 0.949 . S
C1663 C1664 1.349 . S
C1663 C1665 1.327 . S
C1663 H1686 0.950 . S
C1664 C1663 1.349 . S
C1664 C1676 1.349 . S
C1665 C1663 1.327 . S
C1665 C1681 1.429 . S
C1665 H1687 0.950 1_565 S
C1666 H1662 0.949 . S
C1666 C1674 1.574 . S
C1666 C1682 1.368 . S
H1667 C1675 0.950 . S
H1668 C1673 0.950 . S
H1669 C1674 0.949 . S
H1670 C1676 0.950 . S
H1671 C1677 0.950 . S
H1672 C1678 0.949 . S
C1673 H1668 0.950 . S
C1673 C1675 1.327 . S
C1673 C1679 1.429 . S
C1674 C1666 1.574 . S
C1674 H1669 0.949 . S
C1674 C1680 1.368 1_565 S
C1675 C1659 1.349 . S
C1675 H1667 0.950 . S
C1675 C1673 1.327 . S
C1676 C1664 1.349 . S
C1676 H1670 0.950 . S
C1676 C1677 1.327 . S
C1677 H1671 0.950 . S
C1677 C1676 1.327 . S
C1677 C1681 1.429 . S
C1678 C1661 1.574 . S
C1678 H1672 0.949 . S
C1678 C1682 1.368 1_545 S
C1679 C1660 1.429 . S
C1679 C1673 1.429 . S
C1679 C1680 1.523 . S
C1680 C1661 1.368 . S
C1680 C1674 1.368 1_545 S
C1680 C1679 1.523 . S
C1681 C1665 1.429 . S
C1681 C1677 1.429 . S
C1681 C1682 1.523 . S
C1682 C1666 1.368 . S
C1682 C1678 1.368 1_565 S
C1682 C1681 1.523 . S
H1683 C1658 0.950 . S
H1684 C1660 0.950 1_565 S
H1685 C1661 0.949 . S
H1686 C1663 0.950 . S
H1687 C1665 0.950 1_545 S
C1688 C1689 1.349 . S
C1688 C1690 1.327 . S
C1688 H1713 0.950 . S
C1689 C1688 1.349 . S
C1689 C1705 1.349 . S
C1690 C1688 1.327 . S
C1690 C1709 1.429 . S
C1690 H1714 0.950 . S
C1691 C1708 1.584 1_556 S
C1691 C1710 1.368 . S
C1691 H1715 0.949 . S
H1692 C1696 0.949 . S
C1693 C1694 1.349 . S
C1693 C1695 1.327 . S
C1693 H1716 0.950 . S
C1694 C1693 1.349 . S
C1694 C1706 1.349 . S
C1695 C1693 1.327 . S
C1695 C1711 1.429 . S
C1695 H1717 0.950 . S
C1696 H1692 0.949 . S
C1696 C1704 1.584 1_554 S
C1696 C1712 1.368 . S
H1697 C1705 0.950 . S
H1698 C1703 0.950 . S
H1699 C1704 0.949 . S
H1700 C1706 0.950 . S
H1701 C1707 0.950 . S
H1702 C1708 0.949 . S
C1703 H1698 0.950 . S
C1703 C1705 1.327 . S
C1703 C1709 1.429 . S
C1704 C1696 1.584 1_556 S
C1704 H1699 0.949 . S
C1704 C1710 1.358 . S
C1705 C1689 1.349 . S
C1705 H1697 0.950 . S
C1705 C1703 1.327 . S
C1706 C1694 1.349 . S
C1706 H1700 0.950 . S
C1706 C1707 1.327 . S
C1707 H1701 0.950 . S
C1707 C1706 1.327 . S
C1707 C1711 1.429 . S
C1708 C1691 1.584 1_554 S
C1708 H1702 0.949 . S
C1708 C1712 1.358 . S
C1709 C1690 1.429 . S
C1709 C1703 1.429 . S
C1709 C1710 1.523 . S
C1710 C1691 1.368 . S
C1710 C1704 1.358 . S
C1710 C1709 1.523 . S
C1711 C1695 1.429 . S
C1711 C1707 1.429 . S
C1711 C1712 1.523 . S
C1712 C1696 1.368 . S
C1712 C1708 1.358 . S
C1712 C1711 1.523 . S
H1713 C1688 0.950 . S
H1714 C1690 0.950 . S
H1715 C1691 0.949 . S
H1716 C1693 0.950 . S
H1717 C1695 0.950 . S
C1718 C1719 1.349 . S
C1718 C1720 1.327 . S
C1718 H1743 0.950 . S
C1719 C1718 1.349 . S
C1719 C1735 1.349 . S
C1720 C1718 1.327 . S
C1720 C1739 1.429 . S
C1720 H1744 0.950 . S
C1721 C1738 1.574 . S
C1721 C1740 1.368 . S
C1721 H1745 0.949 . S
H1722 C1726 0.949 . S
C1723 C1724 1.349 . S
C1723 C1725 1.327 . S
C1723 H1746 0.950 . S
C1724 C1723 1.349 . S
C1724 C1736 1.349 . S
C1725 C1723 1.327 . S
C1725 C1741 1.429 . S
C1725 H1747 0.950 . S
C1726 H1722 0.949 . S
C1726 C1734 1.574 . S
C1726 C1742 1.368 . S
H1727 C1735 0.950 . S
H1728 C1733 0.950 . S
H1729 C1734 0.949 . S
H1730 C1736 0.950 . S
H1731 C1737 0.950 . S
H1732 C1738 0.949 . S
C1733 H1728 0.950 . S
C1733 C1735 1.327 . S
C1733 C1739 1.429 . S
C1734 C1726 1.574 . S
C1734 H1729 0.949 . S
C1734 C1740 1.368 . S
C1735 C1719 1.349 . S
C1735 H1727 0.950 . S
C1735 C1733 1.327 . S
C1736 C1724 1.349 . S
C1736 H1730 0.950 . S
C1736 C1737 1.327 . S
C1737 H1731 0.950 . S
C1737 C1736 1.327 . S
C1737 C1741 1.429 . S
C1738 C1721 1.574 . S
C1738 H1732 0.949 . S
C1738 C1742 1.368 . S
C1739 C1720 1.429 . S
C1739 C1733 1.429 . S
C1739 C1740 1.523 . S
C1740 C1721 1.368 . S
C1740 C1734 1.368 . S
C1740 C1739 1.523 . S
C1741 C1725 1.429 . S
C1741 C1737 1.429 . S
C1741 C1742 1.523 . S
C1742 C1726 1.368 . S
C1742 C1738 1.368 . S
C1742 C1741 1.523 . S
H1743 C1718 0.950 . S
H1744 C1720 0.950 . S
H1745 C1721 0.949 . S
H1746 C1723 0.950 . S
H1747 C1725 0.950 . S
C1748 C1749 1.349 . S
C1748 C1750 1.327 . S
C1748 H1773 0.950 . S
C1749 C1748 1.349 . S
C1749 C1765 1.349 . S
C1750 C1748 1.327 . S
C1750 C1769 1.429 . S
C1750 H1774 0.950 . S
C1751 C1768 1.574 . S
C1751 C1770 1.368 1_565 S
C1751 H1775 0.949 . S
H1752 C1756 0.949 . S
C1753 C1754 1.349 . S
C1753 C1755 1.327 . S
C1753 H1776 0.950 . S
C1754 C1753 1.349 . S
C1754 C1766 1.349 . S
C1755 C1753 1.327 . S
C1755 C1771 1.429 . S
C1755 H1777 0.950 . S
C1756 H1752 0.949 . S
C1756 C1764 1.574 . S
C1756 C1772 1.368 1_545 S
H1757 C1765 0.950 . S
H1758 C1763 0.950 1_565 S
H1759 C1764 0.949 . S
H1760 C1766 0.950 . S
H1761 C1767 0.950 1_545 S
H1762 C1768 0.949 . S
C1763 H1758 0.950 1_545 S
C1763 C1765 1.327 . S
C1763 C1769 1.429 . S
C1764 C1756 1.574 . S
C1764 H1759 0.949 . S
C1764 C1770 1.368 . S
C1765 C1749 1.349 . S
C1765 H1757 0.950 . S
C1765 C1763 1.327 . S
C1766 C1754 1.349 . S
C1766 H1760 0.950 . S
C1766 C1767 1.327 . S
C1767 H1761 0.950 1_565 S
C1767 C1766 1.327 . S
C1767 C1771 1.429 . S
C1768 C1751 1.574 . S
C1768 H1762 0.949 . S
C1768 C1772 1.368 . S
C1769 C1750 1.429 . S
C1769 C1763 1.429 . S
C1769 C1770 1.523 . S
C1770 C1751 1.368 1_545 S
C1770 C1764 1.368 . S
C1770 C1769 1.523 . S
C1771 C1755 1.429 . S
C1771 C1767 1.429 . S
C1771 C1772 1.523 . S
C1772 C1756 1.368 1_565 S
C1772 C1768 1.368 . S
C1772 C1771 1.523 . S
H1773 C1748 0.950 . S
H1774 C1750 0.950 . S
H1775 C1751 0.949 . S
H1776 C1753 0.950 . S
H1777 C1755 0.950 . S
C1778 C1779 1.349 . S
C1778 C1780 1.327 . S
C1778 H1803 0.950 . S
C1779 C1778 1.349 . S
C1779 C1795 1.349 . S
C1780 C1778 1.327 . S
C1780 C1799 1.429 . S
C1780 H1804 0.950 . S
C1781 C1798 1.574 . S
C1781 C1800 1.368 . S
C1781 H1805 0.949 . S
H1782 C1786 0.949 . S
C1783 C1784 1.349 . S
C1783 C1785 1.327 . S
C1783 H1806 0.950 . S
C1784 C1783 1.349 . S
C1784 C1796 1.349 . S
C1785 C1783 1.327 . S
C1785 C1801 1.429 . S
C1785 H1807 0.950 . S
C1786 H1782 0.949 . S
C1786 C1794 1.574 . S
C1786 C1802 1.368 . S
H1787 C1795 0.950 . S
H1788 C1793 0.950 . S
H1789 C1794 0.949 . S
H1790 C1796 0.950 . S
H1791 C1797 0.950 . S
H1792 C1798 0.949 . S
C1793 H1788 0.950 . S
C1793 C1795 1.327 . S
C1793 C1799 1.429 . S
C1794 C1786 1.574 . S
C1794 H1789 0.949 . S
C1794 C1800 1.368 . S
C1795 C1779 1.349 . S
C1795 H1787 0.950 . S
C1795 C1793 1.327 . S
C1796 C1784 1.349 . S
C1796 H1790 0.950 . S
C1796 C1797 1.327 . S
C1797 H1791 0.950 . S
C1797 C1796 1.327 . S
C1797 C1801 1.429 . S
C1798 C1781 1.574 . S
C1798 H1792 0.949 . S
C1798 C1802 1.368 . S
C1799 C1780 1.429 . S
C1799 C1793 1.429 . S
C1799 C1800 1.523 . S
C1800 C1781 1.368 . S
C1800 C1794 1.368 . S
C1800 C1799 1.523 . S
C1801 C1785 1.429 . S
C1801 C1797 1.429 . S
C1801 C1802 1.523 . S
C1802 C1786 1.368 . S
C1802 C1798 1.368 . S
C1802 C1801 1.523 . S
H1803 C1778 0.950 . S
H1804 C1780 0.950 . S
H1805 C1781 0.949 . S
H1806 C1783 0.950 . S
H1807 C1785 0.950 . S
C1808 C1809 1.349 . S
C1808 C1810 1.327 . S
C1808 H1833 0.950 . S
C1809 C1808 1.349 . S
C1809 C1825 1.349 . S
C1810 C1808 1.327 . S
C1810 C1829 1.429 . S
C1810 H1834 0.950 . S
C1811 C1828 1.574 . S
C1811 C1830 1.368 . S
C1811 H1835 0.949 . S
H1812 C1816 0.949 . S
C1813 C1814 1.349 . S
C1813 C1815 1.327 . S
C1813 H1836 0.950 . S
C1814 C1813 1.349 . S
C1814 C1826 1.349 . S
C1815 C1813 1.327 . S
C1815 C1831 1.429 . S
C1815 H1837 0.950 . S
C1816 H1812 0.949 . S
C1816 C1824 1.574 . S
C1816 C1832 1.368 . S
H1817 C1825 0.950 . S
H1818 C1823 0.950 . S
H1819 C1824 0.949 . S
H1820 C1826 0.950 . S
H1821 C1827 0.950 . S
H1822 C1828 0.949 . S
C1823 H1818 0.950 . S
C1823 C1825 1.327 . S
C1823 C1829 1.429 . S
C1824 C1816 1.574 . S
C1824 H1819 0.949 . S
C1824 C1830 1.368 . S
C1825 C1809 1.349 . S
C1825 H1817 0.950 . S
C1825 C1823 1.327 . S
C1826 C1814 1.349 . S
C1826 H1820 0.950 . S
C1826 C1827 1.327 . S
C1827 H1821 0.950 . S
C1827 C1826 1.327 . S
C1827 C1831 1.429 . S
C1828 C1811 1.574 . S
C1828 H1822 0.949 . S
C1828 C1832 1.368 . S
C1829 C1810 1.429 . S
C1829 C1823 1.429 . S
C1829 C1830 1.523 . S
C1830 C1811 1.368 . S
C1830 C1824 1.368 . S
C1830 C1829 1.523 . S
C1831 C1815 1.429 . S
C1831 C1827 1.429 . S
C1831 C1832 1.523 . S
C1832 C1816 1.368 . S
C1832 C1828 1.368 . S
C1832 C1831 1.523 . S
H1833 C1808 0.950 . S
H1834 C1810 0.950 . S
H1835 C1811 0.949 . S
H1836 C1813 0.950 . S
H1837 C1815 0.950 . S
C1838 C1839 1.349 . S
C1838 C1840 1.327 . S
C1838 H1863 0.950 . S
C1839 C1838 1.349 . S
C1839 C1855 1.349 . S
C1840 C1838 1.327 . S
C1840 C1859 1.429 . S
C1840 H1864 0.950 . S
C1841 C1858 1.574 . S
C1841 C1860 1.368 . S
C1841 H1865 0.949 . S
H1842 C1846 0.949 . S
C1843 C1844 1.349 . S
C1843 C1845 1.327 . S
C1843 H1866 0.950 . S
C1844 C1843 1.349 . S
C1844 C1856 1.349 . S
C1845 C1843 1.327 . S
C1845 C1861 1.429 . S
C1845 H1867 0.950 . S
C1846 H1842 0.949 . S
C1846 C1854 1.574 . S
C1846 C1862 1.368 . S
H1847 C1855 0.950 . S
H1848 C1853 0.950 . S
H1849 C1854 0.949 . S
H1850 C1856 0.950 . S
H1851 C1857 0.950 . S
H1852 C1858 0.949 . S
C1853 H1848 0.950 . S
C1853 C1855 1.327 . S
C1853 C1859 1.429 . S
C1854 C1846 1.574 . S
C1854 H1849 0.949 . S
C1854 C1860 1.368 . S
C1855 C1839 1.349 . S
C1855 H1847 0.950 . S
C1855 C1853 1.327 . S
C1856 C1844 1.349 . S
C1856 H1850 0.950 . S
C1856 C1857 1.327 . S
C1857 H1851 0.950 . S
C1857 C1856 1.327 . S
C1857 C1861 1.429 . S
C1858 C1841 1.574 . S
C1858 H1852 0.949 . S
C1858 C1862 1.368 . S
C1859 C1840 1.429 . S
C1859 C1853 1.429 . S
C1859 C1860 1.523 . S
C1860 C1841 1.368 . S
C1860 C1854 1.368 . S
C1860 C1859 1.523 . S
C1861 C1845 1.429 . S
C1861 C1857 1.429 . S
C1861 C1862 1.523 . S
C1862 C1846 1.368 . S
C1862 C1858 1.368 . S
C1862 C1861 1.523 . S
H1863 C1838 0.950 . S
H1864 C1840 0.950 . S
H1865 C1841 0.949 . S
H1866 C1843 0.950 . S
H1867 C1845 0.950 . S
C1868 C1869 1.349 . S
C1868 C1870 1.327 . S
C1868 H1893 0.950 . S
C1869 C1868 1.349 . S
C1869 C1885 1.349 . S
C1870 C1868 1.327 . S
C1870 C1889 1.429 . S
C1870 H1894 0.950 . S
C1871 C1888 1.574 . S
C1871 C1890 1.368 . S
C1871 H1895 0.949 . S
H1872 C1876 0.949 . S
C1873 C1874 1.349 . S
C1873 C1875 1.327 . S
C1873 H1896 0.950 . S
C1874 C1873 1.349 . S
C1874 C1886 1.349 . S
C1875 C1873 1.327 . S
C1875 C1891 1.429 . S
C1875 H1897 0.950 . S
C1876 H1872 0.949 . S
C1876 C1884 1.574 . S
C1876 C1892 1.368 . S
H1877 C1885 0.950 . S
H1878 C1883 0.950 . S
H1879 C1884 0.949 . S
H1880 C1886 0.950 . S
H1881 C1887 0.950 . S
H1882 C1888 0.949 . S
C1883 H1878 0.950 . S
C1883 C1885 1.327 . S
C1883 C1889 1.429 . S
C1884 C1876 1.574 . S
C1884 H1879 0.949 . S
C1884 C1890 1.368 . S
C1885 C1869 1.349 . S
C1885 H1877 0.950 . S
C1885 C1883 1.327 . S
C1886 C1874 1.349 . S
C1886 H1880 0.950 . S
C1886 C1887 1.327 . S
C1887 H1881 0.950 . S
C1887 C1886 1.327 . S
C1887 C1891 1.429 . S
C1888 C1871 1.574 . S
C1888 H1882 0.949 . S
C1888 C1892 1.368 . S
C1889 C1870 1.429 . S
C1889 C1883 1.429 . S
C1889 C1890 1.523 . S
C1890 C1871 1.368 . S
C1890 C1884 1.368 . S
C1890 C1889 1.523 . S
C1891 C1875 1.429 . S
C1891 C1887 1.429 . S
C1891 C1892 1.523 . S
C1892 C1876 1.368 . S
C1892 C1888 1.368 . S
C1892 C1891 1.523 . S
H1893 C1868 0.950 . S
H1894 C1870 0.950 . S
H1895 C1871 0.949 . S
H1896 C1873 0.950 . S
H1897 C1875 0.950 . S
C1898 C1899 1.349 . S
C1898 C1900 1.327 . S
C1898 H1923 0.950 . S
C1899 C1898 1.349 . S
C1899 C1915 1.349 . S
C1900 C1898 1.327 . S
C1900 C1919 1.429 . S
C1900 H1924 0.950 . S
C1901 C1918 1.574 . S
C1901 C1920 1.368 . S
C1901 H1925 0.949 . S
H1902 C1906 0.949 . S
C1903 C1904 1.349 . S
C1903 C1905 1.327 . S
C1903 H1926 0.950 . S
C1904 C1903 1.349 . S
C1904 C1916 1.349 . S
C1905 C1903 1.327 . S
C1905 C1921 1.429 . S
C1905 H1927 0.950 . S
C1906 H1902 0.949 . S
C1906 C1914 1.574 . S
C1906 C1922 1.368 . S
H1907 C1915 0.950 . S
H1908 C1913 0.950 . S
H1909 C1914 0.949 . S
H1910 C1916 0.950 . S
H1911 C1917 0.950 . S
H1912 C1918 0.949 . S
C1913 H1908 0.950 . S
C1913 C1915 1.327 . S
C1913 C1919 1.429 . S
C1914 C1906 1.574 . S
C1914 H1909 0.949 . S
C1914 C1920 1.368 . S
C1915 C1899 1.349 . S
C1915 H1907 0.950 . S
C1915 C1913 1.327 . S
C1916 C1904 1.349 . S
C1916 H1910 0.950 . S
C1916 C1917 1.327 . S
C1917 H1911 0.950 . S
C1917 C1916 1.327 . S
C1917 C1921 1.429 . S
C1918 C1901 1.574 . S
C1918 H1912 0.949 . S
C1918 C1922 1.368 . S
C1919 C1900 1.429 . S
C1919 C1913 1.429 . S
C1919 C1920 1.523 . S
C1920 C1901 1.368 . S
C1920 C1914 1.368 . S
C1920 C1919 1.523 . S
C1921 C1905 1.429 . S
C1921 C1917 1.429 . S
C1921 C1922 1.523 . S
C1922 C1906 1.368 . S
C1922 C1918 1.368 . S
C1922 C1921 1.523 . S
H1923 C1898 0.950 . S
H1924 C1900 0.950 . S
H1925 C1901 0.949 . S
H1926 C1903 0.950 . S
H1927 C1905 0.950 . S
C1928 C1929 1.349 . S
C1928 C1930 1.327 . S
C1928 H1953 0.950 . S
C1929 C1928 1.349 . S
C1929 C1945 1.349 . S
C1930 C1928 1.327 . S
C1930 C1949 1.429 . S
C1930 H1954 0.950 1_565 S
C1931 C1948 1.574 1_455 S
C1931 C1950 1.368 . S
C1931 H1955 0.949 . S
H1932 C1936 0.949 . S
C1933 C1934 1.349 . S
C1933 C1935 1.327 . S
C1933 H1956 0.950 . S
C1934 C1933 1.349 . S
C1934 C1946 1.349 . S
C1935 C1933 1.327 . S
C1935 C1951 1.429 . S
C1935 H1957 0.950 1_545 S
C1936 H1932 0.949 . S
C1936 C1944 1.574 1_655 S
C1936 C1952 1.368 . S
H1937 C1945 0.950 . S
H1938 C1943 0.950 . S
H1939 C1944 0.949 . S
H1940 C1946 0.950 . S
H1941 C1947 0.950 . S
H1942 C1948 0.949 . S
C1943 H1938 0.950 . S
C1943 C1945 1.327 . S
C1943 C1949 1.429 . S
C1944 C1936 1.574 1_455 S
C1944 H1939 0.949 . S
C1944 C1950 1.368 1_545 S
C1945 C1929 1.349 . S
C1945 H1937 0.950 . S
C1945 C1943 1.327 . S
C1946 C1934 1.349 . S
C1946 H1940 0.950 . S
C1946 C1947 1.327 . S
C1947 H1941 0.950 . S
C1947 C1946 1.327 . S
C1947 C1951 1.429 . S
C1948 C1931 1.574 1_655 S
C1948 H1942 0.949 . S
C1948 C1952 1.368 1_565 S
C1949 C1930 1.429 . S
C1949 C1943 1.429 . S
C1949 C1950 1.523 . S
C1950 C1931 1.368 . S
C1950 C1944 1.368 1_565 S
C1950 C1949 1.523 . S
C1951 C1935 1.429 . S
C1951 C1947 1.429 . S
C1951 C1952 1.523 . S
C1952 C1936 1.368 . S
C1952 C1948 1.368 1_545 S
C1952 C1951 1.523 . S
H1953 C1928 0.950 . S
H1954 C1930 0.950 1_545 S
H1955 C1931 0.949 . S
H1956 C1933 0.950 . S
H1957 C1935 0.950 1_565 S
C1958 C1959 1.349 . S
C1958 C1960 1.327 . S
C1958 H1983 0.950 . S
C1959 C1958 1.349 . S
C1959 C1975 1.349 . S
C1960 C1958 1.327 . S
C1960 C1979 1.429 . S
C1960 H1984 0.950 . S
C1961 C1978 1.574 . S
C1961 C1980 1.368 . S
C1961 H1985 0.949 . S
H1962 C1966 0.949 . S
C1963 C1964 1.349 . S
C1963 C1965 1.327 . S
C1963 H1986 0.950 . S
C1964 C1963 1.349 . S
C1964 C1976 1.349 . S
C1965 C1963 1.327 . S
C1965 C1981 1.429 . S
C1965 H1987 0.950 . S
C1966 H1962 0.949 . S
C1966 C1974 1.574 . S
C1966 C1982 1.368 . S
H1967 C1975 0.950 . S
H1968 C1973 0.950 . S
H1969 C1974 0.949 . S
H1970 C1976 0.950 . S
H1971 C1977 0.950 . S
H1972 C1978 0.949 . S
C1973 H1968 0.950 . S
C1973 C1975 1.327 . S
C1973 C1979 1.429 . S
C1974 C1966 1.574 . S
C1974 H1969 0.949 . S
C1974 C1980 1.368 1_455 S
C1975 C1959 1.349 . S
C1975 H1967 0.950 . S
C1975 C1973 1.327 . S
C1976 C1964 1.349 . S
C1976 H1970 0.950 . S
C1976 C1977 1.327 . S
C1977 H1971 0.950 . S
C1977 C1976 1.327 . S
C1977 C1981 1.429 . S
C1978 C1961 1.574 . S
C1978 H1972 0.949 . S
C1978 C1982 1.368 1_655 S
C1979 C1960 1.429 . S
C1979 C1973 1.429 . S
C1979 C1980 1.523 . S
C1980 C1961 1.368 . S
C1980 C1974 1.368 1_655 S
C1980 C1979 1.523 . S
C1981 C1965 1.429 . S
C1981 C1977 1.429 . S
C1981 C1982 1.523 . S
C1982 C1966 1.368 . S
C1982 C1978 1.368 1_455 S
C1982 C1981 1.523 . S
H1983 C1958 0.950 . S
H1984 C1960 0.950 . S
H1985 C1961 0.949 . S
H1986 C1963 0.950 . S
H1987 C1965 0.950 . S
C1988 C1989 1.349 . S
C1988 C1990 1.327 . S
C1988 H2013 0.950 . S
C1989 C1988 1.349 . S
C1989 C2005 1.349 . S
C1990 C1988 1.327 . S
C1990 C2009 1.429 . S
C1990 H2014 0.950 . S
C1991 C2008 1.574 . S
C1991 C2010 1.368 . S
C1991 H2015 0.949 . S
H1992 C1996 0.949 . S
C1993 C1994 1.349 . S
C1993 C1995 1.327 . S
C1993 H2016 0.950 . S
C1994 C1993 1.349 . S
C1994 C2006 1.349 . S
C1995 C1993 1.327 . S
C1995 C2011 1.429 . S
C1995 H2017 0.950 . S
C1996 H1992 0.949 . S
C1996 C2004 1.574 . S
C1996 C2012 1.368 . S
H1997 C2005 0.950 . S
H1998 C2003 0.950 . S
H1999 C2004 0.949 . S
H2000 C2006 0.950 . S
H2001 C2007 0.950 . S
H2002 C2008 0.949 . S
C2003 H1998 0.950 . S
C2003 C2005 1.327 . S
C2003 C2009 1.429 . S
C2004 C1996 1.574 . S
C2004 H1999 0.949 . S
C2004 C2010 1.368 1_655 S
C2005 C1989 1.349 . S
C2005 H1997 0.950 . S
C2005 C2003 1.327 . S
C2006 C1994 1.349 . S
C2006 H2000 0.950 . S
C2006 C2007 1.327 . S
C2007 H2001 0.950 . S
C2007 C2006 1.327 . S
C2007 C2011 1.429 . S
C2008 C1991 1.574 . S
C2008 H2002 0.949 . S
C2008 C2012 1.368 1_455 S
C2009 C1990 1.429 . S
C2009 C2003 1.429 . S
C2009 C2010 1.523 . S
C2010 C1991 1.368 . S
C2010 C2004 1.368 1_455 S
C2010 C2009 1.523 . S
C2011 C1995 1.429 . S
C2011 C2007 1.429 . S
C2011 C2012 1.523 . S
C2012 C1996 1.368 . S
C2012 C2008 1.368 1_655 S
C2012 C2011 1.523 . S
H2013 C1988 0.950 . S
H2014 C1990 0.950 . S
H2015 C1991 0.949 . S
H2016 C1993 0.950 . S
H2017 C1995 0.950 . S
C2018 C2019 1.349 . S
C2018 C2020 1.327 . S
C2018 H2043 0.950 . S
C2019 C2018 1.349 . S
C2019 C2035 1.349 . S
C2020 C2018 1.327 . S
C2020 C2039 1.429 . S
C2020 H2044 0.932 1_455 S
C2021 C2038 1.561 . S
C2021 C2040 1.380 1_554 S
C2021 H2045 0.949 1_554 S
H2022 C2026 0.949 1_554 S
C2023 C2024 1.349 . S
C2023 C2025 1.327 . S
C2023 H2046 0.950 . S
C2024 C2023 1.349 . S
C2024 C2036 1.349 . S
C2025 C2023 1.327 . S
C2025 C2041 1.429 . S
C2025 H2047 0.932 1_655 S
C2026 H2022 0.949 1_556 S
C2026 C2034 1.562 . S
C2026 C2042 1.380 1_556 S
H2027 C2035 0.950 . S
H2028 C2033 0.950 . S
H2029 C2034 0.949 . S
H2030 C2036 0.950 . S
H2031 C2037 0.950 . S
H2032 C2038 0.949 . S
C2033 H2028 0.950 . S
C2033 C2035 1.327 . S
C2033 C2039 1.429 . S
C2034 C2026 1.562 . S
C2034 H2029 0.949 . S
C2034 C2040 1.368 1_655 S
C2035 C2019 1.349 . S
C2035 H2027 0.950 . S
C2035 C2033 1.327 . S
C2036 C2024 1.349 . S
C2036 H2030 0.950 . S
C2036 C2037 1.327 . S
C2037 H2031 0.950 . S
C2037 C2036 1.327 . S
C2037 C2041 1.429 . S
C2038 C2021 1.561 . S
C2038 H2032 0.949 . S
C2038 C2042 1.368 1_455 S
C2039 C2020 1.429 . S
C2039 C2033 1.429 . S
C2039 C2040 1.523 . S
C2040 C2021 1.380 1_556 S
C2040 C2034 1.368 1_455 S
C2040 C2039 1.523 . S
C2041 C2025 1.429 . S
C2041 C2037 1.429 . S
C2041 C2042 1.523 . S
C2042 C2026 1.380 1_554 S
C2042 C2038 1.368 1_655 S
C2042 C2041 1.523 . S
H2043 C2018 0.950 . S
H2044 C2020 0.932 1_655 S
H2045 C2021 0.949 1_556 S
H2046 C2023 0.950 . S
H2047 C2025 0.932 1_455 S
C2048 C2049 1.349 . S
C2048 C2050 1.327 . S
C2048 H2073 0.950 . S
C2049 C2048 1.349 . S
C2049 C2065 1.349 . S
C2050 C2048 1.327 . S
C2050 C2069 1.429 . S
C2050 H2074 0.950 . S
C2051 C2068 1.574 . S
C2051 C2070 1.368 . S
C2051 H2075 0.949 . S
H2052 C2056 0.949 . S
C2053 C2054 1.349 . S
C2053 C2055 1.327 . S
C2053 H2076 0.950 . S
C2054 C2053 1.349 . S
C2054 C2066 1.349 . S
C2055 C2053 1.327 . S
C2055 C2071 1.429 . S
C2055 H2077 0.950 . S
C2056 H2052 0.949 . S
C2056 C2064 1.574 . S
C2056 C2072 1.368 . S
H2057 C2065 0.950 . S
H2058 C2063 0.950 . S
H2059 C2064 0.949 . S
H2060 C2066 0.950 . S
H2061 C2067 0.950 . S
H2062 C2068 0.949 . S
C2063 H2058 0.950 . S
C2063 C2065 1.327 . S
C2063 C2069 1.429 . S
C2064 C2056 1.574 . S
C2064 H2059 0.949 . S
C2064 C2070 1.368 . S
C2065 C2049 1.349 . S
C2065 H2057 0.950 . S
C2065 C2063 1.327 . S
C2066 C2054 1.349 . S
C2066 H2060 0.950 . S
C2066 C2067 1.327 . S
C2067 H2061 0.950 . S
C2067 C2066 1.327 . S
C2067 C2071 1.429 . S
C2068 C2051 1.574 . S
C2068 H2062 0.949 . S
C2068 C2072 1.368 . S
C2069 C2050 1.429 . S
C2069 C2063 1.429 . S
C2069 C2070 1.523 . S
C2070 C2051 1.368 . S
C2070 C2064 1.368 . S
C2070 C2069 1.523 . S
C2071 C2055 1.429 . S
C2071 C2067 1.429 . S
C2071 C2072 1.523 . S
C2072 C2056 1.368 . S
C2072 C2068 1.368 . S
C2072 C2071 1.523 . S
H2073 C2048 0.950 . S
H2074 C2050 0.950 . S
H2075 C2051 0.949 . S
H2076 C2053 0.950 . S
H2077 C2055 0.950 . S
C2078 C2079 1.349 . S
C2078 C2080 1.327 . S
C2078 H2103 0.950 . S
C2079 C2078 1.349 . S
C2079 C2095 1.349 . S
C2080 C2078 1.327 . S
C2080 C2099 1.429 . S
C2080 H2104 0.950 . S
C2081 C2098 1.574 . S
C2081 C2100 1.368 . S
C2081 H2105 0.949 . S
H2082 C2086 0.949 . S
C2083 C2084 1.349 . S
C2083 C2085 1.327 . S
C2083 H2106 0.950 . S
C2084 C2083 1.349 . S
C2084 C2096 1.349 . S
C2085 C2083 1.327 . S
C2085 C2101 1.429 . S
C2085 H2107 0.950 . S
C2086 H2082 0.949 . S
C2086 C2094 1.574 . S
C2086 C2102 1.368 . S
H2087 C2095 0.950 . S
H2088 C2093 0.950 . S
H2089 C2094 0.949 . S
H2090 C2096 0.950 . S
H2091 C2097 0.950 . S
H2092 C2098 0.949 . S
C2093 H2088 0.950 . S
C2093 C2095 1.327 . S
C2093 C2099 1.429 . S
C2094 C2086 1.574 . S
C2094 H2089 0.949 . S
C2094 C2100 1.368 . S
C2095 C2079 1.349 . S
C2095 H2087 0.950 . S
C2095 C2093 1.327 . S
C2096 C2084 1.349 . S
C2096 H2090 0.950 . S
C2096 C2097 1.327 . S
C2097 H2091 0.950 . S
C2097 C2096 1.327 . S
C2097 C2101 1.429 . S
C2098 C2081 1.574 . S
C2098 H2092 0.949 . S
C2098 C2102 1.368 . S
C2099 C2080 1.429 . S
C2099 C2093 1.429 . S
C2099 C2100 1.523 . S
C2100 C2081 1.368 . S
C2100 C2094 1.368 . S
C2100 C2099 1.523 . S
C2101 C2085 1.429 . S
C2101 C2097 1.429 . S
C2101 C2102 1.523 . S
C2102 C2086 1.368 . S
C2102 C2098 1.368 . S
C2102 C2101 1.523 . S
H2103 C2078 0.950 . S
H2104 C2080 0.950 . S
H2105 C2081 0.949 . S
H2106 C2083 0.950 . S
H2107 C2085 0.950 . S
C2108 C2109 1.349 . S
C2108 C2110 1.327 . S
C2108 H2133 0.950 . S
C2109 C2108 1.349 . S
C2109 C2125 1.349 . S
C2110 C2108 1.327 . S
C2110 C2129 1.429 . S
C2110 H2134 0.950 . S
C2111 C2128 1.574 . S
C2111 C2130 1.368 . S
C2111 H2135 0.949 . S
H2112 C2116 0.949 . S
C2113 C2114 1.349 . S
C2113 C2115 1.327 . S
C2113 H2136 0.950 . S
C2114 C2113 1.349 . S
C2114 C2126 1.349 . S
C2115 C2113 1.327 . S
C2115 C2131 1.429 . S
C2115 H2137 0.950 . S
C2116 H2112 0.949 . S
C2116 C2124 1.574 . S
C2116 C2132 1.368 . S
H2117 C2125 0.950 . S
H2118 C2123 0.950 . S
H2119 C2124 0.949 . S
H2120 C2126 0.950 . S
H2121 C2127 0.950 . S
H2122 C2128 0.949 . S
C2123 H2118 0.950 . S
C2123 C2125 1.327 . S
C2123 C2129 1.429 . S
C2124 C2116 1.574 . S
C2124 H2119 0.949 . S
C2124 C2130 1.368 . S
C2125 C2109 1.349 . S
C2125 H2117 0.950 . S
C2125 C2123 1.327 . S
C2126 C2114 1.349 . S
C2126 H2120 0.950 . S
C2126 C2127 1.327 . S
C2127 H2121 0.950 . S
C2127 C2126 1.327 . S
C2127 C2131 1.429 . S
C2128 C2111 1.574 . S
C2128 H2122 0.949 . S
C2128 C2132 1.368 . S
C2129 C2110 1.429 . S
C2129 C2123 1.429 . S
C2129 C2130 1.523 . S
C2130 C2111 1.368 . S
C2130 C2124 1.368 . S
C2130 C2129 1.523 . S
C2131 C2115 1.429 . S
C2131 C2127 1.429 . S
C2131 C2132 1.523 . S
C2132 C2116 1.368 . S
C2132 C2128 1.368 . S
C2132 C2131 1.523 . S
H2133 C2108 0.950 . S
H2134 C2110 0.950 . S
H2135 C2111 0.949 . S
H2136 C2113 0.950 . S
H2137 C2115 0.950 . S
C2138 C2139 1.349 . S
C2138 C2140 1.327 . S
C2138 H2163 0.950 . S
C2139 C2138 1.349 . S
C2139 C2155 1.349 . S
C2140 C2138 1.327 . S
C2140 C2159 1.429 . S
C2140 H2164 0.950 . S
C2141 C2158 1.574 . S
C2141 C2160 1.368 . S
C2141 H2165 0.949 . S
H2142 C2146 0.949 . S
C2143 C2144 1.349 . S
C2143 C2145 1.327 . S
C2143 H2166 0.950 . S
C2144 C2143 1.349 . S
C2144 C2156 1.349 . S
C2145 C2143 1.327 . S
C2145 C2161 1.429 . S
C2145 H2167 0.950 . S
C2146 H2142 0.949 . S
C2146 C2154 1.574 . S
C2146 C2162 1.368 . S
H2147 C2155 0.950 . S
H2148 C2153 0.950 . S
H2149 C2154 0.949 . S
H2150 C2156 0.950 . S
H2151 C2157 0.950 . S
H2152 C2158 0.949 . S
C2153 H2148 0.950 . S
C2153 C2155 1.327 . S
C2153 C2159 1.429 . S
C2154 C2146 1.574 . S
C2154 H2149 0.949 . S
C2154 C2160 1.368 . S
C2155 C2139 1.349 . S
C2155 H2147 0.950 . S
C2155 C2153 1.327 . S
C2156 C2144 1.349 . S
C2156 H2150 0.950 . S
C2156 C2157 1.327 . S
C2157 H2151 0.950 . S
C2157 C2156 1.327 . S
C2157 C2161 1.429 . S
C2158 C2141 1.574 . S
C2158 H2152 0.949 . S
C2158 C2162 1.368 . S
C2159 C2140 1.429 . S
C2159 C2153 1.429 . S
C2159 C2160 1.523 . S
C2160 C2141 1.368 . S
C2160 C2154 1.368 . S
C2160 C2159 1.523 . S
C2161 C2145 1.429 . S
C2161 C2157 1.429 . S
C2161 C2162 1.523 . S
C2162 C2146 1.368 . S
C2162 C2158 1.368 . S
C2162 C2161 1.523 . S
H2163 C2138 0.950 . S
H2164 C2140 0.950 . S
H2165 C2141 0.949 . S
H2166 C2143 0.950 . S
H2167 C2145 0.950 . S
C2168 C2169 1.349 . S
C2168 C2170 1.327 . S
C2168 H2193 0.950 . S
C2169 C2168 1.349 . S
C2169 C2185 1.349 . S
C2170 C2168 1.327 . S
C2170 C2189 1.429 . S
C2170 H2194 0.950 . S
C2171 C2188 1.574 . S
C2171 C2190 1.368 . S
C2171 H2195 0.949 . S
H2172 C2176 0.949 . S
C2173 C2174 1.349 . S
C2173 C2175 1.327 . S
C2173 H2196 0.950 . S
C2174 C2173 1.349 . S
C2174 C2186 1.349 . S
C2175 C2173 1.327 . S
C2175 C2191 1.429 . S
C2175 H2197 0.950 . S
C2176 H2172 0.949 . S
C2176 C2184 1.574 . S
C2176 C2192 1.368 . S
H2177 C2185 0.950 . S
H2178 C2183 0.950 . S
H2179 C2184 0.949 . S
H2180 C2186 0.950 . S
H2181 C2187 0.950 . S
H2182 C2188 0.949 . S
C2183 H2178 0.950 . S
C2183 C2185 1.327 . S
C2183 C2189 1.429 . S
C2184 C2176 1.574 . S
C2184 H2179 0.949 . S
C2184 C2190 1.368 . S
C2185 C2169 1.349 . S
C2185 H2177 0.950 . S
C2185 C2183 1.327 . S
C2186 C2174 1.349 . S
C2186 H2180 0.950 . S
C2186 C2187 1.327 . S
C2187 H2181 0.950 . S
C2187 C2186 1.327 . S
C2187 C2191 1.429 . S
C2188 C2171 1.574 . S
C2188 H2182 0.949 . S
C2188 C2192 1.368 . S
C2189 C2170 1.429 . S
C2189 C2183 1.429 . S
C2189 C2190 1.523 . S
C2190 C2171 1.368 . S
C2190 C2184 1.368 . S
C2190 C2189 1.523 . S
C2191 C2175 1.429 . S
C2191 C2187 1.429 . S
C2191 C2192 1.523 . S
C2192 C2176 1.368 . S
C2192 C2188 1.368 . S
C2192 C2191 1.523 . S
H2193 C2168 0.950 . S
H2194 C2170 0.950 . S
H2195 C2171 0.949 . S
H2196 C2173 0.950 . S
H2197 C2175 0.950 . S
C2198 C2199 1.349 . S
C2198 C2200 1.327 . S
C2198 H2223 0.950 . S
C2199 C2198 1.349 . S
C2199 C2215 1.349 . S
C2200 C2198 1.327 . S
C2200 C2219 1.429 . S
C2200 H2224 0.950 . S
C2201 C2218 1.574 . S
C2201 C2220 1.368 . S
C2201 H2225 0.949 . S
H2202 C2206 0.949 . S
C2203 C2204 1.349 . S
C2203 C2205 1.327 . S
C2203 H2226 0.950 . S
C2204 C2203 1.349 . S
C2204 C2216 1.349 . S
C2205 C2203 1.327 . S
C2205 C2221 1.429 . S
C2205 H2227 0.950 . S
C2206 H2202 0.949 . S
C2206 C2214 1.574 . S
C2206 C2222 1.368 . S
H2207 C2215 0.950 . S
H2208 C2213 0.950 . S
H2209 C2214 0.949 . S
H2210 C2216 0.950 . S
H2211 C2217 0.950 . S
H2212 C2218 0.949 . S
C2213 H2208 0.950 . S
C2213 C2215 1.327 . S
C2213 C2219 1.429 . S
C2214 C2206 1.574 . S
C2214 H2209 0.949 . S
C2214 C2220 1.368 . S
C2215 C2199 1.349 . S
C2215 H2207 0.950 . S
C2215 C2213 1.327 . S
C2216 C2204 1.349 . S
C2216 H2210 0.950 . S
C2216 C2217 1.327 . S
C2217 H2211 0.950 . S
C2217 C2216 1.327 . S
C2217 C2221 1.429 . S
C2218 C2201 1.574 . S
C2218 H2212 0.949 . S
C2218 C2222 1.368 . S
C2219 C2200 1.429 . S
C2219 C2213 1.429 . S
C2219 C2220 1.523 . S
C2220 C2201 1.368 . S
C2220 C2214 1.368 . S
C2220 C2219 1.523 . S
C2221 C2205 1.429 . S
C2221 C2217 1.429 . S
C2221 C2222 1.523 . S
C2222 C2206 1.368 . S
C2222 C2218 1.368 . S
C2222 C2221 1.523 . S
H2223 C2198 0.950 . S
H2224 C2200 0.950 . S
H2225 C2201 0.949 . S
H2226 C2203 0.950 . S
H2227 C2205 0.950 . S
C2228 C2229 1.349 . S
C2228 C2230 1.327 . S
C2228 H2253 0.950 . S
C2229 C2228 1.349 . S
C2229 C2245 1.349 . S
C2230 C2228 1.327 . S
C2230 C2249 1.429 . S
C2230 H2254 0.950 . S
C2231 C2248 1.574 . S
C2231 C2250 1.368 . S
C2231 H2255 0.949 . S
H2232 C2236 0.949 . S
C2233 C2234 1.349 . S
C2233 C2235 1.327 . S
C2233 H2256 0.950 . S
C2234 C2233 1.349 . S
C2234 C2246 1.349 . S
C2235 C2233 1.327 . S
C2235 C2251 1.429 . S
C2235 H2257 0.950 . S
C2236 H2232 0.949 . S
C2236 C2244 1.574 . S
C2236 C2252 1.368 . S
H2237 C2245 0.950 . S
H2238 C2243 0.950 . S
H2239 C2244 0.949 . S
H2240 C2246 0.950 . S
H2241 C2247 0.950 . S
H2242 C2248 0.949 . S
C2243 H2238 0.950 . S
C2243 C2245 1.327 . S
C2243 C2249 1.429 . S
C2244 C2236 1.574 . S
C2244 H2239 0.949 . S
C2244 C2250 1.368 . S
C2245 C2229 1.349 . S
C2245 H2237 0.950 . S
C2245 C2243 1.327 . S
C2246 C2234 1.349 . S
C2246 H2240 0.950 . S
C2246 C2247 1.327 . S
C2247 H2241 0.950 . S
C2247 C2246 1.327 . S
C2247 C2251 1.429 . S
C2248 C2231 1.574 . S
C2248 H2242 0.949 . S
C2248 C2252 1.368 . S
C2249 C2230 1.429 . S
C2249 C2243 1.429 . S
C2249 C2250 1.523 . S
C2250 C2231 1.368 . S
C2250 C2244 1.368 . S
C2250 C2249 1.523 . S
C2251 C2235 1.429 . S
C2251 C2247 1.429 . S
C2251 C2252 1.523 . S
C2252 C2236 1.368 . S
C2252 C2248 1.368 . S
C2252 C2251 1.523 . S
H2253 C2228 0.950 . S
H2254 C2230 0.950 . S
H2255 C2231 0.949 . S
H2256 C2233 0.950 . S
H2257 C2235 0.950 . S
C2258 C2259 1.349 . S
C2258 C2260 1.327 . S
C2258 H2283 0.950 . S
C2259 C2258 1.349 . S
C2259 C2275 1.349 . S
C2260 C2258 1.327 . S
C2260 C2279 1.429 . S
C2260 H2284 0.950 . S
C2261 C2278 1.574 . S
C2261 C2280 1.368 . S
C2261 H2285 0.949 . S
H2262 C2266 0.949 . S
C2263 C2264 1.349 . S
C2263 C2265 1.327 . S
C2263 H2286 0.950 . S
C2264 C2263 1.349 . S
C2264 C2276 1.349 . S
C2265 C2263 1.327 . S
C2265 C2281 1.429 . S
C2265 H2287 0.950 . S
C2266 H2262 0.949 . S
C2266 C2274 1.574 . S
C2266 C2282 1.368 . S
H2267 C2275 0.950 . S
H2268 C2273 0.950 . S
H2269 C2274 0.949 . S
H2270 C2276 0.950 . S
H2271 C2277 0.950 . S
H2272 C2278 0.949 . S
C2273 H2268 0.950 . S
C2273 C2275 1.327 . S
C2273 C2279 1.429 . S
C2274 C2266 1.574 . S
C2274 H2269 0.949 . S
C2274 C2280 1.368 . S
C2275 C2259 1.349 . S
C2275 H2267 0.950 . S
C2275 C2273 1.327 . S
C2276 C2264 1.349 . S
C2276 H2270 0.950 . S
C2276 C2277 1.327 . S
C2277 H2271 0.950 . S
C2277 C2276 1.327 . S
C2277 C2281 1.429 . S
C2278 C2261 1.574 . S
C2278 H2272 0.949 . S
C2278 C2282 1.368 . S
C2279 C2260 1.429 . S
C2279 C2273 1.429 . S
C2279 C2280 1.523 . S
C2280 C2261 1.368 . S
C2280 C2274 1.368 . S
C2280 C2279 1.523 . S
C2281 C2265 1.429 . S
C2281 C2277 1.429 . S
C2281 C2282 1.523 . S
C2282 C2266 1.368 . S
C2282 C2278 1.368 . S
C2282 C2281 1.523 . S
H2283 C2258 0.950 . S
H2284 C2260 0.950 . S
H2285 C2261 0.949 . S
H2286 C2263 0.950 . S
H2287 C2265 0.950 . S
C2288 C2289 1.349 . S
C2288 C2290 1.327 . S
C2288 H2313 0.950 . S
C2289 C2288 1.349 . S
C2289 C2305 1.349 . S
C2290 C2288 1.327 . S
C2290 C2309 1.429 . S
C2290 H2314 0.950 . S
C2291 C2308 1.574 . S
C2291 C2310 1.368 . S
C2291 H2315 0.949 . S
H2292 C2296 0.949 . S
C2293 C2294 1.349 . S
C2293 C2295 1.327 . S
C2293 H2316 0.950 . S
C2294 C2293 1.349 . S
C2294 C2306 1.349 . S
C2295 C2293 1.327 . S
C2295 C2311 1.429 . S
C2295 H2317 0.950 . S
C2296 H2292 0.949 . S
C2296 C2304 1.574 . S
C2296 C2312 1.368 . S
H2297 C2305 0.950 . S
H2298 C2303 0.950 . S
H2299 C2304 0.949 . S
H2300 C2306 0.950 . S
H2301 C2307 0.950 . S
H2302 C2308 0.949 . S
C2303 H2298 0.950 . S
C2303 C2305 1.327 . S
C2303 C2309 1.429 . S
C2304 C2296 1.574 . S
C2304 H2299 0.949 . S
C2304 C2310 1.368 . S
C2305 C2289 1.349 . S
C2305 H2297 0.950 . S
C2305 C2303 1.327 . S
C2306 C2294 1.349 . S
C2306 H2300 0.950 . S
C2306 C2307 1.327 . S
C2307 H2301 0.950 . S
C2307 C2306 1.327 . S
C2307 C2311 1.429 . S
C2308 C2291 1.574 . S
C2308 H2302 0.949 . S
C2308 C2312 1.368 . S
C2309 C2290 1.429 . S
C2309 C2303 1.429 . S
C2309 C2310 1.523 . S
C2310 C2291 1.368 . S
C2310 C2304 1.368 . S
C2310 C2309 1.523 . S
C2311 C2295 1.429 . S
C2311 C2307 1.429 . S
C2311 C2312 1.523 1_565 S
C2312 C2296 1.368 . S
C2312 C2308 1.368 . S
C2312 C2311 1.523 1_545 S
H2313 C2288 0.950 . S
H2314 C2290 0.950 . S
H2315 C2291 0.949 . S
H2316 C2293 0.950 . S
H2317 C2295 0.950 . S
C2318 C2319 1.349 . S
C2318 C2320 1.327 . S
C2318 H2343 0.950 . S
C2319 C2318 1.349 . S
C2319 C2335 1.349 . S
C2320 C2318 1.327 . S
C2320 C2339 1.429 1_565 S
C2320 H2344 0.950 1_565 S
C2321 C2338 1.574 . S
C2321 C2340 1.368 . S
C2321 H2345 0.949 . S
H2322 C2326 0.949 . S
C2323 C2324 1.349 . S
C2323 C2325 1.327 . S
C2323 H2346 0.950 . S
C2324 C2323 1.349 . S
C2324 C2336 1.349 . S
C2325 C2323 1.327 . S
C2325 C2341 1.429 . S
C2325 H2347 0.950 . S
C2326 H2322 0.949 . S
C2326 C2334 1.574 . S
C2326 C2342 1.368 . S
H2327 C2335 0.950 . S
H2328 C2333 0.950 . S
H2329 C2334 0.949 . S
H2330 C2336 0.950 . S
H2331 C2337 0.950 . S
H2332 C2338 0.949 . S
C2333 H2328 0.950 . S
C2333 C2335 1.327 . S
C2333 C2339 1.429 1_565 S
C2334 C2326 1.574 . S
C2334 H2329 0.949 . S
C2334 C2340 1.368 . S
C2335 C2319 1.349 . S
C2335 H2327 0.950 . S
C2335 C2333 1.327 . S
C2336 C2324 1.349 . S
C2336 H2330 0.950 . S
C2336 C2337 1.327 . S
C2337 H2331 0.950 . S
C2337 C2336 1.327 . S
C2337 C2341 1.429 . S
C2338 C2321 1.574 . S
C2338 H2332 0.949 . S
C2338 C2342 1.368 . S
C2339 C2320 1.429 1_545 S
C2339 C2333 1.429 1_545 S
C2339 C2340 1.523 . S
C2340 C2321 1.368 . S
C2340 C2334 1.368 . S
C2340 C2339 1.523 . S
C2341 C2325 1.429 . S
C2341 C2337 1.429 . S
C2341 C2342 1.523 . S
C2342 C2326 1.368 . S
C2342 C2338 1.368 . S
C2342 C2341 1.523 . S
H2343 C2318 0.950 . S
H2344 C2320 0.950 1_545 S
H2345 C2321 0.949 . S
H2346 C2323 0.950 . S
H2347 C2325 0.950 . S
C2348 C2349 1.349 . S
C2348 C2350 1.327 . S
C2348 H2373 0.950 . S
C2349 C2348 1.349 . S
C2349 C2365 1.349 . S
C2350 C2348 1.327 . S
C2350 C2369 1.429 1_565 S
C2350 H2374 0.950 . S
C2351 C2368 1.574 . S
C2351 C2370 1.368 . S
C2351 H2375 0.949 . S
H2352 C2356 0.949 . S
C2353 C2354 1.349 . S
C2353 C2355 1.327 . S
C2353 H2376 0.950 . S
C2354 C2353 1.349 . S
C2354 C2366 1.349 . S
C2355 C2353 1.327 . S
C2355 C2371 1.429 . S
C2355 H2377 0.950 . S
C2356 H2352 0.949 . S
C2356 C2364 1.574 . S
C2356 C2372 1.368 . S
H2357 C2365 0.950 . S
H2358 C2363 0.950 1_545 S
H2359 C2364 0.949 . S
H2360 C2366 0.950 . S
H2361 C2367 0.950 . S
H2362 C2368 0.949 . S
C2363 H2358 0.950 1_565 S
C2363 C2365 1.327 . S
C2363 C2369 1.429 1_565 S
C2364 C2356 1.574 . S
C2364 H2359 0.949 . S
C2364 C2370 1.368 . S
C2365 C2349 1.349 . S
C2365 H2357 0.950 . S
C2365 C2363 1.327 . S
C2366 C2354 1.349 . S
C2366 H2360 0.950 . S
C2366 C2367 1.327 . S
C2367 H2361 0.950 . S
C2367 C2366 1.327 . S
C2367 C2371 1.429 . S
C2368 C2351 1.574 . S
C2368 H2362 0.949 . S
C2368 C2372 1.368 . S
C2369 C2350 1.429 1_545 S
C2369 C2363 1.429 1_545 S
C2369 C2370 1.523 . S
C2370 C2351 1.368 . S
C2370 C2364 1.368 . S
C2370 C2369 1.523 . S
C2371 C2355 1.429 . S
C2371 C2367 1.429 . S
C2371 C2372 1.523 . S
C2372 C2356 1.368 . S
C2372 C2368 1.368 . S
C2372 C2371 1.523 . S
H2373 C2348 0.950 . S
H2374 C2350 0.950 . S
H2375 C2351 0.949 . S
H2376 C2353 0.950 . S
H2377 C2355 0.950 . S
C2378 C2379 1.349 . S
C2378 C2380 1.327 . S
C2378 H2403 0.950 . S
C2379 C2378 1.349 . S
C2379 C2395 1.349 . S
C2380 C2378 1.327 . S
C2380 C2399 1.429 . S
C2380 H2404 0.950 . S
C2381 C2398 1.574 . S
C2381 C2400 1.368 . S
C2381 H2405 0.949 . S
H2382 C2386 0.949 . S
C2383 C2384 1.349 . S
C2383 C2385 1.327 . S
C2383 H2406 0.950 . S
C2384 C2383 1.349 . S
C2384 C2396 1.349 . S
C2385 C2383 1.327 . S
C2385 C2401 1.429 . S
C2385 H2407 0.950 . S
C2386 H2382 0.949 . S
C2386 C2394 1.574 . S
C2386 C2402 1.368 . S
H2387 C2395 0.950 . S
H2388 C2393 0.950 . S
H2389 C2394 0.949 . S
H2390 C2396 0.950 . S
H2391 C2397 0.950 . S
H2392 C2398 0.949 . S
C2393 H2388 0.950 . S
C2393 C2395 1.327 . S
C2393 C2399 1.429 . S
C2394 C2386 1.574 . S
C2394 H2389 0.949 . S
C2394 C2400 1.368 . S
C2395 C2379 1.349 . S
C2395 H2387 0.950 . S
C2395 C2393 1.327 . S
C2396 C2384 1.349 . S
C2396 H2390 0.950 . S
C2396 C2397 1.327 . S
C2397 H2391 0.950 . S
C2397 C2396 1.327 . S
C2397 C2401 1.429 . S
C2398 C2381 1.574 . S
C2398 H2392 0.949 . S
C2398 C2402 1.368 . S
C2399 C2380 1.429 . S
C2399 C2393 1.429 . S
C2399 C2400 1.523 1_565 S
C2400 C2381 1.368 . S
C2400 C2394 1.368 . S
C2400 C2399 1.523 1_545 S
C2401 C2385 1.429 . S
C2401 C2397 1.429 . S
C2401 C2402 1.523 . S
C2402 C2386 1.368 . S
C2402 C2398 1.368 . S
C2402 C2401 1.523 . S
H2403 C2378 0.950 . S
H2404 C2380 0.950 . S
H2405 C2381 0.949 . S
H2406 C2383 0.950 . S
H2407 C2385 0.950 . S
C2408 C2409 1.349 . S
C2408 C2410 1.327 . S
C2408 H2433 0.950 . S
C2409 C2408 1.349 . S
C2409 C2425 1.349 . S
C2410 C2408 1.327 . S
C2410 C2429 1.429 . S
C2410 H2434 0.950 . S
C2411 C2428 1.574 . S
C2411 C2430 1.368 . S
C2411 H2435 0.949 . S
H2412 C2416 0.949 . S
C2413 C2414 1.349 . S
C2413 C2415 1.327 . S
C2413 H2436 0.950 . S
C2414 C2413 1.349 . S
C2414 C2426 1.349 . S
C2415 C2413 1.327 . S
C2415 C2431 1.429 . S
C2415 H2437 0.950 . S
C2416 H2412 0.949 . S
C2416 C2424 1.574 . S
C2416 C2432 1.368 . S
H2417 C2425 0.950 . S
H2418 C2423 0.950 . S
H2419 C2424 0.949 . S
H2420 C2426 0.950 . S
H2421 C2427 0.950 . S
H2422 C2428 0.949 . S
C2423 H2418 0.950 . S
C2423 C2425 1.327 . S
C2423 C2429 1.429 . S
C2424 C2416 1.574 . S
C2424 H2419 0.949 . S
C2424 C2430 1.368 . S
C2425 C2409 1.349 . S
C2425 H2417 0.950 . S
C2425 C2423 1.327 . S
C2426 C2414 1.349 . S
C2426 H2420 0.950 . S
C2426 C2427 1.327 . S
C2427 H2421 0.950 . S
C2427 C2426 1.327 . S
C2427 C2431 1.429 . S
C2428 C2411 1.574 . S
C2428 H2422 0.949 . S
C2428 C2432 1.368 . S
C2429 C2410 1.429 . S
C2429 C2423 1.429 . S
C2429 C2430 1.523 . S
C2430 C2411 1.368 . S
C2430 C2424 1.368 . S
C2430 C2429 1.523 . S
C2431 C2415 1.429 . S
C2431 C2427 1.429 . S
C2431 C2432 1.523 1_545 S
C2432 C2416 1.368 . S
C2432 C2428 1.368 . S
C2432 C2431 1.523 1_565 S
H2433 C2408 0.950 . S
H2434 C2410 0.950 . S
H2435 C2411 0.949 . S
H2436 C2413 0.950 . S
H2437 C2415 0.950 . S
C2438 C2439 1.349 . S
C2438 C2440 1.327 . S
C2438 H2463 0.950 . S
C2439 C2438 1.349 . S
C2439 C2455 1.349 . S
C2440 C2438 1.327 . S
C2440 C2459 1.429 1_545 S
C2440 H2464 0.950 1_545 S
C2441 C2458 1.574 . S
C2441 C2460 1.368 . S
C2441 H2465 0.949 . S
H2442 C2446 0.949 . S
C2443 C2444 1.349 . S
C2443 C2445 1.327 . S
C2443 H2466 0.950 . S
C2444 C2443 1.349 . S
C2444 C2456 1.349 . S
C2445 C2443 1.327 . S
C2445 C2461 1.429 . S
C2445 H2467 0.950 . S
C2446 H2442 0.949 . S
C2446 C2454 1.574 . S
C2446 C2462 1.368 . S
H2447 C2455 0.950 . S
H2448 C2453 0.950 . S
H2449 C2454 0.949 . S
H2450 C2456 0.950 . S
H2451 C2457 0.950 . S
H2452 C2458 0.949 . S
C2453 H2448 0.950 . S
C2453 C2455 1.327 . S
C2453 C2459 1.429 1_545 S
C2454 C2446 1.574 . S
C2454 H2449 0.949 . S
C2454 C2460 1.368 . S
C2455 C2439 1.349 . S
C2455 H2447 0.950 . S
C2455 C2453 1.327 . S
C2456 C2444 1.349 . S
C2456 H2450 0.950 . S
C2456 C2457 1.327 . S
C2457 H2451 0.950 . S
C2457 C2456 1.327 . S
C2457 C2461 1.429 . S
C2458 C2441 1.574 . S
C2458 H2452 0.949 . S
C2458 C2462 1.368 . S
C2459 C2440 1.429 1_565 S
C2459 C2453 1.429 1_565 S
C2459 C2460 1.523 . S
C2460 C2441 1.368 . S
C2460 C2454 1.368 . S
C2460 C2459 1.523 . S
C2461 C2445 1.429 . S
C2461 C2457 1.429 . S
C2461 C2462 1.523 . S
C2462 C2446 1.368 . S
C2462 C2458 1.368 . S
C2462 C2461 1.523 . S
H2463 C2438 0.950 . S
H2464 C2440 0.950 1_565 S
H2465 C2441 0.949 . S
H2466 C2443 0.950 . S
H2467 C2445 0.950 . S
C2468 C2469 1.349 . S
C2468 C2470 1.327 . S
C2468 H2493 0.950 . S
C2469 C2468 1.349 . S
C2469 C2485 1.349 . S
C2470 C2468 1.327 . S
C2470 C2489 1.429 1_545 S
C2470 H2494 0.950 . S
C2471 C2488 1.574 . S
C2471 C2490 1.368 . S
C2471 H2495 0.949 . S
H2472 C2476 0.949 . S
C2473 C2474 1.349 . S
C2473 C2475 1.327 . S
C2473 H2496 0.950 . S
C2474 C2473 1.349 . S
C2474 C2486 1.349 . S
C2475 C2473 1.327 . S
C2475 C2491 1.429 . S
C2475 H2497 0.950 . S
C2476 H2472 0.949 . S
C2476 C2484 1.574 . S
C2476 C2492 1.368 . S
H2477 C2485 0.950 . S
H2478 C2483 0.950 1_565 S
H2479 C2484 0.949 . S
H2480 C2486 0.950 . S
H2481 C2487 0.950 . S
H2482 C2488 0.949 . S
C2483 H2478 0.950 1_545 S
C2483 C2485 1.327 . S
C2483 C2489 1.429 1_545 S
C2484 C2476 1.574 . S
C2484 H2479 0.949 . S
C2484 C2490 1.368 . S
C2485 C2469 1.349 . S
C2485 H2477 0.950 . S
C2485 C2483 1.327 . S
C2486 C2474 1.349 . S
C2486 H2480 0.950 . S
C2486 C2487 1.327 . S
C2487 H2481 0.950 . S
C2487 C2486 1.327 . S
C2487 C2491 1.429 . S
C2488 C2471 1.574 . S
C2488 H2482 0.949 . S
C2488 C2492 1.368 . S
C2489 C2470 1.429 1_565 S
C2489 C2483 1.429 1_565 S
C2489 C2490 1.523 . S
C2490 C2471 1.368 . S
C2490 C2484 1.368 . S
C2490 C2489 1.523 . S
C2491 C2475 1.429 . S
C2491 C2487 1.429 . S
C2491 C2492 1.523 . S
C2492 C2476 1.368 . S
C2492 C2488 1.368 . S
C2492 C2491 1.523 . S
H2493 C2468 0.950 . S
H2494 C2470 0.950 . S
H2495 C2471 0.949 . S
H2496 C2473 0.950 . S
H2497 C2475 0.950 . S
C2498 C2499 1.349 . S
C2498 C2500 1.327 . S
C2498 H2523 0.950 . S
C2499 C2498 1.349 . S
C2499 C2515 1.349 . S
C2500 C2498 1.327 . S
C2500 C2519 1.429 . S
C2500 H2524 0.950 . S
C2501 C2518 1.574 . S
C2501 C2520 1.368 . S
C2501 H2525 0.949 . S
H2502 C2506 0.949 . S
C2503 C2504 1.349 . S
C2503 C2505 1.327 . S
C2503 H2526 0.950 . S
C2504 C2503 1.349 . S
C2504 C2516 1.349 . S
C2505 C2503 1.327 . S
C2505 C2521 1.429 . S
C2505 H2527 0.950 . S
C2506 H2502 0.949 . S
C2506 C2514 1.574 . S
C2506 C2522 1.368 . S
H2507 C2515 0.950 . S
H2508 C2513 0.950 . S
H2509 C2514 0.949 . S
H2510 C2516 0.950 . S
H2511 C2517 0.950 . S
H2512 C2518 0.949 . S
C2513 H2508 0.950 . S
C2513 C2515 1.327 . S
C2513 C2519 1.429 . S
C2514 C2506 1.574 . S
C2514 H2509 0.949 . S
C2514 C2520 1.368 . S
C2515 C2499 1.349 . S
C2515 H2507 0.950 . S
C2515 C2513 1.327 . S
C2516 C2504 1.349 . S
C2516 H2510 0.950 . S
C2516 C2517 1.327 . S
C2517 H2511 0.950 . S
C2517 C2516 1.327 . S
C2517 C2521 1.429 . S
C2518 C2501 1.574 . S
C2518 H2512 0.949 . S
C2518 C2522 1.368 . S
C2519 C2500 1.429 . S
C2519 C2513 1.429 . S
C2519 C2520 1.523 . S
C2520 C2501 1.368 . S
C2520 C2514 1.368 . S
C2520 C2519 1.523 . S
C2521 C2505 1.429 . S
C2521 C2517 1.429 . S
C2521 C2522 1.523 1_545 S
C2522 C2506 1.368 . S
C2522 C2518 1.368 . S
C2522 C2521 1.523 1_565 S
H2523 C2498 0.950 . S
H2524 C2500 0.950 . S
H2525 C2501 0.949 . S
H2526 C2503 0.950 . S
H2527 C2505 0.950 . S
C2528 C2529 1.349 . S
C2528 C2530 1.327 . S
C2528 H2553 0.950 . S
C2529 C2528 1.349 . S
C2529 C2545 1.349 . S
C2530 C2528 1.327 . S
C2530 C2549 1.429 . S
C2530 H2554 0.950 . S
C2531 C2548 1.574 . S
C2531 C2550 1.368 . S
C2531 H2555 0.949 . S
H2532 C2536 0.949 . S
C2533 C2534 1.349 . S
C2533 C2535 1.327 . S
C2533 H2556 0.950 . S
C2534 C2533 1.349 . S
C2534 C2546 1.349 . S
C2535 C2533 1.327 . S
C2535 C2551 1.429 . S
C2535 H2557 0.950 . S
C2536 H2532 0.949 . S
C2536 C2544 1.574 . S
C2536 C2552 1.368 . S
H2537 C2545 0.950 . S
H2538 C2543 0.950 . S
H2539 C2544 0.949 . S
H2540 C2546 0.950 . S
H2541 C2547 0.950 . S
H2542 C2548 0.949 . S
C2543 H2538 0.950 . S
C2543 C2545 1.327 . S
C2543 C2549 1.429 . S
C2544 C2536 1.574 . S
C2544 H2539 0.949 . S
C2544 C2550 1.368 . S
C2545 C2529 1.349 . S
C2545 H2537 0.950 . S
C2545 C2543 1.327 . S
C2546 C2534 1.349 . S
C2546 H2540 0.950 . S
C2546 C2547 1.327 . S
C2547 H2541 0.950 . S
C2547 C2546 1.327 . S
C2547 C2551 1.429 . S
C2548 C2531 1.574 . S
C2548 H2542 0.949 . S
C2548 C2552 1.368 . S
C2549 C2530 1.429 . S
C2549 C2543 1.429 . S
C2549 C2550 1.523 . S
C2550 C2531 1.368 . S
C2550 C2544 1.368 . S
C2550 C2549 1.523 . S
C2551 C2535 1.429 . S
C2551 C2547 1.429 . S
C2551 C2552 1.523 . S
C2552 C2536 1.368 . S
C2552 C2548 1.368 . S
C2552 C2551 1.523 . S
H2553 C2528 0.950 . S
H2554 C2530 0.950 . S
H2555 C2531 0.949 . S
H2556 C2533 0.950 . S
H2557 C2535 0.950 . S
C2558 C2559 1.349 . S
C2558 C2560 1.327 . S
C2558 H2583 0.950 . S
C2559 C2558 1.349 . S
C2559 C2575 1.349 . S
C2560 C2558 1.327 . S
C2560 C2579 1.429 . S
C2560 H2584 0.950 . S
C2561 C2578 1.574 . S
C2561 C2580 1.368 . S
C2561 H2585 0.949 . S
H2562 C2566 0.949 . S
C2563 C2564 1.349 . S
C2563 C2565 1.327 . S
C2563 H2586 0.950 . S
C2564 C2563 1.349 . S
C2564 C2576 1.349 . S
C2565 C2563 1.327 . S
C2565 C2581 1.429 . S
C2565 H2587 0.950 . S
C2566 H2562 0.949 . S
C2566 C2574 1.574 . S
C2566 C2582 1.368 . S
H2567 C2575 0.950 . S
H2568 C2573 0.950 . S
H2569 C2574 0.949 . S
H2570 C2576 0.950 . S
H2571 C2577 0.950 . S
H2572 C2578 0.949 . S
C2573 H2568 0.950 . S
C2573 C2575 1.327 . S
C2573 C2579 1.429 . S
C2574 C2566 1.574 . S
C2574 H2569 0.949 . S
C2574 C2580 1.368 . S
C2575 C2559 1.349 . S
C2575 H2567 0.950 . S
C2575 C2573 1.327 . S
C2576 C2564 1.349 . S
C2576 H2570 0.950 . S
C2576 C2577 1.327 . S
C2577 H2571 0.950 . S
C2577 C2576 1.327 . S
C2577 C2581 1.429 . S
C2578 C2561 1.574 . S
C2578 H2572 0.949 . S
C2578 C2582 1.368 . S
C2579 C2560 1.429 . S
C2579 C2573 1.429 . S
C2579 C2580 1.523 . S
C2580 C2561 1.368 . S
C2580 C2574 1.368 . S
C2580 C2579 1.523 . S
C2581 C2565 1.429 . S
C2581 C2577 1.429 . S
C2581 C2582 1.523 . S
C2582 C2566 1.368 . S
C2582 C2578 1.368 . S
C2582 C2581 1.523 . S
H2583 C2558 0.950 . S
H2584 C2560 0.950 . S
H2585 C2561 0.949 . S
H2586 C2563 0.950 . S
H2587 C2565 0.950 . S
C2588 C2589 1.349 . S
C2588 C2590 1.327 . S
C2588 H2613 0.950 . S
C2589 C2588 1.349 . S
C2589 C2605 1.349 . S
C2590 C2588 1.327 . S
C2590 C2609 1.429 . S
C2590 H2614 0.950 . S
C2591 C2608 1.574 . S
C2591 C2610 1.368 . S
C2591 H2615 0.949 . S
H2592 C2596 0.949 . S
C2593 C2594 1.349 . S
C2593 C2595 1.327 . S
C2593 H2616 0.950 . S
C2594 C2593 1.349 . S
C2594 C2606 1.349 . S
C2595 C2593 1.327 . S
C2595 C2611 1.429 . S
C2595 H2617 0.950 . S
C2596 H2592 0.949 . S
C2596 C2604 1.574 . S
C2596 C2612 1.368 . S
H2597 C2605 0.950 . S
H2598 C2603 0.950 . S
H2599 C2604 0.949 . S
H2600 C2606 0.950 . S
H2601 C2607 0.950 . S
H2602 C2608 0.949 . S
C2603 H2598 0.950 . S
C2603 C2605 1.327 . S
C2603 C2609 1.429 . S
C2604 C2596 1.574 . S
C2604 H2599 0.949 . S
C2604 C2610 1.368 . S
C2605 C2589 1.349 . S
C2605 H2597 0.950 . S
C2605 C2603 1.327 . S
C2606 C2594 1.349 . S
C2606 H2600 0.950 . S
C2606 C2607 1.327 . S
C2607 H2601 0.950 . S
C2607 C2606 1.327 . S
C2607 C2611 1.429 . S
C2608 C2591 1.574 . S
C2608 H2602 0.949 . S
C2608 C2612 1.368 . S
C2609 C2590 1.429 . S
C2609 C2603 1.429 . S
C2609 C2610 1.523 . S
C2610 C2591 1.368 . S
C2610 C2604 1.368 . S
C2610 C2609 1.523 . S
C2611 C2595 1.429 . S
C2611 C2607 1.429 . S
C2611 C2612 1.523 . S
C2612 C2596 1.368 . S
C2612 C2608 1.368 . S
C2612 C2611 1.523 . S
H2613 C2588 0.950 . S
H2614 C2590 0.950 . S
H2615 C2591 0.949 . S
H2616 C2593 0.950 . S
H2617 C2595 0.950 . S
C2618 C2619 1.349 . S
C2618 C2620 1.327 . S
C2618 H2643 0.950 . S
C2619 C2618 1.349 . S
C2619 C2635 1.349 . S
C2620 C2618 1.327 . S
C2620 C2639 1.429 . S
C2620 H2644 0.950 . S
C2621 C2638 1.574 . S
C2621 C2640 1.368 . S
C2621 H2645 0.949 . S
H2622 C2626 0.949 . S
C2623 C2624 1.349 . S
C2623 C2625 1.327 . S
C2623 H2646 0.950 . S
C2624 C2623 1.349 . S
C2624 C2636 1.349 . S
C2625 C2623 1.327 . S
C2625 C2641 1.429 . S
C2625 H2647 0.950 . S
C2626 H2622 0.949 . S
C2626 C2634 1.574 . S
C2626 C2642 1.368 . S
H2627 C2635 0.950 . S
H2628 C2633 0.950 . S
H2629 C2634 0.949 . S
H2630 C2636 0.950 . S
H2631 C2637 0.950 . S
H2632 C2638 0.949 . S
C2633 H2628 0.950 . S
C2633 C2635 1.327 . S
C2633 C2639 1.429 . S
C2634 C2626 1.574 . S
C2634 H2629 0.949 . S
C2634 C2640 1.368 . S
C2635 C2619 1.349 . S
C2635 H2627 0.950 . S
C2635 C2633 1.327 . S
C2636 C2624 1.349 . S
C2636 H2630 0.950 . S
C2636 C2637 1.327 . S
C2637 H2631 0.950 . S
C2637 C2636 1.327 . S
C2637 C2641 1.429 . S
C2638 C2621 1.574 . S
C2638 H2632 0.949 . S
C2638 C2642 1.368 . S
C2639 C2620 1.429 . S
C2639 C2633 1.429 . S
C2639 C2640 1.523 . S
C2640 C2621 1.368 . S
C2640 C2634 1.368 . S
C2640 C2639 1.523 . S
C2641 C2625 1.429 . S
C2641 C2637 1.429 . S
C2641 C2642 1.523 . S
C2642 C2626 1.368 . S
C2642 C2638 1.368 . S
C2642 C2641 1.523 . S
H2643 C2618 0.950 . S
H2644 C2620 0.950 . S
H2645 C2621 0.949 . S
H2646 C2623 0.950 . S
H2647 C2625 0.950 . S
C2648 C2649 1.349 . S
C2648 C2650 1.327 . S
C2648 H2673 0.950 . S
C2649 C2648 1.349 . S
C2649 C2665 1.349 . S
C2650 C2648 1.327 . S
C2650 C2669 1.429 . S
C2650 H2674 0.950 . S
C2651 C2668 1.574 . S
C2651 C2670 1.368 . S
C2651 H2675 0.949 . S
H2652 C2656 0.949 . S
C2653 C2654 1.349 . S
C2653 C2655 1.327 . S
C2653 H2676 0.950 . S
C2654 C2653 1.349 . S
C2654 C2666 1.349 . S
C2655 C2653 1.327 . S
C2655 C2671 1.429 . S
C2655 H2677 0.950 . S
C2656 H2652 0.949 . S
C2656 C2664 1.574 . S
C2656 C2672 1.368 . S
H2657 C2665 0.950 . S
H2658 C2663 0.950 . S
H2659 C2664 0.949 . S
H2660 C2666 0.950 . S
H2661 C2667 0.950 . S
H2662 C2668 0.949 . S
C2663 H2658 0.950 . S
C2663 C2665 1.327 . S
C2663 C2669 1.429 . S
C2664 C2656 1.574 . S
C2664 H2659 0.949 . S
C2664 C2670 1.368 . S
C2665 C2649 1.349 . S
C2665 H2657 0.950 . S
C2665 C2663 1.327 . S
C2666 C2654 1.349 . S
C2666 H2660 0.950 . S
C2666 C2667 1.327 . S
C2667 H2661 0.950 . S
C2667 C2666 1.327 . S
C2667 C2671 1.429 . S
C2668 C2651 1.574 . S
C2668 H2662 0.949 . S
C2668 C2672 1.368 . S
C2669 C2650 1.429 . S
C2669 C2663 1.429 . S
C2669 C2670 1.523 . S
C2670 C2651 1.368 . S
C2670 C2664 1.368 . S
C2670 C2669 1.523 . S
C2671 C2655 1.429 . S
C2671 C2667 1.429 . S
C2671 C2672 1.523 . S
C2672 C2656 1.368 . S
C2672 C2668 1.368 . S
C2672 C2671 1.523 . S
H2673 C2648 0.950 . S
H2674 C2650 0.950 . S
H2675 C2651 0.949 . S
H2676 C2653 0.950 . S
H2677 C2655 0.950 . S
C2678 C2679 1.349 . S
C2678 C2680 1.327 . S
C2678 H2703 0.950 . S
C2679 C2678 1.349 . S
C2679 C2695 1.349 . S
C2680 C2678 1.327 . S
C2680 C2699 1.429 . S
C2680 H2704 0.950 . S
C2681 C2698 1.574 . S
C2681 C2700 1.368 . S
C2681 H2705 0.949 . S
H2682 C2686 0.949 . S
C2683 C2684 1.349 . S
C2683 C2685 1.327 . S
C2683 H2706 0.950 . S
C2684 C2683 1.349 . S
C2684 C2696 1.349 . S
C2685 C2683 1.327 . S
C2685 C2701 1.429 . S
C2685 H2707 0.950 . S
C2686 H2682 0.949 . S
C2686 C2694 1.574 . S
C2686 C2702 1.368 . S
H2687 C2695 0.950 . S
H2688 C2693 0.950 . S
H2689 C2694 0.949 . S
H2690 C2696 0.950 . S
H2691 C2697 0.950 . S
H2692 C2698 0.949 . S
C2693 H2688 0.950 . S
C2693 C2695 1.327 . S
C2693 C2699 1.429 . S
C2694 C2686 1.574 . S
C2694 H2689 0.949 . S
C2694 C2700 1.368 . S
C2695 C2679 1.349 . S
C2695 H2687 0.950 . S
C2695 C2693 1.327 . S
C2696 C2684 1.349 . S
C2696 H2690 0.950 . S
C2696 C2697 1.327 . S
C2697 H2691 0.950 . S
C2697 C2696 1.327 . S
C2697 C2701 1.429 . S
C2698 C2681 1.574 . S
C2698 H2692 0.949 . S
C2698 C2702 1.368 . S
C2699 C2680 1.429 . S
C2699 C2693 1.429 . S
C2699 C2700 1.523 . S
C2700 C2681 1.368 . S
C2700 C2694 1.368 . S
C2700 C2699 1.523 . S
C2701 C2685 1.429 . S
C2701 C2697 1.429 . S
C2701 C2702 1.523 . S
C2702 C2686 1.368 . S
C2702 C2698 1.368 . S
C2702 C2701 1.523 . S
H2703 C2678 0.950 . S
H2704 C2680 0.950 . S
H2705 C2681 0.949 . S
H2706 C2683 0.950 . S
H2707 C2685 0.950 . S
C2708 C2709 1.349 . S
C2708 C2710 1.327 . S
C2708 H2733 0.950 . S
C2709 C2708 1.349 . S
C2709 C2725 1.349 . S
C2710 C2708 1.327 . S
C2710 C2729 1.429 . S
C2710 H2734 0.950 . S
C2711 C2728 1.574 . S
C2711 C2730 1.368 . S
C2711 H2735 0.949 . S
H2712 C2716 0.949 . S
C2713 C2714 1.349 . S
C2713 C2715 1.327 . S
C2713 H2736 0.950 . S
C2714 C2713 1.349 . S
C2714 C2726 1.349 . S
C2715 C2713 1.327 . S
C2715 C2731 1.429 . S
C2715 H2737 0.950 . S
C2716 H2712 0.949 . S
C2716 C2724 1.574 . S
C2716 C2732 1.368 . S
H2717 C2725 0.950 . S
H2718 C2723 0.950 . S
H2719 C2724 0.949 . S
H2720 C2726 0.950 . S
H2721 C2727 0.950 . S
H2722 C2728 0.949 . S
C2723 H2718 0.950 . S
C2723 C2725 1.327 . S
C2723 C2729 1.429 . S
C2724 C2716 1.574 . S
C2724 H2719 0.949 . S
C2724 C2730 1.368 . S
C2725 C2709 1.349 . S
C2725 H2717 0.950 . S
C2725 C2723 1.327 . S
C2726 C2714 1.349 . S
C2726 H2720 0.950 . S
C2726 C2727 1.327 . S
C2727 H2721 0.950 . S
C2727 C2726 1.327 . S
C2727 C2731 1.429 . S
C2728 C2711 1.574 . S
C2728 H2722 0.949 . S
C2728 C2732 1.368 . S
C2729 C2710 1.429 . S
C2729 C2723 1.429 . S
C2729 C2730 1.523 . S
C2730 C2711 1.368 . S
C2730 C2724 1.368 . S
C2730 C2729 1.523 . S
C2731 C2715 1.429 . S
C2731 C2727 1.429 . S
C2731 C2732 1.523 . S
C2732 C2716 1.368 . S
C2732 C2728 1.368 . S
C2732 C2731 1.523 . S
H2733 C2708 0.950 . S
H2734 C2710 0.950 . S
H2735 C2711 0.949 . S
H2736 C2713 0.950 . S
H2737 C2715 0.950 . S
C2738 C2739 1.349 . S
C2738 C2740 1.327 . S
C2738 H2763 0.950 . S
C2739 C2738 1.349 . S
C2739 C2755 1.349 . S
C2740 C2738 1.327 . S
C2740 C2759 1.429 . S
C2740 H2764 0.950 . S
C2741 C2758 1.574 . S
C2741 C2760 1.368 . S
C2741 H2765 0.949 . S
H2742 C2746 0.949 . S
C2743 C2744 1.349 . S
C2743 C2745 1.327 . S
C2743 H2766 0.950 . S
C2744 C2743 1.349 . S
C2744 C2756 1.349 . S
C2745 C2743 1.327 . S
C2745 C2761 1.429 . S
C2745 H2767 0.950 . S
C2746 H2742 0.949 . S
C2746 C2754 1.574 . S
C2746 C2762 1.368 . S
H2747 C2755 0.950 . S
H2748 C2753 0.950 . S
H2749 C2754 0.949 . S
H2750 C2756 0.950 . S
H2751 C2757 0.950 . S
H2752 C2758 0.949 . S
C2753 H2748 0.950 . S
C2753 C2755 1.327 . S
C2753 C2759 1.429 . S
C2754 C2746 1.574 . S
C2754 H2749 0.949 . S
C2754 C2760 1.368 . S
C2755 C2739 1.349 . S
C2755 H2747 0.950 . S
C2755 C2753 1.327 . S
C2756 C2744 1.349 . S
C2756 H2750 0.950 . S
C2756 C2757 1.327 . S
C2757 H2751 0.950 . S
C2757 C2756 1.327 . S
C2757 C2761 1.429 . S
C2758 C2741 1.574 . S
C2758 H2752 0.949 . S
C2758 C2762 1.368 . S
C2759 C2740 1.429 . S
C2759 C2753 1.429 . S
C2759 C2760 1.523 . S
C2760 C2741 1.368 . S
C2760 C2754 1.368 . S
C2760 C2759 1.523 . S
C2761 C2745 1.429 . S
C2761 C2757 1.429 . S
C2761 C2762 1.523 . S
C2762 C2746 1.368 . S
C2762 C2758 1.368 . S
C2762 C2761 1.523 . S
H2763 C2738 0.950 . S
H2764 C2740 0.950 . S
H2765 C2741 0.949 . S
H2766 C2743 0.950 . S
H2767 C2745 0.950 . S
C2768 C2769 1.349 . S
C2768 C2770 1.327 . S
C2768 H2793 0.950 . S
C2769 C2768 1.349 . S
C2769 C2785 1.349 . S
C2770 C2768 1.327 . S
C2770 C2789 1.429 . S
C2770 H2794 0.950 . S
C2771 C2788 1.574 . S
C2771 C2790 1.368 . S
C2771 H2795 0.949 . S
H2772 C2776 0.949 . S
C2773 C2774 1.349 . S
C2773 C2775 1.327 . S
C2773 H2796 0.950 . S
C2774 C2773 1.349 . S
C2774 C2786 1.349 . S
C2775 C2773 1.327 . S
C2775 C2791 1.429 . S
C2775 H2797 0.950 . S
C2776 H2772 0.949 . S
C2776 C2784 1.574 . S
C2776 C2792 1.368 . S
H2777 C2785 0.950 . S
H2778 C2783 0.950 . S
H2779 C2784 0.949 . S
H2780 C2786 0.950 . S
H2781 C2787 0.950 . S
H2782 C2788 0.949 . S
C2783 H2778 0.950 . S
C2783 C2785 1.327 . S
C2783 C2789 1.429 . S
C2784 C2776 1.574 . S
C2784 H2779 0.949 . S
C2784 C2790 1.368 . S
C2785 C2769 1.349 . S
C2785 H2777 0.950 . S
C2785 C2783 1.327 . S
C2786 C2774 1.349 . S
C2786 H2780 0.950 . S
C2786 C2787 1.327 . S
C2787 H2781 0.950 . S
C2787 C2786 1.327 . S
C2787 C2791 1.429 . S
C2788 C2771 1.574 . S
C2788 H2782 0.949 . S
C2788 C2792 1.368 . S
C2789 C2770 1.429 . S
C2789 C2783 1.429 . S
C2789 C2790 1.523 1_565 S
C2790 C2771 1.368 . S
C2790 C2784 1.368 . S
C2790 C2789 1.523 1_545 S
C2791 C2775 1.429 . S
C2791 C2787 1.429 . S
C2791 C2792 1.523 . S
C2792 C2776 1.368 . S
C2792 C2788 1.368 . S
C2792 C2791 1.523 . S
H2793 C2768 0.950 . S
H2794 C2770 0.950 . S
H2795 C2771 0.949 . S
H2796 C2773 0.950 . S
H2797 C2775 0.950 . S
C2798 C2799 1.349 . S
C2798 C2800 1.327 . S
C2798 H2823 0.950 . S
C2799 C2798 1.349 . S
C2799 C2815 1.349 . S
C2800 C2798 1.327 . S
C2800 C2819 1.429 1_565 S
C2800 H2824 0.950 1_565 S
C2801 C2818 1.574 . S
C2801 C2820 1.368 . S
C2801 H2825 0.949 . S
H2802 C2806 0.949 . S
C2803 C2804 1.349 . S
C2803 C2805 1.327 . S
C2803 H2826 0.950 . S
C2804 C2803 1.349 . S
C2804 C2816 1.349 . S
C2805 C2803 1.327 . S
C2805 C2821 1.429 . S
C2805 H2827 0.950 . S
C2806 H2802 0.949 . S
C2806 C2814 1.574 . S
C2806 C2822 1.368 . S
H2807 C2815 0.950 . S
H2808 C2813 0.950 . S
H2809 C2814 0.949 . S
H2810 C2816 0.950 . S
H2811 C2817 0.950 . S
H2812 C2818 0.949 . S
C2813 H2808 0.950 . S
C2813 C2815 1.327 . S
C2813 C2819 1.429 1_565 S
C2814 C2806 1.574 . S
C2814 H2809 0.949 . S
C2814 C2820 1.368 . S
C2815 C2799 1.349 . S
C2815 H2807 0.950 . S
C2815 C2813 1.327 . S
C2816 C2804 1.349 . S
C2816 H2810 0.950 . S
C2816 C2817 1.327 . S
C2817 H2811 0.950 . S
C2817 C2816 1.327 . S
C2817 C2821 1.429 . S
C2818 C2801 1.574 . S
C2818 H2812 0.949 . S
C2818 C2822 1.368 . S
C2819 C2800 1.429 1_545 S
C2819 C2813 1.429 1_545 S
C2819 C2820 1.523 . S
C2820 C2801 1.368 . S
C2820 C2814 1.368 . S
C2820 C2819 1.523 . S
C2821 C2805 1.429 . S
C2821 C2817 1.429 . S
C2821 C2822 1.523 . S
C2822 C2806 1.368 . S
C2822 C2818 1.368 . S
C2822 C2821 1.523 . S
H2823 C2798 0.950 . S
H2824 C2800 0.950 1_545 S
H2825 C2801 0.949 . S
H2826 C2803 0.950 . S
H2827 C2805 0.950 . S
C2828 C2829 1.349 . S
C2828 C2830 1.327 . S
C2828 H2853 0.950 . S
C2829 C2828 1.349 . S
C2829 C2845 1.349 . S
C2830 C2828 1.327 . S
C2830 C2849 1.429 1_565 S
C2830 H2854 0.950 1_565 S
C2831 C2848 1.574 . S
C2831 C2850 1.368 . S
C2831 H2855 0.949 . S
H2832 C2836 0.949 . S
C2833 C2834 1.349 . S
C2833 C2835 1.327 . S
C2833 H2856 0.950 . S
C2834 C2833 1.349 . S
C2834 C2846 1.349 . S
C2835 C2833 1.327 . S
C2835 C2851 1.429 . S
C2835 H2857 0.950 . S
C2836 H2832 0.949 . S
C2836 C2844 1.574 . S
C2836 C2852 1.368 . S
H2837 C2845 0.950 . S
H2838 C2843 0.950 . S
H2839 C2844 0.949 . S
H2840 C2846 0.950 . S
H2841 C2847 0.950 . S
H2842 C2848 0.949 . S
C2843 H2838 0.950 . S
C2843 C2845 1.327 . S
C2843 C2849 1.429 1_565 S
C2844 C2836 1.574 . S
C2844 H2839 0.949 . S
C2844 C2850 1.368 . S
C2845 C2829 1.349 . S
C2845 H2837 0.950 . S
C2845 C2843 1.327 . S
C2846 C2834 1.349 . S
C2846 H2840 0.950 . S
C2846 C2847 1.327 . S
C2847 H2841 0.950 . S
C2847 C2846 1.327 . S
C2847 C2851 1.429 . S
C2848 C2831 1.574 . S
C2848 H2842 0.949 . S
C2848 C2852 1.368 . S
C2849 C2830 1.429 1_545 S
C2849 C2843 1.429 1_545 S
C2849 C2850 1.523 . S
C2850 C2831 1.368 . S
C2850 C2844 1.368 . S
C2850 C2849 1.523 . S
C2851 C2835 1.429 . S
C2851 C2847 1.429 . S
C2851 C2852 1.523 . S
C2852 C2836 1.368 . S
C2852 C2848 1.368 . S
C2852 C2851 1.523 . S
H2853 C2828 0.950 . S
H2854 C2830 0.950 1_545 S
H2855 C2831 0.949 . S
H2856 C2833 0.950 . S
H2857 C2835 0.950 . S
C2858 C2859 1.349 . S
C2858 C2860 1.327 . S
C2858 H2883 0.950 . S
C2859 C2858 1.349 . S
C2859 C2875 1.349 . S
C2860 C2858 1.327 . S
C2860 C2879 1.429 . S
C2860 H2884 0.950 . S
C2861 C2878 1.574 . S
C2861 C2880 1.368 . S
C2861 H2885 0.949 . S
H2862 C2866 0.949 . S
C2863 C2864 1.349 . S
C2863 C2865 1.327 . S
C2863 H2886 0.950 . S
C2864 C2863 1.349 . S
C2864 C2876 1.349 . S
C2865 C2863 1.327 . S
C2865 C2881 1.429 . S
C2865 H2887 0.950 . S
C2866 H2862 0.949 . S
C2866 C2874 1.574 . S
C2866 C2882 1.368 . S
H2867 C2875 0.950 . S
H2868 C2873 0.950 . S
H2869 C2874 0.949 . S
H2870 C2876 0.950 . S
H2871 C2877 0.950 . S
H2872 C2878 0.949 . S
C2873 H2868 0.950 . S
C2873 C2875 1.327 . S
C2873 C2879 1.429 . S
C2874 C2866 1.574 . S
C2874 H2869 0.949 . S
C2874 C2880 1.368 . S
C2875 C2859 1.349 . S
C2875 H2867 0.950 . S
C2875 C2873 1.327 . S
C2876 C2864 1.349 . S
C2876 H2870 0.950 . S
C2876 C2877 1.327 . S
C2877 H2871 0.950 . S
C2877 C2876 1.327 . S
C2877 C2881 1.429 . S
C2878 C2861 1.574 . S
C2878 H2872 0.949 . S
C2878 C2882 1.368 . S
C2879 C2860 1.429 . S
C2879 C2873 1.429 . S
C2879 C2880 1.523 . S
C2880 C2861 1.368 . S
C2880 C2874 1.368 . S
C2880 C2879 1.523 . S
C2881 C2865 1.429 . S
C2881 C2877 1.429 . S
C2881 C2882 1.523 1_565 S
C2882 C2866 1.368 . S
C2882 C2878 1.368 . S
C2882 C2881 1.523 1_545 S
H2883 C2858 0.950 . S
H2884 C2860 0.950 . S
H2885 C2861 0.949 . S
H2886 C2863 0.950 . S
H2887 C2865 0.950 . S
C2888 C2889 1.349 . S
C2888 C2890 1.327 . S
C2888 H2913 0.950 . S
C2889 C2888 1.349 . S
C2889 C2905 1.349 . S
C2890 C2888 1.327 . S
C2890 C2909 1.429 . S
C2890 H2914 0.950 . S
C2891 C2908 1.574 . S
C2891 C2910 1.368 . S
C2891 H2915 0.949 . S
H2892 C2896 0.949 . S
C2893 C2894 1.349 . S
C2893 C2895 1.327 . S
C2893 H2916 0.950 . S
C2894 C2893 1.349 . S
C2894 C2906 1.349 . S
C2895 C2893 1.327 . S
C2895 C2911 1.429 . S
C2895 H2917 0.950 . S
C2896 H2892 0.949 . S
C2896 C2904 1.574 . S
C2896 C2912 1.368 . S
H2897 C2905 0.950 . S
H2898 C2903 0.950 . S
H2899 C2904 0.949 . S
H2900 C2906 0.950 . S
H2901 C2907 0.950 . S
H2902 C2908 0.949 . S
C2903 H2898 0.950 . S
C2903 C2905 1.327 . S
C2903 C2909 1.429 . S
C2904 C2896 1.574 . S
C2904 H2899 0.949 . S
C2904 C2910 1.368 . S
C2905 C2889 1.349 . S
C2905 H2897 0.950 . S
C2905 C2903 1.327 . S
C2906 C2894 1.349 . S
C2906 H2900 0.950 . S
C2906 C2907 1.327 . S
C2907 H2901 0.950 . S
C2907 C2906 1.327 . S
C2907 C2911 1.429 . S
C2908 C2891 1.574 . S
C2908 H2902 0.949 . S
C2908 C2912 1.368 . S
C2909 C2890 1.429 . S
C2909 C2903 1.429 . S
C2909 C2910 1.523 1_545 S
C2910 C2891 1.368 . S
C2910 C2904 1.368 . S
C2910 C2909 1.523 1_565 S
C2911 C2895 1.429 . S
C2911 C2907 1.429 . S
C2911 C2912 1.523 . S
C2912 C2896 1.368 . S
C2912 C2908 1.368 . S
C2912 C2911 1.523 . S
H2913 C2888 0.950 . S
H2914 C2890 0.950 . S
H2915 C2891 0.949 . S
H2916 C2893 0.950 . S
H2917 C2895 0.950 . S
C2918 C2919 1.349 . S
C2918 C2920 1.327 . S
C2918 H2943 0.950 . S
C2919 C2918 1.349 . S
C2919 C2935 1.349 . S
C2920 C2918 1.327 . S
C2920 C2939 1.429 . S
C2920 H2944 0.950 . S
C2921 C2938 1.574 . S
C2921 C2940 1.368 . S
C2921 H2945 0.949 . S
H2922 C2926 0.949 . S
C2923 C2924 1.349 . S
C2923 C2925 1.327 . S
C2923 H2946 0.950 . S
C2924 C2923 1.349 . S
C2924 C2936 1.349 . S
C2925 C2923 1.327 . S
C2925 C2941 1.429 1_545 S
C2925 H2947 0.950 1_545 S
C2926 H2922 0.949 . S
C2926 C2934 1.574 . S
C2926 C2942 1.368 . S
H2927 C2935 0.950 . S
H2928 C2933 0.950 . S
H2929 C2934 0.949 . S
H2930 C2936 0.950 . S
H2931 C2937 0.950 . S
H2932 C2938 0.949 . S
C2933 H2928 0.950 . S
C2933 C2935 1.327 . S
C2933 C2939 1.429 . S
C2934 C2926 1.574 . S
C2934 H2929 0.949 . S
C2934 C2940 1.368 . S
C2935 C2919 1.349 . S
C2935 H2927 0.950 . S
C2935 C2933 1.327 . S
C2936 C2924 1.349 . S
C2936 H2930 0.950 . S
C2936 C2937 1.327 . S
C2937 H2931 0.950 . S
C2937 C2936 1.327 . S
C2937 C2941 1.429 1_545 S
C2938 C2921 1.574 . S
C2938 H2932 0.949 . S
C2938 C2942 1.368 . S
C2939 C2920 1.429 . S
C2939 C2933 1.429 . S
C2939 C2940 1.523 . S
C2940 C2921 1.368 . S
C2940 C2934 1.368 . S
C2940 C2939 1.523 . S
C2941 C2925 1.429 1_565 S
C2941 C2937 1.429 1_565 S
C2941 C2942 1.523 . S
C2942 C2926 1.368 . S
C2942 C2938 1.368 . S
C2942 C2941 1.523 . S
H2943 C2918 0.950 . S
H2944 C2920 0.950 . S
H2945 C2921 0.949 . S
H2946 C2923 0.950 . S
H2947 C2925 0.950 1_565 S
C2948 C2949 1.349 . S
C2948 C2950 1.327 . S
C2948 H2973 0.950 . S
C2949 C2948 1.349 . S
C2949 C2965 1.349 . S
C2950 C2948 1.327 . S
C2950 C2969 1.429 . S
C2950 H2974 0.950 . S
C2951 C2968 1.574 . S
C2951 C2970 1.368 . S
C2951 H2975 0.949 . S
H2952 C2956 0.949 . S
C2953 C2954 1.349 . S
C2953 C2955 1.327 . S
C2953 H2976 0.950 . S
C2954 C2953 1.349 . S
C2954 C2966 1.349 . S
C2955 C2953 1.327 . S
C2955 C2971 1.429 1_545 S
C2955 H2977 0.950 1_545 S
C2956 H2952 0.949 . S
C2956 C2964 1.574 . S
C2956 C2972 1.368 . S
H2957 C2965 0.950 . S
H2958 C2963 0.950 . S
H2959 C2964 0.949 . S
H2960 C2966 0.950 . S
H2961 C2967 0.950 . S
H2962 C2968 0.949 . S
C2963 H2958 0.950 . S
C2963 C2965 1.327 . S
C2963 C2969 1.429 . S
C2964 C2956 1.574 . S
C2964 H2959 0.949 . S
C2964 C2970 1.368 . S
C2965 C2949 1.349 . S
C2965 H2957 0.950 . S
C2965 C2963 1.327 . S
C2966 C2954 1.349 . S
C2966 H2960 0.950 . S
C2966 C2967 1.327 . S
C2967 H2961 0.950 . S
C2967 C2966 1.327 . S
C2967 C2971 1.429 1_545 S
C2968 C2951 1.574 . S
C2968 H2962 0.949 . S
C2968 C2972 1.368 . S
C2969 C2950 1.429 . S
C2969 C2963 1.429 . S
C2969 C2970 1.523 . S
C2970 C2951 1.368 . S
C2970 C2964 1.368 . S
C2970 C2969 1.523 . S
C2971 C2955 1.429 1_565 S
C2971 C2967 1.429 1_565 S
C2971 C2972 1.523 . S
C2972 C2956 1.368 . S
C2972 C2968 1.368 . S
C2972 C2971 1.523 . S
H2973 C2948 0.950 . S
H2974 C2950 0.950 . S
H2975 C2951 0.949 . S
H2976 C2953 0.950 . S
H2977 C2955 0.950 1_565 S
C2978 C2979 1.349 . S
C2978 C2980 1.327 . S
C2978 H3003 0.950 . S
C2979 C2978 1.349 . S
C2979 C2995 1.349 . S
C2980 C2978 1.327 . S
C2980 C2999 1.429 . S
C2980 H3004 0.950 . S
C2981 C2998 1.574 . S
C2981 C3000 1.368 . S
C2981 H3005 0.949 . S
H2982 C2986 0.949 . S
C2983 C2984 1.349 . S
C2983 C2985 1.327 . S
C2983 H3006 0.950 . S
C2984 C2983 1.349 . S
C2984 C2996 1.349 . S
C2985 C2983 1.327 . S
C2985 C3001 1.429 . S
C2985 H3007 0.950 . S
C2986 H2982 0.949 . S
C2986 C2994 1.574 . S
C2986 C3002 1.368 . S
H2987 C2995 0.950 . S
H2988 C2993 0.950 . S
H2989 C2994 0.949 . S
H2990 C2996 0.950 . S
H2991 C2997 0.950 . S
H2992 C2998 0.949 . S
C2993 H2988 0.950 . S
C2993 C2995 1.327 . S
C2993 C2999 1.429 . S
C2994 C2986 1.574 . S
C2994 H2989 0.949 . S
C2994 C3000 1.368 . S
C2995 C2979 1.349 . S
C2995 H2987 0.950 . S
C2995 C2993 1.327 . S
C2996 C2984 1.349 . S
C2996 H2990 0.950 . S
C2996 C2997 1.327 . S
C2997 H2991 0.950 . S
C2997 C2996 1.327 . S
C2997 C3001 1.429 . S
C2998 C2981 1.574 . S
C2998 H2992 0.949 . S
C2998 C3002 1.368 . S
C2999 C2980 1.429 . S
C2999 C2993 1.429 . S
C2999 C3000 1.523 1_545 S
C3000 C2981 1.368 . S
C3000 C2994 1.368 . S
C3000 C2999 1.523 1_565 S
C3001 C2985 1.429 . S
C3001 C2997 1.429 . S
C3001 C3002 1.523 . S
C3002 C2986 1.368 . S
C3002 C2998 1.368 . S
C3002 C3001 1.523 . S
H3003 C2978 0.950 . S
H3004 C2980 0.950 . S
H3005 C2981 0.949 . S
H3006 C2983 0.950 . S
H3007 C2985 0.950 . S
C3008 C3009 1.349 . S
C3008 C3010 1.327 . S
C3008 H3033 0.950 . S
C3009 C3008 1.349 . S
C3009 C3025 1.349 . S
C3010 C3008 1.327 . S
C3010 C3029 1.429 . S
C3010 H3034 0.950 . S
C3011 C3028 1.574 . S
C3011 C3030 1.368 . S
C3011 H3035 0.949 . S
H3012 C3016 0.949 . S
C3013 C3014 1.349 . S
C3013 C3015 1.327 . S
C3013 H3036 0.950 . S
C3014 C3013 1.349 . S
C3014 C3026 1.349 . S
C3015 C3013 1.327 . S
C3015 C3031 1.429 . S
C3015 H3037 0.950 . S
C3016 H3012 0.949 . S
C3016 C3024 1.574 . S
C3016 C3032 1.368 . S
H3017 C3025 0.950 . S
H3018 C3023 0.950 . S
H3019 C3024 0.949 . S
H3020 C3026 0.950 . S
H3021 C3027 0.950 . S
H3022 C3028 0.949 . S
C3023 H3018 0.950 . S
C3023 C3025 1.327 . S
C3023 C3029 1.429 . S
C3024 C3016 1.574 . S
C3024 H3019 0.949 . S
C3024 C3030 1.368 . S
C3025 C3009 1.349 . S
C3025 H3017 0.950 . S
C3025 C3023 1.327 . S
C3026 C3014 1.349 . S
C3026 H3020 0.950 . S
C3026 C3027 1.327 . S
C3027 H3021 0.950 . S
C3027 C3026 1.327 . S
C3027 C3031 1.429 . S
C3028 C3011 1.574 . S
C3028 H3022 0.949 . S
C3028 C3032 1.368 . S
C3029 C3010 1.429 . S
C3029 C3023 1.429 . S
C3029 C3030 1.523 . S
C3030 C3011 1.368 . S
C3030 C3024 1.368 . S
C3030 C3029 1.523 . S
C3031 C3015 1.429 . S
C3031 C3027 1.429 . S
C3031 C3032 1.523 . S
C3032 C3016 1.368 . S
C3032 C3028 1.368 . S
C3032 C3031 1.523 . S
H3033 C3008 0.950 . S
H3034 C3010 0.950 . S
H3035 C3011 0.949 . S
H3036 C3013 0.950 . S
H3037 C3015 0.950 . S
C3038 C3039 1.349 . S
C3038 C3040 1.327 . S
C3038 H3063 0.950 . S
C3039 C3038 1.349 . S
C3039 C3055 1.349 1_545 S
C3040 C3038 1.327 . S
C3040 C3059 1.429 1_545 S
C3040 H3064 0.950 . S
C3041 C3058 1.574 . S
C3041 C3060 1.368 . S
C3041 H3065 0.949 . S
H3042 C3046 0.949 . S
C3043 C3044 1.349 . S
C3043 C3045 1.327 . S
C3043 H3066 0.950 . S
C3044 C3043 1.349 . S
C3044 C3056 1.349 . S
C3045 C3043 1.327 . S
C3045 C3061 1.429 . S
C3045 H3067 0.950 . S
C3046 H3042 0.949 . S
C3046 C3054 1.574 . S
C3046 C3062 1.368 . S
H3047 C3055 0.950 . S
H3048 C3053 0.950 . S
H3049 C3054 0.949 . S
H3050 C3056 0.950 . S
H3051 C3057 0.950 . S
H3052 C3058 0.949 . S
C3053 H3048 0.950 . S
C3053 C3055 1.327 . S
C3053 C3059 1.429 . S
C3054 C3046 1.574 . S
C3054 H3049 0.949 . S
C3054 C3060 1.368 . S
C3055 C3039 1.349 1_565 S
C3055 H3047 0.950 . S
C3055 C3053 1.327 . S
C3056 C3044 1.349 . S
C3056 H3050 0.950 . S
C3056 C3057 1.327 . S
C3057 H3051 0.950 . S
C3057 C3056 1.327 . S
C3057 C3061 1.429 . S
C3058 C3041 1.574 . S
C3058 H3052 0.949 . S
C3058 C3062 1.368 . S
C3059 C3040 1.429 1_565 S
C3059 C3053 1.429 . S
C3059 C3060 1.523 . S
C3060 C3041 1.368 . S
C3060 C3054 1.368 . S
C3060 C3059 1.523 . S
C3061 C3045 1.429 . S
C3061 C3057 1.429 . S
C3061 C3062 1.523 . S
C3062 C3046 1.368 . S
C3062 C3058 1.368 . S
C3062 C3061 1.523 . S
H3063 C3038 0.950 . S
H3064 C3040 0.950 . S
H3065 C3041 0.949 . S
H3066 C3043 0.950 . S
H3067 C3045 0.950 . S
C3068 C3069 1.349 . S
C3068 C3070 1.327 . S
C3068 H3093 0.950 . S
C3069 C3068 1.349 . S
C3069 C3085 1.349 . S
C3070 C3068 1.327 . S
C3070 C3089 1.429 . S
C3070 H3094 0.950 . S
C3071 C3088 1.574 . S
C3071 C3090 1.368 . S
C3071 H3095 0.949 . S
H3072 C3076 0.949 . S
C3073 C3074 1.349 . S
C3073 C3075 1.327 . S
C3073 H3096 0.950 . S
C3074 C3073 1.349 . S
C3074 C3086 1.349 1_545 S
C3075 C3073 1.327 . S
C3075 C3091 1.429 1_545 S
C3075 H3097 0.950 . S
C3076 H3072 0.949 . S
C3076 C3084 1.574 . S
C3076 C3092 1.368 . S
H3077 C3085 0.950 . S
H3078 C3083 0.950 . S
H3079 C3084 0.949 . S
H3080 C3086 0.950 . S
H3081 C3087 0.950 . S
H3082 C3088 0.949 . S
C3083 H3078 0.950 . S
C3083 C3085 1.327 . S
C3083 C3089 1.429 . S
C3084 C3076 1.574 . S
C3084 H3079 0.949 . S
C3084 C3090 1.368 . S
C3085 C3069 1.349 . S
C3085 H3077 0.950 . S
C3085 C3083 1.327 . S
C3086 C3074 1.349 1_565 S
C3086 H3080 0.950 . S
C3086 C3087 1.327 . S
C3087 H3081 0.950 . S
C3087 C3086 1.327 . S
C3087 C3091 1.429 . S
C3088 C3071 1.574 . S
C3088 H3082 0.949 . S
C3088 C3092 1.368 . S
C3089 C3070 1.429 . S
C3089 C3083 1.429 . S
C3089 C3090 1.523 . S
C3090 C3071 1.368 . S
C3090 C3084 1.368 . S
C3090 C3089 1.523 . S
C3091 C3075 1.429 1_565 S
C3091 C3087 1.429 . S
C3091 C3092 1.523 . S
C3092 C3076 1.368 . S
C3092 C3088 1.368 . S
C3092 C3091 1.523 . S
H3093 C3068 0.950 . S
H3094 C3070 0.950 . S
H3095 C3071 0.949 . S
H3096 C3073 0.950 . S
H3097 C3075 0.950 . S
C3098 C3099 1.349 . S
C3098 C3100 1.327 . S
C3098 H3123 0.950 . S
C3099 C3098 1.349 . S
C3099 C3115 1.349 . S
C3100 C3098 1.327 . S
C3100 C3119 1.429 . S
C3100 H3124 0.950 . S
C3101 C3118 1.574 . S
C3101 C3120 1.368 . S
C3101 H3125 0.949 . S
H3102 C3106 0.949 . S
C3103 C3104 1.349 . S
C3103 C3105 1.327 . S
C3103 H3126 0.950 . S
C3104 C3103 1.349 . S
C3104 C3116 1.349 . S
C3105 C3103 1.327 . S
C3105 C3121 1.429 . S
C3105 H3127 0.950 . S
C3106 H3102 0.949 . S
C3106 C3114 1.574 . S
C3106 C3122 1.368 . S
H3107 C3115 0.950 . S
H3108 C3113 0.950 . S
H3109 C3114 0.949 . S
H3110 C3116 0.950 . S
H3111 C3117 0.950 . S
H3112 C3118 0.949 . S
C3113 H3108 0.950 . S
C3113 C3115 1.327 . S
C3113 C3119 1.429 . S
C3114 C3106 1.574 . S
C3114 H3109 0.949 . S
C3114 C3120 1.368 . S
C3115 C3099 1.349 . S
C3115 H3107 0.950 . S
C3115 C3113 1.327 . S
C3116 C3104 1.349 . S
C3116 H3110 0.950 . S
C3116 C3117 1.327 . S
C3117 H3111 0.950 . S
C3117 C3116 1.327 . S
C3117 C3121 1.429 . S
C3118 C3101 1.574 . S
C3118 H3112 0.949 . S
C3118 C3122 1.368 . S
C3119 C3100 1.429 . S
C3119 C3113 1.429 . S
C3119 C3120 1.523 . S
C3120 C3101 1.368 . S
C3120 C3114 1.368 . S
C3120 C3119 1.523 . S
C3121 C3105 1.429 . S
C3121 C3117 1.429 . S
C3121 C3122 1.523 . S
C3122 C3106 1.368 . S
C3122 C3118 1.368 . S
C3122 C3121 1.523 . S
H3123 C3098 0.950 . S
H3124 C3100 0.950 . S
H3125 C3101 0.949 . S
H3126 C3103 0.950 . S
H3127 C3105 0.950 . S
C3128 C3129 1.349 . S
C3128 C3130 1.327 . S
C3128 H3153 0.950 . S
C3129 C3128 1.349 . S
C3129 C3145 1.349 . S
C3130 C3128 1.327 . S
C3130 C3149 1.429 . S
C3130 H3154 0.950 . S
C3131 C3148 1.574 . S
C3131 C3150 1.368 . S
C3131 H3155 0.949 . S
H3132 C3136 0.949 . S
C3133 C3134 1.349 . S
C3133 C3135 1.327 . S
C3133 H3156 0.950 . S
C3134 C3133 1.349 . S
C3134 C3146 1.349 . S
C3135 C3133 1.327 . S
C3135 C3151 1.429 . S
C3135 H3157 0.950 . S
C3136 H3132 0.949 . S
C3136 C3144 1.574 . S
C3136 C3152 1.368 . S
H3137 C3145 0.950 . S
H3138 C3143 0.950 . S
H3139 C3144 0.949 . S
H3140 C3146 0.950 . S
H3141 C3147 0.950 . S
H3142 C3148 0.949 . S
C3143 H3138 0.950 . S
C3143 C3145 1.327 . S
C3143 C3149 1.429 . S
C3144 C3136 1.574 . S
C3144 H3139 0.949 . S
C3144 C3150 1.368 . S
C3145 C3129 1.349 . S
C3145 H3137 0.950 . S
C3145 C3143 1.327 . S
C3146 C3134 1.349 . S
C3146 H3140 0.950 . S
C3146 C3147 1.327 . S
C3147 H3141 0.950 . S
C3147 C3146 1.327 . S
C3147 C3151 1.429 . S
C3148 C3131 1.574 . S
C3148 H3142 0.949 . S
C3148 C3152 1.368 . S
C3149 C3130 1.429 . S
C3149 C3143 1.429 . S
C3149 C3150 1.523 . S
C3150 C3131 1.368 . S
C3150 C3144 1.368 . S
C3150 C3149 1.523 . S
C3151 C3135 1.429 . S
C3151 C3147 1.429 . S
C3151 C3152 1.523 . S
C3152 C3136 1.368 . S
C3152 C3148 1.368 . S
C3152 C3151 1.523 . S
H3153 C3128 0.950 . S
H3154 C3130 0.950 . S
H3155 C3131 0.949 . S
H3156 C3133 0.950 . S
H3157 C3135 0.950 . S
C3158 C3159 1.349 1_545 S
C3158 C3160 1.327 . S
C3158 H3183 0.950 . S
C3159 C3158 1.349 1_565 S
C3159 C3175 1.349 . S
C3160 C3158 1.327 . S
C3160 C3179 1.429 . S
C3160 H3184 0.950 . S
C3161 C3178 1.574 . S
C3161 C3180 1.368 . S
C3161 H3185 0.949 . S
H3162 C3166 0.949 . S
C3163 C3164 1.349 . S
C3163 C3165 1.327 . S
C3163 H3186 0.950 . S
C3164 C3163 1.349 . S
C3164 C3176 1.349 . S
C3165 C3163 1.327 . S
C3165 C3181 1.429 . S
C3165 H3187 0.950 . S
C3166 H3162 0.949 . S
C3166 C3174 1.574 . S
C3166 C3182 1.368 . S
H3167 C3175 0.950 . S
H3168 C3173 0.950 . S
H3169 C3174 0.949 . S
H3170 C3176 0.950 . S
H3171 C3177 0.950 . S
H3172 C3178 0.949 . S
C3173 H3168 0.950 . S
C3173 C3175 1.327 . S
C3173 C3179 1.429 1_565 S
C3174 C3166 1.574 . S
C3174 H3169 0.949 . S
C3174 C3180 1.368 . S
C3175 C3159 1.349 . S
C3175 H3167 0.950 . S
C3175 C3173 1.327 . S
C3176 C3164 1.349 . S
C3176 H3170 0.950 . S
C3176 C3177 1.327 . S
C3177 H3171 0.950 . S
C3177 C3176 1.327 . S
C3177 C3181 1.429 . S
C3178 C3161 1.574 . S
C3178 H3172 0.949 . S
C3178 C3182 1.368 . S
C3179 C3160 1.429 . S
C3179 C3173 1.429 1_545 S
C3179 C3180 1.523 . S
C3180 C3161 1.368 . S
C3180 C3174 1.368 . S
C3180 C3179 1.523 . S
C3181 C3165 1.429 . S
C3181 C3177 1.429 . S
C3181 C3182 1.523 . S
C3182 C3166 1.368 . S
C3182 C3178 1.368 . S
C3182 C3181 1.523 . S
H3183 C3158 0.950 . S
H3184 C3160 0.950 . S
H3185 C3161 0.949 . S
H3186 C3163 0.950 . S
H3187 C3165 0.950 . S
C3188 C3189 1.349 . S
C3188 C3190 1.327 . S
C3188 H3213 0.950 . S
C3189 C3188 1.349 . S
C3189 C3205 1.349 . S
C3190 C3188 1.327 . S
C3190 C3209 1.429 . S
C3190 H3214 0.950 . S
C3191 C3208 1.574 . S
C3191 C3210 1.368 . S
C3191 H3215 0.949 . S
H3192 C3196 0.949 . S
C3193 C3194 1.349 . S
C3193 C3195 1.327 . S
C3193 H3216 0.950 . S
C3194 C3193 1.349 . S
C3194 C3206 1.349 1_565 S
C3195 C3193 1.327 . S
C3195 C3211 1.429 1_565 S
C3195 H3217 0.950 . S
C3196 H3192 0.949 . S
C3196 C3204 1.574 . S
C3196 C3212 1.368 . S
H3197 C3205 0.950 . S
H3198 C3203 0.950 . S
H3199 C3204 0.949 . S
H3200 C3206 0.950 . S
H3201 C3207 0.950 . S
H3202 C3208 0.949 . S
C3203 H3198 0.950 . S
C3203 C3205 1.327 . S
C3203 C3209 1.429 . S
C3204 C3196 1.574 . S
C3204 H3199 0.949 . S
C3204 C3210 1.368 . S
C3205 C3189 1.349 . S
C3205 H3197 0.950 . S
C3205 C3203 1.327 . S
C3206 C3194 1.349 1_545 S
C3206 H3200 0.950 . S
C3206 C3207 1.327 . S
C3207 H3201 0.950 . S
C3207 C3206 1.327 . S
C3207 C3211 1.429 . S
C3208 C3191 1.574 . S
C3208 H3202 0.949 . S
C3208 C3212 1.368 . S
C3209 C3190 1.429 . S
C3209 C3203 1.429 . S
C3209 C3210 1.523 . S
C3210 C3191 1.368 . S
C3210 C3204 1.368 . S
C3210 C3209 1.523 . S
C3211 C3195 1.429 1_545 S
C3211 C3207 1.429 . S
C3211 C3212 1.523 . S
C3212 C3196 1.368 . S
C3212 C3208 1.368 . S
C3212 C3211 1.523 . S
H3213 C3188 0.950 . S
H3214 C3190 0.950 . S
H3215 C3191 0.949 . S
H3216 C3193 0.950 . S
H3217 C3195 0.950 . S
C3218 C3219 1.349 . S
C3218 C3220 1.327 . S
C3218 H3243 0.950 . S
C3219 C3218 1.349 . S
C3219 C3235 1.349 . S
C3220 C3218 1.327 . S
C3220 C3239 1.429 . S
C3220 H3244 0.950 . S
C3221 C3238 1.574 . S
C3221 C3240 1.368 . S
C3221 H3245 0.949 . S
H3222 C3226 0.949 . S
C3223 C3224 1.349 . S
C3223 C3225 1.327 . S
C3223 H3246 0.950 . S
C3224 C3223 1.349 . S
C3224 C3236 1.349 . S
C3225 C3223 1.327 . S
C3225 C3241 1.429 . S
C3225 H3247 0.950 . S
C3226 H3222 0.949 . S
C3226 C3234 1.574 . S
C3226 C3242 1.368 . S
H3227 C3235 0.950 . S
H3228 C3233 0.950 . S
H3229 C3234 0.949 . S
H3230 C3236 0.950 . S
H3231 C3237 0.950 . S
H3232 C3238 0.949 . S
C3233 H3228 0.950 . S
C3233 C3235 1.327 . S
C3233 C3239 1.429 . S
C3234 C3226 1.574 . S
C3234 H3229 0.949 . S
C3234 C3240 1.368 . S
C3235 C3219 1.349 . S
C3235 H3227 0.950 . S
C3235 C3233 1.327 . S
C3236 C3224 1.349 . S
C3236 H3230 0.950 . S
C3236 C3237 1.327 . S
C3237 H3231 0.950 . S
C3237 C3236 1.327 . S
C3237 C3241 1.429 . S
C3238 C3221 1.574 . S
C3238 H3232 0.949 . S
C3238 C3242 1.368 . S
C3239 C3220 1.429 . S
C3239 C3233 1.429 . S
C3239 C3240 1.523 . S
C3240 C3221 1.368 . S
C3240 C3234 1.368 . S
C3240 C3239 1.523 . S
C3241 C3225 1.429 . S
C3241 C3237 1.429 . S
C3241 C3242 1.523 . S
C3242 C3226 1.368 . S
C3242 C3238 1.368 . S
C3242 C3241 1.523 . S
H3243 C3218 0.950 . S
H3244 C3220 0.950 . S
H3245 C3221 0.949 . S
H3246 C3223 0.950 . S
H3247 C3225 0.950 . S
C3248 C3249 1.349 . S
C3248 C3250 1.327 . S
C3248 H3273 0.950 . S
C3249 C3248 1.349 . S
C3249 C3265 1.349 . S
C3250 C3248 1.327 . S
C3250 C3269 1.429 . S
C3250 H3274 0.950 . S
C3251 C3268 1.574 . S
C3251 C3270 1.368 . S
C3251 H3275 0.949 . S
H3252 C3256 0.949 . S
C3253 C3254 1.349 1_565 S
C3253 C3255 1.327 . S
C3253 H3276 0.950 . S
C3254 C3253 1.349 1_545 S
C3254 C3266 1.349 . S
C3255 C3253 1.327 . S
C3255 C3271 1.429 . S
C3255 H3277 0.950 . S
C3256 H3252 0.949 . S
C3256 C3264 1.574 . S
C3256 C3272 1.368 . S
H3257 C3265 0.950 . S
H3258 C3263 0.950 . S
H3259 C3264 0.949 . S
H3260 C3266 0.950 . S
H3261 C3267 0.950 . S
H3262 C3268 0.949 . S
C3263 H3258 0.950 . S
C3263 C3265 1.327 . S
C3263 C3269 1.429 . S
C3264 C3256 1.574 . S
C3264 H3259 0.949 . S
C3264 C3270 1.368 . S
C3265 C3249 1.349 . S
C3265 H3257 0.950 . S
C3265 C3263 1.327 . S
C3266 C3254 1.349 . S
C3266 H3260 0.950 . S
C3266 C3267 1.327 . S
C3267 H3261 0.950 . S
C3267 C3266 1.327 . S
C3267 C3271 1.429 1_545 S
C3268 C3251 1.574 . S
C3268 H3262 0.949 . S
C3268 C3272 1.368 . S
C3269 C3250 1.429 . S
C3269 C3263 1.429 . S
C3269 C3270 1.523 . S
C3270 C3251 1.368 . S
C3270 C3264 1.368 . S
C3270 C3269 1.523 . S
C3271 C3255 1.429 . S
C3271 C3267 1.429 1_565 S
C3271 C3272 1.523 . S
C3272 C3256 1.368 . S
C3272 C3268 1.368 . S
C3272 C3271 1.523 . S
H3273 C3248 0.950 . S
H3274 C3250 0.950 . S
H3275 C3251 0.949 . S
H3276 C3253 0.950 . S
H3277 C3255 0.950 . S
C3278 C3279 1.349 . S
C3278 C3280 1.327 . S
C3278 H3303 0.950 . S
C3279 C3278 1.349 . S
C3279 C3295 1.349 . S
C3280 C3278 1.327 . S
C3280 C3299 1.429 . S
C3280 H3304 0.950 . S
C3281 C3298 1.574 . S
C3281 C3300 1.368 . S
C3281 H3305 0.949 . S
H3282 C3286 0.949 . S
C3283 C3284 1.349 . S
C3283 C3285 1.327 . S
C3283 H3306 0.950 . S
C3284 C3283 1.349 . S
C3284 C3296 1.349 . S
C3285 C3283 1.327 . S
C3285 C3301 1.429 . S
C3285 H3307 0.950 . S
C3286 H3282 0.949 . S
C3286 C3294 1.574 . S
C3286 C3302 1.368 . S
H3287 C3295 0.950 . S
H3288 C3293 0.950 . S
H3289 C3294 0.949 . S
H3290 C3296 0.950 . S
H3291 C3297 0.950 . S
H3292 C3298 0.949 . S
C3293 H3288 0.950 . S
C3293 C3295 1.327 . S
C3293 C3299 1.429 . S
C3294 C3286 1.574 . S
C3294 H3289 0.949 . S
C3294 C3300 1.368 . S
C3295 C3279 1.349 . S
C3295 H3287 0.950 . S
C3295 C3293 1.327 . S
C3296 C3284 1.349 . S
C3296 H3290 0.950 . S
C3296 C3297 1.327 . S
C3297 H3291 0.950 . S
C3297 C3296 1.327 . S
C3297 C3301 1.429 . S
C3298 C3281 1.574 . S
C3298 H3292 0.949 . S
C3298 C3302 1.368 . S
C3299 C3280 1.429 . S
C3299 C3293 1.429 . S
C3299 C3300 1.523 . S
C3300 C3281 1.368 . S
C3300 C3294 1.368 . S
C3300 C3299 1.523 . S
C3301 C3285 1.429 . S
C3301 C3297 1.429 . S
C3301 C3302 1.523 . S
C3302 C3286 1.368 . S
C3302 C3298 1.368 . S
C3302 C3301 1.523 . S
H3303 C3278 0.950 . S
H3304 C3280 0.950 . S
H3305 C3281 0.949 . S
H3306 C3283 0.950 . S
H3307 C3285 0.950 . S
C3308 C3309 1.349 . S
C3308 C3310 1.327 . S
C3308 H3333 0.950 . S
C3309 C3308 1.349 . S
C3309 C3325 1.349 . S
C3310 C3308 1.327 . S
C3310 C3329 1.429 . S
C3310 H3334 0.950 . S
C3311 C3328 1.574 . S
C3311 C3330 1.368 . S
C3311 H3335 0.949 . S
H3312 C3316 0.949 . S
C3313 C3314 1.349 . S
C3313 C3315 1.327 . S
C3313 H3336 0.950 . S
C3314 C3313 1.349 . S
C3314 C3326 1.349 . S
C3315 C3313 1.327 . S
C3315 C3331 1.429 . S
C3315 H3337 0.950 . S
C3316 H3312 0.949 . S
C3316 C3324 1.574 . S
C3316 C3332 1.368 . S
H3317 C3325 0.950 . S
H3318 C3323 0.950 . S
H3319 C3324 0.949 . S
H3320 C3326 0.950 . S
H3321 C3327 0.950 . S
H3322 C3328 0.949 . S
C3323 H3318 0.950 . S
C3323 C3325 1.327 . S
C3323 C3329 1.429 . S
C3324 C3316 1.574 . S
C3324 H3319 0.949 . S
C3324 C3330 1.368 . S
C3325 C3309 1.349 . S
C3325 H3317 0.950 . S
C3325 C3323 1.327 . S
C3326 C3314 1.349 . S
C3326 H3320 0.950 . S
C3326 C3327 1.327 . S
C3327 H3321 0.950 . S
C3327 C3326 1.327 . S
C3327 C3331 1.429 . S
C3328 C3311 1.574 . S
C3328 H3322 0.949 . S
C3328 C3332 1.368 . S
C3329 C3310 1.429 . S
C3329 C3323 1.429 . S
C3329 C3330 1.523 . S
C3330 C3311 1.368 . S
C3330 C3324 1.368 . S
C3330 C3329 1.523 . S
C3331 C3315 1.429 . S
C3331 C3327 1.429 . S
C3331 C3332 1.523 . S
C3332 C3316 1.368 . S
C3332 C3328 1.368 . S
C3332 C3331 1.523 . S
H3333 C3308 0.950 . S
H3334 C3310 0.950 . S
H3335 C3311 0.949 . S
H3336 C3313 0.950 . S
H3337 C3315 0.950 . S
C3338 C3339 1.349 . S
C3338 C3340 1.327 . S
C3338 H3363 0.950 . S
C3339 C3338 1.349 . S
C3339 C3355 1.349 . S
C3340 C3338 1.327 . S
C3340 C3359 1.429 . S
C3340 H3364 0.950 . S
C3341 C3358 1.574 . S
C3341 C3360 1.368 . S
C3341 H3365 0.949 . S
H3342 C3346 0.949 . S
C3343 C3344 1.349 . S
C3343 C3345 1.327 . S
C3343 H3366 0.950 . S
C3344 C3343 1.349 . S
C3344 C3356 1.349 1_545 S
C3345 C3343 1.327 . S
C3345 C3361 1.429 1_545 S
C3345 H3367 0.950 . S
C3346 H3342 0.949 . S
C3346 C3354 1.574 . S
C3346 C3362 1.368 . S
H3347 C3355 0.950 . S
H3348 C3353 0.950 . S
H3349 C3354 0.949 . S
H3350 C3356 0.950 . S
H3351 C3357 0.950 . S
H3352 C3358 0.949 . S
C3353 H3348 0.950 . S
C3353 C3355 1.327 . S
C3353 C3359 1.429 . S
C3354 C3346 1.574 . S
C3354 H3349 0.949 . S
C3354 C3360 1.368 . S
C3355 C3339 1.349 . S
C3355 H3347 0.950 . S
C3355 C3353 1.327 . S
C3356 C3344 1.349 1_565 S
C3356 H3350 0.950 . S
C3356 C3357 1.327 . S
C3357 H3351 0.950 . S
C3357 C3356 1.327 . S
C3357 C3361 1.429 . S
C3358 C3341 1.574 . S
C3358 H3352 0.949 . S
C3358 C3362 1.368 . S
C3359 C3340 1.429 . S
C3359 C3353 1.429 . S
C3359 C3360 1.523 . S
C3360 C3341 1.368 . S
C3360 C3354 1.368 . S
C3360 C3359 1.523 . S
C3361 C3345 1.429 1_565 S
C3361 C3357 1.429 . S
C3361 C3362 1.523 . S
C3362 C3346 1.368 . S
C3362 C3358 1.368 . S
C3362 C3361 1.523 . S
H3363 C3338 0.950 . S
H3364 C3340 0.950 . S
H3365 C3341 0.949 . S
H3366 C3343 0.950 . S
H3367 C3345 0.950 . S
C3368 C3369 1.349 1_545 S
C3368 C3370 1.327 . S
C3368 H3393 0.950 . S
C3369 C3368 1.349 1_565 S
C3369 C3385 1.349 . S
C3370 C3368 1.327 . S
C3370 C3389 1.429 . S
C3370 H3394 0.950 . S
C3371 C3388 1.574 . S
C3371 C3390 1.368 . S
C3371 H3395 0.949 . S
H3372 C3376 0.949 . S
C3373 C3374 1.349 . S
C3373 C3375 1.327 . S
C3373 H3396 0.950 . S
C3374 C3373 1.349 . S
C3374 C3386 1.349 . S
C3375 C3373 1.327 . S
C3375 C3391 1.429 . S
C3375 H3397 0.950 . S
C3376 H3372 0.949 . S
C3376 C3384 1.574 . S
C3376 C3392 1.368 . S
H3377 C3385 0.950 . S
H3378 C3383 0.950 . S
H3379 C3384 0.949 . S
H3380 C3386 0.950 . S
H3381 C3387 0.950 . S
H3382 C3388 0.949 . S
C3383 H3378 0.950 . S
C3383 C3385 1.327 . S
C3383 C3389 1.429 1_565 S
C3384 C3376 1.574 . S
C3384 H3379 0.949 . S
C3384 C3390 1.368 . S
C3385 C3369 1.349 . S
C3385 H3377 0.950 . S
C3385 C3383 1.327 . S
C3386 C3374 1.349 . S
C3386 H3380 0.950 . S
C3386 C3387 1.327 . S
C3387 H3381 0.950 . S
C3387 C3386 1.327 . S
C3387 C3391 1.429 . S
C3388 C3371 1.574 . S
C3388 H3382 0.949 . S
C3388 C3392 1.368 . S
C3389 C3370 1.429 . S
C3389 C3383 1.429 1_545 S
C3389 C3390 1.523 . S
C3390 C3371 1.368 . S
C3390 C3384 1.368 . S
C3390 C3389 1.523 . S
C3391 C3375 1.429 . S
C3391 C3387 1.429 . S
C3391 C3392 1.523 . S
C3392 C3376 1.368 . S
C3392 C3388 1.368 . S
C3392 C3391 1.523 . S
H3393 C3368 0.950 . S
H3394 C3370 0.950 . S
H3395 C3371 0.949 . S
H3396 C3373 0.950 . S
H3397 C3375 0.950 . S
C3398 C3399 1.349 . S
C3398 C3400 1.327 . S
C3398 H3423 0.950 . S
C3399 C3398 1.349 . S
C3399 C3415 1.349 . S
C3400 C3398 1.327 . S
C3400 C3419 1.429 . S
C3400 H3424 0.950 . S
C3401 C3418 1.574 . S
C3401 C3420 1.368 . S
C3401 H3425 0.949 . S
H3402 C3406 0.949 . S
C3403 C3404 1.349 . S
C3403 C3405 1.327 . S
C3403 H3426 0.950 . S
C3404 C3403 1.349 . S
C3404 C3416 1.349 . S
C3405 C3403 1.327 . S
C3405 C3421 1.429 . S
C3405 H3427 0.950 . S
C3406 H3402 0.949 . S
C3406 C3414 1.574 . S
C3406 C3422 1.368 . S
H3407 C3415 0.950 . S
H3408 C3413 0.950 . S
H3409 C3414 0.949 . S
H3410 C3416 0.950 . S
H3411 C3417 0.950 . S
H3412 C3418 0.949 . S
C3413 H3408 0.950 . S
C3413 C3415 1.327 . S
C3413 C3419 1.429 . S
C3414 C3406 1.574 . S
C3414 H3409 0.949 . S
C3414 C3420 1.368 . S
C3415 C3399 1.349 . S
C3415 H3407 0.950 . S
C3415 C3413 1.327 . S
C3416 C3404 1.349 . S
C3416 H3410 0.950 . S
C3416 C3417 1.327 . S
C3417 H3411 0.950 . S
C3417 C3416 1.327 . S
C3417 C3421 1.429 . S
C3418 C3401 1.574 . S
C3418 H3412 0.949 . S
C3418 C3422 1.368 . S
C3419 C3400 1.429 . S
C3419 C3413 1.429 . S
C3419 C3420 1.523 . S
C3420 C3401 1.368 . S
C3420 C3414 1.368 . S
C3420 C3419 1.523 . S
C3421 C3405 1.429 . S
C3421 C3417 1.429 . S
C3421 C3422 1.523 . S
C3422 C3406 1.368 . S
C3422 C3418 1.368 . S
C3422 C3421 1.523 . S
H3423 C3398 0.950 . S
H3424 C3400 0.950 . S
H3425 C3401 0.949 . S
H3426 C3403 0.950 . S
H3427 C3405 0.950 . S
C3428 C3429 1.349 . S
C3428 C3430 1.327 . S
C3428 H3453 0.950 . S
C3429 C3428 1.349 . S
C3429 C3445 1.349 . S
C3430 C3428 1.327 . S
C3430 C3449 1.429 . S
C3430 H3454 0.950 . S
C3431 C3448 1.574 . S
C3431 C3450 1.368 . S
C3431 H3455 0.949 . S
H3432 C3436 0.949 . S
C3433 C3434 1.349 . S
C3433 C3435 1.327 . S
C3433 H3456 0.950 . S
C3434 C3433 1.349 . S
C3434 C3446 1.349 . S
C3435 C3433 1.327 . S
C3435 C3451 1.429 . S
C3435 H3457 0.950 . S
C3436 H3432 0.949 . S
C3436 C3444 1.574 . S
C3436 C3452 1.368 . S
H3437 C3445 0.950 . S
H3438 C3443 0.950 . S
H3439 C3444 0.949 . S
H3440 C3446 0.950 . S
H3441 C3447 0.950 . S
H3442 C3448 0.949 . S
C3443 H3438 0.950 . S
C3443 C3445 1.327 . S
C3443 C3449 1.429 . S
C3444 C3436 1.574 . S
C3444 H3439 0.949 . S
C3444 C3450 1.368 . S
C3445 C3429 1.349 . S
C3445 H3437 0.950 . S
C3445 C3443 1.327 . S
C3446 C3434 1.349 . S
C3446 H3440 0.950 . S
C3446 C3447 1.327 . S
C3447 H3441 0.950 . S
C3447 C3446 1.327 . S
C3447 C3451 1.429 . S
C3448 C3431 1.574 . S
C3448 H3442 0.949 . S
C3448 C3452 1.368 . S
C3449 C3430 1.429 . S
C3449 C3443 1.429 . S
C3449 C3450 1.523 . S
C3450 C3431 1.368 . S
C3450 C3444 1.368 . S
C3450 C3449 1.523 . S
C3451 C3435 1.429 . S
C3451 C3447 1.429 . S
C3451 C3452 1.523 . S
C3452 C3436 1.368 . S
C3452 C3448 1.368 . S
C3452 C3451 1.523 . S
H3453 C3428 0.950 . S
H3454 C3430 0.950 . S
H3455 C3431 0.949 . S
H3456 C3433 0.950 . S
H3457 C3435 0.950 . S
C3458 C3459 1.349 . S
C3458 C3460 1.327 . S
C3458 H3483 0.950 . S
C3459 C3458 1.349 . S
C3459 C3475 1.349 . S
C3460 C3458 1.327 . S
C3460 C3479 1.429 . S
C3460 H3484 0.950 . S
C3461 C3478 1.574 . S
C3461 C3480 1.368 . S
C3461 H3485 0.949 . S
H3462 C3466 0.949 . S
C3463 C3464 1.349 . S
C3463 C3465 1.327 . S
C3463 H3486 0.950 . S
C3464 C3463 1.349 . S
C3464 C3476 1.349 1_565 S
C3465 C3463 1.327 . S
C3465 C3481 1.429 1_565 S
C3465 H3487 0.950 . S
C3466 H3462 0.949 . S
C3466 C3474 1.574 . S
C3466 C3482 1.368 . S
H3467 C3475 0.950 . S
H3468 C3473 0.950 . S
H3469 C3474 0.949 . S
H3470 C3476 0.950 . S
H3471 C3477 0.950 . S
H3472 C3478 0.949 . S
C3473 H3468 0.950 . S
C3473 C3475 1.327 . S
C3473 C3479 1.429 . S
C3474 C3466 1.574 . S
C3474 H3469 0.949 . S
C3474 C3480 1.368 . S
C3475 C3459 1.349 . S
C3475 H3467 0.950 . S
C3475 C3473 1.327 . S
C3476 C3464 1.349 1_545 S
C3476 H3470 0.950 . S
C3476 C3477 1.327 . S
C3477 H3471 0.950 . S
C3477 C3476 1.327 . S
C3477 C3481 1.429 . S
C3478 C3461 1.574 . S
C3478 H3472 0.949 . S
C3478 C3482 1.368 . S
C3479 C3460 1.429 . S
C3479 C3473 1.429 . S
C3479 C3480 1.523 . S
C3480 C3461 1.368 . S
C3480 C3474 1.368 . S
C3480 C3479 1.523 . S
C3481 C3465 1.429 1_545 S
C3481 C3477 1.429 . S
C3481 C3482 1.523 . S
C3482 C3466 1.368 . S
C3482 C3478 1.368 . S
C3482 C3481 1.523 . S
H3483 C3458 0.950 . S
H3484 C3460 0.950 . S
H3485 C3461 0.949 . S
H3486 C3463 0.950 . S
H3487 C3465 0.950 . S
C1089 C2 1.493 . S
C1094 C70 1.493 . S
C1119 C36 1.493 . S
C1124 C104 1.493 . S
C1149 C138 1.493 . S
C1154 C206 1.493 . S
C1179 C240 1.493 . S
C1184 C172 1.493 . S
C1209 C342 1.493 . S
C1214 C274 1.493 . S
C1239 C376 1.493 . S
C1244 C308 1.493 . S
C1269 C410 1.493 . S
C1274 C478 1.493 . S
C1299 C512 1.493 . S
C1304 C444 1.493 . S
C1329 C614 1.493 . S
C1334 C546 1.493 . S
C1359 C580 1.493 . S
C1364 C648 1.493 . S
C1389 C682 1.493 . S
C1394 C750 1.493 . S
C1419 C784 1.493 . S
C1424 C716 1.493 . S
C1449 C886 1.493 . S
C1454 C818 1.493 . S
C1479 C852 1.493 . S
C1484 C920 1.493 . S
C1509 C1022 1.493 . S
C1514 C954 1.493 . S
C1539 C1056 1.493 . S
C1544 C988 1.493 . S
C1569 C156 1.582 . S
C1574 C20 1.582 . S
C1599 C54 1.583 . S
C1604 C1006 1.583 . S
C1629 C88 1.582 . S
C1634 C496 1.582 . S
C1659 C122 1.583 . S
C1664 C802 1.583 . S
C1689 C190 1.583 . S
C1694 C870 1.583 . S
C1719 C360 1.582 . S
C1724 C224 1.582 . S
C1749 C666 1.583 . S
C1754 C258 1.583 . S
C1779 C292 1.582 . S
C1784 C428 1.582 . S
C1809 C734 1.583 . S
C1814 C326 1.583 . S
C1839 C1074 1.583 . S
C1844 C394 1.583 . S
C1869 C598 1.583 . S
C1874 C462 1.583 . S
C1899 C938 1.583 . S
C1904 C530 1.583 . S
C1929 C700 1.583 . S
C1934 C564 1.583 . S
C1959 C632 1.582 . S
C1964 C1040 1.582 . S
C1989 C768 1.582 . S
C1994 C904 1.582 . S
C2019 C972 1.583 . S
C2024 C836 1.583 . S
C2049 C9 0.789 . S
C2054 C5 0.791 . S
C2079 C39 0.791 . S
C2084 C43 0.789 . S
C2109 C73 0.791 . S
C2114 C77 0.789 . S
C2139 C107 0.791 . S
C2144 C111 0.789 . S
C2169 C145 0.789 . S
C2174 C141 0.791 . S
C2199 C175 0.791 . S
C2204 C179 0.789 . S
C2229 C213 0.789 . S
C2234 C209 0.791 . S
C2259 C247 0.789 . S
C2264 C243 0.791 . S
C2289 C281 0.789 . S
C2294 C277 0.791 . S
C2319 C315 0.789 . S
C2324 C311 0.791 . S
C2349 C349 0.789 . S
C2354 C345 0.791 . S
C2379 C379 0.791 . S
C2384 C383 0.789 . S
C2409 C417 0.789 . S
C2414 C413 0.791 . S
C2439 C451 0.789 . S
C2444 C447 0.791 . S
C2469 C485 0.789 . S
C2474 C481 0.791 . S
C2499 C519 0.789 . S
C2504 C515 0.791 . S
C2529 C549 0.791 . S
C2534 C553 0.789 . S
C2559 C587 0.789 . S
C2564 C583 0.791 . S
C2589 C621 0.789 . S
C2594 C617 0.791 . S
C2619 C655 0.789 . S
C2624 C651 0.791 . S
C2649 C689 0.789 . S
C2654 C685 0.791 . S
C2679 C723 0.789 . S
C2684 C719 0.791 . S
C2709 C753 0.791 . S
C2714 C757 0.789 . S
C2739 C791 0.789 . S
C2744 C787 0.791 . S
C2769 C821 0.791 . S
C2774 C825 0.789 . S
C2799 C859 0.789 . S
C2804 C855 0.791 . S
C2829 C893 0.789 . S
C2834 C889 0.791 . S
C2859 C927 0.789 . S
C2864 C923 0.791 . S
C2889 C957 0.791 . S
C2894 C961 0.789 . S
C2919 C991 0.791 . S
C2924 C995 0.789 . S
C2949 C1025 0.791 . S
C2954 C1029 0.789 . S
C2979 C1059 0.791 . S
C2984 C1063 0.789 . S
C3009 C883 1.626 . S
C3014 C33 1.626 . S
C3039 C67 1.626 . S
C3044 C849 1.626 . S
C3069 C951 1.626 . S
C3074 C101 1.626 . S
C3099 C135 1.626 . S
C3104 C917 1.626 . S
C3129 C1019 1.626 . S
C3134 C169 1.626 . S
C3159 C203 1.626 . S
C3164 C985 1.626 . S
C3189 C1087 1.626 . S
C3194 C237 1.626 . S
C3219 C1053 1.626 . S
C3224 C271 1.626 . S
C3249 C305 1.626 . S
C3254 C611 1.626 . S
C3279 C339 1.626 . S
C3284 C577 1.626 . S
C3309 C679 1.626 . S
C3314 C373 1.626 . S
C3339 C407 1.626 . S
C3344 C645 1.626 . S
C3369 C747 1.626 . S
C3374 C441 1.626 . S
C3399 C713 1.626 . S
C3404 C475 1.626 . S
C3429 C509 1.626 . S
C3434 C815 1.626 . S
C3459 C543 1.626 . S
C3464 C781 1.626 . S
