# Generated by pormake.
# Topology sml, (6)-cn, num edge types: 1
# Building blocks:
#     Node 0, Type 0, BuildingBlock: KUMJIN_clean_sbu_0, # of connection points: 6
#     Node 1, Type 0, BuildingBlock: KUMJIN_clean_sbu_0, # of connection points: 6
#     Node 2, Type 0, BuildingBlock: KUMJIN_clean_sbu_0, # of connection points: 6
#     Node 3, Type 0, BuildingBlock: KUMJIN_clean_sbu_0, # of connection points: 6
#     Node 4, Type 0, BuildingBlock: KUMJIN_clean_sbu_0, # of connection points: 6
#     Node 5, Type 0, BuildingBlock: KUMJIN_clean_sbu_0, # of connection points: 6
#     Edge 6, Type (0, 0), BuildingBlock: AJUNOK_clean_linker_0, # of connection points: 2
#     Edge 7, Type (0, 0), BuildingBlock: AJUNOK_clean_linker_0, # of connection points: 2
#     Edge 8, Type (0, 0), BuildingBlock: AJUNOK_clean_linker_0, # of connection points: 2
#     Edge 9, Type (0, 0), BuildingBlock: AJUNOK_clean_linker_0, # of connection points: 2
#     Edge 10, Type (0, 0), BuildingBlock: AJUNOK_clean_linker_0, # of connection points: 2
#     Edge 11, Type (0, 0), BuildingBlock: AJUNOK_clean_linker_0, # of connection points: 2
#     Edge 12, Type (0, 0), BuildingBlock: AJUNOK_clean_linker_0, # of connection points: 2
#     Edge 13, Type (0, 0), BuildingBlock: AJUNOK_clean_linker_0, # of connection points: 2
#     Edge 14, Type (0, 0), BuildingBlock: AJUNOK_clean_linker_0, # of connection points: 2
#     Edge 15, Type (0, 0), BuildingBlock: AJUNOK_clean_linker_0, # of connection points: 2
#     Edge 16, Type (0, 0), BuildingBlock: AJUNOK_clean_linker_0, # of connection points: 2
#     Edge 17, Type (0, 0), BuildingBlock: AJUNOK_clean_linker_0, # of connection points: 2
#     Edge 18, Type (0, 0), BuildingBlock: AJUNOK_clean_linker_0, # of connection points: 2
#     Edge 19, Type (0, 0), BuildingBlock: AJUNOK_clean_linker_0, # of connection points: 2
#     Edge 20, Type (0, 0), BuildingBlock: AJUNOK_clean_linker_0, # of connection points: 2
#     Edge 21, Type (0, 0), BuildingBlock: AJUNOK_clean_linker_0, # of connection points: 2
#     Edge 22, Type (0, 0), BuildingBlock: AJUNOK_clean_linker_0, # of connection points: 2
#     Edge 23, Type (0, 0), BuildingBlock: AJUNOK_clean_linker_0, # of connection points: 2
# Relax obj value: 0.049
# Max RMSD: 0.174
# Mean RMSD: 0.174
data_MOF--net-sml--node1-KUMJIN_clean_sbu_0--edge1-AJUNOK_clean_linker_0
_symmetry_space_group_name_H-M    P1
_symmetry_Int_Tables_number       1
_symmetry_cell_setting            triclinic
loop_
_symmetry_equiv_pos_as_xyz
'x, y, z'
_cell_length_a     23.490302
_cell_length_b     23.462167
_cell_length_c     19.237949
_cell_angle_alpha  90.116678
_cell_angle_beta   89.686379
_cell_angle_gamma 120.34917
loop_
_atom_site_label
_atom_site_type_symbol
_atom_site_fract_x
_atom_site_fract_y
_atom_site_fract_z
_atom_type_partial_charge
Eu0 Eu 0.10165 0.38824 0.97849 0.0
C1 C 0.30725 0.3312 0.10169 0.0
C2 C 0.23831 0.21352 0.12468 0.0
C3 C 0.35376 0.26045 0.10149 0.0
C4 C 0.24535 0.27661 0.11562 0.0
C5 C 0.36163 0.32296 0.09229 0.0
C6 C 0.29336 0.20636 0.11977 0.0
C7 C 0.42312 0.43414 0.04711 0.0
N8 N 0.3123 0.38993 0.08577 0.0
C9 C 0.37024 0.44208 0.06263 0.0
C10 C 0.42045 0.37652 0.06739 0.0
Eu11 Eu 0.21914 0.39771 0.10635 0.0
N12 N 0.19163 0.28348 0.10978 0.0
C13 C 0.13034 0.22748 0.10593 0.0
C14 C 0.17551 0.15814 0.13076 0.0
C15 C 0.12115 0.165 0.11936 0.0
H16 H 0.37716 0.49065 0.05799 0.0
H17 H 0.07225 0.12179 0.11787 0.0
H18 H 0.28865 0.15812 0.1238 0.0
H19 H 0.46791 0.47447 1.02516 0.0
H20 H 0.0881 0.22912 0.08874 0.0
H21 H 0.18826 0.63416 0.9031 0.0
H22 H 0.16865 0.10927 0.13829 0.0
H23 H 0.96038 0.24989 1.03409 0.0
H24 H 0.15818 0.52218 0.87182 0.0
H25 H 0.87866 0.23001 0.14658 0.0
H26 H 0.39242 0.25164 0.08965 0.0
H27 H 0.12803 0.65573 0.99488 0.0
H28 H 0.06117 0.61764 0.09543 0.0
H29 H 0.46524 0.37613 0.06461 0.0
H30 H 0.91607 0.46538 0.19421 0.0
N31 N 0.0812 0.47679 0.94681 0.0
C32 C 0.12853 0.52915 0.91015 0.0
C33 C 0.11143 0.60541 0.9792 0.0
C34 C 0.05721 0.5526 1.01141 0.0
C35 C 0.14583 0.59355 0.92761 0.0
C36 C 0.03296 0.48348 0.97836 0.0
H37 H 0.84638 0.32128 0.19629 0.0
N38 N -0.01606 0.35498 0.99543 0.0
C39 C 0.89773 0.27584 0.11861 0.0
C40 C 0.971 0.41792 0.99917 0.0
C41 C 0.94892 0.28832 0.04435 0.0
C42 C 0.87251 0.33103 0.14764 0.0
C43 C 0.89822 0.40593 0.10349 0.0
O44 O 0.04381 0.32791 0.89089 0.0
O45 O 0.17902 0.36049 0.99983 0.0
O46 O 0.27763 0.46794 1.01507 0.0
O47 O 0.20036 0.47966 0.95276 0.0
O48 O 0.08826 0.28536 0.9671 0.0
O49 O 0.14641 0.40114 0.87468 0.0
O50 O 0.29613 0.48733 0.1589 0.0
O51 O 0.1706 0.4561 0.06791 0.0
O52 O 0.06031 0.32973 0.08361 0.0
O53 O 0.12886 0.32987 0.16749 0.0
O54 O 0.16126 0.42871 0.1708 0.0
O55 O 0.25992 0.3902 0.20433 0.0
C56 C 0.1489 0.30127 0.97742 0.0
C57 C 0.07923 0.35934 0.77232 0.0
C58 C 0.11544 0.37918 0.6503 0.0
C59 C 0.13059 0.38413 0.72188 0.0
C60 C 0.04941 0.34882 0.62991 0.0
C61 C 0.01361 0.33013 0.74978 0.0
C62 C -0.00092 0.32413 0.67918 0.0
C63 C 0.26195 0.4957 0.96433 0.0
C64 C 0.09281 0.35455 0.84664 0.0
C65 C 0.926 0.4737 0.14075 0.0
C66 C 0.02871 0.5658 0.07996 0.0
C67 C 0.15452 0.46712 0.12868 0.0
C68 C 0.31193 0.48042 0.28198 0.0
C69 C 0.26708 0.45038 0.33822 0.0
C70 C 0.28693 0.47385 0.40684 0.0
C71 C 0.3513 0.52593 0.41752 0.0
C72 C 0.37542 0.53289 0.29509 0.0
C73 C 0.39488 0.55514 0.36245 0.0
C74 C 0.06933 0.30975 0.14537 0.0
C75 C 0.2994 0.45333 0.2109 0.0
H76 H 0.18156 0.40584 0.73796 0.0
H77 H 0.03682 0.34405 0.57544 0.0
H78 H 0.97316 0.30991 0.78655 0.0
H79 H 0.94854 0.29901 0.66225 0.0
H80 H 0.21813 0.40939 0.32847 0.0
H81 H 0.36833 0.54427 0.46873 0.0
H82 H 0.41095 0.55513 0.25321 0.0
H83 H 0.44421 0.59493 0.37242 0.0
Eu84 Eu 0.70972 0.12307 0.34238 0.0
C85 C 0.97782 0.34293 0.44515 0.0
C86 C 0.03016 0.27794 0.4292 0.0
C87 C 0.09185 0.39567 0.40683 0.0
C88 C 0.97402 0.28267 0.44558 0.0
C89 C 0.03847 0.40078 0.43193 0.0
C90 C 0.08757 0.33393 0.40533 0.0
C91 C -0.00998 0.4627 0.47636 0.0
N92 N 0.92324 0.34544 0.46232 0.0
C93 C 0.92861 0.40459 0.47854 0.0
C94 C 0.04434 0.46146 0.44833 0.0
Eu95 Eu 0.82166 0.24398 0.46955 0.0
N96 N 0.91671 0.22952 0.46662 0.0
C97 C 0.91706 0.17313 0.4845 0.0
C98 C 0.02745 0.21774 0.43912 0.0
C99 C 0.97137 0.1658 0.46951 0.0
H100 H 0.88594 0.40719 0.49424 0.0
H101 H 0.97009 0.12024 0.48226 0.0
H102 H 0.12957 0.33008 0.38893 0.0
H103 H -0.00531 0.50874 0.49373 0.0
H104 H 0.8775 0.13374 0.51238 0.0
H105 H 0.58695 0.21944 0.19216 0.0
H106 H 0.06955 0.21214 0.42748 0.0
H107 H 0.65039 0.9796 0.4671 0.0
H108 H 0.66634 0.18473 0.21302 0.0
H109 H 0.56446 0.92969 0.57762 0.0
H110 H 0.13707 0.43932 0.39096 0.0
H111 H 0.49733 0.18973 0.27754 0.0
H112 H 0.42223 0.12009 0.3542 0.0
H113 H 0.09099 0.50697 0.4424 0.0
H114 H 0.35073 0.96534 0.48178 0.0
N115 N 0.61203 0.1195 0.29598 0.0
C116 C 0.62132 0.16191 0.24316 0.0
C117 C 0.52411 0.16389 0.27774 0.0
C118 C 0.50335 0.10862 0.3198 0.0
C119 C 0.5772 0.18366 0.23258 0.0
C120 C 0.54889 0.07921 0.31993 0.0
H121 H 0.43791 0.93372 0.491 0.0
N122 N 0.60841 0.02933 0.3933 0.0
C123 C 0.55273 0.95132 0.53484 0.0
C124 C 0.53735 0.01926 0.36017 0.0
C125 C 0.61776 -0.00158 0.46892 0.0
C126 C 0.46578 0.92779 0.52749 0.0
C127 C 0.43606 0.95128 0.44787 0.0
O128 O 0.68301 0.0457 0.26514 0.0
O129 O 0.81401 0.20191 0.36342 0.0
O130 O 0.82598 0.30916 0.37925 0.0
O131 O 0.73287 0.23183 0.31681 0.0
O132 O 0.79997 0.11197 0.33158 0.0
O133 O 0.74599 0.14813 0.23552 0.0
O134 O 0.80977 0.30313 0.54935 0.0
O135 O 0.71394 0.17468 0.44316 0.0
O136 O 0.74055 0.06773 0.4195 0.0
O137 O 0.78009 0.14044 0.51295 0.0
O138 O 0.74406 0.27264 0.46453 0.0
O139 O 0.82468 0.22227 0.57975 0.0
C140 C 0.84423 0.17335 0.34121 0.0
C141 C 0.68348 0.07445 0.14577 0.0
C142 C 0.69171 0.09999 1.02156 0.0
C143 C 0.7202 0.11263 0.0881 0.0
C144 C 0.6268 0.04785 1.0132 0.0
C145 C 0.61799 0.02383 0.13632 0.0
C146 C 0.59041 0.01039 0.07016 0.0
C147 C 0.78064 0.29446 0.33029 0.0
C148 C 0.71489 0.08707 0.21458 0.0
C149 C 0.39172 0.98638 0.44722 0.0
C150 C 0.43981 0.08551 0.36486 0.0
C151 C 0.69327 0.21542 0.45193 0.0
C152 C 0.83523 0.29894 0.66844 0.0
C153 C 0.81071 0.25729 0.72614 0.0
C154 C 0.82566 0.28259 0.79358 0.0
C155 C 0.86657 0.35086 0.80304 0.0
C156 C 0.87535 0.36729 0.678 0.0
C157 C 0.89123 0.39301 0.74538 0.0
C158 C 0.76004 0.08182 0.4856 0.0
C159 C 0.81325 0.26864 0.60005 0.0
H160 H 0.77021 0.15301 0.09524 0.0
H161 H 0.60351 0.03717 0.96284 0.0
H162 H 0.58809 -0.00547 0.17981 0.0
H163 H 0.53971 0.97267 0.06307 0.0
H164 H 0.77854 0.20507 0.71789 0.0
H165 H 0.87887 0.37169 0.85457 0.0
H166 H 0.89409 0.40046 0.63387 0.0
H167 H 0.92209 0.44573 0.75299 0.0
Eu168 Eu 0.57992 0.71075 0.6565 0.0
C169 C 0.59425 0.95465 0.80114 0.0
C170 C 0.71335 0.02079 0.79645 0.0
C171 C 0.64738 0.07278 0.80655 0.0
C172 C 0.65515 0.95864 0.79764 0.0
C173 C 0.59086 0.01144 0.81431 0.0
C174 C 0.70853 0.07745 0.79591 0.0
C175 C 0.47419 0.94245 0.83397 0.0
N176 N 0.53844 0.89549 0.79473 0.0
C177 C 0.47828 0.88887 0.80837 0.0
C178 C 0.53099 0.00459 0.83607 0.0
Eu179 Eu 0.55219 0.80419 0.78617 0.0
N180 N 0.6576 0.9024 0.79324 0.0
C181 C 0.71742 0.90557 0.79713 0.0
C182 C 0.77443 0.02423 0.79433 0.0
C183 C 0.7764 0.96611 0.79644 0.0
H184 H 0.43382 0.84118 0.80428 0.0
H185 H 0.82328 0.96771 0.79655 0.0
H186 H 0.75222 0.12439 0.78888 0.0
H187 H 0.42711 0.93644 0.84908 0.0
H188 H 0.7215 0.86254 0.79669 0.0
H189 H 0.33336 0.57433 0.57368 0.0
H190 H 0.8201 0.0713 0.79256 0.0
H191 H 0.70237 0.68035 0.73182 0.0
H192 H 0.44918 0.64682 0.549 0.0
H193 H 0.69849 0.60448 0.8418 0.0
H194 H 0.6428 0.11609 0.80706 0.0
H195 H 0.29732 0.4845 0.65813 0.0
H196 H 0.31897 0.43302 0.74619 0.0
H197 H 0.52806 0.04696 0.85348 0.0
H198 H 0.4424 0.38948 0.84489 0.0
N199 N 0.48306 0.6071 0.62498 0.0
C200 C 0.43582 0.60907 0.5866 0.0
C201 C 0.34928 0.51477 0.64588 0.0
C202 C 0.3961 0.50404 0.67792 0.0
C203 C 0.36922 0.56585 0.59886 0.0
C204 C 0.46886 0.54843 0.65363 0.0
H205 H 0.58481 0.48883 0.87926 0.0
N206 N 0.59574 0.61654 0.68527 0.0
C207 C 0.65519 0.58554 0.81002 0.0
C208 C 0.52881 0.54373 0.67728 0.0
C209 C 0.6553 0.63641 0.74128 0.0
C210 C 0.59206 0.50405 0.82624 0.0
C211 C 0.5231 0.4646 0.77196 0.0
O212 O 0.63381 0.69563 0.5721 0.0
O213 O 0.60206 0.81291 0.68288 0.0
O214 O 0.49775 0.81648 0.69298 0.0
O215 O 0.50044 0.73712 0.62195 0.0
O216 O 0.68165 0.80213 0.65581 0.0
O217 O 0.58541 0.7518 0.55408 0.0
O218 O 0.47621 0.77663 0.8656 0.0
O219 O 0.52071 0.69926 0.75596 0.0
O220 O 0.65786 0.74487 0.74418 0.0
O221 O 0.60581 0.75773 0.83827 0.0
O222 O 0.44848 0.72533 0.76474 0.0
O223 O 0.57913 0.82068 0.89617 0.0
C224 C 0.66289 0.84503 0.66498 0.0
C225 C 0.60361 0.70463 0.45567 0.0
C226 C 0.58204 0.7219 0.33574 0.0
C227 C 0.60033 0.74559 0.40393 0.0
C228 C 0.57072 0.65875 0.31954 0.0
C229 C 0.58923 0.64075 0.43865 0.0
C230 C 0.57329 0.61844 0.37065 0.0
C231 C 0.47962 0.77971 0.63534 0.0
C232 C 0.62056 0.72897 0.5271 0.0
C233 C 0.44971 0.4216 0.80039 0.0
C234 C 0.37207 0.45197 0.7378 0.0
C235 C 0.45796 0.67584 0.75999 0.0
C236 C 0.50464 0.82476 0.97887 0.0
C237 C 0.53592 0.8246 0.04056 0.0
C238 C 0.51409 0.83433 0.10502 0.0
C239 C 0.46259 0.84811 0.1065 0.0
C240 C 0.45243 0.83755 0.98156 0.0
C241 C 0.43202 0.84974 0.04521 0.0
C242 C 0.64992 0.74509 0.81247 0.0
C243 C 0.51824 0.79737 0.9165 0.0
H244 H 0.60881 0.79419 0.41745 0.0
H245 H 0.55614 0.63894 0.26791 0.0
H246 H 0.5894 0.60789 0.47795 0.0
H247 H 0.55974 0.56879 0.35751 0.0
H248 H 0.57292 0.81049 1.03824 0.0
H249 H 0.44528 0.85667 0.1549 0.0
H250 H 0.42539 0.83504 0.93542 0.0
H251 H 0.39076 0.85788 0.04754 0.0
Eu252 Eu 0.84374 0.56819 1.00722 0.0
C253 C 0.64053 0.64584 0.11732 0.0
C254 C 0.70732 0.76483 0.10673 0.0
C255 C 0.58896 0.71261 0.1125 0.0
C256 C 0.70232 0.70231 0.11246 0.0
C257 C 0.58361 0.65125 0.12146 0.0
C258 C 0.65055 0.76934 0.10569 0.0
C259 C 0.52048 0.53518 0.14548 0.0
N260 N 0.63549 0.58562 0.11681 0.0
C261 C 0.57558 0.53011 0.12839 0.0
C262 C 0.52312 0.59516 0.1369 0.0
Eu263 Eu 0.73491 0.58397 0.12643 0.0
N264 N 0.75687 0.6962 0.10964 0.0
C265 C 0.81724 0.75223 0.09832 0.0
C266 C 0.76903 0.82129 0.09928 0.0
C267 C 0.8242 0.8148 0.09444 0.0
H268 H 0.57094 0.48205 0.12983 0.0
H269 H 0.87227 0.85796 0.08568 0.0
H270 H 0.65453 0.81686 0.09903 0.0
H271 H 0.47565 0.49257 0.16393 0.0
H272 H 0.86092 0.75076 0.08732 0.0
H273 H 0.68407 0.31076 0.99051 0.0
H274 H 0.77435 0.86983 0.0949 0.0
H275 H 0.93114 0.60552 0.17108 0.0
H276 H 0.72469 0.42026 1.02889 0.0
H277 H 0.02018 0.59642 0.24611 0.0
H278 H 0.5453 0.71588 0.10881 0.0
H279 H 0.75858 0.27293 0.9889 0.0
H280 H 0.84705 0.27532 1.01638 0.0
H281 H 0.47907 0.59824 0.14515 0.0
H282 H 0.00178 0.37086 0.14213 0.0
N283 N 0.82431 0.45789 0.99937 0.0
C284 C 0.75962 0.41038 1.00488 0.0
C285 C 0.78004 0.32436 0.97956 0.0
C286 C 0.84735 0.36566 0.98945 0.0
C287 C 0.73646 0.3461 0.98692 0.0
C288 C 0.87296 0.44154 0.99302 0.0
H289 H 0.04889 0.49636 0.22515 0.0
N290 N 0.92518 0.54957 0.06679 0.0
C291 C 0.00635 0.56982 0.19809 0.0
C292 C 0.93697 0.49352 1.02887 0.0
C293 C 0.95379 0.58359 0.1431 0.0
C294 C 0.03341 0.51324 0.18126 0.0
C295 C 0.01003 0.46585 0.10435 0.0
O296 O 0.92112 0.60943 0.92534 0.0
O297 O 0.77128 0.60317 1.01899 0.0
O298 O 0.66766 0.50057 0.04191 0.0
O299 O 0.74412 0.51241 0.95739 0.0
O300 O 0.85883 0.66885 0.97184 0.0
O301 O 0.82095 0.53388 0.90026 0.0
O302 O 0.66543 0.50511 0.19535 0.0
O303 O 0.77647 0.51724 0.10291 0.0
O304 O 0.91154 0.65808 0.07506 0.0
O305 O 0.8403 0.66018 0.15985 0.0
O306 O 0.79634 0.56284 0.19948 0.0
O307 O 0.71249 0.60793 0.22924 0.0
C308 C 0.8001 0.65755 0.98671 0.0
C309 C 0.8895 0.59256 0.80182 0.0
C310 C 0.85186 0.59292 0.68174 0.0
C311 C 0.83801 0.58153 0.75448 0.0
C312 C 0.91675 0.61732 0.65849 0.0
C313 C 0.95239 0.61383 0.77488 0.0
C314 C 0.96631 0.62796 0.70465 0.0
C315 C 0.68278 0.48455 0.97918 0.0
C316 C 0.87997 0.57252 0.87674 0.0
C317 C -0.01919 0.38784 0.10424 0.0
C318 C 0.87852 0.32853 1.02629 0.0
C319 C 0.79714 0.51648 0.16458 0.0
C320 C 0.656 0.52453 0.31717 0.0
C321 C 0.70152 0.55411 0.37211 0.0
C322 C 0.67941 0.53952 0.44197 0.0
C323 C 0.61152 0.50077 0.4545 0.0
C324 C 0.59034 0.47738 0.33242 0.0
C325 C 0.56792 0.46639 0.40084 0.0
C326 C 0.90048 0.68215 0.13348 0.0
C327 C 0.67108 0.54617 0.24421 0.0
H328 H 0.78793 0.56184 0.77312 0.0
H329 H 0.92886 0.6264 0.60363 0.0
H330 H -0.00944 0.61715 0.80852 0.0
H331 H 0.01551 0.64568 0.68532 0.0
H332 H 0.7526 0.58896 0.36035 0.0
H333 H 0.59205 0.49713 0.50598 0.0
H334 H 0.55491 0.45376 0.29105 0.0
H335 H 0.51601 0.43391 0.41194 0.0
Eu336 Eu 0.25994 0.86779 0.31689 0.0
C337 C 0.00292 0.66905 0.41918 0.0
C338 C 0.95904 0.73096 0.47604 0.0
C339 C 0.88445 0.62589 0.42362 0.0
C340 C 0.01357 0.72466 0.45472 0.0
C341 C 0.93775 0.61768 0.40713 0.0
C342 C 0.8949 0.68279 0.45743 0.0
C343 C -0.01929 0.54986 0.36789 0.0
N344 N 0.05506 0.66091 0.40489 0.0
C345 C 0.0441 0.6014 0.38063 0.0
C346 C 0.92722 0.55721 0.3839 0.0
Eu347 Eu 0.16062 0.74387 0.44403 0.0
N348 N 0.07578 0.76825 0.47598 0.0
C349 C 0.08382 0.81308 0.52651 0.0
C350 C 0.96996 0.78347 0.51884 0.0
C351 C 0.0326 0.82392 0.54549 0.0
H352 H 0.08287 0.59027 0.3754 0.0
H353 H 0.04078 0.86117 0.58374 0.0
H354 H 0.85297 0.68767 0.47194 0.0
H355 H 0.97425 0.50373 0.34893 0.0
H356 H 0.12781 0.83795 0.557 0.0
H357 H 0.40108 0.7575 0.259 0.0
H358 H 0.92958 0.79009 0.53572 0.0
H359 H 0.28207 0.02011 0.3773 0.0
H360 H 0.32705 0.79305 0.22636 0.0
H361 H 0.35063 0.09768 0.48999 0.0
H362 H 0.835 0.58694 0.4127 0.0
H363 H 0.49643 0.82558 0.33603 0.0
H364 H 0.5227 0.95573 0.43596 0.0
H365 H 0.87776 0.51537 0.38179 0.0
H366 H 0.56328 0.05486 0.52081 0.0
N367 N 0.36527 0.87491 0.29528 0.0
C368 C 0.36415 0.82262 0.26335 0.0
C369 C 0.46219 0.8417 0.3227 0.0
C370 C 0.4676 0.89751 0.35322 0.0
C371 C 0.41025 0.80436 0.27808 0.0
C372 C 0.42349 0.92286 0.32266 0.0
H373 H 0.46806 0.11049 0.53783 0.0
N374 N 0.35299 0.9817 0.33951 0.0
C375 C 0.37371 0.07563 0.46047 0.0
C376 C 0.42643 -0.01215 0.34108 0.0
C377 C 0.3282 0.02262 0.38907 0.0
C378 C 0.45425 0.09471 0.48549 0.0
C379 C 0.49679 0.06196 0.43882 0.0
O380 O 0.26985 0.93347 0.23025 0.0
O381 O 0.15654 0.78769 0.34307 0.0
O382 O 0.17754 0.68603 0.35899 0.0
O383 O 0.22904 0.7639 0.27211 0.0
O384 O 0.16736 0.87704 0.3176 0.0
O385 O 0.23119 0.82934 0.21295 0.0
O386 O 0.12456 0.65362 0.50791 0.0
O387 O 0.26766 0.81822 0.41937 0.0
O388 O 0.22395 0.9108 0.40415 0.0
O389 O 0.2171 0.84526 0.49496 0.0
O390 O 0.23993 0.71898 0.43386 0.0
O391 O 0.1713 0.75182 0.55535 0.0
C392 C 0.12345 0.81543 0.3287 0.0
C393 C 0.27301 0.89567 0.11438 0.0
C394 C 0.26229 0.85929 0.99323 0.0
C395 C 0.23639 0.85016 0.06121 0.0
C396 C 0.32405 0.9148 0.97919 0.0
C397 C 0.33555 0.94915 0.0994 0.0
C398 C 0.36055 0.95831 1.03198 0.0
C399 C 0.20142 0.70218 0.29503 0.0
C400 C 0.24541 0.88518 0.18501 0.0
C401 C 0.5369 0.02999 0.47355 0.0
C402 C 0.5141 0.92619 0.41675 0.0
C403 C 0.2899 0.77829 0.42923 0.0
C404 C 0.13375 0.66088 0.63487 0.0
C405 C 0.15723 0.70403 0.69181 0.0
C406 C 0.14147 0.68022 0.7598 0.0
C407 C 0.10111 0.61203 0.77031 0.0
C408 C 0.09627 0.59263 0.64636 0.0
C409 C 0.08034 0.56835 0.71413 0.0
C410 C 0.22256 0.90045 0.47178 0.0
C411 C 0.14233 0.68842 0.56477 0.0
H412 H 0.18881 0.80722 0.07313 0.0
H413 H 0.34482 0.92385 0.92733 0.0
H414 H 0.36512 0.98316 0.13991 0.0
H415 H 0.40914 -0.00205 1.02027 0.0
H416 H 0.18547 0.75629 0.68287 0.0
H417 H 0.08366 0.59245 0.82137 0.0
H418 H 0.0769 0.5584 0.60324 0.0
H419 H 0.04991 0.51576 0.72304 0.0
Eu420 Eu 0.38376 0.26404 0.66285 0.0
C421 C 0.34787 0.0012 0.75239 0.0
C422 C 0.23006 0.94081 0.76987 0.0
C423 C 0.28455 0.88538 0.7207 0.0
C424 C 0.29122 0.00049 0.77183 0.0
C425 C 0.34506 0.94428 0.72439 0.0
C426 C 0.22692 0.88355 0.74359 0.0
C427 C 0.46231 0.00823 0.70496 0.0
N428 N 0.40559 0.05897 0.75566 0.0
C429 C 0.4629 0.06017 0.74097 0.0
C430 C 0.40277 0.94965 0.697 0.0
Eu431 Eu 0.40356 0.15637 0.78508 0.0
N432 N 0.29597 0.05787 0.79326 0.0
C433 C 0.24233 0.05514 0.8252 0.0
C434 C 0.17403 0.94018 0.79531 0.0
C435 C 0.18065 -0.00272 0.82498 0.0
H436 H 0.50874 0.10231 0.75604 0.0
H437 H 0.13855 -0.00346 0.84914 0.0
H438 H 0.17999 0.83812 0.74054 0.0
H439 H 0.50788 0.0117 0.68765 0.0
H440 H 0.24607 0.09545 0.85468 0.0
H441 H 0.6101 0.38524 0.53645 0.0
H442 H 0.12623 0.89534 0.79507 0.0
H443 H 0.28619 0.3108 0.77969 0.0
H444 H 0.48935 0.32286 0.52709 0.0
H445 H 0.31589 0.39449 0.89057 0.0
H446 H 0.28264 0.84175 0.69965 0.0
H447 H 0.66276 0.47131 0.62587 0.0
H448 H 0.66297 0.54593 0.70192 0.0
H449 H 0.40248 0.9088 0.67152 0.0
H450 H 0.56549 0.60478 0.82848 0.0
N451 N 0.47469 0.36541 0.61705 0.0
C452 C 0.51198 0.36175 0.5649 0.0
C453 C 0.61022 0.44715 0.61898 0.0
C454 C 0.5728 0.46814 0.65603 0.0
C455 C 0.58037 0.39689 0.57017 0.0
C456 C 0.49692 0.42459 0.64866 0.0
H457 H 0.42866 0.51522 0.89828 0.0
N458 N 0.38177 0.36137 0.71219 0.0
C459 C 0.35145 0.40723 0.8498 0.0
C460 C 0.44475 0.4325 0.68806 0.0
C461 C 0.33692 0.34818 0.78268 0.0
C462 C 0.41529 0.49022 0.84914 0.0
C463 C 0.47065 0.52238 0.77867 0.0
O464 O 0.32953 0.28336 0.58327 0.0
O465 O 0.36267 0.16046 0.68222 0.0
O466 O 0.47055 0.16737 0.6919 0.0
O467 O 0.47349 0.25358 0.63044 0.0
O468 O 0.28361 0.16976 0.65312 0.0
O469 O 0.37671 0.22668 0.55765 0.0
O470 O 0.46863 0.14739 0.85981 0.0
O471 O 0.43775 0.26453 0.76326 0.0
O472 O 0.29735 0.22536 0.74018 0.0
O473 O 0.34196 0.19783 0.8322 0.0
O474 O 0.50894 0.23915 0.78192 0.0
O475 O 0.38003 0.1469 0.89651 0.0
C476 C 0.303 0.1275 0.66222 0.0
C477 C 0.35242 0.27463 0.46273 0.0
C478 C 0.3638 0.25531 0.33962 0.0
C479 C 0.36069 0.23738 0.40987 0.0
C480 C 0.3562 0.3095 0.32299 0.0
C481 C 0.34893 0.33063 0.44477 0.0
C482 C 0.35032 0.34752 0.37522 0.0
C483 C 0.495 0.21184 0.64126 0.0
C484 C 0.34128 0.25099 0.53514 0.0
C485 C 0.54866 0.56773 0.78753 0.0
C486 C 0.60976 0.52781 0.70683 0.0
C487 C 0.50044 0.28887 0.77228 0.0
C488 C 0.44765 0.13529 0.98476 0.0
C489 C 0.41355 0.14229 0.04194 0.0
C490 C 0.42919 0.13391 0.11035 0.0
C491 C 0.47207 0.10969 0.11958 0.0
C492 C 0.49849 0.12186 0.99711 0.0
C493 C 0.5098 0.10816 0.06432 0.0
C494 C 0.29621 0.20872 0.80629 0.0
C495 C 0.43165 0.14293 0.91258 0.0
H496 H 0.36529 0.19508 0.42331 0.0
H497 H 0.35641 0.32355 0.26933 0.0
H498 H 0.3437 0.36059 0.48432 0.0
H499 H 0.34671 0.39023 0.36166 0.0
H500 H 0.37694 0.15653 1.03336 0.0
H501 H 0.47693 0.09246 0.16959 0.0
H502 H 0.5269 0.11823 0.95463 0.0
H503 H 0.54667 0.09477 0.07358 0.0
C504 C 0.27927 0.2577 0.91479 0.0
C505 C 0.25085 0.21662 0.85687 0.0
C506 C 0.24624 0.28496 0.95077 0.0
C507 C 0.18063 0.26715 0.93881 0.0
H508 H 0.33091 0.2767 0.9263 0.0
H509 H 0.27526 0.32684 0.9817 0.0
S510 S 0.08002 0.1563 0.79515 0.0
N511 N 0.15162 0.15934 0.78696 0.0
N512 N 0.08667 0.2016 0.86385 0.0
C513 C 0.14932 0.22166 0.88393 0.0
C514 C 0.1848 0.19819 0.8419 0.0
C515 C 0.00015 0.30712 0.24749 0.0
C516 C 0.01309 0.2723 0.19592 0.0
C517 C 0.94397 0.27555 0.29082 0.0
C518 C 0.90407 0.20634 0.29381 0.0
H519 H 0.03129 0.36028 0.25125 0.0
H520 H 0.93133 0.30606 0.3215 0.0
S521 S 0.9156 0.09058 0.16984 0.0
N522 N 0.97661 0.16396 0.14628 0.0
N523 N 0.88075 0.10352 0.23808 0.0
C524 C 0.91836 0.17017 0.24468 0.0
C525 C 0.97122 0.20312 0.19472 0.0
C526 C 0.70767 0.01734 0.59503 0.0
C527 C 0.74782 0.02708 0.53627 0.0
C528 C 0.67866 0.95805 0.63367 0.0
C529 C 0.69482 0.90872 0.62261 0.0
H530 H 0.69211 0.05259 0.60642 0.0
H531 H 0.63987 0.94937 0.66936 0.0
S532 S 0.80215 0.91115 0.47785 0.0
N533 N 0.80115 0.98053 0.46726 0.0
N534 N 0.75714 0.87545 0.54788 0.0
C535 C 0.73877 0.91976 0.56643 0.0
C536 C 0.76323 0.97742 0.5223 0.0
C537 C 0.66305 0.68857 0.91868 0.0
C538 C 0.69258 0.73244 0.86227 0.0
C539 C 0.69751 0.66427 0.95723 0.0
C540 C 0.7655 0.68808 0.9478 0.0
H541 H 0.61101 0.66774 0.92911 0.0
H542 H 0.66941 0.62321 0.99159 0.0
S543 S 0.86951 0.81001 0.81265 0.0
N544 N 0.79555 0.80025 0.80008 0.0
N545 N 0.86205 0.76259 0.87949 0.0
C546 C 0.79707 0.73606 0.89505 0.0
C547 C 0.76066 0.75685 0.85161 0.0
C548 C 0.07101 0.75743 0.21639 0.0
C549 C 0.06522 0.78401 0.27999 0.0
C550 C 0.02116 0.73338 0.16573 0.0
C551 C 0.95909 0.72716 0.17879 0.0
H552 H 0.11457 0.75486 0.20494 0.0
H553 H 0.03006 0.71497 0.11769 0.0
S554 S 0.9207 0.79899 0.33192 0.0
N555 N -0.00333 0.81486 0.34655 0.0
N556 N 0.8979 0.75786 0.25789 0.0
C557 C 0.95304 0.7557 0.24121 0.0
C558 C 0.00668 0.786 0.29028 0.0
C559 C 0.30822 0.02989 0.61348 0.0
C560 C 0.27609 0.06634 0.61678 0.0
C561 C 0.28275 0.97059 0.57587 0.0
C562 C 0.23535 0.95445 0.52358 0.0
H563 H 0.35589 0.04952 0.63665 0.0
H564 H 0.30626 0.94143 0.5821 0.0
S565 S 0.13987 0.03935 0.49835 0.0
N566 N 0.18969 0.07982 0.56355 0.0
N567 N 0.15677 0.98159 0.47512 0.0
C568 C 0.20505 -0.00683 0.52113 0.0
C569 C 0.22326 0.04701 0.56954 0.0
C570 C 0.185 0.36521 0.55973 0.0
C571 C 0.16644 0.40622 0.59466 0.0
C572 C 0.22287 0.38621 0.49795 0.0
C573 C 0.24208 0.44831 0.46842 0.0
H574 H 0.1687 0.31603 0.57933 0.0
H575 H 0.23629 0.35342 0.47266 0.0
S576 S 0.20654 0.57376 0.54017 0.0
N577 N 0.17139 0.51189 0.59605 0.0
N578 N 0.23994 0.5502 0.47918 0.0
C579 C 0.22377 0.48938 0.50319 0.0
C580 C 0.18654 0.46862 0.56636 0.0
C581 C 0.69539 0.17183 0.92406 0.0
C582 C 0.72685 0.1444 0.96203 0.0
C583 C 0.72861 0.21785 0.87051 0.0
C584 C 0.79409 0.23755 0.85306 0.0
H585 H 0.64564 0.15966 0.93732 0.0
H586 H 0.70294 0.23843 0.84304 0.0
S587 S 0.89104 0.16578 0.92205 0.0
N588 N 0.82289 0.1314 0.96963 0.0
N589 N 0.88454 0.21699 0.86831 0.0
C590 C 0.82459 0.20733 0.88733 0.0
C591 C 0.79098 0.16068 0.94193 0.0
C592 C 0.50365 0.7226 0.25048 0.0
C593 C 0.56545 0.75723 0.28295 0.0
C594 C 0.48778 0.74941 0.19438 0.0
C595 C 0.53216 0.81279 0.16928 0.0
H596 H 0.46768 0.67333 0.26732 0.0
H597 H 0.44083 0.71919 0.16877 0.0
S598 S 0.70218 0.92283 0.23266 0.0
N599 N 0.67258 0.85781 0.28452 0.0
N600 N 0.64205 0.90876 0.17848 0.0
C601 C 0.59401 0.84883 0.2015 0.0
C602 C 0.61063 0.82111 0.25887 0.0
C603 C 0.77419 0.61542 0.61112 0.0
C604 C 0.80086 0.57483 0.6264 0.0
C605 C 0.73595 0.60517 0.55067 0.0
C606 C 0.72513 0.55557 0.50209 0.0
H607 H 0.78392 0.65599 0.64541 0.0
H608 H 0.71526 0.63654 0.54148 0.0
S609 S 0.7792 0.43288 0.52053 0.0
N610 N 0.80995 0.48068 0.58956 0.0
N611 N 0.73997 0.46268 0.4763 0.0
C612 C 0.75065 0.51427 0.51748 0.0
C613 C 0.78835 0.52388 0.57913 0.0
C614 C 0.23598 0.74908 0.83763 0.0
C615 C 0.1702 0.7262 0.81927 0.0
C616 C 0.26409 0.7899 0.89555 0.0
C617 C 0.22806 0.81074 0.93655 0.0
H618 H 0.26553 0.7342 0.80773 0.0
H619 H 0.31472 0.80557 0.90823 0.0
S620 S 0.05686 0.77222 0.9038 0.0
N621 N 0.07205 0.73299 0.84166 0.0
N622 N 0.1243 0.8088 0.95157 0.0
C623 C 0.16261 0.78945 0.91769 0.0
C624 C 0.13402 0.74784 0.85844 0.0
C625 C 0.34575 0.15333 0.27351 0.0
C626 C 0.38107 0.22238 0.2837 0.0
C627 C 0.36108 0.12398 0.21757 0.0
C628 C 0.4128 0.16282 0.17096 0.0
H629 H 0.3051 0.12217 0.30779 0.0
H630 H 0.33202 0.07107 0.21022 0.0
S631 S 0.5171 0.34511 0.17376 0.0
N632 N 0.46746 0.32797 0.2408 0.0
N633 N 0.50108 0.27312 0.14188 0.0
C634 C 0.45048 0.23116 0.18362 0.0
C635 C 0.43305 0.26093 0.23797 0.0
C636 C 0.16733 0.53115 0.23825 0.0
C637 C 0.17314 0.53284 0.16443 0.0
C638 C 0.17813 0.58569 0.27835 0.0
C639 C 0.19681 0.64731 0.24847 0.0
H640 H 0.15039 0.48547 0.26658 0.0
H641 H 0.17076 0.57849 0.33395 0.0
S642 S 0.25007 0.68994 0.06423 0.0
N643 N 0.22093 0.60929 0.06745 0.0
N644 N 0.23819 0.71171 0.14221 0.0
C645 C 0.21087 0.65301 0.17605 0.0
C646 C 0.20023 0.59641 0.13447 0.0
C647 C 0.59825 0.23304 0.47602 0.0
C648 C 0.63443 0.20227 0.49348 0.0
C649 C 0.55536 0.23798 0.52438 0.0
C650 C 0.54854 0.21505 0.59369 0.0
H651 H 0.60329 0.25378 0.4246 0.0
H652 H 0.5248 0.25645 0.5055 0.0
S653 S 0.64409 0.14301 0.66713 0.0
N654 N 0.66547 0.15392 0.58482 0.0
N655 N 0.59224 0.1702 0.67765 0.0
C656 C 0.58842 0.18829 0.61208 0.0
C657 C 0.62934 0.18038 0.56183 0.0
C658 C 0.29768 0.5425 0.84295 0.0
C659 C 0.31378 0.54277 0.91367 0.0
C660 C 0.3453 0.58305 0.79302 0.0
C661 C 0.41268 0.62239 0.80948 0.0
H662 H 0.24754 0.51108 0.8256 0.0
H663 H 0.32861 0.5851 0.74134 0.0
S664 S 0.48049 0.64625 0.98727 0.0
N665 N 0.401 0.59446 0.99875 0.0
N666 N 0.49166 0.66154 0.9033 0.0
C667 C 0.42906 0.62441 0.88017 0.0
C668 C 0.37969 0.58663 0.93222 0.0
C669 C 0.83589 0.41501 0.29229 0.0
C670 C 0.78064 0.35151 0.29301 0.0
C671 C 0.83556 0.46807 0.25666 0.0
C672 C 0.78761 0.4571 0.20698 0.0
H673 H 0.87949 0.4234 0.31908 0.0
H674 H 0.8784 0.51685 0.25997 0.0
S675 S 0.6202 0.33463 0.26171 0.0
N676 N 0.66474 0.30652 0.29631 0.0
N677 N 0.66887 0.39566 0.20902 0.0
C678 C 0.72689 0.39885 0.22093 0.0
C679 C 0.72372 0.34806 0.26695 0.0
C680 C 0.34105 0.80295 0.55163 0.0
C681 C 0.34285 0.78771 0.48041 0.0
C682 C 0.3837 0.79892 0.60199 0.0
C683 C 0.4329 0.78368 0.58295 0.0
H684 H 0.30526 0.81603 0.56907 0.0
H685 H 0.37739 0.80649 0.65625 0.0
S686 S 0.43675 0.71124 0.41366 0.0
N687 N 0.37653 0.72734 0.4053 0.0
N688 N 0.47128 0.74285 0.48886 0.0
C689 C 0.43175 0.76503 0.51297 0.0
C690 C 0.38309 0.76092 0.465 0.0
C691 C 0.65562 0.42963 0.85847 0.0
C692 C 0.63507 0.43124 0.92829 0.0
C693 C 0.61128 0.38753 0.80639 0.0
C694 C 0.54351 0.34524 0.8204 0.0
H695 H 0.70581 0.46319 0.84228 0.0
H696 H 0.63039 0.38821 0.75485 0.0
S697 S 0.48132 0.29303 0.99486 0.0
N698 N 0.55286 0.35993 1.01011 0.0
N699 N 0.46805 0.28751 0.91164 0.0
C700 C 0.52547 0.33971 0.89044 0.0
C701 C 0.57119 0.38037 0.94426 0.0
loop_
_geom_bond_atom_site_label_1
_geom_bond_atom_site_label_2
_geom_bond_distance
_geom_bond_site_symmetry_2
_ccdc_geom_bond_type
Eu0 N31 2.657 . S
Eu0 N38 2.609 . S
Eu0 O44 2.558 . S
Eu0 O45 2.612 . S
Eu0 O47 2.339 . S
Eu0 O48 2.563 . S
Eu0 O49 2.419 . S
Eu0 O51 2.380 1_556 S
Eu0 O52 2.432 1_556 S
Eu0 C64 2.848 . S
C1 C4 1.429 . S
C1 C5 1.411 . S
C1 N8 1.377 . S
C2 C4 1.420 . S
C2 C6 1.423 . S
C2 C14 1.392 . S
C3 C5 1.420 . S
C3 C6 1.351 . S
C3 H26 0.931 . S
C4 C1 1.429 . S
C4 C2 1.420 . S
C4 N12 1.362 . S
C5 C1 1.411 . S
C5 C3 1.420 . S
C5 C10 1.395 . S
C6 C2 1.423 . S
C6 C3 1.351 . S
C6 H18 0.930 . S
C7 C9 1.400 . S
C7 C10 1.386 . S
C7 H19 0.930 . S
N8 C1 1.377 . S
N8 C9 1.321 . S
N8 Eu11 2.609 . S
C9 C7 1.400 . S
C9 N8 1.321 . S
C9 H16 0.930 . S
C10 C5 1.395 . S
C10 C7 1.386 . S
C10 H29 0.930 . S
Eu11 N8 2.609 . S
Eu11 N12 2.657 . S
Eu11 O45 2.380 1_554 S
Eu11 O46 2.432 . S
Eu11 O50 2.558 . S
Eu11 O51 2.612 . S
Eu11 O53 2.339 . S
Eu11 O54 2.563 . S
Eu11 O55 2.419 . S
Eu11 C75 2.848 . S
N12 C4 1.362 . S
N12 Eu11 2.657 . S
N12 C13 1.334 . S
C13 N12 1.334 . S
C13 C15 1.413 . S
C13 H20 0.929 . S
C14 C2 1.392 . S
C14 C15 1.367 . S
C14 H22 0.930 . S
C15 C13 1.413 . S
C15 C14 1.367 . S
C15 H17 0.930 . S
H16 C9 0.930 . S
H17 C15 0.930 . S
H18 C6 0.930 . S
H19 C7 0.930 . S
H20 C13 0.929 . S
H21 C35 0.930 . S
H22 C14 0.930 . S
H23 C41 0.930 . S
H24 C32 0.929 . S
H25 C39 0.930 . S
H26 C3 0.931 . S
H27 C33 0.930 . S
H28 C66 0.930 . S
H29 C10 0.930 . S
H30 C65 0.931 . S
N31 Eu0 2.657 . S
N31 C32 1.334 . S
N31 C36 1.362 . S
C32 H24 0.929 . S
C32 N31 1.334 . S
C32 C35 1.413 . S
C33 H27 0.930 . S
C33 C34 1.392 . S
C33 C35 1.367 . S
C34 C33 1.392 . S
C34 C36 1.420 . S
C34 C66 1.423 . S
C35 H21 0.930 . S
C35 C32 1.413 . S
C35 C33 1.367 . S
C36 N31 1.362 . S
C36 C34 1.420 . S
C36 C40 1.429 . S
H37 C42 0.930 . S
N38 Eu0 2.609 . S
N38 C40 1.377 . S
N38 C41 1.321 1_455 S
C39 H25 0.930 . S
C39 C41 1.400 . S
C39 C42 1.386 . S
C40 C36 1.429 . S
C40 N38 1.377 . S
C40 C43 1.411 1_455 S
C41 H23 0.930 . S
C41 N38 1.321 1_655 S
C41 C39 1.400 . S
C42 H37 0.930 . S
C42 C39 1.386 . S
C42 C43 1.395 . S
C43 C40 1.411 1_655 S
C43 C42 1.395 . S
C43 C65 1.420 . S
O44 Eu0 2.558 . S
O44 C64 1.257 . S
O45 Eu0 2.612 . S
O45 Eu11 2.380 1_556 S
O45 C56 1.276 . S
O46 Eu11 2.432 . S
O46 C63 1.264 1_554 S
O47 Eu0 2.339 . S
O47 C63 1.254 . S
O48 Eu0 2.563 . S
O48 C56 1.235 . S
O49 Eu0 2.419 . S
O49 C64 1.249 . S
O50 Eu11 2.558 . S
O50 C75 1.257 . S
O51 Eu0 2.380 1_554 S
O51 Eu11 2.612 . S
O51 C67 1.276 . S
O52 Eu0 2.432 1_554 S
O52 C74 1.264 . S
O53 Eu11 2.339 . S
O53 C74 1.254 . S
O54 Eu11 2.563 . S
O54 C67 1.235 . S
O55 Eu11 2.419 . S
O55 C75 1.249 . S
C56 O45 1.276 . S
C56 O48 1.235 . S
C57 C59 1.393 . S
C57 C61 1.395 . S
C57 C64 1.492 . S
C58 C59 1.392 . S
C58 C60 1.386 . S
C59 C57 1.393 . S
C59 C58 1.392 . S
C59 H76 0.930 . S
C60 C58 1.386 . S
C60 C62 1.395 1_455 S
C60 H77 0.930 . S
C61 C57 1.395 . S
C61 C62 1.379 1_455 S
C61 H78 0.930 1_455 S
C62 C60 1.395 1_655 S
C62 C61 1.379 1_655 S
C62 H79 0.930 . S
C63 O46 1.264 1_556 S
C63 O47 1.254 . S
C64 Eu0 2.848 . S
C64 O44 1.257 . S
C64 O49 1.249 . S
C64 C57 1.492 . S
C65 H30 0.931 . S
C65 C43 1.420 . S
C65 C66 1.351 1_655 S
C66 H28 0.930 . S
C66 C34 1.423 . S
C66 C65 1.351 1_455 S
C67 O51 1.276 . S
C67 O54 1.235 . S
C68 C69 1.393 . S
C68 C72 1.395 . S
C68 C75 1.492 . S
C69 C68 1.393 . S
C69 C70 1.392 . S
C69 H80 0.930 . S
C70 C69 1.392 . S
C70 C71 1.386 . S
C71 C70 1.386 . S
C71 C73 1.395 . S
C71 H81 0.930 . S
C72 C68 1.395 . S
C72 C73 1.379 . S
C72 H82 0.930 . S
C73 C71 1.395 . S
C73 C72 1.379 . S
C73 H83 0.930 . S
C74 O52 1.264 . S
C74 O53 1.254 . S
C75 Eu11 2.848 . S
C75 O50 1.257 . S
C75 O55 1.249 . S
C75 C68 1.492 . S
H76 C59 0.930 . S
H77 C60 0.930 . S
H78 C61 0.930 1_655 S
H79 C62 0.930 . S
H80 C69 0.930 . S
H81 C71 0.930 . S
H82 C72 0.930 . S
H83 C73 0.930 . S
Eu84 N115 2.657 . S
Eu84 N122 2.609 . S
Eu84 O128 2.558 . S
Eu84 O129 2.612 . S
Eu84 O131 2.339 . S
Eu84 O132 2.563 . S
Eu84 O133 2.419 . S
Eu84 O135 2.380 . S
Eu84 O136 2.432 . S
Eu84 C148 2.848 . S
C85 C88 1.429 . S
C85 C89 1.411 . S
C85 N92 1.377 1_455 S
C86 C88 1.420 . S
C86 C90 1.423 . S
C86 C98 1.392 . S
C87 C89 1.420 . S
C87 C90 1.351 . S
C87 H110 0.931 . S
C88 C85 1.429 . S
C88 C86 1.420 . S
C88 N96 1.362 1_455 S
C89 C85 1.411 . S
C89 C87 1.420 . S
C89 C94 1.395 . S
C90 C86 1.423 . S
C90 C87 1.351 . S
C90 H102 0.930 . S
C91 C93 1.400 1_455 S
C91 C94 1.386 . S
C91 H103 0.930 . S
N92 C85 1.377 1_655 S
N92 C93 1.321 . S
N92 Eu95 2.609 . S
C93 C91 1.400 1_655 S
C93 N92 1.321 . S
C93 H100 0.930 . S
C94 C89 1.395 . S
C94 C91 1.386 . S
C94 H113 0.930 . S
Eu95 N92 2.609 . S
Eu95 N96 2.657 . S
Eu95 O129 2.380 . S
Eu95 O130 2.432 . S
Eu95 O134 2.558 . S
Eu95 O135 2.612 . S
Eu95 O137 2.339 . S
Eu95 O138 2.563 . S
Eu95 O139 2.419 . S
Eu95 C159 2.848 . S
N96 C88 1.362 1_655 S
N96 Eu95 2.657 . S
N96 C97 1.334 . S
C97 N96 1.334 . S
C97 C99 1.413 1_655 S
C97 H104 0.929 . S
C98 C86 1.392 . S
C98 C99 1.367 . S
C98 H106 0.930 . S
C99 C97 1.413 1_455 S
C99 C98 1.367 . S
C99 H101 0.930 . S
H100 C93 0.930 . S
H101 C99 0.930 . S
H102 C90 0.930 . S
H103 C91 0.930 . S
H104 C97 0.929 . S
H105 C119 0.930 . S
H106 C98 0.930 . S
H107 C125 0.930 . S
H108 C116 0.929 . S
H109 C123 0.930 . S
H110 C87 0.931 . S
H111 C117 0.930 . S
H112 C150 0.930 . S
H113 C94 0.930 . S
H114 C149 0.931 . S
N115 Eu84 2.657 . S
N115 C116 1.334 . S
N115 C120 1.362 . S
C116 H108 0.929 . S
C116 N115 1.334 . S
C116 C119 1.413 . S
C117 H111 0.930 . S
C117 C118 1.392 . S
C117 C119 1.367 . S
C118 C117 1.392 . S
C118 C120 1.420 . S
C118 C150 1.423 . S
C119 H105 0.930 . S
C119 C116 1.413 . S
C119 C117 1.367 . S
C120 N115 1.362 . S
C120 C118 1.420 . S
C120 C124 1.429 . S
H121 C126 0.930 . S
N122 Eu84 2.609 . S
N122 C124 1.377 . S
N122 C125 1.321 1_545 S
C123 H109 0.930 . S
C123 C125 1.400 . S
C123 C126 1.386 . S
C124 C120 1.429 . S
C124 N122 1.377 . S
C124 C127 1.411 1_545 S
C125 H107 0.930 . S
C125 N122 1.321 1_565 S
C125 C123 1.400 . S
C126 H121 0.930 . S
C126 C123 1.386 . S
C126 C127 1.395 . S
C127 C124 1.411 1_565 S
C127 C126 1.395 . S
C127 C149 1.420 . S
O128 Eu84 2.558 . S
O128 C148 1.257 . S
O129 Eu84 2.612 . S
O129 Eu95 2.380 . S
O129 C140 1.276 . S
O130 Eu95 2.432 . S
O130 C147 1.264 . S
O131 Eu84 2.339 . S
O131 C147 1.254 . S
O132 Eu84 2.563 . S
O132 C140 1.235 . S
O133 Eu84 2.419 . S
O133 C148 1.249 . S
O134 Eu95 2.558 . S
O134 C159 1.257 . S
O135 Eu84 2.380 . S
O135 Eu95 2.612 . S
O135 C151 1.276 . S
O136 Eu84 2.432 . S
O136 C158 1.264 . S
O137 Eu95 2.339 . S
O137 C158 1.254 . S
O138 Eu95 2.563 . S
O138 C151 1.235 . S
O139 Eu95 2.419 . S
O139 C159 1.249 . S
C140 O129 1.276 . S
C140 O132 1.235 . S
C141 C143 1.393 . S
C141 C145 1.395 . S
C141 C148 1.492 . S
C142 C143 1.392 1_556 S
C142 C144 1.386 . S
C143 C141 1.393 . S
C143 C142 1.392 1_554 S
C143 H160 0.930 . S
C144 C142 1.386 . S
C144 C146 1.395 1_546 S
C144 H161 0.930 . S
C145 C141 1.395 . S
C145 C146 1.379 1_545 S
C145 H162 0.930 1_545 S
C146 C144 1.395 1_564 S
C146 C145 1.379 1_565 S
C146 H163 0.930 1_554 S
C147 O130 1.264 . S
C147 O131 1.254 . S
C148 Eu84 2.848 . S
C148 O128 1.257 . S
C148 O133 1.249 . S
C148 C141 1.492 . S
C149 H114 0.931 . S
C149 C127 1.420 . S
C149 C150 1.351 1_565 S
C150 H112 0.930 . S
C150 C118 1.423 . S
C150 C149 1.351 1_545 S
C151 O135 1.276 . S
C151 O138 1.235 . S
C152 C153 1.393 . S
C152 C156 1.395 . S
C152 C159 1.492 . S
C153 C152 1.393 . S
C153 C154 1.392 . S
C153 H164 0.930 . S
C154 C153 1.392 . S
C154 C155 1.386 . S
C155 C154 1.386 . S
C155 C157 1.395 . S
C155 H165 0.930 . S
C156 C152 1.395 . S
C156 C157 1.379 . S
C156 H166 0.930 . S
C157 C155 1.395 . S
C157 C156 1.379 . S
C157 H167 0.930 . S
C158 O136 1.264 . S
C158 O137 1.254 . S
C159 Eu95 2.848 . S
C159 O134 1.257 . S
C159 O139 1.249 . S
C159 C152 1.492 . S
H160 C143 0.930 . S
H161 C144 0.930 . S
H162 C145 0.930 1_565 S
H163 C146 0.930 1_556 S
H164 C153 0.930 . S
H165 C155 0.930 . S
H166 C156 0.930 . S
H167 C157 0.930 . S
Eu168 N199 2.657 . S
Eu168 N206 2.609 . S
Eu168 O212 2.558 . S
Eu168 O213 2.612 . S
Eu168 O215 2.339 . S
Eu168 O216 2.563 . S
Eu168 O217 2.419 . S
Eu168 O219 2.380 . S
Eu168 O220 2.432 . S
Eu168 C232 2.848 . S
C169 C172 1.429 . S
C169 C173 1.411 . S
C169 N176 1.377 1_545 S
C170 C172 1.420 . S
C170 C174 1.423 . S
C170 C182 1.392 . S
C171 C173 1.420 . S
C171 C174 1.351 . S
C171 H194 0.931 . S
C172 C169 1.429 . S
C172 C170 1.420 . S
C172 N180 1.362 1_545 S
C173 C169 1.411 . S
C173 C171 1.420 . S
C173 C178 1.395 . S
C174 C170 1.423 . S
C174 C171 1.351 . S
C174 H186 0.930 . S
C175 C177 1.400 1_545 S
C175 C178 1.386 . S
C175 H187 0.930 . S
N176 C169 1.377 1_565 S
N176 C177 1.321 . S
N176 Eu179 2.609 . S
C177 C175 1.400 1_565 S
C177 N176 1.321 . S
C177 H184 0.930 . S
C178 C173 1.395 . S
C178 C175 1.386 . S
C178 H197 0.930 . S
Eu179 N176 2.609 . S
Eu179 N180 2.657 . S
Eu179 O213 2.380 . S
Eu179 O214 2.432 . S
Eu179 O218 2.558 . S
Eu179 O219 2.612 . S
Eu179 O221 2.339 . S
Eu179 O222 2.563 . S
Eu179 O223 2.419 . S
Eu179 C243 2.848 . S
N180 C172 1.362 1_565 S
N180 Eu179 2.657 . S
N180 C181 1.334 . S
C181 N180 1.334 . S
C181 C183 1.413 1_565 S
C181 H188 0.929 . S
C182 C170 1.392 . S
C182 C183 1.367 . S
C182 H190 0.930 . S
C183 C181 1.413 1_545 S
C183 C182 1.367 . S
C183 H185 0.930 . S
H184 C177 0.930 . S
H185 C183 0.930 . S
H186 C174 0.930 . S
H187 C175 0.930 . S
H188 C181 0.929 . S
H189 C203 0.930 . S
H190 C182 0.930 . S
H191 C209 0.930 . S
H192 C200 0.929 . S
H193 C207 0.930 . S
H194 C171 0.931 . S
H195 C201 0.930 . S
H196 C234 0.930 . S
H197 C178 0.930 . S
H198 C233 0.931 . S
N199 Eu168 2.657 . S
N199 C200 1.334 . S
N199 C204 1.362 . S
C200 H192 0.929 . S
C200 N199 1.334 . S
C200 C203 1.413 . S
C201 H195 0.930 . S
C201 C202 1.392 . S
C201 C203 1.367 . S
C202 C201 1.392 . S
C202 C204 1.420 . S
C202 C234 1.423 . S
C203 H189 0.930 . S
C203 C200 1.413 . S
C203 C201 1.367 . S
C204 N199 1.362 . S
C204 C202 1.420 . S
C204 C208 1.429 . S
H205 C210 0.930 . S
N206 Eu168 2.609 . S
N206 C208 1.377 . S
N206 C209 1.321 . S
C207 H193 0.930 . S
C207 C209 1.400 . S
C207 C210 1.386 . S
C208 C204 1.429 . S
C208 N206 1.377 . S
C208 C211 1.411 . S
C209 H191 0.930 . S
C209 N206 1.321 . S
C209 C207 1.400 . S
C210 H205 0.930 . S
C210 C207 1.386 . S
C210 C211 1.395 . S
C211 C208 1.411 . S
C211 C210 1.395 . S
C211 C233 1.420 . S
O212 Eu168 2.558 . S
O212 C232 1.257 . S
O213 Eu168 2.612 . S
O213 Eu179 2.380 . S
O213 C224 1.276 . S
O214 Eu179 2.432 . S
O214 C231 1.264 . S
O215 Eu168 2.339 . S
O215 C231 1.254 . S
O216 Eu168 2.563 . S
O216 C224 1.235 . S
O217 Eu168 2.419 . S
O217 C232 1.249 . S
O218 Eu179 2.558 . S
O218 C243 1.257 . S
O219 Eu168 2.380 . S
O219 Eu179 2.612 . S
O219 C235 1.276 . S
O220 Eu168 2.432 . S
O220 C242 1.264 . S
O221 Eu179 2.339 . S
O221 C242 1.254 . S
O222 Eu179 2.563 . S
O222 C235 1.235 . S
O223 Eu179 2.419 . S
O223 C243 1.249 . S
C224 O213 1.276 . S
C224 O216 1.235 . S
C225 C227 1.393 . S
C225 C229 1.395 . S
C225 C232 1.492 . S
C226 C227 1.392 . S
C226 C228 1.386 . S
C227 C225 1.393 . S
C227 C226 1.392 . S
C227 H244 0.930 . S
C228 C226 1.386 . S
C228 C230 1.395 . S
C228 H245 0.930 . S
C229 C225 1.395 . S
C229 C230 1.379 . S
C229 H246 0.930 . S
C230 C228 1.395 . S
C230 C229 1.379 . S
C230 H247 0.930 . S
C231 O214 1.264 . S
C231 O215 1.254 . S
C232 Eu168 2.848 . S
C232 O212 1.257 . S
C232 O217 1.249 . S
C232 C225 1.492 . S
C233 H198 0.931 . S
C233 C211 1.420 . S
C233 C234 1.351 . S
C234 H196 0.930 . S
C234 C202 1.423 . S
C234 C233 1.351 . S
C235 O219 1.276 . S
C235 O222 1.235 . S
C236 C237 1.393 1_556 S
C236 C240 1.395 . S
C236 C243 1.492 . S
C237 C236 1.393 1_554 S
C237 C238 1.392 . S
C237 H248 0.930 1_554 S
C238 C237 1.392 . S
C238 C239 1.386 . S
C239 C238 1.386 . S
C239 C241 1.395 . S
C239 H249 0.930 . S
C240 C236 1.395 . S
C240 C241 1.379 1_556 S
C240 H250 0.930 . S
C241 C239 1.395 . S
C241 C240 1.379 1_554 S
C241 H251 0.930 . S
C242 O220 1.264 . S
C242 O221 1.254 . S
C243 Eu179 2.848 . S
C243 O218 1.257 . S
C243 O223 1.249 . S
C243 C236 1.492 . S
H244 C227 0.930 . S
H245 C228 0.930 . S
H246 C229 0.930 . S
H247 C230 0.930 . S
H248 C237 0.930 1_556 S
H249 C239 0.930 . S
H250 C240 0.930 . S
H251 C241 0.930 . S
Eu252 N283 2.657 . S
Eu252 N290 2.609 . S
Eu252 O296 2.558 . S
Eu252 O297 2.612 . S
Eu252 O299 2.339 . S
Eu252 O300 2.563 . S
Eu252 O301 2.419 . S
Eu252 O303 2.380 1_556 S
Eu252 O304 2.432 1_556 S
Eu252 C316 2.848 . S
C253 C256 1.429 . S
C253 C257 1.411 . S
C253 N260 1.377 . S
C254 C256 1.420 . S
C254 C258 1.423 . S
C254 C266 1.392 . S
C255 C257 1.420 . S
C255 C258 1.351 . S
C255 H278 0.931 . S
C256 C253 1.429 . S
C256 C254 1.420 . S
C256 N264 1.362 . S
C257 C253 1.411 . S
C257 C255 1.420 . S
C257 C262 1.395 . S
C258 C254 1.423 . S
C258 C255 1.351 . S
C258 H270 0.930 . S
C259 C261 1.400 . S
C259 C262 1.386 . S
C259 H271 0.930 . S
N260 C253 1.377 . S
N260 C261 1.321 . S
N260 Eu263 2.609 . S
C261 C259 1.400 . S
C261 N260 1.321 . S
C261 H268 0.930 . S
C262 C257 1.395 . S
C262 C259 1.386 . S
C262 H281 0.930 . S
Eu263 N260 2.609 . S
Eu263 N264 2.657 . S
Eu263 O297 2.380 1_554 S
Eu263 O298 2.432 . S
Eu263 O302 2.558 . S
Eu263 O303 2.612 . S
Eu263 O305 2.339 . S
Eu263 O306 2.563 . S
Eu263 O307 2.419 . S
Eu263 C327 2.848 . S
N264 C256 1.362 . S
N264 Eu263 2.657 . S
N264 C265 1.334 . S
C265 N264 1.334 . S
C265 C267 1.413 . S
C265 H272 0.929 . S
C266 C254 1.392 . S
C266 C267 1.367 . S
C266 H274 0.930 . S
C267 C265 1.413 . S
C267 C266 1.367 . S
C267 H269 0.930 . S
H268 C261 0.930 . S
H269 C267 0.930 . S
H270 C258 0.930 . S
H271 C259 0.930 . S
H272 C265 0.929 . S
H273 C287 0.930 . S
H274 C266 0.930 . S
H275 C293 0.930 . S
H276 C284 0.929 . S
H277 C291 0.930 . S
H278 C255 0.931 . S
H279 C285 0.930 . S
H280 C318 0.930 . S
H281 C262 0.930 . S
H282 C317 0.931 . S
N283 Eu252 2.657 . S
N283 C284 1.334 . S
N283 C288 1.362 . S
C284 H276 0.929 . S
C284 N283 1.334 . S
C284 C287 1.413 . S
C285 H279 0.930 . S
C285 C286 1.392 . S
C285 C287 1.367 . S
C286 C285 1.392 . S
C286 C288 1.420 . S
C286 C318 1.423 . S
C287 H273 0.930 . S
C287 C284 1.413 . S
C287 C285 1.367 . S
C288 N283 1.362 . S
C288 C286 1.420 . S
C288 C292 1.429 . S
H289 C294 0.930 . S
N290 Eu252 2.609 . S
N290 C292 1.377 . S
N290 C293 1.321 1_655 S
C291 H277 0.930 . S
C291 C293 1.400 . S
C291 C294 1.386 . S
C292 C288 1.429 . S
C292 N290 1.377 . S
C292 C295 1.411 1_655 S
C293 H275 0.930 . S
C293 N290 1.321 1_455 S
C293 C291 1.400 . S
C294 H289 0.930 . S
C294 C291 1.386 . S
C294 C295 1.395 . S
C295 C292 1.411 1_455 S
C295 C294 1.395 . S
C295 C317 1.420 . S
O296 Eu252 2.558 . S
O296 C316 1.257 . S
O297 Eu252 2.612 . S
O297 Eu263 2.380 1_556 S
O297 C308 1.276 . S
O298 Eu263 2.432 . S
O298 C315 1.264 1_554 S
O299 Eu252 2.339 . S
O299 C315 1.254 . S
O300 Eu252 2.563 . S
O300 C308 1.235 . S
O301 Eu252 2.419 . S
O301 C316 1.249 . S
O302 Eu263 2.558 . S
O302 C327 1.257 . S
O303 Eu252 2.380 1_554 S
O303 Eu263 2.612 . S
O303 C319 1.276 . S
O304 Eu252 2.432 1_554 S
O304 C326 1.264 . S
O305 Eu263 2.339 . S
O305 C326 1.254 . S
O306 Eu263 2.563 . S
O306 C319 1.235 . S
O307 Eu263 2.419 . S
O307 C327 1.249 . S
C308 O297 1.276 . S
C308 O300 1.235 . S
C309 C311 1.393 . S
C309 C313 1.395 . S
C309 C316 1.492 . S
C310 C311 1.392 . S
C310 C312 1.386 . S
C311 C309 1.393 . S
C311 C310 1.392 . S
C311 H328 0.930 . S
C312 C310 1.386 . S
C312 C314 1.395 1_655 S
C312 H329 0.930 . S
C313 C309 1.395 . S
C313 C314 1.379 1_655 S
C313 H330 0.930 1_655 S
C314 C312 1.395 1_455 S
C314 C313 1.379 1_455 S
C314 H331 0.930 . S
C315 O298 1.264 1_556 S
C315 O299 1.254 . S
C316 Eu252 2.848 . S
C316 O296 1.257 . S
C316 O301 1.249 . S
C316 C309 1.492 . S
C317 H282 0.931 . S
C317 C295 1.420 . S
C317 C318 1.351 1_455 S
C318 H280 0.930 . S
C318 C286 1.423 . S
C318 C317 1.351 1_655 S
C319 O303 1.276 . S
C319 O306 1.235 . S
C320 C321 1.393 . S
C320 C324 1.395 . S
C320 C327 1.492 . S
C321 C320 1.393 . S
C321 C322 1.392 . S
C321 H332 0.930 . S
C322 C321 1.392 . S
C322 C323 1.386 . S
C323 C322 1.386 . S
C323 C325 1.395 . S
C323 H333 0.930 . S
C324 C320 1.395 . S
C324 C325 1.379 . S
C324 H334 0.930 . S
C325 C323 1.395 . S
C325 C324 1.379 . S
C325 H335 0.930 . S
C326 O304 1.264 . S
C326 O305 1.254 . S
C327 Eu263 2.848 . S
C327 O302 1.257 . S
C327 O307 1.249 . S
C327 C320 1.492 . S
H328 C311 0.930 . S
H329 C312 0.930 . S
H330 C313 0.930 1_455 S
H331 C314 0.930 . S
H332 C321 0.930 . S
H333 C323 0.930 . S
H334 C324 0.930 . S
H335 C325 0.930 . S
Eu336 N367 2.657 . S
Eu336 N374 2.609 . S
Eu336 O380 2.558 . S
Eu336 O381 2.612 . S
Eu336 O383 2.339 . S
Eu336 O384 2.563 . S
Eu336 O385 2.419 . S
Eu336 O387 2.380 . S
Eu336 O388 2.432 . S
Eu336 C400 2.848 . S
C337 C340 1.429 . S
C337 C341 1.411 . S
C337 N344 1.377 1_655 S
C338 C340 1.420 . S
C338 C342 1.423 . S
C338 C350 1.392 . S
C339 C341 1.420 . S
C339 C342 1.351 . S
C339 H362 0.931 . S
C340 C337 1.429 . S
C340 C338 1.420 . S
C340 N348 1.362 1_655 S
C341 C337 1.411 . S
C341 C339 1.420 . S
C341 C346 1.395 . S
C342 C338 1.423 . S
C342 C339 1.351 . S
C342 H354 0.930 . S
C343 C345 1.400 1_655 S
C343 C346 1.386 . S
C343 H355 0.930 . S
N344 C337 1.377 1_455 S
N344 C345 1.321 . S
N344 Eu347 2.609 . S
C345 C343 1.400 1_455 S
C345 N344 1.321 . S
C345 H352 0.930 . S
C346 C341 1.395 . S
C346 C343 1.386 . S
C346 H365 0.930 . S
Eu347 N344 2.609 . S
Eu347 N348 2.657 . S
Eu347 O381 2.380 . S
Eu347 O382 2.432 . S
Eu347 O386 2.558 . S
Eu347 O387 2.612 . S
Eu347 O389 2.339 . S
Eu347 O390 2.563 . S
Eu347 O391 2.419 . S
Eu347 C411 2.848 . S
N348 C340 1.362 1_455 S
N348 Eu347 2.657 . S
N348 C349 1.334 . S
C349 N348 1.334 . S
C349 C351 1.413 1_455 S
C349 H356 0.929 . S
C350 C338 1.392 . S
C350 C351 1.367 . S
C350 H358 0.930 . S
C351 C349 1.413 1_655 S
C351 C350 1.367 . S
C351 H353 0.930 . S
H352 C345 0.930 . S
H353 C351 0.930 . S
H354 C342 0.930 . S
H355 C343 0.930 . S
H356 C349 0.929 . S
H357 C371 0.930 . S
H358 C350 0.930 . S
H359 C377 0.930 . S
H360 C368 0.929 . S
H361 C375 0.930 . S
H362 C339 0.931 . S
H363 C369 0.930 . S
H364 C402 0.930 . S
H365 C346 0.930 . S
H366 C401 0.931 . S
N367 Eu336 2.657 . S
N367 C368 1.334 . S
N367 C372 1.362 . S
C368 H360 0.929 . S
C368 N367 1.334 . S
C368 C371 1.413 . S
C369 H363 0.930 . S
C369 C370 1.392 . S
C369 C371 1.367 . S
C370 C369 1.392 . S
C370 C372 1.420 . S
C370 C402 1.423 . S
C371 H357 0.930 . S
C371 C368 1.413 . S
C371 C369 1.367 . S
C372 N367 1.362 . S
C372 C370 1.420 . S
C372 C376 1.429 . S
H373 C378 0.930 . S
N374 Eu336 2.609 . S
N374 C376 1.377 . S
N374 C377 1.321 1_565 S
C375 H361 0.930 . S
C375 C377 1.400 . S
C375 C378 1.386 . S
C376 C372 1.429 . S
C376 N374 1.377 . S
C376 C379 1.411 1_565 S
C377 H359 0.930 . S
C377 N374 1.321 1_545 S
C377 C375 1.400 . S
C378 H373 0.930 . S
C378 C375 1.386 . S
C378 C379 1.395 . S
C379 C376 1.411 1_545 S
C379 C378 1.395 . S
C379 C401 1.420 . S
O380 Eu336 2.558 . S
O380 C400 1.257 . S
O381 Eu336 2.612 . S
O381 Eu347 2.380 . S
O381 C392 1.276 . S
O382 Eu347 2.432 . S
O382 C399 1.264 . S
O383 Eu336 2.339 . S
O383 C399 1.254 . S
O384 Eu336 2.563 . S
O384 C392 1.235 . S
O385 Eu336 2.419 . S
O385 C400 1.249 . S
O386 Eu347 2.558 . S
O386 C411 1.257 . S
O387 Eu336 2.380 . S
O387 Eu347 2.612 . S
O387 C403 1.276 . S
O388 Eu336 2.432 . S
O388 C410 1.264 . S
O389 Eu347 2.339 . S
O389 C410 1.254 . S
O390 Eu347 2.563 . S
O390 C403 1.235 . S
O391 Eu347 2.419 . S
O391 C411 1.249 . S
C392 O381 1.276 . S
C392 O384 1.235 . S
C393 C395 1.393 . S
C393 C397 1.395 . S
C393 C400 1.492 . S
C394 C395 1.392 1_556 S
C394 C396 1.386 . S
C395 C393 1.393 . S
C395 C394 1.392 1_554 S
C395 H412 0.930 . S
C396 C394 1.386 . S
C396 C398 1.395 1_566 S
C396 H413 0.930 . S
C397 C393 1.395 . S
C397 C398 1.379 1_565 S
C397 H414 0.930 1_565 S
C398 C396 1.395 1_544 S
C398 C397 1.379 1_545 S
C398 H415 0.930 1_554 S
C399 O382 1.264 . S
C399 O383 1.254 . S
C400 Eu336 2.848 . S
C400 O380 1.257 . S
C400 O385 1.249 . S
C400 C393 1.492 . S
C401 H366 0.931 . S
C401 C379 1.420 . S
C401 C402 1.351 1_545 S
C402 H364 0.930 . S
C402 C370 1.423 . S
C402 C401 1.351 1_565 S
C403 O387 1.276 . S
C403 O390 1.235 . S
C404 C405 1.393 . S
C404 C408 1.395 . S
C404 C411 1.492 . S
C405 C404 1.393 . S
C405 C406 1.392 . S
C405 H416 0.930 . S
C406 C405 1.392 . S
C406 C407 1.386 . S
C407 C406 1.386 . S
C407 C409 1.395 . S
C407 H417 0.930 . S
C408 C404 1.395 . S
C408 C409 1.379 . S
C408 H418 0.930 . S
C409 C407 1.395 . S
C409 C408 1.379 . S
C409 H419 0.930 . S
C410 O388 1.264 . S
C410 O389 1.254 . S
C411 Eu347 2.848 . S
C411 O386 1.257 . S
C411 O391 1.249 . S
C411 C404 1.492 . S
H412 C395 0.930 . S
H413 C396 0.930 . S
H414 C397 0.930 1_545 S
H415 C398 0.930 1_556 S
H416 C405 0.930 . S
H417 C407 0.930 . S
H418 C408 0.930 . S
H419 C409 0.930 . S
Eu420 N451 2.657 . S
Eu420 N458 2.609 . S
Eu420 O464 2.558 . S
Eu420 O465 2.612 . S
Eu420 O467 2.339 . S
Eu420 O468 2.563 . S
Eu420 O469 2.419 . S
Eu420 O471 2.380 . S
Eu420 O472 2.432 . S
Eu420 C484 2.848 . S
C421 C424 1.429 . S
C421 C425 1.411 . S
C421 N428 1.377 1_565 S
C422 C424 1.420 . S
C422 C426 1.423 . S
C422 C434 1.392 . S
C423 C425 1.420 . S
C423 C426 1.351 . S
C423 H446 0.931 . S
C424 C421 1.429 . S
C424 C422 1.420 . S
C424 N432 1.362 1_565 S
C425 C421 1.411 . S
C425 C423 1.420 . S
C425 C430 1.395 . S
C426 C422 1.423 . S
C426 C423 1.351 . S
C426 H438 0.930 . S
C427 C429 1.400 1_565 S
C427 C430 1.386 . S
C427 H439 0.930 . S
N428 C421 1.377 1_545 S
N428 C429 1.321 . S
N428 Eu431 2.609 . S
C429 C427 1.400 1_545 S
C429 N428 1.321 . S
C429 H436 0.930 . S
C430 C425 1.395 . S
C430 C427 1.386 . S
C430 H449 0.930 . S
Eu431 N428 2.609 . S
Eu431 N432 2.657 . S
Eu431 O465 2.380 . S
Eu431 O466 2.432 . S
Eu431 O470 2.558 . S
Eu431 O471 2.612 . S
Eu431 O473 2.339 . S
Eu431 O474 2.563 . S
Eu431 O475 2.419 . S
Eu431 C495 2.848 . S
N432 C424 1.362 1_545 S
N432 Eu431 2.657 . S
N432 C433 1.334 . S
C433 N432 1.334 . S
C433 C435 1.413 1_545 S
C433 H440 0.929 . S
C434 C422 1.392 . S
C434 C435 1.367 . S
C434 H442 0.930 . S
C435 C433 1.413 1_565 S
C435 C434 1.367 . S
C435 H437 0.930 . S
H436 C429 0.930 . S
H437 C435 0.930 . S
H438 C426 0.930 . S
H439 C427 0.930 . S
H440 C433 0.929 . S
H441 C455 0.930 . S
H442 C434 0.930 . S
H443 C461 0.930 . S
H444 C452 0.929 . S
H445 C459 0.930 . S
H446 C423 0.931 . S
H447 C453 0.930 . S
H448 C486 0.930 . S
H449 C430 0.930 . S
H450 C485 0.931 . S
N451 Eu420 2.657 . S
N451 C452 1.334 . S
N451 C456 1.362 . S
C452 H444 0.929 . S
C452 N451 1.334 . S
C452 C455 1.413 . S
C453 H447 0.930 . S
C453 C454 1.392 . S
C453 C455 1.367 . S
C454 C453 1.392 . S
C454 C456 1.420 . S
C454 C486 1.423 . S
C455 H441 0.930 . S
C455 C452 1.413 . S
C455 C453 1.367 . S
C456 N451 1.362 . S
C456 C454 1.420 . S
C456 C460 1.429 . S
H457 C462 0.930 . S
N458 Eu420 2.609 . S
N458 C460 1.377 . S
N458 C461 1.321 . S
C459 H445 0.930 . S
C459 C461 1.400 . S
C459 C462 1.386 . S
C460 C456 1.429 . S
C460 N458 1.377 . S
C460 C463 1.411 . S
C461 H443 0.930 . S
C461 N458 1.321 . S
C461 C459 1.400 . S
C462 H457 0.930 . S
C462 C459 1.386 . S
C462 C463 1.395 . S
C463 C460 1.411 . S
C463 C462 1.395 . S
C463 C485 1.420 . S
O464 Eu420 2.558 . S
O464 C484 1.257 . S
O465 Eu420 2.612 . S
O465 Eu431 2.380 . S
O465 C476 1.276 . S
O466 Eu431 2.432 . S
O466 C483 1.264 . S
O467 Eu420 2.339 . S
O467 C483 1.254 . S
O468 Eu420 2.563 . S
O468 C476 1.235 . S
O469 Eu420 2.419 . S
O469 C484 1.249 . S
O470 Eu431 2.558 . S
O470 C495 1.257 . S
O471 Eu420 2.380 . S
O471 Eu431 2.612 . S
O471 C487 1.276 . S
O472 Eu420 2.432 . S
O472 C494 1.264 . S
O473 Eu431 2.339 . S
O473 C494 1.254 . S
O474 Eu431 2.563 . S
O474 C487 1.235 . S
O475 Eu431 2.419 . S
O475 C495 1.249 . S
C476 O465 1.276 . S
C476 O468 1.235 . S
C477 C479 1.393 . S
C477 C481 1.395 . S
C477 C484 1.492 . S
C478 C479 1.392 . S
C478 C480 1.386 . S
C479 C477 1.393 . S
C479 C478 1.392 . S
C479 H496 0.930 . S
C480 C478 1.386 . S
C480 C482 1.395 . S
C480 H497 0.930 . S
C481 C477 1.395 . S
C481 C482 1.379 . S
C481 H498 0.930 . S
C482 C480 1.395 . S
C482 C481 1.379 . S
C482 H499 0.930 . S
C483 O466 1.264 . S
C483 O467 1.254 . S
C484 Eu420 2.848 . S
C484 O464 1.257 . S
C484 O469 1.249 . S
C484 C477 1.492 . S
C485 H450 0.931 . S
C485 C463 1.420 . S
C485 C486 1.351 . S
C486 H448 0.930 . S
C486 C454 1.423 . S
C486 C485 1.351 . S
C487 O471 1.276 . S
C487 O474 1.235 . S
C488 C489 1.393 1_556 S
C488 C492 1.395 . S
C488 C495 1.492 . S
C489 C488 1.393 1_554 S
C489 C490 1.392 . S
C489 H500 0.930 1_554 S
C490 C489 1.392 . S
C490 C491 1.386 . S
C491 C490 1.386 . S
C491 C493 1.395 . S
C491 H501 0.930 . S
C492 C488 1.395 . S
C492 C493 1.379 1_556 S
C492 H502 0.930 . S
C493 C491 1.395 . S
C493 C492 1.379 1_554 S
C493 H503 0.930 . S
C494 O472 1.264 . S
C494 O473 1.254 . S
C495 Eu431 2.848 . S
C495 O470 1.257 . S
C495 O475 1.249 . S
C495 C488 1.492 . S
H496 C479 0.930 . S
H497 C480 0.930 . S
H498 C481 0.930 . S
H499 C482 0.930 . S
H500 C489 0.930 1_556 S
H501 C491 0.930 . S
H502 C492 0.930 . S
H503 C493 0.930 . S
C504 C505 1.369 . S
C504 C506 1.419 . S
C504 H508 0.930 . S
C505 C504 1.369 . S
C505 C514 1.429 . S
C506 C504 1.419 . S
C506 C507 1.363 . S
C506 H509 0.929 . S
C507 C506 1.363 . S
C507 C513 1.428 . S
H508 C504 0.930 . S
H509 C506 0.929 . S
S510 N511 1.613 . S
S510 N512 1.610 . S
N511 S510 1.613 . S
N511 C514 1.350 . S
N512 S510 1.610 . S
N512 C513 1.351 . S
C513 C507 1.428 . S
C513 N512 1.351 . S
C513 C514 1.434 . S
C514 C505 1.429 . S
C514 N511 1.350 . S
C514 C513 1.434 . S
C515 C516 1.369 . S
C515 C517 1.419 1_455 S
C515 H519 0.930 . S
C516 C515 1.369 . S
C516 C525 1.429 . S
C517 C515 1.419 1_655 S
C517 C518 1.363 . S
C517 H520 0.929 . S
C518 C517 1.363 . S
C518 C524 1.428 . S
H519 C515 0.930 . S
H520 C517 0.929 . S
S521 N522 1.613 1_655 S
S521 N523 1.610 . S
N522 S521 1.613 1_455 S
N522 C525 1.350 . S
N523 S521 1.610 . S
N523 C524 1.351 . S
C524 C518 1.428 . S
C524 N523 1.351 . S
C524 C525 1.434 1_655 S
C525 C516 1.429 . S
C525 N522 1.350 . S
C525 C524 1.434 1_455 S
C526 C527 1.369 . S
C526 C528 1.419 1_545 S
C526 H530 0.930 . S
C527 C526 1.369 . S
C527 C536 1.429 . S
C528 C526 1.419 1_565 S
C528 C529 1.363 . S
C528 H531 0.929 . S
C529 C528 1.363 . S
C529 C535 1.428 . S
H530 C526 0.930 . S
H531 C528 0.929 . S
S532 N533 1.613 1_565 S
S532 N534 1.610 . S
N533 S532 1.613 1_545 S
N533 C536 1.350 . S
N534 S532 1.610 . S
N534 C535 1.351 . S
C535 C529 1.428 . S
C535 N534 1.351 . S
C535 C536 1.434 1_565 S
C536 C527 1.429 . S
C536 N533 1.350 . S
C536 C535 1.434 1_545 S
C537 C538 1.369 . S
C537 C539 1.419 . S
C537 H541 0.930 . S
C538 C537 1.369 . S
C538 C547 1.429 . S
C539 C537 1.419 . S
C539 C540 1.363 . S
C539 H542 0.929 . S
C540 C539 1.363 . S
C540 C546 1.428 . S
H541 C537 0.930 . S
H542 C539 0.929 . S
S543 N544 1.613 . S
S543 N545 1.610 . S
N544 S543 1.613 . S
N544 C547 1.350 . S
N545 S543 1.610 . S
N545 C546 1.351 . S
C546 C540 1.428 . S
C546 N545 1.351 . S
C546 C547 1.434 . S
C547 C538 1.429 . S
C547 N544 1.350 . S
C547 C546 1.434 . S
C548 C549 1.369 . S
C548 C550 1.419 . S
C548 H552 0.930 . S
C549 C548 1.369 . S
C549 C558 1.429 1_455 S
C550 C548 1.419 . S
C550 C551 1.363 1_455 S
C550 H553 0.929 . S
C551 C550 1.363 1_655 S
C551 C557 1.428 . S
H552 C548 0.930 . S
H553 C550 0.929 . S
S554 N555 1.613 . S
S554 N556 1.610 . S
N555 S554 1.613 . S
N555 C558 1.350 . S
N556 S554 1.610 . S
N556 C557 1.351 . S
C557 C551 1.428 . S
C557 N556 1.351 . S
C557 C558 1.434 . S
C558 C549 1.429 1_655 S
C558 N555 1.350 . S
C558 C557 1.434 . S
C559 C560 1.369 . S
C559 C561 1.419 1_545 S
C559 H563 0.930 . S
C560 C559 1.369 . S
C560 C569 1.429 . S
C561 C559 1.419 1_565 S
C561 C562 1.363 . S
C561 H564 0.929 . S
C562 C561 1.363 . S
C562 C568 1.428 . S
H563 C559 0.930 . S
H564 C561 0.929 . S
S565 N566 1.613 . S
S565 N567 1.610 1_545 S
N566 S565 1.613 . S
N566 C569 1.350 . S
N567 S565 1.610 1_565 S
N567 C568 1.351 . S
C568 C562 1.428 . S
C568 N567 1.351 . S
C568 C569 1.434 1_565 S
C569 C560 1.429 . S
C569 N566 1.350 . S
C569 C568 1.434 1_545 S
C570 C571 1.369 . S
C570 C572 1.419 . S
C570 H574 0.930 . S
C571 C570 1.369 . S
C571 C580 1.429 . S
C572 C570 1.419 . S
C572 C573 1.363 . S
C572 H575 0.929 . S
C573 C572 1.363 . S
C573 C579 1.428 . S
H574 C570 0.930 . S
H575 C572 0.929 . S
S576 N577 1.613 . S
S576 N578 1.610 . S
N577 S576 1.613 . S
N577 C580 1.350 . S
N578 S576 1.610 . S
N578 C579 1.351 . S
C579 C573 1.428 . S
C579 N578 1.351 . S
C579 C580 1.434 . S
C580 C571 1.429 . S
C580 N577 1.350 . S
C580 C579 1.434 . S
C581 C582 1.369 . S
C581 C583 1.419 . S
C581 H585 0.930 . S
C582 C581 1.369 . S
C582 C591 1.429 . S
C583 C581 1.419 . S
C583 C584 1.363 . S
C583 H586 0.929 . S
C584 C583 1.363 . S
C584 C590 1.428 . S
H585 C581 0.930 . S
H586 C583 0.929 . S
S587 N588 1.613 . S
S587 N589 1.610 . S
N588 S587 1.613 . S
N588 C591 1.350 . S
N589 S587 1.610 . S
N589 C590 1.351 . S
C590 C584 1.428 . S
C590 N589 1.351 . S
C590 C591 1.434 . S
C591 C582 1.429 . S
C591 N588 1.350 . S
C591 C590 1.434 . S
C592 C593 1.369 . S
C592 C594 1.419 . S
C592 H596 0.930 . S
C593 C592 1.369 . S
C593 C602 1.429 . S
C594 C592 1.419 . S
C594 C595 1.363 . S
C594 H597 0.929 . S
C595 C594 1.363 . S
C595 C601 1.428 . S
H596 C592 0.930 . S
H597 C594 0.929 . S
S598 N599 1.613 . S
S598 N600 1.610 . S
N599 S598 1.613 . S
N599 C602 1.350 . S
N600 S598 1.610 . S
N600 C601 1.351 . S
C601 C595 1.428 . S
C601 N600 1.351 . S
C601 C602 1.434 . S
C602 C593 1.429 . S
C602 N599 1.350 . S
C602 C601 1.434 . S
C603 C604 1.369 . S
C603 C605 1.419 . S
C603 H607 0.930 . S
C604 C603 1.369 . S
C604 C613 1.429 . S
C605 C603 1.419 . S
C605 C606 1.363 . S
C605 H608 0.929 . S
C606 C605 1.363 . S
C606 C612 1.428 . S
H607 C603 0.930 . S
H608 C605 0.929 . S
S609 N610 1.613 . S
S609 N611 1.610 . S
N610 S609 1.613 . S
N610 C613 1.350 . S
N611 S609 1.610 . S
N611 C612 1.351 . S
C612 C606 1.428 . S
C612 N611 1.351 . S
C612 C613 1.434 . S
C613 C604 1.429 . S
C613 N610 1.350 . S
C613 C612 1.434 . S
C614 C615 1.369 . S
C614 C616 1.419 . S
C614 H618 0.930 . S
C615 C614 1.369 . S
C615 C624 1.429 . S
C616 C614 1.419 . S
C616 C617 1.363 . S
C616 H619 0.929 . S
C617 C616 1.363 . S
C617 C623 1.428 . S
H618 C614 0.930 . S
H619 C616 0.929 . S
S620 N621 1.613 . S
S620 N622 1.610 . S
N621 S620 1.613 . S
N621 C624 1.350 . S
N622 S620 1.610 . S
N622 C623 1.351 . S
C623 C617 1.428 . S
C623 N622 1.351 . S
C623 C624 1.434 . S
C624 C615 1.429 . S
C624 N621 1.350 . S
C624 C623 1.434 . S
C625 C626 1.369 . S
C625 C627 1.419 . S
C625 H629 0.930 . S
C626 C625 1.369 . S
C626 C635 1.429 . S
C627 C625 1.419 . S
C627 C628 1.363 . S
C627 H630 0.929 . S
C628 C627 1.363 . S
C628 C634 1.428 . S
H629 C625 0.930 . S
H630 C627 0.929 . S
S631 N632 1.613 . S
S631 N633 1.610 . S
N632 S631 1.613 . S
N632 C635 1.350 . S
N633 S631 1.610 . S
N633 C634 1.351 . S
C634 C628 1.428 . S
C634 N633 1.351 . S
C634 C635 1.434 . S
C635 C626 1.429 . S
C635 N632 1.350 . S
C635 C634 1.434 . S
C636 C637 1.369 . S
C636 C638 1.419 . S
C636 H640 0.930 . S
C637 C636 1.369 . S
C637 C646 1.429 . S
C638 C636 1.419 . S
C638 C639 1.363 . S
C638 H641 0.929 . S
C639 C638 1.363 . S
C639 C645 1.428 . S
H640 C636 0.930 . S
H641 C638 0.929 . S
S642 N643 1.613 . S
S642 N644 1.610 . S
N643 S642 1.613 . S
N643 C646 1.350 . S
N644 S642 1.610 . S
N644 C645 1.351 . S
C645 C639 1.428 . S
C645 N644 1.351 . S
C645 C646 1.434 . S
C646 C637 1.429 . S
C646 N643 1.350 . S
C646 C645 1.434 . S
C647 C648 1.369 . S
C647 C649 1.419 . S
C647 H651 0.930 . S
C648 C647 1.369 . S
C648 C657 1.429 . S
C649 C647 1.419 . S
C649 C650 1.363 . S
C649 H652 0.929 . S
C650 C649 1.363 . S
C650 C656 1.428 . S
H651 C647 0.930 . S
H652 C649 0.929 . S
S653 N654 1.613 . S
S653 N655 1.610 . S
N654 S653 1.613 . S
N654 C657 1.350 . S
N655 S653 1.610 . S
N655 C656 1.351 . S
C656 C650 1.428 . S
C656 N655 1.351 . S
C656 C657 1.434 . S
C657 C648 1.429 . S
C657 N654 1.350 . S
C657 C656 1.434 . S
C658 C659 1.369 . S
C658 C660 1.419 . S
C658 H662 0.930 . S
C659 C658 1.369 . S
C659 C668 1.429 . S
C660 C658 1.419 . S
C660 C661 1.363 . S
C660 H663 0.929 . S
C661 C660 1.363 . S
C661 C667 1.428 . S
H662 C658 0.930 . S
H663 C660 0.929 . S
S664 N665 1.613 . S
S664 N666 1.610 . S
N665 S664 1.613 . S
N665 C668 1.350 . S
N666 S664 1.610 . S
N666 C667 1.351 . S
C667 C661 1.428 . S
C667 N666 1.351 . S
C667 C668 1.434 . S
C668 C659 1.429 . S
C668 N665 1.350 . S
C668 C667 1.434 . S
C669 C670 1.369 . S
C669 C671 1.419 . S
C669 H673 0.930 . S
C670 C669 1.369 . S
C670 C679 1.429 . S
C671 C669 1.419 . S
C671 C672 1.363 . S
C671 H674 0.929 . S
C672 C671 1.363 . S
C672 C678 1.428 . S
H673 C669 0.930 . S
H674 C671 0.929 . S
S675 N676 1.613 . S
S675 N677 1.610 . S
N676 S675 1.613 . S
N676 C679 1.350 . S
N677 S675 1.610 . S
N677 C678 1.351 . S
C678 C672 1.428 . S
C678 N677 1.351 . S
C678 C679 1.434 . S
C679 C670 1.429 . S
C679 N676 1.350 . S
C679 C678 1.434 . S
C680 C681 1.369 . S
C680 C682 1.419 . S
C680 H684 0.930 . S
C681 C680 1.369 . S
C681 C690 1.429 . S
C682 C680 1.419 . S
C682 C683 1.363 . S
C682 H685 0.929 . S
C683 C682 1.363 . S
C683 C689 1.428 . S
H684 C680 0.930 . S
H685 C682 0.929 . S
S686 N687 1.613 . S
S686 N688 1.610 . S
N687 S686 1.613 . S
N687 C690 1.350 . S
N688 S686 1.610 . S
N688 C689 1.351 . S
C689 C683 1.428 . S
C689 N688 1.351 . S
C689 C690 1.434 . S
C690 C681 1.429 . S
C690 N687 1.350 . S
C690 C689 1.434 . S
C691 C692 1.369 . S
C691 C693 1.419 . S
C691 H695 0.930 . S
C692 C691 1.369 . S
C692 C701 1.429 . S
C693 C691 1.419 . S
C693 C694 1.363 . S
C693 H696 0.929 . S
C694 C693 1.363 . S
C694 C700 1.428 . S
H695 C691 0.930 . S
H696 C693 0.929 . S
S697 N698 1.613 . S
S697 N699 1.610 . S
N698 S697 1.613 . S
N698 C701 1.350 . S
N699 S697 1.610 . S
N699 C700 1.351 . S
C700 C694 1.428 . S
C700 N699 1.351 . S
C700 C701 1.434 . S
C701 C692 1.429 . S
C701 N698 1.350 . S
C701 C700 1.434 . S
C505 C494 1.482 . S
C507 C56 1.392 . S
C516 C74 1.480 . S
C518 C140 1.392 . S
C527 C158 1.480 . S
C529 C224 1.392 . S
C538 C242 1.482 . S
C540 C308 1.391 . S
C549 C392 1.401 . S
C551 C326 1.481 . S
C560 C476 1.396 . S
C562 C410 1.480 . S
C571 C58 1.645 . S
C573 C70 1.649 . S
C582 C142 1.646 . S
C584 C154 1.648 . S
C593 C226 1.649 . S
C595 C238 1.646 . S
C604 C310 1.647 . S
C606 C322 1.647 . S
C615 C406 1.649 . S
C617 C394 1.646 . S
C626 C478 1.647 . S
C628 C490 1.647 . S
C637 C67 1.438 . S
C639 C399 1.528 . S
C648 C151 1.449 . S
C650 C483 1.534 . S
C659 C63 1.534 . S
C661 C235 1.446 . S
C670 C147 1.528 . S
C672 C319 1.441 . S
C681 C403 1.448 . S
C683 C231 1.532 . S
C692 C315 1.535 . S
C694 C487 1.449 . S
