# Generated by pormake.
# Topology snk, (6)-cn, num edge types: 1
# Building blocks:
#     Node 0, Type 0, BuildingBlock: UKALOJ_clean_sbu_0, # of connection points: 6
#     Node 1, Type 0, BuildingBlock: UKALOJ_clean_sbu_0, # of connection points: 6
#     Node 2, Type 0, BuildingBlock: UKALOJ_clean_sbu_0, # of connection points: 6
#     Node 3, Type 0, BuildingBlock: UKALOJ_clean_sbu_0, # of connection points: 6
#     Node 4, Type 0, BuildingBlock: UKALOJ_clean_sbu_0, # of connection points: 6
#     Node 5, Type 0, BuildingBlock: UKALOJ_clean_sbu_0, # of connection points: 6
#     Node 6, Type 0, BuildingBlock: UKALOJ_clean_sbu_0, # of connection points: 6
#     Node 7, Type 0, BuildingBlock: UKALOJ_clean_sbu_0, # of connection points: 6
#     Edge 8, Type (0, 0), BuildingBlock: CIFDUS_clean_linker_0, # of connection points: 2
#     Edge 9, Type (0, 0), BuildingBlock: CIFDUS_clean_linker_0, # of connection points: 2
#     Edge 10, Type (0, 0), BuildingBlock: CIFDUS_clean_linker_0, # of connection points: 2
#     Edge 11, Type (0, 0), BuildingBlock: CIFDUS_clean_linker_0, # of connection points: 2
#     Edge 12, Type (0, 0), BuildingBlock: CIFDUS_clean_linker_0, # of connection points: 2
#     Edge 13, Type (0, 0), BuildingBlock: CIFDUS_clean_linker_0, # of connection points: 2
#     Edge 14, Type (0, 0), BuildingBlock: CIFDUS_clean_linker_0, # of connection points: 2
#     Edge 15, Type (0, 0), BuildingBlock: CIFDUS_clean_linker_0, # of connection points: 2
#     Edge 16, Type (0, 0), BuildingBlock: CIFDUS_clean_linker_0, # of connection points: 2
#     Edge 17, Type (0, 0), BuildingBlock: CIFDUS_clean_linker_0, # of connection points: 2
#     Edge 18, Type (0, 0), BuildingBlock: CIFDUS_clean_linker_0, # of connection points: 2
#     Edge 19, Type (0, 0), BuildingBlock: CIFDUS_clean_linker_0, # of connection points: 2
#     Edge 20, Type (0, 0), BuildingBlock: CIFDUS_clean_linker_0, # of connection points: 2
#     Edge 21, Type (0, 0), BuildingBlock: CIFDUS_clean_linker_0, # of connection points: 2
#     Edge 22, Type (0, 0), BuildingBlock: CIFDUS_clean_linker_0, # of connection points: 2
#     Edge 23, Type (0, 0), BuildingBlock: CIFDUS_clean_linker_0, # of connection points: 2
#     Edge 24, Type (0, 0), BuildingBlock: CIFDUS_clean_linker_0, # of connection points: 2
#     Edge 25, Type (0, 0), BuildingBlock: CIFDUS_clean_linker_0, # of connection points: 2
#     Edge 26, Type (0, 0), BuildingBlock: CIFDUS_clean_linker_0, # of connection points: 2
#     Edge 27, Type (0, 0), BuildingBlock: CIFDUS_clean_linker_0, # of connection points: 2
#     Edge 28, Type (0, 0), BuildingBlock: CIFDUS_clean_linker_0, # of connection points: 2
#     Edge 29, Type (0, 0), BuildingBlock: CIFDUS_clean_linker_0, # of connection points: 2
#     Edge 30, Type (0, 0), BuildingBlock: CIFDUS_clean_linker_0, # of connection points: 2
#     Edge 31, Type (0, 0), BuildingBlock: CIFDUS_clean_linker_0, # of connection points: 2
# Relax obj value: 0.162
# Max RMSD: 0.108
# Mean RMSD: 0.099
data_MOF--net-snk--node1-UKALOJ_clean_sbu_0--edge1-CIFDUS_clean_linker_0
_symmetry_space_group_name_H-M    P1
_symmetry_Int_Tables_number       1
_symmetry_cell_setting            triclinic
loop_
_symmetry_equiv_pos_as_xyz
'x, y, z'
_cell_length_a     42.188402
_cell_length_b     42.189415
_cell_length_c     13.502041
_cell_angle_alpha  79.408516
_cell_angle_beta   79.639749
_cell_angle_gamma 93.920533
loop_
_atom_site_label
_atom_site_type_symbol
_atom_site_fract_x
_atom_site_fract_y
_atom_site_fract_z
_atom_type_partial_charge
Zn0 Zn 0.06532 1.02737 0.48483 0.0
O1 O 0.06771 1.02555 0.64086 0.0
C2 C 0.99647 0.99519 0.54779 0.0
Zn3 Zn 1.03191 0.0659 0.4956 0.0
C4 C 0.0521 0.04336 0.69421 0.0
O5 O 1.03457 0.06313 0.65267 0.0
C6 C 0.04515 0.04967 0.28613 0.0
O7 O 0.07183 0.1058 0.45166 0.0
O8 O 0.10423 0.06772 0.44164 0.0
N9 N 0.99739 0.09786 0.50779 0.0
C10 C 0.98966 0.12259 0.44037 0.0
C11 C 0.95164 0.11284 0.57239 0.0
N12 N 0.97388 0.09221 0.59021 0.0
N13 N 0.96091 0.13228 0.47891 0.0
C14 C 0.10759 0.96985 0.5333 0.0
C15 C 0.14744 0.98349 0.40691 0.0
N16 N 0.10053 0.99624 0.47106 0.0
N17 N 0.12524 1.0044 0.39236 0.0
N18 N 0.13709 0.96154 0.49493 0.0
H19 H 0.10115 0.95117 0.6955 0.0
H20 H 0.07703 0.92903 0.62896 0.0
H21 H 0.06559 0.96704 0.65483 0.0
C22 C 0.08661 0.95366 0.63418 0.0
C23 C 1.00888 0.13552 0.33422 0.0
H24 H 1.03324 0.12692 0.32425 0.0
H25 H 1.01191 0.16236 0.31877 0.0
H26 H 0.99549 0.12798 0.27744 0.0
O27 O 1.0295 0.0675 0.33935 0.0
O28 O 0.06278 1.03008 0.32775 0.0
C29 C 0.1007 0.09786 0.43415 0.0
O30 O 1.02542 0.98747 0.5289 0.0
O31 O 0.99271 1.02534 0.54018 0.0
Zn32 Zn 0.28507 0.78222 0.72677 0.0
O33 O 0.25724 0.82146 0.70484 0.0
C34 C 0.30619 0.79152 0.49466 0.0
Zn35 Zn 0.32936 0.81549 0.66147 0.0
C36 C 0.26995 0.85011 0.66522 0.0
O37 O 0.30068 0.85553 0.64107 0.0
C38 C 0.34313 0.74681 0.72465 0.0
O39 O 0.33 0.82081 0.81693 0.0
O40 O 0.28554 0.7881 0.87787 0.0
N41 N 0.37022 0.84668 0.61071 0.0
C42 C 0.39566 0.85009 0.65654 0.0
C43 C 0.39551 0.89434 0.55199 0.0
N44 N 0.3707 0.87385 0.54326 0.0
N45 N 0.41153 0.8801 0.62318 0.0
C46 C 0.21872 0.74653 0.73924 0.0
C47 C 0.21456 0.70948 0.87248 0.0
N48 N 0.24435 0.75194 0.78218 0.0
N49 N 0.24137 0.72947 0.86662 0.0
N50 N 0.19983 0.71956 0.79319 0.0
H51 H 0.23073 0.78793 0.61068 0.0
H52 H 0.189 0.77371 0.64864 0.0
H53 H 0.21601 0.7505 0.57996 0.0
C54 C 0.21368 0.76582 0.6389 0.0
C55 C 0.40196 0.82674 0.74816 0.0
H56 H 0.39935 0.83812 0.81648 0.0
H57 H 0.42735 0.8208 0.73175 0.0
H58 H 0.38566 0.80418 0.7692 0.0
O59 O 0.35689 0.77486 0.68052 0.0
O60 O 0.3125 0.74271 0.75101 0.0
C61 C 0.30875 0.80598 0.89353 0.0
O62 O 0.28551 0.77576 0.5715 0.0
O63 O 0.32852 0.81066 0.50993 0.0
Zn64 Zn 0.54018 1.02226 0.07048 0.0
O65 O 0.5082 0.05879 0.08106 0.0
C66 C 0.52779 1.00029 0.30442 0.0
Zn67 Zn 0.50189 0.98227 0.13578 0.0
C68 C 0.47916 0.04948 0.12691 0.0
O69 O 0.47068 1.0193 0.15837 0.0
C70 C 0.56383 0.95565 0.07833 0.0
O71 O 0.49678 0.98522 0.97823 0.0
O72 O 0.53647 1.02384 0.91626 0.0
N73 N 0.4636 0.94788 0.18104 0.0
C74 C 0.43741 0.94576 0.13784 0.0
C75 C 0.44328 0.89819 0.21151 0.0
N76 N 0.46662 0.91843 0.23006 0.0
N77 N 0.42491 0.91464 0.15188 0.0
C78 C 0.58736 0.07871 0.07112 0.0
C79 C 0.63125 0.06516 -0.00741 0.0
N80 N 0.57942 0.05468 0.02476 0.0
N81 N 0.60659 0.04662 0.97422 0.0
N82 N 0.61975 0.08505 0.05475 0.0
H83 H 0.54704 0.10663 0.07253 0.0
H84 H 0.57532 0.11925 0.14468 0.0
H85 H 0.5485 0.08216 0.19527 0.0
C86 C 0.56334 0.0977 0.12481 0.0
C87 C 0.42681 0.97304 0.0662 0.0
H88 H 0.44094 0.99652 0.05745 0.0
H89 H 0.40094 0.97549 0.09522 0.0
H90 H 0.42847 0.96734 0.98871 0.0
O91 O 0.5342 0.94536 0.11437 0.0
O92 O 0.57201 0.98595 0.05871 0.0
C93 C 0.51482 1.00392 0.90109 0.0
O94 O 0.54441 1.02041 0.22769 0.0
O95 O 0.50739 0.97908 0.28911 0.0
Zn96 Zn 0.31821 0.27159 0.25376 0.0
O97 O 0.31989 0.26941 0.09785 0.0
C98 C 0.36054 0.33655 0.18871 0.0
Zn99 Zn 0.28768 0.3126 0.23378 0.0
C100 C 0.30568 0.28846 0.04021 0.0
O101 O 0.28982 0.30964 0.07711 0.0
C102 C 0.30043 0.2957 0.4473 0.0
O103 O 0.24324 0.27846 0.27719 0.0
O104 O 0.27311 0.23813 0.29514 0.0
N105 N 0.26185 0.35227 0.21568 0.0
C106 C 0.2373 0.36244 0.27714 0.0
C107 C 0.25472 0.40111 0.149 0.0
N108 N 0.27236 0.37628 0.13584 0.0
N109 N 0.23253 0.39334 0.23735 0.0
C110 C 0.37059 0.22295 0.21722 0.0
C111 C 0.35158 0.18353 0.34172 0.0
N112 N 0.34412 0.2321 0.27305 0.0
N113 N 0.33257 0.2076 0.35057 0.0
N114 N 0.3757 0.1924 0.25867 0.0
H115 H 0.39618 0.22819 0.06119 0.0
H116 H 0.41331 0.25346 0.13601 0.0
H117 H 0.3776 0.26384 0.08935 0.0
C118 C 0.39028 0.24327 0.11992 0.0
C119 C 0.21908 0.34241 0.37729 0.0
H120 H 0.2304 0.32018 0.40092 0.0
H121 H 0.19437 0.33436 0.36834 0.0
H122 H 0.21708 0.35695 0.43838 0.0
O123 O 0.28675 0.31511 0.38917 0.0
O124 O 0.31571 0.27412 0.41088 0.0
C125 C 0.245 0.24788 0.29823 0.0
O126 O 0.36273 0.30606 0.2115 0.0
O127 O 0.33232 0.34584 0.1908 0.0
Zn128 Zn 0.78941 0.27952 0.23417 0.0
O129 O 0.75075 0.30898 0.22286 0.0
C130 C 0.80915 0.29359 0.00078 0.0
Zn131 Zn 0.82488 0.32193 0.17012 0.0
C132 C 0.757 0.33911 0.18443 0.0
O133 O 0.78641 0.35129 0.15663 0.0
C134 C 0.85691 0.26162 0.2213 0.0
O135 O 0.82155 0.32795 0.3269 0.0
O136 O 0.78763 0.28438 0.38766 0.0
N137 N 0.85762 0.36131 0.12019 0.0
C138 C 0.88343 0.36909 0.15959 0.0
C139 C 0.87933 0.40919 0.0425 0.0
N140 N 0.85526 0.38596 0.04634 0.0
N141 N 0.89769 0.39897 0.11171 0.0
C142 C 0.73854 0.22488 0.23966 0.0
C143 C 0.74843 0.18843 0.35906 0.0
N144 N 0.75939 0.23891 0.28646 0.0
N145 N 0.76519 0.21648 0.36181 0.0
N146 N 0.73182 0.19327 0.28251 0.0
H147 H 0.72702 0.26805 0.14391 0.0
H148 H 0.69957 0.23202 0.15784 0.0
H149 H 0.73883 0.23612 0.07796 0.0
C150 C 0.72529 0.24151 0.15002 0.0
C151 C 0.89245 0.34928 0.25367 0.0
H152 H 0.89137 0.36366 0.315 0.0
H153 H 0.91742 0.34258 0.23419 0.0
H154 H 0.877 0.32652 0.28617 0.0
O155 O 0.86362 0.29157 0.18206 0.0
O156 O 0.82744 0.25017 0.24721 0.0
C157 C 0.80486 0.30801 0.40363 0.0
O158 O 0.79165 0.27411 0.07737 0.0
O159 O 0.82703 0.31676 0.01688 0.0
Zn160 Zn 0.81961 0.77337 0.74626 0.0
O161 O 0.81621 0.77667 0.58996 0.0
C162 C 0.85571 0.84098 0.69714 0.0
Zn163 Zn 0.78379 0.80964 0.76101 0.0
C164 C 0.79805 0.79582 0.54906 0.0
O165 O 0.78164 0.81298 0.60326 0.0
C166 C 0.80535 0.78719 0.95825 0.0
O167 O 0.74262 0.77007 0.80254 0.0
O168 O 0.77914 0.73603 0.78906 0.0
N169 N 0.75191 0.84455 0.77198 0.0
C170 C 0.72673 0.84802 0.84565 0.0
C171 C 0.7333 0.89034 0.72752 0.0
N172 N 0.75569 0.87082 0.6985 0.0
N173 N 0.71463 0.87657 0.81934 0.0
C174 C 0.87496 0.73142 0.67154 0.0
C175 C 0.86213 0.68886 0.78903 0.0
N176 N 0.84948 0.73714 0.73988 0.0
N177 N 0.8418 0.7107 0.81291 0.0
N178 N 0.88321 0.70111 0.70056 0.0
H179 H 0.8951 0.74193 0.50959 0.0
H180 H 0.91414 0.76574 0.58443 0.0
H181 H 0.87547 0.77473 0.55665 0.0
C182 C 0.89052 0.7548 0.57463 0.0
C183 C 0.71592 0.82496 0.94673 0.0
H184 H 0.72601 0.80148 0.94578 0.0
H185 H 0.68913 0.82056 0.96593 0.0
H186 H 0.72394 0.83596 0.00787 0.0
O187 O 0.78682 0.80594 0.91777 0.0
O188 O 0.82212 0.77045 0.90358 0.0
C189 C 0.74936 0.74078 0.80752 0.0
O190 O 0.86006 0.81107 0.70299 0.0
O191 O 0.82647 0.84814 0.71712 0.0
Zn192 Zn 0.5666 0.52871 0.98304 0.0
O193 O 0.56846 0.52686 0.13961 0.0
C194 C 0.49886 0.49192 0.04481 0.0
Zn195 Zn 0.52914 0.56309 -0.00146 0.0
C196 C 0.55072 0.54264 0.19524 0.0
O197 O 0.53105 0.56028 0.15605 0.0
C198 C 0.54485 0.54918 0.78643 0.0
O199 O 0.56566 0.60442 0.95912 0.0
O200 O 0.60361 0.572 0.94103 0.0
N201 N 0.49288 0.59295 0.00802 0.0
C202 C 0.48868 0.62054 0.94522 0.0
C203 C 0.44481 0.60614 0.05577 0.0
N204 N 0.46565 0.58419 0.07693 0.0
N205 N 0.4587 0.62927 0.97365 0.0
C206 C 0.61388 0.47562 0.02914 0.0
C207 C 0.6498 0.48822 0.89166 0.0
N208 N 0.60358 0.49975 0.96603 0.0
N209 N 0.62582 0.50719 0.88036 0.0
N210 N 0.64297 0.46811 0.98427 0.0
H211 H 0.61018 0.47081 0.19106 0.0
H212 H 0.59659 0.4347 0.15257 0.0
H213 H 0.5715 0.4675 0.15081 0.0
C214 C 0.59684 0.46143 0.13702 0.0
C215 C 0.51295 0.63781 0.85219 0.0
H216 H 0.53219 0.62278 0.82856 0.0
H217 H 0.52467 0.65985 0.87008 0.0
H218 H 0.50067 0.64552 0.78695 0.0
O219 O 0.52728 0.56494 0.84218 0.0
O220 O 0.56437 0.53146 0.82564 0.0
C221 C 0.59571 0.60084 0.9385 0.0
O222 O 0.52854 0.48618 0.02594 0.0
O223 O 0.49304 0.52142 0.03911 0.0
Zn224 Zn 1.02964 0.51285 0.53423 0.0
O225 O 1.02546 0.51293 0.37722 0.0
C226 C 0.09868 0.49685 0.47747 0.0
Zn227 Zn 0.06493 0.55526 0.4671 0.0
C228 C 0.04128 0.53333 0.30005 0.0
O229 O 0.06047 0.55561 0.31487 0.0
C230 C 0.05307 0.53493 0.70119 0.0
O231 O 1.02434 0.58281 0.48592 0.0
O232 O 0.98944 0.54004 0.55045 0.0
N233 N 0.09424 0.5968 0.41733 0.0
C234 C 0.09503 0.62358 0.45769 0.0
C235 C 0.1352 0.63004 0.33295 0.0
N236 N 0.1188 0.60104 0.33822 0.0
N237 N 0.12037 0.64489 0.40603 0.0
C238 C 0.99876 0.44645 0.5296 0.0
C239 C 0.95443 0.44201 0.63707 0.0
N240 N 1.00009 0.47114 0.57952 0.0
N241 N 0.97293 0.46788 0.64863 0.0
N242 N 0.96999 0.4282 0.56218 0.0
H243 H 1.01132 0.44649 0.36744 0.0
H244 H 1.03011 0.41792 0.44711 0.0
H245 H 0.04486 0.45986 0.41753 0.0
C246 C 1.02282 0.4429 0.4358 0.0
C247 C 0.07439 0.6274 0.55732 0.0
H248 H 0.06526 0.6516 0.54718 0.0
H249 H 0.08948 0.62632 0.61699 0.0
H250 H 0.05359 0.60881 0.58617 0.0
O251 O 0.07009 0.55452 0.6238 0.0
O252 O 1.03288 0.51342 0.68658 0.0
C253 C 0.99538 0.57064 0.52385 0.0
O254 O 0.06989 0.48588 0.52164 0.0
O255 O 0.10527 0.52725 0.44477 0.0
H256 H 0.10478 0.16561 0.40496 0.0
H257 H 0.16444 0.08654 0.40314 0.0
H258 H 0.21311 0.12471 0.36335 0.0
H259 H 0.2399 0.1808 0.32858 0.0
H260 H 0.18105 0.26044 0.32732 0.0
H261 H 0.13192 0.22231 0.36819 0.0
C262 C 0.12839 0.15666 0.39578 0.0
C263 C 0.13034 0.12272 0.40756 0.0
C264 C 0.15693 0.1791 0.37215 0.0
C265 C 0.16158 0.11215 0.39487 0.0
C266 C 0.18972 0.13413 0.37201 0.0
C267 C 0.21638 0.18996 0.33735 0.0
C268 C 0.21471 0.22389 0.32463 0.0
C269 C 0.18786 0.1677 0.36049 0.0
C270 C 0.1836 0.23475 0.33627 0.0
C271 C 0.15526 0.2128 0.35982 0.0
H272 H 0.19991 0.97119 0.5019 0.0
H273 H 0.11789 0.89839 0.58359 0.0
H274 H 0.15143 0.85816 0.6526 0.0
H275 H 0.20468 0.84302 0.68047 0.0
H276 H 0.28777 0.91502 0.58988 0.0
H277 H 0.25327 0.95626 0.53333 0.0
C278 C 0.18943 0.94652 0.53544 0.0
C279 C 0.15628 0.93796 0.53982 0.0
C280 C 0.2091 0.9234 0.57274 0.0
C281 C 0.14295 0.90592 0.58276 0.0
C282 C 0.16227 0.88281 0.62097 0.0
C283 C 0.21527 0.86781 0.64946 0.0
C284 C 0.24884 0.87589 0.63955 0.0
C285 C 0.19542 0.89123 0.61558 0.0
C286 C 0.26206 0.90811 0.59846 0.0
C287 C 0.24235 0.93169 0.56586 0.0
H288 H 0.37614 0.91013 0.75028 0.0
H289 H 0.47174 0.88237 0.66265 0.0
H290 H 0.48316 0.8863 0.83221 0.0
H291 H 0.46338 0.8923 0.00931 0.0
H292 H 0.36631 0.91617 0.10076 0.0
H293 H 0.35651 0.91658 0.9267 0.0
C294 C 0.39997 0.90655 0.76727 0.0
C295 C 0.42336 0.89652 0.69468 0.0
C296 C 0.40494 0.90573 0.86705 0.0
C297 C 0.45383 0.89078 0.71724 0.0
C298 C 0.45984 0.89198 0.81485 0.0
C299 C 0.43967 0.89622 -0.00818 0.0
C300 C 0.41515 0.90324 0.06761 0.0
C301 C 0.43498 0.89787 0.89144 0.0
C302 C 0.38496 0.90971 0.04387 0.0
C303 C 0.37983 0.91091 0.94409 0.0
H304 H 0.49106 0.11532 0.10511 0.0
H305 H 0.41396 0.03686 0.19561 0.0
H306 H 0.3751 0.07462 0.24 0.0
H307 H 0.36315 0.12944 0.25966 0.0
H308 H 0.44018 0.20756 0.17851 0.0
H309 H 0.47882 0.17064 0.12279 0.0
C310 C 0.46576 0.10649 0.13387 0.0
C311 C 0.45558 0.07319 0.14731 0.0
C312 C 0.44347 0.12834 0.16072 0.0
C313 C 0.4226 0.06227 0.18493 0.0
C314 C 0.4003 0.08386 0.2104 0.0
C315 C 0.3884 0.13837 0.22935 0.0
C316 C 0.3986 0.17135 0.22131 0.0
C317 C 0.41052 0.11684 0.19976 0.0
C318 C 0.43141 0.18261 0.18233 0.0
C319 C 0.45361 0.16136 0.15164 0.0
H320 H 0.99345 0.9279 0.5684 0.0
H321 H 0.93224 1.0049 0.59533 0.0
H322 H 0.8842 0.9655 0.64265 0.0
H323 H 0.85841 0.90848 0.67729 0.0
H324 H 0.91987 0.83168 0.64935 0.0
H325 H 0.96776 0.87108 0.60251 0.0
C326 C 0.96965 0.93619 0.5846 0.0
C327 C 0.96708 0.96986 0.57774 0.0
C328 C 0.94157 0.91309 0.61207 0.0
C329 C 0.93558 0.9795 0.59946 0.0
C330 C 0.9078 0.9568 0.62677 0.0
C331 C 0.88223 0.90026 0.66098 0.0
C332 C 0.88488 0.86659 0.66758 0.0
C333 C 0.91031 0.92341 0.63344 0.0
C334 C 0.91642 0.85704 0.6456 0.0
C335 C 0.94415 0.87975 0.61851 0.0
H336 H 0.97343 0.19496 0.37832 0.0
H337 H 0.90074 0.11282 0.46337 0.0
H338 H 0.86283 0.14501 0.3827 0.0
H339 H 0.84944 0.19691 0.29631 0.0
H340 H 0.92139 0.27995 0.21084 0.0
H341 H 0.96089 0.24684 0.28 0.0
C342 C 0.94958 0.18404 0.37679 0.0
C343 C 0.93989 0.15151 0.42578 0.0
C344 C 0.92785 0.20281 0.33008 0.0
C345 C 0.90855 0.13786 0.42632 0.0
C346 C 0.88697 0.1562 0.37997 0.0
C347 C 0.87388 0.20777 0.29146 0.0
C348 C 0.88236 0.24093 0.24866 0.0
C349 C 0.89621 0.18877 0.33274 0.0
C350 C 0.9142 0.25447 0.24304 0.0
C351 C 0.93675 0.23558 0.28324 0.0
H352 H 0.67969 0.15168 0.36378 0.0
H353 H 0.75619 0.18115 0.09812 0.0
H354 H 0.7281 0.14857 0.00151 0.0
H355 H 0.6785 0.117 0.98832 0.0
H356 H 0.60379 0.08443 0.25822 0.0
H357 H 0.63403 0.11295 0.35833 0.0
C358 C 0.69027 0.15011 0.2857 0.0
C359 C 0.71905 0.16898 0.23616 0.0
C360 C 0.67395 0.1316 0.23118 0.0
C361 C 0.73338 0.16703 0.1356 0.0
C362 C 0.7174 0.1486 0.08071 0.0
C363 C 0.66907 0.11625 0.06897 0.0
C364 C 0.63827 0.10058 0.1144 0.0
C365 C 0.68706 0.13181 0.12666 0.0
C366 C 0.62659 0.09828 0.22011 0.0
C367 C 0.64408 0.11407 0.27788 0.0
H368 H 0.65183 0.85462 0.90369 0.0
H369 H 0.72461 0.93502 0.86423 0.0
H370 H 0.68469 0.96557 0.94975 0.0
H371 H 0.62879 0.97085 0.02506 0.0
H372 H 0.55467 0.89146 0.06351 0.0
H373 H 0.59545 0.85867 -0.00795 0.0
C374 C 0.65899 0.87845 0.91652 0.0
C375 C 0.69121 0.89248 0.87902 0.0
C376 C 0.63566 0.89603 0.96522 0.0
C377 C 0.69998 0.92383 0.89283 0.0
C378 C 0.67718 0.94124 0.94165 0.0
C379 C 0.62147 0.94622 0.01907 0.0
C380 C 0.5886 0.93374 0.04932 0.0
C381 C 0.64488 0.92781 0.97662 0.0
C382 C 0.57977 0.90169 0.04125 0.0
C383 C 0.60308 0.883 -0.00029 0.0
H384 H 0.66297 0.60372 0.90105 0.0
H385 H 0.58527 0.66499 0.91995 0.0
H386 H 0.62449 0.71299 0.88301 0.0
H387 H 0.68163 0.73862 0.84486 0.0
H388 H 0.75896 0.67677 0.82659 0.0
H389 H 0.7197 0.62911 0.86328 0.0
C390 C 0.65451 0.62753 0.89695 0.0
C391 C 0.62077 0.63019 0.91359 0.0
C392 C 0.67745 0.6555 0.87567 0.0
C393 C 0.6108 0.66166 0.90781 0.0
C394 C 0.63338 0.68939 0.88657 0.0
C395 C 0.68996 0.71476 0.84904 0.0
C396 C 0.72371 0.7119 0.83258 0.0
C397 C 0.66689 0.68678 0.87041 0.0
C398 C 0.73348 0.68034 0.83856 0.0
C399 C 0.71088 0.65275 0.85965 0.0
H400 H 0.76196 0.40438 0.11909 0.0
H401 H 0.69256 0.31926 0.20395 0.0
H402 H 0.65023 0.35202 0.15413 0.0
H403 H 0.63399 0.40448 0.07351 0.0
H404 H 0.70368 0.48903 -0.0099 0.0
H405 H 0.74497 0.45689 0.05088 0.0
C406 C 0.73752 0.39299 0.1277 0.0
C407 C 0.73055 0.35938 0.16473 0.0
C408 C 0.71338 0.41189 0.09827 0.0
C409 C 0.69865 0.3451 0.17571 0.0
C410 C 0.67442 0.3638 0.14682 0.0
C411 C 0.65795 0.4159 0.0715 0.0
C412 C 0.66579 0.4491 0.02879 0.0
C413 C 0.68161 0.39716 0.10648 0.0
C414 C 0.69726 0.46348 0.02292 0.0
C415 C 0.7208 0.44514 0.05767 0.0
H416 H 0.92585 0.45568 0.46798 0.0
H417 H 0.98251 0.37451 0.48854 0.0
H418 H 0.97615 0.36805 0.31616 0.0
H419 H 0.95466 0.38615 0.16074 0.0
H420 H 0.88565 0.45641 0.16357 0.0
H421 H 0.90069 0.47084 0.31763 0.0
C422 C 0.93554 0.43569 0.4364 0.0
C423 C 0.95451 0.41543 0.49016 0.0
C424 C 0.93189 0.43238 0.33808 0.0
C425 C 0.96741 0.38991 0.4484 0.0
C426 C 0.96474 0.38702 0.34895 0.0
C427 C 0.9434 0.40496 0.19491 0.0
C428 C 0.91793 0.41885 0.15543 0.0
C429 C 0.94765 0.40865 0.29247 0.0
C430 C 0.90481 0.44475 0.19463 0.0
C431 C 0.91247 0.45208 0.28472 0.0
H432 H 0.87372 0.6395 0.68204 0.0
H433 H 0.9458 0.722 0.60855 0.0
H434 H 0.98647 0.68939 0.53676 0.0
H435 H 1.00236 0.6362 0.50809 0.0
H436 H 0.93044 0.55302 0.59059 0.0
H437 H 0.88886 0.58707 0.64547 0.0
C438 C 0.8983 0.65035 0.6493 0.0
C439 C 0.90663 0.68321 0.64923 0.0
C440 C 0.92159 0.63124 0.61053 0.0
C441 C 0.93853 0.69706 0.60692 0.0
C442 C 0.96187 0.67827 0.56702 0.0
C443 C 0.97752 0.62556 0.5368 0.0
C444 C 0.9696 0.59201 0.54561 0.0
C445 C 0.95378 0.6452 0.56996 0.0
C446 C 0.93727 0.57869 0.58328 0.0
C447 C 0.91347 0.59814 0.61492 0.0
H448 H 0.36335 0.40318 0.15305 0.0
H449 H 0.42534 0.32605 0.16232 0.0
H450 H 0.47325 0.36605 0.1189 0.0
H451 H 0.49825 0.42396 0.07786 0.0
H452 H 0.4346 0.49993 0.07253 0.0
H453 H 0.38766 0.45984 0.11417 0.0
C454 C 0.38729 0.39493 0.14554 0.0
C455 C 0.39025 0.36122 0.16123 0.0
C456 C 0.41495 0.4182 0.12097 0.0
C457 C 0.42186 0.35157 0.15108 0.0
C458 C 0.44946 0.3746 0.12606 0.0
C459 C 0.47415 0.43179 0.08577 0.0
C460 C 0.47059 0.46549 0.0715 0.0
C461 C 0.44646 0.40815 0.11076 0.0
C462 C 0.43874 0.47458 0.08271 0.0
C463 C 0.41155 0.45149 0.10668 0.0
H464 H 0.39968 0.62235 0.92968 0.0
H465 H 0.48148 0.69245 0.90201 0.0
H466 H 0.45432 0.73456 0.81002 0.0
H467 H 0.40619 0.75182 0.74482 0.0
H468 H 0.32285 0.68224 0.78274 0.0
H469 H 0.35181 0.6394 0.86193 0.0
C470 C 0.41143 0.64688 0.90342 0.0
C471 C 0.44266 0.65426 0.92101 0.0
C472 C 0.39546 0.67095 0.85196 0.0
C473 C 0.45779 0.68608 0.88692 0.0
C474 C 0.44218 0.71016 0.83495 0.0
C475 C 0.39452 0.72722 0.769 0.0
C476 C 0.3624 0.72026 0.75781 0.0
C477 C 0.41095 0.70289 0.81736 0.0
C478 C 0.34756 0.68825 0.79042 0.0
C479 C 0.36403 0.66376 0.83623 0.0
H480 H 0.14855 0.73249 0.70572 0.0
H481 H 0.21208 0.65923 0.77405 0.0
H482 H 0.19594 0.63143 0.64527 0.0
H483 H 0.16743 0.63064 0.50379 0.0
H484 H 0.10548 0.70437 0.42816 0.0
H485 H 0.11991 0.73178 0.56213 0.0
C486 C 0.15866 0.7104 0.69216 0.0
C487 C 0.18202 0.69836 0.74671 0.0
C488 C 0.15121 0.69603 0.61269 0.0
C489 C 0.19399 0.6689 0.73272 0.0
C490 C 0.18546 0.6535 0.65739 0.0
C491 C 0.15828 0.65345 0.51441 0.0
C492 C 0.13641 0.66632 0.45541 0.0
C493 C 0.16524 0.66765 0.59426 0.0
C494 C 0.12325 0.69498 0.47139 0.0
C495 C 0.13078 0.70996 0.54939 0.0
H496 H 0.17161 0.38065 0.35516 0.0
H497 H 0.24733 0.45785 0.21232 0.0
H498 H 0.21363 0.49712 0.27789 0.0
H499 H 0.16172 0.50973 0.37228 0.0
H500 H 0.08829 0.43102 0.5253 0.0
H501 H 0.12277 0.39211 0.46383 0.0
C502 C 0.18149 0.40568 0.34151 0.0
C503 C 0.21247 0.41588 0.28059 0.0
C504 C 0.16234 0.42806 0.38184 0.0
C505 C 0.2236 0.44916 0.25903 0.0
C506 C 0.20441 0.47168 0.29699 0.0
C507 C 0.1535 0.48404 0.39361 0.0
C508 C 0.12229 0.47353 0.45283 0.0
C509 C 0.17361 0.46145 0.3582 0.0
C510 C 0.1121 0.44003 0.47958 0.0
C511 C 0.13177 0.41762 0.44401 0.0
H512 H 1.01991 0.07539 0.83239 0.0
H513 H 0.08944 1.00556 0.80204 0.0
H514 H 0.09343 1.0013 0.98193 0.0
H515 H 0.07733 1.01745 0.14812 0.0
H516 H 1.00726 0.0867 0.17853 0.0
H517 H 1.00345 0.09111 -0.00127 0.0
C518 C 1.03597 0.05925 0.86501 0.0
C519 C 0.05437 0.0409 0.80354 0.0
C520 C 0.03811 0.05681 0.96873 0.0
C521 C 0.07498 1.02002 0.84739 0.0
C522 C 0.0773 1.01755 0.9504 0.0
C523 C 0.06121 1.0335 0.1155 0.0
C524 C 0.04277 0.05186 0.17692 0.0
C525 C 0.05899 0.03583 0.01182 0.0
C526 C 1.02195 0.07247 0.13316 0.0
C527 C 1.01968 0.07497 0.03018 0.0
H528 H 0.34408 0.82492 0.31594 0.0
H529 H 0.26138 0.75323 0.4335 0.0
H530 H 0.25428 0.75224 0.25853 0.0
H531 H 0.27121 0.77207 0.07215 0.0
H532 H 0.35437 0.84315 0.95473 0.0
H533 H 0.36172 0.84369 0.12988 0.0
C534 C 0.32458 0.80891 0.3035 0.0
C535 C 0.30321 0.78927 0.38818 0.0
C536 C 0.32059 0.80848 0.20258 0.0
C537 C 0.27811 0.76872 0.37012 0.0
C538 C 0.274 0.76817 0.26993 0.0
C539 C 0.2908 0.78794 0.08468 0.0
C540 C 0.31209 0.80773 6e-05 0.0
C541 C 0.29495 0.78812 0.18562 0.0
C542 C 0.33752 0.82784 0.01813 0.0
C543 C 0.34174 0.82819 0.1183 0.0
H544 H 0.55586 1.03229 0.72181 0.0
H545 H 0.46781 0.96799 0.84175 0.0
H546 H 0.46416 0.96116 0.66867 0.0
H547 H 0.48669 0.97197 0.48349 0.0
H548 H 0.57516 1.03553 0.36339 0.0
H549 H 0.57833 0.04339 0.53624 0.0
C550 C 0.53579 1.01685 0.71019 0.0
C551 C 0.51198 1.00092 0.79506 0.0
C552 C 0.53425 1.01232 0.61043 0.0
C553 C 0.48634 0.98077 0.77825 0.0
C554 C 0.48438 0.97656 0.67918 0.0
C555 C 0.5068 0.98736 0.49514 0.0
C556 C 0.53068 1.00316 0.41038 0.0
C557 C 0.50836 0.99193 0.59482 0.0
C558 C 0.5564 1.02322 0.42705 0.0
C559 C 0.55822 1.02772 0.52598 0.0
H560 H 0.2782 0.32468 0.89599 0.0
H561 H 0.33801 0.24616 0.93952 0.0
H562 H 0.34162 0.24141 0.76067 0.0
H563 H 0.32788 0.25945 0.59153 0.0
H564 H 0.26819 0.33807 0.5479 0.0
H565 H 0.26452 0.34277 0.72679 0.0
C566 C 0.29202 0.30653 0.86643 0.0
C567 C 0.30775 0.28582 0.93134 0.0
C568 C 0.29406 0.30389 0.76327 0.0
C569 C 0.3256 0.26243 0.8915 0.0
C570 C 0.32771 0.25967 0.78908 0.0
C571 C 0.31407 0.27761 0.62109 0.0
C572 C 0.29838 0.29835 0.55614 0.0
C573 C 0.31204 0.28026 0.72424 0.0
C574 C 0.28057 0.32177 0.59594 0.0
C575 C 0.27843 0.3245 0.6984 0.0
H576 H 0.8318 0.33834 0.82455 0.0
H577 H 0.78192 0.24212 0.93672 0.0
H578 H 0.77477 0.23884 0.76337 0.0
H579 H 0.78245 0.2633 0.57985 0.0
H580 H 0.83395 0.35878 0.4662 0.0
H581 H 0.84063 0.36231 0.64005 0.0
C582 C 0.81955 0.31654 0.81108 0.0
C583 C 0.80707 0.29064 0.89413 0.0
C584 C 0.81563 0.31476 0.71086 0.0
C585 C 0.79126 0.26263 0.87491 0.0
C586 C 0.78725 0.26069 0.77555 0.0
C587 C 0.79491 0.28502 0.5931 0.0
C588 C 0.80739 0.31087 0.50998 0.0
C589 C 0.7991 0.2867 0.69308 0.0
C590 C 0.82389 0.3386 0.52865 0.0
C591 C 0.82783 0.3406 0.62809 0.0
H592 H 0.83004 0.76296 0.41291 0.0
H593 H 0.76118 0.83361 0.43885 0.0
H594 H 0.75732 0.83705 0.25903 0.0
H595 H 0.77342 0.82008 0.09439 0.0
H596 H 0.84223 0.7494 0.06841 0.0
H597 H 0.84609 0.74595 0.24823 0.0
C598 C 0.81417 0.77912 0.37936 0.0
C599 C 0.79592 0.79798 0.43959 0.0
C600 C 0.81202 0.78099 0.2758 0.0
C601 C 0.77552 0.8188 0.39452 0.0
C602 C 0.77327 0.8208 0.29158 0.0
C603 C 0.78925 0.80388 0.12795 0.0
C604 C 0.80749 0.78503 0.06771 0.0
C605 C 0.79139 0.802 0.23151 0.0
C606 C 0.8279 0.7642 0.11275 0.0
C607 C 0.83014 0.7622 0.2157 0.0
H608 H 0.57884 0.51925 0.64557 0.0
H609 H 0.5049 0.5844 0.68218 0.0
H610 H 0.50004 0.58802 0.50326 0.0
H611 H 0.51664 0.57266 0.33609 0.0
H612 H 0.59098 0.50799 0.29953 0.0
H613 H 0.59568 0.50422 0.47835 0.0
C614 C 0.56166 0.53425 0.61448 0.0
C615 C 0.54226 0.55146 0.67744 0.0
C616 C 0.55897 0.5363 0.51135 0.0
C617 C 0.52015 0.57083 0.63564 0.0
C618 C 0.51732 0.57294 0.5332 0.0
C619 C 0.53385 0.55772 0.36719 0.0
C620 C 0.55331 0.54053 0.30425 0.0
C621 C 0.53658 0.55576 0.47033 0.0
C622 C 0.57555 0.52136 0.34604 0.0
C623 C 0.57833 0.51922 0.44846 0.0
H624 H 1.01607 0.50093 0.88043 0.0
H625 H 0.0954 0.57636 0.76037 0.0
H626 H 0.09813 0.58295 0.93467 0.0
H627 H 0.07808 0.56737 0.12091 0.0
H628 H 0.9985 0.49222 0.24104 0.0
H629 H 0.99577 0.48554 0.06684 0.0
C630 C 1.03408 0.51872 0.89225 0.0
C631 C 0.05557 0.53805 0.8072 0.0
C632 C 1.03541 0.52253 -0.0073 0.0
C633 C 0.0786 0.56112 0.82422 0.0
C634 C 0.08015 0.56495 0.92395 0.0
C635 C 0.06001 0.54963 0.10909 0.0
C636 C 0.03859 0.53028 0.19415 0.0
C637 C 0.05862 0.54585 0.00869 0.0
C638 C 1.01543 0.50732 0.17721 0.0
C639 C 1.01384 0.50348 0.07749 0.0
loop_
_geom_bond_atom_site_label_1
_geom_bond_atom_site_label_2
_geom_bond_distance
_geom_bond_site_symmetry_2
_ccdc_geom_bond_type
Zn0 O1 2.055 . S
Zn0 O8 2.046 1_565 S
Zn0 N16 2.036 . S
Zn0 O28 2.053 . S
Zn0 O30 2.066 . S
O1 Zn0 2.055 . S
O1 C4 1.259 1_565 S
C2 O30 1.256 1_655 S
C2 O31 1.244 . S
Zn3 O5 2.046 . S
Zn3 O7 2.055 1_655 S
Zn3 N9 2.036 . S
Zn3 O27 2.066 . S
Zn3 O31 2.053 1_545 S
C4 O1 1.259 1_545 S
C4 O5 1.254 1_455 S
O5 Zn3 2.046 . S
O5 C4 1.254 1_655 S
C6 O27 1.256 1_455 S
C6 O28 1.244 1_545 S
O7 Zn3 2.055 1_455 S
O7 C29 1.259 . S
O8 Zn0 2.046 1_545 S
O8 C29 1.254 . S
N9 Zn3 2.036 . S
N9 C10 1.298 . S
N9 N12 1.398 . S
C10 N9 1.298 . S
C10 N13 1.367 . S
C10 C23 1.481 . S
C11 N12 1.299 . S
C11 N13 1.379 . S
N12 N9 1.398 . S
N12 C11 1.299 . S
N13 C10 1.367 . S
N13 C11 1.379 . S
C14 N16 1.298 . S
C14 N18 1.367 . S
C14 C22 1.481 . S
C15 N17 1.299 . S
C15 N18 1.379 . S
N16 Zn0 2.036 . S
N16 C14 1.298 . S
N16 N17 1.398 . S
N17 C15 1.299 . S
N17 N16 1.398 . S
N18 C14 1.367 . S
N18 C15 1.379 . S
H19 C22 0.980 . S
H20 C22 0.981 . S
H21 C22 0.981 . S
C22 C14 1.481 . S
C22 H19 0.980 . S
C22 H20 0.981 . S
C22 H21 0.981 . S
C23 C10 1.481 . S
C23 H24 0.980 . S
C23 H25 0.981 . S
C23 H26 0.981 . S
H24 C23 0.980 . S
H25 C23 0.981 . S
H26 C23 0.981 . S
O27 Zn3 2.066 . S
O27 C6 1.256 1_655 S
O28 Zn0 2.053 . S
O28 C6 1.244 1_565 S
C29 O7 1.259 . S
C29 O8 1.254 . S
O30 Zn0 2.066 . S
O30 C2 1.256 1_455 S
O31 C2 1.244 . S
O31 Zn3 2.053 1_565 S
Zn32 O33 2.055 . S
Zn32 O40 2.046 . S
Zn32 N48 2.036 . S
Zn32 O60 2.053 . S
Zn32 O62 2.066 . S
O33 Zn32 2.055 . S
O33 C36 1.259 . S
C34 O62 1.256 . S
C34 O63 1.244 . S
Zn35 O37 2.046 . S
Zn35 O39 2.055 . S
Zn35 N41 2.036 . S
Zn35 O59 2.066 . S
Zn35 O63 2.053 . S
C36 O33 1.259 . S
C36 O37 1.254 . S
O37 Zn35 2.046 . S
O37 C36 1.254 . S
C38 O59 1.256 . S
C38 O60 1.244 . S
O39 Zn35 2.055 . S
O39 C61 1.259 . S
O40 Zn32 2.046 . S
O40 C61 1.254 . S
N41 Zn35 2.036 . S
N41 C42 1.298 . S
N41 N44 1.398 . S
C42 N41 1.298 . S
C42 N45 1.367 . S
C42 C55 1.481 . S
C43 N44 1.299 . S
C43 N45 1.379 . S
N44 N41 1.398 . S
N44 C43 1.299 . S
N45 C42 1.367 . S
N45 C43 1.379 . S
C46 N48 1.298 . S
C46 N50 1.367 . S
C46 C54 1.481 . S
C47 N49 1.299 . S
C47 N50 1.379 . S
N48 Zn32 2.036 . S
N48 C46 1.298 . S
N48 N49 1.398 . S
N49 C47 1.299 . S
N49 N48 1.398 . S
N50 C46 1.367 . S
N50 C47 1.379 . S
H51 C54 0.980 . S
H52 C54 0.981 . S
H53 C54 0.981 . S
C54 C46 1.481 . S
C54 H51 0.980 . S
C54 H52 0.981 . S
C54 H53 0.981 . S
C55 C42 1.481 . S
C55 H56 0.980 . S
C55 H57 0.981 . S
C55 H58 0.981 . S
H56 C55 0.980 . S
H57 C55 0.981 . S
H58 C55 0.981 . S
O59 Zn35 2.066 . S
O59 C38 1.256 . S
O60 Zn32 2.053 . S
O60 C38 1.244 . S
C61 O39 1.259 . S
C61 O40 1.254 . S
O62 Zn32 2.066 . S
O62 C34 1.256 . S
O63 C34 1.244 . S
O63 Zn35 2.053 . S
Zn64 O65 2.055 1_556 S
Zn64 O72 2.046 . S
Zn64 N80 2.036 . S
Zn64 O92 2.053 1_545 S
Zn64 O94 2.066 1_556 S
O65 Zn64 2.055 1_554 S
O65 C68 1.259 . S
C66 O94 1.256 . S
C66 O95 1.244 1_545 S
Zn67 O69 2.046 1_566 S
Zn67 O71 2.055 . S
Zn67 N73 2.036 1_556 S
Zn67 O91 2.066 . S
Zn67 O95 2.053 1_556 S
C68 O65 1.259 . S
C68 O69 1.254 . S
O69 Zn67 2.046 1_544 S
O69 C68 1.254 . S
C70 O91 1.256 . S
C70 O92 1.244 . S
O71 Zn67 2.055 . S
O71 C93 1.259 1_565 S
O72 Zn64 2.046 . S
O72 C93 1.254 . S
N73 Zn67 2.036 1_554 S
N73 C74 1.298 1_554 S
N73 N76 1.398 . S
C74 N73 1.298 1_556 S
C74 N77 1.367 . S
C74 C87 1.481 . S
C75 N76 1.299 . S
C75 N77 1.379 1_554 S
N76 N73 1.398 . S
N76 C75 1.299 . S
N77 C74 1.367 . S
N77 C75 1.379 1_556 S
C78 N80 1.298 1_554 S
C78 N82 1.367 . S
C78 C86 1.481 . S
C79 N81 1.299 . S
C79 N82 1.379 1_556 S
N80 Zn64 2.036 . S
N80 C78 1.298 1_556 S
N80 N81 1.398 . S
N81 C79 1.299 . S
N81 N80 1.398 . S
N82 C78 1.367 . S
N82 C79 1.379 1_554 S
H83 C86 0.980 . S
H84 C86 0.981 . S
H85 C86 0.981 . S
C86 C78 1.481 . S
C86 H83 0.980 . S
C86 H84 0.981 . S
C86 H85 0.981 . S
C87 C74 1.481 . S
C87 H88 0.980 . S
C87 H89 0.981 . S
C87 H90 0.981 . S
H88 C87 0.980 . S
H89 C87 0.981 . S
H90 C87 0.981 . S
O91 Zn67 2.066 . S
O91 C70 1.256 . S
O92 Zn64 2.053 1_565 S
O92 C70 1.244 . S
C93 O71 1.259 1_545 S
C93 O72 1.254 . S
O94 Zn64 2.066 1_554 S
O94 C66 1.256 . S
O95 C66 1.244 1_565 S
O95 Zn67 2.053 1_554 S
Zn96 O97 2.055 . S
Zn96 O104 2.046 . S
Zn96 N112 2.036 . S
Zn96 O124 2.053 . S
Zn96 O126 2.066 . S
O97 Zn96 2.055 . S
O97 C100 1.259 . S
C98 O126 1.256 . S
C98 O127 1.244 . S
Zn99 O101 2.046 . S
Zn99 O103 2.055 . S
Zn99 N105 2.036 . S
Zn99 O123 2.066 . S
Zn99 O127 2.053 . S
C100 O97 1.259 . S
C100 O101 1.254 . S
O101 Zn99 2.046 . S
O101 C100 1.254 . S
C102 O123 1.256 . S
C102 O124 1.244 . S
O103 Zn99 2.055 . S
O103 C125 1.259 . S
O104 Zn96 2.046 . S
O104 C125 1.254 . S
N105 Zn99 2.036 . S
N105 C106 1.298 . S
N105 N108 1.398 . S
C106 N105 1.298 . S
C106 N109 1.367 . S
C106 C119 1.481 . S
C107 N108 1.299 . S
C107 N109 1.379 . S
N108 N105 1.398 . S
N108 C107 1.299 . S
N109 C106 1.367 . S
N109 C107 1.379 . S
C110 N112 1.298 . S
C110 N114 1.367 . S
C110 C118 1.481 . S
C111 N113 1.299 . S
C111 N114 1.379 . S
N112 Zn96 2.036 . S
N112 C110 1.298 . S
N112 N113 1.398 . S
N113 C111 1.299 . S
N113 N112 1.398 . S
N114 C110 1.367 . S
N114 C111 1.379 . S
H115 C118 0.980 . S
H116 C118 0.981 . S
H117 C118 0.981 . S
C118 C110 1.481 . S
C118 H115 0.980 . S
C118 H116 0.981 . S
C118 H117 0.981 . S
C119 C106 1.481 . S
C119 H120 0.980 . S
C119 H121 0.981 . S
C119 H122 0.981 . S
H120 C119 0.980 . S
H121 C119 0.981 . S
H122 C119 0.981 . S
O123 Zn99 2.066 . S
O123 C102 1.256 . S
O124 Zn96 2.053 . S
O124 C102 1.244 . S
C125 O103 1.259 . S
C125 O104 1.254 . S
O126 Zn96 2.066 . S
O126 C98 1.256 . S
O127 C98 1.244 . S
O127 Zn99 2.053 . S
Zn128 O129 2.055 . S
Zn128 O136 2.046 . S
Zn128 N144 2.036 . S
Zn128 O156 2.053 . S
Zn128 O158 2.066 . S
O129 Zn128 2.055 . S
O129 C132 1.259 . S
C130 O158 1.256 . S
C130 O159 1.244 . S
Zn131 O133 2.046 . S
Zn131 O135 2.055 . S
Zn131 N137 2.036 . S
Zn131 O155 2.066 . S
Zn131 O159 2.053 . S
C132 O129 1.259 . S
C132 O133 1.254 . S
O133 Zn131 2.046 . S
O133 C132 1.254 . S
C134 O155 1.256 . S
C134 O156 1.244 . S
O135 Zn131 2.055 . S
O135 C157 1.259 . S
O136 Zn128 2.046 . S
O136 C157 1.254 . S
N137 Zn131 2.036 . S
N137 C138 1.298 . S
N137 N140 1.398 . S
C138 N137 1.298 . S
C138 N141 1.367 . S
C138 C151 1.481 . S
C139 N140 1.299 . S
C139 N141 1.379 . S
N140 N137 1.398 . S
N140 C139 1.299 . S
N141 C138 1.367 . S
N141 C139 1.379 . S
C142 N144 1.298 . S
C142 N146 1.367 . S
C142 C150 1.481 . S
C143 N145 1.299 . S
C143 N146 1.379 . S
N144 Zn128 2.036 . S
N144 C142 1.298 . S
N144 N145 1.398 . S
N145 C143 1.299 . S
N145 N144 1.398 . S
N146 C142 1.367 . S
N146 C143 1.379 . S
H147 C150 0.980 . S
H148 C150 0.981 . S
H149 C150 0.981 . S
C150 C142 1.481 . S
C150 H147 0.980 . S
C150 H148 0.981 . S
C150 H149 0.981 . S
C151 C138 1.481 . S
C151 H152 0.980 . S
C151 H153 0.981 . S
C151 H154 0.981 . S
H152 C151 0.980 . S
H153 C151 0.981 . S
H154 C151 0.981 . S
O155 Zn131 2.066 . S
O155 C134 1.256 . S
O156 Zn128 2.053 . S
O156 C134 1.244 . S
C157 O135 1.259 . S
C157 O136 1.254 . S
O158 Zn128 2.066 . S
O158 C130 1.256 . S
O159 C130 1.244 . S
O159 Zn131 2.053 . S
Zn160 O161 2.055 . S
Zn160 O168 2.046 . S
Zn160 N176 2.036 . S
Zn160 O188 2.053 . S
Zn160 O190 2.066 . S
O161 Zn160 2.055 . S
O161 C164 1.259 . S
C162 O190 1.256 . S
C162 O191 1.244 . S
Zn163 O165 2.046 . S
Zn163 O167 2.055 . S
Zn163 N169 2.036 . S
Zn163 O187 2.066 . S
Zn163 O191 2.053 . S
C164 O161 1.259 . S
C164 O165 1.254 . S
O165 Zn163 2.046 . S
O165 C164 1.254 . S
C166 O187 1.256 . S
C166 O188 1.244 . S
O167 Zn163 2.055 . S
O167 C189 1.259 . S
O168 Zn160 2.046 . S
O168 C189 1.254 . S
N169 Zn163 2.036 . S
N169 C170 1.298 . S
N169 N172 1.398 . S
C170 N169 1.298 . S
C170 N173 1.367 . S
C170 C183 1.481 . S
C171 N172 1.299 . S
C171 N173 1.379 . S
N172 N169 1.398 . S
N172 C171 1.299 . S
N173 C170 1.367 . S
N173 C171 1.379 . S
C174 N176 1.298 . S
C174 N178 1.367 . S
C174 C182 1.481 . S
C175 N177 1.299 . S
C175 N178 1.379 . S
N176 Zn160 2.036 . S
N176 C174 1.298 . S
N176 N177 1.398 . S
N177 C175 1.299 . S
N177 N176 1.398 . S
N178 C174 1.367 . S
N178 C175 1.379 . S
H179 C182 0.980 . S
H180 C182 0.981 . S
H181 C182 0.981 . S
C182 C174 1.481 . S
C182 H179 0.980 . S
C182 H180 0.981 . S
C182 H181 0.981 . S
C183 C170 1.481 . S
C183 H184 0.980 . S
C183 H185 0.981 . S
C183 H186 0.981 . S
H184 C183 0.980 . S
H185 C183 0.981 . S
H186 C183 0.981 . S
O187 Zn163 2.066 . S
O187 C166 1.256 . S
O188 Zn160 2.053 . S
O188 C166 1.244 . S
C189 O167 1.259 . S
C189 O168 1.254 . S
O190 Zn160 2.066 . S
O190 C162 1.256 . S
O191 C162 1.244 . S
O191 Zn163 2.053 . S
Zn192 O193 2.055 . S
Zn192 O200 2.046 . S
Zn192 N208 2.036 . S
Zn192 O220 2.053 1_554 S
Zn192 O222 2.066 . S
O193 Zn192 2.055 . S
O193 C196 1.259 . S
C194 O222 1.256 . S
C194 O223 1.244 . S
Zn195 O197 2.046 . S
Zn195 O199 2.055 1_554 S
Zn195 N201 2.036 . S
Zn195 O219 2.066 1_554 S
Zn195 O223 2.053 . S
C196 O193 1.259 . S
C196 O197 1.254 . S
O197 Zn195 2.046 . S
O197 C196 1.254 . S
C198 O219 1.256 . S
C198 O220 1.244 . S
O199 Zn195 2.055 1_556 S
O199 C221 1.259 . S
O200 Zn192 2.046 . S
O200 C221 1.254 1_554 S
N201 Zn195 2.036 . S
N201 C202 1.298 1_554 S
N201 N204 1.398 . S
C202 N201 1.298 1_556 S
C202 N205 1.367 . S
C202 C215 1.481 . S
C203 N204 1.299 . S
C203 N205 1.379 1_554 S
N204 N201 1.398 . S
N204 C203 1.299 . S
N205 C202 1.367 . S
N205 C203 1.379 1_556 S
C206 N208 1.298 . S
C206 N210 1.367 . S
C206 C214 1.481 . S
C207 N209 1.299 . S
C207 N210 1.379 1_556 S
N208 Zn192 2.036 . S
N208 C206 1.298 . S
N208 N209 1.398 1_554 S
N209 C207 1.299 . S
N209 N208 1.398 1_556 S
N210 C206 1.367 . S
N210 C207 1.379 1_554 S
H211 C214 0.980 . S
H212 C214 0.981 . S
H213 C214 0.981 . S
C214 C206 1.481 . S
C214 H211 0.980 . S
C214 H212 0.981 . S
C214 H213 0.981 . S
C215 C202 1.481 . S
C215 H216 0.980 . S
C215 H217 0.981 . S
C215 H218 0.981 . S
H216 C215 0.980 . S
H217 C215 0.981 . S
H218 C215 0.981 . S
O219 Zn195 2.066 1_556 S
O219 C198 1.256 . S
O220 Zn192 2.053 1_556 S
O220 C198 1.244 . S
C221 O199 1.259 . S
C221 O200 1.254 1_556 S
O222 Zn192 2.066 . S
O222 C194 1.256 . S
O223 C194 1.244 . S
O223 Zn195 2.053 . S
Zn224 O225 2.061 . S
Zn224 O232 2.046 . S
Zn224 N240 2.036 . S
Zn224 O252 2.053 . S
Zn224 O254 2.066 1_655 S
O225 Zn224 2.061 . S
O225 C228 1.234 1_655 S
C226 O254 1.256 . S
C226 O255 1.244 . S
Zn227 O229 2.046 . S
Zn227 O231 2.065 . S
Zn227 N233 2.036 . S
Zn227 O251 2.066 . S
Zn227 O255 2.053 . S
C228 O225 1.234 1_455 S
C228 O229 1.254 . S
O229 Zn227 2.046 . S
O229 C228 1.254 . S
C230 O251 1.256 . S
C230 O252 1.244 1_455 S
O231 Zn227 2.065 . S
O231 C253 1.247 1_455 S
O232 Zn224 2.046 . S
O232 C253 1.254 . S
N233 Zn227 2.036 . S
N233 C234 1.298 . S
N233 N236 1.398 . S
C234 N233 1.298 . S
C234 N237 1.367 . S
C234 C247 1.481 . S
C235 N236 1.299 . S
C235 N237 1.379 . S
N236 N233 1.398 . S
N236 C235 1.299 . S
N237 C234 1.367 . S
N237 C235 1.379 . S
C238 N240 1.298 . S
C238 N242 1.367 . S
C238 C246 1.481 . S
C239 N241 1.299 . S
C239 N242 1.379 . S
N240 Zn224 2.036 . S
N240 C238 1.298 . S
N240 N241 1.398 . S
N241 C239 1.299 . S
N241 N240 1.398 . S
N242 C238 1.367 . S
N242 C239 1.379 . S
H243 C246 0.980 . S
H244 C246 0.981 . S
H245 C246 0.981 . S
C246 C238 1.481 . S
C246 H243 0.980 . S
C246 H244 0.981 . S
C246 H245 0.981 . S
C247 C234 1.481 . S
C247 H248 0.980 . S
C247 H249 0.981 . S
C247 H250 0.981 . S
H248 C247 0.980 . S
H249 C247 0.981 . S
H250 C247 0.981 . S
O251 Zn227 2.066 . S
O251 C230 1.256 . S
O252 Zn224 2.053 . S
O252 C230 1.244 1_655 S
C253 O231 1.247 1_655 S
C253 O232 1.254 . S
O254 Zn224 2.066 1_455 S
O254 C226 1.256 . S
O255 C226 1.244 . S
O255 Zn227 2.053 . S
H256 C262 0.930 . S
H257 C265 0.930 . S
H258 C266 0.930 . S
H259 C267 0.930 . S
H260 C270 0.930 . S
H261 C271 0.930 . S
C262 H256 0.930 . S
C262 C263 1.355 . S
C262 C264 1.415 . S
C263 C262 1.355 . S
C263 C265 1.419 . S
C264 C262 1.415 . S
C264 C269 1.425 . S
C264 C271 1.409 . S
C265 H257 0.930 . S
C265 C263 1.419 . S
C265 C266 1.362 . S
C266 H258 0.930 . S
C266 C265 1.362 . S
C266 C269 1.409 . S
C267 H259 0.930 . S
C267 C268 1.355 . S
C267 C269 1.415 . S
C268 C267 1.355 . S
C268 C270 1.419 . S
C269 C264 1.425 . S
C269 C266 1.409 . S
C269 C267 1.415 . S
C270 H260 0.930 . S
C270 C268 1.419 . S
C270 C271 1.362 . S
C271 H261 0.930 . S
C271 C264 1.409 . S
C271 C270 1.362 . S
H272 C278 0.930 . S
H273 C281 0.930 . S
H274 C282 0.930 . S
H275 C283 0.930 . S
H276 C286 0.930 . S
H277 C287 0.930 . S
C278 H272 0.930 . S
C278 C279 1.355 . S
C278 C280 1.415 . S
C279 C278 1.355 . S
C279 C281 1.419 . S
C280 C278 1.415 . S
C280 C285 1.425 . S
C280 C287 1.409 . S
C281 H273 0.930 . S
C281 C279 1.419 . S
C281 C282 1.362 . S
C282 H274 0.930 . S
C282 C281 1.362 . S
C282 C285 1.409 . S
C283 H275 0.930 . S
C283 C284 1.355 . S
C283 C285 1.415 . S
C284 C283 1.355 . S
C284 C286 1.419 . S
C285 C280 1.425 . S
C285 C282 1.409 . S
C285 C283 1.415 . S
C286 H276 0.930 . S
C286 C284 1.419 . S
C286 C287 1.362 . S
C287 H277 0.930 . S
C287 C280 1.409 . S
C287 C286 1.362 . S
H288 C294 0.930 . S
H289 C297 0.930 . S
H290 C298 0.930 . S
H291 C299 0.930 . S
H292 C302 0.930 . S
H293 C303 0.930 . S
C294 H288 0.930 . S
C294 C295 1.355 . S
C294 C296 1.415 . S
C295 C294 1.355 . S
C295 C297 1.419 . S
C296 C294 1.415 . S
C296 C301 1.425 . S
C296 C303 1.409 1_556 S
C297 H289 0.930 . S
C297 C295 1.419 . S
C297 C298 1.362 . S
C298 H290 0.930 . S
C298 C297 1.362 . S
C298 C301 1.409 . S
C299 H291 0.930 . S
C299 C300 1.355 . S
C299 C301 1.415 . S
C300 C299 1.355 . S
C300 C302 1.419 1_556 S
C301 C296 1.425 . S
C301 C298 1.409 . S
C301 C299 1.415 . S
C302 H292 0.930 . S
C302 C300 1.419 1_554 S
C302 C303 1.362 . S
C303 H293 0.930 . S
C303 C296 1.409 1_554 S
C303 C302 1.362 . S
H304 C310 0.930 . S
H305 C313 0.930 . S
H306 C314 0.930 . S
H307 C315 0.930 . S
H308 C318 0.930 . S
H309 C319 0.930 . S
C310 H304 0.930 . S
C310 C311 1.355 . S
C310 C312 1.415 . S
C311 C310 1.355 . S
C311 C313 1.419 . S
C312 C310 1.415 . S
C312 C317 1.425 . S
C312 C319 1.409 . S
C313 H305 0.930 . S
C313 C311 1.419 . S
C313 C314 1.362 . S
C314 H306 0.930 . S
C314 C313 1.362 . S
C314 C317 1.409 . S
C315 H307 0.930 . S
C315 C316 1.355 . S
C315 C317 1.415 . S
C316 C315 1.355 . S
C316 C318 1.419 . S
C317 C312 1.425 . S
C317 C314 1.409 . S
C317 C315 1.415 . S
C318 H308 0.930 . S
C318 C316 1.419 . S
C318 C319 1.362 . S
C319 H309 0.930 . S
C319 C312 1.409 . S
C319 C318 1.362 . S
H320 C326 0.930 . S
H321 C329 0.930 . S
H322 C330 0.930 . S
H323 C331 0.930 . S
H324 C334 0.930 . S
H325 C335 0.930 . S
C326 H320 0.930 . S
C326 C327 1.355 . S
C326 C328 1.415 . S
C327 C326 1.355 . S
C327 C329 1.419 . S
C328 C326 1.415 . S
C328 C333 1.425 . S
C328 C335 1.409 . S
C329 H321 0.930 . S
C329 C327 1.419 . S
C329 C330 1.362 . S
C330 H322 0.930 . S
C330 C329 1.362 . S
C330 C333 1.409 . S
C331 H323 0.930 . S
C331 C332 1.355 . S
C331 C333 1.415 . S
C332 C331 1.355 . S
C332 C334 1.419 . S
C333 C328 1.425 . S
C333 C330 1.409 . S
C333 C331 1.415 . S
C334 H324 0.930 . S
C334 C332 1.419 . S
C334 C335 1.362 . S
C335 H325 0.930 . S
C335 C328 1.409 . S
C335 C334 1.362 . S
H336 C342 0.930 . S
H337 C345 0.930 . S
H338 C346 0.930 . S
H339 C347 0.930 . S
H340 C350 0.930 . S
H341 C351 0.930 . S
C342 H336 0.930 . S
C342 C343 1.355 . S
C342 C344 1.415 . S
C343 C342 1.355 . S
C343 C345 1.419 . S
C344 C342 1.415 . S
C344 C349 1.425 . S
C344 C351 1.409 . S
C345 H337 0.930 . S
C345 C343 1.419 . S
C345 C346 1.362 . S
C346 H338 0.930 . S
C346 C345 1.362 . S
C346 C349 1.409 . S
C347 H339 0.930 . S
C347 C348 1.355 . S
C347 C349 1.415 . S
C348 C347 1.355 . S
C348 C350 1.419 . S
C349 C344 1.425 . S
C349 C346 1.409 . S
C349 C347 1.415 . S
C350 H340 0.930 . S
C350 C348 1.419 . S
C350 C351 1.362 . S
C351 H341 0.930 . S
C351 C344 1.409 . S
C351 C350 1.362 . S
H352 C358 0.930 . S
H353 C361 0.930 . S
H354 C362 0.930 . S
H355 C363 0.930 1_556 S
H356 C366 0.930 . S
H357 C367 0.930 . S
C358 H352 0.930 . S
C358 C359 1.355 . S
C358 C360 1.415 . S
C359 C358 1.355 . S
C359 C361 1.419 . S
C360 C358 1.415 . S
C360 C365 1.425 . S
C360 C367 1.409 . S
C361 H353 0.930 . S
C361 C359 1.419 . S
C361 C362 1.362 . S
C362 H354 0.930 . S
C362 C361 1.362 . S
C362 C365 1.409 . S
C363 H355 0.930 1_554 S
C363 C364 1.355 . S
C363 C365 1.415 . S
C364 C363 1.355 . S
C364 C366 1.419 . S
C365 C360 1.425 . S
C365 C362 1.409 . S
C365 C363 1.415 . S
C366 H356 0.930 . S
C366 C364 1.419 . S
C366 C367 1.362 . S
C367 H357 0.930 . S
C367 C360 1.409 . S
C367 C366 1.362 . S
H368 C374 0.930 . S
H369 C377 0.930 . S
H370 C378 0.930 . S
H371 C379 0.930 . S
H372 C382 0.930 . S
H373 C383 0.930 . S
C374 H368 0.930 . S
C374 C375 1.355 . S
C374 C376 1.415 . S
C375 C374 1.355 . S
C375 C377 1.419 . S
C376 C374 1.415 . S
C376 C381 1.425 . S
C376 C383 1.409 . S
C377 H369 0.930 . S
C377 C375 1.419 . S
C377 C378 1.362 . S
C378 H370 0.930 . S
C378 C377 1.362 . S
C378 C381 1.409 . S
C379 H371 0.930 . S
C379 C380 1.355 . S
C379 C381 1.415 . S
C380 C379 1.355 . S
C380 C382 1.419 . S
C381 C376 1.425 . S
C381 C378 1.409 . S
C381 C379 1.415 . S
C382 H372 0.930 . S
C382 C380 1.419 . S
C382 C383 1.362 . S
C383 H373 0.930 . S
C383 C376 1.409 . S
C383 C382 1.362 . S
H384 C390 0.930 . S
H385 C393 0.930 . S
H386 C394 0.930 . S
H387 C395 0.930 . S
H388 C398 0.930 . S
H389 C399 0.930 . S
C390 H384 0.930 . S
C390 C391 1.355 . S
C390 C392 1.415 . S
C391 C390 1.355 . S
C391 C393 1.419 . S
C392 C390 1.415 . S
C392 C397 1.425 . S
C392 C399 1.409 . S
C393 H385 0.930 . S
C393 C391 1.419 . S
C393 C394 1.362 . S
C394 H386 0.930 . S
C394 C393 1.362 . S
C394 C397 1.409 . S
C395 H387 0.930 . S
C395 C396 1.355 . S
C395 C397 1.415 . S
C396 C395 1.355 . S
C396 C398 1.419 . S
C397 C392 1.425 . S
C397 C394 1.409 . S
C397 C395 1.415 . S
C398 H388 0.930 . S
C398 C396 1.419 . S
C398 C399 1.362 . S
C399 H389 0.930 . S
C399 C392 1.409 . S
C399 C398 1.362 . S
H400 C406 0.930 . S
H401 C409 0.930 . S
H402 C410 0.930 . S
H403 C411 0.930 . S
H404 C414 0.930 1_556 S
H405 C415 0.930 1_556 S
C406 H400 0.930 . S
C406 C407 1.355 . S
C406 C408 1.415 . S
C407 C406 1.355 . S
C407 C409 1.419 . S
C408 C406 1.415 . S
C408 C413 1.425 . S
C408 C415 1.409 . S
C409 H401 0.930 . S
C409 C407 1.419 . S
C409 C410 1.362 . S
C410 H402 0.930 . S
C410 C409 1.362 . S
C410 C413 1.409 . S
C411 H403 0.930 . S
C411 C412 1.355 . S
C411 C413 1.415 . S
C412 C411 1.355 . S
C412 C414 1.419 . S
C413 C408 1.425 . S
C413 C410 1.409 . S
C413 C411 1.415 . S
C414 H404 0.930 1_554 S
C414 C412 1.419 . S
C414 C415 1.362 . S
C415 H405 0.930 1_554 S
C415 C408 1.409 . S
C415 C414 1.362 . S
H416 C422 0.930 . S
H417 C425 0.930 . S
H418 C426 0.930 . S
H419 C427 0.930 . S
H420 C430 0.930 . S
H421 C431 0.930 . S
C422 H416 0.930 . S
C422 C423 1.355 . S
C422 C424 1.415 . S
C423 C422 1.355 . S
C423 C425 1.419 . S
C424 C422 1.415 . S
C424 C429 1.425 . S
C424 C431 1.409 . S
C425 H417 0.930 . S
C425 C423 1.419 . S
C425 C426 1.362 . S
C426 H418 0.930 . S
C426 C425 1.362 . S
C426 C429 1.409 . S
C427 H419 0.930 . S
C427 C428 1.355 . S
C427 C429 1.415 . S
C428 C427 1.355 . S
C428 C430 1.419 . S
C429 C424 1.425 . S
C429 C426 1.409 . S
C429 C427 1.415 . S
C430 H420 0.930 . S
C430 C428 1.419 . S
C430 C431 1.362 . S
C431 H421 0.930 . S
C431 C424 1.409 . S
C431 C430 1.362 . S
H432 C438 0.930 . S
H433 C441 0.930 . S
H434 C442 0.930 . S
H435 C443 0.930 . S
H436 C446 0.930 . S
H437 C447 0.930 . S
C438 H432 0.930 . S
C438 C439 1.355 . S
C438 C440 1.415 . S
C439 C438 1.355 . S
C439 C441 1.419 . S
C440 C438 1.415 . S
C440 C445 1.425 . S
C440 C447 1.409 . S
C441 H433 0.930 . S
C441 C439 1.419 . S
C441 C442 1.362 . S
C442 H434 0.930 . S
C442 C441 1.362 . S
C442 C445 1.409 . S
C443 H435 0.930 . S
C443 C444 1.355 . S
C443 C445 1.415 . S
C444 C443 1.355 . S
C444 C446 1.419 . S
C445 C440 1.425 . S
C445 C442 1.409 . S
C445 C443 1.415 . S
C446 H436 0.930 . S
C446 C444 1.419 . S
C446 C447 1.362 . S
C447 H437 0.930 . S
C447 C440 1.409 . S
C447 C446 1.362 . S
H448 C454 0.930 . S
H449 C457 0.930 . S
H450 C458 0.930 . S
H451 C459 0.930 . S
H452 C462 0.930 . S
H453 C463 0.930 . S
C454 H448 0.930 . S
C454 C455 1.355 . S
C454 C456 1.415 . S
C455 C454 1.355 . S
C455 C457 1.419 . S
C456 C454 1.415 . S
C456 C461 1.425 . S
C456 C463 1.409 . S
C457 H449 0.930 . S
C457 C455 1.419 . S
C457 C458 1.362 . S
C458 H450 0.930 . S
C458 C457 1.362 . S
C458 C461 1.409 . S
C459 H451 0.930 . S
C459 C460 1.355 . S
C459 C461 1.415 . S
C460 C459 1.355 . S
C460 C462 1.419 . S
C461 C456 1.425 . S
C461 C458 1.409 . S
C461 C459 1.415 . S
C462 H452 0.930 . S
C462 C460 1.419 . S
C462 C463 1.362 . S
C463 H453 0.930 . S
C463 C456 1.409 . S
C463 C462 1.362 . S
H464 C470 0.930 . S
H465 C473 0.930 . S
H466 C474 0.930 . S
H467 C475 0.930 . S
H468 C478 0.930 . S
H469 C479 0.930 . S
C470 H464 0.930 . S
C470 C471 1.355 . S
C470 C472 1.415 . S
C471 C470 1.355 . S
C471 C473 1.419 . S
C472 C470 1.415 . S
C472 C477 1.425 . S
C472 C479 1.409 . S
C473 H465 0.930 . S
C473 C471 1.419 . S
C473 C474 1.362 . S
C474 H466 0.930 . S
C474 C473 1.362 . S
C474 C477 1.409 . S
C475 H467 0.930 . S
C475 C476 1.355 . S
C475 C477 1.415 . S
C476 C475 1.355 . S
C476 C478 1.419 . S
C477 C472 1.425 . S
C477 C474 1.409 . S
C477 C475 1.415 . S
C478 H468 0.930 . S
C478 C476 1.419 . S
C478 C479 1.362 . S
C479 H469 0.930 . S
C479 C472 1.409 . S
C479 C478 1.362 . S
H480 C486 0.930 . S
H481 C489 0.930 . S
H482 C490 0.930 . S
H483 C491 0.930 . S
H484 C494 0.930 . S
H485 C495 0.930 . S
C486 H480 0.930 . S
C486 C487 1.355 . S
C486 C488 1.415 . S
C487 C486 1.355 . S
C487 C489 1.419 . S
C488 C486 1.415 . S
C488 C493 1.425 . S
C488 C495 1.409 . S
C489 H481 0.930 . S
C489 C487 1.419 . S
C489 C490 1.362 . S
C490 H482 0.930 . S
C490 C489 1.362 . S
C490 C493 1.409 . S
C491 H483 0.930 . S
C491 C492 1.355 . S
C491 C493 1.415 . S
C492 C491 1.355 . S
C492 C494 1.419 . S
C493 C488 1.425 . S
C493 C490 1.409 . S
C493 C491 1.415 . S
C494 H484 0.930 . S
C494 C492 1.419 . S
C494 C495 1.362 . S
C495 H485 0.930 . S
C495 C488 1.409 . S
C495 C494 1.362 . S
H496 C502 0.930 . S
H497 C505 0.930 . S
H498 C506 0.930 . S
H499 C507 0.930 . S
H500 C510 0.930 . S
H501 C511 0.930 . S
C502 H496 0.930 . S
C502 C503 1.355 . S
C502 C504 1.415 . S
C503 C502 1.355 . S
C503 C505 1.419 . S
C504 C502 1.415 . S
C504 C509 1.425 . S
C504 C511 1.409 . S
C505 H497 0.930 . S
C505 C503 1.419 . S
C505 C506 1.362 . S
C506 H498 0.930 . S
C506 C505 1.362 . S
C506 C509 1.409 . S
C507 H499 0.930 . S
C507 C508 1.355 . S
C507 C509 1.415 . S
C508 C507 1.355 . S
C508 C510 1.419 . S
C509 C504 1.425 . S
C509 C506 1.409 . S
C509 C507 1.415 . S
C510 H500 0.930 . S
C510 C508 1.419 . S
C510 C511 1.362 . S
C511 H501 0.930 . S
C511 C504 1.409 . S
C511 C510 1.362 . S
H512 C518 0.931 1_655 S
H513 C521 0.930 . S
H514 C522 0.931 . S
H515 C523 0.930 . S
H516 C526 0.930 . S
H517 C527 0.930 . S
C518 H512 0.931 1_455 S
C518 C519 1.354 . S
C518 C520 1.414 1_556 S
C519 C518 1.354 . S
C519 C521 1.419 1_545 S
C520 C518 1.414 1_554 S
C520 C525 1.425 1_545 S
C520 C527 1.409 1_455 S
C521 H513 0.930 . S
C521 C519 1.419 1_565 S
C521 C522 1.362 . S
C522 H514 0.931 . S
C522 C521 1.362 . S
C522 C525 1.409 1_556 S
C523 H515 0.930 . S
C523 C524 1.355 1_565 S
C523 C525 1.415 . S
C524 C523 1.355 1_545 S
C524 C526 1.419 1_455 S
C525 C520 1.425 1_565 S
C525 C522 1.409 1_554 S
C525 C523 1.415 . S
C526 H516 0.930 . S
C526 C524 1.419 1_655 S
C526 C527 1.362 . S
C527 H517 0.930 . S
C527 C520 1.409 1_655 S
C527 C526 1.362 . S
H528 C534 0.930 . S
H529 C537 0.930 . S
H530 C538 0.930 . S
H531 C539 0.930 . S
H532 C542 0.930 . S
H533 C543 0.930 . S
C534 H528 0.930 . S
C534 C535 1.355 . S
C534 C536 1.415 . S
C535 C534 1.355 . S
C535 C537 1.419 . S
C536 C534 1.415 . S
C536 C541 1.425 . S
C536 C543 1.409 . S
C537 H529 0.930 . S
C537 C535 1.419 . S
C537 C538 1.362 . S
C538 H530 0.930 . S
C538 C537 1.362 . S
C538 C541 1.409 . S
C539 H531 0.930 . S
C539 C540 1.355 . S
C539 C541 1.415 . S
C540 C539 1.355 . S
C540 C542 1.419 . S
C541 C536 1.425 . S
C541 C538 1.409 . S
C541 C539 1.415 . S
C542 H532 0.930 . S
C542 C540 1.419 . S
C542 C543 1.362 . S
C543 H533 0.930 . S
C543 C536 1.409 . S
C543 C542 1.362 . S
H544 C550 0.930 . S
H545 C553 0.930 . S
H546 C554 0.930 . S
H547 C555 0.930 . S
H548 C558 0.930 . S
H549 C559 0.930 . S
C550 H544 0.930 . S
C550 C551 1.355 . S
C550 C552 1.415 . S
C551 C550 1.355 . S
C551 C553 1.419 1_545 S
C552 C550 1.415 . S
C552 C557 1.425 1_545 S
C552 C559 1.409 . S
C553 H545 0.930 . S
C553 C551 1.419 1_565 S
C553 C554 1.362 . S
C554 H546 0.930 . S
C554 C553 1.362 . S
C554 C557 1.409 . S
C555 H547 0.930 . S
C555 C556 1.355 1_565 S
C555 C557 1.415 . S
C556 C555 1.355 1_545 S
C556 C558 1.419 . S
C557 C552 1.425 1_565 S
C557 C554 1.409 . S
C557 C555 1.415 . S
C558 H548 0.930 . S
C558 C556 1.419 . S
C558 C559 1.362 . S
C559 H549 0.930 . S
C559 C552 1.409 . S
C559 C558 1.362 . S
H560 C566 0.930 . S
H561 C569 0.930 . S
H562 C570 0.930 . S
H563 C571 0.930 . S
H564 C574 0.930 . S
H565 C575 0.930 . S
C566 H560 0.930 . S
C566 C567 1.355 . S
C566 C568 1.415 . S
C567 C566 1.355 . S
C567 C569 1.419 . S
C568 C566 1.415 . S
C568 C573 1.425 . S
C568 C575 1.409 . S
C569 H561 0.930 . S
C569 C567 1.419 . S
C569 C570 1.362 . S
C570 H562 0.930 . S
C570 C569 1.362 . S
C570 C573 1.409 . S
C571 H563 0.930 . S
C571 C572 1.355 . S
C571 C573 1.415 . S
C572 C571 1.355 . S
C572 C574 1.419 . S
C573 C568 1.425 . S
C573 C570 1.409 . S
C573 C571 1.415 . S
C574 H564 0.930 . S
C574 C572 1.419 . S
C574 C575 1.362 . S
C575 H565 0.930 . S
C575 C568 1.409 . S
C575 C574 1.362 . S
H576 C582 0.930 . S
H577 C585 0.930 1_554 S
H578 C586 0.930 . S
H579 C587 0.930 . S
H580 C590 0.930 . S
H581 C591 0.930 . S
C582 H576 0.930 . S
C582 C583 1.355 . S
C582 C584 1.415 . S
C583 C582 1.355 . S
C583 C585 1.419 . S
C584 C582 1.415 . S
C584 C589 1.425 . S
C584 C591 1.409 . S
C585 H577 0.930 1_556 S
C585 C583 1.419 . S
C585 C586 1.362 . S
C586 H578 0.930 . S
C586 C585 1.362 . S
C586 C589 1.409 . S
C587 H579 0.930 . S
C587 C588 1.355 . S
C587 C589 1.415 . S
C588 C587 1.355 . S
C588 C590 1.419 . S
C589 C584 1.425 . S
C589 C586 1.409 . S
C589 C587 1.415 . S
C590 H580 0.930 . S
C590 C588 1.419 . S
C590 C591 1.362 . S
C591 H581 0.930 . S
C591 C584 1.409 . S
C591 C590 1.362 . S
H592 C598 0.930 . S
H593 C601 0.930 . S
H594 C602 0.930 . S
H595 C603 0.930 . S
H596 C606 0.930 . S
H597 C607 0.930 . S
C598 H592 0.930 . S
C598 C599 1.355 . S
C598 C600 1.415 . S
C599 C598 1.355 . S
C599 C601 1.419 . S
C600 C598 1.415 . S
C600 C605 1.425 . S
C600 C607 1.409 . S
C601 H593 0.930 . S
C601 C599 1.419 . S
C601 C602 1.362 . S
C602 H594 0.930 . S
C602 C601 1.362 . S
C602 C605 1.409 . S
C603 H595 0.930 . S
C603 C604 1.355 . S
C603 C605 1.415 . S
C604 C603 1.355 . S
C604 C606 1.419 . S
C605 C600 1.425 . S
C605 C602 1.409 . S
C605 C603 1.415 . S
C606 H596 0.930 . S
C606 C604 1.419 . S
C606 C607 1.362 . S
C607 H597 0.930 . S
C607 C600 1.409 . S
C607 C606 1.362 . S
H608 C614 0.930 . S
H609 C617 0.930 . S
H610 C618 0.930 . S
H611 C619 0.930 . S
H612 C622 0.930 . S
H613 C623 0.930 . S
C614 H608 0.930 . S
C614 C615 1.355 . S
C614 C616 1.415 . S
C615 C614 1.355 . S
C615 C617 1.419 . S
C616 C614 1.415 . S
C616 C621 1.425 . S
C616 C623 1.409 . S
C617 H609 0.930 . S
C617 C615 1.419 . S
C617 C618 1.362 . S
C618 H610 0.930 . S
C618 C617 1.362 . S
C618 C621 1.409 . S
C619 H611 0.930 . S
C619 C620 1.355 . S
C619 C621 1.415 . S
C620 C619 1.355 . S
C620 C622 1.419 . S
C621 C616 1.425 . S
C621 C618 1.409 . S
C621 C619 1.415 . S
C622 H612 0.930 . S
C622 C620 1.419 . S
C622 C623 1.362 . S
C623 H613 0.930 . S
C623 C616 1.409 . S
C623 C622 1.362 . S
H624 C630 0.930 . S
H625 C633 0.930 . S
H626 C634 0.930 . S
H627 C635 0.930 1_655 S
H628 C638 0.930 . S
H629 C639 0.930 . S
C630 H624 0.930 . S
C630 C631 1.355 . S
C630 C632 1.415 . S
C631 C630 1.355 . S
C631 C633 1.419 1_455 S
C632 C630 1.415 . S
C632 C637 1.425 1_556 S
C632 C639 1.409 1_556 S
C633 H625 0.930 . S
C633 C631 1.419 1_655 S
C633 C634 1.362 . S
C634 H626 0.930 . S
C634 C633 1.362 . S
C634 C637 1.409 1_656 S
C635 H627 0.930 1_455 S
C635 C636 1.355 . S
C635 C637 1.415 . S
C636 C635 1.355 . S
C636 C638 1.419 . S
C637 C632 1.425 1_554 S
C637 C634 1.409 1_454 S
C637 C635 1.415 . S
C638 H628 0.930 . S
C638 C636 1.419 . S
C638 C639 1.362 . S
C639 H629 0.930 . S
C639 C632 1.409 1_554 S
C639 C638 1.362 . S
C263 C29 2.718 . S
C268 C125 2.721 . S
C279 N18 1.517 . S
C284 C36 1.540 . S
C295 N45 0.744 . S
C300 N77 0.717 . S
C311 C68 1.541 . S
C316 N114 1.520 . S
C327 C2 3.057 . S
C332 C162 3.058 . S
C343 N13 1.418 . S
C348 C134 1.487 . S
C359 N146 0.313 . S
C364 N82 0.426 . S
C375 N173 1.424 . S
C380 C70 1.489 . S
C391 C221 2.717 . S
C396 C189 2.715 . S
C407 C132 1.533 . S
C412 N210 1.467 . S
C423 N242 0.769 . S
C428 N141 0.660 . S
C439 N178 1.494 . S
C444 C253 1.536 . S
C455 C98 3.060 . S
C460 C194 3.059 . S
C471 N205 1.469 . S
C476 C38 1.489 . S
C487 N50 0.301 . S
C492 N237 0.428 . S
C503 N109 1.418 . S
C508 C226 1.486 . S
C519 C4 1.373 . S
C524 C6 1.376 . S
C535 C34 1.405 . S
C540 C61 1.414 1_554 S
C551 C93 1.403 . S
C556 C66 1.395 . S
C567 C100 1.360 1_556 S
C572 C102 1.373 . S
C583 C130 1.406 1_556 S
C588 C157 1.415 . S
C599 C164 1.368 . S
C604 C166 1.381 1_554 S
C615 C198 1.372 . S
C620 C196 1.366 . S
C631 C230 1.418 . S
C636 C228 1.425 . S
