# Generated by pormake.
# Topology svo, (7)-cn, num edge types: 1
# Building blocks:
#     Node 0, Type 0, BuildingBlock: NUHQUE_clean_sbu_2, # of connection points: 7
#     Node 1, Type 0, BuildingBlock: NUHQUE_clean_sbu_2, # of connection points: 7
#     Node 2, Type 0, BuildingBlock: NUHQUE_clean_sbu_2, # of connection points: 7
#     Node 3, Type 0, BuildingBlock: NUHQUE_clean_sbu_2, # of connection points: 7
#     Node 4, Type 0, BuildingBlock: NUHQUE_clean_sbu_2, # of connection points: 7
#     Node 5, Type 0, BuildingBlock: NUHQUE_clean_sbu_2, # of connection points: 7
#     Node 6, Type 0, BuildingBlock: NUHQUE_clean_sbu_2, # of connection points: 7
#     Node 7, Type 0, BuildingBlock: NUHQUE_clean_sbu_2, # of connection points: 7
#     Node 8, Type 0, BuildingBlock: NUHQUE_clean_sbu_2, # of connection points: 7
#     Node 9, Type 0, BuildingBlock: NUHQUE_clean_sbu_2, # of connection points: 7
#     Node 10, Type 0, BuildingBlock: NUHQUE_clean_sbu_2, # of connection points: 7
#     Node 11, Type 0, BuildingBlock: NUHQUE_clean_sbu_2, # of connection points: 7
#     Node 12, Type 0, BuildingBlock: NUHQUE_clean_sbu_2, # of connection points: 7
#     Node 13, Type 0, BuildingBlock: NUHQUE_clean_sbu_2, # of connection points: 7
#     Node 14, Type 0, BuildingBlock: NUHQUE_clean_sbu_2, # of connection points: 7
#     Node 15, Type 0, BuildingBlock: NUHQUE_clean_sbu_2, # of connection points: 7
#     Edge 16, Type (0, 0), BuildingBlock: MIFKUJ_clean_linker_0, # of connection points: 2
#     Edge 17, Type (0, 0), BuildingBlock: MIFKUJ_clean_linker_0, # of connection points: 2
#     Edge 18, Type (0, 0), BuildingBlock: MIFKUJ_clean_linker_0, # of connection points: 2
#     Edge 19, Type (0, 0), BuildingBlock: MIFKUJ_clean_linker_0, # of connection points: 2
#     Edge 20, Type (0, 0), BuildingBlock: MIFKUJ_clean_linker_0, # of connection points: 2
#     Edge 21, Type (0, 0), BuildingBlock: MIFKUJ_clean_linker_0, # of connection points: 2
#     Edge 22, Type (0, 0), BuildingBlock: MIFKUJ_clean_linker_0, # of connection points: 2
#     Edge 23, Type (0, 0), BuildingBlock: MIFKUJ_clean_linker_0, # of connection points: 2
#     Edge 24, Type (0, 0), BuildingBlock: MIFKUJ_clean_linker_0, # of connection points: 2
#     Edge 25, Type (0, 0), BuildingBlock: MIFKUJ_clean_linker_0, # of connection points: 2
#     Edge 26, Type (0, 0), BuildingBlock: MIFKUJ_clean_linker_0, # of connection points: 2
#     Edge 27, Type (0, 0), BuildingBlock: MIFKUJ_clean_linker_0, # of connection points: 2
#     Edge 28, Type (0, 0), BuildingBlock: MIFKUJ_clean_linker_0, # of connection points: 2
#     Edge 29, Type (0, 0), BuildingBlock: MIFKUJ_clean_linker_0, # of connection points: 2
#     Edge 30, Type (0, 0), BuildingBlock: MIFKUJ_clean_linker_0, # of connection points: 2
#     Edge 31, Type (0, 0), BuildingBlock: MIFKUJ_clean_linker_0, # of connection points: 2
#     Edge 32, Type (0, 0), BuildingBlock: MIFKUJ_clean_linker_0, # of connection points: 2
#     Edge 33, Type (0, 0), BuildingBlock: MIFKUJ_clean_linker_0, # of connection points: 2
#     Edge 34, Type (0, 0), BuildingBlock: MIFKUJ_clean_linker_0, # of connection points: 2
#     Edge 35, Type (0, 0), BuildingBlock: MIFKUJ_clean_linker_0, # of connection points: 2
#     Edge 36, Type (0, 0), BuildingBlock: MIFKUJ_clean_linker_0, # of connection points: 2
#     Edge 37, Type (0, 0), BuildingBlock: MIFKUJ_clean_linker_0, # of connection points: 2
#     Edge 38, Type (0, 0), BuildingBlock: MIFKUJ_clean_linker_0, # of connection points: 2
#     Edge 39, Type (0, 0), BuildingBlock: MIFKUJ_clean_linker_0, # of connection points: 2
#     Edge 40, Type (0, 0), BuildingBlock: MIFKUJ_clean_linker_0, # of connection points: 2
#     Edge 41, Type (0, 0), BuildingBlock: MIFKUJ_clean_linker_0, # of connection points: 2
#     Edge 42, Type (0, 0), BuildingBlock: MIFKUJ_clean_linker_0, # of connection points: 2
#     Edge 43, Type (0, 0), BuildingBlock: MIFKUJ_clean_linker_0, # of connection points: 2
#     Edge 44, Type (0, 0), BuildingBlock: MIFKUJ_clean_linker_0, # of connection points: 2
#     Edge 45, Type (0, 0), BuildingBlock: MIFKUJ_clean_linker_0, # of connection points: 2
#     Edge 46, Type (0, 0), BuildingBlock: MIFKUJ_clean_linker_0, # of connection points: 2
#     Edge 47, Type (0, 0), BuildingBlock: MIFKUJ_clean_linker_0, # of connection points: 2
#     Edge 48, Type (0, 0), BuildingBlock: MIFKUJ_clean_linker_0, # of connection points: 2
#     Edge 49, Type (0, 0), BuildingBlock: MIFKUJ_clean_linker_0, # of connection points: 2
#     Edge 50, Type (0, 0), BuildingBlock: MIFKUJ_clean_linker_0, # of connection points: 2
#     Edge 51, Type (0, 0), BuildingBlock: MIFKUJ_clean_linker_0, # of connection points: 2
#     Edge 52, Type (0, 0), BuildingBlock: MIFKUJ_clean_linker_0, # of connection points: 2
#     Edge 53, Type (0, 0), BuildingBlock: MIFKUJ_clean_linker_0, # of connection points: 2
#     Edge 54, Type (0, 0), BuildingBlock: MIFKUJ_clean_linker_0, # of connection points: 2
#     Edge 55, Type (0, 0), BuildingBlock: MIFKUJ_clean_linker_0, # of connection points: 2
#     Edge 56, Type (0, 0), BuildingBlock: MIFKUJ_clean_linker_0, # of connection points: 2
#     Edge 57, Type (0, 0), BuildingBlock: MIFKUJ_clean_linker_0, # of connection points: 2
#     Edge 58, Type (0, 0), BuildingBlock: MIFKUJ_clean_linker_0, # of connection points: 2
#     Edge 59, Type (0, 0), BuildingBlock: MIFKUJ_clean_linker_0, # of connection points: 2
#     Edge 60, Type (0, 0), BuildingBlock: MIFKUJ_clean_linker_0, # of connection points: 2
#     Edge 61, Type (0, 0), BuildingBlock: MIFKUJ_clean_linker_0, # of connection points: 2
#     Edge 62, Type (0, 0), BuildingBlock: MIFKUJ_clean_linker_0, # of connection points: 2
#     Edge 63, Type (0, 0), BuildingBlock: MIFKUJ_clean_linker_0, # of connection points: 2
#     Edge 64, Type (0, 0), BuildingBlock: MIFKUJ_clean_linker_0, # of connection points: 2
#     Edge 65, Type (0, 0), BuildingBlock: MIFKUJ_clean_linker_0, # of connection points: 2
#     Edge 66, Type (0, 0), BuildingBlock: MIFKUJ_clean_linker_0, # of connection points: 2
#     Edge 67, Type (0, 0), BuildingBlock: MIFKUJ_clean_linker_0, # of connection points: 2
#     Edge 68, Type (0, 0), BuildingBlock: MIFKUJ_clean_linker_0, # of connection points: 2
#     Edge 69, Type (0, 0), BuildingBlock: MIFKUJ_clean_linker_0, # of connection points: 2
#     Edge 70, Type (0, 0), BuildingBlock: MIFKUJ_clean_linker_0, # of connection points: 2
#     Edge 71, Type (0, 0), BuildingBlock: MIFKUJ_clean_linker_0, # of connection points: 2
# Relax obj value: 0.171
# Max RMSD: 0.277
# Mean RMSD: 0.277
data_MOF--net-svo--node1-NUHQUE_clean_sbu_2--edge1-MIFKUJ_clean_linker_0
_symmetry_space_group_name_H-M    P1
_symmetry_Int_Tables_number       1
_symmetry_cell_setting            triclinic
loop_
_symmetry_equiv_pos_as_xyz
'x, y, z'
_cell_length_a     47.185796
_cell_length_b     47.192421
_cell_length_c     70.889016
_cell_angle_alpha  89.99908
_cell_angle_beta   89.987652
_cell_angle_gamma 89.973161
loop_
_atom_site_label
_atom_site_type_symbol
_atom_site_fract_x
_atom_site_fract_y
_atom_site_fract_z
_atom_type_partial_charge
O0 O 0.26496 0.24047 0.13485 0.0
Tb1 Tb 0.28031 0.28322 0.12937 0.0
Eu2 Eu 0.21239 0.35339 0.11857 0.0
C3 C 0.27256 0.2253 0.14959 0.0
O4 O 0.2875 0.23715 0.16308 0.0
C5 C 0.2393 0.32267 0.15272 0.0
O6 O 0.21785 0.40091 0.12127 0.0
C7 C 0.16417 0.33711 0.10446 0.0
C8 C 0.22408 0.4162 0.10629 0.0
O9 O 0.22575 0.40351 0.08983 0.0
C10 C 0.24714 0.30692 0.09593 0.0
C11 C 0.13376 0.34407 0.10446 0.0
C12 C 0.11396 0.32216 0.10154 0.0
C13 C 0.08483 0.32805 0.10175 0.0
C14 C 0.07566 0.35569 0.10527 0.0
C15 C 0.095 0.37754 0.10889 0.0
C16 C 0.12421 0.37182 0.10813 0.0
O17 O 0.25885 0.32097 0.13963 0.0
O18 O 0.21736 0.339 0.14898 0.0
O19 O 0.32111 0.27952 0.14377 0.0
O20 O 0.32026 0.29096 0.11469 0.0
C21 C 0.33654 0.28591 0.12914 0.0
O22 O 0.24968 0.33042 0.10573 0.0
O23 O 0.2614 0.28434 0.10137 0.0
O24 O 0.17442 0.32747 0.12042 0.0
O25 O 0.18143 0.35466 0.09575 0.0
H26 H 0.12118 0.30066 0.09909 0.0
H27 H 0.05308 0.36009 0.10562 0.0
H28 H 0.13934 0.38859 0.11089 0.0
O29 O 0.79149 0.21594 0.11212 0.0
Tb30 Tb 0.74779 0.22405 0.12005 0.0
Eu31 Eu 0.67406 0.16353 0.12455 0.0
C32 C 0.81113 0.21316 0.12516 0.0
O33 O 0.8034 0.21165 0.14293 0.0
C34 C 0.70813 0.20051 0.15089 0.0
O35 O 0.63484 0.18739 0.11607 0.0
C36 C 0.66079 0.11097 0.13114 0.0
C37 C 0.63065 0.21424 0.12013 0.0
O38 O 0.65115 0.22902 0.12788 0.0
C39 C 0.70914 0.19172 0.09139 0.0
C40 C 0.66195 0.08088 0.12523 0.0
C41 C 0.68638 0.0642 0.12798 0.0
C42 C 0.68571 0.03501 0.12412 0.0
C43 C 0.66055 0.02253 0.1177 0.0
C44 C 0.63558 0.03839 0.11596 0.0
C45 C 0.63664 0.06771 0.11931 0.0
O46 O 0.72561 0.19357 0.13728 0.0
O47 O 0.68334 0.18809 0.15094 0.0
O48 O 0.75719 0.25881 0.13955 0.0
O49 O 0.732 0.26697 0.11531 0.0
C50 C 0.7438 0.27831 0.13008 0.0
O51 O 0.70981 0.17091 0.1038 0.0
O52 O 0.72481 0.21465 0.09406 0.0
O53 O 0.64527 0.12816 0.12087 0.0
O54 O 0.68353 0.12311 0.13824 0.0
H55 H 0.70555 0.07357 0.13363 0.0
H56 H 0.65999 0.99984 0.11527 0.0
H57 H 0.61727 0.08003 0.11853 0.0
O58 O 0.75526 0.74532 0.13996 0.0
Tb59 Tb 0.73606 0.70412 0.13516 0.0
Eu60 Eu 0.80852 0.64015 0.12887 0.0
C61 C 0.75286 0.75923 0.15595 0.0
O62 O 0.74048 0.74702 0.1704 0.0
C63 C 0.77357 0.66639 0.16126 0.0
O64 O 0.80945 0.59257 0.1315 0.0
C65 C 0.85599 0.66275 0.11809 0.0
C66 C 0.79113 0.57783 0.12155 0.0
O67 O 0.77397 0.59147 0.11011 0.0
C68 C 0.77017 0.67956 0.10269 0.0
C69 C 0.88684 0.65863 0.11979 0.0
C70 C 0.90411 0.68219 0.12382 0.0
C71 C 0.93358 0.67901 0.1255 0.0
C72 C 0.94561 0.65222 0.12252 0.0
C73 C 0.92875 0.62861 0.11841 0.0
C74 C 0.89924 0.63175 0.11734 0.0
O75 O 0.75568 0.66656 0.14714 0.0
O76 O 0.79769 0.65292 0.15878 0.0
O77 O 0.69717 0.71377 0.15056 0.0
O78 O 0.69435 0.69837 0.12235 0.0
C79 C 0.67994 0.70708 0.13693 0.0
O80 O 0.76997 0.65761 0.11405 0.0
O81 O 0.75364 0.70118 0.10684 0.0
O82 O 0.84269 0.67026 0.13357 0.0
O83 O 0.84179 0.64438 0.10783 0.0
H84 H 0.89455 0.70287 0.12586 0.0
H85 H 0.96842 0.64966 0.12336 0.0
H86 H 0.88612 0.61347 0.11429 0.0
O87 O 0.21457 0.7776 0.11809 0.0
Tb88 Tb 0.25999 0.77374 0.12168 0.0
Eu89 Eu 0.32447 0.79919 0.13677 0.0
C90 C 0.19943 0.79858 0.12496 0.0
O91 O 0.21202 0.81934 0.13402 0.0
C92 C 0.27634 0.77691 0.16363 0.0
O93 O 0.37043 0.78736 0.14008 0.0
C94 C 0.31728 0.8529 0.14347 0.0
C95 C 0.38128 0.76618 0.13043 0.0
O96 O 0.36488 0.75167 0.11899 0.0
C97 C 0.30417 0.79969 0.09443 0.0
C98 C 0.32518 0.88094 0.13577 0.0
C99 C 0.30635 0.90389 0.13783 0.0
C100 C 0.31417 0.93105 0.13167 0.0
C101 C 0.341 0.93527 0.12372 0.0
C102 C 0.36043 0.91291 0.122 0.0
C103 C 0.35217 0.88558 0.12779 0.0
O104 O 0.25753 0.78566 0.15126 0.0
O105 O 0.30262 0.77197 0.15843 0.0
O106 O 0.28305 0.73416 0.12787 0.0
O107 O 0.25108 0.73417 0.10684 0.0
C108 C 0.26927 0.71849 0.11579 0.0
O109 O 0.32478 0.79111 0.10547 0.0
O110 O 0.27824 0.80241 0.10097 0.0
O111 O 0.33792 0.83773 0.15076 0.0
O112 O 0.29898 0.8377 0.1338 0.0
H113 H 0.2859 0.90073 0.14447 0.0
H114 H 0.34733 0.95664 0.11998 0.0
H115 H 0.36697 0.86811 0.12655 0.0
O116 O 0.22954 0.77726 0.37716 0.0
Tb117 Tb 0.2462 0.73452 0.37962 0.0
Eu118 Eu 0.18345 0.66137 0.38336 0.0
C119 C 0.22687 0.79062 0.36099 0.0
O120 O 0.23096 0.77682 0.34515 0.0
C121 C 0.20808 0.69828 0.35276 0.0
O122 O 0.19544 0.61665 0.37552 0.0
C123 C 0.13311 0.66545 0.39793 0.0
C124 C 0.20752 0.60042 0.38827 0.0
O125 O 0.21183 0.61076 0.40524 0.0
C126 C 0.2156 0.70283 0.41183 0.0
C127 C 0.103 0.66052 0.39288 0.0
C128 C 0.08594 0.68357 0.38732 0.0
C129 C 0.05721 0.67962 0.38301 0.0
C130 C 0.0453 0.65257 0.38486 0.0
C131 C 0.0617 0.62944 0.39068 0.0
C132 C 0.09066 0.63338 0.39447 0.0
O133 O 0.22594 0.69818 0.36687 0.0
O134 O 0.18631 0.68119 0.35438 0.0
O135 O 0.28442 0.74198 0.36301 0.0
O136 O 0.28834 0.72963 0.39186 0.0
C137 C 0.30218 0.7368 0.37666 0.0
O138 O 0.21885 0.68081 0.40062 0.0
O139 O 0.22897 0.72664 0.4077 0.0
O140 O 0.14602 0.68657 0.38942 0.0
O141 O 0.14946 0.64314 0.40023 0.0
H142 H 0.09501 0.70461 0.38624 0.0
H143 H 0.02297 0.6495 0.38188 0.0
H144 H 0.10328 0.61546 0.39904 0.0
O145 O 0.21668 0.24703 0.36027 0.0
Tb146 Tb 0.26209 0.25244 0.36466 0.0
Eu147 Eu 0.34717 0.19768 0.36878 0.0
C148 C 0.20102 0.22931 0.37013 0.0
O149 O 0.2133 0.21194 0.38208 0.0
C150 C 0.30839 0.225 0.3383 0.0
O151 O 0.3946 0.20356 0.37236 0.0
C152 C 0.32937 0.14607 0.37374 0.0
C153 C 0.40576 0.22908 0.37095 0.0
O154 O 0.38878 0.25065 0.36781 0.0
C155 C 0.29955 0.22625 0.39514 0.0
C156 C 0.33873 0.11668 0.37691 0.0
C157 C 0.31976 0.09444 0.37298 0.0
C158 C 0.32789 0.06604 0.37563 0.0
C159 C 0.35499 0.06039 0.38289 0.0
C160 C 0.37446 0.08222 0.38635 0.0
C161 C 0.36628 0.11049 0.38326 0.0
O162 O 0.29105 0.22144 0.35257 0.0
O163 O 0.33404 0.21417 0.33998 0.0
O164 O 0.27207 0.29084 0.34848 0.0
O165 O 0.27073 0.29265 0.37847 0.0
C166 C 0.27451 0.30736 0.36316 0.0
O167 O 0.31879 0.23097 0.38204 0.0
O168 O 0.27366 0.23608 0.39234 0.0
O169 O 0.33464 0.15695 0.35702 0.0
O170 O 0.33303 0.16415 0.38764 0.0
H171 H 0.29895 0.09934 0.36737 0.0
H172 H 0.36148 0.03865 0.38526 0.0
H173 H 0.38125 0.12751 0.38572 0.0
O174 O 0.77928 0.23083 0.37759 0.0
Tb175 Tb 0.76605 0.27446 0.37376 0.0
Eu176 Eu 0.78669 0.34225 0.3656 0.0
C177 C 0.79817 0.21801 0.36695 0.0
O178 O 0.81192 0.23244 0.35402 0.0
C179 C 0.76642 0.30069 0.33447 0.0
O180 O 0.77666 0.38888 0.36366 0.0
C181 C 0.84039 0.33282 0.35965 0.0
C182 C 0.78418 0.40679 0.37695 0.0
O183 O 0.79797 0.39729 0.39177 0.0
C184 C 0.78334 0.3156 0.40632 0.0
C185 C 0.86919 0.33722 0.3676 0.0
C186 C 0.88814 0.31408 0.36877 0.0
C187 C 0.91634 0.31831 0.37456 0.0
C188 C 0.92562 0.34569 0.37881 0.0
C189 C 0.90759 0.36909 0.37695 0.0
C190 C 0.87914 0.36473 0.37186 0.0
O191 O 0.77856 0.28077 0.34455 0.0
O192 O 0.75934 0.32473 0.34244 0.0
O193 O 0.72676 0.2508 0.37744 0.0
O194 O 0.72422 0.2955 0.37494 0.0
C195 C 0.70953 0.27223 0.377 0.0
O196 O 0.77523 0.33755 0.39625 0.0
O197 O 0.78821 0.29081 0.39844 0.0
O198 O 0.82681 0.35534 0.35355 0.0
O199 O 0.82367 0.31424 0.36787 0.0
H200 H 0.88119 0.29302 0.36479 0.0
H201 H 0.9476 0.34896 0.38277 0.0
H202 H 0.8653 0.3829 0.37022 0.0
O203 O 0.78172 0.77274 0.35563 0.0
Tb204 Tb 0.73878 0.76238 0.36388 0.0
Eu205 Eu 0.65893 0.82231 0.3675 0.0
C206 C 0.79552 0.79371 0.36364 0.0
O207 O 0.78233 0.8098 0.37596 0.0
C208 C 0.69177 0.79009 0.33757 0.0
O209 O 0.61132 0.82095 0.36924 0.0
C210 C 0.68035 0.87257 0.37184 0.0
C211 C 0.59907 0.80351 0.38118 0.0
O212 O 0.61504 0.7879 0.39224 0.0
C213 C 0.70477 0.79337 0.39481 0.0
C214 C 0.67338 0.9029 0.37104 0.0
C215 C 0.6954 0.92228 0.36774 0.0
C216 C 0.68991 0.95149 0.36706 0.0
C217 C 0.66204 0.961 0.36985 0.0
C218 C 0.63964 0.94193 0.37279 0.0
C219 C 0.64548 0.91272 0.37353 0.0
O220 O 0.7073 0.79113 0.35278 0.0
O221 O 0.66793 0.80431 0.33846 0.0
O222 O 0.72612 0.72211 0.35084 0.0
O223 O 0.73991 0.72277 0.3795 0.0
C224 C 0.73135 0.70663 0.36574 0.0
O225 O 0.68321 0.78825 0.38347 0.0
O226 O 0.72957 0.78147 0.39119 0.0
O227 O 0.68074 0.85889 0.35571 0.0
O228 O 0.66929 0.85785 0.38575 0.0
H229 H 0.71679 0.91452 0.36557 0.0
H230 H 0.65778 0.98357 0.37018 0.0
H231 H 0.62844 0.89771 0.37582 0.0
O232 O 0.7455 0.71591 0.89052 0.0
Tb233 Tb 0.7868 0.73247 0.88205 0.0
Eu234 Eu 0.85046 0.68477 0.86809 0.0
C235 C 0.72538 0.71298 0.87776 0.0
O236 O 0.73202 0.71589 0.85989 0.0
C237 C 0.80967 0.72066 0.84293 0.0
O238 O 0.8964 0.69667 0.87217 0.0
C239 C 0.84775 0.63521 0.85221 0.0
C240 C 0.90561 0.72235 0.86831 0.0
O241 O 0.88724 0.74201 0.86355 0.0
C242 C 0.82839 0.7009 0.90996 0.0
C243 C 0.84976 0.6045 0.85646 0.0
C244 C 0.82575 0.58725 0.85385 0.0
C245 C 0.82782 0.55779 0.85587 0.0
C246 C 0.85375 0.54556 0.86097 0.0
C247 C 0.87793 0.56225 0.86382 0.0
C248 C 0.87585 0.5918 0.86143 0.0
O249 O 0.78963 0.71266 0.85455 0.0
O250 O 0.83631 0.7184 0.84784 0.0
O251 O 0.76278 0.77062 0.88885 0.0
O252 O 0.798 0.77426 0.87043 0.0
C253 C 0.77758 0.78808 0.87873 0.0
O254 O 0.8362 0.68061 0.8983 0.0
O255 O 0.81803 0.72536 0.90422 0.0
O256 O 0.87113 0.65018 0.85338 0.0
O257 O 0.8252 0.64892 0.85824 0.0
H258 H 0.80574 0.59657 0.8496 0.0
H259 H 0.85519 0.5227 0.8623 0.0
H260 H 0.89459 0.60475 0.8633 0.0
O261 O 0.27019 0.7157 0.86498 0.0
Tb262 Tb 0.26145 0.76104 0.86498 0.0
Eu263 Eu 0.31895 0.84356 0.87376 0.0
C264 C 0.26269 0.6991 0.85091 0.0
O265 O 0.2515 0.71032 0.83568 0.0
C266 C 0.29136 0.8092 0.8411 0.0
O267 O 0.3154 0.89129 0.87747 0.0
C268 C 0.36869 0.82211 0.88091 0.0
C269 C 0.29056 0.90289 0.88112 0.0
O270 O 0.26855 0.88615 0.8833 0.0
C271 C 0.28564 0.79593 0.89749 0.0
C272 C 0.39838 0.82984 0.88486 0.0
C273 C 0.41835 0.80832 0.88876 0.0
C274 C 0.44687 0.81528 0.89218 0.0
C275 C 0.45523 0.84366 0.89127 0.0
C276 C 0.43591 0.86512 0.88669 0.0
C277 C 0.40725 0.85825 0.88391 0.0
O278 O 0.29362 0.79029 0.85459 0.0
O279 O 0.30368 0.8339 0.84401 0.0
O280 O 0.22392 0.76385 0.84678 0.0
O281 O 0.22024 0.77368 0.87599 0.0
C282 C 0.20644 0.77122 0.86019 0.0
O283 O 0.28311 0.81637 0.88494 0.0
O284 O 0.27425 0.77106 0.89367 0.0
O285 O 0.35941 0.82737 0.86376 0.0
O286 O 0.34992 0.82792 0.89409 0.0
H287 H 0.41175 0.78633 0.88909 0.0
H288 H 0.47733 0.84901 0.89358 0.0
H289 H 0.39215 0.87473 0.88036 0.0
O290 O 0.28245 0.27852 0.88063 0.0
Tb291 Tb 0.24075 0.26288 0.87302 0.0
Eu292 Eu 0.17149 0.28204 0.86228 0.0
C293 C 0.30204 0.28316 0.86781 0.0
O294 O 0.29545 0.28062 0.84989 0.0
C295 C 0.21727 0.26447 0.83267 0.0
O296 O 0.12599 0.26855 0.85863 0.0
C297 C 0.17637 0.33623 0.85612 0.0
C298 C 0.1079 0.26887 0.87273 0.0
O299 O 0.11647 0.27706 0.88949 0.0
C300 C 0.19619 0.28005 0.90366 0.0
C301 C 0.17057 0.36524 0.86329 0.0
C302 C 0.19328 0.38456 0.8649 0.0
C303 C 0.18815 0.41302 0.86957 0.0
C304 C 0.16032 0.42223 0.87234 0.0
C305 C 0.13734 0.40389 0.86988 0.0
C306 C 0.1425 0.37515 0.86586 0.0
O307 O 0.23622 0.27606 0.84381 0.0
O308 O 0.19252 0.25676 0.83937 0.0
O309 O 0.26594 0.22417 0.8745 0.0
O310 O 0.2212 0.22061 0.87634 0.0
C311 C 0.24505 0.20647 0.8763 0.0
O312 O 0.17534 0.27079 0.89304 0.0
O313 O 0.22145 0.28535 0.89661 0.0
O314 O 0.15463 0.32098 0.85058 0.0
O315 O 0.19642 0.32114 0.86424 0.0
H316 H 0.21476 0.37771 0.86196 0.0
H317 H 0.15642 0.44445 0.87535 0.0
H318 H 0.12467 0.36106 0.86365 0.0
O319 O 0.75404 0.27268 0.86723 0.0
Tb320 Tb 0.75796 0.22709 0.86896 0.0
Eu321 Eu 0.69761 0.14802 0.87323 0.0
C322 C 0.73033 0.2861 0.86342 0.0
O323 O 0.70697 0.27167 0.86041 0.0
C324 C 0.72474 0.18534 0.8425 0.0
O325 O 0.70039 0.10044 0.87551 0.0
C326 C 0.64911 0.17064 0.88187 0.0
C327 C 0.72021 0.08754 0.86566 0.0
O328 O 0.73686 0.10296 0.85492 0.0
C329 C 0.73275 0.1903 0.89976 0.0
C330 C 0.61944 0.16466 0.88662 0.0
C331 C 0.60133 0.18753 0.89065 0.0
C332 C 0.57273 0.18271 0.89487 0.0
C333 C 0.56231 0.15497 0.8948 0.0
C334 C 0.5798 0.13203 0.89003 0.0
C335 C 0.60868 0.13688 0.88634 0.0
O336 O 0.7239 0.20148 0.85751 0.0
O337 O 0.71188 0.1607 0.84383 0.0
O338 O 0.79364 0.21778 0.85015 0.0
O339 O 0.79908 0.21432 0.87989 0.0
C340 C 0.81167 0.2123 0.86362 0.0
O341 O 0.73465 0.17171 0.88597 0.0
O342 O 0.74427 0.21544 0.89718 0.0
O343 O 0.65705 0.1654 0.86443 0.0
O344 O 0.66827 0.16372 0.8945 0.0
H345 H 0.6094 0.20904 0.89035 0.0
H346 H 0.54003 0.15135 0.89771 0.0
H347 H 0.62244 0.11937 0.88255 0.0
O348 O 0.71188 0.27543 0.63134 0.0
Tb349 Tb 0.75622 0.26682 0.63628 0.0
Eu350 Eu 0.83366 0.32558 0.62968 0.0
C351 C 0.69455 0.2837 0.64474 0.0
O352 O 0.70442 0.28812 0.66181 0.0
C353 C 0.8001 0.2984 0.66203 0.0
O354 O 0.88088 0.32586 0.62598 0.0
C355 C 0.80887 0.37289 0.62132 0.0
C356 C 0.89203 0.31783 0.60987 0.0
O357 O 0.87514 0.31123 0.59582 0.0
C358 C 0.79254 0.28686 0.60436 0.0
C359 C 0.81504 0.40261 0.61706 0.0
C360 C 0.79226 0.4213 0.61459 0.0
C361 C 0.79725 0.45004 0.61115 0.0
C362 C 0.82517 0.45992 0.61004 0.0
C363 C 0.84826 0.4419 0.61374 0.0
C364 C 0.84301 0.41289 0.61685 0.0
O365 O 0.78127 0.30069 0.64851 0.0
O366 O 0.82442 0.31141 0.65956 0.0
O367 O 0.74795 0.23072 0.65481 0.0
O368 O 0.7776 0.22641 0.63225 0.0
C369 C 0.76504 0.21335 0.6461 0.0
O370 O 0.81048 0.28728 0.61855 0.0
O371 O 0.76777 0.27497 0.60721 0.0
O372 O 0.81385 0.36474 0.63875 0.0
O373 O 0.8164 0.35413 0.60854 0.0
H374 H 0.77067 0.41363 0.6158 0.0
H375 H 0.82873 0.48225 0.6074 0.0
H376 H 0.86034 0.39853 0.61993 0.0
O377 O 0.71298 0.74429 0.621 0.0
Tb378 Tb 0.72774 0.78776 0.62125 0.0
Eu379 Eu 0.7015 0.85512 0.63031 0.0
C380 C 0.71732 0.72782 0.63568 0.0
O381 O 0.72906 0.7385 0.65091 0.0
C382 C 0.72483 0.81446 0.66009 0.0
O383 O 0.70668 0.90228 0.6326 0.0
C384 C 0.6491 0.84036 0.6361 0.0
C385 C 0.73122 0.91383 0.62844 0.0
O386 O 0.75184 0.89754 0.62229 0.0
C387 C 0.70917 0.83039 0.58907 0.0
C388 C 0.62056 0.8442 0.62793 0.0
C389 C 0.60021 0.82262 0.63003 0.0
C390 C 0.57233 0.82662 0.62353 0.0
C391 C 0.56502 0.85236 0.61496 0.0
C392 C 0.58474 0.87442 0.6133 0.0
C393 C 0.61265 0.87012 0.61959 0.0
O394 O 0.71273 0.7949 0.64977 0.0
O395 O 0.73085 0.83901 0.65258 0.0
O396 O 0.77037 0.80596 0.62526 0.0
O397 O 0.76624 0.76445 0.6141 0.0
C398 C 0.78424 0.78377 0.61924 0.0
O399 O 0.71322 0.85284 0.59972 0.0
O400 O 0.70738 0.80457 0.59609 0.0
O401 O 0.66086 0.86296 0.64357 0.0
O402 O 0.66712 0.82445 0.62671 0.0
H403 H 0.60586 0.80304 0.6371 0.0
H404 H 0.54316 0.85605 0.61092 0.0
H405 H 0.6279 0.88723 0.61855 0.0
O406 O 0.27412 0.73654 0.63792 0.0
Tb407 Tb 0.22916 0.74674 0.63676 0.0
Eu408 Eu 0.14361 0.69637 0.6311 0.0
C409 C 0.28986 0.74386 0.65246 0.0
O410 O 0.27776 0.75552 0.66722 0.0
C411 C 0.18046 0.72269 0.66219 0.0
O412 O 0.09614 0.70205 0.6279 0.0
C413 C 0.163 0.64518 0.62675 0.0
C414 C 0.08417 0.72483 0.63516 0.0
O415 O 0.10031 0.74308 0.64413 0.0
C416 C 0.19191 0.72387 0.60489 0.0
C417 C 0.15553 0.61492 0.62652 0.0
C418 C 0.17749 0.59478 0.62764 0.0
C419 C 0.17113 0.56586 0.62923 0.0
C420 C 0.14281 0.55719 0.62931 0.0
C421 C 0.12066 0.5769 0.62802 0.0
C422 C 0.1271 0.60593 0.62654 0.0
O423 O 0.19804 0.71759 0.64827 0.0
O424 O 0.15437 0.71338 0.66014 0.0
O425 O 0.22614 0.78461 0.65457 0.0
O426 O 0.21916 0.78811 0.62497 0.0
C427 C 0.22051 0.80203 0.64078 0.0
O428 O 0.17189 0.72922 0.61737 0.0
O429 O 0.21783 0.73288 0.6085 0.0
O430 O 0.16119 0.65793 0.64318 0.0
O431 O 0.15442 0.66103 0.61256 0.0
H432 H 0.19942 0.60163 0.62783 0.0
H433 H 0.13804 0.53473 0.63015 0.0
H434 H 0.11018 0.62144 0.62591 0.0
O435 O 0.25884 0.27139 0.61895 0.0
Tb436 Tb 0.23999 0.23008 0.61376 0.0
Eu437 Eu 0.30133 0.15569 0.61019 0.0
C438 C 0.25275 0.2858 0.63431 0.0
O439 O 0.23768 0.27357 0.64758 0.0
C440 C 0.27641 0.19299 0.64095 0.0
O441 O 0.29308 0.11071 0.61921 0.0
C442 C 0.35069 0.16329 0.59489 0.0
C443 C 0.27636 0.09462 0.60897 0.0
O444 O 0.26528 0.10517 0.59348 0.0
C445 C 0.26897 0.19604 0.58204 0.0
C446 C 0.38115 0.15931 0.599 0.0
C447 C 0.3981 0.18338 0.60217 0.0
C448 C 0.42707 0.18041 0.6057 0.0
C449 C 0.43928 0.15344 0.6061 0.0
C450 C 0.42286 0.12915 0.60305 0.0
C451 C 0.39374 0.13216 0.5993 0.0
O452 O 0.25757 0.19287 0.62736 0.0
O453 O 0.29813 0.17585 0.63895 0.0
O454 O 0.19986 0.23655 0.62852 0.0
O455 O 0.19948 0.22954 0.59886 0.0
C456 C 0.18388 0.23474 0.61361 0.0
O457 O 0.26511 0.17493 0.59386 0.0
O458 O 0.25786 0.22102 0.58604 0.0
O459 O 0.33754 0.1828 0.60482 0.0
O460 O 0.33515 0.14061 0.59184 0.0
H461 H 0.38888 0.20442 0.60171 0.0
H462 H 0.46187 0.15145 0.60858 0.0
H463 H 0.38098 0.11343 0.59686 0.0
H464 H 0.23746 0.34911 0.07071 0.0
H465 H 0.21576 0.34458 0.03965 0.0
H466 H 0.19431 0.2575 0.05187 0.0
H467 H 0.21772 0.26163 0.08254 0.0
H468 H 0.2173 0.25763 0.02062 0.0
H469 H 0.14262 0.31255 0.04462 0.0
H470 H 0.11924 0.35123 0.06205 0.0
H471 H 0.15419 0.41215 0.02357 0.0
H472 H 0.17807 0.37389 0.00599 0.0
H473 H 0.15837 0.25343 0.92691 0.0
H474 H 0.15395 0.25899 0.96126 0.0
H475 H 0.21761 0.32443 0.96025 0.0
H476 H 0.22285 0.31838 0.92614 0.0
H477 H 0.16223 0.33103 0.98641 0.0
H478 H 0.24549 0.27071 0.96926 0.0
H479 H 0.26515 0.22945 0.95231 0.0
H480 H 0.20504 0.17493 0.97974 0.0
H481 H 0.1848 0.21601 0.99663 0.0
C482 C 0.22753 0.32922 0.0669 0.0
C483 C 0.22933 0.30568 0.0789 0.0
C484 C 0.2149 0.32665 0.04916 0.0
C485 C 0.20308 0.30071 0.04334 0.0
C486 C 0.20338 0.27769 0.05592 0.0
C487 C 0.21667 0.28006 0.07345 0.0
C488 C 0.19377 0.29673 0.02343 0.0
C489 C 0.20458 0.27341 0.0134 0.0
C490 C 0.17711 0.31712 0.01376 0.0
C491 C 0.16228 0.34029 0.024 0.0
C492 C 0.14544 0.3342 0.0399 0.0
C493 C 0.1321 0.35606 0.04983 0.0
C494 C 0.1353 0.38413 0.04397 0.0
C495 C 0.15173 0.39039 0.0281 0.0
C496 C 0.16512 0.3686 0.0181 0.0
C497 C 0.1711 0.26928 0.934 0.0
C498 C 0.1912 0.28525 0.92393 0.0
C499 C 0.16843 0.27252 0.95355 0.0
C500 C 0.1853 0.29227 0.96318 0.0
C501 C 0.20422 0.30931 0.953 0.0
C502 C 0.20739 0.3056 0.93357 0.0
C503 C 0.18638 0.29253 0.98401 0.0
C504 C 0.17418 0.31508 0.99403 0.0
C505 C 0.20094 0.27104 0.99388 0.0
C506 C 0.21347 0.24639 0.98402 0.0
C507 C 0.23636 0.24994 0.97155 0.0
C508 C 0.24762 0.22661 0.96198 0.0
C509 C 0.2363 0.1996 0.96491 0.0
C510 C 0.21376 0.19587 0.97746 0.0
C511 C 0.20239 0.21916 0.98704 0.0
H512 H 0.24503 0.18156 0.95748 0.0
H513 H 0.12502 0.40103 0.0517 0.0
H514 H 0.69258 0.14114 0.07576 0.0
H515 H 0.68164 0.13216 0.04252 0.0
H516 H 0.68804 0.22158 0.03078 0.0
H517 H 0.69909 0.23075 0.06387 0.0
H518 H 0.64538 0.1933 0.00894 0.0
H519 H 0.74554 0.1834 0.02701 0.0
H520 H 0.7839 0.16204 0.04591 0.0
H521 H 0.76008 0.07925 0.02642 0.0
H522 H 0.72133 0.10016 0.00758 0.0
H523 H 0.71097 0.22823 0.92461 0.0
H524 H 0.69238 0.21882 0.95601 0.0
H525 H 0.70235 0.12894 0.94691 0.0
H526 H 0.72146 0.13838 0.91529 0.0
H527 H 0.72696 0.14474 0.97876 0.0
H528 H 0.63606 0.15636 0.95331 0.0
H529 H 0.59828 0.1773 0.93381 0.0
H530 H 0.60269 0.25425 0.96598 0.0
H531 H 0.64073 0.2339 0.9856 0.0
C532 C 0.69101 0.15897 0.0662 0.0
C533 C 0.6973 0.18662 0.07235 0.0
C534 C 0.68469 0.15379 0.04722 0.0
C535 C 0.68433 0.17618 0.03418 0.0
C536 C 0.6882 0.20401 0.04062 0.0
C537 C 0.69476 0.20918 0.05952 0.0
C538 C 0.68434 0.17063 0.0136 0.0
C539 C 0.66305 0.18257 0.00227 0.0
C540 C 0.70693 0.15576 0.00497 0.0
C541 C 0.73038 0.14327 0.0161 0.0
C542 C 0.74839 0.16063 0.02687 0.0
C543 C 0.77021 0.14861 0.03755 0.0
C544 C 0.77437 0.11929 0.03742 0.0
C545 C 0.75679 0.10194 0.02654 0.0
C546 C 0.7349 0.11386 0.01586 0.0
C547 C 0.70876 0.20642 0.92914 0.0
C548 C 0.71775 0.18403 0.91755 0.0
C549 C 0.69784 0.20103 0.94705 0.0
C550 C 0.69565 0.17314 0.95378 0.0
C551 C 0.70368 0.15061 0.94196 0.0
C552 C 0.71454 0.15601 0.92392 0.0
C553 C 0.68847 0.16828 0.97391 0.0
C554 C 0.70858 0.15454 0.98526 0.0
C555 C 0.66462 0.18123 0.98246 0.0
C556 C 0.64138 0.19359 0.97092 0.0
C557 C 0.6291 0.17781 0.95619 0.0
C558 C 0.60761 0.18958 0.9451 0.0
C559 C 0.59814 0.21712 0.9486 0.0
C560 C 0.61004 0.2329 0.96328 0.0
C561 C 0.63152 0.22122 0.97444 0.0
H562 H 0.58157 0.22624 0.93997 0.0
H563 H 0.79127 0.11002 0.0457 0.0
H564 H 0.82317 0.73996 0.93823 0.0
H565 H 0.82548 0.73165 0.97212 0.0
H566 H 0.8441 0.6434 0.96223 0.0
H567 H 0.84173 0.65144 0.92818 0.0
H568 H 0.80026 0.65064 0.98637 0.0
H569 H 0.8943 0.68468 0.98102 0.0
H570 H 0.93285 0.71657 0.97104 0.0
H571 H 0.89575 0.78462 0.00277 0.0
H572 H 0.8567 0.75329 0.01272 0.0
H573 H 0.79479 0.63423 0.08514 0.0
H574 H 0.81712 0.63354 0.05398 0.0
H575 H 0.80403 0.72373 0.04894 0.0
H576 H 0.78258 0.72469 0.08028 0.0
H577 H 0.85384 0.70804 0.03291 0.0
H578 H 0.75549 0.67692 0.0318 0.0
H579 H 0.71579 0.64604 0.04128 0.0
H580 H 0.761 0.57316 0.02099 0.0
H581 H 0.80113 0.60362 0.0116 0.0
C582 C 0.82808 0.71882 0.9432 0.0
C583 C 0.83209 0.69633 0.93047 0.0
C584 C 0.82963 0.71416 0.96261 0.0
C585 C 0.83523 0.68696 0.96967 0.0
C586 C 0.83991 0.66458 0.95703 0.0
C587 C 0.83854 0.66924 0.93758 0.0
C588 C 0.8333 0.6816 0.99021 0.0
C589 C 0.81253 0.66263 0.99656 0.0
C590 C 0.84898 0.69763 0.00346 0.0
C591 C 0.87244 0.71663 0.99753 0.0
C592 C 0.89422 0.70651 0.98576 0.0
C593 C 0.91619 0.72448 0.98012 0.0
C594 C 0.91673 0.75261 0.98625 0.0
C595 C 0.8953 0.76282 0.99804 0.0
C596 C 0.87326 0.74494 0.00371 0.0
C597 C 0.79734 0.65401 0.07759 0.0
C598 C 0.78685 0.6795 0.08509 0.0
C599 C 0.80998 0.65356 0.05976 0.0
C600 C 0.81186 0.67852 0.04906 0.0
C601 C 0.80281 0.70422 0.05697 0.0
C602 C 0.79035 0.70471 0.07482 0.0
C603 C 0.82033 0.67767 0.02895 0.0
C604 C 0.84218 0.69552 0.0227 0.0
C605 C 0.80558 0.66073 0.01572 0.0
C606 C 0.7814 0.64247 0.02122 0.0
C607 C 0.75702 0.65428 0.02948 0.0
C608 C 0.73444 0.63687 0.03482 0.0
C609 C 0.73591 0.60764 0.0318 0.0
C610 C 0.75992 0.59579 0.02337 0.0
C611 C 0.78258 0.61311 0.01803 0.0
H612 H 0.71841 0.59419 0.03595 0.0
H613 H 0.93376 0.76649 0.98187 0.0
H614 H 0.29212 0.84507 0.9176 0.0
H615 H 0.30671 0.8488 0.95075 0.0
H616 H 0.32642 0.75949 0.95134 0.0
H617 H 0.31136 0.75561 0.91855 0.0
H618 H 0.28971 0.77154 0.97767 0.0
H619 H 0.37751 0.80902 0.95705 0.0
H620 H 0.40921 0.84058 0.93911 0.0
H621 H 0.3771 0.91249 0.96947 0.0
H622 H 0.34469 0.88145 0.9873 0.0
H623 H 0.35402 0.79291 0.07488 0.0
H624 H 0.36098 0.79685 0.04068 0.0
H625 H 0.27409 0.82333 0.03418 0.0
H626 H 0.26685 0.81939 0.06812 0.0
H627 H 0.35145 0.84011 0.01124 0.0
H628 H 0.24617 0.77966 0.00156 0.0
H629 H 0.21623 0.74599 0.01923 0.0
H630 H 0.28952 0.71472 0.04849 0.0
H631 H 0.31994 0.74782 0.03075 0.0
C632 C 0.30032 0.82647 0.9247 0.0
C633 C 0.30026 0.79998 0.91566 0.0
C634 C 0.30871 0.8286 0.94361 0.0
C635 C 0.31745 0.80435 0.95357 0.0
C636 C 0.31951 0.77842 0.944 0.0
C637 C 0.31091 0.77623 0.92526 0.0
C638 C 0.32053 0.80493 0.9744 0.0
C639 C 0.30342 0.78643 0.98492 0.0
C640 C 0.33864 0.82412 0.98392 0.0
C641 C 0.35844 0.84288 0.97343 0.0
C642 C 0.37701 0.83159 0.95981 0.0
C643 C 0.39514 0.84939 0.94966 0.0
C644 C 0.39514 0.87853 0.95313 0.0
C645 C 0.37705 0.88991 0.96679 0.0
C646 C 0.3588 0.87221 0.97693 0.0
C647 C 0.33653 0.80004 0.0662 0.0
C648 C 0.30973 0.80537 0.0742 0.0
C649 C 0.34064 0.80249 0.04669 0.0
C650 C 0.318 0.8102 0.03494 0.0
C651 C 0.29179 0.81724 0.04303 0.0
C652 C 0.28766 0.8148 0.06245 0.0
C653 C 0.32019 0.80715 0.01419 0.0
C654 C 0.33808 0.82513 0.0038 0.0
C655 C 0.3033 0.78704 0.00463 0.0
C656 C 0.28527 0.76642 0.01495 0.0
C657 C 0.25591 0.76547 0.01168 0.0
C658 C 0.23886 0.7465 0.02172 0.0
C659 C 0.25095 0.72829 0.03502 0.0
C660 C 0.28016 0.72889 0.03823 0.0
C661 C 0.29731 0.74777 0.02819 0.0
H662 H 0.23771 0.71368 0.04281 0.0
H663 H 0.40919 0.89228 0.94525 0.0
H664 H 0.20928 0.74341 0.43879 0.0
H665 H 0.19221 0.73751 0.47089 0.0
H666 H 0.17158 0.65019 0.45916 0.0
H667 H 0.18987 0.6557 0.42702 0.0
H668 H 0.14591 0.72457 0.48899 0.0
H669 H 0.18515 0.61139 0.4986 0.0
H670 H 0.21827 0.5772 0.48409 0.0
H671 H 0.27167 0.64565 0.46595 0.0
H672 H 0.239 0.68016 0.48052 0.0
H673 H 0.14001 0.71098 0.58905 0.0
H674 H 0.13119 0.69588 0.55641 0.0
H675 H 0.22138 0.69382 0.54621 0.0
H676 H 0.23018 0.70729 0.57863 0.0
H677 H 0.19909 0.65409 0.52696 0.0
H678 H 0.17553 0.75512 0.53698 0.0
H679 H 0.1474 0.79319 0.55185 0.0
H680 H 0.07068 0.75536 0.53117 0.0
H681 H 0.09842 0.717 0.51627 0.0
C682 C 0.20088 0.72298 0.44291 0.0
C683 C 0.20139 0.69989 0.43039 0.0
C684 C 0.19087 0.71969 0.4613 0.0
C685 C 0.18094 0.6933 0.46761 0.0
C686 C 0.17958 0.67065 0.45475 0.0
C687 C 0.18995 0.67385 0.43634 0.0
C688 C 0.17497 0.68935 0.48807 0.0
C689 C 0.15719 0.70884 0.49727 0.0
C690 C 0.18949 0.66879 0.49897 0.0
C691 C 0.20948 0.64828 0.49042 0.0
C692 C 0.20399 0.61908 0.49154 0.0
C693 C 0.22267 0.59967 0.48331 0.0
C694 C 0.24699 0.60926 0.47404 0.0
C695 C 0.25277 0.63826 0.47307 0.0
C696 C 0.23419 0.65775 0.48131 0.0
C697 C 0.15789 0.70659 0.57993 0.0
C698 C 0.18579 0.71065 0.58638 0.0
C699 C 0.15284 0.69816 0.56123 0.0
C700 C 0.1756 0.69424 0.54865 0.0
C701 C 0.20338 0.69666 0.55552 0.0
C702 C 0.20841 0.70462 0.57413 0.0
C703 C 0.17133 0.69035 0.52797 0.0
C704 C 0.187 0.6692 0.51869 0.0
C705 C 0.15552 0.70989 0.51703 0.0
C706 C 0.13897 0.73313 0.52571 0.0
C707 C 0.15265 0.75494 0.53566 0.0
C708 C 0.13679 0.77654 0.54408 0.0
C709 C 0.10727 0.77665 0.5425 0.0
C710 C 0.09355 0.75522 0.53241 0.0
C711 C 0.10932 0.73357 0.52396 0.0
H712 H 0.09502 0.79336 0.54905 0.0
H713 H 0.2614 0.5942 0.46765 0.0
H714 H 0.29085 0.14662 0.56767 0.0
H715 H 0.31309 0.13963 0.5368 0.0
H716 H 0.30237 0.22866 0.52472 0.0
H717 H 0.28169 0.23592 0.55567 0.0
H718 H 0.29271 0.14305 0.5043 0.0
H719 H 0.34699 0.25558 0.49549 0.0
H720 H 0.37726 0.28684 0.51468 0.0
H721 H 0.4016 0.21627 0.54932 0.0
H722 H 0.37192 0.18444 0.53014 0.0
H723 H 0.26233 0.20527 0.42068 0.0
H724 H 0.27249 0.1872 0.45196 0.0
H725 H 0.36227 0.19479 0.44132 0.0
H726 H 0.35201 0.21424 0.40993 0.0
H727 H 0.35275 0.21579 0.47343 0.0
H728 H 0.33111 0.12843 0.44879 0.0
H729 H 0.30761 0.09187 0.42956 0.0
H730 H 0.23144 0.10159 0.46207 0.0
H731 H 0.25422 0.13865 0.48126 0.0
C732 C 0.294 0.16481 0.55861 0.0
C733 C 0.28468 0.19187 0.56419 0.0
C734 C 0.30657 0.16075 0.54091 0.0
C735 C 0.30987 0.18365 0.52843 0.0
C736 C 0.30094 0.21072 0.5342 0.0
C737 C 0.28877 0.21483 0.5519 0.0
C738 C 0.31964 0.17936 0.50867 0.0
C739 C 0.30619 0.15867 0.49759 0.0
C740 C 0.33878 0.19843 0.49997 0.0
C741 C 0.35712 0.21756 0.51133 0.0
C742 C 0.359 0.24662 0.50706 0.0
C743 C 0.37602 0.26448 0.51798 0.0
C744 C 0.39133 0.25355 0.53321 0.0
C745 C 0.3897 0.22472 0.53753 0.0
C746 C 0.37276 0.20677 0.52664 0.0
C747 C 0.28427 0.20269 0.42482 0.0
C748 C 0.30636 0.21117 0.41283 0.0
C749 C 0.29011 0.19201 0.44271 0.0
C750 C 0.31821 0.18912 0.449 0.0
C751 C 0.34044 0.19666 0.43679 0.0
C752 C 0.33456 0.20764 0.41883 0.0
C753 C 0.32351 0.18136 0.46903 0.0
C754 C 0.34 0.1996 0.48018 0.0
C755 C 0.30846 0.15901 0.47783 0.0
C756 C 0.29447 0.13641 0.46652 0.0
C757 C 0.3093 0.1229 0.45181 0.0
C758 C 0.29609 0.10207 0.4409 0.0
C759 C 0.26806 0.09439 0.44461 0.0
C760 C 0.25318 0.10752 0.45925 0.0
C761 C 0.26627 0.12842 0.47018 0.0
H762 H 0.25786 0.07827 0.43614 0.0
H763 H 0.40446 0.26743 0.54165 0.0
H764 H 0.7625 0.32848 0.58732 0.0
H765 H 0.76578 0.34299 0.55423 0.0
H766 H 0.837 0.28666 0.54653 0.0
H767 H 0.83471 0.27362 0.57997 0.0
H768 H 0.8432 0.32907 0.52377 0.0
H769 H 0.76623 0.26605 0.53787 0.0
H770 H 0.72312 0.25019 0.55447 0.0
H771 H 0.67824 0.32347 0.53452 0.0
H772 H 0.72124 0.33996 0.518 0.0
H773 H 0.81523 0.28207 0.4294 0.0
H774 H 0.82106 0.28604 0.46359 0.0
H775 H 0.76708 0.35976 0.46405 0.0
H776 H 0.76157 0.35632 0.4297 0.0
H777 H 0.75227 0.31382 0.49009 0.0
H778 H 0.83144 0.37172 0.47188 0.0
H779 H 0.87526 0.38226 0.45429 0.0
H780 H 0.91682 0.31176 0.48078 0.0
H781 H 0.87309 0.3005 0.49831 0.0
C782 C 0.77941 0.32002 0.57865 0.0
C783 C 0.7985 0.30016 0.58607 0.0
C784 C 0.78114 0.32806 0.55972 0.0
C785 C 0.80108 0.31526 0.54768 0.0
C786 C 0.82135 0.29678 0.55546 0.0
C787 C 0.82012 0.28937 0.57456 0.0
C788 C 0.79894 0.31876 0.52685 0.0
C789 C 0.82334 0.32561 0.51643 0.0
C790 C 0.77299 0.3144 0.51715 0.0
C791 C 0.74702 0.30438 0.52688 0.0
C792 C 0.74721 0.27885 0.53711 0.0
C793 C 0.7228 0.26975 0.54651 0.0
C794 C 0.69798 0.28586 0.5456 0.0
C795 C 0.6975 0.31105 0.53524 0.0
C796 C 0.72187 0.32028 0.52586 0.0
C797 C 0.80475 0.29926 0.43674 0.0
C798 C 0.78783 0.31882 0.42687 0.0
C799 C 0.80824 0.30158 0.45625 0.0
C800 C 0.79461 0.32326 0.46629 0.0
C801 C 0.77786 0.34296 0.4565 0.0
C802 C 0.77477 0.34097 0.43691 0.0
C803 C 0.79644 0.32409 0.48714 0.0
C804 C 0.77199 0.31777 0.49751 0.0
C805 C 0.82244 0.3282 0.49667 0.0
C806 C 0.84888 0.33512 0.4863 0.0
C807 C 0.84984 0.35831 0.47385 0.0
C808 C 0.87468 0.36445 0.4639 0.0
C809 C 0.89879 0.34765 0.46638 0.0
C810 C 0.89812 0.32474 0.47886 0.0
C811 C 0.87332 0.31849 0.48882 0.0
H812 H 0.918 0.35243 0.45867 0.0
H813 H 0.67911 0.27878 0.55289 0.0
H814 H 0.7458 0.80859 0.4197 0.0
H815 H 0.73935 0.82754 0.45125 0.0
H816 H 0.64951 0.83585 0.44116 0.0
H817 H 0.65565 0.81505 0.40984 0.0
H818 H 0.72143 0.87149 0.46935 0.0
H819 H 0.61439 0.8188 0.48049 0.0
H820 H 0.58421 0.78158 0.46648 0.0
H821 H 0.65834 0.73629 0.44836 0.0
H822 H 0.68889 0.77313 0.4624 0.0
H823 H 0.69747 0.87947 0.56972 0.0
H824 H 0.68924 0.88452 0.53573 0.0
H825 H 0.70345 0.79483 0.52839 0.0
H826 H 0.71091 0.78953 0.56212 0.0
H827 H 0.65945 0.81043 0.50861 0.0
H828 H 0.75518 0.84613 0.519 0.0
H829 H 0.79044 0.87858 0.53291 0.0
H830 H 0.7473 0.9498 0.50845 0.0
H831 H 0.7116 0.91774 0.49457 0.0
C832 C 0.72466 0.81471 0.42406 0.0
C833 C 0.70113 0.8098 0.41238 0.0
C834 C 0.72105 0.82586 0.44209 0.0
C835 C 0.69387 0.83264 0.44874 0.0
C836 C 0.67062 0.8302 0.43648 0.0
C837 C 0.67416 0.81839 0.41854 0.0
C838 C 0.68998 0.83838 0.46915 0.0
C839 C 0.70752 0.85848 0.47792 0.0
C840 C 0.67192 0.82138 0.48039 0.0
C841 C 0.65383 0.79883 0.47228 0.0
C842 C 0.62419 0.80084 0.47356 0.0
C843 C 0.60705 0.77984 0.4656 0.0
C844 C 0.61935 0.75664 0.45647 0.0
C845 C 0.64884 0.7543 0.45538 0.0
C846 C 0.66607 0.77522 0.46333 0.0
C847 C 0.69885 0.86087 0.56082 0.0
C848 C 0.70484 0.83409 0.56859 0.0
C849 C 0.69412 0.86379 0.54143 0.0
C850 C 0.69575 0.84006 0.52952 0.0
C851 C 0.70178 0.8134 0.53732 0.0
C852 C 0.70619 0.81042 0.55662 0.0
C853 C 0.69198 0.84247 0.50884 0.0
C854 C 0.67272 0.8241 0.50003 0.0
C855 C 0.70914 0.8604 0.49764 0.0
C856 C 0.73055 0.87962 0.50598 0.0
C857 C 0.75311 0.86873 0.51672 0.0
C858 C 0.77319 0.88704 0.52457 0.0
C859 C 0.77105 0.91624 0.52162 0.0
C860 C 0.74888 0.92719 0.51076 0.0
C861 C 0.72873 0.90897 0.5029 0.0
H862 H 0.78661 0.93039 0.52771 0.0
H863 H 0.60604 0.74045 0.45028 0.0
H864 H 0.28955 0.96441 0.10521 0.0
H865 H 0.2725 0.01293 0.1098 0.0
H866 H 0.28425 0.00427 0.16988 0.0
H867 H 0.30049 0.95529 0.16528 0.0
H868 H 0.24013 0.04058 0.16187 0.0
H869 H 0.33696 0.02866 0.14394 0.0
H870 H 0.37594 0.00982 0.12445 0.0
H871 H 0.34358 0.05433 0.07621 0.0
H872 H 0.30403 0.07298 0.09534 0.0
H873 H 0.27945 0.18758 0.17876 0.0
H874 H 0.27744 0.13566 0.17708 0.0
H875 H 0.25448 0.14071 0.11833 0.0
H876 H 0.2559 0.19239 0.11992 0.0
H877 H 0.30306 0.10612 0.12658 0.0
H878 H 0.20644 0.11964 0.14675 0.0
H879 H 0.16873 0.13749 0.16769 0.0
H880 H 0.20391 0.09055 0.214 0.0
H881 H 0.2421 0.07273 0.19338 0.0
C882 C 0.28731 0.97252 0.11943 0.0
C883 C 0.29618 0.95624 0.13491 0.0
C884 C 0.2778 1.00028 0.12205 0.0
C885 C 0.27774 0.01246 0.14015 0.0
C886 C 0.28418 0.99535 0.1558 0.0
C887 C 0.29336 0.96737 0.15318 0.0
C888 C 0.27494 0.04371 0.14233 0.0
C889 C 0.25401 0.05492 0.15428 0.0
C890 C 0.29313 0.06247 0.13247 0.0
C891 C 0.31737 0.05201 0.12104 0.0
C892 C 0.33807 0.03432 0.12915 0.0
C893 C 0.36026 0.02366 0.11817 0.0
C894 C 0.3622 0.03083 0.0991 0.0
C895 C 0.34202 0.04877 0.09099 0.0
C896 C 0.3197 0.05939 0.10189 0.0
C897 C 0.2735 0.17764 0.16557 0.0
C898 C 0.26794 0.19417 0.14946 0.0
C899 C 0.27232 0.14798 0.16465 0.0
C900 C 0.26587 0.13436 0.14756 0.0
C901 C 0.25951 0.15081 0.13164 0.0
C902 C 0.26025 0.18039 0.13262 0.0
C903 C 0.2679 0.10305 0.14583 0.0
C904 C 0.28901 0.09181 0.13407 0.0
C905 C 0.25024 0.0844 0.15615 0.0
C906 C 0.22732 0.09511 0.16857 0.0
C907 C 0.20631 0.11335 0.16144 0.0
C908 C 0.18481 0.12341 0.17325 0.0
C909 C 0.18398 0.11523 0.19218 0.0
C910 C 0.20461 0.09691 0.19934 0.0
C911 C 0.22618 0.0868 0.18759 0.0
H912 H 0.1673 0.12303 0.20129 0.0
H913 H 0.37937 0.02251 0.09061 0.0
H914 H 0.04551 0.32376 0.07406 0.0
H915 H 1.00142 0.29654 0.07546 0.0
H916 H 0.02948 0.25707 0.12709 0.0
H917 H 0.07398 0.28394 0.12542 0.0
H918 H 0.99698 0.22081 0.1067 0.0
H919 H 0.99134 0.31587 0.12842 0.0
H920 H 0.99638 0.36782 0.1273 0.0
H921 H 0.9372 0.37184 0.08139 0.0
H922 H 0.93241 0.31979 0.08185 0.0
H923 H 0.85742 0.20287 0.1474 0.0
H924 H 0.90686 0.21519 0.14072 0.0
H925 H 0.88273 0.24513 0.08556 0.0
H926 H 0.83338 0.23255 0.09198 0.0
H927 H 0.9135 0.28481 0.10792 0.0
H928 H 0.91967 0.18716 0.08796 0.0
H929 H 0.9143 0.13557 0.09212 0.0
H930 H 0.97136 0.1377 0.13928 0.0
H931 H 0.97677 0.1894 0.13556 0.0
C932 C 0.04267 0.30843 0.08528 0.0
C933 C 0.06304 0.3058 0.09961 0.0
C934 C 0.01741 0.29309 0.08618 0.0
C935 C 0.01185 0.2753 0.10163 0.0
C936 C 0.03326 0.27077 0.11509 0.0
C937 C 0.05872 0.28597 0.11409 0.0
C938 C 0.98277 0.2641 0.10477 0.0
C939 C 0.97876 0.23482 0.10709 0.0
C940 C 0.95893 0.28242 0.10536 0.0
C941 C 0.96183 0.31381 0.10499 0.0
C942 C 0.97966 0.32776 0.11792 0.0
C943 C 0.98245 0.35725 0.11742 0.0
C944 C 0.96718 0.37312 0.10425 0.0
C945 C 0.94908 0.35951 0.09155 0.0
C946 C 0.94637 0.33 0.09189 0.0
C947 C 0.86272 0.21158 0.13371 0.0
C948 C 0.84145 0.21676 0.12023 0.0
C949 C 0.89098 0.21858 0.12992 0.0
C950 C 0.89842 0.23108 0.11265 0.0
C951 C 0.8774 0.23548 0.09896 0.0
C952 C 0.84923 0.22814 0.10264 0.0
C953 C 0.92768 0.24153 0.10939 0.0
C954 C 0.93172 0.2708 0.10728 0.0
C955 C 0.95149 0.2233 0.10943 0.0
C956 C 0.94842 0.19219 0.11159 0.0
C957 C 0.93089 0.17667 0.09932 0.0
C958 C 0.92788 0.1474 0.10157 0.0
C959 C 0.94242 0.13337 0.11598 0.0
C960 C 0.96009 0.14859 0.12813 0.0
C961 C 0.96316 0.17787 0.12594 0.0
H962 H 0.94006 0.11071 0.11771 0.0
H963 H 0.9693 0.39595 0.10392 0.0
H964 H 0.75065 0.79526 0.18628 0.0
H965 H 0.75345 0.84703 0.18557 0.0
H966 H 0.77203 0.84427 0.126 0.0
H967 H 0.77014 0.79271 0.12671 0.0
H968 H 0.7985 0.88802 0.14134 0.0
H969 H 0.70451 0.84929 0.14231 0.0
H970 H 0.66519 0.82063 0.15494 0.0
H971 H 0.6643 0.87108 0.20535 0.0
H972 H 0.70427 0.89952 0.19324 0.0
H973 H 0.71569 0.99957 0.10139 0.0
H974 H 0.74223 0.95776 0.11171 0.0
H975 H 0.73248 0.98386 0.16966 0.0
H976 H 0.7063 0.02599 0.15929 0.0
H977 H 0.70725 0.93163 0.16051 0.0
H978 H 0.79716 0.97677 0.15379 0.0
H979 H 0.83386 0.00489 0.1376 0.0
H980 H 0.8384 0.94267 0.09351 0.0
H981 H 0.80142 0.91436 0.10928 0.0
C982 C 0.75597 0.80565 0.17313 0.0
C983 C 0.75962 0.78988 0.15648 0.0
C984 C 0.75755 0.83526 0.17274 0.0
C985 C 0.76232 0.84958 0.15564 0.0
C986 C 0.76822 0.83375 0.13935 0.0
C987 C 0.76695 0.80419 0.13977 0.0
C988 C 0.75768 0.88066 0.15407 0.0
C989 C 0.77859 0.89761 0.14557 0.0
C990 C 0.73176 0.89325 0.1597 0.0
C991 C 0.70765 0.87626 0.167 0.0
C992 C 0.69612 0.8541 0.15617 0.0
C993 C 0.67371 0.8379 0.16323 0.0
C994 C 0.66224 0.84402 0.18094 0.0
C995 C 0.67324 0.86632 0.19165 0.0
C996 C 0.69584 0.88244 0.18472 0.0
C997 C 0.72045 0.99703 0.11624 0.0
C998 C 0.70918 0.01597 0.12956 0.0
C999 C 0.73554 0.97315 0.12215 0.0
C1000 C 0.73926 0.9677 0.14146 0.0
C1001 C 0.72996 0.98779 0.1547 0.0
C1002 C 0.71522 0.01192 0.14877 0.0
C1003 C 0.74795 0.93899 0.14767 0.0
C1004 C 0.72756 0.92232 0.15685 0.0
C1005 C 0.77398 0.92663 0.14218 0.0
C1006 C 0.79637 0.9435 0.13269 0.0
C1007 C 0.80582 0.96917 0.14057 0.0
C1008 C 0.82671 0.98513 0.13148 0.0
C1009 C 0.83843 0.97559 0.11453 0.0
C1010 C 0.82931 0.95003 0.10665 0.0
C1011 C 0.80842 0.93399 0.11568 0.0
H1012 H 0.85459 0.98799 0.10751 0.0
H1013 H 0.6448 0.83153 0.18633 0.0
H1014 H 0.15992 0.83467 0.14049 0.0
H1015 H 0.10828 0.82843 0.14088 0.0
H1016 H 0.11708 0.75238 0.10758 0.0
H1017 H 0.16808 0.75877 0.10674 0.0
H1018 H 0.07211 0.77956 0.09659 0.0
H1019 H 0.11333 0.75119 0.15585 0.0
H1020 H 0.14061 0.75872 0.18505 0.0
H1021 H 0.08111 0.82226 0.20278 0.0
H1022 H 0.05388 0.81564 0.17335 0.0
H1023 H 0.97746 0.68009 0.15036 0.0
H1024 H 0.01569 0.71448 0.15162 0.0
H1025 H 0.97056 0.7682 0.11253 0.0
H1026 H 0.9328 0.73265 0.11031 0.0
H1027 H 0.02853 0.7653 0.15956 0.0
H1028 H 0.0174 0.79654 0.08173 0.0
H1029 H 0.99513 0.77924 0.05238 0.0
H1030 H 1.00141 0.69354 0.07233 0.0
H1031 H 0.024 0.71033 0.10166 0.0
C1032 C 0.15075 0.81689 0.13301 0.0
C1033 C 0.16815 0.79705 0.12376 0.0
C1034 C 0.12126 0.81333 0.13328 0.0
C1035 C 0.10881 0.78978 0.12442 0.0
C1036 C 0.12612 0.77078 0.11446 0.0
C1037 C 0.1554 0.77437 0.11412 0.0
C1038 C 0.07822 0.78313 0.1266 0.0
C1039 C 0.06239 0.77697 0.11036 0.0
C1040 C 0.06562 0.77932 0.14456 0.0
C1041 C 0.08182 0.78323 0.16229 0.0
C1042 C 0.1062 0.76695 0.1659 0.0
C1043 C 0.12164 0.77102 0.1825 0.0
C1044 C 0.11261 0.79095 0.19578 0.0
C1045 C 0.08812 0.80687 0.19246 0.0
C1046 C 0.07271 0.80302 0.1758 0.0
C1047 C 0.9755 0.69938 0.14217 0.0
C1048 C 0.95257 0.70326 0.12978 0.0
C1049 C 0.99726 0.71925 0.14308 0.0
C1050 C 0.99644 0.74367 0.1318 0.0
C1051 C 0.97199 0.74919 0.12103 0.0
C1052 C 0.9503 0.72898 0.11989 0.0
C1053 C 0.02278 0.76069 0.12955 0.0
C1054 C 0.0378 0.76894 0.14577 0.0
C1055 C 0.03525 0.76506 0.11159 0.0
C1056 C 0.02197 0.75474 0.09395 0.0
C1057 C 0.01404 0.77402 0.07981 0.0
C1058 C 1.00138 0.7643 0.06319 0.0
C1059 C 0.99674 0.73532 0.06053 0.0
C1060 C 0.00491 0.71598 0.07443 0.0
C1061 C 0.01763 0.72558 0.09105 0.0
H1062 H 0.9869 0.72785 0.04767 0.0
H1063 H 0.12456 0.79401 0.20865 0.0
H1064 H 0.34336 0.01564 0.35955 0.0
H1065 H 0.31438 0.97432 0.3539 0.0
H1066 H 0.24 0.0205 0.37163 0.0
H1067 H 0.2697 0.06156 0.37916 0.0
H1068 H 0.23615 0.97248 0.38577 0.0
H1069 H 0.25281 0.99956 0.32332 0.0
H1070 H 0.279 0.01614 0.29532 0.0
H1071 H 0.32973 0.9406 0.29609 0.0
H1072 H 0.30416 0.92373 0.32425 0.0
H1073 H 0.20956 0.82551 0.33219 0.0
H1074 H 0.21239 0.87741 0.33125 0.0
H1075 H 0.24453 0.8776 0.38829 0.0
H1076 H 0.2403 0.82646 0.38956 0.0
H1077 H 0.25413 0.90899 0.33132 0.0
H1078 H 0.23663 0.93605 0.41156 0.0
H1079 H 0.2041 0.92215 0.43714 0.0
H1080 H 0.14275 0.89453 0.39638 0.0
H1081 H 0.1747 0.90865 0.37053 0.0
C1082 C 0.3209 0.0171 0.36252 0.0
C1083 C 0.30906 0.04195 0.3702 0.0
C1084 C 0.30412 0.99348 0.35882 0.0
C1085 C 0.27475 0.99424 0.36192 0.0
C1086 C 0.26258 0.01931 0.36902 0.0
C1087 C 0.27957 0.04291 0.37316 0.0
C1088 C 0.25757 0.96803 0.35908 0.0
C1089 C 0.23981 0.95876 0.37374 0.0
C1090 C 0.2611 0.9505 0.343 0.0
C1091 C 0.27655 0.96041 0.32596 0.0
C1092 C 0.26964 0.98654 0.31758 0.0
C1093 C 0.28438 0.99599 0.30167 0.0
C1094 C 0.30602 0.97944 0.29394 0.0
C1095 C 0.31294 0.95338 0.30208 0.0
C1096 C 0.29828 0.94383 0.318 0.0
C1097 C 0.21649 0.83681 0.34466 0.0
C1098 C 0.22464 0.82191 0.36095 0.0
C1099 C 0.21823 0.86646 0.34411 0.0
C1100 C 0.22836 0.88172 0.35978 0.0
C1101 C 0.23576 0.86671 0.37618 0.0
C1102 C 0.23352 0.83727 0.37686 0.0
C1103 C 0.23423 0.91274 0.35857 0.0
C1104 C 0.24984 0.92295 0.34312 0.0
C1105 C 0.22764 0.93157 0.37353 0.0
C1106 C 0.20817 0.92333 0.38907 0.0
C1107 C 0.21612 0.92722 0.40803 0.0
C1108 C 0.19779 0.91924 0.42259 0.0
C1109 C 0.17139 0.90743 0.41839 0.0
C1110 C 0.16323 0.90362 0.39962 0.0
C1111 C 0.18147 0.91157 0.385 0.0
H1112 H 0.15725 0.90125 0.42968 0.0
H1113 H 0.31741 0.9868 0.28162 0.0
H1114 H 0.16931 0.27213 0.35509 0.0
H1115 H 0.11791 0.2781 0.35642 0.0
H1116 H 0.10978 0.19741 0.38434 0.0
H1117 H 0.16152 0.19145 0.38345 0.0
H1118 H 0.06705 0.21013 0.35392 0.0
H1119 H 0.1041 0.24528 0.4121 0.0
H1120 H 0.13603 0.27258 0.43276 0.0
H1121 H 0.11009 0.34983 0.4058 0.0
H1122 H 0.07814 0.3229 0.38483 0.0
H1123 H 0.94171 0.29394 0.40483 0.0
H1124 H 0.98673 0.26809 0.40475 0.0
H1125 H 0.98688 0.26911 0.34387 0.0
H1126 H 0.94135 0.29407 0.34406 0.0
H1127 H 0.03316 0.28982 0.39363 0.0
H1128 H 0.03225 0.21992 0.32596 0.0
H1129 H 0.99902 0.1895 0.30833 0.0
H1130 H 0.95053 0.17571 0.35876 0.0
H1131 H 0.98367 0.2057 0.37675 0.0
C1132 C 0.15665 0.25542 0.36131 0.0
C1133 C 0.16959 0.23133 0.36923 0.0
C1134 C 0.12724 0.25891 0.36207 0.0
C1135 C 0.11004 0.23823 0.3705 0.0
C1136 C 0.12268 0.21357 0.37771 0.0
C1137 C 0.15224 0.21026 0.37725 0.0
C1138 C 0.07919 0.24358 0.37287 0.0
C1139 C 0.0595 0.22747 0.36262 0.0
C1140 C 0.06936 0.26575 0.38457 0.0
C1141 C 0.08893 0.28205 0.39681 0.0
C1142 C 0.10543 0.26805 0.41044 0.0
C1143 C 0.12345 0.28346 0.42224 0.0
C1144 C 0.12505 0.31291 0.42061 0.0
C1145 C 0.10877 0.32701 0.40707 0.0
C1146 C 0.09067 0.31169 0.39524 0.0
C1147 C 0.95077 0.2874 0.39147 0.0
C1148 C 0.93788 0.29548 0.37446 0.0
C1149 C 0.97667 0.27295 0.3914 0.0
C1150 C 0.99044 0.26663 0.37431 0.0
C1151 C 0.97663 0.2732 0.35726 0.0
C1152 C 0.9505 0.28737 0.35735 0.0
C1153 C 0.02055 0.25672 0.37438 0.0
C1154 C 0.04034 0.27222 0.38501 0.0
C1155 C 0.03025 0.2336 0.36332 0.0
C1156 C 0.01034 0.21528 0.35266 0.0
C1157 C 0.01458 0.21029 0.33331 0.0
C1158 C 0.99574 0.19314 0.32325 0.0
C1159 C 0.97263 0.18075 0.33241 0.0
C1160 C 0.96837 0.18541 0.35166 0.0
C1161 C 0.98715 0.20252 0.36179 0.0
H1162 H 0.95807 0.16749 0.32459 0.0
H1163 H 0.13878 0.32478 0.42991 0.0
H1164 H 0.68768 0.99942 0.34558 0.0
H1165 H 0.72214 0.03743 0.34405 0.0
H1166 H 0.77981 0.98879 0.37852 0.0
H1167 H 0.74424 0.95123 0.38123 0.0
H1168 H 0.77839 0.03785 0.39181 0.0
H1169 H 0.79511 0.0063 0.33054 0.0
H1170 H 0.78515 0.98812 0.29863 0.0
H1171 H 0.74151 0.06522 0.28482 0.0
H1172 H 0.75079 0.08373 0.31673 0.0
H1173 H 0.83305 0.18282 0.34642 0.0
H1174 H 0.83242 0.13085 0.346 0.0
H1175 H 0.76739 0.13115 0.38885 0.0
H1176 H 0.76871 0.1824 0.38985 0.0
H1177 H 0.7932 0.09799 0.3353 0.0
H1178 H 0.76416 0.07521 0.41469 0.0
H1179 H 0.77985 0.09107 0.44611 0.0
H1180 H 0.8595 0.11782 0.42288 0.0
H1181 H 0.84451 0.10173 0.39135 0.0
C1182 C 0.70771 0.9967 0.35283 0.0
C1183 C 0.71296 0.97244 0.3638 0.0
C1184 C 0.72772 0.01831 0.35164 0.0
C1185 C 0.75389 0.01596 0.36094 0.0
C1186 C 0.75983 0.99112 0.37116 0.0
C1187 C 0.73955 0.96955 0.37258 0.0
C1188 C 0.77318 0.0409 0.36167 0.0
C1189 C 0.78203 0.05078 0.37941 0.0
C1190 C 0.77927 0.05728 0.34542 0.0
C1191 C 0.77367 0.04641 0.32609 0.0
C1192 C 0.78326 0.01934 0.32074 0.0
C1193 C 0.77774 0.00898 0.30264 0.0
C1194 C 0.76271 0.02551 0.28971 0.0
C1195 C 0.7532 0.05246 0.29485 0.0
C1196 C 0.75865 0.06293 0.31293 0.0
C1197 C 0.81913 0.17171 0.35606 0.0
C1198 C 0.80087 0.18679 0.36812 0.0
C1199 C 0.81874 0.14201 0.35577 0.0
C1200 C 0.80011 0.12692 0.36755 0.0
C1201 C 0.78256 0.14206 0.37998 0.0
C1202 C 0.78314 0.17156 0.38041 0.0
C1203 C 0.79625 0.09577 0.36559 0.0
C1204 C 0.79039 0.08469 0.34763 0.0
C1205 C 0.7939 0.07787 0.38155 0.0
C1206 C 0.80315 0.08727 0.4006 0.0
C1207 C 0.78512 0.08423 0.41628 0.0
C1208 C 0.79387 0.09334 0.43412 0.0
C1209 C 0.82064 0.10547 0.43649 0.0
C1210 C 0.83874 0.10848 0.42102 0.0
C1211 C 0.83011 0.0994 0.40315 0.0
H1212 H 0.82736 0.11252 0.45031 0.0
H1213 H 0.75844 0.01743 0.2757 0.0
H1214 H 0.02062 0.68107 0.35342 0.0
H1215 H 0.98416 0.71639 0.34717 0.0
H1216 H 0.01578 0.76766 0.39297 0.0
H1217 H 0.05209 0.73176 0.39959 0.0
H1218 H 0.96126 0.75712 0.39715 0.0
H1219 H 0.01692 0.79283 0.34707 0.0
H1220 H 0.04757 0.79119 0.31893 0.0
H1221 H 0.98047 0.75261 0.28712 0.0
H1222 H 0.94953 0.7536 0.31512 0.0
H1223 H 0.83258 0.82886 0.38208 0.0
H1224 H 0.88435 0.82554 0.38211 0.0
H1225 H 0.88027 0.75961 0.34005 0.0
H1226 H 0.82878 0.76315 0.33964 0.0
H1227 H 0.92713 0.79203 0.33517 0.0
H1228 H 0.87918 0.74349 0.38698 0.0
H1229 H 0.84827 0.74164 0.41503 0.0
H1230 H 0.90166 0.80193 0.44322 0.0
H1231 H 0.93268 0.80438 0.4152 0.0
C1232 C 0.02013 0.70014 0.36193 0.0
C1233 C 0.03893 0.70356 0.37712 0.0
C1234 C 0.99948 0.7205 0.35821 0.0
C1235 C 0.99733 0.74484 0.36951 0.0
C1236 C 0.01716 0.74912 0.38402 0.0
C1237 C 0.03793 0.72868 0.38774 0.0
C1238 C 0.97188 0.76315 0.36784 0.0
C1239 C 0.95427 0.76562 0.38371 0.0
C1240 C 0.96244 0.77376 0.35024 0.0
C1241 C 0.9809 0.77325 0.33326 0.0
C1242 C 0.00873 0.78384 0.33411 0.0
C1243 C 0.02616 0.78304 0.31817 0.0
C1244 C 0.01598 0.77179 0.30125 0.0
C1245 C 0.98832 0.76135 0.30023 0.0
C1246 C 0.9708 0.76208 0.31613 0.0
C1247 C 0.84274 0.81415 0.3725 0.0
C1248 C 0.82656 0.79585 0.36114 0.0
C1249 C 0.87233 0.81227 0.37255 0.0
C1250 C 0.88611 0.79195 0.36135 0.0
C1251 C 0.87009 0.77539 0.34885 0.0
C1252 C 0.84059 0.77731 0.34874 0.0
C1253 C 0.91643 0.78499 0.36431 0.0
C1254 C 0.93476 0.78453 0.34872 0.0
C1255 C 0.92655 0.77594 0.38211 0.0
C1256 C 0.90798 0.77442 0.39894 0.0
C1257 C 0.88418 0.7565 0.39912 0.0
C1258 C 0.86667 0.75532 0.41501 0.0
C1259 C 0.87294 0.77174 0.43087 0.0
C1260 C 0.89678 0.7893 0.4309 0.0
C1261 C 0.91433 0.7906 0.41503 0.0
H1262 H 0.85936 0.77079 0.44317 0.0
H1263 H 0.02951 0.77118 0.28892 0.0
H1264 H 0.73634 0.81763 0.8967 0.0
H1265 H 0.72598 0.86822 0.89443 0.0
H1266 H 0.79447 0.87831 0.85467 0.0
H1267 H 0.80523 0.82754 0.85715 0.0
H1268 H 0.7952 0.91986 0.87926 0.0
H1269 H 0.72245 0.87796 0.84091 0.0
H1270 H 0.68288 0.84574 0.83347 0.0
H1271 H 0.63371 0.88209 0.87834 0.0
H1272 H 0.67318 0.91431 0.88616 0.0
H1273 H 0.75839 0.05564 0.84609 0.0
H1274 H 0.76696 0.00485 0.8485 0.0
H1275 H 0.70102 0.99792 0.89039 0.0
H1276 H 0.69196 0.04899 0.88785 0.0
H1277 H 0.6983 0.95488 0.86521 0.0
H1278 H 0.77049 0.99717 0.90333 0.0
H1279 H 0.80976 0.02985 0.91057 0.0
H1280 H 0.85975 0.99266 0.86641 0.0
H1281 H 0.8206 0.95999 0.85873 0.0
C1282 C 0.74914 0.83062 0.88741 0.0
C1283 C 0.77156 0.81869 0.87705 0.0
C1284 C 0.74305 0.85951 0.88603 0.0
C1285 C 0.75899 0.87704 0.87406 0.0
C1286 C 0.78169 0.86519 0.86388 0.0
C1287 C 0.78784 0.83621 0.86528 0.0
C1288 C 0.75235 0.90781 0.87255 0.0
C1289 C 0.7741 0.92747 0.87588 0.0
C1290 C 0.72459 0.91787 0.86876 0.0
C1291 C 0.70087 0.8984 0.86418 0.0
C1292 C 0.70329 0.87894 0.84926 0.0
C1293 C 0.68084 0.86074 0.84494 0.0
C1294 C 0.65575 0.86195 0.85538 0.0
C1295 C 0.65311 0.88129 0.8702 0.0
C1296 C 0.67551 0.89952 0.87458 0.0
C1297 C 0.74562 0.04339 0.85582 0.0
C1298 C 0.72458 0.05646 0.86688 0.0
C1299 C 0.75066 0.01431 0.85723 0.0
C1300 C 0.73497 0.9976 0.86984 0.0
C1301 C 0.71348 0.01042 0.88061 0.0
C1302 C 0.70836 0.03961 0.87918 0.0
C1303 C 0.74121 0.96682 0.87176 0.0
C1304 C 0.71938 0.94721 0.86856 0.0
C1305 C 0.76887 0.95677 0.87571 0.0
C1306 C 0.7925 0.97631 0.88034 0.0
C1307 C 0.78977 0.9961 0.89507 0.0
C1308 C 0.81202 0.0146 0.89927 0.0
C1309 C 0.83721 0.01338 0.88893 0.0
C1310 C 0.84022 0.9936 0.8744 0.0
C1311 C 0.81801 0.97507 0.87012 0.0
H1312 H 0.85441 0.02772 0.8922 0.0
H1313 H 0.63841 0.8478 0.85205 0.0
H1314 H 0.94959 0.68478 0.87174 0.0
H1315 H 1.00028 0.69457 0.86901 0.0
H1316 H 0.9823 0.78337 0.86089 0.0
H1317 H 0.93152 0.77363 0.86313 0.0
H1318 H 0.02199 0.76668 0.83671 0.0
H1319 H 0.00694 0.75701 0.90397 0.0
H1320 H 0.99024 0.73226 0.93255 0.0
H1321 H 0.04509 0.66204 0.92014 0.0
H1322 H 0.06192 0.6863 0.89141 0.0
H1323 H 0.16906 0.79006 0.88642 0.0
H1324 H 0.11761 0.78421 0.8865 0.0
H1325 H 0.12192 0.74474 0.83165 0.0
H1326 H 0.17345 0.75146 0.8313 0.0
H1327 H 0.08877 0.73733 0.88709 0.0
H1328 H 0.05896 0.75158 0.80903 0.0
H1329 H 0.07571 0.77746 0.78091 0.0
H1330 H 0.11028 0.84271 0.81629 0.0
H1331 H 0.09344 0.81739 0.84459 0.0
C1332 C 0.9564 0.70643 0.86949 0.0
C1333 C 0.93646 0.72845 0.86776 0.0
C1334 C 0.98544 0.71201 0.86793 0.0
C1335 C 0.99521 0.73977 0.86491 0.0
C1336 C 0.97533 0.76177 0.86318 0.0
C1337 C 0.94628 0.75619 0.86459 0.0
C1338 C 0.02611 0.74597 0.86367 0.0
C1339 C 0.03659 0.76028 0.84774 0.0
C1340 C 0.04525 0.73776 0.87805 0.0
C1341 C 0.03554 0.72339 0.8955 0.0
C1342 C 0.01535 0.73625 0.90732 0.0
C1343 C 0.00588 0.72232 0.92354 0.0
C1344 C 0.01657 0.69558 0.92814 0.0
C1345 C 0.03683 0.68276 0.91656 0.0
C1346 C 0.04639 0.69661 0.90033 0.0
C1347 C 0.15895 0.78067 0.87421 0.0
C1348 C 0.17519 0.7713 0.85883 0.0
C1349 C 0.12956 0.77714 0.87432 0.0
C1350 C 0.11575 0.76401 0.8591 0.0
C1351 C 0.13192 0.75531 0.84346 0.0
C1352 C 0.16138 0.75915 0.84325 0.0
C1353 C 0.08472 0.75827 0.86019 0.0
C1354 C 0.07422 0.74383 0.87606 0.0
C1355 C 0.06559 0.76663 0.84584 0.0
C1356 C 0.07513 0.78246 0.82892 0.0
C1357 C 0.06999 0.77153 0.81079 0.0
C1358 C 0.07955 0.78607 0.79483 0.0
C1359 C 0.09414 0.81165 0.79681 0.0
C1360 C 0.09907 0.82283 0.81477 0.0
C1361 C 0.08954 0.80839 0.83078 0.0
H1362 H 0.10158 0.82284 0.78444 0.0
H1363 H 0.00917 0.6848 0.94069 0.0
H1364 H 0.29406 0.17687 0.87275 0.0
H1365 H 0.30115 0.12565 0.87416 0.0
H1366 H 0.21182 0.11378 0.88425 0.0
H1367 H 0.20455 0.16544 0.88273 0.0
H1368 H 0.24663 0.08038 0.90799 0.0
H1369 H 0.23676 0.09973 0.84194 0.0
H1370 H 0.24716 0.12428 0.81203 0.0
H1371 H 0.3337 0.09645 0.81488 0.0
H1372 H 0.32391 0.07207 0.84497 0.0
H1373 H 0.24238 0.93234 0.88986 0.0
H1374 H 0.23504 0.98351 0.88988 0.0
H1375 H 0.32239 0.99623 0.87414 0.0
H1376 H 0.32986 0.94474 0.87392 0.0
H1377 H 0.28832 0.02945 0.85338 0.0
H1378 H 0.29911 0.01029 0.91904 0.0
H1379 H 0.28992 0.98643 0.94937 0.0
H1380 H 0.20333 0.01436 0.94786 0.0
H1381 H 0.21189 0.03807 0.91736 0.0
C1382 C 0.27587 0.16341 0.87527 0.0
C1383 C 0.2487 0.17523 0.87754 0.0
C1384 C 0.27996 0.13406 0.87602 0.0
C1385 C 0.25701 0.11572 0.87913 0.0
C1386 C 0.22987 0.12747 0.88179 0.0
C1387 C 0.2257 0.15696 0.88086 0.0
C1388 C 0.26157 0.08437 0.87944 0.0
C1389 C 0.25531 0.06916 0.89595 0.0
C1390 C 0.27372 0.06977 0.86395 0.0
C1391 C 0.27966 0.0843 0.84581 0.0
C1392 C 0.25807 0.09904 0.83627 0.0
C1393 C 0.26384 0.11289 0.81927 0.0
C1394 C 0.29109 0.11199 0.81158 0.0
C1395 C 0.31261 0.09717 0.82086 0.0
C1396 C 0.30696 0.0833 0.83789 0.0
C1397 C 0.26015 0.94594 0.88649 0.0
C1398 C 0.28677 0.93428 0.88192 0.0
C1399 C 0.25592 0.97532 0.88659 0.0
C1400 C 0.27819 0.99394 0.88219 0.0
C1401 C 0.30483 0.9824 0.87761 0.0
C1402 C 0.30912 0.95292 0.87757 0.0
C1403 C 0.27337 0.02532 0.88195 0.0
C1404 C 0.2796 0.04059 0.86544 0.0
C1405 C 0.26134 0.03998 0.8975 0.0
C1406 C 0.25607 0.02571 0.91581 0.0
C1407 C 0.27804 0.01114 0.92509 0.0
C1408 C 0.27296 0.99768 0.94233 0.0
C1409 C 0.24604 0.99881 0.95051 0.0
C1410 C 0.22416 0.01346 0.94148 0.0
C1411 C 0.22912 0.02693 0.92423 0.0
H1412 H 0.24215 0.98839 0.96386 0.0
H1413 H 0.29552 0.12272 0.79841 0.0
H1414 H 0.06836 0.25575 0.89949 0.0
H1415 H 0.01913 0.24131 0.89449 0.0
H1416 H 0.03062 0.24823 0.83432 0.0
H1417 H 0.08006 0.26238 0.83917 0.0
H1418 H 0.98061 0.27512 0.84864 0.0
H1419 H 0.02817 0.18524 0.85132 0.0
H1420 H 0.0601 0.14941 0.86508 0.0
H1421 H 0.00872 0.14628 0.91504 0.0
H1422 H 0.9767 0.18242 0.90169 0.0
H1423 H 0.84295 0.2207 0.83166 0.0
H1424 H 0.89471 0.22491 0.82953 0.0
H1425 H 0.90159 0.20593 0.88893 0.0
H1426 H 0.85023 0.20071 0.89087 0.0
H1427 H 0.94397 0.18256 0.87118 0.0
H1428 H 0.90047 0.27493 0.87166 0.0
H1429 H 0.86903 0.31304 0.86029 0.0
H1430 H 0.91279 0.31398 0.80718 0.0
H1431 H 0.94426 0.27557 0.81815 0.0
C1432 C 0.06045 0.25417 0.88519 0.0
C1433 C 0.07812 0.26014 0.86973 0.0
C1434 C 0.03236 0.24581 0.88236 0.0
C1435 C 0.02135 0.24352 0.86403 0.0
C1436 C 0.03879 0.2498 0.84856 0.0
C1437 C 0.06702 0.25779 0.85137 0.0
C1438 C 0.99144 0.235 0.86114 0.0
C1439 C 0.97263 0.25466 0.85319 0.0
C1440 C 0.98105 0.20859 0.86753 0.0
C1441 C 1.00016 0.18671 0.87555 0.0
C1442 C 0.0238 0.17708 0.8653 0.0
C1443 C 0.04189 0.15668 0.87302 0.0
C1444 C 0.03648 0.14562 0.89094 0.0
C1445 C 0.0129 0.15488 0.90117 0.0
C1446 C 0.99476 0.1753 0.89352 0.0
C1447 C 0.85567 0.21661 0.84408 0.0
C1448 C 0.84268 0.21032 0.8614 0.0
C1449 C 0.88517 0.21936 0.84293 0.0
C1450 C 0.90204 0.21627 0.85916 0.0
C1451 C 0.88909 0.20847 0.87622 0.0
C1452 C 0.85971 0.20554 0.87733 0.0
C1453 C 0.93287 0.22283 0.85888 0.0
C1454 C 0.95192 0.20284 0.86629 0.0
C1455 C 0.94343 0.24916 0.85228 0.0
C1456 C 0.92444 0.27212 0.84562 0.0
C1457 C 0.90321 0.28308 0.85749 0.0
C1458 C 0.88542 0.30477 0.85113 0.0
C1459 C 0.88884 0.31585 0.833 0.0
C1460 C 0.91011 0.30532 0.8212 0.0
C1461 C 0.92793 0.28359 0.82748 0.0
H1462 H 0.87506 0.33266 0.8281 0.0
H1463 H 0.05051 0.12983 0.8969 0.0
H1464 H 0.80399 0.17671 0.63202 0.0
H1465 H 0.80148 0.12497 0.6321 0.0
H1466 H 0.72557 0.12873 0.666 0.0
H1467 H 0.72871 0.18057 0.66656 0.0
H1468 H 0.75591 0.08369 0.67556 0.0
H1469 H 0.72237 0.1236 0.6175 0.0
H1470 H 0.72495 0.15312 0.58884 0.0
H1471 H 0.79684 0.1054 0.56955 0.0
H1472 H 0.79493 0.07584 0.59823 0.0
H1473 H 0.69622 0.95174 0.64603 0.0
H1474 H 0.70481 0.00218 0.65159 0.0
H1475 H 0.78544 0.99566 0.62327 0.0
H1476 H 0.7771 0.9452 0.61768 0.0
H1477 H 0.75336 0.04156 0.61142 0.0
H1478 H 0.78412 0.99985 0.66989 0.0
H1479 H 0.77897 0.97033 0.69838 0.0
H1480 H 0.70868 0.02131 0.71654 0.0
H1481 H 0.71316 0.05091 0.68801 0.0
C1482 C 0.78715 0.16644 0.63984 0.0
C1483 C 0.76635 0.18252 0.6491 0.0
C1484 C 0.78561 0.13691 0.63978 0.0
C1485 C 0.76287 0.123 0.64859 0.0
C1486 C 0.74318 0.13901 0.65898 0.0
C1487 C 0.74498 0.16859 0.65929 0.0
C1488 C 0.75844 0.09214 0.64574 0.0
C1489 C 0.75508 0.07452 0.66153 0.0
C1490 C 0.7576 0.08009 0.62743 0.0
C1491 C 0.75868 0.0977 0.6101 0.0
C1492 C 0.73884 0.11953 0.6072 0.0
C1493 C 0.74017 0.13625 0.59095 0.0
C1494 C 0.76109 0.13119 0.57741 0.0
C1495 C 0.78067 0.10933 0.58006 0.0
C1496 C 0.77947 0.09257 0.59631 0.0
C1497 C 0.71577 0.96103 0.64096 0.0
C1498 C 0.736 0.94447 0.63142 0.0
C1499 C 0.72071 0.98981 0.64425 0.0
C1500 C 0.74588 0.00255 0.63801 0.0
C1501 C 0.76593 0.98618 0.62826 0.0
C1502 C 0.76112 0.95736 0.62509 0.0
C1503 C 0.75104 0.03313 0.64121 0.0
C1504 C 0.75437 0.05072 0.62544 0.0
C1505 C 0.75145 0.04513 0.65951 0.0
C1506 C 0.74881 0.02743 0.67671 0.0
C1507 C 0.76742 0.00462 0.67988 0.0
C1508 C 0.76464 0.9879 0.69605 0.0
C1509 C 0.74346 0.99389 0.70924 0.0
C1510 C 0.72505 0.01667 0.7063 0.0
C1511 C 0.72772 0.03344 0.69014 0.0
H1512 H 0.74135 0.98092 0.72175 0.0
H1513 H 0.76208 0.14416 0.56483 0.0
H1514 H 0.04427 0.69397 0.61558 0.0
H1515 H 0.99354 0.70432 0.61227 0.0
H1516 H 0.00346 0.77877 0.6469 0.0
H1517 H 0.05386 0.7685 0.65039 0.0
H1518 H 0.95685 0.74998 0.65701 0.0
H1519 H 0.99733 0.78376 0.599 0.0
H1520 H 0.02532 0.77979 0.56973 0.0
H1521 H 0.96984 0.71422 0.54979 0.0
H1522 H 0.94175 0.7175 0.57909 0.0
H1523 H 0.82482 0.81693 0.63611 0.0
H1524 H 0.87593 0.80728 0.63831 0.0
H1525 H 0.86485 0.73113 0.60551 0.0
H1526 H 0.81396 0.74058 0.60339 0.0
H1527 H 0.91194 0.76089 0.59415 0.0
H1528 H 0.87455 0.72352 0.65223 0.0
H1529 H 0.84727 0.72451 0.68188 0.0
H1530 H 0.89617 0.79552 0.70117 0.0
H1531 H 0.92411 0.79462 0.6717 0.0
C1532 C 0.03564 0.71252 0.62251 0.0
C1533 C 0.05324 0.73042 0.63321 0.0
C1534 C 0.00663 0.7185 0.62054 0.0
C1535 C 0.99463 0.74253 0.62919 0.0
C1536 C 0.01212 0.76014 0.64008 0.0
C1537 C 0.04104 0.75424 0.64201 0.0
C1538 C 0.9639 0.74945 0.62698 0.0
C1539 C 0.94719 0.75274 0.64325 0.0
C1540 C 0.95095 0.75246 0.60905 0.0
C1541 C 0.9676 0.75068 0.59132 0.0
C1542 C 0.99121 0.76836 0.58843 0.0
C1543 C 0.00708 0.76625 0.57183 0.0
C1544 C 0.99941 0.74672 0.55793 0.0
C1545 C 0.97578 0.72932 0.56059 0.0
C1546 C 0.95987 0.7313 0.57718 0.0
C1547 C 0.83337 0.7983 0.62924 0.0
C1548 C 0.8154 0.77954 0.61956 0.0
C1549 C 0.86254 0.79269 0.63059 0.0
C1550 C 0.87428 0.76833 0.62218 0.0
C1551 C 0.85639 0.75004 0.61209 0.0
C1552 C 0.82727 0.75547 0.61092 0.0
C1553 C 0.90504 0.76153 0.62418 0.0
C1554 C 0.92171 0.75823 0.60789 0.0
C1555 C 0.91797 0.75838 0.64207 0.0
C1556 C 0.90118 0.7592 0.65971 0.0
C1557 C 0.87934 0.73946 0.66275 0.0
C1558 C 0.8638 0.73997 0.67953 0.0
C1559 C 0.86976 0.76025 0.69333 0.0
C1560 C 0.8915 0.77989 0.69044 0.0
C1561 C 0.9073 0.7793 0.67375 0.0
H1562 H 0.85764 0.76065 0.70629 0.0
H1563 H 0.01173 0.74511 0.5451 0.0
H1564 H 0.29285 0.06723 0.64128 0.0
H1565 H 0.281 0.01889 0.65102 0.0
H1566 H 0.23312 0.00728 0.59975 0.0
H1567 H 0.2444 0.05561 0.59011 0.0
H1568 H 0.20456 0.98688 0.62897 0.0
H1569 H 0.30032 0.97966 0.60563 0.0
H1570 H 0.35123 0.99128 0.60418 0.0
H1571 H 0.36121 0.96585 0.66196 0.0
H1572 H 0.31024 0.95445 0.66383 0.0
H1573 H 0.20263 0.83903 0.61412 0.0
H1574 H 0.20904 0.89038 0.61374 0.0
H1575 H 0.24616 0.88687 0.66931 0.0
H1576 H 0.23952 0.83519 0.66979 0.0
H1577 H 0.27931 0.91608 0.64319 0.0
H1578 H 0.18369 0.91752 0.66466 0.0
H1579 H 0.1331 0.90454 0.66487 0.0
H1580 H 0.12306 0.93969 0.6094 0.0
H1581 H 0.17371 0.95252 0.60874 0.0
C1582 C 0.27982 0.05437 0.63207 0.0
C1583 C 0.26963 0.06526 0.61489 0.0
C1584 C 0.27312 0.02671 0.63764 0.0
C1585 C 0.25634 0.00934 0.62605 0.0
C1586 C 0.24604 0.02028 0.60896 0.0
C1587 C 0.25262 0.04791 0.60343 0.0
C1588 C 0.24949 0.97972 0.63155 0.0
C1589 C 0.22093 0.97137 0.63196 0.0
C1590 C 0.27078 0.95963 0.63603 0.0
C1591 C 0.3014 0.96656 0.63494 0.0
C1592 C 0.31332 0.9768 0.61808 0.0
C1593 C 0.34219 0.9833 0.61717 0.0
C1594 C 0.35942 0.9794 0.63299 0.0
C1595 C 0.34782 0.96893 0.64973 0.0
C1596 C 0.31895 0.96244 0.65072 0.0
C1597 C 0.21162 0.84926 0.62641 0.0
C1598 C 0.22054 0.83322 0.64199 0.0
C1599 C 0.21524 0.87861 0.6262 0.0
C1600 C 0.22799 0.89246 0.64152 0.0
C1601 C 0.23621 0.87657 0.65736 0.0
C1602 C 0.23227 0.84714 0.65767 0.0
C1603 C 0.23445 0.92317 0.64018 0.0
C1604 C 0.26293 0.93173 0.64052 0.0
C1605 C 0.21312 0.94339 0.63625 0.0
C1606 C 0.18258 0.93582 0.63661 0.0
C1607 C 0.17076 0.9223 0.65245 0.0
C1608 C 0.14205 0.915 0.65266 0.0
C1609 C 0.12488 0.92124 0.63715 0.0
C1610 C 0.13638 0.93486 0.62141 0.0
C1611 C 0.16509 0.94219 0.62112 0.0
H1612 H 0.10266 0.91557 0.63733 0.0
H1613 H 0.38178 0.98443 0.63226 0.0
H1614 H 0.93269 0.3301 0.63605 0.0
H1615 H 0.98297 0.31801 0.63478 0.0
H1616 H 0.97166 0.28294 0.57909 0.0
H1617 H 0.92122 0.29475 0.58029 0.0
H1618 H 0.99952 0.2468 0.60199 0.0
H1619 H 0.00703 0.34407 0.58478 0.0
H1620 H 0.99837 0.39541 0.58765 0.0
H1621 H 0.04141 0.39641 0.641 0.0
H1622 H 0.04993 0.34494 0.63861 0.0
H1623 H 0.14764 0.22866 0.584 0.0
H1624 H 0.09811 0.24419 0.58227 0.0
H1625 H 0.10254 0.27331 0.63988 0.0
H1626 H 0.15198 0.25754 0.64175 0.0
H1627 H 0.07872 0.31336 0.61442 0.0
H1628 H 0.06848 0.21531 0.63192 0.0
H1629 H 0.07637 0.16387 0.62882 0.0
H1630 H 0.03814 0.16504 0.57386 0.0
H1631 H 0.03039 0.2166 0.57653 0.0
C1632 C 0.94093 0.32012 0.62343 0.0
C1633 C 0.92294 0.31327 0.6083 0.0
C1634 C 0.96972 0.31332 0.6227 0.0
C1635 C 0.98106 0.29967 0.60681 0.0
C1636 C 0.9633 0.29345 0.59149 0.0
C1637 C 0.93451 0.30031 0.59218 0.0
C1638 C 0.01108 0.29041 0.6067 0.0
C1639 C 0.01688 0.26145 0.60436 0.0
C1640 C 0.03362 0.30947 0.61021 0.0
C1641 C 0.0289 0.34054 0.61159 0.0
C1642 C 0.01447 0.35517 0.5972 0.0
C1643 C 0.00961 0.38432 0.59872 0.0
C1644 C 0.01926 0.39915 0.61452 0.0
C1645 C 0.03391 0.38488 0.62878 0.0
C1646 C 0.03879 0.35572 0.62734 0.0
C1647 C 0.13792 0.23809 0.59634 0.0
C1648 C 0.15349 0.24179 0.61304 0.0
C1649 C 0.10971 0.24699 0.59533 0.0
C1650 C 0.09675 0.25992 0.61094 0.0
C1651 C 0.11224 0.26347 0.62767 0.0
C1652 C 0.14034 0.25426 0.62876 0.0
C1653 C 0.06702 0.2698 0.60979 0.0
C1654 C 0.06132 0.29883 0.61191 0.0
C1655 C 0.04453 0.25087 0.60597 0.0
C1656 C 0.04915 0.21987 0.60434 0.0
C1657 C 0.062 0.20465 0.6191 0.0
C1658 C 0.0664 0.17546 0.61744 0.0
C1659 C 0.05784 0.16121 0.60113 0.0
C1660 C 0.0448 0.17611 0.58647 0.0
C1661 C 0.04039 0.20532 0.58806 0.0
H1662 H 0.06125 0.13861 0.59987 0.0
H1663 H 0.01543 0.4217 0.61569 0.0
H1664 H 0.71422 0.68916 0.66424 0.0
H1665 H 0.71459 0.63754 0.66133 0.0
H1666 H 0.71335 0.64521 0.60065 0.0
H1667 H 0.71173 0.6967 0.6035 0.0
H1668 H 0.68501 0.60051 0.60974 0.0
H1669 H 0.77668 0.63715 0.62614 0.0
H1670 H 0.81236 0.66321 0.64473 0.0
H1671 H 0.79375 0.61173 0.69311 0.0
H1672 H 0.75782 0.58546 0.67481 0.0
H1673 H 0.7833 0.48926 0.58449 0.0
H1674 H 0.75459 0.53191 0.58965 0.0
H1675 H 0.7325 0.50193 0.64519 0.0
H1676 H 0.76059 0.45897 0.6399 0.0
H1677 H 0.76635 0.55456 0.64183 0.0
H1678 H 0.68061 0.51164 0.61973 0.0
H1679 H 0.65084 0.48507 0.5973 0.0
H1680 H 0.66449 0.54902 0.55519 0.0
H1681 H 0.69471 0.57578 0.57727 0.0
C1682 C 0.7135 0.67979 0.65029 0.0
C1683 C 0.71331 0.69692 0.63409 0.0
C1684 C 0.71382 0.65031 0.64864 0.0
C1685 C 0.7147 0.63748 0.63076 0.0
C1686 C 0.71275 0.65457 0.6146 0.0
C1687 C 0.71191 0.68404 0.61625 0.0
C1688 C 0.72013 0.60663 0.62878 0.0
C1689 C 0.70282 0.59047 0.61674 0.0
C1690 C 0.74325 0.5934 0.63801 0.0
C1691 C 0.76436 0.60956 0.64918 0.0
C1692 C 0.78005 0.63154 0.64078 0.0
C1693 C 0.80041 0.64625 0.65124 0.0
C1694 C 0.80538 0.63906 0.67007 0.0
C1695 C 0.78993 0.61721 0.67851 0.0
C1696 C 0.76958 0.60239 0.6681 0.0
C1697 C 0.77127 0.49128 0.59744 0.0
C1698 C 0.77401 0.47096 0.61179 0.0
C1699 C 0.75492 0.51556 0.60038 0.0
C1700 C 0.74151 0.51996 0.6178 0.0
C1701 C 0.74253 0.49871 0.63161 0.0
C1702 C 0.75845 0.47419 0.62854 0.0
C1703 C 0.73139 0.54861 0.62275 0.0
C1704 C 0.74808 0.56444 0.63523 0.0
C1705 C 0.70835 0.56162 0.61345 0.0
C1706 C 0.69011 0.54562 0.60014 0.0
C1707 C 0.67748 0.51993 0.60564 0.0
C1708 C 0.66047 0.50485 0.59299 0.0
C1709 C 0.65582 0.51532 0.57482 0.0
C1710 C 0.66812 0.54093 0.56927 0.0
C1711 C 0.68516 0.55608 0.58186 0.0
H1712 H 0.64264 0.50362 0.56505 0.0
H1713 H 0.8211 0.65053 0.67815 0.0
H1714 H 0.32809 0.74603 0.68138 0.0
H1715 H 0.37967 0.74968 0.67902 0.0
H1716 H 0.37384 0.74413 0.61837 0.0
H1717 H 0.32244 0.73912 0.62074 0.0
H1718 H 0.41953 0.71817 0.62907 0.0
H1719 H 0.37829 0.80951 0.64324 0.0
H1720 H 0.34954 0.84314 0.66179 0.0
H1721 H 0.4022 0.82852 0.71023 0.0
H1722 H 0.43109 0.79456 0.69199 0.0
H1723 H 0.53441 0.80437 0.59867 0.0
H1724 H 0.49025 0.77977 0.60626 0.0
H1725 H 0.51337 0.77905 0.66513 0.0
H1726 H 0.55767 0.8038 0.65753 0.0
H1727 H 0.46166 0.80337 0.65893 0.0
H1728 H 0.50778 0.71727 0.64148 0.0
H1729 H 0.53626 0.68563 0.62131 0.0
H1730 H 0.47441 0.6927 0.57714 0.0
H1731 H 0.44573 0.72473 0.59693 0.0
C1732 C 0.33787 0.74515 0.66757 0.0
C1733 C 0.32117 0.74257 0.65124 0.0
C1734 C 0.36736 0.74739 0.66622 0.0
C1735 C 0.3807 0.74794 0.64848 0.0
C1736 C 0.36414 0.7439 0.63223 0.0
C1737 C 0.33469 0.74108 0.63359 0.0
C1738 C 0.41149 0.75451 0.64669 0.0
C1739 C 0.4287 0.73688 0.63553 0.0
C1740 C 0.42375 0.7786 0.65542 0.0
C1741 C 0.40664 0.79928 0.66632 0.0
C1742 C 0.38364 0.81337 0.65787 0.0
C1743 C 0.36733 0.83249 0.66833 0.0
C1744 C 0.37398 0.83789 0.6872 0.0
C1745 C 0.39704 0.82427 0.69562 0.0
C1746 C 0.4134 0.80511 0.68523 0.0
C1747 C 0.53043 0.79817 0.61315 0.0
C1748 C 0.54945 0.8059 0.62751 0.0
C1749 C 0.50522 0.78408 0.61748 0.0
C1750 C 0.49848 0.77752 0.63627 0.0
C1751 C 0.51818 0.78384 0.65053 0.0
C1752 C 0.54358 0.79774 0.64617 0.0
C1753 C 0.46958 0.76727 0.6411 0.0
C1754 C 0.45266 0.78434 0.65277 0.0
C1755 C 0.45756 0.74295 0.6326 0.0
C1756 C 0.47468 0.72357 0.62067 0.0
C1757 C 0.50034 0.71226 0.62741 0.0
C1758 C 0.51651 0.69421 0.61605 0.0
C1759 C 0.50717 0.68719 0.59794 0.0
C1760 C 0.48162 0.69816 0.59117 0.0
C1761 C 0.46537 0.71622 0.60247 0.0
H1762 H 0.51972 0.67322 0.58917 0.0
H1763 H 0.36131 0.85267 0.69528 0.0
H1764 H 0.17892 0.53022 0.65862 0.0
H1765 H 0.20788 0.48733 0.65917 0.0
H1766 H 0.24123 0.50813 0.6042 0.0
H1767 H 0.21203 0.55137 0.6037 0.0
H1768 H 0.21771 0.45596 0.60508 0.0
H1769 H 0.28571 0.50497 0.64191 0.0
H1770 H 0.30335 0.53577 0.66741 0.0
H1771 H 0.27143 0.47757 0.70882 0.0
H1772 H 0.2532 0.4466 0.68359 0.0
H1773 H 0.27796 0.31933 0.60753 0.0
H1774 H 0.27855 0.37114 0.60652 0.0
H1775 H 0.23928 0.37414 0.66143 0.0
H1776 H 0.23908 0.32248 0.66272 0.0
H1777 H 0.27631 0.4174 0.65722 0.0
H1778 H 0.19933 0.37573 0.62144 0.0
H1779 H 0.17886 0.34502 0.5968 0.0
H1780 H 0.2254 0.39019 0.5543 0.0
H1781 H 0.24644 0.42093 0.57875 0.0
C1782 C 0.19315 0.52607 0.64694 0.0
C1783 C 0.19342 0.54402 0.63115 0.0
C1784 C 0.20976 0.50161 0.64727 0.0
C1785 C 0.22689 0.49454 0.63177 0.0
C1786 C 0.2283 0.51326 0.61636 0.0
C1787 C 0.2118 0.53798 0.61611 0.0
C1788 C 0.23992 0.46589 0.63079 0.0
C1789 C 0.23126 0.44778 0.61619 0.0
C1790 C 0.25697 0.45499 0.64554 0.0
C1791 C 0.26797 0.4735 0.66082 0.0
C1792 C 0.28227 0.49882 0.65645 0.0
C1793 C 0.2924 0.5163 0.67087 0.0
C1794 C 0.28848 0.50865 0.68973 0.0
C1795 C 0.27446 0.48346 0.69421 0.0
C1796 C 0.26426 0.46591 0.67985 0.0
C1797 C 0.27002 0.331 0.61958 0.0
C1798 C 0.25804 0.31674 0.63508 0.0
C1799 C 0.27031 0.36064 0.61895 0.0
C1800 C 0.25844 0.37653 0.63374 0.0
C1801 C 0.24846 0.36236 0.64982 0.0
C1802 C 0.24825 0.33276 0.6505 0.0
C1803 C 0.25355 0.40752 0.63174 0.0
C1804 C 0.26353 0.4259 0.64582 0.0
C1805 C 0.23744 0.41872 0.61663 0.0
C1806 C 0.22473 0.40036 0.60192 0.0
C1807 C 0.20535 0.37896 0.60685 0.0
C1808 C 0.19363 0.36158 0.59292 0.0
C1809 C 0.2009 0.36559 0.574 0.0
C1810 C 0.21985 0.38706 0.56896 0.0
C1811 C 0.23167 0.40446 0.58285 0.0
H1812 H 0.1918 0.35212 0.56324 0.0
H1813 H 0.29634 0.52221 0.70086 0.0
H1814 H 0.46251 0.20421 0.58045 0.0
H1815 H 0.5031 0.2345 0.58787 0.0
H1816 H 0.4751 0.24033 0.64566 0.0
H1817 H 0.43421 0.21009 0.63815 0.0
H1818 H 0.50711 0.29135 0.62988 0.0
H1819 H 0.51448 0.19064 0.64124 0.0
H1820 H 0.50705 0.14049 0.63282 0.0
H1821 H 0.55746 0.15145 0.58292 0.0
H1822 H 0.56505 0.20181 0.59102 0.0
H1823 H 0.65072 0.29275 0.66965 0.0
H1824 H 0.59995 0.28635 0.66337 0.0
H1825 H 0.61839 0.26965 0.60483 0.0
H1826 H 0.66873 0.27606 0.61085 0.0
H1827 H 0.58912 0.22602 0.62362 0.0
H1828 H 0.58505 0.32743 0.61506 0.0
H1829 H 0.59149 0.3772 0.6247 0.0
H1830 H 0.53474 0.36468 0.67132 0.0
H1831 H 0.52828 0.31467 0.6621 0.0
C1832 C 0.46438 0.21309 0.59449 0.0
C1833 C 0.44547 0.20508 0.60876 0.0
C1834 C 0.48748 0.23034 0.59873 0.0
C1835 C 0.49211 0.23941 0.61733 0.0
C1836 C 0.47169 0.23371 0.63121 0.0
C1837 C 0.44845 0.21645 0.62694 0.0
C1838 C 0.52069 0.2491 0.62282 0.0
C1839 C 0.52508 0.27711 0.62875 0.0
C1840 C 0.54397 0.23037 0.62137 0.0
C1841 C 0.54013 0.19999 0.61665 0.0
C1842 C 0.52388 0.18237 0.62844 0.0
C1843 C 0.51969 0.15392 0.62374 0.0
C1844 C 0.5317 0.14283 0.60732 0.0
C1845 C 0.54814 0.16011 0.59562 0.0
C1846 C 0.55246 0.18859 0.60029 0.0
C1847 C 0.64388 0.28826 0.65538 0.0
C1848 C 0.66379 0.28445 0.64082 0.0
C1849 C 0.61489 0.28472 0.65181 0.0
C1850 C 0.60555 0.27739 0.63366 0.0
C1851 C 0.62525 0.2752 0.61895 0.0
C1852 C 0.65404 0.27883 0.62245 0.0
C1853 C 0.57593 0.26862 0.63025 0.0
C1854 C 0.57128 0.24044 0.62483 0.0
C1855 C 0.5526 0.28717 0.63248 0.0
C1856 C 0.55645 0.31721 0.63802 0.0
C1857 C 0.57417 0.3352 0.62748 0.0
C1858 C 0.57777 0.36347 0.63284 0.0
C1859 C 0.5636 0.37407 0.64865 0.0
C1860 C 0.54574 0.35643 0.65909 0.0
C1861 C 0.54208 0.32812 0.6538 0.0
H1862 H 0.56641 0.39598 0.65277 0.0
H1863 H 0.52834 0.12084 0.6037 0.0
H1864 H 0.68626 0.32262 0.85537 0.0
H1865 H 0.68836 0.37465 0.85374 0.0
H1866 H 0.77738 0.37181 0.86751 0.0
H1867 H 0.77546 0.32057 0.86938 0.0
H1868 H 0.75159 0.4118 0.8874 0.0
H1869 H 0.75433 0.37967 0.82209 0.0
H1870 H 0.73481 0.3555 0.7941 0.0
H1871 H 0.66185 0.4099 0.79548 0.0
H1872 H 0.68083 0.43417 0.82364 0.0
H1873 H 0.82432 0.51677 0.82939 0.0
H1874 H 0.79101 0.47723 0.82904 0.0
H1875 H 0.74374 0.51603 0.87431 0.0
H1876 H 0.77742 0.55576 0.87472 0.0
H1877 H 0.73476 0.46262 0.82715 0.0
H1878 H 0.73663 0.46449 0.90768 0.0
H1879 H 0.76367 0.48635 0.93373 0.0
H1880 H 0.83829 0.48833 0.89904 0.0
H1881 H 0.81181 0.46607 0.87297 0.0
C1882 C 0.7062 0.33318 0.85812 0.0
C1883 C 0.73068 0.31743 0.8625 0.0
C1884 C 0.70737 0.36285 0.85716 0.0
C1885 C 0.73303 0.37709 0.86054 0.0
C1886 C 0.75729 0.36133 0.86502 0.0
C1887 C 0.75616 0.33192 0.86599 0.0
C1888 C 0.73555 0.40833 0.85903 0.0
C1889 C 0.74726 0.42305 0.87436 0.0
C1890 C 0.73014 0.42299 0.84199 0.0
C1891 C 0.71878 0.40845 0.82509 0.0
C1892 C 0.73401 0.38631 0.81651 0.0
C1893 C 0.72308 0.37263 0.8006 0.0
C1894 C 0.69706 0.38109 0.79306 0.0
C1895 C 0.68197 0.40331 0.80137 0.0
C1896 C 0.6928 0.41704 0.8173 0.0
C1897 C 0.8062 0.51732 0.83878 0.0
C1898 C 0.80349 0.53895 0.85224 0.0
C1899 C 0.78707 0.49484 0.83849 0.0
C1900 C 0.76513 0.4935 0.85182 0.0
C1901 C 0.76062 0.51664 0.86397 0.0
C1902 C 0.77979 0.53928 0.8642 0.0
C1903 C 0.75144 0.46574 0.85536 0.0
C1904 C 0.73777 0.45168 0.84046 0.0
C1905 C 0.75588 0.45128 0.8726 0.0
C1906 C 0.77214 0.46402 0.88834 0.0
C1907 C 0.75882 0.46953 0.90567 0.0
C1908 C 0.77405 0.48197 0.92043 0.0
C1909 C 0.80264 0.48883 0.91802 0.0
C1910 C 0.81613 0.48309 0.90088 0.0
C1911 C 0.80103 0.47055 0.88612 0.0
H1912 H 0.81437 0.49852 0.92944 0.0
H1913 H 0.68864 0.37047 0.78074 0.0
H1914 H 0.46389 0.7732 0.86832 0.0
H1915 H 0.50884 0.74717 0.8698 0.0
H1916 H 0.52603 0.78397 0.92434 0.0
H1917 H 0.4815 0.81046 0.92258 0.0
H1918 H 0.56875 0.79295 0.9021 0.0
H1919 H 0.51398 0.71096 0.9177 0.0
H1920 H 0.4758 0.67575 0.91396 0.0
H1921 H 0.50938 0.65155 0.86002 0.0
H1922 H 0.54756 0.68689 0.86331 0.0
H1923 H 0.7017 0.72607 0.91209 0.0
H1924 H 0.65143 0.73488 0.91862 0.0
H1925 H 0.63014 0.70884 0.86207 0.0
H1926 H 0.68016 0.69993 0.85547 0.0
H1927 H 0.58935 0.69215 0.8878 0.0
H1928 H 0.64225 0.77593 0.8716 0.0
H1929 H 0.68063 0.81091 0.87529 0.0
H1930 H 0.64934 0.83283 0.93025 0.0
H1931 H 0.61143 0.79714 0.92723 0.0
C1932 C 0.4768 0.77482 0.88091 0.0
C1933 C 0.46919 0.79364 0.8954 0.0
C1934 C 0.50258 0.76003 0.88174 0.0
C1935 C 0.521 0.76357 0.89719 0.0
C1936 C 0.51235 0.78093 0.91223 0.0
C1937 C 0.48679 0.79587 0.91132 0.0
C1938 C 0.55043 0.75187 0.89679 0.0
C1939 C 0.57315 0.77075 0.89939 0.0
C1940 C 0.5564 0.72309 0.8927 0.0
C1941 C 0.53351 0.70175 0.89069 0.0
C1942 C 0.51311 0.69828 0.90497 0.0
C1943 C 0.49148 0.67827 0.90295 0.0
C1944 C 0.49013 0.66147 0.88674 0.0
C1945 C 0.51044 0.66459 0.87255 0.0
C1946 C 0.5321 0.68459 0.8745 0.0
C1947 C 0.68625 0.72148 0.90121 0.0
C1948 C 0.69498 0.71255 0.8832 0.0
C1949 C 0.65752 0.72667 0.90493 0.0
C1950 C 0.63703 0.72295 0.89073 0.0
C1951 C 0.64551 0.71195 0.87323 0.0
C1952 C 0.67418 0.70695 0.86947 0.0
C1953 C 0.60741 0.7332 0.89331 0.0
C1954 C 0.58478 0.7142 0.89088 0.0
C1955 C 0.60145 0.76193 0.89754 0.0
C1956 C 0.62421 0.78353 0.89929 0.0
C1957 C 0.64375 0.78793 0.88458 0.0
C1958 C 0.66543 0.80788 0.88655 0.0
C1959 C 0.6674 0.82408 0.90299 0.0
C1960 C 0.6478 0.82023 0.91754 0.0
C1961 C 0.62629 0.80005 0.91574 0.0
H1962 H 0.68404 0.83968 0.90444 0.0
H1963 H 0.47337 0.64599 0.8852 0.0
H1964 H 0.20773 0.44412 0.89898 0.0
H1965 H 0.23084 0.49042 0.89661 0.0
H1966 H 0.23884 0.47946 0.83642 0.0
H1967 H 0.21643 0.43272 0.83893 0.0
H1968 H 0.28183 0.51207 0.8498 0.0
H1969 H 0.18103 0.5105 0.85354 0.0
H1970 H 0.13431 0.49778 0.8666 0.0
H1971 H 0.15445 0.54117 0.91811 0.0
H1972 H 0.20148 0.5539 0.90542 0.0
H1973 H 0.25915 0.65878 0.82324 0.0
H1974 H 0.25621 0.60726 0.8273 0.0
H1975 H 0.26457 0.61731 0.88747 0.0
H1976 H 0.26812 0.66873 0.88354 0.0
H1977 H 0.21558 0.58506 0.87433 0.0
H1978 H 0.31714 0.58986 0.86659 0.0
H1979 H 0.36115 0.6033 0.85011 0.0
H1980 H 0.33569 0.55482 0.80175 0.0
H1981 H 0.29131 0.54141 0.81785 0.0
C1982 C 0.21571 0.45105 0.88542 0.0
C1983 C 0.21053 0.4349 0.86916 0.0
C1984 C 0.22861 0.47761 0.88401 0.0
C1985 C 0.2359 0.48873 0.86627 0.0
C1986 C 0.23331 0.47138 0.85025 0.0
C1987 C 0.22068 0.44461 0.85169 0.0
C1988 C 0.24228 0.51945 0.86417 0.0
C1989 C 0.26731 0.52803 0.85509 0.0
C1990 C 0.22322 0.54035 0.87092 0.0
C1991 C 0.1949 0.53288 0.87861 0.0
C1992 C 0.17559 0.51715 0.8677 0.0
C1993 C 0.14903 0.50996 0.87503 0.0
C1994 C 0.14145 0.51856 0.8932 0.0
C1995 C 0.16038 0.53447 0.90405 0.0
C1996 C 0.18698 0.54171 0.89679 0.0
C1997 C 0.26079 0.64999 0.83731 0.0
C1998 C 0.26382 0.66786 0.85307 0.0
C1999 C 0.25918 0.62056 0.83959 0.0
C2000 C 0.2602 0.6085 0.85768 0.0
C2001 C 0.26381 0.62621 0.87339 0.0
C2002 C 0.26592 0.65559 0.87111 0.0
C2003 C 0.25537 0.57768 0.86032 0.0
C2004 C 0.23034 0.5691 0.86931 0.0
C2005 C 0.27405 0.55693 0.85302 0.0
C2006 C 0.30077 0.56486 0.84336 0.0
C2007 C 0.3208 0.58228 0.85238 0.0
C2008 C 0.34584 0.58984 0.84312 0.0
C2009 C 0.35118 0.57998 0.82488 0.0
C2010 C 0.33151 0.56247 0.81588 0.0
C2011 C 0.30643 0.55485 0.82507 0.0
H2012 H 0.37058 0.58586 0.81773 0.0
H2013 H 0.12089 0.51296 0.89884 0.0
H2014 H 0.55998 0.22425 0.86979 0.0
H2015 H 0.51715 0.25344 0.86983 0.0
H2016 H 0.49617 0.22246 0.92541 0.0
H2017 H 0.53852 0.19248 0.925 0.0
H2018 H 0.45491 0.21234 0.90274 0.0
H2019 H 0.50993 0.29469 0.91575 0.0
H2020 H 0.54905 0.32879 0.91183 0.0
H2021 H 0.52048 0.34782 0.85574 0.0
H2022 H 0.48141 0.31353 0.8592 0.0
H2023 H 0.32382 0.28054 0.90349 0.0
H2024 H 0.37362 0.27556 0.91223 0.0
H2025 H 0.39812 0.28669 0.85411 0.0
H2026 H 0.34828 0.29167 0.84516 0.0
H2027 H 0.43746 0.31093 0.88135 0.0
H2028 H 0.3885 0.2233 0.86685 0.0
H2029 H 0.34919 0.18924 0.87014 0.0
H2030 H 0.36743 0.18036 0.92919 0.0
H2031 H 0.40664 0.21473 0.92628 0.0
C2032 C 0.54677 0.22459 0.88229 0.0
C2033 C 0.55239 0.2062 0.89738 0.0
C2034 C 0.52227 0.24129 0.88233 0.0
C2035 C 0.50331 0.24017 0.89763 0.0
C2036 C 0.51036 0.22361 0.91342 0.0
C2037 C 0.53459 0.20662 0.91325 0.0
C2038 C 0.47438 0.25244 0.8959 0.0
C2039 C 0.45123 0.23415 0.89856 0.0
C2040 C 0.4694 0.28062 0.88983 0.0
C2041 C 0.49282 0.30136 0.8877 0.0
C2042 C 0.5121 0.30598 0.90252 0.0
C2043 C 0.53425 0.32538 0.90039 0.0
C2044 C 0.53728 0.34043 0.88354 0.0
C2045 C 0.51811 0.33615 0.86879 0.0
C2046 C 0.49593 0.31676 0.87084 0.0
C2047 C 0.33978 0.28264 0.8926 0.0
C2048 C 0.33205 0.286 0.87357 0.0
C2049 C 0.36825 0.27986 0.89765 0.0
C2050 C 0.38946 0.28045 0.88378 0.0
C2051 C 0.38203 0.28621 0.86501 0.0
C2052 C 0.35352 0.28887 0.85992 0.0
C2053 C 0.41852 0.27082 0.88834 0.0
C2054 C 0.44146 0.28939 0.886 0.0
C2055 C 0.42349 0.24286 0.89468 0.0
C2056 C 0.40027 0.22182 0.8964 0.0
C2057 C 0.38399 0.21424 0.88056 0.0
C2058 C 0.36174 0.19486 0.88235 0.0
C2059 C 0.35574 0.18272 0.89987 0.0
C2060 C 0.37206 0.18983 0.91563 0.0
C2061 C 0.39431 0.20925 0.91392 0.0
H2062 H 0.33849 0.16773 0.90123 0.0
H2063 H 0.55445 0.35543 0.88191 0.0
H2064 H 0.2835 0.34237 0.39281 0.0
H2065 H 0.27538 0.39342 0.39407 0.0
H2066 H 0.25746 0.39416 0.33441 0.0
H2067 H 0.2661 0.3428 0.33302 0.0
H2068 H 0.28611 0.443 0.34624 0.0
H2069 H 0.20349 0.39051 0.36379 0.0
H2070 H 0.1767 0.35392 0.3811 0.0
H2071 H 0.19802 0.39372 0.43367 0.0
H2072 H 0.22527 0.43035 0.4167 0.0
H2073 H 0.20695 0.57371 0.35385 0.0
H2074 H 0.22125 0.52485 0.34683 0.0
H2075 H 0.24205 0.5119 0.40544 0.0
H2076 H 0.22785 0.56046 0.41256 0.0
H2077 H 0.20978 0.46905 0.39122 0.0
H2078 H 0.29363 0.52096 0.37322 0.0
H2079 H 0.32042 0.55719 0.35561 0.0
H2080 H 0.29572 0.51874 0.30324 0.0
H2081 H 0.26844 0.48249 0.32054 0.0
C2082 C 0.27847 0.35349 0.37987 0.0
C2083 C 0.27518 0.33863 0.36285 0.0
C2084 C 0.27371 0.38264 0.38062 0.0
C2085 C 0.26519 0.39749 0.36442 0.0
C2086 C 0.26386 0.38308 0.34709 0.0
C2087 C 0.26883 0.35379 0.34631 0.0
C2088 C 0.25538 0.42731 0.36612 0.0
C2089 C 0.26915 0.4487 0.35585 0.0
C2090 C 0.23334 0.43477 0.37875 0.0
C2091 C 0.21661 0.41303 0.38898 0.0
C2092 C 0.2026 0.39136 0.37905 0.0
C2093 C 0.18732 0.37064 0.38879 0.0
C2094 C 0.18575 0.37147 0.40846 0.0
C2095 C 0.19931 0.3931 0.41843 0.0
C2096 C 0.21464 0.41387 0.40876 0.0
C2097 C 0.21462 0.56046 0.36523 0.0
C2098 C 0.21623 0.57099 0.38377 0.0
C2099 C 0.22291 0.53259 0.36118 0.0
C2100 C 0.23288 0.51478 0.3756 0.0
C2101 C 0.23443 0.52526 0.39409 0.0
C2102 C 0.22634 0.55308 0.39813 0.0
C2103 C 0.24094 0.4849 0.37171 0.0
C2104 C 0.22666 0.46341 0.38152 0.0
C2105 C 0.26232 0.47745 0.35858 0.0
C2106 C 0.27872 0.49922 0.34817 0.0
C2107 C 0.29369 0.52039 0.35794 0.0
C2108 C 0.30901 0.54089 0.34802 0.0
C2109 C 0.30969 0.54032 0.32832 0.0
C2110 C 0.29512 0.51919 0.3185 0.0
C2111 C 0.27974 0.49865 0.32836 0.0
H2112 H 0.32158 0.55621 0.32066 0.0
H2113 H 0.17404 0.35537 0.41598 0.0
H2114 H 0.44794 0.18941 0.37587 0.0
H2115 H 0.49916 0.19759 0.37762 0.0
H2116 H 0.48539 0.28745 0.37132 0.0
H2117 H 0.43439 0.2794 0.36924 0.0
H2118 H 0.52822 0.27136 0.34969 0.0
H2119 H 0.50235 0.25677 0.41466 0.0
H2120 H 0.48107 0.23097 0.44139 0.0
H2121 H 0.5366 0.16048 0.43124 0.0
H2122 H 0.55799 0.18574 0.40429 0.0
H2123 H 0.66905 0.31416 0.37412 0.0
H2124 H 0.61726 0.30814 0.37406 0.0
H2125 H 0.62782 0.21791 0.38093 0.0
H2126 H 0.67917 0.2239 0.38131 0.0
H2127 H 0.58638 0.23531 0.40278 0.0
H2128 H 0.6114 0.24825 0.33772 0.0
H2129 H 0.63281 0.27279 0.31051 0.0
H2130 H 0.57906 0.3448 0.32017 0.0
H2131 H 0.55759 0.32082 0.34762 0.0
C2132 C 0.4558 0.21092 0.37491 0.0
C2133 C 0.43694 0.23373 0.37246 0.0
C2134 C 0.48515 0.21561 0.37599 0.0
C2135 C 0.4963 0.24322 0.3748 0.0
C2136 C 0.47746 0.26595 0.37227 0.0
C2137 C 0.44819 0.26129 0.37115 0.0
C2138 C 0.52752 0.24853 0.376 0.0
C2139 C 0.54083 0.26382 0.36145 0.0
C2140 C 0.54429 0.23819 0.39109 0.0
C2141 C 0.53159 0.22305 0.40736 0.0
C2142 C 0.50989 0.2357 0.41806 0.0
C2143 C 0.49783 0.22118 0.43326 0.0
C2144 C 0.50743 0.19408 0.43798 0.0
C2145 C 0.52917 0.18147 0.42755 0.0
C2146 C 0.54129 0.19589 0.41232 0.0
C2147 C 0.66024 0.29311 0.37572 0.0
C2148 C 0.67818 0.26952 0.37768 0.0
C2149 C 0.63064 0.28963 0.37559 0.0
C2150 C 0.61847 0.26247 0.37729 0.0
C2151 C 0.63651 0.23906 0.37961 0.0
C2152 C 0.66595 0.24253 0.37977 0.0
C2153 C 0.58708 0.25813 0.37647 0.0
C2154 C 0.57374 0.24299 0.39106 0.0
C2155 C 0.57032 0.26844 0.36136 0.0
C2156 C 0.58312 0.28287 0.34484 0.0
C2157 C 0.6043 0.26941 0.33413 0.0
C2158 C 0.61642 0.2832 0.31865 0.0
C2159 C 0.60736 0.31037 0.31365 0.0
C2160 C 0.5861 0.32377 0.32409 0.0
C2161 C 0.57393 0.31009 0.3396 0.0
H2162 H 0.61677 0.32101 0.30166 0.0
H2163 H 0.49806 0.18287 0.44975 0.0
H2164 H 0.71907 0.6688 0.33745 0.0
H2165 H 0.72561 0.6171 0.33826 0.0
H2166 H 0.75239 0.62255 0.39632 0.0
H2167 H 0.74586 0.67386 0.3956 0.0
H2168 H 0.7895 0.59179 0.37454 0.0
H2169 H 0.68848 0.59614 0.38563 0.0
H2170 H 0.63923 0.60964 0.37821 0.0
H2171 H 0.64402 0.56394 0.32592 0.0
H2172 H 0.69345 0.55047 0.33293 0.0
H2173 H 0.79293 0.44885 0.4029 0.0
H2174 H 0.78168 0.49917 0.39983 0.0
H2175 H 0.74886 0.48443 0.34389 0.0
H2176 H 0.75947 0.43391 0.34702 0.0
H2177 H 0.71513 0.51985 0.36229 0.0
H2178 H 0.8142 0.51396 0.35055 0.0
H2179 H 0.86351 0.49968 0.35671 0.0
H2180 H 0.86371 0.54843 0.40787 0.0
H2181 H 0.81409 0.56259 0.40217 0.0
C2182 C 0.72592 0.65885 0.35044 0.0
C2183 C 0.73195 0.67532 0.36646 0.0
C2184 C 0.72968 0.62935 0.35089 0.0
C2185 C 0.73956 0.61596 0.36736 0.0
C2186 C 0.7449 0.63241 0.38345 0.0
C2187 C 0.74101 0.66173 0.38303 0.0
C2188 C 0.74552 0.58503 0.36778 0.0
C2189 C 0.77317 0.57605 0.37207 0.0
C2190 C 0.72446 0.5645 0.36391 0.0
C2191 C 0.69476 0.57257 0.3597 0.0
C2192 C 0.67911 0.58918 0.37247 0.0
C2193 C 0.65115 0.59678 0.36836 0.0
C2194 C 0.63853 0.58773 0.35158 0.0
C2195 C 0.65383 0.57098 0.3389 0.0
C2196 C 0.68181 0.56334 0.34294 0.0
C2197 C 0.78331 0.45627 0.38994 0.0
C2198 C 0.77724 0.43734 0.37517 0.0
C2199 C 0.77696 0.4851 0.38817 0.0
C2200 C 0.76476 0.49572 0.37152 0.0
C2201 C 0.75828 0.47678 0.35687 0.0
C2202 C 0.76447 0.4479 0.35866 0.0
C2203 C 0.75903 0.52659 0.36938 0.0
C2204 C 0.73151 0.53556 0.3647 0.0
C2205 C 0.7803 0.54718 0.37265 0.0
C2206 C 0.81032 0.53913 0.37601 0.0
C2207 C 0.82469 0.52149 0.36318 0.0
C2208 C 0.85272 0.51343 0.36659 0.0
C2209 C 0.86677 0.52309 0.3827 0.0
C2210 C 0.8528 0.54093 0.3954 0.0
C2211 C 0.82471 0.549 0.39208 0.0
H2212 H 0.88848 0.5168 0.38533 0.0
H2213 H 0.61688 0.59362 0.34842 0.0
H2214 H 0.56055 0.8238 0.35561 0.0
H2215 H 0.50968 0.81398 0.35442 0.0
H2216 H 0.51627 0.76552 0.40587 0.0
H2217 H 0.56717 0.7746 0.40685 0.0
H2218 H 0.48773 0.73686 0.38109 0.0
H2219 H 0.48466 0.83265 0.40354 0.0
H2220 H 0.49452 0.88397 0.40342 0.0
H2221 H 0.45165 0.89247 0.35032 0.0
H2222 H 0.44193 0.84111 0.34994 0.0
H2223 H 0.34147 0.7249 0.4036 0.0
H2224 H 0.39189 0.73714 0.40332 0.0
H2225 H 0.38254 0.7736 0.34786 0.0
H2226 H 0.33204 0.7612 0.34803 0.0
H2227 H 0.4119 0.80871 0.37325 0.0
H2228 H 0.41486 0.71241 0.35153 0.0
H2229 H 0.40408 0.66132 0.35269 0.0
H2230 H 0.44661 0.65457 0.40605 0.0
H2231 H 0.4573 0.70574 0.40533 0.0
C2232 C 0.5511 0.8113 0.36677 0.0
C2233 C 0.56791 0.79985 0.38127 0.0
C2234 C 0.52197 0.8058 0.36612 0.0
C2235 C 0.50905 0.78913 0.38011 0.0
C2236 C 0.52574 0.77834 0.39486 0.0
C2237 C 0.55485 0.7836 0.39543 0.0
C2238 C 0.47852 0.78149 0.37889 0.0
C2239 C 0.47117 0.75267 0.37965 0.0
C2240 C 0.45688 0.80202 0.37646 0.0
C2241 C 0.46288 0.83292 0.3766 0.0
C2242 C 0.47759 0.84539 0.39174 0.0
C2243 C 0.4831 0.87451 0.39178 0.0
C2244 C 0.47383 0.89143 0.37683 0.0
C2245 C 0.4589 0.87931 0.36186 0.0
C2246 C 0.45338 0.8502 0.36172 0.0
C2247 C 0.35025 0.73523 0.39127 0.0
C2248 C 0.33296 0.74201 0.37581 0.0
C2249 C 0.37902 0.74223 0.39113 0.0
C2250 C 0.39095 0.75622 0.37555 0.0
C2251 C 0.37372 0.76285 0.36002 0.0
C2252 C 0.34497 0.7556 0.36009 0.0
C2253 C 0.42133 0.76423 0.37569 0.0
C2254 C 0.42859 0.79304 0.37467 0.0
C2255 C 0.44293 0.74377 0.37803 0.0
C2256 C 0.43665 0.71296 0.37845 0.0
C2257 C 0.42171 0.70008 0.36358 0.0
C2258 C 0.41566 0.6711 0.36415 0.0
C2259 C 0.4246 0.65472 0.37945 0.0
C2260 C 0.43967 0.66729 0.39421 0.0
C2261 C 0.44576 0.69627 0.39372 0.0
H2262 H 0.41989 0.63229 0.37986 0.0
H2263 H 0.47817 0.91394 0.37687 0.0
H2264 H 0.28521 0.68032 0.14285 0.0
H2265 H 0.2793 0.62877 0.14196 0.0
H2266 H 0.24974 0.63452 0.08443 0.0
H2267 H 0.25393 0.68611 0.08583 0.0
H2268 H 0.21758 0.60077 0.10045 0.0
H2269 H 0.31863 0.60644 0.0993 0.0
H2270 H 0.36631 0.62091 0.10979 0.0
H2271 H 0.35329 0.57883 0.16279 0.0
H2272 H 0.30537 0.56441 0.1527 0.0
H2273 H 0.23039 0.45439 0.0776 0.0
H2274 H 0.24075 0.50502 0.07989 0.0
H2275 H 0.24246 0.49877 0.14054 0.0
H2276 H 0.23188 0.44793 0.1384 0.0
H2277 H 0.28845 0.53166 0.12396 0.0
H2278 H 0.18689 0.52127 0.12001 0.0
H2279 H 0.14378 0.50317 0.10457 0.0
H2280 H 0.16112 0.55419 0.05581 0.0
H2281 H 0.20535 0.57123 0.07042 0.0
C2282 C 0.27792 0.67045 0.12993 0.0
C2283 C 0.27018 0.68717 0.11437 0.0
C2284 C 0.27457 0.6409 0.12938 0.0
C2285 C 0.26428 0.62734 0.11304 0.0
C2286 C 0.25752 0.64418 0.09728 0.0
C2287 C 0.26015 0.67372 0.09801 0.0
C2288 C 0.25928 0.59592 0.11253 0.0
C2289 C 0.23335 0.58577 0.10537 0.0
C2290 C 0.27948 0.57598 0.1192 0.0
C2291 C 0.30828 0.58461 0.12532 0.0
C2292 C 0.32585 0.60046 0.11325 0.0
C2293 C 0.35293 0.60862 0.11911 0.0
C2294 C 0.36279 0.60088 0.13697 0.0
C2295 C 0.34561 0.58487 0.14897 0.0
C2296 C 0.31849 0.57667 0.14318 0.0
C2297 C 0.23297 0.4637 0.09146 0.0
C2298 C 0.23012 0.44706 0.10783 0.0
C2299 C 0.23896 0.49268 0.09273 0.0
C2300 C 0.24233 0.50573 0.11039 0.0
C2301 C 0.24001 0.48913 0.12677 0.0
C2302 C 0.23375 0.46012 0.12552 0.0
C2303 C 0.24711 0.53689 0.11169 0.0
C2304 C 0.27284 0.54687 0.11907 0.0
C2305 C 0.22709 0.55662 0.10468 0.0
C2306 C 0.19973 0.54732 0.09627 0.0
C2307 C 0.18177 0.52839 0.1059 0.0
C2308 C 0.15716 0.51823 0.09726 0.0
C2309 C 0.14966 0.52761 0.07926 0.0
C2310 C 0.16693 0.54696 0.06977 0.0
C2311 C 0.1919 0.55673 0.07818 0.0
H2312 H 0.13047 0.51989 0.07268 0.0
H2313 H 0.38376 0.60722 0.14148 0.0
H2314 H 0.61336 0.26908 0.12635 0.0
H2315 H 0.56464 0.28711 0.12628 0.0
H2316 H 0.53408 0.20419 0.11064 0.0
H2317 H 0.58242 0.18643 0.11 0.0
H2318 H 0.50493 0.2409 0.09284 0.0
H2319 H 0.53379 0.2294 0.15735 0.0
H2320 H 0.56391 0.23707 0.18533 0.0
H2321 H 0.54609 0.32626 0.18334 0.0
H2322 H 0.51615 0.31915 0.15519 0.0
H2323 H 0.37199 0.26316 0.15532 0.0
H2324 H 0.42324 0.25651 0.1527 0.0
H2325 H 0.42279 0.3006 0.09933 0.0
H2326 H 0.37129 0.30605 0.10154 0.0
H2327 H 0.46828 0.28684 0.15087 0.0
H2328 H 0.47082 0.27258 0.06979 0.0
H2329 H 0.43924 0.25711 0.04401 0.0
H2330 H 0.39169 0.2062 0.08298 0.0
H2331 H 0.42318 0.22109 0.10891 0.0
C2332 C 0.59626 0.25483 0.12265 0.0
C2333 C 0.60178 0.22628 0.11829 0.0
C2334 C 0.5684 0.26511 0.12273 0.0
C2335 C 0.54558 0.2469 0.11877 0.0
C2336 C 0.55125 0.2187 0.11374 0.0
C2337 C 0.579 0.20853 0.11343 0.0
C2338 C 0.51568 0.25658 0.12047 0.0
C2339 C 0.49701 0.25116 0.10548 0.0
C2340 C 0.50509 0.26946 0.1371 0.0
C2341 C 0.52302 0.27379 0.15403 0.0
C2342 C 0.53647 0.25067 0.1628 0.0
C2343 C 0.55349 0.25491 0.1787 0.0
C2344 C 0.55699 0.28215 0.18607 0.0
C2345 C 0.54341 0.30518 0.17759 0.0
C2346 C 0.52642 0.30107 0.16166 0.0
C2347 C 0.3829 0.2716 0.14311 0.0
C2348 C 0.36774 0.28482 0.12853 0.0
C2349 C 0.41221 0.26789 0.14164 0.0
C2350 C 0.4269 0.2776 0.12565 0.0
C2351 C 0.41189 0.2923 0.11158 0.0
C2352 C 0.3825 0.29553 0.11289 0.0
C2353 C 0.45752 0.27091 0.1233 0.0
C2354 C 0.47631 0.27697 0.13813 0.0
C2355 C 0.46805 0.25752 0.10683 0.0
C2356 C 0.44915 0.24823 0.0913 0.0
C2357 C 0.45366 0.25803 0.07283 0.0
C2358 C 0.43578 0.24937 0.0582 0.0
C2359 C 0.41341 0.23077 0.06187 0.0
C2360 C 0.40895 0.22069 0.08017 0.0
C2361 C 0.42679 0.22926 0.09484 0.0
H2362 H 0.39957 0.22412 0.05053 0.0
H2363 H 0.57017 0.28538 0.19838 0.0
H2364 H 0.75496 0.54244 0.10304 0.0
H2365 H 0.74814 0.4918 0.10793 0.0
H2366 H 0.81368 0.4918 0.15033 0.0
H2367 H 0.82091 0.54276 0.14536 0.0
H2368 H 0.81764 0.44571 0.12712 0.0
H2369 H 0.74531 0.49008 0.1637 0.0
H2370 H 0.70578 0.52295 0.16996 0.0
H2371 H 0.6556 0.48156 0.12762 0.0
H2372 H 0.69498 0.44867 0.12092 0.0
H2373 H 0.77759 0.30559 0.15558 0.0
H2374 H 0.7867 0.35673 0.15751 0.0
H2375 H 0.72538 0.37139 0.11345 0.0
H2376 H 0.71631 0.32045 0.11145 0.0
H2377 H 0.72103 0.4104 0.14171 0.0
H2378 H 0.79478 0.36831 0.10374 0.0
H2379 H 0.83488 0.33646 0.0968 0.0
H2380 H 0.88296 0.37413 0.14168 0.0
H2381 H 0.8429 0.40586 0.14913 0.0
C2382 C 0.76805 0.53174 0.11338 0.0
C2383 C 0.78835 0.54673 0.12392 0.0
C2384 C 0.76401 0.50275 0.11622 0.0
C2385 C 0.78002 0.48808 0.12975 0.0
C2386 C 0.80096 0.50274 0.1399 0.0
C2387 C 0.80503 0.53186 0.13706 0.0
C2388 C 0.77453 0.4575 0.13324 0.0
C2389 C 0.79665 0.43799 0.13069 0.0
C2390 C 0.74704 0.44742 0.13764 0.0
C2391 C 0.7232 0.46703 0.14172 0.0
C2392 C 0.72592 0.4881 0.15564 0.0
C2393 C 0.70352 0.50672 0.15927 0.0
C2394 C 0.67821 0.50438 0.14917 0.0
C2395 C 0.67522 0.48336 0.13543 0.0
C2396 C 0.69756 0.46469 0.13173 0.0
C2397 C 0.76576 0.31981 0.14654 0.0
C2398 C 0.74631 0.30911 0.13332 0.0
C2399 C 0.77112 0.34897 0.14756 0.0
C2400 C 0.75701 0.36784 0.13543 0.0
C2401 C 0.73658 0.35723 0.12289 0.0
C2402 C 0.73138 0.32813 0.12177 0.0
C2403 C 0.764 0.39854 0.13524 0.0
C2404 C 0.74212 0.41811 0.13842 0.0
C2405 C 0.79173 0.40862 0.13146 0.0
C2406 C 0.81564 0.38918 0.12719 0.0
C2407 C 0.81374 0.36956 0.1123 0.0
C2408 C 0.8365 0.35157 0.10824 0.0
C2409 C 0.86142 0.35319 0.11884 0.0
C2410 C 0.86361 0.37283 0.13352 0.0
C2411 C 0.84088 0.3908 0.13767 0.0
H2412 H 0.87905 0.33931 0.11563 0.0
H2413 H 0.6609 0.51882 0.152 0.0
H2414 H 0.41273 0.73238 0.10722 0.0
H2415 H 0.46315 0.72142 0.1096 0.0
H2416 H 0.46894 0.77222 0.16009 0.0
H2417 H 0.41866 0.78416 0.15734 0.0
H2418 H 0.5122 0.78275 0.13891 0.0
H2419 H 0.46861 0.69744 0.16078 0.0
H2420 H 0.43601 0.65666 0.15955 0.0
H2421 H 0.47694 0.62678 0.10923 0.0
H2422 H 0.50954 0.66761 0.11001 0.0
H2423 H 0.64866 0.73124 0.1649 0.0
H2424 H 0.59752 0.74024 0.165 0.0
H2425 H 0.59032 0.70093 0.11026 0.0
H2426 H 0.6415 0.69193 0.11009 0.0
H2427 H 0.54799 0.68404 0.13508 0.0
H2428 H 0.59056 0.7712 0.11339 0.0
H2429 H 0.62237 0.81259 0.11513 0.0
H2430 H 0.58301 0.83852 0.16694 0.0
H2431 H 0.55117 0.79709 0.16563 0.0
C2432 C 0.42471 0.74114 0.11888 0.0
C2433 C 0.41169 0.75905 0.13214 0.0
C2434 C 0.45354 0.73473 0.12029 0.0
C2435 C 0.46982 0.74556 0.13523 0.0
C2436 C 0.45685 0.76354 0.14846 0.0
C2437 C 0.42809 0.7703 0.1469 0.0
C2438 C 0.5005 0.73871 0.13676 0.0
C2439 C 0.51994 0.76111 0.13841 0.0
C2440 C 0.51075 0.71051 0.13576 0.0
C2441 C 0.49137 0.68574 0.13537 0.0
C2442 C 0.47055 0.68228 0.14939 0.0
C2443 C 0.45208 0.65913 0.14878 0.0
C2444 C 0.45435 0.63918 0.1343 0.0
C2445 C 0.47517 0.64227 0.12043 0.0
C2446 C 0.49368 0.66539 0.12096 0.0
C2447 C 0.63612 0.72437 0.15295 0.0
C2448 C 0.64896 0.71095 0.13747 0.0
C2449 C 0.60696 0.72962 0.15299 0.0
C2450 C 0.5902 0.72148 0.13756 0.0
C2451 C 0.6029 0.7074 0.1223 0.0
C2452 C 0.63209 0.70231 0.1222 0.0
C2453 C 0.55948 0.72806 0.13716 0.0
C2454 C 0.54011 0.70562 0.13573 0.0
C2455 C 0.54927 0.75618 0.13857 0.0
C2456 C 0.56865 0.7809 0.13949 0.0
C2457 C 0.58886 0.78558 0.12524 0.0
C2458 C 0.60684 0.80909 0.12613 0.0
C2459 C 0.60467 0.82818 0.14113 0.0
C2460 C 0.58462 0.82374 0.15532 0.0
C2461 C 0.56659 0.80026 0.1545 0.0
H2462 H 0.61849 0.84645 0.14173 0.0
H2463 H 0.44001 0.62129 0.13384 0.0
H2464 H 0.25473 0.24049 0.32785 0.0
H2465 H 0.23957 0.25909 0.29725 0.0
H2466 H 0.32635 0.25852 0.27804 0.0
H2467 H 0.3417 0.24083 0.30874 0.0
H2468 H 0.30031 0.30462 0.2659 0.0
H2469 H 0.27937 0.20448 0.26711 0.0
H2470 H 0.25747 0.16099 0.27974 0.0
H2471 H 0.17477 0.19752 0.27277 0.0
H2472 H 0.19622 0.24139 0.26032 0.0
H2473 H 0.28804 0.30216 0.16782 0.0
H2474 H 0.29604 0.28587 0.20002 0.0
H2475 H 0.2076 0.29879 0.21276 0.0
H2476 H 0.19936 0.31463 0.18023 0.0
H2477 H 0.2302 0.24908 0.22906 0.0
H2478 H 0.25197 0.34817 0.22547 0.0
H2479 H 0.2747 0.39072 0.21213 0.0
H2480 H 0.35684 0.35519 0.22314 0.0
H2481 H 0.33458 0.31223 0.23631 0.0
C2482 C 0.27064 0.2449 0.31724 0.0
C2483 C 0.29943 0.2393 0.32073 0.0
C2484 C 0.2619 0.25525 0.29969 0.0
C2485 C 0.28177 0.25975 0.28523 0.0
C2486 C 0.31063 0.25515 0.28895 0.0
C2487 C 0.31937 0.24499 0.30651 0.0
C2488 C 0.27264 0.26832 0.266 0.0
C2489 C 0.28513 0.29233 0.25782 0.0
C2490 C 0.25233 0.2527 0.25558 0.0
C2491 C 0.23941 0.22632 0.26299 0.0
C2492 C 0.25652 0.20331 0.26841 0.0
C2493 C 0.2442 0.17858 0.27551 0.0
C2494 C 0.21475 0.17652 0.27711 0.0
C2495 C 0.19757 0.19916 0.27156 0.0
C2496 C 0.2098 0.22395 0.26446 0.0
C2497 C 0.27014 0.30074 0.17727 0.0
C2498 C 0.24307 0.30941 0.17143 0.0
C2499 C 0.27479 0.29176 0.19575 0.0
C2500 C 0.25249 0.29151 0.20884 0.0
C2501 C 0.22511 0.29891 0.20288 0.0
C2502 C 0.22045 0.30798 0.18432 0.0
C2503 C 0.25829 0.28499 0.22893 0.0
C2504 C 0.24515 0.26147 0.23725 0.0
C2505 C 0.27813 0.30095 0.23947 0.0
C2506 C 0.2916 0.32689 0.23174 0.0
C2507 C 0.27488 0.34935 0.22493 0.0
C2508 C 0.28768 0.37355 0.21741 0.0
C2509 C 0.3172 0.37564 0.21675 0.0
C2510 C 0.33398 0.35354 0.22365 0.0
C2511 C 0.32128 0.32927 0.23116 0.0
H2512 H 0.32707 0.39439 0.21093 0.0
H2513 H 0.20524 0.15736 0.28261 0.0
H2514 H 0.79178 0.26241 0.31107 0.0
H2515 H 0.78221 0.25463 0.2775 0.0
H2516 H 0.71866 0.32028 0.2786 0.0
H2517 H 0.72854 0.32869 0.3121 0.0
H2518 H 0.70185 0.26531 0.26249 0.0
H2519 H 0.77343 0.33696 0.25719 0.0
H2520 H 0.81975 0.35898 0.26376 0.0
H2521 H 0.86223 0.28696 0.23984 0.0
H2522 H 0.81614 0.26429 0.23339 0.0
H2523 H 0.675 0.24141 0.16666 0.0
H2524 H 0.68548 0.26896 0.1951 0.0
H2525 H 0.76818 0.22992 0.19814 0.0
H2526 H 0.7584 0.20415 0.16898 0.0
H2527 H 0.77292 0.27909 0.2117 0.0
H2528 H 0.70481 0.20369 0.22219 0.0
H2529 H 0.65994 0.1781 0.2168 0.0
H2530 H 0.61279 0.25237 0.23235 0.0
H2531 H 0.65742 0.27846 0.23767 0.0
C2532 C 0.77586 0.27528 0.30414 0.0
C2533 C 0.76091 0.29616 0.31418 0.0
C2534 C 0.77053 0.27091 0.28497 0.0
C2535 C 0.74988 0.28703 0.27561 0.0
C2536 C 0.73478 0.30776 0.2856 0.0
C2537 C 0.74048 0.31254 0.30469 0.0
C2538 C 0.74329 0.2812 0.25559 0.0
C2539 C 0.71712 0.26881 0.25128 0.0
C2540 C 0.76355 0.2852 0.24116 0.0
C2541 C 0.79131 0.29882 0.24495 0.0
C2542 C 0.79264 0.3257 0.25348 0.0
C2543 C 0.81887 0.33832 0.25716 0.0
C2544 C 0.84392 0.32435 0.25226 0.0
C2545 C 0.8428 0.29775 0.24364 0.0
C2546 C 0.81663 0.28502 0.23995 0.0
C2547 C 0.69566 0.2394 0.17319 0.0
C2548 C 0.7159 0.22068 0.1658 0.0
C2549 C 0.70157 0.25491 0.18952 0.0
C2550 C 0.72726 0.25081 0.19922 0.0
C2551 C 0.74813 0.23341 0.19107 0.0
C2552 C 0.74257 0.21865 0.1744 0.0
C2553 C 0.73162 0.26244 0.21853 0.0
C2554 C 0.75739 0.27592 0.22279 0.0
C2555 C 0.71121 0.25887 0.23306 0.0
C2556 C 0.68441 0.24309 0.23012 0.0
C2557 C 0.68486 0.21457 0.22438 0.0
C2558 C 0.65949 0.19998 0.22135 0.0
C2559 C 0.63353 0.21362 0.22418 0.0
C2560 C 0.63291 0.24185 0.23013 0.0
C2561 C 0.65822 0.25654 0.23318 0.0
H2562 H 0.61391 0.20231 0.22179 0.0
H2563 H 0.8642 0.33416 0.25511 0.0
H2564 H 0.74433 0.77057 0.32865 0.0
H2565 H 0.7592 0.74734 0.2995 0.0
H2566 H 0.67348 0.75195 0.27853 0.0
H2567 H 0.65838 0.77458 0.30796 0.0
H2568 H 0.69876 0.70072 0.27079 0.0
H2569 H 0.72148 0.80022 0.2647 0.0
H2570 H 0.74364 0.84505 0.27481 0.0
H2571 H 0.82578 0.80596 0.27287 0.0
H2572 H 0.80406 0.76079 0.26296 0.0
H2573 H 0.72121 0.6799 0.1741 0.0
H2574 H 0.70858 0.70043 0.20452 0.0
H2575 H 0.79682 0.70092 0.22061 0.0
H2576 H 0.80966 0.68175 0.18962 0.0
H2577 H 0.77201 0.74821 0.23172 0.0
H2578 H 0.7505 0.64939 0.23669 0.0
H2579 H 0.72908 0.60401 0.22702 0.0
H2580 H 0.64597 0.6404 0.23184 0.0
H2581 H 0.66692 0.68613 0.24129 0.0
C2582 C 0.72856 0.76606 0.31802 0.0
C2583 C 0.70019 0.77409 0.32064 0.0
C2584 C 0.73713 0.75307 0.30129 0.0
C2585 C 0.71748 0.74824 0.2868 0.0
C2586 C 0.68895 0.75553 0.28957 0.0
C2587 C 0.68038 0.7685 0.30633 0.0
C2588 C 0.72684 0.73648 0.2685 0.0
C2589 C 0.71456 0.71121 0.26214 0.0
C2590 C 0.74802 0.74984 0.25752 0.0
C2591 C 0.76112 0.77708 0.26326 0.0
C2592 C 0.74425 0.80115 0.26654 0.0
C2593 C 0.75673 0.82662 0.27222 0.0
C2594 C 0.78609 0.82833 0.27453 0.0
C2595 C 0.80304 0.80459 0.2711 0.0
C2596 C 0.79066 0.77907 0.26543 0.0
C2597 C 0.73796 0.68507 0.18393 0.0
C2598 C 0.76642 0.6798 0.17939 0.0
C2599 C 0.7307 0.69632 0.20145 0.0
C2600 C 0.75172 0.70177 0.21496 0.0
C2601 C 0.78026 0.69682 0.21039 0.0
C2602 C 0.78756 0.68581 0.19274 0.0
C2603 C 0.74379 0.71246 0.23388 0.0
C2604 C 0.75634 0.73757 0.24039 0.0
C2605 C 0.72299 0.69881 0.24507 0.0
C2606 C 0.7103 0.67125 0.23956 0.0
C2607 C 0.72767 0.64777 0.23557 0.0
C2608 C 0.7156 0.62197 0.23015 0.0
C2609 C 0.68618 0.61934 0.22878 0.0
C2610 C 0.66876 0.64248 0.23289 0.0
C2611 C 0.68071 0.66833 0.23831 0.0
H2612 H 0.67689 0.59936 0.22457 0.0
H2613 H 0.79571 0.84806 0.27894 0.0
H2614 H 0.25906 0.70629 0.33642 0.0
H2615 H 0.26882 0.72586 0.30534 0.0
H2616 H 0.18004 0.74589 0.29856 0.0
H2617 H 0.17007 0.72413 0.32929 0.0
H2618 H 0.19606 0.7234 0.2688 0.0
H2619 H 0.23851 0.79973 0.30425 0.0
H2620 H 0.26957 0.82114 0.32844 0.0
H2621 H 0.34219 0.78192 0.30308 0.0
H2622 H 0.31175 0.76043 0.27868 0.0
H2623 H 0.22522 0.78895 0.1802 0.0
H2624 H 0.21177 0.78208 0.21321 0.0
H2625 H 0.29479 0.74819 0.22515 0.0
H2626 H 0.30859 0.75555 0.19233 0.0
H2627 H 0.27867 0.78345 0.25244 0.0
H2628 H 0.23579 0.70545 0.21842 0.0
H2629 H 0.20518 0.68406 0.19408 0.0
H2630 H 0.13277 0.72664 0.21741 0.0
H2631 H 0.16305 0.74872 0.24167 0.0
C2632 C 0.24175 0.71546 0.32845 0.0
C2633 C 0.21388 0.71406 0.33527 0.0
C2634 C 0.24735 0.72688 0.31068 0.0
C2635 C 0.22532 0.73811 0.2996 0.0
C2636 C 0.19749 0.7375 0.30677 0.0
C2637 C 0.19176 0.72521 0.32434 0.0
C2638 C 0.23096 0.74778 0.27991 0.0
C2639 C 0.21374 0.73714 0.26535 0.0
C2640 C 0.25445 0.76512 0.27515 0.0
C2641 C 0.2728 0.77835 0.2897 0.0
C2642 C 0.26109 0.79562 0.30386 0.0
C2643 C 0.27857 0.8078 0.31759 0.0
C2644 C 0.30775 0.80279 0.31733 0.0
C2645 C 0.31958 0.78578 0.30326 0.0
C2646 C 0.30225 0.77372 0.28943 0.0
C2647 C 0.24063 0.78004 0.18985 0.0
C2648 C 0.26796 0.77267 0.18359 0.0
C2649 C 0.23288 0.77608 0.20872 0.0
C2650 C 0.25218 0.76436 0.22164 0.0
C2651 C 0.27955 0.75731 0.21546 0.0
C2652 C 0.28737 0.76141 0.19664 0.0
C2653 C 0.24389 0.75889 0.24155 0.0
C2654 C 0.26067 0.77023 0.25606 0.0
C2655 C 0.21994 0.74233 0.24629 0.0
C2656 C 0.20174 0.72897 0.23173 0.0
C2657 C 0.21338 0.71043 0.21826 0.0
C2658 C 0.19608 0.69818 0.20448 0.0
C2659 C 0.16706 0.70406 0.20416 0.0
C2660 C 0.15526 0.72214 0.21766 0.0
C2661 C 0.17248 0.73455 0.2314 0.0
H2662 H 0.1537 0.69457 0.19348 0.0
H2663 H 0.32119 0.81213 0.32802 0.0
H2664 H 0.76277 0.84259 0.6822 0.0
H2665 H 0.77837 0.82937 0.71394 0.0
H2666 H 0.71854 0.76023 0.71426 0.0
H2667 H 0.70352 0.77272 0.68237 0.0
H2668 H 0.75289 0.82344 0.74806 0.0
H2669 H 0.74935 0.70324 0.73415 0.0
H2670 H 0.74743 0.67209 0.70621 0.0
H2671 H 0.79562 0.73259 0.67439 0.0
H2672 H 0.79885 0.7636 0.7023 0.0
H2673 H 0.75866 0.74174 0.83159 0.0
H2674 H 0.74628 0.76039 0.80053 0.0
H2675 H 0.83146 0.7445 0.78109 0.0
H2676 H 0.84403 0.72568 0.81218 0.0
H2677 H 0.78975 0.72559 0.75608 0.0
H2678 H 0.81387 0.80938 0.79076 0.0
H2679 H 0.81199 0.84387 0.81687 0.0
H2680 H 0.72366 0.85837 0.80604 0.0
H2681 H 0.72483 0.82354 0.78012 0.0
C2682 C 0.7528 0.82473 0.68913 0.0
C2683 C 0.73228 0.80838 0.67978 0.0
C2684 C 0.76165 0.81729 0.70724 0.0
C2685 C 0.74993 0.79356 0.71623 0.0
C2686 C 0.72822 0.77828 0.70735 0.0
C2687 C 0.71969 0.78541 0.68916 0.0
C2688 C 0.76161 0.78367 0.73437 0.0
C2689 C 0.761 0.80209 0.74985 0.0
C2690 C 0.77268 0.75595 0.73645 0.0
C2691 C 0.77408 0.73588 0.72031 0.0
C2692 C 0.76004 0.70965 0.72131 0.0
C2693 C 0.75869 0.69203 0.70547 0.0
C2694 C 0.77128 0.70044 0.68854 0.0
C2695 C 0.78589 0.72612 0.68753 0.0
C2696 C 0.78762 0.74365 0.70338 0.0
C2697 C 0.77471 0.74206 0.82069 0.0
C2698 C 0.80225 0.73213 0.82426 0.0
C2699 C 0.76766 0.75288 0.80301 0.0
C2700 C 0.78803 0.75389 0.78862 0.0
C2701 C 0.8155 0.74386 0.79207 0.0
C2702 C 0.82265 0.73325 0.80982 0.0
C2703 C 0.78043 0.76521 0.76991 0.0
C2704 C 0.78187 0.74703 0.75428 0.0
C2705 C 0.77032 0.79322 0.76766 0.0
C2706 C 0.76941 0.81369 0.78356 0.0
C2707 C 0.79396 0.81966 0.79409 0.0
C2708 C 0.79304 0.83931 0.80883 0.0
C2709 C 0.76774 0.85331 0.81308 0.0
C2710 C 0.74324 0.84751 0.80272 0.0
C2711 C 0.74403 0.82782 0.788 0.0
H2712 H 0.76716 0.86879 0.8243 0.0
H2713 H 0.76956 0.68716 0.67617 0.0
H2714 H 0.27691 0.7578 0.82683 0.0
H2715 H 0.25432 0.74754 0.79652 0.0
H2716 H 0.24985 0.83705 0.78453 0.0
H2717 H 0.2721 0.84736 0.81502 0.0
H2718 H 0.20381 0.76151 0.78085 0.0
H2719 H 0.26342 0.8449 0.73619 0.0
H2720 H 0.3087 0.87105 0.73607 0.0
H2721 H 0.3476 0.80499 0.7687 0.0
H2722 H 0.30271 0.77825 0.76876 0.0
H2723 H 0.1482 0.75276 0.68737 0.0
H2724 H 0.1637 0.77284 0.71762 0.0
H2725 H 0.2488 0.7434 0.70677 0.0
H2726 H 0.23345 0.72405 0.67653 0.0
H2727 H 0.25177 0.79265 0.72212 0.0
H2728 H 0.19899 0.707 0.73537 0.0
H2729 H 0.15705 0.67582 0.73529 0.0
H2730 H 0.10962 0.73858 0.76576 0.0
H2731 H 0.15115 0.77033 0.76576 0.0
C2732 C 0.27046 0.77527 0.81793 0.0
C2733 C 0.27582 0.80332 0.82342 0.0
C2734 C 0.25771 0.76941 0.80057 0.0
C2735 C 0.2505 0.79152 0.78821 0.0
C2736 C 0.25543 0.81965 0.79378 0.0
C2737 C 0.26807 0.8255 0.81121 0.0
C2738 C 0.23888 0.78489 0.76925 0.0
C2739 C 0.21415 0.7685 0.76799 0.0
C2740 C 0.25252 0.79379 0.75248 0.0
C2741 C 0.27956 0.80981 0.75272 0.0
C2742 C 0.28164 0.83598 0.74335 0.0
C2743 C 0.30724 0.85088 0.74326 0.0
C2744 C 0.33097 0.83975 0.75244 0.0
C2745 C 0.32916 0.81366 0.76168 0.0
C2746 C 0.30363 0.79864 0.76177 0.0
C2747 C 0.17027 0.75099 0.6914 0.0
C2748 C 0.18977 0.73721 0.67955 0.0
C2749 C 0.17909 0.7623 0.70871 0.0
C2750 C 0.20739 0.75936 0.71464 0.0
C2751 C 0.22691 0.74614 0.70253 0.0
C2752 C 0.21818 0.73519 0.68519 0.0
C2753 C 0.21679 0.76896 0.73364 0.0
C2754 C 0.24109 0.78603 0.73494 0.0
C2755 C 0.20308 0.76017 0.75046 0.0
C2756 C 0.17805 0.74118 0.75033 0.0
C2757 C 0.17953 0.71425 0.74189 0.0
C2758 C 0.15585 0.69647 0.74188 0.0
C2759 C 0.13065 0.70526 0.75045 0.0
C2760 C 0.12911 0.73184 0.75908 0.0
C2761 C 0.15271 0.74974 0.75908 0.0
H2762 H 0.11235 0.69144 0.75045 0.0
H2763 H 0.35078 0.8513 0.75235 0.0
H2764 H 0.26856 0.26941 0.81496 0.0
H2765 H 0.27902 0.26197 0.78158 0.0
H2766 H 0.19073 0.24416 0.77103 0.0
H2767 H 0.18028 0.25073 0.80448 0.0
H2768 H 0.22176 0.20664 0.7542 0.0
H2769 H 0.22328 0.30798 0.75763 0.0
H2770 H 0.23785 0.35474 0.76974 0.0
H2771 H 0.32419 0.33721 0.75454 0.0
H2772 H 0.31019 0.29017 0.74257 0.0
H2773 H 0.22579 0.20889 0.65564 0.0
H2774 H 0.21653 0.22689 0.68735 0.0
H2775 H 0.30626 0.22767 0.69887 0.0
H2776 H 0.31569 0.2099 0.66692 0.0
H2777 H 0.27514 0.27509 0.71467 0.0
H2778 H 0.27256 0.17281 0.7122 0.0
H2779 H 0.25684 0.12679 0.69948 0.0
H2780 H 0.17046 0.14762 0.71261 0.0
H2781 H 0.18565 0.19398 0.72516 0.0
C2782 C 0.25135 0.26403 0.80553 0.0
C2783 C 0.22359 0.26063 0.81238 0.0
C2784 C 0.25734 0.25995 0.7864 0.0
C2785 C 0.23561 0.25287 0.77371 0.0
C2786 C 0.20786 0.24962 0.78054 0.0
C2787 C 0.20191 0.25339 0.79968 0.0
C2788 C 0.24191 0.24762 0.75347 0.0
C2789 C 0.23305 0.22186 0.74553 0.0
C2790 C 0.25724 0.26714 0.7422 0.0
C2791 C 0.26572 0.29543 0.74937 0.0
C2792 C 0.24541 0.314 0.757 0.0
C2793 C 0.25356 0.34058 0.76382 0.0
C2794 C 0.28194 0.34891 0.76296 0.0
C2795 C 0.30222 0.33071 0.75523 0.0
C2796 C 0.29418 0.3041 0.74841 0.0
C2797 C 0.2436 0.21383 0.66467 0.0
C2798 C 0.27146 0.20831 0.65877 0.0
C2799 C 0.23826 0.22387 0.68284 0.0
C2800 C 0.2607 0.22837 0.69546 0.0
C2801 C 0.28868 0.22438 0.68929 0.0
C2802 C 0.29402 0.21417 0.6711 0.0
C2803 C 0.25471 0.23437 0.71556 0.0
C2804 C 0.26374 0.26008 0.72343 0.0
C2805 C 0.23935 0.21494 0.72679 0.0
C2806 C 0.23021 0.18696 0.71944 0.0
C2807 C 0.25019 0.16766 0.71224 0.0
C2808 C 0.24139 0.14151 0.70509 0.0
C2809 C 0.21266 0.13432 0.7052 0.0
C2810 C 0.1927 0.15324 0.71251 0.0
C2811 C 0.2014 0.17945 0.71966 0.0
H2812 H 0.20588 0.11405 0.69965 0.0
H2813 H 0.2882 0.36949 0.76824 0.0
H2814 H 0.73905 0.15295 0.81195 0.0
H2815 H 0.75558 0.1697 0.78112 0.0
H2816 H 0.75685 0.2555 0.80206 0.0
H2817 H 0.74027 0.23895 0.8328 0.0
H2818 H 0.72532 0.24872 0.76928 0.0
H2819 H 0.81833 0.22163 0.79277 0.0
H2820 H 0.85365 0.18826 0.80571 0.0
H2821 H 0.84185 0.13321 0.7582 0.0
H2822 H 0.80639 0.1661 0.74497 0.0
H2823 H 0.78507 0.32415 0.6943 0.0
H2824 H 0.77461 0.30215 0.72476 0.0
H2825 H 0.78984 0.2195 0.70062 0.0
H2826 H 0.80196 0.242 0.67034 0.0
H2827 H 0.81195 0.22113 0.73412 0.0
H2828 H 0.72053 0.24312 0.71038 0.0
H2829 H 0.68229 0.27166 0.69624 0.0
H2830 H 0.68684 0.33039 0.74241 0.0
H2831 H 0.72506 0.30209 0.7569 0.0
C2832 C 0.74336 0.17531 0.81006 0.0
C2833 C 0.73845 0.19464 0.8248 0.0
C2834 C 0.75289 0.18483 0.79247 0.0
C2835 C 0.75751 0.21383 0.78933 0.0
C2836 C 0.75347 0.23302 0.80421 0.0
C2837 C 0.74412 0.22351 0.8218 0.0
C2838 C 0.76402 0.22458 0.77015 0.0
C2839 C 0.74448 0.24303 0.76169 0.0
C2840 C 0.78828 0.21598 0.75991 0.0
C2841 C 0.8095 0.19621 0.76797 0.0
C2842 C 0.82308 0.2023 0.78516 0.0
C2843 C 0.84316 0.18351 0.79253 0.0
C2844 C 0.84987 0.15862 0.78284 0.0
C2845 C 0.8366 0.15249 0.76571 0.0
C2846 C 0.81656 0.17121 0.75825 0.0
C2847 C 0.78604 0.30128 0.69556 0.0
C2848 C 0.79343 0.28455 0.68001 0.0
C2849 C 0.7799 0.28869 0.7129 0.0
C2850 C 0.78068 0.25906 0.71492 0.0
C2851 C 0.78875 0.24235 0.69938 0.0
C2852 C 0.79526 0.25508 0.68206 0.0
C2853 C 0.77353 0.24586 0.73339 0.0
C2854 C 0.79279 0.22685 0.74168 0.0
C2855 C 0.7486 0.25332 0.74335 0.0
C2856 C 0.72584 0.27062 0.73463 0.0
C2857 C 0.71352 0.26223 0.71745 0.0
C2858 C 0.69181 0.27834 0.70939 0.0
C2859 C 0.68227 0.30293 0.71834 0.0
C2860 C 0.6943 0.31137 0.73546 0.0
C2861 C 0.71591 0.29524 0.74364 0.0
H2862 H 0.66548 0.31539 0.71205 0.0
H2863 H 0.86541 0.14412 0.78859 0.0
H2864 H 0.10868 0.42905 0.09342 0.0
H2865 H 0.08201 0.4735 0.09722 0.0
H2866 H 0.02862 0.43341 0.13882 0.0
H2867 H 0.05526 0.38944 0.13527 0.0
H2868 H 0.99835 0.45484 0.1098 0.0
H2869 H 0.07192 0.48342 0.15085 0.0
H2870 H 0.11943 0.49556 0.16264 0.0
H2871 H 0.12559 0.56277 0.12206 0.0
H2872 H 0.07871 0.55014 0.10931 0.0
H2873 H 0.91654 0.57814 0.13554 0.0
H2874 H 0.94526 0.53475 0.13461 0.0
H2875 H 1.00129 0.57377 0.09411 0.0
H2876 H 0.97287 0.61702 0.09511 0.0
H2877 H 0.02986 0.55274 0.12382 0.0
H2878 H 0.95572 0.52061 0.08197 0.0
H2879 H 0.90648 0.50964 0.07293 0.0
H2880 H 0.90029 0.45012 0.11856 0.0
H2881 H 0.94935 0.46108 0.12808 0.0
C2882 C 0.09183 0.43012 0.10378 0.0
C2883 C 0.08371 0.40582 0.11386 0.0
C2884 C 0.07656 0.4554 0.1059 0.0
C2885 C 0.05313 0.45655 0.11814 0.0
C2886 C 0.04643 0.43286 0.12917 0.0
C2887 C 0.06167 0.4078 0.12714 0.0
C2888 C 0.03363 0.48113 0.11802 0.0
C2889 C 0.0052 0.47623 0.11307 0.0
C2890 C 0.04273 0.50902 0.12204 0.0
C2891 C 0.07183 0.51547 0.12888 0.0
C2892 C 0.08363 0.50033 0.14408 0.0
C2893 C 0.11047 0.50736 0.15099 0.0
C2894 C 0.12556 0.52986 0.14307 0.0
C2895 C 0.11389 0.54531 0.12817 0.0
C2896 C 0.08728 0.53805 0.12099 0.0
C2897 C 0.9346 0.5771 0.12612 0.0
C2898 C 0.94268 0.60088 0.11549 0.0
C2899 C 0.95101 0.5524 0.12563 0.0
C2900 C 0.97548 0.55113 0.11435 0.0
C2901 C 0.98264 0.5744 0.10302 0.0
C2902 C 0.96638 0.59903 0.10356 0.0
C2903 C 0.99487 0.52648 0.11524 0.0
C2904 C 0.02319 0.53134 0.12042 0.0
C2905 C 0.98567 0.49852 0.11162 0.0
C2906 C 0.95613 0.49195 0.10588 0.0
C2907 C 0.94378 0.5054 0.0902 0.0
C2908 C 0.91591 0.49914 0.08497 0.0
C2909 C 0.90023 0.47928 0.09521 0.0
C2910 C 0.91243 0.46556 0.11067 0.0
C2911 C 0.94027 0.47179 0.11599 0.0
H2912 H 0.87866 0.47447 0.09113 0.0
H2913 H 0.14628 0.53537 0.1485 0.0
H2914 H 0.37868 0.94884 0.09405 0.0
H2915 H 0.42656 0.96719 0.08961 0.0
H2916 H 0.45753 0.91007 0.13243 0.0
H2917 H 0.40947 0.89251 0.13755 0.0
H2918 H 0.4731 0.9625 0.13985 0.0
H2919 H 0.47556 0.90301 0.08506 0.0
H2920 H 0.45857 0.88365 0.0548 0.0
H2921 H 0.46407 0.96622 0.02963 0.0
H2922 H 0.48072 0.98618 0.05982 0.0
H2923 H 0.61801 0.98928 0.13248 0.0
H2924 H 0.57233 0.96584 0.12957 0.0
H2925 H 0.54399 0.03085 0.09121 0.0
H2926 H 0.5904 0.05429 0.09363 0.0
H2927 H 0.52695 0.97564 0.08036 0.0
H2928 H 0.52358 0.03501 0.13514 0.0
H2929 H 0.54068 0.05448 0.16534 0.0
H2930 H 0.53638 0.97177 0.19043 0.0
H2931 H 0.51964 0.95172 0.16028 0.0
C2932 C 0.39575 0.93987 0.10235 0.0
C2933 C 0.39013 0.91936 0.1163 0.0
C2934 C 0.4232 0.95024 0.09967 0.0
C2935 C 0.44572 0.94003 0.11069 0.0
C2936 C 0.44048 0.91831 0.12379 0.0
C2937 C 0.41299 0.90805 0.12656 0.0
C2938 C 0.47398 0.95395 0.10999 0.0
C2939 C 0.48505 0.96488 0.12686 0.0
C2940 C 0.48913 0.95809 0.09295 0.0
C2941 C 0.47914 0.94614 0.07477 0.0
C2942 C 0.47292 0.9171 0.07312 0.0
C2943 C 0.4634 0.90601 0.05597 0.0
C2944 C 0.46017 0.92371 0.04032 0.0
C2945 C 0.46654 0.95254 0.04177 0.0
C2946 C 0.47605 0.96375 0.0589 0.0
C2947 C 0.60238 0.99838 0.12307 0.0
C2948 C 0.60799 0.02363 0.11318 0.0
C2949 C 0.57613 0.98504 0.12157 0.0
C2950 C 0.55468 0.99672 0.11032 0.0
C2951 C 0.56029 0.0215 0.09999 0.0
C2952 C 0.5867 0.03496 0.10149 0.0
C2953 C 0.52608 0.98361 0.11025 0.0
C2954 C 0.51493 0.97307 0.09329 0.0
C2955 C 0.51071 0.9798 0.12721 0.0
C2956 C 0.5206 0.99182 0.1454 0.0
C2957 C 0.52649 0.02093 0.14706 0.0
C2958 C 0.53608 0.03208 0.16417 0.0
C2959 C 0.53968 0.01436 0.17978 0.0
C2960 C 0.53361 0.98547 0.17832 0.0
C2961 C 0.52405 0.9742 0.16123 0.0
H2962 H 0.54711 0.02303 0.19302 0.0
H2963 H 0.4528 0.91508 0.02705 0.0
H2964 H 0.01472 0.61661 0.41115 0.0
H2965 H 0.98756 0.57241 0.41061 0.0
H2966 H 0.04969 0.53525 0.37343 0.0
H2967 H 0.07706 0.57956 0.37403 0.0
H2968 H 0.99389 0.53137 0.36012 0.0
H2969 H 0.04547 0.51202 0.41702 0.0
H2970 H 0.06332 0.52177 0.44905 0.0
H2971 H 0.97797 0.5266 0.46983 0.0
H2972 H 0.95958 0.51729 0.43784 0.0
H2973 H 0.95467 0.38839 0.35937 0.0
H2974 H 0.97807 0.43399 0.36319 0.0
H2975 H 0.91201 0.46106 0.40123 0.0
H2976 H 0.88847 0.41471 0.39763 0.0
H2977 H 0.9663 0.47214 0.41496 0.0
H2978 H 0.91458 0.4887 0.35882 0.0
H2979 H 0.89607 0.47927 0.32692 0.0
H2980 H 0.98073 0.4804 0.3047 0.0
H2981 H 0.99975 0.4895 0.33654 0.0
C2982 C 0.02281 0.5988 0.40314 0.0
C2983 C 0.04793 0.6014 0.39261 0.0
C2984 C 0.00733 0.57359 0.40287 0.0
C2985 C 0.0166 0.55058 0.39197 0.0
C2986 C 0.0422 0.5528 0.38193 0.0
C2987 C 0.0579 0.57796 0.38238 0.0
C2988 C 0.99855 0.52503 0.39002 0.0
C2989 C 0.98818 0.51817 0.37205 0.0
C2990 C 0.99016 0.50858 0.40575 0.0
C2991 C 1.00115 0.51428 0.42498 0.0
C2992 C 0.0305 0.51545 0.42838 0.0
C2993 C 0.04071 0.52083 0.44653 0.0
C2994 C 0.02179 0.52489 0.46145 0.0
C2995 C 0.9926 0.5235 0.45825 0.0
C2996 C 0.98227 0.51815 0.44011 0.0
C2997 C 0.94506 0.40404 0.36855 0.0
C2998 C 0.9199 0.39794 0.37836 0.0
C2999 C 0.95837 0.43017 0.37062 0.0
C3000 C 0.94676 0.45097 0.38244 0.0
C3001 C 0.92132 0.44524 0.39206 0.0
C3002 C 0.90782 0.41894 0.3899 0.0
C3003 C 0.96206 0.47818 0.38498 0.0
C3004 C 0.97186 0.48544 0.40303 0.0
C3005 C 0.96985 0.49513 0.36933 0.0
C3006 C 0.95858 0.48962 0.35011 0.0
C3007 C 0.92925 0.48676 0.34715 0.0
C3008 C 0.91867 0.48151 0.32908 0.0
C3009 C 0.93722 0.47919 0.31379 0.0
C3010 C 0.96639 0.48219 0.31656 0.0
C3011 C 0.97707 0.48744 0.33462 0.0
H3012 H 0.929 0.47512 0.2998 0.0
H3013 H 0.02974 0.52903 0.47551 0.0
H3014 H 0.6139 0.98297 0.35198 0.0
H3015 H 0.56918 0.00692 0.35856 0.0
H3016 H 0.55428 0.95068 0.40547 0.0
H3017 H 0.5996 0.92673 0.39913 0.0
H3018 H 0.50547 0.96194 0.38303 0.0
H3019 H 0.57832 0.01315 0.41519 0.0
H3020 H 0.62437 0.03738 0.41817 0.0
H3021 H 0.59891 0.09835 0.37652 0.0
H3022 H 0.55287 0.07417 0.37303 0.0
H3023 H 0.39215 0.04638 0.41413 0.0
H3024 H 0.43848 0.02323 0.41619 0.0
H3025 H 0.46929 0.07587 0.37086 0.0
H3026 H 0.42299 0.09916 0.36883 0.0
H3027 H 0.51064 0.06505 0.39659 0.0
H3028 H 0.44046 0.0123 0.3621 0.0
H3029 H 0.39492 0.9877 0.35742 0.0
H3030 H 0.41578 0.92914 0.40166 0.0
H3031 H 0.46114 0.95387 0.40695 0.0
C3032 C 0.6011 0.9756 0.36368 0.0
C3033 C 0.6105 0.95328 0.37524 0.0
C3034 C 0.57556 0.98931 0.36741 0.0
C3035 C 0.55878 0.98097 0.38275 0.0
C3036 C 0.56712 0.95756 0.39365 0.0
C3037 C 0.59289 0.94383 0.38997 0.0
C3038 C 0.53309 0.99753 0.38756 0.0
C3039 C 0.50656 0.98434 0.3864 0.0
C3040 C 0.53463 0.0269 0.39155 0.0
C3041 C 0.56221 0.04169 0.39374 0.0
C3042 C 0.58261 0.03159 0.40655 0.0
C3043 C 0.60871 0.04533 0.40835 0.0
C3044 C 0.61459 0.06936 0.39751 0.0
C3045 C 0.59434 0.07972 0.38489 0.0
C3046 C 0.56823 0.06601 0.38301 0.0
C3047 C 0.4091 0.05354 0.40499 0.0
C3048 C 0.40397 0.07433 0.39119 0.0
C3049 C 0.43546 0.04021 0.4061 0.0
C3050 C 0.45706 0.04732 0.39335 0.0
C3051 C 0.45283 0.06992 0.38075 0.0
C3052 C 0.42644 0.08335 0.37967 0.0
C3053 C 0.48292 0.02955 0.39184 0.0
C3054 C 0.5095 0.04254 0.39355 0.0
C3055 C 0.48141 1.00001 0.38822 0.0
C3056 C 0.45403 0.98522 0.38512 0.0
C3057 C 0.43519 0.9944 0.37099 0.0
C3058 C 0.40942 0.98041 0.36821 0.0
C3059 C 0.4024 0.95695 0.37929 0.0
C3060 C 0.42117 0.94741 0.39316 0.0
C3061 C 0.44689 0.96145 0.39608 0.0
H3062 H 0.38247 0.9461 0.37708 0.0
H3063 H 0.6348 0.07997 0.39893 0.0
H3064 H 0.08996 0.38809 0.89007 0.0
H3065 H 0.04447 0.41369 0.89169 0.0
H3066 H 0.07484 0.47331 0.85019 0.0
H3067 H 0.11986 0.44812 0.84867 0.0
H3068 H 0.05326 0.50056 0.87953 0.0
H3069 H 0.02514 0.42201 0.83992 0.0
H3070 H 0.01791 0.37167 0.83194 0.0
H3071 H 0.96274 0.36202 0.87968 0.0
H3072 H 0.96998 0.41224 0.88812 0.0
H3073 H 0.92985 0.57237 0.84789 0.0
H3074 H 0.9733 0.54472 0.85192 0.0
H3075 H 0.93136 0.49196 0.89304 0.0
H3076 H 0.88786 0.51952 0.88904 0.0
H3077 H 0.95794 0.46005 0.86786 0.0
H3078 H 0.9829 0.5396 0.90595 0.0
H3079 H 0.98962 0.59008 0.91371 0.0
H3080 H 0.05061 0.59795 0.86907 0.0
H3081 H 0.04396 0.5476 0.86084 0.0
C3082 C 0.08659 0.40638 0.88111 0.0
C3083 C 0.10844 0.4163 0.86938 0.0
C3084 C 0.0607 0.42103 0.88206 0.0
C3085 C 0.05628 0.44557 0.87113 0.0
C3086 C 0.07779 0.45467 0.85891 0.0
C3087 C 0.10348 0.4402 0.85801 0.0
C3088 C 0.02989 0.4627 0.87271 0.0
C3089 C 0.03242 0.49173 0.87682 0.0
C3090 C 0.00261 0.45104 0.8698 0.0
C3091 C 0.9984 0.4208 0.86479 0.0
C3092 C 0.0117 0.40909 0.84883 0.0
C3093 C 0.00755 0.38058 0.8442 0.0
C3094 C 0.98995 0.36362 0.85533 0.0
C3095 C 0.97642 0.37516 0.8711 0.0
C3096 C 0.98054 0.40364 0.87581 0.0
C3097 C 0.93009 0.55531 0.85811 0.0
C3098 C 0.90539 0.54812 0.86811 0.0
C3099 C 0.95492 0.53943 0.86037 0.0
C3100 C 0.95567 0.51624 0.87283 0.0
C3101 C 0.93129 0.50962 0.88328 0.0
C3102 C 0.90646 0.52542 0.88099 0.0
C3103 C 0.98139 0.49806 0.87422 0.0
C3104 C 0.97873 0.46884 0.87075 0.0
C3105 C 0.00859 0.50953 0.87772 0.0
C3106 C 0.01273 0.53984 0.88267 0.0
C3107 C 0.99758 0.55214 0.89768 0.0
C3108 C 1.00141 0.58073 0.90219 0.0
C3109 C 0.02048 0.59723 0.89186 0.0
C3110 C 0.03582 0.58515 0.87705 0.0
C3111 C 0.03205 0.55657 0.87247 0.0
H3112 H 0.0234 0.61937 0.89537 0.0
H3113 H 0.98673 0.34157 0.85171 0.0
H3114 H 0.59852 0.08096 0.90387 0.0
H3115 H 0.57425 0.03493 0.90164 0.0
H3116 H 0.5073 0.07385 0.86926 0.0
H3117 H 0.53164 0.11926 0.87098 0.0
H3118 H 0.52223 0.0196 0.91461 0.0
H3119 H 0.48174 0.02778 0.83743 0.0
H3120 H 0.49712 0.04796 0.807 0.0
H3121 H 0.58404 0.04289 0.82461 0.0
H3122 H 0.56922 0.02232 0.85502 0.0
H3123 H 0.4161 0.91467 0.90215 0.0
H3124 H 0.43927 0.96134 0.90086 0.0
H3125 H 0.50391 0.92686 0.86437 0.0
H3126 H 0.48047 0.88091 0.86512 0.0
H3127 H 0.49177 0.97809 0.85357 0.0
H3128 H 0.51344 0.93205 0.9125 0.0
H3129 H 0.50141 0.90895 0.94266 0.0
H3130 H 0.45962 0.98477 0.96136 0.0
H3131 H 0.47106 0.00818 0.93117 0.0
C3132 C 0.57885 0.07947 0.89606 0.0
C3133 C 0.56685 0.10365 0.88772 0.0
C3134 C 0.56491 0.05332 0.89493 0.0
C3135 C 0.53901 0.051 0.88524 0.0
C3136 C 0.52737 0.07507 0.87665 0.0
C3137 C 0.54121 0.10105 0.87776 0.0
C3138 C 0.5236 0.02368 0.88435 0.0
C3139 C 0.51564 0.01046 0.90127 0.0
C3140 C 0.51516 0.01169 0.86694 0.0
C3141 C 0.52432 0.02375 0.84858 0.0
C3142 C 0.50414 0.03086 0.83478 0.0
C3143 C 0.51276 0.04239 0.81754 0.0
C3144 C 0.54153 0.04678 0.8139 0.0
C3145 C 0.56175 0.03957 0.82747 0.0
C3146 C 0.55325 0.02802 0.84473 0.0
C3147 C 0.43487 0.91738 0.89354 0.0
C3148 C 0.44677 0.89422 0.88394 0.0
C3149 C 0.44823 0.94387 0.89294 0.0
C3150 C 0.47365 0.9474 0.88281 0.0
C3151 C 0.48444 0.92464 0.87234 0.0
C3152 C 0.47113 0.89836 0.87288 0.0
C3153 C 0.49014 0.97409 0.88383 0.0
C3154 C 0.49827 0.98726 0.86692 0.0
C3155 C 0.49931 0.98562 0.90123 0.0
C3156 C 0.49287 0.97177 0.91952 0.0
C3157 C 0.50156 0.94374 0.92301 0.0
C3158 C 0.49485 0.93059 0.94011 0.0
C3159 C 0.47969 0.94536 0.9539 0.0
C3160 C 0.47131 0.97335 0.95065 0.0
C3161 C 0.47792 0.98657 0.93355 0.0
H3162 H 0.47449 0.93514 0.96713 0.0
H3163 H 0.54816 0.05573 0.80055 0.0
H3164 H 0.07704 0.59102 0.60428 0.0
H3165 H 0.03016 0.5685 0.60255 0.0
H3166 H 0.05169 0.51552 0.65005 0.0
H3167 H 0.09787 0.53842 0.65219 0.0
H3168 H 0.01755 0.51357 0.59565 0.0
H3169 H 0.99345 0.50033 0.67528 0.0
H3170 H 0.00243 0.52526 0.70528 0.0
H3171 H 0.00947 0.60427 0.67562 0.0
H3172 H 1.00017 0.57989 0.64548 0.0
H3173 H 0.90017 0.41872 0.60401 0.0
H3174 H 0.94704 0.44028 0.60786 0.0
H3175 H 0.90813 0.51509 0.6315 0.0
H3176 H 0.86212 0.49288 0.62948 0.0
H3177 H 0.95188 0.50573 0.65004 0.0
H3178 H 0.93266 0.50829 0.5826 0.0
H3179 H 0.92173 0.48662 0.55176 0.0
H3180 H 0.99718 0.43596 0.55534 0.0
H3181 H 0.00843 0.45721 0.58625 0.0
C3182 C 0.07143 0.57502 0.61459 0.0
C3183 C 0.09107 0.56639 0.62832 0.0
C3184 C 0.04485 0.56196 0.61346 0.0
C3185 C 0.03746 0.54032 0.62617 0.0
C3186 C 0.0568 0.53231 0.64021 0.0
C3187 C 0.08323 0.54534 0.64136 0.0
C3188 C 0.0099 0.52545 0.62456 0.0
C3189 C 0.00308 0.51197 0.6075 0.0
C3190 C 0.99109 0.52328 0.64002 0.0
C3191 C 0.99639 0.53821 0.65811 0.0
C3192 C 0.99681 0.52304 0.67517 0.0
C3193 C 0.00197 0.53707 0.6922 0.0
C3194 C 0.0066 0.56631 0.69235 0.0
C3195 C 0.00599 0.58161 0.67548 0.0
C3196 C 1.00081 0.56768 0.65842 0.0
C3197 C 0.90167 0.4396 0.61026 0.0
C3198 C 0.87714 0.45426 0.616 0.0
C3199 C 0.92848 0.45208 0.61223 0.0
C3200 C 0.93116 0.47966 0.61957 0.0
C3201 C 0.90676 0.49391 0.62567 0.0
C3202 C 0.88024 0.48128 0.62416 0.0
C3203 C 0.95906 0.49418 0.62098 0.0
C3204 C 0.9662 0.50735 0.63812 0.0
C3205 C 0.97779 0.49661 0.60545 0.0
C3206 C 0.97125 0.48415 0.58677 0.0
C3207 C 0.94685 0.49246 0.57682 0.0
C3208 C 0.94061 0.48027 0.55933 0.0
C3209 C 0.95872 0.45989 0.55161 0.0
C3210 C 0.98317 0.45174 0.56133 0.0
C3211 C 0.98951 0.46387 0.57882 0.0
H3212 H 0.95384 0.45045 0.53808 0.0
H3213 H 0.01062 0.57713 0.70554 0.0
H3214 H 0.59274 0.92426 0.63186 0.0
H3215 H 0.56611 0.96821 0.62728 0.0
H3216 H 0.52559 0.93248 0.57824 0.0
H3217 H 0.55229 0.88839 0.58272 0.0
H3218 H 0.53803 0.99235 0.57529 0.0
H3219 H 0.49223 0.92562 0.61647 0.0
H3220 H 0.48999 0.89257 0.64336 0.0
H3221 H 0.50879 0.96067 0.68153 0.0
H3222 H 0.51167 0.99405 0.6548 0.0
H3223 H 0.41862 0.08575 0.5775 0.0
H3224 H 0.44634 0.04166 0.57696 0.0
H3225 H 0.48686 0.0657 0.62911 0.0
H3226 H 0.45904 0.10934 0.62984 0.0
H3227 H 0.47257 0.00989 0.6289 0.0
H3228 H 0.52071 0.07585 0.58838 0.0
H3229 H 0.52444 0.10962 0.56192 0.0
H3230 H 0.50204 0.04364 0.52294 0.0
H3231 H 0.49778 0.00965 0.54927 0.0
C3232 C 0.57895 0.92613 0.61971 0.0
C3233 C 0.57445 0.90289 0.60769 0.0
C3234 C 0.56358 0.95115 0.6172 0.0
C3235 C 0.54359 0.95336 0.60261 0.0
C3236 C 0.54086 0.93112 0.58961 0.0
C3237 C 0.55606 0.90598 0.5922 0.0
C3238 C 0.52337 0.97737 0.60227 0.0
C3239 C 0.52343 0.99601 0.58687 0.0
C3240 C 0.50454 0.98221 0.61748 0.0
C3241 C 0.50244 0.96228 0.63361 0.0
C3242 C 0.49611 0.93351 0.63058 0.0
C3243 C 0.4947 0.91472 0.64579 0.0
C3244 C 0.49931 0.9245 0.66414 0.0
C3245 C 0.50526 0.95312 0.66731 0.0
C3246 C 0.50678 0.97198 0.65213 0.0
C3247 C 0.43307 0.08131 0.58899 0.0
C3248 C 0.43682 0.10099 0.60365 0.0
C3249 C 0.44906 0.0563 0.58859 0.0
C3250 C 0.46891 0.0506 0.60289 0.0
C3251 C 0.47174 0.0697 0.61792 0.0
C3252 C 0.45593 0.09466 0.61828 0.0
C3253 C 0.48744 0.02523 0.60205 0.0
C3254 C 0.487 0.00619 0.61724 0.0
C3255 C 0.50592 0.0201 0.58667 0.0
C3256 C 0.50858 0.04037 0.5708 0.0
C3257 C 0.51633 0.06867 0.57418 0.0
C3258 C 0.51859 0.08782 0.55921 0.0
C3259 C 0.51338 0.0788 0.54075 0.0
C3260 C 0.506 0.0506 0.53724 0.0
C3261 C 0.50368 0.03139 0.55219 0.0
H3262 H 0.51515 0.09364 0.52917 0.0
H3263 H 0.4982 0.90993 0.67591 0.0
loop_
_geom_bond_atom_site_label_1
_geom_bond_atom_site_label_2
_geom_bond_distance
_geom_bond_site_symmetry_2
_ccdc_geom_bond_type
O0 Tb1 2.292 . S
O0 C3 1.255 . S
Tb1 O0 2.292 . S
Tb1 O17 2.326 . S
Tb1 O19 2.500 . S
Tb1 O20 2.473 . S
Tb1 O23 2.324 . S
Eu2 O6 2.292 . S
Eu2 C7 2.852 . S
Eu2 O18 2.324 . S
Eu2 O22 2.326 . S
Eu2 O24 2.500 . S
Eu2 O25 2.473 . S
C3 O0 1.255 . S
C3 O4 1.247 . S
O4 C3 1.247 . S
C5 O17 1.242 . S
C5 O18 1.258 . S
O6 Eu2 2.292 . S
O6 C8 1.255 . S
C7 Eu2 2.852 . S
C7 C11 1.503 . S
C7 O24 1.273 . S
C7 O25 1.257 . S
C8 O6 1.255 . S
C8 O9 1.247 . S
O9 C8 1.247 . S
C10 O22 1.242 . S
C10 O23 1.258 . S
C11 C7 1.503 . S
C11 C12 1.379 . S
C11 C16 1.392 . S
C12 C11 1.379 . S
C12 C13 1.404 . S
C12 H26 0.929 . S
C13 C12 1.404 . S
C13 C14 1.389 . S
C14 C13 1.389 . S
C14 C15 1.399 . S
C14 H27 0.931 . S
C15 C14 1.399 . S
C15 C16 1.390 . S
C16 C11 1.392 . S
C16 C15 1.390 . S
C16 H28 0.929 . S
O17 Tb1 2.326 . S
O17 C5 1.242 . S
O18 Eu2 2.324 . S
O18 C5 1.258 . S
O19 Tb1 2.500 . S
O19 C21 1.273 . S
O20 Tb1 2.473 . S
O20 C21 1.257 . S
C21 O19 1.273 . S
C21 O20 1.257 . S
O22 Eu2 2.326 . S
O22 C10 1.242 . S
O23 Tb1 2.324 . S
O23 C10 1.258 . S
O24 Eu2 2.500 . S
O24 C7 1.273 . S
O25 Eu2 2.473 . S
O25 C7 1.257 . S
H26 C12 0.929 . S
H27 C14 0.931 . S
H28 C16 0.929 . S
O29 Tb30 2.292 . S
O29 C32 1.255 . S
Tb30 O29 2.292 . S
Tb30 O46 2.326 . S
Tb30 O48 2.500 . S
Tb30 O49 2.473 . S
Tb30 O52 2.324 . S
Eu31 O35 2.292 . S
Eu31 C36 2.852 . S
Eu31 O47 2.324 . S
Eu31 O51 2.326 . S
Eu31 O53 2.500 . S
Eu31 O54 2.473 . S
C32 O29 1.255 . S
C32 O33 1.247 . S
O33 C32 1.247 . S
C34 O46 1.242 . S
C34 O47 1.258 . S
O35 Eu31 2.292 . S
O35 C37 1.255 . S
C36 Eu31 2.852 . S
C36 C40 1.503 . S
C36 O53 1.273 . S
C36 O54 1.257 . S
C37 O35 1.255 . S
C37 O38 1.247 . S
O38 C37 1.247 . S
C39 O51 1.242 . S
C39 O52 1.258 . S
C40 C36 1.503 . S
C40 C41 1.379 . S
C40 C45 1.392 . S
C41 C40 1.379 . S
C41 C42 1.404 . S
C41 H55 0.929 . S
C42 C41 1.404 . S
C42 C43 1.389 . S
C43 C42 1.389 . S
C43 C44 1.399 . S
C43 H56 0.931 . S
C44 C43 1.399 . S
C44 C45 1.390 . S
C45 C40 1.392 . S
C45 C44 1.390 . S
C45 H57 0.929 . S
O46 Tb30 2.326 . S
O46 C34 1.242 . S
O47 Eu31 2.324 . S
O47 C34 1.258 . S
O48 Tb30 2.500 . S
O48 C50 1.273 . S
O49 Tb30 2.473 . S
O49 C50 1.257 . S
C50 O48 1.273 . S
C50 O49 1.257 . S
O51 Eu31 2.326 . S
O51 C39 1.242 . S
O52 Tb30 2.324 . S
O52 C39 1.258 . S
O53 Eu31 2.500 . S
O53 C36 1.273 . S
O54 Eu31 2.473 . S
O54 C36 1.257 . S
H55 C41 0.929 . S
H56 C43 0.931 . S
H57 C45 0.929 . S
O58 Tb59 2.292 . S
O58 C61 1.255 . S
Tb59 O58 2.292 . S
Tb59 O75 2.326 . S
Tb59 O77 2.500 . S
Tb59 O78 2.473 . S
Tb59 O81 2.324 . S
Eu60 O64 2.292 . S
Eu60 C65 2.852 . S
Eu60 O76 2.324 . S
Eu60 O80 2.326 . S
Eu60 O82 2.500 . S
Eu60 O83 2.473 . S
C61 O58 1.255 . S
C61 O62 1.247 . S
O62 C61 1.247 . S
C63 O75 1.242 . S
C63 O76 1.258 . S
O64 Eu60 2.292 . S
O64 C66 1.255 . S
C65 Eu60 2.852 . S
C65 C69 1.503 . S
C65 O82 1.273 . S
C65 O83 1.257 . S
C66 O64 1.255 . S
C66 O67 1.247 . S
O67 C66 1.247 . S
C68 O80 1.242 . S
C68 O81 1.258 . S
C69 C65 1.503 . S
C69 C70 1.379 . S
C69 C74 1.392 . S
C70 C69 1.379 . S
C70 C71 1.404 . S
C70 H84 0.929 . S
C71 C70 1.404 . S
C71 C72 1.389 . S
C72 C71 1.389 . S
C72 C73 1.399 . S
C72 H85 0.931 . S
C73 C72 1.399 . S
C73 C74 1.390 . S
C74 C69 1.392 . S
C74 C73 1.390 . S
C74 H86 0.929 . S
O75 Tb59 2.326 . S
O75 C63 1.242 . S
O76 Eu60 2.324 . S
O76 C63 1.258 . S
O77 Tb59 2.500 . S
O77 C79 1.273 . S
O78 Tb59 2.473 . S
O78 C79 1.257 . S
C79 O77 1.273 . S
C79 O78 1.257 . S
O80 Eu60 2.326 . S
O80 C68 1.242 . S
O81 Tb59 2.324 . S
O81 C68 1.258 . S
O82 Eu60 2.500 . S
O82 C65 1.273 . S
O83 Eu60 2.473 . S
O83 C65 1.257 . S
H84 C70 0.929 . S
H85 C72 0.931 . S
H86 C74 0.929 . S
O87 Tb88 2.292 . S
O87 C90 1.255 . S
Tb88 O87 2.292 . S
Tb88 O104 2.326 . S
Tb88 O106 2.500 . S
Tb88 O107 2.473 . S
Tb88 O110 2.324 . S
Eu89 O93 2.292 . S
Eu89 C94 2.852 . S
Eu89 O105 2.324 . S
Eu89 O109 2.326 . S
Eu89 O111 2.500 . S
Eu89 O112 2.473 . S
C90 O87 1.255 . S
C90 O91 1.247 . S
O91 C90 1.247 . S
C92 O104 1.242 . S
C92 O105 1.258 . S
O93 Eu89 2.292 . S
O93 C95 1.255 . S
C94 Eu89 2.852 . S
C94 C98 1.503 . S
C94 O111 1.273 . S
C94 O112 1.257 . S
C95 O93 1.255 . S
C95 O96 1.247 . S
O96 C95 1.247 . S
C97 O109 1.242 . S
C97 O110 1.258 . S
C98 C94 1.503 . S
C98 C99 1.379 . S
C98 C103 1.392 . S
C99 C98 1.379 . S
C99 C100 1.404 . S
C99 H113 0.929 . S
C100 C99 1.404 . S
C100 C101 1.389 . S
C101 C100 1.389 . S
C101 C102 1.399 . S
C101 H114 0.931 . S
C102 C101 1.399 . S
C102 C103 1.390 . S
C103 C98 1.392 . S
C103 C102 1.390 . S
C103 H115 0.929 . S
O104 Tb88 2.326 . S
O104 C92 1.242 . S
O105 Eu89 2.324 . S
O105 C92 1.258 . S
O106 Tb88 2.500 . S
O106 C108 1.273 . S
O107 Tb88 2.473 . S
O107 C108 1.257 . S
C108 O106 1.273 . S
C108 O107 1.257 . S
O109 Eu89 2.326 . S
O109 C97 1.242 . S
O110 Tb88 2.324 . S
O110 C97 1.258 . S
O111 Eu89 2.500 . S
O111 C94 1.273 . S
O112 Eu89 2.473 . S
O112 C94 1.257 . S
H113 C99 0.929 . S
H114 C101 0.931 . S
H115 C103 0.929 . S
O116 Tb117 2.292 . S
O116 C119 1.255 . S
Tb117 O116 2.292 . S
Tb117 O133 2.326 . S
Tb117 O135 2.500 . S
Tb117 O136 2.473 . S
Tb117 O139 2.324 . S
Eu118 O122 2.292 . S
Eu118 C123 2.852 . S
Eu118 O134 2.324 . S
Eu118 O138 2.326 . S
Eu118 O140 2.500 . S
Eu118 O141 2.473 . S
C119 O116 1.255 . S
C119 O120 1.247 . S
O120 C119 1.247 . S
C121 O133 1.242 . S
C121 O134 1.258 . S
O122 Eu118 2.292 . S
O122 C124 1.255 . S
C123 Eu118 2.852 . S
C123 C127 1.503 . S
C123 O140 1.273 . S
C123 O141 1.257 . S
C124 O122 1.255 . S
C124 O125 1.247 . S
O125 C124 1.247 . S
C126 O138 1.242 . S
C126 O139 1.258 . S
C127 C123 1.503 . S
C127 C128 1.379 . S
C127 C132 1.392 . S
C128 C127 1.379 . S
C128 C129 1.404 . S
C128 H142 0.929 . S
C129 C128 1.404 . S
C129 C130 1.389 . S
C130 C129 1.389 . S
C130 C131 1.399 . S
C130 H143 0.931 . S
C131 C130 1.399 . S
C131 C132 1.390 . S
C132 C127 1.392 . S
C132 C131 1.390 . S
C132 H144 0.929 . S
O133 Tb117 2.326 . S
O133 C121 1.242 . S
O134 Eu118 2.324 . S
O134 C121 1.258 . S
O135 Tb117 2.500 . S
O135 C137 1.273 . S
O136 Tb117 2.473 . S
O136 C137 1.257 . S
C137 O135 1.273 . S
C137 O136 1.257 . S
O138 Eu118 2.326 . S
O138 C126 1.242 . S
O139 Tb117 2.324 . S
O139 C126 1.258 . S
O140 Eu118 2.500 . S
O140 C123 1.273 . S
O141 Eu118 2.473 . S
O141 C123 1.257 . S
H142 C128 0.929 . S
H143 C130 0.931 . S
H144 C132 0.929 . S
O145 Tb146 2.292 . S
O145 C148 1.255 . S
Tb146 O145 2.292 . S
Tb146 O162 2.326 . S
Tb146 O164 2.500 . S
Tb146 O165 2.473 . S
Tb146 O168 2.324 . S
Eu147 O151 2.292 . S
Eu147 C152 2.852 . S
Eu147 O163 2.324 . S
Eu147 O167 2.326 . S
Eu147 O169 2.500 . S
Eu147 O170 2.473 . S
C148 O145 1.255 . S
C148 O149 1.247 . S
O149 C148 1.247 . S
C150 O162 1.242 . S
C150 O163 1.258 . S
O151 Eu147 2.292 . S
O151 C153 1.255 . S
C152 Eu147 2.852 . S
C152 C156 1.503 . S
C152 O169 1.273 . S
C152 O170 1.257 . S
C153 O151 1.255 . S
C153 O154 1.247 . S
O154 C153 1.247 . S
C155 O167 1.242 . S
C155 O168 1.258 . S
C156 C152 1.503 . S
C156 C157 1.379 . S
C156 C161 1.392 . S
C157 C156 1.379 . S
C157 C158 1.404 . S
C157 H171 0.929 . S
C158 C157 1.404 . S
C158 C159 1.389 . S
C159 C158 1.389 . S
C159 C160 1.399 . S
C159 H172 0.931 . S
C160 C159 1.399 . S
C160 C161 1.390 . S
C161 C156 1.392 . S
C161 C160 1.390 . S
C161 H173 0.929 . S
O162 Tb146 2.326 . S
O162 C150 1.242 . S
O163 Eu147 2.324 . S
O163 C150 1.258 . S
O164 Tb146 2.500 . S
O164 C166 1.273 . S
O165 Tb146 2.473 . S
O165 C166 1.257 . S
C166 O164 1.273 . S
C166 O165 1.257 . S
O167 Eu147 2.326 . S
O167 C155 1.242 . S
O168 Tb146 2.324 . S
O168 C155 1.258 . S
O169 Eu147 2.500 . S
O169 C152 1.273 . S
O170 Eu147 2.473 . S
O170 C152 1.257 . S
H171 C157 0.929 . S
H172 C159 0.931 . S
H173 C161 0.929 . S
O174 Tb175 2.292 . S
O174 C177 1.255 . S
Tb175 O174 2.292 . S
Tb175 O191 2.326 . S
Tb175 O193 2.500 . S
Tb175 O194 2.473 . S
Tb175 O197 2.324 . S
Eu176 O180 2.292 . S
Eu176 C181 2.852 . S
Eu176 O192 2.324 . S
Eu176 O196 2.326 . S
Eu176 O198 2.500 . S
Eu176 O199 2.473 . S
C177 O174 1.255 . S
C177 O178 1.247 . S
O178 C177 1.247 . S
C179 O191 1.242 . S
C179 O192 1.258 . S
O180 Eu176 2.292 . S
O180 C182 1.255 . S
C181 Eu176 2.852 . S
C181 C185 1.503 . S
C181 O198 1.273 . S
C181 O199 1.257 . S
C182 O180 1.255 . S
C182 O183 1.247 . S
O183 C182 1.247 . S
C184 O196 1.242 . S
C184 O197 1.258 . S
C185 C181 1.503 . S
C185 C186 1.379 . S
C185 C190 1.392 . S
C186 C185 1.379 . S
C186 C187 1.404 . S
C186 H200 0.929 . S
C187 C186 1.404 . S
C187 C188 1.389 . S
C188 C187 1.389 . S
C188 C189 1.399 . S
C188 H201 0.931 . S
C189 C188 1.399 . S
C189 C190 1.390 . S
C190 C185 1.392 . S
C190 C189 1.390 . S
C190 H202 0.929 . S
O191 Tb175 2.326 . S
O191 C179 1.242 . S
O192 Eu176 2.324 . S
O192 C179 1.258 . S
O193 Tb175 2.500 . S
O193 C195 1.273 . S
O194 Tb175 2.473 . S
O194 C195 1.257 . S
C195 O193 1.273 . S
C195 O194 1.257 . S
O196 Eu176 2.326 . S
O196 C184 1.242 . S
O197 Tb175 2.324 . S
O197 C184 1.258 . S
O198 Eu176 2.500 . S
O198 C181 1.273 . S
O199 Eu176 2.473 . S
O199 C181 1.257 . S
H200 C186 0.929 . S
H201 C188 0.931 . S
H202 C190 0.929 . S
O203 Tb204 2.292 . S
O203 C206 1.255 . S
Tb204 O203 2.292 . S
Tb204 O220 2.326 . S
Tb204 O222 2.500 . S
Tb204 O223 2.473 . S
Tb204 O226 2.324 . S
Eu205 O209 2.292 . S
Eu205 C210 2.852 . S
Eu205 O221 2.324 . S
Eu205 O225 2.326 . S
Eu205 O227 2.500 . S
Eu205 O228 2.473 . S
C206 O203 1.255 . S
C206 O207 1.247 . S
O207 C206 1.247 . S
C208 O220 1.242 . S
C208 O221 1.258 . S
O209 Eu205 2.292 . S
O209 C211 1.255 . S
C210 Eu205 2.852 . S
C210 C214 1.503 . S
C210 O227 1.273 . S
C210 O228 1.257 . S
C211 O209 1.255 . S
C211 O212 1.247 . S
O212 C211 1.247 . S
C213 O225 1.242 . S
C213 O226 1.258 . S
C214 C210 1.503 . S
C214 C215 1.379 . S
C214 C219 1.392 . S
C215 C214 1.379 . S
C215 C216 1.404 . S
C215 H229 0.929 . S
C216 C215 1.404 . S
C216 C217 1.389 . S
C217 C216 1.389 . S
C217 C218 1.399 . S
C217 H230 0.931 . S
C218 C217 1.399 . S
C218 C219 1.390 . S
C219 C214 1.392 . S
C219 C218 1.390 . S
C219 H231 0.929 . S
O220 Tb204 2.326 . S
O220 C208 1.242 . S
O221 Eu205 2.324 . S
O221 C208 1.258 . S
O222 Tb204 2.500 . S
O222 C224 1.273 . S
O223 Tb204 2.473 . S
O223 C224 1.257 . S
C224 O222 1.273 . S
C224 O223 1.257 . S
O225 Eu205 2.326 . S
O225 C213 1.242 . S
O226 Tb204 2.324 . S
O226 C213 1.258 . S
O227 Eu205 2.500 . S
O227 C210 1.273 . S
O228 Eu205 2.473 . S
O228 C210 1.257 . S
H229 C215 0.929 . S
H230 C217 0.931 . S
H231 C219 0.929 . S
O232 Tb233 2.292 . S
O232 C235 1.255 . S
Tb233 O232 2.292 . S
Tb233 O249 2.326 . S
Tb233 O251 2.500 . S
Tb233 O252 2.473 . S
Tb233 O255 2.324 . S
Eu234 O238 2.292 . S
Eu234 C239 2.852 . S
Eu234 O250 2.324 . S
Eu234 O254 2.326 . S
Eu234 O256 2.500 . S
Eu234 O257 2.473 . S
C235 O232 1.255 . S
C235 O236 1.247 . S
O236 C235 1.247 . S
C237 O249 1.242 . S
C237 O250 1.258 . S
O238 Eu234 2.292 . S
O238 C240 1.255 . S
C239 Eu234 2.852 . S
C239 C243 1.503 . S
C239 O256 1.273 . S
C239 O257 1.257 . S
C240 O238 1.255 . S
C240 O241 1.247 . S
O241 C240 1.247 . S
C242 O254 1.242 . S
C242 O255 1.258 . S
C243 C239 1.503 . S
C243 C244 1.379 . S
C243 C248 1.392 . S
C244 C243 1.379 . S
C244 C245 1.404 . S
C244 H258 0.929 . S
C245 C244 1.404 . S
C245 C246 1.389 . S
C246 C245 1.389 . S
C246 C247 1.399 . S
C246 H259 0.931 . S
C247 C246 1.399 . S
C247 C248 1.390 . S
C248 C243 1.392 . S
C248 C247 1.390 . S
C248 H260 0.929 . S
O249 Tb233 2.326 . S
O249 C237 1.242 . S
O250 Eu234 2.324 . S
O250 C237 1.258 . S
O251 Tb233 2.500 . S
O251 C253 1.273 . S
O252 Tb233 2.473 . S
O252 C253 1.257 . S
C253 O251 1.273 . S
C253 O252 1.257 . S
O254 Eu234 2.326 . S
O254 C242 1.242 . S
O255 Tb233 2.324 . S
O255 C242 1.258 . S
O256 Eu234 2.500 . S
O256 C239 1.273 . S
O257 Eu234 2.473 . S
O257 C239 1.257 . S
H258 C244 0.929 . S
H259 C246 0.931 . S
H260 C248 0.929 . S
O261 Tb262 2.292 . S
O261 C264 1.255 . S
Tb262 O261 2.292 . S
Tb262 O278 2.326 . S
Tb262 O280 2.500 . S
Tb262 O281 2.473 . S
Tb262 O284 2.324 . S
Eu263 O267 2.292 . S
Eu263 C268 2.852 . S
Eu263 O279 2.324 . S
Eu263 O283 2.326 . S
Eu263 O285 2.500 . S
Eu263 O286 2.473 . S
C264 O261 1.255 . S
C264 O265 1.247 . S
O265 C264 1.247 . S
C266 O278 1.242 . S
C266 O279 1.258 . S
O267 Eu263 2.292 . S
O267 C269 1.255 . S
C268 Eu263 2.852 . S
C268 C272 1.503 . S
C268 O285 1.273 . S
C268 O286 1.257 . S
C269 O267 1.255 . S
C269 O270 1.247 . S
O270 C269 1.247 . S
C271 O283 1.242 . S
C271 O284 1.258 . S
C272 C268 1.503 . S
C272 C273 1.379 . S
C272 C277 1.392 . S
C273 C272 1.379 . S
C273 C274 1.404 . S
C273 H287 0.929 . S
C274 C273 1.404 . S
C274 C275 1.389 . S
C275 C274 1.389 . S
C275 C276 1.399 . S
C275 H288 0.931 . S
C276 C275 1.399 . S
C276 C277 1.390 . S
C277 C272 1.392 . S
C277 C276 1.390 . S
C277 H289 0.929 . S
O278 Tb262 2.326 . S
O278 C266 1.242 . S
O279 Eu263 2.324 . S
O279 C266 1.258 . S
O280 Tb262 2.500 . S
O280 C282 1.273 . S
O281 Tb262 2.473 . S
O281 C282 1.257 . S
C282 O280 1.273 . S
C282 O281 1.257 . S
O283 Eu263 2.326 . S
O283 C271 1.242 . S
O284 Tb262 2.324 . S
O284 C271 1.258 . S
O285 Eu263 2.500 . S
O285 C268 1.273 . S
O286 Eu263 2.473 . S
O286 C268 1.257 . S
H287 C273 0.929 . S
H288 C275 0.931 . S
H289 C277 0.929 . S
O290 Tb291 2.292 . S
O290 C293 1.255 . S
Tb291 O290 2.292 . S
Tb291 O307 2.326 . S
Tb291 O309 2.500 . S
Tb291 O310 2.473 . S
Tb291 O313 2.324 . S
Eu292 O296 2.292 . S
Eu292 C297 2.852 . S
Eu292 O308 2.324 . S
Eu292 O312 2.326 . S
Eu292 O314 2.500 . S
Eu292 O315 2.473 . S
C293 O290 1.255 . S
C293 O294 1.247 . S
O294 C293 1.247 . S
C295 O307 1.242 . S
C295 O308 1.258 . S
O296 Eu292 2.292 . S
O296 C298 1.255 . S
C297 Eu292 2.852 . S
C297 C301 1.503 . S
C297 O314 1.273 . S
C297 O315 1.257 . S
C298 O296 1.255 . S
C298 O299 1.247 . S
O299 C298 1.247 . S
C300 O312 1.242 . S
C300 O313 1.258 . S
C301 C297 1.503 . S
C301 C302 1.379 . S
C301 C306 1.392 . S
C302 C301 1.379 . S
C302 C303 1.404 . S
C302 H316 0.929 . S
C303 C302 1.404 . S
C303 C304 1.389 . S
C304 C303 1.389 . S
C304 C305 1.399 . S
C304 H317 0.931 . S
C305 C304 1.399 . S
C305 C306 1.390 . S
C306 C301 1.392 . S
C306 C305 1.390 . S
C306 H318 0.929 . S
O307 Tb291 2.326 . S
O307 C295 1.242 . S
O308 Eu292 2.324 . S
O308 C295 1.258 . S
O309 Tb291 2.500 . S
O309 C311 1.273 . S
O310 Tb291 2.473 . S
O310 C311 1.257 . S
C311 O309 1.273 . S
C311 O310 1.257 . S
O312 Eu292 2.326 . S
O312 C300 1.242 . S
O313 Tb291 2.324 . S
O313 C300 1.258 . S
O314 Eu292 2.500 . S
O314 C297 1.273 . S
O315 Eu292 2.473 . S
O315 C297 1.257 . S
H316 C302 0.929 . S
H317 C304 0.931 . S
H318 C306 0.929 . S
O319 Tb320 2.292 . S
O319 C322 1.255 . S
Tb320 O319 2.292 . S
Tb320 O336 2.326 . S
Tb320 O338 2.500 . S
Tb320 O339 2.473 . S
Tb320 O342 2.324 . S
Eu321 O325 2.292 . S
Eu321 C326 2.852 . S
Eu321 O337 2.324 . S
Eu321 O341 2.326 . S
Eu321 O343 2.500 . S
Eu321 O344 2.473 . S
C322 O319 1.255 . S
C322 O323 1.247 . S
O323 C322 1.247 . S
C324 O336 1.242 . S
C324 O337 1.258 . S
O325 Eu321 2.292 . S
O325 C327 1.255 . S
C326 Eu321 2.852 . S
C326 C330 1.503 . S
C326 O343 1.273 . S
C326 O344 1.257 . S
C327 O325 1.255 . S
C327 O328 1.247 . S
O328 C327 1.247 . S
C329 O341 1.242 . S
C329 O342 1.258 . S
C330 C326 1.503 . S
C330 C331 1.379 . S
C330 C335 1.392 . S
C331 C330 1.379 . S
C331 C332 1.404 . S
C331 H345 0.929 . S
C332 C331 1.404 . S
C332 C333 1.389 . S
C333 C332 1.389 . S
C333 C334 1.399 . S
C333 H346 0.931 . S
C334 C333 1.399 . S
C334 C335 1.390 . S
C335 C330 1.392 . S
C335 C334 1.390 . S
C335 H347 0.929 . S
O336 Tb320 2.326 . S
O336 C324 1.242 . S
O337 Eu321 2.324 . S
O337 C324 1.258 . S
O338 Tb320 2.500 . S
O338 C340 1.273 . S
O339 Tb320 2.473 . S
O339 C340 1.257 . S
C340 O338 1.273 . S
C340 O339 1.257 . S
O341 Eu321 2.326 . S
O341 C329 1.242 . S
O342 Tb320 2.324 . S
O342 C329 1.258 . S
O343 Eu321 2.500 . S
O343 C326 1.273 . S
O344 Eu321 2.473 . S
O344 C326 1.257 . S
H345 C331 0.929 . S
H346 C333 0.931 . S
H347 C335 0.929 . S
O348 Tb349 2.292 . S
O348 C351 1.255 . S
Tb349 O348 2.292 . S
Tb349 O365 2.326 . S
Tb349 O367 2.500 . S
Tb349 O368 2.473 . S
Tb349 O371 2.324 . S
Eu350 O354 2.292 . S
Eu350 C355 2.852 . S
Eu350 O366 2.324 . S
Eu350 O370 2.326 . S
Eu350 O372 2.500 . S
Eu350 O373 2.473 . S
C351 O348 1.255 . S
C351 O352 1.247 . S
O352 C351 1.247 . S
C353 O365 1.242 . S
C353 O366 1.258 . S
O354 Eu350 2.292 . S
O354 C356 1.255 . S
C355 Eu350 2.852 . S
C355 C359 1.503 . S
C355 O372 1.273 . S
C355 O373 1.257 . S
C356 O354 1.255 . S
C356 O357 1.247 . S
O357 C356 1.247 . S
C358 O370 1.242 . S
C358 O371 1.258 . S
C359 C355 1.503 . S
C359 C360 1.379 . S
C359 C364 1.392 . S
C360 C359 1.379 . S
C360 C361 1.404 . S
C360 H374 0.929 . S
C361 C360 1.404 . S
C361 C362 1.389 . S
C362 C361 1.389 . S
C362 C363 1.399 . S
C362 H375 0.931 . S
C363 C362 1.399 . S
C363 C364 1.390 . S
C364 C359 1.392 . S
C364 C363 1.390 . S
C364 H376 0.929 . S
O365 Tb349 2.326 . S
O365 C353 1.242 . S
O366 Eu350 2.324 . S
O366 C353 1.258 . S
O367 Tb349 2.500 . S
O367 C369 1.273 . S
O368 Tb349 2.473 . S
O368 C369 1.257 . S
C369 O367 1.273 . S
C369 O368 1.257 . S
O370 Eu350 2.326 . S
O370 C358 1.242 . S
O371 Tb349 2.324 . S
O371 C358 1.258 . S
O372 Eu350 2.500 . S
O372 C355 1.273 . S
O373 Eu350 2.473 . S
O373 C355 1.257 . S
H374 C360 0.929 . S
H375 C362 0.931 . S
H376 C364 0.929 . S
O377 Tb378 2.292 . S
O377 C380 1.255 . S
Tb378 O377 2.292 . S
Tb378 O394 2.326 . S
Tb378 O396 2.500 . S
Tb378 O397 2.473 . S
Tb378 O400 2.324 . S
Eu379 O383 2.292 . S
Eu379 C384 2.852 . S
Eu379 O395 2.324 . S
Eu379 O399 2.326 . S
Eu379 O401 2.500 . S
Eu379 O402 2.473 . S
C380 O377 1.255 . S
C380 O381 1.247 . S
O381 C380 1.247 . S
C382 O394 1.242 . S
C382 O395 1.258 . S
O383 Eu379 2.292 . S
O383 C385 1.255 . S
C384 Eu379 2.852 . S
C384 C388 1.503 . S
C384 O401 1.273 . S
C384 O402 1.257 . S
C385 O383 1.255 . S
C385 O386 1.247 . S
O386 C385 1.247 . S
C387 O399 1.242 . S
C387 O400 1.258 . S
C388 C384 1.503 . S
C388 C389 1.379 . S
C388 C393 1.392 . S
C389 C388 1.379 . S
C389 C390 1.404 . S
C389 H403 0.929 . S
C390 C389 1.404 . S
C390 C391 1.389 . S
C391 C390 1.389 . S
C391 C392 1.399 . S
C391 H404 0.931 . S
C392 C391 1.399 . S
C392 C393 1.390 . S
C393 C388 1.392 . S
C393 C392 1.390 . S
C393 H405 0.929 . S
O394 Tb378 2.326 . S
O394 C382 1.242 . S
O395 Eu379 2.324 . S
O395 C382 1.258 . S
O396 Tb378 2.500 . S
O396 C398 1.273 . S
O397 Tb378 2.473 . S
O397 C398 1.257 . S
C398 O396 1.273 . S
C398 O397 1.257 . S
O399 Eu379 2.326 . S
O399 C387 1.242 . S
O400 Tb378 2.324 . S
O400 C387 1.258 . S
O401 Eu379 2.500 . S
O401 C384 1.273 . S
O402 Eu379 2.473 . S
O402 C384 1.257 . S
H403 C389 0.929 . S
H404 C391 0.931 . S
H405 C393 0.929 . S
O406 Tb407 2.292 . S
O406 C409 1.255 . S
Tb407 O406 2.292 . S
Tb407 O423 2.326 . S
Tb407 O425 2.500 . S
Tb407 O426 2.473 . S
Tb407 O429 2.324 . S
Eu408 O412 2.292 . S
Eu408 C413 2.852 . S
Eu408 O424 2.324 . S
Eu408 O428 2.326 . S
Eu408 O430 2.500 . S
Eu408 O431 2.473 . S
C409 O406 1.255 . S
C409 O410 1.247 . S
O410 C409 1.247 . S
C411 O423 1.242 . S
C411 O424 1.258 . S
O412 Eu408 2.292 . S
O412 C414 1.255 . S
C413 Eu408 2.852 . S
C413 C417 1.503 . S
C413 O430 1.273 . S
C413 O431 1.257 . S
C414 O412 1.255 . S
C414 O415 1.247 . S
O415 C414 1.247 . S
C416 O428 1.242 . S
C416 O429 1.258 . S
C417 C413 1.503 . S
C417 C418 1.379 . S
C417 C422 1.392 . S
C418 C417 1.379 . S
C418 C419 1.404 . S
C418 H432 0.929 . S
C419 C418 1.404 . S
C419 C420 1.389 . S
C420 C419 1.389 . S
C420 C421 1.399 . S
C420 H433 0.931 . S
C421 C420 1.399 . S
C421 C422 1.390 . S
C422 C417 1.392 . S
C422 C421 1.390 . S
C422 H434 0.929 . S
O423 Tb407 2.326 . S
O423 C411 1.242 . S
O424 Eu408 2.324 . S
O424 C411 1.258 . S
O425 Tb407 2.500 . S
O425 C427 1.273 . S
O426 Tb407 2.473 . S
O426 C427 1.257 . S
C427 O425 1.273 . S
C427 O426 1.257 . S
O428 Eu408 2.326 . S
O428 C416 1.242 . S
O429 Tb407 2.324 . S
O429 C416 1.258 . S
O430 Eu408 2.500 . S
O430 C413 1.273 . S
O431 Eu408 2.473 . S
O431 C413 1.257 . S
H432 C418 0.929 . S
H433 C420 0.931 . S
H434 C422 0.929 . S
O435 Tb436 2.292 . S
O435 C438 1.255 . S
Tb436 O435 2.292 . S
Tb436 O452 2.326 . S
Tb436 O454 2.500 . S
Tb436 O455 2.473 . S
Tb436 O458 2.324 . S
Eu437 O441 2.292 . S
Eu437 C442 2.852 . S
Eu437 O453 2.324 . S
Eu437 O457 2.326 . S
Eu437 O459 2.500 . S
Eu437 O460 2.473 . S
C438 O435 1.255 . S
C438 O439 1.247 . S
O439 C438 1.247 . S
C440 O452 1.242 . S
C440 O453 1.258 . S
O441 Eu437 2.292 . S
O441 C443 1.255 . S
C442 Eu437 2.852 . S
C442 C446 1.503 . S
C442 O459 1.273 . S
C442 O460 1.257 . S
C443 O441 1.255 . S
C443 O444 1.247 . S
O444 C443 1.247 . S
C445 O457 1.242 . S
C445 O458 1.258 . S
C446 C442 1.503 . S
C446 C447 1.379 . S
C446 C451 1.392 . S
C447 C446 1.379 . S
C447 C448 1.404 . S
C447 H461 0.929 . S
C448 C447 1.404 . S
C448 C449 1.389 . S
C449 C448 1.389 . S
C449 C450 1.399 . S
C449 H462 0.931 . S
C450 C449 1.399 . S
C450 C451 1.390 . S
C451 C446 1.392 . S
C451 C450 1.390 . S
C451 H463 0.929 . S
O452 Tb436 2.326 . S
O452 C440 1.242 . S
O453 Eu437 2.324 . S
O453 C440 1.258 . S
O454 Tb436 2.500 . S
O454 C456 1.273 . S
O455 Tb436 2.473 . S
O455 C456 1.257 . S
C456 O454 1.273 . S
C456 O455 1.257 . S
O457 Eu437 2.326 . S
O457 C445 1.242 . S
O458 Tb436 2.324 . S
O458 C445 1.258 . S
O459 Eu437 2.500 . S
O459 C442 1.273 . S
O460 Eu437 2.473 . S
O460 C442 1.257 . S
H461 C447 0.929 . S
H462 C449 0.931 . S
H463 C451 0.929 . S
H464 C482 0.951 . S
H465 C484 0.951 . S
H466 C486 0.950 . S
H467 C487 0.950 . S
H468 C489 0.950 . S
H469 C492 0.950 . S
H470 C493 0.950 . S
H471 C495 0.950 . S
H472 C496 0.950 1_556 S
H473 C497 0.951 . S
H474 C499 0.951 . S
H475 C501 0.950 . S
H476 C502 0.950 . S
H477 C504 0.950 . S
H478 C507 0.950 . S
H479 C508 0.950 . S
H480 C510 0.950 . S
H481 C511 0.950 1_554 S
C482 H464 0.951 . S
C482 C483 1.366 . S
C482 C484 1.388 . S
C483 C482 1.366 . S
C483 C487 1.385 . S
C484 H465 0.951 . S
C484 C482 1.388 . S
C484 C485 1.366 . S
C485 C484 1.366 . S
C485 C486 1.414 . S
C485 C488 1.499 . S
C486 H466 0.950 . S
C486 C485 1.414 . S
C486 C487 1.374 . S
C487 H467 0.950 . S
C487 C483 1.385 . S
C487 C486 1.374 . S
C488 C485 1.499 . S
C488 C489 1.373 . S
C488 C490 1.389 . S
C489 H468 0.950 . S
C489 C488 1.373 . S
C489 C505 1.377 1_554 S
C490 C488 1.389 . S
C490 C491 1.524 . S
C490 C504 1.377 1_554 S
C491 C490 1.524 . S
C491 C492 1.397 . S
C491 C496 1.363 . S
C492 H469 0.950 . S
C492 C491 1.397 . S
C492 C493 1.334 . S
C493 H470 0.950 . S
C493 C492 1.334 . S
C493 C494 1.287 . S
C494 C493 1.287 . S
C494 C495 1.524 . S
C494 H513 0.913 . S
C495 H471 0.950 . S
C495 C494 1.524 . S
C495 C496 1.415 . S
C496 H472 0.950 1_554 S
C496 C491 1.363 . S
C496 C495 1.415 . S
C497 H473 0.951 . S
C497 C498 1.366 . S
C497 C499 1.388 . S
C498 C497 1.366 . S
C498 C502 1.385 . S
C499 H474 0.951 . S
C499 C497 1.388 . S
C499 C500 1.366 . S
C500 C499 1.366 . S
C500 C501 1.414 . S
C500 C503 1.499 . S
C501 H475 0.950 . S
C501 C500 1.414 . S
C501 C502 1.374 . S
C502 H476 0.950 . S
C502 C498 1.385 . S
C502 C501 1.374 . S
C503 C500 1.499 . S
C503 C504 1.373 . S
C503 C505 1.389 . S
C504 H477 0.950 . S
C504 C490 1.377 1_556 S
C504 C503 1.373 . S
C505 C489 1.377 1_556 S
C505 C503 1.389 . S
C505 C506 1.524 . S
C506 C505 1.524 . S
C506 C507 1.397 . S
C506 C511 1.363 . S
C507 H478 0.950 . S
C507 C506 1.397 . S
C507 C508 1.334 . S
C508 H479 0.950 . S
C508 C507 1.334 . S
C508 C509 1.287 . S
C509 C508 1.287 . S
C509 C510 1.524 . S
C509 H512 0.999 . S
C510 H480 0.950 . S
C510 C509 1.524 . S
C510 C511 1.415 . S
C511 H481 0.950 1_556 S
C511 C506 1.363 . S
C511 C510 1.415 . S
H512 C509 0.999 . S
H513 C494 0.913 . S
H514 C532 0.951 . S
H515 C534 0.951 . S
H516 C536 0.950 . S
H517 C537 0.950 . S
H518 C539 0.950 . S
H519 C542 0.950 . S
H520 C543 0.950 . S
H521 C545 0.950 . S
H522 C546 0.950 . S
H523 C547 0.951 . S
H524 C549 0.951 . S
H525 C551 0.950 . S
H526 C552 0.950 . S
H527 C554 0.950 . S
H528 C557 0.950 . S
H529 C558 0.950 . S
H530 C560 0.950 . S
H531 C561 0.950 . S
C532 H514 0.951 . S
C532 C533 1.366 . S
C532 C534 1.388 . S
C533 C532 1.366 . S
C533 C537 1.385 . S
C534 H515 0.951 . S
C534 C532 1.388 . S
C534 C535 1.366 . S
C535 C534 1.366 . S
C535 C536 1.414 . S
C535 C538 1.499 . S
C536 H516 0.950 . S
C536 C535 1.414 . S
C536 C537 1.374 . S
C537 H517 0.950 . S
C537 C533 1.385 . S
C537 C536 1.374 . S
C538 C535 1.499 . S
C538 C539 1.373 . S
C538 C540 1.389 . S
C539 H518 0.950 . S
C539 C538 1.373 . S
C539 C555 1.377 1_554 S
C540 C538 1.389 . S
C540 C541 1.524 . S
C540 C554 1.377 1_554 S
C541 C540 1.524 . S
C541 C542 1.397 . S
C541 C546 1.363 . S
C542 H519 0.950 . S
C542 C541 1.397 . S
C542 C543 1.334 . S
C543 H520 0.950 . S
C543 C542 1.334 . S
C543 C544 1.287 . S
C544 C543 1.287 . S
C544 C545 1.524 . S
C544 H563 0.913 . S
C545 H521 0.950 . S
C545 C544 1.524 . S
C545 C546 1.415 . S
C546 H522 0.950 . S
C546 C541 1.363 . S
C546 C545 1.415 . S
C547 H523 0.951 . S
C547 C548 1.366 . S
C547 C549 1.388 . S
C548 C547 1.366 . S
C548 C552 1.385 . S
C549 H524 0.951 . S
C549 C547 1.388 . S
C549 C550 1.366 . S
C550 C549 1.366 . S
C550 C551 1.414 . S
C550 C553 1.499 . S
C551 H525 0.950 . S
C551 C550 1.414 . S
C551 C552 1.374 . S
C552 H526 0.950 . S
C552 C548 1.385 . S
C552 C551 1.374 . S
C553 C550 1.499 . S
C553 C554 1.373 . S
C553 C555 1.389 . S
C554 H527 0.950 . S
C554 C540 1.377 1_556 S
C554 C553 1.373 . S
C555 C539 1.377 1_556 S
C555 C553 1.389 . S
C555 C556 1.524 . S
C556 C555 1.524 . S
C556 C557 1.397 . S
C556 C561 1.363 . S
C557 H528 0.950 . S
C557 C556 1.397 . S
C557 C558 1.334 . S
C558 H529 0.950 . S
C558 C557 1.334 . S
C558 C559 1.287 . S
C559 C558 1.287 . S
C559 C560 1.524 . S
C559 H562 0.999 . S
C560 H530 0.950 . S
C560 C559 1.524 . S
C560 C561 1.415 . S
C561 H531 0.950 . S
C561 C556 1.363 . S
C561 C560 1.415 . S
H562 C559 0.999 . S
H563 C544 0.913 . S
H564 C582 0.951 . S
H565 C584 0.951 . S
H566 C586 0.950 . S
H567 C587 0.950 . S
H568 C589 0.950 . S
H569 C592 0.950 . S
H570 C593 0.950 . S
H571 C595 0.950 . S
H572 C596 0.950 1_554 S
H573 C597 0.951 . S
H574 C599 0.951 . S
H575 C601 0.950 . S
H576 C602 0.950 . S
H577 C604 0.950 . S
H578 C607 0.950 . S
H579 C608 0.950 . S
H580 C610 0.950 . S
H581 C611 0.950 1_556 S
C582 H564 0.951 . S
C582 C583 1.366 . S
C582 C584 1.388 . S
C583 C582 1.366 . S
C583 C587 1.385 . S
C584 H565 0.951 . S
C584 C582 1.388 . S
C584 C585 1.366 . S
C585 C584 1.366 . S
C585 C586 1.414 . S
C585 C588 1.499 . S
C586 H566 0.950 . S
C586 C585 1.414 . S
C586 C587 1.374 . S
C587 H567 0.950 . S
C587 C583 1.385 . S
C587 C586 1.374 . S
C588 C585 1.499 . S
C588 C589 1.373 . S
C588 C590 1.389 . S
C589 H568 0.950 . S
C589 C588 1.373 . S
C589 C605 1.377 1_556 S
C590 C588 1.389 . S
C590 C591 1.524 . S
C590 C604 1.377 1_556 S
C591 C590 1.524 . S
C591 C592 1.397 . S
C591 C596 1.363 . S
C592 H569 0.950 . S
C592 C591 1.397 . S
C592 C593 1.334 . S
C593 H570 0.950 . S
C593 C592 1.334 . S
C593 C594 1.287 . S
C594 C593 1.287 . S
C594 C595 1.524 . S
C594 H613 0.913 . S
C595 H571 0.950 . S
C595 C594 1.524 . S
C595 C596 1.415 . S
C596 H572 0.950 1_556 S
C596 C591 1.363 . S
C596 C595 1.415 . S
C597 H573 0.951 . S
C597 C598 1.366 . S
C597 C599 1.388 . S
C598 C597 1.366 . S
C598 C602 1.385 . S
C599 H574 0.951 . S
C599 C597 1.388 . S
C599 C600 1.366 . S
C600 C599 1.366 . S
C600 C601 1.414 . S
C600 C603 1.499 . S
C601 H575 0.950 . S
C601 C600 1.414 . S
C601 C602 1.374 . S
C602 H576 0.950 . S
C602 C598 1.385 . S
C602 C601 1.374 . S
C603 C600 1.499 . S
C603 C604 1.373 . S
C603 C605 1.389 . S
C604 H577 0.950 . S
C604 C590 1.377 1_554 S
C604 C603 1.373 . S
C605 C589 1.377 1_554 S
C605 C603 1.389 . S
C605 C606 1.524 . S
C606 C605 1.524 . S
C606 C607 1.397 . S
C606 C611 1.363 . S
C607 H578 0.950 . S
C607 C606 1.397 . S
C607 C608 1.334 . S
C608 H579 0.950 . S
C608 C607 1.334 . S
C608 C609 1.287 . S
C609 C608 1.287 . S
C609 C610 1.524 . S
C609 H612 0.999 . S
C610 H580 0.950 . S
C610 C609 1.524 . S
C610 C611 1.415 . S
C611 H581 0.950 1_554 S
C611 C606 1.363 . S
C611 C610 1.415 . S
H612 C609 0.999 . S
H613 C594 0.913 . S
H614 C632 0.951 . S
H615 C634 0.951 . S
H616 C636 0.950 . S
H617 C637 0.950 . S
H618 C639 0.950 . S
H619 C642 0.950 . S
H620 C643 0.950 . S
H621 C645 0.950 . S
H622 C646 0.950 . S
H623 C647 0.951 . S
H624 C649 0.951 . S
H625 C651 0.950 . S
H626 C652 0.950 . S
H627 C654 0.950 . S
H628 C657 0.950 . S
H629 C658 0.950 . S
H630 C660 0.950 . S
H631 C661 0.950 . S
C632 H614 0.951 . S
C632 C633 1.366 . S
C632 C634 1.388 . S
C633 C632 1.366 . S
C633 C637 1.385 . S
C634 H615 0.951 . S
C634 C632 1.388 . S
C634 C635 1.366 . S
C635 C634 1.366 . S
C635 C636 1.414 . S
C635 C638 1.499 . S
C636 H616 0.950 . S
C636 C635 1.414 . S
C636 C637 1.374 . S
C637 H617 0.950 . S
C637 C633 1.385 . S
C637 C636 1.374 . S
C638 C635 1.499 . S
C638 C639 1.373 . S
C638 C640 1.389 . S
C639 H618 0.950 . S
C639 C638 1.373 . S
C639 C655 1.377 1_556 S
C640 C638 1.389 . S
C640 C641 1.524 . S
C640 C654 1.377 1_556 S
C641 C640 1.524 . S
C641 C642 1.397 . S
C641 C646 1.363 . S
C642 H619 0.950 . S
C642 C641 1.397 . S
C642 C643 1.334 . S
C643 H620 0.950 . S
C643 C642 1.334 . S
C643 C644 1.287 . S
C644 C643 1.287 . S
C644 C645 1.524 . S
C644 H663 0.913 . S
C645 H621 0.950 . S
C645 C644 1.524 . S
C645 C646 1.415 . S
C646 H622 0.950 . S
C646 C641 1.363 . S
C646 C645 1.415 . S
C647 H623 0.951 . S
C647 C648 1.366 . S
C647 C649 1.388 . S
C648 C647 1.366 . S
C648 C652 1.385 . S
C649 H624 0.951 . S
C649 C647 1.388 . S
C649 C650 1.366 . S
C650 C649 1.366 . S
C650 C651 1.414 . S
C650 C653 1.499 . S
C651 H625 0.950 . S
C651 C650 1.414 . S
C651 C652 1.374 . S
C652 H626 0.950 . S
C652 C648 1.385 . S
C652 C651 1.374 . S
C653 C650 1.499 . S
C653 C654 1.373 . S
C653 C655 1.389 . S
C654 H627 0.950 . S
C654 C640 1.377 1_554 S
C654 C653 1.373 . S
C655 C639 1.377 1_554 S
C655 C653 1.389 . S
C655 C656 1.524 . S
C656 C655 1.524 . S
C656 C657 1.397 . S
C656 C661 1.363 . S
C657 H628 0.950 . S
C657 C656 1.397 . S
C657 C658 1.334 . S
C658 H629 0.950 . S
C658 C657 1.334 . S
C658 C659 1.287 . S
C659 C658 1.287 . S
C659 C660 1.524 . S
C659 H662 0.999 . S
C660 H630 0.950 . S
C660 C659 1.524 . S
C660 C661 1.415 . S
C661 H631 0.950 . S
C661 C656 1.363 . S
C661 C660 1.415 . S
H662 C659 0.999 . S
H663 C644 0.913 . S
H664 C682 0.951 . S
H665 C684 0.951 . S
H666 C686 0.950 . S
H667 C687 0.950 . S
H668 C689 0.950 . S
H669 C692 0.950 . S
H670 C693 0.950 . S
H671 C695 0.950 . S
H672 C696 0.950 . S
H673 C697 0.951 . S
H674 C699 0.951 . S
H675 C701 0.950 . S
H676 C702 0.950 . S
H677 C704 0.950 . S
H678 C707 0.950 . S
H679 C708 0.950 . S
H680 C710 0.950 . S
H681 C711 0.950 . S
C682 H664 0.951 . S
C682 C683 1.366 . S
C682 C684 1.388 . S
C683 C682 1.366 . S
C683 C687 1.385 . S
C684 H665 0.951 . S
C684 C682 1.388 . S
C684 C685 1.366 . S
C685 C684 1.366 . S
C685 C686 1.414 . S
C685 C688 1.499 . S
C686 H666 0.950 . S
C686 C685 1.414 . S
C686 C687 1.374 . S
C687 H667 0.950 . S
C687 C683 1.385 . S
C687 C686 1.374 . S
C688 C685 1.499 . S
C688 C689 1.373 . S
C688 C690 1.389 . S
C689 H668 0.950 . S
C689 C688 1.373 . S
C689 C705 1.377 . S
C690 C688 1.389 . S
C690 C691 1.524 . S
C690 C704 1.377 . S
C691 C690 1.524 . S
C691 C692 1.397 . S
C691 C696 1.363 . S
C692 H669 0.950 . S
C692 C691 1.397 . S
C692 C693 1.334 . S
C693 H670 0.950 . S
C693 C692 1.334 . S
C693 C694 1.287 . S
C694 C693 1.287 . S
C694 C695 1.524 . S
C694 H713 0.913 . S
C695 H671 0.950 . S
C695 C694 1.524 . S
C695 C696 1.415 . S
C696 H672 0.950 . S
C696 C691 1.363 . S
C696 C695 1.415 . S
C697 H673 0.951 . S
C697 C698 1.366 . S
C697 C699 1.388 . S
C698 C697 1.366 . S
C698 C702 1.385 . S
C699 H674 0.951 . S
C699 C697 1.388 . S
C699 C700 1.366 . S
C700 C699 1.366 . S
C700 C701 1.414 . S
C700 C703 1.499 . S
C701 H675 0.950 . S
C701 C700 1.414 . S
C701 C702 1.374 . S
C702 H676 0.950 . S
C702 C698 1.385 . S
C702 C701 1.374 . S
C703 C700 1.499 . S
C703 C704 1.373 . S
C703 C705 1.389 . S
C704 H677 0.950 . S
C704 C690 1.377 . S
C704 C703 1.373 . S
C705 C689 1.377 . S
C705 C703 1.389 . S
C705 C706 1.524 . S
C706 C705 1.524 . S
C706 C707 1.397 . S
C706 C711 1.363 . S
C707 H678 0.950 . S
C707 C706 1.397 . S
C707 C708 1.334 . S
C708 H679 0.950 . S
C708 C707 1.334 . S
C708 C709 1.287 . S
C709 C708 1.287 . S
C709 C710 1.524 . S
C709 H712 0.999 . S
C710 H680 0.950 . S
C710 C709 1.524 . S
C710 C711 1.415 . S
C711 H681 0.950 . S
C711 C706 1.363 . S
C711 C710 1.415 . S
H712 C709 0.999 . S
H713 C694 0.913 . S
H714 C732 0.951 . S
H715 C734 0.951 . S
H716 C736 0.950 . S
H717 C737 0.950 . S
H718 C739 0.950 . S
H719 C742 0.950 . S
H720 C743 0.950 . S
H721 C745 0.950 . S
H722 C746 0.950 . S
H723 C747 0.951 . S
H724 C749 0.951 . S
H725 C751 0.950 . S
H726 C752 0.950 . S
H727 C754 0.950 . S
H728 C757 0.950 . S
H729 C758 0.950 . S
H730 C760 0.950 . S
H731 C761 0.950 . S
C732 H714 0.951 . S
C732 C733 1.366 . S
C732 C734 1.388 . S
C733 C732 1.366 . S
C733 C737 1.385 . S
C734 H715 0.951 . S
C734 C732 1.388 . S
C734 C735 1.366 . S
C735 C734 1.366 . S
C735 C736 1.414 . S
C735 C738 1.499 . S
C736 H716 0.950 . S
C736 C735 1.414 . S
C736 C737 1.374 . S
C737 H717 0.950 . S
C737 C733 1.385 . S
C737 C736 1.374 . S
C738 C735 1.499 . S
C738 C739 1.373 . S
C738 C740 1.389 . S
C739 H718 0.950 . S
C739 C738 1.373 . S
C739 C755 1.377 . S
C740 C738 1.389 . S
C740 C741 1.524 . S
C740 C754 1.377 . S
C741 C740 1.524 . S
C741 C742 1.397 . S
C741 C746 1.363 . S
C742 H719 0.950 . S
C742 C741 1.397 . S
C742 C743 1.334 . S
C743 H720 0.950 . S
C743 C742 1.334 . S
C743 C744 1.287 . S
C744 C743 1.287 . S
C744 C745 1.524 . S
C744 H763 0.913 . S
C745 H721 0.950 . S
C745 C744 1.524 . S
C745 C746 1.415 . S
C746 H722 0.950 . S
C746 C741 1.363 . S
C746 C745 1.415 . S
C747 H723 0.951 . S
C747 C748 1.366 . S
C747 C749 1.388 . S
C748 C747 1.366 . S
C748 C752 1.385 . S
C749 H724 0.951 . S
C749 C747 1.388 . S
C749 C750 1.366 . S
C750 C749 1.366 . S
C750 C751 1.414 . S
C750 C753 1.499 . S
C751 H725 0.950 . S
C751 C750 1.414 . S
C751 C752 1.374 . S
C752 H726 0.950 . S
C752 C748 1.385 . S
C752 C751 1.374 . S
C753 C750 1.499 . S
C753 C754 1.373 . S
C753 C755 1.389 . S
C754 H727 0.950 . S
C754 C740 1.377 . S
C754 C753 1.373 . S
C755 C739 1.377 . S
C755 C753 1.389 . S
C755 C756 1.524 . S
C756 C755 1.524 . S
C756 C757 1.397 . S
C756 C761 1.363 . S
C757 H728 0.950 . S
C757 C756 1.397 . S
C757 C758 1.334 . S
C758 H729 0.950 . S
C758 C757 1.334 . S
C758 C759 1.287 . S
C759 C758 1.287 . S
C759 C760 1.524 . S
C759 H762 0.999 . S
C760 H730 0.950 . S
C760 C759 1.524 . S
C760 C761 1.415 . S
C761 H731 0.950 . S
C761 C756 1.363 . S
C761 C760 1.415 . S
H762 C759 0.999 . S
H763 C744 0.913 . S
H764 C782 0.951 . S
H765 C784 0.951 . S
H766 C786 0.950 . S
H767 C787 0.950 . S
H768 C789 0.950 . S
H769 C792 0.950 . S
H770 C793 0.950 . S
H771 C795 0.950 . S
H772 C796 0.950 . S
H773 C797 0.951 . S
H774 C799 0.951 . S
H775 C801 0.950 . S
H776 C802 0.950 . S
H777 C804 0.950 . S
H778 C807 0.950 . S
H779 C808 0.950 . S
H780 C810 0.950 . S
H781 C811 0.950 . S
C782 H764 0.951 . S
C782 C783 1.366 . S
C782 C784 1.388 . S
C783 C782 1.366 . S
C783 C787 1.385 . S
C784 H765 0.951 . S
C784 C782 1.388 . S
C784 C785 1.366 . S
C785 C784 1.366 . S
C785 C786 1.414 . S
C785 C788 1.499 . S
C786 H766 0.950 . S
C786 C785 1.414 . S
C786 C787 1.374 . S
C787 H767 0.950 . S
C787 C783 1.385 . S
C787 C786 1.374 . S
C788 C785 1.499 . S
C788 C789 1.373 . S
C788 C790 1.389 . S
C789 H768 0.950 . S
C789 C788 1.373 . S
C789 C805 1.377 . S
C790 C788 1.389 . S
C790 C791 1.524 . S
C790 C804 1.377 . S
C791 C790 1.524 . S
C791 C792 1.397 . S
C791 C796 1.363 . S
C792 H769 0.950 . S
C792 C791 1.397 . S
C792 C793 1.334 . S
C793 H770 0.950 . S
C793 C792 1.334 . S
C793 C794 1.287 . S
C794 C793 1.287 . S
C794 C795 1.524 . S
C794 H813 0.913 . S
C795 H771 0.950 . S
C795 C794 1.524 . S
C795 C796 1.415 . S
C796 H772 0.950 . S
C796 C791 1.363 . S
C796 C795 1.415 . S
C797 H773 0.951 . S
C797 C798 1.366 . S
C797 C799 1.388 . S
C798 C797 1.366 . S
C798 C802 1.385 . S
C799 H774 0.951 . S
C799 C797 1.388 . S
C799 C800 1.366 . S
C800 C799 1.366 . S
C800 C801 1.414 . S
C800 C803 1.499 . S
C801 H775 0.950 . S
C801 C800 1.414 . S
C801 C802 1.374 . S
C802 H776 0.950 . S
C802 C798 1.385 . S
C802 C801 1.374 . S
C803 C800 1.499 . S
C803 C804 1.373 . S
C803 C805 1.389 . S
C804 H777 0.950 . S
C804 C790 1.377 . S
C804 C803 1.373 . S
C805 C789 1.377 . S
C805 C803 1.389 . S
C805 C806 1.524 . S
C806 C805 1.524 . S
C806 C807 1.397 . S
C806 C811 1.363 . S
C807 H778 0.950 . S
C807 C806 1.397 . S
C807 C808 1.334 . S
C808 H779 0.950 . S
C808 C807 1.334 . S
C808 C809 1.287 . S
C809 C808 1.287 . S
C809 C810 1.524 . S
C809 H812 0.999 . S
C810 H780 0.950 . S
C810 C809 1.524 . S
C810 C811 1.415 . S
C811 H781 0.950 . S
C811 C806 1.363 . S
C811 C810 1.415 . S
H812 C809 0.999 . S
H813 C794 0.913 . S
H814 C832 0.951 . S
H815 C834 0.951 . S
H816 C836 0.950 . S
H817 C837 0.950 . S
H818 C839 0.950 . S
H819 C842 0.950 . S
H820 C843 0.950 . S
H821 C845 0.950 . S
H822 C846 0.950 . S
H823 C847 0.951 . S
H824 C849 0.951 . S
H825 C851 0.950 . S
H826 C852 0.950 . S
H827 C854 0.950 . S
H828 C857 0.950 . S
H829 C858 0.950 . S
H830 C860 0.950 . S
H831 C861 0.950 . S
C832 H814 0.951 . S
C832 C833 1.366 . S
C832 C834 1.388 . S
C833 C832 1.366 . S
C833 C837 1.385 . S
C834 H815 0.951 . S
C834 C832 1.388 . S
C834 C835 1.366 . S
C835 C834 1.366 . S
C835 C836 1.414 . S
C835 C838 1.499 . S
C836 H816 0.950 . S
C836 C835 1.414 . S
C836 C837 1.374 . S
C837 H817 0.950 . S
C837 C833 1.385 . S
C837 C836 1.374 . S
C838 C835 1.499 . S
C838 C839 1.373 . S
C838 C840 1.389 . S
C839 H818 0.950 . S
C839 C838 1.373 . S
C839 C855 1.377 . S
C840 C838 1.389 . S
C840 C841 1.524 . S
C840 C854 1.377 . S
C841 C840 1.524 . S
C841 C842 1.397 . S
C841 C846 1.363 . S
C842 H819 0.950 . S
C842 C841 1.397 . S
C842 C843 1.334 . S
C843 H820 0.950 . S
C843 C842 1.334 . S
C843 C844 1.287 . S
C844 C843 1.287 . S
C844 C845 1.524 . S
C844 H863 0.913 . S
C845 H821 0.950 . S
C845 C844 1.524 . S
C845 C846 1.415 . S
C846 H822 0.950 . S
C846 C841 1.363 . S
C846 C845 1.415 . S
C847 H823 0.951 . S
C847 C848 1.366 . S
C847 C849 1.388 . S
C848 C847 1.366 . S
C848 C852 1.385 . S
C849 H824 0.951 . S
C849 C847 1.388 . S
C849 C850 1.366 . S
C850 C849 1.366 . S
C850 C851 1.414 . S
C850 C853 1.499 . S
C851 H825 0.950 . S
C851 C850 1.414 . S
C851 C852 1.374 . S
C852 H826 0.950 . S
C852 C848 1.385 . S
C852 C851 1.374 . S
C853 C850 1.499 . S
C853 C854 1.373 . S
C853 C855 1.389 . S
C854 H827 0.950 . S
C854 C840 1.377 . S
C854 C853 1.373 . S
C855 C839 1.377 . S
C855 C853 1.389 . S
C855 C856 1.524 . S
C856 C855 1.524 . S
C856 C857 1.397 . S
C856 C861 1.363 . S
C857 H828 0.950 . S
C857 C856 1.397 . S
C857 C858 1.334 . S
C858 H829 0.950 . S
C858 C857 1.334 . S
C858 C859 1.287 . S
C859 C858 1.287 . S
C859 C860 1.524 . S
C859 H862 0.999 . S
C860 H830 0.950 . S
C860 C859 1.524 . S
C860 C861 1.415 . S
C861 H831 0.950 . S
C861 C856 1.363 . S
C861 C860 1.415 . S
H862 C859 0.999 . S
H863 C844 0.913 . S
H864 C882 0.951 . S
H865 C884 0.951 . S
H866 C886 0.950 1_545 S
H867 C887 0.950 . S
H868 C889 0.950 . S
H869 C892 0.950 . S
H870 C893 0.950 . S
H871 C895 0.950 . S
H872 C896 0.950 . S
H873 C897 0.951 . S
H874 C899 0.951 . S
H875 C901 0.950 . S
H876 C902 0.950 . S
H877 C904 0.950 . S
H878 C907 0.950 . S
H879 C908 0.950 . S
H880 C910 0.950 . S
H881 C911 0.950 . S
C882 H864 0.951 . S
C882 C883 1.366 . S
C882 C884 1.388 1_565 S
C883 C882 1.366 . S
C883 C887 1.385 . S
C884 H865 0.951 . S
C884 C882 1.388 1_545 S
C884 C885 1.366 . S
C885 C884 1.366 . S
C885 C886 1.414 1_545 S
C885 C888 1.499 . S
C886 H866 0.950 1_565 S
C886 C885 1.414 1_565 S
C886 C887 1.374 . S
C887 H867 0.950 . S
C887 C883 1.385 . S
C887 C886 1.374 . S
C888 C885 1.499 . S
C888 C889 1.373 . S
C888 C890 1.389 . S
C889 H868 0.950 . S
C889 C888 1.373 . S
C889 C905 1.377 . S
C890 C888 1.389 . S
C890 C891 1.524 . S
C890 C904 1.377 . S
C891 C890 1.524 . S
C891 C892 1.397 . S
C891 C896 1.363 . S
C892 H869 0.950 . S
C892 C891 1.397 . S
C892 C893 1.334 . S
C893 H870 0.950 . S
C893 C892 1.334 . S
C893 C894 1.287 . S
C894 C893 1.287 . S
C894 C895 1.524 . S
C894 H913 0.913 . S
C895 H871 0.950 . S
C895 C894 1.524 . S
C895 C896 1.415 . S
C896 H872 0.950 . S
C896 C891 1.363 . S
C896 C895 1.415 . S
C897 H873 0.951 . S
C897 C898 1.366 . S
C897 C899 1.388 . S
C898 C897 1.366 . S
C898 C902 1.385 . S
C899 H874 0.951 . S
C899 C897 1.388 . S
C899 C900 1.366 . S
C900 C899 1.366 . S
C900 C901 1.414 . S
C900 C903 1.499 . S
C901 H875 0.950 . S
C901 C900 1.414 . S
C901 C902 1.374 . S
C902 H876 0.950 . S
C902 C898 1.385 . S
C902 C901 1.374 . S
C903 C900 1.499 . S
C903 C904 1.373 . S
C903 C905 1.389 . S
C904 H877 0.950 . S
C904 C890 1.377 . S
C904 C903 1.373 . S
C905 C889 1.377 . S
C905 C903 1.389 . S
C905 C906 1.524 . S
C906 C905 1.524 . S
C906 C907 1.397 . S
C906 C911 1.363 . S
C907 H878 0.950 . S
C907 C906 1.397 . S
C907 C908 1.334 . S
C908 H879 0.950 . S
C908 C907 1.334 . S
C908 C909 1.287 . S
C909 C908 1.287 . S
C909 C910 1.524 . S
C909 H912 0.999 . S
C910 H880 0.950 . S
C910 C909 1.524 . S
C910 C911 1.415 . S
C911 H881 0.950 . S
C911 C906 1.363 . S
C911 C910 1.415 . S
H912 C909 0.999 . S
H913 C894 0.913 . S
H914 C932 0.951 . S
H915 C934 0.951 . S
H916 C936 0.938 1_655 S
H917 C937 0.950 . S
H918 C939 0.950 . S
H919 C942 0.950 . S
H920 C943 0.950 . S
H921 C945 0.950 . S
H922 C946 0.950 . S
H923 C947 0.951 . S
H924 C949 0.951 . S
H925 C951 0.950 . S
H926 C952 0.950 . S
H927 C954 0.950 . S
H928 C957 0.950 . S
H929 C958 0.950 . S
H930 C960 0.950 . S
H931 C961 0.950 . S
C932 H914 0.951 . S
C932 C933 1.366 . S
C932 C934 1.388 1_455 S
C933 C932 1.366 . S
C933 C937 1.385 . S
C934 H915 0.951 . S
C934 C932 1.388 1_655 S
C934 C935 1.366 . S
C935 C934 1.366 . S
C935 C936 1.398 1_655 S
C935 C938 1.499 . S
C936 H916 0.938 1_455 S
C936 C935 1.398 1_455 S
C936 C937 1.403 . S
C937 H917 0.950 . S
C937 C933 1.385 . S
C937 C936 1.403 . S
C938 C935 1.499 . S
C938 C939 1.373 . S
C938 C940 1.389 . S
C939 H918 0.950 . S
C939 C938 1.373 . S
C939 C955 1.377 . S
C940 C938 1.389 . S
C940 C941 1.524 . S
C940 C954 1.377 . S
C941 C940 1.524 . S
C941 C942 1.397 . S
C941 C946 1.363 . S
C942 H919 0.950 . S
C942 C941 1.397 . S
C942 C943 1.334 . S
C943 H920 0.950 . S
C943 C942 1.334 . S
C943 C944 1.287 . S
C944 C943 1.287 . S
C944 C945 1.524 . S
C944 H963 0.913 . S
C945 H921 0.950 . S
C945 C944 1.524 . S
C945 C946 1.415 . S
C946 H922 0.950 . S
C946 C941 1.363 . S
C946 C945 1.415 . S
C947 H923 0.951 . S
C947 C948 1.366 . S
C947 C949 1.388 . S
C948 C947 1.366 . S
C948 C952 1.385 . S
C949 H924 0.951 . S
C949 C947 1.388 . S
C949 C950 1.366 . S
C950 C949 1.366 . S
C950 C951 1.414 . S
C950 C953 1.499 . S
C951 H925 0.950 . S
C951 C950 1.414 . S
C951 C952 1.374 . S
C952 H926 0.950 . S
C952 C948 1.385 . S
C952 C951 1.374 . S
C953 C950 1.499 . S
C953 C954 1.373 . S
C953 C955 1.389 . S
C954 H927 0.950 . S
C954 C940 1.377 . S
C954 C953 1.373 . S
C955 C939 1.377 . S
C955 C953 1.389 . S
C955 C956 1.524 . S
C956 C955 1.524 . S
C956 C957 1.397 . S
C956 C961 1.363 . S
C957 H928 0.950 . S
C957 C956 1.397 . S
C957 C958 1.334 . S
C958 H929 0.950 . S
C958 C957 1.334 . S
C958 C959 1.287 . S
C959 C958 1.287 . S
C959 C960 1.524 . S
C959 H962 0.999 . S
C960 H930 0.950 . S
C960 C959 1.524 . S
C960 C961 1.415 . S
C961 H931 0.950 . S
C961 C956 1.363 . S
C961 C960 1.415 . S
H962 C959 0.999 . S
H963 C944 0.913 . S
H964 C982 0.951 . S
H965 C984 0.951 . S
H966 C986 0.950 . S
H967 C987 0.950 . S
H968 C989 0.950 . S
H969 C992 0.950 . S
H970 C993 0.950 . S
H971 C995 0.950 . S
H972 C996 0.950 . S
H973 C997 0.951 . S
H974 C999 0.951 . S
H975 C1001 0.950 1_565 S
H976 C1002 0.950 . S
H977 C1004 0.950 . S
H978 C1007 0.950 . S
H979 C1008 0.950 . S
H980 C1010 0.950 . S
H981 C1011 0.950 . S
C982 H964 0.951 . S
C982 C983 1.366 . S
C982 C984 1.388 . S
C983 C982 1.366 . S
C983 C987 1.385 . S
C984 H965 0.951 . S
C984 C982 1.388 . S
C984 C985 1.366 . S
C985 C984 1.366 . S
C985 C986 1.414 . S
C985 C988 1.499 . S
C986 H966 0.950 . S
C986 C985 1.414 . S
C986 C987 1.374 . S
C987 H967 0.950 . S
C987 C983 1.385 . S
C987 C986 1.374 . S
C988 C985 1.499 . S
C988 C989 1.373 . S
C988 C990 1.389 . S
C989 H968 0.950 . S
C989 C988 1.373 . S
C989 C1005 1.377 . S
C990 C988 1.389 . S
C990 C991 1.524 . S
C990 C1004 1.377 . S
C991 C990 1.524 . S
C991 C992 1.397 . S
C991 C996 1.363 . S
C992 H969 0.950 . S
C992 C991 1.397 . S
C992 C993 1.334 . S
C993 H970 0.950 . S
C993 C992 1.334 . S
C993 C994 1.287 . S
C994 C993 1.287 . S
C994 C995 1.524 . S
C994 H1013 0.913 . S
C995 H971 0.950 . S
C995 C994 1.524 . S
C995 C996 1.415 . S
C996 H972 0.950 . S
C996 C991 1.363 . S
C996 C995 1.415 . S
C997 H973 0.951 . S
C997 C998 1.366 . S
C997 C999 1.388 1_545 S
C998 C997 1.366 . S
C998 C1002 1.385 . S
C999 H974 0.951 . S
C999 C997 1.388 1_565 S
C999 C1000 1.366 . S
C1000 C999 1.366 . S
C1000 C1001 1.414 1_565 S
C1000 C1003 1.499 . S
C1001 H975 0.950 1_545 S
C1001 C1000 1.414 1_545 S
C1001 C1002 1.374 . S
C1002 H976 0.950 . S
C1002 C998 1.385 . S
C1002 C1001 1.374 . S
C1003 C1000 1.499 . S
C1003 C1004 1.373 . S
C1003 C1005 1.389 . S
C1004 H977 0.950 . S
C1004 C990 1.377 . S
C1004 C1003 1.373 . S
C1005 C989 1.377 . S
C1005 C1003 1.389 . S
C1005 C1006 1.524 . S
C1006 C1005 1.524 . S
C1006 C1007 1.397 . S
C1006 C1011 1.363 . S
C1007 H978 0.950 . S
C1007 C1006 1.397 . S
C1007 C1008 1.334 1_565 S
C1008 H979 0.950 . S
C1008 C1007 1.334 1_545 S
C1008 C1009 1.287 . S
C1009 C1008 1.287 . S
C1009 C1010 1.524 1_545 S
C1009 H1012 0.999 . S
C1010 H980 0.950 . S
C1010 C1009 1.524 1_565 S
C1010 C1011 1.415 . S
C1011 H981 0.950 . S
C1011 C1006 1.363 . S
C1011 C1010 1.415 . S
H1012 C1009 0.999 . S
H1013 C994 0.913 . S
H1014 C1032 0.951 . S
H1015 C1034 0.951 . S
H1016 C1036 0.950 . S
H1017 C1037 0.950 . S
H1018 C1039 0.950 . S
H1019 C1042 0.950 . S
H1020 C1043 0.950 . S
H1021 C1045 0.950 . S
H1022 C1046 0.950 . S
H1023 C1047 0.951 . S
H1024 C1049 0.951 . S
H1025 C1051 0.950 . S
H1026 C1052 0.950 . S
H1027 C1054 0.950 . S
H1028 C1057 0.950 . S
H1029 C1058 0.950 . S
H1030 C1060 0.950 . S
H1031 C1061 0.950 . S
C1032 H1014 0.951 . S
C1032 C1033 1.366 . S
C1032 C1034 1.388 . S
C1033 C1032 1.366 . S
C1033 C1037 1.385 . S
C1034 H1015 0.951 . S
C1034 C1032 1.388 . S
C1034 C1035 1.366 . S
C1035 C1034 1.366 . S
C1035 C1036 1.414 . S
C1035 C1038 1.499 . S
C1036 H1016 0.950 . S
C1036 C1035 1.414 . S
C1036 C1037 1.374 . S
C1037 H1017 0.950 . S
C1037 C1033 1.385 . S
C1037 C1036 1.374 . S
C1038 C1035 1.499 . S
C1038 C1039 1.373 . S
C1038 C1040 1.389 . S
C1039 H1018 0.950 . S
C1039 C1038 1.373 . S
C1039 C1055 1.377 . S
C1040 C1038 1.389 . S
C1040 C1041 1.524 . S
C1040 C1054 1.377 . S
C1041 C1040 1.524 . S
C1041 C1042 1.397 . S
C1041 C1046 1.363 . S
C1042 H1019 0.950 . S
C1042 C1041 1.397 . S
C1042 C1043 1.334 . S
C1043 H1020 0.950 . S
C1043 C1042 1.334 . S
C1043 C1044 1.287 . S
C1044 C1043 1.287 . S
C1044 C1045 1.524 . S
C1044 H1063 0.913 . S
C1045 H1021 0.950 . S
C1045 C1044 1.524 . S
C1045 C1046 1.415 . S
C1046 H1022 0.950 . S
C1046 C1041 1.363 . S
C1046 C1045 1.415 . S
C1047 H1023 0.951 . S
C1047 C1048 1.366 . S
C1047 C1049 1.388 1_655 S
C1048 C1047 1.366 . S
C1048 C1052 1.385 . S
C1049 H1024 0.951 . S
C1049 C1047 1.388 1_455 S
C1049 C1050 1.366 . S
C1050 C1049 1.366 . S
C1050 C1051 1.414 1_455 S
C1050 C1053 1.499 . S
C1051 H1025 0.950 . S
C1051 C1050 1.414 1_655 S
C1051 C1052 1.374 . S
C1052 H1026 0.950 . S
C1052 C1048 1.385 . S
C1052 C1051 1.374 . S
C1053 C1050 1.499 . S
C1053 C1054 1.373 . S
C1053 C1055 1.389 . S
C1054 H1027 0.950 . S
C1054 C1040 1.377 . S
C1054 C1053 1.373 . S
C1055 C1039 1.377 . S
C1055 C1053 1.389 . S
C1055 C1056 1.524 . S
C1056 C1055 1.524 . S
C1056 C1057 1.397 . S
C1056 C1061 1.363 . S
C1057 H1028 0.950 . S
C1057 C1056 1.397 . S
C1057 C1058 1.334 . S
C1058 H1029 0.950 . S
C1058 C1057 1.334 . S
C1058 C1059 1.287 . S
C1059 C1058 1.287 . S
C1059 C1060 1.524 . S
C1059 H1062 0.999 . S
C1060 H1030 0.950 . S
C1060 C1059 1.524 . S
C1060 C1061 1.415 . S
C1061 H1031 0.950 . S
C1061 C1056 1.363 . S
C1061 C1060 1.415 . S
H1062 C1059 0.999 . S
H1063 C1044 0.913 . S
H1064 C1082 0.951 . S
H1065 C1084 0.951 . S
H1066 C1086 0.950 . S
H1067 C1087 0.950 . S
H1068 C1089 0.950 . S
H1069 C1092 0.950 . S
H1070 C1093 0.950 . S
H1071 C1095 0.950 . S
H1072 C1096 0.950 . S
H1073 C1097 0.951 . S
H1074 C1099 0.951 . S
H1075 C1101 0.950 . S
H1076 C1102 0.950 . S
H1077 C1104 0.950 . S
H1078 C1107 0.950 . S
H1079 C1108 0.950 . S
H1080 C1110 0.950 . S
H1081 C1111 0.950 . S
C1082 H1064 0.951 . S
C1082 C1083 1.366 . S
C1082 C1084 1.388 1_545 S
C1083 C1082 1.366 . S
C1083 C1087 1.385 . S
C1084 H1065 0.951 . S
C1084 C1082 1.388 1_565 S
C1084 C1085 1.366 . S
C1085 C1084 1.366 . S
C1085 C1086 1.414 1_565 S
C1085 C1088 1.499 . S
C1086 H1066 0.950 . S
C1086 C1085 1.414 1_545 S
C1086 C1087 1.374 . S
C1087 H1067 0.950 . S
C1087 C1083 1.385 . S
C1087 C1086 1.374 . S
C1088 C1085 1.499 . S
C1088 C1089 1.373 . S
C1088 C1090 1.389 . S
C1089 H1068 0.950 . S
C1089 C1088 1.373 . S
C1089 C1105 1.377 . S
C1090 C1088 1.389 . S
C1090 C1091 1.524 . S
C1090 C1104 1.377 . S
C1091 C1090 1.524 . S
C1091 C1092 1.397 . S
C1091 C1096 1.363 . S
C1092 H1069 0.950 . S
C1092 C1091 1.397 . S
C1092 C1093 1.334 . S
C1093 H1070 0.950 . S
C1093 C1092 1.334 . S
C1093 C1094 1.287 . S
C1094 C1093 1.287 . S
C1094 C1095 1.524 . S
C1094 H1113 0.913 . S
C1095 H1071 0.950 . S
C1095 C1094 1.524 . S
C1095 C1096 1.415 . S
C1096 H1072 0.950 . S
C1096 C1091 1.363 . S
C1096 C1095 1.415 . S
C1097 H1073 0.951 . S
C1097 C1098 1.366 . S
C1097 C1099 1.388 . S
C1098 C1097 1.366 . S
C1098 C1102 1.385 . S
C1099 H1074 0.951 . S
C1099 C1097 1.388 . S
C1099 C1100 1.366 . S
C1100 C1099 1.366 . S
C1100 C1101 1.414 . S
C1100 C1103 1.499 . S
C1101 H1075 0.950 . S
C1101 C1100 1.414 . S
C1101 C1102 1.374 . S
C1102 H1076 0.950 . S
C1102 C1098 1.385 . S
C1102 C1101 1.374 . S
C1103 C1100 1.499 . S
C1103 C1104 1.373 . S
C1103 C1105 1.389 . S
C1104 H1077 0.950 . S
C1104 C1090 1.377 . S
C1104 C1103 1.373 . S
C1105 C1089 1.377 . S
C1105 C1103 1.389 . S
C1105 C1106 1.524 . S
C1106 C1105 1.524 . S
C1106 C1107 1.397 . S
C1106 C1111 1.363 . S
C1107 H1078 0.950 . S
C1107 C1106 1.397 . S
C1107 C1108 1.334 . S
C1108 H1079 0.950 . S
C1108 C1107 1.334 . S
C1108 C1109 1.287 . S
C1109 C1108 1.287 . S
C1109 C1110 1.524 . S
C1109 H1112 0.999 . S
C1110 H1080 0.950 . S
C1110 C1109 1.524 . S
C1110 C1111 1.415 . S
C1111 H1081 0.950 . S
C1111 C1106 1.363 . S
C1111 C1110 1.415 . S
H1112 C1109 0.999 . S
H1113 C1094 0.913 . S
H1114 C1132 0.951 . S
H1115 C1134 0.951 . S
H1116 C1136 0.950 . S
H1117 C1137 0.950 . S
H1118 C1139 0.950 . S
H1119 C1142 0.950 . S
H1120 C1143 0.950 . S
H1121 C1145 0.950 . S
H1122 C1146 0.950 . S
H1123 C1147 0.951 . S
H1124 C1149 0.951 . S
H1125 C1151 0.950 . S
H1126 C1152 0.950 . S
H1127 C1154 0.950 . S
H1128 C1157 0.950 . S
H1129 C1158 0.935 1_655 S
H1130 C1160 0.950 . S
H1131 C1161 0.950 . S
C1132 H1114 0.951 . S
C1132 C1133 1.366 . S
C1132 C1134 1.388 . S
C1133 C1132 1.366 . S
C1133 C1137 1.385 . S
C1134 H1115 0.951 . S
C1134 C1132 1.388 . S
C1134 C1135 1.366 . S
C1135 C1134 1.366 . S
C1135 C1136 1.414 . S
C1135 C1138 1.499 . S
C1136 H1116 0.950 . S
C1136 C1135 1.414 . S
C1136 C1137 1.374 . S
C1137 H1117 0.950 . S
C1137 C1133 1.385 . S
C1137 C1136 1.374 . S
C1138 C1135 1.499 . S
C1138 C1139 1.373 . S
C1138 C1140 1.389 . S
C1139 H1118 0.950 . S
C1139 C1138 1.373 . S
C1139 C1155 1.377 . S
C1140 C1138 1.389 . S
C1140 C1141 1.524 . S
C1140 C1154 1.377 . S
C1141 C1140 1.524 . S
C1141 C1142 1.397 . S
C1141 C1146 1.363 . S
C1142 H1119 0.950 . S
C1142 C1141 1.397 . S
C1142 C1143 1.334 . S
C1143 H1120 0.950 . S
C1143 C1142 1.334 . S
C1143 C1144 1.287 . S
C1144 C1143 1.287 . S
C1144 C1145 1.524 . S
C1144 H1163 0.913 . S
C1145 H1121 0.950 . S
C1145 C1144 1.524 . S
C1145 C1146 1.415 . S
C1146 H1122 0.950 . S
C1146 C1141 1.363 . S
C1146 C1145 1.415 . S
C1147 H1123 0.951 . S
C1147 C1148 1.366 . S
C1147 C1149 1.388 . S
C1148 C1147 1.366 . S
C1148 C1152 1.385 . S
C1149 H1124 0.951 . S
C1149 C1147 1.388 . S
C1149 C1150 1.366 1_655 S
C1150 C1149 1.366 1_455 S
C1150 C1151 1.414 . S
C1150 C1153 1.499 . S
C1151 H1125 0.950 . S
C1151 C1150 1.414 . S
C1151 C1152 1.374 1_455 S
C1152 H1126 0.950 . S
C1152 C1148 1.385 . S
C1152 C1151 1.374 1_655 S
C1153 C1150 1.499 . S
C1153 C1154 1.373 . S
C1153 C1155 1.389 . S
C1154 H1127 0.950 . S
C1154 C1140 1.377 . S
C1154 C1153 1.373 . S
C1155 C1139 1.377 . S
C1155 C1153 1.389 . S
C1155 C1156 1.524 . S
C1156 C1155 1.524 . S
C1156 C1157 1.397 . S
C1156 C1161 1.363 . S
C1157 H1128 0.950 . S
C1157 C1156 1.397 . S
C1157 C1158 1.334 . S
C1158 H1129 0.935 1_455 S
C1158 C1157 1.334 . S
C1158 C1159 1.287 . S
C1159 C1158 1.287 . S
C1159 C1160 1.524 . S
C1159 H1162 0.999 1_455 S
C1160 H1130 0.950 . S
C1160 C1159 1.524 . S
C1160 C1161 1.415 . S
C1161 H1131 0.950 . S
C1161 C1156 1.363 . S
C1161 C1160 1.415 . S
H1162 C1159 0.999 1_655 S
H1163 C1144 0.913 . S
H1164 C1182 0.951 . S
H1165 C1184 0.951 . S
H1166 C1186 0.950 . S
H1167 C1187 0.950 . S
H1168 C1189 0.950 . S
H1169 C1192 0.950 . S
H1170 C1193 0.950 . S
H1171 C1195 0.950 . S
H1172 C1196 0.950 . S
H1173 C1197 0.951 . S
H1174 C1199 0.951 . S
H1175 C1201 0.950 . S
H1176 C1202 0.950 . S
H1177 C1204 0.950 . S
H1178 C1207 0.950 . S
H1179 C1208 0.950 . S
H1180 C1210 0.950 . S
H1181 C1211 0.950 . S
C1182 H1164 0.951 . S
C1182 C1183 1.366 . S
C1182 C1184 1.388 1_565 S
C1183 C1182 1.366 . S
C1183 C1187 1.385 . S
C1184 H1165 0.951 . S
C1184 C1182 1.388 1_545 S
C1184 C1185 1.366 . S
C1185 C1184 1.366 . S
C1185 C1186 1.414 1_545 S
C1185 C1188 1.499 . S
C1186 H1166 0.950 . S
C1186 C1185 1.414 1_565 S
C1186 C1187 1.374 . S
C1187 H1167 0.950 . S
C1187 C1183 1.385 . S
C1187 C1186 1.374 . S
C1188 C1185 1.499 . S
C1188 C1189 1.373 . S
C1188 C1190 1.389 . S
C1189 H1168 0.950 . S
C1189 C1188 1.373 . S
C1189 C1205 1.377 . S
C1190 C1188 1.389 . S
C1190 C1191 1.524 . S
C1190 C1204 1.377 . S
C1191 C1190 1.524 . S
C1191 C1192 1.397 . S
C1191 C1196 1.363 . S
C1192 H1169 0.950 . S
C1192 C1191 1.397 . S
C1192 C1193 1.334 . S
C1193 H1170 0.950 . S
C1193 C1192 1.334 . S
C1193 C1194 1.287 . S
C1194 C1193 1.287 . S
C1194 C1195 1.524 . S
C1194 H1213 0.913 . S
C1195 H1171 0.950 . S
C1195 C1194 1.524 . S
C1195 C1196 1.415 . S
C1196 H1172 0.950 . S
C1196 C1191 1.363 . S
C1196 C1195 1.415 . S
C1197 H1173 0.951 . S
C1197 C1198 1.366 . S
C1197 C1199 1.388 . S
C1198 C1197 1.366 . S
C1198 C1202 1.385 . S
C1199 H1174 0.951 . S
C1199 C1197 1.388 . S
C1199 C1200 1.366 . S
C1200 C1199 1.366 . S
C1200 C1201 1.414 . S
C1200 C1203 1.499 . S
C1201 H1175 0.950 . S
C1201 C1200 1.414 . S
C1201 C1202 1.374 . S
C1202 H1176 0.950 . S
C1202 C1198 1.385 . S
C1202 C1201 1.374 . S
C1203 C1200 1.499 . S
C1203 C1204 1.373 . S
C1203 C1205 1.389 . S
C1204 H1177 0.950 . S
C1204 C1190 1.377 . S
C1204 C1203 1.373 . S
C1205 C1189 1.377 . S
C1205 C1203 1.389 . S
C1205 C1206 1.524 . S
C1206 C1205 1.524 . S
C1206 C1207 1.397 . S
C1206 C1211 1.363 . S
C1207 H1178 0.950 . S
C1207 C1206 1.397 . S
C1207 C1208 1.334 . S
C1208 H1179 0.950 . S
C1208 C1207 1.334 . S
C1208 C1209 1.287 . S
C1209 C1208 1.287 . S
C1209 C1210 1.524 . S
C1209 H1212 0.999 . S
C1210 H1180 0.950 . S
C1210 C1209 1.524 . S
C1210 C1211 1.415 . S
C1211 H1181 0.950 . S
C1211 C1206 1.363 . S
C1211 C1210 1.415 . S
H1212 C1209 0.999 . S
H1213 C1194 0.913 . S
H1214 C1232 0.951 . S
H1215 C1234 0.951 . S
H1216 C1236 0.950 . S
H1217 C1237 0.950 . S
H1218 C1239 0.950 . S
H1219 C1242 0.950 . S
H1220 C1243 0.950 . S
H1221 C1245 0.950 . S
H1222 C1246 0.950 . S
H1223 C1247 0.951 . S
H1224 C1249 0.951 . S
H1225 C1251 0.950 . S
H1226 C1252 0.950 . S
H1227 C1254 0.950 . S
H1228 C1257 0.950 . S
H1229 C1258 0.950 . S
H1230 C1260 0.950 . S
H1231 C1261 0.950 . S
C1232 H1214 0.951 . S
C1232 C1233 1.366 . S
C1232 C1234 1.388 1_455 S
C1233 C1232 1.366 . S
C1233 C1237 1.385 . S
C1234 H1215 0.951 . S
C1234 C1232 1.388 1_655 S
C1234 C1235 1.366 . S
C1235 C1234 1.366 . S
C1235 C1236 1.414 1_655 S
C1235 C1238 1.499 . S
C1236 H1216 0.950 . S
C1236 C1235 1.414 1_455 S
C1236 C1237 1.374 . S
C1237 H1217 0.950 . S
C1237 C1233 1.385 . S
C1237 C1236 1.374 . S
C1238 C1235 1.499 . S
C1238 C1239 1.373 . S
C1238 C1240 1.389 . S
C1239 H1218 0.950 . S
C1239 C1238 1.373 . S
C1239 C1255 1.377 . S
C1240 C1238 1.389 . S
C1240 C1241 1.524 . S
C1240 C1254 1.377 . S
C1241 C1240 1.524 . S
C1241 C1242 1.397 . S
C1241 C1246 1.363 . S
C1242 H1219 0.950 . S
C1242 C1241 1.397 . S
C1242 C1243 1.334 . S
C1243 H1220 0.950 . S
C1243 C1242 1.334 . S
C1243 C1244 1.287 . S
C1244 C1243 1.287 . S
C1244 C1245 1.524 . S
C1244 H1263 0.913 . S
C1245 H1221 0.950 . S
C1245 C1244 1.524 . S
C1245 C1246 1.415 . S
C1246 H1222 0.950 . S
C1246 C1241 1.363 . S
C1246 C1245 1.415 . S
C1247 H1223 0.951 . S
C1247 C1248 1.366 . S
C1247 C1249 1.388 . S
C1248 C1247 1.366 . S
C1248 C1252 1.385 . S
C1249 H1224 0.951 . S
C1249 C1247 1.388 . S
C1249 C1250 1.366 . S
C1250 C1249 1.366 . S
C1250 C1251 1.414 . S
C1250 C1253 1.499 . S
C1251 H1225 0.950 . S
C1251 C1250 1.414 . S
C1251 C1252 1.374 . S
C1252 H1226 0.950 . S
C1252 C1248 1.385 . S
C1252 C1251 1.374 . S
C1253 C1250 1.499 . S
C1253 C1254 1.373 . S
C1253 C1255 1.389 . S
C1254 H1227 0.950 . S
C1254 C1240 1.377 . S
C1254 C1253 1.373 . S
C1255 C1239 1.377 . S
C1255 C1253 1.389 . S
C1255 C1256 1.524 . S
C1256 C1255 1.524 . S
C1256 C1257 1.397 . S
C1256 C1261 1.363 . S
C1257 H1228 0.950 . S
C1257 C1256 1.397 . S
C1257 C1258 1.334 . S
C1258 H1229 0.950 . S
C1258 C1257 1.334 . S
C1258 C1259 1.287 . S
C1259 C1258 1.287 . S
C1259 C1260 1.524 . S
C1259 H1262 0.999 . S
C1260 H1230 0.950 . S
C1260 C1259 1.524 . S
C1260 C1261 1.415 . S
C1261 H1231 0.950 . S
C1261 C1256 1.363 . S
C1261 C1260 1.415 . S
H1262 C1259 0.999 . S
H1263 C1244 0.913 . S
H1264 C1282 0.951 . S
H1265 C1284 0.951 . S
H1266 C1286 0.950 . S
H1267 C1287 0.950 . S
H1268 C1289 0.950 . S
H1269 C1292 0.950 . S
H1270 C1293 0.950 . S
H1271 C1295 0.950 . S
H1272 C1296 0.950 . S
H1273 C1297 0.951 . S
H1274 C1299 0.951 . S
H1275 C1301 0.955 . S
H1276 C1302 0.950 . S
H1277 C1304 0.950 . S
H1278 C1307 0.950 . S
H1279 C1308 0.936 1_545 S
H1280 C1310 0.950 . S
H1281 C1311 0.950 . S
C1282 H1264 0.951 . S
C1282 C1283 1.366 . S
C1282 C1284 1.388 . S
C1283 C1282 1.366 . S
C1283 C1287 1.385 . S
C1284 H1265 0.951 . S
C1284 C1282 1.388 . S
C1284 C1285 1.366 . S
C1285 C1284 1.366 . S
C1285 C1286 1.414 . S
C1285 C1288 1.499 . S
C1286 H1266 0.950 . S
C1286 C1285 1.414 . S
C1286 C1287 1.374 . S
C1287 H1267 0.950 . S
C1287 C1283 1.385 . S
C1287 C1286 1.374 . S
C1288 C1285 1.499 . S
C1288 C1289 1.373 . S
C1288 C1290 1.389 . S
C1289 H1268 0.950 . S
C1289 C1288 1.373 . S
C1289 C1305 1.377 . S
C1290 C1288 1.389 . S
C1290 C1291 1.524 . S
C1290 C1304 1.377 . S
C1291 C1290 1.524 . S
C1291 C1292 1.397 . S
C1291 C1296 1.363 . S
C1292 H1269 0.950 . S
C1292 C1291 1.397 . S
C1292 C1293 1.334 . S
C1293 H1270 0.950 . S
C1293 C1292 1.334 . S
C1293 C1294 1.287 . S
C1294 C1293 1.287 . S
C1294 C1295 1.524 . S
C1294 H1313 0.913 . S
C1295 H1271 0.950 . S
C1295 C1294 1.524 . S
C1295 C1296 1.415 . S
C1296 H1272 0.950 . S
C1296 C1291 1.363 . S
C1296 C1295 1.415 . S
C1297 H1273 0.951 . S
C1297 C1298 1.366 . S
C1297 C1299 1.388 . S
C1298 C1297 1.366 . S
C1298 C1302 1.385 . S
C1299 H1274 0.951 . S
C1299 C1297 1.388 . S
C1299 C1300 1.366 1_545 S
C1300 C1299 1.366 1_565 S
C1300 C1301 1.416 . S
C1300 C1303 1.499 . S
C1301 H1275 0.955 . S
C1301 C1300 1.416 . S
C1301 C1302 1.367 1_565 S
C1302 H1276 0.950 . S
C1302 C1298 1.385 . S
C1302 C1301 1.367 1_545 S
C1303 C1300 1.499 . S
C1303 C1304 1.373 . S
C1303 C1305 1.389 . S
C1304 H1277 0.950 . S
C1304 C1290 1.377 . S
C1304 C1303 1.373 . S
C1305 C1289 1.377 . S
C1305 C1303 1.389 . S
C1305 C1306 1.524 . S
C1306 C1305 1.524 . S
C1306 C1307 1.397 . S
C1306 C1311 1.363 . S
C1307 H1278 0.950 . S
C1307 C1306 1.397 . S
C1307 C1308 1.349 . S
C1308 H1279 0.936 1_565 S
C1308 C1307 1.349 . S
C1308 C1309 1.287 . S
C1309 C1308 1.287 . S
C1309 C1310 1.524 . S
C1309 H1312 0.999 1_565 S
C1310 H1280 0.950 . S
C1310 C1309 1.524 . S
C1310 C1311 1.415 . S
C1311 H1281 0.950 . S
C1311 C1306 1.363 . S
C1311 C1310 1.415 . S
H1312 C1309 0.999 1_545 S
H1313 C1294 0.913 . S
H1314 C1332 0.951 . S
H1315 C1334 0.951 . S
H1316 C1336 0.950 . S
H1317 C1337 0.950 . S
H1318 C1339 0.950 . S
H1319 C1342 0.950 . S
H1320 C1343 0.950 . S
H1321 C1345 0.950 . S
H1322 C1346 0.950 . S
H1323 C1347 0.951 . S
H1324 C1349 0.951 . S
H1325 C1351 0.950 . S
H1326 C1352 0.950 . S
H1327 C1354 0.950 . S
H1328 C1357 0.950 . S
H1329 C1358 0.950 . S
H1330 C1360 0.950 . S
H1331 C1361 0.950 . S
C1332 H1314 0.951 . S
C1332 C1333 1.366 . S
C1332 C1334 1.388 1_655 S
C1333 C1332 1.366 . S
C1333 C1337 1.385 . S
C1334 H1315 0.951 . S
C1334 C1332 1.388 1_455 S
C1334 C1335 1.366 . S
C1335 C1334 1.366 . S
C1335 C1336 1.414 1_455 S
C1335 C1338 1.499 . S
C1336 H1316 0.950 . S
C1336 C1335 1.414 1_655 S
C1336 C1337 1.374 . S
C1337 H1317 0.950 . S
C1337 C1333 1.385 . S
C1337 C1336 1.374 . S
C1338 C1335 1.499 . S
C1338 C1339 1.373 . S
C1338 C1340 1.389 . S
C1339 H1318 0.950 . S
C1339 C1338 1.373 . S
C1339 C1355 1.377 . S
C1340 C1338 1.389 . S
C1340 C1341 1.524 . S
C1340 C1354 1.377 . S
C1341 C1340 1.524 . S
C1341 C1342 1.397 . S
C1341 C1346 1.363 . S
C1342 H1319 0.950 . S
C1342 C1341 1.397 . S
C1342 C1343 1.334 . S
C1343 H1320 0.950 . S
C1343 C1342 1.334 . S
C1343 C1344 1.287 . S
C1344 C1343 1.287 . S
C1344 C1345 1.524 . S
C1344 H1363 0.913 . S
C1345 H1321 0.950 . S
C1345 C1344 1.524 . S
C1345 C1346 1.415 . S
C1346 H1322 0.950 . S
C1346 C1341 1.363 . S
C1346 C1345 1.415 . S
C1347 H1323 0.951 . S
C1347 C1348 1.366 . S
C1347 C1349 1.388 . S
C1348 C1347 1.366 . S
C1348 C1352 1.385 . S
C1349 H1324 0.951 . S
C1349 C1347 1.388 . S
C1349 C1350 1.366 . S
C1350 C1349 1.366 . S
C1350 C1351 1.414 . S
C1350 C1353 1.499 . S
C1351 H1325 0.950 . S
C1351 C1350 1.414 . S
C1351 C1352 1.374 . S
C1352 H1326 0.950 . S
C1352 C1348 1.385 . S
C1352 C1351 1.374 . S
C1353 C1350 1.499 . S
C1353 C1354 1.373 . S
C1353 C1355 1.389 . S
C1354 H1327 0.950 . S
C1354 C1340 1.377 . S
C1354 C1353 1.373 . S
C1355 C1339 1.377 . S
C1355 C1353 1.389 . S
C1355 C1356 1.524 . S
C1356 C1355 1.524 . S
C1356 C1357 1.397 . S
C1356 C1361 1.363 . S
C1357 H1328 0.950 . S
C1357 C1356 1.397 . S
C1357 C1358 1.334 . S
C1358 H1329 0.950 . S
C1358 C1357 1.334 . S
C1358 C1359 1.287 . S
C1359 C1358 1.287 . S
C1359 C1360 1.524 . S
C1359 H1362 0.999 . S
C1360 H1330 0.950 . S
C1360 C1359 1.524 . S
C1360 C1361 1.415 . S
C1361 H1331 0.950 . S
C1361 C1356 1.363 . S
C1361 C1360 1.415 . S
H1362 C1359 0.999 . S
H1363 C1344 0.913 . S
H1364 C1382 0.951 . S
H1365 C1384 0.951 . S
H1366 C1386 0.950 . S
H1367 C1387 0.950 . S
H1368 C1389 0.950 . S
H1369 C1392 0.950 . S
H1370 C1393 0.950 . S
H1371 C1395 0.950 . S
H1372 C1396 0.950 . S
H1373 C1397 0.951 . S
H1374 C1399 0.951 1_545 S
H1375 C1401 0.950 1_545 S
H1376 C1402 0.950 . S
H1377 C1404 0.950 . S
H1378 C1407 0.950 . S
H1379 C1408 0.950 . S
H1380 C1410 0.950 . S
H1381 C1411 0.950 . S
C1382 H1364 0.951 . S
C1382 C1383 1.366 . S
C1382 C1384 1.388 . S
C1383 C1382 1.366 . S
C1383 C1387 1.385 . S
C1384 H1365 0.951 . S
C1384 C1382 1.388 . S
C1384 C1385 1.366 . S
C1385 C1384 1.366 . S
C1385 C1386 1.414 . S
C1385 C1388 1.499 . S
C1386 H1366 0.950 . S
C1386 C1385 1.414 . S
C1386 C1387 1.374 . S
C1387 H1367 0.950 . S
C1387 C1383 1.385 . S
C1387 C1386 1.374 . S
C1388 C1385 1.499 . S
C1388 C1389 1.373 . S
C1388 C1390 1.389 . S
C1389 H1368 0.950 . S
C1389 C1388 1.373 . S
C1389 C1405 1.377 . S
C1390 C1388 1.389 . S
C1390 C1391 1.524 . S
C1390 C1404 1.377 . S
C1391 C1390 1.524 . S
C1391 C1392 1.397 . S
C1391 C1396 1.363 . S
C1392 H1369 0.950 . S
C1392 C1391 1.397 . S
C1392 C1393 1.334 . S
C1393 H1370 0.950 . S
C1393 C1392 1.334 . S
C1393 C1394 1.287 . S
C1394 C1393 1.287 . S
C1394 C1395 1.524 . S
C1394 H1413 0.913 . S
C1395 H1371 0.950 . S
C1395 C1394 1.524 . S
C1395 C1396 1.415 . S
C1396 H1372 0.950 . S
C1396 C1391 1.363 . S
C1396 C1395 1.415 . S
C1397 H1373 0.951 . S
C1397 C1398 1.366 . S
C1397 C1399 1.388 . S
C1398 C1397 1.366 . S
C1398 C1402 1.385 . S
C1399 H1374 0.951 1_565 S
C1399 C1397 1.388 . S
C1399 C1400 1.366 1_565 S
C1400 C1399 1.366 1_545 S
C1400 C1401 1.414 1_545 S
C1400 C1403 1.499 . S
C1401 H1375 0.950 1_565 S
C1401 C1400 1.414 1_565 S
C1401 C1402 1.374 . S
C1402 H1376 0.950 . S
C1402 C1398 1.385 . S
C1402 C1401 1.374 . S
C1403 C1400 1.499 . S
C1403 C1404 1.373 . S
C1403 C1405 1.389 . S
C1404 H1377 0.950 . S
C1404 C1390 1.377 . S
C1404 C1403 1.373 . S
C1405 C1389 1.377 . S
C1405 C1403 1.389 . S
C1405 C1406 1.524 . S
C1406 C1405 1.524 . S
C1406 C1407 1.397 . S
C1406 C1411 1.363 . S
C1407 H1378 0.950 . S
C1407 C1406 1.397 . S
C1407 C1408 1.334 . S
C1408 H1379 0.950 . S
C1408 C1407 1.334 . S
C1408 C1409 1.287 . S
C1409 C1408 1.287 . S
C1409 C1410 1.524 . S
C1409 H1412 0.999 . S
C1410 H1380 0.950 . S
C1410 C1409 1.524 . S
C1410 C1411 1.415 . S
C1411 H1381 0.950 . S
C1411 C1406 1.363 . S
C1411 C1410 1.415 . S
H1412 C1409 0.999 . S
H1413 C1394 0.913 . S
H1414 C1432 0.951 . S
H1415 C1434 0.951 1_655 S
H1416 C1436 0.950 1_655 S
H1417 C1437 0.950 . S
H1418 C1439 0.950 . S
H1419 C1442 0.950 . S
H1420 C1443 0.950 . S
H1421 C1445 0.950 . S
H1422 C1446 0.950 . S
H1423 C1447 0.951 . S
H1424 C1449 0.951 . S
H1425 C1451 0.950 . S
H1426 C1452 0.950 . S
H1427 C1454 0.950 . S
H1428 C1457 0.950 . S
H1429 C1458 0.950 . S
H1430 C1460 0.950 . S
H1431 C1461 0.950 . S
C1432 H1414 0.951 . S
C1432 C1433 1.366 . S
C1432 C1434 1.388 . S
C1433 C1432 1.366 . S
C1433 C1437 1.385 . S
C1434 H1415 0.951 1_455 S
C1434 C1432 1.388 . S
C1434 C1435 1.366 1_455 S
C1435 C1434 1.366 1_655 S
C1435 C1436 1.414 1_655 S
C1435 C1438 1.499 . S
C1436 H1416 0.950 1_455 S
C1436 C1435 1.414 1_455 S
C1436 C1437 1.374 . S
C1437 H1417 0.950 . S
C1437 C1433 1.385 . S
C1437 C1436 1.374 . S
C1438 C1435 1.499 . S
C1438 C1439 1.373 . S
C1438 C1440 1.389 . S
C1439 H1418 0.950 . S
C1439 C1438 1.373 . S
C1439 C1455 1.377 . S
C1440 C1438 1.389 . S
C1440 C1441 1.524 . S
C1440 C1454 1.377 . S
C1441 C1440 1.524 . S
C1441 C1442 1.397 . S
C1441 C1446 1.363 . S
C1442 H1419 0.950 . S
C1442 C1441 1.397 . S
C1442 C1443 1.334 1_655 S
C1443 H1420 0.950 . S
C1443 C1442 1.334 1_455 S
C1443 C1444 1.283 1_455 S
C1444 C1443 1.283 1_655 S
C1444 C1445 1.537 . S
C1444 H1463 0.902 1_655 S
C1445 H1421 0.950 . S
C1445 C1444 1.537 . S
C1445 C1446 1.415 . S
C1446 H1422 0.950 . S
C1446 C1441 1.363 . S
C1446 C1445 1.415 . S
C1447 H1423 0.951 . S
C1447 C1448 1.366 . S
C1447 C1449 1.388 . S
C1448 C1447 1.366 . S
C1448 C1452 1.385 . S
C1449 H1424 0.951 . S
C1449 C1447 1.388 . S
C1449 C1450 1.366 . S
C1450 C1449 1.366 . S
C1450 C1451 1.414 . S
C1450 C1453 1.499 . S
C1451 H1425 0.950 . S
C1451 C1450 1.414 . S
C1451 C1452 1.374 . S
C1452 H1426 0.950 . S
C1452 C1448 1.385 . S
C1452 C1451 1.374 . S
C1453 C1450 1.499 . S
C1453 C1454 1.373 . S
C1453 C1455 1.389 . S
C1454 H1427 0.950 . S
C1454 C1440 1.377 . S
C1454 C1453 1.373 . S
C1455 C1439 1.377 . S
C1455 C1453 1.389 . S
C1455 C1456 1.524 . S
C1456 C1455 1.524 . S
C1456 C1457 1.397 . S
C1456 C1461 1.363 . S
C1457 H1428 0.950 . S
C1457 C1456 1.397 . S
C1457 C1458 1.334 . S
C1458 H1429 0.950 . S
C1458 C1457 1.334 . S
C1458 C1459 1.287 . S
C1459 C1458 1.287 . S
C1459 C1460 1.524 . S
C1459 H1462 0.999 . S
C1460 H1430 0.950 . S
C1460 C1459 1.524 . S
C1460 C1461 1.415 . S
C1461 H1431 0.950 . S
C1461 C1456 1.363 . S
C1461 C1460 1.415 . S
H1462 C1459 0.999 . S
H1463 C1444 0.902 1_455 S
H1464 C1482 0.951 . S
H1465 C1484 0.951 . S
H1466 C1486 0.950 . S
H1467 C1487 0.950 . S
H1468 C1489 0.950 . S
H1469 C1492 0.950 . S
H1470 C1493 0.950 . S
H1471 C1495 0.950 . S
H1472 C1496 0.950 . S
H1473 C1497 0.951 . S
H1474 C1499 0.951 . S
H1475 C1501 0.950 . S
H1476 C1502 0.950 . S
H1477 C1504 0.950 . S
H1478 C1507 0.950 . S
H1479 C1508 0.950 . S
H1480 C1510 0.950 . S
H1481 C1511 0.950 . S
C1482 H1464 0.951 . S
C1482 C1483 1.366 . S
C1482 C1484 1.388 . S
C1483 C1482 1.366 . S
C1483 C1487 1.385 . S
C1484 H1465 0.951 . S
C1484 C1482 1.388 . S
C1484 C1485 1.366 . S
C1485 C1484 1.366 . S
C1485 C1486 1.414 . S
C1485 C1488 1.499 . S
C1486 H1466 0.950 . S
C1486 C1485 1.414 . S
C1486 C1487 1.374 . S
C1487 H1467 0.950 . S
C1487 C1483 1.385 . S
C1487 C1486 1.374 . S
C1488 C1485 1.499 . S
C1488 C1489 1.373 . S
C1488 C1490 1.389 . S
C1489 H1468 0.950 . S
C1489 C1488 1.373 . S
C1489 C1505 1.377 . S
C1490 C1488 1.389 . S
C1490 C1491 1.524 . S
C1490 C1504 1.377 . S
C1491 C1490 1.524 . S
C1491 C1492 1.397 . S
C1491 C1496 1.363 . S
C1492 H1469 0.950 . S
C1492 C1491 1.397 . S
C1492 C1493 1.334 . S
C1493 H1470 0.950 . S
C1493 C1492 1.334 . S
C1493 C1494 1.287 . S
C1494 C1493 1.287 . S
C1494 C1495 1.524 . S
C1494 H1513 0.913 . S
C1495 H1471 0.950 . S
C1495 C1494 1.524 . S
C1495 C1496 1.415 . S
C1496 H1472 0.950 . S
C1496 C1491 1.363 . S
C1496 C1495 1.415 . S
C1497 H1473 0.951 . S
C1497 C1498 1.366 . S
C1497 C1499 1.388 1_565 S
C1498 C1497 1.366 . S
C1498 C1502 1.385 . S
C1499 H1474 0.951 . S
C1499 C1497 1.388 1_545 S
C1499 C1500 1.366 . S
C1500 C1499 1.366 . S
C1500 C1501 1.414 1_545 S
C1500 C1503 1.499 . S
C1501 H1475 0.950 . S
C1501 C1500 1.414 1_565 S
C1501 C1502 1.374 . S
C1502 H1476 0.950 . S
C1502 C1498 1.385 . S
C1502 C1501 1.374 . S
C1503 C1500 1.499 . S
C1503 C1504 1.373 . S
C1503 C1505 1.389 . S
C1504 H1477 0.950 . S
C1504 C1490 1.377 . S
C1504 C1503 1.373 . S
C1505 C1489 1.377 . S
C1505 C1503 1.389 . S
C1505 C1506 1.524 . S
C1506 C1505 1.524 . S
C1506 C1507 1.397 . S
C1506 C1511 1.363 . S
C1507 H1478 0.950 . S
C1507 C1506 1.397 . S
C1507 C1508 1.334 . S
C1508 H1479 0.950 . S
C1508 C1507 1.334 . S
C1508 C1509 1.287 . S
C1509 C1508 1.287 . S
C1509 C1510 1.524 . S
C1509 H1512 0.999 . S
C1510 H1480 0.950 . S
C1510 C1509 1.524 . S
C1510 C1511 1.415 . S
C1511 H1481 0.950 . S
C1511 C1506 1.363 . S
C1511 C1510 1.415 . S
H1512 C1509 0.999 . S
H1513 C1494 0.913 . S
H1514 C1532 0.951 . S
H1515 C1534 0.969 . S
H1516 C1536 0.950 . S
H1517 C1537 0.950 . S
H1518 C1539 0.950 . S
H1519 C1542 0.950 . S
H1520 C1543 0.950 1_455 S
H1521 C1545 0.950 . S
H1522 C1546 0.950 . S
H1523 C1547 0.951 . S
H1524 C1549 0.951 . S
H1525 C1551 0.950 . S
H1526 C1552 0.950 . S
H1527 C1554 0.950 . S
H1528 C1557 0.950 . S
H1529 C1558 0.950 . S
H1530 C1560 0.950 . S
H1531 C1561 0.950 . S
C1532 H1514 0.951 . S
C1532 C1533 1.366 . S
C1532 C1534 1.362 1_455 S
C1533 C1532 1.366 . S
C1533 C1537 1.385 . S
C1534 H1515 0.969 . S
C1534 C1532 1.362 1_655 S
C1534 C1535 1.374 . S
C1535 C1534 1.374 . S
C1535 C1536 1.414 1_655 S
C1535 C1538 1.499 . S
C1536 H1516 0.950 . S
C1536 C1535 1.414 1_455 S
C1536 C1537 1.374 . S
C1537 H1517 0.950 . S
C1537 C1533 1.385 . S
C1537 C1536 1.374 . S
C1538 C1535 1.499 . S
C1538 C1539 1.373 . S
C1538 C1540 1.389 . S
C1539 H1518 0.950 . S
C1539 C1538 1.373 . S
C1539 C1555 1.377 . S
C1540 C1538 1.389 . S
C1540 C1541 1.524 . S
C1540 C1554 1.377 . S
C1541 C1540 1.524 . S
C1541 C1542 1.397 . S
C1541 C1546 1.363 . S
C1542 H1519 0.950 . S
C1542 C1541 1.397 . S
C1542 C1543 1.334 . S
C1543 H1520 0.950 1_655 S
C1543 C1542 1.334 . S
C1543 C1544 1.287 . S
C1544 C1543 1.287 . S
C1544 C1545 1.524 . S
C1544 H1563 0.913 . S
C1545 H1521 0.950 . S
C1545 C1544 1.524 . S
C1545 C1546 1.415 . S
C1546 H1522 0.950 . S
C1546 C1541 1.363 . S
C1546 C1545 1.415 . S
C1547 H1523 0.951 . S
C1547 C1548 1.366 . S
C1547 C1549 1.388 . S
C1548 C1547 1.366 . S
C1548 C1552 1.385 . S
C1549 H1524 0.951 . S
C1549 C1547 1.388 . S
C1549 C1550 1.366 . S
C1550 C1549 1.366 . S
C1550 C1551 1.414 . S
C1550 C1553 1.499 . S
C1551 H1525 0.950 . S
C1551 C1550 1.414 . S
C1551 C1552 1.374 . S
C1552 H1526 0.950 . S
C1552 C1548 1.385 . S
C1552 C1551 1.374 . S
C1553 C1550 1.499 . S
C1553 C1554 1.373 . S
C1553 C1555 1.389 . S
C1554 H1527 0.950 . S
C1554 C1540 1.377 . S
C1554 C1553 1.373 . S
C1555 C1539 1.377 . S
C1555 C1553 1.389 . S
C1555 C1556 1.524 . S
C1556 C1555 1.524 . S
C1556 C1557 1.397 . S
C1556 C1561 1.363 . S
C1557 H1528 0.950 . S
C1557 C1556 1.397 . S
C1557 C1558 1.334 . S
C1558 H1529 0.950 . S
C1558 C1557 1.334 . S
C1558 C1559 1.287 . S
C1559 C1558 1.287 . S
C1559 C1560 1.524 . S
C1559 H1562 0.999 . S
C1560 H1530 0.950 . S
C1560 C1559 1.524 . S
C1560 C1561 1.415 . S
C1561 H1531 0.950 . S
C1561 C1556 1.363 . S
C1561 C1560 1.415 . S
H1562 C1559 0.999 . S
H1563 C1544 0.913 . S
H1564 C1582 0.951 . S
H1565 C1584 0.942 1_565 S
H1566 C1586 0.950 . S
H1567 C1587 0.950 . S
H1568 C1589 0.950 . S
H1569 C1592 0.950 . S
H1570 C1593 0.950 . S
H1571 C1595 0.950 . S
H1572 C1596 0.950 . S
H1573 C1597 0.951 . S
H1574 C1599 0.951 . S
H1575 C1601 0.950 . S
H1576 C1602 0.950 . S
H1577 C1604 0.950 . S
H1578 C1607 0.950 . S
H1579 C1608 0.950 . S
H1580 C1610 0.950 . S
H1581 C1611 0.950 . S
C1582 H1564 0.951 . S
C1582 C1583 1.366 . S
C1582 C1584 1.401 . S
C1583 C1582 1.366 . S
C1583 C1587 1.385 . S
C1584 H1565 0.942 1_545 S
C1584 C1582 1.401 . S
C1584 C1585 1.361 1_545 S
C1585 C1584 1.361 1_565 S
C1585 C1586 1.414 1_565 S
C1585 C1588 1.499 . S
C1586 H1566 0.950 . S
C1586 C1585 1.414 1_545 S
C1586 C1587 1.374 . S
C1587 H1567 0.950 . S
C1587 C1583 1.385 . S
C1587 C1586 1.374 . S
C1588 C1585 1.499 . S
C1588 C1589 1.373 . S
C1588 C1590 1.389 . S
C1589 H1568 0.950 . S
C1589 C1588 1.373 . S
C1589 C1605 1.377 . S
C1590 C1588 1.389 . S
C1590 C1591 1.524 . S
C1590 C1604 1.377 . S
C1591 C1590 1.524 . S
C1591 C1592 1.397 . S
C1591 C1596 1.363 . S
C1592 H1569 0.950 . S
C1592 C1591 1.397 . S
C1592 C1593 1.334 . S
C1593 H1570 0.950 . S
C1593 C1592 1.334 . S
C1593 C1594 1.287 . S
C1594 C1593 1.287 . S
C1594 C1595 1.524 . S
C1594 H1613 0.913 . S
C1595 H1571 0.950 . S
C1595 C1594 1.524 . S
C1595 C1596 1.415 . S
C1596 H1572 0.950 . S
C1596 C1591 1.363 . S
C1596 C1595 1.415 . S
C1597 H1573 0.951 . S
C1597 C1598 1.366 . S
C1597 C1599 1.388 . S
C1598 C1597 1.366 . S
C1598 C1602 1.385 . S
C1599 H1574 0.951 . S
C1599 C1597 1.388 . S
C1599 C1600 1.366 . S
C1600 C1599 1.366 . S
C1600 C1601 1.414 . S
C1600 C1603 1.499 . S
C1601 H1575 0.950 . S
C1601 C1600 1.414 . S
C1601 C1602 1.374 . S
C1602 H1576 0.950 . S
C1602 C1598 1.385 . S
C1602 C1601 1.374 . S
C1603 C1600 1.499 . S
C1603 C1604 1.373 . S
C1603 C1605 1.389 . S
C1604 H1577 0.950 . S
C1604 C1590 1.377 . S
C1604 C1603 1.373 . S
C1605 C1589 1.377 . S
C1605 C1603 1.389 . S
C1605 C1606 1.524 . S
C1606 C1605 1.524 . S
C1606 C1607 1.397 . S
C1606 C1611 1.363 . S
C1607 H1578 0.950 . S
C1607 C1606 1.397 . S
C1607 C1608 1.334 . S
C1608 H1579 0.950 . S
C1608 C1607 1.334 . S
C1608 C1609 1.287 . S
C1609 C1608 1.287 . S
C1609 C1610 1.524 . S
C1609 H1612 0.999 . S
C1610 H1580 0.950 . S
C1610 C1609 1.524 . S
C1610 C1611 1.415 . S
C1611 H1581 0.950 . S
C1611 C1606 1.363 . S
C1611 C1610 1.415 . S
H1612 C1609 0.999 . S
H1613 C1594 0.913 . S
H1614 C1632 0.951 . S
H1615 C1634 0.972 . S
H1616 C1636 0.950 . S
H1617 C1637 0.950 . S
H1618 C1639 0.950 . S
H1619 C1642 0.950 . S
H1620 C1643 0.950 . S
H1621 C1645 0.950 . S
H1622 C1646 0.950 . S
H1623 C1647 0.951 . S
H1624 C1649 0.951 . S
H1625 C1651 0.950 . S
H1626 C1652 0.950 . S
H1627 C1654 0.950 . S
H1628 C1657 0.950 . S
H1629 C1658 0.950 . S
H1630 C1660 0.950 . S
H1631 C1661 0.950 . S
C1632 H1614 0.951 . S
C1632 C1633 1.366 . S
C1632 C1634 1.357 1_655 S
C1633 C1632 1.366 . S
C1633 C1637 1.385 . S
C1634 H1615 0.972 . S
C1634 C1632 1.357 1_455 S
C1634 C1635 1.376 . S
C1635 C1634 1.376 . S
C1635 C1636 1.414 1_455 S
C1635 C1638 1.499 . S
C1636 H1616 0.950 . S
C1636 C1635 1.414 1_655 S
C1636 C1637 1.374 . S
C1637 H1617 0.950 . S
C1637 C1633 1.385 . S
C1637 C1636 1.374 . S
C1638 C1635 1.499 . S
C1638 C1639 1.373 . S
C1638 C1640 1.389 . S
C1639 H1618 0.950 . S
C1639 C1638 1.373 . S
C1639 C1655 1.377 . S
C1640 C1638 1.389 . S
C1640 C1641 1.524 . S
C1640 C1654 1.377 . S
C1641 C1640 1.524 . S
C1641 C1642 1.397 . S
C1641 C1646 1.363 . S
C1642 H1619 0.950 . S
C1642 C1641 1.397 . S
C1642 C1643 1.334 . S
C1643 H1620 0.950 . S
C1643 C1642 1.334 . S
C1643 C1644 1.287 . S
C1644 C1643 1.287 . S
C1644 C1645 1.524 . S
C1644 H1663 0.913 . S
C1645 H1621 0.950 . S
C1645 C1644 1.524 . S
C1645 C1646 1.415 . S
C1646 H1622 0.950 . S
C1646 C1641 1.363 . S
C1646 C1645 1.415 . S
C1647 H1623 0.951 . S
C1647 C1648 1.366 . S
C1647 C1649 1.388 . S
C1648 C1647 1.366 . S
C1648 C1652 1.385 . S
C1649 H1624 0.951 . S
C1649 C1647 1.388 . S
C1649 C1650 1.366 . S
C1650 C1649 1.366 . S
C1650 C1651 1.414 . S
C1650 C1653 1.499 . S
C1651 H1625 0.950 . S
C1651 C1650 1.414 . S
C1651 C1652 1.374 . S
C1652 H1626 0.950 . S
C1652 C1648 1.385 . S
C1652 C1651 1.374 . S
C1653 C1650 1.499 . S
C1653 C1654 1.373 . S
C1653 C1655 1.389 . S
C1654 H1627 0.950 . S
C1654 C1640 1.377 . S
C1654 C1653 1.373 . S
C1655 C1639 1.377 . S
C1655 C1653 1.389 . S
C1655 C1656 1.524 . S
C1656 C1655 1.524 . S
C1656 C1657 1.397 . S
C1656 C1661 1.363 . S
C1657 H1628 0.950 . S
C1657 C1656 1.397 . S
C1657 C1658 1.334 . S
C1658 H1629 0.950 . S
C1658 C1657 1.334 . S
C1658 C1659 1.287 . S
C1659 C1658 1.287 . S
C1659 C1660 1.524 . S
C1659 H1662 0.999 . S
C1660 H1630 0.950 . S
C1660 C1659 1.524 . S
C1660 C1661 1.415 . S
C1661 H1631 0.950 . S
C1661 C1656 1.363 . S
C1661 C1660 1.415 . S
H1662 C1659 0.999 . S
H1663 C1644 0.913 . S
H1664 C1682 0.951 . S
H1665 C1684 0.951 . S
H1666 C1686 0.950 . S
H1667 C1687 0.950 . S
H1668 C1689 0.950 . S
H1669 C1692 0.950 . S
H1670 C1693 0.950 . S
H1671 C1695 0.950 . S
H1672 C1696 0.950 . S
H1673 C1697 0.951 . S
H1674 C1699 0.951 . S
H1675 C1701 0.950 . S
H1676 C1702 0.950 . S
H1677 C1704 0.950 . S
H1678 C1707 0.950 . S
H1679 C1708 0.950 . S
H1680 C1710 0.950 . S
H1681 C1711 0.950 . S
C1682 H1664 0.951 . S
C1682 C1683 1.366 . S
C1682 C1684 1.388 . S
C1683 C1682 1.366 . S
C1683 C1687 1.385 . S
C1684 H1665 0.951 . S
C1684 C1682 1.388 . S
C1684 C1685 1.366 . S
C1685 C1684 1.366 . S
C1685 C1686 1.414 . S
C1685 C1688 1.499 . S
C1686 H1666 0.950 . S
C1686 C1685 1.414 . S
C1686 C1687 1.374 . S
C1687 H1667 0.950 . S
C1687 C1683 1.385 . S
C1687 C1686 1.374 . S
C1688 C1685 1.499 . S
C1688 C1689 1.373 . S
C1688 C1690 1.389 . S
C1689 H1668 0.950 . S
C1689 C1688 1.373 . S
C1689 C1705 1.377 . S
C1690 C1688 1.389 . S
C1690 C1691 1.524 . S
C1690 C1704 1.377 . S
C1691 C1690 1.524 . S
C1691 C1692 1.397 . S
C1691 C1696 1.363 . S
C1692 H1669 0.950 . S
C1692 C1691 1.397 . S
C1692 C1693 1.334 . S
C1693 H1670 0.950 . S
C1693 C1692 1.334 . S
C1693 C1694 1.287 . S
C1694 C1693 1.287 . S
C1694 C1695 1.524 . S
C1694 H1713 0.913 . S
C1695 H1671 0.950 . S
C1695 C1694 1.524 . S
C1695 C1696 1.415 . S
C1696 H1672 0.950 . S
C1696 C1691 1.363 . S
C1696 C1695 1.415 . S
C1697 H1673 0.951 . S
C1697 C1698 1.366 . S
C1697 C1699 1.388 . S
C1698 C1697 1.366 . S
C1698 C1702 1.385 . S
C1699 H1674 0.951 . S
C1699 C1697 1.388 . S
C1699 C1700 1.366 . S
C1700 C1699 1.366 . S
C1700 C1701 1.414 . S
C1700 C1703 1.499 . S
C1701 H1675 0.950 . S
C1701 C1700 1.414 . S
C1701 C1702 1.374 . S
C1702 H1676 0.950 . S
C1702 C1698 1.385 . S
C1702 C1701 1.374 . S
C1703 C1700 1.499 . S
C1703 C1704 1.373 . S
C1703 C1705 1.389 . S
C1704 H1677 0.950 . S
C1704 C1690 1.377 . S
C1704 C1703 1.373 . S
C1705 C1689 1.377 . S
C1705 C1703 1.389 . S
C1705 C1706 1.524 . S
C1706 C1705 1.524 . S
C1706 C1707 1.397 . S
C1706 C1711 1.363 . S
C1707 H1678 0.950 . S
C1707 C1706 1.397 . S
C1707 C1708 1.334 . S
C1708 H1679 0.950 . S
C1708 C1707 1.334 . S
C1708 C1709 1.287 . S
C1709 C1708 1.287 . S
C1709 C1710 1.524 . S
C1709 H1712 0.999 . S
C1710 H1680 0.950 . S
C1710 C1709 1.524 . S
C1710 C1711 1.415 . S
C1711 H1681 0.950 . S
C1711 C1706 1.363 . S
C1711 C1710 1.415 . S
H1712 C1709 0.999 . S
H1713 C1694 0.913 . S
H1714 C1732 0.951 . S
H1715 C1734 0.951 . S
H1716 C1736 0.950 . S
H1717 C1737 0.950 . S
H1718 C1739 0.950 . S
H1719 C1742 0.950 . S
H1720 C1743 0.950 . S
H1721 C1745 0.950 . S
H1722 C1746 0.950 . S
H1723 C1747 0.951 . S
H1724 C1749 0.951 . S
H1725 C1751 0.950 . S
H1726 C1752 0.950 . S
H1727 C1754 0.950 . S
H1728 C1757 0.950 . S
H1729 C1758 0.950 . S
H1730 C1760 0.950 . S
H1731 C1761 0.950 . S
C1732 H1714 0.951 . S
C1732 C1733 1.366 . S
C1732 C1734 1.388 . S
C1733 C1732 1.366 . S
C1733 C1737 1.385 . S
C1734 H1715 0.951 . S
C1734 C1732 1.388 . S
C1734 C1735 1.366 . S
C1735 C1734 1.366 . S
C1735 C1736 1.414 . S
C1735 C1738 1.499 . S
C1736 H1716 0.950 . S
C1736 C1735 1.414 . S
C1736 C1737 1.374 . S
C1737 H1717 0.950 . S
C1737 C1733 1.385 . S
C1737 C1736 1.374 . S
C1738 C1735 1.499 . S
C1738 C1739 1.373 . S
C1738 C1740 1.389 . S
C1739 H1718 0.950 . S
C1739 C1738 1.373 . S
C1739 C1755 1.377 . S
C1740 C1738 1.389 . S
C1740 C1741 1.524 . S
C1740 C1754 1.377 . S
C1741 C1740 1.524 . S
C1741 C1742 1.397 . S
C1741 C1746 1.363 . S
C1742 H1719 0.950 . S
C1742 C1741 1.397 . S
C1742 C1743 1.334 . S
C1743 H1720 0.950 . S
C1743 C1742 1.334 . S
C1743 C1744 1.287 . S
C1744 C1743 1.287 . S
C1744 C1745 1.524 . S
C1744 H1763 0.913 . S
C1745 H1721 0.950 . S
C1745 C1744 1.524 . S
C1745 C1746 1.415 . S
C1746 H1722 0.950 . S
C1746 C1741 1.363 . S
C1746 C1745 1.415 . S
C1747 H1723 0.951 . S
C1747 C1748 1.366 . S
C1747 C1749 1.388 . S
C1748 C1747 1.366 . S
C1748 C1752 1.385 . S
C1749 H1724 0.951 . S
C1749 C1747 1.388 . S
C1749 C1750 1.366 . S
C1750 C1749 1.366 . S
C1750 C1751 1.414 . S
C1750 C1753 1.499 . S
C1751 H1725 0.950 . S
C1751 C1750 1.414 . S
C1751 C1752 1.374 . S
C1752 H1726 0.950 . S
C1752 C1748 1.385 . S
C1752 C1751 1.374 . S
C1753 C1750 1.499 . S
C1753 C1754 1.373 . S
C1753 C1755 1.389 . S
C1754 H1727 0.950 . S
C1754 C1740 1.377 . S
C1754 C1753 1.373 . S
C1755 C1739 1.377 . S
C1755 C1753 1.389 . S
C1755 C1756 1.524 . S
C1756 C1755 1.524 . S
C1756 C1757 1.397 . S
C1756 C1761 1.363 . S
C1757 H1728 0.950 . S
C1757 C1756 1.397 . S
C1757 C1758 1.334 . S
C1758 H1729 0.950 . S
C1758 C1757 1.334 . S
C1758 C1759 1.287 . S
C1759 C1758 1.287 . S
C1759 C1760 1.524 . S
C1759 H1762 0.999 . S
C1760 H1730 0.950 . S
C1760 C1759 1.524 . S
C1760 C1761 1.415 . S
C1761 H1731 0.950 . S
C1761 C1756 1.363 . S
C1761 C1760 1.415 . S
H1762 C1759 0.999 . S
H1763 C1744 0.913 . S
H1764 C1782 0.951 . S
H1765 C1784 0.951 . S
H1766 C1786 0.950 . S
H1767 C1787 0.950 . S
H1768 C1789 0.950 . S
H1769 C1792 0.950 . S
H1770 C1793 0.950 . S
H1771 C1795 0.950 . S
H1772 C1796 0.950 . S
H1773 C1797 0.951 . S
H1774 C1799 0.951 . S
H1775 C1801 0.950 . S
H1776 C1802 0.950 . S
H1777 C1804 0.950 . S
H1778 C1807 0.950 . S
H1779 C1808 0.950 . S
H1780 C1810 0.950 . S
H1781 C1811 0.950 . S
C1782 H1764 0.951 . S
C1782 C1783 1.366 . S
C1782 C1784 1.388 . S
C1783 C1782 1.366 . S
C1783 C1787 1.385 . S
C1784 H1765 0.951 . S
C1784 C1782 1.388 . S
C1784 C1785 1.366 . S
C1785 C1784 1.366 . S
C1785 C1786 1.414 . S
C1785 C1788 1.499 . S
C1786 H1766 0.950 . S
C1786 C1785 1.414 . S
C1786 C1787 1.374 . S
C1787 H1767 0.950 . S
C1787 C1783 1.385 . S
C1787 C1786 1.374 . S
C1788 C1785 1.499 . S
C1788 C1789 1.373 . S
C1788 C1790 1.389 . S
C1789 H1768 0.950 . S
C1789 C1788 1.373 . S
C1789 C1805 1.377 . S
C1790 C1788 1.389 . S
C1790 C1791 1.524 . S
C1790 C1804 1.377 . S
C1791 C1790 1.524 . S
C1791 C1792 1.397 . S
C1791 C1796 1.363 . S
C1792 H1769 0.950 . S
C1792 C1791 1.397 . S
C1792 C1793 1.334 . S
C1793 H1770 0.950 . S
C1793 C1792 1.334 . S
C1793 C1794 1.287 . S
C1794 C1793 1.287 . S
C1794 C1795 1.524 . S
C1794 H1813 0.913 . S
C1795 H1771 0.950 . S
C1795 C1794 1.524 . S
C1795 C1796 1.415 . S
C1796 H1772 0.950 . S
C1796 C1791 1.363 . S
C1796 C1795 1.415 . S
C1797 H1773 0.951 . S
C1797 C1798 1.366 . S
C1797 C1799 1.388 . S
C1798 C1797 1.366 . S
C1798 C1802 1.385 . S
C1799 H1774 0.951 . S
C1799 C1797 1.388 . S
C1799 C1800 1.366 . S
C1800 C1799 1.366 . S
C1800 C1801 1.414 . S
C1800 C1803 1.499 . S
C1801 H1775 0.950 . S
C1801 C1800 1.414 . S
C1801 C1802 1.374 . S
C1802 H1776 0.950 . S
C1802 C1798 1.385 . S
C1802 C1801 1.374 . S
C1803 C1800 1.499 . S
C1803 C1804 1.373 . S
C1803 C1805 1.389 . S
C1804 H1777 0.950 . S
C1804 C1790 1.377 . S
C1804 C1803 1.373 . S
C1805 C1789 1.377 . S
C1805 C1803 1.389 . S
C1805 C1806 1.524 . S
C1806 C1805 1.524 . S
C1806 C1807 1.397 . S
C1806 C1811 1.363 . S
C1807 H1778 0.950 . S
C1807 C1806 1.397 . S
C1807 C1808 1.334 . S
C1808 H1779 0.950 . S
C1808 C1807 1.334 . S
C1808 C1809 1.287 . S
C1809 C1808 1.287 . S
C1809 C1810 1.524 . S
C1809 H1812 0.999 . S
C1810 H1780 0.950 . S
C1810 C1809 1.524 . S
C1810 C1811 1.415 . S
C1811 H1781 0.950 . S
C1811 C1806 1.363 . S
C1811 C1810 1.415 . S
H1812 C1809 0.999 . S
H1813 C1794 0.913 . S
H1814 C1832 0.951 . S
H1815 C1834 0.951 . S
H1816 C1836 0.950 . S
H1817 C1837 0.950 . S
H1818 C1839 0.950 . S
H1819 C1842 0.950 . S
H1820 C1843 0.950 . S
H1821 C1845 0.950 . S
H1822 C1846 0.950 . S
H1823 C1847 0.951 . S
H1824 C1849 0.951 . S
H1825 C1851 0.950 . S
H1826 C1852 0.950 . S
H1827 C1854 0.950 . S
H1828 C1857 0.950 . S
H1829 C1858 0.950 . S
H1830 C1860 0.950 . S
H1831 C1861 0.950 . S
C1832 H1814 0.951 . S
C1832 C1833 1.366 . S
C1832 C1834 1.388 . S
C1833 C1832 1.366 . S
C1833 C1837 1.385 . S
C1834 H1815 0.951 . S
C1834 C1832 1.388 . S
C1834 C1835 1.366 . S
C1835 C1834 1.366 . S
C1835 C1836 1.414 . S
C1835 C1838 1.499 . S
C1836 H1816 0.950 . S
C1836 C1835 1.414 . S
C1836 C1837 1.374 . S
C1837 H1817 0.950 . S
C1837 C1833 1.385 . S
C1837 C1836 1.374 . S
C1838 C1835 1.499 . S
C1838 C1839 1.373 . S
C1838 C1840 1.389 . S
C1839 H1818 0.950 . S
C1839 C1838 1.373 . S
C1839 C1855 1.377 . S
C1840 C1838 1.389 . S
C1840 C1841 1.524 . S
C1840 C1854 1.377 . S
C1841 C1840 1.524 . S
C1841 C1842 1.397 . S
C1841 C1846 1.363 . S
C1842 H1819 0.950 . S
C1842 C1841 1.397 . S
C1842 C1843 1.334 . S
C1843 H1820 0.950 . S
C1843 C1842 1.334 . S
C1843 C1844 1.287 . S
C1844 C1843 1.287 . S
C1844 C1845 1.524 . S
C1844 H1863 0.913 . S
C1845 H1821 0.950 . S
C1845 C1844 1.524 . S
C1845 C1846 1.415 . S
C1846 H1822 0.950 . S
C1846 C1841 1.363 . S
C1846 C1845 1.415 . S
C1847 H1823 0.951 . S
C1847 C1848 1.366 . S
C1847 C1849 1.388 . S
C1848 C1847 1.366 . S
C1848 C1852 1.385 . S
C1849 H1824 0.951 . S
C1849 C1847 1.388 . S
C1849 C1850 1.366 . S
C1850 C1849 1.366 . S
C1850 C1851 1.414 . S
C1850 C1853 1.499 . S
C1851 H1825 0.950 . S
C1851 C1850 1.414 . S
C1851 C1852 1.374 . S
C1852 H1826 0.950 . S
C1852 C1848 1.385 . S
C1852 C1851 1.374 . S
C1853 C1850 1.499 . S
C1853 C1854 1.373 . S
C1853 C1855 1.389 . S
C1854 H1827 0.950 . S
C1854 C1840 1.377 . S
C1854 C1853 1.373 . S
C1855 C1839 1.377 . S
C1855 C1853 1.389 . S
C1855 C1856 1.524 . S
C1856 C1855 1.524 . S
C1856 C1857 1.397 . S
C1856 C1861 1.363 . S
C1857 H1828 0.950 . S
C1857 C1856 1.397 . S
C1857 C1858 1.334 . S
C1858 H1829 0.950 . S
C1858 C1857 1.334 . S
C1858 C1859 1.287 . S
C1859 C1858 1.287 . S
C1859 C1860 1.524 . S
C1859 H1862 0.999 . S
C1860 H1830 0.950 . S
C1860 C1859 1.524 . S
C1860 C1861 1.415 . S
C1861 H1831 0.950 . S
C1861 C1856 1.363 . S
C1861 C1860 1.415 . S
H1862 C1859 0.999 . S
H1863 C1844 0.913 . S
H1864 C1882 0.951 . S
H1865 C1884 0.951 . S
H1866 C1886 0.950 . S
H1867 C1887 0.950 . S
H1868 C1889 0.950 . S
H1869 C1892 0.950 . S
H1870 C1893 0.950 . S
H1871 C1895 0.950 . S
H1872 C1896 0.950 . S
H1873 C1897 0.951 . S
H1874 C1899 0.951 . S
H1875 C1901 0.950 . S
H1876 C1902 0.950 . S
H1877 C1904 0.950 . S
H1878 C1907 0.950 . S
H1879 C1908 0.950 . S
H1880 C1910 0.950 . S
H1881 C1911 0.950 . S
C1882 H1864 0.951 . S
C1882 C1883 1.366 . S
C1882 C1884 1.388 . S
C1883 C1882 1.366 . S
C1883 C1887 1.385 . S
C1884 H1865 0.951 . S
C1884 C1882 1.388 . S
C1884 C1885 1.366 . S
C1885 C1884 1.366 . S
C1885 C1886 1.414 . S
C1885 C1888 1.499 . S
C1886 H1866 0.950 . S
C1886 C1885 1.414 . S
C1886 C1887 1.374 . S
C1887 H1867 0.950 . S
C1887 C1883 1.385 . S
C1887 C1886 1.374 . S
C1888 C1885 1.499 . S
C1888 C1889 1.373 . S
C1888 C1890 1.389 . S
C1889 H1868 0.950 . S
C1889 C1888 1.373 . S
C1889 C1905 1.377 . S
C1890 C1888 1.389 . S
C1890 C1891 1.524 . S
C1890 C1904 1.377 . S
C1891 C1890 1.524 . S
C1891 C1892 1.397 . S
C1891 C1896 1.363 . S
C1892 H1869 0.950 . S
C1892 C1891 1.397 . S
C1892 C1893 1.334 . S
C1893 H1870 0.950 . S
C1893 C1892 1.334 . S
C1893 C1894 1.287 . S
C1894 C1893 1.287 . S
C1894 C1895 1.524 . S
C1894 H1913 0.913 . S
C1895 H1871 0.950 . S
C1895 C1894 1.524 . S
C1895 C1896 1.415 . S
C1896 H1872 0.950 . S
C1896 C1891 1.363 . S
C1896 C1895 1.415 . S
C1897 H1873 0.951 . S
C1897 C1898 1.366 . S
C1897 C1899 1.388 . S
C1898 C1897 1.366 . S
C1898 C1902 1.385 . S
C1899 H1874 0.951 . S
C1899 C1897 1.388 . S
C1899 C1900 1.366 . S
C1900 C1899 1.366 . S
C1900 C1901 1.414 . S
C1900 C1903 1.499 . S
C1901 H1875 0.950 . S
C1901 C1900 1.414 . S
C1901 C1902 1.374 . S
C1902 H1876 0.950 . S
C1902 C1898 1.385 . S
C1902 C1901 1.374 . S
C1903 C1900 1.499 . S
C1903 C1904 1.373 . S
C1903 C1905 1.389 . S
C1904 H1877 0.950 . S
C1904 C1890 1.377 . S
C1904 C1903 1.373 . S
C1905 C1889 1.377 . S
C1905 C1903 1.389 . S
C1905 C1906 1.524 . S
C1906 C1905 1.524 . S
C1906 C1907 1.397 . S
C1906 C1911 1.363 . S
C1907 H1878 0.950 . S
C1907 C1906 1.397 . S
C1907 C1908 1.334 . S
C1908 H1879 0.950 . S
C1908 C1907 1.334 . S
C1908 C1909 1.287 . S
C1909 C1908 1.287 . S
C1909 C1910 1.524 . S
C1909 H1912 0.999 . S
C1910 H1880 0.950 . S
C1910 C1909 1.524 . S
C1910 C1911 1.415 . S
C1911 H1881 0.950 . S
C1911 C1906 1.363 . S
C1911 C1910 1.415 . S
H1912 C1909 0.999 . S
H1913 C1894 0.913 . S
H1914 C1932 0.951 . S
H1915 C1934 0.951 . S
H1916 C1936 0.950 . S
H1917 C1937 0.950 . S
H1918 C1939 0.950 . S
H1919 C1942 0.950 . S
H1920 C1943 0.950 . S
H1921 C1945 0.950 . S
H1922 C1946 0.950 . S
H1923 C1947 0.951 . S
H1924 C1949 0.951 . S
H1925 C1951 0.950 . S
H1926 C1952 0.950 . S
H1927 C1954 0.950 . S
H1928 C1957 0.950 . S
H1929 C1958 0.950 . S
H1930 C1960 0.950 . S
H1931 C1961 0.950 . S
C1932 H1914 0.951 . S
C1932 C1933 1.366 . S
C1932 C1934 1.388 . S
C1933 C1932 1.366 . S
C1933 C1937 1.385 . S
C1934 H1915 0.951 . S
C1934 C1932 1.388 . S
C1934 C1935 1.366 . S
C1935 C1934 1.366 . S
C1935 C1936 1.414 . S
C1935 C1938 1.499 . S
C1936 H1916 0.950 . S
C1936 C1935 1.414 . S
C1936 C1937 1.374 . S
C1937 H1917 0.950 . S
C1937 C1933 1.385 . S
C1937 C1936 1.374 . S
C1938 C1935 1.499 . S
C1938 C1939 1.373 . S
C1938 C1940 1.389 . S
C1939 H1918 0.950 . S
C1939 C1938 1.373 . S
C1939 C1955 1.377 . S
C1940 C1938 1.389 . S
C1940 C1941 1.524 . S
C1940 C1954 1.377 . S
C1941 C1940 1.524 . S
C1941 C1942 1.397 . S
C1941 C1946 1.363 . S
C1942 H1919 0.950 . S
C1942 C1941 1.397 . S
C1942 C1943 1.334 . S
C1943 H1920 0.950 . S
C1943 C1942 1.334 . S
C1943 C1944 1.287 . S
C1944 C1943 1.287 . S
C1944 C1945 1.524 . S
C1944 H1963 0.913 . S
C1945 H1921 0.950 . S
C1945 C1944 1.524 . S
C1945 C1946 1.415 . S
C1946 H1922 0.950 . S
C1946 C1941 1.363 . S
C1946 C1945 1.415 . S
C1947 H1923 0.951 . S
C1947 C1948 1.366 . S
C1947 C1949 1.388 . S
C1948 C1947 1.366 . S
C1948 C1952 1.385 . S
C1949 H1924 0.951 . S
C1949 C1947 1.388 . S
C1949 C1950 1.366 . S
C1950 C1949 1.366 . S
C1950 C1951 1.414 . S
C1950 C1953 1.499 . S
C1951 H1925 0.950 . S
C1951 C1950 1.414 . S
C1951 C1952 1.374 . S
C1952 H1926 0.950 . S
C1952 C1948 1.385 . S
C1952 C1951 1.374 . S
C1953 C1950 1.499 . S
C1953 C1954 1.373 . S
C1953 C1955 1.389 . S
C1954 H1927 0.950 . S
C1954 C1940 1.377 . S
C1954 C1953 1.373 . S
C1955 C1939 1.377 . S
C1955 C1953 1.389 . S
C1955 C1956 1.524 . S
C1956 C1955 1.524 . S
C1956 C1957 1.397 . S
C1956 C1961 1.363 . S
C1957 H1928 0.950 . S
C1957 C1956 1.397 . S
C1957 C1958 1.334 . S
C1958 H1929 0.950 . S
C1958 C1957 1.334 . S
C1958 C1959 1.287 . S
C1959 C1958 1.287 . S
C1959 C1960 1.524 . S
C1959 H1962 0.999 . S
C1960 H1930 0.950 . S
C1960 C1959 1.524 . S
C1960 C1961 1.415 . S
C1961 H1931 0.950 . S
C1961 C1956 1.363 . S
C1961 C1960 1.415 . S
H1962 C1959 0.999 . S
H1963 C1944 0.913 . S
H1964 C1982 0.951 . S
H1965 C1984 0.951 . S
H1966 C1986 0.950 . S
H1967 C1987 0.950 . S
H1968 C1989 0.950 . S
H1969 C1992 0.950 . S
H1970 C1993 0.950 . S
H1971 C1995 0.950 . S
H1972 C1996 0.950 . S
H1973 C1997 0.951 . S
H1974 C1999 0.951 . S
H1975 C2001 0.950 . S
H1976 C2002 0.950 . S
H1977 C2004 0.950 . S
H1978 C2007 0.950 . S
H1979 C2008 0.950 . S
H1980 C2010 0.950 . S
H1981 C2011 0.950 . S
C1982 H1964 0.951 . S
C1982 C1983 1.366 . S
C1982 C1984 1.388 . S
C1983 C1982 1.366 . S
C1983 C1987 1.385 . S
C1984 H1965 0.951 . S
C1984 C1982 1.388 . S
C1984 C1985 1.366 . S
C1985 C1984 1.366 . S
C1985 C1986 1.414 . S
C1985 C1988 1.499 . S
C1986 H1966 0.950 . S
C1986 C1985 1.414 . S
C1986 C1987 1.374 . S
C1987 H1967 0.950 . S
C1987 C1983 1.385 . S
C1987 C1986 1.374 . S
C1988 C1985 1.499 . S
C1988 C1989 1.373 . S
C1988 C1990 1.389 . S
C1989 H1968 0.950 . S
C1989 C1988 1.373 . S
C1989 C2005 1.377 . S
C1990 C1988 1.389 . S
C1990 C1991 1.524 . S
C1990 C2004 1.377 . S
C1991 C1990 1.524 . S
C1991 C1992 1.397 . S
C1991 C1996 1.363 . S
C1992 H1969 0.950 . S
C1992 C1991 1.397 . S
C1992 C1993 1.334 . S
C1993 H1970 0.950 . S
C1993 C1992 1.334 . S
C1993 C1994 1.287 . S
C1994 C1993 1.287 . S
C1994 C1995 1.524 . S
C1994 H2013 0.913 . S
C1995 H1971 0.950 . S
C1995 C1994 1.524 . S
C1995 C1996 1.415 . S
C1996 H1972 0.950 . S
C1996 C1991 1.363 . S
C1996 C1995 1.415 . S
C1997 H1973 0.951 . S
C1997 C1998 1.366 . S
C1997 C1999 1.388 . S
C1998 C1997 1.366 . S
C1998 C2002 1.385 . S
C1999 H1974 0.951 . S
C1999 C1997 1.388 . S
C1999 C2000 1.366 . S
C2000 C1999 1.366 . S
C2000 C2001 1.414 . S
C2000 C2003 1.499 . S
C2001 H1975 0.950 . S
C2001 C2000 1.414 . S
C2001 C2002 1.374 . S
C2002 H1976 0.950 . S
C2002 C1998 1.385 . S
C2002 C2001 1.374 . S
C2003 C2000 1.499 . S
C2003 C2004 1.373 . S
C2003 C2005 1.389 . S
C2004 H1977 0.950 . S
C2004 C1990 1.377 . S
C2004 C2003 1.373 . S
C2005 C1989 1.377 . S
C2005 C2003 1.389 . S
C2005 C2006 1.524 . S
C2006 C2005 1.524 . S
C2006 C2007 1.397 . S
C2006 C2011 1.363 . S
C2007 H1978 0.950 . S
C2007 C2006 1.397 . S
C2007 C2008 1.334 . S
C2008 H1979 0.950 . S
C2008 C2007 1.334 . S
C2008 C2009 1.287 . S
C2009 C2008 1.287 . S
C2009 C2010 1.524 . S
C2009 H2012 0.999 . S
C2010 H1980 0.950 . S
C2010 C2009 1.524 . S
C2010 C2011 1.415 . S
C2011 H1981 0.950 . S
C2011 C2006 1.363 . S
C2011 C2010 1.415 . S
H2012 C2009 0.999 . S
H2013 C1994 0.913 . S
H2014 C2032 0.951 . S
H2015 C2034 0.951 . S
H2016 C2036 0.950 . S
H2017 C2037 0.950 . S
H2018 C2039 0.950 . S
H2019 C2042 0.950 . S
H2020 C2043 0.950 . S
H2021 C2045 0.950 . S
H2022 C2046 0.950 . S
H2023 C2047 0.951 . S
H2024 C2049 0.951 . S
H2025 C2051 0.950 . S
H2026 C2052 0.950 . S
H2027 C2054 0.950 . S
H2028 C2057 0.950 . S
H2029 C2058 0.950 . S
H2030 C2060 0.950 . S
H2031 C2061 0.950 . S
C2032 H2014 0.951 . S
C2032 C2033 1.366 . S
C2032 C2034 1.388 . S
C2033 C2032 1.366 . S
C2033 C2037 1.385 . S
C2034 H2015 0.951 . S
C2034 C2032 1.388 . S
C2034 C2035 1.366 . S
C2035 C2034 1.366 . S
C2035 C2036 1.414 . S
C2035 C2038 1.499 . S
C2036 H2016 0.950 . S
C2036 C2035 1.414 . S
C2036 C2037 1.374 . S
C2037 H2017 0.950 . S
C2037 C2033 1.385 . S
C2037 C2036 1.374 . S
C2038 C2035 1.499 . S
C2038 C2039 1.373 . S
C2038 C2040 1.389 . S
C2039 H2018 0.950 . S
C2039 C2038 1.373 . S
C2039 C2055 1.377 . S
C2040 C2038 1.389 . S
C2040 C2041 1.524 . S
C2040 C2054 1.377 . S
C2041 C2040 1.524 . S
C2041 C2042 1.397 . S
C2041 C2046 1.363 . S
C2042 H2019 0.950 . S
C2042 C2041 1.397 . S
C2042 C2043 1.334 . S
C2043 H2020 0.950 . S
C2043 C2042 1.334 . S
C2043 C2044 1.287 . S
C2044 C2043 1.287 . S
C2044 C2045 1.524 . S
C2044 H2063 0.913 . S
C2045 H2021 0.950 . S
C2045 C2044 1.524 . S
C2045 C2046 1.415 . S
C2046 H2022 0.950 . S
C2046 C2041 1.363 . S
C2046 C2045 1.415 . S
C2047 H2023 0.951 . S
C2047 C2048 1.366 . S
C2047 C2049 1.388 . S
C2048 C2047 1.366 . S
C2048 C2052 1.385 . S
C2049 H2024 0.951 . S
C2049 C2047 1.388 . S
C2049 C2050 1.366 . S
C2050 C2049 1.366 . S
C2050 C2051 1.414 . S
C2050 C2053 1.499 . S
C2051 H2025 0.950 . S
C2051 C2050 1.414 . S
C2051 C2052 1.374 . S
C2052 H2026 0.950 . S
C2052 C2048 1.385 . S
C2052 C2051 1.374 . S
C2053 C2050 1.499 . S
C2053 C2054 1.373 . S
C2053 C2055 1.389 . S
C2054 H2027 0.950 . S
C2054 C2040 1.377 . S
C2054 C2053 1.373 . S
C2055 C2039 1.377 . S
C2055 C2053 1.389 . S
C2055 C2056 1.524 . S
C2056 C2055 1.524 . S
C2056 C2057 1.397 . S
C2056 C2061 1.363 . S
C2057 H2028 0.950 . S
C2057 C2056 1.397 . S
C2057 C2058 1.334 . S
C2058 H2029 0.950 . S
C2058 C2057 1.334 . S
C2058 C2059 1.287 . S
C2059 C2058 1.287 . S
C2059 C2060 1.524 . S
C2059 H2062 0.999 . S
C2060 H2030 0.950 . S
C2060 C2059 1.524 . S
C2060 C2061 1.415 . S
C2061 H2031 0.950 . S
C2061 C2056 1.363 . S
C2061 C2060 1.415 . S
H2062 C2059 0.999 . S
H2063 C2044 0.913 . S
H2064 C2082 0.951 . S
H2065 C2084 0.951 . S
H2066 C2086 0.950 . S
H2067 C2087 0.950 . S
H2068 C2089 0.950 . S
H2069 C2092 0.950 . S
H2070 C2093 0.950 . S
H2071 C2095 0.950 . S
H2072 C2096 0.950 . S
H2073 C2097 0.951 . S
H2074 C2099 0.951 . S
H2075 C2101 0.950 . S
H2076 C2102 0.950 . S
H2077 C2104 0.950 . S
H2078 C2107 0.950 . S
H2079 C2108 0.950 . S
H2080 C2110 0.950 . S
H2081 C2111 0.950 . S
C2082 H2064 0.951 . S
C2082 C2083 1.366 . S
C2082 C2084 1.388 . S
C2083 C2082 1.366 . S
C2083 C2087 1.385 . S
C2084 H2065 0.951 . S
C2084 C2082 1.388 . S
C2084 C2085 1.366 . S
C2085 C2084 1.366 . S
C2085 C2086 1.414 . S
C2085 C2088 1.499 . S
C2086 H2066 0.950 . S
C2086 C2085 1.414 . S
C2086 C2087 1.374 . S
C2087 H2067 0.950 . S
C2087 C2083 1.385 . S
C2087 C2086 1.374 . S
C2088 C2085 1.499 . S
C2088 C2089 1.373 . S
C2088 C2090 1.389 . S
C2089 H2068 0.950 . S
C2089 C2088 1.373 . S
C2089 C2105 1.377 . S
C2090 C2088 1.389 . S
C2090 C2091 1.524 . S
C2090 C2104 1.377 . S
C2091 C2090 1.524 . S
C2091 C2092 1.397 . S
C2091 C2096 1.363 . S
C2092 H2069 0.950 . S
C2092 C2091 1.397 . S
C2092 C2093 1.334 . S
C2093 H2070 0.950 . S
C2093 C2092 1.334 . S
C2093 C2094 1.287 . S
C2094 C2093 1.287 . S
C2094 C2095 1.524 . S
C2094 H2113 0.913 . S
C2095 H2071 0.950 . S
C2095 C2094 1.524 . S
C2095 C2096 1.415 . S
C2096 H2072 0.950 . S
C2096 C2091 1.363 . S
C2096 C2095 1.415 . S
C2097 H2073 0.951 . S
C2097 C2098 1.366 . S
C2097 C2099 1.388 . S
C2098 C2097 1.366 . S
C2098 C2102 1.385 . S
C2099 H2074 0.951 . S
C2099 C2097 1.388 . S
C2099 C2100 1.366 . S
C2100 C2099 1.366 . S
C2100 C2101 1.414 . S
C2100 C2103 1.499 . S
C2101 H2075 0.950 . S
C2101 C2100 1.414 . S
C2101 C2102 1.374 . S
C2102 H2076 0.950 . S
C2102 C2098 1.385 . S
C2102 C2101 1.374 . S
C2103 C2100 1.499 . S
C2103 C2104 1.373 . S
C2103 C2105 1.389 . S
C2104 H2077 0.950 . S
C2104 C2090 1.377 . S
C2104 C2103 1.373 . S
C2105 C2089 1.377 . S
C2105 C2103 1.389 . S
C2105 C2106 1.524 . S
C2106 C2105 1.524 . S
C2106 C2107 1.397 . S
C2106 C2111 1.363 . S
C2107 H2078 0.950 . S
C2107 C2106 1.397 . S
C2107 C2108 1.334 . S
C2108 H2079 0.950 . S
C2108 C2107 1.334 . S
C2108 C2109 1.287 . S
C2109 C2108 1.287 . S
C2109 C2110 1.524 . S
C2109 H2112 0.999 . S
C2110 H2080 0.950 . S
C2110 C2109 1.524 . S
C2110 C2111 1.415 . S
C2111 H2081 0.950 . S
C2111 C2106 1.363 . S
C2111 C2110 1.415 . S
H2112 C2109 0.999 . S
H2113 C2094 0.913 . S
H2114 C2132 0.951 . S
H2115 C2134 0.951 . S
H2116 C2136 0.950 . S
H2117 C2137 0.950 . S
H2118 C2139 0.950 . S
H2119 C2142 0.950 . S
H2120 C2143 0.950 . S
H2121 C2145 0.950 . S
H2122 C2146 0.950 . S
H2123 C2147 0.951 . S
H2124 C2149 0.951 . S
H2125 C2151 0.950 . S
H2126 C2152 0.950 . S
H2127 C2154 0.950 . S
H2128 C2157 0.950 . S
H2129 C2158 0.950 . S
H2130 C2160 0.950 . S
H2131 C2161 0.950 . S
C2132 H2114 0.951 . S
C2132 C2133 1.366 . S
C2132 C2134 1.388 . S
C2133 C2132 1.366 . S
C2133 C2137 1.385 . S
C2134 H2115 0.951 . S
C2134 C2132 1.388 . S
C2134 C2135 1.366 . S
C2135 C2134 1.366 . S
C2135 C2136 1.414 . S
C2135 C2138 1.499 . S
C2136 H2116 0.950 . S
C2136 C2135 1.414 . S
C2136 C2137 1.374 . S
C2137 H2117 0.950 . S
C2137 C2133 1.385 . S
C2137 C2136 1.374 . S
C2138 C2135 1.499 . S
C2138 C2139 1.373 . S
C2138 C2140 1.389 . S
C2139 H2118 0.950 . S
C2139 C2138 1.373 . S
C2139 C2155 1.377 . S
C2140 C2138 1.389 . S
C2140 C2141 1.524 . S
C2140 C2154 1.377 . S
C2141 C2140 1.524 . S
C2141 C2142 1.397 . S
C2141 C2146 1.363 . S
C2142 H2119 0.950 . S
C2142 C2141 1.397 . S
C2142 C2143 1.334 . S
C2143 H2120 0.950 . S
C2143 C2142 1.334 . S
C2143 C2144 1.287 . S
C2144 C2143 1.287 . S
C2144 C2145 1.524 . S
C2144 H2163 0.913 . S
C2145 H2121 0.950 . S
C2145 C2144 1.524 . S
C2145 C2146 1.415 . S
C2146 H2122 0.950 . S
C2146 C2141 1.363 . S
C2146 C2145 1.415 . S
C2147 H2123 0.951 . S
C2147 C2148 1.366 . S
C2147 C2149 1.388 . S
C2148 C2147 1.366 . S
C2148 C2152 1.385 . S
C2149 H2124 0.951 . S
C2149 C2147 1.388 . S
C2149 C2150 1.366 . S
C2150 C2149 1.366 . S
C2150 C2151 1.414 . S
C2150 C2153 1.499 . S
C2151 H2125 0.950 . S
C2151 C2150 1.414 . S
C2151 C2152 1.374 . S
C2152 H2126 0.950 . S
C2152 C2148 1.385 . S
C2152 C2151 1.374 . S
C2153 C2150 1.499 . S
C2153 C2154 1.373 . S
C2153 C2155 1.389 . S
C2154 H2127 0.950 . S
C2154 C2140 1.377 . S
C2154 C2153 1.373 . S
C2155 C2139 1.377 . S
C2155 C2153 1.389 . S
C2155 C2156 1.524 . S
C2156 C2155 1.524 . S
C2156 C2157 1.397 . S
C2156 C2161 1.363 . S
C2157 H2128 0.950 . S
C2157 C2156 1.397 . S
C2157 C2158 1.334 . S
C2158 H2129 0.950 . S
C2158 C2157 1.334 . S
C2158 C2159 1.287 . S
C2159 C2158 1.287 . S
C2159 C2160 1.524 . S
C2159 H2162 0.999 . S
C2160 H2130 0.950 . S
C2160 C2159 1.524 . S
C2160 C2161 1.415 . S
C2161 H2131 0.950 . S
C2161 C2156 1.363 . S
C2161 C2160 1.415 . S
H2162 C2159 0.999 . S
H2163 C2144 0.913 . S
H2164 C2182 0.951 . S
H2165 C2184 0.951 . S
H2166 C2186 0.950 . S
H2167 C2187 0.950 . S
H2168 C2189 0.950 . S
H2169 C2192 0.950 . S
H2170 C2193 0.950 . S
H2171 C2195 0.950 . S
H2172 C2196 0.950 . S
H2173 C2197 0.951 . S
H2174 C2199 0.951 . S
H2175 C2201 0.950 . S
H2176 C2202 0.950 . S
H2177 C2204 0.950 . S
H2178 C2207 0.950 . S
H2179 C2208 0.950 . S
H2180 C2210 0.950 . S
H2181 C2211 0.950 . S
C2182 H2164 0.951 . S
C2182 C2183 1.366 . S
C2182 C2184 1.388 . S
C2183 C2182 1.366 . S
C2183 C2187 1.385 . S
C2184 H2165 0.951 . S
C2184 C2182 1.388 . S
C2184 C2185 1.366 . S
C2185 C2184 1.366 . S
C2185 C2186 1.414 . S
C2185 C2188 1.499 . S
C2186 H2166 0.950 . S
C2186 C2185 1.414 . S
C2186 C2187 1.374 . S
C2187 H2167 0.950 . S
C2187 C2183 1.385 . S
C2187 C2186 1.374 . S
C2188 C2185 1.499 . S
C2188 C2189 1.373 . S
C2188 C2190 1.389 . S
C2189 H2168 0.950 . S
C2189 C2188 1.373 . S
C2189 C2205 1.377 . S
C2190 C2188 1.389 . S
C2190 C2191 1.524 . S
C2190 C2204 1.377 . S
C2191 C2190 1.524 . S
C2191 C2192 1.397 . S
C2191 C2196 1.363 . S
C2192 H2169 0.950 . S
C2192 C2191 1.397 . S
C2192 C2193 1.334 . S
C2193 H2170 0.950 . S
C2193 C2192 1.334 . S
C2193 C2194 1.287 . S
C2194 C2193 1.287 . S
C2194 C2195 1.524 . S
C2194 H2213 0.913 . S
C2195 H2171 0.950 . S
C2195 C2194 1.524 . S
C2195 C2196 1.415 . S
C2196 H2172 0.950 . S
C2196 C2191 1.363 . S
C2196 C2195 1.415 . S
C2197 H2173 0.951 . S
C2197 C2198 1.366 . S
C2197 C2199 1.388 . S
C2198 C2197 1.366 . S
C2198 C2202 1.385 . S
C2199 H2174 0.951 . S
C2199 C2197 1.388 . S
C2199 C2200 1.366 . S
C2200 C2199 1.366 . S
C2200 C2201 1.414 . S
C2200 C2203 1.499 . S
C2201 H2175 0.950 . S
C2201 C2200 1.414 . S
C2201 C2202 1.374 . S
C2202 H2176 0.950 . S
C2202 C2198 1.385 . S
C2202 C2201 1.374 . S
C2203 C2200 1.499 . S
C2203 C2204 1.373 . S
C2203 C2205 1.389 . S
C2204 H2177 0.950 . S
C2204 C2190 1.377 . S
C2204 C2203 1.373 . S
C2205 C2189 1.377 . S
C2205 C2203 1.389 . S
C2205 C2206 1.524 . S
C2206 C2205 1.524 . S
C2206 C2207 1.397 . S
C2206 C2211 1.363 . S
C2207 H2178 0.950 . S
C2207 C2206 1.397 . S
C2207 C2208 1.334 . S
C2208 H2179 0.950 . S
C2208 C2207 1.334 . S
C2208 C2209 1.287 . S
C2209 C2208 1.287 . S
C2209 C2210 1.524 . S
C2209 H2212 0.999 . S
C2210 H2180 0.950 . S
C2210 C2209 1.524 . S
C2210 C2211 1.415 . S
C2211 H2181 0.950 . S
C2211 C2206 1.363 . S
C2211 C2210 1.415 . S
H2212 C2209 0.999 . S
H2213 C2194 0.913 . S
H2214 C2232 0.951 . S
H2215 C2234 0.951 . S
H2216 C2236 0.950 . S
H2217 C2237 0.950 . S
H2218 C2239 0.950 . S
H2219 C2242 0.950 . S
H2220 C2243 0.950 . S
H2221 C2245 0.950 . S
H2222 C2246 0.950 . S
H2223 C2247 0.951 . S
H2224 C2249 0.951 . S
H2225 C2251 0.950 . S
H2226 C2252 0.950 . S
H2227 C2254 0.950 . S
H2228 C2257 0.950 . S
H2229 C2258 0.950 . S
H2230 C2260 0.950 . S
H2231 C2261 0.950 . S
C2232 H2214 0.951 . S
C2232 C2233 1.366 . S
C2232 C2234 1.388 . S
C2233 C2232 1.366 . S
C2233 C2237 1.385 . S
C2234 H2215 0.951 . S
C2234 C2232 1.388 . S
C2234 C2235 1.366 . S
C2235 C2234 1.366 . S
C2235 C2236 1.414 . S
C2235 C2238 1.499 . S
C2236 H2216 0.950 . S
C2236 C2235 1.414 . S
C2236 C2237 1.374 . S
C2237 H2217 0.950 . S
C2237 C2233 1.385 . S
C2237 C2236 1.374 . S
C2238 C2235 1.499 . S
C2238 C2239 1.373 . S
C2238 C2240 1.389 . S
C2239 H2218 0.950 . S
C2239 C2238 1.373 . S
C2239 C2255 1.377 . S
C2240 C2238 1.389 . S
C2240 C2241 1.524 . S
C2240 C2254 1.377 . S
C2241 C2240 1.524 . S
C2241 C2242 1.397 . S
C2241 C2246 1.363 . S
C2242 H2219 0.950 . S
C2242 C2241 1.397 . S
C2242 C2243 1.334 . S
C2243 H2220 0.950 . S
C2243 C2242 1.334 . S
C2243 C2244 1.287 . S
C2244 C2243 1.287 . S
C2244 C2245 1.524 . S
C2244 H2263 0.913 . S
C2245 H2221 0.950 . S
C2245 C2244 1.524 . S
C2245 C2246 1.415 . S
C2246 H2222 0.950 . S
C2246 C2241 1.363 . S
C2246 C2245 1.415 . S
C2247 H2223 0.951 . S
C2247 C2248 1.366 . S
C2247 C2249 1.388 . S
C2248 C2247 1.366 . S
C2248 C2252 1.385 . S
C2249 H2224 0.951 . S
C2249 C2247 1.388 . S
C2249 C2250 1.366 . S
C2250 C2249 1.366 . S
C2250 C2251 1.414 . S
C2250 C2253 1.499 . S
C2251 H2225 0.950 . S
C2251 C2250 1.414 . S
C2251 C2252 1.374 . S
C2252 H2226 0.950 . S
C2252 C2248 1.385 . S
C2252 C2251 1.374 . S
C2253 C2250 1.499 . S
C2253 C2254 1.373 . S
C2253 C2255 1.389 . S
C2254 H2227 0.950 . S
C2254 C2240 1.377 . S
C2254 C2253 1.373 . S
C2255 C2239 1.377 . S
C2255 C2253 1.389 . S
C2255 C2256 1.524 . S
C2256 C2255 1.524 . S
C2256 C2257 1.397 . S
C2256 C2261 1.363 . S
C2257 H2228 0.950 . S
C2257 C2256 1.397 . S
C2257 C2258 1.334 . S
C2258 H2229 0.950 . S
C2258 C2257 1.334 . S
C2258 C2259 1.287 . S
C2259 C2258 1.287 . S
C2259 C2260 1.524 . S
C2259 H2262 0.999 . S
C2260 H2230 0.950 . S
C2260 C2259 1.524 . S
C2260 C2261 1.415 . S
C2261 H2231 0.950 . S
C2261 C2256 1.363 . S
C2261 C2260 1.415 . S
H2262 C2259 0.999 . S
H2263 C2244 0.913 . S
H2264 C2282 0.951 . S
H2265 C2284 0.951 . S
H2266 C2286 0.950 . S
H2267 C2287 0.950 . S
H2268 C2289 0.950 . S
H2269 C2292 0.950 . S
H2270 C2293 0.950 . S
H2271 C2295 0.950 . S
H2272 C2296 0.950 . S
H2273 C2297 0.951 . S
H2274 C2299 0.951 . S
H2275 C2301 0.950 . S
H2276 C2302 0.950 . S
H2277 C2304 0.950 . S
H2278 C2307 0.950 . S
H2279 C2308 0.950 . S
H2280 C2310 0.950 . S
H2281 C2311 0.950 . S
C2282 H2264 0.951 . S
C2282 C2283 1.366 . S
C2282 C2284 1.388 . S
C2283 C2282 1.366 . S
C2283 C2287 1.385 . S
C2284 H2265 0.951 . S
C2284 C2282 1.388 . S
C2284 C2285 1.366 . S
C2285 C2284 1.366 . S
C2285 C2286 1.414 . S
C2285 C2288 1.499 . S
C2286 H2266 0.950 . S
C2286 C2285 1.414 . S
C2286 C2287 1.374 . S
C2287 H2267 0.950 . S
C2287 C2283 1.385 . S
C2287 C2286 1.374 . S
C2288 C2285 1.499 . S
C2288 C2289 1.373 . S
C2288 C2290 1.389 . S
C2289 H2268 0.950 . S
C2289 C2288 1.373 . S
C2289 C2305 1.377 . S
C2290 C2288 1.389 . S
C2290 C2291 1.524 . S
C2290 C2304 1.377 . S
C2291 C2290 1.524 . S
C2291 C2292 1.397 . S
C2291 C2296 1.363 . S
C2292 H2269 0.950 . S
C2292 C2291 1.397 . S
C2292 C2293 1.334 . S
C2293 H2270 0.950 . S
C2293 C2292 1.334 . S
C2293 C2294 1.287 . S
C2294 C2293 1.287 . S
C2294 C2295 1.524 . S
C2294 H2313 0.913 . S
C2295 H2271 0.950 . S
C2295 C2294 1.524 . S
C2295 C2296 1.415 . S
C2296 H2272 0.950 . S
C2296 C2291 1.363 . S
C2296 C2295 1.415 . S
C2297 H2273 0.951 . S
C2297 C2298 1.366 . S
C2297 C2299 1.388 . S
C2298 C2297 1.366 . S
C2298 C2302 1.385 . S
C2299 H2274 0.951 . S
C2299 C2297 1.388 . S
C2299 C2300 1.366 . S
C2300 C2299 1.366 . S
C2300 C2301 1.414 . S
C2300 C2303 1.499 . S
C2301 H2275 0.950 . S
C2301 C2300 1.414 . S
C2301 C2302 1.374 . S
C2302 H2276 0.950 . S
C2302 C2298 1.385 . S
C2302 C2301 1.374 . S
C2303 C2300 1.499 . S
C2303 C2304 1.373 . S
C2303 C2305 1.389 . S
C2304 H2277 0.950 . S
C2304 C2290 1.377 . S
C2304 C2303 1.373 . S
C2305 C2289 1.377 . S
C2305 C2303 1.389 . S
C2305 C2306 1.524 . S
C2306 C2305 1.524 . S
C2306 C2307 1.397 . S
C2306 C2311 1.363 . S
C2307 H2278 0.950 . S
C2307 C2306 1.397 . S
C2307 C2308 1.334 . S
C2308 H2279 0.950 . S
C2308 C2307 1.334 . S
C2308 C2309 1.287 . S
C2309 C2308 1.287 . S
C2309 C2310 1.524 . S
C2309 H2312 0.999 . S
C2310 H2280 0.950 . S
C2310 C2309 1.524 . S
C2310 C2311 1.415 . S
C2311 H2281 0.950 . S
C2311 C2306 1.363 . S
C2311 C2310 1.415 . S
H2312 C2309 0.999 . S
H2313 C2294 0.913 . S
H2314 C2332 0.951 . S
H2315 C2334 0.951 . S
H2316 C2336 0.950 . S
H2317 C2337 0.950 . S
H2318 C2339 0.950 . S
H2319 C2342 0.950 . S
H2320 C2343 0.950 . S
H2321 C2345 0.950 . S
H2322 C2346 0.950 . S
H2323 C2347 0.951 . S
H2324 C2349 0.951 . S
H2325 C2351 0.950 . S
H2326 C2352 0.950 . S
H2327 C2354 0.950 . S
H2328 C2357 0.950 . S
H2329 C2358 0.950 . S
H2330 C2360 0.950 . S
H2331 C2361 0.950 . S
C2332 H2314 0.951 . S
C2332 C2333 1.366 . S
C2332 C2334 1.388 . S
C2333 C2332 1.366 . S
C2333 C2337 1.385 . S
C2334 H2315 0.951 . S
C2334 C2332 1.388 . S
C2334 C2335 1.366 . S
C2335 C2334 1.366 . S
C2335 C2336 1.414 . S
C2335 C2338 1.499 . S
C2336 H2316 0.950 . S
C2336 C2335 1.414 . S
C2336 C2337 1.374 . S
C2337 H2317 0.950 . S
C2337 C2333 1.385 . S
C2337 C2336 1.374 . S
C2338 C2335 1.499 . S
C2338 C2339 1.373 . S
C2338 C2340 1.389 . S
C2339 H2318 0.950 . S
C2339 C2338 1.373 . S
C2339 C2355 1.377 . S
C2340 C2338 1.389 . S
C2340 C2341 1.524 . S
C2340 C2354 1.377 . S
C2341 C2340 1.524 . S
C2341 C2342 1.397 . S
C2341 C2346 1.363 . S
C2342 H2319 0.950 . S
C2342 C2341 1.397 . S
C2342 C2343 1.334 . S
C2343 H2320 0.950 . S
C2343 C2342 1.334 . S
C2343 C2344 1.287 . S
C2344 C2343 1.287 . S
C2344 C2345 1.524 . S
C2344 H2363 0.913 . S
C2345 H2321 0.950 . S
C2345 C2344 1.524 . S
C2345 C2346 1.415 . S
C2346 H2322 0.950 . S
C2346 C2341 1.363 . S
C2346 C2345 1.415 . S
C2347 H2323 0.951 . S
C2347 C2348 1.366 . S
C2347 C2349 1.388 . S
C2348 C2347 1.366 . S
C2348 C2352 1.385 . S
C2349 H2324 0.951 . S
C2349 C2347 1.388 . S
C2349 C2350 1.366 . S
C2350 C2349 1.366 . S
C2350 C2351 1.414 . S
C2350 C2353 1.499 . S
C2351 H2325 0.950 . S
C2351 C2350 1.414 . S
C2351 C2352 1.374 . S
C2352 H2326 0.950 . S
C2352 C2348 1.385 . S
C2352 C2351 1.374 . S
C2353 C2350 1.499 . S
C2353 C2354 1.373 . S
C2353 C2355 1.389 . S
C2354 H2327 0.950 . S
C2354 C2340 1.377 . S
C2354 C2353 1.373 . S
C2355 C2339 1.377 . S
C2355 C2353 1.389 . S
C2355 C2356 1.524 . S
C2356 C2355 1.524 . S
C2356 C2357 1.397 . S
C2356 C2361 1.363 . S
C2357 H2328 0.950 . S
C2357 C2356 1.397 . S
C2357 C2358 1.334 . S
C2358 H2329 0.950 . S
C2358 C2357 1.334 . S
C2358 C2359 1.287 . S
C2359 C2358 1.287 . S
C2359 C2360 1.524 . S
C2359 H2362 0.999 . S
C2360 H2330 0.950 . S
C2360 C2359 1.524 . S
C2360 C2361 1.415 . S
C2361 H2331 0.950 . S
C2361 C2356 1.363 . S
C2361 C2360 1.415 . S
H2362 C2359 0.999 . S
H2363 C2344 0.913 . S
H2364 C2382 0.951 . S
H2365 C2384 0.951 . S
H2366 C2386 0.950 . S
H2367 C2387 0.950 . S
H2368 C2389 0.950 . S
H2369 C2392 0.950 . S
H2370 C2393 0.950 . S
H2371 C2395 0.950 . S
H2372 C2396 0.950 . S
H2373 C2397 0.951 . S
H2374 C2399 0.951 . S
H2375 C2401 0.950 . S
H2376 C2402 0.950 . S
H2377 C2404 0.950 . S
H2378 C2407 0.950 . S
H2379 C2408 0.950 . S
H2380 C2410 0.950 . S
H2381 C2411 0.950 . S
C2382 H2364 0.951 . S
C2382 C2383 1.366 . S
C2382 C2384 1.388 . S
C2383 C2382 1.366 . S
C2383 C2387 1.385 . S
C2384 H2365 0.951 . S
C2384 C2382 1.388 . S
C2384 C2385 1.366 . S
C2385 C2384 1.366 . S
C2385 C2386 1.414 . S
C2385 C2388 1.499 . S
C2386 H2366 0.950 . S
C2386 C2385 1.414 . S
C2386 C2387 1.374 . S
C2387 H2367 0.950 . S
C2387 C2383 1.385 . S
C2387 C2386 1.374 . S
C2388 C2385 1.499 . S
C2388 C2389 1.373 . S
C2388 C2390 1.389 . S
C2389 H2368 0.950 . S
C2389 C2388 1.373 . S
C2389 C2405 1.377 . S
C2390 C2388 1.389 . S
C2390 C2391 1.524 . S
C2390 C2404 1.377 . S
C2391 C2390 1.524 . S
C2391 C2392 1.397 . S
C2391 C2396 1.363 . S
C2392 H2369 0.950 . S
C2392 C2391 1.397 . S
C2392 C2393 1.334 . S
C2393 H2370 0.950 . S
C2393 C2392 1.334 . S
C2393 C2394 1.287 . S
C2394 C2393 1.287 . S
C2394 C2395 1.524 . S
C2394 H2413 0.913 . S
C2395 H2371 0.950 . S
C2395 C2394 1.524 . S
C2395 C2396 1.415 . S
C2396 H2372 0.950 . S
C2396 C2391 1.363 . S
C2396 C2395 1.415 . S
C2397 H2373 0.951 . S
C2397 C2398 1.366 . S
C2397 C2399 1.388 . S
C2398 C2397 1.366 . S
C2398 C2402 1.385 . S
C2399 H2374 0.951 . S
C2399 C2397 1.388 . S
C2399 C2400 1.366 . S
C2400 C2399 1.366 . S
C2400 C2401 1.414 . S
C2400 C2403 1.499 . S
C2401 H2375 0.950 . S
C2401 C2400 1.414 . S
C2401 C2402 1.374 . S
C2402 H2376 0.950 . S
C2402 C2398 1.385 . S
C2402 C2401 1.374 . S
C2403 C2400 1.499 . S
C2403 C2404 1.373 . S
C2403 C2405 1.389 . S
C2404 H2377 0.950 . S
C2404 C2390 1.377 . S
C2404 C2403 1.373 . S
C2405 C2389 1.377 . S
C2405 C2403 1.389 . S
C2405 C2406 1.524 . S
C2406 C2405 1.524 . S
C2406 C2407 1.397 . S
C2406 C2411 1.363 . S
C2407 H2378 0.950 . S
C2407 C2406 1.397 . S
C2407 C2408 1.334 . S
C2408 H2379 0.950 . S
C2408 C2407 1.334 . S
C2408 C2409 1.287 . S
C2409 C2408 1.287 . S
C2409 C2410 1.524 . S
C2409 H2412 0.999 . S
C2410 H2380 0.950 . S
C2410 C2409 1.524 . S
C2410 C2411 1.415 . S
C2411 H2381 0.950 . S
C2411 C2406 1.363 . S
C2411 C2410 1.415 . S
H2412 C2409 0.999 . S
H2413 C2394 0.913 . S
H2414 C2432 0.951 . S
H2415 C2434 0.951 . S
H2416 C2436 0.950 . S
H2417 C2437 0.950 . S
H2418 C2439 0.950 . S
H2419 C2442 0.950 . S
H2420 C2443 0.950 . S
H2421 C2445 0.950 . S
H2422 C2446 0.950 . S
H2423 C2447 0.951 . S
H2424 C2449 0.951 . S
H2425 C2451 0.950 . S
H2426 C2452 0.950 . S
H2427 C2454 0.950 . S
H2428 C2457 0.950 . S
H2429 C2458 0.950 . S
H2430 C2460 0.950 . S
H2431 C2461 0.950 . S
C2432 H2414 0.951 . S
C2432 C2433 1.366 . S
C2432 C2434 1.388 . S
C2433 C2432 1.366 . S
C2433 C2437 1.385 . S
C2434 H2415 0.951 . S
C2434 C2432 1.388 . S
C2434 C2435 1.366 . S
C2435 C2434 1.366 . S
C2435 C2436 1.414 . S
C2435 C2438 1.499 . S
C2436 H2416 0.950 . S
C2436 C2435 1.414 . S
C2436 C2437 1.374 . S
C2437 H2417 0.950 . S
C2437 C2433 1.385 . S
C2437 C2436 1.374 . S
C2438 C2435 1.499 . S
C2438 C2439 1.373 . S
C2438 C2440 1.389 . S
C2439 H2418 0.950 . S
C2439 C2438 1.373 . S
C2439 C2455 1.377 . S
C2440 C2438 1.389 . S
C2440 C2441 1.524 . S
C2440 C2454 1.377 . S
C2441 C2440 1.524 . S
C2441 C2442 1.397 . S
C2441 C2446 1.363 . S
C2442 H2419 0.950 . S
C2442 C2441 1.397 . S
C2442 C2443 1.334 . S
C2443 H2420 0.950 . S
C2443 C2442 1.334 . S
C2443 C2444 1.287 . S
C2444 C2443 1.287 . S
C2444 C2445 1.524 . S
C2444 H2463 0.913 . S
C2445 H2421 0.950 . S
C2445 C2444 1.524 . S
C2445 C2446 1.415 . S
C2446 H2422 0.950 . S
C2446 C2441 1.363 . S
C2446 C2445 1.415 . S
C2447 H2423 0.951 . S
C2447 C2448 1.366 . S
C2447 C2449 1.388 . S
C2448 C2447 1.366 . S
C2448 C2452 1.385 . S
C2449 H2424 0.951 . S
C2449 C2447 1.388 . S
C2449 C2450 1.366 . S
C2450 C2449 1.366 . S
C2450 C2451 1.414 . S
C2450 C2453 1.499 . S
C2451 H2425 0.950 . S
C2451 C2450 1.414 . S
C2451 C2452 1.374 . S
C2452 H2426 0.950 . S
C2452 C2448 1.385 . S
C2452 C2451 1.374 . S
C2453 C2450 1.499 . S
C2453 C2454 1.373 . S
C2453 C2455 1.389 . S
C2454 H2427 0.950 . S
C2454 C2440 1.377 . S
C2454 C2453 1.373 . S
C2455 C2439 1.377 . S
C2455 C2453 1.389 . S
C2455 C2456 1.524 . S
C2456 C2455 1.524 . S
C2456 C2457 1.397 . S
C2456 C2461 1.363 . S
C2457 H2428 0.950 . S
C2457 C2456 1.397 . S
C2457 C2458 1.334 . S
C2458 H2429 0.950 . S
C2458 C2457 1.334 . S
C2458 C2459 1.287 . S
C2459 C2458 1.287 . S
C2459 C2460 1.524 . S
C2459 H2462 0.999 . S
C2460 H2430 0.950 . S
C2460 C2459 1.524 . S
C2460 C2461 1.415 . S
C2461 H2431 0.950 . S
C2461 C2456 1.363 . S
C2461 C2460 1.415 . S
H2462 C2459 0.999 . S
H2463 C2444 0.913 . S
H2464 C2482 0.951 . S
H2465 C2484 0.951 . S
H2466 C2486 0.950 . S
H2467 C2487 0.950 . S
H2468 C2489 0.950 . S
H2469 C2492 0.950 . S
H2470 C2493 0.950 . S
H2471 C2495 0.950 . S
H2472 C2496 0.950 . S
H2473 C2497 0.951 . S
H2474 C2499 0.951 . S
H2475 C2501 0.950 . S
H2476 C2502 0.950 . S
H2477 C2504 0.950 . S
H2478 C2507 0.950 . S
H2479 C2508 0.950 . S
H2480 C2510 0.950 . S
H2481 C2511 0.950 . S
C2482 H2464 0.951 . S
C2482 C2483 1.366 . S
C2482 C2484 1.388 . S
C2483 C2482 1.366 . S
C2483 C2487 1.385 . S
C2484 H2465 0.951 . S
C2484 C2482 1.388 . S
C2484 C2485 1.366 . S
C2485 C2484 1.366 . S
C2485 C2486 1.414 . S
C2485 C2488 1.499 . S
C2486 H2466 0.950 . S
C2486 C2485 1.414 . S
C2486 C2487 1.374 . S
C2487 H2467 0.950 . S
C2487 C2483 1.385 . S
C2487 C2486 1.374 . S
C2488 C2485 1.499 . S
C2488 C2489 1.373 . S
C2488 C2490 1.389 . S
C2489 H2468 0.950 . S
C2489 C2488 1.373 . S
C2489 C2505 1.377 . S
C2490 C2488 1.389 . S
C2490 C2491 1.524 . S
C2490 C2504 1.377 . S
C2491 C2490 1.524 . S
C2491 C2492 1.397 . S
C2491 C2496 1.363 . S
C2492 H2469 0.950 . S
C2492 C2491 1.397 . S
C2492 C2493 1.334 . S
C2493 H2470 0.950 . S
C2493 C2492 1.334 . S
C2493 C2494 1.287 . S
C2494 C2493 1.287 . S
C2494 C2495 1.524 . S
C2494 H2513 0.913 . S
C2495 H2471 0.950 . S
C2495 C2494 1.524 . S
C2495 C2496 1.415 . S
C2496 H2472 0.950 . S
C2496 C2491 1.363 . S
C2496 C2495 1.415 . S
C2497 H2473 0.951 . S
C2497 C2498 1.366 . S
C2497 C2499 1.388 . S
C2498 C2497 1.366 . S
C2498 C2502 1.385 . S
C2499 H2474 0.951 . S
C2499 C2497 1.388 . S
C2499 C2500 1.366 . S
C2500 C2499 1.366 . S
C2500 C2501 1.414 . S
C2500 C2503 1.499 . S
C2501 H2475 0.950 . S
C2501 C2500 1.414 . S
C2501 C2502 1.374 . S
C2502 H2476 0.950 . S
C2502 C2498 1.385 . S
C2502 C2501 1.374 . S
C2503 C2500 1.499 . S
C2503 C2504 1.373 . S
C2503 C2505 1.389 . S
C2504 H2477 0.950 . S
C2504 C2490 1.377 . S
C2504 C2503 1.373 . S
C2505 C2489 1.377 . S
C2505 C2503 1.389 . S
C2505 C2506 1.524 . S
C2506 C2505 1.524 . S
C2506 C2507 1.397 . S
C2506 C2511 1.363 . S
C2507 H2478 0.950 . S
C2507 C2506 1.397 . S
C2507 C2508 1.334 . S
C2508 H2479 0.950 . S
C2508 C2507 1.334 . S
C2508 C2509 1.287 . S
C2509 C2508 1.287 . S
C2509 C2510 1.524 . S
C2509 H2512 0.999 . S
C2510 H2480 0.950 . S
C2510 C2509 1.524 . S
C2510 C2511 1.415 . S
C2511 H2481 0.950 . S
C2511 C2506 1.363 . S
C2511 C2510 1.415 . S
H2512 C2509 0.999 . S
H2513 C2494 0.913 . S
H2514 C2532 0.951 . S
H2515 C2534 0.951 . S
H2516 C2536 0.950 . S
H2517 C2537 0.950 . S
H2518 C2539 0.950 . S
H2519 C2542 0.950 . S
H2520 C2543 0.950 . S
H2521 C2545 0.950 . S
H2522 C2546 0.950 . S
H2523 C2547 0.951 . S
H2524 C2549 0.951 . S
H2525 C2551 0.950 . S
H2526 C2552 0.950 . S
H2527 C2554 0.950 . S
H2528 C2557 0.950 . S
H2529 C2558 0.950 . S
H2530 C2560 0.950 . S
H2531 C2561 0.950 . S
C2532 H2514 0.951 . S
C2532 C2533 1.366 . S
C2532 C2534 1.388 . S
C2533 C2532 1.366 . S
C2533 C2537 1.385 . S
C2534 H2515 0.951 . S
C2534 C2532 1.388 . S
C2534 C2535 1.366 . S
C2535 C2534 1.366 . S
C2535 C2536 1.414 . S
C2535 C2538 1.499 . S
C2536 H2516 0.950 . S
C2536 C2535 1.414 . S
C2536 C2537 1.374 . S
C2537 H2517 0.950 . S
C2537 C2533 1.385 . S
C2537 C2536 1.374 . S
C2538 C2535 1.499 . S
C2538 C2539 1.373 . S
C2538 C2540 1.389 . S
C2539 H2518 0.950 . S
C2539 C2538 1.373 . S
C2539 C2555 1.377 . S
C2540 C2538 1.389 . S
C2540 C2541 1.524 . S
C2540 C2554 1.377 . S
C2541 C2540 1.524 . S
C2541 C2542 1.397 . S
C2541 C2546 1.363 . S
C2542 H2519 0.950 . S
C2542 C2541 1.397 . S
C2542 C2543 1.334 . S
C2543 H2520 0.950 . S
C2543 C2542 1.334 . S
C2543 C2544 1.287 . S
C2544 C2543 1.287 . S
C2544 C2545 1.524 . S
C2544 H2563 0.913 . S
C2545 H2521 0.950 . S
C2545 C2544 1.524 . S
C2545 C2546 1.415 . S
C2546 H2522 0.950 . S
C2546 C2541 1.363 . S
C2546 C2545 1.415 . S
C2547 H2523 0.951 . S
C2547 C2548 1.366 . S
C2547 C2549 1.388 . S
C2548 C2547 1.366 . S
C2548 C2552 1.385 . S
C2549 H2524 0.951 . S
C2549 C2547 1.388 . S
C2549 C2550 1.366 . S
C2550 C2549 1.366 . S
C2550 C2551 1.414 . S
C2550 C2553 1.499 . S
C2551 H2525 0.950 . S
C2551 C2550 1.414 . S
C2551 C2552 1.374 . S
C2552 H2526 0.950 . S
C2552 C2548 1.385 . S
C2552 C2551 1.374 . S
C2553 C2550 1.499 . S
C2553 C2554 1.373 . S
C2553 C2555 1.389 . S
C2554 H2527 0.950 . S
C2554 C2540 1.377 . S
C2554 C2553 1.373 . S
C2555 C2539 1.377 . S
C2555 C2553 1.389 . S
C2555 C2556 1.524 . S
C2556 C2555 1.524 . S
C2556 C2557 1.397 . S
C2556 C2561 1.363 . S
C2557 H2528 0.950 . S
C2557 C2556 1.397 . S
C2557 C2558 1.334 . S
C2558 H2529 0.950 . S
C2558 C2557 1.334 . S
C2558 C2559 1.287 . S
C2559 C2558 1.287 . S
C2559 C2560 1.524 . S
C2559 H2562 0.999 . S
C2560 H2530 0.950 . S
C2560 C2559 1.524 . S
C2560 C2561 1.415 . S
C2561 H2531 0.950 . S
C2561 C2556 1.363 . S
C2561 C2560 1.415 . S
H2562 C2559 0.999 . S
H2563 C2544 0.913 . S
H2564 C2582 0.951 . S
H2565 C2584 0.951 . S
H2566 C2586 0.950 . S
H2567 C2587 0.950 . S
H2568 C2589 0.950 . S
H2569 C2592 0.950 . S
H2570 C2593 0.950 . S
H2571 C2595 0.950 . S
H2572 C2596 0.950 . S
H2573 C2597 0.951 . S
H2574 C2599 0.951 . S
H2575 C2601 0.950 . S
H2576 C2602 0.950 . S
H2577 C2604 0.950 . S
H2578 C2607 0.950 . S
H2579 C2608 0.950 . S
H2580 C2610 0.950 . S
H2581 C2611 0.950 . S
C2582 H2564 0.951 . S
C2582 C2583 1.366 . S
C2582 C2584 1.388 . S
C2583 C2582 1.366 . S
C2583 C2587 1.385 . S
C2584 H2565 0.951 . S
C2584 C2582 1.388 . S
C2584 C2585 1.366 . S
C2585 C2584 1.366 . S
C2585 C2586 1.414 . S
C2585 C2588 1.499 . S
C2586 H2566 0.950 . S
C2586 C2585 1.414 . S
C2586 C2587 1.374 . S
C2587 H2567 0.950 . S
C2587 C2583 1.385 . S
C2587 C2586 1.374 . S
C2588 C2585 1.499 . S
C2588 C2589 1.373 . S
C2588 C2590 1.389 . S
C2589 H2568 0.950 . S
C2589 C2588 1.373 . S
C2589 C2605 1.377 . S
C2590 C2588 1.389 . S
C2590 C2591 1.524 . S
C2590 C2604 1.377 . S
C2591 C2590 1.524 . S
C2591 C2592 1.397 . S
C2591 C2596 1.363 . S
C2592 H2569 0.950 . S
C2592 C2591 1.397 . S
C2592 C2593 1.334 . S
C2593 H2570 0.950 . S
C2593 C2592 1.334 . S
C2593 C2594 1.287 . S
C2594 C2593 1.287 . S
C2594 C2595 1.524 . S
C2594 H2613 0.913 . S
C2595 H2571 0.950 . S
C2595 C2594 1.524 . S
C2595 C2596 1.415 . S
C2596 H2572 0.950 . S
C2596 C2591 1.363 . S
C2596 C2595 1.415 . S
C2597 H2573 0.951 . S
C2597 C2598 1.366 . S
C2597 C2599 1.388 . S
C2598 C2597 1.366 . S
C2598 C2602 1.385 . S
C2599 H2574 0.951 . S
C2599 C2597 1.388 . S
C2599 C2600 1.366 . S
C2600 C2599 1.366 . S
C2600 C2601 1.414 . S
C2600 C2603 1.499 . S
C2601 H2575 0.950 . S
C2601 C2600 1.414 . S
C2601 C2602 1.374 . S
C2602 H2576 0.950 . S
C2602 C2598 1.385 . S
C2602 C2601 1.374 . S
C2603 C2600 1.499 . S
C2603 C2604 1.373 . S
C2603 C2605 1.389 . S
C2604 H2577 0.950 . S
C2604 C2590 1.377 . S
C2604 C2603 1.373 . S
C2605 C2589 1.377 . S
C2605 C2603 1.389 . S
C2605 C2606 1.524 . S
C2606 C2605 1.524 . S
C2606 C2607 1.397 . S
C2606 C2611 1.363 . S
C2607 H2578 0.950 . S
C2607 C2606 1.397 . S
C2607 C2608 1.334 . S
C2608 H2579 0.950 . S
C2608 C2607 1.334 . S
C2608 C2609 1.287 . S
C2609 C2608 1.287 . S
C2609 C2610 1.524 . S
C2609 H2612 0.999 . S
C2610 H2580 0.950 . S
C2610 C2609 1.524 . S
C2610 C2611 1.415 . S
C2611 H2581 0.950 . S
C2611 C2606 1.363 . S
C2611 C2610 1.415 . S
H2612 C2609 0.999 . S
H2613 C2594 0.913 . S
H2614 C2632 0.951 . S
H2615 C2634 0.951 . S
H2616 C2636 0.950 . S
H2617 C2637 0.950 . S
H2618 C2639 0.950 . S
H2619 C2642 0.950 . S
H2620 C2643 0.950 . S
H2621 C2645 0.950 . S
H2622 C2646 0.950 . S
H2623 C2647 0.951 . S
H2624 C2649 0.951 . S
H2625 C2651 0.950 . S
H2626 C2652 0.950 . S
H2627 C2654 0.950 . S
H2628 C2657 0.950 . S
H2629 C2658 0.950 . S
H2630 C2660 0.950 . S
H2631 C2661 0.950 . S
C2632 H2614 0.951 . S
C2632 C2633 1.366 . S
C2632 C2634 1.388 . S
C2633 C2632 1.366 . S
C2633 C2637 1.385 . S
C2634 H2615 0.951 . S
C2634 C2632 1.388 . S
C2634 C2635 1.366 . S
C2635 C2634 1.366 . S
C2635 C2636 1.414 . S
C2635 C2638 1.499 . S
C2636 H2616 0.950 . S
C2636 C2635 1.414 . S
C2636 C2637 1.374 . S
C2637 H2617 0.950 . S
C2637 C2633 1.385 . S
C2637 C2636 1.374 . S
C2638 C2635 1.499 . S
C2638 C2639 1.373 . S
C2638 C2640 1.389 . S
C2639 H2618 0.950 . S
C2639 C2638 1.373 . S
C2639 C2655 1.377 . S
C2640 C2638 1.389 . S
C2640 C2641 1.524 . S
C2640 C2654 1.377 . S
C2641 C2640 1.524 . S
C2641 C2642 1.397 . S
C2641 C2646 1.363 . S
C2642 H2619 0.950 . S
C2642 C2641 1.397 . S
C2642 C2643 1.334 . S
C2643 H2620 0.950 . S
C2643 C2642 1.334 . S
C2643 C2644 1.287 . S
C2644 C2643 1.287 . S
C2644 C2645 1.524 . S
C2644 H2663 0.913 . S
C2645 H2621 0.950 . S
C2645 C2644 1.524 . S
C2645 C2646 1.415 . S
C2646 H2622 0.950 . S
C2646 C2641 1.363 . S
C2646 C2645 1.415 . S
C2647 H2623 0.951 . S
C2647 C2648 1.366 . S
C2647 C2649 1.388 . S
C2648 C2647 1.366 . S
C2648 C2652 1.385 . S
C2649 H2624 0.951 . S
C2649 C2647 1.388 . S
C2649 C2650 1.366 . S
C2650 C2649 1.366 . S
C2650 C2651 1.414 . S
C2650 C2653 1.499 . S
C2651 H2625 0.950 . S
C2651 C2650 1.414 . S
C2651 C2652 1.374 . S
C2652 H2626 0.950 . S
C2652 C2648 1.385 . S
C2652 C2651 1.374 . S
C2653 C2650 1.499 . S
C2653 C2654 1.373 . S
C2653 C2655 1.389 . S
C2654 H2627 0.950 . S
C2654 C2640 1.377 . S
C2654 C2653 1.373 . S
C2655 C2639 1.377 . S
C2655 C2653 1.389 . S
C2655 C2656 1.524 . S
C2656 C2655 1.524 . S
C2656 C2657 1.397 . S
C2656 C2661 1.363 . S
C2657 H2628 0.950 . S
C2657 C2656 1.397 . S
C2657 C2658 1.334 . S
C2658 H2629 0.950 . S
C2658 C2657 1.334 . S
C2658 C2659 1.287 . S
C2659 C2658 1.287 . S
C2659 C2660 1.524 . S
C2659 H2662 0.999 . S
C2660 H2630 0.950 . S
C2660 C2659 1.524 . S
C2660 C2661 1.415 . S
C2661 H2631 0.950 . S
C2661 C2656 1.363 . S
C2661 C2660 1.415 . S
H2662 C2659 0.999 . S
H2663 C2644 0.913 . S
H2664 C2682 0.951 . S
H2665 C2684 0.951 . S
H2666 C2686 0.950 . S
H2667 C2687 0.950 . S
H2668 C2689 0.950 . S
H2669 C2692 0.950 . S
H2670 C2693 0.950 . S
H2671 C2695 0.950 . S
H2672 C2696 0.950 . S
H2673 C2697 0.951 . S
H2674 C2699 0.951 . S
H2675 C2701 0.950 . S
H2676 C2702 0.950 . S
H2677 C2704 0.950 . S
H2678 C2707 0.950 . S
H2679 C2708 0.950 . S
H2680 C2710 0.950 . S
H2681 C2711 0.950 . S
C2682 H2664 0.951 . S
C2682 C2683 1.366 . S
C2682 C2684 1.388 . S
C2683 C2682 1.366 . S
C2683 C2687 1.385 . S
C2684 H2665 0.951 . S
C2684 C2682 1.388 . S
C2684 C2685 1.366 . S
C2685 C2684 1.366 . S
C2685 C2686 1.414 . S
C2685 C2688 1.499 . S
C2686 H2666 0.950 . S
C2686 C2685 1.414 . S
C2686 C2687 1.374 . S
C2687 H2667 0.950 . S
C2687 C2683 1.385 . S
C2687 C2686 1.374 . S
C2688 C2685 1.499 . S
C2688 C2689 1.373 . S
C2688 C2690 1.389 . S
C2689 H2668 0.950 . S
C2689 C2688 1.373 . S
C2689 C2705 1.377 . S
C2690 C2688 1.389 . S
C2690 C2691 1.524 . S
C2690 C2704 1.377 . S
C2691 C2690 1.524 . S
C2691 C2692 1.397 . S
C2691 C2696 1.363 . S
C2692 H2669 0.950 . S
C2692 C2691 1.397 . S
C2692 C2693 1.334 . S
C2693 H2670 0.950 . S
C2693 C2692 1.334 . S
C2693 C2694 1.287 . S
C2694 C2693 1.287 . S
C2694 C2695 1.524 . S
C2694 H2713 0.913 . S
C2695 H2671 0.950 . S
C2695 C2694 1.524 . S
C2695 C2696 1.415 . S
C2696 H2672 0.950 . S
C2696 C2691 1.363 . S
C2696 C2695 1.415 . S
C2697 H2673 0.951 . S
C2697 C2698 1.366 . S
C2697 C2699 1.388 . S
C2698 C2697 1.366 . S
C2698 C2702 1.385 . S
C2699 H2674 0.951 . S
C2699 C2697 1.388 . S
C2699 C2700 1.366 . S
C2700 C2699 1.366 . S
C2700 C2701 1.414 . S
C2700 C2703 1.499 . S
C2701 H2675 0.950 . S
C2701 C2700 1.414 . S
C2701 C2702 1.374 . S
C2702 H2676 0.950 . S
C2702 C2698 1.385 . S
C2702 C2701 1.374 . S
C2703 C2700 1.499 . S
C2703 C2704 1.373 . S
C2703 C2705 1.389 . S
C2704 H2677 0.950 . S
C2704 C2690 1.377 . S
C2704 C2703 1.373 . S
C2705 C2689 1.377 . S
C2705 C2703 1.389 . S
C2705 C2706 1.524 . S
C2706 C2705 1.524 . S
C2706 C2707 1.397 . S
C2706 C2711 1.363 . S
C2707 H2678 0.950 . S
C2707 C2706 1.397 . S
C2707 C2708 1.334 . S
C2708 H2679 0.950 . S
C2708 C2707 1.334 . S
C2708 C2709 1.287 . S
C2709 C2708 1.287 . S
C2709 C2710 1.524 . S
C2709 H2712 0.999 . S
C2710 H2680 0.950 . S
C2710 C2709 1.524 . S
C2710 C2711 1.415 . S
C2711 H2681 0.950 . S
C2711 C2706 1.363 . S
C2711 C2710 1.415 . S
H2712 C2709 0.999 . S
H2713 C2694 0.913 . S
H2714 C2732 0.951 . S
H2715 C2734 0.951 . S
H2716 C2736 0.950 . S
H2717 C2737 0.950 . S
H2718 C2739 0.950 . S
H2719 C2742 0.950 . S
H2720 C2743 0.950 . S
H2721 C2745 0.950 . S
H2722 C2746 0.950 . S
H2723 C2747 0.951 . S
H2724 C2749 0.951 . S
H2725 C2751 0.950 . S
H2726 C2752 0.950 . S
H2727 C2754 0.950 . S
H2728 C2757 0.950 . S
H2729 C2758 0.950 . S
H2730 C2760 0.950 . S
H2731 C2761 0.950 . S
C2732 H2714 0.951 . S
C2732 C2733 1.366 . S
C2732 C2734 1.388 . S
C2733 C2732 1.366 . S
C2733 C2737 1.385 . S
C2734 H2715 0.951 . S
C2734 C2732 1.388 . S
C2734 C2735 1.366 . S
C2735 C2734 1.366 . S
C2735 C2736 1.414 . S
C2735 C2738 1.499 . S
C2736 H2716 0.950 . S
C2736 C2735 1.414 . S
C2736 C2737 1.374 . S
C2737 H2717 0.950 . S
C2737 C2733 1.385 . S
C2737 C2736 1.374 . S
C2738 C2735 1.499 . S
C2738 C2739 1.373 . S
C2738 C2740 1.389 . S
C2739 H2718 0.950 . S
C2739 C2738 1.373 . S
C2739 C2755 1.377 . S
C2740 C2738 1.389 . S
C2740 C2741 1.524 . S
C2740 C2754 1.377 . S
C2741 C2740 1.524 . S
C2741 C2742 1.397 . S
C2741 C2746 1.363 . S
C2742 H2719 0.950 . S
C2742 C2741 1.397 . S
C2742 C2743 1.334 . S
C2743 H2720 0.950 . S
C2743 C2742 1.334 . S
C2743 C2744 1.287 . S
C2744 C2743 1.287 . S
C2744 C2745 1.524 . S
C2744 H2763 0.913 . S
C2745 H2721 0.950 . S
C2745 C2744 1.524 . S
C2745 C2746 1.415 . S
C2746 H2722 0.950 . S
C2746 C2741 1.363 . S
C2746 C2745 1.415 . S
C2747 H2723 0.951 . S
C2747 C2748 1.366 . S
C2747 C2749 1.388 . S
C2748 C2747 1.366 . S
C2748 C2752 1.385 . S
C2749 H2724 0.951 . S
C2749 C2747 1.388 . S
C2749 C2750 1.366 . S
C2750 C2749 1.366 . S
C2750 C2751 1.414 . S
C2750 C2753 1.499 . S
C2751 H2725 0.950 . S
C2751 C2750 1.414 . S
C2751 C2752 1.374 . S
C2752 H2726 0.950 . S
C2752 C2748 1.385 . S
C2752 C2751 1.374 . S
C2753 C2750 1.499 . S
C2753 C2754 1.373 . S
C2753 C2755 1.389 . S
C2754 H2727 0.950 . S
C2754 C2740 1.377 . S
C2754 C2753 1.373 . S
C2755 C2739 1.377 . S
C2755 C2753 1.389 . S
C2755 C2756 1.524 . S
C2756 C2755 1.524 . S
C2756 C2757 1.397 . S
C2756 C2761 1.363 . S
C2757 H2728 0.950 . S
C2757 C2756 1.397 . S
C2757 C2758 1.334 . S
C2758 H2729 0.950 . S
C2758 C2757 1.334 . S
C2758 C2759 1.287 . S
C2759 C2758 1.287 . S
C2759 C2760 1.524 . S
C2759 H2762 0.999 . S
C2760 H2730 0.950 . S
C2760 C2759 1.524 . S
C2760 C2761 1.415 . S
C2761 H2731 0.950 . S
C2761 C2756 1.363 . S
C2761 C2760 1.415 . S
H2762 C2759 0.999 . S
H2763 C2744 0.913 . S
H2764 C2782 0.951 . S
H2765 C2784 0.951 . S
H2766 C2786 0.950 . S
H2767 C2787 0.950 . S
H2768 C2789 0.950 . S
H2769 C2792 0.950 . S
H2770 C2793 0.950 . S
H2771 C2795 0.950 . S
H2772 C2796 0.950 . S
H2773 C2797 0.951 . S
H2774 C2799 0.951 . S
H2775 C2801 0.950 . S
H2776 C2802 0.950 . S
H2777 C2804 0.950 . S
H2778 C2807 0.950 . S
H2779 C2808 0.950 . S
H2780 C2810 0.950 . S
H2781 C2811 0.950 . S
C2782 H2764 0.951 . S
C2782 C2783 1.366 . S
C2782 C2784 1.388 . S
C2783 C2782 1.366 . S
C2783 C2787 1.385 . S
C2784 H2765 0.951 . S
C2784 C2782 1.388 . S
C2784 C2785 1.366 . S
C2785 C2784 1.366 . S
C2785 C2786 1.414 . S
C2785 C2788 1.499 . S
C2786 H2766 0.950 . S
C2786 C2785 1.414 . S
C2786 C2787 1.374 . S
C2787 H2767 0.950 . S
C2787 C2783 1.385 . S
C2787 C2786 1.374 . S
C2788 C2785 1.499 . S
C2788 C2789 1.373 . S
C2788 C2790 1.389 . S
C2789 H2768 0.950 . S
C2789 C2788 1.373 . S
C2789 C2805 1.377 . S
C2790 C2788 1.389 . S
C2790 C2791 1.524 . S
C2790 C2804 1.377 . S
C2791 C2790 1.524 . S
C2791 C2792 1.397 . S
C2791 C2796 1.363 . S
C2792 H2769 0.950 . S
C2792 C2791 1.397 . S
C2792 C2793 1.334 . S
C2793 H2770 0.950 . S
C2793 C2792 1.334 . S
C2793 C2794 1.287 . S
C2794 C2793 1.287 . S
C2794 C2795 1.524 . S
C2794 H2813 0.913 . S
C2795 H2771 0.950 . S
C2795 C2794 1.524 . S
C2795 C2796 1.415 . S
C2796 H2772 0.950 . S
C2796 C2791 1.363 . S
C2796 C2795 1.415 . S
C2797 H2773 0.951 . S
C2797 C2798 1.366 . S
C2797 C2799 1.388 . S
C2798 C2797 1.366 . S
C2798 C2802 1.385 . S
C2799 H2774 0.951 . S
C2799 C2797 1.388 . S
C2799 C2800 1.366 . S
C2800 C2799 1.366 . S
C2800 C2801 1.414 . S
C2800 C2803 1.499 . S
C2801 H2775 0.950 . S
C2801 C2800 1.414 . S
C2801 C2802 1.374 . S
C2802 H2776 0.950 . S
C2802 C2798 1.385 . S
C2802 C2801 1.374 . S
C2803 C2800 1.499 . S
C2803 C2804 1.373 . S
C2803 C2805 1.389 . S
C2804 H2777 0.950 . S
C2804 C2790 1.377 . S
C2804 C2803 1.373 . S
C2805 C2789 1.377 . S
C2805 C2803 1.389 . S
C2805 C2806 1.524 . S
C2806 C2805 1.524 . S
C2806 C2807 1.397 . S
C2806 C2811 1.363 . S
C2807 H2778 0.950 . S
C2807 C2806 1.397 . S
C2807 C2808 1.334 . S
C2808 H2779 0.950 . S
C2808 C2807 1.334 . S
C2808 C2809 1.287 . S
C2809 C2808 1.287 . S
C2809 C2810 1.524 . S
C2809 H2812 0.999 . S
C2810 H2780 0.950 . S
C2810 C2809 1.524 . S
C2810 C2811 1.415 . S
C2811 H2781 0.950 . S
C2811 C2806 1.363 . S
C2811 C2810 1.415 . S
H2812 C2809 0.999 . S
H2813 C2794 0.913 . S
H2814 C2832 0.951 . S
H2815 C2834 0.951 . S
H2816 C2836 0.950 . S
H2817 C2837 0.950 . S
H2818 C2839 0.950 . S
H2819 C2842 0.950 . S
H2820 C2843 0.950 . S
H2821 C2845 0.950 . S
H2822 C2846 0.950 . S
H2823 C2847 0.951 . S
H2824 C2849 0.951 . S
H2825 C2851 0.950 . S
H2826 C2852 0.950 . S
H2827 C2854 0.950 . S
H2828 C2857 0.950 . S
H2829 C2858 0.950 . S
H2830 C2860 0.950 . S
H2831 C2861 0.950 . S
C2832 H2814 0.951 . S
C2832 C2833 1.366 . S
C2832 C2834 1.388 . S
C2833 C2832 1.366 . S
C2833 C2837 1.385 . S
C2834 H2815 0.951 . S
C2834 C2832 1.388 . S
C2834 C2835 1.366 . S
C2835 C2834 1.366 . S
C2835 C2836 1.414 . S
C2835 C2838 1.499 . S
C2836 H2816 0.950 . S
C2836 C2835 1.414 . S
C2836 C2837 1.374 . S
C2837 H2817 0.950 . S
C2837 C2833 1.385 . S
C2837 C2836 1.374 . S
C2838 C2835 1.499 . S
C2838 C2839 1.373 . S
C2838 C2840 1.389 . S
C2839 H2818 0.950 . S
C2839 C2838 1.373 . S
C2839 C2855 1.377 . S
C2840 C2838 1.389 . S
C2840 C2841 1.524 . S
C2840 C2854 1.377 . S
C2841 C2840 1.524 . S
C2841 C2842 1.397 . S
C2841 C2846 1.363 . S
C2842 H2819 0.950 . S
C2842 C2841 1.397 . S
C2842 C2843 1.334 . S
C2843 H2820 0.950 . S
C2843 C2842 1.334 . S
C2843 C2844 1.287 . S
C2844 C2843 1.287 . S
C2844 C2845 1.524 . S
C2844 H2863 0.913 . S
C2845 H2821 0.950 . S
C2845 C2844 1.524 . S
C2845 C2846 1.415 . S
C2846 H2822 0.950 . S
C2846 C2841 1.363 . S
C2846 C2845 1.415 . S
C2847 H2823 0.951 . S
C2847 C2848 1.366 . S
C2847 C2849 1.388 . S
C2848 C2847 1.366 . S
C2848 C2852 1.385 . S
C2849 H2824 0.951 . S
C2849 C2847 1.388 . S
C2849 C2850 1.366 . S
C2850 C2849 1.366 . S
C2850 C2851 1.414 . S
C2850 C2853 1.499 . S
C2851 H2825 0.950 . S
C2851 C2850 1.414 . S
C2851 C2852 1.374 . S
C2852 H2826 0.950 . S
C2852 C2848 1.385 . S
C2852 C2851 1.374 . S
C2853 C2850 1.499 . S
C2853 C2854 1.373 . S
C2853 C2855 1.389 . S
C2854 H2827 0.950 . S
C2854 C2840 1.377 . S
C2854 C2853 1.373 . S
C2855 C2839 1.377 . S
C2855 C2853 1.389 . S
C2855 C2856 1.524 . S
C2856 C2855 1.524 . S
C2856 C2857 1.397 . S
C2856 C2861 1.363 . S
C2857 H2828 0.950 . S
C2857 C2856 1.397 . S
C2857 C2858 1.334 . S
C2858 H2829 0.950 . S
C2858 C2857 1.334 . S
C2858 C2859 1.287 . S
C2859 C2858 1.287 . S
C2859 C2860 1.524 . S
C2859 H2862 0.999 . S
C2860 H2830 0.950 . S
C2860 C2859 1.524 . S
C2860 C2861 1.415 . S
C2861 H2831 0.950 . S
C2861 C2856 1.363 . S
C2861 C2860 1.415 . S
H2862 C2859 0.999 . S
H2863 C2844 0.913 . S
H2864 C2882 0.951 . S
H2865 C2884 0.951 . S
H2866 C2886 0.950 1_655 S
H2867 C2887 0.950 . S
H2868 C2889 0.950 . S
H2869 C2892 0.950 . S
H2870 C2893 0.950 . S
H2871 C2895 0.950 . S
H2872 C2896 0.950 . S
H2873 C2897 0.951 . S
H2874 C2899 0.951 . S
H2875 C2901 0.950 1_455 S
H2876 C2902 0.950 . S
H2877 C2904 0.950 . S
H2878 C2907 0.950 . S
H2879 C2908 0.950 . S
H2880 C2910 0.950 . S
H2881 C2911 0.950 . S
C2882 H2864 0.951 . S
C2882 C2883 1.366 . S
C2882 C2884 1.388 . S
C2883 C2882 1.366 . S
C2883 C2887 1.385 . S
C2884 H2865 0.951 . S
C2884 C2882 1.388 . S
C2884 C2885 1.366 . S
C2885 C2884 1.366 . S
C2885 C2886 1.414 . S
C2885 C2888 1.499 . S
C2886 H2866 0.950 1_455 S
C2886 C2885 1.414 . S
C2886 C2887 1.374 . S
C2887 H2867 0.950 . S
C2887 C2883 1.385 . S
C2887 C2886 1.374 . S
C2888 C2885 1.499 . S
C2888 C2889 1.373 1_455 S
C2888 C2890 1.389 . S
C2889 H2868 0.950 . S
C2889 C2888 1.373 1_655 S
C2889 C2905 1.377 . S
C2890 C2888 1.389 . S
C2890 C2891 1.524 . S
C2890 C2904 1.377 . S
C2891 C2890 1.524 . S
C2891 C2892 1.397 . S
C2891 C2896 1.363 . S
C2892 H2869 0.950 . S
C2892 C2891 1.397 . S
C2892 C2893 1.334 . S
C2893 H2870 0.950 . S
C2893 C2892 1.334 . S
C2893 C2894 1.287 . S
C2894 C2893 1.287 . S
C2894 C2895 1.524 . S
C2894 H2913 0.913 . S
C2895 H2871 0.950 . S
C2895 C2894 1.524 . S
C2895 C2896 1.415 . S
C2896 H2872 0.950 . S
C2896 C2891 1.363 . S
C2896 C2895 1.415 . S
C2897 H2873 0.951 . S
C2897 C2898 1.366 . S
C2897 C2899 1.388 . S
C2898 C2897 1.366 . S
C2898 C2902 1.385 . S
C2899 H2874 0.951 . S
C2899 C2897 1.388 . S
C2899 C2900 1.366 . S
C2900 C2899 1.366 . S
C2900 C2901 1.414 . S
C2900 C2903 1.499 . S
C2901 H2875 0.950 1_655 S
C2901 C2900 1.414 . S
C2901 C2902 1.374 . S
C2902 H2876 0.950 . S
C2902 C2898 1.385 . S
C2902 C2901 1.374 . S
C2903 C2900 1.499 . S
C2903 C2904 1.373 1_655 S
C2903 C2905 1.389 . S
C2904 H2877 0.950 . S
C2904 C2890 1.377 . S
C2904 C2903 1.373 1_455 S
C2905 C2889 1.377 . S
C2905 C2903 1.389 . S
C2905 C2906 1.524 . S
C2906 C2905 1.524 . S
C2906 C2907 1.397 . S
C2906 C2911 1.363 . S
C2907 H2878 0.950 . S
C2907 C2906 1.397 . S
C2907 C2908 1.334 . S
C2908 H2879 0.950 . S
C2908 C2907 1.334 . S
C2908 C2909 1.287 . S
C2909 C2908 1.287 . S
C2909 C2910 1.524 . S
C2909 H2912 0.999 . S
C2910 H2880 0.950 . S
C2910 C2909 1.524 . S
C2910 C2911 1.415 . S
C2911 H2881 0.950 . S
C2911 C2906 1.363 . S
C2911 C2910 1.415 . S
H2912 C2909 0.999 . S
H2913 C2894 0.913 . S
H2914 C2932 0.951 . S
H2915 C2934 0.951 1_545 S
H2916 C2936 0.950 . S
H2917 C2937 0.950 . S
H2918 C2939 0.950 . S
H2919 C2942 0.950 . S
H2920 C2943 0.950 . S
H2921 C2945 0.950 . S
H2922 C2946 0.950 . S
H2923 C2947 0.951 . S
H2924 C2949 0.951 1_565 S
H2925 C2951 0.950 . S
H2926 C2952 0.950 . S
H2927 C2954 0.950 . S
H2928 C2957 0.950 . S
H2929 C2958 0.950 . S
H2930 C2960 0.950 . S
H2931 C2961 0.950 . S
C2932 H2914 0.951 . S
C2932 C2933 1.366 . S
C2932 C2934 1.388 . S
C2933 C2932 1.366 . S
C2933 C2937 1.385 . S
C2934 H2915 0.951 1_565 S
C2934 C2932 1.388 . S
C2934 C2935 1.366 . S
C2935 C2934 1.366 . S
C2935 C2936 1.414 . S
C2935 C2938 1.499 . S
C2936 H2916 0.950 . S
C2936 C2935 1.414 . S
C2936 C2937 1.374 . S
C2937 H2917 0.950 . S
C2937 C2933 1.385 . S
C2937 C2936 1.374 . S
C2938 C2935 1.499 . S
C2938 C2939 1.373 . S
C2938 C2940 1.389 . S
C2939 H2918 0.950 . S
C2939 C2938 1.373 . S
C2939 C2955 1.377 1_565 S
C2940 C2938 1.389 . S
C2940 C2941 1.524 . S
C2940 C2954 1.377 1_565 S
C2941 C2940 1.524 . S
C2941 C2942 1.397 . S
C2941 C2946 1.363 1_565 S
C2942 H2919 0.950 . S
C2942 C2941 1.397 . S
C2942 C2943 1.334 . S
C2943 H2920 0.950 . S
C2943 C2942 1.334 . S
C2943 C2944 1.287 . S
C2944 C2943 1.287 . S
C2944 C2945 1.524 1_565 S
C2944 H2963 0.913 . S
C2945 H2921 0.950 . S
C2945 C2944 1.524 1_545 S
C2945 C2946 1.415 . S
C2946 H2922 0.950 . S
C2946 C2941 1.363 1_545 S
C2946 C2945 1.415 . S
C2947 H2923 0.951 . S
C2947 C2948 1.366 . S
C2947 C2949 1.388 . S
C2948 C2947 1.366 . S
C2948 C2952 1.385 . S
C2949 H2924 0.951 1_545 S
C2949 C2947 1.388 . S
C2949 C2950 1.366 . S
C2950 C2949 1.366 . S
C2950 C2951 1.414 . S
C2950 C2953 1.499 . S
C2951 H2925 0.950 . S
C2951 C2950 1.414 . S
C2951 C2952 1.374 . S
C2952 H2926 0.950 . S
C2952 C2948 1.385 . S
C2952 C2951 1.374 . S
C2953 C2950 1.499 . S
C2953 C2954 1.373 . S
C2953 C2955 1.389 . S
C2954 H2927 0.950 . S
C2954 C2940 1.377 1_545 S
C2954 C2953 1.373 . S
C2955 C2939 1.377 1_545 S
C2955 C2953 1.389 . S
C2955 C2956 1.524 . S
C2956 C2955 1.524 . S
C2956 C2957 1.397 . S
C2956 C2961 1.363 1_545 S
C2957 H2928 0.950 . S
C2957 C2956 1.397 . S
C2957 C2958 1.334 . S
C2958 H2929 0.950 . S
C2958 C2957 1.334 . S
C2958 C2959 1.287 . S
C2959 C2958 1.287 . S
C2959 C2960 1.524 1_545 S
C2959 H2962 0.999 . S
C2960 H2930 0.950 . S
C2960 C2959 1.524 1_565 S
C2960 C2961 1.415 . S
C2961 H2931 0.950 . S
C2961 C2956 1.363 1_565 S
C2961 C2960 1.415 . S
H2962 C2959 0.999 . S
H2963 C2944 0.913 . S
H2964 C2982 0.951 . S
H2965 C2984 0.951 . S
H2966 C2986 0.950 . S
H2967 C2987 0.950 . S
H2968 C2989 0.950 . S
H2969 C2992 0.950 . S
H2970 C2993 0.950 . S
H2971 C2995 0.950 . S
H2972 C2996 0.950 . S
H2973 C2997 0.951 . S
H2974 C2999 0.951 . S
H2975 C3001 0.950 . S
H2976 C3002 0.950 . S
H2977 C3004 0.950 . S
H2978 C3007 0.950 . S
H2979 C3008 0.950 . S
H2980 C3010 0.950 . S
H2981 C3011 0.950 . S
C2982 H2964 0.951 . S
C2982 C2983 1.366 . S
C2982 C2984 1.388 . S
C2983 C2982 1.366 . S
C2983 C2987 1.385 . S
C2984 H2965 0.951 . S
C2984 C2982 1.388 . S
C2984 C2985 1.366 . S
C2985 C2984 1.366 . S
C2985 C2986 1.414 . S
C2985 C2988 1.499 . S
C2986 H2966 0.950 . S
C2986 C2985 1.414 . S
C2986 C2987 1.374 . S
C2987 H2967 0.950 . S
C2987 C2983 1.385 . S
C2987 C2986 1.374 . S
C2988 C2985 1.499 . S
C2988 C2989 1.373 1_455 S
C2988 C2990 1.389 . S
C2989 H2968 0.950 . S
C2989 C2988 1.373 1_655 S
C2989 C3005 1.377 . S
C2990 C2988 1.389 . S
C2990 C2991 1.524 . S
C2990 C3004 1.377 . S
C2991 C2990 1.524 . S
C2991 C2992 1.397 . S
C2991 C2996 1.363 . S
C2992 H2969 0.950 . S
C2992 C2991 1.397 . S
C2992 C2993 1.334 . S
C2993 H2970 0.950 . S
C2993 C2992 1.334 . S
C2993 C2994 1.287 . S
C2994 C2993 1.287 . S
C2994 C2995 1.524 . S
C2994 H3013 0.913 . S
C2995 H2971 0.950 . S
C2995 C2994 1.524 . S
C2995 C2996 1.415 . S
C2996 H2972 0.950 . S
C2996 C2991 1.363 . S
C2996 C2995 1.415 . S
C2997 H2973 0.951 . S
C2997 C2998 1.366 . S
C2997 C2999 1.388 . S
C2998 C2997 1.366 . S
C2998 C3002 1.385 . S
C2999 H2974 0.951 . S
C2999 C2997 1.388 . S
C2999 C3000 1.366 . S
C3000 C2999 1.366 . S
C3000 C3001 1.414 . S
C3000 C3003 1.499 . S
C3001 H2975 0.950 . S
C3001 C3000 1.414 . S
C3001 C3002 1.374 . S
C3002 H2976 0.950 . S
C3002 C2998 1.385 . S
C3002 C3001 1.374 . S
C3003 C3000 1.499 . S
C3003 C3004 1.373 1_655 S
C3003 C3005 1.389 . S
C3004 H2977 0.950 . S
C3004 C2990 1.377 . S
C3004 C3003 1.373 1_455 S
C3005 C2989 1.377 . S
C3005 C3003 1.389 . S
C3005 C3006 1.524 . S
C3006 C3005 1.524 . S
C3006 C3007 1.397 . S
C3006 C3011 1.363 . S
C3007 H2978 0.950 . S
C3007 C3006 1.397 . S
C3007 C3008 1.334 . S
C3008 H2979 0.950 . S
C3008 C3007 1.334 . S
C3008 C3009 1.287 . S
C3009 C3008 1.287 . S
C3009 C3010 1.524 . S
C3009 H3012 0.999 . S
C3010 H2980 0.950 . S
C3010 C3009 1.524 . S
C3010 C3011 1.415 . S
C3011 H2981 0.950 . S
C3011 C3006 1.363 . S
C3011 C3010 1.415 . S
H3012 C3009 0.999 . S
H3013 C2994 0.913 . S
H3014 C3032 0.951 . S
H3015 C3034 0.951 1_545 S
H3016 C3036 0.950 . S
H3017 C3037 0.950 . S
H3018 C3039 0.950 . S
H3019 C3042 0.950 1_565 S
H3020 C3043 0.950 . S
H3021 C3045 0.950 . S
H3022 C3046 0.950 . S
H3023 C3047 0.951 . S
H3024 C3049 0.951 1_565 S
H3025 C3051 0.950 . S
H3026 C3052 0.950 . S
H3027 C3054 0.950 . S
H3028 C3057 0.950 1_545 S
H3029 C3058 0.950 . S
H3030 C3060 0.950 . S
H3031 C3061 0.950 . S
C3032 H3014 0.951 . S
C3032 C3033 1.366 . S
C3032 C3034 1.388 . S
C3033 C3032 1.366 . S
C3033 C3037 1.385 . S
C3034 H3015 0.951 1_565 S
C3034 C3032 1.388 . S
C3034 C3035 1.366 . S
C3035 C3034 1.366 . S
C3035 C3036 1.414 . S
C3035 C3038 1.499 . S
C3036 H3016 0.950 . S
C3036 C3035 1.414 . S
C3036 C3037 1.374 . S
C3037 H3017 0.950 . S
C3037 C3033 1.385 . S
C3037 C3036 1.374 . S
C3038 C3035 1.499 . S
C3038 C3039 1.373 . S
C3038 C3040 1.389 1_565 S
C3039 H3018 0.950 . S
C3039 C3038 1.373 . S
C3039 C3055 1.377 . S
C3040 C3038 1.389 1_545 S
C3040 C3041 1.524 . S
C3040 C3054 1.377 . S
C3041 C3040 1.524 . S
C3041 C3042 1.397 . S
C3041 C3046 1.363 . S
C3042 H3019 0.950 1_545 S
C3042 C3041 1.397 . S
C3042 C3043 1.334 . S
C3043 H3020 0.950 . S
C3043 C3042 1.334 . S
C3043 C3044 1.287 . S
C3044 C3043 1.287 . S
C3044 C3045 1.524 . S
C3044 H3063 0.913 . S
C3045 H3021 0.950 . S
C3045 C3044 1.524 . S
C3045 C3046 1.415 . S
C3046 H3022 0.950 . S
C3046 C3041 1.363 . S
C3046 C3045 1.415 . S
C3047 H3023 0.951 . S
C3047 C3048 1.366 . S
C3047 C3049 1.388 . S
C3048 C3047 1.366 . S
C3048 C3052 1.385 . S
C3049 H3024 0.951 1_545 S
C3049 C3047 1.388 . S
C3049 C3050 1.366 . S
C3050 C3049 1.366 . S
C3050 C3051 1.414 . S
C3050 C3053 1.499 . S
C3051 H3025 0.950 . S
C3051 C3050 1.414 . S
C3051 C3052 1.374 . S
C3052 H3026 0.950 . S
C3052 C3048 1.385 . S
C3052 C3051 1.374 . S
C3053 C3050 1.499 . S
C3053 C3054 1.373 . S
C3053 C3055 1.389 1_545 S
C3054 H3027 0.950 . S
C3054 C3040 1.377 . S
C3054 C3053 1.373 . S
C3055 C3039 1.377 . S
C3055 C3053 1.389 1_565 S
C3055 C3056 1.524 . S
C3056 C3055 1.524 . S
C3056 C3057 1.397 . S
C3056 C3061 1.363 . S
C3057 H3028 0.950 1_565 S
C3057 C3056 1.397 . S
C3057 C3058 1.334 . S
C3058 H3029 0.950 . S
C3058 C3057 1.334 . S
C3058 C3059 1.287 . S
C3059 C3058 1.287 . S
C3059 C3060 1.524 . S
C3059 H3062 0.999 . S
C3060 H3030 0.950 . S
C3060 C3059 1.524 . S
C3060 C3061 1.415 . S
C3061 H3031 0.950 . S
C3061 C3056 1.363 . S
C3061 C3060 1.415 . S
H3062 C3059 0.999 . S
H3063 C3044 0.913 . S
H3064 C3082 0.951 . S
H3065 C3084 0.951 . S
H3066 C3086 0.950 . S
H3067 C3087 0.950 . S
H3068 C3089 0.950 . S
H3069 C3092 0.950 . S
H3070 C3093 0.950 . S
H3071 C3095 0.950 . S
H3072 C3096 0.950 . S
H3073 C3097 0.951 . S
H3074 C3099 0.951 . S
H3075 C3101 0.950 . S
H3076 C3102 0.950 . S
H3077 C3104 0.950 . S
H3078 C3107 0.950 . S
H3079 C3108 0.950 . S
H3080 C3110 0.950 . S
H3081 C3111 0.950 . S
C3082 H3064 0.951 . S
C3082 C3083 1.366 . S
C3082 C3084 1.388 . S
C3083 C3082 1.366 . S
C3083 C3087 1.385 . S
C3084 H3065 0.951 . S
C3084 C3082 1.388 . S
C3084 C3085 1.366 . S
C3085 C3084 1.366 . S
C3085 C3086 1.414 . S
C3085 C3088 1.499 . S
C3086 H3066 0.950 . S
C3086 C3085 1.414 . S
C3086 C3087 1.374 . S
C3087 H3067 0.950 . S
C3087 C3083 1.385 . S
C3087 C3086 1.374 . S
C3088 C3085 1.499 . S
C3088 C3089 1.373 . S
C3088 C3090 1.389 . S
C3089 H3068 0.950 . S
C3089 C3088 1.373 . S
C3089 C3105 1.377 1_455 S
C3090 C3088 1.389 . S
C3090 C3091 1.525 . S
C3090 C3104 1.377 1_455 S
C3091 C3090 1.525 . S
C3091 C3092 1.417 . S
C3091 C3096 1.341 1_455 S
C3092 H3069 0.950 . S
C3092 C3091 1.417 . S
C3092 C3093 1.334 . S
C3093 H3070 0.950 . S
C3093 C3092 1.334 . S
C3093 C3094 1.298 . S
C3094 C3093 1.298 . S
C3094 C3095 1.513 1_455 S
C3094 H3113 0.914 . S
C3095 H3071 0.950 . S
C3095 C3094 1.513 1_655 S
C3095 C3096 1.415 . S
C3096 H3072 0.950 . S
C3096 C3091 1.341 1_655 S
C3096 C3095 1.415 . S
C3097 H3073 0.951 . S
C3097 C3098 1.366 . S
C3097 C3099 1.388 . S
C3098 C3097 1.366 . S
C3098 C3102 1.385 . S
C3099 H3074 0.951 . S
C3099 C3097 1.388 . S
C3099 C3100 1.366 . S
C3100 C3099 1.366 . S
C3100 C3101 1.414 . S
C3100 C3103 1.499 . S
C3101 H3075 0.950 . S
C3101 C3100 1.414 . S
C3101 C3102 1.374 . S
C3102 H3076 0.950 . S
C3102 C3098 1.385 . S
C3102 C3101 1.374 . S
C3103 C3100 1.499 . S
C3103 C3104 1.373 . S
C3103 C3105 1.389 . S
C3104 H3077 0.950 . S
C3104 C3090 1.377 1_655 S
C3104 C3103 1.373 . S
C3105 C3089 1.377 1_655 S
C3105 C3103 1.389 . S
C3105 C3106 1.525 . S
C3106 C3105 1.525 . S
C3106 C3107 1.417 . S
C3106 C3111 1.341 1_655 S
C3107 H3078 0.950 . S
C3107 C3106 1.417 . S
C3107 C3108 1.334 . S
C3108 H3079 0.950 . S
C3108 C3107 1.334 . S
C3108 C3109 1.298 . S
C3109 C3108 1.298 . S
C3109 C3110 1.513 1_655 S
C3109 H3112 0.999 . S
C3110 H3080 0.950 . S
C3110 C3109 1.513 1_455 S
C3110 C3111 1.415 . S
C3111 H3081 0.950 . S
C3111 C3106 1.341 1_455 S
C3111 C3110 1.415 . S
H3112 C3109 0.999 . S
H3113 C3094 0.914 . S
H3114 C3132 0.951 . S
H3115 C3134 0.951 . S
H3116 C3136 0.950 . S
H3117 C3137 0.950 . S
H3118 C3139 0.950 . S
H3119 C3142 0.950 . S
H3120 C3143 0.950 . S
H3121 C3145 0.950 . S
H3122 C3146 0.950 . S
H3123 C3147 0.951 . S
H3124 C3149 0.951 . S
H3125 C3151 0.950 . S
H3126 C3152 0.950 . S
H3127 C3154 0.950 . S
H3128 C3157 0.950 . S
H3129 C3158 0.950 . S
H3130 C3160 0.950 . S
H3131 C3161 0.950 . S
C3132 H3114 0.951 . S
C3132 C3133 1.366 . S
C3132 C3134 1.388 . S
C3133 C3132 1.366 . S
C3133 C3137 1.385 . S
C3134 H3115 0.951 . S
C3134 C3132 1.388 . S
C3134 C3135 1.366 . S
C3135 C3134 1.366 . S
C3135 C3136 1.414 . S
C3135 C3138 1.499 . S
C3136 H3116 0.950 . S
C3136 C3135 1.414 . S
C3136 C3137 1.374 . S
C3137 H3117 0.950 . S
C3137 C3133 1.385 . S
C3137 C3136 1.374 . S
C3138 C3135 1.499 . S
C3138 C3139 1.373 . S
C3138 C3140 1.389 . S
C3139 H3118 0.950 . S
C3139 C3138 1.373 . S
C3139 C3155 1.377 1_545 S
C3140 C3138 1.389 . S
C3140 C3141 1.524 . S
C3140 C3154 1.377 1_545 S
C3141 C3140 1.524 . S
C3141 C3142 1.397 . S
C3141 C3146 1.363 1_545 S
C3142 H3119 0.950 . S
C3142 C3141 1.397 . S
C3142 C3143 1.334 . S
C3143 H3120 0.950 . S
C3143 C3142 1.334 . S
C3143 C3144 1.287 . S
C3144 C3143 1.287 . S
C3144 C3145 1.524 1_545 S
C3144 H3163 0.913 . S
C3145 H3121 0.950 . S
C3145 C3144 1.524 1_565 S
C3145 C3146 1.415 . S
C3146 H3122 0.950 . S
C3146 C3141 1.363 1_565 S
C3146 C3145 1.415 . S
C3147 H3123 0.951 . S
C3147 C3148 1.366 . S
C3147 C3149 1.388 . S
C3148 C3147 1.366 . S
C3148 C3152 1.385 . S
C3149 H3124 0.951 . S
C3149 C3147 1.388 . S
C3149 C3150 1.366 . S
C3150 C3149 1.366 . S
C3150 C3151 1.414 . S
C3150 C3153 1.499 . S
C3151 H3125 0.950 . S
C3151 C3150 1.414 . S
C3151 C3152 1.374 . S
C3152 H3126 0.950 . S
C3152 C3148 1.385 . S
C3152 C3151 1.374 . S
C3153 C3150 1.499 . S
C3153 C3154 1.373 . S
C3153 C3155 1.389 . S
C3154 H3127 0.950 . S
C3154 C3140 1.377 1_565 S
C3154 C3153 1.373 . S
C3155 C3139 1.377 1_565 S
C3155 C3153 1.389 . S
C3155 C3156 1.524 . S
C3156 C3155 1.524 . S
C3156 C3157 1.397 . S
C3156 C3161 1.363 1_565 S
C3157 H3128 0.950 . S
C3157 C3156 1.397 . S
C3157 C3158 1.334 . S
C3158 H3129 0.950 . S
C3158 C3157 1.334 . S
C3158 C3159 1.287 . S
C3159 C3158 1.287 . S
C3159 C3160 1.524 1_565 S
C3159 H3162 0.999 . S
C3160 H3130 0.950 . S
C3160 C3159 1.524 1_545 S
C3160 C3161 1.415 . S
C3161 H3131 0.950 . S
C3161 C3156 1.363 1_545 S
C3161 C3160 1.415 . S
H3162 C3159 0.999 . S
H3163 C3144 0.913 . S
H3164 C3182 0.951 . S
H3165 C3184 0.951 . S
H3166 C3186 0.950 . S
H3167 C3187 0.950 . S
H3168 C3189 0.950 . S
H3169 C3192 0.950 . S
H3170 C3193 0.950 . S
H3171 C3195 0.972 . S
H3172 C3196 0.950 . S
H3173 C3197 0.951 . S
H3174 C3199 0.951 . S
H3175 C3201 0.950 . S
H3176 C3202 0.950 . S
H3177 C3204 0.950 . S
H3178 C3207 0.950 . S
H3179 C3208 0.950 . S
H3180 C3210 0.972 . S
H3181 C3211 0.950 . S
C3182 H3164 0.951 . S
C3182 C3183 1.366 . S
C3182 C3184 1.388 . S
C3183 C3182 1.366 . S
C3183 C3187 1.385 . S
C3184 H3165 0.951 . S
C3184 C3182 1.388 . S
C3184 C3185 1.366 . S
C3185 C3184 1.366 . S
C3185 C3186 1.414 . S
C3185 C3188 1.499 . S
C3186 H3166 0.950 . S
C3186 C3185 1.414 . S
C3186 C3187 1.374 . S
C3187 H3167 0.950 . S
C3187 C3183 1.385 . S
C3187 C3186 1.374 . S
C3188 C3185 1.499 . S
C3188 C3189 1.373 . S
C3188 C3190 1.389 . S
C3189 H3168 0.950 . S
C3189 C3188 1.373 . S
C3189 C3205 1.377 1_455 S
C3190 C3188 1.389 . S
C3190 C3191 1.524 . S
C3190 C3204 1.377 1_455 S
C3191 C3190 1.524 . S
C3191 C3192 1.397 . S
C3191 C3196 1.363 1_455 S
C3192 H3169 0.950 . S
C3192 C3191 1.397 . S
C3192 C3193 1.334 . S
C3193 H3170 0.950 . S
C3193 C3192 1.334 . S
C3193 C3194 1.287 . S
C3194 C3193 1.287 . S
C3194 C3195 1.493 1_455 S
C3194 H3213 0.913 . S
C3195 H3171 0.972 . S
C3195 C3194 1.493 1_655 S
C3195 C3196 1.422 . S
C3196 H3172 0.950 . S
C3196 C3191 1.363 1_655 S
C3196 C3195 1.422 . S
C3197 H3173 0.951 . S
C3197 C3198 1.366 . S
C3197 C3199 1.388 . S
C3198 C3197 1.366 . S
C3198 C3202 1.385 . S
C3199 H3174 0.951 . S
C3199 C3197 1.388 . S
C3199 C3200 1.366 . S
C3200 C3199 1.366 . S
C3200 C3201 1.414 . S
C3200 C3203 1.499 . S
C3201 H3175 0.950 . S
C3201 C3200 1.414 . S
C3201 C3202 1.374 . S
C3202 H3176 0.950 . S
C3202 C3198 1.385 . S
C3202 C3201 1.374 . S
C3203 C3200 1.499 . S
C3203 C3204 1.373 . S
C3203 C3205 1.389 . S
C3204 H3177 0.950 . S
C3204 C3190 1.377 1_655 S
C3204 C3203 1.373 . S
C3205 C3189 1.377 1_655 S
C3205 C3203 1.389 . S
C3205 C3206 1.524 . S
C3206 C3205 1.524 . S
C3206 C3207 1.397 . S
C3206 C3211 1.363 1_655 S
C3207 H3178 0.950 . S
C3207 C3206 1.397 . S
C3207 C3208 1.334 . S
C3208 H3179 0.950 . S
C3208 C3207 1.334 . S
C3208 C3209 1.287 . S
C3209 C3208 1.287 . S
C3209 C3210 1.493 1_655 S
C3209 H3212 0.999 . S
C3210 H3180 0.972 . S
C3210 C3209 1.493 1_455 S
C3210 C3211 1.422 . S
C3211 H3181 0.950 . S
C3211 C3206 1.363 1_455 S
C3211 C3210 1.422 . S
H3212 C3209 0.999 . S
H3213 C3194 0.913 . S
H3214 C3232 0.951 . S
H3215 C3234 0.951 . S
H3216 C3236 0.950 . S
H3217 C3237 0.950 . S
H3218 C3239 0.950 . S
H3219 C3242 0.950 . S
H3220 C3243 0.950 . S
H3221 C3245 0.950 . S
H3222 C3246 0.950 1_545 S
H3223 C3247 0.951 . S
H3224 C3249 0.951 . S
H3225 C3251 0.950 . S
H3226 C3252 0.950 . S
H3227 C3254 0.950 . S
H3228 C3257 0.950 . S
H3229 C3258 0.950 . S
H3230 C3260 0.950 . S
H3231 C3261 0.950 1_565 S
C3232 H3214 0.951 . S
C3232 C3233 1.366 . S
C3232 C3234 1.388 . S
C3233 C3232 1.366 . S
C3233 C3237 1.385 . S
C3234 H3215 0.951 . S
C3234 C3232 1.388 . S
C3234 C3235 1.366 . S
C3235 C3234 1.366 . S
C3235 C3236 1.414 . S
C3235 C3238 1.499 . S
C3236 H3216 0.950 . S
C3236 C3235 1.414 . S
C3236 C3237 1.374 . S
C3237 H3217 0.950 . S
C3237 C3233 1.385 . S
C3237 C3236 1.374 . S
C3238 C3235 1.499 . S
C3238 C3239 1.373 . S
C3238 C3240 1.389 . S
C3239 H3218 0.950 . S
C3239 C3238 1.373 . S
C3239 C3255 1.377 1_565 S
C3240 C3238 1.389 . S
C3240 C3241 1.524 . S
C3240 C3254 1.377 1_565 S
C3241 C3240 1.524 . S
C3241 C3242 1.397 . S
C3241 C3246 1.363 . S
C3242 H3219 0.950 . S
C3242 C3241 1.397 . S
C3242 C3243 1.334 . S
C3243 H3220 0.950 . S
C3243 C3242 1.334 . S
C3243 C3244 1.287 . S
C3244 C3243 1.287 . S
C3244 C3245 1.524 . S
C3244 H3263 0.913 . S
C3245 H3221 0.950 . S
C3245 C3244 1.524 . S
C3245 C3246 1.415 . S
C3246 H3222 0.950 1_565 S
C3246 C3241 1.363 . S
C3246 C3245 1.415 . S
C3247 H3223 0.951 . S
C3247 C3248 1.366 . S
C3247 C3249 1.388 . S
C3248 C3247 1.366 . S
C3248 C3252 1.385 . S
C3249 H3224 0.951 . S
C3249 C3247 1.388 . S
C3249 C3250 1.366 . S
C3250 C3249 1.366 . S
C3250 C3251 1.414 . S
C3250 C3253 1.499 . S
C3251 H3225 0.950 . S
C3251 C3250 1.414 . S
C3251 C3252 1.374 . S
C3252 H3226 0.950 . S
C3252 C3248 1.385 . S
C3252 C3251 1.374 . S
C3253 C3250 1.499 . S
C3253 C3254 1.373 . S
C3253 C3255 1.389 . S
C3254 H3227 0.950 . S
C3254 C3240 1.377 1_545 S
C3254 C3253 1.373 . S
C3255 C3239 1.377 1_545 S
C3255 C3253 1.389 . S
C3255 C3256 1.524 . S
C3256 C3255 1.524 . S
C3256 C3257 1.397 . S
C3256 C3261 1.363 . S
C3257 H3228 0.950 . S
C3257 C3256 1.397 . S
C3257 C3258 1.334 . S
C3258 H3229 0.950 . S
C3258 C3257 1.334 . S
C3258 C3259 1.287 . S
C3259 C3258 1.287 . S
C3259 C3260 1.524 . S
C3259 H3262 0.999 . S
C3260 H3230 0.950 . S
C3260 C3259 1.524 . S
C3260 C3261 1.415 . S
C3261 H3231 0.950 1_545 S
C3261 C3256 1.363 . S
C3261 C3260 1.415 . S
H3262 C3259 0.999 . S
H3263 C3244 0.913 . S
C483 C10 1.477 . S
C498 C300 1.477 . S
C533 C39 1.478 . S
C548 C329 1.477 . S
C583 C242 1.477 . S
C598 C68 1.477 . S
C633 C271 1.477 . S
C648 C97 1.478 . S
C683 C126 1.477 . S
C698 C416 1.477 . S
C733 C445 1.478 . S
C748 C155 1.478 . S
C783 C358 1.478 . S
C798 C184 1.477 . S
C833 C213 1.477 . S
C848 C387 1.477 . S
C883 C100 1.941 . S
C898 C3 2.055 . S
C933 C13 1.941 . S
C948 C32 2.055 . S
C983 C61 2.055 . S
C998 C42 1.940 . S
C1033 C90 2.055 . S
C1048 C71 1.941 . S
C1083 C158 1.941 . S
C1098 C119 2.055 . S
C1133 C148 2.055 . S
C1148 C187 1.941 . S
C1183 C216 1.941 . S
C1198 C177 2.055 . S
C1233 C129 1.941 . S
C1248 C206 2.055 . S
C1283 C253 1.620 . S
C1298 C327 1.604 . S
C1333 C240 1.603 . S
C1348 C282 1.619 . S
C1383 C311 1.619 . S
C1398 C269 1.603 . S
C1433 C298 1.604 . S
C1448 C340 1.620 . S
C1483 C369 1.620 . S
C1498 C385 1.604 . S
C1533 C414 1.603 . S
C1548 C398 1.620 . S
C1583 C443 1.603 . S
C1598 C427 1.619 . S
C1633 C356 1.603 . S
C1648 C456 1.619 . S
C1683 C380 2.055 . S
C1698 C361 1.940 . S
C1733 C409 2.055 . S
C1748 C390 1.940 . S
C1783 C419 1.940 . S
C1798 C438 2.055 . S
C1833 C448 1.941 . S
C1848 C351 2.055 . S
C1883 C322 2.055 . S
C1898 C245 1.941 . S
C1933 C274 1.940 . S
C1948 C235 2.055 . S
C1983 C303 1.941 . S
C1998 C264 2.055 . S
C2033 C332 1.940 . S
C2048 C293 2.055 . S
C2083 C166 1.620 . S
C2098 C124 1.604 . S
C2133 C153 1.603 . S
C2148 C195 1.619 . S
C2183 C224 1.619 . S
C2198 C182 1.603 . S
C2233 C211 1.603 . S
C2248 C137 1.619 . S
C2283 C108 1.619 . S
C2298 C8 1.603 . S
C2333 C37 1.604 . S
C2348 C21 1.620 . S
C2383 C66 1.604 . S
C2398 C50 1.620 . S
C2433 C95 1.604 . S
C2448 C79 1.620 . S
C2483 C150 1.289 . S
C2498 C5 1.290 . S
C2533 C179 1.290 . S
C2548 C34 1.290 . S
C2583 C208 1.289 . S
C2598 C63 1.290 . S
C2633 C121 1.289 . S
C2648 C92 1.289 . S
C2683 C382 1.289 . S
C2698 C237 1.289 . S
C2733 C266 1.290 . S
C2748 C411 1.290 . S
C2783 C295 1.289 . S
C2798 C440 1.290 . S
C2833 C324 1.289 . S
C2848 C353 1.289 . S
C2883 C15 1.265 . S
C2898 C73 1.264 . S
C2933 C102 1.264 . S
C2948 C44 1.265 . S
C2983 C131 1.264 . S
C2998 C189 1.264 . S
C3033 C218 1.264 . S
C3048 C160 1.264 . S
C3083 C305 1.265 . S
C3098 C247 1.264 . S
C3133 C334 1.265 . S
C3148 C276 1.264 . S
C3183 C421 1.265 . S
C3198 C363 1.264 . S
C3233 C392 1.265 . S
C3248 C450 1.264 . S
