# Generated by pormake.
# Topology ung, (4)-cn, num edge types: 1
# Building blocks:
#     Node 0, Type 0, BuildingBlock: GALJAG_clean_sbu_0, # of connection points: 4
#     Node 1, Type 0, BuildingBlock: GALJAG_clean_sbu_0, # of connection points: 4
#     Node 2, Type 0, BuildingBlock: GALJAG_clean_sbu_0, # of connection points: 4
#     Node 3, Type 0, BuildingBlock: GALJAG_clean_sbu_0, # of connection points: 4
#     Node 4, Type 0, BuildingBlock: GALJAG_clean_sbu_0, # of connection points: 4
#     Node 5, Type 0, BuildingBlock: GALJAG_clean_sbu_0, # of connection points: 4
#     Node 6, Type 0, BuildingBlock: GALJAG_clean_sbu_0, # of connection points: 4
#     Node 7, Type 0, BuildingBlock: GALJAG_clean_sbu_0, # of connection points: 4
#     Node 8, Type 0, BuildingBlock: GALJAG_clean_sbu_0, # of connection points: 4
#     Node 9, Type 0, BuildingBlock: GALJAG_clean_sbu_0, # of connection points: 4
#     Node 10, Type 0, BuildingBlock: GALJAG_clean_sbu_0, # of connection points: 4
#     Node 11, Type 0, BuildingBlock: GALJAG_clean_sbu_0, # of connection points: 4
#     Node 12, Type 0, BuildingBlock: GALJAG_clean_sbu_0, # of connection points: 4
#     Node 13, Type 0, BuildingBlock: GALJAG_clean_sbu_0, # of connection points: 4
#     Node 14, Type 0, BuildingBlock: GALJAG_clean_sbu_0, # of connection points: 4
#     Node 15, Type 0, BuildingBlock: GALJAG_clean_sbu_0, # of connection points: 4
#     Node 16, Type 0, BuildingBlock: GALJAG_clean_sbu_0, # of connection points: 4
#     Node 17, Type 0, BuildingBlock: GALJAG_clean_sbu_0, # of connection points: 4
#     Edge 18, Type (0, 0), BuildingBlock: XUDNAN_clean_linker_2, # of connection points: 2
#     Edge 19, Type (0, 0), BuildingBlock: XUDNAN_clean_linker_2, # of connection points: 2
#     Edge 20, Type (0, 0), BuildingBlock: XUDNAN_clean_linker_2, # of connection points: 2
#     Edge 21, Type (0, 0), BuildingBlock: XUDNAN_clean_linker_2, # of connection points: 2
#     Edge 22, Type (0, 0), BuildingBlock: XUDNAN_clean_linker_2, # of connection points: 2
#     Edge 23, Type (0, 0), BuildingBlock: XUDNAN_clean_linker_2, # of connection points: 2
#     Edge 24, Type (0, 0), BuildingBlock: XUDNAN_clean_linker_2, # of connection points: 2
#     Edge 25, Type (0, 0), BuildingBlock: XUDNAN_clean_linker_2, # of connection points: 2
#     Edge 26, Type (0, 0), BuildingBlock: XUDNAN_clean_linker_2, # of connection points: 2
#     Edge 27, Type (0, 0), BuildingBlock: XUDNAN_clean_linker_2, # of connection points: 2
#     Edge 28, Type (0, 0), BuildingBlock: XUDNAN_clean_linker_2, # of connection points: 2
#     Edge 29, Type (0, 0), BuildingBlock: XUDNAN_clean_linker_2, # of connection points: 2
#     Edge 30, Type (0, 0), BuildingBlock: XUDNAN_clean_linker_2, # of connection points: 2
#     Edge 31, Type (0, 0), BuildingBlock: XUDNAN_clean_linker_2, # of connection points: 2
#     Edge 32, Type (0, 0), BuildingBlock: XUDNAN_clean_linker_2, # of connection points: 2
#     Edge 33, Type (0, 0), BuildingBlock: XUDNAN_clean_linker_2, # of connection points: 2
#     Edge 34, Type (0, 0), BuildingBlock: XUDNAN_clean_linker_2, # of connection points: 2
#     Edge 35, Type (0, 0), BuildingBlock: XUDNAN_clean_linker_2, # of connection points: 2
#     Edge 36, Type (0, 0), BuildingBlock: XUDNAN_clean_linker_2, # of connection points: 2
#     Edge 37, Type (0, 0), BuildingBlock: XUDNAN_clean_linker_2, # of connection points: 2
#     Edge 38, Type (0, 0), BuildingBlock: XUDNAN_clean_linker_2, # of connection points: 2
#     Edge 39, Type (0, 0), BuildingBlock: XUDNAN_clean_linker_2, # of connection points: 2
#     Edge 40, Type (0, 0), BuildingBlock: XUDNAN_clean_linker_2, # of connection points: 2
#     Edge 41, Type (0, 0), BuildingBlock: XUDNAN_clean_linker_2, # of connection points: 2
#     Edge 42, Type (0, 0), BuildingBlock: XUDNAN_clean_linker_2, # of connection points: 2
#     Edge 43, Type (0, 0), BuildingBlock: XUDNAN_clean_linker_2, # of connection points: 2
#     Edge 44, Type (0, 0), BuildingBlock: XUDNAN_clean_linker_2, # of connection points: 2
#     Edge 45, Type (0, 0), BuildingBlock: XUDNAN_clean_linker_2, # of connection points: 2
#     Edge 46, Type (0, 0), BuildingBlock: XUDNAN_clean_linker_2, # of connection points: 2
#     Edge 47, Type (0, 0), BuildingBlock: XUDNAN_clean_linker_2, # of connection points: 2
#     Edge 48, Type (0, 0), BuildingBlock: XUDNAN_clean_linker_2, # of connection points: 2
#     Edge 49, Type (0, 0), BuildingBlock: XUDNAN_clean_linker_2, # of connection points: 2
#     Edge 50, Type (0, 0), BuildingBlock: XUDNAN_clean_linker_2, # of connection points: 2
#     Edge 51, Type (0, 0), BuildingBlock: XUDNAN_clean_linker_2, # of connection points: 2
#     Edge 52, Type (0, 0), BuildingBlock: XUDNAN_clean_linker_2, # of connection points: 2
#     Edge 53, Type (0, 0), BuildingBlock: XUDNAN_clean_linker_2, # of connection points: 2
# Relax obj value: 0.030
# Max RMSD: 0.132
# Mean RMSD: 0.132
data_MOF--net-ung--node1-GALJAG_clean_sbu_0--edge1-XUDNAN_clean_linker_2
_symmetry_space_group_name_H-M    P1
_symmetry_Int_Tables_number       1
_symmetry_cell_setting            triclinic
loop_
_symmetry_equiv_pos_as_xyz
'x, y, z'
_cell_length_a     78.418333
_cell_length_b     78.470384
_cell_length_c     20.212593
_cell_angle_alpha  90.001994
_cell_angle_beta   89.962414
_cell_angle_gamma 119.97784
loop_
_atom_site_label
_atom_site_type_symbol
_atom_site_fract_x
_atom_site_fract_y
_atom_site_fract_z
_atom_type_partial_charge
In0 In 0.09417 0.66069 0.23969 0.0
O1 O 0.10437 0.6579 0.13569 0.0
O2 O 0.08324 0.63197 0.18646 0.0
C3 C 0.11913 0.69595 0.29087 0.0
C4 C 0.10193 0.64146 0.33304 0.0
C5 C 0.06398 0.66568 0.20343 0.0
O6 O 0.12255 0.69035 0.23602 0.0
O7 O 0.10312 0.68386 0.3186 0.0
O8 O 0.06134 0.65173 0.24147 0.0
O9 O 0.08156 0.677 0.18624 0.0
C10 C 0.09332 0.63938 0.135 0.0
O11 O 0.08552 0.64102 0.33083 0.0
O12 O 0.11411 0.65155 0.28834 0.0
In13 In 0.51937 0.51808 0.24542 0.0
O14 O 0.52879 0.5388 0.15677 0.0
O15 O 0.5498 0.53271 0.20298 0.0
C16 C 0.48206 0.50473 0.28233 0.0
C17 C 0.5363 0.54475 0.34112 0.0
C18 C 0.51553 0.48466 0.19733 0.0
O19 O 0.48861 0.51372 0.22781 0.0
O20 O 0.49421 0.50234 0.3164 0.0
O21 O 0.52092 0.48977 0.25673 0.0
O22 O 0.51194 0.49612 0.16409 0.0
C23 C 0.54629 0.5418 0.15823 0.0
O24 O 0.53873 0.52992 0.33754 0.0
O25 O 0.52517 0.54558 0.2976 0.0
In26 In 0.65428 0.07933 0.20024 0.0
O27 O 0.63784 0.05808 0.11538 0.0
O28 O 0.64249 0.08735 0.11215 0.0
C29 C 0.66497 0.0618 0.29185 0.0
C30 C 0.62316 0.07592 0.26597 0.0
C31 C 0.68946 0.10703 0.15461 0.0
O32 O 0.66052 0.05509 0.23345 0.0
O33 O 0.6643 0.0773 0.30293 0.0
O34 O 0.6781 0.11161 0.18463 0.0
O35 O 0.68319 0.0888 0.14998 0.0
C36 C 0.63493 0.0706 0.0853 0.0
O37 O 0.63943 0.09205 0.26556 0.0
O38 O 0.62302 0.06198 0.23432 0.0
In39 In 0.09323 0.52065 0.74493 0.0
O40 O 0.11639 0.547 0.68546 0.0
O41 O 0.08585 0.53685 0.66969 0.0
C42 C 0.11147 0.50948 0.8317 0.0
C43 C 0.08155 0.53882 0.82942 0.0
C44 C 0.07816 0.48907 0.6654 0.0
O45 O 0.1206 0.52081 0.78371 0.0
O46 O 0.09328 0.50374 0.83512 0.0
O47 O 0.06746 0.49125 0.70782 0.0
O48 O 0.09594 0.50259 0.66446 0.0
C49 C 0.10344 0.54924 0.65541 0.0
O50 O 0.06923 0.525 0.79283 0.0
O51 O 0.0992 0.54278 0.82442 0.0
In52 In 0.65053 0.66847 0.74404 0.0
O53 O 0.65182 0.64817 0.82253 0.0
O54 O 0.62482 0.64802 0.80815 0.0
C55 C 0.68682 0.68503 0.6905 0.0
C56 C 0.62619 0.64844 0.64356 0.0
C57 C 0.65395 0.69973 0.81028 0.0
O58 O 0.67902 0.66832 0.71779 0.0
O59 O 0.67633 0.69302 0.68985 0.0
O60 O 0.64595 0.69486 0.75385 0.0
O61 O 0.65987 0.68864 0.83339 0.0
C62 C 0.63396 0.64108 0.83898 0.0
O63 O 0.6257 0.66253 0.67199 0.0
O64 O 0.63941 0.64511 0.66409 0.0
In65 In 0.50904 0.06636 0.70392 0.0
O66 O 0.53454 0.07833 0.77748 0.0
O67 O 0.52031 0.0479 0.75218 0.0
C68 C 0.50376 0.09653 0.67144 0.0
C69 C 0.52621 0.06514 0.59092 0.0
C70 C 0.47438 0.04363 0.76475 0.0
O71 O 0.51353 0.09706 0.72206 0.0
O72 O 0.4968 0.08089 0.63788 0.0
O73 O 0.47934 0.03771 0.71389 0.0
O74 O 0.4868 0.06069 0.78395 0.0
C75 C 0.53381 0.06194 0.78429 0.0
O76 O 0.50885 0.05184 0.60558 0.0
O77 O 0.53447 0.07878 0.63288 0.0
In78 In 0.74522 0.99088 0.63639 0.0
O79 O 0.72896 0.97615 0.73179 0.0
O80 O 0.75619 0.97722 0.71069 0.0
C81 C 0.72198 0.00292 0.57956 0.0
C82 C 0.73916 0.96006 0.56182 0.0
C83 C 0.77724 0.02586 0.66302 0.0
O84 O 0.72027 0.99801 0.63983 0.0
O85 O 0.73522 0.00162 0.54845 0.0
O86 O 0.77588 0.01665 0.61008 0.0
O87 O 0.76264 0.01741 0.70122 0.0
C88 C 0.74175 0.9717 0.74953 0.0
O89 O 0.75591 0.97548 0.56547 0.0
O90 O 0.72565 0.96062 0.59397 0.0
In91 In 0.1762 0.85019 0.59443 0.0
O92 O 0.1889 0.87366 0.51341 0.0
O93 O 0.20771 0.86523 0.56329 0.0
C94 C 0.13836 0.83686 0.62398 0.0
C95 C 0.19231 0.87298 0.69987 0.0
C96 C 0.17271 0.81857 0.53236 0.0
O97 O 0.1464 0.84791 0.57421 0.0
O98 O 0.14937 0.83263 0.65729 0.0
O99 O 0.17633 0.82101 0.59394 0.0
O100 O 0.1705 0.83165 0.50394 0.0
C101 C 0.20606 0.87594 0.51998 0.0
O102 O 0.19345 0.85755 0.6908 0.0
O103 O 0.18248 0.87621 0.65713 0.0
In104 In 0.32839 0.42509 0.61248 0.0
O105 O 0.30194 0.41121 0.5423 0.0
O106 O 0.31287 0.4407 0.57647 0.0
C107 C 0.33677 0.39774 0.6552 0.0
C108 C 0.31582 0.43211 0.72696 0.0
C109 C 0.35823 0.44535 0.52811 0.0
O110 O 0.32066 0.39296 0.62624 0.0
O111 O 0.34848 0.416 0.66035 0.0
O112 O 0.35906 0.45056 0.58794 0.0
O113 O 0.34252 0.43003 0.51154 0.0
C114 C 0.30027 0.42651 0.54233 0.0
O115 O 0.33095 0.44548 0.69787 0.0
O116 O 0.30795 0.41545 0.69952 0.0
In117 In 0.74137 0.85021 0.14215 0.0
O118 O 0.7545 0.87569 0.06811 0.0
O119 O 0.72742 0.86836 0.11613 0.0
C120 C 0.77022 0.84134 0.15644 0.0
C121 C 0.7375 0.86186 0.26357 0.0
C122 C 0.71507 0.81981 0.06893 0.0
O123 O 0.77387 0.85815 0.13706 0.0
O124 O 0.75232 0.82933 0.16756 0.0
O125 O 0.71494 0.81913 0.13147 0.0
O126 O 0.72836 0.83564 0.04391 0.0
C127 C 0.74062 0.87939 0.07572 0.0
O128 O 0.72335 0.8474 0.23479 0.0
O129 O 0.75359 0.86952 0.23251 0.0
In130 In 0.32081 0.98744 0.08933 0.0
O131 O 0.31979 0.9697 0.18078 0.0
O132 O 0.29406 0.97073 0.15422 0.0
C133 C 0.3542 0.99325 0.02988 0.0
C134 C 0.29335 0.96887 0.99531 0.0
C135 C 0.33052 0.0227 0.14111 0.0
O136 O 0.34296 0.97761 0.06081 0.0
O137 O 0.3488 0.00591 0.03015 0.0
O138 O 0.32239 0.01718 0.08513 0.0
O139 O 0.33388 0.01048 0.17058 0.0
C140 C 0.30202 0.96435 0.19358 0.0
O141 O 0.29673 0.98507 0.01983 0.0
O142 O 0.30428 0.96256 0.01649 0.0
In143 In 0.18798 0.42426 0.10878 0.0
O144 O 0.20303 0.41431 0.03365 0.0
O145 O 0.21753 0.44451 0.06191 0.0
C146 C 0.15304 0.39078 0.12286 0.0
C147 C 0.20804 0.42724 0.21943 0.0
C148 C 0.17523 0.44911 0.07316 0.0
O149 O 0.16098 0.39662 0.06677 0.0
O150 O 0.16291 0.40148 0.17048 0.0
O151 O 0.1774 0.44598 0.13301 0.0
O152 O 0.17975 0.43999 0.03185 0.0
C153 C 0.21807 0.43125 0.02826 0.0
O154 O 0.20326 0.43994 0.20405 0.0
O155 O 0.20249 0.41311 0.17935 0.0
In156 In 0.42222 0.32255 0.94202 0.0
O157 O 0.41325 0.30397 0.03626 0.0
O158 O 0.44043 0.31117 0.98811 0.0
C159 C 0.39751 0.33408 0.89758 0.0
C160 C 0.41419 0.29568 0.84808 0.0
C161 C 0.45005 0.35753 0.98643 0.0
O162 O 0.39292 0.32239 0.94643 0.0
O163 O 0.41439 0.33991 0.87321 0.0
O164 O 0.4519 0.35059 0.9318 0.0
O165 O 0.43411 0.34689 0.01722 0.0
C166 C 0.42873 0.30257 0.03554 0.0
O167 O 0.43064 0.31158 0.84987 0.0
O168 O 0.40211 0.29375 0.89287 0.0
In169 In 0.85465 0.18945 0.90195 0.0
O170 O 0.87065 0.19551 0.00105 0.0
O171 O 0.86027 0.21464 0.9677 0.0
C172 C 0.84922 0.15709 0.84015 0.0
C173 C 0.88516 0.21421 0.82773 0.0
C174 C 0.81685 0.17636 0.93069 0.0
O175 O 0.85379 0.16001 0.90104 0.0
O176 O 0.8474 0.17042 0.8114 0.0
O177 O 0.82611 0.19065 0.89093 0.0
O178 O 0.82661 0.16886 0.9536 0.0
C179 C 0.86926 0.21074 0.01163 0.0
O180 O 0.86833 0.21272 0.82072 0.0
O181 O 0.8862 0.20326 0.87151 0.0
In182 In 0.97536 0.72979 0.87276 0.0
O183 O 0.9643 0.7433 0.95058 0.0
O184 O 0.94747 0.71249 0.93084 0.0
C185 C 0.00798 0.75767 0.81354 0.0
C186 C 0.95188 0.72542 0.77105 0.0
C187 C 0.98963 0.70942 0.93554 0.0
O188 O 0.00248 0.76066 0.86923 0.0
O189 O 0.99737 0.74073 0.78932 0.0
O190 O 0.97714 0.70179 0.8893 0.0
O191 O 0.99502 0.72715 0.94828 0.0
C192 C 0.94888 0.72699 0.96243 0.0
O193 O 0.95614 0.71222 0.78545 0.0
O194 O 0.95958 0.74048 0.80767 0.0
In195 In 0.41949 0.17997 0.44218 0.0
O196 O 0.39802 0.18238 0.51328 0.0
O197 O 0.42824 0.20495 0.51329 0.0
C198 C 0.39301 0.14735 0.37712 0.0
C199 C 0.42908 0.20908 0.35498 0.0
C200 C 0.44509 0.17067 0.49757 0.0
O201 O 0.39282 0.14836 0.4395 0.0
O202 O 0.40636 0.16241 0.34903 0.0
O203 O 0.44537 0.174 0.43633 0.0
O204 O 0.43203 0.17192 0.52979 0.0
C205 C 0.41121 0.1987 0.53656 0.0
O206 O 0.44166 0.20459 0.37487 0.0
O207 O 0.41201 0.19877 0.37858 0.0
In208 In 0.99749 0.32479 0.39786 0.0
O209 O 0.99628 0.30432 0.48087 0.0
O210 O 0.97738 0.31644 0.48663 0.0
C211 C 0.02482 0.32585 0.31511 0.0
C212 C 0.96582 0.30337 0.32223 0.0
C213 C 0.01598 0.36288 0.43417 0.0
O214 O 0.02357 0.32049 0.37487 0.0
O215 O 0.01216 0.33039 0.29726 0.0
O216 O 0.99836 0.35427 0.41419 0.0
O217 O 0.02392 0.35236 0.43585 0.0
C218 C 0.98273 0.3052 0.51185 0.0
O219 O 0.97215 0.32145 0.33323 0.0
O220 O 0.97564 0.29643 0.3486 0.0
In221 In 0.84265 0.74598 0.37227 0.0
O222 O 0.83994 0.72549 0.28804 0.0
O223 O 0.86648 0.75337 0.29801 0.0
C224 C 0.81166 0.73471 0.45169 0.0
C225 C 0.86408 0.73796 0.45527 0.0
C226 C 0.83774 0.77365 0.31349 0.0
O227 O 0.81109 0.72395 0.40374 0.0
O228 O 0.82782 0.75055 0.4593 0.0
O229 O 0.85172 0.77821 0.35429 0.0
O230 O 0.82693 0.75543 0.30233 0.0
C231 C 0.8572 0.73727 0.26696 0.0
O232 O 0.86813 0.75559 0.44506 0.0
O233 O 0.84916 0.72487 0.42503 0.0
H234 H 0.08766 0.54622 0.96047 0.0
H235 H 0.06683 0.56135 0.78405 0.0
H236 H 0.06784 0.58957 0.843 0.0
H237 H 0.05991 0.55992 0.07979 0.0
H238 H 0.07957 0.56866 0.1395 0.0
H239 H 0.07522 0.54883 0.08443 0.0
H240 H 0.11157 0.56866 0.04591 0.0
H241 H 0.11589 0.58881 0.09916 0.0
H242 H 0.12084 0.59295 0.01178 0.0
H243 H 0.07635 0.61902 0.91677 0.0
H244 H 0.08468 0.64338 0.00724 0.0
H245 H 0.09701 0.607 0.13729 0.0
C246 C 0.08258 0.55506 0.93534 0.0
C247 C 0.07682 0.55159 0.86853 0.0
C248 C 0.07077 0.56362 0.83598 0.0
C249 C 0.07154 0.57976 0.86879 0.0
C250 C 0.07802 0.58328 0.93426 0.0
C251 C 0.08278 0.57085 0.96784 0.0
C252 C 0.08946 0.5779 0.03769 0.0
C253 C 0.07519 0.56294 0.08834 0.0
C254 C 0.1107 0.58234 0.04925 0.0
C255 C 0.08829 0.59654 0.03767 0.0
C256 C 0.08195 0.5996 0.97735 0.0
C257 C 0.08097 0.61658 0.96458 0.0
C258 C 0.08594 0.63042 0.01568 0.0
C259 C 0.09148 0.62691 0.07848 0.0
C260 C 0.09278 0.60988 0.0894 0.0
H261 H 0.59568 0.62385 0.87854 0.0
H262 H 0.65013 0.62353 0.91344 0.0
H263 H 0.63328 0.59744 0.99764 0.0
H264 H 0.57939 0.61682 0.04676 0.0
H265 H 0.55378 0.60121 0.02616 0.0
H266 H 0.57011 0.61962 0.96833 0.0
H267 H 0.56041 0.5928 0.87833 0.0
H268 H 0.54408 0.57429 0.93592 0.0
H269 H 0.56311 0.5717 0.89514 0.0
H270 H 0.61058 0.57179 0.07827 0.0
H271 H 0.58383 0.54851 0.15115 0.0
H272 H 0.54412 0.56558 0.06279 0.0
C273 C 0.60408 0.6183 0.90386 0.0
C274 C 0.62421 0.62568 0.88965 0.0
C275 C 0.6347 0.61806 0.92374 0.0
C276 C 0.62525 0.60325 0.97147 0.0
C277 C 0.60536 0.59628 0.98417 0.0
C278 C 0.59491 0.60356 0.95139 0.0
C279 C 0.57372 0.5937 0.97452 0.0
C280 C 0.56898 0.60874 0.00581 0.0
C281 C 0.55949 0.58245 0.91758 0.0
C282 C 0.57388 0.57977 0.02582 0.0
C283 C 0.59226 0.58147 0.03048 0.0
C284 C 0.59612 0.5703 0.07497 0.0
C285 C 0.58082 0.55713 0.11612 0.0
C286 C 0.5619 0.55524 0.11248 0.0
C287 C 0.5584 0.56665 0.06644 0.0
H288 H 0.62633 0.09546 0.01909 0.0
H289 H 0.61231 0.03455 0.02628 0.0
H290 H 0.58576 0.02588 0.94422 0.0
H291 H 0.5784 0.086 0.0168 0.0
H292 H 0.58276 0.10586 0.96175 0.0
H293 H 0.60237 0.10779 0.01313 0.0
H294 H 0.62433 0.11399 0.90987 0.0
H295 H 0.6049 0.11242 0.85807 0.0
H296 H 0.61517 0.09677 0.8421 0.0
H297 H 0.55869 0.02355 0.87038 0.0
H298 H 0.53424 0.02783 0.80649 0.0
H299 H 0.56587 0.09029 0.85094 0.0
C300 C 0.61803 0.08037 0.00221 0.0
C301 C 0.62142 0.06566 0.02864 0.0
C302 C 0.61005 0.04605 0.00607 0.0
C303 C 0.59492 0.04101 0.95971 0.0
C304 C 0.59151 0.05579 0.93652 0.0
C305 C 0.6029 0.07511 0.95654 0.0
C306 C 0.59547 0.08804 0.92808 0.0
C307 C 0.58939 0.09747 0.98324 0.0
C308 C 0.61089 0.10373 0.88176 0.0
C309 C 0.5778 0.0729 0.88997 0.0
C310 C 0.57583 0.05442 0.89497 0.0
C311 C 0.56021 0.03798 0.8656 0.0
C312 C 0.54636 0.04055 0.82971 0.0
C313 C 0.54818 0.05939 0.82391 0.0
C314 C 0.56411 0.07572 0.85454 0.0
H315 H 0.62064 0.09888 0.36401 0.0
H316 H 0.58579 0.04585 0.24901 0.0
H317 H 0.55632 0.03872 0.31372 0.0
H318 H 0.59906 0.07857 0.51661 0.0
H319 H 0.59951 0.10028 0.54811 0.0
H320 H 0.61742 0.10258 0.48777 0.0
H321 H 0.60698 0.12219 0.41078 0.0
H322 H 0.58906 0.12001 0.47113 0.0
H323 H 0.58149 0.11169 0.38751 0.0
H324 H 0.53129 0.03571 0.39663 0.0
H325 H 0.51257 0.0372 0.49297 0.0
H326 H 0.56366 0.09194 0.55429 0.0
C327 C 0.60671 0.08602 0.35166 0.0
C328 C 0.60545 0.07296 0.30147 0.0
C329 C 0.58706 0.05605 0.28739 0.0
C330 C 0.57022 0.0519 0.32366 0.0
C331 C 0.57198 0.06482 0.3738 0.0
C332 C 0.58972 0.08157 0.38777 0.0
C333 C 0.58789 0.09223 0.44733 0.0
C334 C 0.60179 0.09347 0.50324 0.0
C335 C 0.59157 0.11275 0.42801 0.0
C336 C 0.56652 0.0786 0.46543 0.0
C337 C 0.55753 0.06299 0.42203 0.0
C338 C 0.53808 0.04799 0.43058 0.0
C339 C 0.52758 0.04893 0.48538 0.0
C340 C 0.53664 0.06468 0.53082 0.0
C341 C 0.55628 0.07977 0.52007 0.0
H342 H 0.07672 0.61376 0.42102 0.0
H343 H 0.13761 0.64448 0.35603 0.0
H344 H 0.14526 0.62521 0.43495 0.0
H345 H 0.08636 0.60944 0.59512 0.0
H346 H 0.06518 0.58518 0.60293 0.0
H347 H 0.06492 0.6024 0.54461 0.0
H348 H 0.05658 0.57709 0.4501 0.0
H349 H 0.0569 0.55984 0.50803 0.0
H350 H 0.07244 0.56695 0.43576 0.0
H351 H 0.14597 0.60165 0.51898 0.0
H352 H 0.13924 0.57514 0.59955 0.0
H353 H 0.07783 0.55966 0.60581 0.0
C354 C 0.0917 0.6166 0.42403 0.0
C355 C 0.10658 0.63063 0.38273 0.0
C356 C 0.12598 0.63378 0.3874 0.0
C357 C 0.13049 0.62295 0.43212 0.0
C358 C 0.11542 0.60902 0.47165 0.0
C359 C 0.09642 0.60583 0.46801 0.0
C360 C 0.08272 0.58941 0.51366 0.0
C361 C 0.07431 0.59707 0.56726 0.0
C362 C 0.06619 0.57231 0.47453 0.0
C363 C 0.0969 0.58369 0.54281 0.0
C364 C 0.11575 0.59526 0.51863 0.0
C365 C 0.13127 0.59251 0.53839 0.0
C366 C 0.12734 0.57746 0.584 0.0
C367 C 0.10804 0.56533 0.60844 0.0
C368 C 0.09274 0.56862 0.58763 0.0
H369 H 0.62207 0.6148 0.58858 0.0
H370 H 0.59652 0.65275 0.59002 0.0
H371 H 0.57012 0.62964 0.51518 0.0
H372 H 0.61169 0.59987 0.41728 0.0
H373 H 0.60616 0.57505 0.4338 0.0
H374 H 0.62326 0.59489 0.48582 0.0
H375 H 0.6024 0.57652 0.58872 0.0
H376 H 0.58511 0.55673 0.53692 0.0
H377 H 0.57666 0.56926 0.59101 0.0
H378 H 0.54651 0.60241 0.44172 0.0
H379 H 0.52776 0.57345 0.37029 0.0
H380 H 0.56825 0.55273 0.41866 0.0
C381 C 0.61104 0.61836 0.5726 0.0
C382 C 0.61135 0.6356 0.59473 0.0
C383 C 0.59657 0.63966 0.57332 0.0
C384 C 0.5815 0.6266 0.53108 0.0
C385 C 0.58144 0.60957 0.5111 0.0
C386 C 0.59586 0.60546 0.53084 0.0
C387 C 0.59232 0.58606 0.50268 0.0
C388 C 0.60937 0.58916 0.45718 0.0
C389 C 0.58892 0.57127 0.55815 0.0
C390 C 0.57365 0.5799 0.46377 0.0
C391 C 0.56764 0.59368 0.46943 0.0
C392 C 0.55104 0.59151 0.43698 0.0
C393 C 0.54049 0.575 0.39663 0.0
C394 C 0.54653 0.56084 0.38925 0.0
C395 C 0.56318 0.56321 0.42404 0.0
H396 H 0.765 0.89593 0.32147 0.0
H397 H 0.70384 0.84987 0.3361 0.0
H398 H 0.69823 0.86924 0.42105 0.0
H399 H 0.7719 0.91142 0.49836 0.0
H400 H 0.78725 0.93695 0.4765 0.0
H401 H 0.78705 0.91807 0.42517 0.0
H402 H 0.77813 0.93227 0.32378 0.0
H403 H 0.77793 0.95096 0.3748 0.0
H404 H 0.75649 0.93475 0.32687 0.0
H405 H 0.69839 0.89529 0.49332 0.0
H406 H 0.7046 0.92531 0.55272 0.0
H407 H 0.76562 0.95462 0.48898 0.0
C408 C 0.75057 0.88961 0.34402 0.0
C409 C 0.73487 0.87133 0.32267 0.0
C410 C 0.7161 0.86376 0.35229 0.0
C411 C 0.71279 0.87468 0.40041 0.0
C412 C 0.72842 0.89304 0.41835 0.0
C413 C 0.74701 0.90035 0.39164 0.0
C414 C 0.76089 0.92111 0.41512 0.0
C415 C 0.77777 0.92193 0.45625 0.0
C416 C 0.76881 0.93562 0.35666 0.0
C417 C 0.74708 0.92459 0.45778 0.0
C418 C 0.72847 0.90815 0.45946 0.0
C419 C 0.71297 0.90814 0.49311 0.0
C420 C 0.71662 0.9253 0.52636 0.0
C421 C 0.7356 0.94228 0.52542 0.0
C422 C 0.75099 0.94185 0.49074 0.0
H423 H 0.20673 0.8976 0.41177 0.0
H424 H 0.24409 0.88527 0.5378 0.0
H425 H 0.27288 0.90711 0.46964 0.0
H426 H 0.23015 0.89818 0.25972 0.0
H427 H 0.22784 0.91795 0.22373 0.0
H428 H 0.21017 0.90197 0.28408 0.0
H429 H 0.21747 0.93216 0.35639 0.0
H430 H 0.23513 0.94824 0.2961 0.0
H431 H 0.24246 0.94907 0.38109 0.0
H432 H 0.29747 0.92926 0.38582 0.0
H433 H 0.31624 0.95089 0.29219 0.0
H434 H 0.26302 0.94887 0.22125 0.0
C435 C 0.221 0.89965 0.42526 0.0
C436 C 0.22318 0.88976 0.48001 0.0
C437 C 0.24207 0.89268 0.49591 0.0
C438 C 0.25854 0.90507 0.45759 0.0
C439 C 0.25589 0.91445 0.40351 0.0
C440 C 0.23764 0.91196 0.38735 0.0
C441 C 0.2388 0.92342 0.32565 0.0
C442 C 0.22598 0.90955 0.27002 0.0
C443 C 0.23313 0.93916 0.34074 0.0
C444 C 0.26051 0.93264 0.30975 0.0
C445 C 0.27011 0.92729 0.35522 0.0
C446 C 0.29016 0.93366 0.34999 0.0
C447 C 0.30068 0.94588 0.29672 0.0
C448 C 0.29109 0.95157 0.24977 0.0
C449 C 0.27077 0.94485 0.25664 0.0
H450 H 0.27581 0.40209 0.44474 0.0
H451 H 0.29062 0.45506 0.55582 0.0
H452 H 0.2667 0.45962 0.49054 0.0
H453 H 0.27196 0.42034 0.28986 0.0
H454 H 0.25156 0.39751 0.26089 0.0
H455 H 0.26844 0.39722 0.32052 0.0
H456 H 0.2394 0.37646 0.40021 0.0
H457 H 0.22241 0.37667 0.34066 0.0
H458 H 0.22303 0.38533 0.4237 0.0
H459 H 0.24313 0.45992 0.4088 0.0
H460 H 0.22138 0.45587 0.31442 0.0
H461 H 0.22189 0.40289 0.25598 0.0
C462 C 0.27375 0.41444 0.45591 0.0
C463 C 0.285 0.42819 0.50531 0.0
C464 C 0.28215 0.44436 0.51803 0.0
C465 C 0.26855 0.44705 0.48144 0.0
C466 C 0.25789 0.43343 0.43236 0.0
C467 C 0.26027 0.41742 0.41951 0.0
C468 C 0.2478 0.40567 0.3613 0.0
C469 C 0.26072 0.40517 0.30481 0.0
C470 C 0.23223 0.3848 0.38278 0.0
C471 C 0.23841 0.41783 0.34279 0.0
C472 C 0.24429 0.43367 0.38479 0.0
C473 C 0.23823 0.44746 0.37591 0.0
C474 C 0.22593 0.44507 0.32221 0.0
C475 C 0.21993 0.42906 0.2782 0.0
C476 C 0.22611 0.41519 0.2892 0.0
H477 H 0.22425 0.40483 0.95887 0.0
H478 H 0.25122 0.46679 0.00816 0.0
H479 H 0.28076 0.47359 0.94387 0.0
H480 H 0.26901 0.40189 0.96649 0.0
H481 H 0.2621 0.38516 0.89755 0.0
H482 H 0.24337 0.38506 0.94954 0.0
H483 H 0.22703 0.39082 0.84695 0.0
H484 H 0.24555 0.39071 0.79471 0.0
H485 H 0.24161 0.41145 0.79332 0.0
H486 H 0.30684 0.4738 0.86976 0.0
H487 H 0.3265 0.46739 0.78784 0.0
H488 H 0.28258 0.4053 0.79034 0.0
C489 C 0.23638 0.41981 0.95622 0.0
C490 C 0.23546 0.43528 0.98836 0.0
C491 C 0.25163 0.45471 0.98379 0.0
C492 C 0.26851 0.45872 0.94767 0.0
C493 C 0.26901 0.44311 0.91681 0.0
C494 C 0.25336 0.42406 0.92065 0.0
C495 C 0.25729 0.41003 0.88117 0.0
C496 C 0.25799 0.39463 0.92641 0.0
C497 C 0.24197 0.40018 0.82575 0.0
C498 C 0.27744 0.42421 0.85356 0.0
C499 C 0.28407 0.44321 0.87499 0.0
C500 C 0.3019 0.45894 0.85316 0.0
C501 C 0.313 0.45518 0.80689 0.0
C502 C 0.30613 0.43587 0.78313 0.0
C503 C 0.28835 0.42021 0.8081 0.0
H504 H 0.76474 0.90288 0.97616 0.0
H505 H 0.71303 0.89046 0.09128 0.0
H506 H 0.70901 0.91463 0.02529 0.0
H507 H 0.78312 0.95582 0.95338 0.0
H508 H 0.79124 0.95578 0.86997 0.0
H509 H 0.79104 0.9387 0.92997 0.0
H510 H 0.76917 0.90964 0.85197 0.0
H511 H 0.76927 0.9266 0.7919 0.0
H512 H 0.74622 0.90685 0.82241 0.0
H513 H 0.70898 0.9381 0.94137 0.0
H514 H 0.71338 0.95961 0.84568 0.0
H515 H 0.76524 0.95698 0.78661 0.0
C516 C 0.75277 0.90549 0.98808 0.0
C517 C 0.73923 0.89485 0.0388 0.0
C518 C 0.7236 0.89848 0.05256 0.0
C519 C 0.72121 0.91221 0.01551 0.0
C520 C 0.73462 0.92226 0.96513 0.0
C521 C 0.75016 0.91916 0.95155 0.0
C522 C 0.76189 0.93115 0.89254 0.0
C523 C 0.78308 0.94626 0.9127 0.0
C524 C 0.76161 0.91776 0.8364 0.0
C525 C 0.75027 0.94112 0.87433 0.0
C526 C 0.73467 0.93591 0.91701 0.0
C527 C 0.72129 0.9425 0.90804 0.0
C528 C 0.72387 0.95466 0.85362 0.0
C529 C 0.73968 0.96002 0.80914 0.0
C530 C 0.75313 0.95331 0.82026 0.0
H531 H 0.2833 0.93339 0.93967 0.0
H532 H 0.2658 0.97779 0.95038 0.0
H533 H 0.23662 0.95686 0.88154 0.0
H534 H 0.26879 0.9193 0.77088 0.0
H535 H 0.26042 0.89366 0.78564 0.0
H536 H 0.27975 0.91221 0.83579 0.0
H537 H 0.25946 0.89533 0.94129 0.0
H538 H 0.23993 0.87689 0.89135 0.0
H539 H 0.2348 0.89127 0.94907 0.0
H540 H 0.20962 0.93124 0.81142 0.0
H541 H 0.18778 0.90373 0.73826 0.0
H542 H 0.22273 0.87587 0.77485 0.0
C543 C 0.27339 0.93877 0.92726 0.0
C544 C 0.27678 0.95721 0.95019 0.0
C545 C 0.26348 0.96373 0.93304 0.0
C546 C 0.24684 0.95191 0.89435 0.0
C547 C 0.24376 0.93365 0.87348 0.0
C548 C 0.25674 0.92718 0.88887 0.0
C549 C 0.25028 0.90715 0.85919 0.0
C550 C 0.26572 0.90815 0.80995 0.0
C551 C 0.24585 0.89175 0.91348 0.0
C552 C 0.23166 0.90339 0.82427 0.0
C553 C 0.22812 0.91881 0.83346 0.0
C554 C 0.21219 0.91904 0.80411 0.0
C555 C 0.19985 0.90333 0.76282 0.0
C556 C 0.20352 0.88764 0.75136 0.0
C557 C 0.2194 0.88751 0.78362 0.0
H558 H 0.43928 0.29229 0.76144 0.0
H559 H 0.37846 0.26306 0.82728 0.0
H560 H 0.37071 0.23511 0.75324 0.0
H561 H 0.42922 0.27602 0.58942 0.0
H562 H 0.4504 0.27283 0.58348 0.0
H563 H 0.45079 0.29105 0.63868 0.0
H564 H 0.45938 0.27526 0.7364 0.0
H565 H 0.45884 0.25691 0.68163 0.0
H566 H 0.44352 0.24952 0.75446 0.0
H567 H 0.36985 0.20969 0.67505 0.0
H568 H 0.37608 0.18911 0.59671 0.0
H569 H 0.43746 0.23485 0.58448 0.0
C570 C 0.42428 0.28014 0.75951 0.0
C571 C 0.40946 0.27985 0.79981 0.0
C572 C 0.39005 0.26357 0.79665 0.0
C573 C 0.38548 0.24763 0.75479 0.0
C574 C 0.4005 0.24819 0.71651 0.0
C575 C 0.41949 0.26405 0.71827 0.0
C576 C 0.43306 0.2607 0.67389 0.0
C577 C 0.44135 0.27606 0.61805 0.0
C578 C 0.44968 0.26059 0.71401 0.0
C579 C 0.41878 0.24044 0.64745 0.0
C580 C 0.40005 0.23348 0.6723 0.0
C581 C 0.38445 0.215 0.65507 0.0
C582 C 0.38812 0.2034 0.61081 0.0
C583 C 0.40723 0.21036 0.58482 0.0
C584 C 0.42269 0.22909 0.6037 0.0
H585 H 0.88941 0.2433 0.74182 0.0
H586 H 0.92023 0.21507 0.82376 0.0
H587 H 0.94945 0.2367 0.75689 0.0
H588 H 0.90817 0.2491 0.57836 0.0
H589 H 0.91042 0.27288 0.5655 0.0
H590 H 0.89214 0.25563 0.62176 0.0
H591 H 0.90643 0.28165 0.7154 0.0
H592 H 0.92482 0.29896 0.6594 0.0
H593 H 0.93216 0.29283 0.73618 0.0
H594 H 0.97457 0.25983 0.67591 0.0
H595 H 0.99397 0.28349 0.58743 0.0
H596 H 0.94748 0.29765 0.5624 0.0
C597 C 0.90234 0.24175 0.74581 0.0
C598 C 0.90255 0.2275 0.78781 0.0
C599 C 0.91976 0.22592 0.7919 0.0
C600 C 0.93645 0.23815 0.75422 0.0
C601 C 0.9358 0.25204 0.7132 0.0
C602 C 0.91925 0.254 0.70899 0.0
C603 C 0.92232 0.26989 0.66012 0.0
C604 C 0.90738 0.26136 0.60306 0.0
C605 C 0.92138 0.28683 0.69487 0.0
C606 C 0.94299 0.27625 0.63671 0.0
C607 C 0.95054 0.2658 0.66795 0.0
C608 C 0.96895 0.26832 0.65168 0.0
C609 C 0.97985 0.28175 0.60149 0.0
C610 C 0.97231 0.29251 0.56879 0.0
C611 C 0.95378 0.28988 0.58744 0.0
H612 H 0.94509 0.75396 0.72391 0.0
H613 H 0.92837 0.69269 0.69656 0.0
H614 H 0.90446 0.68951 0.61053 0.0
H615 H 0.89759 0.74802 0.70738 0.0
H616 H 0.90574 0.77078 0.66335 0.0
H617 H 0.92209 0.76843 0.72029 0.0
H618 H 0.94819 0.77818 0.62756 0.0
H619 H 0.93197 0.78069 0.57035 0.0
H620 H 0.94149 0.76458 0.551 0.0
H621 H 0.88122 0.69266 0.53292 0.0
H622 H 0.86131 0.7021 0.46431 0.0
H623 H 0.8939 0.76169 0.54077 0.0
C624 C 0.93652 0.73989 0.69949 0.0
C625 C 0.93851 0.72352 0.71679 0.0
C626 C 0.92707 0.7054 0.68375 0.0
C627 C 0.91347 0.70347 0.63504 0.0
C628 C 0.91169 0.71986 0.61985 0.0
C629 C 0.92303 0.73776 0.65067 0.0
C630 C 0.91814 0.75305 0.62606 0.0
C631 C 0.91043 0.7605 0.68264 0.0
C632 C 0.93601 0.77013 0.59169 0.0
C633 C 0.90204 0.74088 0.57703 0.0
C634 C 0.89854 0.72177 0.57432 0.0
C635 C 0.88394 0.7076 0.53423 0.0
C636 C 0.87267 0.71311 0.49566 0.0
C637 C 0.87611 0.73265 0.49721 0.0
C638 C 0.89103 0.7467 0.53834 0.0
H639 H 0.89302 0.76139 0.21134 0.0
H640 H 0.84345 0.70177 0.20428 0.0
H641 H 0.86158 0.6928 0.12427 0.0
H642 H 0.90681 0.76474 0.03713 0.0
H643 H 0.93277 0.77895 0.05485 0.0
H644 H 0.91533 0.78078 0.1081 0.0
H645 H 0.92954 0.77158 0.20883 0.0
H646 H 0.94686 0.76947 0.15586 0.0
H647 H 0.93037 0.74904 0.20728 0.0
H648 H 0.88596 0.68993 0.05149 0.0
H649 H 0.91384 0.69368 0.98424 0.0
H650 H 0.94746 0.75542 0.0382 0.0
C651 C 0.88583 0.7465 0.19227 0.0
C652 C 0.86681 0.73224 0.2138 0.0
C653 C 0.85796 0.71292 0.18803 0.0
C654 C 0.86817 0.7077 0.14285 0.0
C655 C 0.88711 0.72202 0.12389 0.0
C656 C 0.89576 0.74108 0.1472 0.0
C657 C 0.91642 0.7536 0.12024 0.0
C658 C 0.91791 0.77052 0.07753 0.0
C659 C 0.93169 0.76137 0.17641 0.0
C660 C 0.91817 0.73854 0.0786 0.0
C661 C 0.9011 0.72042 0.08152 0.0
C662 C 0.89932 0.70407 0.04842 0.0
C663 C 0.91529 0.70636 0.01059 0.0
C664 C 0.93281 0.72486 0.00599 0.0
C665 C 0.93426 0.74112 0.04076 0.0
H666 H 0.40412 0.22138 0.31214 0.0
H667 H 0.4641 0.23295 0.29177 0.0
H668 H 0.47097 0.25947 0.21144 0.0
H669 H 0.39665 0.22821 0.14379 0.0
H670 H 0.38219 0.23972 0.16108 0.0
H671 H 0.38238 0.22238 0.21887 0.0
H672 H 0.39349 0.24844 0.31218 0.0
H673 H 0.39336 0.2659 0.25462 0.0
H674 H 0.41534 0.27207 0.30093 0.0
H675 H 0.47067 0.28347 0.13016 0.0
H676 H 0.46349 0.30341 0.05315 0.0
H677 H 0.40369 0.27636 0.12824 0.0
C678 C 0.41875 0.22954 0.29109 0.0
C679 C 0.43362 0.22515 0.30799 0.0
C680 C 0.45254 0.23613 0.27938 0.0
C681 C 0.45656 0.2512 0.23392 0.0
C682 C 0.44151 0.25509 0.21818 0.0
C683 C 0.42301 0.2446 0.24601 0.0
C684 C 0.40924 0.25129 0.21958 0.0
C685 C 0.39158 0.23439 0.18369 0.0
C686 C 0.40246 0.25994 0.27515 0.0
C687 C 0.42282 0.26705 0.17166 0.0
C688 C 0.44138 0.26904 0.17182 0.0
C689 C 0.45625 0.28214 0.12997 0.0
C690 C 0.452 0.29337 0.08636 0.0
C691 C 0.43304 0.29145 0.08499 0.0
C692 C 0.41835 0.27827 0.12876 0.0
H693 H 0.95365 0.26635 0.27706 0.0
H694 H 0.93883 0.31275 0.27476 0.0
H695 H 0.90988 0.29201 0.20461 0.0
H696 H 0.94257 0.25303 0.11064 0.0
H697 H 0.93285 0.22709 0.12422 0.0
H698 H 0.95103 0.24471 0.17973 0.0
H699 H 0.92757 0.2277 0.27885 0.0
H700 H 0.90924 0.21006 0.22346 0.0
H701 H 0.90314 0.22447 0.27769 0.0
H702 H 0.88411 0.26731 0.12957 0.0
H703 H 0.86447 0.2414 0.04845 0.0
H704 H 0.89644 0.21124 0.09828 0.0
C705 C 0.94416 0.27205 0.26255 0.0
C706 C 0.94835 0.29108 0.28147 0.0
C707 C 0.93581 0.29818 0.26075 0.0
C708 C 0.9193 0.28647 0.22134 0.0
C709 C 0.91563 0.26778 0.20331 0.0
C710 C 0.92775 0.26065 0.22298 0.0
C711 C 0.92148 0.24073 0.19267 0.0
C712 C 0.93796 0.24144 0.14923 0.0
C713 C 0.91497 0.2248 0.24638 0.0
C714 C 0.90418 0.23795 0.15146 0.0
C715 C 0.90088 0.25359 0.15919 0.0
C716 C 0.88641 0.25491 0.1236 0.0
C717 C 0.87536 0.24012 0.07762 0.0
C718 C 0.87893 0.22431 0.06733 0.0
C719 C 0.89322 0.223 0.10587 0.0
H720 H 0.1184 0.70764 0.41732 0.0
H721 H 0.14973 0.72794 0.23107 0.0
H722 H 0.17012 0.76116 0.27884 0.0
H723 H 0.11516 0.74893 0.45317 0.0
H724 H 0.11888 0.74871 0.54109 0.0
H725 H 0.1085 0.72613 0.49494 0.0
H726 H 0.13601 0.71984 0.53789 0.0
H727 H 0.14651 0.74247 0.58433 0.0
H728 H 0.16145 0.73834 0.52589 0.0
H729 H 0.18327 0.79279 0.34067 0.0
H730 H 0.18953 0.82049 0.41416 0.0
H731 H 0.15139 0.77945 0.56323 0.0
C732 C 0.12979 0.71901 0.38695 0.0
C733 C 0.13251 0.71531 0.32048 0.0
C734 C 0.14749 0.7305 0.28217 0.0
C735 C 0.15914 0.74937 0.30894 0.0
C736 C 0.15584 0.75262 0.37437 0.0
C737 C 0.14171 0.7378 0.41318 0.0
C738 C 0.14029 0.74539 0.48072 0.0
C739 C 0.11948 0.7421 0.49315 0.0
C740 C 0.14644 0.73595 0.53544 0.0
C741 C 0.15524 0.76702 0.47291 0.0
C742 C 0.16414 0.77083 0.41128 0.0
C743 C 0.17684 0.78994 0.38965 0.0
C744 C 0.18028 0.80554 0.43155 0.0
C745 C 0.17126 0.80193 0.49453 0.0
C746 C 0.15895 0.78246 0.51613 0.0
H747 H 0.46967 0.49848 0.40996 0.0
H748 H 0.44903 0.49503 0.20877 0.0
H749 H 0.41483 0.48096 0.25046 0.0
H750 H 0.43019 0.45431 0.46896 0.0
H751 H 0.42957 0.46373 0.5497 0.0
H752 H 0.45229 0.4743 0.504 0.0
H753 H 0.45567 0.5088 0.51357 0.0
H754 H 0.43295 0.49834 0.55952 0.0
H755 H 0.43585 0.51237 0.48552 0.0
H756 H 0.3827 0.464 0.31406 0.0
H757 H 0.35541 0.4482 0.39486 0.0
H758 H 0.39763 0.46541 0.55485 0.0
C759 C 0.45796 0.4949 0.3747 0.0
C760 C 0.46185 0.49767 0.30617 0.0
C761 C 0.44626 0.49301 0.2615 0.0
C762 C 0.42685 0.48502 0.28474 0.0
C763 C 0.42347 0.48223 0.35276 0.0
C764 C 0.43867 0.48734 0.39713 0.0
C765 C 0.43122 0.48277 0.46765 0.0
C766 C 0.4361 0.46789 0.49941 0.0
C767 C 0.43941 0.5017 0.50899 0.0
C768 C 0.40934 0.47379 0.45613 0.0
C769 C 0.40515 0.47351 0.3895 0.0
C770 C 0.38584 0.46451 0.36638 0.0
C771 C 0.37047 0.45553 0.4125 0.0
C772 C 0.37452 0.4559 0.4809 0.0
C773 C 0.39419 0.46536 0.50294 0.0
H774 H 0.71703 0.00606 0.44725 0.0
H775 H 0.7003 0.0169 0.64058 0.0
H776 H 0.6825 0.03185 0.58731 0.0
H777 H 0.72555 0.04988 0.37071 0.0
H778 H 0.71539 0.03883 0.29169 0.0
H779 H 0.72591 0.02808 0.34478 0.0
H780 H 0.69327 0.99471 0.34139 0.0
H781 H 0.68265 0.00534 0.28797 0.0
H782 H 0.67057 0.99372 0.36438 0.0
H783 H 0.66951 0.04847 0.51353 0.0
H784 H 0.65964 0.06318 0.42396 0.0
H785 H 0.68281 0.03953 0.27807 0.0
C786 C 0.70943 0.01139 0.47832 0.0
C787 C 0.71004 0.0104 0.54801 0.0
C788 C 0.69992 0.01747 0.5871 0.0
C789 C 0.68982 0.026 0.55729 0.0
C790 C 0.68974 0.02702 0.48841 0.0
C791 C 0.69903 0.01964 0.44936 0.0
C792 C 0.6969 0.02275 0.3765 0.0
C793 C 0.71714 0.03565 0.34404 0.0
C794 C 0.68514 0.00295 0.34045 0.0
C795 C 0.68534 0.03344 0.38065 0.0
C796 C 0.68145 0.03582 0.44571 0.0
C797 C 0.67216 0.0464 0.4624 0.0
C798 C 0.66669 0.05476 0.41128 0.0
C799 C 0.6703 0.05227 0.34433 0.0
C800 C 0.67957 0.04131 0.32885 0.0
H801 H 0.71875 0.1007 0.11403 0.0
H802 H 0.70217 0.14572 0.12278 0.0
H803 H 0.73234 0.16839 0.05981 0.0
H804 H 0.77065 0.13308 0.13612 0.0
H805 H 0.77717 0.1191 0.08134 0.0
H806 H 0.75434 0.10698 0.12644 0.0
H807 H 0.73542 0.09362 0.01603 0.0
H808 H 0.75819 0.10599 0.97052 0.0
H809 H 0.73844 0.11063 0.95095 0.0
H810 H 0.76441 0.1856 0.99132 0.0
H811 H 0.79674 0.19678 0.93688 0.0
H812 H 0.7915 0.14014 0.97788 0.0
C813 C 0.72148 0.11536 0.10305 0.0
C814 C 0.70815 0.12149 0.12303 0.0
C815 C 0.7123 0.14082 0.1081 0.0
C816 C 0.7293 0.1537 0.07199 0.0
C817 C 0.74197 0.147 0.05182 0.0
C818 C 0.73832 0.12834 0.06783 0.0
C819 C 0.7543 0.12466 0.04249 0.0
C820 C 0.76474 0.12074 0.10002 0.0
C821 C 0.74609 0.10772 0.992 0.0
C822 C 0.76763 0.14416 0.00963 0.0
C823 C 0.76027 0.15686 0.01456 0.0
C824 C 0.77029 0.17576 0.98741 0.0
C825 C 0.78853 0.18194 0.95618 0.0
C826 C 0.79653 0.1693 0.95336 0.0
C827 C 0.78573 0.15012 0.97946 0.0
H828 H 0.02349 0.72506 0.00638 0.0
H829 H 0.97252 0.66941 0.9525 0.0
H830 H 0.9844 0.6519 0.02466 0.0
H831 H 0.05773 0.70773 0.00416 0.0
H832 H 0.07199 0.72315 0.07208 0.0
H833 H 0.05865 0.73083 0.01911 0.0
H834 H 0.04082 0.73443 0.12174 0.0
H835 H 0.0539 0.72643 0.17493 0.0
H836 H 0.02737 0.71368 0.17604 0.0
H837 H 0.00219 0.64078 0.10535 0.0
H838 H 0.02641 0.63676 0.17286 0.0
H839 H 0.066 0.6998 0.16711 0.0
C840 C 0.01479 0.70918 0.00984 0.0
C841 C 0.99705 0.69855 0.97435 0.0
C842 C 0.9862 0.67778 0.97931 0.0
C843 C 0.99275 0.66777 0.02054 0.0
C844 C 0.01024 0.67877 0.05572 0.0
C845 C 0.02124 0.69901 0.04971 0.0
C846 C 0.04011 0.70745 0.08904 0.0
C847 C 0.05818 0.71789 0.04337 0.0
C848 C 0.04056 0.72131 0.14367 0.0
C849 C 0.03816 0.68881 0.11794 0.0
C850 C 0.0207 0.67241 0.09941 0.0
C851 C 0.0159 0.65354 0.1201 0.0
C852 C 0.02962 0.65139 0.15882 0.0
C853 C 0.04795 0.66799 0.17512 0.0
C854 C 0.05202 0.68689 0.15546 0.0
H855 H 0.45095 0.37261 0.10875 0.0
H856 H 0.48301 0.38595 0.9233 0.0
H857 H 0.50678 0.41909 0.96548 0.0
H858 H 0.45426 0.41773 0.13059 0.0
H859 H 0.45726 0.4186 0.21916 0.0
H860 H 0.44449 0.39526 0.17766 0.0
H861 H 0.46851 0.38528 0.22913 0.0
H862 H 0.48144 0.40871 0.27068 0.0
H863 H 0.49466 0.40088 0.2173 0.0
H864 H 0.52367 0.45194 0.02068 0.0
H865 H 0.53285 0.48202 0.08559 0.0
H866 H 0.49117 0.447 0.23797 0.0
C867 C 0.46318 0.38238 0.07742 0.0
C868 C 0.46517 0.37677 0.01273 0.0
C869 C 0.48127 0.38996 0.97309 0.0
C870 C 0.49487 0.40876 0.99675 0.0
C871 C 0.4923 0.41395 0.06048 0.0
C872 C 0.47695 0.40107 0.10051 0.0
C873 C 0.47658 0.4107 0.16506 0.0
C874 C 0.457 0.41057 0.17355 0.0
C875 C 0.48054 0.4008 0.22403 0.0
C876 C 0.49361 0.43132 0.15399 0.0
C877 C 0.50261 0.43281 0.09358 0.0
C878 C 0.51717 0.45084 0.06885 0.0
C879 C 0.5223 0.46781 0.10595 0.0
C880 C 0.5131 0.46657 0.16731 0.0
C881 C 0.49896 0.4481 0.19244 0.0
H882 H 0.0033 0.38344 0.51029 0.0
H883 H 0.05371 0.38864 0.40384 0.0
H884 H 0.07404 0.42263 0.44443 0.0
H885 H 0.0154 0.43563 0.49343 0.0
H886 H 0.00757 0.43657 0.57655 0.0
H887 H 0.99604 0.41368 0.53152 0.0
H888 H 0.0045 0.39707 0.62672 0.0
H889 H 0.01618 0.41991 0.67176 0.0
H890 H 0.02973 0.40752 0.65311 0.0
H891 H 0.08946 0.4544 0.50152 0.0
H892 H 0.09999 0.48264 0.57573 0.0
H893 H 0.04041 0.45718 0.65234 0.0
C894 C 0.01847 0.39203 0.49426 0.0
C895 C 0.02698 0.38371 0.45319 0.0
C896 C 0.047 0.39495 0.43484 0.0
C897 C 0.05861 0.41423 0.45748 0.0
C898 C 0.05001 0.42194 0.49914 0.0
C899 C 0.03045 0.41127 0.51774 0.0
C900 C 0.02556 0.42251 0.56835 0.0
C901 C 0.01024 0.42739 0.54079 0.0
C902 C 0.01859 0.41107 0.63386 0.0
C903 C 0.04553 0.44095 0.57601 0.0
C904 C 0.05926 0.44032 0.53471 0.0
C905 C 0.07885 0.45518 0.53375 0.0
C906 C 0.08468 0.47115 0.57634 0.0
C907 C 0.07102 0.47212 0.61991 0.0
C908 C 0.05114 0.45685 0.61942 0.0
H909 H 0.7057 0.66912 0.62097 0.0
H910 H 0.71281 0.72386 0.69817 0.0
H911 H 0.74613 0.74196 0.6499 0.0
H912 H 0.75696 0.68077 0.6386 0.0
H913 H 0.75717 0.66949 0.56114 0.0
H914 H 0.73454 0.66038 0.60696 0.0
H915 H 0.71784 0.66549 0.50427 0.0
H916 H 0.74042 0.67466 0.45823 0.0
H917 H 0.72879 0.68941 0.46592 0.0
H918 H 0.77803 0.75417 0.59382 0.0
H919 H 0.80645 0.76062 0.52464 0.0
H920 H 0.77837 0.69861 0.47419 0.0
C921 C 0.71449 0.68486 0.6284 0.0
C922 C 0.70694 0.69517 0.66382 0.0
C923 C 0.71848 0.71579 0.67134 0.0
C924 C 0.7374 0.72616 0.64434 0.0
C925 C 0.7444 0.71569 0.609 0.0
C926 C 0.73331 0.69556 0.60019 0.0
C927 C 0.74392 0.68827 0.55561 0.0
C928 C 0.74841 0.67388 0.59282 0.0
C929 C 0.73203 0.67891 0.49225 0.0
C930 C 0.76262 0.70747 0.54075 0.0
C931 C 0.76262 0.72299 0.57307 0.0
C932 C 0.77824 0.74217 0.56813 0.0
C933 C 0.79432 0.74566 0.52879 0.0
C934 C 0.79457 0.73012 0.49401 0.0
C935 C 0.77849 0.71076 0.50002 0.0
H936 H 0.45913 0.14775 0.44712 0.0
H937 H 0.45978 0.18001 0.62198 0.0
H938 H 0.47892 0.16767 0.68183 0.0
H939 H 0.44949 0.10551 0.53171 0.0
H940 H 0.46412 0.09915 0.47948 0.0
H941 H 0.45383 0.11332 0.44647 0.0
H942 H 0.4886 0.14069 0.4106 0.0
H943 H 0.49902 0.12652 0.44337 0.0
H944 H 0.50808 0.15142 0.47102 0.0
H945 H 0.49552 0.14976 0.72541 0.0
H946 H 0.5059 0.12551 0.75216 0.0
H947 H 0.49216 0.10303 0.55158 0.0
C948 C 0.46389 0.15267 0.49729 0.0
C949 C 0.45838 0.16507 0.52981 0.0
C950 C 0.46411 0.17065 0.59626 0.0
C951 C 0.47503 0.1638 0.63046 0.0
C952 C 0.47988 0.15118 0.59765 0.0
C953 C 0.4744 0.14556 0.53265 0.0
C954 C 0.47926 0.12996 0.51159 0.0
C955 C 0.46056 0.11086 0.49115 0.0
C956 C 0.49466 0.13761 0.45584 0.0
C957 C 0.4878 0.12731 0.57533 0.0
C958 C 0.48849 0.14003 0.62389 0.0
C959 C 0.49522 0.13984 0.68763 0.0
C960 C 0.50109 0.12606 0.70238 0.0
C961 C 0.49978 0.11245 0.65396 0.0
C962 C 0.49332 0.11331 0.58951 0.0
H963 H 0.38657 0.02823 -0.00016 0.0
H964 H 0.36114 0.96525 0.9759 0.0
H965 H 0.38924 0.97094 0.9044 0.0
H966 H 0.40508 0.04261 0.8385 0.0
H967 H 0.42747 0.06426 0.86377 0.0
H968 H 0.40569 0.05509 0.91413 0.0
H969 H 0.42484 0.05287 0.0152 0.0
H970 H 0.44675 0.06224 0.9653 0.0
H971 H 0.43759 0.03917 0.00829 0.0
H972 H 0.41913 0.98414 0.82744 0.0
H973 H 0.45002 0.00346 0.76336 0.0
H974 H 0.45629 0.05735 0.84546 0.0
C975 C 0.38702 0.01564 0.98001 0.0
C976 C 0.37173 0.99632 0.99295 0.0
C977 C 0.37282 0.98017 0.96666 0.0
C978 C 0.38865 0.98327 0.92582 0.0
C979 C 0.40337 0.00259 0.91301 0.0
C980 C 0.40284 0.01846 0.9405 0.0
C981 C 0.42054 0.03774 0.92031 0.0
C982 C 0.41431 0.05067 0.88189 0.0
C983 C 0.43318 0.04864 0.98088 0.0
C984 C 0.43095 0.03032 0.87595 0.0
C985 C 0.42081 0.01003 0.87174 0.0
C986 C 0.42731 2e-05 0.83112 0.0
C987 C 0.44477 0.01107 0.79468 0.0
C988 C 0.45555 0.03182 0.8 0.0
C989 C 0.44846 0.04147 0.84106 0.0
H990 H 0.14151 0.50195 0.8108 0.0
H991 H 0.10256 0.50238 0.96223 0.0
H992 H 0.11741 0.49027 0.04432 0.0
H993 H 0.13679 0.45686 0.85994 0.0
H994 H 0.16181 0.46349 0.8408 0.0
H995 H 0.15018 0.47484 0.79657 0.0
H996 H 0.17857 0.50931 0.83026 0.0
H997 H 0.19028 0.49803 0.87474 0.0
H998 H 0.18461 0.51489 0.91653 0.0
H999 H 0.1355 0.47685 0.10856 0.0
H1000 H 0.15292 0.45973 0.14741 0.0
H1001 H 0.17807 0.46556 0.95182 0.0
C1002 C 0.13646 0.49988 0.86162 0.0
C1003 C 0.12115 0.50332 0.88079 0.0
C1004 C 0.1144 0.4999 0.94701 0.0
C1005 C 0.1228 0.49314 0.99393 0.0
C1006 C 0.13774 0.48964 0.97343 0.0
C1007 C 0.14436 0.49267 0.90868 0.0
C1008 C 0.15903 0.48575 0.89782 0.0
C1009 C 0.15149 0.46925 0.84572 0.0
C1010 C 0.17933 0.50303 0.87872 0.0
C1011 C 0.15939 0.47808 0.96624 0.0
C1012 C 0.14735 0.48086 0.00952 0.0
C1013 C 0.14503 0.47466 0.07522 0.0
C1014 C 0.155 0.465 0.09689 0.0
C1015 C 0.16676 0.46134 0.05254 0.0
C1016 C 0.16915 0.4682 0.98673 0.0
H1017 H 0.66584 0.71031 0.93812 0.0
H1018 H 0.65142 0.73051 0.75818 0.0
H1019 H 0.66226 0.76282 0.81026 0.0
H1020 H 0.65128 0.73781 0.05506 0.0
H1021 H 0.67117 0.74277 0.11078 0.0
H1022 H 0.65999 0.72053 0.06219 0.0
H1023 H 0.69421 0.72961 0.01478 0.0
H1024 H 0.70547 0.75188 0.06273 0.0
H1025 H 0.70879 0.75301 0.97428 0.0
H1026 H 0.67965 0.79417 0.87455 0.0
H1027 H 0.69977 0.82171 0.9506 0.0
H1028 H 0.70078 0.78072 0.092 0.0
C1029 C 0.66453 0.72139 0.91028 0.0
C1030 C 0.65779 0.71796 0.84419 0.0
C1031 C 0.65642 0.73282 0.80904 0.0
C1032 C 0.66255 0.75121 0.8382 0.0
C1033 C 0.66963 0.75431 0.9029 0.0
C1034 C 0.67031 0.7397 0.93898 0.0
C1035 C 0.67959 0.74715 0.00625 0.0
C1036 C 0.66461 0.73643 0.06186 0.0
C1037 C 0.69811 0.74531 0.01496 0.0
C1038 C 0.68477 0.76846 0.00133 0.0
C1039 C 0.67885 0.77227 0.94134 0.0
C1040 C 0.68387 0.79128 0.92239 0.0
C1041 C 0.69534 0.80681 0.96564 0.0
C1042 C 0.70141 0.80317 0.02734 0.0
C1043 C 0.69577 0.78374 0.04587 0.0
H1044 H 0.78785 0.04271 0.78436 0.0
H1045 H 0.80346 0.05349 0.57669 0.0
H1046 H 0.82767 0.08824 0.60248 0.0
H1047 H 0.78805 0.08527 0.81711 0.0
H1048 H 0.79851 0.08914 0.89888 0.0
H1049 H 0.78496 0.06466 0.86579 0.0
H1050 H 0.81491 0.05977 0.88506 0.0
H1051 H 0.82857 0.08427 0.91878 0.0
H1052 H 0.83853 0.07718 0.85066 0.0
H1053 H 0.845 0.12262 0.64796 0.0
H1054 H 0.85631 0.15348 0.71078 0.0
H1055 H 0.83126 0.1199 0.89013 0.0
C1056 C 0.79676 0.05227 0.74458 0.0
C1057 C 0.79386 0.04553 0.67856 0.0
C1058 C 0.80563 0.0584 0.62765 0.0
C1059 C 0.81938 0.07813 0.64189 0.0
C1060 C 0.82143 0.0845 0.70742 0.0
C1061 C 0.81071 0.07182 0.75814 0.0
C1062 C 0.81453 0.08254 0.82354 0.0
C1063 C 0.79538 0.08027 0.853 0.0
C1064 C 0.82475 0.07552 0.87239 0.0
C1065 C 0.82831 0.10343 0.80126 0.0
C1066 C 0.83221 0.10425 0.73416 0.0
C1067 C 0.84257 0.12212 0.7008 0.0
C1068 C 0.84885 0.13954 0.73672 0.0
C1069 C 0.84495 0.13894 0.80529 0.0
C1070 C 0.83497 0.12069 0.83816 0.0
H1071 H 0.12211 0.8249 0.74593 0.0
H1072 H 0.10769 0.83041 0.54293 0.0
H1073 H 0.07225 0.81325 0.57235 0.0
H1074 H 0.08363 0.77796 0.77577 0.0
H1075 H 0.07922 0.78233 0.85993 0.0
H1076 H 0.10334 0.79673 0.82438 0.0
H1077 H 0.10296 0.82879 0.85208 0.0
H1078 H 0.07883 0.81446 0.88813 0.0
H1079 H 0.08291 0.83185 0.8232 0.0
H1080 H 0.03861 0.79104 0.62034 0.0
H1081 H 0.0092 0.76827 0.68562 0.0
H1082 H 0.04555 0.7798 0.85965 0.0
C1083 C 0.1115 0.8228 0.70795 0.0
C1084 C 0.11752 0.82888 0.64212 0.0
C1085 C 0.1033 0.82594 0.59369 0.0
C1086 C 0.08319 0.8162 0.60999 0.0
C1087 C 0.0777 0.80999 0.67519 0.0
C1088 C 0.09148 0.81352 0.7237 0.0
C1089 C 0.08177 0.80473 0.78945 0.0
C1090 C 0.08732 0.78954 0.81376 0.0
C1091 C 0.08693 0.82093 0.84127 0.0
C1092 C 0.06031 0.795 0.76992 0.0
C1093 C 0.05827 0.79818 0.70373 0.0
C1094 C 0.03999 0.78892 0.67255 0.0
C1095 C 0.02342 0.776 0.70981 0.0
C1096 C 0.02522 0.77276 0.77762 0.0
C1097 C 0.04381 0.78261 0.80832 0.0
H1098 H 0.37303 0.40304 0.67952 0.0
H1099 H 0.31093 0.36081 0.70259 0.0
H1100 H 0.31937 0.33949 0.76947 0.0
H1101 H 0.38926 0.36688 0.66487 0.0
H1102 H 0.41186 0.3823 0.70872 0.0
H1103 H 0.40051 0.39328 0.6607 0.0
H1104 H 0.40019 0.41258 0.76438 0.0
H1105 H 0.41119 0.4014 0.81302 0.0
H1106 H 0.38822 0.39931 0.83882 0.0
H1107 H 0.33526 0.32447 0.84306 0.0
H1108 H 0.35702 0.31505 0.90281 0.0
H1109 H 0.40819 0.36689 0.82515 0.0
C1110 C 0.3612 0.38915 0.69778 0.0
C1111 C 0.34136 0.3835 0.68612 0.0
C1112 C 0.32625 0.36526 0.71064 0.0
C1113 C 0.33091 0.35317 0.74901 0.0
C1114 C 0.35072 0.35948 0.76125 0.0
C1115 C 0.36559 0.37688 0.73504 0.0
C1116 C 0.3857 0.38049 0.75475 0.0
C1117 C 0.39752 0.38074 0.69363 0.0
C1118 C 0.39698 0.39957 0.79514 0.0
C1119 C 0.37991 0.36257 0.79713 0.0
C1120 C 0.3597 0.35065 0.80103 0.0
C1121 C 0.35109 0.3336 0.83965 0.0
C1122 C 0.36351 0.32844 0.87378 0.0
C1123 C 0.38422 0.34021 0.8682 0.0
C1124 C 0.39239 0.35753 0.82986 0.0
H1125 H 0.06108 0.33264 0.35155 0.0
H1126 H 0.02543 0.3268 0.18011 0.0
H1127 H 0.05429 0.33679 0.10752 0.0
H1128 H 0.10014 0.37578 0.30459 0.0
H1129 H 0.119 0.37133 0.33672 0.0
H1130 H 0.09485 0.35904 0.37276 0.0
H1131 H 0.09225 0.32525 0.35123 0.0
H1132 H 0.11652 0.3375 0.31503 0.0
H1133 H 0.09596 0.31896 0.26876 0.0
H1134 H 0.08786 0.35224 0.05593 0.0
H1135 H 0.12325 0.37417 0.0317 0.0
H1136 H 0.13707 0.37139 0.23758 0.0
C1137 C 0.05921 0.3327 0.29848 0.0
C1138 C 0.04104 0.32867 0.27115 0.0
C1139 C 0.03924 0.32965 0.20179 0.0
C1140 C 0.05552 0.3352 0.1602 0.0
C1141 C 0.07348 0.33977 0.18885 0.0
C1142 C 0.0754 0.33858 0.25653 0.0
C1143 C 0.09676 0.34723 0.27621 0.0
C1144 C 0.10304 0.36436 0.32541 0.0
C1145 C 0.10059 0.33128 0.30447 0.0
C1146 C 0.10662 0.35438 0.20963 0.0
C1147 C 0.09297 0.34941 0.15946 0.0
C1148 C 0.09868 0.35589 0.09458 0.0
C1149 C 0.1188 0.36829 0.08117 0.0
C1150 C 0.13281 0.37436 0.13277 0.0
C1151 C 0.12665 0.36678 0.19712 0.0
H1152 H 0.80473 0.76553 0.24604 0.0
H1153 H 0.85991 0.81423 0.31593 0.0
H1154 H 0.85024 0.83769 0.27143 0.0
H1155 H 0.79971 0.78872 0.0956 0.0
H1156 H 0.77345 0.77758 0.10608 0.0
H1157 H 0.78601 0.76512 0.13571 0.0
H1158 H 0.77168 0.76302 0.25306 0.0
H1159 H 0.75909 0.77543 0.22384 0.0
H1160 H 0.77566 0.78524 0.29321 0.0
H1161 H 0.83302 0.85559 0.22401 0.0
H1162 H 0.8092 0.86581 0.18759 0.0
H1163 H 0.76528 0.80469 0.15555 0.0
C1164 C 0.81502 0.78114 0.25092 0.0
C1165 C 0.83316 0.7881 0.28377 0.0
C1166 C 0.84598 0.80862 0.29043 0.0
C1167 C 0.84063 0.82202 0.26512 0.0
C1168 C 0.82242 0.81458 0.23363 0.0
C1169 C 0.80982 0.79456 0.22687 0.0
C1170 C 0.79037 0.79002 0.19693 0.0
C1171 C 0.78721 0.77976 0.12957 0.0
C1172 C 0.7732 0.77771 0.24462 0.0
C1173 C 0.79371 0.81059 0.18902 0.0
C1174 C 0.81239 0.82465 0.20909 0.0
C1175 C 0.81843 0.84468 0.20782 0.0
C1176 C 0.80487 0.85036 0.1869 0.0
C1177 C 0.78548 0.836 0.16895 0.0
C1178 C 0.78004 0.81596 0.16901 0.0
H1179 H 0.34282 0.03553 0.26744 0.0
H1180 H 0.33121 0.05379 0.0781 0.0
H1181 H 0.34273 0.08706 0.12296 0.0
H1182 H 0.3282 0.06531 0.37067 0.0
H1183 H 0.34723 0.07078 0.43077 0.0
H1184 H 0.33639 0.04789 0.38574 0.0
H1185 H 0.371 0.05581 0.34584 0.0
H1186 H 0.38193 0.07866 0.39067 0.0
H1187 H 0.38646 0.07865 0.30323 0.0
H1188 H 0.35917 0.11895 0.183 0.0
H1189 H 0.37848 0.14743 0.2561 0.0
H1190 H 0.37776 0.10845 0.40939 0.0
C1191 C 0.34245 0.04647 0.23576 0.0
C1192 C 0.33616 0.04215 0.16929 0.0
C1193 C 0.33592 0.05681 0.12923 0.0
C1194 C 0.34238 0.07572 0.15431 0.0
C1195 C 0.34871 0.07958 0.21982 0.0
C1196 C 0.34861 0.06535 0.2603 0.0
C1197 C 0.35704 0.07362 0.32792 0.0
C1198 C 0.34127 0.06381 0.38197 0.0
C1199 C 0.37519 0.07157 0.34273 0.0
C1200 C 0.36265 0.09494 0.31825 0.0
C1201 C 0.35757 0.09799 0.25559 0.0
C1202 C 0.36281 0.1167 0.23265 0.0
C1203 C 0.3738 0.13276 0.27439 0.0
C1204 C 0.37924 0.12999 0.33849 0.0
C1205 C 0.37325 0.11082 0.36125 0.0
loop_
_geom_bond_atom_site_label_1
_geom_bond_atom_site_label_2
_geom_bond_distance
_geom_bond_site_symmetry_2
_ccdc_geom_bond_type
In0 O1 2.294 . S
In0 O2 2.326 . S
In0 O6 2.266 . S
In0 O7 2.326 . S
In0 O8 2.266 . S
In0 O9 2.326 . S
In0 O11 2.294 . S
In0 O12 2.326 . S
O1 In0 2.294 . S
O1 C10 1.240 . S
O2 In0 2.326 . S
O2 C10 1.252 . S
C3 O6 1.252 . S
C3 O7 1.260 . S
C4 O11 1.240 . S
C4 O12 1.252 . S
C5 O8 1.252 . S
C5 O9 1.260 . S
O6 In0 2.266 . S
O6 C3 1.252 . S
O7 In0 2.326 . S
O7 C3 1.260 . S
O8 In0 2.266 . S
O8 C5 1.252 . S
O9 In0 2.326 . S
O9 C5 1.260 . S
C10 O1 1.240 . S
C10 O2 1.252 . S
O11 In0 2.294 . S
O11 C4 1.240 . S
O12 In0 2.326 . S
O12 C4 1.252 . S
In13 O14 2.294 . S
In13 O15 2.326 . S
In13 O19 2.266 . S
In13 O20 2.326 . S
In13 O21 2.266 . S
In13 O22 2.326 . S
In13 O24 2.294 . S
In13 O25 2.326 . S
O14 In13 2.294 . S
O14 C23 1.240 . S
O15 In13 2.326 . S
O15 C23 1.252 . S
C16 O19 1.252 . S
C16 O20 1.260 . S
C17 O24 1.240 . S
C17 O25 1.252 . S
C18 O21 1.252 . S
C18 O22 1.260 . S
O19 In13 2.266 . S
O19 C16 1.252 . S
O20 In13 2.326 . S
O20 C16 1.260 . S
O21 In13 2.266 . S
O21 C18 1.252 . S
O22 In13 2.326 . S
O22 C18 1.260 . S
C23 O14 1.240 . S
C23 O15 1.252 . S
O24 In13 2.294 . S
O24 C17 1.240 . S
O25 In13 2.326 . S
O25 C17 1.252 . S
In26 O27 2.294 . S
In26 O28 2.326 . S
In26 O32 2.266 . S
In26 O33 2.326 . S
In26 O34 2.266 . S
In26 O35 2.326 . S
In26 O37 2.294 . S
In26 O38 2.326 . S
O27 In26 2.294 . S
O27 C36 1.240 . S
O28 In26 2.326 . S
O28 C36 1.252 . S
C29 O32 1.252 . S
C29 O33 1.260 . S
C30 O37 1.240 . S
C30 O38 1.252 . S
C31 O34 1.252 . S
C31 O35 1.260 . S
O32 In26 2.266 . S
O32 C29 1.252 . S
O33 In26 2.326 . S
O33 C29 1.260 . S
O34 In26 2.266 . S
O34 C31 1.252 . S
O35 In26 2.326 . S
O35 C31 1.260 . S
C36 O27 1.240 . S
C36 O28 1.252 . S
O37 In26 2.294 . S
O37 C30 1.240 . S
O38 In26 2.326 . S
O38 C30 1.252 . S
In39 O40 2.294 . S
In39 O41 2.326 . S
In39 O45 2.266 . S
In39 O46 2.326 . S
In39 O47 2.266 . S
In39 O48 2.326 . S
In39 O50 2.294 . S
In39 O51 2.326 . S
O40 In39 2.294 . S
O40 C49 1.240 . S
O41 In39 2.326 . S
O41 C49 1.252 . S
C42 O45 1.252 . S
C42 O46 1.260 . S
C43 O50 1.240 . S
C43 O51 1.252 . S
C44 O47 1.252 . S
C44 O48 1.260 . S
O45 In39 2.266 . S
O45 C42 1.252 . S
O46 In39 2.326 . S
O46 C42 1.260 . S
O47 In39 2.266 . S
O47 C44 1.252 . S
O48 In39 2.326 . S
O48 C44 1.260 . S
C49 O40 1.240 . S
C49 O41 1.252 . S
O50 In39 2.294 . S
O50 C43 1.240 . S
O51 In39 2.326 . S
O51 C43 1.252 . S
In52 O53 2.294 . S
In52 O54 2.326 . S
In52 O58 2.266 . S
In52 O59 2.326 . S
In52 O60 2.266 . S
In52 O61 2.326 . S
In52 O63 2.294 . S
In52 O64 2.326 . S
O53 In52 2.294 . S
O53 C62 1.240 . S
O54 In52 2.326 . S
O54 C62 1.252 . S
C55 O58 1.252 . S
C55 O59 1.260 . S
C56 O63 1.240 . S
C56 O64 1.252 . S
C57 O60 1.252 . S
C57 O61 1.260 . S
O58 In52 2.266 . S
O58 C55 1.252 . S
O59 In52 2.326 . S
O59 C55 1.260 . S
O60 In52 2.266 . S
O60 C57 1.252 . S
O61 In52 2.326 . S
O61 C57 1.260 . S
C62 O53 1.240 . S
C62 O54 1.252 . S
O63 In52 2.294 . S
O63 C56 1.240 . S
O64 In52 2.326 . S
O64 C56 1.252 . S
In65 O66 2.294 . S
In65 O67 2.326 . S
In65 O71 2.266 . S
In65 O72 2.326 . S
In65 O73 2.266 . S
In65 O74 2.326 . S
In65 O76 2.294 . S
In65 O77 2.326 . S
O66 In65 2.294 . S
O66 C75 1.240 . S
O67 In65 2.326 . S
O67 C75 1.252 . S
C68 O71 1.252 . S
C68 O72 1.260 . S
C69 O76 1.240 . S
C69 O77 1.252 . S
C70 O73 1.252 . S
C70 O74 1.260 . S
O71 In65 2.266 . S
O71 C68 1.252 . S
O72 In65 2.326 . S
O72 C68 1.260 . S
O73 In65 2.266 . S
O73 C70 1.252 . S
O74 In65 2.326 . S
O74 C70 1.260 . S
C75 O66 1.240 . S
C75 O67 1.252 . S
O76 In65 2.294 . S
O76 C69 1.240 . S
O77 In65 2.326 . S
O77 C69 1.252 . S
In78 O79 2.294 . S
In78 O80 2.326 . S
In78 O84 2.266 . S
In78 O85 2.326 1_565 S
In78 O86 2.266 1_565 S
In78 O87 2.326 1_565 S
In78 O89 2.294 . S
In78 O90 2.326 . S
O79 In78 2.294 . S
O79 C88 1.240 . S
O80 In78 2.326 . S
O80 C88 1.252 . S
C81 O84 1.252 1_545 S
C81 O85 1.260 . S
C82 O89 1.240 . S
C82 O90 1.252 . S
C83 O86 1.252 . S
C83 O87 1.260 . S
O84 In78 2.266 . S
O84 C81 1.252 1_565 S
O85 In78 2.326 1_545 S
O85 C81 1.260 . S
O86 In78 2.266 1_545 S
O86 C83 1.252 . S
O87 In78 2.326 1_545 S
O87 C83 1.260 . S
C88 O79 1.240 . S
C88 O80 1.252 . S
O89 In78 2.294 . S
O89 C82 1.240 . S
O90 In78 2.326 . S
O90 C82 1.252 . S
In91 O92 2.294 . S
In91 O93 2.326 . S
In91 O97 2.266 . S
In91 O98 2.326 . S
In91 O99 2.266 . S
In91 O100 2.326 . S
In91 O102 2.294 . S
In91 O103 2.326 . S
O92 In91 2.294 . S
O92 C101 1.240 . S
O93 In91 2.326 . S
O93 C101 1.252 . S
C94 O97 1.252 . S
C94 O98 1.260 . S
C95 O102 1.240 . S
C95 O103 1.252 . S
C96 O99 1.252 . S
C96 O100 1.260 . S
O97 In91 2.266 . S
O97 C94 1.252 . S
O98 In91 2.326 . S
O98 C94 1.260 . S
O99 In91 2.266 . S
O99 C96 1.252 . S
O100 In91 2.326 . S
O100 C96 1.260 . S
C101 O92 1.240 . S
C101 O93 1.252 . S
O102 In91 2.294 . S
O102 C95 1.240 . S
O103 In91 2.326 . S
O103 C95 1.252 . S
In104 O105 2.294 . S
In104 O106 2.326 . S
In104 O110 2.266 . S
In104 O111 2.326 . S
In104 O112 2.266 . S
In104 O113 2.326 . S
In104 O115 2.294 . S
In104 O116 2.326 . S
O105 In104 2.294 . S
O105 C114 1.240 . S
O106 In104 2.326 . S
O106 C114 1.252 . S
C107 O110 1.252 . S
C107 O111 1.260 . S
C108 O115 1.240 . S
C108 O116 1.252 . S
C109 O112 1.252 . S
C109 O113 1.260 . S
O110 In104 2.266 . S
O110 C107 1.252 . S
O111 In104 2.326 . S
O111 C107 1.260 . S
O112 In104 2.266 . S
O112 C109 1.252 . S
O113 In104 2.326 . S
O113 C109 1.260 . S
C114 O105 1.240 . S
C114 O106 1.252 . S
O115 In104 2.294 . S
O115 C108 1.240 . S
O116 In104 2.326 . S
O116 C108 1.252 . S
In117 O118 2.294 . S
In117 O119 2.326 . S
In117 O123 2.266 . S
In117 O124 2.326 . S
In117 O125 2.266 . S
In117 O126 2.326 . S
In117 O128 2.294 . S
In117 O129 2.326 . S
O118 In117 2.294 . S
O118 C127 1.240 1_554 S
O119 In117 2.326 . S
O119 C127 1.252 1_554 S
C120 O123 1.252 . S
C120 O124 1.260 . S
C121 O128 1.240 . S
C121 O129 1.252 . S
C122 O125 1.252 . S
C122 O126 1.260 . S
O123 In117 2.266 . S
O123 C120 1.252 . S
O124 In117 2.326 . S
O124 C120 1.260 . S
O125 In117 2.266 . S
O125 C122 1.252 . S
O126 In117 2.326 . S
O126 C122 1.260 . S
C127 O118 1.240 1_556 S
C127 O119 1.252 1_556 S
O128 In117 2.294 . S
O128 C121 1.240 . S
O129 In117 2.326 . S
O129 C121 1.252 . S
In130 O131 2.294 . S
In130 O132 2.326 . S
In130 O136 2.266 . S
In130 O137 2.326 1_565 S
In130 O138 2.266 1_565 S
In130 O139 2.326 1_565 S
In130 O141 2.294 . S
In130 O142 2.326 . S
O131 In130 2.294 . S
O131 C140 1.240 . S
O132 In130 2.326 . S
O132 C140 1.252 . S
C133 O136 1.252 1_545 S
C133 O137 1.260 . S
C134 O141 1.240 1_556 S
C134 O142 1.252 1_556 S
C135 O138 1.252 . S
C135 O139 1.260 . S
O136 In130 2.266 . S
O136 C133 1.252 1_565 S
O137 In130 2.326 1_545 S
O137 C133 1.260 . S
O138 In130 2.266 1_545 S
O138 C135 1.252 . S
O139 In130 2.326 1_545 S
O139 C135 1.260 . S
C140 O131 1.240 . S
C140 O132 1.252 . S
O141 In130 2.294 . S
O141 C134 1.240 1_554 S
O142 In130 2.326 . S
O142 C134 1.252 1_554 S
In143 O144 2.294 . S
In143 O145 2.326 . S
In143 O149 2.266 . S
In143 O150 2.326 . S
In143 O151 2.266 . S
In143 O152 2.326 . S
In143 O154 2.294 . S
In143 O155 2.326 . S
O144 In143 2.294 . S
O144 C153 1.240 1_554 S
O145 In143 2.326 . S
O145 C153 1.252 1_554 S
C146 O149 1.252 . S
C146 O150 1.260 . S
C147 O154 1.240 . S
C147 O155 1.252 . S
C148 O151 1.252 . S
C148 O152 1.260 . S
O149 In143 2.266 . S
O149 C146 1.252 . S
O150 In143 2.326 . S
O150 C146 1.260 . S
O151 In143 2.266 . S
O151 C148 1.252 . S
O152 In143 2.326 . S
O152 C148 1.260 . S
C153 O144 1.240 1_556 S
C153 O145 1.252 1_556 S
O154 In143 2.294 . S
O154 C147 1.240 . S
O155 In143 2.326 . S
O155 C147 1.252 . S
In156 O157 2.294 . S
In156 O158 2.326 . S
In156 O162 2.266 . S
In156 O163 2.326 . S
In156 O164 2.266 . S
In156 O165 2.326 . S
In156 O167 2.294 . S
In156 O168 2.326 . S
O157 In156 2.294 . S
O157 C166 1.240 1_556 S
O158 In156 2.326 . S
O158 C166 1.252 1_556 S
C159 O162 1.252 . S
C159 O163 1.260 . S
C160 O167 1.240 . S
C160 O168 1.252 . S
C161 O164 1.252 . S
C161 O165 1.260 . S
O162 In156 2.266 . S
O162 C159 1.252 . S
O163 In156 2.326 . S
O163 C159 1.260 . S
O164 In156 2.266 . S
O164 C161 1.252 . S
O165 In156 2.326 . S
O165 C161 1.260 . S
C166 O157 1.240 1_554 S
C166 O158 1.252 1_554 S
O167 In156 2.294 . S
O167 C160 1.240 . S
O168 In156 2.326 . S
O168 C160 1.252 . S
In169 O170 2.294 . S
In169 O171 2.326 . S
In169 O175 2.266 . S
In169 O176 2.326 . S
In169 O177 2.266 . S
In169 O178 2.326 . S
In169 O180 2.294 . S
In169 O181 2.326 . S
O170 In169 2.294 . S
O170 C179 1.240 1_556 S
O171 In169 2.326 . S
O171 C179 1.252 1_556 S
C172 O175 1.252 . S
C172 O176 1.260 . S
C173 O180 1.240 . S
C173 O181 1.252 . S
C174 O177 1.252 . S
C174 O178 1.260 . S
O175 In169 2.266 . S
O175 C172 1.252 . S
O176 In169 2.326 . S
O176 C172 1.260 . S
O177 In169 2.266 . S
O177 C174 1.252 . S
O178 In169 2.326 . S
O178 C174 1.260 . S
C179 O170 1.240 1_554 S
C179 O171 1.252 1_554 S
O180 In169 2.294 . S
O180 C173 1.240 . S
O181 In169 2.326 . S
O181 C173 1.252 . S
In182 O183 2.294 . S
In182 O184 2.326 . S
In182 O188 2.266 1_655 S
In182 O189 2.326 1_655 S
In182 O190 2.266 . S
In182 O191 2.326 1_655 S
In182 O193 2.294 . S
In182 O194 2.326 . S
O183 In182 2.294 . S
O183 C192 1.240 1_556 S
O184 In182 2.326 . S
O184 C192 1.252 1_556 S
C185 O188 1.252 . S
C185 O189 1.260 . S
C186 O193 1.240 . S
C186 O194 1.252 . S
C187 O190 1.252 1_455 S
C187 O191 1.260 . S
O188 In182 2.266 1_455 S
O188 C185 1.252 . S
O189 In182 2.326 1_455 S
O189 C185 1.260 . S
O190 In182 2.266 . S
O190 C187 1.252 1_655 S
O191 In182 2.326 1_455 S
O191 C187 1.260 . S
C192 O183 1.240 1_554 S
C192 O184 1.252 1_554 S
O193 In182 2.294 . S
O193 C186 1.240 . S
O194 In182 2.326 . S
O194 C186 1.252 . S
In195 O196 2.294 . S
In195 O197 2.326 . S
In195 O201 2.266 . S
In195 O202 2.326 . S
In195 O203 2.266 . S
In195 O204 2.326 . S
In195 O206 2.294 . S
In195 O207 2.326 . S
O196 In195 2.294 . S
O196 C205 1.240 . S
O197 In195 2.326 . S
O197 C205 1.252 . S
C198 O201 1.252 . S
C198 O202 1.260 . S
C199 O206 1.240 . S
C199 O207 1.252 . S
C200 O203 1.252 . S
C200 O204 1.260 . S
O201 In195 2.266 . S
O201 C198 1.252 . S
O202 In195 2.326 . S
O202 C198 1.260 . S
O203 In195 2.266 . S
O203 C200 1.252 . S
O204 In195 2.326 . S
O204 C200 1.260 . S
C205 O196 1.240 . S
C205 O197 1.252 . S
O206 In195 2.294 . S
O206 C199 1.240 . S
O207 In195 2.326 . S
O207 C199 1.252 . S
In208 O209 2.294 . S
In208 O210 2.326 . S
In208 O214 2.266 1_655 S
In208 O215 2.326 1_655 S
In208 O216 2.266 . S
In208 O217 2.326 1_655 S
In208 O219 2.294 . S
In208 O220 2.326 . S
O209 In208 2.294 . S
O209 C218 1.240 . S
O210 In208 2.326 . S
O210 C218 1.252 . S
C211 O214 1.252 . S
C211 O215 1.260 . S
C212 O219 1.240 . S
C212 O220 1.252 . S
C213 O216 1.252 1_455 S
C213 O217 1.260 . S
O214 In208 2.266 1_455 S
O214 C211 1.252 . S
O215 In208 2.326 1_455 S
O215 C211 1.260 . S
O216 In208 2.266 . S
O216 C213 1.252 1_655 S
O217 In208 2.326 1_455 S
O217 C213 1.260 . S
C218 O209 1.240 . S
C218 O210 1.252 . S
O219 In208 2.294 . S
O219 C212 1.240 . S
O220 In208 2.326 . S
O220 C212 1.252 . S
In221 O222 2.294 . S
In221 O223 2.326 . S
In221 O227 2.266 . S
In221 O228 2.326 . S
In221 O229 2.266 . S
In221 O230 2.326 . S
In221 O232 2.294 . S
In221 O233 2.326 . S
O222 In221 2.294 . S
O222 C231 1.240 . S
O223 In221 2.326 . S
O223 C231 1.252 . S
C224 O227 1.252 . S
C224 O228 1.260 . S
C225 O232 1.240 . S
C225 O233 1.252 . S
C226 O229 1.252 . S
C226 O230 1.260 . S
O227 In221 2.266 . S
O227 C224 1.252 . S
O228 In221 2.326 . S
O228 C224 1.260 . S
O229 In221 2.266 . S
O229 C226 1.252 . S
O230 In221 2.326 . S
O230 C226 1.260 . S
C231 O222 1.240 . S
C231 O223 1.252 . S
O232 In221 2.294 . S
O232 C225 1.240 . S
O233 In221 2.326 . S
O233 C225 1.252 . S
H234 C246 0.930 . S
H235 C248 0.930 . S
H236 C249 0.930 . S
H237 C253 0.959 . S
H238 C253 0.959 . S
H239 C253 0.961 . S
H240 C254 0.960 . S
H241 C254 0.961 . S
H242 C254 0.959 . S
H243 C257 0.929 . S
H244 C258 0.931 . S
H245 C260 0.930 . S
C246 H234 0.930 . S
C246 C247 1.399 . S
C246 C251 1.399 . S
C247 C246 1.399 . S
C247 C248 1.376 . S
C248 H235 0.930 . S
C248 C247 1.376 . S
C248 C249 1.388 . S
C249 H236 0.930 . S
C249 C248 1.388 . S
C249 C250 1.390 . S
C250 C249 1.390 . S
C250 C251 1.394 . S
C250 C256 1.465 . S
C251 C246 1.399 . S
C251 C250 1.394 . S
C251 C252 1.516 1_556 S
C252 C251 1.516 1_554 S
C252 C253 1.502 . S
C252 C254 1.561 . S
C252 C255 1.526 . S
C253 H237 0.959 . S
C253 H238 0.959 . S
C253 H239 0.961 . S
C253 C252 1.502 . S
C254 H240 0.960 . S
C254 H241 0.961 . S
C254 H242 0.959 . S
C254 C252 1.561 . S
C255 C252 1.526 . S
C255 C256 1.396 1_554 S
C255 C260 1.390 . S
C256 C250 1.465 . S
C256 C255 1.396 1_556 S
C256 C257 1.399 . S
C257 H243 0.929 . S
C257 C256 1.399 . S
C257 C258 1.385 1_556 S
C258 H244 0.931 . S
C258 C257 1.385 1_554 S
C258 C259 1.389 . S
C259 C258 1.389 . S
C259 C260 1.387 . S
C260 H245 0.930 . S
C260 C255 1.390 . S
C260 C259 1.387 . S
H261 C273 0.930 . S
H262 C275 0.930 . S
H263 C276 0.930 . S
H264 C280 0.959 . S
H265 C280 0.959 . S
H266 C280 0.961 1_556 S
H267 C281 0.960 . S
H268 C281 0.961 . S
H269 C281 0.959 . S
H270 C284 0.929 . S
H271 C285 0.931 . S
H272 C287 0.930 . S
C273 H261 0.930 . S
C273 C274 1.399 . S
C273 C278 1.399 . S
C274 C273 1.399 . S
C274 C275 1.376 . S
C275 H262 0.930 . S
C275 C274 1.376 . S
C275 C276 1.388 . S
C276 H263 0.930 . S
C276 C275 1.388 . S
C276 C277 1.390 . S
C277 C276 1.390 . S
C277 C278 1.394 . S
C277 C283 1.465 1_556 S
C278 C273 1.399 . S
C278 C277 1.394 . S
C278 C279 1.516 . S
C279 C278 1.516 . S
C279 C280 1.502 1_556 S
C279 C281 1.561 . S
C279 C282 1.526 1_556 S
C280 H264 0.959 . S
C280 H265 0.959 . S
C280 H266 0.961 1_554 S
C280 C279 1.502 1_554 S
C281 H267 0.960 . S
C281 H268 0.961 . S
C281 H269 0.959 . S
C281 C279 1.561 . S
C282 C279 1.526 1_554 S
C282 C283 1.396 . S
C282 C287 1.390 . S
C283 C277 1.465 1_554 S
C283 C282 1.396 . S
C283 C284 1.399 . S
C284 H270 0.929 . S
C284 C283 1.399 . S
C284 C285 1.385 . S
C285 H271 0.931 . S
C285 C284 1.385 . S
C285 C286 1.389 . S
C286 C285 1.389 . S
C286 C287 1.387 . S
C287 H272 0.930 . S
C287 C282 1.390 . S
C287 C286 1.387 . S
H288 C300 0.930 . S
H289 C302 0.930 . S
H290 C303 0.930 1_556 S
H291 C307 0.959 . S
H292 C307 0.959 . S
H293 C307 0.961 . S
H294 C308 0.960 1_554 S
H295 C308 0.961 . S
H296 C308 0.959 . S
H297 C311 0.929 . S
H298 C312 0.931 . S
H299 C314 0.930 . S
C300 H288 0.930 . S
C300 C301 1.399 . S
C300 C305 1.399 . S
C301 C300 1.399 . S
C301 C302 1.376 . S
C302 H289 0.930 . S
C302 C301 1.376 . S
C302 C303 1.388 . S
C303 H290 0.930 1_554 S
C303 C302 1.388 . S
C303 C304 1.390 . S
C304 C303 1.390 . S
C304 C305 1.394 . S
C304 C310 1.465 1_554 S
C305 C300 1.399 . S
C305 C304 1.394 . S
C305 C306 1.516 . S
C306 C305 1.516 . S
C306 C307 1.502 . S
C306 C308 1.561 1_554 S
C306 C309 1.526 1_554 S
C307 H291 0.959 . S
C307 H292 0.959 . S
C307 H293 0.961 . S
C307 C306 1.502 . S
C308 H294 0.960 1_556 S
C308 H295 0.961 . S
C308 H296 0.959 . S
C308 C306 1.561 1_556 S
C309 C306 1.526 1_556 S
C309 C310 1.396 . S
C309 C314 1.390 . S
C310 C304 1.465 1_556 S
C310 C309 1.396 . S
C310 C311 1.399 . S
C311 H297 0.929 . S
C311 C310 1.399 . S
C311 C312 1.385 . S
C312 H298 0.931 . S
C312 C311 1.385 . S
C312 C313 1.389 . S
C313 C312 1.389 . S
C313 C314 1.387 . S
C314 H299 0.930 . S
C314 C309 1.390 . S
C314 C313 1.387 . S
H315 C327 0.930 . S
H316 C329 0.930 . S
H317 C330 0.930 . S
H318 C334 0.959 . S
H319 C334 0.959 . S
H320 C334 0.961 . S
H321 C335 0.960 . S
H322 C335 0.961 . S
H323 C335 0.959 . S
H324 C338 0.929 . S
H325 C339 0.931 . S
H326 C341 0.930 . S
C327 H315 0.930 . S
C327 C328 1.399 . S
C327 C332 1.399 . S
C328 C327 1.399 . S
C328 C329 1.376 . S
C329 H316 0.930 . S
C329 C328 1.376 . S
C329 C330 1.388 . S
C330 H317 0.930 . S
C330 C329 1.388 . S
C330 C331 1.390 . S
C331 C330 1.390 . S
C331 C332 1.394 . S
C331 C337 1.465 . S
C332 C327 1.399 . S
C332 C331 1.394 . S
C332 C333 1.516 . S
C333 C332 1.516 . S
C333 C334 1.502 . S
C333 C335 1.561 . S
C333 C336 1.526 . S
C334 H318 0.959 . S
C334 H319 0.959 . S
C334 H320 0.961 . S
C334 C333 1.502 . S
C335 H321 0.960 . S
C335 H322 0.961 . S
C335 H323 0.959 . S
C335 C333 1.561 . S
C336 C333 1.526 . S
C336 C337 1.396 . S
C336 C341 1.390 . S
C337 C331 1.465 . S
C337 C336 1.396 . S
C337 C338 1.399 . S
C338 H324 0.929 . S
C338 C337 1.399 . S
C338 C339 1.385 . S
C339 H325 0.931 . S
C339 C338 1.385 . S
C339 C340 1.389 . S
C340 C339 1.389 . S
C340 C341 1.387 . S
C341 H326 0.930 . S
C341 C336 1.390 . S
C341 C340 1.387 . S
H342 C354 0.930 . S
H343 C356 0.930 . S
H344 C357 0.930 . S
H345 C361 0.959 . S
H346 C361 0.959 . S
H347 C361 0.961 . S
H348 C362 0.960 . S
H349 C362 0.961 . S
H350 C362 0.959 . S
H351 C365 0.929 . S
H352 C366 0.931 . S
H353 C368 0.930 . S
C354 H342 0.930 . S
C354 C355 1.399 . S
C354 C359 1.399 . S
C355 C354 1.399 . S
C355 C356 1.376 . S
C356 H343 0.930 . S
C356 C355 1.376 . S
C356 C357 1.388 . S
C357 H344 0.930 . S
C357 C356 1.388 . S
C357 C358 1.390 . S
C358 C357 1.390 . S
C358 C359 1.394 . S
C358 C364 1.465 . S
C359 C354 1.399 . S
C359 C358 1.394 . S
C359 C360 1.516 . S
C360 C359 1.516 . S
C360 C361 1.502 . S
C360 C362 1.561 . S
C360 C363 1.526 . S
C361 H345 0.959 . S
C361 H346 0.959 . S
C361 H347 0.961 . S
C361 C360 1.502 . S
C362 H348 0.960 . S
C362 H349 0.961 . S
C362 H350 0.959 . S
C362 C360 1.561 . S
C363 C360 1.526 . S
C363 C364 1.396 . S
C363 C368 1.390 . S
C364 C358 1.465 . S
C364 C363 1.396 . S
C364 C365 1.399 . S
C365 H351 0.929 . S
C365 C364 1.399 . S
C365 C366 1.385 . S
C366 H352 0.931 . S
C366 C365 1.385 . S
C366 C367 1.389 . S
C367 C366 1.389 . S
C367 C368 1.387 . S
C368 H353 0.930 . S
C368 C363 1.390 . S
C368 C367 1.387 . S
H369 C381 0.930 . S
H370 C383 0.930 . S
H371 C384 0.930 . S
H372 C388 0.959 . S
H373 C388 0.959 . S
H374 C388 0.961 . S
H375 C389 0.960 . S
H376 C389 0.961 . S
H377 C389 0.959 . S
H378 C392 0.929 . S
H379 C393 0.931 . S
H380 C395 0.930 . S
C381 H369 0.930 . S
C381 C382 1.399 . S
C381 C386 1.399 . S
C382 C381 1.399 . S
C382 C383 1.376 . S
C383 H370 0.930 . S
C383 C382 1.376 . S
C383 C384 1.388 . S
C384 H371 0.930 . S
C384 C383 1.388 . S
C384 C385 1.390 . S
C385 C384 1.390 . S
C385 C386 1.394 . S
C385 C391 1.465 . S
C386 C381 1.399 . S
C386 C385 1.394 . S
C386 C387 1.516 . S
C387 C386 1.516 . S
C387 C388 1.502 . S
C387 C389 1.561 . S
C387 C390 1.526 . S
C388 H372 0.959 . S
C388 H373 0.959 . S
C388 H374 0.961 . S
C388 C387 1.502 . S
C389 H375 0.960 . S
C389 H376 0.961 . S
C389 H377 0.959 . S
C389 C387 1.561 . S
C390 C387 1.526 . S
C390 C391 1.396 . S
C390 C395 1.390 . S
C391 C385 1.465 . S
C391 C390 1.396 . S
C391 C392 1.399 . S
C392 H378 0.929 . S
C392 C391 1.399 . S
C392 C393 1.385 . S
C393 H379 0.931 . S
C393 C392 1.385 . S
C393 C394 1.389 . S
C394 C393 1.389 . S
C394 C395 1.387 . S
C395 H380 0.930 . S
C395 C390 1.390 . S
C395 C394 1.387 . S
H396 C408 0.930 . S
H397 C410 0.930 . S
H398 C411 0.930 . S
H399 C415 0.959 . S
H400 C415 0.959 . S
H401 C415 0.961 . S
H402 C416 0.960 . S
H403 C416 0.961 . S
H404 C416 0.959 . S
H405 C419 0.929 . S
H406 C420 0.931 . S
H407 C422 0.930 . S
C408 H396 0.930 . S
C408 C409 1.399 . S
C408 C413 1.399 . S
C409 C408 1.399 . S
C409 C410 1.376 . S
C410 H397 0.930 . S
C410 C409 1.376 . S
C410 C411 1.388 . S
C411 H398 0.930 . S
C411 C410 1.388 . S
C411 C412 1.390 . S
C412 C411 1.390 . S
C412 C413 1.394 . S
C412 C418 1.465 . S
C413 C408 1.399 . S
C413 C412 1.394 . S
C413 C414 1.516 . S
C414 C413 1.516 . S
C414 C415 1.502 . S
C414 C416 1.561 . S
C414 C417 1.526 . S
C415 H399 0.959 . S
C415 H400 0.959 . S
C415 H401 0.961 . S
C415 C414 1.502 . S
C416 H402 0.960 . S
C416 H403 0.961 . S
C416 H404 0.959 . S
C416 C414 1.561 . S
C417 C414 1.526 . S
C417 C418 1.396 . S
C417 C422 1.390 . S
C418 C412 1.465 . S
C418 C417 1.396 . S
C418 C419 1.399 . S
C419 H405 0.929 . S
C419 C418 1.399 . S
C419 C420 1.385 . S
C420 H406 0.931 . S
C420 C419 1.385 . S
C420 C421 1.389 . S
C421 C420 1.389 . S
C421 C422 1.387 . S
C422 H407 0.930 . S
C422 C417 1.390 . S
C422 C421 1.387 . S
H423 C435 0.930 . S
H424 C437 0.930 . S
H425 C438 0.930 . S
H426 C442 0.959 . S
H427 C442 0.959 . S
H428 C442 0.961 . S
H429 C443 0.960 . S
H430 C443 0.961 . S
H431 C443 0.959 . S
H432 C446 0.929 . S
H433 C447 0.931 . S
H434 C449 0.930 . S
C435 H423 0.930 . S
C435 C436 1.399 . S
C435 C440 1.399 . S
C436 C435 1.399 . S
C436 C437 1.376 . S
C437 H424 0.930 . S
C437 C436 1.376 . S
C437 C438 1.388 . S
C438 H425 0.930 . S
C438 C437 1.388 . S
C438 C439 1.390 . S
C439 C438 1.390 . S
C439 C440 1.394 . S
C439 C445 1.465 . S
C440 C435 1.399 . S
C440 C439 1.394 . S
C440 C441 1.516 . S
C441 C440 1.516 . S
C441 C442 1.502 . S
C441 C443 1.561 . S
C441 C444 1.526 . S
C442 H426 0.959 . S
C442 H427 0.959 . S
C442 H428 0.961 . S
C442 C441 1.502 . S
C443 H429 0.960 . S
C443 H430 0.961 . S
C443 H431 0.959 . S
C443 C441 1.561 . S
C444 C441 1.526 . S
C444 C445 1.396 . S
C444 C449 1.390 . S
C445 C439 1.465 . S
C445 C444 1.396 . S
C445 C446 1.399 . S
C446 H432 0.929 . S
C446 C445 1.399 . S
C446 C447 1.385 . S
C447 H433 0.931 . S
C447 C446 1.385 . S
C447 C448 1.389 . S
C448 C447 1.389 . S
C448 C449 1.387 . S
C449 H434 0.930 . S
C449 C444 1.390 . S
C449 C448 1.387 . S
H450 C462 0.930 . S
H451 C464 0.930 . S
H452 C465 0.930 . S
H453 C469 0.959 . S
H454 C469 0.959 . S
H455 C469 0.961 . S
H456 C470 0.960 . S
H457 C470 0.961 . S
H458 C470 0.959 . S
H459 C473 0.929 . S
H460 C474 0.931 . S
H461 C476 0.930 . S
C462 H450 0.930 . S
C462 C463 1.399 . S
C462 C467 1.399 . S
C463 C462 1.399 . S
C463 C464 1.376 . S
C464 H451 0.930 . S
C464 C463 1.376 . S
C464 C465 1.388 . S
C465 H452 0.930 . S
C465 C464 1.388 . S
C465 C466 1.390 . S
C466 C465 1.390 . S
C466 C467 1.394 . S
C466 C472 1.465 . S
C467 C462 1.399 . S
C467 C466 1.394 . S
C467 C468 1.516 . S
C468 C467 1.516 . S
C468 C469 1.502 . S
C468 C470 1.561 . S
C468 C471 1.526 . S
C469 H453 0.959 . S
C469 H454 0.959 . S
C469 H455 0.961 . S
C469 C468 1.502 . S
C470 H456 0.960 . S
C470 H457 0.961 . S
C470 H458 0.959 . S
C470 C468 1.561 . S
C471 C468 1.526 . S
C471 C472 1.396 . S
C471 C476 1.390 . S
C472 C466 1.465 . S
C472 C471 1.396 . S
C472 C473 1.399 . S
C473 H459 0.929 . S
C473 C472 1.399 . S
C473 C474 1.385 . S
C474 H460 0.931 . S
C474 C473 1.385 . S
C474 C475 1.389 . S
C475 C474 1.389 . S
C475 C476 1.387 . S
C476 H461 0.930 . S
C476 C471 1.390 . S
C476 C475 1.387 . S
H477 C489 0.930 . S
H478 C491 0.930 . S
H479 C492 0.930 . S
H480 C496 0.959 . S
H481 C496 0.959 . S
H482 C496 0.961 . S
H483 C497 0.960 . S
H484 C497 0.961 . S
H485 C497 0.959 . S
H486 C500 0.929 . S
H487 C501 0.931 . S
H488 C503 0.930 . S
C489 H477 0.930 . S
C489 C490 1.399 . S
C489 C494 1.399 . S
C490 C489 1.399 . S
C490 C491 1.376 . S
C491 H478 0.930 . S
C491 C490 1.376 . S
C491 C492 1.388 . S
C492 H479 0.930 . S
C492 C491 1.388 . S
C492 C493 1.390 . S
C493 C492 1.390 . S
C493 C494 1.394 . S
C493 C499 1.465 . S
C494 C489 1.399 . S
C494 C493 1.394 . S
C494 C495 1.516 . S
C495 C494 1.516 . S
C495 C496 1.502 . S
C495 C497 1.561 . S
C495 C498 1.526 . S
C496 H480 0.959 . S
C496 H481 0.959 . S
C496 H482 0.961 . S
C496 C495 1.502 . S
C497 H483 0.960 . S
C497 H484 0.961 . S
C497 H485 0.959 . S
C497 C495 1.561 . S
C498 C495 1.526 . S
C498 C499 1.396 . S
C498 C503 1.390 . S
C499 C493 1.465 . S
C499 C498 1.396 . S
C499 C500 1.399 . S
C500 H486 0.929 . S
C500 C499 1.399 . S
C500 C501 1.385 . S
C501 H487 0.931 . S
C501 C500 1.385 . S
C501 C502 1.389 . S
C502 C501 1.389 . S
C502 C503 1.387 . S
C503 H488 0.930 . S
C503 C498 1.390 . S
C503 C502 1.387 . S
H504 C516 0.930 . S
H505 C518 0.930 1_554 S
H506 C519 0.930 . S
H507 C523 0.959 . S
H508 C523 0.959 . S
H509 C523 0.961 . S
H510 C524 0.960 . S
H511 C524 0.961 . S
H512 C524 0.959 . S
H513 C527 0.929 . S
H514 C528 0.931 . S
H515 C530 0.930 . S
C516 H504 0.930 . S
C516 C517 1.399 . S
C516 C521 1.399 . S
C517 C516 1.399 . S
C517 C518 1.376 . S
C518 H505 0.930 1_556 S
C518 C517 1.376 . S
C518 C519 1.388 . S
C519 H506 0.930 . S
C519 C518 1.388 . S
C519 C520 1.390 . S
C520 C519 1.390 . S
C520 C521 1.394 . S
C520 C526 1.465 . S
C521 C516 1.399 . S
C521 C520 1.394 . S
C521 C522 1.516 . S
C522 C521 1.516 . S
C522 C523 1.502 . S
C522 C524 1.561 . S
C522 C525 1.526 . S
C523 H507 0.959 . S
C523 H508 0.959 . S
C523 H509 0.961 . S
C523 C522 1.502 . S
C524 H510 0.960 . S
C524 H511 0.961 . S
C524 H512 0.959 . S
C524 C522 1.561 . S
C525 C522 1.526 . S
C525 C526 1.396 . S
C525 C530 1.390 . S
C526 C520 1.465 . S
C526 C525 1.396 . S
C526 C527 1.399 . S
C527 H513 0.929 . S
C527 C526 1.399 . S
C527 C528 1.385 . S
C528 H514 0.931 . S
C528 C527 1.385 . S
C528 C529 1.389 . S
C529 C528 1.389 . S
C529 C530 1.387 . S
C530 H515 0.930 . S
C530 C525 1.390 . S
C530 C529 1.387 . S
H531 C543 0.930 . S
H532 C545 0.930 . S
H533 C546 0.930 . S
H534 C550 0.959 . S
H535 C550 0.959 . S
H536 C550 0.961 . S
H537 C551 0.960 . S
H538 C551 0.961 . S
H539 C551 0.959 . S
H540 C554 0.929 . S
H541 C555 0.931 . S
H542 C557 0.930 . S
C543 H531 0.930 . S
C543 C544 1.399 . S
C543 C548 1.399 . S
C544 C543 1.399 . S
C544 C545 1.376 . S
C545 H532 0.930 . S
C545 C544 1.376 . S
C545 C546 1.388 . S
C546 H533 0.930 . S
C546 C545 1.388 . S
C546 C547 1.390 . S
C547 C546 1.390 . S
C547 C548 1.394 . S
C547 C553 1.465 . S
C548 C543 1.399 . S
C548 C547 1.394 . S
C548 C549 1.516 . S
C549 C548 1.516 . S
C549 C550 1.502 . S
C549 C551 1.561 . S
C549 C552 1.526 . S
C550 H534 0.959 . S
C550 H535 0.959 . S
C550 H536 0.961 . S
C550 C549 1.502 . S
C551 H537 0.960 . S
C551 H538 0.961 . S
C551 H539 0.959 . S
C551 C549 1.561 . S
C552 C549 1.526 . S
C552 C553 1.396 . S
C552 C557 1.390 . S
C553 C547 1.465 . S
C553 C552 1.396 . S
C553 C554 1.399 . S
C554 H540 0.929 . S
C554 C553 1.399 . S
C554 C555 1.385 . S
C555 H541 0.931 . S
C555 C554 1.385 . S
C555 C556 1.389 . S
C556 C555 1.389 . S
C556 C557 1.387 . S
C557 H542 0.930 . S
C557 C552 1.390 . S
C557 C556 1.387 . S
H558 C570 0.930 . S
H559 C572 0.930 . S
H560 C573 0.930 . S
H561 C577 0.959 . S
H562 C577 0.959 . S
H563 C577 0.961 . S
H564 C578 0.960 . S
H565 C578 0.961 . S
H566 C578 0.959 . S
H567 C581 0.929 . S
H568 C582 0.931 . S
H569 C584 0.930 . S
C570 H558 0.930 . S
C570 C571 1.399 . S
C570 C575 1.399 . S
C571 C570 1.399 . S
C571 C572 1.376 . S
C572 H559 0.930 . S
C572 C571 1.376 . S
C572 C573 1.388 . S
C573 H560 0.930 . S
C573 C572 1.388 . S
C573 C574 1.390 . S
C574 C573 1.390 . S
C574 C575 1.394 . S
C574 C580 1.465 . S
C575 C570 1.399 . S
C575 C574 1.394 . S
C575 C576 1.516 . S
C576 C575 1.516 . S
C576 C577 1.502 . S
C576 C578 1.561 . S
C576 C579 1.526 . S
C577 H561 0.959 . S
C577 H562 0.959 . S
C577 H563 0.961 . S
C577 C576 1.502 . S
C578 H564 0.960 . S
C578 H565 0.961 . S
C578 H566 0.959 . S
C578 C576 1.561 . S
C579 C576 1.526 . S
C579 C580 1.396 . S
C579 C584 1.390 . S
C580 C574 1.465 . S
C580 C579 1.396 . S
C580 C581 1.399 . S
C581 H567 0.929 . S
C581 C580 1.399 . S
C581 C582 1.385 . S
C582 H568 0.931 . S
C582 C581 1.385 . S
C582 C583 1.389 . S
C583 C582 1.389 . S
C583 C584 1.387 . S
C584 H569 0.930 . S
C584 C579 1.390 . S
C584 C583 1.387 . S
H585 C597 0.930 . S
H586 C599 0.930 . S
H587 C600 0.930 . S
H588 C604 0.959 . S
H589 C604 0.959 . S
H590 C604 0.961 . S
H591 C605 0.960 . S
H592 C605 0.961 . S
H593 C605 0.959 . S
H594 C608 0.929 . S
H595 C609 0.931 . S
H596 C611 0.930 . S
C597 H585 0.930 . S
C597 C598 1.399 . S
C597 C602 1.399 . S
C598 C597 1.399 . S
C598 C599 1.376 . S
C599 H586 0.930 . S
C599 C598 1.376 . S
C599 C600 1.388 . S
C600 H587 0.930 . S
C600 C599 1.388 . S
C600 C601 1.390 . S
C601 C600 1.390 . S
C601 C602 1.394 . S
C601 C607 1.465 . S
C602 C597 1.399 . S
C602 C601 1.394 . S
C602 C603 1.516 . S
C603 C602 1.516 . S
C603 C604 1.502 . S
C603 C605 1.561 . S
C603 C606 1.526 . S
C604 H588 0.959 . S
C604 H589 0.959 . S
C604 H590 0.961 . S
C604 C603 1.502 . S
C605 H591 0.960 . S
C605 H592 0.961 . S
C605 H593 0.959 . S
C605 C603 1.561 . S
C606 C603 1.526 . S
C606 C607 1.396 . S
C606 C611 1.390 . S
C607 C601 1.465 . S
C607 C606 1.396 . S
C607 C608 1.399 . S
C608 H594 0.929 . S
C608 C607 1.399 . S
C608 C609 1.385 . S
C609 H595 0.931 . S
C609 C608 1.385 . S
C609 C610 1.389 . S
C610 C609 1.389 . S
C610 C611 1.387 . S
C611 H596 0.930 . S
C611 C606 1.390 . S
C611 C610 1.387 . S
H612 C624 0.930 . S
H613 C626 0.930 . S
H614 C627 0.930 . S
H615 C631 0.959 . S
H616 C631 0.959 . S
H617 C631 0.961 . S
H618 C632 0.960 . S
H619 C632 0.961 . S
H620 C632 0.959 . S
H621 C635 0.929 . S
H622 C636 0.931 . S
H623 C638 0.930 . S
C624 H612 0.930 . S
C624 C625 1.399 . S
C624 C629 1.399 . S
C625 C624 1.399 . S
C625 C626 1.376 . S
C626 H613 0.930 . S
C626 C625 1.376 . S
C626 C627 1.388 . S
C627 H614 0.930 . S
C627 C626 1.388 . S
C627 C628 1.390 . S
C628 C627 1.390 . S
C628 C629 1.394 . S
C628 C634 1.465 . S
C629 C624 1.399 . S
C629 C628 1.394 . S
C629 C630 1.516 . S
C630 C629 1.516 . S
C630 C631 1.502 . S
C630 C632 1.561 . S
C630 C633 1.526 . S
C631 H615 0.959 . S
C631 H616 0.959 . S
C631 H617 0.961 . S
C631 C630 1.502 . S
C632 H618 0.960 . S
C632 H619 0.961 . S
C632 H620 0.959 . S
C632 C630 1.561 . S
C633 C630 1.526 . S
C633 C634 1.396 . S
C633 C638 1.390 . S
C634 C628 1.465 . S
C634 C633 1.396 . S
C634 C635 1.399 . S
C635 H621 0.929 . S
C635 C634 1.399 . S
C635 C636 1.385 . S
C636 H622 0.931 . S
C636 C635 1.385 . S
C636 C637 1.389 . S
C637 C636 1.389 . S
C637 C638 1.387 . S
C638 H623 0.930 . S
C638 C633 1.390 . S
C638 C637 1.387 . S
H639 C651 0.930 . S
H640 C653 0.930 . S
H641 C654 0.930 . S
H642 C658 0.959 . S
H643 C658 0.959 . S
H644 C658 0.961 . S
H645 C659 0.960 . S
H646 C659 0.961 . S
H647 C659 0.959 . S
H648 C662 0.929 . S
H649 C663 0.931 . S
H650 C665 0.930 . S
C651 H639 0.930 . S
C651 C652 1.399 . S
C651 C656 1.399 . S
C652 C651 1.399 . S
C652 C653 1.376 . S
C653 H640 0.930 . S
C653 C652 1.376 . S
C653 C654 1.388 . S
C654 H641 0.930 . S
C654 C653 1.388 . S
C654 C655 1.390 . S
C655 C654 1.390 . S
C655 C656 1.394 . S
C655 C661 1.465 . S
C656 C651 1.399 . S
C656 C655 1.394 . S
C656 C657 1.516 . S
C657 C656 1.516 . S
C657 C658 1.502 . S
C657 C659 1.561 . S
C657 C660 1.526 . S
C658 H642 0.959 . S
C658 H643 0.959 . S
C658 H644 0.961 . S
C658 C657 1.502 . S
C659 H645 0.960 . S
C659 H646 0.961 . S
C659 H647 0.959 . S
C659 C657 1.561 . S
C660 C657 1.526 . S
C660 C661 1.396 . S
C660 C665 1.390 . S
C661 C655 1.465 . S
C661 C660 1.396 . S
C661 C662 1.399 . S
C662 H648 0.929 . S
C662 C661 1.399 . S
C662 C663 1.385 . S
C663 H649 0.931 . S
C663 C662 1.385 . S
C663 C664 1.389 . S
C664 C663 1.389 . S
C664 C665 1.387 . S
C665 H650 0.930 . S
C665 C660 1.390 . S
C665 C664 1.387 . S
H666 C678 0.930 . S
H667 C680 0.930 . S
H668 C681 0.930 . S
H669 C685 0.959 . S
H670 C685 0.959 . S
H671 C685 0.961 . S
H672 C686 0.960 . S
H673 C686 0.961 . S
H674 C686 0.959 . S
H675 C689 0.929 . S
H676 C690 0.931 1_556 S
H677 C692 0.930 . S
C678 H666 0.930 . S
C678 C679 1.399 . S
C678 C683 1.399 . S
C679 C678 1.399 . S
C679 C680 1.376 . S
C680 H667 0.930 . S
C680 C679 1.376 . S
C680 C681 1.388 . S
C681 H668 0.930 . S
C681 C680 1.388 . S
C681 C682 1.390 . S
C682 C681 1.390 . S
C682 C683 1.394 . S
C682 C688 1.465 . S
C683 C678 1.399 . S
C683 C682 1.394 . S
C683 C684 1.516 . S
C684 C683 1.516 . S
C684 C685 1.502 . S
C684 C686 1.561 . S
C684 C687 1.526 . S
C685 H669 0.959 . S
C685 H670 0.959 . S
C685 H671 0.961 . S
C685 C684 1.502 . S
C686 H672 0.960 . S
C686 H673 0.961 . S
C686 H674 0.959 . S
C686 C684 1.561 . S
C687 C684 1.526 . S
C687 C688 1.396 . S
C687 C692 1.390 . S
C688 C682 1.465 . S
C688 C687 1.396 . S
C688 C689 1.399 . S
C689 H675 0.929 . S
C689 C688 1.399 . S
C689 C690 1.385 . S
C690 H676 0.931 1_554 S
C690 C689 1.385 . S
C690 C691 1.389 . S
C691 C690 1.389 . S
C691 C692 1.387 . S
C692 H677 0.930 . S
C692 C687 1.390 . S
C692 C691 1.387 . S
H693 C705 0.930 . S
H694 C707 0.930 . S
H695 C708 0.930 . S
H696 C712 0.959 . S
H697 C712 0.959 . S
H698 C712 0.961 . S
H699 C713 0.960 . S
H700 C713 0.961 . S
H701 C713 0.959 . S
H702 C716 0.929 . S
H703 C717 0.938 . S
H704 C719 0.930 . S
C705 H693 0.930 . S
C705 C706 1.399 . S
C705 C710 1.399 . S
C706 C705 1.399 . S
C706 C707 1.376 . S
C707 H694 0.930 . S
C707 C706 1.376 . S
C707 C708 1.388 . S
C708 H695 0.930 . S
C708 C707 1.388 . S
C708 C709 1.390 . S
C709 C708 1.390 . S
C709 C710 1.394 . S
C709 C715 1.465 . S
C710 C705 1.399 . S
C710 C709 1.394 . S
C710 C711 1.516 . S
C711 C710 1.516 . S
C711 C712 1.502 . S
C711 C713 1.561 . S
C711 C714 1.526 . S
C712 H696 0.959 . S
C712 H697 0.959 . S
C712 H698 0.961 . S
C712 C711 1.502 . S
C713 H699 0.960 . S
C713 H700 0.961 . S
C713 H701 0.959 . S
C713 C711 1.561 . S
C714 C711 1.526 . S
C714 C715 1.396 . S
C714 C719 1.390 . S
C715 C709 1.465 . S
C715 C714 1.396 . S
C715 C716 1.399 . S
C716 H702 0.929 . S
C716 C715 1.399 . S
C716 C717 1.385 . S
C717 H703 0.938 . S
C717 C716 1.385 . S
C717 C718 1.389 . S
C718 C717 1.389 . S
C718 C719 1.387 . S
C719 H704 0.930 . S
C719 C714 1.390 . S
C719 C718 1.387 . S
H720 C732 0.930 . S
H721 C734 0.930 . S
H722 C735 0.930 . S
H723 C739 0.959 . S
H724 C739 0.959 . S
H725 C739 0.961 . S
H726 C740 0.960 . S
H727 C740 0.961 . S
H728 C740 0.959 . S
H729 C743 0.929 . S
H730 C744 0.931 . S
H731 C746 0.930 . S
C732 H720 0.930 . S
C732 C733 1.399 . S
C732 C737 1.399 . S
C733 C732 1.399 . S
C733 C734 1.376 . S
C734 H721 0.930 . S
C734 C733 1.376 . S
C734 C735 1.388 . S
C735 H722 0.930 . S
C735 C734 1.388 . S
C735 C736 1.390 . S
C736 C735 1.390 . S
C736 C737 1.394 . S
C736 C742 1.465 . S
C737 C732 1.399 . S
C737 C736 1.394 . S
C737 C738 1.516 . S
C738 C737 1.516 . S
C738 C739 1.502 . S
C738 C740 1.561 . S
C738 C741 1.526 . S
C739 H723 0.959 . S
C739 H724 0.959 . S
C739 H725 0.961 . S
C739 C738 1.502 . S
C740 H726 0.960 . S
C740 H727 0.961 . S
C740 H728 0.959 . S
C740 C738 1.561 . S
C741 C738 1.526 . S
C741 C742 1.396 . S
C741 C746 1.390 . S
C742 C736 1.465 . S
C742 C741 1.396 . S
C742 C743 1.399 . S
C743 H729 0.929 . S
C743 C742 1.399 . S
C743 C744 1.385 . S
C744 H730 0.931 . S
C744 C743 1.385 . S
C744 C745 1.389 . S
C745 C744 1.389 . S
C745 C746 1.387 . S
C746 H731 0.930 . S
C746 C741 1.390 . S
C746 C745 1.387 . S
H747 C759 0.930 . S
H748 C761 0.930 . S
H749 C762 0.930 . S
H750 C766 0.959 . S
H751 C766 0.959 . S
H752 C766 0.961 . S
H753 C767 0.960 . S
H754 C767 0.961 . S
H755 C767 0.959 . S
H756 C770 0.929 . S
H757 C771 0.931 . S
H758 C773 0.930 . S
C759 H747 0.930 . S
C759 C760 1.399 . S
C759 C764 1.399 . S
C760 C759 1.399 . S
C760 C761 1.376 . S
C761 H748 0.930 . S
C761 C760 1.376 . S
C761 C762 1.388 . S
C762 H749 0.930 . S
C762 C761 1.388 . S
C762 C763 1.390 . S
C763 C762 1.390 . S
C763 C764 1.394 . S
C763 C769 1.465 . S
C764 C759 1.399 . S
C764 C763 1.394 . S
C764 C765 1.516 . S
C765 C764 1.516 . S
C765 C766 1.502 . S
C765 C767 1.561 . S
C765 C768 1.526 . S
C766 H750 0.959 . S
C766 H751 0.959 . S
C766 H752 0.961 . S
C766 C765 1.502 . S
C767 H753 0.960 . S
C767 H754 0.961 . S
C767 H755 0.959 . S
C767 C765 1.561 . S
C768 C765 1.526 . S
C768 C769 1.396 . S
C768 C773 1.390 . S
C769 C763 1.465 . S
C769 C768 1.396 . S
C769 C770 1.399 . S
C770 H756 0.929 . S
C770 C769 1.399 . S
C770 C771 1.385 . S
C771 H757 0.931 . S
C771 C770 1.385 . S
C771 C772 1.389 . S
C772 C771 1.389 . S
C772 C773 1.387 . S
C773 H758 0.930 . S
C773 C768 1.390 . S
C773 C772 1.387 . S
H774 C786 0.930 1_565 S
H775 C788 0.930 . S
H776 C789 0.930 . S
H777 C793 0.959 1_545 S
H778 C793 0.959 . S
H779 C793 0.961 . S
H780 C794 0.960 1_565 S
H781 C794 0.961 . S
H782 C794 0.959 . S
H783 C797 0.929 . S
H784 C798 0.931 . S
H785 C800 0.930 . S
C786 H774 0.930 1_545 S
C786 C787 1.399 . S
C786 C791 1.399 . S
C787 C786 1.399 . S
C787 C788 1.376 . S
C788 H775 0.930 . S
C788 C787 1.376 . S
C788 C789 1.388 . S
C789 H776 0.930 . S
C789 C788 1.388 . S
C789 C790 1.390 . S
C790 C789 1.390 . S
C790 C791 1.394 . S
C790 C796 1.465 . S
C791 C786 1.399 . S
C791 C790 1.394 . S
C791 C792 1.516 . S
C792 C791 1.516 . S
C792 C793 1.502 1_545 S
C792 C794 1.561 . S
C792 C795 1.526 . S
C793 H777 0.959 1_565 S
C793 H778 0.959 . S
C793 H779 0.961 . S
C793 C792 1.502 1_565 S
C794 H780 0.960 1_545 S
C794 H781 0.961 . S
C794 H782 0.959 . S
C794 C792 1.561 . S
C795 C792 1.526 . S
C795 C796 1.396 . S
C795 C800 1.390 . S
C796 C790 1.465 . S
C796 C795 1.396 . S
C796 C797 1.399 . S
C797 H783 0.929 . S
C797 C796 1.399 . S
C797 C798 1.385 . S
C798 H784 0.931 . S
C798 C797 1.385 . S
C798 C799 1.389 . S
C799 C798 1.389 . S
C799 C800 1.387 . S
C800 H785 0.930 . S
C800 C795 1.390 . S
C800 C799 1.387 . S
H801 C813 0.930 . S
H802 C815 0.930 . S
H803 C816 0.930 . S
H804 C820 0.959 . S
H805 C820 0.959 . S
H806 C820 0.961 1_554 S
H807 C821 0.960 . S
H808 C821 0.961 . S
H809 C821 0.959 . S
H810 C824 0.929 . S
H811 C825 0.931 . S
H812 C827 0.930 1_556 S
C813 H801 0.930 . S
C813 C814 1.399 . S
C813 C818 1.399 . S
C814 C813 1.399 . S
C814 C815 1.376 . S
C815 H802 0.930 . S
C815 C814 1.376 . S
C815 C816 1.388 . S
C816 H803 0.930 . S
C816 C815 1.388 . S
C816 C817 1.390 . S
C817 C816 1.390 . S
C817 C818 1.394 . S
C817 C823 1.465 . S
C818 C813 1.399 . S
C818 C817 1.394 . S
C818 C819 1.516 . S
C819 C818 1.516 . S
C819 C820 1.502 1_554 S
C819 C821 1.561 . S
C819 C822 1.526 . S
C820 H804 0.959 . S
C820 H805 0.959 . S
C820 H806 0.961 1_556 S
C820 C819 1.502 1_556 S
C821 H807 0.960 . S
C821 H808 0.961 . S
C821 H809 0.959 . S
C821 C819 1.561 . S
C822 C819 1.526 . S
C822 C823 1.396 . S
C822 C827 1.390 . S
C823 C817 1.465 . S
C823 C822 1.396 . S
C823 C824 1.399 . S
C824 H810 0.929 . S
C824 C823 1.399 . S
C824 C825 1.385 . S
C825 H811 0.931 . S
C825 C824 1.385 . S
C825 C826 1.389 . S
C826 C825 1.389 . S
C826 C827 1.387 . S
C827 H812 0.930 1_554 S
C827 C822 1.390 . S
C827 C826 1.387 . S
H828 C840 0.930 . S
H829 C842 0.930 1_655 S
H830 C843 0.930 . S
H831 C847 0.959 . S
H832 C847 0.959 . S
H833 C847 0.961 . S
H834 C848 0.960 . S
H835 C848 0.961 . S
H836 C848 0.959 . S
H837 C851 0.929 . S
H838 C852 0.931 . S
H839 C854 0.930 . S
C840 H828 0.930 . S
C840 C841 1.399 1_554 S
C840 C845 1.399 . S
C841 C840 1.399 1_556 S
C841 C842 1.376 . S
C842 H829 0.930 1_455 S
C842 C841 1.376 . S
C842 C843 1.388 . S
C843 H830 0.930 . S
C843 C842 1.388 . S
C843 C844 1.390 1_556 S
C844 C843 1.390 1_554 S
C844 C845 1.394 . S
C844 C850 1.465 . S
C845 C840 1.399 . S
C845 C844 1.394 . S
C845 C846 1.516 . S
C846 C845 1.516 . S
C846 C847 1.502 . S
C846 C848 1.561 . S
C846 C849 1.526 . S
C847 H831 0.959 . S
C847 H832 0.959 . S
C847 H833 0.961 . S
C847 C846 1.502 . S
C848 H834 0.960 . S
C848 H835 0.961 . S
C848 H836 0.959 . S
C848 C846 1.561 . S
C849 C846 1.526 . S
C849 C850 1.396 . S
C849 C854 1.390 . S
C850 C844 1.465 . S
C850 C849 1.396 . S
C850 C851 1.399 . S
C851 H837 0.929 . S
C851 C850 1.399 . S
C851 C852 1.385 . S
C852 H838 0.931 . S
C852 C851 1.385 . S
C852 C853 1.389 . S
C853 C852 1.389 . S
C853 C854 1.387 . S
C854 H839 0.930 . S
C854 C849 1.390 . S
C854 C853 1.387 . S
H855 C867 0.930 . S
H856 C869 0.930 . S
H857 C870 0.930 . S
H858 C874 0.959 . S
H859 C874 0.959 . S
H860 C874 0.961 . S
H861 C875 0.960 . S
H862 C875 0.961 . S
H863 C875 0.959 . S
H864 C878 0.929 . S
H865 C879 0.931 . S
H866 C881 0.930 . S
C867 H855 0.930 . S
C867 C868 1.399 1_554 S
C867 C872 1.399 . S
C868 C867 1.399 1_556 S
C868 C869 1.376 . S
C869 H856 0.930 . S
C869 C868 1.376 . S
C869 C870 1.388 . S
C870 H857 0.930 . S
C870 C869 1.388 . S
C870 C871 1.390 1_556 S
C871 C870 1.390 1_554 S
C871 C872 1.394 . S
C871 C877 1.465 . S
C872 C867 1.399 . S
C872 C871 1.394 . S
C872 C873 1.516 . S
C873 C872 1.516 . S
C873 C874 1.502 . S
C873 C875 1.561 . S
C873 C876 1.526 . S
C874 H858 0.959 . S
C874 H859 0.959 . S
C874 H860 0.961 . S
C874 C873 1.502 . S
C875 H861 0.960 . S
C875 H862 0.961 . S
C875 H863 0.959 . S
C875 C873 1.561 . S
C876 C873 1.526 . S
C876 C877 1.396 . S
C876 C881 1.390 . S
C877 C871 1.465 . S
C877 C876 1.396 . S
C877 C878 1.399 . S
C878 H864 0.929 . S
C878 C877 1.399 . S
C878 C879 1.385 . S
C879 H865 0.931 . S
C879 C878 1.385 . S
C879 C880 1.389 . S
C880 C879 1.389 . S
C880 C881 1.387 . S
C881 H866 0.930 . S
C881 C876 1.390 . S
C881 C880 1.387 . S
H882 C894 0.930 1_655 S
H883 C896 0.930 . S
H884 C897 0.930 . S
H885 C901 0.959 . S
H886 C901 0.959 . S
H887 C901 0.961 . S
H888 C902 0.954 1_655 S
H889 C902 0.961 . S
H890 C902 0.959 . S
H891 C905 0.929 . S
H892 C906 0.931 . S
H893 C908 0.930 . S
C894 H882 0.930 1_455 S
C894 C895 1.399 . S
C894 C899 1.399 . S
C895 C894 1.399 . S
C895 C896 1.376 . S
C896 H883 0.930 . S
C896 C895 1.376 . S
C896 C897 1.388 . S
C897 H884 0.930 . S
C897 C896 1.388 . S
C897 C898 1.390 . S
C898 C897 1.390 . S
C898 C899 1.394 . S
C898 C904 1.465 . S
C899 C894 1.399 . S
C899 C898 1.394 . S
C899 C900 1.516 . S
C900 C899 1.516 . S
C900 C901 1.502 1_455 S
C900 C902 1.561 . S
C900 C903 1.526 . S
C901 H885 0.959 . S
C901 H886 0.959 . S
C901 H887 0.961 . S
C901 C900 1.502 1_655 S
C902 H888 0.954 1_455 S
C902 H889 0.961 . S
C902 H890 0.959 . S
C902 C900 1.561 . S
C903 C900 1.526 . S
C903 C904 1.396 . S
C903 C908 1.390 . S
C904 C898 1.465 . S
C904 C903 1.396 . S
C904 C905 1.399 . S
C905 H891 0.929 . S
C905 C904 1.399 . S
C905 C906 1.385 . S
C906 H892 0.931 . S
C906 C905 1.385 . S
C906 C907 1.389 . S
C907 C906 1.389 . S
C907 C908 1.387 . S
C908 H893 0.930 . S
C908 C903 1.390 . S
C908 C907 1.387 . S
H909 C921 0.930 . S
H910 C923 0.930 . S
H911 C924 0.930 . S
H912 C928 0.959 . S
H913 C928 0.959 . S
H914 C928 0.961 . S
H915 C929 0.960 . S
H916 C929 0.961 . S
H917 C929 0.959 . S
H918 C932 0.929 . S
H919 C933 0.931 . S
H920 C935 0.930 . S
C921 H909 0.930 . S
C921 C922 1.399 . S
C921 C926 1.399 . S
C922 C921 1.399 . S
C922 C923 1.376 . S
C923 H910 0.930 . S
C923 C922 1.376 . S
C923 C924 1.388 . S
C924 H911 0.930 . S
C924 C923 1.388 . S
C924 C925 1.390 . S
C925 C924 1.390 . S
C925 C926 1.394 . S
C925 C931 1.465 . S
C926 C921 1.399 . S
C926 C925 1.394 . S
C926 C927 1.516 . S
C927 C926 1.516 . S
C927 C928 1.502 . S
C927 C929 1.561 . S
C927 C930 1.526 . S
C928 H912 0.959 . S
C928 H913 0.959 . S
C928 H914 0.961 . S
C928 C927 1.502 . S
C929 H915 0.960 . S
C929 H916 0.961 . S
C929 H917 0.959 . S
C929 C927 1.561 . S
C930 C927 1.526 . S
C930 C931 1.396 . S
C930 C935 1.390 . S
C931 C925 1.465 . S
C931 C930 1.396 . S
C931 C932 1.399 . S
C932 H918 0.929 . S
C932 C931 1.399 . S
C932 C933 1.385 . S
C933 H919 0.931 . S
C933 C932 1.385 . S
C933 C934 1.389 . S
C934 C933 1.389 . S
C934 C935 1.387 . S
C935 H920 0.930 . S
C935 C930 1.390 . S
C935 C934 1.387 . S
H936 C948 0.930 . S
H937 C950 0.930 . S
H938 C951 0.930 . S
H939 C955 0.959 . S
H940 C955 0.959 . S
H941 C955 0.961 . S
H942 C956 0.960 . S
H943 C956 0.961 . S
H944 C956 0.959 . S
H945 C959 0.929 . S
H946 C960 0.931 . S
H947 C962 0.930 . S
C948 H936 0.930 . S
C948 C949 1.399 . S
C948 C953 1.399 . S
C949 C948 1.399 . S
C949 C950 1.376 . S
C950 H937 0.930 . S
C950 C949 1.376 . S
C950 C951 1.388 . S
C951 H938 0.930 . S
C951 C950 1.388 . S
C951 C952 1.390 . S
C952 C951 1.390 . S
C952 C953 1.394 . S
C952 C958 1.465 . S
C953 C948 1.399 . S
C953 C952 1.394 . S
C953 C954 1.516 . S
C954 C953 1.516 . S
C954 C955 1.502 . S
C954 C956 1.561 . S
C954 C957 1.526 . S
C955 H939 0.959 . S
C955 H940 0.959 . S
C955 H941 0.961 . S
C955 C954 1.502 . S
C956 H942 0.960 . S
C956 H943 0.961 . S
C956 H944 0.959 . S
C956 C954 1.561 . S
C957 C954 1.526 . S
C957 C958 1.396 . S
C957 C962 1.390 . S
C958 C952 1.465 . S
C958 C957 1.396 . S
C958 C959 1.399 . S
C959 H945 0.929 . S
C959 C958 1.399 . S
C959 C960 1.385 . S
C960 H946 0.931 . S
C960 C959 1.385 . S
C960 C961 1.389 . S
C961 C960 1.389 . S
C961 C962 1.387 . S
C962 H947 0.930 . S
C962 C957 1.390 . S
C962 C961 1.387 . S
H963 C975 0.930 . S
H964 C977 0.930 . S
H965 C978 0.950 . S
H966 C982 0.959 . S
H967 C982 0.959 . S
H968 C982 0.961 . S
H969 C983 0.960 . S
H970 C983 0.961 . S
H971 C983 0.959 . S
H972 C986 0.929 . S
H973 C987 0.931 . S
H974 C989 0.930 . S
C975 H963 0.930 . S
C975 C976 1.400 . S
C975 C980 1.399 1_554 S
C976 C975 1.400 . S
C976 C977 1.368 1_544 S
C977 H964 0.930 . S
C977 C976 1.368 1_566 S
C977 C978 1.384 . S
C978 H965 0.950 . S
C978 C977 1.384 . S
C978 C979 1.375 1_565 S
C979 C978 1.375 1_545 S
C979 C980 1.394 . S
C979 C985 1.465 . S
C980 C975 1.399 1_556 S
C980 C979 1.394 . S
C980 C981 1.516 . S
C981 C980 1.516 . S
C981 C982 1.502 . S
C981 C983 1.561 1_556 S
C981 C984 1.526 . S
C982 H966 0.959 . S
C982 H967 0.959 . S
C982 H968 0.961 . S
C982 C981 1.502 . S
C983 H969 0.960 . S
C983 H970 0.961 . S
C983 H971 0.959 . S
C983 C981 1.561 1_554 S
C984 C981 1.526 . S
C984 C985 1.396 . S
C984 C989 1.390 . S
C985 C979 1.465 . S
C985 C984 1.396 . S
C985 C986 1.399 . S
C986 H972 0.929 . S
C986 C985 1.399 . S
C986 C987 1.385 . S
C987 H973 0.931 . S
C987 C986 1.385 . S
C987 C988 1.389 . S
C988 C987 1.389 . S
C988 C989 1.387 . S
C989 H974 0.930 . S
C989 C984 1.390 . S
C989 C988 1.387 . S
H990 C1002 0.930 . S
H991 C1004 0.930 . S
H992 C1005 0.930 . S
H993 C1009 0.959 . S
H994 C1009 0.959 . S
H995 C1009 0.961 . S
H996 C1010 0.960 . S
H997 C1010 0.961 . S
H998 C1010 0.959 . S
H999 C1013 0.929 . S
H1000 C1014 0.931 . S
H1001 C1016 0.930 . S
C1002 H990 0.930 . S
C1002 C1003 1.399 . S
C1002 C1007 1.399 . S
C1003 C1002 1.399 . S
C1003 C1004 1.376 . S
C1004 H991 0.930 . S
C1004 C1003 1.376 . S
C1004 C1005 1.388 . S
C1005 H992 0.930 . S
C1005 C1004 1.388 . S
C1005 C1006 1.390 . S
C1006 C1005 1.390 . S
C1006 C1007 1.394 . S
C1006 C1012 1.465 . S
C1007 C1002 1.399 . S
C1007 C1006 1.394 . S
C1007 C1008 1.516 . S
C1008 C1007 1.516 . S
C1008 C1009 1.502 . S
C1008 C1010 1.561 . S
C1008 C1011 1.526 . S
C1009 H993 0.959 . S
C1009 H994 0.959 . S
C1009 H995 0.961 . S
C1009 C1008 1.502 . S
C1010 H996 0.960 . S
C1010 H997 0.961 . S
C1010 H998 0.959 . S
C1010 C1008 1.561 . S
C1011 C1008 1.526 . S
C1011 C1012 1.396 . S
C1011 C1016 1.390 . S
C1012 C1006 1.465 . S
C1012 C1011 1.396 . S
C1012 C1013 1.399 1_556 S
C1013 H999 0.929 . S
C1013 C1012 1.399 1_554 S
C1013 C1014 1.385 . S
C1014 H1000 0.931 . S
C1014 C1013 1.385 . S
C1014 C1015 1.389 . S
C1015 C1014 1.389 . S
C1015 C1016 1.387 1_554 S
C1016 H1001 0.930 . S
C1016 C1011 1.390 . S
C1016 C1015 1.387 1_556 S
H1017 C1029 0.930 . S
H1018 C1031 0.930 . S
H1019 C1032 0.930 . S
H1020 C1036 0.966 . S
H1021 C1036 0.959 . S
H1022 C1036 0.961 . S
H1023 C1037 0.960 . S
H1024 C1037 0.961 . S
H1025 C1037 0.959 . S
H1026 C1040 0.929 . S
H1027 C1041 0.931 . S
H1028 C1043 0.930 . S
C1029 H1017 0.930 . S
C1029 C1030 1.399 . S
C1029 C1034 1.399 . S
C1030 C1029 1.399 . S
C1030 C1031 1.376 . S
C1031 H1018 0.930 . S
C1031 C1030 1.376 . S
C1031 C1032 1.388 . S
C1032 H1019 0.930 . S
C1032 C1031 1.388 . S
C1032 C1033 1.390 . S
C1033 C1032 1.390 . S
C1033 C1034 1.394 . S
C1033 C1039 1.465 . S
C1034 C1029 1.399 . S
C1034 C1033 1.394 . S
C1034 C1035 1.516 . S
C1035 C1034 1.516 . S
C1035 C1036 1.502 1_556 S
C1035 C1037 1.561 1_556 S
C1035 C1038 1.526 . S
C1036 H1020 0.966 . S
C1036 H1021 0.959 . S
C1036 H1022 0.961 . S
C1036 C1035 1.502 1_554 S
C1037 H1023 0.960 . S
C1037 H1024 0.961 . S
C1037 H1025 0.959 . S
C1037 C1035 1.561 1_554 S
C1038 C1035 1.526 . S
C1038 C1039 1.396 . S
C1038 C1043 1.390 1_556 S
C1039 C1033 1.465 . S
C1039 C1038 1.396 . S
C1039 C1040 1.399 . S
C1040 H1026 0.929 . S
C1040 C1039 1.399 . S
C1040 C1041 1.385 . S
C1041 H1027 0.931 . S
C1041 C1040 1.385 . S
C1041 C1042 1.389 . S
C1042 C1041 1.389 . S
C1042 C1043 1.387 1_556 S
C1043 H1028 0.930 . S
C1043 C1038 1.390 1_554 S
C1043 C1042 1.387 1_554 S
H1044 C1056 0.930 . S
H1045 C1058 0.930 . S
H1046 C1059 0.930 . S
H1047 C1063 0.959 . S
H1048 C1063 0.959 . S
H1049 C1063 0.961 . S
H1050 C1064 0.960 . S
H1051 C1064 0.961 . S
H1052 C1064 0.959 . S
H1053 C1067 0.929 . S
H1054 C1068 0.931 . S
H1055 C1070 0.930 . S
C1056 H1044 0.930 . S
C1056 C1057 1.399 . S
C1056 C1061 1.399 . S
C1057 C1056 1.399 . S
C1057 C1058 1.376 . S
C1058 H1045 0.930 . S
C1058 C1057 1.376 . S
C1058 C1059 1.388 . S
C1059 H1046 0.930 . S
C1059 C1058 1.388 . S
C1059 C1060 1.390 . S
C1060 C1059 1.390 . S
C1060 C1061 1.394 . S
C1060 C1066 1.465 . S
C1061 C1056 1.399 . S
C1061 C1060 1.394 . S
C1061 C1062 1.516 . S
C1062 C1061 1.516 . S
C1062 C1063 1.502 . S
C1062 C1064 1.561 . S
C1062 C1065 1.526 . S
C1063 H1047 0.959 . S
C1063 H1048 0.959 . S
C1063 H1049 0.961 . S
C1063 C1062 1.502 . S
C1064 H1050 0.960 . S
C1064 H1051 0.961 . S
C1064 H1052 0.959 . S
C1064 C1062 1.561 . S
C1065 C1062 1.526 . S
C1065 C1066 1.396 . S
C1065 C1070 1.390 . S
C1066 C1060 1.465 . S
C1066 C1065 1.396 . S
C1066 C1067 1.399 . S
C1067 H1053 0.929 . S
C1067 C1066 1.399 . S
C1067 C1068 1.385 . S
C1068 H1054 0.931 . S
C1068 C1067 1.385 . S
C1068 C1069 1.389 . S
C1069 C1068 1.389 . S
C1069 C1070 1.387 . S
C1070 H1055 0.930 . S
C1070 C1065 1.390 . S
C1070 C1069 1.387 . S
H1071 C1083 0.930 . S
H1072 C1085 0.930 . S
H1073 C1086 0.930 . S
H1074 C1090 0.959 . S
H1075 C1090 0.959 . S
H1076 C1090 0.961 . S
H1077 C1091 0.960 . S
H1078 C1091 0.961 . S
H1079 C1091 0.959 . S
H1080 C1094 0.929 . S
H1081 C1095 0.931 . S
H1082 C1097 0.930 . S
C1083 H1071 0.930 . S
C1083 C1084 1.399 . S
C1083 C1088 1.399 . S
C1084 C1083 1.399 . S
C1084 C1085 1.376 . S
C1085 H1072 0.930 . S
C1085 C1084 1.376 . S
C1085 C1086 1.388 . S
C1086 H1073 0.930 . S
C1086 C1085 1.388 . S
C1086 C1087 1.390 . S
C1087 C1086 1.390 . S
C1087 C1088 1.394 . S
C1087 C1093 1.465 . S
C1088 C1083 1.399 . S
C1088 C1087 1.394 . S
C1088 C1089 1.516 . S
C1089 C1088 1.516 . S
C1089 C1090 1.502 . S
C1089 C1091 1.561 . S
C1089 C1092 1.526 . S
C1090 H1074 0.959 . S
C1090 H1075 0.959 . S
C1090 H1076 0.961 . S
C1090 C1089 1.502 . S
C1091 H1077 0.960 . S
C1091 H1078 0.961 . S
C1091 H1079 0.959 . S
C1091 C1089 1.561 . S
C1092 C1089 1.526 . S
C1092 C1093 1.396 . S
C1092 C1097 1.390 . S
C1093 C1087 1.465 . S
C1093 C1092 1.396 . S
C1093 C1094 1.399 . S
C1094 H1080 0.929 . S
C1094 C1093 1.399 . S
C1094 C1095 1.385 . S
C1095 H1081 0.931 . S
C1095 C1094 1.385 . S
C1095 C1096 1.389 . S
C1096 C1095 1.389 . S
C1096 C1097 1.387 . S
C1097 H1082 0.930 . S
C1097 C1092 1.390 . S
C1097 C1096 1.387 . S
H1098 C1110 0.930 . S
H1099 C1112 0.930 . S
H1100 C1113 0.930 . S
H1101 C1117 0.959 . S
H1102 C1117 0.959 . S
H1103 C1117 0.961 . S
H1104 C1118 0.960 . S
H1105 C1118 0.961 . S
H1106 C1118 0.959 . S
H1107 C1121 0.929 . S
H1108 C1122 0.931 . S
H1109 C1124 0.930 . S
C1110 H1098 0.930 . S
C1110 C1111 1.399 . S
C1110 C1115 1.399 . S
C1111 C1110 1.399 . S
C1111 C1112 1.376 . S
C1112 H1099 0.930 . S
C1112 C1111 1.376 . S
C1112 C1113 1.388 . S
C1113 H1100 0.930 . S
C1113 C1112 1.388 . S
C1113 C1114 1.390 . S
C1114 C1113 1.390 . S
C1114 C1115 1.394 . S
C1114 C1120 1.465 . S
C1115 C1110 1.399 . S
C1115 C1114 1.394 . S
C1115 C1116 1.516 . S
C1116 C1115 1.516 . S
C1116 C1117 1.502 . S
C1116 C1118 1.561 . S
C1116 C1119 1.526 . S
C1117 H1101 0.959 . S
C1117 H1102 0.959 . S
C1117 H1103 0.961 . S
C1117 C1116 1.502 . S
C1118 H1104 0.960 . S
C1118 H1105 0.961 . S
C1118 H1106 0.959 . S
C1118 C1116 1.561 . S
C1119 C1116 1.526 . S
C1119 C1120 1.396 . S
C1119 C1124 1.390 . S
C1120 C1114 1.465 . S
C1120 C1119 1.396 . S
C1120 C1121 1.399 . S
C1121 H1107 0.929 . S
C1121 C1120 1.399 . S
C1121 C1122 1.385 . S
C1122 H1108 0.931 . S
C1122 C1121 1.385 . S
C1122 C1123 1.389 . S
C1123 C1122 1.389 . S
C1123 C1124 1.387 . S
C1124 H1109 0.930 . S
C1124 C1119 1.390 . S
C1124 C1123 1.387 . S
H1125 C1137 0.930 . S
H1126 C1139 0.930 . S
H1127 C1140 0.930 . S
H1128 C1144 0.959 . S
H1129 C1144 0.959 . S
H1130 C1144 0.961 . S
H1131 C1145 0.960 . S
H1132 C1145 0.961 . S
H1133 C1145 0.959 . S
H1134 C1148 0.929 . S
H1135 C1149 0.931 . S
H1136 C1151 0.930 . S
C1137 H1125 0.930 . S
C1137 C1138 1.399 . S
C1137 C1142 1.399 . S
C1138 C1137 1.399 . S
C1138 C1139 1.376 . S
C1139 H1126 0.930 . S
C1139 C1138 1.376 . S
C1139 C1140 1.388 . S
C1140 H1127 0.930 . S
C1140 C1139 1.388 . S
C1140 C1141 1.390 . S
C1141 C1140 1.390 . S
C1141 C1142 1.394 . S
C1141 C1147 1.465 . S
C1142 C1137 1.399 . S
C1142 C1141 1.394 . S
C1142 C1143 1.516 . S
C1143 C1142 1.516 . S
C1143 C1144 1.502 . S
C1143 C1145 1.561 . S
C1143 C1146 1.526 . S
C1144 H1128 0.959 . S
C1144 H1129 0.959 . S
C1144 H1130 0.961 . S
C1144 C1143 1.502 . S
C1145 H1131 0.960 . S
C1145 H1132 0.961 . S
C1145 H1133 0.959 . S
C1145 C1143 1.561 . S
C1146 C1143 1.526 . S
C1146 C1147 1.396 . S
C1146 C1151 1.390 . S
C1147 C1141 1.465 . S
C1147 C1146 1.396 . S
C1147 C1148 1.399 . S
C1148 H1134 0.929 . S
C1148 C1147 1.399 . S
C1148 C1149 1.385 . S
C1149 H1135 0.931 . S
C1149 C1148 1.385 . S
C1149 C1150 1.389 . S
C1150 C1149 1.389 . S
C1150 C1151 1.387 . S
C1151 H1136 0.930 . S
C1151 C1146 1.390 . S
C1151 C1150 1.387 . S
H1152 C1164 0.930 . S
H1153 C1166 0.930 . S
H1154 C1167 0.930 . S
H1155 C1171 0.959 . S
H1156 C1171 0.959 . S
H1157 C1171 0.961 . S
H1158 C1172 0.960 . S
H1159 C1172 0.961 . S
H1160 C1172 0.959 . S
H1161 C1175 0.929 . S
H1162 C1176 0.931 . S
H1163 C1178 0.930 . S
C1164 H1152 0.930 . S
C1164 C1165 1.399 . S
C1164 C1169 1.399 . S
C1165 C1164 1.399 . S
C1165 C1166 1.376 . S
C1166 H1153 0.930 . S
C1166 C1165 1.376 . S
C1166 C1167 1.388 . S
C1167 H1154 0.930 . S
C1167 C1166 1.388 . S
C1167 C1168 1.390 . S
C1168 C1167 1.390 . S
C1168 C1169 1.394 . S
C1168 C1174 1.465 . S
C1169 C1164 1.399 . S
C1169 C1168 1.394 . S
C1169 C1170 1.516 . S
C1170 C1169 1.516 . S
C1170 C1171 1.502 . S
C1170 C1172 1.561 . S
C1170 C1173 1.526 . S
C1171 H1155 0.959 . S
C1171 H1156 0.959 . S
C1171 H1157 0.961 . S
C1171 C1170 1.502 . S
C1172 H1158 0.960 . S
C1172 H1159 0.961 . S
C1172 H1160 0.959 . S
C1172 C1170 1.561 . S
C1173 C1170 1.526 . S
C1173 C1174 1.396 . S
C1173 C1178 1.390 . S
C1174 C1168 1.465 . S
C1174 C1173 1.396 . S
C1174 C1175 1.399 . S
C1175 H1161 0.929 . S
C1175 C1174 1.399 . S
C1175 C1176 1.385 . S
C1176 H1162 0.931 . S
C1176 C1175 1.385 . S
C1176 C1177 1.389 . S
C1177 C1176 1.389 . S
C1177 C1178 1.387 . S
C1178 H1163 0.930 . S
C1178 C1173 1.390 . S
C1178 C1177 1.387 . S
H1179 C1191 0.930 . S
H1180 C1193 0.930 . S
H1181 C1194 0.930 . S
H1182 C1198 0.959 . S
H1183 C1198 0.959 . S
H1184 C1198 0.961 . S
H1185 C1199 0.960 . S
H1186 C1199 0.961 . S
H1187 C1199 0.959 . S
H1188 C1202 0.929 . S
H1189 C1203 0.931 . S
H1190 C1205 0.930 . S
C1191 H1179 0.930 . S
C1191 C1192 1.399 . S
C1191 C1196 1.399 . S
C1192 C1191 1.399 . S
C1192 C1193 1.376 . S
C1193 H1180 0.930 . S
C1193 C1192 1.376 . S
C1193 C1194 1.388 . S
C1194 H1181 0.930 . S
C1194 C1193 1.388 . S
C1194 C1195 1.390 . S
C1195 C1194 1.390 . S
C1195 C1196 1.394 . S
C1195 C1201 1.465 . S
C1196 C1191 1.399 . S
C1196 C1195 1.394 . S
C1196 C1197 1.516 . S
C1197 C1196 1.516 . S
C1197 C1198 1.502 . S
C1197 C1199 1.561 . S
C1197 C1200 1.526 . S
C1198 H1182 0.959 . S
C1198 H1183 0.959 . S
C1198 H1184 0.961 . S
C1198 C1197 1.502 . S
C1199 H1185 0.960 . S
C1199 H1186 0.961 . S
C1199 H1187 0.959 . S
C1199 C1197 1.561 . S
C1200 C1197 1.526 . S
C1200 C1201 1.396 . S
C1200 C1205 1.390 . S
C1201 C1195 1.465 . S
C1201 C1200 1.396 . S
C1201 C1202 1.399 . S
C1202 H1188 0.929 . S
C1202 C1201 1.399 . S
C1202 C1203 1.385 . S
C1203 H1189 0.931 . S
C1203 C1202 1.385 . S
C1203 C1204 1.389 . S
C1204 C1203 1.389 . S
C1204 C1205 1.387 . S
C1205 H1190 0.930 . S
C1205 C1200 1.390 . S
C1205 C1204 1.387 . S
C247 C43 1.342 . S
C259 C10 1.366 . S
C274 C62 1.372 . S
C286 C23 1.339 . S
C301 C36 1.374 . S
C313 C75 1.338 . S
C328 C30 1.338 . S
C340 C69 1.376 . S
C355 C4 1.343 . S
C367 C49 1.365 . S
C382 C56 1.373 . S
C394 C17 1.338 . S
C409 C121 1.374 . S
C421 C82 1.338 . S
C436 C101 1.364 . S
C448 C140 1.355 . S
C463 C114 1.337 . S
C475 C147 1.376 . S
C490 C153 1.341 . S
C502 C108 1.375 . S
C517 C127 1.340 . S
C529 C88 1.369 . S
C544 C134 1.376 . S
C556 C95 1.340 . S
C571 C160 1.338 . S
C583 C205 1.371 . S
C598 C173 1.358 . S
C610 C218 1.361 . S
C625 C186 1.375 . S
C637 C225 1.338 . S
C652 C231 1.367 . S
C664 C192 1.342 . S
C679 C199 1.375 . S
C691 C166 1.343 . S
C706 C212 1.376 . S
C718 C179 1.338 . S
C733 C3 1.351 . S
C745 C96 1.334 . S
C760 C16 1.345 . S
C772 C109 1.322 . S
C787 C81 1.326 . S
C799 C29 1.318 . S
C814 C31 1.333 . S
C826 C174 1.317 1_554 S
C841 C187 1.350 . S
C853 C5 1.340 . S
C868 C161 1.351 . S
C880 C18 1.333 . S
C895 C213 1.322 . S
C907 C44 1.317 . S
C922 C55 1.317 . S
C934 C224 1.321 . S
C949 C200 1.316 . S
C961 C68 1.321 . S
C976 C133 1.351 . S
C988 C70 1.351 . S
C1003 C42 1.338 . S
C1015 C148 1.349 . S
C1030 C57 1.334 . S
C1042 C122 1.321 1_556 S
C1057 C83 1.351 . S
C1069 C172 1.333 . S
C1084 C94 1.348 . S
C1096 C185 1.326 . S
C1111 C107 1.336 . S
C1123 C159 1.351 . S
C1138 C211 1.317 . S
C1150 C146 1.328 . S
C1165 C226 1.351 . S
C1177 C120 1.345 . S
C1192 C135 1.332 . S
C1204 C198 1.320 . S
