# Generated by pormake.
# Topology wse, (4)-cn, num edge types: 1
# Building blocks:
#     Node 0, Type 0, BuildingBlock: CEKHIL_clean_sbu_0, # of connection points: 4
#     Node 1, Type 0, BuildingBlock: CEKHIL_clean_sbu_0, # of connection points: 4
#     Node 2, Type 0, BuildingBlock: CEKHIL_clean_sbu_0, # of connection points: 4
#     Node 3, Type 0, BuildingBlock: CEKHIL_clean_sbu_0, # of connection points: 4
#     Node 4, Type 0, BuildingBlock: CEKHIL_clean_sbu_0, # of connection points: 4
#     Node 5, Type 0, BuildingBlock: CEKHIL_clean_sbu_0, # of connection points: 4
#     Node 6, Type 0, BuildingBlock: CEKHIL_clean_sbu_0, # of connection points: 4
#     Node 7, Type 0, BuildingBlock: CEKHIL_clean_sbu_0, # of connection points: 4
#     Node 8, Type 0, BuildingBlock: CEKHIL_clean_sbu_0, # of connection points: 4
#     Node 9, Type 0, BuildingBlock: CEKHIL_clean_sbu_0, # of connection points: 4
#     Node 10, Type 0, BuildingBlock: CEKHIL_clean_sbu_0, # of connection points: 4
#     Node 11, Type 0, BuildingBlock: CEKHIL_clean_sbu_0, # of connection points: 4
#     Node 12, Type 0, BuildingBlock: CEKHIL_clean_sbu_0, # of connection points: 4
#     Node 13, Type 0, BuildingBlock: CEKHIL_clean_sbu_0, # of connection points: 4
#     Node 14, Type 0, BuildingBlock: CEKHIL_clean_sbu_0, # of connection points: 4
#     Node 15, Type 0, BuildingBlock: CEKHIL_clean_sbu_0, # of connection points: 4
#     Node 16, Type 0, BuildingBlock: CEKHIL_clean_sbu_0, # of connection points: 4
#     Node 17, Type 0, BuildingBlock: CEKHIL_clean_sbu_0, # of connection points: 4
#     Node 18, Type 0, BuildingBlock: CEKHIL_clean_sbu_0, # of connection points: 4
#     Node 19, Type 0, BuildingBlock: CEKHIL_clean_sbu_0, # of connection points: 4
#     Node 20, Type 0, BuildingBlock: CEKHIL_clean_sbu_0, # of connection points: 4
#     Node 21, Type 0, BuildingBlock: CEKHIL_clean_sbu_0, # of connection points: 4
#     Node 22, Type 0, BuildingBlock: CEKHIL_clean_sbu_0, # of connection points: 4
#     Node 23, Type 0, BuildingBlock: CEKHIL_clean_sbu_0, # of connection points: 4
#     Node 24, Type 0, BuildingBlock: CEKHIL_clean_sbu_0, # of connection points: 4
#     Node 25, Type 0, BuildingBlock: CEKHIL_clean_sbu_0, # of connection points: 4
#     Node 26, Type 0, BuildingBlock: CEKHIL_clean_sbu_0, # of connection points: 4
#     Node 27, Type 0, BuildingBlock: CEKHIL_clean_sbu_0, # of connection points: 4
#     Node 28, Type 0, BuildingBlock: CEKHIL_clean_sbu_0, # of connection points: 4
#     Node 29, Type 0, BuildingBlock: CEKHIL_clean_sbu_0, # of connection points: 4
#     Node 30, Type 0, BuildingBlock: CEKHIL_clean_sbu_0, # of connection points: 4
#     Node 31, Type 0, BuildingBlock: CEKHIL_clean_sbu_0, # of connection points: 4
#     Node 32, Type 0, BuildingBlock: CEKHIL_clean_sbu_0, # of connection points: 4
#     Node 33, Type 0, BuildingBlock: CEKHIL_clean_sbu_0, # of connection points: 4
#     Node 34, Type 0, BuildingBlock: CEKHIL_clean_sbu_0, # of connection points: 4
#     Node 35, Type 0, BuildingBlock: CEKHIL_clean_sbu_0, # of connection points: 4
#     Node 36, Type 0, BuildingBlock: CEKHIL_clean_sbu_0, # of connection points: 4
#     Node 37, Type 0, BuildingBlock: CEKHIL_clean_sbu_0, # of connection points: 4
#     Node 38, Type 0, BuildingBlock: CEKHIL_clean_sbu_0, # of connection points: 4
#     Node 39, Type 0, BuildingBlock: CEKHIL_clean_sbu_0, # of connection points: 4
#     Node 40, Type 0, BuildingBlock: CEKHIL_clean_sbu_0, # of connection points: 4
#     Node 41, Type 0, BuildingBlock: CEKHIL_clean_sbu_0, # of connection points: 4
#     Node 42, Type 0, BuildingBlock: CEKHIL_clean_sbu_0, # of connection points: 4
#     Node 43, Type 0, BuildingBlock: CEKHIL_clean_sbu_0, # of connection points: 4
#     Node 44, Type 0, BuildingBlock: CEKHIL_clean_sbu_0, # of connection points: 4
#     Node 45, Type 0, BuildingBlock: CEKHIL_clean_sbu_0, # of connection points: 4
#     Node 46, Type 0, BuildingBlock: CEKHIL_clean_sbu_0, # of connection points: 4
#     Node 47, Type 0, BuildingBlock: CEKHIL_clean_sbu_0, # of connection points: 4
#     Node 48, Type 0, BuildingBlock: CEKHIL_clean_sbu_0, # of connection points: 4
#     Node 49, Type 0, BuildingBlock: CEKHIL_clean_sbu_0, # of connection points: 4
#     Node 50, Type 0, BuildingBlock: CEKHIL_clean_sbu_0, # of connection points: 4
#     Node 51, Type 0, BuildingBlock: CEKHIL_clean_sbu_0, # of connection points: 4
#     Node 52, Type 0, BuildingBlock: CEKHIL_clean_sbu_0, # of connection points: 4
#     Node 53, Type 0, BuildingBlock: CEKHIL_clean_sbu_0, # of connection points: 4
#     Node 54, Type 0, BuildingBlock: CEKHIL_clean_sbu_0, # of connection points: 4
#     Node 55, Type 0, BuildingBlock: CEKHIL_clean_sbu_0, # of connection points: 4
#     Node 56, Type 0, BuildingBlock: CEKHIL_clean_sbu_0, # of connection points: 4
#     Node 57, Type 0, BuildingBlock: CEKHIL_clean_sbu_0, # of connection points: 4
#     Node 58, Type 0, BuildingBlock: CEKHIL_clean_sbu_0, # of connection points: 4
#     Node 59, Type 0, BuildingBlock: CEKHIL_clean_sbu_0, # of connection points: 4
#     Node 60, Type 0, BuildingBlock: CEKHIL_clean_sbu_0, # of connection points: 4
#     Node 61, Type 0, BuildingBlock: CEKHIL_clean_sbu_0, # of connection points: 4
#     Node 62, Type 0, BuildingBlock: CEKHIL_clean_sbu_0, # of connection points: 4
#     Node 63, Type 0, BuildingBlock: CEKHIL_clean_sbu_0, # of connection points: 4
#     Node 64, Type 0, BuildingBlock: CEKHIL_clean_sbu_0, # of connection points: 4
#     Node 65, Type 0, BuildingBlock: CEKHIL_clean_sbu_0, # of connection points: 4
#     Node 66, Type 0, BuildingBlock: CEKHIL_clean_sbu_0, # of connection points: 4
#     Node 67, Type 0, BuildingBlock: CEKHIL_clean_sbu_0, # of connection points: 4
#     Node 68, Type 0, BuildingBlock: CEKHIL_clean_sbu_0, # of connection points: 4
#     Node 69, Type 0, BuildingBlock: CEKHIL_clean_sbu_0, # of connection points: 4
#     Node 70, Type 0, BuildingBlock: CEKHIL_clean_sbu_0, # of connection points: 4
#     Node 71, Type 0, BuildingBlock: CEKHIL_clean_sbu_0, # of connection points: 4
#     Node 72, Type 0, BuildingBlock: CEKHIL_clean_sbu_0, # of connection points: 4
#     Node 73, Type 0, BuildingBlock: CEKHIL_clean_sbu_0, # of connection points: 4
#     Node 74, Type 0, BuildingBlock: CEKHIL_clean_sbu_0, # of connection points: 4
#     Node 75, Type 0, BuildingBlock: CEKHIL_clean_sbu_0, # of connection points: 4
#     Node 76, Type 0, BuildingBlock: CEKHIL_clean_sbu_0, # of connection points: 4
#     Node 77, Type 0, BuildingBlock: CEKHIL_clean_sbu_0, # of connection points: 4
#     Node 78, Type 0, BuildingBlock: CEKHIL_clean_sbu_0, # of connection points: 4
#     Node 79, Type 0, BuildingBlock: CEKHIL_clean_sbu_0, # of connection points: 4
#     Node 80, Type 0, BuildingBlock: CEKHIL_clean_sbu_0, # of connection points: 4
#     Node 81, Type 0, BuildingBlock: CEKHIL_clean_sbu_0, # of connection points: 4
#     Node 82, Type 0, BuildingBlock: CEKHIL_clean_sbu_0, # of connection points: 4
#     Node 83, Type 0, BuildingBlock: CEKHIL_clean_sbu_0, # of connection points: 4
#     Node 84, Type 0, BuildingBlock: CEKHIL_clean_sbu_0, # of connection points: 4
#     Node 85, Type 0, BuildingBlock: CEKHIL_clean_sbu_0, # of connection points: 4
#     Node 86, Type 0, BuildingBlock: CEKHIL_clean_sbu_0, # of connection points: 4
#     Node 87, Type 0, BuildingBlock: CEKHIL_clean_sbu_0, # of connection points: 4
#     Node 88, Type 0, BuildingBlock: CEKHIL_clean_sbu_0, # of connection points: 4
#     Node 89, Type 0, BuildingBlock: CEKHIL_clean_sbu_0, # of connection points: 4
#     Node 90, Type 0, BuildingBlock: CEKHIL_clean_sbu_0, # of connection points: 4
#     Node 91, Type 0, BuildingBlock: CEKHIL_clean_sbu_0, # of connection points: 4
#     Node 92, Type 0, BuildingBlock: CEKHIL_clean_sbu_0, # of connection points: 4
#     Node 93, Type 0, BuildingBlock: CEKHIL_clean_sbu_0, # of connection points: 4
#     Node 94, Type 0, BuildingBlock: CEKHIL_clean_sbu_0, # of connection points: 4
#     Node 95, Type 0, BuildingBlock: CEKHIL_clean_sbu_0, # of connection points: 4
#     Edge 96, Type (0, 0), BuildingBlock: ZUJKAS_clean_linker_0, # of connection points: 2
#     Edge 97, Type (0, 0), BuildingBlock: ZUJKAS_clean_linker_0, # of connection points: 2
#     Edge 98, Type (0, 0), BuildingBlock: ZUJKAS_clean_linker_0, # of connection points: 2
#     Edge 99, Type (0, 0), BuildingBlock: ZUJKAS_clean_linker_0, # of connection points: 2
#     Edge 100, Type (0, 0), BuildingBlock: ZUJKAS_clean_linker_0, # of connection points: 2
#     Edge 101, Type (0, 0), BuildingBlock: ZUJKAS_clean_linker_0, # of connection points: 2
#     Edge 102, Type (0, 0), BuildingBlock: ZUJKAS_clean_linker_0, # of connection points: 2
#     Edge 103, Type (0, 0), BuildingBlock: ZUJKAS_clean_linker_0, # of connection points: 2
#     Edge 104, Type (0, 0), BuildingBlock: ZUJKAS_clean_linker_0, # of connection points: 2
#     Edge 105, Type (0, 0), BuildingBlock: ZUJKAS_clean_linker_0, # of connection points: 2
#     Edge 106, Type (0, 0), BuildingBlock: ZUJKAS_clean_linker_0, # of connection points: 2
#     Edge 107, Type (0, 0), BuildingBlock: ZUJKAS_clean_linker_0, # of connection points: 2
#     Edge 108, Type (0, 0), BuildingBlock: ZUJKAS_clean_linker_0, # of connection points: 2
#     Edge 109, Type (0, 0), BuildingBlock: ZUJKAS_clean_linker_0, # of connection points: 2
#     Edge 110, Type (0, 0), BuildingBlock: ZUJKAS_clean_linker_0, # of connection points: 2
#     Edge 111, Type (0, 0), BuildingBlock: ZUJKAS_clean_linker_0, # of connection points: 2
#     Edge 112, Type (0, 0), BuildingBlock: ZUJKAS_clean_linker_0, # of connection points: 2
#     Edge 113, Type (0, 0), BuildingBlock: ZUJKAS_clean_linker_0, # of connection points: 2
#     Edge 114, Type (0, 0), BuildingBlock: ZUJKAS_clean_linker_0, # of connection points: 2
#     Edge 115, Type (0, 0), BuildingBlock: ZUJKAS_clean_linker_0, # of connection points: 2
#     Edge 116, Type (0, 0), BuildingBlock: ZUJKAS_clean_linker_0, # of connection points: 2
#     Edge 117, Type (0, 0), BuildingBlock: ZUJKAS_clean_linker_0, # of connection points: 2
#     Edge 118, Type (0, 0), BuildingBlock: ZUJKAS_clean_linker_0, # of connection points: 2
#     Edge 119, Type (0, 0), BuildingBlock: ZUJKAS_clean_linker_0, # of connection points: 2
#     Edge 120, Type (0, 0), BuildingBlock: ZUJKAS_clean_linker_0, # of connection points: 2
#     Edge 121, Type (0, 0), BuildingBlock: ZUJKAS_clean_linker_0, # of connection points: 2
#     Edge 122, Type (0, 0), BuildingBlock: ZUJKAS_clean_linker_0, # of connection points: 2
#     Edge 123, Type (0, 0), BuildingBlock: ZUJKAS_clean_linker_0, # of connection points: 2
#     Edge 124, Type (0, 0), BuildingBlock: ZUJKAS_clean_linker_0, # of connection points: 2
#     Edge 125, Type (0, 0), BuildingBlock: ZUJKAS_clean_linker_0, # of connection points: 2
#     Edge 126, Type (0, 0), BuildingBlock: ZUJKAS_clean_linker_0, # of connection points: 2
#     Edge 127, Type (0, 0), BuildingBlock: ZUJKAS_clean_linker_0, # of connection points: 2
#     Edge 128, Type (0, 0), BuildingBlock: ZUJKAS_clean_linker_0, # of connection points: 2
#     Edge 129, Type (0, 0), BuildingBlock: ZUJKAS_clean_linker_0, # of connection points: 2
#     Edge 130, Type (0, 0), BuildingBlock: ZUJKAS_clean_linker_0, # of connection points: 2
#     Edge 131, Type (0, 0), BuildingBlock: ZUJKAS_clean_linker_0, # of connection points: 2
#     Edge 132, Type (0, 0), BuildingBlock: ZUJKAS_clean_linker_0, # of connection points: 2
#     Edge 133, Type (0, 0), BuildingBlock: ZUJKAS_clean_linker_0, # of connection points: 2
#     Edge 134, Type (0, 0), BuildingBlock: ZUJKAS_clean_linker_0, # of connection points: 2
#     Edge 135, Type (0, 0), BuildingBlock: ZUJKAS_clean_linker_0, # of connection points: 2
#     Edge 136, Type (0, 0), BuildingBlock: ZUJKAS_clean_linker_0, # of connection points: 2
#     Edge 137, Type (0, 0), BuildingBlock: ZUJKAS_clean_linker_0, # of connection points: 2
#     Edge 138, Type (0, 0), BuildingBlock: ZUJKAS_clean_linker_0, # of connection points: 2
#     Edge 139, Type (0, 0), BuildingBlock: ZUJKAS_clean_linker_0, # of connection points: 2
#     Edge 140, Type (0, 0), BuildingBlock: ZUJKAS_clean_linker_0, # of connection points: 2
#     Edge 141, Type (0, 0), BuildingBlock: ZUJKAS_clean_linker_0, # of connection points: 2
#     Edge 142, Type (0, 0), BuildingBlock: ZUJKAS_clean_linker_0, # of connection points: 2
#     Edge 143, Type (0, 0), BuildingBlock: ZUJKAS_clean_linker_0, # of connection points: 2
#     Edge 144, Type (0, 0), BuildingBlock: ZUJKAS_clean_linker_0, # of connection points: 2
#     Edge 145, Type (0, 0), BuildingBlock: ZUJKAS_clean_linker_0, # of connection points: 2
#     Edge 146, Type (0, 0), BuildingBlock: ZUJKAS_clean_linker_0, # of connection points: 2
#     Edge 147, Type (0, 0), BuildingBlock: ZUJKAS_clean_linker_0, # of connection points: 2
#     Edge 148, Type (0, 0), BuildingBlock: ZUJKAS_clean_linker_0, # of connection points: 2
#     Edge 149, Type (0, 0), BuildingBlock: ZUJKAS_clean_linker_0, # of connection points: 2
#     Edge 150, Type (0, 0), BuildingBlock: ZUJKAS_clean_linker_0, # of connection points: 2
#     Edge 151, Type (0, 0), BuildingBlock: ZUJKAS_clean_linker_0, # of connection points: 2
#     Edge 152, Type (0, 0), BuildingBlock: ZUJKAS_clean_linker_0, # of connection points: 2
#     Edge 153, Type (0, 0), BuildingBlock: ZUJKAS_clean_linker_0, # of connection points: 2
#     Edge 154, Type (0, 0), BuildingBlock: ZUJKAS_clean_linker_0, # of connection points: 2
#     Edge 155, Type (0, 0), BuildingBlock: ZUJKAS_clean_linker_0, # of connection points: 2
#     Edge 156, Type (0, 0), BuildingBlock: ZUJKAS_clean_linker_0, # of connection points: 2
#     Edge 157, Type (0, 0), BuildingBlock: ZUJKAS_clean_linker_0, # of connection points: 2
#     Edge 158, Type (0, 0), BuildingBlock: ZUJKAS_clean_linker_0, # of connection points: 2
#     Edge 159, Type (0, 0), BuildingBlock: ZUJKAS_clean_linker_0, # of connection points: 2
#     Edge 160, Type (0, 0), BuildingBlock: ZUJKAS_clean_linker_0, # of connection points: 2
#     Edge 161, Type (0, 0), BuildingBlock: ZUJKAS_clean_linker_0, # of connection points: 2
#     Edge 162, Type (0, 0), BuildingBlock: ZUJKAS_clean_linker_0, # of connection points: 2
#     Edge 163, Type (0, 0), BuildingBlock: ZUJKAS_clean_linker_0, # of connection points: 2
#     Edge 164, Type (0, 0), BuildingBlock: ZUJKAS_clean_linker_0, # of connection points: 2
#     Edge 165, Type (0, 0), BuildingBlock: ZUJKAS_clean_linker_0, # of connection points: 2
#     Edge 166, Type (0, 0), BuildingBlock: ZUJKAS_clean_linker_0, # of connection points: 2
#     Edge 167, Type (0, 0), BuildingBlock: ZUJKAS_clean_linker_0, # of connection points: 2
#     Edge 168, Type (0, 0), BuildingBlock: ZUJKAS_clean_linker_0, # of connection points: 2
#     Edge 169, Type (0, 0), BuildingBlock: ZUJKAS_clean_linker_0, # of connection points: 2
#     Edge 170, Type (0, 0), BuildingBlock: ZUJKAS_clean_linker_0, # of connection points: 2
#     Edge 171, Type (0, 0), BuildingBlock: ZUJKAS_clean_linker_0, # of connection points: 2
#     Edge 172, Type (0, 0), BuildingBlock: ZUJKAS_clean_linker_0, # of connection points: 2
#     Edge 173, Type (0, 0), BuildingBlock: ZUJKAS_clean_linker_0, # of connection points: 2
#     Edge 174, Type (0, 0), BuildingBlock: ZUJKAS_clean_linker_0, # of connection points: 2
#     Edge 175, Type (0, 0), BuildingBlock: ZUJKAS_clean_linker_0, # of connection points: 2
#     Edge 176, Type (0, 0), BuildingBlock: ZUJKAS_clean_linker_0, # of connection points: 2
#     Edge 177, Type (0, 0), BuildingBlock: ZUJKAS_clean_linker_0, # of connection points: 2
#     Edge 178, Type (0, 0), BuildingBlock: ZUJKAS_clean_linker_0, # of connection points: 2
#     Edge 179, Type (0, 0), BuildingBlock: ZUJKAS_clean_linker_0, # of connection points: 2
#     Edge 180, Type (0, 0), BuildingBlock: ZUJKAS_clean_linker_0, # of connection points: 2
#     Edge 181, Type (0, 0), BuildingBlock: ZUJKAS_clean_linker_0, # of connection points: 2
#     Edge 182, Type (0, 0), BuildingBlock: ZUJKAS_clean_linker_0, # of connection points: 2
#     Edge 183, Type (0, 0), BuildingBlock: ZUJKAS_clean_linker_0, # of connection points: 2
#     Edge 184, Type (0, 0), BuildingBlock: ZUJKAS_clean_linker_0, # of connection points: 2
#     Edge 185, Type (0, 0), BuildingBlock: ZUJKAS_clean_linker_0, # of connection points: 2
#     Edge 186, Type (0, 0), BuildingBlock: ZUJKAS_clean_linker_0, # of connection points: 2
#     Edge 187, Type (0, 0), BuildingBlock: ZUJKAS_clean_linker_0, # of connection points: 2
#     Edge 188, Type (0, 0), BuildingBlock: ZUJKAS_clean_linker_0, # of connection points: 2
#     Edge 189, Type (0, 0), BuildingBlock: ZUJKAS_clean_linker_0, # of connection points: 2
#     Edge 190, Type (0, 0), BuildingBlock: ZUJKAS_clean_linker_0, # of connection points: 2
#     Edge 191, Type (0, 0), BuildingBlock: ZUJKAS_clean_linker_0, # of connection points: 2
#     Edge 192, Type (0, 0), BuildingBlock: ZUJKAS_clean_linker_0, # of connection points: 2
#     Edge 193, Type (0, 0), BuildingBlock: ZUJKAS_clean_linker_0, # of connection points: 2
#     Edge 194, Type (0, 0), BuildingBlock: ZUJKAS_clean_linker_0, # of connection points: 2
#     Edge 195, Type (0, 0), BuildingBlock: ZUJKAS_clean_linker_0, # of connection points: 2
#     Edge 196, Type (0, 0), BuildingBlock: ZUJKAS_clean_linker_0, # of connection points: 2
#     Edge 197, Type (0, 0), BuildingBlock: ZUJKAS_clean_linker_0, # of connection points: 2
#     Edge 198, Type (0, 0), BuildingBlock: ZUJKAS_clean_linker_0, # of connection points: 2
#     Edge 199, Type (0, 0), BuildingBlock: ZUJKAS_clean_linker_0, # of connection points: 2
#     Edge 200, Type (0, 0), BuildingBlock: ZUJKAS_clean_linker_0, # of connection points: 2
#     Edge 201, Type (0, 0), BuildingBlock: ZUJKAS_clean_linker_0, # of connection points: 2
#     Edge 202, Type (0, 0), BuildingBlock: ZUJKAS_clean_linker_0, # of connection points: 2
#     Edge 203, Type (0, 0), BuildingBlock: ZUJKAS_clean_linker_0, # of connection points: 2
#     Edge 204, Type (0, 0), BuildingBlock: ZUJKAS_clean_linker_0, # of connection points: 2
#     Edge 205, Type (0, 0), BuildingBlock: ZUJKAS_clean_linker_0, # of connection points: 2
#     Edge 206, Type (0, 0), BuildingBlock: ZUJKAS_clean_linker_0, # of connection points: 2
#     Edge 207, Type (0, 0), BuildingBlock: ZUJKAS_clean_linker_0, # of connection points: 2
#     Edge 208, Type (0, 0), BuildingBlock: ZUJKAS_clean_linker_0, # of connection points: 2
#     Edge 209, Type (0, 0), BuildingBlock: ZUJKAS_clean_linker_0, # of connection points: 2
#     Edge 210, Type (0, 0), BuildingBlock: ZUJKAS_clean_linker_0, # of connection points: 2
#     Edge 211, Type (0, 0), BuildingBlock: ZUJKAS_clean_linker_0, # of connection points: 2
#     Edge 212, Type (0, 0), BuildingBlock: ZUJKAS_clean_linker_0, # of connection points: 2
#     Edge 213, Type (0, 0), BuildingBlock: ZUJKAS_clean_linker_0, # of connection points: 2
#     Edge 214, Type (0, 0), BuildingBlock: ZUJKAS_clean_linker_0, # of connection points: 2
#     Edge 215, Type (0, 0), BuildingBlock: ZUJKAS_clean_linker_0, # of connection points: 2
#     Edge 216, Type (0, 0), BuildingBlock: ZUJKAS_clean_linker_0, # of connection points: 2
#     Edge 217, Type (0, 0), BuildingBlock: ZUJKAS_clean_linker_0, # of connection points: 2
#     Edge 218, Type (0, 0), BuildingBlock: ZUJKAS_clean_linker_0, # of connection points: 2
#     Edge 219, Type (0, 0), BuildingBlock: ZUJKAS_clean_linker_0, # of connection points: 2
#     Edge 220, Type (0, 0), BuildingBlock: ZUJKAS_clean_linker_0, # of connection points: 2
#     Edge 221, Type (0, 0), BuildingBlock: ZUJKAS_clean_linker_0, # of connection points: 2
#     Edge 222, Type (0, 0), BuildingBlock: ZUJKAS_clean_linker_0, # of connection points: 2
#     Edge 223, Type (0, 0), BuildingBlock: ZUJKAS_clean_linker_0, # of connection points: 2
#     Edge 224, Type (0, 0), BuildingBlock: ZUJKAS_clean_linker_0, # of connection points: 2
#     Edge 225, Type (0, 0), BuildingBlock: ZUJKAS_clean_linker_0, # of connection points: 2
#     Edge 226, Type (0, 0), BuildingBlock: ZUJKAS_clean_linker_0, # of connection points: 2
#     Edge 227, Type (0, 0), BuildingBlock: ZUJKAS_clean_linker_0, # of connection points: 2
#     Edge 228, Type (0, 0), BuildingBlock: ZUJKAS_clean_linker_0, # of connection points: 2
#     Edge 229, Type (0, 0), BuildingBlock: ZUJKAS_clean_linker_0, # of connection points: 2
#     Edge 230, Type (0, 0), BuildingBlock: ZUJKAS_clean_linker_0, # of connection points: 2
#     Edge 231, Type (0, 0), BuildingBlock: ZUJKAS_clean_linker_0, # of connection points: 2
#     Edge 232, Type (0, 0), BuildingBlock: ZUJKAS_clean_linker_0, # of connection points: 2
#     Edge 233, Type (0, 0), BuildingBlock: ZUJKAS_clean_linker_0, # of connection points: 2
#     Edge 234, Type (0, 0), BuildingBlock: ZUJKAS_clean_linker_0, # of connection points: 2
#     Edge 235, Type (0, 0), BuildingBlock: ZUJKAS_clean_linker_0, # of connection points: 2
#     Edge 236, Type (0, 0), BuildingBlock: ZUJKAS_clean_linker_0, # of connection points: 2
#     Edge 237, Type (0, 0), BuildingBlock: ZUJKAS_clean_linker_0, # of connection points: 2
#     Edge 238, Type (0, 0), BuildingBlock: ZUJKAS_clean_linker_0, # of connection points: 2
#     Edge 239, Type (0, 0), BuildingBlock: ZUJKAS_clean_linker_0, # of connection points: 2
#     Edge 240, Type (0, 0), BuildingBlock: ZUJKAS_clean_linker_0, # of connection points: 2
#     Edge 241, Type (0, 0), BuildingBlock: ZUJKAS_clean_linker_0, # of connection points: 2
#     Edge 242, Type (0, 0), BuildingBlock: ZUJKAS_clean_linker_0, # of connection points: 2
#     Edge 243, Type (0, 0), BuildingBlock: ZUJKAS_clean_linker_0, # of connection points: 2
#     Edge 244, Type (0, 0), BuildingBlock: ZUJKAS_clean_linker_0, # of connection points: 2
#     Edge 245, Type (0, 0), BuildingBlock: ZUJKAS_clean_linker_0, # of connection points: 2
#     Edge 246, Type (0, 0), BuildingBlock: ZUJKAS_clean_linker_0, # of connection points: 2
#     Edge 247, Type (0, 0), BuildingBlock: ZUJKAS_clean_linker_0, # of connection points: 2
#     Edge 248, Type (0, 0), BuildingBlock: ZUJKAS_clean_linker_0, # of connection points: 2
#     Edge 249, Type (0, 0), BuildingBlock: ZUJKAS_clean_linker_0, # of connection points: 2
#     Edge 250, Type (0, 0), BuildingBlock: ZUJKAS_clean_linker_0, # of connection points: 2
#     Edge 251, Type (0, 0), BuildingBlock: ZUJKAS_clean_linker_0, # of connection points: 2
#     Edge 252, Type (0, 0), BuildingBlock: ZUJKAS_clean_linker_0, # of connection points: 2
#     Edge 253, Type (0, 0), BuildingBlock: ZUJKAS_clean_linker_0, # of connection points: 2
#     Edge 254, Type (0, 0), BuildingBlock: ZUJKAS_clean_linker_0, # of connection points: 2
#     Edge 255, Type (0, 0), BuildingBlock: ZUJKAS_clean_linker_0, # of connection points: 2
#     Edge 256, Type (0, 0), BuildingBlock: ZUJKAS_clean_linker_0, # of connection points: 2
#     Edge 257, Type (0, 0), BuildingBlock: ZUJKAS_clean_linker_0, # of connection points: 2
#     Edge 258, Type (0, 0), BuildingBlock: ZUJKAS_clean_linker_0, # of connection points: 2
#     Edge 259, Type (0, 0), BuildingBlock: ZUJKAS_clean_linker_0, # of connection points: 2
#     Edge 260, Type (0, 0), BuildingBlock: ZUJKAS_clean_linker_0, # of connection points: 2
#     Edge 261, Type (0, 0), BuildingBlock: ZUJKAS_clean_linker_0, # of connection points: 2
#     Edge 262, Type (0, 0), BuildingBlock: ZUJKAS_clean_linker_0, # of connection points: 2
#     Edge 263, Type (0, 0), BuildingBlock: ZUJKAS_clean_linker_0, # of connection points: 2
#     Edge 264, Type (0, 0), BuildingBlock: ZUJKAS_clean_linker_0, # of connection points: 2
#     Edge 265, Type (0, 0), BuildingBlock: ZUJKAS_clean_linker_0, # of connection points: 2
#     Edge 266, Type (0, 0), BuildingBlock: ZUJKAS_clean_linker_0, # of connection points: 2
#     Edge 267, Type (0, 0), BuildingBlock: ZUJKAS_clean_linker_0, # of connection points: 2
#     Edge 268, Type (0, 0), BuildingBlock: ZUJKAS_clean_linker_0, # of connection points: 2
#     Edge 269, Type (0, 0), BuildingBlock: ZUJKAS_clean_linker_0, # of connection points: 2
#     Edge 270, Type (0, 0), BuildingBlock: ZUJKAS_clean_linker_0, # of connection points: 2
#     Edge 271, Type (0, 0), BuildingBlock: ZUJKAS_clean_linker_0, # of connection points: 2
#     Edge 272, Type (0, 0), BuildingBlock: ZUJKAS_clean_linker_0, # of connection points: 2
#     Edge 273, Type (0, 0), BuildingBlock: ZUJKAS_clean_linker_0, # of connection points: 2
#     Edge 274, Type (0, 0), BuildingBlock: ZUJKAS_clean_linker_0, # of connection points: 2
#     Edge 275, Type (0, 0), BuildingBlock: ZUJKAS_clean_linker_0, # of connection points: 2
#     Edge 276, Type (0, 0), BuildingBlock: ZUJKAS_clean_linker_0, # of connection points: 2
#     Edge 277, Type (0, 0), BuildingBlock: ZUJKAS_clean_linker_0, # of connection points: 2
#     Edge 278, Type (0, 0), BuildingBlock: ZUJKAS_clean_linker_0, # of connection points: 2
#     Edge 279, Type (0, 0), BuildingBlock: ZUJKAS_clean_linker_0, # of connection points: 2
#     Edge 280, Type (0, 0), BuildingBlock: ZUJKAS_clean_linker_0, # of connection points: 2
#     Edge 281, Type (0, 0), BuildingBlock: ZUJKAS_clean_linker_0, # of connection points: 2
#     Edge 282, Type (0, 0), BuildingBlock: ZUJKAS_clean_linker_0, # of connection points: 2
#     Edge 283, Type (0, 0), BuildingBlock: ZUJKAS_clean_linker_0, # of connection points: 2
#     Edge 284, Type (0, 0), BuildingBlock: ZUJKAS_clean_linker_0, # of connection points: 2
#     Edge 285, Type (0, 0), BuildingBlock: ZUJKAS_clean_linker_0, # of connection points: 2
#     Edge 286, Type (0, 0), BuildingBlock: ZUJKAS_clean_linker_0, # of connection points: 2
#     Edge 287, Type (0, 0), BuildingBlock: ZUJKAS_clean_linker_0, # of connection points: 2
# Relax obj value: 0.323
# Max RMSD: 0.156
# Mean RMSD: 0.150
data_MOF--net-wse--node1-CEKHIL_clean_sbu_0--edge1-ZUJKAS_clean_linker_0
_symmetry_space_group_name_H-M    P1
_symmetry_Int_Tables_number       1
_symmetry_cell_setting            triclinic
loop_
_symmetry_equiv_pos_as_xyz
'x, y, z'
_cell_length_a     127.91873
_cell_length_b     127.91317
_cell_length_c     127.91226
_cell_angle_alpha  90.002205
_cell_angle_beta   90.002339
_cell_angle_gamma 89.997094
loop_
_atom_site_label
_atom_site_type_symbol
_atom_site_fract_x
_atom_site_fract_y
_atom_site_fract_z
_atom_type_partial_charge
Co0 Co 0.08931 0.18201 0.42369 0.0
O1 O 0.10346 0.17675 0.42436 0.0
O2 O 0.08984 0.16768 0.41879 0.0
C3 C 0.09358 0.19775 0.41676 0.0
O4 O 0.07364 0.18459 0.42143 0.0
Co5 Co 0.08204 0.20199 0.43552 0.0
O6 O 0.06878 0.20025 0.42774 0.0
C7 C 0.08621 0.18235 0.4471 0.0
C8 C 0.0998 0.16796 0.42083 0.0
C9 C 0.06674 0.19182 0.42284 0.0
O10 O 0.08687 0.1771 0.43852 0.0
O11 O 0.08522 0.19231 0.44737 0.0
O12 O 0.09252 0.18967 0.41066 0.0
O13 O 0.09256 0.19591 0.42658 0.0
Co14 Co 0.8225 0.08886 0.4225 0.0
O15 O 0.82809 0.1029 0.423 0.0
O16 O 0.83716 0.08881 0.41873 0.0
C17 C 0.80758 0.09308 0.41409 0.0
O18 O 0.81968 0.07322 0.4206 0.0
Co19 Co 0.80158 0.08253 0.43304 0.0
O20 O 0.8035 0.06892 0.42588 0.0
C21 C 0.82032 0.08676 0.44597 0.0
C22 C 0.83701 0.09886 0.42029 0.0
C23 C 0.8122 0.06654 0.42165 0.0
O24 O 0.82617 0.08691 0.43777 0.0
O25 O 0.81034 0.08603 0.44553 0.0
O26 O 0.81611 0.09158 0.40876 0.0
O27 O 0.80847 0.09259 0.42409 0.0
Co28 Co 0.91652 0.82378 0.42298 0.0
O29 O 0.90236 0.82876 0.42472 0.0
O30 O 0.91507 0.83761 0.41704 0.0
C31 C 0.91221 0.80744 0.41766 0.0
O32 O 0.93198 0.82137 0.41941 0.0
Co33 Co 0.92564 0.80509 0.43558 0.0
O34 O 0.93715 0.80564 0.42525 0.0
C35 C 0.9227 0.82569 0.44577 0.0
C36 C 0.9054 0.83732 0.42016 0.0
C37 C 0.93876 0.81392 0.41997 0.0
O38 O 0.92023 0.82997 0.43701 0.0
O39 O 0.92457 0.81592 0.44686 0.0
O40 O 0.91227 0.81511 0.41097 0.0
O41 O 0.91407 0.81002 0.42721 0.0
Co42 Co 0.1822 0.9152 0.42306 0.0
O43 O 0.17709 0.90105 0.42408 0.0
O44 O 0.16811 0.91434 0.41756 0.0
C45 C 0.19824 0.91108 0.41678 0.0
O46 O 0.18479 0.93083 0.42058 0.0
Co47 Co 0.20146 0.92258 0.43601 0.0
O48 O 0.19969 0.93595 0.42837 0.0
C49 C 0.18162 0.91712 0.44637 0.0
C50 C 0.16842 0.9045 0.42009 0.0
C51 C 0.19171 0.93785 0.42271 0.0
O52 O 0.17673 0.91793 0.43761 0.0
O53 O 0.1916 0.91752 0.44709 0.0
O54 O 0.19033 0.91171 0.4104 0.0
O55 O 0.196 0.9122 0.42651 0.0
Co56 Co 0.08638 0.82285 0.57965 0.0
O57 O 0.10054 0.82778 0.5778 0.0
O58 O 0.08787 0.83677 0.58543 0.0
C59 C 0.09071 0.80663 0.58532 0.0
O60 O 0.07089 0.82051 0.58321 0.0
Co61 Co 0.0775 0.80382 0.56731 0.0
O62 O 0.06527 0.80521 0.57665 0.0
C63 C 0.08068 0.82418 0.55672 0.0
C64 C 0.09753 0.83637 0.58231 0.0
C65 C 0.06378 0.81342 0.58208 0.0
O66 O 0.08272 0.82875 0.56545 0.0
O67 O 0.07912 0.81433 0.55585 0.0
O68 O 0.09061 0.81443 0.59185 0.0
O69 O 0.08889 0.80902 0.57573 0.0
Co70 Co 0.18011 0.08772 0.57921 0.0
O71 O 0.17522 0.102 0.57822 0.0
O72 O 0.1663 0.08896 0.58524 0.0
C73 C 0.19653 0.09156 0.58464 0.0
O74 O 0.18242 0.07208 0.58204 0.0
Co75 Co 0.19856 0.07917 0.56585 0.0
O76 O 0.1975 0.06666 0.57486 0.0
C77 C 0.17789 0.08266 0.55612 0.0
C78 C 0.16665 0.09877 0.58261 0.0
C79 C 0.18945 0.06501 0.5805 0.0
O80 O 0.17375 0.08471 0.56506 0.0
O81 O 0.18764 0.08087 0.55478 0.0
O82 O 0.18888 0.09132 0.59135 0.0
O83 O 0.19388 0.09024 0.57502 0.0
Co84 Co 0.91463 0.18062 0.58126 0.0
O85 O 0.90043 0.17553 0.58135 0.0
O86 O 0.91421 0.16642 0.58648 0.0
C87 C 0.91115 0.19663 0.58799 0.0
O88 O 0.93038 0.1832 0.58265 0.0
Co89 Co 0.92106 0.19994 0.5679 0.0
O90 O 0.93492 0.19818 0.57465 0.0
C91 C 0.91469 0.18029 0.55787 0.0
C92 C 0.90419 0.16675 0.58481 0.0
C93 C 0.9372 0.1902 0.58017 0.0
O94 O 0.91629 0.1753 0.56646 0.0
O95 O 0.91493 0.19026 0.55719 0.0
O96 O 0.91216 0.18864 0.59424 0.0
O97 O 0.91147 0.19445 0.57819 0.0
Co98 Co 0.8213 0.9153 0.57966 0.0
O99 O 0.82655 0.90117 0.57838 0.0
O100 O 0.83539 0.91443 0.58508 0.0
C101 C 0.80527 0.91077 0.58572 0.0
O102 O 0.81871 0.93084 0.58269 0.0
Co103 Co 0.80182 0.92355 0.56764 0.0
O104 O 0.80274 0.93566 0.57723 0.0
C105 C 0.82197 0.92035 0.55657 0.0
C106 C 0.8352 0.90462 0.58245 0.0
C107 C 0.81121 0.93756 0.58211 0.0
O108 O 0.8268 0.91855 0.56522 0.0
O109 O 0.81209 0.92183 0.55596 0.0
O110 O 0.81314 0.91136 0.59216 0.0
O111 O 0.80749 0.91237 0.57605 0.0
Co112 Co 0.42376 0.08839 0.18024 0.0
O113 O 0.42452 0.10263 0.17525 0.0
O114 O 0.41746 0.08947 0.16653 0.0
C115 C 0.41861 0.09242 0.19672 0.0
O116 O 0.42113 0.07276 0.18272 0.0
Co117 Co 0.43746 0.08015 0.19858 0.0
O118 O 0.42867 0.06747 0.19767 0.0
C119 C 0.44684 0.08356 0.17771 0.0
C120 C 0.42001 0.09931 0.16677 0.0
C121 C 0.4229 0.06573 0.18974 0.0
O122 O 0.43782 0.08549 0.17368 0.0
O123 O 0.44833 0.08187 0.18745 0.0
O124 O 0.41175 0.09192 0.18922 0.0
O125 O 0.42818 0.09113 0.19389 0.0
Co126 Co 0.91413 0.42158 0.18174 0.0
O127 O 0.90005 0.42193 0.17627 0.0
O128 O 0.91414 0.41828 0.16695 0.0
C129 C 0.91017 0.41261 0.1964 0.0
O130 O 0.92984 0.42002 0.18448 0.0
Co131 Co 0.92021 0.43163 0.203 0.0
O132 O 0.93361 0.42406 0.20115 0.0
C133 C 0.91593 0.44503 0.18459 0.0
C134 C 0.90406 0.41959 0.16724 0.0
C135 C 0.93628 0.42049 0.19224 0.0
O136 O 0.91572 0.43698 0.17855 0.0
O137 O 0.9168 0.44437 0.19455 0.0
O138 O 0.91174 0.40758 0.1877 0.0
O139 O 0.91042 0.42263 0.19583 0.0
Co140 Co 0.57937 0.91545 0.18184 0.0
O141 O 0.57915 0.90119 0.17687 0.0
O142 O 0.58443 0.91479 0.1676 0.0
C143 C 0.58625 0.9119 0.19778 0.0
O144 O 0.58106 0.93122 0.18415 0.0
Co145 Co 0.56678 0.92262 0.2014 0.0
O146 O 0.57464 0.9359 0.19983 0.0
C147 C 0.55589 0.91693 0.18184 0.0
C148 C 0.58264 0.90479 0.16804 0.0
C149 C 0.57952 0.93805 0.19141 0.0
O150 O 0.56455 0.91738 0.17672 0.0
O151 O 0.55539 0.91772 0.19181 0.0
O152 O 0.5924 0.91276 0.1897 0.0
O153 O 0.57643 0.91249 0.19576 0.0
Co154 Co 0.08765 0.58188 0.18103 0.0
O155 O 0.10174 0.58131 0.17563 0.0
O156 O 0.08782 0.58573 0.16638 0.0
C157 C 0.09195 0.5901 0.19606 0.0
O158 O 0.07196 0.58378 0.18374 0.0
Co159 Co 0.08109 0.57139 0.20192 0.0
O160 O 0.06795 0.57944 0.20027 0.0
C161 C 0.08516 0.55846 0.1831 0.0
C162 C 0.09785 0.58408 0.16667 0.0
C163 C 0.06545 0.58329 0.19143 0.0
O164 O 0.08565 0.56666 0.17727 0.0
O165 O 0.08421 0.55886 0.19306 0.0
O166 O 0.09044 0.59556 0.1876 0.0
O167 O 0.09129 0.58014 0.19505 0.0
Co168 Co 0.42362 0.9165 0.82342 0.0
O169 O 0.42448 0.90221 0.82826 0.0
O170 O 0.41779 0.91533 0.83733 0.0
C171 C 0.41791 0.91252 0.80714 0.0
O172 O 0.42098 0.93216 0.82118 0.0
Co173 Co 0.43646 0.92501 0.80465 0.0
O174 O 0.42714 0.93735 0.80559 0.0
C175 C 0.44673 0.92138 0.82511 0.0
C176 C 0.42026 0.90547 0.8369 0.0
C177 C 0.422 0.9391 0.81393 0.0
O178 O 0.43791 0.9193 0.82948 0.0
O179 O 0.44778 0.92328 0.81534 0.0
O180 O 0.41129 0.91311 0.81485 0.0
O181 O 0.42758 0.91382 0.80961 0.0
Co182 Co 0.08735 0.42306 0.82206 0.0
O183 O 0.10148 0.42436 0.82717 0.0
O184 O 0.08843 0.41717 0.83597 0.0
C185 C 0.09148 0.41734 0.8058 0.0
O186 O 0.0718 0.42016 0.81941 0.0
Co187 Co 0.07957 0.43645 0.80325 0.0
O188 O 0.06646 0.42832 0.80478 0.0
C189 C 0.08457 0.4463 0.82343 0.0
C190 C 0.09819 0.41998 0.83572 0.0
C191 C 0.06473 0.42231 0.81254 0.0
O192 O 0.08412 0.43735 0.828 0.0
O193 O 0.0842 0.44738 0.81348 0.0
O194 O 0.09117 0.41075 0.81356 0.0
O195 O 0.09016 0.42698 0.80832 0.0
Co196 Co 0.58149 0.08698 0.82148 0.0
O197 O 0.58047 0.10104 0.82687 0.0
O198 O 0.58484 0.0872 0.83625 0.0
C199 C 0.59025 0.0914 0.80682 0.0
O200 O 0.58378 0.07133 0.81885 0.0
Co201 Co 0.57191 0.08022 0.80022 0.0
O202 O 0.58011 0.06722 0.80219 0.0
C203 C 0.55822 0.08363 0.81864 0.0
C204 C 0.58308 0.09721 0.8359 0.0
C205 C 0.58366 0.06479 0.81117 0.0
O206 O 0.56621 0.08462 0.8247 0.0
O207 O 0.55895 0.0826 0.80871 0.0
O208 O 0.59534 0.09004 0.81552 0.0
O209 O 0.58025 0.09059 0.80737 0.0
Co210 Co 0.91599 0.57978 0.82117 0.0
O211 O 0.90195 0.57796 0.82646 0.0
O212 O 0.91503 0.58489 0.83538 0.0
C213 C 0.91115 0.58613 0.80534 0.0
O214 O 0.93144 0.58328 0.81855 0.0
Co215 Co 0.92438 0.56849 0.80131 0.0
O216 O 0.93633 0.57826 0.80245 0.0
C217 C 0.92123 0.55676 0.8211 0.0
C218 C 0.90529 0.58201 0.83516 0.0
C219 C 0.93815 0.58298 0.81102 0.0
O220 O 0.91964 0.56527 0.82626 0.0
O221 O 0.92248 0.55649 0.81117 0.0
O222 O 0.91162 0.59238 0.81337 0.0
O223 O 0.91305 0.57646 0.8073 0.0
Co224 Co 0.18035 0.42087 0.08898 0.0
O225 O 0.17481 0.42062 0.103 0.0
O226 O 0.16573 0.41679 0.0888 0.0
C227 C 0.1955 0.4127 0.09289 0.0
O228 O 0.18336 0.41988 0.07328 0.0
Co229 Co 0.20101 0.43254 0.08372 0.0
O230 O 0.19942 0.42604 0.0697 0.0
C231 C 0.18199 0.44427 0.08928 0.0
C232 C 0.16591 0.41798 0.0989 0.0
C233 C 0.19095 0.42161 0.06687 0.0
O234 O 0.17634 0.43609 0.08771 0.0
O235 O 0.19199 0.44412 0.08926 0.0
O236 O 0.18716 0.40716 0.09107 0.0
O237 O 0.19424 0.42266 0.09289 0.0
Co238 Co 0.18062 0.57965 0.91484 0.0
O239 O 0.17542 0.57907 0.90067 0.0
O240 O 0.16647 0.58497 0.91424 0.0
C241 C 0.19663 0.58615 0.91087 0.0
O242 O 0.18327 0.58183 0.93049 0.0
Co243 Co 0.20001 0.56675 0.92193 0.0
O244 O 0.19838 0.5743 0.93538 0.0
C245 C 0.18016 0.55622 0.91686 0.0
C246 C 0.16672 0.58286 0.9043 0.0
C247 C 0.19032 0.5798 0.93741 0.0
O248 O 0.17525 0.56499 0.91734 0.0
O249 O 0.19013 0.5555 0.91731 0.0
O250 O 0.18867 0.59245 0.91165 0.0
O251 O 0.19445 0.57637 0.91173 0.0
Co252 Co 0.425 0.18264 0.91498 0.0
O253 O 0.42595 0.1773 0.90087 0.0
O254 O 0.42017 0.1683 0.91446 0.0
C255 C 0.41801 0.19829 0.91054 0.0
O256 O 0.42243 0.18531 0.93058 0.0
Co257 Co 0.43663 0.2027 0.92231 0.0
O258 O 0.42864 0.201 0.93546 0.0
C259 C 0.44836 0.18306 0.91864 0.0
C260 C 0.42237 0.16852 0.90454 0.0
C261 C 0.42372 0.19258 0.93745 0.0
O262 O 0.43981 0.17781 0.91773 0.0
O263 O 0.4486 0.19302 0.9196 0.0
O264 O 0.41197 0.19015 0.91154 0.0
O265 O 0.42784 0.19655 0.91168 0.0
Co266 Co 0.82175 0.42291 0.91432 0.0
O267 O 0.82684 0.42286 0.9001 0.0
O268 O 0.83581 0.41734 0.91381 0.0
C269 C 0.80557 0.41661 0.91075 0.0
O270 O 0.81919 0.42137 0.93005 0.0
Co271 Co 0.80278 0.4366 0.92103 0.0
O272 O 0.80443 0.42965 0.93482 0.0
C273 C 0.82264 0.44627 0.91473 0.0
C274 C 0.83553 0.41913 0.9038 0.0
C275 C 0.8123 0.42393 0.93697 0.0
O276 O 0.82743 0.43754 0.91616 0.0
O277 O 0.81269 0.44718 0.91504 0.0
O278 O 0.81341 0.41017 0.91168 0.0
O279 O 0.80797 0.42635 0.91122 0.0
Co280 Co 0.58041 0.82166 0.91691 0.0
O281 O 0.57838 0.82665 0.90279 0.0
O282 O 0.58542 0.83589 0.91559 0.0
C283 C 0.58679 0.80579 0.91228 0.0
O284 O 0.5841 0.81936 0.93237 0.0
Co285 Co 0.5693 0.80192 0.9258 0.0
O286 O 0.57928 0.80328 0.93753 0.0
C287 C 0.55748 0.82165 0.92258 0.0
C288 C 0.58242 0.83544 0.90589 0.0
C289 C 0.58395 0.81191 0.93918 0.0
O290 O 0.56594 0.82676 0.92065 0.0
O291 O 0.55723 0.81175 0.92408 0.0
O292 O 0.59299 0.81386 0.91251 0.0
O293 O 0.57713 0.80771 0.91427 0.0
Co294 Co 0.82139 0.58024 0.08796 0.0
O295 O 0.82656 0.5794 0.10212 0.0
O296 O 0.8356 0.58542 0.08868 0.0
C297 C 0.80545 0.58683 0.09203 0.0
O298 O 0.81882 0.58258 0.07232 0.0
Co299 Co 0.8018 0.56778 0.08061 0.0
O300 O 0.80313 0.57618 0.06763 0.0
C301 C 0.82154 0.55686 0.08562 0.0
C302 C 0.83532 0.58312 0.09858 0.0
C303 C 0.81146 0.58124 0.06555 0.0
O304 O 0.82659 0.56556 0.08535 0.0
O305 O 0.81156 0.55631 0.08497 0.0
O306 O 0.81345 0.59309 0.0913 0.0
O307 O 0.80755 0.57706 0.09101 0.0
Co308 Co 0.42279 0.82249 0.08696 0.0
O309 O 0.42459 0.8277 0.10102 0.0
O310 O 0.41734 0.83658 0.08804 0.0
C311 C 0.41665 0.80652 0.09157 0.0
O312 O 0.41934 0.81986 0.0715 0.0
Co313 Co 0.43475 0.8029 0.07873 0.0
O314 O 0.42572 0.80434 0.06627 0.0
C315 C 0.44586 0.82302 0.0817 0.0
C316 C 0.42031 0.83631 0.09776 0.0
C317 C 0.42045 0.81261 0.06455 0.0
O318 O 0.4372 0.82792 0.08332 0.0
O319 O 0.44645 0.8131 0.08053 0.0
O320 O 0.41031 0.81448 0.09121 0.0
O321 O 0.42632 0.80864 0.08984 0.0
Co322 Co 0.58003 0.18252 0.08632 0.0
O323 O 0.57797 0.17738 0.10039 0.0
O324 O 0.58546 0.16845 0.08759 0.0
C325 C 0.58599 0.19853 0.09103 0.0
O326 O 0.58376 0.18497 0.07091 0.0
Co327 Co 0.5685 0.20199 0.0774 0.0
O328 O 0.57858 0.20093 0.06571 0.0
C329 C 0.55714 0.18199 0.08059 0.0
C330 C 0.5823 0.16875 0.09724 0.0
C331 C 0.58347 0.19241 0.0641 0.0
O332 O 0.56572 0.17707 0.08249 0.0
O333 O 0.55666 0.19188 0.0791 0.0
O334 O 0.59237 0.1906 0.09081 0.0
O335 O 0.57638 0.19638 0.08899 0.0
Co336 Co 0.9395 0.82823 0.57152 0.0
O337 O 0.93514 0.8425 0.57405 0.0
O338 O 0.92534 0.82853 0.5768 0.0
C339 C 0.95565 0.82956 0.57876 0.0
O340 O 0.94108 0.81233 0.57027 0.0
Co341 Co 0.95864 0.82252 0.5576 0.0
O342 O 0.95663 0.80824 0.56323 0.0
C343 C 0.9388 0.82929 0.54779 0.0
C344 C 0.92616 0.83865 0.57688 0.0
C345 C 0.94808 0.80559 0.56759 0.0
O346 O 0.9341 0.82929 0.5567 0.0
O347 O 0.94857 0.82742 0.54668 0.0
O348 O 0.94753 0.82801 0.5847 0.0
O349 O 0.95361 0.83103 0.56902 0.0
Co350 Co 0.17409 0.94027 0.57176 0.0
O351 O 0.15985 0.9362 0.57467 0.0
O352 O 0.17373 0.92621 0.57739 0.0
C353 C 0.17331 0.95656 0.57872 0.0
O354 O 0.18992 0.94168 0.5699 0.0
Co355 Co 0.17897 0.95896 0.55692 0.0
O356 O 0.19372 0.95645 0.56114 0.0
C357 C 0.16961 0.93963 0.54877 0.0
C358 C 0.16361 0.92723 0.57759 0.0
C359 C 0.19654 0.94828 0.56611 0.0
O360 O 0.17244 0.9347 0.55707 0.0
O361 O 0.17038 0.94956 0.54776 0.0
O362 O 0.17489 0.94853 0.58478 0.0
O363 O 0.17138 0.95432 0.56911 0.0
Co364 Co 0.06255 0.17482 0.57004 0.0
O365 O 0.06682 0.1608 0.57379 0.0
O366 O 0.07679 0.17487 0.5751 0.0
C367 C 0.04648 0.17432 0.57751 0.0
O368 O 0.06108 0.19053 0.56735 0.0
Co369 Co 0.04333 0.17932 0.55582 0.0
O370 O 0.0453 0.19401 0.56043 0.0
C371 C 0.06263 0.17029 0.54682 0.0
C372 C 0.07589 0.16479 0.57608 0.0
C373 C 0.05393 0.197 0.56441 0.0
O374 O 0.06767 0.17229 0.55531 0.0
O375 O 0.05275 0.17169 0.54589 0.0
O376 O 0.05466 0.17635 0.58324 0.0
O377 O 0.04845 0.17193 0.56795 0.0
Co378 Co 0.82962 0.06151 0.57092 0.0
O379 O 0.84365 0.06604 0.57432 0.0
O380 O 0.82949 0.0759 0.57548 0.0
C381 C 0.83035 0.04578 0.57905 0.0
O382 O 0.8139 0.05982 0.56859 0.0
Co383 Co 0.82503 0.0417 0.5576 0.0
O384 O 0.81025 0.04408 0.56172 0.0
C385 C 0.83327 0.0608 0.54748 0.0
C386 C 0.83958 0.07512 0.57642 0.0
C387 C 0.80733 0.05276 0.56565 0.0
O388 O 0.83181 0.06609 0.55593 0.0
O389 O 0.83187 0.05089 0.54694 0.0
O390 O 0.82829 0.05418 0.58443 0.0
O391 O 0.83263 0.04732 0.56938 0.0
Co392 Co 0.94128 0.17483 0.43217 0.0
O393 O 0.93726 0.16057 0.42906 0.0
O394 O 0.92723 0.17445 0.42665 0.0
C395 C 0.9576 0.17421 0.42523 0.0
O396 O 0.94252 0.19066 0.43403 0.0
Co397 Co 0.95991 0.18014 0.44689 0.0
O398 O 0.95742 0.19479 0.44237 0.0
C399 C 0.94048 0.17127 0.45552 0.0
C400 C 0.92824 0.16434 0.42626 0.0
C401 C 0.9491 0.19743 0.43754 0.0
O402 O 0.9357 0.17311 0.44685 0.0
O403 O 0.95034 0.17253 0.45668 0.0
O404 O 0.94957 0.17574 0.41916 0.0
O405 O 0.95537 0.17224 0.43484 0.0
Co406 Co 0.82948 0.94164 0.43173 0.0
O407 O 0.84374 0.93757 0.42875 0.0
O408 O 0.82988 0.9275 0.4264 0.0
C409 C 0.83017 0.95782 0.42451 0.0
O410 O 0.81363 0.94289 0.43352 0.0
Co411 Co 0.824 0.96061 0.44596 0.0
O412 O 0.80943 0.95809 0.44126 0.0
C413 C 0.8329 0.94133 0.4551 0.0
C414 C 0.83999 0.92852 0.42604 0.0
C415 C 0.80683 0.94962 0.43671 0.0
O416 O 0.83123 0.93632 0.44652 0.0
O417 O 0.83145 0.9512 0.45601 0.0
O418 O 0.8286 0.9497 0.41857 0.0
O419 O 0.83207 0.95576 0.43416 0.0
Co420 Co 0.06251 0.82993 0.43078 0.0
O421 O 0.06698 0.84408 0.42798 0.0
O422 O 0.07692 0.83001 0.42619 0.0
C423 C 0.04685 0.83096 0.42256 0.0
O424 O 0.06082 0.81413 0.4327 0.0
Co425 Co 0.04253 0.82498 0.44376 0.0
O426 O 0.04477 0.81043 0.43884 0.0
C427 C 0.06149 0.83332 0.45415 0.0
C428 C 0.07606 0.84013 0.42571 0.0
C429 C 0.05357 0.80756 0.43515 0.0
O430 O 0.06696 0.83172 0.44584 0.0
O431 O 0.05157 0.83197 0.45449 0.0
O432 O 0.05527 0.82902 0.41718 0.0
O433 O 0.04833 0.83291 0.43231 0.0
Co434 Co 0.17584 0.06346 0.43153 0.0
O435 O 0.16159 0.06773 0.42876 0.0
O436 O 0.17557 0.07747 0.42587 0.0
C437 C 0.17468 0.0471 0.42476 0.0
O438 O 0.19173 0.06194 0.43299 0.0
Co439 Co 0.18142 0.04477 0.44611 0.0
O440 O 0.19572 0.04654 0.44044 0.0
C441 C 0.17453 0.06488 0.45522 0.0
C442 C 0.16544 0.07665 0.42577 0.0
C443 C 0.19843 0.05497 0.43587 0.0
O444 O 0.17463 0.06929 0.44618 0.0
O445 O 0.17639 0.05515 0.45667 0.0
O446 O 0.17624 0.05505 0.41859 0.0
O447 O 0.17306 0.04943 0.43442 0.0
Co448 Co 0.57185 0.9393 0.82879 0.0
O449 O 0.57437 0.93504 0.84307 0.0
O450 O 0.57708 0.9251 0.82918 0.0
C451 C 0.57919 0.95539 0.83008 0.0
O452 O 0.57047 0.9408 0.81291 0.0
Co453 Co 0.55818 0.9586 0.82302 0.0
O454 O 0.56433 0.95677 0.80891 0.0
C455 C 0.54818 0.93888 0.83003 0.0
C456 C 0.57714 0.92601 0.83931 0.0
C457 C 0.56829 0.94803 0.80623 0.0
O458 O 0.557 0.93404 0.82995 0.0
O459 O 0.54723 0.94867 0.82816 0.0
O460 O 0.58508 0.94725 0.82839 0.0
O461 O 0.56946 0.95341 0.8316 0.0
Co462 Co 0.06162 0.57172 0.82918 0.0
O463 O 0.06628 0.57577 0.84297 0.0
O464 O 0.07621 0.57571 0.82882 0.0
C465 C 0.04621 0.58044 0.82943 0.0
O466 O 0.05977 0.56845 0.81365 0.0
Co467 Co 0.04132 0.5588 0.82563 0.0
O468 O 0.04364 0.56217 0.81061 0.0
C469 C 0.0599 0.54896 0.83511 0.0
C470 C 0.07544 0.57725 0.83884 0.0
C471 C 0.05246 0.56551 0.80737 0.0
O472 O 0.06561 0.55674 0.83224 0.0
O473 O 0.04993 0.54884 0.83419 0.0
O474 O 0.05478 0.58539 0.82702 0.0
O475 O 0.04742 0.57089 0.83231 0.0
Co476 Co 0.43059 0.06304 0.82902 0.0
O477 O 0.42759 0.06788 0.84303 0.0
O478 O 0.4271 0.07777 0.82885 0.0
C479 C 0.42128 0.04807 0.82995 0.0
O480 O 0.43274 0.06106 0.8133 0.0
Co481 Co 0.44237 0.04228 0.82459 0.0
O482 O 0.43837 0.04481 0.80981 0.0
C483 C 0.45398 0.06072 0.83236 0.0
C484 C 0.42614 0.07707 0.83895 0.0
C485 C 0.43512 0.05374 0.8068 0.0
O486 O 0.44586 0.06654 0.83108 0.0
O487 O 0.45385 0.05079 0.83102 0.0
O488 O 0.41657 0.05681 0.82773 0.0
O489 O 0.43105 0.04879 0.8322 0.0
Co490 Co 0.94051 0.43157 0.82871 0.0
O491 O 0.93608 0.42821 0.84279 0.0
O492 O 0.92618 0.42682 0.82869 0.0
C493 C 0.9564 0.42372 0.82944 0.0
O494 O 0.94206 0.43387 0.81295 0.0
Co495 Co 0.96012 0.44513 0.82383 0.0
O496 O 0.95794 0.44037 0.80921 0.0
C497 C 0.9411 0.45485 0.83275 0.0
C498 C 0.92701 0.426 0.83878 0.0
C499 C 0.9492 0.43653 0.80636 0.0
O500 O 0.93577 0.4465 0.8309 0.0
O501 O 0.95099 0.45542 0.83133 0.0
O502 O 0.9481 0.41815 0.8275 0.0
O503 O 0.95466 0.43338 0.83158 0.0
Co504 Co 0.57116 0.06466 0.17343 0.0
O505 O 0.57317 0.06842 0.15893 0.0
O506 O 0.57767 0.07826 0.17244 0.0
C507 C 0.57696 0.04795 0.17227 0.0
O508 O 0.57059 0.06362 0.18939 0.0
Co509 Co 0.55597 0.04696 0.18036 0.0
O510 O 0.56245 0.04886 0.19429 0.0
C511 C 0.54758 0.06738 0.17344 0.0
C512 C 0.57698 0.07719 0.16236 0.0
C513 C 0.56766 0.05706 0.19646 0.0
O514 O 0.55683 0.07128 0.1729 0.0
O515 O 0.54569 0.05782 0.1757 0.0
O516 O 0.58361 0.05559 0.17333 0.0
O517 O 0.56735 0.05073 0.17115 0.0
Co518 Co 0.94066 0.57062 0.17332 0.0
O519 O 0.9363 0.57347 0.15911 0.0
O520 O 0.9263 0.57537 0.17309 0.0
C521 C 0.95648 0.57857 0.17238 0.0
O522 O 0.94214 0.56883 0.18914 0.0
Co523 Co 0.96037 0.55743 0.17872 0.0
O524 O 0.95804 0.56255 0.19319 0.0
C525 C 0.94125 0.54708 0.17067 0.0
C526 C 0.92721 0.57585 0.16298 0.0
C527 C 0.94923 0.56638 0.19586 0.0
O528 O 0.93598 0.55561 0.17168 0.0
O529 O 0.95113 0.54655 0.17225 0.0
O530 O 0.94813 0.58411 0.17419 0.0
O531 O 0.95486 0.56883 0.17051 0.0
Co532 Co 0.43056 0.94072 0.17351 0.0
O533 O 0.42751 0.93667 0.15929 0.0
O534 O 0.42498 0.92665 0.17318 0.0
C535 C 0.42354 0.95699 0.17283 0.0
O536 O 0.43262 0.94208 0.18931 0.0
Co537 Co 0.44528 0.95953 0.17838 0.0
O538 O 0.44061 0.95731 0.19304 0.0
C539 C 0.45359 0.94018 0.16907 0.0
C540 C 0.42466 0.92769 0.16307 0.0
C541 C 0.436 0.94894 0.19588 0.0
O542 O 0.44524 0.93521 0.1717 0.0
O543 O 0.45461 0.95009 0.16998 0.0
O544 O 0.41751 0.94894 0.17447 0.0
O545 O 0.43313 0.95478 0.17081 0.0
Co546 Co 0.06162 0.43277 0.17496 0.0
O547 O 0.06597 0.42958 0.16082 0.0
O548 O 0.07596 0.42796 0.17484 0.0
C549 C 0.04575 0.4249 0.17405 0.0
O550 O 0.06009 0.43489 0.19076 0.0
Co551 Co 0.04195 0.44615 0.18003 0.0
O552 O 0.04411 0.44113 0.19456 0.0
C553 C 0.06119 0.45627 0.17197 0.0
C554 C 0.07506 0.42726 0.16474 0.0
C555 C 0.05291 0.43739 0.19737 0.0
O556 O 0.0664 0.44771 0.17302 0.0
O557 O 0.05132 0.4569 0.17356 0.0
O558 O 0.05404 0.41934 0.17606 0.0
O559 O 0.04745 0.4346 0.17204 0.0
Co560 Co 0.83025 0.57201 0.94027 0.0
O561 O 0.8444 0.57511 0.93598 0.0
O562 O 0.83038 0.57725 0.92609 0.0
C563 C 0.83112 0.57934 0.95638 0.0
O564 O 0.81447 0.57005 0.9418 0.0
Co565 Co 0.82536 0.55776 0.95935 0.0
O566 O 0.81063 0.56212 0.957 0.0
C567 C 0.83384 0.54865 0.93993 0.0
C568 C 0.8405 0.57769 0.92696 0.0
C569 C 0.80782 0.56669 0.9486 0.0
O570 O 0.83199 0.55723 0.93499 0.0
O571 O 0.8327 0.5477 0.94983 0.0
O572 O 0.82927 0.5852 0.94825 0.0
O573 O 0.83314 0.5697 0.95436 0.0
Co574 Co 0.8291 0.43193 0.06217 0.0
O575 O 0.84313 0.42822 0.06646 0.0
O576 O 0.82901 0.42656 0.0763 0.0
C577 C 0.82967 0.42483 0.04593 0.0
O578 O 0.8134 0.43452 0.0606 0.0
Co579 Co 0.82496 0.44677 0.04333 0.0
O580 O 0.81003 0.44312 0.04565 0.0
C581 C 0.83449 0.45477 0.06264 0.0
C582 C 0.83911 0.42573 0.07546 0.0
C583 C 0.80696 0.43839 0.05388 0.0
O584 O 0.83144 0.44657 0.06761 0.0
O585 O 0.83375 0.45576 0.05271 0.0
O586 O 0.8277 0.41889 0.05397 0.0
O587 O 0.83206 0.43433 0.04813 0.0
Co588 Co 0.57105 0.82962 0.063 0.0
O589 O 0.57478 0.84356 0.06757 0.0
O590 O 0.57539 0.82938 0.07746 0.0
C591 C 0.57939 0.83007 0.04737 0.0
O592 O 0.5683 0.81396 0.06132 0.0
Co593 Co 0.5578 0.82536 0.04309 0.0
O594 O 0.56131 0.81044 0.04561 0.0
C595 C 0.54792 0.83449 0.06188 0.0
C596 C 0.57658 0.83945 0.07669 0.0
C597 C 0.56514 0.80745 0.05431 0.0
O598 O 0.55609 0.8323 0.06736 0.0
O599 O 0.54754 0.8332 0.05196 0.0
O600 O 0.58461 0.82789 0.05583 0.0
O601 O 0.56977 0.83262 0.04879 0.0
Co602 Co 0.17378 0.57122 0.06225 0.0
O603 O 0.15962 0.57434 0.06656 0.0
O604 O 0.17367 0.57659 0.07638 0.0
C605 C 0.17283 0.57835 0.04604 0.0
O606 O 0.18956 0.56924 0.06066 0.0
Co607 Co 0.17858 0.55672 0.04328 0.0
O608 O 0.19319 0.56166 0.04522 0.0
C609 C 0.17034 0.54784 0.06291 0.0
C610 C 0.16355 0.57704 0.07553 0.0
C611 C 0.19609 0.56611 0.05366 0.0
O612 O 0.17217 0.55649 0.06771 0.0
O613 O 0.17137 0.54673 0.05301 0.0
O614 O 0.1746 0.58432 0.0541 0.0
O615 O 0.17087 0.56873 0.0482 0.0
Co616 Co 0.4323 0.17466 0.06228 0.0
O617 O 0.42852 0.16066 0.06663 0.0
O618 O 0.42715 0.17481 0.07647 0.0
C619 C 0.42492 0.17416 0.04616 0.0
O620 O 0.43495 0.19035 0.06075 0.0
Co621 Co 0.4467 0.17903 0.04317 0.0
O622 O 0.44295 0.19391 0.04552 0.0
C623 C 0.45539 0.16975 0.06243 0.0
C624 C 0.42618 0.16473 0.07565 0.0
C625 C 0.43852 0.19688 0.05394 0.0
O626 O 0.44703 0.17216 0.06749 0.0
O627 O 0.45627 0.17091 0.05252 0.0
O628 O 0.41914 0.17616 0.0543 0.0
O629 O 0.43446 0.17173 0.04818 0.0
Co630 Co 0.17248 0.43056 0.94138 0.0
O631 O 0.15834 0.42739 0.9371 0.0
O632 O 0.17234 0.42565 0.92707 0.0
C633 C 0.17178 0.42273 0.95724 0.0
O634 O 0.18823 0.43277 0.9428 0.0
Co635 Co 0.17743 0.44418 0.96089 0.0
O636 O 0.19215 0.43982 0.95841 0.0
C637 C 0.16797 0.4536 0.94207 0.0
C638 C 0.16224 0.42502 0.92803 0.0
C639 C 0.1949 0.43575 0.94973 0.0
O640 O 0.17039 0.44548 0.93663 0.0
O641 O 0.1691 0.45409 0.952 0.0
O642 O 0.17377 0.41717 0.94895 0.0
O643 O 0.16963 0.4324 0.95556 0.0
Co644 Co 0.57255 0.17343 0.94048 0.0
O645 O 0.57622 0.15946 0.93601 0.0
O646 O 0.57681 0.17352 0.92597 0.0
C647 C 0.58097 0.17304 0.95604 0.0
O648 O 0.56979 0.18911 0.94211 0.0
Co649 Co 0.55935 0.17763 0.96043 0.0
O650 O 0.56287 0.19254 0.95788 0.0
C651 C 0.54936 0.16869 0.94163 0.0
C652 C 0.57795 0.16346 0.92684 0.0
C653 C 0.56665 0.19558 0.94917 0.0
O654 O 0.55757 0.17074 0.93618 0.0
O655 O 0.54894 0.17 0.95155 0.0
O656 O 0.58614 0.17522 0.94754 0.0
O657 O 0.57135 0.17046 0.9547 0.0
Co658 Co 0.43182 0.82845 0.94053 0.0
O659 O 0.42832 0.84252 0.93621 0.0
O660 O 0.42716 0.82849 0.92617 0.0
C661 C 0.42386 0.82896 0.95638 0.0
O662 O 0.43432 0.8127 0.942 0.0
Co663 Co 0.4454 0.82371 0.96015 0.0
O664 O 0.44102 0.809 0.95781 0.0
C665 C 0.45502 0.83287 0.94123 0.0
C666 C 0.42622 0.83857 0.92708 0.0
C667 C 0.43719 0.80613 0.94908 0.0
O668 O 0.44674 0.83083 0.93587 0.0
O669 O 0.45558 0.83149 0.95113 0.0
O670 O 0.41837 0.82703 0.94802 0.0
O671 O 0.4335 0.83124 0.95472 0.0
Co672 Co 0.58803 0.68176 0.92182 0.0
O673 O 0.60223 0.6766 0.922 0.0
O674 O 0.58848 0.66747 0.91684 0.0
C675 C 0.59175 0.69762 0.91484 0.0
O676 O 0.57231 0.68434 0.92016 0.0
Co677 Co 0.58135 0.70143 0.93452 0.0
O678 O 0.5678 0.69982 0.92715 0.0
C679 C 0.5874 0.68198 0.9452 0.0
C680 C 0.59849 0.6678 0.91859 0.0
C681 C 0.56553 0.69157 0.92204 0.0
O682 O 0.58613 0.67676 0.93669 0.0
O683 O 0.58707 0.69197 0.94564 0.0
O684 O 0.59078 0.68954 0.90872 0.0
O685 O 0.59121 0.69564 0.92467 0.0
Co686 Co 0.32136 0.58706 0.92431 0.0
O687 O 0.32645 0.60111 0.9266 0.0
O688 O 0.33538 0.5885 0.9188 0.0
C689 C 0.30528 0.59174 0.91849 0.0
O690 O 0.31893 0.57169 0.92034 0.0
Co691 Co 0.30198 0.57806 0.93601 0.0
O692 O 0.30352 0.56596 0.92652 0.0
C693 C 0.32215 0.58083 0.94712 0.0
C694 C 0.33506 0.5981 0.92213 0.0
C695 C 0.31182 0.56457 0.9212 0.0
O696 O 0.32695 0.58294 0.93852 0.0
O697 O 0.31225 0.57945 0.94772 0.0
O698 O 0.31319 0.5917 0.91208 0.0
O699 O 0.30749 0.58963 0.92807 0.0
Co700 Co 0.41614 0.3221 0.92322 0.0
O701 O 0.40229 0.32776 0.9252 0.0
O702 O 0.41579 0.33668 0.91907 0.0
C703 C 0.41081 0.30711 0.91557 0.0
O704 O 0.43154 0.31912 0.91985 0.0
Co705 Co 0.42339 0.30119 0.93319 0.0
O706 O 0.43572 0.30257 0.92392 0.0
C707 C 0.42101 0.32023 0.94627 0.0
C708 C 0.40599 0.33657 0.92179 0.0
C709 C 0.43797 0.31135 0.91982 0.0
O710 O 0.41969 0.32599 0.93811 0.0
O711 O 0.42183 0.31025 0.94587 0.0
O712 O 0.41192 0.31552 0.90996 0.0
O713 O 0.41244 0.30813 0.92544 0.0
Co714 Co 0.68076 0.41587 0.92432 0.0
O715 O 0.67574 0.40171 0.92598 0.0
O716 O 0.66659 0.41467 0.91913 0.0
C717 C 0.69675 0.41146 0.91801 0.0
O718 O 0.68311 0.43142 0.92103 0.0
Co719 Co 0.7004 0.42446 0.93589 0.0
O720 O 0.69911 0.43646 0.92622 0.0
C721 C 0.6805 0.4211 0.94738 0.0
C722 C 0.66698 0.40491 0.92194 0.0
C723 C 0.69054 0.43823 0.92148 0.0
O724 O 0.6755 0.41932 0.93882 0.0
O725 O 0.69041 0.42254 0.94777 0.0
O726 O 0.68874 0.4118 0.91173 0.0
O727 O 0.69468 0.41318 0.92769 0.0
Co728 Co 0.58647 0.3225 0.0796 0.0
O729 O 0.60068 0.3275 0.07823 0.0
O730 O 0.5875 0.33676 0.08452 0.0
C731 C 0.59076 0.30665 0.08629 0.0
O732 O 0.57088 0.32023 0.08264 0.0
Co733 Co 0.57802 0.30268 0.06828 0.0
O734 O 0.56567 0.30428 0.07747 0.0
C735 C 0.58192 0.32226 0.05643 0.0
C736 C 0.59734 0.33632 0.08201 0.0
C737 C 0.56395 0.31292 0.08211 0.0
O738 O 0.58337 0.32747 0.06493 0.0
O739 O 0.58051 0.31235 0.05623 0.0
O740 O 0.59026 0.31476 0.09243 0.0
O741 O 0.58922 0.30853 0.07654 0.0
Co742 Co 0.68037 0.5864 0.08102 0.0
O743 O 0.67539 0.60045 0.07863 0.0
O744 O 0.66654 0.58813 0.08696 0.0
C745 C 0.69666 0.59102 0.0862 0.0
O746 O 0.68281 0.57107 0.08517 0.0
Co747 Co 0.69911 0.57691 0.06878 0.0
O748 O 0.69853 0.56572 0.07944 0.0
C749 C 0.67852 0.57948 0.05845 0.0
C750 C 0.66688 0.59764 0.08338 0.0
C751 C 0.69025 0.56427 0.08477 0.0
O752 O 0.6742 0.58213 0.06714 0.0
O753 O 0.68832 0.57768 0.05744 0.0
O754 O 0.68897 0.59117 0.09286 0.0
O755 O 0.69413 0.58875 0.07673 0.0
Co756 Co 0.41602 0.68172 0.07973 0.0
O757 O 0.40194 0.67682 0.07731 0.0
O758 O 0.41442 0.66766 0.08507 0.0
C759 C 0.41146 0.69776 0.08572 0.0
O760 O 0.43138 0.68396 0.08381 0.0
Co761 Co 0.42539 0.70116 0.06845 0.0
O762 O 0.43681 0.6999 0.07881 0.0
C763 C 0.4224 0.6812 0.05698 0.0
C764 C 0.40485 0.66814 0.08171 0.0
C765 C 0.43826 0.69134 0.08368 0.0
O766 O 0.42015 0.67629 0.06549 0.0
O767 O 0.42399 0.69107 0.05657 0.0
O768 O 0.41138 0.68978 0.09203 0.0
O769 O 0.41363 0.69565 0.07613 0.0
Co770 Co 0.32196 0.41662 0.07857 0.0
O771 O 0.32667 0.40232 0.07726 0.0
O772 O 0.33561 0.41502 0.08485 0.0
C773 C 0.3054 0.41272 0.0835 0.0
O774 O 0.31984 0.4322 0.08179 0.0
Co775 Co 0.3038 0.426 0.0654 0.0
O776 O 0.30458 0.4379 0.07526 0.0
C777 C 0.32458 0.42246 0.05577 0.0
C778 C 0.33518 0.40529 0.08194 0.0
C779 C 0.31275 0.4393 0.08077 0.0
O780 O 0.32859 0.41995 0.06465 0.0
O781 O 0.31489 0.42456 0.05443 0.0
O782 O 0.31288 0.41277 0.09041 0.0
O783 O 0.30827 0.4144 0.074 0.0
Co784 Co 0.92198 0.58698 0.68135 0.0
O785 O 0.92214 0.60116 0.67616 0.0
O786 O 0.91674 0.5874 0.66717 0.0
C787 C 0.91532 0.59081 0.69731 0.0
O788 O 0.92029 0.57127 0.68396 0.0
Co789 Co 0.93493 0.58016 0.70079 0.0
O790 O 0.92745 0.56664 0.69933 0.0
C791 C 0.94533 0.5862 0.68115 0.0
C792 C 0.91853 0.5974 0.66743 0.0
C793 C 0.92221 0.56445 0.69114 0.0
O794 O 0.93673 0.58499 0.67608 0.0
O795 O 0.94593 0.58582 0.69114 0.0
O796 O 0.90906 0.58982 0.68934 0.0
O797 O 0.92511 0.59017 0.69518 0.0
Co798 Co 0.41538 0.92252 0.68233 0.0
O799 O 0.40125 0.92311 0.67699 0.0
O800 O 0.41509 0.91841 0.66776 0.0
C801 C 0.41126 0.91452 0.69749 0.0
O802 O 0.43106 0.92045 0.68491 0.0
Co803 Co 0.42225 0.93338 0.70291 0.0
O804 O 0.43569 0.92595 0.70093 0.0
C805 C 0.41806 0.94597 0.68394 0.0
C806 C 0.40508 0.92013 0.66807 0.0
C807 C 0.43787 0.92155 0.69227 0.0
O808 O 0.41746 0.93766 0.67828 0.0
O809 O 0.4191 0.94577 0.6939 0.0
O810 O 0.41255 0.90897 0.68906 0.0
O811 O 0.41192 0.92448 0.69639 0.0
Co812 Co 0.08002 0.41586 0.68014 0.0
O813 O 0.07863 0.40174 0.67496 0.0
O814 O 0.08552 0.41487 0.66607 0.0
C815 C 0.08599 0.41142 0.69623 0.0
O816 O 0.08315 0.43139 0.68277 0.0
Co817 Co 0.06776 0.4241 0.6995 0.0
O818 O 0.07754 0.43607 0.69874 0.0
C819 C 0.057 0.42146 0.67914 0.0
C820 C 0.0828 0.40508 0.66632 0.0
C821 C 0.08251 0.43803 0.69034 0.0
O822 O 0.06567 0.41928 0.6745 0.0
O823 O 0.05622 0.423 0.689 0.0
O824 O 0.09245 0.41185 0.68837 0.0
O825 O 0.07633 0.413 0.69395 0.0
Co826 Co 0.58889 0.07892 0.68193 0.0
O827 O 0.60305 0.07857 0.67671 0.0
O828 O 0.58939 0.08434 0.6678 0.0
C829 C 0.59289 0.08527 0.69798 0.0
O830 O 0.57322 0.08086 0.68462 0.0
Co831 Co 0.582 0.06575 0.7012 0.0
O832 O 0.5684 0.07304 0.6996 0.0
C833 C 0.58723 0.05548 0.68124 0.0
C834 C 0.59936 0.08231 0.66802 0.0
C835 C 0.56631 0.07862 0.69162 0.0
O836 O 0.5866 0.0643 0.67642 0.0
O837 O 0.58678 0.05466 0.6912 0.0
O838 O 0.59191 0.09167 0.69011 0.0
O839 O 0.59211 0.07552 0.6957 0.0
Co840 Co 0.92455 0.41735 0.32136 0.0
O841 O 0.92668 0.40324 0.32634 0.0
O842 O 0.91907 0.41586 0.33539 0.0
C843 C 0.91867 0.41277 0.30527 0.0
O844 O 0.92074 0.43278 0.31908 0.0
Co845 Co 0.93607 0.42654 0.302 0.0
O846 O 0.92627 0.43844 0.30341 0.0
C847 C 0.94738 0.42325 0.32202 0.0
C848 C 0.9223 0.40624 0.33499 0.0
C849 C 0.92125 0.43984 0.31189 0.0
O850 O 0.9388 0.42125 0.3269 0.0
O851 O 0.94787 0.42477 0.31214 0.0
O852 O 0.91225 0.41292 0.31317 0.0
O853 O 0.92826 0.41484 0.30746 0.0
Co854 Co 0.58725 0.92257 0.32291 0.0
O855 O 0.60141 0.92363 0.3281 0.0
O856 O 0.58813 0.91687 0.33688 0.0
C857 C 0.59152 0.91673 0.30674 0.0
O858 O 0.57167 0.91973 0.32033 0.0
Co859 Co 0.57917 0.93536 0.30385 0.0
O860 O 0.56646 0.92664 0.30505 0.0
C861 C 0.58246 0.94575 0.32426 0.0
C862 C 0.59796 0.91943 0.33669 0.0
C863 C 0.56468 0.9212 0.3132 0.0
O864 O 0.58417 0.93693 0.32878 0.0
O865 O 0.581 0.94674 0.31441 0.0
O866 O 0.59102 0.91019 0.31452 0.0
O867 O 0.59013 0.9264 0.30913 0.0
Co868 Co 0.07844 0.58715 0.32229 0.0
O869 O 0.07694 0.6013 0.32742 0.0
O870 O 0.08464 0.58843 0.33602 0.0
C871 C 0.0834 0.59159 0.30586 0.0
O872 O 0.08188 0.57169 0.3197 0.0
Co873 Co 0.06547 0.5782 0.30377 0.0
O874 O 0.07569 0.56657 0.30409 0.0
C875 C 0.05572 0.58083 0.32463 0.0
C876 C 0.08163 0.59814 0.33586 0.0
C877 C 0.08112 0.56492 0.31226 0.0
O878 O 0.06453 0.58343 0.32874 0.0
O879 O 0.05445 0.57899 0.31487 0.0
O880 O 0.09027 0.59141 0.31337 0.0
O881 O 0.07392 0.58974 0.30865 0.0
Co882 Co 0.41537 0.08297 0.32076 0.0
O883 O 0.40129 0.08321 0.32619 0.0
O884 O 0.41551 0.08617 0.33556 0.0
C885 C 0.41191 0.09218 0.30613 0.0
O886 O 0.43111 0.08381 0.31807 0.0
Co887 Co 0.42092 0.07261 0.29949 0.0
O888 O 0.43487 0.07914 0.30156 0.0
C889 C 0.41513 0.05964 0.31769 0.0
C890 C 0.40539 0.08529 0.33524 0.0
C891 C 0.4376 0.08276 0.31043 0.0
O892 O 0.4163 0.06751 0.32385 0.0
O893 O 0.41555 0.06036 0.30771 0.0
O894 O 0.41364 0.0971 0.31486 0.0
O895 O 0.41168 0.08215 0.30668 0.0
Co896 Co 0.6818 0.92026 0.58822 0.0
O897 O 0.67633 0.92069 0.60231 0.0
O898 O 0.66706 0.9169 0.58821 0.0
C899 C 0.6965 0.91135 0.59213 0.0
O900 O 0.68445 0.91854 0.57252 0.0
Co901 Co 0.70293 0.93043 0.58194 0.0
O902 O 0.70065 0.92373 0.56816 0.0
C903 C 0.68455 0.94371 0.58652 0.0
C904 C 0.66732 0.91828 0.59828 0.0
C905 C 0.69187 0.91967 0.56579 0.0
O906 O 0.67853 0.93564 0.58655 0.0
O907 O 0.69451 0.94308 0.58571 0.0
O908 O 0.68778 0.90631 0.5907 0.0
O909 O 0.69592 0.92138 0.59182 0.0
Co910 Co 0.68195 0.07894 0.41618 0.0
O911 O 0.67691 0.07741 0.40203 0.0
O912 O 0.66801 0.08473 0.41494 0.0
C913 C 0.69816 0.08464 0.41187 0.0
O914 O 0.68438 0.08212 0.43173 0.0
Co915 Co 0.70097 0.06632 0.42464 0.0
O916 O 0.69954 0.07517 0.43724 0.0
C917 C 0.68059 0.05586 0.42119 0.0
C918 C 0.66831 0.08176 0.40522 0.0
C919 C 0.6914 0.08068 0.43883 0.0
O920 O 0.67603 0.06468 0.41952 0.0
O921 O 0.69045 0.05492 0.42263 0.0
O922 O 0.6904 0.09121 0.41225 0.0
O923 O 0.69575 0.07501 0.41346 0.0
Co924 Co 0.92356 0.68179 0.41654 0.0
O925 O 0.92543 0.67702 0.40232 0.0
O926 O 0.91787 0.66784 0.4149 0.0
C927 C 0.91781 0.69805 0.41243 0.0
O928 O 0.92002 0.68395 0.43206 0.0
Co929 Co 0.93587 0.70078 0.42558 0.0
O930 O 0.92664 0.69915 0.43787 0.0
C931 C 0.94656 0.68057 0.42186 0.0
C932 C 0.92101 0.66836 0.40525 0.0
C933 C 0.92119 0.69093 0.43925 0.0
O934 O 0.9378 0.67592 0.42009 0.0
O935 O 0.94737 0.69043 0.4234 0.0
O936 O 0.91131 0.69022 0.41244 0.0
O937 O 0.92742 0.69565 0.41418 0.0
Co938 Co 0.32224 0.92345 0.41602 0.0
O939 O 0.3274 0.92413 0.40184 0.0
O940 O 0.33647 0.91835 0.41538 0.0
C941 C 0.30636 0.91676 0.41196 0.0
O942 O 0.31971 0.92121 0.43167 0.0
Co943 Co 0.30264 0.93582 0.42341 0.0
O944 O 0.30405 0.92758 0.43648 0.0
C945 C 0.32229 0.94685 0.41831 0.0
C946 C 0.33616 0.92045 0.40544 0.0
C947 C 0.31242 0.92256 0.43851 0.0
O948 O 0.32739 0.93817 0.41851 0.0
O949 O 0.31232 0.94736 0.41904 0.0
O950 O 0.3144 0.91056 0.41276 0.0
O951 O 0.30837 0.92655 0.41295 0.0
Co952 Co 0.08071 0.32133 0.415 0.0
O953 O 0.08001 0.32699 0.401 0.0
O954 O 0.08438 0.33602 0.41508 0.0
C955 C 0.08915 0.30654 0.41041 0.0
O956 O 0.08274 0.31846 0.43063 0.0
Co957 Co 0.07067 0.30025 0.42148 0.0
O958 O 0.07891 0.30179 0.43453 0.0
C959 C 0.05736 0.31887 0.41762 0.0
C960 C 0.08272 0.3359 0.40505 0.0
C961 C 0.08254 0.3107 0.43707 0.0
O962 O 0.06547 0.32483 0.41712 0.0
O963 O 0.05794 0.30891 0.41854 0.0
O964 O 0.09446 0.31507 0.41203 0.0
O965 O 0.07917 0.30732 0.41116 0.0
Co966 Co 0.32256 0.07959 0.58805 0.0
O967 O 0.32776 0.07944 0.60222 0.0
O968 O 0.33667 0.08508 0.58852 0.0
C969 C 0.30644 0.08594 0.59183 0.0
O970 O 0.31984 0.0813 0.57236 0.0
Co971 Co 0.30332 0.0662 0.58135 0.0
O972 O 0.30434 0.07419 0.56807 0.0
C973 C 0.32333 0.05617 0.58678 0.0
C974 C 0.33644 0.08319 0.59851 0.0
C975 C 0.31246 0.07949 0.56574 0.0
O976 O 0.32814 0.06496 0.58592 0.0
O977 O 0.31337 0.05526 0.5864 0.0
O978 O 0.3143 0.09235 0.59091 0.0
O979 O 0.3088 0.07619 0.59124 0.0
Co980 Co 0.92428 0.32128 0.58627 0.0
O981 O 0.92687 0.32637 0.60026 0.0
O982 O 0.91902 0.33539 0.58775 0.0
C983 C 0.91829 0.30533 0.59114 0.0
O984 O 0.92005 0.31887 0.57097 0.0
Co985 Co 0.93537 0.30167 0.57704 0.0
O986 O 0.9251 0.30294 0.56555 0.0
C987 C 0.94698 0.32159 0.57973 0.0
C988 C 0.92247 0.33503 0.5973 0.0
C989 C 0.9202 0.31149 0.56409 0.0
O990 O 0.93851 0.32659 0.58191 0.0
O991 O 0.94733 0.31168 0.57833 0.0
O992 O 0.912 0.31333 0.59116 0.0
O993 O 0.92785 0.30737 0.58881 0.0
Co994 Co 0.08028 0.681 0.58782 0.0
O995 O 0.08 0.67608 0.6021 0.0
O996 O 0.08585 0.66695 0.58863 0.0
C997 C 0.08652 0.6972 0.59134 0.0
O998 O 0.08219 0.68341 0.57209 0.0
Co999 Co 0.06677 0.69994 0.58063 0.0
O1000 O 0.07413 0.69822 0.56709 0.0
C1001 C 0.05684 0.68004 0.5865 0.0
C1002 C 0.08386 0.66737 0.59859 0.0
C1003 C 0.07985 0.6903 0.56509 0.0
O1004 O 0.06569 0.6753 0.58567 0.0
O1005 O 0.05591 0.68999 0.58598 0.0
O1006 O 0.09297 0.68935 0.59067 0.0
O1007 O 0.07679 0.69482 0.5907 0.0
Co1008 Co 0.44028 0.32957 0.07307 0.0
O1009 O 0.43537 0.34343 0.07654 0.0
O1010 O 0.42554 0.3292 0.07642 0.0
C1011 C 0.45519 0.33022 0.08249 0.0
O1012 O 0.44234 0.31395 0.07039 0.0
Co1013 Co 0.46109 0.32564 0.06124 0.0
O1014 O 0.45864 0.31071 0.06475 0.0
C1015 C 0.44278 0.33399 0.04989 0.0
C1016 C 0.42618 0.33926 0.07774 0.0
C1017 C 0.44971 0.30756 0.06787 0.0
O1018 O 0.43689 0.33219 0.05786 0.0
O1019 O 0.45271 0.33274 0.05006 0.0
O1020 O 0.44643 0.3278 0.08707 0.0
O1021 O 0.45452 0.33281 0.07281 0.0
Co1022 Co 0.67392 0.44061 0.07211 0.0
O1023 O 0.65994 0.43618 0.07577 0.0
O1024 O 0.67398 0.42611 0.0764 0.0
C1025 C 0.67355 0.45623 0.08047 0.0
O1026 O 0.68961 0.44221 0.06938 0.0
Co1027 Co 0.67822 0.46053 0.05885 0.0
O1028 O 0.69308 0.45803 0.06257 0.0
C1029 C 0.66907 0.44176 0.04897 0.0
C1030 C 0.66392 0.427 0.07752 0.0
C1031 C 0.6961 0.44931 0.06633 0.0
O1032 O 0.67124 0.43628 0.05714 0.0
O1033 O 0.67039 0.45167 0.04856 0.0
O1034 O 0.67567 0.44774 0.08569 0.0
O1035 O 0.67101 0.45482 0.07084 0.0
Co1036 Co 0.56255 0.67431 0.07217 0.0
O1037 O 0.56698 0.66016 0.07495 0.0
O1038 O 0.57678 0.67422 0.07738 0.0
C1039 C 0.54654 0.67323 0.07965 0.0
O1040 O 0.56075 0.69011 0.07036 0.0
Co1041 Co 0.54328 0.67879 0.05797 0.0
O1042 O 0.54549 0.69353 0.06233 0.0
C1043 C 0.56282 0.67071 0.04882 0.0
C1044 C 0.57595 0.66408 0.07762 0.0
C1045 C 0.5538 0.69656 0.06693 0.0
O1046 O 0.56776 0.67284 0.05733 0.0
O1047 O 0.55287 0.67147 0.04793 0.0
O1048 O 0.55472 0.67501 0.08544 0.0
O1049 O 0.54848 0.67127 0.06998 0.0
Co1050 Co 0.32911 0.56298 0.07283 0.0
O1051 O 0.34314 0.56756 0.07599 0.0
O1052 O 0.32908 0.57764 0.07656 0.0
C1053 C 0.3297 0.54791 0.08202 0.0
O1054 O 0.31341 0.56123 0.07035 0.0
Co1055 Co 0.32463 0.54238 0.06078 0.0
O1056 O 0.30988 0.54488 0.06498 0.0
C1057 C 0.33341 0.56069 0.04968 0.0
C1058 C 0.33916 0.57678 0.07753 0.0
C1059 C 0.30691 0.55388 0.06807 0.0
O1060 O 0.33156 0.56655 0.05766 0.0
O1061 O 0.332 0.55077 0.04976 0.0
O1062 O 0.32751 0.55664 0.08677 0.0
O1063 O 0.33211 0.54869 0.07229 0.0
Co1064 Co 0.44083 0.67294 0.93121 0.0
O1065 O 0.43625 0.65884 0.92829 0.0
O1066 O 0.42637 0.67296 0.9267 0.0
C1067 C 0.45643 0.67185 0.92292 0.0
O1068 O 0.44259 0.68871 0.93324 0.0
Co1069 Co 0.46085 0.67771 0.94413 0.0
O1070 O 0.45871 0.6923 0.93925 0.0
C1071 C 0.44197 0.66918 0.95448 0.0
C1072 C 0.42717 0.66284 0.92615 0.0
C1073 C 0.4499 0.69523 0.93563 0.0
O1074 O 0.43645 0.67102 0.94626 0.0
O1075 O 0.4519 0.67047 0.95477 0.0
O1076 O 0.44803 0.67397 0.91759 0.0
O1077 O 0.455 0.66984 0.93266 0.0
Co1078 Co 0.32802 0.44036 0.9309 0.0
O1079 O 0.34256 0.43659 0.92923 0.0
O1080 O 0.32918 0.42633 0.92533 0.0
C1081 C 0.32918 0.45665 0.92398 0.0
O1082 O 0.31202 0.44134 0.93144 0.0
Co1083 Co 0.32095 0.4591 0.94477 0.0
O1084 O 0.30721 0.45693 0.93797 0.0
C1085 C 0.32815 0.43938 0.95459 0.0
C1086 C 0.33925 0.42755 0.92599 0.0
C1087 C 0.30501 0.44826 0.93361 0.0
O1088 O 0.32852 0.43477 0.94565 0.0
O1089 O 0.32596 0.44909 0.95573 0.0
O1090 O 0.32822 0.44858 0.91785 0.0
O1091 O 0.33019 0.45451 0.93376 0.0
Co1092 Co 0.56236 0.32884 0.93176 0.0
O1093 O 0.56665 0.34294 0.92837 0.0
O1094 O 0.57677 0.32898 0.92714 0.0
C1095 C 0.54657 0.32929 0.92372 0.0
O1096 O 0.5609 0.31308 0.93418 0.0
Co1097 Co 0.5427 0.32416 0.94529 0.0
O1098 O 0.54528 0.30938 0.94133 0.0
C1099 C 0.56158 0.33332 0.95496 0.0
C1100 C 0.57582 0.33906 0.92632 0.0
C1101 C 0.55393 0.30649 0.93731 0.0
O1102 O 0.56695 0.33124 0.9467 0.0
O1103 O 0.55167 0.33197 0.95549 0.0
O1104 O 0.55496 0.32735 0.91829 0.0
O1105 O 0.54816 0.33164 0.93337 0.0
Co1106 Co 0.67486 0.5639 0.93224 0.0
O1107 O 0.6606 0.56811 0.92946 0.0
O1108 O 0.67454 0.57796 0.9267 0.0
C1109 C 0.67366 0.54763 0.92529 0.0
O1110 O 0.69074 0.56245 0.93371 0.0
Co1111 Co 0.68056 0.54506 0.94653 0.0
O1112 O 0.69488 0.54701 0.94095 0.0
C1113 C 0.67372 0.56506 0.95595 0.0
C1114 C 0.66442 0.57706 0.92651 0.0
C1115 C 0.69751 0.55552 0.9365 0.0
O1116 O 0.67359 0.56956 0.94695 0.0
O1117 O 0.67577 0.55536 0.9573 0.0
O1118 O 0.67535 0.55564 0.91923 0.0
O1119 O 0.67206 0.54982 0.93498 0.0
Co1120 Co 0.07232 0.44152 0.33036 0.0
O1121 O 0.07607 0.43702 0.3443 0.0
O1122 O 0.07644 0.42697 0.33024 0.0
C1123 C 0.0809 0.45701 0.33071 0.0
O1124 O 0.06943 0.44315 0.31471 0.0
Co1125 Co 0.05942 0.46167 0.32609 0.0
O1126 O 0.06356 0.45935 0.31129 0.0
C1127 C 0.0492 0.44301 0.33518 0.0
C1128 C 0.0777 0.42783 0.34029 0.0
C1129 C 0.06688 0.45046 0.30826 0.0
O1130 O 0.05733 0.43741 0.33317 0.0
O1131 O 0.04891 0.45292 0.33376 0.0
O1132 O 0.08597 0.44846 0.32847 0.0
O1133 O 0.07128 0.45575 0.33333 0.0
Co1134 Co 0.56373 0.07093 0.32883 0.0
O1135 O 0.56767 0.07271 0.34332 0.0
O1136 O 0.57765 0.07673 0.32976 0.0
C1137 C 0.54735 0.07759 0.33012 0.0
O1138 O 0.56261 0.07048 0.31287 0.0
Co1139 Co 0.54512 0.05687 0.32184 0.0
O1140 O 0.54747 0.06314 0.30787 0.0
C1141 C 0.56493 0.04726 0.32909 0.0
C1142 C 0.5766 0.07612 0.33984 0.0
C1143 C 0.55595 0.06792 0.30576 0.0
O1144 O 0.56953 0.05622 0.32928 0.0
O1145 O 0.55519 0.0461 0.32707 0.0
O1146 O 0.5553 0.08385 0.329 0.0
O1147 O 0.54964 0.06786 0.33116 0.0
Co1148 Co 0.92971 0.56343 0.32881 0.0
O1149 O 0.92713 0.568 0.34298 0.0
O1150 O 0.92599 0.57811 0.32897 0.0
C1151 C 0.92052 0.54837 0.32979 0.0
O1152 O 0.93154 0.56174 0.313 0.0
Co1153 Co 0.94136 0.54274 0.32364 0.0
O1154 O 0.93642 0.5453 0.30916 0.0
C1155 C 0.95309 0.56105 0.33169 0.0
C1156 C 0.92539 0.57722 0.33908 0.0
C1157 C 0.93338 0.55437 0.30637 0.0
O1158 O 0.945 0.56696 0.33063 0.0
O1159 O 0.95289 0.55116 0.33008 0.0
O1160 O 0.9157 0.5571 0.32778 0.0
O1161 O 0.93035 0.54913 0.33175 0.0
Co1162 Co 0.44031 0.93187 0.32904 0.0
O1163 O 0.43595 0.92909 0.34324 0.0
O1164 O 0.42603 0.92689 0.32924 0.0
C1165 C 0.4563 0.92428 0.3301 0.0
O1166 O 0.44191 0.93353 0.31323 0.0
Co1167 Co 0.45969 0.94569 0.32392 0.0
O1168 O 0.45762 0.94045 0.30943 0.0
C1169 C 0.4403 0.95536 0.33188 0.0
C1170 C 0.42691 0.92654 0.33936 0.0
C1171 C 0.44902 0.93626 0.30664 0.0
O1172 O 0.43527 0.94677 0.33038 0.0
O1173 O 0.45022 0.95616 0.33076 0.0
O1174 O 0.44807 0.91852 0.32845 0.0
O1175 O 0.45442 0.934 0.33188 0.0
Co1176 Co 0.07195 0.56281 0.67425 0.0
O1177 O 0.0756 0.56748 0.66036 0.0
O1178 O 0.07661 0.57722 0.67461 0.0
C1179 C 0.07996 0.54704 0.67333 0.0
O1180 O 0.06924 0.56085 0.68989 0.0
Co1181 Co 0.05833 0.54302 0.67806 0.0
O1182 O 0.06262 0.54485 0.69289 0.0
C1183 C 0.04869 0.56235 0.66985 0.0
C1184 C 0.07766 0.57651 0.66452 0.0
C1185 C 0.06635 0.5535 0.69615 0.0
O1186 O 0.05707 0.56755 0.67192 0.0
O1187 O 0.04804 0.55241 0.67084 0.0
O1188 O 0.08538 0.55533 0.67569 0.0
O1189 O 0.07034 0.54873 0.67093 0.0
Co1190 Co 0.44104 0.0704 0.67388 0.0
O1191 O 0.43685 0.0739 0.65976 0.0
O1192 O 0.42692 0.07576 0.67379 0.0
C1193 C 0.45727 0.07755 0.67333 0.0
O1194 O 0.44242 0.06811 0.68965 0.0
Co1195 Co 0.45994 0.05588 0.67876 0.0
O1196 O 0.45756 0.0601 0.6935 0.0
C1197 C 0.44053 0.0471 0.66985 0.0
C1198 C 0.42784 0.07649 0.6637 0.0
C1199 C 0.44916 0.06465 0.69631 0.0
O1200 O 0.43563 0.05569 0.67174 0.0
O1201 O 0.4504 0.04606 0.67118 0.0
O1202 O 0.44919 0.08348 0.67513 0.0
O1203 O 0.45513 0.06798 0.67111 0.0
Co1204 Co 0.93106 0.44024 0.67321 0.0
O1205 O 0.92825 0.43571 0.65908 0.0
O1206 O 0.92712 0.42562 0.67311 0.0
C1207 C 0.92212 0.45546 0.67235 0.0
O1208 O 0.93311 0.44193 0.68899 0.0
Co1209 Co 0.94316 0.46072 0.67816 0.0
O1210 O 0.93843 0.45824 0.69273 0.0
C1211 C 0.9544 0.44223 0.66987 0.0
C1212 C 0.92646 0.42651 0.663 0.0
C1213 C 0.93522 0.44925 0.69558 0.0
O1214 O 0.94626 0.43646 0.67121 0.0
O1215 O 0.9544 0.45213 0.67139 0.0
O1216 O 0.91718 0.44681 0.67442 0.0
O1217 O 0.9319 0.45452 0.67024 0.0
Co1218 Co 0.56251 0.93101 0.67325 0.0
O1219 O 0.56669 0.92723 0.65922 0.0
O1220 O 0.57669 0.92581 0.67326 0.0
C1221 C 0.54636 0.92369 0.67291 0.0
O1222 O 0.56113 0.9337 0.68893 0.0
Co1223 Co 0.54348 0.94554 0.67767 0.0
O1224 O 0.54572 0.94138 0.69249 0.0
C1225 C 0.56262 0.95391 0.66797 0.0
C1226 C 0.57575 0.92486 0.66319 0.0
C1227 C 0.55422 0.93707 0.69543 0.0
O1228 O 0.56773 0.9457 0.67077 0.0
O1229 O 0.5527 0.9548 0.66897 0.0
O1230 O 0.5545 0.91787 0.67483 0.0
O1231 O 0.54841 0.93322 0.67045 0.0
Co1232 Co 0.33101 0.07213 0.44042 0.0
O1233 O 0.34497 0.07607 0.43614 0.0
O1234 O 0.33083 0.07737 0.42626 0.0
C1235 C 0.33138 0.07941 0.45656 0.0
O1236 O 0.31539 0.0693 0.44193 0.0
Co1237 Co 0.32693 0.05749 0.4594 0.0
O1238 O 0.31194 0.06089 0.45696 0.0
C1239 C 0.33654 0.04928 0.44018 0.0
C1240 C 0.3409 0.07842 0.42712 0.0
C1241 C 0.30892 0.06547 0.44863 0.0
O1242 O 0.33361 0.05747 0.43513 0.0
O1243 O 0.33569 0.04836 0.45011 0.0
O1244 O 0.32927 0.0852 0.44846 0.0
O1245 O 0.33399 0.06992 0.4545 0.0
Co1246 Co 0.32918 0.92932 0.56327 0.0
O1247 O 0.34314 0.92576 0.56782 0.0
O1248 O 0.32903 0.92513 0.5778 0.0
C1249 C 0.32971 0.9208 0.54781 0.0
O1250 O 0.31353 0.93197 0.56152 0.0
Co1251 Co 0.32506 0.94242 0.54326 0.0
O1252 O 0.31013 0.93881 0.54571 0.0
C1253 C 0.33374 0.95253 0.56207 0.0
C1254 C 0.33911 0.92402 0.57698 0.0
C1255 C 0.30707 0.93504 0.55442 0.0
O1256 O 0.33166 0.94432 0.56751 0.0
O1257 O 0.33262 0.95293 0.55213 0.0
O1258 O 0.32747 0.91569 0.55632 0.0
O1259 O 0.33227 0.93045 0.54904 0.0
Co1260 Co 0.07245 0.33001 0.5608 0.0
O1261 O 0.0764 0.34381 0.5656 0.0
O1262 O 0.07604 0.32962 0.57548 0.0
C1263 C 0.08159 0.33025 0.54566 0.0
O1264 O 0.06926 0.31446 0.55892 0.0
Co1265 Co 0.06018 0.32619 0.54021 0.0
O1266 O 0.06394 0.31128 0.54249 0.0
C1267 C 0.0494 0.33511 0.55864 0.0
C1268 C 0.0776 0.33964 0.5748 0.0
C1269 C 0.06686 0.30811 0.55148 0.0
O1270 O 0.05739 0.33311 0.56443 0.0
O1271 O 0.04936 0.33371 0.54872 0.0
O1272 O 0.08627 0.32778 0.55436 0.0
O1273 O 0.07201 0.33315 0.54655 0.0
Co1274 Co 0.67417 0.06925 0.56272 0.0
O1275 O 0.66003 0.07222 0.56723 0.0
O1276 O 0.67414 0.07402 0.57705 0.0
C1277 C 0.67316 0.07711 0.54684 0.0
O1278 O 0.68998 0.06742 0.56103 0.0
Co1279 Co 0.67915 0.05575 0.54309 0.0
O1280 O 0.69378 0.06033 0.54542 0.0
C1281 C 0.67115 0.04573 0.56232 0.0
C1282 C 0.66403 0.07459 0.57627 0.0
C1283 C 0.69661 0.0645 0.55402 0.0
O1284 O 0.67251 0.05425 0.56752 0.0
O1285 O 0.67246 0.04512 0.55241 0.0
O1286 O 0.67495 0.08271 0.55516 0.0
O1287 O 0.67125 0.06739 0.54856 0.0
Co1288 Co 0.93121 0.67276 0.56292 0.0
O1289 O 0.92773 0.65867 0.56715 0.0
O1290 O 0.92618 0.67269 0.57716 0.0
C1291 C 0.92369 0.67228 0.54687 0.0
O1292 O 0.93358 0.68849 0.56148 0.0
Co1293 Co 0.94551 0.67733 0.54378 0.0
O1294 O 0.94188 0.69221 0.54646 0.0
C1295 C 0.9542 0.6678 0.5628 0.0
C1296 C 0.92536 0.6626 0.57622 0.0
C1297 C 0.93728 0.69508 0.55482 0.0
O1298 O 0.94603 0.67056 0.56799 0.0
O1299 O 0.95494 0.66868 0.55287 0.0
O1300 O 0.91796 0.67408 0.5551 0.0
O1301 O 0.93329 0.66999 0.54878 0.0
Co1302 Co 0.67422 0.93136 0.44057 0.0
O1303 O 0.66007 0.92793 0.43646 0.0
O1304 O 0.67402 0.92622 0.42638 0.0
C1305 C 0.67377 0.92396 0.45668 0.0
O1306 O 0.69001 0.93362 0.44184 0.0
Co1307 Co 0.67932 0.94555 0.45966 0.0
O1308 O 0.69401 0.94125 0.45714 0.0
C1309 C 0.67013 0.95464 0.44051 0.0
C1310 C 0.66394 0.92547 0.42738 0.0
C1311 C 0.69673 0.93688 0.44861 0.0
O1312 O 0.67201 0.94615 0.43541 0.0
O1313 O 0.67159 0.95549 0.45038 0.0
O1314 O 0.67552 0.91815 0.4485 0.0
O1315 O 0.67158 0.93357 0.45471 0.0
Co1316 Co 0.07084 0.6743 0.44018 0.0
O1317 O 0.07434 0.6602 0.43594 0.0
O1318 O 0.07575 0.67421 0.42589 0.0
C1319 C 0.07847 0.67377 0.4562 0.0
O1320 O 0.06843 0.69006 0.44156 0.0
Co1321 Co 0.05695 0.67923 0.45954 0.0
O1322 O 0.06171 0.69385 0.45735 0.0
C1323 C 0.04765 0.66994 0.4405 0.0
C1324 C 0.07658 0.66412 0.42683 0.0
C1325 C 0.06565 0.69667 0.44865 0.0
O1326 O 0.05601 0.67196 0.43526 0.0
O1327 O 0.04693 0.6714 0.45038 0.0
O1328 O 0.08415 0.67567 0.44796 0.0
O1329 O 0.06885 0.67155 0.45432 0.0
Co1330 Co 0.93157 0.3302 0.44001 0.0
O1331 O 0.92918 0.34447 0.43564 0.0
O1332 O 0.92672 0.33054 0.42567 0.0
C1333 C 0.9237 0.33138 0.45585 0.0
O1334 O 0.93295 0.31433 0.44159 0.0
Co1335 Co 0.94485 0.32478 0.45967 0.0
O1336 O 0.93992 0.31028 0.4572 0.0
C1337 C 0.95508 0.33278 0.44053 0.0
C1338 C 0.92663 0.34066 0.42657 0.0
C1339 C 0.93571 0.3076 0.44858 0.0
O1340 O 0.9466 0.33147 0.43526 0.0
O1341 O 0.95559 0.33146 0.45045 0.0
O1342 O 0.91809 0.32971 0.44752 0.0
O1343 O 0.93347 0.33303 0.45418 0.0
H1344 H 0.09381 0.14773 0.41704 0.0
H1345 H 0.1049 0.1321 0.41689 0.0
H1346 H 0.13212 0.15133 0.42196 0.0
H1347 H 0.12107 0.16692 0.42243 0.0
H1348 H 0.12115 0.12575 0.40482 0.0
H1349 H 0.13479 0.13079 0.44562 0.0
H1350 H 0.12418 0.13834 0.44023 0.0
H1351 H 0.13753 0.14196 0.4376 0.0
C1352 C 0.10217 0.14863 0.41809 0.0
C1353 C 0.10655 0.15856 0.41985 0.0
C1354 C 0.1085 0.13968 0.418 0.0
C1355 C 0.11933 0.14048 0.41965 0.0
C1356 C 0.12376 0.15045 0.42097 0.0
H1357 H 0.17133 0.09692 0.42238 0.0
H1358 H 0.16 0.11219 0.42017 0.0
C1359 C 0.11743 0.15938 0.42116 0.0
C1360 C 0.12599 0.13092 0.4201 0.0
H1361 H 0.14357 0.1179 0.43548 0.0
C1362 C 0.126 0.12401 0.41155 0.0
C1363 C 0.13229 0.12858 0.42891 0.0
C1364 C 0.13214 0.13524 0.43865 0.0
C1365 C 0.13231 0.11499 0.41149 0.0
C1366 C 0.13875 0.1128 0.4202 0.0
C1367 C 0.1387 0.11965 0.42876 0.0
C1368 C 0.14557 0.1034 0.42067 0.0
C1369 C 0.13222 0.10794 0.40204 0.0
C1370 C 0.14122 0.09337 0.42163 0.0
C1371 C 0.14768 0.08462 0.42296 0.0
C1372 C 0.15862 0.08573 0.42332 0.0
C1373 C 0.16295 0.09577 0.42208 0.0
C1374 C 0.15649 0.10452 0.42084 0.0
H1375 H 0.12828 0.11165 0.39524 0.0
H1376 H 0.14032 0.1058 0.39976 0.0
H1377 H 0.12798 0.10062 0.40398 0.0
H1378 H 0.13282 0.09234 0.42165 0.0
H1379 H 0.14409 0.07701 0.42393 0.0
H1380 H 0.85712 0.09226 0.417 0.0
H1381 H 0.87303 0.10294 0.41664 0.0
H1382 H 0.85458 0.13072 0.42145 0.0
H1383 H 0.83864 0.12012 0.42183 0.0
H1384 H 0.8707 0.13207 0.40514 0.0
H1385 H 0.88576 0.11727 0.44316 0.0
H1386 H 0.88205 0.10754 0.4337 0.0
H1387 H 0.87225 0.11587 0.4393 0.0
C1388 C 0.85644 0.10065 0.41793 0.0
C1389 C 0.84661 0.10533 0.41949 0.0
C1390 C 0.86554 0.10673 0.41777 0.0
C1391 C 0.865 0.11761 0.41914 0.0
C1392 C 0.85518 0.12234 0.42042 0.0
H1393 H 0.90792 0.16998 0.42276 0.0
H1394 H 0.89286 0.15849 0.42028 0.0
C1395 C 0.84608 0.11626 0.42065 0.0
C1396 C 0.87465 0.12408 0.41939 0.0
H1397 H 0.89647 0.12908 0.43396 0.0
C1398 C 0.87635 0.13142 0.41142 0.0
C1399 C 0.88203 0.12318 0.42758 0.0
C1400 C 0.88045 0.1156 0.43648 0.0
C1401 C 0.88528 0.13785 0.41137 0.0
C1402 C 0.89258 0.13711 0.41968 0.0
C1403 C 0.89091 0.12966 0.42759 0.0
C1404 C 0.90184 0.14414 0.42052 0.0
C1405 C 0.88688 0.14524 0.40232 0.0
C1406 C 0.91193 0.13995 0.42165 0.0
C1407 C 0.92056 0.14652 0.4232 0.0
C1408 C 0.91928 0.15743 0.42366 0.0
C1409 C 0.9092 0.16162 0.42234 0.0
C1410 C 0.90057 0.15505 0.42086 0.0
H1411 H 0.88264 0.14254 0.39523 0.0
H1412 H 0.88376 0.15305 0.40444 0.0
H1413 H 0.89529 0.14607 0.40037 0.0
H1414 H 0.91312 0.13156 0.42148 0.0
H1415 H 0.9282 0.14302 0.42423 0.0
H1416 H 0.86131 0.92764 0.42741 0.0
H1417 H 0.87257 0.91236 0.42493 0.0
H1418 H 0.84566 0.89375 0.41687 0.0
H1419 H 0.83433 0.90899 0.41934 0.0
H1420 H 0.87054 0.89315 0.43631 0.0
H1421 H 0.86723 0.88715 0.39341 0.0
H1422 H 0.864 0.8994 0.39966 0.0
H1423 H 0.85504 0.88861 0.40026 0.0
C1424 C 0.8578 0.92034 0.42496 0.0
C1425 C 0.84692 0.91955 0.42354 0.0
C1426 C 0.86425 0.9116 0.42357 0.0
C1427 C 0.85997 0.90193 0.42063 0.0
C1428 C 0.84915 0.90117 0.41899 0.0
H1429 H 0.88584 0.83972 0.42841 0.0
H1430 H 0.87487 0.8554 0.42818 0.0
C1431 C 0.84268 0.90989 0.42044 0.0
C1432 C 0.86675 0.89251 0.41992 0.0
H1433 H 0.87569 0.87375 0.4031 0.0
C1434 C 0.8717 0.88893 0.42904 0.0
C1435 C 0.8683 0.88705 0.41042 0.0
C1436 C 0.86345 0.89076 0.40034 0.0
C1437 C 0.87799 0.87992 0.42896 0.0
C1438 C 0.87934 0.87433 0.41952 0.0
C1439 C 0.87457 0.87801 0.41035 0.0
C1440 C 0.88572 0.86464 0.41908 0.0
C1441 C 0.88322 0.87648 0.43895 0.0
C1442 C 0.89536 0.86455 0.41383 0.0
C1443 C 0.90168 0.8556 0.41398 0.0
C1444 C 0.89841 0.84653 0.41929 0.0
C1445 C 0.88859 0.84656 0.42425 0.0
C1446 C 0.88233 0.85553 0.42416 0.0
H1447 H 0.88305 0.88269 0.44502 0.0
H1448 H 0.87911 0.86951 0.44208 0.0
H1449 H 0.89148 0.87425 0.43747 0.0
H1450 H 0.89811 0.8715 0.40985 0.0
H1451 H 0.90918 0.85584 0.41007 0.0
H1452 H 0.09269 0.83618 0.41286 0.0
H1453 H 0.10812 0.84718 0.41008 0.0
H1454 H 0.09581 0.86986 0.43186 0.0
H1455 H 0.08005 0.85928 0.43394 0.0
H1456 H 0.10439 0.87988 0.41751 0.0
H1457 H 0.13263 0.84894 0.42815 0.0
H1458 H 0.12516 0.84531 0.41689 0.0
H1459 H 0.11874 0.84707 0.42933 0.0
C1460 C 0.09328 0.84356 0.41697 0.0
C1461 C 0.08521 0.84688 0.42362 0.0
C1462 C 0.10217 0.8498 0.41549 0.0
C1463 C 0.10337 0.85925 0.421 0.0
C1464 C 0.09517 0.86261 0.42751 0.0
H1465 H 0.16306 0.88868 0.43312 0.0
H1466 H 0.14716 0.87815 0.43287 0.0
C1467 C 0.08614 0.85656 0.42871 0.0
C1468 C 0.11309 0.86569 0.42005 0.0
H1469 H 0.13976 0.86455 0.42116 0.0
C1470 C 0.11212 0.87652 0.41838 0.0
C1471 C 0.12324 0.8614 0.42133 0.0
C1472 C 0.12501 0.85007 0.42414 0.0
C1473 C 0.12089 0.88315 0.41813 0.0
C1474 C 0.13105 0.87879 0.41894 0.0
C1475 C 0.13203 0.86794 0.42043 0.0
C1476 C 0.14076 0.88532 0.41891 0.0
C1477 C 0.11904 0.89479 0.41749 0.0
C1478 C 0.14263 0.89287 0.41111 0.0
C1479 C 0.1516 0.89917 0.41147 0.0
C1480 C 0.15908 0.89772 0.41937 0.0
C1481 C 0.15744 0.88992 0.4269 0.0
C1482 C 0.14834 0.88388 0.42675 0.0
H1483 H 0.11112 0.89693 0.42035 0.0
H1484 H 0.12489 0.8992 0.42214 0.0
H1485 H 0.11959 0.89732 0.40921 0.0
H1486 H 0.13717 0.89391 0.40474 0.0
H1487 H 0.15274 0.90508 0.40551 0.0
H1488 H 0.14412 0.92366 0.56998 0.0
H1489 H 0.13319 0.90826 0.57252 0.0
H1490 H 0.15623 0.89533 0.59352 0.0
H1491 H 0.16756 0.91046 0.59031 0.0
H1492 H 0.15013 0.88075 0.58218 0.0
H1493 H 0.11394 0.90031 0.59475 0.0
H1494 H 0.11761 0.9052 0.58218 0.0
H1495 H 0.12604 0.90737 0.5933 0.0
C1496 C 0.14679 0.9176 0.57525 0.0
C1497 C 0.15665 0.9183 0.58003 0.0
C1498 C 0.14047 0.9088 0.57679 0.0
C1499 C 0.14367 0.90067 0.58347 0.0
C1500 C 0.1535 0.90147 0.58837 0.0
H1501 H 0.09738 0.85167 0.59726 0.0
H1502 H 0.10914 0.86674 0.59866 0.0
C1503 C 0.15997 0.91014 0.58658 0.0
C1504 C 0.13708 0.8911 0.58478 0.0
H1505 H 0.11187 0.88281 0.58796 0.0
C1506 C 0.14179 0.88123 0.58361 0.0
C1507 C 0.1262 0.89156 0.58691 0.0
C1508 C 0.12071 0.90169 0.58948 0.0
C1509 C 0.13594 0.87194 0.58414 0.0
C1510 C 0.12492 0.87247 0.58529 0.0
C1511 C 0.12026 0.88231 0.58685 0.0
C1512 C 0.11806 0.86301 0.58474 0.0
C1513 C 0.14174 0.86167 0.58366 0.0
C1514 C 0.11903 0.85585 0.57645 0.0
C1515 C 0.11254 0.84707 0.57585 0.0
C1516 C 0.10464 0.84544 0.5833 0.0
C1517 C 0.10344 0.85272 0.59144 0.0
C1518 C 0.11015 0.86135 0.59221 0.0
H1519 H 0.14978 0.86248 0.58684 0.0
H1520 H 0.13765 0.85545 0.58812 0.0
H1521 H 0.14247 0.85918 0.57538 0.0
H1522 H 0.12471 0.85711 0.57031 0.0
H1523 H 0.11351 0.8417 0.56937 0.0
H1524 H 0.0964 0.1706 0.57782 0.0
H1525 H 0.1116 0.15923 0.58022 0.0
H1526 H 0.09123 0.13248 0.58279 0.0
H1527 H 0.07602 0.14377 0.5801 0.0
H1528 H 0.11801 0.14623 0.59561 0.0
H1529 H 0.11044 0.12322 0.55965 0.0
H1530 H 0.10348 0.13512 0.5626 0.0
H1531 H 0.09972 0.123 0.56869 0.0
C1532 C 0.09515 0.1623 0.57897 0.0
C1533 C 0.085 0.15808 0.57868 0.0
C1534 C 0.10385 0.1558 0.58033 0.0
C1535 C 0.1026 0.14495 0.58145 0.0
C1536 C 0.09244 0.14078 0.58165 0.0
H1537 H 0.14675 0.09338 0.58834 0.0
H1538 H 0.13126 0.10465 0.58881 0.0
C1539 C 0.08373 0.14726 0.58019 0.0
C1540 C 0.11194 0.13801 0.58222 0.0
H1541 H 0.12403 0.11713 0.57069 0.0
C1542 C 0.11933 0.13988 0.59014 0.0
C1543 C 0.11372 0.12975 0.57505 0.0
C1544 C 0.10648 0.1277 0.56596 0.0
C1545 C 0.12834 0.13365 0.59116 0.0
C1546 C 0.13004 0.12536 0.58405 0.0
C1547 C 0.12266 0.12345 0.57617 0.0
C1548 C 0.13956 0.11872 0.58447 0.0
C1549 C 0.13595 0.1359 0.59988 0.0
C1550 C 0.14937 0.12291 0.5819 0.0
C1551 C 0.15823 0.11648 0.58155 0.0
C1552 C 0.15745 0.10574 0.58382 0.0
C1553 C 0.14764 0.10162 0.58661 0.0
C1554 C 0.13877 0.10804 0.58686 0.0
H1555 H 0.13255 0.14117 0.60588 0.0
H1556 H 0.13845 0.12852 0.60372 0.0
H1557 H 0.14301 0.13971 0.5966 0.0
H1558 H 0.15013 0.1311 0.57989 0.0
H1559 H 0.16566 0.11989 0.57933 0.0
H1560 H 0.91025 0.1465 0.58837 0.0
H1561 H 0.89922 0.13083 0.58808 0.0
H1562 H 0.87193 0.15008 0.5835 0.0
H1563 H 0.8829 0.16573 0.58352 0.0
H1564 H 0.88257 0.1241 0.59985 0.0
H1565 H 0.87011 0.1304 0.55882 0.0
H1566 H 0.88062 0.1377 0.56473 0.0
H1567 H 0.86724 0.1413 0.56717 0.0
C1568 C 0.90189 0.1474 0.58739 0.0
C1569 C 0.89746 0.15736 0.58587 0.0
C1570 C 0.89559 0.13843 0.58721 0.0
C1571 C 0.88477 0.13925 0.58552 0.0
C1572 C 0.88029 0.14922 0.58452 0.0
H1573 H 0.83337 0.09542 0.5789 0.0
H1574 H 0.84442 0.11077 0.58181 0.0
C1575 C 0.88657 0.15817 0.58462 0.0
C1576 C 0.87819 0.12969 0.58458 0.0
H1577 H 0.86127 0.11704 0.56821 0.0
C1578 C 0.87795 0.12253 0.59291 0.0
C1579 C 0.87221 0.12759 0.5755 0.0
C1580 C 0.87262 0.13459 0.566 0.0
C1581 C 0.8717 0.11348 0.5925 0.0
C1582 C 0.8656 0.1115 0.58349 0.0
C1583 C 0.86589 0.11862 0.57515 0.0
C1584 C 0.85889 0.10206 0.58247 0.0
C1585 C 0.8715 0.1062 0.60177 0.0
C1586 C 0.86336 0.09205 0.5819 0.0
C1587 C 0.85707 0.08325 0.58019 0.0
C1588 C 0.84618 0.0843 0.57903 0.0
C1589 C 0.84172 0.09432 0.57981 0.0
C1590 C 0.84802 0.10312 0.58145 0.0
H1591 H 0.87482 0.10991 0.60888 0.0
H1592 H 0.86338 0.10362 0.60347 0.0
H1593 H 0.87621 0.09914 0.59995 0.0
H1594 H 0.87175 0.09107 0.5825 0.0
H1595 H 0.86076 0.07566 0.57959 0.0
H1596 H 0.9259 0.85996 0.57896 0.0
H1597 H 0.91069 0.87128 0.58162 0.0
H1598 H 0.89063 0.84419 0.58225 0.0
H1599 H 0.90581 0.83284 0.57991 0.0
H1600 H 0.89428 0.87399 0.56916 0.0
H1601 H 0.87989 0.85955 0.60732 0.0
H1602 H 0.8926 0.85611 0.60227 0.0
H1603 H 0.88111 0.84926 0.59789 0.0
C1604 C 0.91827 0.8564 0.57983 0.0
C1605 C 0.91709 0.84549 0.57929 0.0
C1606 C 0.90957 0.86289 0.58133 0.0
C1607 C 0.89949 0.85861 0.58231 0.0
C1608 C 0.89832 0.84769 0.58182 0.0
H1609 H 0.83657 0.88353 0.5791 0.0
H1610 H 0.85229 0.87258 0.57958 0.0
C1611 C 0.90702 0.8412 0.58041 0.0
C1612 C 0.89018 0.86558 0.58316 0.0
H1613 H 0.86807 0.87026 0.59751 0.0
C1614 C 0.88862 0.87324 0.57543 0.0
C1615 C 0.88275 0.86462 0.59134 0.0
C1616 C 0.88422 0.85701 0.60023 0.0
C1617 C 0.87978 0.87976 0.57552 0.0
C1618 C 0.87228 0.87863 0.58355 0.0
C1619 C 0.87383 0.87106 0.59133 0.0
C1620 C 0.8627 0.88519 0.58387 0.0
C1621 C 0.87836 0.88766 0.56688 0.0
C1622 C 0.86332 0.89587 0.58632 0.0
C1623 C 0.85433 0.90213 0.58613 0.0
C1624 C 0.84457 0.89784 0.58343 0.0
C1625 C 0.84396 0.88709 0.58119 0.0
C1626 C 0.85293 0.88081 0.58147 0.0
H1627 H 0.88403 0.8865 0.5604 0.0
H1628 H 0.87031 0.88722 0.56366 0.0
H1629 H 0.87948 0.89565 0.57009 0.0
H1630 H 0.87078 0.89938 0.58826 0.0
H1631 H 0.85509 0.91038 0.58788 0.0
H1632 H 0.423 0.12044 0.16573 0.0
H1633 H 0.42218 0.13163 0.15026 0.0
H1634 H 0.41371 0.10499 0.13139 0.0
H1635 H 0.41422 0.09381 0.14691 0.0
H1636 H 0.43408 0.13049 0.13321 0.0
H1637 H 0.39269 0.12598 0.12125 0.0
H1638 H 0.39742 0.12174 0.13385 0.0
H1639 H 0.39939 0.11372 0.12245 0.0
C1640 C 0.42079 0.11699 0.15832 0.0
C1641 C 0.41863 0.10624 0.15757 0.0
C1642 C 0.42035 0.1234 0.14947 0.0
C1643 C 0.41775 0.11921 0.13965 0.0
C1644 C 0.41547 0.10849 0.1389 0.0
H1645 H 0.42314 0.14352 0.07624 0.0
H1646 H 0.42054 0.13253 0.09175 0.0
C1647 C 0.41582 0.10208 0.14778 0.0
C1648 C 0.41816 0.12594 0.13013 0.0
H1649 H 0.40407 0.13415 0.10891 0.0
C1650 C 0.42747 0.13134 0.12796 0.0
C1651 C 0.40956 0.12704 0.12322 0.0
C1652 C 0.39917 0.1219 0.12535 0.0
C1653 C 0.42848 0.13768 0.11904 0.0
C1654 C 0.41993 0.13871 0.11212 0.0
C1655 C 0.41062 0.13331 0.11423 0.0
C1656 C 0.42059 0.14543 0.10267 0.0
C1657 C 0.43875 0.14311 0.11699 0.0
C1658 C 0.42122 0.15634 0.10366 0.0
C1659 C 0.42265 0.16263 0.09483 0.0
C1660 C 0.4235 0.15814 0.08482 0.0
C1661 C 0.42252 0.14723 0.08382 0.0
C1662 C 0.42103 0.14094 0.09267 0.0
H1663 H 0.44514 0.14002 0.122 0.0
H1664 H 0.44105 0.14223 0.10866 0.0
H1665 H 0.43787 0.15159 0.11862 0.0
H1666 H 0.42082 0.15996 0.1113 0.0
H1667 H 0.42337 0.171 0.09588 0.0
H1668 H 0.91042 0.41742 0.14686 0.0
H1669 H 0.89946 0.41752 0.13113 0.0
H1670 H 0.87188 0.42017 0.15033 0.0
H1671 H 0.88276 0.42032 0.16603 0.0
H1672 H 0.88367 0.40467 0.12431 0.0
H1673 H 0.86828 0.44466 0.1307 0.0
H1674 H 0.87918 0.4395 0.13802 0.0
H1675 H 0.86599 0.43612 0.14158 0.0
C1676 C 0.90202 0.418 0.14773 0.0
C1677 C 0.89747 0.41896 0.1577 0.0
C1678 C 0.89576 0.41805 0.13873 0.0
C1679 C 0.88485 0.41907 0.13951 0.0
C1680 C 0.88029 0.41966 0.14948 0.0
H1681 H 0.83302 0.4226 0.09573 0.0
H1682 H 0.84422 0.42021 0.11107 0.0
C1683 C 0.88653 0.41968 0.15847 0.0
C1684 C 0.87822 0.41957 0.12993 0.0
H1685 H 0.86008 0.43465 0.11737 0.0
C1686 C 0.87856 0.41125 0.12277 0.0
C1687 C 0.87157 0.42818 0.12787 0.0
C1688 C 0.87129 0.43767 0.13489 0.0
C1689 C 0.87224 0.4112 0.11375 0.0
C1690 C 0.86548 0.41973 0.11179 0.0
C1691 C 0.8652 0.42807 0.11892 0.0
C1692 C 0.8587 0.42028 0.10235 0.0
C1693 C 0.87269 0.40192 0.10648 0.0
C1694 C 0.86311 0.42104 0.09232 0.0
C1695 C 0.85672 0.42244 0.08353 0.0
C1696 C 0.84579 0.4231 0.08459 0.0
C1697 C 0.84139 0.42207 0.09462 0.0
C1698 C 0.84779 0.42073 0.10341 0.0
H1699 H 0.87641 0.39504 0.11025 0.0
H1700 H 0.86473 0.3997 0.10383 0.0
H1701 H 0.87736 0.40401 0.09948 0.0
H1702 H 0.87152 0.42089 0.09133 0.0
H1703 H 0.86038 0.42327 0.07594 0.0
H1704 H 0.5806 0.88354 0.16713 0.0
H1705 H 0.58122 0.87237 0.15162 0.0
H1706 H 0.58739 0.89935 0.13237 0.0
H1707 H 0.58703 0.91054 0.14788 0.0
H1708 H 0.56846 0.873 0.13493 0.0
H1709 H 0.60921 0.8793 0.12162 0.0
H1710 H 0.60473 0.88325 0.1344 0.0
H1711 H 0.60199 0.89123 0.12315 0.0
C1712 C 0.58225 0.88709 0.15961 0.0
C1713 C 0.58381 0.89793 0.15875 0.0
C1714 C 0.58258 0.88068 0.15075 0.0
C1715 C 0.58449 0.88497 0.14082 0.0
C1716 C 0.58616 0.8958 0.13995 0.0
H1717 H 0.57969 0.86063 0.07744 0.0
H1718 H 0.58203 0.87155 0.09303 0.0
C1719 C 0.58589 0.90221 0.14884 0.0
C1720 C 0.58406 0.8782 0.13134 0.0
H1721 H 0.59782 0.87056 0.10971 0.0
C1722 C 0.57492 0.87242 0.12947 0.0
C1723 C 0.59247 0.87745 0.12417 0.0
C1724 C 0.60269 0.88306 0.12597 0.0
C1725 C 0.57389 0.86605 0.12058 0.0
C1726 C 0.58227 0.86534 0.11339 0.0
C1727 C 0.59141 0.87113 0.11523 0.0
C1728 C 0.5816 0.85864 0.10392 0.0
C1729 C 0.56375 0.86027 0.11882 0.0
C1730 C 0.58085 0.84773 0.10486 0.0
C1731 C 0.57956 0.84147 0.09598 0.0
C1732 C 0.57899 0.84599 0.08597 0.0
C1733 C 0.58008 0.8569 0.08503 0.0
C1734 C 0.58142 0.86315 0.09393 0.0
H1735 H 0.55734 0.86338 0.12379 0.0
H1736 H 0.56132 0.86078 0.1105 0.0
H1737 H 0.56486 0.8519 0.12078 0.0
H1738 H 0.58111 0.84407 0.1125 0.0
H1739 H 0.57876 0.8331 0.09699 0.0
H1740 H 0.09168 0.5867 0.14629 0.0
H1741 H 0.10273 0.58643 0.13061 0.0
H1742 H 0.13011 0.58292 0.14997 0.0
H1743 H 0.11913 0.58292 0.16559 0.0
H1744 H 0.11891 0.5988 0.12391 0.0
H1745 H 0.1331 0.55838 0.13031 0.0
H1746 H 0.12232 0.56384 0.13758 0.0
H1747 H 0.13558 0.56681 0.14124 0.0
C1748 C 0.10006 0.58591 0.1472 0.0
C1749 C 0.10451 0.58474 0.15719 0.0
C1750 C 0.10636 0.58575 0.13823 0.0
C1751 C 0.11724 0.58442 0.13908 0.0
C1752 C 0.12172 0.58366 0.14907 0.0
H1753 H 0.16943 0.5802 0.09585 0.0
H1754 H 0.15807 0.58271 0.11107 0.0
C1755 C 0.11543 0.58374 0.15802 0.0
C1756 C 0.1239 0.58375 0.12955 0.0
H1757 H 0.14177 0.56821 0.11713 0.0
C1758 C 0.12386 0.59209 0.1224 0.0
C1759 C 0.13034 0.57496 0.12753 0.0
C1760 C 0.13028 0.56544 0.13451 0.0
C1761 C 0.13026 0.59198 0.11344 0.0
C1762 C 0.13681 0.58328 0.11154 0.0
C1763 C 0.1368 0.57492 0.11864 0.0
C1764 C 0.14368 0.5826 0.10219 0.0
C1765 C 0.13012 0.60126 0.10616 0.0
C1766 C 0.13937 0.58175 0.09213 0.0
C1767 C 0.14584 0.58027 0.08342 0.0
C1768 C 0.15676 0.57962 0.0846 0.0
C1769 C 0.16107 0.58072 0.09466 0.0
C1770 C 0.15458 0.58213 0.10337 0.0
H1771 H 0.12638 0.6082 0.10982 0.0
H1772 H 0.13818 0.60337 0.10374 0.0
H1773 H 0.12564 0.59922 0.09902 0.0
H1774 H 0.13097 0.58193 0.09105 0.0
H1775 H 0.14227 0.5794 0.07579 0.0
H1776 H 0.42315 0.88432 0.83759 0.0
H1777 H 0.42246 0.8729 0.8529 0.0
H1778 H 0.4145 0.89931 0.8723 0.0
H1779 H 0.41489 0.91073 0.85696 0.0
H1780 H 0.43455 0.87364 0.8699 0.0
H1781 H 0.39329 0.87835 0.88221 0.0
H1782 H 0.39797 0.88274 0.86965 0.0
H1783 H 0.40011 0.89055 0.88115 0.0
C1784 C 0.4211 0.88768 0.84509 0.0
C1785 C 0.41903 0.89843 0.84604 0.0
C1786 C 0.42072 0.88113 0.85385 0.0
C1787 C 0.41829 0.88518 0.86377 0.0
C1788 C 0.41613 0.89592 0.86472 0.0
H1789 H 0.42315 0.85977 0.92675 0.0
H1790 H 0.42075 0.87099 0.91139 0.0
C1791 C 0.41642 0.90246 0.85594 0.0
C1792 C 0.4187 0.87829 0.87316 0.0
H1793 H 0.40466 0.86982 0.8943 0.0
C1794 C 0.42798 0.87276 0.87517 0.0
C1795 C 0.41014 0.87714 0.8801 0.0
C1796 C 0.39978 0.88243 0.87813 0.0
C1797 C 0.42898 0.86625 0.88396 0.0
C1798 C 0.42045 0.86516 0.89091 0.0
C1799 C 0.41118 0.87069 0.88896 0.0
C1800 C 0.4211 0.85828 0.90025 0.0
C1801 C 0.43922 0.86071 0.88586 0.0
C1802 C 0.42184 0.8474 0.89909 0.0
C1803 C 0.42314 0.84096 0.90785 0.0
C1804 C 0.42377 0.84529 0.91794 0.0
C1805 C 0.42271 0.85618 0.9191 0.0
C1806 C 0.42133 0.86261 0.91033 0.0
H1807 H 0.44562 0.86393 0.88096 0.0
H1808 H 0.44152 0.86131 0.89421 0.0
H1809 H 0.43831 0.85229 0.88396 0.0
H1810 H 0.42157 0.84389 0.89139 0.0
H1811 H 0.42393 0.83261 0.90667 0.0
H1812 H 0.1141 0.43284 0.84132 0.0
H1813 H 0.12489 0.432 0.85702 0.0
H1814 H 0.109 0.40377 0.86647 0.0
H1815 H 0.09761 0.4051 0.8511 0.0
H1816 H 0.11143 0.4145 0.88253 0.0
H1817 H 0.14979 0.41556 0.86309 0.0
H1818 H 0.14258 0.42701 0.85954 0.0
H1819 H 0.13783 0.41425 0.85578 0.0
C1820 C 0.11298 0.4264 0.84671 0.0
C1821 C 0.10509 0.41897 0.84495 0.0
C1822 C 0.11924 0.42586 0.85566 0.0
C1823 C 0.11807 0.41763 0.86285 0.0
C1824 C 0.11017 0.41017 0.86106 0.0
H1825 H 0.16658 0.41246 0.91128 0.0
H1826 H 0.15555 0.40923 0.89595 0.0
C1827 C 0.10367 0.4109 0.85225 0.0
C1828 C 0.1247 0.41714 0.87248 0.0
H1829 H 0.14969 0.42043 0.88131 0.0
C1830 C 0.11983 0.41563 0.88222 0.0
C1831 C 0.13572 0.41834 0.8722 0.0
C1832 C 0.14177 0.41875 0.86207 0.0
C1833 C 0.12555 0.41565 0.89161 0.0
C1834 C 0.13642 0.41783 0.89138 0.0
C1835 C 0.14135 0.41896 0.88162 0.0
C1836 C 0.14282 0.41916 0.9011 0.0
C1837 C 0.11983 0.4131 0.90161 0.0
C1838 C 0.13942 0.42578 0.9092 0.0
C1839 C 0.14556 0.42731 0.91813 0.0
C1840 C 0.15545 0.42261 0.91898 0.0
C1841 C 0.15897 0.41614 0.91084 0.0
C1842 C 0.15267 0.41433 0.90205 0.0
H1843 H 0.11312 0.4078 0.9001 0.0
H1844 H 0.12505 0.40931 0.90742 0.0
H1845 H 0.11663 0.4204 0.90503 0.0
H1846 H 0.13212 0.43 0.90855 0.0
H1847 H 0.14275 0.43252 0.92418 0.0
H1848 H 0.58098 0.11842 0.83697 0.0
H1849 H 0.5814 0.1295 0.85253 0.0
H1850 H 0.58658 0.10233 0.87181 0.0
H1851 H 0.5864 0.0912 0.85622 0.0
H1852 H 0.56843 0.12913 0.86925 0.0
H1853 H 0.60908 0.12185 0.88248 0.0
H1854 H 0.6045 0.11809 0.86967 0.0
H1855 H 0.60148 0.11016 0.88088 0.0
C1856 C 0.58231 0.1148 0.84451 0.0
C1857 C 0.5837 0.10392 0.84534 0.0
C1858 C 0.58254 0.12115 0.85341 0.0
C1859 C 0.58417 0.11679 0.86335 0.0
C1860 C 0.58556 0.10592 0.86421 0.0
H1861 H 0.58095 0.14227 0.9264 0.0
H1862 H 0.58283 0.13104 0.911 0.0
C1863 C 0.58539 0.09956 0.85529 0.0
C1864 C 0.58392 0.12359 0.8728 0.0
H1865 H 0.59808 0.13127 0.89416 0.0
C1866 C 0.57494 0.12964 0.87466 0.0
C1867 C 0.59241 0.12424 0.87989 0.0
C1868 C 0.60245 0.11832 0.87811 0.0
C1869 C 0.57416 0.13619 0.88344 0.0
C1870 C 0.58263 0.13684 0.89052 0.0
C1871 C 0.5916 0.13077 0.88872 0.0
C1872 C 0.58226 0.14374 0.89986 0.0
C1873 C 0.56417 0.14223 0.88519 0.0
C1874 C 0.58159 0.15464 0.89873 0.0
C1875 C 0.58056 0.16109 0.90752 0.0
C1876 C 0.58017 0.15676 0.91762 0.0
C1877 C 0.5812 0.14586 0.91874 0.0
C1878 C 0.58228 0.13942 0.90995 0.0
H1879 H 0.55762 0.1391 0.88043 0.0
H1880 H 0.56188 0.14204 0.89356 0.0
H1881 H 0.56541 0.15051 0.88294 0.0
H1882 H 0.58172 0.15816 0.89103 0.0
H1883 H 0.5798 0.16944 0.90637 0.0
H1884 H 0.86181 0.57652 0.92591 0.0
H1885 H 0.8729 0.57866 0.91046 0.0
H1886 H 0.84577 0.58604 0.89189 0.0
H1887 H 0.83459 0.58389 0.90731 0.0
H1888 H 0.87062 0.56667 0.89152 0.0
H1889 H 0.8673 0.60944 0.88452 0.0
H1890 H 0.86428 0.60351 0.89698 0.0
H1891 H 0.85516 0.60258 0.88635 0.0
C1892 C 0.85821 0.57876 0.91858 0.0
C1893 C 0.84731 0.58006 0.91785 0.0
C1894 C 0.86456 0.57994 0.90975 0.0
C1895 C 0.86018 0.58258 0.90004 0.0
C1896 C 0.84934 0.58414 0.89933 0.0
H1897 H 0.8856 0.57409 0.83768 0.0
H1898 H 0.87472 0.57451 0.85344 0.0
C1899 C 0.84296 0.58289 0.90815 0.0
C1900 C 0.86687 0.58305 0.89055 0.0
H1901 H 0.87585 0.59944 0.87142 0.0
C1902 C 0.87178 0.57384 0.88714 0.0
C1903 C 0.86843 0.59242 0.88488 0.0
C1904 C 0.8636 0.60259 0.88838 0.0
C1905 C 0.87806 0.57372 0.87812 0.0
C1906 C 0.87946 0.58304 0.87235 0.0
C1907 C 0.87471 0.59229 0.87584 0.0
C1908 C 0.88586 0.58325 0.86267 0.0
C1909 C 0.88323 0.56363 0.87485 0.0
C1910 C 0.89566 0.58818 0.86259 0.0
C1911 C 0.90193 0.58791 0.85361 0.0
C1912 C 0.89846 0.5828 0.84451 0.0
C1913 C 0.88852 0.5781 0.84455 0.0
C1914 C 0.88229 0.5783 0.85355 0.0
H1915 H 0.88284 0.55759 0.88107 0.0
H1916 H 0.87925 0.56054 0.86778 0.0
H1917 H 0.89156 0.56502 0.87281 0.0
H1918 H 0.89854 0.59205 0.86955 0.0
H1919 H 0.90954 0.59162 0.85384 0.0
H1920 H 0.16467 0.4185 0.12018 0.0
H1921 H 0.14897 0.41859 0.13103 0.0
H1922 H 0.12979 0.41615 0.10341 0.0
H1923 H 0.14553 0.41583 0.09248 0.0
H1924 H 0.13361 0.43304 0.13093 0.0
H1925 H 0.11663 0.39416 0.12195 0.0
H1926 H 0.12987 0.39762 0.1185 0.0
H1927 H 0.11911 0.40202 0.1106 0.0
C1928 C 0.15712 0.41782 0.1164 0.0
C1929 C 0.15636 0.41712 0.10545 0.0
C1930 C 0.14814 0.4179 0.12263 0.0
C1931 C 0.13817 0.41727 0.11808 0.0
C1932 C 0.13738 0.41641 0.10715 0.0
H1933 H 0.07537 0.42514 0.14343 0.0
H1934 H 0.09061 0.42239 0.13215 0.0
C1935 C 0.14639 0.41628 0.10089 0.0
C1936 C 0.12867 0.41817 0.12478 0.0
H1937 H 0.10599 0.40584 0.13177 0.0
C1938 C 0.12761 0.42705 0.13115 0.0
C1939 C 0.1208 0.41039 0.12504 0.0
C1940 C 0.12167 0.40046 0.11874 0.0
C1941 C 0.11888 0.42843 0.13767 0.0
C1942 C 0.11103 0.42064 0.13797 0.0
C1943 C 0.11202 0.41179 0.13155 0.0
C1944 C 0.10172 0.42163 0.14487 0.0
C1945 C 0.11803 0.43831 0.14407 0.0
C1946 C 0.10286 0.42186 0.15579 0.0
C1947 C 0.09416 0.42339 0.16227 0.0
C1948 C 0.08413 0.42472 0.15795 0.0
C1949 C 0.08297 0.42416 0.14702 0.0
C1950 C 0.09168 0.42259 0.14055 0.0
H1951 H 0.12336 0.44452 0.14115 0.0
H1952 H 0.1099 0.44135 0.144 0.0
H1953 H 0.12018 0.43658 0.15229 0.0
H1954 H 0.11051 0.42097 0.15931 0.0
H1955 H 0.09533 0.42375 0.17064 0.0
H1956 H 0.07591 0.58175 0.85974 0.0
H1957 H 0.09127 0.58451 0.8708 0.0
H1958 H 0.11131 0.58065 0.84396 0.0
H1959 H 0.09597 0.57814 0.83282 0.0
H1960 H 0.10679 0.57091 0.87472 0.0
H1961 H 0.12375 0.60653 0.85688 0.0
H1962 H 0.11067 0.60212 0.85398 0.0
H1963 H 0.12173 0.59623 0.84758 0.0
C1964 C 0.08358 0.58166 0.85616 0.0
C1965 C 0.0847 0.57978 0.84538 0.0
C1966 C 0.09236 0.58321 0.8625 0.0
C1967 C 0.10248 0.58294 0.85821 0.0
C1968 C 0.10361 0.58117 0.84743 0.0
H1969 H 0.16533 0.57977 0.88319 0.0
H1970 H 0.14962 0.58034 0.87227 0.0
C1971 C 0.09481 0.57968 0.84107 0.0
C1972 C 0.11181 0.58381 0.86514 0.0
H1973 H 0.13472 0.59714 0.86875 0.0
C1974 C 0.11284 0.57672 0.87347 0.0
C1975 C 0.11974 0.59137 0.86351 0.0
C1976 C 0.11889 0.59956 0.85507 0.0
C1977 C 0.12165 0.57682 0.88004 0.0
C1978 C 0.12963 0.58428 0.87832 0.0
C1979 C 0.1286 0.59142 0.87005 0.0
C1980 C 0.13921 0.58459 0.88489 0.0
C1981 C 0.1225 0.56874 0.88859 0.0
C1982 C 0.13862 0.58703 0.89559 0.0
C1983 C 0.14761 0.58675 0.90185 0.0
C1984 C 0.15735 0.58402 0.89754 0.0
C1985 C 0.15795 0.58188 0.88677 0.0
C1986 C 0.14898 0.58221 0.8805 0.0
H1987 H 0.11683 0.56225 0.88751 0.0
H1988 H 0.13051 0.56541 0.8889 0.0
H1989 H 0.12087 0.57249 0.89624 0.0
H1990 H 0.13119 0.58904 0.89911 0.0
H1991 H 0.14687 0.58846 0.91011 0.0
H1992 H 0.42261 0.07766 0.86003 0.0
H1993 H 0.42048 0.09309 0.87114 0.0
H1994 H 0.42358 0.11301 0.84411 0.0
H1995 H 0.42546 0.09761 0.83293 0.0
H1996 H 0.43425 0.10857 0.8746 0.0
H1997 H 0.39816 0.12557 0.85776 0.0
H1998 H 0.40243 0.11246 0.85478 0.0
H1999 H 0.40817 0.12348 0.84817 0.0
C2000 C 0.4227 0.08532 0.85642 0.0
C2001 C 0.42415 0.08639 0.84558 0.0
C2002 C 0.4215 0.09414 0.86279 0.0
C2003 C 0.42171 0.10424 0.85847 0.0
C2004 C 0.42311 0.10532 0.84762 0.0
H2005 H 0.42542 0.16713 0.88342 0.0
H2006 H 0.42485 0.15141 0.8725 0.0
C2007 C 0.42425 0.09649 0.84124 0.0
C2008 C 0.42109 0.1136 0.86538 0.0
H2009 H 0.40787 0.13651 0.86936 0.0
C2010 C 0.42841 0.11462 0.87351 0.0
C2011 C 0.41349 0.12153 0.86397 0.0
C2012 C 0.40505 0.12068 0.85577 0.0
C2013 C 0.4285 0.12343 0.88008 0.0
C2014 C 0.42099 0.13141 0.87857 0.0
C2015 C 0.41363 0.13039 0.87049 0.0
C2016 C 0.42082 0.14097 0.88517 0.0
C2017 C 0.43679 0.12428 0.88843 0.0
C2018 C 0.41855 0.14036 0.8959 0.0
C2019 C 0.41882 0.14934 0.90216 0.0
C2020 C 0.42139 0.15911 0.89782 0.0
C2021 C 0.42344 0.15973 0.88703 0.0
C2022 C 0.42311 0.15076 0.88076 0.0
H2023 H 0.44324 0.11858 0.88719 0.0
H2024 H 0.44014 0.13228 0.88863 0.0
H2025 H 0.43322 0.12268 0.89617 0.0
H2026 H 0.41663 0.13291 0.89943 0.0
H2027 H 0.41718 0.14859 0.91043 0.0
H2028 H 0.83666 0.42085 0.88255 0.0
H2029 H 0.8523 0.42031 0.87157 0.0
H2030 H 0.87128 0.41454 0.89883 0.0
H2031 H 0.85562 0.4148 0.90982 0.0
H2032 H 0.86867 0.43332 0.87231 0.0
H2033 H 0.88281 0.39293 0.87908 0.0
H2034 H 0.8699 0.39715 0.88289 0.0
H2035 H 0.88103 0.40021 0.89093 0.0
C2036 C 0.84414 0.41929 0.88619 0.0
C2037 C 0.84488 0.41782 0.89706 0.0
C2038 C 0.85309 0.41901 0.8799 0.0
C2039 C 0.86299 0.41725 0.88433 0.0
C2040 C 0.86373 0.41564 0.89517 0.0
H2041 H 0.92639 0.42347 0.86006 0.0
H2042 H 0.91091 0.42093 0.87108 0.0
C2043 C 0.85476 0.41585 0.90146 0.0
C2044 C 0.87254 0.41784 0.87767 0.0
H2045 H 0.89453 0.40448 0.87031 0.0
C2046 C 0.87427 0.42697 0.87182 0.0
C2047 C 0.87991 0.40958 0.87706 0.0
C2048 C 0.87829 0.39938 0.88274 0.0
C2049 C 0.88318 0.42813 0.8655 0.0
C2050 C 0.89054 0.41991 0.86491 0.0
C2051 C 0.88887 0.41078 0.87078 0.0
C2052 C 0.89998 0.42068 0.85819 0.0
C2053 C 0.88475 0.43824 0.85962 0.0
C2054 C 0.899 0.42113 0.84727 0.0
C2055 C 0.90782 0.42252 0.84095 0.0
C2056 C 0.91782 0.42351 0.84543 0.0
C2057 C 0.91881 0.42274 0.85636 0.0
C2058 C 0.90997 0.42129 0.86267 0.0
H2059 H 0.87959 0.44457 0.8626 0.0
H2060 H 0.893 0.44087 0.86018 0.0
H2061 H 0.88291 0.43698 0.85124 0.0
H2062 H 0.89137 0.42055 0.84364 0.0
H2063 H 0.90677 0.42307 0.83257 0.0
H2064 H 0.58399 0.90647 0.83377 0.0
H2065 H 0.586 0.89114 0.84513 0.0
H2066 H 0.57705 0.90966 0.87181 0.0
H2067 H 0.57508 0.92502 0.86056 0.0
H2068 H 0.59874 0.88861 0.86489 0.0
H2069 H 0.55576 0.88427 0.87003 0.0
H2070 H 0.56142 0.89161 0.85937 0.0
H2071 H 0.56109 0.8971 0.87228 0.0
C2072 C 0.58256 0.90731 0.84207 0.0
C2073 C 0.57934 0.91697 0.84625 0.0
C2074 C 0.58372 0.89855 0.84855 0.0
C2075 C 0.58157 0.89925 0.85929 0.0
C2076 C 0.57866 0.90894 0.86353 0.0
H2077 H 0.59155 0.85445 0.90976 0.0
H2078 H 0.59188 0.86982 0.89831 0.0
C2079 C 0.57757 0.91772 0.85708 0.0
C2080 C 0.582 0.88978 0.866 0.0
H2081 H 0.56654 0.8729 0.87979 0.0
C2082 C 0.59172 0.88516 0.86816 0.0
C2083 C 0.5728 0.88526 0.87016 0.0
C2084 C 0.56215 0.88973 0.86782 0.0
C2085 C 0.59249 0.87621 0.87451 0.0
C2086 C 0.5833 0.87179 0.87882 0.0
C2087 C 0.57358 0.87634 0.87653 0.0
C2088 C 0.58356 0.86236 0.88561 0.0
C2089 C 0.60309 0.87143 0.87646 0.0
C2090 C 0.57872 0.85308 0.88231 0.0
C2091 C 0.57854 0.84429 0.88882 0.0
C2092 C 0.58311 0.84462 0.89882 0.0
C2093 C 0.588 0.85392 0.90209 0.0
C2094 C 0.58823 0.8627 0.89554 0.0
H2095 H 0.60907 0.87444 0.87092 0.0
H2096 H 0.60565 0.87337 0.88452 0.0
H2097 H 0.60273 0.86279 0.87578 0.0
H2098 H 0.57502 0.85266 0.8747 0.0
H2099 H 0.57467 0.83728 0.88606 0.0
H2100 H 0.92609 0.57449 0.14166 0.0
H2101 H 0.91072 0.57712 0.13054 0.0
H2102 H 0.89236 0.58505 0.15765 0.0
H2103 H 0.90768 0.58239 0.16885 0.0
H2104 H 0.89111 0.56589 0.13282 0.0
H2105 H 0.88627 0.60896 0.13611 0.0
H2106 H 0.89845 0.60243 0.13904 0.0
H2107 H 0.88785 0.60201 0.14824 0.0
C2108 C 0.91882 0.57692 0.14526 0.0
C2109 C 0.91812 0.57826 0.15615 0.0
C2110 C 0.91004 0.57839 0.13888 0.0
C2111 C 0.90042 0.58137 0.14325 0.0
C2112 C 0.89974 0.5829 0.1541 0.0
H2113 H 0.83752 0.57632 0.1187 0.0
H2114 H 0.8534 0.57627 0.12939 0.0
C2115 C 0.9085 0.58134 0.16049 0.0
C2116 C 0.89098 0.5823 0.13653 0.0
H2117 H 0.87266 0.59963 0.12759 0.0
C2118 C 0.8871 0.57327 0.13165 0.0
C2119 C 0.88579 0.59195 0.13497 0.0
C2120 C 0.88981 0.60193 0.13979 0.0
C2121 C 0.87805 0.5736 0.12541 0.0
C2122 C 0.87275 0.58319 0.12402 0.0
C2123 C 0.87673 0.59227 0.12873 0.0
C2124 C 0.86301 0.58385 0.11774 0.0
C2125 C 0.8742 0.56368 0.12032 0.0
C2126 C 0.86313 0.5883 0.10772 0.0
C2127 C 0.85407 0.58829 0.10154 0.0
C2128 C 0.84472 0.58392 0.10535 0.0
C2129 C 0.84458 0.57976 0.11553 0.0
C2130 C 0.85365 0.5797 0.12165 0.0
H2131 H 0.88002 0.55725 0.12086 0.0
H2132 H 0.8669 0.5611 0.12424 0.0
H2133 H 0.87234 0.5651 0.11196 0.0
H2134 H 0.87029 0.59155 0.10457 0.0
H2135 H 0.85444 0.59156 0.09374 0.0
H2136 H 0.4332 0.84187 0.11369 0.0
H2137 H 0.4322 0.85742 0.1247 0.0
H2138 H 0.40394 0.86686 0.10883 0.0
H2139 H 0.40543 0.85166 0.09726 0.0
H2140 H 0.41457 0.88297 0.11154 0.0
H2141 H 0.41547 0.86292 0.1496 0.0
H2142 H 0.42699 0.85959 0.1424 0.0
H2143 H 0.41429 0.85581 0.13751 0.0
C2144 C 0.42673 0.84723 0.11261 0.0
C2145 C 0.41934 0.84552 0.10469 0.0
C2146 C 0.4261 0.85609 0.119 0.0
C2147 C 0.4178 0.86323 0.1179 0.0
C2148 C 0.41039 0.86149 0.10994 0.0
H2149 H 0.41191 0.91096 0.16706 0.0
H2150 H 0.40873 0.89578 0.15579 0.0
C2151 C 0.41122 0.85278 0.10333 0.0
C2152 C 0.41718 0.87274 0.12468 0.0
H2153 H 0.4201 0.8812 0.14984 0.0
C2154 C 0.41562 0.88254 0.11994 0.0
C2155 C 0.41825 0.87228 0.1357 0.0
C2156 C 0.41871 0.86206 0.14159 0.0
C2157 C 0.41549 0.89183 0.12581 0.0
C2158 C 0.41756 0.89145 0.1367 0.0
C2159 C 0.41872 0.88162 0.14149 0.0
C2160 C 0.41882 0.90107 0.14323 0.0
C2161 C 0.41292 0.9019 0.12023 0.0
C2162 C 0.4255 0.90919 0.14001 0.0
C2163 C 0.42701 0.91801 0.14629 0.0
C2164 C 0.42221 0.91876 0.15613 0.0
C2165 C 0.41566 0.91061 0.15948 0.0
C2166 C 0.41389 0.90191 0.15304 0.0
H2167 H 0.40768 0.90046 0.11345 0.0
H2168 H 0.40907 0.90762 0.1255 0.0
H2169 H 0.42023 0.90541 0.11713 0.0
H2170 H 0.42978 0.90862 0.13274 0.0
H2171 H 0.43228 0.92407 0.1436 0.0
H2172 H 0.56963 0.16366 0.11355 0.0
H2173 H 0.57025 0.14798 0.12441 0.0
H2174 H 0.59765 0.13747 0.10773 0.0
H2175 H 0.59657 0.15286 0.09636 0.0
H2176 H 0.58608 0.12183 0.11043 0.0
H2177 H 0.58759 0.14144 0.14876 0.0
H2178 H 0.57605 0.14538 0.14191 0.0
H2179 H 0.58876 0.14861 0.1367 0.0
C2180 C 0.57584 0.15805 0.11227 0.0
C2181 C 0.58311 0.15952 0.10418 0.0
C2182 C 0.57625 0.1491 0.11855 0.0
C2183 C 0.58418 0.14161 0.11716 0.0
C2184 C 0.59148 0.14312 0.10906 0.0
H2185 H 0.59081 0.09321 0.16538 0.0
H2186 H 0.59386 0.1083 0.15397 0.0
C2187 C 0.59089 0.15193 0.10257 0.0
C2188 C 0.58456 0.13199 0.12379 0.0
H2189 H 0.58242 0.12335 0.14898 0.0
C2190 C 0.58542 0.1222 0.11888 0.0
C2191 C 0.58396 0.13236 0.13486 0.0
C2192 C 0.58417 0.14253 0.14085 0.0
C2193 C 0.58539 0.11283 0.12464 0.0
C2194 C 0.58391 0.11317 0.13562 0.0
C2195 C 0.58338 0.12298 0.14056 0.0
C2196 C 0.5827 0.10354 0.14214 0.0
C2197 C 0.58716 0.10271 0.11883 0.0
C2198 C 0.57548 0.09573 0.13934 0.0
C2199 C 0.574 0.08694 0.14569 0.0
C2200 C 0.57942 0.08594 0.15518 0.0
C2201 C 0.58657 0.09376 0.15807 0.0
C2202 C 0.58827 0.10241 0.15156 0.0
H2203 H 0.592 0.10398 0.11173 0.0
H2204 H 0.59112 0.0968 0.12381 0.0
H2205 H 0.57953 0.09953 0.11623 0.0
H2206 H 0.57075 0.09654 0.13237 0.0
H2207 H 0.56827 0.08115 0.14337 0.0
H2208 H 0.67008 0.59742 0.92321 0.0
H2209 H 0.65857 0.61249 0.92064 0.0
H2210 H 0.63172 0.59212 0.92119 0.0
H2211 H 0.64316 0.57706 0.92406 0.0
H2212 H 0.64458 0.61786 0.90569 0.0
H2213 H 0.624 0.61292 0.94353 0.0
H2214 H 0.63568 0.60572 0.9403 0.0
H2215 H 0.62319 0.6016 0.93529 0.0
C2216 C 0.66173 0.59614 0.92273 0.0
C2217 C 0.65754 0.58604 0.92392 0.0
C2218 C 0.65515 0.60477 0.92126 0.0
C2219 C 0.64425 0.6035 0.92095 0.0
C2220 C 0.64008 0.59336 0.9217 0.0
H2221 H 0.59241 0.64758 0.91497 0.0
H2222 H 0.60347 0.63192 0.91474 0.0
C2223 C 0.64664 0.58473 0.92325 0.0
C2224 C 0.63727 0.61278 0.91999 0.0
H2225 H 0.61721 0.62575 0.93201 0.0
C2226 C 0.63861 0.61958 0.91146 0.0
C2227 C 0.6295 0.6151 0.92755 0.0
C2228 C 0.62805 0.60852 0.93724 0.0
C2229 C 0.63232 0.62853 0.91023 0.0
C2230 C 0.62453 0.63077 0.91774 0.0
C2231 C 0.62314 0.62396 0.92622 0.0
C2232 C 0.61794 0.64032 0.91714 0.0
C2233 C 0.63398 0.63548 0.90085 0.0
C2234 C 0.62241 0.65024 0.91856 0.0
C2235 C 0.61612 0.65919 0.91875 0.0
C2236 C 0.60522 0.6584 0.91751 0.0
C2237 C 0.60078 0.64847 0.91588 0.0
C2238 C 0.60708 0.63951 0.91578 0.0
H2239 H 0.63867 0.63154 0.89469 0.0
H2240 H 0.62637 0.63793 0.89746 0.0
H2241 H 0.63822 0.64263 0.90332 0.0
H2242 H 0.63075 0.65104 0.91978 0.0
H2243 H 0.61978 0.66671 0.92006 0.0
H2244 H 0.4236 0.64326 0.93357 0.0
H2245 H 0.4079 0.63263 0.93152 0.0
H2246 H 0.39435 0.6564 0.91175 0.0
H2247 H 0.40981 0.66741 0.91449 0.0
H2248 H 0.38018 0.65011 0.92352 0.0
H2249 H 0.39886 0.61413 0.90908 0.0
H2250 H 0.40424 0.6174 0.92156 0.0
H2251 H 0.40608 0.62611 0.91061 0.0
C2252 C 0.41732 0.64616 0.92868 0.0
C2253 C 0.41797 0.65612 0.9241 0.0
C2254 C 0.40835 0.64002 0.92743 0.0
C2255 C 0.39997 0.6435 0.92121 0.0
C2256 C 0.40068 0.65345 0.91654 0.0
H2257 H 0.35013 0.59837 0.90699 0.0
H2258 H 0.36532 0.60999 0.90583 0.0
C2259 C 0.40953 0.65974 0.91807 0.0
C2260 C 0.39027 0.63705 0.9201 0.0
H2261 H 0.38157 0.61207 0.91628 0.0
C2262 C 0.38051 0.64182 0.92177 0.0
C2263 C 0.39053 0.62625 0.91758 0.0
C2264 C 0.40049 0.62073 0.91449 0.0
C2265 C 0.37113 0.6361 0.92132 0.0
C2266 C 0.37148 0.62513 0.91972 0.0
C2267 C 0.38121 0.62042 0.91772 0.0
C2268 C 0.36193 0.61837 0.92017 0.0
C2269 C 0.36096 0.64201 0.92232 0.0
C2270 C 0.35491 0.61909 0.92861 0.0
C2271 C 0.34604 0.6127 0.92906 0.0
C2272 C 0.34421 0.60513 0.92133 0.0
C2273 C 0.35135 0.60416 0.91304 0.0
C2274 C 0.36005 0.6108 0.9124 0.0
H2275 H 0.36179 0.65018 0.91948 0.0
H2276 H 0.35458 0.6382 0.91784 0.0
H2277 H 0.35868 0.6424 0.93068 0.0
H2278 H 0.35634 0.62449 0.93496 0.0
H2279 H 0.34077 0.61346 0.93565 0.0
H2280 H 0.40727 0.35303 0.90816 0.0
H2281 H 0.39606 0.36856 0.90756 0.0
H2282 H 0.3792 0.35738 0.93458 0.0
H2283 H 0.38986 0.34154 0.93466 0.0
H2284 H 0.36601 0.3648 0.92229 0.0
H2285 H 0.3976 0.39423 0.92409 0.0
H2286 H 0.39888 0.38611 0.91276 0.0
H2287 H 0.40013 0.38047 0.92562 0.0
C2288 C 0.40116 0.35392 0.91396 0.0
C2289 C 0.39943 0.3461 0.92146 0.0
C2290 C 0.39482 0.36287 0.91369 0.0
C2291 C 0.38689 0.36436 0.92119 0.0
C2292 C 0.38522 0.35649 0.92869 0.0
H2293 H 0.35792 0.42408 0.93552 0.0
H2294 H 0.36918 0.40873 0.93397 0.0
C2295 C 0.39134 0.34743 0.92875 0.0
C2296 C 0.38012 0.37391 0.92113 0.0
H2297 H 0.38058 0.40063 0.92023 0.0
C2298 C 0.36923 0.37263 0.92192 0.0
C2299 C 0.38425 0.3842 0.92078 0.0
C2300 C 0.39585 0.38634 0.92088 0.0
C2301 C 0.36241 0.38123 0.92249 0.0
C2302 C 0.36649 0.39151 0.92164 0.0
C2303 C 0.37737 0.39279 0.92075 0.0
C2304 C 0.35971 0.40104 0.92221 0.0
C2305 C 0.35096 0.37912 0.92448 0.0
C2306 C 0.35068 0.40205 0.91599 0.0
C2307 C 0.34405 0.4107 0.91712 0.0
C2308 C 0.34654 0.41875 0.92416 0.0
C2309 C 0.35583 0.41802 0.92997 0.0
C2310 C 0.36228 0.40923 0.92909 0.0
H2311 H 0.34977 0.37142 0.92831 0.0
H2312 H 0.34743 0.38524 0.92952 0.0
H2313 H 0.34673 0.37895 0.91691 0.0
H2314 H 0.34869 0.39611 0.91031 0.0
H2315 H 0.33698 0.41112 0.91247 0.0
H2316 H 0.59562 0.33319 0.9206 0.0
H2317 H 0.61105 0.34443 0.91871 0.0
H2318 H 0.59224 0.37154 0.9255 0.0
H2319 H 0.57676 0.3604 0.92732 0.0
H2320 H 0.6137 0.36427 0.905 0.0
H2321 H 0.61721 0.36993 0.94802 0.0
H2322 H 0.61035 0.35894 0.94238 0.0
H2323 H 0.60447 0.37167 0.94228 0.0
C2324 C 0.59474 0.34156 0.92157 0.0
C2325 C 0.58495 0.3459 0.92413 0.0
C2326 C 0.60356 0.34796 0.92048 0.0
C2327 C 0.6028 0.3588 0.92204 0.0
C2328 C 0.593 0.36318 0.92432 0.0
H2329 H 0.64808 0.40898 0.91267 0.0
H2330 H 0.63261 0.39766 0.91217 0.0
C2331 C 0.58416 0.35681 0.92532 0.0
C2332 C 0.6123 0.36546 0.92172 0.0
H2333 H 0.62905 0.3792 0.93736 0.0
C2334 C 0.61707 0.36755 0.91206 0.0
C2335 C 0.6167 0.36965 0.93095 0.0
C2336 C 0.612 0.36743 0.94154 0.0
C2337 C 0.62608 0.37384 0.91139 0.0
C2338 C 0.63041 0.37815 0.92062 0.0
C2339 C 0.62569 0.37594 0.93028 0.0
C2340 C 0.63991 0.38485 0.92046 0.0
C2341 C 0.63101 0.37572 0.90085 0.0
C2342 C 0.64912 0.38144 0.92534 0.0
C2343 C 0.65798 0.38787 0.92561 0.0
C2344 C 0.65776 0.3979 0.9211 0.0
C2345 C 0.64853 0.40128 0.91618 0.0
C2346 C 0.63969 0.39481 0.91585 0.0
H2347 H 0.62799 0.37024 0.89482 0.0
H2348 H 0.62925 0.38382 0.89828 0.0
H2349 H 0.63964 0.3749 0.90132 0.0
H2350 H 0.64945 0.37381 0.929 0.0
H2351 H 0.66494 0.38503 0.92951 0.0
H2352 H 0.61848 0.33721 0.07881 0.0
H2353 H 0.62978 0.35265 0.07941 0.0
H2354 H 0.60331 0.37181 0.08765 0.0
H2355 H 0.59194 0.3564 0.0871 0.0
H2356 H 0.61606 0.37927 0.07028 0.0
H2357 H 0.63968 0.36971 0.10548 0.0
H2358 H 0.63853 0.35949 0.09589 0.0
H2359 H 0.62713 0.36375 0.10289 0.0
C2360 C 0.61507 0.34469 0.08085 0.0
C2361 C 0.6043 0.34556 0.08293 0.0
C2362 C 0.62156 0.3535 0.08124 0.0
C2363 C 0.61741 0.36336 0.08368 0.0
C2364 C 0.60668 0.36426 0.08581 0.0
H2365 H 0.6429 0.42677 0.08153 0.0
H2366 H 0.63156 0.41151 0.0836 0.0
C2367 C 0.6002 0.35544 0.0855 0.0
C2368 C 0.62417 0.37281 0.08352 0.0
H2369 H 0.6451 0.38433 0.09549 0.0
C2370 C 0.62237 0.38042 0.07583 0.0
C2371 C 0.63245 0.37425 0.09071 0.0
C2372 C 0.63456 0.36642 0.09927 0.0
C2373 C 0.62875 0.38933 0.07499 0.0
C2374 C 0.637 0.39084 0.08224 0.0
C2375 C 0.63877 0.38322 0.08996 0.0
C2376 C 0.64398 0.40016 0.08179 0.0
C2377 C 0.62679 0.39686 0.06612 0.0
C2378 C 0.65483 0.3989 0.08061 0.0
C2379 C 0.66136 0.40763 0.0796 0.0
C2380 C 0.65718 0.41781 0.07974 0.0
C2381 C 0.64637 0.41905 0.08131 0.0
C2382 C 0.63985 0.41032 0.0824 0.0
H2383 H 0.62229 0.39314 0.05968 0.0
H2384 H 0.62215 0.40358 0.06905 0.0
H2385 H 0.63425 0.3999 0.06287 0.0
H2386 H 0.65822 0.39115 0.08019 0.0
H2387 H 0.66965 0.40639 0.0784 0.0
H2388 H 0.65178 0.59839 0.09853 0.0
H2389 H 0.63658 0.61004 0.09926 0.0
H2390 H 0.64586 0.62392 0.06992 0.0
H2391 H 0.66142 0.61285 0.06963 0.0
H2392 H 0.6393 0.6384 0.08136 0.0
H2393 H 0.6099 0.60687 0.08463 0.0
H2394 H 0.61877 0.60675 0.09545 0.0
H2395 H 0.62353 0.60416 0.08243 0.0
C2396 C 0.65056 0.60397 0.09228 0.0
C2397 C 0.65775 0.60472 0.08402 0.0
C2398 C 0.6418 0.61056 0.09263 0.0
C2399 C 0.63983 0.61772 0.0845 0.0
C2400 C 0.64712 0.61849 0.0763 0.0
H2401 H 0.57949 0.64459 0.07002 0.0
H2402 H 0.59508 0.63381 0.07216 0.0
C2403 C 0.65603 0.61215 0.07612 0.0
C2404 C 0.63031 0.62451 0.08449 0.0
H2405 H 0.60369 0.6242 0.08687 0.0
C2406 C 0.63151 0.63526 0.08251 0.0
C2407 C 0.62008 0.62047 0.08585 0.0
C2408 C 0.61797 0.60892 0.08709 0.0
C2409 C 0.62286 0.642 0.08166 0.0
C2410 C 0.61266 0.63804 0.08344 0.0
C2411 C 0.61147 0.62732 0.0856 0.0
C2412 C 0.60306 0.64465 0.08246 0.0
C2413 C 0.62481 0.65317 0.07838 0.0
C2414 C 0.60216 0.65433 0.08763 0.0
C2415 C 0.59334 0.66067 0.08613 0.0
C2416 C 0.58505 0.65727 0.07978 0.0
C2417 C 0.58573 0.6474 0.07501 0.0
C2418 C 0.59466 0.64122 0.07625 0.0
H2419 H 0.63236 0.65398 0.07416 0.0
H2420 H 0.61848 0.65611 0.07321 0.0
H2421 H 0.62521 0.6582 0.08543 0.0
H2422 H 0.60829 0.65703 0.09279 0.0
H2423 H 0.59297 0.66821 0.08998 0.0
H2424 H 0.35888 0.58001 0.0704 0.0
H2425 H 0.36963 0.59563 0.07238 0.0
H2426 H 0.3456 0.6098 0.09138 0.0
H2427 H 0.33448 0.59442 0.08868 0.0
H2428 H 0.35235 0.62369 0.07957 0.0
H2429 H 0.38772 0.60474 0.09512 0.0
H2430 H 0.38467 0.59922 0.08264 0.0
H2431 H 0.37568 0.59766 0.09342 0.0
C2432 C 0.35594 0.58642 0.07509 0.0
C2433 C 0.34589 0.58597 0.07948 0.0
C2434 C 0.36215 0.59534 0.07631 0.0
C2435 C 0.35864 0.60386 0.08231 0.0
C2436 C 0.34858 0.60336 0.08676 0.0
H2437 H 0.40406 0.65324 0.09697 0.0
H2438 H 0.39222 0.63821 0.09803 0.0
C2439 C 0.34222 0.59455 0.08526 0.0
C2440 C 0.36519 0.61348 0.08343 0.0
H2441 H 0.39018 0.62189 0.08772 0.0
C2442 C 0.36059 0.62328 0.08151 0.0
C2443 C 0.37592 0.6131 0.08621 0.0
C2444 C 0.38123 0.60311 0.08958 0.0
C2445 C 0.36642 0.63259 0.08198 0.0
C2446 C 0.37734 0.6321 0.08385 0.0
C2447 C 0.38187 0.62234 0.08609 0.0
C2448 C 0.38423 0.64155 0.08345 0.0
C2449 C 0.36067 0.64282 0.08071 0.0
C2450 C 0.3838 0.64848 0.07492 0.0
C2451 C 0.39031 0.65726 0.07452 0.0
C2452 C 0.39771 0.65907 0.08241 0.0
C2453 C 0.3984 0.65202 0.0908 0.0
C2454 C 0.39164 0.64342 0.09137 0.0
H2455 H 0.35243 0.64213 0.08336 0.0
H2456 H 0.36446 0.64921 0.0852 0.0
H2457 H 0.36051 0.64499 0.07232 0.0
H2458 H 0.37854 0.64704 0.06845 0.0
H2459 H 0.38977 0.66247 0.06786 0.0
H2460 H 0.40563 0.33326 0.0773 0.0
H2461 H 0.39017 0.34442 0.07906 0.0
H2462 H 0.41 0.37109 0.0847 0.0
H2463 H 0.42548 0.36005 0.08266 0.0
H2464 H 0.38257 0.35654 0.09475 0.0
H2465 H 0.39243 0.38152 0.06073 0.0
H2466 H 0.39925 0.36949 0.06349 0.0
H2467 H 0.40253 0.38127 0.07045 0.0
C2468 C 0.4067 0.3415 0.07896 0.0
C2469 C 0.4168 0.34579 0.07975 0.0
C2470 C 0.39785 0.34787 0.07996 0.0
C2471 C 0.3989 0.35865 0.08178 0.0
C2472 C 0.40897 0.36286 0.083 0.0
H2473 H 0.35489 0.41014 0.08871 0.0
H2474 H 0.37019 0.39864 0.08935 0.0
C2475 C 0.41783 0.35652 0.08192 0.0
C2476 C 0.38949 0.3655 0.08228 0.0
H2477 H 0.37822 0.38711 0.07128 0.0
C2478 C 0.38161 0.3632 0.08959 0.0
C2479 C 0.38818 0.37417 0.07551 0.0
C2480 C 0.39599 0.37671 0.06703 0.0
C2481 C 0.37258 0.36943 0.09042 0.0
C2482 C 0.37136 0.37815 0.08375 0.0
C2483 C 0.37922 0.38046 0.07645 0.0
C2484 C 0.36191 0.38489 0.08404 0.0
C2485 C 0.36446 0.36674 0.09854 0.0
C2486 C 0.35217 0.38097 0.08085 0.0
C2487 C 0.34342 0.38754 0.08042 0.0
C2488 C 0.34424 0.39815 0.08319 0.0
C2489 C 0.35397 0.402 0.08658 0.0
C2490 C 0.36273 0.39545 0.08692 0.0
H2491 H 0.3675 0.36116 0.10446 0.0
H2492 H 0.3617 0.3739 0.1026 0.0
H2493 H 0.35762 0.36309 0.09464 0.0
H2494 H 0.35139 0.37289 0.07845 0.0
H2495 H 0.33605 0.38433 0.07774 0.0
H2496 H 0.92301 0.66841 0.59667 0.0
H2497 H 0.92048 0.65701 0.61183 0.0
H2498 H 0.91905 0.63017 0.59147 0.0
H2499 H 0.92187 0.64149 0.5763 0.0
H2500 H 0.9051 0.64359 0.61773 0.0
H2501 H 0.94196 0.62163 0.6114 0.0
H2502 H 0.93891 0.63346 0.60435 0.0
H2503 H 0.93326 0.62119 0.60041 0.0
C2504 C 0.92209 0.66008 0.5954 0.0
C2505 C 0.92273 0.65585 0.58528 0.0
C2506 C 0.92065 0.65358 0.60409 0.0
C2507 C 0.9198 0.6427 0.60283 0.0
C2508 C 0.91997 0.6385 0.59268 0.0
H2509 H 0.91413 0.59127 0.6474 0.0
H2510 H 0.91357 0.60223 0.63169 0.0
C2511 C 0.9215 0.64499 0.584 0.0
C2512 C 0.91893 0.63578 0.61216 0.0
H2513 H 0.93077 0.61538 0.62476 0.0
C2514 C 0.91072 0.63743 0.61927 0.0
C2515 C 0.9263 0.62776 0.61421 0.0
C2516 C 0.93566 0.62595 0.60725 0.0
C2517 C 0.90962 0.63124 0.62829 0.0
C2518 C 0.91696 0.62321 0.63029 0.0
C2519 C 0.92511 0.6215 0.62316 0.0
C2520 C 0.91654 0.61671 0.6399 0.0
C2521 C 0.90057 0.63324 0.63558 0.0
C2522 C 0.91837 0.62122 0.64974 0.0
C2523 C 0.91875 0.61498 0.65872 0.0
C2524 C 0.91728 0.6041 0.65804 0.0
C2525 C 0.91523 0.59963 0.6482 0.0
C2526 C 0.91494 0.60587 0.63921 0.0
H2527 H 0.89438 0.63803 0.6318 0.0
H2528 H 0.89709 0.62577 0.63828 0.0
H2529 H 0.90343 0.63754 0.64255 0.0
H2530 H 0.91978 0.62954 0.65043 0.0
H2531 H 0.92038 0.61866 0.66617 0.0
H2532 H 0.3602 0.92053 0.57734 0.0
H2533 H 0.37144 0.91827 0.59265 0.0
H2534 H 0.34453 0.92068 0.61281 0.0
H2535 H 0.33321 0.9227 0.59752 0.0
H2536 H 0.37468 0.93204 0.60827 0.0
H2537 H 0.35884 0.89538 0.62499 0.0
H2538 H 0.3557 0.89971 0.61193 0.0
H2539 H 0.349 0.90518 0.62303 0.0
C2540 C 0.35664 0.92041 0.58502 0.0
C2541 C 0.34579 0.92174 0.5862 0.0
C2542 C 0.36309 0.91914 0.59378 0.0
C2543 C 0.35884 0.91917 0.6039 0.0
C2544 C 0.34799 0.92038 0.60509 0.0
H2545 H 0.38387 0.92248 0.66676 0.0
H2546 H 0.37295 0.92187 0.65105 0.0
C2547 C 0.34152 0.92158 0.59633 0.0
C2548 C 0.36584 0.9186 0.61321 0.0
H2549 H 0.37027 0.90526 0.63596 0.0
C2550 C 0.37377 0.92612 0.61426 0.0
C2551 C 0.36465 0.91089 0.62107 0.0
C2552 C 0.35665 0.90227 0.62017 0.0
C2553 C 0.38038 0.9263 0.62305 0.0
C2554 C 0.3791 0.91867 0.63096 0.0
C2555 C 0.37122 0.91111 0.62989 0.0
C2556 C 0.38575 0.91858 0.6405 0.0
C2557 C 0.38849 0.93482 0.62394 0.0
C2558 C 0.39655 0.91674 0.63981 0.0
C2559 C 0.40282 0.91705 0.64879 0.0
C2560 C 0.39839 0.91921 0.65863 0.0
C2561 C 0.38753 0.92082 0.65931 0.0
C2562 C 0.38127 0.92047 0.65034 0.0
H2563 H 0.38699 0.94132 0.61838 0.0
H2564 H 0.3887 0.93803 0.632 0.0
H2565 H 0.39631 0.93151 0.62217 0.0
H2566 H 0.40014 0.91512 0.63232 0.0
H2567 H 0.41114 0.91575 0.648 0.0
H2568 H 0.07919 0.38405 0.66518 0.0
H2569 H 0.0798 0.37286 0.64969 0.0
H2570 H 0.08873 0.39935 0.63085 0.0
H2571 H 0.08841 0.41054 0.64637 0.0
H2572 H 0.06809 0.37413 0.63237 0.0
H2573 H 0.10977 0.37804 0.62121 0.0
H2574 H 0.10486 0.38233 0.63372 0.0
H2575 H 0.10317 0.39037 0.6223 0.0
C2576 C 0.08143 0.38747 0.65777 0.0
C2577 C 0.08381 0.39818 0.65703 0.0
C2578 C 0.08175 0.38106 0.6489 0.0
C2579 C 0.08445 0.3852 0.63909 0.0
C2580 C 0.08688 0.39589 0.63835 0.0
H2581 H 0.08169 0.36066 0.57563 0.0
H2582 H 0.08372 0.37157 0.59126 0.0
C2583 C 0.08664 0.4023 0.64723 0.0
C2584 C 0.08413 0.37843 0.6296 0.0
H2585 H 0.09856 0.36986 0.60876 0.0
C2586 C 0.07478 0.37315 0.62726 0.0
C2587 C 0.09285 0.37716 0.62288 0.0
C2588 C 0.10326 0.38219 0.62519 0.0
C2589 C 0.07387 0.36676 0.61837 0.0
C2590 C 0.08257 0.36553 0.61164 0.0
C2591 C 0.0919 0.37082 0.61393 0.0
C2592 C 0.08204 0.35878 0.60219 0.0
C2593 C 0.06354 0.36154 0.61611 0.0
C2594 C 0.08067 0.34794 0.60314 0.0
C2595 C 0.07956 0.34167 0.59423 0.0
C2596 C 0.07978 0.34613 0.58418 0.0
C2597 C 0.08147 0.35697 0.58325 0.0
C2598 C 0.08263 0.36322 0.59217 0.0
H2599 H 0.05706 0.36502 0.62073 0.0
H2600 H 0.06158 0.36212 0.60767 0.0
H2601 H 0.06409 0.35312 0.61815 0.0
H2602 H 0.08033 0.34433 0.6108 0.0
H2603 H 0.07829 0.33336 0.59524 0.0
H2604 H 0.59328 0.08615 0.64783 0.0
H2605 H 0.60424 0.08589 0.63211 0.0
H2606 H 0.63153 0.0807 0.65121 0.0
H2607 H 0.62061 0.08066 0.66688 0.0
H2608 H 0.62086 0.09746 0.62537 0.0
H2609 H 0.63322 0.05636 0.63123 0.0
H2610 H 0.62281 0.06225 0.63869 0.0
H2611 H 0.63624 0.06456 0.6422 0.0
C2612 C 0.60163 0.08503 0.64868 0.0
C2613 C 0.60606 0.08333 0.6586 0.0
C2614 C 0.60789 0.08487 0.63968 0.0
C2615 C 0.61869 0.08302 0.64043 0.0
C2616 C 0.62318 0.08183 0.65038 0.0
H2617 H 0.67015 0.07727 0.59658 0.0
H2618 H 0.65902 0.07998 0.61191 0.0
C2619 C 0.61693 0.0819 0.65936 0.0
C2620 C 0.62523 0.08215 0.63083 0.0
H2621 H 0.64215 0.06589 0.61801 0.0
C2622 C 0.62547 0.09054 0.62374 0.0
C2623 C 0.63121 0.07308 0.62864 0.0
C2624 C 0.63079 0.06351 0.63553 0.0
C2625 C 0.63171 0.0902 0.61467 0.0
C2626 C 0.63782 0.08121 0.61262 0.0
C2627 C 0.63753 0.07281 0.61965 0.0
C2628 C 0.64454 0.08031 0.60318 0.0
C2629 C 0.63188 0.09951 0.60745 0.0
C2630 C 0.6401 0.07961 0.59317 0.0
C2631 C 0.64644 0.078 0.58438 0.0
C2632 C 0.65736 0.07709 0.58544 0.0
C2633 C 0.66179 0.07799 0.59547 0.0
C2634 C 0.65544 0.07952 0.60425 0.0
H2635 H 0.6284 0.10656 0.61114 0.0
H2636 H 0.64002 0.10134 0.60503 0.0
H2637 H 0.62734 0.09766 0.60029 0.0
H2638 H 0.6317 0.08004 0.59218 0.0
H2639 H 0.64278 0.0773 0.57678 0.0
H2640 H 0.93467 0.36 0.42299 0.0
H2641 H 0.93261 0.37085 0.40744 0.0
H2642 H 0.91164 0.34796 0.39421 0.0
H2643 H 0.91436 0.33671 0.40949 0.0
H2644 H 0.92329 0.35392 0.3798 0.0
H2645 H 0.91064 0.39026 0.3991 0.0
H2646 H 0.92313 0.38648 0.40412 0.0
H2647 H 0.91191 0.37816 0.40619 0.0
C2648 C 0.92952 0.35735 0.41681 0.0
C2649 C 0.9246 0.34756 0.41749 0.0
C2650 C 0.92827 0.36361 0.40793 0.0
C2651 C 0.92171 0.36044 0.39968 0.0
C2652 C 0.9167 0.35067 0.40043 0.0
H2653 H 0.90754 0.40629 0.35046 0.0
H2654 H 0.90647 0.39464 0.36564 0.0
C2655 C 0.91822 0.34425 0.40919 0.0
C2656 C 0.92059 0.36702 0.39006 0.0
H2657 H 0.91736 0.39217 0.38161 0.0
C2658 C 0.92184 0.36227 0.38022 0.0
C2659 C 0.91845 0.3779 0.39046 0.0
C2660 C 0.91584 0.38345 0.40054 0.0
C2661 C 0.92132 0.36806 0.37089 0.0
C2662 C 0.92008 0.37907 0.37135 0.0
C2663 C 0.91851 0.38378 0.38116 0.0
C2664 C 0.92047 0.38587 0.36183 0.0
C2665 C 0.92185 0.36219 0.36066 0.0
C2666 C 0.92869 0.38495 0.35458 0.0
C2667 C 0.9291 0.39138 0.34573 0.0
C2668 C 0.92153 0.39917 0.34413 0.0
C2669 C 0.91346 0.40032 0.35149 0.0
C2670 C 0.91287 0.39367 0.36018 0.0
H2671 H 0.9188 0.35411 0.36153 0.0
H2672 H 0.91731 0.36618 0.35443 0.0
H2673 H 0.93013 0.36157 0.35815 0.0
H2674 H 0.93492 0.37936 0.35581 0.0
H2675 H 0.93552 0.39045 0.34029 0.0
H2676 H 0.64276 0.92228 0.42735 0.0
H2677 H 0.63141 0.91934 0.41222 0.0
H2678 H 0.65827 0.92036 0.39185 0.0
H2679 H 0.66966 0.923 0.40694 0.0
H2680 H 0.62806 0.93209 0.39607 0.0
H2681 H 0.64386 0.89482 0.38079 0.0
H2682 H 0.64718 0.89974 0.39359 0.0
H2683 H 0.65379 0.90462 0.38215 0.0
C2684 C 0.64627 0.9217 0.41967 0.0
C2685 C 0.65713 0.92281 0.41837 0.0
C2686 C 0.63977 0.92004 0.41101 0.0
C2687 C 0.64397 0.91946 0.40088 0.0
C2688 C 0.65483 0.92048 0.39959 0.0
H2689 H 0.61903 0.92287 0.33811 0.0
H2690 H 0.62994 0.92229 0.35384 0.0
C2691 C 0.66135 0.92206 0.40824 0.0
C2692 C 0.63696 0.91851 0.39162 0.0
H2693 H 0.63275 0.9045 0.36922 0.0
C2694 C 0.62902 0.92598 0.39027 0.0
C2695 C 0.6382 0.91054 0.38401 0.0
C2696 C 0.64615 0.90192 0.38525 0.0
C2697 C 0.62248 0.92586 0.38144 0.0
C2698 C 0.62388 0.91804 0.37376 0.0
C2699 C 0.63173 0.91051 0.37511 0.0
C2700 C 0.61736 0.91773 0.36416 0.0
C2701 C 0.61429 0.93426 0.38023 0.0
C2702 C 0.60671 0.91515 0.36473 0.0
C2703 C 0.60046 0.91541 0.35574 0.0
C2704 C 0.60475 0.9183 0.34603 0.0
C2705 C 0.61548 0.92063 0.34546 0.0
C2706 C 0.62173 0.9203 0.35444 0.0
H2707 H 0.61533 0.9407 0.38596 0.0
H2708 H 0.61451 0.93759 0.37221 0.0
H2709 H 0.60643 0.93079 0.38143 0.0
H2710 H 0.6032 0.91307 0.37215 0.0
H2711 H 0.59222 0.91357 0.35645 0.0
H2712 H 0.07806 0.66985 0.40628 0.0
H2713 H 0.08012 0.65843 0.39108 0.0
H2714 H 0.08276 0.6317 0.41146 0.0
H2715 H 0.08037 0.64304 0.42669 0.0
H2716 H 0.09524 0.64541 0.38443 0.0
H2717 H 0.0594 0.62245 0.39261 0.0
H2718 H 0.0625 0.63432 0.39955 0.0
H2719 H 0.06863 0.62217 0.40316 0.0
C2720 C 0.07915 0.66154 0.40754 0.0
C2721 C 0.07897 0.65735 0.41771 0.0
C2722 C 0.08032 0.65501 0.39883 0.0
C2723 C 0.08136 0.64415 0.40008 0.0
C2724 C 0.08167 0.64001 0.41026 0.0
H2725 H 0.08788 0.59276 0.35561 0.0
H2726 H 0.08852 0.60396 0.37115 0.0
C2727 C 0.08039 0.64652 0.41897 0.0
C2728 C 0.08196 0.6372 0.39074 0.0
H2729 H 0.07019 0.61634 0.37882 0.0
C2730 C 0.08975 0.63907 0.38321 0.0
C2731 C 0.07476 0.62894 0.38908 0.0
C2732 C 0.06579 0.6269 0.39647 0.0
C2733 C 0.09058 0.63287 0.37416 0.0
C2734 C 0.08344 0.62458 0.37258 0.0
C2735 C 0.07571 0.62266 0.38011 0.0
C2736 C 0.08368 0.61798 0.36303 0.0
C2737 C 0.09914 0.63513 0.36637 0.0
C2738 C 0.08076 0.62215 0.35331 0.0
C2739 C 0.08031 0.61576 0.34443 0.0
C2740 C 0.08283 0.60507 0.3451 0.0
C2741 C 0.08595 0.60096 0.35481 0.0
C2742 C 0.0863 0.60734 0.36371 0.0
H2743 H 0.10516 0.64049 0.36961 0.0
H2744 H 0.10299 0.62776 0.36386 0.0
H2745 H 0.09569 0.63885 0.35933 0.0
H2746 H 0.07859 0.63031 0.35265 0.0
H2747 H 0.07784 0.61916 0.33708 0.0
H2748 H 0.41183 0.08712 0.35561 0.0
H2749 H 0.40091 0.08704 0.37137 0.0
H2750 H 0.37324 0.08524 0.3522 0.0
H2751 H 0.38408 0.0851 0.33647 0.0
H2752 H 0.38519 0.10014 0.37835 0.0
H2753 H 0.36954 0.06031 0.37142 0.0
H2754 H 0.38051 0.06548 0.36423 0.0
H2755 H 0.36737 0.06906 0.36067 0.0
C2756 C 0.40342 0.08675 0.35476 0.0
C2757 C 0.39883 0.08603 0.34479 0.0
C2758 C 0.39718 0.0867 0.36377 0.0
C2759 C 0.38626 0.08592 0.36299 0.0
C2760 C 0.38166 0.08558 0.35302 0.0
H2761 H 0.33468 0.08169 0.40693 0.0
H2762 H 0.34577 0.08434 0.39156 0.0
C2763 C 0.38787 0.08557 0.34403 0.0
C2764 C 0.37966 0.08533 0.37256 0.0
H2765 H 0.36154 0.07013 0.385 0.0
C2766 C 0.38005 0.09355 0.37983 0.0
C2767 C 0.37298 0.07671 0.37452 0.0
C2768 C 0.37263 0.06734 0.36736 0.0
C2769 C 0.37378 0.09351 0.38887 0.0
C2770 C 0.36702 0.08496 0.39075 0.0
C2771 C 0.36667 0.07672 0.38351 0.0
C2772 C 0.3603 0.08429 0.40021 0.0
C2773 C 0.37428 0.10269 0.39625 0.0
C2774 C 0.36478 0.08345 0.41021 0.0
C2775 C 0.35845 0.08192 0.41901 0.0
C2776 C 0.34752 0.08118 0.418 0.0
C2777 C 0.34305 0.08228 0.408 0.0
C2778 C 0.34939 0.08376 0.3992 0.0
H2779 H 0.37793 0.10964 0.39252 0.0
H2780 H 0.36634 0.10485 0.39903 0.0
H2781 H 0.37904 0.10053 0.40317 0.0
H2782 H 0.37319 0.08366 0.41116 0.0
H2783 H 0.36214 0.08104 0.42658 0.0
H2784 H 0.57602 0.92202 0.64197 0.0
H2785 H 0.59127 0.91921 0.63075 0.0
H2786 H 0.61129 0.91937 0.65788 0.0
H2787 H 0.59607 0.92194 0.66915 0.0
H2788 H 0.60772 0.93214 0.62819 0.0
H2789 H 0.62212 0.89399 0.64271 0.0
H2790 H 0.60931 0.89895 0.64593 0.0
H2791 H 0.62064 0.90347 0.65294 0.0
C2792 C 0.58365 0.92127 0.64557 0.0
C2793 C 0.58481 0.92215 0.65646 0.0
C2794 C 0.59237 0.91969 0.63914 0.0
C2795 C 0.60244 0.91893 0.64346 0.0
C2796 C 0.6036 0.91967 0.65436 0.0
H2797 H 0.66577 0.91999 0.61954 0.0
H2798 H 0.64986 0.91978 0.63019 0.0
C2799 C 0.59488 0.92119 0.6608 0.0
C2800 C 0.61177 0.9181 0.63654 0.0
H2801 H 0.63387 0.90376 0.63194 0.0
C2802 C 0.61337 0.92587 0.62894 0.0
C2803 C 0.61919 0.90993 0.63753 0.0
C2804 C 0.6177 0.90106 0.64515 0.0
C2805 C 0.62228 0.92585 0.6225 0.0
C2806 C 0.62975 0.91777 0.6236 0.0
C2807 C 0.62814 0.90995 0.63113 0.0
C2808 C 0.63939 0.91745 0.61712 0.0
C2809 C 0.62377 0.93463 0.61477 0.0
C2810 C 0.6388 0.91602 0.60625 0.0
C2811 C 0.64789 0.9161 0.60014 0.0
C2812 C 0.65774 0.91761 0.60479 0.0
C2813 C 0.65831 0.91883 0.61571 0.0
C2814 C 0.64923 0.9187 0.62181 0.0
H2815 H 0.61851 0.94134 0.61641 0.0
H2816 H 0.63199 0.93744 0.61486 0.0
H2817 H 0.62203 0.93173 0.60678 0.0
H2818 H 0.6313 0.91489 0.60249 0.0
H2819 H 0.64717 0.91511 0.59177 0.0
H2820 H 0.65239 0.09607 0.40589 0.0
H2821 H 0.63683 0.09671 0.39472 0.0
H2822 H 0.6474 0.06907 0.37849 0.0
H2823 H 0.66326 0.0689 0.3891 0.0
H2824 H 0.63978 0.08113 0.36506 0.0
H2825 H 0.61113 0.08027 0.39743 0.0
H2826 H 0.61936 0.09156 0.39817 0.0
H2827 H 0.62494 0.0787 0.39964 0.0
C2828 C 0.65139 0.09019 0.39988 0.0
C2829 C 0.65902 0.08245 0.39835 0.0
C2830 C 0.64242 0.09047 0.39357 0.0
C2831 C 0.64071 0.08277 0.3859 0.0
C2832 C 0.64845 0.07511 0.38433 0.0
H2833 H 0.58054 0.06712 0.35871 0.0
H2834 H 0.59609 0.06919 0.36962 0.0
C2835 C 0.65753 0.07501 0.39041 0.0
C2836 C 0.63101 0.08268 0.37936 0.0
H2837 H 0.60431 0.08344 0.38046 0.0
C2838 C 0.63203 0.08157 0.36847 0.0
C2839 C 0.62083 0.08311 0.38373 0.0
C2840 C 0.61898 0.08336 0.39538 0.0
C2841 C 0.62326 0.08075 0.36188 0.0
C2842 C 0.61309 0.08165 0.3662 0.0
C2843 C 0.61207 0.08287 0.37708 0.0
C2844 C 0.60341 0.08081 0.35969 0.0
C2845 C 0.62509 0.07845 0.35045 0.0
C2846 C 0.60211 0.0868 0.35055 0.0
C2847 C 0.59334 0.08538 0.34414 0.0
C2848 C 0.58546 0.07827 0.34696 0.0
C2849 C 0.58646 0.07271 0.35637 0.0
C2850 C 0.59537 0.07389 0.36261 0.0
H2851 H 0.6328 0.07466 0.34916 0.0
H2852 H 0.61894 0.07324 0.34723 0.0
H2853 H 0.62506 0.08588 0.34599 0.0
H2854 H 0.60793 0.09251 0.34829 0.0
H2855 H 0.59271 0.08986 0.33698 0.0
H2856 H 0.93315 0.58059 0.35857 0.0
H2857 H 0.93113 0.59612 0.36946 0.0
H2858 H 0.91103 0.6099 0.34611 0.0
H2859 H 0.91375 0.59465 0.33484 0.0
H2860 H 0.9226 0.62408 0.35256 0.0
H2861 H 0.9088 0.60457 0.38835 0.0
H2862 H 0.92133 0.59944 0.38486 0.0
H2863 H 0.91031 0.59758 0.37622 0.0
C2864 C 0.92822 0.5869 0.35581 0.0
C2865 C 0.92352 0.58638 0.3459 0.0
C2866 C 0.92698 0.59577 0.3621 0.0
C2867 C 0.92065 0.60415 0.35883 0.0
C2868 C 0.9159 0.60357 0.34891 0.0
H2869 H 0.90604 0.65308 0.40491 0.0
H2870 H 0.905 0.63802 0.39308 0.0
C2871 C 0.91742 0.59483 0.34246 0.0
C2872 C 0.91946 0.61372 0.36547 0.0
H2873 H 0.91569 0.62195 0.39062 0.0
C2874 C 0.92093 0.62359 0.36085 0.0
C2875 C 0.91704 0.61323 0.37629 0.0
C2876 C 0.91416 0.60313 0.38167 0.0
C2877 C 0.92034 0.63286 0.36673 0.0
C2878 C 0.91883 0.63231 0.3777 0.0
C2879 C 0.91705 0.62247 0.38227 0.0
C2880 C 0.9192 0.64175 0.38461 0.0
C2881 C 0.9211 0.64314 0.36097 0.0
C2882 C 0.92752 0.64891 0.38391 0.0
C2883 C 0.92791 0.65769 0.39042 0.0
C2884 C 0.92022 0.65931 0.39808 0.0
C2885 C 0.91205 0.65203 0.39903 0.0
C2886 C 0.91148 0.64341 0.39228 0.0
H2887 H 0.91819 0.64239 0.35282 0.0
H2888 H 0.91655 0.64938 0.36493 0.0
H2889 H 0.92941 0.64557 0.36053 0.0
H2890 H 0.93384 0.64764 0.37843 0.0
H2891 H 0.93442 0.66305 0.38967 0.0
H2892 H 0.40641 0.92428 0.33368 0.0
H2893 H 0.39128 0.92205 0.34519 0.0
H2894 H 0.41174 0.92097 0.37196 0.0
H2895 H 0.42687 0.92351 0.36054 0.0
H2896 H 0.38535 0.90695 0.35882 0.0
H2897 H 0.39197 0.944 0.38035 0.0
H2898 H 0.39897 0.94077 0.36855 0.0
H2899 H 0.40292 0.93526 0.38088 0.0
C2900 C 0.4077 0.92351 0.34202 0.0
C2901 C 0.41784 0.92416 0.3462 0.0
C2902 C 0.39903 0.92224 0.34859 0.0
C2903 C 0.40033 0.92158 0.35948 0.0
C2904 C 0.4105 0.92177 0.36362 0.0
H2905 H 0.35626 0.91602 0.41133 0.0
H2906 H 0.37185 0.91552 0.4002 0.0
C2907 C 0.41916 0.92313 0.35707 0.0
C2908 C 0.39104 0.92083 0.36646 0.0
H2909 H 0.37867 0.93287 0.38689 0.0
C2910 C 0.38388 0.91263 0.36494 0.0
C2911 C 0.38908 0.92827 0.37444 0.0
C2912 C 0.39608 0.93763 0.37611 0.0
C2913 C 0.37492 0.91161 0.37123 0.0
C2914 C 0.37303 0.91901 0.37922 0.0
C2915 C 0.38019 0.92716 0.3808 0.0
C2916 C 0.36349 0.91864 0.38584 0.0
C2917 C 0.36758 0.90257 0.36937 0.0
C2918 C 0.35362 0.92057 0.38146 0.0
C2919 C 0.34471 0.92092 0.38779 0.0
C2920 C 0.34549 0.91934 0.39865 0.0
C2921 C 0.35537 0.91722 0.403 0.0
C2922 C 0.3643 0.91696 0.39666 0.0
H2923 H 0.37124 0.89637 0.36452 0.0
H2924 H 0.36502 0.8991 0.37691 0.0
H2925 H 0.36052 0.90544 0.36523 0.0
H2926 H 0.35284 0.92204 0.37315 0.0
H2927 H 0.33723 0.9226 0.3842 0.0
H2928 H 0.08106 0.42741 0.36142 0.0
H2929 H 0.08346 0.41206 0.37259 0.0
H2930 H 0.08146 0.39203 0.34554 0.0
H2931 H 0.07928 0.40734 0.33431 0.0
H2932 H 0.0699 0.39611 0.37564 0.0
H2933 H 0.10698 0.38025 0.35988 0.0
H2934 H 0.10242 0.39326 0.35685 0.0
H2935 H 0.09722 0.38214 0.34998 0.0
C2936 C 0.0813 0.41975 0.35782 0.0
C2937 C 0.08004 0.41861 0.34695 0.0
C2938 C 0.08264 0.41097 0.36423 0.0
C2939 C 0.08279 0.40087 0.35991 0.0
C2940 C 0.08163 0.39973 0.34905 0.0
H2941 H 0.08051 0.33762 0.38386 0.0
H2942 H 0.08087 0.35356 0.37327 0.0
C2943 C 0.08033 0.40851 0.34263 0.0
C2944 C 0.08349 0.39152 0.36684 0.0
H2945 H 0.09718 0.36894 0.37106 0.0
C2946 C 0.07593 0.39023 0.37471 0.0
C2947 C 0.09135 0.38381 0.36561 0.0
C2948 C 0.10001 0.38496 0.35769 0.0
C2949 C 0.07585 0.38135 0.38118 0.0
C2950 C 0.08361 0.37358 0.37985 0.0
C2951 C 0.09123 0.37489 0.37205 0.0
C2952 C 0.08379 0.36392 0.38631 0.0
C2953 C 0.06728 0.38019 0.3892 0.0
C2954 C 0.08549 0.36442 0.39715 0.0
C2955 C 0.08532 0.35531 0.40323 0.0
C2956 C 0.08344 0.34552 0.39858 0.0
C2957 C 0.08194 0.34503 0.3877 0.0
C2958 C 0.08216 0.35413 0.38162 0.0
H2959 H 0.0607 0.38567 0.38774 0.0
H2960 H 0.06419 0.37208 0.38926 0.0
H2961 H 0.07049 0.38189 0.39708 0.0
H2962 H 0.08692 0.37187 0.40091 0.0
H2963 H 0.08653 0.35595 0.41159 0.0
H2964 H 0.35663 0.08708 0.59244 0.0
H2965 H 0.37231 0.08713 0.60347 0.0
H2966 H 0.35315 0.08225 0.63077 0.0
H2967 H 0.33752 0.08189 0.61979 0.0
H2968 H 0.37894 0.09901 0.6199 0.0
H2969 H 0.37327 0.0581 0.63297 0.0
H2970 H 0.3658 0.06376 0.62244 0.0
H2971 H 0.36224 0.06628 0.63582 0.0
C2972 C 0.35575 0.08609 0.60081 0.0
C2973 C 0.34583 0.08438 0.60523 0.0
C2974 C 0.36473 0.08611 0.6071 0.0
C2975 C 0.36396 0.08444 0.61794 0.0
C2976 C 0.354 0.08325 0.62241 0.0
H2977 H 0.40755 0.07958 0.66968 0.0
H2978 H 0.39231 0.08227 0.65844 0.0
C2979 C 0.34505 0.08313 0.61612 0.0
C2980 C 0.37354 0.08375 0.62453 0.0
H2981 H 0.38638 0.06787 0.6418 0.0
C2982 C 0.38059 0.09218 0.62465 0.0
C2983 C 0.37576 0.0748 0.63068 0.0
C2984 C 0.36893 0.06518 0.63041 0.0
C2985 C 0.38964 0.092 0.63093 0.0
C2986 C 0.39171 0.08314 0.63721 0.0
C2987 C 0.38472 0.07469 0.63704 0.0
C2988 C 0.40112 0.0824 0.64401 0.0
C2989 C 0.39681 0.10135 0.63096 0.0
C2990 C 0.41116 0.08164 0.63964 0.0
C2991 C 0.4199 0.08004 0.64605 0.0
C2992 C 0.41877 0.0792 0.65696 0.0
C2993 C 0.40872 0.08024 0.66132 0.0
C2994 C 0.39999 0.08176 0.6549 0.0
H2995 H 0.39311 0.10831 0.62731 0.0
H2996 H 0.39917 0.10335 0.63907 0.0
H2997 H 0.404 0.09945 0.6265 0.0
H2998 H 0.41219 0.08196 0.63124 0.0
H2999 H 0.42751 0.07922 0.64243 0.0
H3000 H 0.93618 0.3406 0.61255 0.0
H3001 H 0.93562 0.35609 0.62371 0.0
H3002 H 0.90643 0.3653 0.60948 0.0
H3003 H 0.90744 0.3502 0.59774 0.0
H3004 H 0.91697 0.3815 0.61168 0.0
H3005 H 0.92025 0.36124 0.64954 0.0
H3006 H 0.93141 0.35821 0.64166 0.0
H3007 H 0.91853 0.35418 0.63748 0.0
C3008 C 0.92961 0.34591 0.61187 0.0
C3009 C 0.92181 0.34417 0.60435 0.0
C3010 C 0.92923 0.35473 0.61834 0.0
C3011 C 0.92081 0.36178 0.61774 0.0
C3012 C 0.91299 0.36 0.6102 0.0
H3013 H 0.91501 0.40898 0.66737 0.0
H3014 H 0.91242 0.39364 0.65616 0.0
C3015 C 0.91355 0.35135 0.6035 0.0
C3016 C 0.92042 0.37125 0.62461 0.0
H3017 H 0.92425 0.37962 0.64969 0.0
C3018 C 0.91842 0.38104 0.62002 0.0
C3019 C 0.92204 0.37075 0.63557 0.0
C3020 C 0.92305 0.36051 0.64134 0.0
C3021 C 0.91829 0.39029 0.62597 0.0
C3022 C 0.92081 0.38988 0.63676 0.0
C3023 C 0.9225 0.38006 0.64141 0.0
C3024 C 0.92187 0.39949 0.64336 0.0
C3025 C 0.91518 0.40032 0.62058 0.0
C3026 C 0.92805 0.40795 0.64001 0.0
C3027 C 0.92921 0.41685 0.64626 0.0
C3028 C 0.92458 0.41734 0.6562 0.0
C3029 C 0.91862 0.40882 0.65971 0.0
C3030 C 0.91718 0.40004 0.65331 0.0
H3031 H 0.90979 0.39876 0.61395 0.0
H3032 H 0.91128 0.40582 0.62604 0.0
H3033 H 0.92226 0.40413 0.61732 0.0
H3034 H 0.93216 0.40762 0.63262 0.0
H3035 H 0.93404 0.42321 0.64345 0.0
H3036 H 0.07897 0.59705 0.6705 0.0
H3037 H 0.08135 0.61235 0.65923 0.0
H3038 H 0.08464 0.59215 0.63244 0.0
H3039 H 0.082 0.57686 0.6436 0.0
H3040 H 0.09703 0.61891 0.64626 0.0
H3041 H 0.06121 0.61113 0.62311 0.0
H3042 H 0.06412 0.60425 0.63506 0.0
H3043 H 0.07029 0.60044 0.623 0.0
C3044 C 0.08027 0.59586 0.66222 0.0
C3045 C 0.0802 0.58573 0.65794 0.0
C3046 C 0.08162 0.60462 0.65578 0.0
C3047 C 0.08294 0.60344 0.64493 0.0
C3048 C 0.08335 0.5933 0.64073 0.0
H3049 H 0.08887 0.64731 0.593 0.0
H3050 H 0.08948 0.63184 0.60431 0.0
C3051 C 0.08192 0.58455 0.64714 0.0
C3052 C 0.08368 0.61278 0.63802 0.0
H3053 H 0.07224 0.62472 0.617 0.0
C3054 C 0.09159 0.62018 0.63988 0.0
C3055 C 0.07656 0.6145 0.6297 0.0
C3056 C 0.0675 0.60722 0.62764 0.0
C3057 C 0.09266 0.62914 0.63357 0.0
C3058 C 0.08559 0.63079 0.62523 0.0
C3059 C 0.07771 0.62339 0.62335 0.0
C3060 C 0.086 0.64028 0.61854 0.0
C3061 C 0.10142 0.63671 0.63579 0.0
C3062 C 0.08385 0.65017 0.62278 0.0
C3063 C 0.08344 0.65901 0.61634 0.0
C3064 C 0.08518 0.65814 0.60551 0.0
C3065 C 0.08755 0.64826 0.60131 0.0
C3066 C 0.08788 0.6394 0.60776 0.0
H3067 H 0.10756 0.63318 0.64081 0.0
H3068 H 0.10507 0.63945 0.6284 0.0
H3069 H 0.09822 0.64364 0.63991 0.0
H3070 H 0.0822 0.65101 0.63105 0.0
H3071 H 0.08156 0.6665 0.61983 0.0
H3072 H 0.10054 0.21384 0.42846 0.0
H3073 H 0.10241 0.23209 0.42354 0.0
H3074 H 0.09279 0.22475 0.39208 0.0
H3075 H 0.09088 0.20618 0.397 0.0
H3076 H 0.11459 0.24214 0.4071 0.0
H3077 H 0.07147 0.24714 0.40317 0.0
H3078 H 0.07711 0.23605 0.40982 0.0
H3079 H 0.07762 0.23683 0.39583 0.0
C3080 C 0.09888 0.21604 0.42045 0.0
C3081 C 0.09546 0.20858 0.41313 0.0
C3082 C 0.10002 0.2265 0.41765 0.0
C3083 C 0.09768 0.22979 0.40749 0.0
C3084 C 0.09457 0.22235 0.4 0.0
H3085 H 0.0856 0.29516 0.39315 0.0
H3086 H 0.08953 0.27664 0.39054 0.0
C3087 C 0.09351 0.21177 0.4028 0.0
C3088 C 0.0979 0.24116 0.40518 0.0
H3089 H 0.08176 0.26221 0.40255 0.0
C3090 C 0.10744 0.24654 0.40591 0.0
C3091 C 0.08856 0.24687 0.4037 0.0
C3092 C 0.07807 0.2415 0.40313 0.0
C3093 C 0.10787 0.25752 0.40542 0.0
C3094 C 0.09847 0.26327 0.40443 0.0
C3095 C 0.08898 0.25783 0.40331 0.0
C3096 C 0.09808 0.2749 0.40504 0.0
C3097 C 0.11839 0.26282 0.40603 0.0
C3098 C 0.10191 0.28025 0.41388 0.0
C3099 C 0.09988 0.29094 0.41524 0.0
C3100 C 0.09384 0.29636 0.40787 0.0
C3101 C 0.09042 0.29114 0.39885 0.0
C3102 C 0.0926 0.28055 0.3974 0.0
H3103 H 0.12471 0.25761 0.40314 0.0
H3104 H 0.11851 0.27017 0.40141 0.0
H3105 H 0.12013 0.26474 0.41431 0.0
H3106 H 0.1059 0.27604 0.42004 0.0
H3107 H 0.10232 0.29476 0.4224 0.0
H3108 H 0.79602 0.07934 0.40264 0.0
H3109 H 0.77714 0.08054 0.39941 0.0
H3110 H 0.7769 0.11166 0.41245 0.0
H3111 H 0.79562 0.11023 0.41607 0.0
H3112 H 0.76315 0.10011 0.42186 0.0
H3113 H 0.75759 0.09437 0.3794 0.0
H3114 H 0.76523 0.08406 0.38502 0.0
H3115 H 0.77022 0.09723 0.38501 0.0
C3116 C 0.79197 0.08658 0.4044 0.0
C3117 C 0.79723 0.09478 0.40941 0.0
C3118 C 0.78118 0.08727 0.40256 0.0
C3119 C 0.77556 0.09625 0.40557 0.0
C3120 C 0.78103 0.10468 0.41001 0.0
H3121 H 0.70694 0.10437 0.41188 0.0
H3122 H 0.72558 0.10874 0.4096 0.0
C3123 C 0.79173 0.1039 0.41201 0.0
C3124 C 0.76391 0.09635 0.40544 0.0
H3125 H 0.74251 0.09111 0.39031 0.0
C3126 C 0.75865 0.09836 0.41489 0.0
C3127 C 0.75798 0.09404 0.39638 0.0
C3128 C 0.76305 0.09241 0.38586 0.0
C3129 C 0.74772 0.09769 0.41563 0.0
C3130 C 0.74186 0.09496 0.40668 0.0
C3131 C 0.74704 0.09324 0.39716 0.0
C3132 C 0.73051 0.0927 0.40739 0.0
C3133 C 0.74252 0.09939 0.42608 0.0
C3134 C 0.72715 0.0823 0.40679 0.0
C3135 C 0.71664 0.07982 0.40816 0.0
C3136 C 0.70919 0.08768 0.41008 0.0
C3137 C 0.7125 0.09816 0.41043 0.0
C3138 C 0.72312 0.10065 0.40914 0.0
H3139 H 0.74829 0.10043 0.4325 0.0
H3140 H 0.73753 0.10648 0.42571 0.0
H3141 H 0.7374 0.09266 0.42801 0.0
H3142 H 0.73273 0.07606 0.40548 0.0
H3143 H 0.71436 0.07167 0.40778 0.0
H3144 H 0.90704 0.79901 0.39845 0.0
H3145 H 0.9041 0.78041 0.39438 0.0
H3146 H 0.9111 0.77237 0.42637 0.0
H3147 H 0.91376 0.79068 0.43049 0.0
H3148 H 0.91719 0.76396 0.39549 0.0
H3149 H 0.88438 0.75647 0.42229 0.0
H3150 H 0.88852 0.76955 0.41896 0.0
H3151 H 0.89491 0.76245 0.42933 0.0
C3152 C 0.90787 0.79325 0.4046 0.0
C3153 C 0.91057 0.79633 0.4148 0.0
C3154 C 0.90617 0.78265 0.40228 0.0
C3155 C 0.90708 0.775 0.41014 0.0
C3156 C 0.90997 0.77811 0.42025 0.0
H3157 H 0.93046 0.71497 0.41349 0.0
H3158 H 0.92602 0.73321 0.41098 0.0
C3159 C 0.91161 0.78862 0.42256 0.0
C3160 C 0.90578 0.76367 0.40786 0.0
H3161 H 0.8955 0.74138 0.4184 0.0
C3162 C 0.91225 0.75905 0.40032 0.0
C3163 C 0.89913 0.75722 0.41394 0.0
C3164 C 0.89126 0.76172 0.42149 0.0
C3165 C 0.91297 0.74813 0.39938 0.0
C3166 C 0.90726 0.74168 0.40635 0.0
C3167 C 0.90005 0.7463 0.4132 0.0
C3168 C 0.90969 0.73038 0.40759 0.0
C3169 C 0.92012 0.74362 0.39116 0.0
C3170 C 0.90189 0.72265 0.40697 0.0
C3171 C 0.9044 0.71206 0.40857 0.0
C3172 C 0.91473 0.70911 0.41089 0.0
C3173 C 0.92243 0.71692 0.41165 0.0
C3174 C 0.91993 0.72739 0.41009 0.0
H3175 H 0.92059 0.74886 0.38425 0.0
H3176 H 0.92812 0.74288 0.39443 0.0
H3177 H 0.91745 0.73579 0.38855 0.0
H3178 H 0.89389 0.72479 0.4052 0.0
H3179 H 0.8983 0.70623 0.40796 0.0
H3180 H 0.20591 0.90628 0.39713 0.0
H3181 H 0.22427 0.9027 0.39245 0.0
H3182 H 0.23344 0.9085 0.42438 0.0
H3183 H 0.21541 0.91178 0.42909 0.0
H3184 H 0.24127 0.91494 0.39337 0.0
H3185 H 0.24827 0.88142 0.41927 0.0
H3186 H 0.23524 0.886 0.41632 0.0
H3187 H 0.24269 0.89182 0.4268 0.0
C3188 C 0.21187 0.90672 0.40313 0.0
C3189 C 0.20919 0.90925 0.41349 0.0
C3190 C 0.22233 0.90464 0.40047 0.0
C3191 C 0.2302 0.90499 0.40815 0.0
C3192 C 0.2275 0.90776 0.4184 0.0
H3193 H 0.28897 0.92872 0.41263 0.0
H3194 H 0.27104 0.92368 0.4094 0.0
C3195 C 0.21715 0.90977 0.42105 0.0
C3196 C 0.24141 0.90333 0.40557 0.0
H3197 H 0.26355 0.89273 0.41607 0.0
C3198 C 0.24611 0.90986 0.39811 0.0
C3199 C 0.24778 0.89646 0.41149 0.0
C3200 C 0.24319 0.88845 0.41882 0.0
C3201 C 0.25704 0.91053 0.39728 0.0
C3202 C 0.2634 0.90475 0.40427 0.0
C3203 C 0.25871 0.89736 0.41088 0.0
C3204 C 0.27456 0.90749 0.406 0.0
C3205 C 0.26164 0.91779 0.38921 0.0
C3206 C 0.28256 0.89993 0.40571 0.0
C3207 C 0.29298 0.90279 0.40777 0.0
C3208 C 0.29548 0.91321 0.4102 0.0
C3209 C 0.28739 0.92064 0.41069 0.0
C3210 C 0.27709 0.91779 0.40871 0.0
H3211 H 0.2566 0.91813 0.38214 0.0
H3212 H 0.26207 0.92581 0.39248 0.0
H3213 H 0.26962 0.91531 0.38684 0.0
H3214 H 0.28076 0.89188 0.40382 0.0
H3215 H 0.29905 0.8969 0.40736 0.0
H3216 H 0.07413 0.71421 0.58939 0.0
H3217 H 0.07869 0.73246 0.59147 0.0
H3218 H 0.11059 0.72389 0.59831 0.0
H3219 H 0.10608 0.70531 0.59585 0.0
H3220 H 0.08595 0.74264 0.60853 0.0
H3221 H 0.11436 0.74583 0.57567 0.0
H3222 H 0.10598 0.7346 0.57721 0.0
H3223 H 0.1171 0.7363 0.58561 0.0
C3224 C 0.08216 0.71613 0.59126 0.0
C3225 C 0.08976 0.70828 0.59239 0.0
C3226 C 0.08474 0.72662 0.59251 0.0
C3227 C 0.09497 0.72959 0.59503 0.0
C3228 C 0.10266 0.7218 0.59622 0.0
H3229 H 0.09682 0.79866 0.60446 0.0
H3230 H 0.10004 0.78017 0.60879 0.0
C3231 C 0.10008 0.71119 0.59484 0.0
C3232 C 0.09728 0.74093 0.59621 0.0
H3233 H 0.10907 0.76136 0.58373 0.0
C3234 C 0.09116 0.74675 0.60325 0.0
C3235 C 0.1041 0.74626 0.58933 0.0
C3236 C 0.11074 0.74048 0.58147 0.0
C3237 C 0.09101 0.75773 0.60301 0.0
C3238 C 0.0974 0.76305 0.59573 0.0
C3239 C 0.10416 0.75725 0.58929 0.0
C3240 C 0.09595 0.77436 0.59341 0.0
C3241 C 0.08341 0.76347 0.60998 0.0
C3242 C 0.09276 0.77725 0.58334 0.0
C3243 C 0.09104 0.78771 0.58085 0.0
C3244 C 0.09241 0.79559 0.58839 0.0
C3245 C 0.09562 0.79275 0.59852 0.0
C3246 C 0.09744 0.78219 0.601 0.0
H3247 H 0.07786 0.75809 0.61393 0.0
H3248 H 0.08781 0.76776 0.6161 0.0
H3249 H 0.07885 0.76927 0.6054 0.0
H3250 H 0.09149 0.77138 0.57737 0.0
H3251 H 0.08861 0.78958 0.57296 0.0
H3252 H 0.21339 0.08781 0.57239 0.0
H3253 H 0.23174 0.09019 0.57651 0.0
H3254 H 0.22352 0.10122 0.60731 0.0
H3255 H 0.20491 0.0984 0.60331 0.0
H3256 H 0.24248 0.10737 0.58117 0.0
H3257 H 0.24496 0.07939 0.61441 0.0
H3258 H 0.23365 0.08009 0.60603 0.0
H3259 H 0.23575 0.08988 0.61589 0.0
C3260 C 0.21543 0.09066 0.58009 0.0
C3261 C 0.20767 0.09284 0.58756 0.0
C3262 C 0.22597 0.09208 0.58242 0.0
C3263 C 0.22908 0.09584 0.59224 0.0
C3264 C 0.22135 0.09813 0.59974 0.0
H3265 H 0.29818 0.10583 0.59422 0.0
H3266 H 0.27956 0.11047 0.596 0.0
C3267 C 0.21072 0.09655 0.59745 0.0
C3268 C 0.24045 0.09715 0.59438 0.0
H3269 H 0.26056 0.08705 0.60874 0.0
C3270 C 0.24644 0.10305 0.58729 0.0
C3271 C 0.24561 0.09153 0.6024 0.0
C3272 C 0.23971 0.0848 0.61009 0.0
C3273 C 0.25743 0.10288 0.58751 0.0
C3274 C 0.26259 0.0969 0.59525 0.0
C3275 C 0.25659 0.09164 0.60282 0.0
C3276 C 0.27397 0.09453 0.59464 0.0
C3277 C 0.26338 0.10849 0.57901 0.0
C3278 C 0.27704 0.08408 0.59351 0.0
C3279 C 0.28756 0.08144 0.59264 0.0
C3280 C 0.29535 0.08919 0.5928 0.0
C3281 C 0.29235 0.0997 0.59398 0.0
C3282 C 0.28171 0.10235 0.59496 0.0
H3283 H 0.25816 0.11127 0.57264 0.0
H3284 H 0.26741 0.11538 0.58239 0.0
H3285 H 0.2694 0.10328 0.57555 0.0
H3286 H 0.27125 0.0779 0.59319 0.0
H3287 H 0.28954 0.07326 0.59179 0.0
H3288 H 0.92975 0.28784 0.58802 0.0
H3289 H 0.9251 0.26986 0.59167 0.0
H3290 H 0.89499 0.27981 0.60317 0.0
H3291 H 0.89955 0.2981 0.59915 0.0
H3292 H 0.92036 0.26047 0.61004 0.0
H3293 H 0.88691 0.25735 0.5823 0.0
H3294 H 0.89576 0.26832 0.58208 0.0
H3295 H 0.88612 0.26726 0.59223 0.0
C3296 C 0.92209 0.28628 0.59125 0.0
C3297 C 0.91499 0.29442 0.59322 0.0
C3298 C 0.91947 0.27595 0.59341 0.0
C3299 C 0.9097 0.27343 0.59768 0.0
C3300 C 0.90253 0.28153 0.59974 0.0
H3301 H 0.9081 0.20439 0.60798 0.0
H3302 H 0.90576 0.22288 0.61295 0.0
C3303 C 0.90514 0.29197 0.59746 0.0
C3304 C 0.90725 0.26223 0.59964 0.0
H3305 H 0.8931 0.24189 0.58975 0.0
C3306 C 0.91426 0.2564 0.60578 0.0
C3307 C 0.89926 0.25695 0.59412 0.0
C3308 C 0.89159 0.26273 0.58725 0.0
C3309 C 0.9141 0.24541 0.6058 0.0
C3310 C 0.90653 0.24012 0.59974 0.0
C3311 C 0.89892 0.24597 0.59437 0.0
C3312 C 0.90753 0.22882 0.59719 0.0
C3313 C 0.92256 0.23959 0.61161 0.0
C3314 C 0.90915 0.22601 0.58673 0.0
C3315 C 0.91036 0.21559 0.5839 0.0
C3316 C 0.91006 0.20762 0.59147 0.0
C3317 C 0.90845 0.21036 0.602 0.0
C3318 C 0.90714 0.22091 0.60484 0.0
H3319 H 0.92865 0.24491 0.61477 0.0
H3320 H 0.91904 0.23527 0.61826 0.0
H3321 H 0.92639 0.2338 0.60639 0.0
H3322 H 0.90956 0.23194 0.58069 0.0
H3323 H 0.91155 0.21381 0.57572 0.0
H3324 H 0.78865 0.90867 0.57286 0.0
H3325 H 0.77048 0.90564 0.57738 0.0
H3326 H 0.77851 0.90522 0.61011 0.0
H3327 H 0.79701 0.90838 0.60561 0.0
H3328 H 0.76154 0.88865 0.58888 0.0
H3329 H 0.75481 0.92746 0.60754 0.0
H3330 H 0.76598 0.92502 0.59927 0.0
H3331 H 0.76553 0.91964 0.61221 0.0
C3332 C 0.78663 0.90796 0.58105 0.0
C3333 C 0.7943 0.90883 0.58889 0.0
C3334 C 0.7762 0.90617 0.58361 0.0
C3335 C 0.77312 0.90524 0.59406 0.0
C3336 C 0.78073 0.906 0.60198 0.0
H3337 H 0.70677 0.9086 0.61034 0.0
H3338 H 0.72544 0.90475 0.61242 0.0
C3339 C 0.79127 0.90778 0.59941 0.0
C3340 C 0.76186 0.90371 0.59639 0.0
H3341 H 0.74017 0.91694 0.60451 0.0
C3342 C 0.75687 0.89474 0.59248 0.0
C3343 C 0.75579 0.91166 0.60108 0.0
C3344 C 0.76073 0.92153 0.60524 0.0
C3345 C 0.74594 0.89369 0.59277 0.0
C3346 C 0.73981 0.90192 0.5969 0.0
C3347 C 0.74485 0.91063 0.60132 0.0
C3348 C 0.72822 0.90216 0.59592 0.0
C3349 C 0.74108 0.88383 0.5885 0.0
C3350 C 0.72347 0.90168 0.58601 0.0
C3351 C 0.71278 0.9037 0.58486 0.0
C3352 C 0.70669 0.90629 0.59359 0.0
C3353 C 0.7113 0.90635 0.60354 0.0
C3354 C 0.72196 0.90424 0.60471 0.0
H3355 H 0.74652 0.87709 0.5892 0.0
H3356 H 0.73368 0.88189 0.5926 0.0
H3357 H 0.73935 0.88493 0.58007 0.0
H3358 H 0.72814 0.90041 0.57906 0.0
H3359 H 0.70943 0.90396 0.57708 0.0
H3360 H 0.42724 0.10035 0.29395 0.0
H3361 H 0.42599 0.10359 0.2751 0.0
H3362 H 0.39277 0.09783 0.2763 0.0
H3363 H 0.39413 0.09424 0.29507 0.0
H3364 H 0.40177 0.08568 0.26237 0.0
H3365 H 0.41586 0.12594 0.2556 0.0
H3366 H 0.42497 0.11853 0.26324 0.0
H3367 H 0.41217 0.12131 0.26841 0.0
C3368 C 0.41962 0.10025 0.29024 0.0
C3369 C 0.41073 0.0973 0.29593 0.0
C3370 C 0.4189 0.10209 0.27946 0.0
C3371 C 0.40925 0.10108 0.27425 0.0
C3372 C 0.40028 0.09873 0.28013 0.0
H3373 H 0.39914 0.09426 0.20587 0.0
H3374 H 0.39535 0.09719 0.22454 0.0
C3375 C 0.40103 0.09677 0.29085 0.0
C3376 C 0.40879 0.101 0.26262 0.0
H3377 H 0.41662 0.11423 0.24078 0.0
C3378 C 0.40482 0.09203 0.25765 0.0
C3379 C 0.41277 0.10926 0.25643 0.0
C3380 C 0.41658 0.11934 0.2612 0.0
C3381 C 0.40521 0.09086 0.24674 0.0
C3382 C 0.40962 0.09892 0.2406 0.0
C3383 C 0.41324 0.10805 0.24551 0.0
C3384 C 0.4116 0.09752 0.22925 0.0
C3385 C 0.40144 0.08079 0.24189 0.0
C3386 C 0.42195 0.09686 0.22574 0.0
C3387 C 0.42411 0.09517 0.21519 0.0
C3388 C 0.41597 0.09417 0.20786 0.0
C3389 C 0.40557 0.09495 0.21134 0.0
C3390 C 0.4034 0.09661 0.22198 0.0
H3391 H 0.3996 0.07475 0.24786 0.0
H3392 H 0.39425 0.08233 0.23729 0.0
H3393 H 0.40742 0.07761 0.23646 0.0
H3394 H 0.42839 0.09751 0.23121 0.0
H3395 H 0.43221 0.09465 0.2128 0.0
H3396 H 0.92505 0.40353 0.20851 0.0
H3397 H 0.92369 0.40025 0.22733 0.0
H3398 H 0.89084 0.40789 0.22629 0.0
H3399 H 0.89236 0.41157 0.20756 0.0
H3400 H 0.90029 0.41927 0.24032 0.0
H3401 H 0.91263 0.37841 0.24673 0.0
H3402 H 0.92213 0.38541 0.23918 0.0
H3403 H 0.90923 0.38331 0.23393 0.0
C3404 C 0.91747 0.40405 0.21225 0.0
C3405 C 0.90875 0.40756 0.20661 0.0
C3406 C 0.91668 0.40218 0.22301 0.0
C3407 C 0.90712 0.40368 0.22827 0.0
C3408 C 0.89828 0.40661 0.22244 0.0
H3409 H 0.8988 0.41058 0.29702 0.0
H3410 H 0.89424 0.40742 0.27855 0.0
C3411 C 0.89911 0.40861 0.21173 0.0
C3412 C 0.90669 0.40368 0.23991 0.0
H3413 H 0.91426 0.39005 0.2616 0.0
C3414 C 0.90312 0.41277 0.24497 0.0
C3415 C 0.91037 0.39523 0.24602 0.0
C3416 C 0.9137 0.38501 0.24117 0.0
C3417 C 0.90368 0.41386 0.25588 0.0
C3418 C 0.90787 0.40562 0.26192 0.0
C3419 C 0.91104 0.39636 0.25694 0.0
C3420 C 0.91029 0.407 0.27318 0.0
C3421 C 0.90036 0.42403 0.26084 0.0
C3422 C 0.92076 0.40769 0.27626 0.0
C3423 C 0.92335 0.40953 0.28667 0.0
C3424 C 0.91552 0.41066 0.29432 0.0
C3425 C 0.90499 0.40978 0.2913 0.0
C3426 C 0.90239 0.40799 0.28077 0.0
H3427 H 0.89831 0.43006 0.25493 0.0
H3428 H 0.89342 0.42266 0.26586 0.0
H3429 H 0.9067 0.42713 0.2659 0.0
H3430 H 0.92697 0.40698 0.27054 0.0
H3431 H 0.93155 0.4101 0.28871 0.0
H3432 H 0.58938 0.92903 0.28968 0.0
H3433 H 0.59239 0.92465 0.2715 0.0
H3434 H 0.60109 0.89328 0.28034 0.0
H3435 H 0.5977 0.89759 0.29881 0.0
H3436 H 0.60998 0.91853 0.26158 0.0
H3437 H 0.57927 0.88784 0.25809 0.0
H3438 H 0.58009 0.89631 0.26933 0.0
H3439 H 0.58926 0.88579 0.26775 0.0
C3440 C 0.59187 0.92116 0.28782 0.0
C3441 C 0.59322 0.91363 0.29571 0.0
C3442 C 0.59366 0.91868 0.27738 0.0
C3443 C 0.59694 0.90863 0.2745 0.0
C3444 C 0.59841 0.90105 0.28234 0.0
H3445 H 0.6061 0.90738 0.20522 0.0
H3446 H 0.61114 0.90456 0.22363 0.0
C3447 C 0.59649 0.90352 0.29289 0.0
C3448 C 0.59849 0.90635 0.2632 0.0
H3449 H 0.58714 0.89362 0.24268 0.0
C3450 C 0.60515 0.91294 0.25743 0.0
C3451 C 0.59221 0.89901 0.25781 0.0
C3452 C 0.58475 0.89186 0.26351 0.0
C3453 C 0.60502 0.91303 0.24644 0.0
C3454 C 0.59825 0.90615 0.24107 0.0
C3455 C 0.5923 0.89891 0.24683 0.0
C3456 C 0.59567 0.9076 0.22982 0.0
C3457 C 0.61149 0.92107 0.24072 0.0
C3458 C 0.58535 0.91015 0.22719 0.0
C3459 C 0.58248 0.91163 0.21681 0.0
C3460 C 0.58986 0.91069 0.20872 0.0
C3461 C 0.60027 0.90824 0.2113 0.0
C3462 C 0.60315 0.90664 0.2218 0.0
H3463 H 0.61524 0.92673 0.24613 0.0
H3464 H 0.61774 0.91707 0.23623 0.0
H3465 H 0.60657 0.92548 0.23509 0.0
H3466 H 0.57946 0.91103 0.23321 0.0
H3467 H 0.57439 0.91349 0.21517 0.0
H3468 H 0.10769 0.58503 0.20891 0.0
H3469 H 0.10855 0.58811 0.22774 0.0
H3470 H 0.08093 0.60734 0.22588 0.0
H3471 H 0.0802 0.60443 0.20684 0.0
H3472 H 0.09774 0.6136 0.24185 0.0
H3473 H 0.08448 0.57221 0.2436 0.0
H3474 H 0.09602 0.57456 0.23594 0.0
H3475 H 0.08371 0.57991 0.23181 0.0
C3476 C 0.10205 0.59026 0.21246 0.0
C3477 C 0.09392 0.59456 0.20647 0.0
C3478 C 0.10252 0.59197 0.22322 0.0
C3479 C 0.09473 0.59783 0.22821 0.0
C3480 C 0.08704 0.60282 0.22214 0.0
H3481 H 0.06989 0.59134 0.28958 0.0
H3482 H 0.07361 0.59362 0.27109 0.0
C3483 C 0.08665 0.60121 0.21129 0.0
C3484 C 0.09382 0.59738 0.23976 0.0
H3485 H 0.08817 0.58046 0.25963 0.0
C3486 C 0.09569 0.60637 0.24577 0.0
C3487 C 0.09106 0.58793 0.24482 0.0
C3488 C 0.08861 0.57811 0.23874 0.0
C3489 C 0.09488 0.60612 0.25676 0.0
C3490 C 0.09219 0.59665 0.26178 0.0
C3491 C 0.09036 0.58768 0.25575 0.0
C3492 C 0.0902 0.596 0.27319 0.0
C3493 C 0.09661 0.61601 0.26293 0.0
C3494 C 0.09834 0.59655 0.28055 0.0
C3495 C 0.09625 0.59517 0.29125 0.0
C3496 C 0.08599 0.59322 0.29468 0.0
C3497 C 0.0779 0.59279 0.28724 0.0
C3498 C 0.07999 0.59413 0.27664 0.0
H3499 H 0.09754 0.62295 0.2578 0.0
H3500 H 0.08994 0.61737 0.26832 0.0
H3501 H 0.10376 0.61517 0.26777 0.0
H3502 H 0.10631 0.59786 0.27801 0.0
H3503 H 0.10263 0.59555 0.2968 0.0
H3504 H 0.39851 0.91441 0.79786 0.0
H3505 H 0.3944 0.91213 0.77915 0.0
H3506 H 0.42657 0.90415 0.77305 0.0
H3507 H 0.43072 0.90649 0.79147 0.0
H3508 H 0.40555 0.92375 0.76226 0.0
H3509 H 0.40904 0.88071 0.75823 0.0
H3510 H 0.40635 0.88704 0.77058 0.0
H3511 H 0.41942 0.88685 0.76544 0.0
C3512 C 0.40465 0.91206 0.79252 0.0
C3513 C 0.41493 0.91065 0.79612 0.0
C3514 C 0.4023 0.91076 0.78186 0.0
C3515 C 0.41016 0.90781 0.77476 0.0
C3516 C 0.42036 0.90624 0.77842 0.0
H3517 H 0.42485 0.90353 0.70966 0.0
H3518 H 0.42324 0.90081 0.72864 0.0
C3519 C 0.42272 0.90766 0.78895 0.0
C3520 C 0.40811 0.90719 0.76337 0.0
H3521 H 0.40986 0.89067 0.74244 0.0
C3522 C 0.40627 0.9165 0.75792 0.0
C3523 C 0.40924 0.89773 0.75775 0.0
C3524 C 0.41104 0.88748 0.76329 0.0
C3525 C 0.40601 0.91672 0.74695 0.0
C3526 C 0.40729 0.90727 0.74128 0.0
C3527 C 0.40884 0.89789 0.74677 0.0
C3528 C 0.40756 0.90714 0.72965 0.0
C3529 C 0.40493 0.92716 0.74154 0.0
C3530 C 0.39911 0.91108 0.72387 0.0
C3531 C 0.40008 0.9127 0.71311 0.0
C3532 C 0.40937 0.9101 0.70791 0.0
C3533 C 0.41753 0.90537 0.71351 0.0
C3534 C 0.41663 0.90389 0.72433 0.0
H3535 H 0.40676 0.93377 0.74688 0.0
H3536 H 0.41018 0.92766 0.73465 0.0
H3537 H 0.39675 0.92814 0.73882 0.0
H3538 H 0.39196 0.91341 0.72775 0.0
H3539 H 0.39375 0.91648 0.70894 0.0
H3540 H 0.08861 0.42963 0.78881 0.0
H3541 H 0.09104 0.42526 0.77054 0.0
H3542 H 0.10048 0.39403 0.7791 0.0
H3543 H 0.09764 0.3983 0.79766 0.0
H3544 H 0.10829 0.41957 0.76012 0.0
H3545 H 0.07835 0.38807 0.75742 0.0
H3546 H 0.07932 0.39652 0.76866 0.0
H3547 H 0.08862 0.38615 0.76681 0.0
C3548 C 0.09112 0.42179 0.78687 0.0
C3549 C 0.09285 0.41428 0.79471 0.0
C3550 C 0.09258 0.41932 0.77637 0.0
C3551 C 0.0959 0.40931 0.77339 0.0
C3552 C 0.09774 0.40176 0.78118 0.0
H3553 H 0.10565 0.40722 0.7043 0.0
H3554 H 0.11023 0.40476 0.72285 0.0
C3555 C 0.09615 0.40421 0.79178 0.0
C3556 C 0.09721 0.40704 0.76205 0.0
H3557 H 0.08617 0.39355 0.74184 0.0
C3558 C 0.10359 0.41375 0.75611 0.0
C3559 C 0.0911 0.39944 0.75684 0.0
C3560 C 0.0839 0.39216 0.76271 0.0
C3561 C 0.10341 0.41363 0.74512 0.0
C3562 C 0.0969 0.40636 0.73991 0.0
C3563 C 0.09116 0.39911 0.74585 0.0
C3564 C 0.09449 0.4073 0.72857 0.0
C3565 C 0.10956 0.42179 0.73923 0.0
C3566 C 0.08415 0.40934 0.7256 0.0
C3567 C 0.08153 0.41062 0.71513 0.0
C3568 C 0.0892 0.40996 0.70727 0.0
C3569 C 0.09959 0.40785 0.71018 0.0
C3570 C 0.10222 0.40648 0.72077 0.0
H3571 H 0.11288 0.42784 0.7445 0.0
H3572 H 0.11613 0.41796 0.73505 0.0
H3573 H 0.10455 0.42571 0.73332 0.0
H3574 H 0.07806 0.41007 0.73145 0.0
H3575 H 0.07344 0.41219 0.71322 0.0
H3576 H 0.59729 0.07267 0.71435 0.0
H3577 H 0.59961 0.07735 0.7326 0.0
H3578 H 0.59479 0.10984 0.72505 0.0
H3579 H 0.59239 0.10517 0.70649 0.0
H3580 H 0.61441 0.09169 0.74207 0.0
H3581 H 0.57269 0.10274 0.74817 0.0
H3582 H 0.57682 0.09515 0.73702 0.0
H3583 H 0.57969 0.10886 0.73761 0.0
C3584 C 0.59672 0.08084 0.7165 0.0
C3585 C 0.59457 0.08855 0.70896 0.0
C3586 C 0.59812 0.08349 0.72696 0.0
C3587 C 0.59734 0.09392 0.7302 0.0
C3588 C 0.59535 0.10173 0.72271 0.0
H3589 H 0.58957 0.10948 0.79613 0.0
H3590 H 0.59343 0.11192 0.77753 0.0
C3591 C 0.594 0.09906 0.71213 0.0
C3592 C 0.59822 0.09628 0.74152 0.0
H3593 H 0.58334 0.10166 0.76298 0.0
C3594 C 0.60767 0.09405 0.74665 0.0
C3595 C 0.58943 0.09935 0.74746 0.0
C3596 C 0.57904 0.10163 0.74236 0.0
C3597 C 0.60848 0.09451 0.7576 0.0
C3598 C 0.59953 0.09702 0.76359 0.0
C3599 C 0.59022 0.09972 0.75841 0.0
C3600 C 0.59932 0.09623 0.77521 0.0
C3601 C 0.6189 0.09218 0.76262 0.0
C3602 C 0.60169 0.08671 0.78022 0.0
C3603 C 0.59969 0.08541 0.79091 0.0
C3604 C 0.5952 0.09356 0.7967 0.0
C3605 C 0.59327 0.10318 0.79183 0.0
C3606 C 0.59538 0.10454 0.7812 0.0
H3607 H 0.62546 0.0941 0.75726 0.0
H3608 H 0.61993 0.09663 0.77001 0.0
H3609 H 0.61936 0.08371 0.76441 0.0
H3610 H 0.60443 0.08007 0.77574 0.0
H3611 H 0.60092 0.07781 0.79446 0.0
H3612 H 0.89553 0.59546 0.7048 0.0
H3613 H 0.89069 0.59907 0.72312 0.0
H3614 H 0.92252 0.59322 0.7326 0.0
H3615 H 0.92738 0.58993 0.71463 0.0
H3616 H 0.89151 0.587 0.74041 0.0
H3617 H 0.91744 0.62063 0.7469 0.0
H3618 H 0.91447 0.61585 0.73394 0.0
H3619 H 0.92494 0.61013 0.74148 0.0
C3620 C 0.90146 0.59499 0.71082 0.0
C3621 C 0.91185 0.59248 0.70824 0.0
C3622 C 0.89871 0.5971 0.72126 0.0
C3623 C 0.90632 0.59677 0.7292 0.0
C3624 C 0.91658 0.59395 0.7266 0.0
H3625 H 0.91129 0.57392 0.78812 0.0
H3626 H 0.90763 0.5787 0.7702 0.0
C3627 C 0.91933 0.59193 0.71627 0.0
C3628 C 0.90371 0.59862 0.74038 0.0
H3629 H 0.91421 0.60957 0.76235 0.0
C3630 C 0.89626 0.59217 0.74518 0.0
C3631 C 0.90962 0.60559 0.74664 0.0
C3632 C 0.91696 0.61352 0.74193 0.0
C3633 C 0.89543 0.59166 0.75612 0.0
C3634 C 0.90242 0.59754 0.76239 0.0
C3635 C 0.90901 0.60486 0.75758 0.0
C3636 C 0.90422 0.59493 0.77358 0.0
C3637 C 0.88737 0.58446 0.76084 0.0
C3638 C 0.90401 0.60257 0.7815 0.0
C3639 C 0.9063 0.59986 0.79191 0.0
C3640 C 0.90891 0.5895 0.79448 0.0
C3641 C 0.90925 0.58197 0.78648 0.0
C3642 C 0.90701 0.58466 0.77619 0.0
H3643 H 0.88029 0.58406 0.75583 0.0
H3644 H 0.89065 0.57644 0.76135 0.0
H3645 H 0.88504 0.58703 0.7688 0.0
H3646 H 0.90207 0.6106 0.77963 0.0
H3647 H 0.90601 0.60583 0.79791 0.0
H3648 H 0.20855 0.4175 0.10856 0.0
H3649 H 0.22744 0.41469 0.109 0.0
H3650 H 0.22541 0.3963 0.08082 0.0
H3651 H 0.20631 0.39893 0.0805 0.0
H3652 H 0.24175 0.3898 0.09733 0.0
H3653 H 0.24265 0.43152 0.08505 0.0
H3654 H 0.23513 0.42875 0.0966 0.0
H3655 H 0.23098 0.42362 0.0842 0.0
C3656 C 0.21209 0.41251 0.10269 0.0
C3657 C 0.20603 0.40838 0.09452 0.0
C3658 C 0.22287 0.41095 0.10293 0.0
C3659 C 0.22782 0.40541 0.09489 0.0
C3660 C 0.2217 0.40057 0.08713 0.0
H3661 H 0.28909 0.41383 0.07005 0.0
H3662 H 0.27061 0.41134 0.07366 0.0
C3663 C 0.21082 0.40203 0.08696 0.0
C3664 C 0.23934 0.40607 0.09381 0.0
H3665 H 0.25886 0.42348 0.08846 0.0
C3666 C 0.24552 0.39714 0.09541 0.0
C3667 C 0.24421 0.41567 0.09124 0.0
C3668 C 0.23793 0.42544 0.08908 0.0
C3669 C 0.25649 0.39761 0.09454 0.0
C3670 C 0.26133 0.40725 0.09207 0.0
C3671 C 0.25512 0.41614 0.09048 0.0
C3672 C 0.27272 0.40817 0.09013 0.0
C3673 C 0.26284 0.38779 0.09598 0.0
C3674 C 0.28009 0.40729 0.09824 0.0
C3675 C 0.29078 0.40879 0.09621 0.0
C3676 C 0.2942 0.41119 0.08604 0.0
C3677 C 0.28676 0.41202 0.07799 0.0
C3678 C 0.27616 0.41057 0.08002 0.0
H3679 H 0.25784 0.38071 0.09652 0.0
H3680 H 0.26839 0.3868 0.08937 0.0
H3681 H 0.26751 0.38843 0.10326 0.0
H3682 H 0.27755 0.40559 0.10614 0.0
H3683 H 0.29633 0.4081 0.10256 0.0
H3684 H 0.20441 0.60614 0.90795 0.0
H3685 H 0.22288 0.6111 0.90544 0.0
H3686 H 0.2319 0.57875 0.90852 0.0
H3687 H 0.21378 0.57379 0.91072 0.0
H3688 H 0.23945 0.60896 0.91822 0.0
H3689 H 0.24763 0.58641 0.88257 0.0
H3690 H 0.23446 0.5889 0.887 0.0
H3691 H 0.24178 0.57795 0.89206 0.0
C3692 C 0.21036 0.60012 0.908 0.0
C3693 C 0.20761 0.58957 0.90948 0.0
C3694 C 0.22089 0.60294 0.90654 0.0
C3695 C 0.22876 0.59526 0.90647 0.0
C3696 C 0.22597 0.58479 0.90814 0.0
H3697 H 0.28805 0.58985 0.93062 0.0
H3698 H 0.26996 0.59302 0.92601 0.0
C3699 C 0.21556 0.58198 0.90953 0.0
C3700 C 0.24003 0.59797 0.90547 0.0
H3701 H 0.26255 0.58881 0.89444 0.0
C3702 C 0.24448 0.60477 0.91283 0.0
C3703 C 0.24664 0.59278 0.89825 0.0
C3704 C 0.24234 0.58621 0.88945 0.0
C3705 C 0.25538 0.60568 0.91384 0.0
C3706 C 0.26198 0.59939 0.90753 0.0
C3707 C 0.25753 0.59344 0.89946 0.0
C3708 C 0.27321 0.5978 0.91011 0.0
C3709 C 0.25969 0.6131 0.92193 0.0
C3710 C 0.28114 0.59894 0.90256 0.0
C3711 C 0.29163 0.59691 0.90514 0.0
C3712 C 0.29431 0.59367 0.9153 0.0
C3713 C 0.28632 0.59241 0.92274 0.0
C3714 C 0.27592 0.59435 0.92015 0.0
H3715 H 0.25449 0.61999 0.92289 0.0
H3716 H 0.2601 0.60906 0.9296 0.0
H3717 H 0.26764 0.61588 0.91982 0.0
H3718 H 0.27921 0.60142 0.89469 0.0
H3719 H 0.29761 0.59793 0.89924 0.0
H3720 H 0.42937 0.21448 0.90326 0.0
H3721 H 0.42423 0.23273 0.90166 0.0
H3722 H 0.39314 0.22503 0.91217 0.0
H3723 H 0.39827 0.2065 0.91375 0.0
H3724 H 0.40641 0.24274 0.89014 0.0
H3725 H 0.40585 0.24718 0.93351 0.0
H3726 H 0.41249 0.23643 0.92723 0.0
H3727 H 0.39849 0.23667 0.92771 0.0
C3728 C 0.42139 0.21661 0.90514 0.0
C3729 C 0.41423 0.20907 0.90872 0.0
C3730 C 0.41846 0.22705 0.90416 0.0
C3731 C 0.40834 0.23024 0.90683 0.0
C3732 C 0.40102 0.22271 0.91009 0.0
H3733 H 0.39443 0.29521 0.92111 0.0
H3734 H 0.39179 0.27667 0.91729 0.0
C3735 C 0.40393 0.21215 0.91097 0.0
C3736 C 0.40594 0.24157 0.90692 0.0
H3737 H 0.40447 0.26238 0.92349 0.0
C3738 C 0.40579 0.24706 0.89741 0.0
C3739 C 0.4052 0.24715 0.91641 0.0
C3740 C 0.40555 0.24163 0.92683 0.0
C3741 C 0.40509 0.25804 0.89716 0.0
C3742 C 0.40485 0.26367 0.90669 0.0
C3743 C 0.40465 0.25811 0.91617 0.0
C3744 C 0.40529 0.27531 0.90718 0.0
C3745 C 0.40464 0.26344 0.88669 0.0
C3746 C 0.41355 0.28088 0.90247 0.0
C3747 C 0.41488 0.29159 0.90443 0.0
C3748 C 0.40811 0.29679 0.91129 0.0
C3749 C 0.39966 0.29135 0.91567 0.0
C3750 C 0.39819 0.28075 0.91354 0.0
H3751 H 0.40119 0.25826 0.88063 0.0
H3752 H 0.39999 0.27076 0.88708 0.0
H3753 H 0.4127 0.26542 0.88417 0.0
H3754 H 0.41933 0.27684 0.89779 0.0
H3755 H 0.42162 0.29559 0.90121 0.0
H3756 H 0.7975 0.39683 0.90731 0.0
H3757 H 0.77898 0.39222 0.90457 0.0
H3758 H 0.77038 0.42454 0.90886 0.0
H3759 H 0.78857 0.42917 0.91127 0.0
H3760 H 0.76234 0.39393 0.91711 0.0
H3761 H 0.75474 0.4183 0.88254 0.0
H3762 H 0.76785 0.41551 0.887 0.0
H3763 H 0.76053 0.42624 0.89251 0.0
C3764 C 0.79163 0.40292 0.9076 0.0
C3765 C 0.79452 0.41336 0.90944 0.0
C3766 C 0.78107 0.40029 0.90599 0.0
C3767 C 0.77329 0.40809 0.90617 0.0
C3768 C 0.77622 0.41844 0.90827 0.0
H3769 H 0.71402 0.41288 0.93009 0.0
H3770 H 0.73207 0.40988 0.92532 0.0
C3771 C 0.78667 0.42105 0.90978 0.0
C3772 C 0.762 0.40557 0.90493 0.0
H3773 H 0.73966 0.41543 0.89411 0.0
C3774 C 0.75741 0.39843 0.91188 0.0
C3775 C 0.75551 0.41116 0.8979 0.0
C3776 C 0.75996 0.41813 0.88949 0.0
C3777 C 0.74649 0.39755 0.9127 0.0
C3778 C 0.74001 0.40419 0.90665 0.0
C3779 C 0.74459 0.41052 0.89895 0.0
C3780 C 0.72878 0.40578 0.90924 0.0
C3781 C 0.74203 0.38977 0.92036 0.0
C3782 C 0.72084 0.40499 0.90165 0.0
C3783 C 0.71035 0.40691 0.90434 0.0
C3784 C 0.7077 0.40971 0.91464 0.0
C3785 C 0.71572 0.41066 0.9221 0.0
C3786 C 0.7261 0.40881 0.91941 0.0
H3787 H 0.74718 0.3828 0.92104 0.0
H3788 H 0.74156 0.39343 0.92821 0.0
H3789 H 0.73409 0.38716 0.91802 0.0
H3790 H 0.72276 0.40283 0.89369 0.0
H3791 H 0.70435 0.40614 0.89842 0.0
H3792 H 0.57521 0.78826 0.91449 0.0
H3793 H 0.57995 0.77038 0.91051 0.0
H3794 H 0.61058 0.7805 0.90067 0.0
H3795 H 0.6059 0.79871 0.90496 0.0
H3796 H 0.58571 0.7616 0.89181 0.0
H3797 H 0.61728 0.75734 0.92156 0.0
H3798 H 0.60839 0.76828 0.92171 0.0
H3799 H 0.61855 0.76761 0.91205 0.0
C3800 C 0.58301 0.78676 0.91155 0.0
C3801 C 0.59021 0.79494 0.91011 0.0
C3802 C 0.58568 0.77649 0.9092 0.0
C3803 C 0.59561 0.77406 0.90528 0.0
C3804 C 0.6029 0.78217 0.90379 0.0
H3805 H 0.59643 0.70496 0.89498 0.0
H3806 H 0.59957 0.72332 0.88994 0.0
C3807 C 0.60023 0.79256 0.90624 0.0
C3808 C 0.59808 0.7629 0.90314 0.0
H3809 H 0.61095 0.7421 0.91378 0.0
C3810 C 0.59141 0.75732 0.89641 0.0
C3811 C 0.60555 0.75737 0.90912 0.0
C3812 C 0.61284 0.76289 0.91657 0.0
C3813 C 0.5913 0.74633 0.89626 0.0
C3814 C 0.59824 0.74079 0.90284 0.0
C3815 C 0.60562 0.74639 0.90877 0.0
C3816 C 0.59659 0.72957 0.9054 0.0
C3817 C 0.58317 0.74077 0.88977 0.0
C3818 C 0.59393 0.72699 0.9157 0.0
C3819 C 0.59225 0.71665 0.91857 0.0
C3820 C 0.5931 0.70854 0.91121 0.0
C3821 C 0.59564 0.71106 0.9008 0.0
C3822 C 0.59743 0.72153 0.89792 0.0
H3823 H 0.57765 0.74629 0.88597 0.0
H3824 H 0.5871 0.73615 0.88357 0.0
H3825 H 0.57862 0.73527 0.89471 0.0
H3826 H 0.59312 0.73304 0.92158 0.0
H3827 H 0.59032 0.71505 0.92665 0.0
H3828 H 0.7047 0.59794 0.10499 0.0
H3829 H 0.72314 0.60182 0.10897 0.0
H3830 H 0.73179 0.59238 0.07778 0.0
H3831 H 0.71362 0.5888 0.07372 0.0
H3832 H 0.73987 0.58944 0.10936 0.0
H3833 H 0.74703 0.61963 0.07961 0.0
H3834 H 0.73399 0.61547 0.08307 0.0
H3835 H 0.74146 0.60836 0.07345 0.0
C3836 C 0.71056 0.59677 0.09899 0.0
C3837 C 0.70769 0.59312 0.08903 0.0
C3838 C 0.72107 0.59902 0.10126 0.0
C3839 C 0.72883 0.5977 0.09357 0.0
C3840 C 0.72594 0.59385 0.08372 0.0
H3841 H 0.78835 0.57446 0.09256 0.0
H3842 H 0.77025 0.57939 0.09487 0.0
C3843 C 0.71552 0.59167 0.08145 0.0
C3844 C 0.74009 0.59953 0.09587 0.0
H3845 H 0.76231 0.60907 0.08453 0.0
C3846 C 0.74474 0.59396 0.10409 0.0
C3847 C 0.74649 0.60568 0.08924 0.0
C3848 C 0.74194 0.61271 0.08093 0.0
C3849 C 0.75566 0.59354 0.10518 0.0
C3850 C 0.76208 0.59857 0.09769 0.0
C3851 C 0.75742 0.60501 0.09014 0.0
C3852 C 0.77334 0.59593 0.0966 0.0
C3853 C 0.7602 0.58733 0.11412 0.0
C3854 C 0.78119 0.60365 0.09633 0.0
C3855 C 0.79172 0.60084 0.09484 0.0
C3856 C 0.79449 0.59028 0.0935 0.0
C3857 C 0.78656 0.58266 0.09363 0.0
C3858 C 0.77616 0.58545 0.09508 0.0
H3859 H 0.75498 0.58763 0.12106 0.0
H3860 H 0.76091 0.57901 0.11176 0.0
H3861 H 0.76805 0.59026 0.11639 0.0
H3862 H 0.77917 0.61181 0.09731 0.0
H3863 H 0.79765 0.60688 0.09473 0.0
H3864 H 0.41433 0.7151 0.07398 0.0
H3865 H 0.4114 0.73319 0.07873 0.0
H3866 H 0.40124 0.72366 0.10945 0.0
H3867 H 0.40452 0.70526 0.10478 0.0
H3868 H 0.39348 0.74303 0.08445 0.0
H3869 H 0.42321 0.74562 0.11619 0.0
H3870 H 0.42268 0.73464 0.10736 0.0
H3871 H 0.41313 0.73592 0.11757 0.0
C3872 C 0.41154 0.71678 0.08179 0.0
C3873 C 0.40973 0.70872 0.08904 0.0
C3874 C 0.40979 0.72717 0.08448 0.0
C3875 C 0.40612 0.72983 0.09445 0.0
C3876 C 0.40421 0.72182 0.10175 0.0
H3877 H 0.39695 0.79893 0.0963 0.0
H3878 H 0.39206 0.78052 0.09919 0.0
C3879 C 0.40607 0.71131 0.09907 0.0
C3880 C 0.40459 0.74108 0.09694 0.0
H3881 H 0.41578 0.76124 0.11036 0.0
C3882 C 0.39818 0.74702 0.09027 0.0
C3883 C 0.41071 0.74626 0.10455 0.0
C3884 C 0.41788 0.74034 0.11181 0.0
C3885 C 0.39841 0.758 0.09038 0.0
C3886 C 0.40502 0.76319 0.09757 0.0
C3887 C 0.41073 0.75724 0.10485 0.0
C3888 C 0.40763 0.77445 0.09645 0.0
C3889 C 0.39225 0.76392 0.08224 0.0
C3890 C 0.41799 0.77717 0.09415 0.0
C3891 C 0.42078 0.78757 0.09262 0.0
C3892 C 0.41328 0.79558 0.09328 0.0
C3893 C 0.40288 0.79292 0.09566 0.0
C3894 C 0.40008 0.78241 0.09728 0.0
H3895 H 0.38871 0.75865 0.07632 0.0
H3896 H 0.38584 0.76831 0.08611 0.0
H3897 H 0.39733 0.76965 0.07815 0.0
H3898 H 0.42395 0.7712 0.09341 0.0
H3899 H 0.42888 0.7893 0.09084 0.0
H3900 H 0.60537 0.20614 0.09692 0.0
H3901 H 0.60989 0.22448 0.1008 0.0
H3902 H 0.57829 0.23372 0.09351 0.0
H3903 H 0.57373 0.21571 0.08991 0.0
H3904 H 0.60949 0.24154 0.08845 0.0
H3905 H 0.58219 0.24844 0.12091 0.0
H3906 H 0.58536 0.23543 0.11642 0.0
H3907 H 0.57517 0.24289 0.11015 0.0
C3908 C 0.59941 0.21211 0.09623 0.0
C3909 C 0.58919 0.20945 0.09317 0.0
C3910 C 0.60198 0.22256 0.09848 0.0
C3911 C 0.59433 0.23045 0.09778 0.0
C3912 C 0.58423 0.22777 0.09452 0.0
H3913 H 0.5905 0.28929 0.07429 0.0
H3914 H 0.59366 0.27136 0.07935 0.0
C3915 C 0.58167 0.21743 0.09232 0.0
C3916 C 0.59685 0.24166 0.09959 0.0
H3917 H 0.58601 0.26378 0.1099 0.0
C3918 C 0.60456 0.24637 0.09338 0.0
C3919 C 0.59067 0.24801 0.10624 0.0
C3920 C 0.58298 0.24338 0.11389 0.0
C3921 C 0.60546 0.2573 0.09281 0.0
C3922 C 0.59828 0.26365 0.09836 0.0
C3923 C 0.59137 0.25894 0.10545 0.0
C3924 C 0.59669 0.27484 0.09562 0.0
C3925 C 0.61378 0.26193 0.08585 0.0
C3926 C 0.59685 0.28283 0.10319 0.0
C3927 C 0.59487 0.29326 0.10032 0.0
C3928 C 0.59261 0.29578 0.08985 0.0
C3929 C 0.59229 0.2877 0.08241 0.0
C3930 C 0.59422 0.27739 0.08526 0.0
H3931 H 0.62082 0.25685 0.08567 0.0
H3932 H 0.61075 0.26247 0.07774 0.0
H3933 H 0.61611 0.26986 0.08849 0.0
H3934 H 0.59856 0.281 0.11128 0.0
H3935 H 0.59515 0.29932 0.10622 0.0
H3936 H 0.96171 0.78933 0.56502 0.0
H3937 H 0.9578 0.77068 0.56491 0.0
H3938 H 0.92569 0.77722 0.57275 0.0
H3939 H 0.92949 0.79602 0.57277 0.0
H3940 H 0.94948 0.75712 0.58019 0.0
H3941 H 0.92368 0.76036 0.54529 0.0
H3942 H 0.93227 0.7708 0.54932 0.0
H3943 H 0.92034 0.76842 0.55631 0.0
C3944 C 0.95381 0.78685 0.5668 0.0
C3945 C 0.94589 0.79423 0.56879 0.0
C3946 C 0.9516 0.77615 0.56676 0.0
C3947 C 0.94142 0.77256 0.56866 0.0
C3948 C 0.93357 0.77984 0.5711 0.0
H3949 H 0.92961 0.70461 0.57253 0.0
H3950 H 0.92946 0.72332 0.57661 0.0
C3951 C 0.93578 0.79058 0.57117 0.0
C3952 C 0.9391 0.76122 0.56761 0.0
H3953 H 0.92662 0.7435 0.55197 0.0
C3954 C 0.94438 0.75412 0.57411 0.0
C3955 C 0.93253 0.75735 0.55959 0.0
C3956 C 0.92692 0.76459 0.55215 0.0
C3957 C 0.94346 0.74326 0.57266 0.0
C3958 C 0.937 0.73939 0.56456 0.0
C3959 C 0.93152 0.74649 0.55821 0.0
C3960 C 0.9365 0.72807 0.56198 0.0
C3961 C 0.94978 0.73603 0.57952 0.0
C3962 C 0.94021 0.72454 0.55229 0.0
C3963 C 0.94029 0.71387 0.5499 0.0
C3964 C 0.93658 0.70646 0.55716 0.0
C3965 C 0.93258 0.71006 0.56677 0.0
C3966 C 0.93253 0.72076 0.56915 0.0
H3967 H 0.95586 0.74029 0.58403 0.0
H3968 H 0.94449 0.7321 0.58516 0.0
H3969 H 0.95365 0.72989 0.57475 0.0
H3970 H 0.94328 0.73004 0.54662 0.0
H3971 H 0.94339 0.71144 0.54241 0.0
H3972 H 0.2062 0.93019 0.57266 0.0
H3973 H 0.225 0.92638 0.5728 0.0
H3974 H 0.23144 0.95749 0.56157 0.0
H3975 H 0.21279 0.9614 0.56145 0.0
H3976 H 0.23856 0.92694 0.55547 0.0
H3977 H 0.25175 0.95442 0.58621 0.0
H3978 H 0.23822 0.95066 0.58466 0.0
H3979 H 0.24382 0.96057 0.57639 0.0
C3980 C 0.21162 0.93628 0.57036 0.0
C3981 C 0.20794 0.94611 0.56705 0.0
C3982 C 0.22236 0.93407 0.57042 0.0
C3983 C 0.22964 0.94169 0.56732 0.0
C3984 C 0.226 0.95155 0.56419 0.0
H3985 H 0.29094 0.93898 0.54087 0.0
H3986 H 0.27225 0.93934 0.54468 0.0
C3987 C 0.21529 0.95374 0.56406 0.0
C3988 C 0.24099 0.93923 0.56671 0.0
H3989 H 0.265 0.9478 0.57471 0.0
C3990 C 0.24434 0.93141 0.55978 0.0
C3991 C 0.24853 0.94496 0.57243 0.0
C3992 C 0.24541 0.95305 0.58042 0.0
C3993 C 0.25503 0.92951 0.55804 0.0
C3994 C 0.26257 0.93568 0.56328 0.0
C3995 C 0.25922 0.94315 0.5706 0.0
C3996 C 0.27393 0.93488 0.56091 0.0
C3997 C 0.25815 0.92096 0.55054 0.0
C3998 C 0.28114 0.93237 0.5688 0.0
C3999 C 0.29188 0.93217 0.56665 0.0
C4000 C 0.29564 0.93461 0.55659 0.0
C4001 C 0.28836 0.93704 0.5487 0.0
C4002 C 0.27764 0.93719 0.55085 0.0
H4003 H 0.25183 0.91508 0.54959 0.0
H4004 H 0.25976 0.92444 0.54276 0.0
H4005 H 0.26535 0.91691 0.55324 0.0
H4006 H 0.27845 0.93063 0.57664 0.0
H4007 H 0.29724 0.9303 0.57293 0.0
H4008 H 0.07276 0.20715 0.56326 0.0
H4009 H 0.07576 0.22602 0.56221 0.0
H4010 H 0.0427 0.23149 0.5662 0.0
H4011 H 0.03964 0.21265 0.56668 0.0
H4012 H 0.04913 0.24257 0.55098 0.0
H4013 H 0.07731 0.2487 0.58317 0.0
H4014 H 0.08204 0.23928 0.57394 0.0
H4015 H 0.07043 0.23651 0.58144 0.0
C4016 C 0.06616 0.21239 0.56407 0.0
C4017 C 0.05596 0.20841 0.56503 0.0
C4018 C 0.06789 0.22321 0.56354 0.0
C4019 C 0.05949 0.23027 0.56427 0.0
C4020 C 0.04934 0.22626 0.56559 0.0
H4021 H 0.06508 0.29813 0.57035 0.0
H4022 H 0.06353 0.27931 0.57351 0.0
C4023 C 0.04759 0.21547 0.56589 0.0
C4024 C 0.06107 0.24176 0.56284 0.0
H4025 H 0.07552 0.26276 0.57094 0.0
C4026 C 0.05486 0.24697 0.55543 0.0
C4027 C 0.06844 0.24761 0.5687 0.0
C4028 C 0.07485 0.24276 0.57733 0.0
C4029 C 0.05582 0.25776 0.55365 0.0
C4030 C 0.06356 0.26351 0.5591 0.0
C4031 C 0.0697 0.25835 0.56662 0.0
C4032 C 0.06521 0.27492 0.55725 0.0
C4033 C 0.0483 0.26289 0.54614 0.0
C4034 C 0.067 0.27875 0.54711 0.0
C4035 C 0.06768 0.28951 0.54526 0.0
C4036 C 0.0669 0.29669 0.55356 0.0
C4037 C 0.0657 0.29282 0.56379 0.0
C4038 C 0.06481 0.28205 0.5656 0.0
H4039 H 0.04099 0.25828 0.54531 0.0
H4040 H 0.0462 0.2709 0.54874 0.0
H4041 H 0.05198 0.2634 0.5383 0.0
H4042 H 0.06772 0.27343 0.54057 0.0
H4043 H 0.06879 0.29222 0.53731 0.0
H4044 H 0.7911 0.03961 0.56095 0.0
H4045 H 0.77245 0.04357 0.56083 0.0
H4046 H 0.77886 0.07479 0.5718 0.0
H4047 H 0.79762 0.07095 0.57184 0.0
H4048 H 0.75892 0.05019 0.57682 0.0
H4049 H 0.7618 0.07966 0.54496 0.0
H4050 H 0.77234 0.07079 0.54802 0.0
H4051 H 0.76991 0.08193 0.55621 0.0
C4052 C 0.78859 0.04733 0.56338 0.0
C4053 C 0.79593 0.05499 0.56631 0.0
C4054 C 0.77789 0.04957 0.56332 0.0
C4055 C 0.77426 0.05952 0.56615 0.0
C4056 C 0.7815 0.06711 0.5694 0.0
H4057 H 0.70628 0.0705 0.5723 0.0
H4058 H 0.72507 0.07052 0.5761 0.0
C4059 C 0.79223 0.06487 0.56947 0.0
C4060 C 0.7629 0.06191 0.56543 0.0
H4061 H 0.74502 0.07622 0.55166 0.0
C4062 C 0.75587 0.05596 0.5714 0.0
C4063 C 0.75894 0.06938 0.55829 0.0
C4064 C 0.7661 0.07578 0.55143 0.0
C4065 C 0.745 0.05711 0.57027 0.0
C4066 C 0.74104 0.0645 0.56304 0.0
C4067 C 0.74807 0.07061 0.55724 0.0
C4068 C 0.72968 0.0653 0.56069 0.0
C4069 C 0.73784 0.05008 0.57648 0.0
C4070 C 0.72605 0.06271 0.55067 0.0
C4071 C 0.71535 0.06272 0.54846 0.0
C4072 C 0.708 0.06538 0.55621 0.0
C4073 C 0.71169 0.06836 0.56615 0.0
C4074 C 0.72243 0.06832 0.56837 0.0
H4075 H 0.74213 0.04351 0.58019 0.0
H4076 H 0.73403 0.0547 0.58276 0.0
H4077 H 0.73159 0.04681 0.57141 0.0
H4078 H 0.7315 0.06039 0.54461 0.0
H4079 H 0.71285 0.06045 0.54069 0.0
H4080 H 0.93091 0.20664 0.43067 0.0
H4081 H 0.92674 0.22534 0.43016 0.0
H4082 H 0.95756 0.23258 0.44169 0.0
H4083 H 0.96184 0.21401 0.44216 0.0
H4084 H 0.92663 0.23916 0.44707 0.0
H4085 H 0.95455 0.25248 0.41682 0.0
H4086 H 0.95111 0.23889 0.41854 0.0
H4087 H 0.96071 0.24489 0.42689 0.0
C4088 C 0.93686 0.21221 0.43297 0.0
C4089 C 0.94672 0.20878 0.43646 0.0
C4090 C 0.93444 0.2229 0.43269 0.0
C4091 C 0.94188 0.23037 0.43575 0.0
C4092 C 0.95176 0.22698 0.43908 0.0
H4093 H 0.93838 0.29124 0.46209 0.0
H4094 H 0.93833 0.27261 0.4581 0.0
C4095 C 0.95417 0.21632 0.43942 0.0
C4096 C 0.93918 0.24168 0.43613 0.0
H4097 H 0.94759 0.26575 0.42815 0.0
C4098 C 0.93112 0.24496 0.44282 0.0
C4099 C 0.94491 0.24926 0.43046 0.0
C4100 C 0.95323 0.24621 0.42269 0.0
C4101 C 0.92901 0.25563 0.44441 0.0
C4102 C 0.93523 0.26323 0.4393 0.0
C4103 C 0.9429 0.25994 0.43217 0.0
C4104 C 0.9344 0.27456 0.44177 0.0
C4105 C 0.92023 0.25868 0.45167 0.0
C4106 C 0.93228 0.28192 0.43389 0.0
C4107 C 0.93232 0.29265 0.43615 0.0
C4108 C 0.93463 0.29624 0.4463 0.0
C4109 C 0.93657 0.2888 0.45419 0.0
C4110 C 0.93647 0.27811 0.45194 0.0
H4111 H 0.91431 0.25236 0.45231 0.0
H4112 H 0.92345 0.26012 0.45959 0.0
H4113 H 0.91629 0.26593 0.44897 0.0
H4114 H 0.93074 0.27936 0.42597 0.0
H4115 H 0.93085 0.29813 0.42987 0.0
H4116 H 0.70607 0.93121 0.43008 0.0
H4117 H 0.72481 0.93101 0.42602 0.0
H4118 H 0.73178 0.94063 0.45756 0.0
H4119 H 0.71318 0.94079 0.46171 0.0
H4120 H 0.73855 0.94799 0.42713 0.0
H4121 H 0.75179 0.91603 0.45311 0.0
H4122 H 0.73822 0.91789 0.44964 0.0
H4123 H 0.74407 0.92562 0.45984 0.0
C4124 C 0.7116 0.93315 0.4362 0.0
C4125 C 0.70808 0.93601 0.44623 0.0
C4126 C 0.7223 0.93305 0.43385 0.0
C4127 C 0.72971 0.93567 0.44152 0.0
C4128 C 0.72623 0.93838 0.45157 0.0
H4129 H 0.79029 0.96266 0.44043 0.0
H4130 H 0.77172 0.95845 0.44002 0.0
C4131 C 0.71556 0.93853 0.4539 0.0
C4132 C 0.74103 0.93626 0.43895 0.0
H4133 H 0.76505 0.9279 0.44708 0.0
C4134 C 0.74434 0.94349 0.43138 0.0
C4135 C 0.74859 0.93027 0.44436 0.0
C4136 C 0.7455 0.92194 0.45212 0.0
C4137 C 0.75502 0.9453 0.42951 0.0
C4138 C 0.76258 0.93984 0.43547 0.0
C4139 C 0.75927 0.93218 0.44261 0.0
C4140 C 0.77389 0.94246 0.43496 0.0
C4141 C 0.75811 0.95315 0.42128 0.0
C4142 C 0.78135 0.93484 0.43235 0.0
C4143 C 0.79205 0.93721 0.43259 0.0
C4144 C 0.7955 0.94723 0.43559 0.0
C4145 C 0.78796 0.95487 0.43807 0.0
C4146 C 0.7773 0.9525 0.43777 0.0
H4147 H 0.75185 0.95415 0.41534 0.0
H4148 H 0.75946 0.96085 0.42504 0.0
H4149 H 0.76542 0.95077 0.41725 0.0
H4150 H 0.77889 0.92702 0.43023 0.0
H4151 H 0.79761 0.93113 0.43068 0.0
H4152 H 0.0395 0.79171 0.4327 0.0
H4153 H 0.04279 0.77292 0.43362 0.0
H4154 H 0.07575 0.77881 0.4376 0.0
H4155 H 0.07255 0.79765 0.4362 0.0
H4156 H 0.07299 0.76195 0.42585 0.0
H4157 H 0.04772 0.75843 0.46076 0.0
H4158 H 0.04064 0.76342 0.44975 0.0
H4159 H 0.05123 0.77091 0.45526 0.0
C4160 C 0.04746 0.789 0.43367 0.0
C4161 C 0.05575 0.79618 0.43451 0.0
C4162 C 0.04933 0.77825 0.43427 0.0
C4163 C 0.05948 0.77442 0.43603 0.0
C4164 C 0.06784 0.78155 0.43635 0.0
H4165 H 0.06831 0.7125 0.46268 0.0
H4166 H 0.06817 0.73129 0.45931 0.0
C4167 C 0.066 0.79233 0.43554 0.0
C4168 C 0.06129 0.76305 0.43791 0.0
H4169 H 0.05311 0.74251 0.45286 0.0
C4170 C 0.06869 0.7577 0.4318 0.0
C4171 C 0.05588 0.75752 0.44584 0.0
C4172 C 0.04852 0.76289 0.45335 0.0
C4173 C 0.07066 0.74696 0.43326 0.0
C4174 C 0.06482 0.74132 0.44081 0.0
C4175 C 0.05755 0.74674 0.447 0.0
C4176 C 0.06609 0.72984 0.44257 0.0
C4177 C 0.07917 0.74188 0.42686 0.0
C4178 C 0.06516 0.72266 0.43429 0.0
C4179 C 0.06549 0.71187 0.43619 0.0
C4180 C 0.06645 0.70803 0.44644 0.0
C4181 C 0.06751 0.7152 0.4547 0.0
C4182 C 0.06741 0.72597 0.45277 0.0
H4183 H 0.08507 0.7477 0.42425 0.0
H4184 H 0.08322 0.73565 0.43133 0.0
H4185 H 0.07566 0.73835 0.41975 0.0
H4186 H 0.06381 0.72537 0.42638 0.0
H4187 H 0.06453 0.70653 0.42968 0.0
H4188 H 0.20815 0.07362 0.43135 0.0
H4189 H 0.227 0.0772 0.43128 0.0
H4190 H 0.23323 0.04474 0.43784 0.0
H4191 H 0.21453 0.04108 0.43787 0.0
H4192 H 0.24054 0.07402 0.44828 0.0
H4193 H 0.25356 0.05116 0.41392 0.0
H4194 H 0.24006 0.05476 0.41599 0.0
H4195 H 0.24557 0.04371 0.42273 0.0
C4196 C 0.21354 0.06721 0.43259 0.0
C4197 C 0.2098 0.05706 0.43463 0.0
C4198 C 0.22431 0.06928 0.43258 0.0
C4199 C 0.23153 0.06122 0.43445 0.0
C4200 C 0.22782 0.05105 0.4362 0.0
H4201 H 0.29267 0.05954 0.46132 0.0
H4202 H 0.27401 0.05977 0.45735 0.0
C4203 C 0.2171 0.04899 0.43627 0.0
C4204 C 0.24289 0.06347 0.43538 0.0
H4205 H 0.26684 0.05581 0.42635 0.0
C4206 C 0.24629 0.07016 0.44339 0.0
C4207 C 0.2504 0.05853 0.42893 0.0
C4208 C 0.24722 0.05172 0.41984 0.0
C4209 C 0.25699 0.07163 0.44545 0.0
C4210 C 0.26448 0.06616 0.43941 0.0
C4211 C 0.26109 0.05989 0.43106 0.0
C4212 C 0.27583 0.06648 0.44193 0.0
C4213 C 0.26017 0.07896 0.45412 0.0
C4214 C 0.2831 0.07003 0.43452 0.0
C4215 C 0.29383 0.06989 0.43675 0.0
C4216 C 0.29751 0.06608 0.44641 0.0
C4217 C 0.29016 0.06256 0.45382 0.0
C4218 C 0.27946 0.06274 0.45159 0.0
H4219 H 0.25392 0.08472 0.45588 0.0
H4220 H 0.26166 0.07436 0.46133 0.0
H4221 H 0.26744 0.08325 0.45208 0.0
H4222 H 0.28048 0.07288 0.42699 0.0
H4223 H 0.29923 0.07263 0.43084 0.0
H4224 H 0.57326 0.93693 0.70517 0.0
H4225 H 0.57676 0.93754 0.72396 0.0
H4226 H 0.54363 0.93596 0.73017 0.0
H4227 H 0.5401 0.93593 0.7114 0.0
H4228 H 0.55146 0.95039 0.74134 0.0
H4229 H 0.57728 0.91609 0.7462 0.0
H4230 H 0.58248 0.92511 0.73682 0.0
H4231 H 0.57027 0.91857 0.73422 0.0
C4232 C 0.56674 0.93658 0.71055 0.0
C4233 C 0.5564 0.9364 0.7068 0.0
C4234 C 0.56875 0.93684 0.72132 0.0
C4235 C 0.56048 0.93662 0.72857 0.0
C4236 C 0.55017 0.93614 0.72479 0.0
H4237 H 0.56634 0.92921 0.79622 0.0
H4238 H 0.56501 0.92626 0.77733 0.0
C4239 C 0.54815 0.93612 0.71404 0.0
C4240 C 0.56246 0.9377 0.74002 0.0
H4241 H 0.57683 0.9282 0.76049 0.0
C4242 C 0.55696 0.94546 0.74551 0.0
C4243 C 0.56953 0.93122 0.74557 0.0
C4244 C 0.57514 0.92221 0.74041 0.0
C4245 C 0.55834 0.94697 0.75629 0.0
C4246 C 0.56582 0.94088 0.76174 0.0
C4247 C 0.57124 0.93301 0.7563 0.0
C4248 C 0.56787 0.94241 0.77311 0.0
C4249 C 0.5515 0.9549 0.76175 0.0
C4250 C 0.57039 0.95235 0.77705 0.0
C4251 C 0.57093 0.95409 0.78782 0.0
C4252 C 0.56932 0.94584 0.7949 0.0
C4253 C 0.56763 0.93572 0.79096 0.0
C4254 C 0.56685 0.93403 0.78016 0.0
H4255 H 0.54417 0.95636 0.75733 0.0
H4256 H 0.54939 0.9523 0.76975 0.0
H4257 H 0.55576 0.96244 0.76232 0.0
H4258 H 0.5716 0.95887 0.77178 0.0
H4259 H 0.5724 0.96194 0.79063 0.0
H4260 H 0.06468 0.57211 0.70658 0.0
H4261 H 0.06333 0.5748 0.72547 0.0
H4262 H 0.0678 0.54174 0.7305 0.0
H4263 H 0.06857 0.53897 0.71161 0.0
H4264 H 0.05255 0.54772 0.74168 0.0
H4265 H 0.08412 0.57647 0.7482 0.0
H4266 H 0.07484 0.58117 0.73883 0.0
H4267 H 0.08254 0.56972 0.73593 0.0
C4268 C 0.06553 0.56544 0.71173 0.0
C4269 C 0.06673 0.55532 0.7076 0.0
C4270 C 0.06483 0.567 0.72256 0.0
C4271 C 0.06563 0.55851 0.72951 0.0
C4272 C 0.06715 0.54844 0.72536 0.0
H4273 H 0.07137 0.56427 0.7974 0.0
H4274 H 0.07459 0.56268 0.7786 0.0
C4275 C 0.06761 0.54685 0.71454 0.0
C4276 C 0.06414 0.55993 0.74101 0.0
H4277 H 0.07179 0.57441 0.76215 0.0
C4278 C 0.05684 0.55351 0.74615 0.0
C4279 C 0.0698 0.56738 0.74696 0.0
C4280 C 0.07834 0.57399 0.74221 0.0
C4281 C 0.05499 0.55436 0.75694 0.0
C4282 C 0.06023 0.56219 0.76277 0.0
C4283 C 0.06763 0.56853 0.75769 0.0
C4284 C 0.05828 0.56375 0.77418 0.0
C4285 C 0.04765 0.54661 0.76198 0.0
C4286 C 0.04808 0.56518 0.77801 0.0
C4287 C 0.0462 0.56588 0.78877 0.0
C4288 C 0.05452 0.56547 0.79595 0.0
C4289 C 0.06479 0.5646 0.79209 0.0
C4290 C 0.06664 0.56369 0.78133 0.0
H4291 H 0.04707 0.53929 0.75733 0.0
H4292 H 0.05022 0.54456 0.77001 0.0
H4293 H 0.0397 0.55007 0.76241 0.0
H4294 H 0.04152 0.56565 0.77268 0.0
H4295 H 0.03822 0.56672 0.79147 0.0
H4296 H 0.43103 0.07132 0.70581 0.0
H4297 H 0.42709 0.0716 0.72456 0.0
H4298 H 0.45799 0.05997 0.7313 0.0
H4299 H 0.46205 0.05974 0.71268 0.0
H4300 H 0.42709 0.05466 0.73825 0.0
H4301 H 0.45535 0.08467 0.7514 0.0
H4302 H 0.45177 0.08303 0.73784 0.0
H4303 H 0.46135 0.07458 0.74372 0.0
C4304 C 0.43704 0.06894 0.71128 0.0
C4305 C 0.44687 0.06551 0.70769 0.0
C4306 C 0.43476 0.06909 0.722 0.0
C4307 C 0.44228 0.06594 0.72935 0.0
C4308 C 0.45212 0.06264 0.7258 0.0
H4309 H 0.43813 0.03995 0.79069 0.0
H4310 H 0.43858 0.04367 0.772 0.0
C4311 C 0.45441 0.06245 0.71511 0.0
C4312 C 0.43974 0.0655 0.74069 0.0
H4313 H 0.44836 0.07343 0.7647 0.0
C4314 C 0.43165 0.05887 0.74403 0.0
C4315 C 0.44557 0.07111 0.74824 0.0
C4316 C 0.45393 0.07883 0.74513 0.0
C4317 C 0.4296 0.0573 0.75472 0.0
C4318 C 0.43588 0.06239 0.76227 0.0
C4319 C 0.44362 0.06943 0.75892 0.0
C4320 C 0.43496 0.06011 0.77364 0.0
C4321 C 0.42075 0.05015 0.75782 0.0
C4322 C 0.43289 0.06814 0.78083 0.0
C4323 C 0.43266 0.06605 0.79159 0.0
C4324 C 0.43461 0.05589 0.79538 0.0
C4325 C 0.43657 0.04786 0.7881 0.0
C4326 C 0.43676 0.04996 0.77738 0.0
H4327 H 0.41483 0.04949 0.75149 0.0
H4328 H 0.4239 0.04222 0.75935 0.0
H4329 H 0.41682 0.05297 0.76504 0.0
H4330 H 0.43154 0.07605 0.77813 0.0
H4331 H 0.43116 0.07244 0.79694 0.0
H4332 H 0.93252 0.46315 0.71157 0.0
H4333 H 0.93359 0.45972 0.73033 0.0
H4334 H 0.93839 0.42692 0.72415 0.0
H4335 H 0.93687 0.43024 0.70535 0.0
H4336 H 0.9265 0.42931 0.74104 0.0
H4337 H 0.96089 0.45526 0.74477 0.0
H4338 H 0.94972 0.46212 0.73982 0.0
H4339 H 0.95547 0.45171 0.73226 0.0
C4340 C 0.93372 0.45519 0.71421 0.0
C4341 C 0.93474 0.44699 0.70696 0.0
C4342 C 0.9344 0.45325 0.72495 0.0
C4343 C 0.93641 0.44311 0.72868 0.0
C4344 C 0.93693 0.43483 0.72148 0.0
H4345 H 0.96326 0.43412 0.7905 0.0
H4346 H 0.95987 0.43437 0.77171 0.0
C4347 C 0.93606 0.43673 0.71072 0.0
C4348 C 0.93833 0.44125 0.74003 0.0
H4349 H 0.95315 0.44951 0.76064 0.0
C4350 C 0.93237 0.43368 0.74532 0.0
C4351 C 0.94615 0.44676 0.74561 0.0
C4352 C 0.9535 0.45433 0.7403 0.0
C4353 C 0.93387 0.43165 0.75604 0.0
C4354 C 0.94131 0.43757 0.76173 0.0
C4355 C 0.94737 0.44501 0.75637 0.0
C4356 C 0.9431 0.43624 0.77319 0.0
C4357 C 0.92762 0.42299 0.76106 0.0
C4358 C 0.93482 0.43702 0.78038 0.0
C4359 C 0.93673 0.43664 0.79117 0.0
C4360 C 0.947 0.43577 0.795 0.0
C4361 C 0.95526 0.43485 0.78781 0.0
C4362 C 0.95333 0.43501 0.77705 0.0
H4363 H 0.9251 0.4171 0.7552 0.0
H4364 H 0.93218 0.41895 0.76724 0.0
H4365 H 0.92047 0.42635 0.76465 0.0
H4366 H 0.9269 0.43829 0.77769 0.0
H4367 H 0.93021 0.43749 0.79651 0.0
H4368 H 0.57437 0.07557 0.20515 0.0
H4369 H 0.57549 0.07994 0.22378 0.0
H4370 H 0.56608 0.04856 0.23172 0.0
H4371 H 0.56504 0.0441 0.21325 0.0
H4372 H 0.55902 0.07936 0.23778 0.0
H4373 H 0.59068 0.05328 0.25135 0.0
H4374 H 0.58866 0.05629 0.2377 0.0
H4375 H 0.58098 0.04631 0.24399 0.0
C4376 C 0.57274 0.06954 0.21086 0.0
C4377 C 0.5696 0.05948 0.20767 0.0
C4378 C 0.57335 0.07206 0.22151 0.0
C4379 C 0.57099 0.06455 0.22916 0.0
C4380 C 0.56815 0.05444 0.22599 0.0
H4381 H 0.54311 0.06563 0.28881 0.0
H4382 H 0.54777 0.06674 0.27039 0.0
C4383 C 0.56749 0.05192 0.21538 0.0
C4384 C 0.57056 0.06738 0.24042 0.0
H4385 H 0.57853 0.05919 0.26455 0.0
C4386 C 0.56343 0.07509 0.24363 0.0
C4387 C 0.57643 0.06194 0.24806 0.0
C4388 C 0.5847 0.05407 0.2451 0.0
C4389 C 0.56152 0.07701 0.25428 0.0
C4390 C 0.56677 0.07095 0.26191 0.0
C4391 C 0.5744 0.06374 0.25871 0.0
C4392 C 0.56383 0.07131 0.27315 0.0
C4393 C 0.55376 0.08537 0.25725 0.0
C4394 C 0.57131 0.07344 0.28089 0.0
C4395 C 0.56867 0.07278 0.29151 0.0
C4396 C 0.55852 0.06982 0.29458 0.0
C4397 C 0.551 0.06793 0.28677 0.0
C4398 C 0.55363 0.06864 0.2762 0.0
H4399 H 0.55313 0.09144 0.25107 0.0
H4400 H 0.54592 0.08177 0.25822 0.0
H4401 H 0.55595 0.0892 0.26472 0.0
H4402 H 0.57925 0.07545 0.27872 0.0
H4403 H 0.57468 0.07425 0.29729 0.0
H4404 H 0.96304 0.56808 0.21209 0.0
H4405 H 0.9592 0.56756 0.2308 0.0
H4406 H 0.92622 0.5655 0.22405 0.0
H4407 H 0.92999 0.56648 0.2053 0.0
H4408 H 0.92935 0.5774 0.24084 0.0
H4409 H 0.95212 0.5409 0.24541 0.0
H4410 H 0.95999 0.55139 0.2405 0.0
H4411 H 0.94928 0.54646 0.23278 0.0
C4412 C 0.95496 0.56761 0.21459 0.0
C4413 C 0.94683 0.56719 0.20719 0.0
C4414 C 0.95277 0.56724 0.22529 0.0
C4415 C 0.94244 0.56615 0.22886 0.0
C4416 C 0.93427 0.56624 0.22151 0.0
H4417 H 0.92961 0.54064 0.2905 0.0
H4418 H 0.93049 0.54395 0.27171 0.0
C4419 C 0.93644 0.5668 0.21078 0.0
C4420 C 0.9402 0.56454 0.24019 0.0
H4421 H 0.94661 0.54919 0.26107 0.0
C4422 C 0.93308 0.5712 0.24526 0.0
C4423 C 0.94487 0.5563 0.24593 0.0
C4424 C 0.95189 0.54829 0.24085 0.0
C4425 C 0.93067 0.56997 0.25594 0.0
C4426 C 0.93575 0.56205 0.2618 0.0
C4427 C 0.94275 0.55532 0.25666 0.0
C4428 C 0.93397 0.56045 0.27322 0.0
C4429 C 0.92251 0.57702 0.26073 0.0
C4430 C 0.93542 0.56864 0.28042 0.0
C4431 C 0.93469 0.56679 0.2912 0.0
C4432 C 0.93279 0.55666 0.29501 0.0
C4433 C 0.93114 0.54852 0.28781 0.0
C4434 C 0.93166 0.55041 0.27706 0.0
H4435 H 0.91704 0.58007 0.25471 0.0
H4436 H 0.91791 0.57287 0.2668 0.0
H4437 H 0.92643 0.58382 0.26441 0.0
H4438 H 0.93749 0.57639 0.27774 0.0
H4439 H 0.93613 0.5732 0.29654 0.0
H4440 H 0.4345 0.96303 0.21181 0.0
H4441 H 0.43533 0.95956 0.23058 0.0
H4442 H 0.43738 0.92646 0.22444 0.0
H4443 H 0.43599 0.92988 0.20563 0.0
H4444 H 0.42613 0.92957 0.24135 0.0
H4445 H 0.46213 0.95321 0.24492 0.0
H4446 H 0.45145 0.9609 0.24012 0.0
H4447 H 0.45638 0.95015 0.23243 0.0
C4448 C 0.43501 0.955 0.21447 0.0
C4449 C 0.4353 0.94673 0.20724 0.0
C4450 C 0.43558 0.95303 0.22521 0.0
C4451 C 0.4368 0.94277 0.22895 0.0
C4452 C 0.43656 0.93446 0.22176 0.0
H4453 H 0.46309 0.93297 0.29096 0.0
H4454 H 0.45983 0.93306 0.27213 0.0
C4455 C 0.43575 0.93641 0.21101 0.0
C4456 C 0.43866 0.94078 0.24029 0.0
H4457 H 0.45399 0.94817 0.26085 0.0
C4458 C 0.43227 0.93358 0.24561 0.0
C4459 C 0.44683 0.94579 0.24584 0.0
C4460 C 0.45466 0.95285 0.2405 0.0
C4461 C 0.43368 0.93146 0.25632 0.0
C4462 C 0.44147 0.93695 0.26199 0.0
C4463 C 0.44795 0.944 0.2566 0.0
C4464 C 0.44314 0.93561 0.27347 0.0
C4465 C 0.42697 0.92316 0.26134 0.0
C4466 C 0.43484 0.9368 0.2806 0.0
C4467 C 0.43667 0.93646 0.29139 0.0
C4468 C 0.44688 0.93527 0.29529 0.0
C4469 C 0.45514 0.93394 0.28818 0.0
C4470 C 0.45328 0.93401 0.27741 0.0
H4471 H 0.42423 0.91735 0.25548 0.0
H4472 H 0.43126 0.91894 0.2676 0.0
H4473 H 0.41995 0.92688 0.26481 0.0
H4474 H 0.427 0.93837 0.27784 0.0
H4475 H 0.43017 0.93766 0.29668 0.0
H4476 H 0.06508 0.43157 0.29831 0.0
H4477 H 0.06387 0.42837 0.27949 0.0
H4478 H 0.06853 0.46126 0.2736 0.0
H4479 H 0.06921 0.46455 0.2924 0.0
H4480 H 0.05319 0.45495 0.26257 0.0
H4481 H 0.08486 0.42611 0.25687 0.0
H4482 H 0.07555 0.4217 0.26636 0.0
H4483 H 0.08325 0.43321 0.26895 0.0
C4484 C 0.06599 0.43809 0.29299 0.0
C4485 C 0.06722 0.44832 0.29685 0.0
C4486 C 0.06537 0.43624 0.2822 0.0
C4487 C 0.06628 0.44453 0.27503 0.0
C4488 C 0.06781 0.45471 0.27892 0.0
H4489 H 0.07197 0.43832 0.20715 0.0
H4490 H 0.07533 0.43966 0.22596 0.0
C4491 C 0.0682 0.45659 0.28968 0.0
C4492 C 0.06483 0.44281 0.26357 0.0
H4493 H 0.07265 0.42789 0.24278 0.0
C4494 C 0.05753 0.44908 0.25826 0.0
C4495 C 0.07055 0.43525 0.25782 0.0
C4496 C 0.07907 0.42877 0.26278 0.0
C4497 C 0.05572 0.44796 0.24749 0.0
C4498 C 0.06101 0.44003 0.24186 0.0
C4499 C 0.06844 0.43385 0.2471 0.0
C4500 C 0.05909 0.43823 0.23049 0.0
C4501 C 0.04833 0.45554 0.24225 0.0
C4502 C 0.04889 0.43657 0.22674 0.0
C4503 C 0.04693 0.436 0.21599 0.0
C4504 C 0.05517 0.43676 0.20875 0.0
C4505 C 0.06545 0.43771 0.21252 0.0
C4506 C 0.06739 0.43848 0.22329 0.0
H4507 H 0.04762 0.46293 0.24675 0.0
H4508 H 0.05096 0.45747 0.2342 0.0
H4509 H 0.04043 0.45198 0.24179 0.0
H4510 H 0.04239 0.43595 0.23212 0.0
H4511 H 0.03894 0.4351 0.21335 0.0
H4512 H 0.70695 0.57415 0.93131 0.0
H4513 H 0.72573 0.578 0.93099 0.0
H4514 H 0.73249 0.54594 0.93885 0.0
H4515 H 0.71386 0.54198 0.93911 0.0
H4516 H 0.73947 0.57592 0.94781 0.0
H4517 H 0.75254 0.55148 0.91459 0.0
H4518 H 0.73899 0.55489 0.91665 0.0
H4519 H 0.74481 0.5443 0.92384 0.0
C4520 C 0.71243 0.56787 0.93279 0.0
C4521 C 0.70886 0.55775 0.93524 0.0
C4522 C 0.72317 0.5701 0.93264 0.0
C4523 C 0.73053 0.56224 0.93478 0.0
C4524 C 0.72698 0.55209 0.93697 0.0
H4525 H 0.79144 0.56209 0.96159 0.0
H4526 H 0.77281 0.56246 0.95756 0.0
C4527 C 0.71629 0.54986 0.93719 0.0
C4528 C 0.74187 0.56469 0.93549 0.0
H4529 H 0.76585 0.55681 0.92675 0.0
C4530 C 0.74523 0.57186 0.9431 0.0
C4531 C 0.7494 0.55951 0.92925 0.0
C4532 C 0.74626 0.55219 0.92055 0.0
C4533 C 0.75592 0.57356 0.945 0.0
C4534 C 0.76345 0.56784 0.93924 0.0
C4535 C 0.76009 0.5611 0.93125 0.0
C4536 C 0.77478 0.56826 0.94179 0.0
C4537 C 0.75907 0.58138 0.95324 0.0
C4538 C 0.78215 0.57128 0.93423 0.0
C4539 C 0.79286 0.57105 0.93651 0.0
C4540 C 0.79644 0.56767 0.94636 0.0
C4541 C 0.78901 0.56476 0.95393 0.0
C4542 C 0.77832 0.56503 0.95167 0.0
H4543 H 0.75281 0.58725 0.9546 0.0
H4544 H 0.76048 0.57723 0.96073 0.0
H4545 H 0.76636 0.58553 0.95102 0.0
H4546 H 0.7796 0.57373 0.92654 0.0
H4547 H 0.79834 0.57331 0.93046 0.0
H4548 H 0.79699 0.43154 0.07168 0.0
H4549 H 0.77815 0.43135 0.07521 0.0
H4550 H 0.7722 0.44366 0.04441 0.0
H4551 H 0.79092 0.44383 0.04077 0.0
H4552 H 0.7645 0.44856 0.07508 0.0
H4553 H 0.752 0.4188 0.04622 0.0
H4554 H 0.76545 0.42031 0.05025 0.0
H4555 H 0.75993 0.42893 0.04061 0.0
C4556 C 0.79167 0.4341 0.0656 0.0
C4557 C 0.79552 0.43769 0.05592 0.0
C4558 C 0.7809 0.43401 0.06765 0.0
C4559 C 0.77375 0.43736 0.06002 0.0
C4560 C 0.77755 0.44084 0.05034 0.0
H4561 H 0.71218 0.46303 0.06294 0.0
H4562 H 0.73089 0.45936 0.06261 0.0
C4563 C 0.78829 0.44099 0.0483 0.0
C4564 C 0.76235 0.43779 0.06231 0.0
H4565 H 0.73854 0.42981 0.05319 0.0
C4566 C 0.75883 0.44436 0.07037 0.0
C4567 C 0.75494 0.4322 0.05629 0.0
C4568 C 0.75826 0.42458 0.04792 0.0
C4569 C 0.74809 0.44587 0.07223 0.0
C4570 C 0.74069 0.44077 0.06578 0.0
C4571 C 0.74421 0.43381 0.05806 0.0
C4572 C 0.72929 0.44299 0.06654 0.0
C4573 C 0.74478 0.45297 0.08104 0.0
C4574 C 0.72212 0.43497 0.06874 0.0
C4575 C 0.71135 0.43704 0.06893 0.0
C4576 C 0.70754 0.44715 0.06678 0.0
C4577 C 0.71479 0.45515 0.06464 0.0
C4578 C 0.72552 0.45309 0.06452 0.0
H4579 H 0.75103 0.45379 0.08701 0.0
H4580 H 0.74309 0.46086 0.07785 0.0
H4581 H 0.73759 0.45002 0.0849 0.0
H4582 H 0.72485 0.4271 0.07025 0.0
H4583 H 0.70601 0.43067 0.07056 0.0
H4584 H 0.54027 0.71249 0.06233 0.0
H4585 H 0.54385 0.7312 0.062 0.0
H4586 H 0.5752 0.72554 0.07299 0.0
H4587 H 0.57174 0.70669 0.07325 0.0
H4588 H 0.55034 0.74517 0.07777 0.0
H4589 H 0.57954 0.74215 0.04567 0.0
H4590 H 0.57083 0.73155 0.04898 0.0
H4591 H 0.582 0.73426 0.05704 0.0
C4592 C 0.54793 0.71517 0.06473 0.0
C4593 C 0.55575 0.70802 0.06772 0.0
C4594 C 0.54995 0.72591 0.06456 0.0
C4595 C 0.55983 0.72977 0.06732 0.0
C4596 C 0.56756 0.72272 0.07066 0.0
H4597 H 0.57083 0.79769 0.07262 0.0
H4598 H 0.57049 0.77893 0.07649 0.0
C4599 C 0.56554 0.71194 0.07087 0.0
C4600 C 0.56201 0.74116 0.06635 0.0
H4601 H 0.5759 0.759 0.05209 0.0
C4602 C 0.556 0.74821 0.07223 0.0
C4603 C 0.56934 0.7451 0.05904 0.0
C4604 C 0.57576 0.73791 0.05224 0.0
C4605 C 0.55698 0.75908 0.07089 0.0
C4606 C 0.56424 0.76301 0.06353 0.0
C4607 C 0.57038 0.75597 0.05778 0.0
C4608 C 0.56503 0.77437 0.06115 0.0
C4609 C 0.54993 0.76625 0.07706 0.0
C4610 C 0.56237 0.77802 0.05115 0.0
C4611 C 0.56258 0.78872 0.0489 0.0
C4612 C 0.56552 0.79603 0.05658 0.0
C4613 C 0.56847 0.79231 0.06652 0.0
C4614 C 0.56823 0.78159 0.06877 0.0
H4615 H 0.5434 0.76195 0.08084 0.0
H4616 H 0.55455 0.77014 0.08329 0.0
H4617 H 0.5466 0.77242 0.07195 0.0
H4618 H 0.55991 0.77259 0.04513 0.0
H4619 H 0.5603 0.79125 0.04114 0.0
H4620 H 0.29094 0.54 0.07085 0.0
H4621 H 0.27217 0.54335 0.06955 0.0
H4622 H 0.27833 0.57603 0.06394 0.0
H4623 H 0.29712 0.57279 0.06573 0.0
H4624 H 0.26152 0.5741 0.07569 0.0
H4625 H 0.2576 0.54691 0.04231 0.0
H4626 H 0.26249 0.54039 0.05371 0.0
H4627 H 0.27014 0.55053 0.04761 0.0
C4628 C 0.28829 0.54791 0.06941 0.0
C4629 C 0.29553 0.55611 0.06827 0.0
C4630 C 0.27755 0.54981 0.06859 0.0
C4631 C 0.27381 0.55988 0.0663 0.0
C4632 C 0.281 0.56816 0.06561 0.0
H4633 H 0.21184 0.56785 0.03937 0.0
H4634 H 0.23066 0.56771 0.04264 0.0
C4635 C 0.29175 0.56631 0.06664 0.0
C4636 C 0.26245 0.5617 0.06433 0.0
H4637 H 0.24176 0.55294 0.04992 0.0
C4638 C 0.25721 0.56952 0.07 0.0
C4639 C 0.25683 0.55591 0.05675 0.0
C4640 C 0.26208 0.54805 0.04967 0.0
C4641 C 0.2465 0.57155 0.06845 0.0
C4642 C 0.24076 0.56535 0.06127 0.0
C4643 C 0.24607 0.55766 0.0555 0.0
C4644 C 0.22929 0.56665 0.05949 0.0
C4645 C 0.24155 0.58049 0.07434 0.0
C4646 C 0.22215 0.56629 0.06785 0.0
C4647 C 0.21136 0.56663 0.06599 0.0
C4648 C 0.20746 0.56702 0.05572 0.0
C4649 C 0.21459 0.56751 0.04738 0.0
C4650 C 0.22537 0.56741 0.04924 0.0
H4651 H 0.24745 0.58647 0.07656 0.0
H4652 H 0.23534 0.58435 0.06966 0.0
H4653 H 0.23802 0.57747 0.08167 0.0
H4654 H 0.2249 0.56538 0.0758 0.0
H4655 H 0.20606 0.5661 0.07258 0.0
H4656 H 0.432 0.20666 0.07196 0.0
H4657 H 0.43196 0.22545 0.07572 0.0
H4658 H 0.44384 0.23171 0.04481 0.0
H4659 H 0.44383 0.21304 0.04094 0.0
H4660 H 0.44909 0.23901 0.0756 0.0
H4661 H 0.41922 0.25201 0.04711 0.0
H4662 H 0.42074 0.23849 0.05089 0.0
H4663 H 0.42929 0.24416 0.04127 0.0
C4664 C 0.43449 0.21204 0.06591 0.0
C4665 C 0.4379 0.20829 0.05613 0.0
C4666 C 0.43448 0.22278 0.06809 0.0
C4667 C 0.43776 0.23 0.0605 0.0
C4668 C 0.44108 0.22631 0.05072 0.0
H4669 H 0.4636 0.29159 0.06453 0.0
H4670 H 0.46002 0.27287 0.06391 0.0
C4671 C 0.44113 0.2156 0.04855 0.0
C4672 C 0.43828 0.24137 0.06292 0.0
H4673 H 0.43038 0.26532 0.05412 0.0
C4674 C 0.44491 0.24476 0.07099 0.0
C4675 C 0.4327 0.24888 0.05701 0.0
C4676 C 0.425 0.24571 0.04865 0.0
C4677 C 0.44647 0.25545 0.07298 0.0
C4678 C 0.44138 0.26297 0.06665 0.0
C4679 C 0.43438 0.25957 0.0589 0.0
C4680 C 0.44358 0.27435 0.06759 0.0
C4681 C 0.4536 0.25862 0.08183 0.0
C4682 C 0.4355 0.28146 0.06973 0.0
C4683 C 0.43751 0.29223 0.07006 0.0
C4684 C 0.44764 0.29611 0.06813 0.0
C4685 C 0.45572 0.28892 0.06607 0.0
C4686 C 0.4537 0.27818 0.06578 0.0
H4687 H 0.45435 0.25229 0.08773 0.0
H4688 H 0.46151 0.26025 0.07866 0.0
H4689 H 0.45071 0.2658 0.08577 0.0
H4690 H 0.42761 0.27869 0.07108 0.0
H4691 H 0.43109 0.29751 0.07164 0.0
H4692 H 0.20422 0.43578 0.93048 0.0
H4693 H 0.22291 0.43639 0.92657 0.0
H4694 H 0.22989 0.43437 0.95952 0.0
H4695 H 0.21119 0.43431 0.96348 0.0
H4696 H 0.24082 0.44898 0.95161 0.0
H4697 H 0.24525 0.41505 0.92524 0.0
H4698 H 0.23567 0.42405 0.92038 0.0
H4699 H 0.23343 0.41736 0.93258 0.0
C4700 C 0.20975 0.43531 0.93688 0.0
C4701 C 0.20622 0.43501 0.9473 0.0
C4702 C 0.22046 0.43558 0.93463 0.0
C4703 C 0.2279 0.43525 0.94272 0.0
C4704 C 0.22435 0.43463 0.95311 0.0
H4705 H 0.2956 0.4291 0.93528 0.0
H4706 H 0.2768 0.42564 0.93683 0.0
C4707 C 0.21365 0.43459 0.95538 0.0
C4708 C 0.2393 0.43642 0.94048 0.0
H4709 H 0.25943 0.42734 0.92537 0.0
C4710 C 0.24487 0.44416 0.94592 0.0
C4711 C 0.24471 0.43009 0.93316 0.0
C4712 C 0.23947 0.4211 0.9276 0.0
C4713 C 0.25558 0.44583 0.94421 0.0
C4714 C 0.26086 0.43991 0.93647 0.0
C4715 C 0.25536 0.43203 0.93114 0.0
C4716 C 0.27212 0.44167 0.93406 0.0
C4717 C 0.26115 0.45377 0.95095 0.0
C4718 C 0.27575 0.45171 0.93144 0.0
C4719 C 0.28647 0.45373 0.93074 0.0
C4720 C 0.29379 0.44568 0.9323 0.0
C4721 C 0.29014 0.43545 0.934 0.0
C4722 C 0.2794 0.43348 0.93493 0.0
H4723 H 0.25695 0.45511 0.95843 0.0
H4724 H 0.26925 0.45123 0.95278 0.0
H4725 H 0.26151 0.46134 0.94674 0.0
H4726 H 0.2703 0.45809 0.93035 0.0
H4727 H 0.28904 0.46166 0.92929 0.0
H4728 H 0.54062 0.29028 0.94155 0.0
H4729 H 0.54452 0.27162 0.94184 0.0
H4730 H 0.57611 0.27794 0.93196 0.0
H4731 H 0.57232 0.29673 0.93174 0.0
H4732 H 0.5517 0.25802 0.92607 0.0
H4733 H 0.5799 0.26088 0.95906 0.0
H4734 H 0.57113 0.27141 0.95568 0.0
H4735 H 0.58258 0.26902 0.94792 0.0
C4736 C 0.5484 0.28775 0.93941 0.0
C4737 C 0.55618 0.29507 0.93672 0.0
C4738 C 0.55061 0.27704 0.93955 0.0
C4739 C 0.56064 0.27338 0.93707 0.0
C4740 C 0.56836 0.2806 0.93408 0.0
H4741 H 0.57251 0.20556 0.931 0.0
H4742 H 0.57207 0.22436 0.92731 0.0
C4743 C 0.56615 0.29135 0.9339 0.0
C4744 C 0.56297 0.262 0.9379 0.0
H4745 H 0.57674 0.24411 0.9522 0.0
C4746 C 0.55725 0.25497 0.9317 0.0
C4747 C 0.57015 0.25804 0.94533 0.0
C4748 C 0.57626 0.26519 0.95245 0.0
C4749 C 0.55837 0.24409 0.93286 0.0
C4750 C 0.56548 0.24012 0.94035 0.0
C4751 C 0.57135 0.24716 0.94641 0.0
C4752 C 0.56634 0.22873 0.94261 0.0
C4753 C 0.55161 0.23693 0.92636 0.0
C4754 C 0.56357 0.22496 0.95253 0.0
C4755 C 0.56385 0.21424 0.95469 0.0
C4756 C 0.56697 0.20702 0.94698 0.0
C4757 C 0.57002 0.21086 0.93712 0.0
C4758 C 0.56972 0.22161 0.93497 0.0
H4759 H 0.54511 0.24121 0.9225 0.0
H4760 H 0.55645 0.23326 0.92018 0.0
H4761 H 0.54825 0.2306 0.93125 0.0
H4762 H 0.56097 0.2303 0.95857 0.0
H4763 H 0.56149 0.21163 0.96239 0.0
H4764 H 0.43577 0.79006 0.96305 0.0
H4765 H 0.43674 0.77132 0.95949 0.0
H4766 H 0.4391 0.77765 0.92645 0.0
H4767 H 0.43765 0.79644 0.92995 0.0
H4768 H 0.42755 0.76078 0.92951 0.0
H4769 H 0.46353 0.75683 0.95312 0.0
H4770 H 0.45289 0.76172 0.96079 0.0
H4771 H 0.4579 0.76937 0.95006 0.0
C4772 C 0.43641 0.78746 0.95502 0.0
C4773 C 0.43675 0.79475 0.94679 0.0
C4774 C 0.43705 0.77674 0.95299 0.0
C4775 C 0.43834 0.77305 0.94272 0.0
C4776 C 0.43821 0.78029 0.93445 0.0
H4777 H 0.46402 0.71086 0.93233 0.0
H4778 H 0.46092 0.72971 0.93266 0.0
C4779 C 0.43737 0.79103 0.93646 0.0
C4780 C 0.44011 0.7617 0.94068 0.0
H4781 H 0.45527 0.74097 0.94799 0.0
C4782 C 0.43366 0.75645 0.9335 0.0
C4783 C 0.44824 0.75606 0.94567 0.0
C4784 C 0.4561 0.76131 0.95274 0.0
C4785 C 0.43495 0.74572 0.93137 0.0
C4786 C 0.44269 0.73997 0.93682 0.0
C4787 C 0.44926 0.74529 0.94385 0.0
C4788 C 0.44425 0.72848 0.93543 0.0
C4789 C 0.42814 0.74077 0.9231 0.0
C4790 C 0.43593 0.7214 0.9367 0.0
C4791 C 0.43767 0.71059 0.93626 0.0
C4792 C 0.44782 0.70662 0.93486 0.0
C4793 C 0.45612 0.71368 0.93347 0.0
C4794 C 0.45434 0.72447 0.93367 0.0
H4795 H 0.42537 0.74666 0.91734 0.0
H4796 H 0.43237 0.73451 0.91883 0.0
H4797 H 0.42114 0.73731 0.92688 0.0
H4798 H 0.42813 0.72421 0.93839 0.0
H4799 H 0.43113 0.70535 0.9375 0.0
H4800 H 0.04944 0.20322 0.42805 0.0
H4801 H 0.03123 0.19931 0.42426 0.0
H4802 H 0.04065 0.17266 0.40588 0.0
H4803 H 0.05902 0.17629 0.41001 0.0
H4804 H 0.01941 0.19791 0.4073 0.0
H4805 H 0.02145 0.15884 0.42626 0.0
H4806 H 0.03205 0.16808 0.42699 0.0
H4807 H 0.03003 0.16053 0.4153 0.0
C4808 C 0.0477 0.19655 0.42313 0.0
C4809 C 0.05575 0.18999 0.41946 0.0
C4810 C 0.03724 0.19433 0.42094 0.0
C4811 C 0.0345 0.18556 0.41495 0.0
C4812 C 0.04252 0.17931 0.41077 0.0
H4813 H 0.96561 0.17821 0.4055 0.0
H4814 H 0.98418 0.18026 0.40075 0.0
C4815 C 0.05303 0.18143 0.41308 0.0
C4816 C 0.02323 0.18281 0.41368 0.0
H4817 H 0.00511 0.16429 0.42018 0.0
C4818 C 0.01628 0.19051 0.41 0.0
C4819 C 0.01912 0.17316 0.41724 0.0
C4820 C 0.02601 0.1647 0.42175 0.0
C4821 C 0.00537 0.18905 0.4103 0.0
C4822 C 1.00128 0.17951 0.41413 0.0
C4823 C 0.00825 0.17159 0.41722 0.0
C4824 C 0.98996 0.17809 0.41652 0.0
C4825 C 0.99833 0.19797 0.40713 0.0
C4826 C 0.98704 0.17596 0.42687 0.0
C4827 C 0.97657 0.17465 0.42953 0.0
C4828 C 0.96865 0.1755 0.42194 0.0
C4829 C 0.97152 0.17758 0.41153 0.0
C4830 C 0.98212 0.17881 0.40883 0.0
H4831 H 0.00272 0.2054 0.40615 0.0
H4832 H 0.99453 0.19607 0.39957 0.0
H4833 H 0.99209 0.1992 0.41304 0.0
H4834 H 0.99289 0.17539 0.43296 0.0
H4835 H 0.9747 0.17302 0.43762 0.0
H4836 H 0.82786 0.05858 0.40924 0.0
H4837 H 0.83119 0.04021 0.40497 0.0
H4838 H 0.80418 0.03115 0.423 0.0
H4839 H 0.80058 0.0494 0.42692 0.0
H4840 H 0.83635 0.02519 0.41712 0.0
H4841 H 0.79962 0.01292 0.39845 0.0
H4842 H 0.80265 0.02652 0.40072 0.0
H4843 H 0.79672 0.0187 0.41086 0.0
C4844 C 0.82253 0.05268 0.41215 0.0
C4845 C 0.81393 0.0555 0.4184 0.0
C4846 C 0.82444 0.04217 0.40969 0.0
C4847 C 0.81783 0.03423 0.41347 0.0
C4848 C 0.8092 0.03707 0.41965 0.0
H4849 H 0.83246 0.97511 0.43645 0.0
H4850 H 0.83015 0.99326 0.43159 0.0
C4851 C 0.80721 0.04756 0.42198 0.0
C4852 C 0.82047 0.02297 0.41192 0.0
H4853 H 0.80949 0.99905 0.40719 0.0
C4854 C 0.83052 0.01953 0.41472 0.0
C4855 C 0.81302 0.01549 0.40852 0.0
C4856 C 0.80245 0.01864 0.40435 0.0
C4857 C 0.83304 0.00885 0.41499 0.0
C4858 C 0.82522 1.00134 0.41274 0.0
C4859 C 0.81544 0.00477 0.40913 0.0
C4860 C 0.82667 0.99009 0.41534 0.0
C4861 C 0.84402 0.00572 0.41796 0.0
C4862 C 0.82509 0.98212 0.40791 0.0
C4863 C 0.82628 0.97155 0.41074 0.0
C4864 C 0.82898 0.96883 0.42105 0.0
C4865 C 0.83044 0.97687 0.42842 0.0
C4866 C 0.82921 0.98731 0.42563 0.0
H4867 H 0.84975 0.01177 0.4155 0.0
H4868 H 0.84455 0.00498 0.42659 0.0
H4869 H 0.84627 0.99814 0.41438 0.0
H4870 H 0.82299 0.98407 0.39995 0.0
H4871 H 0.82505 0.96553 0.40491 0.0
H4872 H 0.94897 0.83233 0.41594 0.0
H4873 H 0.96752 0.83453 0.4119 0.0
H4874 H 0.97107 0.80107 0.40971 0.0
H4875 H 0.95263 0.79882 0.41412 0.0
H4876 H 0.98464 0.80858 0.42273 0.0
H4877 H 0.98652 0.83299 0.38717 0.0
H4878 H 0.97851 0.83898 0.39698 0.0
H4879 H 0.9746 0.82667 0.39133 0.0
C4880 C 0.95363 0.82545 0.41431 0.0
C4881 C 0.94933 0.8154 0.41542 0.0
C4882 C 0.96426 0.82672 0.41194 0.0
C4883 C 0.97074 0.81797 0.4104 0.0
C4884 C 0.96627 0.80795 0.41086 0.0
H4885 H 0.04006 0.82074 0.40475 0.0
H4886 H 0.02173 0.81712 0.39989 0.0
C4887 C 0.95571 0.80667 0.41338 0.0
C4888 C 0.98232 0.81916 0.4098 0.0
H4889 H 0.00202 0.83304 0.39816 0.0
C4890 C 0.98842 0.81376 0.41718 0.0
C4891 C 0.98736 0.82587 0.40256 0.0
C4892 C 0.9814 0.83136 0.39399 0.0
C4893 C 0.99925 0.81528 0.41786 0.0
C4894 C 0.00415 0.82251 0.4111 0.0
C4895 C 0.99822 0.82754 0.40337 0.0
C4896 C 0.01514 0.8257 0.4129 0.0
C4897 C 0.00537 0.80945 0.42609 0.0
C4898 C 0.01743 0.83191 0.42161 0.0
C4899 C 0.02776 0.83392 0.42439 0.0
C4900 C 0.03608 0.82981 0.41849 0.0
C4901 C 0.03381 0.82402 0.40941 0.0
C4902 C 0.02337 0.82196 0.40664 0.0
H4903 H 1.00099 0.80258 0.42911 0.0
H4904 H 0.01299 0.80675 0.42293 0.0
H4905 H 0.00698 0.81477 0.43276 0.0
H4906 H 0.01119 0.8349 0.4265 0.0
H4907 H 0.02924 0.83848 0.43137 0.0
H4908 H 0.20305 0.95515 0.4281 0.0
H4909 H 0.19923 0.97335 0.42426 0.0
H4910 H 0.17297 0.96398 0.4053 0.0
H4911 H 0.17652 0.9456 0.40946 0.0
H4912 H 0.19812 0.9852 0.40717 0.0
H4913 H 0.15882 0.98312 0.42567 0.0
H4914 H 0.16809 0.97255 0.42654 0.0
H4915 H 0.1607 0.97453 0.41474 0.0
C4916 C 0.19649 0.95688 0.42305 0.0
C4917 C 0.19001 0.94884 0.41922 0.0
C4918 C 0.19433 0.96736 0.42083 0.0
C4919 C 0.18568 0.97011 0.41466 0.0
C4920 C 0.17952 0.96209 0.41032 0.0
H4921 H 0.1786 0.03896 0.40508 0.0
H4922 H 0.18053 0.02036 0.40041 0.0
C4923 C 0.18161 0.95157 0.41264 0.0
C4924 C 0.18295 0.98138 0.41338 0.0
H4925 H 0.16438 0.9995 0.41976 0.0
C4926 C 0.19069 0.98833 0.4098 0.0
C4927 C 0.17327 0.98549 0.41686 0.0
C4928 C 0.16476 0.97858 0.42125 0.0
C4929 C 0.18923 0.99923 0.41011 0.0
C4930 C 0.17966 0.00333 0.41385 0.0
C4931 C 0.17171 0.99636 0.41686 0.0
C4932 C 0.17821 0.01465 0.41619 0.0
C4933 C 0.19819 0.00627 0.40705 0.0
C4934 C 0.17601 0.01764 0.42651 0.0
C4935 C 0.17477 0.02813 0.42912 0.0
C4936 C 0.17576 0.03601 0.42151 0.0
C4937 C 0.17786 0.03308 0.41112 0.0
C4938 C 0.17903 0.02246 0.40847 0.0
H4939 H 0.20564 0.00189 0.40617 0.0
H4940 H 0.19639 0.01006 0.39946 0.0
H4941 H 0.19935 0.01252 0.41296 0.0
H4942 H 0.17536 0.01181 0.43262 0.0
H4943 H 0.17311 0.03005 0.4372 0.0
H4944 H 0.96319 0.82655 0.59884 0.0
H4945 H 0.98167 0.82544 0.60423 0.0
H4946 H 0.9912 0.8294 0.57214 0.0
H4947 H 0.97308 0.83081 0.56682 0.0
H4948 H 0.99694 0.81179 0.59907 0.0
H4949 H 0.00924 0.85087 0.586 0.0
H4950 H 0.99563 0.84731 0.58721 0.0
H4951 H 0.00282 0.84426 0.57546 0.0
C4952 C 0.96926 0.82728 0.59298 0.0
C4953 C 0.96665 0.82884 0.58241 0.0
C4954 C 0.9798 0.82664 0.59606 0.0
C4955 C 0.98786 0.82762 0.58863 0.0
C4956 C 0.98519 0.82898 0.57808 0.0
H4957 H 0.04661 0.80095 0.57969 0.0
H4958 H 0.02861 0.80489 0.58408 0.0
C4959 C 0.97476 0.82968 0.57504 0.0
C4960 C 0.9991 0.8267 0.59154 0.0
H4961 H 0.02287 0.83753 0.58609 0.0
C4962 C 0.0026 0.81752 0.59645 0.0
C4963 C 0.00654 0.83429 0.58845 0.0
C4964 C 0.00333 0.84478 0.58411 0.0
C4965 C 0.01334 0.81536 0.5975 0.0
C4966 C 0.02077 0.8224 0.59323 0.0
C4967 C 0.01725 0.83198 0.58918 0.0
C4968 C 0.03201 0.81956 0.59181 0.0
C4969 C 0.01656 0.80544 0.60301 0.0
C4970 C 0.04007 0.82655 0.59451 0.0
C4971 C 0.05048 0.82441 0.59178 0.0
C4972 C 0.05306 0.81523 0.58628 0.0
C4973 C 0.045 0.80809 0.58396 0.0
C4974 C 0.03464 0.81027 0.58659 0.0
H4975 H 0.01093 0.80346 0.60931 0.0
H4976 H 0.01652 0.79888 0.59733 0.0
H4977 H 0.02449 0.80611 0.60647 0.0
H4978 H 0.03826 0.83382 0.59847 0.0
H4979 H 0.05645 0.83011 0.59368 0.0
H4980 H 0.17331 0.05754 0.59272 0.0
H4981 H 0.16988 0.03931 0.59756 0.0
H4982 H 0.19808 0.02981 0.58172 0.0
H4983 H 0.20174 0.04785 0.57721 0.0
H4984 H 0.16571 0.02387 0.58522 0.0
H4985 H 0.20084 0.01229 0.60708 0.0
H4986 H 0.1979 0.02582 0.60433 0.0
H4987 H 0.20478 0.01791 0.59488 0.0
C4988 C 0.1789 0.05159 0.59048 0.0
C4989 C 0.18781 0.05422 0.58456 0.0
C4990 C 0.17693 0.04115 0.59325 0.0
C4991 C 0.18381 0.03314 0.59019 0.0
C4992 C 0.19281 0.03581 0.5845 0.0
H4993 H 0.1719 0.97374 0.56644 0.0
H4994 H 0.17357 0.99196 0.57137 0.0
C4995 C 0.19483 0.0462 0.58182 0.0
C4996 C 0.18111 0.0219 0.59178 0.0
H4997 H 0.19205 0.99818 0.59748 0.0
C4998 C 0.1714 0.0183 0.58814 0.0
C4999 C 0.18836 0.01455 0.59583 0.0
C5000 C 0.19849 0.01788 0.60086 0.0
C5001 C 0.1691 0.00757 0.58764 0.0
C5002 C 0.17684 1.0002 0.59054 0.0
C5003 C 0.1862 0.0038 0.59502 0.0
C5004 C 0.17583 0.98892 0.58786 0.0
C5005 C 0.15848 0.00426 0.58372 0.0
C5006 C 0.17698 0.981 0.59542 0.0
C5007 C 0.17618 0.97041 0.59257 0.0
C5008 C 0.17428 0.96761 0.5821 0.0
C5009 C 0.17329 0.97558 0.57459 0.0
C5010 C 0.17414 0.98606 0.57741 0.0
H5011 H 0.15245 0.0102 0.58568 0.0
H5012 H 0.15872 0.00355 0.57507 0.0
H5013 H 0.15607 0.99663 0.58707 0.0
H5014 H 0.17842 0.98302 0.60352 0.0
H5015 H 0.17703 0.96445 0.59852 0.0
H5016 H 0.02912 0.17128 0.56587 0.0
H5017 H 0.011 0.17367 0.57076 0.0
H5018 H 0.02037 0.1822 0.60202 0.0
H5019 H 0.03887 0.1801 0.597 0.0
H5020 H 0.99937 0.16374 0.58517 0.0
H5021 H 1.00117 0.20631 0.59408 0.0
H5022 H 0.01173 0.19956 0.58761 0.0
H5023 H 0.00974 0.19792 0.60141 0.0
C5024 C 0.02742 0.17371 0.5738 0.0
C5025 C 0.03549 0.17558 0.58103 0.0
C5026 C 0.01699 0.17503 0.5766 0.0
C5027 C 0.01426 0.17819 0.58673 0.0
C5028 C 0.02227 0.17992 0.59409 0.0
H5029 H 0.94535 0.17634 0.59453 0.0
H5030 H 0.96382 0.17339 0.59872 0.0
C5031 C 0.03283 0.17866 0.59125 0.0
C5032 C 0.00298 0.17967 0.58921 0.0
H5033 H 0.9846 0.1985 0.59382 0.0
C5034 C 0.99613 0.1713 0.58723 0.0
C5035 C 0.99876 0.18954 0.59185 0.0
C5036 C 0.00568 0.19889 0.5938 0.0
C5037 C 0.98523 0.17268 0.58713 0.0
C5038 C 0.981 0.18265 0.58944 0.0
C5039 C 0.98783 0.19086 0.59206 0.0
C5040 C 0.96968 0.18504 0.58793 0.0
C5041 C 0.97844 0.16361 0.58381 0.0
C5042 C 0.96675 0.19291 0.58086 0.0
C5043 C 0.95622 0.19475 0.5786 0.0
C5044 C 0.94831 0.18871 0.58331 0.0
C5045 C 0.95123 0.18105 0.59066 0.0
C5046 C 0.9618 0.17931 0.59302 0.0
H5047 H 0.98306 0.15728 0.58007 0.0
H5048 H 0.97452 0.16026 0.59078 0.0
H5049 H 0.97232 0.1662 0.57822 0.0
H5050 H 0.97264 0.19746 0.57682 0.0
H5051 H 0.95432 0.20072 0.57291 0.0
H5052 H 0.83769 0.0281 0.57021 0.0
H5053 H 0.83369 0.01008 0.57485 0.0
H5054 H 0.81564 0.02071 0.60123 0.0
H5055 H 0.81967 0.03902 0.59661 0.0
H5056 H 0.83095 1.00088 0.60332 0.0
H5057 H 0.80153 1.00021 0.57138 0.0
H5058 H 0.81394 0.00592 0.56805 0.0
H5059 H 0.80575 0.01217 0.57759 0.0
C5060 C 0.83297 0.02665 0.57709 0.0
C5061 C 0.82891 0.03499 0.58299 0.0
C5062 C 0.83072 0.01633 0.57974 0.0
C5063 C 0.82431 0.01408 0.58832 0.0
C5064 C 0.82061 0.02232 0.59458 0.0
H5065 H 0.79626 0.95201 0.58703 0.0
H5066 H 0.7988 0.9705 0.59101 0.0
C5067 C 0.82292 0.03275 0.59194 0.0
C5068 C 0.82092 0.00312 0.59001 0.0
H5069 H 0.80705 0.98378 0.57801 0.0
C5070 C 0.82558 0.99714 0.59793 0.0
C5071 C 0.81385 0.99831 0.58302 0.0
C5072 C 0.80839 0.00447 0.57456 0.0
C5073 C 0.82368 0.98632 0.59874 0.0
C5074 C 0.81713 0.98136 0.5913 0.0
C5075 C 0.81211 0.98751 0.5837 0.0
C5076 C 0.8157 0.96979 0.59078 0.0
C5077 C 0.82877 0.98032 0.60752 0.0
C5078 C 0.82435 0.9631 0.58959 0.0
C5079 C 0.82291 0.95245 0.58743 0.0
C5080 C 0.81279 0.94832 0.5862 0.0
C5081 C 0.80416 0.95494 0.58785 0.0
C5082 C 0.8056 0.96553 0.59014 0.0
H5083 H 0.83033 0.98546 0.61435 0.0
H5084 H 0.82383 0.97366 0.6101 0.0
H5085 H 0.83639 0.9772 0.60479 0.0
H5086 H 0.83222 0.9662 0.58977 0.0
H5087 H 0.82973 0.94761 0.58612 0.0
H5088 H 0.42785 0.04831 0.20107 0.0
H5089 H 0.42336 0.03025 0.19733 0.0
H5090 H 0.40426 0.04021 0.17139 0.0
H5091 H 0.40909 0.05845 0.17483 0.0
H5092 H 0.40605 0.01884 0.19647 0.0
H5093 H 0.42384 0.02066 0.15682 0.0
H5094 H 0.42511 0.03118 0.16608 0.0
H5095 H 0.41311 0.02944 0.15896 0.0
C5096 C 0.42262 0.04674 0.19459 0.0
C5097 C 0.41897 0.05489 0.18815 0.0
C5098 C 0.42003 0.03635 0.19248 0.0
C5099 C 0.41364 0.0338 0.18394 0.0
C5100 C 0.40944 0.04194 0.17785 0.0
H5101 H 0.40384 0.96492 0.17709 0.0
H5102 H 0.39901 0.98348 0.17906 0.0
C5103 C 0.41216 0.05238 0.17988 0.0
C5104 C 0.41206 0.02257 0.1812 0.0
H5105 H 0.41795 0.00437 0.16256 0.0
C5106 C 0.40852 0.01568 0.189 0.0
C5107 C 0.4153 0.01842 0.17145 0.0
C5108 C 0.41963 0.02527 0.16286 0.0
C5109 C 0.40872 0.00477 0.18757 0.0
C5110 C 0.4123 1.00063 0.17795 0.0
C5111 C 0.41519 0.00755 0.16992 0.0
C5112 C 0.41471 0.98932 0.17656 0.0
C5113 C 0.40576 0.99777 0.1966 0.0
C5114 C 0.42504 0.98644 0.17428 0.0
C5115 C 0.42774 0.97597 0.17302 0.0
C5116 C 0.42021 0.96803 0.17407 0.0
C5117 C 0.40982 0.97086 0.1763 0.0
C5118 C 0.40707 0.98145 0.17748 0.0
H5119 H 0.40489 0.00219 0.20402 0.0
H5120 H 0.3982 0.9939 0.19486 0.0
H5121 H 0.41174 0.99158 0.19775 0.0
H5122 H 0.43109 0.99232 0.17355 0.0
H5123 H 0.43581 0.97413 0.17126 0.0
H5124 H 0.0382 0.40789 0.18513 0.0
H5125 H 0.01965 0.40383 0.1886 0.0
H5126 H 0.01037 0.42955 0.16889 0.0
H5127 H 0.02862 0.43365 0.16551 0.0
H5128 H 0.00233 0.43009 0.18968 0.0
H5129 H 0.99517 0.39203 0.16979 0.0
H5130 H 0.00657 0.3932 0.17799 0.0
H5131 H 0.00581 0.40056 0.1661 0.0
C5132 C 0.03217 0.4125 0.18138 0.0
C5133 C 0.03485 0.42113 0.17511 0.0
C5134 C 0.02159 0.41019 0.18336 0.0
C5135 C 0.01363 0.4164 0.17899 0.0
C5136 C 0.01636 0.42467 0.17235 0.0
H5137 H 0.94662 0.41705 0.17369 0.0
H5138 H 0.96546 0.41465 0.17116 0.0
C5139 C 0.02682 0.427 0.17044 0.0
C5140 C 0.00247 0.41514 0.18197 0.0
H5141 H 0.98081 0.39989 0.17833 0.0
C5142 C 0.99765 0.42343 0.18731 0.0
C5143 C 0.99637 0.40651 0.17876 0.0
C5144 C 1.00116 0.39755 0.17279 0.0
C5145 C 0.98686 0.42346 0.18931 0.0
C5146 C 0.98071 0.41484 0.18607 0.0
C5147 C 0.98555 0.40645 0.18087 0.0
C5148 C 0.96919 0.41476 0.18766 0.0
C5149 C 0.9821 0.43293 0.1945 0.0
C5150 C 0.96497 0.41524 0.19777 0.0
C5151 C 0.95423 0.4167 0.19925 0.0
C5152 C 0.94744 0.41759 0.19063 0.0
C5153 C 0.95161 0.41644 0.18051 0.0
C5154 C 0.96238 0.41505 0.17904 0.0
H5155 H 0.98742 0.43979 0.19427 0.0
H5156 H 0.97461 0.43512 0.19068 0.0
H5157 H 0.98045 0.43111 0.20282 0.0
H5158 H 0.97004 0.41484 0.20454 0.0
H5159 H 0.9513 0.4174 0.20716 0.0
H5160 H 0.5826 0.95333 0.20604 0.0
H5161 H 0.58515 0.97202 0.20301 0.0
H5162 H 0.58556 0.96666 0.16974 0.0
H5163 H 0.58334 0.94787 0.17271 0.0
H5164 H 0.5995 0.98216 0.17562 0.0
H5165 H 0.56049 0.98922 0.19327 0.0
H5166 H 0.56949 0.98283 0.20191 0.0
H5167 H 0.56516 0.97628 0.19023 0.0
C5168 C 0.58338 0.9561 0.19807 0.0
C5169 C 0.58262 0.94911 0.18961 0.0
C5170 C 0.5848 0.9668 0.19635 0.0
C5171 C 0.58526 0.9708 0.18614 0.0
C5172 C 0.58515 0.96378 0.17769 0.0
H5173 H 0.56521 0.03141 0.16641 0.0
H5174 H 0.56847 0.01293 0.16952 0.0
C5175 C 0.58388 0.95303 0.1794 0.0
C5176 C 0.58506 0.98229 0.18426 0.0
H5177 H 0.57021 0.00409 0.18846 0.0
C5178 C 0.59311 0.98698 0.17844 0.0
C5179 C 0.57665 0.98856 0.18783 0.0
C5180 C 0.56741 0.98397 0.19357 0.0
C5181 C 0.59297 0.99774 0.17607 0.0
C5182 C 0.58462 0.004 0.17977 0.0
C5183 C 0.57665 0.99931 0.18568 0.0
C5184 C 0.58345 0.01526 0.17702 0.0
C5185 C 0.60154 0.00225 0.16935 0.0
C5186 C 0.59088 0.0228 0.18003 0.0
C5187 C 0.58906 0.03348 0.17815 0.0
C5188 C 0.57972 0.03675 0.17338 0.0
C5189 C 0.57246 0.02916 0.17016 0.0
C5190 C 0.57431 0.01857 0.17194 0.0
H5191 H 0.60603 0.99605 0.16524 0.0
H5192 H 0.59828 0.00772 0.16345 0.0
H5193 H 0.60705 0.00669 0.17436 0.0
H5194 H 0.59791 0.02048 0.18413 0.0
H5195 H 0.59476 0.03917 0.18078 0.0
H5196 H 0.05523 0.58683 0.17285 0.0
H5197 H 0.0365 0.58965 0.17024 0.0
H5198 H 0.03181 0.5898 0.20362 0.0
H5199 H 0.05045 0.58673 0.20629 0.0
H5200 H 0.01896 0.57652 0.19455 0.0
H5201 H 0.01668 0.61394 0.17302 0.0
H5202 H 0.02532 0.60481 0.16679 0.0
H5203 H 0.02843 0.60972 0.17962 0.0
C5204 C 0.05026 0.58767 0.17964 0.0
C5205 C 0.05437 0.58648 0.18978 0.0
C5206 C 0.03953 0.58936 0.17814 0.0
C5207 C 0.03271 0.59007 0.18673 0.0
C5208 C 0.03689 0.58932 0.19686 0.0
H5209 H 0.96357 0.59606 0.18299 0.0
H5210 H 0.98198 0.60042 0.18687 0.0
C5211 C 0.04757 0.58754 0.19837 0.0
C5212 C 0.02115 0.59036 0.1852 0.0
H5213 H 1.00141 0.60286 0.17212 0.0
C5214 C 0.01514 0.5824 0.18979 0.0
C5215 C 0.01607 0.59806 0.17905 0.0
C5216 C 0.02195 0.60718 0.17443 0.0
C5217 C 0.00433 0.58166 0.18804 0.0
C5218 C 0.99938 0.58898 0.1814 0.0
C5219 C 0.00525 0.59722 0.17716 0.0
C5220 C 0.98836 0.58745 0.17809 0.0
C5221 C 0.99831 0.57287 0.19311 0.0
C5222 C 0.98593 0.57895 0.17164 0.0
C5223 C 0.97555 0.57646 0.16947 0.0
C5224 C 0.96733 0.58244 0.17364 0.0
C5225 C 0.96975 0.59133 0.17965 0.0
C5226 C 0.98023 0.59381 0.18187 0.0
H5227 H 0.0026 0.56951 0.19987 0.0
H5228 H 0.99053 0.5756 0.19581 0.0
H5229 H 0.99707 0.56655 0.1873 0.0
H5230 H 0.99208 0.574 0.16856 0.0
H5231 H 0.97396 0.56961 0.16473 0.0
H5232 H 0.41656 0.9483 0.83253 0.0
H5233 H 0.41277 0.96683 0.83564 0.0
H5234 H 0.41496 0.97292 0.80258 0.0
H5235 H 0.41882 0.95447 0.79939 0.0
H5236 H 0.42805 0.98277 0.82854 0.0
H5237 H 0.38809 0.98932 0.81274 0.0
H5238 H 0.39257 0.97663 0.81709 0.0
H5239 H 0.39691 0.98176 0.80478 0.0
C5240 C 0.416 0.95352 0.82589 0.0
C5241 C 0.41805 0.94989 0.81571 0.0
C5242 C 0.41385 0.96412 0.82769 0.0
C5243 C 0.41351 0.97123 0.81933 0.0
C5244 C 0.41504 0.96754 0.80912 0.0
H5245 H 0.41409 0.03873 0.81218 0.0
H5246 H 0.41096 0.01989 0.80986 0.0
C5247 C 0.41731 0.95699 0.80733 0.0
C5248 C 0.41286 0.98264 0.82136 0.0
H5249 H 0.39787 0.00441 0.81735 0.0
C5250 C 0.42141 0.98749 0.8262 0.0
C5251 C 0.40427 0.98879 0.81811 0.0
C5252 C 0.39488 0.9839 0.81294 0.0
C5253 C 0.42172 0.99835 0.82771 0.0
C5254 C 0.41304 0.00454 0.82464 0.0
C5255 C 0.40446 0.99968 0.81979 0.0
C5256 C 0.41296 0.01608 0.82623 0.0
C5257 C 0.43154 0.00311 0.83222 0.0
C5258 C 0.41456 0.02027 0.83626 0.0
C5259 C 0.41648 0.03095 0.83754 0.0
C5260 C 0.41645 0.03768 0.82889 0.0
C5261 C 0.41395 0.03369 0.81898 0.0
C5262 C 0.41223 0.02293 0.81766 0.0
H5263 H 0.43839 0.99785 0.83127 0.0
H5264 H 0.43338 0.01071 0.82844 0.0
H5265 H 0.43042 0.00447 0.84071 0.0
H5266 H 0.41489 0.0152 0.84303 0.0
H5267 H 0.4185 0.03387 0.84523 0.0
H5268 H 0.04716 0.4283 0.80199 0.0
H5269 H 0.02913 0.42358 0.80559 0.0
H5270 H 0.03935 0.40241 0.82977 0.0
H5271 H 0.05756 0.40747 0.8265 0.0
H5272 H 0.01775 0.40631 0.80506 0.0
H5273 H 0.01986 0.42046 0.84614 0.0
H5274 H 0.03034 0.42255 0.83697 0.0
H5275 H 0.02858 0.40995 0.84297 0.0
C5276 C 0.04565 0.42258 0.80805 0.0
C5277 C 0.05387 0.41839 0.81405 0.0
C5278 C 0.03528 0.41985 0.81007 0.0
C5279 C 0.0328 0.41278 0.81809 0.0
C5280 C 0.04101 0.40811 0.82373 0.0
H5281 H 0.96361 0.40398 0.82395 0.0
H5282 H 0.98201 0.39857 0.82188 0.0
C5283 C 0.05143 0.41096 0.8218 0.0
C5284 C 0.02159 0.41095 0.82077 0.0
H5285 H 0.0035 0.41533 0.83993 0.0
C5286 C 0.01463 0.40814 0.81273 0.0
C5287 C 0.01751 0.41332 0.83079 0.0
C5288 C 0.02442 0.41682 0.83971 0.0
C5289 C 0.00373 0.40832 0.81421 0.0
C5290 C 0.99966 0.41111 0.82411 0.0
C5291 C 0.00663 0.41317 0.83235 0.0
C5292 C 0.98842 0.41378 0.82567 0.0
C5293 C 0.99667 0.40624 0.80499 0.0
C5294 C 0.9859 0.424 0.82873 0.0
C5295 C 0.97554 0.42701 0.83005 0.0
C5296 C 0.96731 0.41993 0.82827 0.0
C5297 C 0.96976 0.40962 0.82532 0.0
C5298 C 0.98027 0.40655 0.82407 0.0
H5299 H 1.00108 0.40578 0.79752 0.0
H5300 H 0.99257 0.39869 0.80617 0.0
H5301 H 0.99067 0.41247 0.80428 0.0
H5302 H 0.992 0.42974 0.82999 0.0
H5303 H 0.974 0.435 0.83238 0.0
H5304 H 0.58782 0.04974 0.79653 0.0
H5305 H 0.59038 0.03104 0.79943 0.0
H5306 H 0.58884 0.0359 0.83274 0.0
H5307 H 0.58647 0.0547 0.82993 0.0
H5308 H 0.60377 0.0205 0.82671 0.0
H5309 H 0.56499 0.01373 0.80833 0.0
H5310 H 0.5742 0.02053 0.80021 0.0
H5311 H 0.56947 0.02658 0.81198 0.0
C5312 C 0.58816 0.04688 0.80449 0.0
C5313 C 0.58677 0.05373 0.813 0.0
C5314 C 0.58961 0.03616 0.80613 0.0
C5315 C 0.58958 0.03203 0.8163 0.0
C5316 C 0.58885 0.03891 0.82483 0.0
H5317 H 0.5692 0.97249 0.83727 0.0
H5318 H 0.57324 0.99077 0.83396 0.0
C5319 C 0.58748 0.04966 0.8232 0.0
C5320 C 0.58938 0.02052 0.81799 0.0
H5321 H 0.5744 0.99885 0.81359 0.0
C5322 C 0.59739 0.01574 0.8238 0.0
C5323 C 0.58099 0.01433 0.81427 0.0
C5324 C 0.57187 0.01903 0.80843 0.0
C5325 C 0.59718 0.00495 0.82604 0.0
C5326 C 0.58879 0.9988 0.8223 0.0
C5327 C 0.58088 0.00356 0.81637 0.0
C5328 C 0.58737 0.98764 0.82524 0.0
C5329 C 0.60571 1.00025 0.83268 0.0
C5330 C 0.59413 0.97974 0.82163 0.0
C5331 C 0.59185 0.96915 0.82357 0.0
C5332 C 0.58273 0.96638 0.82905 0.0
C5333 C 0.57625 0.97435 0.83295 0.0
C5334 C 0.57854 0.98483 0.83108 0.0
H5335 H 0.61082 0.00632 0.83622 0.0
H5336 H 0.60228 0.99541 0.83902 0.0
H5337 H 0.61063 0.99506 0.82777 0.0
H5338 H 0.60093 0.98173 0.81699 0.0
H5339 H 0.59694 0.96317 0.82042 0.0
H5340 H 0.02852 0.57339 0.83847 0.0
H5341 H 0.01054 0.57828 0.83455 0.0
H5342 H 0.02147 0.60169 0.81292 0.0
H5343 H 0.03973 0.59683 0.8169 0.0
H5344 H 1.00118 0.60444 0.83122 0.0
H5345 H 1.00083 0.57366 0.80041 0.0
H5346 H 0.008 0.57114 0.81229 0.0
H5347 H 0.01245 0.58108 0.80347 0.0
C5348 C 0.02715 0.57971 0.833 0.0
C5349 C 0.03554 0.58469 0.82794 0.0
C5350 C 0.01685 0.58251 0.8308 0.0
C5351 C 0.01469 0.59032 0.82346 0.0
C5352 C 0.02302 0.59567 0.81867 0.0
H5353 H 0.95224 0.589 0.79614 0.0
H5354 H 0.97069 0.59325 0.79861 0.0
C5355 C 0.03342 0.5929 0.82095 0.0
C5356 C 0.0037 0.59198 0.82021 0.0
H5357 H 0.98454 0.58036 0.80578 0.0
C5358 C 0.99753 0.59934 0.82551 0.0
C5359 C 0.999 0.58533 0.81276 0.0
C5360 C 0.00537 0.57736 0.80683 0.0
C5361 C 0.98667 0.59997 0.82378 0.0
C5362 C 0.98185 0.59286 0.81678 0.0
C5363 C 0.98816 0.58581 0.81117 0.0
C5364 C 0.97027 0.59208 0.81549 0.0
C5365 C 0.98051 0.60822 0.82952 0.0
C5366 C 0.96375 0.59025 0.82415 0.0
C5367 C 0.95312 0.58797 0.82276 0.0
C5368 C 0.94884 0.58723 0.81266 0.0
C5369 C 0.95528 0.58946 0.80403 0.0
C5370 C 0.96585 0.59189 0.80543 0.0
H5371 H 0.98546 0.6151 0.83139 0.0
H5372 H 0.97367 0.61088 0.82489 0.0
H5373 H 0.97765 0.60493 0.83702 0.0
H5374 H 0.96697 0.59005 0.83198 0.0
H5375 H 0.94841 0.58618 0.82957 0.0
H5376 H 0.17388 0.41278 0.05711 0.0
H5377 H 0.17128 0.41008 0.03833 0.0
H5378 H 0.2023 0.42175 0.03227 0.0
H5379 H 0.20498 0.42453 0.05094 0.0
H5380 H 0.18702 0.43176 0.02081 0.0
H5381 H 0.18295 0.38873 0.01712 0.0
H5382 H 0.17479 0.39455 0.02697 0.0
H5383 H 0.18876 0.39492 0.02842 0.0
C5384 C 0.18022 0.41463 0.05181 0.0
C5385 C 0.18963 0.41894 0.05559 0.0
C5386 C 0.17874 0.41301 0.04106 0.0
C5387 C 0.18663 0.41561 0.03388 0.0
C5388 C 0.19611 0.41963 0.03766 0.0
H5389 H 0.18634 0.40901 0.96527 0.0
H5390 H 0.19011 0.40613 0.98397 0.0
C5391 C 0.19762 0.42123 0.04837 0.0
C5392 C 0.18469 0.41517 0.02241 0.0
H5393 H 0.17818 0.39889 0.00219 0.0
C5394 C 0.18516 0.42455 0.01674 0.0
C5395 C 0.18238 0.40575 0.01707 0.0
C5396 C 0.18227 0.39539 0.02266 0.0
C5397 C 0.18313 0.42484 0.00597 0.0
C5398 C 0.18037 0.4155 1.00069 0.0
C5399 C 0.18019 0.40605 0.00626 0.0
C5400 C 0.17726 0.41567 0.98948 0.0
C5401 C 0.18397 0.43517 1.00033 0.0
C5402 C 0.16855 0.42158 0.98641 0.0
C5403 C 0.16649 0.4233 0.97585 0.0
C5404 C 0.17295 0.41896 0.96809 0.0
C5405 C 0.1812 0.41236 0.9711 0.0
C5406 C 0.18337 0.41075 0.98176 0.0
H5407 H 0.18889 0.44083 0.00471 0.0
H5408 H 0.18733 0.43414 0.99239 0.0
H5409 H 0.17606 0.43862 0.9995 0.0
H5410 H 0.16361 0.42527 0.99222 0.0
H5411 H 0.16005 0.42837 0.97373 0.0
H5412 H 0.17535 0.59326 0.94512 0.0
H5413 H 0.17213 0.59789 0.96343 0.0
H5414 H 0.1981 0.57857 0.97287 0.0
H5415 H 0.20159 0.57424 0.95471 0.0
H5416 H 0.16631 0.58591 0.9786 0.0
H5417 H 0.20373 0.6032 0.99081 0.0
H5418 H 0.20061 0.60101 0.97722 0.0
H5419 H 0.20615 0.59067 0.98507 0.0
C5420 C 0.1805 0.59016 0.95108 0.0
C5421 C 0.18875 0.58339 0.94839 0.0
C5422 C 0.17865 0.59282 0.96156 0.0
C5423 C 0.18499 0.58877 0.96958 0.0
C5424 C 0.1933 0.58212 0.96687 0.0
H5425 H 0.16979 0.56648 0.0288 0.0
H5426 H 0.17201 0.57126 0.01061 0.0
C5427 C 0.19522 0.57955 0.95642 0.0
C5428 C 0.18237 0.59053 0.98081 0.0
H5429 H 0.19354 0.59489 0.00471 0.0
C5430 C 0.17223 0.58811 0.98426 0.0
C5431 C 0.18995 0.59366 0.98828 0.0
C5432 C 0.20067 0.5974 0.98511 0.0
C5433 C 0.16972 0.58792 0.99495 0.0
C5434 C 0.17762 0.58989 0.00244 0.0
C5435 C 0.18752 0.59316 0.999 0.0
C5436 C 0.17611 0.58737 0.01371 0.0
C5437 C 0.15864 0.58534 0.99809 0.0
C5438 C 0.17803 0.59475 0.02165 0.0
C5439 C 0.17688 0.59197 0.03224 0.0
C5440 C 0.17389 0.58176 0.035 0.0
C5441 C 0.17205 0.57444 0.027 0.0
C5442 C 0.17322 0.57719 0.01653 0.0
H5443 H 0.15299 0.58799 0.99205 0.0
H5444 H 0.15782 0.57673 0.99884 0.0
H5445 H 0.15654 0.589 0.00567 0.0
H5446 H 0.1804 0.60263 0.01966 0.0
H5447 H 0.17841 0.59776 0.03822 0.0
H5448 H 0.43685 0.17188 0.02886 0.0
H5449 H 0.4321 0.17456 0.01076 0.0
H5450 H 0.40047 0.18183 0.01994 0.0
H5451 H 0.40536 0.17951 0.03845 0.0
H5452 H 0.41848 0.16454 0.9987 0.0
H5453 H 0.40738 0.20653 1.00139 0.0
H5454 H 0.41388 0.19981 0.01194 0.0
H5455 H 0.40022 0.1976 0.00955 0.0
C5456 C 0.42887 0.17411 0.02713 0.0
C5457 C 0.4215 0.17557 0.03516 0.0
C5458 C 0.42615 0.17559 0.0167 0.0
C5459 C 0.41595 0.17849 0.01392 0.0
C5460 C 0.40845 0.17979 0.02188 0.0
H5461 H 0.40993 0.17773 0.94481 0.0
H5462 H 0.40529 0.17417 0.96307 0.0
C5463 C 0.41122 0.17839 0.03245 0.0
C5464 C 0.41354 0.18012 0.00264 0.0
H5465 H 0.4081 0.19912 0.98465 0.0
C5466 C 0.41606 0.17206 0.99561 0.0
C5467 C 0.41041 0.18994 0.99862 0.0
C5468 C 0.40787 0.19901 0.00572 0.0
C5469 C 0.41626 0.17372 0.98476 0.0
C5470 C 0.41345 0.18364 0.98072 0.0
C5471 C 0.41026 0.19151 0.98772 0.0
C5472 C 0.41504 0.18643 0.9695 0.0
C5473 C 0.42023 0.16502 0.97782 0.0
C5474 C 0.42159 0.19485 0.96695 0.0
C5475 C 0.42405 0.19705 0.95654 0.0
C5476 C 0.42011 0.19081 0.94838 0.0
C5477 C 0.41321 0.18261 0.9509 0.0
C5478 C 0.41061 0.18052 0.96135 0.0
H5479 H 0.4243 0.15883 0.98236 0.0
H5480 H 0.41354 0.16134 0.97373 0.0
H5481 H 0.42574 0.16808 0.97185 0.0
H5482 H 0.42512 0.19956 0.97305 0.0
H5483 H 0.42938 0.20344 0.95494 0.0
H5484 H 0.82666 0.40996 0.94492 0.0
H5485 H 0.82966 0.40548 0.96331 0.0
H5486 H 0.80475 0.42629 0.97243 0.0
H5487 H 0.80149 0.43051 0.9542 0.0
H5488 H 0.83603 0.41733 0.97845 0.0
H5489 H 0.79766 0.40204 0.99046 0.0
H5490 H 0.80102 0.40397 0.97689 0.0
H5491 H 0.796 0.41465 0.98462 0.0
C5492 C 0.82171 0.41345 0.95083 0.0
C5493 C 0.8138 0.42058 0.94803 0.0
C5494 C 0.82343 0.41087 0.96136 0.0
C5495 C 0.81729 0.41536 0.96931 0.0
C5496 C 0.80937 0.42241 0.96649 0.0
H5497 H 0.8333 0.43664 0.02878 0.0
H5498 H 0.8309 0.43212 0.01055 0.0
C5499 C 0.80758 0.42491 0.956 0.0
C5500 C 0.81975 0.41353 0.98057 0.0
H5501 H 0.80826 0.40968 0.0044 0.0
C5502 C 0.82998 0.41543 0.98408 0.0
C5503 C 0.81198 0.41078 0.98799 0.0
C5504 C 0.80109 0.40763 0.98476 0.0
C5505 C 0.83245 0.41545 0.99478 0.0
C5506 C 0.82442 0.41384 0.00223 0.0
C5507 C 0.81438 0.41112 0.99873 0.0
C5508 C 0.82602 0.4162 0.01352 0.0
C5509 C 0.84362 0.41747 0.99798 0.0
C5510 C 0.82373 0.40886 0.02141 0.0
C5511 C 0.82499 0.4115 0.03202 0.0
C5512 C 0.82846 0.42154 0.03486 0.0
C5513 C 0.83066 0.42882 0.02692 0.0
C5514 C 0.82939 0.42621 0.01643 0.0
H5515 H 0.84916 0.41459 0.99194 0.0
H5516 H 0.84486 0.42601 0.99881 0.0
H5517 H 0.84552 0.41364 0.00554 0.0
H5518 H 0.82099 0.40112 0.01935 0.0
H5519 H 0.82318 0.40574 0.03795 0.0
H5520 H 0.57065 0.83728 0.02955 0.0
H5521 H 0.57573 0.8336 0.01159 0.0
H5522 H 0.60227 0.81596 0.02253 0.0
H5523 H 0.59719 0.81965 0.04079 0.0
H5524 H 0.60368 0.83264 0.00268 0.0
H5525 H 0.57423 0.80068 1.00144 0.0
H5526 H 0.57029 0.81263 0.00776 0.0
H5527 H 0.58046 0.80481 0.01343 0.0
C5528 C 0.57765 0.83271 0.0282 0.0
C5529 C 0.58347 0.82868 0.03661 0.0
C5530 C 0.58055 0.83065 0.0179 0.0
C5531 C 0.58933 0.82449 0.01574 0.0
C5532 C 0.59547 0.82077 0.02407 0.0
H5533 H 0.59044 0.79729 0.95331 0.0
H5534 H 0.59433 0.79992 0.97181 0.0
C5535 C 0.59257 0.82287 0.03447 0.0
C5536 C 0.59137 0.82137 0.00476 0.0
H5537 H 0.58069 0.80676 0.9852 0.0
C5538 C 0.59882 0.82684 0.99886 0.0
C5539 C 0.58504 0.81379 0.99983 0.0
C5540 C 0.57708 0.80756 0.00591 0.0
C5541 C 0.5998 0.82519 0.988 0.0
C5542 C 0.593 0.81805 0.98294 0.0
C5543 C 0.5859 0.81226 0.98901 0.0
C5544 C 0.59262 0.81675 0.97134 0.0
C5545 C 0.60807 0.83116 0.9821 0.0
C5546 C 0.59067 0.82535 0.96477 0.0
C5547 C 0.58859 0.82387 0.9541 0.0
C5548 C 0.58819 0.81373 0.94985 0.0
C5549 C 0.59063 0.80519 0.95634 0.0
C5550 C 0.59285 0.80669 0.96694 0.0
H5551 H 0.61474 0.83324 0.98727 0.0
H5552 H 0.61109 0.82659 0.97536 0.0
H5553 H 0.60466 0.83855 0.97911 0.0
H5554 H 0.59017 0.83316 0.96797 0.0
H5555 H 0.58663 0.8306 0.94935 0.0
H5556 H 0.7966 0.58398 0.05041 0.0
H5557 H 0.79938 0.58712 0.03178 0.0
H5558 H 0.8326 0.58936 0.03702 0.0
H5559 H 0.82987 0.58645 0.05577 0.0
H5560 H 0.82518 0.60349 0.02154 0.0
H5561 H 0.81118 0.56295 0.01458 0.0
H5562 H 0.80199 0.5712 0.02125 0.0
H5563 H 0.81413 0.5678 0.02748 0.0
C5564 C 0.8045 0.5853 0.04765 0.0
C5565 C 0.81303 0.5848 0.05458 0.0
C5566 C 0.80607 0.58708 0.03698 0.0
C5567 C 0.81622 0.58824 0.03296 0.0
C5568 C 0.8247 0.58843 0.03994 0.0
H5569 H 0.83921 0.56998 0.97343 0.0
H5570 H 0.83561 0.57371 0.99173 0.0
C5571 C 0.82312 0.58676 0.05066 0.0
C5572 C 0.81804 0.58824 0.02147 0.0
H5573 H 0.81545 0.57292 0.99976 0.0
C5574 C 0.82301 0.59684 0.01675 0.0
C5575 C 0.8153 0.57951 0.01524 0.0
C5576 C 0.81044 0.5698 0.01988 0.0
C5577 C 0.82537 0.59688 0.00598 0.0
C5578 C 0.8226 0.58815 0.99979 0.0
C5579 C 0.8175 0.57965 0.0045 0.0
C5580 C 0.82572 0.58707 0.98864 0.0
C5581 C 0.8311 0.60608 1.00135 0.0
C5582 C 0.82156 0.59352 0.98075 0.0
C5583 C 0.82368 0.59143 0.97016 0.0
C5584 C 0.82989 0.58279 0.96736 0.0
C5585 C 0.83434 0.57665 0.97532 0.0
C5586 C 0.83229 0.57877 0.9858 0.0
H5587 H 0.83415 0.61144 0.00747 0.0
H5588 H 0.83773 0.60336 0.99645 0.0
H5589 H 0.82569 0.61055 0.99625 0.0
H5590 H 0.81635 0.59988 0.98275 0.0
H5591 H 0.8201 0.59624 0.96419 0.0
H5592 H 0.43526 0.83052 0.9741 0.0
H5593 H 0.42963 0.82848 0.99203 0.0
H5594 H 0.39797 0.8232 0.98168 0.0
H5595 H 0.40373 0.82486 0.96335 0.0
H5596 H 0.4162 0.83979 0.00324 0.0
H5597 H 0.40241 0.79856 1.00108 0.0
H5598 H 0.40979 0.80452 0.99066 0.0
H5599 H 0.39625 0.80777 0.99244 0.0
C5600 C 0.42708 0.82885 0.97554 0.0
C5601 C 0.41996 0.82777 0.96724 0.0
C5602 C 0.42386 0.82774 0.98586 0.0
C5603 C 0.41339 0.82562 0.98827 0.0
C5604 C 0.40614 0.82465 0.98003 0.0
H5605 H 0.40704 0.82795 0.05735 0.0
H5606 H 0.40215 0.83147 0.03914 0.0
C5607 C 0.40942 0.82566 0.96957 0.0
C5608 C 0.41043 0.82445 0.99948 0.0
H5609 H 0.40336 0.80622 0.01768 0.0
C5610 C 0.41323 0.8325 0.00641 0.0
C5611 C 0.40654 0.81495 0.0036 0.0
C5612 C 0.40362 0.8059 0.99661 0.0
C5613 C 0.41308 0.83106 0.01729 0.0
C5614 C 0.4096 0.82139 0.02144 0.0
C5615 C 0.40604 0.81362 0.01452 0.0
C5616 C 0.41109 0.81862 0.03268 0.0
C5617 C 0.41744 0.83962 0.02415 0.0
C5618 C 0.41719 0.80987 0.03523 0.0
C5619 C 0.41978 0.8077 0.0456 0.0
C5620 C 0.41642 0.81429 0.05376 0.0
C5621 C 0.40987 0.82278 0.05127 0.0
C5622 C 0.40713 0.82485 0.04084 0.0
H5623 H 0.42179 0.84559 0.01957 0.0
H5624 H 0.41092 0.84365 0.02821 0.0
H5625 H 0.4228 0.83636 0.03015 0.0
H5626 H 0.42034 0.8049 0.02913 0.0
H5627 H 0.4248 0.80106 0.04715 0.0
H5628 H 0.59764 0.18509 0.9627 0.0
H5629 H 0.60239 0.18896 0.98102 0.0
H5630 H 0.5782 0.16809 0.99169 0.0
H5631 H 0.57341 0.16427 0.97365 0.0
H5632 H 0.57921 0.19262 0.99794 0.0
H5633 H 0.61307 0.16672 0.00684 0.0
H5634 H 0.61173 0.17297 0.99422 0.0
H5635 H 0.60309 0.16254 0.99776 0.0
C5636 C 0.59352 0.18118 0.96897 0.0
C5637 C 0.58512 0.17443 0.96676 0.0
C5638 C 0.59622 0.18339 0.9794 0.0
C5639 C 0.59064 0.17878 0.98767 0.0
C5640 C 0.58261 0.1717 0.98542 0.0
H5641 H 0.58622 0.17376 0.05391 0.0
H5642 H 0.58978 0.17125 0.03527 0.0
C5643 C 0.57987 0.16955 0.9751 0.0
C5644 C 0.59222 0.18202 0.99867 0.0
H5645 H 0.60529 0.17561 0.02106 0.0
C5646 C 0.58504 0.18908 0.00299 0.0
C5647 C 0.5997 0.17721 0.0052 0.0
C5648 C 0.60739 0.16942 1.00085 0.0
C5649 C 0.58488 0.1912 0.01375 0.0
C5650 C 0.5923 0.18631 0.02039 0.0
C5651 C 0.59967 0.17943 0.01599 0.0
C5652 C 0.59195 0.1877 0.03195 0.0
C5653 C 0.57635 0.1982 0.01796 0.0
C5654 C 0.59249 0.19772 0.03641 0.0
C5655 C 0.59029 0.19919 0.04702 0.0
C5656 C 0.58776 0.19063 0.05346 0.0
C5657 C 0.58814 0.18051 0.04918 0.0
C5658 C 0.59017 0.17907 0.0385 0.0
H5659 H 0.56984 0.19916 0.01229 0.0
H5660 H 0.57309 0.19504 0.02536 0.0
H5661 H 0.57963 0.20606 0.01957 0.0
H5662 H 0.59415 0.20447 0.03158 0.0
H5663 H 0.5902 0.20707 0.05011 0.0
H5664 H 0.54941 0.70562 0.92325 0.0
H5665 H 0.53085 0.70243 0.92023 0.0
H5666 H 0.53768 0.67085 0.91072 0.0
H5667 H 0.55637 0.67395 0.91367 0.0
H5668 H 0.52109 0.68208 0.89844 0.0
H5669 H 0.51548 0.68287 0.94154 0.0
H5670 H 0.52207 0.69403 0.9361 0.0
H5671 H 0.52818 0.6814 0.93559 0.0
C5672 C 0.54704 0.69802 0.92039 0.0
C5673 C 0.55443 0.69 0.91885 0.0
C5674 C 0.5364 0.69622 0.91865 0.0
C5675 C 0.53288 0.68637 0.91537 0.0
C5676 C 0.54024 0.67851 0.91326 0.0
H5677 H 0.47286 0.66004 0.9285 0.0
H5678 H 0.4913 0.66325 0.92493 0.0
C5679 C 0.55092 0.6803 0.91498 0.0
C5680 C 0.5215 0.68404 0.91515 0.0
H5681 H 0.50035 0.68143 0.93119 0.0
C5682 C 0.51652 0.68193 0.90558 0.0
C5683 C 0.51559 0.68377 0.92448 0.0
C5684 C 0.52058 0.68555 0.93504 0.0
C5685 C 0.50575 0.6796 0.90513 0.0
C5686 C 0.49984 0.67945 0.91448 0.0
C5687 C 0.50486 0.68158 0.92401 0.0
C5688 C 0.48858 0.67654 0.91484 0.0
C5689 C 0.50083 0.67708 0.89472 0.0
C5690 C 0.48083 0.68272 0.91004 0.0
C5691 C 0.47018 0.68078 0.91197 0.0
C5692 C 0.4672 0.67274 0.91884 0.0
C5693 C 0.47495 0.66629 0.92318 0.0
C5694 C 0.48549 0.66813 0.92116 0.0
H5695 H 0.5068 0.67538 0.88864 0.0
H5696 H 0.4955 0.67027 0.89541 0.0
H5697 H 0.49614 0.68388 0.89207 0.0
H5698 H 0.48301 0.68937 0.90528 0.0
H5699 H 0.46435 0.68595 0.90866 0.0
H5700 H 0.3288 0.55751 0.9099 0.0
H5701 H 0.33278 0.5394 0.90505 0.0
H5702 H 0.30353 0.52939 0.91852 0.0
H5703 H 0.29934 0.54732 0.92298 0.0
H5704 H 0.33624 0.52404 0.91757 0.0
H5705 H 0.30313 0.5118 0.89313 0.0
H5706 H 0.30554 0.52538 0.89611 0.0
H5707 H 0.29811 0.51729 0.90498 0.0
C5708 C 0.32309 0.55148 0.91157 0.0
C5709 C 0.31375 0.55393 0.91685 0.0
C5710 C 0.32539 0.54111 0.90881 0.0
C5711 C 0.3184 0.53297 0.91125 0.0
C5712 C 0.30894 0.53548 0.91622 0.0
H5713 H 0.32944 0.47395 0.93618 0.0
H5714 H 0.32789 0.49211 0.93099 0.0
C5715 C 0.3066 0.54581 0.91888 0.0
C5716 C 0.32142 0.52178 0.90987 0.0
H5717 H 0.31134 0.49785 0.9035 0.0
C5718 C 0.33089 0.51836 0.91425 0.0
C5719 C 0.31462 0.51429 0.90533 0.0
C5720 C 0.30485 0.51742 0.89952 0.0
C5721 C 0.33332 0.50768 0.91499 0.0
C5722 C 0.32595 0.50017 0.91156 0.0
C5723 C 0.3169 0.50358 0.90636 0.0
C5724 C 0.32694 0.48892 0.9144 0.0
C5725 C 0.34367 0.50458 0.91971 0.0
C5726 C 0.3265 0.48093 0.90684 0.0
C5727 C 0.32723 0.47037 0.90983 0.0
C5728 C 0.32835 0.46767 0.92044 0.0
C5729 C 0.32865 0.47571 0.92793 0.0
C5730 C 0.32787 0.48615 0.92497 0.0
H5731 H 0.34973 0.5106 0.91816 0.0
H5732 H 0.3428 0.50391 0.92832 0.0
H5733 H 0.34645 0.49696 0.9166 0.0
H5734 H 0.32564 0.48287 0.89864 0.0
H5735 H 0.32692 0.46436 0.90388 0.0
H5736 H 0.44849 0.32982 0.91686 0.0
H5737 H 0.46715 0.33209 0.91341 0.0
H5738 H 0.47074 0.29868 0.91052 0.0
H5739 H 0.45217 0.29635 0.91427 0.0
H5740 H 0.48423 0.30606 0.92393 0.0
H5741 H 0.48632 0.33094 0.88869 0.0
H5742 H 0.47816 0.3367 0.89852 0.0
H5743 H 0.47441 0.32446 0.89264 0.0
C5744 C 0.45319 0.32297 0.91524 0.0
C5745 C 0.44882 0.3129 0.91591 0.0
C5746 C 0.46388 0.32428 0.9132 0.0
C5747 C 0.47039 0.31557 0.91159 0.0
C5748 C 0.46591 0.30554 0.91172 0.0
H5749 H 0.53973 0.31921 0.90581 0.0
H5750 H 0.52141 0.31531 0.9011 0.0
C5751 C 0.45527 0.30422 0.91387 0.0
C5752 C 0.48198 0.31678 0.91112 0.0
H5753 H 0.50175 0.33079 0.89973 0.0
C5754 C 0.48804 0.31131 0.91847 0.0
C5755 C 0.48706 0.32358 0.90397 0.0
C5756 C 0.48115 0.32916 0.89544 0.0
C5757 C 0.49888 0.31285 0.91923 0.0
C5758 C 0.50382 0.32014 0.91257 0.0
C5759 C 0.49792 0.32524 0.90486 0.0
C5760 C 0.51481 0.32334 0.91445 0.0
C5761 C 0.50494 0.30691 0.92743 0.0
C5762 C 0.51709 0.32933 0.92332 0.0
C5763 C 0.52741 0.33152 0.926 0.0
C5764 C 0.53574 0.3278 0.91986 0.0
C5765 C 0.53347 0.32219 0.91068 0.0
C5766 C 0.52303 0.31996 0.90799 0.0
H5767 H 0.50058 0.29996 0.93027 0.0
H5768 H 0.51262 0.30433 0.92431 0.0
H5769 H 0.50643 0.31213 0.93421 0.0
H5770 H 0.51085 0.33206 0.92836 0.0
H5771 H 0.52886 0.33594 0.93307 0.0
H5772 H 0.68245 0.53957 0.90724 0.0
H5773 H 0.68533 0.52095 0.90317 0.0
H5774 H 0.66962 0.51232 0.93172 0.0
H5775 H 0.66689 0.53067 0.93586 0.0
H5776 H 0.68932 0.50362 0.92972 0.0
H5777 H 0.66542 0.49694 0.894 0.0
H5778 H 0.67432 0.50784 0.89375 0.0
H5779 H 0.66337 0.50802 0.90252 0.0
C5780 C 0.67948 0.53367 0.91253 0.0
C5781 C 0.67451 0.53658 0.9219 0.0
C5782 C 0.68109 0.52304 0.91019 0.0
C5783 C 0.67765 0.51523 0.91713 0.0
C5784 C 0.67236 0.51819 0.92626 0.0
H5785 H 0.67181 0.44822 0.91822 0.0
H5786 H 0.66914 0.46701 0.91544 0.0
C5787 C 0.67081 0.52871 0.92861 0.0
C5788 C 0.68024 0.504 0.91557 0.0
H5789 H 0.67501 0.48253 0.90049 0.0
C5790 C 0.68626 0.49903 0.92327 0.0
C5791 C 0.67616 0.498 0.90722 0.0
C5792 C 0.66939 0.50291 0.89891 0.0
C5793 C 0.68814 0.48823 0.92302 0.0
C5794 C 0.6841 0.4822 0.91465 0.0
C5795 C 0.67818 0.48717 0.90684 0.0
C5796 C 0.68561 0.47067 0.9143 0.0
C5797 C 0.69408 0.48333 0.93196 0.0
C5798 C 0.69572 0.46641 0.91407 0.0
C5799 C 0.69727 0.45572 0.91577 0.0
C5800 C 0.68873 0.44902 0.91756 0.0
C5801 C 0.67856 0.45316 0.91688 0.0
C5802 C 0.67702 0.4639 0.91529 0.0
H5803 H 0.69441 0.48855 0.9389 0.0
H5804 H 0.69046 0.47581 0.93435 0.0
H5805 H 0.70223 0.48173 0.92945 0.0
H5806 H 0.70246 0.47144 0.91309 0.0
H5807 H 0.70521 0.45278 0.91611 0.0
H5808 H 0.55486 0.33179 0.08679 0.0
H5809 H 0.53637 0.33514 0.09054 0.0
H5810 H 0.53012 0.30205 0.08982 0.0
H5811 H 0.54853 0.2986 0.08602 0.0
H5812 H 0.52042 0.32776 0.07577 0.0
H5813 H 0.51377 0.31312 0.11614 0.0
H5814 H 0.52652 0.31706 0.11148 0.0
H5815 H 0.52111 0.30473 0.10755 0.0
C5816 C 0.54961 0.3252 0.08767 0.0
C5817 C 0.55319 0.31492 0.08604 0.0
C5818 C 0.53904 0.32714 0.0898 0.0
C5819 C 0.53189 0.31884 0.09054 0.0
C5820 C 0.53552 0.30856 0.08944 0.0
H5821 H 0.46426 0.31241 0.08998 0.0
H5822 H 0.48306 0.30986 0.09319 0.0
C5823 C 0.54605 0.30661 0.0872 0.0
C5824 C 0.52049 0.32096 0.09114 0.0
H5825 H 0.49869 0.31748 0.10622 0.0
C5826 C 0.51567 0.32562 0.08247 0.0
C5827 C 0.51431 0.31796 0.09981 0.0
C5828 C 0.51916 0.313 0.10933 0.0
C5829 C 0.50483 0.32721 0.08213 0.0
C5830 C 0.49862 0.3244 0.09087 0.0
C5831 C 0.50344 0.31972 0.09957 0.0
C5832 C 0.48711 0.32615 0.09093 0.0
C5833 C 0.5001 0.33155 0.07221 0.0
C5834 C 0.48306 0.3362 0.08916 0.0
C5835 C 0.47242 0.33761 0.08719 0.0
C5836 C 0.46556 0.32906 0.08734 0.0
C5837 C 0.4694 0.31914 0.09003 0.0
C5838 C 0.48013 0.31769 0.09179 0.0
H5839 H 0.50535 0.33039 0.06538 0.0
H5840 H 0.49247 0.3278 0.07046 0.0
H5841 H 0.49883 0.34008 0.07314 0.0
H5842 H 0.48823 0.34289 0.08872 0.0
H5843 H 0.46961 0.34531 0.08505 0.0
H5844 H 0.67183 0.55393 0.08839 0.0
H5845 H 0.6697 0.53532 0.09221 0.0
H5846 H 0.70312 0.53211 0.09538 0.0
H5847 H 0.7053 0.55061 0.09121 0.0
H5848 H 0.69616 0.51869 0.08186 0.0
H5849 H 0.67072 0.51584 0.11663 0.0
H5850 H 0.66495 0.52399 0.10679 0.0
H5851 H 0.67703 0.52791 0.11289 0.0
C5852 C 0.6787 0.54933 0.09022 0.0
C5853 C 0.68874 0.55374 0.08943 0.0
C5854 C 0.67747 0.53867 0.09246 0.0
C5855 C 0.68625 0.53226 0.09417 0.0
C5856 C 0.69622 0.53685 0.09409 0.0
H5857 H 0.68366 0.46275 0.09847 0.0
H5858 H 0.68729 0.481 0.10366 0.0
C5859 C 0.69746 0.54744 0.09171 0.0
C5860 C 0.68518 0.52064 0.09451 0.0
H5861 H 0.67119 0.50056 0.10534 0.0
C5862 C 0.69086 0.51475 0.08717 0.0
C5863 C 0.67832 0.51539 0.10145 0.0
C5864 C 0.6725 0.52111 0.10995 0.0
C5865 C 0.68948 0.50391 0.08623 0.0
C5866 C 0.68212 0.4988 0.09268 0.0
C5867 C 0.6768 0.50453 0.10037 0.0
C5868 C 0.67907 0.48782 0.09054 0.0
C5869 C 0.69561 0.49804 0.07804 0.0
C5870 C 0.67308 0.48569 0.08164 0.0
C5871 C 0.67105 0.47541 0.07868 0.0
C5872 C 0.67494 0.46697 0.08458 0.0
C5873 C 0.68057 0.46909 0.09379 0.0
C5874 C 0.68263 0.47948 0.09675 0.0
H5875 H 0.70251 0.50255 0.07531 0.0
H5876 H 0.6983 0.49038 0.08112 0.0
H5877 H 0.69049 0.49651 0.07119 0.0
H5878 H 0.67023 0.49201 0.07677 0.0
H5879 H 0.66662 0.47408 0.07159 0.0
H5880 H 0.44822 0.67259 0.08654 0.0
H5881 H 0.4668 0.66992 0.09012 0.0
H5882 H 0.47081 0.70313 0.09437 0.0
H5883 H 0.45233 0.70588 0.09044 0.0
H5884 H 0.48392 0.69628 0.08048 0.0
H5885 H 0.48645 0.66973 0.11444 0.0
H5886 H 0.47811 0.66447 0.10448 0.0
H5887 H 0.47451 0.67643 0.111 0.0
C5888 C 0.45299 0.67929 0.08855 0.0
C5889 C 0.44881 0.68945 0.08813 0.0
C5890 C 0.46364 0.67775 0.09065 0.0
C5891 C 0.47025 0.68631 0.0926 0.0
C5892 C 0.4659 0.69639 0.09289 0.0
H5893 H 0.53933 0.68141 0.09831 0.0
H5894 H 0.52096 0.68493 0.10303 0.0
C5895 C 0.45532 0.69795 0.09064 0.0
C5896 C 0.48183 0.68497 0.09281 0.0
H5897 H 0.5017 0.67033 0.10316 0.0
C5898 C 0.48779 0.69074 0.08561 0.0
C5899 C 0.48698 0.6778 0.09951 0.0
C5900 C 0.48118 0.67184 0.10787 0.0
C5901 C 0.49859 0.68921 0.08458 0.0
C5902 C 0.5036 0.68156 0.09079 0.0
C5903 C 0.49781 0.67612 0.09835 0.0
C5904 C 0.5146 0.67854 0.08871 0.0
C5905 C 0.50455 0.6956 0.07665 0.0
C5906 C 0.51704 0.67357 0.07927 0.0
C5907 C 0.52741 0.6716 0.07657 0.0
C5908 C 0.53561 0.67452 0.08328 0.0
C5909 C 0.53317 0.67909 0.09298 0.0
C5910 C 0.52271 0.68109 0.09568 0.0
H5911 H 0.50026 0.70284 0.07448 0.0
H5912 H 0.51238 0.69779 0.07967 0.0
H5913 H 0.50567 0.69088 0.06945 0.0
H5914 H 0.5109 0.67145 0.07383 0.0
H5915 H 0.52899 0.66797 0.06909 0.0
H5916 H 0.33139 0.4481 0.08671 0.0
H5917 H 0.3347 0.46654 0.09076 0.0
H5918 H 0.30175 0.47309 0.08835 0.0
H5919 H 0.29835 0.45474 0.08422 0.0
H5920 H 0.32793 0.48254 0.07544 0.0
H5921 H 0.3119 0.48939 0.11525 0.0
H5922 H 0.31611 0.47664 0.11084 0.0
H5923 H 0.3039 0.48193 0.1064 0.0
C5924 C 0.32481 0.4534 0.0873 0.0
C5925 C 0.31461 0.44994 0.08507 0.0
C5926 C 0.32672 0.46394 0.0896 0.0
C5927 C 0.31846 0.47116 0.08993 0.0
C5928 C 0.30822 0.46763 0.08828 0.0
H5929 H 0.31183 0.53867 0.08906 0.0
H5930 H 0.30938 0.51985 0.09224 0.0
C5931 C 0.3063 0.45713 0.08586 0.0
C5932 C 0.32064 0.48255 0.09058 0.0
H5933 H 0.31668 0.50442 0.10544 0.0
C5934 C 0.32559 0.48732 0.08205 0.0
C5935 C 0.31737 0.48876 0.09911 0.0
C5936 C 0.31208 0.48396 0.10848 0.0
C5937 C 0.32718 0.49816 0.0817 0.0
C5938 C 0.32408 0.50442 0.09031 0.0
C5939 C 0.31914 0.49963 0.09888 0.0
C5940 C 0.32574 0.51594 0.09034 0.0
C5941 C 0.3318 0.50284 0.07188 0.0
C5942 C 0.3358 0.52007 0.08877 0.0
C5943 C 0.33715 0.53073 0.08681 0.0
C5944 C 0.32854 0.53752 0.08678 0.0
C5945 C 0.3186 0.53359 0.08925 0.0
C5946 C 0.3172 0.52285 0.091 0.0
H5947 H 0.33086 0.49754 0.06505 0.0
H5948 H 0.32809 0.51045 0.06997 0.0
H5949 H 0.34029 0.50414 0.07305 0.0
H5950 H 0.34254 0.51496 0.0885 0.0
H5951 H 0.34487 0.5336 0.08483 0.0
H5952 H 0.91471 0.55527 0.67319 0.0
H5953 H 0.91142 0.53663 0.67014 0.0
H5954 H 0.91908 0.5299 0.70223 0.0
H5955 H 0.92241 0.54846 0.7054 0.0
H5956 H 0.93079 0.52007 0.67986 0.0
H5957 H 0.8886 0.51425 0.68901 0.0
H5958 H 0.89313 0.52624 0.68306 0.0
H5959 H 0.89641 0.52343 0.69637 0.0
C5960 C 0.91551 0.54987 0.67967 0.0
C5961 C 0.91891 0.5534 0.68953 0.0
C5962 C 0.91361 0.53922 0.6779 0.0
C5963 C 0.91496 0.53193 0.68598 0.0
C5964 C 0.91793 0.53544 0.69592 0.0
H5965 H 0.91242 0.46383 0.68948 0.0
H5966 H 0.90951 0.4826 0.69271 0.0
C5967 C 0.91987 0.54605 0.69769 0.0
C5968 C 0.91446 0.52057 0.68378 0.0
H5969 H 0.89821 0.49935 0.68374 0.0
C5970 C 0.92367 0.51553 0.68066 0.0
C5971 C 0.9052 0.5147 0.68502 0.0
C5972 C 0.89522 0.51985 0.68855 0.0
C5973 C 0.92387 0.50474 0.67871 0.0
C5974 C 0.91453 0.49884 0.67964 0.0
C5975 C 0.90533 0.50388 0.68292 0.0
C5976 C 0.91433 0.48746 0.67722 0.0
C5977 C 0.93419 0.49973 0.6759 0.0
C5978 C 0.91746 0.48393 0.66731 0.0
C5979 C 0.91924 0.47331 0.66554 0.0
C5980 C 0.91758 0.46597 0.67352 0.0
C5981 C 0.91356 0.46935 0.68316 0.0
C5982 C 0.91197 0.48006 0.68501 0.0
H5983 H 0.94092 0.5046 0.67844 0.0
H5984 H 0.93496 0.49187 0.67952 0.0
H5985 H 0.93468 0.49883 0.66729 0.0
H5986 H 0.91909 0.48946 0.66111 0.0
H5987 H 0.9224 0.47087 0.65807 0.0
H5988 H 0.53869 0.90431 0.67887 0.0
H5989 H 0.52017 0.89942 0.68122 0.0
H5990 H 0.51093 0.93075 0.67287 0.0
H5991 H 0.52905 0.93552 0.67025 0.0
H5992 H 0.50532 0.90694 0.69442 0.0
H5993 H 0.49219 0.91412 0.6541 0.0
H5994 H 0.50586 0.91319 0.65748 0.0
H5995 H 0.49895 0.92541 0.65888 0.0
C5996 C 0.53267 0.91008 0.67744 0.0
C5997 C 0.53536 0.92028 0.67431 0.0
C5998 C 0.52211 0.9073 0.67879 0.0
C5999 C 0.51412 0.91465 0.67696 0.0
C6000 C 0.51688 0.92483 0.674 0.0
H6001 H 0.45521 0.92694 0.70351 0.0
H6002 H 0.47338 0.92287 0.69973 0.0
C6003 C 0.52731 0.92757 0.6726 0.0
C6004 C 0.50287 0.91211 0.67859 0.0
H6005 H 0.4789 0.91621 0.66759 0.0
C6006 C 0.49954 0.90874 0.68849 0.0
C6007 C 0.49528 0.91415 0.67079 0.0
C6008 C 0.49828 0.9168 0.65969 0.0
C6009 C 0.48885 0.90819 0.69103 0.0
C6010 C 0.48129 0.91142 0.68358 0.0
C6011 C 0.48462 0.91395 0.67342 0.0
C6012 C 0.47006 0.91308 0.68632 0.0
C6013 C 0.48581 0.90427 0.70172 0.0
C6014 C 0.46201 0.90922 0.67989 0.0
C6015 C 0.45153 0.91177 0.68189 0.0
C6016 C 0.44887 0.9182 0.69042 0.0
C6017 C 0.45692 0.92187 0.69695 0.0
C6018 C 0.46737 0.91945 0.69486 0.0
H6019 H 0.49153 0.89839 0.7046 0.0
H6020 H 0.48587 0.91089 0.70732 0.0
H6021 H 0.47791 0.90067 0.70171 0.0
H6022 H 0.46385 0.90436 0.6732 0.0
H6023 H 0.44554 0.9088 0.6767 0.0
H6024 H 0.09662 0.53946 0.68488 0.0
H6025 H 0.10077 0.5209 0.68813 0.0
H6026 H 0.07593 0.51172 0.66729 0.0
H6027 H 0.07172 0.52999 0.66413 0.0
H6028 H 0.07465 0.5034 0.68788 0.0
H6029 H 0.11357 0.4968 0.6695 0.0
H6030 H 0.11197 0.50807 0.67782 0.0
H6031 H 0.10511 0.50744 0.66562 0.0
C6032 C 0.09222 0.53346 0.68084 0.0
C6033 C 0.0838 0.53617 0.67431 0.0
C6034 C 0.09461 0.52288 0.68268 0.0
C6035 C 0.08866 0.51493 0.67793 0.0
C6036 C 0.08061 0.5177 0.67104 0.0
H6037 H 0.08744 0.44808 0.67199 0.0
H6038 H 0.09066 0.46683 0.66965 0.0
C6039 C 0.0782 0.52817 0.66926 0.0
C6040 C 0.0899 0.50375 0.6808 0.0
H6041 H 0.1055 0.48227 0.67757 0.0
C6042 C 0.08145 0.4988 0.68573 0.0
C6043 C 0.09872 0.49777 0.67788 0.0
C6044 C 0.10788 0.50271 0.67236 0.0
C6045 C 0.08144 0.488 0.68761 0.0
C6046 C 0.09025 0.48196 0.68468 0.0
C6047 C 0.0988 0.48692 0.67988 0.0
C6048 C 0.09034 0.47044 0.68617 0.0
C6049 C 0.07181 0.48309 0.69236 0.0
C6050 C 0.08956 0.46617 0.69625 0.0
C6051 C 0.08763 0.4555 0.6976 0.0
C6052 C 0.08656 0.44883 0.68891 0.0
C6053 C 0.0882 0.45298 0.67885 0.0
C6054 C 0.09005 0.46371 0.6775 0.0
H6055 H 0.06494 0.48838 0.69199 0.0
H6056 H 0.06981 0.47567 0.68832 0.0
H6057 H 0.07334 0.48128 0.70071 0.0
H6058 H 0.08993 0.47119 0.70306 0.0
H6059 H 0.08656 0.45256 0.70547 0.0
H6060 H 0.47447 0.06557 0.67062 0.0
H6061 H 0.49263 0.07008 0.67345 0.0
H6062 H 0.4837 0.10154 0.68171 0.0
H6063 H 0.46515 0.0969 0.67917 0.0
H6064 H 0.50486 0.08414 0.66389 0.0
H6065 H 0.50205 0.09333 0.70633 0.0
H6066 H 0.49154 0.0871 0.69929 0.0
H6067 H 0.49388 0.10085 0.69771 0.0
C6068 C 0.47628 0.07347 0.67308 0.0
C6069 C 0.46831 0.08086 0.67475 0.0
C6070 C 0.48673 0.07605 0.67465 0.0
C6071 C 0.48958 0.08612 0.67789 0.0
C6072 C 0.48169 0.09365 0.67939 0.0
H6073 H 0.55859 0.09305 0.67758 0.0
H6074 H 0.54023 0.09742 0.67425 0.0
C6075 C 0.47111 0.09102 0.67787 0.0
C6076 C 0.50088 0.08837 0.67967 0.0
H6077 H 0.51881 0.09294 0.69894 0.0
C6078 C 0.50792 0.08622 0.67152 0.0
C6079 C 0.50487 0.09104 0.68964 0.0
C6080 C 0.49774 0.09315 0.69879 0.0
C6081 C 0.51878 0.08601 0.67318 0.0
C6082 C 0.52278 0.08838 0.68323 0.0
C6083 C 0.51576 0.09114 0.69124 0.0
C6084 C 0.53404 0.08683 0.68591 0.0
C6085 C 0.52576 0.08251 0.66432 0.0
C6086 C 0.53674 0.07985 0.69394 0.0
C6087 C 0.54721 0.0775 0.696 0.0
C6088 C 0.55528 0.08201 0.69002 0.0
C6089 C 0.55259 0.08932 0.68224 0.0
C6090 C 0.54208 0.09179 0.68029 0.0
H6091 H 0.52126 0.07871 0.65794 0.0
H6092 H 0.5298 0.08942 0.66097 0.0
H6093 H 0.53178 0.07693 0.66713 0.0
H6094 H 0.53072 0.07593 0.69842 0.0
H6095 H 0.54894 0.07185 0.70206 0.0
H6096 H 0.91641 0.44868 0.33082 0.0
H6097 H 0.91254 0.46712 0.33431 0.0
H6098 H 0.91282 0.47355 0.30125 0.0
H6099 H 0.91678 0.45519 0.29766 0.0
H6100 H 0.92762 0.48319 0.32595 0.0
H6101 H 0.88642 0.48979 0.31367 0.0
H6102 H 0.89114 0.47715 0.31789 0.0
H6103 H 0.89458 0.48203 0.30521 0.0
C6104 C 0.91538 0.45395 0.32427 0.0
C6105 C 0.91697 0.45045 0.31396 0.0
C6106 C 0.91318 0.46449 0.32629 0.0
C6107 C 0.91233 0.47168 0.31804 0.0
C6108 C 0.91331 0.46811 0.30772 0.0
H6109 H 0.9119 0.53949 0.31238 0.0
H6110 H 0.90871 0.52069 0.30975 0.0
C6111 C 0.91564 0.45761 0.3057 0.0
C6112 C 0.91183 0.48307 0.32022 0.0
H6113 H 0.89641 0.5048 0.31796 0.0
C6114 C 0.92077 0.48791 0.3243 0.0
C6115 C 0.90295 0.48922 0.31785 0.0
C6116 C 0.89317 0.48433 0.31346 0.0
C6117 C 0.92116 0.49874 0.32596 0.0
C6118 C 0.9122 0.50492 0.32383 0.0
C6119 C 0.90324 0.50008 0.3197 0.0
C6120 C 0.91217 0.51641 0.32576 0.0
C6121 C 0.93133 0.50349 0.32963 0.0
C6122 C 0.91461 0.52031 0.33573 0.0
C6123 C 0.91657 0.53095 0.33717 0.0
C6124 C 0.91573 0.53796 0.32878 0.0
C6125 C 0.91239 0.53424 0.31901 0.0
C6126 C 0.91064 0.52351 0.3175 0.0
H6127 H 0.93809 0.49832 0.3279 0.0
H6128 H 0.93274 0.5112 0.32589 0.0
H6129 H 0.93102 0.50463 0.33822 0.0
H6130 H 0.91557 0.51503 0.34228 0.0
H6131 H 0.91922 0.53365 0.34475 0.0
H6132 H 0.47385 0.93593 0.33182 0.0
H6133 H 0.49187 0.93058 0.32969 0.0
H6134 H 0.48197 0.89879 0.32431 0.0
H6135 H 0.46357 0.90426 0.3261 0.0
H6136 H 0.50346 0.91714 0.34075 0.0
H6137 H 0.50091 0.90385 0.29938 0.0
H6138 H 0.4905 0.91105 0.30558 0.0
H6139 H 0.49244 0.89748 0.3086 0.0
C6140 C 0.47542 0.92779 0.33013 0.0
C6141 C 0.46723 0.92054 0.32904 0.0
C6142 C 0.48579 0.92472 0.32896 0.0
C6143 C 0.48833 0.91429 0.32675 0.0
C6144 C 0.48021 0.90692 0.32583 0.0
H6145 H 0.55739 0.90762 0.32832 0.0
H6146 H 0.53914 0.90295 0.3319 0.0
C6147 C 0.46971 0.91004 0.32691 0.0
C6148 C 0.49956 0.91151 0.32539 0.0
H6149 H 0.51759 0.90475 0.30687 0.0
C6150 C 0.50656 0.91427 0.3334 0.0
C6151 C 0.5036 0.90777 0.31579 0.0
C6152 C 0.49652 0.90492 0.3068 0.0
C6153 C 0.51744 0.91415 0.33184 0.0
C6154 C 0.52149 0.91079 0.32209 0.0
C6155 C 0.5145 0.90732 0.31434 0.0
C6156 C 0.53272 0.91222 0.31927 0.0
C6157 C 0.52438 0.9184 0.34039 0.0
C6158 C 0.53528 0.91848 0.31063 0.0
C6159 C 0.54568 0.92096 0.30843 0.0
C6160 C 0.55383 0.91734 0.31488 0.0
C6161 C 0.55131 0.91066 0.32326 0.0
C6162 C 0.54086 0.90804 0.32536 0.0
H6163 H 0.51987 0.9227 0.34644 0.0
H6164 H 0.52846 0.91182 0.34431 0.0
H6165 H 0.53037 0.92377 0.33713 0.0
H6166 H 0.52918 0.9218 0.30577 0.0
H6167 H 0.54725 0.92609 0.30188 0.0
H6168 H 0.08592 0.55485 0.33057 0.0
H6169 H 0.09026 0.53637 0.33278 0.0
H6170 H 0.09097 0.53247 0.29929 0.0
H6171 H 0.08625 0.55084 0.29705 0.0
H6172 H 0.07878 0.51857 0.3075 0.0
H6173 H 0.11538 0.51808 0.33038 0.0
H6174 H 0.1056 0.52585 0.33673 0.0
H6175 H 0.11057 0.5298 0.32415 0.0
C6176 C 0.08726 0.55012 0.32368 0.0
C6177 C 0.08568 0.55432 0.31364 0.0
C6178 C 0.08982 0.53954 0.32495 0.0
C6179 C 0.09107 0.53298 0.3162 0.0
C6180 C 0.09006 0.53733 0.30617 0.0
H6181 H 0.09715 0.46364 0.31808 0.0
H6182 H 0.10165 0.48195 0.31393 0.0
C6183 C 0.08736 0.54785 0.3049 0.0
C6184 C 0.09206 0.52143 0.31749 0.0
H6185 H 0.10487 0.50227 0.33111 0.0
C6186 C 0.08466 0.51503 0.31248 0.0
C6187 C 0.09973 0.5167 0.32396 0.0
C6188 C 0.10833 0.52297 0.32902 0.0
C6189 C 0.08439 0.50419 0.31416 0.0
C6190 C 0.09162 0.49959 0.32112 0.0
C6191 C 0.09932 0.50584 0.32579 0.0
C6192 C 0.09028 0.48861 0.32454 0.0
C6193 C 0.07606 0.49774 0.30884 0.0
C6194 C 0.08261 0.48636 0.332 0.0
C6195 C 0.08001 0.47604 0.3343 0.0
C6196 C 0.08507 0.4677 0.32923 0.0
C6197 C 0.09318 0.46991 0.32215 0.0
C6198 C 0.09574 0.48034 0.31977 0.0
H6199 H 0.07213 0.50211 0.30245 0.0
H6200 H 0.0795 0.49047 0.30557 0.0
H6201 H 0.07007 0.49542 0.31468 0.0
H6202 H 0.0783 0.49263 0.33575 0.0
H6203 H 0.07377 0.47459 0.33984 0.0
H6204 H 0.53927 0.09551 0.3211 0.0
H6205 H 0.5207 0.09916 0.31745 0.0
H6206 H 0.51207 0.07047 0.33292 0.0
H6207 H 0.53039 0.06674 0.33638 0.0
H6208 H 0.50385 0.07203 0.31327 0.0
H6209 H 0.49601 0.10819 0.3361 0.0
H6210 H 0.50702 0.10863 0.32736 0.0
H6211 H 0.5073 0.10004 0.33845 0.0
C6212 C 0.53337 0.09011 0.32387 0.0
C6213 C 0.53629 0.08082 0.32898 0.0
C6214 C 0.52277 0.0922 0.32181 0.0
C6215 C 0.51497 0.08509 0.32494 0.0
C6216 C 0.51792 0.07605 0.33039 0.0
H6217 H 0.4478 0.08562 0.32911 0.0
H6218 H 0.46664 0.08739 0.33195 0.0
C6219 C 0.52842 0.07394 0.33237 0.0
C6220 C 0.50381 0.08644 0.32195 0.0
H6221 H 0.48207 0.10148 0.32598 0.0
C6222 C 0.4991 0.07852 0.31599 0.0
C6223 C 0.49761 0.09485 0.32558 0.0
C6224 C 0.50217 0.10339 0.3323 0.0
C6225 C 0.48837 0.07861 0.31375 0.0
C6226 C 0.48214 0.08704 0.31733 0.0
C6227 C 0.48686 0.09507 0.32317 0.0
C6228 C 0.47064 0.08727 0.31552 0.0
C6229 C 0.48373 0.06943 0.30795 0.0
C6230 C 0.46656 0.08698 0.30533 0.0
C6231 C 0.45581 0.08584 0.30367 0.0
C6232 C 0.44886 0.08514 0.31218 0.0
C6233 C 0.4529 0.08609 0.32237 0.0
C6234 C 0.46369 0.08712 0.32402 0.0
H6235 H 0.48898 0.06251 0.30813 0.0
H6236 H 0.47607 0.06716 0.31132 0.0
H6237 H 0.48251 0.07162 0.29964 0.0
H6238 H 0.47173 0.08734 0.29864 0.0
H6239 H 0.45296 0.0853 0.29572 0.0
H6240 H 0.67215 0.93592 0.47403 0.0
H6241 H 0.67472 0.931 0.4921 0.0
H6242 H 0.68066 0.89914 0.48276 0.0
H6243 H 0.67844 0.90419 0.46428 0.0
H6244 H 0.66408 0.91771 0.50405 0.0
H6245 H 0.7056 0.90498 0.50141 0.0
H6246 H 0.69918 0.91184 0.4909 0.0
H6247 H 0.69645 0.89825 0.49315 0.0
C6248 C 0.67407 0.92786 0.47572 0.0
C6249 C 0.67517 0.92046 0.46766 0.0
C6250 C 0.67549 0.92504 0.48613 0.0
C6251 C 0.67797 0.91472 0.48885 0.0
C6252 C 0.67894 0.9072 0.48086 0.0
H6253 H 0.67642 0.90703 0.55774 0.0
H6254 H 0.67282 0.90331 0.53928 0.0
C6255 C 0.6776 0.91007 0.47031 0.0
C6256 C 0.67947 0.91218 0.50013 0.0
H6257 H 0.69812 0.90573 0.51813 0.0
C6258 C 0.67148 0.91495 0.50714 0.0
C6259 C 0.68914 0.90862 0.50415 0.0
C6260 C 0.69814 0.90581 0.49705 0.0
C6261 C 0.67308 0.91492 0.51801 0.0
C6262 C 0.68285 0.91162 0.52205 0.0
C6263 C 0.69064 0.90825 0.51505 0.0
C6264 C 0.68556 0.91276 0.53334 0.0
C6265 C 0.66451 0.91913 0.52495 0.0
C6266 C 0.69423 0.91884 0.53623 0.0
C6267 C 0.69644 0.92078 0.54675 0.0
C6268 C 0.68996 0.91676 0.55469 0.0
C6269 C 0.68148 0.91037 0.55182 0.0
C6270 C 0.67938 0.90828 0.54126 0.0
H6271 H 0.65858 0.92361 0.52046 0.0
H6272 H 0.66045 0.91252 0.52882 0.0
H6273 H 0.66776 0.92432 0.53111 0.0
H6274 H 0.69914 0.92238 0.5303 0.0
H6275 H 0.70304 0.92573 0.54863 0.0
H6276 H 0.67143 0.06571 0.52913 0.0
H6277 H 0.67373 0.07126 0.51119 0.0
H6278 H 0.67925 0.10289 0.52151 0.0
H6279 H 0.67732 0.0972 0.53983 0.0
H6280 H 0.66295 0.08474 0.49961 0.0
H6281 H 0.70425 0.09809 0.50276 0.0
H6282 H 0.69792 0.09085 0.51307 0.0
H6283 H 0.69492 0.10443 0.51113 0.0
C6284 C 0.67319 0.07386 0.52767 0.0
C6285 C 0.67429 0.08099 0.53596 0.0
C6286 C 0.67445 0.07704 0.51735 0.0
C6287 C 0.67675 0.08748 0.51494 0.0
C6288 C 0.67767 0.09475 0.52316 0.0
H6289 H 0.67611 0.09424 0.44585 0.0
H6290 H 0.67223 0.09896 0.46403 0.0
C6291 C 0.6765 0.09151 0.53362 0.0
C6292 C 0.67824 0.09037 0.50374 0.0
H6293 H 0.69697 0.0973 0.48599 0.0
C6294 C 0.67033 0.08765 0.49662 0.0
C6295 C 0.68788 0.09417 0.49985 0.0
C6296 C 0.69678 0.097 0.50706 0.0
C6297 C 0.67203 0.08781 0.48577 0.0
C6298 C 0.68183 0.09122 0.48186 0.0
C6299 C 0.68947 0.09468 0.48897 0.0
C6300 C 0.68483 0.08979 0.47067 0.0
C6301 C 0.66359 0.08356 0.47869 0.0
C6302 C 0.69356 0.0836 0.46825 0.0
C6303 C 0.69593 0.0811 0.4579 0.0
C6304 C 0.68957 0.08464 0.44963 0.0
C6305 C 0.68111 0.09127 0.452 0.0
C6306 C 0.67883 0.09391 0.46242 0.0
H6307 H 0.65749 0.07924 0.48311 0.0
H6308 H 0.65972 0.09014 0.47458 0.0
H6309 H 0.66695 0.07821 0.47273 0.0
H6310 H 0.69835 0.08033 0.47442 0.0
H6311 H 0.70253 0.07601 0.45644 0.0
H6312 H 0.90882 0.67462 0.44615 0.0
H6313 H 0.90375 0.67073 0.46423 0.0
H6314 H 0.91957 0.69864 0.47463 0.0
H6315 H 0.92424 0.70277 0.45676 0.0
H6316 H 0.91566 0.666 0.47962 0.0
H6317 H 0.89436 0.70107 0.49219 0.0
H6318 H 0.89715 0.69857 0.47858 0.0
H6319 H 0.90661 0.70512 0.48678 0.0
C6320 C 0.91099 0.68005 0.45227 0.0
C6321 C 0.91694 0.68901 0.44994 0.0
C6322 C 0.90809 0.67782 0.46262 0.0
C6323 C 0.91108 0.68448 0.47085 0.0
C6324 C 0.91681 0.69353 0.46847 0.0
H6325 H 0.9354 0.67064 0.52933 0.0
H6326 H 0.93005 0.67268 0.51129 0.0
C6327 C 0.9196 0.69583 0.45817 0.0
C6328 C 0.90941 0.68148 0.48201 0.0
H6329 H 0.90414 0.69195 0.50604 0.0
C6330 C 0.91288 0.67161 0.48534 0.0
C6331 C 0.90553 0.6886 0.48958 0.0
C6332 C 0.90059 0.69887 0.48655 0.0
C6333 C 0.91344 0.66904 0.496 0.0
C6334 C 0.9108 0.67667 0.50359 0.0
C6335 C 0.90643 0.68617 0.50027 0.0
C6336 C 0.91372 0.6754 0.51479 0.0
C6337 C 0.91714 0.65825 0.49901 0.0
C6338 C 0.90642 0.6767 0.52293 0.0
C6339 C 0.90954 0.67571 0.53344 0.0
C6340 C 0.92001 0.67345 0.53593 0.0
C6341 C 0.92726 0.6723 0.52775 0.0
C6342 C 0.92418 0.67336 0.51736 0.0
H6343 H 0.91484 0.6524 0.49302 0.0
H6344 H 0.9258 0.65823 0.49948 0.0
H6345 H 0.91393 0.65579 0.50669 0.0
H6346 H 0.89832 0.67842 0.52115 0.0
H6347 H 0.90378 0.67668 0.53957 0.0
H6348 H 0.33092 0.9171 0.44791 0.0
H6349 H 0.33392 0.91356 0.46651 0.0
H6350 H 0.30091 0.91648 0.47251 0.0
H6351 H 0.29781 0.92013 0.45399 0.0
H6352 H 0.32573 0.92971 0.4826 0.0
H6353 H 0.31203 0.88885 0.48868 0.0
H6354 H 0.31703 0.89333 0.47624 0.0
H6355 H 0.30432 0.89738 0.48053 0.0
C6356 C 0.32426 0.91678 0.45313 0.0
C6357 C 0.31412 0.91896 0.44944 0.0
C6358 C 0.326 0.91477 0.46376 0.0
C6359 C 0.31763 0.91469 0.47085 0.0
C6360 C 0.30746 0.91639 0.46714 0.0
H6361 H 0.31207 0.91283 0.53878 0.0
H6362 H 0.30922 0.9103 0.5199 0.0
C6363 C 0.30572 0.91853 0.45655 0.0
C6364 C 0.31962 0.91406 0.48226 0.0
H6365 H 0.31699 0.89838 0.50374 0.0
C6366 C 0.3239 0.92284 0.48722 0.0
C6367 C 0.31702 0.90516 0.48827 0.0
C6368 C 0.31238 0.89559 0.48322 0.0
C6369 C 0.32555 0.92303 0.49807 0.0
C6370 C 0.32323 0.91401 0.5041 0.0
C6371 C 0.31887 0.90523 0.49913 0.0
C6372 C 0.32523 0.91372 0.51557 0.0
C6373 C 0.32945 0.93304 0.50297 0.0
C6374 C 0.33526 0.91593 0.51946 0.0
C6375 C 0.33683 0.91752 0.53014 0.0
C6376 C 0.32849 0.91655 0.5372 0.0
C6377 C 0.31865 0.91344 0.53347 0.0
C6378 C 0.31702 0.91207 0.5227 0.0
H6379 H 0.32778 0.93992 0.49794 0.0
H6380 H 0.32582 0.93437 0.51074 0.0
H6381 H 0.33805 0.93256 0.504 0.0
H6382 H 0.34179 0.91695 0.51416 0.0
H6383 H 0.34447 0.91997 0.53285 0.0
H6384 H 0.09407 0.31414 0.53882 0.0
H6385 H 0.0982 0.30995 0.52044 0.0
H6386 H 0.08292 0.33832 0.51056 0.0
H6387 H 0.0786 0.34236 0.52872 0.0
H6388 H 0.07999 0.30901 0.50468 0.0
H6389 H 0.11176 0.33649 0.49367 0.0
H6390 H 0.1098 0.33201 0.50694 0.0
H6391 H 0.10133 0.34178 0.50151 0.0
C6392 C 0.0919 0.31961 0.53273 0.0
C6393 C 0.08609 0.32861 0.53516 0.0
C6394 C 0.0942 0.31719 0.52226 0.0
C6395 C 0.09094 0.32388 0.51416 0.0
C6396 C 0.08563 0.33313 0.51668 0.0
H6397 H 0.08353 0.32916 0.4479 0.0
H6398 H 0.08673 0.33153 0.46661 0.0
C6399 C 0.08316 0.33542 0.52706 0.0
C6400 C 0.09185 0.32078 0.50302 0.0
H6401 H 0.10252 0.32834 0.47973 0.0
C6402 C 0.08506 0.31307 0.49922 0.0
C6403 C 0.09832 0.32625 0.49593 0.0
C6404 C 0.10579 0.33456 0.49968 0.0
C6405 C 0.08419 0.31099 0.48846 0.0
C6406 C 0.09058 0.31655 0.4813 0.0
C6407 C 0.09763 0.32405 0.48517 0.0
C6408 C 0.0896 0.31514 0.46975 0.0
C6409 C 0.07596 0.30332 0.48488 0.0
C6410 C 0.09048 0.3052 0.46516 0.0
C6411 C 0.08846 0.3038 0.45449 0.0
C6412 C 0.08579 0.31236 0.4481 0.0
C6413 C 0.08556 0.3224 0.45258 0.0
C6414 C 0.08739 0.32376 0.4633 0.0
H6415 H 0.0699 0.30202 0.49097 0.0
H6416 H 0.07203 0.30607 0.47765 0.0
H6417 H 0.07971 0.29567 0.48323 0.0
H6418 H 0.09252 0.29847 0.46986 0.0
H6419 H 0.08887 0.29598 0.45126 0.0
H6420 H 0.33046 0.08523 0.55554 0.0
H6421 H 0.33263 0.08867 0.53686 0.0
H6422 H 0.2994 0.08524 0.5323 0.0
H6423 H 0.29721 0.08148 0.55088 0.0
H6424 H 0.30952 0.07347 0.5191 0.0
H6425 H 0.32735 0.11279 0.51758 0.0
H6426 H 0.33461 0.10416 0.5259 0.0
H6427 H 0.3214 0.10766 0.5293 0.0
C6428 C 0.32358 0.08541 0.5506 0.0
C6429 C 0.31367 0.08301 0.55472 0.0
C6430 C 0.32483 0.08746 0.5399 0.0
C6431 C 0.31616 0.08735 0.53314 0.0
C6432 C 0.30621 0.08539 0.53734 0.0
H6433 H 0.31989 0.09604 0.46429 0.0
H6434 H 0.3156 0.0994 0.48281 0.0
C6435 C 0.30498 0.08323 0.54798 0.0
C6436 C 0.31759 0.08806 0.52158 0.0
H6437 H 0.32937 0.10212 0.50209 0.0
C6438 C 0.31371 0.07984 0.5154 0.0
C6439 C 0.32296 0.09641 0.51665 0.0
C6440 C 0.32672 0.1058 0.5227 0.0
C6441 C 0.31545 0.07951 0.50458 0.0
C6442 C 0.32141 0.08748 0.49978 0.0
C6443 C 0.32489 0.09596 0.50581 0.0
C6444 C 0.32482 0.0865 0.48873 0.0
C6445 C 0.31109 0.07046 0.49839 0.0
C6446 C 0.33166 0.0784 0.486 0.0
C6447 C 0.33406 0.07648 0.47556 0.0
C6448 C 0.32975 0.08266 0.46756 0.0
C6449 C 0.32333 0.09117 0.47029 0.0
C6450 C 0.32087 0.09307 0.48084 0.0
H6451 H 0.30448 0.06663 0.50253 0.0
H6452 H 0.30836 0.07306 0.49057 0.0
H6453 H 0.31732 0.06453 0.49723 0.0
H6454 H 0.3349 0.07334 0.49197 0.0
H6455 H 0.33912 0.06993 0.47374 0.0
H6456 H 0.90585 0.32143 0.46298 0.0
H6457 H 0.90133 0.3178 0.48138 0.0
H6458 H 0.92845 0.33511 0.49143 0.0
H6459 H 0.93301 0.33863 0.47331 0.0
H6460 H 0.92722 0.31418 0.49889 0.0
H6461 H 0.89074 0.33677 0.50625 0.0
H6462 H 0.8914 0.3288 0.49466 0.0
H6463 H 0.89964 0.34007 0.49579 0.0
C6464 C 0.9107 0.32462 0.46915 0.0
C6465 C 0.91982 0.33025 0.46671 0.0
C6466 C 0.9081 0.32256 0.47964 0.0
C6467 C 0.91456 0.3262 0.48778 0.0
C6468 C 0.92337 0.33221 0.4853 0.0
H6469 H 0.91632 0.3303 0.55452 0.0
H6470 H 0.91301 0.33321 0.53587 0.0
C6471 C 0.92597 0.33421 0.47491 0.0
C6472 C 0.91293 0.32304 0.49884 0.0
H6473 H 0.89782 0.32736 0.52047 0.0
C6474 C 0.92072 0.31695 0.50358 0.0
C6475 C 0.90451 0.32676 0.50495 0.0
C6476 C 0.89608 0.33352 0.50023 0.0
C6477 C 0.92051 0.31472 0.51431 0.0
C6478 C 0.91212 0.31848 0.52049 0.0
C6479 C 0.90419 0.32441 0.51572 0.0
C6480 C 0.91193 0.31678 0.532 0.0
C6481 C 0.92955 0.30875 0.51901 0.0
C6482 C 0.9119 0.30661 0.53611 0.0
C6483 C 0.9139 0.30492 0.54672 0.0
C6484 C 0.91582 0.31339 0.55349 0.0
C6485 C 0.91489 0.32361 0.54954 0.0
C6486 C 0.913 0.32529 0.53887 0.0
H6487 H 0.93643 0.30855 0.51371 0.0
H6488 H 0.932 0.31227 0.52656 0.0
H6489 H 0.92711 0.30056 0.52051 0.0
H6490 H 0.91088 0.29993 0.531 0.0
H6491 H 0.91442 0.29695 0.54953 0.0
H6492 H 0.06697 0.67064 0.47362 0.0
H6493 H 0.07192 0.67306 0.4917 0.0
H6494 H 0.1031 0.6817 0.4822 0.0
H6495 H 0.09801 0.67956 0.46371 0.0
H6496 H 0.0864 0.66326 0.50335 0.0
H6497 H 0.09511 0.70586 0.50132 0.0
H6498 H 0.08865 0.69904 0.4908 0.0
H6499 H 0.10245 0.69742 0.49281 0.0
C6500 C 0.0749 0.6731 0.47528 0.0
C6501 C 0.08207 0.67499 0.46717 0.0
C6502 C 0.07773 0.67443 0.48569 0.0
C6503 C 0.08785 0.67764 0.48838 0.0
C6504 C 0.09518 0.67938 0.48033 0.0
H6505 H 0.09454 0.67644 0.55748 0.0
H6506 H 0.09923 0.67332 0.53915 0.0
C6507 C 0.0923 0.6781 0.46978 0.0
C6508 C 0.09034 0.67918 0.49966 0.0
H6509 H 0.09464 0.69819 0.51794 0.0
C6510 C 0.08838 0.67085 0.50655 0.0
C6511 C 0.09289 0.6891 0.50383 0.0
C6512 C 0.09484 0.69842 0.49685 0.0
C6513 C 0.08814 0.67232 0.51744 0.0
C6514 C 0.09031 0.68234 0.52162 0.0
C6515 C 0.09297 0.69051 0.51475 0.0
C6516 C 0.08853 0.68485 0.53288 0.0
C6517 C 0.08481 0.66328 0.52426 0.0
C6518 C 0.08136 0.69271 0.53555 0.0
C6519 C 0.07882 0.69465 0.546 0.0
C6520 C 0.08334 0.68872 0.55409 0.0
C6521 C 0.09081 0.68107 0.55146 0.0
C6522 C 0.09346 0.67923 0.54096 0.0
H6523 H 0.08123 0.65685 0.51965 0.0
H6524 H 0.09175 0.66006 0.52835 0.0
H6525 H 0.07908 0.66586 0.53025 0.0
H6526 H 0.07744 0.69718 0.52951 0.0
H6527 H 0.07305 0.70062 0.54768 0.0
H6528 H 0.05457 0.16607 0.52758 0.0
H6529 H 0.06383 0.16153 0.51179 0.0
H6530 H 0.09299 0.16101 0.52876 0.0
H6531 H 0.08368 0.16594 0.5448 0.0
H6532 H 0.09507 0.17239 0.51237 0.0
H6533 H 0.07629 0.13666 0.49843 0.0
H6534 H 0.06596 0.14545 0.5018 0.0
H6535 H 0.07488 0.14098 0.51181 0.0
C6536 C 0.06293 0.16484 0.52808 0.0
C6537 C 0.06837 0.16649 0.53749 0.0
C6538 C 0.06822 0.16205 0.51901 0.0
C6539 C 0.0791 0.16062 0.51908 0.0
C6540 C 0.08457 0.16191 0.52853 0.0
H6541 H 0.09354 0.16248 0.45155 0.0
H6542 H 0.09528 0.15448 0.46902 0.0
C6543 C 0.07925 0.16479 0.53768 0.0
C6544 C 0.08464 0.15958 0.50893 0.0
H6545 H 0.07995 0.15014 0.48443 0.0
C6546 C 0.09208 0.16722 0.50635 0.0
C6547 C 0.08111 0.15264 0.50105 0.0
C6548 C 0.07421 0.1434 0.5035 0.0
C6549 C 0.0948 0.1691 0.49592 0.0
C6550 C 0.08974 0.1634 0.48791 0.0
C6551 C 0.08357 0.15474 0.49056 0.0
C6552 C 0.08884 0.16779 0.47724 0.0
C6553 C 0.10237 0.17781 0.4935 0.0
C6554 C 0.08428 0.17768 0.4761 0.0
C6555 C 0.08325 0.18219 0.46629 0.0
C6556 C 0.08667 0.17689 0.45729 0.0
C6557 C 0.09087 0.16676 0.45834 0.0
C6558 C 0.09192 0.16222 0.46829 0.0
H6559 H 0.1084 0.17846 0.49973 0.0
H6560 H 0.10632 0.17657 0.48587 0.0
H6561 H 0.09808 0.18534 0.49322 0.0
H6562 H 0.08149 0.18195 0.48287 0.0
H6563 H 0.0798 0.1899 0.46579 0.0
H6564 H 0.81061 0.08376 0.46463 0.0
H6565 H 0.81807 0.08431 0.48197 0.0
H6566 H 0.84833 0.09161 0.469 0.0
H6567 H 0.84087 0.09085 0.45129 0.0
H6568 H 0.84988 0.07673 0.48348 0.0
H6569 H 0.82618 0.10816 0.50041 0.0
H6570 H 0.81748 0.09913 0.4942 0.0
H6571 H 0.82698 0.10612 0.48645 0.0
C6572 C 0.81884 0.0856 0.46537 0.0
C6573 C 0.82512 0.08731 0.45651 0.0
C6574 C 0.82308 0.08603 0.47537 0.0
C6575 C 0.83369 0.08835 0.47684 0.0
C6576 C 0.84007 0.08999 0.46805 0.0
H6577 H 0.83888 0.08148 0.54477 0.0
H6578 H 0.84282 0.09034 0.52819 0.0
C6579 C 0.83581 0.08951 0.45794 0.0
C6580 C 0.83801 0.08798 0.4876 0.0
H6581 H 0.83049 0.0936 0.51253 0.0
C6582 C 0.84589 0.08068 0.48984 0.0
C6583 C 0.83317 0.0934 0.49594 0.0
C6584 C 0.82558 0.10223 0.49408 0.0
C6585 C 0.84801 0.07768 0.50018 0.0
C6586 C 0.84185 0.08183 0.50839 0.0
C6587 C 0.83501 0.09014 0.50625 0.0
C6588 C 0.84094 0.07647 0.51866 0.0
C6589 C 0.85647 0.0697 0.50211 0.0
C6590 C 0.8385 0.06578 0.51883 0.0
C6591 C 0.83632 0.06073 0.52821 0.0
C6592 C 0.83629 0.06627 0.53771 0.0
C6593 C 0.83882 0.07698 0.5376 0.0
C6594 C 0.84111 0.08204 0.52813 0.0
H6595 H 0.86312 0.07095 0.49666 0.0
H6596 H 0.85943 0.07005 0.51026 0.0
H6597 H 0.85334 0.06176 0.50058 0.0
H6598 H 0.83787 0.06136 0.51163 0.0
H6599 H 0.83433 0.05251 0.52792 0.0
H6600 H 0.92325 0.84381 0.54486 0.0
H6601 H 0.91556 0.84909 0.52795 0.0
H6602 H 0.93335 0.82503 0.51243 0.0
H6603 H 0.94116 0.81993 0.52906 0.0
H6604 H 0.9332 0.85217 0.50762 0.0
H6605 H 0.89845 0.82641 0.50365 0.0
H6606 H 0.90278 0.83156 0.51611 0.0
H6607 H 0.90965 0.82087 0.51015 0.0
C6608 C 0.92533 0.83955 0.53784 0.0
C6609 C 0.93283 0.83152 0.5382 0.0
C6610 C 0.92097 0.84259 0.52823 0.0
C6611 C 0.92394 0.83743 0.51901 0.0
C6612 C 0.93099 0.82908 0.51949 0.0
H6613 H 0.93741 0.82538 0.46089 0.0
H6614 H 0.93601 0.8328 0.47841 0.0
C6615 C 0.93545 0.82619 0.52898 0.0
C6616 C 0.92059 0.84106 0.5086 0.0
H6617 H 0.90674 0.83196 0.48776 0.0
C6618 C 0.92712 0.84811 0.50332 0.0
C6619 C 0.91267 0.83576 0.50306 0.0
C6620 C 0.9054 0.82826 0.50851 0.0
C6621 C 0.92669 0.84908 0.49241 0.0
C6622 C 0.91957 0.84283 0.48673 0.0
C6623 C 0.91221 0.83674 0.49214 0.0
C6624 C 0.92124 0.84055 0.47553 0.0
C6625 C 0.93442 0.85609 0.48695 0.0
C6626 C 0.91351 0.84267 0.46803 0.0
C6627 C 0.91442 0.83858 0.4579 0.0
C6628 C 0.9229 0.83208 0.45533 0.0
C6629 C 0.93084 0.83041 0.4627 0.0
C6630 C 0.93005 0.83467 0.47269 0.0
H6631 H 0.93691 0.86263 0.4921 0.0
H6632 H 0.94147 0.85148 0.48487 0.0
H6633 H 0.93105 0.85936 0.47964 0.0
H6634 H 0.9066 0.84707 0.47015 0.0
H6635 H 0.90815 0.83984 0.45236 0.0
H6636 H 0.18813 0.90755 0.46408 0.0
H6637 H 0.17995 0.90807 0.48123 0.0
H6638 H 0.15366 0.92478 0.46831 0.0
H6639 H 0.16188 0.92426 0.45093 0.0
H6640 H 0.1643 0.93515 0.48431 0.0
H6641 H 0.15531 0.89478 0.49671 0.0
H6642 H 0.16811 0.89586 0.49108 0.0
H6643 H 0.15679 0.89844 0.48313 0.0
C6644 C 0.18049 0.91114 0.46482 0.0
C6645 C 0.1757 0.916 0.45621 0.0
C6646 C 0.17576 0.9113 0.47461 0.0
C6647 C 0.16613 0.91633 0.47602 0.0
C6648 C 0.16104 0.92073 0.46734 0.0
H6649 H 0.15247 0.94371 0.5371 0.0
H6650 H 0.14841 0.9366 0.5198 0.0
C6651 C 0.16574 0.92045 0.45744 0.0
C6652 C 0.1626 0.91862 0.48679 0.0
H6653 H 0.15906 0.90716 0.51064 0.0
C6654 C 0.16284 0.92907 0.49004 0.0
C6655 C 0.16084 0.91064 0.49424 0.0
C6656 C 0.16015 0.8993 0.49109 0.0
C6657 C 0.16222 0.93174 0.50064 0.0
C6658 C 0.16093 0.92372 0.50819 0.0
C6659 C 0.16005 0.91329 0.50487 0.0
C6660 C 0.1616 0.926 0.51953 0.0
C6661 C 0.16378 0.94306 0.50367 0.0
C6662 C 0.16979 0.92171 0.52549 0.0
C6663 C 0.1719 0.92552 0.53552 0.0
C6664 C 0.16594 0.93377 0.53961 0.0
C6665 C 0.15723 0.93742 0.53401 0.0
C6666 C 0.15496 0.93342 0.52413 0.0
H6667 H 0.16705 0.94777 0.49714 0.0
H6668 H 0.15614 0.94653 0.50586 0.0
H6669 H 0.16914 0.94374 0.51046 0.0
H6670 H 0.17497 0.91592 0.52212 0.0
H6671 H 0.17866 0.92262 0.53971 0.0
H6672 H 0.08252 0.83683 0.45772 0.0
H6673 H 0.09087 0.84102 0.47451 0.0
H6674 H 0.06063 0.84122 0.48944 0.0
H6675 H 0.0523 0.83736 0.47291 0.0
H6676 H 0.07338 0.85694 0.49682 0.0
H6677 H 0.09391 0.81841 0.49666 0.0
H6678 H 0.09659 0.8274 0.4862 0.0
H6679 H 0.08392 0.82143 0.48719 0.0
C6680 C 0.07766 0.83787 0.46457 0.0
C6681 C 0.06674 0.83657 0.46397 0.0
C6682 C 0.08245 0.84025 0.47415 0.0
C6683 C 0.07638 0.84131 0.48325 0.0
C6684 C 0.06548 0.84048 0.48253 0.0
H6685 H 0.06738 0.82151 0.5406 0.0
H6686 H 0.06892 0.82877 0.52305 0.0
C6687 C 0.06072 0.83816 0.47303 0.0
C6688 C 0.08108 0.84226 0.4938 0.0
H6689 H 0.0919 0.82682 0.51266 0.0
C6690 C 0.07777 0.85054 0.50024 0.0
C6691 C 0.08682 0.8339 0.49825 0.0
C6692 C 0.09051 0.82474 0.49178 0.0
C6693 C 0.07906 0.85012 0.51114 0.0
C6694 C 0.08387 0.84127 0.51561 0.0
C6695 C 0.08821 0.83359 0.50912 0.0
C6696 C 0.08223 0.83854 0.52669 0.0
C6697 C 0.07441 0.85857 0.51789 0.0
C6698 C 0.08899 0.84197 0.53462 0.0
C6699 C 0.08803 0.83791 0.54478 0.0
C6700 C 0.08041 0.83028 0.54696 0.0
C6701 C 0.07334 0.82735 0.5391 0.0
C6702 C 0.07422 0.83147 0.52909 0.0
H6703 H 0.07215 0.86556 0.51326 0.0
H6704 H 0.06735 0.85548 0.52188 0.0
H6705 H 0.08007 0.86095 0.52403 0.0
H6706 H 0.09524 0.84741 0.53286 0.0
H6707 H 0.09362 0.84021 0.5507 0.0
H6708 H 0.16006 0.08061 0.4574 0.0
H6709 H 0.15462 0.08896 0.47394 0.0
H6710 H 0.17828 0.07152 0.49044 0.0
H6711 H 0.18354 0.06306 0.47418 0.0
H6712 H 0.15076 0.07243 0.49467 0.0
H6713 H 0.17757 0.1064 0.49818 0.0
H6714 H 0.17262 0.10179 0.48574 0.0
H6715 H 0.18298 0.09485 0.49219 0.0
C6716 C 0.1642 0.07875 0.46455 0.0
C6717 C 0.17216 0.07116 0.46458 0.0
C6718 C 0.16107 0.08347 0.47395 0.0
C6719 C 0.16607 0.08081 0.48334 0.0
C6720 C 0.17436 0.07366 0.48324 0.0
H6721 H 0.17716 0.06773 0.54129 0.0
H6722 H 0.16958 0.06925 0.52386 0.0
C6723 C 0.17733 0.06883 0.47397 0.0
C6724 C 0.16235 0.08459 0.49357 0.0
H6725 H 0.17173 0.09852 0.51422 0.0
C6726 C 0.15499 0.07844 0.49889 0.0
C6727 C 0.16785 0.09245 0.49901 0.0
C6728 C 0.17566 0.09933 0.4935 0.0
C6729 C 0.15393 0.07913 0.50978 0.0
C6730 C 0.1604 0.0861 0.51539 0.0
C6731 C 0.16678 0.09315 0.5099 0.0
C6732 C 0.16265 0.08445 0.5266 0.0
C6733 C 0.14658 0.07177 0.51531 0.0
C6734 C 0.16106 0.0924 0.53401 0.0
C6735 C 0.16525 0.09143 0.54409 0.0
C6736 C 0.17131 0.08265 0.54671 0.0
C6737 C 0.17245 0.07452 0.53945 0.0
C6738 C 0.16808 0.07538 0.52951 0.0
H6739 H 0.13992 0.06957 0.51019 0.0
H6740 H 0.15085 0.06451 0.51739 0.0
H6741 H 0.1435 0.07531 0.52262 0.0
H6742 H 0.15702 0.09952 0.53184 0.0
H6743 H 0.16441 0.09785 0.54956 0.0
H6744 H 0.89902 0.18325 0.5441 0.0
H6745 H 0.89834 0.17705 0.52604 0.0
H6746 H 0.92645 0.15909 0.53123 0.0
H6747 H 0.92677 0.16488 0.54949 0.0
H6748 H 0.91283 0.18304 0.51345 0.0
H6749 H 0.91172 0.13998 0.51146 0.0
H6750 H 0.90842 0.14705 0.52323 0.0
H6751 H 0.92188 0.14426 0.52011 0.0
C6752 C 0.90479 0.17763 0.54146 0.0
C6753 C 0.91295 0.17452 0.5481 0.0
C6754 C 0.90441 0.1741 0.53116 0.0
C6755 C 0.91232 0.16758 0.52724 0.0
C6756 C 0.9201 0.1639 0.5341 0.0
H6757 H 0.94794 0.16243 0.47338 0.0
H6758 H 0.93868 0.15989 0.48981 0.0
C6759 C 0.92033 0.16725 0.54452 0.0
C6760 C 0.91356 0.16636 0.51576 0.0
H6761 H 0.91975 0.14884 0.49658 0.0
C6762 C 0.91404 0.17552 0.50972 0.0
C6763 C 0.9152 0.15657 0.51087 0.0
C6764 C 0.91417 0.14641 0.51676 0.0
C6765 C 0.91675 0.17524 0.49912 0.0
C6766 C 0.91895 0.16551 0.49438 0.0
C6767 C 0.91801 0.15628 0.50025 0.0
C6768 C 0.92372 0.16505 0.48386 0.0
C6769 C 0.91791 0.18543 0.49325 0.0
C6770 C 0.91827 0.16842 0.47495 0.0
C6771 C 0.92357 0.16994 0.46549 0.0
C6772 C 0.9344 0.16815 0.46486 0.0
C6773 C 0.93963 0.16406 0.47363 0.0
C6774 C 0.93434 0.16251 0.48302 0.0
H6775 H 0.91723 0.19234 0.49847 0.0
H6776 H 0.92561 0.18575 0.48924 0.0
H6777 H 0.91173 0.18599 0.4872 0.0
H6778 H 0.91004 0.17035 0.47545 0.0
H6779 H 0.9193 0.17302 0.45885 0.0
H6780 H 0.83613 0.9201 0.45765 0.0
H6781 H 0.84019 0.91093 0.47404 0.0
H6782 H 0.84112 0.94048 0.49028 0.0
H6783 H 0.83745 0.9496 0.47415 0.0
H6784 H 0.85615 0.92708 0.49748 0.0
H6785 H 0.81722 0.90741 0.49552 0.0
H6786 H 0.82649 0.90489 0.48528 0.0
H6787 H 0.82068 0.91763 0.48647 0.0
C6788 C 0.83733 0.92462 0.4647 0.0
C6789 C 0.83626 0.93558 0.4646 0.0
C6790 C 0.83963 0.91937 0.47406 0.0
C6791 C 0.8408 0.92501 0.48342 0.0
C6792 C 0.84028 0.93594 0.48316 0.0
H6793 H 0.81781 0.93217 0.53961 0.0
H6794 H 0.82521 0.93044 0.52217 0.0
C6795 C 0.83807 0.94116 0.4739 0.0
C6796 C 0.84139 0.91985 0.49379 0.0
H6797 H 0.82501 0.90907 0.51184 0.0
C6798 C 0.84952 0.9228 0.50058 0.0
C6799 C 0.83276 0.91421 0.4978 0.0
C6800 C 0.82375 0.91085 0.49095 0.0
C6801 C 0.84864 0.92138 0.51144 0.0
C6802 C 0.83949 0.91678 0.51549 0.0
C6803 C 0.83199 0.91266 0.50863 0.0
C6804 C 0.83629 0.9184 0.52646 0.0
C6805 C 0.85692 0.92577 0.51857 0.0
C6806 C 0.84037 0.91246 0.53473 0.0
C6807 C 0.83619 0.91353 0.54483 0.0
C6808 C 0.82783 0.92044 0.54665 0.0
C6809 C 0.82418 0.92671 0.53842 0.0
C6810 C 0.82839 0.92572 0.52845 0.0
H6811 H 0.86389 0.92855 0.51419 0.0
H6812 H 0.85363 0.93242 0.52308 0.0
H6813 H 0.85942 0.91972 0.52427 0.0
H6814 H 0.84646 0.90675 0.53331 0.0
H6815 H 0.83909 0.90856 0.55105 0.0
H6816 H 0.45293 0.09872 0.16399 0.0
H6817 H 0.47055 0.10071 0.15646 0.0
H6818 H 0.4793 0.07075 0.16923 0.0
H6819 H 0.46195 0.06891 0.17695 0.0
H6820 H 0.4881 0.10036 0.1711 0.0
H6821 H 0.49304 0.07117 0.13964 0.0
H6822 H 0.48044 0.07656 0.14317 0.0
H6823 H 0.48602 0.06602 0.15064 0.0
C6824 C 0.45854 0.09243 0.16484 0.0
C6825 C 0.45617 0.08366 0.17101 0.0
C6826 C 0.46856 0.09358 0.16056 0.0
C6827 C 0.47616 0.08582 0.16219 0.0
C6828 C 0.47349 0.07673 0.16771 0.0
H6829 H 0.5299 0.06871 0.18481 0.0
H6830 H 0.51355 0.07722 0.17981 0.0
C6831 C 0.46361 0.0757 0.17216 0.0
C6832 C 0.48733 0.08776 0.15994 0.0
H6833 H 0.50849 0.07472 0.15036 0.0
C6834 C 0.49258 0.09506 0.16623 0.0
C6835 C 0.49315 0.08091 0.15353 0.0
C6836 C 0.48786 0.07329 0.14628 0.0
C6837 C 0.5035 0.09476 0.16727 0.0
C6838 C 0.5092 0.08702 0.16185 0.0
C6839 C 0.50407 0.08062 0.15456 0.0
C6840 C 0.51966 0.08375 0.16545 0.0
C6841 C 0.50877 0.10205 0.17487 0.0
C6842 C 0.52855 0.08482 0.15911 0.0
C6843 C 0.538 0.08012 0.16208 0.0
C6844 C 0.5385 0.07407 0.17125 0.0
C6845 C 0.52968 0.07336 0.17772 0.0
C6846 C 0.52038 0.07823 0.17489 0.0
H6847 H 0.50408 0.10925 0.17613 0.0
H6848 H 0.50965 0.09803 0.18251 0.0
H6849 H 0.51668 0.10426 0.17205 0.0
H6850 H 0.52807 0.08895 0.15173 0.0
H6851 H 0.5447 0.08066 0.15693 0.0
H6852 H 0.91939 0.46352 0.1945 0.0
H6853 H 0.91872 0.481 0.1873 0.0
H6854 H 0.91027 0.4685 0.15714 0.0
H6855 H 0.91117 0.45069 0.16431 0.0
H6856 H 0.92514 0.4828 0.1552 0.0
H6857 H 0.89478 0.49973 0.18029 0.0
H6858 H 0.90418 0.49346 0.18854 0.0
H6859 H 0.89673 0.48578 0.17933 0.0
C6860 C 0.91727 0.46441 0.18635 0.0
C6861 C 0.91528 0.45566 0.18 0.0
C6862 C 0.91677 0.47447 0.18226 0.0
C6863 C 0.9141 0.47611 0.17176 0.0
C6864 C 0.91217 0.46742 0.16532 0.0
H6865 H 0.92043 0.54412 0.16574 0.0
H6866 H 0.91159 0.52741 0.16238 0.0
C6867 C 0.91273 0.45726 0.16941 0.0
C6868 C 0.9144 0.48691 0.16753 0.0
H6869 H 0.90905 0.51185 0.17523 0.0
C6870 C 0.92136 0.48915 0.15936 0.0
C6871 C 0.90919 0.49525 0.17262 0.0
C6872 C 0.90071 0.49339 0.18059 0.0
C6873 C 0.92423 0.49949 0.15707 0.0
C6874 C 0.92029 0.50771 0.16336 0.0
C6875 C 0.91233 0.50556 0.17059 0.0
C6876 C 0.92559 0.51803 0.16394 0.0
C6877 C 0.93184 0.50143 0.14829 0.0
C6878 C 0.93636 0.51832 0.166 0.0
C6879 C 0.94139 0.52777 0.16787 0.0
C6880 C 0.93578 0.53723 0.16794 0.0
C6881 C 0.92499 0.53699 0.16575 0.0
C6882 C 0.91994 0.52745 0.1638 0.0
H6883 H 0.93042 0.49589 0.14175 0.0
H6884 H 0.93128 0.50954 0.14526 0.0
H6885 H 0.93992 0.50004 0.15113 0.0
H6886 H 0.94085 0.51117 0.16657 0.0
H6887 H 0.94969 0.52758 0.16958 0.0
H6888 H 0.46626 0.94528 0.15294 0.0
H6889 H 0.48336 0.93779 0.14892 0.0
H6890 H 0.47913 0.91509 0.17354 0.0
H6891 H 0.46175 0.92222 0.17713 0.0
H6892 H 0.49821 0.93943 0.16203 0.0
H6893 H 0.49463 0.89741 0.15335 0.0
H6894 H 0.48348 0.90607 0.15307 0.0
H6895 H 0.48784 0.90039 0.16522 0.0
C6896 C 0.46886 0.93845 0.15723 0.0
C6897 C 0.46277 0.93433 0.16537 0.0
C6898 C 0.47862 0.93417 0.15492 0.0
C6899 C 0.48257 0.92584 0.16088 0.0
C6900 C 0.47619 0.92132 0.16863 0.0
H6901 H 0.53758 0.90943 0.18946 0.0
H6902 H 0.52041 0.91026 0.1813 0.0
C6903 C 0.46628 0.92545 0.17075 0.0
C6904 C 0.49387 0.92323 0.16033 0.0
H6905 H 0.51119 0.90292 0.16129 0.0
C6906 C 0.50105 0.93146 0.16153 0.0
C6907 C 0.49763 0.91284 0.1597 0.0
C6908 C 0.49047 0.90371 0.15765 0.0
C6909 C 0.51174 0.92956 0.16288 0.0
C6910 C 0.51539 0.91914 0.16299 0.0
C6911 C 0.50835 0.91091 0.16119 0.0
C6912 C 0.52604 0.91671 0.16673 0.0
C6913 C 0.51895 0.93868 0.16496 0.0
C6914 C 0.53495 0.91972 0.16106 0.0
C6915 C 0.54485 0.91927 0.16573 0.0
C6916 C 0.54589 0.9159 0.17614 0.0
C6917 C 0.53701 0.91224 0.18149 0.0
C6918 C 0.52719 0.91261 0.17681 0.0
H6919 H 0.51466 0.94621 0.16563 0.0
H6920 H 0.5234 0.93738 0.1723 0.0
H6921 H 0.52467 0.93938 0.15848 0.0
H6922 H 0.53418 0.92287 0.15324 0.0
H6923 H 0.55157 0.92209 0.16141 0.0
H6924 H 0.0914 0.55298 0.16314 0.0
H6925 H 0.09248 0.53522 0.15582 0.0
H6926 H 0.08094 0.5226 0.18489 0.0
H6927 H 0.08003 0.54002 0.19224 0.0
H6928 H 0.09816 0.51179 0.17711 0.0
H6929 H 0.06742 0.51739 0.14669 0.0
H6930 H 0.07861 0.52592 0.14674 0.0
H6931 H 0.06919 0.52675 0.15709 0.0
C6932 C 0.08908 0.5464 0.16793 0.0
C6933 C 0.08563 0.54793 0.17828 0.0
C6934 C 0.08971 0.53627 0.16374 0.0
C6935 C 0.08679 0.52759 0.16982 0.0
C6936 C 0.08334 0.52917 0.18009 0.0
H6937 H 0.05342 0.47602 0.17273 0.0
H6938 H 0.06233 0.49228 0.16905 0.0
C6939 C 0.08278 0.53917 0.18428 0.0
C6940 C 0.08685 0.51676 0.16571 0.0
H6941 H 0.07145 0.50027 0.15154 0.0
C6942 C 0.09255 0.50922 0.17129 0.0
C6943 C 0.07961 0.51349 0.15803 0.0
C6944 C 0.0733 0.52126 0.15177 0.0
C6945 C 0.09027 0.49853 0.17037 0.0
C6946 C 0.08226 0.49533 0.16345 0.0
C6947 C 0.07752 0.50278 0.1569 0.0
C6948 C 0.077 0.48506 0.16466 0.0
C6949 C 0.09567 0.49091 0.17759 0.0
C6950 C 0.08226 0.4755 0.16337 0.0
C6951 C 0.07717 0.46605 0.16566 0.0
C6952 C 0.06672 0.46605 0.16914 0.0
C6953 C 0.06145 0.47565 0.17007 0.0
C6954 C 0.06653 0.48501 0.1679 0.0
H6955 H 0.10095 0.49489 0.18323 0.0
H6956 H 0.08981 0.48633 0.18207 0.0
H6957 H 0.10041 0.48536 0.17291 0.0
H6958 H 0.09029 0.47535 0.16072 0.0
H6959 H 0.08141 0.45878 0.16476 0.0
H6960 H 0.45304 0.90664 0.83923 0.0
H6961 H 0.4707 0.90494 0.8468 0.0
H6962 H 0.47951 0.93419 0.83251 0.0
H6963 H 0.46214 0.93572 0.82475 0.0
H6964 H 0.48916 0.90534 0.83198 0.0
H6965 H 0.49165 0.93507 0.86328 0.0
H6966 H 0.47949 0.92885 0.85955 0.0
H6967 H 0.48459 0.93956 0.852 0.0
C6968 C 0.45869 0.91282 0.83799 0.0
C6969 C 0.45631 0.92131 0.83144 0.0
C6970 C 0.46874 0.91183 0.84228 0.0
C6971 C 0.47633 0.91949 0.84028 0.0
C6972 C 0.4737 0.92827 0.83426 0.0
H6973 H 0.52871 0.94345 0.82323 0.0
H6974 H 0.51231 0.93532 0.82838 0.0
C6975 C 0.46381 0.92913 0.82981 0.0
C6976 C 0.48743 0.91792 0.84304 0.0
H6977 H 0.50756 0.93208 0.85316 0.0
C6978 C 0.49324 0.91084 0.83699 0.0
C6979 C 0.49268 0.92507 0.84959 0.0
C6980 C 0.48677 0.93251 0.85656 0.0
C6981 C 0.50416 0.91169 0.8363 0.0
C6982 C 0.50926 0.91974 0.84184 0.0
C6983 C 0.50358 0.92592 0.8489 0.0
C6984 C 0.5195 0.92372 0.83835 0.0
C6985 C 0.51004 0.90481 0.82876 0.0
C6986 C 0.52899 0.91967 0.84208 0.0
C6987 C 0.53848 0.92428 0.83906 0.0
C6988 C 0.5385 0.93306 0.83241 0.0
C6989 C 0.52896 0.9368 0.82847 0.0
C6990 C 0.51958 0.93216 0.83138 0.0
H6991 H 0.50532 0.89796 0.82626 0.0
H6992 H 0.51214 0.90943 0.82172 0.0
H6993 H 0.51742 0.902 0.83238 0.0
H6994 H 0.52903 0.91313 0.84747 0.0
H6995 H 0.54574 0.92127 0.84223 0.0
H6996 H 0.07805 0.5401 0.82825 0.0
H6997 H 0.08412 0.5223 0.83193 0.0
H6998 H 0.05934 0.51848 0.8545 0.0
H6999 H 0.05294 0.53604 0.85043 0.0
H7000 H 0.09038 0.51026 0.84842 0.0
H7001 H 0.05194 0.49643 0.83347 0.0
H7002 H 0.05591 0.5099 0.83262 0.0
H7003 H 0.05112 0.50467 0.84478 0.0
C7004 C 0.07404 0.53552 0.83414 0.0
C7005 C 0.06492 0.53932 0.83891 0.0
C7006 C 0.07751 0.52536 0.83625 0.0
C7007 C 0.07199 0.51895 0.84326 0.0
C7008 C 0.06351 0.52316 0.84881 0.0
H7009 H 0.07521 0.45039 0.84228 0.0
H7010 H 0.0733 0.46767 0.85051 0.0
C7011 C 0.0599 0.5332 0.84652 0.0
C7012 C 0.07438 0.50762 0.84385 0.0
H7013 H 0.06412 0.48366 0.83808 0.0
C7014 C 0.0846 0.50443 0.8463 0.0
C7015 C 0.06683 0.49999 0.84106 0.0
C7016 C 0.05587 0.50289 0.83774 0.0
C7017 C 0.08756 0.49387 0.84567 0.0
C7018 C 0.08011 0.48635 0.84251 0.0
C7019 C 0.06977 0.48945 0.84063 0.0
C7020 C 0.08312 0.47566 0.83928 0.0
C7021 C 0.0987 0.49086 0.84807 0.0
C7022 C 0.0894 0.47444 0.83039 0.0
C7023 C 0.09034 0.4647 0.82562 0.0
C7024 C 0.08506 0.45597 0.82969 0.0
C7025 C 0.07938 0.457 0.83903 0.0
C7026 C 0.0783 0.46684 0.84373 0.0
H7027 H 0.10242 0.49658 0.85345 0.0
H7028 H 0.09912 0.48295 0.85161 0.0
H7029 H 0.10327 0.49078 0.84069 0.0
H7030 H 0.093 0.48116 0.8267 0.0
H7031 H 0.09481 0.46409 0.81845 0.0
H7032 H 0.4581 0.08129 0.83743 0.0
H7033 H 0.47533 0.0893 0.84014 0.0
H7034 H 0.49 0.0593 0.83544 0.0
H7035 H 0.47303 0.05124 0.83311 0.0
H7036 H 0.49958 0.07015 0.8508 0.0
H7037 H 0.49415 0.09528 0.81559 0.0
H7038 H 0.48508 0.09704 0.82616 0.0
H7039 H 0.48506 0.08504 0.81886 0.0
C7040 C 0.46501 0.07639 0.83709 0.0
C7041 C 0.46417 0.06563 0.83491 0.0
C7042 C 0.47484 0.081 0.83861 0.0
C7043 C 0.48397 0.07494 0.83781 0.0
C7044 C 0.48308 0.06415 0.8361 0.0
H7045 H 0.54047 0.07651 0.80946 0.0
H7046 H 0.52281 0.0767 0.81634 0.0
C7047 C 0.47332 0.05955 0.83471 0.0
C7048 C 0.49457 0.07966 0.83785 0.0
H7049 H 0.511 0.09372 0.82226 0.0
C7050 C 0.50208 0.07551 0.84472 0.0
C7051 C 0.49777 0.08667 0.82992 0.0
C7052 C 0.49014 0.09125 0.82216 0.0
C7053 C 0.5128 0.07738 0.84325 0.0
C7054 C 0.51603 0.08379 0.83485 0.0
C7055 C 0.50846 0.08877 0.82865 0.0
C7056 C 0.52698 0.08386 0.83109 0.0
C7057 C 0.52059 0.07178 0.85012 0.0
C7058 C 0.53528 0.08774 0.83715 0.0
C7059 C 0.54553 0.08753 0.83325 0.0
C7060 C 0.54757 0.08357 0.82319 0.0
C7061 C 0.53921 0.0797 0.8172 0.0
C7062 C 0.52907 0.07982 0.82112 0.0
H7063 H 0.51678 0.06611 0.85548 0.0
H7064 H 0.52639 0.06753 0.84525 0.0
H7065 H 0.52489 0.07759 0.85492 0.0
H7066 H 0.53382 0.09101 0.84482 0.0
H7067 H 0.55181 0.09064 0.83802 0.0
H7068 H 0.95009 0.47327 0.83842 0.0
H7069 H 0.94162 0.48966 0.84237 0.0
H7070 H 0.91138 0.47498 0.83954 0.0
H7071 H 0.91992 0.45834 0.8352 0.0
H7072 H 0.91207 0.49166 0.82806 0.0
H7073 H 0.9275 0.50351 0.86617 0.0
H7074 H 0.93842 0.49952 0.8584 0.0
H7075 H 0.92837 0.49014 0.86167 0.0
C7076 C 0.94164 0.4734 0.83878 0.0
C7077 C 0.9357 0.46446 0.83635 0.0
C7078 C 0.93678 0.48281 0.84124 0.0
C7079 C 0.92585 0.48355 0.84153 0.0
C7080 C 0.91984 0.47456 0.83951 0.0
H7081 H 0.91183 0.55154 0.83981 0.0
H7082 H 0.91 0.5338 0.84717 0.0
C7083 C 0.92473 0.46507 0.83698 0.0
C7084 C 0.92101 0.49409 0.84216 0.0
H7085 H 0.92586 0.518 0.85298 0.0
C7086 C 0.91474 0.49734 0.83377 0.0
C7087 C 0.9242 0.50154 0.84971 0.0
C7088 C 0.92989 0.49842 0.85955 0.0
C7089 C 0.91284 0.50797 0.83196 0.0
C7090 C 0.91751 0.51549 0.83858 0.0
C7091 C 0.92254 0.51222 0.84775 0.0
C7092 C 0.91902 0.52636 0.83495 0.0
C7093 C 0.90658 0.51111 0.82247 0.0
C7094 C 0.92507 0.52802 0.82598 0.0
C7095 C 0.92615 0.538 0.82183 0.0
C7096 C 0.92125 0.5466 0.8266 0.0
C7097 C 0.91568 0.54505 0.83597 0.0
C7098 C 0.91458 0.53495 0.84014 0.0
H7099 H 0.90072 0.50503 0.82046 0.0
H7100 H 0.90249 0.51866 0.82375 0.0
H7101 H 0.91192 0.51199 0.81569 0.0
H7102 H 0.9288 0.52152 0.82203 0.0
H7103 H 0.93064 0.53893 0.81471 0.0
H7104 H 0.16607 0.45255 0.07775 0.0
H7105 H 0.16097 0.47106 0.0772 0.0
H7106 H 0.18141 0.47746 0.10326 0.0
H7107 H 0.1869 0.45914 0.10346 0.0
H7108 H 0.15302 0.48645 0.09014 0.0
H7109 H 0.19455 0.49448 0.08022 0.0
H7110 H 0.18936 0.48141 0.0809 0.0
H7111 H 0.19285 0.48827 0.09268 0.0
C7112 C 0.16926 0.45789 0.0835 0.0
C7113 C 0.17698 0.45453 0.09054 0.0
C7114 C 0.16636 0.46844 0.08319 0.0
C7115 C 0.17105 0.47567 0.09 0.0
C7116 C 0.17793 0.47206 0.09774 0.0
H7117 H 0.17525 0.54354 0.08331 0.0
H7118 H 0.17363 0.52658 0.09213 0.0
C7119 C 0.18101 0.46161 0.09789 0.0
C7120 C 0.16975 0.48704 0.08822 0.0
H7121 H 0.18341 0.50897 0.08153 0.0
C7122 C 0.15967 0.4914 0.08834 0.0
C7123 C 0.17843 0.49348 0.08578 0.0
C7124 C 0.18939 0.48918 0.08477 0.0
C7125 C 0.15805 0.50201 0.08598 0.0
C7126 C 0.16673 0.50836 0.08346 0.0
C7127 C 0.1768 0.50409 0.08364 0.0
C7128 C 0.16558 0.51907 0.0793 0.0
C7129 C 0.14709 0.50635 0.08601 0.0
C7130 C 0.16142 0.52046 0.06926 0.0
C7131 C 0.16247 0.53004 0.06416 0.0
C7132 C 0.16767 0.53842 0.06903 0.0
C7133 C 0.17119 0.53723 0.07938 0.0
C7134 C 0.17026 0.52757 0.08443 0.0
H7135 H 0.14168 0.50133 0.09059 0.0
H7136 H 0.14697 0.51438 0.08929 0.0
H7137 H 0.14417 0.50674 0.07786 0.0
H7138 H 0.15795 0.51395 0.0651 0.0
H7139 H 0.1596 0.53075 0.05622 0.0
H7140 H 0.15328 0.46715 0.94906 0.0
H7141 H 0.14927 0.48447 0.9421 0.0
H7142 H 0.17083 0.47919 0.91668 0.0
H7143 H 0.17444 0.46163 0.92336 0.0
H7144 H 0.1631 0.49891 0.94191 0.0
H7145 H 0.14891 0.49508 0.9014 0.0
H7146 H 0.14936 0.48409 0.91026 0.0
H7147 H 0.16084 0.48794 0.90305 0.0
C7148 C 0.15692 0.46958 0.9418 0.0
C7149 C 0.16422 0.46312 0.93676 0.0
C7150 C 0.15461 0.47947 0.93783 0.0
C7151 C 0.15969 0.48316 0.92883 0.0
C7152 C 0.16658 0.47646 0.92347 0.0
H7153 H 0.18668 0.53791 0.90843 0.0
H7154 H 0.17863 0.52076 0.91033 0.0
C7155 C 0.16871 0.46645 0.92733 0.0
C7156 C 0.15915 0.49445 0.92614 0.0
H7157 H 0.15763 0.51154 0.90568 0.0
C7158 C 0.16159 0.50168 0.93404 0.0
C7159 C 0.1572 0.49811 0.91588 0.0
C7160 C 0.15382 0.49088 0.90721 0.0
C7161 C 0.16282 0.51234 0.93185 0.0
C7162 C 0.16154 0.51588 0.92146 0.0
C7163 C 0.15857 0.50878 0.91364 0.0
C7164 C 0.16495 0.52649 0.91844 0.0
C7165 C 0.1662 0.51962 0.94051 0.0
C7166 C 0.1597 0.53545 0.92202 0.0
C7167 C 0.1643 0.54534 0.92092 0.0
C7168 C 0.17424 0.54631 0.91635 0.0
C7169 C 0.17908 0.53739 0.91213 0.0
C7170 C 0.17446 0.52759 0.91313 0.0
H7171 H 0.16782 0.5154 0.94793 0.0
H7172 H 0.17335 0.52395 0.93818 0.0
H7173 H 0.15994 0.52544 0.942 0.0
H7174 H 0.15232 0.53473 0.92612 0.0
H7175 H 0.16039 0.55209 0.92422 0.0
H7176 H 0.46687 0.19058 0.92564 0.0
H7177 H 0.48398 0.18256 0.92452 0.0
H7178 H 0.47047 0.15511 0.91035 0.0
H7179 H 0.45299 0.16317 0.91152 0.0
H7180 H 0.48554 0.15075 0.92607 0.0
H7181 H 0.50129 0.17913 0.89786 0.0
H7182 H 0.49474 0.18592 0.90822 0.0
H7183 H 0.48741 0.17731 0.8998 0.0
C7184 C 0.46746 0.18285 0.92223 0.0
C7185 C 0.45856 0.17758 0.91853 0.0
C7186 C 0.47729 0.1783 0.92154 0.0
C7187 C 0.47854 0.1684 0.91704 0.0
C7188 C 0.46967 0.16285 0.91368 0.0
H7189 H 0.5463 0.16458 0.92067 0.0
H7190 H 0.52971 0.16037 0.91202 0.0
C7191 C 0.45971 0.16744 0.9144 0.0
C7192 C 0.48921 0.164 0.91634 0.0
H7193 H 0.51382 0.1725 0.91086 0.0
C7194 C 0.49174 0.15527 0.92246 0.0
C7195 C 0.4973 0.16962 0.91131 0.0
C7196 C 0.49502 0.17844 0.90383 0.0
C7197 C 0.50221 0.15289 0.92478 0.0
C7198 C 0.51022 0.15963 0.92116 0.0
C7199 C 0.50772 0.16745 0.91389 0.0
C7200 C 0.52062 0.16013 0.92631 0.0
C7201 C 0.5045 0.14352 0.93156 0.0
C7202 C 0.52108 0.16134 0.9372 0.0
C7203 C 0.53049 0.1637 0.94214 0.0
C7204 C 0.53969 0.16512 0.9363 0.0
C7205 C 0.53934 0.16359 0.92541 0.0
C7206 C 0.52988 0.16113 0.92045 0.0
H7207 H 0.49914 0.13698 0.92959 0.0
H7208 H 0.5127 0.14081 0.93065 0.0
H7209 H 0.50311 0.14558 0.93987 0.0
H7210 H 0.51405 0.16102 0.9419 0.0
H7211 H 0.5304 0.16481 0.95053 0.0
H7212 H 0.83226 0.54513 0.91877 0.0
H7213 H 0.83464 0.52838 0.9097 0.0
H7214 H 0.84436 0.51405 0.93861 0.0
H7215 H 0.84214 0.53063 0.94768 0.0
H7216 H 0.85548 0.5068 0.91999 0.0
H7217 H 0.81201 0.50602 0.91666 0.0
H7218 H 0.81873 0.51705 0.91113 0.0
H7219 H 0.81868 0.51518 0.92504 0.0
C7220 C 0.83512 0.53846 0.92314 0.0
C7221 C 0.83679 0.53916 0.93399 0.0
C7222 C 0.83647 0.52891 0.91795 0.0
C7223 C 0.83955 0.51998 0.92354 0.0
C7224 C 0.84197 0.52086 0.93417 0.0
H7225 H 0.838 0.45437 0.92704 0.0
H7226 H 0.84423 0.47248 0.92671 0.0
C7227 C 0.8406 0.53034 0.93936 0.0
C7228 C 0.83889 0.50943 0.91885 0.0
H7229 H 0.82099 0.49079 0.91251 0.0
C7230 C 0.84798 0.50331 0.91813 0.0
C7231 C 0.82909 0.50493 0.91648 0.0
C7232 C 0.81903 0.51107 0.9174 0.0
C7233 C 0.84746 0.49268 0.9154 0.0
C7234 C 0.83758 0.48804 0.9136 0.0
C7235 C 0.82858 0.49432 0.91385 0.0
C7236 C 0.83609 0.47658 0.91242 0.0
C7237 C 0.85748 0.48652 0.9146 0.0
C7238 C 0.8296 0.47277 0.90442 0.0
C7239 C 0.82582 0.46256 0.9048 0.0
C7240 C 0.82864 0.4559 0.91305 0.0
C7241 C 0.83586 0.45936 0.92054 0.0
C7242 C 0.83946 0.46969 0.9203 0.0
H7243 H 0.8641 0.49163 0.91223 0.0
H7244 H 0.85941 0.4832 0.92238 0.0
H7245 H 0.85679 0.48001 0.9089 0.0
H7246 H 0.82688 0.47792 0.89827 0.0
H7247 H 0.82023 0.46002 0.89896 0.0
H7248 H 0.4729 0.84001 0.95026 0.0
H7249 H 0.48943 0.84377 0.94193 0.0
H7250 H 0.47569 0.83819 0.91164 0.0
H7251 H 0.45894 0.83406 0.92004 0.0
H7252 H 0.4924 0.82694 0.91386 0.0
H7253 H 0.50347 0.86643 0.92616 0.0
H7254 H 0.49929 0.85954 0.93759 0.0
H7255 H 0.49014 0.86184 0.92708 0.0
C7256 C 0.47327 0.83973 0.9418 0.0
C7257 C 0.4646 0.83657 0.93584 0.0
C7258 C 0.48275 0.84208 0.93702 0.0
C7259 C 0.48381 0.84149 0.92612 0.0
C7260 C 0.47503 0.83882 0.92005 0.0
H7261 H 0.55181 0.83952 0.91198 0.0
H7262 H 0.53394 0.84652 0.91008 0.0
C7263 C 0.46548 0.83643 0.92487 0.0
C7264 C 0.49446 0.84182 0.92153 0.0
H7265 H 0.51814 0.8534 0.92578 0.0
C7266 C 0.49795 0.83294 0.91611 0.0
C7267 C 0.50176 0.84972 0.9242 0.0
C7268 C 0.4984 0.85996 0.92897 0.0
C7269 C 0.50863 0.83114 0.91454 0.0
C7270 C 0.51598 0.83829 0.91867 0.0
C7271 C 0.51249 0.84779 0.92287 0.0
C7272 C 0.52694 0.83508 0.92039 0.0
C7273 C 0.512 0.82119 0.90919 0.0
C7274 C 0.5289 0.82671 0.92717 0.0
C7275 C 0.53896 0.82275 0.92826 0.0
C7276 C 0.54732 0.82714 0.92266 0.0
C7277 C 0.5455 0.836 0.91639 0.0
C7278 C 0.53532 0.83996 0.91525 0.0
H7279 H 0.50597 0.81846 0.90356 0.0
H7280 H 0.51951 0.82226 0.90498 0.0
H7281 H 0.51307 0.81497 0.91515 0.0
H7282 H 0.52256 0.82302 0.9314 0.0
H7283 H 0.54013 0.81603 0.93328 0.0
H7284 H 0.8509 0.46711 0.05756 0.0
H7285 H 0.85513 0.48423 0.06492 0.0
H7286 H 0.83038 0.4805 0.08757 0.0
H7287 H 0.82657 0.46312 0.08057 0.0
H7288 H 0.84222 0.4992 0.06306 0.0
H7289 H 0.8506 0.49603 0.10516 0.0
H7290 H 0.85085 0.48477 0.09663 0.0
H7291 H 0.83871 0.48926 0.10224 0.0
C7292 C 0.84663 0.46982 0.06436 0.0
C7293 C 0.83839 0.46388 0.06849 0.0
C7294 C 0.84905 0.47958 0.06857 0.0
C7295 C 0.84312 0.48369 0.07684 0.0
C7296 C 0.83528 0.47744 0.08139 0.0
H7297 H 0.81404 0.53832 0.09266 0.0
H7298 H 0.82243 0.52127 0.09176 0.0
C7299 C 0.83303 0.46753 0.07734 0.0
C7300 C 0.84375 0.49502 0.07933 0.0
H7301 H 0.84253 0.51251 0.09946 0.0
C7302 C 0.84264 0.50212 0.07101 0.0
C7303 C 0.8443 0.49888 0.08968 0.0
C7304 C 0.8463 0.49181 0.0989 0.0
C7305 C 0.84122 0.51282 0.0728 0.0
C7306 C 0.84096 0.51655 0.08319 0.0
C7307 C 0.84274 0.5096 0.09149 0.0
C7308 C 0.83699 0.52715 0.08551 0.0
C7309 C 0.8392 0.51995 0.06361 0.0
C7310 C 0.84256 0.53616 0.08259 0.0
C7311 C 0.83775 0.54599 0.08308 0.0
C7312 C 0.82731 0.54688 0.0864 0.0
C7313 C 0.82204 0.53789 0.0899 0.0
C7314 C 0.82685 0.52814 0.08949 0.0
H7315 H 0.83878 0.51561 0.05609 0.0
H7316 H 0.83175 0.52426 0.06473 0.0
H7317 H 0.84559 0.52579 0.06302 0.0
H7318 H 0.85043 0.53552 0.07953 0.0
H7319 H 0.84202 0.5528 0.08039 0.0
H7320 H 0.4631 0.81786 0.07069 0.0
H7321 H 0.48053 0.8253 0.07221 0.0
H7322 H 0.46896 0.84859 0.09365 0.0
H7323 H 0.45122 0.84112 0.09213 0.0
H7324 H 0.48471 0.85534 0.07673 0.0
H7325 H 0.49718 0.82164 0.10071 0.0
H7326 H 0.4897 0.81771 0.0895 0.0
H7327 H 0.48366 0.82557 0.09949 0.0
C7328 C 0.46419 0.82464 0.07565 0.0
C7329 C 0.45583 0.82883 0.0814 0.0
C7330 C 0.47416 0.82887 0.07652 0.0
C7331 C 0.47604 0.83732 0.08322 0.0
C7332 C 0.46763 0.84199 0.08852 0.0
H7333 H 0.54406 0.83662 0.08301 0.0
H7334 H 0.52732 0.841 0.09131 0.0
C7335 C 0.45754 0.83776 0.0876 0.0
C7336 C 0.48697 0.84072 0.08476 0.0
H7337 H 0.5106 0.82965 0.08994 0.0
C7338 C 0.4904 0.84993 0.07993 0.0
C7339 C 0.49436 0.83383 0.08921 0.0
C7340 C 0.49104 0.82418 0.09513 0.0
C7341 C 0.50111 0.85176 0.07834 0.0
C7342 C 0.50845 0.84404 0.0814 0.0
C7343 C 0.50503 0.83552 0.0874 0.0
C7344 C 0.51907 0.84344 0.07673 0.0
C7345 C 0.5044 0.86168 0.0729 0.0
C7346 C 0.52004 0.84343 0.06581 0.0
C7347 C 0.52951 0.84095 0.06108 0.0
C7348 C 0.53828 0.83823 0.06714 0.0
C7349 C 0.53746 0.83863 0.07811 0.0
C7350 C 0.52791 0.84117 0.08286 0.0
H7351 H 0.49936 0.86831 0.07536 0.0
H7352 H 0.51268 0.86368 0.07456 0.0
H7353 H 0.50341 0.86072 0.06433 0.0
H7354 H 0.5133 0.84477 0.06086 0.0
H7355 H 0.52981 0.84078 0.05262 0.0
H7356 H 0.53975 0.18684 0.0696 0.0
H7357 H 0.52227 0.1797 0.07184 0.0
H7358 H 0.53404 0.15731 0.09413 0.0
H7359 H 0.55181 0.16444 0.09184 0.0
H7360 H 0.51814 0.1495 0.07916 0.0
H7361 H 0.50592 0.18552 0.09951 0.0
H7362 H 0.51282 0.18847 0.08765 0.0
H7363 H 0.51948 0.18179 0.0981 0.0
C7364 C 0.53868 0.18031 0.07489 0.0
C7365 C 0.54711 0.17628 0.08064 0.0
C7366 C 0.52868 0.17627 0.07619 0.0
C7367 C 0.52685 0.16819 0.08337 0.0
C7368 C 0.53532 0.16364 0.08866 0.0
H7369 H 0.45903 0.16959 0.0837 0.0
H7370 H 0.47562 0.1656 0.09249 0.0
C7371 C 0.54544 0.16767 0.08729 0.0
C7372 C 0.51592 0.165 0.08537 0.0
H7373 H 0.49232 0.17645 0.08975 0.0
C7374 C 0.51247 0.15524 0.08178 0.0
C7375 C 0.50856 0.17231 0.08917 0.0
C7376 C 0.5119 0.18257 0.09394 0.0
C7377 C 0.50174 0.15316 0.08068 0.0
C7378 C 0.49441 0.16116 0.08292 0.0
C7379 C 0.49788 0.17035 0.08781 0.0
C7380 C 0.48376 0.16122 0.0783 0.0
C7381 C 0.49842 0.14261 0.07659 0.0
C7382 C 0.48274 0.15991 0.06746 0.0
C7383 C 0.47335 0.16216 0.06247 0.0
C7384 C 0.46473 0.16596 0.06815 0.0
C7385 C 0.46553 0.16673 0.07909 0.0
C7386 C 0.47499 0.16443 0.08412 0.0
H7387 H 0.50348 0.13636 0.07988 0.0
H7388 H 0.49015 0.14085 0.07854 0.0
H7389 H 0.49939 0.14244 0.06797 0.0
H7390 H 0.48941 0.15779 0.0627 0.0
H7391 H 0.47303 0.16136 0.05404 0.0
H7392 H 0.57525 0.66657 0.95355 0.0
H7393 H 0.5751 0.66118 0.97199 0.0
H7394 H 0.60275 0.67965 0.97762 0.0
H7395 H 0.60261 0.68541 0.95938 0.0
H7396 H 0.58839 0.65228 0.9871 0.0
H7397 H 0.58075 0.69432 0.99512 0.0
H7398 H 0.58066 0.68899 0.98208 0.0
H7399 H 0.59285 0.69187 0.98848 0.0
C7400 C 0.58145 0.6692 0.95868 0.0
C7401 C 0.58886 0.67647 0.95517 0.0
C7402 C 0.58136 0.66615 0.9692 0.0
C7403 C 0.58876 0.67025 0.97621 0.0
C7404 C 0.59683 0.67661 0.97239 0.0
H7405 H 0.58316 0.67553 0.04412 0.0
H7406 H 0.59175 0.67359 0.02707 0.0
C7407 C 0.59678 0.67984 0.96198 0.0
C7408 C 0.58723 0.66907 0.98763 0.0
H7409 H 0.58165 0.68316 0.0096 0.0
C7410 C 0.58701 0.65903 0.99205 0.0
C7411 C 0.58535 0.6779 0.99406 0.0
C7412 C 0.58481 0.68887 0.9897 0.0
C7413 C 0.58484 0.65758 0.00273 0.0
C7414 C 0.58282 0.6664 0.00907 0.0
C7415 C 0.58336 0.67643 0.00472 0.0
C7416 C 0.57877 0.6655 0.01986 0.0
C7417 C 0.58456 0.64665 0.00713 0.0
C7418 C 0.56873 0.66143 0.02146 0.0
C7419 C 0.56377 0.66265 0.03109 0.0
C7420 C 0.56878 0.66795 0.03932 0.0
C7421 C 0.57912 0.6714 0.03793 0.0
C7422 C 0.58404 0.67029 0.02822 0.0
H7423 H 0.58908 0.64111 0.00219 0.0
H7424 H 0.58773 0.64648 0.01521 0.0
H7425 H 0.57633 0.64391 0.0074 0.0
H7426 H 0.56445 0.65788 0.01506 0.0
H7427 H 0.55584 0.65982 0.03194 0.0
H7428 H 0.33823 0.55075 0.03145 0.0
H7429 H 0.34235 0.55849 0.01469 0.0
H7430 H 0.34108 0.5893 0.02836 0.0
H7431 H 0.33666 0.58156 0.04534 0.0
H7432 H 0.32923 0.58832 0.01173 0.0
H7433 H 0.36695 0.57125 1.00053 0.0
H7434 H 0.3586 0.56088 0.00483 0.0
H7435 H 0.36234 0.57104 0.01389 0.0
C7436 C 0.33898 0.55918 0.03101 0.0
C7437 C 0.337 0.56553 0.03977 0.0
C7438 C 0.34151 0.5636 0.02139 0.0
C7439 C 0.34229 0.57448 0.02028 0.0
C7440 C 0.34067 0.58087 0.02907 0.0
H7441 H 0.34016 0.59125 0.95271 0.0
H7442 H 0.34778 0.59219 0.97042 0.0
C7443 C 0.33809 0.57643 0.03875 0.0
C7444 C 0.3431 0.57898 0.00961 0.0
H7445 H 0.35422 0.57369 0.98592 0.0
C7446 C 0.33495 0.58546 0.00616 0.0
C7447 C 0.35065 0.57545 0.00231 0.0
C7448 C 0.36019 0.56937 0.00565 0.0
C7449 C 0.33342 0.58738 0.9955 0.0
C7450 C 0.34012 0.5826 0.98813 0.0
C7451 C 0.34899 0.57719 0.9916 0.0
C7452 C 0.33672 0.58134 0.97718 0.0
C7453 C 0.3241 0.59376 0.99211 0.0
C7454 C 0.32832 0.57463 0.97515 0.0
C7455 C 0.324 0.57409 0.9652 0.0
C7456 C 0.32804 0.58021 0.95702 0.0
C7457 C 0.33692 0.58644 0.95887 0.0
C7458 C 0.34124 0.58702 0.96895 0.0
H7459 H 0.32156 0.59923 0.99836 0.0
H7460 H 0.32589 0.59831 0.98493 0.0
H7461 H 0.31749 0.58843 0.99034 0.0
H7462 H 0.32484 0.57008 0.9814 0.0
H7463 H 0.31725 0.56912 0.96399 0.0
H7464 H 0.45268 0.33772 0.03139 0.0
H7465 H 0.4449 0.34068 0.01441 0.0
H7466 H 0.41415 0.34057 0.02826 0.0
H7467 H 0.42193 0.33723 0.04546 0.0
H7468 H 0.41465 0.3278 0.01258 0.0
H7469 H 0.43243 0.36419 0.99854 0.0
H7470 H 0.44272 0.35593 0.00317 0.0
H7471 H 0.43285 0.36049 0.01217 0.0
C7472 C 0.44427 0.33849 0.03093 0.0
C7473 C 0.43794 0.33713 0.03982 0.0
C7474 C 0.43982 0.34036 0.02117 0.0
C7475 C 0.42894 0.3411 0.02004 0.0
C7476 C 0.42257 0.34015 0.02895 0.0
H7477 H 0.41403 0.33974 0.95229 0.0
H7478 H 0.41346 0.34677 0.97021 0.0
C7479 C 0.42704 0.3382 0.03877 0.0
C7480 C 0.42438 0.3412 0.00936 0.0
H7481 H 0.42935 0.35065 0.9849 0.0
C7482 C 0.4176 0.33303 0.00659 0.0
C7483 C 0.42795 0.34814 1.00151 0.0
C7484 C 0.43429 0.35774 0.00406 0.0
C7485 C 0.4153 0.33091 0.9961 0.0
C7486 C 0.42012 0.33695 0.98818 0.0
C7487 C 0.42589 0.34584 0.99097 0.0
C7488 C 0.4206 0.33315 0.97726 0.0
C7489 C 0.4082 0.32184 0.99356 0.0
C7490 C 0.42516 0.32339 0.97529 0.0
C7491 C 0.4255 0.31939 0.96518 0.0
C7492 C 0.42139 0.32512 0.95675 0.0
C7493 C 0.41724 0.33514 0.95864 0.0
C7494 C 0.41686 0.33914 0.96885 0.0
H7495 H 0.40232 0.32065 0.99985 0.0
H7496 H 0.40405 0.32306 0.98603 0.0
H7497 H 0.41292 0.31459 0.99297 0.0
H7498 H 0.42842 0.31879 0.98161 0.0
H7499 H 0.42893 0.31174 0.96401 0.0
H7500 H 0.66352 0.45089 0.03055 0.0
H7501 H 0.65929 0.44247 0.01419 0.0
H7502 H 0.66146 0.41221 0.02893 0.0
H7503 H 0.66606 0.42067 0.04552 0.0
H7504 H 0.67295 0.4126 0.0123 0.0
H7505 H 0.63519 0.42883 1.00035 0.0
H7506 H 0.64324 0.43957 0.00427 0.0
H7507 H 0.63972 0.42966 0.01371 0.0
C7508 C 0.66295 0.44245 0.03044 0.0
C7509 C 0.66527 0.43647 0.03937 0.0
C7510 C 0.66033 0.43762 0.02105 0.0
C7511 C 0.65979 0.4267 0.02033 0.0
C7512 C 0.66169 0.42067 0.02933 0.0
H7513 H 0.66191 0.41144 0.95254 0.0
H7514 H 0.65429 0.40993 0.97021 0.0
C7515 C 0.66437 0.42551 0.03879 0.0
C7516 C 0.65905 0.42182 0.00982 0.0
H7517 H 0.64831 0.4267 0.98587 0.0
C7518 C 0.6673 0.41534 0.00661 0.0
C7519 C 0.65157 0.42512 0.00234 0.0
C7520 C 0.64188 0.43108 0.00542 0.0
C7521 C 0.66904 0.4133 0.996 0.0
C7522 C 0.6625 0.41802 0.98845 0.0
C7523 C 0.65347 0.42331 0.99168 0.0
C7524 C 0.6662 0.4194 0.9776 0.0
C7525 C 0.67842 0.40686 0.99289 0.0
C7526 C 0.67508 0.42557 0.97592 0.0
C7527 C 0.67938 0.42646 0.96599 0.0
C7528 C 0.67485 0.42124 0.95745 0.0
C7529 C 0.66556 0.41554 0.95899 0.0
C7530 C 0.66124 0.41462 0.96905 0.0
H7531 H 0.68047 0.40112 0.99908 0.0
H7532 H 0.67699 0.40262 0.98545 0.0
H7533 H 0.68524 0.41211 0.99178 0.0
H7534 H 0.67887 0.42952 0.9824 0.0
H7535 H 0.68643 0.43105 0.96506 0.0
H7536 H 0.57354 0.31537 0.03826 0.0
H7537 H 0.57541 0.32284 0.02094 0.0
H7538 H 0.59261 0.34886 0.03375 0.0
H7539 H 0.59075 0.34133 0.05142 0.0
H7540 H 0.57671 0.35401 0.01793 0.0
H7541 H 0.60348 0.32303 0.00454 0.0
H7542 H 0.59257 0.31753 0.01142 0.0
H7543 H 0.60152 0.32601 0.01822 0.0
C7544 C 0.57772 0.32269 0.03747 0.0
C7545 C 0.58213 0.32768 0.04621 0.0
C7546 C 0.57882 0.32693 0.02754 0.0
C7547 C 0.58441 0.33622 0.02605 0.0
C7548 C 0.58841 0.34158 0.03476 0.0
H7549 H 0.58267 0.3367 0.95814 0.0
H7550 H 0.59126 0.34142 0.97464 0.0
C7551 C 0.58728 0.33731 0.04482 0.0
C7552 C 0.58578 0.34008 0.01525 0.0
H7553 H 0.59151 0.33 0.9913 0.0
C7554 C 0.58026 0.349 0.01208 0.0
C7555 C 0.59072 0.33377 0.00764 0.0
C7556 C 0.59751 0.32462 0.01065 0.0
C7557 C 0.57838 0.35093 1.00144 0.0
C7558 C 0.58185 0.34359 0.99391 0.0
C7559 C 0.58861 0.33553 0.99704 0.0
C7560 C 0.57687 0.34271 0.98346 0.0
C7561 C 0.57215 0.36048 0.99844 0.0
C7562 C 0.56595 0.34189 0.9829 0.0
C7563 C 0.56106 0.33921 0.97356 0.0
C7564 C 0.56695 0.33709 0.96453 0.0
C7565 C 0.57789 0.33823 0.96496 0.0
C7566 C 0.58281 0.34098 0.97437 0.0
H7567 H 0.57429 0.36721 0.0035 0.0
H7568 H 0.57342 0.36269 0.99014 0.0
H7569 H 0.56371 0.35891 0.99968 0.0
H7570 H 0.56117 0.34278 0.98983 0.0
H7571 H 0.55262 0.33844 0.97358 0.0
H7572 H 0.65671 0.57735 0.96 0.0
H7573 H 0.65171 0.58457 0.9772 0.0
H7574 H 0.68083 0.57356 0.99016 0.0
H7575 H 0.68563 0.56611 0.97324 0.0
H7576 H 0.65214 0.56908 0.99633 0.0
H7577 H 0.67557 0.60527 1.00093 0.0
H7578 H 0.67116 0.60052 0.98835 0.0
H7579 H 0.6823 0.59467 0.99459 0.0
C7580 C 0.66211 0.57675 0.96649 0.0
C7581 C 0.67154 0.57122 0.96539 0.0
C7582 C 0.65926 0.58083 0.97627 0.0
C7583 C 0.66595 0.57964 0.98488 0.0
C7584 C 0.67562 0.57465 0.98357 0.0
H7585 H 0.67961 0.56507 0.04304 0.0
H7586 H 0.67212 0.5664 0.02554 0.0
C7587 C 0.67835 0.57039 0.97393 0.0
C7588 C 0.66259 0.58227 0.9956 0.0
H7589 H 0.67137 0.59585 0.01675 0.0
C7590 C 0.65601 0.57519 1.00077 0.0
C7591 C 0.66761 0.59025 1.00133 0.0
C7592 C 0.6745 0.59819 0.99602 0.0
C7593 C 0.65525 0.57519 0.01171 0.0
C7594 C 0.6612 0.58244 0.01752 0.0
C7595 C 0.66683 0.59026 0.01227 0.0
C7596 C 0.6636 0.58068 0.02869 0.0
C7597 C 0.64874 0.56692 0.01703 0.0
C7598 C 0.66107 0.58814 0.03633 0.0
C7599 C 0.66522 0.58727 0.04644 0.0
C7600 C 0.67217 0.57911 0.04886 0.0
C7601 C 0.67425 0.57141 0.04135 0.0
C7602 C 0.66994 0.57214 0.03137 0.0
H7603 H 0.64232 0.56417 0.01187 0.0
H7604 H 0.65378 0.56011 0.0189 0.0
H7605 H 0.64535 0.56991 0.02444 0.0
H7606 H 0.6563 0.59485 0.03434 0.0
H7607 H 0.66361 0.59338 0.05209 0.0
H7608 H 0.43373 0.68631 0.03989 0.0
H7609 H 0.43228 0.67901 0.0224 0.0
H7610 H 0.41034 0.656 0.03358 0.0
H7611 H 0.41178 0.66332 0.05136 0.0
H7612 H 0.42727 0.64907 0.01798 0.0
H7613 H 0.40398 0.68329 0.00554 0.0
H7614 H 0.41525 0.68693 0.01308 0.0
H7615 H 0.40507 0.67928 0.01906 0.0
C7616 C 0.42868 0.67962 0.0387 0.0
C7617 C 0.42276 0.67547 0.04696 0.0
C7618 C 0.42785 0.67547 0.02869 0.0
C7619 C 0.42103 0.66714 0.02669 0.0
C7620 C 0.41557 0.66251 0.035 0.0
H7621 H 0.42086 0.66738 0.95857 0.0
H7622 H 0.41267 0.66334 0.97544 0.0
C7623 C 0.41644 0.66665 0.04512 0.0
C7624 C 0.41952 0.66384 0.01574 0.0
H7625 H 0.41446 0.67498 0.99211 0.0
C7626 C 0.42417 0.65454 0.01229 0.0
C7627 C 0.41519 0.67082 0.00836 0.0
C7628 C 0.40949 0.68059 0.0117 0.0
C7629 C 0.42568 0.65266 0.00158 0.0
C7630 C 0.42271 0.66043 0.99425 0.0
C7631 C 0.41691 0.66908 0.99769 0.0
C7632 C 0.4273 0.66089 0.9836 0.0
C7633 C 0.43095 0.64265 0.99827 0.0
C7634 C 0.43821 0.66082 0.98256 0.0
C7635 C 0.44287 0.66313 0.97301 0.0
C7636 C 0.43676 0.66574 0.96425 0.0
C7637 C 0.4258 0.66545 0.96516 0.0
C7638 C 0.42111 0.66309 0.97479 0.0
H7639 H 0.42848 0.63608 0.00339 0.0
H7640 H 0.42913 0.64063 0.99002 0.0
H7641 H 0.43954 0.64352 0.99913 0.0
H7642 H 0.44319 0.65951 0.98928 0.0
H7643 H 0.45133 0.66322 0.97264 0.0
H7644 H 0.34203 0.42316 0.95704 0.0
H7645 H 0.34752 0.41517 0.97373 0.0
H7646 H 0.32515 0.43428 0.99017 0.0
H7647 H 0.31979 0.44234 0.97375 0.0
H7648 H 0.35187 0.43285 0.99446 0.0
H7649 H 0.32535 0.39862 0.99806 0.0
H7650 H 0.33056 0.40298 0.98564 0.0
H7651 H 0.32008 0.41005 0.99172 0.0
C7652 C 0.33818 0.42548 0.96422 0.0
C7653 C 0.33054 0.43341 0.96416 0.0
C7654 C 0.34134 0.42096 0.9737 0.0
C7655 C 0.33673 0.4242 0.98311 0.0
C7656 C 0.32878 0.43172 0.98296 0.0
H7657 H 0.32529 0.43739 0.04091 0.0
H7658 H 0.33301 0.43588 0.02354 0.0
C7659 C 0.32575 0.43632 0.97359 0.0
C7660 C 0.34047 0.42051 0.99337 0.0
H7661 H 0.33124 0.4065 0.01402 0.0
C7662 C 0.34771 0.42679 0.99869 0.0
C7663 C 0.33507 0.41259 0.9988 0.0
C7664 C 0.32736 0.40559 0.99328 0.0
C7665 C 0.34877 0.42613 0.00958 0.0
C7666 C 0.34238 0.41908 0.01518 0.0
C7667 C 0.33612 0.41193 0.0097 0.0
C7668 C 0.34005 0.42075 0.02637 0.0
C7669 C 0.35601 0.4336 0.01511 0.0
C7670 C 0.34167 0.41284 0.03381 0.0
C7671 C 0.3374 0.4138 0.04386 0.0
C7672 C 0.33122 0.42252 0.0464 0.0
C7673 C 0.33007 0.43063 0.03912 0.0
C7674 C 0.33452 0.42978 0.02922 0.0
H7675 H 0.36267 0.43584 0.01001 0.0
H7676 H 0.35164 0.44083 0.01712 0.0
H7677 H 0.35908 0.43014 0.02245 0.0
H7678 H 0.34579 0.40576 0.03169 0.0
H7679 H 0.33825 0.4074 0.04934 0.0
H7680 H 0.9595 0.60139 0.68462 0.0
H7681 H 0.97748 0.60199 0.67824 0.0
H7682 H 0.97164 0.57462 0.65937 0.0
H7683 H 0.95344 0.57439 0.66536 0.0
H7684 H 0.99002 0.58708 0.68345 0.0
H7685 H 0.99112 0.59001 0.64039 0.0
H7686 H 0.97954 0.5931 0.64786 0.0
H7687 H 0.98254 0.57974 0.64454 0.0
C7688 C 0.96198 0.59576 0.6788 0.0
C7689 C 0.95517 0.58783 0.67547 0.0
C7690 C 0.97224 0.5961 0.67516 0.0
C7691 C 0.97595 0.58837 0.6683 0.0
C7692 C 0.96893 0.58082 0.66445 0.0
H7693 H 0.03108 0.55426 0.66099 0.0
H7694 H 0.01418 0.56281 0.65897 0.0
C7695 C 0.95855 0.58064 0.66792 0.0
C7696 C 0.98739 0.58711 0.6668 0.0
H7697 H 0.00631 0.58205 0.64864 0.0
C7698 C 0.99361 0.58626 0.67581 0.0
C7699 C 0.99209 0.58595 0.65685 0.0
C7700 C 0.98597 0.58736 0.64687 0.0
C7701 C 0.00424 0.58377 0.67519 0.0
C7702 C 0.00883 0.58215 0.66528 0.0
C7703 C 0.00275 0.58335 0.65622 0.0
C7704 C 0.01953 0.57789 0.6644 0.0
C7705 C 0.01035 0.58227 0.6852 0.0
C7706 C 0.02824 0.58368 0.66775 0.0
C7707 C 0.03796 0.5788 0.66897 0.0
C7708 C 0.03906 0.56805 0.6669 0.0
C7709 C 0.03047 0.56251 0.66282 0.0
C7710 C 0.02082 0.5674 0.66156 0.0
H7711 H 0.00525 0.58242 0.69223 0.0
H7712 H 0.01461 0.57471 0.68505 0.0
H7713 H 0.01621 0.58861 0.68597 0.0
H7714 H 0.02738 0.59182 0.66991 0.0
H7715 H 0.04443 0.5833 0.67206 0.0
H7716 H 0.44856 0.02821 0.66425 0.0
H7717 H 0.43928 0.01211 0.66106 0.0
H7718 H 0.4098 0.0282 0.66426 0.0
H7719 H 0.41917 0.04455 0.66789 0.0
H7720 H 0.40975 0.01204 0.67607 0.0
H7721 H 0.42405 0.99787 0.6384 0.0
H7722 H 0.43535 0.00155 0.64575 0.0
H7723 H 0.42574 0.01133 0.64231 0.0
C7724 C 0.4401 0.02845 0.66412 0.0
C7725 C 0.43463 0.0377 0.66648 0.0
C7726 C 0.43477 0.0192 0.66209 0.0
C7727 C 0.42381 0.01892 0.66216 0.0
C7728 C 0.41826 0.02823 0.66404 0.0
H7729 H 0.40982 0.95128 0.6647 0.0
H7730 H 0.40788 0.96903 0.65747 0.0
C7731 C 0.42363 0.03757 0.66615 0.0
C7732 C 0.4185 0.00859 0.66206 0.0
H7733 H 0.42221 0.98404 0.65231 0.0
C7734 C 0.41216 0.006 0.67063 0.0
C7735 C 0.42125 1.00066 0.65483 0.0
C7736 C 0.42687 0.00308 0.64475 0.0
C7737 C 0.40978 0.99555 0.67292 0.0
C7738 C 0.41412 0.98752 0.66667 0.0
C7739 C 0.41919 0.99017 0.65732 0.0
C7740 C 0.41512 0.97671 0.6707 0.0
C7741 C 0.40321 0.9932 0.68243 0.0
C7742 C 0.42018 0.97514 0.6803 0.0
C7743 C 0.42127 0.96514 0.68441 0.0
C7744 C 0.41747 0.9564 0.67895 0.0
C7745 C 0.41279 0.95788 0.6691 0.0
C7746 C 0.41163 0.968 0.66499 0.0
H7747 H 0.39726 0.9994 0.68366 0.0
H7748 H 0.39919 0.98554 0.68173 0.0
H7749 H 0.4083 0.99305 0.68946 0.0
H7750 H 0.42332 0.98169 0.68465 0.0
H7751 H 0.42509 0.96429 0.69191 0.0
H7752 H 0.05078 0.40911 0.66272 0.0
H7753 H 0.03307 0.4084 0.65505 0.0
H7754 H 0.02374 0.4344 0.67435 0.0
H7755 H 0.04115 0.43503 0.68211 0.0
H7756 H 0.01281 0.41004 0.67392 0.0
H7757 H 0.01447 0.4355 0.63876 0.0
H7758 H 0.02528 0.42728 0.64276 0.0
H7759 H 0.02253 0.43913 0.64974 0.0
C7760 C 0.04498 0.41481 0.6651 0.0
C7761 C 0.04725 0.42208 0.67304 0.0
C7762 C 0.03491 0.41436 0.66076 0.0
C7763 C 0.02717 0.42134 0.66419 0.0
C7764 C 0.02965 0.42897 0.67163 0.0
H7765 H 0.97346 0.4516 0.66859 0.0
H7766 H 0.99014 0.44371 0.6644 0.0
C7767 C 0.03957 0.42931 0.67605 0.0
C7768 C 0.01614 0.42028 0.66103 0.0
H7769 H 0.99783 0.43359 0.64704 0.0
C7770 C 0.00945 0.41485 0.6678 0.0
C7771 C 0.01191 0.42658 0.65305 0.0
C7772 C 0.01889 0.43244 0.64559 0.0
C7773 C 0.9986 0.4165 0.66755 0.0
C7774 C 0.99441 0.42363 0.66019 0.0
C7775 C 1.00106 0.42815 0.65268 0.0
C7776 C 0.98388 0.42823 0.66163 0.0
C7777 C 0.9919 0.41147 0.67586 0.0
C7778 C 0.97472 0.42218 0.66137 0.0
C7779 C 0.96505 0.42669 0.66393 0.0
C7780 C 0.96442 0.43733 0.66669 0.0
C7781 C 0.9736 0.44339 0.66655 0.0
C7782 C 0.98318 0.43889 0.66408 0.0
H7783 H 0.9966 0.40704 0.68167 0.0
H7784 H 0.98729 0.4175 0.68008 0.0
H7785 H 0.98633 0.40596 0.67213 0.0
H7786 H 0.97506 0.41397 0.65934 0.0
H7787 H 0.95812 0.42183 0.66384 0.0
H7788 H 0.55676 0.96675 0.6522 0.0
H7789 H 0.56415 0.98383 0.6479 0.0
H7790 H 0.5881 0.97925 0.67124 0.0
H7791 H 0.58104 0.96191 0.67511 0.0
H7792 H 0.56335 0.99861 0.66114 0.0
H7793 H 0.6048 0.99475 0.65023 0.0
H7794 H 0.59604 0.98368 0.65032 0.0
H7795 H 0.60243 0.98786 0.66218 0.0
C7796 C 0.56382 0.96927 0.65615 0.0
C7797 C 0.56832 0.96309 0.66403 0.0
C7798 C 0.56805 0.97901 0.65368 0.0
C7799 C 0.57672 0.98286 0.65919 0.0
C7800 C 0.58159 0.9764 0.66665 0.0
H7801 H 0.59501 0.03693 0.68794 0.0
H7802 H 0.59367 0.02 0.67935 0.0
C7803 C 0.5775 0.96651 0.66894 0.0
C7804 C 0.5794 0.99415 0.65858 0.0
H7805 H 0.59991 0.01124 0.65878 0.0
C7806 C 0.57131 1.00139 0.66028 0.0
C7807 C 0.58978 0.99781 0.65746 0.0
C7808 C 0.59872 0.99059 0.65483 0.0
C7809 C 0.57339 0.01204 0.6617 0.0
C7810 C 0.58385 0.01557 0.66137 0.0
C7811 C 0.59189 0.00848 0.65902 0.0
C7812 C 0.58659 0.02609 0.66526 0.0
C7813 C 0.56446 0.0193 0.66435 0.0
C7814 C 0.5834 0.03519 0.65999 0.0
C7815 C 0.58414 0.04495 0.66492 0.0
C7816 C 0.58799 0.04566 0.67519 0.0
C7817 C 0.59184 0.03661 0.68009 0.0
C7818 C 0.59117 0.02693 0.67516 0.0
H7819 H 0.55693 0.01508 0.66527 0.0
H7820 H 0.56615 0.02357 0.67172 0.0
H7821 H 0.56354 0.02517 0.65804 0.0
H7822 H 0.57987 0.03467 0.65231 0.0
H7823 H 0.58117 0.0518 0.66093 0.0
H7824 H 0.03093 0.45243 0.34074 0.0
H7825 H 0.01434 0.44427 0.34462 0.0
H7826 H 0.02854 0.41377 0.34221 0.0
H7827 H 0.04535 0.42197 0.33796 0.0
H7828 H 0.0122 0.4147 0.33036 0.0
H7829 H 0.99975 0.43046 0.36817 0.0
H7830 H 0.004 0.44127 0.36038 0.0
H7831 H 0.01321 0.43116 0.36393 0.0
C7832 C 0.03064 0.44398 0.3412 0.0
C7833 C 0.03949 0.43787 0.33889 0.0
C7834 C 0.02112 0.43931 0.34361 0.0
C7835 C 0.02019 0.42839 0.34395 0.0
C7836 C 0.0291 0.42222 0.34212 0.0
H7837 H 0.95238 0.41346 0.34058 0.0
H7838 H 0.96995 0.41197 0.34839 0.0
C7839 C 0.03869 0.42691 0.33964 0.0
C7840 C 0.00958 0.4237 0.34439 0.0
H7841 H 0.9855 0.42869 0.35478 0.0
C7842 C 0.00644 0.41742 0.33596 0.0
C7843 C 0.00201 0.42699 0.35178 0.0
C7844 C 0.00499 0.43274 0.36163 0.0
C7845 C 0.99583 0.41554 0.33399 0.0
C7846 C 0.98823 0.42022 0.34049 0.0
C7847 C 0.99136 0.42533 0.34966 0.0
C7848 C 0.97741 0.42165 0.3367 0.0
C7849 C 0.99282 0.40929 0.32445 0.0
C7850 C 0.97581 0.42793 0.32788 0.0
C7851 C 0.96593 0.4288 0.32346 0.0
C7852 C 0.95738 0.42346 0.32782 0.0
C7853 C 0.95884 0.41766 0.33706 0.0
C7854 C 0.96884 0.41676 0.34149 0.0
H7855 H 0.99901 0.40356 0.32237 0.0
H7856 H 0.98535 0.40505 0.32571 0.0
H7857 H 0.99181 0.41468 0.31772 0.0
H7858 H 0.98231 0.43195 0.32422 0.0
H7859 H 0.96505 0.43346 0.31644 0.0
H7860 H 0.56091 0.02784 0.32185 0.0
H7861 H 0.56899 0.01148 0.32717 0.0
H7862 H 0.59045 0.02825 0.34702 0.0
H7863 H 0.58232 0.04493 0.34165 0.0
H7864 H 0.59672 0.00832 0.33011 0.0
H7865 H 0.56717 0.00234 0.36131 0.0
H7866 H 0.56249 0.00866 0.34964 0.0
H7867 H 0.57201 0.01513 0.35768 0.0
C7868 C 0.5674 0.02811 0.32728 0.0
C7869 C 0.57091 0.03766 0.33141 0.0
C7870 C 0.57202 0.01875 0.33029 0.0
C7871 C 0.5802 0.0187 0.33755 0.0
C7872 C 0.5841 0.0282 0.34142 0.0
H7873 H 0.59579 0.95144 0.34008 0.0
H7874 H 0.59772 0.96916 0.34748 0.0
C7875 C 0.57949 0.03768 0.33832 0.0
C7876 C 0.58408 0.00846 0.34118 0.0
H7877 H 0.57386 0.98684 0.35291 0.0
C7878 C 0.59211 0.00367 0.3355 0.0
C7879 C 0.57801 0.00246 0.34819 0.0
C7880 C 0.56947 0.0074 0.35464 0.0
C7881 C 0.5934 0.99276 0.33573 0.0
C7882 C 0.58642 0.98664 0.34173 0.0
C7883 C 0.57921 0.99157 0.34833 0.0
C7884 C 0.58459 0.97558 0.33897 0.0
C7885 C 0.60136 0.98775 0.32862 0.0
C7886 C 0.5764 0.97334 0.33205 0.0
C7887 C 0.57537 0.9634 0.32778 0.0
C7888 C 0.58242 0.95545 0.33046 0.0
C7889 C 0.5902 0.95745 0.33797 0.0
C7890 C 0.59134 0.96754 0.34215 0.0
H7891 H 0.60672 0.9936 0.32508 0.0
H7892 H 0.60606 0.98196 0.33304 0.0
H7893 H 0.59728 0.98351 0.32223 0.0
H7894 H 0.57112 0.97947 0.3295 0.0
H7895 H 0.56929 0.96203 0.32203 0.0
H7896 H 0.95707 0.58095 0.33906 0.0
H7897 H 0.97414 0.58827 0.34402 0.0
H7898 H 0.98895 0.55903 0.33607 0.0
H7899 H 0.97215 0.55166 0.33137 0.0
H7900 H 0.9961 0.56718 0.35483 0.0
H7901 H 0.99659 0.59713 0.32309 0.0
H7902 H 0.98595 0.5973 0.33227 0.0
H7903 H 0.98713 0.58667 0.32319 0.0
C7904 C 0.96398 0.5761 0.33839 0.0
C7905 C 0.96323 0.56573 0.33477 0.0
C7906 C 0.97372 0.5803 0.34122 0.0
C7907 C 0.98282 0.57421 0.34037 0.0
C7908 C 0.98202 0.56386 0.33687 0.0
H7909 H 0.04176 0.56508 0.32523 0.0
H7910 H 0.0244 0.56541 0.33318 0.0
C7911 C 0.97238 0.55966 0.33413 0.0
C7912 C 0.99337 0.57843 0.34259 0.0
H7913 H 0.01248 0.59304 0.33107 0.0
C7914 C 0.99963 0.57308 0.34986 0.0
C7915 C 0.99795 0.5862 0.33617 0.0
C7916 C 0.99162 0.59216 0.3282 0.0
C7917 C 0.01049 0.5745 0.35011 0.0
C7918 C 0.01516 0.58147 0.34296 0.0
C7919 C 0.00882 0.58769 0.33653 0.0
C7920 C 0.02635 0.58064 0.34027 0.0
C7921 C 0.01701 0.56794 0.35741 0.0
C7922 C 0.03327 0.58901 0.34186 0.0
C7923 C 0.04332 0.58872 0.33749 0.0
C7924 C 0.04636 0.58021 0.33125 0.0
C7925 C 0.03958 0.57168 0.33007 0.0
C7926 C 0.02969 0.57186 0.33462 0.0
H7927 H 0.01239 0.56531 0.36428 0.0
H7928 H 0.0198 0.56089 0.35319 0.0
H7929 H 0.02395 0.57235 0.36018 0.0
H7930 H 0.03076 0.5959 0.34609 0.0
H7931 H 0.04841 0.59543 0.33836 0.0
H7932 H 0.4198 0.95979 0.32745 0.0
H7933 H 0.41145 0.97706 0.32809 0.0
H7934 H 0.43925 0.99007 0.34199 0.0
H7935 H 0.44767 0.97295 0.34132 0.0
H7936 H 0.41551 0.99753 0.349 0.0
H7937 H 0.42824 0.99936 0.3073 0.0
H7938 H 0.42212 0.98765 0.31221 0.0
H7939 H 0.43494 0.99117 0.31664 0.0
C7940 C 0.42402 0.96626 0.33092 0.0
C7941 C 0.43445 0.96506 0.33417 0.0
C7942 C 0.41923 0.9761 0.3313 0.0
C7943 C 0.42477 0.98478 0.33508 0.0
C7944 C 0.43485 0.98342 0.3391 0.0
H7945 H 0.42335 0.05177 0.33582 0.0
H7946 H 0.4237 0.03337 0.34114 0.0
C7947 C 0.43967 0.97366 0.33863 0.0
C7948 C 0.42091 0.99548 0.33321 0.0
H7949 H 0.42123 0.01452 0.31462 0.0
C7950 C 0.41659 1.00125 0.34147 0.0
C7951 C 0.42242 1.00025 0.32337 0.0
C7952 C 0.4272 0.99436 0.31433 0.0
C7953 C 0.41378 0.01181 0.34013 0.0
C7954 C 0.41562 0.01669 0.33036 0.0
C7955 C 0.41976 0.01078 0.32208 0.0
C7956 C 0.4138 0.02799 0.32848 0.0
C7957 C 0.40886 0.01759 0.34914 0.0
C7958 C 0.40807 0.03113 0.31967 0.0
C7959 C 0.4081 0.04155 0.31649 0.0
C7960 C 0.41375 0.04908 0.32213 0.0
C7961 C 0.41888 0.04611 0.33137 0.0
C7962 C 0.41902 0.03561 0.33446 0.0
H7963 H 0.40487 0.01213 0.35459 0.0
H7964 H 0.41506 0.02171 0.3536 0.0
H7965 H 0.40311 0.02347 0.34637 0.0
H7966 H 0.40399 0.02541 0.31494 0.0
H7967 H 0.40399 0.04365 0.30938 0.0
H7968 H 0.69437 0.96223 0.58301 0.0
H7969 H 0.68723 0.9797 0.58411 0.0
H7970 H 0.65724 0.96713 0.59306 0.0
H7971 H 0.66435 0.94932 0.59172 0.0
H7972 H 0.65495 0.98175 0.57859 0.0
H7973 H 0.68092 0.99803 0.60852 0.0
H7974 H 0.68893 0.99188 0.59884 0.0
H7975 H 0.67985 0.98412 0.60637 0.0
C7976 C 0.68628 0.9631 0.58532 0.0
C7977 C 0.67996 0.95433 0.58733 0.0
C7978 C 0.68222 0.97316 0.58607 0.0
C7979 C 0.67179 0.97478 0.58902 0.0
C7980 C 0.66537 0.96607 0.59095 0.0
H7981 H 0.66675 0.04288 0.58329 0.0
H7982 H 0.66324 0.02623 0.59223 0.0
C7983 C 0.66943 0.95591 0.59013 0.0
C7984 C 0.66761 0.9856 0.58903 0.0
H7985 H 0.67572 0.01039 0.59447 0.0
C7986 C 0.65927 0.98801 0.58233 0.0
C7987 C 0.6729 0.99383 0.59422 0.0
C7988 C 0.68106 0.99179 0.60249 0.0
C7989 C 0.65702 0.99841 0.57965 0.0
C7990 C 0.66353 0.00652 0.58348 0.0
C7991 C 0.67091 0.00419 0.59125 0.0
C7992 C 0.66417 0.01683 0.57818 0.0
C7993 C 0.64805 1.00053 0.5723 0.0
C7994 C 0.66593 0.01709 0.56736 0.0
C7995 C 0.66788 0.02649 0.56228 0.0
C7996 C 0.66834 0.03594 0.56789 0.0
C7997 C 0.66646 0.03575 0.57873 0.0
C7998 C 0.66442 0.02625 0.58384 0.0
H7999 H 0.64145 0.99511 0.57392 0.0
H8000 H 0.64519 0.0087 0.57297 0.0
H8001 H 0.65061 0.9991 0.56414 0.0
H8002 H 0.66622 0.00993 0.56285 0.0
H8003 H 0.66935 0.02626 0.55394 0.0
H8004 H 0.6669 0.95736 0.41929 0.0
H8005 H 0.66255 0.97377 0.4103 0.0
H8006 H 0.66111 0.98962 0.44004 0.0
H8007 H 0.66504 0.97346 0.44899 0.0
H8008 H 0.64612 0.99681 0.4267 0.0
H8009 H 0.68514 0.99563 0.40712 0.0
H8010 H 0.676 0.98531 0.40442 0.0
H8011 H 0.68176 0.98637 0.41718 0.0
C8012 C 0.66551 0.96433 0.4239 0.0
C8013 C 0.66654 0.96411 0.43486 0.0
C8014 C 0.66305 0.9737 0.41874 0.0
C8015 C 0.66166 0.98297 0.42449 0.0
C8016 C 0.66211 0.98258 0.43543 0.0
H8017 H 0.68365 0.03899 0.43344 0.0
H8018 H 0.67602 0.02166 0.43137 0.0
C8019 C 0.66448 0.9733 0.44054 0.0
C8020 C 0.66095 0.99339 0.41946 0.0
H8021 H 0.67717 0.01183 0.40907 0.0
C8022 C 0.65273 1.00005 0.42249 0.0
C8023 C 0.66956 0.99761 0.41392 0.0
C8024 C 0.67865 0.99092 0.41048 0.0
C8025 C 0.6535 0.01093 0.42126 0.0
C8026 C 0.66262 0.01517 0.41678 0.0
C8027 C 0.6702 0.00847 0.41256 0.0
C8028 C 0.66574 0.02611 0.41871 0.0
C8029 C 0.64513 0.01791 0.42573 0.0
C8030 C 0.66215 0.03442 0.41251 0.0
C8031 C 0.66643 0.04444 0.41378 0.0
C8032 C 0.67444 0.04613 0.42114 0.0
C8033 C 0.67755 0.03788 0.42766 0.0
C8034 C 0.67321 0.02799 0.42648 0.0
H8035 H 0.63803 0.01344 0.42799 0.0
H8036 H 0.64821 0.02196 0.43276 0.0
H8037 H 0.64291 0.02399 0.41995 0.0
H8038 H 0.65639 0.03306 0.40645 0.0
H8039 H 0.66397 0.05068 0.40861 0.0
H8040 H 0.02957 0.66311 0.44936 0.0
H8041 H 0.01334 0.65868 0.44079 0.0
H8042 H 0.02778 0.66314 0.41063 0.0
H8043 H 0.04424 0.66793 0.41927 0.0
H8044 H 0.01068 0.67403 0.41189 0.0
H8045 H 1.00028 0.63493 0.42581 0.0
H8046 H 0.00413 0.64237 0.43701 0.0
H8047 H 0.01349 0.63984 0.42674 0.0
C8048 C 0.02942 0.66301 0.44089 0.0
C8049 C 0.03821 0.66603 0.43502 0.0
C8050 C 0.02012 0.66027 0.43598 0.0
C8051 C 0.01935 0.66031 0.42504 0.0
C8052 C 0.02822 0.66291 0.41908 0.0
H8053 H 0.95146 0.66305 0.41033 0.0
H8054 H 0.96905 0.65543 0.40809 0.0
C8055 C 0.03761 0.66569 0.42403 0.0
C8056 C 0.00883 0.65948 0.42022 0.0
H8057 H 0.98533 0.64774 0.42496 0.0
C8058 C 0.00522 0.66803 0.41436 0.0
C8059 C 0.00166 0.65157 0.42318 0.0
C8060 C 0.00516 0.64162 0.42842 0.0
C8061 C 0.99451 0.66959 0.41271 0.0
C8062 C 0.98728 0.66253 0.41717 0.0
C8063 C 0.9909 0.65327 0.42176 0.0
C8064 C 0.97642 0.66588 0.41916 0.0
C8065 C 0.99095 0.67933 0.4071 0.0
C8066 C 0.97477 0.6739 0.42642 0.0
C8067 C 0.96488 0.67822 0.42769 0.0
C8068 C 0.9564 0.67454 0.42178 0.0
C8069 C 0.95788 0.666 0.415 0.0
C8070 C 0.96789 0.66169 0.41368 0.0
H8071 H 0.997 0.68215 0.40153 0.0
H8072 H 0.98357 0.67791 0.40276 0.0
H8073 H 0.98953 0.68561 0.41291 0.0
H8074 H 0.98125 0.67711 0.43084 0.0
H8075 H 0.96396 0.6847 0.43307 0.0
H8076 H 0.35274 0.0367 0.44542 0.0
H8077 H 0.35662 0.01942 0.43826 0.0
H8078 H 0.33197 0.02338 0.41554 0.0
H8079 H 0.32852 0.04091 0.42232 0.0
H8080 H 0.34347 0.00473 0.4403 0.0
H8081 H 0.35181 0.00722 0.39815 0.0
H8082 H 0.35227 0.01857 0.40653 0.0
H8083 H 0.34004 0.01424 0.40099 0.0
C8084 C 0.34843 0.034 0.43864 0.0
C8085 C 0.34031 0.04007 0.43442 0.0
C8086 C 0.35065 0.02414 0.43455 0.0
C8087 C 0.34463 0.02005 0.42633 0.0
C8088 C 0.33694 0.02641 0.42169 0.0
H8089 H 0.31467 0.96544 0.41149 0.0
H8090 H 0.32311 0.98248 0.41224 0.0
C8091 C 0.3349 0.03641 0.42561 0.0
C8092 C 0.34504 0.00868 0.42398 0.0
H8093 H 0.34343 0.99096 0.40407 0.0
C8094 C 0.34381 0.00171 0.43238 0.0
C8095 C 0.34547 0.00468 0.41367 0.0
C8096 C 0.34759 0.0116 0.40435 0.0
C8097 C 0.34221 0.991 0.43073 0.0
C8098 C 0.34184 0.98715 0.42039 0.0
C8099 C 0.34371 0.99397 0.41199 0.0
C8100 C 0.33777 0.97657 0.41822 0.0
C8101 C 0.34012 0.98401 0.44001 0.0
C8102 C 0.34336 0.96755 0.42107 0.0
C8103 C 0.33853 0.95773 0.42066 0.0
C8104 C 0.32803 0.95685 0.41751 0.0
C8105 C 0.32271 0.96586 0.41412 0.0
C8106 C 0.32755 0.9756 0.41444 0.0
H8107 H 0.33986 0.98843 0.44749 0.0
H8108 H 0.33257 0.97985 0.43899 0.0
H8109 H 0.34638 0.97804 0.4406 0.0
H8110 H 0.35128 0.96818 0.42399 0.0
H8111 H 0.34284 0.95092 0.42327 0.0
H8112 H 0.97433 0.33539 0.4492 0.0
H8113 H 0.99077 0.33841 0.44044 0.0
H8114 H 0.97495 0.33978 0.41068 0.0
H8115 H 0.95822 0.33641 0.41947 0.0
H8116 H 0.99086 0.32718 0.40947 0.0
H8117 H 0.00565 0.36267 0.42825 0.0
H8118 H 1.00151 0.35405 0.43845 0.0
H8119 H 0.99206 0.35893 0.42916 0.0
C8120 C 0.97423 0.33648 0.4408 0.0
C8121 C 0.9649 0.33558 0.43504 0.0
C8122 C 0.98369 0.33838 0.4358 0.0
C8123 C 0.98412 0.33962 0.42492 0.0
C8124 C 0.9748 0.339 0.41911 0.0
H8125 H 0.05173 0.33875 0.41138 0.0
H8126 H 0.0339 0.34582 0.40991 0.0
C8127 C 0.96525 0.33703 0.42414 0.0
C8128 C 0.9945 0.34004 0.41976 0.0
H8129 H 0.01915 0.34902 0.42452 0.0
C8130 C 0.99698 0.33221 0.41249 0.0
C8131 C 0.00251 0.34679 0.42334 0.0
C8132 C 1.00023 0.35615 0.43014 0.0
C8133 C 0.0074 0.33009 0.40982 0.0
C8134 C 0.01551 0.33574 0.41481 0.0
C8135 C 0.01296 0.34445 0.42096 0.0
C8136 C 0.02634 0.33163 0.41519 0.0
C8137 C 0.00962 0.32142 0.40215 0.0
C8138 C 0.02799 0.32147 0.41894 0.0
C8139 C 0.03805 0.31744 0.41978 0.0
C8140 C 0.04678 0.32354 0.41704 0.0
C8141 C 0.04517 0.33385 0.41354 0.0
C8142 C 0.03501 0.33788 0.41264 0.0
H8143 H 0.00341 0.321 0.3961 0.0
H8144 H 0.01729 0.32249 0.39823 0.0
H8145 H 0.00967 0.31382 0.40635 0.0
H8146 H 0.02147 0.31664 0.42137 0.0
H8147 H 0.03897 0.30953 0.42266 0.0
H8148 H 0.33716 0.04795 0.57291 0.0
H8149 H 0.34291 0.02963 0.57238 0.0
H8150 H 0.3286 0.02428 0.60245 0.0
H8151 H 0.3224 0.04239 0.60271 0.0
H8152 H 0.35388 0.01502 0.58434 0.0
H8153 H 0.31136 0.00601 0.58323 0.0
H8154 H 0.3163 0.01915 0.5822 0.0
H8155 H 0.31548 0.01285 0.59475 0.0
C8156 C 0.33555 0.04291 0.57952 0.0
C8157 C 0.32931 0.04645 0.58781 0.0
C8158 C 0.33881 0.03247 0.57922 0.0
C8159 C 0.33593 0.02554 0.58726 0.0
C8160 C 0.33067 0.02943 0.59606 0.0
H8161 H 0.3313 0.95751 0.58279 0.0
H8162 H 0.33392 0.97468 0.59088 0.0
C8163 C 0.32721 0.03977 0.59624 0.0
C8164 C 0.33712 0.01412 0.58574 0.0
H8165 H 0.32286 0.99181 0.5824 0.0
C8166 C 0.34712 0.00992 0.58402 0.0
C8167 C 0.32826 0.00748 0.58525 0.0
C8168 C 0.31724 0.01158 0.58635 0.0
C8169 C 0.34846 0.99926 0.58167 0.0
C8170 C 0.33959 0.99272 0.581 0.0
C8171 C 0.32966 0.99684 0.58307 0.0
C8172 C 0.34011 0.98192 0.5769 0.0
C8173 C 0.35933 0.99512 0.57976 0.0
C8174 C 0.34289 0.98028 0.56643 0.0
C8175 C 0.3413 0.97055 0.56177 0.0
C8176 C 0.33689 0.96226 0.56749 0.0
C8177 C 0.33471 0.96373 0.57817 0.0
C8178 C 0.33622 0.97353 0.58281 0.0
H8179 H 0.36535 1.00013 0.58351 0.0
H8180 H 0.36014 0.98701 0.58275 0.0
H8181 H 0.36087 0.99501 0.57122 0.0
H8182 H 0.34571 0.9867 0.56168 0.0
H8183 H 0.34315 0.96966 0.55355 0.0
H8184 H 0.96439 0.3155 0.56935 0.0
H8185 H 0.98174 0.32317 0.57019 0.0
H8186 H 0.97003 0.34812 0.58961 0.0
H8187 H 0.95237 0.34041 0.5888 0.0
H8188 H 0.98514 0.35387 0.57238 0.0
H8189 H 0.99918 0.32214 0.5981 0.0
H8190 H 0.99178 0.31721 0.58724 0.0
H8191 H 0.9855 0.32542 0.59679 0.0
C8192 C 0.96543 0.32266 0.57376 0.0
C8193 C 0.95703 0.32727 0.57913 0.0
C8194 C 0.97537 0.32702 0.57424 0.0
C8195 C 0.97718 0.33605 0.58017 0.0
C8196 C 0.96876 0.34107 0.58509 0.0
H8197 H 0.04524 0.33824 0.57957 0.0
H8198 H 0.02825 0.34223 0.5875 0.0
C8199 C 0.9587 0.33669 0.58458 0.0
C8200 C 0.98805 0.33982 0.58119 0.0
H8201 H 0.01216 0.32997 0.58666 0.0
C8202 C 0.99107 0.34886 0.57578 0.0
C8203 C 0.99576 0.33346 0.5859 0.0
C8204 C 0.99289 0.32407 0.59244 0.0
C8205 C 0.00169 0.351 0.57394 0.0
C8206 C 0.00935 0.34376 0.57736 0.0
C8207 C 0.00632 0.33545 0.58385 0.0
C8208 C 0.02 0.34343 0.57276 0.0
C8209 C 0.00453 0.36072 0.56791 0.0
C8210 C 0.02106 0.34287 0.56186 0.0
C8211 C 0.0307 0.34062 0.55733 0.0
C8212 C 0.03953 0.33869 0.56359 0.0
C8213 C 0.03859 0.33964 0.57451 0.0
C8214 C 0.02889 0.34196 0.57906 0.0
H8215 H 0.99919 0.36725 0.56996 0.0
H8216 H 0.01271 0.36319 0.56944 0.0
H8217 H 0.0036 0.35919 0.55941 0.0
H8218 H 0.0143 0.3436 0.55681 0.0
H8219 H 0.03108 0.33998 0.54889 0.0
H8220 H 0.96281 0.67592 0.58054 0.0
H8221 H 0.98052 0.67253 0.58709 0.0
H8222 H 0.98422 0.64787 0.56436 0.0
H8223 H 0.96678 0.65164 0.55745 0.0
H8224 H 0.99256 0.65643 0.59471 0.0
H8225 H 0.00625 0.66828 0.55516 0.0
H8226 H 0.9928 0.66951 0.55914 0.0
H8227 H 0.99793 0.657 0.55525 0.0
C8228 C 0.96734 0.66962 0.57713 0.0
C8229 C 0.96357 0.66415 0.5684 0.0
C8230 C 0.97744 0.66768 0.58086 0.0
C8231 C 0.9838 0.66015 0.576 0.0
C8232 C 0.97957 0.65393 0.56801 0.0
H8233 H 0.05232 0.66072 0.57835 0.0
H8234 H 0.03491 0.65263 0.57726 0.0
C8235 C 0.96961 0.65605 0.56411 0.0
C8236 C 0.99514 0.65973 0.5784 0.0
H8237 H 0.01907 0.66447 0.56756 0.0
C8238 C 0.99837 0.65805 0.58876 0.0
C8239 C 0.00273 0.66187 0.57061 0.0
C8240 C 0.99978 0.66436 0.55944 0.0
C8241 C 0.00897 0.65879 0.59159 0.0
C8242 C 0.01646 0.66129 0.58386 0.0
C8243 C 0.0133 0.66242 0.57344 0.0
C8244 C 0.02724 0.66454 0.58652 0.0
C8245 C 0.01203 0.65719 0.60285 0.0
C8246 C 0.02869 0.67376 0.59225 0.0
C8247 C 0.03852 0.67844 0.59273 0.0
C8248 C 0.0471 0.67395 0.58755 0.0
C8249 C 0.04583 0.66431 0.58245 0.0
C8250 C 0.03592 0.65969 0.58183 0.0
H8251 H 0.00632 0.65211 0.60698 0.0
H8252 H 0.01993 0.65365 0.60349 0.0
H8253 H 0.01215 0.66487 0.60688 0.0
H8254 H 0.02209 0.67776 0.59573 0.0
H8255 H 0.03929 0.68584 0.59678 0.0
loop_
_geom_bond_atom_site_label_1
_geom_bond_atom_site_label_2
_geom_bond_distance
_geom_bond_site_symmetry_2
_ccdc_geom_bond_type
Co0 O1 2.216 . S
Co0 O2 2.091 . S
Co0 O4 2.004 . S
Co0 O10 2.021 . S
Co0 O12 2.137 . S
Co0 O13 2.244 . S
O1 Co0 2.216 . S
O1 C8 1.247 . S
O2 Co0 2.091 . S
O2 C8 1.261 . S
C3 O12 1.247 . S
C3 O13 1.272 . S
O4 Co0 2.004 . S
O4 C9 1.259 . S
Co5 O6 2.061 . S
Co5 O11 2.052 . S
Co5 O13 2.135 . S
O6 Co5 2.061 . S
O6 C9 1.235 . S
C7 O10 1.238 . S
C7 O11 1.241 . S
C8 O1 1.247 . S
C8 O2 1.261 . S
C9 O4 1.259 . S
C9 O6 1.235 . S
O10 Co0 2.021 . S
O10 C7 1.238 . S
O11 Co5 2.052 . S
O11 C7 1.241 . S
O12 Co0 2.137 . S
O12 C3 1.247 . S
O13 Co0 2.244 . S
O13 C3 1.272 . S
O13 Co5 2.135 . S
Co14 O15 2.216 . S
Co14 O16 2.091 . S
Co14 O18 2.004 . S
Co14 O24 2.021 . S
Co14 O26 2.137 . S
Co14 O27 2.244 . S
O15 Co14 2.216 . S
O15 C22 1.247 . S
O16 Co14 2.091 . S
O16 C22 1.261 . S
C17 O26 1.247 . S
C17 O27 1.272 . S
O18 Co14 2.004 . S
O18 C23 1.259 . S
Co19 O20 2.061 . S
Co19 O25 2.052 . S
Co19 O27 2.135 . S
O20 Co19 2.061 . S
O20 C23 1.235 . S
C21 O24 1.238 . S
C21 O25 1.241 . S
C22 O15 1.247 . S
C22 O16 1.261 . S
C23 O18 1.259 . S
C23 O20 1.235 . S
O24 Co14 2.021 . S
O24 C21 1.238 . S
O25 Co19 2.052 . S
O25 C21 1.241 . S
O26 Co14 2.137 . S
O26 C17 1.247 . S
O27 Co14 2.244 . S
O27 C17 1.272 . S
O27 Co19 2.135 . S
Co28 O29 2.216 . S
Co28 O30 2.091 . S
Co28 O32 2.004 . S
Co28 O38 2.021 . S
Co28 O40 2.137 . S
Co28 O41 2.244 . S
O29 Co28 2.216 . S
O29 C36 1.247 . S
O30 Co28 2.091 . S
O30 C36 1.261 . S
C31 O40 1.247 . S
C31 O41 1.272 . S
O32 Co28 2.004 . S
O32 C37 1.259 . S
Co33 O34 2.061 . S
Co33 O39 2.052 . S
Co33 O41 2.135 . S
O34 Co33 2.061 . S
O34 C37 1.235 . S
C35 O38 1.238 . S
C35 O39 1.241 . S
C36 O29 1.247 . S
C36 O30 1.261 . S
C37 O32 1.259 . S
C37 O34 1.235 . S
O38 Co28 2.021 . S
O38 C35 1.238 . S
O39 Co33 2.052 . S
O39 C35 1.241 . S
O40 Co28 2.137 . S
O40 C31 1.247 . S
O41 Co28 2.244 . S
O41 C31 1.272 . S
O41 Co33 2.135 . S
Co42 O43 2.216 . S
Co42 O44 2.091 . S
Co42 O46 2.004 . S
Co42 O52 2.021 . S
Co42 O54 2.137 . S
Co42 O55 2.244 . S
O43 Co42 2.216 . S
O43 C50 1.247 . S
O44 Co42 2.091 . S
O44 C50 1.261 . S
C45 O54 1.247 . S
C45 O55 1.272 . S
O46 Co42 2.004 . S
O46 C51 1.259 . S
Co47 O48 2.061 . S
Co47 O53 2.052 . S
Co47 O55 2.135 . S
O48 Co47 2.061 . S
O48 C51 1.235 . S
C49 O52 1.238 . S
C49 O53 1.241 . S
C50 O43 1.247 . S
C50 O44 1.261 . S
C51 O46 1.259 . S
C51 O48 1.235 . S
O52 Co42 2.021 . S
O52 C49 1.238 . S
O53 Co47 2.052 . S
O53 C49 1.241 . S
O54 Co42 2.137 . S
O54 C45 1.247 . S
O55 Co42 2.244 . S
O55 C45 1.272 . S
O55 Co47 2.135 . S
Co56 O57 2.216 . S
Co56 O58 2.091 . S
Co56 O60 2.004 . S
Co56 O66 2.021 . S
Co56 O68 2.137 . S
Co56 O69 2.244 . S
O57 Co56 2.216 . S
O57 C64 1.247 . S
O58 Co56 2.091 . S
O58 C64 1.261 . S
C59 O68 1.247 . S
C59 O69 1.272 . S
O60 Co56 2.004 . S
O60 C65 1.259 . S
Co61 O62 2.061 . S
Co61 O67 2.052 . S
Co61 O69 2.135 . S
O62 Co61 2.061 . S
O62 C65 1.235 . S
C63 O66 1.238 . S
C63 O67 1.241 . S
C64 O57 1.247 . S
C64 O58 1.261 . S
C65 O60 1.259 . S
C65 O62 1.235 . S
O66 Co56 2.021 . S
O66 C63 1.238 . S
O67 Co61 2.052 . S
O67 C63 1.241 . S
O68 Co56 2.137 . S
O68 C59 1.247 . S
O69 Co56 2.244 . S
O69 C59 1.272 . S
O69 Co61 2.135 . S
Co70 O71 2.216 . S
Co70 O72 2.091 . S
Co70 O74 2.004 . S
Co70 O80 2.021 . S
Co70 O82 2.137 . S
Co70 O83 2.244 . S
O71 Co70 2.216 . S
O71 C78 1.247 . S
O72 Co70 2.091 . S
O72 C78 1.261 . S
C73 O82 1.247 . S
C73 O83 1.272 . S
O74 Co70 2.004 . S
O74 C79 1.259 . S
Co75 O76 2.061 . S
Co75 O81 2.052 . S
Co75 O83 2.135 . S
O76 Co75 2.061 . S
O76 C79 1.235 . S
C77 O80 1.238 . S
C77 O81 1.241 . S
C78 O71 1.247 . S
C78 O72 1.261 . S
C79 O74 1.259 . S
C79 O76 1.235 . S
O80 Co70 2.021 . S
O80 C77 1.238 . S
O81 Co75 2.052 . S
O81 C77 1.241 . S
O82 Co70 2.137 . S
O82 C73 1.247 . S
O83 Co70 2.244 . S
O83 C73 1.272 . S
O83 Co75 2.135 . S
Co84 O85 2.216 . S
Co84 O86 2.091 . S
Co84 O88 2.004 . S
Co84 O94 2.021 . S
Co84 O96 2.137 . S
Co84 O97 2.244 . S
O85 Co84 2.216 . S
O85 C92 1.247 . S
O86 Co84 2.091 . S
O86 C92 1.261 . S
C87 O96 1.247 . S
C87 O97 1.272 . S
O88 Co84 2.004 . S
O88 C93 1.259 . S
Co89 O90 2.061 . S
Co89 O95 2.052 . S
Co89 O97 2.135 . S
O90 Co89 2.061 . S
O90 C93 1.235 . S
C91 O94 1.238 . S
C91 O95 1.241 . S
C92 O85 1.247 . S
C92 O86 1.261 . S
C93 O88 1.259 . S
C93 O90 1.235 . S
O94 Co84 2.021 . S
O94 C91 1.238 . S
O95 Co89 2.052 . S
O95 C91 1.241 . S
O96 Co84 2.137 . S
O96 C87 1.247 . S
O97 Co84 2.244 . S
O97 C87 1.272 . S
O97 Co89 2.135 . S
Co98 O99 2.216 . S
Co98 O100 2.091 . S
Co98 O102 2.004 . S
Co98 O108 2.021 . S
Co98 O110 2.137 . S
Co98 O111 2.244 . S
O99 Co98 2.216 . S
O99 C106 1.247 . S
O100 Co98 2.091 . S
O100 C106 1.261 . S
C101 O110 1.247 . S
C101 O111 1.272 . S
O102 Co98 2.004 . S
O102 C107 1.259 . S
Co103 O104 2.061 . S
Co103 O109 2.052 . S
Co103 O111 2.135 . S
O104 Co103 2.061 . S
O104 C107 1.235 . S
C105 O108 1.238 . S
C105 O109 1.241 . S
C106 O99 1.247 . S
C106 O100 1.261 . S
C107 O102 1.259 . S
C107 O104 1.235 . S
O108 Co98 2.021 . S
O108 C105 1.238 . S
O109 Co103 2.052 . S
O109 C105 1.241 . S
O110 Co98 2.137 . S
O110 C101 1.247 . S
O111 Co98 2.244 . S
O111 C101 1.272 . S
O111 Co103 2.135 . S
Co112 O113 2.216 . S
Co112 O114 2.091 . S
Co112 O116 2.004 . S
Co112 O122 2.021 . S
Co112 O124 2.137 . S
Co112 O125 2.244 . S
O113 Co112 2.216 . S
O113 C120 1.247 . S
O114 Co112 2.091 . S
O114 C120 1.261 . S
C115 O124 1.247 . S
C115 O125 1.272 . S
O116 Co112 2.004 . S
O116 C121 1.259 . S
Co117 O118 2.061 . S
Co117 O123 2.052 . S
Co117 O125 2.135 . S
O118 Co117 2.061 . S
O118 C121 1.235 . S
C119 O122 1.238 . S
C119 O123 1.241 . S
C120 O113 1.247 . S
C120 O114 1.261 . S
C121 O116 1.259 . S
C121 O118 1.235 . S
O122 Co112 2.021 . S
O122 C119 1.238 . S
O123 Co117 2.052 . S
O123 C119 1.241 . S
O124 Co112 2.137 . S
O124 C115 1.247 . S
O125 Co112 2.244 . S
O125 C115 1.272 . S
O125 Co117 2.135 . S
Co126 O127 2.216 . S
Co126 O128 2.091 . S
Co126 O130 2.004 . S
Co126 O136 2.021 . S
Co126 O138 2.137 . S
Co126 O139 2.244 . S
O127 Co126 2.216 . S
O127 C134 1.247 . S
O128 Co126 2.091 . S
O128 C134 1.261 . S
C129 O138 1.247 . S
C129 O139 1.272 . S
O130 Co126 2.004 . S
O130 C135 1.259 . S
Co131 O132 2.061 . S
Co131 O137 2.052 . S
Co131 O139 2.135 . S
O132 Co131 2.061 . S
O132 C135 1.235 . S
C133 O136 1.238 . S
C133 O137 1.241 . S
C134 O127 1.247 . S
C134 O128 1.261 . S
C135 O130 1.259 . S
C135 O132 1.235 . S
O136 Co126 2.021 . S
O136 C133 1.238 . S
O137 Co131 2.052 . S
O137 C133 1.241 . S
O138 Co126 2.137 . S
O138 C129 1.247 . S
O139 Co126 2.244 . S
O139 C129 1.272 . S
O139 Co131 2.135 . S
Co140 O141 2.216 . S
Co140 O142 2.091 . S
Co140 O144 2.004 . S
Co140 O150 2.021 . S
Co140 O152 2.137 . S
Co140 O153 2.244 . S
O141 Co140 2.216 . S
O141 C148 1.247 . S
O142 Co140 2.091 . S
O142 C148 1.261 . S
C143 O152 1.247 . S
C143 O153 1.272 . S
O144 Co140 2.004 . S
O144 C149 1.259 . S
Co145 O146 2.061 . S
Co145 O151 2.052 . S
Co145 O153 2.135 . S
O146 Co145 2.061 . S
O146 C149 1.235 . S
C147 O150 1.238 . S
C147 O151 1.241 . S
C148 O141 1.247 . S
C148 O142 1.261 . S
C149 O144 1.259 . S
C149 O146 1.235 . S
O150 Co140 2.021 . S
O150 C147 1.238 . S
O151 Co145 2.052 . S
O151 C147 1.241 . S
O152 Co140 2.137 . S
O152 C143 1.247 . S
O153 Co140 2.244 . S
O153 C143 1.272 . S
O153 Co145 2.135 . S
Co154 O155 2.216 . S
Co154 O156 2.091 . S
Co154 O158 2.004 . S
Co154 O164 2.021 . S
Co154 O166 2.137 . S
Co154 O167 2.244 . S
O155 Co154 2.216 . S
O155 C162 1.247 . S
O156 Co154 2.091 . S
O156 C162 1.261 . S
C157 O166 1.247 . S
C157 O167 1.272 . S
O158 Co154 2.004 . S
O158 C163 1.259 . S
Co159 O160 2.061 . S
Co159 O165 2.052 . S
Co159 O167 2.135 . S
O160 Co159 2.061 . S
O160 C163 1.235 . S
C161 O164 1.238 . S
C161 O165 1.241 . S
C162 O155 1.247 . S
C162 O156 1.261 . S
C163 O158 1.259 . S
C163 O160 1.235 . S
O164 Co154 2.021 . S
O164 C161 1.238 . S
O165 Co159 2.052 . S
O165 C161 1.241 . S
O166 Co154 2.137 . S
O166 C157 1.247 . S
O167 Co154 2.244 . S
O167 C157 1.272 . S
O167 Co159 2.135 . S
Co168 O169 2.216 . S
Co168 O170 2.091 . S
Co168 O172 2.004 . S
Co168 O178 2.021 . S
Co168 O180 2.137 . S
Co168 O181 2.244 . S
O169 Co168 2.216 . S
O169 C176 1.247 . S
O170 Co168 2.091 . S
O170 C176 1.261 . S
C171 O180 1.247 . S
C171 O181 1.272 . S
O172 Co168 2.004 . S
O172 C177 1.259 . S
Co173 O174 2.061 . S
Co173 O179 2.052 . S
Co173 O181 2.135 . S
O174 Co173 2.061 . S
O174 C177 1.235 . S
C175 O178 1.238 . S
C175 O179 1.241 . S
C176 O169 1.247 . S
C176 O170 1.261 . S
C177 O172 1.259 . S
C177 O174 1.235 . S
O178 Co168 2.021 . S
O178 C175 1.238 . S
O179 Co173 2.052 . S
O179 C175 1.241 . S
O180 Co168 2.137 . S
O180 C171 1.247 . S
O181 Co168 2.244 . S
O181 C171 1.272 . S
O181 Co173 2.135 . S
Co182 O183 2.216 . S
Co182 O184 2.091 . S
Co182 O186 2.004 . S
Co182 O192 2.021 . S
Co182 O194 2.137 . S
Co182 O195 2.244 . S
O183 Co182 2.216 . S
O183 C190 1.247 . S
O184 Co182 2.091 . S
O184 C190 1.261 . S
C185 O194 1.247 . S
C185 O195 1.272 . S
O186 Co182 2.004 . S
O186 C191 1.259 . S
Co187 O188 2.061 . S
Co187 O193 2.052 . S
Co187 O195 2.135 . S
O188 Co187 2.061 . S
O188 C191 1.235 . S
C189 O192 1.238 . S
C189 O193 1.241 . S
C190 O183 1.247 . S
C190 O184 1.261 . S
C191 O186 1.259 . S
C191 O188 1.235 . S
O192 Co182 2.021 . S
O192 C189 1.238 . S
O193 Co187 2.052 . S
O193 C189 1.241 . S
O194 Co182 2.137 . S
O194 C185 1.247 . S
O195 Co182 2.244 . S
O195 C185 1.272 . S
O195 Co187 2.135 . S
Co196 O197 2.216 . S
Co196 O198 2.091 . S
Co196 O200 2.004 . S
Co196 O206 2.021 . S
Co196 O208 2.137 . S
Co196 O209 2.244 . S
O197 Co196 2.216 . S
O197 C204 1.247 . S
O198 Co196 2.091 . S
O198 C204 1.261 . S
C199 O208 1.247 . S
C199 O209 1.272 . S
O200 Co196 2.004 . S
O200 C205 1.259 . S
Co201 O202 2.061 . S
Co201 O207 2.052 . S
Co201 O209 2.135 . S
O202 Co201 2.061 . S
O202 C205 1.235 . S
C203 O206 1.238 . S
C203 O207 1.241 . S
C204 O197 1.247 . S
C204 O198 1.261 . S
C205 O200 1.259 . S
C205 O202 1.235 . S
O206 Co196 2.021 . S
O206 C203 1.238 . S
O207 Co201 2.052 . S
O207 C203 1.241 . S
O208 Co196 2.137 . S
O208 C199 1.247 . S
O209 Co196 2.244 . S
O209 C199 1.272 . S
O209 Co201 2.135 . S
Co210 O211 2.216 . S
Co210 O212 2.091 . S
Co210 O214 2.004 . S
Co210 O220 2.021 . S
Co210 O222 2.137 . S
Co210 O223 2.244 . S
O211 Co210 2.216 . S
O211 C218 1.247 . S
O212 Co210 2.091 . S
O212 C218 1.261 . S
C213 O222 1.247 . S
C213 O223 1.272 . S
O214 Co210 2.004 . S
O214 C219 1.259 . S
Co215 O216 2.061 . S
Co215 O221 2.052 . S
Co215 O223 2.135 . S
O216 Co215 2.061 . S
O216 C219 1.235 . S
C217 O220 1.238 . S
C217 O221 1.241 . S
C218 O211 1.247 . S
C218 O212 1.261 . S
C219 O214 1.259 . S
C219 O216 1.235 . S
O220 Co210 2.021 . S
O220 C217 1.238 . S
O221 Co215 2.052 . S
O221 C217 1.241 . S
O222 Co210 2.137 . S
O222 C213 1.247 . S
O223 Co210 2.244 . S
O223 C213 1.272 . S
O223 Co215 2.135 . S
Co224 O225 2.216 . S
Co224 O226 2.091 . S
Co224 O228 2.004 . S
Co224 O234 2.021 . S
Co224 O236 2.137 . S
Co224 O237 2.244 . S
O225 Co224 2.216 . S
O225 C232 1.247 . S
O226 Co224 2.091 . S
O226 C232 1.261 . S
C227 O236 1.247 . S
C227 O237 1.272 . S
O228 Co224 2.004 . S
O228 C233 1.259 . S
Co229 O230 2.061 . S
Co229 O235 2.052 . S
Co229 O237 2.135 . S
O230 Co229 2.061 . S
O230 C233 1.235 . S
C231 O234 1.238 . S
C231 O235 1.241 . S
C232 O225 1.247 . S
C232 O226 1.261 . S
C233 O228 1.259 . S
C233 O230 1.235 . S
O234 Co224 2.021 . S
O234 C231 1.238 . S
O235 Co229 2.052 . S
O235 C231 1.241 . S
O236 Co224 2.137 . S
O236 C227 1.247 . S
O237 Co224 2.244 . S
O237 C227 1.272 . S
O237 Co229 2.135 . S
Co238 O239 2.216 . S
Co238 O240 2.091 . S
Co238 O242 2.004 . S
Co238 O248 2.021 . S
Co238 O250 2.137 . S
Co238 O251 2.244 . S
O239 Co238 2.216 . S
O239 C246 1.247 . S
O240 Co238 2.091 . S
O240 C246 1.261 . S
C241 O250 1.247 . S
C241 O251 1.272 . S
O242 Co238 2.004 . S
O242 C247 1.259 . S
Co243 O244 2.061 . S
Co243 O249 2.052 . S
Co243 O251 2.135 . S
O244 Co243 2.061 . S
O244 C247 1.235 . S
C245 O248 1.238 . S
C245 O249 1.241 . S
C246 O239 1.247 . S
C246 O240 1.261 . S
C247 O242 1.259 . S
C247 O244 1.235 . S
O248 Co238 2.021 . S
O248 C245 1.238 . S
O249 Co243 2.052 . S
O249 C245 1.241 . S
O250 Co238 2.137 . S
O250 C241 1.247 . S
O251 Co238 2.244 . S
O251 C241 1.272 . S
O251 Co243 2.135 . S
Co252 O253 2.216 . S
Co252 O254 2.091 . S
Co252 O256 2.004 . S
Co252 O262 2.021 . S
Co252 O264 2.137 . S
Co252 O265 2.244 . S
O253 Co252 2.216 . S
O253 C260 1.247 . S
O254 Co252 2.091 . S
O254 C260 1.261 . S
C255 O264 1.247 . S
C255 O265 1.272 . S
O256 Co252 2.004 . S
O256 C261 1.259 . S
Co257 O258 2.061 . S
Co257 O263 2.052 . S
Co257 O265 2.135 . S
O258 Co257 2.061 . S
O258 C261 1.235 . S
C259 O262 1.238 . S
C259 O263 1.241 . S
C260 O253 1.247 . S
C260 O254 1.261 . S
C261 O256 1.259 . S
C261 O258 1.235 . S
O262 Co252 2.021 . S
O262 C259 1.238 . S
O263 Co257 2.052 . S
O263 C259 1.241 . S
O264 Co252 2.137 . S
O264 C255 1.247 . S
O265 Co252 2.244 . S
O265 C255 1.272 . S
O265 Co257 2.135 . S
Co266 O267 2.216 . S
Co266 O268 2.091 . S
Co266 O270 2.004 . S
Co266 O276 2.021 . S
Co266 O278 2.137 . S
Co266 O279 2.244 . S
O267 Co266 2.216 . S
O267 C274 1.247 . S
O268 Co266 2.091 . S
O268 C274 1.261 . S
C269 O278 1.247 . S
C269 O279 1.272 . S
O270 Co266 2.004 . S
O270 C275 1.259 . S
Co271 O272 2.061 . S
Co271 O277 2.052 . S
Co271 O279 2.135 . S
O272 Co271 2.061 . S
O272 C275 1.235 . S
C273 O276 1.238 . S
C273 O277 1.241 . S
C274 O267 1.247 . S
C274 O268 1.261 . S
C275 O270 1.259 . S
C275 O272 1.235 . S
O276 Co266 2.021 . S
O276 C273 1.238 . S
O277 Co271 2.052 . S
O277 C273 1.241 . S
O278 Co266 2.137 . S
O278 C269 1.247 . S
O279 Co266 2.244 . S
O279 C269 1.272 . S
O279 Co271 2.135 . S
Co280 O281 2.216 . S
Co280 O282 2.091 . S
Co280 O284 2.004 . S
Co280 O290 2.021 . S
Co280 O292 2.137 . S
Co280 O293 2.244 . S
O281 Co280 2.216 . S
O281 C288 1.247 . S
O282 Co280 2.091 . S
O282 C288 1.261 . S
C283 O292 1.247 . S
C283 O293 1.272 . S
O284 Co280 2.004 . S
O284 C289 1.259 . S
Co285 O286 2.061 . S
Co285 O291 2.052 . S
Co285 O293 2.135 . S
O286 Co285 2.061 . S
O286 C289 1.235 . S
C287 O290 1.238 . S
C287 O291 1.241 . S
C288 O281 1.247 . S
C288 O282 1.261 . S
C289 O284 1.259 . S
C289 O286 1.235 . S
O290 Co280 2.021 . S
O290 C287 1.238 . S
O291 Co285 2.052 . S
O291 C287 1.241 . S
O292 Co280 2.137 . S
O292 C283 1.247 . S
O293 Co280 2.244 . S
O293 C283 1.272 . S
O293 Co285 2.135 . S
Co294 O295 2.216 . S
Co294 O296 2.091 . S
Co294 O298 2.004 . S
Co294 O304 2.021 . S
Co294 O306 2.137 . S
Co294 O307 2.244 . S
O295 Co294 2.216 . S
O295 C302 1.247 . S
O296 Co294 2.091 . S
O296 C302 1.261 . S
C297 O306 1.247 . S
C297 O307 1.272 . S
O298 Co294 2.004 . S
O298 C303 1.259 . S
Co299 O300 2.061 . S
Co299 O305 2.052 . S
Co299 O307 2.135 . S
O300 Co299 2.061 . S
O300 C303 1.235 . S
C301 O304 1.238 . S
C301 O305 1.241 . S
C302 O295 1.247 . S
C302 O296 1.261 . S
C303 O298 1.259 . S
C303 O300 1.235 . S
O304 Co294 2.021 . S
O304 C301 1.238 . S
O305 Co299 2.052 . S
O305 C301 1.241 . S
O306 Co294 2.137 . S
O306 C297 1.247 . S
O307 Co294 2.244 . S
O307 C297 1.272 . S
O307 Co299 2.135 . S
Co308 O309 2.216 . S
Co308 O310 2.091 . S
Co308 O312 2.004 . S
Co308 O318 2.021 . S
Co308 O320 2.137 . S
Co308 O321 2.244 . S
O309 Co308 2.216 . S
O309 C316 1.247 . S
O310 Co308 2.091 . S
O310 C316 1.261 . S
C311 O320 1.247 . S
C311 O321 1.272 . S
O312 Co308 2.004 . S
O312 C317 1.259 . S
Co313 O314 2.061 . S
Co313 O319 2.052 . S
Co313 O321 2.135 . S
O314 Co313 2.061 . S
O314 C317 1.235 . S
C315 O318 1.238 . S
C315 O319 1.241 . S
C316 O309 1.247 . S
C316 O310 1.261 . S
C317 O312 1.259 . S
C317 O314 1.235 . S
O318 Co308 2.021 . S
O318 C315 1.238 . S
O319 Co313 2.052 . S
O319 C315 1.241 . S
O320 Co308 2.137 . S
O320 C311 1.247 . S
O321 Co308 2.244 . S
O321 C311 1.272 . S
O321 Co313 2.135 . S
Co322 O323 2.216 . S
Co322 O324 2.091 . S
Co322 O326 2.004 . S
Co322 O332 2.021 . S
Co322 O334 2.137 . S
Co322 O335 2.244 . S
O323 Co322 2.216 . S
O323 C330 1.247 . S
O324 Co322 2.091 . S
O324 C330 1.261 . S
C325 O334 1.247 . S
C325 O335 1.272 . S
O326 Co322 2.004 . S
O326 C331 1.259 . S
Co327 O328 2.061 . S
Co327 O333 2.052 . S
Co327 O335 2.135 . S
O328 Co327 2.061 . S
O328 C331 1.235 . S
C329 O332 1.238 . S
C329 O333 1.241 . S
C330 O323 1.247 . S
C330 O324 1.261 . S
C331 O326 1.259 . S
C331 O328 1.235 . S
O332 Co322 2.021 . S
O332 C329 1.238 . S
O333 Co327 2.052 . S
O333 C329 1.241 . S
O334 Co322 2.137 . S
O334 C325 1.247 . S
O335 Co322 2.244 . S
O335 C325 1.272 . S
O335 Co327 2.135 . S
Co336 O337 2.216 . S
Co336 O338 2.091 . S
Co336 O340 2.004 . S
Co336 O346 2.021 . S
Co336 O348 2.137 . S
Co336 O349 2.244 . S
O337 Co336 2.216 . S
O337 C344 1.247 . S
O338 Co336 2.091 . S
O338 C344 1.261 . S
C339 O348 1.247 . S
C339 O349 1.272 . S
O340 Co336 2.004 . S
O340 C345 1.259 . S
Co341 O342 2.061 . S
Co341 O347 2.052 . S
Co341 O349 2.135 . S
O342 Co341 2.061 . S
O342 C345 1.235 . S
C343 O346 1.238 . S
C343 O347 1.241 . S
C344 O337 1.247 . S
C344 O338 1.261 . S
C345 O340 1.259 . S
C345 O342 1.235 . S
O346 Co336 2.021 . S
O346 C343 1.238 . S
O347 Co341 2.052 . S
O347 C343 1.241 . S
O348 Co336 2.137 . S
O348 C339 1.247 . S
O349 Co336 2.244 . S
O349 C339 1.272 . S
O349 Co341 2.135 . S
Co350 O351 2.216 . S
Co350 O352 2.091 . S
Co350 O354 2.004 . S
Co350 O360 2.021 . S
Co350 O362 2.137 . S
Co350 O363 2.244 . S
O351 Co350 2.216 . S
O351 C358 1.247 . S
O352 Co350 2.091 . S
O352 C358 1.261 . S
C353 O362 1.247 . S
C353 O363 1.272 . S
O354 Co350 2.004 . S
O354 C359 1.259 . S
Co355 O356 2.061 . S
Co355 O361 2.052 . S
Co355 O363 2.135 . S
O356 Co355 2.061 . S
O356 C359 1.235 . S
C357 O360 1.238 . S
C357 O361 1.241 . S
C358 O351 1.247 . S
C358 O352 1.261 . S
C359 O354 1.259 . S
C359 O356 1.235 . S
O360 Co350 2.021 . S
O360 C357 1.238 . S
O361 Co355 2.052 . S
O361 C357 1.241 . S
O362 Co350 2.137 . S
O362 C353 1.247 . S
O363 Co350 2.244 . S
O363 C353 1.272 . S
O363 Co355 2.135 . S
Co364 O365 2.216 . S
Co364 O366 2.091 . S
Co364 O368 2.004 . S
Co364 O374 2.021 . S
Co364 O376 2.137 . S
Co364 O377 2.244 . S
O365 Co364 2.216 . S
O365 C372 1.247 . S
O366 Co364 2.091 . S
O366 C372 1.261 . S
C367 O376 1.247 . S
C367 O377 1.272 . S
O368 Co364 2.004 . S
O368 C373 1.259 . S
Co369 O370 2.061 . S
Co369 O375 2.052 . S
Co369 O377 2.135 . S
O370 Co369 2.061 . S
O370 C373 1.235 . S
C371 O374 1.238 . S
C371 O375 1.241 . S
C372 O365 1.247 . S
C372 O366 1.261 . S
C373 O368 1.259 . S
C373 O370 1.235 . S
O374 Co364 2.021 . S
O374 C371 1.238 . S
O375 Co369 2.052 . S
O375 C371 1.241 . S
O376 Co364 2.137 . S
O376 C367 1.247 . S
O377 Co364 2.244 . S
O377 C367 1.272 . S
O377 Co369 2.135 . S
Co378 O379 2.216 . S
Co378 O380 2.091 . S
Co378 O382 2.004 . S
Co378 O388 2.021 . S
Co378 O390 2.137 . S
Co378 O391 2.244 . S
O379 Co378 2.216 . S
O379 C386 1.247 . S
O380 Co378 2.091 . S
O380 C386 1.261 . S
C381 O390 1.247 . S
C381 O391 1.272 . S
O382 Co378 2.004 . S
O382 C387 1.259 . S
Co383 O384 2.061 . S
Co383 O389 2.052 . S
Co383 O391 2.135 . S
O384 Co383 2.061 . S
O384 C387 1.235 . S
C385 O388 1.238 . S
C385 O389 1.241 . S
C386 O379 1.247 . S
C386 O380 1.261 . S
C387 O382 1.259 . S
C387 O384 1.235 . S
O388 Co378 2.021 . S
O388 C385 1.238 . S
O389 Co383 2.052 . S
O389 C385 1.241 . S
O390 Co378 2.137 . S
O390 C381 1.247 . S
O391 Co378 2.244 . S
O391 C381 1.272 . S
O391 Co383 2.135 . S
Co392 O393 2.216 . S
Co392 O394 2.091 . S
Co392 O396 2.004 . S
Co392 O402 2.021 . S
Co392 O404 2.137 . S
Co392 O405 2.244 . S
O393 Co392 2.216 . S
O393 C400 1.247 . S
O394 Co392 2.091 . S
O394 C400 1.261 . S
C395 O404 1.247 . S
C395 O405 1.272 . S
O396 Co392 2.004 . S
O396 C401 1.259 . S
Co397 O398 2.061 . S
Co397 O403 2.052 . S
Co397 O405 2.135 . S
O398 Co397 2.061 . S
O398 C401 1.235 . S
C399 O402 1.238 . S
C399 O403 1.241 . S
C400 O393 1.247 . S
C400 O394 1.261 . S
C401 O396 1.259 . S
C401 O398 1.235 . S
O402 Co392 2.021 . S
O402 C399 1.238 . S
O403 Co397 2.052 . S
O403 C399 1.241 . S
O404 Co392 2.137 . S
O404 C395 1.247 . S
O405 Co392 2.244 . S
O405 C395 1.272 . S
O405 Co397 2.135 . S
Co406 O407 2.216 . S
Co406 O408 2.091 . S
Co406 O410 2.004 . S
Co406 O416 2.021 . S
Co406 O418 2.137 . S
Co406 O419 2.244 . S
O407 Co406 2.216 . S
O407 C414 1.247 . S
O408 Co406 2.091 . S
O408 C414 1.261 . S
C409 O418 1.247 . S
C409 O419 1.272 . S
O410 Co406 2.004 . S
O410 C415 1.259 . S
Co411 O412 2.061 . S
Co411 O417 2.052 . S
Co411 O419 2.135 . S
O412 Co411 2.061 . S
O412 C415 1.235 . S
C413 O416 1.238 . S
C413 O417 1.241 . S
C414 O407 1.247 . S
C414 O408 1.261 . S
C415 O410 1.259 . S
C415 O412 1.235 . S
O416 Co406 2.021 . S
O416 C413 1.238 . S
O417 Co411 2.052 . S
O417 C413 1.241 . S
O418 Co406 2.137 . S
O418 C409 1.247 . S
O419 Co406 2.244 . S
O419 C409 1.272 . S
O419 Co411 2.135 . S
Co420 O421 2.216 . S
Co420 O422 2.091 . S
Co420 O424 2.004 . S
Co420 O430 2.021 . S
Co420 O432 2.137 . S
Co420 O433 2.244 . S
O421 Co420 2.216 . S
O421 C428 1.247 . S
O422 Co420 2.091 . S
O422 C428 1.261 . S
C423 O432 1.247 . S
C423 O433 1.272 . S
O424 Co420 2.004 . S
O424 C429 1.259 . S
Co425 O426 2.061 . S
Co425 O431 2.052 . S
Co425 O433 2.135 . S
O426 Co425 2.061 . S
O426 C429 1.235 . S
C427 O430 1.238 . S
C427 O431 1.241 . S
C428 O421 1.247 . S
C428 O422 1.261 . S
C429 O424 1.259 . S
C429 O426 1.235 . S
O430 Co420 2.021 . S
O430 C427 1.238 . S
O431 Co425 2.052 . S
O431 C427 1.241 . S
O432 Co420 2.137 . S
O432 C423 1.247 . S
O433 Co420 2.244 . S
O433 C423 1.272 . S
O433 Co425 2.135 . S
Co434 O435 2.216 . S
Co434 O436 2.091 . S
Co434 O438 2.004 . S
Co434 O444 2.021 . S
Co434 O446 2.137 . S
Co434 O447 2.244 . S
O435 Co434 2.216 . S
O435 C442 1.247 . S
O436 Co434 2.091 . S
O436 C442 1.261 . S
C437 O446 1.247 . S
C437 O447 1.272 . S
O438 Co434 2.004 . S
O438 C443 1.259 . S
Co439 O440 2.061 . S
Co439 O445 2.052 . S
Co439 O447 2.135 . S
O440 Co439 2.061 . S
O440 C443 1.235 . S
C441 O444 1.238 . S
C441 O445 1.241 . S
C442 O435 1.247 . S
C442 O436 1.261 . S
C443 O438 1.259 . S
C443 O440 1.235 . S
O444 Co434 2.021 . S
O444 C441 1.238 . S
O445 Co439 2.052 . S
O445 C441 1.241 . S
O446 Co434 2.137 . S
O446 C437 1.247 . S
O447 Co434 2.244 . S
O447 C437 1.272 . S
O447 Co439 2.135 . S
Co448 O449 2.216 . S
Co448 O450 2.091 . S
Co448 O452 2.004 . S
Co448 O458 2.021 . S
Co448 O460 2.137 . S
Co448 O461 2.244 . S
O449 Co448 2.216 . S
O449 C456 1.247 . S
O450 Co448 2.091 . S
O450 C456 1.261 . S
C451 O460 1.247 . S
C451 O461 1.272 . S
O452 Co448 2.004 . S
O452 C457 1.259 . S
Co453 O454 2.061 . S
Co453 O459 2.052 . S
Co453 O461 2.135 . S
O454 Co453 2.061 . S
O454 C457 1.235 . S
C455 O458 1.238 . S
C455 O459 1.241 . S
C456 O449 1.247 . S
C456 O450 1.261 . S
C457 O452 1.259 . S
C457 O454 1.235 . S
O458 Co448 2.021 . S
O458 C455 1.238 . S
O459 Co453 2.052 . S
O459 C455 1.241 . S
O460 Co448 2.137 . S
O460 C451 1.247 . S
O461 Co448 2.244 . S
O461 C451 1.272 . S
O461 Co453 2.135 . S
Co462 O463 2.216 . S
Co462 O464 2.091 . S
Co462 O466 2.004 . S
Co462 O472 2.021 . S
Co462 O474 2.137 . S
Co462 O475 2.244 . S
O463 Co462 2.216 . S
O463 C470 1.247 . S
O464 Co462 2.091 . S
O464 C470 1.261 . S
C465 O474 1.247 . S
C465 O475 1.272 . S
O466 Co462 2.004 . S
O466 C471 1.259 . S
Co467 O468 2.061 . S
Co467 O473 2.052 . S
Co467 O475 2.135 . S
O468 Co467 2.061 . S
O468 C471 1.235 . S
C469 O472 1.238 . S
C469 O473 1.241 . S
C470 O463 1.247 . S
C470 O464 1.261 . S
C471 O466 1.259 . S
C471 O468 1.235 . S
O472 Co462 2.021 . S
O472 C469 1.238 . S
O473 Co467 2.052 . S
O473 C469 1.241 . S
O474 Co462 2.137 . S
O474 C465 1.247 . S
O475 Co462 2.244 . S
O475 C465 1.272 . S
O475 Co467 2.135 . S
Co476 O477 2.216 . S
Co476 O478 2.091 . S
Co476 O480 2.004 . S
Co476 O486 2.021 . S
Co476 O488 2.137 . S
Co476 O489 2.244 . S
O477 Co476 2.216 . S
O477 C484 1.247 . S
O478 Co476 2.091 . S
O478 C484 1.261 . S
C479 O488 1.247 . S
C479 O489 1.272 . S
O480 Co476 2.004 . S
O480 C485 1.259 . S
Co481 O482 2.061 . S
Co481 O487 2.052 . S
Co481 O489 2.135 . S
O482 Co481 2.061 . S
O482 C485 1.235 . S
C483 O486 1.238 . S
C483 O487 1.241 . S
C484 O477 1.247 . S
C484 O478 1.261 . S
C485 O480 1.259 . S
C485 O482 1.235 . S
O486 Co476 2.021 . S
O486 C483 1.238 . S
O487 Co481 2.052 . S
O487 C483 1.241 . S
O488 Co476 2.137 . S
O488 C479 1.247 . S
O489 Co476 2.244 . S
O489 C479 1.272 . S
O489 Co481 2.135 . S
Co490 O491 2.216 . S
Co490 O492 2.091 . S
Co490 O494 2.004 . S
Co490 O500 2.021 . S
Co490 O502 2.137 . S
Co490 O503 2.244 . S
O491 Co490 2.216 . S
O491 C498 1.247 . S
O492 Co490 2.091 . S
O492 C498 1.261 . S
C493 O502 1.247 . S
C493 O503 1.272 . S
O494 Co490 2.004 . S
O494 C499 1.259 . S
Co495 O496 2.061 . S
Co495 O501 2.052 . S
Co495 O503 2.135 . S
O496 Co495 2.061 . S
O496 C499 1.235 . S
C497 O500 1.238 . S
C497 O501 1.241 . S
C498 O491 1.247 . S
C498 O492 1.261 . S
C499 O494 1.259 . S
C499 O496 1.235 . S
O500 Co490 2.021 . S
O500 C497 1.238 . S
O501 Co495 2.052 . S
O501 C497 1.241 . S
O502 Co490 2.137 . S
O502 C493 1.247 . S
O503 Co490 2.244 . S
O503 C493 1.272 . S
O503 Co495 2.135 . S
Co504 O505 2.216 . S
Co504 O506 2.091 . S
Co504 O508 2.004 . S
Co504 O514 2.021 . S
Co504 O516 2.137 . S
Co504 O517 2.244 . S
O505 Co504 2.216 . S
O505 C512 1.247 . S
O506 Co504 2.091 . S
O506 C512 1.261 . S
C507 O516 1.247 . S
C507 O517 1.272 . S
O508 Co504 2.004 . S
O508 C513 1.259 . S
Co509 O510 2.061 . S
Co509 O515 2.052 . S
Co509 O517 2.135 . S
O510 Co509 2.061 . S
O510 C513 1.235 . S
C511 O514 1.238 . S
C511 O515 1.241 . S
C512 O505 1.247 . S
C512 O506 1.261 . S
C513 O508 1.259 . S
C513 O510 1.235 . S
O514 Co504 2.021 . S
O514 C511 1.238 . S
O515 Co509 2.052 . S
O515 C511 1.241 . S
O516 Co504 2.137 . S
O516 C507 1.247 . S
O517 Co504 2.244 . S
O517 C507 1.272 . S
O517 Co509 2.135 . S
Co518 O519 2.216 . S
Co518 O520 2.091 . S
Co518 O522 2.004 . S
Co518 O528 2.021 . S
Co518 O530 2.137 . S
Co518 O531 2.244 . S
O519 Co518 2.216 . S
O519 C526 1.247 . S
O520 Co518 2.091 . S
O520 C526 1.261 . S
C521 O530 1.247 . S
C521 O531 1.272 . S
O522 Co518 2.004 . S
O522 C527 1.259 . S
Co523 O524 2.061 . S
Co523 O529 2.052 . S
Co523 O531 2.135 . S
O524 Co523 2.061 . S
O524 C527 1.235 . S
C525 O528 1.238 . S
C525 O529 1.241 . S
C526 O519 1.247 . S
C526 O520 1.261 . S
C527 O522 1.259 . S
C527 O524 1.235 . S
O528 Co518 2.021 . S
O528 C525 1.238 . S
O529 Co523 2.052 . S
O529 C525 1.241 . S
O530 Co518 2.137 . S
O530 C521 1.247 . S
O531 Co518 2.244 . S
O531 C521 1.272 . S
O531 Co523 2.135 . S
Co532 O533 2.216 . S
Co532 O534 2.091 . S
Co532 O536 2.004 . S
Co532 O542 2.021 . S
Co532 O544 2.137 . S
Co532 O545 2.244 . S
O533 Co532 2.216 . S
O533 C540 1.247 . S
O534 Co532 2.091 . S
O534 C540 1.261 . S
C535 O544 1.247 . S
C535 O545 1.272 . S
O536 Co532 2.004 . S
O536 C541 1.259 . S
Co537 O538 2.061 . S
Co537 O543 2.052 . S
Co537 O545 2.135 . S
O538 Co537 2.061 . S
O538 C541 1.235 . S
C539 O542 1.238 . S
C539 O543 1.241 . S
C540 O533 1.247 . S
C540 O534 1.261 . S
C541 O536 1.259 . S
C541 O538 1.235 . S
O542 Co532 2.021 . S
O542 C539 1.238 . S
O543 Co537 2.052 . S
O543 C539 1.241 . S
O544 Co532 2.137 . S
O544 C535 1.247 . S
O545 Co532 2.244 . S
O545 C535 1.272 . S
O545 Co537 2.135 . S
Co546 O547 2.216 . S
Co546 O548 2.091 . S
Co546 O550 2.004 . S
Co546 O556 2.021 . S
Co546 O558 2.137 . S
Co546 O559 2.244 . S
O547 Co546 2.216 . S
O547 C554 1.247 . S
O548 Co546 2.091 . S
O548 C554 1.261 . S
C549 O558 1.247 . S
C549 O559 1.272 . S
O550 Co546 2.004 . S
O550 C555 1.259 . S
Co551 O552 2.061 . S
Co551 O557 2.052 . S
Co551 O559 2.135 . S
O552 Co551 2.061 . S
O552 C555 1.235 . S
C553 O556 1.238 . S
C553 O557 1.241 . S
C554 O547 1.247 . S
C554 O548 1.261 . S
C555 O550 1.259 . S
C555 O552 1.235 . S
O556 Co546 2.021 . S
O556 C553 1.238 . S
O557 Co551 2.052 . S
O557 C553 1.241 . S
O558 Co546 2.137 . S
O558 C549 1.247 . S
O559 Co546 2.244 . S
O559 C549 1.272 . S
O559 Co551 2.135 . S
Co560 O561 2.216 . S
Co560 O562 2.091 . S
Co560 O564 2.004 . S
Co560 O570 2.021 . S
Co560 O572 2.137 . S
Co560 O573 2.244 . S
O561 Co560 2.216 . S
O561 C568 1.247 . S
O562 Co560 2.091 . S
O562 C568 1.261 . S
C563 O572 1.247 . S
C563 O573 1.272 . S
O564 Co560 2.004 . S
O564 C569 1.259 . S
Co565 O566 2.061 . S
Co565 O571 2.052 . S
Co565 O573 2.135 . S
O566 Co565 2.061 . S
O566 C569 1.235 . S
C567 O570 1.238 . S
C567 O571 1.241 . S
C568 O561 1.247 . S
C568 O562 1.261 . S
C569 O564 1.259 . S
C569 O566 1.235 . S
O570 Co560 2.021 . S
O570 C567 1.238 . S
O571 Co565 2.052 . S
O571 C567 1.241 . S
O572 Co560 2.137 . S
O572 C563 1.247 . S
O573 Co560 2.244 . S
O573 C563 1.272 . S
O573 Co565 2.135 . S
Co574 O575 2.216 . S
Co574 O576 2.091 . S
Co574 O578 2.004 . S
Co574 O584 2.021 . S
Co574 O586 2.137 . S
Co574 O587 2.244 . S
O575 Co574 2.216 . S
O575 C582 1.247 . S
O576 Co574 2.091 . S
O576 C582 1.261 . S
C577 O586 1.247 . S
C577 O587 1.272 . S
O578 Co574 2.004 . S
O578 C583 1.259 . S
Co579 O580 2.061 . S
Co579 O585 2.052 . S
Co579 O587 2.135 . S
O580 Co579 2.061 . S
O580 C583 1.235 . S
C581 O584 1.238 . S
C581 O585 1.241 . S
C582 O575 1.247 . S
C582 O576 1.261 . S
C583 O578 1.259 . S
C583 O580 1.235 . S
O584 Co574 2.021 . S
O584 C581 1.238 . S
O585 Co579 2.052 . S
O585 C581 1.241 . S
O586 Co574 2.137 . S
O586 C577 1.247 . S
O587 Co574 2.244 . S
O587 C577 1.272 . S
O587 Co579 2.135 . S
Co588 O589 2.216 . S
Co588 O590 2.091 . S
Co588 O592 2.004 . S
Co588 O598 2.021 . S
Co588 O600 2.137 . S
Co588 O601 2.244 . S
O589 Co588 2.216 . S
O589 C596 1.247 . S
O590 Co588 2.091 . S
O590 C596 1.261 . S
C591 O600 1.247 . S
C591 O601 1.272 . S
O592 Co588 2.004 . S
O592 C597 1.259 . S
Co593 O594 2.061 . S
Co593 O599 2.052 . S
Co593 O601 2.135 . S
O594 Co593 2.061 . S
O594 C597 1.235 . S
C595 O598 1.238 . S
C595 O599 1.241 . S
C596 O589 1.247 . S
C596 O590 1.261 . S
C597 O592 1.259 . S
C597 O594 1.235 . S
O598 Co588 2.021 . S
O598 C595 1.238 . S
O599 Co593 2.052 . S
O599 C595 1.241 . S
O600 Co588 2.137 . S
O600 C591 1.247 . S
O601 Co588 2.244 . S
O601 C591 1.272 . S
O601 Co593 2.135 . S
Co602 O603 2.216 . S
Co602 O604 2.091 . S
Co602 O606 2.004 . S
Co602 O612 2.021 . S
Co602 O614 2.137 . S
Co602 O615 2.244 . S
O603 Co602 2.216 . S
O603 C610 1.247 . S
O604 Co602 2.091 . S
O604 C610 1.261 . S
C605 O614 1.247 . S
C605 O615 1.272 . S
O606 Co602 2.004 . S
O606 C611 1.259 . S
Co607 O608 2.061 . S
Co607 O613 2.052 . S
Co607 O615 2.135 . S
O608 Co607 2.061 . S
O608 C611 1.235 . S
C609 O612 1.238 . S
C609 O613 1.241 . S
C610 O603 1.247 . S
C610 O604 1.261 . S
C611 O606 1.259 . S
C611 O608 1.235 . S
O612 Co602 2.021 . S
O612 C609 1.238 . S
O613 Co607 2.052 . S
O613 C609 1.241 . S
O614 Co602 2.137 . S
O614 C605 1.247 . S
O615 Co602 2.244 . S
O615 C605 1.272 . S
O615 Co607 2.135 . S
Co616 O617 2.216 . S
Co616 O618 2.091 . S
Co616 O620 2.004 . S
Co616 O626 2.021 . S
Co616 O628 2.137 . S
Co616 O629 2.244 . S
O617 Co616 2.216 . S
O617 C624 1.247 . S
O618 Co616 2.091 . S
O618 C624 1.261 . S
C619 O628 1.247 . S
C619 O629 1.272 . S
O620 Co616 2.004 . S
O620 C625 1.259 . S
Co621 O622 2.061 . S
Co621 O627 2.052 . S
Co621 O629 2.135 . S
O622 Co621 2.061 . S
O622 C625 1.235 . S
C623 O626 1.238 . S
C623 O627 1.241 . S
C624 O617 1.247 . S
C624 O618 1.261 . S
C625 O620 1.259 . S
C625 O622 1.235 . S
O626 Co616 2.021 . S
O626 C623 1.238 . S
O627 Co621 2.052 . S
O627 C623 1.241 . S
O628 Co616 2.137 . S
O628 C619 1.247 . S
O629 Co616 2.244 . S
O629 C619 1.272 . S
O629 Co621 2.135 . S
Co630 O631 2.216 . S
Co630 O632 2.091 . S
Co630 O634 2.004 . S
Co630 O640 2.021 . S
Co630 O642 2.137 . S
Co630 O643 2.244 . S
O631 Co630 2.216 . S
O631 C638 1.247 . S
O632 Co630 2.091 . S
O632 C638 1.261 . S
C633 O642 1.247 . S
C633 O643 1.272 . S
O634 Co630 2.004 . S
O634 C639 1.259 . S
Co635 O636 2.061 . S
Co635 O641 2.052 . S
Co635 O643 2.135 . S
O636 Co635 2.061 . S
O636 C639 1.235 . S
C637 O640 1.238 . S
C637 O641 1.241 . S
C638 O631 1.247 . S
C638 O632 1.261 . S
C639 O634 1.259 . S
C639 O636 1.235 . S
O640 Co630 2.021 . S
O640 C637 1.238 . S
O641 Co635 2.052 . S
O641 C637 1.241 . S
O642 Co630 2.137 . S
O642 C633 1.247 . S
O643 Co630 2.244 . S
O643 C633 1.272 . S
O643 Co635 2.135 . S
Co644 O645 2.216 . S
Co644 O646 2.091 . S
Co644 O648 2.004 . S
Co644 O654 2.021 . S
Co644 O656 2.137 . S
Co644 O657 2.244 . S
O645 Co644 2.216 . S
O645 C652 1.247 . S
O646 Co644 2.091 . S
O646 C652 1.261 . S
C647 O656 1.247 . S
C647 O657 1.272 . S
O648 Co644 2.004 . S
O648 C653 1.259 . S
Co649 O650 2.061 . S
Co649 O655 2.052 . S
Co649 O657 2.135 . S
O650 Co649 2.061 . S
O650 C653 1.235 . S
C651 O654 1.238 . S
C651 O655 1.241 . S
C652 O645 1.247 . S
C652 O646 1.261 . S
C653 O648 1.259 . S
C653 O650 1.235 . S
O654 Co644 2.021 . S
O654 C651 1.238 . S
O655 Co649 2.052 . S
O655 C651 1.241 . S
O656 Co644 2.137 . S
O656 C647 1.247 . S
O657 Co644 2.244 . S
O657 C647 1.272 . S
O657 Co649 2.135 . S
Co658 O659 2.216 . S
Co658 O660 2.091 . S
Co658 O662 2.004 . S
Co658 O668 2.021 . S
Co658 O670 2.137 . S
Co658 O671 2.244 . S
O659 Co658 2.216 . S
O659 C666 1.247 . S
O660 Co658 2.091 . S
O660 C666 1.261 . S
C661 O670 1.247 . S
C661 O671 1.272 . S
O662 Co658 2.004 . S
O662 C667 1.259 . S
Co663 O664 2.061 . S
Co663 O669 2.052 . S
Co663 O671 2.135 . S
O664 Co663 2.061 . S
O664 C667 1.235 . S
C665 O668 1.238 . S
C665 O669 1.241 . S
C666 O659 1.247 . S
C666 O660 1.261 . S
C667 O662 1.259 . S
C667 O664 1.235 . S
O668 Co658 2.021 . S
O668 C665 1.238 . S
O669 Co663 2.052 . S
O669 C665 1.241 . S
O670 Co658 2.137 . S
O670 C661 1.247 . S
O671 Co658 2.244 . S
O671 C661 1.272 . S
O671 Co663 2.135 . S
Co672 O673 2.216 . S
Co672 O674 2.091 . S
Co672 O676 2.004 . S
Co672 O682 2.021 . S
Co672 O684 2.137 . S
Co672 O685 2.244 . S
O673 Co672 2.216 . S
O673 C680 1.247 . S
O674 Co672 2.091 . S
O674 C680 1.261 . S
C675 O684 1.247 . S
C675 O685 1.272 . S
O676 Co672 2.004 . S
O676 C681 1.259 . S
Co677 O678 2.061 . S
Co677 O683 2.052 . S
Co677 O685 2.135 . S
O678 Co677 2.061 . S
O678 C681 1.235 . S
C679 O682 1.238 . S
C679 O683 1.241 . S
C680 O673 1.247 . S
C680 O674 1.261 . S
C681 O676 1.259 . S
C681 O678 1.235 . S
O682 Co672 2.021 . S
O682 C679 1.238 . S
O683 Co677 2.052 . S
O683 C679 1.241 . S
O684 Co672 2.137 . S
O684 C675 1.247 . S
O685 Co672 2.244 . S
O685 C675 1.272 . S
O685 Co677 2.135 . S
Co686 O687 2.216 . S
Co686 O688 2.091 . S
Co686 O690 2.004 . S
Co686 O696 2.021 . S
Co686 O698 2.137 . S
Co686 O699 2.244 . S
O687 Co686 2.216 . S
O687 C694 1.247 . S
O688 Co686 2.091 . S
O688 C694 1.261 . S
C689 O698 1.247 . S
C689 O699 1.272 . S
O690 Co686 2.004 . S
O690 C695 1.259 . S
Co691 O692 2.061 . S
Co691 O697 2.052 . S
Co691 O699 2.135 . S
O692 Co691 2.061 . S
O692 C695 1.235 . S
C693 O696 1.238 . S
C693 O697 1.241 . S
C694 O687 1.247 . S
C694 O688 1.261 . S
C695 O690 1.259 . S
C695 O692 1.235 . S
O696 Co686 2.021 . S
O696 C693 1.238 . S
O697 Co691 2.052 . S
O697 C693 1.241 . S
O698 Co686 2.137 . S
O698 C689 1.247 . S
O699 Co686 2.244 . S
O699 C689 1.272 . S
O699 Co691 2.135 . S
Co700 O701 2.216 . S
Co700 O702 2.091 . S
Co700 O704 2.004 . S
Co700 O710 2.021 . S
Co700 O712 2.137 . S
Co700 O713 2.244 . S
O701 Co700 2.216 . S
O701 C708 1.247 . S
O702 Co700 2.091 . S
O702 C708 1.261 . S
C703 O712 1.247 . S
C703 O713 1.272 . S
O704 Co700 2.004 . S
O704 C709 1.259 . S
Co705 O706 2.061 . S
Co705 O711 2.052 . S
Co705 O713 2.135 . S
O706 Co705 2.061 . S
O706 C709 1.235 . S
C707 O710 1.238 . S
C707 O711 1.241 . S
C708 O701 1.247 . S
C708 O702 1.261 . S
C709 O704 1.259 . S
C709 O706 1.235 . S
O710 Co700 2.021 . S
O710 C707 1.238 . S
O711 Co705 2.052 . S
O711 C707 1.241 . S
O712 Co700 2.137 . S
O712 C703 1.247 . S
O713 Co700 2.244 . S
O713 C703 1.272 . S
O713 Co705 2.135 . S
Co714 O715 2.216 . S
Co714 O716 2.091 . S
Co714 O718 2.004 . S
Co714 O724 2.021 . S
Co714 O726 2.137 . S
Co714 O727 2.244 . S
O715 Co714 2.216 . S
O715 C722 1.247 . S
O716 Co714 2.091 . S
O716 C722 1.261 . S
C717 O726 1.247 . S
C717 O727 1.272 . S
O718 Co714 2.004 . S
O718 C723 1.259 . S
Co719 O720 2.061 . S
Co719 O725 2.052 . S
Co719 O727 2.135 . S
O720 Co719 2.061 . S
O720 C723 1.235 . S
C721 O724 1.238 . S
C721 O725 1.241 . S
C722 O715 1.247 . S
C722 O716 1.261 . S
C723 O718 1.259 . S
C723 O720 1.235 . S
O724 Co714 2.021 . S
O724 C721 1.238 . S
O725 Co719 2.052 . S
O725 C721 1.241 . S
O726 Co714 2.137 . S
O726 C717 1.247 . S
O727 Co714 2.244 . S
O727 C717 1.272 . S
O727 Co719 2.135 . S
Co728 O729 2.216 . S
Co728 O730 2.091 . S
Co728 O732 2.004 . S
Co728 O738 2.021 . S
Co728 O740 2.137 . S
Co728 O741 2.244 . S
O729 Co728 2.216 . S
O729 C736 1.247 . S
O730 Co728 2.091 . S
O730 C736 1.261 . S
C731 O740 1.247 . S
C731 O741 1.272 . S
O732 Co728 2.004 . S
O732 C737 1.259 . S
Co733 O734 2.061 . S
Co733 O739 2.052 . S
Co733 O741 2.135 . S
O734 Co733 2.061 . S
O734 C737 1.235 . S
C735 O738 1.238 . S
C735 O739 1.241 . S
C736 O729 1.247 . S
C736 O730 1.261 . S
C737 O732 1.259 . S
C737 O734 1.235 . S
O738 Co728 2.021 . S
O738 C735 1.238 . S
O739 Co733 2.052 . S
O739 C735 1.241 . S
O740 Co728 2.137 . S
O740 C731 1.247 . S
O741 Co728 2.244 . S
O741 C731 1.272 . S
O741 Co733 2.135 . S
Co742 O743 2.216 . S
Co742 O744 2.091 . S
Co742 O746 2.004 . S
Co742 O752 2.021 . S
Co742 O754 2.137 . S
Co742 O755 2.244 . S
O743 Co742 2.216 . S
O743 C750 1.247 . S
O744 Co742 2.091 . S
O744 C750 1.261 . S
C745 O754 1.247 . S
C745 O755 1.272 . S
O746 Co742 2.004 . S
O746 C751 1.259 . S
Co747 O748 2.061 . S
Co747 O753 2.052 . S
Co747 O755 2.135 . S
O748 Co747 2.061 . S
O748 C751 1.235 . S
C749 O752 1.238 . S
C749 O753 1.241 . S
C750 O743 1.247 . S
C750 O744 1.261 . S
C751 O746 1.259 . S
C751 O748 1.235 . S
O752 Co742 2.021 . S
O752 C749 1.238 . S
O753 Co747 2.052 . S
O753 C749 1.241 . S
O754 Co742 2.137 . S
O754 C745 1.247 . S
O755 Co742 2.244 . S
O755 C745 1.272 . S
O755 Co747 2.135 . S
Co756 O757 2.216 . S
Co756 O758 2.091 . S
Co756 O760 2.004 . S
Co756 O766 2.021 . S
Co756 O768 2.137 . S
Co756 O769 2.244 . S
O757 Co756 2.216 . S
O757 C764 1.247 . S
O758 Co756 2.091 . S
O758 C764 1.261 . S
C759 O768 1.247 . S
C759 O769 1.272 . S
O760 Co756 2.004 . S
O760 C765 1.259 . S
Co761 O762 2.061 . S
Co761 O767 2.052 . S
Co761 O769 2.135 . S
O762 Co761 2.061 . S
O762 C765 1.235 . S
C763 O766 1.238 . S
C763 O767 1.241 . S
C764 O757 1.247 . S
C764 O758 1.261 . S
C765 O760 1.259 . S
C765 O762 1.235 . S
O766 Co756 2.021 . S
O766 C763 1.238 . S
O767 Co761 2.052 . S
O767 C763 1.241 . S
O768 Co756 2.137 . S
O768 C759 1.247 . S
O769 Co756 2.244 . S
O769 C759 1.272 . S
O769 Co761 2.135 . S
Co770 O771 2.216 . S
Co770 O772 2.091 . S
Co770 O774 2.004 . S
Co770 O780 2.021 . S
Co770 O782 2.137 . S
Co770 O783 2.244 . S
O771 Co770 2.216 . S
O771 C778 1.247 . S
O772 Co770 2.091 . S
O772 C778 1.261 . S
C773 O782 1.247 . S
C773 O783 1.272 . S
O774 Co770 2.004 . S
O774 C779 1.259 . S
Co775 O776 2.061 . S
Co775 O781 2.052 . S
Co775 O783 2.135 . S
O776 Co775 2.061 . S
O776 C779 1.235 . S
C777 O780 1.238 . S
C777 O781 1.241 . S
C778 O771 1.247 . S
C778 O772 1.261 . S
C779 O774 1.259 . S
C779 O776 1.235 . S
O780 Co770 2.021 . S
O780 C777 1.238 . S
O781 Co775 2.052 . S
O781 C777 1.241 . S
O782 Co770 2.137 . S
O782 C773 1.247 . S
O783 Co770 2.244 . S
O783 C773 1.272 . S
O783 Co775 2.135 . S
Co784 O785 2.216 . S
Co784 O786 2.091 . S
Co784 O788 2.004 . S
Co784 O794 2.021 . S
Co784 O796 2.137 . S
Co784 O797 2.244 . S
O785 Co784 2.216 . S
O785 C792 1.247 . S
O786 Co784 2.091 . S
O786 C792 1.261 . S
C787 O796 1.247 . S
C787 O797 1.272 . S
O788 Co784 2.004 . S
O788 C793 1.259 . S
Co789 O790 2.061 . S
Co789 O795 2.052 . S
Co789 O797 2.135 . S
O790 Co789 2.061 . S
O790 C793 1.235 . S
C791 O794 1.238 . S
C791 O795 1.241 . S
C792 O785 1.247 . S
C792 O786 1.261 . S
C793 O788 1.259 . S
C793 O790 1.235 . S
O794 Co784 2.021 . S
O794 C791 1.238 . S
O795 Co789 2.052 . S
O795 C791 1.241 . S
O796 Co784 2.137 . S
O796 C787 1.247 . S
O797 Co784 2.244 . S
O797 C787 1.272 . S
O797 Co789 2.135 . S
Co798 O799 2.216 . S
Co798 O800 2.091 . S
Co798 O802 2.004 . S
Co798 O808 2.021 . S
Co798 O810 2.137 . S
Co798 O811 2.244 . S
O799 Co798 2.216 . S
O799 C806 1.247 . S
O800 Co798 2.091 . S
O800 C806 1.261 . S
C801 O810 1.247 . S
C801 O811 1.272 . S
O802 Co798 2.004 . S
O802 C807 1.259 . S
Co803 O804 2.061 . S
Co803 O809 2.052 . S
Co803 O811 2.135 . S
O804 Co803 2.061 . S
O804 C807 1.235 . S
C805 O808 1.238 . S
C805 O809 1.241 . S
C806 O799 1.247 . S
C806 O800 1.261 . S
C807 O802 1.259 . S
C807 O804 1.235 . S
O808 Co798 2.021 . S
O808 C805 1.238 . S
O809 Co803 2.052 . S
O809 C805 1.241 . S
O810 Co798 2.137 . S
O810 C801 1.247 . S
O811 Co798 2.244 . S
O811 C801 1.272 . S
O811 Co803 2.135 . S
Co812 O813 2.216 . S
Co812 O814 2.091 . S
Co812 O816 2.004 . S
Co812 O822 2.021 . S
Co812 O824 2.137 . S
Co812 O825 2.244 . S
O813 Co812 2.216 . S
O813 C820 1.247 . S
O814 Co812 2.091 . S
O814 C820 1.261 . S
C815 O824 1.247 . S
C815 O825 1.272 . S
O816 Co812 2.004 . S
O816 C821 1.259 . S
Co817 O818 2.061 . S
Co817 O823 2.052 . S
Co817 O825 2.135 . S
O818 Co817 2.061 . S
O818 C821 1.235 . S
C819 O822 1.238 . S
C819 O823 1.241 . S
C820 O813 1.247 . S
C820 O814 1.261 . S
C821 O816 1.259 . S
C821 O818 1.235 . S
O822 Co812 2.021 . S
O822 C819 1.238 . S
O823 Co817 2.052 . S
O823 C819 1.241 . S
O824 Co812 2.137 . S
O824 C815 1.247 . S
O825 Co812 2.244 . S
O825 C815 1.272 . S
O825 Co817 2.135 . S
Co826 O827 2.216 . S
Co826 O828 2.091 . S
Co826 O830 2.004 . S
Co826 O836 2.021 . S
Co826 O838 2.137 . S
Co826 O839 2.244 . S
O827 Co826 2.216 . S
O827 C834 1.247 . S
O828 Co826 2.091 . S
O828 C834 1.261 . S
C829 O838 1.247 . S
C829 O839 1.272 . S
O830 Co826 2.004 . S
O830 C835 1.259 . S
Co831 O832 2.061 . S
Co831 O837 2.052 . S
Co831 O839 2.135 . S
O832 Co831 2.061 . S
O832 C835 1.235 . S
C833 O836 1.238 . S
C833 O837 1.241 . S
C834 O827 1.247 . S
C834 O828 1.261 . S
C835 O830 1.259 . S
C835 O832 1.235 . S
O836 Co826 2.021 . S
O836 C833 1.238 . S
O837 Co831 2.052 . S
O837 C833 1.241 . S
O838 Co826 2.137 . S
O838 C829 1.247 . S
O839 Co826 2.244 . S
O839 C829 1.272 . S
O839 Co831 2.135 . S
Co840 O841 2.216 . S
Co840 O842 2.091 . S
Co840 O844 2.004 . S
Co840 O850 2.021 . S
Co840 O852 2.137 . S
Co840 O853 2.244 . S
O841 Co840 2.216 . S
O841 C848 1.247 . S
O842 Co840 2.091 . S
O842 C848 1.261 . S
C843 O852 1.247 . S
C843 O853 1.272 . S
O844 Co840 2.004 . S
O844 C849 1.259 . S
Co845 O846 2.061 . S
Co845 O851 2.052 . S
Co845 O853 2.135 . S
O846 Co845 2.061 . S
O846 C849 1.235 . S
C847 O850 1.238 . S
C847 O851 1.241 . S
C848 O841 1.247 . S
C848 O842 1.261 . S
C849 O844 1.259 . S
C849 O846 1.235 . S
O850 Co840 2.021 . S
O850 C847 1.238 . S
O851 Co845 2.052 . S
O851 C847 1.241 . S
O852 Co840 2.137 . S
O852 C843 1.247 . S
O853 Co840 2.244 . S
O853 C843 1.272 . S
O853 Co845 2.135 . S
Co854 O855 2.216 . S
Co854 O856 2.091 . S
Co854 O858 2.004 . S
Co854 O864 2.021 . S
Co854 O866 2.137 . S
Co854 O867 2.244 . S
O855 Co854 2.216 . S
O855 C862 1.247 . S
O856 Co854 2.091 . S
O856 C862 1.261 . S
C857 O866 1.247 . S
C857 O867 1.272 . S
O858 Co854 2.004 . S
O858 C863 1.259 . S
Co859 O860 2.061 . S
Co859 O865 2.052 . S
Co859 O867 2.135 . S
O860 Co859 2.061 . S
O860 C863 1.235 . S
C861 O864 1.238 . S
C861 O865 1.241 . S
C862 O855 1.247 . S
C862 O856 1.261 . S
C863 O858 1.259 . S
C863 O860 1.235 . S
O864 Co854 2.021 . S
O864 C861 1.238 . S
O865 Co859 2.052 . S
O865 C861 1.241 . S
O866 Co854 2.137 . S
O866 C857 1.247 . S
O867 Co854 2.244 . S
O867 C857 1.272 . S
O867 Co859 2.135 . S
Co868 O869 2.216 . S
Co868 O870 2.091 . S
Co868 O872 2.004 . S
Co868 O878 2.021 . S
Co868 O880 2.137 . S
Co868 O881 2.244 . S
O869 Co868 2.216 . S
O869 C876 1.247 . S
O870 Co868 2.091 . S
O870 C876 1.261 . S
C871 O880 1.247 . S
C871 O881 1.272 . S
O872 Co868 2.004 . S
O872 C877 1.259 . S
Co873 O874 2.061 . S
Co873 O879 2.052 . S
Co873 O881 2.135 . S
O874 Co873 2.061 . S
O874 C877 1.235 . S
C875 O878 1.238 . S
C875 O879 1.241 . S
C876 O869 1.247 . S
C876 O870 1.261 . S
C877 O872 1.259 . S
C877 O874 1.235 . S
O878 Co868 2.021 . S
O878 C875 1.238 . S
O879 Co873 2.052 . S
O879 C875 1.241 . S
O880 Co868 2.137 . S
O880 C871 1.247 . S
O881 Co868 2.244 . S
O881 C871 1.272 . S
O881 Co873 2.135 . S
Co882 O883 2.216 . S
Co882 O884 2.091 . S
Co882 O886 2.004 . S
Co882 O892 2.021 . S
Co882 O894 2.137 . S
Co882 O895 2.244 . S
O883 Co882 2.216 . S
O883 C890 1.247 . S
O884 Co882 2.091 . S
O884 C890 1.261 . S
C885 O894 1.247 . S
C885 O895 1.272 . S
O886 Co882 2.004 . S
O886 C891 1.259 . S
Co887 O888 2.061 . S
Co887 O893 2.052 . S
Co887 O895 2.135 . S
O888 Co887 2.061 . S
O888 C891 1.235 . S
C889 O892 1.238 . S
C889 O893 1.241 . S
C890 O883 1.247 . S
C890 O884 1.261 . S
C891 O886 1.259 . S
C891 O888 1.235 . S
O892 Co882 2.021 . S
O892 C889 1.238 . S
O893 Co887 2.052 . S
O893 C889 1.241 . S
O894 Co882 2.137 . S
O894 C885 1.247 . S
O895 Co882 2.244 . S
O895 C885 1.272 . S
O895 Co887 2.135 . S
Co896 O897 2.216 . S
Co896 O898 2.091 . S
Co896 O900 2.004 . S
Co896 O906 2.021 . S
Co896 O908 2.137 . S
Co896 O909 2.244 . S
O897 Co896 2.216 . S
O897 C904 1.247 . S
O898 Co896 2.091 . S
O898 C904 1.261 . S
C899 O908 1.247 . S
C899 O909 1.272 . S
O900 Co896 2.004 . S
O900 C905 1.259 . S
Co901 O902 2.061 . S
Co901 O907 2.052 . S
Co901 O909 2.135 . S
O902 Co901 2.061 . S
O902 C905 1.235 . S
C903 O906 1.238 . S
C903 O907 1.241 . S
C904 O897 1.247 . S
C904 O898 1.261 . S
C905 O900 1.259 . S
C905 O902 1.235 . S
O906 Co896 2.021 . S
O906 C903 1.238 . S
O907 Co901 2.052 . S
O907 C903 1.241 . S
O908 Co896 2.137 . S
O908 C899 1.247 . S
O909 Co896 2.244 . S
O909 C899 1.272 . S
O909 Co901 2.135 . S
Co910 O911 2.216 . S
Co910 O912 2.091 . S
Co910 O914 2.004 . S
Co910 O920 2.021 . S
Co910 O922 2.137 . S
Co910 O923 2.244 . S
O911 Co910 2.216 . S
O911 C918 1.247 . S
O912 Co910 2.091 . S
O912 C918 1.261 . S
C913 O922 1.247 . S
C913 O923 1.272 . S
O914 Co910 2.004 . S
O914 C919 1.259 . S
Co915 O916 2.061 . S
Co915 O921 2.052 . S
Co915 O923 2.135 . S
O916 Co915 2.061 . S
O916 C919 1.235 . S
C917 O920 1.238 . S
C917 O921 1.241 . S
C918 O911 1.247 . S
C918 O912 1.261 . S
C919 O914 1.259 . S
C919 O916 1.235 . S
O920 Co910 2.021 . S
O920 C917 1.238 . S
O921 Co915 2.052 . S
O921 C917 1.241 . S
O922 Co910 2.137 . S
O922 C913 1.247 . S
O923 Co910 2.244 . S
O923 C913 1.272 . S
O923 Co915 2.135 . S
Co924 O925 2.216 . S
Co924 O926 2.091 . S
Co924 O928 2.004 . S
Co924 O934 2.021 . S
Co924 O936 2.137 . S
Co924 O937 2.244 . S
O925 Co924 2.216 . S
O925 C932 1.247 . S
O926 Co924 2.091 . S
O926 C932 1.261 . S
C927 O936 1.247 . S
C927 O937 1.272 . S
O928 Co924 2.004 . S
O928 C933 1.259 . S
Co929 O930 2.061 . S
Co929 O935 2.052 . S
Co929 O937 2.135 . S
O930 Co929 2.061 . S
O930 C933 1.235 . S
C931 O934 1.238 . S
C931 O935 1.241 . S
C932 O925 1.247 . S
C932 O926 1.261 . S
C933 O928 1.259 . S
C933 O930 1.235 . S
O934 Co924 2.021 . S
O934 C931 1.238 . S
O935 Co929 2.052 . S
O935 C931 1.241 . S
O936 Co924 2.137 . S
O936 C927 1.247 . S
O937 Co924 2.244 . S
O937 C927 1.272 . S
O937 Co929 2.135 . S
Co938 O939 2.216 . S
Co938 O940 2.091 . S
Co938 O942 2.004 . S
Co938 O948 2.021 . S
Co938 O950 2.137 . S
Co938 O951 2.244 . S
O939 Co938 2.216 . S
O939 C946 1.247 . S
O940 Co938 2.091 . S
O940 C946 1.261 . S
C941 O950 1.247 . S
C941 O951 1.272 . S
O942 Co938 2.004 . S
O942 C947 1.259 . S
Co943 O944 2.061 . S
Co943 O949 2.052 . S
Co943 O951 2.135 . S
O944 Co943 2.061 . S
O944 C947 1.235 . S
C945 O948 1.238 . S
C945 O949 1.241 . S
C946 O939 1.247 . S
C946 O940 1.261 . S
C947 O942 1.259 . S
C947 O944 1.235 . S
O948 Co938 2.021 . S
O948 C945 1.238 . S
O949 Co943 2.052 . S
O949 C945 1.241 . S
O950 Co938 2.137 . S
O950 C941 1.247 . S
O951 Co938 2.244 . S
O951 C941 1.272 . S
O951 Co943 2.135 . S
Co952 O953 2.216 . S
Co952 O954 2.091 . S
Co952 O956 2.004 . S
Co952 O962 2.021 . S
Co952 O964 2.137 . S
Co952 O965 2.244 . S
O953 Co952 2.216 . S
O953 C960 1.247 . S
O954 Co952 2.091 . S
O954 C960 1.261 . S
C955 O964 1.247 . S
C955 O965 1.272 . S
O956 Co952 2.004 . S
O956 C961 1.259 . S
Co957 O958 2.061 . S
Co957 O963 2.052 . S
Co957 O965 2.135 . S
O958 Co957 2.061 . S
O958 C961 1.235 . S
C959 O962 1.238 . S
C959 O963 1.241 . S
C960 O953 1.247 . S
C960 O954 1.261 . S
C961 O956 1.259 . S
C961 O958 1.235 . S
O962 Co952 2.021 . S
O962 C959 1.238 . S
O963 Co957 2.052 . S
O963 C959 1.241 . S
O964 Co952 2.137 . S
O964 C955 1.247 . S
O965 Co952 2.244 . S
O965 C955 1.272 . S
O965 Co957 2.135 . S
Co966 O967 2.216 . S
Co966 O968 2.091 . S
Co966 O970 2.004 . S
Co966 O976 2.021 . S
Co966 O978 2.137 . S
Co966 O979 2.244 . S
O967 Co966 2.216 . S
O967 C974 1.247 . S
O968 Co966 2.091 . S
O968 C974 1.261 . S
C969 O978 1.247 . S
C969 O979 1.272 . S
O970 Co966 2.004 . S
O970 C975 1.259 . S
Co971 O972 2.061 . S
Co971 O977 2.052 . S
Co971 O979 2.135 . S
O972 Co971 2.061 . S
O972 C975 1.235 . S
C973 O976 1.238 . S
C973 O977 1.241 . S
C974 O967 1.247 . S
C974 O968 1.261 . S
C975 O970 1.259 . S
C975 O972 1.235 . S
O976 Co966 2.021 . S
O976 C973 1.238 . S
O977 Co971 2.052 . S
O977 C973 1.241 . S
O978 Co966 2.137 . S
O978 C969 1.247 . S
O979 Co966 2.244 . S
O979 C969 1.272 . S
O979 Co971 2.135 . S
Co980 O981 2.216 . S
Co980 O982 2.091 . S
Co980 O984 2.004 . S
Co980 O990 2.021 . S
Co980 O992 2.137 . S
Co980 O993 2.244 . S
O981 Co980 2.216 . S
O981 C988 1.247 . S
O982 Co980 2.091 . S
O982 C988 1.261 . S
C983 O992 1.247 . S
C983 O993 1.272 . S
O984 Co980 2.004 . S
O984 C989 1.259 . S
Co985 O986 2.061 . S
Co985 O991 2.052 . S
Co985 O993 2.135 . S
O986 Co985 2.061 . S
O986 C989 1.235 . S
C987 O990 1.238 . S
C987 O991 1.241 . S
C988 O981 1.247 . S
C988 O982 1.261 . S
C989 O984 1.259 . S
C989 O986 1.235 . S
O990 Co980 2.021 . S
O990 C987 1.238 . S
O991 Co985 2.052 . S
O991 C987 1.241 . S
O992 Co980 2.137 . S
O992 C983 1.247 . S
O993 Co980 2.244 . S
O993 C983 1.272 . S
O993 Co985 2.135 . S
Co994 O995 2.216 . S
Co994 O996 2.091 . S
Co994 O998 2.004 . S
Co994 O1004 2.021 . S
Co994 O1006 2.137 . S
Co994 O1007 2.244 . S
O995 Co994 2.216 . S
O995 C1002 1.247 . S
O996 Co994 2.091 . S
O996 C1002 1.261 . S
C997 O1006 1.247 . S
C997 O1007 1.272 . S
O998 Co994 2.004 . S
O998 C1003 1.259 . S
Co999 O1000 2.061 . S
Co999 O1005 2.052 . S
Co999 O1007 2.135 . S
O1000 Co999 2.061 . S
O1000 C1003 1.235 . S
C1001 O1004 1.238 . S
C1001 O1005 1.241 . S
C1002 O995 1.247 . S
C1002 O996 1.261 . S
C1003 O998 1.259 . S
C1003 O1000 1.235 . S
O1004 Co994 2.021 . S
O1004 C1001 1.238 . S
O1005 Co999 2.052 . S
O1005 C1001 1.241 . S
O1006 Co994 2.137 . S
O1006 C997 1.247 . S
O1007 Co994 2.244 . S
O1007 C997 1.272 . S
O1007 Co999 2.135 . S
Co1008 O1009 2.216 . S
Co1008 O1010 2.091 . S
Co1008 O1012 2.004 . S
Co1008 O1018 2.021 . S
Co1008 O1020 2.137 . S
Co1008 O1021 2.244 . S
O1009 Co1008 2.216 . S
O1009 C1016 1.247 . S
O1010 Co1008 2.091 . S
O1010 C1016 1.261 . S
C1011 O1020 1.247 . S
C1011 O1021 1.272 . S
O1012 Co1008 2.004 . S
O1012 C1017 1.259 . S
Co1013 O1014 2.061 . S
Co1013 O1019 2.052 . S
Co1013 O1021 2.135 . S
O1014 Co1013 2.061 . S
O1014 C1017 1.235 . S
C1015 O1018 1.238 . S
C1015 O1019 1.241 . S
C1016 O1009 1.247 . S
C1016 O1010 1.261 . S
C1017 O1012 1.259 . S
C1017 O1014 1.235 . S
O1018 Co1008 2.021 . S
O1018 C1015 1.238 . S
O1019 Co1013 2.052 . S
O1019 C1015 1.241 . S
O1020 Co1008 2.137 . S
O1020 C1011 1.247 . S
O1021 Co1008 2.244 . S
O1021 C1011 1.272 . S
O1021 Co1013 2.135 . S
Co1022 O1023 2.216 . S
Co1022 O1024 2.091 . S
Co1022 O1026 2.004 . S
Co1022 O1032 2.021 . S
Co1022 O1034 2.137 . S
Co1022 O1035 2.244 . S
O1023 Co1022 2.216 . S
O1023 C1030 1.247 . S
O1024 Co1022 2.091 . S
O1024 C1030 1.261 . S
C1025 O1034 1.247 . S
C1025 O1035 1.272 . S
O1026 Co1022 2.004 . S
O1026 C1031 1.259 . S
Co1027 O1028 2.061 . S
Co1027 O1033 2.052 . S
Co1027 O1035 2.135 . S
O1028 Co1027 2.061 . S
O1028 C1031 1.235 . S
C1029 O1032 1.238 . S
C1029 O1033 1.241 . S
C1030 O1023 1.247 . S
C1030 O1024 1.261 . S
C1031 O1026 1.259 . S
C1031 O1028 1.235 . S
O1032 Co1022 2.021 . S
O1032 C1029 1.238 . S
O1033 Co1027 2.052 . S
O1033 C1029 1.241 . S
O1034 Co1022 2.137 . S
O1034 C1025 1.247 . S
O1035 Co1022 2.244 . S
O1035 C1025 1.272 . S
O1035 Co1027 2.135 . S
Co1036 O1037 2.216 . S
Co1036 O1038 2.091 . S
Co1036 O1040 2.004 . S
Co1036 O1046 2.021 . S
Co1036 O1048 2.137 . S
Co1036 O1049 2.244 . S
O1037 Co1036 2.216 . S
O1037 C1044 1.247 . S
O1038 Co1036 2.091 . S
O1038 C1044 1.261 . S
C1039 O1048 1.247 . S
C1039 O1049 1.272 . S
O1040 Co1036 2.004 . S
O1040 C1045 1.259 . S
Co1041 O1042 2.061 . S
Co1041 O1047 2.052 . S
Co1041 O1049 2.135 . S
O1042 Co1041 2.061 . S
O1042 C1045 1.235 . S
C1043 O1046 1.238 . S
C1043 O1047 1.241 . S
C1044 O1037 1.247 . S
C1044 O1038 1.261 . S
C1045 O1040 1.259 . S
C1045 O1042 1.235 . S
O1046 Co1036 2.021 . S
O1046 C1043 1.238 . S
O1047 Co1041 2.052 . S
O1047 C1043 1.241 . S
O1048 Co1036 2.137 . S
O1048 C1039 1.247 . S
O1049 Co1036 2.244 . S
O1049 C1039 1.272 . S
O1049 Co1041 2.135 . S
Co1050 O1051 2.216 . S
Co1050 O1052 2.091 . S
Co1050 O1054 2.004 . S
Co1050 O1060 2.021 . S
Co1050 O1062 2.137 . S
Co1050 O1063 2.244 . S
O1051 Co1050 2.216 . S
O1051 C1058 1.247 . S
O1052 Co1050 2.091 . S
O1052 C1058 1.261 . S
C1053 O1062 1.247 . S
C1053 O1063 1.272 . S
O1054 Co1050 2.004 . S
O1054 C1059 1.259 . S
Co1055 O1056 2.061 . S
Co1055 O1061 2.052 . S
Co1055 O1063 2.135 . S
O1056 Co1055 2.061 . S
O1056 C1059 1.235 . S
C1057 O1060 1.238 . S
C1057 O1061 1.241 . S
C1058 O1051 1.247 . S
C1058 O1052 1.261 . S
C1059 O1054 1.259 . S
C1059 O1056 1.235 . S
O1060 Co1050 2.021 . S
O1060 C1057 1.238 . S
O1061 Co1055 2.052 . S
O1061 C1057 1.241 . S
O1062 Co1050 2.137 . S
O1062 C1053 1.247 . S
O1063 Co1050 2.244 . S
O1063 C1053 1.272 . S
O1063 Co1055 2.135 . S
Co1064 O1065 2.216 . S
Co1064 O1066 2.091 . S
Co1064 O1068 2.004 . S
Co1064 O1074 2.021 . S
Co1064 O1076 2.137 . S
Co1064 O1077 2.244 . S
O1065 Co1064 2.216 . S
O1065 C1072 1.247 . S
O1066 Co1064 2.091 . S
O1066 C1072 1.261 . S
C1067 O1076 1.247 . S
C1067 O1077 1.272 . S
O1068 Co1064 2.004 . S
O1068 C1073 1.259 . S
Co1069 O1070 2.061 . S
Co1069 O1075 2.052 . S
Co1069 O1077 2.135 . S
O1070 Co1069 2.061 . S
O1070 C1073 1.235 . S
C1071 O1074 1.238 . S
C1071 O1075 1.241 . S
C1072 O1065 1.247 . S
C1072 O1066 1.261 . S
C1073 O1068 1.259 . S
C1073 O1070 1.235 . S
O1074 Co1064 2.021 . S
O1074 C1071 1.238 . S
O1075 Co1069 2.052 . S
O1075 C1071 1.241 . S
O1076 Co1064 2.137 . S
O1076 C1067 1.247 . S
O1077 Co1064 2.244 . S
O1077 C1067 1.272 . S
O1077 Co1069 2.135 . S
Co1078 O1079 2.216 . S
Co1078 O1080 2.091 . S
Co1078 O1082 2.004 . S
Co1078 O1088 2.021 . S
Co1078 O1090 2.137 . S
Co1078 O1091 2.244 . S
O1079 Co1078 2.216 . S
O1079 C1086 1.247 . S
O1080 Co1078 2.091 . S
O1080 C1086 1.261 . S
C1081 O1090 1.247 . S
C1081 O1091 1.272 . S
O1082 Co1078 2.004 . S
O1082 C1087 1.259 . S
Co1083 O1084 2.061 . S
Co1083 O1089 2.052 . S
Co1083 O1091 2.135 . S
O1084 Co1083 2.061 . S
O1084 C1087 1.235 . S
C1085 O1088 1.238 . S
C1085 O1089 1.241 . S
C1086 O1079 1.247 . S
C1086 O1080 1.261 . S
C1087 O1082 1.259 . S
C1087 O1084 1.235 . S
O1088 Co1078 2.021 . S
O1088 C1085 1.238 . S
O1089 Co1083 2.052 . S
O1089 C1085 1.241 . S
O1090 Co1078 2.137 . S
O1090 C1081 1.247 . S
O1091 Co1078 2.244 . S
O1091 C1081 1.272 . S
O1091 Co1083 2.135 . S
Co1092 O1093 2.216 . S
Co1092 O1094 2.091 . S
Co1092 O1096 2.004 . S
Co1092 O1102 2.021 . S
Co1092 O1104 2.137 . S
Co1092 O1105 2.244 . S
O1093 Co1092 2.216 . S
O1093 C1100 1.247 . S
O1094 Co1092 2.091 . S
O1094 C1100 1.261 . S
C1095 O1104 1.247 . S
C1095 O1105 1.272 . S
O1096 Co1092 2.004 . S
O1096 C1101 1.259 . S
Co1097 O1098 2.061 . S
Co1097 O1103 2.052 . S
Co1097 O1105 2.135 . S
O1098 Co1097 2.061 . S
O1098 C1101 1.235 . S
C1099 O1102 1.238 . S
C1099 O1103 1.241 . S
C1100 O1093 1.247 . S
C1100 O1094 1.261 . S
C1101 O1096 1.259 . S
C1101 O1098 1.235 . S
O1102 Co1092 2.021 . S
O1102 C1099 1.238 . S
O1103 Co1097 2.052 . S
O1103 C1099 1.241 . S
O1104 Co1092 2.137 . S
O1104 C1095 1.247 . S
O1105 Co1092 2.244 . S
O1105 C1095 1.272 . S
O1105 Co1097 2.135 . S
Co1106 O1107 2.216 . S
Co1106 O1108 2.091 . S
Co1106 O1110 2.004 . S
Co1106 O1116 2.021 . S
Co1106 O1118 2.137 . S
Co1106 O1119 2.244 . S
O1107 Co1106 2.216 . S
O1107 C1114 1.247 . S
O1108 Co1106 2.091 . S
O1108 C1114 1.261 . S
C1109 O1118 1.247 . S
C1109 O1119 1.272 . S
O1110 Co1106 2.004 . S
O1110 C1115 1.259 . S
Co1111 O1112 2.061 . S
Co1111 O1117 2.052 . S
Co1111 O1119 2.135 . S
O1112 Co1111 2.061 . S
O1112 C1115 1.235 . S
C1113 O1116 1.238 . S
C1113 O1117 1.241 . S
C1114 O1107 1.247 . S
C1114 O1108 1.261 . S
C1115 O1110 1.259 . S
C1115 O1112 1.235 . S
O1116 Co1106 2.021 . S
O1116 C1113 1.238 . S
O1117 Co1111 2.052 . S
O1117 C1113 1.241 . S
O1118 Co1106 2.137 . S
O1118 C1109 1.247 . S
O1119 Co1106 2.244 . S
O1119 C1109 1.272 . S
O1119 Co1111 2.135 . S
Co1120 O1121 2.216 . S
Co1120 O1122 2.091 . S
Co1120 O1124 2.004 . S
Co1120 O1130 2.021 . S
Co1120 O1132 2.137 . S
Co1120 O1133 2.244 . S
O1121 Co1120 2.216 . S
O1121 C1128 1.247 . S
O1122 Co1120 2.091 . S
O1122 C1128 1.261 . S
C1123 O1132 1.247 . S
C1123 O1133 1.272 . S
O1124 Co1120 2.004 . S
O1124 C1129 1.259 . S
Co1125 O1126 2.061 . S
Co1125 O1131 2.052 . S
Co1125 O1133 2.135 . S
O1126 Co1125 2.061 . S
O1126 C1129 1.235 . S
C1127 O1130 1.238 . S
C1127 O1131 1.241 . S
C1128 O1121 1.247 . S
C1128 O1122 1.261 . S
C1129 O1124 1.259 . S
C1129 O1126 1.235 . S
O1130 Co1120 2.021 . S
O1130 C1127 1.238 . S
O1131 Co1125 2.052 . S
O1131 C1127 1.241 . S
O1132 Co1120 2.137 . S
O1132 C1123 1.247 . S
O1133 Co1120 2.244 . S
O1133 C1123 1.272 . S
O1133 Co1125 2.135 . S
Co1134 O1135 2.216 . S
Co1134 O1136 2.091 . S
Co1134 O1138 2.004 . S
Co1134 O1144 2.021 . S
Co1134 O1146 2.137 . S
Co1134 O1147 2.244 . S
O1135 Co1134 2.216 . S
O1135 C1142 1.247 . S
O1136 Co1134 2.091 . S
O1136 C1142 1.261 . S
C1137 O1146 1.247 . S
C1137 O1147 1.272 . S
O1138 Co1134 2.004 . S
O1138 C1143 1.259 . S
Co1139 O1140 2.061 . S
Co1139 O1145 2.052 . S
Co1139 O1147 2.135 . S
O1140 Co1139 2.061 . S
O1140 C1143 1.235 . S
C1141 O1144 1.238 . S
C1141 O1145 1.241 . S
C1142 O1135 1.247 . S
C1142 O1136 1.261 . S
C1143 O1138 1.259 . S
C1143 O1140 1.235 . S
O1144 Co1134 2.021 . S
O1144 C1141 1.238 . S
O1145 Co1139 2.052 . S
O1145 C1141 1.241 . S
O1146 Co1134 2.137 . S
O1146 C1137 1.247 . S
O1147 Co1134 2.244 . S
O1147 C1137 1.272 . S
O1147 Co1139 2.135 . S
Co1148 O1149 2.216 . S
Co1148 O1150 2.091 . S
Co1148 O1152 2.004 . S
Co1148 O1158 2.021 . S
Co1148 O1160 2.137 . S
Co1148 O1161 2.244 . S
O1149 Co1148 2.216 . S
O1149 C1156 1.247 . S
O1150 Co1148 2.091 . S
O1150 C1156 1.261 . S
C1151 O1160 1.247 . S
C1151 O1161 1.272 . S
O1152 Co1148 2.004 . S
O1152 C1157 1.259 . S
Co1153 O1154 2.061 . S
Co1153 O1159 2.052 . S
Co1153 O1161 2.135 . S
O1154 Co1153 2.061 . S
O1154 C1157 1.235 . S
C1155 O1158 1.238 . S
C1155 O1159 1.241 . S
C1156 O1149 1.247 . S
C1156 O1150 1.261 . S
C1157 O1152 1.259 . S
C1157 O1154 1.235 . S
O1158 Co1148 2.021 . S
O1158 C1155 1.238 . S
O1159 Co1153 2.052 . S
O1159 C1155 1.241 . S
O1160 Co1148 2.137 . S
O1160 C1151 1.247 . S
O1161 Co1148 2.244 . S
O1161 C1151 1.272 . S
O1161 Co1153 2.135 . S
Co1162 O1163 2.216 . S
Co1162 O1164 2.091 . S
Co1162 O1166 2.004 . S
Co1162 O1172 2.021 . S
Co1162 O1174 2.137 . S
Co1162 O1175 2.244 . S
O1163 Co1162 2.216 . S
O1163 C1170 1.247 . S
O1164 Co1162 2.091 . S
O1164 C1170 1.261 . S
C1165 O1174 1.247 . S
C1165 O1175 1.272 . S
O1166 Co1162 2.004 . S
O1166 C1171 1.259 . S
Co1167 O1168 2.061 . S
Co1167 O1173 2.052 . S
Co1167 O1175 2.135 . S
O1168 Co1167 2.061 . S
O1168 C1171 1.235 . S
C1169 O1172 1.238 . S
C1169 O1173 1.241 . S
C1170 O1163 1.247 . S
C1170 O1164 1.261 . S
C1171 O1166 1.259 . S
C1171 O1168 1.235 . S
O1172 Co1162 2.021 . S
O1172 C1169 1.238 . S
O1173 Co1167 2.052 . S
O1173 C1169 1.241 . S
O1174 Co1162 2.137 . S
O1174 C1165 1.247 . S
O1175 Co1162 2.244 . S
O1175 C1165 1.272 . S
O1175 Co1167 2.135 . S
Co1176 O1177 2.216 . S
Co1176 O1178 2.091 . S
Co1176 O1180 2.004 . S
Co1176 O1186 2.021 . S
Co1176 O1188 2.137 . S
Co1176 O1189 2.244 . S
O1177 Co1176 2.216 . S
O1177 C1184 1.247 . S
O1178 Co1176 2.091 . S
O1178 C1184 1.261 . S
C1179 O1188 1.247 . S
C1179 O1189 1.272 . S
O1180 Co1176 2.004 . S
O1180 C1185 1.259 . S
Co1181 O1182 2.061 . S
Co1181 O1187 2.052 . S
Co1181 O1189 2.135 . S
O1182 Co1181 2.061 . S
O1182 C1185 1.235 . S
C1183 O1186 1.238 . S
C1183 O1187 1.241 . S
C1184 O1177 1.247 . S
C1184 O1178 1.261 . S
C1185 O1180 1.259 . S
C1185 O1182 1.235 . S
O1186 Co1176 2.021 . S
O1186 C1183 1.238 . S
O1187 Co1181 2.052 . S
O1187 C1183 1.241 . S
O1188 Co1176 2.137 . S
O1188 C1179 1.247 . S
O1189 Co1176 2.244 . S
O1189 C1179 1.272 . S
O1189 Co1181 2.135 . S
Co1190 O1191 2.216 . S
Co1190 O1192 2.091 . S
Co1190 O1194 2.004 . S
Co1190 O1200 2.021 . S
Co1190 O1202 2.137 . S
Co1190 O1203 2.244 . S
O1191 Co1190 2.216 . S
O1191 C1198 1.247 . S
O1192 Co1190 2.091 . S
O1192 C1198 1.261 . S
C1193 O1202 1.247 . S
C1193 O1203 1.272 . S
O1194 Co1190 2.004 . S
O1194 C1199 1.259 . S
Co1195 O1196 2.061 . S
Co1195 O1201 2.052 . S
Co1195 O1203 2.135 . S
O1196 Co1195 2.061 . S
O1196 C1199 1.235 . S
C1197 O1200 1.238 . S
C1197 O1201 1.241 . S
C1198 O1191 1.247 . S
C1198 O1192 1.261 . S
C1199 O1194 1.259 . S
C1199 O1196 1.235 . S
O1200 Co1190 2.021 . S
O1200 C1197 1.238 . S
O1201 Co1195 2.052 . S
O1201 C1197 1.241 . S
O1202 Co1190 2.137 . S
O1202 C1193 1.247 . S
O1203 Co1190 2.244 . S
O1203 C1193 1.272 . S
O1203 Co1195 2.135 . S
Co1204 O1205 2.216 . S
Co1204 O1206 2.091 . S
Co1204 O1208 2.004 . S
Co1204 O1214 2.021 . S
Co1204 O1216 2.137 . S
Co1204 O1217 2.244 . S
O1205 Co1204 2.216 . S
O1205 C1212 1.247 . S
O1206 Co1204 2.091 . S
O1206 C1212 1.261 . S
C1207 O1216 1.247 . S
C1207 O1217 1.272 . S
O1208 Co1204 2.004 . S
O1208 C1213 1.259 . S
Co1209 O1210 2.061 . S
Co1209 O1215 2.052 . S
Co1209 O1217 2.135 . S
O1210 Co1209 2.061 . S
O1210 C1213 1.235 . S
C1211 O1214 1.238 . S
C1211 O1215 1.241 . S
C1212 O1205 1.247 . S
C1212 O1206 1.261 . S
C1213 O1208 1.259 . S
C1213 O1210 1.235 . S
O1214 Co1204 2.021 . S
O1214 C1211 1.238 . S
O1215 Co1209 2.052 . S
O1215 C1211 1.241 . S
O1216 Co1204 2.137 . S
O1216 C1207 1.247 . S
O1217 Co1204 2.244 . S
O1217 C1207 1.272 . S
O1217 Co1209 2.135 . S
Co1218 O1219 2.216 . S
Co1218 O1220 2.091 . S
Co1218 O1222 2.004 . S
Co1218 O1228 2.021 . S
Co1218 O1230 2.137 . S
Co1218 O1231 2.244 . S
O1219 Co1218 2.216 . S
O1219 C1226 1.247 . S
O1220 Co1218 2.091 . S
O1220 C1226 1.261 . S
C1221 O1230 1.247 . S
C1221 O1231 1.272 . S
O1222 Co1218 2.004 . S
O1222 C1227 1.259 . S
Co1223 O1224 2.061 . S
Co1223 O1229 2.052 . S
Co1223 O1231 2.135 . S
O1224 Co1223 2.061 . S
O1224 C1227 1.235 . S
C1225 O1228 1.238 . S
C1225 O1229 1.241 . S
C1226 O1219 1.247 . S
C1226 O1220 1.261 . S
C1227 O1222 1.259 . S
C1227 O1224 1.235 . S
O1228 Co1218 2.021 . S
O1228 C1225 1.238 . S
O1229 Co1223 2.052 . S
O1229 C1225 1.241 . S
O1230 Co1218 2.137 . S
O1230 C1221 1.247 . S
O1231 Co1218 2.244 . S
O1231 C1221 1.272 . S
O1231 Co1223 2.135 . S
Co1232 O1233 2.216 . S
Co1232 O1234 2.091 . S
Co1232 O1236 2.004 . S
Co1232 O1242 2.021 . S
Co1232 O1244 2.137 . S
Co1232 O1245 2.244 . S
O1233 Co1232 2.216 . S
O1233 C1240 1.247 . S
O1234 Co1232 2.091 . S
O1234 C1240 1.261 . S
C1235 O1244 1.247 . S
C1235 O1245 1.272 . S
O1236 Co1232 2.004 . S
O1236 C1241 1.259 . S
Co1237 O1238 2.061 . S
Co1237 O1243 2.052 . S
Co1237 O1245 2.135 . S
O1238 Co1237 2.061 . S
O1238 C1241 1.235 . S
C1239 O1242 1.238 . S
C1239 O1243 1.241 . S
C1240 O1233 1.247 . S
C1240 O1234 1.261 . S
C1241 O1236 1.259 . S
C1241 O1238 1.235 . S
O1242 Co1232 2.021 . S
O1242 C1239 1.238 . S
O1243 Co1237 2.052 . S
O1243 C1239 1.241 . S
O1244 Co1232 2.137 . S
O1244 C1235 1.247 . S
O1245 Co1232 2.244 . S
O1245 C1235 1.272 . S
O1245 Co1237 2.135 . S
Co1246 O1247 2.216 . S
Co1246 O1248 2.091 . S
Co1246 O1250 2.004 . S
Co1246 O1256 2.021 . S
Co1246 O1258 2.137 . S
Co1246 O1259 2.244 . S
O1247 Co1246 2.216 . S
O1247 C1254 1.247 . S
O1248 Co1246 2.091 . S
O1248 C1254 1.261 . S
C1249 O1258 1.247 . S
C1249 O1259 1.272 . S
O1250 Co1246 2.004 . S
O1250 C1255 1.259 . S
Co1251 O1252 2.061 . S
Co1251 O1257 2.052 . S
Co1251 O1259 2.135 . S
O1252 Co1251 2.061 . S
O1252 C1255 1.235 . S
C1253 O1256 1.238 . S
C1253 O1257 1.241 . S
C1254 O1247 1.247 . S
C1254 O1248 1.261 . S
C1255 O1250 1.259 . S
C1255 O1252 1.235 . S
O1256 Co1246 2.021 . S
O1256 C1253 1.238 . S
O1257 Co1251 2.052 . S
O1257 C1253 1.241 . S
O1258 Co1246 2.137 . S
O1258 C1249 1.247 . S
O1259 Co1246 2.244 . S
O1259 C1249 1.272 . S
O1259 Co1251 2.135 . S
Co1260 O1261 2.216 . S
Co1260 O1262 2.091 . S
Co1260 O1264 2.004 . S
Co1260 O1270 2.021 . S
Co1260 O1272 2.137 . S
Co1260 O1273 2.244 . S
O1261 Co1260 2.216 . S
O1261 C1268 1.247 . S
O1262 Co1260 2.091 . S
O1262 C1268 1.261 . S
C1263 O1272 1.247 . S
C1263 O1273 1.272 . S
O1264 Co1260 2.004 . S
O1264 C1269 1.259 . S
Co1265 O1266 2.061 . S
Co1265 O1271 2.052 . S
Co1265 O1273 2.135 . S
O1266 Co1265 2.061 . S
O1266 C1269 1.235 . S
C1267 O1270 1.238 . S
C1267 O1271 1.241 . S
C1268 O1261 1.247 . S
C1268 O1262 1.261 . S
C1269 O1264 1.259 . S
C1269 O1266 1.235 . S
O1270 Co1260 2.021 . S
O1270 C1267 1.238 . S
O1271 Co1265 2.052 . S
O1271 C1267 1.241 . S
O1272 Co1260 2.137 . S
O1272 C1263 1.247 . S
O1273 Co1260 2.244 . S
O1273 C1263 1.272 . S
O1273 Co1265 2.135 . S
Co1274 O1275 2.216 . S
Co1274 O1276 2.091 . S
Co1274 O1278 2.004 . S
Co1274 O1284 2.021 . S
Co1274 O1286 2.137 . S
Co1274 O1287 2.244 . S
O1275 Co1274 2.216 . S
O1275 C1282 1.247 . S
O1276 Co1274 2.091 . S
O1276 C1282 1.261 . S
C1277 O1286 1.247 . S
C1277 O1287 1.272 . S
O1278 Co1274 2.004 . S
O1278 C1283 1.259 . S
Co1279 O1280 2.061 . S
Co1279 O1285 2.052 . S
Co1279 O1287 2.135 . S
O1280 Co1279 2.061 . S
O1280 C1283 1.235 . S
C1281 O1284 1.238 . S
C1281 O1285 1.241 . S
C1282 O1275 1.247 . S
C1282 O1276 1.261 . S
C1283 O1278 1.259 . S
C1283 O1280 1.235 . S
O1284 Co1274 2.021 . S
O1284 C1281 1.238 . S
O1285 Co1279 2.052 . S
O1285 C1281 1.241 . S
O1286 Co1274 2.137 . S
O1286 C1277 1.247 . S
O1287 Co1274 2.244 . S
O1287 C1277 1.272 . S
O1287 Co1279 2.135 . S
Co1288 O1289 2.216 . S
Co1288 O1290 2.091 . S
Co1288 O1292 2.004 . S
Co1288 O1298 2.021 . S
Co1288 O1300 2.137 . S
Co1288 O1301 2.244 . S
O1289 Co1288 2.216 . S
O1289 C1296 1.247 . S
O1290 Co1288 2.091 . S
O1290 C1296 1.261 . S
C1291 O1300 1.247 . S
C1291 O1301 1.272 . S
O1292 Co1288 2.004 . S
O1292 C1297 1.259 . S
Co1293 O1294 2.061 . S
Co1293 O1299 2.052 . S
Co1293 O1301 2.135 . S
O1294 Co1293 2.061 . S
O1294 C1297 1.235 . S
C1295 O1298 1.238 . S
C1295 O1299 1.241 . S
C1296 O1289 1.247 . S
C1296 O1290 1.261 . S
C1297 O1292 1.259 . S
C1297 O1294 1.235 . S
O1298 Co1288 2.021 . S
O1298 C1295 1.238 . S
O1299 Co1293 2.052 . S
O1299 C1295 1.241 . S
O1300 Co1288 2.137 . S
O1300 C1291 1.247 . S
O1301 Co1288 2.244 . S
O1301 C1291 1.272 . S
O1301 Co1293 2.135 . S
Co1302 O1303 2.216 . S
Co1302 O1304 2.091 . S
Co1302 O1306 2.004 . S
Co1302 O1312 2.021 . S
Co1302 O1314 2.137 . S
Co1302 O1315 2.244 . S
O1303 Co1302 2.216 . S
O1303 C1310 1.247 . S
O1304 Co1302 2.091 . S
O1304 C1310 1.261 . S
C1305 O1314 1.247 . S
C1305 O1315 1.272 . S
O1306 Co1302 2.004 . S
O1306 C1311 1.259 . S
Co1307 O1308 2.061 . S
Co1307 O1313 2.052 . S
Co1307 O1315 2.135 . S
O1308 Co1307 2.061 . S
O1308 C1311 1.235 . S
C1309 O1312 1.238 . S
C1309 O1313 1.241 . S
C1310 O1303 1.247 . S
C1310 O1304 1.261 . S
C1311 O1306 1.259 . S
C1311 O1308 1.235 . S
O1312 Co1302 2.021 . S
O1312 C1309 1.238 . S
O1313 Co1307 2.052 . S
O1313 C1309 1.241 . S
O1314 Co1302 2.137 . S
O1314 C1305 1.247 . S
O1315 Co1302 2.244 . S
O1315 C1305 1.272 . S
O1315 Co1307 2.135 . S
Co1316 O1317 2.216 . S
Co1316 O1318 2.091 . S
Co1316 O1320 2.004 . S
Co1316 O1326 2.021 . S
Co1316 O1328 2.137 . S
Co1316 O1329 2.244 . S
O1317 Co1316 2.216 . S
O1317 C1324 1.247 . S
O1318 Co1316 2.091 . S
O1318 C1324 1.261 . S
C1319 O1328 1.247 . S
C1319 O1329 1.272 . S
O1320 Co1316 2.004 . S
O1320 C1325 1.259 . S
Co1321 O1322 2.061 . S
Co1321 O1327 2.052 . S
Co1321 O1329 2.135 . S
O1322 Co1321 2.061 . S
O1322 C1325 1.235 . S
C1323 O1326 1.238 . S
C1323 O1327 1.241 . S
C1324 O1317 1.247 . S
C1324 O1318 1.261 . S
C1325 O1320 1.259 . S
C1325 O1322 1.235 . S
O1326 Co1316 2.021 . S
O1326 C1323 1.238 . S
O1327 Co1321 2.052 . S
O1327 C1323 1.241 . S
O1328 Co1316 2.137 . S
O1328 C1319 1.247 . S
O1329 Co1316 2.244 . S
O1329 C1319 1.272 . S
O1329 Co1321 2.135 . S
Co1330 O1331 2.216 . S
Co1330 O1332 2.091 . S
Co1330 O1334 2.004 . S
Co1330 O1340 2.021 . S
Co1330 O1342 2.137 . S
Co1330 O1343 2.244 . S
O1331 Co1330 2.216 . S
O1331 C1338 1.247 . S
O1332 Co1330 2.091 . S
O1332 C1338 1.261 . S
C1333 O1342 1.247 . S
C1333 O1343 1.272 . S
O1334 Co1330 2.004 . S
O1334 C1339 1.259 . S
Co1335 O1336 2.061 . S
Co1335 O1341 2.052 . S
Co1335 O1343 2.135 . S
O1336 Co1335 2.061 . S
O1336 C1339 1.235 . S
C1337 O1340 1.238 . S
C1337 O1341 1.241 . S
C1338 O1331 1.247 . S
C1338 O1332 1.261 . S
C1339 O1334 1.259 . S
C1339 O1336 1.235 . S
O1340 Co1330 2.021 . S
O1340 C1337 1.238 . S
O1341 Co1335 2.052 . S
O1341 C1337 1.241 . S
O1342 Co1330 2.137 . S
O1342 C1333 1.247 . S
O1343 Co1330 2.244 . S
O1343 C1333 1.272 . S
O1343 Co1335 2.135 . S
H1344 C1352 0.929 . S
H1345 C1354 0.930 . S
H1346 C1356 0.930 . S
H1347 C1359 0.929 . S
H1348 C1362 0.930 . S
H1349 C1364 0.960 . S
H1350 C1364 0.960 . S
H1351 C1364 0.960 . S
C1352 H1344 0.929 . S
C1352 C1353 1.377 . S
C1352 C1354 1.384 . S
C1353 C1352 1.377 . S
C1353 C1359 1.390 . S
C1354 H1345 0.930 . S
C1354 C1352 1.384 . S
C1354 C1355 1.372 . S
C1355 C1354 1.372 . S
C1355 C1356 1.400 . S
C1355 C1360 1.490 . S
C1356 H1346 0.930 . S
C1356 C1355 1.400 . S
C1356 C1359 1.386 . S
H1357 C1373 0.930 . S
H1358 C1374 0.931 . S
C1359 H1347 0.929 . S
C1359 C1353 1.390 . S
C1359 C1356 1.386 . S
C1360 C1355 1.490 . S
C1360 C1362 1.395 . S
C1360 C1363 1.403 . S
H1361 C1367 0.930 . S
C1362 H1348 0.930 . S
C1362 C1360 1.395 . S
C1362 C1365 1.403 . S
C1363 C1360 1.403 . S
C1363 C1364 1.524 . S
C1363 C1367 1.400 . S
C1364 H1349 0.960 . S
C1364 H1350 0.960 . S
C1364 H1351 0.960 . S
C1364 C1363 1.524 . S
C1365 C1362 1.403 . S
C1365 C1366 1.392 . S
C1365 C1369 1.495 . S
C1366 C1365 1.392 . S
C1366 C1367 1.385 . S
C1366 C1368 1.478 . S
C1367 H1361 0.930 . S
C1367 C1363 1.400 . S
C1367 C1366 1.385 . S
C1368 C1366 1.478 . S
C1368 C1370 1.381 . S
C1368 C1374 1.383 . S
C1369 C1365 1.495 . S
C1369 H1375 0.959 . S
C1369 H1376 0.961 . S
C1369 H1377 0.960 . S
C1370 C1368 1.381 . S
C1370 C1371 1.394 . S
C1370 H1378 0.930 . S
C1371 C1370 1.394 . S
C1371 C1372 1.383 . S
C1371 H1379 0.929 . S
C1372 C1371 1.383 . S
C1372 C1373 1.377 . S
C1373 H1357 0.930 . S
C1373 C1372 1.377 . S
C1373 C1374 1.379 . S
C1374 H1358 0.931 . S
C1374 C1368 1.383 . S
C1374 C1373 1.379 . S
H1375 C1369 0.959 . S
H1376 C1369 0.961 . S
H1377 C1369 0.960 . S
H1378 C1370 0.930 . S
H1379 C1371 0.929 . S
H1380 C1388 0.929 . S
H1381 C1390 0.930 . S
H1382 C1392 0.930 . S
H1383 C1395 0.929 . S
H1384 C1398 0.930 . S
H1385 C1400 0.960 . S
H1386 C1400 0.960 . S
H1387 C1400 0.960 . S
C1388 H1380 0.929 . S
C1388 C1389 1.377 . S
C1388 C1390 1.384 . S
C1389 C1388 1.377 . S
C1389 C1395 1.390 . S
C1390 H1381 0.930 . S
C1390 C1388 1.384 . S
C1390 C1391 1.372 . S
C1391 C1390 1.372 . S
C1391 C1392 1.400 . S
C1391 C1396 1.490 . S
C1392 H1382 0.930 . S
C1392 C1391 1.400 . S
C1392 C1395 1.386 . S
H1393 C1409 0.930 . S
H1394 C1410 0.931 . S
C1395 H1383 0.929 . S
C1395 C1389 1.390 . S
C1395 C1392 1.386 . S
C1396 C1391 1.490 . S
C1396 C1398 1.395 . S
C1396 C1399 1.403 . S
H1397 C1403 0.930 . S
C1398 H1384 0.930 . S
C1398 C1396 1.395 . S
C1398 C1401 1.403 . S
C1399 C1396 1.403 . S
C1399 C1400 1.524 . S
C1399 C1403 1.400 . S
C1400 H1385 0.960 . S
C1400 H1386 0.960 . S
C1400 H1387 0.960 . S
C1400 C1399 1.524 . S
C1401 C1398 1.403 . S
C1401 C1402 1.392 . S
C1401 C1405 1.495 . S
C1402 C1401 1.392 . S
C1402 C1403 1.385 . S
C1402 C1404 1.478 . S
C1403 H1397 0.930 . S
C1403 C1399 1.400 . S
C1403 C1402 1.385 . S
C1404 C1402 1.478 . S
C1404 C1406 1.381 . S
C1404 C1410 1.383 . S
C1405 C1401 1.495 . S
C1405 H1411 0.959 . S
C1405 H1412 0.961 . S
C1405 H1413 0.960 . S
C1406 C1404 1.381 . S
C1406 C1407 1.394 . S
C1406 H1414 0.930 . S
C1407 C1406 1.394 . S
C1407 C1408 1.383 . S
C1407 H1415 0.929 . S
C1408 C1407 1.383 . S
C1408 C1409 1.377 . S
C1409 H1393 0.930 . S
C1409 C1408 1.377 . S
C1409 C1410 1.379 . S
C1410 H1394 0.931 . S
C1410 C1404 1.383 . S
C1410 C1409 1.379 . S
H1411 C1405 0.959 . S
H1412 C1405 0.961 . S
H1413 C1405 0.960 . S
H1414 C1406 0.930 . S
H1415 C1407 0.929 . S
H1416 C1424 0.929 . S
H1417 C1426 0.930 . S
H1418 C1428 0.930 . S
H1419 C1431 0.929 . S
H1420 C1434 0.930 . S
H1421 C1436 0.960 . S
H1422 C1436 0.960 . S
H1423 C1436 0.960 . S
C1424 H1416 0.929 . S
C1424 C1425 1.377 . S
C1424 C1426 1.384 . S
C1425 C1424 1.377 . S
C1425 C1431 1.390 . S
C1426 H1417 0.930 . S
C1426 C1424 1.384 . S
C1426 C1427 1.372 . S
C1427 C1426 1.372 . S
C1427 C1428 1.400 . S
C1427 C1432 1.490 . S
C1428 H1418 0.930 . S
C1428 C1427 1.400 . S
C1428 C1431 1.386 . S
H1429 C1445 0.930 . S
H1430 C1446 0.931 . S
C1431 H1419 0.929 . S
C1431 C1425 1.390 . S
C1431 C1428 1.386 . S
C1432 C1427 1.490 . S
C1432 C1434 1.395 . S
C1432 C1435 1.403 . S
H1433 C1439 0.930 . S
C1434 H1420 0.930 . S
C1434 C1432 1.395 . S
C1434 C1437 1.403 . S
C1435 C1432 1.403 . S
C1435 C1436 1.524 . S
C1435 C1439 1.400 . S
C1436 H1421 0.960 . S
C1436 H1422 0.960 . S
C1436 H1423 0.960 . S
C1436 C1435 1.524 . S
C1437 C1434 1.403 . S
C1437 C1438 1.392 . S
C1437 C1441 1.495 . S
C1438 C1437 1.392 . S
C1438 C1439 1.385 . S
C1438 C1440 1.478 . S
C1439 H1433 0.930 . S
C1439 C1435 1.400 . S
C1439 C1438 1.385 . S
C1440 C1438 1.478 . S
C1440 C1442 1.381 . S
C1440 C1446 1.383 . S
C1441 C1437 1.495 . S
C1441 H1447 0.959 . S
C1441 H1448 0.961 . S
C1441 H1449 0.960 . S
C1442 C1440 1.381 . S
C1442 C1443 1.394 . S
C1442 H1450 0.930 . S
C1443 C1442 1.394 . S
C1443 C1444 1.383 . S
C1443 H1451 0.929 . S
C1444 C1443 1.383 . S
C1444 C1445 1.377 . S
C1445 H1429 0.930 . S
C1445 C1444 1.377 . S
C1445 C1446 1.379 . S
C1446 H1430 0.931 . S
C1446 C1440 1.383 . S
C1446 C1445 1.379 . S
H1447 C1441 0.959 . S
H1448 C1441 0.961 . S
H1449 C1441 0.960 . S
H1450 C1442 0.930 . S
H1451 C1443 0.929 . S
H1452 C1460 0.929 . S
H1453 C1462 0.930 . S
H1454 C1464 0.930 . S
H1455 C1467 0.929 . S
H1456 C1470 0.930 . S
H1457 C1472 0.960 . S
H1458 C1472 0.960 . S
H1459 C1472 0.960 . S
C1460 H1452 0.929 . S
C1460 C1461 1.377 . S
C1460 C1462 1.384 . S
C1461 C1460 1.377 . S
C1461 C1467 1.390 . S
C1462 H1453 0.930 . S
C1462 C1460 1.384 . S
C1462 C1463 1.372 . S
C1463 C1462 1.372 . S
C1463 C1464 1.400 . S
C1463 C1468 1.490 . S
C1464 H1454 0.930 . S
C1464 C1463 1.400 . S
C1464 C1467 1.386 . S
H1465 C1481 0.930 . S
H1466 C1482 0.931 . S
C1467 H1455 0.929 . S
C1467 C1461 1.390 . S
C1467 C1464 1.386 . S
C1468 C1463 1.490 . S
C1468 C1470 1.395 . S
C1468 C1471 1.403 . S
H1469 C1475 0.930 . S
C1470 H1456 0.930 . S
C1470 C1468 1.395 . S
C1470 C1473 1.403 . S
C1471 C1468 1.403 . S
C1471 C1472 1.524 . S
C1471 C1475 1.400 . S
C1472 H1457 0.960 . S
C1472 H1458 0.960 . S
C1472 H1459 0.960 . S
C1472 C1471 1.524 . S
C1473 C1470 1.403 . S
C1473 C1474 1.392 . S
C1473 C1477 1.495 . S
C1474 C1473 1.392 . S
C1474 C1475 1.385 . S
C1474 C1476 1.478 . S
C1475 H1469 0.930 . S
C1475 C1471 1.400 . S
C1475 C1474 1.385 . S
C1476 C1474 1.478 . S
C1476 C1478 1.381 . S
C1476 C1482 1.383 . S
C1477 C1473 1.495 . S
C1477 H1483 0.959 . S
C1477 H1484 0.961 . S
C1477 H1485 0.960 . S
C1478 C1476 1.381 . S
C1478 C1479 1.394 . S
C1478 H1486 0.930 . S
C1479 C1478 1.394 . S
C1479 C1480 1.383 . S
C1479 H1487 0.929 . S
C1480 C1479 1.383 . S
C1480 C1481 1.377 . S
C1481 H1465 0.930 . S
C1481 C1480 1.377 . S
C1481 C1482 1.379 . S
C1482 H1466 0.931 . S
C1482 C1476 1.383 . S
C1482 C1481 1.379 . S
H1483 C1477 0.959 . S
H1484 C1477 0.961 . S
H1485 C1477 0.960 . S
H1486 C1478 0.930 . S
H1487 C1479 0.929 . S
H1488 C1496 0.929 . S
H1489 C1498 0.930 . S
H1490 C1500 0.930 . S
H1491 C1503 0.929 . S
H1492 C1506 0.930 . S
H1493 C1508 0.960 . S
H1494 C1508 0.960 . S
H1495 C1508 0.960 . S
C1496 H1488 0.929 . S
C1496 C1497 1.377 . S
C1496 C1498 1.384 . S
C1497 C1496 1.377 . S
C1497 C1503 1.390 . S
C1498 H1489 0.930 . S
C1498 C1496 1.384 . S
C1498 C1499 1.372 . S
C1499 C1498 1.372 . S
C1499 C1500 1.400 . S
C1499 C1504 1.490 . S
C1500 H1490 0.930 . S
C1500 C1499 1.400 . S
C1500 C1503 1.386 . S
H1501 C1517 0.930 . S
H1502 C1518 0.931 . S
C1503 H1491 0.929 . S
C1503 C1497 1.390 . S
C1503 C1500 1.386 . S
C1504 C1499 1.490 . S
C1504 C1506 1.395 . S
C1504 C1507 1.403 . S
H1505 C1511 0.930 . S
C1506 H1492 0.930 . S
C1506 C1504 1.395 . S
C1506 C1509 1.403 . S
C1507 C1504 1.403 . S
C1507 C1508 1.524 . S
C1507 C1511 1.400 . S
C1508 H1493 0.960 . S
C1508 H1494 0.960 . S
C1508 H1495 0.960 . S
C1508 C1507 1.524 . S
C1509 C1506 1.403 . S
C1509 C1510 1.392 . S
C1509 C1513 1.495 . S
C1510 C1509 1.392 . S
C1510 C1511 1.385 . S
C1510 C1512 1.478 . S
C1511 H1505 0.930 . S
C1511 C1507 1.400 . S
C1511 C1510 1.385 . S
C1512 C1510 1.478 . S
C1512 C1514 1.381 . S
C1512 C1518 1.383 . S
C1513 C1509 1.495 . S
C1513 H1519 0.959 . S
C1513 H1520 0.961 . S
C1513 H1521 0.960 . S
C1514 C1512 1.381 . S
C1514 C1515 1.394 . S
C1514 H1522 0.930 . S
C1515 C1514 1.394 . S
C1515 C1516 1.383 . S
C1515 H1523 0.929 . S
C1516 C1515 1.383 . S
C1516 C1517 1.377 . S
C1517 H1501 0.930 . S
C1517 C1516 1.377 . S
C1517 C1518 1.379 . S
C1518 H1502 0.931 . S
C1518 C1512 1.383 . S
C1518 C1517 1.379 . S
H1519 C1513 0.959 . S
H1520 C1513 0.961 . S
H1521 C1513 0.960 . S
H1522 C1514 0.930 . S
H1523 C1515 0.929 . S
H1524 C1532 0.929 . S
H1525 C1534 0.930 . S
H1526 C1536 0.930 . S
H1527 C1539 0.929 . S
H1528 C1542 0.930 . S
H1529 C1544 0.960 . S
H1530 C1544 0.960 . S
H1531 C1544 0.960 . S
C1532 H1524 0.929 . S
C1532 C1533 1.377 . S
C1532 C1534 1.384 . S
C1533 C1532 1.377 . S
C1533 C1539 1.390 . S
C1534 H1525 0.930 . S
C1534 C1532 1.384 . S
C1534 C1535 1.372 . S
C1535 C1534 1.372 . S
C1535 C1536 1.400 . S
C1535 C1540 1.490 . S
C1536 H1526 0.930 . S
C1536 C1535 1.400 . S
C1536 C1539 1.386 . S
H1537 C1553 0.930 . S
H1538 C1554 0.931 . S
C1539 H1527 0.929 . S
C1539 C1533 1.390 . S
C1539 C1536 1.386 . S
C1540 C1535 1.490 . S
C1540 C1542 1.395 . S
C1540 C1543 1.403 . S
H1541 C1547 0.930 . S
C1542 H1528 0.930 . S
C1542 C1540 1.395 . S
C1542 C1545 1.403 . S
C1543 C1540 1.403 . S
C1543 C1544 1.524 . S
C1543 C1547 1.400 . S
C1544 H1529 0.960 . S
C1544 H1530 0.960 . S
C1544 H1531 0.960 . S
C1544 C1543 1.524 . S
C1545 C1542 1.403 . S
C1545 C1546 1.392 . S
C1545 C1549 1.495 . S
C1546 C1545 1.392 . S
C1546 C1547 1.385 . S
C1546 C1548 1.478 . S
C1547 H1541 0.930 . S
C1547 C1543 1.400 . S
C1547 C1546 1.385 . S
C1548 C1546 1.478 . S
C1548 C1550 1.381 . S
C1548 C1554 1.383 . S
C1549 C1545 1.495 . S
C1549 H1555 0.959 . S
C1549 H1556 0.961 . S
C1549 H1557 0.960 . S
C1550 C1548 1.381 . S
C1550 C1551 1.394 . S
C1550 H1558 0.930 . S
C1551 C1550 1.394 . S
C1551 C1552 1.383 . S
C1551 H1559 0.929 . S
C1552 C1551 1.383 . S
C1552 C1553 1.377 . S
C1553 H1537 0.930 . S
C1553 C1552 1.377 . S
C1553 C1554 1.379 . S
C1554 H1538 0.931 . S
C1554 C1548 1.383 . S
C1554 C1553 1.379 . S
H1555 C1549 0.959 . S
H1556 C1549 0.961 . S
H1557 C1549 0.960 . S
H1558 C1550 0.930 . S
H1559 C1551 0.929 . S
H1560 C1568 0.929 . S
H1561 C1570 0.930 . S
H1562 C1572 0.930 . S
H1563 C1575 0.929 . S
H1564 C1578 0.930 . S
H1565 C1580 0.960 . S
H1566 C1580 0.960 . S
H1567 C1580 0.960 . S
C1568 H1560 0.929 . S
C1568 C1569 1.377 . S
C1568 C1570 1.384 . S
C1569 C1568 1.377 . S
C1569 C1575 1.390 . S
C1570 H1561 0.930 . S
C1570 C1568 1.384 . S
C1570 C1571 1.372 . S
C1571 C1570 1.372 . S
C1571 C1572 1.400 . S
C1571 C1576 1.490 . S
C1572 H1562 0.930 . S
C1572 C1571 1.400 . S
C1572 C1575 1.386 . S
H1573 C1589 0.930 . S
H1574 C1590 0.931 . S
C1575 H1563 0.929 . S
C1575 C1569 1.390 . S
C1575 C1572 1.386 . S
C1576 C1571 1.490 . S
C1576 C1578 1.395 . S
C1576 C1579 1.403 . S
H1577 C1583 0.930 . S
C1578 H1564 0.930 . S
C1578 C1576 1.395 . S
C1578 C1581 1.403 . S
C1579 C1576 1.403 . S
C1579 C1580 1.524 . S
C1579 C1583 1.400 . S
C1580 H1565 0.960 . S
C1580 H1566 0.960 . S
C1580 H1567 0.960 . S
C1580 C1579 1.524 . S
C1581 C1578 1.403 . S
C1581 C1582 1.392 . S
C1581 C1585 1.495 . S
C1582 C1581 1.392 . S
C1582 C1583 1.385 . S
C1582 C1584 1.478 . S
C1583 H1577 0.930 . S
C1583 C1579 1.400 . S
C1583 C1582 1.385 . S
C1584 C1582 1.478 . S
C1584 C1586 1.381 . S
C1584 C1590 1.383 . S
C1585 C1581 1.495 . S
C1585 H1591 0.959 . S
C1585 H1592 0.961 . S
C1585 H1593 0.960 . S
C1586 C1584 1.381 . S
C1586 C1587 1.394 . S
C1586 H1594 0.930 . S
C1587 C1586 1.394 . S
C1587 C1588 1.383 . S
C1587 H1595 0.929 . S
C1588 C1587 1.383 . S
C1588 C1589 1.377 . S
C1589 H1573 0.930 . S
C1589 C1588 1.377 . S
C1589 C1590 1.379 . S
C1590 H1574 0.931 . S
C1590 C1584 1.383 . S
C1590 C1589 1.379 . S
H1591 C1585 0.959 . S
H1592 C1585 0.961 . S
H1593 C1585 0.960 . S
H1594 C1586 0.930 . S
H1595 C1587 0.929 . S
H1596 C1604 0.929 . S
H1597 C1606 0.930 . S
H1598 C1608 0.930 . S
H1599 C1611 0.929 . S
H1600 C1614 0.930 . S
H1601 C1616 0.960 . S
H1602 C1616 0.960 . S
H1603 C1616 0.960 . S
C1604 H1596 0.929 . S
C1604 C1605 1.377 . S
C1604 C1606 1.384 . S
C1605 C1604 1.377 . S
C1605 C1611 1.390 . S
C1606 H1597 0.930 . S
C1606 C1604 1.384 . S
C1606 C1607 1.372 . S
C1607 C1606 1.372 . S
C1607 C1608 1.400 . S
C1607 C1612 1.490 . S
C1608 H1598 0.930 . S
C1608 C1607 1.400 . S
C1608 C1611 1.386 . S
H1609 C1625 0.930 . S
H1610 C1626 0.931 . S
C1611 H1599 0.929 . S
C1611 C1605 1.390 . S
C1611 C1608 1.386 . S
C1612 C1607 1.490 . S
C1612 C1614 1.395 . S
C1612 C1615 1.403 . S
H1613 C1619 0.930 . S
C1614 H1600 0.930 . S
C1614 C1612 1.395 . S
C1614 C1617 1.403 . S
C1615 C1612 1.403 . S
C1615 C1616 1.524 . S
C1615 C1619 1.400 . S
C1616 H1601 0.960 . S
C1616 H1602 0.960 . S
C1616 H1603 0.960 . S
C1616 C1615 1.524 . S
C1617 C1614 1.403 . S
C1617 C1618 1.392 . S
C1617 C1621 1.495 . S
C1618 C1617 1.392 . S
C1618 C1619 1.385 . S
C1618 C1620 1.478 . S
C1619 H1613 0.930 . S
C1619 C1615 1.400 . S
C1619 C1618 1.385 . S
C1620 C1618 1.478 . S
C1620 C1622 1.381 . S
C1620 C1626 1.383 . S
C1621 C1617 1.495 . S
C1621 H1627 0.959 . S
C1621 H1628 0.961 . S
C1621 H1629 0.960 . S
C1622 C1620 1.381 . S
C1622 C1623 1.394 . S
C1622 H1630 0.930 . S
C1623 C1622 1.394 . S
C1623 C1624 1.383 . S
C1623 H1631 0.929 . S
C1624 C1623 1.383 . S
C1624 C1625 1.377 . S
C1625 H1609 0.930 . S
C1625 C1624 1.377 . S
C1625 C1626 1.379 . S
C1626 H1610 0.931 . S
C1626 C1620 1.383 . S
C1626 C1625 1.379 . S
H1627 C1621 0.959 . S
H1628 C1621 0.961 . S
H1629 C1621 0.960 . S
H1630 C1622 0.930 . S
H1631 C1623 0.929 . S
H1632 C1640 0.929 . S
H1633 C1642 0.930 . S
H1634 C1644 0.930 . S
H1635 C1647 0.929 . S
H1636 C1650 0.930 . S
H1637 C1652 0.960 . S
H1638 C1652 0.960 . S
H1639 C1652 0.960 . S
C1640 H1632 0.929 . S
C1640 C1641 1.377 . S
C1640 C1642 1.384 . S
C1641 C1640 1.377 . S
C1641 C1647 1.390 . S
C1642 H1633 0.930 . S
C1642 C1640 1.384 . S
C1642 C1643 1.372 . S
C1643 C1642 1.372 . S
C1643 C1644 1.400 . S
C1643 C1648 1.490 . S
C1644 H1634 0.930 . S
C1644 C1643 1.400 . S
C1644 C1647 1.386 . S
H1645 C1661 0.930 . S
H1646 C1662 0.931 . S
C1647 H1635 0.929 . S
C1647 C1641 1.390 . S
C1647 C1644 1.386 . S
C1648 C1643 1.490 . S
C1648 C1650 1.395 . S
C1648 C1651 1.403 . S
H1649 C1655 0.930 . S
C1650 H1636 0.930 . S
C1650 C1648 1.395 . S
C1650 C1653 1.403 . S
C1651 C1648 1.403 . S
C1651 C1652 1.524 . S
C1651 C1655 1.400 . S
C1652 H1637 0.960 . S
C1652 H1638 0.960 . S
C1652 H1639 0.960 . S
C1652 C1651 1.524 . S
C1653 C1650 1.403 . S
C1653 C1654 1.392 . S
C1653 C1657 1.495 . S
C1654 C1653 1.392 . S
C1654 C1655 1.385 . S
C1654 C1656 1.478 . S
C1655 H1649 0.930 . S
C1655 C1651 1.400 . S
C1655 C1654 1.385 . S
C1656 C1654 1.478 . S
C1656 C1658 1.381 . S
C1656 C1662 1.383 . S
C1657 C1653 1.495 . S
C1657 H1663 0.959 . S
C1657 H1664 0.961 . S
C1657 H1665 0.960 . S
C1658 C1656 1.381 . S
C1658 C1659 1.394 . S
C1658 H1666 0.930 . S
C1659 C1658 1.394 . S
C1659 C1660 1.383 . S
C1659 H1667 0.929 . S
C1660 C1659 1.383 . S
C1660 C1661 1.377 . S
C1661 H1645 0.930 . S
C1661 C1660 1.377 . S
C1661 C1662 1.379 . S
C1662 H1646 0.931 . S
C1662 C1656 1.383 . S
C1662 C1661 1.379 . S
H1663 C1657 0.959 . S
H1664 C1657 0.961 . S
H1665 C1657 0.960 . S
H1666 C1658 0.930 . S
H1667 C1659 0.929 . S
H1668 C1676 0.929 . S
H1669 C1678 0.930 . S
H1670 C1680 0.930 . S
H1671 C1683 0.929 . S
H1672 C1686 0.930 . S
H1673 C1688 0.960 . S
H1674 C1688 0.960 . S
H1675 C1688 0.960 . S
C1676 H1668 0.929 . S
C1676 C1677 1.377 . S
C1676 C1678 1.384 . S
C1677 C1676 1.377 . S
C1677 C1683 1.390 . S
C1678 H1669 0.930 . S
C1678 C1676 1.384 . S
C1678 C1679 1.372 . S
C1679 C1678 1.372 . S
C1679 C1680 1.400 . S
C1679 C1684 1.490 . S
C1680 H1670 0.930 . S
C1680 C1679 1.400 . S
C1680 C1683 1.386 . S
H1681 C1697 0.930 . S
H1682 C1698 0.931 . S
C1683 H1671 0.929 . S
C1683 C1677 1.390 . S
C1683 C1680 1.386 . S
C1684 C1679 1.490 . S
C1684 C1686 1.395 . S
C1684 C1687 1.403 . S
H1685 C1691 0.930 . S
C1686 H1672 0.930 . S
C1686 C1684 1.395 . S
C1686 C1689 1.403 . S
C1687 C1684 1.403 . S
C1687 C1688 1.524 . S
C1687 C1691 1.400 . S
C1688 H1673 0.960 . S
C1688 H1674 0.960 . S
C1688 H1675 0.960 . S
C1688 C1687 1.524 . S
C1689 C1686 1.403 . S
C1689 C1690 1.392 . S
C1689 C1693 1.495 . S
C1690 C1689 1.392 . S
C1690 C1691 1.385 . S
C1690 C1692 1.478 . S
C1691 H1685 0.930 . S
C1691 C1687 1.400 . S
C1691 C1690 1.385 . S
C1692 C1690 1.478 . S
C1692 C1694 1.381 . S
C1692 C1698 1.383 . S
C1693 C1689 1.495 . S
C1693 H1699 0.959 . S
C1693 H1700 0.961 . S
C1693 H1701 0.960 . S
C1694 C1692 1.381 . S
C1694 C1695 1.394 . S
C1694 H1702 0.930 . S
C1695 C1694 1.394 . S
C1695 C1696 1.383 . S
C1695 H1703 0.929 . S
C1696 C1695 1.383 . S
C1696 C1697 1.377 . S
C1697 H1681 0.930 . S
C1697 C1696 1.377 . S
C1697 C1698 1.379 . S
C1698 H1682 0.931 . S
C1698 C1692 1.383 . S
C1698 C1697 1.379 . S
H1699 C1693 0.959 . S
H1700 C1693 0.961 . S
H1701 C1693 0.960 . S
H1702 C1694 0.930 . S
H1703 C1695 0.929 . S
H1704 C1712 0.929 . S
H1705 C1714 0.930 . S
H1706 C1716 0.930 . S
H1707 C1719 0.929 . S
H1708 C1722 0.930 . S
H1709 C1724 0.960 . S
H1710 C1724 0.960 . S
H1711 C1724 0.960 . S
C1712 H1704 0.929 . S
C1712 C1713 1.377 . S
C1712 C1714 1.384 . S
C1713 C1712 1.377 . S
C1713 C1719 1.390 . S
C1714 H1705 0.930 . S
C1714 C1712 1.384 . S
C1714 C1715 1.372 . S
C1715 C1714 1.372 . S
C1715 C1716 1.400 . S
C1715 C1720 1.490 . S
C1716 H1706 0.930 . S
C1716 C1715 1.400 . S
C1716 C1719 1.386 . S
H1717 C1733 0.930 . S
H1718 C1734 0.931 . S
C1719 H1707 0.929 . S
C1719 C1713 1.390 . S
C1719 C1716 1.386 . S
C1720 C1715 1.490 . S
C1720 C1722 1.395 . S
C1720 C1723 1.403 . S
H1721 C1727 0.930 . S
C1722 H1708 0.930 . S
C1722 C1720 1.395 . S
C1722 C1725 1.403 . S
C1723 C1720 1.403 . S
C1723 C1724 1.524 . S
C1723 C1727 1.400 . S
C1724 H1709 0.960 . S
C1724 H1710 0.960 . S
C1724 H1711 0.960 . S
C1724 C1723 1.524 . S
C1725 C1722 1.403 . S
C1725 C1726 1.392 . S
C1725 C1729 1.495 . S
C1726 C1725 1.392 . S
C1726 C1727 1.385 . S
C1726 C1728 1.478 . S
C1727 H1721 0.930 . S
C1727 C1723 1.400 . S
C1727 C1726 1.385 . S
C1728 C1726 1.478 . S
C1728 C1730 1.381 . S
C1728 C1734 1.383 . S
C1729 C1725 1.495 . S
C1729 H1735 0.959 . S
C1729 H1736 0.961 . S
C1729 H1737 0.960 . S
C1730 C1728 1.381 . S
C1730 C1731 1.394 . S
C1730 H1738 0.930 . S
C1731 C1730 1.394 . S
C1731 C1732 1.383 . S
C1731 H1739 0.929 . S
C1732 C1731 1.383 . S
C1732 C1733 1.377 . S
C1733 H1717 0.930 . S
C1733 C1732 1.377 . S
C1733 C1734 1.379 . S
C1734 H1718 0.931 . S
C1734 C1728 1.383 . S
C1734 C1733 1.379 . S
H1735 C1729 0.959 . S
H1736 C1729 0.961 . S
H1737 C1729 0.960 . S
H1738 C1730 0.930 . S
H1739 C1731 0.929 . S
H1740 C1748 0.929 . S
H1741 C1750 0.930 . S
H1742 C1752 0.930 . S
H1743 C1755 0.929 . S
H1744 C1758 0.930 . S
H1745 C1760 0.960 . S
H1746 C1760 0.960 . S
H1747 C1760 0.960 . S
C1748 H1740 0.929 . S
C1748 C1749 1.377 . S
C1748 C1750 1.384 . S
C1749 C1748 1.377 . S
C1749 C1755 1.390 . S
C1750 H1741 0.930 . S
C1750 C1748 1.384 . S
C1750 C1751 1.372 . S
C1751 C1750 1.372 . S
C1751 C1752 1.400 . S
C1751 C1756 1.490 . S
C1752 H1742 0.930 . S
C1752 C1751 1.400 . S
C1752 C1755 1.386 . S
H1753 C1769 0.930 . S
H1754 C1770 0.931 . S
C1755 H1743 0.929 . S
C1755 C1749 1.390 . S
C1755 C1752 1.386 . S
C1756 C1751 1.490 . S
C1756 C1758 1.395 . S
C1756 C1759 1.403 . S
H1757 C1763 0.930 . S
C1758 H1744 0.930 . S
C1758 C1756 1.395 . S
C1758 C1761 1.403 . S
C1759 C1756 1.403 . S
C1759 C1760 1.524 . S
C1759 C1763 1.400 . S
C1760 H1745 0.960 . S
C1760 H1746 0.960 . S
C1760 H1747 0.960 . S
C1760 C1759 1.524 . S
C1761 C1758 1.403 . S
C1761 C1762 1.392 . S
C1761 C1765 1.495 . S
C1762 C1761 1.392 . S
C1762 C1763 1.385 . S
C1762 C1764 1.478 . S
C1763 H1757 0.930 . S
C1763 C1759 1.400 . S
C1763 C1762 1.385 . S
C1764 C1762 1.478 . S
C1764 C1766 1.381 . S
C1764 C1770 1.383 . S
C1765 C1761 1.495 . S
C1765 H1771 0.959 . S
C1765 H1772 0.961 . S
C1765 H1773 0.960 . S
C1766 C1764 1.381 . S
C1766 C1767 1.394 . S
C1766 H1774 0.930 . S
C1767 C1766 1.394 . S
C1767 C1768 1.383 . S
C1767 H1775 0.929 . S
C1768 C1767 1.383 . S
C1768 C1769 1.377 . S
C1769 H1753 0.930 . S
C1769 C1768 1.377 . S
C1769 C1770 1.379 . S
C1770 H1754 0.931 . S
C1770 C1764 1.383 . S
C1770 C1769 1.379 . S
H1771 C1765 0.959 . S
H1772 C1765 0.961 . S
H1773 C1765 0.960 . S
H1774 C1766 0.930 . S
H1775 C1767 0.929 . S
H1776 C1784 0.929 . S
H1777 C1786 0.930 . S
H1778 C1788 0.930 . S
H1779 C1791 0.929 . S
H1780 C1794 0.930 . S
H1781 C1796 0.960 . S
H1782 C1796 0.960 . S
H1783 C1796 0.960 . S
C1784 H1776 0.929 . S
C1784 C1785 1.377 . S
C1784 C1786 1.384 . S
C1785 C1784 1.377 . S
C1785 C1791 1.390 . S
C1786 H1777 0.930 . S
C1786 C1784 1.384 . S
C1786 C1787 1.372 . S
C1787 C1786 1.372 . S
C1787 C1788 1.400 . S
C1787 C1792 1.490 . S
C1788 H1778 0.930 . S
C1788 C1787 1.400 . S
C1788 C1791 1.386 . S
H1789 C1805 0.930 . S
H1790 C1806 0.931 . S
C1791 H1779 0.929 . S
C1791 C1785 1.390 . S
C1791 C1788 1.386 . S
C1792 C1787 1.490 . S
C1792 C1794 1.395 . S
C1792 C1795 1.403 . S
H1793 C1799 0.930 . S
C1794 H1780 0.930 . S
C1794 C1792 1.395 . S
C1794 C1797 1.403 . S
C1795 C1792 1.403 . S
C1795 C1796 1.524 . S
C1795 C1799 1.400 . S
C1796 H1781 0.960 . S
C1796 H1782 0.960 . S
C1796 H1783 0.960 . S
C1796 C1795 1.524 . S
C1797 C1794 1.403 . S
C1797 C1798 1.392 . S
C1797 C1801 1.495 . S
C1798 C1797 1.392 . S
C1798 C1799 1.385 . S
C1798 C1800 1.478 . S
C1799 H1793 0.930 . S
C1799 C1795 1.400 . S
C1799 C1798 1.385 . S
C1800 C1798 1.478 . S
C1800 C1802 1.381 . S
C1800 C1806 1.383 . S
C1801 C1797 1.495 . S
C1801 H1807 0.959 . S
C1801 H1808 0.961 . S
C1801 H1809 0.960 . S
C1802 C1800 1.381 . S
C1802 C1803 1.394 . S
C1802 H1810 0.930 . S
C1803 C1802 1.394 . S
C1803 C1804 1.383 . S
C1803 H1811 0.929 . S
C1804 C1803 1.383 . S
C1804 C1805 1.377 . S
C1805 H1789 0.930 . S
C1805 C1804 1.377 . S
C1805 C1806 1.379 . S
C1806 H1790 0.931 . S
C1806 C1800 1.383 . S
C1806 C1805 1.379 . S
H1807 C1801 0.959 . S
H1808 C1801 0.961 . S
H1809 C1801 0.960 . S
H1810 C1802 0.930 . S
H1811 C1803 0.929 . S
H1812 C1820 0.929 . S
H1813 C1822 0.930 . S
H1814 C1824 0.930 . S
H1815 C1827 0.929 . S
H1816 C1830 0.930 . S
H1817 C1832 0.960 . S
H1818 C1832 0.960 . S
H1819 C1832 0.960 . S
C1820 H1812 0.929 . S
C1820 C1821 1.377 . S
C1820 C1822 1.384 . S
C1821 C1820 1.377 . S
C1821 C1827 1.390 . S
C1822 H1813 0.930 . S
C1822 C1820 1.384 . S
C1822 C1823 1.372 . S
C1823 C1822 1.372 . S
C1823 C1824 1.400 . S
C1823 C1828 1.490 . S
C1824 H1814 0.930 . S
C1824 C1823 1.400 . S
C1824 C1827 1.386 . S
H1825 C1841 0.930 . S
H1826 C1842 0.931 . S
C1827 H1815 0.929 . S
C1827 C1821 1.390 . S
C1827 C1824 1.386 . S
C1828 C1823 1.490 . S
C1828 C1830 1.395 . S
C1828 C1831 1.403 . S
H1829 C1835 0.930 . S
C1830 H1816 0.930 . S
C1830 C1828 1.395 . S
C1830 C1833 1.403 . S
C1831 C1828 1.403 . S
C1831 C1832 1.524 . S
C1831 C1835 1.400 . S
C1832 H1817 0.960 . S
C1832 H1818 0.960 . S
C1832 H1819 0.960 . S
C1832 C1831 1.524 . S
C1833 C1830 1.403 . S
C1833 C1834 1.392 . S
C1833 C1837 1.495 . S
C1834 C1833 1.392 . S
C1834 C1835 1.385 . S
C1834 C1836 1.478 . S
C1835 H1829 0.930 . S
C1835 C1831 1.400 . S
C1835 C1834 1.385 . S
C1836 C1834 1.478 . S
C1836 C1838 1.381 . S
C1836 C1842 1.383 . S
C1837 C1833 1.495 . S
C1837 H1843 0.959 . S
C1837 H1844 0.961 . S
C1837 H1845 0.960 . S
C1838 C1836 1.381 . S
C1838 C1839 1.394 . S
C1838 H1846 0.930 . S
C1839 C1838 1.394 . S
C1839 C1840 1.383 . S
C1839 H1847 0.929 . S
C1840 C1839 1.383 . S
C1840 C1841 1.377 . S
C1841 H1825 0.930 . S
C1841 C1840 1.377 . S
C1841 C1842 1.379 . S
C1842 H1826 0.931 . S
C1842 C1836 1.383 . S
C1842 C1841 1.379 . S
H1843 C1837 0.959 . S
H1844 C1837 0.961 . S
H1845 C1837 0.960 . S
H1846 C1838 0.930 . S
H1847 C1839 0.929 . S
H1848 C1856 0.929 . S
H1849 C1858 0.930 . S
H1850 C1860 0.930 . S
H1851 C1863 0.929 . S
H1852 C1866 0.930 . S
H1853 C1868 0.960 . S
H1854 C1868 0.960 . S
H1855 C1868 0.960 . S
C1856 H1848 0.929 . S
C1856 C1857 1.377 . S
C1856 C1858 1.384 . S
C1857 C1856 1.377 . S
C1857 C1863 1.390 . S
C1858 H1849 0.930 . S
C1858 C1856 1.384 . S
C1858 C1859 1.372 . S
C1859 C1858 1.372 . S
C1859 C1860 1.400 . S
C1859 C1864 1.490 . S
C1860 H1850 0.930 . S
C1860 C1859 1.400 . S
C1860 C1863 1.386 . S
H1861 C1877 0.930 . S
H1862 C1878 0.931 . S
C1863 H1851 0.929 . S
C1863 C1857 1.390 . S
C1863 C1860 1.386 . S
C1864 C1859 1.490 . S
C1864 C1866 1.395 . S
C1864 C1867 1.403 . S
H1865 C1871 0.930 . S
C1866 H1852 0.930 . S
C1866 C1864 1.395 . S
C1866 C1869 1.403 . S
C1867 C1864 1.403 . S
C1867 C1868 1.524 . S
C1867 C1871 1.400 . S
C1868 H1853 0.960 . S
C1868 H1854 0.960 . S
C1868 H1855 0.960 . S
C1868 C1867 1.524 . S
C1869 C1866 1.403 . S
C1869 C1870 1.392 . S
C1869 C1873 1.495 . S
C1870 C1869 1.392 . S
C1870 C1871 1.385 . S
C1870 C1872 1.478 . S
C1871 H1865 0.930 . S
C1871 C1867 1.400 . S
C1871 C1870 1.385 . S
C1872 C1870 1.478 . S
C1872 C1874 1.381 . S
C1872 C1878 1.383 . S
C1873 C1869 1.495 . S
C1873 H1879 0.959 . S
C1873 H1880 0.961 . S
C1873 H1881 0.960 . S
C1874 C1872 1.381 . S
C1874 C1875 1.394 . S
C1874 H1882 0.930 . S
C1875 C1874 1.394 . S
C1875 C1876 1.383 . S
C1875 H1883 0.929 . S
C1876 C1875 1.383 . S
C1876 C1877 1.377 . S
C1877 H1861 0.930 . S
C1877 C1876 1.377 . S
C1877 C1878 1.379 . S
C1878 H1862 0.931 . S
C1878 C1872 1.383 . S
C1878 C1877 1.379 . S
H1879 C1873 0.959 . S
H1880 C1873 0.961 . S
H1881 C1873 0.960 . S
H1882 C1874 0.930 . S
H1883 C1875 0.929 . S
H1884 C1892 0.929 . S
H1885 C1894 0.930 . S
H1886 C1896 0.930 . S
H1887 C1899 0.929 . S
H1888 C1902 0.930 . S
H1889 C1904 0.960 . S
H1890 C1904 0.960 . S
H1891 C1904 0.960 . S
C1892 H1884 0.929 . S
C1892 C1893 1.377 . S
C1892 C1894 1.384 . S
C1893 C1892 1.377 . S
C1893 C1899 1.390 . S
C1894 H1885 0.930 . S
C1894 C1892 1.384 . S
C1894 C1895 1.372 . S
C1895 C1894 1.372 . S
C1895 C1896 1.400 . S
C1895 C1900 1.490 . S
C1896 H1886 0.930 . S
C1896 C1895 1.400 . S
C1896 C1899 1.386 . S
H1897 C1913 0.930 . S
H1898 C1914 0.931 . S
C1899 H1887 0.929 . S
C1899 C1893 1.390 . S
C1899 C1896 1.386 . S
C1900 C1895 1.490 . S
C1900 C1902 1.395 . S
C1900 C1903 1.403 . S
H1901 C1907 0.930 . S
C1902 H1888 0.930 . S
C1902 C1900 1.395 . S
C1902 C1905 1.403 . S
C1903 C1900 1.403 . S
C1903 C1904 1.524 . S
C1903 C1907 1.400 . S
C1904 H1889 0.960 . S
C1904 H1890 0.960 . S
C1904 H1891 0.960 . S
C1904 C1903 1.524 . S
C1905 C1902 1.403 . S
C1905 C1906 1.392 . S
C1905 C1909 1.495 . S
C1906 C1905 1.392 . S
C1906 C1907 1.385 . S
C1906 C1908 1.478 . S
C1907 H1901 0.930 . S
C1907 C1903 1.400 . S
C1907 C1906 1.385 . S
C1908 C1906 1.478 . S
C1908 C1910 1.381 . S
C1908 C1914 1.383 . S
C1909 C1905 1.495 . S
C1909 H1915 0.959 . S
C1909 H1916 0.961 . S
C1909 H1917 0.960 . S
C1910 C1908 1.381 . S
C1910 C1911 1.394 . S
C1910 H1918 0.930 . S
C1911 C1910 1.394 . S
C1911 C1912 1.383 . S
C1911 H1919 0.929 . S
C1912 C1911 1.383 . S
C1912 C1913 1.377 . S
C1913 H1897 0.930 . S
C1913 C1912 1.377 . S
C1913 C1914 1.379 . S
C1914 H1898 0.931 . S
C1914 C1908 1.383 . S
C1914 C1913 1.379 . S
H1915 C1909 0.959 . S
H1916 C1909 0.961 . S
H1917 C1909 0.960 . S
H1918 C1910 0.930 . S
H1919 C1911 0.929 . S
H1920 C1928 0.929 . S
H1921 C1930 0.930 . S
H1922 C1932 0.930 . S
H1923 C1935 0.929 . S
H1924 C1938 0.930 . S
H1925 C1940 0.960 . S
H1926 C1940 0.960 . S
H1927 C1940 0.960 . S
C1928 H1920 0.929 . S
C1928 C1929 1.377 . S
C1928 C1930 1.384 . S
C1929 C1928 1.377 . S
C1929 C1935 1.390 . S
C1930 H1921 0.930 . S
C1930 C1928 1.384 . S
C1930 C1931 1.372 . S
C1931 C1930 1.372 . S
C1931 C1932 1.400 . S
C1931 C1936 1.490 . S
C1932 H1922 0.930 . S
C1932 C1931 1.400 . S
C1932 C1935 1.386 . S
H1933 C1949 0.930 . S
H1934 C1950 0.931 . S
C1935 H1923 0.929 . S
C1935 C1929 1.390 . S
C1935 C1932 1.386 . S
C1936 C1931 1.490 . S
C1936 C1938 1.395 . S
C1936 C1939 1.403 . S
H1937 C1943 0.930 . S
C1938 H1924 0.930 . S
C1938 C1936 1.395 . S
C1938 C1941 1.403 . S
C1939 C1936 1.403 . S
C1939 C1940 1.524 . S
C1939 C1943 1.400 . S
C1940 H1925 0.960 . S
C1940 H1926 0.960 . S
C1940 H1927 0.960 . S
C1940 C1939 1.524 . S
C1941 C1938 1.403 . S
C1941 C1942 1.392 . S
C1941 C1945 1.495 . S
C1942 C1941 1.392 . S
C1942 C1943 1.385 . S
C1942 C1944 1.478 . S
C1943 H1937 0.930 . S
C1943 C1939 1.400 . S
C1943 C1942 1.385 . S
C1944 C1942 1.478 . S
C1944 C1946 1.381 . S
C1944 C1950 1.383 . S
C1945 C1941 1.495 . S
C1945 H1951 0.959 . S
C1945 H1952 0.961 . S
C1945 H1953 0.960 . S
C1946 C1944 1.381 . S
C1946 C1947 1.394 . S
C1946 H1954 0.930 . S
C1947 C1946 1.394 . S
C1947 C1948 1.383 . S
C1947 H1955 0.929 . S
C1948 C1947 1.383 . S
C1948 C1949 1.377 . S
C1949 H1933 0.930 . S
C1949 C1948 1.377 . S
C1949 C1950 1.379 . S
C1950 H1934 0.931 . S
C1950 C1944 1.383 . S
C1950 C1949 1.379 . S
H1951 C1945 0.959 . S
H1952 C1945 0.961 . S
H1953 C1945 0.960 . S
H1954 C1946 0.930 . S
H1955 C1947 0.929 . S
H1956 C1964 0.929 . S
H1957 C1966 0.930 . S
H1958 C1968 0.930 . S
H1959 C1971 0.929 . S
H1960 C1974 0.930 . S
H1961 C1976 0.960 . S
H1962 C1976 0.960 . S
H1963 C1976 0.960 . S
C1964 H1956 0.929 . S
C1964 C1965 1.377 . S
C1964 C1966 1.384 . S
C1965 C1964 1.377 . S
C1965 C1971 1.390 . S
C1966 H1957 0.930 . S
C1966 C1964 1.384 . S
C1966 C1967 1.372 . S
C1967 C1966 1.372 . S
C1967 C1968 1.400 . S
C1967 C1972 1.490 . S
C1968 H1958 0.930 . S
C1968 C1967 1.400 . S
C1968 C1971 1.386 . S
H1969 C1985 0.930 . S
H1970 C1986 0.931 . S
C1971 H1959 0.929 . S
C1971 C1965 1.390 . S
C1971 C1968 1.386 . S
C1972 C1967 1.490 . S
C1972 C1974 1.395 . S
C1972 C1975 1.403 . S
H1973 C1979 0.930 . S
C1974 H1960 0.930 . S
C1974 C1972 1.395 . S
C1974 C1977 1.403 . S
C1975 C1972 1.403 . S
C1975 C1976 1.524 . S
C1975 C1979 1.400 . S
C1976 H1961 0.960 . S
C1976 H1962 0.960 . S
C1976 H1963 0.960 . S
C1976 C1975 1.524 . S
C1977 C1974 1.403 . S
C1977 C1978 1.392 . S
C1977 C1981 1.495 . S
C1978 C1977 1.392 . S
C1978 C1979 1.385 . S
C1978 C1980 1.478 . S
C1979 H1973 0.930 . S
C1979 C1975 1.400 . S
C1979 C1978 1.385 . S
C1980 C1978 1.478 . S
C1980 C1982 1.381 . S
C1980 C1986 1.383 . S
C1981 C1977 1.495 . S
C1981 H1987 0.959 . S
C1981 H1988 0.961 . S
C1981 H1989 0.960 . S
C1982 C1980 1.381 . S
C1982 C1983 1.394 . S
C1982 H1990 0.930 . S
C1983 C1982 1.394 . S
C1983 C1984 1.383 . S
C1983 H1991 0.929 . S
C1984 C1983 1.383 . S
C1984 C1985 1.377 . S
C1985 H1969 0.930 . S
C1985 C1984 1.377 . S
C1985 C1986 1.379 . S
C1986 H1970 0.931 . S
C1986 C1980 1.383 . S
C1986 C1985 1.379 . S
H1987 C1981 0.959 . S
H1988 C1981 0.961 . S
H1989 C1981 0.960 . S
H1990 C1982 0.930 . S
H1991 C1983 0.929 . S
H1992 C2000 0.929 . S
H1993 C2002 0.930 . S
H1994 C2004 0.930 . S
H1995 C2007 0.929 . S
H1996 C2010 0.930 . S
H1997 C2012 0.960 . S
H1998 C2012 0.960 . S
H1999 C2012 0.960 . S
C2000 H1992 0.929 . S
C2000 C2001 1.377 . S
C2000 C2002 1.384 . S
C2001 C2000 1.377 . S
C2001 C2007 1.390 . S
C2002 H1993 0.930 . S
C2002 C2000 1.384 . S
C2002 C2003 1.372 . S
C2003 C2002 1.372 . S
C2003 C2004 1.400 . S
C2003 C2008 1.490 . S
C2004 H1994 0.930 . S
C2004 C2003 1.400 . S
C2004 C2007 1.386 . S
H2005 C2021 0.930 . S
H2006 C2022 0.931 . S
C2007 H1995 0.929 . S
C2007 C2001 1.390 . S
C2007 C2004 1.386 . S
C2008 C2003 1.490 . S
C2008 C2010 1.395 . S
C2008 C2011 1.403 . S
H2009 C2015 0.930 . S
C2010 H1996 0.930 . S
C2010 C2008 1.395 . S
C2010 C2013 1.403 . S
C2011 C2008 1.403 . S
C2011 C2012 1.524 . S
C2011 C2015 1.400 . S
C2012 H1997 0.960 . S
C2012 H1998 0.960 . S
C2012 H1999 0.960 . S
C2012 C2011 1.524 . S
C2013 C2010 1.403 . S
C2013 C2014 1.392 . S
C2013 C2017 1.495 . S
C2014 C2013 1.392 . S
C2014 C2015 1.385 . S
C2014 C2016 1.478 . S
C2015 H2009 0.930 . S
C2015 C2011 1.400 . S
C2015 C2014 1.385 . S
C2016 C2014 1.478 . S
C2016 C2018 1.381 . S
C2016 C2022 1.383 . S
C2017 C2013 1.495 . S
C2017 H2023 0.959 . S
C2017 H2024 0.961 . S
C2017 H2025 0.960 . S
C2018 C2016 1.381 . S
C2018 C2019 1.394 . S
C2018 H2026 0.930 . S
C2019 C2018 1.394 . S
C2019 C2020 1.383 . S
C2019 H2027 0.929 . S
C2020 C2019 1.383 . S
C2020 C2021 1.377 . S
C2021 H2005 0.930 . S
C2021 C2020 1.377 . S
C2021 C2022 1.379 . S
C2022 H2006 0.931 . S
C2022 C2016 1.383 . S
C2022 C2021 1.379 . S
H2023 C2017 0.959 . S
H2024 C2017 0.961 . S
H2025 C2017 0.960 . S
H2026 C2018 0.930 . S
H2027 C2019 0.929 . S
H2028 C2036 0.929 . S
H2029 C2038 0.930 . S
H2030 C2040 0.930 . S
H2031 C2043 0.929 . S
H2032 C2046 0.930 . S
H2033 C2048 0.960 . S
H2034 C2048 0.960 . S
H2035 C2048 0.960 . S
C2036 H2028 0.929 . S
C2036 C2037 1.377 . S
C2036 C2038 1.384 . S
C2037 C2036 1.377 . S
C2037 C2043 1.390 . S
C2038 H2029 0.930 . S
C2038 C2036 1.384 . S
C2038 C2039 1.372 . S
C2039 C2038 1.372 . S
C2039 C2040 1.400 . S
C2039 C2044 1.490 . S
C2040 H2030 0.930 . S
C2040 C2039 1.400 . S
C2040 C2043 1.386 . S
H2041 C2057 0.930 . S
H2042 C2058 0.931 . S
C2043 H2031 0.929 . S
C2043 C2037 1.390 . S
C2043 C2040 1.386 . S
C2044 C2039 1.490 . S
C2044 C2046 1.395 . S
C2044 C2047 1.403 . S
H2045 C2051 0.930 . S
C2046 H2032 0.930 . S
C2046 C2044 1.395 . S
C2046 C2049 1.403 . S
C2047 C2044 1.403 . S
C2047 C2048 1.524 . S
C2047 C2051 1.400 . S
C2048 H2033 0.960 . S
C2048 H2034 0.960 . S
C2048 H2035 0.960 . S
C2048 C2047 1.524 . S
C2049 C2046 1.403 . S
C2049 C2050 1.392 . S
C2049 C2053 1.495 . S
C2050 C2049 1.392 . S
C2050 C2051 1.385 . S
C2050 C2052 1.478 . S
C2051 H2045 0.930 . S
C2051 C2047 1.400 . S
C2051 C2050 1.385 . S
C2052 C2050 1.478 . S
C2052 C2054 1.381 . S
C2052 C2058 1.383 . S
C2053 C2049 1.495 . S
C2053 H2059 0.959 . S
C2053 H2060 0.961 . S
C2053 H2061 0.960 . S
C2054 C2052 1.381 . S
C2054 C2055 1.394 . S
C2054 H2062 0.930 . S
C2055 C2054 1.394 . S
C2055 C2056 1.383 . S
C2055 H2063 0.929 . S
C2056 C2055 1.383 . S
C2056 C2057 1.377 . S
C2057 H2041 0.930 . S
C2057 C2056 1.377 . S
C2057 C2058 1.379 . S
C2058 H2042 0.931 . S
C2058 C2052 1.383 . S
C2058 C2057 1.379 . S
H2059 C2053 0.959 . S
H2060 C2053 0.961 . S
H2061 C2053 0.960 . S
H2062 C2054 0.930 . S
H2063 C2055 0.929 . S
H2064 C2072 0.929 . S
H2065 C2074 0.930 . S
H2066 C2076 0.930 . S
H2067 C2079 0.929 . S
H2068 C2082 0.930 . S
H2069 C2084 0.960 . S
H2070 C2084 0.960 . S
H2071 C2084 0.960 . S
C2072 H2064 0.929 . S
C2072 C2073 1.377 . S
C2072 C2074 1.384 . S
C2073 C2072 1.377 . S
C2073 C2079 1.390 . S
C2074 H2065 0.930 . S
C2074 C2072 1.384 . S
C2074 C2075 1.372 . S
C2075 C2074 1.372 . S
C2075 C2076 1.400 . S
C2075 C2080 1.490 . S
C2076 H2066 0.930 . S
C2076 C2075 1.400 . S
C2076 C2079 1.386 . S
H2077 C2093 0.930 . S
H2078 C2094 0.931 . S
C2079 H2067 0.929 . S
C2079 C2073 1.390 . S
C2079 C2076 1.386 . S
C2080 C2075 1.490 . S
C2080 C2082 1.395 . S
C2080 C2083 1.403 . S
H2081 C2087 0.930 . S
C2082 H2068 0.930 . S
C2082 C2080 1.395 . S
C2082 C2085 1.403 . S
C2083 C2080 1.403 . S
C2083 C2084 1.524 . S
C2083 C2087 1.400 . S
C2084 H2069 0.960 . S
C2084 H2070 0.960 . S
C2084 H2071 0.960 . S
C2084 C2083 1.524 . S
C2085 C2082 1.403 . S
C2085 C2086 1.392 . S
C2085 C2089 1.495 . S
C2086 C2085 1.392 . S
C2086 C2087 1.385 . S
C2086 C2088 1.478 . S
C2087 H2081 0.930 . S
C2087 C2083 1.400 . S
C2087 C2086 1.385 . S
C2088 C2086 1.478 . S
C2088 C2090 1.381 . S
C2088 C2094 1.383 . S
C2089 C2085 1.495 . S
C2089 H2095 0.959 . S
C2089 H2096 0.961 . S
C2089 H2097 0.960 . S
C2090 C2088 1.381 . S
C2090 C2091 1.394 . S
C2090 H2098 0.930 . S
C2091 C2090 1.394 . S
C2091 C2092 1.383 . S
C2091 H2099 0.929 . S
C2092 C2091 1.383 . S
C2092 C2093 1.377 . S
C2093 H2077 0.930 . S
C2093 C2092 1.377 . S
C2093 C2094 1.379 . S
C2094 H2078 0.931 . S
C2094 C2088 1.383 . S
C2094 C2093 1.379 . S
H2095 C2089 0.959 . S
H2096 C2089 0.961 . S
H2097 C2089 0.960 . S
H2098 C2090 0.930 . S
H2099 C2091 0.929 . S
H2100 C2108 0.929 . S
H2101 C2110 0.930 . S
H2102 C2112 0.930 . S
H2103 C2115 0.929 . S
H2104 C2118 0.930 . S
H2105 C2120 0.960 . S
H2106 C2120 0.960 . S
H2107 C2120 0.960 . S
C2108 H2100 0.929 . S
C2108 C2109 1.377 . S
C2108 C2110 1.384 . S
C2109 C2108 1.377 . S
C2109 C2115 1.390 . S
C2110 H2101 0.930 . S
C2110 C2108 1.384 . S
C2110 C2111 1.372 . S
C2111 C2110 1.372 . S
C2111 C2112 1.400 . S
C2111 C2116 1.490 . S
C2112 H2102 0.930 . S
C2112 C2111 1.400 . S
C2112 C2115 1.386 . S
H2113 C2129 0.930 . S
H2114 C2130 0.931 . S
C2115 H2103 0.929 . S
C2115 C2109 1.390 . S
C2115 C2112 1.386 . S
C2116 C2111 1.490 . S
C2116 C2118 1.395 . S
C2116 C2119 1.403 . S
H2117 C2123 0.930 . S
C2118 H2104 0.930 . S
C2118 C2116 1.395 . S
C2118 C2121 1.403 . S
C2119 C2116 1.403 . S
C2119 C2120 1.524 . S
C2119 C2123 1.400 . S
C2120 H2105 0.960 . S
C2120 H2106 0.960 . S
C2120 H2107 0.960 . S
C2120 C2119 1.524 . S
C2121 C2118 1.403 . S
C2121 C2122 1.392 . S
C2121 C2125 1.495 . S
C2122 C2121 1.392 . S
C2122 C2123 1.385 . S
C2122 C2124 1.478 . S
C2123 H2117 0.930 . S
C2123 C2119 1.400 . S
C2123 C2122 1.385 . S
C2124 C2122 1.478 . S
C2124 C2126 1.381 . S
C2124 C2130 1.383 . S
C2125 C2121 1.495 . S
C2125 H2131 0.959 . S
C2125 H2132 0.961 . S
C2125 H2133 0.960 . S
C2126 C2124 1.381 . S
C2126 C2127 1.394 . S
C2126 H2134 0.930 . S
C2127 C2126 1.394 . S
C2127 C2128 1.383 . S
C2127 H2135 0.929 . S
C2128 C2127 1.383 . S
C2128 C2129 1.377 . S
C2129 H2113 0.930 . S
C2129 C2128 1.377 . S
C2129 C2130 1.379 . S
C2130 H2114 0.931 . S
C2130 C2124 1.383 . S
C2130 C2129 1.379 . S
H2131 C2125 0.959 . S
H2132 C2125 0.961 . S
H2133 C2125 0.960 . S
H2134 C2126 0.930 . S
H2135 C2127 0.929 . S
H2136 C2144 0.929 . S
H2137 C2146 0.930 . S
H2138 C2148 0.930 . S
H2139 C2151 0.929 . S
H2140 C2154 0.930 . S
H2141 C2156 0.960 . S
H2142 C2156 0.960 . S
H2143 C2156 0.960 . S
C2144 H2136 0.929 . S
C2144 C2145 1.377 . S
C2144 C2146 1.384 . S
C2145 C2144 1.377 . S
C2145 C2151 1.390 . S
C2146 H2137 0.930 . S
C2146 C2144 1.384 . S
C2146 C2147 1.372 . S
C2147 C2146 1.372 . S
C2147 C2148 1.400 . S
C2147 C2152 1.490 . S
C2148 H2138 0.930 . S
C2148 C2147 1.400 . S
C2148 C2151 1.386 . S
H2149 C2165 0.930 . S
H2150 C2166 0.931 . S
C2151 H2139 0.929 . S
C2151 C2145 1.390 . S
C2151 C2148 1.386 . S
C2152 C2147 1.490 . S
C2152 C2154 1.395 . S
C2152 C2155 1.403 . S
H2153 C2159 0.930 . S
C2154 H2140 0.930 . S
C2154 C2152 1.395 . S
C2154 C2157 1.403 . S
C2155 C2152 1.403 . S
C2155 C2156 1.524 . S
C2155 C2159 1.400 . S
C2156 H2141 0.960 . S
C2156 H2142 0.960 . S
C2156 H2143 0.960 . S
C2156 C2155 1.524 . S
C2157 C2154 1.403 . S
C2157 C2158 1.392 . S
C2157 C2161 1.495 . S
C2158 C2157 1.392 . S
C2158 C2159 1.385 . S
C2158 C2160 1.478 . S
C2159 H2153 0.930 . S
C2159 C2155 1.400 . S
C2159 C2158 1.385 . S
C2160 C2158 1.478 . S
C2160 C2162 1.381 . S
C2160 C2166 1.383 . S
C2161 C2157 1.495 . S
C2161 H2167 0.959 . S
C2161 H2168 0.961 . S
C2161 H2169 0.960 . S
C2162 C2160 1.381 . S
C2162 C2163 1.394 . S
C2162 H2170 0.930 . S
C2163 C2162 1.394 . S
C2163 C2164 1.383 . S
C2163 H2171 0.929 . S
C2164 C2163 1.383 . S
C2164 C2165 1.377 . S
C2165 H2149 0.930 . S
C2165 C2164 1.377 . S
C2165 C2166 1.379 . S
C2166 H2150 0.931 . S
C2166 C2160 1.383 . S
C2166 C2165 1.379 . S
H2167 C2161 0.959 . S
H2168 C2161 0.961 . S
H2169 C2161 0.960 . S
H2170 C2162 0.930 . S
H2171 C2163 0.929 . S
H2172 C2180 0.929 . S
H2173 C2182 0.930 . S
H2174 C2184 0.930 . S
H2175 C2187 0.929 . S
H2176 C2190 0.930 . S
H2177 C2192 0.960 . S
H2178 C2192 0.960 . S
H2179 C2192 0.960 . S
C2180 H2172 0.929 . S
C2180 C2181 1.377 . S
C2180 C2182 1.384 . S
C2181 C2180 1.377 . S
C2181 C2187 1.390 . S
C2182 H2173 0.930 . S
C2182 C2180 1.384 . S
C2182 C2183 1.372 . S
C2183 C2182 1.372 . S
C2183 C2184 1.400 . S
C2183 C2188 1.490 . S
C2184 H2174 0.930 . S
C2184 C2183 1.400 . S
C2184 C2187 1.386 . S
H2185 C2201 0.930 . S
H2186 C2202 0.931 . S
C2187 H2175 0.929 . S
C2187 C2181 1.390 . S
C2187 C2184 1.386 . S
C2188 C2183 1.490 . S
C2188 C2190 1.395 . S
C2188 C2191 1.403 . S
H2189 C2195 0.930 . S
C2190 H2176 0.930 . S
C2190 C2188 1.395 . S
C2190 C2193 1.403 . S
C2191 C2188 1.403 . S
C2191 C2192 1.524 . S
C2191 C2195 1.400 . S
C2192 H2177 0.960 . S
C2192 H2178 0.960 . S
C2192 H2179 0.960 . S
C2192 C2191 1.524 . S
C2193 C2190 1.403 . S
C2193 C2194 1.392 . S
C2193 C2197 1.495 . S
C2194 C2193 1.392 . S
C2194 C2195 1.385 . S
C2194 C2196 1.478 . S
C2195 H2189 0.930 . S
C2195 C2191 1.400 . S
C2195 C2194 1.385 . S
C2196 C2194 1.478 . S
C2196 C2198 1.381 . S
C2196 C2202 1.383 . S
C2197 C2193 1.495 . S
C2197 H2203 0.959 . S
C2197 H2204 0.961 . S
C2197 H2205 0.960 . S
C2198 C2196 1.381 . S
C2198 C2199 1.394 . S
C2198 H2206 0.930 . S
C2199 C2198 1.394 . S
C2199 C2200 1.383 . S
C2199 H2207 0.929 . S
C2200 C2199 1.383 . S
C2200 C2201 1.377 . S
C2201 H2185 0.930 . S
C2201 C2200 1.377 . S
C2201 C2202 1.379 . S
C2202 H2186 0.931 . S
C2202 C2196 1.383 . S
C2202 C2201 1.379 . S
H2203 C2197 0.959 . S
H2204 C2197 0.961 . S
H2205 C2197 0.960 . S
H2206 C2198 0.930 . S
H2207 C2199 0.929 . S
H2208 C2216 0.929 . S
H2209 C2218 0.930 . S
H2210 C2220 0.930 . S
H2211 C2223 0.929 . S
H2212 C2226 0.930 . S
H2213 C2228 0.960 . S
H2214 C2228 0.960 . S
H2215 C2228 0.960 . S
C2216 H2208 0.929 . S
C2216 C2217 1.377 . S
C2216 C2218 1.384 . S
C2217 C2216 1.377 . S
C2217 C2223 1.390 . S
C2218 H2209 0.930 . S
C2218 C2216 1.384 . S
C2218 C2219 1.372 . S
C2219 C2218 1.372 . S
C2219 C2220 1.400 . S
C2219 C2224 1.490 . S
C2220 H2210 0.930 . S
C2220 C2219 1.400 . S
C2220 C2223 1.386 . S
H2221 C2237 0.930 . S
H2222 C2238 0.931 . S
C2223 H2211 0.929 . S
C2223 C2217 1.390 . S
C2223 C2220 1.386 . S
C2224 C2219 1.490 . S
C2224 C2226 1.395 . S
C2224 C2227 1.403 . S
H2225 C2231 0.930 . S
C2226 H2212 0.930 . S
C2226 C2224 1.395 . S
C2226 C2229 1.403 . S
C2227 C2224 1.403 . S
C2227 C2228 1.524 . S
C2227 C2231 1.400 . S
C2228 H2213 0.960 . S
C2228 H2214 0.960 . S
C2228 H2215 0.960 . S
C2228 C2227 1.524 . S
C2229 C2226 1.403 . S
C2229 C2230 1.392 . S
C2229 C2233 1.495 . S
C2230 C2229 1.392 . S
C2230 C2231 1.385 . S
C2230 C2232 1.478 . S
C2231 H2225 0.930 . S
C2231 C2227 1.400 . S
C2231 C2230 1.385 . S
C2232 C2230 1.478 . S
C2232 C2234 1.381 . S
C2232 C2238 1.383 . S
C2233 C2229 1.495 . S
C2233 H2239 0.959 . S
C2233 H2240 0.961 . S
C2233 H2241 0.960 . S
C2234 C2232 1.381 . S
C2234 C2235 1.394 . S
C2234 H2242 0.930 . S
C2235 C2234 1.394 . S
C2235 C2236 1.383 . S
C2235 H2243 0.929 . S
C2236 C2235 1.383 . S
C2236 C2237 1.377 . S
C2237 H2221 0.930 . S
C2237 C2236 1.377 . S
C2237 C2238 1.379 . S
C2238 H2222 0.931 . S
C2238 C2232 1.383 . S
C2238 C2237 1.379 . S
H2239 C2233 0.959 . S
H2240 C2233 0.961 . S
H2241 C2233 0.960 . S
H2242 C2234 0.930 . S
H2243 C2235 0.929 . S
H2244 C2252 0.929 . S
H2245 C2254 0.930 . S
H2246 C2256 0.930 . S
H2247 C2259 0.929 . S
H2248 C2262 0.930 . S
H2249 C2264 0.960 . S
H2250 C2264 0.960 . S
H2251 C2264 0.960 . S
C2252 H2244 0.929 . S
C2252 C2253 1.377 . S
C2252 C2254 1.384 . S
C2253 C2252 1.377 . S
C2253 C2259 1.390 . S
C2254 H2245 0.930 . S
C2254 C2252 1.384 . S
C2254 C2255 1.372 . S
C2255 C2254 1.372 . S
C2255 C2256 1.400 . S
C2255 C2260 1.490 . S
C2256 H2246 0.930 . S
C2256 C2255 1.400 . S
C2256 C2259 1.386 . S
H2257 C2273 0.930 . S
H2258 C2274 0.931 . S
C2259 H2247 0.929 . S
C2259 C2253 1.390 . S
C2259 C2256 1.386 . S
C2260 C2255 1.490 . S
C2260 C2262 1.395 . S
C2260 C2263 1.403 . S
H2261 C2267 0.930 . S
C2262 H2248 0.930 . S
C2262 C2260 1.395 . S
C2262 C2265 1.403 . S
C2263 C2260 1.403 . S
C2263 C2264 1.524 . S
C2263 C2267 1.400 . S
C2264 H2249 0.960 . S
C2264 H2250 0.960 . S
C2264 H2251 0.960 . S
C2264 C2263 1.524 . S
C2265 C2262 1.403 . S
C2265 C2266 1.392 . S
C2265 C2269 1.495 . S
C2266 C2265 1.392 . S
C2266 C2267 1.385 . S
C2266 C2268 1.478 . S
C2267 H2261 0.930 . S
C2267 C2263 1.400 . S
C2267 C2266 1.385 . S
C2268 C2266 1.478 . S
C2268 C2270 1.381 . S
C2268 C2274 1.383 . S
C2269 C2265 1.495 . S
C2269 H2275 0.959 . S
C2269 H2276 0.961 . S
C2269 H2277 0.960 . S
C2270 C2268 1.381 . S
C2270 C2271 1.394 . S
C2270 H2278 0.930 . S
C2271 C2270 1.394 . S
C2271 C2272 1.383 . S
C2271 H2279 0.929 . S
C2272 C2271 1.383 . S
C2272 C2273 1.377 . S
C2273 H2257 0.930 . S
C2273 C2272 1.377 . S
C2273 C2274 1.379 . S
C2274 H2258 0.931 . S
C2274 C2268 1.383 . S
C2274 C2273 1.379 . S
H2275 C2269 0.959 . S
H2276 C2269 0.961 . S
H2277 C2269 0.960 . S
H2278 C2270 0.930 . S
H2279 C2271 0.929 . S
H2280 C2288 0.929 . S
H2281 C2290 0.930 . S
H2282 C2292 0.930 . S
H2283 C2295 0.929 . S
H2284 C2298 0.930 . S
H2285 C2300 0.960 . S
H2286 C2300 0.960 . S
H2287 C2300 0.960 . S
C2288 H2280 0.929 . S
C2288 C2289 1.377 . S
C2288 C2290 1.384 . S
C2289 C2288 1.377 . S
C2289 C2295 1.390 . S
C2290 H2281 0.930 . S
C2290 C2288 1.384 . S
C2290 C2291 1.372 . S
C2291 C2290 1.372 . S
C2291 C2292 1.400 . S
C2291 C2296 1.490 . S
C2292 H2282 0.930 . S
C2292 C2291 1.400 . S
C2292 C2295 1.386 . S
H2293 C2309 0.930 . S
H2294 C2310 0.931 . S
C2295 H2283 0.929 . S
C2295 C2289 1.390 . S
C2295 C2292 1.386 . S
C2296 C2291 1.490 . S
C2296 C2298 1.395 . S
C2296 C2299 1.403 . S
H2297 C2303 0.930 . S
C2298 H2284 0.930 . S
C2298 C2296 1.395 . S
C2298 C2301 1.403 . S
C2299 C2296 1.403 . S
C2299 C2300 1.524 . S
C2299 C2303 1.400 . S
C2300 H2285 0.960 . S
C2300 H2286 0.960 . S
C2300 H2287 0.960 . S
C2300 C2299 1.524 . S
C2301 C2298 1.403 . S
C2301 C2302 1.392 . S
C2301 C2305 1.495 . S
C2302 C2301 1.392 . S
C2302 C2303 1.385 . S
C2302 C2304 1.478 . S
C2303 H2297 0.930 . S
C2303 C2299 1.400 . S
C2303 C2302 1.385 . S
C2304 C2302 1.478 . S
C2304 C2306 1.381 . S
C2304 C2310 1.383 . S
C2305 C2301 1.495 . S
C2305 H2311 0.959 . S
C2305 H2312 0.961 . S
C2305 H2313 0.960 . S
C2306 C2304 1.381 . S
C2306 C2307 1.394 . S
C2306 H2314 0.930 . S
C2307 C2306 1.394 . S
C2307 C2308 1.383 . S
C2307 H2315 0.929 . S
C2308 C2307 1.383 . S
C2308 C2309 1.377 . S
C2309 H2293 0.930 . S
C2309 C2308 1.377 . S
C2309 C2310 1.379 . S
C2310 H2294 0.931 . S
C2310 C2304 1.383 . S
C2310 C2309 1.379 . S
H2311 C2305 0.959 . S
H2312 C2305 0.961 . S
H2313 C2305 0.960 . S
H2314 C2306 0.930 . S
H2315 C2307 0.929 . S
H2316 C2324 0.929 . S
H2317 C2326 0.930 . S
H2318 C2328 0.930 . S
H2319 C2331 0.929 . S
H2320 C2334 0.930 . S
H2321 C2336 0.960 . S
H2322 C2336 0.960 . S
H2323 C2336 0.960 . S
C2324 H2316 0.929 . S
C2324 C2325 1.377 . S
C2324 C2326 1.384 . S
C2325 C2324 1.377 . S
C2325 C2331 1.390 . S
C2326 H2317 0.930 . S
C2326 C2324 1.384 . S
C2326 C2327 1.372 . S
C2327 C2326 1.372 . S
C2327 C2328 1.400 . S
C2327 C2332 1.490 . S
C2328 H2318 0.930 . S
C2328 C2327 1.400 . S
C2328 C2331 1.386 . S
H2329 C2345 0.930 . S
H2330 C2346 0.931 . S
C2331 H2319 0.929 . S
C2331 C2325 1.390 . S
C2331 C2328 1.386 . S
C2332 C2327 1.490 . S
C2332 C2334 1.395 . S
C2332 C2335 1.403 . S
H2333 C2339 0.930 . S
C2334 H2320 0.930 . S
C2334 C2332 1.395 . S
C2334 C2337 1.403 . S
C2335 C2332 1.403 . S
C2335 C2336 1.524 . S
C2335 C2339 1.400 . S
C2336 H2321 0.960 . S
C2336 H2322 0.960 . S
C2336 H2323 0.960 . S
C2336 C2335 1.524 . S
C2337 C2334 1.403 . S
C2337 C2338 1.392 . S
C2337 C2341 1.495 . S
C2338 C2337 1.392 . S
C2338 C2339 1.385 . S
C2338 C2340 1.478 . S
C2339 H2333 0.930 . S
C2339 C2335 1.400 . S
C2339 C2338 1.385 . S
C2340 C2338 1.478 . S
C2340 C2342 1.381 . S
C2340 C2346 1.383 . S
C2341 C2337 1.495 . S
C2341 H2347 0.959 . S
C2341 H2348 0.961 . S
C2341 H2349 0.960 . S
C2342 C2340 1.381 . S
C2342 C2343 1.394 . S
C2342 H2350 0.930 . S
C2343 C2342 1.394 . S
C2343 C2344 1.383 . S
C2343 H2351 0.929 . S
C2344 C2343 1.383 . S
C2344 C2345 1.377 . S
C2345 H2329 0.930 . S
C2345 C2344 1.377 . S
C2345 C2346 1.379 . S
C2346 H2330 0.931 . S
C2346 C2340 1.383 . S
C2346 C2345 1.379 . S
H2347 C2341 0.959 . S
H2348 C2341 0.961 . S
H2349 C2341 0.960 . S
H2350 C2342 0.930 . S
H2351 C2343 0.929 . S
H2352 C2360 0.929 . S
H2353 C2362 0.930 . S
H2354 C2364 0.930 . S
H2355 C2367 0.929 . S
H2356 C2370 0.930 . S
H2357 C2372 0.960 . S
H2358 C2372 0.960 . S
H2359 C2372 0.960 . S
C2360 H2352 0.929 . S
C2360 C2361 1.377 . S
C2360 C2362 1.384 . S
C2361 C2360 1.377 . S
C2361 C2367 1.390 . S
C2362 H2353 0.930 . S
C2362 C2360 1.384 . S
C2362 C2363 1.372 . S
C2363 C2362 1.372 . S
C2363 C2364 1.400 . S
C2363 C2368 1.490 . S
C2364 H2354 0.930 . S
C2364 C2363 1.400 . S
C2364 C2367 1.386 . S
H2365 C2381 0.930 . S
H2366 C2382 0.931 . S
C2367 H2355 0.929 . S
C2367 C2361 1.390 . S
C2367 C2364 1.386 . S
C2368 C2363 1.490 . S
C2368 C2370 1.395 . S
C2368 C2371 1.403 . S
H2369 C2375 0.930 . S
C2370 H2356 0.930 . S
C2370 C2368 1.395 . S
C2370 C2373 1.403 . S
C2371 C2368 1.403 . S
C2371 C2372 1.524 . S
C2371 C2375 1.400 . S
C2372 H2357 0.960 . S
C2372 H2358 0.960 . S
C2372 H2359 0.960 . S
C2372 C2371 1.524 . S
C2373 C2370 1.403 . S
C2373 C2374 1.392 . S
C2373 C2377 1.495 . S
C2374 C2373 1.392 . S
C2374 C2375 1.385 . S
C2374 C2376 1.478 . S
C2375 H2369 0.930 . S
C2375 C2371 1.400 . S
C2375 C2374 1.385 . S
C2376 C2374 1.478 . S
C2376 C2378 1.381 . S
C2376 C2382 1.383 . S
C2377 C2373 1.495 . S
C2377 H2383 0.959 . S
C2377 H2384 0.961 . S
C2377 H2385 0.960 . S
C2378 C2376 1.381 . S
C2378 C2379 1.394 . S
C2378 H2386 0.930 . S
C2379 C2378 1.394 . S
C2379 C2380 1.383 . S
C2379 H2387 0.929 . S
C2380 C2379 1.383 . S
C2380 C2381 1.377 . S
C2381 H2365 0.930 . S
C2381 C2380 1.377 . S
C2381 C2382 1.379 . S
C2382 H2366 0.931 . S
C2382 C2376 1.383 . S
C2382 C2381 1.379 . S
H2383 C2377 0.959 . S
H2384 C2377 0.961 . S
H2385 C2377 0.960 . S
H2386 C2378 0.930 . S
H2387 C2379 0.929 . S
H2388 C2396 0.929 . S
H2389 C2398 0.930 . S
H2390 C2400 0.930 . S
H2391 C2403 0.929 . S
H2392 C2406 0.930 . S
H2393 C2408 0.960 . S
H2394 C2408 0.960 . S
H2395 C2408 0.960 . S
C2396 H2388 0.929 . S
C2396 C2397 1.377 . S
C2396 C2398 1.384 . S
C2397 C2396 1.377 . S
C2397 C2403 1.390 . S
C2398 H2389 0.930 . S
C2398 C2396 1.384 . S
C2398 C2399 1.372 . S
C2399 C2398 1.372 . S
C2399 C2400 1.400 . S
C2399 C2404 1.490 . S
C2400 H2390 0.930 . S
C2400 C2399 1.400 . S
C2400 C2403 1.386 . S
H2401 C2417 0.930 . S
H2402 C2418 0.931 . S
C2403 H2391 0.929 . S
C2403 C2397 1.390 . S
C2403 C2400 1.386 . S
C2404 C2399 1.490 . S
C2404 C2406 1.395 . S
C2404 C2407 1.403 . S
H2405 C2411 0.930 . S
C2406 H2392 0.930 . S
C2406 C2404 1.395 . S
C2406 C2409 1.403 . S
C2407 C2404 1.403 . S
C2407 C2408 1.524 . S
C2407 C2411 1.400 . S
C2408 H2393 0.960 . S
C2408 H2394 0.960 . S
C2408 H2395 0.960 . S
C2408 C2407 1.524 . S
C2409 C2406 1.403 . S
C2409 C2410 1.392 . S
C2409 C2413 1.495 . S
C2410 C2409 1.392 . S
C2410 C2411 1.385 . S
C2410 C2412 1.478 . S
C2411 H2405 0.930 . S
C2411 C2407 1.400 . S
C2411 C2410 1.385 . S
C2412 C2410 1.478 . S
C2412 C2414 1.381 . S
C2412 C2418 1.383 . S
C2413 C2409 1.495 . S
C2413 H2419 0.959 . S
C2413 H2420 0.961 . S
C2413 H2421 0.960 . S
C2414 C2412 1.381 . S
C2414 C2415 1.394 . S
C2414 H2422 0.930 . S
C2415 C2414 1.394 . S
C2415 C2416 1.383 . S
C2415 H2423 0.929 . S
C2416 C2415 1.383 . S
C2416 C2417 1.377 . S
C2417 H2401 0.930 . S
C2417 C2416 1.377 . S
C2417 C2418 1.379 . S
C2418 H2402 0.931 . S
C2418 C2412 1.383 . S
C2418 C2417 1.379 . S
H2419 C2413 0.959 . S
H2420 C2413 0.961 . S
H2421 C2413 0.960 . S
H2422 C2414 0.930 . S
H2423 C2415 0.929 . S
H2424 C2432 0.929 . S
H2425 C2434 0.930 . S
H2426 C2436 0.930 . S
H2427 C2439 0.929 . S
H2428 C2442 0.930 . S
H2429 C2444 0.960 . S
H2430 C2444 0.960 . S
H2431 C2444 0.960 . S
C2432 H2424 0.929 . S
C2432 C2433 1.377 . S
C2432 C2434 1.384 . S
C2433 C2432 1.377 . S
C2433 C2439 1.390 . S
C2434 H2425 0.930 . S
C2434 C2432 1.384 . S
C2434 C2435 1.372 . S
C2435 C2434 1.372 . S
C2435 C2436 1.400 . S
C2435 C2440 1.490 . S
C2436 H2426 0.930 . S
C2436 C2435 1.400 . S
C2436 C2439 1.386 . S
H2437 C2453 0.930 . S
H2438 C2454 0.931 . S
C2439 H2427 0.929 . S
C2439 C2433 1.390 . S
C2439 C2436 1.386 . S
C2440 C2435 1.490 . S
C2440 C2442 1.395 . S
C2440 C2443 1.403 . S
H2441 C2447 0.930 . S
C2442 H2428 0.930 . S
C2442 C2440 1.395 . S
C2442 C2445 1.403 . S
C2443 C2440 1.403 . S
C2443 C2444 1.524 . S
C2443 C2447 1.400 . S
C2444 H2429 0.960 . S
C2444 H2430 0.960 . S
C2444 H2431 0.960 . S
C2444 C2443 1.524 . S
C2445 C2442 1.403 . S
C2445 C2446 1.392 . S
C2445 C2449 1.495 . S
C2446 C2445 1.392 . S
C2446 C2447 1.385 . S
C2446 C2448 1.478 . S
C2447 H2441 0.930 . S
C2447 C2443 1.400 . S
C2447 C2446 1.385 . S
C2448 C2446 1.478 . S
C2448 C2450 1.381 . S
C2448 C2454 1.383 . S
C2449 C2445 1.495 . S
C2449 H2455 0.959 . S
C2449 H2456 0.961 . S
C2449 H2457 0.960 . S
C2450 C2448 1.381 . S
C2450 C2451 1.394 . S
C2450 H2458 0.930 . S
C2451 C2450 1.394 . S
C2451 C2452 1.383 . S
C2451 H2459 0.929 . S
C2452 C2451 1.383 . S
C2452 C2453 1.377 . S
C2453 H2437 0.930 . S
C2453 C2452 1.377 . S
C2453 C2454 1.379 . S
C2454 H2438 0.931 . S
C2454 C2448 1.383 . S
C2454 C2453 1.379 . S
H2455 C2449 0.959 . S
H2456 C2449 0.961 . S
H2457 C2449 0.960 . S
H2458 C2450 0.930 . S
H2459 C2451 0.929 . S
H2460 C2468 0.929 . S
H2461 C2470 0.930 . S
H2462 C2472 0.930 . S
H2463 C2475 0.929 . S
H2464 C2478 0.930 . S
H2465 C2480 0.960 . S
H2466 C2480 0.960 . S
H2467 C2480 0.960 . S
C2468 H2460 0.929 . S
C2468 C2469 1.377 . S
C2468 C2470 1.384 . S
C2469 C2468 1.377 . S
C2469 C2475 1.390 . S
C2470 H2461 0.930 . S
C2470 C2468 1.384 . S
C2470 C2471 1.372 . S
C2471 C2470 1.372 . S
C2471 C2472 1.400 . S
C2471 C2476 1.490 . S
C2472 H2462 0.930 . S
C2472 C2471 1.400 . S
C2472 C2475 1.386 . S
H2473 C2489 0.930 . S
H2474 C2490 0.931 . S
C2475 H2463 0.929 . S
C2475 C2469 1.390 . S
C2475 C2472 1.386 . S
C2476 C2471 1.490 . S
C2476 C2478 1.395 . S
C2476 C2479 1.403 . S
H2477 C2483 0.930 . S
C2478 H2464 0.930 . S
C2478 C2476 1.395 . S
C2478 C2481 1.403 . S
C2479 C2476 1.403 . S
C2479 C2480 1.524 . S
C2479 C2483 1.400 . S
C2480 H2465 0.960 . S
C2480 H2466 0.960 . S
C2480 H2467 0.960 . S
C2480 C2479 1.524 . S
C2481 C2478 1.403 . S
C2481 C2482 1.392 . S
C2481 C2485 1.495 . S
C2482 C2481 1.392 . S
C2482 C2483 1.385 . S
C2482 C2484 1.478 . S
C2483 H2477 0.930 . S
C2483 C2479 1.400 . S
C2483 C2482 1.385 . S
C2484 C2482 1.478 . S
C2484 C2486 1.381 . S
C2484 C2490 1.383 . S
C2485 C2481 1.495 . S
C2485 H2491 0.959 . S
C2485 H2492 0.961 . S
C2485 H2493 0.960 . S
C2486 C2484 1.381 . S
C2486 C2487 1.394 . S
C2486 H2494 0.930 . S
C2487 C2486 1.394 . S
C2487 C2488 1.383 . S
C2487 H2495 0.929 . S
C2488 C2487 1.383 . S
C2488 C2489 1.377 . S
C2489 H2473 0.930 . S
C2489 C2488 1.377 . S
C2489 C2490 1.379 . S
C2490 H2474 0.931 . S
C2490 C2484 1.383 . S
C2490 C2489 1.379 . S
H2491 C2485 0.959 . S
H2492 C2485 0.961 . S
H2493 C2485 0.960 . S
H2494 C2486 0.930 . S
H2495 C2487 0.929 . S
H2496 C2504 0.929 . S
H2497 C2506 0.930 . S
H2498 C2508 0.930 . S
H2499 C2511 0.929 . S
H2500 C2514 0.930 . S
H2501 C2516 0.960 . S
H2502 C2516 0.960 . S
H2503 C2516 0.960 . S
C2504 H2496 0.929 . S
C2504 C2505 1.377 . S
C2504 C2506 1.384 . S
C2505 C2504 1.377 . S
C2505 C2511 1.390 . S
C2506 H2497 0.930 . S
C2506 C2504 1.384 . S
C2506 C2507 1.372 . S
C2507 C2506 1.372 . S
C2507 C2508 1.400 . S
C2507 C2512 1.490 . S
C2508 H2498 0.930 . S
C2508 C2507 1.400 . S
C2508 C2511 1.386 . S
H2509 C2525 0.930 . S
H2510 C2526 0.931 . S
C2511 H2499 0.929 . S
C2511 C2505 1.390 . S
C2511 C2508 1.386 . S
C2512 C2507 1.490 . S
C2512 C2514 1.395 . S
C2512 C2515 1.403 . S
H2513 C2519 0.930 . S
C2514 H2500 0.930 . S
C2514 C2512 1.395 . S
C2514 C2517 1.403 . S
C2515 C2512 1.403 . S
C2515 C2516 1.524 . S
C2515 C2519 1.400 . S
C2516 H2501 0.960 . S
C2516 H2502 0.960 . S
C2516 H2503 0.960 . S
C2516 C2515 1.524 . S
C2517 C2514 1.403 . S
C2517 C2518 1.392 . S
C2517 C2521 1.495 . S
C2518 C2517 1.392 . S
C2518 C2519 1.385 . S
C2518 C2520 1.478 . S
C2519 H2513 0.930 . S
C2519 C2515 1.400 . S
C2519 C2518 1.385 . S
C2520 C2518 1.478 . S
C2520 C2522 1.381 . S
C2520 C2526 1.383 . S
C2521 C2517 1.495 . S
C2521 H2527 0.959 . S
C2521 H2528 0.961 . S
C2521 H2529 0.960 . S
C2522 C2520 1.381 . S
C2522 C2523 1.394 . S
C2522 H2530 0.930 . S
C2523 C2522 1.394 . S
C2523 C2524 1.383 . S
C2523 H2531 0.929 . S
C2524 C2523 1.383 . S
C2524 C2525 1.377 . S
C2525 H2509 0.930 . S
C2525 C2524 1.377 . S
C2525 C2526 1.379 . S
C2526 H2510 0.931 . S
C2526 C2520 1.383 . S
C2526 C2525 1.379 . S
H2527 C2521 0.959 . S
H2528 C2521 0.961 . S
H2529 C2521 0.960 . S
H2530 C2522 0.930 . S
H2531 C2523 0.929 . S
H2532 C2540 0.929 . S
H2533 C2542 0.930 . S
H2534 C2544 0.930 . S
H2535 C2547 0.929 . S
H2536 C2550 0.930 . S
H2537 C2552 0.960 . S
H2538 C2552 0.960 . S
H2539 C2552 0.960 . S
C2540 H2532 0.929 . S
C2540 C2541 1.377 . S
C2540 C2542 1.384 . S
C2541 C2540 1.377 . S
C2541 C2547 1.390 . S
C2542 H2533 0.930 . S
C2542 C2540 1.384 . S
C2542 C2543 1.372 . S
C2543 C2542 1.372 . S
C2543 C2544 1.400 . S
C2543 C2548 1.490 . S
C2544 H2534 0.930 . S
C2544 C2543 1.400 . S
C2544 C2547 1.386 . S
H2545 C2561 0.930 . S
H2546 C2562 0.931 . S
C2547 H2535 0.929 . S
C2547 C2541 1.390 . S
C2547 C2544 1.386 . S
C2548 C2543 1.490 . S
C2548 C2550 1.395 . S
C2548 C2551 1.403 . S
H2549 C2555 0.930 . S
C2550 H2536 0.930 . S
C2550 C2548 1.395 . S
C2550 C2553 1.403 . S
C2551 C2548 1.403 . S
C2551 C2552 1.524 . S
C2551 C2555 1.400 . S
C2552 H2537 0.960 . S
C2552 H2538 0.960 . S
C2552 H2539 0.960 . S
C2552 C2551 1.524 . S
C2553 C2550 1.403 . S
C2553 C2554 1.392 . S
C2553 C2557 1.495 . S
C2554 C2553 1.392 . S
C2554 C2555 1.385 . S
C2554 C2556 1.478 . S
C2555 H2549 0.930 . S
C2555 C2551 1.400 . S
C2555 C2554 1.385 . S
C2556 C2554 1.478 . S
C2556 C2558 1.381 . S
C2556 C2562 1.383 . S
C2557 C2553 1.495 . S
C2557 H2563 0.959 . S
C2557 H2564 0.961 . S
C2557 H2565 0.960 . S
C2558 C2556 1.381 . S
C2558 C2559 1.394 . S
C2558 H2566 0.930 . S
C2559 C2558 1.394 . S
C2559 C2560 1.383 . S
C2559 H2567 0.929 . S
C2560 C2559 1.383 . S
C2560 C2561 1.377 . S
C2561 H2545 0.930 . S
C2561 C2560 1.377 . S
C2561 C2562 1.379 . S
C2562 H2546 0.931 . S
C2562 C2556 1.383 . S
C2562 C2561 1.379 . S
H2563 C2557 0.959 . S
H2564 C2557 0.961 . S
H2565 C2557 0.960 . S
H2566 C2558 0.930 . S
H2567 C2559 0.929 . S
H2568 C2576 0.929 . S
H2569 C2578 0.930 . S
H2570 C2580 0.930 . S
H2571 C2583 0.929 . S
H2572 C2586 0.930 . S
H2573 C2588 0.960 . S
H2574 C2588 0.960 . S
H2575 C2588 0.960 . S
C2576 H2568 0.929 . S
C2576 C2577 1.377 . S
C2576 C2578 1.384 . S
C2577 C2576 1.377 . S
C2577 C2583 1.390 . S
C2578 H2569 0.930 . S
C2578 C2576 1.384 . S
C2578 C2579 1.372 . S
C2579 C2578 1.372 . S
C2579 C2580 1.400 . S
C2579 C2584 1.490 . S
C2580 H2570 0.930 . S
C2580 C2579 1.400 . S
C2580 C2583 1.386 . S
H2581 C2597 0.930 . S
H2582 C2598 0.931 . S
C2583 H2571 0.929 . S
C2583 C2577 1.390 . S
C2583 C2580 1.386 . S
C2584 C2579 1.490 . S
C2584 C2586 1.395 . S
C2584 C2587 1.403 . S
H2585 C2591 0.930 . S
C2586 H2572 0.930 . S
C2586 C2584 1.395 . S
C2586 C2589 1.403 . S
C2587 C2584 1.403 . S
C2587 C2588 1.524 . S
C2587 C2591 1.400 . S
C2588 H2573 0.960 . S
C2588 H2574 0.960 . S
C2588 H2575 0.960 . S
C2588 C2587 1.524 . S
C2589 C2586 1.403 . S
C2589 C2590 1.392 . S
C2589 C2593 1.495 . S
C2590 C2589 1.392 . S
C2590 C2591 1.385 . S
C2590 C2592 1.478 . S
C2591 H2585 0.930 . S
C2591 C2587 1.400 . S
C2591 C2590 1.385 . S
C2592 C2590 1.478 . S
C2592 C2594 1.381 . S
C2592 C2598 1.383 . S
C2593 C2589 1.495 . S
C2593 H2599 0.959 . S
C2593 H2600 0.961 . S
C2593 H2601 0.960 . S
C2594 C2592 1.381 . S
C2594 C2595 1.394 . S
C2594 H2602 0.930 . S
C2595 C2594 1.394 . S
C2595 C2596 1.383 . S
C2595 H2603 0.929 . S
C2596 C2595 1.383 . S
C2596 C2597 1.377 . S
C2597 H2581 0.930 . S
C2597 C2596 1.377 . S
C2597 C2598 1.379 . S
C2598 H2582 0.931 . S
C2598 C2592 1.383 . S
C2598 C2597 1.379 . S
H2599 C2593 0.959 . S
H2600 C2593 0.961 . S
H2601 C2593 0.960 . S
H2602 C2594 0.930 . S
H2603 C2595 0.929 . S
H2604 C2612 0.929 . S
H2605 C2614 0.930 . S
H2606 C2616 0.930 . S
H2607 C2619 0.929 . S
H2608 C2622 0.930 . S
H2609 C2624 0.960 . S
H2610 C2624 0.960 . S
H2611 C2624 0.960 . S
C2612 H2604 0.929 . S
C2612 C2613 1.377 . S
C2612 C2614 1.384 . S
C2613 C2612 1.377 . S
C2613 C2619 1.390 . S
C2614 H2605 0.930 . S
C2614 C2612 1.384 . S
C2614 C2615 1.372 . S
C2615 C2614 1.372 . S
C2615 C2616 1.400 . S
C2615 C2620 1.490 . S
C2616 H2606 0.930 . S
C2616 C2615 1.400 . S
C2616 C2619 1.386 . S
H2617 C2633 0.930 . S
H2618 C2634 0.931 . S
C2619 H2607 0.929 . S
C2619 C2613 1.390 . S
C2619 C2616 1.386 . S
C2620 C2615 1.490 . S
C2620 C2622 1.395 . S
C2620 C2623 1.403 . S
H2621 C2627 0.930 . S
C2622 H2608 0.930 . S
C2622 C2620 1.395 . S
C2622 C2625 1.403 . S
C2623 C2620 1.403 . S
C2623 C2624 1.524 . S
C2623 C2627 1.400 . S
C2624 H2609 0.960 . S
C2624 H2610 0.960 . S
C2624 H2611 0.960 . S
C2624 C2623 1.524 . S
C2625 C2622 1.403 . S
C2625 C2626 1.392 . S
C2625 C2629 1.495 . S
C2626 C2625 1.392 . S
C2626 C2627 1.385 . S
C2626 C2628 1.478 . S
C2627 H2621 0.930 . S
C2627 C2623 1.400 . S
C2627 C2626 1.385 . S
C2628 C2626 1.478 . S
C2628 C2630 1.381 . S
C2628 C2634 1.383 . S
C2629 C2625 1.495 . S
C2629 H2635 0.959 . S
C2629 H2636 0.961 . S
C2629 H2637 0.960 . S
C2630 C2628 1.381 . S
C2630 C2631 1.394 . S
C2630 H2638 0.930 . S
C2631 C2630 1.394 . S
C2631 C2632 1.383 . S
C2631 H2639 0.929 . S
C2632 C2631 1.383 . S
C2632 C2633 1.377 . S
C2633 H2617 0.930 . S
C2633 C2632 1.377 . S
C2633 C2634 1.379 . S
C2634 H2618 0.931 . S
C2634 C2628 1.383 . S
C2634 C2633 1.379 . S
H2635 C2629 0.959 . S
H2636 C2629 0.961 . S
H2637 C2629 0.960 . S
H2638 C2630 0.930 . S
H2639 C2631 0.929 . S
H2640 C2648 0.929 . S
H2641 C2650 0.930 . S
H2642 C2652 0.930 . S
H2643 C2655 0.929 . S
H2644 C2658 0.930 . S
H2645 C2660 0.960 . S
H2646 C2660 0.960 . S
H2647 C2660 0.960 . S
C2648 H2640 0.929 . S
C2648 C2649 1.377 . S
C2648 C2650 1.384 . S
C2649 C2648 1.377 . S
C2649 C2655 1.390 . S
C2650 H2641 0.930 . S
C2650 C2648 1.384 . S
C2650 C2651 1.372 . S
C2651 C2650 1.372 . S
C2651 C2652 1.400 . S
C2651 C2656 1.490 . S
C2652 H2642 0.930 . S
C2652 C2651 1.400 . S
C2652 C2655 1.386 . S
H2653 C2669 0.930 . S
H2654 C2670 0.931 . S
C2655 H2643 0.929 . S
C2655 C2649 1.390 . S
C2655 C2652 1.386 . S
C2656 C2651 1.490 . S
C2656 C2658 1.395 . S
C2656 C2659 1.403 . S
H2657 C2663 0.930 . S
C2658 H2644 0.930 . S
C2658 C2656 1.395 . S
C2658 C2661 1.403 . S
C2659 C2656 1.403 . S
C2659 C2660 1.524 . S
C2659 C2663 1.400 . S
C2660 H2645 0.960 . S
C2660 H2646 0.960 . S
C2660 H2647 0.960 . S
C2660 C2659 1.524 . S
C2661 C2658 1.403 . S
C2661 C2662 1.392 . S
C2661 C2665 1.495 . S
C2662 C2661 1.392 . S
C2662 C2663 1.385 . S
C2662 C2664 1.478 . S
C2663 H2657 0.930 . S
C2663 C2659 1.400 . S
C2663 C2662 1.385 . S
C2664 C2662 1.478 . S
C2664 C2666 1.381 . S
C2664 C2670 1.383 . S
C2665 C2661 1.495 . S
C2665 H2671 0.959 . S
C2665 H2672 0.961 . S
C2665 H2673 0.960 . S
C2666 C2664 1.381 . S
C2666 C2667 1.394 . S
C2666 H2674 0.930 . S
C2667 C2666 1.394 . S
C2667 C2668 1.383 . S
C2667 H2675 0.929 . S
C2668 C2667 1.383 . S
C2668 C2669 1.377 . S
C2669 H2653 0.930 . S
C2669 C2668 1.377 . S
C2669 C2670 1.379 . S
C2670 H2654 0.931 . S
C2670 C2664 1.383 . S
C2670 C2669 1.379 . S
H2671 C2665 0.959 . S
H2672 C2665 0.961 . S
H2673 C2665 0.960 . S
H2674 C2666 0.930 . S
H2675 C2667 0.929 . S
H2676 C2684 0.929 . S
H2677 C2686 0.930 . S
H2678 C2688 0.930 . S
H2679 C2691 0.929 . S
H2680 C2694 0.930 . S
H2681 C2696 0.960 . S
H2682 C2696 0.960 . S
H2683 C2696 0.960 . S
C2684 H2676 0.929 . S
C2684 C2685 1.377 . S
C2684 C2686 1.384 . S
C2685 C2684 1.377 . S
C2685 C2691 1.390 . S
C2686 H2677 0.930 . S
C2686 C2684 1.384 . S
C2686 C2687 1.372 . S
C2687 C2686 1.372 . S
C2687 C2688 1.400 . S
C2687 C2692 1.490 . S
C2688 H2678 0.930 . S
C2688 C2687 1.400 . S
C2688 C2691 1.386 . S
H2689 C2705 0.930 . S
H2690 C2706 0.931 . S
C2691 H2679 0.929 . S
C2691 C2685 1.390 . S
C2691 C2688 1.386 . S
C2692 C2687 1.490 . S
C2692 C2694 1.395 . S
C2692 C2695 1.403 . S
H2693 C2699 0.930 . S
C2694 H2680 0.930 . S
C2694 C2692 1.395 . S
C2694 C2697 1.403 . S
C2695 C2692 1.403 . S
C2695 C2696 1.524 . S
C2695 C2699 1.400 . S
C2696 H2681 0.960 . S
C2696 H2682 0.960 . S
C2696 H2683 0.960 . S
C2696 C2695 1.524 . S
C2697 C2694 1.403 . S
C2697 C2698 1.392 . S
C2697 C2701 1.495 . S
C2698 C2697 1.392 . S
C2698 C2699 1.385 . S
C2698 C2700 1.478 . S
C2699 H2693 0.930 . S
C2699 C2695 1.400 . S
C2699 C2698 1.385 . S
C2700 C2698 1.478 . S
C2700 C2702 1.381 . S
C2700 C2706 1.383 . S
C2701 C2697 1.495 . S
C2701 H2707 0.959 . S
C2701 H2708 0.961 . S
C2701 H2709 0.960 . S
C2702 C2700 1.381 . S
C2702 C2703 1.394 . S
C2702 H2710 0.930 . S
C2703 C2702 1.394 . S
C2703 C2704 1.383 . S
C2703 H2711 0.929 . S
C2704 C2703 1.383 . S
C2704 C2705 1.377 . S
C2705 H2689 0.930 . S
C2705 C2704 1.377 . S
C2705 C2706 1.379 . S
C2706 H2690 0.931 . S
C2706 C2700 1.383 . S
C2706 C2705 1.379 . S
H2707 C2701 0.959 . S
H2708 C2701 0.961 . S
H2709 C2701 0.960 . S
H2710 C2702 0.930 . S
H2711 C2703 0.929 . S
H2712 C2720 0.929 . S
H2713 C2722 0.930 . S
H2714 C2724 0.930 . S
H2715 C2727 0.929 . S
H2716 C2730 0.930 . S
H2717 C2732 0.960 . S
H2718 C2732 0.960 . S
H2719 C2732 0.960 . S
C2720 H2712 0.929 . S
C2720 C2721 1.377 . S
C2720 C2722 1.384 . S
C2721 C2720 1.377 . S
C2721 C2727 1.390 . S
C2722 H2713 0.930 . S
C2722 C2720 1.384 . S
C2722 C2723 1.372 . S
C2723 C2722 1.372 . S
C2723 C2724 1.400 . S
C2723 C2728 1.490 . S
C2724 H2714 0.930 . S
C2724 C2723 1.400 . S
C2724 C2727 1.386 . S
H2725 C2741 0.930 . S
H2726 C2742 0.931 . S
C2727 H2715 0.929 . S
C2727 C2721 1.390 . S
C2727 C2724 1.386 . S
C2728 C2723 1.490 . S
C2728 C2730 1.395 . S
C2728 C2731 1.403 . S
H2729 C2735 0.930 . S
C2730 H2716 0.930 . S
C2730 C2728 1.395 . S
C2730 C2733 1.403 . S
C2731 C2728 1.403 . S
C2731 C2732 1.524 . S
C2731 C2735 1.400 . S
C2732 H2717 0.960 . S
C2732 H2718 0.960 . S
C2732 H2719 0.960 . S
C2732 C2731 1.524 . S
C2733 C2730 1.403 . S
C2733 C2734 1.392 . S
C2733 C2737 1.495 . S
C2734 C2733 1.392 . S
C2734 C2735 1.385 . S
C2734 C2736 1.478 . S
C2735 H2729 0.930 . S
C2735 C2731 1.400 . S
C2735 C2734 1.385 . S
C2736 C2734 1.478 . S
C2736 C2738 1.381 . S
C2736 C2742 1.383 . S
C2737 C2733 1.495 . S
C2737 H2743 0.959 . S
C2737 H2744 0.961 . S
C2737 H2745 0.960 . S
C2738 C2736 1.381 . S
C2738 C2739 1.394 . S
C2738 H2746 0.930 . S
C2739 C2738 1.394 . S
C2739 C2740 1.383 . S
C2739 H2747 0.929 . S
C2740 C2739 1.383 . S
C2740 C2741 1.377 . S
C2741 H2725 0.930 . S
C2741 C2740 1.377 . S
C2741 C2742 1.379 . S
C2742 H2726 0.931 . S
C2742 C2736 1.383 . S
C2742 C2741 1.379 . S
H2743 C2737 0.959 . S
H2744 C2737 0.961 . S
H2745 C2737 0.960 . S
H2746 C2738 0.930 . S
H2747 C2739 0.929 . S
H2748 C2756 0.929 . S
H2749 C2758 0.930 . S
H2750 C2760 0.930 . S
H2751 C2763 0.929 . S
H2752 C2766 0.930 . S
H2753 C2768 0.960 . S
H2754 C2768 0.960 . S
H2755 C2768 0.960 . S
C2756 H2748 0.929 . S
C2756 C2757 1.377 . S
C2756 C2758 1.384 . S
C2757 C2756 1.377 . S
C2757 C2763 1.390 . S
C2758 H2749 0.930 . S
C2758 C2756 1.384 . S
C2758 C2759 1.372 . S
C2759 C2758 1.372 . S
C2759 C2760 1.400 . S
C2759 C2764 1.490 . S
C2760 H2750 0.930 . S
C2760 C2759 1.400 . S
C2760 C2763 1.386 . S
H2761 C2777 0.930 . S
H2762 C2778 0.931 . S
C2763 H2751 0.929 . S
C2763 C2757 1.390 . S
C2763 C2760 1.386 . S
C2764 C2759 1.490 . S
C2764 C2766 1.395 . S
C2764 C2767 1.403 . S
H2765 C2771 0.930 . S
C2766 H2752 0.930 . S
C2766 C2764 1.395 . S
C2766 C2769 1.403 . S
C2767 C2764 1.403 . S
C2767 C2768 1.524 . S
C2767 C2771 1.400 . S
C2768 H2753 0.960 . S
C2768 H2754 0.960 . S
C2768 H2755 0.960 . S
C2768 C2767 1.524 . S
C2769 C2766 1.403 . S
C2769 C2770 1.392 . S
C2769 C2773 1.495 . S
C2770 C2769 1.392 . S
C2770 C2771 1.385 . S
C2770 C2772 1.478 . S
C2771 H2765 0.930 . S
C2771 C2767 1.400 . S
C2771 C2770 1.385 . S
C2772 C2770 1.478 . S
C2772 C2774 1.381 . S
C2772 C2778 1.383 . S
C2773 C2769 1.495 . S
C2773 H2779 0.959 . S
C2773 H2780 0.961 . S
C2773 H2781 0.960 . S
C2774 C2772 1.381 . S
C2774 C2775 1.394 . S
C2774 H2782 0.930 . S
C2775 C2774 1.394 . S
C2775 C2776 1.383 . S
C2775 H2783 0.929 . S
C2776 C2775 1.383 . S
C2776 C2777 1.377 . S
C2777 H2761 0.930 . S
C2777 C2776 1.377 . S
C2777 C2778 1.379 . S
C2778 H2762 0.931 . S
C2778 C2772 1.383 . S
C2778 C2777 1.379 . S
H2779 C2773 0.959 . S
H2780 C2773 0.961 . S
H2781 C2773 0.960 . S
H2782 C2774 0.930 . S
H2783 C2775 0.929 . S
H2784 C2792 0.929 . S
H2785 C2794 0.930 . S
H2786 C2796 0.930 . S
H2787 C2799 0.929 . S
H2788 C2802 0.930 . S
H2789 C2804 0.960 . S
H2790 C2804 0.960 . S
H2791 C2804 0.960 . S
C2792 H2784 0.929 . S
C2792 C2793 1.377 . S
C2792 C2794 1.384 . S
C2793 C2792 1.377 . S
C2793 C2799 1.390 . S
C2794 H2785 0.930 . S
C2794 C2792 1.384 . S
C2794 C2795 1.372 . S
C2795 C2794 1.372 . S
C2795 C2796 1.400 . S
C2795 C2800 1.490 . S
C2796 H2786 0.930 . S
C2796 C2795 1.400 . S
C2796 C2799 1.386 . S
H2797 C2813 0.930 . S
H2798 C2814 0.931 . S
C2799 H2787 0.929 . S
C2799 C2793 1.390 . S
C2799 C2796 1.386 . S
C2800 C2795 1.490 . S
C2800 C2802 1.395 . S
C2800 C2803 1.403 . S
H2801 C2807 0.930 . S
C2802 H2788 0.930 . S
C2802 C2800 1.395 . S
C2802 C2805 1.403 . S
C2803 C2800 1.403 . S
C2803 C2804 1.524 . S
C2803 C2807 1.400 . S
C2804 H2789 0.960 . S
C2804 H2790 0.960 . S
C2804 H2791 0.960 . S
C2804 C2803 1.524 . S
C2805 C2802 1.403 . S
C2805 C2806 1.392 . S
C2805 C2809 1.495 . S
C2806 C2805 1.392 . S
C2806 C2807 1.385 . S
C2806 C2808 1.478 . S
C2807 H2801 0.930 . S
C2807 C2803 1.400 . S
C2807 C2806 1.385 . S
C2808 C2806 1.478 . S
C2808 C2810 1.381 . S
C2808 C2814 1.383 . S
C2809 C2805 1.495 . S
C2809 H2815 0.959 . S
C2809 H2816 0.961 . S
C2809 H2817 0.960 . S
C2810 C2808 1.381 . S
C2810 C2811 1.394 . S
C2810 H2818 0.930 . S
C2811 C2810 1.394 . S
C2811 C2812 1.383 . S
C2811 H2819 0.929 . S
C2812 C2811 1.383 . S
C2812 C2813 1.377 . S
C2813 H2797 0.930 . S
C2813 C2812 1.377 . S
C2813 C2814 1.379 . S
C2814 H2798 0.931 . S
C2814 C2808 1.383 . S
C2814 C2813 1.379 . S
H2815 C2809 0.959 . S
H2816 C2809 0.961 . S
H2817 C2809 0.960 . S
H2818 C2810 0.930 . S
H2819 C2811 0.929 . S
H2820 C2828 0.929 . S
H2821 C2830 0.930 . S
H2822 C2832 0.930 . S
H2823 C2835 0.929 . S
H2824 C2838 0.930 . S
H2825 C2840 0.960 . S
H2826 C2840 0.960 . S
H2827 C2840 0.960 . S
C2828 H2820 0.929 . S
C2828 C2829 1.377 . S
C2828 C2830 1.384 . S
C2829 C2828 1.377 . S
C2829 C2835 1.390 . S
C2830 H2821 0.930 . S
C2830 C2828 1.384 . S
C2830 C2831 1.372 . S
C2831 C2830 1.372 . S
C2831 C2832 1.400 . S
C2831 C2836 1.490 . S
C2832 H2822 0.930 . S
C2832 C2831 1.400 . S
C2832 C2835 1.386 . S
H2833 C2849 0.930 . S
H2834 C2850 0.931 . S
C2835 H2823 0.929 . S
C2835 C2829 1.390 . S
C2835 C2832 1.386 . S
C2836 C2831 1.490 . S
C2836 C2838 1.395 . S
C2836 C2839 1.403 . S
H2837 C2843 0.930 . S
C2838 H2824 0.930 . S
C2838 C2836 1.395 . S
C2838 C2841 1.403 . S
C2839 C2836 1.403 . S
C2839 C2840 1.524 . S
C2839 C2843 1.400 . S
C2840 H2825 0.960 . S
C2840 H2826 0.960 . S
C2840 H2827 0.960 . S
C2840 C2839 1.524 . S
C2841 C2838 1.403 . S
C2841 C2842 1.392 . S
C2841 C2845 1.495 . S
C2842 C2841 1.392 . S
C2842 C2843 1.385 . S
C2842 C2844 1.478 . S
C2843 H2837 0.930 . S
C2843 C2839 1.400 . S
C2843 C2842 1.385 . S
C2844 C2842 1.478 . S
C2844 C2846 1.381 . S
C2844 C2850 1.383 . S
C2845 C2841 1.495 . S
C2845 H2851 0.959 . S
C2845 H2852 0.961 . S
C2845 H2853 0.960 . S
C2846 C2844 1.381 . S
C2846 C2847 1.394 . S
C2846 H2854 0.930 . S
C2847 C2846 1.394 . S
C2847 C2848 1.383 . S
C2847 H2855 0.929 . S
C2848 C2847 1.383 . S
C2848 C2849 1.377 . S
C2849 H2833 0.930 . S
C2849 C2848 1.377 . S
C2849 C2850 1.379 . S
C2850 H2834 0.931 . S
C2850 C2844 1.383 . S
C2850 C2849 1.379 . S
H2851 C2845 0.959 . S
H2852 C2845 0.961 . S
H2853 C2845 0.960 . S
H2854 C2846 0.930 . S
H2855 C2847 0.929 . S
H2856 C2864 0.929 . S
H2857 C2866 0.930 . S
H2858 C2868 0.930 . S
H2859 C2871 0.929 . S
H2860 C2874 0.930 . S
H2861 C2876 0.960 . S
H2862 C2876 0.960 . S
H2863 C2876 0.960 . S
C2864 H2856 0.929 . S
C2864 C2865 1.377 . S
C2864 C2866 1.384 . S
C2865 C2864 1.377 . S
C2865 C2871 1.390 . S
C2866 H2857 0.930 . S
C2866 C2864 1.384 . S
C2866 C2867 1.372 . S
C2867 C2866 1.372 . S
C2867 C2868 1.400 . S
C2867 C2872 1.490 . S
C2868 H2858 0.930 . S
C2868 C2867 1.400 . S
C2868 C2871 1.386 . S
H2869 C2885 0.930 . S
H2870 C2886 0.931 . S
C2871 H2859 0.929 . S
C2871 C2865 1.390 . S
C2871 C2868 1.386 . S
C2872 C2867 1.490 . S
C2872 C2874 1.395 . S
C2872 C2875 1.403 . S
H2873 C2879 0.930 . S
C2874 H2860 0.930 . S
C2874 C2872 1.395 . S
C2874 C2877 1.403 . S
C2875 C2872 1.403 . S
C2875 C2876 1.524 . S
C2875 C2879 1.400 . S
C2876 H2861 0.960 . S
C2876 H2862 0.960 . S
C2876 H2863 0.960 . S
C2876 C2875 1.524 . S
C2877 C2874 1.403 . S
C2877 C2878 1.392 . S
C2877 C2881 1.495 . S
C2878 C2877 1.392 . S
C2878 C2879 1.385 . S
C2878 C2880 1.478 . S
C2879 H2873 0.930 . S
C2879 C2875 1.400 . S
C2879 C2878 1.385 . S
C2880 C2878 1.478 . S
C2880 C2882 1.381 . S
C2880 C2886 1.383 . S
C2881 C2877 1.495 . S
C2881 H2887 0.959 . S
C2881 H2888 0.961 . S
C2881 H2889 0.960 . S
C2882 C2880 1.381 . S
C2882 C2883 1.394 . S
C2882 H2890 0.930 . S
C2883 C2882 1.394 . S
C2883 C2884 1.383 . S
C2883 H2891 0.929 . S
C2884 C2883 1.383 . S
C2884 C2885 1.377 . S
C2885 H2869 0.930 . S
C2885 C2884 1.377 . S
C2885 C2886 1.379 . S
C2886 H2870 0.931 . S
C2886 C2880 1.383 . S
C2886 C2885 1.379 . S
H2887 C2881 0.959 . S
H2888 C2881 0.961 . S
H2889 C2881 0.960 . S
H2890 C2882 0.930 . S
H2891 C2883 0.929 . S
H2892 C2900 0.929 . S
H2893 C2902 0.930 . S
H2894 C2904 0.930 . S
H2895 C2907 0.929 . S
H2896 C2910 0.930 . S
H2897 C2912 0.960 . S
H2898 C2912 0.960 . S
H2899 C2912 0.960 . S
C2900 H2892 0.929 . S
C2900 C2901 1.377 . S
C2900 C2902 1.384 . S
C2901 C2900 1.377 . S
C2901 C2907 1.390 . S
C2902 H2893 0.930 . S
C2902 C2900 1.384 . S
C2902 C2903 1.372 . S
C2903 C2902 1.372 . S
C2903 C2904 1.400 . S
C2903 C2908 1.490 . S
C2904 H2894 0.930 . S
C2904 C2903 1.400 . S
C2904 C2907 1.386 . S
H2905 C2921 0.930 . S
H2906 C2922 0.931 . S
C2907 H2895 0.929 . S
C2907 C2901 1.390 . S
C2907 C2904 1.386 . S
C2908 C2903 1.490 . S
C2908 C2910 1.395 . S
C2908 C2911 1.403 . S
H2909 C2915 0.930 . S
C2910 H2896 0.930 . S
C2910 C2908 1.395 . S
C2910 C2913 1.403 . S
C2911 C2908 1.403 . S
C2911 C2912 1.524 . S
C2911 C2915 1.400 . S
C2912 H2897 0.960 . S
C2912 H2898 0.960 . S
C2912 H2899 0.960 . S
C2912 C2911 1.524 . S
C2913 C2910 1.403 . S
C2913 C2914 1.392 . S
C2913 C2917 1.495 . S
C2914 C2913 1.392 . S
C2914 C2915 1.385 . S
C2914 C2916 1.478 . S
C2915 H2909 0.930 . S
C2915 C2911 1.400 . S
C2915 C2914 1.385 . S
C2916 C2914 1.478 . S
C2916 C2918 1.381 . S
C2916 C2922 1.383 . S
C2917 C2913 1.495 . S
C2917 H2923 0.959 . S
C2917 H2924 0.961 . S
C2917 H2925 0.960 . S
C2918 C2916 1.381 . S
C2918 C2919 1.394 . S
C2918 H2926 0.930 . S
C2919 C2918 1.394 . S
C2919 C2920 1.383 . S
C2919 H2927 0.929 . S
C2920 C2919 1.383 . S
C2920 C2921 1.377 . S
C2921 H2905 0.930 . S
C2921 C2920 1.377 . S
C2921 C2922 1.379 . S
C2922 H2906 0.931 . S
C2922 C2916 1.383 . S
C2922 C2921 1.379 . S
H2923 C2917 0.959 . S
H2924 C2917 0.961 . S
H2925 C2917 0.960 . S
H2926 C2918 0.930 . S
H2927 C2919 0.929 . S
H2928 C2936 0.929 . S
H2929 C2938 0.930 . S
H2930 C2940 0.930 . S
H2931 C2943 0.929 . S
H2932 C2946 0.930 . S
H2933 C2948 0.960 . S
H2934 C2948 0.960 . S
H2935 C2948 0.960 . S
C2936 H2928 0.929 . S
C2936 C2937 1.377 . S
C2936 C2938 1.384 . S
C2937 C2936 1.377 . S
C2937 C2943 1.390 . S
C2938 H2929 0.930 . S
C2938 C2936 1.384 . S
C2938 C2939 1.372 . S
C2939 C2938 1.372 . S
C2939 C2940 1.400 . S
C2939 C2944 1.490 . S
C2940 H2930 0.930 . S
C2940 C2939 1.400 . S
C2940 C2943 1.386 . S
H2941 C2957 0.930 . S
H2942 C2958 0.931 . S
C2943 H2931 0.929 . S
C2943 C2937 1.390 . S
C2943 C2940 1.386 . S
C2944 C2939 1.490 . S
C2944 C2946 1.395 . S
C2944 C2947 1.403 . S
H2945 C2951 0.930 . S
C2946 H2932 0.930 . S
C2946 C2944 1.395 . S
C2946 C2949 1.403 . S
C2947 C2944 1.403 . S
C2947 C2948 1.524 . S
C2947 C2951 1.400 . S
C2948 H2933 0.960 . S
C2948 H2934 0.960 . S
C2948 H2935 0.960 . S
C2948 C2947 1.524 . S
C2949 C2946 1.403 . S
C2949 C2950 1.392 . S
C2949 C2953 1.495 . S
C2950 C2949 1.392 . S
C2950 C2951 1.385 . S
C2950 C2952 1.478 . S
C2951 H2945 0.930 . S
C2951 C2947 1.400 . S
C2951 C2950 1.385 . S
C2952 C2950 1.478 . S
C2952 C2954 1.381 . S
C2952 C2958 1.383 . S
C2953 C2949 1.495 . S
C2953 H2959 0.959 . S
C2953 H2960 0.961 . S
C2953 H2961 0.960 . S
C2954 C2952 1.381 . S
C2954 C2955 1.394 . S
C2954 H2962 0.930 . S
C2955 C2954 1.394 . S
C2955 C2956 1.383 . S
C2955 H2963 0.929 . S
C2956 C2955 1.383 . S
C2956 C2957 1.377 . S
C2957 H2941 0.930 . S
C2957 C2956 1.377 . S
C2957 C2958 1.379 . S
C2958 H2942 0.931 . S
C2958 C2952 1.383 . S
C2958 C2957 1.379 . S
H2959 C2953 0.959 . S
H2960 C2953 0.961 . S
H2961 C2953 0.960 . S
H2962 C2954 0.930 . S
H2963 C2955 0.929 . S
H2964 C2972 0.929 . S
H2965 C2974 0.930 . S
H2966 C2976 0.930 . S
H2967 C2979 0.929 . S
H2968 C2982 0.930 . S
H2969 C2984 0.960 . S
H2970 C2984 0.960 . S
H2971 C2984 0.960 . S
C2972 H2964 0.929 . S
C2972 C2973 1.377 . S
C2972 C2974 1.384 . S
C2973 C2972 1.377 . S
C2973 C2979 1.390 . S
C2974 H2965 0.930 . S
C2974 C2972 1.384 . S
C2974 C2975 1.372 . S
C2975 C2974 1.372 . S
C2975 C2976 1.400 . S
C2975 C2980 1.490 . S
C2976 H2966 0.930 . S
C2976 C2975 1.400 . S
C2976 C2979 1.386 . S
H2977 C2993 0.930 . S
H2978 C2994 0.931 . S
C2979 H2967 0.929 . S
C2979 C2973 1.390 . S
C2979 C2976 1.386 . S
C2980 C2975 1.490 . S
C2980 C2982 1.395 . S
C2980 C2983 1.403 . S
H2981 C2987 0.930 . S
C2982 H2968 0.930 . S
C2982 C2980 1.395 . S
C2982 C2985 1.403 . S
C2983 C2980 1.403 . S
C2983 C2984 1.524 . S
C2983 C2987 1.400 . S
C2984 H2969 0.960 . S
C2984 H2970 0.960 . S
C2984 H2971 0.960 . S
C2984 C2983 1.524 . S
C2985 C2982 1.403 . S
C2985 C2986 1.392 . S
C2985 C2989 1.495 . S
C2986 C2985 1.392 . S
C2986 C2987 1.385 . S
C2986 C2988 1.478 . S
C2987 H2981 0.930 . S
C2987 C2983 1.400 . S
C2987 C2986 1.385 . S
C2988 C2986 1.478 . S
C2988 C2990 1.381 . S
C2988 C2994 1.383 . S
C2989 C2985 1.495 . S
C2989 H2995 0.959 . S
C2989 H2996 0.961 . S
C2989 H2997 0.960 . S
C2990 C2988 1.381 . S
C2990 C2991 1.394 . S
C2990 H2998 0.930 . S
C2991 C2990 1.394 . S
C2991 C2992 1.383 . S
C2991 H2999 0.929 . S
C2992 C2991 1.383 . S
C2992 C2993 1.377 . S
C2993 H2977 0.930 . S
C2993 C2992 1.377 . S
C2993 C2994 1.379 . S
C2994 H2978 0.931 . S
C2994 C2988 1.383 . S
C2994 C2993 1.379 . S
H2995 C2989 0.959 . S
H2996 C2989 0.961 . S
H2997 C2989 0.960 . S
H2998 C2990 0.930 . S
H2999 C2991 0.929 . S
H3000 C3008 0.929 . S
H3001 C3010 0.930 . S
H3002 C3012 0.930 . S
H3003 C3015 0.929 . S
H3004 C3018 0.930 . S
H3005 C3020 0.960 . S
H3006 C3020 0.960 . S
H3007 C3020 0.960 . S
C3008 H3000 0.929 . S
C3008 C3009 1.377 . S
C3008 C3010 1.384 . S
C3009 C3008 1.377 . S
C3009 C3015 1.390 . S
C3010 H3001 0.930 . S
C3010 C3008 1.384 . S
C3010 C3011 1.372 . S
C3011 C3010 1.372 . S
C3011 C3012 1.400 . S
C3011 C3016 1.490 . S
C3012 H3002 0.930 . S
C3012 C3011 1.400 . S
C3012 C3015 1.386 . S
H3013 C3029 0.930 . S
H3014 C3030 0.931 . S
C3015 H3003 0.929 . S
C3015 C3009 1.390 . S
C3015 C3012 1.386 . S
C3016 C3011 1.490 . S
C3016 C3018 1.395 . S
C3016 C3019 1.403 . S
H3017 C3023 0.930 . S
C3018 H3004 0.930 . S
C3018 C3016 1.395 . S
C3018 C3021 1.403 . S
C3019 C3016 1.403 . S
C3019 C3020 1.524 . S
C3019 C3023 1.400 . S
C3020 H3005 0.960 . S
C3020 H3006 0.960 . S
C3020 H3007 0.960 . S
C3020 C3019 1.524 . S
C3021 C3018 1.403 . S
C3021 C3022 1.392 . S
C3021 C3025 1.495 . S
C3022 C3021 1.392 . S
C3022 C3023 1.385 . S
C3022 C3024 1.478 . S
C3023 H3017 0.930 . S
C3023 C3019 1.400 . S
C3023 C3022 1.385 . S
C3024 C3022 1.478 . S
C3024 C3026 1.381 . S
C3024 C3030 1.383 . S
C3025 C3021 1.495 . S
C3025 H3031 0.959 . S
C3025 H3032 0.961 . S
C3025 H3033 0.960 . S
C3026 C3024 1.381 . S
C3026 C3027 1.394 . S
C3026 H3034 0.930 . S
C3027 C3026 1.394 . S
C3027 C3028 1.383 . S
C3027 H3035 0.929 . S
C3028 C3027 1.383 . S
C3028 C3029 1.377 . S
C3029 H3013 0.930 . S
C3029 C3028 1.377 . S
C3029 C3030 1.379 . S
C3030 H3014 0.931 . S
C3030 C3024 1.383 . S
C3030 C3029 1.379 . S
H3031 C3025 0.959 . S
H3032 C3025 0.961 . S
H3033 C3025 0.960 . S
H3034 C3026 0.930 . S
H3035 C3027 0.929 . S
H3036 C3044 0.929 . S
H3037 C3046 0.930 . S
H3038 C3048 0.930 . S
H3039 C3051 0.929 . S
H3040 C3054 0.930 . S
H3041 C3056 0.960 . S
H3042 C3056 0.960 . S
H3043 C3056 0.960 . S
C3044 H3036 0.929 . S
C3044 C3045 1.377 . S
C3044 C3046 1.384 . S
C3045 C3044 1.377 . S
C3045 C3051 1.390 . S
C3046 H3037 0.930 . S
C3046 C3044 1.384 . S
C3046 C3047 1.372 . S
C3047 C3046 1.372 . S
C3047 C3048 1.400 . S
C3047 C3052 1.490 . S
C3048 H3038 0.930 . S
C3048 C3047 1.400 . S
C3048 C3051 1.386 . S
H3049 C3065 0.930 . S
H3050 C3066 0.931 . S
C3051 H3039 0.929 . S
C3051 C3045 1.390 . S
C3051 C3048 1.386 . S
C3052 C3047 1.490 . S
C3052 C3054 1.395 . S
C3052 C3055 1.403 . S
H3053 C3059 0.930 . S
C3054 H3040 0.930 . S
C3054 C3052 1.395 . S
C3054 C3057 1.403 . S
C3055 C3052 1.403 . S
C3055 C3056 1.524 . S
C3055 C3059 1.400 . S
C3056 H3041 0.960 . S
C3056 H3042 0.960 . S
C3056 H3043 0.960 . S
C3056 C3055 1.524 . S
C3057 C3054 1.403 . S
C3057 C3058 1.392 . S
C3057 C3061 1.495 . S
C3058 C3057 1.392 . S
C3058 C3059 1.385 . S
C3058 C3060 1.478 . S
C3059 H3053 0.930 . S
C3059 C3055 1.400 . S
C3059 C3058 1.385 . S
C3060 C3058 1.478 . S
C3060 C3062 1.381 . S
C3060 C3066 1.383 . S
C3061 C3057 1.495 . S
C3061 H3067 0.959 . S
C3061 H3068 0.961 . S
C3061 H3069 0.960 . S
C3062 C3060 1.381 . S
C3062 C3063 1.394 . S
C3062 H3070 0.930 . S
C3063 C3062 1.394 . S
C3063 C3064 1.383 . S
C3063 H3071 0.929 . S
C3064 C3063 1.383 . S
C3064 C3065 1.377 . S
C3065 H3049 0.930 . S
C3065 C3064 1.377 . S
C3065 C3066 1.379 . S
C3066 H3050 0.931 . S
C3066 C3060 1.383 . S
C3066 C3065 1.379 . S
H3067 C3061 0.959 . S
H3068 C3061 0.961 . S
H3069 C3061 0.960 . S
H3070 C3062 0.930 . S
H3071 C3063 0.929 . S
H3072 C3080 0.929 . S
H3073 C3082 0.930 . S
H3074 C3084 0.930 . S
H3075 C3087 0.929 . S
H3076 C3090 0.930 . S
H3077 C3092 0.960 . S
H3078 C3092 0.960 . S
H3079 C3092 0.960 . S
C3080 H3072 0.929 . S
C3080 C3081 1.377 . S
C3080 C3082 1.384 . S
C3081 C3080 1.377 . S
C3081 C3087 1.390 . S
C3082 H3073 0.930 . S
C3082 C3080 1.384 . S
C3082 C3083 1.372 . S
C3083 C3082 1.372 . S
C3083 C3084 1.400 . S
C3083 C3088 1.490 . S
C3084 H3074 0.930 . S
C3084 C3083 1.400 . S
C3084 C3087 1.386 . S
H3085 C3101 0.930 . S
H3086 C3102 0.931 . S
C3087 H3075 0.929 . S
C3087 C3081 1.390 . S
C3087 C3084 1.386 . S
C3088 C3083 1.490 . S
C3088 C3090 1.395 . S
C3088 C3091 1.403 . S
H3089 C3095 0.930 . S
C3090 H3076 0.930 . S
C3090 C3088 1.395 . S
C3090 C3093 1.403 . S
C3091 C3088 1.403 . S
C3091 C3092 1.524 . S
C3091 C3095 1.400 . S
C3092 H3077 0.960 . S
C3092 H3078 0.960 . S
C3092 H3079 0.960 . S
C3092 C3091 1.524 . S
C3093 C3090 1.403 . S
C3093 C3094 1.392 . S
C3093 C3097 1.495 . S
C3094 C3093 1.392 . S
C3094 C3095 1.385 . S
C3094 C3096 1.478 . S
C3095 H3089 0.930 . S
C3095 C3091 1.400 . S
C3095 C3094 1.385 . S
C3096 C3094 1.478 . S
C3096 C3098 1.381 . S
C3096 C3102 1.383 . S
C3097 C3093 1.495 . S
C3097 H3103 0.959 . S
C3097 H3104 0.961 . S
C3097 H3105 0.960 . S
C3098 C3096 1.381 . S
C3098 C3099 1.394 . S
C3098 H3106 0.930 . S
C3099 C3098 1.394 . S
C3099 C3100 1.383 . S
C3099 H3107 0.929 . S
C3100 C3099 1.383 . S
C3100 C3101 1.377 . S
C3101 H3085 0.930 . S
C3101 C3100 1.377 . S
C3101 C3102 1.379 . S
C3102 H3086 0.931 . S
C3102 C3096 1.383 . S
C3102 C3101 1.379 . S
H3103 C3097 0.959 . S
H3104 C3097 0.961 . S
H3105 C3097 0.960 . S
H3106 C3098 0.930 . S
H3107 C3099 0.929 . S
H3108 C3116 0.929 . S
H3109 C3118 0.930 . S
H3110 C3120 0.930 . S
H3111 C3123 0.929 . S
H3112 C3126 0.930 . S
H3113 C3128 0.960 . S
H3114 C3128 0.960 . S
H3115 C3128 0.960 . S
C3116 H3108 0.929 . S
C3116 C3117 1.377 . S
C3116 C3118 1.384 . S
C3117 C3116 1.377 . S
C3117 C3123 1.390 . S
C3118 H3109 0.930 . S
C3118 C3116 1.384 . S
C3118 C3119 1.372 . S
C3119 C3118 1.372 . S
C3119 C3120 1.400 . S
C3119 C3124 1.490 . S
C3120 H3110 0.930 . S
C3120 C3119 1.400 . S
C3120 C3123 1.386 . S
H3121 C3137 0.930 . S
H3122 C3138 0.931 . S
C3123 H3111 0.929 . S
C3123 C3117 1.390 . S
C3123 C3120 1.386 . S
C3124 C3119 1.490 . S
C3124 C3126 1.395 . S
C3124 C3127 1.403 . S
H3125 C3131 0.930 . S
C3126 H3112 0.930 . S
C3126 C3124 1.395 . S
C3126 C3129 1.403 . S
C3127 C3124 1.403 . S
C3127 C3128 1.524 . S
C3127 C3131 1.400 . S
C3128 H3113 0.960 . S
C3128 H3114 0.960 . S
C3128 H3115 0.960 . S
C3128 C3127 1.524 . S
C3129 C3126 1.403 . S
C3129 C3130 1.392 . S
C3129 C3133 1.495 . S
C3130 C3129 1.392 . S
C3130 C3131 1.385 . S
C3130 C3132 1.478 . S
C3131 H3125 0.930 . S
C3131 C3127 1.400 . S
C3131 C3130 1.385 . S
C3132 C3130 1.478 . S
C3132 C3134 1.381 . S
C3132 C3138 1.383 . S
C3133 C3129 1.495 . S
C3133 H3139 0.959 . S
C3133 H3140 0.961 . S
C3133 H3141 0.960 . S
C3134 C3132 1.381 . S
C3134 C3135 1.394 . S
C3134 H3142 0.930 . S
C3135 C3134 1.394 . S
C3135 C3136 1.383 . S
C3135 H3143 0.929 . S
C3136 C3135 1.383 . S
C3136 C3137 1.377 . S
C3137 H3121 0.930 . S
C3137 C3136 1.377 . S
C3137 C3138 1.379 . S
C3138 H3122 0.931 . S
C3138 C3132 1.383 . S
C3138 C3137 1.379 . S
H3139 C3133 0.959 . S
H3140 C3133 0.961 . S
H3141 C3133 0.960 . S
H3142 C3134 0.930 . S
H3143 C3135 0.929 . S
H3144 C3152 0.929 . S
H3145 C3154 0.930 . S
H3146 C3156 0.930 . S
H3147 C3159 0.929 . S
H3148 C3162 0.930 . S
H3149 C3164 0.960 . S
H3150 C3164 0.960 . S
H3151 C3164 0.960 . S
C3152 H3144 0.929 . S
C3152 C3153 1.377 . S
C3152 C3154 1.384 . S
C3153 C3152 1.377 . S
C3153 C3159 1.390 . S
C3154 H3145 0.930 . S
C3154 C3152 1.384 . S
C3154 C3155 1.372 . S
C3155 C3154 1.372 . S
C3155 C3156 1.400 . S
C3155 C3160 1.490 . S
C3156 H3146 0.930 . S
C3156 C3155 1.400 . S
C3156 C3159 1.386 . S
H3157 C3173 0.930 . S
H3158 C3174 0.931 . S
C3159 H3147 0.929 . S
C3159 C3153 1.390 . S
C3159 C3156 1.386 . S
C3160 C3155 1.490 . S
C3160 C3162 1.395 . S
C3160 C3163 1.403 . S
H3161 C3167 0.930 . S
C3162 H3148 0.930 . S
C3162 C3160 1.395 . S
C3162 C3165 1.403 . S
C3163 C3160 1.403 . S
C3163 C3164 1.524 . S
C3163 C3167 1.400 . S
C3164 H3149 0.960 . S
C3164 H3150 0.960 . S
C3164 H3151 0.960 . S
C3164 C3163 1.524 . S
C3165 C3162 1.403 . S
C3165 C3166 1.392 . S
C3165 C3169 1.495 . S
C3166 C3165 1.392 . S
C3166 C3167 1.385 . S
C3166 C3168 1.478 . S
C3167 H3161 0.930 . S
C3167 C3163 1.400 . S
C3167 C3166 1.385 . S
C3168 C3166 1.478 . S
C3168 C3170 1.381 . S
C3168 C3174 1.383 . S
C3169 C3165 1.495 . S
C3169 H3175 0.959 . S
C3169 H3176 0.961 . S
C3169 H3177 0.960 . S
C3170 C3168 1.381 . S
C3170 C3171 1.394 . S
C3170 H3178 0.930 . S
C3171 C3170 1.394 . S
C3171 C3172 1.383 . S
C3171 H3179 0.929 . S
C3172 C3171 1.383 . S
C3172 C3173 1.377 . S
C3173 H3157 0.930 . S
C3173 C3172 1.377 . S
C3173 C3174 1.379 . S
C3174 H3158 0.931 . S
C3174 C3168 1.383 . S
C3174 C3173 1.379 . S
H3175 C3169 0.959 . S
H3176 C3169 0.961 . S
H3177 C3169 0.960 . S
H3178 C3170 0.930 . S
H3179 C3171 0.929 . S
H3180 C3188 0.929 . S
H3181 C3190 0.930 . S
H3182 C3192 0.930 . S
H3183 C3195 0.929 . S
H3184 C3198 0.930 . S
H3185 C3200 0.960 . S
H3186 C3200 0.960 . S
H3187 C3200 0.960 . S
C3188 H3180 0.929 . S
C3188 C3189 1.377 . S
C3188 C3190 1.384 . S
C3189 C3188 1.377 . S
C3189 C3195 1.390 . S
C3190 H3181 0.930 . S
C3190 C3188 1.384 . S
C3190 C3191 1.372 . S
C3191 C3190 1.372 . S
C3191 C3192 1.400 . S
C3191 C3196 1.490 . S
C3192 H3182 0.930 . S
C3192 C3191 1.400 . S
C3192 C3195 1.386 . S
H3193 C3209 0.930 . S
H3194 C3210 0.931 . S
C3195 H3183 0.929 . S
C3195 C3189 1.390 . S
C3195 C3192 1.386 . S
C3196 C3191 1.490 . S
C3196 C3198 1.395 . S
C3196 C3199 1.403 . S
H3197 C3203 0.930 . S
C3198 H3184 0.930 . S
C3198 C3196 1.395 . S
C3198 C3201 1.403 . S
C3199 C3196 1.403 . S
C3199 C3200 1.524 . S
C3199 C3203 1.400 . S
C3200 H3185 0.960 . S
C3200 H3186 0.960 . S
C3200 H3187 0.960 . S
C3200 C3199 1.524 . S
C3201 C3198 1.403 . S
C3201 C3202 1.392 . S
C3201 C3205 1.495 . S
C3202 C3201 1.392 . S
C3202 C3203 1.385 . S
C3202 C3204 1.478 . S
C3203 H3197 0.930 . S
C3203 C3199 1.400 . S
C3203 C3202 1.385 . S
C3204 C3202 1.478 . S
C3204 C3206 1.381 . S
C3204 C3210 1.383 . S
C3205 C3201 1.495 . S
C3205 H3211 0.959 . S
C3205 H3212 0.961 . S
C3205 H3213 0.960 . S
C3206 C3204 1.381 . S
C3206 C3207 1.394 . S
C3206 H3214 0.930 . S
C3207 C3206 1.394 . S
C3207 C3208 1.383 . S
C3207 H3215 0.929 . S
C3208 C3207 1.383 . S
C3208 C3209 1.377 . S
C3209 H3193 0.930 . S
C3209 C3208 1.377 . S
C3209 C3210 1.379 . S
C3210 H3194 0.931 . S
C3210 C3204 1.383 . S
C3210 C3209 1.379 . S
H3211 C3205 0.959 . S
H3212 C3205 0.961 . S
H3213 C3205 0.960 . S
H3214 C3206 0.930 . S
H3215 C3207 0.929 . S
H3216 C3224 0.929 . S
H3217 C3226 0.930 . S
H3218 C3228 0.930 . S
H3219 C3231 0.929 . S
H3220 C3234 0.930 . S
H3221 C3236 0.960 . S
H3222 C3236 0.960 . S
H3223 C3236 0.960 . S
C3224 H3216 0.929 . S
C3224 C3225 1.377 . S
C3224 C3226 1.384 . S
C3225 C3224 1.377 . S
C3225 C3231 1.390 . S
C3226 H3217 0.930 . S
C3226 C3224 1.384 . S
C3226 C3227 1.372 . S
C3227 C3226 1.372 . S
C3227 C3228 1.400 . S
C3227 C3232 1.490 . S
C3228 H3218 0.930 . S
C3228 C3227 1.400 . S
C3228 C3231 1.386 . S
H3229 C3245 0.930 . S
H3230 C3246 0.931 . S
C3231 H3219 0.929 . S
C3231 C3225 1.390 . S
C3231 C3228 1.386 . S
C3232 C3227 1.490 . S
C3232 C3234 1.395 . S
C3232 C3235 1.403 . S
H3233 C3239 0.930 . S
C3234 H3220 0.930 . S
C3234 C3232 1.395 . S
C3234 C3237 1.403 . S
C3235 C3232 1.403 . S
C3235 C3236 1.524 . S
C3235 C3239 1.400 . S
C3236 H3221 0.960 . S
C3236 H3222 0.960 . S
C3236 H3223 0.960 . S
C3236 C3235 1.524 . S
C3237 C3234 1.403 . S
C3237 C3238 1.392 . S
C3237 C3241 1.495 . S
C3238 C3237 1.392 . S
C3238 C3239 1.385 . S
C3238 C3240 1.478 . S
C3239 H3233 0.930 . S
C3239 C3235 1.400 . S
C3239 C3238 1.385 . S
C3240 C3238 1.478 . S
C3240 C3242 1.381 . S
C3240 C3246 1.383 . S
C3241 C3237 1.495 . S
C3241 H3247 0.959 . S
C3241 H3248 0.961 . S
C3241 H3249 0.960 . S
C3242 C3240 1.381 . S
C3242 C3243 1.394 . S
C3242 H3250 0.930 . S
C3243 C3242 1.394 . S
C3243 C3244 1.383 . S
C3243 H3251 0.929 . S
C3244 C3243 1.383 . S
C3244 C3245 1.377 . S
C3245 H3229 0.930 . S
C3245 C3244 1.377 . S
C3245 C3246 1.379 . S
C3246 H3230 0.931 . S
C3246 C3240 1.383 . S
C3246 C3245 1.379 . S
H3247 C3241 0.959 . S
H3248 C3241 0.961 . S
H3249 C3241 0.960 . S
H3250 C3242 0.930 . S
H3251 C3243 0.929 . S
H3252 C3260 0.929 . S
H3253 C3262 0.930 . S
H3254 C3264 0.930 . S
H3255 C3267 0.929 . S
H3256 C3270 0.930 . S
H3257 C3272 0.960 . S
H3258 C3272 0.960 . S
H3259 C3272 0.960 . S
C3260 H3252 0.929 . S
C3260 C3261 1.377 . S
C3260 C3262 1.384 . S
C3261 C3260 1.377 . S
C3261 C3267 1.390 . S
C3262 H3253 0.930 . S
C3262 C3260 1.384 . S
C3262 C3263 1.372 . S
C3263 C3262 1.372 . S
C3263 C3264 1.400 . S
C3263 C3268 1.490 . S
C3264 H3254 0.930 . S
C3264 C3263 1.400 . S
C3264 C3267 1.386 . S
H3265 C3281 0.930 . S
H3266 C3282 0.931 . S
C3267 H3255 0.929 . S
C3267 C3261 1.390 . S
C3267 C3264 1.386 . S
C3268 C3263 1.490 . S
C3268 C3270 1.395 . S
C3268 C3271 1.403 . S
H3269 C3275 0.930 . S
C3270 H3256 0.930 . S
C3270 C3268 1.395 . S
C3270 C3273 1.403 . S
C3271 C3268 1.403 . S
C3271 C3272 1.524 . S
C3271 C3275 1.400 . S
C3272 H3257 0.960 . S
C3272 H3258 0.960 . S
C3272 H3259 0.960 . S
C3272 C3271 1.524 . S
C3273 C3270 1.403 . S
C3273 C3274 1.392 . S
C3273 C3277 1.495 . S
C3274 C3273 1.392 . S
C3274 C3275 1.385 . S
C3274 C3276 1.478 . S
C3275 H3269 0.930 . S
C3275 C3271 1.400 . S
C3275 C3274 1.385 . S
C3276 C3274 1.478 . S
C3276 C3278 1.381 . S
C3276 C3282 1.383 . S
C3277 C3273 1.495 . S
C3277 H3283 0.959 . S
C3277 H3284 0.961 . S
C3277 H3285 0.960 . S
C3278 C3276 1.381 . S
C3278 C3279 1.394 . S
C3278 H3286 0.930 . S
C3279 C3278 1.394 . S
C3279 C3280 1.383 . S
C3279 H3287 0.929 . S
C3280 C3279 1.383 . S
C3280 C3281 1.377 . S
C3281 H3265 0.930 . S
C3281 C3280 1.377 . S
C3281 C3282 1.379 . S
C3282 H3266 0.931 . S
C3282 C3276 1.383 . S
C3282 C3281 1.379 . S
H3283 C3277 0.959 . S
H3284 C3277 0.961 . S
H3285 C3277 0.960 . S
H3286 C3278 0.930 . S
H3287 C3279 0.929 . S
H3288 C3296 0.929 . S
H3289 C3298 0.930 . S
H3290 C3300 0.930 . S
H3291 C3303 0.929 . S
H3292 C3306 0.930 . S
H3293 C3308 0.960 . S
H3294 C3308 0.960 . S
H3295 C3308 0.960 . S
C3296 H3288 0.929 . S
C3296 C3297 1.377 . S
C3296 C3298 1.384 . S
C3297 C3296 1.377 . S
C3297 C3303 1.390 . S
C3298 H3289 0.930 . S
C3298 C3296 1.384 . S
C3298 C3299 1.372 . S
C3299 C3298 1.372 . S
C3299 C3300 1.400 . S
C3299 C3304 1.490 . S
C3300 H3290 0.930 . S
C3300 C3299 1.400 . S
C3300 C3303 1.386 . S
H3301 C3317 0.930 . S
H3302 C3318 0.931 . S
C3303 H3291 0.929 . S
C3303 C3297 1.390 . S
C3303 C3300 1.386 . S
C3304 C3299 1.490 . S
C3304 C3306 1.395 . S
C3304 C3307 1.403 . S
H3305 C3311 0.930 . S
C3306 H3292 0.930 . S
C3306 C3304 1.395 . S
C3306 C3309 1.403 . S
C3307 C3304 1.403 . S
C3307 C3308 1.524 . S
C3307 C3311 1.400 . S
C3308 H3293 0.960 . S
C3308 H3294 0.960 . S
C3308 H3295 0.960 . S
C3308 C3307 1.524 . S
C3309 C3306 1.403 . S
C3309 C3310 1.392 . S
C3309 C3313 1.495 . S
C3310 C3309 1.392 . S
C3310 C3311 1.385 . S
C3310 C3312 1.478 . S
C3311 H3305 0.930 . S
C3311 C3307 1.400 . S
C3311 C3310 1.385 . S
C3312 C3310 1.478 . S
C3312 C3314 1.381 . S
C3312 C3318 1.383 . S
C3313 C3309 1.495 . S
C3313 H3319 0.959 . S
C3313 H3320 0.961 . S
C3313 H3321 0.960 . S
C3314 C3312 1.381 . S
C3314 C3315 1.394 . S
C3314 H3322 0.930 . S
C3315 C3314 1.394 . S
C3315 C3316 1.383 . S
C3315 H3323 0.929 . S
C3316 C3315 1.383 . S
C3316 C3317 1.377 . S
C3317 H3301 0.930 . S
C3317 C3316 1.377 . S
C3317 C3318 1.379 . S
C3318 H3302 0.931 . S
C3318 C3312 1.383 . S
C3318 C3317 1.379 . S
H3319 C3313 0.959 . S
H3320 C3313 0.961 . S
H3321 C3313 0.960 . S
H3322 C3314 0.930 . S
H3323 C3315 0.929 . S
H3324 C3332 0.929 . S
H3325 C3334 0.930 . S
H3326 C3336 0.930 . S
H3327 C3339 0.929 . S
H3328 C3342 0.930 . S
H3329 C3344 0.960 . S
H3330 C3344 0.960 . S
H3331 C3344 0.960 . S
C3332 H3324 0.929 . S
C3332 C3333 1.377 . S
C3332 C3334 1.384 . S
C3333 C3332 1.377 . S
C3333 C3339 1.390 . S
C3334 H3325 0.930 . S
C3334 C3332 1.384 . S
C3334 C3335 1.372 . S
C3335 C3334 1.372 . S
C3335 C3336 1.400 . S
C3335 C3340 1.490 . S
C3336 H3326 0.930 . S
C3336 C3335 1.400 . S
C3336 C3339 1.386 . S
H3337 C3353 0.930 . S
H3338 C3354 0.931 . S
C3339 H3327 0.929 . S
C3339 C3333 1.390 . S
C3339 C3336 1.386 . S
C3340 C3335 1.490 . S
C3340 C3342 1.395 . S
C3340 C3343 1.403 . S
H3341 C3347 0.930 . S
C3342 H3328 0.930 . S
C3342 C3340 1.395 . S
C3342 C3345 1.403 . S
C3343 C3340 1.403 . S
C3343 C3344 1.524 . S
C3343 C3347 1.400 . S
C3344 H3329 0.960 . S
C3344 H3330 0.960 . S
C3344 H3331 0.960 . S
C3344 C3343 1.524 . S
C3345 C3342 1.403 . S
C3345 C3346 1.392 . S
C3345 C3349 1.495 . S
C3346 C3345 1.392 . S
C3346 C3347 1.385 . S
C3346 C3348 1.478 . S
C3347 H3341 0.930 . S
C3347 C3343 1.400 . S
C3347 C3346 1.385 . S
C3348 C3346 1.478 . S
C3348 C3350 1.381 . S
C3348 C3354 1.383 . S
C3349 C3345 1.495 . S
C3349 H3355 0.959 . S
C3349 H3356 0.961 . S
C3349 H3357 0.960 . S
C3350 C3348 1.381 . S
C3350 C3351 1.394 . S
C3350 H3358 0.930 . S
C3351 C3350 1.394 . S
C3351 C3352 1.383 . S
C3351 H3359 0.929 . S
C3352 C3351 1.383 . S
C3352 C3353 1.377 . S
C3353 H3337 0.930 . S
C3353 C3352 1.377 . S
C3353 C3354 1.379 . S
C3354 H3338 0.931 . S
C3354 C3348 1.383 . S
C3354 C3353 1.379 . S
H3355 C3349 0.959 . S
H3356 C3349 0.961 . S
H3357 C3349 0.960 . S
H3358 C3350 0.930 . S
H3359 C3351 0.929 . S
H3360 C3368 0.929 . S
H3361 C3370 0.930 . S
H3362 C3372 0.930 . S
H3363 C3375 0.929 . S
H3364 C3378 0.930 . S
H3365 C3380 0.960 . S
H3366 C3380 0.960 . S
H3367 C3380 0.960 . S
C3368 H3360 0.929 . S
C3368 C3369 1.377 . S
C3368 C3370 1.384 . S
C3369 C3368 1.377 . S
C3369 C3375 1.390 . S
C3370 H3361 0.930 . S
C3370 C3368 1.384 . S
C3370 C3371 1.372 . S
C3371 C3370 1.372 . S
C3371 C3372 1.400 . S
C3371 C3376 1.490 . S
C3372 H3362 0.930 . S
C3372 C3371 1.400 . S
C3372 C3375 1.386 . S
H3373 C3389 0.930 . S
H3374 C3390 0.931 . S
C3375 H3363 0.929 . S
C3375 C3369 1.390 . S
C3375 C3372 1.386 . S
C3376 C3371 1.490 . S
C3376 C3378 1.395 . S
C3376 C3379 1.403 . S
H3377 C3383 0.930 . S
C3378 H3364 0.930 . S
C3378 C3376 1.395 . S
C3378 C3381 1.403 . S
C3379 C3376 1.403 . S
C3379 C3380 1.524 . S
C3379 C3383 1.400 . S
C3380 H3365 0.960 . S
C3380 H3366 0.960 . S
C3380 H3367 0.960 . S
C3380 C3379 1.524 . S
C3381 C3378 1.403 . S
C3381 C3382 1.392 . S
C3381 C3385 1.495 . S
C3382 C3381 1.392 . S
C3382 C3383 1.385 . S
C3382 C3384 1.478 . S
C3383 H3377 0.930 . S
C3383 C3379 1.400 . S
C3383 C3382 1.385 . S
C3384 C3382 1.478 . S
C3384 C3386 1.381 . S
C3384 C3390 1.383 . S
C3385 C3381 1.495 . S
C3385 H3391 0.959 . S
C3385 H3392 0.961 . S
C3385 H3393 0.960 . S
C3386 C3384 1.381 . S
C3386 C3387 1.394 . S
C3386 H3394 0.930 . S
C3387 C3386 1.394 . S
C3387 C3388 1.383 . S
C3387 H3395 0.929 . S
C3388 C3387 1.383 . S
C3388 C3389 1.377 . S
C3389 H3373 0.930 . S
C3389 C3388 1.377 . S
C3389 C3390 1.379 . S
C3390 H3374 0.931 . S
C3390 C3384 1.383 . S
C3390 C3389 1.379 . S
H3391 C3385 0.959 . S
H3392 C3385 0.961 . S
H3393 C3385 0.960 . S
H3394 C3386 0.930 . S
H3395 C3387 0.929 . S
H3396 C3404 0.929 . S
H3397 C3406 0.930 . S
H3398 C3408 0.930 . S
H3399 C3411 0.929 . S
H3400 C3414 0.930 . S
H3401 C3416 0.960 . S
H3402 C3416 0.960 . S
H3403 C3416 0.960 . S
C3404 H3396 0.929 . S
C3404 C3405 1.377 . S
C3404 C3406 1.384 . S
C3405 C3404 1.377 . S
C3405 C3411 1.390 . S
C3406 H3397 0.930 . S
C3406 C3404 1.384 . S
C3406 C3407 1.372 . S
C3407 C3406 1.372 . S
C3407 C3408 1.400 . S
C3407 C3412 1.490 . S
C3408 H3398 0.930 . S
C3408 C3407 1.400 . S
C3408 C3411 1.386 . S
H3409 C3425 0.930 . S
H3410 C3426 0.931 . S
C3411 H3399 0.929 . S
C3411 C3405 1.390 . S
C3411 C3408 1.386 . S
C3412 C3407 1.490 . S
C3412 C3414 1.395 . S
C3412 C3415 1.403 . S
H3413 C3419 0.930 . S
C3414 H3400 0.930 . S
C3414 C3412 1.395 . S
C3414 C3417 1.403 . S
C3415 C3412 1.403 . S
C3415 C3416 1.524 . S
C3415 C3419 1.400 . S
C3416 H3401 0.960 . S
C3416 H3402 0.960 . S
C3416 H3403 0.960 . S
C3416 C3415 1.524 . S
C3417 C3414 1.403 . S
C3417 C3418 1.392 . S
C3417 C3421 1.495 . S
C3418 C3417 1.392 . S
C3418 C3419 1.385 . S
C3418 C3420 1.478 . S
C3419 H3413 0.930 . S
C3419 C3415 1.400 . S
C3419 C3418 1.385 . S
C3420 C3418 1.478 . S
C3420 C3422 1.381 . S
C3420 C3426 1.383 . S
C3421 C3417 1.495 . S
C3421 H3427 0.959 . S
C3421 H3428 0.961 . S
C3421 H3429 0.960 . S
C3422 C3420 1.381 . S
C3422 C3423 1.394 . S
C3422 H3430 0.930 . S
C3423 C3422 1.394 . S
C3423 C3424 1.383 . S
C3423 H3431 0.929 . S
C3424 C3423 1.383 . S
C3424 C3425 1.377 . S
C3425 H3409 0.930 . S
C3425 C3424 1.377 . S
C3425 C3426 1.379 . S
C3426 H3410 0.931 . S
C3426 C3420 1.383 . S
C3426 C3425 1.379 . S
H3427 C3421 0.959 . S
H3428 C3421 0.961 . S
H3429 C3421 0.960 . S
H3430 C3422 0.930 . S
H3431 C3423 0.929 . S
H3432 C3440 0.929 . S
H3433 C3442 0.930 . S
H3434 C3444 0.930 . S
H3435 C3447 0.929 . S
H3436 C3450 0.930 . S
H3437 C3452 0.960 . S
H3438 C3452 0.960 . S
H3439 C3452 0.960 . S
C3440 H3432 0.929 . S
C3440 C3441 1.377 . S
C3440 C3442 1.384 . S
C3441 C3440 1.377 . S
C3441 C3447 1.390 . S
C3442 H3433 0.930 . S
C3442 C3440 1.384 . S
C3442 C3443 1.372 . S
C3443 C3442 1.372 . S
C3443 C3444 1.400 . S
C3443 C3448 1.490 . S
C3444 H3434 0.930 . S
C3444 C3443 1.400 . S
C3444 C3447 1.386 . S
H3445 C3461 0.930 . S
H3446 C3462 0.931 . S
C3447 H3435 0.929 . S
C3447 C3441 1.390 . S
C3447 C3444 1.386 . S
C3448 C3443 1.490 . S
C3448 C3450 1.395 . S
C3448 C3451 1.403 . S
H3449 C3455 0.930 . S
C3450 H3436 0.930 . S
C3450 C3448 1.395 . S
C3450 C3453 1.403 . S
C3451 C3448 1.403 . S
C3451 C3452 1.524 . S
C3451 C3455 1.400 . S
C3452 H3437 0.960 . S
C3452 H3438 0.960 . S
C3452 H3439 0.960 . S
C3452 C3451 1.524 . S
C3453 C3450 1.403 . S
C3453 C3454 1.392 . S
C3453 C3457 1.495 . S
C3454 C3453 1.392 . S
C3454 C3455 1.385 . S
C3454 C3456 1.478 . S
C3455 H3449 0.930 . S
C3455 C3451 1.400 . S
C3455 C3454 1.385 . S
C3456 C3454 1.478 . S
C3456 C3458 1.381 . S
C3456 C3462 1.383 . S
C3457 C3453 1.495 . S
C3457 H3463 0.959 . S
C3457 H3464 0.961 . S
C3457 H3465 0.960 . S
C3458 C3456 1.381 . S
C3458 C3459 1.394 . S
C3458 H3466 0.930 . S
C3459 C3458 1.394 . S
C3459 C3460 1.383 . S
C3459 H3467 0.929 . S
C3460 C3459 1.383 . S
C3460 C3461 1.377 . S
C3461 H3445 0.930 . S
C3461 C3460 1.377 . S
C3461 C3462 1.379 . S
C3462 H3446 0.931 . S
C3462 C3456 1.383 . S
C3462 C3461 1.379 . S
H3463 C3457 0.959 . S
H3464 C3457 0.961 . S
H3465 C3457 0.960 . S
H3466 C3458 0.930 . S
H3467 C3459 0.929 . S
H3468 C3476 0.929 . S
H3469 C3478 0.930 . S
H3470 C3480 0.930 . S
H3471 C3483 0.929 . S
H3472 C3486 0.930 . S
H3473 C3488 0.960 . S
H3474 C3488 0.960 . S
H3475 C3488 0.960 . S
C3476 H3468 0.929 . S
C3476 C3477 1.377 . S
C3476 C3478 1.384 . S
C3477 C3476 1.377 . S
C3477 C3483 1.390 . S
C3478 H3469 0.930 . S
C3478 C3476 1.384 . S
C3478 C3479 1.372 . S
C3479 C3478 1.372 . S
C3479 C3480 1.400 . S
C3479 C3484 1.490 . S
C3480 H3470 0.930 . S
C3480 C3479 1.400 . S
C3480 C3483 1.386 . S
H3481 C3497 0.930 . S
H3482 C3498 0.931 . S
C3483 H3471 0.929 . S
C3483 C3477 1.390 . S
C3483 C3480 1.386 . S
C3484 C3479 1.490 . S
C3484 C3486 1.395 . S
C3484 C3487 1.403 . S
H3485 C3491 0.930 . S
C3486 H3472 0.930 . S
C3486 C3484 1.395 . S
C3486 C3489 1.403 . S
C3487 C3484 1.403 . S
C3487 C3488 1.524 . S
C3487 C3491 1.400 . S
C3488 H3473 0.960 . S
C3488 H3474 0.960 . S
C3488 H3475 0.960 . S
C3488 C3487 1.524 . S
C3489 C3486 1.403 . S
C3489 C3490 1.392 . S
C3489 C3493 1.495 . S
C3490 C3489 1.392 . S
C3490 C3491 1.385 . S
C3490 C3492 1.478 . S
C3491 H3485 0.930 . S
C3491 C3487 1.400 . S
C3491 C3490 1.385 . S
C3492 C3490 1.478 . S
C3492 C3494 1.381 . S
C3492 C3498 1.383 . S
C3493 C3489 1.495 . S
C3493 H3499 0.959 . S
C3493 H3500 0.961 . S
C3493 H3501 0.960 . S
C3494 C3492 1.381 . S
C3494 C3495 1.394 . S
C3494 H3502 0.930 . S
C3495 C3494 1.394 . S
C3495 C3496 1.383 . S
C3495 H3503 0.929 . S
C3496 C3495 1.383 . S
C3496 C3497 1.377 . S
C3497 H3481 0.930 . S
C3497 C3496 1.377 . S
C3497 C3498 1.379 . S
C3498 H3482 0.931 . S
C3498 C3492 1.383 . S
C3498 C3497 1.379 . S
H3499 C3493 0.959 . S
H3500 C3493 0.961 . S
H3501 C3493 0.960 . S
H3502 C3494 0.930 . S
H3503 C3495 0.929 . S
H3504 C3512 0.929 . S
H3505 C3514 0.930 . S
H3506 C3516 0.930 . S
H3507 C3519 0.929 . S
H3508 C3522 0.930 . S
H3509 C3524 0.960 . S
H3510 C3524 0.960 . S
H3511 C3524 0.960 . S
C3512 H3504 0.929 . S
C3512 C3513 1.377 . S
C3512 C3514 1.384 . S
C3513 C3512 1.377 . S
C3513 C3519 1.390 . S
C3514 H3505 0.930 . S
C3514 C3512 1.384 . S
C3514 C3515 1.372 . S
C3515 C3514 1.372 . S
C3515 C3516 1.400 . S
C3515 C3520 1.490 . S
C3516 H3506 0.930 . S
C3516 C3515 1.400 . S
C3516 C3519 1.386 . S
H3517 C3533 0.930 . S
H3518 C3534 0.931 . S
C3519 H3507 0.929 . S
C3519 C3513 1.390 . S
C3519 C3516 1.386 . S
C3520 C3515 1.490 . S
C3520 C3522 1.395 . S
C3520 C3523 1.403 . S
H3521 C3527 0.930 . S
C3522 H3508 0.930 . S
C3522 C3520 1.395 . S
C3522 C3525 1.403 . S
C3523 C3520 1.403 . S
C3523 C3524 1.524 . S
C3523 C3527 1.400 . S
C3524 H3509 0.960 . S
C3524 H3510 0.960 . S
C3524 H3511 0.960 . S
C3524 C3523 1.524 . S
C3525 C3522 1.403 . S
C3525 C3526 1.392 . S
C3525 C3529 1.495 . S
C3526 C3525 1.392 . S
C3526 C3527 1.385 . S
C3526 C3528 1.478 . S
C3527 H3521 0.930 . S
C3527 C3523 1.400 . S
C3527 C3526 1.385 . S
C3528 C3526 1.478 . S
C3528 C3530 1.381 . S
C3528 C3534 1.383 . S
C3529 C3525 1.495 . S
C3529 H3535 0.959 . S
C3529 H3536 0.961 . S
C3529 H3537 0.960 . S
C3530 C3528 1.381 . S
C3530 C3531 1.394 . S
C3530 H3538 0.930 . S
C3531 C3530 1.394 . S
C3531 C3532 1.383 . S
C3531 H3539 0.929 . S
C3532 C3531 1.383 . S
C3532 C3533 1.377 . S
C3533 H3517 0.930 . S
C3533 C3532 1.377 . S
C3533 C3534 1.379 . S
C3534 H3518 0.931 . S
C3534 C3528 1.383 . S
C3534 C3533 1.379 . S
H3535 C3529 0.959 . S
H3536 C3529 0.961 . S
H3537 C3529 0.960 . S
H3538 C3530 0.930 . S
H3539 C3531 0.929 . S
H3540 C3548 0.929 . S
H3541 C3550 0.930 . S
H3542 C3552 0.930 . S
H3543 C3555 0.929 . S
H3544 C3558 0.930 . S
H3545 C3560 0.960 . S
H3546 C3560 0.960 . S
H3547 C3560 0.960 . S
C3548 H3540 0.929 . S
C3548 C3549 1.377 . S
C3548 C3550 1.384 . S
C3549 C3548 1.377 . S
C3549 C3555 1.390 . S
C3550 H3541 0.930 . S
C3550 C3548 1.384 . S
C3550 C3551 1.372 . S
C3551 C3550 1.372 . S
C3551 C3552 1.400 . S
C3551 C3556 1.490 . S
C3552 H3542 0.930 . S
C3552 C3551 1.400 . S
C3552 C3555 1.386 . S
H3553 C3569 0.930 . S
H3554 C3570 0.931 . S
C3555 H3543 0.929 . S
C3555 C3549 1.390 . S
C3555 C3552 1.386 . S
C3556 C3551 1.490 . S
C3556 C3558 1.395 . S
C3556 C3559 1.403 . S
H3557 C3563 0.930 . S
C3558 H3544 0.930 . S
C3558 C3556 1.395 . S
C3558 C3561 1.403 . S
C3559 C3556 1.403 . S
C3559 C3560 1.524 . S
C3559 C3563 1.400 . S
C3560 H3545 0.960 . S
C3560 H3546 0.960 . S
C3560 H3547 0.960 . S
C3560 C3559 1.524 . S
C3561 C3558 1.403 . S
C3561 C3562 1.392 . S
C3561 C3565 1.495 . S
C3562 C3561 1.392 . S
C3562 C3563 1.385 . S
C3562 C3564 1.478 . S
C3563 H3557 0.930 . S
C3563 C3559 1.400 . S
C3563 C3562 1.385 . S
C3564 C3562 1.478 . S
C3564 C3566 1.381 . S
C3564 C3570 1.383 . S
C3565 C3561 1.495 . S
C3565 H3571 0.959 . S
C3565 H3572 0.961 . S
C3565 H3573 0.960 . S
C3566 C3564 1.381 . S
C3566 C3567 1.394 . S
C3566 H3574 0.930 . S
C3567 C3566 1.394 . S
C3567 C3568 1.383 . S
C3567 H3575 0.929 . S
C3568 C3567 1.383 . S
C3568 C3569 1.377 . S
C3569 H3553 0.930 . S
C3569 C3568 1.377 . S
C3569 C3570 1.379 . S
C3570 H3554 0.931 . S
C3570 C3564 1.383 . S
C3570 C3569 1.379 . S
H3571 C3565 0.959 . S
H3572 C3565 0.961 . S
H3573 C3565 0.960 . S
H3574 C3566 0.930 . S
H3575 C3567 0.929 . S
H3576 C3584 0.929 . S
H3577 C3586 0.930 . S
H3578 C3588 0.930 . S
H3579 C3591 0.929 . S
H3580 C3594 0.930 . S
H3581 C3596 0.960 . S
H3582 C3596 0.960 . S
H3583 C3596 0.960 . S
C3584 H3576 0.929 . S
C3584 C3585 1.377 . S
C3584 C3586 1.384 . S
C3585 C3584 1.377 . S
C3585 C3591 1.390 . S
C3586 H3577 0.930 . S
C3586 C3584 1.384 . S
C3586 C3587 1.372 . S
C3587 C3586 1.372 . S
C3587 C3588 1.400 . S
C3587 C3592 1.490 . S
C3588 H3578 0.930 . S
C3588 C3587 1.400 . S
C3588 C3591 1.386 . S
H3589 C3605 0.930 . S
H3590 C3606 0.931 . S
C3591 H3579 0.929 . S
C3591 C3585 1.390 . S
C3591 C3588 1.386 . S
C3592 C3587 1.490 . S
C3592 C3594 1.395 . S
C3592 C3595 1.403 . S
H3593 C3599 0.930 . S
C3594 H3580 0.930 . S
C3594 C3592 1.395 . S
C3594 C3597 1.403 . S
C3595 C3592 1.403 . S
C3595 C3596 1.524 . S
C3595 C3599 1.400 . S
C3596 H3581 0.960 . S
C3596 H3582 0.960 . S
C3596 H3583 0.960 . S
C3596 C3595 1.524 . S
C3597 C3594 1.403 . S
C3597 C3598 1.392 . S
C3597 C3601 1.495 . S
C3598 C3597 1.392 . S
C3598 C3599 1.385 . S
C3598 C3600 1.478 . S
C3599 H3593 0.930 . S
C3599 C3595 1.400 . S
C3599 C3598 1.385 . S
C3600 C3598 1.478 . S
C3600 C3602 1.381 . S
C3600 C3606 1.383 . S
C3601 C3597 1.495 . S
C3601 H3607 0.959 . S
C3601 H3608 0.961 . S
C3601 H3609 0.960 . S
C3602 C3600 1.381 . S
C3602 C3603 1.394 . S
C3602 H3610 0.930 . S
C3603 C3602 1.394 . S
C3603 C3604 1.383 . S
C3603 H3611 0.929 . S
C3604 C3603 1.383 . S
C3604 C3605 1.377 . S
C3605 H3589 0.930 . S
C3605 C3604 1.377 . S
C3605 C3606 1.379 . S
C3606 H3590 0.931 . S
C3606 C3600 1.383 . S
C3606 C3605 1.379 . S
H3607 C3601 0.959 . S
H3608 C3601 0.961 . S
H3609 C3601 0.960 . S
H3610 C3602 0.930 . S
H3611 C3603 0.929 . S
H3612 C3620 0.929 . S
H3613 C3622 0.930 . S
H3614 C3624 0.930 . S
H3615 C3627 0.929 . S
H3616 C3630 0.930 . S
H3617 C3632 0.960 . S
H3618 C3632 0.960 . S
H3619 C3632 0.960 . S
C3620 H3612 0.929 . S
C3620 C3621 1.377 . S
C3620 C3622 1.384 . S
C3621 C3620 1.377 . S
C3621 C3627 1.390 . S
C3622 H3613 0.930 . S
C3622 C3620 1.384 . S
C3622 C3623 1.372 . S
C3623 C3622 1.372 . S
C3623 C3624 1.400 . S
C3623 C3628 1.490 . S
C3624 H3614 0.930 . S
C3624 C3623 1.400 . S
C3624 C3627 1.386 . S
H3625 C3641 0.930 . S
H3626 C3642 0.931 . S
C3627 H3615 0.929 . S
C3627 C3621 1.390 . S
C3627 C3624 1.386 . S
C3628 C3623 1.490 . S
C3628 C3630 1.395 . S
C3628 C3631 1.403 . S
H3629 C3635 0.930 . S
C3630 H3616 0.930 . S
C3630 C3628 1.395 . S
C3630 C3633 1.403 . S
C3631 C3628 1.403 . S
C3631 C3632 1.524 . S
C3631 C3635 1.400 . S
C3632 H3617 0.960 . S
C3632 H3618 0.960 . S
C3632 H3619 0.960 . S
C3632 C3631 1.524 . S
C3633 C3630 1.403 . S
C3633 C3634 1.392 . S
C3633 C3637 1.495 . S
C3634 C3633 1.392 . S
C3634 C3635 1.385 . S
C3634 C3636 1.478 . S
C3635 H3629 0.930 . S
C3635 C3631 1.400 . S
C3635 C3634 1.385 . S
C3636 C3634 1.478 . S
C3636 C3638 1.381 . S
C3636 C3642 1.383 . S
C3637 C3633 1.495 . S
C3637 H3643 0.959 . S
C3637 H3644 0.961 . S
C3637 H3645 0.960 . S
C3638 C3636 1.381 . S
C3638 C3639 1.394 . S
C3638 H3646 0.930 . S
C3639 C3638 1.394 . S
C3639 C3640 1.383 . S
C3639 H3647 0.929 . S
C3640 C3639 1.383 . S
C3640 C3641 1.377 . S
C3641 H3625 0.930 . S
C3641 C3640 1.377 . S
C3641 C3642 1.379 . S
C3642 H3626 0.931 . S
C3642 C3636 1.383 . S
C3642 C3641 1.379 . S
H3643 C3637 0.959 . S
H3644 C3637 0.961 . S
H3645 C3637 0.960 . S
H3646 C3638 0.930 . S
H3647 C3639 0.929 . S
H3648 C3656 0.929 . S
H3649 C3658 0.930 . S
H3650 C3660 0.930 . S
H3651 C3663 0.929 . S
H3652 C3666 0.930 . S
H3653 C3668 0.960 . S
H3654 C3668 0.960 . S
H3655 C3668 0.960 . S
C3656 H3648 0.929 . S
C3656 C3657 1.377 . S
C3656 C3658 1.384 . S
C3657 C3656 1.377 . S
C3657 C3663 1.390 . S
C3658 H3649 0.930 . S
C3658 C3656 1.384 . S
C3658 C3659 1.372 . S
C3659 C3658 1.372 . S
C3659 C3660 1.400 . S
C3659 C3664 1.490 . S
C3660 H3650 0.930 . S
C3660 C3659 1.400 . S
C3660 C3663 1.386 . S
H3661 C3677 0.930 . S
H3662 C3678 0.931 . S
C3663 H3651 0.929 . S
C3663 C3657 1.390 . S
C3663 C3660 1.386 . S
C3664 C3659 1.490 . S
C3664 C3666 1.395 . S
C3664 C3667 1.403 . S
H3665 C3671 0.930 . S
C3666 H3652 0.930 . S
C3666 C3664 1.395 . S
C3666 C3669 1.403 . S
C3667 C3664 1.403 . S
C3667 C3668 1.524 . S
C3667 C3671 1.400 . S
C3668 H3653 0.960 . S
C3668 H3654 0.960 . S
C3668 H3655 0.960 . S
C3668 C3667 1.524 . S
C3669 C3666 1.403 . S
C3669 C3670 1.392 . S
C3669 C3673 1.495 . S
C3670 C3669 1.392 . S
C3670 C3671 1.385 . S
C3670 C3672 1.478 . S
C3671 H3665 0.930 . S
C3671 C3667 1.400 . S
C3671 C3670 1.385 . S
C3672 C3670 1.478 . S
C3672 C3674 1.381 . S
C3672 C3678 1.383 . S
C3673 C3669 1.495 . S
C3673 H3679 0.959 . S
C3673 H3680 0.961 . S
C3673 H3681 0.960 . S
C3674 C3672 1.381 . S
C3674 C3675 1.394 . S
C3674 H3682 0.930 . S
C3675 C3674 1.394 . S
C3675 C3676 1.383 . S
C3675 H3683 0.929 . S
C3676 C3675 1.383 . S
C3676 C3677 1.377 . S
C3677 H3661 0.930 . S
C3677 C3676 1.377 . S
C3677 C3678 1.379 . S
C3678 H3662 0.931 . S
C3678 C3672 1.383 . S
C3678 C3677 1.379 . S
H3679 C3673 0.959 . S
H3680 C3673 0.961 . S
H3681 C3673 0.960 . S
H3682 C3674 0.930 . S
H3683 C3675 0.929 . S
H3684 C3692 0.929 . S
H3685 C3694 0.930 . S
H3686 C3696 0.930 . S
H3687 C3699 0.929 . S
H3688 C3702 0.930 . S
H3689 C3704 0.960 . S
H3690 C3704 0.960 . S
H3691 C3704 0.960 . S
C3692 H3684 0.929 . S
C3692 C3693 1.377 . S
C3692 C3694 1.384 . S
C3693 C3692 1.377 . S
C3693 C3699 1.390 . S
C3694 H3685 0.930 . S
C3694 C3692 1.384 . S
C3694 C3695 1.372 . S
C3695 C3694 1.372 . S
C3695 C3696 1.400 . S
C3695 C3700 1.490 . S
C3696 H3686 0.930 . S
C3696 C3695 1.400 . S
C3696 C3699 1.386 . S
H3697 C3713 0.930 . S
H3698 C3714 0.931 . S
C3699 H3687 0.929 . S
C3699 C3693 1.390 . S
C3699 C3696 1.386 . S
C3700 C3695 1.490 . S
C3700 C3702 1.395 . S
C3700 C3703 1.403 . S
H3701 C3707 0.930 . S
C3702 H3688 0.930 . S
C3702 C3700 1.395 . S
C3702 C3705 1.403 . S
C3703 C3700 1.403 . S
C3703 C3704 1.524 . S
C3703 C3707 1.400 . S
C3704 H3689 0.960 . S
C3704 H3690 0.960 . S
C3704 H3691 0.960 . S
C3704 C3703 1.524 . S
C3705 C3702 1.403 . S
C3705 C3706 1.392 . S
C3705 C3709 1.495 . S
C3706 C3705 1.392 . S
C3706 C3707 1.385 . S
C3706 C3708 1.478 . S
C3707 H3701 0.930 . S
C3707 C3703 1.400 . S
C3707 C3706 1.385 . S
C3708 C3706 1.478 . S
C3708 C3710 1.381 . S
C3708 C3714 1.383 . S
C3709 C3705 1.495 . S
C3709 H3715 0.959 . S
C3709 H3716 0.961 . S
C3709 H3717 0.960 . S
C3710 C3708 1.381 . S
C3710 C3711 1.394 . S
C3710 H3718 0.930 . S
C3711 C3710 1.394 . S
C3711 C3712 1.383 . S
C3711 H3719 0.929 . S
C3712 C3711 1.383 . S
C3712 C3713 1.377 . S
C3713 H3697 0.930 . S
C3713 C3712 1.377 . S
C3713 C3714 1.379 . S
C3714 H3698 0.931 . S
C3714 C3708 1.383 . S
C3714 C3713 1.379 . S
H3715 C3709 0.959 . S
H3716 C3709 0.961 . S
H3717 C3709 0.960 . S
H3718 C3710 0.930 . S
H3719 C3711 0.929 . S
H3720 C3728 0.929 . S
H3721 C3730 0.930 . S
H3722 C3732 0.930 . S
H3723 C3735 0.929 . S
H3724 C3738 0.930 . S
H3725 C3740 0.960 . S
H3726 C3740 0.960 . S
H3727 C3740 0.960 . S
C3728 H3720 0.929 . S
C3728 C3729 1.377 . S
C3728 C3730 1.384 . S
C3729 C3728 1.377 . S
C3729 C3735 1.390 . S
C3730 H3721 0.930 . S
C3730 C3728 1.384 . S
C3730 C3731 1.372 . S
C3731 C3730 1.372 . S
C3731 C3732 1.400 . S
C3731 C3736 1.490 . S
C3732 H3722 0.930 . S
C3732 C3731 1.400 . S
C3732 C3735 1.386 . S
H3733 C3749 0.930 . S
H3734 C3750 0.931 . S
C3735 H3723 0.929 . S
C3735 C3729 1.390 . S
C3735 C3732 1.386 . S
C3736 C3731 1.490 . S
C3736 C3738 1.395 . S
C3736 C3739 1.403 . S
H3737 C3743 0.930 . S
C3738 H3724 0.930 . S
C3738 C3736 1.395 . S
C3738 C3741 1.403 . S
C3739 C3736 1.403 . S
C3739 C3740 1.524 . S
C3739 C3743 1.400 . S
C3740 H3725 0.960 . S
C3740 H3726 0.960 . S
C3740 H3727 0.960 . S
C3740 C3739 1.524 . S
C3741 C3738 1.403 . S
C3741 C3742 1.392 . S
C3741 C3745 1.495 . S
C3742 C3741 1.392 . S
C3742 C3743 1.385 . S
C3742 C3744 1.478 . S
C3743 H3737 0.930 . S
C3743 C3739 1.400 . S
C3743 C3742 1.385 . S
C3744 C3742 1.478 . S
C3744 C3746 1.381 . S
C3744 C3750 1.383 . S
C3745 C3741 1.495 . S
C3745 H3751 0.959 . S
C3745 H3752 0.961 . S
C3745 H3753 0.960 . S
C3746 C3744 1.381 . S
C3746 C3747 1.394 . S
C3746 H3754 0.930 . S
C3747 C3746 1.394 . S
C3747 C3748 1.383 . S
C3747 H3755 0.929 . S
C3748 C3747 1.383 . S
C3748 C3749 1.377 . S
C3749 H3733 0.930 . S
C3749 C3748 1.377 . S
C3749 C3750 1.379 . S
C3750 H3734 0.931 . S
C3750 C3744 1.383 . S
C3750 C3749 1.379 . S
H3751 C3745 0.959 . S
H3752 C3745 0.961 . S
H3753 C3745 0.960 . S
H3754 C3746 0.930 . S
H3755 C3747 0.929 . S
H3756 C3764 0.929 . S
H3757 C3766 0.930 . S
H3758 C3768 0.930 . S
H3759 C3771 0.929 . S
H3760 C3774 0.930 . S
H3761 C3776 0.960 . S
H3762 C3776 0.960 . S
H3763 C3776 0.960 . S
C3764 H3756 0.929 . S
C3764 C3765 1.377 . S
C3764 C3766 1.384 . S
C3765 C3764 1.377 . S
C3765 C3771 1.390 . S
C3766 H3757 0.930 . S
C3766 C3764 1.384 . S
C3766 C3767 1.372 . S
C3767 C3766 1.372 . S
C3767 C3768 1.400 . S
C3767 C3772 1.490 . S
C3768 H3758 0.930 . S
C3768 C3767 1.400 . S
C3768 C3771 1.386 . S
H3769 C3785 0.930 . S
H3770 C3786 0.931 . S
C3771 H3759 0.929 . S
C3771 C3765 1.390 . S
C3771 C3768 1.386 . S
C3772 C3767 1.490 . S
C3772 C3774 1.395 . S
C3772 C3775 1.403 . S
H3773 C3779 0.930 . S
C3774 H3760 0.930 . S
C3774 C3772 1.395 . S
C3774 C3777 1.403 . S
C3775 C3772 1.403 . S
C3775 C3776 1.524 . S
C3775 C3779 1.400 . S
C3776 H3761 0.960 . S
C3776 H3762 0.960 . S
C3776 H3763 0.960 . S
C3776 C3775 1.524 . S
C3777 C3774 1.403 . S
C3777 C3778 1.392 . S
C3777 C3781 1.495 . S
C3778 C3777 1.392 . S
C3778 C3779 1.385 . S
C3778 C3780 1.478 . S
C3779 H3773 0.930 . S
C3779 C3775 1.400 . S
C3779 C3778 1.385 . S
C3780 C3778 1.478 . S
C3780 C3782 1.381 . S
C3780 C3786 1.383 . S
C3781 C3777 1.495 . S
C3781 H3787 0.959 . S
C3781 H3788 0.961 . S
C3781 H3789 0.960 . S
C3782 C3780 1.381 . S
C3782 C3783 1.394 . S
C3782 H3790 0.930 . S
C3783 C3782 1.394 . S
C3783 C3784 1.383 . S
C3783 H3791 0.929 . S
C3784 C3783 1.383 . S
C3784 C3785 1.377 . S
C3785 H3769 0.930 . S
C3785 C3784 1.377 . S
C3785 C3786 1.379 . S
C3786 H3770 0.931 . S
C3786 C3780 1.383 . S
C3786 C3785 1.379 . S
H3787 C3781 0.959 . S
H3788 C3781 0.961 . S
H3789 C3781 0.960 . S
H3790 C3782 0.930 . S
H3791 C3783 0.929 . S
H3792 C3800 0.929 . S
H3793 C3802 0.930 . S
H3794 C3804 0.930 . S
H3795 C3807 0.929 . S
H3796 C3810 0.930 . S
H3797 C3812 0.960 . S
H3798 C3812 0.960 . S
H3799 C3812 0.960 . S
C3800 H3792 0.929 . S
C3800 C3801 1.377 . S
C3800 C3802 1.384 . S
C3801 C3800 1.377 . S
C3801 C3807 1.390 . S
C3802 H3793 0.930 . S
C3802 C3800 1.384 . S
C3802 C3803 1.372 . S
C3803 C3802 1.372 . S
C3803 C3804 1.400 . S
C3803 C3808 1.490 . S
C3804 H3794 0.930 . S
C3804 C3803 1.400 . S
C3804 C3807 1.386 . S
H3805 C3821 0.930 . S
H3806 C3822 0.931 . S
C3807 H3795 0.929 . S
C3807 C3801 1.390 . S
C3807 C3804 1.386 . S
C3808 C3803 1.490 . S
C3808 C3810 1.395 . S
C3808 C3811 1.403 . S
H3809 C3815 0.930 . S
C3810 H3796 0.930 . S
C3810 C3808 1.395 . S
C3810 C3813 1.403 . S
C3811 C3808 1.403 . S
C3811 C3812 1.524 . S
C3811 C3815 1.400 . S
C3812 H3797 0.960 . S
C3812 H3798 0.960 . S
C3812 H3799 0.960 . S
C3812 C3811 1.524 . S
C3813 C3810 1.403 . S
C3813 C3814 1.392 . S
C3813 C3817 1.495 . S
C3814 C3813 1.392 . S
C3814 C3815 1.385 . S
C3814 C3816 1.478 . S
C3815 H3809 0.930 . S
C3815 C3811 1.400 . S
C3815 C3814 1.385 . S
C3816 C3814 1.478 . S
C3816 C3818 1.381 . S
C3816 C3822 1.383 . S
C3817 C3813 1.495 . S
C3817 H3823 0.959 . S
C3817 H3824 0.961 . S
C3817 H3825 0.960 . S
C3818 C3816 1.381 . S
C3818 C3819 1.394 . S
C3818 H3826 0.930 . S
C3819 C3818 1.394 . S
C3819 C3820 1.383 . S
C3819 H3827 0.929 . S
C3820 C3819 1.383 . S
C3820 C3821 1.377 . S
C3821 H3805 0.930 . S
C3821 C3820 1.377 . S
C3821 C3822 1.379 . S
C3822 H3806 0.931 . S
C3822 C3816 1.383 . S
C3822 C3821 1.379 . S
H3823 C3817 0.959 . S
H3824 C3817 0.961 . S
H3825 C3817 0.960 . S
H3826 C3818 0.930 . S
H3827 C3819 0.929 . S
H3828 C3836 0.929 . S
H3829 C3838 0.930 . S
H3830 C3840 0.930 . S
H3831 C3843 0.929 . S
H3832 C3846 0.930 . S
H3833 C3848 0.960 . S
H3834 C3848 0.960 . S
H3835 C3848 0.960 . S
C3836 H3828 0.929 . S
C3836 C3837 1.377 . S
C3836 C3838 1.384 . S
C3837 C3836 1.377 . S
C3837 C3843 1.390 . S
C3838 H3829 0.930 . S
C3838 C3836 1.384 . S
C3838 C3839 1.372 . S
C3839 C3838 1.372 . S
C3839 C3840 1.400 . S
C3839 C3844 1.490 . S
C3840 H3830 0.930 . S
C3840 C3839 1.400 . S
C3840 C3843 1.386 . S
H3841 C3857 0.930 . S
H3842 C3858 0.931 . S
C3843 H3831 0.929 . S
C3843 C3837 1.390 . S
C3843 C3840 1.386 . S
C3844 C3839 1.490 . S
C3844 C3846 1.395 . S
C3844 C3847 1.403 . S
H3845 C3851 0.930 . S
C3846 H3832 0.930 . S
C3846 C3844 1.395 . S
C3846 C3849 1.403 . S
C3847 C3844 1.403 . S
C3847 C3848 1.524 . S
C3847 C3851 1.400 . S
C3848 H3833 0.960 . S
C3848 H3834 0.960 . S
C3848 H3835 0.960 . S
C3848 C3847 1.524 . S
C3849 C3846 1.403 . S
C3849 C3850 1.392 . S
C3849 C3853 1.495 . S
C3850 C3849 1.392 . S
C3850 C3851 1.385 . S
C3850 C3852 1.478 . S
C3851 H3845 0.930 . S
C3851 C3847 1.400 . S
C3851 C3850 1.385 . S
C3852 C3850 1.478 . S
C3852 C3854 1.381 . S
C3852 C3858 1.383 . S
C3853 C3849 1.495 . S
C3853 H3859 0.959 . S
C3853 H3860 0.961 . S
C3853 H3861 0.960 . S
C3854 C3852 1.381 . S
C3854 C3855 1.394 . S
C3854 H3862 0.930 . S
C3855 C3854 1.394 . S
C3855 C3856 1.383 . S
C3855 H3863 0.929 . S
C3856 C3855 1.383 . S
C3856 C3857 1.377 . S
C3857 H3841 0.930 . S
C3857 C3856 1.377 . S
C3857 C3858 1.379 . S
C3858 H3842 0.931 . S
C3858 C3852 1.383 . S
C3858 C3857 1.379 . S
H3859 C3853 0.959 . S
H3860 C3853 0.961 . S
H3861 C3853 0.960 . S
H3862 C3854 0.930 . S
H3863 C3855 0.929 . S
H3864 C3872 0.929 . S
H3865 C3874 0.930 . S
H3866 C3876 0.930 . S
H3867 C3879 0.929 . S
H3868 C3882 0.930 . S
H3869 C3884 0.960 . S
H3870 C3884 0.960 . S
H3871 C3884 0.960 . S
C3872 H3864 0.929 . S
C3872 C3873 1.377 . S
C3872 C3874 1.384 . S
C3873 C3872 1.377 . S
C3873 C3879 1.390 . S
C3874 H3865 0.930 . S
C3874 C3872 1.384 . S
C3874 C3875 1.372 . S
C3875 C3874 1.372 . S
C3875 C3876 1.400 . S
C3875 C3880 1.490 . S
C3876 H3866 0.930 . S
C3876 C3875 1.400 . S
C3876 C3879 1.386 . S
H3877 C3893 0.930 . S
H3878 C3894 0.931 . S
C3879 H3867 0.929 . S
C3879 C3873 1.390 . S
C3879 C3876 1.386 . S
C3880 C3875 1.490 . S
C3880 C3882 1.395 . S
C3880 C3883 1.403 . S
H3881 C3887 0.930 . S
C3882 H3868 0.930 . S
C3882 C3880 1.395 . S
C3882 C3885 1.403 . S
C3883 C3880 1.403 . S
C3883 C3884 1.524 . S
C3883 C3887 1.400 . S
C3884 H3869 0.960 . S
C3884 H3870 0.960 . S
C3884 H3871 0.960 . S
C3884 C3883 1.524 . S
C3885 C3882 1.403 . S
C3885 C3886 1.392 . S
C3885 C3889 1.495 . S
C3886 C3885 1.392 . S
C3886 C3887 1.385 . S
C3886 C3888 1.478 . S
C3887 H3881 0.930 . S
C3887 C3883 1.400 . S
C3887 C3886 1.385 . S
C3888 C3886 1.478 . S
C3888 C3890 1.381 . S
C3888 C3894 1.383 . S
C3889 C3885 1.495 . S
C3889 H3895 0.959 . S
C3889 H3896 0.961 . S
C3889 H3897 0.960 . S
C3890 C3888 1.381 . S
C3890 C3891 1.394 . S
C3890 H3898 0.930 . S
C3891 C3890 1.394 . S
C3891 C3892 1.383 . S
C3891 H3899 0.929 . S
C3892 C3891 1.383 . S
C3892 C3893 1.377 . S
C3893 H3877 0.930 . S
C3893 C3892 1.377 . S
C3893 C3894 1.379 . S
C3894 H3878 0.931 . S
C3894 C3888 1.383 . S
C3894 C3893 1.379 . S
H3895 C3889 0.959 . S
H3896 C3889 0.961 . S
H3897 C3889 0.960 . S
H3898 C3890 0.930 . S
H3899 C3891 0.929 . S
H3900 C3908 0.929 . S
H3901 C3910 0.930 . S
H3902 C3912 0.930 . S
H3903 C3915 0.929 . S
H3904 C3918 0.930 . S
H3905 C3920 0.960 . S
H3906 C3920 0.960 . S
H3907 C3920 0.960 . S
C3908 H3900 0.929 . S
C3908 C3909 1.377 . S
C3908 C3910 1.384 . S
C3909 C3908 1.377 . S
C3909 C3915 1.390 . S
C3910 H3901 0.930 . S
C3910 C3908 1.384 . S
C3910 C3911 1.372 . S
C3911 C3910 1.372 . S
C3911 C3912 1.400 . S
C3911 C3916 1.490 . S
C3912 H3902 0.930 . S
C3912 C3911 1.400 . S
C3912 C3915 1.386 . S
H3913 C3929 0.930 . S
H3914 C3930 0.931 . S
C3915 H3903 0.929 . S
C3915 C3909 1.390 . S
C3915 C3912 1.386 . S
C3916 C3911 1.490 . S
C3916 C3918 1.395 . S
C3916 C3919 1.403 . S
H3917 C3923 0.930 . S
C3918 H3904 0.930 . S
C3918 C3916 1.395 . S
C3918 C3921 1.403 . S
C3919 C3916 1.403 . S
C3919 C3920 1.524 . S
C3919 C3923 1.400 . S
C3920 H3905 0.960 . S
C3920 H3906 0.960 . S
C3920 H3907 0.960 . S
C3920 C3919 1.524 . S
C3921 C3918 1.403 . S
C3921 C3922 1.392 . S
C3921 C3925 1.495 . S
C3922 C3921 1.392 . S
C3922 C3923 1.385 . S
C3922 C3924 1.478 . S
C3923 H3917 0.930 . S
C3923 C3919 1.400 . S
C3923 C3922 1.385 . S
C3924 C3922 1.478 . S
C3924 C3926 1.381 . S
C3924 C3930 1.383 . S
C3925 C3921 1.495 . S
C3925 H3931 0.959 . S
C3925 H3932 0.961 . S
C3925 H3933 0.960 . S
C3926 C3924 1.381 . S
C3926 C3927 1.394 . S
C3926 H3934 0.930 . S
C3927 C3926 1.394 . S
C3927 C3928 1.383 . S
C3927 H3935 0.929 . S
C3928 C3927 1.383 . S
C3928 C3929 1.377 . S
C3929 H3913 0.930 . S
C3929 C3928 1.377 . S
C3929 C3930 1.379 . S
C3930 H3914 0.931 . S
C3930 C3924 1.383 . S
C3930 C3929 1.379 . S
H3931 C3925 0.959 . S
H3932 C3925 0.961 . S
H3933 C3925 0.960 . S
H3934 C3926 0.930 . S
H3935 C3927 0.929 . S
H3936 C3944 0.929 . S
H3937 C3946 0.930 . S
H3938 C3948 0.930 . S
H3939 C3951 0.929 . S
H3940 C3954 0.930 . S
H3941 C3956 0.960 . S
H3942 C3956 0.960 . S
H3943 C3956 0.960 . S
C3944 H3936 0.929 . S
C3944 C3945 1.377 . S
C3944 C3946 1.384 . S
C3945 C3944 1.377 . S
C3945 C3951 1.390 . S
C3946 H3937 0.930 . S
C3946 C3944 1.384 . S
C3946 C3947 1.372 . S
C3947 C3946 1.372 . S
C3947 C3948 1.400 . S
C3947 C3952 1.490 . S
C3948 H3938 0.930 . S
C3948 C3947 1.400 . S
C3948 C3951 1.386 . S
H3949 C3965 0.930 . S
H3950 C3966 0.931 . S
C3951 H3939 0.929 . S
C3951 C3945 1.390 . S
C3951 C3948 1.386 . S
C3952 C3947 1.490 . S
C3952 C3954 1.395 . S
C3952 C3955 1.403 . S
H3953 C3959 0.930 . S
C3954 H3940 0.930 . S
C3954 C3952 1.395 . S
C3954 C3957 1.403 . S
C3955 C3952 1.403 . S
C3955 C3956 1.524 . S
C3955 C3959 1.400 . S
C3956 H3941 0.960 . S
C3956 H3942 0.960 . S
C3956 H3943 0.960 . S
C3956 C3955 1.524 . S
C3957 C3954 1.403 . S
C3957 C3958 1.392 . S
C3957 C3961 1.495 . S
C3958 C3957 1.392 . S
C3958 C3959 1.385 . S
C3958 C3960 1.478 . S
C3959 H3953 0.930 . S
C3959 C3955 1.400 . S
C3959 C3958 1.385 . S
C3960 C3958 1.478 . S
C3960 C3962 1.381 . S
C3960 C3966 1.383 . S
C3961 C3957 1.495 . S
C3961 H3967 0.959 . S
C3961 H3968 0.961 . S
C3961 H3969 0.960 . S
C3962 C3960 1.381 . S
C3962 C3963 1.394 . S
C3962 H3970 0.930 . S
C3963 C3962 1.394 . S
C3963 C3964 1.383 . S
C3963 H3971 0.929 . S
C3964 C3963 1.383 . S
C3964 C3965 1.377 . S
C3965 H3949 0.930 . S
C3965 C3964 1.377 . S
C3965 C3966 1.379 . S
C3966 H3950 0.931 . S
C3966 C3960 1.383 . S
C3966 C3965 1.379 . S
H3967 C3961 0.959 . S
H3968 C3961 0.961 . S
H3969 C3961 0.960 . S
H3970 C3962 0.930 . S
H3971 C3963 0.929 . S
H3972 C3980 0.929 . S
H3973 C3982 0.930 . S
H3974 C3984 0.930 . S
H3975 C3987 0.929 . S
H3976 C3990 0.930 . S
H3977 C3992 0.960 . S
H3978 C3992 0.960 . S
H3979 C3992 0.960 . S
C3980 H3972 0.929 . S
C3980 C3981 1.377 . S
C3980 C3982 1.384 . S
C3981 C3980 1.377 . S
C3981 C3987 1.390 . S
C3982 H3973 0.930 . S
C3982 C3980 1.384 . S
C3982 C3983 1.372 . S
C3983 C3982 1.372 . S
C3983 C3984 1.400 . S
C3983 C3988 1.490 . S
C3984 H3974 0.930 . S
C3984 C3983 1.400 . S
C3984 C3987 1.386 . S
H3985 C4001 0.930 . S
H3986 C4002 0.931 . S
C3987 H3975 0.929 . S
C3987 C3981 1.390 . S
C3987 C3984 1.386 . S
C3988 C3983 1.490 . S
C3988 C3990 1.395 . S
C3988 C3991 1.403 . S
H3989 C3995 0.930 . S
C3990 H3976 0.930 . S
C3990 C3988 1.395 . S
C3990 C3993 1.403 . S
C3991 C3988 1.403 . S
C3991 C3992 1.524 . S
C3991 C3995 1.400 . S
C3992 H3977 0.960 . S
C3992 H3978 0.960 . S
C3992 H3979 0.960 . S
C3992 C3991 1.524 . S
C3993 C3990 1.403 . S
C3993 C3994 1.392 . S
C3993 C3997 1.495 . S
C3994 C3993 1.392 . S
C3994 C3995 1.385 . S
C3994 C3996 1.478 . S
C3995 H3989 0.930 . S
C3995 C3991 1.400 . S
C3995 C3994 1.385 . S
C3996 C3994 1.478 . S
C3996 C3998 1.381 . S
C3996 C4002 1.383 . S
C3997 C3993 1.495 . S
C3997 H4003 0.959 . S
C3997 H4004 0.961 . S
C3997 H4005 0.960 . S
C3998 C3996 1.381 . S
C3998 C3999 1.394 . S
C3998 H4006 0.930 . S
C3999 C3998 1.394 . S
C3999 C4000 1.383 . S
C3999 H4007 0.929 . S
C4000 C3999 1.383 . S
C4000 C4001 1.377 . S
C4001 H3985 0.930 . S
C4001 C4000 1.377 . S
C4001 C4002 1.379 . S
C4002 H3986 0.931 . S
C4002 C3996 1.383 . S
C4002 C4001 1.379 . S
H4003 C3997 0.959 . S
H4004 C3997 0.961 . S
H4005 C3997 0.960 . S
H4006 C3998 0.930 . S
H4007 C3999 0.929 . S
H4008 C4016 0.929 . S
H4009 C4018 0.930 . S
H4010 C4020 0.930 . S
H4011 C4023 0.929 . S
H4012 C4026 0.930 . S
H4013 C4028 0.960 . S
H4014 C4028 0.960 . S
H4015 C4028 0.960 . S
C4016 H4008 0.929 . S
C4016 C4017 1.377 . S
C4016 C4018 1.384 . S
C4017 C4016 1.377 . S
C4017 C4023 1.390 . S
C4018 H4009 0.930 . S
C4018 C4016 1.384 . S
C4018 C4019 1.372 . S
C4019 C4018 1.372 . S
C4019 C4020 1.400 . S
C4019 C4024 1.490 . S
C4020 H4010 0.930 . S
C4020 C4019 1.400 . S
C4020 C4023 1.386 . S
H4021 C4037 0.930 . S
H4022 C4038 0.931 . S
C4023 H4011 0.929 . S
C4023 C4017 1.390 . S
C4023 C4020 1.386 . S
C4024 C4019 1.490 . S
C4024 C4026 1.395 . S
C4024 C4027 1.403 . S
H4025 C4031 0.930 . S
C4026 H4012 0.930 . S
C4026 C4024 1.395 . S
C4026 C4029 1.403 . S
C4027 C4024 1.403 . S
C4027 C4028 1.524 . S
C4027 C4031 1.400 . S
C4028 H4013 0.960 . S
C4028 H4014 0.960 . S
C4028 H4015 0.960 . S
C4028 C4027 1.524 . S
C4029 C4026 1.403 . S
C4029 C4030 1.392 . S
C4029 C4033 1.495 . S
C4030 C4029 1.392 . S
C4030 C4031 1.385 . S
C4030 C4032 1.478 . S
C4031 H4025 0.930 . S
C4031 C4027 1.400 . S
C4031 C4030 1.385 . S
C4032 C4030 1.478 . S
C4032 C4034 1.381 . S
C4032 C4038 1.383 . S
C4033 C4029 1.495 . S
C4033 H4039 0.959 . S
C4033 H4040 0.961 . S
C4033 H4041 0.960 . S
C4034 C4032 1.381 . S
C4034 C4035 1.394 . S
C4034 H4042 0.930 . S
C4035 C4034 1.394 . S
C4035 C4036 1.383 . S
C4035 H4043 0.929 . S
C4036 C4035 1.383 . S
C4036 C4037 1.377 . S
C4037 H4021 0.930 . S
C4037 C4036 1.377 . S
C4037 C4038 1.379 . S
C4038 H4022 0.931 . S
C4038 C4032 1.383 . S
C4038 C4037 1.379 . S
H4039 C4033 0.959 . S
H4040 C4033 0.961 . S
H4041 C4033 0.960 . S
H4042 C4034 0.930 . S
H4043 C4035 0.929 . S
H4044 C4052 0.929 . S
H4045 C4054 0.930 . S
H4046 C4056 0.930 . S
H4047 C4059 0.929 . S
H4048 C4062 0.930 . S
H4049 C4064 0.960 . S
H4050 C4064 0.960 . S
H4051 C4064 0.960 . S
C4052 H4044 0.929 . S
C4052 C4053 1.377 . S
C4052 C4054 1.384 . S
C4053 C4052 1.377 . S
C4053 C4059 1.390 . S
C4054 H4045 0.930 . S
C4054 C4052 1.384 . S
C4054 C4055 1.372 . S
C4055 C4054 1.372 . S
C4055 C4056 1.400 . S
C4055 C4060 1.490 . S
C4056 H4046 0.930 . S
C4056 C4055 1.400 . S
C4056 C4059 1.386 . S
H4057 C4073 0.930 . S
H4058 C4074 0.931 . S
C4059 H4047 0.929 . S
C4059 C4053 1.390 . S
C4059 C4056 1.386 . S
C4060 C4055 1.490 . S
C4060 C4062 1.395 . S
C4060 C4063 1.403 . S
H4061 C4067 0.930 . S
C4062 H4048 0.930 . S
C4062 C4060 1.395 . S
C4062 C4065 1.403 . S
C4063 C4060 1.403 . S
C4063 C4064 1.524 . S
C4063 C4067 1.400 . S
C4064 H4049 0.960 . S
C4064 H4050 0.960 . S
C4064 H4051 0.960 . S
C4064 C4063 1.524 . S
C4065 C4062 1.403 . S
C4065 C4066 1.392 . S
C4065 C4069 1.495 . S
C4066 C4065 1.392 . S
C4066 C4067 1.385 . S
C4066 C4068 1.478 . S
C4067 H4061 0.930 . S
C4067 C4063 1.400 . S
C4067 C4066 1.385 . S
C4068 C4066 1.478 . S
C4068 C4070 1.381 . S
C4068 C4074 1.383 . S
C4069 C4065 1.495 . S
C4069 H4075 0.959 . S
C4069 H4076 0.961 . S
C4069 H4077 0.960 . S
C4070 C4068 1.381 . S
C4070 C4071 1.394 . S
C4070 H4078 0.930 . S
C4071 C4070 1.394 . S
C4071 C4072 1.383 . S
C4071 H4079 0.929 . S
C4072 C4071 1.383 . S
C4072 C4073 1.377 . S
C4073 H4057 0.930 . S
C4073 C4072 1.377 . S
C4073 C4074 1.379 . S
C4074 H4058 0.931 . S
C4074 C4068 1.383 . S
C4074 C4073 1.379 . S
H4075 C4069 0.959 . S
H4076 C4069 0.961 . S
H4077 C4069 0.960 . S
H4078 C4070 0.930 . S
H4079 C4071 0.929 . S
H4080 C4088 0.929 . S
H4081 C4090 0.930 . S
H4082 C4092 0.930 . S
H4083 C4095 0.929 . S
H4084 C4098 0.930 . S
H4085 C4100 0.960 . S
H4086 C4100 0.960 . S
H4087 C4100 0.960 . S
C4088 H4080 0.929 . S
C4088 C4089 1.377 . S
C4088 C4090 1.384 . S
C4089 C4088 1.377 . S
C4089 C4095 1.390 . S
C4090 H4081 0.930 . S
C4090 C4088 1.384 . S
C4090 C4091 1.372 . S
C4091 C4090 1.372 . S
C4091 C4092 1.400 . S
C4091 C4096 1.490 . S
C4092 H4082 0.930 . S
C4092 C4091 1.400 . S
C4092 C4095 1.386 . S
H4093 C4109 0.930 . S
H4094 C4110 0.931 . S
C4095 H4083 0.929 . S
C4095 C4089 1.390 . S
C4095 C4092 1.386 . S
C4096 C4091 1.490 . S
C4096 C4098 1.395 . S
C4096 C4099 1.403 . S
H4097 C4103 0.930 . S
C4098 H4084 0.930 . S
C4098 C4096 1.395 . S
C4098 C4101 1.403 . S
C4099 C4096 1.403 . S
C4099 C4100 1.524 . S
C4099 C4103 1.400 . S
C4100 H4085 0.960 . S
C4100 H4086 0.960 . S
C4100 H4087 0.960 . S
C4100 C4099 1.524 . S
C4101 C4098 1.403 . S
C4101 C4102 1.392 . S
C4101 C4105 1.495 . S
C4102 C4101 1.392 . S
C4102 C4103 1.385 . S
C4102 C4104 1.478 . S
C4103 H4097 0.930 . S
C4103 C4099 1.400 . S
C4103 C4102 1.385 . S
C4104 C4102 1.478 . S
C4104 C4106 1.381 . S
C4104 C4110 1.383 . S
C4105 C4101 1.495 . S
C4105 H4111 0.959 . S
C4105 H4112 0.961 . S
C4105 H4113 0.960 . S
C4106 C4104 1.381 . S
C4106 C4107 1.394 . S
C4106 H4114 0.930 . S
C4107 C4106 1.394 . S
C4107 C4108 1.383 . S
C4107 H4115 0.929 . S
C4108 C4107 1.383 . S
C4108 C4109 1.377 . S
C4109 H4093 0.930 . S
C4109 C4108 1.377 . S
C4109 C4110 1.379 . S
C4110 H4094 0.931 . S
C4110 C4104 1.383 . S
C4110 C4109 1.379 . S
H4111 C4105 0.959 . S
H4112 C4105 0.961 . S
H4113 C4105 0.960 . S
H4114 C4106 0.930 . S
H4115 C4107 0.929 . S
H4116 C4124 0.929 . S
H4117 C4126 0.930 . S
H4118 C4128 0.930 . S
H4119 C4131 0.929 . S
H4120 C4134 0.930 . S
H4121 C4136 0.960 . S
H4122 C4136 0.960 . S
H4123 C4136 0.960 . S
C4124 H4116 0.929 . S
C4124 C4125 1.377 . S
C4124 C4126 1.384 . S
C4125 C4124 1.377 . S
C4125 C4131 1.390 . S
C4126 H4117 0.930 . S
C4126 C4124 1.384 . S
C4126 C4127 1.372 . S
C4127 C4126 1.372 . S
C4127 C4128 1.400 . S
C4127 C4132 1.490 . S
C4128 H4118 0.930 . S
C4128 C4127 1.400 . S
C4128 C4131 1.386 . S
H4129 C4145 0.930 . S
H4130 C4146 0.931 . S
C4131 H4119 0.929 . S
C4131 C4125 1.390 . S
C4131 C4128 1.386 . S
C4132 C4127 1.490 . S
C4132 C4134 1.395 . S
C4132 C4135 1.403 . S
H4133 C4139 0.930 . S
C4134 H4120 0.930 . S
C4134 C4132 1.395 . S
C4134 C4137 1.403 . S
C4135 C4132 1.403 . S
C4135 C4136 1.524 . S
C4135 C4139 1.400 . S
C4136 H4121 0.960 . S
C4136 H4122 0.960 . S
C4136 H4123 0.960 . S
C4136 C4135 1.524 . S
C4137 C4134 1.403 . S
C4137 C4138 1.392 . S
C4137 C4141 1.495 . S
C4138 C4137 1.392 . S
C4138 C4139 1.385 . S
C4138 C4140 1.478 . S
C4139 H4133 0.930 . S
C4139 C4135 1.400 . S
C4139 C4138 1.385 . S
C4140 C4138 1.478 . S
C4140 C4142 1.381 . S
C4140 C4146 1.383 . S
C4141 C4137 1.495 . S
C4141 H4147 0.959 . S
C4141 H4148 0.961 . S
C4141 H4149 0.960 . S
C4142 C4140 1.381 . S
C4142 C4143 1.394 . S
C4142 H4150 0.930 . S
C4143 C4142 1.394 . S
C4143 C4144 1.383 . S
C4143 H4151 0.929 . S
C4144 C4143 1.383 . S
C4144 C4145 1.377 . S
C4145 H4129 0.930 . S
C4145 C4144 1.377 . S
C4145 C4146 1.379 . S
C4146 H4130 0.931 . S
C4146 C4140 1.383 . S
C4146 C4145 1.379 . S
H4147 C4141 0.959 . S
H4148 C4141 0.961 . S
H4149 C4141 0.960 . S
H4150 C4142 0.930 . S
H4151 C4143 0.929 . S
H4152 C4160 0.929 . S
H4153 C4162 0.930 . S
H4154 C4164 0.930 . S
H4155 C4167 0.929 . S
H4156 C4170 0.930 . S
H4157 C4172 0.960 . S
H4158 C4172 0.960 . S
H4159 C4172 0.960 . S
C4160 H4152 0.929 . S
C4160 C4161 1.377 . S
C4160 C4162 1.384 . S
C4161 C4160 1.377 . S
C4161 C4167 1.390 . S
C4162 H4153 0.930 . S
C4162 C4160 1.384 . S
C4162 C4163 1.372 . S
C4163 C4162 1.372 . S
C4163 C4164 1.400 . S
C4163 C4168 1.490 . S
C4164 H4154 0.930 . S
C4164 C4163 1.400 . S
C4164 C4167 1.386 . S
H4165 C4181 0.930 . S
H4166 C4182 0.931 . S
C4167 H4155 0.929 . S
C4167 C4161 1.390 . S
C4167 C4164 1.386 . S
C4168 C4163 1.490 . S
C4168 C4170 1.395 . S
C4168 C4171 1.403 . S
H4169 C4175 0.930 . S
C4170 H4156 0.930 . S
C4170 C4168 1.395 . S
C4170 C4173 1.403 . S
C4171 C4168 1.403 . S
C4171 C4172 1.524 . S
C4171 C4175 1.400 . S
C4172 H4157 0.960 . S
C4172 H4158 0.960 . S
C4172 H4159 0.960 . S
C4172 C4171 1.524 . S
C4173 C4170 1.403 . S
C4173 C4174 1.392 . S
C4173 C4177 1.495 . S
C4174 C4173 1.392 . S
C4174 C4175 1.385 . S
C4174 C4176 1.478 . S
C4175 H4169 0.930 . S
C4175 C4171 1.400 . S
C4175 C4174 1.385 . S
C4176 C4174 1.478 . S
C4176 C4178 1.381 . S
C4176 C4182 1.383 . S
C4177 C4173 1.495 . S
C4177 H4183 0.959 . S
C4177 H4184 0.961 . S
C4177 H4185 0.960 . S
C4178 C4176 1.381 . S
C4178 C4179 1.394 . S
C4178 H4186 0.930 . S
C4179 C4178 1.394 . S
C4179 C4180 1.383 . S
C4179 H4187 0.929 . S
C4180 C4179 1.383 . S
C4180 C4181 1.377 . S
C4181 H4165 0.930 . S
C4181 C4180 1.377 . S
C4181 C4182 1.379 . S
C4182 H4166 0.931 . S
C4182 C4176 1.383 . S
C4182 C4181 1.379 . S
H4183 C4177 0.959 . S
H4184 C4177 0.961 . S
H4185 C4177 0.960 . S
H4186 C4178 0.930 . S
H4187 C4179 0.929 . S
H4188 C4196 0.929 . S
H4189 C4198 0.930 . S
H4190 C4200 0.930 . S
H4191 C4203 0.929 . S
H4192 C4206 0.930 . S
H4193 C4208 0.960 . S
H4194 C4208 0.960 . S
H4195 C4208 0.960 . S
C4196 H4188 0.929 . S
C4196 C4197 1.377 . S
C4196 C4198 1.384 . S
C4197 C4196 1.377 . S
C4197 C4203 1.390 . S
C4198 H4189 0.930 . S
C4198 C4196 1.384 . S
C4198 C4199 1.372 . S
C4199 C4198 1.372 . S
C4199 C4200 1.400 . S
C4199 C4204 1.490 . S
C4200 H4190 0.930 . S
C4200 C4199 1.400 . S
C4200 C4203 1.386 . S
H4201 C4217 0.930 . S
H4202 C4218 0.931 . S
C4203 H4191 0.929 . S
C4203 C4197 1.390 . S
C4203 C4200 1.386 . S
C4204 C4199 1.490 . S
C4204 C4206 1.395 . S
C4204 C4207 1.403 . S
H4205 C4211 0.930 . S
C4206 H4192 0.930 . S
C4206 C4204 1.395 . S
C4206 C4209 1.403 . S
C4207 C4204 1.403 . S
C4207 C4208 1.524 . S
C4207 C4211 1.400 . S
C4208 H4193 0.960 . S
C4208 H4194 0.960 . S
C4208 H4195 0.960 . S
C4208 C4207 1.524 . S
C4209 C4206 1.403 . S
C4209 C4210 1.392 . S
C4209 C4213 1.495 . S
C4210 C4209 1.392 . S
C4210 C4211 1.385 . S
C4210 C4212 1.478 . S
C4211 H4205 0.930 . S
C4211 C4207 1.400 . S
C4211 C4210 1.385 . S
C4212 C4210 1.478 . S
C4212 C4214 1.381 . S
C4212 C4218 1.383 . S
C4213 C4209 1.495 . S
C4213 H4219 0.959 . S
C4213 H4220 0.961 . S
C4213 H4221 0.960 . S
C4214 C4212 1.381 . S
C4214 C4215 1.394 . S
C4214 H4222 0.930 . S
C4215 C4214 1.394 . S
C4215 C4216 1.383 . S
C4215 H4223 0.929 . S
C4216 C4215 1.383 . S
C4216 C4217 1.377 . S
C4217 H4201 0.930 . S
C4217 C4216 1.377 . S
C4217 C4218 1.379 . S
C4218 H4202 0.931 . S
C4218 C4212 1.383 . S
C4218 C4217 1.379 . S
H4219 C4213 0.959 . S
H4220 C4213 0.961 . S
H4221 C4213 0.960 . S
H4222 C4214 0.930 . S
H4223 C4215 0.929 . S
H4224 C4232 0.929 . S
H4225 C4234 0.930 . S
H4226 C4236 0.930 . S
H4227 C4239 0.929 . S
H4228 C4242 0.930 . S
H4229 C4244 0.960 . S
H4230 C4244 0.960 . S
H4231 C4244 0.960 . S
C4232 H4224 0.929 . S
C4232 C4233 1.377 . S
C4232 C4234 1.384 . S
C4233 C4232 1.377 . S
C4233 C4239 1.390 . S
C4234 H4225 0.930 . S
C4234 C4232 1.384 . S
C4234 C4235 1.372 . S
C4235 C4234 1.372 . S
C4235 C4236 1.400 . S
C4235 C4240 1.490 . S
C4236 H4226 0.930 . S
C4236 C4235 1.400 . S
C4236 C4239 1.386 . S
H4237 C4253 0.930 . S
H4238 C4254 0.931 . S
C4239 H4227 0.929 . S
C4239 C4233 1.390 . S
C4239 C4236 1.386 . S
C4240 C4235 1.490 . S
C4240 C4242 1.395 . S
C4240 C4243 1.403 . S
H4241 C4247 0.930 . S
C4242 H4228 0.930 . S
C4242 C4240 1.395 . S
C4242 C4245 1.403 . S
C4243 C4240 1.403 . S
C4243 C4244 1.524 . S
C4243 C4247 1.400 . S
C4244 H4229 0.960 . S
C4244 H4230 0.960 . S
C4244 H4231 0.960 . S
C4244 C4243 1.524 . S
C4245 C4242 1.403 . S
C4245 C4246 1.392 . S
C4245 C4249 1.495 . S
C4246 C4245 1.392 . S
C4246 C4247 1.385 . S
C4246 C4248 1.478 . S
C4247 H4241 0.930 . S
C4247 C4243 1.400 . S
C4247 C4246 1.385 . S
C4248 C4246 1.478 . S
C4248 C4250 1.381 . S
C4248 C4254 1.383 . S
C4249 C4245 1.495 . S
C4249 H4255 0.959 . S
C4249 H4256 0.961 . S
C4249 H4257 0.960 . S
C4250 C4248 1.381 . S
C4250 C4251 1.394 . S
C4250 H4258 0.930 . S
C4251 C4250 1.394 . S
C4251 C4252 1.383 . S
C4251 H4259 0.929 . S
C4252 C4251 1.383 . S
C4252 C4253 1.377 . S
C4253 H4237 0.930 . S
C4253 C4252 1.377 . S
C4253 C4254 1.379 . S
C4254 H4238 0.931 . S
C4254 C4248 1.383 . S
C4254 C4253 1.379 . S
H4255 C4249 0.959 . S
H4256 C4249 0.961 . S
H4257 C4249 0.960 . S
H4258 C4250 0.930 . S
H4259 C4251 0.929 . S
H4260 C4268 0.929 . S
H4261 C4270 0.930 . S
H4262 C4272 0.930 . S
H4263 C4275 0.929 . S
H4264 C4278 0.930 . S
H4265 C4280 0.960 . S
H4266 C4280 0.960 . S
H4267 C4280 0.960 . S
C4268 H4260 0.929 . S
C4268 C4269 1.377 . S
C4268 C4270 1.384 . S
C4269 C4268 1.377 . S
C4269 C4275 1.390 . S
C4270 H4261 0.930 . S
C4270 C4268 1.384 . S
C4270 C4271 1.372 . S
C4271 C4270 1.372 . S
C4271 C4272 1.400 . S
C4271 C4276 1.490 . S
C4272 H4262 0.930 . S
C4272 C4271 1.400 . S
C4272 C4275 1.386 . S
H4273 C4289 0.930 . S
H4274 C4290 0.931 . S
C4275 H4263 0.929 . S
C4275 C4269 1.390 . S
C4275 C4272 1.386 . S
C4276 C4271 1.490 . S
C4276 C4278 1.395 . S
C4276 C4279 1.403 . S
H4277 C4283 0.930 . S
C4278 H4264 0.930 . S
C4278 C4276 1.395 . S
C4278 C4281 1.403 . S
C4279 C4276 1.403 . S
C4279 C4280 1.524 . S
C4279 C4283 1.400 . S
C4280 H4265 0.960 . S
C4280 H4266 0.960 . S
C4280 H4267 0.960 . S
C4280 C4279 1.524 . S
C4281 C4278 1.403 . S
C4281 C4282 1.392 . S
C4281 C4285 1.495 . S
C4282 C4281 1.392 . S
C4282 C4283 1.385 . S
C4282 C4284 1.478 . S
C4283 H4277 0.930 . S
C4283 C4279 1.400 . S
C4283 C4282 1.385 . S
C4284 C4282 1.478 . S
C4284 C4286 1.381 . S
C4284 C4290 1.383 . S
C4285 C4281 1.495 . S
C4285 H4291 0.959 . S
C4285 H4292 0.961 . S
C4285 H4293 0.960 . S
C4286 C4284 1.381 . S
C4286 C4287 1.394 . S
C4286 H4294 0.930 . S
C4287 C4286 1.394 . S
C4287 C4288 1.383 . S
C4287 H4295 0.929 . S
C4288 C4287 1.383 . S
C4288 C4289 1.377 . S
C4289 H4273 0.930 . S
C4289 C4288 1.377 . S
C4289 C4290 1.379 . S
C4290 H4274 0.931 . S
C4290 C4284 1.383 . S
C4290 C4289 1.379 . S
H4291 C4285 0.959 . S
H4292 C4285 0.961 . S
H4293 C4285 0.960 . S
H4294 C4286 0.930 . S
H4295 C4287 0.929 . S
H4296 C4304 0.929 . S
H4297 C4306 0.930 . S
H4298 C4308 0.930 . S
H4299 C4311 0.929 . S
H4300 C4314 0.930 . S
H4301 C4316 0.960 . S
H4302 C4316 0.960 . S
H4303 C4316 0.960 . S
C4304 H4296 0.929 . S
C4304 C4305 1.377 . S
C4304 C4306 1.384 . S
C4305 C4304 1.377 . S
C4305 C4311 1.390 . S
C4306 H4297 0.930 . S
C4306 C4304 1.384 . S
C4306 C4307 1.372 . S
C4307 C4306 1.372 . S
C4307 C4308 1.400 . S
C4307 C4312 1.490 . S
C4308 H4298 0.930 . S
C4308 C4307 1.400 . S
C4308 C4311 1.386 . S
H4309 C4325 0.930 . S
H4310 C4326 0.931 . S
C4311 H4299 0.929 . S
C4311 C4305 1.390 . S
C4311 C4308 1.386 . S
C4312 C4307 1.490 . S
C4312 C4314 1.395 . S
C4312 C4315 1.403 . S
H4313 C4319 0.930 . S
C4314 H4300 0.930 . S
C4314 C4312 1.395 . S
C4314 C4317 1.403 . S
C4315 C4312 1.403 . S
C4315 C4316 1.524 . S
C4315 C4319 1.400 . S
C4316 H4301 0.960 . S
C4316 H4302 0.960 . S
C4316 H4303 0.960 . S
C4316 C4315 1.524 . S
C4317 C4314 1.403 . S
C4317 C4318 1.392 . S
C4317 C4321 1.495 . S
C4318 C4317 1.392 . S
C4318 C4319 1.385 . S
C4318 C4320 1.478 . S
C4319 H4313 0.930 . S
C4319 C4315 1.400 . S
C4319 C4318 1.385 . S
C4320 C4318 1.478 . S
C4320 C4322 1.381 . S
C4320 C4326 1.383 . S
C4321 C4317 1.495 . S
C4321 H4327 0.959 . S
C4321 H4328 0.961 . S
C4321 H4329 0.960 . S
C4322 C4320 1.381 . S
C4322 C4323 1.394 . S
C4322 H4330 0.930 . S
C4323 C4322 1.394 . S
C4323 C4324 1.383 . S
C4323 H4331 0.929 . S
C4324 C4323 1.383 . S
C4324 C4325 1.377 . S
C4325 H4309 0.930 . S
C4325 C4324 1.377 . S
C4325 C4326 1.379 . S
C4326 H4310 0.931 . S
C4326 C4320 1.383 . S
C4326 C4325 1.379 . S
H4327 C4321 0.959 . S
H4328 C4321 0.961 . S
H4329 C4321 0.960 . S
H4330 C4322 0.930 . S
H4331 C4323 0.929 . S
H4332 C4340 0.929 . S
H4333 C4342 0.930 . S
H4334 C4344 0.930 . S
H4335 C4347 0.929 . S
H4336 C4350 0.930 . S
H4337 C4352 0.960 . S
H4338 C4352 0.960 . S
H4339 C4352 0.960 . S
C4340 H4332 0.929 . S
C4340 C4341 1.377 . S
C4340 C4342 1.384 . S
C4341 C4340 1.377 . S
C4341 C4347 1.390 . S
C4342 H4333 0.930 . S
C4342 C4340 1.384 . S
C4342 C4343 1.372 . S
C4343 C4342 1.372 . S
C4343 C4344 1.400 . S
C4343 C4348 1.490 . S
C4344 H4334 0.930 . S
C4344 C4343 1.400 . S
C4344 C4347 1.386 . S
H4345 C4361 0.930 . S
H4346 C4362 0.931 . S
C4347 H4335 0.929 . S
C4347 C4341 1.390 . S
C4347 C4344 1.386 . S
C4348 C4343 1.490 . S
C4348 C4350 1.395 . S
C4348 C4351 1.403 . S
H4349 C4355 0.930 . S
C4350 H4336 0.930 . S
C4350 C4348 1.395 . S
C4350 C4353 1.403 . S
C4351 C4348 1.403 . S
C4351 C4352 1.524 . S
C4351 C4355 1.400 . S
C4352 H4337 0.960 . S
C4352 H4338 0.960 . S
C4352 H4339 0.960 . S
C4352 C4351 1.524 . S
C4353 C4350 1.403 . S
C4353 C4354 1.392 . S
C4353 C4357 1.495 . S
C4354 C4353 1.392 . S
C4354 C4355 1.385 . S
C4354 C4356 1.478 . S
C4355 H4349 0.930 . S
C4355 C4351 1.400 . S
C4355 C4354 1.385 . S
C4356 C4354 1.478 . S
C4356 C4358 1.381 . S
C4356 C4362 1.383 . S
C4357 C4353 1.495 . S
C4357 H4363 0.959 . S
C4357 H4364 0.961 . S
C4357 H4365 0.960 . S
C4358 C4356 1.381 . S
C4358 C4359 1.394 . S
C4358 H4366 0.930 . S
C4359 C4358 1.394 . S
C4359 C4360 1.383 . S
C4359 H4367 0.929 . S
C4360 C4359 1.383 . S
C4360 C4361 1.377 . S
C4361 H4345 0.930 . S
C4361 C4360 1.377 . S
C4361 C4362 1.379 . S
C4362 H4346 0.931 . S
C4362 C4356 1.383 . S
C4362 C4361 1.379 . S
H4363 C4357 0.959 . S
H4364 C4357 0.961 . S
H4365 C4357 0.960 . S
H4366 C4358 0.930 . S
H4367 C4359 0.929 . S
H4368 C4376 0.929 . S
H4369 C4378 0.930 . S
H4370 C4380 0.930 . S
H4371 C4383 0.929 . S
H4372 C4386 0.930 . S
H4373 C4388 0.960 . S
H4374 C4388 0.960 . S
H4375 C4388 0.960 . S
C4376 H4368 0.929 . S
C4376 C4377 1.377 . S
C4376 C4378 1.384 . S
C4377 C4376 1.377 . S
C4377 C4383 1.390 . S
C4378 H4369 0.930 . S
C4378 C4376 1.384 . S
C4378 C4379 1.372 . S
C4379 C4378 1.372 . S
C4379 C4380 1.400 . S
C4379 C4384 1.490 . S
C4380 H4370 0.930 . S
C4380 C4379 1.400 . S
C4380 C4383 1.386 . S
H4381 C4397 0.930 . S
H4382 C4398 0.931 . S
C4383 H4371 0.929 . S
C4383 C4377 1.390 . S
C4383 C4380 1.386 . S
C4384 C4379 1.490 . S
C4384 C4386 1.395 . S
C4384 C4387 1.403 . S
H4385 C4391 0.930 . S
C4386 H4372 0.930 . S
C4386 C4384 1.395 . S
C4386 C4389 1.403 . S
C4387 C4384 1.403 . S
C4387 C4388 1.524 . S
C4387 C4391 1.400 . S
C4388 H4373 0.960 . S
C4388 H4374 0.960 . S
C4388 H4375 0.960 . S
C4388 C4387 1.524 . S
C4389 C4386 1.403 . S
C4389 C4390 1.392 . S
C4389 C4393 1.495 . S
C4390 C4389 1.392 . S
C4390 C4391 1.385 . S
C4390 C4392 1.478 . S
C4391 H4385 0.930 . S
C4391 C4387 1.400 . S
C4391 C4390 1.385 . S
C4392 C4390 1.478 . S
C4392 C4394 1.381 . S
C4392 C4398 1.383 . S
C4393 C4389 1.495 . S
C4393 H4399 0.959 . S
C4393 H4400 0.961 . S
C4393 H4401 0.960 . S
C4394 C4392 1.381 . S
C4394 C4395 1.394 . S
C4394 H4402 0.930 . S
C4395 C4394 1.394 . S
C4395 C4396 1.383 . S
C4395 H4403 0.929 . S
C4396 C4395 1.383 . S
C4396 C4397 1.377 . S
C4397 H4381 0.930 . S
C4397 C4396 1.377 . S
C4397 C4398 1.379 . S
C4398 H4382 0.931 . S
C4398 C4392 1.383 . S
C4398 C4397 1.379 . S
H4399 C4393 0.959 . S
H4400 C4393 0.961 . S
H4401 C4393 0.960 . S
H4402 C4394 0.930 . S
H4403 C4395 0.929 . S
H4404 C4412 0.929 . S
H4405 C4414 0.930 . S
H4406 C4416 0.930 . S
H4407 C4419 0.929 . S
H4408 C4422 0.930 . S
H4409 C4424 0.960 . S
H4410 C4424 0.960 . S
H4411 C4424 0.960 . S
C4412 H4404 0.929 . S
C4412 C4413 1.377 . S
C4412 C4414 1.384 . S
C4413 C4412 1.377 . S
C4413 C4419 1.390 . S
C4414 H4405 0.930 . S
C4414 C4412 1.384 . S
C4414 C4415 1.372 . S
C4415 C4414 1.372 . S
C4415 C4416 1.400 . S
C4415 C4420 1.490 . S
C4416 H4406 0.930 . S
C4416 C4415 1.400 . S
C4416 C4419 1.386 . S
H4417 C4433 0.930 . S
H4418 C4434 0.931 . S
C4419 H4407 0.929 . S
C4419 C4413 1.390 . S
C4419 C4416 1.386 . S
C4420 C4415 1.490 . S
C4420 C4422 1.395 . S
C4420 C4423 1.403 . S
H4421 C4427 0.930 . S
C4422 H4408 0.930 . S
C4422 C4420 1.395 . S
C4422 C4425 1.403 . S
C4423 C4420 1.403 . S
C4423 C4424 1.524 . S
C4423 C4427 1.400 . S
C4424 H4409 0.960 . S
C4424 H4410 0.960 . S
C4424 H4411 0.960 . S
C4424 C4423 1.524 . S
C4425 C4422 1.403 . S
C4425 C4426 1.392 . S
C4425 C4429 1.495 . S
C4426 C4425 1.392 . S
C4426 C4427 1.385 . S
C4426 C4428 1.478 . S
C4427 H4421 0.930 . S
C4427 C4423 1.400 . S
C4427 C4426 1.385 . S
C4428 C4426 1.478 . S
C4428 C4430 1.381 . S
C4428 C4434 1.383 . S
C4429 C4425 1.495 . S
C4429 H4435 0.959 . S
C4429 H4436 0.961 . S
C4429 H4437 0.960 . S
C4430 C4428 1.381 . S
C4430 C4431 1.394 . S
C4430 H4438 0.930 . S
C4431 C4430 1.394 . S
C4431 C4432 1.383 . S
C4431 H4439 0.929 . S
C4432 C4431 1.383 . S
C4432 C4433 1.377 . S
C4433 H4417 0.930 . S
C4433 C4432 1.377 . S
C4433 C4434 1.379 . S
C4434 H4418 0.931 . S
C4434 C4428 1.383 . S
C4434 C4433 1.379 . S
H4435 C4429 0.959 . S
H4436 C4429 0.961 . S
H4437 C4429 0.960 . S
H4438 C4430 0.930 . S
H4439 C4431 0.929 . S
H4440 C4448 0.929 . S
H4441 C4450 0.930 . S
H4442 C4452 0.930 . S
H4443 C4455 0.929 . S
H4444 C4458 0.930 . S
H4445 C4460 0.960 . S
H4446 C4460 0.960 . S
H4447 C4460 0.960 . S
C4448 H4440 0.929 . S
C4448 C4449 1.377 . S
C4448 C4450 1.384 . S
C4449 C4448 1.377 . S
C4449 C4455 1.390 . S
C4450 H4441 0.930 . S
C4450 C4448 1.384 . S
C4450 C4451 1.372 . S
C4451 C4450 1.372 . S
C4451 C4452 1.400 . S
C4451 C4456 1.490 . S
C4452 H4442 0.930 . S
C4452 C4451 1.400 . S
C4452 C4455 1.386 . S
H4453 C4469 0.930 . S
H4454 C4470 0.931 . S
C4455 H4443 0.929 . S
C4455 C4449 1.390 . S
C4455 C4452 1.386 . S
C4456 C4451 1.490 . S
C4456 C4458 1.395 . S
C4456 C4459 1.403 . S
H4457 C4463 0.930 . S
C4458 H4444 0.930 . S
C4458 C4456 1.395 . S
C4458 C4461 1.403 . S
C4459 C4456 1.403 . S
C4459 C4460 1.524 . S
C4459 C4463 1.400 . S
C4460 H4445 0.960 . S
C4460 H4446 0.960 . S
C4460 H4447 0.960 . S
C4460 C4459 1.524 . S
C4461 C4458 1.403 . S
C4461 C4462 1.392 . S
C4461 C4465 1.495 . S
C4462 C4461 1.392 . S
C4462 C4463 1.385 . S
C4462 C4464 1.478 . S
C4463 H4457 0.930 . S
C4463 C4459 1.400 . S
C4463 C4462 1.385 . S
C4464 C4462 1.478 . S
C4464 C4466 1.381 . S
C4464 C4470 1.383 . S
C4465 C4461 1.495 . S
C4465 H4471 0.959 . S
C4465 H4472 0.961 . S
C4465 H4473 0.960 . S
C4466 C4464 1.381 . S
C4466 C4467 1.394 . S
C4466 H4474 0.930 . S
C4467 C4466 1.394 . S
C4467 C4468 1.383 . S
C4467 H4475 0.929 . S
C4468 C4467 1.383 . S
C4468 C4469 1.377 . S
C4469 H4453 0.930 . S
C4469 C4468 1.377 . S
C4469 C4470 1.379 . S
C4470 H4454 0.931 . S
C4470 C4464 1.383 . S
C4470 C4469 1.379 . S
H4471 C4465 0.959 . S
H4472 C4465 0.961 . S
H4473 C4465 0.960 . S
H4474 C4466 0.930 . S
H4475 C4467 0.929 . S
H4476 C4484 0.929 . S
H4477 C4486 0.930 . S
H4478 C4488 0.930 . S
H4479 C4491 0.929 . S
H4480 C4494 0.930 . S
H4481 C4496 0.960 . S
H4482 C4496 0.960 . S
H4483 C4496 0.960 . S
C4484 H4476 0.929 . S
C4484 C4485 1.377 . S
C4484 C4486 1.384 . S
C4485 C4484 1.377 . S
C4485 C4491 1.390 . S
C4486 H4477 0.930 . S
C4486 C4484 1.384 . S
C4486 C4487 1.372 . S
C4487 C4486 1.372 . S
C4487 C4488 1.400 . S
C4487 C4492 1.490 . S
C4488 H4478 0.930 . S
C4488 C4487 1.400 . S
C4488 C4491 1.386 . S
H4489 C4505 0.930 . S
H4490 C4506 0.931 . S
C4491 H4479 0.929 . S
C4491 C4485 1.390 . S
C4491 C4488 1.386 . S
C4492 C4487 1.490 . S
C4492 C4494 1.395 . S
C4492 C4495 1.403 . S
H4493 C4499 0.930 . S
C4494 H4480 0.930 . S
C4494 C4492 1.395 . S
C4494 C4497 1.403 . S
C4495 C4492 1.403 . S
C4495 C4496 1.524 . S
C4495 C4499 1.400 . S
C4496 H4481 0.960 . S
C4496 H4482 0.960 . S
C4496 H4483 0.960 . S
C4496 C4495 1.524 . S
C4497 C4494 1.403 . S
C4497 C4498 1.392 . S
C4497 C4501 1.495 . S
C4498 C4497 1.392 . S
C4498 C4499 1.385 . S
C4498 C4500 1.478 . S
C4499 H4493 0.930 . S
C4499 C4495 1.400 . S
C4499 C4498 1.385 . S
C4500 C4498 1.478 . S
C4500 C4502 1.381 . S
C4500 C4506 1.383 . S
C4501 C4497 1.495 . S
C4501 H4507 0.959 . S
C4501 H4508 0.961 . S
C4501 H4509 0.960 . S
C4502 C4500 1.381 . S
C4502 C4503 1.394 . S
C4502 H4510 0.930 . S
C4503 C4502 1.394 . S
C4503 C4504 1.383 . S
C4503 H4511 0.929 . S
C4504 C4503 1.383 . S
C4504 C4505 1.377 . S
C4505 H4489 0.930 . S
C4505 C4504 1.377 . S
C4505 C4506 1.379 . S
C4506 H4490 0.931 . S
C4506 C4500 1.383 . S
C4506 C4505 1.379 . S
H4507 C4501 0.959 . S
H4508 C4501 0.961 . S
H4509 C4501 0.960 . S
H4510 C4502 0.930 . S
H4511 C4503 0.929 . S
H4512 C4520 0.929 . S
H4513 C4522 0.930 . S
H4514 C4524 0.930 . S
H4515 C4527 0.929 . S
H4516 C4530 0.930 . S
H4517 C4532 0.960 . S
H4518 C4532 0.960 . S
H4519 C4532 0.960 . S
C4520 H4512 0.929 . S
C4520 C4521 1.377 . S
C4520 C4522 1.384 . S
C4521 C4520 1.377 . S
C4521 C4527 1.390 . S
C4522 H4513 0.930 . S
C4522 C4520 1.384 . S
C4522 C4523 1.372 . S
C4523 C4522 1.372 . S
C4523 C4524 1.400 . S
C4523 C4528 1.490 . S
C4524 H4514 0.930 . S
C4524 C4523 1.400 . S
C4524 C4527 1.386 . S
H4525 C4541 0.930 . S
H4526 C4542 0.931 . S
C4527 H4515 0.929 . S
C4527 C4521 1.390 . S
C4527 C4524 1.386 . S
C4528 C4523 1.490 . S
C4528 C4530 1.395 . S
C4528 C4531 1.403 . S
H4529 C4535 0.930 . S
C4530 H4516 0.930 . S
C4530 C4528 1.395 . S
C4530 C4533 1.403 . S
C4531 C4528 1.403 . S
C4531 C4532 1.524 . S
C4531 C4535 1.400 . S
C4532 H4517 0.960 . S
C4532 H4518 0.960 . S
C4532 H4519 0.960 . S
C4532 C4531 1.524 . S
C4533 C4530 1.403 . S
C4533 C4534 1.392 . S
C4533 C4537 1.495 . S
C4534 C4533 1.392 . S
C4534 C4535 1.385 . S
C4534 C4536 1.478 . S
C4535 H4529 0.930 . S
C4535 C4531 1.400 . S
C4535 C4534 1.385 . S
C4536 C4534 1.478 . S
C4536 C4538 1.381 . S
C4536 C4542 1.383 . S
C4537 C4533 1.495 . S
C4537 H4543 0.959 . S
C4537 H4544 0.961 . S
C4537 H4545 0.960 . S
C4538 C4536 1.381 . S
C4538 C4539 1.394 . S
C4538 H4546 0.930 . S
C4539 C4538 1.394 . S
C4539 C4540 1.383 . S
C4539 H4547 0.929 . S
C4540 C4539 1.383 . S
C4540 C4541 1.377 . S
C4541 H4525 0.930 . S
C4541 C4540 1.377 . S
C4541 C4542 1.379 . S
C4542 H4526 0.931 . S
C4542 C4536 1.383 . S
C4542 C4541 1.379 . S
H4543 C4537 0.959 . S
H4544 C4537 0.961 . S
H4545 C4537 0.960 . S
H4546 C4538 0.930 . S
H4547 C4539 0.929 . S
H4548 C4556 0.929 . S
H4549 C4558 0.930 . S
H4550 C4560 0.930 . S
H4551 C4563 0.929 . S
H4552 C4566 0.930 . S
H4553 C4568 0.960 . S
H4554 C4568 0.960 . S
H4555 C4568 0.960 . S
C4556 H4548 0.929 . S
C4556 C4557 1.377 . S
C4556 C4558 1.384 . S
C4557 C4556 1.377 . S
C4557 C4563 1.390 . S
C4558 H4549 0.930 . S
C4558 C4556 1.384 . S
C4558 C4559 1.372 . S
C4559 C4558 1.372 . S
C4559 C4560 1.400 . S
C4559 C4564 1.490 . S
C4560 H4550 0.930 . S
C4560 C4559 1.400 . S
C4560 C4563 1.386 . S
H4561 C4577 0.930 . S
H4562 C4578 0.931 . S
C4563 H4551 0.929 . S
C4563 C4557 1.390 . S
C4563 C4560 1.386 . S
C4564 C4559 1.490 . S
C4564 C4566 1.395 . S
C4564 C4567 1.403 . S
H4565 C4571 0.930 . S
C4566 H4552 0.930 . S
C4566 C4564 1.395 . S
C4566 C4569 1.403 . S
C4567 C4564 1.403 . S
C4567 C4568 1.524 . S
C4567 C4571 1.400 . S
C4568 H4553 0.960 . S
C4568 H4554 0.960 . S
C4568 H4555 0.960 . S
C4568 C4567 1.524 . S
C4569 C4566 1.403 . S
C4569 C4570 1.392 . S
C4569 C4573 1.495 . S
C4570 C4569 1.392 . S
C4570 C4571 1.385 . S
C4570 C4572 1.478 . S
C4571 H4565 0.930 . S
C4571 C4567 1.400 . S
C4571 C4570 1.385 . S
C4572 C4570 1.478 . S
C4572 C4574 1.381 . S
C4572 C4578 1.383 . S
C4573 C4569 1.495 . S
C4573 H4579 0.959 . S
C4573 H4580 0.961 . S
C4573 H4581 0.960 . S
C4574 C4572 1.381 . S
C4574 C4575 1.394 . S
C4574 H4582 0.930 . S
C4575 C4574 1.394 . S
C4575 C4576 1.383 . S
C4575 H4583 0.929 . S
C4576 C4575 1.383 . S
C4576 C4577 1.377 . S
C4577 H4561 0.930 . S
C4577 C4576 1.377 . S
C4577 C4578 1.379 . S
C4578 H4562 0.931 . S
C4578 C4572 1.383 . S
C4578 C4577 1.379 . S
H4579 C4573 0.959 . S
H4580 C4573 0.961 . S
H4581 C4573 0.960 . S
H4582 C4574 0.930 . S
H4583 C4575 0.929 . S
H4584 C4592 0.929 . S
H4585 C4594 0.930 . S
H4586 C4596 0.930 . S
H4587 C4599 0.929 . S
H4588 C4602 0.930 . S
H4589 C4604 0.960 . S
H4590 C4604 0.960 . S
H4591 C4604 0.960 . S
C4592 H4584 0.929 . S
C4592 C4593 1.377 . S
C4592 C4594 1.384 . S
C4593 C4592 1.377 . S
C4593 C4599 1.390 . S
C4594 H4585 0.930 . S
C4594 C4592 1.384 . S
C4594 C4595 1.372 . S
C4595 C4594 1.372 . S
C4595 C4596 1.400 . S
C4595 C4600 1.490 . S
C4596 H4586 0.930 . S
C4596 C4595 1.400 . S
C4596 C4599 1.386 . S
H4597 C4613 0.930 . S
H4598 C4614 0.931 . S
C4599 H4587 0.929 . S
C4599 C4593 1.390 . S
C4599 C4596 1.386 . S
C4600 C4595 1.490 . S
C4600 C4602 1.395 . S
C4600 C4603 1.403 . S
H4601 C4607 0.930 . S
C4602 H4588 0.930 . S
C4602 C4600 1.395 . S
C4602 C4605 1.403 . S
C4603 C4600 1.403 . S
C4603 C4604 1.524 . S
C4603 C4607 1.400 . S
C4604 H4589 0.960 . S
C4604 H4590 0.960 . S
C4604 H4591 0.960 . S
C4604 C4603 1.524 . S
C4605 C4602 1.403 . S
C4605 C4606 1.392 . S
C4605 C4609 1.495 . S
C4606 C4605 1.392 . S
C4606 C4607 1.385 . S
C4606 C4608 1.478 . S
C4607 H4601 0.930 . S
C4607 C4603 1.400 . S
C4607 C4606 1.385 . S
C4608 C4606 1.478 . S
C4608 C4610 1.381 . S
C4608 C4614 1.383 . S
C4609 C4605 1.495 . S
C4609 H4615 0.959 . S
C4609 H4616 0.961 . S
C4609 H4617 0.960 . S
C4610 C4608 1.381 . S
C4610 C4611 1.394 . S
C4610 H4618 0.930 . S
C4611 C4610 1.394 . S
C4611 C4612 1.383 . S
C4611 H4619 0.929 . S
C4612 C4611 1.383 . S
C4612 C4613 1.377 . S
C4613 H4597 0.930 . S
C4613 C4612 1.377 . S
C4613 C4614 1.379 . S
C4614 H4598 0.931 . S
C4614 C4608 1.383 . S
C4614 C4613 1.379 . S
H4615 C4609 0.959 . S
H4616 C4609 0.961 . S
H4617 C4609 0.960 . S
H4618 C4610 0.930 . S
H4619 C4611 0.929 . S
H4620 C4628 0.929 . S
H4621 C4630 0.930 . S
H4622 C4632 0.930 . S
H4623 C4635 0.929 . S
H4624 C4638 0.930 . S
H4625 C4640 0.960 . S
H4626 C4640 0.960 . S
H4627 C4640 0.960 . S
C4628 H4620 0.929 . S
C4628 C4629 1.377 . S
C4628 C4630 1.384 . S
C4629 C4628 1.377 . S
C4629 C4635 1.390 . S
C4630 H4621 0.930 . S
C4630 C4628 1.384 . S
C4630 C4631 1.372 . S
C4631 C4630 1.372 . S
C4631 C4632 1.400 . S
C4631 C4636 1.490 . S
C4632 H4622 0.930 . S
C4632 C4631 1.400 . S
C4632 C4635 1.386 . S
H4633 C4649 0.930 . S
H4634 C4650 0.931 . S
C4635 H4623 0.929 . S
C4635 C4629 1.390 . S
C4635 C4632 1.386 . S
C4636 C4631 1.490 . S
C4636 C4638 1.395 . S
C4636 C4639 1.403 . S
H4637 C4643 0.930 . S
C4638 H4624 0.930 . S
C4638 C4636 1.395 . S
C4638 C4641 1.403 . S
C4639 C4636 1.403 . S
C4639 C4640 1.524 . S
C4639 C4643 1.400 . S
C4640 H4625 0.960 . S
C4640 H4626 0.960 . S
C4640 H4627 0.960 . S
C4640 C4639 1.524 . S
C4641 C4638 1.403 . S
C4641 C4642 1.392 . S
C4641 C4645 1.495 . S
C4642 C4641 1.392 . S
C4642 C4643 1.385 . S
C4642 C4644 1.478 . S
C4643 H4637 0.930 . S
C4643 C4639 1.400 . S
C4643 C4642 1.385 . S
C4644 C4642 1.478 . S
C4644 C4646 1.381 . S
C4644 C4650 1.383 . S
C4645 C4641 1.495 . S
C4645 H4651 0.959 . S
C4645 H4652 0.961 . S
C4645 H4653 0.960 . S
C4646 C4644 1.381 . S
C4646 C4647 1.394 . S
C4646 H4654 0.930 . S
C4647 C4646 1.394 . S
C4647 C4648 1.383 . S
C4647 H4655 0.929 . S
C4648 C4647 1.383 . S
C4648 C4649 1.377 . S
C4649 H4633 0.930 . S
C4649 C4648 1.377 . S
C4649 C4650 1.379 . S
C4650 H4634 0.931 . S
C4650 C4644 1.383 . S
C4650 C4649 1.379 . S
H4651 C4645 0.959 . S
H4652 C4645 0.961 . S
H4653 C4645 0.960 . S
H4654 C4646 0.930 . S
H4655 C4647 0.929 . S
H4656 C4664 0.929 . S
H4657 C4666 0.930 . S
H4658 C4668 0.930 . S
H4659 C4671 0.929 . S
H4660 C4674 0.930 . S
H4661 C4676 0.960 . S
H4662 C4676 0.960 . S
H4663 C4676 0.960 . S
C4664 H4656 0.929 . S
C4664 C4665 1.377 . S
C4664 C4666 1.384 . S
C4665 C4664 1.377 . S
C4665 C4671 1.390 . S
C4666 H4657 0.930 . S
C4666 C4664 1.384 . S
C4666 C4667 1.372 . S
C4667 C4666 1.372 . S
C4667 C4668 1.400 . S
C4667 C4672 1.490 . S
C4668 H4658 0.930 . S
C4668 C4667 1.400 . S
C4668 C4671 1.386 . S
H4669 C4685 0.930 . S
H4670 C4686 0.931 . S
C4671 H4659 0.929 . S
C4671 C4665 1.390 . S
C4671 C4668 1.386 . S
C4672 C4667 1.490 . S
C4672 C4674 1.395 . S
C4672 C4675 1.403 . S
H4673 C4679 0.930 . S
C4674 H4660 0.930 . S
C4674 C4672 1.395 . S
C4674 C4677 1.403 . S
C4675 C4672 1.403 . S
C4675 C4676 1.524 . S
C4675 C4679 1.400 . S
C4676 H4661 0.960 . S
C4676 H4662 0.960 . S
C4676 H4663 0.960 . S
C4676 C4675 1.524 . S
C4677 C4674 1.403 . S
C4677 C4678 1.392 . S
C4677 C4681 1.495 . S
C4678 C4677 1.392 . S
C4678 C4679 1.385 . S
C4678 C4680 1.478 . S
C4679 H4673 0.930 . S
C4679 C4675 1.400 . S
C4679 C4678 1.385 . S
C4680 C4678 1.478 . S
C4680 C4682 1.381 . S
C4680 C4686 1.383 . S
C4681 C4677 1.495 . S
C4681 H4687 0.959 . S
C4681 H4688 0.961 . S
C4681 H4689 0.960 . S
C4682 C4680 1.381 . S
C4682 C4683 1.394 . S
C4682 H4690 0.930 . S
C4683 C4682 1.394 . S
C4683 C4684 1.383 . S
C4683 H4691 0.929 . S
C4684 C4683 1.383 . S
C4684 C4685 1.377 . S
C4685 H4669 0.930 . S
C4685 C4684 1.377 . S
C4685 C4686 1.379 . S
C4686 H4670 0.931 . S
C4686 C4680 1.383 . S
C4686 C4685 1.379 . S
H4687 C4681 0.959 . S
H4688 C4681 0.961 . S
H4689 C4681 0.960 . S
H4690 C4682 0.930 . S
H4691 C4683 0.929 . S
H4692 C4700 0.929 . S
H4693 C4702 0.930 . S
H4694 C4704 0.930 . S
H4695 C4707 0.929 . S
H4696 C4710 0.930 . S
H4697 C4712 0.960 . S
H4698 C4712 0.960 . S
H4699 C4712 0.960 . S
C4700 H4692 0.929 . S
C4700 C4701 1.377 . S
C4700 C4702 1.384 . S
C4701 C4700 1.377 . S
C4701 C4707 1.390 . S
C4702 H4693 0.930 . S
C4702 C4700 1.384 . S
C4702 C4703 1.372 . S
C4703 C4702 1.372 . S
C4703 C4704 1.400 . S
C4703 C4708 1.490 . S
C4704 H4694 0.930 . S
C4704 C4703 1.400 . S
C4704 C4707 1.386 . S
H4705 C4721 0.930 . S
H4706 C4722 0.931 . S
C4707 H4695 0.929 . S
C4707 C4701 1.390 . S
C4707 C4704 1.386 . S
C4708 C4703 1.490 . S
C4708 C4710 1.395 . S
C4708 C4711 1.403 . S
H4709 C4715 0.930 . S
C4710 H4696 0.930 . S
C4710 C4708 1.395 . S
C4710 C4713 1.403 . S
C4711 C4708 1.403 . S
C4711 C4712 1.524 . S
C4711 C4715 1.400 . S
C4712 H4697 0.960 . S
C4712 H4698 0.960 . S
C4712 H4699 0.960 . S
C4712 C4711 1.524 . S
C4713 C4710 1.403 . S
C4713 C4714 1.392 . S
C4713 C4717 1.495 . S
C4714 C4713 1.392 . S
C4714 C4715 1.385 . S
C4714 C4716 1.478 . S
C4715 H4709 0.930 . S
C4715 C4711 1.400 . S
C4715 C4714 1.385 . S
C4716 C4714 1.478 . S
C4716 C4718 1.381 . S
C4716 C4722 1.383 . S
C4717 C4713 1.495 . S
C4717 H4723 0.959 . S
C4717 H4724 0.961 . S
C4717 H4725 0.960 . S
C4718 C4716 1.381 . S
C4718 C4719 1.394 . S
C4718 H4726 0.930 . S
C4719 C4718 1.394 . S
C4719 C4720 1.383 . S
C4719 H4727 0.929 . S
C4720 C4719 1.383 . S
C4720 C4721 1.377 . S
C4721 H4705 0.930 . S
C4721 C4720 1.377 . S
C4721 C4722 1.379 . S
C4722 H4706 0.931 . S
C4722 C4716 1.383 . S
C4722 C4721 1.379 . S
H4723 C4717 0.959 . S
H4724 C4717 0.961 . S
H4725 C4717 0.960 . S
H4726 C4718 0.930 . S
H4727 C4719 0.929 . S
H4728 C4736 0.929 . S
H4729 C4738 0.930 . S
H4730 C4740 0.930 . S
H4731 C4743 0.929 . S
H4732 C4746 0.930 . S
H4733 C4748 0.960 . S
H4734 C4748 0.960 . S
H4735 C4748 0.960 . S
C4736 H4728 0.929 . S
C4736 C4737 1.377 . S
C4736 C4738 1.384 . S
C4737 C4736 1.377 . S
C4737 C4743 1.390 . S
C4738 H4729 0.930 . S
C4738 C4736 1.384 . S
C4738 C4739 1.372 . S
C4739 C4738 1.372 . S
C4739 C4740 1.400 . S
C4739 C4744 1.490 . S
C4740 H4730 0.930 . S
C4740 C4739 1.400 . S
C4740 C4743 1.386 . S
H4741 C4757 0.930 . S
H4742 C4758 0.931 . S
C4743 H4731 0.929 . S
C4743 C4737 1.390 . S
C4743 C4740 1.386 . S
C4744 C4739 1.490 . S
C4744 C4746 1.395 . S
C4744 C4747 1.403 . S
H4745 C4751 0.930 . S
C4746 H4732 0.930 . S
C4746 C4744 1.395 . S
C4746 C4749 1.403 . S
C4747 C4744 1.403 . S
C4747 C4748 1.524 . S
C4747 C4751 1.400 . S
C4748 H4733 0.960 . S
C4748 H4734 0.960 . S
C4748 H4735 0.960 . S
C4748 C4747 1.524 . S
C4749 C4746 1.403 . S
C4749 C4750 1.392 . S
C4749 C4753 1.495 . S
C4750 C4749 1.392 . S
C4750 C4751 1.385 . S
C4750 C4752 1.478 . S
C4751 H4745 0.930 . S
C4751 C4747 1.400 . S
C4751 C4750 1.385 . S
C4752 C4750 1.478 . S
C4752 C4754 1.381 . S
C4752 C4758 1.383 . S
C4753 C4749 1.495 . S
C4753 H4759 0.959 . S
C4753 H4760 0.961 . S
C4753 H4761 0.960 . S
C4754 C4752 1.381 . S
C4754 C4755 1.394 . S
C4754 H4762 0.930 . S
C4755 C4754 1.394 . S
C4755 C4756 1.383 . S
C4755 H4763 0.929 . S
C4756 C4755 1.383 . S
C4756 C4757 1.377 . S
C4757 H4741 0.930 . S
C4757 C4756 1.377 . S
C4757 C4758 1.379 . S
C4758 H4742 0.931 . S
C4758 C4752 1.383 . S
C4758 C4757 1.379 . S
H4759 C4753 0.959 . S
H4760 C4753 0.961 . S
H4761 C4753 0.960 . S
H4762 C4754 0.930 . S
H4763 C4755 0.929 . S
H4764 C4772 0.929 . S
H4765 C4774 0.930 . S
H4766 C4776 0.930 . S
H4767 C4779 0.929 . S
H4768 C4782 0.930 . S
H4769 C4784 0.960 . S
H4770 C4784 0.960 . S
H4771 C4784 0.960 . S
C4772 H4764 0.929 . S
C4772 C4773 1.377 . S
C4772 C4774 1.384 . S
C4773 C4772 1.377 . S
C4773 C4779 1.390 . S
C4774 H4765 0.930 . S
C4774 C4772 1.384 . S
C4774 C4775 1.372 . S
C4775 C4774 1.372 . S
C4775 C4776 1.400 . S
C4775 C4780 1.490 . S
C4776 H4766 0.930 . S
C4776 C4775 1.400 . S
C4776 C4779 1.386 . S
H4777 C4793 0.930 . S
H4778 C4794 0.931 . S
C4779 H4767 0.929 . S
C4779 C4773 1.390 . S
C4779 C4776 1.386 . S
C4780 C4775 1.490 . S
C4780 C4782 1.395 . S
C4780 C4783 1.403 . S
H4781 C4787 0.930 . S
C4782 H4768 0.930 . S
C4782 C4780 1.395 . S
C4782 C4785 1.403 . S
C4783 C4780 1.403 . S
C4783 C4784 1.524 . S
C4783 C4787 1.400 . S
C4784 H4769 0.960 . S
C4784 H4770 0.960 . S
C4784 H4771 0.960 . S
C4784 C4783 1.524 . S
C4785 C4782 1.403 . S
C4785 C4786 1.392 . S
C4785 C4789 1.495 . S
C4786 C4785 1.392 . S
C4786 C4787 1.385 . S
C4786 C4788 1.478 . S
C4787 H4781 0.930 . S
C4787 C4783 1.400 . S
C4787 C4786 1.385 . S
C4788 C4786 1.478 . S
C4788 C4790 1.381 . S
C4788 C4794 1.383 . S
C4789 C4785 1.495 . S
C4789 H4795 0.959 . S
C4789 H4796 0.961 . S
C4789 H4797 0.960 . S
C4790 C4788 1.381 . S
C4790 C4791 1.394 . S
C4790 H4798 0.930 . S
C4791 C4790 1.394 . S
C4791 C4792 1.383 . S
C4791 H4799 0.929 . S
C4792 C4791 1.383 . S
C4792 C4793 1.377 . S
C4793 H4777 0.930 . S
C4793 C4792 1.377 . S
C4793 C4794 1.379 . S
C4794 H4778 0.931 . S
C4794 C4788 1.383 . S
C4794 C4793 1.379 . S
H4795 C4789 0.959 . S
H4796 C4789 0.961 . S
H4797 C4789 0.960 . S
H4798 C4790 0.930 . S
H4799 C4791 0.929 . S
H4800 C4808 0.929 . S
H4801 C4810 0.930 . S
H4802 C4812 0.930 . S
H4803 C4815 0.929 . S
H4804 C4818 0.930 . S
H4805 C4820 0.960 . S
H4806 C4820 0.960 . S
H4807 C4820 0.960 . S
C4808 H4800 0.929 . S
C4808 C4809 1.377 . S
C4808 C4810 1.384 . S
C4809 C4808 1.377 . S
C4809 C4815 1.390 . S
C4810 H4801 0.930 . S
C4810 C4808 1.384 . S
C4810 C4811 1.372 . S
C4811 C4810 1.372 . S
C4811 C4812 1.400 . S
C4811 C4816 1.490 . S
C4812 H4802 0.930 . S
C4812 C4811 1.400 . S
C4812 C4815 1.386 . S
H4813 C4829 0.930 . S
H4814 C4830 0.931 . S
C4815 H4803 0.929 . S
C4815 C4809 1.390 . S
C4815 C4812 1.386 . S
C4816 C4811 1.490 . S
C4816 C4818 1.395 . S
C4816 C4819 1.403 . S
H4817 C4823 0.930 . S
C4818 H4804 0.930 . S
C4818 C4816 1.395 . S
C4818 C4821 1.403 1_455 S
C4819 C4816 1.403 . S
C4819 C4820 1.524 . S
C4819 C4823 1.400 1_455 S
C4820 H4805 0.960 . S
C4820 H4806 0.960 . S
C4820 H4807 0.960 . S
C4820 C4819 1.524 . S
C4821 C4818 1.403 1_655 S
C4821 C4822 1.392 . S
C4821 C4825 1.495 . S
C4822 C4821 1.392 . S
C4822 C4823 1.385 . S
C4822 C4824 1.478 . S
C4823 H4817 0.930 . S
C4823 C4819 1.400 1_655 S
C4823 C4822 1.385 . S
C4824 C4822 1.478 . S
C4824 C4826 1.381 . S
C4824 C4830 1.383 . S
C4825 C4821 1.495 . S
C4825 H4831 0.959 . S
C4825 H4832 0.961 . S
C4825 H4833 0.960 . S
C4826 C4824 1.381 . S
C4826 C4827 1.394 . S
C4826 H4834 0.930 . S
C4827 C4826 1.394 . S
C4827 C4828 1.383 . S
C4827 H4835 0.929 . S
C4828 C4827 1.383 . S
C4828 C4829 1.377 . S
C4829 H4813 0.930 . S
C4829 C4828 1.377 . S
C4829 C4830 1.379 . S
C4830 H4814 0.931 . S
C4830 C4824 1.383 . S
C4830 C4829 1.379 . S
H4831 C4825 0.959 . S
H4832 C4825 0.961 . S
H4833 C4825 0.960 . S
H4834 C4826 0.930 . S
H4835 C4827 0.929 . S
H4836 C4844 0.929 . S
H4837 C4846 0.930 . S
H4838 C4848 0.930 . S
H4839 C4851 0.929 . S
H4840 C4854 0.930 . S
H4841 C4856 1.023 . S
H4842 C4856 0.960 . S
H4843 C4856 0.960 . S
C4844 H4836 0.929 . S
C4844 C4845 1.377 . S
C4844 C4846 1.384 . S
C4845 C4844 1.377 . S
C4845 C4851 1.390 . S
C4846 H4837 0.930 . S
C4846 C4844 1.384 . S
C4846 C4847 1.372 . S
C4847 C4846 1.372 . S
C4847 C4848 1.400 . S
C4847 C4852 1.490 . S
C4848 H4838 0.930 . S
C4848 C4847 1.400 . S
C4848 C4851 1.386 . S
H4849 C4865 0.930 . S
H4850 C4866 0.931 . S
C4851 H4839 0.929 . S
C4851 C4845 1.390 . S
C4851 C4848 1.386 . S
C4852 C4847 1.490 . S
C4852 C4854 1.395 . S
C4852 C4855 1.403 . S
H4853 C4859 0.930 . S
C4854 H4840 0.930 . S
C4854 C4852 1.395 . S
C4854 C4857 1.403 1_545 S
C4855 C4852 1.403 . S
C4855 C4856 1.524 . S
C4855 C4859 1.400 1_545 S
C4856 H4841 1.023 . S
C4856 H4842 0.960 . S
C4856 H4843 0.960 . S
C4856 C4855 1.524 . S
C4857 C4854 1.403 1_565 S
C4857 C4858 1.392 . S
C4857 C4861 1.495 . S
C4858 C4857 1.392 . S
C4858 C4859 1.385 . S
C4858 C4860 1.478 . S
C4859 H4853 0.930 . S
C4859 C4855 1.400 1_565 S
C4859 C4858 1.385 . S
C4860 C4858 1.478 . S
C4860 C4862 1.381 . S
C4860 C4866 1.383 . S
C4861 C4857 1.495 . S
C4861 H4867 0.959 . S
C4861 H4868 0.961 . S
C4861 H4869 0.960 . S
C4862 C4860 1.381 . S
C4862 C4863 1.394 . S
C4862 H4870 0.930 . S
C4863 C4862 1.394 . S
C4863 C4864 1.383 . S
C4863 H4871 0.929 . S
C4864 C4863 1.383 . S
C4864 C4865 1.377 . S
C4865 H4849 0.930 . S
C4865 C4864 1.377 . S
C4865 C4866 1.379 . S
C4866 H4850 0.931 . S
C4866 C4860 1.383 . S
C4866 C4865 1.379 . S
H4867 C4861 0.959 . S
H4868 C4861 0.961 . S
H4869 C4861 0.960 . S
H4870 C4862 0.930 . S
H4871 C4863 0.929 . S
H4872 C4880 0.929 . S
H4873 C4882 0.930 . S
H4874 C4884 0.930 . S
H4875 C4887 0.929 . S
H4876 C4890 0.930 . S
H4877 C4892 0.994 . S
H4878 C4892 0.960 . S
H4879 C4892 0.960 . S
C4880 H4872 0.929 . S
C4880 C4881 1.377 . S
C4880 C4882 1.384 . S
C4881 C4880 1.377 . S
C4881 C4887 1.390 . S
C4882 H4873 0.930 . S
C4882 C4880 1.384 . S
C4882 C4883 1.372 . S
C4883 C4882 1.372 . S
C4883 C4884 1.400 . S
C4883 C4888 1.490 . S
C4884 H4874 0.930 . S
C4884 C4883 1.400 . S
C4884 C4887 1.386 . S
H4885 C4901 0.930 . S
H4886 C4902 0.931 . S
C4887 H4875 0.929 . S
C4887 C4881 1.390 . S
C4887 C4884 1.386 . S
C4888 C4883 1.490 . S
C4888 C4890 1.395 . S
C4888 C4891 1.403 . S
H4889 C4895 0.930 . S
C4890 H4876 0.930 . S
C4890 C4888 1.395 . S
C4890 C4893 1.403 1_655 S
C4891 C4888 1.403 . S
C4891 C4892 1.524 . S
C4891 C4895 1.400 1_655 S
C4892 H4877 0.994 . S
C4892 H4878 0.960 . S
C4892 H4879 0.960 . S
C4892 C4891 1.524 . S
C4893 C4890 1.403 1_455 S
C4893 C4894 1.392 . S
C4893 C4897 1.495 . S
C4894 C4893 1.392 . S
C4894 C4895 1.385 . S
C4894 C4896 1.478 . S
C4895 H4889 0.930 . S
C4895 C4891 1.400 1_455 S
C4895 C4894 1.385 . S
C4896 C4894 1.478 . S
C4896 C4898 1.381 . S
C4896 C4902 1.383 . S
C4897 C4893 1.495 . S
C4897 H4903 0.959 . S
C4897 H4904 0.961 . S
C4897 H4905 0.960 . S
C4898 C4896 1.381 . S
C4898 C4899 1.394 . S
C4898 H4906 0.930 . S
C4899 C4898 1.394 . S
C4899 C4900 1.383 . S
C4899 H4907 0.929 . S
C4900 C4899 1.383 . S
C4900 C4901 1.377 . S
C4901 H4885 0.930 . S
C4901 C4900 1.377 . S
C4901 C4902 1.379 . S
C4902 H4886 0.931 . S
C4902 C4896 1.383 . S
C4902 C4901 1.379 . S
H4903 C4897 0.959 . S
H4904 C4897 0.961 . S
H4905 C4897 0.960 . S
H4906 C4898 0.930 . S
H4907 C4899 0.929 . S
H4908 C4916 0.929 . S
H4909 C4918 0.930 . S
H4910 C4920 0.930 . S
H4911 C4923 0.929 . S
H4912 C4926 0.930 . S
H4913 C4928 0.960 . S
H4914 C4928 0.960 . S
H4915 C4928 0.960 . S
C4916 H4908 0.929 . S
C4916 C4917 1.377 . S
C4916 C4918 1.384 . S
C4917 C4916 1.377 . S
C4917 C4923 1.390 . S
C4918 H4909 0.930 . S
C4918 C4916 1.384 . S
C4918 C4919 1.372 . S
C4919 C4918 1.372 . S
C4919 C4920 1.400 . S
C4919 C4924 1.490 . S
C4920 H4910 0.930 . S
C4920 C4919 1.400 . S
C4920 C4923 1.386 . S
H4921 C4937 0.930 . S
H4922 C4938 0.931 . S
C4923 H4911 0.929 . S
C4923 C4917 1.390 . S
C4923 C4920 1.386 . S
C4924 C4919 1.490 . S
C4924 C4926 1.395 . S
C4924 C4927 1.403 . S
H4925 C4931 0.930 . S
C4926 H4912 0.930 . S
C4926 C4924 1.395 . S
C4926 C4929 1.403 1_565 S
C4927 C4924 1.403 . S
C4927 C4928 1.524 . S
C4927 C4931 1.400 1_565 S
C4928 H4913 0.960 . S
C4928 H4914 0.960 . S
C4928 H4915 0.960 . S
C4928 C4927 1.524 . S
C4929 C4926 1.403 1_545 S
C4929 C4930 1.392 . S
C4929 C4933 1.495 . S
C4930 C4929 1.392 . S
C4930 C4931 1.385 . S
C4930 C4932 1.478 . S
C4931 H4925 0.930 . S
C4931 C4927 1.400 1_545 S
C4931 C4930 1.385 . S
C4932 C4930 1.478 . S
C4932 C4934 1.381 . S
C4932 C4938 1.383 . S
C4933 C4929 1.495 . S
C4933 H4939 0.959 . S
C4933 H4940 0.961 . S
C4933 H4941 0.960 . S
C4934 C4932 1.381 . S
C4934 C4935 1.394 . S
C4934 H4942 0.930 . S
C4935 C4934 1.394 . S
C4935 C4936 1.383 . S
C4935 H4943 0.929 . S
C4936 C4935 1.383 . S
C4936 C4937 1.377 . S
C4937 H4921 0.930 . S
C4937 C4936 1.377 . S
C4937 C4938 1.379 . S
C4938 H4922 0.931 . S
C4938 C4932 1.383 . S
C4938 C4937 1.379 . S
H4939 C4933 0.959 . S
H4940 C4933 0.961 . S
H4941 C4933 0.960 . S
H4942 C4934 0.930 . S
H4943 C4935 0.929 . S
H4944 C4952 0.929 . S
H4945 C4954 0.930 . S
H4946 C4956 0.930 . S
H4947 C4959 0.929 . S
H4948 C4962 0.930 . S
H4949 C4964 0.960 . S
H4950 C4964 0.960 . S
H4951 C4964 0.960 . S
C4952 H4944 0.929 . S
C4952 C4953 1.377 . S
C4952 C4954 1.384 . S
C4953 C4952 1.377 . S
C4953 C4959 1.390 . S
C4954 H4945 0.930 . S
C4954 C4952 1.384 . S
C4954 C4955 1.372 . S
C4955 C4954 1.372 . S
C4955 C4956 1.400 . S
C4955 C4960 1.490 . S
C4956 H4946 0.930 . S
C4956 C4955 1.400 . S
C4956 C4959 1.386 . S
H4957 C4973 0.930 . S
H4958 C4974 0.931 . S
C4959 H4947 0.929 . S
C4959 C4953 1.390 . S
C4959 C4956 1.386 . S
C4960 C4955 1.490 . S
C4960 C4962 1.395 . S
C4960 C4963 1.403 . S
H4961 C4967 0.930 . S
C4962 H4948 0.930 . S
C4962 C4960 1.395 . S
C4962 C4965 1.403 1_655 S
C4963 C4960 1.403 . S
C4963 C4964 1.524 . S
C4963 C4967 1.400 1_655 S
C4964 H4949 0.960 . S
C4964 H4950 0.960 . S
C4964 H4951 0.960 . S
C4964 C4963 1.524 . S
C4965 C4962 1.403 1_455 S
C4965 C4966 1.392 . S
C4965 C4969 1.495 . S
C4966 C4965 1.392 . S
C4966 C4967 1.385 . S
C4966 C4968 1.478 . S
C4967 H4961 0.930 . S
C4967 C4963 1.400 1_455 S
C4967 C4966 1.385 . S
C4968 C4966 1.478 . S
C4968 C4970 1.381 . S
C4968 C4974 1.383 . S
C4969 C4965 1.495 . S
C4969 H4975 0.992 . S
C4969 H4976 0.961 . S
C4969 H4977 0.960 . S
C4970 C4968 1.381 . S
C4970 C4971 1.394 . S
C4970 H4978 0.930 . S
C4971 C4970 1.394 . S
C4971 C4972 1.383 . S
C4971 H4979 0.929 . S
C4972 C4971 1.383 . S
C4972 C4973 1.377 . S
C4973 H4957 0.930 . S
C4973 C4972 1.377 . S
C4973 C4974 1.379 . S
C4974 H4958 0.931 . S
C4974 C4968 1.383 . S
C4974 C4973 1.379 . S
H4975 C4969 0.992 . S
H4976 C4969 0.961 . S
H4977 C4969 0.960 . S
H4978 C4970 0.930 . S
H4979 C4971 0.929 . S
H4980 C4988 0.929 . S
H4981 C4990 0.930 . S
H4982 C4992 0.930 . S
H4983 C4995 0.929 . S
H4984 C4998 0.930 . S
H4985 C5000 0.960 . S
H4986 C5000 0.960 . S
H4987 C5000 0.960 . S
C4988 H4980 0.929 . S
C4988 C4989 1.377 . S
C4988 C4990 1.384 . S
C4989 C4988 1.377 . S
C4989 C4995 1.390 . S
C4990 H4981 0.930 . S
C4990 C4988 1.384 . S
C4990 C4991 1.372 . S
C4991 C4990 1.372 . S
C4991 C4992 1.400 . S
C4991 C4996 1.490 . S
C4992 H4982 0.930 . S
C4992 C4991 1.400 . S
C4992 C4995 1.386 . S
H4993 C5009 0.930 . S
H4994 C5010 0.931 . S
C4995 H4983 0.929 . S
C4995 C4989 1.390 . S
C4995 C4992 1.386 . S
C4996 C4991 1.490 . S
C4996 C4998 1.395 . S
C4996 C4999 1.403 . S
H4997 C5003 0.930 . S
C4998 H4984 0.930 . S
C4998 C4996 1.395 . S
C4998 C5001 1.403 1_545 S
C4999 C4996 1.403 . S
C4999 C5000 1.524 . S
C4999 C5003 1.400 1_545 S
C5000 H4985 0.960 . S
C5000 H4986 0.960 . S
C5000 H4987 0.960 . S
C5000 C4999 1.524 . S
C5001 C4998 1.403 1_565 S
C5001 C5002 1.392 . S
C5001 C5005 1.495 . S
C5002 C5001 1.392 . S
C5002 C5003 1.385 . S
C5002 C5004 1.478 . S
C5003 H4997 0.930 . S
C5003 C4999 1.400 1_565 S
C5003 C5002 1.385 . S
C5004 C5002 1.478 . S
C5004 C5006 1.381 . S
C5004 C5010 1.383 . S
C5005 C5001 1.495 . S
C5005 H5011 0.959 . S
C5005 H5012 0.961 . S
C5005 H5013 0.960 . S
C5006 C5004 1.381 . S
C5006 C5007 1.394 . S
C5006 H5014 0.930 . S
C5007 C5006 1.394 . S
C5007 C5008 1.383 . S
C5007 H5015 0.929 . S
C5008 C5007 1.383 . S
C5008 C5009 1.377 . S
C5009 H4993 0.930 . S
C5009 C5008 1.377 . S
C5009 C5010 1.379 . S
C5010 H4994 0.931 . S
C5010 C5004 1.383 . S
C5010 C5009 1.379 . S
H5011 C5005 0.959 . S
H5012 C5005 0.961 . S
H5013 C5005 0.960 . S
H5014 C5006 0.930 . S
H5015 C5007 0.929 . S
H5016 C5024 0.929 . S
H5017 C5026 0.930 . S
H5018 C5028 0.930 . S
H5019 C5031 0.929 . S
H5020 C5034 0.930 . S
H5021 C5036 0.960 . S
H5022 C5036 0.960 . S
H5023 C5036 0.960 . S
C5024 H5016 0.929 . S
C5024 C5025 1.377 . S
C5024 C5026 1.384 . S
C5025 C5024 1.377 . S
C5025 C5031 1.390 . S
C5026 H5017 0.930 . S
C5026 C5024 1.384 . S
C5026 C5027 1.372 . S
C5027 C5026 1.372 . S
C5027 C5028 1.400 . S
C5027 C5032 1.490 . S
C5028 H5018 0.930 . S
C5028 C5027 1.400 . S
C5028 C5031 1.386 . S
H5029 C5045 0.930 . S
H5030 C5046 0.931 . S
C5031 H5019 0.929 . S
C5031 C5025 1.390 . S
C5031 C5028 1.386 . S
C5032 C5027 1.490 . S
C5032 C5034 1.395 . S
C5032 C5035 1.403 . S
H5033 C5039 0.930 . S
C5034 H5020 0.930 . S
C5034 C5032 1.395 . S
C5034 C5037 1.403 1_455 S
C5035 C5032 1.403 . S
C5035 C5036 1.524 . S
C5035 C5039 1.400 1_455 S
C5036 H5021 0.960 . S
C5036 H5022 0.960 . S
C5036 H5023 0.960 . S
C5036 C5035 1.524 . S
C5037 C5034 1.403 1_655 S
C5037 C5038 1.392 . S
C5037 C5041 1.495 . S
C5038 C5037 1.392 . S
C5038 C5039 1.385 . S
C5038 C5040 1.478 . S
C5039 H5033 0.930 . S
C5039 C5035 1.400 1_655 S
C5039 C5038 1.385 . S
C5040 C5038 1.478 . S
C5040 C5042 1.381 . S
C5040 C5046 1.383 . S
C5041 C5037 1.495 . S
C5041 H5047 0.959 . S
C5041 H5048 0.961 . S
C5041 H5049 0.960 . S
C5042 C5040 1.381 . S
C5042 C5043 1.394 . S
C5042 H5050 0.930 . S
C5043 C5042 1.394 . S
C5043 C5044 1.383 . S
C5043 H5051 0.929 . S
C5044 C5043 1.383 . S
C5044 C5045 1.377 . S
C5045 H5029 0.930 . S
C5045 C5044 1.377 . S
C5045 C5046 1.379 . S
C5046 H5030 0.931 . S
C5046 C5040 1.383 . S
C5046 C5045 1.379 . S
H5047 C5041 0.959 . S
H5048 C5041 0.961 . S
H5049 C5041 0.960 . S
H5050 C5042 0.930 . S
H5051 C5043 0.929 . S
H5052 C5060 0.929 . S
H5053 C5062 0.930 . S
H5054 C5064 0.930 . S
H5055 C5067 0.929 . S
H5056 C5070 0.930 . S
H5057 C5072 0.960 . S
H5058 C5072 0.960 . S
H5059 C5072 0.960 . S
C5060 H5052 0.929 . S
C5060 C5061 1.377 . S
C5060 C5062 1.384 . S
C5061 C5060 1.377 . S
C5061 C5067 1.390 . S
C5062 H5053 0.930 . S
C5062 C5060 1.384 . S
C5062 C5063 1.372 . S
C5063 C5062 1.372 . S
C5063 C5064 1.400 . S
C5063 C5068 1.490 . S
C5064 H5054 0.930 . S
C5064 C5063 1.400 . S
C5064 C5067 1.386 . S
H5065 C5081 0.930 . S
H5066 C5082 0.931 . S
C5067 H5055 0.929 . S
C5067 C5061 1.390 . S
C5067 C5064 1.386 . S
C5068 C5063 1.490 . S
C5068 C5070 1.395 . S
C5068 C5071 1.403 . S
H5069 C5075 0.930 . S
C5070 H5056 0.930 . S
C5070 C5068 1.395 . S
C5070 C5073 1.403 1_545 S
C5071 C5068 1.403 . S
C5071 C5072 1.524 . S
C5071 C5075 1.400 1_545 S
C5072 H5057 0.960 . S
C5072 H5058 0.960 . S
C5072 H5059 0.960 . S
C5072 C5071 1.524 . S
C5073 C5070 1.403 1_565 S
C5073 C5074 1.392 . S
C5073 C5077 1.495 . S
C5074 C5073 1.392 . S
C5074 C5075 1.385 . S
C5074 C5076 1.478 . S
C5075 H5069 0.930 . S
C5075 C5071 1.400 1_565 S
C5075 C5074 1.385 . S
C5076 C5074 1.478 . S
C5076 C5078 1.381 . S
C5076 C5082 1.383 . S
C5077 C5073 1.495 . S
C5077 H5083 0.959 . S
C5077 H5084 0.961 . S
C5077 H5085 0.960 . S
C5078 C5076 1.381 . S
C5078 C5079 1.394 . S
C5078 H5086 0.930 . S
C5079 C5078 1.394 . S
C5079 C5080 1.383 . S
C5079 H5087 0.929 . S
C5080 C5079 1.383 . S
C5080 C5081 1.377 . S
C5081 H5065 0.930 . S
C5081 C5080 1.377 . S
C5081 C5082 1.379 . S
C5082 H5066 0.931 . S
C5082 C5076 1.383 . S
C5082 C5081 1.379 . S
H5083 C5077 0.959 . S
H5084 C5077 0.961 . S
H5085 C5077 0.960 . S
H5086 C5078 0.930 . S
H5087 C5079 0.929 . S
H5088 C5096 0.929 . S
H5089 C5098 0.930 . S
H5090 C5100 0.930 . S
H5091 C5103 0.929 . S
H5092 C5106 0.930 . S
H5093 C5108 0.960 . S
H5094 C5108 0.960 . S
H5095 C5108 0.960 . S
C5096 H5088 0.929 . S
C5096 C5097 1.377 . S
C5096 C5098 1.384 . S
C5097 C5096 1.377 . S
C5097 C5103 1.390 . S
C5098 H5089 0.930 . S
C5098 C5096 1.384 . S
C5098 C5099 1.372 . S
C5099 C5098 1.372 . S
C5099 C5100 1.400 . S
C5099 C5104 1.490 . S
C5100 H5090 0.930 . S
C5100 C5099 1.400 . S
C5100 C5103 1.386 . S
H5101 C5117 0.930 . S
H5102 C5118 0.931 . S
C5103 H5091 0.929 . S
C5103 C5097 1.390 . S
C5103 C5100 1.386 . S
C5104 C5099 1.490 . S
C5104 C5106 1.395 . S
C5104 C5107 1.403 . S
H5105 C5111 0.930 . S
C5106 H5092 0.930 . S
C5106 C5104 1.395 . S
C5106 C5109 1.403 1_545 S
C5107 C5104 1.403 . S
C5107 C5108 1.524 . S
C5107 C5111 1.400 1_545 S
C5108 H5093 0.960 . S
C5108 H5094 0.960 . S
C5108 H5095 0.960 . S
C5108 C5107 1.524 . S
C5109 C5106 1.403 1_565 S
C5109 C5110 1.392 . S
C5109 C5113 1.495 . S
C5110 C5109 1.392 . S
C5110 C5111 1.385 . S
C5110 C5112 1.478 . S
C5111 H5105 0.930 . S
C5111 C5107 1.400 1_565 S
C5111 C5110 1.385 . S
C5112 C5110 1.478 . S
C5112 C5114 1.381 . S
C5112 C5118 1.383 . S
C5113 C5109 1.495 . S
C5113 H5119 0.959 . S
C5113 H5120 0.961 . S
C5113 H5121 0.960 . S
C5114 C5112 1.381 . S
C5114 C5115 1.394 . S
C5114 H5122 0.930 . S
C5115 C5114 1.394 . S
C5115 C5116 1.383 . S
C5115 H5123 0.929 . S
C5116 C5115 1.383 . S
C5116 C5117 1.377 . S
C5117 H5101 0.930 . S
C5117 C5116 1.377 . S
C5117 C5118 1.379 . S
C5118 H5102 0.931 . S
C5118 C5112 1.383 . S
C5118 C5117 1.379 . S
H5119 C5113 0.959 . S
H5120 C5113 0.961 . S
H5121 C5113 0.960 . S
H5122 C5114 0.930 . S
H5123 C5115 0.929 . S
H5124 C5132 0.929 . S
H5125 C5134 0.930 . S
H5126 C5136 0.930 . S
H5127 C5139 0.929 . S
H5128 C5142 0.930 . S
H5129 C5144 0.960 . S
H5130 C5144 0.960 . S
H5131 C5144 0.960 . S
C5132 H5124 0.929 . S
C5132 C5133 1.377 . S
C5132 C5134 1.384 . S
C5133 C5132 1.377 . S
C5133 C5139 1.390 . S
C5134 H5125 0.930 . S
C5134 C5132 1.384 . S
C5134 C5135 1.372 . S
C5135 C5134 1.372 . S
C5135 C5136 1.400 . S
C5135 C5140 1.490 . S
C5136 H5126 0.930 . S
C5136 C5135 1.400 . S
C5136 C5139 1.386 . S
H5137 C5153 0.930 . S
H5138 C5154 0.931 . S
C5139 H5127 0.929 . S
C5139 C5133 1.390 . S
C5139 C5136 1.386 . S
C5140 C5135 1.490 . S
C5140 C5142 1.395 . S
C5140 C5143 1.403 . S
H5141 C5147 0.930 . S
C5142 H5128 0.930 . S
C5142 C5140 1.395 . S
C5142 C5145 1.403 1_455 S
C5143 C5140 1.403 . S
C5143 C5144 1.524 . S
C5143 C5147 1.400 1_455 S
C5144 H5129 0.960 . S
C5144 H5130 0.960 . S
C5144 H5131 0.960 . S
C5144 C5143 1.524 . S
C5145 C5142 1.403 1_655 S
C5145 C5146 1.392 . S
C5145 C5149 1.495 . S
C5146 C5145 1.392 . S
C5146 C5147 1.385 . S
C5146 C5148 1.478 . S
C5147 H5141 0.930 . S
C5147 C5143 1.400 1_655 S
C5147 C5146 1.385 . S
C5148 C5146 1.478 . S
C5148 C5150 1.381 . S
C5148 C5154 1.383 . S
C5149 C5145 1.495 . S
C5149 H5155 0.959 . S
C5149 H5156 0.961 . S
C5149 H5157 0.960 . S
C5150 C5148 1.381 . S
C5150 C5151 1.394 . S
C5150 H5158 0.930 . S
C5151 C5150 1.394 . S
C5151 C5152 1.383 . S
C5151 H5159 0.929 . S
C5152 C5151 1.383 . S
C5152 C5153 1.377 . S
C5153 H5137 0.930 . S
C5153 C5152 1.377 . S
C5153 C5154 1.379 . S
C5154 H5138 0.931 . S
C5154 C5148 1.383 . S
C5154 C5153 1.379 . S
H5155 C5149 0.959 . S
H5156 C5149 0.961 . S
H5157 C5149 0.960 . S
H5158 C5150 0.930 . S
H5159 C5151 0.929 . S
H5160 C5168 0.929 . S
H5161 C5170 0.930 . S
H5162 C5172 0.930 . S
H5163 C5175 0.929 . S
H5164 C5178 0.930 . S
H5165 C5180 0.960 . S
H5166 C5180 0.960 . S
H5167 C5180 0.960 . S
C5168 H5160 0.929 . S
C5168 C5169 1.377 . S
C5168 C5170 1.384 . S
C5169 C5168 1.377 . S
C5169 C5175 1.390 . S
C5170 H5161 0.930 . S
C5170 C5168 1.384 . S
C5170 C5171 1.372 . S
C5171 C5170 1.372 . S
C5171 C5172 1.400 . S
C5171 C5176 1.490 . S
C5172 H5162 0.930 . S
C5172 C5171 1.400 . S
C5172 C5175 1.386 . S
H5173 C5189 0.930 . S
H5174 C5190 0.931 . S
C5175 H5163 0.929 . S
C5175 C5169 1.390 . S
C5175 C5172 1.386 . S
C5176 C5171 1.490 . S
C5176 C5178 1.395 . S
C5176 C5179 1.403 . S
H5177 C5183 0.930 . S
C5178 H5164 0.930 . S
C5178 C5176 1.395 . S
C5178 C5181 1.403 1_565 S
C5179 C5176 1.403 . S
C5179 C5180 1.524 . S
C5179 C5183 1.400 1_565 S
C5180 H5165 0.960 . S
C5180 H5166 0.960 . S
C5180 H5167 0.960 . S
C5180 C5179 1.524 . S
C5181 C5178 1.403 1_545 S
C5181 C5182 1.392 . S
C5181 C5185 1.495 . S
C5182 C5181 1.392 . S
C5182 C5183 1.385 . S
C5182 C5184 1.478 . S
C5183 H5177 0.930 . S
C5183 C5179 1.400 1_545 S
C5183 C5182 1.385 . S
C5184 C5182 1.478 . S
C5184 C5186 1.381 . S
C5184 C5190 1.383 . S
C5185 C5181 1.495 . S
C5185 H5191 0.959 . S
C5185 H5192 0.961 . S
C5185 H5193 0.960 . S
C5186 C5184 1.381 . S
C5186 C5187 1.394 . S
C5186 H5194 0.930 . S
C5187 C5186 1.394 . S
C5187 C5188 1.383 . S
C5187 H5195 0.929 . S
C5188 C5187 1.383 . S
C5188 C5189 1.377 . S
C5189 H5173 0.930 . S
C5189 C5188 1.377 . S
C5189 C5190 1.379 . S
C5190 H5174 0.931 . S
C5190 C5184 1.383 . S
C5190 C5189 1.379 . S
H5191 C5185 0.959 . S
H5192 C5185 0.961 . S
H5193 C5185 0.960 . S
H5194 C5186 0.930 . S
H5195 C5187 0.929 . S
H5196 C5204 0.929 . S
H5197 C5206 0.930 . S
H5198 C5208 0.930 . S
H5199 C5211 0.929 . S
H5200 C5214 0.930 . S
H5201 C5216 0.973 . S
H5202 C5216 0.960 . S
H5203 C5216 0.960 . S
C5204 H5196 0.929 . S
C5204 C5205 1.377 . S
C5204 C5206 1.384 . S
C5205 C5204 1.377 . S
C5205 C5211 1.390 . S
C5206 H5197 0.930 . S
C5206 C5204 1.384 . S
C5206 C5207 1.372 . S
C5207 C5206 1.372 . S
C5207 C5208 1.400 . S
C5207 C5212 1.490 . S
C5208 H5198 0.930 . S
C5208 C5207 1.400 . S
C5208 C5211 1.386 . S
H5209 C5225 0.930 . S
H5210 C5226 0.931 . S
C5211 H5199 0.929 . S
C5211 C5205 1.390 . S
C5211 C5208 1.386 . S
C5212 C5207 1.490 . S
C5212 C5214 1.395 . S
C5212 C5215 1.403 . S
H5213 C5219 0.930 . S
C5214 H5200 0.930 . S
C5214 C5212 1.395 . S
C5214 C5217 1.403 1_455 S
C5215 C5212 1.403 . S
C5215 C5216 1.524 . S
C5215 C5219 1.400 1_455 S
C5216 H5201 0.973 . S
C5216 H5202 0.960 . S
C5216 H5203 0.960 . S
C5216 C5215 1.524 . S
C5217 C5214 1.403 1_655 S
C5217 C5218 1.392 . S
C5217 C5221 1.495 . S
C5218 C5217 1.392 . S
C5218 C5219 1.385 . S
C5218 C5220 1.478 . S
C5219 H5213 0.930 . S
C5219 C5215 1.400 1_655 S
C5219 C5218 1.385 . S
C5220 C5218 1.478 . S
C5220 C5222 1.381 . S
C5220 C5226 1.383 . S
C5221 C5217 1.495 . S
C5221 H5227 0.959 . S
C5221 H5228 0.961 . S
C5221 H5229 0.960 . S
C5222 C5220 1.381 . S
C5222 C5223 1.394 . S
C5222 H5230 0.930 . S
C5223 C5222 1.394 . S
C5223 C5224 1.383 . S
C5223 H5231 0.929 . S
C5224 C5223 1.383 . S
C5224 C5225 1.377 . S
C5225 H5209 0.930 . S
C5225 C5224 1.377 . S
C5225 C5226 1.379 . S
C5226 H5210 0.931 . S
C5226 C5220 1.383 . S
C5226 C5225 1.379 . S
H5227 C5221 0.959 . S
H5228 C5221 0.961 . S
H5229 C5221 0.960 . S
H5230 C5222 0.930 . S
H5231 C5223 0.929 . S
H5232 C5240 0.929 . S
H5233 C5242 0.930 . S
H5234 C5244 0.930 . S
H5235 C5247 0.929 . S
H5236 C5250 0.930 . S
H5237 C5252 0.987 . S
H5238 C5252 0.960 . S
H5239 C5252 0.960 . S
C5240 H5232 0.929 . S
C5240 C5241 1.377 . S
C5240 C5242 1.384 . S
C5241 C5240 1.377 . S
C5241 C5247 1.390 . S
C5242 H5233 0.930 . S
C5242 C5240 1.384 . S
C5242 C5243 1.372 . S
C5243 C5242 1.372 . S
C5243 C5244 1.400 . S
C5243 C5248 1.490 . S
C5244 H5234 0.930 . S
C5244 C5243 1.400 . S
C5244 C5247 1.386 . S
H5245 C5261 0.930 . S
H5246 C5262 0.931 . S
C5247 H5235 0.929 . S
C5247 C5241 1.390 . S
C5247 C5244 1.386 . S
C5248 C5243 1.490 . S
C5248 C5250 1.395 . S
C5248 C5251 1.403 . S
H5249 C5255 0.930 . S
C5250 H5236 0.930 . S
C5250 C5248 1.395 . S
C5250 C5253 1.403 1_565 S
C5251 C5248 1.403 . S
C5251 C5252 1.524 . S
C5251 C5255 1.400 1_565 S
C5252 H5237 0.987 . S
C5252 H5238 0.960 . S
C5252 H5239 0.960 . S
C5252 C5251 1.524 . S
C5253 C5250 1.403 1_545 S
C5253 C5254 1.392 . S
C5253 C5257 1.495 . S
C5254 C5253 1.392 . S
C5254 C5255 1.385 . S
C5254 C5256 1.478 . S
C5255 H5249 0.930 . S
C5255 C5251 1.400 1_545 S
C5255 C5254 1.385 . S
C5256 C5254 1.478 . S
C5256 C5258 1.381 . S
C5256 C5262 1.383 . S
C5257 C5253 1.495 . S
C5257 H5263 0.959 . S
C5257 H5264 0.961 . S
C5257 H5265 0.960 . S
C5258 C5256 1.381 . S
C5258 C5259 1.394 . S
C5258 H5266 0.930 . S
C5259 C5258 1.394 . S
C5259 C5260 1.383 . S
C5259 H5267 0.929 . S
C5260 C5259 1.383 . S
C5260 C5261 1.377 . S
C5261 H5245 0.930 . S
C5261 C5260 1.377 . S
C5261 C5262 1.379 . S
C5262 H5246 0.931 . S
C5262 C5256 1.383 . S
C5262 C5261 1.379 . S
H5263 C5257 0.959 . S
H5264 C5257 0.961 . S
H5265 C5257 0.960 . S
H5266 C5258 0.930 . S
H5267 C5259 0.929 . S
H5268 C5276 0.929 . S
H5269 C5278 0.930 . S
H5270 C5280 0.930 . S
H5271 C5283 0.929 . S
H5272 C5286 0.930 . S
H5273 C5288 0.960 . S
H5274 C5288 0.960 . S
H5275 C5288 0.960 . S
C5276 H5268 0.929 . S
C5276 C5277 1.377 . S
C5276 C5278 1.384 . S
C5277 C5276 1.377 . S
C5277 C5283 1.390 . S
C5278 H5269 0.930 . S
C5278 C5276 1.384 . S
C5278 C5279 1.372 . S
C5279 C5278 1.372 . S
C5279 C5280 1.400 . S
C5279 C5284 1.490 . S
C5280 H5270 0.930 . S
C5280 C5279 1.400 . S
C5280 C5283 1.386 . S
H5281 C5297 0.930 . S
H5282 C5298 0.931 . S
C5283 H5271 0.929 . S
C5283 C5277 1.390 . S
C5283 C5280 1.386 . S
C5284 C5279 1.490 . S
C5284 C5286 1.395 . S
C5284 C5287 1.403 . S
H5285 C5291 0.930 . S
C5286 H5272 0.930 . S
C5286 C5284 1.395 . S
C5286 C5289 1.403 1_455 S
C5287 C5284 1.403 . S
C5287 C5288 1.524 . S
C5287 C5291 1.400 1_455 S
C5288 H5273 0.960 . S
C5288 H5274 0.960 . S
C5288 H5275 0.960 . S
C5288 C5287 1.524 . S
C5289 C5286 1.403 1_655 S
C5289 C5290 1.392 . S
C5289 C5293 1.495 . S
C5290 C5289 1.392 . S
C5290 C5291 1.385 . S
C5290 C5292 1.478 . S
C5291 H5285 0.930 . S
C5291 C5287 1.400 1_655 S
C5291 C5290 1.385 . S
C5292 C5290 1.478 . S
C5292 C5294 1.381 . S
C5292 C5298 1.383 . S
C5293 C5289 1.495 . S
C5293 H5299 0.959 . S
C5293 H5300 0.961 . S
C5293 H5301 0.960 . S
C5294 C5292 1.381 . S
C5294 C5295 1.394 . S
C5294 H5302 0.930 . S
C5295 C5294 1.394 . S
C5295 C5296 1.383 . S
C5295 H5303 0.929 . S
C5296 C5295 1.383 . S
C5296 C5297 1.377 . S
C5297 H5281 0.930 . S
C5297 C5296 1.377 . S
C5297 C5298 1.379 . S
C5298 H5282 0.931 . S
C5298 C5292 1.383 . S
C5298 C5297 1.379 . S
H5299 C5293 0.959 . S
H5300 C5293 0.961 . S
H5301 C5293 0.960 . S
H5302 C5294 0.930 . S
H5303 C5295 0.929 . S
H5304 C5312 0.929 . S
H5305 C5314 0.930 . S
H5306 C5316 0.930 . S
H5307 C5319 0.929 . S
H5308 C5322 0.930 . S
H5309 C5324 0.960 . S
H5310 C5324 0.960 . S
H5311 C5324 0.960 . S
C5312 H5304 0.929 . S
C5312 C5313 1.377 . S
C5312 C5314 1.384 . S
C5313 C5312 1.377 . S
C5313 C5319 1.390 . S
C5314 H5305 0.930 . S
C5314 C5312 1.384 . S
C5314 C5315 1.372 . S
C5315 C5314 1.372 . S
C5315 C5316 1.400 . S
C5315 C5320 1.490 . S
C5316 H5306 0.930 . S
C5316 C5315 1.400 . S
C5316 C5319 1.386 . S
H5317 C5333 0.930 . S
H5318 C5334 0.931 . S
C5319 H5307 0.929 . S
C5319 C5313 1.390 . S
C5319 C5316 1.386 . S
C5320 C5315 1.490 . S
C5320 C5322 1.395 . S
C5320 C5323 1.403 . S
H5321 C5327 0.930 . S
C5322 H5308 0.930 . S
C5322 C5320 1.395 . S
C5322 C5325 1.403 1_545 S
C5323 C5320 1.403 . S
C5323 C5324 1.524 . S
C5323 C5327 1.400 1_545 S
C5324 H5309 0.960 . S
C5324 H5310 0.960 . S
C5324 H5311 0.960 . S
C5324 C5323 1.524 . S
C5325 C5322 1.403 1_565 S
C5325 C5326 1.392 . S
C5325 C5329 1.495 . S
C5326 C5325 1.392 . S
C5326 C5327 1.385 . S
C5326 C5328 1.478 . S
C5327 H5321 0.930 . S
C5327 C5323 1.400 1_565 S
C5327 C5326 1.385 . S
C5328 C5326 1.478 . S
C5328 C5330 1.381 . S
C5328 C5334 1.383 . S
C5329 C5325 1.495 . S
C5329 H5335 0.959 . S
C5329 H5336 0.961 . S
C5329 H5337 0.960 . S
C5330 C5328 1.381 . S
C5330 C5331 1.394 . S
C5330 H5338 0.930 . S
C5331 C5330 1.394 . S
C5331 C5332 1.383 . S
C5331 H5339 0.929 . S
C5332 C5331 1.383 . S
C5332 C5333 1.377 . S
C5333 H5317 0.930 . S
C5333 C5332 1.377 . S
C5333 C5334 1.379 . S
C5334 H5318 0.931 . S
C5334 C5328 1.383 . S
C5334 C5333 1.379 . S
H5335 C5329 0.959 . S
H5336 C5329 0.961 . S
H5337 C5329 0.960 . S
H5338 C5330 0.930 . S
H5339 C5331 0.929 . S
H5340 C5348 0.929 . S
H5341 C5350 0.930 . S
H5342 C5352 0.930 . S
H5343 C5355 0.929 . S
H5344 C5358 0.930 . S
H5345 C5360 0.960 . S
H5346 C5360 0.960 . S
H5347 C5360 0.960 . S
C5348 H5340 0.929 . S
C5348 C5349 1.377 . S
C5348 C5350 1.384 . S
C5349 C5348 1.377 . S
C5349 C5355 1.390 . S
C5350 H5341 0.930 . S
C5350 C5348 1.384 . S
C5350 C5351 1.372 . S
C5351 C5350 1.372 . S
C5351 C5352 1.400 . S
C5351 C5356 1.490 . S
C5352 H5342 0.930 . S
C5352 C5351 1.400 . S
C5352 C5355 1.386 . S
H5353 C5369 0.930 . S
H5354 C5370 0.931 . S
C5355 H5343 0.929 . S
C5355 C5349 1.390 . S
C5355 C5352 1.386 . S
C5356 C5351 1.490 . S
C5356 C5358 1.395 . S
C5356 C5359 1.403 . S
H5357 C5363 0.930 . S
C5358 H5344 0.930 . S
C5358 C5356 1.395 . S
C5358 C5361 1.403 1_455 S
C5359 C5356 1.403 . S
C5359 C5360 1.524 . S
C5359 C5363 1.400 1_455 S
C5360 H5345 0.960 . S
C5360 H5346 0.960 . S
C5360 H5347 0.960 . S
C5360 C5359 1.524 . S
C5361 C5358 1.403 1_655 S
C5361 C5362 1.392 . S
C5361 C5365 1.495 . S
C5362 C5361 1.392 . S
C5362 C5363 1.385 . S
C5362 C5364 1.478 . S
C5363 H5357 0.930 . S
C5363 C5359 1.400 1_655 S
C5363 C5362 1.385 . S
C5364 C5362 1.478 . S
C5364 C5366 1.381 . S
C5364 C5370 1.383 . S
C5365 C5361 1.495 . S
C5365 H5371 0.959 . S
C5365 H5372 0.961 . S
C5365 H5373 0.960 . S
C5366 C5364 1.381 . S
C5366 C5367 1.394 . S
C5366 H5374 0.930 . S
C5367 C5366 1.394 . S
C5367 C5368 1.383 . S
C5367 H5375 0.929 . S
C5368 C5367 1.383 . S
C5368 C5369 1.377 . S
C5369 H5353 0.930 . S
C5369 C5368 1.377 . S
C5369 C5370 1.379 . S
C5370 H5354 0.931 . S
C5370 C5364 1.383 . S
C5370 C5369 1.379 . S
H5371 C5365 0.959 . S
H5372 C5365 0.961 . S
H5373 C5365 0.960 . S
H5374 C5366 0.930 . S
H5375 C5367 0.929 . S
H5376 C5384 0.929 . S
H5377 C5386 0.930 . S
H5378 C5388 0.930 . S
H5379 C5391 0.929 . S
H5380 C5394 0.930 . S
H5381 C5396 0.982 . S
H5382 C5396 0.960 . S
H5383 C5396 0.960 . S
C5384 H5376 0.929 . S
C5384 C5385 1.377 . S
C5384 C5386 1.384 . S
C5385 C5384 1.377 . S
C5385 C5391 1.390 . S
C5386 H5377 0.930 . S
C5386 C5384 1.384 . S
C5386 C5387 1.372 . S
C5387 C5386 1.372 . S
C5387 C5388 1.400 . S
C5387 C5392 1.490 . S
C5388 H5378 0.930 . S
C5388 C5387 1.400 . S
C5388 C5391 1.386 . S
H5389 C5405 0.930 . S
H5390 C5406 0.931 . S
C5391 H5379 0.929 . S
C5391 C5385 1.390 . S
C5391 C5388 1.386 . S
C5392 C5387 1.490 . S
C5392 C5394 1.395 . S
C5392 C5395 1.403 . S
H5393 C5399 0.930 . S
C5394 H5380 0.930 . S
C5394 C5392 1.395 . S
C5394 C5397 1.403 1_554 S
C5395 C5392 1.403 . S
C5395 C5396 1.524 . S
C5395 C5399 1.400 1_554 S
C5396 H5381 0.982 . S
C5396 H5382 0.960 . S
C5396 H5383 0.960 . S
C5396 C5395 1.524 . S
C5397 C5394 1.403 1_556 S
C5397 C5398 1.392 . S
C5397 C5401 1.495 . S
C5398 C5397 1.392 . S
C5398 C5399 1.385 . S
C5398 C5400 1.478 . S
C5399 H5393 0.930 . S
C5399 C5395 1.400 1_556 S
C5399 C5398 1.385 . S
C5400 C5398 1.478 . S
C5400 C5402 1.381 . S
C5400 C5406 1.383 . S
C5401 C5397 1.495 . S
C5401 H5407 0.959 . S
C5401 H5408 0.961 . S
C5401 H5409 0.960 . S
C5402 C5400 1.381 . S
C5402 C5403 1.394 . S
C5402 H5410 0.930 . S
C5403 C5402 1.394 . S
C5403 C5404 1.383 . S
C5403 H5411 0.929 . S
C5404 C5403 1.383 . S
C5404 C5405 1.377 . S
C5405 H5389 0.930 . S
C5405 C5404 1.377 . S
C5405 C5406 1.379 . S
C5406 H5390 0.931 . S
C5406 C5400 1.383 . S
C5406 C5405 1.379 . S
H5407 C5401 0.959 . S
H5408 C5401 0.961 . S
H5409 C5401 0.960 . S
H5410 C5402 0.930 . S
H5411 C5403 0.929 . S
H5412 C5420 0.929 . S
H5413 C5422 0.930 . S
H5414 C5424 0.930 . S
H5415 C5427 0.929 . S
H5416 C5430 0.930 . S
H5417 C5432 0.960 . S
H5418 C5432 0.960 . S
H5419 C5432 0.960 . S
C5420 H5412 0.929 . S
C5420 C5421 1.377 . S
C5420 C5422 1.384 . S
C5421 C5420 1.377 . S
C5421 C5427 1.390 . S
C5422 H5413 0.930 . S
C5422 C5420 1.384 . S
C5422 C5423 1.372 . S
C5423 C5422 1.372 . S
C5423 C5424 1.400 . S
C5423 C5428 1.490 . S
C5424 H5414 0.930 . S
C5424 C5423 1.400 . S
C5424 C5427 1.386 . S
H5425 C5441 0.930 . S
H5426 C5442 0.931 . S
C5427 H5415 0.929 . S
C5427 C5421 1.390 . S
C5427 C5424 1.386 . S
C5428 C5423 1.490 . S
C5428 C5430 1.395 . S
C5428 C5431 1.403 . S
H5429 C5435 0.930 . S
C5430 H5416 0.930 . S
C5430 C5428 1.395 . S
C5430 C5433 1.403 1_556 S
C5431 C5428 1.403 . S
C5431 C5432 1.524 . S
C5431 C5435 1.400 1_556 S
C5432 H5417 0.960 . S
C5432 H5418 0.960 . S
C5432 H5419 0.960 . S
C5432 C5431 1.524 . S
C5433 C5430 1.403 1_554 S
C5433 C5434 1.392 . S
C5433 C5437 1.495 . S
C5434 C5433 1.392 . S
C5434 C5435 1.385 . S
C5434 C5436 1.478 . S
C5435 H5429 0.930 . S
C5435 C5431 1.400 1_554 S
C5435 C5434 1.385 . S
C5436 C5434 1.478 . S
C5436 C5438 1.381 . S
C5436 C5442 1.383 . S
C5437 C5433 1.495 . S
C5437 H5443 0.959 . S
C5437 H5444 0.961 . S
C5437 H5445 0.960 . S
C5438 C5436 1.381 . S
C5438 C5439 1.394 . S
C5438 H5446 0.930 . S
C5439 C5438 1.394 . S
C5439 C5440 1.383 . S
C5439 H5447 0.929 . S
C5440 C5439 1.383 . S
C5440 C5441 1.377 . S
C5441 H5425 0.930 . S
C5441 C5440 1.377 . S
C5441 C5442 1.379 . S
C5442 H5426 0.931 . S
C5442 C5436 1.383 . S
C5442 C5441 1.379 . S
H5443 C5437 0.959 . S
H5444 C5437 0.961 . S
H5445 C5437 0.960 . S
H5446 C5438 0.930 . S
H5447 C5439 0.929 . S
H5448 C5456 0.929 . S
H5449 C5458 0.930 . S
H5450 C5460 0.930 . S
H5451 C5463 0.929 . S
H5452 C5466 0.930 . S
H5453 C5468 0.960 . S
H5454 C5468 0.960 . S
H5455 C5468 0.960 . S
C5456 H5448 0.929 . S
C5456 C5457 1.377 . S
C5456 C5458 1.384 . S
C5457 C5456 1.377 . S
C5457 C5463 1.390 . S
C5458 H5449 0.930 . S
C5458 C5456 1.384 . S
C5458 C5459 1.372 . S
C5459 C5458 1.372 . S
C5459 C5460 1.400 . S
C5459 C5464 1.490 . S
C5460 H5450 0.930 . S
C5460 C5459 1.400 . S
C5460 C5463 1.386 . S
H5461 C5477 0.930 . S
H5462 C5478 0.931 . S
C5463 H5451 0.929 . S
C5463 C5457 1.390 . S
C5463 C5460 1.386 . S
C5464 C5459 1.490 . S
C5464 C5466 1.395 . S
C5464 C5467 1.403 . S
H5465 C5471 0.930 . S
C5466 H5452 0.930 . S
C5466 C5464 1.395 . S
C5466 C5469 1.403 1_554 S
C5467 C5464 1.403 . S
C5467 C5468 1.524 . S
C5467 C5471 1.400 1_554 S
C5468 H5453 0.960 . S
C5468 H5454 0.960 . S
C5468 H5455 0.960 . S
C5468 C5467 1.524 . S
C5469 C5466 1.403 1_556 S
C5469 C5470 1.392 . S
C5469 C5473 1.495 . S
C5470 C5469 1.392 . S
C5470 C5471 1.385 . S
C5470 C5472 1.478 . S
C5471 H5465 0.930 . S
C5471 C5467 1.400 1_556 S
C5471 C5470 1.385 . S
C5472 C5470 1.478 . S
C5472 C5474 1.381 . S
C5472 C5478 1.383 . S
C5473 C5469 1.495 . S
C5473 H5479 0.959 . S
C5473 H5480 0.961 . S
C5473 H5481 0.960 . S
C5474 C5472 1.381 . S
C5474 C5475 1.394 . S
C5474 H5482 0.930 . S
C5475 C5474 1.394 . S
C5475 C5476 1.383 . S
C5475 H5483 0.929 . S
C5476 C5475 1.383 . S
C5476 C5477 1.377 . S
C5477 H5461 0.930 . S
C5477 C5476 1.377 . S
C5477 C5478 1.379 . S
C5478 H5462 0.931 . S
C5478 C5472 1.383 . S
C5478 C5477 1.379 . S
H5479 C5473 0.959 . S
H5480 C5473 0.961 . S
H5481 C5473 0.960 . S
H5482 C5474 0.930 . S
H5483 C5475 0.929 . S
H5484 C5492 0.929 . S
H5485 C5494 0.930 . S
H5486 C5496 0.930 . S
H5487 C5499 0.929 . S
H5488 C5502 0.930 . S
H5489 C5504 0.960 . S
H5490 C5504 0.960 . S
H5491 C5504 0.960 . S
C5492 H5484 0.929 . S
C5492 C5493 1.377 . S
C5492 C5494 1.384 . S
C5493 C5492 1.377 . S
C5493 C5499 1.390 . S
C5494 H5485 0.930 . S
C5494 C5492 1.384 . S
C5494 C5495 1.372 . S
C5495 C5494 1.372 . S
C5495 C5496 1.400 . S
C5495 C5500 1.490 . S
C5496 H5486 0.930 . S
C5496 C5495 1.400 . S
C5496 C5499 1.386 . S
H5497 C5513 0.930 . S
H5498 C5514 0.931 . S
C5499 H5487 0.929 . S
C5499 C5493 1.390 . S
C5499 C5496 1.386 . S
C5500 C5495 1.490 . S
C5500 C5502 1.395 . S
C5500 C5503 1.403 . S
H5501 C5507 0.930 . S
C5502 H5488 0.930 . S
C5502 C5500 1.395 . S
C5502 C5505 1.403 1_556 S
C5503 C5500 1.403 . S
C5503 C5504 1.524 . S
C5503 C5507 1.400 1_556 S
C5504 H5489 0.960 . S
C5504 H5490 0.960 . S
C5504 H5491 0.960 . S
C5504 C5503 1.524 . S
C5505 C5502 1.403 1_554 S
C5505 C5506 1.392 . S
C5505 C5509 1.495 . S
C5506 C5505 1.392 . S
C5506 C5507 1.385 . S
C5506 C5508 1.478 . S
C5507 H5501 0.930 . S
C5507 C5503 1.400 1_554 S
C5507 C5506 1.385 . S
C5508 C5506 1.478 . S
C5508 C5510 1.381 . S
C5508 C5514 1.383 . S
C5509 C5505 1.495 . S
C5509 H5515 0.959 . S
C5509 H5516 0.961 . S
C5509 H5517 0.960 . S
C5510 C5508 1.381 . S
C5510 C5511 1.394 . S
C5510 H5518 0.930 . S
C5511 C5510 1.394 . S
C5511 C5512 1.383 . S
C5511 H5519 0.929 . S
C5512 C5511 1.383 . S
C5512 C5513 1.377 . S
C5513 H5497 0.930 . S
C5513 C5512 1.377 . S
C5513 C5514 1.379 . S
C5514 H5498 0.931 . S
C5514 C5508 1.383 . S
C5514 C5513 1.379 . S
H5515 C5509 0.959 . S
H5516 C5509 0.961 . S
H5517 C5509 0.960 . S
H5518 C5510 0.930 . S
H5519 C5511 0.929 . S
H5520 C5528 0.929 . S
H5521 C5530 0.930 . S
H5522 C5532 0.930 . S
H5523 C5535 0.929 . S
H5524 C5538 0.930 . S
H5525 C5540 0.960 . S
H5526 C5540 0.960 . S
H5527 C5540 0.960 . S
C5528 H5520 0.929 . S
C5528 C5529 1.377 . S
C5528 C5530 1.384 . S
C5529 C5528 1.377 . S
C5529 C5535 1.390 . S
C5530 H5521 0.930 . S
C5530 C5528 1.384 . S
C5530 C5531 1.372 . S
C5531 C5530 1.372 . S
C5531 C5532 1.400 . S
C5531 C5536 1.490 . S
C5532 H5522 0.930 . S
C5532 C5531 1.400 . S
C5532 C5535 1.386 . S
H5533 C5549 0.930 . S
H5534 C5550 0.931 . S
C5535 H5523 0.929 . S
C5535 C5529 1.390 . S
C5535 C5532 1.386 . S
C5536 C5531 1.490 . S
C5536 C5538 1.395 . S
C5536 C5539 1.403 . S
H5537 C5543 0.930 . S
C5538 H5524 0.930 . S
C5538 C5536 1.395 . S
C5538 C5541 1.403 1_554 S
C5539 C5536 1.403 . S
C5539 C5540 1.524 . S
C5539 C5543 1.400 1_554 S
C5540 H5525 0.960 . S
C5540 H5526 0.960 . S
C5540 H5527 0.960 . S
C5540 C5539 1.524 . S
C5541 C5538 1.403 1_556 S
C5541 C5542 1.392 . S
C5541 C5545 1.495 . S
C5542 C5541 1.392 . S
C5542 C5543 1.385 . S
C5542 C5544 1.478 . S
C5543 H5537 0.930 . S
C5543 C5539 1.400 1_556 S
C5543 C5542 1.385 . S
C5544 C5542 1.478 . S
C5544 C5546 1.381 . S
C5544 C5550 1.383 . S
C5545 C5541 1.495 . S
C5545 H5551 0.959 . S
C5545 H5552 0.961 . S
C5545 H5553 0.960 . S
C5546 C5544 1.381 . S
C5546 C5547 1.394 . S
C5546 H5554 0.930 . S
C5547 C5546 1.394 . S
C5547 C5548 1.383 . S
C5547 H5555 0.929 . S
C5548 C5547 1.383 . S
C5548 C5549 1.377 . S
C5549 H5533 0.930 . S
C5549 C5548 1.377 . S
C5549 C5550 1.379 . S
C5550 H5534 0.931 . S
C5550 C5544 1.383 . S
C5550 C5549 1.379 . S
H5551 C5545 0.959 . S
H5552 C5545 0.961 . S
H5553 C5545 0.960 . S
H5554 C5546 0.930 . S
H5555 C5547 0.929 . S
H5556 C5564 0.929 . S
H5557 C5566 0.930 . S
H5558 C5568 0.930 . S
H5559 C5571 0.929 . S
H5560 C5574 0.930 . S
H5561 C5576 0.960 . S
H5562 C5576 0.960 . S
H5563 C5576 0.960 . S
C5564 H5556 0.929 . S
C5564 C5565 1.377 . S
C5564 C5566 1.384 . S
C5565 C5564 1.377 . S
C5565 C5571 1.390 . S
C5566 H5557 0.930 . S
C5566 C5564 1.384 . S
C5566 C5567 1.372 . S
C5567 C5566 1.372 . S
C5567 C5568 1.400 . S
C5567 C5572 1.490 . S
C5568 H5558 0.930 . S
C5568 C5567 1.400 . S
C5568 C5571 1.386 . S
H5569 C5585 0.930 . S
H5570 C5586 0.931 . S
C5571 H5559 0.929 . S
C5571 C5565 1.390 . S
C5571 C5568 1.386 . S
C5572 C5567 1.490 . S
C5572 C5574 1.395 . S
C5572 C5575 1.403 . S
H5573 C5579 0.930 . S
C5574 H5560 0.930 . S
C5574 C5572 1.395 . S
C5574 C5577 1.403 1_554 S
C5575 C5572 1.403 . S
C5575 C5576 1.524 . S
C5575 C5579 1.400 1_554 S
C5576 H5561 0.960 . S
C5576 H5562 0.960 . S
C5576 H5563 0.960 . S
C5576 C5575 1.524 . S
C5577 C5574 1.403 1_556 S
C5577 C5578 1.392 . S
C5577 C5581 1.495 . S
C5578 C5577 1.392 . S
C5578 C5579 1.385 . S
C5578 C5580 1.478 . S
C5579 H5573 0.930 . S
C5579 C5575 1.400 1_556 S
C5579 C5578 1.385 . S
C5580 C5578 1.478 . S
C5580 C5582 1.381 . S
C5580 C5586 1.383 . S
C5581 C5577 1.495 . S
C5581 H5587 0.959 . S
C5581 H5588 0.961 . S
C5581 H5589 0.960 . S
C5582 C5580 1.381 . S
C5582 C5583 1.394 . S
C5582 H5590 0.930 . S
C5583 C5582 1.394 . S
C5583 C5584 1.383 . S
C5583 H5591 0.929 . S
C5584 C5583 1.383 . S
C5584 C5585 1.377 . S
C5585 H5569 0.930 . S
C5585 C5584 1.377 . S
C5585 C5586 1.379 . S
C5586 H5570 0.931 . S
C5586 C5580 1.383 . S
C5586 C5585 1.379 . S
H5587 C5581 0.959 . S
H5588 C5581 0.961 . S
H5589 C5581 0.960 . S
H5590 C5582 0.930 . S
H5591 C5583 0.929 . S
H5592 C5600 0.929 . S
H5593 C5602 0.930 . S
H5594 C5604 0.930 . S
H5595 C5607 0.929 . S
H5596 C5610 0.930 . S
H5597 C5612 0.960 . S
H5598 C5612 0.960 . S
H5599 C5612 0.960 . S
C5600 H5592 0.929 . S
C5600 C5601 1.377 . S
C5600 C5602 1.384 . S
C5601 C5600 1.377 . S
C5601 C5607 1.390 . S
C5602 H5593 0.930 . S
C5602 C5600 1.384 . S
C5602 C5603 1.372 . S
C5603 C5602 1.372 . S
C5603 C5604 1.400 . S
C5603 C5608 1.490 . S
C5604 H5594 0.930 . S
C5604 C5603 1.400 . S
C5604 C5607 1.386 . S
H5605 C5621 0.930 . S
H5606 C5622 0.931 . S
C5607 H5595 0.929 . S
C5607 C5601 1.390 . S
C5607 C5604 1.386 . S
C5608 C5603 1.490 . S
C5608 C5610 1.395 . S
C5608 C5611 1.403 . S
H5609 C5615 0.930 . S
C5610 H5596 0.930 . S
C5610 C5608 1.395 . S
C5610 C5613 1.403 1_556 S
C5611 C5608 1.403 . S
C5611 C5612 1.524 . S
C5611 C5615 1.400 1_556 S
C5612 H5597 0.960 . S
C5612 H5598 0.960 . S
C5612 H5599 0.960 . S
C5612 C5611 1.524 . S
C5613 C5610 1.403 1_554 S
C5613 C5614 1.392 . S
C5613 C5617 1.495 . S
C5614 C5613 1.392 . S
C5614 C5615 1.385 . S
C5614 C5616 1.478 . S
C5615 H5609 0.930 . S
C5615 C5611 1.400 1_554 S
C5615 C5614 1.385 . S
C5616 C5614 1.478 . S
C5616 C5618 1.381 . S
C5616 C5622 1.383 . S
C5617 C5613 1.495 . S
C5617 H5623 0.959 . S
C5617 H5624 0.961 . S
C5617 H5625 0.960 . S
C5618 C5616 1.381 . S
C5618 C5619 1.394 . S
C5618 H5626 0.930 . S
C5619 C5618 1.394 . S
C5619 C5620 1.383 . S
C5619 H5627 0.929 . S
C5620 C5619 1.383 . S
C5620 C5621 1.377 . S
C5621 H5605 0.930 . S
C5621 C5620 1.377 . S
C5621 C5622 1.379 . S
C5622 H5606 0.931 . S
C5622 C5616 1.383 . S
C5622 C5621 1.379 . S
H5623 C5617 0.959 . S
H5624 C5617 0.961 . S
H5625 C5617 0.960 . S
H5626 C5618 0.930 . S
H5627 C5619 0.929 . S
H5628 C5636 0.929 . S
H5629 C5638 0.930 . S
H5630 C5640 0.930 . S
H5631 C5643 0.929 . S
H5632 C5646 0.930 . S
H5633 C5648 0.960 . S
H5634 C5648 0.960 . S
H5635 C5648 0.960 . S
C5636 H5628 0.929 . S
C5636 C5637 1.377 . S
C5636 C5638 1.384 . S
C5637 C5636 1.377 . S
C5637 C5643 1.390 . S
C5638 H5629 0.930 . S
C5638 C5636 1.384 . S
C5638 C5639 1.372 . S
C5639 C5638 1.372 . S
C5639 C5640 1.400 . S
C5639 C5644 1.490 . S
C5640 H5630 0.930 . S
C5640 C5639 1.400 . S
C5640 C5643 1.386 . S
H5641 C5657 0.930 . S
H5642 C5658 0.931 . S
C5643 H5631 0.929 . S
C5643 C5637 1.390 . S
C5643 C5640 1.386 . S
C5644 C5639 1.490 . S
C5644 C5646 1.395 . S
C5644 C5647 1.403 . S
H5645 C5651 0.930 . S
C5646 H5632 0.930 . S
C5646 C5644 1.395 . S
C5646 C5649 1.403 1_556 S
C5647 C5644 1.403 . S
C5647 C5648 1.524 . S
C5647 C5651 1.400 1_556 S
C5648 H5633 0.960 . S
C5648 H5634 0.960 . S
C5648 H5635 0.960 . S
C5648 C5647 1.524 . S
C5649 C5646 1.403 1_554 S
C5649 C5650 1.392 . S
C5649 C5653 1.495 . S
C5650 C5649 1.392 . S
C5650 C5651 1.385 . S
C5650 C5652 1.478 . S
C5651 H5645 0.930 . S
C5651 C5647 1.400 1_554 S
C5651 C5650 1.385 . S
C5652 C5650 1.478 . S
C5652 C5654 1.381 . S
C5652 C5658 1.383 . S
C5653 C5649 1.495 . S
C5653 H5659 0.959 . S
C5653 H5660 0.961 . S
C5653 H5661 0.960 . S
C5654 C5652 1.381 . S
C5654 C5655 1.394 . S
C5654 H5662 0.930 . S
C5655 C5654 1.394 . S
C5655 C5656 1.383 . S
C5655 H5663 0.929 . S
C5656 C5655 1.383 . S
C5656 C5657 1.377 . S
C5657 H5641 0.930 . S
C5657 C5656 1.377 . S
C5657 C5658 1.379 . S
C5658 H5642 0.931 . S
C5658 C5652 1.383 . S
C5658 C5657 1.379 . S
H5659 C5653 0.959 . S
H5660 C5653 0.961 . S
H5661 C5653 0.960 . S
H5662 C5654 0.930 . S
H5663 C5655 0.929 . S
H5664 C5672 0.929 . S
H5665 C5674 0.930 . S
H5666 C5676 0.930 . S
H5667 C5679 0.929 . S
H5668 C5682 0.930 . S
H5669 C5684 0.960 . S
H5670 C5684 0.960 . S
H5671 C5684 0.960 . S
C5672 H5664 0.929 . S
C5672 C5673 1.377 . S
C5672 C5674 1.384 . S
C5673 C5672 1.377 . S
C5673 C5679 1.390 . S
C5674 H5665 0.930 . S
C5674 C5672 1.384 . S
C5674 C5675 1.372 . S
C5675 C5674 1.372 . S
C5675 C5676 1.400 . S
C5675 C5680 1.490 . S
C5676 H5666 0.930 . S
C5676 C5675 1.400 . S
C5676 C5679 1.386 . S
H5677 C5693 0.930 . S
H5678 C5694 0.931 . S
C5679 H5667 0.929 . S
C5679 C5673 1.390 . S
C5679 C5676 1.386 . S
C5680 C5675 1.490 . S
C5680 C5682 1.395 . S
C5680 C5683 1.403 . S
H5681 C5687 0.930 . S
C5682 H5668 0.930 . S
C5682 C5680 1.395 . S
C5682 C5685 1.403 . S
C5683 C5680 1.403 . S
C5683 C5684 1.524 . S
C5683 C5687 1.400 . S
C5684 H5669 0.960 . S
C5684 H5670 0.960 . S
C5684 H5671 0.960 . S
C5684 C5683 1.524 . S
C5685 C5682 1.403 . S
C5685 C5686 1.392 . S
C5685 C5689 1.495 . S
C5686 C5685 1.392 . S
C5686 C5687 1.385 . S
C5686 C5688 1.478 . S
C5687 H5681 0.930 . S
C5687 C5683 1.400 . S
C5687 C5686 1.385 . S
C5688 C5686 1.478 . S
C5688 C5690 1.381 . S
C5688 C5694 1.383 . S
C5689 C5685 1.495 . S
C5689 H5695 0.959 . S
C5689 H5696 0.961 . S
C5689 H5697 0.960 . S
C5690 C5688 1.381 . S
C5690 C5691 1.394 . S
C5690 H5698 0.930 . S
C5691 C5690 1.394 . S
C5691 C5692 1.383 . S
C5691 H5699 0.929 . S
C5692 C5691 1.383 . S
C5692 C5693 1.377 . S
C5693 H5677 0.930 . S
C5693 C5692 1.377 . S
C5693 C5694 1.379 . S
C5694 H5678 0.931 . S
C5694 C5688 1.383 . S
C5694 C5693 1.379 . S
H5695 C5689 0.959 . S
H5696 C5689 0.961 . S
H5697 C5689 0.960 . S
H5698 C5690 0.930 . S
H5699 C5691 0.929 . S
H5700 C5708 0.929 . S
H5701 C5710 0.930 . S
H5702 C5712 0.930 . S
H5703 C5715 0.929 . S
H5704 C5718 0.930 . S
H5705 C5720 0.960 . S
H5706 C5720 0.960 . S
H5707 C5720 0.960 . S
C5708 H5700 0.929 . S
C5708 C5709 1.377 . S
C5708 C5710 1.384 . S
C5709 C5708 1.377 . S
C5709 C5715 1.390 . S
C5710 H5701 0.930 . S
C5710 C5708 1.384 . S
C5710 C5711 1.372 . S
C5711 C5710 1.372 . S
C5711 C5712 1.400 . S
C5711 C5716 1.490 . S
C5712 H5702 0.930 . S
C5712 C5711 1.400 . S
C5712 C5715 1.386 . S
H5713 C5729 0.930 . S
H5714 C5730 0.931 . S
C5715 H5703 0.929 . S
C5715 C5709 1.390 . S
C5715 C5712 1.386 . S
C5716 C5711 1.490 . S
C5716 C5718 1.395 . S
C5716 C5719 1.403 . S
H5717 C5723 0.930 . S
C5718 H5704 0.930 . S
C5718 C5716 1.395 . S
C5718 C5721 1.403 . S
C5719 C5716 1.403 . S
C5719 C5720 1.524 . S
C5719 C5723 1.400 . S
C5720 H5705 0.960 . S
C5720 H5706 0.960 . S
C5720 H5707 0.960 . S
C5720 C5719 1.524 . S
C5721 C5718 1.403 . S
C5721 C5722 1.392 . S
C5721 C5725 1.495 . S
C5722 C5721 1.392 . S
C5722 C5723 1.385 . S
C5722 C5724 1.478 . S
C5723 H5717 0.930 . S
C5723 C5719 1.400 . S
C5723 C5722 1.385 . S
C5724 C5722 1.478 . S
C5724 C5726 1.381 . S
C5724 C5730 1.383 . S
C5725 C5721 1.495 . S
C5725 H5731 0.959 . S
C5725 H5732 0.961 . S
C5725 H5733 0.960 . S
C5726 C5724 1.381 . S
C5726 C5727 1.394 . S
C5726 H5734 0.930 . S
C5727 C5726 1.394 . S
C5727 C5728 1.383 . S
C5727 H5735 0.929 . S
C5728 C5727 1.383 . S
C5728 C5729 1.377 . S
C5729 H5713 0.930 . S
C5729 C5728 1.377 . S
C5729 C5730 1.379 . S
C5730 H5714 0.931 . S
C5730 C5724 1.383 . S
C5730 C5729 1.379 . S
H5731 C5725 0.959 . S
H5732 C5725 0.961 . S
H5733 C5725 0.960 . S
H5734 C5726 0.930 . S
H5735 C5727 0.929 . S
H5736 C5744 0.929 . S
H5737 C5746 0.930 . S
H5738 C5748 0.930 . S
H5739 C5751 0.929 . S
H5740 C5754 0.930 . S
H5741 C5756 0.960 . S
H5742 C5756 0.960 . S
H5743 C5756 0.960 . S
C5744 H5736 0.929 . S
C5744 C5745 1.377 . S
C5744 C5746 1.384 . S
C5745 C5744 1.377 . S
C5745 C5751 1.390 . S
C5746 H5737 0.930 . S
C5746 C5744 1.384 . S
C5746 C5747 1.372 . S
C5747 C5746 1.372 . S
C5747 C5748 1.400 . S
C5747 C5752 1.490 . S
C5748 H5738 0.930 . S
C5748 C5747 1.400 . S
C5748 C5751 1.386 . S
H5749 C5765 0.930 . S
H5750 C5766 0.931 . S
C5751 H5739 0.929 . S
C5751 C5745 1.390 . S
C5751 C5748 1.386 . S
C5752 C5747 1.490 . S
C5752 C5754 1.395 . S
C5752 C5755 1.403 . S
H5753 C5759 0.930 . S
C5754 H5740 0.930 . S
C5754 C5752 1.395 . S
C5754 C5757 1.403 . S
C5755 C5752 1.403 . S
C5755 C5756 1.524 . S
C5755 C5759 1.400 . S
C5756 H5741 0.960 . S
C5756 H5742 0.960 . S
C5756 H5743 0.960 . S
C5756 C5755 1.524 . S
C5757 C5754 1.403 . S
C5757 C5758 1.392 . S
C5757 C5761 1.495 . S
C5758 C5757 1.392 . S
C5758 C5759 1.385 . S
C5758 C5760 1.478 . S
C5759 H5753 0.930 . S
C5759 C5755 1.400 . S
C5759 C5758 1.385 . S
C5760 C5758 1.478 . S
C5760 C5762 1.381 . S
C5760 C5766 1.383 . S
C5761 C5757 1.495 . S
C5761 H5767 0.959 . S
C5761 H5768 0.961 . S
C5761 H5769 0.960 . S
C5762 C5760 1.381 . S
C5762 C5763 1.394 . S
C5762 H5770 0.930 . S
C5763 C5762 1.394 . S
C5763 C5764 1.383 . S
C5763 H5771 0.929 . S
C5764 C5763 1.383 . S
C5764 C5765 1.377 . S
C5765 H5749 0.930 . S
C5765 C5764 1.377 . S
C5765 C5766 1.379 . S
C5766 H5750 0.931 . S
C5766 C5760 1.383 . S
C5766 C5765 1.379 . S
H5767 C5761 0.959 . S
H5768 C5761 0.961 . S
H5769 C5761 0.960 . S
H5770 C5762 0.930 . S
H5771 C5763 0.929 . S
H5772 C5780 0.929 . S
H5773 C5782 0.930 . S
H5774 C5784 0.930 . S
H5775 C5787 0.929 . S
H5776 C5790 0.930 . S
H5777 C5792 0.960 . S
H5778 C5792 0.960 . S
H5779 C5792 0.960 . S
C5780 H5772 0.929 . S
C5780 C5781 1.377 . S
C5780 C5782 1.384 . S
C5781 C5780 1.377 . S
C5781 C5787 1.390 . S
C5782 H5773 0.930 . S
C5782 C5780 1.384 . S
C5782 C5783 1.372 . S
C5783 C5782 1.372 . S
C5783 C5784 1.400 . S
C5783 C5788 1.490 . S
C5784 H5774 0.930 . S
C5784 C5783 1.400 . S
C5784 C5787 1.386 . S
H5785 C5801 0.930 . S
H5786 C5802 0.931 . S
C5787 H5775 0.929 . S
C5787 C5781 1.390 . S
C5787 C5784 1.386 . S
C5788 C5783 1.490 . S
C5788 C5790 1.395 . S
C5788 C5791 1.403 . S
H5789 C5795 0.930 . S
C5790 H5776 0.930 . S
C5790 C5788 1.395 . S
C5790 C5793 1.403 . S
C5791 C5788 1.403 . S
C5791 C5792 1.524 . S
C5791 C5795 1.400 . S
C5792 H5777 0.960 . S
C5792 H5778 0.960 . S
C5792 H5779 0.960 . S
C5792 C5791 1.524 . S
C5793 C5790 1.403 . S
C5793 C5794 1.392 . S
C5793 C5797 1.495 . S
C5794 C5793 1.392 . S
C5794 C5795 1.385 . S
C5794 C5796 1.478 . S
C5795 H5789 0.930 . S
C5795 C5791 1.400 . S
C5795 C5794 1.385 . S
C5796 C5794 1.478 . S
C5796 C5798 1.381 . S
C5796 C5802 1.383 . S
C5797 C5793 1.495 . S
C5797 H5803 0.959 . S
C5797 H5804 0.961 . S
C5797 H5805 0.960 . S
C5798 C5796 1.381 . S
C5798 C5799 1.394 . S
C5798 H5806 0.930 . S
C5799 C5798 1.394 . S
C5799 C5800 1.383 . S
C5799 H5807 0.929 . S
C5800 C5799 1.383 . S
C5800 C5801 1.377 . S
C5801 H5785 0.930 . S
C5801 C5800 1.377 . S
C5801 C5802 1.379 . S
C5802 H5786 0.931 . S
C5802 C5796 1.383 . S
C5802 C5801 1.379 . S
H5803 C5797 0.959 . S
H5804 C5797 0.961 . S
H5805 C5797 0.960 . S
H5806 C5798 0.930 . S
H5807 C5799 0.929 . S
H5808 C5816 0.929 . S
H5809 C5818 0.930 . S
H5810 C5820 0.930 . S
H5811 C5823 0.929 . S
H5812 C5826 0.930 . S
H5813 C5828 0.960 . S
H5814 C5828 0.960 . S
H5815 C5828 0.960 . S
C5816 H5808 0.929 . S
C5816 C5817 1.377 . S
C5816 C5818 1.384 . S
C5817 C5816 1.377 . S
C5817 C5823 1.390 . S
C5818 H5809 0.930 . S
C5818 C5816 1.384 . S
C5818 C5819 1.372 . S
C5819 C5818 1.372 . S
C5819 C5820 1.400 . S
C5819 C5824 1.490 . S
C5820 H5810 0.930 . S
C5820 C5819 1.400 . S
C5820 C5823 1.386 . S
H5821 C5837 0.930 . S
H5822 C5838 0.931 . S
C5823 H5811 0.929 . S
C5823 C5817 1.390 . S
C5823 C5820 1.386 . S
C5824 C5819 1.490 . S
C5824 C5826 1.395 . S
C5824 C5827 1.403 . S
H5825 C5831 0.930 . S
C5826 H5812 0.930 . S
C5826 C5824 1.395 . S
C5826 C5829 1.403 . S
C5827 C5824 1.403 . S
C5827 C5828 1.524 . S
C5827 C5831 1.400 . S
C5828 H5813 0.960 . S
C5828 H5814 0.960 . S
C5828 H5815 0.960 . S
C5828 C5827 1.524 . S
C5829 C5826 1.403 . S
C5829 C5830 1.392 . S
C5829 C5833 1.495 . S
C5830 C5829 1.392 . S
C5830 C5831 1.385 . S
C5830 C5832 1.478 . S
C5831 H5825 0.930 . S
C5831 C5827 1.400 . S
C5831 C5830 1.385 . S
C5832 C5830 1.478 . S
C5832 C5834 1.381 . S
C5832 C5838 1.383 . S
C5833 C5829 1.495 . S
C5833 H5839 0.959 . S
C5833 H5840 0.961 . S
C5833 H5841 0.960 . S
C5834 C5832 1.381 . S
C5834 C5835 1.394 . S
C5834 H5842 0.930 . S
C5835 C5834 1.394 . S
C5835 C5836 1.383 . S
C5835 H5843 0.929 . S
C5836 C5835 1.383 . S
C5836 C5837 1.377 . S
C5837 H5821 0.930 . S
C5837 C5836 1.377 . S
C5837 C5838 1.379 . S
C5838 H5822 0.931 . S
C5838 C5832 1.383 . S
C5838 C5837 1.379 . S
H5839 C5833 0.959 . S
H5840 C5833 0.961 . S
H5841 C5833 0.960 . S
H5842 C5834 0.930 . S
H5843 C5835 0.929 . S
H5844 C5852 0.929 . S
H5845 C5854 0.930 . S
H5846 C5856 0.930 . S
H5847 C5859 0.929 . S
H5848 C5862 0.930 . S
H5849 C5864 0.960 . S
H5850 C5864 0.960 . S
H5851 C5864 0.960 . S
C5852 H5844 0.929 . S
C5852 C5853 1.377 . S
C5852 C5854 1.384 . S
C5853 C5852 1.377 . S
C5853 C5859 1.390 . S
C5854 H5845 0.930 . S
C5854 C5852 1.384 . S
C5854 C5855 1.372 . S
C5855 C5854 1.372 . S
C5855 C5856 1.400 . S
C5855 C5860 1.490 . S
C5856 H5846 0.930 . S
C5856 C5855 1.400 . S
C5856 C5859 1.386 . S
H5857 C5873 0.930 . S
H5858 C5874 0.931 . S
C5859 H5847 0.929 . S
C5859 C5853 1.390 . S
C5859 C5856 1.386 . S
C5860 C5855 1.490 . S
C5860 C5862 1.395 . S
C5860 C5863 1.403 . S
H5861 C5867 0.930 . S
C5862 H5848 0.930 . S
C5862 C5860 1.395 . S
C5862 C5865 1.403 . S
C5863 C5860 1.403 . S
C5863 C5864 1.524 . S
C5863 C5867 1.400 . S
C5864 H5849 0.960 . S
C5864 H5850 0.960 . S
C5864 H5851 0.960 . S
C5864 C5863 1.524 . S
C5865 C5862 1.403 . S
C5865 C5866 1.392 . S
C5865 C5869 1.495 . S
C5866 C5865 1.392 . S
C5866 C5867 1.385 . S
C5866 C5868 1.478 . S
C5867 H5861 0.930 . S
C5867 C5863 1.400 . S
C5867 C5866 1.385 . S
C5868 C5866 1.478 . S
C5868 C5870 1.381 . S
C5868 C5874 1.383 . S
C5869 C5865 1.495 . S
C5869 H5875 0.959 . S
C5869 H5876 0.961 . S
C5869 H5877 0.960 . S
C5870 C5868 1.381 . S
C5870 C5871 1.394 . S
C5870 H5878 0.930 . S
C5871 C5870 1.394 . S
C5871 C5872 1.383 . S
C5871 H5879 0.929 . S
C5872 C5871 1.383 . S
C5872 C5873 1.377 . S
C5873 H5857 0.930 . S
C5873 C5872 1.377 . S
C5873 C5874 1.379 . S
C5874 H5858 0.931 . S
C5874 C5868 1.383 . S
C5874 C5873 1.379 . S
H5875 C5869 0.959 . S
H5876 C5869 0.961 . S
H5877 C5869 0.960 . S
H5878 C5870 0.930 . S
H5879 C5871 0.929 . S
H5880 C5888 0.929 . S
H5881 C5890 0.930 . S
H5882 C5892 0.930 . S
H5883 C5895 0.929 . S
H5884 C5898 0.930 . S
H5885 C5900 0.960 . S
H5886 C5900 0.960 . S
H5887 C5900 0.960 . S
C5888 H5880 0.929 . S
C5888 C5889 1.377 . S
C5888 C5890 1.384 . S
C5889 C5888 1.377 . S
C5889 C5895 1.390 . S
C5890 H5881 0.930 . S
C5890 C5888 1.384 . S
C5890 C5891 1.372 . S
C5891 C5890 1.372 . S
C5891 C5892 1.400 . S
C5891 C5896 1.490 . S
C5892 H5882 0.930 . S
C5892 C5891 1.400 . S
C5892 C5895 1.386 . S
H5893 C5909 0.930 . S
H5894 C5910 0.931 . S
C5895 H5883 0.929 . S
C5895 C5889 1.390 . S
C5895 C5892 1.386 . S
C5896 C5891 1.490 . S
C5896 C5898 1.395 . S
C5896 C5899 1.403 . S
H5897 C5903 0.930 . S
C5898 H5884 0.930 . S
C5898 C5896 1.395 . S
C5898 C5901 1.403 . S
C5899 C5896 1.403 . S
C5899 C5900 1.524 . S
C5899 C5903 1.400 . S
C5900 H5885 0.960 . S
C5900 H5886 0.960 . S
C5900 H5887 0.960 . S
C5900 C5899 1.524 . S
C5901 C5898 1.403 . S
C5901 C5902 1.392 . S
C5901 C5905 1.495 . S
C5902 C5901 1.392 . S
C5902 C5903 1.385 . S
C5902 C5904 1.478 . S
C5903 H5897 0.930 . S
C5903 C5899 1.400 . S
C5903 C5902 1.385 . S
C5904 C5902 1.478 . S
C5904 C5906 1.381 . S
C5904 C5910 1.383 . S
C5905 C5901 1.495 . S
C5905 H5911 0.959 . S
C5905 H5912 0.961 . S
C5905 H5913 0.960 . S
C5906 C5904 1.381 . S
C5906 C5907 1.394 . S
C5906 H5914 0.930 . S
C5907 C5906 1.394 . S
C5907 C5908 1.383 . S
C5907 H5915 0.929 . S
C5908 C5907 1.383 . S
C5908 C5909 1.377 . S
C5909 H5893 0.930 . S
C5909 C5908 1.377 . S
C5909 C5910 1.379 . S
C5910 H5894 0.931 . S
C5910 C5904 1.383 . S
C5910 C5909 1.379 . S
H5911 C5905 0.959 . S
H5912 C5905 0.961 . S
H5913 C5905 0.960 . S
H5914 C5906 0.930 . S
H5915 C5907 0.929 . S
H5916 C5924 0.929 . S
H5917 C5926 0.930 . S
H5918 C5928 0.930 . S
H5919 C5931 0.929 . S
H5920 C5934 0.930 . S
H5921 C5936 0.960 . S
H5922 C5936 0.960 . S
H5923 C5936 0.960 . S
C5924 H5916 0.929 . S
C5924 C5925 1.377 . S
C5924 C5926 1.384 . S
C5925 C5924 1.377 . S
C5925 C5931 1.390 . S
C5926 H5917 0.930 . S
C5926 C5924 1.384 . S
C5926 C5927 1.372 . S
C5927 C5926 1.372 . S
C5927 C5928 1.400 . S
C5927 C5932 1.490 . S
C5928 H5918 0.930 . S
C5928 C5927 1.400 . S
C5928 C5931 1.386 . S
H5929 C5945 0.930 . S
H5930 C5946 0.931 . S
C5931 H5919 0.929 . S
C5931 C5925 1.390 . S
C5931 C5928 1.386 . S
C5932 C5927 1.490 . S
C5932 C5934 1.395 . S
C5932 C5935 1.403 . S
H5933 C5939 0.930 . S
C5934 H5920 0.930 . S
C5934 C5932 1.395 . S
C5934 C5937 1.403 . S
C5935 C5932 1.403 . S
C5935 C5936 1.524 . S
C5935 C5939 1.400 . S
C5936 H5921 0.960 . S
C5936 H5922 0.960 . S
C5936 H5923 0.960 . S
C5936 C5935 1.524 . S
C5937 C5934 1.403 . S
C5937 C5938 1.392 . S
C5937 C5941 1.495 . S
C5938 C5937 1.392 . S
C5938 C5939 1.385 . S
C5938 C5940 1.478 . S
C5939 H5933 0.930 . S
C5939 C5935 1.400 . S
C5939 C5938 1.385 . S
C5940 C5938 1.478 . S
C5940 C5942 1.381 . S
C5940 C5946 1.383 . S
C5941 C5937 1.495 . S
C5941 H5947 0.959 . S
C5941 H5948 0.961 . S
C5941 H5949 0.960 . S
C5942 C5940 1.381 . S
C5942 C5943 1.394 . S
C5942 H5950 0.930 . S
C5943 C5942 1.394 . S
C5943 C5944 1.383 . S
C5943 H5951 0.929 . S
C5944 C5943 1.383 . S
C5944 C5945 1.377 . S
C5945 H5929 0.930 . S
C5945 C5944 1.377 . S
C5945 C5946 1.379 . S
C5946 H5930 0.931 . S
C5946 C5940 1.383 . S
C5946 C5945 1.379 . S
H5947 C5941 0.959 . S
H5948 C5941 0.961 . S
H5949 C5941 0.960 . S
H5950 C5942 0.930 . S
H5951 C5943 0.929 . S
H5952 C5960 0.929 . S
H5953 C5962 0.930 . S
H5954 C5964 0.930 . S
H5955 C5967 0.929 . S
H5956 C5970 0.930 . S
H5957 C5972 0.960 . S
H5958 C5972 0.960 . S
H5959 C5972 0.960 . S
C5960 H5952 0.929 . S
C5960 C5961 1.377 . S
C5960 C5962 1.384 . S
C5961 C5960 1.377 . S
C5961 C5967 1.390 . S
C5962 H5953 0.930 . S
C5962 C5960 1.384 . S
C5962 C5963 1.372 . S
C5963 C5962 1.372 . S
C5963 C5964 1.400 . S
C5963 C5968 1.490 . S
C5964 H5954 0.930 . S
C5964 C5963 1.400 . S
C5964 C5967 1.386 . S
H5965 C5981 0.930 . S
H5966 C5982 0.931 . S
C5967 H5955 0.929 . S
C5967 C5961 1.390 . S
C5967 C5964 1.386 . S
C5968 C5963 1.490 . S
C5968 C5970 1.395 . S
C5968 C5971 1.403 . S
H5969 C5975 0.930 . S
C5970 H5956 0.930 . S
C5970 C5968 1.395 . S
C5970 C5973 1.403 . S
C5971 C5968 1.403 . S
C5971 C5972 1.524 . S
C5971 C5975 1.400 . S
C5972 H5957 0.960 . S
C5972 H5958 0.960 . S
C5972 H5959 0.960 . S
C5972 C5971 1.524 . S
C5973 C5970 1.403 . S
C5973 C5974 1.392 . S
C5973 C5977 1.495 . S
C5974 C5973 1.392 . S
C5974 C5975 1.385 . S
C5974 C5976 1.478 . S
C5975 H5969 0.930 . S
C5975 C5971 1.400 . S
C5975 C5974 1.385 . S
C5976 C5974 1.478 . S
C5976 C5978 1.381 . S
C5976 C5982 1.383 . S
C5977 C5973 1.495 . S
C5977 H5983 0.959 . S
C5977 H5984 0.961 . S
C5977 H5985 0.960 . S
C5978 C5976 1.381 . S
C5978 C5979 1.394 . S
C5978 H5986 0.930 . S
C5979 C5978 1.394 . S
C5979 C5980 1.383 . S
C5979 H5987 0.929 . S
C5980 C5979 1.383 . S
C5980 C5981 1.377 . S
C5981 H5965 0.930 . S
C5981 C5980 1.377 . S
C5981 C5982 1.379 . S
C5982 H5966 0.931 . S
C5982 C5976 1.383 . S
C5982 C5981 1.379 . S
H5983 C5977 0.959 . S
H5984 C5977 0.961 . S
H5985 C5977 0.960 . S
H5986 C5978 0.930 . S
H5987 C5979 0.929 . S
H5988 C5996 0.929 . S
H5989 C5998 0.930 . S
H5990 C6000 0.930 . S
H5991 C6003 0.929 . S
H5992 C6006 0.930 . S
H5993 C6008 0.960 . S
H5994 C6008 0.960 . S
H5995 C6008 0.960 . S
C5996 H5988 0.929 . S
C5996 C5997 1.377 . S
C5996 C5998 1.384 . S
C5997 C5996 1.377 . S
C5997 C6003 1.390 . S
C5998 H5989 0.930 . S
C5998 C5996 1.384 . S
C5998 C5999 1.372 . S
C5999 C5998 1.372 . S
C5999 C6000 1.400 . S
C5999 C6004 1.490 . S
C6000 H5990 0.930 . S
C6000 C5999 1.400 . S
C6000 C6003 1.386 . S
H6001 C6017 0.930 . S
H6002 C6018 0.931 . S
C6003 H5991 0.929 . S
C6003 C5997 1.390 . S
C6003 C6000 1.386 . S
C6004 C5999 1.490 . S
C6004 C6006 1.395 . S
C6004 C6007 1.403 . S
H6005 C6011 0.930 . S
C6006 H5992 0.930 . S
C6006 C6004 1.395 . S
C6006 C6009 1.403 . S
C6007 C6004 1.403 . S
C6007 C6008 1.524 . S
C6007 C6011 1.400 . S
C6008 H5993 0.960 . S
C6008 H5994 0.960 . S
C6008 H5995 0.960 . S
C6008 C6007 1.524 . S
C6009 C6006 1.403 . S
C6009 C6010 1.392 . S
C6009 C6013 1.495 . S
C6010 C6009 1.392 . S
C6010 C6011 1.385 . S
C6010 C6012 1.478 . S
C6011 H6005 0.930 . S
C6011 C6007 1.400 . S
C6011 C6010 1.385 . S
C6012 C6010 1.478 . S
C6012 C6014 1.381 . S
C6012 C6018 1.383 . S
C6013 C6009 1.495 . S
C6013 H6019 0.959 . S
C6013 H6020 0.961 . S
C6013 H6021 0.960 . S
C6014 C6012 1.381 . S
C6014 C6015 1.394 . S
C6014 H6022 0.930 . S
C6015 C6014 1.394 . S
C6015 C6016 1.383 . S
C6015 H6023 0.929 . S
C6016 C6015 1.383 . S
C6016 C6017 1.377 . S
C6017 H6001 0.930 . S
C6017 C6016 1.377 . S
C6017 C6018 1.379 . S
C6018 H6002 0.931 . S
C6018 C6012 1.383 . S
C6018 C6017 1.379 . S
H6019 C6013 0.959 . S
H6020 C6013 0.961 . S
H6021 C6013 0.960 . S
H6022 C6014 0.930 . S
H6023 C6015 0.929 . S
H6024 C6032 0.929 . S
H6025 C6034 0.930 . S
H6026 C6036 0.930 . S
H6027 C6039 0.929 . S
H6028 C6042 0.930 . S
H6029 C6044 0.960 . S
H6030 C6044 0.960 . S
H6031 C6044 0.960 . S
C6032 H6024 0.929 . S
C6032 C6033 1.377 . S
C6032 C6034 1.384 . S
C6033 C6032 1.377 . S
C6033 C6039 1.390 . S
C6034 H6025 0.930 . S
C6034 C6032 1.384 . S
C6034 C6035 1.372 . S
C6035 C6034 1.372 . S
C6035 C6036 1.400 . S
C6035 C6040 1.490 . S
C6036 H6026 0.930 . S
C6036 C6035 1.400 . S
C6036 C6039 1.386 . S
H6037 C6053 0.930 . S
H6038 C6054 0.931 . S
C6039 H6027 0.929 . S
C6039 C6033 1.390 . S
C6039 C6036 1.386 . S
C6040 C6035 1.490 . S
C6040 C6042 1.395 . S
C6040 C6043 1.403 . S
H6041 C6047 0.930 . S
C6042 H6028 0.930 . S
C6042 C6040 1.395 . S
C6042 C6045 1.403 . S
C6043 C6040 1.403 . S
C6043 C6044 1.524 . S
C6043 C6047 1.400 . S
C6044 H6029 0.960 . S
C6044 H6030 0.960 . S
C6044 H6031 0.960 . S
C6044 C6043 1.524 . S
C6045 C6042 1.403 . S
C6045 C6046 1.392 . S
C6045 C6049 1.495 . S
C6046 C6045 1.392 . S
C6046 C6047 1.385 . S
C6046 C6048 1.478 . S
C6047 H6041 0.930 . S
C6047 C6043 1.400 . S
C6047 C6046 1.385 . S
C6048 C6046 1.478 . S
C6048 C6050 1.381 . S
C6048 C6054 1.383 . S
C6049 C6045 1.495 . S
C6049 H6055 0.959 . S
C6049 H6056 0.961 . S
C6049 H6057 0.960 . S
C6050 C6048 1.381 . S
C6050 C6051 1.394 . S
C6050 H6058 0.930 . S
C6051 C6050 1.394 . S
C6051 C6052 1.383 . S
C6051 H6059 0.929 . S
C6052 C6051 1.383 . S
C6052 C6053 1.377 . S
C6053 H6037 0.930 . S
C6053 C6052 1.377 . S
C6053 C6054 1.379 . S
C6054 H6038 0.931 . S
C6054 C6048 1.383 . S
C6054 C6053 1.379 . S
H6055 C6049 0.959 . S
H6056 C6049 0.961 . S
H6057 C6049 0.960 . S
H6058 C6050 0.930 . S
H6059 C6051 0.929 . S
H6060 C6068 0.929 . S
H6061 C6070 0.930 . S
H6062 C6072 0.930 . S
H6063 C6075 0.929 . S
H6064 C6078 0.930 . S
H6065 C6080 0.960 . S
H6066 C6080 0.960 . S
H6067 C6080 0.960 . S
C6068 H6060 0.929 . S
C6068 C6069 1.377 . S
C6068 C6070 1.384 . S
C6069 C6068 1.377 . S
C6069 C6075 1.390 . S
C6070 H6061 0.930 . S
C6070 C6068 1.384 . S
C6070 C6071 1.372 . S
C6071 C6070 1.372 . S
C6071 C6072 1.400 . S
C6071 C6076 1.490 . S
C6072 H6062 0.930 . S
C6072 C6071 1.400 . S
C6072 C6075 1.386 . S
H6073 C6089 0.930 . S
H6074 C6090 0.931 . S
C6075 H6063 0.929 . S
C6075 C6069 1.390 . S
C6075 C6072 1.386 . S
C6076 C6071 1.490 . S
C6076 C6078 1.395 . S
C6076 C6079 1.403 . S
H6077 C6083 0.930 . S
C6078 H6064 0.930 . S
C6078 C6076 1.395 . S
C6078 C6081 1.403 . S
C6079 C6076 1.403 . S
C6079 C6080 1.524 . S
C6079 C6083 1.400 . S
C6080 H6065 0.960 . S
C6080 H6066 0.960 . S
C6080 H6067 0.960 . S
C6080 C6079 1.524 . S
C6081 C6078 1.403 . S
C6081 C6082 1.392 . S
C6081 C6085 1.495 . S
C6082 C6081 1.392 . S
C6082 C6083 1.385 . S
C6082 C6084 1.478 . S
C6083 H6077 0.930 . S
C6083 C6079 1.400 . S
C6083 C6082 1.385 . S
C6084 C6082 1.478 . S
C6084 C6086 1.381 . S
C6084 C6090 1.383 . S
C6085 C6081 1.495 . S
C6085 H6091 0.959 . S
C6085 H6092 0.961 . S
C6085 H6093 0.960 . S
C6086 C6084 1.381 . S
C6086 C6087 1.394 . S
C6086 H6094 0.930 . S
C6087 C6086 1.394 . S
C6087 C6088 1.383 . S
C6087 H6095 0.929 . S
C6088 C6087 1.383 . S
C6088 C6089 1.377 . S
C6089 H6073 0.930 . S
C6089 C6088 1.377 . S
C6089 C6090 1.379 . S
C6090 H6074 0.931 . S
C6090 C6084 1.383 . S
C6090 C6089 1.379 . S
H6091 C6085 0.959 . S
H6092 C6085 0.961 . S
H6093 C6085 0.960 . S
H6094 C6086 0.930 . S
H6095 C6087 0.929 . S
H6096 C6104 0.929 . S
H6097 C6106 0.930 . S
H6098 C6108 0.930 . S
H6099 C6111 0.929 . S
H6100 C6114 0.930 . S
H6101 C6116 0.960 . S
H6102 C6116 0.960 . S
H6103 C6116 0.960 . S
C6104 H6096 0.929 . S
C6104 C6105 1.377 . S
C6104 C6106 1.384 . S
C6105 C6104 1.377 . S
C6105 C6111 1.390 . S
C6106 H6097 0.930 . S
C6106 C6104 1.384 . S
C6106 C6107 1.372 . S
C6107 C6106 1.372 . S
C6107 C6108 1.400 . S
C6107 C6112 1.490 . S
C6108 H6098 0.930 . S
C6108 C6107 1.400 . S
C6108 C6111 1.386 . S
H6109 C6125 0.930 . S
H6110 C6126 0.931 . S
C6111 H6099 0.929 . S
C6111 C6105 1.390 . S
C6111 C6108 1.386 . S
C6112 C6107 1.490 . S
C6112 C6114 1.395 . S
C6112 C6115 1.403 . S
H6113 C6119 0.930 . S
C6114 H6100 0.930 . S
C6114 C6112 1.395 . S
C6114 C6117 1.403 . S
C6115 C6112 1.403 . S
C6115 C6116 1.524 . S
C6115 C6119 1.400 . S
C6116 H6101 0.960 . S
C6116 H6102 0.960 . S
C6116 H6103 0.960 . S
C6116 C6115 1.524 . S
C6117 C6114 1.403 . S
C6117 C6118 1.392 . S
C6117 C6121 1.495 . S
C6118 C6117 1.392 . S
C6118 C6119 1.385 . S
C6118 C6120 1.478 . S
C6119 H6113 0.930 . S
C6119 C6115 1.400 . S
C6119 C6118 1.385 . S
C6120 C6118 1.478 . S
C6120 C6122 1.381 . S
C6120 C6126 1.383 . S
C6121 C6117 1.495 . S
C6121 H6127 0.959 . S
C6121 H6128 0.961 . S
C6121 H6129 0.960 . S
C6122 C6120 1.381 . S
C6122 C6123 1.394 . S
C6122 H6130 0.930 . S
C6123 C6122 1.394 . S
C6123 C6124 1.383 . S
C6123 H6131 0.929 . S
C6124 C6123 1.383 . S
C6124 C6125 1.377 . S
C6125 H6109 0.930 . S
C6125 C6124 1.377 . S
C6125 C6126 1.379 . S
C6126 H6110 0.931 . S
C6126 C6120 1.383 . S
C6126 C6125 1.379 . S
H6127 C6121 0.959 . S
H6128 C6121 0.961 . S
H6129 C6121 0.960 . S
H6130 C6122 0.930 . S
H6131 C6123 0.929 . S
H6132 C6140 0.929 . S
H6133 C6142 0.930 . S
H6134 C6144 0.930 . S
H6135 C6147 0.929 . S
H6136 C6150 0.930 . S
H6137 C6152 0.960 . S
H6138 C6152 0.960 . S
H6139 C6152 0.960 . S
C6140 H6132 0.929 . S
C6140 C6141 1.377 . S
C6140 C6142 1.384 . S
C6141 C6140 1.377 . S
C6141 C6147 1.390 . S
C6142 H6133 0.930 . S
C6142 C6140 1.384 . S
C6142 C6143 1.372 . S
C6143 C6142 1.372 . S
C6143 C6144 1.400 . S
C6143 C6148 1.490 . S
C6144 H6134 0.930 . S
C6144 C6143 1.400 . S
C6144 C6147 1.386 . S
H6145 C6161 0.930 . S
H6146 C6162 0.931 . S
C6147 H6135 0.929 . S
C6147 C6141 1.390 . S
C6147 C6144 1.386 . S
C6148 C6143 1.490 . S
C6148 C6150 1.395 . S
C6148 C6151 1.403 . S
H6149 C6155 0.930 . S
C6150 H6136 0.930 . S
C6150 C6148 1.395 . S
C6150 C6153 1.403 . S
C6151 C6148 1.403 . S
C6151 C6152 1.524 . S
C6151 C6155 1.400 . S
C6152 H6137 0.960 . S
C6152 H6138 0.960 . S
C6152 H6139 0.960 . S
C6152 C6151 1.524 . S
C6153 C6150 1.403 . S
C6153 C6154 1.392 . S
C6153 C6157 1.495 . S
C6154 C6153 1.392 . S
C6154 C6155 1.385 . S
C6154 C6156 1.478 . S
C6155 H6149 0.930 . S
C6155 C6151 1.400 . S
C6155 C6154 1.385 . S
C6156 C6154 1.478 . S
C6156 C6158 1.381 . S
C6156 C6162 1.383 . S
C6157 C6153 1.495 . S
C6157 H6163 0.959 . S
C6157 H6164 0.961 . S
C6157 H6165 0.960 . S
C6158 C6156 1.381 . S
C6158 C6159 1.394 . S
C6158 H6166 0.930 . S
C6159 C6158 1.394 . S
C6159 C6160 1.383 . S
C6159 H6167 0.929 . S
C6160 C6159 1.383 . S
C6160 C6161 1.377 . S
C6161 H6145 0.930 . S
C6161 C6160 1.377 . S
C6161 C6162 1.379 . S
C6162 H6146 0.931 . S
C6162 C6156 1.383 . S
C6162 C6161 1.379 . S
H6163 C6157 0.959 . S
H6164 C6157 0.961 . S
H6165 C6157 0.960 . S
H6166 C6158 0.930 . S
H6167 C6159 0.929 . S
H6168 C6176 0.929 . S
H6169 C6178 0.930 . S
H6170 C6180 0.930 . S
H6171 C6183 0.929 . S
H6172 C6186 0.930 . S
H6173 C6188 0.960 . S
H6174 C6188 0.960 . S
H6175 C6188 0.960 . S
C6176 H6168 0.929 . S
C6176 C6177 1.377 . S
C6176 C6178 1.384 . S
C6177 C6176 1.377 . S
C6177 C6183 1.390 . S
C6178 H6169 0.930 . S
C6178 C6176 1.384 . S
C6178 C6179 1.372 . S
C6179 C6178 1.372 . S
C6179 C6180 1.400 . S
C6179 C6184 1.490 . S
C6180 H6170 0.930 . S
C6180 C6179 1.400 . S
C6180 C6183 1.386 . S
H6181 C6197 0.930 . S
H6182 C6198 0.931 . S
C6183 H6171 0.929 . S
C6183 C6177 1.390 . S
C6183 C6180 1.386 . S
C6184 C6179 1.490 . S
C6184 C6186 1.395 . S
C6184 C6187 1.403 . S
H6185 C6191 0.930 . S
C6186 H6172 0.930 . S
C6186 C6184 1.395 . S
C6186 C6189 1.403 . S
C6187 C6184 1.403 . S
C6187 C6188 1.524 . S
C6187 C6191 1.400 . S
C6188 H6173 0.960 . S
C6188 H6174 0.960 . S
C6188 H6175 0.960 . S
C6188 C6187 1.524 . S
C6189 C6186 1.403 . S
C6189 C6190 1.392 . S
C6189 C6193 1.495 . S
C6190 C6189 1.392 . S
C6190 C6191 1.385 . S
C6190 C6192 1.478 . S
C6191 H6185 0.930 . S
C6191 C6187 1.400 . S
C6191 C6190 1.385 . S
C6192 C6190 1.478 . S
C6192 C6194 1.381 . S
C6192 C6198 1.383 . S
C6193 C6189 1.495 . S
C6193 H6199 0.959 . S
C6193 H6200 0.961 . S
C6193 H6201 0.960 . S
C6194 C6192 1.381 . S
C6194 C6195 1.394 . S
C6194 H6202 0.930 . S
C6195 C6194 1.394 . S
C6195 C6196 1.383 . S
C6195 H6203 0.929 . S
C6196 C6195 1.383 . S
C6196 C6197 1.377 . S
C6197 H6181 0.930 . S
C6197 C6196 1.377 . S
C6197 C6198 1.379 . S
C6198 H6182 0.931 . S
C6198 C6192 1.383 . S
C6198 C6197 1.379 . S
H6199 C6193 0.959 . S
H6200 C6193 0.961 . S
H6201 C6193 0.960 . S
H6202 C6194 0.930 . S
H6203 C6195 0.929 . S
H6204 C6212 0.929 . S
H6205 C6214 0.930 . S
H6206 C6216 0.930 . S
H6207 C6219 0.929 . S
H6208 C6222 0.930 . S
H6209 C6224 0.960 . S
H6210 C6224 0.960 . S
H6211 C6224 0.960 . S
C6212 H6204 0.929 . S
C6212 C6213 1.377 . S
C6212 C6214 1.384 . S
C6213 C6212 1.377 . S
C6213 C6219 1.390 . S
C6214 H6205 0.930 . S
C6214 C6212 1.384 . S
C6214 C6215 1.372 . S
C6215 C6214 1.372 . S
C6215 C6216 1.400 . S
C6215 C6220 1.490 . S
C6216 H6206 0.930 . S
C6216 C6215 1.400 . S
C6216 C6219 1.386 . S
H6217 C6233 0.930 . S
H6218 C6234 0.931 . S
C6219 H6207 0.929 . S
C6219 C6213 1.390 . S
C6219 C6216 1.386 . S
C6220 C6215 1.490 . S
C6220 C6222 1.395 . S
C6220 C6223 1.403 . S
H6221 C6227 0.930 . S
C6222 H6208 0.930 . S
C6222 C6220 1.395 . S
C6222 C6225 1.403 . S
C6223 C6220 1.403 . S
C6223 C6224 1.524 . S
C6223 C6227 1.400 . S
C6224 H6209 0.960 . S
C6224 H6210 0.960 . S
C6224 H6211 0.960 . S
C6224 C6223 1.524 . S
C6225 C6222 1.403 . S
C6225 C6226 1.392 . S
C6225 C6229 1.495 . S
C6226 C6225 1.392 . S
C6226 C6227 1.385 . S
C6226 C6228 1.478 . S
C6227 H6221 0.930 . S
C6227 C6223 1.400 . S
C6227 C6226 1.385 . S
C6228 C6226 1.478 . S
C6228 C6230 1.381 . S
C6228 C6234 1.383 . S
C6229 C6225 1.495 . S
C6229 H6235 0.959 . S
C6229 H6236 0.961 . S
C6229 H6237 0.960 . S
C6230 C6228 1.381 . S
C6230 C6231 1.394 . S
C6230 H6238 0.930 . S
C6231 C6230 1.394 . S
C6231 C6232 1.383 . S
C6231 H6239 0.929 . S
C6232 C6231 1.383 . S
C6232 C6233 1.377 . S
C6233 H6217 0.930 . S
C6233 C6232 1.377 . S
C6233 C6234 1.379 . S
C6234 H6218 0.931 . S
C6234 C6228 1.383 . S
C6234 C6233 1.379 . S
H6235 C6229 0.959 . S
H6236 C6229 0.961 . S
H6237 C6229 0.960 . S
H6238 C6230 0.930 . S
H6239 C6231 0.929 . S
H6240 C6248 0.929 . S
H6241 C6250 0.930 . S
H6242 C6252 0.930 . S
H6243 C6255 0.929 . S
H6244 C6258 0.930 . S
H6245 C6260 0.960 . S
H6246 C6260 0.960 . S
H6247 C6260 0.960 . S
C6248 H6240 0.929 . S
C6248 C6249 1.377 . S
C6248 C6250 1.384 . S
C6249 C6248 1.377 . S
C6249 C6255 1.390 . S
C6250 H6241 0.930 . S
C6250 C6248 1.384 . S
C6250 C6251 1.372 . S
C6251 C6250 1.372 . S
C6251 C6252 1.400 . S
C6251 C6256 1.490 . S
C6252 H6242 0.930 . S
C6252 C6251 1.400 . S
C6252 C6255 1.386 . S
H6253 C6269 0.930 . S
H6254 C6270 0.931 . S
C6255 H6243 0.929 . S
C6255 C6249 1.390 . S
C6255 C6252 1.386 . S
C6256 C6251 1.490 . S
C6256 C6258 1.395 . S
C6256 C6259 1.403 . S
H6257 C6263 0.930 . S
C6258 H6244 0.930 . S
C6258 C6256 1.395 . S
C6258 C6261 1.403 . S
C6259 C6256 1.403 . S
C6259 C6260 1.524 . S
C6259 C6263 1.400 . S
C6260 H6245 0.960 . S
C6260 H6246 0.960 . S
C6260 H6247 0.960 . S
C6260 C6259 1.524 . S
C6261 C6258 1.403 . S
C6261 C6262 1.392 . S
C6261 C6265 1.495 . S
C6262 C6261 1.392 . S
C6262 C6263 1.385 . S
C6262 C6264 1.478 . S
C6263 H6257 0.930 . S
C6263 C6259 1.400 . S
C6263 C6262 1.385 . S
C6264 C6262 1.478 . S
C6264 C6266 1.381 . S
C6264 C6270 1.383 . S
C6265 C6261 1.495 . S
C6265 H6271 0.959 . S
C6265 H6272 0.961 . S
C6265 H6273 0.960 . S
C6266 C6264 1.381 . S
C6266 C6267 1.394 . S
C6266 H6274 0.930 . S
C6267 C6266 1.394 . S
C6267 C6268 1.383 . S
C6267 H6275 0.929 . S
C6268 C6267 1.383 . S
C6268 C6269 1.377 . S
C6269 H6253 0.930 . S
C6269 C6268 1.377 . S
C6269 C6270 1.379 . S
C6270 H6254 0.931 . S
C6270 C6264 1.383 . S
C6270 C6269 1.379 . S
H6271 C6265 0.959 . S
H6272 C6265 0.961 . S
H6273 C6265 0.960 . S
H6274 C6266 0.930 . S
H6275 C6267 0.929 . S
H6276 C6284 0.929 . S
H6277 C6286 0.930 . S
H6278 C6288 0.930 . S
H6279 C6291 0.929 . S
H6280 C6294 0.930 . S
H6281 C6296 0.960 . S
H6282 C6296 0.960 . S
H6283 C6296 0.960 . S
C6284 H6276 0.929 . S
C6284 C6285 1.377 . S
C6284 C6286 1.384 . S
C6285 C6284 1.377 . S
C6285 C6291 1.390 . S
C6286 H6277 0.930 . S
C6286 C6284 1.384 . S
C6286 C6287 1.372 . S
C6287 C6286 1.372 . S
C6287 C6288 1.400 . S
C6287 C6292 1.490 . S
C6288 H6278 0.930 . S
C6288 C6287 1.400 . S
C6288 C6291 1.386 . S
H6289 C6305 0.930 . S
H6290 C6306 0.931 . S
C6291 H6279 0.929 . S
C6291 C6285 1.390 . S
C6291 C6288 1.386 . S
C6292 C6287 1.490 . S
C6292 C6294 1.395 . S
C6292 C6295 1.403 . S
H6293 C6299 0.930 . S
C6294 H6280 0.930 . S
C6294 C6292 1.395 . S
C6294 C6297 1.403 . S
C6295 C6292 1.403 . S
C6295 C6296 1.524 . S
C6295 C6299 1.400 . S
C6296 H6281 0.960 . S
C6296 H6282 0.960 . S
C6296 H6283 0.960 . S
C6296 C6295 1.524 . S
C6297 C6294 1.403 . S
C6297 C6298 1.392 . S
C6297 C6301 1.495 . S
C6298 C6297 1.392 . S
C6298 C6299 1.385 . S
C6298 C6300 1.478 . S
C6299 H6293 0.930 . S
C6299 C6295 1.400 . S
C6299 C6298 1.385 . S
C6300 C6298 1.478 . S
C6300 C6302 1.381 . S
C6300 C6306 1.383 . S
C6301 C6297 1.495 . S
C6301 H6307 0.959 . S
C6301 H6308 0.961 . S
C6301 H6309 0.960 . S
C6302 C6300 1.381 . S
C6302 C6303 1.394 . S
C6302 H6310 0.930 . S
C6303 C6302 1.394 . S
C6303 C6304 1.383 . S
C6303 H6311 0.929 . S
C6304 C6303 1.383 . S
C6304 C6305 1.377 . S
C6305 H6289 0.930 . S
C6305 C6304 1.377 . S
C6305 C6306 1.379 . S
C6306 H6290 0.931 . S
C6306 C6300 1.383 . S
C6306 C6305 1.379 . S
H6307 C6301 0.959 . S
H6308 C6301 0.961 . S
H6309 C6301 0.960 . S
H6310 C6302 0.930 . S
H6311 C6303 0.929 . S
H6312 C6320 0.929 . S
H6313 C6322 0.930 . S
H6314 C6324 0.930 . S
H6315 C6327 0.929 . S
H6316 C6330 0.930 . S
H6317 C6332 0.960 . S
H6318 C6332 0.960 . S
H6319 C6332 0.960 . S
C6320 H6312 0.929 . S
C6320 C6321 1.377 . S
C6320 C6322 1.384 . S
C6321 C6320 1.377 . S
C6321 C6327 1.390 . S
C6322 H6313 0.930 . S
C6322 C6320 1.384 . S
C6322 C6323 1.372 . S
C6323 C6322 1.372 . S
C6323 C6324 1.400 . S
C6323 C6328 1.490 . S
C6324 H6314 0.930 . S
C6324 C6323 1.400 . S
C6324 C6327 1.386 . S
H6325 C6341 0.930 . S
H6326 C6342 0.931 . S
C6327 H6315 0.929 . S
C6327 C6321 1.390 . S
C6327 C6324 1.386 . S
C6328 C6323 1.490 . S
C6328 C6330 1.395 . S
C6328 C6331 1.403 . S
H6329 C6335 0.930 . S
C6330 H6316 0.930 . S
C6330 C6328 1.395 . S
C6330 C6333 1.403 . S
C6331 C6328 1.403 . S
C6331 C6332 1.524 . S
C6331 C6335 1.400 . S
C6332 H6317 0.960 . S
C6332 H6318 0.960 . S
C6332 H6319 0.960 . S
C6332 C6331 1.524 . S
C6333 C6330 1.403 . S
C6333 C6334 1.392 . S
C6333 C6337 1.495 . S
C6334 C6333 1.392 . S
C6334 C6335 1.385 . S
C6334 C6336 1.478 . S
C6335 H6329 0.930 . S
C6335 C6331 1.400 . S
C6335 C6334 1.385 . S
C6336 C6334 1.478 . S
C6336 C6338 1.381 . S
C6336 C6342 1.383 . S
C6337 C6333 1.495 . S
C6337 H6343 0.959 . S
C6337 H6344 0.961 . S
C6337 H6345 0.960 . S
C6338 C6336 1.381 . S
C6338 C6339 1.394 . S
C6338 H6346 0.930 . S
C6339 C6338 1.394 . S
C6339 C6340 1.383 . S
C6339 H6347 0.929 . S
C6340 C6339 1.383 . S
C6340 C6341 1.377 . S
C6341 H6325 0.930 . S
C6341 C6340 1.377 . S
C6341 C6342 1.379 . S
C6342 H6326 0.931 . S
C6342 C6336 1.383 . S
C6342 C6341 1.379 . S
H6343 C6337 0.959 . S
H6344 C6337 0.961 . S
H6345 C6337 0.960 . S
H6346 C6338 0.930 . S
H6347 C6339 0.929 . S
H6348 C6356 0.929 . S
H6349 C6358 0.930 . S
H6350 C6360 0.930 . S
H6351 C6363 0.929 . S
H6352 C6366 0.930 . S
H6353 C6368 0.960 . S
H6354 C6368 0.960 . S
H6355 C6368 0.960 . S
C6356 H6348 0.929 . S
C6356 C6357 1.377 . S
C6356 C6358 1.384 . S
C6357 C6356 1.377 . S
C6357 C6363 1.390 . S
C6358 H6349 0.930 . S
C6358 C6356 1.384 . S
C6358 C6359 1.372 . S
C6359 C6358 1.372 . S
C6359 C6360 1.400 . S
C6359 C6364 1.490 . S
C6360 H6350 0.930 . S
C6360 C6359 1.400 . S
C6360 C6363 1.386 . S
H6361 C6377 0.930 . S
H6362 C6378 0.931 . S
C6363 H6351 0.929 . S
C6363 C6357 1.390 . S
C6363 C6360 1.386 . S
C6364 C6359 1.490 . S
C6364 C6366 1.395 . S
C6364 C6367 1.403 . S
H6365 C6371 0.930 . S
C6366 H6352 0.930 . S
C6366 C6364 1.395 . S
C6366 C6369 1.403 . S
C6367 C6364 1.403 . S
C6367 C6368 1.524 . S
C6367 C6371 1.400 . S
C6368 H6353 0.960 . S
C6368 H6354 0.960 . S
C6368 H6355 0.960 . S
C6368 C6367 1.524 . S
C6369 C6366 1.403 . S
C6369 C6370 1.392 . S
C6369 C6373 1.495 . S
C6370 C6369 1.392 . S
C6370 C6371 1.385 . S
C6370 C6372 1.478 . S
C6371 H6365 0.930 . S
C6371 C6367 1.400 . S
C6371 C6370 1.385 . S
C6372 C6370 1.478 . S
C6372 C6374 1.381 . S
C6372 C6378 1.383 . S
C6373 C6369 1.495 . S
C6373 H6379 0.959 . S
C6373 H6380 0.961 . S
C6373 H6381 0.960 . S
C6374 C6372 1.381 . S
C6374 C6375 1.394 . S
C6374 H6382 0.930 . S
C6375 C6374 1.394 . S
C6375 C6376 1.383 . S
C6375 H6383 0.929 . S
C6376 C6375 1.383 . S
C6376 C6377 1.377 . S
C6377 H6361 0.930 . S
C6377 C6376 1.377 . S
C6377 C6378 1.379 . S
C6378 H6362 0.931 . S
C6378 C6372 1.383 . S
C6378 C6377 1.379 . S
H6379 C6373 0.959 . S
H6380 C6373 0.961 . S
H6381 C6373 0.960 . S
H6382 C6374 0.930 . S
H6383 C6375 0.929 . S
H6384 C6392 0.929 . S
H6385 C6394 0.930 . S
H6386 C6396 0.930 . S
H6387 C6399 0.929 . S
H6388 C6402 0.930 . S
H6389 C6404 0.960 . S
H6390 C6404 0.960 . S
H6391 C6404 0.960 . S
C6392 H6384 0.929 . S
C6392 C6393 1.377 . S
C6392 C6394 1.384 . S
C6393 C6392 1.377 . S
C6393 C6399 1.390 . S
C6394 H6385 0.930 . S
C6394 C6392 1.384 . S
C6394 C6395 1.372 . S
C6395 C6394 1.372 . S
C6395 C6396 1.400 . S
C6395 C6400 1.490 . S
C6396 H6386 0.930 . S
C6396 C6395 1.400 . S
C6396 C6399 1.386 . S
H6397 C6413 0.930 . S
H6398 C6414 0.931 . S
C6399 H6387 0.929 . S
C6399 C6393 1.390 . S
C6399 C6396 1.386 . S
C6400 C6395 1.490 . S
C6400 C6402 1.395 . S
C6400 C6403 1.403 . S
H6401 C6407 0.930 . S
C6402 H6388 0.930 . S
C6402 C6400 1.395 . S
C6402 C6405 1.403 . S
C6403 C6400 1.403 . S
C6403 C6404 1.524 . S
C6403 C6407 1.400 . S
C6404 H6389 0.960 . S
C6404 H6390 0.960 . S
C6404 H6391 0.960 . S
C6404 C6403 1.524 . S
C6405 C6402 1.403 . S
C6405 C6406 1.392 . S
C6405 C6409 1.495 . S
C6406 C6405 1.392 . S
C6406 C6407 1.385 . S
C6406 C6408 1.478 . S
C6407 H6401 0.930 . S
C6407 C6403 1.400 . S
C6407 C6406 1.385 . S
C6408 C6406 1.478 . S
C6408 C6410 1.381 . S
C6408 C6414 1.383 . S
C6409 C6405 1.495 . S
C6409 H6415 0.959 . S
C6409 H6416 0.961 . S
C6409 H6417 0.960 . S
C6410 C6408 1.381 . S
C6410 C6411 1.394 . S
C6410 H6418 0.930 . S
C6411 C6410 1.394 . S
C6411 C6412 1.383 . S
C6411 H6419 0.929 . S
C6412 C6411 1.383 . S
C6412 C6413 1.377 . S
C6413 H6397 0.930 . S
C6413 C6412 1.377 . S
C6413 C6414 1.379 . S
C6414 H6398 0.931 . S
C6414 C6408 1.383 . S
C6414 C6413 1.379 . S
H6415 C6409 0.959 . S
H6416 C6409 0.961 . S
H6417 C6409 0.960 . S
H6418 C6410 0.930 . S
H6419 C6411 0.929 . S
H6420 C6428 0.929 . S
H6421 C6430 0.930 . S
H6422 C6432 0.930 . S
H6423 C6435 0.929 . S
H6424 C6438 0.930 . S
H6425 C6440 0.960 . S
H6426 C6440 0.960 . S
H6427 C6440 0.960 . S
C6428 H6420 0.929 . S
C6428 C6429 1.377 . S
C6428 C6430 1.384 . S
C6429 C6428 1.377 . S
C6429 C6435 1.390 . S
C6430 H6421 0.930 . S
C6430 C6428 1.384 . S
C6430 C6431 1.372 . S
C6431 C6430 1.372 . S
C6431 C6432 1.400 . S
C6431 C6436 1.490 . S
C6432 H6422 0.930 . S
C6432 C6431 1.400 . S
C6432 C6435 1.386 . S
H6433 C6449 0.930 . S
H6434 C6450 0.931 . S
C6435 H6423 0.929 . S
C6435 C6429 1.390 . S
C6435 C6432 1.386 . S
C6436 C6431 1.490 . S
C6436 C6438 1.395 . S
C6436 C6439 1.403 . S
H6437 C6443 0.930 . S
C6438 H6424 0.930 . S
C6438 C6436 1.395 . S
C6438 C6441 1.403 . S
C6439 C6436 1.403 . S
C6439 C6440 1.524 . S
C6439 C6443 1.400 . S
C6440 H6425 0.960 . S
C6440 H6426 0.960 . S
C6440 H6427 0.960 . S
C6440 C6439 1.524 . S
C6441 C6438 1.403 . S
C6441 C6442 1.392 . S
C6441 C6445 1.495 . S
C6442 C6441 1.392 . S
C6442 C6443 1.385 . S
C6442 C6444 1.478 . S
C6443 H6437 0.930 . S
C6443 C6439 1.400 . S
C6443 C6442 1.385 . S
C6444 C6442 1.478 . S
C6444 C6446 1.381 . S
C6444 C6450 1.383 . S
C6445 C6441 1.495 . S
C6445 H6451 0.959 . S
C6445 H6452 0.961 . S
C6445 H6453 0.960 . S
C6446 C6444 1.381 . S
C6446 C6447 1.394 . S
C6446 H6454 0.930 . S
C6447 C6446 1.394 . S
C6447 C6448 1.383 . S
C6447 H6455 0.929 . S
C6448 C6447 1.383 . S
C6448 C6449 1.377 . S
C6449 H6433 0.930 . S
C6449 C6448 1.377 . S
C6449 C6450 1.379 . S
C6450 H6434 0.931 . S
C6450 C6444 1.383 . S
C6450 C6449 1.379 . S
H6451 C6445 0.959 . S
H6452 C6445 0.961 . S
H6453 C6445 0.960 . S
H6454 C6446 0.930 . S
H6455 C6447 0.929 . S
H6456 C6464 0.929 . S
H6457 C6466 0.930 . S
H6458 C6468 0.930 . S
H6459 C6471 0.929 . S
H6460 C6474 0.930 . S
H6461 C6476 0.960 . S
H6462 C6476 0.960 . S
H6463 C6476 0.960 . S
C6464 H6456 0.929 . S
C6464 C6465 1.377 . S
C6464 C6466 1.384 . S
C6465 C6464 1.377 . S
C6465 C6471 1.390 . S
C6466 H6457 0.930 . S
C6466 C6464 1.384 . S
C6466 C6467 1.372 . S
C6467 C6466 1.372 . S
C6467 C6468 1.400 . S
C6467 C6472 1.490 . S
C6468 H6458 0.930 . S
C6468 C6467 1.400 . S
C6468 C6471 1.386 . S
H6469 C6485 0.930 . S
H6470 C6486 0.931 . S
C6471 H6459 0.929 . S
C6471 C6465 1.390 . S
C6471 C6468 1.386 . S
C6472 C6467 1.490 . S
C6472 C6474 1.395 . S
C6472 C6475 1.403 . S
H6473 C6479 0.930 . S
C6474 H6460 0.930 . S
C6474 C6472 1.395 . S
C6474 C6477 1.403 . S
C6475 C6472 1.403 . S
C6475 C6476 1.524 . S
C6475 C6479 1.400 . S
C6476 H6461 0.960 . S
C6476 H6462 0.960 . S
C6476 H6463 0.960 . S
C6476 C6475 1.524 . S
C6477 C6474 1.403 . S
C6477 C6478 1.392 . S
C6477 C6481 1.495 . S
C6478 C6477 1.392 . S
C6478 C6479 1.385 . S
C6478 C6480 1.478 . S
C6479 H6473 0.930 . S
C6479 C6475 1.400 . S
C6479 C6478 1.385 . S
C6480 C6478 1.478 . S
C6480 C6482 1.381 . S
C6480 C6486 1.383 . S
C6481 C6477 1.495 . S
C6481 H6487 0.959 . S
C6481 H6488 0.961 . S
C6481 H6489 0.960 . S
C6482 C6480 1.381 . S
C6482 C6483 1.394 . S
C6482 H6490 0.930 . S
C6483 C6482 1.394 . S
C6483 C6484 1.383 . S
C6483 H6491 0.929 . S
C6484 C6483 1.383 . S
C6484 C6485 1.377 . S
C6485 H6469 0.930 . S
C6485 C6484 1.377 . S
C6485 C6486 1.379 . S
C6486 H6470 0.931 . S
C6486 C6480 1.383 . S
C6486 C6485 1.379 . S
H6487 C6481 0.959 . S
H6488 C6481 0.961 . S
H6489 C6481 0.960 . S
H6490 C6482 0.930 . S
H6491 C6483 0.929 . S
H6492 C6500 0.929 . S
H6493 C6502 0.930 . S
H6494 C6504 0.930 . S
H6495 C6507 0.929 . S
H6496 C6510 0.930 . S
H6497 C6512 0.960 . S
H6498 C6512 0.960 . S
H6499 C6512 0.960 . S
C6500 H6492 0.929 . S
C6500 C6501 1.377 . S
C6500 C6502 1.384 . S
C6501 C6500 1.377 . S
C6501 C6507 1.390 . S
C6502 H6493 0.930 . S
C6502 C6500 1.384 . S
C6502 C6503 1.372 . S
C6503 C6502 1.372 . S
C6503 C6504 1.400 . S
C6503 C6508 1.490 . S
C6504 H6494 0.930 . S
C6504 C6503 1.400 . S
C6504 C6507 1.386 . S
H6505 C6521 0.930 . S
H6506 C6522 0.931 . S
C6507 H6495 0.929 . S
C6507 C6501 1.390 . S
C6507 C6504 1.386 . S
C6508 C6503 1.490 . S
C6508 C6510 1.395 . S
C6508 C6511 1.403 . S
H6509 C6515 0.930 . S
C6510 H6496 0.930 . S
C6510 C6508 1.395 . S
C6510 C6513 1.403 . S
C6511 C6508 1.403 . S
C6511 C6512 1.524 . S
C6511 C6515 1.400 . S
C6512 H6497 0.960 . S
C6512 H6498 0.960 . S
C6512 H6499 0.960 . S
C6512 C6511 1.524 . S
C6513 C6510 1.403 . S
C6513 C6514 1.392 . S
C6513 C6517 1.495 . S
C6514 C6513 1.392 . S
C6514 C6515 1.385 . S
C6514 C6516 1.478 . S
C6515 H6509 0.930 . S
C6515 C6511 1.400 . S
C6515 C6514 1.385 . S
C6516 C6514 1.478 . S
C6516 C6518 1.381 . S
C6516 C6522 1.383 . S
C6517 C6513 1.495 . S
C6517 H6523 0.959 . S
C6517 H6524 0.961 . S
C6517 H6525 0.960 . S
C6518 C6516 1.381 . S
C6518 C6519 1.394 . S
C6518 H6526 0.930 . S
C6519 C6518 1.394 . S
C6519 C6520 1.383 . S
C6519 H6527 0.929 . S
C6520 C6519 1.383 . S
C6520 C6521 1.377 . S
C6521 H6505 0.930 . S
C6521 C6520 1.377 . S
C6521 C6522 1.379 . S
C6522 H6506 0.931 . S
C6522 C6516 1.383 . S
C6522 C6521 1.379 . S
H6523 C6517 0.959 . S
H6524 C6517 0.961 . S
H6525 C6517 0.960 . S
H6526 C6518 0.930 . S
H6527 C6519 0.929 . S
H6528 C6536 0.929 . S
H6529 C6538 0.930 . S
H6530 C6540 0.930 . S
H6531 C6543 0.929 . S
H6532 C6546 0.930 . S
H6533 C6548 0.960 . S
H6534 C6548 0.960 . S
H6535 C6548 0.960 . S
C6536 H6528 0.929 . S
C6536 C6537 1.377 . S
C6536 C6538 1.384 . S
C6537 C6536 1.377 . S
C6537 C6543 1.390 . S
C6538 H6529 0.930 . S
C6538 C6536 1.384 . S
C6538 C6539 1.372 . S
C6539 C6538 1.372 . S
C6539 C6540 1.400 . S
C6539 C6544 1.490 . S
C6540 H6530 0.930 . S
C6540 C6539 1.400 . S
C6540 C6543 1.386 . S
H6541 C6557 0.930 . S
H6542 C6558 0.931 . S
C6543 H6531 0.929 . S
C6543 C6537 1.390 . S
C6543 C6540 1.386 . S
C6544 C6539 1.490 . S
C6544 C6546 1.395 . S
C6544 C6547 1.403 . S
H6545 C6551 0.930 . S
C6546 H6532 0.930 . S
C6546 C6544 1.395 . S
C6546 C6549 1.403 . S
C6547 C6544 1.403 . S
C6547 C6548 1.524 . S
C6547 C6551 1.400 . S
C6548 H6533 0.960 . S
C6548 H6534 0.960 . S
C6548 H6535 0.960 . S
C6548 C6547 1.524 . S
C6549 C6546 1.403 . S
C6549 C6550 1.392 . S
C6549 C6553 1.495 . S
C6550 C6549 1.392 . S
C6550 C6551 1.385 . S
C6550 C6552 1.478 . S
C6551 H6545 0.930 . S
C6551 C6547 1.400 . S
C6551 C6550 1.385 . S
C6552 C6550 1.478 . S
C6552 C6554 1.381 . S
C6552 C6558 1.383 . S
C6553 C6549 1.495 . S
C6553 H6559 0.959 . S
C6553 H6560 0.961 . S
C6553 H6561 0.960 . S
C6554 C6552 1.381 . S
C6554 C6555 1.394 . S
C6554 H6562 0.930 . S
C6555 C6554 1.394 . S
C6555 C6556 1.383 . S
C6555 H6563 0.929 . S
C6556 C6555 1.383 . S
C6556 C6557 1.377 . S
C6557 H6541 0.930 . S
C6557 C6556 1.377 . S
C6557 C6558 1.379 . S
C6558 H6542 0.931 . S
C6558 C6552 1.383 . S
C6558 C6557 1.379 . S
H6559 C6553 0.959 . S
H6560 C6553 0.961 . S
H6561 C6553 0.960 . S
H6562 C6554 0.930 . S
H6563 C6555 0.929 . S
H6564 C6572 0.929 . S
H6565 C6574 0.930 . S
H6566 C6576 0.930 . S
H6567 C6579 0.929 . S
H6568 C6582 0.930 . S
H6569 C6584 0.960 . S
H6570 C6584 0.960 . S
H6571 C6584 0.960 . S
C6572 H6564 0.929 . S
C6572 C6573 1.377 . S
C6572 C6574 1.384 . S
C6573 C6572 1.377 . S
C6573 C6579 1.390 . S
C6574 H6565 0.930 . S
C6574 C6572 1.384 . S
C6574 C6575 1.372 . S
C6575 C6574 1.372 . S
C6575 C6576 1.400 . S
C6575 C6580 1.490 . S
C6576 H6566 0.930 . S
C6576 C6575 1.400 . S
C6576 C6579 1.386 . S
H6577 C6593 0.930 . S
H6578 C6594 0.931 . S
C6579 H6567 0.929 . S
C6579 C6573 1.390 . S
C6579 C6576 1.386 . S
C6580 C6575 1.490 . S
C6580 C6582 1.395 . S
C6580 C6583 1.403 . S
H6581 C6587 0.930 . S
C6582 H6568 0.930 . S
C6582 C6580 1.395 . S
C6582 C6585 1.403 . S
C6583 C6580 1.403 . S
C6583 C6584 1.524 . S
C6583 C6587 1.400 . S
C6584 H6569 0.960 . S
C6584 H6570 0.960 . S
C6584 H6571 0.960 . S
C6584 C6583 1.524 . S
C6585 C6582 1.403 . S
C6585 C6586 1.392 . S
C6585 C6589 1.495 . S
C6586 C6585 1.392 . S
C6586 C6587 1.385 . S
C6586 C6588 1.478 . S
C6587 H6581 0.930 . S
C6587 C6583 1.400 . S
C6587 C6586 1.385 . S
C6588 C6586 1.478 . S
C6588 C6590 1.381 . S
C6588 C6594 1.383 . S
C6589 C6585 1.495 . S
C6589 H6595 0.959 . S
C6589 H6596 0.961 . S
C6589 H6597 0.960 . S
C6590 C6588 1.381 . S
C6590 C6591 1.394 . S
C6590 H6598 0.930 . S
C6591 C6590 1.394 . S
C6591 C6592 1.383 . S
C6591 H6599 0.929 . S
C6592 C6591 1.383 . S
C6592 C6593 1.377 . S
C6593 H6577 0.930 . S
C6593 C6592 1.377 . S
C6593 C6594 1.379 . S
C6594 H6578 0.931 . S
C6594 C6588 1.383 . S
C6594 C6593 1.379 . S
H6595 C6589 0.959 . S
H6596 C6589 0.961 . S
H6597 C6589 0.960 . S
H6598 C6590 0.930 . S
H6599 C6591 0.929 . S
H6600 C6608 0.929 . S
H6601 C6610 0.930 . S
H6602 C6612 0.930 . S
H6603 C6615 0.929 . S
H6604 C6618 0.930 . S
H6605 C6620 0.960 . S
H6606 C6620 0.960 . S
H6607 C6620 0.960 . S
C6608 H6600 0.929 . S
C6608 C6609 1.377 . S
C6608 C6610 1.384 . S
C6609 C6608 1.377 . S
C6609 C6615 1.390 . S
C6610 H6601 0.930 . S
C6610 C6608 1.384 . S
C6610 C6611 1.372 . S
C6611 C6610 1.372 . S
C6611 C6612 1.400 . S
C6611 C6616 1.490 . S
C6612 H6602 0.930 . S
C6612 C6611 1.400 . S
C6612 C6615 1.386 . S
H6613 C6629 0.930 . S
H6614 C6630 0.931 . S
C6615 H6603 0.929 . S
C6615 C6609 1.390 . S
C6615 C6612 1.386 . S
C6616 C6611 1.490 . S
C6616 C6618 1.395 . S
C6616 C6619 1.403 . S
H6617 C6623 0.930 . S
C6618 H6604 0.930 . S
C6618 C6616 1.395 . S
C6618 C6621 1.403 . S
C6619 C6616 1.403 . S
C6619 C6620 1.524 . S
C6619 C6623 1.400 . S
C6620 H6605 0.960 . S
C6620 H6606 0.960 . S
C6620 H6607 0.960 . S
C6620 C6619 1.524 . S
C6621 C6618 1.403 . S
C6621 C6622 1.392 . S
C6621 C6625 1.495 . S
C6622 C6621 1.392 . S
C6622 C6623 1.385 . S
C6622 C6624 1.478 . S
C6623 H6617 0.930 . S
C6623 C6619 1.400 . S
C6623 C6622 1.385 . S
C6624 C6622 1.478 . S
C6624 C6626 1.381 . S
C6624 C6630 1.383 . S
C6625 C6621 1.495 . S
C6625 H6631 0.959 . S
C6625 H6632 0.961 . S
C6625 H6633 0.960 . S
C6626 C6624 1.381 . S
C6626 C6627 1.394 . S
C6626 H6634 0.930 . S
C6627 C6626 1.394 . S
C6627 C6628 1.383 . S
C6627 H6635 0.929 . S
C6628 C6627 1.383 . S
C6628 C6629 1.377 . S
C6629 H6613 0.930 . S
C6629 C6628 1.377 . S
C6629 C6630 1.379 . S
C6630 H6614 0.931 . S
C6630 C6624 1.383 . S
C6630 C6629 1.379 . S
H6631 C6625 0.959 . S
H6632 C6625 0.961 . S
H6633 C6625 0.960 . S
H6634 C6626 0.930 . S
H6635 C6627 0.929 . S
H6636 C6644 0.929 . S
H6637 C6646 0.930 . S
H6638 C6648 0.930 . S
H6639 C6651 0.929 . S
H6640 C6654 0.930 . S
H6641 C6656 0.960 . S
H6642 C6656 0.960 . S
H6643 C6656 0.960 . S
C6644 H6636 0.929 . S
C6644 C6645 1.377 . S
C6644 C6646 1.384 . S
C6645 C6644 1.377 . S
C6645 C6651 1.390 . S
C6646 H6637 0.930 . S
C6646 C6644 1.384 . S
C6646 C6647 1.372 . S
C6647 C6646 1.372 . S
C6647 C6648 1.400 . S
C6647 C6652 1.490 . S
C6648 H6638 0.930 . S
C6648 C6647 1.400 . S
C6648 C6651 1.386 . S
H6649 C6665 0.930 . S
H6650 C6666 0.931 . S
C6651 H6639 0.929 . S
C6651 C6645 1.390 . S
C6651 C6648 1.386 . S
C6652 C6647 1.490 . S
C6652 C6654 1.395 . S
C6652 C6655 1.403 . S
H6653 C6659 0.930 . S
C6654 H6640 0.930 . S
C6654 C6652 1.395 . S
C6654 C6657 1.403 . S
C6655 C6652 1.403 . S
C6655 C6656 1.524 . S
C6655 C6659 1.400 . S
C6656 H6641 0.960 . S
C6656 H6642 0.960 . S
C6656 H6643 0.960 . S
C6656 C6655 1.524 . S
C6657 C6654 1.403 . S
C6657 C6658 1.392 . S
C6657 C6661 1.495 . S
C6658 C6657 1.392 . S
C6658 C6659 1.385 . S
C6658 C6660 1.478 . S
C6659 H6653 0.930 . S
C6659 C6655 1.400 . S
C6659 C6658 1.385 . S
C6660 C6658 1.478 . S
C6660 C6662 1.381 . S
C6660 C6666 1.383 . S
C6661 C6657 1.495 . S
C6661 H6667 0.959 . S
C6661 H6668 0.961 . S
C6661 H6669 0.960 . S
C6662 C6660 1.381 . S
C6662 C6663 1.394 . S
C6662 H6670 0.930 . S
C6663 C6662 1.394 . S
C6663 C6664 1.383 . S
C6663 H6671 0.929 . S
C6664 C6663 1.383 . S
C6664 C6665 1.377 . S
C6665 H6649 0.930 . S
C6665 C6664 1.377 . S
C6665 C6666 1.379 . S
C6666 H6650 0.931 . S
C6666 C6660 1.383 . S
C6666 C6665 1.379 . S
H6667 C6661 0.959 . S
H6668 C6661 0.961 . S
H6669 C6661 0.960 . S
H6670 C6662 0.930 . S
H6671 C6663 0.929 . S
H6672 C6680 0.929 . S
H6673 C6682 0.930 . S
H6674 C6684 0.930 . S
H6675 C6687 0.929 . S
H6676 C6690 0.930 . S
H6677 C6692 0.960 . S
H6678 C6692 0.960 . S
H6679 C6692 0.960 . S
C6680 H6672 0.929 . S
C6680 C6681 1.377 . S
C6680 C6682 1.384 . S
C6681 C6680 1.377 . S
C6681 C6687 1.390 . S
C6682 H6673 0.930 . S
C6682 C6680 1.384 . S
C6682 C6683 1.372 . S
C6683 C6682 1.372 . S
C6683 C6684 1.400 . S
C6683 C6688 1.490 . S
C6684 H6674 0.930 . S
C6684 C6683 1.400 . S
C6684 C6687 1.386 . S
H6685 C6701 0.930 . S
H6686 C6702 0.931 . S
C6687 H6675 0.929 . S
C6687 C6681 1.390 . S
C6687 C6684 1.386 . S
C6688 C6683 1.490 . S
C6688 C6690 1.395 . S
C6688 C6691 1.403 . S
H6689 C6695 0.930 . S
C6690 H6676 0.930 . S
C6690 C6688 1.395 . S
C6690 C6693 1.403 . S
C6691 C6688 1.403 . S
C6691 C6692 1.524 . S
C6691 C6695 1.400 . S
C6692 H6677 0.960 . S
C6692 H6678 0.960 . S
C6692 H6679 0.960 . S
C6692 C6691 1.524 . S
C6693 C6690 1.403 . S
C6693 C6694 1.392 . S
C6693 C6697 1.495 . S
C6694 C6693 1.392 . S
C6694 C6695 1.385 . S
C6694 C6696 1.478 . S
C6695 H6689 0.930 . S
C6695 C6691 1.400 . S
C6695 C6694 1.385 . S
C6696 C6694 1.478 . S
C6696 C6698 1.381 . S
C6696 C6702 1.383 . S
C6697 C6693 1.495 . S
C6697 H6703 0.959 . S
C6697 H6704 0.961 . S
C6697 H6705 0.960 . S
C6698 C6696 1.381 . S
C6698 C6699 1.394 . S
C6698 H6706 0.930 . S
C6699 C6698 1.394 . S
C6699 C6700 1.383 . S
C6699 H6707 0.929 . S
C6700 C6699 1.383 . S
C6700 C6701 1.377 . S
C6701 H6685 0.930 . S
C6701 C6700 1.377 . S
C6701 C6702 1.379 . S
C6702 H6686 0.931 . S
C6702 C6696 1.383 . S
C6702 C6701 1.379 . S
H6703 C6697 0.959 . S
H6704 C6697 0.961 . S
H6705 C6697 0.960 . S
H6706 C6698 0.930 . S
H6707 C6699 0.929 . S
H6708 C6716 0.929 . S
H6709 C6718 0.930 . S
H6710 C6720 0.930 . S
H6711 C6723 0.929 . S
H6712 C6726 0.930 . S
H6713 C6728 0.960 . S
H6714 C6728 0.960 . S
H6715 C6728 0.960 . S
C6716 H6708 0.929 . S
C6716 C6717 1.377 . S
C6716 C6718 1.384 . S
C6717 C6716 1.377 . S
C6717 C6723 1.390 . S
C6718 H6709 0.930 . S
C6718 C6716 1.384 . S
C6718 C6719 1.372 . S
C6719 C6718 1.372 . S
C6719 C6720 1.400 . S
C6719 C6724 1.490 . S
C6720 H6710 0.930 . S
C6720 C6719 1.400 . S
C6720 C6723 1.386 . S
H6721 C6737 0.930 . S
H6722 C6738 0.931 . S
C6723 H6711 0.929 . S
C6723 C6717 1.390 . S
C6723 C6720 1.386 . S
C6724 C6719 1.490 . S
C6724 C6726 1.395 . S
C6724 C6727 1.403 . S
H6725 C6731 0.930 . S
C6726 H6712 0.930 . S
C6726 C6724 1.395 . S
C6726 C6729 1.403 . S
C6727 C6724 1.403 . S
C6727 C6728 1.524 . S
C6727 C6731 1.400 . S
C6728 H6713 0.960 . S
C6728 H6714 0.960 . S
C6728 H6715 0.960 . S
C6728 C6727 1.524 . S
C6729 C6726 1.403 . S
C6729 C6730 1.392 . S
C6729 C6733 1.495 . S
C6730 C6729 1.392 . S
C6730 C6731 1.385 . S
C6730 C6732 1.478 . S
C6731 H6725 0.930 . S
C6731 C6727 1.400 . S
C6731 C6730 1.385 . S
C6732 C6730 1.478 . S
C6732 C6734 1.381 . S
C6732 C6738 1.383 . S
C6733 C6729 1.495 . S
C6733 H6739 0.959 . S
C6733 H6740 0.961 . S
C6733 H6741 0.960 . S
C6734 C6732 1.381 . S
C6734 C6735 1.394 . S
C6734 H6742 0.930 . S
C6735 C6734 1.394 . S
C6735 C6736 1.383 . S
C6735 H6743 0.929 . S
C6736 C6735 1.383 . S
C6736 C6737 1.377 . S
C6737 H6721 0.930 . S
C6737 C6736 1.377 . S
C6737 C6738 1.379 . S
C6738 H6722 0.931 . S
C6738 C6732 1.383 . S
C6738 C6737 1.379 . S
H6739 C6733 0.959 . S
H6740 C6733 0.961 . S
H6741 C6733 0.960 . S
H6742 C6734 0.930 . S
H6743 C6735 0.929 . S
H6744 C6752 0.929 . S
H6745 C6754 0.930 . S
H6746 C6756 0.930 . S
H6747 C6759 0.929 . S
H6748 C6762 0.930 . S
H6749 C6764 0.960 . S
H6750 C6764 0.960 . S
H6751 C6764 0.960 . S
C6752 H6744 0.929 . S
C6752 C6753 1.377 . S
C6752 C6754 1.384 . S
C6753 C6752 1.377 . S
C6753 C6759 1.390 . S
C6754 H6745 0.930 . S
C6754 C6752 1.384 . S
C6754 C6755 1.372 . S
C6755 C6754 1.372 . S
C6755 C6756 1.400 . S
C6755 C6760 1.490 . S
C6756 H6746 0.930 . S
C6756 C6755 1.400 . S
C6756 C6759 1.386 . S
H6757 C6773 0.930 . S
H6758 C6774 0.931 . S
C6759 H6747 0.929 . S
C6759 C6753 1.390 . S
C6759 C6756 1.386 . S
C6760 C6755 1.490 . S
C6760 C6762 1.395 . S
C6760 C6763 1.403 . S
H6761 C6767 0.930 . S
C6762 H6748 0.930 . S
C6762 C6760 1.395 . S
C6762 C6765 1.403 . S
C6763 C6760 1.403 . S
C6763 C6764 1.524 . S
C6763 C6767 1.400 . S
C6764 H6749 0.960 . S
C6764 H6750 0.960 . S
C6764 H6751 0.960 . S
C6764 C6763 1.524 . S
C6765 C6762 1.403 . S
C6765 C6766 1.392 . S
C6765 C6769 1.495 . S
C6766 C6765 1.392 . S
C6766 C6767 1.385 . S
C6766 C6768 1.478 . S
C6767 H6761 0.930 . S
C6767 C6763 1.400 . S
C6767 C6766 1.385 . S
C6768 C6766 1.478 . S
C6768 C6770 1.381 . S
C6768 C6774 1.383 . S
C6769 C6765 1.495 . S
C6769 H6775 0.959 . S
C6769 H6776 0.961 . S
C6769 H6777 0.960 . S
C6770 C6768 1.381 . S
C6770 C6771 1.394 . S
C6770 H6778 0.930 . S
C6771 C6770 1.394 . S
C6771 C6772 1.383 . S
C6771 H6779 0.929 . S
C6772 C6771 1.383 . S
C6772 C6773 1.377 . S
C6773 H6757 0.930 . S
C6773 C6772 1.377 . S
C6773 C6774 1.379 . S
C6774 H6758 0.931 . S
C6774 C6768 1.383 . S
C6774 C6773 1.379 . S
H6775 C6769 0.959 . S
H6776 C6769 0.961 . S
H6777 C6769 0.960 . S
H6778 C6770 0.930 . S
H6779 C6771 0.929 . S
H6780 C6788 0.929 . S
H6781 C6790 0.930 . S
H6782 C6792 0.930 . S
H6783 C6795 0.929 . S
H6784 C6798 0.930 . S
H6785 C6800 0.960 . S
H6786 C6800 0.960 . S
H6787 C6800 0.960 . S
C6788 H6780 0.929 . S
C6788 C6789 1.377 . S
C6788 C6790 1.384 . S
C6789 C6788 1.377 . S
C6789 C6795 1.390 . S
C6790 H6781 0.930 . S
C6790 C6788 1.384 . S
C6790 C6791 1.372 . S
C6791 C6790 1.372 . S
C6791 C6792 1.400 . S
C6791 C6796 1.490 . S
C6792 H6782 0.930 . S
C6792 C6791 1.400 . S
C6792 C6795 1.386 . S
H6793 C6809 0.930 . S
H6794 C6810 0.931 . S
C6795 H6783 0.929 . S
C6795 C6789 1.390 . S
C6795 C6792 1.386 . S
C6796 C6791 1.490 . S
C6796 C6798 1.395 . S
C6796 C6799 1.403 . S
H6797 C6803 0.930 . S
C6798 H6784 0.930 . S
C6798 C6796 1.395 . S
C6798 C6801 1.403 . S
C6799 C6796 1.403 . S
C6799 C6800 1.524 . S
C6799 C6803 1.400 . S
C6800 H6785 0.960 . S
C6800 H6786 0.960 . S
C6800 H6787 0.960 . S
C6800 C6799 1.524 . S
C6801 C6798 1.403 . S
C6801 C6802 1.392 . S
C6801 C6805 1.495 . S
C6802 C6801 1.392 . S
C6802 C6803 1.385 . S
C6802 C6804 1.478 . S
C6803 H6797 0.930 . S
C6803 C6799 1.400 . S
C6803 C6802 1.385 . S
C6804 C6802 1.478 . S
C6804 C6806 1.381 . S
C6804 C6810 1.383 . S
C6805 C6801 1.495 . S
C6805 H6811 0.959 . S
C6805 H6812 0.961 . S
C6805 H6813 0.960 . S
C6806 C6804 1.381 . S
C6806 C6807 1.394 . S
C6806 H6814 0.930 . S
C6807 C6806 1.394 . S
C6807 C6808 1.383 . S
C6807 H6815 0.929 . S
C6808 C6807 1.383 . S
C6808 C6809 1.377 . S
C6809 H6793 0.930 . S
C6809 C6808 1.377 . S
C6809 C6810 1.379 . S
C6810 H6794 0.931 . S
C6810 C6804 1.383 . S
C6810 C6809 1.379 . S
H6811 C6805 0.959 . S
H6812 C6805 0.961 . S
H6813 C6805 0.960 . S
H6814 C6806 0.930 . S
H6815 C6807 0.929 . S
H6816 C6824 0.929 . S
H6817 C6826 0.930 . S
H6818 C6828 0.930 . S
H6819 C6831 0.929 . S
H6820 C6834 0.930 . S
H6821 C6836 0.960 . S
H6822 C6836 0.960 . S
H6823 C6836 0.960 . S
C6824 H6816 0.929 . S
C6824 C6825 1.377 . S
C6824 C6826 1.384 . S
C6825 C6824 1.377 . S
C6825 C6831 1.390 . S
C6826 H6817 0.930 . S
C6826 C6824 1.384 . S
C6826 C6827 1.372 . S
C6827 C6826 1.372 . S
C6827 C6828 1.400 . S
C6827 C6832 1.490 . S
C6828 H6818 0.930 . S
C6828 C6827 1.400 . S
C6828 C6831 1.386 . S
H6829 C6845 0.930 . S
H6830 C6846 0.931 . S
C6831 H6819 0.929 . S
C6831 C6825 1.390 . S
C6831 C6828 1.386 . S
C6832 C6827 1.490 . S
C6832 C6834 1.395 . S
C6832 C6835 1.403 . S
H6833 C6839 0.930 . S
C6834 H6820 0.930 . S
C6834 C6832 1.395 . S
C6834 C6837 1.403 . S
C6835 C6832 1.403 . S
C6835 C6836 1.524 . S
C6835 C6839 1.400 . S
C6836 H6821 0.960 . S
C6836 H6822 0.960 . S
C6836 H6823 0.960 . S
C6836 C6835 1.524 . S
C6837 C6834 1.403 . S
C6837 C6838 1.392 . S
C6837 C6841 1.495 . S
C6838 C6837 1.392 . S
C6838 C6839 1.385 . S
C6838 C6840 1.478 . S
C6839 H6833 0.930 . S
C6839 C6835 1.400 . S
C6839 C6838 1.385 . S
C6840 C6838 1.478 . S
C6840 C6842 1.381 . S
C6840 C6846 1.383 . S
C6841 C6837 1.495 . S
C6841 H6847 0.959 . S
C6841 H6848 0.961 . S
C6841 H6849 0.960 . S
C6842 C6840 1.381 . S
C6842 C6843 1.394 . S
C6842 H6850 0.930 . S
C6843 C6842 1.394 . S
C6843 C6844 1.383 . S
C6843 H6851 0.929 . S
C6844 C6843 1.383 . S
C6844 C6845 1.377 . S
C6845 H6829 0.930 . S
C6845 C6844 1.377 . S
C6845 C6846 1.379 . S
C6846 H6830 0.931 . S
C6846 C6840 1.383 . S
C6846 C6845 1.379 . S
H6847 C6841 0.959 . S
H6848 C6841 0.961 . S
H6849 C6841 0.960 . S
H6850 C6842 0.930 . S
H6851 C6843 0.929 . S
H6852 C6860 0.929 . S
H6853 C6862 0.930 . S
H6854 C6864 0.930 . S
H6855 C6867 0.929 . S
H6856 C6870 0.930 . S
H6857 C6872 0.960 . S
H6858 C6872 0.960 . S
H6859 C6872 0.960 . S
C6860 H6852 0.929 . S
C6860 C6861 1.377 . S
C6860 C6862 1.384 . S
C6861 C6860 1.377 . S
C6861 C6867 1.390 . S
C6862 H6853 0.930 . S
C6862 C6860 1.384 . S
C6862 C6863 1.372 . S
C6863 C6862 1.372 . S
C6863 C6864 1.400 . S
C6863 C6868 1.490 . S
C6864 H6854 0.930 . S
C6864 C6863 1.400 . S
C6864 C6867 1.386 . S
H6865 C6881 0.930 . S
H6866 C6882 0.931 . S
C6867 H6855 0.929 . S
C6867 C6861 1.390 . S
C6867 C6864 1.386 . S
C6868 C6863 1.490 . S
C6868 C6870 1.395 . S
C6868 C6871 1.403 . S
H6869 C6875 0.930 . S
C6870 H6856 0.930 . S
C6870 C6868 1.395 . S
C6870 C6873 1.403 . S
C6871 C6868 1.403 . S
C6871 C6872 1.524 . S
C6871 C6875 1.400 . S
C6872 H6857 0.960 . S
C6872 H6858 0.960 . S
C6872 H6859 0.960 . S
C6872 C6871 1.524 . S
C6873 C6870 1.403 . S
C6873 C6874 1.392 . S
C6873 C6877 1.495 . S
C6874 C6873 1.392 . S
C6874 C6875 1.385 . S
C6874 C6876 1.478 . S
C6875 H6869 0.930 . S
C6875 C6871 1.400 . S
C6875 C6874 1.385 . S
C6876 C6874 1.478 . S
C6876 C6878 1.381 . S
C6876 C6882 1.383 . S
C6877 C6873 1.495 . S
C6877 H6883 0.959 . S
C6877 H6884 0.961 . S
C6877 H6885 0.960 . S
C6878 C6876 1.381 . S
C6878 C6879 1.394 . S
C6878 H6886 0.930 . S
C6879 C6878 1.394 . S
C6879 C6880 1.383 . S
C6879 H6887 0.929 . S
C6880 C6879 1.383 . S
C6880 C6881 1.377 . S
C6881 H6865 0.930 . S
C6881 C6880 1.377 . S
C6881 C6882 1.379 . S
C6882 H6866 0.931 . S
C6882 C6876 1.383 . S
C6882 C6881 1.379 . S
H6883 C6877 0.959 . S
H6884 C6877 0.961 . S
H6885 C6877 0.960 . S
H6886 C6878 0.930 . S
H6887 C6879 0.929 . S
H6888 C6896 0.929 . S
H6889 C6898 0.930 . S
H6890 C6900 0.930 . S
H6891 C6903 0.929 . S
H6892 C6906 0.930 . S
H6893 C6908 0.960 . S
H6894 C6908 0.960 . S
H6895 C6908 0.960 . S
C6896 H6888 0.929 . S
C6896 C6897 1.377 . S
C6896 C6898 1.384 . S
C6897 C6896 1.377 . S
C6897 C6903 1.390 . S
C6898 H6889 0.930 . S
C6898 C6896 1.384 . S
C6898 C6899 1.372 . S
C6899 C6898 1.372 . S
C6899 C6900 1.400 . S
C6899 C6904 1.490 . S
C6900 H6890 0.930 . S
C6900 C6899 1.400 . S
C6900 C6903 1.386 . S
H6901 C6917 0.930 . S
H6902 C6918 0.931 . S
C6903 H6891 0.929 . S
C6903 C6897 1.390 . S
C6903 C6900 1.386 . S
C6904 C6899 1.490 . S
C6904 C6906 1.395 . S
C6904 C6907 1.403 . S
H6905 C6911 0.930 . S
C6906 H6892 0.930 . S
C6906 C6904 1.395 . S
C6906 C6909 1.403 . S
C6907 C6904 1.403 . S
C6907 C6908 1.524 . S
C6907 C6911 1.400 . S
C6908 H6893 0.960 . S
C6908 H6894 0.960 . S
C6908 H6895 0.960 . S
C6908 C6907 1.524 . S
C6909 C6906 1.403 . S
C6909 C6910 1.392 . S
C6909 C6913 1.495 . S
C6910 C6909 1.392 . S
C6910 C6911 1.385 . S
C6910 C6912 1.478 . S
C6911 H6905 0.930 . S
C6911 C6907 1.400 . S
C6911 C6910 1.385 . S
C6912 C6910 1.478 . S
C6912 C6914 1.381 . S
C6912 C6918 1.383 . S
C6913 C6909 1.495 . S
C6913 H6919 0.959 . S
C6913 H6920 0.961 . S
C6913 H6921 0.960 . S
C6914 C6912 1.381 . S
C6914 C6915 1.394 . S
C6914 H6922 0.930 . S
C6915 C6914 1.394 . S
C6915 C6916 1.383 . S
C6915 H6923 0.929 . S
C6916 C6915 1.383 . S
C6916 C6917 1.377 . S
C6917 H6901 0.930 . S
C6917 C6916 1.377 . S
C6917 C6918 1.379 . S
C6918 H6902 0.931 . S
C6918 C6912 1.383 . S
C6918 C6917 1.379 . S
H6919 C6913 0.959 . S
H6920 C6913 0.961 . S
H6921 C6913 0.960 . S
H6922 C6914 0.930 . S
H6923 C6915 0.929 . S
H6924 C6932 0.929 . S
H6925 C6934 0.930 . S
H6926 C6936 0.930 . S
H6927 C6939 0.929 . S
H6928 C6942 0.930 . S
H6929 C6944 0.960 . S
H6930 C6944 0.960 . S
H6931 C6944 0.960 . S
C6932 H6924 0.929 . S
C6932 C6933 1.377 . S
C6932 C6934 1.384 . S
C6933 C6932 1.377 . S
C6933 C6939 1.390 . S
C6934 H6925 0.930 . S
C6934 C6932 1.384 . S
C6934 C6935 1.372 . S
C6935 C6934 1.372 . S
C6935 C6936 1.400 . S
C6935 C6940 1.490 . S
C6936 H6926 0.930 . S
C6936 C6935 1.400 . S
C6936 C6939 1.386 . S
H6937 C6953 0.930 . S
H6938 C6954 0.931 . S
C6939 H6927 0.929 . S
C6939 C6933 1.390 . S
C6939 C6936 1.386 . S
C6940 C6935 1.490 . S
C6940 C6942 1.395 . S
C6940 C6943 1.403 . S
H6941 C6947 0.930 . S
C6942 H6928 0.930 . S
C6942 C6940 1.395 . S
C6942 C6945 1.403 . S
C6943 C6940 1.403 . S
C6943 C6944 1.524 . S
C6943 C6947 1.400 . S
C6944 H6929 0.960 . S
C6944 H6930 0.960 . S
C6944 H6931 0.960 . S
C6944 C6943 1.524 . S
C6945 C6942 1.403 . S
C6945 C6946 1.392 . S
C6945 C6949 1.495 . S
C6946 C6945 1.392 . S
C6946 C6947 1.385 . S
C6946 C6948 1.478 . S
C6947 H6941 0.930 . S
C6947 C6943 1.400 . S
C6947 C6946 1.385 . S
C6948 C6946 1.478 . S
C6948 C6950 1.381 . S
C6948 C6954 1.383 . S
C6949 C6945 1.495 . S
C6949 H6955 0.959 . S
C6949 H6956 0.961 . S
C6949 H6957 0.960 . S
C6950 C6948 1.381 . S
C6950 C6951 1.394 . S
C6950 H6958 0.930 . S
C6951 C6950 1.394 . S
C6951 C6952 1.383 . S
C6951 H6959 0.929 . S
C6952 C6951 1.383 . S
C6952 C6953 1.377 . S
C6953 H6937 0.930 . S
C6953 C6952 1.377 . S
C6953 C6954 1.379 . S
C6954 H6938 0.931 . S
C6954 C6948 1.383 . S
C6954 C6953 1.379 . S
H6955 C6949 0.959 . S
H6956 C6949 0.961 . S
H6957 C6949 0.960 . S
H6958 C6950 0.930 . S
H6959 C6951 0.929 . S
H6960 C6968 0.929 . S
H6961 C6970 0.930 . S
H6962 C6972 0.930 . S
H6963 C6975 0.929 . S
H6964 C6978 0.930 . S
H6965 C6980 0.960 . S
H6966 C6980 0.960 . S
H6967 C6980 0.960 . S
C6968 H6960 0.929 . S
C6968 C6969 1.377 . S
C6968 C6970 1.384 . S
C6969 C6968 1.377 . S
C6969 C6975 1.390 . S
C6970 H6961 0.930 . S
C6970 C6968 1.384 . S
C6970 C6971 1.372 . S
C6971 C6970 1.372 . S
C6971 C6972 1.400 . S
C6971 C6976 1.490 . S
C6972 H6962 0.930 . S
C6972 C6971 1.400 . S
C6972 C6975 1.386 . S
H6973 C6989 0.930 . S
H6974 C6990 0.931 . S
C6975 H6963 0.929 . S
C6975 C6969 1.390 . S
C6975 C6972 1.386 . S
C6976 C6971 1.490 . S
C6976 C6978 1.395 . S
C6976 C6979 1.403 . S
H6977 C6983 0.930 . S
C6978 H6964 0.930 . S
C6978 C6976 1.395 . S
C6978 C6981 1.403 . S
C6979 C6976 1.403 . S
C6979 C6980 1.524 . S
C6979 C6983 1.400 . S
C6980 H6965 0.960 . S
C6980 H6966 0.960 . S
C6980 H6967 0.960 . S
C6980 C6979 1.524 . S
C6981 C6978 1.403 . S
C6981 C6982 1.392 . S
C6981 C6985 1.495 . S
C6982 C6981 1.392 . S
C6982 C6983 1.385 . S
C6982 C6984 1.478 . S
C6983 H6977 0.930 . S
C6983 C6979 1.400 . S
C6983 C6982 1.385 . S
C6984 C6982 1.478 . S
C6984 C6986 1.381 . S
C6984 C6990 1.383 . S
C6985 C6981 1.495 . S
C6985 H6991 0.959 . S
C6985 H6992 0.961 . S
C6985 H6993 0.960 . S
C6986 C6984 1.381 . S
C6986 C6987 1.394 . S
C6986 H6994 0.930 . S
C6987 C6986 1.394 . S
C6987 C6988 1.383 . S
C6987 H6995 0.929 . S
C6988 C6987 1.383 . S
C6988 C6989 1.377 . S
C6989 H6973 0.930 . S
C6989 C6988 1.377 . S
C6989 C6990 1.379 . S
C6990 H6974 0.931 . S
C6990 C6984 1.383 . S
C6990 C6989 1.379 . S
H6991 C6985 0.959 . S
H6992 C6985 0.961 . S
H6993 C6985 0.960 . S
H6994 C6986 0.930 . S
H6995 C6987 0.929 . S
H6996 C7004 0.929 . S
H6997 C7006 0.930 . S
H6998 C7008 0.930 . S
H6999 C7011 0.929 . S
H7000 C7014 0.930 . S
H7001 C7016 0.960 . S
H7002 C7016 0.960 . S
H7003 C7016 0.960 . S
C7004 H6996 0.929 . S
C7004 C7005 1.377 . S
C7004 C7006 1.384 . S
C7005 C7004 1.377 . S
C7005 C7011 1.390 . S
C7006 H6997 0.930 . S
C7006 C7004 1.384 . S
C7006 C7007 1.372 . S
C7007 C7006 1.372 . S
C7007 C7008 1.400 . S
C7007 C7012 1.490 . S
C7008 H6998 0.930 . S
C7008 C7007 1.400 . S
C7008 C7011 1.386 . S
H7009 C7025 0.930 . S
H7010 C7026 0.931 . S
C7011 H6999 0.929 . S
C7011 C7005 1.390 . S
C7011 C7008 1.386 . S
C7012 C7007 1.490 . S
C7012 C7014 1.395 . S
C7012 C7015 1.403 . S
H7013 C7019 0.930 . S
C7014 H7000 0.930 . S
C7014 C7012 1.395 . S
C7014 C7017 1.403 . S
C7015 C7012 1.403 . S
C7015 C7016 1.524 . S
C7015 C7019 1.400 . S
C7016 H7001 0.960 . S
C7016 H7002 0.960 . S
C7016 H7003 0.960 . S
C7016 C7015 1.524 . S
C7017 C7014 1.403 . S
C7017 C7018 1.392 . S
C7017 C7021 1.495 . S
C7018 C7017 1.392 . S
C7018 C7019 1.385 . S
C7018 C7020 1.478 . S
C7019 H7013 0.930 . S
C7019 C7015 1.400 . S
C7019 C7018 1.385 . S
C7020 C7018 1.478 . S
C7020 C7022 1.381 . S
C7020 C7026 1.383 . S
C7021 C7017 1.495 . S
C7021 H7027 0.959 . S
C7021 H7028 0.961 . S
C7021 H7029 0.960 . S
C7022 C7020 1.381 . S
C7022 C7023 1.394 . S
C7022 H7030 0.930 . S
C7023 C7022 1.394 . S
C7023 C7024 1.383 . S
C7023 H7031 0.929 . S
C7024 C7023 1.383 . S
C7024 C7025 1.377 . S
C7025 H7009 0.930 . S
C7025 C7024 1.377 . S
C7025 C7026 1.379 . S
C7026 H7010 0.931 . S
C7026 C7020 1.383 . S
C7026 C7025 1.379 . S
H7027 C7021 0.959 . S
H7028 C7021 0.961 . S
H7029 C7021 0.960 . S
H7030 C7022 0.930 . S
H7031 C7023 0.929 . S
H7032 C7040 0.929 . S
H7033 C7042 0.930 . S
H7034 C7044 0.930 . S
H7035 C7047 0.929 . S
H7036 C7050 0.930 . S
H7037 C7052 0.960 . S
H7038 C7052 0.960 . S
H7039 C7052 0.960 . S
C7040 H7032 0.929 . S
C7040 C7041 1.377 . S
C7040 C7042 1.384 . S
C7041 C7040 1.377 . S
C7041 C7047 1.390 . S
C7042 H7033 0.930 . S
C7042 C7040 1.384 . S
C7042 C7043 1.372 . S
C7043 C7042 1.372 . S
C7043 C7044 1.400 . S
C7043 C7048 1.490 . S
C7044 H7034 0.930 . S
C7044 C7043 1.400 . S
C7044 C7047 1.386 . S
H7045 C7061 0.930 . S
H7046 C7062 0.931 . S
C7047 H7035 0.929 . S
C7047 C7041 1.390 . S
C7047 C7044 1.386 . S
C7048 C7043 1.490 . S
C7048 C7050 1.395 . S
C7048 C7051 1.403 . S
H7049 C7055 0.930 . S
C7050 H7036 0.930 . S
C7050 C7048 1.395 . S
C7050 C7053 1.403 . S
C7051 C7048 1.403 . S
C7051 C7052 1.524 . S
C7051 C7055 1.400 . S
C7052 H7037 0.960 . S
C7052 H7038 0.960 . S
C7052 H7039 0.960 . S
C7052 C7051 1.524 . S
C7053 C7050 1.403 . S
C7053 C7054 1.392 . S
C7053 C7057 1.495 . S
C7054 C7053 1.392 . S
C7054 C7055 1.385 . S
C7054 C7056 1.478 . S
C7055 H7049 0.930 . S
C7055 C7051 1.400 . S
C7055 C7054 1.385 . S
C7056 C7054 1.478 . S
C7056 C7058 1.381 . S
C7056 C7062 1.383 . S
C7057 C7053 1.495 . S
C7057 H7063 0.959 . S
C7057 H7064 0.961 . S
C7057 H7065 0.960 . S
C7058 C7056 1.381 . S
C7058 C7059 1.394 . S
C7058 H7066 0.930 . S
C7059 C7058 1.394 . S
C7059 C7060 1.383 . S
C7059 H7067 0.929 . S
C7060 C7059 1.383 . S
C7060 C7061 1.377 . S
C7061 H7045 0.930 . S
C7061 C7060 1.377 . S
C7061 C7062 1.379 . S
C7062 H7046 0.931 . S
C7062 C7056 1.383 . S
C7062 C7061 1.379 . S
H7063 C7057 0.959 . S
H7064 C7057 0.961 . S
H7065 C7057 0.960 . S
H7066 C7058 0.930 . S
H7067 C7059 0.929 . S
H7068 C7076 0.929 . S
H7069 C7078 0.930 . S
H7070 C7080 0.930 . S
H7071 C7083 0.929 . S
H7072 C7086 0.930 . S
H7073 C7088 0.960 . S
H7074 C7088 0.960 . S
H7075 C7088 0.960 . S
C7076 H7068 0.929 . S
C7076 C7077 1.377 . S
C7076 C7078 1.384 . S
C7077 C7076 1.377 . S
C7077 C7083 1.390 . S
C7078 H7069 0.930 . S
C7078 C7076 1.384 . S
C7078 C7079 1.372 . S
C7079 C7078 1.372 . S
C7079 C7080 1.400 . S
C7079 C7084 1.490 . S
C7080 H7070 0.930 . S
C7080 C7079 1.400 . S
C7080 C7083 1.386 . S
H7081 C7097 0.930 . S
H7082 C7098 0.931 . S
C7083 H7071 0.929 . S
C7083 C7077 1.390 . S
C7083 C7080 1.386 . S
C7084 C7079 1.490 . S
C7084 C7086 1.395 . S
C7084 C7087 1.403 . S
H7085 C7091 0.930 . S
C7086 H7072 0.930 . S
C7086 C7084 1.395 . S
C7086 C7089 1.403 . S
C7087 C7084 1.403 . S
C7087 C7088 1.524 . S
C7087 C7091 1.400 . S
C7088 H7073 0.960 . S
C7088 H7074 0.960 . S
C7088 H7075 0.960 . S
C7088 C7087 1.524 . S
C7089 C7086 1.403 . S
C7089 C7090 1.392 . S
C7089 C7093 1.495 . S
C7090 C7089 1.392 . S
C7090 C7091 1.385 . S
C7090 C7092 1.478 . S
C7091 H7085 0.930 . S
C7091 C7087 1.400 . S
C7091 C7090 1.385 . S
C7092 C7090 1.478 . S
C7092 C7094 1.381 . S
C7092 C7098 1.383 . S
C7093 C7089 1.495 . S
C7093 H7099 0.959 . S
C7093 H7100 0.961 . S
C7093 H7101 0.960 . S
C7094 C7092 1.381 . S
C7094 C7095 1.394 . S
C7094 H7102 0.930 . S
C7095 C7094 1.394 . S
C7095 C7096 1.383 . S
C7095 H7103 0.929 . S
C7096 C7095 1.383 . S
C7096 C7097 1.377 . S
C7097 H7081 0.930 . S
C7097 C7096 1.377 . S
C7097 C7098 1.379 . S
C7098 H7082 0.931 . S
C7098 C7092 1.383 . S
C7098 C7097 1.379 . S
H7099 C7093 0.959 . S
H7100 C7093 0.961 . S
H7101 C7093 0.960 . S
H7102 C7094 0.930 . S
H7103 C7095 0.929 . S
H7104 C7112 0.929 . S
H7105 C7114 0.930 . S
H7106 C7116 0.930 . S
H7107 C7119 0.929 . S
H7108 C7122 0.930 . S
H7109 C7124 0.960 . S
H7110 C7124 0.960 . S
H7111 C7124 0.960 . S
C7112 H7104 0.929 . S
C7112 C7113 1.377 . S
C7112 C7114 1.384 . S
C7113 C7112 1.377 . S
C7113 C7119 1.390 . S
C7114 H7105 0.930 . S
C7114 C7112 1.384 . S
C7114 C7115 1.372 . S
C7115 C7114 1.372 . S
C7115 C7116 1.400 . S
C7115 C7120 1.490 . S
C7116 H7106 0.930 . S
C7116 C7115 1.400 . S
C7116 C7119 1.386 . S
H7117 C7133 0.930 . S
H7118 C7134 0.931 . S
C7119 H7107 0.929 . S
C7119 C7113 1.390 . S
C7119 C7116 1.386 . S
C7120 C7115 1.490 . S
C7120 C7122 1.395 . S
C7120 C7123 1.403 . S
H7121 C7127 0.930 . S
C7122 H7108 0.930 . S
C7122 C7120 1.395 . S
C7122 C7125 1.403 . S
C7123 C7120 1.403 . S
C7123 C7124 1.524 . S
C7123 C7127 1.400 . S
C7124 H7109 0.960 . S
C7124 H7110 0.960 . S
C7124 H7111 0.960 . S
C7124 C7123 1.524 . S
C7125 C7122 1.403 . S
C7125 C7126 1.392 . S
C7125 C7129 1.495 . S
C7126 C7125 1.392 . S
C7126 C7127 1.385 . S
C7126 C7128 1.478 . S
C7127 H7121 0.930 . S
C7127 C7123 1.400 . S
C7127 C7126 1.385 . S
C7128 C7126 1.478 . S
C7128 C7130 1.381 . S
C7128 C7134 1.383 . S
C7129 C7125 1.495 . S
C7129 H7135 0.959 . S
C7129 H7136 0.961 . S
C7129 H7137 0.960 . S
C7130 C7128 1.381 . S
C7130 C7131 1.394 . S
C7130 H7138 0.930 . S
C7131 C7130 1.394 . S
C7131 C7132 1.383 . S
C7131 H7139 0.929 . S
C7132 C7131 1.383 . S
C7132 C7133 1.377 . S
C7133 H7117 0.930 . S
C7133 C7132 1.377 . S
C7133 C7134 1.379 . S
C7134 H7118 0.931 . S
C7134 C7128 1.383 . S
C7134 C7133 1.379 . S
H7135 C7129 0.959 . S
H7136 C7129 0.961 . S
H7137 C7129 0.960 . S
H7138 C7130 0.930 . S
H7139 C7131 0.929 . S
H7140 C7148 0.929 . S
H7141 C7150 0.930 . S
H7142 C7152 0.930 . S
H7143 C7155 0.929 . S
H7144 C7158 0.930 . S
H7145 C7160 0.960 . S
H7146 C7160 0.960 . S
H7147 C7160 0.960 . S
C7148 H7140 0.929 . S
C7148 C7149 1.377 . S
C7148 C7150 1.384 . S
C7149 C7148 1.377 . S
C7149 C7155 1.390 . S
C7150 H7141 0.930 . S
C7150 C7148 1.384 . S
C7150 C7151 1.372 . S
C7151 C7150 1.372 . S
C7151 C7152 1.400 . S
C7151 C7156 1.490 . S
C7152 H7142 0.930 . S
C7152 C7151 1.400 . S
C7152 C7155 1.386 . S
H7153 C7169 0.930 . S
H7154 C7170 0.931 . S
C7155 H7143 0.929 . S
C7155 C7149 1.390 . S
C7155 C7152 1.386 . S
C7156 C7151 1.490 . S
C7156 C7158 1.395 . S
C7156 C7159 1.403 . S
H7157 C7163 0.930 . S
C7158 H7144 0.930 . S
C7158 C7156 1.395 . S
C7158 C7161 1.403 . S
C7159 C7156 1.403 . S
C7159 C7160 1.524 . S
C7159 C7163 1.400 . S
C7160 H7145 0.960 . S
C7160 H7146 0.960 . S
C7160 H7147 0.960 . S
C7160 C7159 1.524 . S
C7161 C7158 1.403 . S
C7161 C7162 1.392 . S
C7161 C7165 1.495 . S
C7162 C7161 1.392 . S
C7162 C7163 1.385 . S
C7162 C7164 1.478 . S
C7163 H7157 0.930 . S
C7163 C7159 1.400 . S
C7163 C7162 1.385 . S
C7164 C7162 1.478 . S
C7164 C7166 1.381 . S
C7164 C7170 1.383 . S
C7165 C7161 1.495 . S
C7165 H7171 0.959 . S
C7165 H7172 0.961 . S
C7165 H7173 0.960 . S
C7166 C7164 1.381 . S
C7166 C7167 1.394 . S
C7166 H7174 0.930 . S
C7167 C7166 1.394 . S
C7167 C7168 1.383 . S
C7167 H7175 0.929 . S
C7168 C7167 1.383 . S
C7168 C7169 1.377 . S
C7169 H7153 0.930 . S
C7169 C7168 1.377 . S
C7169 C7170 1.379 . S
C7170 H7154 0.931 . S
C7170 C7164 1.383 . S
C7170 C7169 1.379 . S
H7171 C7165 0.959 . S
H7172 C7165 0.961 . S
H7173 C7165 0.960 . S
H7174 C7166 0.930 . S
H7175 C7167 0.929 . S
H7176 C7184 0.929 . S
H7177 C7186 0.930 . S
H7178 C7188 0.930 . S
H7179 C7191 0.929 . S
H7180 C7194 0.930 . S
H7181 C7196 0.960 . S
H7182 C7196 0.960 . S
H7183 C7196 0.960 . S
C7184 H7176 0.929 . S
C7184 C7185 1.377 . S
C7184 C7186 1.384 . S
C7185 C7184 1.377 . S
C7185 C7191 1.390 . S
C7186 H7177 0.930 . S
C7186 C7184 1.384 . S
C7186 C7187 1.372 . S
C7187 C7186 1.372 . S
C7187 C7188 1.400 . S
C7187 C7192 1.490 . S
C7188 H7178 0.930 . S
C7188 C7187 1.400 . S
C7188 C7191 1.386 . S
H7189 C7205 0.930 . S
H7190 C7206 0.931 . S
C7191 H7179 0.929 . S
C7191 C7185 1.390 . S
C7191 C7188 1.386 . S
C7192 C7187 1.490 . S
C7192 C7194 1.395 . S
C7192 C7195 1.403 . S
H7193 C7199 0.930 . S
C7194 H7180 0.930 . S
C7194 C7192 1.395 . S
C7194 C7197 1.403 . S
C7195 C7192 1.403 . S
C7195 C7196 1.524 . S
C7195 C7199 1.400 . S
C7196 H7181 0.960 . S
C7196 H7182 0.960 . S
C7196 H7183 0.960 . S
C7196 C7195 1.524 . S
C7197 C7194 1.403 . S
C7197 C7198 1.392 . S
C7197 C7201 1.495 . S
C7198 C7197 1.392 . S
C7198 C7199 1.385 . S
C7198 C7200 1.478 . S
C7199 H7193 0.930 . S
C7199 C7195 1.400 . S
C7199 C7198 1.385 . S
C7200 C7198 1.478 . S
C7200 C7202 1.381 . S
C7200 C7206 1.383 . S
C7201 C7197 1.495 . S
C7201 H7207 0.959 . S
C7201 H7208 0.961 . S
C7201 H7209 0.960 . S
C7202 C7200 1.381 . S
C7202 C7203 1.394 . S
C7202 H7210 0.930 . S
C7203 C7202 1.394 . S
C7203 C7204 1.383 . S
C7203 H7211 0.929 . S
C7204 C7203 1.383 . S
C7204 C7205 1.377 . S
C7205 H7189 0.930 . S
C7205 C7204 1.377 . S
C7205 C7206 1.379 . S
C7206 H7190 0.931 . S
C7206 C7200 1.383 . S
C7206 C7205 1.379 . S
H7207 C7201 0.959 . S
H7208 C7201 0.961 . S
H7209 C7201 0.960 . S
H7210 C7202 0.930 . S
H7211 C7203 0.929 . S
H7212 C7220 0.929 . S
H7213 C7222 0.930 . S
H7214 C7224 0.930 . S
H7215 C7227 0.929 . S
H7216 C7230 0.930 . S
H7217 C7232 0.960 . S
H7218 C7232 0.960 . S
H7219 C7232 0.960 . S
C7220 H7212 0.929 . S
C7220 C7221 1.377 . S
C7220 C7222 1.384 . S
C7221 C7220 1.377 . S
C7221 C7227 1.390 . S
C7222 H7213 0.930 . S
C7222 C7220 1.384 . S
C7222 C7223 1.372 . S
C7223 C7222 1.372 . S
C7223 C7224 1.400 . S
C7223 C7228 1.490 . S
C7224 H7214 0.930 . S
C7224 C7223 1.400 . S
C7224 C7227 1.386 . S
H7225 C7241 0.930 . S
H7226 C7242 0.931 . S
C7227 H7215 0.929 . S
C7227 C7221 1.390 . S
C7227 C7224 1.386 . S
C7228 C7223 1.490 . S
C7228 C7230 1.395 . S
C7228 C7231 1.403 . S
H7229 C7235 0.930 . S
C7230 H7216 0.930 . S
C7230 C7228 1.395 . S
C7230 C7233 1.403 . S
C7231 C7228 1.403 . S
C7231 C7232 1.524 . S
C7231 C7235 1.400 . S
C7232 H7217 0.960 . S
C7232 H7218 0.960 . S
C7232 H7219 0.960 . S
C7232 C7231 1.524 . S
C7233 C7230 1.403 . S
C7233 C7234 1.392 . S
C7233 C7237 1.495 . S
C7234 C7233 1.392 . S
C7234 C7235 1.385 . S
C7234 C7236 1.478 . S
C7235 H7229 0.930 . S
C7235 C7231 1.400 . S
C7235 C7234 1.385 . S
C7236 C7234 1.478 . S
C7236 C7238 1.381 . S
C7236 C7242 1.383 . S
C7237 C7233 1.495 . S
C7237 H7243 0.959 . S
C7237 H7244 0.961 . S
C7237 H7245 0.960 . S
C7238 C7236 1.381 . S
C7238 C7239 1.394 . S
C7238 H7246 0.930 . S
C7239 C7238 1.394 . S
C7239 C7240 1.383 . S
C7239 H7247 0.929 . S
C7240 C7239 1.383 . S
C7240 C7241 1.377 . S
C7241 H7225 0.930 . S
C7241 C7240 1.377 . S
C7241 C7242 1.379 . S
C7242 H7226 0.931 . S
C7242 C7236 1.383 . S
C7242 C7241 1.379 . S
H7243 C7237 0.959 . S
H7244 C7237 0.961 . S
H7245 C7237 0.960 . S
H7246 C7238 0.930 . S
H7247 C7239 0.929 . S
H7248 C7256 0.929 . S
H7249 C7258 0.930 . S
H7250 C7260 0.930 . S
H7251 C7263 0.929 . S
H7252 C7266 0.930 . S
H7253 C7268 0.960 . S
H7254 C7268 0.960 . S
H7255 C7268 0.960 . S
C7256 H7248 0.929 . S
C7256 C7257 1.377 . S
C7256 C7258 1.384 . S
C7257 C7256 1.377 . S
C7257 C7263 1.390 . S
C7258 H7249 0.930 . S
C7258 C7256 1.384 . S
C7258 C7259 1.372 . S
C7259 C7258 1.372 . S
C7259 C7260 1.400 . S
C7259 C7264 1.490 . S
C7260 H7250 0.930 . S
C7260 C7259 1.400 . S
C7260 C7263 1.386 . S
H7261 C7277 0.930 . S
H7262 C7278 0.931 . S
C7263 H7251 0.929 . S
C7263 C7257 1.390 . S
C7263 C7260 1.386 . S
C7264 C7259 1.490 . S
C7264 C7266 1.395 . S
C7264 C7267 1.403 . S
H7265 C7271 0.930 . S
C7266 H7252 0.930 . S
C7266 C7264 1.395 . S
C7266 C7269 1.403 . S
C7267 C7264 1.403 . S
C7267 C7268 1.524 . S
C7267 C7271 1.400 . S
C7268 H7253 0.960 . S
C7268 H7254 0.960 . S
C7268 H7255 0.960 . S
C7268 C7267 1.524 . S
C7269 C7266 1.403 . S
C7269 C7270 1.392 . S
C7269 C7273 1.495 . S
C7270 C7269 1.392 . S
C7270 C7271 1.385 . S
C7270 C7272 1.478 . S
C7271 H7265 0.930 . S
C7271 C7267 1.400 . S
C7271 C7270 1.385 . S
C7272 C7270 1.478 . S
C7272 C7274 1.381 . S
C7272 C7278 1.383 . S
C7273 C7269 1.495 . S
C7273 H7279 0.959 . S
C7273 H7280 0.961 . S
C7273 H7281 0.960 . S
C7274 C7272 1.381 . S
C7274 C7275 1.394 . S
C7274 H7282 0.930 . S
C7275 C7274 1.394 . S
C7275 C7276 1.383 . S
C7275 H7283 0.929 . S
C7276 C7275 1.383 . S
C7276 C7277 1.377 . S
C7277 H7261 0.930 . S
C7277 C7276 1.377 . S
C7277 C7278 1.379 . S
C7278 H7262 0.931 . S
C7278 C7272 1.383 . S
C7278 C7277 1.379 . S
H7279 C7273 0.959 . S
H7280 C7273 0.961 . S
H7281 C7273 0.960 . S
H7282 C7274 0.930 . S
H7283 C7275 0.929 . S
H7284 C7292 0.929 . S
H7285 C7294 0.930 . S
H7286 C7296 0.930 . S
H7287 C7299 0.929 . S
H7288 C7302 0.930 . S
H7289 C7304 0.960 . S
H7290 C7304 0.960 . S
H7291 C7304 0.960 . S
C7292 H7284 0.929 . S
C7292 C7293 1.377 . S
C7292 C7294 1.384 . S
C7293 C7292 1.377 . S
C7293 C7299 1.390 . S
C7294 H7285 0.930 . S
C7294 C7292 1.384 . S
C7294 C7295 1.372 . S
C7295 C7294 1.372 . S
C7295 C7296 1.400 . S
C7295 C7300 1.490 . S
C7296 H7286 0.930 . S
C7296 C7295 1.400 . S
C7296 C7299 1.386 . S
H7297 C7313 0.930 . S
H7298 C7314 0.931 . S
C7299 H7287 0.929 . S
C7299 C7293 1.390 . S
C7299 C7296 1.386 . S
C7300 C7295 1.490 . S
C7300 C7302 1.395 . S
C7300 C7303 1.403 . S
H7301 C7307 0.930 . S
C7302 H7288 0.930 . S
C7302 C7300 1.395 . S
C7302 C7305 1.403 . S
C7303 C7300 1.403 . S
C7303 C7304 1.524 . S
C7303 C7307 1.400 . S
C7304 H7289 0.960 . S
C7304 H7290 0.960 . S
C7304 H7291 0.960 . S
C7304 C7303 1.524 . S
C7305 C7302 1.403 . S
C7305 C7306 1.392 . S
C7305 C7309 1.495 . S
C7306 C7305 1.392 . S
C7306 C7307 1.385 . S
C7306 C7308 1.478 . S
C7307 H7301 0.930 . S
C7307 C7303 1.400 . S
C7307 C7306 1.385 . S
C7308 C7306 1.478 . S
C7308 C7310 1.381 . S
C7308 C7314 1.383 . S
C7309 C7305 1.495 . S
C7309 H7315 0.959 . S
C7309 H7316 0.961 . S
C7309 H7317 0.960 . S
C7310 C7308 1.381 . S
C7310 C7311 1.394 . S
C7310 H7318 0.930 . S
C7311 C7310 1.394 . S
C7311 C7312 1.383 . S
C7311 H7319 0.929 . S
C7312 C7311 1.383 . S
C7312 C7313 1.377 . S
C7313 H7297 0.930 . S
C7313 C7312 1.377 . S
C7313 C7314 1.379 . S
C7314 H7298 0.931 . S
C7314 C7308 1.383 . S
C7314 C7313 1.379 . S
H7315 C7309 0.959 . S
H7316 C7309 0.961 . S
H7317 C7309 0.960 . S
H7318 C7310 0.930 . S
H7319 C7311 0.929 . S
H7320 C7328 0.929 . S
H7321 C7330 0.930 . S
H7322 C7332 0.930 . S
H7323 C7335 0.929 . S
H7324 C7338 0.930 . S
H7325 C7340 0.960 . S
H7326 C7340 0.960 . S
H7327 C7340 0.960 . S
C7328 H7320 0.929 . S
C7328 C7329 1.377 . S
C7328 C7330 1.384 . S
C7329 C7328 1.377 . S
C7329 C7335 1.390 . S
C7330 H7321 0.930 . S
C7330 C7328 1.384 . S
C7330 C7331 1.372 . S
C7331 C7330 1.372 . S
C7331 C7332 1.400 . S
C7331 C7336 1.490 . S
C7332 H7322 0.930 . S
C7332 C7331 1.400 . S
C7332 C7335 1.386 . S
H7333 C7349 0.930 . S
H7334 C7350 0.931 . S
C7335 H7323 0.929 . S
C7335 C7329 1.390 . S
C7335 C7332 1.386 . S
C7336 C7331 1.490 . S
C7336 C7338 1.395 . S
C7336 C7339 1.403 . S
H7337 C7343 0.930 . S
C7338 H7324 0.930 . S
C7338 C7336 1.395 . S
C7338 C7341 1.403 . S
C7339 C7336 1.403 . S
C7339 C7340 1.524 . S
C7339 C7343 1.400 . S
C7340 H7325 0.960 . S
C7340 H7326 0.960 . S
C7340 H7327 0.960 . S
C7340 C7339 1.524 . S
C7341 C7338 1.403 . S
C7341 C7342 1.392 . S
C7341 C7345 1.495 . S
C7342 C7341 1.392 . S
C7342 C7343 1.385 . S
C7342 C7344 1.478 . S
C7343 H7337 0.930 . S
C7343 C7339 1.400 . S
C7343 C7342 1.385 . S
C7344 C7342 1.478 . S
C7344 C7346 1.381 . S
C7344 C7350 1.383 . S
C7345 C7341 1.495 . S
C7345 H7351 0.959 . S
C7345 H7352 0.961 . S
C7345 H7353 0.960 . S
C7346 C7344 1.381 . S
C7346 C7347 1.394 . S
C7346 H7354 0.930 . S
C7347 C7346 1.394 . S
C7347 C7348 1.383 . S
C7347 H7355 0.929 . S
C7348 C7347 1.383 . S
C7348 C7349 1.377 . S
C7349 H7333 0.930 . S
C7349 C7348 1.377 . S
C7349 C7350 1.379 . S
C7350 H7334 0.931 . S
C7350 C7344 1.383 . S
C7350 C7349 1.379 . S
H7351 C7345 0.959 . S
H7352 C7345 0.961 . S
H7353 C7345 0.960 . S
H7354 C7346 0.930 . S
H7355 C7347 0.929 . S
H7356 C7364 0.929 . S
H7357 C7366 0.930 . S
H7358 C7368 0.930 . S
H7359 C7371 0.929 . S
H7360 C7374 0.930 . S
H7361 C7376 0.960 . S
H7362 C7376 0.960 . S
H7363 C7376 0.960 . S
C7364 H7356 0.929 . S
C7364 C7365 1.377 . S
C7364 C7366 1.384 . S
C7365 C7364 1.377 . S
C7365 C7371 1.390 . S
C7366 H7357 0.930 . S
C7366 C7364 1.384 . S
C7366 C7367 1.372 . S
C7367 C7366 1.372 . S
C7367 C7368 1.400 . S
C7367 C7372 1.490 . S
C7368 H7358 0.930 . S
C7368 C7367 1.400 . S
C7368 C7371 1.386 . S
H7369 C7385 0.930 . S
H7370 C7386 0.931 . S
C7371 H7359 0.929 . S
C7371 C7365 1.390 . S
C7371 C7368 1.386 . S
C7372 C7367 1.490 . S
C7372 C7374 1.395 . S
C7372 C7375 1.403 . S
H7373 C7379 0.930 . S
C7374 H7360 0.930 . S
C7374 C7372 1.395 . S
C7374 C7377 1.403 . S
C7375 C7372 1.403 . S
C7375 C7376 1.524 . S
C7375 C7379 1.400 . S
C7376 H7361 0.960 . S
C7376 H7362 0.960 . S
C7376 H7363 0.960 . S
C7376 C7375 1.524 . S
C7377 C7374 1.403 . S
C7377 C7378 1.392 . S
C7377 C7381 1.495 . S
C7378 C7377 1.392 . S
C7378 C7379 1.385 . S
C7378 C7380 1.478 . S
C7379 H7373 0.930 . S
C7379 C7375 1.400 . S
C7379 C7378 1.385 . S
C7380 C7378 1.478 . S
C7380 C7382 1.381 . S
C7380 C7386 1.383 . S
C7381 C7377 1.495 . S
C7381 H7387 0.959 . S
C7381 H7388 0.961 . S
C7381 H7389 0.960 . S
C7382 C7380 1.381 . S
C7382 C7383 1.394 . S
C7382 H7390 0.930 . S
C7383 C7382 1.394 . S
C7383 C7384 1.383 . S
C7383 H7391 0.929 . S
C7384 C7383 1.383 . S
C7384 C7385 1.377 . S
C7385 H7369 0.930 . S
C7385 C7384 1.377 . S
C7385 C7386 1.379 . S
C7386 H7370 0.931 . S
C7386 C7380 1.383 . S
C7386 C7385 1.379 . S
H7387 C7381 0.959 . S
H7388 C7381 0.961 . S
H7389 C7381 0.960 . S
H7390 C7382 0.930 . S
H7391 C7383 0.929 . S
H7392 C7400 0.929 . S
H7393 C7402 0.930 . S
H7394 C7404 0.930 . S
H7395 C7407 0.929 . S
H7396 C7410 0.930 . S
H7397 C7412 0.960 . S
H7398 C7412 0.960 . S
H7399 C7412 0.960 . S
C7400 H7392 0.929 . S
C7400 C7401 1.377 . S
C7400 C7402 1.384 . S
C7401 C7400 1.377 . S
C7401 C7407 1.390 . S
C7402 H7393 0.930 . S
C7402 C7400 1.384 . S
C7402 C7403 1.372 . S
C7403 C7402 1.372 . S
C7403 C7404 1.400 . S
C7403 C7408 1.490 . S
C7404 H7394 0.930 . S
C7404 C7403 1.400 . S
C7404 C7407 1.386 . S
H7405 C7421 0.930 . S
H7406 C7422 0.931 . S
C7407 H7395 0.929 . S
C7407 C7401 1.390 . S
C7407 C7404 1.386 . S
C7408 C7403 1.490 . S
C7408 C7410 1.395 . S
C7408 C7411 1.403 . S
H7409 C7415 0.924 1_554 S
C7410 H7396 0.930 . S
C7410 C7408 1.395 . S
C7410 C7413 1.403 . S
C7411 C7408 1.403 . S
C7411 C7412 1.524 . S
C7411 C7415 1.400 . S
C7412 H7397 0.960 . S
C7412 H7398 0.960 . S
C7412 H7399 0.960 . S
C7412 C7411 1.524 . S
C7413 C7410 1.403 . S
C7413 C7414 1.392 1_556 S
C7413 C7417 1.495 1_556 S
C7414 C7413 1.392 1_554 S
C7414 C7415 1.385 1_554 S
C7414 C7416 1.478 . S
C7415 H7409 0.924 1_556 S
C7415 C7411 1.400 . S
C7415 C7414 1.385 1_556 S
C7416 C7414 1.478 . S
C7416 C7418 1.381 . S
C7416 C7422 1.383 . S
C7417 C7413 1.495 1_554 S
C7417 H7423 0.959 1_554 S
C7417 H7424 0.961 . S
C7417 H7425 0.960 . S
C7418 C7416 1.381 . S
C7418 C7419 1.394 . S
C7418 H7426 0.930 . S
C7419 C7418 1.394 . S
C7419 C7420 1.383 . S
C7419 H7427 0.929 . S
C7420 C7419 1.383 . S
C7420 C7421 1.377 . S
C7421 H7405 0.930 . S
C7421 C7420 1.377 . S
C7421 C7422 1.379 . S
C7422 H7406 0.931 . S
C7422 C7416 1.383 . S
C7422 C7421 1.379 . S
H7423 C7417 0.959 1_556 S
H7424 C7417 0.961 . S
H7425 C7417 0.960 . S
H7426 C7418 0.930 . S
H7427 C7419 0.929 . S
H7428 C7436 0.929 . S
H7429 C7438 0.930 . S
H7430 C7440 0.930 . S
H7431 C7443 0.929 . S
H7432 C7446 0.962 . S
H7433 C7448 0.960 1_556 S
H7434 C7448 0.960 . S
H7435 C7448 0.960 . S
C7436 H7428 0.929 . S
C7436 C7437 1.377 . S
C7436 C7438 1.384 . S
C7437 C7436 1.377 . S
C7437 C7443 1.390 . S
C7438 H7429 0.930 . S
C7438 C7436 1.384 . S
C7438 C7439 1.372 . S
C7439 C7438 1.372 . S
C7439 C7440 1.400 . S
C7439 C7444 1.490 . S
C7440 H7430 0.930 . S
C7440 C7439 1.400 . S
C7440 C7443 1.386 . S
H7441 C7457 0.930 . S
H7442 C7458 0.931 . S
C7443 H7431 0.929 . S
C7443 C7437 1.390 . S
C7443 C7440 1.386 . S
C7444 C7439 1.490 . S
C7444 C7446 1.395 1_554 S
C7444 C7447 1.403 1_554 S
H7445 C7451 0.930 . S
C7446 H7432 0.962 . S
C7446 C7444 1.395 1_556 S
C7446 C7449 1.403 . S
C7447 C7444 1.403 1_556 S
C7447 C7448 1.524 1_556 S
C7447 C7451 1.400 . S
C7448 H7433 0.960 1_554 S
C7448 H7434 0.960 . S
C7448 H7435 0.960 . S
C7448 C7447 1.524 1_554 S
C7449 C7446 1.403 . S
C7449 C7450 1.392 . S
C7449 C7453 1.495 . S
C7450 C7449 1.392 . S
C7450 C7451 1.385 . S
C7450 C7452 1.478 . S
C7451 H7445 0.930 . S
C7451 C7447 1.400 . S
C7451 C7450 1.385 . S
C7452 C7450 1.478 . S
C7452 C7454 1.381 . S
C7452 C7458 1.383 . S
C7453 C7449 1.495 . S
C7453 H7459 0.959 . S
C7453 H7460 0.961 . S
C7453 H7461 0.960 . S
C7454 C7452 1.381 . S
C7454 C7455 1.394 . S
C7454 H7462 0.930 . S
C7455 C7454 1.394 . S
C7455 C7456 1.383 . S
C7455 H7463 0.929 . S
C7456 C7455 1.383 . S
C7456 C7457 1.377 . S
C7457 H7441 0.930 . S
C7457 C7456 1.377 . S
C7457 C7458 1.379 . S
C7458 H7442 0.931 . S
C7458 C7452 1.383 . S
C7458 C7457 1.379 . S
H7459 C7453 0.959 . S
H7460 C7453 0.961 . S
H7461 C7453 0.960 . S
H7462 C7454 0.930 . S
H7463 C7455 0.929 . S
H7464 C7472 0.929 . S
H7465 C7474 0.930 . S
H7466 C7476 0.930 . S
H7467 C7479 0.929 . S
H7468 C7482 0.953 . S
H7469 C7484 0.960 1_556 S
H7470 C7484 0.960 . S
H7471 C7484 0.960 . S
C7472 H7464 0.929 . S
C7472 C7473 1.377 . S
C7472 C7474 1.384 . S
C7473 C7472 1.377 . S
C7473 C7479 1.390 . S
C7474 H7465 0.930 . S
C7474 C7472 1.384 . S
C7474 C7475 1.372 . S
C7475 C7474 1.372 . S
C7475 C7476 1.400 . S
C7475 C7480 1.490 . S
C7476 H7466 0.930 . S
C7476 C7475 1.400 . S
C7476 C7479 1.386 . S
H7477 C7493 0.930 . S
H7478 C7494 0.931 . S
C7479 H7467 0.929 . S
C7479 C7473 1.390 . S
C7479 C7476 1.386 . S
C7480 C7475 1.490 . S
C7480 C7482 1.395 1_554 S
C7480 C7483 1.403 1_554 S
H7481 C7487 0.930 . S
C7482 H7468 0.953 . S
C7482 C7480 1.395 1_556 S
C7482 C7485 1.403 . S
C7483 C7480 1.403 1_556 S
C7483 C7484 1.524 1_556 S
C7483 C7487 1.400 . S
C7484 H7469 0.960 1_554 S
C7484 H7470 0.960 . S
C7484 H7471 0.960 . S
C7484 C7483 1.524 1_554 S
C7485 C7482 1.403 . S
C7485 C7486 1.392 . S
C7485 C7489 1.495 . S
C7486 C7485 1.392 . S
C7486 C7487 1.385 . S
C7486 C7488 1.478 . S
C7487 H7481 0.930 . S
C7487 C7483 1.400 . S
C7487 C7486 1.385 . S
C7488 C7486 1.478 . S
C7488 C7490 1.381 . S
C7488 C7494 1.383 . S
C7489 C7485 1.495 . S
C7489 H7495 0.959 . S
C7489 H7496 0.961 . S
C7489 H7497 0.960 . S
C7490 C7488 1.381 . S
C7490 C7491 1.394 . S
C7490 H7498 0.930 . S
C7491 C7490 1.394 . S
C7491 C7492 1.383 . S
C7491 H7499 0.929 . S
C7492 C7491 1.383 . S
C7492 C7493 1.377 . S
C7493 H7477 0.930 . S
C7493 C7492 1.377 . S
C7493 C7494 1.379 . S
C7494 H7478 0.931 . S
C7494 C7488 1.383 . S
C7494 C7493 1.379 . S
H7495 C7489 0.959 . S
H7496 C7489 0.961 . S
H7497 C7489 0.960 . S
H7498 C7490 0.930 . S
H7499 C7491 0.929 . S
H7500 C7508 0.929 . S
H7501 C7510 0.930 . S
H7502 C7512 0.930 . S
H7503 C7515 0.929 . S
H7504 C7518 0.966 . S
H7505 C7520 0.960 1_556 S
H7506 C7520 0.960 . S
H7507 C7520 0.960 . S
C7508 H7500 0.929 . S
C7508 C7509 1.377 . S
C7508 C7510 1.384 . S
C7509 C7508 1.377 . S
C7509 C7515 1.390 . S
C7510 H7501 0.930 . S
C7510 C7508 1.384 . S
C7510 C7511 1.372 . S
C7511 C7510 1.372 . S
C7511 C7512 1.400 . S
C7511 C7516 1.490 . S
C7512 H7502 0.930 . S
C7512 C7511 1.400 . S
C7512 C7515 1.386 . S
H7513 C7529 0.930 . S
H7514 C7530 0.931 . S
C7515 H7503 0.929 . S
C7515 C7509 1.390 . S
C7515 C7512 1.386 . S
C7516 C7511 1.490 . S
C7516 C7518 1.395 1_554 S
C7516 C7519 1.403 1_554 S
H7517 C7523 0.930 . S
C7518 H7504 0.966 . S
C7518 C7516 1.395 1_556 S
C7518 C7521 1.403 . S
C7519 C7516 1.403 1_556 S
C7519 C7520 1.524 1_556 S
C7519 C7523 1.400 . S
C7520 H7505 0.960 1_554 S
C7520 H7506 0.960 . S
C7520 H7507 0.960 . S
C7520 C7519 1.524 1_554 S
C7521 C7518 1.403 . S
C7521 C7522 1.392 . S
C7521 C7525 1.495 . S
C7522 C7521 1.392 . S
C7522 C7523 1.385 . S
C7522 C7524 1.478 . S
C7523 H7517 0.930 . S
C7523 C7519 1.400 . S
C7523 C7522 1.385 . S
C7524 C7522 1.478 . S
C7524 C7526 1.381 . S
C7524 C7530 1.383 . S
C7525 C7521 1.495 . S
C7525 H7531 0.959 . S
C7525 H7532 0.961 . S
C7525 H7533 0.960 . S
C7526 C7524 1.381 . S
C7526 C7527 1.394 . S
C7526 H7534 0.930 . S
C7527 C7526 1.394 . S
C7527 C7528 1.383 . S
C7527 H7535 0.929 . S
C7528 C7527 1.383 . S
C7528 C7529 1.377 . S
C7529 H7513 0.930 . S
C7529 C7528 1.377 . S
C7529 C7530 1.379 . S
C7530 H7514 0.931 . S
C7530 C7524 1.383 . S
C7530 C7529 1.379 . S
H7531 C7525 0.959 . S
H7532 C7525 0.961 . S
H7533 C7525 0.960 . S
H7534 C7526 0.930 . S
H7535 C7527 0.929 . S
H7536 C7544 0.929 . S
H7537 C7546 0.930 . S
H7538 C7548 0.930 . S
H7539 C7551 0.929 . S
H7540 C7554 0.930 . S
H7541 C7556 0.960 . S
H7542 C7556 0.960 . S
H7543 C7556 0.960 . S
C7544 H7536 0.929 . S
C7544 C7545 1.377 . S
C7544 C7546 1.384 . S
C7545 C7544 1.377 . S
C7545 C7551 1.390 . S
C7546 H7537 0.930 . S
C7546 C7544 1.384 . S
C7546 C7547 1.372 . S
C7547 C7546 1.372 . S
C7547 C7548 1.400 . S
C7547 C7552 1.490 . S
C7548 H7538 0.930 . S
C7548 C7547 1.400 . S
C7548 C7551 1.386 . S
H7549 C7565 0.930 . S
H7550 C7566 0.931 . S
C7551 H7539 0.929 . S
C7551 C7545 1.390 . S
C7551 C7548 1.386 . S
C7552 C7547 1.490 . S
C7552 C7554 1.395 . S
C7552 C7555 1.403 . S
H7553 C7559 0.931 . S
C7554 H7540 0.930 . S
C7554 C7552 1.395 . S
C7554 C7557 1.403 . S
C7555 C7552 1.403 . S
C7555 C7556 1.524 . S
C7555 C7559 1.400 . S
C7556 H7541 0.960 . S
C7556 H7542 0.960 . S
C7556 H7543 0.960 . S
C7556 C7555 1.524 . S
C7557 C7554 1.403 . S
C7557 C7558 1.392 1_554 S
C7557 C7561 1.495 1_554 S
C7558 C7557 1.392 1_556 S
C7558 C7559 1.385 1_556 S
C7558 C7560 1.478 . S
C7559 H7553 0.931 . S
C7559 C7555 1.400 . S
C7559 C7558 1.385 1_554 S
C7560 C7558 1.478 . S
C7560 C7562 1.381 . S
C7560 C7566 1.383 . S
C7561 C7557 1.495 1_556 S
C7561 H7567 0.959 1_556 S
C7561 H7568 0.961 . S
C7561 H7569 0.960 . S
C7562 C7560 1.381 . S
C7562 C7563 1.394 . S
C7562 H7570 0.930 . S
C7563 C7562 1.394 . S
C7563 C7564 1.383 . S
C7563 H7571 0.929 . S
C7564 C7563 1.383 . S
C7564 C7565 1.377 . S
C7565 H7549 0.930 . S
C7565 C7564 1.377 . S
C7565 C7566 1.379 . S
C7566 H7550 0.931 . S
C7566 C7560 1.383 . S
C7566 C7565 1.379 . S
H7567 C7561 0.959 1_554 S
H7568 C7561 0.961 . S
H7569 C7561 0.960 . S
H7570 C7562 0.930 . S
H7571 C7563 0.929 . S
H7572 C7580 0.929 . S
H7573 C7582 0.930 . S
H7574 C7584 0.930 . S
H7575 C7587 0.929 . S
H7576 C7590 0.930 1_556 S
H7577 C7592 0.960 . S
H7578 C7592 0.960 1_556 S
H7579 C7592 0.960 1_556 S
C7580 H7572 0.929 . S
C7580 C7581 1.377 . S
C7580 C7582 1.384 . S
C7581 C7580 1.377 . S
C7581 C7587 1.390 . S
C7582 H7573 0.930 . S
C7582 C7580 1.384 . S
C7582 C7583 1.372 . S
C7583 C7582 1.372 . S
C7583 C7584 1.400 . S
C7583 C7588 1.490 . S
C7584 H7574 0.930 . S
C7584 C7583 1.400 . S
C7584 C7587 1.386 . S
H7585 C7601 0.930 . S
H7586 C7602 0.931 . S
C7587 H7575 0.929 . S
C7587 C7581 1.390 . S
C7587 C7584 1.386 . S
C7588 C7583 1.490 . S
C7588 C7590 1.395 1_556 S
C7588 C7591 1.403 1_556 S
H7589 C7595 0.930 . S
C7590 H7576 0.930 1_554 S
C7590 C7588 1.395 1_554 S
C7590 C7593 1.403 . S
C7591 C7588 1.403 1_554 S
C7591 C7592 1.524 . S
C7591 C7595 1.400 . S
C7592 H7577 0.960 . S
C7592 H7578 0.960 1_554 S
C7592 H7579 0.960 1_554 S
C7592 C7591 1.524 . S
C7593 C7590 1.403 . S
C7593 C7594 1.392 . S
C7593 C7597 1.495 . S
C7594 C7593 1.392 . S
C7594 C7595 1.385 . S
C7594 C7596 1.478 . S
C7595 H7589 0.930 . S
C7595 C7591 1.400 . S
C7595 C7594 1.385 . S
C7596 C7594 1.478 . S
C7596 C7598 1.381 . S
C7596 C7602 1.383 . S
C7597 C7593 1.495 . S
C7597 H7603 0.959 . S
C7597 H7604 0.961 . S
C7597 H7605 0.960 . S
C7598 C7596 1.381 . S
C7598 C7599 1.394 . S
C7598 H7606 0.930 . S
C7599 C7598 1.394 . S
C7599 C7600 1.383 . S
C7599 H7607 0.929 . S
C7600 C7599 1.383 . S
C7600 C7601 1.377 . S
C7601 H7585 0.930 . S
C7601 C7600 1.377 . S
C7601 C7602 1.379 . S
C7602 H7586 0.931 . S
C7602 C7596 1.383 . S
C7602 C7601 1.379 . S
H7603 C7597 0.959 . S
H7604 C7597 0.961 . S
H7605 C7597 0.960 . S
H7606 C7598 0.930 . S
H7607 C7599 0.929 . S
H7608 C7616 0.929 . S
H7609 C7618 0.930 . S
H7610 C7620 0.930 . S
H7611 C7623 0.929 . S
H7612 C7626 0.930 . S
H7613 C7628 0.960 . S
H7614 C7628 0.960 . S
H7615 C7628 0.960 . S
C7616 H7608 0.929 . S
C7616 C7617 1.377 . S
C7616 C7618 1.384 . S
C7617 C7616 1.377 . S
C7617 C7623 1.390 . S
C7618 H7609 0.930 . S
C7618 C7616 1.384 . S
C7618 C7619 1.372 . S
C7619 C7618 1.372 . S
C7619 C7620 1.400 . S
C7619 C7624 1.490 . S
C7620 H7610 0.930 . S
C7620 C7619 1.400 . S
C7620 C7623 1.386 . S
H7621 C7637 0.930 . S
H7622 C7638 0.931 . S
C7623 H7611 0.929 . S
C7623 C7617 1.390 . S
C7623 C7620 1.386 . S
C7624 C7619 1.490 . S
C7624 C7626 1.395 . S
C7624 C7627 1.403 . S
H7625 C7631 0.936 . S
C7626 H7612 0.930 . S
C7626 C7624 1.395 . S
C7626 C7629 1.403 . S
C7627 C7624 1.403 . S
C7627 C7628 1.524 . S
C7627 C7631 1.400 . S
C7628 H7613 0.960 . S
C7628 H7614 0.960 . S
C7628 H7615 0.960 . S
C7628 C7627 1.524 . S
C7629 C7626 1.403 . S
C7629 C7630 1.392 1_554 S
C7629 C7633 1.495 1_554 S
C7630 C7629 1.392 1_556 S
C7630 C7631 1.385 1_556 S
C7630 C7632 1.478 . S
C7631 H7625 0.936 . S
C7631 C7627 1.400 . S
C7631 C7630 1.385 1_554 S
C7632 C7630 1.478 . S
C7632 C7634 1.381 . S
C7632 C7638 1.383 . S
C7633 C7629 1.495 1_556 S
C7633 H7639 0.959 1_556 S
C7633 H7640 0.961 . S
C7633 H7641 0.960 . S
C7634 C7632 1.381 . S
C7634 C7635 1.394 . S
C7634 H7642 0.930 . S
C7635 C7634 1.394 . S
C7635 C7636 1.383 . S
C7635 H7643 0.929 . S
C7636 C7635 1.383 . S
C7636 C7637 1.377 . S
C7637 H7621 0.930 . S
C7637 C7636 1.377 . S
C7637 C7638 1.379 . S
C7638 H7622 0.931 . S
C7638 C7632 1.383 . S
C7638 C7637 1.379 . S
H7639 C7633 0.959 1_554 S
H7640 C7633 0.961 . S
H7641 C7633 0.960 . S
H7642 C7634 0.930 . S
H7643 C7635 0.929 . S
H7644 C7652 0.929 . S
H7645 C7654 0.930 . S
H7646 C7656 0.930 . S
H7647 C7659 0.929 . S
H7648 C7662 0.930 1_556 S
H7649 C7664 1.047 . S
H7650 C7664 0.905 1_556 S
H7651 C7664 0.902 1_556 S
C7652 H7644 0.929 . S
C7652 C7653 1.377 . S
C7652 C7654 1.384 . S
C7653 C7652 1.377 . S
C7653 C7659 1.390 . S
C7654 H7645 0.930 . S
C7654 C7652 1.384 . S
C7654 C7655 1.372 . S
C7655 C7654 1.372 . S
C7655 C7656 1.400 . S
C7655 C7660 1.490 . S
C7656 H7646 0.930 . S
C7656 C7655 1.400 . S
C7656 C7659 1.386 . S
H7657 C7673 0.930 . S
H7658 C7674 0.931 . S
C7659 H7647 0.929 . S
C7659 C7653 1.390 . S
C7659 C7656 1.386 . S
C7660 C7655 1.490 . S
C7660 C7662 1.395 1_556 S
C7660 C7663 1.403 1_556 S
H7661 C7667 0.930 . S
C7662 H7648 0.930 1_554 S
C7662 C7660 1.395 1_554 S
C7662 C7665 1.403 . S
C7663 C7660 1.403 1_554 S
C7663 C7664 1.566 . S
C7663 C7667 1.400 . S
C7664 H7649 1.047 . S
C7664 H7650 0.905 1_554 S
C7664 H7651 0.902 1_554 S
C7664 C7663 1.566 . S
C7665 C7662 1.403 . S
C7665 C7666 1.392 . S
C7665 C7669 1.495 . S
C7666 C7665 1.392 . S
C7666 C7667 1.385 . S
C7666 C7668 1.478 . S
C7667 H7661 0.930 . S
C7667 C7663 1.400 . S
C7667 C7666 1.385 . S
C7668 C7666 1.478 . S
C7668 C7670 1.381 . S
C7668 C7674 1.383 . S
C7669 C7665 1.495 . S
C7669 H7675 0.959 . S
C7669 H7676 0.961 . S
C7669 H7677 0.960 . S
C7670 C7668 1.381 . S
C7670 C7671 1.394 . S
C7670 H7678 0.930 . S
C7671 C7670 1.394 . S
C7671 C7672 1.383 . S
C7671 H7679 0.929 . S
C7672 C7671 1.383 . S
C7672 C7673 1.377 . S
C7673 H7657 0.930 . S
C7673 C7672 1.377 . S
C7673 C7674 1.379 . S
C7674 H7658 0.931 . S
C7674 C7668 1.383 . S
C7674 C7673 1.379 . S
H7675 C7669 0.959 . S
H7676 C7669 0.961 . S
H7677 C7669 0.960 . S
H7678 C7670 0.930 . S
H7679 C7671 0.929 . S
H7680 C7688 0.929 . S
H7681 C7690 0.930 . S
H7682 C7692 0.930 . S
H7683 C7695 0.929 . S
H7684 C7698 0.930 . S
H7685 C7700 0.960 . S
H7686 C7700 0.960 . S
H7687 C7700 0.960 . S
C7688 H7680 0.929 . S
C7688 C7689 1.377 . S
C7688 C7690 1.384 . S
C7689 C7688 1.377 . S
C7689 C7695 1.390 . S
C7690 H7681 0.930 . S
C7690 C7688 1.384 . S
C7690 C7691 1.372 . S
C7691 C7690 1.372 . S
C7691 C7692 1.400 . S
C7691 C7696 1.490 . S
C7692 H7682 0.930 . S
C7692 C7691 1.400 . S
C7692 C7695 1.386 . S
H7693 C7709 0.930 . S
H7694 C7710 0.931 . S
C7695 H7683 0.929 . S
C7695 C7689 1.390 . S
C7695 C7692 1.386 . S
C7696 C7691 1.490 . S
C7696 C7698 1.395 . S
C7696 C7699 1.403 . S
H7697 C7703 0.930 1_455 S
C7698 H7684 0.930 . S
C7698 C7696 1.395 . S
C7698 C7701 1.403 . S
C7699 C7696 1.403 . S
C7699 C7700 1.524 . S
C7699 C7703 1.400 . S
C7700 H7685 0.960 . S
C7700 H7686 0.960 . S
C7700 H7687 0.960 . S
C7700 C7699 1.524 . S
C7701 C7698 1.403 . S
C7701 C7702 1.392 1_655 S
C7701 C7705 1.513 . S
C7702 C7701 1.392 1_455 S
C7702 C7703 1.385 1_455 S
C7702 C7704 1.478 . S
C7703 H7697 0.930 1_655 S
C7703 C7699 1.400 . S
C7703 C7702 1.385 1_655 S
C7704 C7702 1.478 . S
C7704 C7706 1.381 . S
C7704 C7710 1.383 . S
C7705 C7701 1.513 . S
C7705 H7711 0.994 . S
C7705 H7712 0.935 1_655 S
C7705 H7713 0.935 1_655 S
C7706 C7704 1.381 . S
C7706 C7707 1.394 . S
C7706 H7714 0.930 . S
C7707 C7706 1.394 . S
C7707 C7708 1.383 . S
C7707 H7715 0.929 . S
C7708 C7707 1.383 . S
C7708 C7709 1.377 . S
C7709 H7693 0.930 . S
C7709 C7708 1.377 . S
C7709 C7710 1.379 . S
C7710 H7694 0.931 . S
C7710 C7704 1.383 . S
C7710 C7709 1.379 . S
H7711 C7705 0.994 . S
H7712 C7705 0.935 1_455 S
H7713 C7705 0.935 1_455 S
H7714 C7706 0.930 . S
H7715 C7707 0.929 . S
H7716 C7724 0.929 . S
H7717 C7726 0.930 . S
H7718 C7728 0.930 . S
H7719 C7731 0.929 . S
H7720 C7734 0.945 . S
H7721 C7736 0.889 1_565 S
H7722 C7736 1.023 . S
H7723 C7736 1.025 . S
C7724 H7716 0.929 . S
C7724 C7725 1.377 . S
C7724 C7726 1.384 . S
C7725 C7724 1.377 . S
C7725 C7731 1.390 . S
C7726 H7717 0.930 . S
C7726 C7724 1.384 . S
C7726 C7727 1.372 . S
C7727 C7726 1.372 . S
C7727 C7728 1.400 . S
C7727 C7732 1.490 . S
C7728 H7718 0.930 . S
C7728 C7727 1.400 . S
C7728 C7731 1.386 . S
H7729 C7745 0.930 . S
H7730 C7746 0.931 . S
C7731 H7719 0.929 . S
C7731 C7725 1.390 . S
C7731 C7728 1.386 . S
C7732 C7727 1.490 . S
C7732 C7734 1.395 1_545 S
C7732 C7735 1.403 1_545 S
H7733 C7739 0.930 . S
C7734 H7720 0.945 . S
C7734 C7732 1.395 1_565 S
C7734 C7737 1.403 . S
C7735 C7732 1.403 1_565 S
C7735 C7736 1.480 1_565 S
C7735 C7739 1.400 . S
C7736 H7721 0.889 1_545 S
C7736 H7722 1.023 . S
C7736 H7723 1.025 . S
C7736 C7735 1.480 1_545 S
C7737 C7734 1.403 . S
C7737 C7738 1.392 . S
C7737 C7741 1.495 . S
C7738 C7737 1.392 . S
C7738 C7739 1.385 . S
C7738 C7740 1.478 . S
C7739 H7733 0.930 . S
C7739 C7735 1.400 . S
C7739 C7738 1.385 . S
C7740 C7738 1.478 . S
C7740 C7742 1.381 . S
C7740 C7746 1.383 . S
C7741 C7737 1.495 . S
C7741 H7747 0.959 . S
C7741 H7748 0.961 . S
C7741 H7749 0.960 . S
C7742 C7740 1.381 . S
C7742 C7743 1.394 . S
C7742 H7750 0.930 . S
C7743 C7742 1.394 . S
C7743 C7744 1.383 . S
C7743 H7751 0.929 . S
C7744 C7743 1.383 . S
C7744 C7745 1.377 . S
C7745 H7729 0.930 . S
C7745 C7744 1.377 . S
C7745 C7746 1.379 . S
C7746 H7730 0.931 . S
C7746 C7740 1.383 . S
C7746 C7745 1.379 . S
H7747 C7741 0.959 . S
H7748 C7741 0.961 . S
H7749 C7741 0.960 . S
H7750 C7742 0.930 . S
H7751 C7743 0.929 . S
H7752 C7760 0.929 . S
H7753 C7762 0.930 . S
H7754 C7764 0.930 . S
H7755 C7767 0.929 . S
H7756 C7770 0.930 . S
H7757 C7772 0.960 . S
H7758 C7772 0.960 . S
H7759 C7772 0.960 . S
C7760 H7752 0.929 . S
C7760 C7761 1.377 . S
C7760 C7762 1.384 . S
C7761 C7760 1.377 . S
C7761 C7767 1.390 . S
C7762 H7753 0.930 . S
C7762 C7760 1.384 . S
C7762 C7763 1.372 . S
C7763 C7762 1.372 . S
C7763 C7764 1.400 . S
C7763 C7768 1.490 . S
C7764 H7754 0.930 . S
C7764 C7763 1.400 . S
C7764 C7767 1.386 . S
H7765 C7781 0.930 . S
H7766 C7782 0.931 . S
C7767 H7755 0.929 . S
C7767 C7761 1.390 . S
C7767 C7764 1.386 . S
C7768 C7763 1.490 . S
C7768 C7770 1.395 . S
C7768 C7771 1.403 . S
H7769 C7775 0.930 1_655 S
C7770 H7756 0.930 . S
C7770 C7768 1.395 . S
C7770 C7773 1.403 . S
C7771 C7768 1.403 . S
C7771 C7772 1.524 . S
C7771 C7775 1.400 . S
C7772 H7757 0.960 . S
C7772 H7758 0.960 . S
C7772 H7759 0.960 . S
C7772 C7771 1.524 . S
C7773 C7770 1.403 . S
C7773 C7774 1.392 1_455 S
C7773 C7777 1.537 . S
C7774 C7773 1.392 1_655 S
C7774 C7775 1.385 1_655 S
C7774 C7776 1.478 . S
C7775 H7769 0.930 1_455 S
C7775 C7771 1.400 . S
C7775 C7774 1.385 1_455 S
C7776 C7774 1.478 . S
C7776 C7778 1.381 . S
C7776 C7782 1.383 . S
C7777 C7773 1.537 . S
C7777 H7783 1.042 . S
C7777 H7784 0.908 1_455 S
C7777 H7785 0.903 1_455 S
C7778 C7776 1.381 . S
C7778 C7779 1.394 . S
C7778 H7786 0.930 . S
C7779 C7778 1.394 . S
C7779 C7780 1.383 . S
C7779 H7787 0.929 . S
C7780 C7779 1.383 . S
C7780 C7781 1.377 . S
C7781 H7765 0.930 . S
C7781 C7780 1.377 . S
C7781 C7782 1.379 . S
C7782 H7766 0.931 . S
C7782 C7776 1.383 . S
C7782 C7781 1.379 . S
H7783 C7777 1.042 . S
H7784 C7777 0.908 1_655 S
H7785 C7777 0.903 1_655 S
H7786 C7778 0.930 . S
H7787 C7779 0.929 . S
H7788 C7796 0.929 . S
H7789 C7798 0.930 . S
H7790 C7800 0.930 . S
H7791 C7803 0.929 . S
H7792 C7806 0.878 1_565 S
H7793 C7808 0.994 . S
H7794 C7808 0.935 1_565 S
H7795 C7808 0.936 1_565 S
C7796 H7788 0.929 . S
C7796 C7797 1.377 . S
C7796 C7798 1.384 . S
C7797 C7796 1.377 . S
C7797 C7803 1.390 . S
C7798 H7789 0.930 . S
C7798 C7796 1.384 . S
C7798 C7799 1.372 . S
C7799 C7798 1.372 . S
C7799 C7800 1.400 . S
C7799 C7804 1.490 . S
C7800 H7790 0.930 . S
C7800 C7799 1.400 . S
C7800 C7803 1.386 . S
H7801 C7817 0.930 . S
H7802 C7818 0.931 . S
C7803 H7791 0.929 . S
C7803 C7797 1.390 . S
C7803 C7800 1.386 . S
C7804 C7799 1.490 . S
C7804 C7806 1.395 1_565 S
C7804 C7807 1.403 1_565 S
H7805 C7811 0.930 . S
C7806 H7792 0.878 1_545 S
C7806 C7804 1.395 1_545 S
C7806 C7809 1.403 . S
C7807 C7804 1.403 1_545 S
C7807 C7808 1.541 . S
C7807 C7811 1.400 . S
C7808 H7793 0.994 . S
C7808 H7794 0.935 1_545 S
C7808 H7795 0.936 1_545 S
C7808 C7807 1.541 . S
C7809 C7806 1.403 . S
C7809 C7810 1.392 . S
C7809 C7813 1.495 . S
C7810 C7809 1.392 . S
C7810 C7811 1.385 . S
C7810 C7812 1.478 . S
C7811 H7805 0.930 . S
C7811 C7807 1.400 . S
C7811 C7810 1.385 . S
C7812 C7810 1.478 . S
C7812 C7814 1.381 . S
C7812 C7818 1.383 . S
C7813 C7809 1.495 . S
C7813 H7819 0.959 . S
C7813 H7820 0.961 . S
C7813 H7821 0.960 . S
C7814 C7812 1.381 . S
C7814 C7815 1.394 . S
C7814 H7822 0.930 . S
C7815 C7814 1.394 . S
C7815 C7816 1.383 . S
C7815 H7823 0.929 . S
C7816 C7815 1.383 . S
C7816 C7817 1.377 . S
C7817 H7801 0.930 . S
C7817 C7816 1.377 . S
C7817 C7818 1.379 . S
C7818 H7802 0.931 . S
C7818 C7812 1.383 . S
C7818 C7817 1.379 . S
H7819 C7813 0.959 . S
H7820 C7813 0.961 . S
H7821 C7813 0.960 . S
H7822 C7814 0.930 . S
H7823 C7815 0.929 . S
H7824 C7832 0.929 . S
H7825 C7834 0.930 . S
H7826 C7836 0.930 . S
H7827 C7839 0.929 . S
H7828 C7842 0.967 . S
H7829 C7844 0.960 1_655 S
H7830 C7844 0.960 . S
H7831 C7844 0.960 . S
C7832 H7824 0.929 . S
C7832 C7833 1.377 . S
C7832 C7834 1.384 . S
C7833 C7832 1.377 . S
C7833 C7839 1.390 . S
C7834 H7825 0.930 . S
C7834 C7832 1.384 . S
C7834 C7835 1.372 . S
C7835 C7834 1.372 . S
C7835 C7836 1.400 . S
C7835 C7840 1.490 . S
C7836 H7826 0.930 . S
C7836 C7835 1.400 . S
C7836 C7839 1.386 . S
H7837 C7853 0.930 . S
H7838 C7854 0.931 . S
C7839 H7827 0.929 . S
C7839 C7833 1.390 . S
C7839 C7836 1.386 . S
C7840 C7835 1.490 . S
C7840 C7842 1.395 1_455 S
C7840 C7843 1.403 1_455 S
H7841 C7847 0.930 . S
C7842 H7828 0.967 . S
C7842 C7840 1.395 1_655 S
C7842 C7845 1.403 . S
C7843 C7840 1.403 1_655 S
C7843 C7844 1.524 1_655 S
C7843 C7847 1.400 . S
C7844 H7829 0.960 1_455 S
C7844 H7830 0.960 . S
C7844 H7831 0.960 . S
C7844 C7843 1.524 1_455 S
C7845 C7842 1.403 . S
C7845 C7846 1.392 . S
C7845 C7849 1.495 . S
C7846 C7845 1.392 . S
C7846 C7847 1.385 . S
C7846 C7848 1.478 . S
C7847 H7841 0.930 . S
C7847 C7843 1.400 . S
C7847 C7846 1.385 . S
C7848 C7846 1.478 . S
C7848 C7850 1.381 . S
C7848 C7854 1.383 . S
C7849 C7845 1.495 . S
C7849 H7855 0.959 . S
C7849 H7856 0.961 . S
C7849 H7857 0.960 . S
C7850 C7848 1.381 . S
C7850 C7851 1.394 . S
C7850 H7858 0.930 . S
C7851 C7850 1.394 . S
C7851 C7852 1.383 . S
C7851 H7859 0.929 . S
C7852 C7851 1.383 . S
C7852 C7853 1.377 . S
C7853 H7837 0.930 . S
C7853 C7852 1.377 . S
C7853 C7854 1.379 . S
C7854 H7838 0.931 . S
C7854 C7848 1.383 . S
C7854 C7853 1.379 . S
H7855 C7849 0.959 . S
H7856 C7849 0.961 . S
H7857 C7849 0.960 . S
H7858 C7850 0.930 . S
H7859 C7851 0.929 . S
H7860 C7868 0.929 . S
H7861 C7870 0.930 . S
H7862 C7872 0.930 . S
H7863 C7875 0.929 . S
H7864 C7878 0.967 . S
H7865 C7880 0.960 1_565 S
H7866 C7880 0.960 . S
H7867 C7880 0.960 . S
C7868 H7860 0.929 . S
C7868 C7869 1.377 . S
C7868 C7870 1.384 . S
C7869 C7868 1.377 . S
C7869 C7875 1.390 . S
C7870 H7861 0.930 . S
C7870 C7868 1.384 . S
C7870 C7871 1.372 . S
C7871 C7870 1.372 . S
C7871 C7872 1.400 . S
C7871 C7876 1.490 . S
C7872 H7862 0.930 . S
C7872 C7871 1.400 . S
C7872 C7875 1.386 . S
H7873 C7889 0.930 . S
H7874 C7890 0.931 . S
C7875 H7863 0.929 . S
C7875 C7869 1.390 . S
C7875 C7872 1.386 . S
C7876 C7871 1.490 . S
C7876 C7878 1.395 1_545 S
C7876 C7879 1.403 1_545 S
H7877 C7883 0.930 . S
C7878 H7864 0.967 . S
C7878 C7876 1.395 1_565 S
C7878 C7881 1.403 . S
C7879 C7876 1.403 1_565 S
C7879 C7880 1.524 1_565 S
C7879 C7883 1.400 . S
C7880 H7865 0.960 1_545 S
C7880 H7866 0.960 . S
C7880 H7867 0.960 . S
C7880 C7879 1.524 1_545 S
C7881 C7878 1.403 . S
C7881 C7882 1.392 . S
C7881 C7885 1.495 . S
C7882 C7881 1.392 . S
C7882 C7883 1.385 . S
C7882 C7884 1.478 . S
C7883 H7877 0.930 . S
C7883 C7879 1.400 . S
C7883 C7882 1.385 . S
C7884 C7882 1.478 . S
C7884 C7886 1.381 . S
C7884 C7890 1.383 . S
C7885 C7881 1.495 . S
C7885 H7891 0.959 . S
C7885 H7892 0.961 . S
C7885 H7893 0.960 . S
C7886 C7884 1.381 . S
C7886 C7887 1.394 . S
C7886 H7894 0.930 . S
C7887 C7886 1.394 . S
C7887 C7888 1.383 . S
C7887 H7895 0.929 . S
C7888 C7887 1.383 . S
C7888 C7889 1.377 . S
C7889 H7873 0.930 . S
C7889 C7888 1.377 . S
C7889 C7890 1.379 . S
C7890 H7874 0.931 . S
C7890 C7884 1.383 . S
C7890 C7889 1.379 . S
H7891 C7885 0.959 . S
H7892 C7885 0.961 . S
H7893 C7885 0.960 . S
H7894 C7886 0.930 . S
H7895 C7887 0.929 . S
H7896 C7904 0.929 . S
H7897 C7906 0.930 . S
H7898 C7908 0.930 . S
H7899 C7911 0.929 . S
H7900 C7914 0.930 1_655 S
H7901 C7916 0.960 . S
H7902 C7916 0.960 1_655 S
H7903 C7916 0.960 1_655 S
C7904 H7896 0.929 . S
C7904 C7905 1.377 . S
C7904 C7906 1.384 . S
C7905 C7904 1.377 . S
C7905 C7911 1.390 . S
C7906 H7897 0.930 . S
C7906 C7904 1.384 . S
C7906 C7907 1.372 . S
C7907 C7906 1.372 . S
C7907 C7908 1.400 . S
C7907 C7912 1.490 . S
C7908 H7898 0.930 . S
C7908 C7907 1.400 . S
C7908 C7911 1.386 . S
H7909 C7925 0.930 . S
H7910 C7926 0.931 . S
C7911 H7899 0.929 . S
C7911 C7905 1.390 . S
C7911 C7908 1.386 . S
C7912 C7907 1.490 . S
C7912 C7914 1.395 1_655 S
C7912 C7915 1.403 1_655 S
H7913 C7919 0.930 . S
C7914 H7900 0.930 1_455 S
C7914 C7912 1.395 1_455 S
C7914 C7917 1.403 . S
C7915 C7912 1.403 1_455 S
C7915 C7916 1.524 . S
C7915 C7919 1.400 . S
C7916 H7901 0.960 . S
C7916 H7902 0.960 1_455 S
C7916 H7903 0.960 1_455 S
C7916 C7915 1.524 . S
C7917 C7914 1.403 . S
C7917 C7918 1.392 . S
C7917 C7921 1.495 . S
C7918 C7917 1.392 . S
C7918 C7919 1.385 . S
C7918 C7920 1.478 . S
C7919 H7913 0.930 . S
C7919 C7915 1.400 . S
C7919 C7918 1.385 . S
C7920 C7918 1.478 . S
C7920 C7922 1.381 . S
C7920 C7926 1.383 . S
C7921 C7917 1.495 . S
C7921 H7927 0.959 . S
C7921 H7928 0.961 . S
C7921 H7929 0.960 . S
C7922 C7920 1.381 . S
C7922 C7923 1.394 . S
C7922 H7930 0.930 . S
C7923 C7922 1.394 . S
C7923 C7924 1.383 . S
C7923 H7931 0.929 . S
C7924 C7923 1.383 . S
C7924 C7925 1.377 . S
C7925 H7909 0.930 . S
C7925 C7924 1.377 . S
C7925 C7926 1.379 . S
C7926 H7910 0.931 . S
C7926 C7920 1.383 . S
C7926 C7925 1.379 . S
H7927 C7921 0.959 . S
H7928 C7921 0.961 . S
H7929 C7921 0.960 . S
H7930 C7922 0.930 . S
H7931 C7923 0.929 . S
H7932 C7940 0.929 . S
H7933 C7942 0.930 . S
H7934 C7944 0.930 . S
H7935 C7947 0.929 . S
H7936 C7950 0.901 1_565 S
H7937 C7952 0.977 . S
H7938 C7952 0.950 1_565 S
H7939 C7952 0.946 1_565 S
C7940 H7932 0.929 . S
C7940 C7941 1.377 . S
C7940 C7942 1.384 . S
C7941 C7940 1.377 . S
C7941 C7947 1.390 . S
C7942 H7933 0.930 . S
C7942 C7940 1.384 . S
C7942 C7943 1.372 . S
C7943 C7942 1.372 . S
C7943 C7944 1.400 . S
C7943 C7948 1.490 . S
C7944 H7934 0.930 . S
C7944 C7943 1.400 . S
C7944 C7947 1.386 . S
H7945 C7961 0.930 . S
H7946 C7962 0.931 . S
C7947 H7935 0.929 . S
C7947 C7941 1.390 . S
C7947 C7944 1.386 . S
C7948 C7943 1.490 . S
C7948 C7950 1.395 1_565 S
C7948 C7951 1.403 1_565 S
H7949 C7955 0.930 . S
C7950 H7936 0.901 1_545 S
C7950 C7948 1.395 1_545 S
C7950 C7953 1.403 . S
C7951 C7948 1.403 1_545 S
C7951 C7952 1.532 . S
C7951 C7955 1.400 . S
C7952 H7937 0.977 . S
C7952 H7938 0.950 1_545 S
C7952 H7939 0.946 1_545 S
C7952 C7951 1.532 . S
C7953 C7950 1.403 . S
C7953 C7954 1.392 . S
C7953 C7957 1.495 . S
C7954 C7953 1.392 . S
C7954 C7955 1.385 . S
C7954 C7956 1.478 . S
C7955 H7949 0.930 . S
C7955 C7951 1.400 . S
C7955 C7954 1.385 . S
C7956 C7954 1.478 . S
C7956 C7958 1.381 . S
C7956 C7962 1.383 . S
C7957 C7953 1.495 . S
C7957 H7963 0.959 . S
C7957 H7964 0.961 . S
C7957 H7965 0.960 . S
C7958 C7956 1.381 . S
C7958 C7959 1.394 . S
C7958 H7966 0.930 . S
C7959 C7958 1.394 . S
C7959 C7960 1.383 . S
C7959 H7967 0.929 . S
C7960 C7959 1.383 . S
C7960 C7961 1.377 . S
C7961 H7945 0.930 . S
C7961 C7960 1.377 . S
C7961 C7962 1.379 . S
C7962 H7946 0.931 . S
C7962 C7956 1.383 . S
C7962 C7961 1.379 . S
H7963 C7957 0.959 . S
H7964 C7957 0.961 . S
H7965 C7957 0.960 . S
H7966 C7958 0.930 . S
H7967 C7959 0.929 . S
H7968 C7976 0.929 . S
H7969 C7978 0.930 . S
H7970 C7980 0.930 . S
H7971 C7983 0.929 . S
H7972 C7986 0.930 . S
H7973 C7988 0.960 . S
H7974 C7988 0.960 . S
H7975 C7988 0.960 . S
C7976 H7968 0.929 . S
C7976 C7977 1.377 . S
C7976 C7978 1.384 . S
C7977 C7976 1.377 . S
C7977 C7983 1.390 . S
C7978 H7969 0.930 . S
C7978 C7976 1.384 . S
C7978 C7979 1.372 . S
C7979 C7978 1.372 . S
C7979 C7980 1.400 . S
C7979 C7984 1.490 . S
C7980 H7970 0.930 . S
C7980 C7979 1.400 . S
C7980 C7983 1.386 . S
H7981 C7997 0.930 . S
H7982 C7998 0.931 . S
C7983 H7971 0.929 . S
C7983 C7977 1.390 . S
C7983 C7980 1.386 . S
C7984 C7979 1.490 . S
C7984 C7986 1.395 . S
C7984 C7987 1.403 . S
H7985 C7991 0.924 . S
C7986 H7972 0.930 . S
C7986 C7984 1.395 . S
C7986 C7989 1.403 . S
C7987 C7984 1.403 . S
C7987 C7988 1.524 . S
C7987 C7991 1.400 . S
C7988 H7973 0.960 . S
C7988 H7974 0.960 . S
C7988 H7975 0.960 . S
C7988 C7987 1.524 . S
C7989 C7986 1.403 . S
C7989 C7990 1.392 1_565 S
C7989 C7993 1.495 1_565 S
C7990 C7989 1.392 1_545 S
C7990 C7991 1.385 1_545 S
C7990 C7992 1.478 . S
C7991 H7985 0.924 . S
C7991 C7987 1.400 . S
C7991 C7990 1.385 1_565 S
C7992 C7990 1.478 . S
C7992 C7994 1.381 . S
C7992 C7998 1.383 . S
C7993 C7989 1.495 1_545 S
C7993 H7999 0.959 1_545 S
C7993 H8000 0.961 . S
C7993 H8001 0.960 . S
C7994 C7992 1.381 . S
C7994 C7995 1.394 . S
C7994 H8002 0.930 . S
C7995 C7994 1.394 . S
C7995 C7996 1.383 . S
C7995 H8003 0.929 . S
C7996 C7995 1.383 . S
C7996 C7997 1.377 . S
C7997 H7981 0.930 . S
C7997 C7996 1.377 . S
C7997 C7998 1.379 . S
C7998 H7982 0.931 . S
C7998 C7992 1.383 . S
C7998 C7997 1.379 . S
H7999 C7993 0.959 1_565 S
H8000 C7993 0.961 . S
H8001 C7993 0.960 . S
H8002 C7994 0.930 . S
H8003 C7995 0.929 . S
H8004 C8012 0.929 . S
H8005 C8014 0.930 . S
H8006 C8016 0.930 . S
H8007 C8019 0.929 . S
H8008 C8022 0.930 1_565 S
H8009 C8024 1.042 . S
H8010 C8024 0.914 1_565 S
H8011 C8024 0.898 1_565 S
C8012 H8004 0.929 . S
C8012 C8013 1.377 . S
C8012 C8014 1.384 . S
C8013 C8012 1.377 . S
C8013 C8019 1.390 . S
C8014 H8005 0.930 . S
C8014 C8012 1.384 . S
C8014 C8015 1.372 . S
C8015 C8014 1.372 . S
C8015 C8016 1.400 . S
C8015 C8020 1.490 . S
C8016 H8006 0.930 . S
C8016 C8015 1.400 . S
C8016 C8019 1.386 . S
H8017 C8033 0.930 . S
H8018 C8034 0.931 . S
C8019 H8007 0.929 . S
C8019 C8013 1.390 . S
C8019 C8016 1.386 . S
C8020 C8015 1.490 . S
C8020 C8022 1.395 1_565 S
C8020 C8023 1.403 1_565 S
H8021 C8027 0.930 . S
C8022 H8008 0.930 1_545 S
C8022 C8020 1.395 1_545 S
C8022 C8025 1.403 . S
C8023 C8020 1.403 1_545 S
C8023 C8024 1.564 . S
C8023 C8027 1.400 . S
C8024 H8009 1.042 . S
C8024 H8010 0.914 1_545 S
C8024 H8011 0.898 1_545 S
C8024 C8023 1.564 . S
C8025 C8022 1.403 . S
C8025 C8026 1.392 . S
C8025 C8029 1.495 . S
C8026 C8025 1.392 . S
C8026 C8027 1.385 . S
C8026 C8028 1.478 . S
C8027 H8021 0.930 . S
C8027 C8023 1.400 . S
C8027 C8026 1.385 . S
C8028 C8026 1.478 . S
C8028 C8030 1.381 . S
C8028 C8034 1.383 . S
C8029 C8025 1.495 . S
C8029 H8035 0.959 . S
C8029 H8036 0.961 . S
C8029 H8037 0.960 . S
C8030 C8028 1.381 . S
C8030 C8031 1.394 . S
C8030 H8038 0.930 . S
C8031 C8030 1.394 . S
C8031 C8032 1.383 . S
C8031 H8039 0.929 . S
C8032 C8031 1.383 . S
C8032 C8033 1.377 . S
C8033 H8017 0.930 . S
C8033 C8032 1.377 . S
C8033 C8034 1.379 . S
C8034 H8018 0.931 . S
C8034 C8028 1.383 . S
C8034 C8033 1.379 . S
H8035 C8029 0.959 . S
H8036 C8029 0.961 . S
H8037 C8029 0.960 . S
H8038 C8030 0.930 . S
H8039 C8031 0.929 . S
H8040 C8048 0.929 . S
H8041 C8050 0.930 . S
H8042 C8052 0.930 . S
H8043 C8055 0.929 . S
H8044 C8058 0.955 . S
H8045 C8060 0.960 1_655 S
H8046 C8060 0.960 . S
H8047 C8060 0.960 . S
C8048 H8040 0.929 . S
C8048 C8049 1.377 . S
C8048 C8050 1.384 . S
C8049 C8048 1.377 . S
C8049 C8055 1.390 . S
C8050 H8041 0.930 . S
C8050 C8048 1.384 . S
C8050 C8051 1.372 . S
C8051 C8050 1.372 . S
C8051 C8052 1.400 . S
C8051 C8056 1.490 . S
C8052 H8042 0.930 . S
C8052 C8051 1.400 . S
C8052 C8055 1.386 . S
H8053 C8069 0.930 . S
H8054 C8070 0.931 . S
C8055 H8043 0.929 . S
C8055 C8049 1.390 . S
C8055 C8052 1.386 . S
C8056 C8051 1.490 . S
C8056 C8058 1.395 1_455 S
C8056 C8059 1.403 1_455 S
H8057 C8063 0.930 . S
C8058 H8044 0.955 . S
C8058 C8056 1.395 1_655 S
C8058 C8061 1.403 . S
C8059 C8056 1.403 1_655 S
C8059 C8060 1.524 1_655 S
C8059 C8063 1.400 . S
C8060 H8045 0.960 1_455 S
C8060 H8046 0.960 . S
C8060 H8047 0.960 . S
C8060 C8059 1.524 1_455 S
C8061 C8058 1.403 . S
C8061 C8062 1.392 . S
C8061 C8065 1.495 . S
C8062 C8061 1.392 . S
C8062 C8063 1.385 . S
C8062 C8064 1.478 . S
C8063 H8057 0.930 . S
C8063 C8059 1.400 . S
C8063 C8062 1.385 . S
C8064 C8062 1.478 . S
C8064 C8066 1.381 . S
C8064 C8070 1.383 . S
C8065 C8061 1.495 . S
C8065 H8071 0.959 . S
C8065 H8072 0.961 . S
C8065 H8073 0.960 . S
C8066 C8064 1.381 . S
C8066 C8067 1.394 . S
C8066 H8074 0.930 . S
C8067 C8066 1.394 . S
C8067 C8068 1.383 . S
C8067 H8075 0.929 . S
C8068 C8067 1.383 . S
C8068 C8069 1.377 . S
C8069 H8053 0.930 . S
C8069 C8068 1.377 . S
C8069 C8070 1.379 . S
C8070 H8054 0.931 . S
C8070 C8064 1.383 . S
C8070 C8069 1.379 . S
H8071 C8065 0.959 . S
H8072 C8065 0.961 . S
H8073 C8065 0.960 . S
H8074 C8066 0.930 . S
H8075 C8067 0.929 . S
H8076 C8084 0.929 . S
H8077 C8086 0.930 . S
H8078 C8088 0.930 . S
H8079 C8091 0.929 . S
H8080 C8094 0.869 1_545 S
H8081 C8096 1.011 . S
H8082 C8096 0.924 1_545 S
H8083 C8096 0.925 1_545 S
C8084 H8076 0.929 . S
C8084 C8085 1.377 . S
C8084 C8086 1.384 . S
C8085 C8084 1.377 . S
C8085 C8091 1.390 . S
C8086 H8077 0.930 . S
C8086 C8084 1.384 . S
C8086 C8087 1.372 . S
C8087 C8086 1.372 . S
C8087 C8088 1.400 . S
C8087 C8092 1.490 . S
C8088 H8078 0.930 . S
C8088 C8087 1.400 . S
C8088 C8091 1.386 . S
H8089 C8105 0.930 . S
H8090 C8106 0.931 . S
C8091 H8079 0.929 . S
C8091 C8085 1.390 . S
C8091 C8088 1.386 . S
C8092 C8087 1.490 . S
C8092 C8094 1.395 1_545 S
C8092 C8095 1.403 1_545 S
H8093 C8099 0.930 . S
C8094 H8080 0.869 1_565 S
C8094 C8092 1.395 1_565 S
C8094 C8097 1.403 . S
C8095 C8092 1.403 1_565 S
C8095 C8096 1.549 . S
C8095 C8099 1.400 . S
C8096 H8081 1.011 . S
C8096 H8082 0.924 1_565 S
C8096 H8083 0.925 1_565 S
C8096 C8095 1.549 . S
C8097 C8094 1.403 . S
C8097 C8098 1.392 . S
C8097 C8101 1.495 . S
C8098 C8097 1.392 . S
C8098 C8099 1.385 . S
C8098 C8100 1.478 . S
C8099 H8093 0.930 . S
C8099 C8095 1.400 . S
C8099 C8098 1.385 . S
C8100 C8098 1.478 . S
C8100 C8102 1.381 . S
C8100 C8106 1.383 . S
C8101 C8097 1.495 . S
C8101 H8107 0.959 . S
C8101 H8108 0.961 . S
C8101 H8109 0.960 . S
C8102 C8100 1.381 . S
C8102 C8103 1.394 . S
C8102 H8110 0.930 . S
C8103 C8102 1.394 . S
C8103 C8104 1.383 . S
C8103 H8111 0.929 . S
C8104 C8103 1.383 . S
C8104 C8105 1.377 . S
C8105 H8089 0.930 . S
C8105 C8104 1.377 . S
C8105 C8106 1.379 . S
C8106 H8090 0.931 . S
C8106 C8100 1.383 . S
C8106 C8105 1.379 . S
H8107 C8101 0.959 . S
H8108 C8101 0.961 . S
H8109 C8101 0.960 . S
H8110 C8102 0.930 . S
H8111 C8103 0.929 . S
H8112 C8120 0.929 . S
H8113 C8122 0.930 . S
H8114 C8124 0.930 . S
H8115 C8127 0.929 . S
H8116 C8130 0.968 . S
H8117 C8132 0.960 1_455 S
H8118 C8132 0.960 . S
H8119 C8132 0.960 . S
C8120 H8112 0.929 . S
C8120 C8121 1.377 . S
C8120 C8122 1.384 . S
C8121 C8120 1.377 . S
C8121 C8127 1.390 . S
C8122 H8113 0.930 . S
C8122 C8120 1.384 . S
C8122 C8123 1.372 . S
C8123 C8122 1.372 . S
C8123 C8124 1.400 . S
C8123 C8128 1.490 . S
C8124 H8114 0.930 . S
C8124 C8123 1.400 . S
C8124 C8127 1.386 . S
H8125 C8141 0.930 . S
H8126 C8142 0.931 . S
C8127 H8115 0.929 . S
C8127 C8121 1.390 . S
C8127 C8124 1.386 . S
C8128 C8123 1.490 . S
C8128 C8130 1.395 1_655 S
C8128 C8131 1.403 1_655 S
H8129 C8135 0.930 . S
C8130 H8116 0.968 . S
C8130 C8128 1.395 1_455 S
C8130 C8133 1.403 . S
C8131 C8128 1.403 1_455 S
C8131 C8132 1.524 1_455 S
C8131 C8135 1.400 . S
C8132 H8117 0.960 1_655 S
C8132 H8118 0.960 . S
C8132 H8119 0.960 . S
C8132 C8131 1.524 1_655 S
C8133 C8130 1.403 . S
C8133 C8134 1.392 . S
C8133 C8137 1.495 . S
C8134 C8133 1.392 . S
C8134 C8135 1.385 . S
C8134 C8136 1.478 . S
C8135 H8129 0.930 . S
C8135 C8131 1.400 . S
C8135 C8134 1.385 . S
C8136 C8134 1.478 . S
C8136 C8138 1.381 . S
C8136 C8142 1.383 . S
C8137 C8133 1.495 . S
C8137 H8143 0.959 . S
C8137 H8144 0.961 . S
C8137 H8145 0.960 . S
C8138 C8136 1.381 . S
C8138 C8139 1.394 . S
C8138 H8146 0.930 . S
C8139 C8138 1.394 . S
C8139 C8140 1.383 . S
C8139 H8147 0.929 . S
C8140 C8139 1.383 . S
C8140 C8141 1.377 . S
C8141 H8125 0.930 . S
C8141 C8140 1.377 . S
C8141 C8142 1.379 . S
C8142 H8126 0.931 . S
C8142 C8136 1.383 . S
C8142 C8141 1.379 . S
H8143 C8137 0.959 . S
H8144 C8137 0.961 . S
H8145 C8137 0.960 . S
H8146 C8138 0.930 . S
H8147 C8139 0.929 . S
H8148 C8156 0.929 . S
H8149 C8158 0.930 . S
H8150 C8160 0.930 . S
H8151 C8163 0.929 . S
H8152 C8166 0.930 . S
H8153 C8168 0.960 . S
H8154 C8168 0.960 . S
H8155 C8168 0.960 . S
C8156 H8148 0.929 . S
C8156 C8157 1.377 . S
C8156 C8158 1.384 . S
C8157 C8156 1.377 . S
C8157 C8163 1.390 . S
C8158 H8149 0.930 . S
C8158 C8156 1.384 . S
C8158 C8159 1.372 . S
C8159 C8158 1.372 . S
C8159 C8160 1.400 . S
C8159 C8164 1.490 . S
C8160 H8150 0.930 . S
C8160 C8159 1.400 . S
C8160 C8163 1.386 . S
H8161 C8177 0.930 . S
H8162 C8178 0.931 . S
C8163 H8151 0.929 . S
C8163 C8157 1.390 . S
C8163 C8160 1.386 . S
C8164 C8159 1.490 . S
C8164 C8166 1.395 . S
C8164 C8167 1.403 . S
H8165 C8171 0.924 . S
C8166 H8152 0.930 . S
C8166 C8164 1.395 . S
C8166 C8169 1.403 . S
C8167 C8164 1.403 . S
C8167 C8168 1.524 . S
C8167 C8171 1.400 . S
C8168 H8153 0.960 . S
C8168 H8154 0.960 . S
C8168 H8155 0.960 . S
C8168 C8167 1.524 . S
C8169 C8166 1.403 . S
C8169 C8170 1.392 1_545 S
C8169 C8173 1.495 1_545 S
C8170 C8169 1.392 1_565 S
C8170 C8171 1.385 1_565 S
C8170 C8172 1.478 . S
C8171 H8165 0.924 . S
C8171 C8167 1.400 . S
C8171 C8170 1.385 1_545 S
C8172 C8170 1.478 . S
C8172 C8174 1.381 . S
C8172 C8178 1.383 . S
C8173 C8169 1.495 1_565 S
C8173 H8179 0.959 1_565 S
C8173 H8180 0.961 . S
C8173 H8181 0.960 . S
C8174 C8172 1.381 . S
C8174 C8175 1.394 . S
C8174 H8182 0.930 . S
C8175 C8174 1.394 . S
C8175 C8176 1.383 . S
C8175 H8183 0.929 . S
C8176 C8175 1.383 . S
C8176 C8177 1.377 . S
C8177 H8161 0.930 . S
C8177 C8176 1.377 . S
C8177 C8178 1.379 . S
C8178 H8162 0.931 . S
C8178 C8172 1.383 . S
C8178 C8177 1.379 . S
H8179 C8173 0.959 1_545 S
H8180 C8173 0.961 . S
H8181 C8173 0.960 . S
H8182 C8174 0.930 . S
H8183 C8175 0.929 . S
H8184 C8192 0.929 . S
H8185 C8194 0.930 . S
H8186 C8196 0.930 . S
H8187 C8199 0.929 . S
H8188 C8202 0.930 . S
H8189 C8204 0.960 . S
H8190 C8204 0.960 . S
H8191 C8204 0.960 . S
C8192 H8184 0.929 . S
C8192 C8193 1.377 . S
C8192 C8194 1.384 . S
C8193 C8192 1.377 . S
C8193 C8199 1.390 . S
C8194 H8185 0.930 . S
C8194 C8192 1.384 . S
C8194 C8195 1.372 . S
C8195 C8194 1.372 . S
C8195 C8196 1.400 . S
C8195 C8200 1.490 . S
C8196 H8186 0.930 . S
C8196 C8195 1.400 . S
C8196 C8199 1.386 . S
H8197 C8213 0.930 . S
H8198 C8214 0.931 . S
C8199 H8187 0.929 . S
C8199 C8193 1.390 . S
C8199 C8196 1.386 . S
C8200 C8195 1.490 . S
C8200 C8202 1.395 . S
C8200 C8203 1.403 . S
H8201 C8207 0.906 1_455 S
C8202 H8188 0.930 . S
C8202 C8200 1.395 . S
C8202 C8205 1.403 . S
C8203 C8200 1.403 . S
C8203 C8204 1.524 . S
C8203 C8207 1.400 . S
C8204 H8189 0.960 . S
C8204 H8190 0.960 . S
C8204 H8191 0.960 . S
C8204 C8203 1.524 . S
C8205 C8202 1.403 . S
C8205 C8206 1.392 1_655 S
C8205 C8209 1.466 1_655 S
C8206 C8205 1.392 1_455 S
C8206 C8207 1.385 1_455 S
C8206 C8208 1.478 . S
C8207 H8201 0.906 1_655 S
C8207 C8203 1.400 . S
C8207 C8206 1.385 1_655 S
C8208 C8206 1.478 . S
C8208 C8210 1.381 . S
C8208 C8214 1.383 . S
C8209 C8205 1.466 1_455 S
C8209 H8215 0.909 1_455 S
C8209 H8216 1.006 . S
C8209 H8217 1.000 . S
C8210 C8208 1.381 . S
C8210 C8211 1.394 . S
C8210 H8218 0.930 . S
C8211 C8210 1.394 . S
C8211 C8212 1.383 . S
C8211 H8219 0.929 . S
C8212 C8211 1.383 . S
C8212 C8213 1.377 . S
C8213 H8197 0.930 . S
C8213 C8212 1.377 . S
C8213 C8214 1.379 . S
C8214 H8198 0.931 . S
C8214 C8208 1.383 . S
C8214 C8213 1.379 . S
H8215 C8209 0.909 1_655 S
H8216 C8209 1.006 . S
H8217 C8209 1.000 . S
H8218 C8210 0.930 . S
H8219 C8211 0.929 . S
H8220 C8228 0.929 . S
H8221 C8230 0.930 . S
H8222 C8232 0.930 . S
H8223 C8235 0.929 . S
H8224 C8238 0.931 . S
H8225 C8240 0.926 1_455 S
H8226 C8240 0.984 . S
H8227 C8240 0.993 . S
C8228 H8220 0.929 . S
C8228 C8229 1.377 . S
C8228 C8230 1.384 . S
C8229 C8228 1.377 . S
C8229 C8235 1.390 . S
C8230 H8221 0.930 . S
C8230 C8228 1.384 . S
C8230 C8231 1.372 . S
C8231 C8230 1.372 . S
C8231 C8232 1.400 . S
C8231 C8236 1.490 . S
C8232 H8222 0.930 . S
C8232 C8231 1.400 . S
C8232 C8235 1.386 . S
H8233 C8249 0.930 . S
H8234 C8250 0.931 . S
C8235 H8223 0.929 . S
C8235 C8229 1.390 . S
C8235 C8232 1.386 . S
C8236 C8231 1.490 . S
C8236 C8238 1.395 1_655 S
C8236 C8239 1.403 1_655 S
H8237 C8243 0.930 . S
C8238 H8224 0.931 . S
C8238 C8236 1.395 1_455 S
C8238 C8241 1.403 . S
C8239 C8236 1.403 1_455 S
C8239 C8240 1.504 1_455 S
C8239 C8243 1.400 . S
C8240 H8225 0.926 1_655 S
C8240 H8226 0.984 . S
C8240 H8227 0.993 . S
C8240 C8239 1.504 1_655 S
C8241 C8238 1.403 . S
C8241 C8242 1.392 . S
C8241 C8245 1.495 . S
C8242 C8241 1.392 . S
C8242 C8243 1.385 . S
C8242 C8244 1.478 . S
C8243 H8237 0.930 . S
C8243 C8239 1.400 . S
C8243 C8242 1.385 . S
C8244 C8242 1.478 . S
C8244 C8246 1.381 . S
C8244 C8250 1.383 . S
C8245 C8241 1.495 . S
C8245 H8251 0.959 . S
C8245 H8252 0.961 . S
C8245 H8253 0.960 . S
C8246 C8244 1.381 . S
C8246 C8247 1.394 . S
C8246 H8254 0.930 . S
C8247 C8246 1.394 . S
C8247 C8248 1.383 . S
C8247 H8255 0.929 . S
C8248 C8247 1.383 . S
C8248 C8249 1.377 . S
C8249 H8233 0.930 . S
C8249 C8248 1.377 . S
C8249 C8250 1.379 . S
C8250 H8234 0.931 . S
C8250 C8244 1.383 . S
C8250 C8249 1.379 . S
H8251 C8245 0.959 . S
H8252 C8245 0.961 . S
H8253 C8245 0.960 . S
H8254 C8246 0.930 . S
H8255 C8247 0.929 . S
C1353 C8 1.104 . S
C1372 C442 1.143 . S
C1389 C22 1.107 . S
C1408 C400 1.121 . S
C1425 C414 1.133 . S
C1444 C36 1.082 . S
C1461 C428 1.128 . S
C1480 C50 1.106 . S
C1497 C358 1.132 . S
C1516 C64 1.112 . S
C1533 C372 1.129 . S
C1552 C78 1.138 . S
C1569 C92 1.107 . S
C1588 C386 1.143 . S
C1605 C344 1.130 . S
C1624 C106 1.086 . S
C1641 C120 1.115 . S
C1660 C624 1.112 . S
C1677 C134 1.107 . S
C1696 C582 1.143 . S
C1713 C148 1.116 . S
C1732 C596 1.122 . S
C1749 C162 1.104 . S
C1768 C610 1.134 . S
C1785 C176 1.116 . S
C1804 C666 1.114 . S
C1821 C190 1.110 . S
C1840 C638 1.141 . S
C1857 C204 1.116 . S
C1876 C652 1.116 . S
C1893 C568 1.133 . S
C1912 C218 1.079 . S
C1929 C232 1.116 . S
C1948 C554 1.114 . S
C1965 C470 1.129 . S
C1984 C246 1.094 . S
C2001 C484 1.131 . S
C2020 C260 1.082 . S
C2037 C274 1.113 . S
C2056 C498 1.112 . S
C2073 C456 1.127 . S
C2092 C288 1.134 . S
C2109 C526 1.133 . S
C2128 C302 1.085 . S
C2145 C316 1.108 . S
C2164 C540 1.143 . S
C2181 C330 1.109 . S
C2200 C512 1.142 . S
C2217 C1114 1.130 . S
C2236 C680 1.131 . S
C2253 C1072 1.132 . S
C2272 C694 1.117 . S
C2289 C708 1.112 . S
C2308 C1086 1.113 . S
C2325 C1100 1.127 . S
C2344 C722 1.131 . S
C2361 C736 1.112 . S
C2380 C1030 1.137 . S
C2397 C750 1.110 . S
C2416 C1044 1.116 . S
C2433 C1058 1.132 . S
C2452 C764 1.111 . S
C2469 C1016 1.131 . S
C2488 C778 1.125 . S
C2505 C1296 1.127 . S
C2524 C792 1.135 . S
C2541 C1254 1.131 . S
C2560 C806 1.078 . S
C2577 C820 1.116 . S
C2596 C1268 1.120 . S
C2613 C834 1.105 . S
C2632 C1282 1.144 . S
C2649 C1338 1.132 . S
C2668 C848 1.120 . S
C2685 C1310 1.130 . S
C2704 C862 1.085 . S
C2721 C1324 1.130 . S
C2740 C876 1.132 . S
C2757 C890 1.105 . S
C2776 C1240 1.144 . S
C2793 C1226 1.131 . S
C2812 C904 1.081 . S
C2829 C918 1.113 . S
C2848 C1142 1.112 . S
C2865 C1156 1.133 . S
C2884 C932 1.106 . S
C2901 C1170 1.129 . S
C2920 C946 1.134 . S
C2937 C1128 1.131 . S
C2956 C960 1.082 . S
C2973 C974 1.105 . S
C2992 C1198 1.144 . S
C3009 C988 1.110 . S
C3028 C1212 1.140 . S
C3045 C1184 1.131 . S
C3064 C1002 1.126 . S
C3081 C3 1.850 . S
C3100 C955 1.869 . S
C3117 C17 1.858 . S
C3136 C913 1.838 . S
C3153 C31 1.852 . S
C3172 C927 1.857 . S
C3189 C45 1.857 . S
C3208 C941 1.835 . S
C3225 C997 1.857 . S
C3244 C59 1.841 . S
C3261 C73 1.858 . S
C3280 C969 1.837 . S
C3297 C983 1.857 . S
C3316 C87 1.843 . S
C3333 C101 1.851 . S
C3352 C899 1.870 . S
C3369 C885 1.857 . S
C3388 C115 1.844 . S
C3405 C129 1.857 . S
C3424 C843 1.843 . S
C3441 C857 1.854 . S
C3460 C143 1.856 . S
C3477 C157 1.851 . S
C3496 C871 1.864 . S
C3513 C171 1.859 . S
C3532 C801 1.832 . S
C3549 C185 1.858 . S
C3568 C815 1.838 . S
C3585 C829 1.851 . S
C3604 C199 1.870 . S
C3621 C787 1.853 . S
C3640 C213 1.853 . S
C3657 C227 1.851 . S
C3676 C773 1.864 . S
C3693 C241 1.857 . S
C3712 C689 1.834 . S
C3729 C255 1.850 . S
C3748 C703 1.870 . S
C3765 C269 1.857 . S
C3784 C717 1.835 . S
C3801 C283 1.855 . S
C3820 C675 1.855 . S
C3837 C745 1.858 . S
C3856 C297 1.832 . S
C3873 C759 1.858 . S
C3892 C311 1.838 . S
C3909 C325 1.856 . S
C3928 C731 1.840 . S
C3945 C345 0.994 . S
C3964 C1297 0.985 . S
C3981 C359 0.995 . S
C4000 C1255 1.021 . S
C4017 C373 1.001 . S
C4036 C1269 0.965 . S
C4053 C387 0.990 . S
C4072 C1283 1.012 . S
C4089 C401 1.002 . S
C4108 C1339 0.978 . S
C4125 C1311 1.002 . S
C4144 C415 0.971 . S
C4161 C429 0.993 . S
C4180 C1325 1.024 . S
C4197 C443 1.002 . S
C4216 C1241 0.977 . S
C4233 C1227 1.001 . S
C4252 C457 0.965 . S
C4269 C1185 1.000 . S
C4288 C471 0.965 . S
C4305 C1199 1.002 . S
C4324 C485 0.982 . S
C4341 C1213 0.992 . S
C4360 C499 1.024 . S
C4377 C513 0.996 . S
C4396 C1143 1.016 . S
C4413 C527 0.991 . S
C4432 C1157 1.022 . S
C4449 C541 0.991 . S
C4468 C1171 1.024 . S
C4485 C1129 1.000 . S
C4504 C555 0.965 . S
C4521 C1115 1.002 . S
C4540 C569 0.977 . S
C4557 C583 1.001 . S
C4576 C1031 0.994 . S
C4593 C1045 0.995 . S
C4612 C597 0.979 . S
C4629 C1059 0.990 . S
C4648 C611 1.021 . S
C4665 C625 0.995 . S
C4684 C1017 1.020 . S
C4701 C639 1.000 . S
C4720 C1087 0.965 . S
C4737 C1101 0.990 . S
C4756 C653 1.013 . S
C4773 C667 0.991 . S
C4792 C1073 1.022 . S
C4809 C9 1.466 . S
C4828 C395 1.493 . S
C4845 C23 1.476 . S
C4864 C409 1.496 . S
C4881 C37 1.474 . S
C4900 C423 1.484 . S
C4917 C51 1.469 . S
C4936 C437 1.484 . S
C4953 C339 1.502 . S
C4972 C65 1.480 . S
C4989 C79 1.474 . S
C5008 C353 1.504 . S
C5025 C367 1.498 . S
C5044 C93 1.455 . S
C5061 C381 1.500 . S
C5080 C107 1.492 . S
C5097 C121 1.467 . S
C5116 C535 1.490 . S
C5133 C549 1.500 . S
C5152 C135 1.444 . S
C5169 C149 1.470 . S
C5188 C507 1.512 . S
C5205 C163 1.475 . S
C5224 C521 1.488 . S
C5241 C177 1.476 . S
C5260 C479 1.491 . S
C5277 C191 1.467 . S
C5296 C493 1.489 . S
C5313 C205 1.468 . S
C5332 C451 1.512 . S
C5349 C465 1.497 . S
C5368 C219 1.484 . S
C5385 C233 1.476 . S
C5404 C633 1.491 . S
C5421 C247 1.475 . S
C5440 C605 1.502 . S
C5457 C619 1.498 . S
C5476 C261 1.453 . S
C5493 C275 1.475 . S
C5512 C577 1.503 . S
C5529 C591 1.497 . S
C5548 C289 1.487 . S
C5565 C303 1.467 . S
C5584 C563 1.511 . S
C5601 C661 1.497 . S
C5620 C317 1.470 . S
C5637 C647 1.503 . S
C5656 C331 1.452 . S
C5673 C681 1.465 . S
C5692 C1067 1.505 . S
C5709 C695 1.475 . S
C5728 C1081 1.500 . S
C5745 C709 1.472 . S
C5764 C1095 1.481 . S
C5781 C1109 1.501 . S
C5800 C723 1.443 . S
C5817 C737 1.476 . S
C5836 C1011 1.490 . S
C5853 C751 1.471 . S
C5872 C1025 1.481 . S
C5889 C765 1.470 . S
C5908 C1039 1.482 . S
C5925 C779 1.476 . S
C5944 C1053 1.492 . S
C5961 C793 1.476 . S
C5980 C1207 1.491 . S
C5997 C1221 1.503 . S
C6016 C807 1.466 . S
C6033 C1179 1.500 . S
C6052 C821 1.444 . S
C6069 C1193 1.497 . S
C6088 C835 1.470 . S
C6105 C849 1.476 . S
C6124 C1151 1.490 . S
C6141 C1165 1.498 . S
C6160 C863 1.451 . S
C6177 C877 1.473 . S
C6196 C1123 1.482 . S
C6213 C1137 1.502 . S
C6232 C891 1.445 . S
C6249 C1305 1.499 . S
C6268 C905 1.448 . S
C6285 C1277 1.499 . S
C6304 C919 1.450 . S
C6321 C933 1.475 . S
C6340 C1291 1.498 . S
C6357 C947 1.476 . S
C6376 C1249 1.493 . S
C6393 C1263 1.503 . S
C6412 C961 1.455 . S
C6429 C975 1.475 . S
C6448 C1235 1.487 . S
C6465 C1333 1.503 . S
C6484 C989 1.446 . S
C6501 C1319 1.497 . S
C6520 C1003 1.474 . S
C6537 C371 1.358 . S
C6556 C7 1.327 . S
C6573 C21 1.356 . S
C6592 C385 1.329 . S
C6609 C343 1.367 . S
C6628 C35 1.385 . S
C6645 C49 1.357 . S
C6664 C357 1.329 . S
C6681 C427 1.364 . S
C6700 C63 1.388 . S
C6717 C441 1.367 . S
C6736 C77 1.384 . S
C6753 C91 1.361 . S
C6772 C399 1.335 . S
C6789 C413 1.365 . S
C6808 C105 1.387 . S
C6825 C119 1.366 . S
C6844 C511 1.379 . S
C6861 C133 1.356 . S
C6880 C525 1.329 . S
C6897 C539 1.367 . S
C6916 C147 1.343 . S
C6933 C161 1.364 . S
C6952 C553 1.387 . S
C6969 C175 1.366 . S
C6988 C455 1.363 . S
C7005 C469 1.360 . S
C7024 C189 1.378 . S
C7041 C483 1.368 . S
C7060 C203 1.379 . S
C7077 C497 1.359 . S
C7096 C217 1.326 . S
C7113 C231 1.354 . S
C7132 C609 1.370 . S
C7149 C637 1.364 . S
C7168 C245 1.331 . S
C7185 C259 1.353 . S
C7204 C651 1.357 . S
C7221 C567 1.365 . S
C7240 C273 1.388 . S
C7257 C665 1.359 . S
C7276 C287 1.325 . S
C7293 C581 1.366 . S
C7312 C301 1.342 . S
C7329 C315 1.353 . S
C7348 C595 1.352 . S
C7365 C329 1.355 . S
C7384 C623 1.374 . S
C7401 C679 1.358 . S
C7420 C1043 1.386 . S
C7437 C1057 1.357 . S
C7456 C693 1.329 . S
C7473 C1015 1.359 . S
C7492 C707 1.326 . S
C7509 C1029 1.356 . S
C7528 C721 1.343 . S
C7545 C735 1.353 . S
C7564 C1099 1.346 . S
C7581 C1113 1.368 . S
C7600 C749 1.374 . S
C7617 C763 1.354 . S
C7636 C1071 1.366 . S
C7653 C1085 1.368 . S
C7672 C777 1.362 . S
C7689 C791 1.361 . S
C7708 C1183 1.335 . S
C7725 C1197 1.360 . S
C7744 C805 1.325 . S
C7761 C819 1.365 . S
C7780 C1211 1.354 . S
C7797 C1225 1.367 . S
C7816 C833 1.345 . S
C7833 C1127 1.357 . S
C7852 C847 1.333 . S
C7869 C1141 1.356 . S
C7888 C861 1.341 . S
C7905 C1155 1.367 . S
C7924 C875 1.384 . S
C7941 C1169 1.361 . S
C7960 C889 1.383 . S
C7977 C903 1.353 . S
C7996 C1281 1.340 . S
C8013 C1309 1.365 . S
C8032 C917 1.388 . S
C8049 C1323 1.358 . S
C8068 C931 1.326 . S
C8085 C1239 1.368 . S
C8104 C945 1.350 . S
C8121 C1337 1.356 . S
C8140 C959 1.335 . S
C8157 C973 1.356 . S
C8176 C1253 1.380 . S
C8193 C987 1.355 . S
C8212 C1267 1.330 . S
C8229 C1295 1.358 . S
C8248 C1001 1.369 . S
