# Generated by pormake.
# Topology whe, (6)-cn, num edge types: 1
# Building blocks:
#     Node 0, Type 0, BuildingBlock: IZENUY_clean_sbu_0, # of connection points: 6
#     Node 1, Type 0, BuildingBlock: IZENUY_clean_sbu_0, # of connection points: 6
#     Node 2, Type 0, BuildingBlock: IZENUY_clean_sbu_0, # of connection points: 6
#     Node 3, Type 0, BuildingBlock: IZENUY_clean_sbu_0, # of connection points: 6
#     Node 4, Type 0, BuildingBlock: IZENUY_clean_sbu_0, # of connection points: 6
#     Node 5, Type 0, BuildingBlock: IZENUY_clean_sbu_0, # of connection points: 6
#     Node 6, Type 0, BuildingBlock: IZENUY_clean_sbu_0, # of connection points: 6
#     Node 7, Type 0, BuildingBlock: IZENUY_clean_sbu_0, # of connection points: 6
#     Node 8, Type 0, BuildingBlock: IZENUY_clean_sbu_0, # of connection points: 6
#     Node 9, Type 0, BuildingBlock: IZENUY_clean_sbu_0, # of connection points: 6
#     Node 10, Type 0, BuildingBlock: IZENUY_clean_sbu_0, # of connection points: 6
#     Node 11, Type 0, BuildingBlock: IZENUY_clean_sbu_0, # of connection points: 6
#     Node 12, Type 0, BuildingBlock: IZENUY_clean_sbu_0, # of connection points: 6
#     Node 13, Type 0, BuildingBlock: IZENUY_clean_sbu_0, # of connection points: 6
#     Node 14, Type 0, BuildingBlock: IZENUY_clean_sbu_0, # of connection points: 6
#     Node 15, Type 0, BuildingBlock: IZENUY_clean_sbu_0, # of connection points: 6
#     Edge 16, Type (0, 0), BuildingBlock: OJICUG_clean_linker_0, # of connection points: 2
#     Edge 17, Type (0, 0), BuildingBlock: OJICUG_clean_linker_0, # of connection points: 2
#     Edge 18, Type (0, 0), BuildingBlock: OJICUG_clean_linker_0, # of connection points: 2
#     Edge 19, Type (0, 0), BuildingBlock: OJICUG_clean_linker_0, # of connection points: 2
#     Edge 20, Type (0, 0), BuildingBlock: OJICUG_clean_linker_0, # of connection points: 2
#     Edge 21, Type (0, 0), BuildingBlock: OJICUG_clean_linker_0, # of connection points: 2
#     Edge 22, Type (0, 0), BuildingBlock: OJICUG_clean_linker_0, # of connection points: 2
#     Edge 23, Type (0, 0), BuildingBlock: OJICUG_clean_linker_0, # of connection points: 2
#     Edge 24, Type (0, 0), BuildingBlock: OJICUG_clean_linker_0, # of connection points: 2
#     Edge 25, Type (0, 0), BuildingBlock: OJICUG_clean_linker_0, # of connection points: 2
#     Edge 26, Type (0, 0), BuildingBlock: OJICUG_clean_linker_0, # of connection points: 2
#     Edge 27, Type (0, 0), BuildingBlock: OJICUG_clean_linker_0, # of connection points: 2
#     Edge 28, Type (0, 0), BuildingBlock: OJICUG_clean_linker_0, # of connection points: 2
#     Edge 29, Type (0, 0), BuildingBlock: OJICUG_clean_linker_0, # of connection points: 2
#     Edge 30, Type (0, 0), BuildingBlock: OJICUG_clean_linker_0, # of connection points: 2
#     Edge 31, Type (0, 0), BuildingBlock: OJICUG_clean_linker_0, # of connection points: 2
#     Edge 32, Type (0, 0), BuildingBlock: OJICUG_clean_linker_0, # of connection points: 2
#     Edge 33, Type (0, 0), BuildingBlock: OJICUG_clean_linker_0, # of connection points: 2
#     Edge 34, Type (0, 0), BuildingBlock: OJICUG_clean_linker_0, # of connection points: 2
#     Edge 35, Type (0, 0), BuildingBlock: OJICUG_clean_linker_0, # of connection points: 2
#     Edge 36, Type (0, 0), BuildingBlock: OJICUG_clean_linker_0, # of connection points: 2
#     Edge 37, Type (0, 0), BuildingBlock: OJICUG_clean_linker_0, # of connection points: 2
#     Edge 38, Type (0, 0), BuildingBlock: OJICUG_clean_linker_0, # of connection points: 2
#     Edge 39, Type (0, 0), BuildingBlock: OJICUG_clean_linker_0, # of connection points: 2
#     Edge 40, Type (0, 0), BuildingBlock: OJICUG_clean_linker_0, # of connection points: 2
#     Edge 41, Type (0, 0), BuildingBlock: OJICUG_clean_linker_0, # of connection points: 2
#     Edge 42, Type (0, 0), BuildingBlock: OJICUG_clean_linker_0, # of connection points: 2
#     Edge 43, Type (0, 0), BuildingBlock: OJICUG_clean_linker_0, # of connection points: 2
#     Edge 44, Type (0, 0), BuildingBlock: OJICUG_clean_linker_0, # of connection points: 2
#     Edge 45, Type (0, 0), BuildingBlock: OJICUG_clean_linker_0, # of connection points: 2
#     Edge 46, Type (0, 0), BuildingBlock: OJICUG_clean_linker_0, # of connection points: 2
#     Edge 47, Type (0, 0), BuildingBlock: OJICUG_clean_linker_0, # of connection points: 2
#     Edge 48, Type (0, 0), BuildingBlock: OJICUG_clean_linker_0, # of connection points: 2
#     Edge 49, Type (0, 0), BuildingBlock: OJICUG_clean_linker_0, # of connection points: 2
#     Edge 50, Type (0, 0), BuildingBlock: OJICUG_clean_linker_0, # of connection points: 2
#     Edge 51, Type (0, 0), BuildingBlock: OJICUG_clean_linker_0, # of connection points: 2
#     Edge 52, Type (0, 0), BuildingBlock: OJICUG_clean_linker_0, # of connection points: 2
#     Edge 53, Type (0, 0), BuildingBlock: OJICUG_clean_linker_0, # of connection points: 2
#     Edge 54, Type (0, 0), BuildingBlock: OJICUG_clean_linker_0, # of connection points: 2
#     Edge 55, Type (0, 0), BuildingBlock: OJICUG_clean_linker_0, # of connection points: 2
#     Edge 56, Type (0, 0), BuildingBlock: OJICUG_clean_linker_0, # of connection points: 2
#     Edge 57, Type (0, 0), BuildingBlock: OJICUG_clean_linker_0, # of connection points: 2
#     Edge 58, Type (0, 0), BuildingBlock: OJICUG_clean_linker_0, # of connection points: 2
#     Edge 59, Type (0, 0), BuildingBlock: OJICUG_clean_linker_0, # of connection points: 2
#     Edge 60, Type (0, 0), BuildingBlock: OJICUG_clean_linker_0, # of connection points: 2
#     Edge 61, Type (0, 0), BuildingBlock: OJICUG_clean_linker_0, # of connection points: 2
#     Edge 62, Type (0, 0), BuildingBlock: OJICUG_clean_linker_0, # of connection points: 2
#     Edge 63, Type (0, 0), BuildingBlock: OJICUG_clean_linker_0, # of connection points: 2
# Relax obj value: 0.462
# Max RMSD: 0.278
# Mean RMSD: 0.278
data_MOF--net-whe--node1-IZENUY_clean_sbu_0--edge1-OJICUG_clean_linker_0
_symmetry_space_group_name_H-M    P1
_symmetry_Int_Tables_number       1
_symmetry_cell_setting            triclinic
loop_
_symmetry_equiv_pos_as_xyz
'x, y, z'
_cell_length_a     24.879621
_cell_length_b     25.028273
_cell_length_c     38.534602
_cell_angle_alpha  90.080006
_cell_angle_beta   89.980967
_cell_angle_gamma 90.114143
loop_
_atom_site_label
_atom_site_type_symbol
_atom_site_fract_x
_atom_site_fract_y
_atom_site_fract_z
_atom_type_partial_charge
Fe0 Fe 0.1053 0.24483 0.18112 0.0
Fe1 Fe 0.03661 0.34418 0.1714 0.0
O2 O 0.09955 0.31486 0.17878 0.0
Fe3 Fe 0.15842 0.35492 0.18167 0.0
O4 O 0.17041 0.33184 0.22734 0.0
O5 O 0.16359 0.24676 0.21192 0.0
O6 O 0.06581 0.2421 0.2188 0.0
C7 C 0.0221 0.2656 0.22388 0.0
C8 C 0.19342 0.26221 0.14512 0.0
O9 O 1.0022 0.2986 0.20219 0.0
C10 C 0.10704 0.39158 0.12228 0.0
O11 O 0.04543 0.22831 0.15458 0.0
O12 O 0.02353 0.305 0.13343 0.0
O13 O 0.20385 0.30129 0.16535 0.0
O14 O 0.14546 0.2472 0.14231 0.0
C15 C 0.07486 0.42439 0.20881 0.0
O16 O 0.06336 0.39364 0.1397 0.0
O17 O 0.15001 0.37531 0.13651 0.0
C18 C 1.01633 0.25596 0.13466 0.0
O19 O 0.04401 0.38553 0.2086 0.0
O20 O 0.12237 0.4179 0.19678 0.0
C21 C 0.17763 0.28197 0.23431 0.0
Fe22 Fe 0.70945 0.15245 0.17879 0.0
Fe23 Fe 0.80567 0.07643 0.18707 0.0
O24 O 0.73645 0.08716 0.17936 0.0
Fe25 Fe 0.69521 0.03137 0.17084 0.0
O26 O 0.65499 0.04592 0.20739 0.0
O27 O 0.63957 0.12932 0.19496 0.0
O28 O 0.73212 0.16752 0.22375 0.0
C29 C 0.78128 0.16425 0.23353 0.0
C30 C 0.66144 0.10647 0.12126 0.0
O31 O 0.81443 0.13697 0.21529 0.0
C32 C 0.78083 0.99554 0.13706 0.0
O33 O 0.77329 0.18263 0.16112 0.0
O34 O 0.82096 0.11136 0.14801 0.0
O35 O 0.65079 0.06549 0.13941 0.0
O36 O 0.68886 0.14414 0.13397 0.0
C37 C 0.75491 1.00669 0.22848 0.0
O38 O 0.80975 1.01326 0.16173 0.0
O39 O 0.73429 1.01304 0.13354 0.0
C40 C 0.81202 0.16039 0.14441 0.0
O41 O 0.79142 0.04125 0.22622 0.0
O42 O 0.73313 0.98933 0.201 0.0
C43 C 0.62446 0.08472 0.20898 0.0
Fe44 Fe 0.88718 0.70383 0.17863 0.0
Fe45 Fe 0.94244 0.81255 0.18196 0.0
O46 O 0.94691 0.74256 0.17824 0.0
Fe47 Fe 1.00998 0.71288 0.1724 0.0
O48 O 0.99962 0.67018 0.20851 0.0
O49 O 0.92035 0.64044 0.19542 0.0
O50 O 0.87116 0.72687 0.22384 0.0
C51 C 0.86492 0.77661 0.23104 0.0
C52 C 0.94272 0.66514 0.1213 0.0
O53 O 0.87986 0.81118 0.20863 0.0
C54 C 0.03403 0.80229 0.13831 0.0
O55 O 0.84564 0.75868 0.15917 0.0
O56 O 0.90846 0.81333 0.14122 0.0
O57 O 0.98579 0.66434 0.13929 0.0
O58 O 0.89922 0.68221 0.13427 0.0
C59 C 1.02027 0.78825 0.22743 0.0
O60 O 1.00542 0.82875 0.15914 0.0
O61 O 0.0258 0.75352 0.13543 0.0
C62 C 0.86146 0.79555 0.13846 0.0
O63 O 0.97684 0.81194 0.2217 0.0
O64 O 0.04216 0.75738 0.20506 0.0
C65 C 0.96717 0.63256 0.20828 0.0
Fe66 Fe 0.34672 0.88437 0.19081 0.0
Fe67 Fe 0.26565 0.96899 0.21005 0.0
O68 O 0.32116 0.94838 0.18584 0.0
Fe69 Fe 0.35313 0.9935 0.15801 0.0
O70 O 0.41785 0.96287 0.1619 0.0
O71 O 0.41378 0.91376 0.20706 0.0
O72 O 0.32959 0.87283 0.23768 0.0
C73 C 0.28361 0.87785 0.25117 0.0
C74 C 0.35296 0.90471 0.11791 0.0
O75 O 0.2528 0.91089 0.23758 0.0
C76 C 0.26534 0.05439 0.16367 0.0
O77 O 0.27815 0.86103 0.17531 0.0
O78 O 0.22591 0.93677 0.1776 0.0
O79 O 0.33991 0.95308 0.12042 0.0
O80 O 0.36881 0.87878 0.14447 0.0
C81 C 0.35362 0.0252 0.23002 0.0
O82 O 0.25696 0.03661 0.19318 0.0
O83 O 0.29407 0.02834 0.14418 0.0
C84 C 0.23525 0.88875 0.1668 0.0
O85 O 0.31246 0.99743 0.23939 0.0
O86 O 0.36648 0.03517 0.19791 0.0
C87 C 0.43814 0.95086 0.19009 0.0
Fe88 Fe 0.09474 0.79396 0.42063 0.0
Fe89 Fe 0.029 0.69144 0.42055 0.0
O90 O 0.09136 0.724 0.41884 0.0
Fe91 Fe 0.15232 0.68669 0.41713 0.0
O92 O 0.16902 0.71525 0.37336 0.0
O93 O 0.15648 0.79753 0.39284 0.0
O94 O 0.05978 0.8011 0.38128 0.0
C95 C 1.01862 0.77604 0.37185 0.0
C96 C 0.17874 0.77643 0.45956 0.0
O97 O 0.9974 0.73911 0.39014 0.0
C98 C 0.0953 0.6411 0.47113 0.0
O99 O 0.03204 0.80499 0.44507 0.0
O100 O 1.00651 0.72499 0.459 0.0
O101 O 0.19348 0.74014 0.43828 0.0
O102 O 0.12966 0.78685 0.46117 0.0
C103 C 0.07571 0.61671 0.38327 0.0
O104 O 0.05348 0.64004 0.45178 0.0
O105 O 0.1391 0.66095 0.46024 0.0
C106 C 1.0009 0.77422 0.4615 0.0
O107 O 0.04522 0.65556 0.38206 0.0
O108 O 0.12119 0.62371 0.39797 0.0
C109 C 0.17486 0.7661 0.36936 0.0
Fe110 Fe 0.33541 0.14494 0.41346 0.0
Fe111 Fe 0.23754 0.07493 0.39562 0.0
O112 O 0.30636 0.08136 0.40737 0.0
Fe113 Fe 0.34406 0.02307 0.41354 0.0
O114 O 0.39179 0.0422 0.38189 0.0
O115 O 0.40652 0.12302 0.40009 0.0
O116 O 0.31722 0.16633 0.36803 0.0
C117 C 0.26782 0.16928 0.35817 0.0
C118 C 0.37369 0.0889 0.47072 0.0
O119 O 0.23289 0.14146 0.37431 0.0
C120 C 0.25205 0.98487 0.43871 0.0
O121 O 0.27119 0.17316 0.43108 0.0
O122 O 0.21988 0.10156 0.43712 0.0
O123 O 0.3827 0.04843 0.45148 0.0
O124 O 0.35148 0.13002 0.45835 0.0
C125 C 0.29325 1.01644 0.34997 0.0
O126 O 0.22814 1.00673 0.41349 0.0
O127 O 0.29841 0.99941 0.44602 0.0
C128 C 0.23219 0.14852 0.44609 0.0
O129 O 0.25504 0.04875 0.35384 0.0
O130 O 0.3099 0.99096 0.37653 0.0
C131 C 0.4235 0.07964 0.38577 0.0
Fe132 Fe 0.94484 0.22947 0.41561 0.0
Fe133 Fe 1.01022 0.33181 0.42034 0.0
O134 O 0.94808 0.29959 0.41675 0.0
Fe135 Fe 0.88747 0.33707 0.41536 0.0
O136 O 0.87321 0.31194 0.3705 0.0
O137 O 0.88357 0.22824 0.38736 0.0
O138 O 0.98034 0.22613 0.37639 0.0
C139 C 1.02137 0.25225 0.36825 0.0
C140 C 0.86125 0.24627 0.45635 0.0
O141 O 0.04293 0.28601 0.38893 0.0
C142 C 0.94245 0.37898 0.47155 0.0
O143 O 1.00696 0.21682 0.44022 0.0
O144 O 0.03027 0.29562 0.45822 0.0
O145 O 0.84599 0.282 0.43478 0.0
O146 O 0.90944 0.23205 0.45595 0.0
C147 C 0.96518 0.40876 0.38416 0.0
O148 O 0.98477 0.38138 0.45267 0.0
O149 O 0.89901 0.36001 0.45944 0.0
C150 C 0.03596 0.2463 0.45916 0.0
O151 O 0.99581 0.37006 0.38263 0.0
O152 O 0.91932 0.40127 0.39832 0.0
C153 C 0.86874 0.26167 0.36407 0.0
Fe154 Fe 0.80025 0.95815 0.40663 0.0
Fe155 Fe 0.69118 1.0072 0.42144 0.0
O156 O 0.73071 0.94994 0.41444 0.0
Fe157 Fe 0.70159 0.88547 0.41587 0.0
O158 O 0.72379 0.86898 0.37083 0.0
O159 O 0.80716 0.89607 0.38001 0.0
O160 O 0.78701 0.9913 0.36663 0.0
C161 C 0.75148 0.02651 0.36333 0.0
C162 C 0.80289 0.87605 0.45104 0.0
O163 O 0.72984 0.04636 0.39009 0.0
C164 C 0.65522 0.93454 0.47243 0.0
O165 O 0.8065 0.02265 0.43024 0.0
O166 O 0.73087 0.02734 0.45806 0.0
O167 O 0.76429 0.85434 0.4339 0.0
O168 O 0.81424 0.92458 0.44651 0.0
C169 C 0.61732 0.9539 0.38631 0.0
O170 O 0.64699 0.97591 0.45417 0.0
O171 O 0.68142 0.89563 0.4604 0.0
C172 C 0.77807 0.04294 0.45422 0.0
O173 O 0.65008 0.99098 0.38528 0.0
O174 O 0.63195 0.90953 0.4005 0.0
C175 C 0.77332 0.8704 0.36137 0.0
Fe176 Fe 0.94126 0.81058 0.90987 0.0
Fe177 Fe 1.00804 0.71032 0.91903 0.0
O178 O 0.94516 0.74062 0.91378 0.0
Fe179 Fe 0.88504 0.70248 0.91404 0.0
O180 O 0.8685 0.72501 0.86885 0.0
O181 O 0.87824 0.80943 0.88369 0.0
O182 O 0.97492 0.80921 0.86985 0.0
C183 C 1.01797 0.78504 0.86378 0.0
C184 C 0.8609 0.79493 0.95405 0.0
O185 O 0.03999 0.75408 0.88597 0.0
C186 C 0.94135 0.66403 0.97098 0.0
O187 O 1.00474 0.82639 0.93219 0.0
O188 O 0.02535 0.75109 0.95571 0.0
O189 O 0.84434 0.75799 0.93358 0.0
O190 O 0.90801 0.81221 0.95087 0.0
C191 C 0.96359 0.63009 0.88387 0.0
O192 O 0.98399 0.66243 0.95254 0.0
O193 O 0.89775 0.68143 0.95839 0.0
C194 C 0.03349 0.79988 0.95285 0.0
O195 O 0.9963 0.66745 0.88307 0.0
O196 O 0.91729 0.63853 0.89734 0.0
C197 C 0.86272 0.77472 0.86148 0.0
Fe198 Fe 0.34578 0.88334 0.90089 0.0
Fe199 Fe 0.2643 0.96758 0.88181 0.0
O200 O 0.31994 0.94724 0.90595 0.0
Fe201 Fe 0.35167 0.99256 0.9338 0.0
O202 O 0.41657 0.96235 0.92979 0.0
O203 O 0.41269 0.91294 0.88463 0.0
O204 O 0.32862 0.8717 0.85402 0.0
C205 C 0.28258 0.8765 0.84059 0.0
C206 C 0.35207 0.90388 0.97381 0.0
O207 O 0.25162 0.90937 0.85426 0.0
C208 C 0.26364 0.05302 0.92828 0.0
O209 O 0.27735 0.85974 0.91642 0.0
O210 O 0.22475 0.93526 0.91429 0.0
O211 O 0.33873 0.95215 0.97135 0.0
O212 O 0.36798 0.87795 0.94721 0.0
C213 C 0.352 0.02409 0.86182 0.0
O214 O 0.25539 0.03523 0.89873 0.0
O215 O 0.29235 0.02698 0.94772 0.0
C216 C 0.23433 0.88729 0.92501 0.0
O217 O 0.31098 0.9961 0.85244 0.0
O218 O 0.36473 0.03425 0.89394 0.0
C219 C 0.43687 0.95025 0.90158 0.0
Fe220 Fe 0.15687 0.35363 0.91114 0.0
Fe221 Fe 0.10364 0.24355 0.91199 0.0
O222 O 0.09801 0.31358 0.91433 0.0
Fe223 Fe 0.03518 0.34296 0.92201 0.0
O224 O 0.04232 0.38393 0.88471 0.0
O225 O 0.12064 0.41659 0.89622 0.0
O226 O 0.16845 0.33031 0.86542 0.0
C227 C 0.17552 0.28039 0.85843 0.0
C228 C 0.10616 0.39068 0.97074 0.0
O229 O 0.16157 0.2453 0.88087 0.0
C230 C 1.01514 0.25505 0.95887 0.0
O231 O 0.20245 0.30003 0.92724 0.0
O232 O 0.14424 0.24611 0.95059 0.0
O233 O 0.0623 0.39264 0.95353 0.0
O234 O 0.14895 0.37424 0.95634 0.0
C235 C 1.01998 0.26414 0.86963 0.0
O236 O 0.04403 0.22725 0.93884 0.0
O237 O 0.02253 0.30406 0.96009 0.0
C238 C 0.1922 0.26102 0.94749 0.0
O239 O 0.06372 0.24063 0.87451 0.0
O240 O 1.00036 0.29722 0.89144 0.0
C241 C 0.07298 0.4229 0.88443 0.0
Fe242 Fe 0.80487 0.07554 0.90572 0.0
Fe243 Fe 0.69464 0.03033 0.9225 0.0
O244 O 0.73562 0.08619 0.91356 0.0
Fe245 Fe 0.70848 0.15142 0.914 0.0
O246 O 0.73112 0.16623 0.86902 0.0
O247 O 0.81345 0.13583 0.87737 0.0
O248 O 0.79044 0.03992 0.86671 0.0
C249 C 0.75398 1.00524 0.86472 0.0
C250 C 0.811 0.15981 0.94836 0.0
O251 O 0.73254 0.9881 0.89234 0.0
C252 C 0.66072 0.1059 0.9718 0.0
O253 O 0.80929 1.01265 0.93119 0.0
O254 O 0.73419 1.01282 0.95973 0.0
O255 O 0.77221 0.18188 0.93166 0.0
O256 O 0.82029 0.11085 0.94464 0.0
C257 C 0.62368 0.08307 0.88403 0.0
O258 O 0.65022 0.06461 0.95388 0.0
O259 O 0.68784 0.14354 0.95886 0.0
C260 C 0.78067 0.99525 0.95606 0.0
O261 O 0.65383 0.04399 0.88615 0.0
O262 O 0.63878 0.12795 0.89776 0.0
C263 C 0.78025 0.16299 0.85917 0.0
Fe264 Fe 0.94432 0.22895 0.67746 0.0
Fe265 Fe 1.0091 0.33185 0.67328 0.0
O266 O 0.94714 0.29909 0.67646 0.0
Fe267 Fe 0.88622 0.3361 0.67757 0.0
O268 O 0.87167 0.31107 0.7224 0.0
O269 O 0.88288 0.22737 0.70558 0.0
O270 O 0.97956 0.22577 0.71677 0.0
C271 C 1.0202 0.25225 0.72523 0.0
C272 C 0.86086 0.24494 0.63658 0.0
O273 O 0.04168 0.28643 0.70485 0.0
C274 C 0.94163 0.3783 0.6217 0.0
O275 O 1.00661 0.21669 0.65297 0.0
O276 O 0.03018 0.29571 0.63554 0.0
O277 O 0.84526 0.2807 0.65806 0.0
O278 O 0.90919 0.23126 0.63701 0.0
C279 C 0.96278 0.4086 0.70923 0.0
O280 O 0.98369 0.38106 0.6408 0.0
O281 O 0.89818 0.35892 0.63353 0.0
C282 C 0.03574 0.24637 0.6343 0.0
O283 O 0.9939 0.37029 0.7109 0.0
O284 O 0.91734 0.40054 0.69467 0.0
C285 C 0.86761 0.26078 0.72882 0.0
Fe286 Fe 0.79911 0.95624 0.68633 0.0
Fe287 Fe 0.69019 1.00566 0.67175 0.0
O288 O 0.7296 0.94828 0.67842 0.0
Fe289 Fe 0.70034 0.88389 0.67662 0.0
O290 O 0.72229 0.86709 0.72163 0.0
O291 O 0.80578 0.89392 0.71259 0.0
O292 O 0.78584 0.98905 0.7265 0.0
C293 C 0.7504 0.02433 0.72998 0.0
C294 C 0.8017 0.87456 0.64146 0.0
O295 O 0.72885 0.04448 0.70333 0.0
C296 C 0.65437 0.93355 0.62028 0.0
O297 O 0.80559 0.02089 0.66306 0.0
O298 O 0.72997 0.02612 0.63527 0.0
O299 O 0.76307 0.85274 0.65851 0.0
O300 O 0.81312 0.92302 0.64628 0.0
C301 C 0.61609 0.95221 0.70646 0.0
O302 O 0.64606 0.97472 0.63881 0.0
O303 O 0.68041 0.89445 0.63212 0.0
C304 C 0.77728 0.04138 0.63915 0.0
O305 O 0.64902 0.98912 0.70783 0.0
O306 O 0.63066 0.90797 0.692 0.0
C307 C 0.77181 0.86829 0.73113 0.0
Fe308 Fe 0.09371 0.79329 0.67084 0.0
Fe309 Fe 0.02769 0.69106 0.67035 0.0
O310 O 0.09013 0.72334 0.67247 0.0
Fe311 Fe 0.15092 0.68579 0.67446 0.0
O312 O 0.16726 0.71447 0.71828 0.0
O313 O 0.15527 0.79673 0.69879 0.0
O314 O 0.05844 0.80043 0.71011 0.0
C315 C 1.01696 0.77561 0.71919 0.0
C316 C 0.17798 0.77535 0.63212 0.0
O317 O 0.99574 0.73902 0.70054 0.0
C318 C 0.09446 0.64031 0.62014 0.0
O319 O 0.03114 0.80448 0.64626 0.0
O320 O 1.00614 0.72456 0.63173 0.0
O321 O 0.19243 0.73907 0.65344 0.0
O322 O 0.12896 0.78607 0.6304 0.0
C323 C 0.07347 0.61636 0.70794 0.0
O324 O 0.05242 0.63939 0.6393 0.0
O325 O 0.13818 0.65995 0.6313 0.0
C326 C 1.00022 0.77377 0.62954 0.0
O327 O 0.04324 0.65543 0.70897 0.0
O328 O 0.11925 0.62297 0.69353 0.0
C329 C 0.17341 0.76529 0.72228 0.0
Fe330 Fe 0.34297 0.02187 0.67842 0.0
Fe331 Fe 0.33443 0.14379 0.67916 0.0
O332 O 0.30529 0.08016 0.68483 0.0
Fe333 Fe 0.23635 0.07367 0.69632 0.0
O334 O 0.25341 0.04712 0.73801 0.0
O335 O 0.30856 0.98958 0.71523 0.0
O336 O 0.39058 0.04065 0.71025 0.0
C337 C 0.42229 0.07815 0.70671 0.0
C338 C 0.25114 0.98382 0.6529 0.0
O339 O 0.40542 0.12172 0.69265 0.0
C340 C 0.23148 0.14772 0.64624 0.0
O341 O 0.38187 0.04748 0.6407 0.0
O342 O 0.3509 0.12921 0.63425 0.0
O343 O 0.22704 1.0056 0.67811 0.0
O344 O 0.29749 0.99852 0.64572 0.0
C345 C 0.26633 0.16777 0.73434 0.0
O346 O 0.2704 0.17217 0.66149 0.0
O347 O 0.2191 0.10066 0.65488 0.0
C348 C 0.37312 0.08818 0.62169 0.0
O349 O 0.31582 0.1649 0.72463 0.0
O350 O 0.23155 0.14004 0.71796 0.0
C351 C 0.29168 1.01489 0.74186 0.0
C352 C 0.22339 0.17914 0.11669 0.0
C353 C 0.23194 0.21799 0.14255 0.0
H354 H 0.22624 0.09577 0.10371 0.0
C355 C 0.26041 0.20378 0.17264 0.0
H356 H 0.20163 0.18915 0.09323 0.0
C357 C 0.27099 0.15018 0.17955 0.0
C358 C 0.25616 0.11069 0.15555 0.0
H359 H 0.26838 0.23287 0.19283 0.0
H360 H 0.28922 0.13943 0.20409 0.0
C361 C 0.23589 0.1257 0.12309 0.0
C362 C 0.95319 0.18478 0.1144 0.0
C363 C 0.96171 0.23669 0.12644 0.0
H364 H 0.89709 0.1213 0.10768 0.0
C365 C 0.91702 0.26782 0.13651 0.0
H366 H 0.98674 0.16028 0.10619 0.0
C367 C 0.86574 0.24502 0.13889 0.0
C368 C 0.85823 0.19113 0.13038 0.0
H369 H 0.92249 0.3083 0.14589 0.0
H370 H 0.83344 0.26809 0.15029 0.0
C371 C 0.90163 0.16272 0.11539 0.0
C372 C 0.84616 0.8732 0.10054 0.0
C373 C 0.82406 0.83447 0.12315 0.0
H374 H 0.85252 0.95712 0.08943 0.0
C375 C 0.77682 0.84673 0.14117 0.0
H376 H 0.88179 0.86418 0.08544 0.0
C377 C 0.75913 0.89955 0.14237 0.0
C378 C 0.78898 0.94017 0.12598 0.0
H379 H 0.75826 0.81772 0.15826 0.0
H380 H 0.72565 0.90926 0.15916 0.0
C381 C 0.83018 0.92648 0.10311 0.0
C382 C 0.14901 0.89707 0.1348 0.0
C383 C 0.19039 0.86395 0.14754 0.0
H384 H 0.06558 0.90305 0.12181 0.0
C385 C 0.18314 0.8085 0.14703 0.0
H386 H 0.15401 0.94005 0.13362 0.0
C387 C 0.1327 0.78727 0.13884 0.0
C388 C 0.08899 0.82147 0.13179 0.0
H389 H 0.21446 0.78199 0.15614 0.0
H390 H 0.12659 0.7447 0.14209 0.0
C391 C 0.09839 0.87608 0.1276 0.0
C392 C 0.20615 0.9191 0.47697 0.0
C393 C 0.23904 0.93013 0.44848 0.0
H394 H 0.16416 0.85849 0.50514 0.0
C395 C 0.26439 0.88811 0.43079 0.0
H396 H 0.18847 0.95126 0.49194 0.0
C397 C 0.25204 0.83527 0.43881 0.0
C398 C 0.21309 0.82398 0.46414 0.0
H399 H 0.29203 0.89619 0.40969 0.0
H400 H 0.26826 0.80398 0.42244 0.0
C401 C 0.19369 0.86613 0.48506 0.0
C402 C 0.18483 0.23329 0.46116 0.0
C403 C 0.1892 0.17778 0.46443 0.0
H404 H 0.13127 0.29949 0.45832 0.0
C405 C 0.14487 0.14862 0.4774 0.0
H406 H 0.21837 0.25699 0.45192 0.0
C407 C 0.0944 0.1724 0.4797 0.0
C408 C 0.08839 0.22615 0.47084 0.0
H409 H 0.1475 0.10587 0.48147 0.0
H410 H 0.05957 0.14773 0.48512 0.0
C411 C 0.13464 0.25751 0.46478 0.0
C412 C 0.82918 0.1114 0.48777 0.0
C413 C 0.78855 0.09839 0.4643 0.0
H414 H 0.88066 0.17299 0.50688 0.0
C415 C 0.76036 0.13944 0.4473 0.0
H416 H 0.85024 0.0804 0.50186 0.0
C417 C 0.77844 0.19215 0.44929 0.0
C418 C 0.8245 0.20409 0.46869 0.0
H419 H 0.72747 0.1302 0.4299 0.0
H420 H 0.76065 0.22167 0.43229 0.0
C421 C 0.84583 0.16447 0.4909 0.0
C422 C 0.94103 0.84638 0.48366 0.0
C423 C 0.9474 0.79402 0.47177 0.0
H424 H 0.88799 0.91256 0.48899 0.0
C425 C 0.9014 0.76435 0.46221 0.0
H426 H 0.9756 0.86979 0.4916 0.0
C427 C 0.85136 0.7893 0.4593 0.0
C428 C 0.84655 0.84389 0.46669 0.0
H429 H 0.90506 0.72356 0.45307 0.0
H430 H 0.81819 0.7673 0.44794 0.0
C431 C 0.89069 0.87071 0.48197 0.0
C432 C 0.84705 0.87321 0.99186 0.0
C433 C 0.82414 0.8343 0.96965 0.0
H434 H 0.85382 0.95719 1.00276 0.0
C435 C 0.77631 0.84644 0.9523 0.0
H436 H 0.88318 0.86429 1.00645 0.0
C437 C 0.75855 0.89925 0.95133 0.0
C438 C 0.78895 0.93999 0.96724 0.0
H439 H 0.75716 0.81731 0.93553 0.0
H440 H 0.72452 0.90887 0.93501 0.0
C441 C 0.83097 0.92646 0.98948 0.0
C442 C 0.09745 0.87387 0.964 0.0
C443 C 0.08831 0.81924 0.95955 0.0
H444 H 0.15282 0.93811 0.95835 0.0
C445 C 0.1322 0.78526 0.95246 0.0
H446 H 0.06448 0.90066 0.96984 0.0
C447 C 0.18258 0.80674 0.94446 0.0
C448 C 0.18959 0.86223 0.94418 0.0
H449 H 0.12626 0.74269 0.94902 0.0
H450 H 0.21405 0.78041 0.9353 0.0
C451 C 0.14801 0.89511 0.957 0.0
C452 C 0.26911 0.14879 0.91245 0.0
C453 C 0.25452 0.10934 0.93648 0.0
H454 H 0.2665 0.23146 0.8993 0.0
C455 C 0.23465 0.12443 0.96907 0.0
H456 H 0.28703 0.13799 0.8878 0.0
C457 C 0.22233 0.17789 0.97561 0.0
C458 C 0.23065 0.21671 0.94977 0.0
H459 H 0.22521 0.09453 0.98846 0.0
H460 H 0.20088 0.18794 0.99921 0.0
C461 C 0.25872 0.20241 0.9195 0.0
C462 C 0.95158 0.18439 0.97924 0.0
C463 C 0.96039 0.23609 0.967 0.0
H464 H 0.89523 0.12114 0.98591 0.0
C465 C 0.9159 0.2672 0.95661 0.0
H466 H 0.98497 0.15992 0.98771 0.0
C467 C 0.8646 0.24449 0.95404 0.0
C468 C 0.85689 0.19072 0.9627 0.0
H469 H 0.92159 0.30755 0.94711 0.0
H470 H 0.83252 0.26746 0.94235 0.0
C471 C 0.89999 0.16245 0.97807 0.0
C472 C 0.75993 0.13798 0.64578 0.0
C473 C 0.78822 0.09667 0.62905 0.0
H474 H 0.76011 0.22041 0.66045 0.0
C475 C 0.82931 0.10927 0.60582 0.0
H476 H 0.7268 0.129 0.66306 0.0
C477 C 0.84616 0.16225 0.60262 0.0
C478 C 0.82447 0.20224 0.62448 0.0
H479 H 0.85048 0.07804 0.59197 0.0
H480 H 0.88124 0.17049 0.5868 0.0
C481 C 0.77813 0.19062 0.64369 0.0
C482 C 0.90075 0.7634 0.62961 0.0
C483 C 0.94643 0.7933 0.61972 0.0
H484 H 0.81774 0.76589 0.64445 0.0
C485 C 0.93956 0.84561 0.60794 0.0
H486 H 0.90481 0.72266 0.63869 0.0
C487 C 0.88909 0.86962 0.60998 0.0
C488 C 0.84532 0.84257 0.62551 0.0
H489 H 0.97386 0.86921 0.5998 0.0
H490 H 0.88601 0.91143 0.60301 0.0
C491 C 0.85059 0.78804 0.63287 0.0
C492 C 0.25117 0.83419 0.65307 0.0
C493 C 0.21262 0.82268 0.62752 0.0
H494 H 0.2907 0.89534 0.68231 0.0
C495 C 0.19365 0.86463 0.60635 0.0
H496 H 0.26706 0.80304 0.66962 0.0
C497 C 0.20604 0.91768 0.61439 0.0
C498 C 0.23841 0.92897 0.64309 0.0
H499 H 0.16445 0.8568 0.5861 0.0
H500 H 0.18863 0.94969 0.59923 0.0
C501 C 0.26343 0.8871 0.66104 0.0
C502 C 0.14407 0.14844 0.61509 0.0
C503 C 0.18859 0.17729 0.62809 0.0
H504 H 0.05873 0.14798 0.60763 0.0
C505 C 0.18449 0.23281 0.63165 0.0
H506 H 0.14649 0.10571 0.61079 0.0
C507 C 0.13439 0.25727 0.62833 0.0
C508 C 0.08798 0.22615 0.62227 0.0
H509 H 0.21819 0.25629 0.64091 0.0
H510 H 0.13124 0.29921 0.63503 0.0
C511 C 0.0937 0.17246 0.61308 0.0
C512 C 0.25839 0.26061 0.27505 0.0
C513 C 0.20227 0.26167 0.26832 0.0
H514 H 0.3236 0.23181 0.30763 0.0
C515 C 0.1696 0.23368 0.29197 0.0
H516 H 0.28559 0.2799 0.25704 0.0
C517 C 0.19119 0.20626 0.3209 0.0
C518 C 0.24722 0.20399 0.32774 0.0
H519 H 0.12672 0.23166 0.2875 0.0
H520 H 0.16321 0.18536 0.33762 0.0
C521 C 0.28043 0.23246 0.30418 0.0
C522 C 0.86446 0.19009 0.31693 0.0
C523 C 0.84545 0.23936 0.33004 0.0
H524 H 0.86077 0.12943 0.27735 0.0
C525 C 0.80387 0.26411 0.31078 0.0
H526 H 0.8962 0.1692 0.33049 0.0
C527 C 0.78189 0.23989 0.28022 0.0
C528 C 0.80184 0.19086 0.267 0.0
H529 H 0.78746 0.30173 0.3197 0.0
H530 H 0.74981 0.26014 0.26659 0.0
C531 C 0.84391 0.16699 0.28607 0.0
C532 C 0.79746 0.77238 0.28316 0.0
C533 C 0.84037 0.79733 0.2651 0.0
H534 H 0.74133 0.77554 0.32639 0.0
C535 C 0.85926 0.84603 0.27919 0.0
H536 H 0.78103 0.73521 0.27339 0.0
C537 C 0.83734 0.86846 0.30978 0.0
C538 C 0.79408 0.84445 0.32775 0.0
H539 H 0.89196 0.86705 0.26659 0.0
H540 H 0.85426 0.90565 0.31923 0.0
C541 C 0.77422 0.79592 0.3136 0.0
C542 C 0.23108 0.87485 0.30763 0.0
C543 C 0.26301 0.84744 0.28315 0.0
H544 H 0.18033 0.87227 0.35249 0.0
C545 C 0.26685 0.79127 0.2876 0.0
H546 H 0.2261 0.91771 0.3054 0.0
C547 C 0.23884 0.76407 0.31498 0.0
C548 C 0.20642 0.79205 0.33926 0.0
H549 H 0.28981 0.768 0.26914 0.0
H550 H 0.24236 0.72108 0.31694 0.0
C551 C 0.20417 0.8482 0.33493 0.0
C552 C 0.83598 0.86601 0.78256 0.0
C553 C 0.79239 0.84233 0.76472 0.0
H554 H 0.89071 0.86439 0.82565 0.0
C555 C 0.77199 0.79417 0.77902 0.0
H556 H 0.8533 0.90291 0.77302 0.0
C557 C 0.79504 0.77067 0.80948 0.0
C558 C 0.83829 0.7953 0.82741 0.0
H559 H 0.73881 0.77406 0.76634 0.0
H560 H 0.7782 0.73379 0.81938 0.0
C561 C 0.85772 0.84362 0.81316 0.0
C562 C 0.20424 0.84738 0.75634 0.0
C563 C 0.20523 0.79111 0.75235 0.0
H564 H 0.22726 0.91688 0.78567 0.0
C565 C 0.2366 0.76282 0.77697 0.0
H566 H 0.18127 0.87169 0.73849 0.0
C567 C 0.26475 0.78984 0.80439 0.0
C568 C 0.26214 0.84615 0.80851 0.0
H569 H 0.2391 0.71972 0.77529 0.0
H570 H 0.28678 0.76636 0.82316 0.0
C571 C 0.23131 0.87388 0.78367 0.0
C572 C 0.16781 0.22982 0.80149 0.0
C573 C 0.20005 0.25984 0.82438 0.0
H574 H 0.1619 0.18 0.75644 0.0
C575 C 0.25596 0.26076 0.81688 0.0
H576 H 0.12517 0.22632 0.80654 0.0
C577 C 0.27821 0.23255 0.78777 0.0
C578 C 0.24543 0.20215 0.76494 0.0
H579 H 0.28291 0.28169 0.83429 0.0
H580 H 0.32125 0.23355 0.7837 0.0
C581 C 0.18957 0.20243 0.77255 0.0
C582 C 0.80249 0.26289 0.78205 0.0
C583 C 0.84429 0.23838 0.7628 0.0
H584 H 0.7483 0.25864 0.82618 0.0
C585 C 0.86356 0.18924 0.77588 0.0
H586 H 0.78588 0.3004 0.77316 0.0
C587 C 0.84304 0.16605 0.80669 0.0
C588 C 0.80074 0.18967 0.82574 0.0
H589 H 0.89549 0.16853 0.76233 0.0
H590 H 0.86011 0.1286 0.81537 0.0
C591 C 0.78054 0.23857 0.81256 0.0
C592 C 0.15527 0.39987 0.06463 0.0
C593 C 0.10703 0.4025 0.08377 0.0
H594 H 0.19304 0.39504 1.01471 0.0
C595 C 0.05871 0.40813 0.06495 0.0
H596 H 0.19341 0.39544 0.07784 0.0
C597 C 0.05849 0.40791 1.02827 0.0
C598 C 0.1066 0.40204 1.00922 0.0
H599 H 1.02061 0.40988 0.0785 0.0
H600 H 1.02024 0.40949 1.01492 0.0
C601 C 0.15506 0.39964 1.02812 0.0
C602 C 0.63541 0.06124 0.0649 0.0
C603 C 0.64801 0.10813 0.08349 0.0
H604 H 0.62892 0.02361 1.01488 0.0
C605 C 0.65598 0.15564 0.06467 0.0
H606 H 0.62924 0.02385 0.07845 0.0
C607 C 0.6558 0.15551 1.02835 0.0
C608 C 0.64764 0.10786 1.00963 0.0
H609 H 0.6654 0.19265 0.07797 0.0
H610 H 0.66509 0.19242 1.01496 0.0
C611 C 0.63523 0.0611 1.02836 0.0
C612 C 0.99187 0.65049 1.02764 0.0
C613 C 0.94305 0.65129 1.00904 0.0
H614 H 0.03041 0.65365 0.07762 0.0
C615 C 0.89487 0.64828 1.02816 0.0
H616 H 0.02983 0.65315 1.01398 0.0
C617 C 0.8952 0.64856 0.06456 0.0
C618 C 0.94372 0.65187 0.08327 0.0
H619 H 0.85641 0.64857 1.015 0.0
H620 H 0.85698 0.64905 0.07802 0.0
C621 C 0.9922 0.65078 0.06428 0.0
C622 C 0.40409 0.88289 0.06398 0.0
C623 C 0.35541 0.88242 0.0825 0.0
H624 H 0.44138 0.88859 1.01372 0.0
C625 C 0.30702 0.87653 0.06416 0.0
H626 H 0.44175 0.88905 0.07754 0.0
C627 C 0.30681 0.87625 1.02787 0.0
C628 C 0.35498 0.88186 1.00924 0.0
H629 H 0.26894 0.87741 0.07783 0.0
H630 H 0.26856 0.87694 1.0144 0.0
C631 C 0.40388 0.88261 1.02749 0.0
C632 C 0.04353 0.62747 0.52717 0.0
C633 C 0.0923 0.62531 0.50857 0.0
H634 H 1.00556 0.63324 0.57725 0.0
C635 C 0.14008 0.61783 0.52749 0.0
H636 H 1.00594 0.63361 0.51359 0.0
C637 C 0.13986 0.61759 0.56384 0.0
C638 C 0.09186 0.62484 0.5826 0.0
H639 H 0.17841 0.61562 0.51422 0.0
H640 H 0.17804 0.61521 0.57726 0.0
C641 C 0.0433 0.62724 0.5638 0.0
C642 C 0.38326 0.1359 0.52817 0.0
C643 C 0.38517 0.08794 0.50904 0.0
H644 H 0.37916 0.17361 0.57792 0.0
C645 C 0.39063 0.03977 0.52772 0.0
H646 H 0.3794 0.17391 0.515 0.0
C647 C 0.39049 0.03959 0.56445 0.0
C648 C 0.38488 0.08758 0.58339 0.0
H649 H 0.39187 1.00197 0.51404 0.0
H650 H 0.39162 1.00166 0.57791 0.0
C651 C 0.38312 0.13572 0.56454 0.0
C652 C 0.89588 0.39694 0.52838 0.0
C653 C 0.9442 0.39267 0.50953 0.0
H654 H 0.85724 0.39707 0.57801 0.0
C655 C 0.99277 0.39253 0.52843 0.0
H656 H 0.8576 0.39743 0.51499 0.0
C657 C 0.99256 0.39234 0.56511 0.0
C658 C 0.94377 0.39228 0.5838 0.0
H659 H 0.03081 0.3888 0.51498 0.0
H660 H 0.03045 0.38849 0.5787 0.0
C661 C 0.89567 0.39674 0.56478 0.0
C662 C 0.63083 0.9808 0.5647 0.0
C663 C 0.63925 0.93293 0.58302 0.0
H664 H 0.62869 0.01899 0.51486 0.0
C665 C 0.64226 0.88483 0.56425 0.0
H666 H 0.62831 1.01856 0.57838 0.0
C667 C 0.64249 0.88507 0.52804 0.0
C668 C 0.6397 0.93342 0.50962 0.0
H669 H 0.64804 0.84712 0.5775 0.0
H670 H 0.64844 0.84755 0.51454 0.0
C671 C 0.63105 0.98105 0.52826 0.0
C672 C 1.00221 0.21546 0.27602 0.0
C673 C 1.00632 0.26543 0.25999 0.0
H674 H 1.00967 0.17114 0.32294 0.0
C675 C 1.02127 0.31019 0.27978 0.0
H676 H 0.99329 0.17998 0.26089 0.0
C677 C 0.0339 0.30474 0.31479 0.0
C678 C 0.02976 0.25475 0.33084 0.0
H679 H 0.02722 0.34872 0.26776 0.0
H680 H 0.04516 0.33997 0.32937 0.0
C681 C 1.01431 0.21006 0.31099 0.0
C682 C 0.7122 0.97265 0.31635 0.0
C683 C 0.72155 0.02347 0.33099 0.0
H684 H 0.71979 0.92532 0.27017 0.0
C685 C 0.71648 0.06839 0.31043 0.0
H686 H 0.70925 0.93826 0.33239 0.0
C687 C 0.71491 0.06106 0.27485 0.0
C688 C 0.72382 1.01008 0.26041 0.0
H689 H 0.72047 0.10825 0.32115 0.0
H690 H 0.71421 0.09547 0.25881 0.0
C691 C 0.71624 0.96526 0.28081 0.0
C692 C 1.01519 0.73248 0.31514 0.0
C693 C 1.00899 0.77921 0.33479 0.0
H694 H 0.03236 0.69883 0.26566 0.0
C695 C 1.01514 0.82913 0.31874 0.0
H696 H 1.01214 0.6935 0.32696 0.0
C697 C 0.02736 0.83216 0.28365 0.0
C698 C 0.03354 0.78535 0.26398 0.0
H699 H 1.01253 0.8657 0.33374 0.0
H700 H 0.02895 0.87106 0.27133 0.0
C701 C 0.02883 0.73554 0.28022 0.0
C702 C 0.32459 0.07773 0.30286 0.0
C703 C 0.33013 0.02891 0.32092 0.0
H704 H 0.34615 0.12379 0.25862 0.0
C705 C 0.3726 0.99505 0.31167 0.0
H706 H 0.29325 0.10556 0.30903 0.0
C707 C 0.40192 1.00586 0.28141 0.0
C708 C 0.38419 0.04681 0.259 0.0
H709 H 0.38045 0.9588 0.32612 0.0
H710 H 0.42784 0.97463 0.27177 0.0
C711 C 0.35622 0.08899 0.274 0.0
C712 C 1.01 0.73117 0.77548 0.0
C713 C 1.00675 0.7785 0.75623 0.0
H714 H 0.02444 0.69586 0.82476 0.0
C715 C 1.01497 0.82777 0.77285 0.0
H716 H 1.00492 0.69261 0.76327 0.0
C717 C 0.02692 0.82957 0.80801 0.0
C718 C 0.03076 0.78214 0.82718 0.0
H719 H 1.01434 0.86473 0.75822 0.0
H720 H 0.03035 0.8681 0.82072 0.0
C721 C 0.02329 0.73293 0.81049 0.0
C722 C 0.37116 0.99394 0.78013 0.0
C723 C 0.32839 0.02748 0.77099 0.0
H724 H 0.4268 0.97407 0.8199 0.0
C725 C 0.32243 0.07619 0.78921 0.0
H726 H 0.37931 0.9578 0.76558 0.0
C727 C 0.35412 0.08776 0.81799 0.0
C728 C 0.38248 0.04581 0.83287 0.0
H729 H 0.29074 0.10368 0.78323 0.0
H730 H 0.34384 0.12248 0.83347 0.0
C731 C 0.40049 1.00502 0.81036 0.0
C732 C 0.03118 0.3044 0.77902 0.0
C733 C 0.02813 0.25449 0.76268 0.0
H734 H 0.02315 0.34788 0.82619 0.0
C735 C 1.01317 0.20938 0.78221 0.0
H736 H 0.04184 0.33996 0.76466 0.0
C737 C 1.00074 0.21426 0.81718 0.0
C738 C 1.00402 0.26412 0.83354 0.0
H739 H 1.00924 0.17052 0.77001 0.0
H740 H 0.99233 0.17848 0.83208 0.0
C741 C 1.01814 0.30932 0.814 0.0
C742 C 0.71335 0.05909 0.81846 0.0
C743 C 0.72256 1.00824 0.83293 0.0
H744 H 0.71876 0.10607 0.77216 0.0
C745 C 0.71534 0.96326 0.81254 0.0
H746 H 0.71249 0.09359 0.8345 0.0
C747 C 0.71142 0.97043 0.77699 0.0
C748 C 0.7205 0.02124 0.76235 0.0
H749 H 0.71918 0.92341 0.82321 0.0
H750 H 0.70885 0.9359 0.76099 0.0
C751 C 0.71499 0.06623 0.78288 0.0
C752 C 0.07587 0.52529 0.21891 0.0
C753 C 0.04767 0.47783 0.2129 0.0
H754 H 0.07249 0.61008 0.2241 0.0
C755 C 0.9909 0.48135 0.20881 0.0
H756 H 0.11906 0.52458 0.22233 0.0
C757 C 0.96375 0.53067 0.20889 0.0
C758 C 0.99211 0.57834 0.21393 0.0
H759 H 0.96712 0.44582 0.204 0.0
H760 H 0.92092 0.53147 0.20389 0.0
C761 C 0.04849 0.57449 0.21999 0.0
C762 C 0.52899 0.07573 0.18921 0.0
C763 C 0.56754 0.06579 0.21465 0.0
H764 H 0.46038 0.0484 0.16185 0.0
C765 C 0.5588 0.02025 0.23631 0.0
H766 H 0.53428 0.1088 0.17141 0.0
C767 C 0.51684 0.98286 0.22998 0.0
C768 C 0.4811 0.9905 0.20228 0.0
H769 H 0.58819 1.01043 0.25604 0.0
H770 H 0.5143 0.94698 0.24555 0.0
C771 C 0.48704 0.03914 0.18321 0.0
C772 C 0.07702 0.5148 0.38149 0.0
C773 C 0.04871 0.56291 0.37954 0.0
H774 H 0.07341 0.42972 0.38358 0.0
C775 C 0.99164 0.55979 0.37714 0.0
H776 H 0.12043 0.51507 0.38358 0.0
C777 C 0.96391 0.51061 0.37819 0.0
C778 C 0.99226 0.46255 0.3806 0.0
H779 H 0.9677 0.59581 0.37572 0.0
H780 H 0.9204 0.51033 0.37742 0.0
C781 C 0.04941 0.46563 0.38154 0.0
C782 C 0.53708 0.99298 0.41611 0.0
C783 C 0.56104 0.97558 0.3849 0.0
H784 H 0.48159 0.04551 0.44149 0.0
C785 C 0.54357 1.00106 0.35417 0.0
H786 H 0.54969 0.97616 0.4406 0.0
C787 C 0.5029 0.04061 0.35462 0.0
C788 C 0.48017 0.05909 0.38602 0.0
H789 H 0.56257 0.9913 0.32967 0.0
H790 H 0.48806 0.05584 0.33014 0.0
C791 C 0.49878 0.03457 0.41673 0.0
C792 C 0.07147 0.52277 0.87054 0.0
C793 C 0.04521 0.47609 0.88104 0.0
H794 H 0.06565 0.60663 0.86108 0.0
C795 C 0.98949 0.47974 0.88907 0.0
H796 H 0.11374 0.52179 0.86386 0.0
C797 C 0.96162 0.52859 0.88816 0.0
C798 C 0.98812 0.57562 0.87853 0.0
H799 H 0.96733 0.44477 0.89745 0.0
H800 H 0.91996 0.52974 0.89628 0.0
C801 C 0.04322 0.57146 0.86878 0.0
C802 C 0.52762 0.07509 0.90258 0.0
C803 C 0.56682 0.0646 0.87763 0.0
H804 H 0.45828 0.04834 0.92938 0.0
C805 C 0.55839 0.01887 0.856 0.0
H806 H 0.5326 0.10836 0.92033 0.0
C807 C 0.51612 0.98174 0.86204 0.0
C808 C 0.47984 0.98981 0.88942 0.0
H809 H 0.58825 1.00868 0.83662 0.0
H810 H 0.51381 0.94567 0.84657 0.0
C811 C 0.4854 0.03873 0.90831 0.0
C812 C 0.96135 0.51054 0.70693 0.0
C813 C 0.98891 0.46282 0.71313 0.0
H814 H 0.96594 0.59523 0.70091 0.0
C815 C 0.04526 0.46638 0.71936 0.0
H816 H 0.91859 0.50992 0.70168 0.0
C817 C 0.07327 0.51536 0.71787 0.0
C818 C 0.04576 0.56291 0.71118 0.0
H819 H 0.06863 0.43071 0.72423 0.0
H820 H 0.11636 0.5159 0.72183 0.0
C821 C 0.98912 0.55964 0.70638 0.0
C822 C 0.536 0.99134 0.67653 0.0
C823 C 0.55987 0.97412 0.70777 0.0
H824 H 0.48057 0.0437 0.65108 0.0
C825 C 0.54231 0.9998 0.73847 0.0
H826 H 0.54864 0.97434 0.65207 0.0
C827 C 0.50164 0.03936 0.73797 0.0
C828 C 0.47899 0.05765 0.70654 0.0
H829 H 0.56122 0.99016 0.763 0.0
H830 H 0.48673 0.05472 0.76243 0.0
C831 C 0.49771 0.03293 0.67587 0.0
loop_
_geom_bond_atom_site_label_1
_geom_bond_atom_site_label_2
_geom_bond_distance
_geom_bond_site_symmetry_2
_ccdc_geom_bond_type
Fe0 O2 1.918 . S
Fe0 O5 1.997 . S
Fe0 O6 2.002 . S
Fe0 O11 1.976 . S
Fe0 O14 1.996 . S
Fe1 O2 1.918 . S
Fe1 O9 1.991 1_455 S
Fe1 O12 1.996 1_455 S
Fe1 O16 1.976 . S
Fe1 O19 2.002 . S
O2 Fe0 1.918 . S
O2 Fe1 1.918 . S
O2 Fe3 1.918 . S
Fe3 O2 1.918 . S
Fe3 O4 2.002 . S
Fe3 O13 1.976 . S
Fe3 O17 1.996 . S
Fe3 O20 1.997 . S
O4 Fe3 2.002 . S
O4 C21 1.295 . S
O5 Fe0 1.997 . S
O5 C21 1.235 . S
O6 Fe0 2.002 . S
O6 C7 1.295 . S
C7 O6 1.295 . S
C7 O9 1.233 1_455 S
C8 O13 1.287 . S
C8 O14 1.255 . S
O9 Fe1 1.991 1_655 S
O9 C7 1.233 1_655 S
C10 O16 1.287 . S
C10 O17 1.255 . S
O11 Fe0 1.976 . S
O11 C18 1.287 1_455 S
O12 Fe1 1.996 1_655 S
O12 C18 1.255 . S
O13 Fe3 1.976 . S
O13 C8 1.287 . S
O14 Fe0 1.996 . S
O14 C8 1.255 . S
C15 O19 1.295 . S
C15 O20 1.235 . S
O16 Fe1 1.976 . S
O16 C10 1.287 . S
O17 Fe3 1.996 . S
O17 C10 1.255 . S
C18 O11 1.287 1_655 S
C18 O12 1.255 . S
O19 Fe1 2.002 . S
O19 C15 1.295 . S
O20 Fe3 1.997 . S
O20 C15 1.235 . S
C21 O4 1.295 . S
C21 O5 1.235 . S
Fe22 O24 1.918 . S
Fe22 O27 1.997 . S
Fe22 O28 2.002 . S
Fe22 O33 1.976 . S
Fe22 O36 1.996 . S
Fe23 O24 1.918 . S
Fe23 O31 1.997 . S
Fe23 O34 1.996 . S
Fe23 O38 1.976 . S
Fe23 O41 2.002 . S
O24 Fe22 1.918 . S
O24 Fe23 1.918 . S
O24 Fe25 1.918 . S
Fe25 O24 1.918 . S
Fe25 O26 2.002 . S
Fe25 O35 1.976 . S
Fe25 O39 1.996 1_545 S
Fe25 O42 1.991 1_545 S
O26 Fe25 2.002 . S
O26 C43 1.295 . S
O27 Fe22 1.997 . S
O27 C43 1.235 . S
O28 Fe22 2.002 . S
O28 C29 1.295 . S
C29 O28 1.295 . S
C29 O31 1.235 . S
C30 O35 1.287 . S
C30 O36 1.255 . S
O31 Fe23 1.997 . S
O31 C29 1.235 . S
C32 O38 1.287 1_565 S
C32 O39 1.255 . S
O33 Fe22 1.976 . S
O33 C40 1.287 . S
O34 Fe23 1.996 . S
O34 C40 1.255 . S
O35 Fe25 1.976 . S
O35 C30 1.287 . S
O36 Fe22 1.996 . S
O36 C30 1.255 . S
C37 O41 1.295 . S
C37 O42 1.233 1_545 S
O38 Fe23 1.976 . S
O38 C32 1.287 1_545 S
O39 Fe25 1.996 1_565 S
O39 C32 1.255 . S
C40 O33 1.287 . S
C40 O34 1.255 . S
O41 Fe23 2.002 . S
O41 C37 1.295 . S
O42 Fe25 1.991 1_565 S
O42 C37 1.233 1_565 S
C43 O26 1.295 . S
C43 O27 1.235 . S
Fe44 O46 1.918 . S
Fe44 O49 1.997 . S
Fe44 O50 2.002 . S
Fe44 O55 1.976 . S
Fe44 O58 1.996 . S
Fe45 O46 1.918 . S
Fe45 O53 1.997 . S
Fe45 O56 1.996 . S
Fe45 O60 1.976 . S
Fe45 O63 2.002 . S
O46 Fe44 1.918 . S
O46 Fe45 1.918 . S
O46 Fe47 1.918 . S
Fe47 O46 1.918 . S
Fe47 O48 2.002 . S
Fe47 O57 1.976 . S
Fe47 O61 1.996 1_655 S
Fe47 O64 1.991 1_655 S
O48 Fe47 2.002 . S
O48 C65 1.295 . S
O49 Fe44 1.997 . S
O49 C65 1.235 . S
O50 Fe44 2.002 . S
O50 C51 1.295 . S
C51 O50 1.295 . S
C51 O53 1.235 . S
C52 O57 1.287 . S
C52 O58 1.255 . S
O53 Fe45 1.997 . S
O53 C51 1.235 . S
C54 O60 1.287 1_455 S
C54 O61 1.255 . S
O55 Fe44 1.976 . S
O55 C62 1.287 . S
O56 Fe45 1.996 . S
O56 C62 1.255 . S
O57 Fe47 1.976 . S
O57 C52 1.287 . S
O58 Fe44 1.996 . S
O58 C52 1.255 . S
C59 O63 1.295 . S
C59 O64 1.233 1_655 S
O60 Fe45 1.976 . S
O60 C54 1.287 1_655 S
O61 Fe47 1.996 1_455 S
O61 C54 1.255 . S
C62 O55 1.287 . S
C62 O56 1.255 . S
O63 Fe45 2.002 . S
O63 C59 1.295 . S
O64 Fe47 1.991 1_455 S
O64 C59 1.233 1_455 S
C65 O48 1.295 . S
C65 O49 1.235 . S
Fe66 O68 1.918 . S
Fe66 O71 1.997 . S
Fe66 O72 2.002 . S
Fe66 O77 1.976 . S
Fe66 O80 1.996 . S
Fe67 O68 1.918 . S
Fe67 O75 1.997 . S
Fe67 O78 1.996 . S
Fe67 O82 1.976 . S
Fe67 O85 2.002 . S
O68 Fe66 1.918 . S
O68 Fe67 1.918 . S
O68 Fe69 1.918 . S
Fe69 O68 1.918 . S
Fe69 O70 2.002 . S
Fe69 O79 1.976 . S
Fe69 O83 1.996 1_565 S
Fe69 O86 1.991 1_565 S
O70 Fe69 2.002 . S
O70 C87 1.295 . S
O71 Fe66 1.997 . S
O71 C87 1.235 . S
O72 Fe66 2.002 . S
O72 C73 1.295 . S
C73 O72 1.295 . S
C73 O75 1.235 . S
C74 O79 1.287 . S
C74 O80 1.255 . S
O75 Fe67 1.997 . S
O75 C73 1.235 . S
C76 O82 1.287 1_545 S
C76 O83 1.255 . S
O77 Fe66 1.976 . S
O77 C84 1.287 . S
O78 Fe67 1.996 . S
O78 C84 1.255 . S
O79 Fe69 1.976 . S
O79 C74 1.287 . S
O80 Fe66 1.996 . S
O80 C74 1.255 . S
C81 O85 1.295 . S
C81 O86 1.233 1_565 S
O82 Fe67 1.976 . S
O82 C76 1.287 1_565 S
O83 Fe69 1.996 1_545 S
O83 C76 1.255 . S
C84 O77 1.287 . S
C84 O78 1.255 . S
O85 Fe67 2.002 . S
O85 C81 1.295 . S
O86 Fe69 1.991 1_545 S
O86 C81 1.233 1_545 S
C87 O70 1.295 . S
C87 O71 1.235 . S
Fe88 O90 1.918 . S
Fe88 O93 1.997 . S
Fe88 O94 2.002 . S
Fe88 O99 1.976 . S
Fe88 O102 1.996 . S
Fe89 O90 1.918 . S
Fe89 O97 1.991 1_455 S
Fe89 O100 1.996 1_455 S
Fe89 O104 1.976 . S
Fe89 O107 2.002 . S
O90 Fe88 1.918 . S
O90 Fe89 1.918 . S
O90 Fe91 1.918 . S
Fe91 O90 1.918 . S
Fe91 O92 2.002 . S
Fe91 O101 1.976 . S
Fe91 O105 1.996 . S
Fe91 O108 1.997 . S
O92 Fe91 2.002 . S
O92 C109 1.295 . S
O93 Fe88 1.997 . S
O93 C109 1.235 . S
O94 Fe88 2.002 . S
O94 C95 1.295 . S
C95 O94 1.295 . S
C95 O97 1.233 1_455 S
C96 O101 1.287 . S
C96 O102 1.255 . S
O97 Fe89 1.991 1_655 S
O97 C95 1.233 1_655 S
C98 O104 1.287 . S
C98 O105 1.255 . S
O99 Fe88 1.976 . S
O99 C106 1.287 1_455 S
O100 Fe89 1.996 1_655 S
O100 C106 1.255 . S
O101 Fe91 1.976 . S
O101 C96 1.287 . S
O102 Fe88 1.996 . S
O102 C96 1.255 . S
C103 O107 1.295 . S
C103 O108 1.235 . S
O104 Fe89 1.976 . S
O104 C98 1.287 . S
O105 Fe91 1.996 . S
O105 C98 1.255 . S
C106 O99 1.287 1_655 S
C106 O100 1.255 . S
O107 Fe89 2.002 . S
O107 C103 1.295 . S
O108 Fe91 1.997 . S
O108 C103 1.235 . S
C109 O92 1.295 . S
C109 O93 1.235 . S
Fe110 O112 1.918 . S
Fe110 O115 1.997 . S
Fe110 O116 2.002 . S
Fe110 O121 1.976 . S
Fe110 O124 1.996 . S
Fe111 O112 1.918 . S
Fe111 O119 1.997 . S
Fe111 O122 1.996 . S
Fe111 O126 1.976 . S
Fe111 O129 2.002 . S
O112 Fe110 1.918 . S
O112 Fe111 1.918 . S
O112 Fe113 1.918 . S
Fe113 O112 1.918 . S
Fe113 O114 2.002 . S
Fe113 O123 1.976 . S
Fe113 O127 1.996 1_545 S
Fe113 O130 1.991 1_545 S
O114 Fe113 2.002 . S
O114 C131 1.295 . S
O115 Fe110 1.997 . S
O115 C131 1.235 . S
O116 Fe110 2.002 . S
O116 C117 1.295 . S
C117 O116 1.295 . S
C117 O119 1.235 . S
C118 O123 1.287 . S
C118 O124 1.255 . S
O119 Fe111 1.997 . S
O119 C117 1.235 . S
C120 O126 1.287 1_565 S
C120 O127 1.255 . S
O121 Fe110 1.976 . S
O121 C128 1.287 . S
O122 Fe111 1.996 . S
O122 C128 1.255 . S
O123 Fe113 1.976 . S
O123 C118 1.287 . S
O124 Fe110 1.996 . S
O124 C118 1.255 . S
C125 O129 1.295 . S
C125 O130 1.233 1_545 S
O126 Fe111 1.976 . S
O126 C120 1.287 1_545 S
O127 Fe113 1.996 1_565 S
O127 C120 1.255 . S
C128 O121 1.287 . S
C128 O122 1.255 . S
O129 Fe111 2.002 . S
O129 C125 1.295 . S
O130 Fe113 1.991 1_565 S
O130 C125 1.233 1_565 S
C131 O114 1.295 . S
C131 O115 1.235 . S
Fe132 O134 1.918 . S
Fe132 O137 1.997 . S
Fe132 O138 2.002 . S
Fe132 O143 1.976 . S
Fe132 O146 1.996 . S
Fe133 O134 1.918 . S
Fe133 O141 1.991 1_655 S
Fe133 O144 1.996 1_655 S
Fe133 O148 1.976 . S
Fe133 O151 2.002 . S
O134 Fe132 1.918 . S
O134 Fe133 1.918 . S
O134 Fe135 1.918 . S
Fe135 O134 1.918 . S
Fe135 O136 2.002 . S
Fe135 O145 1.976 . S
Fe135 O149 1.996 . S
Fe135 O152 1.997 . S
O136 Fe135 2.002 . S
O136 C153 1.295 . S
O137 Fe132 1.997 . S
O137 C153 1.235 . S
O138 Fe132 2.002 . S
O138 C139 1.295 . S
C139 O138 1.295 . S
C139 O141 1.233 1_655 S
C140 O145 1.287 . S
C140 O146 1.255 . S
O141 Fe133 1.991 1_455 S
O141 C139 1.233 1_455 S
C142 O148 1.287 . S
C142 O149 1.255 . S
O143 Fe132 1.976 . S
O143 C150 1.287 1_655 S
O144 Fe133 1.996 1_455 S
O144 C150 1.255 . S
O145 Fe135 1.976 . S
O145 C140 1.287 . S
O146 Fe132 1.996 . S
O146 C140 1.255 . S
C147 O151 1.295 . S
C147 O152 1.235 . S
O148 Fe133 1.976 . S
O148 C142 1.287 . S
O149 Fe135 1.996 . S
O149 C142 1.255 . S
C150 O143 1.287 1_455 S
C150 O144 1.255 . S
O151 Fe133 2.002 . S
O151 C147 1.295 . S
O152 Fe135 1.997 . S
O152 C147 1.235 . S
C153 O136 1.295 . S
C153 O137 1.235 . S
Fe154 O156 1.918 . S
Fe154 O159 1.997 . S
Fe154 O160 2.002 . S
Fe154 O165 1.976 . S
Fe154 O168 1.996 . S
Fe155 O156 1.918 . S
Fe155 O163 1.991 1_565 S
Fe155 O166 1.996 1_565 S
Fe155 O170 1.976 . S
Fe155 O173 2.002 . S
O156 Fe154 1.918 . S
O156 Fe155 1.918 . S
O156 Fe157 1.918 . S
Fe157 O156 1.918 . S
Fe157 O158 2.002 . S
Fe157 O167 1.976 . S
Fe157 O171 1.996 . S
Fe157 O174 1.997 . S
O158 Fe157 2.002 . S
O158 C175 1.295 . S
O159 Fe154 1.997 . S
O159 C175 1.235 . S
O160 Fe154 2.002 . S
O160 C161 1.295 . S
C161 O160 1.295 . S
C161 O163 1.233 1_565 S
C162 O167 1.287 . S
C162 O168 1.255 . S
O163 Fe155 1.991 1_545 S
O163 C161 1.233 1_545 S
C164 O170 1.287 . S
C164 O171 1.255 . S
O165 Fe154 1.976 . S
O165 C172 1.287 1_565 S
O166 Fe155 1.996 1_545 S
O166 C172 1.255 . S
O167 Fe157 1.976 . S
O167 C162 1.287 . S
O168 Fe154 1.996 . S
O168 C162 1.255 . S
C169 O173 1.295 . S
C169 O174 1.235 . S
O170 Fe155 1.976 . S
O170 C164 1.287 . S
O171 Fe157 1.996 . S
O171 C164 1.255 . S
C172 O165 1.287 1_545 S
C172 O166 1.255 . S
O173 Fe155 2.002 . S
O173 C169 1.295 . S
O174 Fe157 1.997 . S
O174 C169 1.235 . S
C175 O158 1.295 . S
C175 O159 1.235 . S
Fe176 O178 1.918 . S
Fe176 O181 1.997 . S
Fe176 O182 2.002 . S
Fe176 O187 1.976 . S
Fe176 O190 1.996 . S
Fe177 O178 1.918 . S
Fe177 O185 1.991 1_655 S
Fe177 O188 1.996 1_655 S
Fe177 O192 1.976 . S
Fe177 O195 2.002 . S
O178 Fe176 1.918 . S
O178 Fe177 1.918 . S
O178 Fe179 1.918 . S
Fe179 O178 1.918 . S
Fe179 O180 2.002 . S
Fe179 O189 1.976 . S
Fe179 O193 1.996 . S
Fe179 O196 1.997 . S
O180 Fe179 2.002 . S
O180 C197 1.295 . S
O181 Fe176 1.997 . S
O181 C197 1.235 . S
O182 Fe176 2.002 . S
O182 C183 1.295 . S
C183 O182 1.295 . S
C183 O185 1.233 1_655 S
C184 O189 1.287 . S
C184 O190 1.255 . S
O185 Fe177 1.991 1_455 S
O185 C183 1.233 1_455 S
C186 O192 1.287 . S
C186 O193 1.255 . S
O187 Fe176 1.976 . S
O187 C194 1.287 1_655 S
O188 Fe177 1.996 1_455 S
O188 C194 1.255 . S
O189 Fe179 1.976 . S
O189 C184 1.287 . S
O190 Fe176 1.996 . S
O190 C184 1.255 . S
C191 O195 1.295 . S
C191 O196 1.235 . S
O192 Fe177 1.976 . S
O192 C186 1.287 . S
O193 Fe179 1.996 . S
O193 C186 1.255 . S
C194 O187 1.287 1_455 S
C194 O188 1.255 . S
O195 Fe177 2.002 . S
O195 C191 1.295 . S
O196 Fe179 1.997 . S
O196 C191 1.235 . S
C197 O180 1.295 . S
C197 O181 1.235 . S
Fe198 O200 1.918 . S
Fe198 O203 1.997 . S
Fe198 O204 2.002 . S
Fe198 O209 1.976 . S
Fe198 O212 1.996 . S
Fe199 O200 1.918 . S
Fe199 O207 1.997 . S
Fe199 O210 1.996 . S
Fe199 O214 1.976 . S
Fe199 O217 2.002 . S
O200 Fe198 1.918 . S
O200 Fe199 1.918 . S
O200 Fe201 1.918 . S
Fe201 O200 1.918 . S
Fe201 O202 2.002 . S
Fe201 O211 1.976 . S
Fe201 O215 1.996 1_565 S
Fe201 O218 1.991 1_565 S
O202 Fe201 2.002 . S
O202 C219 1.295 . S
O203 Fe198 1.997 . S
O203 C219 1.235 . S
O204 Fe198 2.002 . S
O204 C205 1.295 . S
C205 O204 1.295 . S
C205 O207 1.235 . S
C206 O211 1.287 . S
C206 O212 1.255 . S
O207 Fe199 1.997 . S
O207 C205 1.235 . S
C208 O214 1.287 1_545 S
C208 O215 1.255 . S
O209 Fe198 1.976 . S
O209 C216 1.287 . S
O210 Fe199 1.996 . S
O210 C216 1.255 . S
O211 Fe201 1.976 . S
O211 C206 1.287 . S
O212 Fe198 1.996 . S
O212 C206 1.255 . S
C213 O217 1.295 . S
C213 O218 1.233 1_565 S
O214 Fe199 1.976 . S
O214 C208 1.287 1_565 S
O215 Fe201 1.996 1_545 S
O215 C208 1.255 . S
C216 O209 1.287 . S
C216 O210 1.255 . S
O217 Fe199 2.002 . S
O217 C213 1.295 . S
O218 Fe201 1.991 1_545 S
O218 C213 1.233 1_545 S
C219 O202 1.295 . S
C219 O203 1.235 . S
Fe220 O222 1.918 . S
Fe220 O225 1.997 . S
Fe220 O226 2.002 . S
Fe220 O231 1.976 . S
Fe220 O234 1.996 . S
Fe221 O222 1.918 . S
Fe221 O229 1.997 . S
Fe221 O232 1.996 . S
Fe221 O236 1.976 . S
Fe221 O239 2.002 . S
O222 Fe220 1.918 . S
O222 Fe221 1.918 . S
O222 Fe223 1.918 . S
Fe223 O222 1.918 . S
Fe223 O224 2.002 . S
Fe223 O233 1.976 . S
Fe223 O237 1.996 1_455 S
Fe223 O240 1.991 1_455 S
O224 Fe223 2.002 . S
O224 C241 1.295 . S
O225 Fe220 1.997 . S
O225 C241 1.235 . S
O226 Fe220 2.002 . S
O226 C227 1.295 . S
C227 O226 1.295 . S
C227 O229 1.235 . S
C228 O233 1.287 . S
C228 O234 1.255 . S
O229 Fe221 1.997 . S
O229 C227 1.235 . S
C230 O236 1.287 1_655 S
C230 O237 1.255 . S
O231 Fe220 1.976 . S
O231 C238 1.287 . S
O232 Fe221 1.996 . S
O232 C238 1.255 . S
O233 Fe223 1.976 . S
O233 C228 1.287 . S
O234 Fe220 1.996 . S
O234 C228 1.255 . S
C235 O239 1.295 . S
C235 O240 1.233 1_455 S
O236 Fe221 1.976 . S
O236 C230 1.287 1_455 S
O237 Fe223 1.996 1_655 S
O237 C230 1.255 . S
C238 O231 1.287 . S
C238 O232 1.255 . S
O239 Fe221 2.002 . S
O239 C235 1.295 . S
O240 Fe223 1.991 1_655 S
O240 C235 1.233 1_655 S
C241 O224 1.295 . S
C241 O225 1.235 . S
Fe242 O244 1.918 . S
Fe242 O247 1.997 . S
Fe242 O248 2.002 . S
Fe242 O253 1.976 . S
Fe242 O256 1.996 . S
Fe243 O244 1.918 . S
Fe243 O251 1.991 1_545 S
Fe243 O254 1.996 1_545 S
Fe243 O258 1.976 . S
Fe243 O261 2.002 . S
O244 Fe242 1.918 . S
O244 Fe243 1.918 . S
O244 Fe245 1.918 . S
Fe245 O244 1.918 . S
Fe245 O246 2.002 . S
Fe245 O255 1.976 . S
Fe245 O259 1.996 . S
Fe245 O262 1.997 . S
O246 Fe245 2.002 . S
O246 C263 1.295 . S
O247 Fe242 1.997 . S
O247 C263 1.235 . S
O248 Fe242 2.002 . S
O248 C249 1.295 . S
C249 O248 1.295 . S
C249 O251 1.233 1_545 S
C250 O255 1.287 . S
C250 O256 1.255 . S
O251 Fe243 1.991 1_565 S
O251 C249 1.233 1_565 S
C252 O258 1.287 . S
C252 O259 1.255 . S
O253 Fe242 1.976 . S
O253 C260 1.287 1_545 S
O254 Fe243 1.996 1_565 S
O254 C260 1.255 . S
O255 Fe245 1.976 . S
O255 C250 1.287 . S
O256 Fe242 1.996 . S
O256 C250 1.255 . S
C257 O261 1.295 . S
C257 O262 1.235 . S
O258 Fe243 1.976 . S
O258 C252 1.287 . S
O259 Fe245 1.996 . S
O259 C252 1.255 . S
C260 O253 1.287 1_565 S
C260 O254 1.255 . S
O261 Fe243 2.002 . S
O261 C257 1.295 . S
O262 Fe245 1.997 . S
O262 C257 1.235 . S
C263 O246 1.295 . S
C263 O247 1.235 . S
Fe264 O266 1.918 . S
Fe264 O269 1.997 . S
Fe264 O270 2.002 . S
Fe264 O275 1.976 . S
Fe264 O278 1.996 . S
Fe265 O266 1.918 . S
Fe265 O273 1.991 1_655 S
Fe265 O276 1.996 1_655 S
Fe265 O280 1.976 . S
Fe265 O283 2.002 . S
O266 Fe264 1.918 . S
O266 Fe265 1.918 . S
O266 Fe267 1.918 . S
Fe267 O266 1.918 . S
Fe267 O268 2.002 . S
Fe267 O277 1.976 . S
Fe267 O281 1.996 . S
Fe267 O284 1.997 . S
O268 Fe267 2.002 . S
O268 C285 1.295 . S
O269 Fe264 1.997 . S
O269 C285 1.235 . S
O270 Fe264 2.002 . S
O270 C271 1.295 . S
C271 O270 1.295 . S
C271 O273 1.233 1_655 S
C272 O277 1.287 . S
C272 O278 1.255 . S
O273 Fe265 1.991 1_455 S
O273 C271 1.233 1_455 S
C274 O280 1.287 . S
C274 O281 1.255 . S
O275 Fe264 1.976 . S
O275 C282 1.287 1_655 S
O276 Fe265 1.996 1_455 S
O276 C282 1.255 . S
O277 Fe267 1.976 . S
O277 C272 1.287 . S
O278 Fe264 1.996 . S
O278 C272 1.255 . S
C279 O283 1.295 . S
C279 O284 1.235 . S
O280 Fe265 1.976 . S
O280 C274 1.287 . S
O281 Fe267 1.996 . S
O281 C274 1.255 . S
C282 O275 1.287 1_455 S
C282 O276 1.255 . S
O283 Fe265 2.002 . S
O283 C279 1.295 . S
O284 Fe267 1.997 . S
O284 C279 1.235 . S
C285 O268 1.295 . S
C285 O269 1.235 . S
Fe286 O288 1.918 . S
Fe286 O291 1.997 . S
Fe286 O292 2.002 . S
Fe286 O297 1.976 . S
Fe286 O300 1.996 . S
Fe287 O288 1.918 . S
Fe287 O295 1.991 1_565 S
Fe287 O298 1.996 1_565 S
Fe287 O302 1.976 . S
Fe287 O305 2.002 . S
O288 Fe286 1.918 . S
O288 Fe287 1.918 . S
O288 Fe289 1.918 . S
Fe289 O288 1.918 . S
Fe289 O290 2.002 . S
Fe289 O299 1.976 . S
Fe289 O303 1.996 . S
Fe289 O306 1.997 . S
O290 Fe289 2.002 . S
O290 C307 1.295 . S
O291 Fe286 1.997 . S
O291 C307 1.235 . S
O292 Fe286 2.002 . S
O292 C293 1.295 . S
C293 O292 1.295 . S
C293 O295 1.233 1_565 S
C294 O299 1.287 . S
C294 O300 1.255 . S
O295 Fe287 1.991 1_545 S
O295 C293 1.233 1_545 S
C296 O302 1.287 . S
C296 O303 1.255 . S
O297 Fe286 1.976 . S
O297 C304 1.287 1_565 S
O298 Fe287 1.996 1_545 S
O298 C304 1.255 . S
O299 Fe289 1.976 . S
O299 C294 1.287 . S
O300 Fe286 1.996 . S
O300 C294 1.255 . S
C301 O305 1.295 . S
C301 O306 1.235 . S
O302 Fe287 1.976 . S
O302 C296 1.287 . S
O303 Fe289 1.996 . S
O303 C296 1.255 . S
C304 O297 1.287 1_545 S
C304 O298 1.255 . S
O305 Fe287 2.002 . S
O305 C301 1.295 . S
O306 Fe289 1.997 . S
O306 C301 1.235 . S
C307 O290 1.295 . S
C307 O291 1.235 . S
Fe308 O310 1.918 . S
Fe308 O313 1.997 . S
Fe308 O314 2.002 . S
Fe308 O319 1.976 . S
Fe308 O322 1.996 . S
Fe309 O310 1.918 . S
Fe309 O317 1.991 1_455 S
Fe309 O320 1.996 1_455 S
Fe309 O324 1.976 . S
Fe309 O327 2.002 . S
O310 Fe308 1.918 . S
O310 Fe309 1.918 . S
O310 Fe311 1.918 . S
Fe311 O310 1.918 . S
Fe311 O312 2.002 . S
Fe311 O321 1.976 . S
Fe311 O325 1.996 . S
Fe311 O328 1.997 . S
O312 Fe311 2.002 . S
O312 C329 1.295 . S
O313 Fe308 1.997 . S
O313 C329 1.235 . S
O314 Fe308 2.002 . S
O314 C315 1.295 . S
C315 O314 1.295 . S
C315 O317 1.233 1_455 S
C316 O321 1.287 . S
C316 O322 1.255 . S
O317 Fe309 1.991 1_655 S
O317 C315 1.233 1_655 S
C318 O324 1.287 . S
C318 O325 1.255 . S
O319 Fe308 1.976 . S
O319 C326 1.287 1_455 S
O320 Fe309 1.996 1_655 S
O320 C326 1.255 . S
O321 Fe311 1.976 . S
O321 C316 1.287 . S
O322 Fe308 1.996 . S
O322 C316 1.255 . S
C323 O327 1.295 . S
C323 O328 1.235 . S
O324 Fe309 1.976 . S
O324 C318 1.287 . S
O325 Fe311 1.996 . S
O325 C318 1.255 . S
C326 O319 1.287 1_655 S
C326 O320 1.255 . S
O327 Fe309 2.002 . S
O327 C323 1.295 . S
O328 Fe311 1.997 . S
O328 C323 1.235 . S
C329 O312 1.295 . S
C329 O313 1.235 . S
Fe330 O332 1.918 . S
Fe330 O335 1.991 1_545 S
Fe330 O336 2.002 . S
Fe330 O341 1.976 . S
Fe330 O344 1.996 1_545 S
Fe331 O332 1.918 . S
Fe331 O339 1.997 . S
Fe331 O342 1.996 . S
Fe331 O346 1.976 . S
Fe331 O349 2.002 . S
O332 Fe330 1.918 . S
O332 Fe331 1.918 . S
O332 Fe333 1.918 . S
Fe333 O332 1.918 . S
Fe333 O334 2.002 . S
Fe333 O343 1.976 . S
Fe333 O347 1.996 . S
Fe333 O350 1.997 . S
O334 Fe333 2.002 . S
O334 C351 1.295 . S
O335 Fe330 1.991 1_565 S
O335 C351 1.233 1_565 S
O336 Fe330 2.002 . S
O336 C337 1.295 . S
C337 O336 1.295 . S
C337 O339 1.235 . S
C338 O343 1.287 1_565 S
C338 O344 1.255 . S
O339 Fe331 1.997 . S
O339 C337 1.235 . S
C340 O346 1.287 . S
C340 O347 1.255 . S
O341 Fe330 1.976 . S
O341 C348 1.287 . S
O342 Fe331 1.996 . S
O342 C348 1.255 . S
O343 Fe333 1.976 . S
O343 C338 1.287 1_545 S
O344 Fe330 1.996 1_565 S
O344 C338 1.255 . S
C345 O349 1.295 . S
C345 O350 1.235 . S
O346 Fe331 1.976 . S
O346 C340 1.287 . S
O347 Fe333 1.996 . S
O347 C340 1.255 . S
C348 O341 1.287 . S
C348 O342 1.255 . S
O349 Fe331 2.002 . S
O349 C345 1.295 . S
O350 Fe333 1.997 . S
O350 C345 1.235 . S
C351 O334 1.295 . S
C351 O335 1.233 1_545 S
C352 C353 1.387 . S
C352 H356 0.950 . S
C352 C361 1.390 . S
C353 C352 1.387 . S
C353 C355 1.387 . S
H354 C361 0.950 . S
C355 C353 1.387 . S
C355 C357 1.390 . S
C355 H359 0.950 . S
H356 C352 0.950 . S
C357 C355 1.390 . S
C357 C358 1.387 . S
C357 H360 0.950 . S
C358 C357 1.387 . S
C358 C361 1.387 . S
H359 C355 0.950 . S
H360 C357 0.950 . S
C361 C352 1.390 . S
C361 H354 0.950 . S
C361 C358 1.387 . S
C362 C363 1.387 . S
C362 H366 0.950 . S
C362 C371 1.390 . S
C363 C362 1.387 . S
C363 C365 1.387 . S
H364 C371 0.950 . S
C365 C363 1.387 . S
C365 C367 1.390 . S
C365 H369 0.950 . S
H366 C362 0.950 . S
C367 C365 1.390 . S
C367 C368 1.387 . S
C367 H370 0.950 . S
C368 C367 1.387 . S
C368 C371 1.387 . S
H369 C365 0.950 . S
H370 C367 0.950 . S
C371 C362 1.390 . S
C371 H364 0.950 . S
C371 C368 1.387 . S
C372 C373 1.387 . S
C372 H376 0.950 . S
C372 C381 1.390 . S
C373 C372 1.387 . S
C373 C375 1.387 . S
H374 C381 0.950 . S
C375 C373 1.387 . S
C375 C377 1.390 . S
C375 H379 0.950 . S
H376 C372 0.950 . S
C377 C375 1.390 . S
C377 C378 1.387 . S
C377 H380 0.950 . S
C378 C377 1.387 . S
C378 C381 1.387 . S
H379 C375 0.950 . S
H380 C377 0.950 . S
C381 C372 1.390 . S
C381 H374 0.950 . S
C381 C378 1.387 . S
C382 C383 1.387 . S
C382 H386 0.950 . S
C382 C391 1.390 . S
C383 C382 1.387 . S
C383 C385 1.387 . S
H384 C391 0.950 . S
C385 C383 1.387 . S
C385 C387 1.390 . S
C385 H389 0.950 . S
H386 C382 0.950 . S
C387 C385 1.390 . S
C387 C388 1.387 . S
C387 H390 0.950 . S
C388 C387 1.387 . S
C388 C391 1.387 . S
H389 C385 0.950 . S
H390 C387 0.950 . S
C391 C382 1.390 . S
C391 H384 0.950 . S
C391 C388 1.387 . S
C392 C393 1.387 . S
C392 H396 0.950 . S
C392 C401 1.390 . S
C393 C392 1.387 . S
C393 C395 1.387 . S
H394 C401 0.950 . S
C395 C393 1.387 . S
C395 C397 1.390 . S
C395 H399 0.950 . S
H396 C392 0.950 . S
C397 C395 1.390 . S
C397 C398 1.387 . S
C397 H400 0.950 . S
C398 C397 1.387 . S
C398 C401 1.387 . S
H399 C395 0.950 . S
H400 C397 0.950 . S
C401 C392 1.390 . S
C401 H394 0.950 . S
C401 C398 1.387 . S
C402 C403 1.387 . S
C402 H406 0.950 . S
C402 C411 1.390 . S
C403 C402 1.387 . S
C403 C405 1.387 . S
H404 C411 0.950 . S
C405 C403 1.387 . S
C405 C407 1.390 . S
C405 H409 0.950 . S
H406 C402 0.950 . S
C407 C405 1.390 . S
C407 C408 1.387 . S
C407 H410 0.950 . S
C408 C407 1.387 . S
C408 C411 1.387 . S
H409 C405 0.950 . S
H410 C407 0.950 . S
C411 C402 1.390 . S
C411 H404 0.950 . S
C411 C408 1.387 . S
C412 C413 1.387 . S
C412 H416 0.950 . S
C412 C421 1.390 . S
C413 C412 1.387 . S
C413 C415 1.387 . S
H414 C421 0.950 . S
C415 C413 1.387 . S
C415 C417 1.390 . S
C415 H419 0.950 . S
H416 C412 0.950 . S
C417 C415 1.390 . S
C417 C418 1.387 . S
C417 H420 0.950 . S
C418 C417 1.387 . S
C418 C421 1.387 . S
H419 C415 0.950 . S
H420 C417 0.950 . S
C421 C412 1.390 . S
C421 H414 0.950 . S
C421 C418 1.387 . S
C422 C423 1.387 . S
C422 H426 0.950 . S
C422 C431 1.390 . S
C423 C422 1.387 . S
C423 C425 1.387 . S
H424 C431 0.950 . S
C425 C423 1.387 . S
C425 C427 1.390 . S
C425 H429 0.950 . S
H426 C422 0.950 . S
C427 C425 1.390 . S
C427 C428 1.387 . S
C427 H430 0.950 . S
C428 C427 1.387 . S
C428 C431 1.387 . S
H429 C425 0.950 . S
H430 C427 0.950 . S
C431 C422 1.390 . S
C431 H424 0.950 . S
C431 C428 1.387 . S
C432 C433 1.387 . S
C432 H436 0.950 . S
C432 C441 1.390 . S
C433 C432 1.387 . S
C433 C435 1.387 . S
H434 C441 0.950 . S
C435 C433 1.387 . S
C435 C437 1.390 . S
C435 H439 0.950 . S
H436 C432 0.950 . S
C437 C435 1.390 . S
C437 C438 1.387 . S
C437 H440 0.950 . S
C438 C437 1.387 . S
C438 C441 1.387 . S
H439 C435 0.950 . S
H440 C437 0.950 . S
C441 C432 1.390 . S
C441 H434 0.950 . S
C441 C438 1.387 . S
C442 C443 1.387 . S
C442 H446 0.950 . S
C442 C451 1.390 . S
C443 C442 1.387 . S
C443 C445 1.387 . S
H444 C451 0.950 . S
C445 C443 1.387 . S
C445 C447 1.390 . S
C445 H449 0.950 . S
H446 C442 0.950 . S
C447 C445 1.390 . S
C447 C448 1.387 . S
C447 H450 0.950 . S
C448 C447 1.387 . S
C448 C451 1.387 . S
H449 C445 0.950 . S
H450 C447 0.950 . S
C451 C442 1.390 . S
C451 H444 0.950 . S
C451 C448 1.387 . S
C452 C453 1.387 . S
C452 H456 0.950 . S
C452 C461 1.390 . S
C453 C452 1.387 . S
C453 C455 1.387 . S
H454 C461 0.950 . S
C455 C453 1.387 . S
C455 C457 1.390 . S
C455 H459 0.950 . S
H456 C452 0.950 . S
C457 C455 1.390 . S
C457 C458 1.387 . S
C457 H460 0.950 . S
C458 C457 1.387 . S
C458 C461 1.387 . S
H459 C455 0.950 . S
H460 C457 0.950 . S
C461 C452 1.390 . S
C461 H454 0.950 . S
C461 C458 1.387 . S
C462 C463 1.387 . S
C462 H466 0.950 . S
C462 C471 1.390 . S
C463 C462 1.387 . S
C463 C465 1.387 . S
H464 C471 0.950 . S
C465 C463 1.387 . S
C465 C467 1.390 . S
C465 H469 0.950 . S
H466 C462 0.950 . S
C467 C465 1.390 . S
C467 C468 1.387 . S
C467 H470 0.950 . S
C468 C467 1.387 . S
C468 C471 1.387 . S
H469 C465 0.950 . S
H470 C467 0.950 . S
C471 C462 1.390 . S
C471 H464 0.950 . S
C471 C468 1.387 . S
C472 C473 1.387 . S
C472 H476 0.950 . S
C472 C481 1.390 . S
C473 C472 1.387 . S
C473 C475 1.387 . S
H474 C481 0.950 . S
C475 C473 1.387 . S
C475 C477 1.390 . S
C475 H479 0.950 . S
H476 C472 0.950 . S
C477 C475 1.390 . S
C477 C478 1.387 . S
C477 H480 0.950 . S
C478 C477 1.387 . S
C478 C481 1.387 . S
H479 C475 0.950 . S
H480 C477 0.950 . S
C481 C472 1.390 . S
C481 H474 0.950 . S
C481 C478 1.387 . S
C482 C483 1.387 . S
C482 H486 0.950 . S
C482 C491 1.390 . S
C483 C482 1.387 . S
C483 C485 1.387 . S
H484 C491 0.950 . S
C485 C483 1.387 . S
C485 C487 1.390 . S
C485 H489 0.950 . S
H486 C482 0.950 . S
C487 C485 1.390 . S
C487 C488 1.387 . S
C487 H490 0.950 . S
C488 C487 1.387 . S
C488 C491 1.387 . S
H489 C485 0.950 . S
H490 C487 0.950 . S
C491 C482 1.390 . S
C491 H484 0.950 . S
C491 C488 1.387 . S
C492 C493 1.387 . S
C492 H496 0.950 . S
C492 C501 1.390 . S
C493 C492 1.387 . S
C493 C495 1.387 . S
H494 C501 0.950 . S
C495 C493 1.387 . S
C495 C497 1.390 . S
C495 H499 0.950 . S
H496 C492 0.950 . S
C497 C495 1.390 . S
C497 C498 1.387 . S
C497 H500 0.950 . S
C498 C497 1.387 . S
C498 C501 1.387 . S
H499 C495 0.950 . S
H500 C497 0.950 . S
C501 C492 1.390 . S
C501 H494 0.950 . S
C501 C498 1.387 . S
C502 C503 1.387 . S
C502 H506 0.950 . S
C502 C511 1.390 . S
C503 C502 1.387 . S
C503 C505 1.387 . S
H504 C511 0.950 . S
C505 C503 1.387 . S
C505 C507 1.390 . S
C505 H509 0.950 . S
H506 C502 0.950 . S
C507 C505 1.390 . S
C507 C508 1.387 . S
C507 H510 0.950 . S
C508 C507 1.387 . S
C508 C511 1.387 . S
H509 C505 0.950 . S
H510 C507 0.950 . S
C511 C502 1.390 . S
C511 H504 0.950 . S
C511 C508 1.387 . S
C512 C513 1.387 . S
C512 H516 0.950 . S
C512 C521 1.390 . S
C513 C512 1.387 . S
C513 C515 1.387 . S
H514 C521 0.950 . S
C515 C513 1.387 . S
C515 C517 1.390 . S
C515 H519 0.950 . S
H516 C512 0.950 . S
C517 C515 1.390 . S
C517 C518 1.387 . S
C517 H520 0.950 . S
C518 C517 1.387 . S
C518 C521 1.387 . S
H519 C515 0.950 . S
H520 C517 0.950 . S
C521 C512 1.390 . S
C521 H514 0.950 . S
C521 C518 1.387 . S
C522 C523 1.387 . S
C522 H526 0.950 . S
C522 C531 1.390 . S
C523 C522 1.387 . S
C523 C525 1.387 . S
H524 C531 0.950 . S
C525 C523 1.387 . S
C525 C527 1.390 . S
C525 H529 0.950 . S
H526 C522 0.950 . S
C527 C525 1.390 . S
C527 C528 1.387 . S
C527 H530 0.950 . S
C528 C527 1.387 . S
C528 C531 1.387 . S
H529 C525 0.950 . S
H530 C527 0.950 . S
C531 C522 1.390 . S
C531 H524 0.950 . S
C531 C528 1.387 . S
C532 C533 1.387 . S
C532 H536 0.950 . S
C532 C541 1.390 . S
C533 C532 1.387 . S
C533 C535 1.387 . S
H534 C541 0.950 . S
C535 C533 1.387 . S
C535 C537 1.390 . S
C535 H539 0.950 . S
H536 C532 0.950 . S
C537 C535 1.390 . S
C537 C538 1.387 . S
C537 H540 0.950 . S
C538 C537 1.387 . S
C538 C541 1.387 . S
H539 C535 0.950 . S
H540 C537 0.950 . S
C541 C532 1.390 . S
C541 H534 0.950 . S
C541 C538 1.387 . S
C542 C543 1.387 . S
C542 H546 0.950 . S
C542 C551 1.390 . S
C543 C542 1.387 . S
C543 C545 1.387 . S
H544 C551 0.950 . S
C545 C543 1.387 . S
C545 C547 1.390 . S
C545 H549 0.950 . S
H546 C542 0.950 . S
C547 C545 1.390 . S
C547 C548 1.387 . S
C547 H550 0.950 . S
C548 C547 1.387 . S
C548 C551 1.387 . S
H549 C545 0.950 . S
H550 C547 0.950 . S
C551 C542 1.390 . S
C551 H544 0.950 . S
C551 C548 1.387 . S
C552 C553 1.387 . S
C552 H556 0.950 . S
C552 C561 1.390 . S
C553 C552 1.387 . S
C553 C555 1.387 . S
H554 C561 0.950 . S
C555 C553 1.387 . S
C555 C557 1.390 . S
C555 H559 0.950 . S
H556 C552 0.950 . S
C557 C555 1.390 . S
C557 C558 1.387 . S
C557 H560 0.950 . S
C558 C557 1.387 . S
C558 C561 1.387 . S
H559 C555 0.950 . S
H560 C557 0.950 . S
C561 C552 1.390 . S
C561 H554 0.950 . S
C561 C558 1.387 . S
C562 C563 1.387 . S
C562 H566 0.950 . S
C562 C571 1.390 . S
C563 C562 1.387 . S
C563 C565 1.387 . S
H564 C571 0.950 . S
C565 C563 1.387 . S
C565 C567 1.390 . S
C565 H569 0.950 . S
H566 C562 0.950 . S
C567 C565 1.390 . S
C567 C568 1.387 . S
C567 H570 0.950 . S
C568 C567 1.387 . S
C568 C571 1.387 . S
H569 C565 0.950 . S
H570 C567 0.950 . S
C571 C562 1.390 . S
C571 H564 0.950 . S
C571 C568 1.387 . S
C572 C573 1.387 . S
C572 H576 0.950 . S
C572 C581 1.390 . S
C573 C572 1.387 . S
C573 C575 1.387 . S
H574 C581 0.950 . S
C575 C573 1.387 . S
C575 C577 1.390 . S
C575 H579 0.950 . S
H576 C572 0.950 . S
C577 C575 1.390 . S
C577 C578 1.387 . S
C577 H580 0.950 . S
C578 C577 1.387 . S
C578 C581 1.387 . S
H579 C575 0.950 . S
H580 C577 0.950 . S
C581 C572 1.390 . S
C581 H574 0.950 . S
C581 C578 1.387 . S
C582 C583 1.387 . S
C582 H586 0.950 . S
C582 C591 1.390 . S
C583 C582 1.387 . S
C583 C585 1.387 . S
H584 C591 0.950 . S
C585 C583 1.387 . S
C585 C587 1.390 . S
C585 H589 0.950 . S
H586 C582 0.950 . S
C587 C585 1.390 . S
C587 C588 1.387 . S
C587 H590 0.950 . S
C588 C587 1.387 . S
C588 C591 1.387 . S
H589 C585 0.950 . S
H590 C587 0.950 . S
C591 C582 1.390 . S
C591 H584 0.950 . S
C591 C588 1.387 . S
C592 C593 1.387 . S
C592 H596 0.950 . S
C592 C601 1.390 1_554 S
C593 C592 1.387 . S
C593 C595 1.387 . S
H594 C601 0.950 . S
C595 C593 1.387 . S
C595 C597 1.390 1_554 S
C595 H599 0.950 . S
H596 C592 0.950 . S
C597 C595 1.390 1_556 S
C597 C598 1.387 . S
C597 H600 0.950 . S
C598 C597 1.387 . S
C598 C601 1.387 . S
H599 C595 0.950 . S
H600 C597 0.950 . S
C601 C592 1.390 1_556 S
C601 H594 0.950 . S
C601 C598 1.387 . S
C602 C603 1.387 . S
C602 H606 0.950 . S
C602 C611 1.390 1_554 S
C603 C602 1.387 . S
C603 C605 1.387 . S
H604 C611 0.950 . S
C605 C603 1.387 . S
C605 C607 1.390 1_554 S
C605 H609 0.950 . S
H606 C602 0.950 . S
C607 C605 1.390 1_556 S
C607 C608 1.387 . S
C607 H610 0.950 . S
C608 C607 1.387 . S
C608 C611 1.387 . S
H609 C605 0.950 . S
H610 C607 0.950 . S
C611 C602 1.390 1_556 S
C611 H604 0.950 . S
C611 C608 1.387 . S
C612 C613 1.387 . S
C612 H616 0.950 . S
C612 C621 1.390 1_556 S
C613 C612 1.387 . S
C613 C615 1.387 . S
H614 C621 0.950 . S
C615 C613 1.387 . S
C615 C617 1.390 1_556 S
C615 H619 0.950 . S
H616 C612 0.950 . S
C617 C615 1.390 1_554 S
C617 C618 1.387 . S
C617 H620 0.950 . S
C618 C617 1.387 . S
C618 C621 1.387 . S
H619 C615 0.950 . S
H620 C617 0.950 . S
C621 C612 1.390 1_554 S
C621 H614 0.950 . S
C621 C618 1.387 . S
C622 C623 1.387 . S
C622 H626 0.950 . S
C622 C631 1.390 1_554 S
C623 C622 1.387 . S
C623 C625 1.387 . S
H624 C631 0.950 . S
C625 C623 1.387 . S
C625 C627 1.390 1_554 S
C625 H629 0.950 . S
H626 C622 0.950 . S
C627 C625 1.390 1_556 S
C627 C628 1.387 . S
C627 H630 0.950 . S
C628 C627 1.387 . S
C628 C631 1.387 . S
H629 C625 0.950 . S
H630 C627 0.950 . S
C631 C622 1.390 1_556 S
C631 H624 0.950 . S
C631 C628 1.387 . S
C632 C633 1.387 . S
C632 H636 0.950 . S
C632 C641 1.390 . S
C633 C632 1.387 . S
C633 C635 1.387 . S
H634 C641 0.950 . S
C635 C633 1.387 . S
C635 C637 1.390 . S
C635 H639 0.950 . S
H636 C632 0.950 . S
C637 C635 1.390 . S
C637 C638 1.387 . S
C637 H640 0.950 . S
C638 C637 1.387 . S
C638 C641 1.387 . S
H639 C635 0.950 . S
H640 C637 0.950 . S
C641 C632 1.390 . S
C641 H634 0.950 . S
C641 C638 1.387 . S
C642 C643 1.387 . S
C642 H646 0.950 . S
C642 C651 1.390 . S
C643 C642 1.387 . S
C643 C645 1.387 . S
H644 C651 0.950 . S
C645 C643 1.387 . S
C645 C647 1.390 . S
C645 H649 0.950 . S
H646 C642 0.950 . S
C647 C645 1.390 . S
C647 C648 1.387 . S
C647 H650 0.950 . S
C648 C647 1.387 . S
C648 C651 1.387 . S
H649 C645 0.950 . S
H650 C647 0.950 . S
C651 C642 1.390 . S
C651 H644 0.950 . S
C651 C648 1.387 . S
C652 C653 1.387 . S
C652 H656 0.950 . S
C652 C661 1.390 . S
C653 C652 1.387 . S
C653 C655 1.387 . S
H654 C661 0.950 . S
C655 C653 1.387 . S
C655 C657 1.390 . S
C655 H659 0.950 . S
H656 C652 0.950 . S
C657 C655 1.390 . S
C657 C658 1.387 . S
C657 H660 0.950 . S
C658 C657 1.387 . S
C658 C661 1.387 . S
H659 C655 0.950 . S
H660 C657 0.950 . S
C661 C652 1.390 . S
C661 H654 0.950 . S
C661 C658 1.387 . S
C662 C663 1.387 . S
C662 H666 0.950 . S
C662 C671 1.390 . S
C663 C662 1.387 . S
C663 C665 1.387 . S
H664 C671 0.950 . S
C665 C663 1.387 . S
C665 C667 1.390 . S
C665 H669 0.950 . S
H666 C662 0.950 . S
C667 C665 1.390 . S
C667 C668 1.387 . S
C667 H670 0.950 . S
C668 C667 1.387 . S
C668 C671 1.387 . S
H669 C665 0.950 . S
H670 C667 0.950 . S
C671 C662 1.390 . S
C671 H664 0.950 . S
C671 C668 1.387 . S
C672 C673 1.387 . S
C672 H676 0.950 . S
C672 C681 1.390 1_655 S
C673 C672 1.387 . S
C673 C675 1.387 . S
H674 C681 0.950 . S
C675 C673 1.387 . S
C675 C677 1.390 1_655 S
C675 H679 0.950 . S
H676 C672 0.950 . S
C677 C675 1.390 1_455 S
C677 C678 1.387 . S
C677 H680 0.950 . S
C678 C677 1.387 . S
C678 C681 1.387 . S
H679 C675 0.950 . S
H680 C677 0.950 . S
C681 C672 1.390 1_455 S
C681 H674 0.950 . S
C681 C678 1.387 . S
C682 C683 1.387 . S
C682 H686 0.950 . S
C682 C691 1.390 1_545 S
C683 C682 1.387 . S
C683 C685 1.387 . S
H684 C691 0.950 . S
C685 C683 1.387 . S
C685 C687 1.390 1_545 S
C685 H689 0.950 . S
H686 C682 0.950 . S
C687 C685 1.390 1_565 S
C687 C688 1.387 . S
C687 H690 0.950 . S
C688 C687 1.387 . S
C688 C691 1.387 . S
H689 C685 0.950 . S
H690 C687 0.950 . S
C691 C682 1.390 1_565 S
C691 H684 0.950 . S
C691 C688 1.387 . S
C692 C693 1.387 . S
C692 H696 0.950 . S
C692 C701 1.390 1_655 S
C693 C692 1.387 . S
C693 C695 1.387 . S
H694 C701 0.950 . S
C695 C693 1.387 . S
C695 C697 1.390 1_655 S
C695 H699 0.950 . S
H696 C692 0.950 . S
C697 C695 1.390 1_455 S
C697 C698 1.387 . S
C697 H700 0.950 . S
C698 C697 1.387 . S
C698 C701 1.387 . S
H699 C695 0.950 . S
H700 C697 0.950 . S
C701 C692 1.390 1_455 S
C701 H694 0.950 . S
C701 C698 1.387 . S
C702 C703 1.387 . S
C702 H706 0.950 . S
C702 C711 1.390 1_565 S
C703 C702 1.387 . S
C703 C705 1.387 . S
H704 C711 0.950 . S
C705 C703 1.387 . S
C705 C707 1.390 1_565 S
C705 H709 0.950 . S
H706 C702 0.950 . S
C707 C705 1.390 1_545 S
C707 C708 1.387 . S
C707 H710 0.950 . S
C708 C707 1.387 . S
C708 C711 1.387 . S
H709 C705 0.950 . S
H710 C707 0.950 . S
C711 C702 1.390 1_545 S
C711 H704 0.950 . S
C711 C708 1.387 . S
C712 C713 1.387 . S
C712 H716 0.950 . S
C712 C721 1.390 1_655 S
C713 C712 1.387 . S
C713 C715 1.387 . S
H714 C721 0.950 . S
C715 C713 1.387 . S
C715 C717 1.390 1_655 S
C715 H719 0.950 . S
H716 C712 0.950 . S
C717 C715 1.390 1_455 S
C717 C718 1.387 . S
C717 H720 0.950 . S
C718 C717 1.387 . S
C718 C721 1.387 . S
H719 C715 0.950 . S
H720 C717 0.950 . S
C721 C712 1.390 1_455 S
C721 H714 0.950 . S
C721 C718 1.387 . S
C722 C723 1.387 . S
C722 H726 0.950 . S
C722 C731 1.390 1_565 S
C723 C722 1.387 . S
C723 C725 1.387 . S
H724 C731 0.950 . S
C725 C723 1.387 . S
C725 C727 1.390 1_565 S
C725 H729 0.950 . S
H726 C722 0.950 . S
C727 C725 1.390 1_545 S
C727 C728 1.387 . S
C727 H730 0.950 . S
C728 C727 1.387 . S
C728 C731 1.387 . S
H729 C725 0.950 . S
H730 C727 0.950 . S
C731 C722 1.390 1_545 S
C731 H724 0.950 . S
C731 C728 1.387 . S
C732 C733 1.387 . S
C732 H736 0.950 . S
C732 C741 1.390 1_455 S
C733 C732 1.387 . S
C733 C735 1.387 . S
H734 C741 0.950 . S
C735 C733 1.387 . S
C735 C737 1.390 1_455 S
C735 H739 0.950 . S
H736 C732 0.950 . S
C737 C735 1.390 1_655 S
C737 C738 1.387 . S
C737 H740 0.950 . S
C738 C737 1.387 . S
C738 C741 1.387 . S
H739 C735 0.950 . S
H740 C737 0.950 . S
C741 C732 1.390 1_655 S
C741 H734 0.950 . S
C741 C738 1.387 . S
C742 C743 1.387 . S
C742 H746 0.950 . S
C742 C751 1.390 1_565 S
C743 C742 1.387 . S
C743 C745 1.387 . S
H744 C751 0.950 . S
C745 C743 1.387 . S
C745 C747 1.390 1_565 S
C745 H749 0.950 . S
H746 C742 0.950 . S
C747 C745 1.390 1_545 S
C747 C748 1.387 . S
C747 H750 0.950 . S
C748 C747 1.387 . S
C748 C751 1.387 . S
H749 C745 0.950 . S
H750 C747 0.950 . S
C751 C742 1.390 1_545 S
C751 H744 0.950 . S
C751 C748 1.387 . S
C752 C753 1.387 . S
C752 H756 0.950 . S
C752 C761 1.390 1_455 S
C753 C752 1.387 . S
C753 C755 1.387 . S
H754 C761 0.950 . S
C755 C753 1.387 . S
C755 C757 1.390 1_455 S
C755 H759 0.950 . S
H756 C752 0.950 . S
C757 C755 1.390 1_655 S
C757 C758 1.387 . S
C757 H760 0.950 . S
C758 C757 1.387 . S
C758 C761 1.387 . S
H759 C755 0.950 . S
H760 C757 0.950 . S
C761 C752 1.390 1_655 S
C761 H754 0.950 . S
C761 C758 1.387 . S
C762 C763 1.387 . S
C762 H766 0.950 . S
C762 C771 1.390 1_545 S
C763 C762 1.387 . S
C763 C765 1.387 . S
H764 C771 0.950 . S
C765 C763 1.387 . S
C765 C767 1.390 1_545 S
C765 H769 0.950 . S
H766 C762 0.950 . S
C767 C765 1.390 1_565 S
C767 C768 1.387 . S
C767 H770 0.950 . S
C768 C767 1.387 . S
C768 C771 1.387 . S
H769 C765 0.950 . S
H770 C767 0.950 . S
C771 C762 1.390 1_565 S
C771 H764 0.950 . S
C771 C768 1.387 . S
C772 C773 1.387 . S
C772 H776 0.950 . S
C772 C781 1.390 1_455 S
C773 C772 1.387 . S
C773 C775 1.387 . S
H774 C781 0.950 . S
C775 C773 1.387 . S
C775 C777 1.390 1_455 S
C775 H779 0.950 . S
H776 C772 0.950 . S
C777 C775 1.390 1_655 S
C777 C778 1.387 . S
C777 H780 0.950 . S
C778 C777 1.387 . S
C778 C781 1.387 . S
H779 C775 0.950 . S
H780 C777 0.950 . S
C781 C772 1.390 1_655 S
C781 H774 0.950 . S
C781 C778 1.387 . S
C782 C783 1.387 . S
C782 H786 0.950 . S
C782 C791 1.390 1_565 S
C783 C782 1.387 . S
C783 C785 1.387 . S
H784 C791 0.950 . S
C785 C783 1.387 . S
C785 C787 1.390 1_565 S
C785 H789 0.950 . S
H786 C782 0.950 . S
C787 C785 1.390 1_545 S
C787 C788 1.387 . S
C787 H790 0.950 . S
C788 C787 1.387 . S
C788 C791 1.387 . S
H789 C785 0.950 . S
H790 C787 0.950 . S
C791 C782 1.390 1_545 S
C791 H784 0.950 . S
C791 C788 1.387 . S
C792 C793 1.387 . S
C792 H796 0.950 . S
C792 C801 1.390 1_455 S
C793 C792 1.387 . S
C793 C795 1.387 . S
H794 C801 0.950 . S
C795 C793 1.387 . S
C795 C797 1.390 1_455 S
C795 H799 0.950 . S
H796 C792 0.950 . S
C797 C795 1.390 1_655 S
C797 C798 1.387 . S
C797 H800 0.950 . S
C798 C797 1.387 . S
C798 C801 1.387 . S
H799 C795 0.950 . S
H800 C797 0.950 . S
C801 C792 1.390 1_655 S
C801 H794 0.950 . S
C801 C798 1.387 . S
C802 C803 1.387 . S
C802 H806 0.950 . S
C802 C811 1.390 1_545 S
C803 C802 1.387 . S
C803 C805 1.387 . S
H804 C811 0.950 . S
C805 C803 1.387 . S
C805 C807 1.390 1_545 S
C805 H809 0.950 . S
H806 C802 0.950 . S
C807 C805 1.390 1_565 S
C807 C808 1.387 . S
C807 H810 0.950 . S
C808 C807 1.387 . S
C808 C811 1.387 . S
H809 C805 0.950 . S
H810 C807 0.950 . S
C811 C802 1.390 1_565 S
C811 H804 0.950 . S
C811 C808 1.387 . S
C812 C813 1.387 . S
C812 H816 0.950 . S
C812 C821 1.390 1_655 S
C813 C812 1.387 . S
C813 C815 1.387 . S
H814 C821 0.950 . S
C815 C813 1.387 . S
C815 C817 1.390 1_655 S
C815 H819 0.950 . S
H816 C812 0.950 . S
C817 C815 1.390 1_455 S
C817 C818 1.387 . S
C817 H820 0.950 . S
C818 C817 1.387 . S
C818 C821 1.387 . S
H819 C815 0.950 . S
H820 C817 0.950 . S
C821 C812 1.390 1_455 S
C821 H814 0.950 . S
C821 C818 1.387 . S
C822 C823 1.387 . S
C822 H826 0.950 . S
C822 C831 1.390 1_565 S
C823 C822 1.387 . S
C823 C825 1.387 . S
H824 C831 0.950 . S
C825 C823 1.387 . S
C825 C827 1.390 1_565 S
C825 H829 0.950 . S
H826 C822 0.950 . S
C827 C825 1.390 1_545 S
C827 C828 1.387 . S
C827 H830 0.950 . S
C828 C827 1.387 . S
C828 C831 1.387 . S
H829 C825 0.950 . S
H830 C827 0.950 . S
C831 C822 1.390 1_545 S
C831 H824 0.950 . S
C831 C828 1.387 . S
C353 C8 1.105 . S
C358 C76 1.119 . S
C363 C18 1.119 . S
C368 C40 1.106 . S
C373 C62 1.105 . S
C378 C32 1.119 . S
C383 C84 1.106 . S
C388 C54 1.119 . S
C393 C120 1.119 . S
C398 C96 1.105 . S
C403 C128 1.106 . S
C408 C150 1.119 . S
C413 C172 1.119 . S
C418 C140 1.105 . S
C423 C106 1.119 . S
C428 C162 1.106 . S
C433 C184 1.107 . S
C438 C260 1.122 . S
C443 C194 1.122 . S
C448 C216 1.107 . S
C453 C208 1.119 . S
C458 C238 1.106 . S
C463 C230 1.122 . S
C468 C250 1.106 . S
C473 C304 1.119 . S
C478 C272 1.104 . S
C483 C326 1.119 . S
C488 C294 1.106 . S
C493 C316 1.105 . S
C498 C338 1.119 . S
C503 C340 1.106 . S
C508 C282 1.122 . S
C513 C21 1.811 . S
C518 C117 1.812 . S
C523 C153 1.813 . S
C528 C29 1.813 . S
C533 C51 1.811 . S
C538 C175 1.811 . S
C543 C73 1.813 . S
C548 C109 1.811 . S
C553 C307 1.811 . S
C558 C197 1.813 . S
C563 C329 1.813 . S
C568 C205 1.811 . S
C573 C227 1.812 . S
C578 C345 1.814 . S
C583 C285 1.813 . S
C588 C263 1.813 . S
C593 C10 1.506 . S
C598 C228 1.506 . S
C603 C30 1.506 . S
C608 C252 1.506 . S
C613 C186 1.506 . S
C618 C52 1.506 . S
C623 C74 1.505 . S
C628 C206 1.506 . S
C633 C98 1.505 . S
C638 C318 1.506 . S
C643 C118 1.506 . S
C648 C348 1.506 . S
C653 C142 1.506 . S
C658 C274 1.506 . S
C663 C296 1.506 . S
C668 C164 1.506 . S
C673 C7 0.804 1_655 S
C678 C139 0.804 1_455 S
C683 C161 0.798 1_545 S
C688 C37 0.798 1_565 S
C693 C95 0.798 1_655 S
C698 C59 0.798 1_455 S
C703 C125 0.804 1_565 S
C708 C81 0.804 1_545 S
C713 C315 0.804 1_655 S
C718 C183 0.804 1_455 S
C723 C351 0.804 1_565 S
C728 C213 0.804 1_545 S
C733 C271 0.804 1_455 S
C738 C235 0.804 1_655 S
C743 C249 0.798 1_565 S
C748 C293 0.798 1_545 S
C753 C15 2.125 . S
C758 C65 2.125 . S
C763 C43 2.129 . S
C768 C87 2.129 . S
C773 C103 2.129 . S
C778 C147 2.129 . S
C783 C169 2.129 . S
C788 C131 2.129 . S
C793 C241 2.129 . S
C798 C191 2.129 . S
C803 C257 2.125 . S
C808 C219 2.125 . S
C813 C279 2.125 . S
C818 C323 2.125 . S
C823 C301 2.125 . S
C828 C337 2.125 . S
