# Generated by pormake.
# Topology vbm, (6)-cn, num edge types: 1
# Building blocks:
#     Node 0, Type 0, BuildingBlock: CUWYAW_clean_sbu_0, # of connection points: 6
#     Node 1, Type 0, BuildingBlock: CUWYAW_clean_sbu_0, # of connection points: 6
#     Node 2, Type 0, BuildingBlock: CUWYAW_clean_sbu_0, # of connection points: 6
#     Node 3, Type 0, BuildingBlock: CUWYAW_clean_sbu_0, # of connection points: 6
#     Node 4, Type 0, BuildingBlock: CUWYAW_clean_sbu_0, # of connection points: 6
#     Node 5, Type 0, BuildingBlock: CUWYAW_clean_sbu_0, # of connection points: 6
#     Node 6, Type 0, BuildingBlock: CUWYAW_clean_sbu_0, # of connection points: 6
#     Node 7, Type 0, BuildingBlock: CUWYAW_clean_sbu_0, # of connection points: 6
#     Node 8, Type 0, BuildingBlock: CUWYAW_clean_sbu_0, # of connection points: 6
#     Node 9, Type 0, BuildingBlock: CUWYAW_clean_sbu_0, # of connection points: 6
#     Node 10, Type 0, BuildingBlock: CUWYAW_clean_sbu_0, # of connection points: 6
#     Node 11, Type 0, BuildingBlock: CUWYAW_clean_sbu_0, # of connection points: 6
#     Node 12, Type 0, BuildingBlock: CUWYAW_clean_sbu_0, # of connection points: 6
#     Node 13, Type 0, BuildingBlock: CUWYAW_clean_sbu_0, # of connection points: 6
#     Node 14, Type 0, BuildingBlock: CUWYAW_clean_sbu_0, # of connection points: 6
#     Node 15, Type 0, BuildingBlock: CUWYAW_clean_sbu_0, # of connection points: 6
#     Edge 16, Type (0, 0), BuildingBlock: CIFDUS_clean_linker_0, # of connection points: 2
#     Edge 17, Type (0, 0), BuildingBlock: CIFDUS_clean_linker_0, # of connection points: 2
#     Edge 18, Type (0, 0), BuildingBlock: CIFDUS_clean_linker_0, # of connection points: 2
#     Edge 19, Type (0, 0), BuildingBlock: CIFDUS_clean_linker_0, # of connection points: 2
#     Edge 20, Type (0, 0), BuildingBlock: CIFDUS_clean_linker_0, # of connection points: 2
#     Edge 21, Type (0, 0), BuildingBlock: CIFDUS_clean_linker_0, # of connection points: 2
#     Edge 22, Type (0, 0), BuildingBlock: CIFDUS_clean_linker_0, # of connection points: 2
#     Edge 23, Type (0, 0), BuildingBlock: CIFDUS_clean_linker_0, # of connection points: 2
#     Edge 24, Type (0, 0), BuildingBlock: CIFDUS_clean_linker_0, # of connection points: 2
#     Edge 25, Type (0, 0), BuildingBlock: CIFDUS_clean_linker_0, # of connection points: 2
#     Edge 26, Type (0, 0), BuildingBlock: CIFDUS_clean_linker_0, # of connection points: 2
#     Edge 27, Type (0, 0), BuildingBlock: CIFDUS_clean_linker_0, # of connection points: 2
#     Edge 28, Type (0, 0), BuildingBlock: CIFDUS_clean_linker_0, # of connection points: 2
#     Edge 29, Type (0, 0), BuildingBlock: CIFDUS_clean_linker_0, # of connection points: 2
#     Edge 30, Type (0, 0), BuildingBlock: CIFDUS_clean_linker_0, # of connection points: 2
#     Edge 31, Type (0, 0), BuildingBlock: CIFDUS_clean_linker_0, # of connection points: 2
#     Edge 32, Type (0, 0), BuildingBlock: CIFDUS_clean_linker_0, # of connection points: 2
#     Edge 33, Type (0, 0), BuildingBlock: CIFDUS_clean_linker_0, # of connection points: 2
#     Edge 34, Type (0, 0), BuildingBlock: CIFDUS_clean_linker_0, # of connection points: 2
#     Edge 35, Type (0, 0), BuildingBlock: CIFDUS_clean_linker_0, # of connection points: 2
#     Edge 36, Type (0, 0), BuildingBlock: CIFDUS_clean_linker_0, # of connection points: 2
#     Edge 37, Type (0, 0), BuildingBlock: CIFDUS_clean_linker_0, # of connection points: 2
#     Edge 38, Type (0, 0), BuildingBlock: CIFDUS_clean_linker_0, # of connection points: 2
#     Edge 39, Type (0, 0), BuildingBlock: CIFDUS_clean_linker_0, # of connection points: 2
#     Edge 40, Type (0, 0), BuildingBlock: CIFDUS_clean_linker_0, # of connection points: 2
#     Edge 41, Type (0, 0), BuildingBlock: CIFDUS_clean_linker_0, # of connection points: 2
#     Edge 42, Type (0, 0), BuildingBlock: CIFDUS_clean_linker_0, # of connection points: 2
#     Edge 43, Type (0, 0), BuildingBlock: CIFDUS_clean_linker_0, # of connection points: 2
#     Edge 44, Type (0, 0), BuildingBlock: CIFDUS_clean_linker_0, # of connection points: 2
#     Edge 45, Type (0, 0), BuildingBlock: CIFDUS_clean_linker_0, # of connection points: 2
#     Edge 46, Type (0, 0), BuildingBlock: CIFDUS_clean_linker_0, # of connection points: 2
#     Edge 47, Type (0, 0), BuildingBlock: CIFDUS_clean_linker_0, # of connection points: 2
#     Edge 48, Type (0, 0), BuildingBlock: CIFDUS_clean_linker_0, # of connection points: 2
#     Edge 49, Type (0, 0), BuildingBlock: CIFDUS_clean_linker_0, # of connection points: 2
#     Edge 50, Type (0, 0), BuildingBlock: CIFDUS_clean_linker_0, # of connection points: 2
#     Edge 51, Type (0, 0), BuildingBlock: CIFDUS_clean_linker_0, # of connection points: 2
#     Edge 52, Type (0, 0), BuildingBlock: CIFDUS_clean_linker_0, # of connection points: 2
#     Edge 53, Type (0, 0), BuildingBlock: CIFDUS_clean_linker_0, # of connection points: 2
#     Edge 54, Type (0, 0), BuildingBlock: CIFDUS_clean_linker_0, # of connection points: 2
#     Edge 55, Type (0, 0), BuildingBlock: CIFDUS_clean_linker_0, # of connection points: 2
#     Edge 56, Type (0, 0), BuildingBlock: CIFDUS_clean_linker_0, # of connection points: 2
#     Edge 57, Type (0, 0), BuildingBlock: CIFDUS_clean_linker_0, # of connection points: 2
#     Edge 58, Type (0, 0), BuildingBlock: CIFDUS_clean_linker_0, # of connection points: 2
#     Edge 59, Type (0, 0), BuildingBlock: CIFDUS_clean_linker_0, # of connection points: 2
#     Edge 60, Type (0, 0), BuildingBlock: CIFDUS_clean_linker_0, # of connection points: 2
#     Edge 61, Type (0, 0), BuildingBlock: CIFDUS_clean_linker_0, # of connection points: 2
#     Edge 62, Type (0, 0), BuildingBlock: CIFDUS_clean_linker_0, # of connection points: 2
#     Edge 63, Type (0, 0), BuildingBlock: CIFDUS_clean_linker_0, # of connection points: 2
# Relax obj value: 0.058
# Max RMSD: 0.141
# Mean RMSD: 0.141
data_MOF--net-vbm--node1-CUWYAW_clean_sbu_0--edge1-CIFDUS_clean_linker_0
_symmetry_space_group_name_H-M    P1
_symmetry_Int_Tables_number       1
_symmetry_cell_setting            triclinic
loop_
_symmetry_equiv_pos_as_xyz
'x, y, z'
_cell_length_a     48.002212
_cell_length_b     23.991416
_cell_length_c     47.998958
_cell_angle_alpha  90.177454
_cell_angle_beta   90.0569
_cell_angle_gamma 90.22418
loop_
_atom_site_label
_atom_site_type_symbol
_atom_site_fract_x
_atom_site_fract_y
_atom_site_fract_z
_atom_type_partial_charge
C0 C 0.09379 0.28347 0.16678 0.0
Eu1 Eu 0.11157 0.18032 0.1658 0.0
C2 C 0.10237 0.34269 0.16625 0.0
C3 C 0.12878 0.36038 0.1753 0.0
C4 C 0.13557 0.41737 0.17583 0.0
C5 C 0.11602 0.45782 0.16743 0.0
C6 C 0.08974 0.43946 0.15803 0.0
C7 C 0.08306 0.38264 0.15743 0.0
C8 C 0.11393 0.11384 0.21186 0.0
C9 C 0.17849 0.17313 0.16599 0.0
C10 C 0.15625 0.96563 0.16131 0.0
Eu11 Eu 0.13885 0.06876 0.15771 0.0
C12 C 0.14798 0.90631 0.16082 0.0
C13 C 0.12145 0.88876 0.15205 0.0
C14 C 0.11486 0.83168 0.15096 0.0
C15 C 0.13467 0.79116 0.15864 0.0
C16 C 0.16108 0.80942 0.16767 0.0
C17 C 0.16761 0.86626 0.16875 0.0
C18 C 0.13623 0.1305 0.11014 0.0
C19 C 0.07138 0.08168 0.1514 0.0
O20 O 0.09688 0.25451 0.14389 0.0
O21 O 0.09964 0.25472 0.18911 0.0
O22 O 0.09213 0.14237 0.20486 0.0
O23 O 0.13323 0.12197 0.19457 0.0
O24 O 0.15645 0.20351 0.16028 0.0
O25 O 0.17668 0.11882 0.16989 0.0
O26 O 0.14863 0.99545 0.18282 0.0
O27 O 0.15476 0.99327 0.13794 0.0
O28 O 0.15743 0.10053 0.11755 0.0
O29 O 0.11719 0.12612 0.12822 0.0
O30 O 0.09221 0.048 0.15799 0.0
O31 O 0.07492 0.13571 0.14917 0.0
H32 H 0.144 0.33026 0.18224 0.0
H33 H 0.15615 0.4297 0.18284 0.0
H34 H 0.07396 0.46907 0.15183 0.0
H35 H 0.0625 0.3699 0.15051 0.0
H36 H 0.10596 0.91908 0.14592 0.0
H37 H 0.09421 0.81931 0.14421 0.0
H38 H 0.17704 0.77972 0.17333 0.0
H39 H 0.18824 0.87896 0.17548 0.0
C40 C 0.89177 0.75924 0.17498 0.0
Eu41 Eu 0.87193 0.86041 0.17044 0.0
C42 C 0.8843 0.70013 0.17069 0.0
C43 C 0.90322 0.65899 0.1789 0.0
C44 C 0.8965 0.60245 0.17616 0.0
C45 C 0.87063 0.58563 0.16505 0.0
C46 C 0.85173 0.62725 0.1566 0.0
C47 C 0.8585 0.68399 0.15943 0.0
C48 C 0.86191 0.92699 0.21587 0.0
C49 C 0.80894 0.87791 0.16377 0.0
C50 C 0.83521 0.07713 0.15721 0.0
Eu51 Eu 0.85583 0.9762 0.15763 0.0
C52 C 0.84345 0.13649 0.15615 0.0
C53 C 0.8246 0.17544 0.14542 0.0
C54 C 0.83122 0.23231 0.1451 0.0
C55 C 0.85692 0.25162 0.15556 0.0
C56 C 0.87595 0.2122 0.16605 0.0
C57 C 0.86928 0.1552 0.16635 0.0
C58 C 0.8682 0.91652 0.11109 0.0
C59 C 0.92051 0.95112 0.16068 0.0
O60 O 0.89496 0.79018 0.15281 0.0
O61 O 0.87883 0.7854 0.19501 0.0
O62 O 0.85277 0.87632 0.21348 0.0
O63 O 0.87553 0.93986 0.19455 0.0
O64 O 0.82884 0.84274 0.15788 0.0
O65 O 0.81451 0.93148 0.16781 0.0
O66 O 0.84115 0.04971 0.17995 0.0
O67 O 0.83907 0.04736 0.13472 0.0
O68 O 0.87608 0.96743 0.11579 0.0
O69 O 0.85401 0.89851 0.13157 0.0
O70 O 0.90178 0.99109 0.16277 0.0
O71 O 0.91355 0.89809 0.16053 0.0
H72 H 0.92316 0.67064 0.18783 0.0
H73 H 0.91139 0.57194 0.18339 0.0
H74 H 0.83174 0.61603 0.1477 0.0
H75 H 0.84357 0.71519 0.153 0.0
H76 H 0.80457 0.16185 0.1374 0.0
H77 H 0.81624 0.26111 0.13644 0.0
H78 H 0.89581 0.22548 0.17453 0.0
H79 H 0.88415 0.12586 0.17478 0.0
C80 C 0.08555 0.74644 0.39584 0.0
Eu81 Eu 0.10211 0.85013 0.3922 0.0
C82 C 0.09509 0.68808 0.39685 0.0
C83 C 0.1185 0.66967 0.38196 0.0
C84 C 0.12572 0.61306 0.38198 0.0
C85 C 0.10966 0.57387 0.39689 0.0
C86 C 0.08665 0.59304 0.41227 0.0
C87 C 0.07946 0.64944 0.4122 0.0
C88 C 0.10038 0.91229 0.34475 0.0
C89 C 0.16896 0.86129 0.38639 0.0
C90 C 0.14463 0.06697 0.39111 0.0
Eu91 Eu 0.12835 0.96336 0.39663 0.0
C92 C 0.13544 0.12554 0.39096 0.0
C93 C 0.11236 0.14372 0.4064 0.0
C94 C 0.10537 0.20044 0.40702 0.0
C95 C 0.12136 0.23992 0.39223 0.0
C96 C 0.1441 0.22102 0.37639 0.0
C97 C 0.15103 0.1645 0.3758 0.0
C98 C 0.12817 0.90554 0.44556 0.0
C99 C 0.06099 0.94854 0.40397 0.0
O100 O 0.09081 0.7779 0.41753 0.0
O101 O 0.08828 0.77311 0.37228 0.0
O102 O 0.0799 0.88163 0.35352 0.0
O103 O 0.12101 0.90767 0.36088 0.0
O104 O 0.14782 0.82931 0.39364 0.0
O105 O 0.16602 0.9154 0.3827 0.0
O106 O 0.13701 0.03546 0.37017 0.0
O107 O 0.14409 0.04059 0.41488 0.0
O108 O 0.14897 0.93507 0.43651 0.0
O109 O 0.10837 0.90781 0.42822 0.0
O110 O 0.08171 0.98241 0.39697 0.0
O111 O 0.06491 0.89492 0.40765 0.0
H112 H 0.13089 0.69881 0.36998 0.0
H113 H 0.14348 0.59983 0.36977 0.0
H114 H 0.07415 0.56443 0.42444 0.0
H115 H 0.06138 0.66283 0.42391 0.0
H116 H 0.10002 0.11427 0.41826 0.0
H117 H 0.08783 0.2135 0.41958 0.0
H118 H 0.15654 0.2499 0.36431 0.0
H119 H 0.16887 0.15124 0.36368 0.0
C120 C 0.88729 0.30754 0.3957 0.0
Eu121 Eu 0.87375 0.20245 0.3925 0.0
C122 C 0.8762 0.36351 0.40188 0.0
C123 C 0.85124 0.38253 0.38996 0.0
C124 C 0.8432 0.43822 0.39314 0.0
C125 C 0.85996 0.47595 0.40828 0.0
C126 C 0.88424 0.45594 0.42123 0.0
C127 C 0.89228 0.40037 0.41799 0.0
C128 C 0.87455 0.14062 0.34461 0.0
C129 C 0.80698 0.18599 0.39148 0.0
C130 C 0.8339 0.98048 0.37974 0.0
Eu131 Eu 0.84827 0.08073 0.39516 0.0
C132 C 0.83799 0.92205 0.38787 0.0
C133 C 0.86003 0.90652 0.40539 0.0
C134 C 0.8651 0.85014 0.41077 0.0
C135 C 0.84819 0.80838 0.39874 0.0
C136 C 0.82565 0.82447 0.38186 0.0
C137 C 0.82065 0.88079 0.37646 0.0
C138 C 0.85355 0.12126 0.44807 0.0
C139 C 0.91515 0.10386 0.40465 0.0
O140 O 0.89035 0.27285 0.41652 0.0
O141 O 0.87857 0.28317 0.37282 0.0
O142 O 0.89441 0.17425 0.35221 0.0
O143 O 0.85498 0.14262 0.36205 0.0
O144 O 0.82823 0.21859 0.39788 0.0
O145 O 0.80985 0.13209 0.38609 0.0
O146 O 0.85605 1.00657 0.37045 0.0
O147 O 0.81859 1.01147 0.39621 0.0
O148 O 0.84324 0.07265 0.44205 0.0
O149 O 0.86031 0.1454 0.42574 0.0
O150 O 0.89525 0.06847 0.39685 0.0
O151 O 0.91076 0.1575 0.40832 0.0
H152 H 0.83845 0.35496 0.37738 0.0
H153 H 0.82447 0.45219 0.38273 0.0
H154 H 0.89734 0.4835 0.43349 0.0
H155 H 0.91159 0.38658 0.42739 0.0
H156 H 0.87364 0.93789 0.4144 0.0
H157 H 0.88242 0.83922 0.42412 0.0
H158 H 0.81245 0.79348 0.37197 0.0
H159 H 0.80365 0.89208 0.36274 0.0
C160 C 0.83526 0.08219 0.8819 0.0
Eu161 Eu 0.85193 0.98297 0.89637 0.0
C162 C 0.83987 0.14157 0.88901 0.0
C163 C 0.8646 0.15976 0.90185 0.0
C164 C 0.86936 0.21676 0.90658 0.0
C165 C 0.8495 0.25684 0.89857 0.0
C166 C 0.82456 0.23809 0.88614 0.0
C167 C 0.81985 0.18114 0.88141 0.0
C168 C 0.85859 0.93785 0.94832 0.0
C169 C 0.91918 0.97154 0.90887 0.0
C170 C 0.89995 0.76125 0.89543 0.0
Eu171 Eu 0.88317 0.8646 0.89279 0.0
C172 C 0.88941 0.7033 0.89735 0.0
C173 C 0.86324 0.688 0.88663 0.0
C174 C 0.8549 0.63188 0.88614 0.0
C175 C 0.87266 0.58969 0.89615 0.0
C176 C 0.89856 0.60564 0.90757 0.0
C177 C 0.90678 0.66175 0.90816 0.0
C178 C 0.8846 0.93133 0.84704 0.0
C179 C 0.81513 0.87118 0.88804 0.0
O180 O 0.85621 0.05621 0.87019 0.0
O181 O 0.822 0.05124 0.90012 0.0
O182 O 0.84664 0.98553 0.94392 0.0
O183 O 0.86576 0.91807 0.92514 0.0
O184 O 0.89807 1.00343 0.90084 0.0
O185 O 0.91722 0.91673 0.91124 0.0
O186 O 0.89751 0.79342 0.91744 0.0
O187 O 0.89498 0.78759 0.87209 0.0
O188 O 0.90527 0.90049 0.85507 0.0
O189 O 0.86391 0.924 0.86289 0.0
O190 O 0.83764 0.84101 0.89286 0.0
O191 O 0.81577 0.92625 0.88562 0.0
H192 H 0.88043 0.12999 0.90778 0.0
H193 H 0.88893 0.22947 0.91592 0.0
H194 H 0.80859 0.26743 0.88009 0.0
H195 H 0.80063 0.16804 0.87145 0.0
H196 H 0.84955 0.71926 0.878 0.0
H197 H 0.83464 0.62154 0.8776 0.0
H198 H 0.913 0.57459 0.91513 0.0
H199 H 0.92716 0.67253 0.91633 0.0
C200 C 0.16083 0.9578 0.87968 0.0
Eu201 Eu 0.14525 0.05736 0.89506 0.0
C202 C 0.15425 0.89859 0.88604 0.0
C203 C 0.17592 0.86021 0.88996 0.0
C204 C 0.17012 0.80354 0.89448 0.0
C205 C 0.14245 0.78374 0.89509 0.0
C206 C 0.12079 0.82257 0.89135 0.0
C207 C 0.12659 0.87917 0.88698 0.0
C208 C 0.1394 0.09969 0.94762 0.0
C209 C 0.07783 0.06735 0.90741 0.0
C210 C 0.09599 0.27789 0.89744 0.0
Eu211 Eu 0.11357 0.1751 0.89296 0.0
C212 C 0.10556 0.33657 0.89834 0.0
C213 C 0.08603 0.3791 0.89429 0.0
C214 C 0.09434 0.4351 0.89406 0.0
C215 C 0.12249 0.45004 0.89776 0.0
C216 C 0.14208 0.40716 0.90198 0.0
C217 C 0.13366 0.35097 0.90239 0.0
C218 C 0.11512 0.11189 0.84564 0.0
C219 C 0.18164 0.1703 0.8881 0.0
O220 O 0.14142 0.98653 0.86698 0.0
O221 O 0.17399 0.98695 0.89881 0.0
O222 O 0.15232 0.05356 0.94195 0.0
O223 O 0.13062 0.12003 0.92509 0.0
O224 O 0.09911 0.03618 0.89913 0.0
O225 O 0.07954 0.12204 0.91034 0.0
O226 O 0.10164 0.24617 0.9189 0.0
O227 O 0.09872 0.25166 0.87366 0.0
O228 O 0.09349 0.1407 0.85318 0.0
O229 O 0.13462 0.11912 0.86285 0.0
O230 O 0.15886 0.1998 0.89273 0.0
O231 O 0.18154 0.11508 0.88567 0.0
H232 H 0.19742 0.87403 0.8893 0.0
H233 H 0.18738 0.77535 0.89767 0.0
H234 H 0.09923 0.80916 0.89121 0.0
H235 H 0.10938 0.90757 0.88395 0.0
H236 H 0.06426 0.36893 0.891 0.0
H237 H 0.07872 0.46668 0.89034 0.0
H238 H 0.16389 0.41703 0.90515 0.0
H239 H 0.14903 0.31883 0.90577 0.0
C240 C 0.83395 0.97744 0.67444 0.0
Eu241 Eu 0.85003 0.07746 0.66086 0.0
C242 C 0.83934 0.91876 0.6675 0.0
C243 C 0.8632 0.90296 0.65264 0.0
C244 C 0.86897 0.84645 0.6482 0.0
C245 C 0.85096 0.80487 0.65855 0.0
C246 C 0.82672 0.82125 0.67279 0.0
C247 C 0.821 0.87767 0.67722 0.0
C248 C 0.85897 0.12161 0.60945 0.0
C249 C 0.9173 0.10064 0.65488 0.0
C250 C 0.88926 0.30359 0.66843 0.0
Eu251 Eu 0.87537 0.19853 0.66797 0.0
C252 C 0.87907 0.3598 0.66135 0.0
C253 C 0.8531 0.37925 0.67063 0.0
C254 C 0.8455 0.4349 0.66645 0.0
C255 C 0.86372 0.47214 0.65291 0.0
C256 C 0.88915 0.4517 0.64261 0.0
C257 C 0.89676 0.39621 0.64688 0.0
C258 C 0.87256 0.13235 0.71407 0.0
C259 C 0.80857 0.18234 0.66261 0.0
O260 O 0.85425 1.0043 0.68701 0.0
O261 O 0.8213 1.00748 0.6555 0.0
O262 O 0.84839 0.07244 0.61357 0.0
O263 O 0.86395 0.14445 0.63266 0.0
O264 O 0.89718 0.06419 0.66066 0.0
O265 O 0.9129 0.1546 0.65281 0.0
O266 O 0.89525 0.26988 0.64776 0.0
O267 O 0.87746 0.27818 0.68949 0.0
O268 O 0.89358 0.16468 0.7086 0.0
O269 O 0.85433 0.13741 0.69542 0.0
O270 O 0.83029 0.21548 0.659 0.0
O271 O 0.81103 0.12817 0.66711 0.0
H272 H 0.87758 0.93423 0.64494 0.0
H273 H 0.88764 0.83531 0.63687 0.0
H274 H 0.81261 0.79046 0.68138 0.0
H275 H 0.80255 0.88919 0.68885 0.0
H276 H 0.83901 0.35201 0.68184 0.0
H277 H 0.82584 0.4492 0.67482 0.0
H278 H 0.90344 0.47884 0.6316 0.0
H279 H 0.91686 0.38208 0.63949 0.0
C280 C 0.14491 0.07646 0.68083 0.0
Eu281 Eu 0.13164 0.97731 0.66289 0.0
C282 C 0.1401 0.13522 0.6737 0.0
C283 C 0.15771 0.17637 0.68482 0.0
C284 C 0.15255 0.23277 0.67974 0.0
C285 C 0.12961 0.24906 0.66346 0.0
C286 C 0.11233 0.20743 0.65185 0.0
C287 C 0.11755 0.15099 0.65691 0.0
C288 C 0.13049 0.93914 0.60926 0.0
C289 C 0.06564 0.95496 0.64823 0.0
C290 C 0.09199 0.75102 0.65706 0.0
Eu291 Eu 0.10609 0.85556 0.66216 0.0
C292 C 0.10289 0.69431 0.65266 0.0
C293 C 0.08678 0.65601 0.63747 0.0
C294 C 0.09462 0.60007 0.63582 0.0
C295 C 0.11875 0.58117 0.64944 0.0
C296 C 0.13554 0.62024 0.66369 0.0
C297 C 0.12766 0.67632 0.66532 0.0
C298 C 0.10184 0.91618 0.71018 0.0
C299 C 0.17287 0.87249 0.66883 0.0
O300 O 0.12313 0.04842 0.68962 0.0
O301 O 0.16063 0.04765 0.66378 0.0
O302 O 0.1402 0.98755 0.61661 0.0
O303 O 0.12197 0.91406 0.63071 0.0
O304 O 0.08484 0.98985 0.65812 0.0
O305 O 0.07059 0.90174 0.64373 0.0
O306 O 0.0926 0.7856 0.63598 0.0
O307 O 0.09773 0.77507 0.68092 0.0
O308 O 0.08197 0.8848 0.70048 0.0
O309 O 0.12271 0.91334 0.69441 0.0
O310 O 0.15212 0.83922 0.66144 0.0
O311 O 0.16952 0.92638 0.67376 0.0
H312 H 0.17516 0.16491 0.69791 0.0
H313 H 0.16606 0.26364 0.68929 0.0
H314 H 0.09469 0.21848 0.63894 0.0
H315 H 0.10377 0.11972 0.64806 0.0
H316 H 0.0676 0.66906 0.62754 0.0
H317 H 0.0815 0.57141 0.62422 0.0
H318 H 0.15417 0.60712 0.67455 0.0
H319 H 0.14043 0.70515 0.67721 0.0
C320 C 0.58999 0.80237 0.14477 0.0
Eu321 Eu 0.60587 0.69991 0.15335 0.0
C322 C 0.59952 0.86084 0.1468 0.0
C323 C 0.58022 0.90178 0.15446 0.0
C324 C 0.58806 0.95789 0.15574 0.0
C325 C 0.61548 0.97448 0.14941 0.0
C326 C 0.63493 0.93316 0.14196 0.0
C327 C 0.62703 0.87682 0.14069 0.0
C328 C 0.60197 0.64125 0.20185 0.0
C329 C 0.67276 0.69038 0.16351 0.0
C330 C 0.64881 0.4822 0.17486 0.0
Eu331 Eu 0.63448 0.57965 0.15593 0.0
C332 C 0.64295 0.42201 0.17054 0.0
C333 C 0.66484 0.38536 0.16429 0.0
C334 C 0.66017 0.32768 0.16288 0.0
C335 C 0.63351 0.30541 0.16799 0.0
C336 C 0.61147 0.34232 0.17349 0.0
C337 C 0.61609 0.39988 0.17472 0.0
C338 C 0.62887 0.61299 0.10166 0.0
C339 C 0.56888 0.59568 0.13971 0.0
O340 O 0.60119 0.77083 0.12548 0.0
O341 O 0.58589 0.77595 0.16823 0.0
O342 O 0.58189 0.67121 0.19171 0.0
O343 O 0.62309 0.6448 0.18633 0.0
O344 O 0.65098 0.72219 0.15829 0.0
O345 O 0.67137 0.63526 0.1652 0.0
O346 O 0.62867 0.51238 0.18542 0.0
O347 O 0.66305 0.5086 0.15561 0.0
O348 O 0.63894 0.56515 0.1091 0.0
O349 O 0.6226 0.63938 0.12349 0.0
O350 O 0.58782 0.5644 0.15237 0.0
O351 O 0.57354 0.64794 0.13274 0.0
H352 H 0.55887 0.89038 0.15916 0.0
H353 H 0.57239 0.98844 0.16111 0.0
H354 H 0.65629 0.94432 0.13723 0.0
H355 H 0.64232 0.84589 0.13479 0.0
H356 H 0.68577 0.40124 0.16118 0.0
H357 H 0.67763 0.30042 0.15876 0.0
H358 H 0.5906 0.32664 0.1771 0.0
H359 H 0.59869 0.42684 0.17952 0.0
C360 C 0.39383 0.26075 0.1613 0.0
Eu361 Eu 0.37719 0.36452 0.16115 0.0
C362 C 0.38439 0.20206 0.16108 0.0
C363 C 0.40072 0.16216 0.17466 0.0
C364 C 0.3935 0.10567 0.17366 0.0
C365 C 0.36974 0.0876 0.15895 0.0
C366 C 0.35303 0.12798 0.14576 0.0
C367 C 0.3603 0.1847 0.1468 0.0
C368 C 0.37176 0.42848 0.20798 0.0
C369 C 0.31043 0.37268 0.15976 0.0
C370 C 0.33424 0.57957 0.15515 0.0
Eu371 Eu 0.35089 0.47586 0.1526 0.0
C372 C 0.34351 0.63834 0.15323 0.0
C373 C 0.32679 0.67648 0.13882 0.0
C374 C 0.33365 0.73323 0.13837 0.0
C375 C 0.35741 0.75329 0.15243 0.0
C376 C 0.37446 0.71469 0.16646 0.0
C377 C 0.36758 0.65781 0.16686 0.0
C378 C 0.35659 0.41612 0.10453 0.0
C379 C 0.4188 0.46279 0.15356 0.0
O380 O 0.3902 0.28998 0.13862 0.0
O381 O 0.38944 0.2897 0.18395 0.0
O382 O 0.39375 0.39939 0.2023 0.0
O383 O 0.3537 0.42165 0.18923 0.0
O384 O 0.33237 0.3421 0.15399 0.0
O385 O 0.31255 0.42686 0.16408 0.0
O386 O 0.34227 0.55082 0.17681 0.0
O387 O 0.33398 0.55 0.13224 0.0
O388 O 0.33465 0.44441 0.11138 0.0
O389 O 0.37469 0.42008 0.1237 0.0
O390 O 0.39729 0.4967 0.15665 0.0
O391 O 0.41587 0.40882 0.1505 0.0
H392 H 0.41934 0.17468 0.18587 0.0
H393 H 0.40654 0.07614 0.18456 0.0
H394 H 0.33467 0.11567 0.13411 0.0
H395 H 0.34735 0.21479 0.13616 0.0
H396 H 0.3081 0.66245 0.12819 0.0
H397 H 0.3203 0.7614 0.12695 0.0
H398 H 0.39277 0.72857 0.17773 0.0
H399 H 0.38082 0.62931 0.17822 0.0
C400 C 0.59233 0.25488 0.37242 0.0
Eu401 Eu 0.6053 0.36018 0.37621 0.0
C402 C 0.60162 0.19862 0.38067 0.0
C403 C 0.58268 0.16293 0.394 0.0
C404 C 0.58971 0.10753 0.39942 0.0
C405 C 0.61583 0.08641 0.39146 0.0
C406 C 0.63518 0.12286 0.37899 0.0
C407 C 0.62815 0.17839 0.37363 0.0
C408 C 0.60917 0.42987 0.33142 0.0
C409 C 0.67124 0.37567 0.38569 0.0
C410 C 0.64602 0.58101 0.37473 0.0
Eu411 Eu 0.62955 0.48029 0.38644 0.0
C412 C 0.64048 0.63957 0.38184 0.0
C413 C 0.6597 0.68052 0.37378 0.0
C414 C 0.6538 0.73697 0.37782 0.0
C415 C 0.6285 0.75356 0.39001 0.0
C416 C 0.60963 0.71211 0.39887 0.0
C417 C 0.61558 0.65556 0.39482 0.0
C418 C 0.61968 0.43327 0.43692 0.0
C419 C 0.56242 0.45535 0.39042 0.0
O420 O 0.58277 0.28763 0.39208 0.0
O421 O 0.6072 0.28148 0.35378 0.0
O422 O 0.58807 0.39714 0.33576 0.0
O423 O 0.62687 0.42358 0.35047 0.0
O424 O 0.64935 0.34286 0.38845 0.0
O425 O 0.66901 0.42995 0.38131 0.0
O426 O 0.62621 0.55473 0.36113 0.0
O427 O 0.65792 0.5502 0.39383 0.0
O428 O 0.629 0.48367 0.4336 0.0
O429 O 0.61534 0.41094 0.41339 0.0
O430 O 0.58236 0.49279 0.38572 0.0
O431 O 0.56718 0.40145 0.39152 0.0
H432 H 0.5621 0.17757 0.39962 0.0
H433 H 0.57449 0.08101 0.40952 0.0
H434 H 0.6554 0.10799 0.37238 0.0
H435 H 0.6432 0.20492 0.36328 0.0
H436 H 0.67896 0.66888 0.36359 0.0
H437 H 0.66863 0.76763 0.3704 0.0
H438 H 0.59011 0.7234 0.40863 0.0
H439 H 0.60049 0.62442 0.40121 0.0
C440 C 0.38868 0.79696 0.3935 0.0
Eu441 Eu 0.37313 0.69294 0.38892 0.0
C442 C 0.37876 0.85461 0.39633 0.0
C443 C 0.39842 0.89734 0.3998 0.0
C444 C 0.39015 0.95309 0.39987 0.0
C445 C 0.36194 0.96732 0.39646 0.0
C446 C 0.34213 0.9241 0.3937 0.0
C447 C 0.3505 0.86817 0.39365 0.0
C448 C 0.37837 0.63165 0.34119 0.0
C449 C 0.30635 0.67732 0.38127 0.0
C450 C 0.33424 0.47234 0.37095 0.0
Eu451 Eu 0.34728 0.57217 0.38809 0.0
C452 C 0.33853 0.41367 0.37912 0.0
C453 C 0.31595 0.37643 0.37842 0.0
C454 C 0.31969 0.32009 0.38485 0.0
C455 C 0.3462 0.29969 0.39201 0.0
C456 C 0.36875 0.33741 0.39304 0.0
C457 C 0.36495 0.3938 0.38675 0.0
C458 C 0.34807 0.60936 0.44185 0.0
C459 C 0.41297 0.5936 0.40377 0.0
O460 O 0.38579 0.7637 0.41491 0.0
O461 O 0.38361 0.77217 0.36971 0.0
O462 O 0.39817 0.6623 0.35157 0.0
O463 O 0.35701 0.63503 0.3563 0.0
O464 O 0.32721 0.71056 0.38834 0.0
O465 O 0.30948 0.62317 0.37697 0.0
O466 O 0.35617 0.49997 0.3622 0.0
O467 O 0.31792 0.50235 0.38688 0.0
O468 O 0.33852 0.56115 0.43407 0.0
O469 O 0.35681 0.63531 0.42071 0.0
O470 O 0.39397 0.55924 0.39311 0.0
O471 O 0.40786 0.64658 0.40867 0.0
H472 H 0.42038 0.88764 0.40167 0.0
H473 H 0.40603 0.9851 0.40158 0.0
H474 H 0.32021 0.93351 0.39133 0.0
H475 H 0.33506 0.83562 0.39098 0.0
H476 H 0.29538 0.39087 0.37266 0.0
H477 H 0.30177 0.29256 0.38427 0.0
H478 H 0.38952 0.3232 0.39811 0.0
H479 H 0.38277 0.42162 0.3875 0.0
C480 C 0.32893 0.59655 0.87624 0.0
Eu481 Eu 0.34631 0.49757 0.89038 0.0
C482 C 0.33392 0.65603 0.88289 0.0
C483 C 0.35895 0.67413 0.89517 0.0
C484 C 0.36396 0.73115 0.89962 0.0
C485 C 0.34405 0.77135 0.89187 0.0
C486 C 0.31883 0.75269 0.87996 0.0
C487 C 0.31387 0.69573 0.87553 0.0
C488 C 0.3554 0.45446 0.94231 0.0
C489 C 0.41442 0.48652 0.89759 0.0
C490 C 0.39418 0.27619 0.88753 0.0
Eu491 Eu 0.3772 0.37958 0.88556 0.0
C492 C 0.38377 0.21813 0.88954 0.0
C493 C 0.35765 0.20249 0.8788 0.0
C494 C 0.3494 0.14631 0.87847 0.0
C495 C 0.36722 0.10432 0.88859 0.0
C496 C 0.39309 0.12059 0.89997 0.0
C497 C 0.4012 0.17679 0.90046 0.0
C498 C 0.37312 0.4435 0.83883 0.0
C499 C 0.30921 0.38505 0.88565 0.0
O500 O 0.34928 0.5703 0.86363 0.0
O501 O 0.31661 0.56596 0.89524 0.0
O502 O 0.34248 0.50103 0.93775 0.0
O503 O 0.36254 0.43436 0.91912 0.0
O504 O 0.39273 0.51824 0.89109 0.0
O505 O 0.41257 0.43192 0.9007 0.0
O506 O 0.39219 0.30813 0.90966 0.0
O507 O 0.38867 0.3028 0.86441 0.0
O508 O 0.39499 0.41425 0.84499 0.0
O509 O 0.35458 0.43636 0.85704 0.0
O510 O 0.33211 0.35571 0.88965 0.0
O511 O 0.30946 0.44003 0.88233 0.0
H512 H 0.37481 0.64425 0.90091 0.0
H513 H 0.38373 0.74379 0.90855 0.0
H514 H 0.30283 0.78212 0.87413 0.0
H515 H 0.29442 0.68269 0.86602 0.0
H516 H 0.34392 0.23353 0.87003 0.0
H517 H 0.32915 0.13578 0.86995 0.0
H518 H 0.40759 0.08974 0.90761 0.0
H519 H 0.42155 0.18779 0.90863 0.0
C520 C 0.66376 0.46348 0.88377 0.0
Eu521 Eu 0.64112 0.56196 0.88965 0.0
C522 C 0.65694 0.40379 0.88798 0.0
C523 C 0.63163 0.38686 0.89996 0.0
C524 C 0.62483 0.32996 0.90189 0.0
C525 C 0.64313 0.28863 0.89174 0.0
C526 C 0.66865 0.30613 0.88015 0.0
C527 C 0.67543 0.36294 0.8783 0.0
C528 C 0.62349 0.61026 0.93798 0.0
C529 C 0.57455 0.57438 0.89156 0.0
C530 C 0.59994 0.78132 0.88104 0.0
Eu531 Eu 0.61512 0.67653 0.88177 0.0
C532 C 0.60985 0.8393 0.88623 0.0
C533 C 0.63567 0.85852 0.8762 0.0
C534 C 0.64331 0.91484 0.87899 0.0
C535 C 0.62528 0.95356 0.89175 0.0
C536 C 0.59969 0.93379 0.90225 0.0
C537 C 0.59212 0.87746 0.89951 0.0
C538 C 0.61621 0.60913 0.83566 0.0
C539 C 0.6825 0.66869 0.88483 0.0
O540 O 0.64978 0.48882 0.86413 0.0
O541 O 0.66716 0.49474 0.90597 0.0
O542 O 0.62111 0.5576 0.93212 0.0
O543 O 0.63561 0.63535 0.91819 0.0
O544 O 0.59541 0.54249 0.88326 0.0
O545 O 0.57817 0.62785 0.89709 0.0
O546 O 0.596 0.74861 0.90253 0.0
O547 O 0.61036 0.75488 0.85958 0.0
O548 O 0.59511 0.63996 0.84236 0.0
O549 O 0.63544 0.61602 0.85316 0.0
O550 O 0.66023 0.70046 0.88325 0.0
O551 O 0.68078 0.61374 0.887 0.0
H552 H 0.61698 0.41767 0.90747 0.0
H553 H 0.60516 0.3184 0.9113 0.0
H554 H 0.68313 0.27604 0.87168 0.0
H555 H 0.69497 0.37505 0.86873 0.0
H556 H 0.64969 0.83033 0.8656 0.0
H557 H 0.66305 0.92831 0.87037 0.0
H558 H 0.58542 0.96189 0.91259 0.0
H559 H 0.57205 0.86388 0.90732 0.0
C560 C 0.33728 0.48617 0.67443 0.0
Eu561 Eu 0.35159 0.58538 0.65776 0.0
C562 C 0.34059 0.42716 0.66657 0.0
C563 C 0.3643 0.40837 0.65231 0.0
C564 C 0.36759 0.35156 0.64642 0.0
C565 C 0.3472 0.31252 0.65462 0.0
C566 C 0.32324 0.33194 0.6684 0.0
C567 C 0.32002 0.38865 0.67433 0.0
C568 C 0.35443 0.62461 0.6045 0.0
C569 C 0.41744 0.6057 0.64261 0.0
C570 C 0.39385 0.81048 0.65342 0.0
Eu571 Eu 0.37842 0.70657 0.65832 0.0
C572 C 0.3831 0.86779 0.65189 0.0
C573 C 0.3571 0.88211 0.66309 0.0
C574 C 0.3487 0.93795 0.66394 0.0
C575 C 0.36624 0.98049 0.65373 0.0
C576 C 0.39191 0.96545 0.64177 0.0
C577 C 0.4002 0.90969 0.64086 0.0
C578 C 0.38285 0.64387 0.70542 0.0
C579 C 0.31147 0.69177 0.66617 0.0
O580 O 0.35973 0.51236 0.68311 0.0
O581 O 0.32156 0.51679 0.65823 0.0
O582 O 0.34389 0.57654 0.61112 0.0
O583 O 0.36229 0.64904 0.62645 0.0
O584 O 0.3982 0.57121 0.65263 0.0
O585 O 0.4129 0.65923 0.63869 0.0
O586 O 0.38945 0.77762 0.63199 0.0
O587 O 0.39102 0.78496 0.67733 0.0
O588 O 0.40276 0.67531 0.69593 0.0
O589 O 0.36172 0.64788 0.68998 0.0
O590 O 0.33254 0.72518 0.65999 0.0
O591 O 0.31425 0.63725 0.66918 0.0
H592 H 0.38045 0.43746 0.64612 0.0
H593 H 0.38643 0.33809 0.63603 0.0
H594 H 0.30691 0.30329 0.67461 0.0
H595 H 0.30153 0.40241 0.68526 0.0
H596 H 0.34365 0.85033 0.67179 0.0
H597 H 0.32864 0.94787 0.67295 0.0
H598 H 0.40614 0.99695 0.63407 0.0
H599 H 0.42044 0.89945 0.6323 0.0
C600 C 0.64537 0.57149 0.66863 0.0
Eu601 Eu 0.62995 0.47286 0.65175 0.0
C602 C 0.64014 0.63043 0.66216 0.0
C603 C 0.65751 0.67159 0.67363 0.0
C604 C 0.65194 0.72806 0.66918 0.0
C605 C 0.6288 0.74443 0.65318 0.0
C606 C 0.61175 0.70279 0.64123 0.0
C607 C 0.61738 0.64627 0.64568 0.0
C608 C 0.62223 0.43539 0.59832 0.0
C609 C 0.56333 0.45184 0.64073 0.0
C610 C 0.58855 0.2468 0.64776 0.0
Eu611 Eu 0.60356 0.3509 0.6527 0.0
C612 C 0.59942 0.18987 0.64394 0.0
C613 C 0.58338 0.15102 0.62903 0.0
C614 C 0.59142 0.09515 0.62763 0.0
C615 C 0.61568 0.07684 0.64124 0.0
C616 C 0.63231 0.11642 0.65533 0.0
C617 C 0.62424 0.17244 0.65669 0.0
C618 C 0.60162 0.4124 0.70056 0.0
C619 C 0.67086 0.36642 0.65566 0.0
O620 O 0.62439 0.54379 0.67939 0.0
O621 O 0.65925 0.54257 0.65005 0.0
O622 O 0.63171 0.4846 0.60465 0.0
O623 O 0.61752 0.4098 0.62073 0.0
O624 O 0.583 0.48636 0.65004 0.0
O625 O 0.56778 0.39852 0.63587 0.0
O626 O 0.59 0.28096 0.62654 0.0
O627 O 0.59375 0.27121 0.67166 0.0
O628 O 0.58141 0.38054 0.69198 0.0
O629 O 0.62184 0.40931 0.68389 0.0
O630 O 0.64941 0.33305 0.65083 0.0
O631 O 0.66833 0.42095 0.65914 0.0
H632 H 0.67511 0.66007 0.6865 0.0
H633 H 0.66529 0.75889 0.67899 0.0
H634 H 0.59397 0.71387 0.62852 0.0
H635 H 0.60375 0.61498 0.6366 0.0
H636 H 0.56417 0.16365 0.61902 0.0
H637 H 0.5784 0.06613 0.61614 0.0
H638 H 0.65103 0.10381 0.66619 0.0
H639 H 0.63696 0.20171 0.66836 0.0
H640 H 0.18753 0.28413 0.16702 0.0
H641 H 0.23037 0.1261 0.16728 0.0
H642 H 0.27519 0.17485 0.16581 0.0
H643 H 0.30163 0.2617 0.16284 0.0
H644 H 0.25869 0.4197 0.16269 0.0
H645 H 0.21396 0.37097 0.16581 0.0
C646 C 0.20662 0.26017 0.16685 0.0
C647 C 0.20566 0.20157 0.16706 0.0
C648 C 0.2321 0.28833 0.16593 0.0
C649 C 0.2306 0.17124 0.16712 0.0
C650 C 0.25617 0.19906 0.16619 0.0
C651 C 0.28251 0.28565 0.16341 0.0
C652 C 0.28338 0.34423 0.16225 0.0
C653 C 0.25707 0.25751 0.16528 0.0
C654 C 0.25849 0.37458 0.16346 0.0
C655 C 0.23298 0.34678 0.16523 0.0
H656 H 0.79643 0.77146 0.17416 0.0
H657 H 0.75835 0.93155 0.15974 0.0
H658 H 0.71208 0.88713 0.16007 0.0
H659 H 0.6835 0.80182 0.16134 0.0
H660 H 0.72301 0.64222 0.17434 0.0
H661 H 0.76823 0.68812 0.17758 0.0
C662 C 0.77805 0.79693 0.17103 0.0
C663 C 0.78071 0.85456 0.16641 0.0
C664 C 0.75201 0.77121 0.17087 0.0
C665 C 0.75672 0.88706 0.16317 0.0
C666 C 0.7304 0.86163 0.16325 0.0
C667 C 0.70194 0.77696 0.165 0.0
C668 C 0.69988 0.71846 0.1673 0.0
C669 C 0.72792 0.80355 0.16658 0.0
C670 C 0.72399 0.68714 0.17231 0.0
C671 C 0.74984 0.71333 0.17416 0.0
H672 H 0.29404 0.7868 0.37648 0.0
H673 H 0.25577 0.62398 0.38101 0.0
H674 H 0.20964 0.66694 0.38188 0.0
H675 H 0.18064 0.75075 0.38415 0.0
H676 H 0.21927 0.91349 0.38013 0.0
H677 H 0.26508 0.87023 0.37645 0.0
C678 C 0.27566 0.7606 0.37767 0.0
C679 C 0.27837 0.70232 0.37905 0.0
C680 C 0.24936 0.78553 0.37843 0.0
C681 C 0.25427 0.66896 0.37996 0.0
C682 C 0.22791 0.6935 0.3806 0.0
C683 C 0.19905 0.77686 0.38241 0.0
C684 C 0.19656 0.83532 0.38269 0.0
C685 C 0.22528 0.75176 0.38031 0.0
C686 C 0.2206 0.86843 0.38005 0.0
C687 C 0.2468 0.84374 0.37797 0.0
H688 H 0.79589 0.29651 0.39201 0.0
H689 H 0.75585 0.13513 0.38716 0.0
H690 H 0.71029 0.18034 0.38517 0.0
H691 H 0.68228 0.2651 0.38507 0.0
H692 H 0.72242 0.42648 0.38894 0.0
H693 H 0.76796 0.38125 0.3911 0.0
C694 C 0.77726 0.27097 0.39057 0.0
C695 C 0.77928 0.21239 0.38985 0.0
C696 C 0.75131 0.29716 0.38928 0.0
C697 C 0.75488 0.18021 0.38773 0.0
C698 C 0.72886 0.20604 0.38664 0.0
C699 C 0.70093 0.29061 0.38645 0.0
C700 C 0.69894 0.34921 0.38697 0.0
C701 C 0.7269 0.26442 0.38747 0.0
C702 C 0.72338 0.38139 0.38852 0.0
C703 C 0.74938 0.35555 0.38977 0.0
H704 H 0.69245 0.77898 0.87756 0.0
H705 H 0.73444 0.62292 0.89229 0.0
H706 H 0.77921 0.67211 0.89411 0.0
H707 H 0.80588 0.7595 0.89286 0.0
H708 H 0.76349 0.91514 0.87791 0.0
H709 H 0.71907 0.86554 0.87505 0.0
C710 C 0.71131 0.7554 0.88112 0.0
C711 C 0.70998 0.69718 0.88489 0.0
C712 C 0.73682 0.78388 0.88222 0.0
C713 C 0.7348 0.66765 0.88934 0.0
C714 C 0.76038 0.6958 0.89043 0.0
C715 C 0.78703 0.78274 0.88876 0.0
C716 C 0.78815 0.84116 0.88556 0.0
C717 C 0.76157 0.75394 0.88708 0.0
C718 C 0.76334 0.87031 0.88046 0.0
C719 C 0.73791 0.84195 0.87882 0.0
H720 H 0.30247 0.27301 0.88955 0.0
H721 H 0.25596 0.42539 0.87932 0.0
H722 H 0.21251 0.37159 0.87808 0.0
H723 H 0.1881 0.28173 0.88045 0.0
H724 H 0.23491 0.12979 0.89074 0.0
H725 H 0.27834 0.18344 0.89056 0.0
C726 C 0.28294 0.29479 0.88684 0.0
C727 C 0.2826 0.35341 0.8845 0.0
C728 C 0.25821 0.26366 0.88597 0.0
C729 C 0.25691 0.38047 0.88118 0.0
C730 C 0.23208 0.34969 0.88044 0.0
C731 C 0.20774 0.26019 0.8828 0.0
C732 C 0.20818 0.20174 0.88595 0.0
C733 C 0.23253 0.29132 0.88293 0.0
C734 C 0.23393 0.17461 0.8883 0.0
C735 C 0.25875 0.20531 0.88833 0.0
H736 H 0.68292 0.25603 0.65707 0.0
H737 H 0.72151 0.41906 0.65859 0.0
H738 H 0.76746 0.37599 0.66099 0.0
H739 H 0.79642 0.29256 0.66218 0.0
H740 H 0.75788 0.1295 0.66128 0.0
H741 H 0.71187 0.17254 0.65914 0.0
C742 C 0.70132 0.28232 0.6579 0.0
C743 C 0.69873 0.34077 0.65754 0.0
C744 C 0.7276 0.25736 0.65938 0.0
C745 C 0.72287 0.37401 0.65884 0.0
C746 C 0.74915 0.34942 0.66018 0.0
C747 C 0.77801 0.26625 0.66148 0.0
C748 C 0.78062 0.20781 0.66178 0.0
C749 C 0.75172 0.29119 0.66037 0.0
C750 C 0.75648 0.17454 0.6611 0.0
C751 C 0.73018 0.19911 0.65983 0.0
H752 H 0.18555 0.76272 0.67094 0.0
H753 H 0.22312 0.92661 0.672 0.0
H754 H 0.26945 0.88467 0.67246 0.0
H755 H 0.29896 0.80178 0.6702 0.0
H756 H 0.26122 0.63803 0.66921 0.0
H757 H 0.21502 0.67998 0.67121 0.0
C758 C 0.20383 0.78941 0.67135 0.0
C759 C 0.20088 0.84774 0.67117 0.0
C760 C 0.23029 0.76511 0.67156 0.0
C761 C 0.22481 0.8816 0.67209 0.0
C762 C 0.25129 0.85766 0.67227 0.0
C763 C 0.28069 0.77515 0.67052 0.0
C764 C 0.28358 0.71683 0.66932 0.0
C765 C 0.25423 0.79949 0.67163 0.0
C766 C 0.25963 0.68303 0.67008 0.0
C767 C 0.23319 0.70696 0.67115 0.0
H768 H 0.14316 0.95902 0.31494 0.0
H769 H 0.05357 0.95107 0.31982 0.0
H770 H 0.04967 1.01367 0.27993 0.0
H771 H 0.07165 0.0705 0.24311 0.0
H772 H 0.16113 0.0736 0.23604 0.0
H773 H 0.16518 1.01344 0.27696 0.0
C774 C 0.12282 0.97111 0.30725 0.0
C775 C 0.09869 0.95044 0.32041 0.0
C776 C 0.12071 1.00634 0.28378 0.0
C777 C 0.07248 0.96617 0.31005 0.0
C778 C 0.07022 1.0021 0.28723 0.0
C779 C 0.09202 0.05809 0.25059 0.0
C780 C 0.11606 0.07689 0.23663 0.0
C781 C 0.09417 1.02241 0.27385 0.0
C782 C 0.1423 0.05983 0.24641 0.0
C783 C 0.14463 1.02542 0.26985 0.0
H784 H 0.83708 0.06035 0.32763 0.0
H785 H 0.91293 0.14361 0.30315 0.0
H786 H 0.91492 0.08723 0.26076 0.0
H787 H 0.89588 1.01258 0.23095 0.0
H788 H 0.82321 0.92133 0.25761 0.0
H789 H 0.81951 0.98122 0.29901 0.0
C790 C 0.85426 0.06553 0.31323 0.0
C791 C 0.87502 0.10583 0.31883 0.0
C792 C 0.85588 0.03124 0.28928 0.0
C793 C 0.89677 0.11279 0.29954 0.0
C794 C 0.89794 0.08048 0.27524 0.0
C795 C 0.87921 1.00584 0.24582 0.0
C796 C 0.85974 0.96273 0.24114 0.0
C797 C 0.87774 0.03934 0.26996 0.0
C798 C 0.83845 0.95417 0.26075 0.0
C799 C 0.83631 0.98852 0.28439 0.0
H800 H 0.91392 0.09731 0.74877 0.0
H801 H 0.82553 0.08321 0.73443 0.0
H802 H 0.82088 1.02256 0.77511 0.0
H803 H 0.84217 0.97196 0.81476 0.0
H804 H 0.93109 0.98075 0.82665 0.0
H805 H 0.9353 0.04487 0.78739 0.0
C806 C 0.89365 0.08104 0.75462 0.0
C807 C 0.87009 0.09504 0.73866 0.0
C808 C 0.89122 0.04514 0.77775 0.0
C809 C 0.844 0.07312 0.74635 0.0
C810 C 0.84132 0.03846 0.76967 0.0
C811 C 0.8624 0.98822 0.80878 0.0
C812 C 0.88628 0.97177 0.82368 0.0
C813 C 0.86479 1.02403 0.78556 0.0
C814 C 0.9124 0.99265 0.81551 0.0
C815 C 0.91484 0.02938 0.79303 0.0
H816 H 0.07252 0.06842 0.81444 0.0
H817 H 0.16209 0.07435 0.82036 0.0
H818 H 0.16604 1.01622 0.77861 0.0
H819 H 0.14407 0.96301 0.74028 0.0
H820 H 0.05455 0.95159 0.73602 0.0
H821 H 0.05049 1.01225 0.77695 0.0
C822 C 0.09287 0.05701 0.80651 0.0
C823 C 0.11698 0.07598 0.82041 0.0
C824 C 0.09498 1.02246 0.78272 0.0
C825 C 0.14321 0.06036 0.81006 0.0
C826 C 0.14549 0.02712 0.78615 0.0
C827 C 0.12369 0.97389 0.74833 0.0
C828 C 0.09963 0.95295 0.73507 0.0
C829 C 0.12154 1.00786 0.77228 0.0
C830 C 0.07338 0.96704 0.74587 0.0
C831 C 0.07105 1.00182 0.76927 0.0
H832 H 0.56854 0.46961 0.29674 0.0
H833 H 0.65669 0.48 0.31325 0.0
H834 H 0.66254 0.54475 0.27441 0.0
H835 H 0.64262 0.59909 0.23548 0.0
H836 H 0.55407 0.59365 0.22087 0.0
H837 H 0.54834 0.52676 0.25888 0.0
C838 C 0.58901 0.48601 0.29176 0.0
C839 C 0.61217 0.46964 0.30781 0.0
C840 C 0.59215 0.52434 0.26965 0.0
C841 C 0.63852 0.49179 0.30126 0.0
C842 C 0.64189 0.52886 0.279 0.0
C843 C 0.62209 0.58325 0.24069 0.0
C844 C 0.59881 0.6013 0.22533 0.0
C845 C 0.61888 0.54552 0.26302 0.0
C846 C 0.57231 0.58069 0.23244 0.0
C847 C 0.56903 0.54226 0.25415 0.0
H848 H 0.33749 0.58513 0.30899 0.0
H849 H 0.42665 0.59175 0.31929 0.0
H850 H 0.43258 0.52817 0.27978 0.0
H851 H 0.41243 0.47106 0.24173 0.0
H852 H 0.32349 0.46978 0.22934 0.0
H853 H 0.31744 0.5306 0.26992 0.0
C854 C 0.3582 0.57255 0.30255 0.0
C855 C 0.3816 0.59308 0.31711 0.0
C856 C 0.36148 0.53686 0.27934 0.0
C857 C 0.40831 0.57675 0.3084 0.0
C858 C 0.41171 0.54027 0.28581 0.0
C859 C 0.39174 0.48398 0.24801 0.0
C860 C 0.36842 0.46552 0.23265 0.0
C861 C 0.38846 0.52011 0.27105 0.0
C862 C 0.34177 0.48327 0.24082 0.0
C863 C 0.33829 0.51806 0.26405 0.0
H864 H 0.41457 0.48593 0.80622 0.0
H865 H 0.32536 0.48473 0.81634 0.0
H866 H 0.32023 0.54455 0.77544 0.0
H867 H 0.34118 0.59793 0.73662 0.0
H868 H 0.43055 0.60449 0.72861 0.0
H869 H 0.43557 0.54207 0.76852 0.0
C870 C 0.39402 0.49873 0.79941 0.0
C871 C 0.37037 0.48059 0.81421 0.0
C872 C 0.39127 0.53419 0.77615 0.0
C873 C 0.3439 0.49805 0.80531 0.0
C874 C 0.34095 0.53223 0.78188 0.0
C875 C 0.36172 0.58556 0.74363 0.0
C876 C 0.38546 0.60569 0.72961 0.0
C877 C 0.36448 0.55062 0.7671 0.0
C878 C 0.41196 0.5897 0.73907 0.0
C879 C 0.41484 0.55392 0.76189 0.0
H880 H 0.57363 0.56879 0.80358 0.0
H881 H 0.66306 0.56744 0.81152 0.0
H882 H 0.66675 0.50885 0.76985 0.0
H883 H 0.64447 0.457 0.73101 0.0
H884 H 0.55488 0.4525 0.7253 0.0
H885 H 0.5513 0.51412 0.76585 0.0
C886 C 0.59391 0.55572 0.79611 0.0
C887 C 0.61805 0.57282 0.81054 0.0
C888 C 0.59583 0.52086 0.77242 0.0
C889 C 0.64416 0.55494 0.80081 0.0
C890 C 0.64628 0.52146 0.77693 0.0
C891 C 0.6242 0.46968 0.73865 0.0
C892 C 0.59997 0.45034 0.72508 0.0
C893 C 0.62227 0.50407 0.76253 0.0
C894 C 0.57384 0.46668 0.73538 0.0
C895 C 0.57178 0.502 0.75858 0.0
H896 H 0.09757 0.12238 0.98466 0.0
H897 H 0.18635 0.13301 0.97282 0.0
H898 H 0.19309 0.15118 1.02245 0.0
H899 H 0.17451 0.14891 0.07 0.0
H900 H 0.08593 0.13608 0.08299 0.0
H901 H 0.07821 0.13469 0.03249 0.0
C902 C 0.11821 0.13087 0.9929 0.0
C903 C 0.14146 0.12704 0.97515 0.0
C904 C 0.12199 0.13974 1.02182 0.0
C905 C 0.16819 0.1365 0.9861 0.0
C906 C 0.17206 0.14634 1.01452 0.0
C907 C 0.15347 0.14709 0.06175 0.0
C908 C 0.13089 0.14195 0.0802 0.0
C909 C 0.14925 0.14573 0.03273 0.0
C910 C 0.10371 0.14 0.06925 0.0
C911 C 0.0993 0.13886 0.04032 0.0
H912 H 0.82386 0.9 0.98863 0.0
H913 H 0.91021 0.93357 0.97094 0.0
H914 H 0.9218 0.92305 1.02037 0.0
H915 H 0.90594 0.918 0.06934 0.0
H916 H 0.82004 0.87941 0.08698 0.0
H917 H 0.80968 0.87682 0.03699 0.0
C918 C 0.84532 0.90316 0.99558 0.0
C919 C 0.86622 0.91724 0.97627 0.0
C920 C 0.85181 0.89657 1.02406 0.0
C921 C 0.8939 0.92194 0.98541 0.0
C922 C 0.90046 0.91643 1.01371 0.0
C923 C 0.88517 0.90716 0.06214 0.0
C924 C 0.86378 0.89894 0.08178 0.0
C925 C 0.87943 0.90559 0.03334 0.0
C926 C 0.83691 0.88529 0.07228 0.0
C927 C 0.83093 0.88444 0.04368 0.0
H928 H 0.16781 0.90587 0.4857 0.0
H929 H 0.0795 0.88345 0.47365 0.0
H930 H 0.0724 0.88339 0.52424 0.0
H931 H 0.09092 0.90234 0.57201 0.0
H932 H 0.17911 0.92883 0.58264 0.0
H933 H 0.18671 0.91378 0.53292 0.0
C934 C 0.14705 0.89999 0.49414 0.0
C935 C 0.12422 0.89531 0.47588 0.0
C936 C 0.14311 0.9009 0.5232 0.0
C937 C 0.09747 0.88733 0.4872 0.0
C938 C 0.09338 0.88755 0.51618 0.0
C939 C 0.11182 0.90294 0.56345 0.0
C940 C 0.13451 0.91607 0.58094 0.0
C941 C 0.11596 0.89598 0.53444 0.0
C942 C 0.16142 0.91825 0.56957 0.0
C943 C 0.16575 0.91007 0.5411 0.0
H944 H 0.81975 0.14773 0.57198 0.0
H945 H 0.90854 0.14171 0.58357 0.0
H946 H 0.91559 0.15087 0.53307 0.0
H947 H 0.89563 0.14357 0.48512 0.0
H948 H 0.80653 0.14772 0.47473 0.0
H949 H 0.80033 0.15786 0.52496 0.0
C950 C 0.84064 0.15066 0.56347 0.0
C951 C 0.86361 0.14469 0.58133 0.0
C952 C 0.8444 0.15511 0.53449 0.0
C953 C 0.8906 0.14734 0.57018 0.0
C954 C 0.89457 0.1519 0.54127 0.0
C955 C 0.875 0.14913 0.49387 0.0
C956 C 0.85153 0.14559 0.4763 0.0
C957 C 0.87157 0.15357 0.52308 0.0
C958 C 0.82485 0.15115 0.48787 0.0
C959 C 0.82129 0.15637 0.51662 0.0
H960 H 0.65125 0.68073 0.06167 0.0
H961 H 0.58495 0.56356 0.07737 0.0
H962 H 0.57521 0.55677 0.0275 0.0
H963 H 0.59012 0.57331 0.97925 0.0
H964 H 0.65614 0.69064 0.96262 0.0
H965 H 0.66127 0.70887 1.01269 0.0
C966 C 0.63404 0.65543 0.05412 0.0
C967 C 0.61857 0.62314 0.07311 0.0
C968 C 0.62889 0.65096 0.02517 0.0
C969 C 0.5968 0.58935 0.06313 0.0
C970 C 0.59143 0.58503 0.03459 0.0
C971 C 0.60522 0.60378 0.98659 0.0
C972 C 0.62291 0.63011 0.96732 0.0
C973 C 0.60802 0.61395 1.01537 0.0
C974 C 0.64225 0.66981 0.97704 0.0
C975 C 0.6453 0.67998 1.00571 0.0
H976 H 0.39724 0.44012 0.98035 0.0
H977 H 0.30995 0.40968 0.96579 0.0
H978 H 0.30316 0.38772 1.01499 0.0
H979 H 0.32047 0.39155 0.06312 0.0
H980 H 0.40754 0.42284 0.07871 0.0
H981 H 0.41618 0.42921 0.02845 0.0
C982 C 0.37703 0.42657 0.98787 0.0
C983 C 0.35415 0.42573 0.96948 0.0
C984 C 0.37316 0.41516 1.01653 0.0
C985 C 0.32789 0.4097 0.97953 0.0
C986 C 0.32395 0.3977 1.00772 0.0
C987 C 0.34147 0.39839 0.05546 0.0
C988 C 0.36326 0.40718 0.07462 0.0
C989 C 0.34618 0.40242 0.02659 0.0
C990 C 0.39039 0.4158 0.06442 0.0
C991 C 0.39529 0.41987 0.03564 0.0
H992 H 0.58383 0.46813 0.47601 0.0
H993 H 0.64811 0.34749 0.46074 0.0
H994 H 0.65196 0.32962 0.51098 0.0
H995 H 0.64265 0.36183 0.55963 0.0
H996 H 0.57854 0.48378 0.57374 0.0
H997 H 0.56843 0.4868 0.52391 0.0
C998 C 0.59784 0.43626 0.48368 0.0
C999 C 0.61544 0.40869 0.4648 0.0
C1000 C 0.60016 0.42702 0.51253 0.0
C1001 C 0.63397 0.36834 0.47489 0.0
C1002 C 0.6364 0.35873 0.50366 0.0
C1003 C 0.62573 0.3872 0.55179 0.0
C1004 C 0.61115 0.42224 0.57029 0.0
C1005 C 0.6204 0.38957 0.5228 0.0
C1006 C 0.58977 0.45606 0.55989 0.0
C1007 C 0.58416 0.45817 0.53136 0.0
H1008 H 0.31388 0.62161 0.56651 0.0
H1009 H 0.39984 0.66836 0.57713 0.0
H1010 H 0.40519 0.67646 0.52626 0.0
H1011 H 0.38658 0.65521 0.4784 0.0
H1012 H 0.3003 0.60748 0.46991 0.0
H1013 H 0.29364 0.61617 0.51997 0.0
C1014 C 0.33356 0.63522 0.55768 0.0
C1015 C 0.3564 0.64438 0.57539 0.0
C1016 C 0.33641 0.63925 0.52865 0.0
C1017 C 0.38186 0.66173 0.56384 0.0
C1018 C 0.38496 0.66577 0.53474 0.0
C1019 C 0.36618 0.64877 0.48753 0.0
C1020 C 0.3439 0.63076 0.4705 0.0
C1021 C 0.36259 0.65265 0.51681 0.0
C1022 C 0.31769 0.62145 0.4826 0.0
C1023 C 0.31389 0.62605 0.51127 0.0
H1024 H 0.943 0.04453 0.13955 0.0
H1025 H 0.96403 0.88804 0.17806 0.0
H1026 H 0.0135 0.91221 0.17649 0.0
H1027 H 0.05044 0.9807 0.16659 0.0
H1028 H 0.02863 0.13586 0.12677 0.0
H1029 H 0.97991 0.10884 0.12603 0.0
C1030 C 0.95846 1.01588 0.1476 0.0
C1031 C 0.95011 0.96522 0.15921 0.0
C1032 C 0.98671 0.02958 0.14628 0.0
C1033 C 0.97018 0.92761 0.1691 0.0
C1034 C -0.00159 0.9413 0.16821 0.0
C1035 C 0.03505 1.00806 0.15738 0.0
C1036 C 0.04301 0.06042 0.14724 0.0
C1037 C 0.00689 0.9925 0.1571 0.0
C1038 C 0.02294 0.09556 0.13519 0.0
C1039 C -0.00497 0.08031 0.13475 0.0
H1040 H 0.93248 0.99666 0.40773 0.0
H1041 H 0.96262 0.16652 0.40762 0.0
H1042 H 0.01056 0.13372 0.40825 0.0
H1043 H 0.04406 0.05667 0.40644 0.0
H1044 H 0.01349 0.88704 0.40733 0.0
H1045 H 0.96577 0.92008 0.40885 0.0
C1046 C 0.94953 0.0265 0.40799 0.0
C1047 C 0.94397 0.08377 0.40742 0.0
C1048 C 0.97706 1.0075 0.40838 0.0
C1049 C 0.9663 0.12201 0.40807 0.0
C1050 C -0.00623 0.10339 0.40832 0.0
C1051 C 0.02695 0.02703 0.4071 0.0
C1052 C 0.03235 0.96964 0.4066 0.0
C1053 C -0.0006 0.0462 0.40809 0.0
C1054 C 0.00997 0.93161 0.40771 0.0
C1055 C 0.98259 0.95035 0.40851 0.0
H1056 H 0.02786 0.11842 0.91408 0.0
H1057 H 0.06598 0.95578 0.90997 0.0
H1058 H 0.02011 0.91182 0.9126 0.0
H1059 H 0.96926 0.91973 0.91254 0.0
H1060 H 0.93118 0.08253 0.9143 0.0
H1061 H 0.97714 0.12622 0.91636 0.0
C1062 C 0.02625 0.07332 0.91408 0.0
C1063 C 0.05037 0.04049 0.91167 0.0
C1064 C -0.00018 0.04834 0.91505 0.0
C1065 C 0.04777 0.98211 0.91162 0.0
C1066 C 0.02154 0.95691 0.91312 0.0
C1067 C 0.97094 0.96476 0.91375 0.0
C1068 C 0.94677 0.99779 0.91315 0.0
C1069 C -0.00258 0.98965 0.91432 0.0
C1070 C 0.94941 0.05609 0.91458 0.0
C1071 C 0.97569 0.08114 0.91573 0.0
H1072 H 0.93607 0.99523 0.64487 0.0
H1073 H 0.96394 0.16465 0.6583 0.0
H1074 H 0.01218 0.13525 0.65552 0.0
H1075 H 0.04667 0.06123 0.65173 0.0
H1076 H 0.01935 0.89173 0.63756 0.0
H1077 H 0.97096 0.92163 0.63781 0.0
C1078 C 0.95272 1.02562 0.64711 0.0
C1079 C 0.94636 0.08184 0.65195 0.0
C1080 C 0.98062 1.0086 0.64531 0.0
C1081 C 0.96817 0.12097 0.65451 0.0
C1082 C -0.00414 0.10429 0.65298 0.0
C1083 C 0.03017 0.03087 0.64843 0.0
C1084 C 0.03669 0.97439 0.64488 0.0
C1085 C 0.00233 0.04817 0.64869 0.0
C1086 C 0.015 0.93564 0.64039 0.0
C1087 C 0.98724 0.95257 0.64066 0.0
H1088 H 0.44015 0.55289 0.12713 0.0
H1089 H 0.46084 0.41734 0.18207 0.0
H1090 H 0.50987 0.44413 0.18112 0.0
H1091 H 0.54662 0.50548 0.16466 0.0
H1092 H 0.52685 0.6404 0.10876 0.0
H1093 H 0.47775 0.61369 0.10952 0.0
C1094 C 0.45548 0.52997 0.13909 0.0
C1095 C 0.44727 0.48376 0.15476 0.0
C1096 C 0.48372 0.5447 0.13786 0.0
C1097 C 0.46704 0.45328 0.16989 0.0
C1098 C 0.49498 0.4683 0.16925 0.0
C1099 C 0.53167 0.52855 0.15229 0.0
C1100 C 0.54028 0.57475 0.13675 0.0
C1101 C 0.50357 0.51357 0.15311 0.0
C1102 C 0.52064 0.60459 0.121 0.0
C1103 C 0.49256 0.58963 0.12153 0.0
H1104 H 0.43287 0.48963 0.3944 0.0
H1105 H 0.45845 0.65511 0.41958 0.0
H1106 H 0.50715 0.62723 0.41781 0.0
H1107 H 0.5428 0.5572 0.40626 0.0
H1108 H 0.51649 0.39189 0.38159 0.0
H1109 H 0.46795 0.41865 0.38589 0.0
C1110 C 0.44904 0.51948 0.39984 0.0
C1111 C 0.44197 0.57439 0.40684 0.0
C1112 C 0.47701 0.50347 0.39855 0.0
C1113 C 0.46325 0.61244 0.414 0.0
C1114 C 0.49118 0.59671 0.41286 0.0
C1115 C 0.5264 0.52721 0.40184 0.0
C1116 C 0.53324 0.4729 0.39349 0.0
C1117 C 0.49834 0.54263 0.40459 0.0
C1118 C 0.51181 0.43408 0.38814 0.0
C1119 C 0.48399 0.44924 0.39056 0.0
H1120 H 0.46405 0.43327 0.8979 0.0
H1121 H 0.42777 0.59765 0.90059 0.0
H1122 H 0.47434 0.6394 0.90008 0.0
H1123 H 0.52523 0.62899 0.89691 0.0
H1124 H 0.56081 0.46413 0.89224 0.0
H1125 H 0.51446 0.42282 0.89549 0.0
C1126 C 0.46622 0.47827 0.89868 0.0
C1127 C 0.44242 0.51226 0.89935 0.0
C1128 C 0.49293 0.5019 0.89782 0.0
C1129 C 0.44574 0.57049 0.90004 0.0
C1130 C 0.47235 0.59439 0.89971 0.0
C1131 C 0.52286 0.58401 0.89676 0.0
C1132 C 0.54645 0.54971 0.89426 0.0
C1133 C 0.49608 0.56047 0.89828 0.0
C1134 C 0.54301 0.49152 0.89396 0.0
C1135 C 0.51651 0.46783 0.89588 0.0
H1136 H 0.43462 0.49815 0.63951 0.0
H1137 H 0.46447 0.66804 0.63566 0.0
H1138 H 0.51234 0.63547 0.63343 0.0
H1139 H 0.54601 0.55904 0.6359 0.0
H1140 H 0.51605 0.38918 0.63877 0.0
H1141 H 0.46811 0.42157 0.63788 0.0
C1142 C 0.45159 0.528 0.63795 0.0
C1143 C 0.44598 0.58529 0.63805 0.0
C1144 C 0.47913 0.50911 0.63664 0.0
C1145 C 0.46817 0.62354 0.63567 0.0
C1146 C 0.49562 0.60505 0.6345 0.0
C1147 C 0.52897 0.52919 0.63616 0.0
C1148 C 0.53457 0.47199 0.63767 0.0
C1149 C 0.50137 0.54798 0.63552 0.0
C1150 C 0.51232 0.43361 0.63761 0.0
C1151 C 0.48485 0.452 0.6372 0.0
H1152 H 0.14973 0.7082 0.1947 0.0
H1153 H 0.10534 0.73624 0.1178 0.0
H1154 H 0.09597 0.63646 0.11359 0.0
H1155 H 0.10112 0.54079 0.13117 0.0
H1156 H 0.14531 0.51296 0.20824 0.0
H1157 H 0.1548 0.61261 0.21232 0.0
C1158 C 0.13818 0.69257 0.17688 0.0
C1159 C 0.12826 0.73014 0.15663 0.0
C1160 C 0.13308 0.63488 0.17441 0.0
C1161 C 0.11291 0.70877 0.13396 0.0
C1162 C 0.10772 0.65151 0.1314 0.0
C1163 C 0.11264 0.55642 0.14901 0.0
C1164 C 0.1225 0.51887 0.16932 0.0
C1165 C 0.11774 0.61412 0.15147 0.0
C1166 C 0.13782 0.54031 0.192 0.0
C1167 C 0.14306 0.59755 0.1945 0.0
H1168 H 0.82239 0.33909 0.16747 0.0
H1169 H 0.90693 0.3016 0.14351 0.0
H1170 H 0.91839 0.40084 0.14382 0.0
H1171 H 0.90451 0.49844 0.15076 0.0
H1172 H 0.82009 0.53588 0.17522 0.0
H1173 H 0.80836 0.43684 0.17386 0.0
C1174 C 0.84327 0.35254 0.16202 0.0
C1175 C 0.86375 0.31252 0.15554 0.0
C1176 C 0.84973 0.40988 0.16209 0.0
C1177 C 0.8908 0.3311 0.14899 0.0
C1178 C 0.89735 0.388 0.14897 0.0
C1179 C 0.88357 0.48505 0.15601 0.0
C1180 C 0.86327 0.52503 0.16311 0.0
C1181 C 0.87702 0.42777 0.15558 0.0
C1182 C 0.83611 0.50651 0.16929 0.0
C1183 C 0.82941 0.44967 0.16876 0.0
H1184 H 0.15748 0.32797 0.39587 0.0
H1185 H 0.0698 0.28856 0.391 0.0
H1186 H 0.05857 0.38774 0.39222 0.0
H1187 H 0.0736 0.48572 0.39362 0.0
H1188 H 0.16127 0.52525 0.39857 0.0
H1189 H 0.17252 0.42605 0.3975 0.0
C1190 C 0.13591 0.341 0.39482 0.0
C1191 C 0.11454 0.30057 0.3933 0.0
C1192 C 0.12958 0.39822 0.39531 0.0
C1193 C 0.08668 0.31849 0.3925 0.0
C1194 C 0.08024 0.37531 0.39301 0.0
C1195 C 0.09518 0.47274 0.39478 0.0
C1196 C 0.11653 0.51321 0.39621 0.0
C1197 C 0.10151 0.41554 0.39438 0.0
C1198 C 0.14439 0.4953 0.39712 0.0
C1199 C 0.15085 0.43847 0.39669 0.0
H1200 H 0.89581 0.56363 0.40394 0.0
H1201 H 0.80857 0.52457 0.41415 0.0
H1202 H 0.79729 0.62382 0.41284 0.0
H1203 H 0.81216 0.72174 0.4078 0.0
H1204 H 0.8995 0.75979 0.39746 0.0
H1205 H 0.91079 0.66102 0.40072 0.0
C1206 C 0.87435 0.57673 0.40638 0.0
C1207 C 0.85309 0.53648 0.40915 0.0
C1208 C 0.86802 0.6338 0.4057 0.0
C1209 C 0.82535 0.55447 0.41167 0.0
C1210 C 0.81888 0.61127 0.41105 0.0
C1211 C 0.83366 0.7084 0.40622 0.0
C1212 C 0.85493 0.74829 0.40241 0.0
C1213 C 0.84003 0.6513 0.40782 0.0
C1214 C 0.88272 0.73023 0.40079 0.0
C1215 C 0.8892 0.67364 0.40243 0.0
H1216 H 0.83695 0.343 0.86345 0.0
H1217 H 0.87438 0.30849 0.94332 0.0
H1218 H 0.88432 0.40757 0.94986 0.0
H1219 H 0.88262 0.50436 0.9329 0.0
H1220 H 0.84557 0.5383 0.85275 0.0
H1221 H 0.83451 0.43973 0.8469 0.0
C1222 C 0.84698 0.35708 0.88247 0.0
C1223 C 0.85493 0.31785 0.9028 0.0
C1224 C 0.85256 0.41435 0.8862 0.0
C1225 C 0.86835 0.33727 0.92708 0.0
C1226 C 0.8739 0.39413 0.93094 0.0
C1227 C 0.87225 0.49029 0.91406 0.0
C1228 C 0.86494 0.5293 0.89337 0.0
C1229 C 0.86624 0.43308 0.91058 0.0
C1230 C 0.8511 0.50986 0.86932 0.0
C1231 C 0.84495 0.4532 0.8658 0.0
H1232 H 0.09628 0.54061 0.92036 0.0
H1233 H 0.16844 0.49474 0.87208 0.0
H1234 H 0.18143 0.59295 0.86765 0.0
H1235 H 0.17109 0.69243 0.87555 0.0
H1236 H 0.09929 0.73762 0.9247 0.0
H1237 H 0.08715 0.63956 0.93004 0.0
C1238 C 0.11481 0.55202 0.90877 0.0
C1239 C 0.13124 0.50999 0.89647 0.0
C1240 C 0.12212 0.60873 0.90617 0.0
C1241 C 0.15548 0.52586 0.88199 0.0
C1242 C 0.16284 0.58218 0.87928 0.0
C1243 C 0.15299 0.681 0.88777 0.0
C1244 C 0.13604 0.72306 0.89942 0.0
C1245 C 0.14619 0.62409 0.89108 0.0
C1246 C 0.11247 0.70675 0.91491 0.0
C1247 C 0.10557 0.65043 0.91818 0.0
H1248 H 0.81609 0.71765 0.64646 0.0
H1249 H 0.90198 0.75663 0.66516 0.0
H1250 H 0.91356 0.6578 0.66383 0.0
H1251 H 0.89897 0.5602 0.66005 0.0
H1252 H 0.81315 0.52028 0.64157 0.0
H1253 H 0.80179 0.6195 0.64085 0.0
C1254 C 0.83733 0.70452 0.65029 0.0
C1255 C 0.8581 0.7447 0.65591 0.0
C1256 C 0.84383 0.6474 0.64984 0.0
C1257 C 0.88562 0.72686 0.66041 0.0
C1258 C 0.89224 0.67024 0.65988 0.0
C1259 C 0.87785 0.57307 0.65537 0.0
C1260 C 0.85697 0.53261 0.65088 0.0
C1261 C 0.87148 0.63014 0.65489 0.0
C1262 C 0.8296 0.55035 0.64545 0.0
C1263 C 0.8231 0.60714 0.64489 0.0
H1264 H 0.16583 0.33492 0.65336 0.0
H1265 H 0.07854 0.29865 0.66547 0.0
H1266 H 0.06755 0.39742 0.66128 0.0
H1267 H 0.08277 0.49438 0.65619 0.0
H1268 H 0.16997 0.53165 0.64431 0.0
H1269 H 0.18099 0.43237 0.64707 0.0
C1270 C 0.14442 0.34865 0.65518 0.0
C1271 C 0.12306 0.30923 0.65969 0.0
C1272 C 0.13823 0.40576 0.65302 0.0
C1273 C 0.09537 0.3278 0.6616 0.0
C1274 C 0.08907 0.3844 0.65941 0.0
C1275 C 0.10416 0.48084 0.65376 0.0
C1276 C 0.12549 0.52059 0.64998 0.0
C1277 C 0.11033 0.42375 0.65529 0.0
C1278 C 0.15316 0.50213 0.64751 0.0
C1279 C 0.15946 0.4453 0.64896 0.0
H1280 H 0.59996 0.05324 0.18741 0.0
H1281 H 0.64855 0.03177 0.11259 0.0
H1282 H 0.65922 0.13148 0.11214 0.0
H1283 H 0.65303 0.22589 0.13191 0.0
H1284 H 0.60353 0.24658 0.20619 0.0
H1285 H 0.59452 0.14652 0.20755 0.0
C1286 C 0.61276 0.07032 0.17088 0.0
C1287 C 0.62331 0.03481 0.15001 0.0
C1288 C 0.61847 0.12784 0.1705 0.0
C1289 C 0.64037 0.05778 0.12912 0.0
C1290 C 0.64632 0.11498 0.12872 0.0
C1291 C 0.64045 0.20841 0.1485 0.0
C1292 C 0.62877 0.24394 0.16876 0.0
C1293 C 0.63528 0.15054 0.14917 0.0
C1294 C 0.61236 0.22051 0.19002 0.0
C1295 C 0.60733 0.16316 0.19093 0.0
H1296 H 0.32145 0.84106 0.15746 0.0
H1297 H 0.40874 0.80294 0.14796 0.0
H1298 H 0.42008 0.90219 0.14902 0.0
H1299 H 0.40534 0.99991 0.15232 0.0
H1300 H 0.31811 0.03833 0.16197 0.0
H1301 H 0.30663 0.93907 0.16027 0.0
C1302 C 0.34294 0.85437 0.1553 0.0
C1303 C 0.36419 0.81419 0.15268 0.0
C1304 C 0.34935 0.91172 0.15577 0.0
C1305 C 0.39196 0.83258 0.1504 0.0
C1306 C 0.39847 0.88947 0.15083 0.0
C1307 C 0.38381 0.98668 0.15431 0.0
C1308 C 0.36266 0.0269 0.15737 0.0
C1309 C 0.37736 0.92941 0.15359 0.0
C1310 C 0.33484 1.00864 0.1593 0.0
C1311 C 0.32826 0.95174 0.15852 0.0
H1312 H 0.58107 0.9982 0.38251 0.0
H1313 H 0.66517 0.03859 0.40752 0.0
H1314 H 0.67624 0.9394 0.41027 0.0
H1315 H 0.66232 0.84109 0.40442 0.0
H1316 H 0.57819 0.80164 0.37906 0.0
H1317 H 0.56666 0.90049 0.37859 0.0
C1318 C 0.60171 0.98545 0.38905 0.0
C1319 C 0.62224 0.02603 0.39476 0.0
C1320 C 0.60791 0.92839 0.39067 0.0
C1321 C 0.64903 1.00842 0.40264 0.0
C1322 C 0.65535 0.95165 0.40436 0.0
C1323 C 0.64146 0.85412 0.39876 0.0
C1324 C 0.62118 0.81378 0.39178 0.0
C1325 C 0.63503 0.91126 0.39815 0.0
C1326 C 0.59414 0.83151 0.38491 0.0
C1327 C 0.58757 0.88816 0.38439 0.0
H1328 H 0.38121 0.05556 0.4271 0.0
H1329 H 0.3243 1.01358 0.36052 0.0
H1330 H 0.31355 0.11207 0.35413 0.0
H1331 H 0.32257 0.21049 0.36531 0.0
H1332 H 0.37958 0.25256 0.43181 0.0
H1333 H 0.38858 0.15384 0.43975 0.0
C1334 C 0.36648 0.06792 0.41115 0.0
C1335 C 0.3537 0.02702 0.39426 0.0
C1336 C 0.36067 0.12478 0.40728 0.0
C1337 C 0.33425 0.0439 0.37405 0.0
C1338 C 0.32826 0.10035 0.3702 0.0
C1339 C 0.33663 0.19818 0.38185 0.0
C1340 C 0.35049 0.23923 0.39779 0.0
C1341 C 0.34161 0.1412 0.38645 0.0
C1342 C 0.36898 0.22214 0.41885 0.0
C1343 C 0.37401 0.16559 0.42355 0.0
H1344 H 0.33116 0.85727 0.85672 0.0
H1345 H 0.36969 0.82324 0.93611 0.0
H1346 H 0.37974 0.92237 0.94236 0.0
H1347 H 0.37772 1.01909 0.92532 0.0
H1348 H 0.33975 0.05245 0.84553 0.0
H1349 H 0.32862 0.95387 0.84 0.0
C1350 C 0.34147 0.87147 0.87557 0.0
C1351 C 0.34966 0.83236 0.89587 0.0
C1352 C 0.34714 0.92876 0.87912 0.0
C1353 C 0.36344 0.85193 0.91991 0.0
C1354 C 0.36907 0.90882 0.9236 0.0
C1355 C 0.36716 1.00491 0.90662 0.0
C1356 C 0.35958 0.04381 0.88596 0.0
C1357 C 0.36113 0.94765 0.90329 0.0
C1358 C 0.34548 1.02416 0.86209 0.0
C1359 C 0.33929 0.96748 0.85875 0.0
H1360 H 0.67669 0.19777 0.90131 0.0
H1361 H 0.59157 0.24187 0.88275 0.0
H1362 H 0.57855 0.14357 0.88201 0.0
H1363 H 0.59139 0.04447 0.88489 0.0
H1364 H 0.67655 1.00002 0.90286 0.0
H1365 H 0.68943 0.09852 0.90477 0.0
C1366 C 0.6553 0.18605 0.89691 0.0
C1367 C 0.63522 0.22791 0.89217 0.0
C1368 C 0.64792 0.129 0.89614 0.0
C1369 C 0.60752 0.21123 0.88696 0.0
C1370 C 0.60003 0.15473 0.88629 0.0
C1371 C 0.61272 0.05616 0.88956 0.0
C1372 C 0.63291 1.01428 0.89365 0.0
C1373 C 0.62005 0.11319 0.89073 0.0
C1374 C 0.66055 0.03085 0.89921 0.0
C1375 C 0.66795 0.08739 0.90048 0.0
H1376 H 0.37446 0.06552 0.6167 0.0
H1377 H 0.34145 0.03073 0.69849 0.0
H1378 H 0.33181 0.12948 0.70547 0.0
H1379 H 0.33501 0.22633 0.68953 0.0
H1380 H 0.36845 0.26178 0.60802 0.0
H1381 H 0.37638 0.16244 0.60016 0.0
C1382 C 0.36523 0.0795 0.6361 0.0
C1383 C 0.35872 0.04044 0.65701 0.0
C1384 C 0.36012 0.13665 0.6402 0.0
C1385 C 0.34633 0.05946 0.68182 0.0
C1386 C 0.34103 0.11612 0.68596 0.0
C1387 C 0.34367 0.21237 0.66987 0.0
C1388 C 0.35117 0.25172 0.64945 0.0
C1389 C 0.34808 0.15514 0.66542 0.0
C1390 C 0.36284 0.23267 0.6243 0.0
C1391 C 0.36723 0.17577 0.6197 0.0
H1392 H 0.66448 0.83174 0.64403 0.0
H1393 H 0.5774 0.79268 0.65556 0.0
H1394 H 0.56575 0.89127 0.65212 0.0
H1395 H 0.58029 0.98881 0.64766 0.0
H1396 H 0.66727 0.02877 0.63626 0.0
H1397 H 0.67897 0.92979 0.63856 0.0
C1398 C 0.64296 0.8448 0.64591 0.0
C1399 C 0.62186 0.80461 0.65 0.0
C1400 C 0.63639 0.90181 0.64418 0.0
C1401 C 0.59404 0.8224 0.65199 0.0
C1402 C 0.58736 0.87891 0.65024 0.0
C1403 C 0.60179 0.97594 0.64526 0.0
C1404 C 0.62284 1.0164 0.64174 0.0
C1405 C 0.60836 0.91898 0.64647 0.0
C1406 C 0.65065 0.99874 0.63929 0.0
C1407 C 0.65735 0.94207 0.64045 0.0
loop_
_geom_bond_atom_site_label_1
_geom_bond_atom_site_label_2
_geom_bond_distance
_geom_bond_site_symmetry_2
_ccdc_geom_bond_type
C0 Eu1 2.835 . S
C0 C2 1.500 . S
C0 O20 1.257 . S
C0 O21 1.260 . S
Eu1 C0 2.835 . S
Eu1 O20 2.473 . S
Eu1 O21 2.480 . S
Eu1 O22 2.430 . S
Eu1 O23 2.670 . S
Eu1 O24 2.394 . S
Eu1 O29 2.355 . S
Eu1 O31 2.374 . S
C2 C0 1.500 . S
C2 C3 1.377 . S
C2 C7 1.377 . S
C3 C2 1.377 . S
C3 C4 1.395 . S
C3 H32 0.931 . S
C4 C3 1.395 . S
C4 C5 1.383 . S
C4 H33 0.931 . S
C5 C4 1.383 . S
C5 C6 1.394 . S
C6 C5 1.394 . S
C6 C7 1.378 . S
C6 H34 0.931 . S
C7 C2 1.377 . S
C7 C6 1.378 . S
C7 H35 0.931 . S
C8 O22 1.259 . S
C8 O23 1.270 . S
C9 O24 1.251 . S
C9 O25 1.251 . S
C10 Eu11 2.835 1_565 S
C10 C12 1.500 . S
C10 O26 1.257 . S
C10 O27 1.260 . S
Eu11 C10 2.835 1_545 S
Eu11 O23 2.355 . S
Eu11 O25 2.374 . S
Eu11 O26 2.473 1_545 S
Eu11 O27 2.480 1_545 S
Eu11 O28 2.430 . S
Eu11 O29 2.670 . S
Eu11 O30 2.394 . S
C12 C10 1.500 . S
C12 C13 1.377 . S
C12 C17 1.377 . S
C13 C12 1.377 . S
C13 C14 1.395 . S
C13 H36 0.931 . S
C14 C13 1.395 . S
C14 C15 1.383 . S
C14 H37 0.931 . S
C15 C14 1.383 . S
C15 C16 1.394 . S
C16 C15 1.394 . S
C16 C17 1.378 . S
C16 H38 0.931 . S
C17 C12 1.377 . S
C17 C16 1.378 . S
C17 H39 0.931 . S
C18 O28 1.259 . S
C18 O29 1.270 . S
C19 O30 1.251 . S
C19 O31 1.251 . S
O20 C0 1.257 . S
O20 Eu1 2.473 . S
O21 C0 1.260 . S
O21 Eu1 2.480 . S
O22 Eu1 2.430 . S
O22 C8 1.259 . S
O23 Eu1 2.670 . S
O23 C8 1.270 . S
O23 Eu11 2.355 . S
O24 Eu1 2.394 . S
O24 C9 1.251 . S
O25 C9 1.251 . S
O25 Eu11 2.374 . S
O26 C10 1.257 . S
O26 Eu11 2.473 1_565 S
O27 C10 1.260 . S
O27 Eu11 2.480 1_565 S
O28 Eu11 2.430 . S
O28 C18 1.259 . S
O29 Eu1 2.355 . S
O29 Eu11 2.670 . S
O29 C18 1.270 . S
O30 Eu11 2.394 . S
O30 C19 1.251 . S
O31 Eu1 2.374 . S
O31 C19 1.251 . S
H32 C3 0.931 . S
H33 C4 0.931 . S
H34 C6 0.931 . S
H35 C7 0.931 . S
H36 C13 0.931 . S
H37 C14 0.931 . S
H38 C16 0.931 . S
H39 C17 0.931 . S
C40 Eu41 2.835 . S
C40 C42 1.500 . S
C40 O60 1.257 . S
C40 O61 1.260 . S
Eu41 C40 2.835 . S
Eu41 O60 2.473 . S
Eu41 O61 2.480 . S
Eu41 O62 2.430 . S
Eu41 O63 2.670 . S
Eu41 O64 2.394 . S
Eu41 O69 2.355 . S
Eu41 O71 2.374 . S
C42 C40 1.500 . S
C42 C43 1.377 . S
C42 C47 1.377 . S
C43 C42 1.377 . S
C43 C44 1.395 . S
C43 H72 0.931 . S
C44 C43 1.395 . S
C44 C45 1.383 . S
C44 H73 0.931 . S
C45 C44 1.383 . S
C45 C46 1.394 . S
C46 C45 1.394 . S
C46 C47 1.378 . S
C46 H74 0.931 . S
C47 C42 1.377 . S
C47 C46 1.378 . S
C47 H75 0.931 . S
C48 O62 1.259 . S
C48 O63 1.270 . S
C49 O64 1.251 . S
C49 O65 1.251 . S
C50 Eu51 2.835 1_545 S
C50 C52 1.500 . S
C50 O66 1.257 . S
C50 O67 1.260 . S
Eu51 C50 2.835 1_565 S
Eu51 O63 2.355 . S
Eu51 O65 2.374 . S
Eu51 O66 2.473 1_565 S
Eu51 O67 2.480 1_565 S
Eu51 O68 2.430 . S
Eu51 O69 2.670 . S
Eu51 O70 2.394 . S
C52 C50 1.500 . S
C52 C53 1.377 . S
C52 C57 1.377 . S
C53 C52 1.377 . S
C53 C54 1.395 . S
C53 H76 0.931 . S
C54 C53 1.395 . S
C54 C55 1.383 . S
C54 H77 0.931 . S
C55 C54 1.383 . S
C55 C56 1.394 . S
C56 C55 1.394 . S
C56 C57 1.378 . S
C56 H78 0.931 . S
C57 C52 1.377 . S
C57 C56 1.378 . S
C57 H79 0.931 . S
C58 O68 1.259 . S
C58 O69 1.270 . S
C59 O70 1.251 . S
C59 O71 1.251 . S
O60 C40 1.257 . S
O60 Eu41 2.473 . S
O61 C40 1.260 . S
O61 Eu41 2.480 . S
O62 Eu41 2.430 . S
O62 C48 1.259 . S
O63 Eu41 2.670 . S
O63 C48 1.270 . S
O63 Eu51 2.355 . S
O64 Eu41 2.394 . S
O64 C49 1.251 . S
O65 C49 1.251 . S
O65 Eu51 2.374 . S
O66 C50 1.257 . S
O66 Eu51 2.473 1_545 S
O67 C50 1.260 . S
O67 Eu51 2.480 1_545 S
O68 Eu51 2.430 . S
O68 C58 1.259 . S
O69 Eu41 2.355 . S
O69 Eu51 2.670 . S
O69 C58 1.270 . S
O70 Eu51 2.394 . S
O70 C59 1.251 . S
O71 Eu41 2.374 . S
O71 C59 1.251 . S
H72 C43 0.931 . S
H73 C44 0.931 . S
H74 C46 0.931 . S
H75 C47 0.931 . S
H76 C53 0.931 . S
H77 C54 0.931 . S
H78 C56 0.931 . S
H79 C57 0.931 . S
C80 Eu81 2.835 . S
C80 C82 1.500 . S
C80 O100 1.257 . S
C80 O101 1.260 . S
Eu81 C80 2.835 . S
Eu81 O100 2.473 . S
Eu81 O101 2.480 . S
Eu81 O102 2.430 . S
Eu81 O103 2.670 . S
Eu81 O104 2.394 . S
Eu81 O109 2.355 . S
Eu81 O111 2.374 . S
C82 C80 1.500 . S
C82 C83 1.377 . S
C82 C87 1.377 . S
C83 C82 1.377 . S
C83 C84 1.395 . S
C83 H112 0.931 . S
C84 C83 1.395 . S
C84 C85 1.383 . S
C84 H113 0.931 . S
C85 C84 1.383 . S
C85 C86 1.394 . S
C86 C85 1.394 . S
C86 C87 1.378 . S
C86 H114 0.931 . S
C87 C82 1.377 . S
C87 C86 1.378 . S
C87 H115 0.931 . S
C88 O102 1.259 . S
C88 O103 1.270 . S
C89 O104 1.251 . S
C89 O105 1.251 . S
C90 Eu91 2.835 1_545 S
C90 C92 1.500 . S
C90 O106 1.257 . S
C90 O107 1.260 . S
Eu91 C90 2.835 1_565 S
Eu91 O103 2.355 . S
Eu91 O105 2.374 . S
Eu91 O106 2.473 1_565 S
Eu91 O107 2.480 1_565 S
Eu91 O108 2.430 . S
Eu91 O109 2.670 . S
Eu91 O110 2.394 . S
C92 C90 1.500 . S
C92 C93 1.377 . S
C92 C97 1.377 . S
C93 C92 1.377 . S
C93 C94 1.395 . S
C93 H116 0.931 . S
C94 C93 1.395 . S
C94 C95 1.383 . S
C94 H117 0.931 . S
C95 C94 1.383 . S
C95 C96 1.394 . S
C96 C95 1.394 . S
C96 C97 1.378 . S
C96 H118 0.931 . S
C97 C92 1.377 . S
C97 C96 1.378 . S
C97 H119 0.931 . S
C98 O108 1.259 . S
C98 O109 1.270 . S
C99 O110 1.251 . S
C99 O111 1.251 . S
O100 C80 1.257 . S
O100 Eu81 2.473 . S
O101 C80 1.260 . S
O101 Eu81 2.480 . S
O102 Eu81 2.430 . S
O102 C88 1.259 . S
O103 Eu81 2.670 . S
O103 C88 1.270 . S
O103 Eu91 2.355 . S
O104 Eu81 2.394 . S
O104 C89 1.251 . S
O105 C89 1.251 . S
O105 Eu91 2.374 . S
O106 C90 1.257 . S
O106 Eu91 2.473 1_545 S
O107 C90 1.260 . S
O107 Eu91 2.480 1_545 S
O108 Eu91 2.430 . S
O108 C98 1.259 . S
O109 Eu81 2.355 . S
O109 Eu91 2.670 . S
O109 C98 1.270 . S
O110 Eu91 2.394 . S
O110 C99 1.251 . S
O111 Eu81 2.374 . S
O111 C99 1.251 . S
H112 C83 0.931 . S
H113 C84 0.931 . S
H114 C86 0.931 . S
H115 C87 0.931 . S
H116 C93 0.931 . S
H117 C94 0.931 . S
H118 C96 0.931 . S
H119 C97 0.931 . S
C120 Eu121 2.835 . S
C120 C122 1.500 . S
C120 O140 1.257 . S
C120 O141 1.260 . S
Eu121 C120 2.835 . S
Eu121 O140 2.473 . S
Eu121 O141 2.480 . S
Eu121 O142 2.430 . S
Eu121 O143 2.670 . S
Eu121 O144 2.394 . S
Eu121 O149 2.355 . S
Eu121 O151 2.374 . S
C122 C120 1.500 . S
C122 C123 1.377 . S
C122 C127 1.377 . S
C123 C122 1.377 . S
C123 C124 1.395 . S
C123 H152 0.931 . S
C124 C123 1.395 . S
C124 C125 1.383 . S
C124 H153 0.931 . S
C125 C124 1.383 . S
C125 C126 1.394 . S
C126 C125 1.394 . S
C126 C127 1.378 . S
C126 H154 0.931 . S
C127 C122 1.377 . S
C127 C126 1.378 . S
C127 H155 0.931 . S
C128 O142 1.259 . S
C128 O143 1.270 . S
C129 O144 1.251 . S
C129 O145 1.251 . S
C130 Eu131 2.835 1_565 S
C130 C132 1.500 . S
C130 O146 1.257 . S
C130 O147 1.260 . S
Eu131 C130 2.835 1_545 S
Eu131 O143 2.355 . S
Eu131 O145 2.374 . S
Eu131 O146 2.473 1_545 S
Eu131 O147 2.480 1_545 S
Eu131 O148 2.430 . S
Eu131 O149 2.670 . S
Eu131 O150 2.394 . S
C132 C130 1.500 . S
C132 C133 1.377 . S
C132 C137 1.377 . S
C133 C132 1.377 . S
C133 C134 1.395 . S
C133 H156 0.931 . S
C134 C133 1.395 . S
C134 C135 1.383 . S
C134 H157 0.931 . S
C135 C134 1.383 . S
C135 C136 1.394 . S
C136 C135 1.394 . S
C136 C137 1.378 . S
C136 H158 0.931 . S
C137 C132 1.377 . S
C137 C136 1.378 . S
C137 H159 0.931 . S
C138 O148 1.259 . S
C138 O149 1.270 . S
C139 O150 1.251 . S
C139 O151 1.251 . S
O140 C120 1.257 . S
O140 Eu121 2.473 . S
O141 C120 1.260 . S
O141 Eu121 2.480 . S
O142 Eu121 2.430 . S
O142 C128 1.259 . S
O143 Eu121 2.670 . S
O143 C128 1.270 . S
O143 Eu131 2.355 . S
O144 Eu121 2.394 . S
O144 C129 1.251 . S
O145 C129 1.251 . S
O145 Eu131 2.374 . S
O146 C130 1.257 . S
O146 Eu131 2.473 1_565 S
O147 C130 1.260 . S
O147 Eu131 2.480 1_565 S
O148 Eu131 2.430 . S
O148 C138 1.259 . S
O149 Eu121 2.355 . S
O149 Eu131 2.670 . S
O149 C138 1.270 . S
O150 Eu131 2.394 . S
O150 C139 1.251 . S
O151 Eu121 2.374 . S
O151 C139 1.251 . S
H152 C123 0.931 . S
H153 C124 0.931 . S
H154 C126 0.931 . S
H155 C127 0.931 . S
H156 C133 0.931 . S
H157 C134 0.931 . S
H158 C136 0.931 . S
H159 C137 0.931 . S
C160 Eu161 2.835 1_545 S
C160 C162 1.500 . S
C160 O180 1.257 . S
C160 O181 1.260 . S
Eu161 C160 2.835 1_565 S
Eu161 O180 2.473 1_565 S
Eu161 O181 2.480 1_565 S
Eu161 O182 2.430 . S
Eu161 O183 2.670 . S
Eu161 O184 2.394 . S
Eu161 O189 2.355 . S
Eu161 O191 2.374 . S
C162 C160 1.500 . S
C162 C163 1.377 . S
C162 C167 1.377 . S
C163 C162 1.377 . S
C163 C164 1.395 . S
C163 H192 0.931 . S
C164 C163 1.395 . S
C164 C165 1.383 . S
C164 H193 0.931 . S
C165 C164 1.383 . S
C165 C166 1.394 . S
C166 C165 1.394 . S
C166 C167 1.378 . S
C166 H194 0.931 . S
C167 C162 1.377 . S
C167 C166 1.378 . S
C167 H195 0.931 . S
C168 O182 1.259 . S
C168 O183 1.270 . S
C169 O184 1.251 . S
C169 O185 1.251 . S
C170 Eu171 2.835 . S
C170 C172 1.500 . S
C170 O186 1.257 . S
C170 O187 1.260 . S
Eu171 C170 2.835 . S
Eu171 O183 2.355 . S
Eu171 O185 2.374 . S
Eu171 O186 2.473 . S
Eu171 O187 2.480 . S
Eu171 O188 2.430 . S
Eu171 O189 2.670 . S
Eu171 O190 2.394 . S
C172 C170 1.500 . S
C172 C173 1.377 . S
C172 C177 1.377 . S
C173 C172 1.377 . S
C173 C174 1.395 . S
C173 H196 0.931 . S
C174 C173 1.395 . S
C174 C175 1.383 . S
C174 H197 0.931 . S
C175 C174 1.383 . S
C175 C176 1.394 . S
C176 C175 1.394 . S
C176 C177 1.378 . S
C176 H198 0.931 . S
C177 C172 1.377 . S
C177 C176 1.378 . S
C177 H199 0.931 . S
C178 O188 1.259 . S
C178 O189 1.270 . S
C179 O190 1.251 . S
C179 O191 1.251 . S
O180 C160 1.257 . S
O180 Eu161 2.473 1_545 S
O181 C160 1.260 . S
O181 Eu161 2.480 1_545 S
O182 Eu161 2.430 . S
O182 C168 1.259 . S
O183 Eu161 2.670 . S
O183 C168 1.270 . S
O183 Eu171 2.355 . S
O184 Eu161 2.394 . S
O184 C169 1.251 . S
O185 C169 1.251 . S
O185 Eu171 2.374 . S
O186 C170 1.257 . S
O186 Eu171 2.473 . S
O187 C170 1.260 . S
O187 Eu171 2.480 . S
O188 Eu171 2.430 . S
O188 C178 1.259 . S
O189 Eu161 2.355 . S
O189 Eu171 2.670 . S
O189 C178 1.270 . S
O190 Eu171 2.394 . S
O190 C179 1.251 . S
O191 Eu161 2.374 . S
O191 C179 1.251 . S
H192 C163 0.931 . S
H193 C164 0.931 . S
H194 C166 0.931 . S
H195 C167 0.931 . S
H196 C173 0.931 . S
H197 C174 0.931 . S
H198 C176 0.931 . S
H199 C177 0.931 . S
C200 Eu201 2.835 1_565 S
C200 C202 1.500 . S
C200 O220 1.257 . S
C200 O221 1.260 . S
Eu201 C200 2.835 1_545 S
Eu201 O220 2.473 1_545 S
Eu201 O221 2.480 1_545 S
Eu201 O222 2.430 . S
Eu201 O223 2.670 . S
Eu201 O224 2.394 . S
Eu201 O229 2.355 . S
Eu201 O231 2.374 . S
C202 C200 1.500 . S
C202 C203 1.377 . S
C202 C207 1.377 . S
C203 C202 1.377 . S
C203 C204 1.395 . S
C203 H232 0.931 . S
C204 C203 1.395 . S
C204 C205 1.383 . S
C204 H233 0.931 . S
C205 C204 1.383 . S
C205 C206 1.394 . S
C206 C205 1.394 . S
C206 C207 1.378 . S
C206 H234 0.931 . S
C207 C202 1.377 . S
C207 C206 1.378 . S
C207 H235 0.931 . S
C208 O222 1.259 . S
C208 O223 1.270 . S
C209 O224 1.251 . S
C209 O225 1.251 . S
C210 Eu211 2.835 . S
C210 C212 1.500 . S
C210 O226 1.257 . S
C210 O227 1.260 . S
Eu211 C210 2.835 . S
Eu211 O223 2.355 . S
Eu211 O225 2.374 . S
Eu211 O226 2.473 . S
Eu211 O227 2.480 . S
Eu211 O228 2.430 . S
Eu211 O229 2.670 . S
Eu211 O230 2.394 . S
C212 C210 1.500 . S
C212 C213 1.377 . S
C212 C217 1.377 . S
C213 C212 1.377 . S
C213 C214 1.395 . S
C213 H236 0.931 . S
C214 C213 1.395 . S
C214 C215 1.383 . S
C214 H237 0.931 . S
C215 C214 1.383 . S
C215 C216 1.394 . S
C216 C215 1.394 . S
C216 C217 1.378 . S
C216 H238 0.931 . S
C217 C212 1.377 . S
C217 C216 1.378 . S
C217 H239 0.931 . S
C218 O228 1.259 . S
C218 O229 1.270 . S
C219 O230 1.251 . S
C219 O231 1.251 . S
O220 C200 1.257 . S
O220 Eu201 2.473 1_565 S
O221 C200 1.260 . S
O221 Eu201 2.480 1_565 S
O222 Eu201 2.430 . S
O222 C208 1.259 . S
O223 Eu201 2.670 . S
O223 C208 1.270 . S
O223 Eu211 2.355 . S
O224 Eu201 2.394 . S
O224 C209 1.251 . S
O225 C209 1.251 . S
O225 Eu211 2.374 . S
O226 C210 1.257 . S
O226 Eu211 2.473 . S
O227 C210 1.260 . S
O227 Eu211 2.480 . S
O228 Eu211 2.430 . S
O228 C218 1.259 . S
O229 Eu201 2.355 . S
O229 Eu211 2.670 . S
O229 C218 1.270 . S
O230 Eu211 2.394 . S
O230 C219 1.251 . S
O231 Eu201 2.374 . S
O231 C219 1.251 . S
H232 C203 0.931 . S
H233 C204 0.931 . S
H234 C206 0.931 . S
H235 C207 0.931 . S
H236 C213 0.931 . S
H237 C214 0.931 . S
H238 C216 0.931 . S
H239 C217 0.931 . S
C240 Eu241 2.835 1_565 S
C240 C242 1.500 . S
C240 O260 1.257 . S
C240 O261 1.260 . S
Eu241 C240 2.835 1_545 S
Eu241 O260 2.473 1_545 S
Eu241 O261 2.480 1_545 S
Eu241 O262 2.430 . S
Eu241 O263 2.670 . S
Eu241 O264 2.394 . S
Eu241 O269 2.355 . S
Eu241 O271 2.374 . S
C242 C240 1.500 . S
C242 C243 1.377 . S
C242 C247 1.377 . S
C243 C242 1.377 . S
C243 C244 1.395 . S
C243 H272 0.931 . S
C244 C243 1.395 . S
C244 C245 1.383 . S
C244 H273 0.931 . S
C245 C244 1.383 . S
C245 C246 1.394 . S
C246 C245 1.394 . S
C246 C247 1.378 . S
C246 H274 0.931 . S
C247 C242 1.377 . S
C247 C246 1.378 . S
C247 H275 0.931 . S
C248 O262 1.259 . S
C248 O263 1.270 . S
C249 O264 1.251 . S
C249 O265 1.251 . S
C250 Eu251 2.835 . S
C250 C252 1.500 . S
C250 O266 1.257 . S
C250 O267 1.260 . S
Eu251 C250 2.835 . S
Eu251 O263 2.355 . S
Eu251 O265 2.374 . S
Eu251 O266 2.473 . S
Eu251 O267 2.480 . S
Eu251 O268 2.430 . S
Eu251 O269 2.670 . S
Eu251 O270 2.394 . S
C252 C250 1.500 . S
C252 C253 1.377 . S
C252 C257 1.377 . S
C253 C252 1.377 . S
C253 C254 1.395 . S
C253 H276 0.931 . S
C254 C253 1.395 . S
C254 C255 1.383 . S
C254 H277 0.931 . S
C255 C254 1.383 . S
C255 C256 1.394 . S
C256 C255 1.394 . S
C256 C257 1.378 . S
C256 H278 0.931 . S
C257 C252 1.377 . S
C257 C256 1.378 . S
C257 H279 0.931 . S
C258 O268 1.259 . S
C258 O269 1.270 . S
C259 O270 1.251 . S
C259 O271 1.251 . S
O260 C240 1.257 . S
O260 Eu241 2.473 1_565 S
O261 C240 1.260 . S
O261 Eu241 2.480 1_565 S
O262 Eu241 2.430 . S
O262 C248 1.259 . S
O263 Eu241 2.670 . S
O263 C248 1.270 . S
O263 Eu251 2.355 . S
O264 Eu241 2.394 . S
O264 C249 1.251 . S
O265 C249 1.251 . S
O265 Eu251 2.374 . S
O266 C250 1.257 . S
O266 Eu251 2.473 . S
O267 C250 1.260 . S
O267 Eu251 2.480 . S
O268 Eu251 2.430 . S
O268 C258 1.259 . S
O269 Eu241 2.355 . S
O269 Eu251 2.670 . S
O269 C258 1.270 . S
O270 Eu251 2.394 . S
O270 C259 1.251 . S
O271 Eu241 2.374 . S
O271 C259 1.251 . S
H272 C243 0.931 . S
H273 C244 0.931 . S
H274 C246 0.931 . S
H275 C247 0.931 . S
H276 C253 0.931 . S
H277 C254 0.931 . S
H278 C256 0.931 . S
H279 C257 0.931 . S
C280 Eu281 2.835 1_545 S
C280 C282 1.500 . S
C280 O300 1.257 . S
C280 O301 1.260 . S
Eu281 C280 2.835 1_565 S
Eu281 O300 2.473 1_565 S
Eu281 O301 2.480 1_565 S
Eu281 O302 2.430 . S
Eu281 O303 2.670 . S
Eu281 O304 2.394 . S
Eu281 O309 2.355 . S
Eu281 O311 2.374 . S
C282 C280 1.500 . S
C282 C283 1.377 . S
C282 C287 1.377 . S
C283 C282 1.377 . S
C283 C284 1.395 . S
C283 H312 0.931 . S
C284 C283 1.395 . S
C284 C285 1.383 . S
C284 H313 0.931 . S
C285 C284 1.383 . S
C285 C286 1.394 . S
C286 C285 1.394 . S
C286 C287 1.378 . S
C286 H314 0.931 . S
C287 C282 1.377 . S
C287 C286 1.378 . S
C287 H315 0.931 . S
C288 O302 1.259 . S
C288 O303 1.270 . S
C289 O304 1.251 . S
C289 O305 1.251 . S
C290 Eu291 2.835 . S
C290 C292 1.500 . S
C290 O306 1.257 . S
C290 O307 1.260 . S
Eu291 C290 2.835 . S
Eu291 O303 2.355 . S
Eu291 O305 2.374 . S
Eu291 O306 2.473 . S
Eu291 O307 2.480 . S
Eu291 O308 2.430 . S
Eu291 O309 2.670 . S
Eu291 O310 2.394 . S
C292 C290 1.500 . S
C292 C293 1.377 . S
C292 C297 1.377 . S
C293 C292 1.377 . S
C293 C294 1.395 . S
C293 H316 0.931 . S
C294 C293 1.395 . S
C294 C295 1.383 . S
C294 H317 0.931 . S
C295 C294 1.383 . S
C295 C296 1.394 . S
C296 C295 1.394 . S
C296 C297 1.378 . S
C296 H318 0.931 . S
C297 C292 1.377 . S
C297 C296 1.378 . S
C297 H319 0.931 . S
C298 O308 1.259 . S
C298 O309 1.270 . S
C299 O310 1.251 . S
C299 O311 1.251 . S
O300 C280 1.257 . S
O300 Eu281 2.473 1_545 S
O301 C280 1.260 . S
O301 Eu281 2.480 1_545 S
O302 Eu281 2.430 . S
O302 C288 1.259 . S
O303 Eu281 2.670 . S
O303 C288 1.270 . S
O303 Eu291 2.355 . S
O304 Eu281 2.394 . S
O304 C289 1.251 . S
O305 C289 1.251 . S
O305 Eu291 2.374 . S
O306 C290 1.257 . S
O306 Eu291 2.473 . S
O307 C290 1.260 . S
O307 Eu291 2.480 . S
O308 Eu291 2.430 . S
O308 C298 1.259 . S
O309 Eu281 2.355 . S
O309 Eu291 2.670 . S
O309 C298 1.270 . S
O310 Eu291 2.394 . S
O310 C299 1.251 . S
O311 Eu281 2.374 . S
O311 C299 1.251 . S
H312 C283 0.931 . S
H313 C284 0.931 . S
H314 C286 0.931 . S
H315 C287 0.931 . S
H316 C293 0.931 . S
H317 C294 0.931 . S
H318 C296 0.931 . S
H319 C297 0.931 . S
C320 Eu321 2.835 . S
C320 C322 1.500 . S
C320 O340 1.257 . S
C320 O341 1.260 . S
Eu321 C320 2.835 . S
Eu321 O340 2.473 . S
Eu321 O341 2.480 . S
Eu321 O342 2.430 . S
Eu321 O343 2.670 . S
Eu321 O344 2.394 . S
Eu321 O349 2.355 . S
Eu321 O351 2.374 . S
C322 C320 1.500 . S
C322 C323 1.377 . S
C322 C327 1.377 . S
C323 C322 1.377 . S
C323 C324 1.395 . S
C323 H352 0.931 . S
C324 C323 1.395 . S
C324 C325 1.383 . S
C324 H353 0.931 . S
C325 C324 1.383 . S
C325 C326 1.394 . S
C326 C325 1.394 . S
C326 C327 1.378 . S
C326 H354 0.931 . S
C327 C322 1.377 . S
C327 C326 1.378 . S
C327 H355 0.931 . S
C328 O342 1.259 . S
C328 O343 1.270 . S
C329 O344 1.251 . S
C329 O345 1.251 . S
C330 Eu331 2.835 . S
C330 C332 1.500 . S
C330 O346 1.257 . S
C330 O347 1.260 . S
Eu331 C330 2.835 . S
Eu331 O343 2.355 . S
Eu331 O345 2.374 . S
Eu331 O346 2.473 . S
Eu331 O347 2.480 . S
Eu331 O348 2.430 . S
Eu331 O349 2.670 . S
Eu331 O350 2.394 . S
C332 C330 1.500 . S
C332 C333 1.377 . S
C332 C337 1.377 . S
C333 C332 1.377 . S
C333 C334 1.395 . S
C333 H356 0.931 . S
C334 C333 1.395 . S
C334 C335 1.383 . S
C334 H357 0.931 . S
C335 C334 1.383 . S
C335 C336 1.394 . S
C336 C335 1.394 . S
C336 C337 1.378 . S
C336 H358 0.931 . S
C337 C332 1.377 . S
C337 C336 1.378 . S
C337 H359 0.931 . S
C338 O348 1.259 . S
C338 O349 1.270 . S
C339 O350 1.251 . S
C339 O351 1.251 . S
O340 C320 1.257 . S
O340 Eu321 2.473 . S
O341 C320 1.260 . S
O341 Eu321 2.480 . S
O342 Eu321 2.430 . S
O342 C328 1.259 . S
O343 Eu321 2.670 . S
O343 C328 1.270 . S
O343 Eu331 2.355 . S
O344 Eu321 2.394 . S
O344 C329 1.251 . S
O345 C329 1.251 . S
O345 Eu331 2.374 . S
O346 C330 1.257 . S
O346 Eu331 2.473 . S
O347 C330 1.260 . S
O347 Eu331 2.480 . S
O348 Eu331 2.430 . S
O348 C338 1.259 . S
O349 Eu321 2.355 . S
O349 Eu331 2.670 . S
O349 C338 1.270 . S
O350 Eu331 2.394 . S
O350 C339 1.251 . S
O351 Eu321 2.374 . S
O351 C339 1.251 . S
H352 C323 0.931 . S
H353 C324 0.931 . S
H354 C326 0.931 . S
H355 C327 0.931 . S
H356 C333 0.931 . S
H357 C334 0.931 . S
H358 C336 0.931 . S
H359 C337 0.931 . S
C360 Eu361 2.835 . S
C360 C362 1.500 . S
C360 O380 1.257 . S
C360 O381 1.260 . S
Eu361 C360 2.835 . S
Eu361 O380 2.473 . S
Eu361 O381 2.480 . S
Eu361 O382 2.430 . S
Eu361 O383 2.670 . S
Eu361 O384 2.394 . S
Eu361 O389 2.355 . S
Eu361 O391 2.374 . S
C362 C360 1.500 . S
C362 C363 1.377 . S
C362 C367 1.377 . S
C363 C362 1.377 . S
C363 C364 1.395 . S
C363 H392 0.931 . S
C364 C363 1.395 . S
C364 C365 1.383 . S
C364 H393 0.931 . S
C365 C364 1.383 . S
C365 C366 1.394 . S
C366 C365 1.394 . S
C366 C367 1.378 . S
C366 H394 0.931 . S
C367 C362 1.377 . S
C367 C366 1.378 . S
C367 H395 0.931 . S
C368 O382 1.259 . S
C368 O383 1.270 . S
C369 O384 1.251 . S
C369 O385 1.251 . S
C370 Eu371 2.835 . S
C370 C372 1.500 . S
C370 O386 1.257 . S
C370 O387 1.260 . S
Eu371 C370 2.835 . S
Eu371 O383 2.355 . S
Eu371 O385 2.374 . S
Eu371 O386 2.473 . S
Eu371 O387 2.480 . S
Eu371 O388 2.430 . S
Eu371 O389 2.670 . S
Eu371 O390 2.394 . S
C372 C370 1.500 . S
C372 C373 1.377 . S
C372 C377 1.377 . S
C373 C372 1.377 . S
C373 C374 1.395 . S
C373 H396 0.931 . S
C374 C373 1.395 . S
C374 C375 1.383 . S
C374 H397 0.931 . S
C375 C374 1.383 . S
C375 C376 1.394 . S
C376 C375 1.394 . S
C376 C377 1.378 . S
C376 H398 0.931 . S
C377 C372 1.377 . S
C377 C376 1.378 . S
C377 H399 0.931 . S
C378 O388 1.259 . S
C378 O389 1.270 . S
C379 O390 1.251 . S
C379 O391 1.251 . S
O380 C360 1.257 . S
O380 Eu361 2.473 . S
O381 C360 1.260 . S
O381 Eu361 2.480 . S
O382 Eu361 2.430 . S
O382 C368 1.259 . S
O383 Eu361 2.670 . S
O383 C368 1.270 . S
O383 Eu371 2.355 . S
O384 Eu361 2.394 . S
O384 C369 1.251 . S
O385 C369 1.251 . S
O385 Eu371 2.374 . S
O386 C370 1.257 . S
O386 Eu371 2.473 . S
O387 C370 1.260 . S
O387 Eu371 2.480 . S
O388 Eu371 2.430 . S
O388 C378 1.259 . S
O389 Eu361 2.355 . S
O389 Eu371 2.670 . S
O389 C378 1.270 . S
O390 Eu371 2.394 . S
O390 C379 1.251 . S
O391 Eu361 2.374 . S
O391 C379 1.251 . S
H392 C363 0.931 . S
H393 C364 0.931 . S
H394 C366 0.931 . S
H395 C367 0.931 . S
H396 C373 0.931 . S
H397 C374 0.931 . S
H398 C376 0.931 . S
H399 C377 0.931 . S
C400 Eu401 2.835 . S
C400 C402 1.500 . S
C400 O420 1.257 . S
C400 O421 1.260 . S
Eu401 C400 2.835 . S
Eu401 O420 2.473 . S
Eu401 O421 2.480 . S
Eu401 O422 2.430 . S
Eu401 O423 2.670 . S
Eu401 O424 2.394 . S
Eu401 O429 2.355 . S
Eu401 O431 2.374 . S
C402 C400 1.500 . S
C402 C403 1.377 . S
C402 C407 1.377 . S
C403 C402 1.377 . S
C403 C404 1.395 . S
C403 H432 0.931 . S
C404 C403 1.395 . S
C404 C405 1.383 . S
C404 H433 0.931 . S
C405 C404 1.383 . S
C405 C406 1.394 . S
C406 C405 1.394 . S
C406 C407 1.378 . S
C406 H434 0.931 . S
C407 C402 1.377 . S
C407 C406 1.378 . S
C407 H435 0.931 . S
C408 O422 1.259 . S
C408 O423 1.270 . S
C409 O424 1.251 . S
C409 O425 1.251 . S
C410 Eu411 2.835 . S
C410 C412 1.500 . S
C410 O426 1.257 . S
C410 O427 1.260 . S
Eu411 C410 2.835 . S
Eu411 O423 2.355 . S
Eu411 O425 2.374 . S
Eu411 O426 2.473 . S
Eu411 O427 2.480 . S
Eu411 O428 2.430 . S
Eu411 O429 2.670 . S
Eu411 O430 2.394 . S
C412 C410 1.500 . S
C412 C413 1.377 . S
C412 C417 1.377 . S
C413 C412 1.377 . S
C413 C414 1.395 . S
C413 H436 0.931 . S
C414 C413 1.395 . S
C414 C415 1.383 . S
C414 H437 0.931 . S
C415 C414 1.383 . S
C415 C416 1.394 . S
C416 C415 1.394 . S
C416 C417 1.378 . S
C416 H438 0.931 . S
C417 C412 1.377 . S
C417 C416 1.378 . S
C417 H439 0.931 . S
C418 O428 1.259 . S
C418 O429 1.270 . S
C419 O430 1.251 . S
C419 O431 1.251 . S
O420 C400 1.257 . S
O420 Eu401 2.473 . S
O421 C400 1.260 . S
O421 Eu401 2.480 . S
O422 Eu401 2.430 . S
O422 C408 1.259 . S
O423 Eu401 2.670 . S
O423 C408 1.270 . S
O423 Eu411 2.355 . S
O424 Eu401 2.394 . S
O424 C409 1.251 . S
O425 C409 1.251 . S
O425 Eu411 2.374 . S
O426 C410 1.257 . S
O426 Eu411 2.473 . S
O427 C410 1.260 . S
O427 Eu411 2.480 . S
O428 Eu411 2.430 . S
O428 C418 1.259 . S
O429 Eu401 2.355 . S
O429 Eu411 2.670 . S
O429 C418 1.270 . S
O430 Eu411 2.394 . S
O430 C419 1.251 . S
O431 Eu401 2.374 . S
O431 C419 1.251 . S
H432 C403 0.931 . S
H433 C404 0.931 . S
H434 C406 0.931 . S
H435 C407 0.931 . S
H436 C413 0.931 . S
H437 C414 0.931 . S
H438 C416 0.931 . S
H439 C417 0.931 . S
C440 Eu441 2.835 . S
C440 C442 1.500 . S
C440 O460 1.257 . S
C440 O461 1.260 . S
Eu441 C440 2.835 . S
Eu441 O460 2.473 . S
Eu441 O461 2.480 . S
Eu441 O462 2.430 . S
Eu441 O463 2.670 . S
Eu441 O464 2.394 . S
Eu441 O469 2.355 . S
Eu441 O471 2.374 . S
C442 C440 1.500 . S
C442 C443 1.377 . S
C442 C447 1.377 . S
C443 C442 1.377 . S
C443 C444 1.395 . S
C443 H472 0.931 . S
C444 C443 1.395 . S
C444 C445 1.383 . S
C444 H473 0.931 . S
C445 C444 1.383 . S
C445 C446 1.394 . S
C446 C445 1.394 . S
C446 C447 1.378 . S
C446 H474 0.931 . S
C447 C442 1.377 . S
C447 C446 1.378 . S
C447 H475 0.931 . S
C448 O462 1.259 . S
C448 O463 1.270 . S
C449 O464 1.251 . S
C449 O465 1.251 . S
C450 Eu451 2.835 . S
C450 C452 1.500 . S
C450 O466 1.257 . S
C450 O467 1.260 . S
Eu451 C450 2.835 . S
Eu451 O463 2.355 . S
Eu451 O465 2.374 . S
Eu451 O466 2.473 . S
Eu451 O467 2.480 . S
Eu451 O468 2.430 . S
Eu451 O469 2.670 . S
Eu451 O470 2.394 . S
C452 C450 1.500 . S
C452 C453 1.377 . S
C452 C457 1.377 . S
C453 C452 1.377 . S
C453 C454 1.395 . S
C453 H476 0.931 . S
C454 C453 1.395 . S
C454 C455 1.383 . S
C454 H477 0.931 . S
C455 C454 1.383 . S
C455 C456 1.394 . S
C456 C455 1.394 . S
C456 C457 1.378 . S
C456 H478 0.931 . S
C457 C452 1.377 . S
C457 C456 1.378 . S
C457 H479 0.931 . S
C458 O468 1.259 . S
C458 O469 1.270 . S
C459 O470 1.251 . S
C459 O471 1.251 . S
O460 C440 1.257 . S
O460 Eu441 2.473 . S
O461 C440 1.260 . S
O461 Eu441 2.480 . S
O462 Eu441 2.430 . S
O462 C448 1.259 . S
O463 Eu441 2.670 . S
O463 C448 1.270 . S
O463 Eu451 2.355 . S
O464 Eu441 2.394 . S
O464 C449 1.251 . S
O465 C449 1.251 . S
O465 Eu451 2.374 . S
O466 C450 1.257 . S
O466 Eu451 2.473 . S
O467 C450 1.260 . S
O467 Eu451 2.480 . S
O468 Eu451 2.430 . S
O468 C458 1.259 . S
O469 Eu441 2.355 . S
O469 Eu451 2.670 . S
O469 C458 1.270 . S
O470 Eu451 2.394 . S
O470 C459 1.251 . S
O471 Eu441 2.374 . S
O471 C459 1.251 . S
H472 C443 0.931 . S
H473 C444 0.931 . S
H474 C446 0.931 . S
H475 C447 0.931 . S
H476 C453 0.931 . S
H477 C454 0.931 . S
H478 C456 0.931 . S
H479 C457 0.931 . S
C480 Eu481 2.835 . S
C480 C482 1.500 . S
C480 O500 1.257 . S
C480 O501 1.260 . S
Eu481 C480 2.835 . S
Eu481 O500 2.473 . S
Eu481 O501 2.480 . S
Eu481 O502 2.430 . S
Eu481 O503 2.670 . S
Eu481 O504 2.394 . S
Eu481 O509 2.355 . S
Eu481 O511 2.374 . S
C482 C480 1.500 . S
C482 C483 1.377 . S
C482 C487 1.377 . S
C483 C482 1.377 . S
C483 C484 1.395 . S
C483 H512 0.931 . S
C484 C483 1.395 . S
C484 C485 1.383 . S
C484 H513 0.931 . S
C485 C484 1.383 . S
C485 C486 1.394 . S
C486 C485 1.394 . S
C486 C487 1.378 . S
C486 H514 0.931 . S
C487 C482 1.377 . S
C487 C486 1.378 . S
C487 H515 0.931 . S
C488 O502 1.259 . S
C488 O503 1.270 . S
C489 O504 1.251 . S
C489 O505 1.251 . S
C490 Eu491 2.835 . S
C490 C492 1.500 . S
C490 O506 1.257 . S
C490 O507 1.260 . S
Eu491 C490 2.835 . S
Eu491 O503 2.355 . S
Eu491 O505 2.374 . S
Eu491 O506 2.473 . S
Eu491 O507 2.480 . S
Eu491 O508 2.430 . S
Eu491 O509 2.670 . S
Eu491 O510 2.394 . S
C492 C490 1.500 . S
C492 C493 1.377 . S
C492 C497 1.377 . S
C493 C492 1.377 . S
C493 C494 1.395 . S
C493 H516 0.931 . S
C494 C493 1.395 . S
C494 C495 1.383 . S
C494 H517 0.931 . S
C495 C494 1.383 . S
C495 C496 1.394 . S
C496 C495 1.394 . S
C496 C497 1.378 . S
C496 H518 0.931 . S
C497 C492 1.377 . S
C497 C496 1.378 . S
C497 H519 0.931 . S
C498 O508 1.259 . S
C498 O509 1.270 . S
C499 O510 1.251 . S
C499 O511 1.251 . S
O500 C480 1.257 . S
O500 Eu481 2.473 . S
O501 C480 1.260 . S
O501 Eu481 2.480 . S
O502 Eu481 2.430 . S
O502 C488 1.259 . S
O503 Eu481 2.670 . S
O503 C488 1.270 . S
O503 Eu491 2.355 . S
O504 Eu481 2.394 . S
O504 C489 1.251 . S
O505 C489 1.251 . S
O505 Eu491 2.374 . S
O506 C490 1.257 . S
O506 Eu491 2.473 . S
O507 C490 1.260 . S
O507 Eu491 2.480 . S
O508 Eu491 2.430 . S
O508 C498 1.259 . S
O509 Eu481 2.355 . S
O509 Eu491 2.670 . S
O509 C498 1.270 . S
O510 Eu491 2.394 . S
O510 C499 1.251 . S
O511 Eu481 2.374 . S
O511 C499 1.251 . S
H512 C483 0.931 . S
H513 C484 0.931 . S
H514 C486 0.931 . S
H515 C487 0.931 . S
H516 C493 0.931 . S
H517 C494 0.931 . S
H518 C496 0.931 . S
H519 C497 0.931 . S
C520 Eu521 2.835 . S
C520 C522 1.500 . S
C520 O540 1.257 . S
C520 O541 1.260 . S
Eu521 C520 2.835 . S
Eu521 O540 2.473 . S
Eu521 O541 2.480 . S
Eu521 O542 2.430 . S
Eu521 O543 2.670 . S
Eu521 O544 2.394 . S
Eu521 O549 2.355 . S
Eu521 O551 2.374 . S
C522 C520 1.500 . S
C522 C523 1.377 . S
C522 C527 1.377 . S
C523 C522 1.377 . S
C523 C524 1.395 . S
C523 H552 0.931 . S
C524 C523 1.395 . S
C524 C525 1.383 . S
C524 H553 0.931 . S
C525 C524 1.383 . S
C525 C526 1.394 . S
C526 C525 1.394 . S
C526 C527 1.378 . S
C526 H554 0.931 . S
C527 C522 1.377 . S
C527 C526 1.378 . S
C527 H555 0.931 . S
C528 O542 1.259 . S
C528 O543 1.270 . S
C529 O544 1.251 . S
C529 O545 1.251 . S
C530 Eu531 2.835 . S
C530 C532 1.500 . S
C530 O546 1.257 . S
C530 O547 1.260 . S
Eu531 C530 2.835 . S
Eu531 O543 2.355 . S
Eu531 O545 2.374 . S
Eu531 O546 2.473 . S
Eu531 O547 2.480 . S
Eu531 O548 2.430 . S
Eu531 O549 2.670 . S
Eu531 O550 2.394 . S
C532 C530 1.500 . S
C532 C533 1.377 . S
C532 C537 1.377 . S
C533 C532 1.377 . S
C533 C534 1.395 . S
C533 H556 0.931 . S
C534 C533 1.395 . S
C534 C535 1.383 . S
C534 H557 0.931 . S
C535 C534 1.383 . S
C535 C536 1.394 . S
C536 C535 1.394 . S
C536 C537 1.378 . S
C536 H558 0.931 . S
C537 C532 1.377 . S
C537 C536 1.378 . S
C537 H559 0.931 . S
C538 O548 1.259 . S
C538 O549 1.270 . S
C539 O550 1.251 . S
C539 O551 1.251 . S
O540 C520 1.257 . S
O540 Eu521 2.473 . S
O541 C520 1.260 . S
O541 Eu521 2.480 . S
O542 Eu521 2.430 . S
O542 C528 1.259 . S
O543 Eu521 2.670 . S
O543 C528 1.270 . S
O543 Eu531 2.355 . S
O544 Eu521 2.394 . S
O544 C529 1.251 . S
O545 C529 1.251 . S
O545 Eu531 2.374 . S
O546 C530 1.257 . S
O546 Eu531 2.473 . S
O547 C530 1.260 . S
O547 Eu531 2.480 . S
O548 Eu531 2.430 . S
O548 C538 1.259 . S
O549 Eu521 2.355 . S
O549 Eu531 2.670 . S
O549 C538 1.270 . S
O550 Eu531 2.394 . S
O550 C539 1.251 . S
O551 Eu521 2.374 . S
O551 C539 1.251 . S
H552 C523 0.931 . S
H553 C524 0.931 . S
H554 C526 0.931 . S
H555 C527 0.931 . S
H556 C533 0.931 . S
H557 C534 0.931 . S
H558 C536 0.931 . S
H559 C537 0.931 . S
C560 Eu561 2.835 . S
C560 C562 1.500 . S
C560 O580 1.257 . S
C560 O581 1.260 . S
Eu561 C560 2.835 . S
Eu561 O580 2.473 . S
Eu561 O581 2.480 . S
Eu561 O582 2.430 . S
Eu561 O583 2.670 . S
Eu561 O584 2.394 . S
Eu561 O589 2.355 . S
Eu561 O591 2.374 . S
C562 C560 1.500 . S
C562 C563 1.377 . S
C562 C567 1.377 . S
C563 C562 1.377 . S
C563 C564 1.395 . S
C563 H592 0.931 . S
C564 C563 1.395 . S
C564 C565 1.383 . S
C564 H593 0.931 . S
C565 C564 1.383 . S
C565 C566 1.394 . S
C566 C565 1.394 . S
C566 C567 1.378 . S
C566 H594 0.931 . S
C567 C562 1.377 . S
C567 C566 1.378 . S
C567 H595 0.931 . S
C568 O582 1.259 . S
C568 O583 1.270 . S
C569 O584 1.251 . S
C569 O585 1.251 . S
C570 Eu571 2.835 . S
C570 C572 1.500 . S
C570 O586 1.257 . S
C570 O587 1.260 . S
Eu571 C570 2.835 . S
Eu571 O583 2.355 . S
Eu571 O585 2.374 . S
Eu571 O586 2.473 . S
Eu571 O587 2.480 . S
Eu571 O588 2.430 . S
Eu571 O589 2.670 . S
Eu571 O590 2.394 . S
C572 C570 1.500 . S
C572 C573 1.377 . S
C572 C577 1.377 . S
C573 C572 1.377 . S
C573 C574 1.395 . S
C573 H596 0.931 . S
C574 C573 1.395 . S
C574 C575 1.383 . S
C574 H597 0.931 . S
C575 C574 1.383 . S
C575 C576 1.394 . S
C576 C575 1.394 . S
C576 C577 1.378 . S
C576 H598 0.931 . S
C577 C572 1.377 . S
C577 C576 1.378 . S
C577 H599 0.931 . S
C578 O588 1.259 . S
C578 O589 1.270 . S
C579 O590 1.251 . S
C579 O591 1.251 . S
O580 C560 1.257 . S
O580 Eu561 2.473 . S
O581 C560 1.260 . S
O581 Eu561 2.480 . S
O582 Eu561 2.430 . S
O582 C568 1.259 . S
O583 Eu561 2.670 . S
O583 C568 1.270 . S
O583 Eu571 2.355 . S
O584 Eu561 2.394 . S
O584 C569 1.251 . S
O585 C569 1.251 . S
O585 Eu571 2.374 . S
O586 C570 1.257 . S
O586 Eu571 2.473 . S
O587 C570 1.260 . S
O587 Eu571 2.480 . S
O588 Eu571 2.430 . S
O588 C578 1.259 . S
O589 Eu561 2.355 . S
O589 Eu571 2.670 . S
O589 C578 1.270 . S
O590 Eu571 2.394 . S
O590 C579 1.251 . S
O591 Eu561 2.374 . S
O591 C579 1.251 . S
H592 C563 0.931 . S
H593 C564 0.931 . S
H594 C566 0.931 . S
H595 C567 0.931 . S
H596 C573 0.931 . S
H597 C574 0.931 . S
H598 C576 0.931 . S
H599 C577 0.931 . S
C600 Eu601 2.835 . S
C600 C602 1.500 . S
C600 O620 1.257 . S
C600 O621 1.260 . S
Eu601 C600 2.835 . S
Eu601 O620 2.473 . S
Eu601 O621 2.480 . S
Eu601 O622 2.430 . S
Eu601 O623 2.670 . S
Eu601 O624 2.394 . S
Eu601 O629 2.355 . S
Eu601 O631 2.374 . S
C602 C600 1.500 . S
C602 C603 1.377 . S
C602 C607 1.377 . S
C603 C602 1.377 . S
C603 C604 1.395 . S
C603 H632 0.931 . S
C604 C603 1.395 . S
C604 C605 1.383 . S
C604 H633 0.931 . S
C605 C604 1.383 . S
C605 C606 1.394 . S
C606 C605 1.394 . S
C606 C607 1.378 . S
C606 H634 0.931 . S
C607 C602 1.377 . S
C607 C606 1.378 . S
C607 H635 0.931 . S
C608 O622 1.259 . S
C608 O623 1.270 . S
C609 O624 1.251 . S
C609 O625 1.251 . S
C610 Eu611 2.835 . S
C610 C612 1.500 . S
C610 O626 1.257 . S
C610 O627 1.260 . S
Eu611 C610 2.835 . S
Eu611 O623 2.355 . S
Eu611 O625 2.374 . S
Eu611 O626 2.473 . S
Eu611 O627 2.480 . S
Eu611 O628 2.430 . S
Eu611 O629 2.670 . S
Eu611 O630 2.394 . S
C612 C610 1.500 . S
C612 C613 1.377 . S
C612 C617 1.377 . S
C613 C612 1.377 . S
C613 C614 1.395 . S
C613 H636 0.931 . S
C614 C613 1.395 . S
C614 C615 1.383 . S
C614 H637 0.931 . S
C615 C614 1.383 . S
C615 C616 1.394 . S
C616 C615 1.394 . S
C616 C617 1.378 . S
C616 H638 0.931 . S
C617 C612 1.377 . S
C617 C616 1.378 . S
C617 H639 0.931 . S
C618 O628 1.259 . S
C618 O629 1.270 . S
C619 O630 1.251 . S
C619 O631 1.251 . S
O620 C600 1.257 . S
O620 Eu601 2.473 . S
O621 C600 1.260 . S
O621 Eu601 2.480 . S
O622 Eu601 2.430 . S
O622 C608 1.259 . S
O623 Eu601 2.670 . S
O623 C608 1.270 . S
O623 Eu611 2.355 . S
O624 Eu601 2.394 . S
O624 C609 1.251 . S
O625 C609 1.251 . S
O625 Eu611 2.374 . S
O626 C610 1.257 . S
O626 Eu611 2.473 . S
O627 C610 1.260 . S
O627 Eu611 2.480 . S
O628 Eu611 2.430 . S
O628 C618 1.259 . S
O629 Eu601 2.355 . S
O629 Eu611 2.670 . S
O629 C618 1.270 . S
O630 Eu611 2.394 . S
O630 C619 1.251 . S
O631 Eu601 2.374 . S
O631 C619 1.251 . S
H632 C603 0.931 . S
H633 C604 0.931 . S
H634 C606 0.931 . S
H635 C607 0.931 . S
H636 C613 0.931 . S
H637 C614 0.931 . S
H638 C616 0.931 . S
H639 C617 0.931 . S
H640 C646 0.930 . S
H641 C649 0.930 . S
H642 C650 0.930 . S
H643 C651 0.930 . S
H644 C654 0.930 . S
H645 C655 0.930 . S
C646 H640 0.930 . S
C646 C647 1.355 . S
C646 C648 1.415 . S
C647 C646 1.355 . S
C647 C649 1.419 . S
C648 C646 1.415 . S
C648 C653 1.425 . S
C648 C655 1.409 . S
C649 H641 0.930 . S
C649 C647 1.419 . S
C649 C650 1.362 . S
C650 H642 0.930 . S
C650 C649 1.362 . S
C650 C653 1.409 . S
C651 H643 0.930 . S
C651 C652 1.355 . S
C651 C653 1.415 . S
C652 C651 1.355 . S
C652 C654 1.419 . S
C653 C648 1.425 . S
C653 C650 1.409 . S
C653 C651 1.415 . S
C654 H644 0.930 . S
C654 C652 1.419 . S
C654 C655 1.362 . S
C655 H645 0.930 . S
C655 C648 1.409 . S
C655 C654 1.362 . S
H656 C662 0.930 . S
H657 C665 0.930 . S
H658 C666 0.930 . S
H659 C667 0.930 . S
H660 C670 0.930 . S
H661 C671 0.930 . S
C662 H656 0.930 . S
C662 C663 1.355 . S
C662 C664 1.415 . S
C663 C662 1.355 . S
C663 C665 1.419 . S
C664 C662 1.415 . S
C664 C669 1.425 . S
C664 C671 1.409 . S
C665 H657 0.930 . S
C665 C663 1.419 . S
C665 C666 1.362 . S
C666 H658 0.930 . S
C666 C665 1.362 . S
C666 C669 1.409 . S
C667 H659 0.930 . S
C667 C668 1.355 . S
C667 C669 1.415 . S
C668 C667 1.355 . S
C668 C670 1.419 . S
C669 C664 1.425 . S
C669 C666 1.409 . S
C669 C667 1.415 . S
C670 H660 0.930 . S
C670 C668 1.419 . S
C670 C671 1.362 . S
C671 H661 0.930 . S
C671 C664 1.409 . S
C671 C670 1.362 . S
H672 C678 0.930 . S
H673 C681 0.930 . S
H674 C682 0.930 . S
H675 C683 0.930 . S
H676 C686 0.930 . S
H677 C687 0.930 . S
C678 H672 0.930 . S
C678 C679 1.355 . S
C678 C680 1.415 . S
C679 C678 1.355 . S
C679 C681 1.419 . S
C680 C678 1.415 . S
C680 C685 1.425 . S
C680 C687 1.409 . S
C681 H673 0.930 . S
C681 C679 1.419 . S
C681 C682 1.362 . S
C682 H674 0.930 . S
C682 C681 1.362 . S
C682 C685 1.409 . S
C683 H675 0.930 . S
C683 C684 1.355 . S
C683 C685 1.415 . S
C684 C683 1.355 . S
C684 C686 1.419 . S
C685 C680 1.425 . S
C685 C682 1.409 . S
C685 C683 1.415 . S
C686 H676 0.930 . S
C686 C684 1.419 . S
C686 C687 1.362 . S
C687 H677 0.930 . S
C687 C680 1.409 . S
C687 C686 1.362 . S
H688 C694 0.930 . S
H689 C697 0.930 . S
H690 C698 0.930 . S
H691 C699 0.930 . S
H692 C702 0.930 . S
H693 C703 0.930 . S
C694 H688 0.930 . S
C694 C695 1.355 . S
C694 C696 1.415 . S
C695 C694 1.355 . S
C695 C697 1.419 . S
C696 C694 1.415 . S
C696 C701 1.425 . S
C696 C703 1.409 . S
C697 H689 0.930 . S
C697 C695 1.419 . S
C697 C698 1.362 . S
C698 H690 0.930 . S
C698 C697 1.362 . S
C698 C701 1.409 . S
C699 H691 0.930 . S
C699 C700 1.355 . S
C699 C701 1.415 . S
C700 C699 1.355 . S
C700 C702 1.419 . S
C701 C696 1.425 . S
C701 C698 1.409 . S
C701 C699 1.415 . S
C702 H692 0.930 . S
C702 C700 1.419 . S
C702 C703 1.362 . S
C703 H693 0.930 . S
C703 C696 1.409 . S
C703 C702 1.362 . S
H704 C710 0.930 . S
H705 C713 0.930 . S
H706 C714 0.930 . S
H707 C715 0.930 . S
H708 C718 0.930 . S
H709 C719 0.930 . S
C710 H704 0.930 . S
C710 C711 1.355 . S
C710 C712 1.415 . S
C711 C710 1.355 . S
C711 C713 1.419 . S
C712 C710 1.415 . S
C712 C717 1.425 . S
C712 C719 1.409 . S
C713 H705 0.930 . S
C713 C711 1.419 . S
C713 C714 1.362 . S
C714 H706 0.930 . S
C714 C713 1.362 . S
C714 C717 1.409 . S
C715 H707 0.930 . S
C715 C716 1.355 . S
C715 C717 1.415 . S
C716 C715 1.355 . S
C716 C718 1.419 . S
C717 C712 1.425 . S
C717 C714 1.409 . S
C717 C715 1.415 . S
C718 H708 0.930 . S
C718 C716 1.419 . S
C718 C719 1.362 . S
C719 H709 0.930 . S
C719 C712 1.409 . S
C719 C718 1.362 . S
H720 C726 0.930 . S
H721 C729 0.930 . S
H722 C730 0.930 . S
H723 C731 0.930 . S
H724 C734 0.930 . S
H725 C735 0.930 . S
C726 H720 0.930 . S
C726 C727 1.355 . S
C726 C728 1.415 . S
C727 C726 1.355 . S
C727 C729 1.419 . S
C728 C726 1.415 . S
C728 C733 1.425 . S
C728 C735 1.409 . S
C729 H721 0.930 . S
C729 C727 1.419 . S
C729 C730 1.362 . S
C730 H722 0.930 . S
C730 C729 1.362 . S
C730 C733 1.409 . S
C731 H723 0.930 . S
C731 C732 1.355 . S
C731 C733 1.415 . S
C732 C731 1.355 . S
C732 C734 1.419 . S
C733 C728 1.425 . S
C733 C730 1.409 . S
C733 C731 1.415 . S
C734 H724 0.930 . S
C734 C732 1.419 . S
C734 C735 1.362 . S
C735 H725 0.930 . S
C735 C728 1.409 . S
C735 C734 1.362 . S
H736 C742 0.930 . S
H737 C745 0.930 . S
H738 C746 0.930 . S
H739 C747 0.930 . S
H740 C750 0.930 . S
H741 C751 0.930 . S
C742 H736 0.930 . S
C742 C743 1.355 . S
C742 C744 1.415 . S
C743 C742 1.355 . S
C743 C745 1.419 . S
C744 C742 1.415 . S
C744 C749 1.425 . S
C744 C751 1.409 . S
C745 H737 0.930 . S
C745 C743 1.419 . S
C745 C746 1.362 . S
C746 H738 0.930 . S
C746 C745 1.362 . S
C746 C749 1.409 . S
C747 H739 0.930 . S
C747 C748 1.355 . S
C747 C749 1.415 . S
C748 C747 1.355 . S
C748 C750 1.419 . S
C749 C744 1.425 . S
C749 C746 1.409 . S
C749 C747 1.415 . S
C750 H740 0.930 . S
C750 C748 1.419 . S
C750 C751 1.362 . S
C751 H741 0.930 . S
C751 C744 1.409 . S
C751 C750 1.362 . S
H752 C758 0.930 . S
H753 C761 0.930 . S
H754 C762 0.930 . S
H755 C763 0.930 . S
H756 C766 0.930 . S
H757 C767 0.930 . S
C758 H752 0.930 . S
C758 C759 1.355 . S
C758 C760 1.415 . S
C759 C758 1.355 . S
C759 C761 1.419 . S
C760 C758 1.415 . S
C760 C765 1.425 . S
C760 C767 1.409 . S
C761 H753 0.930 . S
C761 C759 1.419 . S
C761 C762 1.362 . S
C762 H754 0.930 . S
C762 C761 1.362 . S
C762 C765 1.409 . S
C763 H755 0.930 . S
C763 C764 1.355 . S
C763 C765 1.415 . S
C764 C763 1.355 . S
C764 C766 1.419 . S
C765 C760 1.425 . S
C765 C762 1.409 . S
C765 C763 1.415 . S
C766 H756 0.930 . S
C766 C764 1.419 . S
C766 C767 1.362 . S
C767 H757 0.930 . S
C767 C760 1.409 . S
C767 C766 1.362 . S
H768 C774 0.930 1_545 S
H769 C777 0.930 . S
H770 C778 0.930 . S
H771 C779 0.930 1_565 S
H772 C782 0.930 . S
H773 C783 0.930 . S
C774 H768 0.930 1_565 S
C774 C775 1.355 . S
C774 C776 1.415 1_565 S
C775 C774 1.355 . S
C775 C777 1.419 . S
C776 C774 1.415 1_545 S
C776 C781 1.425 1_545 S
C776 C783 1.409 . S
C777 H769 0.930 . S
C777 C775 1.419 . S
C777 C778 1.362 . S
C778 H770 0.930 . S
C778 C777 1.362 . S
C778 C781 1.409 . S
C779 H771 0.930 1_545 S
C779 C780 1.355 . S
C779 C781 1.415 1_545 S
C780 C779 1.355 . S
C780 C782 1.419 . S
C781 C776 1.425 1_565 S
C781 C778 1.409 . S
C781 C779 1.415 1_565 S
C782 H772 0.930 . S
C782 C780 1.419 . S
C782 C783 1.362 . S
C783 H773 0.930 . S
C783 C776 1.409 . S
C783 C782 1.362 . S
H784 C790 0.930 . S
H785 C793 0.930 . S
H786 C794 0.930 . S
H787 C795 0.930 . S
H788 C798 0.930 . S
H789 C799 0.930 . S
C790 H784 0.930 . S
C790 C791 1.355 . S
C790 C792 1.415 1_545 S
C791 C790 1.355 . S
C791 C793 1.419 . S
C792 C790 1.415 1_565 S
C792 C797 1.425 1_565 S
C792 C799 1.409 . S
C793 H785 0.930 . S
C793 C791 1.419 . S
C793 C794 1.362 . S
C794 H786 0.930 . S
C794 C793 1.362 . S
C794 C797 1.409 . S
C795 H787 0.930 . S
C795 C796 1.355 . S
C795 C797 1.415 1_565 S
C796 C795 1.355 . S
C796 C798 1.419 . S
C797 C792 1.425 1_545 S
C797 C794 1.409 . S
C797 C795 1.415 1_545 S
C798 H788 0.930 . S
C798 C796 1.419 . S
C798 C799 1.362 . S
C799 H789 0.930 . S
C799 C792 1.409 . S
C799 C798 1.362 . S
H800 C806 0.930 . S
H801 C809 0.930 . S
H802 C810 0.930 . S
H803 C811 0.930 . S
H804 C814 0.930 . S
H805 C815 0.930 . S
C806 H800 0.930 . S
C806 C807 1.355 . S
C806 C808 1.415 . S
C807 C806 1.355 . S
C807 C809 1.419 1_545 S
C808 C806 1.415 . S
C808 C813 1.425 1_545 S
C808 C815 1.409 . S
C809 H801 0.930 . S
C809 C807 1.419 1_565 S
C809 C810 1.362 . S
C810 H802 0.930 . S
C810 C809 1.362 . S
C810 C813 1.409 . S
C811 H803 0.930 . S
C811 C812 1.355 . S
C811 C813 1.415 . S
C812 C811 1.355 . S
C812 C814 1.419 1_565 S
C813 C808 1.425 1_565 S
C813 C810 1.409 . S
C813 C811 1.415 . S
C814 H804 0.930 . S
C814 C812 1.419 1_545 S
C814 C815 1.362 . S
C815 H805 0.930 . S
C815 C808 1.409 . S
C815 C814 1.362 . S
H816 C822 0.930 1_565 S
H817 C825 0.930 . S
H818 C826 0.930 . S
H819 C827 0.930 1_545 S
H820 C830 0.930 . S
H821 C831 0.930 . S
C822 H816 0.930 1_545 S
C822 C823 1.355 . S
C822 C824 1.415 1_545 S
C823 C822 1.355 . S
C823 C825 1.419 . S
C824 C822 1.415 1_565 S
C824 C829 1.425 1_565 S
C824 C831 1.409 . S
C825 H817 0.930 . S
C825 C823 1.419 . S
C825 C826 1.362 . S
C826 H818 0.930 . S
C826 C825 1.362 . S
C826 C829 1.409 . S
C827 H819 0.930 1_565 S
C827 C828 1.355 . S
C827 C829 1.415 1_565 S
C828 C827 1.355 . S
C828 C830 1.419 . S
C829 C824 1.425 1_545 S
C829 C826 1.409 . S
C829 C827 1.415 1_545 S
C830 H820 0.930 . S
C830 C828 1.419 . S
C830 C831 1.362 . S
C831 H821 0.930 . S
C831 C824 1.409 . S
C831 C830 1.362 . S
H832 C838 0.930 . S
H833 C841 0.930 . S
H834 C842 0.930 . S
H835 C843 0.930 . S
H836 C846 0.930 . S
H837 C847 0.930 . S
C838 H832 0.930 . S
C838 C839 1.355 . S
C838 C840 1.415 . S
C839 C838 1.355 . S
C839 C841 1.419 . S
C840 C838 1.415 . S
C840 C845 1.425 . S
C840 C847 1.409 . S
C841 H833 0.930 . S
C841 C839 1.419 . S
C841 C842 1.362 . S
C842 H834 0.930 . S
C842 C841 1.362 . S
C842 C845 1.409 . S
C843 H835 0.930 . S
C843 C844 1.355 . S
C843 C845 1.415 . S
C844 C843 1.355 . S
C844 C846 1.419 . S
C845 C840 1.425 . S
C845 C842 1.409 . S
C845 C843 1.415 . S
C846 H836 0.930 . S
C846 C844 1.419 . S
C846 C847 1.362 . S
C847 H837 0.930 . S
C847 C840 1.409 . S
C847 C846 1.362 . S
H848 C854 0.930 . S
H849 C857 0.930 . S
H850 C858 0.930 . S
H851 C859 0.930 . S
H852 C862 0.930 . S
H853 C863 0.930 . S
C854 H848 0.930 . S
C854 C855 1.355 . S
C854 C856 1.415 . S
C855 C854 1.355 . S
C855 C857 1.419 . S
C856 C854 1.415 . S
C856 C861 1.425 . S
C856 C863 1.409 . S
C857 H849 0.930 . S
C857 C855 1.419 . S
C857 C858 1.362 . S
C858 H850 0.930 . S
C858 C857 1.362 . S
C858 C861 1.409 . S
C859 H851 0.930 . S
C859 C860 1.355 . S
C859 C861 1.415 . S
C860 C859 1.355 . S
C860 C862 1.419 . S
C861 C856 1.425 . S
C861 C858 1.409 . S
C861 C859 1.415 . S
C862 H852 0.930 . S
C862 C860 1.419 . S
C862 C863 1.362 . S
C863 H853 0.930 . S
C863 C856 1.409 . S
C863 C862 1.362 . S
H864 C870 0.930 . S
H865 C873 0.930 . S
H866 C874 0.930 . S
H867 C875 0.930 . S
H868 C878 0.930 . S
H869 C879 0.930 . S
C870 H864 0.930 . S
C870 C871 1.355 . S
C870 C872 1.415 . S
C871 C870 1.355 . S
C871 C873 1.419 . S
C872 C870 1.415 . S
C872 C877 1.425 . S
C872 C879 1.409 . S
C873 H865 0.930 . S
C873 C871 1.419 . S
C873 C874 1.362 . S
C874 H866 0.930 . S
C874 C873 1.362 . S
C874 C877 1.409 . S
C875 H867 0.930 . S
C875 C876 1.355 . S
C875 C877 1.415 . S
C876 C875 1.355 . S
C876 C878 1.419 . S
C877 C872 1.425 . S
C877 C874 1.409 . S
C877 C875 1.415 . S
C878 H868 0.930 . S
C878 C876 1.419 . S
C878 C879 1.362 . S
C879 H869 0.930 . S
C879 C872 1.409 . S
C879 C878 1.362 . S
H880 C886 0.930 . S
H881 C889 0.930 . S
H882 C890 0.930 . S
H883 C891 0.930 . S
H884 C894 0.930 . S
H885 C895 0.930 . S
C886 H880 0.930 . S
C886 C887 1.355 . S
C886 C888 1.415 . S
C887 C886 1.355 . S
C887 C889 1.419 . S
C888 C886 1.415 . S
C888 C893 1.425 . S
C888 C895 1.409 . S
C889 H881 0.930 . S
C889 C887 1.419 . S
C889 C890 1.362 . S
C890 H882 0.930 . S
C890 C889 1.362 . S
C890 C893 1.409 . S
C891 H883 0.930 . S
C891 C892 1.355 . S
C891 C893 1.415 . S
C892 C891 1.355 . S
C892 C894 1.419 . S
C893 C888 1.425 . S
C893 C890 1.409 . S
C893 C891 1.415 . S
C894 H884 0.930 . S
C894 C892 1.419 . S
C894 C895 1.362 . S
C895 H885 0.930 . S
C895 C888 1.409 . S
C895 C894 1.362 . S
H896 C902 0.930 . S
H897 C905 0.930 . S
H898 C906 0.930 . S
H899 C907 0.930 . S
H900 C910 0.930 . S
H901 C911 0.930 . S
C902 H896 0.930 . S
C902 C903 1.355 . S
C902 C904 1.415 . S
C903 C902 1.355 . S
C903 C905 1.419 . S
C904 C902 1.415 . S
C904 C909 1.425 1_556 S
C904 C911 1.409 1_556 S
C905 H897 0.930 . S
C905 C903 1.419 . S
C905 C906 1.362 . S
C906 H898 0.930 . S
C906 C905 1.362 . S
C906 C909 1.409 1_556 S
C907 H899 0.930 . S
C907 C908 1.355 . S
C907 C909 1.415 . S
C908 C907 1.355 . S
C908 C910 1.419 . S
C909 C904 1.425 1_554 S
C909 C906 1.409 1_554 S
C909 C907 1.415 . S
C910 H900 0.930 . S
C910 C908 1.419 . S
C910 C911 1.362 . S
C911 H901 0.930 . S
C911 C904 1.409 1_554 S
C911 C910 1.362 . S
H912 C918 0.930 . S
H913 C921 0.930 . S
H914 C922 0.930 . S
H915 C923 0.930 . S
H916 C926 0.930 . S
H917 C927 0.930 . S
C918 H912 0.930 . S
C918 C919 1.355 . S
C918 C920 1.415 . S
C919 C918 1.355 . S
C919 C921 1.419 . S
C920 C918 1.415 . S
C920 C925 1.425 1_556 S
C920 C927 1.409 1_556 S
C921 H913 0.930 . S
C921 C919 1.419 . S
C921 C922 1.362 . S
C922 H914 0.930 . S
C922 C921 1.362 . S
C922 C925 1.409 1_556 S
C923 H915 0.930 . S
C923 C924 1.355 . S
C923 C925 1.415 . S
C924 C923 1.355 . S
C924 C926 1.419 . S
C925 C920 1.425 1_554 S
C925 C922 1.409 1_554 S
C925 C923 1.415 . S
C926 H916 0.930 . S
C926 C924 1.419 . S
C926 C927 1.362 . S
C927 H917 0.930 . S
C927 C920 1.409 1_554 S
C927 C926 1.362 . S
H928 C934 0.930 . S
H929 C937 0.930 . S
H930 C938 0.930 . S
H931 C939 0.930 . S
H932 C942 0.930 . S
H933 C943 0.930 . S
C934 H928 0.930 . S
C934 C935 1.355 . S
C934 C936 1.415 . S
C935 C934 1.355 . S
C935 C937 1.419 . S
C936 C934 1.415 . S
C936 C941 1.425 . S
C936 C943 1.409 . S
C937 H929 0.930 . S
C937 C935 1.419 . S
C937 C938 1.362 . S
C938 H930 0.930 . S
C938 C937 1.362 . S
C938 C941 1.409 . S
C939 H931 0.930 . S
C939 C940 1.355 . S
C939 C941 1.415 . S
C940 C939 1.355 . S
C940 C942 1.419 . S
C941 C936 1.425 . S
C941 C938 1.409 . S
C941 C939 1.415 . S
C942 H932 0.930 . S
C942 C940 1.419 . S
C942 C943 1.362 . S
C943 H933 0.930 . S
C943 C936 1.409 . S
C943 C942 1.362 . S
H944 C950 0.930 . S
H945 C953 0.930 . S
H946 C954 0.930 . S
H947 C955 0.930 . S
H948 C958 0.930 . S
H949 C959 0.930 . S
C950 H944 0.930 . S
C950 C951 1.355 . S
C950 C952 1.415 . S
C951 C950 1.355 . S
C951 C953 1.419 . S
C952 C950 1.415 . S
C952 C957 1.425 . S
C952 C959 1.409 . S
C953 H945 0.930 . S
C953 C951 1.419 . S
C953 C954 1.362 . S
C954 H946 0.930 . S
C954 C953 1.362 . S
C954 C957 1.409 . S
C955 H947 0.930 . S
C955 C956 1.355 . S
C955 C957 1.415 . S
C956 C955 1.355 . S
C956 C958 1.419 . S
C957 C952 1.425 . S
C957 C954 1.409 . S
C957 C955 1.415 . S
C958 H948 0.930 . S
C958 C956 1.419 . S
C958 C959 1.362 . S
C959 H949 0.930 . S
C959 C952 1.409 . S
C959 C958 1.362 . S
H960 C966 0.930 . S
H961 C969 0.930 . S
H962 C970 0.930 . S
H963 C971 0.930 . S
H964 C974 0.930 . S
H965 C975 0.930 . S
C966 H960 0.930 . S
C966 C967 1.355 . S
C966 C968 1.415 . S
C967 C966 1.355 . S
C967 C969 1.419 . S
C968 C966 1.415 . S
C968 C973 1.425 1_554 S
C968 C975 1.409 1_554 S
C969 H961 0.930 . S
C969 C967 1.419 . S
C969 C970 1.362 . S
C970 H962 0.930 . S
C970 C969 1.362 . S
C970 C973 1.409 1_554 S
C971 H963 0.930 . S
C971 C972 1.355 . S
C971 C973 1.415 . S
C972 C971 1.355 . S
C972 C974 1.419 . S
C973 C968 1.425 1_556 S
C973 C970 1.409 1_556 S
C973 C971 1.415 . S
C974 H964 0.930 . S
C974 C972 1.419 . S
C974 C975 1.362 . S
C975 H965 0.930 . S
C975 C968 1.409 1_556 S
C975 C974 1.362 . S
H976 C982 0.930 . S
H977 C985 0.930 . S
H978 C986 0.930 . S
H979 C987 0.930 . S
H980 C990 0.930 . S
H981 C991 0.930 . S
C982 H976 0.930 . S
C982 C983 1.355 . S
C982 C984 1.415 . S
C983 C982 1.355 . S
C983 C985 1.419 . S
C984 C982 1.415 . S
C984 C989 1.425 1_556 S
C984 C991 1.409 1_556 S
C985 H977 0.930 . S
C985 C983 1.419 . S
C985 C986 1.362 . S
C986 H978 0.930 . S
C986 C985 1.362 . S
C986 C989 1.409 1_556 S
C987 H979 0.930 . S
C987 C988 1.355 . S
C987 C989 1.415 . S
C988 C987 1.355 . S
C988 C990 1.419 . S
C989 C984 1.425 1_554 S
C989 C986 1.409 1_554 S
C989 C987 1.415 . S
C990 H980 0.930 . S
C990 C988 1.419 . S
C990 C991 1.362 . S
C991 H981 0.930 . S
C991 C984 1.409 1_554 S
C991 C990 1.362 . S
H992 C998 0.930 . S
H993 C1001 0.930 . S
H994 C1002 0.930 . S
H995 C1003 0.930 . S
H996 C1006 0.930 . S
H997 C1007 0.930 . S
C998 H992 0.930 . S
C998 C999 1.355 . S
C998 C1000 1.415 . S
C999 C998 1.355 . S
C999 C1001 1.419 . S
C1000 C998 1.415 . S
C1000 C1005 1.425 . S
C1000 C1007 1.409 . S
C1001 H993 0.930 . S
C1001 C999 1.419 . S
C1001 C1002 1.362 . S
C1002 H994 0.930 . S
C1002 C1001 1.362 . S
C1002 C1005 1.409 . S
C1003 H995 0.930 . S
C1003 C1004 1.355 . S
C1003 C1005 1.415 . S
C1004 C1003 1.355 . S
C1004 C1006 1.419 . S
C1005 C1000 1.425 . S
C1005 C1002 1.409 . S
C1005 C1003 1.415 . S
C1006 H996 0.930 . S
C1006 C1004 1.419 . S
C1006 C1007 1.362 . S
C1007 H997 0.930 . S
C1007 C1000 1.409 . S
C1007 C1006 1.362 . S
H1008 C1014 0.930 . S
H1009 C1017 0.930 . S
H1010 C1018 0.930 . S
H1011 C1019 0.930 . S
H1012 C1022 0.930 . S
H1013 C1023 0.930 . S
C1014 H1008 0.930 . S
C1014 C1015 1.355 . S
C1014 C1016 1.415 . S
C1015 C1014 1.355 . S
C1015 C1017 1.419 . S
C1016 C1014 1.415 . S
C1016 C1021 1.425 . S
C1016 C1023 1.409 . S
C1017 H1009 0.930 . S
C1017 C1015 1.419 . S
C1017 C1018 1.362 . S
C1018 H1010 0.930 . S
C1018 C1017 1.362 . S
C1018 C1021 1.409 . S
C1019 H1011 0.930 . S
C1019 C1020 1.355 . S
C1019 C1021 1.415 . S
C1020 C1019 1.355 . S
C1020 C1022 1.419 . S
C1021 C1016 1.425 . S
C1021 C1018 1.409 . S
C1021 C1019 1.415 . S
C1022 H1012 0.930 . S
C1022 C1020 1.419 . S
C1022 C1023 1.362 . S
C1023 H1013 0.930 . S
C1023 C1016 1.409 . S
C1023 C1022 1.362 . S
H1024 C1030 0.930 . S
H1025 C1033 0.930 . S
H1026 C1034 0.930 . S
H1027 C1035 0.930 . S
H1028 C1038 0.930 . S
H1029 C1039 0.930 . S
C1030 H1024 0.930 . S
C1030 C1031 1.355 1_545 S
C1030 C1032 1.415 . S
C1031 C1030 1.355 1_565 S
C1031 C1033 1.419 . S
C1032 C1030 1.415 . S
C1032 C1037 1.425 1_645 S
C1032 C1039 1.409 1_655 S
C1033 H1025 0.930 . S
C1033 C1031 1.419 . S
C1033 C1034 1.362 . S
C1034 H1026 0.930 . S
C1034 C1033 1.362 . S
C1034 C1037 1.409 1_655 S
C1035 H1027 0.930 . S
C1035 C1036 1.355 1_565 S
C1035 C1037 1.415 . S
C1036 C1035 1.355 1_545 S
C1036 C1038 1.419 . S
C1037 C1032 1.425 1_465 S
C1037 C1034 1.409 1_455 S
C1037 C1035 1.415 . S
C1038 H1028 0.930 . S
C1038 C1036 1.419 . S
C1038 C1039 1.362 . S
C1039 H1029 0.930 . S
C1039 C1032 1.409 1_455 S
C1039 C1038 1.362 . S
H1040 C1046 0.930 . S
H1041 C1049 0.930 . S
H1042 C1050 0.930 1_455 S
H1043 C1051 0.930 . S
H1044 C1054 0.930 . S
H1045 C1055 0.930 1_655 S
C1046 H1040 0.930 . S
C1046 C1047 1.355 1_565 S
C1046 C1048 1.415 . S
C1047 C1046 1.355 1_545 S
C1047 C1049 1.419 . S
C1048 C1046 1.415 . S
C1048 C1053 1.425 1_665 S
C1048 C1055 1.409 1_655 S
C1049 H1041 0.930 . S
C1049 C1047 1.419 . S
C1049 C1050 1.362 . S
C1050 H1042 0.930 1_655 S
C1050 C1049 1.362 . S
C1050 C1053 1.409 1_655 S
C1051 H1043 0.930 . S
C1051 C1052 1.355 1_545 S
C1051 C1053 1.415 . S
C1052 C1051 1.355 1_565 S
C1052 C1054 1.419 . S
C1053 C1048 1.425 1_445 S
C1053 C1050 1.409 1_455 S
C1053 C1051 1.415 . S
C1054 H1044 0.930 . S
C1054 C1052 1.419 . S
C1054 C1055 1.362 . S
C1055 H1045 0.930 1_455 S
C1055 C1048 1.409 1_455 S
C1055 C1054 1.362 . S
H1056 C1062 0.930 . S
H1057 C1065 0.930 . S
H1058 C1066 0.930 . S
H1059 C1067 0.930 . S
H1060 C1070 0.930 . S
H1061 C1071 0.930 . S
C1062 H1056 0.930 . S
C1062 C1063 1.355 . S
C1062 C1064 1.415 . S
C1063 C1062 1.355 . S
C1063 C1065 1.419 1_545 S
C1064 C1062 1.415 . S
C1064 C1069 1.425 1_445 S
C1064 C1071 1.409 1_455 S
C1065 H1057 0.930 . S
C1065 C1063 1.419 1_565 S
C1065 C1066 1.362 . S
C1066 H1058 0.930 . S
C1066 C1065 1.362 . S
C1066 C1069 1.409 1_455 S
C1067 H1059 0.930 . S
C1067 C1068 1.355 . S
C1067 C1069 1.415 . S
C1068 C1067 1.355 . S
C1068 C1070 1.419 1_565 S
C1069 C1064 1.425 1_665 S
C1069 C1066 1.409 1_655 S
C1069 C1067 1.415 . S
C1070 H1060 0.930 . S
C1070 C1068 1.419 1_545 S
C1070 C1071 1.362 . S
C1071 H1061 0.930 . S
C1071 C1064 1.409 1_655 S
C1071 C1070 1.362 . S
H1072 C1078 0.930 . S
H1073 C1081 0.930 . S
H1074 C1082 0.946 . S
H1075 C1083 0.930 . S
H1076 C1086 0.930 . S
H1077 C1087 0.946 . S
C1078 H1072 0.930 . S
C1078 C1079 1.355 1_565 S
C1078 C1080 1.415 . S
C1079 C1078 1.355 1_545 S
C1079 C1081 1.419 . S
C1080 C1078 1.415 . S
C1080 C1085 1.425 1_665 S
C1080 C1087 1.409 1_655 S
C1081 H1073 0.930 . S
C1081 C1079 1.419 . S
C1081 C1082 1.362 . S
C1082 H1074 0.946 . S
C1082 C1081 1.362 . S
C1082 C1085 1.409 1_655 S
C1083 H1075 0.930 . S
C1083 C1084 1.355 1_545 S
C1083 C1085 1.415 . S
C1084 C1083 1.355 1_565 S
C1084 C1086 1.419 . S
C1085 C1080 1.425 1_445 S
C1085 C1082 1.409 1_455 S
C1085 C1083 1.415 . S
C1086 H1076 0.930 . S
C1086 C1084 1.419 . S
C1086 C1087 1.362 . S
C1087 H1077 0.946 . S
C1087 C1080 1.409 1_455 S
C1087 C1086 1.362 . S
H1088 C1094 0.930 . S
H1089 C1097 0.930 . S
H1090 C1098 0.930 . S
H1091 C1099 0.930 . S
H1092 C1102 0.930 . S
H1093 C1103 0.930 . S
C1094 H1088 0.930 . S
C1094 C1095 1.355 . S
C1094 C1096 1.415 . S
C1095 C1094 1.355 . S
C1095 C1097 1.419 . S
C1096 C1094 1.415 . S
C1096 C1101 1.425 . S
C1096 C1103 1.409 . S
C1097 H1089 0.930 . S
C1097 C1095 1.419 . S
C1097 C1098 1.362 . S
C1098 H1090 0.930 . S
C1098 C1097 1.362 . S
C1098 C1101 1.409 . S
C1099 H1091 0.930 . S
C1099 C1100 1.355 . S
C1099 C1101 1.415 . S
C1100 C1099 1.355 . S
C1100 C1102 1.419 . S
C1101 C1096 1.425 . S
C1101 C1098 1.409 . S
C1101 C1099 1.415 . S
C1102 H1092 0.930 . S
C1102 C1100 1.419 . S
C1102 C1103 1.362 . S
C1103 H1093 0.930 . S
C1103 C1096 1.409 . S
C1103 C1102 1.362 . S
H1104 C1110 0.930 . S
H1105 C1113 0.930 . S
H1106 C1114 0.930 . S
H1107 C1115 0.930 . S
H1108 C1118 0.930 . S
H1109 C1119 0.930 . S
C1110 H1104 0.930 . S
C1110 C1111 1.355 . S
C1110 C1112 1.415 . S
C1111 C1110 1.355 . S
C1111 C1113 1.419 . S
C1112 C1110 1.415 . S
C1112 C1117 1.425 . S
C1112 C1119 1.409 . S
C1113 H1105 0.930 . S
C1113 C1111 1.419 . S
C1113 C1114 1.362 . S
C1114 H1106 0.930 . S
C1114 C1113 1.362 . S
C1114 C1117 1.409 . S
C1115 H1107 0.930 . S
C1115 C1116 1.355 . S
C1115 C1117 1.415 . S
C1116 C1115 1.355 . S
C1116 C1118 1.419 . S
C1117 C1112 1.425 . S
C1117 C1114 1.409 . S
C1117 C1115 1.415 . S
C1118 H1108 0.930 . S
C1118 C1116 1.419 . S
C1118 C1119 1.362 . S
C1119 H1109 0.930 . S
C1119 C1112 1.409 . S
C1119 C1118 1.362 . S
H1120 C1126 0.930 . S
H1121 C1129 0.930 . S
H1122 C1130 0.930 . S
H1123 C1131 0.930 . S
H1124 C1134 0.930 . S
H1125 C1135 0.930 . S
C1126 H1120 0.930 . S
C1126 C1127 1.355 . S
C1126 C1128 1.415 . S
C1127 C1126 1.355 . S
C1127 C1129 1.419 . S
C1128 C1126 1.415 . S
C1128 C1133 1.425 . S
C1128 C1135 1.409 . S
C1129 H1121 0.930 . S
C1129 C1127 1.419 . S
C1129 C1130 1.362 . S
C1130 H1122 0.930 . S
C1130 C1129 1.362 . S
C1130 C1133 1.409 . S
C1131 H1123 0.930 . S
C1131 C1132 1.355 . S
C1131 C1133 1.415 . S
C1132 C1131 1.355 . S
C1132 C1134 1.419 . S
C1133 C1128 1.425 . S
C1133 C1130 1.409 . S
C1133 C1131 1.415 . S
C1134 H1124 0.930 . S
C1134 C1132 1.419 . S
C1134 C1135 1.362 . S
C1135 H1125 0.930 . S
C1135 C1128 1.409 . S
C1135 C1134 1.362 . S
H1136 C1142 0.930 . S
H1137 C1145 0.930 . S
H1138 C1146 0.930 . S
H1139 C1147 0.930 . S
H1140 C1150 0.930 . S
H1141 C1151 0.930 . S
C1142 H1136 0.930 . S
C1142 C1143 1.355 . S
C1142 C1144 1.415 . S
C1143 C1142 1.355 . S
C1143 C1145 1.419 . S
C1144 C1142 1.415 . S
C1144 C1149 1.425 . S
C1144 C1151 1.409 . S
C1145 H1137 0.930 . S
C1145 C1143 1.419 . S
C1145 C1146 1.362 . S
C1146 H1138 0.930 . S
C1146 C1145 1.362 . S
C1146 C1149 1.409 . S
C1147 H1139 0.930 . S
C1147 C1148 1.355 . S
C1147 C1149 1.415 . S
C1148 C1147 1.355 . S
C1148 C1150 1.419 . S
C1149 C1144 1.425 . S
C1149 C1146 1.409 . S
C1149 C1147 1.415 . S
C1150 H1140 0.930 . S
C1150 C1148 1.419 . S
C1150 C1151 1.362 . S
C1151 H1141 0.930 . S
C1151 C1144 1.409 . S
C1151 C1150 1.362 . S
H1152 C1158 0.930 . S
H1153 C1161 0.930 . S
H1154 C1162 0.930 . S
H1155 C1163 0.930 . S
H1156 C1166 0.930 . S
H1157 C1167 0.930 . S
C1158 H1152 0.930 . S
C1158 C1159 1.355 . S
C1158 C1160 1.415 . S
C1159 C1158 1.355 . S
C1159 C1161 1.419 . S
C1160 C1158 1.415 . S
C1160 C1165 1.425 . S
C1160 C1167 1.409 . S
C1161 H1153 0.930 . S
C1161 C1159 1.419 . S
C1161 C1162 1.362 . S
C1162 H1154 0.930 . S
C1162 C1161 1.362 . S
C1162 C1165 1.409 . S
C1163 H1155 0.930 . S
C1163 C1164 1.355 . S
C1163 C1165 1.415 . S
C1164 C1163 1.355 . S
C1164 C1166 1.419 . S
C1165 C1160 1.425 . S
C1165 C1162 1.409 . S
C1165 C1163 1.415 . S
C1166 H1156 0.930 . S
C1166 C1164 1.419 . S
C1166 C1167 1.362 . S
C1167 H1157 0.930 . S
C1167 C1160 1.409 . S
C1167 C1166 1.362 . S
H1168 C1174 0.930 . S
H1169 C1177 0.930 . S
H1170 C1178 0.930 . S
H1171 C1179 0.930 . S
H1172 C1182 0.930 . S
H1173 C1183 0.930 . S
C1174 H1168 0.930 . S
C1174 C1175 1.355 . S
C1174 C1176 1.415 . S
C1175 C1174 1.355 . S
C1175 C1177 1.419 . S
C1176 C1174 1.415 . S
C1176 C1181 1.425 . S
C1176 C1183 1.409 . S
C1177 H1169 0.930 . S
C1177 C1175 1.419 . S
C1177 C1178 1.362 . S
C1178 H1170 0.930 . S
C1178 C1177 1.362 . S
C1178 C1181 1.409 . S
C1179 H1171 0.930 . S
C1179 C1180 1.355 . S
C1179 C1181 1.415 . S
C1180 C1179 1.355 . S
C1180 C1182 1.419 . S
C1181 C1176 1.425 . S
C1181 C1178 1.409 . S
C1181 C1179 1.415 . S
C1182 H1172 0.930 . S
C1182 C1180 1.419 . S
C1182 C1183 1.362 . S
C1183 H1173 0.930 . S
C1183 C1176 1.409 . S
C1183 C1182 1.362 . S
H1184 C1190 0.930 . S
H1185 C1193 0.930 . S
H1186 C1194 0.930 . S
H1187 C1195 0.930 . S
H1188 C1198 0.930 . S
H1189 C1199 0.930 . S
C1190 H1184 0.930 . S
C1190 C1191 1.355 . S
C1190 C1192 1.415 . S
C1191 C1190 1.355 . S
C1191 C1193 1.419 . S
C1192 C1190 1.415 . S
C1192 C1197 1.425 . S
C1192 C1199 1.409 . S
C1193 H1185 0.930 . S
C1193 C1191 1.419 . S
C1193 C1194 1.362 . S
C1194 H1186 0.930 . S
C1194 C1193 1.362 . S
C1194 C1197 1.409 . S
C1195 H1187 0.930 . S
C1195 C1196 1.355 . S
C1195 C1197 1.415 . S
C1196 C1195 1.355 . S
C1196 C1198 1.419 . S
C1197 C1192 1.425 . S
C1197 C1194 1.409 . S
C1197 C1195 1.415 . S
C1198 H1188 0.930 . S
C1198 C1196 1.419 . S
C1198 C1199 1.362 . S
C1199 H1189 0.930 . S
C1199 C1192 1.409 . S
C1199 C1198 1.362 . S
H1200 C1206 0.930 . S
H1201 C1209 0.930 . S
H1202 C1210 0.930 . S
H1203 C1211 0.930 . S
H1204 C1214 0.930 . S
H1205 C1215 0.930 . S
C1206 H1200 0.930 . S
C1206 C1207 1.355 . S
C1206 C1208 1.415 . S
C1207 C1206 1.355 . S
C1207 C1209 1.419 . S
C1208 C1206 1.415 . S
C1208 C1213 1.425 . S
C1208 C1215 1.409 . S
C1209 H1201 0.930 . S
C1209 C1207 1.419 . S
C1209 C1210 1.362 . S
C1210 H1202 0.930 . S
C1210 C1209 1.362 . S
C1210 C1213 1.409 . S
C1211 H1203 0.930 . S
C1211 C1212 1.355 . S
C1211 C1213 1.415 . S
C1212 C1211 1.355 . S
C1212 C1214 1.419 . S
C1213 C1208 1.425 . S
C1213 C1210 1.409 . S
C1213 C1211 1.415 . S
C1214 H1204 0.930 . S
C1214 C1212 1.419 . S
C1214 C1215 1.362 . S
C1215 H1205 0.930 . S
C1215 C1208 1.409 . S
C1215 C1214 1.362 . S
H1216 C1222 0.930 . S
H1217 C1225 0.930 . S
H1218 C1226 0.930 . S
H1219 C1227 0.930 . S
H1220 C1230 0.930 . S
H1221 C1231 0.930 . S
C1222 H1216 0.930 . S
C1222 C1223 1.355 . S
C1222 C1224 1.415 . S
C1223 C1222 1.355 . S
C1223 C1225 1.419 . S
C1224 C1222 1.415 . S
C1224 C1229 1.425 . S
C1224 C1231 1.409 . S
C1225 H1217 0.930 . S
C1225 C1223 1.419 . S
C1225 C1226 1.362 . S
C1226 H1218 0.930 . S
C1226 C1225 1.362 . S
C1226 C1229 1.409 . S
C1227 H1219 0.930 . S
C1227 C1228 1.355 . S
C1227 C1229 1.415 . S
C1228 C1227 1.355 . S
C1228 C1230 1.419 . S
C1229 C1224 1.425 . S
C1229 C1226 1.409 . S
C1229 C1227 1.415 . S
C1230 H1220 0.930 . S
C1230 C1228 1.419 . S
C1230 C1231 1.362 . S
C1231 H1221 0.930 . S
C1231 C1224 1.409 . S
C1231 C1230 1.362 . S
H1232 C1238 0.930 . S
H1233 C1241 0.930 . S
H1234 C1242 0.930 . S
H1235 C1243 0.930 . S
H1236 C1246 0.930 . S
H1237 C1247 0.930 . S
C1238 H1232 0.930 . S
C1238 C1239 1.355 . S
C1238 C1240 1.415 . S
C1239 C1238 1.355 . S
C1239 C1241 1.419 . S
C1240 C1238 1.415 . S
C1240 C1245 1.425 . S
C1240 C1247 1.409 . S
C1241 H1233 0.930 . S
C1241 C1239 1.419 . S
C1241 C1242 1.362 . S
C1242 H1234 0.930 . S
C1242 C1241 1.362 . S
C1242 C1245 1.409 . S
C1243 H1235 0.930 . S
C1243 C1244 1.355 . S
C1243 C1245 1.415 . S
C1244 C1243 1.355 . S
C1244 C1246 1.419 . S
C1245 C1240 1.425 . S
C1245 C1242 1.409 . S
C1245 C1243 1.415 . S
C1246 H1236 0.930 . S
C1246 C1244 1.419 . S
C1246 C1247 1.362 . S
C1247 H1237 0.930 . S
C1247 C1240 1.409 . S
C1247 C1246 1.362 . S
H1248 C1254 0.930 . S
H1249 C1257 0.930 . S
H1250 C1258 0.930 . S
H1251 C1259 0.930 . S
H1252 C1262 0.930 . S
H1253 C1263 0.930 . S
C1254 H1248 0.930 . S
C1254 C1255 1.355 . S
C1254 C1256 1.415 . S
C1255 C1254 1.355 . S
C1255 C1257 1.419 . S
C1256 C1254 1.415 . S
C1256 C1261 1.425 . S
C1256 C1263 1.409 . S
C1257 H1249 0.930 . S
C1257 C1255 1.419 . S
C1257 C1258 1.362 . S
C1258 H1250 0.930 . S
C1258 C1257 1.362 . S
C1258 C1261 1.409 . S
C1259 H1251 0.930 . S
C1259 C1260 1.355 . S
C1259 C1261 1.415 . S
C1260 C1259 1.355 . S
C1260 C1262 1.419 . S
C1261 C1256 1.425 . S
C1261 C1258 1.409 . S
C1261 C1259 1.415 . S
C1262 H1252 0.930 . S
C1262 C1260 1.419 . S
C1262 C1263 1.362 . S
C1263 H1253 0.930 . S
C1263 C1256 1.409 . S
C1263 C1262 1.362 . S
H1264 C1270 0.930 . S
H1265 C1273 0.930 . S
H1266 C1274 0.930 . S
H1267 C1275 0.930 . S
H1268 C1278 0.930 . S
H1269 C1279 0.930 . S
C1270 H1264 0.930 . S
C1270 C1271 1.355 . S
C1270 C1272 1.415 . S
C1271 C1270 1.355 . S
C1271 C1273 1.419 . S
C1272 C1270 1.415 . S
C1272 C1277 1.425 . S
C1272 C1279 1.409 . S
C1273 H1265 0.930 . S
C1273 C1271 1.419 . S
C1273 C1274 1.362 . S
C1274 H1266 0.930 . S
C1274 C1273 1.362 . S
C1274 C1277 1.409 . S
C1275 H1267 0.930 . S
C1275 C1276 1.355 . S
C1275 C1277 1.415 . S
C1276 C1275 1.355 . S
C1276 C1278 1.419 . S
C1277 C1272 1.425 . S
C1277 C1274 1.409 . S
C1277 C1275 1.415 . S
C1278 H1268 0.930 . S
C1278 C1276 1.419 . S
C1278 C1279 1.362 . S
C1279 H1269 0.930 . S
C1279 C1272 1.409 . S
C1279 C1278 1.362 . S
H1280 C1286 0.930 . S
H1281 C1289 0.930 1_565 S
H1282 C1290 0.930 . S
H1283 C1291 0.930 . S
H1284 C1294 0.930 . S
H1285 C1295 0.930 . S
C1286 H1280 0.930 . S
C1286 C1287 1.355 1_545 S
C1286 C1288 1.415 . S
C1287 C1286 1.355 1_565 S
C1287 C1289 1.419 1_565 S
C1288 C1286 1.415 . S
C1288 C1293 1.425 . S
C1288 C1295 1.409 . S
C1289 H1281 0.930 1_545 S
C1289 C1287 1.419 1_545 S
C1289 C1290 1.362 . S
C1290 H1282 0.930 . S
C1290 C1289 1.362 . S
C1290 C1293 1.409 . S
C1291 H1283 0.930 . S
C1291 C1292 1.355 . S
C1291 C1293 1.415 . S
C1292 C1291 1.355 . S
C1292 C1294 1.419 . S
C1293 C1288 1.425 . S
C1293 C1290 1.409 . S
C1293 C1291 1.415 . S
C1294 H1284 0.930 . S
C1294 C1292 1.419 . S
C1294 C1295 1.362 . S
C1295 H1285 0.930 . S
C1295 C1288 1.409 . S
C1295 C1294 1.362 . S
H1296 C1302 0.930 . S
H1297 C1305 0.930 . S
H1298 C1306 0.930 . S
H1299 C1307 0.930 . S
H1300 C1310 0.930 . S
H1301 C1311 0.930 . S
C1302 H1296 0.930 . S
C1302 C1303 1.355 . S
C1302 C1304 1.415 . S
C1303 C1302 1.355 . S
C1303 C1305 1.419 . S
C1304 C1302 1.415 . S
C1304 C1309 1.425 . S
C1304 C1311 1.409 . S
C1305 H1297 0.930 . S
C1305 C1303 1.419 . S
C1305 C1306 1.362 . S
C1306 H1298 0.930 . S
C1306 C1305 1.362 . S
C1306 C1309 1.409 . S
C1307 H1299 0.930 . S
C1307 C1308 1.355 1_565 S
C1307 C1309 1.415 . S
C1308 C1307 1.355 1_545 S
C1308 C1310 1.419 1_545 S
C1309 C1304 1.425 . S
C1309 C1306 1.409 . S
C1309 C1307 1.415 . S
C1310 H1300 0.930 . S
C1310 C1308 1.419 1_565 S
C1310 C1311 1.362 . S
C1311 H1301 0.930 . S
C1311 C1304 1.409 . S
C1311 C1310 1.362 . S
H1312 C1318 0.930 . S
H1313 C1321 0.930 1_545 S
H1314 C1322 0.930 . S
H1315 C1323 0.930 . S
H1316 C1326 0.930 . S
H1317 C1327 0.930 . S
C1318 H1312 0.930 . S
C1318 C1319 1.355 1_565 S
C1318 C1320 1.415 . S
C1319 C1318 1.355 1_545 S
C1319 C1321 1.419 1_545 S
C1320 C1318 1.415 . S
C1320 C1325 1.425 . S
C1320 C1327 1.409 . S
C1321 H1313 0.930 1_565 S
C1321 C1319 1.419 1_565 S
C1321 C1322 1.362 . S
C1322 H1314 0.930 . S
C1322 C1321 1.362 . S
C1322 C1325 1.409 . S
C1323 H1315 0.930 . S
C1323 C1324 1.355 . S
C1323 C1325 1.415 . S
C1324 C1323 1.355 . S
C1324 C1326 1.419 . S
C1325 C1320 1.425 . S
C1325 C1322 1.409 . S
C1325 C1323 1.415 . S
C1326 H1316 0.930 . S
C1326 C1324 1.419 . S
C1326 C1327 1.362 . S
C1327 H1317 0.930 . S
C1327 C1320 1.409 . S
C1327 C1326 1.362 . S
H1328 C1334 0.930 . S
H1329 C1337 0.930 1_565 S
H1330 C1338 0.930 . S
H1331 C1339 0.930 . S
H1332 C1342 0.930 . S
H1333 C1343 0.930 . S
C1334 H1328 0.930 . S
C1334 C1335 1.355 1_545 S
C1334 C1336 1.415 . S
C1335 C1334 1.355 1_565 S
C1335 C1337 1.419 1_565 S
C1336 C1334 1.415 . S
C1336 C1341 1.425 . S
C1336 C1343 1.409 . S
C1337 H1329 0.930 1_545 S
C1337 C1335 1.419 1_545 S
C1337 C1338 1.362 . S
C1338 H1330 0.930 . S
C1338 C1337 1.362 . S
C1338 C1341 1.409 . S
C1339 H1331 0.930 . S
C1339 C1340 1.355 . S
C1339 C1341 1.415 . S
C1340 C1339 1.355 . S
C1340 C1342 1.419 . S
C1341 C1336 1.425 . S
C1341 C1338 1.409 . S
C1341 C1339 1.415 . S
C1342 H1332 0.930 . S
C1342 C1340 1.419 . S
C1342 C1343 1.362 . S
C1343 H1333 0.930 . S
C1343 C1336 1.409 . S
C1343 C1342 1.362 . S
H1344 C1350 0.930 . S
H1345 C1353 0.930 . S
H1346 C1354 0.930 . S
H1347 C1355 0.930 . S
H1348 C1358 0.930 1_545 S
H1349 C1359 0.930 . S
C1350 H1344 0.930 . S
C1350 C1351 1.355 . S
C1350 C1352 1.415 . S
C1351 C1350 1.355 . S
C1351 C1353 1.419 . S
C1352 C1350 1.415 . S
C1352 C1357 1.425 . S
C1352 C1359 1.409 . S
C1353 H1345 0.930 . S
C1353 C1351 1.419 . S
C1353 C1354 1.362 . S
C1354 H1346 0.930 . S
C1354 C1353 1.362 . S
C1354 C1357 1.409 . S
C1355 H1347 0.930 . S
C1355 C1356 1.355 1_565 S
C1355 C1357 1.415 . S
C1356 C1355 1.355 1_545 S
C1356 C1358 1.419 1_545 S
C1357 C1352 1.425 . S
C1357 C1354 1.409 . S
C1357 C1355 1.415 . S
C1358 H1348 0.930 1_565 S
C1358 C1356 1.419 1_565 S
C1358 C1359 1.362 . S
C1359 H1349 0.930 . S
C1359 C1352 1.409 . S
C1359 C1358 1.362 . S
H1360 C1366 0.930 . S
H1361 C1369 0.930 . S
H1362 C1370 0.930 . S
H1363 C1371 0.930 . S
H1364 C1374 0.930 . S
H1365 C1375 0.930 . S
C1366 H1360 0.930 . S
C1366 C1367 1.355 . S
C1366 C1368 1.415 . S
C1367 C1366 1.355 . S
C1367 C1369 1.419 . S
C1368 C1366 1.415 . S
C1368 C1373 1.425 . S
C1368 C1375 1.409 . S
C1369 H1361 0.930 . S
C1369 C1367 1.419 . S
C1369 C1370 1.362 . S
C1370 H1362 0.930 . S
C1370 C1369 1.362 . S
C1370 C1373 1.409 . S
C1371 H1363 0.930 . S
C1371 C1372 1.355 1_545 S
C1371 C1373 1.415 . S
C1372 C1371 1.355 1_565 S
C1372 C1374 1.419 1_565 S
C1373 C1368 1.425 . S
C1373 C1370 1.409 . S
C1373 C1371 1.415 . S
C1374 H1364 0.930 . S
C1374 C1372 1.419 1_545 S
C1374 C1375 1.362 . S
C1375 H1365 0.930 . S
C1375 C1368 1.409 . S
C1375 C1374 1.362 . S
H1376 C1382 0.930 . S
H1377 C1385 0.930 1_565 S
H1378 C1386 0.930 . S
H1379 C1387 0.930 . S
H1380 C1390 0.930 . S
H1381 C1391 0.930 . S
C1382 H1376 0.930 . S
C1382 C1383 1.355 1_545 S
C1382 C1384 1.415 . S
C1383 C1382 1.355 1_565 S
C1383 C1385 1.419 1_565 S
C1384 C1382 1.415 . S
C1384 C1389 1.425 . S
C1384 C1391 1.409 . S
C1385 H1377 0.930 1_545 S
C1385 C1383 1.419 1_545 S
C1385 C1386 1.362 . S
C1386 H1378 0.930 . S
C1386 C1385 1.362 . S
C1386 C1389 1.409 . S
C1387 H1379 0.930 . S
C1387 C1388 1.355 . S
C1387 C1389 1.415 . S
C1388 C1387 1.355 . S
C1388 C1390 1.419 . S
C1389 C1384 1.425 . S
C1389 C1386 1.409 . S
C1389 C1387 1.415 . S
C1390 H1380 0.930 . S
C1390 C1388 1.419 . S
C1390 C1391 1.362 . S
C1391 H1381 0.930 . S
C1391 C1384 1.409 . S
C1391 C1390 1.362 . S
H1392 C1398 0.930 . S
H1393 C1401 0.930 . S
H1394 C1402 0.930 . S
H1395 C1403 0.930 . S
H1396 C1406 0.930 1_545 S
H1397 C1407 0.930 . S
C1398 H1392 0.930 . S
C1398 C1399 1.355 . S
C1398 C1400 1.415 . S
C1399 C1398 1.355 . S
C1399 C1401 1.419 . S
C1400 C1398 1.415 . S
C1400 C1405 1.425 . S
C1400 C1407 1.409 . S
C1401 H1393 0.930 . S
C1401 C1399 1.419 . S
C1401 C1402 1.362 . S
C1402 H1394 0.930 . S
C1402 C1401 1.362 . S
C1402 C1405 1.409 . S
C1403 H1395 0.930 . S
C1403 C1404 1.355 1_565 S
C1403 C1405 1.415 . S
C1404 C1403 1.355 1_545 S
C1404 C1406 1.419 1_545 S
C1405 C1400 1.425 . S
C1405 C1402 1.409 . S
C1405 C1403 1.415 . S
C1406 H1396 0.930 1_565 S
C1406 C1404 1.419 1_565 S
C1406 C1407 1.362 . S
C1407 H1397 0.930 . S
C1407 C1400 1.409 . S
C1407 C1406 1.362 . S
C647 C9 1.578 . S
C652 C369 1.569 . S
C663 C49 1.562 . S
C668 C329 1.568 . S
C679 C449 1.561 . S
C684 C89 1.569 . S
C695 C129 1.579 . S
C700 C409 1.569 . S
C711 C539 1.567 . S
C716 C179 1.563 . S
C727 C499 1.558 . S
C732 C219 1.577 . S
C743 C619 1.564 . S
C748 C259 1.581 . S
C759 C299 1.558 . S
C764 C579 1.579 . S
C775 C88 1.674 . S
C780 C8 1.712 . S
C791 C128 1.672 . S
C796 C48 1.714 . S
C807 C258 1.687 . S
C812 C178 1.697 . S
C823 C218 1.703 . S
C828 C298 1.684 . S
C839 C408 1.698 . S
C844 C328 1.689 . S
C855 C448 1.674 . S
C860 C368 1.712 . S
C871 C498 1.714 . S
C876 C578 1.671 . S
C887 C538 1.705 . S
C892 C618 1.682 . S
C903 C208 1.556 . S
C908 C18 1.475 . S
C919 C168 1.546 . S
C924 C58 1.485 . S
C935 C98 1.515 . S
C940 C288 1.517 . S
C951 C248 1.554 . S
C956 C138 1.477 . S
C967 C338 1.555 . S
C972 C528 1.476 . S
C983 C488 1.543 . S
C988 C378 1.488 . S
C999 C418 1.477 . S
C1004 C608 1.554 . S
C1015 C568 1.537 . S
C1020 C458 1.495 . S
C1031 C59 1.581 . S
C1036 C19 1.602 . S
C1047 C139 1.563 . S
C1052 C99 1.571 . S
C1063 C209 1.605 . S
C1068 C169 1.621 . S
C1079 C249 1.563 . S
C1084 C289 1.570 . S
C1095 C379 1.585 . S
C1100 C339 1.606 . S
C1111 C459 1.564 . S
C1116 C419 1.575 . S
C1127 C489 1.624 . S
C1132 C529 1.620 . S
C1143 C569 1.566 . S
C1148 C609 1.565 . S
C1159 C15 1.487 . S
C1164 C5 1.487 . S
C1175 C55 1.516 . S
C1180 C45 1.516 . S
C1191 C95 1.511 . S
C1196 C85 1.511 . S
C1207 C125 1.516 . S
C1212 C135 1.516 . S
C1223 C165 1.490 . S
C1228 C175 1.490 . S
C1239 C215 1.516 . S
C1244 C205 1.516 . S
C1255 C245 1.505 . S
C1260 C255 1.505 . S
C1271 C285 1.490 . S
C1276 C295 1.490 . S
C1287 C325 1.487 . S
C1292 C335 1.487 . S
C1303 C375 1.517 . S
C1308 C365 1.517 . S
C1319 C405 1.493 . S
C1324 C415 1.493 . S
C1335 C445 1.509 . S
C1340 C455 1.509 . S
C1351 C485 1.490 . S
C1356 C495 1.490 . S
C1367 C525 1.517 . S
C1372 C535 1.517 . S
C1383 C575 1.489 . S
C1388 C565 1.489 . S
C1399 C605 1.498 . S
C1404 C615 1.498 . S
