# Generated by pormake.
# Topology wje, (4)-cn, num edge types: 1
# Building blocks:
#     Node 0, Type 0, BuildingBlock: QUQFOY_clean_sbu_1, # of connection points: 4
#     Node 1, Type 0, BuildingBlock: QUQFOY_clean_sbu_1, # of connection points: 4
#     Node 2, Type 0, BuildingBlock: QUQFOY_clean_sbu_1, # of connection points: 4
#     Node 3, Type 0, BuildingBlock: QUQFOY_clean_sbu_1, # of connection points: 4
#     Node 4, Type 0, BuildingBlock: QUQFOY_clean_sbu_1, # of connection points: 4
#     Node 5, Type 0, BuildingBlock: QUQFOY_clean_sbu_1, # of connection points: 4
#     Node 6, Type 0, BuildingBlock: QUQFOY_clean_sbu_1, # of connection points: 4
#     Node 7, Type 0, BuildingBlock: QUQFOY_clean_sbu_1, # of connection points: 4
#     Node 8, Type 0, BuildingBlock: QUQFOY_clean_sbu_1, # of connection points: 4
#     Node 9, Type 0, BuildingBlock: QUQFOY_clean_sbu_1, # of connection points: 4
#     Node 10, Type 0, BuildingBlock: QUQFOY_clean_sbu_1, # of connection points: 4
#     Node 11, Type 0, BuildingBlock: QUQFOY_clean_sbu_1, # of connection points: 4
#     Edge 12, Type (0, 0), BuildingBlock: XUDNAN_clean_linker_2, # of connection points: 2
#     Edge 13, Type (0, 0), BuildingBlock: XUDNAN_clean_linker_2, # of connection points: 2
#     Edge 14, Type (0, 0), BuildingBlock: XUDNAN_clean_linker_2, # of connection points: 2
#     Edge 15, Type (0, 0), BuildingBlock: XUDNAN_clean_linker_2, # of connection points: 2
#     Edge 16, Type (0, 0), BuildingBlock: XUDNAN_clean_linker_2, # of connection points: 2
#     Edge 17, Type (0, 0), BuildingBlock: XUDNAN_clean_linker_2, # of connection points: 2
#     Edge 18, Type (0, 0), BuildingBlock: XUDNAN_clean_linker_2, # of connection points: 2
#     Edge 19, Type (0, 0), BuildingBlock: XUDNAN_clean_linker_2, # of connection points: 2
#     Edge 20, Type (0, 0), BuildingBlock: XUDNAN_clean_linker_2, # of connection points: 2
#     Edge 21, Type (0, 0), BuildingBlock: XUDNAN_clean_linker_2, # of connection points: 2
#     Edge 22, Type (0, 0), BuildingBlock: XUDNAN_clean_linker_2, # of connection points: 2
#     Edge 23, Type (0, 0), BuildingBlock: XUDNAN_clean_linker_2, # of connection points: 2
#     Edge 24, Type (0, 0), BuildingBlock: XUDNAN_clean_linker_2, # of connection points: 2
#     Edge 25, Type (0, 0), BuildingBlock: XUDNAN_clean_linker_2, # of connection points: 2
#     Edge 26, Type (0, 0), BuildingBlock: XUDNAN_clean_linker_2, # of connection points: 2
#     Edge 27, Type (0, 0), BuildingBlock: XUDNAN_clean_linker_2, # of connection points: 2
#     Edge 28, Type (0, 0), BuildingBlock: XUDNAN_clean_linker_2, # of connection points: 2
#     Edge 29, Type (0, 0), BuildingBlock: XUDNAN_clean_linker_2, # of connection points: 2
#     Edge 30, Type (0, 0), BuildingBlock: XUDNAN_clean_linker_2, # of connection points: 2
#     Edge 31, Type (0, 0), BuildingBlock: XUDNAN_clean_linker_2, # of connection points: 2
#     Edge 32, Type (0, 0), BuildingBlock: XUDNAN_clean_linker_2, # of connection points: 2
#     Edge 33, Type (0, 0), BuildingBlock: XUDNAN_clean_linker_2, # of connection points: 2
#     Edge 34, Type (0, 0), BuildingBlock: XUDNAN_clean_linker_2, # of connection points: 2
#     Edge 35, Type (0, 0), BuildingBlock: XUDNAN_clean_linker_2, # of connection points: 2
# Relax obj value: 0.100
# Max RMSD: 0.085
# Mean RMSD: 0.085
data_MOF--net-wje--node1-QUQFOY_clean_sbu_1--edge1-XUDNAN_clean_linker_2
_symmetry_space_group_name_H-M    P1
_symmetry_Int_Tables_number       1
_symmetry_cell_setting            triclinic
loop_
_symmetry_equiv_pos_as_xyz
'x, y, z'
_cell_length_a     42.529017
_cell_length_b     42.521644
_cell_length_c     38.803783
_cell_angle_alpha  90.057884
_cell_angle_beta   90.101461
_cell_angle_gamma 120.05392
loop_
_atom_site_label
_atom_site_type_symbol
_atom_site_fract_x
_atom_site_fract_y
_atom_site_fract_z
_atom_type_partial_charge
O0 O 0.2583 0.98033 0.30321 0.0
Cd1 Cd 0.29579 0.03306 0.31558 0.0
Cd2 Cd 0.33996 0.00569 0.3273 0.0
O3 O 0.2955 0.95893 0.31016 0.0
O4 O 0.28067 0.06448 0.29051 0.0
O5 O 0.33347 0.06721 0.28191 0.0
C6 C 0.311 0.0782 0.27394 0.0
C7 C 0.39582 0.0108 0.31276 0.0
C8 C 0.26401 0.95374 0.30365 0.0
C9 C 0.3152 0.03107 0.38903 0.0
O10 O 0.33455 0.0184 0.37737 0.0
O11 O 0.29845 0.04104 0.36848 0.0
O12 O 0.37358 0.98631 0.33355 0.0
O13 O 0.38676 0.03322 0.3002 0.0
O14 O 0.25941 0.25707 0.64593 0.0
Cd15 Cd 0.25827 0.3043 0.6521 0.0
Cd16 Cd 0.3328 0.32949 0.66004 0.0
O17 O 0.3183 0.27757 0.64494 0.0
O18 O 0.20679 0.28605 0.63774 0.0
O19 O 0.25293 0.33021 0.61003 0.0
C20 C 0.21844 0.30776 0.6118 0.0
C21 C 0.38943 0.37672 0.64199 0.0
C22 C 0.28584 0.2513 0.64359 0.0
C23 C 0.28888 0.32552 0.72335 0.0
O24 O 0.31895 0.33186 0.71041 0.0
O25 O 0.26142 0.31725 0.70411 0.0
O26 O 0.38667 0.35146 0.66206 0.0
O27 O 0.35994 0.37542 0.6317 0.0
O28 O 0.00714 0.26142 0.98848 0.0
Cd29 Cd 0.9564 0.25448 0.99684 0.0
Cd30 Cd 0.98981 0.32778 0.98525 0.0
O31 O 0.03047 0.31792 0.97084 0.0
O32 O 0.9184 0.20698 0.97696 0.0
O33 O 0.92866 0.26057 0.95798 0.0
C34 C 0.91113 0.22551 0.95519 0.0
C35 C 0.99595 0.38128 0.96111 0.0
C36 C 0.034 0.29064 0.97753 0.0
C37 C 0.965 0.29846 0.05847 0.0
O38 O 0.98058 0.32485 0.03756 0.0
O39 O 0.95029 0.26579 0.04769 0.0
O40 O 0.02033 0.38155 0.98071 0.0
O41 O 0.96743 0.35044 0.95463 0.0
O42 O 0.74823 0.00832 0.31662 0.0
Cd43 Cd 0.70833 0.9567 0.32934 0.0
Cd44 Cd 0.66453 0.98697 0.33602 0.0
O45 O 0.71084 0.02992 0.31655 0.0
O46 O 0.72093 0.92244 0.30619 0.0
O47 O 0.67083 0.92432 0.29453 0.0
C48 C 0.69165 0.91095 0.28808 0.0
C49 C 0.61376 0.99187 0.32051 0.0
C50 C 0.74252 0.03465 0.31271 0.0
C51 C 0.68583 0.96204 0.40099 0.0
O52 O 0.66861 0.97612 0.38722 0.0
O53 O 0.70201 0.94985 0.3823 0.0
O54 O 0.63866 0.01493 0.34051 0.0
O55 O 0.61635 0.96449 0.31002 0.0
O56 O 0.71972 0.7427 0.64995 0.0
Cd57 Cd 0.73974 0.70796 0.65649 0.0
Cd58 Cd 0.66769 0.65932 0.66775 0.0
O59 O 0.66148 0.70238 0.65375 0.0
O60 O 0.78964 0.73678 0.6368 0.0
O61 O 0.74923 0.6831 0.61618 0.0
C62 C 0.78102 0.7117 0.61401 0.0
C63 C 0.62049 0.60207 0.65032 0.0
C64 C 0.68678 0.73503 0.65025 0.0
C65 C 0.71896 0.68322 0.72904 0.0
O66 O 0.68674 0.66428 0.7175 0.0
O67 O 0.74542 0.70078 0.70847 0.0
O68 O 0.61548 0.62159 0.67247 0.0
O69 O 0.65278 0.61465 0.63807 0.0
O70 O 0.97948 0.71906 0.9742 0.0
Cd71 Cd 0.03257 0.73409 0.98487 0.0
Cd72 Cd 0.00666 0.66397 0.99673 0.0
O73 O 0.95874 0.66081 0.98278 0.0
O74 O 0.0641 0.77952 0.95836 0.0
O75 O 0.06511 0.72833 0.95092 0.0
C76 C 0.07677 0.76172 0.94214 0.0
C77 C 0.01282 0.61522 0.97707 0.0
C78 C 0.95303 0.68675 0.97628 0.0
C79 C 0.03341 0.71387 0.05827 0.0
O80 O 0.02114 0.68175 0.04682 0.0
O81 O 0.04226 0.74016 0.03748 0.0
O82 O 0.98951 0.61113 1.00022 0.0
O83 O 0.03391 0.64757 0.9655 0.0
O84 O 0.01777 0.7457 0.37866 0.0
Cd85 Cd 0.96325 0.70966 0.37203 0.0
Cd86 Cd 0.98728 0.6615 0.36294 0.0
O87 O 0.03626 0.70586 0.37524 0.0
O88 O 0.94051 0.73736 0.39071 0.0
O89 O 0.92915 0.68473 0.41237 0.0
C90 C 0.92471 0.71261 0.41384 0.0
C91 C 0.98101 0.60662 0.38301 0.0
C92 C 0.0433 0.73843 0.37836 0.0
C93 C 0.9592 0.68215 0.30028 0.0
O94 O 0.97212 0.66335 0.31282 0.0
O95 O 0.95071 0.70072 0.32001 0.0
O96 O 0.00389 0.62542 0.35944 0.0
O97 O 0.9604 0.61828 0.39491 0.0
O98 O 0.25362 0.99716 0.71315 0.0
Cd99 Cd 0.25179 0.94902 0.70271 0.0
Cd100 Cd 0.32359 0.99305 0.69473 0.0
O101 O 0.31272 0.03336 0.70839 0.0
O102 O 0.205 0.9118 0.72404 0.0
O103 O 0.25845 0.91957 0.73986 0.0
C104 C 0.22369 0.90337 0.74432 0.0
C105 C 0.3761 0.9954 0.71657 0.0
C106 C 0.28119 0.02889 0.71309 0.0
C107 C 0.27942 0.95696 0.63086 0.0
O108 O 0.31054 0.97723 0.64416 0.0
O109 O 0.25141 0.94061 0.64994 0.0
O110 O 0.37767 0.01865 0.69444 0.0
O111 O 0.34438 0.97068 0.72689 0.0
O112 O 0.25175 0.26556 0.04953 0.0
Cd113 Cd 0.2924 0.25462 0.03797 0.0
Cd114 Cd 0.33553 0.32784 0.03003 0.0
O115 O 0.28795 0.32465 0.04537 0.0
O116 O 0.27996 0.20786 0.06122 0.0
O117 O 0.32976 0.26011 0.07309 0.0
C118 C 0.30916 0.22583 0.0794 0.0
C119 C 0.38627 0.3826 0.0477 0.0
C120 C 0.25653 0.29749 0.05013 0.0
C121 C 0.31616 0.28135 0.96598 0.0
O122 O 0.33429 0.31288 0.97924 0.0
O123 O 0.29879 0.25349 0.98508 0.0
O124 O 0.363 0.3818 0.02617 0.0
O125 O 0.38189 0.35212 0.05882 0.0
O126 O 0.98647 0.25898 0.36875 0.0
Cd127 Cd 0.03851 0.30184 0.36454 0.0
Cd128 Cd 0.00443 0.34235 0.37177 0.0
O129 O 0.96154 0.2918 0.38262 0.0
O130 O 0.0698 0.28212 0.38052 0.0
O131 O 0.06789 0.32723 0.4072 0.0
C132 C 0.07948 0.30434 0.40628 0.0
C133 C 0.99795 0.38963 0.39563 0.0
C134 C 0.95869 0.26114 0.37664 0.0
C135 C 0.03582 0.33924 0.30155 0.0
O136 O 0.0186 0.34993 0.32045 0.0
O137 O 0.04934 0.32099 0.3143 0.0
O138 O 0.97526 0.3672 0.37369 0.0
O139 O 0.02507 0.38582 0.40446 0.0
O140 O 0.7142 0.97747 0.72902 0.0
Cd141 Cd 0.73087 0.03101 0.71852 0.0
Cd142 Cd 0.66022 0.00561 0.70367 0.0
O143 O 0.65667 0.95719 0.7164 0.0
O144 O 0.77702 0.06103 0.74509 0.0
O145 O 0.72755 0.06502 0.7527 0.0
C146 C 0.76069 0.07523 0.76137 0.0
C147 C 0.61041 0.01042 0.72185 0.0
C148 C 0.68203 0.9512 0.72484 0.0
C149 C 0.7127 0.03371 0.64429 0.0
O150 O 0.68038 0.02226 0.65461 0.0
O151 O 0.73803 0.04094 0.66596 0.0
O152 O 0.60763 0.98876 0.69745 0.0
O153 O 0.64186 0.03064 0.73571 0.0
O154 O 0.74469 0.72301 0.05543 0.0
Cd155 Cd 0.70733 0.73911 0.04563 0.0
Cd156 Cd 0.66172 0.66825 0.03383 0.0
O157 O 0.70592 0.66461 0.04901 0.0
O158 O 0.72228 0.78459 0.07265 0.0
O159 O 0.66983 0.73373 0.08036 0.0
C160 C 0.69204 0.76702 0.08927 0.0
C161 C 0.60579 0.61811 0.04957 0.0
C162 C 0.73801 0.69038 0.05449 0.0
C163 C 0.6856 0.71895 0.97252 0.0
O164 O 0.66628 0.68685 0.98404 0.0
O165 O 0.70307 0.74546 0.9932 0.0
O166 O 0.62688 0.61543 0.02762 0.0
O167 O 0.61597 0.64975 0.06251 0.0
H168 H 0.26204 0.08442 0.23305 0.0
H169 H 0.37767 0.13082 0.25041 0.0
H170 H 0.39032 0.1743 0.20269 0.0
H171 H 0.26776 0.0887 0.14058 0.0
H172 H 0.23161 0.09883 0.13559 0.0
H173 H 0.23192 0.07284 0.17208 0.0
H174 H 0.22887 0.11908 0.21349 0.0
H175 H 0.22846 0.14516 0.17714 0.0
H176 H 0.26255 0.16658 0.21022 0.0
H177 H 0.38971 0.2146 0.15409 0.0
H178 H 0.37613 0.24432 0.10595 0.0
H179 H 0.26117 0.16742 0.11752 0.0
C180 C 0.29003 0.10394 0.227 0.0
C181 C 0.31891 0.10461 0.2457 0.0
C182 C 0.35516 0.12999 0.2365 0.0
C183 C 0.36257 0.1548 0.20948 0.0
C184 C 0.33342 0.15337 0.19149 0.0
C185 C 0.29788 0.12823 0.19964 0.0
C186 C 0.27143 0.13109 0.17542 0.0
C187 C 0.24939 0.09577 0.15469 0.0
C188 C 0.24636 0.14108 0.19526 0.0
C189 C 0.29754 0.16198 0.15251 0.0
C190 C 0.33318 0.17484 0.1624 0.0
C191 C 0.36192 0.20443 0.14592 0.0
C192 C 0.35398 0.22118 0.11865 0.0
C193 C 0.31769 0.20786 0.10771 0.0
C194 C 0.28925 0.17778 0.12488 0.0
H195 H 0.21805 0.3591 0.56729 0.0
H196 H 0.16285 0.24377 0.59027 0.0
H197 H 0.12348 0.23124 0.53959 0.0
H198 H 0.13477 0.35853 0.54031 0.0
H199 H 0.15705 0.39202 0.50703 0.0
H200 H 0.18209 0.39244 0.54471 0.0
H201 H 0.22962 0.38901 0.50571 0.0
H202 H 0.20455 0.38826 0.46792 0.0
H203 H 0.21487 0.35248 0.47492 0.0
H204 H 0.09377 0.22994 0.48452 0.0
H205 H 0.06701 0.24062 0.43263 0.0
H206 H 0.13444 0.35706 0.44732 0.0
C207 C 0.19749 0.33132 0.56165 0.0
C208 C 0.19357 0.30235 0.58269 0.0
C209 C 0.1662 0.26637 0.5747 0.0
C210 C 0.14384 0.25892 0.5458 0.0
C211 C 0.14847 0.28782 0.52541 0.0
C212 C 0.17388 0.3234 0.53329 0.0
C213 C 0.17142 0.34925 0.50771 0.0
C214 C 0.16069 0.37455 0.52604 0.0
C215 C 0.20725 0.37104 0.48789 0.0
C216 C 0.14111 0.32248 0.48412 0.0
C217 C 0.12894 0.2872 0.49462 0.0
C218 C 0.10264 0.25744 0.47628 0.0
C219 C 0.08778 0.26378 0.4467 0.0
C220 C 0.09852 0.29959 0.43607 0.0
C221 C 0.12555 0.3294 0.45508 0.0
H222 H 0.81322 0.07918 0.80495 0.0
H223 H 0.74958 0.13054 0.78215 0.0
H224 H 0.78112 0.17497 0.8292 0.0
H225 H 0.81025 0.08709 0.8974 0.0
H226 H 0.85556 0.09485 0.90402 0.0
H227 H 0.8291 0.06831 0.86771 0.0
H228 H 0.88049 0.11121 0.82628 0.0
H229 H 0.90713 0.13785 0.86246 0.0
H230 H 0.89683 0.15934 0.82769 0.0
H231 H 0.82273 0.21608 0.87706 0.0
H232 H 0.866 0.24627 0.92527 0.0
H233 H 0.89754 0.16397 0.92039 0.0
C234 C 0.80608 0.09992 0.80975 0.0
C235 C 0.77927 0.10174 0.78966 0.0
C236 C 0.77013 0.12877 0.79718 0.0
C237 C 0.78796 0.15414 0.82379 0.0
C238 C 0.81432 0.15162 0.84314 0.0
C239 C 0.82291 0.12481 0.83677 0.0
C240 C 0.85102 0.12693 0.86221 0.0
C241 C 0.83555 0.09223 0.88413 0.0
C242 C 0.88593 0.13428 0.84354 0.0
C243 C 0.85725 0.15934 0.88372 0.0
C244 C 0.83623 0.17357 0.87203 0.0
C245 C 0.83888 0.20481 0.8867 0.0
C246 C 0.86354 0.22182 0.91402 0.0
C247 C 0.88461 0.20711 0.92689 0.0
C248 C 0.88118 0.17536 0.91156 0.0
H249 H 0.74058 0.82148 0.13128 0.0
H250 H 0.62514 0.751 0.11372 0.0
H251 H 0.61191 0.77999 0.16275 0.0
H252 H 0.73505 0.81773 0.22393 0.0
H253 H 0.77068 0.8642 0.2297 0.0
H254 H 0.77077 0.83896 0.19244 0.0
H255 H 0.77281 0.88874 0.15248 0.0
H256 H 0.77282 0.91417 0.18961 0.0
H257 H 0.73857 0.90164 0.15673 0.0
H258 H 0.61186 0.81942 0.21253 0.0
H259 H 0.62487 0.86179 0.2615 0.0
H260 H 0.74014 0.90201 0.24928 0.0
C261 C 0.7125 0.81232 0.1376 0.0
C262 C 0.68384 0.7843 0.11845 0.0
C263 C 0.64748 0.77254 0.12798 0.0
C264 C 0.63974 0.78889 0.15574 0.0
C265 C 0.66868 0.81646 0.17414 0.0
C266 C 0.70434 0.82771 0.16568 0.0
C267 C 0.73053 0.85675 0.19033 0.0
C268 C 0.75308 0.84361 0.21028 0.0
C269 C 0.75512 0.89243 0.17114 0.0
C270 C 0.70414 0.86043 0.21382 0.0
C271 C 0.66857 0.83731 0.20387 0.0
C272 C 0.63959 0.83727 0.22077 0.0
C273 C 0.6472 0.86142 0.24851 0.0
C274 C 0.68343 0.88474 0.2595 0.0
C275 C 0.71212 0.88397 0.24193 0.0
H276 H 0.87087 0.66098 0.45608 0.0
H277 H 0.93423 0.77698 0.43679 0.0
H278 H 0.90522 0.78849 0.48621 0.0
H279 H 0.78795 0.66158 0.47978 0.0
H280 H 0.77502 0.62718 0.51244 0.0
H281 H 0.80121 0.62757 0.47582 0.0
H282 H 0.85028 0.62963 0.51686 0.0
H283 H 0.82436 0.62947 0.5536 0.0
H284 H 0.87085 0.66525 0.54869 0.0
H285 H 0.87292 0.78842 0.53913 0.0
H286 H 0.83295 0.77651 0.58907 0.0
H287 H 0.78535 0.66038 0.57288 0.0
C288 C 0.87846 0.68873 0.46227 0.0
C289 C 0.90495 0.71812 0.44258 0.0
C290 C 0.91395 0.75403 0.45131 0.0
C291 C 0.89775 0.7609 0.47949 0.0
C292 C 0.87202 0.73154 0.49849 0.0
C293 C 0.86182 0.69611 0.49004 0.0
C294 C 0.8323 0.66968 0.51428 0.0
C295 C 0.79703 0.64505 0.49439 0.0
C296 C 0.84523 0.64718 0.53456 0.0
C297 C 0.82794 0.69591 0.53778 0.0
C298 C 0.8516 0.73144 0.52833 0.0
C299 C 0.85398 0.76073 0.54661 0.0
C300 C 0.83126 0.75364 0.57509 0.0
C301 C 0.80592 0.71755 0.58486 0.0
C302 C 0.80426 0.68826 0.56587 0.0
H303 H 0.16398 0.89239 0.78008 0.0
H304 H 0.24392 0.85777 0.7746 0.0
H305 H 0.21435 0.81632 0.82403 0.0
H306 H 0.16229 0.89522 0.8722 0.0
H307 H 0.11449 0.88024 0.87443 0.0
H308 H 0.14041 0.90493 0.8373 0.0
H309 H 0.09557 0.85255 0.79745 0.0
H310 H 0.06944 0.82774 0.83445 0.0
H311 H 0.08666 0.80701 0.8052 0.0
H312 H 0.17383 0.77686 0.87335 0.0
H313 H 0.1303 0.74785 0.92142 0.0
H314 H 0.08145 0.81356 0.89765 0.0
C315 C 0.175 0.87573 0.78901 0.0
C316 C 0.20586 0.87776 0.7732 0.0
C317 C 0.22011 0.85635 0.78622 0.0
C318 C 0.20345 0.83274 0.81422 0.0
C319 C 0.17307 0.83149 0.82934 0.0
C320 C 0.15934 0.85286 0.81742 0.0
C321 C 0.12788 0.84829 0.83933 0.0
C322 C 0.13682 0.88431 0.85685 0.0
C323 C 0.09282 0.83298 0.81782 0.0
C324 C 0.12576 0.8208 0.86536 0.0
C325 C 0.15164 0.81095 0.85892 0.0
C326 C 0.15376 0.78472 0.87881 0.0
C327 C 0.12893 0.76834 0.90599 0.0
C328 C 0.10291 0.77884 0.9135 0.0
C329 C 0.1015 0.80547 0.89289 0.0
H330 H 0.41312 0.95769 0.32129 0.0
H331 H 0.45724 0.06877 0.28623 0.0
H332 H 0.51723 0.07355 0.27813 0.0
H333 H 0.48704 0.97077 0.36955 0.0
H334 H 0.48397 0.92814 0.35849 0.0
H335 H 0.44387 0.93219 0.35773 0.0
H336 H 0.43209 0.91059 0.29414 0.0
H337 H 0.4722 0.90635 0.2947 0.0
H338 H 0.46723 0.93412 0.26253 0.0
H339 H 0.57353 0.06901 0.2824 0.0
H340 H 0.62176 0.05433 0.29485 0.0
H341 H 0.54039 0.94477 0.32316 0.0
C342 C 0.43525 0.98284 0.31135 0.0
C343 C 0.43069 0.01295 0.30446 0.0
C344 C 0.46021 0.04537 0.2915 0.0
C345 C 0.4943 0.04829 0.28682 0.0
C346 C 0.49805 0.01828 0.29455 0.0
C347 C 0.46918 0.98598 0.30604 0.0
C348 C 0.48072 0.95838 0.3142 0.0
C349 C 0.47348 0.94671 0.35225 0.0
C350 C 0.46194 0.92541 0.28993 0.0
C351 C 0.52098 0.98065 0.30683 0.0
C352 C 0.53037 0.01511 0.29542 0.0
C353 C 0.56642 0.04187 0.2904 0.0
C354 C 0.59357 0.03335 0.29761 0.0
C355 C 0.58449 0.99828 0.3092 0.0
C356 C 0.54778 0.97139 0.31325 0.0
H357 H 0.5486 0.58057 0.65244 0.0
H358 H 0.62326 0.54304 0.62553 0.0
H359 H 0.57105 0.4815 0.61419 0.0
H360 H 0.48592 0.50419 0.69666 0.0
H361 H 0.44633 0.50506 0.68135 0.0
H362 H 0.48931 0.54654 0.68392 0.0
H363 H 0.48474 0.55872 0.61918 0.0
H364 H 0.4416 0.51719 0.6164 0.0
H365 H 0.47798 0.52466 0.5877 0.0
H366 H 0.5112 0.42262 0.61481 0.0
H367 H 0.44819 0.37197 0.62246 0.0
H368 H 0.4124 0.44909 0.64378 0.0
C369 C 0.55395 0.55953 0.64361 0.0
C370 C 0.58987 0.56637 0.63997 0.0
C371 C 0.59588 0.53829 0.62831 0.0
C372 C 0.56642 0.50333 0.62184 0.0
C373 C 0.53126 0.49731 0.62636 0.0
C374 C 0.52494 0.52484 0.63638 0.0
C375 C 0.48475 0.51114 0.64071 0.0
C376 C 0.47609 0.51708 0.67786 0.0
C377 C 0.47149 0.52899 0.61442 0.0
C378 C 0.46938 0.47122 0.63285 0.0
C379 C 0.49665 0.46376 0.62464 0.0
C380 C 0.48954 0.42826 0.6202 0.0
C381 C 0.45378 0.39971 0.62463 0.0
C382 C 0.42558 0.4069 0.63282 0.0
C383 C 0.43336 0.44308 0.6363 0.0
H384 H 0.96067 0.54416 0.98307 0.0
H385 H 0.06891 0.61445 0.94281 0.0
H386 H 0.07271 0.56027 0.92584 0.0
H387 H 0.97699 0.48017 0.02008 0.0
H388 H 0.93343 0.4415 1.00952 0.0
H389 H 0.93787 0.48557 1.01439 0.0
H390 H 0.91136 0.48033 0.95306 0.0
H391 H 0.90702 0.43617 0.94792 0.0
H392 H 0.93232 0.47142 0.91687 0.0
H393 H 0.06824 0.4992 0.92222 0.0
H394 H 0.05515 0.43608 0.93036 0.0
H395 H 0.94804 0.40532 0.9687 0.0
C396 C 0.98499 0.54818 0.97018 0.0
C397 C 0.01461 0.58343 0.96435 0.0
C398 C 0.0459 0.58764 0.94741 0.0
C399 C 0.04822 0.55704 0.93761 0.0
C400 C 0.01866 0.5226 0.94426 0.0
C401 C 0.98746 0.51806 0.95978 0.0
C402 C 0.96043 0.47834 0.96615 0.0
C403 C 0.9517 0.47099 1.00482 0.0
C404 C 0.92573 0.46584 0.94471 0.0
C405 C 0.98192 0.46118 0.95322 0.0
C406 C 0.01536 0.48716 0.94045 0.0
C407 C 0.04175 0.4785 0.9311 0.0
C408 C 0.03411 0.44266 0.93574 0.0
C409 C 0.00023 0.41592 0.94909 0.0
C410 C 0.97349 0.42505 0.95702 0.0
H411 H 0.0334 0.58816 0.37755 0.0
H412 H 0.92453 0.54923 0.41645 0.0
H413 H 0.92049 0.49091 0.43249 0.0
H414 H 0.01779 0.50886 0.33905 0.0
H415 H 0.06115 0.51351 0.34995 0.0
H416 H 0.05685 0.55327 0.34587 0.0
H417 H 0.08227 0.57311 0.40776 0.0
H418 H 0.08652 0.53319 0.41208 0.0
H419 H 0.06069 0.54235 0.44321 0.0
H420 H 0.92484 0.43412 0.43483 0.0
H421 H 0.9381 0.38431 0.42571 0.0
H422 H 0.04588 0.46178 0.38966 0.0
C423 C 0.00891 0.56759 0.39 0.0
C424 C 0.97917 0.57302 0.39568 0.0
C425 C 0.94763 0.54557 0.41202 0.0
C426 C 0.94518 0.51247 0.42126 0.0
C427 C 0.97483 0.50775 0.41468 0.0
C428 C 0.0063 0.53481 0.39986 0.0
C429 C 0.03342 0.5223 0.39336 0.0
C430 C 0.04282 0.52461 0.35478 0.0
C431 C 0.06776 0.54403 0.41543 0.0
C432 C 0.01171 0.48333 0.40537 0.0
C433 C 0.97805 0.4755 0.41782 0.0
C434 C 0.95149 0.44017 0.42625 0.0
C435 C 0.95922 0.4121 0.42106 0.0
C436 C 0.99336 0.41966 0.40812 0.0
C437 C 0.02021 0.45574 0.40105 0.0
H438 H 0.58435 0.05417 0.70144 0.0
H439 H 0.56167 0.96311 0.76717 0.0
H440 H 0.50025 0.95346 0.77905 0.0
H441 H 0.5291 0.08617 0.75117 0.0
H442 H 0.51432 0.09764 0.712 0.0
H443 H 0.55842 0.10135 0.71403 0.0
H444 H 0.54197 0.05929 0.66063 0.0
H445 H 0.49781 0.0551 0.65866 0.0
H446 H 0.50179 0.01492 0.6616 0.0
H447 H 0.4388 0.94838 0.77678 0.0
H448 H 0.38265 0.94912 0.76161 0.0
H449 H 0.44564 0.0436 0.69714 0.0
C450 C 0.56687 0.03327 0.71946 0.0
C451 C 0.57769 0.00997 0.73428 0.0
C452 C 0.55386 0.98173 0.75646 0.0
C453 C 0.51901 0.97605 0.76323 0.0
C454 C 0.50859 -0.00108 0.74757 0.0
C455 C 0.53198 0.02725 0.72642 0.0
C456 C 0.513 0.04554 0.70999 0.0
C457 C 0.5297 0.08502 0.72256 0.0
C458 C 0.51368 0.04356 0.67039 0.0
C459 C 0.47497 0.02214 0.72395 0.0
C460 C 0.47304 0.99573 0.74598 0.0
C461 C 0.44012 0.96938 0.76009 0.0
C462 C 0.40835 0.96993 0.75126 0.0
C463 C 0.40976 0.99649 0.72833 0.0
C464 C 0.44366 0.02315 0.71502 0.0
H465 H 0.45904 0.40786 0.04237 0.0
H466 H 0.38008 0.43706 0.07634 0.0
H467 H 0.4294 0.49989 0.08787 0.0
H468 H 0.53589 0.47057 0.10038 0.0
H469 H 0.56894 0.48127 0.06679 0.0
H470 H 0.52846 0.43716 0.06791 0.0
H471 H 0.51327 0.44637 1.00533 0.0
H472 H 0.55342 0.49051 1.00411 0.0
H473 H 0.50967 0.48582 0.99516 0.0
H474 H 0.48636 0.56072 0.09009 0.0
H475 H 0.54613 0.61557 0.07953 0.0
H476 H 0.58706 0.54738 0.04015 0.0
C477 C 0.4525 0.42726 0.05349 0.0
C478 C 0.41615 0.41778 0.0594 0.0
C479 C 0.40804 0.44399 0.07235 0.0
C480 C 0.43581 0.47961 0.079 0.0
C481 C 0.47148 0.4886 0.07208 0.0
C482 C 0.47991 0.46321 0.0595 0.0
C483 C 0.51964 0.48093 0.04989 0.0
C484 C 0.5394 0.46663 0.07261 0.0
C485 C 0.52424 0.47559 1.01134 0.0
C486 C 0.53191 0.52024 0.05809 0.0
C487 C 0.50399 0.52405 0.0716 0.0
C488 C 0.50857 0.55806 0.07986 0.0
C489 C 0.54253 0.58903 0.07377 0.0
C490 C 0.57107 0.58567 0.05893 0.0
C491 C 0.56568 0.55078 0.05148 0.0
H492 H 0.06705 0.81053 0.36748 0.0
H493 H 0.10468 0.73281 0.3755 0.0
H494 H 0.16411 0.77843 0.35204 0.0
H495 H 0.10777 0.84778 0.28838 0.0
H496 H 0.12018 0.89388 0.29892 0.0
H497 H 0.08144 0.85656 0.31926 0.0
H498 H 0.10846 0.88131 0.37984 0.0
H499 H 0.14655 0.91944 0.3597 0.0
H500 H 0.15406 0.89144 0.38961 0.0
H501 H 0.21766 0.83079 0.32365 0.0
H502 H 0.26584 0.89028 0.30259 0.0
H503 H 0.19234 0.9329 0.31204 0.0
C504 C 0.08806 0.80334 0.36528 0.0
C505 C 0.08112 0.76803 0.37333 0.0
C506 C 0.10934 0.75971 0.36962 0.0
C507 C 0.14308 0.78531 0.35598 0.0
C508 C 0.14817 0.81907 0.34633 0.0
C509 C 0.12178 0.82844 0.35157 0.0
C510 C 0.13403 0.86647 0.33885 0.0
C511 C 0.10938 0.86612 0.30962 0.0
C512 C 0.13591 0.89112 0.36878 0.0
C513 C 0.17145 0.877 0.32558 0.0
C514 C 0.17895 0.84916 0.32983 0.0
C515 C 0.21218 0.85286 0.32032 0.0
C516 C 0.23926 0.88666 0.30806 0.0
C517 C 0.23291 0.9163 0.30564 0.0
C518 C 0.19799 0.91076 0.31312 0.0
H519 H 0.33523 0.22818 0.65263 0.0
H520 H 0.2195 0.18929 0.64493 0.0
H521 H 0.20631 0.12948 0.66635 0.0
H522 H 0.32904 0.14155 0.62644 0.0
H523 H 0.36481 0.14802 0.65565 0.0
H524 H 0.36472 0.18681 0.63719 0.0
H525 H 0.36761 0.21186 0.69876 0.0
H526 H 0.36636 0.1725 0.71744 0.0
H527 H 0.3328 0.18451 0.72949 0.0
H528 H 0.20543 0.07644 0.69438 0.0
H529 H 0.21653 0.02809 0.71483 0.0
H530 H 0.33275 0.10055 0.70301 0.0
C531 C 0.30711 0.20682 0.65447 0.0
C532 C 0.27843 0.2136 0.64728 0.0
C533 C 0.24199 0.18488 0.6503 0.0
C534 C 0.23417 0.15085 0.66277 0.0
C535 C 0.26304 0.14584 0.67166 0.0
C536 C 0.29876 0.17257 0.6667 0.0
C537 C 0.32466 0.1599 0.67816 0.0
C538 C 0.34712 0.159 0.64754 0.0
C539 C 0.3493 0.18361 0.70772 0.0
C540 C 0.29785 0.12199 0.69059 0.0
C541 C 0.2625 0.11469 0.68705 0.0
C542 C 0.23297 0.08162 0.6969 0.0
C543 C 0.23962 0.05443 0.70883 0.0
C544 C 0.27552 0.06037 0.71035 0.0
C545 C 0.30501 0.09513 0.70232 0.0
H546 H 0.18376 0.24571 0.04679 0.0
H547 H 0.25831 0.36234 0.04556 0.0
H548 H 0.20978 0.37186 0.02298 0.0
H549 H 0.1384 0.23915 0.97089 0.0
H550 H 0.09341 0.2065 0.98538 0.0
H551 H 0.1325 0.20783 1.00493 0.0
H552 H 0.11243 0.21675 0.06544 0.0
H553 H 0.0725 0.21398 0.04627 0.0
H554 H 0.10247 0.25282 0.07221 0.0
H555 H 0.15745 0.36849 0.9919 0.0
H556 H 0.09768 0.35451 0.96995 0.0
H557 H 0.05453 0.24052 0.99494 0.0
C558 C 0.18956 0.27332 0.04294 0.0
C559 C 0.22506 0.30321 0.04755 0.0
C560 C 0.23147 0.33893 0.04205 0.0
C561 C 0.20417 0.34467 0.0289 0.0
C562 C 0.17035 0.31451 0.02218 0.0
C563 C 0.16237 0.27966 0.03029 0.0
C564 C 0.12346 0.25218 0.02076 0.0
C565 C 0.12188 0.2248 0.99389 0.0
C566 C 0.10141 0.2328 0.0531 0.0
C567 C 0.11126 0.27709 1.00536 0.0
C568 C 0.13907 0.3128 1.00591 0.0
C569 C 0.13514 0.34075 0.992 0.0
C570 C 0.10108 0.33237 0.97919 0.0
C571 C 0.07115 0.29643 0.98106 0.0
C572 C 0.07677 0.26824 0.99318 0.0
H573 H 0.94018 0.18968 0.36718 0.0
H574 H 0.89475 0.26119 0.37195 0.0
H575 H 0.83679 0.21218 0.34927 0.0
H576 H 0.89729 0.14381 0.28989 0.0
H577 H 0.88783 0.09954 0.30399 0.0
H578 H 0.92622 0.13976 0.32145 0.0
H579 H 0.90242 0.11953 0.38362 0.0
H580 H 0.86469 0.07868 0.36639 0.0
H581 H 0.85656 0.10797 0.39401 0.0
H582 H 0.78597 0.15811 0.32162 0.0
H583 H 0.73889 0.09648 0.30489 0.0
H584 H 0.81532 0.05819 0.32084 0.0
C585 C 0.91782 0.1948 0.36411 0.0
C586 C 0.92216 0.22939 0.37114 0.0
C587 C 0.89217 0.23495 0.36686 0.0
C588 C 0.85922 0.20742 0.35354 0.0
C589 C 0.8565 0.17435 0.34517 0.0
C590 C 0.88445 0.16741 0.35132 0.0
C591 C 0.87354 0.12874 0.34155 0.0
C592 C 0.89767 0.12794 0.31249 0.0
C593 C 0.87433 0.10747 0.37328 0.0
C594 C 0.83509 0.11515 0.32898 0.0
C595 C 0.82625 0.14226 0.33056 0.0
C596 C 0.79235 0.13648 0.3206 0.0
C597 C 0.76587 0.10137 0.31086 0.0
C598 C 0.77326 0.07235 0.31188 0.0
C599 C 0.80885 0.07977 0.31958 0.0
H600 H 0.73499 0.80736 0.66014 0.0
H601 H 0.61958 0.72912 0.65322 0.0
H602 H 0.60583 0.77522 0.67568 0.0
H603 H 0.732 0.84568 0.73862 0.0
H604 H 0.76567 0.89164 0.72773 0.0
H605 H 0.76694 0.85408 0.7077 0.0
H606 H 0.76434 0.87805 0.64695 0.0
H607 H 0.76445 0.91641 0.66677 0.0
H608 H 0.72877 0.88796 0.63704 0.0
H609 H 0.60483 0.8284 0.70294 0.0
H610 H 0.61647 0.88801 0.72428 0.0
H611 H 0.73256 0.93026 0.71511 0.0
C612 C 0.70677 0.80012 0.66234 0.0
C613 C 0.67837 0.76457 0.65484 0.0
C614 C 0.64183 0.75621 0.65862 0.0
C615 C 0.63373 0.78211 0.67168 0.0
C616 C 0.66247 0.81618 0.68074 0.0
C617 C 0.69822 0.82548 0.67556 0.0
C618 C 0.72412 0.86368 0.688 0.0
C619 C 0.74861 0.86374 0.71725 0.0
C620 C 0.74674 0.88796 0.6579 0.0
C621 C 0.69733 0.87439 0.70115 0.0
C622 C 0.66191 0.84656 0.69689 0.0
C623 C 0.63245 0.85043 0.70631 0.0
C624 C 0.63934 0.88428 0.71871 0.0
C625 C 0.67541 0.91376 0.72156 0.0
C626 C 0.70471 0.90817 0.71385 0.0
H627 H 0.80995 0.73958 0.04384 0.0
H628 H 0.73377 0.62401 0.0542 0.0
H629 H 0.77973 0.61061 0.03104 0.0
H630 H 0.84584 0.73512 0.96512 0.0
H631 H 0.89208 0.76944 0.97438 0.0
H632 H 0.85516 0.77084 0.99555 0.0
H633 H 0.88175 0.77022 0.05557 0.0
H634 H 0.91954 0.77036 0.03458 0.0
H635 H 0.8927 0.73535 0.06533 0.0
H636 H 0.83133 0.60961 1.00121 0.0
H637 H 0.88999 0.62116 0.97771 0.0
H638 H 0.93203 0.73738 0.98614 0.0
C639 C 0.80328 0.71147 0.04242 0.0
C640 C 0.76819 0.68285 0.05083 0.0
C641 C 0.76048 0.64641 0.04801 0.0
C642 C 0.78628 0.6385 0.03455 0.0
C643 C 0.81968 0.66731 0.02429 0.0
C644 C 0.82863 0.70307 0.02892 0.0
C645 C 0.8662 0.72896 1.01518 0.0
C646 C 0.8647 0.75246 0.98582 0.0
C647 C 0.89155 0.7526 0.04441 0.0
C648 C 0.87682 0.70214 1.00184 0.0
C649 C 0.84948 0.66673 1.00708 0.0
C650 C 0.85309 0.63722 0.99723 0.0
C651 C 0.88639 0.64408 0.98356 0.0
C652 C 0.91566 0.68018 0.98008 0.0
C653 C 0.91015 0.7095 0.98805 0.0
H654 H 0.35546 0.02668 0.44214 0.0
H655 H 0.25308 0.02161 0.41939 0.0
H656 H 0.2311 0.99769 0.47778 0.0
H657 H 0.32085 0.94643 0.48962 0.0
H658 H 0.35662 0.96357 0.52142 0.0
H659 H 0.36569 0.9827 0.47875 0.0
H660 H 0.38851 0.04711 0.50384 0.0
H661 H 0.38067 0.02835 0.54663 0.0
H662 H 0.35999 0.05443 0.53323 0.0
H663 H 0.21791 0.96782 0.53652 0.0
H664 H 0.21942 0.94763 0.59587 0.0
H665 H 0.3314 0.97493 0.58115 0.0
C666 C 0.32879 0.02149 0.44977 0.0
C667 C 0.30605 0.02616 0.4262 0.0
C668 C 0.27121 0.01877 0.4371 0.0
C669 C 0.25829 0.00468 0.47008 0.0
C670 C 0.28074 0.9987 0.49205 0.0
C671 C 0.31568 0.00796 0.48274 0.0
C672 C 0.33457 -0.00054 0.51135 0.0
C673 C 0.34504 0.97137 0.49956 0.0
C674 C 0.3679 0.03441 0.52455 0.0
C675 C 0.30465 0.98353 0.53805 0.0
C676 C 0.27361 0.98276 0.52623 0.0
C677 C 0.2422 0.96864 0.54617 0.0
C678 C 0.24316 0.95674 0.57972 0.0
C679 C 0.27548 0.95955 0.59317 0.0
C680 C 0.30622 0.97222 0.57157 0.0
H681 H 0.35899 0.32735 0.91457 0.0
H682 H 0.25463 0.23088 0.93323 0.0
H683 H 0.23477 0.23515 0.87451 0.0
H684 H 0.32823 0.37599 0.86578 0.0
H685 H 0.3649 0.39407 0.83509 0.0
H686 H 0.37218 0.38292 0.87803 0.0
H687 H 0.39369 0.34009 0.85366 0.0
H688 H 0.38762 0.35205 0.81064 0.0
H689 H 0.3652 0.30501 0.82342 0.0
H690 H 0.2237 0.25413 0.81629 0.0
H691 H 0.22741 0.27679 0.75703 0.0
H692 H 0.34041 0.358 0.77417 0.0
C693 C 0.33233 0.30657 0.90595 0.0
C694 C 0.30842 0.2787 0.9285 0.0
C695 C 0.27364 0.25217 0.91633 0.0
C696 C 0.26189 0.25467 0.88315 0.0
C697 C 0.2855 0.28343 0.86216 0.0
C698 C 0.32044 0.30816 0.87259 0.0
C699 C 0.3408 0.33574 0.84451 0.0
C700 C 0.35219 0.37447 0.85659 0.0
C701 C 0.37377 0.33304 0.83233 0.0
C702 C 0.31167 0.32293 0.81687 0.0
C703 C 0.27973 0.2932 0.82789 0.0
C704 C 0.2487 0.27713 0.80722 0.0
C705 C 0.25092 0.29056 0.77374 0.0
C706 C 0.28414 0.31928 0.761 0.0
C707 C 0.31458 0.33619 0.78327 0.0
H708 H 0.02693 0.2898 0.25136 0.0
H709 H 0.0359 0.39495 0.26737 0.0
H710 H 0.01616 0.39431 0.20742 0.0
H711 H 0.05597 0.30398 0.15945 0.0
H712 H 0.02392 0.25755 0.14813 0.0
H713 H 0.04287 0.26845 0.19096 0.0
H714 H 0.97773 0.23697 0.21601 0.0
H715 H 0.95858 0.22697 0.17325 0.0
H716 H 0.94681 0.25212 0.20285 0.0
H717 H 0.99104 0.38051 0.14789 0.0
H718 H 0.96926 0.35785 0.08913 0.0
H719 H 0.97424 0.26043 0.11121 0.0
C720 C 0.02613 0.31329 0.24176 0.0
C721 C 0.03357 0.34278 0.26382 0.0
C722 C 0.03083 0.37239 0.25075 0.0
C723 C 0.01933 0.37211 0.21683 0.0
C724 C 0.01046 0.34189 0.19629 0.0
C725 C 0.01426 0.31327 0.20794 0.0
C726 C 0.00143 0.2835 0.18082 0.0
C727 C 0.03292 0.27806 0.16915 0.0
C728 C 0.96923 0.24778 0.19404 0.0
C729 C 0.98962 0.29981 0.15231 0.0
C730 C 0.99503 0.33348 0.16194 0.0
C731 C 0.98677 0.35423 0.14 0.0
C732 C 0.97412 0.34099 0.10677 0.0
C733 C 0.9696 0.3072 0.09573 0.0
C734 C 0.97658 0.28593 0.11918 0.0
H735 H 0.64743 0.9752 0.4502 0.0
H736 H 0.74135 0.9618 0.43669 0.0
H737 H 0.76077 0.98311 0.49634 0.0
H738 H 0.68988 0.05538 0.49946 0.0
H739 H 0.65211 0.04308 0.52804 0.0
H740 H 0.64414 0.02489 0.48493 0.0
H741 H 0.6094 0.95918 0.5087 0.0
H742 H 0.61633 0.97719 0.55182 0.0
H743 H 0.63081 0.94525 0.54062 0.0
H744 H 0.77289 0.01132 0.55584 0.0
H745 H 0.77035 0.03218 0.61459 0.0
H746 H 0.66733 0.02506 0.58999 0.0
C747 C 0.67167 0.97597 0.46001 0.0
C748 C 0.69282 0.96673 0.43868 0.0
C749 C 0.72444 0.9683 0.45255 0.0
C750 C 0.73594 0.98081 0.48631 0.0
C751 C 0.7153 0.99121 0.50607 0.0
C752 C 0.6833 0.98795 0.49377 0.0
C753 C 0.66573 0.00025 0.52048 0.0
C754 C 0.6628 0.03283 0.50743 0.0
C755 C 0.62836 0.96858 0.53104 0.0
C756 C 0.69304 0.0113 0.54963 0.0
C757 C 0.7217 0.00637 0.54063 0.0
C758 C 0.75041 0.01498 0.56326 0.0
C759 C 0.74892 0.02726 0.59651 0.0
C760 C 0.71867 0.03038 0.60705 0.0
C761 C 0.69094 0.0232 0.5828 0.0
H762 H 0.64706 0.67144 0.92043 0.0
H763 H 0.74367 0.77558 0.94026 0.0
H764 H 0.7648 0.77577 0.88095 0.0
H765 H 0.68848 0.63307 0.87176 0.0
H766 H 0.6518 0.61007 0.84131 0.0
H767 H 0.64254 0.6191 0.88434 0.0
H768 H 0.61143 0.65361 0.86028 0.0
H769 H 0.61953 0.64366 0.81717 0.0
H770 H 0.63548 0.69002 0.82994 0.0
H771 H 0.77817 0.76145 0.82108 0.0
H772 H 0.77695 0.73992 0.76169 0.0
H773 H 0.67099 0.64576 0.781 0.0
C774 C 0.67222 0.69477 0.91207 0.0
C775 C 0.69363 0.72355 0.93507 0.0
C776 C 0.72653 0.75341 0.92308 0.0
C777 C 0.739 0.75355 0.88953 0.0
C778 C 0.71808 0.72384 0.86816 0.0
C779 C 0.68491 0.69548 0.87865 0.0
C780 C 0.66751 0.66688 0.85071 0.0
C781 C 0.66229 0.63012 0.86277 0.0
C782 C 0.63136 0.66336 0.83882 0.0
C783 C 0.69621 0.68338 0.82293 0.0
C784 C 0.72539 0.71601 0.83361 0.0
C785 C 0.75531 0.73607 0.81236 0.0
C786 C 0.75456 0.72336 0.77876 0.0
C787 C 0.72391 0.69107 0.76657 0.0
C788 C 0.69492 0.67043 0.78948 0.0
H789 H 0.96982 0.64316 0.24971 0.0
H790 H 0.95877 0.73821 0.26588 0.0
H791 H 0.98035 0.75857 0.20666 0.0
H792 H 0.05021 0.68547 0.20246 0.0
H793 H 0.03806 0.64858 0.17263 0.0
H794 H 0.01881 0.6394 0.21524 0.0
H795 H 0.95367 0.60647 0.18975 0.0
H796 H 0.97272 0.61448 0.14707 0.0
H797 H 0.94112 0.62938 0.15823 0.0
H798 H 0.00975 0.77204 0.14782 0.0
H799 H 0.03219 0.77111 0.08943 0.0
H800 H 0.02235 0.66639 0.11108 0.0
C801 C 0.97094 0.66774 0.24053 0.0
C802 C 0.9625 0.68901 0.26258 0.0
C803 C 0.96465 0.72117 0.2495 0.0
C804 C 0.97734 0.73323 0.21597 0.0
C805 C 0.9873 0.7126 0.19564 0.0
C806 C 0.98321 0.67999 0.20705 0.0
C807 C 0.99571 0.66287 0.18004 0.0
C808 C 0.02759 0.65885 0.19341 0.0
C809 C 0.96391 0.62613 0.16806 0.0
C810 C 0.00789 0.69116 0.15181 0.0
C811 C 0.00328 0.71987 0.16148 0.0
C812 C 0.01312 0.7495 0.13984 0.0
C813 C 0.02632 0.74894 0.10683 0.0
C814 C 0.02914 0.71871 0.09555 0.0
C815 C 0.0207 0.68999 0.11887 0.0
loop_
_geom_bond_atom_site_label_1
_geom_bond_atom_site_label_2
_geom_bond_distance
_geom_bond_site_symmetry_2
_ccdc_geom_bond_type
O0 Cd1 2.223 . S
O0 C8 1.315 1_545 S
Cd1 O0 2.223 . S
Cd1 O4 2.297 . S
Cd1 O5 2.439 . S
Cd1 O11 2.240 . S
Cd2 O3 2.240 . S
Cd2 O10 2.223 . S
Cd2 O12 2.297 . S
Cd2 O13 2.439 1_565 S
O3 Cd2 2.240 . S
O3 C8 1.279 . S
O4 Cd1 2.297 . S
O4 C6 1.247 . S
O5 Cd1 2.439 . S
O5 C6 1.208 . S
C6 O4 1.247 . S
C6 O5 1.208 . S
C7 O12 1.247 1_545 S
C7 O13 1.208 . S
C8 O0 1.315 1_565 S
C8 O3 1.279 . S
C9 O10 1.315 1_545 S
C9 O11 1.279 . S
O10 Cd2 2.223 . S
O10 C9 1.315 1_565 S
O11 Cd1 2.240 . S
O11 C9 1.279 . S
O12 Cd2 2.297 . S
O12 C7 1.247 1_565 S
O13 Cd2 2.439 1_545 S
O13 C7 1.208 . S
O14 Cd15 2.223 . S
O14 C22 1.315 . S
Cd15 O14 2.223 . S
Cd15 O18 2.297 . S
Cd15 O19 2.439 . S
Cd15 O25 2.240 . S
Cd16 O17 2.240 . S
Cd16 O24 2.223 . S
Cd16 O26 2.297 . S
Cd16 O27 2.439 . S
O17 Cd16 2.240 . S
O17 C22 1.279 . S
O18 Cd15 2.297 . S
O18 C20 1.247 . S
O19 Cd15 2.439 . S
O19 C20 1.208 . S
C20 O18 1.247 . S
C20 O19 1.208 . S
C21 O26 1.247 . S
C21 O27 1.208 . S
C22 O14 1.315 . S
C22 O17 1.279 . S
C23 O24 1.315 . S
C23 O25 1.279 . S
O24 Cd16 2.223 . S
O24 C23 1.315 . S
O25 Cd15 2.240 . S
O25 C23 1.279 . S
O26 Cd16 2.297 . S
O26 C21 1.247 . S
O27 Cd16 2.439 . S
O27 C21 1.208 . S
O28 Cd29 2.223 1_554 S
O28 C36 1.315 1_654 S
Cd29 O28 2.223 1_556 S
Cd29 O32 2.297 . S
Cd29 O33 2.439 . S
Cd29 O39 2.240 1_556 S
Cd30 O31 2.240 . S
Cd30 O38 2.223 1_556 S
Cd30 O40 2.297 1_556 S
Cd30 O41 2.439 1_455 S
O31 Cd30 2.240 . S
O31 C36 1.279 . S
O32 Cd29 2.297 . S
O32 C34 1.247 . S
O33 Cd29 2.439 . S
O33 C34 1.208 . S
C34 O32 1.247 . S
C34 O33 1.208 . S
C35 O40 1.247 1_656 S
C35 O41 1.208 . S
C36 O28 1.315 1_456 S
C36 O31 1.279 . S
C37 O38 1.315 1_655 S
C37 O39 1.279 . S
O38 Cd30 2.223 1_554 S
O38 C37 1.315 1_455 S
O39 Cd29 2.240 1_554 S
O39 C37 1.279 . S
O40 Cd30 2.297 1_554 S
O40 C35 1.247 1_454 S
O41 Cd30 2.439 1_655 S
O41 C35 1.208 . S
O42 Cd43 2.223 . S
O42 C50 1.315 1_565 S
Cd43 O42 2.223 . S
Cd43 O46 2.297 . S
Cd43 O47 2.439 . S
Cd43 O53 2.240 . S
Cd44 O45 2.240 . S
Cd44 O52 2.223 . S
Cd44 O54 2.297 . S
Cd44 O55 2.439 1_545 S
O45 Cd44 2.240 . S
O45 C50 1.279 . S
O46 Cd43 2.297 . S
O46 C48 1.247 . S
O47 Cd43 2.439 . S
O47 C48 1.208 . S
C48 O46 1.247 . S
C48 O47 1.208 . S
C49 O54 1.247 1_565 S
C49 O55 1.208 . S
C50 O42 1.315 1_545 S
C50 O45 1.279 . S
C51 O52 1.315 1_565 S
C51 O53 1.279 . S
O52 Cd44 2.223 . S
O52 C51 1.315 1_545 S
O53 Cd43 2.240 . S
O53 C51 1.279 . S
O54 Cd44 2.297 . S
O54 C49 1.247 1_545 S
O55 Cd44 2.439 1_565 S
O55 C49 1.208 . S
O56 Cd57 2.223 . S
O56 C64 1.315 . S
Cd57 O56 2.223 . S
Cd57 O60 2.297 . S
Cd57 O61 2.439 . S
Cd57 O67 2.240 . S
Cd58 O59 2.240 . S
Cd58 O66 2.223 . S
Cd58 O68 2.297 . S
Cd58 O69 2.439 . S
O59 Cd58 2.240 . S
O59 C64 1.279 . S
O60 Cd57 2.297 . S
O60 C62 1.247 . S
O61 Cd57 2.439 . S
O61 C62 1.208 . S
C62 O60 1.247 . S
C62 O61 1.208 . S
C63 O68 1.247 . S
C63 O69 1.208 . S
C64 O56 1.315 . S
C64 O59 1.279 . S
C65 O66 1.315 . S
C65 O67 1.279 . S
O66 Cd58 2.223 . S
O66 C65 1.315 . S
O67 Cd57 2.240 . S
O67 C65 1.279 . S
O68 Cd58 2.297 . S
O68 C63 1.247 . S
O69 Cd58 2.439 . S
O69 C63 1.208 . S
O70 Cd71 2.223 1_554 S
O70 C78 1.315 1_454 S
Cd71 O70 2.223 1_556 S
Cd71 O74 2.297 . S
Cd71 O75 2.439 . S
Cd71 O81 2.240 1_556 S
Cd72 O73 2.240 . S
Cd72 O80 2.223 1_556 S
Cd72 O82 2.297 1_556 S
Cd72 O83 2.439 1_655 S
O73 Cd72 2.240 . S
O73 C78 1.279 . S
O74 Cd71 2.297 . S
O74 C76 1.247 . S
O75 Cd71 2.439 . S
O75 C76 1.208 . S
C76 O74 1.247 . S
C76 O75 1.208 . S
C77 O82 1.247 1_456 S
C77 O83 1.208 . S
C78 O70 1.315 1_656 S
C78 O73 1.279 . S
C79 O80 1.315 1_455 S
C79 O81 1.279 . S
O80 Cd72 2.223 1_554 S
O80 C79 1.315 1_655 S
O81 Cd71 2.240 1_554 S
O81 C79 1.279 . S
O82 Cd72 2.297 1_554 S
O82 C77 1.247 1_654 S
O83 Cd72 2.439 1_455 S
O83 C77 1.208 . S
O84 Cd85 2.223 . S
O84 C92 1.315 1_655 S
Cd85 O84 2.223 . S
Cd85 O88 2.297 . S
Cd85 O89 2.439 . S
Cd85 O95 2.240 . S
Cd86 O87 2.240 . S
Cd86 O94 2.223 . S
Cd86 O96 2.297 . S
Cd86 O97 2.439 1_455 S
O87 Cd86 2.240 . S
O87 C92 1.279 . S
O88 Cd85 2.297 . S
O88 C90 1.247 . S
O89 Cd85 2.439 . S
O89 C90 1.208 . S
C90 O88 1.247 . S
C90 O89 1.208 . S
C91 O96 1.247 1_655 S
C91 O97 1.208 . S
C92 O84 1.315 1_455 S
C92 O87 1.279 . S
C93 O94 1.315 1_655 S
C93 O95 1.279 . S
O94 Cd86 2.223 . S
O94 C93 1.315 1_455 S
O95 Cd85 2.240 . S
O95 C93 1.279 . S
O96 Cd86 2.297 . S
O96 C91 1.247 1_455 S
O97 Cd86 2.439 1_655 S
O97 C91 1.208 . S
O98 Cd99 2.223 . S
O98 C106 1.315 1_565 S
Cd99 O98 2.223 . S
Cd99 O102 2.297 . S
Cd99 O103 2.439 . S
Cd99 O109 2.240 . S
Cd100 O101 2.240 . S
Cd100 O108 2.223 . S
Cd100 O110 2.297 . S
Cd100 O111 2.439 1_545 S
O101 Cd100 2.240 . S
O101 C106 1.279 . S
O102 Cd99 2.297 . S
O102 C104 1.247 . S
O103 Cd99 2.439 . S
O103 C104 1.208 . S
C104 O102 1.247 . S
C104 O103 1.208 . S
C105 O110 1.247 1_565 S
C105 O111 1.208 . S
C106 O98 1.315 1_545 S
C106 O101 1.279 . S
C107 O108 1.315 1_565 S
C107 O109 1.279 . S
O108 Cd100 2.223 . S
O108 C107 1.315 1_545 S
O109 Cd99 2.240 . S
O109 C107 1.279 . S
O110 Cd100 2.297 . S
O110 C105 1.247 1_545 S
O111 Cd100 2.439 1_565 S
O111 C105 1.208 . S
O112 Cd113 2.226 . S
O112 C120 1.315 1_556 S
Cd113 O112 2.226 . S
Cd113 O116 2.280 1_556 S
Cd113 O117 2.420 1_556 S
Cd113 O123 2.253 . S
Cd114 O115 2.228 1_556 S
Cd114 O122 2.253 . S
Cd114 O124 2.306 . S
Cd114 O125 2.430 1_556 S
O115 Cd114 2.228 1_554 S
O115 C120 1.279 . S
O116 Cd113 2.280 1_554 S
O116 C118 1.247 . S
O117 Cd113 2.420 1_554 S
O117 C118 1.208 . S
C118 O116 1.247 . S
C118 O117 1.208 . S
C119 O124 1.247 1_554 S
C119 O125 1.208 . S
C120 O112 1.315 1_554 S
C120 O115 1.279 . S
C121 O122 1.315 . S
C121 O123 1.279 . S
O122 Cd114 2.253 . S
O122 C121 1.315 . S
O123 Cd113 2.253 . S
O123 C121 1.279 . S
O124 Cd114 2.306 . S
O124 C119 1.247 1_556 S
O125 Cd114 2.430 1_554 S
O125 C119 1.208 . S
O126 Cd127 2.223 . S
O126 C134 1.315 1_455 S
Cd127 O126 2.223 . S
Cd127 O130 2.297 . S
Cd127 O131 2.439 . S
Cd127 O137 2.240 . S
Cd128 O129 2.240 . S
Cd128 O136 2.223 . S
Cd128 O138 2.297 . S
Cd128 O139 2.439 1_655 S
O129 Cd128 2.240 . S
O129 C134 1.279 . S
O130 Cd127 2.297 . S
O130 C132 1.247 . S
O131 Cd127 2.439 . S
O131 C132 1.208 . S
C132 O130 1.247 . S
C132 O131 1.208 . S
C133 O138 1.247 1_455 S
C133 O139 1.208 . S
C134 O126 1.315 1_655 S
C134 O129 1.279 . S
C135 O136 1.315 1_455 S
C135 O137 1.279 . S
O136 Cd128 2.223 . S
O136 C135 1.315 1_655 S
O137 Cd127 2.240 . S
O137 C135 1.279 . S
O138 Cd128 2.297 . S
O138 C133 1.247 1_655 S
O139 Cd128 2.439 1_455 S
O139 C133 1.208 . S
O140 Cd141 2.223 . S
O140 C148 1.315 1_545 S
Cd141 O140 2.223 . S
Cd141 O144 2.297 . S
Cd141 O145 2.439 . S
Cd141 O151 2.240 . S
Cd142 O143 2.240 . S
Cd142 O150 2.223 . S
Cd142 O152 2.297 . S
Cd142 O153 2.439 1_565 S
O143 Cd142 2.240 . S
O143 C148 1.279 . S
O144 Cd141 2.297 . S
O144 C146 1.247 . S
O145 Cd141 2.439 . S
O145 C146 1.208 . S
C146 O144 1.247 . S
C146 O145 1.208 . S
C147 O152 1.247 1_545 S
C147 O153 1.208 . S
C148 O140 1.315 1_565 S
C148 O143 1.279 . S
C149 O150 1.315 1_545 S
C149 O151 1.279 . S
O150 Cd142 2.223 . S
O150 C149 1.315 1_565 S
O151 Cd141 2.240 . S
O151 C149 1.279 . S
O152 Cd142 2.297 . S
O152 C147 1.247 1_565 S
O153 Cd142 2.439 1_545 S
O153 C147 1.208 . S
O154 Cd155 2.226 . S
O154 C162 1.315 1_556 S
Cd155 O154 2.226 . S
Cd155 O158 2.280 1_556 S
Cd155 O159 2.420 1_556 S
Cd155 O165 2.253 . S
Cd156 O157 2.228 1_556 S
Cd156 O164 2.253 . S
Cd156 O166 2.306 . S
Cd156 O167 2.430 1_556 S
O157 Cd156 2.228 1_554 S
O157 C162 1.279 . S
O158 Cd155 2.280 1_554 S
O158 C160 1.247 . S
O159 Cd155 2.420 1_554 S
O159 C160 1.208 . S
C160 O158 1.247 . S
C160 O159 1.208 . S
C161 O166 1.247 1_554 S
C161 O167 1.208 . S
C162 O154 1.315 1_554 S
C162 O157 1.279 . S
C163 O164 1.315 . S
C163 O165 1.279 . S
O164 Cd156 2.253 . S
O164 C163 1.315 . S
O165 Cd155 2.253 . S
O165 C163 1.279 . S
O166 Cd156 2.306 . S
O166 C161 1.247 1_556 S
O167 Cd156 2.430 1_554 S
O167 C161 1.208 . S
H168 C180 0.930 . S
H169 C182 0.930 . S
H170 C183 0.930 . S
H171 C187 0.959 . S
H172 C187 0.959 . S
H173 C187 0.961 . S
H174 C188 0.960 . S
H175 C188 0.961 . S
H176 C188 0.959 . S
H177 C191 0.929 . S
H178 C192 0.931 . S
H179 C194 0.930 . S
C180 H168 0.930 . S
C180 C181 1.399 . S
C180 C185 1.399 . S
C181 C180 1.399 . S
C181 C182 1.376 . S
C182 H169 0.930 . S
C182 C181 1.376 . S
C182 C183 1.388 . S
C183 H170 0.930 . S
C183 C182 1.388 . S
C183 C184 1.390 . S
C184 C183 1.390 . S
C184 C185 1.394 . S
C184 C190 1.465 . S
C185 C180 1.399 . S
C185 C184 1.394 . S
C185 C186 1.516 . S
C186 C185 1.516 . S
C186 C187 1.502 . S
C186 C188 1.561 . S
C186 C189 1.526 . S
C187 H171 0.959 . S
C187 H172 0.959 . S
C187 H173 0.961 . S
C187 C186 1.502 . S
C188 H174 0.960 . S
C188 H175 0.961 . S
C188 H176 0.959 . S
C188 C186 1.561 . S
C189 C186 1.526 . S
C189 C190 1.396 . S
C189 C194 1.390 . S
C190 C184 1.465 . S
C190 C189 1.396 . S
C190 C191 1.399 . S
C191 H177 0.929 . S
C191 C190 1.399 . S
C191 C192 1.385 . S
C192 H178 0.931 . S
C192 C191 1.385 . S
C192 C193 1.389 . S
C193 C192 1.389 . S
C193 C194 1.387 . S
C194 H179 0.930 . S
C194 C189 1.390 . S
C194 C193 1.387 . S
H195 C207 0.930 . S
H196 C209 0.930 . S
H197 C210 0.930 . S
H198 C214 0.959 . S
H199 C214 0.959 . S
H200 C214 0.961 . S
H201 C215 0.960 . S
H202 C215 0.961 . S
H203 C215 0.959 . S
H204 C218 0.929 . S
H205 C219 0.931 . S
H206 C221 0.930 . S
C207 H195 0.930 . S
C207 C208 1.399 . S
C207 C212 1.399 . S
C208 C207 1.399 . S
C208 C209 1.376 . S
C209 H196 0.930 . S
C209 C208 1.376 . S
C209 C210 1.388 . S
C210 H197 0.930 . S
C210 C209 1.388 . S
C210 C211 1.390 . S
C211 C210 1.390 . S
C211 C212 1.394 . S
C211 C217 1.465 . S
C212 C207 1.399 . S
C212 C211 1.394 . S
C212 C213 1.516 . S
C213 C212 1.516 . S
C213 C214 1.502 . S
C213 C215 1.561 . S
C213 C216 1.526 . S
C214 H198 0.959 . S
C214 H199 0.959 . S
C214 H200 0.961 . S
C214 C213 1.502 . S
C215 H201 0.960 . S
C215 H202 0.961 . S
C215 H203 0.959 . S
C215 C213 1.561 . S
C216 C213 1.526 . S
C216 C217 1.396 . S
C216 C221 1.390 . S
C217 C211 1.465 . S
C217 C216 1.396 . S
C217 C218 1.399 . S
C218 H204 0.929 . S
C218 C217 1.399 . S
C218 C219 1.385 . S
C219 H205 0.931 . S
C219 C218 1.385 . S
C219 C220 1.389 . S
C220 C219 1.389 . S
C220 C221 1.387 . S
C221 H206 0.930 . S
C221 C216 1.390 . S
C221 C220 1.387 . S
H222 C234 0.930 . S
H223 C236 0.930 . S
H224 C237 0.930 . S
H225 C241 0.959 . S
H226 C241 0.959 . S
H227 C241 0.961 . S
H228 C242 0.960 . S
H229 C242 0.961 . S
H230 C242 0.959 . S
H231 C245 0.929 . S
H232 C246 0.931 . S
H233 C248 0.930 . S
C234 H222 0.930 . S
C234 C235 1.399 . S
C234 C239 1.399 . S
C235 C234 1.399 . S
C235 C236 1.376 . S
C236 H223 0.930 . S
C236 C235 1.376 . S
C236 C237 1.388 . S
C237 H224 0.930 . S
C237 C236 1.388 . S
C237 C238 1.390 . S
C238 C237 1.390 . S
C238 C239 1.394 . S
C238 C244 1.465 . S
C239 C234 1.399 . S
C239 C238 1.394 . S
C239 C240 1.516 . S
C240 C239 1.516 . S
C240 C241 1.502 . S
C240 C242 1.561 . S
C240 C243 1.526 . S
C241 H225 0.959 . S
C241 H226 0.959 . S
C241 H227 0.961 . S
C241 C240 1.502 . S
C242 H228 0.960 . S
C242 H229 0.961 . S
C242 H230 0.959 . S
C242 C240 1.561 . S
C243 C240 1.526 . S
C243 C244 1.396 . S
C243 C248 1.390 . S
C244 C238 1.465 . S
C244 C243 1.396 . S
C244 C245 1.399 . S
C245 H231 0.929 . S
C245 C244 1.399 . S
C245 C246 1.385 . S
C246 H232 0.931 . S
C246 C245 1.385 . S
C246 C247 1.389 . S
C247 C246 1.389 . S
C247 C248 1.387 . S
C248 H233 0.930 . S
C248 C243 1.390 . S
C248 C247 1.387 . S
H249 C261 0.930 . S
H250 C263 0.930 . S
H251 C264 0.930 . S
H252 C268 0.959 . S
H253 C268 0.959 . S
H254 C268 0.961 . S
H255 C269 0.960 . S
H256 C269 0.961 . S
H257 C269 0.959 . S
H258 C272 0.929 . S
H259 C273 0.931 . S
H260 C275 0.930 . S
C261 H249 0.930 . S
C261 C262 1.399 . S
C261 C266 1.399 . S
C262 C261 1.399 . S
C262 C263 1.376 . S
C263 H250 0.930 . S
C263 C262 1.376 . S
C263 C264 1.388 . S
C264 H251 0.930 . S
C264 C263 1.388 . S
C264 C265 1.390 . S
C265 C264 1.390 . S
C265 C266 1.394 . S
C265 C271 1.465 . S
C266 C261 1.399 . S
C266 C265 1.394 . S
C266 C267 1.516 . S
C267 C266 1.516 . S
C267 C268 1.502 . S
C267 C269 1.561 . S
C267 C270 1.526 . S
C268 H252 0.959 . S
C268 H253 0.959 . S
C268 H254 0.961 . S
C268 C267 1.502 . S
C269 H255 0.960 . S
C269 H256 0.961 . S
C269 H257 0.959 . S
C269 C267 1.561 . S
C270 C267 1.526 . S
C270 C271 1.396 . S
C270 C275 1.390 . S
C271 C265 1.465 . S
C271 C270 1.396 . S
C271 C272 1.399 . S
C272 H258 0.929 . S
C272 C271 1.399 . S
C272 C273 1.385 . S
C273 H259 0.931 . S
C273 C272 1.385 . S
C273 C274 1.389 . S
C274 C273 1.389 . S
C274 C275 1.387 . S
C275 H260 0.930 . S
C275 C270 1.390 . S
C275 C274 1.387 . S
H276 C288 0.930 . S
H277 C290 0.930 . S
H278 C291 0.930 . S
H279 C295 0.959 . S
H280 C295 0.959 . S
H281 C295 0.961 . S
H282 C296 0.960 . S
H283 C296 0.961 . S
H284 C296 0.959 . S
H285 C299 0.929 . S
H286 C300 0.931 . S
H287 C302 0.930 . S
C288 H276 0.930 . S
C288 C289 1.399 . S
C288 C293 1.399 . S
C289 C288 1.399 . S
C289 C290 1.376 . S
C290 H277 0.930 . S
C290 C289 1.376 . S
C290 C291 1.388 . S
C291 H278 0.930 . S
C291 C290 1.388 . S
C291 C292 1.390 . S
C292 C291 1.390 . S
C292 C293 1.394 . S
C292 C298 1.465 . S
C293 C288 1.399 . S
C293 C292 1.394 . S
C293 C294 1.516 . S
C294 C293 1.516 . S
C294 C295 1.502 . S
C294 C296 1.561 . S
C294 C297 1.526 . S
C295 H279 0.959 . S
C295 H280 0.959 . S
C295 H281 0.961 . S
C295 C294 1.502 . S
C296 H282 0.960 . S
C296 H283 0.961 . S
C296 H284 0.959 . S
C296 C294 1.561 . S
C297 C294 1.526 . S
C297 C298 1.396 . S
C297 C302 1.390 . S
C298 C292 1.465 . S
C298 C297 1.396 . S
C298 C299 1.399 . S
C299 H285 0.929 . S
C299 C298 1.399 . S
C299 C300 1.385 . S
C300 H286 0.931 . S
C300 C299 1.385 . S
C300 C301 1.389 . S
C301 C300 1.389 . S
C301 C302 1.387 . S
C302 H287 0.930 . S
C302 C297 1.390 . S
C302 C301 1.387 . S
H303 C315 0.930 . S
H304 C317 0.930 . S
H305 C318 0.930 . S
H306 C322 0.959 . S
H307 C322 0.959 . S
H308 C322 0.961 . S
H309 C323 0.960 . S
H310 C323 0.961 . S
H311 C323 0.959 . S
H312 C326 0.929 . S
H313 C327 0.931 . S
H314 C329 0.930 . S
C315 H303 0.930 . S
C315 C316 1.399 . S
C315 C320 1.399 . S
C316 C315 1.399 . S
C316 C317 1.376 . S
C317 H304 0.930 . S
C317 C316 1.376 . S
C317 C318 1.388 . S
C318 H305 0.930 . S
C318 C317 1.388 . S
C318 C319 1.390 . S
C319 C318 1.390 . S
C319 C320 1.394 . S
C319 C325 1.465 . S
C320 C315 1.399 . S
C320 C319 1.394 . S
C320 C321 1.516 . S
C321 C320 1.516 . S
C321 C322 1.502 . S
C321 C323 1.561 . S
C321 C324 1.526 . S
C322 H306 0.959 . S
C322 H307 0.959 . S
C322 H308 0.961 . S
C322 C321 1.502 . S
C323 H309 0.960 . S
C323 H310 0.961 . S
C323 H311 0.959 . S
C323 C321 1.561 . S
C324 C321 1.526 . S
C324 C325 1.396 . S
C324 C329 1.390 . S
C325 C319 1.465 . S
C325 C324 1.396 . S
C325 C326 1.399 . S
C326 H312 0.929 . S
C326 C325 1.399 . S
C326 C327 1.385 . S
C327 H313 0.931 . S
C327 C326 1.385 . S
C327 C328 1.389 . S
C328 C327 1.389 . S
C328 C329 1.387 . S
C329 H314 0.930 . S
C329 C324 1.390 . S
C329 C328 1.387 . S
H330 C342 0.930 . S
H331 C344 0.930 . S
H332 C345 0.930 . S
H333 C349 0.959 . S
H334 C349 0.959 . S
H335 C349 0.961 . S
H336 C350 0.960 . S
H337 C350 0.961 . S
H338 C350 0.959 . S
H339 C353 0.929 . S
H340 C354 0.931 . S
H341 C356 0.930 . S
C342 H330 0.930 . S
C342 C343 1.399 . S
C342 C347 1.399 . S
C343 C342 1.399 . S
C343 C344 1.376 . S
C344 H331 0.930 . S
C344 C343 1.376 . S
C344 C345 1.388 . S
C345 H332 0.930 . S
C345 C344 1.388 . S
C345 C346 1.390 . S
C346 C345 1.390 . S
C346 C347 1.394 . S
C346 C352 1.465 . S
C347 C342 1.399 . S
C347 C346 1.394 . S
C347 C348 1.516 1_545 S
C348 C347 1.516 1_565 S
C348 C349 1.502 . S
C348 C350 1.561 1_565 S
C348 C351 1.526 . S
C349 H333 0.959 . S
C349 H334 0.959 . S
C349 H335 0.961 . S
C349 C348 1.502 . S
C350 H336 0.960 . S
C350 H337 0.961 . S
C350 H338 0.959 . S
C350 C348 1.561 1_545 S
C351 C348 1.526 . S
C351 C352 1.396 1_565 S
C351 C356 1.390 . S
C352 C346 1.465 . S
C352 C351 1.396 1_545 S
C352 C353 1.399 . S
C353 H339 0.929 . S
C353 C352 1.399 . S
C353 C354 1.385 1_545 S
C354 H340 0.931 . S
C354 C353 1.385 1_565 S
C354 C355 1.389 . S
C355 C354 1.389 . S
C355 C356 1.387 . S
C356 H341 0.930 . S
C356 C351 1.390 . S
C356 C355 1.387 . S
H357 C369 0.930 . S
H358 C371 0.930 . S
H359 C372 0.930 . S
H360 C376 0.959 . S
H361 C376 0.959 . S
H362 C376 0.961 . S
H363 C377 0.960 . S
H364 C377 0.961 . S
H365 C377 0.959 . S
H366 C380 0.929 . S
H367 C381 0.931 . S
H368 C383 0.930 . S
C369 H357 0.930 . S
C369 C370 1.399 . S
C369 C374 1.399 . S
C370 C369 1.399 . S
C370 C371 1.376 . S
C371 H358 0.930 . S
C371 C370 1.376 . S
C371 C372 1.388 . S
C372 H359 0.930 . S
C372 C371 1.388 . S
C372 C373 1.390 . S
C373 C372 1.390 . S
C373 C374 1.394 . S
C373 C379 1.465 . S
C374 C369 1.399 . S
C374 C373 1.394 . S
C374 C375 1.516 . S
C375 C374 1.516 . S
C375 C376 1.502 . S
C375 C377 1.561 . S
C375 C378 1.526 . S
C376 H360 0.959 . S
C376 H361 0.959 . S
C376 H362 0.961 . S
C376 C375 1.502 . S
C377 H363 0.960 . S
C377 H364 0.961 . S
C377 H365 0.959 . S
C377 C375 1.561 . S
C378 C375 1.526 . S
C378 C379 1.396 . S
C378 C383 1.390 . S
C379 C373 1.465 . S
C379 C378 1.396 . S
C379 C380 1.399 . S
C380 H366 0.929 . S
C380 C379 1.399 . S
C380 C381 1.385 . S
C381 H367 0.931 . S
C381 C380 1.385 . S
C381 C382 1.389 . S
C382 C381 1.389 . S
C382 C383 1.387 . S
C383 H368 0.930 . S
C383 C378 1.390 . S
C383 C382 1.387 . S
H384 C396 0.919 1_655 S
H385 C398 0.930 . S
H386 C399 0.930 . S
H387 C403 0.959 . S
H388 C403 0.959 . S
H389 C403 0.961 . S
H390 C404 0.960 . S
H391 C404 0.961 . S
H392 C404 0.959 1_455 S
H393 C407 0.929 . S
H394 C408 0.931 . S
H395 C410 0.930 . S
C396 H384 0.919 1_455 S
C396 C397 1.404 . S
C396 C401 1.406 1_455 S
C397 C396 1.404 . S
C397 C398 1.376 1_556 S
C398 H385 0.930 . S
C398 C397 1.376 1_554 S
C398 C399 1.388 . S
C399 H386 0.930 . S
C399 C398 1.388 . S
C399 C400 1.390 . S
C400 C399 1.390 . S
C400 C401 1.394 1_454 S
C400 C406 1.465 . S
C401 C396 1.406 1_655 S
C401 C400 1.394 1_656 S
C401 C402 1.516 . S
C402 C401 1.516 . S
C402 C403 1.502 . S
C402 C404 1.561 . S
C402 C405 1.526 . S
C403 H387 0.959 . S
C403 H388 0.959 . S
C403 H389 0.961 . S
C403 C402 1.502 . S
C404 H390 0.960 . S
C404 H391 0.961 . S
C404 H392 0.959 1_655 S
C404 C402 1.561 . S
C405 C402 1.526 . S
C405 C406 1.396 1_656 S
C405 C410 1.390 . S
C406 C400 1.465 . S
C406 C405 1.396 1_454 S
C406 C407 1.399 . S
C407 H393 0.929 . S
C407 C406 1.399 . S
C407 C408 1.385 . S
C408 H394 0.931 . S
C408 C407 1.385 . S
C408 C409 1.389 1_454 S
C409 C408 1.389 1_656 S
C409 C410 1.387 . S
C410 H395 0.930 . S
C410 C405 1.390 . S
C410 C409 1.387 . S
H411 C423 0.930 . S
H412 C425 0.930 . S
H413 C426 0.930 . S
H414 C430 0.959 . S
H415 C430 0.959 . S
H416 C430 0.961 . S
H417 C431 0.960 . S
H418 C431 0.961 . S
H419 C431 0.959 . S
H420 C434 0.929 . S
H421 C435 0.931 . S
H422 C437 0.930 . S
C423 H411 0.930 . S
C423 C424 1.399 . S
C423 C428 1.399 . S
C424 C423 1.399 . S
C424 C425 1.376 . S
C425 H412 0.930 . S
C425 C424 1.376 . S
C425 C426 1.388 . S
C426 H413 0.930 . S
C426 C425 1.388 . S
C426 C427 1.390 . S
C427 C426 1.390 . S
C427 C428 1.394 . S
C427 C433 1.465 . S
C428 C423 1.399 . S
C428 C427 1.394 . S
C428 C429 1.516 1_655 S
C429 C428 1.516 1_455 S
C429 C430 1.502 . S
C429 C431 1.561 1_455 S
C429 C432 1.526 . S
C430 H414 0.959 . S
C430 H415 0.959 . S
C430 H416 0.961 . S
C430 C429 1.502 . S
C431 H417 0.960 . S
C431 H418 0.961 . S
C431 H419 0.959 . S
C431 C429 1.561 1_655 S
C432 C429 1.526 . S
C432 C433 1.396 1_455 S
C432 C437 1.390 . S
C433 C427 1.465 . S
C433 C432 1.396 1_655 S
C433 C434 1.399 . S
C434 H420 0.929 . S
C434 C433 1.399 . S
C434 C435 1.385 1_655 S
C435 H421 0.931 . S
C435 C434 1.385 1_455 S
C435 C436 1.389 . S
C436 C435 1.389 . S
C436 C437 1.387 . S
C437 H422 0.930 . S
C437 C432 1.390 . S
C437 C436 1.387 . S
H438 C450 0.930 . S
H439 C452 0.930 . S
H440 C453 0.930 . S
H441 C457 0.959 . S
H442 C457 0.959 . S
H443 C457 0.961 . S
H444 C458 0.960 . S
H445 C458 0.961 . S
H446 C458 0.959 . S
H447 C461 0.929 . S
H448 C462 0.931 . S
H449 C464 0.930 . S
C450 H438 0.930 . S
C450 C451 1.399 . S
C450 C455 1.399 . S
C451 C450 1.399 . S
C451 C452 1.376 1_545 S
C452 H439 0.930 . S
C452 C451 1.376 1_565 S
C452 C453 1.388 . S
C453 H440 0.930 . S
C453 C452 1.388 . S
C453 C454 1.390 . S
C454 C453 1.390 . S
C454 C455 1.394 1_565 S
C454 C460 1.465 . S
C455 C450 1.399 . S
C455 C454 1.394 1_545 S
C455 C456 1.516 . S
C456 C455 1.516 . S
C456 C457 1.502 . S
C456 C458 1.561 . S
C456 C459 1.526 . S
C457 H441 0.959 . S
C457 H442 0.959 . S
C457 H443 0.961 . S
C457 C456 1.502 . S
C458 H444 0.960 . S
C458 H445 0.961 . S
C458 H446 0.959 . S
C458 C456 1.561 . S
C459 C456 1.526 . S
C459 C460 1.396 1_545 S
C459 C464 1.390 . S
C460 C454 1.465 . S
C460 C459 1.396 1_565 S
C460 C461 1.399 . S
C461 H447 0.929 . S
C461 C460 1.399 . S
C461 C462 1.385 . S
C462 H448 0.931 . S
C462 C461 1.385 . S
C462 C463 1.389 . S
C463 C462 1.389 . S
C463 C464 1.387 1_565 S
C464 H449 0.930 . S
C464 C459 1.390 . S
C464 C463 1.387 1_545 S
H465 C477 0.930 . S
H466 C479 0.930 . S
H467 C480 0.930 . S
H468 C484 0.959 . S
H469 C484 0.959 . S
H470 C484 0.961 . S
H471 C485 0.960 . S
H472 C485 0.961 . S
H473 C485 0.959 1_556 S
H474 C488 0.929 . S
H475 C489 0.931 . S
H476 C491 0.930 . S
C477 H465 0.930 . S
C477 C478 1.399 . S
C477 C482 1.399 . S
C478 C477 1.399 . S
C478 C479 1.376 1_554 S
C479 H466 0.930 . S
C479 C478 1.376 1_556 S
C479 C480 1.388 . S
C480 H467 0.930 . S
C480 C479 1.388 . S
C480 C481 1.390 . S
C481 C480 1.390 . S
C481 C482 1.394 1_556 S
C481 C487 1.465 . S
C482 C477 1.399 . S
C482 C481 1.394 1_554 S
C482 C483 1.516 . S
C483 C482 1.516 . S
C483 C484 1.502 . S
C483 C485 1.561 . S
C483 C486 1.526 . S
C484 H468 0.959 . S
C484 H469 0.959 . S
C484 H470 0.961 . S
C484 C483 1.502 . S
C485 H471 0.960 . S
C485 H472 0.961 . S
C485 H473 0.959 1_554 S
C485 C483 1.561 . S
C486 C483 1.526 . S
C486 C487 1.396 1_554 S
C486 C491 1.390 . S
C487 C481 1.465 . S
C487 C486 1.396 1_556 S
C487 C488 1.399 . S
C488 H474 0.929 . S
C488 C487 1.399 . S
C488 C489 1.385 . S
C489 H475 0.931 . S
C489 C488 1.385 . S
C489 C490 1.389 1_556 S
C490 C489 1.389 1_554 S
C490 C491 1.387 . S
C491 H476 0.930 . S
C491 C486 1.390 . S
C491 C490 1.387 . S
H492 C504 0.930 . S
H493 C506 0.930 . S
H494 C507 0.930 . S
H495 C511 0.959 . S
H496 C511 0.959 . S
H497 C511 0.961 . S
H498 C512 0.960 . S
H499 C512 0.961 . S
H500 C512 0.959 . S
H501 C515 0.929 . S
H502 C516 0.931 . S
H503 C518 0.930 . S
C504 H492 0.930 . S
C504 C505 1.399 . S
C504 C509 1.399 . S
C505 C504 1.399 . S
C505 C506 1.376 . S
C506 H493 0.930 . S
C506 C505 1.376 . S
C506 C507 1.388 . S
C507 H494 0.930 . S
C507 C506 1.388 . S
C507 C508 1.390 . S
C508 C507 1.390 . S
C508 C509 1.394 . S
C508 C514 1.465 . S
C509 C504 1.399 . S
C509 C508 1.394 . S
C509 C510 1.516 . S
C510 C509 1.516 . S
C510 C511 1.502 . S
C510 C512 1.561 . S
C510 C513 1.526 . S
C511 H495 0.959 . S
C511 H496 0.959 . S
C511 H497 0.961 . S
C511 C510 1.502 . S
C512 H498 0.960 . S
C512 H499 0.961 . S
C512 H500 0.959 . S
C512 C510 1.561 . S
C513 C510 1.526 . S
C513 C514 1.396 . S
C513 C518 1.390 . S
C514 C508 1.465 . S
C514 C513 1.396 . S
C514 C515 1.399 . S
C515 H501 0.929 . S
C515 C514 1.399 . S
C515 C516 1.385 . S
C516 H502 0.931 . S
C516 C515 1.385 . S
C516 C517 1.389 . S
C517 C516 1.389 . S
C517 C518 1.387 . S
C518 H503 0.930 . S
C518 C513 1.390 . S
C518 C517 1.387 . S
H519 C531 0.930 . S
H520 C533 0.930 . S
H521 C534 0.930 . S
H522 C538 0.959 . S
H523 C538 0.959 . S
H524 C538 0.961 . S
H525 C539 0.960 . S
H526 C539 0.961 . S
H527 C539 0.959 . S
H528 C542 0.929 . S
H529 C543 0.931 . S
H530 C545 0.930 . S
C531 H519 0.930 . S
C531 C532 1.399 . S
C531 C536 1.399 . S
C532 C531 1.399 . S
C532 C533 1.376 . S
C533 H520 0.930 . S
C533 C532 1.376 . S
C533 C534 1.388 . S
C534 H521 0.930 . S
C534 C533 1.388 . S
C534 C535 1.390 . S
C535 C534 1.390 . S
C535 C536 1.394 . S
C535 C541 1.465 . S
C536 C531 1.399 . S
C536 C535 1.394 . S
C536 C537 1.516 . S
C537 C536 1.516 . S
C537 C538 1.502 . S
C537 C539 1.561 . S
C537 C540 1.526 . S
C538 H522 0.959 . S
C538 H523 0.959 . S
C538 H524 0.961 . S
C538 C537 1.502 . S
C539 H525 0.960 . S
C539 H526 0.961 . S
C539 H527 0.959 . S
C539 C537 1.561 . S
C540 C537 1.526 . S
C540 C541 1.396 . S
C540 C545 1.390 . S
C541 C535 1.465 . S
C541 C540 1.396 . S
C541 C542 1.399 . S
C542 H528 0.929 . S
C542 C541 1.399 . S
C542 C543 1.385 . S
C543 H529 0.931 . S
C543 C542 1.385 . S
C543 C544 1.389 . S
C544 C543 1.389 . S
C544 C545 1.387 . S
C545 H530 0.930 . S
C545 C540 1.390 . S
C545 C544 1.387 . S
H546 C558 0.930 . S
H547 C560 0.930 . S
H548 C561 0.930 . S
H549 C565 0.959 . S
H550 C565 0.959 . S
H551 C565 0.961 . S
H552 C566 0.959 1_556 S
H553 C566 0.956 1_556 S
H554 C566 0.971 . S
H555 C569 0.929 . S
H556 C570 0.931 . S
H557 C572 0.930 . S
C558 H546 0.930 . S
C558 C559 1.399 1_556 S
C558 C563 1.399 . S
C559 C558 1.399 1_554 S
C559 C560 1.376 . S
C560 H547 0.930 . S
C560 C559 1.376 . S
C560 C561 1.388 . S
C561 H548 0.930 . S
C561 C560 1.388 . S
C561 C562 1.390 . S
C562 C561 1.390 . S
C562 C563 1.394 1_554 S
C562 C568 1.465 . S
C563 C558 1.399 . S
C563 C562 1.394 1_556 S
C563 C564 1.516 . S
C564 C563 1.516 . S
C564 C565 1.502 . S
C564 C566 1.555 1_556 S
C564 C567 1.526 . S
C565 H549 0.959 . S
C565 H550 0.959 . S
C565 H551 0.961 . S
C565 C564 1.502 . S
C566 H552 0.959 1_554 S
C566 H553 0.956 1_554 S
C566 H554 0.971 . S
C566 C564 1.555 1_554 S
C567 C564 1.526 . S
C567 C568 1.396 1_556 S
C567 C572 1.390 . S
C568 C562 1.465 . S
C568 C567 1.396 1_554 S
C568 C569 1.399 . S
C569 H555 0.929 . S
C569 C568 1.399 . S
C569 C570 1.385 . S
C570 H556 0.931 . S
C570 C569 1.385 . S
C570 C571 1.389 1_554 S
C571 C570 1.389 1_556 S
C571 C572 1.387 . S
C572 H557 0.930 . S
C572 C567 1.390 . S
C572 C571 1.387 . S
H573 C585 0.930 . S
H574 C587 0.930 . S
H575 C588 0.930 . S
H576 C592 0.959 . S
H577 C592 0.959 . S
H578 C592 0.961 . S
H579 C593 0.960 . S
H580 C593 0.961 . S
H581 C593 0.959 . S
H582 C596 0.929 . S
H583 C597 0.931 . S
H584 C599 0.930 . S
C585 H573 0.930 . S
C585 C586 1.399 . S
C585 C590 1.399 . S
C586 C585 1.399 . S
C586 C587 1.376 . S
C587 H574 0.930 . S
C587 C586 1.376 . S
C587 C588 1.388 . S
C588 H575 0.930 . S
C588 C587 1.388 . S
C588 C589 1.390 . S
C589 C588 1.390 . S
C589 C590 1.394 . S
C589 C595 1.465 . S
C590 C585 1.399 . S
C590 C589 1.394 . S
C590 C591 1.516 . S
C591 C590 1.516 . S
C591 C592 1.502 . S
C591 C593 1.561 . S
C591 C594 1.526 . S
C592 H576 0.959 . S
C592 H577 0.959 . S
C592 H578 0.961 . S
C592 C591 1.502 . S
C593 H579 0.960 . S
C593 H580 0.961 . S
C593 H581 0.959 . S
C593 C591 1.561 . S
C594 C591 1.526 . S
C594 C595 1.396 . S
C594 C599 1.390 . S
C595 C589 1.465 . S
C595 C594 1.396 . S
C595 C596 1.399 . S
C596 H582 0.929 . S
C596 C595 1.399 . S
C596 C597 1.385 . S
C597 H583 0.931 . S
C597 C596 1.385 . S
C597 C598 1.389 . S
C598 C597 1.389 . S
C598 C599 1.387 . S
C599 H584 0.930 . S
C599 C594 1.390 . S
C599 C598 1.387 . S
H600 C612 0.930 . S
H601 C614 0.930 . S
H602 C615 0.930 . S
H603 C619 0.959 . S
H604 C619 0.959 . S
H605 C619 0.961 . S
H606 C620 0.960 . S
H607 C620 0.961 . S
H608 C620 0.959 . S
H609 C623 0.929 . S
H610 C624 0.931 . S
H611 C626 0.930 . S
C612 H600 0.930 . S
C612 C613 1.399 . S
C612 C617 1.399 . S
C613 C612 1.399 . S
C613 C614 1.376 . S
C614 H601 0.930 . S
C614 C613 1.376 . S
C614 C615 1.388 . S
C615 H602 0.930 . S
C615 C614 1.388 . S
C615 C616 1.390 . S
C616 C615 1.390 . S
C616 C617 1.394 . S
C616 C622 1.465 . S
C617 C612 1.399 . S
C617 C616 1.394 . S
C617 C618 1.516 . S
C618 C617 1.516 . S
C618 C619 1.502 . S
C618 C620 1.561 . S
C618 C621 1.526 . S
C619 H603 0.959 . S
C619 H604 0.959 . S
C619 H605 0.961 . S
C619 C618 1.502 . S
C620 H606 0.960 . S
C620 H607 0.961 . S
C620 H608 0.959 . S
C620 C618 1.561 . S
C621 C618 1.526 . S
C621 C622 1.396 . S
C621 C626 1.390 . S
C622 C616 1.465 . S
C622 C621 1.396 . S
C622 C623 1.399 . S
C623 H609 0.929 . S
C623 C622 1.399 . S
C623 C624 1.385 . S
C624 H610 0.931 . S
C624 C623 1.385 . S
C624 C625 1.389 . S
C625 C624 1.389 . S
C625 C626 1.387 . S
C626 H611 0.930 . S
C626 C621 1.390 . S
C626 C625 1.387 . S
H627 C639 0.932 . S
H628 C641 0.930 . S
H629 C642 0.930 . S
H630 C646 0.959 . S
H631 C646 0.959 . S
H632 C646 0.961 . S
H633 C647 0.960 . S
H634 C647 0.961 . S
H635 C647 0.959 . S
H636 C650 0.929 . S
H637 C651 0.934 . S
H638 C653 0.930 . S
C639 H627 0.932 . S
C639 C640 1.397 1_556 S
C639 C644 1.399 . S
C640 C639 1.397 1_554 S
C640 C641 1.376 . S
C641 H628 0.930 . S
C641 C640 1.376 . S
C641 C642 1.388 . S
C642 H629 0.930 . S
C642 C641 1.388 . S
C642 C643 1.390 . S
C643 C642 1.390 . S
C643 C644 1.393 1_554 S
C643 C649 1.465 . S
C644 C639 1.399 . S
C644 C643 1.393 1_556 S
C644 C645 1.516 . S
C645 C644 1.516 . S
C645 C646 1.502 . S
C645 C647 1.561 1_556 S
C645 C648 1.526 . S
C646 H630 0.959 . S
C646 H631 0.959 . S
C646 H632 0.961 . S
C646 C645 1.502 . S
C647 H633 0.960 . S
C647 H634 0.961 . S
C647 H635 0.959 . S
C647 C645 1.561 1_554 S
C648 C645 1.526 . S
C648 C649 1.396 1_556 S
C648 C653 1.390 . S
C649 C643 1.465 . S
C649 C648 1.396 1_554 S
C649 C650 1.399 . S
C650 H636 0.929 . S
C650 C649 1.399 . S
C650 C651 1.391 . S
C651 H637 0.934 . S
C651 C650 1.391 . S
C651 C652 1.382 1_554 S
C652 C651 1.382 1_556 S
C652 C653 1.387 . S
C653 H638 0.930 . S
C653 C648 1.390 . S
C653 C652 1.387 . S
H654 C666 0.930 . S
H655 C668 0.930 . S
H656 C669 0.930 . S
H657 C673 0.959 . S
H658 C673 0.959 . S
H659 C673 0.961 . S
H660 C674 0.960 . S
H661 C674 0.961 . S
H662 C674 0.959 . S
H663 C677 0.929 . S
H664 C678 0.931 . S
H665 C680 0.930 . S
C666 H654 0.930 . S
C666 C667 1.399 1_565 S
C666 C671 1.399 . S
C667 C666 1.399 1_545 S
C667 C668 1.376 . S
C668 H655 0.930 . S
C668 C667 1.376 . S
C668 C669 1.388 . S
C669 H656 0.930 . S
C669 C668 1.388 . S
C669 C670 1.390 . S
C670 C669 1.390 . S
C670 C671 1.394 1_545 S
C670 C676 1.465 . S
C671 C666 1.399 . S
C671 C670 1.394 1_565 S
C671 C672 1.516 . S
C672 C671 1.516 . S
C672 C673 1.502 . S
C672 C674 1.561 . S
C672 C675 1.526 . S
C673 H657 0.959 . S
C673 H658 0.959 . S
C673 H659 0.961 . S
C673 C672 1.502 . S
C674 H660 0.960 . S
C674 H661 0.961 . S
C674 H662 0.959 . S
C674 C672 1.561 . S
C675 C672 1.526 . S
C675 C676 1.396 1_565 S
C675 C680 1.390 . S
C676 C670 1.465 . S
C676 C675 1.396 1_545 S
C676 C677 1.399 . S
C677 H663 0.929 . S
C677 C676 1.399 . S
C677 C678 1.385 . S
C678 H664 0.931 . S
C678 C677 1.385 . S
C678 C679 1.389 1_545 S
C679 C678 1.389 1_565 S
C679 C680 1.387 . S
C680 H665 0.930 . S
C680 C675 1.390 . S
C680 C679 1.387 . S
H681 C693 0.930 . S
H682 C695 0.930 . S
H683 C696 0.930 . S
H684 C700 0.959 . S
H685 C700 0.959 . S
H686 C700 0.961 . S
H687 C701 0.960 . S
H688 C701 0.961 . S
H689 C701 0.959 . S
H690 C704 0.929 . S
H691 C705 0.931 . S
H692 C707 0.930 . S
C693 H681 0.930 . S
C693 C694 1.399 . S
C693 C698 1.399 . S
C694 C693 1.399 . S
C694 C695 1.376 . S
C695 H682 0.930 . S
C695 C694 1.376 . S
C695 C696 1.388 . S
C696 H683 0.930 . S
C696 C695 1.388 . S
C696 C697 1.390 . S
C697 C696 1.390 . S
C697 C698 1.394 . S
C697 C703 1.465 . S
C698 C693 1.399 . S
C698 C697 1.394 . S
C698 C699 1.516 . S
C699 C698 1.516 . S
C699 C700 1.502 . S
C699 C701 1.561 . S
C699 C702 1.526 . S
C700 H684 0.959 . S
C700 H685 0.959 . S
C700 H686 0.961 . S
C700 C699 1.502 . S
C701 H687 0.960 . S
C701 H688 0.961 . S
C701 H689 0.959 . S
C701 C699 1.561 . S
C702 C699 1.526 . S
C702 C703 1.396 . S
C702 C707 1.390 . S
C703 C697 1.465 . S
C703 C702 1.396 . S
C703 C704 1.399 . S
C704 H690 0.929 . S
C704 C703 1.399 . S
C704 C705 1.385 . S
C705 H691 0.931 . S
C705 C704 1.385 . S
C705 C706 1.389 . S
C706 C705 1.389 . S
C706 C707 1.387 . S
C707 H692 0.930 . S
C707 C702 1.390 . S
C707 C706 1.387 . S
H708 C720 0.930 . S
H709 C722 0.930 . S
H710 C723 0.930 . S
H711 C727 0.959 . S
H712 C727 0.959 . S
H713 C727 0.961 . S
H714 C728 0.960 . S
H715 C728 0.961 . S
H716 C728 0.959 . S
H717 C731 0.929 . S
H718 C732 0.931 . S
H719 C734 0.930 . S
C720 H708 0.930 . S
C720 C721 1.399 1_655 S
C720 C725 1.399 . S
C721 C720 1.399 1_455 S
C721 C722 1.376 . S
C722 H709 0.930 . S
C722 C721 1.376 . S
C722 C723 1.388 . S
C723 H710 0.930 . S
C723 C722 1.388 . S
C723 C724 1.390 . S
C724 C723 1.390 . S
C724 C725 1.394 1_455 S
C724 C730 1.465 . S
C725 C720 1.399 . S
C725 C724 1.394 1_655 S
C725 C726 1.516 . S
C726 C725 1.516 . S
C726 C727 1.502 . S
C726 C728 1.561 . S
C726 C729 1.526 . S
C727 H711 0.959 . S
C727 H712 0.959 . S
C727 H713 0.961 . S
C727 C726 1.502 . S
C728 H714 0.960 . S
C728 H715 0.961 . S
C728 H716 0.959 . S
C728 C726 1.561 . S
C729 C726 1.526 . S
C729 C730 1.396 1_655 S
C729 C734 1.390 . S
C730 C724 1.465 . S
C730 C729 1.396 1_455 S
C730 C731 1.399 . S
C731 H717 0.929 . S
C731 C730 1.399 . S
C731 C732 1.385 . S
C732 H718 0.931 . S
C732 C731 1.385 . S
C732 C733 1.389 1_455 S
C733 C732 1.389 1_655 S
C733 C734 1.387 . S
C734 H719 0.930 . S
C734 C729 1.390 . S
C734 C733 1.387 . S
H735 C747 0.930 . S
H736 C749 0.930 . S
H737 C750 0.930 . S
H738 C754 0.959 . S
H739 C754 0.959 . S
H740 C754 0.961 . S
H741 C755 0.960 . S
H742 C755 0.961 . S
H743 C755 0.959 . S
H744 C758 0.929 . S
H745 C759 0.931 . S
H746 C761 0.930 . S
C747 H735 0.930 . S
C747 C748 1.399 . S
C747 C752 1.399 . S
C748 C747 1.399 . S
C748 C749 1.376 1_565 S
C749 H736 0.930 . S
C749 C748 1.376 1_545 S
C749 C750 1.388 . S
C750 H737 0.930 . S
C750 C749 1.388 . S
C750 C751 1.390 . S
C751 C750 1.390 . S
C751 C752 1.394 1_545 S
C751 C757 1.465 . S
C752 C747 1.399 . S
C752 C751 1.394 1_565 S
C752 C753 1.516 . S
C753 C752 1.516 . S
C753 C754 1.502 . S
C753 C755 1.561 . S
C753 C756 1.526 . S
C754 H738 0.959 . S
C754 H739 0.959 . S
C754 H740 0.961 . S
C754 C753 1.502 . S
C755 H741 0.960 . S
C755 H742 0.961 . S
C755 H743 0.959 . S
C755 C753 1.561 . S
C756 C753 1.526 . S
C756 C757 1.396 1_565 S
C756 C761 1.390 . S
C757 C751 1.465 . S
C757 C756 1.396 1_545 S
C757 C758 1.399 . S
C758 H744 0.929 . S
C758 C757 1.399 . S
C758 C759 1.385 . S
C759 H745 0.931 . S
C759 C758 1.385 . S
C759 C760 1.389 . S
C760 C759 1.389 . S
C760 C761 1.387 1_545 S
C761 H746 0.930 . S
C761 C756 1.390 . S
C761 C760 1.387 1_565 S
H762 C774 0.930 . S
H763 C776 0.930 . S
H764 C777 0.930 . S
H765 C781 0.959 . S
H766 C781 0.959 . S
H767 C781 0.961 . S
H768 C782 0.960 . S
H769 C782 0.961 . S
H770 C782 0.959 . S
H771 C785 0.929 . S
H772 C786 0.931 . S
H773 C788 0.930 . S
C774 H762 0.930 . S
C774 C775 1.399 . S
C774 C779 1.399 . S
C775 C774 1.399 . S
C775 C776 1.376 . S
C776 H763 0.930 . S
C776 C775 1.376 . S
C776 C777 1.388 . S
C777 H764 0.930 . S
C777 C776 1.388 . S
C777 C778 1.390 . S
C778 C777 1.390 . S
C778 C779 1.394 . S
C778 C784 1.465 . S
C779 C774 1.399 . S
C779 C778 1.394 . S
C779 C780 1.516 . S
C780 C779 1.516 . S
C780 C781 1.502 . S
C780 C782 1.561 . S
C780 C783 1.526 . S
C781 H765 0.959 . S
C781 H766 0.959 . S
C781 H767 0.961 . S
C781 C780 1.502 . S
C782 H768 0.960 . S
C782 H769 0.961 . S
C782 H770 0.959 . S
C782 C780 1.561 . S
C783 C780 1.526 . S
C783 C784 1.396 . S
C783 C788 1.390 . S
C784 C778 1.465 . S
C784 C783 1.396 . S
C784 C785 1.399 . S
C785 H771 0.929 . S
C785 C784 1.399 . S
C785 C786 1.385 . S
C786 H772 0.931 . S
C786 C785 1.385 . S
C786 C787 1.389 . S
C787 C786 1.389 . S
C787 C788 1.387 . S
C788 H773 0.930 . S
C788 C783 1.390 . S
C788 C787 1.387 . S
H789 C801 0.930 . S
H790 C803 0.930 . S
H791 C804 0.930 1_455 S
H792 C808 0.959 . S
H793 C808 0.959 . S
H794 C808 0.961 . S
H795 C809 0.960 . S
H796 C809 0.961 . S
H797 C809 0.959 . S
H798 C812 0.929 . S
H799 C813 0.931 . S
H800 C815 0.930 . S
C801 H789 0.930 . S
C801 C802 1.399 . S
C801 C806 1.399 . S
C802 C801 1.399 . S
C802 C803 1.376 . S
C803 H790 0.930 . S
C803 C802 1.376 . S
C803 C804 1.388 . S
C804 H791 0.930 1_655 S
C804 C803 1.388 . S
C804 C805 1.390 . S
C805 C804 1.390 . S
C805 C806 1.394 . S
C805 C811 1.465 1_655 S
C806 C801 1.399 . S
C806 C805 1.394 . S
C806 C807 1.516 . S
C807 C806 1.516 . S
C807 C808 1.502 1_655 S
C807 C809 1.561 . S
C807 C810 1.525 . S
C808 H792 0.959 . S
C808 H793 0.959 . S
C808 H794 0.961 . S
C808 C807 1.502 1_455 S
C809 H795 0.960 . S
C809 H796 0.961 . S
C809 H797 0.959 . S
C809 C807 1.561 . S
C810 C807 1.525 . S
C810 C811 1.403 1_655 S
C810 C815 1.385 1_655 S
C811 C805 1.465 1_455 S
C811 C810 1.403 1_455 S
C811 C812 1.399 . S
C812 H798 0.929 . S
C812 C811 1.399 . S
C812 C813 1.385 . S
C813 H799 0.931 . S
C813 C812 1.385 . S
C813 C814 1.389 . S
C814 C813 1.389 . S
C814 C815 1.387 . S
C815 H800 0.930 . S
C815 C810 1.385 1_455 S
C815 C814 1.387 . S
C181 C6 1.678 . S
C193 C118 1.643 . S
C208 C20 1.664 . S
C220 C132 1.645 . S
C235 C146 1.652 . S
C247 C34 1.671 . S
C262 C160 1.672 . S
C274 C48 1.651 . S
C289 C90 1.665 . S
C301 C62 1.644 . S
C316 C104 1.672 . S
C328 C76 1.640 . S
C343 C7 1.736 . S
C355 C49 1.690 . S
C370 C63 1.735 . S
C382 C21 1.691 . S
C397 C77 1.746 . S
C409 C35 1.680 . S
C424 C91 1.734 . S
C436 C133 1.692 . S
C451 C147 1.693 . S
C463 C105 1.732 . S
C478 C119 1.686 . S
C490 C161 1.739 . S
C505 C92 1.236 . S
C517 C8 1.244 . S
C532 C22 1.225 . S
C544 C106 1.220 . S
C559 C120 1.245 . S
C571 C36 1.236 . S
C586 C134 1.234 . S
C598 C50 1.244 . S
C613 C64 1.236 . S
C625 C148 1.244 . S
C640 C162 1.246 . S
C652 C78 1.240 . S
C667 C9 1.074 . S
C679 C107 1.020 . S
C694 C121 1.108 . S
C706 C23 1.054 . S
C721 C135 1.045 . S
C733 C37 1.015 . S
C748 C51 1.050 . S
C760 C149 1.105 . S
C775 C163 1.099 . S
C787 C65 1.039 . S
C802 C93 1.106 . S
C814 C79 1.099 . S
