# Generated by pormake.
# Topology und, (4)-cn, num edge types: 1
# Building blocks:
#     Node 0, Type 0, BuildingBlock: GALJAG_clean_sbu_0, # of connection points: 4
#     Node 1, Type 0, BuildingBlock: GALJAG_clean_sbu_0, # of connection points: 4
#     Node 2, Type 0, BuildingBlock: GALJAG_clean_sbu_0, # of connection points: 4
#     Node 3, Type 0, BuildingBlock: GALJAG_clean_sbu_0, # of connection points: 4
#     Node 4, Type 0, BuildingBlock: GALJAG_clean_sbu_0, # of connection points: 4
#     Node 5, Type 0, BuildingBlock: GALJAG_clean_sbu_0, # of connection points: 4
#     Node 6, Type 0, BuildingBlock: GALJAG_clean_sbu_0, # of connection points: 4
#     Node 7, Type 0, BuildingBlock: GALJAG_clean_sbu_0, # of connection points: 4
#     Node 8, Type 0, BuildingBlock: GALJAG_clean_sbu_0, # of connection points: 4
#     Node 9, Type 0, BuildingBlock: GALJAG_clean_sbu_0, # of connection points: 4
#     Node 10, Type 0, BuildingBlock: GALJAG_clean_sbu_0, # of connection points: 4
#     Node 11, Type 0, BuildingBlock: GALJAG_clean_sbu_0, # of connection points: 4
#     Node 12, Type 0, BuildingBlock: GALJAG_clean_sbu_0, # of connection points: 4
#     Node 13, Type 0, BuildingBlock: GALJAG_clean_sbu_0, # of connection points: 4
#     Node 14, Type 0, BuildingBlock: GALJAG_clean_sbu_0, # of connection points: 4
#     Node 15, Type 0, BuildingBlock: GALJAG_clean_sbu_0, # of connection points: 4
#     Edge 16, Type (0, 0), BuildingBlock: OJICUG_clean_linker_0, # of connection points: 2
#     Edge 17, Type (0, 0), BuildingBlock: OJICUG_clean_linker_0, # of connection points: 2
#     Edge 18, Type (0, 0), BuildingBlock: OJICUG_clean_linker_0, # of connection points: 2
#     Edge 19, Type (0, 0), BuildingBlock: OJICUG_clean_linker_0, # of connection points: 2
#     Edge 20, Type (0, 0), BuildingBlock: OJICUG_clean_linker_0, # of connection points: 2
#     Edge 21, Type (0, 0), BuildingBlock: OJICUG_clean_linker_0, # of connection points: 2
#     Edge 22, Type (0, 0), BuildingBlock: OJICUG_clean_linker_0, # of connection points: 2
#     Edge 23, Type (0, 0), BuildingBlock: OJICUG_clean_linker_0, # of connection points: 2
#     Edge 24, Type (0, 0), BuildingBlock: OJICUG_clean_linker_0, # of connection points: 2
#     Edge 25, Type (0, 0), BuildingBlock: OJICUG_clean_linker_0, # of connection points: 2
#     Edge 26, Type (0, 0), BuildingBlock: OJICUG_clean_linker_0, # of connection points: 2
#     Edge 27, Type (0, 0), BuildingBlock: OJICUG_clean_linker_0, # of connection points: 2
#     Edge 28, Type (0, 0), BuildingBlock: OJICUG_clean_linker_0, # of connection points: 2
#     Edge 29, Type (0, 0), BuildingBlock: OJICUG_clean_linker_0, # of connection points: 2
#     Edge 30, Type (0, 0), BuildingBlock: OJICUG_clean_linker_0, # of connection points: 2
#     Edge 31, Type (0, 0), BuildingBlock: OJICUG_clean_linker_0, # of connection points: 2
#     Edge 32, Type (0, 0), BuildingBlock: OJICUG_clean_linker_0, # of connection points: 2
#     Edge 33, Type (0, 0), BuildingBlock: OJICUG_clean_linker_0, # of connection points: 2
#     Edge 34, Type (0, 0), BuildingBlock: OJICUG_clean_linker_0, # of connection points: 2
#     Edge 35, Type (0, 0), BuildingBlock: OJICUG_clean_linker_0, # of connection points: 2
#     Edge 36, Type (0, 0), BuildingBlock: OJICUG_clean_linker_0, # of connection points: 2
#     Edge 37, Type (0, 0), BuildingBlock: OJICUG_clean_linker_0, # of connection points: 2
#     Edge 38, Type (0, 0), BuildingBlock: OJICUG_clean_linker_0, # of connection points: 2
#     Edge 39, Type (0, 0), BuildingBlock: OJICUG_clean_linker_0, # of connection points: 2
#     Edge 40, Type (0, 0), BuildingBlock: OJICUG_clean_linker_0, # of connection points: 2
#     Edge 41, Type (0, 0), BuildingBlock: OJICUG_clean_linker_0, # of connection points: 2
#     Edge 42, Type (0, 0), BuildingBlock: OJICUG_clean_linker_0, # of connection points: 2
#     Edge 43, Type (0, 0), BuildingBlock: OJICUG_clean_linker_0, # of connection points: 2
#     Edge 44, Type (0, 0), BuildingBlock: OJICUG_clean_linker_0, # of connection points: 2
#     Edge 45, Type (0, 0), BuildingBlock: OJICUG_clean_linker_0, # of connection points: 2
#     Edge 46, Type (0, 0), BuildingBlock: OJICUG_clean_linker_0, # of connection points: 2
#     Edge 47, Type (0, 0), BuildingBlock: OJICUG_clean_linker_0, # of connection points: 2
# Relax obj value: 0.013
# Max RMSD: 0.034
# Mean RMSD: 0.034
data_MOF--net-und--node1-GALJAG_clean_sbu_0--edge1-OJICUG_clean_linker_0
_symmetry_space_group_name_H-M    P1
_symmetry_Int_Tables_number       1
_symmetry_cell_setting            triclinic
loop_
_symmetry_equiv_pos_as_xyz
'x, y, z'
_cell_length_a     46.264323
_cell_length_b     46.251717
_cell_length_c     14.854608
_cell_angle_alpha  90.002332
_cell_angle_beta   89.99473
_cell_angle_gamma 89.998848
loop_
_atom_site_label
_atom_site_type_symbol
_atom_site_fract_x
_atom_site_fract_y
_atom_site_fract_z
_atom_type_partial_charge
In0 In 0.24938 0.33892 0.99653 0.0
O1 O 0.20812 0.36553 0.97544 0.0
O2 O 0.229 0.3675 0.10305 0.0
C3 C 0.24964 0.29827 0.86804 0.0
C4 C 0.2905 0.37578 0.93871 0.0
C5 C 0.24921 0.29823 0.12489 0.0
O6 O 0.22766 0.31398 0.88245 0.0
O7 O 0.2714 0.30394 0.91612 0.0
O8 O 0.27114 0.31401 0.11059 0.0
O9 O 0.22745 0.30385 0.07677 0.0
C10 C 0.20823 0.37573 0.05449 0.0
O11 O 0.2906 0.36557 0.01772 0.0
O12 O 0.26973 0.36755 0.89011 0.0
In13 In 0.91048 -6e-05 0.24872 0.0
O14 O 0.884 0.04134 0.26857 0.0
O15 O 0.88172 0.0199 0.14189 0.0
C16 C 0.95101 -0.00028 0.37754 0.0
C17 C 0.87363 0.95886 0.30691 0.0
C18 C 0.95121 0.00016 0.12052 0.0
O19 O 0.93532 0.0217 0.36296 0.0
O20 O 0.94536 0.97794 0.32949 0.0
O21 O 0.93543 0.97822 0.13469 0.0
O22 O 0.94557 0.02192 0.16868 0.0
C23 C 0.87364 0.04091 0.18975 0.0
O24 O 0.88428 0.9584 0.22845 0.0
O25 O 0.88142 0.97998 0.35478 0.0
In26 In 0.24925 0.6603 0.49716 0.0
O27 O 0.29052 0.63372 0.47612 0.0
O28 O 0.26952 0.63159 0.60353 0.0
C29 C 0.24912 0.70099 0.3688 0.0
C30 C 0.20811 0.6235 0.43912 0.0
C31 C 0.24953 0.70095 0.62567 0.0
O32 O 0.27101 0.68515 0.38298 0.0
O33 O 0.22737 0.69543 0.41705 0.0
O34 O 0.22752 0.68529 0.61115 0.0
O35 O 0.2713 0.69522 0.57769 0.0
C36 C 0.29035 0.62344 0.55506 0.0
O37 O 0.20799 0.63367 0.51819 0.0
O38 O 0.22888 0.63174 0.39057 0.0
In39 In 0.58889 -0.00016 0.74535 0.0
O40 O 0.61539 0.04121 0.72523 0.0
O41 O 0.6177 0.01983 0.85199 0.0
C42 C 0.54831 0.99966 0.61669 0.0
C43 C 0.62572 0.95875 0.68717 0.0
C44 C 0.54821 9e-05 0.8737 0.0
O45 O 0.56404 0.02162 0.63119 0.0
O46 O 0.55395 0.97788 0.66473 0.0
O47 O 0.56394 0.97812 0.85936 0.0
O48 O 0.55388 0.02186 0.82563 0.0
C49 C 0.62578 0.04081 0.80402 0.0
O50 O 0.61517 0.95836 0.76575 0.0
O51 O 0.61784 0.9798 0.63914 0.0
In52 In 0.74942 0.6604 -0.00296 0.0
O53 O 0.70807 0.63392 0.97633 0.0
O54 O 0.72919 0.63169 0.10352 0.0
C55 C 0.74971 0.70105 0.86855 0.0
C56 C 0.79045 0.6235 0.93884 0.0
C57 C 0.74928 0.70105 0.12551 0.0
O58 O 0.72771 0.68537 0.88302 0.0
O59 O 0.77147 0.69534 0.91657 0.0
O60 O 0.7712 0.68526 0.11115 0.0
O61 O 0.72751 0.69545 0.07739 0.0
C62 C 0.7083 0.62359 0.05521 0.0
O63 O 0.79073 0.63385 0.01769 0.0
O64 O 0.76956 0.63161 0.89059 0.0
In65 In 0.08896 -0.00013 0.74867 0.0
O66 O 0.1154 0.04129 0.76847 0.0
O67 O 0.11778 0.01978 0.64191 0.0
C68 C 0.04843 -0.00033 0.87749 0.0
C69 C 0.12581 0.9588 0.80689 0.0
C70 C 0.04824 0.00011 0.62047 0.0
O71 O 0.06416 0.02163 0.86298 0.0
O72 O 0.05404 0.9779 0.82936 0.0
O73 O 0.06398 0.97815 0.63473 0.0
O74 O 0.05392 0.02188 0.66853 0.0
C75 C 0.12581 0.04083 0.6897 0.0
O76 O 0.1152 0.95835 0.72838 0.0
O77 O 0.11798 0.97989 0.85481 0.0
In78 In 0.74939 0.33885 0.4965 0.0
O79 O 0.70802 0.3653 0.51719 0.0
O80 O 0.72921 0.36763 0.39012 0.0
C81 C 0.74968 0.29818 0.62492 0.0
C82 C 0.79042 0.37574 0.55476 0.0
C83 C 0.74924 0.29822 0.36794 0.0
O84 O 0.72769 0.31386 0.6105 0.0
O85 O 0.77144 0.30389 0.57688 0.0
O86 O 0.77117 0.31398 0.38238 0.0
O87 O 0.72746 0.30384 0.41602 0.0
C88 C 0.70829 0.37568 0.43838 0.0
O89 O 0.7907 0.36539 0.4759 0.0
O90 O 0.76952 0.36762 0.60299 0.0
In91 In 0.41041 -0.00014 0.2454 0.0
O92 O 0.38417 0.95835 0.26581 0.0
O93 O 0.38145 0.9798 0.13925 0.0
C94 C 0.4511 0.00011 0.37373 0.0
C95 C 0.37354 0.04085 0.30408 0.0
C96 C 0.45098 0.99966 0.1167 0.0
O97 O 0.43534 0.97815 0.35947 0.0
O98 O 0.44545 0.02186 0.32559 0.0
O99 O 0.43526 0.02162 0.13119 0.0
O100 O 0.44535 0.97788 0.16477 0.0
C101 C 0.3736 0.95874 0.18726 0.0
O102 O 0.38393 0.04124 0.22528 0.0
O103 O 0.3816 0.01986 0.35204 0.0
In104 In 0.74973 0.83893 0.49704 0.0
O105 O 0.70854 0.86561 0.47548 0.0
O106 O 0.72927 0.86754 0.60333 0.0
C107 C 0.74989 0.79827 0.3686 0.0
C108 C 0.79092 0.87578 0.43954 0.0
C109 C 0.74947 0.79827 0.62547 0.0
O110 O 0.72796 0.81406 0.38294 0.0
O111 O 0.77165 0.80388 0.41671 0.0
O112 O 0.77147 0.81394 0.61097 0.0
O113 O 0.7277 0.80399 0.57752 0.0
C114 C 0.70856 0.8758 0.55452 0.0
O115 O 0.79089 0.86566 0.51868 0.0
O116 O 0.77027 0.86745 0.39064 0.0
In117 In 0.41016 0.49969 0.74694 0.0
O118 O 0.38374 0.54111 0.76719 0.0
O119 O 0.38129 0.5197 0.64048 0.0
C120 C 0.45078 0.49946 0.87547 0.0
C121 C 0.37331 0.45865 0.80537 0.0
C122 C 0.45079 0.49993 0.61843 0.0
O123 O 0.43506 0.52143 0.86105 0.0
O124 O 0.44513 0.47769 0.82739 0.0
O125 O 0.43504 0.47798 0.63274 0.0
O126 O 0.44517 0.52168 0.6666 0.0
C127 C 0.37328 0.54071 0.68849 0.0
O128 O 0.38383 0.45822 0.72674 0.0
O129 O 0.38123 0.4797 0.8533 0.0
In130 In 0.74972 0.16032 0.99651 0.0
O131 O 0.79106 0.13379 0.97605 0.0
O132 O 0.7699 0.13167 0.10319 0.0
C133 C 0.74947 0.20096 0.86801 0.0
C134 C 0.70869 0.12344 0.93821 0.0
C135 C 0.74983 0.201 0.12487 0.0
O136 O 0.77146 0.18528 0.8825 0.0
O137 O 0.7277 0.19526 0.91601 0.0
O138 O 0.7279 0.18522 0.11048 0.0
O139 O 0.77161 0.19538 0.07683 0.0
C140 C 0.7908 0.12353 0.05501 0.0
O141 O 0.70841 0.13376 0.01711 0.0
O142 O 0.72959 0.13156 0.88999 0.0
In143 In 0.08856 0.49957 0.24676 0.0
O144 O 0.11491 0.4581 0.26682 0.0
O145 O 0.11748 0.47961 0.14031 0.0
C146 C 0.04793 0.49979 0.37527 0.0
C147 C 0.12539 0.5406 0.30535 0.0
C148 C 0.04794 0.49934 0.11823 0.0
O149 O 0.06366 0.47783 0.36088 0.0
O150 O 0.05357 0.52156 0.32717 0.0
O151 O 0.06367 0.5213 0.13261 0.0
O152 O 0.05358 0.47757 0.16635 0.0
C153 C 0.12542 0.45855 0.18817 0.0
O154 O 0.11488 0.54105 0.22671 0.0
O155 O 0.11747 0.51953 0.3532 0.0
In156 In 0.2496 0.16038 0.49651 0.0
O157 O 0.29094 0.13386 0.51716 0.0
O158 O 0.26981 0.13169 0.38997 0.0
C159 C 0.24936 0.20106 0.62487 0.0
C160 C 0.20857 0.12353 0.55497 0.0
C161 C 0.24975 0.20103 0.36804 0.0
O162 O 0.27133 0.18534 0.6105 0.0
O163 O 0.2276 0.19538 0.57682 0.0
O164 O 0.22782 0.18525 0.38241 0.0
O165 O 0.27152 0.19542 0.41615 0.0
C166 C 0.2907 0.12357 0.43824 0.0
O167 O 0.20832 0.13377 0.47598 0.0
O168 O 0.22944 0.13172 0.6032 0.0
In169 In 0.58864 0.49965 0.24689 0.0
O170 O 0.61513 0.4583 0.2262 0.0
O171 O 0.61739 0.47946 0.35334 0.0
C172 C 0.548 0.49988 0.11844 0.0
C173 C 0.62549 0.54074 0.18867 0.0
C174 C 0.548 0.49946 0.37536 0.0
O175 O 0.56373 0.47791 0.13282 0.0
O176 O 0.55366 0.52165 0.1665 0.0
O177 O 0.56376 0.5214 0.36104 0.0
O178 O 0.55362 0.47769 0.32722 0.0
C179 C 0.62547 0.45855 0.30505 0.0
O180 O 0.61511 0.54103 0.26749 0.0
O181 O 0.61743 0.5198 0.14046 0.0
In182 In 0.24966 0.83885 -0.00283 0.0
O183 O 0.2085 0.86558 0.0187 0.0
O184 O 0.22924 0.86746 0.89083 0.0
C185 C 0.24979 0.79818 0.1256 0.0
C186 C 0.29088 0.87565 0.05468 0.0
C187 C 0.24935 0.79819 0.86872 0.0
O188 O 0.22789 0.81401 0.11136 0.0
O189 O 0.27154 0.80375 0.07739 0.0
O190 O 0.27136 0.81384 0.8832 0.0
O191 O 0.22759 0.80392 0.91671 0.0
C192 C 0.20854 0.87576 0.93963 0.0
O193 O 0.29088 0.86549 0.97559 0.0
O194 O 0.27019 0.86738 0.10352 0.0
In195 In 0.91008 0.49959 0.74681 0.0
O196 O 0.88362 0.54097 0.72633 0.0
O197 O 0.88131 0.51972 0.85331 0.0
C198 C 0.95072 0.49938 0.61833 0.0
C199 C 0.87322 0.45855 0.68849 0.0
C200 C 0.95072 0.49978 0.87526 0.0
O201 O 0.935 0.52135 0.63276 0.0
O202 O 0.94506 0.4776 0.66636 0.0
O203 O 0.93499 0.47782 0.86084 0.0
O204 O 0.94507 0.52156 0.82723 0.0
C205 C 0.87324 0.54066 0.80515 0.0
O206 O 0.88359 0.45823 0.7673 0.0
O207 O 0.88129 0.47949 0.64033 0.0
C208 C 0.22445 0.25649 0.19851 0.0
C209 C 0.24927 0.27379 0.18865 0.0
H210 H 0.2052 0.21971 0.26245 0.0
C211 C 0.2743 0.2667 0.2371 0.0
H212 H 0.20485 0.26137 0.16163 0.0
C213 C 0.27451 0.24275 0.29437 0.0
C214 C 0.24969 0.22546 0.30425 0.0
H215 H 0.29376 0.27953 0.23044 0.0
H216 H 0.29411 0.23788 0.33125 0.0
C217 C 0.22466 0.23255 0.25579 0.0
C218 C 0.98263 0.0248 0.48953 0.0
C219 C 0.97543 -0.00026 0.44137 0.0
H220 H 0.01156 0.04461 0.58336 0.0
C221 C 0.9926 0.97485 0.4515 0.0
H222 H 0.96989 0.04432 0.48265 0.0
C223 C 0.01656 0.97503 0.50869 0.0
C224 C 0.02377 0.0001 0.55682 0.0
H225 H 0.98764 0.95522 0.41486 0.0
H226 H 0.02931 0.95551 0.51553 0.0
C227 C 0.00659 0.02498 0.54674 0.0
C228 C 0.2745 0.74247 0.69975 0.0
C229 C 0.24956 0.72539 0.68945 0.0
H230 H 0.29394 0.77909 0.764 0.0
C231 C 0.22449 0.7327 0.73743 0.0
H232 H 0.29413 0.73742 0.66326 0.0
C233 C 0.22437 0.75666 0.79466 0.0
C234 C 0.24931 0.77374 0.80496 0.0
H235 H 0.20493 0.72003 0.73041 0.0
H236 H 0.20474 0.76171 0.83116 0.0
C237 C 0.27438 0.76643 0.75699 0.0
C238 C 0.49261 0.97481 0.0428 0.0
C239 C 0.47541 -0.00031 0.05289 0.0
H240 H 0.52933 0.95549 0.97875 0.0
C241 C 0.4826 0.02475 0.0047 0.0
H242 H 0.48766 0.95518 0.07946 0.0
C243 C 0.50655 0.02494 0.94748 0.0
C244 C 0.52375 6e-05 0.93741 0.0
H245 H 0.46984 0.04426 0.01156 0.0
H246 H 0.51151 0.04457 0.91082 0.0
C247 C 0.51656 0.975 0.98558 0.0
C248 C 0.22471 0.76679 0.23822 0.0
C249 C 0.2497 0.77374 0.18938 0.0
H250 H 0.20489 0.73808 0.3327 0.0
C251 C 0.27444 0.75633 0.1989 0.0
H252 H 0.2053 0.77972 0.23185 0.0
C253 C 0.2742 0.73239 0.2562 0.0
C254 C 0.2492 0.72543 0.30503 0.0
H255 H 0.29401 0.7611 0.16171 0.0
H256 H 0.29361 0.71945 0.26257 0.0
C257 C 0.22446 0.74285 0.29552 0.0
C258 C 0.49277 0.02494 0.44743 0.0
C259 C 0.47555 8e-05 0.43743 0.0
H260 H 0.5295 0.04425 0.51145 0.0
C261 C 0.48272 0.97502 0.48566 0.0
H262 H 0.48783 0.04456 0.41072 0.0
C263 C 0.50667 0.97483 0.54287 0.0
C264 C 0.52389 -0.00031 0.55289 0.0
H265 H 0.46994 0.95552 0.47889 0.0
H266 H 0.51161 0.95521 0.57958 0.0
C267 C 0.51672 0.02475 0.50465 0.0
C268 C 0.27439 0.23272 0.73689 0.0
C269 C 0.24935 0.22551 0.68864 0.0
H270 H 0.29415 0.26163 0.83088 0.0
C271 C 0.22447 0.24268 0.6987 0.0
H272 H 0.29391 0.21997 0.73006 0.0
C273 C 0.22461 0.26663 0.75598 0.0
C274 C 0.24965 0.27384 0.80424 0.0
H275 H 0.20486 0.23772 0.662 0.0
H276 H 0.20509 0.27937 0.76281 0.0
C277 C 0.27454 0.25666 0.79416 0.0
C278 C 0.01688 0.02476 0.9897 0.0
C279 C 0.02401 -0.00029 0.94134 0.0
H280 H 0.98802 0.04458 0.08373 0.0
C281 C 0.00677 0.97487 0.9513 0.0
H282 H 0.02969 0.04425 0.98297 0.0
C283 C 0.98282 0.97507 0.00853 0.0
C284 C 0.97568 0.00012 0.05685 0.0
H285 H 0.01168 0.95525 0.9145 0.0
H286 H 0.97001 0.95558 0.01523 0.0
C287 C 0.99293 0.02496 0.04695 0.0
C288 C 0.77465 0.7426 0.79453 0.0
C289 C 0.74973 0.72548 0.80477 0.0
H290 H 0.79406 0.77925 0.73031 0.0
C291 C 0.72467 0.73275 0.75671 0.0
H292 H 0.79428 0.73758 0.83108 0.0
C293 C 0.72454 0.75671 0.69946 0.0
C294 C 0.74946 0.77382 0.68923 0.0
H295 H 0.70512 0.72006 0.76367 0.0
H296 H 0.70491 0.76173 0.66291 0.0
C297 C 0.77452 0.76655 0.73727 0.0
C298 C 0.77438 0.26663 0.25601 0.0
C299 C 0.7493 0.27379 0.30414 0.0
H300 H 0.79424 0.23774 0.16215 0.0
C301 C 0.72445 0.25657 0.29397 0.0
H302 H 0.79387 0.27941 0.26292 0.0
C303 C 0.72467 0.23262 0.23672 0.0
C304 C 0.74975 0.22545 0.1886 0.0
H305 H 0.70481 0.2615 0.33059 0.0
H306 H 0.70518 0.21983 0.22982 0.0
C307 C 0.7746 0.24268 0.19876 0.0
C308 C 0.77451 0.23269 0.75623 0.0
C309 C 0.74945 0.2254 0.80423 0.0
H310 H 0.79428 0.26168 0.66246 0.0
C311 C 0.72452 0.24249 0.79393 0.0
H312 H 0.79407 0.22001 0.76324 0.0
C313 C 0.72465 0.26644 0.73669 0.0
C314 C 0.74971 0.27374 0.68868 0.0
H315 H 0.70488 0.23746 0.83044 0.0
H316 H 0.70509 0.27912 0.72968 0.0
C317 C 0.77464 0.25664 0.69897 0.0
C318 C 0.72454 0.74278 0.19923 0.0
C319 C 0.74935 0.72549 0.18928 0.0
H320 H 0.7053 0.77956 0.26322 0.0
C321 C 0.7744 0.73259 0.23763 0.0
H322 H 0.70492 0.73789 0.16244 0.0
C323 C 0.77463 0.75654 0.29488 0.0
C324 C 0.74982 0.77383 0.30483 0.0
H325 H 0.79387 0.71976 0.23089 0.0
H326 H 0.79425 0.76143 0.33168 0.0
C327 C 0.72477 0.76673 0.25649 0.0
C328 C 0.51638 0.4748 0.00643 0.0
C329 C 0.52355 0.49985 0.05471 0.0
H330 H 0.48749 0.455 0.91248 0.0
C331 C 0.50634 0.52472 0.04473 0.0
H332 H 0.52916 0.45529 0.01319 0.0
C333 C 0.48238 0.52453 0.98751 0.0
C334 C 0.47522 0.49948 0.93923 0.0
H335 H 0.51128 0.54433 0.08146 0.0
H336 H 0.46961 0.54404 0.98075 0.0
C337 C 0.49243 0.47462 0.94922 0.0
C338 C 0.0163 0.47471 0.48723 0.0
C339 C 0.02349 0.49977 0.43905 0.0
H340 H 0.98739 0.4549 0.58113 0.0
C341 C 0.0063 0.52465 0.44915 0.0
H342 H 0.02906 0.45519 0.48038 0.0
C343 C 0.98235 0.52447 0.50639 0.0
C344 C 0.97516 0.49941 0.55457 0.0
H345 H 0.01126 0.54428 0.41249 0.0
H346 H 0.96959 0.54398 0.51324 0.0
C347 C 0.99235 0.47453 0.54447 0.0
C348 C 0.0063 0.47449 0.04438 0.0
C349 C 0.0235 0.49936 0.05447 0.0
H350 H 0.96959 0.45517 0.98032 0.0
C351 C 0.01632 0.52443 0.00629 0.0
H352 H 0.01126 0.45486 0.08104 0.0
C353 C 0.99237 0.52462 0.94907 0.0
C354 C 0.97516 0.49975 0.93899 0.0
H355 H 0.02908 0.54394 0.01313 0.0
H356 H 0.98741 0.54425 0.91242 0.0
C357 C 0.98235 0.47468 0.98716 0.0
C358 C 0.48234 0.47486 0.5062 0.0
C359 C 0.47523 0.4999 0.55465 0.0
H360 H 0.51118 0.45506 0.41208 0.0
C361 C 0.4925 0.52473 0.54481 0.0
H362 H 0.46952 0.45538 0.51284 0.0
C363 C 0.51645 0.52453 0.48756 0.0
C364 C 0.52356 0.4995 0.43912 0.0
H365 H 0.48761 0.54433 0.58169 0.0
H366 H 0.52927 0.54401 0.48092 0.0
C367 C 0.50629 0.47467 0.44895 0.0
C368 C 0.14983 0.43296 0.06102 0.0
C369 C 0.14568 0.43645 0.15418 0.0
H370 H 0.17254 0.41052 0.95625 0.0
C371 C 0.16156 0.41919 0.21405 0.0
H372 H 0.13775 0.44593 0.01335 0.0
C373 C 0.18183 0.39936 0.18137 0.0
C374 C 0.18609 0.39599 0.08824 0.0
H375 H 0.15881 0.42147 0.28612 0.0
H376 H 0.19418 0.38666 0.22906 0.0
C377 C 0.16962 0.41266 0.0283 0.0
C378 C 0.82921 0.91299 0.46625 0.0
C379 C 0.81305 0.8961 0.40611 0.0
H380 H 0.86081 0.9465 0.48158 0.0
C381 C 0.81758 0.89933 0.31305 0.0
H382 H 0.82608 0.91097 0.53825 0.0
C383 C 0.83782 0.91922 0.28064 0.0
C384 C 0.85339 0.9367 0.34068 0.0
H385 H 0.80547 0.88645 0.26522 0.0
H386 H 0.84079 0.92139 0.20862 0.0
C387 C 0.84897 0.93336 0.43377 0.0
C388 C 0.31663 0.59967 0.68192 0.0
C389 C 0.31249 0.60318 0.58878 0.0
H390 H 0.3396 0.57748 0.78661 0.0
C391 C 0.32911 0.58667 0.52879 0.0
H392 H 0.30417 0.61225 0.72965 0.0
C393 C 0.34895 0.56641 0.56144 0.0
C394 C 0.35298 0.56279 0.6546 0.0
H395 H 0.3263 0.58893 0.45673 0.0
H396 H 0.36115 0.55357 0.51372 0.0
C397 C 0.33694 0.57988 0.71454 0.0
C398 C 0.66983 0.08675 0.9641 0.0
C399 C 0.68657 0.1032 0.90427 0.0
H400 H 0.63771 0.05372 0.97888 0.0
C401 C 0.68255 0.09965 0.81108 0.0
H402 H 0.67255 0.08903 0.03618 0.0
C403 C 0.66225 0.07989 0.77827 0.0
C404 C 0.64609 0.06286 0.83808 0.0
H405 H 0.69511 0.11218 0.76347 0.0
H406 H 0.65968 0.07746 0.70618 0.0
C407 C 0.65 0.06651 0.93127 0.0
C408 C 0.14978 0.56619 0.43253 0.0
C409 C 0.14563 0.56272 0.33937 0.0
H410 H 0.17247 0.58863 0.53732 0.0
C411 C 0.16148 0.58002 0.27951 0.0
H412 H 0.13773 0.55319 0.48019 0.0
C413 C 0.18172 0.59986 0.31221 0.0
C414 C 0.18599 0.60322 0.40535 0.0
H415 H 0.15872 0.57775 0.20744 0.0
H416 H 0.19405 0.6126 0.26453 0.0
C417 C 0.16955 0.58651 0.46527 0.0
C418 C 0.65021 0.93308 0.56032 0.0
C419 C 0.64599 0.93661 0.65343 0.0
H420 H 0.67299 0.91058 0.45583 0.0
C421 C 0.6618 0.91936 0.71351 0.0
H422 H 0.63819 0.94604 0.51249 0.0
C423 C 0.68208 0.89951 0.68109 0.0
C424 C 0.68642 0.89609 0.588 0.0
H425 H 0.65899 0.92169 0.78555 0.0
H426 H 0.69438 0.88682 0.72893 0.0
C427 C 0.67002 0.91275 0.52785 0.0
C428 C 0.34885 0.43306 0.93241 0.0
C429 C 0.35304 0.43654 0.83927 0.0
H430 H 0.32609 0.41063 0.03709 0.0
C431 C 0.33721 0.41926 0.77933 0.0
H432 H 0.36089 0.44605 0.98014 0.0
C433 C 0.31693 0.39943 0.81192 0.0
C434 C 0.31263 0.39606 0.90504 0.0
H435 H 0.34 0.42154 0.70727 0.0
H436 H 0.30462 0.3867 0.76419 0.0
C437 C 0.32905 0.41276 0.96505 0.0
C438 C 0.81693 0.09981 0.18228 0.0
C439 C 0.81293 0.10331 0.08907 0.0
H440 H 0.83976 0.07765 0.28733 0.0
C441 C 0.82967 0.08682 0.02935 0.0
H442 H 0.80437 0.11237 0.22982 0.0
C443 C 0.84947 0.06658 0.06232 0.0
C444 C 0.85337 0.06297 0.15554 0.0
H445 H 0.82696 0.08906 0.95725 0.0
H446 H 0.86176 0.05375 0.01479 0.0
C447 C 0.83722 0.08005 0.21522 0.0
C448 C 0.81646 0.59949 0.81182 0.0
C449 C 0.81256 0.60322 0.90498 0.0
H450 H 0.83921 0.57711 0.70704 0.0
C451 C 0.82938 0.5869 0.96491 0.0
H452 H 0.80383 0.61192 0.76412 0.0
C453 C 0.84918 0.56661 0.93221 0.0
C454 C 0.85298 0.56278 0.83904 0.0
H455 H 0.82675 0.58932 0.03698 0.0
H456 H 0.86154 0.55392 0.9799 0.0
C457 C 0.83674 0.57968 0.77912 0.0
C458 C 0.16986 0.08667 0.52929 0.0
C459 C 0.18647 0.10328 0.58902 0.0
H460 H 0.13788 0.05349 0.51474 0.0
C461 C 0.18237 0.09987 0.68222 0.0
H462 H 0.17264 0.08884 0.4572 0.0
C463 C 0.16211 0.08009 0.71515 0.0
C464 C 0.14608 0.06289 0.65547 0.0
H465 H 0.19483 0.11253 0.72975 0.0
H466 H 0.15947 0.07777 0.78726 0.0
C467 C 0.15007 0.06641 0.56226 0.0
C468 C 0.68231 0.39976 0.31145 0.0
C469 C 0.68617 0.39595 0.4046 0.0
H470 H 0.65959 0.42222 0.20678 0.0
C471 C 0.66929 0.4122 0.46459 0.0
H472 H 0.69498 0.3874 0.2637 0.0
C473 C 0.64948 0.4325 0.43199 0.0
C474 C 0.64574 0.43642 0.33884 0.0
H475 H 0.67188 0.40972 0.53666 0.0
H476 H 0.63708 0.44513 0.47974 0.0
C477 C 0.66202 0.41958 0.27884 0.0
C478 C 0.3491 0.93308 0.06042 0.0
C479 C 0.35337 0.93656 0.15352 0.0
H480 H 0.32631 0.91058 0.95595 0.0
C481 C 0.33766 0.91922 0.2136 0.0
H482 H 0.36104 0.94611 0.01258 0.0
C483 C 0.31742 0.89933 0.1812 0.0
C484 C 0.31302 0.89596 0.08812 0.0
H485 H 0.34051 0.9215 0.28563 0.0
H486 H 0.30519 0.88656 0.22905 0.0
C487 C 0.32933 0.91271 0.02796 0.0
C488 C 0.81642 0.39973 0.6818 0.0
C489 C 0.81252 0.39602 0.58863 0.0
H490 H 0.83918 0.4221 0.78658 0.0
C491 C 0.82934 0.41234 0.52871 0.0
H492 H 0.8038 0.3873 0.72948 0.0
C493 C 0.84914 0.43263 0.56142 0.0
C494 C 0.85294 0.43645 0.65459 0.0
H495 H 0.82671 0.40993 0.45664 0.0
H496 H 0.86151 0.44532 0.51374 0.0
C497 C 0.8367 0.41954 0.7145 0.0
C498 C 0.3295 0.08682 0.46416 0.0
C499 C 0.31283 0.10332 0.40432 0.0
H500 H 0.36155 0.05372 0.47894 0.0
C501 C 0.31689 0.0998 0.31114 0.0
H502 H 0.32675 0.08908 0.53624 0.0
C503 C 0.33717 0.08002 0.27834 0.0
C504 C 0.35326 0.06293 0.33814 0.0
H505 H 0.30438 0.11238 0.26352 0.0
H506 H 0.33976 0.07761 0.20625 0.0
C507 C 0.34931 0.06656 0.43133 0.0
C508 C 0.64961 0.56666 0.06168 0.0
C509 C 0.64575 0.56287 0.15484 0.0
H510 H 0.6721 0.58934 0.95697 0.0
C511 C 0.66192 0.57982 0.2148 0.0
H512 H 0.6373 0.55393 0.01395 0.0
C513 C 0.6822 0.59964 0.18216 0.0
C514 C 0.68617 0.60333 0.08901 0.0
H515 H 0.6594 0.57728 0.28687 0.0
H516 H 0.69478 0.6121 0.22989 0.0
C517 C 0.66941 0.58696 0.02903 0.0
C518 C 0.18203 0.89942 0.81306 0.0
C519 C 0.18643 0.89608 0.90615 0.0
H520 H 0.1589 0.92154 0.70858 0.0
C521 C 0.17013 0.91286 0.96627 0.0
H522 H 0.19424 0.88663 0.76524 0.0
C523 C 0.15036 0.93321 0.93377 0.0
C524 C 0.14606 0.93665 0.84066 0.0
H525 H 0.17317 0.91075 0.03828 0.0
H526 H 0.13842 0.94626 0.98158 0.0
C527 C 0.16177 0.91929 0.78062 0.0
loop_
_geom_bond_atom_site_label_1
_geom_bond_atom_site_label_2
_geom_bond_distance
_geom_bond_site_symmetry_2
_ccdc_geom_bond_type
In0 O1 2.294 1_554 S
In0 O2 2.326 . S
In0 O6 2.266 1_554 S
In0 O7 2.326 1_554 S
In0 O8 2.266 . S
In0 O9 2.326 . S
In0 O11 2.294 . S
In0 O12 2.326 1_554 S
O1 In0 2.294 1_556 S
O1 C10 1.240 1_556 S
O2 In0 2.326 . S
O2 C10 1.252 . S
C3 O6 1.252 . S
C3 O7 1.260 . S
C4 O11 1.240 1_556 S
C4 O12 1.252 . S
C5 O8 1.252 . S
C5 O9 1.260 . S
O6 In0 2.266 1_556 S
O6 C3 1.252 . S
O7 In0 2.326 1_556 S
O7 C3 1.260 . S
O8 In0 2.266 . S
O8 C5 1.252 . S
O9 In0 2.326 . S
O9 C5 1.260 . S
C10 O1 1.240 1_554 S
C10 O2 1.252 . S
O11 In0 2.294 . S
O11 C4 1.240 1_554 S
O12 In0 2.326 1_556 S
O12 C4 1.252 . S
In13 O14 2.294 . S
In13 O15 2.326 . S
In13 O19 2.266 . S
In13 O20 2.326 1_545 S
In13 O21 2.266 1_545 S
In13 O22 2.326 . S
In13 O24 2.294 1_545 S
In13 O25 2.326 1_545 S
O14 In13 2.294 . S
O14 C23 1.240 . S
O15 In13 2.326 . S
O15 C23 1.252 . S
C16 O19 1.253 . S
C16 O20 1.259 1_545 S
C17 O24 1.240 . S
C17 O25 1.252 . S
C18 O21 1.253 1_545 S
C18 O22 1.259 . S
O19 In13 2.266 . S
O19 C16 1.253 . S
O20 In13 2.326 1_565 S
O20 C16 1.259 1_565 S
O21 In13 2.266 1_565 S
O21 C18 1.253 1_565 S
O22 In13 2.326 . S
O22 C18 1.259 . S
C23 O14 1.240 . S
C23 O15 1.252 . S
O24 In13 2.294 1_565 S
O24 C17 1.240 . S
O25 In13 2.326 1_565 S
O25 C17 1.252 . S
In26 O27 2.294 . S
In26 O28 2.326 . S
In26 O32 2.266 . S
In26 O33 2.326 . S
In26 O34 2.266 . S
In26 O35 2.326 . S
In26 O37 2.294 . S
In26 O38 2.326 . S
O27 In26 2.294 . S
O27 C36 1.240 . S
O28 In26 2.326 . S
O28 C36 1.252 . S
C29 O32 1.252 . S
C29 O33 1.260 . S
C30 O37 1.240 . S
C30 O38 1.252 . S
C31 O34 1.252 . S
C31 O35 1.260 . S
O32 In26 2.266 . S
O32 C29 1.252 . S
O33 In26 2.326 . S
O33 C29 1.260 . S
O34 In26 2.266 . S
O34 C31 1.252 . S
O35 In26 2.326 . S
O35 C31 1.260 . S
C36 O27 1.240 . S
C36 O28 1.252 . S
O37 In26 2.294 . S
O37 C30 1.240 . S
O38 In26 2.326 . S
O38 C30 1.252 . S
In39 O40 2.294 . S
In39 O41 2.326 . S
In39 O45 2.266 . S
In39 O46 2.326 1_545 S
In39 O47 2.266 1_545 S
In39 O48 2.326 . S
In39 O50 2.294 1_545 S
In39 O51 2.326 1_545 S
O40 In39 2.294 . S
O40 C49 1.240 . S
O41 In39 2.326 . S
O41 C49 1.252 . S
C42 O45 1.253 . S
C42 O46 1.259 1_545 S
C43 O50 1.240 . S
C43 O51 1.252 . S
C44 O47 1.253 1_545 S
C44 O48 1.259 . S
O45 In39 2.266 . S
O45 C42 1.253 . S
O46 In39 2.326 1_565 S
O46 C42 1.259 1_565 S
O47 In39 2.266 1_565 S
O47 C44 1.253 1_565 S
O48 In39 2.326 . S
O48 C44 1.259 . S
C49 O40 1.240 . S
C49 O41 1.252 . S
O50 In39 2.294 1_565 S
O50 C43 1.240 . S
O51 In39 2.326 1_565 S
O51 C43 1.252 . S
In52 O53 2.294 1_554 S
In52 O54 2.326 . S
In52 O58 2.266 1_554 S
In52 O59 2.326 1_554 S
In52 O60 2.266 . S
In52 O61 2.326 . S
In52 O63 2.294 . S
In52 O64 2.326 1_554 S
O53 In52 2.294 1_556 S
O53 C62 1.240 1_556 S
O54 In52 2.326 . S
O54 C62 1.252 . S
C55 O58 1.252 . S
C55 O59 1.260 . S
C56 O63 1.240 1_556 S
C56 O64 1.252 . S
C57 O60 1.252 . S
C57 O61 1.260 . S
O58 In52 2.266 1_556 S
O58 C55 1.252 . S
O59 In52 2.326 1_556 S
O59 C55 1.260 . S
O60 In52 2.266 . S
O60 C57 1.252 . S
O61 In52 2.326 . S
O61 C57 1.260 . S
C62 O53 1.240 1_554 S
C62 O54 1.252 . S
O63 In52 2.294 . S
O63 C56 1.240 1_554 S
O64 In52 2.326 1_556 S
O64 C56 1.252 . S
In65 O66 2.294 . S
In65 O67 2.326 . S
In65 O71 2.266 . S
In65 O72 2.326 1_545 S
In65 O73 2.266 1_545 S
In65 O74 2.326 . S
In65 O76 2.294 1_545 S
In65 O77 2.326 1_545 S
O66 In65 2.294 . S
O66 C75 1.240 . S
O67 In65 2.326 . S
O67 C75 1.252 . S
C68 O71 1.253 . S
C68 O72 1.259 1_545 S
C69 O76 1.240 . S
C69 O77 1.252 . S
C70 O73 1.253 1_545 S
C70 O74 1.259 . S
O71 In65 2.266 . S
O71 C68 1.253 . S
O72 In65 2.326 1_565 S
O72 C68 1.259 1_565 S
O73 In65 2.266 1_565 S
O73 C70 1.253 1_565 S
O74 In65 2.326 . S
O74 C70 1.259 . S
C75 O66 1.240 . S
C75 O67 1.252 . S
O76 In65 2.294 1_565 S
O76 C69 1.240 . S
O77 In65 2.326 1_565 S
O77 C69 1.252 . S
In78 O79 2.294 . S
In78 O80 2.326 . S
In78 O84 2.266 . S
In78 O85 2.326 . S
In78 O86 2.266 . S
In78 O87 2.326 . S
In78 O89 2.294 . S
In78 O90 2.326 . S
O79 In78 2.294 . S
O79 C88 1.240 . S
O80 In78 2.326 . S
O80 C88 1.252 . S
C81 O84 1.252 . S
C81 O85 1.260 . S
C82 O89 1.240 . S
C82 O90 1.252 . S
C83 O86 1.252 . S
C83 O87 1.260 . S
O84 In78 2.266 . S
O84 C81 1.252 . S
O85 In78 2.326 . S
O85 C81 1.260 . S
O86 In78 2.266 . S
O86 C83 1.252 . S
O87 In78 2.326 . S
O87 C83 1.260 . S
C88 O79 1.240 . S
C88 O80 1.252 . S
O89 In78 2.294 . S
O89 C82 1.240 . S
O90 In78 2.326 . S
O90 C82 1.252 . S
In91 O92 2.294 1_545 S
In91 O93 2.326 1_545 S
In91 O97 2.266 1_545 S
In91 O98 2.326 . S
In91 O99 2.266 . S
In91 O100 2.326 1_545 S
In91 O102 2.294 . S
In91 O103 2.326 . S
O92 In91 2.294 1_565 S
O92 C101 1.240 . S
O93 In91 2.326 1_565 S
O93 C101 1.252 . S
C94 O97 1.253 1_545 S
C94 O98 1.259 . S
C95 O102 1.240 . S
C95 O103 1.252 . S
C96 O99 1.253 . S
C96 O100 1.259 1_545 S
O97 In91 2.266 1_565 S
O97 C94 1.253 1_565 S
O98 In91 2.326 . S
O98 C94 1.259 . S
O99 In91 2.266 . S
O99 C96 1.253 . S
O100 In91 2.326 1_565 S
O100 C96 1.259 1_565 S
C101 O92 1.240 . S
C101 O93 1.252 . S
O102 In91 2.294 . S
O102 C95 1.240 . S
O103 In91 2.326 . S
O103 C95 1.252 . S
In104 O105 2.294 . S
In104 O106 2.326 . S
In104 O110 2.266 . S
In104 O111 2.326 . S
In104 O112 2.266 . S
In104 O113 2.326 . S
In104 O115 2.294 . S
In104 O116 2.326 . S
O105 In104 2.294 . S
O105 C114 1.240 . S
O106 In104 2.326 . S
O106 C114 1.252 . S
C107 O110 1.252 . S
C107 O111 1.260 . S
C108 O115 1.240 . S
C108 O116 1.252 . S
C109 O112 1.252 . S
C109 O113 1.260 . S
O110 In104 2.266 . S
O110 C107 1.252 . S
O111 In104 2.326 . S
O111 C107 1.260 . S
O112 In104 2.266 . S
O112 C109 1.252 . S
O113 In104 2.326 . S
O113 C109 1.260 . S
C114 O105 1.240 . S
C114 O106 1.252 . S
O115 In104 2.294 . S
O115 C108 1.240 . S
O116 In104 2.326 . S
O116 C108 1.252 . S
In117 O118 2.294 . S
In117 O119 2.326 . S
In117 O123 2.266 . S
In117 O124 2.326 . S
In117 O125 2.266 . S
In117 O126 2.326 . S
In117 O128 2.294 . S
In117 O129 2.326 . S
O118 In117 2.294 . S
O118 C127 1.240 . S
O119 In117 2.326 . S
O119 C127 1.252 . S
C120 O123 1.252 . S
C120 O124 1.260 . S
C121 O128 1.240 . S
C121 O129 1.252 . S
C122 O125 1.252 . S
C122 O126 1.260 . S
O123 In117 2.266 . S
O123 C120 1.252 . S
O124 In117 2.326 . S
O124 C120 1.260 . S
O125 In117 2.266 . S
O125 C122 1.252 . S
O126 In117 2.326 . S
O126 C122 1.260 . S
C127 O118 1.240 . S
C127 O119 1.252 . S
O128 In117 2.294 . S
O128 C121 1.240 . S
O129 In117 2.326 . S
O129 C121 1.252 . S
In130 O131 2.294 1_554 S
In130 O132 2.326 . S
In130 O136 2.266 1_554 S
In130 O137 2.326 1_554 S
In130 O138 2.266 . S
In130 O139 2.326 . S
In130 O141 2.294 . S
In130 O142 2.326 1_554 S
O131 In130 2.294 1_556 S
O131 C140 1.240 1_556 S
O132 In130 2.326 . S
O132 C140 1.252 . S
C133 O136 1.252 . S
C133 O137 1.260 . S
C134 O141 1.240 1_556 S
C134 O142 1.252 . S
C135 O138 1.252 . S
C135 O139 1.260 . S
O136 In130 2.266 1_556 S
O136 C133 1.252 . S
O137 In130 2.326 1_556 S
O137 C133 1.260 . S
O138 In130 2.266 . S
O138 C135 1.252 . S
O139 In130 2.326 . S
O139 C135 1.260 . S
C140 O131 1.240 1_554 S
C140 O132 1.252 . S
O141 In130 2.294 . S
O141 C134 1.240 1_554 S
O142 In130 2.326 1_556 S
O142 C134 1.252 . S
In143 O144 2.294 . S
In143 O145 2.326 . S
In143 O149 2.266 . S
In143 O150 2.326 . S
In143 O151 2.266 . S
In143 O152 2.326 . S
In143 O154 2.294 . S
In143 O155 2.326 . S
O144 In143 2.294 . S
O144 C153 1.240 . S
O145 In143 2.326 . S
O145 C153 1.252 . S
C146 O149 1.252 . S
C146 O150 1.260 . S
C147 O154 1.240 . S
C147 O155 1.252 . S
C148 O151 1.252 . S
C148 O152 1.260 . S
O149 In143 2.266 . S
O149 C146 1.252 . S
O150 In143 2.326 . S
O150 C146 1.260 . S
O151 In143 2.266 . S
O151 C148 1.252 . S
O152 In143 2.326 . S
O152 C148 1.260 . S
C153 O144 1.240 . S
C153 O145 1.252 . S
O154 In143 2.294 . S
O154 C147 1.240 . S
O155 In143 2.326 . S
O155 C147 1.252 . S
In156 O157 2.294 . S
In156 O158 2.326 . S
In156 O162 2.266 . S
In156 O163 2.326 . S
In156 O164 2.266 . S
In156 O165 2.326 . S
In156 O167 2.294 . S
In156 O168 2.326 . S
O157 In156 2.294 . S
O157 C166 1.240 . S
O158 In156 2.326 . S
O158 C166 1.252 . S
C159 O162 1.252 . S
C159 O163 1.260 . S
C160 O167 1.240 . S
C160 O168 1.252 . S
C161 O164 1.252 . S
C161 O165 1.260 . S
O162 In156 2.266 . S
O162 C159 1.252 . S
O163 In156 2.326 . S
O163 C159 1.260 . S
O164 In156 2.266 . S
O164 C161 1.252 . S
O165 In156 2.326 . S
O165 C161 1.260 . S
C166 O157 1.240 . S
C166 O158 1.252 . S
O167 In156 2.294 . S
O167 C160 1.240 . S
O168 In156 2.326 . S
O168 C160 1.252 . S
In169 O170 2.294 . S
In169 O171 2.326 . S
In169 O175 2.266 . S
In169 O176 2.326 . S
In169 O177 2.266 . S
In169 O178 2.326 . S
In169 O180 2.294 . S
In169 O181 2.326 . S
O170 In169 2.294 . S
O170 C179 1.240 . S
O171 In169 2.326 . S
O171 C179 1.252 . S
C172 O175 1.252 . S
C172 O176 1.260 . S
C173 O180 1.240 . S
C173 O181 1.252 . S
C174 O177 1.252 . S
C174 O178 1.260 . S
O175 In169 2.266 . S
O175 C172 1.252 . S
O176 In169 2.326 . S
O176 C172 1.260 . S
O177 In169 2.266 . S
O177 C174 1.252 . S
O178 In169 2.326 . S
O178 C174 1.260 . S
C179 O170 1.240 . S
C179 O171 1.252 . S
O180 In169 2.294 . S
O180 C173 1.240 . S
O181 In169 2.326 . S
O181 C173 1.252 . S
In182 O183 2.294 . S
In182 O184 2.326 1_554 S
In182 O188 2.266 . S
In182 O189 2.326 . S
In182 O190 2.266 1_554 S
In182 O191 2.326 1_554 S
In182 O193 2.294 1_554 S
In182 O194 2.326 . S
O183 In182 2.294 . S
O183 C192 1.240 1_554 S
O184 In182 2.326 1_556 S
O184 C192 1.252 . S
C185 O188 1.252 . S
C185 O189 1.260 . S
C186 O193 1.240 1_554 S
C186 O194 1.252 . S
C187 O190 1.252 . S
C187 O191 1.260 . S
O188 In182 2.266 . S
O188 C185 1.252 . S
O189 In182 2.326 . S
O189 C185 1.260 . S
O190 In182 2.266 1_556 S
O190 C187 1.252 . S
O191 In182 2.326 1_556 S
O191 C187 1.260 . S
C192 O183 1.240 1_556 S
C192 O184 1.252 . S
O193 In182 2.294 1_556 S
O193 C186 1.240 1_556 S
O194 In182 2.326 . S
O194 C186 1.252 . S
In195 O196 2.294 . S
In195 O197 2.326 . S
In195 O201 2.266 . S
In195 O202 2.326 . S
In195 O203 2.266 . S
In195 O204 2.326 . S
In195 O206 2.294 . S
In195 O207 2.326 . S
O196 In195 2.294 . S
O196 C205 1.240 . S
O197 In195 2.326 . S
O197 C205 1.252 . S
C198 O201 1.252 . S
C198 O202 1.260 . S
C199 O206 1.240 . S
C199 O207 1.252 . S
C200 O203 1.252 . S
C200 O204 1.260 . S
O201 In195 2.266 . S
O201 C198 1.252 . S
O202 In195 2.326 . S
O202 C198 1.260 . S
O203 In195 2.266 . S
O203 C200 1.252 . S
O204 In195 2.326 . S
O204 C200 1.260 . S
C205 O196 1.240 . S
C205 O197 1.252 . S
O206 In195 2.294 . S
O206 C199 1.240 . S
O207 In195 2.326 . S
O207 C199 1.252 . S
C208 C209 1.387 . S
C208 H212 0.950 . S
C208 C217 1.390 . S
C209 C208 1.387 . S
C209 C211 1.387 . S
H210 C217 0.950 . S
C211 C209 1.387 . S
C211 C213 1.390 . S
C211 H215 0.950 . S
H212 C208 0.950 . S
C213 C211 1.390 . S
C213 C214 1.387 . S
C213 H216 0.950 . S
C214 C213 1.387 . S
C214 C217 1.387 . S
H215 C211 0.950 . S
H216 C213 0.950 . S
C217 C208 1.390 . S
C217 H210 0.950 . S
C217 C214 1.387 . S
C218 C219 1.405 . S
C218 H222 0.950 . S
C218 C227 1.390 1_655 S
C219 C218 1.405 . S
C219 C221 1.370 1_545 S
H220 C227 0.950 . S
C221 C219 1.370 1_565 S
C221 C223 1.390 1_655 S
C221 H225 0.950 . S
H222 C218 0.950 . S
C223 C221 1.390 1_455 S
C223 C224 1.397 . S
C223 H226 0.950 . S
C224 C223 1.397 . S
C224 C227 1.378 1_565 S
H225 C221 0.950 . S
H226 C223 0.950 . S
C227 C218 1.390 1_455 S
C227 H220 0.950 . S
C227 C224 1.378 1_545 S
C228 C229 1.387 . S
C228 H232 0.950 . S
C228 C237 1.390 . S
C229 C228 1.387 . S
C229 C231 1.387 . S
H230 C237 0.950 . S
C231 C229 1.387 . S
C231 C233 1.390 . S
C231 H235 0.950 . S
H232 C228 0.950 . S
C233 C231 1.390 . S
C233 C234 1.387 . S
C233 H236 0.950 . S
C234 C233 1.387 . S
C234 C237 1.387 . S
H235 C231 0.950 . S
H236 C233 0.950 . S
C237 C228 1.390 . S
C237 H230 0.950 . S
C237 C234 1.387 . S
C238 C239 1.370 1_565 S
C238 H242 0.950 . S
C238 C247 1.390 1_554 S
C239 C238 1.370 1_545 S
C239 C241 1.405 . S
H240 C247 0.950 . S
C241 C239 1.405 . S
C241 C243 1.390 1_554 S
C241 H245 0.950 . S
H242 C238 0.950 . S
C243 C241 1.390 1_556 S
C243 C244 1.378 1_545 S
C243 H246 0.950 . S
C244 C243 1.378 1_565 S
C244 C247 1.397 . S
H245 C241 0.950 . S
H246 C243 0.950 . S
C247 C238 1.390 1_556 S
C247 H240 0.950 . S
C247 C244 1.397 . S
C248 C249 1.387 . S
C248 H252 0.950 . S
C248 C257 1.390 . S
C249 C248 1.387 . S
C249 C251 1.387 . S
H250 C257 0.950 . S
C251 C249 1.387 . S
C251 C253 1.390 . S
C251 H255 0.950 . S
H252 C248 0.950 . S
C253 C251 1.390 . S
C253 C254 1.387 . S
C253 H256 0.950 . S
C254 C253 1.387 . S
C254 C257 1.387 . S
H255 C251 0.950 . S
H256 C253 0.950 . S
C257 C248 1.390 . S
C257 H250 0.950 . S
C257 C254 1.387 . S
C258 C259 1.378 1_545 S
C258 H262 0.950 . S
C258 C267 1.390 . S
C259 C258 1.378 1_565 S
C259 C261 1.397 . S
H260 C267 0.950 . S
C261 C259 1.397 . S
C261 C263 1.390 . S
C261 H265 0.950 . S
H262 C258 0.950 . S
C263 C261 1.390 . S
C263 C264 1.370 1_565 S
C263 H266 0.950 . S
C264 C263 1.370 1_545 S
C264 C267 1.405 . S
H265 C261 0.950 . S
H266 C263 0.950 . S
C267 C258 1.390 . S
C267 H260 0.950 . S
C267 C264 1.405 . S
C268 C269 1.387 . S
C268 H272 0.950 . S
C268 C277 1.390 . S
C269 C268 1.387 . S
C269 C271 1.387 . S
H270 C277 0.950 . S
C271 C269 1.387 . S
C271 C273 1.390 . S
C271 H275 0.950 . S
H272 C268 0.950 . S
C273 C271 1.390 . S
C273 C274 1.387 . S
C273 H276 0.950 . S
C274 C273 1.387 . S
C274 C277 1.387 . S
H275 C271 0.950 . S
H276 C273 0.950 . S
C277 C268 1.390 . S
C277 H270 0.950 . S
C277 C274 1.387 . S
C278 C279 1.405 . S
C278 H282 0.950 . S
C278 C287 1.390 1_456 S
C279 C278 1.405 . S
C279 C281 1.370 1_545 S
H280 C287 0.950 . S
C281 C279 1.370 1_565 S
C281 C283 1.390 1_456 S
C281 H285 0.950 . S
H282 C278 0.950 . S
C283 C281 1.390 1_654 S
C283 C284 1.397 . S
C283 H286 0.950 . S
C284 C283 1.397 . S
C284 C287 1.378 1_565 S
H285 C281 0.950 . S
H286 C283 0.950 . S
C287 C278 1.390 1_654 S
C287 H280 0.950 . S
C287 C284 1.378 1_545 S
C288 C289 1.387 . S
C288 H292 0.950 . S
C288 C297 1.390 . S
C289 C288 1.387 . S
C289 C291 1.387 . S
H290 C297 0.950 . S
C291 C289 1.387 . S
C291 C293 1.390 . S
C291 H295 0.950 . S
H292 C288 0.950 . S
C293 C291 1.390 . S
C293 C294 1.387 . S
C293 H296 0.950 . S
C294 C293 1.387 . S
C294 C297 1.387 . S
H295 C291 0.950 . S
H296 C293 0.950 . S
C297 C288 1.390 . S
C297 H290 0.950 . S
C297 C294 1.387 . S
C298 C299 1.387 . S
C298 H302 0.950 . S
C298 C307 1.390 . S
C299 C298 1.387 . S
C299 C301 1.387 . S
H300 C307 0.950 . S
C301 C299 1.387 . S
C301 C303 1.390 . S
C301 H305 0.950 . S
H302 C298 0.950 . S
C303 C301 1.390 . S
C303 C304 1.387 . S
C303 H306 0.950 . S
C304 C303 1.387 . S
C304 C307 1.387 . S
H305 C301 0.950 . S
H306 C303 0.950 . S
C307 C298 1.390 . S
C307 H300 0.950 . S
C307 C304 1.387 . S
C308 C309 1.387 . S
C308 H312 0.950 . S
C308 C317 1.390 . S
C309 C308 1.387 . S
C309 C311 1.387 . S
H310 C317 0.950 . S
C311 C309 1.387 . S
C311 C313 1.390 . S
C311 H315 0.950 . S
H312 C308 0.950 . S
C313 C311 1.390 . S
C313 C314 1.387 . S
C313 H316 0.950 . S
C314 C313 1.387 . S
C314 C317 1.387 . S
H315 C311 0.950 . S
H316 C313 0.950 . S
C317 C308 1.390 . S
C317 H310 0.950 . S
C317 C314 1.387 . S
C318 C319 1.387 . S
C318 H322 0.950 . S
C318 C327 1.390 . S
C319 C318 1.387 . S
C319 C321 1.387 . S
H320 C327 0.950 . S
C321 C319 1.387 . S
C321 C323 1.390 . S
C321 H325 0.950 . S
H322 C318 0.950 . S
C323 C321 1.390 . S
C323 C324 1.387 . S
C323 H326 0.950 . S
C324 C323 1.387 . S
C324 C327 1.387 . S
H325 C321 0.950 . S
H326 C323 0.950 . S
C327 C318 1.390 . S
C327 H320 0.950 . S
C327 C324 1.387 . S
C328 C329 1.387 . S
C328 H332 0.950 . S
C328 C337 1.390 1_554 S
C329 C328 1.387 . S
C329 C331 1.387 . S
H330 C337 0.950 . S
C331 C329 1.387 . S
C331 C333 1.390 1_554 S
C331 H335 0.950 . S
H332 C328 0.950 . S
C333 C331 1.390 1_556 S
C333 C334 1.387 . S
C333 H336 0.950 . S
C334 C333 1.387 . S
C334 C337 1.387 . S
H335 C331 0.950 . S
H336 C333 0.950 . S
C337 C328 1.390 1_556 S
C337 H330 0.950 . S
C337 C334 1.387 . S
C338 C339 1.387 . S
C338 H342 0.950 . S
C338 C347 1.390 1_455 S
C339 C338 1.387 . S
C339 C341 1.387 . S
H340 C347 0.950 . S
C341 C339 1.387 . S
C341 C343 1.390 1_455 S
C341 H345 0.950 . S
H342 C338 0.950 . S
C343 C341 1.390 1_655 S
C343 C344 1.387 . S
C343 H346 0.950 . S
C344 C343 1.387 . S
C344 C347 1.387 . S
H345 C341 0.950 . S
H346 C343 0.950 . S
C347 C338 1.390 1_655 S
C347 H340 0.950 . S
C347 C344 1.387 . S
C348 C349 1.387 . S
C348 H352 0.950 . S
C348 C357 1.390 1_454 S
C349 C348 1.387 . S
C349 C351 1.387 . S
H350 C357 0.950 . S
C351 C349 1.387 . S
C351 C353 1.390 1_454 S
C351 H355 0.950 . S
H352 C348 0.950 . S
C353 C351 1.390 1_656 S
C353 C354 1.387 . S
C353 H356 0.950 . S
C354 C353 1.387 . S
C354 C357 1.387 . S
H355 C351 0.950 . S
H356 C353 0.950 . S
C357 C348 1.390 1_656 S
C357 H350 0.950 . S
C357 C354 1.387 . S
C358 C359 1.387 . S
C358 H362 0.950 . S
C358 C367 1.390 . S
C359 C358 1.387 . S
C359 C361 1.387 . S
H360 C367 0.950 . S
C361 C359 1.387 . S
C361 C363 1.390 . S
C361 H365 0.950 . S
H362 C358 0.950 . S
C363 C361 1.390 . S
C363 C364 1.387 . S
C363 H366 0.950 . S
C364 C363 1.387 . S
C364 C367 1.387 . S
H365 C361 0.950 . S
H366 C363 0.950 . S
C367 C358 1.390 . S
C367 H360 0.950 . S
C367 C364 1.387 . S
C368 C369 1.387 . S
C368 H372 0.950 . S
C368 C377 1.390 . S
C369 C368 1.387 . S
C369 C371 1.387 . S
H370 C377 0.950 1_556 S
C371 C369 1.387 . S
C371 C373 1.390 . S
C371 H375 0.950 . S
H372 C368 0.950 . S
C373 C371 1.390 . S
C373 C374 1.387 . S
C373 H376 0.950 . S
C374 C373 1.387 . S
C374 C377 1.387 . S
H375 C371 0.950 . S
H376 C373 0.950 . S
C377 C368 1.390 . S
C377 H370 0.950 1_554 S
C377 C374 1.387 . S
C378 C379 1.387 . S
C378 H382 0.950 . S
C378 C387 1.390 . S
C379 C378 1.387 . S
C379 C381 1.387 . S
H380 C387 0.950 . S
C381 C379 1.387 . S
C381 C383 1.390 . S
C381 H385 0.950 . S
H382 C378 0.950 . S
C383 C381 1.390 . S
C383 C384 1.387 . S
C383 H386 0.950 . S
C384 C383 1.387 . S
C384 C387 1.387 . S
H385 C381 0.950 . S
H386 C383 0.950 . S
C387 C378 1.390 . S
C387 H380 0.950 . S
C387 C384 1.387 . S
C388 C389 1.387 . S
C388 H392 0.950 . S
C388 C397 1.390 . S
C389 C388 1.387 . S
C389 C391 1.387 . S
H390 C397 0.950 . S
C391 C389 1.387 . S
C391 C393 1.390 . S
C391 H395 0.950 . S
H392 C388 0.950 . S
C393 C391 1.390 . S
C393 C394 1.387 . S
C393 H396 0.950 . S
C394 C393 1.387 . S
C394 C397 1.387 . S
H395 C391 0.950 . S
H396 C393 0.950 . S
C397 C388 1.390 . S
C397 H390 0.950 . S
C397 C394 1.387 . S
C398 C399 1.387 . S
C398 H402 0.950 1_556 S
C398 C407 1.390 . S
C399 C398 1.387 . S
C399 C401 1.387 . S
H400 C407 0.950 . S
C401 C399 1.387 . S
C401 C403 1.390 . S
C401 H405 0.950 . S
H402 C398 0.950 1_554 S
C403 C401 1.390 . S
C403 C404 1.387 . S
C403 H406 0.950 . S
C404 C403 1.387 . S
C404 C407 1.387 . S
H405 C401 0.950 . S
H406 C403 0.950 . S
C407 C398 1.390 . S
C407 H400 0.950 . S
C407 C404 1.387 . S
C408 C409 1.387 . S
C408 H412 0.950 . S
C408 C417 1.390 . S
C409 C408 1.387 . S
C409 C411 1.387 . S
H410 C417 0.950 . S
C411 C409 1.387 . S
C411 C413 1.390 . S
C411 H415 0.950 . S
H412 C408 0.950 . S
C413 C411 1.390 . S
C413 C414 1.387 . S
C413 H416 0.950 . S
C414 C413 1.387 . S
C414 C417 1.387 . S
H415 C411 0.950 . S
H416 C413 0.950 . S
C417 C408 1.390 . S
C417 H410 0.950 . S
C417 C414 1.387 . S
C418 C419 1.387 . S
C418 H422 0.950 . S
C418 C427 1.390 . S
C419 C418 1.387 . S
C419 C421 1.387 . S
H420 C427 0.950 . S
C421 C419 1.387 . S
C421 C423 1.390 . S
C421 H425 0.950 . S
H422 C418 0.950 . S
C423 C421 1.390 . S
C423 C424 1.387 . S
C423 H426 0.950 . S
C424 C423 1.387 . S
C424 C427 1.387 . S
H425 C421 0.950 . S
H426 C423 0.950 . S
C427 C418 1.390 . S
C427 H420 0.950 . S
C427 C424 1.387 . S
C428 C429 1.387 . S
C428 H432 0.950 . S
C428 C437 1.390 . S
C429 C428 1.387 . S
C429 C431 1.387 . S
H430 C437 0.950 . S
C431 C429 1.387 . S
C431 C433 1.390 . S
C431 H435 0.950 . S
H432 C428 0.950 . S
C433 C431 1.390 . S
C433 C434 1.387 . S
C433 H436 0.950 . S
C434 C433 1.387 . S
C434 C437 1.387 . S
H435 C431 0.950 . S
H436 C433 0.950 . S
C437 C428 1.390 . S
C437 H430 0.950 . S
C437 C434 1.387 . S
C438 C439 1.387 . S
C438 H442 0.950 . S
C438 C447 1.390 . S
C439 C438 1.387 . S
C439 C441 1.387 . S
H440 C447 0.950 . S
C441 C439 1.387 . S
C441 C443 1.390 . S
C441 H445 0.950 1_554 S
H442 C438 0.950 . S
C443 C441 1.390 . S
C443 C444 1.387 . S
C443 H446 0.950 . S
C444 C443 1.387 . S
C444 C447 1.387 . S
H445 C441 0.950 1_556 S
H446 C443 0.950 . S
C447 C438 1.390 . S
C447 H440 0.950 . S
C447 C444 1.387 . S
C448 C449 1.387 . S
C448 H452 0.950 . S
C448 C457 1.390 . S
C449 C448 1.387 . S
C449 C451 1.387 . S
H450 C457 0.950 . S
C451 C449 1.387 . S
C451 C453 1.390 . S
C451 H455 0.950 1_556 S
H452 C448 0.950 . S
C453 C451 1.390 . S
C453 C454 1.387 . S
C453 H456 0.950 . S
C454 C453 1.387 . S
C454 C457 1.387 . S
H455 C451 0.950 1_554 S
H456 C453 0.950 . S
C457 C448 1.390 . S
C457 H450 0.950 . S
C457 C454 1.387 . S
C458 C459 1.387 . S
C458 H462 0.950 . S
C458 C467 1.390 . S
C459 C458 1.387 . S
C459 C461 1.387 . S
H460 C467 0.950 . S
C461 C459 1.387 . S
C461 C463 1.390 . S
C461 H465 0.950 . S
H462 C458 0.950 . S
C463 C461 1.390 . S
C463 C464 1.387 . S
C463 H466 0.950 . S
C464 C463 1.387 . S
C464 C467 1.387 . S
H465 C461 0.950 . S
H466 C463 0.950 . S
C467 C458 1.390 . S
C467 H460 0.950 . S
C467 C464 1.387 . S
C468 C469 1.387 . S
C468 H472 0.950 . S
C468 C477 1.390 . S
C469 C468 1.387 . S
C469 C471 1.387 . S
H470 C477 0.950 . S
C471 C469 1.387 . S
C471 C473 1.390 . S
C471 H475 0.950 . S
H472 C468 0.950 . S
C473 C471 1.390 . S
C473 C474 1.387 . S
C473 H476 0.950 . S
C474 C473 1.387 . S
C474 C477 1.387 . S
H475 C471 0.950 . S
H476 C473 0.950 . S
C477 C468 1.390 . S
C477 H470 0.950 . S
C477 C474 1.387 . S
C478 C479 1.387 . S
C478 H482 0.950 . S
C478 C487 1.390 . S
C479 C478 1.387 . S
C479 C481 1.387 . S
H480 C487 0.950 1_556 S
C481 C479 1.387 . S
C481 C483 1.390 . S
C481 H485 0.950 . S
H482 C478 0.950 . S
C483 C481 1.390 . S
C483 C484 1.387 . S
C483 H486 0.950 . S
C484 C483 1.387 . S
C484 C487 1.387 . S
H485 C481 0.950 . S
H486 C483 0.950 . S
C487 C478 1.390 . S
C487 H480 0.950 1_554 S
C487 C484 1.387 . S
C488 C489 1.387 . S
C488 H492 0.950 . S
C488 C497 1.390 . S
C489 C488 1.387 . S
C489 C491 1.387 . S
H490 C497 0.950 . S
C491 C489 1.387 . S
C491 C493 1.390 . S
C491 H495 0.950 . S
H492 C488 0.950 . S
C493 C491 1.390 . S
C493 C494 1.387 . S
C493 H496 0.950 . S
C494 C493 1.387 . S
C494 C497 1.387 . S
H495 C491 0.950 . S
H496 C493 0.950 . S
C497 C488 1.390 . S
C497 H490 0.950 . S
C497 C494 1.387 . S
C498 C499 1.387 . S
C498 H502 0.950 . S
C498 C507 1.390 . S
C499 C498 1.387 . S
C499 C501 1.387 . S
H500 C507 0.950 . S
C501 C499 1.387 . S
C501 C503 1.390 . S
C501 H505 0.950 . S
H502 C498 0.950 . S
C503 C501 1.390 . S
C503 C504 1.387 . S
C503 H506 0.950 . S
C504 C503 1.387 . S
C504 C507 1.387 . S
H505 C501 0.950 . S
H506 C503 0.950 . S
C507 C498 1.390 . S
C507 H500 0.950 . S
C507 C504 1.387 . S
C508 C509 1.387 . S
C508 H512 0.950 . S
C508 C517 1.390 . S
C509 C508 1.387 . S
C509 C511 1.387 . S
H510 C517 0.950 1_556 S
C511 C509 1.387 . S
C511 C513 1.390 . S
C511 H515 0.950 . S
H512 C508 0.950 . S
C513 C511 1.390 . S
C513 C514 1.387 . S
C513 H516 0.950 . S
C514 C513 1.387 . S
C514 C517 1.387 . S
H515 C511 0.950 . S
H516 C513 0.950 . S
C517 C508 1.390 . S
C517 H510 0.950 1_554 S
C517 C514 1.387 . S
C518 C519 1.387 . S
C518 H522 0.950 . S
C518 C527 1.390 . S
C519 C518 1.387 . S
C519 C521 1.387 . S
H520 C527 0.950 . S
C521 C519 1.387 . S
C521 C523 1.390 . S
C521 H525 0.950 . S
H522 C518 0.950 . S
C523 C521 1.390 . S
C523 C524 1.387 . S
C523 H526 0.950 . S
C524 C523 1.387 . S
C524 C527 1.387 . S
H525 C521 0.950 . S
H526 C523 0.950 . S
C527 C518 1.390 . S
C527 H520 0.950 . S
C527 C524 1.387 . S
C209 C5 1.475 . S
C214 C161 1.474 . S
C219 C16 1.474 . S
C224 C70 1.474 1_565 S
C229 C31 1.475 . S
C234 C187 1.476 . S
C239 C96 1.474 . S
C244 C44 1.474 1_565 S
C249 C185 1.475 . S
C254 C29 1.474 . S
C259 C94 1.474 1_565 S
C264 C42 1.474 . S
C269 C159 1.475 . S
C274 C3 1.476 . S
C279 C68 1.475 . S
C284 C18 1.475 1_565 S
C289 C55 1.474 . S
C294 C109 1.475 . S
C299 C83 1.475 . S
C304 C135 1.474 . S
C309 C133 1.474 . S
C314 C81 1.475 . S
C319 C57 1.474 . S
C324 C107 1.473 . S
C329 C172 1.475 . S
C334 C120 1.475 . S
C339 C146 1.474 . S
C344 C198 1.474 . S
C349 C148 1.475 . S
C354 C200 1.475 . S
C359 C122 1.474 . S
C364 C174 1.474 . S
C369 C153 1.543 . S
C374 C10 1.543 . S
C379 C108 1.543 . S
C384 C17 1.546 . S
C389 C36 1.544 . S
C394 C127 1.544 . S
C399 C134 1.543 . S
C404 C49 1.541 . S
C409 C147 1.543 . S
C414 C30 1.543 . S
C419 C43 1.543 . S
C424 C114 1.546 . S
C429 C121 1.543 . S
C434 C4 1.544 . S
C439 C140 1.544 . S
C444 C23 1.540 . S
C449 C56 1.544 . S
C454 C205 1.544 . S
C459 C160 1.544 . S
C464 C75 1.541 . S
C469 C88 1.544 . S
C474 C179 1.543 . S
C479 C101 1.544 . S
C484 C186 1.546 . S
C489 C82 1.543 . S
C494 C199 1.543 . S
C499 C166 1.544 . S
C504 C95 1.541 . S
C509 C173 1.544 . S
C514 C62 1.543 . S
C519 C192 1.543 . S
C524 C69 1.547 . S
