# Generated by pormake.
# Topology xfy, (5)-cn, num edge types: 1
# Building blocks:
#     Node 0, Type 0, BuildingBlock: BEQFEK_clean_sbu_0, # of connection points: 5
#     Node 1, Type 0, BuildingBlock: BEQFEK_clean_sbu_0, # of connection points: 5
#     Node 2, Type 0, BuildingBlock: BEQFEK_clean_sbu_0, # of connection points: 5
#     Node 3, Type 0, BuildingBlock: BEQFEK_clean_sbu_0, # of connection points: 5
#     Node 4, Type 0, BuildingBlock: BEQFEK_clean_sbu_0, # of connection points: 5
#     Node 5, Type 0, BuildingBlock: BEQFEK_clean_sbu_0, # of connection points: 5
#     Node 6, Type 0, BuildingBlock: BEQFEK_clean_sbu_0, # of connection points: 5
#     Node 7, Type 0, BuildingBlock: BEQFEK_clean_sbu_0, # of connection points: 5
#     Edge 8, Type (0, 0), BuildingBlock: XIVTED_clean_linker_0, # of connection points: 2
#     Edge 9, Type (0, 0), BuildingBlock: XIVTED_clean_linker_0, # of connection points: 2
#     Edge 10, Type (0, 0), BuildingBlock: XIVTED_clean_linker_0, # of connection points: 2
#     Edge 11, Type (0, 0), BuildingBlock: XIVTED_clean_linker_0, # of connection points: 2
#     Edge 12, Type (0, 0), BuildingBlock: XIVTED_clean_linker_0, # of connection points: 2
#     Edge 13, Type (0, 0), BuildingBlock: XIVTED_clean_linker_0, # of connection points: 2
#     Edge 14, Type (0, 0), BuildingBlock: XIVTED_clean_linker_0, # of connection points: 2
#     Edge 15, Type (0, 0), BuildingBlock: XIVTED_clean_linker_0, # of connection points: 2
#     Edge 16, Type (0, 0), BuildingBlock: XIVTED_clean_linker_0, # of connection points: 2
#     Edge 17, Type (0, 0), BuildingBlock: XIVTED_clean_linker_0, # of connection points: 2
#     Edge 18, Type (0, 0), BuildingBlock: XIVTED_clean_linker_0, # of connection points: 2
#     Edge 19, Type (0, 0), BuildingBlock: XIVTED_clean_linker_0, # of connection points: 2
#     Edge 20, Type (0, 0), BuildingBlock: XIVTED_clean_linker_0, # of connection points: 2
#     Edge 21, Type (0, 0), BuildingBlock: XIVTED_clean_linker_0, # of connection points: 2
#     Edge 22, Type (0, 0), BuildingBlock: XIVTED_clean_linker_0, # of connection points: 2
#     Edge 23, Type (0, 0), BuildingBlock: XIVTED_clean_linker_0, # of connection points: 2
#     Edge 24, Type (0, 0), BuildingBlock: XIVTED_clean_linker_0, # of connection points: 2
#     Edge 25, Type (0, 0), BuildingBlock: XIVTED_clean_linker_0, # of connection points: 2
#     Edge 26, Type (0, 0), BuildingBlock: XIVTED_clean_linker_0, # of connection points: 2
#     Edge 27, Type (0, 0), BuildingBlock: XIVTED_clean_linker_0, # of connection points: 2
# Relax obj value: 0.383
# Max RMSD: 0.221
# Mean RMSD: 0.221
data_MOF--net-xfy--node1-BEQFEK_clean_sbu_0--edge1-XIVTED_clean_linker_0
_symmetry_space_group_name_H-M    P1
_symmetry_Int_Tables_number       1
_symmetry_cell_setting            triclinic
loop_
_symmetry_equiv_pos_as_xyz
'x, y, z'
_cell_length_a     29.696754
_cell_length_b     29.494678
_cell_length_c     60.44084
_cell_angle_alpha  89.827511
_cell_angle_beta   90.209744
_cell_angle_gamma 90.056577
loop_
_atom_site_label
_atom_site_type_symbol
_atom_site_fract_x
_atom_site_fract_y
_atom_site_fract_z
_atom_type_partial_charge
Co0 Co 0.2112 0.03212 0.40418 0.0
Co1 Co 0.21299 0.11884 0.37374 0.0
C2 C 0.14161 0.04556 0.36994 0.0
O3 O 0.15928 0.02137 0.38508 0.0
O4 O 0.15816 0.08386 0.36442 0.0
C5 C 0.20409 0.9406 0.42121 0.0
O6 O 0.18212 0.93236 0.40275 0.0
C7 C 0.22842 0.15908 0.33025 0.0
C8 C 0.2291 0.23256 0.33722 0.0
C9 C 0.23344 0.20124 0.32031 0.0
N10 N 0.22203 0.16516 0.35205 0.0
N11 N 0.22239 0.20917 0.35612 0.0
C12 C 0.22643 0.11385 0.31909 0.0
H13 H 0.21192 0.08785 0.33027 0.0
H14 H 0.26081 0.1029 0.3145 0.0
H15 H 0.20613 0.11626 0.30368 0.0
C16 C 0.30063 0.01986 0.38587 0.0
N17 N 0.26191 0.04296 0.38695 0.0
N18 N 0.26516 0.08064 0.37534 0.0
C19 C 0.30739 0.0834 0.36714 0.0
C20 C 0.33096 0.04482 0.37352 0.0
C21 C 0.30789 0.9744 0.39639 0.0
H22 H 0.2782 0.95256 0.39321 0.0
H23 H 0.33822 0.95728 0.38977 0.0
H24 H 0.31159 0.97861 0.41454 0.0
O25 O 0.20016 0.0844 0.42359 0.0
O26 O 0.20061 0.14705 0.40307 0.0
H27 H 0.36305 0.12775 0.35972 0.0
H28 H 0.32326 0.12024 0.33769 0.0
C29 C 0.32665 0.12422 0.35584 0.0
H30 H 0.30871 0.15533 0.36102 0.0
H31 H 0.21792 0.22324 0.37178 0.0
O32 O 0.22007 0.97998 0.42454 0.0
C33 C 0.19675 0.12725 0.42175 0.0
Co34 Co 0.02647 0.75347 0.56881 0.0
Co35 Co 0.10952 0.76078 0.60109 0.0
C36 C 0.03542 0.83036 0.60022 0.0
O37 O 0.01333 0.80916 0.58543 0.0
O38 O 0.07313 0.81579 0.60738 0.0
C39 C 0.93544 0.75375 0.55189 0.0
O40 O 0.92568 0.77294 0.57087 0.0
C41 C 0.1483 0.7619 0.64531 0.0
C42 C 0.21905 0.742 0.63974 0.0
C43 C 0.18834 0.75217 0.6562 0.0
N44 N 0.1548 0.75689 0.62348 0.0
N45 N 0.19731 0.7456 0.62019 0.0
C46 C 0.10471 0.77743 0.65511 0.0
H47 H 0.07625 0.75836 0.64766 0.0
H48 H 0.10422 0.77403 0.67337 0.0
H49 H 0.09973 0.81371 0.65088 0.0
C50 C 0.01505 0.66657 0.59167 0.0
N51 N 0.03751 0.7055 0.58839 0.0
N52 N 0.07256 0.7073 0.60177 0.0
C53 C 0.07359 0.66882 0.61398 0.0
C54 C 0.03677 0.64222 0.60816 0.0
C55 C 0.97512 0.65212 0.57821 0.0
H56 H 0.98196 0.65804 0.56042 0.0
H57 H 0.94559 0.67296 0.58291 0.0
H58 H 0.96699 0.61576 0.58067 0.0
O59 O 0.07903 0.76318 0.54977 0.0
O60 O 0.13895 0.76918 0.57167 0.0
H61 H 0.1423 0.6664 0.62496 0.0
H62 H 0.10715 0.6223 0.63653 0.0
C63 C 0.10825 0.65829 0.63129 0.0
H64 H 0.10178 0.6793 0.64609 0.0
H65 H 0.21113 0.73911 0.60467 0.0
O66 O 0.97566 0.74125 0.54827 0.0
C67 C 0.12112 0.76897 0.55245 0.0
Co68 Co 0.76193 0.94781 0.40287 0.0
Co69 Co 0.76347 0.86353 0.37095 0.0
C70 C 0.83528 0.9365 0.37046 0.0
O71 O 0.81596 0.9597 0.38536 0.0
O72 O 0.81941 0.89859 0.36399 0.0
C73 C 0.76497 0.03917 0.41997 0.0
O74 O 0.7855 0.04882 0.40132 0.0
C75 C 0.75512 0.82501 0.32649 0.0
C76 C 0.73723 0.75367 0.33337 0.0
C77 C 0.74317 0.78449 0.31625 0.0
N78 N 0.75512 0.81853 0.34853 0.0
N79 N 0.7448 0.7757 0.35253 0.0
C80 C 0.76732 0.86912 0.31568 0.0
H81 H 0.78967 0.88935 0.32647 0.0
H82 H 0.73636 0.88926 0.31272 0.0
H83 H 0.78439 0.86325 0.29964 0.0
C84 C 0.6742 0.9614 0.38205 0.0
N85 N 0.7131 0.93866 0.38394 0.0
N86 N 0.71186 0.90243 0.37128 0.0
C87 C 0.67107 0.90052 0.36134 0.0
C88 C 0.64645 0.93827 0.36759 0.0
C89 C 0.66255 0.00256 0.39528 0.0
H90 H 0.66323 -0.0061 0.41315 0.0
H91 H 0.68813 0.02925 0.39228 0.0
H92 H 0.62883 0.01606 0.39084 0.0
O93 O 0.77086 0.89411 0.42185 0.0
O94 O 0.77236 0.83329 0.40024 0.0
H95 H 0.61663 0.86115 0.3473 0.0
H96 H 0.66716 0.86347 0.3311 0.0
C97 C 0.65397 0.86117 0.34818 0.0
H98 H 0.66571 0.82893 0.35569 0.0
H99 H 0.74196 0.76176 0.36835 0.0
O100 O 0.75138 -0.00108 0.42342 0.0
C101 C 0.77441 0.85144 0.41934 0.0
Co102 Co 0.93877 0.22005 0.56937 0.0
Co103 Co 0.85497 0.21499 0.60099 0.0
C104 C 0.92598 0.14284 0.60089 0.0
O105 O 0.94882 0.16369 0.58625 0.0
O106 O 0.88862 0.15831 0.60791 0.0
C107 C 0.03054 0.21701 0.55355 0.0
O108 O 0.03924 0.19672 0.57247 0.0
C109 C 0.80904 0.21359 0.64386 0.0
C110 C 0.74496 0.24803 0.63587 0.0
C111 C 0.76975 0.23 0.65326 0.0
N112 N 0.80761 0.22187 0.62198 0.0
N113 N 0.76881 0.2416 0.61725 0.0
C114 C 0.8497 0.19573 0.65572 0.0
H115 H 0.88047 0.20157 0.64575 0.0
H116 H 0.85364 0.21211 0.67212 0.0
H117 H 0.84561 0.15871 0.65833 0.0
C118 C 0.95257 0.30628 0.59218 0.0
N119 N 0.92895 0.2681 0.5888 0.0
N120 N 0.89422 0.26683 0.60227 0.0
C121 C 0.89487 0.30471 0.61481 0.0
C122 C 0.93215 0.33057 0.60895 0.0
C123 C -0.00783 0.32028 0.57847 0.0
H124 H -0.01507 0.31381 0.56076 0.0
H125 H 0.02184 0.29967 0.58336 0.0
H126 H 0.00031 0.35673 0.58051 0.0
O127 O 0.88699 0.21274 0.54957 0.0
O128 O 0.82675 0.2078 0.57108 0.0
H129 H 0.82701 0.31388 0.62573 0.0
H130 H 0.86761 0.34876 0.64019 0.0
C131 C 0.86161 0.31511 0.63263 0.0
H132 H 0.86445 0.28923 0.64585 0.0
H133 H 0.75961 0.25273 0.60146 0.0
O134 O -0.00921 0.23073 0.54958 0.0
C135 C 0.84476 0.208 0.55197 0.0
Co136 Co 0.25561 0.53437 0.90673 0.0
Co137 Co 0.25666 0.61662 0.87343 0.0
C138 C 0.32542 0.54088 0.87223 0.0
O139 O 0.30701 0.51938 0.88805 0.0
O140 O 0.31014 0.57883 0.86542 0.0
C141 C 0.25764 0.44401 0.92528 0.0
O142 O 0.27641 0.43306 0.90639 0.0
C143 C 0.24384 0.65236 0.82875 0.0
C144 C 0.24451 0.72648 0.83389 0.0
C145 C 0.24029 0.69353 0.81772 0.0
N146 N 0.24935 0.66057 0.85045 0.0
N147 N 0.24979 0.70495 0.85343 0.0
C148 C 0.24534 0.60599 0.81874 0.0
H149 H 0.25868 0.58087 0.83074 0.0
H150 H 0.21095 0.59524 0.81389 0.0
H151 H 0.26641 0.6064 0.80361 0.0
C152 C 0.16534 0.52291 0.8886 0.0
N153 N 0.20492 0.54473 0.88909 0.0
N154 N 0.2032 0.58047 0.87601 0.0
C155 C 0.16127 0.58321 0.86729 0.0
C156 C 0.13623 0.54665 0.87494 0.0
C157 C 0.15608 0.47972 0.90085 0.0
H158 H 0.18378 0.45544 0.89779 0.0
H159 H 0.124 0.46378 0.89553 0.0
H160 H 0.15481 0.48673 0.91886 0.0
O161 O 0.26906 0.58866 0.92453 0.0
O162 O 0.27036 0.64804 0.90181 0.0
H163 H 0.10719 0.62711 0.85687 0.0
H164 H 0.14856 0.61535 0.83617 0.0
C165 C 0.14379 0.62234 0.85401 0.0
H166 H 0.16199 0.6539 0.85838 0.0
H167 H 0.25388 0.72054 0.86879 0.0
O168 O 0.24537 0.48474 0.92844 0.0
C169 C 0.27401 0.63098 0.92114 0.0
Co170 Co 0.53869 0.72724 0.06504 0.0
Co171 Co 0.6154 0.7145 0.1005 0.0
C172 C 0.54396 0.64525 0.09498 0.0
O173 O 0.52681 0.66839 0.07927 0.0
O174 O 0.57842 0.65915 0.10561 0.0
C175 C 0.44766 0.72948 0.04927 0.0
O176 O 0.43875 0.71282 0.06897 0.0
C177 C 0.65835 0.70903 0.14437 0.0
C178 C 0.72344 0.74286 0.13796 0.0
C179 C 0.69733 0.72436 0.15466 0.0
N180 N 0.66121 0.71848 0.12263 0.0
N181 N 0.70064 0.73774 0.11885 0.0
C182 C 0.61686 0.69095 0.1553 0.0
H183 H 0.5868 0.69701 0.14475 0.0
H184 H 0.6119 0.70695 0.1717 0.0
H185 H 0.62071 0.65388 0.15782 0.0
C186 C 0.52396 0.81112 0.08974 0.0
N187 N 0.54657 0.7724 0.08633 0.0
N188 N 0.57849 0.76797 0.10136 0.0
C189 C 0.57693 0.80424 0.11497 0.0
C190 C 0.54196 0.83232 0.10816 0.0
C191 C 0.48769 0.82868 0.07473 0.0
H192 H 0.49654 0.82177 0.05726 0.0
H193 H 0.45567 0.81096 0.07854 0.0
H194 H 0.48268 0.86569 0.07675 0.0
O195 O 0.59237 0.72136 0.04682 0.0
O196 O 0.64654 0.707 0.07125 0.0
H197 H 0.64267 0.80933 0.12939 0.0
H198 H 0.60079 0.844 0.14283 0.0
C199 C 0.60699 0.81108 0.1346 0.0
H200 H 0.60071 0.78379 0.14681 0.0
H201 H 0.71094 0.74963 0.10339 0.0
O202 O 0.48802 0.73983 0.04453 0.0
C203 C 0.63307 0.71168 0.05131 0.0
Co204 Co 0.70525 0.44046 0.90528 0.0
Co205 Co 0.705 0.35972 0.87116 0.0
C206 C 0.63275 0.43187 0.87177 0.0
O207 O 0.65153 0.45354 0.88746 0.0
O208 O 0.64923 0.39503 0.86441 0.0
C209 C 0.70414 0.53128 0.92284 0.0
O210 O 0.68698 0.54198 0.90345 0.0
C211 C 0.71296 0.32362 0.82603 0.0
C212 C 0.73174 0.25226 0.83222 0.0
C213 C 0.72467 0.28351 0.81537 0.0
N214 N 0.71402 0.3164 0.84802 0.0
N215 N 0.72497 0.27359 0.85159 0.0
C216 C 0.69979 0.3679 0.81567 0.0
H217 H 0.67913 0.38827 0.82706 0.0
H218 H 0.73052 0.3878 0.81185 0.0
H219 H 0.68065 0.36222 0.80012 0.0
C220 C 0.79426 0.45566 0.8862 0.0
N221 N 0.75509 0.43301 0.88686 0.0
N222 N 0.75655 0.39861 0.87304 0.0
C223 C 0.79753 0.39805 0.86338 0.0
C224 C 0.82234 0.43445 0.8713 0.0
C225 C 0.80518 0.49585 0.90032 0.0
H226 H 0.80251 0.48624 0.91803 0.0
H227 H 0.78046 0.5231 0.89689 0.0
H228 H 0.83942 0.50927 0.89703 0.0
O229 O 0.69539 0.38513 0.92299 0.0
O230 O 0.69467 0.32695 0.89968 0.0
H231 H 0.80386 0.32763 0.85529 0.0
H232 H 0.8516 0.36208 0.84722 0.0
C233 C 0.81437 0.36109 0.84868 0.0
H234 H 0.79961 0.36534 0.83194 0.0
H235 H 0.7285 0.2591 0.86728 0.0
O236 O 0.71483 0.49033 0.92677 0.0
C237 C 0.6917 0.34285 0.91922 0.0
Co238 Co 0.43536 0.2453 0.06547 0.0
Co239 Co 0.362 0.26116 0.1021 0.0
C240 C 0.4366 0.32705 0.09507 0.0
O241 O 0.45158 0.30325 0.07922 0.0
O242 O 0.40219 0.31469 0.10608 0.0
C243 C 0.52463 0.24002 0.04819 0.0
O244 O 0.53533 0.25574 0.06784 0.0
C245 C 0.32883 0.26724 0.14741 0.0
C246 C 0.25716 0.24835 0.14382 0.0
C247 C 0.2898 0.25917 0.15938 0.0
N248 N 0.31983 0.26064 0.12586 0.0
N249 N 0.27679 0.24998 0.12377 0.0
C250 C 0.37366 0.2829 0.1559 0.0
H251 H 0.40101 0.26296 0.14814 0.0
H252 H 0.37611 0.2809 0.17417 0.0
H253 H 0.37861 0.31877 0.15088 0.0
C254 C 0.44863 0.16094 0.09031 0.0
N255 N 0.42735 0.20054 0.0871 0.0
N256 N 0.39619 0.20583 0.10233 0.0
C257 C 0.39658 0.16898 0.11571 0.0
C258 C 0.43035 0.13989 0.10869 0.0
C259 C 0.48399 0.14255 0.07519 0.0
H260 H 0.4744 0.14918 0.05774 0.0
H261 H 0.51637 0.16 0.07859 0.0
H262 H 0.48868 0.10553 0.0775 0.0
O263 O 0.37993 0.25374 0.04842 0.0
O264 O 0.32795 0.26963 0.0736 0.0
H265 H 0.33097 0.17059 0.13038 0.0
H266 H 0.36725 0.12672 0.14133 0.0
C267 C 0.36606 0.16206 0.13509 0.0
H268 H 0.37675 0.18464 0.14873 0.0
H269 H 0.26114 0.2425 0.10873 0.0
O270 O 0.48367 0.23086 0.04397 0.0
C271 C 0.33985 0.26453 0.05349 0.0
H272 H 0.58195 0.91572 0.39659 0.0
H273 H 0.37958 0.04107 0.33507 0.0
H274 H 0.60293 0.98118 0.33367 0.0
H275 H 0.39073 0.02467 0.40577 0.0
H276 H 0.45688 0.01141 0.33121 0.0
H277 H 0.50433 0.9431 0.39666 0.0
C278 C 0.56956 0.93502 0.38254 0.0
C279 C 0.59808 0.94618 0.36505 0.0
C280 C 0.4423 0.01468 0.34752 0.0
C281 C 0.51041 0.97865 0.36521 0.0
C282 C 0.39861 0.03181 0.34972 0.0
C283 C 0.37899 0.03442 0.37073 0.0
C284 C 0.46564 -7e-05 0.36648 0.0
C285 C 0.40458 0.02219 0.38927 0.0
C286 C 0.52566 0.95111 0.38268 0.0
C287 C 0.58128 0.97178 0.34731 0.0
N288 N 0.44639 0.00495 0.3867 0.0
N289 N 0.53825 0.98753 0.34785 0.0
H290 H 0.01492 0.35425 0.62437 0.0
H291 H 0.95584 0.61813 0.62528 0.0
H292 H 0.88216 0.40778 0.61201 0.0
H293 H 0.08696 0.56485 0.60961 0.0
H294 H 0.92945 0.54085 0.63294 0.0
H295 H 0.04213 0.43139 0.63153 0.0
C296 C -0.00862 0.38227 0.62365 0.0
C297 C 0.94645 0.37507 0.61744 0.0
C298 C 0.96425 0.54624 0.62829 0.0
C299 C 0.977 0.46266 0.62565 0.0
C300 C 0.97926 0.59012 0.62396 0.0
C301 C 0.02345 0.59746 0.61675 0.0
C302 C -0.00617 0.50969 0.62547 0.0
C303 C 0.05273 0.56043 0.61533 0.0
C304 C 0.00686 0.42607 0.62771 0.0
C305 C 0.91702 0.4121 0.61687 0.0
N306 N 0.03725 0.51792 0.61945 0.0
N307 N 0.93294 0.45454 0.6207 0.0
H308 H 0.88646 0.42185 0.90213 0.0
H309 H 0.08986 0.53285 0.83622 0.0
H310 H 0.8663 0.46949 0.8354 0.0
H311 H 0.0741 0.53777 0.90702 0.0
H312 H 0.01268 0.50212 0.83302 0.0
H313 H 0.96314 0.45164 0.90143 0.0
C314 C 0.8988 0.43786 0.88717 0.0
C315 C 0.8706 0.44356 0.86883 0.0
C316 C 0.02615 0.51047 0.84917 0.0
C317 C 0.9574 0.47859 0.86799 0.0
C318 C 0.06975 0.52823 0.85098 0.0
C319 C 0.08804 0.53705 0.87193 0.0
C320 C 0.00162 0.5013 0.86851 0.0
C321 C 0.06116 0.53064 0.89062 0.0
C322 C 0.94218 0.45531 0.88683 0.0
C323 C 0.88757 0.46458 0.84979 0.0
N324 N 0.01952 0.51255 0.8885 0.0
N325 N 0.93014 0.4818 0.84986 0.0
H326 H 0.37869 0.0644 0.11473 0.0
H327 H 0.59297 0.90764 0.11569 0.0
H328 H 0.51375 0.11551 0.12257 0.0
H329 H 0.45763 0.85599 0.12084 0.0
H330 H 0.56509 0.98357 0.12427 0.0
H331 H 0.40604 0.98794 0.123 0.0
C332 C 0.41389 0.05955 0.11885 0.0
C333 C 0.44418 0.09585 0.11793 0.0
C334 C 0.54153 0.95554 0.12401 0.0
C335 C 0.476 0.00883 0.12667 0.0
C336 C 0.55754 0.91223 0.11924 0.0
C337 C 0.52738 0.87596 0.11744 0.0
C338 C 0.49499 0.96246 0.12657 0.0
C339 C 0.48173 0.88349 0.12186 0.0
C340 C 0.42961 0.01596 0.12343 0.0
C341 C 0.48957 0.08801 0.12298 0.0
N342 N 0.46673 0.92611 0.12586 0.0
N343 N 0.50431 0.04517 0.12679 0.0
H344 H 0.07276 0.09745 0.35353 0.0
H345 H 0.90333 0.88707 0.35188 0.0
H346 H 0.11271 0.95864 0.36481 0.0
H347 H 0.86529 0.02377 0.3689 0.0
H348 H 0.97926 0.91438 0.34312 0.0
H349 H -0.00396 0.07123 0.34541 0.0
C350 C 0.06567 0.06141 0.35371 0.0
C351 C 0.0987 0.03016 0.36026 0.0
C352 C 0.95392 0.93842 0.34837 0.0
C353 C 0.01167 0.00018 0.35098 0.0
C354 C 0.91068 0.92292 0.35333 0.0
C355 C 0.87841 0.9531 0.36157 0.0
C356 C 0.96453 0.9844 0.35141 0.0
C357 C 0.88955 -0.00075 0.36303 0.0
C358 C 0.02195 0.04654 0.34919 0.0
C359 C 0.08786 0.98385 0.36023 0.0
N360 N 0.93186 0.01345 0.35821 0.0
N361 N 0.04509 0.97025 0.35592 0.0
H362 H 0.87556 0.07187 0.61631 0.0
H363 H 0.08358 0.90035 0.61818 0.0
H364 H 0.01239 0.11184 0.60228 0.0
H365 H 0.94874 0.86121 0.59928 0.0
H366 H 0.05647 0.97751 0.625 0.0
H367 H 0.90169 -0.00601 0.62269 0.0
C368 C 0.91118 0.06447 0.61505 0.0
C369 C 0.94184 0.09805 0.60844 0.0
C370 C 0.0328 0.95172 0.61972 0.0
C371 C 0.97172 0.0097 0.61591 0.0
C372 C 0.04814 0.90774 0.6159 0.0
C373 C 0.01845 0.87462 0.60781 0.0
C374 C -0.0126 0.96227 0.61578 0.0
C375 C 0.97286 0.88599 0.60517 0.0
C376 C 0.92597 0.02011 0.6186 0.0
C377 C -0.01239 0.08671 0.60703 0.0
N378 N 0.95874 0.92901 0.60901 0.0
N379 N 0.00117 0.04336 0.6106 0.0
H380 H 0.56837 0.38422 0.84894 0.0
H381 H 0.35115 0.45255 0.86975 0.0
H382 H 0.59773 0.51704 0.87518 0.0
H383 H 0.39608 0.58832 0.85478 0.0
H384 H 0.42642 0.42429 0.86169 0.0
H385 H 0.49144 0.40924 0.84071 0.0
C386 C 0.55885 0.41879 0.85268 0.0
C387 C 0.58906 0.44829 0.86328 0.0
C388 C 0.41956 0.46004 0.85941 0.0
C389 C 0.50142 0.47678 0.85415 0.0
C390 C 0.37668 0.47624 0.86422 0.0
C391 C 0.36764 0.52284 0.86311 0.0
C392 C 0.45381 0.49084 0.85387 0.0
C393 C 0.40178 0.55213 0.85584 0.0
C394 C 0.5149 0.43289 0.84814 0.0
C395 C 0.57515 0.49289 0.86749 0.0
N396 N 0.44382 0.53576 0.85205 0.0
N397 N 0.53217 0.50567 0.86308 0.0
H398 H 0.4967 0.37095 0.06879 0.0
H399 H 0.55621 0.58999 0.13151 0.0
H400 H 0.42329 0.38585 0.12997 0.0
H401 H 0.49122 0.59558 0.06747 0.0
H402 H 0.53116 0.51039 0.13525 0.0
H403 H 0.52286 0.44887 0.07225 0.0
C404 C 0.48665 0.39022 0.08318 0.0
C405 C 0.45721 0.37196 0.099 0.0
C406 C 0.52216 0.52966 0.12061 0.0
C407 C 0.48784 0.46082 0.10304 0.0
C408 C 0.53642 0.57473 0.1184 0.0
C409 C 0.52593 0.59934 0.09911 0.0
C410 C 0.49852 0.50932 0.10316 0.0
C411 C 0.50012 0.57806 0.08263 0.0
C412 C 0.50159 0.43464 0.08505 0.0
C413 C 0.44556 0.39882 0.1173 0.0
N414 N 0.48802 0.53405 0.08487 0.0
N415 N 0.46081 0.44231 0.11882 0.0
H416 H 0.34286 0.21163 0.18807 0.0
H417 H 0.19522 0.26781 0.29509 0.0
H418 H 0.22287 0.29355 0.18516 0.0
H419 H 0.29288 0.15995 0.29239 0.0
H420 H 0.21009 0.2848 0.25599 0.0
H421 H 0.3305 0.19962 0.22763 0.0
C422 C 0.31444 0.22793 0.19592 0.0
C423 C 0.28444 0.25459 0.18355 0.0
C424 C 0.22802 0.25724 0.26395 0.0
C425 C 0.2693 0.23996 0.22863 0.0
C426 C 0.21964 0.24762 0.28622 0.0
C427 C 0.24206 0.21172 0.29678 0.0
C428 C 0.25972 0.23128 0.25234 0.0
C429 C 0.27371 0.18687 0.28468 0.0
C430 C 0.30706 0.2206 0.21842 0.0
C431 C 0.24705 0.27327 0.19427 0.0
N432 N 0.28165 0.19716 0.26312 0.0
N433 N 0.24059 0.26578 0.21626 0.0
H434 H 0.18162 0.65012 0.78994 0.0
H435 H 0.25735 0.78538 0.68134 0.0
H436 H 0.28049 0.7572 0.79155 0.0
H437 H 0.13804 0.70246 0.68498 0.0
H438 H 0.27077 0.77167 0.72097 0.0
H439 H 0.16964 0.66462 0.7506 0.0
C440 C 0.20142 0.67614 0.78191 0.0
C441 C 0.23288 0.70178 0.79386 0.0
C442 C 0.24142 0.75687 0.71313 0.0
C443 C 0.21854 0.71945 0.74891 0.0
C444 C 0.23383 0.76467 0.69059 0.0
C445 C 0.19594 0.74599 0.68015 0.0
C446 C 0.21138 0.72937 0.72509 0.0
C447 C 0.16685 0.71866 0.69263 0.0
C448 C 0.19414 0.68486 0.7595 0.0
C449 C 0.25614 0.73649 0.78282 0.0
N450 N 0.17521 0.71112 0.71443 0.0
N451 N 0.24874 0.74417 0.7609 0.0
H452 H 0.71157 0.84218 0.28366 0.0
H453 H 0.68807 0.66164 0.18804 0.0
H454 H 0.75406 0.70398 0.29458 0.0
H455 H 0.7247 0.80081 0.17543 0.0
H456 H 0.69936 0.67476 0.22794 0.0
H457 H 0.70283 0.8261 0.24448 0.0
C458 C 0.72031 0.80877 0.27785 0.0
C459 C 0.73588 0.77503 0.29239 0.0
C460 C 0.70506 0.70223 0.21635 0.0
C461 C 0.72294 0.75567 0.24754 0.0
C462 C 0.69847 0.69485 0.19371 0.0
C463 C 0.70545 0.73027 0.17857 0.0
C464 C 0.71762 0.74554 0.22375 0.0
C465 C 0.71922 0.7726 0.18661 0.0
C466 C 0.71457 0.79945 0.25544 0.0
C467 C 0.74289 0.73128 0.28389 0.0
N468 N 0.72437 0.77922 0.20868 0.0
N469 N 0.73637 0.72277 0.26198 0.0
H470 H 0.71411 0.20278 0.7939 0.0
H471 H 0.74004 0.30651 0.67319 0.0
H472 H 0.75116 0.3423 0.78207 0.0
H473 H 0.7772 0.16799 0.68704 0.0
H474 H 0.72795 0.31873 0.71277 0.0
H475 H 0.72358 0.18765 0.75427 0.0
C476 C 0.72367 0.23038 0.78302 0.0
C477 C 0.73007 0.27438 0.79135 0.0
C478 C 0.73866 0.28565 0.70713 0.0
C479 C 0.74057 0.25725 0.74613 0.0
C480 C 0.74525 0.27857 0.68459 0.0
C481 C 0.75996 0.23631 0.67697 0.0
C482 C 0.7459 0.24992 0.72209 0.0
C483 C 0.76639 0.20123 0.69239 0.0
C484 C 0.72907 0.22164 0.76046 0.0
C485 C 0.74321 0.30855 0.77648 0.0
N486 N 0.75914 0.20873 0.7143 0.0
N487 N 0.74756 0.29936 0.7546 0.0
H488 H 0.10627 0.74163 0.51017 0.0
H489 H 0.24674 0.9466 0.4614 0.0
H490 H 0.19578 0.82361 0.54972 0.0
H491 H 0.16522 0.85638 0.42186 0.0
H492 H 0.23924 0.89462 0.49271 0.0
H493 H 0.13862 0.77446 0.47679 0.0
C494 C 0.13345 0.76596 0.51179 0.0
C495 C 0.14794 0.78048 0.53271 0.0
C496 C 0.22357 0.88583 0.47709 0.0
C497 C 0.18445 0.81911 0.49454 0.0
C498 C 0.22776 0.91556 0.45919 0.0
C499 C 0.20578 0.90628 0.43909 0.0
C500 C 0.19696 0.84671 0.47491 0.0
C501 C 0.18219 0.86527 0.43712 0.0
C502 C 0.15188 0.78479 0.49271 0.0
C503 C 0.18353 0.81167 0.53388 0.0
N504 N 0.17785 0.83736 0.4549 0.0
N505 N 0.19996 0.83073 0.51503 0.0
H506 H 0.74929 0.86782 0.46174 0.0
H507 H 0.94387 0.71549 0.51082 0.0
H508 H 0.82452 0.7734 0.42203 0.0
H509 H 0.85146 0.79203 0.55105 0.0
H510 H 0.89463 0.72752 0.47887 0.0
H511 H 0.77921 0.83209 0.49508 0.0
C512 C 0.77157 0.83897 0.46007 0.0
C513 C 0.78496 0.82389 0.43912 0.0
C514 C 0.88471 0.74102 0.49477 0.0
C515 C 0.82022 0.78334 0.47726 0.0
C516 C 0.91286 0.73422 0.51304 0.0
C517 C 0.90222 0.75356 0.53357 0.0
C518 C 0.84589 0.76774 0.49699 0.0
C519 C 0.86135 0.777 0.5355 0.0
C520 C 0.78867 0.81853 0.47913 0.0
C521 C 0.81351 0.78613 0.43789 0.0
N522 N 0.83508 0.78407 0.51736 0.0
N523 N 0.83098 0.76769 0.45673 0.0
H524 H 0.72291 0.03105 0.46008 0.0
H525 H 0.85995 0.23658 0.50988 0.0
H526 H 0.80115 0.1246 0.4208 0.0
H527 H 0.76987 0.15392 0.54868 0.0
H528 H 0.82794 0.20449 0.47622 0.0
H529 H 0.72919 0.08256 0.4915 0.0
C530 C 0.74091 0.06272 0.45796 0.0
C531 C 0.76235 0.0731 0.43789 0.0
C532 C 0.81445 0.19389 0.49203 0.0
C533 C 0.76981 0.13213 0.47386 0.0
C534 C 0.83268 0.21231 0.51127 0.0
C535 C 0.81794 0.19735 0.53207 0.0
C536 C 0.78188 0.1595 0.49358 0.0
C537 C 0.78228 0.1662 0.53295 0.0
C538 C 0.74437 0.09219 0.47591 0.0
C539 C 0.78463 0.11488 0.43603 0.0
N540 N 0.76609 0.1475 0.51395 0.0
N541 N 0.78837 0.14251 0.45388 0.0
H542 H 0.21928 0.10713 0.46421 0.0
H543 H 0.02449 0.25842 0.51299 0.0
H544 H 0.14654 0.20515 0.42491 0.0
H545 H 0.11357 0.17665 0.55315 0.0
H546 H 0.07473 0.24786 0.48152 0.0
H547 H 0.18799 0.14035 0.49763 0.0
C548 C 0.1972 0.13621 0.46267 0.0
C549 C 0.18495 0.15307 0.44178 0.0
C550 C 0.0837 0.23285 0.4973 0.0
C551 C 0.14817 0.1908 0.48 0.0
C552 C 0.05497 0.2388 0.5153 0.0
C553 C 0.06439 0.21763 0.53565 0.0
C554 C 0.12187 0.20517 0.49961 0.0
C555 C 0.10463 0.19312 0.53772 0.0
C556 C 0.17934 0.15522 0.48177 0.0
C557 C 0.15667 0.19107 0.44072 0.0
N558 N 0.13149 0.18696 0.51983 0.0
N559 N 0.13845 0.20814 0.45958 0.0
H560 H 0.339 0.23201 0.01143 0.0
H561 H 0.22277 0.45595 0.96682 0.0
H562 H 0.27327 0.32884 0.05374 0.0
H563 H 0.2851 0.35543 0.92519 0.0
H564 H 0.22752 0.40329 -0.00198 0.0
H565 H 0.30493 0.26856 0.97927 0.0
C566 C 0.31644 0.26036 0.01396 0.0
C567 C 0.30949 0.2779 0.03522 0.0
C568 C 0.23955 0.39249 0.98199 0.0
C569 C 0.27137 0.32082 -0.00158 0.0
C570 C 0.23695 0.42259 0.96415 0.0
C571 C 0.25443 0.41042 0.94344 0.0
C572 C 0.26 0.35 0.97913 0.0
C573 C 0.27184 0.36656 0.94092 0.0
C574 C 0.29713 0.28138 -0.00442 0.0
C575 C 0.27966 0.3144 0.03761 0.0
N576 N 0.27475 0.33821 0.95862 0.0
N577 N 0.26248 0.33536 0.01936 0.0
H578 H 0.32482 0.70884 0.92073 0.0
H579 H 0.36134 0.69722 0.05169 0.0
H580 H 0.25542 0.61696 0.96462 0.0
H581 H 0.45454 0.76159 0.00679 0.0
H582 H 0.30928 0.68547 0.02086 0.0
H583 H 0.35929 0.7456 0.95305 0.0
C584 C 0.31602 0.69714 0.93717 0.0
C585 C 0.28785 0.65938 0.94005 0.0
C586 C 0.34087 0.70275 0.01783 0.0
C587 C 0.32697 0.70101 0.97688 0.0
C588 C 0.37058 0.70957 0.03543 0.0
C589 C 0.41278 0.72956 0.03173 0.0
C590 C 0.3534 0.71601 -0.00363 0.0
C591 C 0.42267 0.74531 0.01033 0.0
C592 C 0.33586 0.71792 0.95556 0.0
C593 C 0.27758 0.64551 0.96167 0.0
N594 N 0.39345 0.73765 -0.00662 0.0
N595 N 0.29744 0.66603 0.97924 0.0
H596 H 0.70307 0.65112 0.05151 0.0
H597 H 0.68022 0.62087 0.92101 0.0
H598 H 0.62789 0.74051 0.00854 0.0
H599 H 0.73769 0.5204 0.96484 0.0
H600 H 0.67841 0.67449 0.9517 0.0
H601 H 0.73438 0.61374 0.01886 0.0
C602 C 0.6943 0.66385 0.03523 0.0
C603 C 0.66222 0.69838 0.03269 0.0
C604 C 0.69195 0.64089 0.95454 0.0
C605 C 0.69719 0.65544 -0.00462 0.0
C606 C 0.69294 0.61021 0.93702 0.0
C607 C 0.70823 0.56576 0.94046 0.0
C608 C 0.70619 0.627 0.9757 0.0
C609 C 0.72488 0.5541 0.96151 0.0
C610 C 0.71183 0.64223 0.01659 0.0
C611 C 0.65194 0.71345 0.01121 0.0
N612 N 0.72285 0.58433 0.9784 0.0
N613 N 0.66879 0.69144 -0.00661 0.0
H614 H 0.64049 0.26535 0.91848 0.0
H615 H 0.61205 0.26928 0.04991 0.0
H616 H 0.71355 0.35377 0.9626 0.0
H617 H 0.51391 0.21133 0.00531 0.0
H618 H 0.6624 0.28174 0.01864 0.0
H619 H 0.60724 0.22727 0.95074 0.0
C620 C 0.65044 0.27592 0.93494 0.0
C621 C 0.67928 0.31313 0.93793 0.0
C622 C 0.6301 0.26569 0.01575 0.0
C623 C 0.64149 0.27004 0.9747 0.0
C624 C 0.60133 0.25845 0.03361 0.0
C625 C 0.55829 0.24007 0.03017 0.0
C626 C 0.6158 0.25442 -0.00572 0.0
C627 C 0.54652 0.22628 0.00868 0.0
C628 C 0.63125 0.25443 0.95331 0.0
C629 C 0.69093 0.32563 0.95958 0.0
N630 N 0.57488 0.23429 -0.00852 0.0
N631 N 0.67169 0.30443 0.97712 0.0
loop_
_geom_bond_atom_site_label_1
_geom_bond_atom_site_label_2
_geom_bond_distance
_geom_bond_site_symmetry_2
_ccdc_geom_bond_type
Co0 O3 1.970 . S
Co0 N17 1.989 . S
Co0 O25 1.967 . S
Co0 O32 1.920 . S
Co1 O4 1.966 . S
Co1 N10 2.022 . S
Co1 N18 1.993 . S
Co1 O26 1.941 . S
C2 O3 1.258 . S
C2 O4 1.263 . S
O3 Co0 1.970 . S
O3 C2 1.258 . S
O4 Co1 1.966 . S
O4 C2 1.263 . S
C5 O6 1.235 . S
C5 O32 1.289 1_565 S
O6 C5 1.235 . S
C7 C9 1.400 . S
C7 N10 1.351 . S
C7 C12 1.501 . S
C8 C9 1.387 . S
C8 N11 1.341 . S
C9 C7 1.400 . S
C9 C8 1.387 . S
N10 Co1 2.022 . S
N10 C7 1.351 . S
N10 N11 1.365 . S
N11 C8 1.341 . S
N11 N10 1.365 . S
N11 H31 0.862 . S
C12 C7 1.501 . S
C12 H13 0.961 . S
C12 H14 0.961 . S
C12 H15 0.960 . S
H13 C12 0.961 . S
H14 C12 0.961 . S
H15 C12 0.960 . S
C16 N17 1.342 . S
C16 C20 1.401 . S
C16 C21 1.499 . S
N17 Co0 1.989 . S
N17 C16 1.342 . S
N17 N18 1.388 . S
N18 Co1 1.993 . S
N18 N17 1.388 . S
N18 C19 1.346 . S
C19 N18 1.346 . S
C19 C20 1.396 . S
C19 C29 1.510 . S
C20 C16 1.401 . S
C20 C19 1.396 . S
C21 C16 1.499 . S
C21 H22 0.959 . S
C21 H23 0.960 1_545 S
C21 H24 0.961 . S
H22 C21 0.959 . S
H23 C21 0.960 1_565 S
H24 C21 0.961 . S
O25 Co0 1.967 . S
O25 C33 1.258 . S
O26 Co1 1.941 . S
O26 C33 1.266 . S
H27 C29 0.959 . S
H28 C29 0.961 . S
C29 C19 1.510 . S
C29 H27 0.959 . S
C29 H28 0.961 . S
C29 H30 0.960 . S
H30 C29 0.960 . S
H31 N11 0.862 . S
O32 Co0 1.920 . S
O32 C5 1.289 1_545 S
C33 O25 1.258 . S
C33 O26 1.266 . S
Co34 O37 1.970 . S
Co34 N51 1.989 . S
Co34 O59 1.967 . S
Co34 O66 1.920 . S
Co35 O38 1.966 . S
Co35 N44 2.022 . S
Co35 N52 1.993 . S
Co35 O60 1.941 . S
C36 O37 1.258 . S
C36 O38 1.263 . S
O37 Co34 1.970 . S
O37 C36 1.258 . S
O38 Co35 1.966 . S
O38 C36 1.263 . S
C39 O40 1.235 . S
C39 O66 1.289 1_655 S
O40 C39 1.235 . S
C41 C43 1.400 . S
C41 N44 1.351 . S
C41 C46 1.501 . S
C42 C43 1.387 . S
C42 N45 1.341 . S
C43 C41 1.400 . S
C43 C42 1.387 . S
N44 Co35 2.022 . S
N44 C41 1.351 . S
N44 N45 1.365 . S
N45 C42 1.341 . S
N45 N44 1.365 . S
N45 H65 0.862 . S
C46 C41 1.501 . S
C46 H47 0.961 . S
C46 H48 0.961 . S
C46 H49 0.960 . S
H47 C46 0.961 . S
H48 C46 0.961 . S
H49 C46 0.960 . S
C50 N51 1.342 . S
C50 C54 1.401 . S
C50 C55 1.499 . S
N51 Co34 1.989 . S
N51 C50 1.342 . S
N51 N52 1.388 . S
N52 Co35 1.993 . S
N52 N51 1.388 . S
N52 C53 1.346 . S
C53 N52 1.346 . S
C53 C54 1.396 . S
C53 C63 1.510 . S
C54 C50 1.401 . S
C54 C53 1.396 . S
C55 C50 1.499 . S
C55 H56 0.959 . S
C55 H57 0.960 1_455 S
C55 H58 0.961 . S
H56 C55 0.959 . S
H57 C55 0.960 1_655 S
H58 C55 0.961 . S
O59 Co34 1.967 . S
O59 C67 1.258 . S
O60 Co35 1.941 . S
O60 C67 1.266 . S
H61 C63 0.959 . S
H62 C63 0.961 . S
C63 C53 1.510 . S
C63 H61 0.959 . S
C63 H62 0.961 . S
C63 H64 0.960 . S
H64 C63 0.960 . S
H65 N45 0.862 . S
O66 Co34 1.920 . S
O66 C39 1.289 1_455 S
C67 O59 1.258 . S
C67 O60 1.266 . S
Co68 O71 1.970 . S
Co68 N85 1.989 . S
Co68 O93 1.967 . S
Co68 O100 1.920 . S
Co69 O72 1.966 . S
Co69 N78 2.022 . S
Co69 N86 1.993 . S
Co69 O94 1.941 . S
C70 O71 1.258 . S
C70 O72 1.263 . S
O71 Co68 1.970 . S
O71 C70 1.258 . S
O72 Co69 1.966 . S
O72 C70 1.263 . S
C73 O74 1.235 . S
C73 O100 1.289 1_545 S
O74 C73 1.235 . S
C75 C77 1.400 . S
C75 N78 1.351 . S
C75 C80 1.501 . S
C76 C77 1.387 . S
C76 N79 1.341 . S
C77 C75 1.400 . S
C77 C76 1.387 . S
N78 Co69 2.022 . S
N78 C75 1.351 . S
N78 N79 1.365 . S
N79 C76 1.341 . S
N79 N78 1.365 . S
N79 H99 0.862 . S
C80 C75 1.501 . S
C80 H81 0.961 . S
C80 H82 0.961 . S
C80 H83 0.960 . S
H81 C80 0.961 . S
H82 C80 0.961 . S
H83 C80 0.960 . S
C84 N85 1.342 . S
C84 C88 1.401 . S
C84 C89 1.499 . S
N85 Co68 1.989 . S
N85 C84 1.342 . S
N85 N86 1.388 . S
N86 Co69 1.993 . S
N86 N85 1.388 . S
N86 C87 1.346 . S
C87 N86 1.346 . S
C87 C88 1.396 . S
C87 C97 1.510 . S
C88 C84 1.401 . S
C88 C87 1.396 . S
C89 C84 1.499 . S
C89 H90 0.959 . S
C89 H91 0.960 1_565 S
C89 H92 0.961 . S
H90 C89 0.959 . S
H91 C89 0.960 1_545 S
H92 C89 0.961 . S
O93 Co68 1.967 . S
O93 C101 1.258 . S
O94 Co69 1.941 . S
O94 C101 1.266 . S
H95 C97 0.959 . S
H96 C97 0.961 . S
C97 C87 1.510 . S
C97 H95 0.959 . S
C97 H96 0.961 . S
C97 H98 0.960 . S
H98 C97 0.960 . S
H99 N79 0.862 . S
O100 Co68 1.920 . S
O100 C73 1.289 1_565 S
C101 O93 1.258 . S
C101 O94 1.266 . S
Co102 O105 1.970 . S
Co102 N119 1.989 . S
Co102 O127 1.967 . S
Co102 O134 1.920 . S
Co103 O106 1.966 . S
Co103 N112 2.022 . S
Co103 N120 1.993 . S
Co103 O128 1.941 . S
C104 O105 1.258 . S
C104 O106 1.263 . S
O105 Co102 1.970 . S
O105 C104 1.258 . S
O106 Co103 1.966 . S
O106 C104 1.263 . S
C107 O108 1.235 . S
C107 O134 1.289 1_455 S
O108 C107 1.235 . S
C109 C111 1.400 . S
C109 N112 1.351 . S
C109 C114 1.501 . S
C110 C111 1.387 . S
C110 N113 1.341 . S
C111 C109 1.400 . S
C111 C110 1.387 . S
N112 Co103 2.022 . S
N112 C109 1.351 . S
N112 N113 1.365 . S
N113 C110 1.341 . S
N113 N112 1.365 . S
N113 H133 0.862 . S
C114 C109 1.501 . S
C114 H115 0.961 . S
C114 H116 0.961 . S
C114 H117 0.960 . S
H115 C114 0.961 . S
H116 C114 0.961 . S
H117 C114 0.960 . S
C118 N119 1.342 . S
C118 C122 1.401 . S
C118 C123 1.499 . S
N119 Co102 1.989 . S
N119 C118 1.342 . S
N119 N120 1.388 . S
N120 Co103 1.993 . S
N120 N119 1.388 . S
N120 C121 1.346 . S
C121 N120 1.346 . S
C121 C122 1.396 . S
C121 C131 1.510 . S
C122 C118 1.401 . S
C122 C121 1.396 . S
C123 C118 1.499 . S
C123 H124 0.959 . S
C123 H125 0.960 1_655 S
C123 H126 0.961 . S
H124 C123 0.959 . S
H125 C123 0.960 1_455 S
H126 C123 0.961 . S
O127 Co102 1.967 . S
O127 C135 1.258 . S
O128 Co103 1.941 . S
O128 C135 1.266 . S
H129 C131 0.959 . S
H130 C131 0.961 . S
C131 C121 1.510 . S
C131 H129 0.959 . S
C131 H130 0.961 . S
C131 H132 0.960 . S
H132 C131 0.960 . S
H133 N113 0.862 . S
O134 Co102 1.920 . S
O134 C107 1.289 1_655 S
C135 O127 1.258 . S
C135 O128 1.266 . S
Co136 O139 1.970 . S
Co136 N153 1.989 . S
Co136 O161 1.967 . S
Co136 O168 1.920 . S
Co137 O140 1.966 . S
Co137 N146 2.022 . S
Co137 N154 1.993 . S
Co137 O162 1.941 . S
C138 O139 1.258 . S
C138 O140 1.263 . S
O139 Co136 1.970 . S
O139 C138 1.258 . S
O140 Co137 1.966 . S
O140 C138 1.263 . S
C141 O142 1.235 . S
C141 O168 1.289 . S
O142 C141 1.235 . S
C143 C145 1.400 . S
C143 N146 1.351 . S
C143 C148 1.501 . S
C144 C145 1.387 . S
C144 N147 1.341 . S
C145 C143 1.400 . S
C145 C144 1.387 . S
N146 Co137 2.022 . S
N146 C143 1.351 . S
N146 N147 1.365 . S
N147 C144 1.341 . S
N147 N146 1.365 . S
N147 H167 0.862 . S
C148 C143 1.501 . S
C148 H149 0.961 . S
C148 H150 0.961 . S
C148 H151 0.960 . S
H149 C148 0.961 . S
H150 C148 0.961 . S
H151 C148 0.960 . S
C152 N153 1.342 . S
C152 C156 1.401 . S
C152 C157 1.499 . S
N153 Co136 1.989 . S
N153 C152 1.342 . S
N153 N154 1.388 . S
N154 Co137 1.993 . S
N154 N153 1.388 . S
N154 C155 1.346 . S
C155 N154 1.346 . S
C155 C156 1.396 . S
C155 C165 1.510 . S
C156 C152 1.401 . S
C156 C155 1.396 . S
C157 C152 1.499 . S
C157 H158 0.959 . S
C157 H159 0.960 . S
C157 H160 0.961 . S
H158 C157 0.959 . S
H159 C157 0.960 . S
H160 C157 0.961 . S
O161 Co136 1.967 . S
O161 C169 1.258 . S
O162 Co137 1.941 . S
O162 C169 1.266 . S
H163 C165 0.959 . S
H164 C165 0.961 . S
C165 C155 1.510 . S
C165 H163 0.959 . S
C165 H164 0.961 . S
C165 H166 0.960 . S
H166 C165 0.960 . S
H167 N147 0.862 . S
O168 Co136 1.920 . S
O168 C141 1.289 . S
C169 O161 1.258 . S
C169 O162 1.266 . S
Co170 O173 1.970 . S
Co170 N187 1.989 . S
Co170 O195 1.967 . S
Co170 O202 1.920 . S
Co171 O174 1.966 . S
Co171 N180 2.022 . S
Co171 N188 1.993 . S
Co171 O196 1.941 . S
C172 O173 1.258 . S
C172 O174 1.263 . S
O173 Co170 1.970 . S
O173 C172 1.258 . S
O174 Co171 1.966 . S
O174 C172 1.263 . S
C175 O176 1.235 . S
C175 O202 1.289 . S
O176 C175 1.235 . S
C177 C179 1.400 . S
C177 N180 1.351 . S
C177 C182 1.501 . S
C178 C179 1.387 . S
C178 N181 1.341 . S
C179 C177 1.400 . S
C179 C178 1.387 . S
N180 Co171 2.022 . S
N180 C177 1.351 . S
N180 N181 1.365 . S
N181 C178 1.341 . S
N181 N180 1.365 . S
N181 H201 0.862 . S
C182 C177 1.501 . S
C182 H183 0.961 . S
C182 H184 0.961 . S
C182 H185 0.960 . S
H183 C182 0.961 . S
H184 C182 0.961 . S
H185 C182 0.960 . S
C186 N187 1.342 . S
C186 C190 1.401 . S
C186 C191 1.499 . S
N187 Co170 1.989 . S
N187 C186 1.342 . S
N187 N188 1.388 . S
N188 Co171 1.993 . S
N188 N187 1.388 . S
N188 C189 1.346 . S
C189 N188 1.346 . S
C189 C190 1.396 . S
C189 C199 1.510 . S
C190 C186 1.401 . S
C190 C189 1.396 . S
C191 C186 1.499 . S
C191 H192 0.959 . S
C191 H193 0.960 . S
C191 H194 0.961 . S
H192 C191 0.959 . S
H193 C191 0.960 . S
H194 C191 0.961 . S
O195 Co170 1.967 . S
O195 C203 1.258 . S
O196 Co171 1.941 . S
O196 C203 1.266 . S
H197 C199 0.959 . S
H198 C199 0.961 . S
C199 C189 1.510 . S
C199 H197 0.959 . S
C199 H198 0.961 . S
C199 H200 0.960 . S
H200 C199 0.960 . S
H201 N181 0.862 . S
O202 Co170 1.920 . S
O202 C175 1.289 . S
C203 O195 1.258 . S
C203 O196 1.266 . S
Co204 O207 1.970 . S
Co204 N221 1.989 . S
Co204 O229 1.967 . S
Co204 O236 1.920 . S
Co205 O208 1.966 . S
Co205 N214 2.022 . S
Co205 N222 1.993 . S
Co205 O230 1.941 . S
C206 O207 1.258 . S
C206 O208 1.263 . S
O207 Co204 1.970 . S
O207 C206 1.258 . S
O208 Co205 1.966 . S
O208 C206 1.263 . S
C209 O210 1.235 . S
C209 O236 1.289 . S
O210 C209 1.235 . S
C211 C213 1.400 . S
C211 N214 1.351 . S
C211 C216 1.501 . S
C212 C213 1.387 . S
C212 N215 1.341 . S
C213 C211 1.400 . S
C213 C212 1.387 . S
N214 Co205 2.022 . S
N214 C211 1.351 . S
N214 N215 1.365 . S
N215 C212 1.341 . S
N215 N214 1.365 . S
N215 H235 0.862 . S
C216 C211 1.501 . S
C216 H217 0.961 . S
C216 H218 0.961 . S
C216 H219 0.960 . S
H217 C216 0.961 . S
H218 C216 0.961 . S
H219 C216 0.960 . S
C220 N221 1.342 . S
C220 C224 1.401 . S
C220 C225 1.499 . S
N221 Co204 1.989 . S
N221 C220 1.342 . S
N221 N222 1.388 . S
N222 Co205 1.993 . S
N222 N221 1.388 . S
N222 C223 1.346 . S
C223 N222 1.346 . S
C223 C224 1.396 . S
C223 C233 1.510 . S
C224 C220 1.401 . S
C224 C223 1.396 . S
C225 C220 1.499 . S
C225 H226 0.959 . S
C225 H227 0.960 . S
C225 H228 0.961 . S
H226 C225 0.959 . S
H227 C225 0.960 . S
H228 C225 0.961 . S
O229 Co204 1.967 . S
O229 C237 1.258 . S
O230 Co205 1.941 . S
O230 C237 1.266 . S
H231 C233 0.959 . S
H232 C233 0.961 . S
C233 C223 1.510 . S
C233 H231 0.959 . S
C233 H232 0.961 . S
C233 H234 0.960 . S
H234 C233 0.960 . S
H235 N215 0.862 . S
O236 Co204 1.920 . S
O236 C209 1.289 . S
C237 O229 1.258 . S
C237 O230 1.266 . S
Co238 O241 1.970 . S
Co238 N255 1.989 . S
Co238 O263 1.967 . S
Co238 O270 1.920 . S
Co239 O242 1.966 . S
Co239 N248 2.022 . S
Co239 N256 1.993 . S
Co239 O264 1.941 . S
C240 O241 1.258 . S
C240 O242 1.263 . S
O241 Co238 1.970 . S
O241 C240 1.258 . S
O242 Co239 1.966 . S
O242 C240 1.263 . S
C243 O244 1.235 . S
C243 O270 1.289 . S
O244 C243 1.235 . S
C245 C247 1.400 . S
C245 N248 1.351 . S
C245 C250 1.501 . S
C246 C247 1.387 . S
C246 N249 1.341 . S
C247 C245 1.400 . S
C247 C246 1.387 . S
N248 Co239 2.022 . S
N248 C245 1.351 . S
N248 N249 1.365 . S
N249 C246 1.341 . S
N249 N248 1.365 . S
N249 H269 0.862 . S
C250 C245 1.501 . S
C250 H251 0.961 . S
C250 H252 0.961 . S
C250 H253 0.960 . S
H251 C250 0.961 . S
H252 C250 0.961 . S
H253 C250 0.960 . S
C254 N255 1.342 . S
C254 C258 1.401 . S
C254 C259 1.499 . S
N255 Co238 1.989 . S
N255 C254 1.342 . S
N255 N256 1.388 . S
N256 Co239 1.993 . S
N256 N255 1.388 . S
N256 C257 1.346 . S
C257 N256 1.346 . S
C257 C258 1.396 . S
C257 C267 1.510 . S
C258 C254 1.401 . S
C258 C257 1.396 . S
C259 C254 1.499 . S
C259 H260 0.959 . S
C259 H261 0.960 . S
C259 H262 0.961 . S
H260 C259 0.959 . S
H261 C259 0.960 . S
H262 C259 0.961 . S
O263 Co238 1.967 . S
O263 C271 1.258 . S
O264 Co239 1.941 . S
O264 C271 1.266 . S
H265 C267 0.959 . S
H266 C267 0.961 . S
C267 C257 1.510 . S
C267 H265 0.959 . S
C267 H266 0.961 . S
C267 H268 0.960 . S
H268 C267 0.960 . S
H269 N249 0.862 . S
O270 Co238 1.920 . S
O270 C243 1.289 . S
C271 O263 1.258 . S
C271 O264 1.266 . S
H272 C278 0.930 . S
H273 C282 0.930 . S
H274 C287 0.929 . S
H275 C285 0.929 . S
H276 C280 0.929 . S
H277 C286 0.929 . S
C278 H272 0.930 . S
C278 C279 1.367 . S
C278 C286 1.378 . S
C279 C278 1.367 . S
C279 C287 1.433 . S
C280 H276 0.929 . S
C280 C282 1.378 . S
C280 C284 1.350 . S
C281 C284 1.463 1_565 S
C281 C286 1.350 . S
C281 N289 1.427 . S
C282 H273 0.930 . S
C282 C280 1.378 . S
C282 C283 1.367 . S
C283 C282 1.367 . S
C283 C285 1.433 . S
C284 C280 1.350 . S
C284 C281 1.463 1_545 S
C284 N288 1.427 . S
C285 H275 0.929 . S
C285 C283 1.433 . S
C285 N288 1.384 . S
C286 H277 0.929 . S
C286 C278 1.378 . S
C286 C281 1.350 . S
C287 H274 0.929 . S
C287 C279 1.433 . S
C287 N289 1.384 . S
N288 C284 1.427 . S
N288 C285 1.384 . S
N289 C281 1.427 . S
N289 C287 1.384 . S
H290 C296 0.930 1_455 S
H291 C300 0.930 1_655 S
H292 C305 0.929 . S
H293 C303 0.929 . S
H294 C298 0.929 . S
H295 C304 0.929 . S
C296 H290 0.930 1_655 S
C296 C297 1.367 . S
C296 C304 1.378 1_655 S
C297 C296 1.367 . S
C297 C305 1.433 . S
C298 H294 0.929 . S
C298 C300 1.378 1_655 S
C298 C302 1.350 1_655 S
C299 C302 1.463 1_655 S
C299 C304 1.350 1_655 S
C299 N307 1.427 . S
C300 H291 0.930 1_455 S
C300 C298 1.378 1_455 S
C300 C301 1.367 . S
C301 C300 1.367 . S
C301 C303 1.433 . S
C302 C298 1.350 1_455 S
C302 C299 1.463 1_455 S
C302 N306 1.427 . S
C303 H293 0.929 . S
C303 C301 1.433 . S
C303 N306 1.384 . S
C304 H295 0.929 . S
C304 C296 1.378 1_455 S
C304 C299 1.350 1_455 S
C305 H292 0.929 . S
C305 C297 1.433 . S
C305 N307 1.384 . S
N306 C302 1.427 . S
N306 C303 1.384 . S
N307 C299 1.427 . S
N307 C305 1.384 . S
H308 C314 0.930 . S
H309 C318 0.930 . S
H310 C323 0.929 . S
H311 C321 0.929 . S
H312 C316 0.929 . S
H313 C322 0.929 . S
C314 H308 0.930 . S
C314 C315 1.367 . S
C314 C322 1.378 . S
C315 C314 1.367 . S
C315 C323 1.433 . S
C316 H312 0.929 . S
C316 C318 1.378 . S
C316 C320 1.350 . S
C317 C320 1.463 1_655 S
C317 C322 1.350 . S
C317 N325 1.427 . S
C318 H309 0.930 . S
C318 C316 1.378 . S
C318 C319 1.367 . S
C319 C318 1.367 . S
C319 C321 1.433 . S
C320 C316 1.350 . S
C320 C317 1.463 1_455 S
C320 N324 1.427 . S
C321 H311 0.929 . S
C321 C319 1.433 . S
C321 N324 1.384 . S
C322 H313 0.929 . S
C322 C314 1.378 . S
C322 C317 1.350 . S
C323 H310 0.929 . S
C323 C315 1.433 . S
C323 N325 1.384 . S
N324 C320 1.427 . S
N324 C321 1.384 . S
N325 C317 1.427 . S
N325 C323 1.384 . S
H326 C332 0.930 . S
H327 C336 0.930 . S
H328 C341 0.929 . S
H329 C339 0.929 . S
H330 C334 0.929 1_545 S
H331 C340 0.929 1_565 S
C332 H326 0.930 . S
C332 C333 1.367 . S
C332 C340 1.378 . S
C333 C332 1.367 . S
C333 C341 1.433 . S
C334 H330 0.929 1_565 S
C334 C336 1.378 . S
C334 C338 1.350 . S
C335 C338 1.463 1_545 S
C335 C340 1.350 . S
C335 N343 1.427 . S
C336 H327 0.930 . S
C336 C334 1.378 . S
C336 C337 1.367 . S
C337 C336 1.367 . S
C337 C339 1.433 . S
C338 C334 1.350 . S
C338 C335 1.463 1_565 S
C338 N342 1.427 . S
C339 H329 0.929 . S
C339 C337 1.433 . S
C339 N342 1.384 . S
C340 H331 0.929 1_545 S
C340 C332 1.378 . S
C340 C335 1.350 . S
C341 H328 0.929 . S
C341 C333 1.433 . S
C341 N343 1.384 . S
N342 C338 1.427 . S
N342 C339 1.384 . S
N343 C335 1.427 . S
N343 C341 1.384 . S
H344 C350 0.930 . S
H345 C354 0.930 . S
H346 C359 0.927 1_565 S
H347 C357 0.927 1_545 S
H348 C352 0.929 . S
H349 C358 0.929 . S
C350 H344 0.930 . S
C350 C351 1.367 . S
C350 C358 1.378 . S
C351 C350 1.367 . S
C351 C359 1.437 . S
C352 H348 0.929 . S
C352 C354 1.378 . S
C352 C356 1.350 . S
C353 C356 1.463 1_445 S
C353 C358 1.350 . S
C353 N361 1.427 1_545 S
C354 H345 0.930 . S
C354 C352 1.378 . S
C354 C355 1.367 . S
C355 C354 1.367 . S
C355 C357 1.437 . S
C356 C352 1.350 . S
C356 C353 1.463 1_665 S
C356 N360 1.427 1_565 S
C357 H347 0.927 1_565 S
C357 C355 1.437 . S
C357 N360 1.382 1_565 S
C358 H349 0.929 . S
C358 C350 1.378 . S
C358 C353 1.350 . S
C359 H346 0.927 1_545 S
C359 C351 1.437 . S
C359 N361 1.382 1_545 S
N360 C356 1.427 1_545 S
N360 C357 1.382 1_545 S
N361 C353 1.427 1_565 S
N361 C359 1.382 1_565 S
H362 C368 0.930 . S
H363 C372 0.930 . S
H364 C377 0.929 . S
H365 C375 0.929 . S
H366 C370 0.929 . S
H367 C376 0.929 . S
C368 H362 0.930 . S
C368 C369 1.367 . S
C368 C376 1.378 . S
C369 C368 1.367 . S
C369 C377 1.433 1_655 S
C370 H366 0.929 . S
C370 C372 1.378 . S
C370 C374 1.350 . S
C371 C374 1.463 1_645 S
C371 C376 1.350 . S
C371 N379 1.427 1_655 S
C372 H363 0.930 . S
C372 C370 1.378 . S
C372 C373 1.367 . S
C373 C372 1.367 . S
C373 C375 1.433 1_455 S
C374 C370 1.350 . S
C374 C371 1.463 1_465 S
C374 N378 1.427 1_455 S
C375 H365 0.929 . S
C375 C373 1.433 1_655 S
C375 N378 1.384 . S
C376 H367 0.929 . S
C376 C368 1.378 . S
C376 C371 1.350 . S
C377 H364 0.929 . S
C377 C369 1.433 1_455 S
C377 N379 1.384 . S
N378 C374 1.427 1_655 S
N378 C375 1.384 . S
N379 C371 1.427 1_455 S
N379 C377 1.384 . S
H380 C386 0.930 . S
H381 C390 0.930 . S
H382 C395 0.929 . S
H383 C393 0.929 . S
H384 C388 0.929 . S
H385 C394 0.929 . S
C386 H380 0.930 . S
C386 C387 1.367 . S
C386 C394 1.378 . S
C387 C386 1.367 . S
C387 C395 1.433 . S
C388 H384 0.929 . S
C388 C390 1.378 . S
C388 C392 1.350 . S
C389 C392 1.463 . S
C389 C394 1.350 . S
C389 N397 1.427 . S
C390 H381 0.930 . S
C390 C388 1.378 . S
C390 C391 1.367 . S
C391 C390 1.367 . S
C391 C393 1.433 . S
C392 C388 1.350 . S
C392 C389 1.463 . S
C392 N396 1.427 . S
C393 H383 0.929 . S
C393 C391 1.433 . S
C393 N396 1.384 . S
C394 H385 0.929 . S
C394 C386 1.378 . S
C394 C389 1.350 . S
C395 H382 0.929 . S
C395 C387 1.433 . S
C395 N397 1.384 . S
N396 C392 1.427 . S
N396 C393 1.384 . S
N397 C389 1.427 . S
N397 C395 1.384 . S
H398 C404 0.930 . S
H399 C408 0.930 . S
H400 C413 0.929 . S
H401 C411 0.929 . S
H402 C406 0.929 . S
H403 C412 0.929 . S
C404 H398 0.930 . S
C404 C405 1.367 . S
C404 C412 1.378 . S
C405 C404 1.367 . S
C405 C413 1.433 . S
C406 H402 0.929 . S
C406 C408 1.378 . S
C406 C410 1.350 . S
C407 C410 1.463 . S
C407 C412 1.350 . S
C407 N415 1.427 . S
C408 H399 0.930 . S
C408 C406 1.378 . S
C408 C409 1.367 . S
C409 C408 1.367 . S
C409 C411 1.433 . S
C410 C406 1.350 . S
C410 C407 1.463 . S
C410 N414 1.427 . S
C411 H401 0.929 . S
C411 C409 1.433 . S
C411 N414 1.384 . S
C412 H403 0.929 . S
C412 C404 1.378 . S
C412 C407 1.350 . S
C413 H400 0.929 . S
C413 C405 1.433 . S
C413 N415 1.384 . S
N414 C410 1.427 . S
N414 C411 1.384 . S
N415 C407 1.427 . S
N415 C413 1.384 . S
H416 C422 0.930 . S
H417 C426 0.930 . S
H418 C431 0.929 . S
H419 C429 0.929 . S
H420 C424 0.929 . S
H421 C430 0.929 . S
C422 H416 0.930 . S
C422 C423 1.367 . S
C422 C430 1.378 . S
C423 C422 1.367 . S
C423 C431 1.433 . S
C424 H420 0.929 . S
C424 C426 1.378 . S
C424 C428 1.350 . S
C425 C428 1.463 . S
C425 C430 1.350 . S
C425 N433 1.427 . S
C426 H417 0.930 . S
C426 C424 1.378 . S
C426 C427 1.367 . S
C427 C426 1.367 . S
C427 C429 1.433 . S
C428 C424 1.350 . S
C428 C425 1.463 . S
C428 N432 1.427 . S
C429 H419 0.929 . S
C429 C427 1.433 . S
C429 N432 1.384 . S
C430 H421 0.929 . S
C430 C422 1.378 . S
C430 C425 1.350 . S
C431 H418 0.929 . S
C431 C423 1.433 . S
C431 N433 1.384 . S
N432 C428 1.427 . S
N432 C429 1.384 . S
N433 C425 1.427 . S
N433 C431 1.384 . S
H434 C440 0.930 . S
H435 C444 0.930 . S
H436 C449 0.929 . S
H437 C447 0.929 . S
H438 C442 0.929 . S
H439 C448 0.929 . S
C440 H434 0.930 . S
C440 C441 1.367 . S
C440 C448 1.378 . S
C441 C440 1.367 . S
C441 C449 1.433 . S
C442 H438 0.929 . S
C442 C444 1.378 . S
C442 C446 1.350 . S
C443 C446 1.463 . S
C443 C448 1.350 . S
C443 N451 1.427 . S
C444 H435 0.930 . S
C444 C442 1.378 . S
C444 C445 1.367 . S
C445 C444 1.367 . S
C445 C447 1.433 . S
C446 C442 1.350 . S
C446 C443 1.463 . S
C446 N450 1.427 . S
C447 H437 0.929 . S
C447 C445 1.433 . S
C447 N450 1.384 . S
C448 H439 0.929 . S
C448 C440 1.378 . S
C448 C443 1.350 . S
C449 H436 0.929 . S
C449 C441 1.433 . S
C449 N451 1.384 . S
N450 C446 1.427 . S
N450 C447 1.384 . S
N451 C443 1.427 . S
N451 C449 1.384 . S
H452 C458 0.930 . S
H453 C462 0.930 . S
H454 C467 0.929 . S
H455 C465 0.929 . S
H456 C460 0.929 . S
H457 C466 0.929 . S
C458 H452 0.930 . S
C458 C459 1.367 . S
C458 C466 1.378 . S
C459 C458 1.367 . S
C459 C467 1.433 . S
C460 H456 0.929 . S
C460 C462 1.378 . S
C460 C464 1.350 . S
C461 C464 1.463 . S
C461 C466 1.350 . S
C461 N469 1.427 . S
C462 H453 0.930 . S
C462 C460 1.378 . S
C462 C463 1.367 . S
C463 C462 1.367 . S
C463 C465 1.433 . S
C464 C460 1.350 . S
C464 C461 1.463 . S
C464 N468 1.427 . S
C465 H455 0.929 . S
C465 C463 1.433 . S
C465 N468 1.384 . S
C466 H457 0.929 . S
C466 C458 1.378 . S
C466 C461 1.350 . S
C467 H454 0.929 . S
C467 C459 1.433 . S
C467 N469 1.384 . S
N468 C464 1.427 . S
N468 C465 1.384 . S
N469 C461 1.427 . S
N469 C467 1.384 . S
H470 C476 0.930 . S
H471 C480 0.930 . S
H472 C485 0.929 . S
H473 C483 0.929 . S
H474 C478 0.929 . S
H475 C484 0.929 . S
C476 H470 0.930 . S
C476 C477 1.367 . S
C476 C484 1.378 . S
C477 C476 1.367 . S
C477 C485 1.433 . S
C478 H474 0.929 . S
C478 C480 1.378 . S
C478 C482 1.350 . S
C479 C482 1.463 . S
C479 C484 1.350 . S
C479 N487 1.427 . S
C480 H471 0.930 . S
C480 C478 1.378 . S
C480 C481 1.367 . S
C481 C480 1.367 . S
C481 C483 1.433 . S
C482 C478 1.350 . S
C482 C479 1.463 . S
C482 N486 1.427 . S
C483 H473 0.929 . S
C483 C481 1.433 . S
C483 N486 1.384 . S
C484 H475 0.929 . S
C484 C476 1.378 . S
C484 C479 1.350 . S
C485 H472 0.929 . S
C485 C477 1.433 . S
C485 N487 1.384 . S
N486 C482 1.427 . S
N486 C483 1.384 . S
N487 C479 1.427 . S
N487 C485 1.384 . S
H488 C494 0.930 . S
H489 C498 0.930 . S
H490 C503 0.929 . S
H491 C501 0.929 . S
H492 C496 0.929 . S
H493 C502 0.929 . S
C494 H488 0.930 . S
C494 C495 1.367 . S
C494 C502 1.378 . S
C495 C494 1.367 . S
C495 C503 1.433 . S
C496 H492 0.929 . S
C496 C498 1.378 . S
C496 C500 1.350 . S
C497 C500 1.463 . S
C497 C502 1.350 . S
C497 N505 1.427 . S
C498 H489 0.930 . S
C498 C496 1.378 . S
C498 C499 1.367 . S
C499 C498 1.367 . S
C499 C501 1.433 . S
C500 C496 1.350 . S
C500 C497 1.463 . S
C500 N504 1.427 . S
C501 H491 0.929 . S
C501 C499 1.433 . S
C501 N504 1.384 . S
C502 H493 0.929 . S
C502 C494 1.378 . S
C502 C497 1.350 . S
C503 H490 0.929 . S
C503 C495 1.433 . S
C503 N505 1.384 . S
N504 C500 1.427 . S
N504 C501 1.384 . S
N505 C497 1.427 . S
N505 C503 1.384 . S
H506 C512 0.930 . S
H507 C516 0.930 . S
H508 C521 0.929 . S
H509 C519 0.929 . S
H510 C514 0.929 . S
H511 C520 0.929 . S
C512 H506 0.930 . S
C512 C513 1.367 . S
C512 C520 1.378 . S
C513 C512 1.367 . S
C513 C521 1.433 . S
C514 H510 0.929 . S
C514 C516 1.378 . S
C514 C518 1.350 . S
C515 C518 1.463 . S
C515 C520 1.350 . S
C515 N523 1.427 . S
C516 H507 0.930 . S
C516 C514 1.378 . S
C516 C517 1.367 . S
C517 C516 1.367 . S
C517 C519 1.433 . S
C518 C514 1.350 . S
C518 C515 1.463 . S
C518 N522 1.427 . S
C519 H509 0.929 . S
C519 C517 1.433 . S
C519 N522 1.384 . S
C520 H511 0.929 . S
C520 C512 1.378 . S
C520 C515 1.350 . S
C521 H508 0.929 . S
C521 C513 1.433 . S
C521 N523 1.384 . S
N522 C518 1.427 . S
N522 C519 1.384 . S
N523 C515 1.427 . S
N523 C521 1.384 . S
H524 C530 0.930 1_565 S
H525 C534 0.930 . S
H526 C539 0.929 . S
H527 C537 0.929 . S
H528 C532 0.929 . S
H529 C538 0.929 . S
C530 H524 0.930 1_545 S
C530 C531 1.367 . S
C530 C538 1.378 . S
C531 C530 1.367 . S
C531 C539 1.433 . S
C532 H528 0.929 . S
C532 C534 1.378 . S
C532 C536 1.350 . S
C533 C536 1.463 . S
C533 C538 1.350 . S
C533 N541 1.427 . S
C534 H525 0.930 . S
C534 C532 1.378 . S
C534 C535 1.367 . S
C535 C534 1.367 . S
C535 C537 1.433 . S
C536 C532 1.350 . S
C536 C533 1.463 . S
C536 N540 1.427 . S
C537 H527 0.929 . S
C537 C535 1.433 . S
C537 N540 1.384 . S
C538 H529 0.929 . S
C538 C530 1.378 . S
C538 C533 1.350 . S
C539 H526 0.929 . S
C539 C531 1.433 . S
C539 N541 1.384 . S
N540 C536 1.427 . S
N540 C537 1.384 . S
N541 C533 1.427 . S
N541 C539 1.384 . S
H542 C548 0.930 . S
H543 C552 0.930 . S
H544 C557 0.929 . S
H545 C555 0.929 . S
H546 C550 0.929 . S
H547 C556 0.929 . S
C548 H542 0.930 . S
C548 C549 1.367 . S
C548 C556 1.378 . S
C549 C548 1.367 . S
C549 C557 1.433 . S
C550 H546 0.929 . S
C550 C552 1.378 . S
C550 C554 1.350 . S
C551 C554 1.463 . S
C551 C556 1.350 . S
C551 N559 1.427 . S
C552 H543 0.930 . S
C552 C550 1.378 . S
C552 C553 1.367 . S
C553 C552 1.367 . S
C553 C555 1.433 . S
C554 C550 1.350 . S
C554 C551 1.463 . S
C554 N558 1.427 . S
C555 H545 0.929 . S
C555 C553 1.433 . S
C555 N558 1.384 . S
C556 H547 0.929 . S
C556 C548 1.378 . S
C556 C551 1.350 . S
C557 H544 0.929 . S
C557 C549 1.433 . S
C557 N559 1.384 . S
N558 C554 1.427 . S
N558 C555 1.384 . S
N559 C551 1.427 . S
N559 C557 1.384 . S
H560 C566 0.930 . S
H561 C570 0.930 . S
H562 C575 0.929 . S
H563 C573 0.929 . S
H564 C568 0.929 . S
H565 C574 0.929 . S
C566 H560 0.930 . S
C566 C567 1.367 . S
C566 C574 1.378 . S
C567 C566 1.367 . S
C567 C575 1.433 . S
C568 H564 0.929 . S
C568 C570 1.378 1_554 S
C568 C572 1.350 . S
C569 C572 1.463 . S
C569 C574 1.350 . S
C569 N577 1.427 . S
C570 H561 0.930 . S
C570 C568 1.378 1_556 S
C570 C571 1.367 . S
C571 C570 1.367 . S
C571 C573 1.433 . S
C572 C568 1.350 . S
C572 C569 1.463 . S
C572 N576 1.427 1_554 S
C573 H563 0.929 . S
C573 C571 1.433 . S
C573 N576 1.384 . S
C574 H565 0.929 . S
C574 C566 1.378 . S
C574 C569 1.350 . S
C575 H562 0.929 . S
C575 C567 1.433 . S
C575 N577 1.384 . S
N576 C572 1.427 1_556 S
N576 C573 1.384 . S
N577 C569 1.427 . S
N577 C575 1.384 . S
H578 C584 0.930 . S
H579 C588 0.930 . S
H580 C593 0.929 . S
H581 C591 0.929 . S
H582 C586 0.950 . S
H583 C592 0.929 . S
C584 H578 0.930 . S
C584 C585 1.367 . S
C584 C592 1.378 . S
C585 C584 1.367 . S
C585 C593 1.433 . S
C586 H582 0.950 . S
C586 C588 1.347 1_556 S
C586 C590 1.361 . S
C587 C590 1.463 . S
C587 C592 1.350 . S
C587 N595 1.427 . S
C588 H579 0.930 . S
C588 C586 1.347 1_554 S
C588 C589 1.367 . S
C589 C588 1.367 . S
C589 C591 1.433 . S
C590 C586 1.361 . S
C590 C587 1.463 . S
C590 N594 1.427 1_556 S
C591 H581 0.929 . S
C591 C589 1.433 . S
C591 N594 1.384 . S
C592 H583 0.929 . S
C592 C584 1.378 . S
C592 C587 1.350 . S
C593 H580 0.929 . S
C593 C585 1.433 . S
C593 N595 1.384 . S
N594 C590 1.427 1_554 S
N594 C591 1.384 . S
N595 C587 1.427 . S
N595 C593 1.384 . S
H596 C602 0.930 . S
H597 C606 0.930 . S
H598 C611 0.929 . S
H599 C609 0.929 . S
H600 C604 0.929 . S
H601 C610 0.929 . S
C602 H596 0.930 . S
C602 C603 1.367 . S
C602 C610 1.378 . S
C603 C602 1.367 . S
C603 C611 1.433 . S
C604 H600 0.929 . S
C604 C606 1.378 . S
C604 C608 1.350 1_556 S
C605 C608 1.463 . S
C605 C610 1.350 . S
C605 N613 1.427 . S
C606 H597 0.930 . S
C606 C604 1.378 . S
C606 C607 1.367 . S
C607 C606 1.367 . S
C607 C609 1.433 . S
C608 C604 1.350 1_554 S
C608 C605 1.463 . S
C608 N612 1.427 . S
C609 H599 0.929 . S
C609 C607 1.433 . S
C609 N612 1.384 1_556 S
C610 H601 0.929 . S
C610 C602 1.378 . S
C610 C605 1.350 . S
C611 H598 0.929 . S
C611 C603 1.433 . S
C611 N613 1.384 . S
N612 C608 1.427 . S
N612 C609 1.384 1_554 S
N613 C605 1.427 . S
N613 C611 1.384 . S
H614 C620 0.930 . S
H615 C624 0.930 . S
H616 C629 0.929 . S
H617 C627 0.929 . S
H618 C622 0.929 . S
H619 C628 0.929 . S
C620 H614 0.930 . S
C620 C621 1.367 . S
C620 C628 1.378 . S
C621 C620 1.367 . S
C621 C629 1.433 . S
C622 H618 0.929 . S
C622 C624 1.378 . S
C622 C626 1.350 1_554 S
C623 C626 1.463 . S
C623 C628 1.350 . S
C623 N631 1.427 . S
C624 H615 0.930 . S
C624 C622 1.378 . S
C624 C625 1.367 . S
C625 C624 1.367 . S
C625 C627 1.433 . S
C626 C622 1.350 1_556 S
C626 C623 1.463 . S
C626 N630 1.427 . S
C627 H617 0.929 . S
C627 C625 1.433 . S
C627 N630 1.384 1_554 S
C628 H619 0.929 . S
C628 C620 1.378 . S
C628 C623 1.350 . S
C629 H616 0.929 . S
C629 C621 1.433 . S
C629 N631 1.384 . S
N630 C626 1.427 . S
N630 C627 1.384 1_556 S
N631 C623 1.427 . S
N631 C629 1.384 . S
C279 C88 1.177 . S
C283 C20 1.178 . S
C297 C122 1.171 . S
C301 C54 1.171 . S
C315 C224 1.180 . S
C319 C156 1.181 . S
C333 C258 1.184 . S
C337 C190 1.184 . S
C351 C2 1.345 . S
C355 C70 1.349 . S
C369 C104 1.348 . S
C373 C36 1.346 . S
C387 C206 1.352 . S
C391 C138 1.340 . S
C405 C240 1.344 . S
C409 C172 1.350 . S
C423 C247 1.457 . S
C427 C9 1.455 . S
C441 C145 1.456 . S
C445 C43 1.454 . S
C459 C77 1.458 . S
C463 C179 1.456 . S
C477 C213 1.452 . S
C481 C111 1.455 . S
C495 C67 0.617 . S
C499 C5 0.601 . S
C513 C101 0.615 . S
C517 C39 0.600 . S
C531 C73 0.604 . S
C535 C135 0.639 . S
C549 C33 0.613 . S
C553 C107 0.598 . S
C567 C271 0.650 . S
C571 C141 0.598 . S
C585 C169 0.609 . S
C589 C175 0.595 . S
C603 C203 0.614 . S
C607 C209 0.583 . S
C621 C237 0.608 . S
C625 C243 0.587 . S
