# Generated by pormake.
# Topology qtz-x, (6)-cn, num edge types: 1
# Building blocks:
#     Node 0, Type 0, BuildingBlock: KUMJIN_clean_sbu_0, # of connection points: 6
#     Node 1, Type 0, BuildingBlock: KUMJIN_clean_sbu_0, # of connection points: 6
#     Node 2, Type 0, BuildingBlock: KUMJIN_clean_sbu_0, # of connection points: 6
#     Edge 3, Type (0, 0), BuildingBlock: MIFKUJ_clean_linker_0, # of connection points: 2
#     Edge 4, Type (0, 0), BuildingBlock: MIFKUJ_clean_linker_0, # of connection points: 2
#     Edge 5, Type (0, 0), BuildingBlock: MIFKUJ_clean_linker_0, # of connection points: 2
#     Edge 6, Type (0, 0), BuildingBlock: MIFKUJ_clean_linker_0, # of connection points: 2
#     Edge 7, Type (0, 0), BuildingBlock: MIFKUJ_clean_linker_0, # of connection points: 2
#     Edge 8, Type (0, 0), BuildingBlock: MIFKUJ_clean_linker_0, # of connection points: 2
#     Edge 9, Type (0, 0), BuildingBlock: MIFKUJ_clean_linker_0, # of connection points: 2
#     Edge 10, Type (0, 0), BuildingBlock: MIFKUJ_clean_linker_0, # of connection points: 2
#     Edge 11, Type (0, 0), BuildingBlock: MIFKUJ_clean_linker_0, # of connection points: 2
# Relax obj value: 0.168
# Max RMSD: 0.276
# Mean RMSD: 0.276
data_MOF--net-qtz-x--node1-KUMJIN_clean_sbu_0--edge1-MIFKUJ_clean_linker_0
_symmetry_space_group_name_H-M    P1
_symmetry_Int_Tables_number       1
_symmetry_cell_setting            triclinic
loop_
_symmetry_equiv_pos_as_xyz
'x, y, z'
_cell_length_a     19.384299
_cell_length_b     19.424971
_cell_length_c     62.58985
_cell_angle_alpha  90.149231
_cell_angle_beta   89.767387
_cell_angle_gamma 119.82575
loop_
_atom_site_label
_atom_site_type_symbol
_atom_site_fract_x
_atom_site_fract_y
_atom_site_fract_z
_atom_type_partial_charge
Eu0 Eu 0.26964 0.53827 0.18905 0.0
C1 C 0.91283 0.46365 0.17823 0.0
C2 C 0.83019 0.34663 0.1994 0.0
C3 C 0.78329 0.43827 0.19075 0.0
C4 C 0.90177 0.39571 0.18836 0.0
C5 C 0.85356 0.48556 0.17922 0.0
C6 C 0.77129 0.36852 0.20061 0.0
C7 C 0.93371 0.59457 0.15545 0.0
N8 N 0.9798 0.50618 0.16649 0.0
C9 C 0.98993 0.5695 0.15461 0.0
C10 C 0.86541 0.55273 0.16794 0.0
Eu11 Eu 0.07037 0.45813 0.16485 0.0
N12 N 0.95867 0.37485 0.18626 0.0
C13 C 0.94624 0.30399 0.19407 0.0
C14 C 0.81865 0.27542 0.20813 0.0
C15 C 0.87693 0.25402 0.20544 0.0
H16 H 0.04227 0.60176 0.14478 0.0
H17 H 0.86807 0.1985 0.21186 0.0
H18 H 0.71538 0.3309 0.20865 0.0
H19 H 0.94286 0.6458 0.14637 0.0
H20 H 0.98995 0.28581 0.19179 0.0
H21 H 0.46176 0.78055 0.13535 0.0
H22 H 0.76419 0.23548 0.21646 0.0
H23 H 0.30462 0.40307 0.21214 0.0
H24 H 0.35085 0.70744 0.16054 0.0
H25 H 0.39809 0.35196 0.20864 0.0
H26 H 0.73687 0.45385 0.19161 0.0
H27 H 0.55311 0.7299 0.12667 0.0
H28 H 0.5962 0.62935 0.13343 0.0
H29 H 0.8214 0.57162 0.16835 0.0
H30 H 0.57934 0.51313 0.15351 0.0
N31 N 0.37724 0.61478 0.16562 0.0
C32 C 0.39023 0.68468 0.15696 0.0
C33 C 0.50433 0.69741 0.13772 0.0
C34 C 0.49354 0.62829 0.14767 0.0
C35 C 0.45306 0.72632 0.14263 0.0
C36 C 0.42882 0.58803 0.16183 0.0
H37 H 0.50641 0.41009 0.18183 0.0
N38 N 0.35837 0.48785 0.18722 0.0
C39 C 0.40455 0.39981 0.19847 0.0
C40 C 0.41927 0.52265 0.17304 0.0
C41 C 0.35177 0.42894 0.20042 0.0
C42 C 0.46548 0.43263 0.18327 0.0
C43 C 0.47416 0.49559 0.17052 0.0
O44 O 0.29741 0.54783 0.22309 0.0
O45 O 0.13912 0.48276 0.19496 0.0
O46 O 0.09487 0.56582 0.18422 0.0
O47 O 0.23351 0.63198 0.18363 0.0
O48 O 0.19883 0.44069 0.21312 0.0
O49 O 0.34486 0.65411 0.20386 0.0
O50 O 0.03794 0.45281 0.13125 0.0
O51 O 0.2004 0.51314 0.15889 0.0
O52 O 0.24487 0.42871 0.17072 0.0
O53 O 0.1061 0.36372 0.16979 0.0
O54 O 0.14131 0.55576 0.14088 0.0
O55 O 0.00683 0.34424 0.14846 0.0
C56 C 0.13061 0.43479 0.20963 0.0
C57 C 0.42118 0.65413 0.23337 0.0
C58 C 0.49939 0.69684 0.26617 0.0
C59 C 0.42805 0.67421 0.25516 0.0
C60 C 0.56405 0.70013 0.25501 0.0
C61 C 0.4866 0.65843 0.22247 0.0
C62 C 0.55771 0.68154 0.23327 0.0
C63 C 0.16499 0.631 0.18595 0.0
C64 C 0.34422 0.62439 0.22258 0.0
C65 C 0.53692 0.53345 0.15581 0.0
C66 C 0.54651 0.59961 0.14438 0.0
C67 C 0.20905 0.56008 0.1439 0.0
C68 C 0.92137 0.33736 0.12045 0.0
C69 C 0.91733 0.34461 0.09826 0.0
C70 C 0.8438 0.30741 0.08766 0.0
C71 C 0.77385 0.26318 0.09967 0.0
C72 C 0.85094 0.29366 0.13224 0.0
C73 C 0.77757 0.25681 0.12183 0.0
C74 C 0.17471 0.36446 0.16806 0.0
C75 C -0.00012 0.3755 0.13072 0.0
H76 H 0.37728 0.67005 0.26368 0.0
H77 H 0.61968 0.71761 0.2631 0.0
H78 H 0.48251 0.6433 0.20571 0.0
H79 H 0.60789 0.68446 0.2248 0.0
H80 H 0.97176 0.37856 0.08922 0.0
H81 H 0.71625 0.23453 0.09198 0.0
H82 H 0.85254 0.28774 0.1494 0.0
H83 H 0.7234 0.22314 0.13097 0.0
Eu84 Eu 0.59397 0.912 0.52555 0.0
C85 C 0.89644 0.24753 0.51673 0.0
C86 C 0.87169 0.33263 0.54005 0.0
C87 C 0.00724 0.36119 0.53377 0.0
C88 C 0.84355 0.2655 0.52667 0.0
C89 C 0.97901 0.2959 0.51986 0.0
C90 C 0.95367 0.37949 0.54386 0.0
C91 C -0.0002 0.2147 0.49421 0.0
N92 N 0.86722 0.18419 0.50338 0.0
C93 C 0.91745 0.16877 0.49155 0.0
C94 C 0.03073 0.27807 0.5086 0.0
Eu95 Eu 0.72709 0.10671 0.50056 0.0
N96 N 0.7648 0.21924 0.52257 0.0
C97 C 0.7115 0.24001 0.53013 0.0
C98 C 0.81674 0.35165 0.54881 0.0
C99 C 0.73641 0.30571 0.54359 0.0
H100 H 0.89395 0.11957 0.4805 0.0
H101 H 0.69356 0.3207 0.54997 0.0
H102 H 0.97634 0.43091 0.55422 0.0
H103 H 0.03931 0.20105 0.48521 0.0
H104 H 0.64927 0.20486 0.5263 0.0
H105 H 0.62215 0.69229 0.47762 0.0
H106 H 0.83589 0.40256 0.55923 0.0
H107 H 0.42897 0.90384 0.54557 0.0
H108 H 0.66926 0.81271 0.49966 0.0
H109 H 0.28334 0.8235 0.54137 0.0
H110 H 0.07043 0.39874 0.53651 0.0
H111 H 0.47883 0.60824 0.47017 0.0
H112 H 0.33915 0.5825 0.47504 0.0
H113 H 0.09455 0.31365 0.51061 0.0
H114 H 0.24726 0.61928 0.49184 0.0
N115 N 0.55424 0.79936 0.50362 0.0
C116 C 0.6067 0.77733 0.49617 0.0
C117 C 0.4993 0.66218 0.47931 0.0
C118 C 0.44549 0.68376 0.4875 0.0
C119 C 0.58023 0.70909 0.48368 0.0
C120 C 0.47514 0.75345 0.49989 0.0
H121 H 0.22579 0.70875 0.51671 0.0
N122 N 0.45368 0.83743 0.52277 0.0
C123 C 0.322 0.8088 0.53234 0.0
C124 C 0.42325 0.77332 0.50967 0.0
C125 C 0.40451 0.85415 0.53468 0.0
C126 C 0.28977 0.74429 0.51833 0.0
C127 C 0.34039 0.72487 0.5071 0.0
O128 O 0.56815 0.88675 0.55954 0.0
O129 O 0.67735 0.0406 0.53079 0.0
O130 O 0.80159 0.07324 0.52065 0.0
O131 O 0.72143 0.93532 0.52106 0.0
O132 O 0.57555 0.99081 0.54908 0.0
O133 O 0.62152 0.82914 0.54194 0.0
O134 O 0.75561 0.13321 0.46672 0.0
O135 O 0.6441 0.97763 0.49515 0.0
O136 O 0.51991 0.94561 0.50523 0.0
O137 O 0.59988 0.0834 0.50513 0.0
O138 O 0.74715 0.02819 0.4774 0.0
O139 O 0.69573 0.18579 0.48379 0.0
C140 C 0.64167 0.05506 0.54544 0.0
C141 C 0.53583 0.75904 0.57086 0.0
C142 C 0.49375 0.67681 0.60312 0.0
C143 C 0.5487 0.74657 0.59227 0.0
C144 C 0.42547 0.62048 0.59212 0.0
C145 C 0.46821 0.70121 0.56022 0.0
C146 C 0.41326 0.63253 0.57083 0.0
C147 C 0.79137 0.00119 0.52306 0.0
C148 C 0.59099 0.83408 0.56013 0.0
C149 C 0.31072 0.65722 0.49405 0.0
C150 C 0.36313 0.63643 0.4844 0.0
C151 C 0.68103 0.96358 0.48072 0.0
C152 C 0.78438 0.26033 0.45568 0.0
C153 C 0.79532 0.26273 0.43342 0.0
C154 C 0.84865 0.33418 0.42309 0.0
C155 C 0.89052 0.40343 0.43546 0.0
C156 C 0.82717 0.32999 0.46771 0.0
C157 C 0.87972 0.40115 0.45759 0.0
C158 C 0.53003 0.01768 0.503 0.0
C159 C 0.73035 0.18398 0.46601 0.0
H160 H 0.6018 0.79083 0.60032 0.0
H161 H 0.38085 0.56717 0.60001 0.0
H162 H 0.45753 0.70933 0.54378 0.0
H163 H 0.3607 0.58861 0.56255 0.0
H164 H 0.76207 0.20881 0.42418 0.0
H165 H 0.93289 0.45912 0.42809 0.0
H166 H 0.82039 0.32941 0.4849 0.0
H167 H 0.91278 0.45465 0.46695 0.0
Eu168 Eu 0.64577 0.53707 0.85847 0.0
C169 C 0.78524 0.31779 0.8465 0.0
C170 C 0.89067 0.37324 0.87272 0.0
C171 C 0.82711 0.23294 0.86392 0.0
C172 C 0.84037 0.38208 0.85812 0.0
C173 C 0.77969 0.24299 0.84874 0.0
C174 C 0.88238 0.29795 0.87594 0.0
C175 C 0.68806 0.19644 0.81907 0.0
N176 N 0.74075 0.32965 0.83192 0.0
C177 C 0.69617 0.2719 0.81743 0.0
C178 C 0.72892 0.18145 0.83507 0.0
Eu179 Eu 0.75706 0.45838 0.82981 0.0
N180 N 0.84716 0.45402 0.85448 0.0
C181 C 0.90632 0.5205 0.86395 0.0
C182 C 0.94884 0.44065 0.8833 0.0
C183 C 0.95728 0.51471 0.87868 0.0
H184 H 0.66523 0.28387 0.80492 0.0
H185 H 0.00221 0.56723 0.88668 0.0
H186 H 0.91988 0.28982 0.88726 0.0
H187 H 0.65068 0.15009 0.80796 0.0
H188 H 0.91348 0.57796 0.86058 0.0
H189 H 0.32637 0.37161 0.87392 0.0
H190 H 0.98829 0.43636 0.89475 0.0
H191 H 0.74744 0.70144 0.82835 0.0
H192 H 0.46875 0.41859 0.8807 0.0
H193 H 0.72159 0.77492 0.80059 0.0
H194 H 0.82305 0.1757 0.86607 0.0
H195 H 0.28777 0.42541 0.84329 0.0
H196 H 0.32987 0.52174 0.81275 0.0
H197 H 0.72304 0.12313 0.83624 0.0
H198 H 0.43778 0.63291 0.79304 0.0
N199 N 0.50869 0.49047 0.85291 0.0
C200 C 0.45175 0.4395 0.86682 0.0
C201 C 0.34991 0.44434 0.84591 0.0
C202 C 0.40916 0.50202 0.83287 0.0
C203 C 0.37143 0.41388 0.8632 0.0
C204 C 0.48924 0.52525 0.83711 0.0
H205 H 0.58378 0.72894 0.78878 0.0
N206 N 0.62602 0.61291 0.83203 0.0
C207 C 0.67267 0.72242 0.80764 0.0
C208 C 0.54979 0.5888 0.82642 0.0
C209 C 0.68718 0.68018 0.82336 0.0
C210 C 0.59485 0.69629 0.80101 0.0
C211 C 0.53209 0.62946 0.81065 0.0
O212 O 0.6701 0.64937 0.87314 0.0
O213 O 0.73689 0.49851 0.86162 0.0
O214 O 0.64396 0.35292 0.84196 0.0
O215 O 0.56238 0.4065 0.85142 0.0
O216 O 0.6421 0.45261 0.88347 0.0
O217 O 0.61496 0.5421 0.89184 0.0
O218 O 0.76834 0.44138 0.79565 0.0
O219 O 0.68834 0.5225 0.82643 0.0
O220 O 0.77537 0.63081 0.8583 0.0
O221 O 0.83004 0.59161 0.8309 0.0
O222 O 0.65404 0.42262 0.80746 0.0
O223 O 0.87369 0.5114 0.81442 0.0
C224 C 0.70667 0.45378 0.87776 0.0
C225 C 0.5755 0.63571 0.89961 0.0
C226 C 0.49805 0.64049 0.93003 0.0
C227 C 0.55757 0.62654 0.92159 0.0
C228 C 0.45728 0.66449 0.91604 0.0
C229 C 0.53349 0.65904 0.88598 0.0
C230 C 0.47494 0.67355 0.89422 0.0
C231 C 0.57511 0.3463 0.84776 0.0
C232 C 0.63505 0.61653 0.8911 0.0
C233 C 0.45248 0.60313 0.80532 0.0
C234 C 0.39107 0.53964 0.81647 0.0
C235 C 0.64126 0.48036 0.81172 0.0
C236 C 0.88257 0.43498 0.78595 0.0
C237 C 0.87077 0.41688 0.76404 0.0
C238 C 0.90334 0.37433 0.75403 0.0
C239 C 0.94897 0.35116 0.76633 0.0
C240 C 0.92755 0.41037 0.79794 0.0
C241 C 0.9608 0.36906 0.7881 0.0
C242 C 0.83265 0.64425 0.84465 0.0
C243 C 0.84553 0.47741 0.79606 0.0
H244 H 0.58876 0.60668 0.932 0.0
H245 H 0.41209 0.67699 0.92198 0.0
H246 H 0.54549 0.66559 0.86897 0.0
H247 H 0.44292 0.69174 0.88363 0.0
H248 H 0.83449 0.43435 0.75496 0.0
H249 H 0.97582 0.31936 0.75912 0.0
H250 H 0.93684 0.42273 0.81489 0.0
H251 H -0.00433 0.35054 0.79741 0.0
H252 H 0.29389 0.77852 0.18099 0.0
H253 H 0.29431 0.90356 0.17828 0.0
H254 H 0.04248 0.78322 0.19162 0.0
H255 H 0.04143 0.65722 0.19466 0.0
H256 H 0.08448 0.87554 0.15502 0.0
H257 H 0.16822 0.90251 0.2281 0.0
H258 H 0.25063 0.90305 0.25806 0.0
H259 H 0.45853 0.09254 0.22848 0.0
H260 H 0.37754 0.09232 0.19815 0.0
H261 H 0.04544 0.21601 0.17123 0.0
H262 H 0.04554 0.09087 0.1726 0.0
H263 H 0.29837 0.21424 0.16059 0.0
H264 H 0.29889 0.34008 0.15899 0.0
H265 H 0.25682 0.12059 0.1961 0.0
H266 H 0.17574 0.09647 0.12345 0.0
H267 H 0.09552 0.09802 0.0932 0.0
H268 H 0.886 0.905 0.12113 0.0
H269 H 0.96472 0.90324 0.15178 0.0
C270 C 0.23868 0.7785 0.18369 0.0
C271 C 0.16717 0.70763 0.18755 0.0
C272 C 0.23916 0.85014 0.18215 0.0
C273 C 0.16838 0.8522 0.18465 0.0
C274 C 0.09753 0.78233 0.18948 0.0
C275 C 0.09706 0.71055 0.19115 0.0
C276 C 0.16793 0.9267 0.18092 0.0
C277 C 0.12108 0.92893 0.1642 0.0
C278 C 0.21801 -0.00348 0.19248 0.0
C279 C 0.26687 -0.00315 0.21073 0.0
C280 C 0.23162 0.94382 0.22788 0.0
C281 C 0.27806 0.94416 0.24495 0.0
C282 C 0.35979 -0.00236 0.24515 0.0
C283 C 0.39522 0.05105 0.22829 0.0
C284 C 0.34906 0.05089 0.21116 0.0
C285 C 0.10094 0.21663 0.16854 0.0
C286 C 0.17259 0.28816 0.16556 0.0
C287 C 0.10077 0.14496 0.16926 0.0
C288 C 0.17202 0.14373 0.16681 0.0
C289 C 0.24295 0.21442 0.16269 0.0
C290 C 0.24313 0.28614 0.16188 0.0
C291 C 0.17319 0.06944 0.17025 0.0
C292 C 0.22022 0.06725 0.1869 0.0
C293 C 0.12362 -0.00017 0.15855 0.0
C294 C 0.07608 0.00023 0.14004 0.0
C295 C 0.11244 0.05478 0.12325 0.0
C296 C 0.06725 0.05564 0.10601 0.0
C297 C 0.98568 0.00175 0.10527 0.0
C298 C 0.94918 0.94677 0.12175 0.0
C299 C -0.00592 0.94579 0.13905 0.0
H300 H 0.95079 0.00249 0.09191 0.0
H301 H 0.39564 -0.00218 0.25838 0.0
H302 H 0.3879 0.90726 0.4866 0.0
H303 H 0.26181 0.90641 0.48912 0.0
H304 H 0.382 0.13911 0.51796 0.0
H305 H 0.50851 0.14069 0.51524 0.0
H306 H 0.19275 0.90796 0.52554 0.0
H307 H 0.27386 0.23317 0.50893 0.0
H308 H 0.36581 0.3466 0.48655 0.0
H309 H 0.37809 0.18713 0.44107 0.0
H310 H 0.28524 0.07269 0.46299 0.0
H311 H 0.93287 0.11228 0.53954 0.0
H312 H 0.05943 0.1141 0.53723 0.0
H313 H 0.94091 0.88099 0.5086 0.0
H314 H 0.81379 0.87846 0.5111 0.0
H315 H 0.12975 0.11307 0.50113 0.0
H316 H 0.04834 0.78764 0.51826 0.0
H317 H 0.95648 0.67526 0.54097 0.0
H318 H 0.9458 0.83694 0.58597 0.0
H319 H 0.0385 0.95031 0.56372 0.0
C320 C 0.38765 0.95892 0.49309 0.0
C321 C 0.45777 0.02382 0.50089 0.0
C322 C 0.31562 0.95825 0.49456 0.0
C323 C 0.31256 0.02257 0.50376 0.0
C324 C 0.3832 0.08925 0.51056 0.0
C325 C 0.45548 0.09013 0.50898 0.0
C326 C 0.23476 0.01684 0.50788 0.0
C327 C 0.1784 0.95215 0.51991 0.0
C328 C 0.21742 0.07599 0.50115 0.0
C329 C 0.27327 0.14435 0.48776 0.0
C330 C 0.29603 0.22227 0.49413 0.0
C331 C 0.3483 0.28676 0.48152 0.0
C332 C 0.37801 0.27409 0.46244 0.0
C333 C 0.35531 0.19688 0.4559 0.0
C334 C 0.30295 0.13217 0.46844 0.0
C335 C 0.93357 0.06073 0.53314 0.0
C336 C 0.86375 -0.00459 0.52535 0.0
C337 C 0.00588 0.06198 0.53179 0.0
C338 C 0.00955 -0.00216 0.5227 0.0
C339 C 0.93921 0.93074 0.51591 0.0
C340 C 0.86661 0.92928 0.51737 0.0
C341 C 0.08767 0.00408 0.51873 0.0
C342 C 0.1441 0.06888 0.50675 0.0
C343 C 0.1052 0.9452 0.52557 0.0
C344 C 0.04968 0.87744 0.53917 0.0
C345 C 0.02656 0.79923 0.53303 0.0
C346 C 0.97434 0.73535 0.54583 0.0
C347 C 0.94508 0.74894 0.56486 0.0
C348 C 0.96821 0.82647 0.57118 0.0
C349 C 0.02051 0.89057 0.55846 0.0
H350 H 0.90463 0.6994 0.57474 0.0
H351 H 0.41846 0.3241 0.4527 0.0
H352 H 0.93187 0.72358 0.81196 0.0
H353 H 0.06398 0.84129 0.81458 0.0
H354 H 0.0335 0.84887 0.88272 0.0
H355 H 0.9004 0.73182 0.88017 0.0
H356 H 0.1065 -0.00395 0.83349 0.0
H357 H 0.22523 0.88463 0.90155 0.0
H358 H 0.20629 0.75918 0.9167 0.0
H359 H 0.12694 0.64524 0.85575 0.0
H360 H 0.1465 0.77018 0.84018 0.0
H361 H 0.46199 0.29875 0.87848 0.0
H362 H 0.33882 0.17125 0.88044 0.0
H363 H 0.41808 0.08442 0.82772 0.0
H364 H 0.53847 0.21386 0.82464 0.0
H365 H 0.32356 0.97485 0.86931 0.0
H366 H 0.32524 0.13511 0.80801 0.0
H367 H 0.35136 0.26262 0.79257 0.0
H368 H 0.19028 0.27438 0.83778 0.0
H369 H 0.16533 0.14817 0.85391 0.0
C370 C 0.9531 0.7512 0.82742 0.0
C371 C 0.90673 0.71954 0.84587 0.0
C372 C 0.02807 0.81794 0.82888 0.0
C373 C 0.05774 0.85231 0.84884 0.0
C374 C 0.01091 0.82213 0.86724 0.0
C375 C 0.93517 0.75616 0.86574 0.0
C376 C 0.13849 0.9194 0.85035 0.0
C377 C 0.15394 0.99147 0.8413 0.0
C378 C 0.19969 0.91245 0.86053 0.0
C379 C 0.18637 0.83655 0.86979 0.0
C380 C 0.20372 0.83277 0.89139 0.0
C381 C 0.19302 0.76181 0.90004 0.0
C382 C 0.16544 0.69432 0.8872 0.0
C383 C 0.14821 0.69756 0.86569 0.0
C384 C 0.1588 0.76836 0.85696 0.0
C385 C 0.45273 0.25275 0.86722 0.0
C386 C 0.5081 0.26655 0.85096 0.0
C387 C 0.38356 0.17972 0.86868 0.0
C388 C 0.37033 0.11961 0.85417 0.0
C389 C 0.42847 0.13069 0.83911 0.0
C390 C 0.49699 0.2044 0.83737 0.0
C391 C 0.29097 0.05081 0.85245 0.0
C392 C 0.27579 0.97899 0.86156 0.0
C393 C 0.22996 0.05749 0.84215 0.0
C394 C 0.24425 0.13285 0.83232 0.0
C395 C 0.29626 0.16547 0.81483 0.0
C396 C 0.3108 0.23745 0.80594 0.0
C397 C 0.27266 0.27669 0.81421 0.0
C398 C 0.21997 0.24405 0.83141 0.0
C399 C 0.20575 0.17241 0.84047 0.0
H400 H 0.28379 0.33227 0.80726 0.0
H401 H 0.15738 0.63948 0.89391 0.0
H402 H 0.35042 0.57465 0.94858 0.0
H403 H 0.31756 0.56309 0.98656 0.0
H404 H 0.56607 0.6666 1.00227 0.0
H405 H 0.59978 0.68115 0.9642 0.0
H406 H 0.33466 0.48493 0.01876 0.0
H407 H 0.60212 0.77787 0.04815 0.0
H408 H 0.69744 0.9112 0.03447 0.0
H409 H 0.52746 0.89204 0.98764 0.0
H410 H 0.43085 0.75915 1.00123 0.0
H411 H 0.29123 0.48501 0.13127 0.0
H412 H 0.35974 0.50162 0.09706 0.0
H413 H 0.31235 0.68932 0.08012 0.0
H414 H 0.24606 0.67429 0.11448 0.0
H415 H 0.4534 0.72331 0.06534 0.0
H416 H 0.18651 0.49428 0.06311 0.0
H417 H 0.07842 0.3643 0.07539 0.0
H418 H 0.22791 0.26199 0.0658 0.0
H419 H 0.33702 0.39146 0.05345 0.0
C420 C 0.39829 0.59564 0.96008 0.0
C421 C 0.4779 0.62966 0.95326 0.0
C422 C 0.37927 0.58816 0.98183 0.0
C423 C 0.43933 0.6146 0.99733 0.0
C424 C 0.51872 0.64664 0.99063 0.0
C425 C 0.53785 0.6543 0.96884 0.0
C426 C 0.41846 0.61027 0.0204 0.0
C427 C 0.36121 0.53701 0.02896 0.0
C428 C 0.45233 0.67818 0.03377 0.0
C429 C 0.50974 0.7582 0.02554 0.0
C430 C 0.58511 0.80223 0.03496 0.0
C431 C 0.63933 0.87771 0.02723 0.0
C432 C 0.61864 0.90994 1.01014 0.0
C433 C 0.54355 0.86687 1.00081 0.0
C434 C 0.48909 0.79143 1.0085 0.0
C435 C 0.29763 0.53137 0.12052 0.0
C436 C 0.26376 0.57877 0.12555 0.0
C437 C 0.33603 0.54026 0.10086 0.0
C438 C 0.33999 0.59579 0.0858 0.0
C439 C 0.31007 0.64602 0.0914 0.0
C440 C 0.27208 0.63736 0.11102 0.0
C441 C 0.36934 0.59812 0.06364 0.0
C442 C 0.42811 0.67098 0.05524 0.0
C443 C 0.33551 0.53028 0.05026 0.0
C444 C 0.27007 0.45258 0.05761 0.0
C445 C 0.19641 0.44413 0.06375 0.0
C446 C 0.13496 0.37059 0.07068 0.0
C447 C 0.14638 0.30507 0.07148 0.0
C448 C 0.2192 0.31284 0.06522 0.0
C449 C 0.2808 0.38621 0.0582 0.0
H450 H 0.09875 0.24823 0.0769 0.0
H451 H 0.6607 0.96837 1.00418 0.0
H452 H 0.86266 0.22481 0.39843 0.0
H453 H 0.89081 0.2314 0.36014 0.0
H454 H 0.89595 0.45554 0.3563 0.0
H455 H 0.86541 0.44827 0.39449 0.0
H456 H 0.81916 0.36082 0.32215 0.0
H457 H 0.06746 0.45343 0.35835 0.0
H458 H 0.15991 0.44726 0.38421 0.0
H459 H 0.1306 0.23553 0.35408 0.0
H460 H 0.03721 0.23995 0.32817 0.0
H461 H 0.04829 0.50528 0.22523 0.0
H462 H 0.97683 0.47508 0.25932 0.0
H463 H 0.0043 0.26895 0.26646 0.0
H464 H 0.07962 0.30206 0.23306 0.0
H465 H 0.06055 0.35367 0.2992 0.0
H466 H 0.79258 0.24988 0.26725 0.0
H467 H 0.68862 0.25136 0.24485 0.0
H468 H 0.75848 0.48685 0.26655 0.0
H469 H 0.86017 0.48514 0.28985 0.0
C470 C 0.86858 0.27497 0.3894 0.0
C471 C 0.86224 0.33629 0.39959 0.0
C472 C 0.88535 0.27896 0.36754 0.0
C473 C 0.89656 0.34451 0.35541 0.0
C474 C 0.88786 0.40458 0.36536 0.0
C475 C 0.87114 0.40068 0.38723 0.0
C476 C 0.92003 0.3517 0.33254 0.0
C477 C 0.87226 0.35979 0.3171 0.0
C478 C 0.98868 0.34945 0.3259 0.0
C479 C 0.04475 0.34658 0.34147 0.0
C480 C 0.08024 0.4052 0.35735 0.0
C481 C 0.13291 0.4021 0.37199 0.0
C482 C 0.15093 0.34092 0.37083 0.0
C483 C 0.11648 0.28282 0.35498 0.0
C484 C 0.06375 0.28564 0.3403 0.0
C485 C 0.03675 0.45221 0.23379 0.0
C486 C 0.06962 0.40607 0.22663 0.0
C487 C -0.00465 0.43453 0.25328 0.0
C488 C 0.98495 0.36959 0.26567 0.0
C489 C 0.01199 0.31979 0.25741 0.0
C490 C 0.05483 0.3385 0.23829 0.0
C491 C 0.95849 0.36068 0.28845 0.0
C492 C 0.00661 0.3534 0.30405 0.0
C493 C 0.89041 0.36401 0.2952 0.0
C494 C 0.83444 0.36781 0.27998 0.0
C495 C 0.7862 0.3022 0.26704 0.0
C496 C 0.72726 0.3028 0.25437 0.0
C497 C 0.71753 0.36943 0.25412 0.0
C498 C 0.76624 0.43539 0.2667 0.0
C499 C 0.82397 0.43436 0.27978 0.0
H500 H 0.67202 0.36981 0.24424 0.0
H501 H 0.19174 0.33863 0.38217 0.0
H502 H 0.49281 0.42561 0.79543 0.0
H503 H 0.45915 0.46794 0.76184 0.0
H504 H 0.7057 0.64475 0.75317 0.0
H505 H 0.73884 0.60425 0.78689 0.0
H506 H 0.50409 0.63812 0.74358 0.0
H507 H 0.73771 0.58385 0.70249 0.0
H508 H 0.80023 0.5009 0.70679 0.0
H509 H 0.59003 0.32149 0.73814 0.0
H510 H 0.5257 0.40257 0.73354 0.0
H511 H 0.55814 0.78399 0.63633 0.0
H512 H 0.57891 0.7574 0.67322 0.0
H513 H 0.47622 0.50858 0.6583 0.0
H514 H 0.46022 0.53532 0.62127 0.0
H515 H 0.59898 0.54973 0.68114 0.0
H516 H 0.37368 0.59011 0.68689 0.0
H517 H 0.30194 0.66416 0.68218 0.0
H518 H 0.47473 0.8538 0.72101 0.0
H519 H 0.54795 0.78118 0.72577 0.0
C520 C 0.53904 0.47514 0.78661 0.0
C521 C 0.61789 0.51336 0.79389 0.0
C522 C 0.51987 0.49936 0.76754 0.0
C523 C 0.57997 0.55979 0.75516 0.0
C524 C 0.65847 0.59872 0.76265 0.0
C525 C 0.67728 0.57567 0.78186 0.0
C526 C 0.56343 0.57526 0.73315 0.0
C527 C 0.52456 0.61889 0.72986 0.0
C528 C 0.58943 0.54926 0.71536 0.0
C529 C 0.62745 0.49981 0.71795 0.0
C530 C 0.70486 0.52663 0.71025 0.0
C531 C 0.74057 0.47985 0.71273 0.0
C532 C 0.69924 0.40605 0.72283 0.0
C533 C 0.62209 0.37879 0.73041 0.0
C534 C 0.58604 0.42517 0.7279 0.0
C535 C 0.54092 0.72377 0.64081 0.0
C536 C 0.50706 0.66181 0.62572 0.0
C537 C 0.55177 0.70843 0.66204 0.0
C538 C 0.52795 0.63066 0.66873 0.0
C539 C 0.49481 0.56904 0.65365 0.0
C540 C 0.48487 0.58439 0.63244 0.0
C541 C 0.5391 0.61289 0.6912 0.0
C542 C 0.57791 0.56914 0.69469 0.0
C543 C 0.5113 0.63741 0.70907 0.0
C544 C 0.46665 0.68052 0.70653 0.0
C545 C 0.39658 0.64778 0.69433 0.0
C546 C 0.35563 0.68947 0.69167 0.0
C547 C 0.3839 0.76375 0.70124 0.0
C548 C 0.45296 0.79631 0.71359 0.0
C549 C 0.49413 0.75486 0.7163 0.0
H550 H 0.35221 0.79601 0.69913 0.0
H551 H 0.72667 0.36971 0.72471 0.0
H552 H 0.67385 0.30555 0.8883 0.0
H553 H 0.71859 0.26812 0.92064 0.0
H554 H 0.87074 0.51562 0.93589 0.0
H555 H 0.82719 0.55272 0.90335 0.0
H556 H 0.93351 0.42091 0.95041 0.0
H557 H 0.68677 0.4282 0.95284 0.0
H558 H 0.5531 0.39039 0.93938 0.0
H559 H 0.47587 0.14493 0.95134 0.0
H560 H 0.60968 0.18133 0.96454 0.0
H561 H 0.92479 0.44133 0.06342 0.0
H562 H 0.9176 0.45449 0.02481 0.0
H563 H 0.74872 0.20412 0.02003 0.0
H564 H 0.75505 0.19083 0.05875 0.0
H565 H 0.69881 0.28611 0.99839 0.0
H566 H 0.94424 0.28602 1.00305 0.0
H567 H 0.07875 0.32895 0.01674 0.0
H568 H 0.16134 0.56311 0.99201 0.0
H569 H 0.02683 0.52231 0.97863 0.0
C570 C 0.71936 0.35158 0.89815 0.0
C571 C 0.74876 0.43177 0.89324 0.0
C572 C 0.74477 0.33035 0.91659 0.0
C573 C 0.79747 0.38916 0.93077 0.0
C574 C 0.83063 0.46935 0.92511 0.0
C575 C 0.80572 0.49051 0.90658 0.0
C576 C 0.80641 0.3682 0.95297 0.0
C577 C 0.88248 0.39146 0.96098 0.0
C578 C 0.73952 0.32908 0.96663 0.0
C579 C 0.65831 0.30737 0.95948 0.0
C580 C 0.64132 0.36615 0.95253 0.0
C581 C 0.56559 0.34498 0.94493 0.0
C582 C 0.50608 0.26527 0.94446 0.0
C583 C 0.52208 0.20663 0.95169 0.0
C584 C 0.59783 0.22748 0.95923 0.0
C585 C 0.88681 0.3889 0.05411 0.0
C586 C 0.84042 0.31503 0.06413 0.0
C587 C 0.88297 0.39644 0.03201 0.0
C588 C 0.83352 0.33006 0.01943 0.0
C589 C 0.78744 0.25613 0.02939 0.0
C590 C 0.7908 0.24867 0.05152 0.0
C591 C 0.8262 0.33885 0.9961 0.0
C592 C 0.75013 0.31393 0.98786 0.0
C593 C 0.89334 0.3768 0.98238 0.0
C594 C 0.975 0.40115 0.98997 0.0
C595 C 0.99086 0.34685 1.00065 0.0
C596 C 0.06716 0.37081 1.00836 0.0
C597 C 0.12848 0.44873 1.00528 0.0
C598 C 0.11371 0.50279 0.99441 0.0
C599 C 0.03742 0.47926 0.98675 0.0
H600 H 0.18743 0.46718 0.01129 0.0
H601 H 0.44752 0.24895 0.93852 0.0
H602 H 0.46634 0.80109 0.28707 0.0
H603 H 0.48415 0.83522 0.3253 0.0
H604 H 0.56444 0.66699 0.3356 0.0
H605 H 0.54818 0.6339 0.29747 0.0
H606 H 0.45104 0.65898 0.36646 0.0
H607 H 0.6956 0.8492 0.33166 0.0
H608 H 0.77997 0.95652 0.30666 0.0
H609 H 0.7026 0.10786 0.33528 0.0
H610 H 0.61622 0.00067 0.36015 0.0
H611 H 0.75541 0.91305 0.45392 0.0
H612 H 0.7076 0.84823 0.41932 0.0
H613 H 0.47748 0.823 0.43217 0.0
H614 H 0.52553 0.88888 0.46683 0.0
H615 H 0.65678 0.92736 0.39004 0.0
H616 H 0.35953 0.68466 0.40815 0.0
H617 H 0.27765 0.56725 0.43071 0.0
H618 H 0.47074 0.51885 0.43418 0.0
H619 H 0.55403 0.63697 0.41201 0.0
C620 C 0.48732 0.7712 0.29757 0.0
C621 C 0.50627 0.71517 0.28936 0.0
C622 C 0.49766 0.79084 0.31933 0.0
C623 C 0.5258 0.75374 0.33324 0.0
C624 C 0.54262 0.69624 0.32514 0.0
C625 C 0.53372 0.67771 0.30337 0.0
C626 C 0.53988 0.77586 0.35618 0.0
C627 C 0.49566 0.71794 0.37159 0.0
C628 C 0.59809 0.85267 0.36292 0.0
C629 C 0.64833 0.91634 0.34754 0.0
C630 C 0.69549 0.90485 0.3324 0.0
C631 C 0.74391 0.96579 0.31829 0.0
C632 C 0.74636 0.03884 0.31931 0.0
C633 C 0.70036 0.05111 0.33444 0.0
C634 C 0.65158 0.99024 0.34853 0.0
C635 C 0.69386 0.89139 0.44966 0.0
C636 C 0.64428 0.90598 0.46306 0.0
C637 C 0.66661 0.8544 0.4299 0.0
C638 C 0.58912 0.83105 0.42312 0.0
C639 C 0.53728 0.83989 0.43716 0.0
C640 C 0.56477 0.87742 0.457 0.0
C641 C 0.56821 0.81039 0.4003 0.0
C642 C 0.6112 0.86887 0.38488 0.0
C643 C 0.50901 0.73447 0.39353 0.0
C644 C 0.46291 0.66964 0.40873 0.0
C645 C 0.38467 0.64947 0.41403 0.0
C646 C 0.33801 0.58276 0.42665 0.0
C647 C 0.3689 0.53546 0.43379 0.0
C648 C 0.44688 0.55545 0.42859 0.0
C649 C 0.49406 0.62267 0.4162 0.0
H650 H 0.33255 0.48352 0.44344 0.0
H651 H 0.78414 0.08606 0.30843 0.0
H652 H 0.87069 0.23361 0.73545 0.0
H653 H 0.84054 0.19464 0.69812 0.0
H654 H 0.86355 0.42212 0.68342 0.0
H655 H 0.89956 0.46354 0.72055 0.0
H656 H 0.72335 0.1695 0.67558 0.0
H657 H 0.91193 0.46953 0.63103 0.0
H658 H 0.04047 0.59321 0.63499 0.0
H659 H 0.12955 0.47021 0.67273 0.0
H660 H 0.002 0.34562 0.66876 0.0
H661 H 0.57252 0.11049 0.57277 0.0
H662 H 0.6282 0.18338 0.60607 0.0
H663 H 0.85316 0.19915 0.59127 0.0
H664 H 0.79778 0.12666 0.55799 0.0
H665 H 0.87486 0.33101 0.61296 0.0
H666 H 0.72482 0.05059 0.6199 0.0
H667 H 0.60909 0.91685 0.61538 0.0
H668 H 0.46631 0.98284 0.65343 0.0
H669 H 0.58083 0.11799 0.65768 0.0
C670 C 0.87118 0.27614 0.72421 0.0
C671 C 0.88746 0.35177 0.73105 0.0
C672 C 0.85299 0.2534 0.70286 0.0
C673 C 0.84994 0.30537 0.68781 0.0
C674 C 0.86669 0.3812 0.69456 0.0
C675 C 0.88619 0.40447 0.71589 0.0
C676 C 0.82586 0.27849 0.66536 0.0
C677 C 0.75665 0.20516 0.66196 0.0
C678 C 0.86986 0.32389 0.64743 0.0
C679 C 0.94701 0.39845 0.6498 0.0
C680 C 0.95902 0.46884 0.64012 0.0
C681 C 0.03171 0.5391 0.64237 0.0
C682 C 0.09303 0.53963 0.65417 0.0
C683 C 0.08189 0.46981 0.66368 0.0
C684 C 0.00936 0.39937 0.66146 0.0
C685 C 0.63445 0.13142 0.5764 0.0
C686 C 0.68083 0.11311 0.5628 0.0
C687 C 0.66618 0.17295 0.59539 0.0
C688 C 0.74444 0.19553 0.60132 0.0
C689 C 0.79267 0.18232 0.58702 0.0
C690 C 0.76092 0.14088 0.56797 0.0
C691 C 0.77211 0.22314 0.62343 0.0
C692 C 0.84167 0.29614 0.6267 0.0
C693 C 0.73033 0.1761 0.64131 0.0
C694 C 0.66123 0.09476 0.6389 0.0
C695 C 0.66856 0.03689 0.62714 0.0
C696 C 0.60319 0.96076 0.62464 0.0
C697 C 0.53035 0.9413 0.63411 0.0
C698 C 0.52275 -0.00196 0.64608 0.0
C699 C 0.58786 0.07448 0.64851 0.0
H700 H 0.47987 0.88222 0.63221 0.0
H701 H 0.14924 0.59409 0.65591 0.0
loop_
_geom_bond_atom_site_label_1
_geom_bond_atom_site_label_2
_geom_bond_distance
_geom_bond_site_symmetry_2
_ccdc_geom_bond_type
Eu0 N31 2.657 . S
Eu0 N38 2.609 . S
Eu0 O44 2.558 . S
Eu0 O45 2.612 1_455 S
Eu0 O47 2.339 . S
Eu0 O48 2.566 . S
Eu0 O49 2.419 . S
Eu0 O51 2.380 . S
Eu0 O52 2.432 . S
Eu0 C64 2.848 . S
C1 C4 1.429 . S
C1 C5 1.411 . S
C1 N8 1.377 . S
C2 C4 1.420 . S
C2 C6 1.423 . S
C2 C14 1.392 . S
C3 C5 1.420 . S
C3 C6 1.351 . S
C3 H26 0.931 . S
C4 C1 1.429 . S
C4 C2 1.420 . S
C4 N12 1.362 . S
C5 C1 1.411 . S
C5 C3 1.420 . S
C5 C10 1.395 . S
C6 C2 1.423 . S
C6 C3 1.351 . S
C6 H18 0.930 . S
C7 C9 1.400 . S
C7 C10 1.386 . S
C7 H19 0.930 . S
N8 C1 1.377 . S
N8 C9 1.321 . S
N8 Eu11 2.609 . S
C9 C7 1.400 . S
C9 N8 1.321 . S
C9 H16 0.930 . S
C10 C5 1.395 . S
C10 C7 1.386 . S
C10 H29 0.930 . S
Eu11 N8 2.609 . S
Eu11 N12 2.657 . S
Eu11 O45 2.380 . S
Eu11 O46 2.432 . S
Eu11 O50 2.558 . S
Eu11 O51 2.612 1_655 S
Eu11 O53 2.339 . S
Eu11 O54 2.561 1_655 S
Eu11 O55 2.419 . S
Eu11 C75 2.848 . S
N12 C4 1.362 . S
N12 Eu11 2.657 . S
N12 C13 1.334 . S
C13 N12 1.334 . S
C13 C15 1.413 . S
C13 H20 0.929 . S
C14 C2 1.392 . S
C14 C15 1.367 . S
C14 H22 0.930 . S
C15 C13 1.413 . S
C15 C14 1.367 . S
C15 H17 0.930 . S
H16 C9 0.930 . S
H17 C15 0.930 . S
H18 C6 0.930 . S
H19 C7 0.930 . S
H20 C13 0.929 . S
H21 C35 0.930 . S
H22 C14 0.930 . S
H23 C41 0.930 . S
H24 C32 0.929 . S
H25 C39 0.930 . S
H26 C3 0.931 . S
H27 C33 0.930 . S
H28 C66 0.930 . S
H29 C10 0.930 . S
H30 C65 0.931 . S
N31 Eu0 2.657 . S
N31 C32 1.334 . S
N31 C36 1.362 . S
C32 H24 0.929 . S
C32 N31 1.334 . S
C32 C35 1.413 . S
C33 H27 0.930 . S
C33 C34 1.392 . S
C33 C35 1.367 . S
C34 C33 1.392 . S
C34 C36 1.420 . S
C34 C66 1.423 . S
C35 H21 0.930 . S
C35 C32 1.413 . S
C35 C33 1.367 . S
C36 N31 1.362 . S
C36 C34 1.420 . S
C36 C40 1.429 . S
H37 C42 0.930 . S
N38 Eu0 2.609 . S
N38 C40 1.377 . S
N38 C41 1.321 . S
C39 H25 0.930 . S
C39 C41 1.400 . S
C39 C42 1.386 . S
C40 C36 1.429 . S
C40 N38 1.377 . S
C40 C43 1.411 . S
C41 H23 0.930 . S
C41 N38 1.321 . S
C41 C39 1.400 . S
C42 H37 0.930 . S
C42 C39 1.386 . S
C42 C43 1.395 . S
C43 C40 1.411 . S
C43 C42 1.395 . S
C43 C65 1.420 . S
O44 Eu0 2.558 . S
O44 C64 1.257 . S
O45 Eu0 2.612 1_655 S
O45 Eu11 2.380 . S
O45 C56 1.276 . S
O46 Eu11 2.432 . S
O46 C63 1.264 1_655 S
O47 Eu0 2.339 . S
O47 C63 1.254 . S
O48 Eu0 2.566 . S
O48 C56 1.232 1_455 S
O49 Eu0 2.419 . S
O49 C64 1.249 . S
O50 Eu11 2.558 . S
O50 C75 1.257 . S
O51 Eu0 2.380 . S
O51 Eu11 2.612 1_455 S
O51 C67 1.276 . S
O52 Eu0 2.432 . S
O52 C74 1.264 1_455 S
O53 Eu11 2.339 . S
O53 C74 1.254 . S
O54 Eu11 2.561 1_455 S
O54 C67 1.238 . S
O55 Eu11 2.419 . S
O55 C75 1.249 . S
C56 O45 1.276 . S
C56 O48 1.232 1_655 S
C57 C59 1.393 . S
C57 C61 1.395 . S
C57 C64 1.492 . S
C58 C59 1.392 . S
C58 C60 1.386 . S
C59 C57 1.393 . S
C59 C58 1.392 . S
C59 H76 0.930 . S
C60 C58 1.386 . S
C60 C62 1.395 . S
C60 H77 0.930 . S
C61 C57 1.395 . S
C61 C62 1.379 . S
C61 H78 0.930 . S
C62 C60 1.395 . S
C62 C61 1.379 . S
C62 H79 0.930 . S
C63 O46 1.264 1_455 S
C63 O47 1.254 . S
C64 Eu0 2.848 . S
C64 O44 1.257 . S
C64 O49 1.249 . S
C64 C57 1.492 . S
C65 H30 0.931 . S
C65 C43 1.420 . S
C65 C66 1.351 . S
C66 H28 0.930 . S
C66 C34 1.423 . S
C66 C65 1.351 . S
C67 O51 1.276 . S
C67 O54 1.238 . S
C68 C69 1.393 . S
C68 C72 1.395 . S
C68 C75 1.492 . S
C69 C68 1.393 . S
C69 C70 1.392 . S
C69 H80 0.930 . S
C70 C69 1.392 . S
C70 C71 1.386 . S
C71 C70 1.386 . S
C71 C73 1.395 . S
C71 H81 0.930 . S
C72 C68 1.395 . S
C72 C73 1.379 . S
C72 H82 0.930 . S
C73 C71 1.395 . S
C73 C72 1.379 . S
C73 H83 0.930 . S
C74 O52 1.264 1_655 S
C74 O53 1.254 . S
C75 Eu11 2.848 . S
C75 O50 1.257 . S
C75 O55 1.249 . S
C75 C68 1.492 . S
H76 C59 0.930 . S
H77 C60 0.930 . S
H78 C61 0.930 . S
H79 C62 0.930 . S
H80 C69 0.930 . S
H81 C71 0.930 . S
H82 C72 0.930 . S
H83 C73 0.930 . S
Eu84 N115 2.657 1_545 S
Eu84 N122 2.609 1_545 S
Eu84 O128 2.558 . S
Eu84 O129 2.612 . S
Eu84 O131 2.339 . S
Eu84 O132 2.563 . S
Eu84 O133 2.419 . S
Eu84 O135 2.380 . S
Eu84 O136 2.432 . S
Eu84 C148 2.848 1_545 S
C85 C88 1.429 . S
C85 C89 1.411 1_655 S
C85 N92 1.377 . S
C86 C88 1.420 . S
C86 C90 1.423 1_655 S
C86 C98 1.392 . S
C87 C89 1.420 . S
C87 C90 1.351 . S
C87 H110 0.931 . S
C88 C85 1.429 . S
C88 C86 1.420 . S
C88 N96 1.362 . S
C89 C85 1.411 1_455 S
C89 C87 1.420 . S
C89 C94 1.395 . S
C90 C86 1.423 1_455 S
C90 C87 1.351 . S
C90 H102 0.930 . S
C91 C93 1.400 . S
C91 C94 1.386 . S
C91 H103 0.930 . S
N92 C85 1.377 . S
N92 C93 1.321 1_655 S
N92 Eu95 2.609 . S
C93 C91 1.400 . S
C93 N92 1.321 1_455 S
C93 H100 0.930 . S
C94 C89 1.395 . S
C94 C91 1.386 . S
C94 H113 0.930 . S
Eu95 N92 2.609 . S
Eu95 N96 2.657 . S
Eu95 O129 2.380 . S
Eu95 O130 2.432 . S
Eu95 O134 2.558 . S
Eu95 O135 2.612 . S
Eu95 O137 2.339 . S
Eu95 O138 2.563 . S
Eu95 O139 2.419 . S
Eu95 C159 2.848 . S
N96 C88 1.362 . S
N96 Eu95 2.657 . S
N96 C97 1.334 . S
C97 N96 1.334 . S
C97 C99 1.413 . S
C97 H104 0.929 . S
C98 C86 1.392 . S
C98 C99 1.367 . S
C98 H106 0.930 . S
C99 C97 1.413 . S
C99 C98 1.367 . S
C99 H101 0.930 . S
H100 C93 0.930 . S
H101 C99 0.930 . S
H102 C90 0.930 . S
H103 C91 0.930 . S
H104 C97 0.929 . S
H105 C119 0.930 . S
H106 C98 0.930 . S
H107 C125 0.930 1_545 S
H108 C116 0.928 1_545 S
H109 C123 0.930 . S
H110 C87 0.931 . S
H111 C117 0.930 . S
H112 C150 0.930 . S
H113 C94 0.930 . S
H114 C149 0.931 . S
N115 Eu84 2.657 1_565 S
N115 C116 1.334 . S
N115 C120 1.362 . S
C116 H108 0.928 1_565 S
C116 N115 1.334 . S
C116 C119 1.413 . S
C117 H111 0.930 . S
C117 C118 1.392 . S
C117 C119 1.367 . S
C118 C117 1.392 . S
C118 C120 1.420 . S
C118 C150 1.423 . S
C119 H105 0.930 . S
C119 C116 1.413 . S
C119 C117 1.367 . S
C120 N115 1.362 . S
C120 C118 1.420 . S
C120 C124 1.429 . S
H121 C126 0.930 . S
N122 Eu84 2.609 1_565 S
N122 C124 1.377 . S
N122 C125 1.321 . S
C123 H109 0.930 . S
C123 C125 1.400 . S
C123 C126 1.386 . S
C124 C120 1.429 . S
C124 N122 1.377 . S
C124 C127 1.411 . S
C125 H107 0.930 1_565 S
C125 N122 1.321 . S
C125 C123 1.400 . S
C126 H121 0.930 . S
C126 C123 1.386 . S
C126 C127 1.395 . S
C127 C124 1.411 . S
C127 C126 1.395 . S
C127 C149 1.420 . S
O128 Eu84 2.558 . S
O128 C148 1.257 1_545 S
O129 Eu84 2.612 . S
O129 Eu95 2.380 . S
O129 C140 1.276 . S
O130 Eu95 2.432 . S
O130 C147 1.264 . S
O131 Eu84 2.339 . S
O131 C147 1.254 . S
O132 Eu84 2.563 . S
O132 C140 1.235 . S
O133 Eu84 2.419 . S
O133 C148 1.249 1_545 S
O134 Eu95 2.558 . S
O134 C159 1.257 . S
O135 Eu84 2.380 . S
O135 Eu95 2.612 . S
O135 C151 1.276 . S
O136 Eu84 2.432 . S
O136 C158 1.264 . S
O137 Eu95 2.339 . S
O137 C158 1.254 . S
O138 Eu95 2.563 . S
O138 C151 1.235 . S
O139 Eu95 2.419 . S
O139 C159 1.249 . S
C140 O129 1.276 . S
C140 O132 1.235 . S
C141 C143 1.393 . S
C141 C145 1.395 . S
C141 C148 1.492 . S
C142 C143 1.392 . S
C142 C144 1.386 . S
C143 C141 1.393 . S
C143 C142 1.392 . S
C143 H160 0.930 . S
C144 C142 1.386 . S
C144 C146 1.395 . S
C144 H161 0.930 . S
C145 C141 1.395 . S
C145 C146 1.379 . S
C145 H162 0.930 . S
C146 C144 1.395 . S
C146 C145 1.379 . S
C146 H163 0.930 . S
C147 O130 1.264 . S
C147 O131 1.254 . S
C148 Eu84 2.848 1_565 S
C148 O128 1.257 1_565 S
C148 O133 1.249 1_565 S
C148 C141 1.492 . S
C149 H114 0.931 . S
C149 C127 1.420 . S
C149 C150 1.351 . S
C150 H112 0.930 . S
C150 C118 1.423 . S
C150 C149 1.351 . S
C151 O135 1.276 . S
C151 O138 1.235 . S
C152 C153 1.393 . S
C152 C156 1.395 . S
C152 C159 1.492 . S
C153 C152 1.393 . S
C153 C154 1.392 . S
C153 H164 0.930 . S
C154 C153 1.392 . S
C154 C155 1.386 . S
C155 C154 1.386 . S
C155 C157 1.395 . S
C155 H165 0.930 . S
C156 C152 1.395 . S
C156 C157 1.379 . S
C156 H166 0.930 1_655 S
C157 C155 1.395 . S
C157 C156 1.379 . S
C157 H167 0.930 1_655 S
C158 O136 1.264 . S
C158 O137 1.254 . S
C159 Eu95 2.848 . S
C159 O134 1.257 . S
C159 O139 1.249 . S
C159 C152 1.492 . S
H160 C143 0.930 . S
H161 C144 0.930 . S
H162 C145 0.930 . S
H163 C146 0.930 . S
H164 C153 0.930 . S
H165 C155 0.930 . S
H166 C156 0.930 1_455 S
H167 C157 0.930 1_455 S
Eu168 N199 2.657 . S
Eu168 N206 2.609 . S
Eu168 O212 2.558 . S
Eu168 O213 2.612 . S
Eu168 O215 2.339 . S
Eu168 O216 2.563 . S
Eu168 O217 2.419 . S
Eu168 O219 2.380 . S
Eu168 O220 2.432 . S
Eu168 C232 2.848 . S
C169 C172 1.429 . S
C169 C173 1.411 . S
C169 N176 1.377 . S
C170 C172 1.420 . S
C170 C174 1.423 . S
C170 C182 1.392 1_655 S
C171 C173 1.420 . S
C171 C174 1.351 . S
C171 H194 0.931 . S
C172 C169 1.429 . S
C172 C170 1.420 . S
C172 N180 1.362 . S
C173 C169 1.411 . S
C173 C171 1.420 . S
C173 C178 1.395 . S
C174 C170 1.423 . S
C174 C171 1.351 . S
C174 H186 0.930 . S
C175 C177 1.400 . S
C175 C178 1.386 . S
C175 H187 0.930 . S
N176 C169 1.377 . S
N176 C177 1.321 . S
N176 Eu179 2.609 . S
C177 C175 1.400 . S
C177 N176 1.321 . S
C177 H184 0.930 . S
C178 C173 1.395 . S
C178 C175 1.386 . S
C178 H197 0.930 1_545 S
Eu179 N176 2.609 . S
Eu179 N180 2.657 . S
Eu179 O213 2.380 . S
Eu179 O214 2.432 . S
Eu179 O218 2.558 . S
Eu179 O219 2.612 . S
Eu179 O221 2.339 . S
Eu179 O222 2.563 . S
Eu179 O223 2.419 . S
Eu179 C243 2.848 . S
N180 C172 1.362 . S
N180 Eu179 2.657 . S
N180 C181 1.334 . S
C181 N180 1.334 . S
C181 C183 1.413 1_655 S
C181 H188 0.929 . S
C182 C170 1.392 1_455 S
C182 C183 1.367 . S
C182 H190 0.930 . S
C183 C181 1.413 1_455 S
C183 C182 1.367 . S
C183 H185 0.930 . S
H184 C177 0.930 . S
H185 C183 0.930 . S
H186 C174 0.930 . S
H187 C175 0.930 . S
H188 C181 0.929 . S
H189 C203 0.930 . S
H190 C182 0.930 . S
H191 C209 0.930 . S
H192 C200 0.929 . S
H193 C207 0.930 . S
H194 C171 0.931 . S
H195 C201 0.930 . S
H196 C234 0.930 . S
H197 C178 0.930 1_565 S
H198 C233 0.931 . S
N199 Eu168 2.657 . S
N199 C200 1.334 . S
N199 C204 1.362 . S
C200 H192 0.929 . S
C200 N199 1.334 . S
C200 C203 1.413 . S
C201 H195 0.930 . S
C201 C202 1.392 . S
C201 C203 1.367 . S
C202 C201 1.392 . S
C202 C204 1.420 . S
C202 C234 1.423 . S
C203 H189 0.930 . S
C203 C200 1.413 . S
C203 C201 1.367 . S
C204 N199 1.362 . S
C204 C202 1.420 . S
C204 C208 1.429 . S
H205 C210 0.930 . S
N206 Eu168 2.609 . S
N206 C208 1.377 . S
N206 C209 1.321 . S
C207 H193 0.930 . S
C207 C209 1.400 . S
C207 C210 1.386 . S
C208 C204 1.429 . S
C208 N206 1.377 . S
C208 C211 1.411 . S
C209 H191 0.930 . S
C209 N206 1.321 . S
C209 C207 1.400 . S
C210 H205 0.930 . S
C210 C207 1.386 . S
C210 C211 1.395 . S
C211 C208 1.411 . S
C211 C210 1.395 . S
C211 C233 1.420 . S
O212 Eu168 2.558 . S
O212 C232 1.257 . S
O213 Eu168 2.612 . S
O213 Eu179 2.380 . S
O213 C224 1.276 . S
O214 Eu179 2.432 . S
O214 C231 1.264 . S
O215 Eu168 2.339 . S
O215 C231 1.254 . S
O216 Eu168 2.563 . S
O216 C224 1.235 . S
O217 Eu168 2.419 . S
O217 C232 1.249 . S
O218 Eu179 2.558 . S
O218 C243 1.257 . S
O219 Eu168 2.380 . S
O219 Eu179 2.612 . S
O219 C235 1.276 . S
O220 Eu168 2.432 . S
O220 C242 1.264 . S
O221 Eu179 2.339 . S
O221 C242 1.254 . S
O222 Eu179 2.563 . S
O222 C235 1.235 . S
O223 Eu179 2.419 . S
O223 C243 1.249 . S
C224 O213 1.276 . S
C224 O216 1.235 . S
C225 C227 1.393 . S
C225 C229 1.395 . S
C225 C232 1.492 . S
C226 C227 1.392 . S
C226 C228 1.386 . S
C227 C225 1.393 . S
C227 C226 1.392 . S
C227 H244 0.930 . S
C228 C226 1.386 . S
C228 C230 1.395 . S
C228 H245 0.930 . S
C229 C225 1.395 . S
C229 C230 1.379 . S
C229 H246 0.930 . S
C230 C228 1.395 . S
C230 C229 1.379 . S
C230 H247 0.930 . S
C231 O214 1.264 . S
C231 O215 1.254 . S
C232 Eu168 2.848 . S
C232 O212 1.257 . S
C232 O217 1.249 . S
C232 C225 1.492 . S
C233 H198 0.931 . S
C233 C211 1.420 . S
C233 C234 1.351 . S
C234 H196 0.930 . S
C234 C202 1.423 . S
C234 C233 1.351 . S
C235 O219 1.276 . S
C235 O222 1.235 . S
C236 C237 1.393 . S
C236 C240 1.395 . S
C236 C243 1.492 . S
C237 C236 1.393 . S
C237 C238 1.392 . S
C237 H248 0.930 . S
C238 C237 1.392 . S
C238 C239 1.386 . S
C239 C238 1.386 . S
C239 C241 1.395 . S
C239 H249 0.930 . S
C240 C236 1.395 . S
C240 C241 1.379 . S
C240 H250 0.930 . S
C241 C239 1.395 . S
C241 C240 1.379 . S
C241 H251 0.930 . S
C242 O220 1.264 . S
C242 O221 1.254 . S
C243 Eu179 2.848 . S
C243 O218 1.257 . S
C243 O223 1.249 . S
C243 C236 1.492 . S
H244 C227 0.930 . S
H245 C228 0.930 . S
H246 C229 0.930 . S
H247 C230 0.930 . S
H248 C237 0.930 . S
H249 C239 0.930 . S
H250 C240 0.930 . S
H251 C241 0.930 . S
H252 C270 0.951 . S
H253 C272 0.951 . S
H254 C274 0.950 . S
H255 C275 0.950 . S
H256 C277 0.950 . S
H257 C280 0.950 . S
H258 C281 0.950 . S
H259 C283 0.950 1_545 S
H260 C284 0.950 1_545 S
H261 C285 0.951 . S
H262 C287 0.951 . S
H263 C289 0.950 . S
H264 C290 0.950 . S
H265 C292 0.950 1_545 S
H266 C295 0.950 . S
H267 C296 0.950 . S
H268 C298 0.950 . S
H269 C299 0.950 . S
C270 H252 0.951 . S
C270 C271 1.366 . S
C270 C272 1.388 . S
C271 C270 1.366 . S
C271 C275 1.385 1_455 S
C272 H253 0.951 . S
C272 C270 1.388 . S
C272 C273 1.366 . S
C273 C272 1.366 . S
C273 C274 1.414 1_455 S
C273 C276 1.503 . S
C274 H254 0.950 . S
C274 C273 1.414 1_655 S
C274 C275 1.374 . S
C275 H255 0.950 . S
C275 C271 1.385 1_655 S
C275 C274 1.374 . S
C276 C273 1.503 . S
C276 C277 1.367 1_455 S
C276 C278 1.392 . S
C277 H256 0.950 . S
C277 C276 1.367 1_655 S
C277 C293 1.377 . S
C278 C276 1.392 . S
C278 C279 1.524 . S
C278 C292 1.377 . S
C279 C278 1.524 . S
C279 C280 1.397 . S
C279 C284 1.363 . S
C280 H257 0.950 . S
C280 C279 1.397 . S
C280 C281 1.334 . S
C281 H258 0.950 . S
C281 C280 1.334 . S
C281 C282 1.287 . S
C282 C281 1.287 . S
C282 C283 1.524 . S
C282 H301 0.913 . S
C283 H259 0.950 1_565 S
C283 C282 1.524 . S
C283 C284 1.415 . S
C284 H260 0.950 1_565 S
C284 C279 1.363 . S
C284 C283 1.415 . S
C285 H261 0.951 . S
C285 C286 1.366 . S
C285 C287 1.388 . S
C286 C285 1.366 . S
C286 C290 1.385 1_655 S
C287 H262 0.951 . S
C287 C285 1.388 . S
C287 C288 1.366 . S
C288 C287 1.366 . S
C288 C289 1.414 1_655 S
C288 C291 1.499 1_645 S
C289 H263 0.950 . S
C289 C288 1.414 1_455 S
C289 C290 1.374 . S
C290 H264 0.950 . S
C290 C286 1.385 1_455 S
C290 C289 1.374 . S
C291 C288 1.499 1_465 S
C291 C292 1.373 . S
C291 C293 1.389 1_455 S
C292 H265 0.950 1_565 S
C292 C278 1.377 . S
C292 C291 1.373 . S
C293 C277 1.377 . S
C293 C291 1.389 1_655 S
C293 C294 1.524 . S
C294 C293 1.524 . S
C294 C295 1.397 . S
C294 C299 1.363 . S
C295 H266 0.950 . S
C295 C294 1.397 . S
C295 C296 1.334 . S
C296 H267 0.950 . S
C296 C295 1.334 . S
C296 C297 1.287 . S
C297 C296 1.287 . S
C297 C298 1.524 . S
C297 H300 0.999 . S
C298 H268 0.950 . S
C298 C297 1.524 . S
C298 C299 1.415 . S
C299 H269 0.950 . S
C299 C294 1.363 . S
C299 C298 1.415 . S
H300 C297 0.999 . S
H301 C282 0.913 . S
H302 C320 0.951 . S
H303 C322 0.951 . S
H304 C324 0.950 . S
H305 C325 0.950 . S
H306 C327 0.950 . S
H307 C330 0.950 . S
H308 C331 0.950 . S
H309 C333 0.950 . S
H310 C334 0.950 . S
H311 C335 0.951 . S
H312 C337 0.951 . S
H313 C339 0.950 . S
H314 C340 0.959 . S
H315 C342 0.950 . S
H316 C345 0.950 . S
H317 C346 0.950 1_655 S
H318 C348 0.950 . S
H319 C349 0.950 . S
C320 H302 0.951 . S
C320 C321 1.366 . S
C320 C322 1.388 . S
C321 C320 1.366 . S
C321 C325 1.385 . S
C322 H303 0.951 . S
C322 C320 1.388 . S
C322 C323 1.366 . S
C323 C322 1.366 . S
C323 C324 1.414 . S
C323 C326 1.499 . S
C324 H304 0.950 . S
C324 C323 1.414 . S
C324 C325 1.374 . S
C325 H305 0.950 . S
C325 C321 1.385 . S
C325 C324 1.374 . S
C326 C323 1.499 . S
C326 C327 1.373 . S
C326 C328 1.389 . S
C327 H306 0.950 . S
C327 C326 1.373 . S
C327 C343 1.377 . S
C328 C326 1.389 . S
C328 C329 1.524 . S
C328 C342 1.377 . S
C329 C328 1.524 . S
C329 C330 1.397 . S
C329 C334 1.363 . S
C330 H307 0.950 . S
C330 C329 1.397 . S
C330 C331 1.334 . S
C331 H308 0.950 . S
C331 C330 1.334 . S
C331 C332 1.287 . S
C332 C331 1.287 . S
C332 C333 1.524 . S
C332 H351 0.913 . S
C333 H309 0.950 . S
C333 C332 1.524 . S
C333 C334 1.415 . S
C334 H310 0.950 . S
C334 C329 1.363 . S
C334 C333 1.415 . S
C335 H311 0.951 . S
C335 C336 1.366 1_455 S
C335 C337 1.388 . S
C336 C335 1.366 1_655 S
C336 C340 1.391 . S
C337 H312 0.951 . S
C337 C335 1.388 . S
C337 C338 1.366 . S
C338 C337 1.366 . S
C338 C339 1.414 . S
C338 C341 1.499 . S
C339 H313 0.950 . S
C339 C338 1.414 . S
C339 C340 1.359 1_455 S
C340 H314 0.959 . S
C340 C336 1.391 . S
C340 C339 1.359 1_655 S
C341 C338 1.499 . S
C341 C342 1.373 . S
C341 C343 1.389 . S
C342 H315 0.950 . S
C342 C328 1.377 . S
C342 C341 1.373 . S
C343 C327 1.377 . S
C343 C341 1.389 . S
C343 C344 1.524 . S
C344 C343 1.524 . S
C344 C345 1.397 . S
C344 C349 1.363 . S
C345 H316 0.950 . S
C345 C344 1.397 . S
C345 C346 1.334 1_545 S
C346 H317 0.950 1_455 S
C346 C345 1.334 1_565 S
C346 C347 1.287 . S
C347 C346 1.287 . S
C347 C348 1.524 1_565 S
C347 H350 0.999 . S
C348 H318 0.950 . S
C348 C347 1.524 1_545 S
C348 C349 1.415 . S
C349 H319 0.950 . S
C349 C344 1.363 . S
C349 C348 1.415 . S
H350 C347 0.999 . S
H351 C332 0.913 . S
H352 C370 0.951 . S
H353 C372 0.951 . S
H354 C374 0.950 . S
H355 C375 0.950 . S
H356 C377 0.950 . S
H357 C380 0.950 . S
H358 C381 0.950 . S
H359 C383 0.950 . S
H360 C384 0.950 . S
H361 C385 0.951 . S
H362 C387 0.951 . S
H363 C389 0.950 . S
H364 C390 0.950 . S
H365 C392 0.950 . S
H366 C395 0.950 . S
H367 C396 0.950 . S
H368 C398 0.950 . S
H369 C399 0.950 . S
C370 H352 0.951 . S
C370 C371 1.366 1_455 S
C370 C372 1.388 . S
C371 C370 1.366 1_655 S
C371 C375 1.385 . S
C372 H353 0.951 . S
C372 C370 1.388 . S
C372 C373 1.366 . S
C373 C372 1.366 . S
C373 C374 1.414 . S
C373 C376 1.499 . S
C374 H354 0.950 . S
C374 C373 1.414 . S
C374 C375 1.374 1_455 S
C375 H355 0.950 . S
C375 C371 1.385 . S
C375 C374 1.374 1_655 S
C376 C373 1.499 . S
C376 C377 1.373 . S
C376 C378 1.389 . S
C377 H356 0.950 . S
C377 C376 1.373 . S
C377 C393 1.377 . S
C378 C376 1.389 . S
C378 C379 1.524 . S
C378 C392 1.377 . S
C379 C378 1.524 . S
C379 C380 1.397 . S
C379 C384 1.363 . S
C380 H357 0.950 . S
C380 C379 1.397 . S
C380 C381 1.334 . S
C381 H358 0.950 . S
C381 C380 1.334 . S
C381 C382 1.287 . S
C382 C381 1.287 . S
C382 C383 1.524 . S
C382 H401 0.913 . S
C383 H359 0.950 . S
C383 C382 1.524 . S
C383 C384 1.415 . S
C384 H360 0.950 . S
C384 C379 1.363 . S
C384 C383 1.415 . S
C385 H361 0.951 . S
C385 C386 1.366 . S
C385 C387 1.388 . S
C386 C385 1.366 . S
C386 C390 1.385 . S
C387 H362 0.951 . S
C387 C385 1.388 . S
C387 C388 1.366 . S
C388 C387 1.366 . S
C388 C389 1.414 . S
C388 C391 1.499 1_545 S
C389 H363 0.950 . S
C389 C388 1.414 . S
C389 C390 1.374 . S
C390 H364 0.950 . S
C390 C386 1.385 . S
C390 C389 1.374 . S
C391 C388 1.499 1_565 S
C391 C392 1.373 . S
C391 C393 1.389 . S
C392 H365 0.950 . S
C392 C378 1.377 . S
C392 C391 1.373 . S
C393 C377 1.377 . S
C393 C391 1.389 . S
C393 C394 1.524 1_565 S
C394 C393 1.524 1_545 S
C394 C395 1.397 . S
C394 C399 1.363 . S
C395 H366 0.950 . S
C395 C394 1.397 . S
C395 C396 1.334 . S
C396 H367 0.950 . S
C396 C395 1.334 . S
C396 C397 1.287 . S
C397 C396 1.287 . S
C397 C398 1.524 . S
C397 H400 0.999 . S
C398 H368 0.950 . S
C398 C397 1.524 . S
C398 C399 1.415 . S
C399 H369 0.950 . S
C399 C394 1.363 . S
C399 C398 1.415 . S
H400 C397 0.999 . S
H401 C382 0.913 . S
H402 C420 0.951 . S
H403 C422 0.951 . S
H404 C424 0.952 1_554 S
H405 C425 0.950 . S
H406 C427 0.950 . S
H407 C430 0.950 . S
H408 C431 0.950 . S
H409 C433 0.950 . S
H410 C434 0.948 1_554 S
H411 C435 0.951 . S
H412 C437 0.951 . S
H413 C439 0.950 . S
H414 C440 0.950 . S
H415 C442 0.950 . S
H416 C445 0.950 . S
H417 C446 0.950 . S
H418 C448 0.950 . S
H419 C449 0.950 . S
C420 H402 0.951 . S
C420 C421 1.366 . S
C420 C422 1.388 . S
C421 C420 1.366 . S
C421 C425 1.385 . S
C422 H403 0.951 . S
C422 C420 1.388 . S
C422 C423 1.366 . S
C423 C422 1.366 . S
C423 C424 1.414 . S
C423 C426 1.499 1_556 S
C424 H404 0.952 1_556 S
C424 C423 1.414 . S
C424 C425 1.372 . S
C425 H405 0.950 . S
C425 C421 1.385 . S
C425 C424 1.372 . S
C426 C423 1.499 1_554 S
C426 C427 1.373 . S
C426 C428 1.389 . S
C427 H406 0.950 . S
C427 C426 1.373 . S
C427 C443 1.377 . S
C428 C426 1.389 . S
C428 C429 1.524 . S
C428 C442 1.377 . S
C429 C428 1.524 . S
C429 C430 1.397 . S
C429 C434 1.363 1_554 S
C430 H407 0.950 . S
C430 C429 1.397 . S
C430 C431 1.334 1_554 S
C431 H408 0.950 . S
C431 C430 1.334 1_556 S
C431 C432 1.287 . S
C432 C431 1.287 . S
C432 C433 1.524 . S
C432 H451 0.913 . S
C433 H409 0.950 . S
C433 C432 1.524 . S
C433 C434 1.415 . S
C434 H410 0.948 1_556 S
C434 C429 1.363 1_556 S
C434 C433 1.415 . S
C435 H411 0.951 . S
C435 C436 1.366 . S
C435 C437 1.388 . S
C436 C435 1.366 . S
C436 C440 1.385 . S
C437 H412 0.951 . S
C437 C435 1.388 . S
C437 C438 1.366 . S
C438 C437 1.366 . S
C438 C439 1.414 . S
C438 C441 1.499 . S
C439 H413 0.950 . S
C439 C438 1.414 . S
C439 C440 1.374 . S
C440 H414 0.950 . S
C440 C436 1.385 . S
C440 C439 1.374 . S
C441 C438 1.499 . S
C441 C442 1.373 . S
C441 C443 1.389 . S
C442 H415 0.950 . S
C442 C428 1.377 . S
C442 C441 1.373 . S
C443 C427 1.377 . S
C443 C441 1.389 . S
C443 C444 1.524 . S
C444 C443 1.524 . S
C444 C445 1.397 . S
C444 C449 1.363 . S
C445 H416 0.950 . S
C445 C444 1.397 . S
C445 C446 1.334 . S
C446 H417 0.950 . S
C446 C445 1.334 . S
C446 C447 1.287 . S
C447 C446 1.287 . S
C447 C448 1.524 . S
C447 H450 0.999 . S
C448 H418 0.950 . S
C448 C447 1.524 . S
C448 C449 1.415 . S
C449 H419 0.950 . S
C449 C444 1.363 . S
C449 C448 1.415 . S
H450 C447 0.999 . S
H451 C432 0.913 . S
H452 C470 0.951 . S
H453 C472 0.951 . S
H454 C474 0.950 . S
H455 C475 0.950 . S
H456 C477 0.950 . S
H457 C480 0.950 . S
H458 C481 0.950 . S
H459 C483 0.948 1_455 S
H460 C484 0.950 . S
H461 C485 0.951 . S
H462 C487 0.951 . S
H463 C489 0.950 . S
H464 C490 0.950 . S
H465 C492 0.950 . S
H466 C495 0.950 . S
H467 C496 0.950 . S
H468 C498 0.950 . S
H469 C499 0.950 . S
C470 H452 0.951 . S
C470 C471 1.366 . S
C470 C472 1.388 . S
C471 C470 1.366 . S
C471 C475 1.385 . S
C472 H453 0.951 . S
C472 C470 1.388 . S
C472 C473 1.366 . S
C473 C472 1.366 . S
C473 C474 1.414 . S
C473 C476 1.499 . S
C474 H454 0.950 . S
C474 C473 1.414 . S
C474 C475 1.374 . S
C475 H455 0.950 . S
C475 C471 1.385 . S
C475 C474 1.374 . S
C476 C473 1.499 . S
C476 C477 1.373 . S
C476 C478 1.389 . S
C477 H456 0.950 . S
C477 C476 1.373 . S
C477 C493 1.377 . S
C478 C476 1.389 . S
C478 C479 1.524 . S
C478 C492 1.377 . S
C479 C478 1.524 . S
C479 C480 1.397 . S
C479 C484 1.363 . S
C480 H457 0.950 . S
C480 C479 1.397 . S
C480 C481 1.334 1_655 S
C481 H458 0.950 . S
C481 C480 1.334 1_455 S
C481 C482 1.287 . S
C482 C481 1.287 . S
C482 C483 1.524 1_455 S
C482 H501 0.913 . S
C483 H459 0.948 1_655 S
C483 C482 1.524 1_655 S
C483 C484 1.415 . S
C484 H460 0.950 . S
C484 C479 1.363 . S
C484 C483 1.415 . S
C485 H461 0.951 . S
C485 C486 1.366 . S
C485 C487 1.388 . S
C486 C485 1.366 . S
C486 C490 1.385 . S
C487 H462 0.951 . S
C487 C485 1.388 . S
C487 C488 1.366 . S
C488 C487 1.366 . S
C488 C489 1.414 . S
C488 C491 1.499 . S
C489 H463 0.950 . S
C489 C488 1.414 . S
C489 C490 1.374 . S
C490 H464 0.950 . S
C490 C486 1.385 . S
C490 C489 1.374 . S
C491 C488 1.499 . S
C491 C492 1.373 . S
C491 C493 1.389 . S
C492 H465 0.950 . S
C492 C478 1.377 . S
C492 C491 1.373 . S
C493 C477 1.377 . S
C493 C491 1.389 . S
C493 C494 1.524 . S
C494 C493 1.524 . S
C494 C495 1.397 . S
C494 C499 1.363 . S
C495 H466 0.950 . S
C495 C494 1.397 . S
C495 C496 1.334 . S
C496 H467 0.950 . S
C496 C495 1.334 . S
C496 C497 1.287 . S
C497 C496 1.287 . S
C497 C498 1.524 . S
C497 H500 0.999 . S
C498 H468 0.950 . S
C498 C497 1.524 . S
C498 C499 1.415 . S
C499 H469 0.950 . S
C499 C494 1.363 . S
C499 C498 1.415 . S
H500 C497 0.999 . S
H501 C482 0.913 . S
H502 C520 0.951 . S
H503 C522 0.951 . S
H504 C524 0.950 . S
H505 C525 0.950 . S
H506 C527 0.950 . S
H507 C530 0.950 . S
H508 C531 0.950 . S
H509 C533 0.950 . S
H510 C534 0.950 . S
H511 C535 0.951 . S
H512 C537 0.951 . S
H513 C539 0.950 . S
H514 C540 0.950 . S
H515 C542 0.950 . S
H516 C545 0.950 . S
H517 C546 0.950 . S
H518 C548 0.950 . S
H519 C549 0.950 . S
C520 H502 0.951 . S
C520 C521 1.366 . S
C520 C522 1.388 . S
C521 C520 1.366 . S
C521 C525 1.385 . S
C522 H503 0.951 . S
C522 C520 1.388 . S
C522 C523 1.366 . S
C523 C522 1.366 . S
C523 C524 1.414 . S
C523 C526 1.499 . S
C524 H504 0.950 . S
C524 C523 1.414 . S
C524 C525 1.374 . S
C525 H505 0.950 . S
C525 C521 1.385 . S
C525 C524 1.374 . S
C526 C523 1.499 . S
C526 C527 1.373 . S
C526 C528 1.389 . S
C527 H506 0.950 . S
C527 C526 1.373 . S
C527 C543 1.377 . S
C528 C526 1.389 . S
C528 C529 1.524 . S
C528 C542 1.377 . S
C529 C528 1.524 . S
C529 C530 1.397 . S
C529 C534 1.363 . S
C530 H507 0.950 . S
C530 C529 1.397 . S
C530 C531 1.334 . S
C531 H508 0.950 . S
C531 C530 1.334 . S
C531 C532 1.287 . S
C532 C531 1.287 . S
C532 C533 1.524 . S
C532 H551 0.913 . S
C533 H509 0.950 . S
C533 C532 1.524 . S
C533 C534 1.415 . S
C534 H510 0.950 . S
C534 C529 1.363 . S
C534 C533 1.415 . S
C535 H511 0.951 . S
C535 C536 1.366 . S
C535 C537 1.388 . S
C536 C535 1.366 . S
C536 C540 1.385 . S
C537 H512 0.951 . S
C537 C535 1.388 . S
C537 C538 1.366 . S
C538 C537 1.366 . S
C538 C539 1.414 . S
C538 C541 1.499 . S
C539 H513 0.950 . S
C539 C538 1.414 . S
C539 C540 1.374 . S
C540 H514 0.950 . S
C540 C536 1.385 . S
C540 C539 1.374 . S
C541 C538 1.499 . S
C541 C542 1.373 . S
C541 C543 1.389 . S
C542 H515 0.950 . S
C542 C528 1.377 . S
C542 C541 1.373 . S
C543 C527 1.377 . S
C543 C541 1.389 . S
C543 C544 1.524 . S
C544 C543 1.524 . S
C544 C545 1.397 . S
C544 C549 1.363 . S
C545 H516 0.950 . S
C545 C544 1.397 . S
C545 C546 1.334 . S
C546 H517 0.950 . S
C546 C545 1.334 . S
C546 C547 1.287 . S
C547 C546 1.287 . S
C547 C548 1.524 . S
C547 H550 0.999 . S
C548 H518 0.950 . S
C548 C547 1.524 . S
C548 C549 1.415 . S
C549 H519 0.950 . S
C549 C544 1.363 . S
C549 C548 1.415 . S
H550 C547 0.999 . S
H551 C532 0.913 . S
H552 C570 0.951 . S
H553 C572 0.951 . S
H554 C574 0.950 . S
H555 C575 0.950 . S
H556 C577 0.950 . S
H557 C580 0.950 . S
H558 C581 0.950 . S
H559 C583 0.950 1_565 S
H560 C584 0.950 . S
H561 C585 0.951 . S
H562 C587 0.951 . S
H563 C589 0.950 . S
H564 C590 0.950 . S
H565 C592 0.950 . S
H566 C595 0.950 . S
H567 C596 0.950 . S
H568 C598 0.947 1_554 S
H569 C599 0.950 . S
C570 H552 0.951 . S
C570 C571 1.366 . S
C570 C572 1.388 . S
C571 C570 1.366 . S
C571 C575 1.385 . S
C572 H553 0.951 . S
C572 C570 1.388 . S
C572 C573 1.366 . S
C573 C572 1.366 . S
C573 C574 1.414 . S
C573 C576 1.499 . S
C574 H554 0.950 . S
C574 C573 1.414 . S
C574 C575 1.374 . S
C575 H555 0.950 . S
C575 C571 1.385 . S
C575 C574 1.374 . S
C576 C573 1.499 . S
C576 C577 1.373 . S
C576 C578 1.389 . S
C577 H556 0.950 . S
C577 C576 1.373 . S
C577 C593 1.377 . S
C578 C576 1.389 . S
C578 C579 1.524 . S
C578 C592 1.377 . S
C579 C578 1.524 . S
C579 C580 1.397 . S
C579 C584 1.363 . S
C580 H557 0.950 . S
C580 C579 1.397 . S
C580 C581 1.334 . S
C581 H558 0.950 . S
C581 C580 1.334 . S
C581 C582 1.287 . S
C582 C581 1.287 . S
C582 C583 1.524 . S
C582 H601 0.913 . S
C583 H559 0.950 1_545 S
C583 C582 1.524 . S
C583 C584 1.415 . S
C584 H560 0.950 . S
C584 C579 1.363 . S
C584 C583 1.415 . S
C585 H561 0.951 . S
C585 C586 1.366 . S
C585 C587 1.388 . S
C586 C585 1.366 . S
C586 C590 1.385 . S
C587 H562 0.951 . S
C587 C585 1.388 . S
C587 C588 1.366 . S
C588 C587 1.366 . S
C588 C589 1.414 . S
C588 C591 1.499 1_554 S
C589 H563 0.950 . S
C589 C588 1.414 . S
C589 C590 1.374 . S
C590 H564 0.950 . S
C590 C586 1.385 . S
C590 C589 1.374 . S
C591 C588 1.499 1_556 S
C591 C592 1.373 . S
C591 C593 1.389 . S
C592 H565 0.950 . S
C592 C578 1.377 . S
C592 C591 1.373 . S
C593 C577 1.377 . S
C593 C591 1.389 . S
C593 C594 1.524 . S
C594 C593 1.524 . S
C594 C595 1.397 . S
C594 C599 1.363 . S
C595 H566 0.950 . S
C595 C594 1.397 . S
C595 C596 1.334 1_656 S
C596 H567 0.950 . S
C596 C595 1.334 1_454 S
C596 C597 1.287 . S
C597 C596 1.287 . S
C597 C598 1.520 1_554 S
C597 H600 0.999 . S
C598 H568 0.947 1_556 S
C598 C597 1.520 1_556 S
C598 C599 1.420 1_455 S
C599 H569 0.950 . S
C599 C594 1.363 . S
C599 C598 1.420 1_655 S
H600 C597 0.999 . S
H601 C582 0.913 . S
H602 C620 0.951 . S
H603 C622 0.951 . S
H604 C624 0.950 . S
H605 C625 0.950 . S
H606 C627 0.950 . S
H607 C630 0.950 . S
H608 C631 0.950 . S
H609 C633 0.950 . S
H610 C634 0.950 1_545 S
H611 C635 0.951 . S
H612 C637 0.951 . S
H613 C639 0.950 . S
H614 C640 0.950 . S
H615 C642 0.950 . S
H616 C645 0.950 . S
H617 C646 0.950 . S
H618 C648 0.950 . S
H619 C649 0.950 . S
C620 H602 0.951 . S
C620 C621 1.366 . S
C620 C622 1.388 . S
C621 C620 1.366 . S
C621 C625 1.385 . S
C622 H603 0.951 . S
C622 C620 1.388 . S
C622 C623 1.366 . S
C623 C622 1.366 . S
C623 C624 1.414 . S
C623 C626 1.499 . S
C624 H604 0.950 . S
C624 C623 1.414 . S
C624 C625 1.374 . S
C625 H605 0.950 . S
C625 C621 1.385 . S
C625 C624 1.374 . S
C626 C623 1.499 . S
C626 C627 1.373 . S
C626 C628 1.389 . S
C627 H606 0.950 . S
C627 C626 1.373 . S
C627 C643 1.377 . S
C628 C626 1.389 . S
C628 C629 1.524 . S
C628 C642 1.377 . S
C629 C628 1.524 . S
C629 C630 1.397 . S
C629 C634 1.363 . S
C630 H607 0.950 . S
C630 C629 1.397 . S
C630 C631 1.334 . S
C631 H608 0.950 . S
C631 C630 1.334 . S
C631 C632 1.287 . S
C632 C631 1.287 . S
C632 C633 1.524 1_565 S
C632 H651 0.913 . S
C633 H609 0.950 . S
C633 C632 1.524 1_545 S
C633 C634 1.415 1_545 S
C634 H610 0.950 1_565 S
C634 C629 1.363 . S
C634 C633 1.415 1_565 S
C635 H611 0.951 . S
C635 C636 1.366 1_565 S
C635 C637 1.388 . S
C636 C635 1.366 1_545 S
C636 C640 1.385 . S
C637 H612 0.951 . S
C637 C635 1.388 . S
C637 C638 1.366 . S
C638 C637 1.366 . S
C638 C639 1.414 1_565 S
C638 C641 1.499 . S
C639 H613 0.950 . S
C639 C638 1.414 1_545 S
C639 C640 1.374 . S
C640 H614 0.950 . S
C640 C636 1.385 . S
C640 C639 1.374 . S
C641 C638 1.499 . S
C641 C642 1.373 . S
C641 C643 1.389 . S
C642 H615 0.950 . S
C642 C628 1.377 . S
C642 C641 1.373 . S
C643 C627 1.377 . S
C643 C641 1.389 . S
C643 C644 1.524 . S
C644 C643 1.524 . S
C644 C645 1.397 . S
C644 C649 1.363 . S
C645 H616 0.950 . S
C645 C644 1.397 . S
C645 C646 1.334 . S
C646 H617 0.950 . S
C646 C645 1.334 . S
C646 C647 1.287 . S
C647 C646 1.287 . S
C647 C648 1.524 . S
C647 H650 0.999 . S
C648 H618 0.950 . S
C648 C647 1.524 . S
C648 C649 1.415 . S
C649 H619 0.950 . S
C649 C644 1.363 . S
C649 C648 1.415 . S
H650 C647 0.999 . S
H651 C632 0.913 . S
H652 C670 0.947 1_455 S
H653 C672 0.951 . S
H654 C674 0.950 . S
H655 C675 0.950 . S
H656 C677 0.950 . S
H657 C680 0.950 . S
H658 C681 0.950 . S
H659 C683 0.950 . S
H660 C684 0.950 . S
H661 C685 0.951 . S
H662 C687 0.951 . S
H663 C689 0.950 . S
H664 C690 0.950 . S
H665 C692 0.950 . S
H666 C695 0.950 . S
H667 C696 0.950 . S
H668 C698 0.950 . S
H669 C699 0.950 . S
C670 H652 0.947 1_655 S
C670 C671 1.366 1_655 S
C670 C672 1.388 . S
C671 C670 1.366 1_455 S
C671 C675 1.385 . S
C672 H653 0.951 . S
C672 C670 1.388 . S
C672 C673 1.366 . S
C673 C672 1.366 . S
C673 C674 1.414 . S
C673 C676 1.499 . S
C674 H654 0.950 . S
C674 C673 1.414 . S
C674 C675 1.374 1_655 S
C675 H655 0.950 . S
C675 C671 1.385 . S
C675 C674 1.374 1_455 S
C676 C673 1.499 . S
C676 C677 1.373 . S
C676 C678 1.389 . S
C677 H656 0.950 . S
C677 C676 1.373 . S
C677 C693 1.377 . S
C678 C676 1.389 . S
C678 C679 1.524 1_655 S
C678 C692 1.377 . S
C679 C678 1.524 1_455 S
C679 C680 1.397 . S
C679 C684 1.363 . S
C680 H657 0.950 . S
C680 C679 1.397 . S
C680 C681 1.334 . S
C681 H658 0.950 . S
C681 C680 1.334 . S
C681 C682 1.287 . S
C682 C681 1.287 . S
C682 C683 1.524 . S
C682 H701 0.913 . S
C683 H659 0.950 . S
C683 C682 1.524 . S
C683 C684 1.415 . S
C684 H660 0.950 . S
C684 C679 1.363 . S
C684 C683 1.415 . S
C685 H661 0.951 . S
C685 C686 1.366 . S
C685 C687 1.388 . S
C686 C685 1.366 . S
C686 C690 1.385 . S
C687 H662 0.951 . S
C687 C685 1.388 . S
C687 C688 1.366 . S
C688 C687 1.366 . S
C688 C689 1.414 . S
C688 C691 1.499 . S
C689 H663 0.950 . S
C689 C688 1.414 . S
C689 C690 1.374 . S
C690 H664 0.950 . S
C690 C686 1.385 . S
C690 C689 1.374 . S
C691 C688 1.499 . S
C691 C692 1.373 . S
C691 C693 1.389 . S
C692 H665 0.950 . S
C692 C678 1.377 . S
C692 C691 1.373 . S
C693 C677 1.377 . S
C693 C691 1.389 . S
C693 C694 1.524 . S
C694 C693 1.524 . S
C694 C695 1.397 . S
C694 C699 1.363 . S
C695 H666 0.950 . S
C695 C694 1.397 . S
C695 C696 1.334 . S
C696 H667 0.950 . S
C696 C695 1.334 . S
C696 C697 1.287 . S
C697 C696 1.287 . S
C697 C698 1.524 . S
C697 H700 0.999 . S
C698 H668 0.950 . S
C698 C697 1.524 . S
C698 C699 1.415 . S
C699 H669 0.950 . S
C699 C694 1.363 . S
C699 C698 1.415 . S
H700 C697 0.999 . S
H701 C682 0.913 . S
C271 C63 1.313 . S
C286 C74 1.313 . S
C321 C158 1.313 . S
C336 C147 1.313 . S
C371 C242 1.314 . S
C386 C231 1.314 . S
C421 C226 1.983 . S
C436 C67 2.143 . S
C471 C154 0.854 . S
C486 C56 0.914 . S
C521 C235 2.143 . S
C536 C142 1.982 . S
C571 C224 0.916 . S
C586 C70 0.851 . S
C621 C58 1.983 . S
C636 C151 2.143 . S
C671 C238 0.851 1_455 S
C686 C140 0.916 . S
