# Generated by pormake.
# Topology wjm, (5)-cn, num edge types: 1
# Building blocks:
#     Node 0, Type 0, BuildingBlock: XOMCOT_clean_sbu_1, # of connection points: 5
#     Node 1, Type 0, BuildingBlock: XOMCOT_clean_sbu_1, # of connection points: 5
#     Node 2, Type 0, BuildingBlock: XOMCOT_clean_sbu_1, # of connection points: 5
#     Node 3, Type 0, BuildingBlock: XOMCOT_clean_sbu_1, # of connection points: 5
#     Node 4, Type 0, BuildingBlock: XOMCOT_clean_sbu_1, # of connection points: 5
#     Node 5, Type 0, BuildingBlock: XOMCOT_clean_sbu_1, # of connection points: 5
#     Node 6, Type 0, BuildingBlock: XOMCOT_clean_sbu_1, # of connection points: 5
#     Node 7, Type 0, BuildingBlock: XOMCOT_clean_sbu_1, # of connection points: 5
#     Node 8, Type 0, BuildingBlock: XOMCOT_clean_sbu_1, # of connection points: 5
#     Node 9, Type 0, BuildingBlock: XOMCOT_clean_sbu_1, # of connection points: 5
#     Node 10, Type 0, BuildingBlock: XOMCOT_clean_sbu_1, # of connection points: 5
#     Node 11, Type 0, BuildingBlock: XOMCOT_clean_sbu_1, # of connection points: 5
#     Edge 12, Type (0, 0), BuildingBlock: TEMPAE_clean_linker_10, # of connection points: 2
#     Edge 13, Type (0, 0), BuildingBlock: TEMPAE_clean_linker_10, # of connection points: 2
#     Edge 14, Type (0, 0), BuildingBlock: TEMPAE_clean_linker_10, # of connection points: 2
#     Edge 15, Type (0, 0), BuildingBlock: TEMPAE_clean_linker_10, # of connection points: 2
#     Edge 16, Type (0, 0), BuildingBlock: TEMPAE_clean_linker_10, # of connection points: 2
#     Edge 17, Type (0, 0), BuildingBlock: TEMPAE_clean_linker_10, # of connection points: 2
#     Edge 18, Type (0, 0), BuildingBlock: TEMPAE_clean_linker_10, # of connection points: 2
#     Edge 19, Type (0, 0), BuildingBlock: TEMPAE_clean_linker_10, # of connection points: 2
#     Edge 20, Type (0, 0), BuildingBlock: TEMPAE_clean_linker_10, # of connection points: 2
#     Edge 21, Type (0, 0), BuildingBlock: TEMPAE_clean_linker_10, # of connection points: 2
#     Edge 22, Type (0, 0), BuildingBlock: TEMPAE_clean_linker_10, # of connection points: 2
#     Edge 23, Type (0, 0), BuildingBlock: TEMPAE_clean_linker_10, # of connection points: 2
#     Edge 24, Type (0, 0), BuildingBlock: TEMPAE_clean_linker_10, # of connection points: 2
#     Edge 25, Type (0, 0), BuildingBlock: TEMPAE_clean_linker_10, # of connection points: 2
#     Edge 26, Type (0, 0), BuildingBlock: TEMPAE_clean_linker_10, # of connection points: 2
#     Edge 27, Type (0, 0), BuildingBlock: TEMPAE_clean_linker_10, # of connection points: 2
#     Edge 28, Type (0, 0), BuildingBlock: TEMPAE_clean_linker_10, # of connection points: 2
#     Edge 29, Type (0, 0), BuildingBlock: TEMPAE_clean_linker_10, # of connection points: 2
#     Edge 30, Type (0, 0), BuildingBlock: TEMPAE_clean_linker_10, # of connection points: 2
#     Edge 31, Type (0, 0), BuildingBlock: TEMPAE_clean_linker_10, # of connection points: 2
#     Edge 32, Type (0, 0), BuildingBlock: TEMPAE_clean_linker_10, # of connection points: 2
#     Edge 33, Type (0, 0), BuildingBlock: TEMPAE_clean_linker_10, # of connection points: 2
#     Edge 34, Type (0, 0), BuildingBlock: TEMPAE_clean_linker_10, # of connection points: 2
#     Edge 35, Type (0, 0), BuildingBlock: TEMPAE_clean_linker_10, # of connection points: 2
#     Edge 36, Type (0, 0), BuildingBlock: TEMPAE_clean_linker_10, # of connection points: 2
#     Edge 37, Type (0, 0), BuildingBlock: TEMPAE_clean_linker_10, # of connection points: 2
#     Edge 38, Type (0, 0), BuildingBlock: TEMPAE_clean_linker_10, # of connection points: 2
#     Edge 39, Type (0, 0), BuildingBlock: TEMPAE_clean_linker_10, # of connection points: 2
#     Edge 40, Type (0, 0), BuildingBlock: TEMPAE_clean_linker_10, # of connection points: 2
#     Edge 41, Type (0, 0), BuildingBlock: TEMPAE_clean_linker_10, # of connection points: 2
# Relax obj value: 0.685
# Max RMSD: 0.275
# Mean RMSD: 0.275
data_MOF--net-wjm--node1-XOMCOT_clean_sbu_1--edge1-TEMPAE_clean_linker_10
_symmetry_space_group_name_H-M    P1
_symmetry_Int_Tables_number       1
_symmetry_cell_setting            triclinic
loop_
_symmetry_equiv_pos_as_xyz
'x, y, z'
_cell_length_a     33.265628
_cell_length_b     33.251451
_cell_length_c     41.972229
_cell_angle_alpha  90.067493
_cell_angle_beta   90.115577
_cell_angle_gamma 119.92174
loop_
_atom_site_label
_atom_site_type_symbol
_atom_site_fract_x
_atom_site_fract_y
_atom_site_fract_z
_atom_type_partial_charge
C0 C 0.34935 0.5055 0.1877 0.0
C1 C 0.38567 0.53509 0.20707 0.0
N2 N 0.37134 0.52568 0.23754 0.0
N3 N 0.31285 0.47717 0.20606 0.0
C4 C 0.32688 0.49115 0.23615 0.0
H5 H 0.3502 0.50304 0.16203 0.0
Co6 Co 0.25784 0.4263 0.19243 0.0
C7 C 0.25069 0.3572 0.24309 0.0
O8 O 0.24612 0.32853 0.21995 0.0
N9 N 0.20134 0.37661 0.17669 0.0
C10 C 0.14205 0.30848 0.16141 0.0
C11 C 0.17051 0.33334 0.18662 0.0
C12 C 0.18764 0.37821 0.14657 0.0
N13 N 0.15346 0.33688 0.13608 0.0
O14 O 0.22544 0.45937 0.20543 0.0
H15 H 0.1696 0.31953 0.21 0.0
H16 H 0.20668 0.40765 0.13104 0.0
O17 O 0.25172 0.39556 0.236 0.0
C18 C 0.22889 0.48687 0.18274 0.0
O19 O 0.2503 0.48655 0.15658 0.0
N20 N 0.29254 0.39884 0.17624 0.0
C21 C 0.36877 0.40585 0.14413 0.0
C22 C 0.36867 0.40776 0.17754 0.0
C23 C 0.32998 0.40377 0.19317 0.0
C24 C 0.28937 0.38837 0.14447 0.0
C25 C 0.32664 0.39024 0.12816 0.0
H26 H 0.33362 0.41228 0.21823 0.0
H27 H 0.26109 0.38443 0.13013 0.0
H28 H 0.30567 0.47478 0.2568 0.0
H29 H 0.42012 0.5607 0.1994 0.0
H30 H 0.11681 0.27178 0.1612 0.0
H31 H 0.40007 0.41912 0.19133 0.0
H32 H 0.32447 0.38626 0.10249 0.0
C33 C 0.86223 0.33059 0.514 0.0
C34 C 0.86994 0.36876 0.53161 0.0
N35 N 0.86604 0.35729 0.56269 0.0
N36 N 0.8541 0.29569 0.53405 0.0
C37 C 0.85568 0.31265 0.56336 0.0
H38 H 0.86364 0.32865 0.48832 0.0
Co39 Co 0.84435 0.23757 0.52343 0.0
C40 C 0.90651 0.23132 0.57538 0.0
O41 O 0.9296 0.22361 0.55314 0.0
N42 N 0.83168 0.17793 0.51049 0.0
C43 C 0.83742 0.11739 0.49389 0.0
C44 C 0.84549 0.14755 0.519 0.0
C45 C 0.8116 0.16261 0.48167 0.0
N46 N 0.81706 0.12786 0.46998 0.0
O47 O 0.78039 0.21141 0.53868 0.0
H48 H 0.8631 0.14864 0.54082 0.0
H49 H 0.80027 0.18196 0.46719 0.0
O50 O 0.87028 0.23385 0.56729 0.0
C51 C 0.7558 0.21627 0.51698 0.0
O52 O 0.77571 0.23527 0.48984 0.0
N53 N 0.90489 0.26593 0.50485 0.0
C54 C 0.9736 0.33487 0.46769 0.0
C55 C 0.97568 0.33889 0.50099 0.0
C56 C 0.94085 0.30387 0.51923 0.0
C57 C 0.90775 0.25846 0.47306 0.0
C58 C 0.94249 0.29209 0.45418 0.0
H59 H 0.9391 0.31116 0.5441 0.0
H60 H 0.88026 0.23003 0.46057 0.0
H61 H 0.85053 0.29292 0.58484 0.0
H62 H 0.87791 0.40224 0.5223 0.0
H63 H 0.84888 0.09216 0.49251 0.0
H64 H 0.99927 0.37147 0.51254 0.0
H65 H 0.94037 0.28746 0.42854 0.0
C66 C 0.52651 0.76543 0.93631 0.0
C67 C 0.48688 0.75456 0.95285 0.0
N68 N 0.46065 0.76609 0.93484 0.0
N69 N 0.52539 0.7837 0.90789 0.0
C70 C 0.48424 0.78253 0.90741 0.0
H71 H 0.55556 0.76262 0.94518 0.0
Co72 Co 0.57499 0.80909 0.87966 0.0
C73 C 0.65181 0.88575 0.91855 0.0
O74 O 0.66587 0.90957 0.89196 0.0
N75 N 0.62627 0.83377 0.85077 0.0
C76 C 0.69249 0.84771 0.8278 0.0
C77 C 0.66641 0.83365 0.85533 0.0
C78 C 0.62899 0.84783 0.8201 0.0
N79 N 0.66869 0.85652 0.80552 0.0
O80 O 0.5769 0.75178 0.88412 0.0
H81 H 0.6754 0.82233 0.877 0.0
H82 H 0.60128 0.84867 0.80752 0.0
O83 O 0.61765 0.84359 0.91726 0.0
C84 C 0.55779 0.72635 0.85936 0.0
O85 O 0.55698 0.74711 0.83299 0.0
N86 N 0.56408 0.85811 0.87191 0.0
C87 C 0.50142 0.8891 0.86301 0.0
C88 C 0.53111 0.90407 0.88956 0.0
C89 C 0.56202 0.88748 0.8939 0.0
C90 C 0.53836 0.84726 0.8447 0.0
C91 C 0.50827 0.86388 0.83915 0.0
H92 H 0.57823 0.89265 0.91693 0.0
H93 H 0.53483 0.81921 0.82979 0.0
H94 H 0.473 0.79652 0.88844 0.0
H95 H 0.48021 0.74366 0.97751 0.0
H96 H 0.72572 0.84986 0.8243 0.0
H97 H 0.52627 0.92313 0.90869 0.0
H98 H 0.48596 0.85169 0.81834 0.0
C99 C 0.66822 0.5372 0.19797 0.0
C100 C 0.63427 0.51096 0.21977 0.0
N101 N 0.65413 0.51947 0.24885 0.0
N102 N 0.70884 0.56259 0.21354 0.0
C103 C 0.69931 0.55032 0.24427 0.0
H104 H 0.66353 0.53865 0.17257 0.0
Co105 Co 0.76564 0.60581 0.19669 0.0
C106 C 0.78719 0.68254 0.24449 0.0
O107 O 0.79415 0.71061 0.22051 0.0
N108 N 0.82286 0.6464 0.17785 0.0
C109 C 0.88118 0.7054 0.15274 0.0
C110 C 0.8575 0.69065 0.18128 0.0
C111 C 0.82936 0.63397 0.14857 0.0
N112 N 0.86208 0.66993 0.13172 0.0
O113 O 0.7908 0.56596 0.21017 0.0
H114 H 0.86332 0.7123 0.20186 0.0
H115 H 0.80536 0.60066 0.13826 0.0
O116 O 0.78073 0.64158 0.23866 0.0
C117 C 0.7759 0.53012 0.192 0.0
O118 O 0.74747 0.52522 0.16864 0.0
N119 N 0.73811 0.64085 0.18039 0.0
C120 C 0.67092 0.65179 0.14832 0.0
C121 C 0.66885 0.64625 0.18159 0.0
C122 C 0.70332 0.64167 0.19724 0.0
C123 C 0.74499 0.65553 0.14939 0.0
C124 C 0.71261 0.66283 0.13327 0.0
H125 H 0.69817 0.63231 0.22215 0.0
H126 H 0.7726 0.65749 0.13536 0.0
H127 H 0.72497 0.56444 0.26305 0.0
H128 H 0.598 0.48742 0.21462 0.0
H129 H 0.907 0.74077 0.14705 0.0
H130 H 0.63823 0.63894 0.19503 0.0
H131 H 0.7174 0.67051 0.10804 0.0
C132 C 0.23194 0.7142 0.53617 0.0
C133 C 0.23251 0.68373 0.558 0.0
N134 N 0.1994 0.67468 0.57974 0.0
N135 N 0.19928 0.7249 0.54461 0.0
C136 C 0.17941 0.69954 0.57093 0.0
H137 H 0.25482 0.72873 0.51596 0.0
Co138 Co 0.18953 0.7689 0.52469 0.0
C139 C 0.12845 0.78658 0.57053 0.0
O140 O 0.11696 0.80587 0.54764 0.0
N141 N 0.18059 0.81382 0.50293 0.0
C142 C 0.1937 0.88086 0.48181 0.0
C143 C 0.20159 0.86015 0.50781 0.0
C144 C 0.15971 0.80748 0.47416 0.0
N145 N 0.16708 0.84735 0.46082 0.0
O146 O 0.25172 0.81541 0.53816 0.0
H147 H 0.22381 0.87807 0.5279 0.0
H148 H 0.14263 0.77485 0.46155 0.0
O149 O 0.15814 0.77351 0.56463 0.0
C150 C 0.27885 0.8243 0.5142 0.0
O151 O 0.25975 0.81164 0.48583 0.0
N152 N 0.13453 0.72158 0.50814 0.0
C153 C 0.06806 0.64659 0.47332 0.0
C154 C 0.05488 0.66497 0.49884 0.0
C155 C 0.08891 0.70265 0.51621 0.0
C156 C 0.14753 0.70456 0.48319 0.0
C157 C 0.1151 0.66749 0.46542 0.0
H158 H 0.07828 0.7152 0.53624 0.0
H159 H 0.18388 0.72006 0.47725 0.0
H160 H 0.15217 0.70057 0.58426 0.0
H161 H 0.25605 0.6701 0.55832 0.0
H162 H 0.20826 0.91773 0.47795 0.0
H163 H 0.01891 0.64943 0.50594 0.0
H164 H 0.12741 0.65383 0.44676 0.0
C165 C 0.46542 0.12423 0.86579 0.0
C166 C 0.48965 0.11367 0.8876 0.0
N167 N 0.49105 0.13505 0.91517 0.0
N168 N 0.45099 0.15121 0.88 0.0
C169 C 0.46836 0.1584 0.90974 0.0
H170 H 0.4565 0.11097 0.84172 0.0
Co171 Co 0.41034 0.1678 0.86272 0.0
C172 C 0.34125 0.13982 0.9164 0.0
O173 O 0.30824 0.12367 0.89476 0.0
N174 N 0.372 0.18636 0.8424 0.0
C175 C 0.32145 0.20508 0.82217 0.0
C176 C 0.33935 0.19765 0.84995 0.0
C177 C 0.37595 0.19127 0.81045 0.0
N178 N 0.34491 0.20108 0.79745 0.0
O179 O 0.45891 0.23355 0.86668 0.0
H180 H 0.3288 0.20024 0.87383 0.0
H181 H 0.39931 0.18446 0.79657 0.0
O182 O 0.38374 0.16468 0.90709 0.0
C183 C 0.4884 0.24599 0.84389 0.0
O184 O 0.48179 0.21463 0.82226 0.0
N185 N 0.36519 0.10301 0.8572 0.0
C186 C 0.31055 0.00646 0.84978 0.0
C187 C 0.3316 0.02615 0.87901 0.0
C188 C 0.35925 0.07372 0.88191 0.0
C189 C 0.34282 0.0846 0.82897 0.0
C190 C 0.31478 0.03656 0.82494 0.0
H191 H 0.37784 0.08662 0.90405 0.0
H192 H 0.34839 0.10606 0.80852 0.0
H193 H 0.4622 0.1781 0.92764 0.0
H194 H 0.50402 0.09115 0.88384 0.0
H195 H 0.29332 0.21247 0.82024 0.0
H196 H 0.3311 1.00521 0.8989 0.0
H197 H 0.29952 0.02312 0.80179 0.0
C198 C 0.558 0.66392 0.49299 0.0
C199 C 0.53229 0.63203 0.46979 0.0
N200 N 0.54049 0.65455 0.44176 0.0
N201 N 0.58255 0.70614 0.47951 0.0
C202 C 0.5707 0.69943 0.4485 0.0
H203 H 0.559 0.65681 0.51804 0.0
Co204 Co 0.62411 0.7614 0.49921 0.0
C205 C 0.70442 0.78646 0.45276 0.0
O206 O 0.73339 0.79525 0.47655 0.0
N207 N 0.66416 0.81708 0.52092 0.0
C208 C 0.721 0.87695 0.54696 0.0
C209 C 0.70805 0.85275 0.51842 0.0
C210 C 0.65034 0.82315 0.54987 0.0
N211 N 0.68474 0.85726 0.56715 0.0
O212 O 0.58818 0.78974 0.4844 0.0
H213 H 0.73025 0.86013 0.49805 0.0
H214 H 0.616 0.80007 0.55897 0.0
O215 O 0.66298 0.77802 0.45891 0.0
C216 C 0.55098 0.77501 0.50085 0.0
O217 O 0.54165 0.74315 0.52256 0.0
N218 N 0.65465 0.73143 0.51709 0.0
C219 C 0.67204 0.66757 0.5491 0.0
C220 C 0.68044 0.67551 0.51619 0.0
C221 C 0.66906 0.70553 0.50047 0.0
C222 C 0.65069 0.7273 0.54936 0.0
C223 C 0.65992 0.69664 0.56577 0.0
H224 H 0.66775 0.70427 0.4748 0.0
H225 H 0.63458 0.74307 0.56253 0.0
H226 H 0.58427 0.72714 0.43124 0.0
H227 H 0.50888 0.59535 0.47345 0.0
H228 H 0.75541 0.90475 0.55294 0.0
H229 H 0.69104 0.65542 0.50185 0.0
H230 H 0.65153 0.69227 0.59084 0.0
C231 C 0.92795 0.55571 0.8136 0.0
C232 C 0.93439 0.53094 0.78985 0.0
N233 N 0.91483 0.53548 0.76291 0.0
N234 N 0.9049 0.57597 0.80146 0.0
C235 C 0.89683 0.56251 0.77084 0.0
H236 H 0.93961 0.55915 0.83805 0.0
Co237 Co 0.88851 0.61468 0.82188 0.0
C238 C 0.9301 0.69287 0.77307 0.0
O239 O 0.94908 0.72349 0.79613 0.0
N240 N 0.87044 0.65196 0.84459 0.0
C241 C 0.86441 0.70668 0.87126 0.0
C242 C 0.87187 0.6931 0.84167 0.0
C243 C 0.85753 0.63959 0.87506 0.0
N244 N 0.8568 0.67325 0.89251 0.0
O245 O 0.82271 0.57145 0.81166 0.0
H246 H 0.87968 0.71325 0.82015 0.0
H247 H 0.85284 0.60756 0.88496 0.0
O248 O 0.90102 0.65044 0.78041 0.0
C249 C 0.80675 0.53628 0.83038 0.0
O250 O 0.83564 0.53484 0.85115 0.0
N251 N 0.9516 0.6526 0.83493 0.0
C252 C 0.04196 0.6883 0.85936 0.0
C253 C 0.03398 0.68822 0.8264 0.0
C254 C 0.98863 0.66805 0.81474 0.0
C255 C 0.95918 0.6553 0.86696 0.0
C256 C 1.00351 0.67376 0.87958 0.0
H257 H 0.98347 0.66167 0.78946 0.0
H258 H 0.9309 0.63843 0.88327 0.0
H259 H 0.87826 0.57274 0.7547 0.0
H260 H 0.95153 0.51071 0.7924 0.0
H261 H 0.86772 0.73995 0.87698 0.0
H262 H 0.06175 0.69943 0.8093 0.0
H263 H 1.00592 0.67102 0.90508 0.0
C264 C 0.34028 0.88514 0.15706 0.0
C265 C 0.36759 0.88245 0.1335 0.0
N266 N 0.34465 0.87372 0.10541 0.0
N267 N 0.30074 0.87904 0.14377 0.0
C268 C 0.30414 0.87153 0.11268 0.0
H269 H 0.34819 0.89022 0.18227 0.0
Co270 Co 0.2475 0.87315 0.16235 0.0
C271 C 0.23887 0.94054 0.11893 0.0
O272 O 0.23473 0.96111 0.14444 0.0
N273 N 0.19253 0.86328 0.18171 0.0
C274 C 0.13151 0.86405 0.20254 0.0
C275 C 0.15937 0.87441 0.17589 0.0
C276 C 0.18175 0.84303 0.21067 0.0
N277 N 0.14639 0.84506 0.22473 0.0
O278 O 0.21472 0.80883 0.14687 0.0
H279 H 0.15653 0.89082 0.1545 0.0
H280 H 0.20407 0.83319 0.223 0.0
O281 O 0.23774 0.90142 0.12217 0.0
C282 C 0.22393 0.78455 0.16629 0.0
O283 O 0.25035 0.80545 0.19108 0.0
N284 N 0.2827 0.9342 0.18127 0.0
C285 C 0.35852 0.98691 0.21934 0.0
C286 C 0.36266 0.99222 0.18612 0.0
C287 C 0.32339 0.96605 0.16725 0.0
C288 C 0.27635 0.94006 0.21281 0.0
C289 C 0.3142 0.96665 0.23245 0.0
H290 H 0.32817 0.96508 0.14185 0.0
H291 H 0.24364 0.92052 0.22439 0.0
H292 H 0.2759 0.86205 0.0962 0.0
H293 H 0.40099 0.88518 0.13731 0.0
H294 H 0.10408 0.87216 0.20584 0.0
H295 H 0.39633 0.00946 0.17474 0.0
H296 H 0.30939 0.96452 0.25806 0.0
C297 C 0.49593 0.35614 0.50666 0.0
C298 C 0.52718 0.38884 0.48591 0.0
N299 N 0.51295 0.37361 0.45603 0.0
N300 N 0.46196 0.32123 0.48962 0.0
C301 C 0.47396 0.33238 0.45898 0.0
H302 H 0.49709 0.35818 0.5324 0.0
Co303 Co 0.40923 0.26917 0.50425 0.0
C304 C 0.34131 0.27472 0.45746 0.0
O305 O 0.31794 0.27709 0.48189 0.0
N306 N 0.3573 0.21495 0.52023 0.0
C307 C 0.28743 0.16501 0.53908 0.0
C308 C 0.31153 0.19202 0.51332 0.0
C309 C 0.36003 0.19742 0.5487 0.0
N310 N 0.31817 0.16911 0.56156 0.0
O311 O 0.43489 0.23184 0.48737 0.0
H312 H 0.29581 0.19685 0.49233 0.0
H313 H 0.39177 0.21175 0.56243 0.0
O314 O 0.37588 0.26806 0.46265 0.0
C315 C 0.46393 0.23321 0.50824 0.0
O316 O 0.46832 0.25537 0.53508 0.0
N317 N 0.39 0.30849 0.52475 0.0
C318 C 0.41787 0.38611 0.56294 0.0
C319 C 0.41497 0.38952 0.52978 0.0
C320 C 0.40029 0.34988 0.511 0.0
C321 C 0.3834 0.30367 0.55702 0.0
C322 C 0.39636 0.34203 0.57654 0.0
H323 H 0.40548 0.35464 0.48557 0.0
H324 H 0.37492 0.27217 0.56899 0.0
H325 H 0.45395 0.31118 0.43906 0.0
H326 H 0.55791 0.42105 0.49213 0.0
H327 H 0.25022 0.14766 0.54234 0.0
H328 H 0.43069 0.423 0.51813 0.0
H329 H 0.39656 0.33788 0.60214 0.0
C330 C 0.1736 0.4946 0.83461 0.0
C331 C 0.17668 0.52765 0.81358 0.0
N332 N 0.16831 0.50939 0.78393 0.0
N333 N 0.16335 0.45568 0.81835 0.0
C334 C 0.16088 0.46586 0.78764 0.0
H335 H 0.17812 0.49846 0.86017 0.0
Co336 Co 0.15488 0.40088 0.83612 0.0
C337 C 0.07869 0.33321 0.79058 0.0
O338 O 0.05181 0.31454 0.81546 0.0
N339 N 0.14919 0.34692 0.85586 0.0
C340 C 0.12303 0.27705 0.87746 0.0
C341 C 0.12339 0.30081 0.85036 0.0
C342 C 0.16741 0.34971 0.8852 0.0
N343 N 0.15033 0.30816 0.89955 0.0
O344 O 0.21686 0.41769 0.82078 0.0
H345 H 0.10381 0.2849 0.82902 0.0
H346 H 0.18752 0.38214 0.89781 0.0
O347 O 0.12118 0.36562 0.79517 0.0
C348 C 0.24617 0.44618 0.84122 0.0
O349 O 0.23006 0.45499 0.86722 0.0
N350 N 0.09829 0.3911 0.85481 0.0
C351 C 0.06347 0.44019 0.88639 0.0
C352 C 0.05412 0.43013 0.85386 0.0
C353 C 0.0715 0.40479 0.83843 0.0
C354 C 0.09792 0.39175 0.8874 0.0
C355 C 0.08054 0.41618 0.90373 0.0
H356 H 0.07106 0.40462 0.81271 0.0
H357 H 0.11738 0.38055 0.90132 0.0
H358 H 0.1531 0.44142 0.76851 0.0
H359 H 0.18503 0.56251 0.81982 0.0
H360 H 0.10185 0.24006 0.88134 0.0
H361 H 0.04042 0.44768 0.83955 0.0
H362 H 0.08699 0.42206 0.9291 0.0
C363 C 0.67084 0.16638 0.16517 0.0
C364 C 0.63477 0.15969 0.14556 0.0
N365 N 0.63162 0.13094 0.12189 0.0
N366 N 0.69027 0.14216 0.15362 0.0
C367 C 0.66501 0.12031 0.12762 0.0
H368 H 0.68289 0.1884 0.18604 0.0
Co369 Co 0.74093 0.14094 0.17071 0.0
C370 C 0.76814 0.09201 0.11928 0.0
O371 O 0.79532 0.08624 0.13922 0.0
N372 N 0.79227 0.14047 0.19031 0.0
C373 C 0.86225 0.16828 0.21258 0.0
C374 C 0.83812 0.16988 0.18611 0.0
C375 C 0.78998 0.1207 0.21898 0.0
N376 N 0.83156 0.13711 0.23318 0.0
O377 O 0.77949 0.20623 0.15827 0.0
H378 H 0.8527 0.19426 0.16666 0.0
H379 H 0.7582 0.09838 0.23134 0.0
O380 O 0.74859 0.11496 0.12871 0.0
C381 C 0.78471 0.23169 0.18276 0.0
O382 O 0.77135 0.21093 0.2105 0.0
N383 N 0.70094 0.08188 0.18619 0.0
C384 C 0.63335 0.00563 0.21911 0.0
C385 C 0.65441 0.99937 0.19202 0.0
C386 C 0.68856 0.03825 0.1758 0.0
C387 C 0.68122 0.08825 0.21263 0.0
C388 C 0.64822 0.05092 0.2297 0.0
H389 H 0.70327 0.03275 0.15463 0.0
H390 H 0.69148 0.12308 0.22045 0.0
H391 H 0.67101 0.09735 0.11277 0.0
H392 H 0.61424 0.1766 0.14749 0.0
H393 H 0.8989 0.19059 0.21725 0.0
H394 H 0.64309 0.96495 0.18269 0.0
H395 H 0.63222 0.05791 0.24978 0.0
C396 C 0.58691 0.62794 0.14302 0.0
C397 C 0.62702 0.63138 0.12952 0.0
C398 C 0.54307 0.59113 0.13476 0.0
C399 C 0.53961 0.55878 0.11137 0.0
C400 C 0.57875 0.56788 0.09314 0.0
C401 C 0.62226 0.60396 0.10257 0.0
C402 C 0.50159 0.5834 0.15412 0.0
C403 C 0.57585 0.536 0.0665 0.0
C404 C 0.45449 0.43874 0.13958 0.0
C405 C 0.41323 0.43358 0.12684 0.0
C406 C 0.49713 0.47801 0.13252 0.0
C407 C 0.49838 0.51175 0.11128 0.0
C408 C 0.4581 0.50279 0.09435 0.0
C409 C 0.41578 0.46397 0.10255 0.0
C410 C 0.53982 0.48583 0.15059 0.0
C411 C 0.45837 0.53654 0.07021 0.0
H412 H 0.58997 0.65062 0.16257 0.0
H413 H 0.65247 0.60649 0.09097 0.0
H414 H 0.47153 0.57476 0.13839 0.0
H415 H 0.49143 0.55361 0.17045 0.0
H416 H 0.50899 0.61429 0.16867 0.0
H417 H 0.60444 0.55452 0.04913 0.0
H418 H 0.57902 0.50686 0.07657 0.0
H419 H 0.54218 0.52114 0.05372 0.0
H420 H 0.453 0.41451 0.15744 0.0
H421 H 0.38445 0.46057 0.09207 0.0
H422 H 0.55059 0.51512 0.16755 0.0
H423 H 0.56907 0.49526 0.134 0.0
H424 H 0.53368 0.45469 0.16427 0.0
H425 H 0.45143 0.56202 0.08248 0.0
H426 H 0.43074 0.51827 0.05204 0.0
H427 H 0.4923 0.55591 0.05797 0.0
C428 C 0.03333 0.41649 0.45525 0.0
C429 C 0.99035 0.3775 0.4485 0.0
C430 C 0.04146 0.46098 0.44785 0.0
C431 C 1.00539 0.46604 0.43385 0.0
C432 C 0.96495 0.42665 0.42256 0.0
C433 C 0.95794 0.38261 0.42992 0.0
C434 C 0.0861 0.50247 0.459 0.0
C435 C 0.9261 0.43044 0.4069 0.0
C436 C 1.00705 0.56401 0.47846 0.0
C437 C 0.03568 0.6012 0.45865 0.0
C438 C 0.99151 0.51837 0.46871 0.0
C439 C 1.00568 0.51024 0.43871 0.0
C440 C 0.02802 0.54696 0.41676 0.0
C441 C 0.04216 0.59225 0.42689 0.0
C442 C 0.96534 0.47964 0.49226 0.0
C443 C 0.04233 0.53961 0.38418 0.0
H444 H 0.05868 0.4125 0.46909 0.0
H445 H 0.92451 0.35263 0.42445 0.0
H446 H 0.09948 0.53032 0.44081 0.0
H447 H 0.0795 0.51658 0.48111 0.0
H448 H 0.11325 0.49322 0.46419 0.0
H449 H 0.90563 0.40056 0.39071 0.0
H450 H 0.90234 0.43007 0.42558 0.0
H451 H 0.93924 0.4631 0.39321 0.0
H452 H 1.00116 0.57041 0.50287 0.0
H453 H 0.06278 0.62099 0.41104 0.0
H454 H 0.98933 0.4693 0.50303 0.0
H455 H 0.93706 0.44875 0.4802 0.0
H456 H 0.95012 0.49039 0.51174 0.0
H457 H 0.07697 0.5425 0.38592 0.0
H458 H 0.04503 0.56643 0.36718 0.0
H459 H 0.01768 0.50477 0.37449 0.0
C460 C 0.28465 0.92653 0.86942 0.0
C461 C 0.29757 0.95738 0.84358 0.0
C462 C 0.30502 0.89871 0.87317 0.0
C463 C 0.33524 0.89969 0.84921 0.0
C464 C 0.33593 0.91941 0.81924 0.0
C465 C 0.31675 0.94833 0.81666 0.0
C466 C 0.30104 0.8757 0.90485 0.0
C467 C 0.36451 0.91761 0.79199 0.0
C468 C 0.45801 0.93188 0.87036 0.0
C469 C 0.45798 0.891 0.8628 0.0
C470 C 0.41705 0.93395 0.86824 0.0
C471 C 0.37539 0.89424 0.85788 0.0
C472 C 0.37464 0.85206 0.8522 0.0
C473 C 0.4159 0.85083 0.85516 0.0
C474 C 0.41897 0.97935 0.87572 0.0
C475 C 0.33073 0.80849 0.84255 0.0
H476 H 0.26648 0.93081 0.88941 0.0
H477 H 0.32437 0.96957 0.79554 0.0
H478 H 0.30373 0.84397 0.90214 0.0
H479 H 0.32976 0.90011 0.92063 0.0
H480 H 0.26775 0.86656 0.91675 0.0
H481 H 0.3535 0.92538 0.76889 0.0
H482 H 0.40152 0.94386 0.79603 0.0
H483 H 0.36178 0.88303 0.79041 0.0
H484 H 0.49028 0.96254 0.877 0.0
H485 H 0.41537 0.81839 0.85095 0.0
H486 H 0.3913 0.97371 0.89285 0.0
H487 H 0.41317 0.9941 0.85364 0.0
H488 H 0.45287 1.00526 0.88612 0.0
H489 H 0.30836 0.79353 0.86378 0.0
H490 H 0.33806 0.78183 0.8326 0.0
H491 H 0.31076 0.81598 0.82465 0.0
C492 C 0.65373 0.61537 0.59683 0.0
C493 C 0.6614 0.62219 0.56375 0.0
C494 C 0.61815 0.57298 0.60855 0.0
C495 C 0.59317 0.53623 0.58692 0.0
C496 C 0.61015 0.53935 0.55564 0.0
C497 C 0.64415 0.58252 0.54429 0.0
C498 C 0.60326 0.57016 0.64274 0.0
C499 C 0.58724 0.49931 0.53251 0.0
C500 C 0.4888 0.41855 0.59658 0.0
C501 C 0.45555 0.42555 0.58059 0.0
C502 C 0.53325 0.45568 0.60293 0.0
C503 C 0.54434 0.50064 0.59323 0.0
C504 C 0.50883 0.50871 0.58166 0.0
C505 C 0.46478 0.47084 0.5752 0.0
C506 C 0.56941 0.44532 0.61598 0.0
C507 C 0.51886 0.55663 0.57212 0.0
H508 H 0.67068 0.64453 0.61305 0.0
H509 H 0.65178 0.58534 0.51912 0.0
H510 H 0.57762 0.58219 0.64437 0.0
H511 H 0.58666 0.53412 0.65189 0.0
H512 H 0.63324 0.59297 0.65824 0.0
H513 H 0.60939 0.50458 0.51137 0.0
H514 H 0.57951 0.46635 0.54423 0.0
H515 H 0.55395 0.49576 0.52411 0.0
H516 H 0.48214 0.38363 0.60094 0.0
H517 H 0.43895 0.47638 0.56335 0.0
H518 H 0.59904 0.4762 0.62706 0.0
H519 H 0.58291 0.43314 0.59627 0.0
H520 H 0.55384 0.41705 0.63389 0.0
H521 H 0.5409 0.58269 0.59026 0.0
H522 H 0.48652 0.55823 0.56895 0.0
H523 H 0.53801 0.56639 0.5492 0.0
C524 C 0.11379 0.51757 0.9108 0.0
C525 C 0.06999 0.48466 0.89881 0.0
C526 C 0.12669 0.56449 0.91333 0.0
C527 C 0.09483 0.57852 0.90388 0.0
C528 C 0.0487 0.54453 0.89543 0.0
C529 C 0.03703 0.49796 0.89267 0.0
C530 C 0.17586 0.59882 0.923 0.0
C531 C 0.01288 0.55771 0.88611 0.0
C532 C 0.09053 0.68737 0.90499 0.0
C533 C 0.08456 0.68881 0.87184 0.0
C534 C 0.10141 0.6549 0.91762 0.0
C535 C 0.11073 0.62773 0.89634 0.0
C536 C 0.12074 0.64162 0.86419 0.0
C537 C 0.10751 0.67249 0.85208 0.0
C538 C 0.09484 0.64425 0.95272 0.0
C539 C 0.13679 0.61747 0.84137 0.0
H540 H 0.13971 0.50759 0.91542 0.0
H541 H 1.00316 0.47248 0.88364 0.0
H542 H 0.19931 0.60433 0.90265 0.0
H543 H 0.18031 0.63288 0.93028 0.0
H544 H 0.18701 0.58469 0.94297 0.0
H545 H 0.97752 0.52696 0.88426 0.0
H546 H 0.01204 0.58213 0.90377 0.0
H547 H 0.02197 0.57531 0.86262 0.0
H548 H 0.0789 0.70503 0.92101 0.0
H549 H 0.10868 0.67716 0.82657 0.0
H550 H 0.11743 0.63076 0.9613 0.0
H551 H 0.05823 0.61728 0.95707 0.0
H552 H 0.10224 0.67557 0.96675 0.0
H553 H 0.16319 0.61117 0.85284 0.0
H554 H 0.15178 0.63818 0.81939 0.0
H555 H 0.10687 0.58337 0.83444 0.0
C556 C 0.38525 0.9435 0.25303 0.0
C557 C 0.39582 0.98503 0.23733 0.0
C558 C 0.41989 0.93276 0.2602 0.0
C559 C 0.46607 0.96449 0.2517 0.0
C560 C 0.47765 0.00897 0.23976 0.0
C561 C 0.44218 0.01856 0.23248 0.0
C562 C 0.40579 0.88535 0.27341 0.0
C563 C 0.52699 0.04474 0.23155 0.0
C564 C 0.57893 0.96974 0.26421 0.0
C565 C 0.58911 0.96804 0.23193 0.0
C566 C 0.53489 0.96161 0.27299 0.0
C567 C 0.50081 0.94923 0.24905 0.0
C568 C 0.50773 0.93497 0.21874 0.0
C569 C 0.55238 0.94465 0.2104 0.0
C570 C 0.52785 0.97428 0.30617 0.0
C571 C 0.47072 0.91787 0.19325 0.0
H572 H 0.34939 0.91703 0.25677 0.0
H573 H 0.45039 0.05076 0.22069 0.0
H574 H 0.39384 0.85988 0.25354 0.0
H575 H 0.43476 0.88437 0.2858 0.0
H576 H 0.37637 0.87404 0.29024 0.0
H577 H 0.53062 0.07902 0.22585 0.0
H578 H 0.55053 0.04925 0.25169 0.0
H579 H 0.53855 0.03287 0.21055 0.0
H580 H 0.60713 0.98561 0.28133 0.0
H581 H 0.55954 0.9412 0.18567 0.0
H582 H 0.49111 0.95333 0.31366 0.0
H583 H 0.53744 0.0114 0.30664 0.0
H584 H 0.55022 0.96943 0.32363 0.0
H585 H 0.43616 0.89371 0.20339 0.0
H586 H 0.47807 0.89996 0.17368 0.0
H587 H 0.46923 0.94785 0.18294 0.0
C588 C 0.13861 0.35375 0.08154 0.0
C589 C 0.14362 0.32417 0.10289 0.0
C590 C 0.13665 0.34619 0.04845 0.0
C591 C 0.141 0.30874 0.03627 0.0
C592 C 0.1448 0.27799 0.0578 0.0
C593 C 0.14564 0.28584 0.09085 0.0
C594 C 0.1316 0.37934 0.02648 0.0
C595 C 0.15045 0.23823 0.04593 0.0
C596 C 0.10668 0.27514 0.94931 0.0
C597 C 0.14913 0.30188 0.93365 0.0
C598 C 0.10362 0.27594 0.98274 0.0
C599 C 0.14413 0.30354 1.00104 0.0
C600 C 0.18747 0.32863 0.98538 0.0
C601 C 0.18932 0.32792 0.95191 0.0
C602 C 0.05664 0.24934 0.9983 0.0
C603 C 0.2317 0.35776 1.0039 0.0
H604 H 0.13734 0.38351 0.09085 0.0
H605 H 0.15057 0.2635 0.10724 0.0
H606 H 0.16393 0.39949 1.01258 0.0
H607 H 0.10303 0.35983 1.0092 0.0
H608 H 0.12449 0.40409 0.0397 0.0
H609 H 0.14985 0.21566 0.06563 0.0
H610 H 0.12255 0.21674 0.02869 0.0
H611 H 0.18394 0.25212 0.03316 0.0
H612 H 0.07537 0.25577 0.93527 0.0
H613 H 0.22206 0.34878 0.93981 0.0
H614 H 0.04729 0.27411 1.00901 0.0
H615 H 0.0575 0.2274 0.01787 0.0
H616 H 0.02906 0.22687 0.98109 0.0
H617 H 0.23078 0.38754 1.01506 0.0
H618 H 0.26294 0.37144 0.98854 0.0
H619 H 0.23504 0.33707 0.02339 0.0
C620 C 0.8647 0.16919 0.28623 0.0
C621 C 0.83765 0.13086 0.26656 0.0
C622 C 0.86287 0.16478 0.31967 0.0
C623 C 0.83371 0.12087 0.33379 0.0
C624 C 0.80868 0.08158 0.31391 0.0
C625 C 0.81073 0.08713 0.28063 0.0
C626 C 0.8899 0.20768 0.3399 0.0
C627 C 0.77774 0.03404 0.32777 0.0
C628 C 0.85042 0.10979 0.42287 0.0
C629 C 0.8163 0.11773 0.4363 0.0
C630 C 0.85557 0.10911 0.38957 0.0
C631 C 0.8262 0.11691 0.36911 0.0
C632 C 0.79032 0.12268 0.38251 0.0
C633 C 0.78564 0.12264 0.41579 0.0
C634 C 0.89374 0.10206 0.37631 0.0
C635 C 0.75807 0.131 0.36173 0.0
H636 H 0.88497 0.20315 0.27555 0.0
H637 H 0.78982 0.05745 0.26547 0.0
H638 H 0.86547 0.21566 0.3526 0.0
H639 H 0.9104 0.20172 0.35824 0.0
H640 H 0.91381 0.23839 0.32548 0.0
H641 H 0.76509 0.00636 0.30932 0.0
H642 H 0.79649 0.02625 0.34646 0.0
H643 H 0.74725 0.0331 0.33922 0.0
H644 H 0.8747 0.10648 0.43832 0.0
H645 H 0.75888 0.12824 0.42589 0.0
H646 H 0.92054 0.13466 0.36508 0.0
H647 H 0.87985 0.0749 0.35753 0.0
H648 H 0.91061 0.09191 0.39504 0.0
H649 H 0.7783 0.16382 0.34831 0.0
H650 H 0.73101 0.13331 0.37576 0.0
H651 H 0.74074 0.10265 0.34398 0.0
C652 C 0.70834 0.85349 0.75614 0.0
C653 C 0.67919 0.86633 0.7719 0.0
C654 C 0.71407 0.85767 0.72283 0.0
C655 C 0.68979 0.8747 0.70465 0.0
C656 C 0.66231 0.88998 0.72055 0.0
C657 C 0.65769 0.886 0.75386 0.0
C658 C 0.74419 0.84149 0.70693 0.0
C659 C 0.6356 0.90815 0.70221 0.0
C660 C 0.7186 0.90424 0.61642 0.0
C661 C 0.68519 0.86314 0.60148 0.0
C662 C 0.72074 0.90872 0.64993 0.0
C663 C 0.68861 0.87133 0.66904 0.0
C664 C 0.65466 0.83003 0.65412 0.0
C665 C 0.65354 0.82638 0.62079 0.0
C666 C 0.75764 0.95325 0.66491 0.0
C667 C 0.61958 0.78923 0.67342 0.0
H668 H 0.72517 0.83824 0.76956 0.0
H669 H 0.63616 0.89732 0.76569 0.0
H670 H 0.72199 0.80882 0.69369 0.0
H671 H 0.76769 0.86756 0.68942 0.0
H672 H 0.76543 0.83502 0.72443 0.0
H673 H 0.61939 0.92273 0.71814 0.0
H674 H 0.65868 0.9354 0.68521 0.0
H675 H 0.6078 0.87954 0.68806 0.0
H676 H 0.74317 0.9329 0.60194 0.0
H677 H 0.62829 0.79388 0.61007 0.0
H678 H 0.77978 0.94592 0.68092 0.0
H679 H 0.74131 0.96878 0.67976 0.0
H680 H 0.78006 0.9791 0.64684 0.0
H681 H 0.63767 0.77659 0.68924 0.0
H682 H 0.59475 0.75992 0.65819 0.0
H683 H 0.59965 0.8001 0.68888 0.0
C684 C 0.90373 0.70732 0.08164 0.0
C685 C 0.86391 0.67343 0.09725 0.0
C686 C 0.9046 0.71206 0.04821 0.0
C687 C 0.86474 0.68217 0.02996 0.0
C688 C 0.82435 0.64842 0.0456 0.0
C689 C 0.82437 0.6446 0.07883 0.0
C690 C 0.94832 0.74861 0.03237 0.0
C691 C 0.78108 0.61564 0.02718 0.0
C692 C 0.84723 0.70589 0.94345 0.0
C693 C 0.85932 0.67671 0.92697 0.0
C694 C 0.85036 0.70947 0.97697 0.0
C695 C 0.86587 0.68321 0.9944 0.0
C696 C 0.87904 0.65457 0.97785 0.0
C697 C 0.87583 0.65188 0.94456 0.0
C698 C 0.83619 0.74057 0.99379 0.0
C699 C 0.89553 0.62574 0.99537 0.0
H700 H 0.93429 0.72991 0.09554 0.0
H701 H 0.79271 0.61926 0.09027 0.0
H702 H 0.96276 0.73176 0.01698 0.0
H703 H 0.9404 0.7707 0.01677 0.0
H704 H 0.97524 0.77112 0.04995 0.0
H705 H 0.75186 0.59262 0.04302 0.0
H706 H 0.76986 0.63552 1.01198 0.0
H707 H 0.78856 0.59362 1.01116 0.0
H708 H 0.8347 0.72538 0.9302 0.0
H709 H 0.88681 0.63034 0.93241 0.0
H710 H 0.86409 0.76443 1.01027 0.0
H711 H 0.80486 0.71926 1.00838 0.0
H712 H 0.82847 0.76148 0.97683 0.0
H713 H 0.925 0.64808 1.0113 0.0
H714 H 0.90669 0.607 0.9789 0.0
H715 H 0.86719 0.59984 1.01058 0.0
C716 C 0.11403 0.8193 0.41475 0.0
C717 C 0.15669 0.85202 0.42812 0.0
C718 C 0.10592 0.81811 0.3818 0.0
C719 C 0.14176 0.84978 0.36157 0.0
C720 C 0.18423 0.88425 0.37514 0.0
C721 C 0.19101 0.88521 0.4083 0.0
C722 C 0.0598 0.78148 0.36852 0.0
C723 C 0.22365 0.91824 0.35445 0.0
C724 C 0.14909 0.81257 0.2771 0.0
C725 C 0.13718 0.84034 0.25866 0.0
C726 C 0.1497 0.81459 0.31052 0.0
C727 C 0.13674 0.84413 0.32619 0.0
C728 C 0.12134 0.86966 0.30789 0.0
C729 C 0.12209 0.86778 0.27437 0.0
C730 C 0.16648 0.78678 0.32898 0.0
C731 C 0.10599 0.90054 0.32368 0.0
H732 H 0.08747 0.7937 0.43012 0.0
H733 H 0.22421 0.91008 0.41852 0.0
H734 H 0.04621 0.79702 0.35122 0.0
H735 H 0.06431 0.7549 0.35557 0.0
H736 H 0.03361 0.76388 0.38755 0.0
H737 H 0.25313 0.94487 0.36872 0.0
H738 H 0.23641 0.89926 0.33964 0.0
H739 H 0.21152 0.93603 0.33797 0.0
H740 H 0.1597 0.79039 0.26532 0.0
H741 H 0.11292 0.88954 0.26059 0.0
H742 H 0.14011 0.76435 0.34669 0.0
H743 H 0.1985 0.81064 0.34235 0.0
H744 H 0.17414 0.76453 0.31327 0.0
H745 H 0.0807 0.88145 0.34289 0.0
H746 H 0.08992 0.91374 0.30647 0.0
H747 H 0.13631 0.93065 0.33489 0.0
C748 C 0.291 0.16749 0.75212 0.0
C749 C 0.33508 0.19925 0.76392 0.0
C750 C 0.28307 0.15957 0.71913 0.0
C751 C 0.3199 0.1849 0.6975 0.0
C752 C 0.36397 0.21854 0.70942 0.0
C753 C 0.37117 0.22468 0.74249 0.0
C754 C 0.23594 0.12271 0.70751 0.0
C755 C 0.40389 0.2473 0.68729 0.0
C756 C 0.32465 0.14094 0.61445 0.0
C757 C 0.31042 0.16605 0.59539 0.0
C758 C 0.32529 0.14466 0.64789 0.0
C759 C 0.31307 0.17561 0.66246 0.0
C760 C 0.29771 0.20028 0.64318 0.0
C761 C 0.29611 0.19478 0.60992 0.0
C762 C 0.34092 0.11695 0.66753 0.0
C763 C 0.28583 0.23473 0.65746 0.0
H764 H 0.26345 0.14715 0.76882 0.0
H765 H 0.40529 0.2489 0.75179 0.0
H766 H 0.22214 0.13748 0.68978 0.0
H767 H 0.23905 0.09472 0.69536 0.0
H768 H 0.21058 0.10717 0.72725 0.0
H769 H 0.4347 0.27447 0.70022 0.0
H770 H 0.4141 0.22456 0.67453 0.0
H771 H 0.39324 0.2643 0.66904 0.0
H772 H 0.33649 0.11947 0.60305 0.0
H773 H 0.28645 0.2152 0.595 0.0
H774 H 0.31621 0.09908 0.68727 0.0
H775 H 0.37522 0.1406 0.6784 0.0
H776 H 0.34396 0.09063 0.65302 0.0
H777 H 0.26037 0.21848 0.677 0.0
H778 H 0.27137 0.24862 0.6395 0.0
H779 H 0.31754 0.2642 0.66793 0.0
C780 C 0.28673 0.28412 0.42053 0.0
C781 C 0.32929 0.28522 0.4249 0.0
C782 C 0.27522 0.29793 0.39173 0.0
C783 C 0.30687 0.31373 0.36595 0.0
C784 C 0.34999 0.31491 0.37001 0.0
C785 C 0.36056 0.30052 0.39922 0.0
C786 C 0.22882 0.29556 0.38896 0.0
C787 C 0.38519 0.33172 0.3435 0.0
C788 C 0.25381 0.30183 0.28263 0.0
C789 C 0.26228 0.3469 0.27585 0.0
C790 C 0.2687 0.29108 0.31128 0.0
C791 C 0.29316 0.32608 0.33443 0.0
C792 C 0.30173 0.37175 0.32797 0.0
C793 C 0.28608 0.38153 0.29899 0.0
C794 C 0.25826 0.24191 0.3167 0.0
C795 C 0.32777 0.41049 0.35162 0.0
H796 H 0.26204 0.27256 0.43994 0.0
H797 H 0.39374 0.30228 0.40213 0.0
H798 H 0.23388 0.3302 0.38272 0.0
H799 H 0.20817 0.27136 0.3695 0.0
H800 H 0.20846 0.28373 0.41135 0.0
H801 H 0.41765 0.3322 0.35052 0.0
H802 H 0.37027 0.30899 0.32231 0.0
H803 H 0.39397 0.36727 0.33627 0.0
H804 H 0.23567 0.27453 0.26518 0.0
H805 H 0.29358 0.41656 0.2942 0.0
H806 H 0.23635 0.22746 0.33821 0.0
H807 H 0.29094 0.24147 0.32107 0.0
H808 H 0.24 0.21882 0.29614 0.0
H809 H 0.3076 0.40281 0.37401 0.0
H810 H 0.33442 0.44459 0.34242 0.0
H811 H 0.36146 0.41308 0.35769 0.0
C812 C 0.96261 0.2331 0.61677 0.0
C813 C 0.92826 0.24419 0.60826 0.0
C814 C 0.98803 0.24867 0.64555 0.0
C815 C 0.97983 0.2768 0.66698 0.0
C816 C 0.94502 0.28804 0.65875 0.0
C817 C 0.91958 0.27143 0.6298 0.0
C818 C 0.02407 0.23503 0.65295 0.0
C819 C 0.93486 0.31806 0.68044 0.0
C820 C 0.01346 0.27719 0.75488 0.0
C821 C 0.05645 0.31853 0.75795 0.0
C822 C 0.98848 0.26372 0.72586 0.0
C823 C 1.00613 0.29217 0.69849 0.0
C824 C 0.04972 0.33389 0.7012 0.0
C825 C 0.07435 0.3464 0.73065 0.0
C826 C 0.94282 0.21875 0.72457 0.0
C827 C 0.07007 0.36578 0.67301 0.0
H828 H 0.9701 0.21225 0.60061 0.0
H829 H 0.8938 0.28093 0.62374 0.0
H830 H 0.0585 0.26656 0.6562 0.0
H831 H 0.01537 0.21534 0.67561 0.0
H832 H 0.02681 0.21339 0.63384 0.0
H833 H 0.90957 0.32677 0.66976 0.0
H834 H 0.92066 0.29983 0.70332 0.0
H835 H 0.96734 0.35077 0.686 0.0
H836 H 0.99884 0.25503 0.77551 0.0
H837 H 0.10703 0.37857 0.73243 0.0
H838 H 0.94446 0.1953 0.70644 0.0
H839 H 0.9147 0.22556 0.71727 0.0
H840 H 0.93347 0.20051 0.74786 0.0
H841 H 0.07427 0.34679 0.65272 0.0
H842 H 0.10428 0.39652 0.67861 0.0
H843 H 0.04605 0.37792 0.66512 0.0
C844 C 0.64527 0.89712 0.97833 0.0
C845 C 0.67001 0.91207 0.94956 0.0
C846 C 0.66005 0.92549 1.00613 0.0
C847 C 0.7008 0.97005 1.00556 0.0
C848 C 0.72617 0.98476 0.97672 0.0
C849 C 0.71063 0.95594 0.94941 0.0
C850 C 0.63127 0.9083 0.03597 0.0
C851 C 0.76958 0.03163 0.97445 0.0
C852 C 0.72164 0.06546 0.06716 0.0
C853 C 0.75236 0.06289 0.0891 0.0
C854 C 0.70368 0.03496 0.0406 0.0
C855 C 0.71738 1.0013 0.0349 0.0
C856 C 0.74898 0.99912 0.05664 0.0
C857 C 0.76579 0.02949 0.08319 0.0
C858 C 0.67041 0.03948 0.01843 0.0
C859 C 0.76515 0.96443 0.05187 0.0
H860 H 0.61348 0.86388 0.97889 0.0
H861 H 0.73022 0.96837 0.92752 0.0
H862 H 0.65291 0.90802 0.05603 0.0
H863 H 0.61851 0.93229 0.04266 0.0
H864 H 0.60099 0.87285 0.033 0.0
H865 H 0.78616 0.03777 0.95065 0.0
H866 H 0.76106 0.05936 0.97923 0.0
H867 H 0.79506 0.03473 0.99278 0.0
H868 H 0.71145 0.09136 0.07066 0.0
H869 H 0.78932 0.02656 0.09965 0.0
H870 H 0.64282 1.00507 1.00987 0.0
H871 H 0.68967 0.06011 0.99732 0.0
H872 H 0.65374 0.05734 0.03018 0.0
H873 H 0.73487 0.92875 0.05114 0.0
H874 H 0.78908 0.96627 0.07105 0.0
H875 H 0.78323 0.9707 0.02867 0.0
C876 C 0.68352 0.75332 0.39624 0.0
C877 C 0.71616 0.77324 0.42108 0.0
C878 C 0.69344 0.73608 0.36816 0.0
C879 C 0.7372 0.73871 0.36446 0.0
C880 C 0.77028 0.75906 0.38933 0.0
C881 C 0.75953 0.77606 0.41697 0.0
C882 C 0.65695 0.715 0.34241 0.0
C883 C 0.81729 0.76275 0.38687 0.0
C884 C 0.75574 0.66443 0.30148 0.0
C885 C 0.77755 0.69638 0.27663 0.0
C886 C 0.74189 0.67727 0.32995 0.0
C887 C 0.74993 0.72325 0.33394 0.0
C888 C 0.77232 0.75556 0.30906 0.0
C889 C 0.78586 0.74192 0.28111 0.0
C890 C 0.71829 0.64145 0.3557 0.0
C891 C 0.78169 0.8048 0.31177 0.0
H892 H 0.64992 0.75062 0.39881 0.0
H893 H 0.78528 0.79098 0.43576 0.0
H894 H 0.67008 0.73546 0.32017 0.0
H895 H 0.64934 0.67921 0.33701 0.0
H896 H 0.62409 0.71377 0.34923 0.0
H897 H 0.83857 0.77772 0.40871 0.0
H898 H 0.81313 0.72794 0.38258 0.0
H899 H 0.83651 0.78489 0.36629 0.0
H900 H 0.74859 0.62913 0.29851 0.0
H901 H 0.80248 0.76722 0.26233 0.0
H902 H 0.6837 0.6372 0.3609 0.0
H903 H 0.73893 0.65332 0.37802 0.0
H904 H 0.71376 0.6071 0.34895 0.0
H905 H 0.74876 0.80476 0.31603 0.0
H906 H 0.79824 0.8255 0.29004 0.0
H907 H 0.80475 0.82231 0.33244 0.0
C908 C 0.94428 0.67156 0.71724 0.0
C909 C 0.95439 0.70495 0.74121 0.0
C910 C 0.97188 0.6821 0.6894 0.0
C911 C 0.01089 0.7272 0.68516 0.0
C912 C 0.02076 0.76108 0.70905 0.0
C913 C 0.99252 0.74974 0.73636 0.0
C914 C 0.95946 0.64475 0.66463 0.0
C915 C 0.06185 0.80949 0.70603 0.0
C916 C 0.10936 0.75093 0.62624 0.0
C917 C 0.09954 0.77171 0.60046 0.0
C918 C 0.08048 0.73532 0.65356 0.0
C919 C 0.04037 0.74014 0.65533 0.0
C920 C 0.03007 0.76048 0.6292 0.0
C921 C 0.05964 0.77612 0.60246 0.0
C922 C 0.0933 0.7142 0.68075 0.0
C923 C 0.98769 0.76601 0.62948 0.0
H924 H 0.91523 0.63689 0.72038 0.0
H925 H 1.00131 0.77613 0.75446 0.0
H926 H 0.95291 0.65633 0.64138 0.0
H927 H 0.98888 0.63839 0.66122 0.0
H928 H 0.92826 0.6115 0.6713 0.0
H929 H 0.06584 0.83156 0.72703 0.0
H930 H 0.09415 0.80783 0.70323 0.0
H931 H 0.05801 0.82649 0.68443 0.0
H932 H 0.1398 0.74708 0.62521 0.0
H933 H 0.05095 0.79151 0.58281 0.0
H934 H 0.06372 0.67949 0.68665 0.0
H935 H 0.10106 0.73623 0.70232 0.0
H936 H 0.12396 0.71052 0.67521 0.0
H937 H 0.95621 0.73208 0.6342 0.0
H938 H 0.98282 0.77989 0.60663 0.0
H939 H 0.9907 0.78994 0.64896 0.0
C940 C 0.26037 0.01337 0.0879 0.0
C941 C 0.25348 0.96796 0.08827 0.0
C942 C 0.27766 0.04228 0.06094 0.0
C943 C 0.28807 0.02581 0.03277 0.0
C944 C 0.28113 0.97993 0.03272 0.0
C945 C 0.26428 0.95176 0.0604 0.0
C946 C 0.28473 0.09077 0.06267 0.0
C947 C 0.29117 0.9604 1.00328 0.0
C948 C 0.28226 0.08467 0.95564 0.0
C949 C 0.32919 0.11531 0.94824 0.0
C950 C 0.26885 0.05501 0.98231 0.0
C951 C 0.30289 0.05575 1.00305 0.0
C952 C 0.35043 0.08719 0.99625 0.0
C953 C 0.36294 0.1164 0.96908 0.0
C954 C 0.21785 0.02226 0.98806 0.0
C955 C 0.3882 0.08979 0.0176 0.0
H956 H 0.25279 0.027 0.10909 0.0
H957 H 0.25977 0.91717 0.06021 0.0
H958 H 0.3209 0.1165 0.05606 0.0
H959 H 0.26147 0.09438 0.04537 0.0
H960 H 0.27764 0.09951 0.0868 0.0
H961 H 0.28598 0.92508 1.00727 0.0
H962 H 0.26815 0.95873 0.98353 0.0
H963 H 0.32741 0.98354 0.99544 0.0
H964 H 0.25549 0.08288 0.93996 0.0
H965 H 0.39923 0.13923 0.9638 0.0
H966 H 0.20751 0.03041 1.01122 0.0
H967 H 0.21093 0.98603 0.98941 0.0
H968 H 0.19564 0.02426 0.96905 0.0
H969 H 0.38451 0.10073 0.04189 0.0
H970 H 0.42344 0.11454 1.00858 0.0
H971 H 0.38491 0.05503 0.01975 0.0
C972 C 0.44593 0.55818 0.26628 0.0
C973 C 0.39856 0.54418 0.26602 0.0
C974 C 0.47213 0.57428 0.29442 0.0
C975 C 0.45038 0.57671 0.32271 0.0
C976 C 0.40249 0.56201 0.32265 0.0
C977 C 0.37722 0.54605 0.29428 0.0
C978 C 0.52292 0.58852 0.29396 0.0
C979 C 0.378 0.56358 0.3525 0.0
C980 C 0.50334 0.58803 0.40459 0.0
C981 C 0.52063 0.63527 0.41109 0.0
C982 C 0.48197 0.56859 0.37533 0.0
C983 C 0.47793 0.59718 0.35208 0.0
C984 C 0.49695 0.64516 0.35798 0.0
C985 C 0.51781 0.66354 0.38744 0.0
C986 C 0.46191 0.51714 0.3701 0.0
C987 C 0.49361 0.67682 0.33364 0.0
H988 H 0.46228 0.5557 0.24465 0.0
H989 H 0.3407 0.53545 0.29412 0.0
H990 H 0.54428 0.62565 0.30066 0.0
H991 H 0.52992 0.56817 0.31184 0.0
H992 H 0.53429 0.58328 0.27021 0.0
H993 H 0.3403 0.54969 0.34855 0.0
H994 H 0.3824 0.54307 0.37161 0.0
H995 H 0.39362 0.59988 0.36115 0.0
H996 H 0.50615 0.56605 0.42243 0.0
H997 H 0.53055 0.69991 0.39221 0.0
H998 H 0.4651 0.5091 0.34491 0.0
H999 H 0.42446 0.49899 0.37609 0.0
H1000 H 0.479 0.50293 0.38557 0.0
H1001 H 0.50717 0.67317 0.31033 0.0
H1002 H 0.51318 0.71386 0.34099 0.0
H1003 H 0.45671 0.66682 0.33006 0.0
C1004 C 0.90528 0.43484 0.5878 0.0
C1005 C 0.87497 0.38682 0.58994 0.0
C1006 C 0.91612 0.46335 0.61478 0.0
C1007 C 0.89638 0.44311 0.64446 0.0
C1008 C 0.86596 0.39474 0.64678 0.0
C1009 C 0.85525 0.36732 0.61944 0.0
C1010 C 0.94841 0.51498 0.61156 0.0
C1011 C 0.84442 0.37192 0.67814 0.0
C1012 C 0.94498 0.50192 0.72358 0.0
C1013 C 0.9127 0.51545 0.73212 0.0
C1014 C 0.94161 0.48027 0.69425 0.0
C1015 C 0.90527 0.47234 0.67303 0.0
C1016 C 0.874 0.48791 0.68081 0.0
C1017 C 0.87785 0.50889 0.71036 0.0
C1018 C 0.97551 0.46392 0.68667 0.0
C1019 C 0.83499 0.48033 0.65861 0.0
H1020 H 0.92118 0.45004 0.56521 0.0
H1021 H 0.83116 0.33045 0.62122 0.0
H1022 H 0.9294 0.53366 0.61703 0.0
H1023 H 0.97725 0.52699 0.62901 0.0
H1024 H 0.96325 0.52482 0.58724 0.0
H1025 H 0.82318 0.33356 0.67606 0.0
H1026 H 0.8719 0.38047 0.69624 0.0
H1027 H 0.82197 0.38534 0.68708 0.0
H1028 H 0.97261 0.50776 0.73992 0.0
H1029 H 0.85237 0.51863 0.71671 0.0
H1030 H 0.98836 0.47308 0.66189 0.0
H1031 H 0.95766 0.42556 0.6886 0.0
H1032 H 1.0057 0.47895 0.70319 0.0
H1033 H 0.84834 0.49194 0.63417 0.0
H1034 H 0.81702 0.49914 0.66662 0.0
H1035 H 0.80916 0.44276 0.65731 0.0
C1036 C 0.32789 0.85244 0.04818 0.0
C1037 C 0.35736 0.86312 0.07487 0.0
C1038 C 0.33656 0.83609 0.01972 0.0
C1039 C 0.37667 0.83201 0.01737 0.0
C1040 C 0.40861 0.8464 0.04306 0.0
C1041 C 0.39836 0.8613 0.07153 0.0
C1042 C 0.30229 0.82318 0.99261 0.0
C1043 C 0.45313 0.84474 0.04085 0.0
C1044 C 0.39529 0.74701 0.97037 0.0
C1045 C 0.42694 0.77651 0.94766 0.0
C1046 C 0.37344 0.76321 0.99099 0.0
C1047 C 0.38487 0.81024 0.98924 0.0
C1048 C 0.41179 0.83813 0.96364 0.0
C1049 C 0.43218 0.8206 0.94284 0.0
C1050 C 0.34194 0.7315 0.01666 0.0
C1051 C 0.4231 0.88789 0.96031 0.0
H1052 H 0.29719 0.85564 0.04928 0.0
H1053 H 0.42234 0.87059 0.09123 0.0
H1054 H 0.30326 0.79791 0.9758 0.0
H1055 H 0.26638 0.80837 1.00182 0.0
H1056 H 0.31035 0.85504 0.97917 0.0
H1057 H 0.47635 0.86154 0.06163 0.0
H1058 H 0.44501 0.8081 0.03962 0.0
H1059 H 0.47219 0.86229 0.01882 0.0
H1060 H 0.39051 0.71255 0.97356 0.0
H1061 H 0.45609 0.8432 0.92504 0.0
H1062 H 0.31133 0.73613 0.0196 0.0
H1063 H 0.36094 0.74036 0.0397 0.0
H1064 H 0.32978 0.69446 1.01123 0.0
H1065 H 0.39069 0.88966 0.95995 0.0
H1066 H 0.44295 0.90428 0.93828 0.0
H1067 H 0.44392 0.9084 0.98112 0.0
C1068 C 0.65786 0.496 0.30368 0.0
C1069 C 0.6323 0.50084 0.27892 0.0
C1070 C 0.63762 0.47829 0.33324 0.0
C1071 C 0.59053 0.46482 0.3381 0.0
C1072 C 0.56462 0.47046 0.31348 0.0
C1073 C 0.58586 0.48828 0.28402 0.0
C1074 C 0.6663 0.47268 0.35896 0.0
C1075 C 0.51422 0.45636 0.3177 0.0
C1076 C 0.5306 0.37112 0.39971 0.0
C1077 C 0.53277 0.39697 0.42665 0.0
C1078 C 0.54798 0.39274 0.37044 0.0
C1079 C 0.56793 0.44142 0.36815 0.0
C1080 C 0.5693 0.46773 0.39508 0.0
C1081 C 0.55198 0.44512 0.42423 0.0
C1082 C 0.54576 0.36358 0.34214 0.0
C1083 C 0.58906 0.51957 0.39304 0.0
H1084 H 0.69355 0.50507 0.29972 0.0
H1085 H 0.5662 0.49265 0.26508 0.0
H1086 H 0.66534 0.49041 0.38112 0.0
H1087 H 0.6515 0.43534 0.36462 0.0
H1088 H 0.70308 0.487 0.35181 0.0
H1089 H 0.50341 0.4749 0.30078 0.0
H1090 H 0.49244 0.41858 0.3131 0.0
H1091 H 0.50705 0.46308 0.34233 0.0
H1092 H 0.51583 0.3339 0.4017 0.0
H1093 H 0.55261 0.46486 0.44498 0.0
H1094 H 0.58137 0.3744 0.3338 0.0
H1095 H 0.52715 0.36902 0.32214 0.0
H1096 H 0.5279 0.32595 0.34779 0.0
H1097 H 0.62645 0.53675 0.38696 0.0
H1098 H 0.58515 0.53453 0.41572 0.0
H1099 H 0.57147 0.5278 0.37373 0.0
C1100 C 0.16572 0.57279 0.75478 0.0
C1101 C 0.1674 0.5314 0.75448 0.0
C1102 C 0.16711 0.59562 0.72639 0.0
C1103 C 0.16951 0.57623 0.69695 0.0
C1104 C 0.16914 0.53357 0.69627 0.0
C1105 C 0.1685 0.51191 0.72498 0.0
C1106 C 0.16781 0.64136 0.72797 0.0
C1107 C 0.17072 0.51141 0.66518 0.0
C1108 C 0.14628 0.62101 0.62003 0.0
C1109 C 0.19149 0.64944 0.60886 0.0
C1110 C 0.13833 0.59685 0.64883 0.0
C1111 C 0.17668 0.6024 0.667 0.0
C1112 C 0.22242 0.63193 0.65604 0.0
C1113 C 0.22922 0.65467 0.62687 0.0
C1114 C 0.08909 0.56487 0.65949 0.0
C1115 C 0.2642 0.63946 0.67512 0.0
H1116 H 0.16376 0.58782 0.77715 0.0
H1117 H 0.17001 0.48023 0.72401 0.0
H1118 H 0.20169 0.66951 0.71921 0.0
H1119 H 0.14056 0.6406 0.7123 0.0
H1120 H 0.16245 0.65012 0.75258 0.0
H1121 H 0.16944 0.47771 0.66875 0.0
H1122 H 0.14109 0.50563 0.64984 0.0
H1123 H 0.20298 0.53491 0.6521 0.0
H1124 H 0.11726 0.61717 0.60591 0.0
H1125 H 0.26414 0.67747 0.61838 0.0
H1126 H 0.08356 0.57468 0.68366 0.0
H1127 H 0.08258 0.52878 0.66093 0.0
H1128 H 0.06325 0.56549 0.643 0.0
H1129 H 0.26267 0.65153 0.69951 0.0
H1130 H 0.29738 0.66533 0.66393 0.0
H1131 H 0.26418 0.60622 0.67751 0.0
C1132 C 0.52981 0.16742 0.96603 0.0
C1133 C 0.5075 0.12947 0.94543 0.0
C1134 C 0.54575 0.16272 0.99585 0.0
C1135 C 0.53832 0.11869 1.00538 0.0
C1136 C 0.51439 0.0798 0.98505 0.0
C1137 C 0.49959 0.08579 0.95505 0.0
C1138 C 0.57191 0.20519 0.01667 0.0
C1139 C 0.5049 0.03216 0.99482 0.0
C1140 C 0.62761 0.12549 0.06375 0.0
C1141 C 0.60574 0.12203 0.0929 0.0
C1142 C 0.60517 0.12245 0.03495 0.0
C1143 C 0.55937 0.11479 0.03542 0.0
C1144 C 0.53607 0.10859 0.06476 0.0
C1145 C 0.55991 0.11299 0.09333 0.0
C1146 C 0.63145 0.1301 1.00413 0.0
C1147 C 0.48677 0.09918 0.06598 0.0
H1148 H 0.53568 0.20105 0.95839 0.0
H1149 H 0.48123 0.05629 0.93926 0.0
H1150 H 0.55517 0.19917 0.04035 0.0
H1151 H 0.60784 0.21217 0.02058 0.0
H1152 H 0.57359 0.23656 1.006 0.0
H1153 H 0.48283 1.00502 0.97722 0.0
H1154 H 0.53808 0.03214 0.99741 0.0
H1155 H 0.48746 0.02282 0.01834 0.0
H1156 H 0.66329 0.13311 0.06353 0.0
H1157 H 0.54312 0.10997 0.116 0.0
H1158 H 0.6343 0.16077 0.99157 0.0
H1159 H 0.61242 0.09971 0.98817 0.0
H1160 H 0.66698 0.13582 1.00803 0.0
H1161 H 0.48565 0.1305 0.05827 0.0
H1162 H 0.47189 0.0897 0.09031 0.0
H1163 H 0.46453 0.07067 0.04933 0.0
C1164 C 0.17476 0.7002 0.17854 0.0
C1165 C 0.21117 0.73538 0.16099 0.0
C1166 C 0.17106 0.65626 0.18272 0.0
C1167 C 0.20533 0.64744 0.16979 0.0
C1168 C 0.24127 0.68246 0.15107 0.0
C1169 C 0.24375 0.72582 0.14698 0.0
C1170 C 0.13173 0.62012 0.20238 0.0
C1171 C 0.2788 0.67518 0.13685 0.0
C1172 C 0.23208 0.55765 0.20723 0.0
C1173 C 0.21319 0.52171 0.18466 0.0
C1174 C 0.22834 0.598 0.20337 0.0
C1175 C 0.20468 0.60242 0.17648 0.0
C1176 C 0.18316 0.56478 0.15479 0.0
C1177 C 0.18823 0.52544 0.1589 0.0
C1178 C 0.2523 0.63717 0.22701 0.0
C1179 C 0.15683 0.56705 0.12616 0.0
H1180 H 0.15052 0.70792 0.1905 0.0
H1181 H 0.27303 0.75343 0.13452 0.0
H1182 H 0.11449 0.58633 0.18964 0.0
H1183 H 0.14555 0.61487 0.22511 0.0
H1184 H 0.10538 0.6303 0.20796 0.0
H1185 H 0.30305 0.70478 0.12171 0.0
H1186 H 0.29897 0.67069 0.15622 0.0
H1187 H 0.26322 0.64309 0.12221 0.0
H1188 H 0.25261 0.55573 0.22664 0.0
H1189 H 0.17427 0.4982 0.14102 0.0
H1190 H 0.22797 0.64838 0.23574 0.0
H1191 H 0.28142 0.66747 0.21512 0.0
H1192 H 0.26627 0.6273 0.24778 0.0
H1193 H 0.13181 0.57819 0.13341 0.0
H1194 H 0.13765 0.53312 0.11366 0.0
H1195 H 0.1814 0.59318 0.10911 0.0
C1196 C 0.49752 0.18404 0.52418 0.0
C1197 C 0.49728 0.21642 0.50285 0.0
C1198 C 0.53632 0.17778 0.52716 0.0
C1199 C 0.57686 0.20562 0.50909 0.0
C1200 C 0.57612 0.23722 0.48659 0.0
C1201 C 0.53638 0.2421 0.48369 0.0
C1202 C 0.53474 0.14302 0.55093 0.0
C1203 C 0.61843 0.26807 0.46699 0.0
C1204 C 0.69617 0.23226 0.54107 0.0
C1205 C 0.70685 0.20502 0.52117 0.0
C1206 C 0.6536 0.2319 0.538 0.0
C1207 C 0.62055 0.20326 0.51465 0.0
C1208 C 0.63036 0.17385 0.49576 0.0
C1209 C 0.67347 0.17565 0.4989 0.0
C1210 C 0.6452 0.26428 0.55849 0.0
C1211 C 0.59622 0.142 0.47108 0.0
H1212 H 0.46802 0.16516 0.53981 0.0
H1213 H 0.5372 0.2685 0.4681 0.0
H1214 H 0.54681 0.12064 0.53977 0.0
H1215 H 0.55847 0.16155 0.5711 0.0
H1216 H 0.49931 0.12059 0.56054 0.0
H1217 H 0.61167 0.28895 0.44939 0.0
H1218 H 0.64706 0.29208 0.48296 0.0
H1219 H 0.63051 0.24695 0.45408 0.0
H1220 H 0.72241 0.25626 0.55751 0.0
H1221 H 0.68201 0.15543 0.48285 0.0
H1222 H 0.61146 0.24478 0.57094 0.0
H1223 H 0.64337 0.29054 0.54321 0.0
H1224 H 0.67299 0.2826 0.57655 0.0
H1225 H 0.56124 0.12126 0.48173 0.0
H1226 H 0.60676 0.11793 0.46066 0.0
H1227 H 0.59337 0.16292 0.45156 0.0
C1228 C 0.32898 0.46935 0.85131 0.0
C1229 C 0.29648 0.47694 0.83501 0.0
C1230 C 0.37541 0.50529 0.85552 0.0
C1231 C 0.38957 0.5506 0.84411 0.0
C1232 C 0.35719 0.55786 0.82654 0.0
C1233 C 0.31131 0.52107 0.82217 0.0
C1234 C 0.40856 0.49535 0.8738 0.0
C1235 C 0.37005 0.60538 0.81414 0.0
C1236 C 0.48718 0.65981 0.88427 0.0
C1237 C 0.52232 0.67593 0.86124 0.0
C1238 C 0.44464 0.61808 0.87975 0.0
C1239 C 0.43713 0.59102 0.85178 0.0
C1240 C 0.47411 0.60521 0.82985 0.0
C1241 C 0.51576 0.64752 0.83463 0.0
C1242 C 0.40642 0.60495 0.90378 0.0
C1243 C 0.46861 0.57735 0.80012 0.0
H1244 H 0.31739 0.43591 0.8624 0.0
H1245 H 0.28595 0.52776 0.81075 0.0
H1246 H 0.44218 0.50981 0.86113 0.0
H1247 H 0.41561 0.51238 0.8975 0.0
H1248 H 0.39442 0.45755 0.87738 0.0
H1249 H 0.34182 0.60498 0.79971 0.0
H1250 H 0.37796 0.62962 0.83446 0.0
H1251 H 0.40173 0.6193 0.79929 0.0
H1252 H 0.49119 0.68165 0.90452 0.0
H1253 H 0.54232 0.6599 0.8164 0.0
H1254 H 0.39182 0.56824 0.91109 0.0
H1255 H 0.37785 0.60826 0.89276 0.0
H1256 H 0.41863 0.62729 0.92538 0.0
H1257 H 0.45303 0.53997 0.80591 0.0
H1258 H 0.50225 0.58912 0.7879 0.0
H1259 H 0.44478 0.58089 0.78331 0.0
C1260 C 0.82911 0.49688 0.18757 0.0
C1261 C 0.78634 0.49188 0.1968 0.0
C1262 C 0.83501 0.45773 0.18399 0.0
C1263 C 0.79724 0.41239 0.18975 0.0
C1264 C 0.75448 0.40762 0.20009 0.0
C1265 C 0.74949 0.44716 0.2031 0.0
C1266 C 0.88108 0.46474 0.17273 0.0
C1267 C 0.71333 0.36046 0.20707 0.0
C1268 C 0.78673 0.3004 0.15465 0.0
C1269 C 0.79737 0.28171 0.18118 0.0
C1270 C 0.78894 0.34408 0.15648 0.0
C1271 C 0.80198 0.36976 0.18551 0.0
C1272 C 0.81539 0.35213 0.21163 0.0
C1273 C 0.81297 0.30871 0.20912 0.0
C1274 C 0.77479 0.36151 0.12785 0.0
C1275 C 0.8295 0.3777 0.24305 0.0
H1276 H 0.85722 0.53113 0.18152 0.0
H1277 H 0.71598 0.44296 0.20936 0.0
H1278 H 0.89393 0.44756 0.1892 0.0
H1279 H 0.87674 0.44836 0.14897 0.0
H1280 H 0.90772 0.50205 0.17092 0.0
H1281 H 0.68304 0.36267 0.21594 0.0
H1282 H 0.70283 0.33888 0.18515 0.0
H1283 H 0.72284 0.34232 0.22516 0.0
H1284 H 0.77408 0.2798 0.13309 0.0
H1285 H 0.82139 0.29482 0.22982 0.0
H1286 H 0.80064 0.39841 0.12323 0.0
H1287 H 0.74109 0.35961 0.13262 0.0
H1288 H 0.77108 0.34085 0.1061 0.0
H1289 H 0.8563 0.41453 0.23937 0.0
H1290 H 0.84325 0.36187 0.26004 0.0
H1291 H 0.79902 0.37734 0.25407 0.0
C1292 C 0.52965 0.83679 0.5092 0.0
C1293 C 0.51811 0.79275 0.49754 0.0
C1294 C 0.49518 0.84928 0.51399 0.0
C1295 C 0.44806 0.81709 0.50673 0.0
C1296 C 0.43677 0.7732 0.49385 0.0
C1297 C 0.4717 0.76143 0.48989 0.0
C1298 C 0.50886 0.89606 0.52822 0.0
C1299 C 0.38742 0.73796 0.48509 0.0
C1300 C 0.34252 0.81795 0.54272 0.0
C1301 C 0.32791 0.83472 0.51714 0.0
C1302 C 0.38338 0.81489 0.54059 0.0
C1303 C 0.41025 0.82877 0.51221 0.0
C1304 C 0.39746 0.84911 0.48747 0.0
C1305 C 0.35681 0.85198 0.4903 0.0
C1306 C 0.39588 0.79364 0.56785 0.0
C1307 C 0.42447 0.8643 0.45673 0.0
H1308 H 0.56519 0.86047 0.51627 0.0
H1309 H 0.46246 0.72692 0.48169 0.0
H1310 H 0.49585 0.91459 0.5132 0.0
H1311 H 0.49268 0.89131 0.55204 0.0
H1312 H 0.54705 0.91817 0.53088 0.0
H1313 H 0.38464 0.70628 0.47406 0.0
H1314 H 0.36533 0.72764 0.50669 0.0
H1315 H 0.37325 0.7534 0.46817 0.0
H1316 H 0.32032 0.80397 0.56339 0.0
H1317 H 0.3459 0.865 0.47036 0.0
H1318 H 0.43359 0.81414 0.57307 0.0
H1319 H 0.38784 0.75809 0.56115 0.0
H1320 H 0.37632 0.79137 0.58983 0.0
H1321 H 0.46215 0.88592 0.4616 0.0
H1322 H 0.41344 0.8843 0.4414 0.0
H1323 H 0.41916 0.83326 0.44328 0.0
C1324 C 0.72053 0.50014 0.81681 0.0
C1325 C 0.75752 0.49686 0.83021 0.0
C1326 C 0.67414 0.46291 0.81918 0.0
C1327 C 0.66442 0.42114 0.83497 0.0
C1328 C 0.70181 0.41781 0.84823 0.0
C1329 C 0.74735 0.45538 0.84581 0.0
C1330 C 0.63547 0.46825 0.80486 0.0
C1331 C 0.6939 0.37408 0.86472 0.0
C1332 C 0.54438 0.3274 0.86503 0.0
C1333 C 0.5308 0.2933 0.84121 0.0
C1334 C 0.58653 0.37028 0.86262 0.0
C1335 C 0.6161 0.37939 0.83588 0.0
C1336 C 0.60157 0.34568 0.81136 0.0
C1337 C 0.55946 0.30357 0.81426 0.0
C1338 C 0.60023 0.40521 0.88924 0.0
C1339 C 0.63163 0.35302 0.78256 0.0
H1340 H 0.72768 0.53199 0.80499 0.0
H1341 H 0.77535 0.45197 0.8562 0.0
H1342 H 0.61797 0.44212 0.78573 0.0
H1343 H 0.609 0.46172 0.82327 0.0
H1344 H 0.64814 0.50336 0.7947 0.0
H1345 H 0.72645 0.37731 0.87449 0.0
H1346 H 0.6689 0.36541 0.88453 0.0
H1347 H 0.67856 0.34456 0.8477 0.0
H1348 H 0.52271 0.32021 0.88588 0.0
H1349 H 0.54959 0.27801 0.79543 0.0
H1350 H 0.61125 0.44018 0.87945 0.0
H1351 H 0.63024 0.40745 0.90239 0.0
H1352 H 0.57146 0.39581 0.90635 0.0
H1353 H 0.64186 0.38695 0.77133 0.0
H1354 H 0.61392 0.32528 0.76439 0.0
H1355 H 0.66396 0.35366 0.79005 0.0
loop_
_geom_bond_atom_site_label_1
_geom_bond_atom_site_label_2
_geom_bond_distance
_geom_bond_site_symmetry_2
_ccdc_geom_bond_type
C0 C1 1.351 . S
C0 N3 1.368 . S
C0 H5 0.931 . S
C1 C0 1.351 . S
C1 N2 1.373 . S
C1 H29 0.930 . S
N2 C1 1.373 . S
N2 C4 1.340 . S
N3 C0 1.368 . S
N3 C4 1.321 . S
N3 Co6 2.135 . S
C4 N2 1.340 . S
C4 N3 1.321 . S
C4 H28 0.930 . S
H5 C0 0.931 . S
Co6 N3 2.135 . S
Co6 N9 2.121 . S
Co6 O14 2.055 . S
Co6 O17 2.039 . S
Co6 N20 2.140 . S
C7 O8 1.227 . S
C7 O17 1.265 . S
O8 C7 1.227 . S
N9 Co6 2.121 . S
N9 C11 1.375 . S
N9 C12 1.313 . S
C10 C11 1.338 . S
C10 N13 1.377 . S
C10 H30 0.930 . S
C11 N9 1.375 . S
C11 C10 1.338 . S
C11 H15 0.931 . S
C12 N9 1.313 . S
C12 N13 1.344 . S
C12 H16 0.930 . S
N13 C10 1.377 . S
N13 C12 1.344 . S
O14 Co6 2.055 . S
O14 C18 1.253 . S
H15 C11 0.931 . S
H16 C12 0.930 . S
O17 Co6 2.039 . S
O17 C7 1.265 . S
C18 O14 1.253 . S
C18 O19 1.227 . S
O19 C18 1.227 . S
N20 Co6 2.140 . S
N20 C23 1.346 . S
N20 C24 1.345 . S
C21 C22 1.387 . S
C21 C25 1.391 . S
C22 C21 1.387 . S
C22 C23 1.369 . S
C22 H31 0.929 . S
C23 N20 1.346 . S
C23 C22 1.369 . S
C23 H26 0.928 . S
C24 N20 1.345 . S
C24 C25 1.371 . S
C24 H27 0.931 . S
C25 C21 1.391 . S
C25 C24 1.371 . S
C25 H32 0.930 . S
H26 C23 0.928 . S
H27 C24 0.931 . S
H28 C4 0.930 . S
H29 C1 0.930 . S
H30 C10 0.930 . S
H31 C22 0.929 . S
H32 C25 0.930 . S
C33 C34 1.351 . S
C33 N36 1.368 . S
C33 H38 0.931 . S
C34 C33 1.351 . S
C34 N35 1.373 . S
C34 H62 0.930 . S
N35 C34 1.373 . S
N35 C37 1.340 . S
N36 C33 1.368 . S
N36 C37 1.321 . S
N36 Co39 2.135 . S
C37 N35 1.340 . S
C37 N36 1.321 . S
C37 H61 0.930 . S
H38 C33 0.931 . S
Co39 N36 2.135 . S
Co39 N42 2.121 . S
Co39 O47 2.055 . S
Co39 O50 2.039 . S
Co39 N53 2.140 . S
C40 O41 1.227 . S
C40 O50 1.265 . S
O41 C40 1.227 . S
N42 Co39 2.121 . S
N42 C44 1.375 . S
N42 C45 1.313 . S
C43 C44 1.338 . S
C43 N46 1.377 . S
C43 H63 0.930 . S
C44 N42 1.375 . S
C44 C43 1.338 . S
C44 H48 0.931 . S
C45 N42 1.313 . S
C45 N46 1.344 . S
C45 H49 0.930 . S
N46 C43 1.377 . S
N46 C45 1.344 . S
O47 Co39 2.055 . S
O47 C51 1.253 . S
H48 C44 0.931 . S
H49 C45 0.930 . S
O50 Co39 2.039 . S
O50 C40 1.265 . S
C51 O47 1.253 . S
C51 O52 1.227 . S
O52 C51 1.227 . S
N53 Co39 2.140 . S
N53 C56 1.346 . S
N53 C57 1.345 . S
C54 C55 1.387 . S
C54 C58 1.391 . S
C55 C54 1.387 . S
C55 C56 1.369 . S
C55 H64 0.929 . S
C56 N53 1.346 . S
C56 C55 1.369 . S
C56 H59 0.928 . S
C57 N53 1.345 . S
C57 C58 1.371 . S
C57 H60 0.931 . S
C58 C54 1.391 . S
C58 C57 1.371 . S
C58 H65 0.930 . S
H59 C56 0.928 . S
H60 C57 0.931 . S
H61 C37 0.930 . S
H62 C34 0.930 . S
H63 C43 0.930 . S
H64 C55 0.929 . S
H65 C58 0.930 . S
C66 C67 1.351 . S
C66 N69 1.368 . S
C66 H71 0.931 . S
C67 C66 1.351 . S
C67 N68 1.373 . S
C67 H95 0.930 . S
N68 C67 1.373 . S
N68 C70 1.340 . S
N69 C66 1.368 . S
N69 C70 1.321 . S
N69 Co72 2.135 . S
C70 N68 1.340 . S
C70 N69 1.321 . S
C70 H94 0.930 . S
H71 C66 0.931 . S
Co72 N69 2.135 . S
Co72 N75 2.121 . S
Co72 O80 2.055 . S
Co72 O83 2.039 . S
Co72 N86 2.140 . S
C73 O74 1.227 . S
C73 O83 1.265 . S
O74 C73 1.227 . S
N75 Co72 2.121 . S
N75 C77 1.375 . S
N75 C78 1.313 . S
C76 C77 1.338 . S
C76 N79 1.377 . S
C76 H96 0.930 . S
C77 N75 1.375 . S
C77 C76 1.338 . S
C77 H81 0.931 . S
C78 N75 1.313 . S
C78 N79 1.344 . S
C78 H82 0.930 . S
N79 C76 1.377 . S
N79 C78 1.344 . S
O80 Co72 2.055 . S
O80 C84 1.253 . S
H81 C77 0.931 . S
H82 C78 0.930 . S
O83 Co72 2.039 . S
O83 C73 1.265 . S
C84 O80 1.253 . S
C84 O85 1.227 . S
O85 C84 1.227 . S
N86 Co72 2.140 . S
N86 C89 1.346 . S
N86 C90 1.345 . S
C87 C88 1.387 . S
C87 C91 1.391 . S
C88 C87 1.387 . S
C88 C89 1.369 . S
C88 H97 0.929 . S
C89 N86 1.346 . S
C89 C88 1.369 . S
C89 H92 0.928 . S
C90 N86 1.345 . S
C90 C91 1.371 . S
C90 H93 0.931 . S
C91 C87 1.391 . S
C91 C90 1.371 . S
C91 H98 0.930 . S
H92 C89 0.928 . S
H93 C90 0.931 . S
H94 C70 0.930 . S
H95 C67 0.930 . S
H96 C76 0.930 . S
H97 C88 0.929 . S
H98 C91 0.930 . S
C99 C100 1.351 . S
C99 N102 1.368 . S
C99 H104 0.931 . S
C100 C99 1.351 . S
C100 N101 1.373 . S
C100 H128 0.930 . S
N101 C100 1.373 . S
N101 C103 1.340 . S
N102 C99 1.368 . S
N102 C103 1.321 . S
N102 Co105 2.135 . S
C103 N101 1.340 . S
C103 N102 1.321 . S
C103 H127 0.930 . S
H104 C99 0.931 . S
Co105 N102 2.135 . S
Co105 N108 2.121 . S
Co105 O113 2.055 . S
Co105 O116 2.039 . S
Co105 N119 2.140 . S
C106 O107 1.227 . S
C106 O116 1.265 . S
O107 C106 1.227 . S
N108 Co105 2.121 . S
N108 C110 1.375 . S
N108 C111 1.313 . S
C109 C110 1.338 . S
C109 N112 1.377 . S
C109 H129 0.930 . S
C110 N108 1.375 . S
C110 C109 1.338 . S
C110 H114 0.931 . S
C111 N108 1.313 . S
C111 N112 1.344 . S
C111 H115 0.930 . S
N112 C109 1.377 . S
N112 C111 1.344 . S
O113 Co105 2.055 . S
O113 C117 1.253 . S
H114 C110 0.931 . S
H115 C111 0.930 . S
O116 Co105 2.039 . S
O116 C106 1.265 . S
C117 O113 1.253 . S
C117 O118 1.227 . S
O118 C117 1.227 . S
N119 Co105 2.140 . S
N119 C122 1.346 . S
N119 C123 1.345 . S
C120 C121 1.387 . S
C120 C124 1.391 . S
C121 C120 1.387 . S
C121 C122 1.369 . S
C121 H130 0.929 . S
C122 N119 1.346 . S
C122 C121 1.369 . S
C122 H125 0.928 . S
C123 N119 1.345 . S
C123 C124 1.371 . S
C123 H126 0.931 . S
C124 C120 1.391 . S
C124 C123 1.371 . S
C124 H131 0.930 . S
H125 C122 0.928 . S
H126 C123 0.931 . S
H127 C103 0.930 . S
H128 C100 0.930 . S
H129 C109 0.930 . S
H130 C121 0.929 . S
H131 C124 0.930 . S
C132 C133 1.351 . S
C132 N135 1.368 . S
C132 H137 0.931 . S
C133 C132 1.351 . S
C133 N134 1.373 . S
C133 H161 0.930 . S
N134 C133 1.373 . S
N134 C136 1.340 . S
N135 C132 1.368 . S
N135 C136 1.321 . S
N135 Co138 2.135 . S
C136 N134 1.340 . S
C136 N135 1.321 . S
C136 H160 0.930 . S
H137 C132 0.931 . S
Co138 N135 2.135 . S
Co138 N141 2.121 . S
Co138 O146 2.055 . S
Co138 O149 2.039 . S
Co138 N152 2.140 . S
C139 O140 1.227 . S
C139 O149 1.265 . S
O140 C139 1.227 . S
N141 Co138 2.121 . S
N141 C143 1.375 . S
N141 C144 1.313 . S
C142 C143 1.338 . S
C142 N145 1.377 . S
C142 H162 0.930 . S
C143 N141 1.375 . S
C143 C142 1.338 . S
C143 H147 0.931 . S
C144 N141 1.313 . S
C144 N145 1.344 . S
C144 H148 0.930 . S
N145 C142 1.377 . S
N145 C144 1.344 . S
O146 Co138 2.055 . S
O146 C150 1.253 . S
H147 C143 0.931 . S
H148 C144 0.930 . S
O149 Co138 2.039 . S
O149 C139 1.265 . S
C150 O146 1.253 . S
C150 O151 1.227 . S
O151 C150 1.227 . S
N152 Co138 2.140 . S
N152 C155 1.346 . S
N152 C156 1.345 . S
C153 C154 1.387 . S
C153 C157 1.391 . S
C154 C153 1.387 . S
C154 C155 1.369 . S
C154 H163 0.929 . S
C155 N152 1.346 . S
C155 C154 1.369 . S
C155 H158 0.928 . S
C156 N152 1.345 . S
C156 C157 1.371 . S
C156 H159 0.931 . S
C157 C153 1.391 . S
C157 C156 1.371 . S
C157 H164 0.930 . S
H158 C155 0.928 . S
H159 C156 0.931 . S
H160 C136 0.930 . S
H161 C133 0.930 . S
H162 C142 0.930 . S
H163 C154 0.929 . S
H164 C157 0.930 . S
C165 C166 1.351 . S
C165 N168 1.368 . S
C165 H170 0.931 . S
C166 C165 1.351 . S
C166 N167 1.373 . S
C166 H194 0.930 . S
N167 C166 1.373 . S
N167 C169 1.340 . S
N168 C165 1.368 . S
N168 C169 1.321 . S
N168 Co171 2.135 . S
C169 N167 1.340 . S
C169 N168 1.321 . S
C169 H193 0.930 . S
H170 C165 0.931 . S
Co171 N168 2.135 . S
Co171 N174 2.121 . S
Co171 O179 2.055 . S
Co171 O182 2.039 . S
Co171 N185 2.140 . S
C172 O173 1.227 . S
C172 O182 1.265 . S
O173 C172 1.227 . S
N174 Co171 2.121 . S
N174 C176 1.375 . S
N174 C177 1.313 . S
C175 C176 1.338 . S
C175 N178 1.377 . S
C175 H195 0.930 . S
C176 N174 1.375 . S
C176 C175 1.338 . S
C176 H180 0.931 . S
C177 N174 1.313 . S
C177 N178 1.344 . S
C177 H181 0.930 . S
N178 C175 1.377 . S
N178 C177 1.344 . S
O179 Co171 2.055 . S
O179 C183 1.253 . S
H180 C176 0.931 . S
H181 C177 0.930 . S
O182 Co171 2.039 . S
O182 C172 1.265 . S
C183 O179 1.253 . S
C183 O184 1.227 . S
O184 C183 1.227 . S
N185 Co171 2.140 . S
N185 C188 1.346 . S
N185 C189 1.345 . S
C186 C187 1.387 . S
C186 C190 1.391 . S
C187 C186 1.387 . S
C187 C188 1.369 . S
C187 H196 0.929 . S
C188 N185 1.346 . S
C188 C187 1.369 . S
C188 H191 0.928 . S
C189 N185 1.345 . S
C189 C190 1.371 . S
C189 H192 0.931 . S
C190 C186 1.391 . S
C190 C189 1.371 . S
C190 H197 0.930 . S
H191 C188 0.928 . S
H192 C189 0.931 . S
H193 C169 0.930 . S
H194 C166 0.930 . S
H195 C175 0.930 . S
H196 C187 0.929 . S
H197 C190 0.930 . S
C198 C199 1.351 . S
C198 N201 1.368 . S
C198 H203 0.931 . S
C199 C198 1.351 . S
C199 N200 1.373 . S
C199 H227 0.930 . S
N200 C199 1.373 . S
N200 C202 1.340 . S
N201 C198 1.368 . S
N201 C202 1.321 . S
N201 Co204 2.135 . S
C202 N200 1.340 . S
C202 N201 1.321 . S
C202 H226 0.930 . S
H203 C198 0.931 . S
Co204 N201 2.135 . S
Co204 N207 2.121 . S
Co204 O212 2.055 . S
Co204 O215 2.039 . S
Co204 N218 2.140 . S
C205 O206 1.227 . S
C205 O215 1.265 . S
O206 C205 1.227 . S
N207 Co204 2.121 . S
N207 C209 1.375 . S
N207 C210 1.313 . S
C208 C209 1.338 . S
C208 N211 1.377 . S
C208 H228 0.930 . S
C209 N207 1.375 . S
C209 C208 1.338 . S
C209 H213 0.931 . S
C210 N207 1.313 . S
C210 N211 1.344 . S
C210 H214 0.930 . S
N211 C208 1.377 . S
N211 C210 1.344 . S
O212 Co204 2.055 . S
O212 C216 1.253 . S
H213 C209 0.931 . S
H214 C210 0.930 . S
O215 Co204 2.039 . S
O215 C205 1.265 . S
C216 O212 1.253 . S
C216 O217 1.227 . S
O217 C216 1.227 . S
N218 Co204 2.140 . S
N218 C221 1.346 . S
N218 C222 1.345 . S
C219 C220 1.387 . S
C219 C223 1.391 . S
C220 C219 1.387 . S
C220 C221 1.369 . S
C220 H229 0.929 . S
C221 N218 1.346 . S
C221 C220 1.369 . S
C221 H224 0.928 . S
C222 N218 1.345 . S
C222 C223 1.371 . S
C222 H225 0.931 . S
C223 C219 1.391 . S
C223 C222 1.371 . S
C223 H230 0.930 . S
H224 C221 0.928 . S
H225 C222 0.931 . S
H226 C202 0.930 . S
H227 C199 0.930 . S
H228 C208 0.930 . S
H229 C220 0.929 . S
H230 C223 0.930 . S
C231 C232 1.351 . S
C231 N234 1.368 . S
C231 H236 0.931 . S
C232 C231 1.351 . S
C232 N233 1.373 . S
C232 H260 0.930 . S
N233 C232 1.373 . S
N233 C235 1.340 . S
N234 C231 1.368 . S
N234 C235 1.321 . S
N234 Co237 2.135 . S
C235 N233 1.340 . S
C235 N234 1.321 . S
C235 H259 0.930 . S
H236 C231 0.931 . S
Co237 N234 2.135 . S
Co237 N240 2.121 . S
Co237 O245 2.055 . S
Co237 O248 2.039 . S
Co237 N251 2.140 . S
C238 O239 1.227 . S
C238 O248 1.265 . S
O239 C238 1.227 . S
N240 Co237 2.121 . S
N240 C242 1.375 . S
N240 C243 1.313 . S
C241 C242 1.338 . S
C241 N244 1.377 . S
C241 H261 0.930 . S
C242 N240 1.375 . S
C242 C241 1.338 . S
C242 H246 0.931 . S
C243 N240 1.313 . S
C243 N244 1.344 . S
C243 H247 0.930 . S
N244 C241 1.377 . S
N244 C243 1.344 . S
O245 Co237 2.055 . S
O245 C249 1.253 . S
H246 C242 0.931 . S
H247 C243 0.930 . S
O248 Co237 2.039 . S
O248 C238 1.265 . S
C249 O245 1.253 . S
C249 O250 1.227 . S
O250 C249 1.227 . S
N251 Co237 2.140 . S
N251 C254 1.346 . S
N251 C255 1.345 . S
C252 C253 1.387 . S
C252 C256 1.391 . S
C253 C252 1.387 . S
C253 C254 1.369 . S
C253 H262 0.929 . S
C254 N251 1.346 . S
C254 C253 1.369 . S
C254 H257 0.928 . S
C255 N251 1.345 . S
C255 C256 1.371 . S
C255 H258 0.931 . S
C256 C252 1.391 . S
C256 C255 1.371 . S
C256 H263 0.930 . S
H257 C254 0.928 . S
H258 C255 0.931 . S
H259 C235 0.930 . S
H260 C232 0.930 . S
H261 C241 0.930 . S
H262 C253 0.929 . S
H263 C256 0.930 . S
C264 C265 1.351 . S
C264 N267 1.368 . S
C264 H269 0.931 . S
C265 C264 1.351 . S
C265 N266 1.373 . S
C265 H293 0.930 . S
N266 C265 1.373 . S
N266 C268 1.340 . S
N267 C264 1.368 . S
N267 C268 1.321 . S
N267 Co270 2.135 . S
C268 N266 1.340 . S
C268 N267 1.321 . S
C268 H292 0.930 . S
H269 C264 0.931 . S
Co270 N267 2.135 . S
Co270 N273 2.121 . S
Co270 O278 2.055 . S
Co270 O281 2.039 . S
Co270 N284 2.140 . S
C271 O272 1.227 . S
C271 O281 1.265 . S
O272 C271 1.227 . S
N273 Co270 2.121 . S
N273 C275 1.375 . S
N273 C276 1.313 . S
C274 C275 1.338 . S
C274 N277 1.377 . S
C274 H294 0.930 . S
C275 N273 1.375 . S
C275 C274 1.338 . S
C275 H279 0.931 . S
C276 N273 1.313 . S
C276 N277 1.344 . S
C276 H280 0.930 . S
N277 C274 1.377 . S
N277 C276 1.344 . S
O278 Co270 2.055 . S
O278 C282 1.253 . S
H279 C275 0.931 . S
H280 C276 0.930 . S
O281 Co270 2.039 . S
O281 C271 1.265 . S
C282 O278 1.253 . S
C282 O283 1.227 . S
O283 C282 1.227 . S
N284 Co270 2.140 . S
N284 C287 1.346 . S
N284 C288 1.345 . S
C285 C286 1.387 . S
C285 C289 1.391 . S
C286 C285 1.387 . S
C286 C287 1.369 . S
C286 H295 0.929 . S
C287 N284 1.346 . S
C287 C286 1.369 . S
C287 H290 0.928 . S
C288 N284 1.345 . S
C288 C289 1.371 . S
C288 H291 0.931 . S
C289 C285 1.391 . S
C289 C288 1.371 . S
C289 H296 0.930 . S
H290 C287 0.928 . S
H291 C288 0.931 . S
H292 C268 0.930 . S
H293 C265 0.930 . S
H294 C274 0.930 . S
H295 C286 0.929 . S
H296 C289 0.930 . S
C297 C298 1.351 . S
C297 N300 1.368 . S
C297 H302 0.931 . S
C298 C297 1.351 . S
C298 N299 1.373 . S
C298 H326 0.930 . S
N299 C298 1.373 . S
N299 C301 1.340 . S
N300 C297 1.368 . S
N300 C301 1.321 . S
N300 Co303 2.135 . S
C301 N299 1.340 . S
C301 N300 1.321 . S
C301 H325 0.930 . S
H302 C297 0.931 . S
Co303 N300 2.135 . S
Co303 N306 2.121 . S
Co303 O311 2.055 . S
Co303 O314 2.039 . S
Co303 N317 2.140 . S
C304 O305 1.227 . S
C304 O314 1.265 . S
O305 C304 1.227 . S
N306 Co303 2.121 . S
N306 C308 1.375 . S
N306 C309 1.313 . S
C307 C308 1.338 . S
C307 N310 1.377 . S
C307 H327 0.930 . S
C308 N306 1.375 . S
C308 C307 1.338 . S
C308 H312 0.931 . S
C309 N306 1.313 . S
C309 N310 1.344 . S
C309 H313 0.930 . S
N310 C307 1.377 . S
N310 C309 1.344 . S
O311 Co303 2.055 . S
O311 C315 1.253 . S
H312 C308 0.931 . S
H313 C309 0.930 . S
O314 Co303 2.039 . S
O314 C304 1.265 . S
C315 O311 1.253 . S
C315 O316 1.227 . S
O316 C315 1.227 . S
N317 Co303 2.140 . S
N317 C320 1.346 . S
N317 C321 1.345 . S
C318 C319 1.387 . S
C318 C322 1.391 . S
C319 C318 1.387 . S
C319 C320 1.369 . S
C319 H328 0.929 . S
C320 N317 1.346 . S
C320 C319 1.369 . S
C320 H323 0.928 . S
C321 N317 1.345 . S
C321 C322 1.371 . S
C321 H324 0.931 . S
C322 C318 1.391 . S
C322 C321 1.371 . S
C322 H329 0.930 . S
H323 C320 0.928 . S
H324 C321 0.931 . S
H325 C301 0.930 . S
H326 C298 0.930 . S
H327 C307 0.930 . S
H328 C319 0.929 . S
H329 C322 0.930 . S
C330 C331 1.351 . S
C330 N333 1.368 . S
C330 H335 0.931 . S
C331 C330 1.351 . S
C331 N332 1.373 . S
C331 H359 0.930 . S
N332 C331 1.373 . S
N332 C334 1.340 . S
N333 C330 1.368 . S
N333 C334 1.321 . S
N333 Co336 2.135 . S
C334 N332 1.340 . S
C334 N333 1.321 . S
C334 H358 0.930 . S
H335 C330 0.931 . S
Co336 N333 2.135 . S
Co336 N339 2.121 . S
Co336 O344 2.055 . S
Co336 O347 2.039 . S
Co336 N350 2.140 . S
C337 O338 1.227 . S
C337 O347 1.265 . S
O338 C337 1.227 . S
N339 Co336 2.121 . S
N339 C341 1.375 . S
N339 C342 1.313 . S
C340 C341 1.338 . S
C340 N343 1.377 . S
C340 H360 0.930 . S
C341 N339 1.375 . S
C341 C340 1.338 . S
C341 H345 0.931 . S
C342 N339 1.313 . S
C342 N343 1.344 . S
C342 H346 0.930 . S
N343 C340 1.377 . S
N343 C342 1.344 . S
O344 Co336 2.055 . S
O344 C348 1.253 . S
H345 C341 0.931 . S
H346 C342 0.930 . S
O347 Co336 2.039 . S
O347 C337 1.265 . S
C348 O344 1.253 . S
C348 O349 1.227 . S
O349 C348 1.227 . S
N350 Co336 2.140 . S
N350 C353 1.346 . S
N350 C354 1.345 . S
C351 C352 1.387 . S
C351 C355 1.391 . S
C352 C351 1.387 . S
C352 C353 1.369 . S
C352 H361 0.929 . S
C353 N350 1.346 . S
C353 C352 1.369 . S
C353 H356 0.928 . S
C354 N350 1.345 . S
C354 C355 1.371 . S
C354 H357 0.931 . S
C355 C351 1.391 . S
C355 C354 1.371 . S
C355 H362 0.930 . S
H356 C353 0.928 . S
H357 C354 0.931 . S
H358 C334 0.930 . S
H359 C331 0.930 . S
H360 C340 0.930 . S
H361 C352 0.929 . S
H362 C355 0.930 . S
C363 C364 1.351 . S
C363 N366 1.368 . S
C363 H368 0.931 . S
C364 C363 1.351 . S
C364 N365 1.373 . S
C364 H392 0.930 . S
N365 C364 1.373 . S
N365 C367 1.340 . S
N366 C363 1.368 . S
N366 C367 1.321 . S
N366 Co369 2.135 . S
C367 N365 1.340 . S
C367 N366 1.321 . S
C367 H391 0.930 . S
H368 C363 0.931 . S
Co369 N366 2.135 . S
Co369 N372 2.121 . S
Co369 O377 2.055 . S
Co369 O380 2.039 . S
Co369 N383 2.140 . S
C370 O371 1.227 . S
C370 O380 1.265 . S
O371 C370 1.227 . S
N372 Co369 2.121 . S
N372 C374 1.375 . S
N372 C375 1.313 . S
C373 C374 1.338 . S
C373 N376 1.377 . S
C373 H393 0.930 . S
C374 N372 1.375 . S
C374 C373 1.338 . S
C374 H378 0.931 . S
C375 N372 1.313 . S
C375 N376 1.344 . S
C375 H379 0.930 . S
N376 C373 1.377 . S
N376 C375 1.344 . S
O377 Co369 2.055 . S
O377 C381 1.253 . S
H378 C374 0.931 . S
H379 C375 0.930 . S
O380 Co369 2.039 . S
O380 C370 1.265 . S
C381 O377 1.253 . S
C381 O382 1.227 . S
O382 C381 1.227 . S
N383 Co369 2.140 . S
N383 C386 1.346 . S
N383 C387 1.345 . S
C384 C385 1.387 . S
C384 C388 1.391 . S
C385 C384 1.387 . S
C385 C386 1.369 . S
C385 H394 0.929 . S
C386 N383 1.346 . S
C386 C385 1.369 . S
C386 H389 0.928 . S
C387 N383 1.345 . S
C387 C388 1.371 . S
C387 H390 0.931 . S
C388 C384 1.391 . S
C388 C387 1.371 . S
C388 H395 0.930 . S
H389 C386 0.928 . S
H390 C387 0.931 . S
H391 C367 0.930 . S
H392 C364 0.930 . S
H393 C373 0.930 . S
H394 C385 0.929 . S
H395 C388 0.930 . S
C396 C397 1.391 . S
C396 C398 1.394 . S
C396 H412 0.931 . S
C397 C396 1.391 . S
C397 C401 1.376 . S
C398 C396 1.394 . S
C398 C399 1.369 . S
C398 C402 1.531 . S
C399 C398 1.369 . S
C399 C400 1.410 . S
C399 C407 1.503 . S
C400 C399 1.410 . S
C400 C401 1.392 . S
C400 C403 1.511 . S
C401 C397 1.376 . S
C401 C400 1.392 . S
C401 H413 0.929 . S
C402 C398 1.531 . S
C402 H414 0.960 . S
C402 H415 0.962 . S
C402 H416 0.960 . S
C403 C400 1.511 . S
C403 H417 0.961 . S
C403 H418 0.961 . S
C403 H419 0.961 . S
C404 C405 1.370 . S
C404 C406 1.363 . S
C404 H420 0.931 . S
C405 C404 1.370 . S
C405 C409 1.408 . S
C406 C404 1.363 . S
C406 C407 1.370 . S
C406 C410 1.524 . S
C407 C399 1.503 . S
C407 C406 1.370 . S
C407 C408 1.403 . S
C408 C407 1.403 . S
C408 C409 1.404 . S
C408 C411 1.539 . S
C409 C405 1.408 . S
C409 C408 1.404 . S
C409 H421 0.930 . S
C410 C406 1.524 . S
C410 H422 0.956 . S
C410 H423 0.961 . S
C410 H424 0.961 . S
C411 C408 1.539 . S
C411 H425 0.958 . S
C411 H426 0.961 . S
C411 H427 0.960 . S
H412 C396 0.931 . S
H413 C401 0.929 . S
H414 C402 0.960 . S
H415 C402 0.962 . S
H416 C402 0.960 . S
H417 C403 0.961 . S
H418 C403 0.961 . S
H419 C403 0.961 . S
H420 C404 0.931 . S
H421 C409 0.930 . S
H422 C410 0.956 . S
H423 C410 0.961 . S
H424 C410 0.961 . S
H425 C411 0.958 . S
H426 C411 0.961 . S
H427 C411 0.960 . S
C428 C429 1.391 . S
C428 C430 1.394 1_655 S
C428 H444 0.931 1_655 S
C429 C428 1.391 . S
C429 C433 1.376 . S
C430 C428 1.394 1_455 S
C430 C431 1.369 1_455 S
C430 C434 1.531 . S
C431 C430 1.369 1_655 S
C431 C432 1.410 . S
C431 C439 1.503 1_655 S
C432 C431 1.410 . S
C432 C433 1.392 . S
C432 C435 1.511 . S
C433 C429 1.376 . S
C433 C432 1.392 . S
C433 H445 0.929 . S
C434 C430 1.531 . S
C434 H446 0.960 . S
C434 H447 0.962 . S
C434 H448 0.960 . S
C435 C432 1.511 . S
C435 H449 0.961 . S
C435 H450 0.961 . S
C435 H451 0.961 . S
C436 C437 1.370 . S
C436 C438 1.363 . S
C436 H452 0.931 . S
C437 C436 1.370 . S
C437 C441 1.408 . S
C438 C436 1.363 . S
C438 C439 1.370 . S
C438 C442 1.524 . S
C439 C431 1.503 1_455 S
C439 C438 1.370 . S
C439 C440 1.403 . S
C440 C439 1.403 . S
C440 C441 1.404 . S
C440 C443 1.539 1_455 S
C441 C437 1.408 . S
C441 C440 1.404 . S
C441 H453 0.930 . S
C442 C438 1.524 . S
C442 H454 0.956 . S
C442 H455 0.961 1_455 S
C442 H456 0.961 . S
C443 C440 1.539 1_655 S
C443 H457 0.958 1_655 S
C443 H458 0.961 . S
C443 H459 0.960 . S
H444 C428 0.931 1_455 S
H445 C433 0.929 . S
H446 C434 0.960 . S
H447 C434 0.962 . S
H448 C434 0.960 . S
H449 C435 0.961 . S
H450 C435 0.961 . S
H451 C435 0.961 . S
H452 C436 0.931 . S
H453 C441 0.930 . S
H454 C442 0.956 . S
H455 C442 0.961 1_655 S
H456 C442 0.961 . S
H457 C443 0.958 1_455 S
H458 C443 0.961 . S
H459 C443 0.960 . S
C460 C461 1.391 . S
C460 C462 1.394 . S
C460 H476 0.931 . S
C461 C460 1.391 . S
C461 C465 1.376 . S
C462 C460 1.394 . S
C462 C463 1.369 . S
C462 C466 1.531 . S
C463 C462 1.369 . S
C463 C464 1.404 . S
C463 C471 1.503 1_545 S
C464 C463 1.404 . S
C464 C465 1.413 . S
C464 C467 1.498 1_545 S
C465 C461 1.376 . S
C465 C464 1.413 . S
C465 H477 0.929 . S
C466 C462 1.531 . S
C466 H478 0.960 1_545 S
C466 H479 0.962 . S
C466 H480 0.960 . S
C467 C464 1.498 1_565 S
C467 H481 0.961 . S
C467 H482 0.961 . S
C467 H483 0.961 . S
C468 C469 1.370 . S
C468 C470 1.363 1_565 S
C468 H484 0.931 1_565 S
C469 C468 1.370 . S
C469 C473 1.408 . S
C470 C468 1.363 1_545 S
C470 C471 1.370 1_545 S
C470 C474 1.524 . S
C471 C463 1.503 1_565 S
C471 C470 1.370 1_565 S
C471 C472 1.403 . S
C472 C471 1.403 . S
C472 C473 1.404 . S
C472 C475 1.539 . S
C473 C469 1.408 . S
C473 C472 1.404 . S
C473 H485 0.930 . S
C474 C470 1.524 . S
C474 H486 0.956 . S
C474 H487 0.961 . S
C474 H488 0.961 . S
C475 C472 1.539 . S
C475 H489 0.958 . S
C475 H490 0.961 . S
C475 H491 0.960 . S
H476 C460 0.931 . S
H477 C465 0.929 . S
H478 C466 0.960 1_565 S
H479 C466 0.962 . S
H480 C466 0.960 . S
H481 C467 0.961 . S
H482 C467 0.961 . S
H483 C467 0.961 . S
H484 C468 0.931 1_545 S
H485 C473 0.930 . S
H486 C474 0.956 . S
H487 C474 0.961 . S
H488 C474 0.961 . S
H489 C475 0.958 . S
H490 C475 0.961 . S
H491 C475 0.960 . S
C492 C493 1.391 . S
C492 C494 1.394 . S
C492 H508 0.931 . S
C493 C492 1.391 . S
C493 C497 1.376 . S
C494 C492 1.394 . S
C494 C495 1.369 . S
C494 C498 1.531 . S
C495 C494 1.369 . S
C495 C496 1.410 . S
C495 C503 1.503 . S
C496 C495 1.410 . S
C496 C497 1.392 . S
C496 C499 1.511 . S
C497 C493 1.376 . S
C497 C496 1.392 . S
C497 H509 0.929 . S
C498 C494 1.531 . S
C498 H510 0.960 . S
C498 H511 0.962 . S
C498 H512 0.960 . S
C499 C496 1.511 . S
C499 H513 0.961 . S
C499 H514 0.961 . S
C499 H515 0.961 . S
C500 C501 1.370 . S
C500 C502 1.363 . S
C500 H516 0.931 . S
C501 C500 1.370 . S
C501 C505 1.408 . S
C502 C500 1.363 . S
C502 C503 1.370 . S
C502 C506 1.524 . S
C503 C495 1.503 . S
C503 C502 1.370 . S
C503 C504 1.403 . S
C504 C503 1.403 . S
C504 C505 1.404 . S
C504 C507 1.539 . S
C505 C501 1.408 . S
C505 C504 1.404 . S
C505 H517 0.930 . S
C506 C502 1.524 . S
C506 H518 0.956 . S
C506 H519 0.961 . S
C506 H520 0.961 . S
C507 C504 1.539 . S
C507 H521 0.958 . S
C507 H522 0.961 . S
C507 H523 0.960 . S
H508 C492 0.931 . S
H509 C497 0.929 . S
H510 C498 0.960 . S
H511 C498 0.962 . S
H512 C498 0.960 . S
H513 C499 0.961 . S
H514 C499 0.961 . S
H515 C499 0.961 . S
H516 C500 0.931 . S
H517 C505 0.930 . S
H518 C506 0.956 . S
H519 C506 0.961 . S
H520 C506 0.961 . S
H521 C507 0.958 . S
H522 C507 0.961 . S
H523 C507 0.960 . S
C524 C525 1.391 . S
C524 C526 1.394 . S
C524 H540 0.931 . S
C525 C524 1.391 . S
C525 C529 1.376 . S
C526 C524 1.394 . S
C526 C527 1.369 . S
C526 C530 1.531 . S
C527 C526 1.369 . S
C527 C528 1.410 1_455 S
C527 C535 1.503 1_455 S
C528 C527 1.410 1_655 S
C528 C529 1.392 1_655 S
C528 C531 1.511 . S
C529 C525 1.376 . S
C529 C528 1.392 1_455 S
C529 H541 0.929 1_455 S
C530 C526 1.531 . S
C530 H542 0.960 . S
C530 H543 0.962 . S
C530 H544 0.960 . S
C531 C528 1.511 . S
C531 H545 0.961 . S
C531 H546 0.961 . S
C531 H547 0.961 . S
C532 C533 1.370 . S
C532 C534 1.363 . S
C532 H548 0.931 . S
C533 C532 1.370 . S
C533 C537 1.408 . S
C534 C532 1.363 . S
C534 C535 1.370 . S
C534 C538 1.524 1_655 S
C535 C527 1.503 1_655 S
C535 C534 1.370 . S
C535 C536 1.403 . S
C536 C535 1.403 . S
C536 C537 1.404 . S
C536 C539 1.539 . S
C537 C533 1.408 . S
C537 C536 1.404 . S
C537 H549 0.930 . S
C538 C534 1.524 1_455 S
C538 H550 0.956 . S
C538 H551 0.961 . S
C538 H552 0.961 . S
C539 C536 1.539 . S
C539 H553 0.958 . S
C539 H554 0.961 . S
C539 H555 0.960 . S
H540 C524 0.931 . S
H541 C529 0.929 1_655 S
H542 C530 0.960 . S
H543 C530 0.962 . S
H544 C530 0.960 . S
H545 C531 0.961 . S
H546 C531 0.961 . S
H547 C531 0.961 . S
H548 C532 0.931 . S
H549 C537 0.930 . S
H550 C538 0.956 . S
H551 C538 0.961 . S
H552 C538 0.961 . S
H553 C539 0.958 . S
H554 C539 0.961 . S
H555 C539 0.960 . S
C556 C557 1.391 . S
C556 C558 1.394 . S
C556 H572 0.931 . S
C557 C556 1.391 . S
C557 C561 1.376 . S
C558 C556 1.394 . S
C558 C559 1.369 . S
C558 C562 1.531 . S
C559 C558 1.369 . S
C559 C560 1.410 1_565 S
C559 C567 1.503 1_565 S
C560 C559 1.410 1_545 S
C560 C561 1.392 1_545 S
C560 C563 1.511 . S
C561 C557 1.376 . S
C561 C560 1.392 1_565 S
C561 H573 0.929 1_565 S
C562 C558 1.531 . S
C562 H574 0.960 . S
C562 H575 0.962 . S
C562 H576 0.960 . S
C563 C560 1.511 . S
C563 H577 0.961 . S
C563 H578 0.961 . S
C563 H579 0.961 . S
C564 C565 1.370 . S
C564 C566 1.363 . S
C564 H580 0.931 . S
C565 C564 1.370 . S
C565 C569 1.408 . S
C566 C564 1.363 . S
C566 C567 1.370 . S
C566 C570 1.524 . S
C567 C559 1.503 1_545 S
C567 C566 1.370 . S
C567 C568 1.403 . S
C568 C567 1.403 . S
C568 C569 1.404 . S
C568 C571 1.539 . S
C569 C565 1.408 . S
C569 C568 1.404 . S
C569 H581 0.930 . S
C570 C566 1.524 . S
C570 H582 0.956 1_545 S
C570 H583 0.961 . S
C570 H584 0.961 . S
C571 C568 1.539 . S
C571 H585 0.958 1_545 S
C571 H586 0.961 . S
C571 H587 0.960 . S
H572 C556 0.931 . S
H573 C561 0.929 1_545 S
H574 C562 0.960 . S
H575 C562 0.962 . S
H576 C562 0.960 . S
H577 C563 0.961 . S
H578 C563 0.961 . S
H579 C563 0.961 . S
H580 C564 0.931 . S
H581 C569 0.930 . S
H582 C570 0.956 1_565 S
H583 C570 0.961 . S
H584 C570 0.961 . S
H585 C571 0.958 1_565 S
H586 C571 0.961 . S
H587 C571 0.960 . S
C588 C589 1.391 . S
C588 C590 1.394 . S
C588 H604 0.931 . S
C589 C588 1.391 . S
C589 C593 1.376 . S
C590 C588 1.394 . S
C590 C591 1.369 . S
C590 C594 1.531 . S
C591 C590 1.369 . S
C591 C592 1.410 . S
C591 C599 1.503 1_554 S
C592 C591 1.410 . S
C592 C593 1.392 . S
C592 C595 1.511 . S
C593 C589 1.376 . S
C593 C592 1.392 . S
C593 H605 0.929 . S
C594 C590 1.531 . S
C594 H606 0.960 1_554 S
C594 H607 0.962 . S
C594 H608 0.960 . S
C595 C592 1.511 . S
C595 H609 0.961 . S
C595 H610 0.948 1_554 S
C595 H611 0.961 . S
C596 C597 1.370 . S
C596 C598 1.363 . S
C596 H612 0.931 . S
C597 C596 1.370 . S
C597 C601 1.408 . S
C598 C596 1.363 . S
C598 C599 1.370 . S
C598 C602 1.524 . S
C599 C591 1.503 1_556 S
C599 C598 1.370 . S
C599 C600 1.403 . S
C600 C599 1.403 . S
C600 C601 1.404 . S
C600 C603 1.539 . S
C601 C597 1.408 . S
C601 C600 1.404 . S
C601 H613 0.930 . S
C602 C598 1.524 . S
C602 H614 0.956 . S
C602 H615 0.961 1_556 S
C602 H616 0.961 . S
C603 C600 1.539 . S
C603 H617 0.958 . S
C603 H618 0.961 . S
C603 H619 0.941 1_556 S
H604 C588 0.931 . S
H605 C593 0.929 . S
H606 C594 0.960 1_556 S
H607 C594 0.962 . S
H608 C594 0.960 . S
H609 C595 0.961 . S
H610 C595 0.948 1_556 S
H611 C595 0.961 . S
H612 C596 0.931 . S
H613 C601 0.930 . S
H614 C602 0.956 . S
H615 C602 0.961 1_554 S
H616 C602 0.961 . S
H617 C603 0.958 . S
H618 C603 0.961 . S
H619 C603 0.941 1_554 S
C620 C621 1.391 . S
C620 C622 1.394 . S
C620 H636 0.931 . S
C621 C620 1.391 . S
C621 C625 1.376 . S
C622 C620 1.394 . S
C622 C623 1.369 . S
C622 C626 1.531 . S
C623 C622 1.369 . S
C623 C624 1.410 . S
C623 C631 1.503 . S
C624 C623 1.410 . S
C624 C625 1.392 . S
C624 C627 1.511 . S
C625 C621 1.376 . S
C625 C624 1.392 . S
C625 H637 0.929 . S
C626 C622 1.531 . S
C626 H638 0.960 . S
C626 H639 0.962 . S
C626 H640 0.960 . S
C627 C624 1.511 . S
C627 H641 0.961 . S
C627 H642 0.961 . S
C627 H643 0.961 . S
C628 C629 1.370 . S
C628 C630 1.363 . S
C628 H644 0.931 . S
C629 C628 1.370 . S
C629 C633 1.408 . S
C630 C628 1.363 . S
C630 C631 1.370 . S
C630 C634 1.524 . S
C631 C623 1.503 . S
C631 C630 1.370 . S
C631 C632 1.403 . S
C632 C631 1.403 . S
C632 C633 1.404 . S
C632 C635 1.539 . S
C633 C629 1.408 . S
C633 C632 1.404 . S
C633 H645 0.930 . S
C634 C630 1.524 . S
C634 H646 0.956 . S
C634 H647 0.961 . S
C634 H648 0.961 . S
C635 C632 1.539 . S
C635 H649 0.958 . S
C635 H650 0.961 . S
C635 H651 0.960 . S
H636 C620 0.931 . S
H637 C625 0.929 . S
H638 C626 0.960 . S
H639 C626 0.962 . S
H640 C626 0.960 . S
H641 C627 0.961 . S
H642 C627 0.961 . S
H643 C627 0.961 . S
H644 C628 0.931 . S
H645 C633 0.930 . S
H646 C634 0.956 . S
H647 C634 0.961 . S
H648 C634 0.961 . S
H649 C635 0.958 . S
H650 C635 0.961 . S
H651 C635 0.960 . S
C652 C653 1.391 . S
C652 C654 1.394 . S
C652 H668 0.931 . S
C653 C652 1.391 . S
C653 C657 1.376 . S
C654 C652 1.394 . S
C654 C655 1.369 . S
C654 C658 1.531 . S
C655 C654 1.369 . S
C655 C656 1.410 . S
C655 C663 1.503 . S
C656 C655 1.410 . S
C656 C657 1.392 . S
C656 C659 1.511 . S
C657 C653 1.376 . S
C657 C656 1.392 . S
C657 H669 0.929 . S
C658 C654 1.531 . S
C658 H670 0.960 . S
C658 H671 0.962 . S
C658 H672 0.960 . S
C659 C656 1.511 . S
C659 H673 0.961 . S
C659 H674 0.961 . S
C659 H675 0.961 . S
C660 C661 1.370 . S
C660 C662 1.363 . S
C660 H676 0.931 . S
C661 C660 1.370 . S
C661 C665 1.408 . S
C662 C660 1.363 . S
C662 C663 1.370 . S
C662 C666 1.524 . S
C663 C655 1.503 . S
C663 C662 1.370 . S
C663 C664 1.403 . S
C664 C663 1.403 . S
C664 C665 1.404 . S
C664 C667 1.539 . S
C665 C661 1.408 . S
C665 C664 1.404 . S
C665 H677 0.930 . S
C666 C662 1.524 . S
C666 H678 0.956 . S
C666 H679 0.961 . S
C666 H680 0.961 . S
C667 C664 1.539 . S
C667 H681 0.958 . S
C667 H682 0.961 . S
C667 H683 0.960 . S
H668 C652 0.931 . S
H669 C657 0.929 . S
H670 C658 0.960 . S
H671 C658 0.962 . S
H672 C658 0.960 . S
H673 C659 0.961 . S
H674 C659 0.961 . S
H675 C659 0.961 . S
H676 C660 0.931 . S
H677 C665 0.930 . S
H678 C666 0.956 . S
H679 C666 0.961 . S
H680 C666 0.961 . S
H681 C667 0.958 . S
H682 C667 0.961 . S
H683 C667 0.960 . S
C684 C685 1.391 . S
C684 C686 1.394 . S
C684 H700 0.931 . S
C685 C684 1.391 . S
C685 C689 1.376 . S
C686 C684 1.394 . S
C686 C687 1.369 . S
C686 C690 1.531 . S
C687 C686 1.369 . S
C687 C688 1.410 . S
C687 C695 1.503 1_554 S
C688 C687 1.410 . S
C688 C689 1.392 . S
C688 C691 1.511 . S
C689 C685 1.376 . S
C689 C688 1.392 . S
C689 H701 0.929 . S
C690 C686 1.531 . S
C690 H702 0.960 1_554 S
C690 H703 0.962 . S
C690 H704 0.960 . S
C691 C688 1.511 . S
C691 H705 0.961 . S
C691 H706 0.961 1_554 S
C691 H707 0.961 . S
C692 C693 1.370 . S
C692 C694 1.363 . S
C692 H708 0.931 . S
C693 C692 1.370 . S
C693 C697 1.408 . S
C694 C692 1.363 . S
C694 C695 1.370 . S
C694 C698 1.524 . S
C695 C687 1.503 1_556 S
C695 C694 1.370 . S
C695 C696 1.403 . S
C696 C695 1.403 . S
C696 C697 1.404 . S
C696 C699 1.539 . S
C697 C693 1.408 . S
C697 C696 1.404 . S
C697 H709 0.930 . S
C698 C694 1.524 . S
C698 H710 0.956 1_556 S
C698 H711 0.961 1_556 S
C698 H712 0.961 . S
C699 C696 1.539 . S
C699 H713 0.958 . S
C699 H714 0.961 . S
C699 H715 0.960 . S
H700 C684 0.931 . S
H701 C689 0.929 . S
H702 C690 0.960 1_556 S
H703 C690 0.962 . S
H704 C690 0.960 . S
H705 C691 0.961 . S
H706 C691 0.961 1_556 S
H707 C691 0.961 . S
H708 C692 0.931 . S
H709 C697 0.930 . S
H710 C698 0.956 1_554 S
H711 C698 0.961 1_554 S
H712 C698 0.961 . S
H713 C699 0.958 . S
H714 C699 0.961 . S
H715 C699 0.960 . S
C716 C717 1.391 . S
C716 C718 1.394 . S
C716 H732 0.931 . S
C717 C716 1.391 . S
C717 C721 1.376 . S
C718 C716 1.394 . S
C718 C719 1.369 . S
C718 C722 1.531 . S
C719 C718 1.369 . S
C719 C720 1.410 . S
C719 C727 1.503 . S
C720 C719 1.410 . S
C720 C721 1.392 . S
C720 C723 1.511 . S
C721 C717 1.376 . S
C721 C720 1.392 . S
C721 H733 0.929 . S
C722 C718 1.531 . S
C722 H734 0.960 . S
C722 H735 0.962 . S
C722 H736 0.960 . S
C723 C720 1.511 . S
C723 H737 0.961 . S
C723 H738 0.961 . S
C723 H739 0.961 . S
C724 C725 1.370 . S
C724 C726 1.363 . S
C724 H740 0.931 . S
C725 C724 1.370 . S
C725 C729 1.408 . S
C726 C724 1.363 . S
C726 C727 1.370 . S
C726 C730 1.524 . S
C727 C719 1.503 . S
C727 C726 1.370 . S
C727 C728 1.403 . S
C728 C727 1.403 . S
C728 C729 1.404 . S
C728 C731 1.539 . S
C729 C725 1.408 . S
C729 C728 1.404 . S
C729 H741 0.930 . S
C730 C726 1.524 . S
C730 H742 0.956 . S
C730 H743 0.961 . S
C730 H744 0.961 . S
C731 C728 1.539 . S
C731 H745 0.958 . S
C731 H746 0.961 . S
C731 H747 0.960 . S
H732 C716 0.931 . S
H733 C721 0.929 . S
H734 C722 0.960 . S
H735 C722 0.962 . S
H736 C722 0.960 . S
H737 C723 0.961 . S
H738 C723 0.961 . S
H739 C723 0.961 . S
H740 C724 0.931 . S
H741 C729 0.930 . S
H742 C730 0.956 . S
H743 C730 0.961 . S
H744 C730 0.961 . S
H745 C731 0.958 . S
H746 C731 0.961 . S
H747 C731 0.960 . S
C748 C749 1.391 . S
C748 C750 1.394 . S
C748 H764 0.931 . S
C749 C748 1.391 . S
C749 C753 1.376 . S
C750 C748 1.394 . S
C750 C751 1.369 . S
C750 C754 1.531 . S
C751 C750 1.369 . S
C751 C752 1.410 . S
C751 C759 1.503 . S
C752 C751 1.410 . S
C752 C753 1.392 . S
C752 C755 1.511 . S
C753 C749 1.376 . S
C753 C752 1.392 . S
C753 H765 0.929 . S
C754 C750 1.531 . S
C754 H766 0.960 . S
C754 H767 0.962 . S
C754 H768 0.960 . S
C755 C752 1.511 . S
C755 H769 0.961 . S
C755 H770 0.961 . S
C755 H771 0.961 . S
C756 C757 1.370 . S
C756 C758 1.363 . S
C756 H772 0.931 . S
C757 C756 1.370 . S
C757 C761 1.408 . S
C758 C756 1.363 . S
C758 C759 1.370 . S
C758 C762 1.524 . S
C759 C751 1.503 . S
C759 C758 1.370 . S
C759 C760 1.403 . S
C760 C759 1.403 . S
C760 C761 1.404 . S
C760 C763 1.539 . S
C761 C757 1.408 . S
C761 C760 1.404 . S
C761 H773 0.930 . S
C762 C758 1.524 . S
C762 H774 0.956 . S
C762 H775 0.961 . S
C762 H776 0.961 . S
C763 C760 1.539 . S
C763 H777 0.958 . S
C763 H778 0.961 . S
C763 H779 0.960 . S
H764 C748 0.931 . S
H765 C753 0.929 . S
H766 C754 0.960 . S
H767 C754 0.962 . S
H768 C754 0.960 . S
H769 C755 0.961 . S
H770 C755 0.961 . S
H771 C755 0.961 . S
H772 C756 0.931 . S
H773 C761 0.930 . S
H774 C762 0.956 . S
H775 C762 0.961 . S
H776 C762 0.961 . S
H777 C763 0.958 . S
H778 C763 0.961 . S
H779 C763 0.960 . S
C780 C781 1.391 . S
C780 C782 1.394 . S
C780 H796 0.931 . S
C781 C780 1.391 . S
C781 C785 1.376 . S
C782 C780 1.394 . S
C782 C783 1.369 . S
C782 C786 1.531 . S
C783 C782 1.369 . S
C783 C784 1.410 . S
C783 C791 1.503 . S
C784 C783 1.410 . S
C784 C785 1.392 . S
C784 C787 1.511 . S
C785 C781 1.376 . S
C785 C784 1.392 . S
C785 H797 0.929 . S
C786 C782 1.531 . S
C786 H798 0.960 . S
C786 H799 0.962 . S
C786 H800 0.960 . S
C787 C784 1.511 . S
C787 H801 0.961 . S
C787 H802 0.961 . S
C787 H803 0.961 . S
C788 C789 1.370 . S
C788 C790 1.363 . S
C788 H804 0.931 . S
C789 C788 1.370 . S
C789 C793 1.408 . S
C790 C788 1.363 . S
C790 C791 1.370 . S
C790 C794 1.524 . S
C791 C783 1.503 . S
C791 C790 1.370 . S
C791 C792 1.403 . S
C792 C791 1.403 . S
C792 C793 1.404 . S
C792 C795 1.539 . S
C793 C789 1.408 . S
C793 C792 1.404 . S
C793 H805 0.930 . S
C794 C790 1.524 . S
C794 H806 0.956 . S
C794 H807 0.961 . S
C794 H808 0.961 . S
C795 C792 1.539 . S
C795 H809 0.958 . S
C795 H810 0.961 . S
C795 H811 0.960 . S
H796 C780 0.931 . S
H797 C785 0.929 . S
H798 C786 0.960 . S
H799 C786 0.962 . S
H800 C786 0.960 . S
H801 C787 0.961 . S
H802 C787 0.961 . S
H803 C787 0.961 . S
H804 C788 0.931 . S
H805 C793 0.930 . S
H806 C794 0.956 . S
H807 C794 0.961 . S
H808 C794 0.961 . S
H809 C795 0.958 . S
H810 C795 0.961 . S
H811 C795 0.960 . S
C812 C813 1.391 . S
C812 C814 1.394 . S
C812 H828 0.931 . S
C813 C812 1.391 . S
C813 C817 1.376 . S
C814 C812 1.394 . S
C814 C815 1.369 . S
C814 C818 1.531 . S
C815 C814 1.369 . S
C815 C816 1.410 . S
C815 C823 1.503 1_655 S
C816 C815 1.410 . S
C816 C817 1.392 . S
C816 C819 1.511 . S
C817 C813 1.376 . S
C817 C816 1.392 . S
C817 H829 0.929 . S
C818 C814 1.531 . S
C818 H830 0.960 1_655 S
C818 H831 0.962 . S
C818 H832 0.960 . S
C819 C816 1.511 . S
C819 H833 0.961 . S
C819 H834 0.961 1_655 S
C819 H835 0.961 1_655 S
C820 C821 1.370 . S
C820 C822 1.363 . S
C820 H836 0.931 . S
C821 C820 1.370 . S
C821 C825 1.408 . S
C822 C820 1.363 . S
C822 C823 1.370 . S
C822 C826 1.524 1_455 S
C823 C815 1.503 1_455 S
C823 C822 1.370 . S
C823 C824 1.403 . S
C824 C823 1.403 . S
C824 C825 1.404 . S
C824 C827 1.539 . S
C825 C821 1.408 . S
C825 C824 1.404 . S
C825 H837 0.930 . S
C826 C822 1.524 1_655 S
C826 H838 0.956 . S
C826 H839 0.961 . S
C826 H840 0.961 . S
C827 C824 1.539 . S
C827 H841 0.958 . S
C827 H842 0.961 . S
C827 H843 0.960 . S
H828 C812 0.931 . S
H829 C817 0.929 . S
H830 C818 0.960 1_455 S
H831 C818 0.962 . S
H832 C818 0.960 . S
H833 C819 0.961 . S
H834 C819 0.961 1_455 S
H835 C819 0.961 1_455 S
H836 C820 0.931 . S
H837 C825 0.930 . S
H838 C826 0.956 . S
H839 C826 0.961 . S
H840 C826 0.961 . S
H841 C827 0.958 . S
H842 C827 0.961 . S
H843 C827 0.960 . S
C844 C845 1.391 . S
C844 C846 1.394 . S
C844 H860 0.931 . S
C845 C844 1.391 . S
C845 C849 1.376 . S
C846 C844 1.394 . S
C846 C847 1.369 . S
C846 C850 1.531 1_556 S
C847 C846 1.369 . S
C847 C848 1.410 . S
C847 C855 1.503 1_566 S
C848 C847 1.410 . S
C848 C849 1.392 . S
C848 C851 1.511 1_565 S
C849 C845 1.376 . S
C849 C848 1.392 . S
C849 H861 0.929 . S
C850 C846 1.531 1_554 S
C850 H862 0.960 . S
C850 H863 0.962 . S
C850 H864 0.960 . S
C851 C848 1.511 1_545 S
C851 H865 0.961 . S
C851 H866 0.961 . S
C851 H867 0.961 . S
C852 C853 1.370 . S
C852 C854 1.363 . S
C852 H868 0.931 . S
C853 C852 1.370 . S
C853 C857 1.408 . S
C854 C852 1.363 . S
C854 C855 1.370 . S
C854 C858 1.524 1_554 S
C855 C847 1.503 1_544 S
C855 C854 1.370 . S
C855 C856 1.403 . S
C856 C855 1.403 . S
C856 C857 1.404 . S
C856 C859 1.539 1_545 S
C857 C853 1.408 . S
C857 C856 1.404 . S
C857 H869 0.930 . S
C858 C854 1.524 1_556 S
C858 H870 0.956 . S
C858 H871 0.961 . S
C858 H872 0.961 . S
C859 C856 1.539 1_565 S
C859 H873 0.958 . S
C859 H874 0.961 . S
C859 H875 0.960 . S
H860 C844 0.931 . S
H861 C849 0.929 . S
H862 C850 0.960 . S
H863 C850 0.962 . S
H864 C850 0.960 . S
H865 C851 0.961 . S
H866 C851 0.961 . S
H867 C851 0.961 . S
H868 C852 0.931 . S
H869 C857 0.930 . S
H870 C858 0.956 . S
H871 C858 0.961 . S
H872 C858 0.961 . S
H873 C859 0.958 . S
H874 C859 0.961 . S
H875 C859 0.960 . S
C876 C877 1.391 . S
C876 C878 1.394 . S
C876 H892 0.931 . S
C877 C876 1.391 . S
C877 C881 1.376 . S
C878 C876 1.394 . S
C878 C879 1.369 . S
C878 C882 1.531 . S
C879 C878 1.369 . S
C879 C880 1.410 . S
C879 C887 1.503 . S
C880 C879 1.410 . S
C880 C881 1.392 . S
C880 C883 1.511 . S
C881 C877 1.376 . S
C881 C880 1.392 . S
C881 H893 0.929 . S
C882 C878 1.531 . S
C882 H894 0.960 . S
C882 H895 0.962 . S
C882 H896 0.960 . S
C883 C880 1.511 . S
C883 H897 0.961 . S
C883 H898 0.961 . S
C883 H899 0.961 . S
C884 C885 1.370 . S
C884 C886 1.363 . S
C884 H900 0.931 . S
C885 C884 1.370 . S
C885 C889 1.408 . S
C886 C884 1.363 . S
C886 C887 1.370 . S
C886 C890 1.524 . S
C887 C879 1.503 . S
C887 C886 1.370 . S
C887 C888 1.403 . S
C888 C887 1.403 . S
C888 C889 1.404 . S
C888 C891 1.539 . S
C889 C885 1.408 . S
C889 C888 1.404 . S
C889 H901 0.930 . S
C890 C886 1.524 . S
C890 H902 0.956 . S
C890 H903 0.961 . S
C890 H904 0.961 . S
C891 C888 1.539 . S
C891 H905 0.958 . S
C891 H906 0.961 . S
C891 H907 0.960 . S
H892 C876 0.931 . S
H893 C881 0.929 . S
H894 C882 0.960 . S
H895 C882 0.962 . S
H896 C882 0.960 . S
H897 C883 0.961 . S
H898 C883 0.961 . S
H899 C883 0.961 . S
H900 C884 0.931 . S
H901 C889 0.930 . S
H902 C890 0.956 . S
H903 C890 0.961 . S
H904 C890 0.961 . S
H905 C891 0.958 . S
H906 C891 0.961 . S
H907 C891 0.960 . S
C908 C909 1.391 . S
C908 C910 1.394 . S
C908 H924 0.931 . S
C909 C908 1.391 . S
C909 C913 1.376 . S
C910 C908 1.394 . S
C910 C911 1.369 . S
C910 C914 1.531 1_655 S
C911 C910 1.369 . S
C911 C912 1.410 . S
C911 C919 1.503 1_655 S
C912 C911 1.410 . S
C912 C913 1.392 . S
C912 C915 1.511 . S
C913 C909 1.376 . S
C913 C912 1.392 . S
C913 H925 0.929 . S
C914 C910 1.531 1_455 S
C914 H926 0.960 . S
C914 H927 0.962 . S
C914 H928 0.960 . S
C915 C912 1.511 . S
C915 H929 0.961 . S
C915 H930 0.961 . S
C915 H931 0.961 . S
C916 C917 1.370 . S
C916 C918 1.363 . S
C916 H932 0.931 . S
C917 C916 1.370 . S
C917 C921 1.408 . S
C918 C916 1.363 . S
C918 C919 1.370 . S
C918 C922 1.524 . S
C919 C911 1.503 1_455 S
C919 C918 1.370 . S
C919 C920 1.403 . S
C920 C919 1.403 . S
C920 C921 1.404 . S
C920 C923 1.539 1_455 S
C921 C917 1.408 . S
C921 C920 1.404 . S
C921 H933 0.930 . S
C922 C918 1.524 . S
C922 H934 0.956 . S
C922 H935 0.961 . S
C922 H936 0.961 . S
C923 C920 1.539 1_655 S
C923 H937 0.958 . S
C923 H938 0.961 . S
C923 H939 0.960 . S
H924 C908 0.931 . S
H925 C913 0.929 . S
H926 C914 0.960 . S
H927 C914 0.962 . S
H928 C914 0.960 . S
H929 C915 0.961 . S
H930 C915 0.961 . S
H931 C915 0.961 . S
H932 C916 0.931 . S
H933 C921 0.930 . S
H934 C922 0.956 . S
H935 C922 0.961 . S
H936 C922 0.961 . S
H937 C923 0.958 . S
H938 C923 0.961 . S
H939 C923 0.960 . S
C940 C941 1.391 . S
C940 C942 1.394 . S
C940 H956 0.931 . S
C941 C940 1.391 . S
C941 C945 1.376 . S
C942 C940 1.394 . S
C942 C943 1.369 . S
C942 C946 1.531 1_565 S
C943 C942 1.369 . S
C943 C944 1.410 . S
C943 C951 1.503 1_564 S
C944 C943 1.410 . S
C944 C945 1.392 . S
C944 C947 1.511 1_554 S
C945 C941 1.376 . S
C945 C944 1.392 . S
C945 H957 0.929 . S
C946 C942 1.531 1_545 S
C946 H958 0.960 . S
C946 H959 0.962 . S
C946 H960 0.960 . S
C947 C944 1.511 1_556 S
C947 H961 0.961 . S
C947 H962 0.961 . S
C947 H963 0.961 1_556 S
C948 C949 1.370 . S
C948 C950 1.363 . S
C948 H964 0.931 . S
C949 C948 1.370 . S
C949 C953 1.408 . S
C950 C948 1.363 . S
C950 C951 1.370 . S
C950 C954 1.524 1_545 S
C951 C943 1.503 1_546 S
C951 C950 1.370 . S
C951 C952 1.403 . S
C952 C951 1.403 . S
C952 C953 1.404 . S
C952 C955 1.539 1_556 S
C953 C949 1.408 . S
C953 C952 1.404 . S
C953 H965 0.930 . S
C954 C950 1.524 1_565 S
C954 H966 0.956 . S
C954 H967 0.961 . S
C954 H968 0.961 . S
C955 C952 1.539 1_554 S
C955 H969 0.958 . S
C955 H970 0.961 . S
C955 H971 0.960 . S
H956 C940 0.931 . S
H957 C945 0.929 . S
H958 C946 0.960 . S
H959 C946 0.962 . S
H960 C946 0.960 . S
H961 C947 0.961 . S
H962 C947 0.961 . S
H963 C947 0.961 1_554 S
H964 C948 0.931 . S
H965 C953 0.930 . S
H966 C954 0.956 . S
H967 C954 0.961 . S
H968 C954 0.961 . S
H969 C955 0.958 . S
H970 C955 0.961 . S
H971 C955 0.960 . S
C972 C973 1.391 . S
C972 C974 1.394 . S
C972 H988 0.931 . S
C973 C972 1.391 . S
C973 C977 1.376 . S
C974 C972 1.394 . S
C974 C975 1.369 . S
C974 C978 1.531 . S
C975 C974 1.369 . S
C975 C976 1.410 . S
C975 C983 1.503 . S
C976 C975 1.410 . S
C976 C977 1.392 . S
C976 C979 1.511 . S
C977 C973 1.376 . S
C977 C976 1.392 . S
C977 H989 0.929 . S
C978 C974 1.531 . S
C978 H990 0.960 . S
C978 H991 0.962 . S
C978 H992 0.960 . S
C979 C976 1.511 . S
C979 H993 0.961 . S
C979 H994 0.961 . S
C979 H995 0.961 . S
C980 C981 1.370 . S
C980 C982 1.363 . S
C980 H996 0.931 . S
C981 C980 1.370 . S
C981 C985 1.408 . S
C982 C980 1.363 . S
C982 C983 1.370 . S
C982 C986 1.524 . S
C983 C975 1.503 . S
C983 C982 1.370 . S
C983 C984 1.403 . S
C984 C983 1.403 . S
C984 C985 1.404 . S
C984 C987 1.539 . S
C985 C981 1.408 . S
C985 C984 1.404 . S
C985 H997 0.930 . S
C986 C982 1.524 . S
C986 H998 0.956 . S
C986 H999 0.961 . S
C986 H1000 0.961 . S
C987 C984 1.539 . S
C987 H1001 0.958 . S
C987 H1002 0.961 . S
C987 H1003 0.960 . S
H988 C972 0.931 . S
H989 C977 0.929 . S
H990 C978 0.960 . S
H991 C978 0.962 . S
H992 C978 0.960 . S
H993 C979 0.961 . S
H994 C979 0.961 . S
H995 C979 0.961 . S
H996 C980 0.931 . S
H997 C985 0.930 . S
H998 C986 0.956 . S
H999 C986 0.961 . S
H1000 C986 0.961 . S
H1001 C987 0.958 . S
H1002 C987 0.961 . S
H1003 C987 0.960 . S
C1004 C1005 1.391 . S
C1004 C1006 1.394 . S
C1004 H1020 0.931 . S
C1005 C1004 1.391 . S
C1005 C1009 1.376 . S
C1006 C1004 1.394 . S
C1006 C1007 1.369 . S
C1006 C1010 1.531 . S
C1007 C1006 1.369 . S
C1007 C1008 1.410 . S
C1007 C1015 1.503 . S
C1008 C1007 1.410 . S
C1008 C1009 1.392 . S
C1008 C1011 1.511 . S
C1009 C1005 1.376 . S
C1009 C1008 1.392 . S
C1009 H1021 0.929 . S
C1010 C1006 1.531 . S
C1010 H1022 0.960 . S
C1010 H1023 0.962 . S
C1010 H1024 0.960 . S
C1011 C1008 1.511 . S
C1011 H1025 0.961 . S
C1011 H1026 0.961 . S
C1011 H1027 0.961 . S
C1012 C1013 1.370 . S
C1012 C1014 1.363 . S
C1012 H1028 0.931 . S
C1013 C1012 1.370 . S
C1013 C1017 1.408 . S
C1014 C1012 1.363 . S
C1014 C1015 1.370 . S
C1014 C1018 1.524 . S
C1015 C1007 1.503 . S
C1015 C1014 1.370 . S
C1015 C1016 1.403 . S
C1016 C1015 1.403 . S
C1016 C1017 1.404 . S
C1016 C1019 1.539 . S
C1017 C1013 1.408 . S
C1017 C1016 1.404 . S
C1017 H1029 0.930 . S
C1018 C1014 1.524 . S
C1018 H1030 0.956 . S
C1018 H1031 0.961 . S
C1018 H1032 0.961 . S
C1019 C1016 1.539 . S
C1019 H1033 0.958 . S
C1019 H1034 0.961 . S
C1019 H1035 0.960 . S
H1020 C1004 0.931 . S
H1021 C1009 0.929 . S
H1022 C1010 0.960 . S
H1023 C1010 0.962 . S
H1024 C1010 0.960 . S
H1025 C1011 0.961 . S
H1026 C1011 0.961 . S
H1027 C1011 0.961 . S
H1028 C1012 0.931 . S
H1029 C1017 0.930 . S
H1030 C1018 0.956 . S
H1031 C1018 0.961 . S
H1032 C1018 0.961 . S
H1033 C1019 0.958 . S
H1034 C1019 0.961 . S
H1035 C1019 0.960 . S
C1036 C1037 1.391 . S
C1036 C1038 1.394 . S
C1036 H1052 0.931 . S
C1037 C1036 1.391 . S
C1037 C1041 1.376 . S
C1038 C1036 1.394 . S
C1038 C1039 1.369 . S
C1038 C1042 1.531 1_554 S
C1039 C1038 1.369 . S
C1039 C1040 1.410 . S
C1039 C1047 1.506 . S
C1040 C1039 1.410 . S
C1040 C1041 1.392 . S
C1040 C1043 1.511 . S
C1041 C1037 1.376 . S
C1041 C1040 1.392 . S
C1041 H1053 0.929 . S
C1042 C1038 1.531 1_556 S
C1042 H1054 0.960 . S
C1042 H1055 0.962 . S
C1042 H1056 0.960 . S
C1043 C1040 1.511 . S
C1043 H1057 0.961 . S
C1043 H1058 0.961 . S
C1043 H1059 0.961 . S
C1044 C1045 1.370 . S
C1044 C1046 1.363 . S
C1044 H1060 0.931 . S
C1045 C1044 1.370 . S
C1045 C1049 1.408 1_556 S
C1046 C1044 1.363 . S
C1046 C1047 1.361 1_556 S
C1046 C1050 1.524 . S
C1047 C1039 1.506 . S
C1047 C1046 1.361 1_554 S
C1047 C1048 1.409 . S
C1048 C1047 1.409 . S
C1048 C1049 1.404 . S
C1048 C1051 1.539 . S
C1049 C1045 1.408 1_554 S
C1049 C1048 1.404 . S
C1049 H1061 0.930 . S
C1050 C1046 1.524 . S
C1050 H1062 0.956 . S
C1050 H1063 0.961 . S
C1050 H1064 0.961 . S
C1051 C1048 1.539 . S
C1051 H1065 0.958 . S
C1051 H1066 0.961 . S
C1051 H1067 0.960 . S
H1052 C1036 0.931 . S
H1053 C1041 0.929 . S
H1054 C1042 0.960 . S
H1055 C1042 0.962 . S
H1056 C1042 0.960 . S
H1057 C1043 0.961 . S
H1058 C1043 0.961 . S
H1059 C1043 0.961 . S
H1060 C1044 0.931 . S
H1061 C1049 0.930 . S
H1062 C1050 0.956 . S
H1063 C1050 0.961 . S
H1064 C1050 0.961 . S
H1065 C1051 0.958 . S
H1066 C1051 0.961 . S
H1067 C1051 0.960 . S
C1068 C1069 1.391 . S
C1068 C1070 1.394 . S
C1068 H1084 0.931 . S
C1069 C1068 1.391 . S
C1069 C1073 1.376 . S
C1070 C1068 1.394 . S
C1070 C1071 1.369 . S
C1070 C1074 1.531 . S
C1071 C1070 1.369 . S
C1071 C1072 1.410 . S
C1071 C1079 1.503 . S
C1072 C1071 1.410 . S
C1072 C1073 1.392 . S
C1072 C1075 1.511 . S
C1073 C1069 1.376 . S
C1073 C1072 1.392 . S
C1073 H1085 0.929 . S
C1074 C1070 1.531 . S
C1074 H1086 0.960 . S
C1074 H1087 0.962 . S
C1074 H1088 0.960 . S
C1075 C1072 1.511 . S
C1075 H1089 0.961 . S
C1075 H1090 0.961 . S
C1075 H1091 0.961 . S
C1076 C1077 1.370 . S
C1076 C1078 1.363 . S
C1076 H1092 0.931 . S
C1077 C1076 1.370 . S
C1077 C1081 1.408 . S
C1078 C1076 1.363 . S
C1078 C1079 1.370 . S
C1078 C1082 1.524 . S
C1079 C1071 1.503 . S
C1079 C1078 1.370 . S
C1079 C1080 1.403 . S
C1080 C1079 1.403 . S
C1080 C1081 1.404 . S
C1080 C1083 1.539 . S
C1081 C1077 1.408 . S
C1081 C1080 1.404 . S
C1081 H1093 0.930 . S
C1082 C1078 1.524 . S
C1082 H1094 0.956 . S
C1082 H1095 0.961 . S
C1082 H1096 0.961 . S
C1083 C1080 1.539 . S
C1083 H1097 0.958 . S
C1083 H1098 0.961 . S
C1083 H1099 0.960 . S
H1084 C1068 0.931 . S
H1085 C1073 0.929 . S
H1086 C1074 0.960 . S
H1087 C1074 0.962 . S
H1088 C1074 0.960 . S
H1089 C1075 0.961 . S
H1090 C1075 0.961 . S
H1091 C1075 0.961 . S
H1092 C1076 0.931 . S
H1093 C1081 0.930 . S
H1094 C1082 0.956 . S
H1095 C1082 0.961 . S
H1096 C1082 0.961 . S
H1097 C1083 0.958 . S
H1098 C1083 0.961 . S
H1099 C1083 0.960 . S
C1100 C1101 1.391 . S
C1100 C1102 1.394 . S
C1100 H1116 0.931 . S
C1101 C1100 1.391 . S
C1101 C1105 1.376 . S
C1102 C1100 1.394 . S
C1102 C1103 1.369 . S
C1102 C1106 1.531 . S
C1103 C1102 1.369 . S
C1103 C1104 1.410 . S
C1103 C1111 1.503 . S
C1104 C1103 1.410 . S
C1104 C1105 1.392 . S
C1104 C1107 1.511 . S
C1105 C1101 1.376 . S
C1105 C1104 1.392 . S
C1105 H1117 0.929 . S
C1106 C1102 1.531 . S
C1106 H1118 0.960 . S
C1106 H1119 0.962 . S
C1106 H1120 0.960 . S
C1107 C1104 1.511 . S
C1107 H1121 0.961 . S
C1107 H1122 0.961 . S
C1107 H1123 0.961 . S
C1108 C1109 1.370 . S
C1108 C1110 1.363 . S
C1108 H1124 0.931 . S
C1109 C1108 1.370 . S
C1109 C1113 1.408 . S
C1110 C1108 1.363 . S
C1110 C1111 1.370 . S
C1110 C1114 1.524 . S
C1111 C1103 1.503 . S
C1111 C1110 1.370 . S
C1111 C1112 1.403 . S
C1112 C1111 1.403 . S
C1112 C1113 1.404 . S
C1112 C1115 1.539 . S
C1113 C1109 1.408 . S
C1113 C1112 1.404 . S
C1113 H1125 0.930 . S
C1114 C1110 1.524 . S
C1114 H1126 0.956 . S
C1114 H1127 0.961 . S
C1114 H1128 0.961 . S
C1115 C1112 1.539 . S
C1115 H1129 0.958 . S
C1115 H1130 0.961 . S
C1115 H1131 0.960 . S
H1116 C1100 0.931 . S
H1117 C1105 0.929 . S
H1118 C1106 0.960 . S
H1119 C1106 0.962 . S
H1120 C1106 0.960 . S
H1121 C1107 0.961 . S
H1122 C1107 0.961 . S
H1123 C1107 0.961 . S
H1124 C1108 0.931 . S
H1125 C1113 0.930 . S
H1126 C1114 0.956 . S
H1127 C1114 0.961 . S
H1128 C1114 0.961 . S
H1129 C1115 0.958 . S
H1130 C1115 0.961 . S
H1131 C1115 0.960 . S
C1132 C1133 1.391 1_554 S
C1132 C1134 1.394 . S
C1132 H1148 0.931 . S
C1133 C1132 1.391 1_556 S
C1133 C1137 1.376 . S
C1134 C1132 1.394 . S
C1134 C1135 1.369 . S
C1134 C1138 1.531 . S
C1135 C1134 1.369 . S
C1135 C1136 1.410 1_554 S
C1135 C1143 1.503 . S
C1136 C1135 1.410 1_556 S
C1136 C1137 1.392 . S
C1136 C1139 1.511 . S
C1137 C1133 1.376 . S
C1137 C1136 1.392 . S
C1137 H1149 0.929 . S
C1138 C1134 1.531 . S
C1138 H1150 0.960 . S
C1138 H1151 0.962 . S
C1138 H1152 0.960 . S
C1139 C1136 1.511 . S
C1139 H1153 0.961 . S
C1139 H1154 0.961 . S
C1139 H1155 0.961 . S
C1140 C1141 1.370 1_556 S
C1140 C1142 1.363 . S
C1140 H1156 0.931 . S
C1141 C1140 1.370 1_554 S
C1141 C1145 1.408 . S
C1142 C1140 1.363 . S
C1142 C1143 1.370 1_556 S
C1142 C1146 1.524 . S
C1143 C1135 1.503 . S
C1143 C1142 1.370 1_554 S
C1143 C1144 1.403 . S
C1144 C1143 1.403 . S
C1144 C1145 1.404 . S
C1144 C1147 1.539 . S
C1145 C1141 1.408 . S
C1145 C1144 1.404 . S
C1145 H1157 0.930 . S
C1146 C1142 1.524 . S
C1146 H1158 0.956 . S
C1146 H1159 0.961 . S
C1146 H1160 0.961 . S
C1147 C1144 1.539 . S
C1147 H1161 0.958 . S
C1147 H1162 0.961 . S
C1147 H1163 0.960 . S
H1148 C1132 0.931 . S
H1149 C1137 0.929 . S
H1150 C1138 0.960 . S
H1151 C1138 0.962 . S
H1152 C1138 0.960 . S
H1153 C1139 0.961 . S
H1154 C1139 0.961 . S
H1155 C1139 0.961 . S
H1156 C1140 0.931 . S
H1157 C1145 0.930 . S
H1158 C1146 0.956 . S
H1159 C1146 0.961 . S
H1160 C1146 0.961 . S
H1161 C1147 0.958 . S
H1162 C1147 0.961 . S
H1163 C1147 0.960 . S
C1164 C1165 1.391 . S
C1164 C1166 1.394 . S
C1164 H1180 0.931 . S
C1165 C1164 1.391 . S
C1165 C1169 1.376 . S
C1166 C1164 1.394 . S
C1166 C1167 1.369 . S
C1166 C1170 1.531 . S
C1167 C1166 1.369 . S
C1167 C1168 1.410 . S
C1167 C1175 1.503 . S
C1168 C1167 1.410 . S
C1168 C1169 1.392 . S
C1168 C1171 1.511 . S
C1169 C1165 1.376 . S
C1169 C1168 1.392 . S
C1169 H1181 0.929 . S
C1170 C1166 1.531 . S
C1170 H1182 0.960 . S
C1170 H1183 0.962 . S
C1170 H1184 0.960 . S
C1171 C1168 1.511 . S
C1171 H1185 0.961 . S
C1171 H1186 0.961 . S
C1171 H1187 0.961 . S
C1172 C1173 1.370 . S
C1172 C1174 1.363 . S
C1172 H1188 0.931 . S
C1173 C1172 1.370 . S
C1173 C1177 1.408 . S
C1174 C1172 1.363 . S
C1174 C1175 1.370 . S
C1174 C1178 1.524 . S
C1175 C1167 1.503 . S
C1175 C1174 1.370 . S
C1175 C1176 1.403 . S
C1176 C1175 1.403 . S
C1176 C1177 1.404 . S
C1176 C1179 1.539 . S
C1177 C1173 1.408 . S
C1177 C1176 1.404 . S
C1177 H1189 0.930 . S
C1178 C1174 1.524 . S
C1178 H1190 0.956 . S
C1178 H1191 0.961 . S
C1178 H1192 0.961 . S
C1179 C1176 1.539 . S
C1179 H1193 0.958 . S
C1179 H1194 0.961 . S
C1179 H1195 0.960 . S
H1180 C1164 0.931 . S
H1181 C1169 0.929 . S
H1182 C1170 0.960 . S
H1183 C1170 0.962 . S
H1184 C1170 0.960 . S
H1185 C1171 0.961 . S
H1186 C1171 0.961 . S
H1187 C1171 0.961 . S
H1188 C1172 0.931 . S
H1189 C1177 0.930 . S
H1190 C1178 0.956 . S
H1191 C1178 0.961 . S
H1192 C1178 0.961 . S
H1193 C1179 0.958 . S
H1194 C1179 0.961 . S
H1195 C1179 0.960 . S
C1196 C1197 1.391 . S
C1196 C1198 1.394 . S
C1196 H1212 0.931 . S
C1197 C1196 1.391 . S
C1197 C1201 1.376 . S
C1198 C1196 1.394 . S
C1198 C1199 1.369 . S
C1198 C1202 1.531 . S
C1199 C1198 1.369 . S
C1199 C1200 1.410 . S
C1199 C1207 1.503 . S
C1200 C1199 1.410 . S
C1200 C1201 1.392 . S
C1200 C1203 1.511 . S
C1201 C1197 1.376 . S
C1201 C1200 1.392 . S
C1201 H1213 0.929 . S
C1202 C1198 1.531 . S
C1202 H1214 0.960 . S
C1202 H1215 0.962 . S
C1202 H1216 0.960 . S
C1203 C1200 1.511 . S
C1203 H1217 0.961 . S
C1203 H1218 0.961 . S
C1203 H1219 0.961 . S
C1204 C1205 1.370 . S
C1204 C1206 1.363 . S
C1204 H1220 0.931 . S
C1205 C1204 1.370 . S
C1205 C1209 1.408 . S
C1206 C1204 1.363 . S
C1206 C1207 1.370 . S
C1206 C1210 1.524 . S
C1207 C1199 1.503 . S
C1207 C1206 1.370 . S
C1207 C1208 1.403 . S
C1208 C1207 1.403 . S
C1208 C1209 1.404 . S
C1208 C1211 1.539 . S
C1209 C1205 1.408 . S
C1209 C1208 1.404 . S
C1209 H1221 0.930 . S
C1210 C1206 1.524 . S
C1210 H1222 0.956 . S
C1210 H1223 0.961 . S
C1210 H1224 0.961 . S
C1211 C1208 1.539 . S
C1211 H1225 0.958 . S
C1211 H1226 0.961 . S
C1211 H1227 0.960 . S
H1212 C1196 0.931 . S
H1213 C1201 0.929 . S
H1214 C1202 0.960 . S
H1215 C1202 0.962 . S
H1216 C1202 0.960 . S
H1217 C1203 0.961 . S
H1218 C1203 0.961 . S
H1219 C1203 0.961 . S
H1220 C1204 0.931 . S
H1221 C1209 0.930 . S
H1222 C1210 0.956 . S
H1223 C1210 0.961 . S
H1224 C1210 0.961 . S
H1225 C1211 0.958 . S
H1226 C1211 0.961 . S
H1227 C1211 0.960 . S
C1228 C1229 1.391 . S
C1228 C1230 1.394 . S
C1228 H1244 0.931 . S
C1229 C1228 1.391 . S
C1229 C1233 1.376 . S
C1230 C1228 1.394 . S
C1230 C1231 1.369 . S
C1230 C1234 1.531 . S
C1231 C1230 1.369 . S
C1231 C1232 1.410 . S
C1231 C1239 1.503 . S
C1232 C1231 1.410 . S
C1232 C1233 1.392 . S
C1232 C1235 1.511 . S
C1233 C1229 1.376 . S
C1233 C1232 1.392 . S
C1233 H1245 0.929 . S
C1234 C1230 1.531 . S
C1234 H1246 0.960 . S
C1234 H1247 0.962 . S
C1234 H1248 0.960 . S
C1235 C1232 1.511 . S
C1235 H1249 0.961 . S
C1235 H1250 0.961 . S
C1235 H1251 0.961 . S
C1236 C1237 1.370 . S
C1236 C1238 1.363 . S
C1236 H1252 0.931 . S
C1237 C1236 1.370 . S
C1237 C1241 1.408 . S
C1238 C1236 1.363 . S
C1238 C1239 1.370 . S
C1238 C1242 1.524 . S
C1239 C1231 1.503 . S
C1239 C1238 1.370 . S
C1239 C1240 1.403 . S
C1240 C1239 1.403 . S
C1240 C1241 1.404 . S
C1240 C1243 1.539 . S
C1241 C1237 1.408 . S
C1241 C1240 1.404 . S
C1241 H1253 0.930 . S
C1242 C1238 1.524 . S
C1242 H1254 0.956 . S
C1242 H1255 0.961 . S
C1242 H1256 0.961 . S
C1243 C1240 1.539 . S
C1243 H1257 0.958 . S
C1243 H1258 0.961 . S
C1243 H1259 0.960 . S
H1244 C1228 0.931 . S
H1245 C1233 0.929 . S
H1246 C1234 0.960 . S
H1247 C1234 0.962 . S
H1248 C1234 0.960 . S
H1249 C1235 0.961 . S
H1250 C1235 0.961 . S
H1251 C1235 0.961 . S
H1252 C1236 0.931 . S
H1253 C1241 0.930 . S
H1254 C1242 0.956 . S
H1255 C1242 0.961 . S
H1256 C1242 0.961 . S
H1257 C1243 0.958 . S
H1258 C1243 0.961 . S
H1259 C1243 0.960 . S
C1260 C1261 1.391 . S
C1260 C1262 1.394 . S
C1260 H1276 0.931 . S
C1261 C1260 1.391 . S
C1261 C1265 1.376 . S
C1262 C1260 1.394 . S
C1262 C1263 1.369 . S
C1262 C1266 1.531 . S
C1263 C1262 1.369 . S
C1263 C1264 1.410 . S
C1263 C1271 1.503 . S
C1264 C1263 1.410 . S
C1264 C1265 1.392 . S
C1264 C1267 1.511 . S
C1265 C1261 1.376 . S
C1265 C1264 1.392 . S
C1265 H1277 0.929 . S
C1266 C1262 1.531 . S
C1266 H1278 0.960 . S
C1266 H1279 0.962 . S
C1266 H1280 0.960 . S
C1267 C1264 1.511 . S
C1267 H1281 0.961 . S
C1267 H1282 0.961 . S
C1267 H1283 0.961 . S
C1268 C1269 1.370 . S
C1268 C1270 1.363 . S
C1268 H1284 0.931 . S
C1269 C1268 1.370 . S
C1269 C1273 1.408 . S
C1270 C1268 1.363 . S
C1270 C1271 1.370 . S
C1270 C1274 1.524 . S
C1271 C1263 1.503 . S
C1271 C1270 1.370 . S
C1271 C1272 1.403 . S
C1272 C1271 1.403 . S
C1272 C1273 1.404 . S
C1272 C1275 1.539 . S
C1273 C1269 1.408 . S
C1273 C1272 1.404 . S
C1273 H1285 0.930 . S
C1274 C1270 1.524 . S
C1274 H1286 0.956 . S
C1274 H1287 0.961 . S
C1274 H1288 0.961 . S
C1275 C1272 1.539 . S
C1275 H1289 0.958 . S
C1275 H1290 0.961 . S
C1275 H1291 0.960 . S
H1276 C1260 0.931 . S
H1277 C1265 0.929 . S
H1278 C1266 0.960 . S
H1279 C1266 0.962 . S
H1280 C1266 0.960 . S
H1281 C1267 0.961 . S
H1282 C1267 0.961 . S
H1283 C1267 0.961 . S
H1284 C1268 0.931 . S
H1285 C1273 0.930 . S
H1286 C1274 0.956 . S
H1287 C1274 0.961 . S
H1288 C1274 0.961 . S
H1289 C1275 0.958 . S
H1290 C1275 0.961 . S
H1291 C1275 0.960 . S
C1292 C1293 1.391 . S
C1292 C1294 1.394 . S
C1292 H1308 0.931 . S
C1293 C1292 1.391 . S
C1293 C1297 1.376 . S
C1294 C1292 1.394 . S
C1294 C1295 1.369 . S
C1294 C1298 1.531 . S
C1295 C1294 1.369 . S
C1295 C1296 1.410 . S
C1295 C1303 1.503 . S
C1296 C1295 1.410 . S
C1296 C1297 1.392 . S
C1296 C1299 1.511 . S
C1297 C1293 1.376 . S
C1297 C1296 1.392 . S
C1297 H1309 0.929 . S
C1298 C1294 1.531 . S
C1298 H1310 0.960 . S
C1298 H1311 0.962 . S
C1298 H1312 0.960 . S
C1299 C1296 1.511 . S
C1299 H1313 0.961 . S
C1299 H1314 0.961 . S
C1299 H1315 0.961 . S
C1300 C1301 1.370 . S
C1300 C1302 1.363 . S
C1300 H1316 0.931 . S
C1301 C1300 1.370 . S
C1301 C1305 1.408 . S
C1302 C1300 1.363 . S
C1302 C1303 1.370 . S
C1302 C1306 1.524 . S
C1303 C1295 1.503 . S
C1303 C1302 1.370 . S
C1303 C1304 1.403 . S
C1304 C1303 1.403 . S
C1304 C1305 1.404 . S
C1304 C1307 1.539 . S
C1305 C1301 1.408 . S
C1305 C1304 1.404 . S
C1305 H1317 0.930 . S
C1306 C1302 1.524 . S
C1306 H1318 0.956 . S
C1306 H1319 0.961 . S
C1306 H1320 0.961 . S
C1307 C1304 1.539 . S
C1307 H1321 0.958 . S
C1307 H1322 0.961 . S
C1307 H1323 0.960 . S
H1308 C1292 0.931 . S
H1309 C1297 0.929 . S
H1310 C1298 0.960 . S
H1311 C1298 0.962 . S
H1312 C1298 0.960 . S
H1313 C1299 0.961 . S
H1314 C1299 0.961 . S
H1315 C1299 0.961 . S
H1316 C1300 0.931 . S
H1317 C1305 0.930 . S
H1318 C1306 0.956 . S
H1319 C1306 0.961 . S
H1320 C1306 0.961 . S
H1321 C1307 0.958 . S
H1322 C1307 0.961 . S
H1323 C1307 0.960 . S
C1324 C1325 1.391 . S
C1324 C1326 1.394 . S
C1324 H1340 0.931 . S
C1325 C1324 1.391 . S
C1325 C1329 1.376 . S
C1326 C1324 1.394 . S
C1326 C1327 1.369 . S
C1326 C1330 1.531 . S
C1327 C1326 1.369 . S
C1327 C1328 1.410 . S
C1327 C1335 1.503 . S
C1328 C1327 1.410 . S
C1328 C1329 1.392 . S
C1328 C1331 1.511 . S
C1329 C1325 1.376 . S
C1329 C1328 1.392 . S
C1329 H1341 0.929 . S
C1330 C1326 1.531 . S
C1330 H1342 0.960 . S
C1330 H1343 0.962 . S
C1330 H1344 0.960 . S
C1331 C1328 1.511 . S
C1331 H1345 0.961 . S
C1331 H1346 0.961 . S
C1331 H1347 0.961 . S
C1332 C1333 1.370 . S
C1332 C1334 1.363 . S
C1332 H1348 0.931 . S
C1333 C1332 1.370 . S
C1333 C1337 1.408 . S
C1334 C1332 1.363 . S
C1334 C1335 1.370 . S
C1334 C1338 1.524 . S
C1335 C1327 1.503 . S
C1335 C1334 1.370 . S
C1335 C1336 1.403 . S
C1336 C1335 1.403 . S
C1336 C1337 1.404 . S
C1336 C1339 1.539 . S
C1337 C1333 1.408 . S
C1337 C1336 1.404 . S
C1337 H1349 0.930 . S
C1338 C1334 1.524 . S
C1338 H1350 0.956 . S
C1338 H1351 0.961 . S
C1338 H1352 0.961 . S
C1339 C1336 1.539 . S
C1339 H1353 0.958 . S
C1339 H1354 0.961 . S
C1339 H1355 0.960 . S
H1340 C1324 0.931 . S
H1341 C1329 0.929 . S
H1342 C1330 0.960 . S
H1343 C1330 0.962 . S
H1344 C1330 0.960 . S
H1345 C1331 0.961 . S
H1346 C1331 0.961 . S
H1347 C1331 0.961 . S
H1348 C1332 0.931 . S
H1349 C1337 0.930 . S
H1350 C1338 0.956 . S
H1351 C1338 0.961 . S
H1352 C1338 0.961 . S
H1353 C1339 0.958 . S
H1354 C1339 0.961 . S
H1355 C1339 0.960 . S
C397 C120 0.461 . S
C405 C21 0.370 . S
C429 C54 0.422 . S
C437 C153 0.392 . S
C461 C186 0.419 . S
C469 C87 0.309 . S
C493 C219 0.298 . S
C501 C318 0.388 . S
C525 C351 0.344 . S
C533 C252 0.300 . S
C557 C285 0.286 . S
C565 C384 0.310 . S
C589 N13 2.008 . S
C597 N343 2.019 . S
C621 N376 2.021 . S
C629 N46 2.014 . S
C653 N79 2.008 . S
C661 N211 2.019 . S
C685 N112 2.033 . S
C693 N244 2.010 . S
C717 N145 2.010 . S
C725 N277 2.021 . S
C749 N178 2.033 . S
C757 N310 2.010 . S
C781 C304 1.681 . S
C789 C7 1.711 . S
C813 C40 1.720 . S
C821 C337 1.730 . S
C845 C73 1.758 . S
C853 C370 1.741 . S
C877 C205 1.766 . S
C885 C106 1.747 . S
C909 C238 1.704 . S
C917 C139 1.718 . S
C941 C271 1.695 . S
C949 C172 1.719 . S
C973 N2 0.981 . S
C981 N200 1.045 . S
C1005 N35 1.021 . S
C1013 N233 1.026 . S
C1037 N266 0.992 . S
C1045 N68 1.075 . S
C1069 N101 1.112 . S
C1077 N299 1.017 . S
C1101 N332 0.971 . S
C1109 N134 1.053 . S
C1133 N167 1.114 . S
C1141 N365 1.033 . S
C1165 C282 1.335 . S
C1173 C18 1.323 . S
C1197 C315 1.327 . S
C1205 C51 1.321 . S
C1229 C348 1.288 . S
C1237 C84 1.305 . S
C1261 C117 1.317 . S
C1269 C381 1.317 . S
C1293 C216 1.302 . S
C1301 C150 1.311 . S
C1325 C249 1.284 . S
C1333 C183 1.303 . S
