# Generated by pormake.
# Topology wkj, (6)-cn, num edge types: 1
# Building blocks:
#     Node 0, Type 0, BuildingBlock: BETDAH_clean_sbu_0, # of connection points: 6
#     Node 1, Type 0, BuildingBlock: BETDAH_clean_sbu_0, # of connection points: 6
#     Node 2, Type 0, BuildingBlock: BETDAH_clean_sbu_0, # of connection points: 6
#     Node 3, Type 0, BuildingBlock: BETDAH_clean_sbu_0, # of connection points: 6
#     Node 4, Type 0, BuildingBlock: BETDAH_clean_sbu_0, # of connection points: 6
#     Node 5, Type 0, BuildingBlock: BETDAH_clean_sbu_0, # of connection points: 6
#     Node 6, Type 0, BuildingBlock: BETDAH_clean_sbu_0, # of connection points: 6
#     Node 7, Type 0, BuildingBlock: BETDAH_clean_sbu_0, # of connection points: 6
#     Node 8, Type 0, BuildingBlock: BETDAH_clean_sbu_0, # of connection points: 6
#     Node 9, Type 0, BuildingBlock: BETDAH_clean_sbu_0, # of connection points: 6
#     Node 10, Type 0, BuildingBlock: BETDAH_clean_sbu_0, # of connection points: 6
#     Node 11, Type 0, BuildingBlock: BETDAH_clean_sbu_0, # of connection points: 6
#     Edge 12, Type (0, 0), BuildingBlock: KIFKEQ_clean_linker_1, # of connection points: 2
#     Edge 13, Type (0, 0), BuildingBlock: KIFKEQ_clean_linker_1, # of connection points: 2
#     Edge 14, Type (0, 0), BuildingBlock: KIFKEQ_clean_linker_1, # of connection points: 2
#     Edge 15, Type (0, 0), BuildingBlock: KIFKEQ_clean_linker_1, # of connection points: 2
#     Edge 16, Type (0, 0), BuildingBlock: KIFKEQ_clean_linker_1, # of connection points: 2
#     Edge 17, Type (0, 0), BuildingBlock: KIFKEQ_clean_linker_1, # of connection points: 2
#     Edge 18, Type (0, 0), BuildingBlock: KIFKEQ_clean_linker_1, # of connection points: 2
#     Edge 19, Type (0, 0), BuildingBlock: KIFKEQ_clean_linker_1, # of connection points: 2
#     Edge 20, Type (0, 0), BuildingBlock: KIFKEQ_clean_linker_1, # of connection points: 2
#     Edge 21, Type (0, 0), BuildingBlock: KIFKEQ_clean_linker_1, # of connection points: 2
#     Edge 22, Type (0, 0), BuildingBlock: KIFKEQ_clean_linker_1, # of connection points: 2
#     Edge 23, Type (0, 0), BuildingBlock: KIFKEQ_clean_linker_1, # of connection points: 2
#     Edge 24, Type (0, 0), BuildingBlock: KIFKEQ_clean_linker_1, # of connection points: 2
#     Edge 25, Type (0, 0), BuildingBlock: KIFKEQ_clean_linker_1, # of connection points: 2
#     Edge 26, Type (0, 0), BuildingBlock: KIFKEQ_clean_linker_1, # of connection points: 2
#     Edge 27, Type (0, 0), BuildingBlock: KIFKEQ_clean_linker_1, # of connection points: 2
#     Edge 28, Type (0, 0), BuildingBlock: KIFKEQ_clean_linker_1, # of connection points: 2
#     Edge 29, Type (0, 0), BuildingBlock: KIFKEQ_clean_linker_1, # of connection points: 2
#     Edge 30, Type (0, 0), BuildingBlock: KIFKEQ_clean_linker_1, # of connection points: 2
#     Edge 31, Type (0, 0), BuildingBlock: KIFKEQ_clean_linker_1, # of connection points: 2
#     Edge 32, Type (0, 0), BuildingBlock: KIFKEQ_clean_linker_1, # of connection points: 2
#     Edge 33, Type (0, 0), BuildingBlock: KIFKEQ_clean_linker_1, # of connection points: 2
#     Edge 34, Type (0, 0), BuildingBlock: KIFKEQ_clean_linker_1, # of connection points: 2
#     Edge 35, Type (0, 0), BuildingBlock: KIFKEQ_clean_linker_1, # of connection points: 2
#     Edge 36, Type (0, 0), BuildingBlock: KIFKEQ_clean_linker_1, # of connection points: 2
#     Edge 37, Type (0, 0), BuildingBlock: KIFKEQ_clean_linker_1, # of connection points: 2
#     Edge 38, Type (0, 0), BuildingBlock: KIFKEQ_clean_linker_1, # of connection points: 2
#     Edge 39, Type (0, 0), BuildingBlock: KIFKEQ_clean_linker_1, # of connection points: 2
#     Edge 40, Type (0, 0), BuildingBlock: KIFKEQ_clean_linker_1, # of connection points: 2
#     Edge 41, Type (0, 0), BuildingBlock: KIFKEQ_clean_linker_1, # of connection points: 2
#     Edge 42, Type (0, 0), BuildingBlock: KIFKEQ_clean_linker_1, # of connection points: 2
#     Edge 43, Type (0, 0), BuildingBlock: KIFKEQ_clean_linker_1, # of connection points: 2
#     Edge 44, Type (0, 0), BuildingBlock: KIFKEQ_clean_linker_1, # of connection points: 2
#     Edge 45, Type (0, 0), BuildingBlock: KIFKEQ_clean_linker_1, # of connection points: 2
#     Edge 46, Type (0, 0), BuildingBlock: KIFKEQ_clean_linker_1, # of connection points: 2
#     Edge 47, Type (0, 0), BuildingBlock: KIFKEQ_clean_linker_1, # of connection points: 2
# Relax obj value: 0.739
# Max RMSD: 0.172
# Mean RMSD: 0.172
data_MOF--net-wkj--node1-BETDAH_clean_sbu_0--edge1-KIFKEQ_clean_linker_1
_symmetry_space_group_name_H-M    P1
_symmetry_Int_Tables_number       1
_symmetry_cell_setting            triclinic
loop_
_symmetry_equiv_pos_as_xyz
'x, y, z'
_cell_length_a     49.012987
_cell_length_b     48.77158
_cell_length_c     30.680379
_cell_angle_alpha  90.501407
_cell_angle_beta   89.5724
_cell_angle_gamma 119.99051
loop_
_atom_site_label
_atom_site_type_symbol
_atom_site_fract_x
_atom_site_fract_y
_atom_site_fract_z
_atom_type_partial_charge
Ho0 Ho 0.46797 0.10068 0.37334 0.0
Ho1 Ho 0.5266 0.10784 0.35654 0.0
C2 C 0.51938 0.11695 0.45921 0.0
C3 C 0.41345 0.09217 0.39775 0.0
C4 C 0.39366 0.08537 0.43643 0.0
C5 C 0.40437 0.08261 0.4774 0.0
C6 C 0.38413 0.07365 0.51326 0.0
C7 C 0.35291 0.06723 0.5085 0.0
C8 C 0.34272 0.07112 0.46758 0.0
C9 C 0.36303 0.0802 0.43177 0.0
C10 C 0.50381 0.1551 0.32697 0.0
C11 C 0.47367 0.06874 0.27908 0.0
C12 C 0.58312 0.13237 0.32548 0.0
C13 C 0.59878 0.1604 0.29773 0.0
C14 C 0.63172 0.17886 0.29575 0.0
C15 C 0.64598 0.20795 0.27394 0.0
C16 C 0.62734 0.21913 0.25497 0.0
C17 C 0.59437 0.20043 0.25732 0.0
C18 C 0.5803 0.17138 0.27826 0.0
C19 C 0.48883 0.05332 0.40052 0.0
O20 O 0.49046 0.11042 0.44538 0.0
O21 O 0.5394 0.11905 0.42853 0.0
O22 O 0.43903 0.11974 0.39668 0.0
O23 O 0.41815 0.06947 0.38421 0.0
O24 O 0.47601 0.13278 0.31644 0.0
O25 O 0.51282 0.1456 0.35955 0.0
O26 O 0.50416 0.08403 0.28976 0.0
O27 O 0.45391 0.07036 0.30822 0.0
O28 O 0.55912 0.10738 0.3084 0.0
O29 O 0.5767 0.13869 0.3642 0.0
O30 O 0.51919 0.06957 0.40391 0.0
O31 O 0.48057 0.06444 0.37001 0.0
H32 H 0.42799 0.08645 0.48134 0.0
H33 H 0.39247 0.07026 0.54424 0.0
H34 H 0.31885 0.0664 0.46308 0.0
H35 H 0.35456 0.08237 0.40018 0.0
H36 H 0.64631 0.17099 0.31147 0.0
H37 H 0.67143 0.22173 0.27199 0.0
H38 H 0.57932 0.20785 0.24189 0.0
H39 H 0.55485 0.15759 0.27981 0.0
Ho40 Ho 0.375 0.47603 0.70522 0.0
Ho41 Ho 0.42864 0.53475 0.68875 0.0
C42 C 0.41247 0.52763 0.7911 0.0
C43 C 0.3281 0.42199 0.72932 0.0
C44 C 0.31477 0.40229 0.76785 0.0
C45 C 0.32865 0.41274 0.80883 0.0
C46 C 0.31714 0.39239 0.84442 0.0
C47 C 0.29167 0.36133 0.83938 0.0
C48 C 0.27717 0.35147 0.79849 0.0
C49 C 0.28866 0.37188 0.76296 0.0
C50 C 0.35957 0.51382 0.65862 0.0
C51 C 0.41087 0.48137 0.61031 0.0
C52 C 0.46158 0.59061 0.65641 0.0
C53 C 0.45402 0.60364 0.61818 0.0
C54 C 0.4506 0.63047 0.62323 0.0
C55 C 0.43469 0.63777 0.59176 0.0
C56 C 0.42181 0.61813 0.5551 0.0
C57 C 0.42741 0.5928 0.54857 0.0
C58 C 0.44333 0.58561 0.57973 0.0
C59 C 0.44244 0.49469 0.73203 0.0
O60 O 0.38877 0.49923 0.77698 0.0
O61 O 0.43134 0.54732 0.76094 0.0
O62 O 0.32702 0.44813 0.72835 0.0
O63 O 0.3551 0.42588 0.71582 0.0
O64 O 0.35207 0.48521 0.64841 0.0
O65 O 0.37772 0.52207 0.69158 0.0
O66 O 0.4275 0.5118 0.62168 0.0
O67 O 0.38927 0.46168 0.63898 0.0
O68 O 0.46832 0.56808 0.64945 0.0
O69 O 0.44172 0.58402 0.68856 0.0
O70 O 0.45759 0.52525 0.73642 0.0
O71 O 0.42317 0.48729 0.70137 0.0
H72 H 0.34891 0.43618 0.81295 0.0
H73 H 0.32917 0.40047 0.87535 0.0
H74 H 0.25749 0.32775 0.79378 0.0
H75 H 0.27772 0.36362 0.73137 0.0
H76 H 0.45836 0.6445 0.65287 0.0
H77 H 0.43092 0.65761 0.59724 0.0
H78 H 0.41846 0.5778 0.51991 0.0
H79 H 0.44551 0.56478 0.57476 0.0
Ho80 Ho 0.90483 0.37397 1.03224 0.0
Ho81 Ho 0.89888 0.42711 1.02176 0.0
C82 C 0.88725 0.40574 1.12196 0.0
C83 C 0.91303 0.32715 1.05351 0.0
C84 C 0.91654 0.3131 1.09341 0.0
C85 C 0.9163 0.32615 0.1341 0.0
C86 C 0.92197 0.31409 0.17176 0.0
C87 C 0.92802 0.28877 0.16933 0.0
C88 C 0.9271 0.27502 0.12851 0.0
C89 C 0.92135 0.28713 1.09077 0.0
C90 C 0.85103 0.35812 0.98685 0.0
C91 C 0.93708 0.41513 0.94102 0.0
C92 C 0.87722 0.46322 0.99737 0.0
C93 C 0.85136 0.45653 0.96755 0.0
C94 C 0.82958 0.46616 0.97872 0.0
C95 C 0.80098 0.45378 0.95641 0.0
C96 C 0.79376 0.43142 0.92286 0.0
C97 C 0.81639 0.42306 0.91055 0.0
C98 C 0.84476 0.43527 0.93286 0.0
C99 C 0.95223 0.44053 1.06615 0.0
O100 O 0.89315 0.38335 1.10542 0.0
O101 O 0.8868 0.42581 1.0938 0.0
O102 O 0.88552 0.32445 1.04759 0.0
O103 O 0.93599 0.35551 1.04467 0.0
O104 O 0.87295 0.35239 0.97446 0.0
O105 O 0.86079 0.37569 1.02077 0.0
O106 O 0.92222 0.43037 0.95418 0.0
O107 O 0.93496 0.39227 0.96743 0.0
O108 O 0.90262 0.46491 0.98061 0.0
O109 O 0.8678 0.44585 1.0322 0.0
O110 O 0.93612 0.45466 1.07185 0.0
O111 O 0.94144 0.42268 1.03357 0.0
H112 H 0.91271 0.34626 0.13664 0.0
H113 H 0.92321 0.32572 0.20253 0.0
H114 H 0.9316 0.25548 1.12569 0.0
H115 H 0.92146 0.27676 1.05943 0.0
H116 H 0.83404 0.48205 1.00607 0.0
H117 H 0.78409 0.46078 0.96646 0.0
H118 H 0.81201 0.40663 0.88395 0.0
H119 H 0.86092 0.42701 0.92417 0.0
Ho120 Ho 0.5237 0.90299 0.37129 0.0
Ho121 Ho 0.4658 0.89566 0.35709 0.0
C122 C 0.47234 0.88408 0.45825 0.0
C123 C 0.57841 0.91136 0.39329 0.0
C124 C 0.59939 0.91885 0.43046 0.0
C125 C 0.58973 0.92151 0.47254 0.0
C126 C 0.61098 0.93071 0.50701 0.0
C127 C 0.64215 0.93747 0.49972 0.0
C128 C 0.65135 0.93385 0.45762 0.0
C129 C 0.63003 0.92453 0.42323 0.0
C130 C 0.48746 0.84785 0.3261 0.0
C131 C 0.51836 0.93693 0.27971 0.0
C132 C 0.4104 0.8717 0.32291 0.0
C133 C 0.38899 0.83844 0.31135 0.0
C134 C 0.39533 0.81513 0.32668 0.0
C135 C 0.38243 0.78575 0.30575 0.0
C136 C 0.36303 0.77932 0.26917 0.0
C137 C 0.35392 0.80141 0.2572 0.0
C138 C 0.36702 0.8309 0.27799 0.0
C139 C 0.50236 0.94973 0.40252 0.0
O140 O 0.50215 0.89398 0.44412 0.0
O141 O 0.45153 0.87907 0.4275 0.0
O142 O 0.55257 0.88401 0.39392 0.0
O143 O 0.57378 0.93399 0.37993 0.0
O144 O 0.51462 0.87051 0.31393 0.0
O145 O 0.47895 0.85748 0.35947 0.0
O146 O 0.48895 0.92565 0.29433 0.0
O147 O 0.53727 0.93123 0.30485 0.0
O148 O 0.43637 0.88475 0.30017 0.0
O149 O 0.41567 0.8782 0.36432 0.0
O150 O 0.47203 0.93285 0.40596 0.0
O151 O 0.51142 0.93968 0.37098 0.0
H152 H 0.56612 0.91729 0.47847 0.0
H153 H 0.60341 0.9339 0.53898 0.0
H154 H 0.67517 0.93887 0.45118 0.0
H155 H 0.63768 0.92244 0.39075 0.0
H156 H 0.41243 0.82061 0.35231 0.0
H157 H 0.38979 0.76919 0.31576 0.0
H158 H 0.33933 0.79736 0.22882 0.0
H159 H 0.36213 0.8487 0.26548 0.0
Ho160 Ho 0.62441 0.5356 0.70806 0.0
Ho161 Ho 0.5758 0.47552 0.68909 0.0
C162 C 0.59045 0.48196 0.79173 0.0
C163 C 0.66775 0.59105 0.73458 0.0
C164 C 0.68157 0.60917 0.77443 0.0
C165 C 0.66709 0.59808 0.81497 0.0
C166 C 0.68 0.61663 0.85224 0.0
C167 C 0.70757 0.64647 0.84941 0.0
C168 C 0.72244 0.65695 0.80878 0.0
C169 C 0.7095 0.63837 0.77155 0.0
C170 C 0.64616 0.50367 0.65836 0.0
C171 C 0.58877 0.52889 0.61332 0.0
C172 C 0.54672 0.4194 0.65509 0.0
C173 C 0.55939 0.40466 0.62522 0.0
C174 C 0.59099 0.41222 0.62892 0.0
C175 C 0.60442 0.40145 0.59793 0.0
C176 C 0.58667 0.38318 0.56225 0.0
C177 C 0.55459 0.37427 0.55977 0.0
C178 C 0.54107 0.385 0.59104 0.0
C179 C 0.55526 0.51041 0.7342 0.0
O180 O 0.61206 0.51159 0.77888 0.0
O181 O 0.5737 0.4618 0.76053 0.0
O182 O 0.67258 0.56749 0.72721 0.0
O183 O 0.6389 0.58394 0.72601 0.0
O184 O 0.6497 0.5311 0.64974 0.0
O185 O 0.62784 0.49258 0.69131 0.0
O186 O 0.57488 0.4982 0.62303 0.0
O187 O 0.60843 0.54921 0.64334 0.0
O188 O 0.54461 0.44308 0.63942 0.0
O189 O 0.55882 0.42543 0.69403 0.0
O190 O 0.54294 0.48001 0.73685 0.0
O191 O 0.57511 0.5201 0.70388 0.0
H192 H 0.6455 0.57549 0.81761 0.0
H193 H 0.66766 0.60813 0.88295 0.0
H194 H 0.74376 0.6797 0.80568 0.0
H195 H 0.721 0.64706 0.74034 0.0
H196 H 0.60573 0.42744 0.65496 0.0
H197 H 0.62911 0.40855 0.60091 0.0
H198 H 0.54042 0.36063 0.53229 0.0
H199 H 0.51673 0.37902 0.58754 0.0
Ho200 Ho 0.08594 0.61751 1.03723 0.0
Ho201 Ho 0.09822 0.56826 1.02201 0.0
C202 C 0.10831 0.58826 1.12329 0.0
C203 C 0.07166 0.66002 1.06132 0.0
C204 C 0.07074 0.67634 1.101 0.0
C205 C 0.07303 0.66539 0.14205 0.0
C206 C 0.06987 0.67986 0.17961 0.0
C207 C 0.06444 0.70556 0.17669 0.0
C208 C 0.06332 0.71713 0.13535 0.0
C209 C 0.06648 0.70259 1.09775 0.0
C210 C 0.14125 0.63879 0.99174 0.0
C211 C 0.05609 0.57696 0.94479 0.0
C212 C 0.12663 0.53946 0.9921 0.0
C213 C 0.1546 0.55377 0.96399 0.0
C214 C 0.17614 0.54277 0.96373 0.0
C215 C 0.20536 0.56025 0.94271 0.0
C216 C 0.21354 0.58931 0.92299 0.0
C217 C 0.1917 0.59997 0.92321 0.0
C218 C 0.16253 0.58231 0.94325 0.0
C219 C 0.0434 0.54876 1.06711 0.0
O220 O 0.09999 0.60923 1.10873 0.0
O221 O 0.11072 0.56971 1.09375 0.0
O222 O 0.0995 0.66664 1.04781 0.0
O223 O 0.05138 0.6298 1.05916 0.0
O224 O 0.11803 0.64263 0.98028 0.0
O225 O 0.13239 0.6206 1.02474 0.0
O226 O 0.07498 0.56551 0.95454 0.0
O227 O 0.05445 0.5966 0.97431 0.0
O228 O 0.1006 0.5358 0.97518 0.0
O229 O 0.13196 0.5526 1.03047 0.0
O230 O 0.06147 0.5366 1.07081 0.0
O231 O 0.05318 0.56754 1.03559 0.0
H232 H 0.07629 0.6451 0.14504 0.0
H233 H 0.07021 0.66991 0.21088 0.0
H234 H 0.05933 0.73695 0.1321 0.0
H235 H 0.06487 0.71137 1.06611 0.0
H236 H 0.17065 0.52113 0.98047 0.0
H237 H 0.22166 0.55136 0.94229 0.0
H238 H 0.19695 0.62179 0.90716 0.0
H239 H 0.14638 0.59138 0.94352 0.0
Ho240 Ho 0.90674 0.51508 0.54504 0.0
Ho241 Ho 0.87045 0.45075 0.57185 0.0
C242 C 0.88002 0.46607 0.46109 0.0
C243 C 0.94507 0.57483 0.53257 0.0
C244 C 0.94981 0.5995 0.50156 0.0
C245 C 0.94218 0.59232 0.45748 0.0
C246 C 0.9496 0.61657 0.4278 0.0
C247 C 0.96451 0.64841 0.44177 0.0
C248 C 0.97043 0.65522 0.48646 0.0
C249 C 0.96319 0.63091 0.51609 0.0
C250 C 0.845 0.49658 0.56416 0.0
C251 C 0.9211 0.49874 0.64528 0.0
C252 C 0.81791 0.39836 0.58258 0.0
C253 C 0.78865 0.38913 0.60741 0.0
C254 C 0.77013 0.40315 0.59887 0.0
C255 C 0.74495 0.39745 0.62611 0.0
C256 C 0.73779 0.3777 0.66247 0.0
C257 C 0.75452 0.36151 0.66864 0.0
C258 C 0.77973 0.36719 0.64132 0.0
C259 C 0.92648 0.46126 0.54316 0.0
O260 O 0.89724 0.49651 0.47318 0.0
O261 O 0.86716 0.44475 0.4938 0.0
O262 O 0.91992 0.56396 0.5569 0.0
O263 O 0.9502 0.55251 0.51814 0.0
O264 O 0.85994 0.51174 0.52941 0.0
O265 O 0.86335 0.49101 0.58646 0.0
O266 O 0.89394 0.4713 0.64005 0.0
O267 O 0.93212 0.51739 0.61039 0.0
O268 O 0.84333 0.40564 0.60502 0.0
O269 O 0.82351 0.41787 0.55044 0.0
O270 O 0.91087 0.44157 0.57444 0.0
O271 O 0.911 0.47369 0.53 0.0
H272 H 0.93155 0.56812 0.44573 0.0
H273 H 0.94516 0.61039 0.39359 0.0
H274 H 0.98154 0.67939 0.49834 0.0
H275 H 0.96887 0.63674 0.55022 0.0
H276 H 0.77591 0.41973 0.57241 0.0
H277 H 0.73238 0.4101 0.62041 0.0
H278 H 0.74988 0.34643 0.69667 0.0
H279 H 0.79328 0.35572 0.64813 0.0
Ho280 Ho 0.36697 0.89865 0.88489 0.0
Ho281 Ho 0.41789 0.89165 0.89885 0.0
C282 C 0.40071 0.88136 0.79719 0.0
C283 C 0.32063 0.90689 0.86227 0.0
C284 C 0.30871 0.91599 0.82495 0.0
C285 C 0.32186 0.91891 0.78342 0.0
C286 C 0.31156 0.92981 0.74892 0.0
C287 C 0.28813 0.9381 0.75564 0.0
C288 C 0.27447 0.93429 0.79713 0.0
C289 C 0.28469 0.92322 0.83155 0.0
C290 C 0.34843 0.84343 0.92925 0.0
C291 C 0.40642 0.93301 0.97667 0.0
C292 C 0.45016 0.86827 0.93235 0.0
C293 C 0.43888 0.83568 0.94661 0.0
C294 C 0.40902 0.81148 0.93338 0.0
C295 C 0.39396 0.78284 0.95585 0.0
C296 C 0.40848 0.77809 0.99206 0.0
C297 C 0.43973 0.80115 1.00219 0.0
C298 C 0.45475 0.82984 0.97974 0.0
C299 C 0.43467 0.94588 0.85488 0.0
O300 O 0.38013 0.8904 0.8118 0.0
O301 O 0.41685 0.87662 0.82765 0.0
O302 O 0.31989 0.87987 0.85936 0.0
O303 O 0.34692 0.92909 0.87884 0.0
O304 O 0.34345 0.86591 0.94149 0.0
O305 O 0.36672 0.85329 0.89621 0.0
O306 O 0.4244 0.92141 0.96216 0.0
O307 O 0.38186 0.92737 0.95142 0.0
O308 O 0.43885 0.88303 0.95507 0.0
O309 O 0.44907 0.87236 0.89066 0.0
O310 O 0.44854 0.92933 0.85091 0.0
O311 O 0.4156 0.93543 0.88612 0.0
H312 H 0.3406 0.91357 0.77799 0.0
H313 H 0.32294 0.9331 0.71746 0.0
H314 H 0.2564 0.94048 0.80311 0.0
H315 H 0.27436 0.92101 0.8636 0.0
H316 H 0.39631 0.81562 0.90795 0.0
H317 H 0.36999 0.7655 0.94717 0.0
H318 H 0.45145 0.79843 1.03022 0.0
H319 H 0.47766 0.84836 0.9906 0.0
Ho320 Ho 0.46647 0.3736 0.21422 0.0
Ho321 Ho 0.5229 0.42943 0.22823 0.0
C322 C 0.51532 0.41097 1.12587 0.0
C323 C 0.41503 0.32325 0.19126 0.0
C324 C 0.394 0.31069 0.1538 0.0
C325 C 0.40429 0.32331 1.11215 0.0
C326 C 0.38304 0.31305 1.07763 0.0
C327 C 0.35117 0.29024 1.0844 0.0
C328 C 0.34123 0.27699 1.12595 0.0
C329 C 0.36258 0.28712 0.16042 0.0
C330 C 0.50622 0.36166 0.26296 0.0
C331 C 0.4714 0.41353 0.3055 0.0
C332 C 0.58186 0.46735 0.24335 0.0
C333 C 0.60603 0.45805 0.2458 0.0
C334 C 0.59976 0.42913 0.2268 0.0
C335 C 0.61359 0.41248 0.24361 0.0
C336 C 0.63366 0.42446 0.2798 0.0
C337 C 0.64366 0.45564 0.29395 0.0
C338 C 0.62971 0.47224 0.27722 0.0
C339 C 0.47482 0.43865 0.19887 0.0
O340 O 0.48708 0.38723 0.14052 0.0
O341 O 0.53491 0.43015 0.15598 0.0
O342 O 0.44301 0.32641 0.18667 0.0
O343 O 0.41572 0.34753 0.21075 0.0
O344 O 0.47816 0.3549 0.27388 0.0
O345 O 0.51348 0.37882 0.22902 0.0
O346 O 0.50192 0.42754 0.29626 0.0
O347 O 0.4517 0.39352 0.27515 0.0
O348 O 0.56069 0.45489 0.27411 0.0
O349 O 0.56921 0.46501 0.20524 0.0
O350 O 0.49652 0.45749 0.22608 0.0
O351 O 0.48226 0.4188 0.18766 0.0
H352 H 0.42843 0.34175 1.10663 0.0
H353 H 0.39123 0.32416 1.04615 0.0
H354 H 0.31683 0.25942 0.13198 0.0
H355 H 0.35436 0.27725 0.19255 0.0
H356 H 0.58139 0.41762 0.20259 0.0
H357 H 0.60568 0.38867 0.23179 0.0
H358 H 0.659 0.46558 0.32189 0.0
H359 H 0.63468 0.49438 0.29249 0.0
Ho360 Ho 0.10408 0.48293 0.54938 0.0
Ho361 Ho 0.11541 0.5456 0.56497 0.0
C362 C 0.11738 0.53094 0.46135 0.0
C363 C 0.09469 0.42772 0.52561 0.0
C364 C 0.07927 0.40442 0.49077 0.0
C365 C 0.07664 0.41378 0.44871 0.0
C366 C 0.06171 0.39108 0.41612 0.0
C367 C 0.04918 0.35872 0.42513 0.0
C368 C 0.05182 0.34947 0.46735 0.0
C369 C 0.06687 0.37223 0.49993 0.0
C370 C 0.15938 0.51904 0.59393 0.0
C371 C 0.07388 0.49138 0.64219 0.0
C372 C 0.1436 0.60322 0.59397 0.0
C373 C 0.17113 0.61819 0.62259 0.0
C374 C 0.1889 0.65117 0.62755 0.0
C375 C 0.21658 0.66483 0.65238 0.0
C376 C 0.22703 0.64561 0.67158 0.0
C377 C 0.20928 0.61263 0.66564 0.0
C378 C 0.18159 0.59912 0.64164 0.0
C379 C 0.0604 0.50864 0.52342 0.0
O380 O 0.10804 0.50151 0.47627 0.0
O381 O 0.1244 0.55354 0.49105 0.0
O382 O 0.11953 0.45438 0.51469 0.0
O383 O 0.07612 0.43175 0.55217 0.0
O384 O 0.13742 0.49114 0.60447 0.0
O385 O 0.14972 0.52771 0.56133 0.0
O386 O 0.09055 0.52224 0.63168 0.0
O387 O 0.07389 0.47068 0.61318 0.0
O388 O 0.11767 0.58065 0.61123 0.0
O389 O 0.1496 0.59502 0.5562 0.0
O390 O 0.07636 0.53924 0.51943 0.0
O391 O 0.07211 0.50103 0.55383 0.0
H392 H 0.08582 0.43853 0.44117 0.0
H393 H 0.05937 0.39883 0.38408 0.0
H394 H 0.04237 0.32471 0.4751 0.0
H395 H 0.06875 0.3647 0.53236 0.0
H396 H 0.18139 0.66625 0.61233 0.0
H397 H 0.22964 0.69027 0.65694 0.0
H398 H 0.2161 0.59705 0.68102 0.0
H399 H 0.16823 0.57364 0.63794 0.0
Ho400 Ho 0.62322 0.09821 0.88117 0.0
Ho401 Ho 0.57352 0.10863 0.89807 0.0
C402 C 0.58995 0.11659 0.79534 0.0
C403 C 0.66772 0.08698 0.85779 0.0
C404 C 0.68146 0.08017 0.81983 0.0
C405 C 0.6694 0.07826 0.77804 0.0
C406 C 0.68158 0.06952 0.74278 0.0
C407 C 0.7059 0.06249 0.74899 0.0
C408 C 0.71856 0.06552 0.7908 0.0
C409 C 0.70641 0.07437 0.82599 0.0
C410 C 0.64381 0.15352 0.92716 0.0
C411 C 0.58609 0.06881 0.9758 0.0
C412 C 0.54317 0.13529 0.92894 0.0
C413 C 0.55576 0.1632 0.95741 0.0
C414 C 0.54097 0.18139 0.9612 0.0
C415 C 0.5556 0.21009 0.98441 0.0
C416 C 0.58548 0.22113 1.0031 0.0
C417 C 0.60012 0.20276 0.99876 0.0
C418 C 0.58536 0.17409 0.97634 0.0
C419 C 0.55458 0.05345 0.85391 0.0
O420 O 0.61099 0.10811 0.80901 0.0
O421 O 0.57297 0.12028 0.82608 0.0
O422 O 0.67119 0.11522 0.86 0.0
O423 O 0.63948 0.065 0.86902 0.0
O424 O 0.64815 0.1305 0.93804 0.0
O425 O 0.62531 0.14435 0.89456 0.0
O426 O 0.57212 0.08538 0.96523 0.0
O427 O 0.60645 0.0687 0.94634 0.0
O428 O 0.54105 0.10975 0.94571 0.0
O429 O 0.55646 0.14143 0.89071 0.0
O430 O 0.54173 0.07092 0.85029 0.0
O431 O 0.5739 0.06386 0.88465 0.0
H432 H 0.65005 0.08264 0.77294 0.0
H433 H 0.67094 0.06679 0.71105 0.0
H434 H 0.7373 0.06033 0.79642 0.0
H435 H 0.71598 0.07592 0.85824 0.0
H436 H 0.51837 0.17357 0.94596 0.0
H437 H 0.54366 0.22362 0.98779 0.0
H438 H 0.62267 0.21004 1.01385 0.0
H439 H 0.59725 0.16049 0.97338 0.0
Ho440 Ho 0.53153 0.63122 0.21347 0.0
Ho441 Ho 0.47784 0.57626 0.22934 0.0
C442 C 0.48559 0.59636 1.12605 0.0
C443 C 0.58878 0.67811 0.20592 0.0
C444 C 0.61254 0.69236 0.17158 0.0
C445 C 0.60395 0.68574 0.12771 0.0
C446 C 0.62706 0.69726 1.09538 0.0
C447 C 0.65915 0.7154 1.10646 0.0
C448 C 0.66755 0.72274 0.15046 0.0
C449 C 0.64432 0.71133 0.18284 0.0
C450 C 0.48616 0.64558 0.23538 0.0
C451 C 0.52513 0.59113 0.30835 0.0
C452 C 0.41823 0.53795 0.24075 0.0
C453 C 0.39417 0.54714 0.24793 0.0
C454 C 0.39888 0.57583 0.2307 0.0
C455 C 0.38375 0.59091 0.2493 0.0
C456 C 0.36408 0.57777 0.28582 0.0
C457 C 0.35613 0.54699 0.2989 0.0
C458 C 0.37123 0.53187 0.28019 0.0
C459 C 0.52502 0.56698 0.19512 0.0
O460 O 0.51517 0.61709 0.13944 0.0
O461 O 0.46527 0.58028 0.15768 0.0
O462 O 0.56385 0.68089 0.20182 0.0
O463 O 0.58179 0.64966 0.21743 0.0
O464 O 0.50404 0.6555 0.20139 0.0
O465 O 0.49127 0.62545 0.25499 0.0
O466 O 0.49705 0.57025 0.29352 0.0
O467 O 0.54225 0.61687 0.28335 0.0
O468 O 0.43881 0.5466 0.27199 0.0
O469 O 0.43163 0.54421 0.20253 0.0
O470 O 0.5046 0.54883 0.22413 0.0
O471 O 0.51706 0.58649 0.18459 0.0
H472 H 0.57948 0.67087 1.11857 0.0
H473 H 0.61987 0.69057 1.06185 0.0
H474 H 0.69207 0.7366 0.15985 0.0
H475 H 0.65122 0.71655 0.21672 0.0
H476 H 0.4166 0.58821 0.20585 0.0
H477 H 0.39008 0.61439 0.23817 0.0
H478 H 0.34124 0.53616 0.32708 0.0
H479 H 0.3674 0.50985 0.29406 0.0
H480 H 0.49453 0.17802 0.25098 0.0
H481 H 0.53347 0.20951 0.37909 0.0
H482 H 0.50145 0.23024 0.23565 0.0
H483 H 0.54016 0.26204 0.36407 0.0
H484 H 0.50185 0.33282 0.34066 0.0
H485 H 0.50731 0.28663 0.35559 0.0
H486 H 0.53633 0.28704 0.22247 0.0
H487 H 0.53121 0.33379 0.20784 0.0
C488 C 0.50519 0.19631 0.27574 0.0
C489 C 0.51355 0.18917 0.31627 0.0
C490 C 0.50922 0.22654 0.26687 0.0
C491 C 0.52125 0.25097 0.29849 0.0
C492 C 0.53052 0.24411 0.33875 0.0
C493 C 0.527 0.2139 0.34733 0.0
C494 C 0.51023 0.32364 0.31475 0.0
C495 C 0.51629 0.33758 0.27306 0.0
C496 C 0.51334 0.29688 0.32336 0.0
C497 C 0.522 0.2823 0.29034 0.0
C498 C 0.52922 0.29699 0.2489 0.0
C499 C 0.52666 0.32423 0.24051 0.0
H500 H 0.3354 0.54314 0.71196 0.0
H501 H 0.3302 0.50802 0.58125 0.0
H502 H 0.29053 0.5509 0.69675 0.0
H503 H 0.28575 0.51587 0.56578 0.0
H504 H 0.2124 0.54565 0.54008 0.0
H505 H 0.26407 0.55089 0.55498 0.0
H506 H 0.23385 0.51771 0.68604 0.0
H507 H 0.18255 0.51234 0.67089 0.0
C508 C 0.3253 0.53787 0.6796 0.0
C509 C 0.33678 0.52511 0.64781 0.0
C510 C 0.29917 0.54195 0.67091 0.0
C511 C 0.28388 0.53383 0.62994 0.0
C512 C 0.29664 0.52271 0.59758 0.0
C513 C 0.32232 0.51817 0.6065 0.0
C514 C 0.21707 0.54024 0.57238 0.0
C515 C 0.19312 0.52872 0.60431 0.0
C516 C 0.2467 0.54287 0.58089 0.0
C517 C 0.25358 0.53455 0.62183 0.0
C518 C 0.23003 0.52467 0.65428 0.0
C519 C 0.20038 0.52155 0.64554 0.0
H520 H 0.79874 0.33223 1.04209 0.0
H521 H 0.82635 0.32652 0.91029 0.0
H522 H 0.74654 0.28584 1.02849 0.0
H523 H 0.77434 0.28062 0.8964 0.0
H524 H 0.66988 0.20678 0.87388 0.0
H525 H 0.71699 0.25854 0.88779 0.0
H526 H 0.72341 0.22827 1.01706 0.0
H527 H 0.67683 0.17671 1.00281 0.0
C528 C 0.79351 0.32165 1.00985 0.0
C529 C 0.81704 0.33361 0.97726 0.0
C530 C 0.76352 0.29465 1.00209 0.0
C531 C 0.75571 0.27887 0.96121 0.0
C532 C 0.77887 0.29187 0.92816 0.0
C533 C 0.80893 0.31841 0.93617 0.0
C534 C 0.68094 0.21138 0.90558 0.0
C535 C 0.66913 0.18728 0.93723 0.0
C536 C 0.70833 0.2411 0.91351 0.0
C537 C 0.72464 0.24809 0.95367 0.0
C538 C 0.7118 0.22438 0.98588 0.0
C539 C 0.68488 0.19457 0.97765 0.0
H540 H 0.46032 0.67524 0.19266 0.0
H541 H 0.48996 0.66762 0.32152 0.0
H542 H 0.45476 0.72001 0.21604 0.0
H543 H 0.48478 0.7133 0.34534 0.0
H544 H 0.45998 0.79332 0.37809 0.0
H545 H 0.45408 0.74111 0.3604 0.0
H546 H 0.49024 0.77423 0.2312 0.0
H547 H 0.49608 0.82558 0.24893 0.0
C548 C 0.46503 0.68268 0.22647 0.0
C549 C 0.4755 0.66736 0.25498 0.0
C550 C 0.46223 0.70889 0.23988 0.0
C551 C 0.47004 0.72139 0.28255 0.0
C552 C 0.47854 0.70477 0.31218 0.0
C553 C 0.48135 0.67826 0.29859 0.0
C554 C 0.46602 0.78917 0.34563 0.0
C555 C 0.47826 0.81394 0.31486 0.0
C556 C 0.46301 0.7592 0.33556 0.0
C557 C 0.47162 0.75279 0.29412 0.0
C558 C 0.48283 0.77744 0.26324 0.0
C559 C 0.48624 0.80724 0.27346 0.0
H560 H 0.68404 0.52682 0.58749 0.0
H561 H 0.66683 0.46469 0.69595 0.0
H562 H 0.72957 0.52281 0.56638 0.0
H563 H 0.71262 0.45968 0.67392 0.0
H564 H 0.81801 0.48583 0.64721 0.0
H565 H 0.76905 0.48444 0.66958 0.0
H566 H 0.75062 0.49479 0.53515 0.0
H567 H 0.80016 0.49831 0.51376 0.0
C568 C 0.68961 0.51168 0.60656 0.0
C569 C 0.67128 0.49608 0.64353 0.0
C570 C 0.716 0.50918 0.59416 0.0
C571 C 0.72554 0.49078 0.61797 0.0
C572 C 0.70672 0.47442 0.65462 0.0
C573 C 0.68002 0.47695 0.66712 0.0
C574 C 0.80342 0.48775 0.62246 0.0
C575 C 0.81354 0.49258 0.57857 0.0
C576 C 0.77496 0.48662 0.63527 0.0
C577 C 0.75519 0.48966 0.60457 0.0
C578 C 0.765 0.4932 0.56047 0.0
C579 C 0.79359 0.49496 0.54791 0.0
H580 H 0.3203 0.79104 0.8733 0.0
H581 H 0.31789 0.81882 1.00618 0.0
H582 H 0.27304 0.73934 0.88717 0.0
H583 H 0.27128 0.76735 1.02037 0.0
H584 H 0.19535 0.66324 1.04287 0.0
H585 H 0.24752 0.70929 1.02786 0.0
H586 H 0.2158 0.71811 0.90081 0.0
H587 H 0.16376 0.67262 0.91623 0.0
C588 C 0.31027 0.78593 0.9058 0.0
C589 C 0.3234 0.8094 0.93863 0.0
C590 C 0.28277 0.75625 0.91374 0.0
C591 C 0.26767 0.74866 0.95504 0.0
C592 C 0.2819 0.77169 0.98825 0.0
C593 C 0.30888 0.80145 0.98007 0.0
C594 C 0.19961 0.67464 1.01144 0.0
C595 C 0.17494 0.66384 0.98086 0.0
C596 C 0.22963 0.70141 1.00286 0.0
C597 C 0.23641 0.71809 0.96301 0.0
C598 C 0.21207 0.70621 0.93175 0.0
C599 C 0.18196 0.67994 0.94068 0.0
H600 H 0.64695 0.26924 1.0056 0.0
H601 H 0.55662 0.23558 1.06792 0.0
H602 H 0.67328 0.29776 1.07199 0.0
H603 H 0.58243 0.26338 0.1338 0.0
H604 H 0.61369 0.2672 0.25499 0.0
H605 H 0.61626 0.29679 0.18997 0.0
H606 H 0.67386 0.26383 0.12685 0.0
H607 H 0.67153 0.23502 0.19147 0.0
C608 C 0.63271 0.26916 1.03284 0.0
C609 C 0.59985 0.24901 1.03255 0.0
C610 C 0.64779 0.28556 1.07086 0.0
C611 C 0.63012 0.28139 1.10906 0.0
C612 C 0.59707 0.2667 1.1055 0.0
C613 C 0.58203 0.25047 1.06748 0.0
C614 C 0.62822 0.26772 0.22785 0.0
C615 C 0.64115 0.24766 0.22725 0.0
C616 C 0.62974 0.28471 0.19061 0.0
C617 C 0.64363 0.28118 0.15228 0.0
C618 C 0.66222 0.26663 0.15525 0.0
C619 C 0.66085 0.24983 0.19253 0.0
H620 H 0.31149 0.5649 0.33466 0.0
H621 H 0.40753 0.63781 0.30972 0.0
H622 H 0.31415 0.58765 0.40665 0.0
H623 H 0.41084 0.65932 0.38113 0.0
H624 H 0.36431 0.57376 0.52633 0.0
H625 H 0.33851 0.57612 0.46118 0.0
H626 H 0.40638 0.67609 0.44946 0.0
H627 H 0.43333 0.67281 0.51427 0.0
C628 C 0.33274 0.58646 0.34385 0.0
C629 C 0.35976 0.59857 0.31738 0.0
C630 C 0.33441 0.59942 0.38527 0.0
C631 C 0.36342 0.62394 0.40112 0.0
C632 C 0.38823 0.63989 0.37109 0.0
C633 C 0.38635 0.62736 0.32952 0.0
C634 C 0.37334 0.59638 0.51022 0.0
C635 C 0.40161 0.62271 0.52389 0.0
C636 C 0.35818 0.598 0.473 0.0
C637 C 0.37099 0.62611 0.44855 0.0
C638 C 0.39653 0.65373 0.46638 0.0
C639 C 0.41193 0.65197 0.50363 0.0
H640 H 0.76063 0.46001 0.89578 0.0
H641 H 0.75698 0.36979 0.89839 0.0
H642 H 0.72005 0.43993 0.83997 0.0
H643 H 0.71908 0.35062 0.8405 0.0
H644 H 0.74055 0.43074 0.69479 0.0
H645 H 0.73087 0.43849 0.76893 0.0
H646 H 0.68179 0.33713 0.78906 0.0
H647 H 0.69319 0.32976 0.71375 0.0
C648 C 0.75068 0.43565 0.88512 0.0
C649 C 0.76328 0.41704 0.89946 0.0
C650 C 0.72755 0.42414 0.85273 0.0
C651 C 0.7177 0.39438 0.83309 0.0
C652 C 0.7264 0.37402 0.85324 0.0
C653 C 0.74885 0.38524 0.88618 0.0
C654 C 0.72635 0.40993 0.71423 0.0
C655 C 0.719 0.37981 0.69905 0.0
C656 C 0.72064 0.41432 0.75749 0.0
C657 C 0.70757 0.38855 0.78645 0.0
C658 C 0.69389 0.35777 0.76851 0.0
C659 C 0.70019 0.35344 0.72523 0.0
H660 H 0.35034 0.76293 1.02164 0.0
H661 H 0.4235 0.73923 1.0382 0.0
H662 H 0.32899 0.74131 1.09177 0.0
H663 H 0.40101 0.71566 1.10868 0.0
H664 H 0.30975 0.73733 0.22411 0.0
H665 H 0.30975 0.71308 0.15424 0.0
H666 H 0.40858 0.74389 0.1714 0.0
H667 H 0.40781 0.76605 0.24117 0.0
C668 C 0.36095 0.75151 1.03933 0.0
C669 C 0.38931 0.75384 1.02506 0.0
C670 C 0.34853 0.73883 1.08007 0.0
C671 C 0.36409 0.72796 1.10737 0.0
C672 C 0.38925 0.72523 1.08959 0.0
C673 C 0.40207 0.73853 1.04903 0.0
C674 C 0.331 0.73756 0.21355 0.0
C675 C 0.35901 0.75451 0.23735 0.0
C676 C 0.33116 0.72392 0.17331 0.0
C677 C 0.3596 0.72802 0.15564 0.0
C678 C 0.38618 0.74042 0.18298 0.0
C679 C 0.38582 0.7534 0.22348 0.0
H680 H 0.6854 0.4324 0.32541 0.0
H681 H 0.5864 0.36698 0.3054 0.0
H682 H 0.68213 0.40893 0.39649 0.0
H683 H 0.58252 0.34504 0.37628 0.0
H684 H 0.64267 0.42551 0.52604 0.0
H685 H 0.66234 0.42259 0.45535 0.0
H686 H 0.58713 0.3254 0.44153 0.0
H687 H 0.56659 0.3291 0.51279 0.0
C688 C 0.66325 0.41225 0.33547 0.0
C689 C 0.63594 0.40241 0.31061 0.0
C690 C 0.66121 0.39896 0.37643 0.0
C691 C 0.63165 0.37647 0.39357 0.0
C692 C 0.60569 0.36274 0.36514 0.0
C693 C 0.6079 0.37549 0.32392 0.0
C694 C 0.63086 0.40311 0.50871 0.0
C695 C 0.6026 0.3778 0.52456 0.0
C696 C 0.64235 0.40126 0.46781 0.0
C697 C 0.62596 0.37395 0.44165 0.0
C698 C 0.59984 0.34722 0.45997 0.0
C699 C 0.58803 0.34926 0.50082 0.0
H700 H 0.25671 0.65259 0.92736 0.0
H701 H 0.23573 0.56639 0.85971 0.0
H702 H 0.28864 0.68356 0.8658 0.0
H703 H 0.26634 0.59667 0.79799 0.0
H704 H 0.27556 0.63308 0.67795 0.0
H705 H 0.30029 0.63326 0.74667 0.0
H706 H 0.26044 0.68608 0.80651 0.0
H707 H 0.2368 0.68644 0.73825 0.0
C708 C 0.26012 0.64036 0.90004 0.0
C709 C 0.24279 0.60714 0.89726 0.0
C710 C 0.27834 0.65807 0.86469 0.0
C711 C 0.27855 0.64268 0.82577 0.0
C712 C 0.26632 0.60964 0.8268 0.0
C713 C 0.24849 0.59198 0.86235 0.0
C714 C 0.27352 0.64607 0.70542 0.0
C715 C 0.25306 0.65843 0.70354 0.0
C716 C 0.28763 0.64613 0.74485 0.0
C717 C 0.28072 0.65785 0.78291 0.0
C718 C 0.26579 0.676 0.77842 0.0
C719 C 0.25197 0.6762 0.73895 0.0
H720 H 0.37151 0.95402 1.02955 0.0
H721 H 0.46159 0.95927 1.02821 0.0
H722 H 0.38551 0.98456 1.09832 0.0
H723 H 0.47582 0.99001 1.0959 0.0
H724 H 0.50879 0.06434 0.20856 0.0
H725 H 0.49232 0.03482 0.13989 0.0
H726 H 0.39541 0.99617 0.17577 0.0
H727 H 0.41178 0.02707 0.2443 0.0
C728 C 0.39449 0.96155 1.04335 0.0
C729 C 0.41497 0.95313 1.02098 0.0
C730 C 0.40271 0.97944 1.08398 0.0
C731 C 0.4324 0.99103 1.10541 0.0
C732 C 0.45283 0.98272 1.08258 0.0
C733 C 0.44442 0.96443 1.04256 0.0
C734 C 0.48376 0.04963 0.2026 0.0
C735 C 0.4622 0.0491 0.23447 0.0
C736 C 0.47415 0.03181 0.16228 0.0
C737 C 0.44216 0.01128 0.15002 0.0
C738 C 0.42039 0.01095 0.18175 0.0
C739 C 0.42999 0.02908 0.22223 0.0
H740 H 0.41 0.39112 0.34354 0.0
H741 H 0.50752 0.45508 0.37233 0.0
H742 H 0.39498 0.40557 0.41345 0.0
H743 H 0.49268 0.46867 0.44172 0.0
H744 H 0.4616 0.51323 0.55229 0.0
H745 H 0.47421 0.49676 0.48336 0.0
H746 H 0.38947 0.40627 0.49306 0.0
H747 H 0.37708 0.42282 0.56321 0.0
C748 C 0.42854 0.40827 0.36434 0.0
C749 C 0.46043 0.42164 0.35012 0.0
C750 C 0.41978 0.41668 0.40544 0.0
C751 C 0.44223 0.43928 0.43527 0.0
C752 C 0.47395 0.45218 0.42087 0.0
C753 C 0.48268 0.44383 0.38017 0.0
C754 C 0.44534 0.48966 0.54031 0.0
C755 C 0.41798 0.46986 0.56541 0.0
C756 C 0.45284 0.47988 0.49974 0.0
C757 C 0.43335 0.4496 0.48019 0.0
C758 C 0.40566 0.42982 0.50507 0.0
C759 C 0.39842 0.43945 0.54631 0.0
H760 H 0.04568 0.43174 0.68507 0.0
H761 H 0.05502 0.52349 0.70249 0.0
H762 H 0.01474 0.41362 0.75281 0.0
H763 H 0.02359 0.50524 0.76945 0.0
H764 H 0.9494 0.46408 0.88178 0.0
H765 H 0.9799 0.48047 0.81415 0.0
H766 H 0.00267 0.40669 0.82857 0.0
H767 H 0.97158 0.38989 0.89647 0.0
C768 C 0.04139 0.44844 0.70299 0.0
C769 C 0.05403 0.47973 0.68626 0.0
C770 C 0.02324 0.43782 0.743 0.0
C771 C 0.01559 0.45739 0.76936 0.0
C772 C 0.02799 0.48855 0.7521 0.0
C773 C 0.04663 0.49936 0.71263 0.0
C774 C 0.96073 0.45098 0.87111 0.0
C775 C 0.95695 0.42507 0.89683 0.0
C776 C 0.97899 0.46088 0.83134 0.0
C777 C 0.99518 0.44584 0.81342 0.0
C778 C 0.99121 0.41968 0.83906 0.0
C779 C 0.97299 0.4098 0.87915 0.0
H780 H 0.57363 0.95655 0.22649 0.0
H781 H 0.48969 0.96347 0.22807 0.0
H782 H 0.5899 0.9862 0.15745 0.0
H783 H 0.50602 0.99335 0.16005 0.0
H784 H 0.54866 0.06752 1.04745 0.0
H785 H 0.53585 0.03904 1.11658 0.0
H786 H 0.58984 0.99556 1.07906 0.0
H787 H 0.60422 0.02546 1.01018 0.0
C788 C 0.55834 0.96429 0.21273 0.0
C789 C 0.52977 0.9566 0.23528 0.0
C790 C 0.56785 0.98166 0.17193 0.0
C791 C 0.54995 0.99345 0.15048 0.0
C792 C 0.52155 0.98589 0.17347 0.0
C793 C 0.5118 0.96809 0.21365 0.0
C794 C 0.55803 0.05191 1.05313 0.0
C795 C 0.57786 0.04974 1.02068 0.0
C796 C 0.54991 0.03465 1.09369 0.0
C797 C 0.56026 0.0131 1.10563 0.0
C798 C 0.58053 0.01118 1.07334 0.0
C799 C 0.58896 0.02872 1.03265 0.0
H800 H 0.61065 0.5905 0.5768 0.0
H801 H 0.54888 0.49259 0.54478 0.0
H802 H 0.59735 0.606 0.50735 0.0
H803 H 0.53627 0.50776 0.47573 0.0
H804 H 0.49666 0.53681 0.36 0.0
H805 H 0.5118 0.52388 0.42849 0.0
H806 H 0.59544 0.6156 0.4317 0.0
H807 H 0.57993 0.62867 0.36194 0.0
C808 C 0.59422 0.57194 0.5553 0.0
C809 C 0.58115 0.53979 0.5686 0.0
C810 C 0.58646 0.58101 0.51435 0.0
C811 C 0.56488 0.55867 0.48343 0.0
C812 C 0.55218 0.52662 0.497 0.0
C813 C 0.55988 0.51761 0.53767 0.0
C814 C 0.51845 0.55465 0.37469 0.0
C815 C 0.53654 0.58419 0.35315 0.0
C816 C 0.52752 0.54691 0.41519 0.0
C817 C 0.55545 0.56804 0.43838 0.0
C818 C 0.57364 0.59788 0.41698 0.0
C819 C 0.56465 0.60559 0.37586 0.0
H820 H 0.99072 0.55366 0.92956 0.0
H821 H 0.07437 0.57526 0.85736 0.0
H822 H 0.95952 0.53507 0.86205 0.0
H823 H 0.04387 0.55894 0.78954 0.0
H824 H 0.98469 0.54455 0.66148 0.0
H825 H 0.0152 0.56272 0.72906 0.0
H826 H 0.93332 0.49758 0.8022 0.0
H827 H 0.90295 0.47878 0.73398 0.0
C828 C 0.00294 0.555 0.89942 0.0
C829 C 0.03605 0.56663 0.90096 0.0
C830 C 0.9846 0.54394 0.85969 0.0
C831 C 0.99797 0.54465 0.8178 0.0
C832 C 0.0313 0.55714 0.81946 0.0
C833 C 0.04936 0.56689 0.85938 0.0
C834 C 0.97275 0.53367 0.69166 0.0
C835 C 0.94035 0.50954 0.68994 0.0
C836 C 0.99076 0.54435 0.73155 0.0
C837 C 0.97785 0.53248 0.77367 0.0
C838 C 0.94529 0.50843 0.77203 0.0
C839 C 0.92741 0.49717 0.73187 0.0
H840 H 0.45349 0.98805 0.39814 0.0
H841 H 0.47178 0.0647 0.48505 0.0
H842 H 0.45607 0.95904 0.46114 0.0
H843 H 0.48854 0.04158 0.54111 0.0
H844 H 0.51535 0.93816 0.48767 0.0
H845 H 0.49955 0.96321 0.54271 0.0
H846 H 0.53481 0.04496 0.46186 0.0
H847 H 0.53867 0.01501 0.40002 0.0
C848 C 0.45821 0.99911 0.43007 0.0
C849 C 0.46806 0.03132 0.43475 0.0
C850 C 0.46037 0.9828 0.46613 0.0
C851 C 0.47915 1.00098 0.5016 0.0
C852 C 0.47826 0.02849 0.51129 0.0
C853 C 0.47105 0.04294 0.47776 0.0
C854 C 0.51789 0.9606 0.48019 0.0
C855 C 0.52241 0.97198 0.43711 0.0
C856 C 0.51081 0.97597 0.51313 0.0
C857 C 0.5106 0.00359 0.50256 0.0
C858 C 0.53023 0.02119 0.46743 0.0
C859 C 0.53301 0.0043 0.43201 0.0
H860 H 0.41099 0.47496 0.81426 0.0
H861 H 0.47297 0.45994 0.73083 0.0
H862 H 0.44935 0.49215 0.87282 0.0
H863 H 0.50312 0.46282 0.79573 0.0
H864 H 0.52397 0.54469 0.73427 0.0
H865 H 0.49209 0.54126 0.79869 0.0
H866 H 0.54183 0.50855 0.87574 0.0
H867 H 0.58217 0.52682 0.81941 0.0
C868 C 0.43253 0.47506 0.80825 0.0
C869 C 0.44258 0.47305 0.76573 0.0
C870 C 0.45335 0.48254 0.84307 0.0
C871 C 0.48244 0.4848 0.8349 0.0
C872 C 0.48321 0.46642 0.79952 0.0
C873 C 0.46555 0.46403 0.76239 0.0
C874 C 0.52999 0.53946 0.76582 0.0
C875 C 0.55259 0.53002 0.76963 0.0
C876 C 0.51132 0.53669 0.80241 0.0
C877 C 0.51041 0.51716 0.8368 0.0
C878 C 0.539 0.51884 0.84618 0.0
C879 C 0.56089 0.52673 0.81242 0.0
H880 H 0.93858 0.40749 0.14697 0.0
H881 H 0.01736 0.47036 1.06785 0.0
H882 H 0.95806 0.44574 0.20652 0.0
H883 H 0.04282 0.50068 0.1341 0.0
H884 H 0.97801 0.51793 1.06959 0.0
H885 H 0.95126 0.48775 0.13589 0.0
H886 H 0.0353 0.54058 0.20918 0.0
H887 H 0.05574 0.57928 0.15088 0.0
C888 C 0.96013 0.42921 0.1422 0.0
C889 C 0.97312 0.43963 1.10031 0.0
C890 C 0.97246 0.45002 0.17764 0.0
C891 C -0.00071 0.4795 0.17079 0.0
C892 C 0.01929 0.48057 0.1366 0.0
C893 C 0.00509 0.46279 1.09876 0.0
C894 C 0.99004 0.52484 1.10062 0.0
C895 C 0.02209 0.5477 1.10282 0.0
C896 C 0.97515 0.50715 0.13821 0.0
C897 C 0.99461 0.5074 0.17214 0.0
C898 C 0.02151 0.53661 0.17996 0.0
C899 C 0.03461 0.55752 0.14506 0.0
H900 H 0.05046 0.52311 0.44018 0.0
H901 H 0.03981 0.44549 0.51902 0.0
H902 H 0.0181 0.48443 0.38392 0.0
H903 H 0.00964 0.40893 0.46048 0.0
H904 H 0.93478 0.40954 0.54031 0.0
H905 H 0.95981 0.39572 0.48229 0.0
H906 H 0.96894 0.47394 0.40593 0.0
H907 H 0.9471 0.48933 0.46501 0.0
C908 C 0.04066 0.49807 0.44618 0.0
C909 C 0.04427 0.48698 0.48671 0.0
C910 C 0.02299 0.47592 0.41367 0.0
C911 C 0.00338 0.44425 0.42695 0.0
C912 C 0.01838 0.43397 0.45598 0.0
C913 C 0.03529 0.45475 0.48994 0.0
C914 C 0.9432 0.42435 0.51164 0.0
C915 C 0.94176 0.45227 0.50902 0.0
C916 C 0.95666 0.41593 0.47755 0.0
C917 C 0.97098 0.43674 0.44196 0.0
C918 C 0.96182 0.45948 0.43494 0.0
C919 C 0.94967 0.46874 0.46935 0.0
H920 H 0.46341 0.01098 0.85938 0.0
H921 H 0.40928 0.93509 0.76974 0.0
H922 H 0.49716 0.04099 0.79848 0.0
H923 H 0.45037 0.95976 0.71531 0.0
H924 H 0.57903 0.06289 0.76784 0.0
H925 H 0.53772 0.03735 0.71416 0.0
H926 H 0.49187 0.95719 0.79803 0.0
H927 H 0.52558 0.9883 0.85866 0.0
C928 C 0.45823 1.00049 0.82708 0.0
C929 C 0.43648 0.96829 0.82116 0.0
C930 C 0.47787 0.01743 0.79208 0.0
C931 C 0.4797 0.99993 0.75628 0.0
C932 C 0.45195 0.97241 0.74524 0.0
C933 C 0.42945 0.95721 0.77781 0.0
C934 C 0.55886 0.041 0.7764 0.0
C935 C 0.55209 0.03053 0.8199 0.0
C936 C 0.53631 0.02521 0.74421 0.0
C937 C 0.50875 0.99773 0.7558 0.0
C938 C 0.51091 0.98081 0.79155 0.0
C939 C 0.53053 0.99837 0.82627 0.0
H940 H 0.54203 0.5888 1.11119 0.0
H941 H 0.54099 0.51938 0.19832 0.0
H942 H 0.51785 0.5486 1.05496 0.0
H943 H 0.52703 0.48296 0.13668 0.0
H944 H 0.45512 0.41389 1.11701 0.0
H945 H 0.4761 0.45154 1.05788 0.0
H946 H 0.47046 0.52056 0.13884 0.0
H947 H 0.4594 0.48673 0.20237 0.0
C948 C 0.53857 0.56555 1.11769 0.0
C949 C 0.53822 0.55534 0.16084 0.0
C950 C 0.52586 0.54285 1.08448 0.0
C951 C 0.51517 0.51128 1.09528 0.0
C952 C 0.53075 0.50641 0.13057 0.0
C953 C 0.53892 0.52723 0.16623 0.0
C954 C 0.4584 0.43727 1.12263 0.0
C955 C 0.46056 0.44928 0.16545 0.0
C956 C 0.46936 0.4585 1.08788 0.0
C957 C 0.48037 0.49046 1.09705 0.0
C958 C 0.46654 0.49687 0.1336 0.0
C959 C 0.46009 0.4776 0.17033 0.0
H960 H 0.27691 0.92077 0.67009 0.0
H961 H 0.28338 0.99135 0.76198 0.0
H962 H 0.27957 0.95419 0.6101 0.0
H963 H 0.2851 0.02456 0.70183 0.0
H964 H 0.29336 0.01647 0.50525 0.0
H965 H 0.26243 0.98458 0.56683 0.0
H966 H 0.33159 0.05299 0.65542 0.0
H967 H 0.36184 0.08525 0.59402 0.0
C968 C 0.27785 0.94301 0.67738 0.0
C969 C 0.28075 0.95385 0.7205 0.0
C970 C 0.27895 0.96203 0.64304 0.0
C971 C 0.28306 0.99228 0.65129 0.0
C972 C 0.28235 0.00154 0.69457 0.0
C973 C 0.28121 0.98245 0.72897 0.0
C974 C 0.30123 0.02535 0.53794 0.0
C975 C 0.33038 0.05293 0.54498 0.0
C976 C 0.28358 0.00698 0.57316 0.0
C977 C 0.29489 0.01591 0.61586 0.0
C978 C 0.32213 0.04541 0.62295 0.0
C979 C 0.33974 0.06375 0.58777 0.0
H980 H 0.35606 0.27806 0.99872 0.0
H981 H 0.29466 0.28812 1.09106 0.0
H982 H 0.32655 0.28286 0.93894 0.0
H983 H 0.26437 0.29198 1.03112 0.0
H984 H 0.28036 0.30065 0.8347 0.0
H985 H 0.27985 0.26847 0.89537 0.0
H986 H 0.2847 0.33918 0.9859 0.0
H987 H 0.28412 0.37068 0.92541 0.0
C988 C 0.33554 0.28018 1.00613 0.0
C989 C 0.32811 0.28352 1.04936 0.0
C990 C 0.31834 0.28255 0.9719 0.0
C991 C 0.29343 0.28838 0.98037 0.0
C992 C 0.28374 0.28796 1.02369 0.0
C993 C 0.30098 0.28557 1.05798 0.0
C994 C 0.27997 0.30865 0.86762 0.0
C995 C 0.28302 0.3385 0.87545 0.0
C996 C 0.27985 0.29029 0.90233 0.0
C997 C 0.28285 0.30155 0.94532 0.0
C998 C 0.28227 0.32971 0.95319 0.0
C999 C 0.28237 0.34803 0.91853 0.0
H1000 H 0.90521 0.28143 0.25253 0.0
H1001 H 0.97679 0.27696 0.17488 0.0
H1002 H 0.93412 0.28518 0.31826 0.0
H1003 H 0.00497 0.27903 0.2409 0.0
H1004 H 0.06723 0.35985 0.34087 0.0
H1005 H 0.03462 0.32752 0.28112 0.0
H1006 H 0.96001 0.27055 0.37207 0.0
H1007 H 0.99255 0.30396 0.43197 0.0
C1008 C 0.92655 0.28006 0.24968 0.0
C1009 C 0.9393 0.28002 0.20856 0.0
C1010 C 0.94298 0.28179 0.28744 0.0
C1011 C 0.97234 0.28329 0.28468 0.0
C1012 C 0.98277 0.2787 0.24391 0.0
C1013 C 0.96645 0.27723 0.20608 0.0
C1014 C 0.04408 0.34007 0.34814 0.0
C1015 C 0.03209 0.33487 0.39078 0.0
C1016 C 0.0255 0.32114 0.31398 0.0
C1017 C 0.9945 0.2966 0.32177 0.0
C1018 C 0.98364 0.28954 0.36502 0.0
C1019 C 0.0023 0.30856 0.39929 0.0
H1020 H 0.71784 0.08172 0.66434 0.0
H1021 H 0.71388 0.01108 0.75215 0.0
H1022 H 0.71663 0.04977 0.60249 0.0
H1023 H 0.71378 0.97946 0.69014 0.0
H1024 H 0.63556 0.91863 0.58438 0.0
H1025 H 0.66695 0.95054 0.64537 0.0
H1026 H 0.73351 0.02032 0.5559 0.0
H1027 H 0.70135 0.9887 0.49477 0.0
C1028 C 0.71785 0.05987 0.67034 0.0
C1029 C 0.71501 0.04842 0.71288 0.0
C1030 C 0.7176 0.04169 0.63491 0.0
C1031 C 0.71444 0.01173 0.64149 0.0
C1032 C 0.7157 0.00222 0.68416 0.0
C1033 C 0.71591 0.02042 0.71965 0.0
C1034 C 0.65736 0.94036 0.57777 0.0
C1035 C 0.66556 0.95165 0.53506 0.0
C1036 C 0.67565 0.9585 0.61269 0.0
C1037 C 0.70244 0.9883 0.60542 0.0
C1038 C 0.71271 0.99768 0.56243 0.0
C1039 C 0.69436 0.97949 0.52745 0.0
H1040 H 0.71098 0.70849 1.11107 0.0
H1041 H 0.66151 0.73818 1.02483 0.0
H1042 H 0.74034 0.70449 1.04929 0.0
H1043 H 0.68966 0.73288 0.963 0.0
H1044 H 0.71226 0.63091 0.93315 0.0
H1045 H 0.71635 0.6614 0.99808 0.0
H1046 H 0.7333 0.74101 0.91811 0.0
H1047 H 0.72768 0.70978 0.85291 0.0
C1048 C 0.70721 0.71531 1.07915 0.0
C1049 C 0.68333 0.72276 1.07243 0.0
C1050 C 0.72387 0.71278 1.04371 0.0
C1051 C 0.71669 0.71743 1.00111 0.0
C1052 C 0.69582 0.72901 0.99529 0.0
C1053 C 0.67932 0.73169 1.03068 0.0
C1054 C 0.71751 0.65514 0.92949 0.0
C1055 C 0.71869 0.66761 0.88804 0.0
C1056 C 0.72038 0.6729 0.96676 0.0
C1057 C 0.72457 0.70352 0.96326 0.0
C1058 C 0.72951 0.71729 0.92181 0.0
C1059 C 0.72647 0.69943 0.88446 0.0
H1060 H 0.0181 0.72085 0.18704 0.0
H1061 H 0.0923 0.71684 0.25659 0.0
H1062 H 0.99555 0.72523 0.25586 0.0
H1063 H 0.06887 0.71911 0.32515 0.0
H1064 H 0.02119 0.70376 0.44371 0.0
H1065 H 0.04879 0.73663 0.38151 0.0
H1066 H 0.96579 0.68246 0.30242 0.0
H1067 H 0.93761 0.65136 0.3653 0.0
C1068 C 0.03019 0.72191 0.21695 0.0
C1069 C 0.05639 0.71743 0.21656 0.0
C1070 C 0.01707 0.72413 0.25647 0.0
C1071 C 0.02965 0.7214 0.29619 0.0
C1072 C 0.05826 0.72116 0.29544 0.0
C1073 C 0.07155 0.71933 0.256 0.0
C1074 C 0.00831 0.69984 0.41362 0.0
C1075 C 0.97753 0.6741 0.40897 0.0
C1076 C 0.02431 0.71855 0.37774 0.0
C1077 C 0.01005 0.71141 0.33645 0.0
C1078 C 0.97784 0.68862 0.33346 0.0
C1079 C 0.9617 0.67031 0.36948 0.0
H1080 H 0.57458 0.12217 0.49498 0.0
H1081 H 0.48773 0.1136 0.54088 0.0
H1082 H 0.5911 0.12238 0.56979 0.0
H1083 H 0.50405 0.11353 0.61646 0.0
H1084 H 0.54198 0.12529 0.75956 0.0
H1085 H 0.52571 0.12563 0.68473 0.0
H1086 H 0.60006 0.11026 0.63813 0.0
H1087 H 0.61644 0.11024 0.71366 0.0
C1088 C 0.55864 0.12049 0.52078 0.0
C1089 C 0.52939 0.11825 0.50914 0.0
C1090 C 0.56833 0.12036 0.56518 0.0
C1091 C 0.54972 0.11802 0.60256 0.0
C1092 C 0.52031 0.11577 0.59089 0.0
C1093 C 0.51054 0.1158 0.54622 0.0
C1094 C 0.55541 0.1222 0.73376 0.0
C1095 C 0.58134 0.1181 0.7454 0.0
C1096 C 0.5456 0.12214 0.68936 0.0
C1097 C 0.56079 0.118 0.65199 0.0
C1098 C 0.58691 0.11394 0.66367 0.0
C1099 C 0.59669 0.11391 0.70832 0.0
H1100 H 0.38272 0.4965 0.87182 0.0
H1101 H 0.46443 0.58115 0.8273 0.0
H1102 H 0.39966 0.51217 0.94768 0.0
H1103 H 0.48124 0.59702 0.90225 0.0
H1104 H 0.51964 0.61919 1.04546 0.0
H1105 H 0.50262 0.60303 0.96988 0.0
H1106 H 0.4098 0.53535 1.01564 0.0
H1107 H 0.42709 0.55139 1.09066 0.0
C1108 C 0.40421 0.5187 0.87757 0.0
C1109 C 0.42145 0.53721 0.84094 0.0
C1110 C 0.41429 0.52805 0.92229 0.0
C1111 C 0.44257 0.5566 0.93421 0.0
C1112 C 0.45964 0.57486 0.89727 0.0
C1113 C 0.44954 0.5656 0.85286 0.0
C1114 C 0.49545 0.60098 1.03985 0.0
C1115 C 0.47521 0.58739 1.07655 0.0
C1116 C 0.48527 0.59138 0.99528 0.0
C1117 C 0.45402 0.56724 0.98352 0.0
C1118 C 0.43399 0.55366 1.02056 0.0
C1119 C 0.44413 0.5633 1.06493 0.0
H1120 H 0.88617 0.45671 0.16296 0.0
H1121 H 0.88371 0.37075 0.19981 0.0
H1122 H 0.88415 0.46968 0.23926 0.0
H1123 H 0.88155 0.38373 0.27733 0.0
H1124 H 0.85888 0.40539 0.42156 0.0
H1125 H 0.86044 0.39048 0.34505 0.0
H1126 H 0.90299 0.48836 0.30842 0.0
H1127 H 0.9014 0.50297 0.38449 0.0
C1128 C 0.88501 0.44007 0.18705 0.0
C1129 C 0.88483 0.41209 0.17256 0.0
C1130 C 0.88411 0.4479 0.23225 0.0
C1131 C 0.88267 0.42834 0.2675 0.0
C1132 C 0.88232 0.40009 0.25313 0.0
C1133 C 0.8836 0.39239 0.20754 0.0
C1134 C 0.86841 0.42399 0.39744 0.0
C1135 C 0.87955 0.45582 0.41154 0.0
C1136 C 0.86957 0.41528 0.35242 0.0
C1137 C 0.8817 0.43762 0.31755 0.0
C1138 C 0.89283 0.46944 0.33197 0.0
C1139 C 0.89198 0.47813 0.37691 0.0
H1140 H 0.41548 0.87497 0.49559 0.0
H1141 H 0.50493 0.89003 0.53933 0.0
H1142 H 0.39877 0.87414 0.57104 0.0
H1143 H 0.48838 0.88937 0.61539 0.0
H1144 H 0.44974 0.87443 0.7595 0.0
H1145 H 0.46619 0.87481 0.68405 0.0
H1146 H 0.39014 0.88758 0.64023 0.0
H1147 H 0.37367 0.88703 0.71632 0.0
C1148 C 0.43196 0.87794 0.521 0.0
C1149 C 0.46204 0.88224 0.50851 0.0
C1150 C 0.42216 0.87772 0.56576 0.0
C1151 C 0.44142 0.88162 0.60274 0.0
C1152 C 0.4716 0.88584 0.59021 0.0
C1153 C 0.4815 0.88625 0.54522 0.0
C1154 C 0.43598 0.87711 0.73421 0.0
C1155 C 0.40955 0.88032 0.74686 0.0
C1156 C 0.44589 0.8776 0.68945 0.0
C1157 C 0.43027 0.88122 0.65261 0.0
C1158 C 0.40366 0.88436 0.66529 0.0
C1159 C 0.39383 0.88406 0.71029 0.0
H1160 H 0.61668 0.51387 0.87336 0.0
H1161 H 0.54076 0.42558 0.8263 0.0
H1162 H 0.59892 0.49739 0.9485 0.0
H1163 H 0.52311 0.40878 0.90089 0.0
H1164 H 0.48324 0.38337 1.04443 0.0
H1165 H 0.50059 0.39968 0.96882 0.0
H1166 H 0.58879 0.47591 1.01601 0.0
H1167 H 0.5713 0.45979 1.09052 0.0
C1168 C 0.59635 0.49066 0.87843 0.0
C1169 C 0.581 0.47148 0.84125 0.0
C1170 C 0.58574 0.4808 0.92281 0.0
C1171 C 0.55879 0.45092 0.93398 0.0
C1172 C 0.5436 0.43191 0.89651 0.0
C1173 C 0.55422 0.44173 0.85234 0.0
C1174 C 0.50648 0.40354 1.0391 0.0
C1175 C 0.5254 0.4195 1.0761 0.0
C1176 C 0.51685 0.41326 0.99451 0.0
C1177 C 0.54693 0.43986 0.98311 0.0
C1178 C 0.56554 0.45566 1.02046 0.0
C1179 C 0.55525 0.44595 1.06468 0.0
H1180 H 0.10194 0.49262 0.38377 0.0
H1181 H 0.13077 0.58824 0.42165 0.0
H1182 H 0.0999 0.5061 0.30725 0.0
H1183 H 0.1289 0.60187 0.3457 0.0
H1184 H 0.10731 0.6202 0.20244 0.0
H1185 H 0.10923 0.60681 0.27912 0.0
H1186 H 0.11632 0.52608 0.23761 0.0
H1187 H 0.11433 0.53947 0.16172 0.0
C1188 C 0.10823 0.51674 0.37633 0.0
C1189 C 0.11696 0.539 0.41127 0.0
C1190 C 0.10707 0.52479 0.33126 0.0
C1191 C 0.11424 0.5557 0.3173 0.0
C1192 C 0.12276 0.57774 0.35254 0.0
C1193 C 0.12411 0.56976 0.39738 0.0
C1194 C 0.10959 0.59969 0.20919 0.0
C1195 C 0.11104 0.58161 0.1734 0.0
C1196 C 0.11073 0.59171 0.25434 0.0
C1197 C 0.11305 0.56479 0.26753 0.0
C1198 C 0.1143 0.54679 0.23147 0.0
C1199 C 0.11343 0.55488 0.18658 0.0
loop_
_geom_bond_atom_site_label_1
_geom_bond_atom_site_label_2
_geom_bond_distance
_geom_bond_site_symmetry_2
_ccdc_geom_bond_type
Ho0 C3 2.811 . S
Ho0 O20 2.322 . S
Ho0 O22 2.378 . S
Ho0 O23 2.524 . S
Ho0 O24 2.381 . S
Ho0 O25 2.669 . S
Ho0 O27 2.346 . S
Ho0 O31 2.305 . S
Ho1 C12 2.811 . S
Ho1 O21 2.346 . S
Ho1 O25 2.305 . S
Ho1 O26 2.322 . S
Ho1 O28 2.378 . S
Ho1 O29 2.524 . S
Ho1 O30 2.381 . S
Ho1 O31 2.669 . S
C2 O20 1.259 . S
C2 O21 1.268 . S
C3 Ho0 2.811 . S
C3 C4 1.488 . S
C3 O22 1.215 . S
C3 O23 1.289 . S
C4 C3 1.488 . S
C4 C5 1.348 . S
C4 C9 1.413 . S
C5 C4 1.348 . S
C5 C6 1.442 . S
C5 H32 0.930 . S
C6 C5 1.442 . S
C6 C7 1.381 . S
C6 H33 0.931 . S
C7 C6 1.381 . S
C7 C8 1.321 . S
C8 C7 1.321 . S
C8 C9 1.403 . S
C8 H34 0.934 . S
C9 C4 1.413 . S
C9 C8 1.403 . S
C9 H35 0.930 . S
C10 O24 1.275 . S
C10 O25 1.256 . S
C11 O26 1.259 . S
C11 O27 1.268 . S
C12 Ho1 2.811 . S
C12 C13 1.488 . S
C12 O28 1.215 . S
C12 O29 1.289 . S
C13 C12 1.488 . S
C13 C14 1.348 . S
C13 C18 1.413 . S
C14 C13 1.348 . S
C14 C15 1.442 . S
C14 H36 0.930 . S
C15 C14 1.442 . S
C15 C16 1.381 . S
C15 H37 0.931 . S
C16 C15 1.381 . S
C16 C17 1.321 . S
C17 C16 1.321 . S
C17 C18 1.403 . S
C17 H38 0.934 . S
C18 C13 1.413 . S
C18 C17 1.403 . S
C18 H39 0.930 . S
C19 O30 1.275 . S
C19 O31 1.256 . S
O20 Ho0 2.322 . S
O20 C2 1.259 . S
O21 Ho1 2.346 . S
O21 C2 1.268 . S
O22 Ho0 2.378 . S
O22 C3 1.215 . S
O23 Ho0 2.524 . S
O23 C3 1.289 . S
O24 Ho0 2.381 . S
O24 C10 1.275 . S
O25 Ho0 2.669 . S
O25 Ho1 2.305 . S
O25 C10 1.256 . S
O26 Ho1 2.322 . S
O26 C11 1.259 . S
O27 Ho0 2.346 . S
O27 C11 1.268 . S
O28 Ho1 2.378 . S
O28 C12 1.215 . S
O29 Ho1 2.524 . S
O29 C12 1.289 . S
O30 Ho1 2.381 . S
O30 C19 1.275 . S
O31 Ho0 2.305 . S
O31 Ho1 2.669 . S
O31 C19 1.256 . S
H32 C5 0.930 . S
H33 C6 0.931 . S
H34 C8 0.934 . S
H35 C9 0.930 . S
H36 C14 0.930 . S
H37 C15 0.931 . S
H38 C17 0.934 . S
H39 C18 0.930 . S
Ho40 C43 2.811 . S
Ho40 O60 2.322 . S
Ho40 O62 2.378 . S
Ho40 O63 2.524 . S
Ho40 O64 2.381 . S
Ho40 O65 2.669 . S
Ho40 O67 2.346 . S
Ho40 O71 2.305 . S
Ho41 C52 2.811 . S
Ho41 O61 2.346 . S
Ho41 O65 2.305 . S
Ho41 O66 2.322 . S
Ho41 O68 2.378 . S
Ho41 O69 2.524 . S
Ho41 O70 2.381 . S
Ho41 O71 2.669 . S
C42 O60 1.259 . S
C42 O61 1.268 . S
C43 Ho40 2.811 . S
C43 C44 1.488 . S
C43 O62 1.215 . S
C43 O63 1.289 . S
C44 C43 1.488 . S
C44 C45 1.348 . S
C44 C49 1.413 . S
C45 C44 1.348 . S
C45 C46 1.442 . S
C45 H72 0.930 . S
C46 C45 1.442 . S
C46 C47 1.381 . S
C46 H73 0.931 . S
C47 C46 1.381 . S
C47 C48 1.321 . S
C48 C47 1.321 . S
C48 C49 1.403 . S
C48 H74 0.934 . S
C49 C44 1.413 . S
C49 C48 1.403 . S
C49 H75 0.930 . S
C50 O64 1.275 . S
C50 O65 1.256 . S
C51 O66 1.259 . S
C51 O67 1.268 . S
C52 Ho41 2.811 . S
C52 C53 1.488 . S
C52 O68 1.215 . S
C52 O69 1.289 . S
C53 C52 1.488 . S
C53 C54 1.348 . S
C53 C58 1.413 . S
C54 C53 1.348 . S
C54 C55 1.442 . S
C54 H76 0.930 . S
C55 C54 1.442 . S
C55 C56 1.381 . S
C55 H77 0.931 . S
C56 C55 1.381 . S
C56 C57 1.321 . S
C57 C56 1.321 . S
C57 C58 1.403 . S
C57 H78 0.934 . S
C58 C53 1.413 . S
C58 C57 1.403 . S
C58 H79 0.930 . S
C59 O70 1.275 . S
C59 O71 1.256 . S
O60 Ho40 2.322 . S
O60 C42 1.259 . S
O61 Ho41 2.346 . S
O61 C42 1.268 . S
O62 Ho40 2.378 . S
O62 C43 1.215 . S
O63 Ho40 2.524 . S
O63 C43 1.289 . S
O64 Ho40 2.381 . S
O64 C50 1.275 . S
O65 Ho40 2.669 . S
O65 Ho41 2.305 . S
O65 C50 1.256 . S
O66 Ho41 2.322 . S
O66 C51 1.259 . S
O67 Ho40 2.346 . S
O67 C51 1.268 . S
O68 Ho41 2.378 . S
O68 C52 1.215 . S
O69 Ho41 2.524 . S
O69 C52 1.289 . S
O70 Ho41 2.381 . S
O70 C59 1.275 . S
O71 Ho40 2.305 . S
O71 Ho41 2.669 . S
O71 C59 1.256 . S
H72 C45 0.930 . S
H73 C46 0.931 . S
H74 C48 0.934 . S
H75 C49 0.930 . S
H76 C54 0.930 . S
H77 C55 0.931 . S
H78 C57 0.934 . S
H79 C58 0.930 . S
Ho80 C83 2.811 1_556 S
Ho80 O100 2.322 . S
Ho80 O102 2.378 . S
Ho80 O103 2.524 . S
Ho80 O104 2.381 . S
Ho80 O105 2.669 . S
Ho80 O107 2.346 . S
Ho80 O111 2.305 . S
Ho81 C92 2.811 . S
Ho81 O101 2.346 . S
Ho81 O105 2.305 . S
Ho81 O106 2.322 . S
Ho81 O108 2.378 . S
Ho81 O109 2.524 . S
Ho81 O110 2.381 . S
Ho81 O111 2.669 . S
C82 O100 1.259 . S
C82 O101 1.268 . S
C83 Ho80 2.811 1_554 S
C83 C84 1.488 . S
C83 O102 1.215 1_554 S
C83 O103 1.289 1_554 S
C84 C83 1.488 . S
C84 C85 1.348 . S
C84 C89 1.413 . S
C85 C84 1.348 . S
C85 C86 1.442 . S
C85 H112 0.930 . S
C86 C85 1.442 . S
C86 C87 1.381 . S
C86 H113 0.931 . S
C87 C86 1.381 . S
C87 C88 1.321 . S
C88 C87 1.321 . S
C88 C89 1.403 . S
C88 H114 0.934 . S
C89 C84 1.413 . S
C89 C88 1.403 . S
C89 H115 0.930 . S
C90 O104 1.275 . S
C90 O105 1.256 . S
C91 O106 1.259 . S
C91 O107 1.268 . S
C92 Ho81 2.811 . S
C92 C93 1.488 . S
C92 O108 1.215 . S
C92 O109 1.289 . S
C93 C92 1.488 . S
C93 C94 1.348 . S
C93 C98 1.413 . S
C94 C93 1.348 . S
C94 C95 1.442 . S
C94 H116 0.930 . S
C95 C94 1.442 . S
C95 C96 1.381 . S
C95 H117 0.931 . S
C96 C95 1.381 . S
C96 C97 1.321 . S
C97 C96 1.321 . S
C97 C98 1.403 . S
C97 H118 0.934 . S
C98 C93 1.413 . S
C98 C97 1.403 . S
C98 H119 0.930 . S
C99 O110 1.275 . S
C99 O111 1.256 . S
O100 Ho80 2.322 . S
O100 C82 1.259 . S
O101 Ho81 2.346 . S
O101 C82 1.268 . S
O102 Ho80 2.378 . S
O102 C83 1.215 1_556 S
O103 Ho80 2.524 . S
O103 C83 1.289 1_556 S
O104 Ho80 2.381 . S
O104 C90 1.275 . S
O105 Ho80 2.669 . S
O105 Ho81 2.305 . S
O105 C90 1.256 . S
O106 Ho81 2.322 . S
O106 C91 1.259 . S
O107 Ho80 2.346 . S
O107 C91 1.268 . S
O108 Ho81 2.378 . S
O108 C92 1.215 . S
O109 Ho81 2.524 . S
O109 C92 1.289 . S
O110 Ho81 2.381 . S
O110 C99 1.275 . S
O111 Ho80 2.305 . S
O111 Ho81 2.669 . S
O111 C99 1.256 . S
H112 C85 0.930 . S
H113 C86 0.931 . S
H114 C88 0.934 . S
H115 C89 0.930 . S
H116 C94 0.930 . S
H117 C95 0.931 . S
H118 C97 0.934 . S
H119 C98 0.930 . S
Ho120 C123 2.811 . S
Ho120 O140 2.322 . S
Ho120 O142 2.378 . S
Ho120 O143 2.524 . S
Ho120 O144 2.381 . S
Ho120 O145 2.669 . S
Ho120 O147 2.346 . S
Ho120 O151 2.305 . S
Ho121 C132 2.811 . S
Ho121 O141 2.346 . S
Ho121 O145 2.305 . S
Ho121 O146 2.322 . S
Ho121 O148 2.378 . S
Ho121 O149 2.524 . S
Ho121 O150 2.381 . S
Ho121 O151 2.669 . S
C122 O140 1.259 . S
C122 O141 1.268 . S
C123 Ho120 2.811 . S
C123 C124 1.488 . S
C123 O142 1.215 . S
C123 O143 1.289 . S
C124 C123 1.488 . S
C124 C125 1.348 . S
C124 C129 1.413 . S
C125 C124 1.348 . S
C125 C126 1.442 . S
C125 H152 0.930 . S
C126 C125 1.442 . S
C126 C127 1.381 . S
C126 H153 0.931 . S
C127 C126 1.381 . S
C127 C128 1.321 . S
C128 C127 1.321 . S
C128 C129 1.403 . S
C128 H154 0.934 . S
C129 C124 1.413 . S
C129 C128 1.403 . S
C129 H155 0.930 . S
C130 O144 1.275 . S
C130 O145 1.256 . S
C131 O146 1.259 . S
C131 O147 1.268 . S
C132 Ho121 2.811 . S
C132 C133 1.488 . S
C132 O148 1.215 . S
C132 O149 1.289 . S
C133 C132 1.488 . S
C133 C134 1.348 . S
C133 C138 1.413 . S
C134 C133 1.348 . S
C134 C135 1.442 . S
C134 H156 0.930 . S
C135 C134 1.442 . S
C135 C136 1.381 . S
C135 H157 0.931 . S
C136 C135 1.381 . S
C136 C137 1.321 . S
C137 C136 1.321 . S
C137 C138 1.403 . S
C137 H158 0.934 . S
C138 C133 1.413 . S
C138 C137 1.403 . S
C138 H159 0.930 . S
C139 O150 1.275 . S
C139 O151 1.256 . S
O140 Ho120 2.322 . S
O140 C122 1.259 . S
O141 Ho121 2.346 . S
O141 C122 1.268 . S
O142 Ho120 2.378 . S
O142 C123 1.215 . S
O143 Ho120 2.524 . S
O143 C123 1.289 . S
O144 Ho120 2.381 . S
O144 C130 1.275 . S
O145 Ho120 2.669 . S
O145 Ho121 2.305 . S
O145 C130 1.256 . S
O146 Ho121 2.322 . S
O146 C131 1.259 . S
O147 Ho120 2.346 . S
O147 C131 1.268 . S
O148 Ho121 2.378 . S
O148 C132 1.215 . S
O149 Ho121 2.524 . S
O149 C132 1.289 . S
O150 Ho121 2.381 . S
O150 C139 1.275 . S
O151 Ho120 2.305 . S
O151 Ho121 2.669 . S
O151 C139 1.256 . S
H152 C125 0.930 . S
H153 C126 0.931 . S
H154 C128 0.934 . S
H155 C129 0.930 . S
H156 C134 0.930 . S
H157 C135 0.931 . S
H158 C137 0.934 . S
H159 C138 0.930 . S
Ho160 C163 2.811 . S
Ho160 O180 2.322 . S
Ho160 O182 2.378 . S
Ho160 O183 2.524 . S
Ho160 O184 2.381 . S
Ho160 O185 2.669 . S
Ho160 O187 2.346 . S
Ho160 O191 2.305 . S
Ho161 C172 2.811 . S
Ho161 O181 2.346 . S
Ho161 O185 2.305 . S
Ho161 O186 2.322 . S
Ho161 O188 2.378 . S
Ho161 O189 2.524 . S
Ho161 O190 2.381 . S
Ho161 O191 2.669 . S
C162 O180 1.259 . S
C162 O181 1.268 . S
C163 Ho160 2.811 . S
C163 C164 1.488 . S
C163 O182 1.215 . S
C163 O183 1.289 . S
C164 C163 1.488 . S
C164 C165 1.348 . S
C164 C169 1.413 . S
C165 C164 1.348 . S
C165 C166 1.442 . S
C165 H192 0.930 . S
C166 C165 1.442 . S
C166 C167 1.381 . S
C166 H193 0.931 . S
C167 C166 1.381 . S
C167 C168 1.321 . S
C168 C167 1.321 . S
C168 C169 1.403 . S
C168 H194 0.934 . S
C169 C164 1.413 . S
C169 C168 1.403 . S
C169 H195 0.930 . S
C170 O184 1.275 . S
C170 O185 1.256 . S
C171 O186 1.259 . S
C171 O187 1.268 . S
C172 Ho161 2.811 . S
C172 C173 1.488 . S
C172 O188 1.215 . S
C172 O189 1.289 . S
C173 C172 1.488 . S
C173 C174 1.348 . S
C173 C178 1.413 . S
C174 C173 1.348 . S
C174 C175 1.442 . S
C174 H196 0.930 . S
C175 C174 1.442 . S
C175 C176 1.381 . S
C175 H197 0.931 . S
C176 C175 1.381 . S
C176 C177 1.321 . S
C177 C176 1.321 . S
C177 C178 1.403 . S
C177 H198 0.934 . S
C178 C173 1.413 . S
C178 C177 1.403 . S
C178 H199 0.930 . S
C179 O190 1.275 . S
C179 O191 1.256 . S
O180 Ho160 2.322 . S
O180 C162 1.259 . S
O181 Ho161 2.346 . S
O181 C162 1.268 . S
O182 Ho160 2.378 . S
O182 C163 1.215 . S
O183 Ho160 2.524 . S
O183 C163 1.289 . S
O184 Ho160 2.381 . S
O184 C170 1.275 . S
O185 Ho160 2.669 . S
O185 Ho161 2.305 . S
O185 C170 1.256 . S
O186 Ho161 2.322 . S
O186 C171 1.259 . S
O187 Ho160 2.346 . S
O187 C171 1.268 . S
O188 Ho161 2.378 . S
O188 C172 1.215 . S
O189 Ho161 2.524 . S
O189 C172 1.289 . S
O190 Ho161 2.381 . S
O190 C179 1.275 . S
O191 Ho160 2.305 . S
O191 Ho161 2.669 . S
O191 C179 1.256 . S
H192 C165 0.930 . S
H193 C166 0.931 . S
H194 C168 0.934 . S
H195 C169 0.930 . S
H196 C174 0.930 . S
H197 C175 0.931 . S
H198 C177 0.934 . S
H199 C178 0.930 . S
Ho200 C203 2.811 1_556 S
Ho200 O220 2.322 . S
Ho200 O222 2.378 . S
Ho200 O223 2.524 . S
Ho200 O224 2.381 . S
Ho200 O225 2.669 . S
Ho200 O227 2.346 . S
Ho200 O231 2.305 . S
Ho201 C212 2.811 . S
Ho201 O221 2.346 . S
Ho201 O225 2.305 . S
Ho201 O226 2.322 . S
Ho201 O228 2.378 . S
Ho201 O229 2.524 . S
Ho201 O230 2.381 . S
Ho201 O231 2.669 . S
C202 O220 1.259 . S
C202 O221 1.268 . S
C203 Ho200 2.811 1_554 S
C203 C204 1.488 . S
C203 O222 1.215 1_554 S
C203 O223 1.289 1_554 S
C204 C203 1.488 . S
C204 C205 1.348 . S
C204 C209 1.413 . S
C205 C204 1.348 . S
C205 C206 1.442 . S
C205 H232 0.930 . S
C206 C205 1.442 . S
C206 C207 1.381 . S
C206 H233 0.931 . S
C207 C206 1.381 . S
C207 C208 1.321 . S
C208 C207 1.321 . S
C208 C209 1.403 . S
C208 H234 0.934 . S
C209 C204 1.413 . S
C209 C208 1.403 . S
C209 H235 0.930 . S
C210 O224 1.275 . S
C210 O225 1.256 . S
C211 O226 1.259 . S
C211 O227 1.268 . S
C212 Ho201 2.811 . S
C212 C213 1.488 . S
C212 O228 1.215 . S
C212 O229 1.289 . S
C213 C212 1.488 . S
C213 C214 1.348 . S
C213 C218 1.413 . S
C214 C213 1.348 . S
C214 C215 1.442 . S
C214 H236 0.930 . S
C215 C214 1.442 . S
C215 C216 1.381 . S
C215 H237 0.931 . S
C216 C215 1.381 . S
C216 C217 1.321 . S
C217 C216 1.321 . S
C217 C218 1.403 . S
C217 H238 0.934 . S
C218 C213 1.413 . S
C218 C217 1.403 . S
C218 H239 0.930 . S
C219 O230 1.275 . S
C219 O231 1.256 . S
O220 Ho200 2.322 . S
O220 C202 1.259 . S
O221 Ho201 2.346 . S
O221 C202 1.268 . S
O222 Ho200 2.378 . S
O222 C203 1.215 1_556 S
O223 Ho200 2.524 . S
O223 C203 1.289 1_556 S
O224 Ho200 2.381 . S
O224 C210 1.275 . S
O225 Ho200 2.669 . S
O225 Ho201 2.305 . S
O225 C210 1.256 . S
O226 Ho201 2.322 . S
O226 C211 1.259 . S
O227 Ho200 2.346 . S
O227 C211 1.268 . S
O228 Ho201 2.378 . S
O228 C212 1.215 . S
O229 Ho201 2.524 . S
O229 C212 1.289 . S
O230 Ho201 2.381 . S
O230 C219 1.275 . S
O231 Ho200 2.305 . S
O231 Ho201 2.669 . S
O231 C219 1.256 . S
H232 C205 0.930 . S
H233 C206 0.931 . S
H234 C208 0.934 . S
H235 C209 0.930 . S
H236 C214 0.930 . S
H237 C215 0.931 . S
H238 C217 0.934 . S
H239 C218 0.930 . S
Ho240 C243 2.811 . S
Ho240 O260 2.322 . S
Ho240 O262 2.378 . S
Ho240 O263 2.524 . S
Ho240 O264 2.381 . S
Ho240 O265 2.669 . S
Ho240 O267 2.346 . S
Ho240 O271 2.305 . S
Ho241 C252 2.811 . S
Ho241 O261 2.346 . S
Ho241 O265 2.305 . S
Ho241 O266 2.322 . S
Ho241 O268 2.378 . S
Ho241 O269 2.524 . S
Ho241 O270 2.381 . S
Ho241 O271 2.669 . S
C242 O260 1.259 . S
C242 O261 1.268 . S
C243 Ho240 2.811 . S
C243 C244 1.488 . S
C243 O262 1.215 . S
C243 O263 1.289 . S
C244 C243 1.488 . S
C244 C245 1.348 . S
C244 C249 1.413 . S
C245 C244 1.348 . S
C245 C246 1.442 . S
C245 H272 0.930 . S
C246 C245 1.442 . S
C246 C247 1.381 . S
C246 H273 0.931 . S
C247 C246 1.381 . S
C247 C248 1.321 . S
C248 C247 1.321 . S
C248 C249 1.403 . S
C248 H274 0.934 . S
C249 C244 1.413 . S
C249 C248 1.403 . S
C249 H275 0.930 . S
C250 O264 1.275 . S
C250 O265 1.256 . S
C251 O266 1.259 . S
C251 O267 1.268 . S
C252 Ho241 2.811 . S
C252 C253 1.488 . S
C252 O268 1.215 . S
C252 O269 1.289 . S
C253 C252 1.488 . S
C253 C254 1.348 . S
C253 C258 1.413 . S
C254 C253 1.348 . S
C254 C255 1.442 . S
C254 H276 0.930 . S
C255 C254 1.442 . S
C255 C256 1.381 . S
C255 H277 0.931 . S
C256 C255 1.381 . S
C256 C257 1.321 . S
C257 C256 1.321 . S
C257 C258 1.403 . S
C257 H278 0.934 . S
C258 C253 1.413 . S
C258 C257 1.403 . S
C258 H279 0.930 . S
C259 O270 1.275 . S
C259 O271 1.256 . S
O260 Ho240 2.322 . S
O260 C242 1.259 . S
O261 Ho241 2.346 . S
O261 C242 1.268 . S
O262 Ho240 2.378 . S
O262 C243 1.215 . S
O263 Ho240 2.524 . S
O263 C243 1.289 . S
O264 Ho240 2.381 . S
O264 C250 1.275 . S
O265 Ho240 2.669 . S
O265 Ho241 2.305 . S
O265 C250 1.256 . S
O266 Ho241 2.322 . S
O266 C251 1.259 . S
O267 Ho240 2.346 . S
O267 C251 1.268 . S
O268 Ho241 2.378 . S
O268 C252 1.215 . S
O269 Ho241 2.524 . S
O269 C252 1.289 . S
O270 Ho241 2.381 . S
O270 C259 1.275 . S
O271 Ho240 2.305 . S
O271 Ho241 2.669 . S
O271 C259 1.256 . S
H272 C245 0.930 . S
H273 C246 0.931 . S
H274 C248 0.934 . S
H275 C249 0.930 . S
H276 C254 0.930 . S
H277 C255 0.931 . S
H278 C257 0.934 . S
H279 C258 0.930 . S
Ho280 C283 2.811 . S
Ho280 O300 2.322 . S
Ho280 O302 2.378 . S
Ho280 O303 2.524 . S
Ho280 O304 2.381 . S
Ho280 O305 2.669 . S
Ho280 O307 2.346 . S
Ho280 O311 2.305 . S
Ho281 C292 2.811 . S
Ho281 O301 2.346 . S
Ho281 O305 2.305 . S
Ho281 O306 2.322 . S
Ho281 O308 2.378 . S
Ho281 O309 2.524 . S
Ho281 O310 2.381 . S
Ho281 O311 2.669 . S
C282 O300 1.259 . S
C282 O301 1.268 . S
C283 Ho280 2.811 . S
C283 C284 1.488 . S
C283 O302 1.215 . S
C283 O303 1.289 . S
C284 C283 1.488 . S
C284 C285 1.348 . S
C284 C289 1.413 . S
C285 C284 1.348 . S
C285 C286 1.442 . S
C285 H312 0.930 . S
C286 C285 1.442 . S
C286 C287 1.381 . S
C286 H313 0.931 . S
C287 C286 1.381 . S
C287 C288 1.321 . S
C288 C287 1.321 . S
C288 C289 1.403 . S
C288 H314 0.934 . S
C289 C284 1.413 . S
C289 C288 1.403 . S
C289 H315 0.930 . S
C290 O304 1.275 . S
C290 O305 1.256 . S
C291 O306 1.259 . S
C291 O307 1.268 . S
C292 Ho281 2.811 . S
C292 C293 1.488 . S
C292 O308 1.215 . S
C292 O309 1.289 . S
C293 C292 1.488 . S
C293 C294 1.348 . S
C293 C298 1.413 . S
C294 C293 1.348 . S
C294 C295 1.442 . S
C294 H316 0.930 . S
C295 C294 1.442 . S
C295 C296 1.381 . S
C295 H317 0.931 . S
C296 C295 1.381 . S
C296 C297 1.321 . S
C297 C296 1.321 . S
C297 C298 1.403 . S
C297 H318 0.934 . S
C298 C293 1.413 . S
C298 C297 1.403 . S
C298 H319 0.930 . S
C299 O310 1.275 . S
C299 O311 1.256 . S
O300 Ho280 2.322 . S
O300 C282 1.259 . S
O301 Ho281 2.346 . S
O301 C282 1.268 . S
O302 Ho280 2.378 . S
O302 C283 1.215 . S
O303 Ho280 2.524 . S
O303 C283 1.289 . S
O304 Ho280 2.381 . S
O304 C290 1.275 . S
O305 Ho280 2.669 . S
O305 Ho281 2.305 . S
O305 C290 1.256 . S
O306 Ho281 2.322 . S
O306 C291 1.259 . S
O307 Ho280 2.346 . S
O307 C291 1.268 . S
O308 Ho281 2.378 . S
O308 C292 1.215 . S
O309 Ho281 2.524 . S
O309 C292 1.289 . S
O310 Ho281 2.381 . S
O310 C299 1.275 . S
O311 Ho280 2.305 . S
O311 Ho281 2.669 . S
O311 C299 1.256 . S
H312 C285 0.930 . S
H313 C286 0.931 . S
H314 C288 0.934 . S
H315 C289 0.930 . S
H316 C294 0.930 . S
H317 C295 0.931 . S
H318 C297 0.934 . S
H319 C298 0.930 . S
Ho320 C323 2.811 1_554 S
Ho320 O340 2.322 . S
Ho320 O342 2.378 . S
Ho320 O343 2.524 . S
Ho320 O344 2.381 . S
Ho320 O345 2.669 . S
Ho320 O347 2.346 . S
Ho320 O351 2.305 . S
Ho321 C332 2.811 . S
Ho321 O341 2.346 . S
Ho321 O345 2.305 . S
Ho321 O346 2.322 . S
Ho321 O348 2.378 . S
Ho321 O349 2.524 . S
Ho321 O350 2.381 . S
Ho321 O351 2.669 . S
C322 O340 1.259 . S
C322 O341 1.268 . S
C323 Ho320 2.811 1_556 S
C323 C324 1.488 . S
C323 O342 1.215 1_556 S
C323 O343 1.289 1_556 S
C324 C323 1.488 . S
C324 C325 1.348 . S
C324 C329 1.413 . S
C325 C324 1.348 . S
C325 C326 1.442 . S
C325 H352 0.930 . S
C326 C325 1.442 . S
C326 C327 1.381 . S
C326 H353 0.931 . S
C327 C326 1.381 . S
C327 C328 1.321 . S
C328 C327 1.321 . S
C328 C329 1.403 . S
C328 H354 0.934 . S
C329 C324 1.413 . S
C329 C328 1.403 . S
C329 H355 0.930 . S
C330 O344 1.275 . S
C330 O345 1.256 . S
C331 O346 1.259 . S
C331 O347 1.268 . S
C332 Ho321 2.811 . S
C332 C333 1.488 . S
C332 O348 1.215 . S
C332 O349 1.289 . S
C333 C332 1.488 . S
C333 C334 1.348 . S
C333 C338 1.413 . S
C334 C333 1.348 . S
C334 C335 1.442 . S
C334 H356 0.930 . S
C335 C334 1.442 . S
C335 C336 1.381 . S
C335 H357 0.931 . S
C336 C335 1.381 . S
C336 C337 1.321 . S
C337 C336 1.321 . S
C337 C338 1.403 . S
C337 H358 0.934 . S
C338 C333 1.413 . S
C338 C337 1.403 . S
C338 H359 0.930 . S
C339 O350 1.275 . S
C339 O351 1.256 . S
O340 Ho320 2.322 . S
O340 C322 1.259 . S
O341 Ho321 2.346 . S
O341 C322 1.268 . S
O342 Ho320 2.378 . S
O342 C323 1.215 1_554 S
O343 Ho320 2.524 . S
O343 C323 1.289 1_554 S
O344 Ho320 2.381 . S
O344 C330 1.275 . S
O345 Ho320 2.669 . S
O345 Ho321 2.305 . S
O345 C330 1.256 . S
O346 Ho321 2.322 . S
O346 C331 1.259 . S
O347 Ho320 2.346 . S
O347 C331 1.268 . S
O348 Ho321 2.378 . S
O348 C332 1.215 . S
O349 Ho321 2.524 . S
O349 C332 1.289 . S
O350 Ho321 2.381 . S
O350 C339 1.275 . S
O351 Ho320 2.305 . S
O351 Ho321 2.669 . S
O351 C339 1.256 . S
H352 C325 0.930 . S
H353 C326 0.931 . S
H354 C328 0.934 . S
H355 C329 0.930 . S
H356 C334 0.930 . S
H357 C335 0.931 . S
H358 C337 0.934 . S
H359 C338 0.930 . S
Ho360 C363 2.811 . S
Ho360 O380 2.322 . S
Ho360 O382 2.378 . S
Ho360 O383 2.524 . S
Ho360 O384 2.381 . S
Ho360 O385 2.669 . S
Ho360 O387 2.346 . S
Ho360 O391 2.305 . S
Ho361 C372 2.811 . S
Ho361 O381 2.346 . S
Ho361 O385 2.305 . S
Ho361 O386 2.322 . S
Ho361 O388 2.378 . S
Ho361 O389 2.524 . S
Ho361 O390 2.381 . S
Ho361 O391 2.669 . S
C362 O380 1.259 . S
C362 O381 1.268 . S
C363 Ho360 2.811 . S
C363 C364 1.488 . S
C363 O382 1.215 . S
C363 O383 1.289 . S
C364 C363 1.488 . S
C364 C365 1.348 . S
C364 C369 1.413 . S
C365 C364 1.348 . S
C365 C366 1.442 . S
C365 H392 0.930 . S
C366 C365 1.442 . S
C366 C367 1.381 . S
C366 H393 0.931 . S
C367 C366 1.381 . S
C367 C368 1.321 . S
C368 C367 1.321 . S
C368 C369 1.403 . S
C368 H394 0.934 . S
C369 C364 1.413 . S
C369 C368 1.403 . S
C369 H395 0.930 . S
C370 O384 1.275 . S
C370 O385 1.256 . S
C371 O386 1.259 . S
C371 O387 1.268 . S
C372 Ho361 2.811 . S
C372 C373 1.488 . S
C372 O388 1.215 . S
C372 O389 1.289 . S
C373 C372 1.488 . S
C373 C374 1.348 . S
C373 C378 1.413 . S
C374 C373 1.348 . S
C374 C375 1.442 . S
C374 H396 0.930 . S
C375 C374 1.442 . S
C375 C376 1.381 . S
C375 H397 0.931 . S
C376 C375 1.381 . S
C376 C377 1.321 . S
C377 C376 1.321 . S
C377 C378 1.403 . S
C377 H398 0.934 . S
C378 C373 1.413 . S
C378 C377 1.403 . S
C378 H399 0.930 . S
C379 O390 1.275 . S
C379 O391 1.256 . S
O380 Ho360 2.322 . S
O380 C362 1.259 . S
O381 Ho361 2.346 . S
O381 C362 1.268 . S
O382 Ho360 2.378 . S
O382 C363 1.215 . S
O383 Ho360 2.524 . S
O383 C363 1.289 . S
O384 Ho360 2.381 . S
O384 C370 1.275 . S
O385 Ho360 2.669 . S
O385 Ho361 2.305 . S
O385 C370 1.256 . S
O386 Ho361 2.322 . S
O386 C371 1.259 . S
O387 Ho360 2.346 . S
O387 C371 1.268 . S
O388 Ho361 2.378 . S
O388 C372 1.215 . S
O389 Ho361 2.524 . S
O389 C372 1.289 . S
O390 Ho361 2.381 . S
O390 C379 1.275 . S
O391 Ho360 2.305 . S
O391 Ho361 2.669 . S
O391 C379 1.256 . S
H392 C365 0.930 . S
H393 C366 0.931 . S
H394 C368 0.934 . S
H395 C369 0.930 . S
H396 C374 0.930 . S
H397 C375 0.931 . S
H398 C377 0.934 . S
H399 C378 0.930 . S
Ho400 C403 2.811 . S
Ho400 O420 2.322 . S
Ho400 O422 2.378 . S
Ho400 O423 2.524 . S
Ho400 O424 2.381 . S
Ho400 O425 2.669 . S
Ho400 O427 2.346 . S
Ho400 O431 2.305 . S
Ho401 C412 2.811 . S
Ho401 O421 2.346 . S
Ho401 O425 2.305 . S
Ho401 O426 2.322 . S
Ho401 O428 2.378 . S
Ho401 O429 2.524 . S
Ho401 O430 2.381 . S
Ho401 O431 2.669 . S
C402 O420 1.259 . S
C402 O421 1.268 . S
C403 Ho400 2.811 . S
C403 C404 1.488 . S
C403 O422 1.215 . S
C403 O423 1.289 . S
C404 C403 1.488 . S
C404 C405 1.348 . S
C404 C409 1.413 . S
C405 C404 1.348 . S
C405 C406 1.442 . S
C405 H432 0.930 . S
C406 C405 1.442 . S
C406 C407 1.381 . S
C406 H433 0.931 . S
C407 C406 1.381 . S
C407 C408 1.321 . S
C408 C407 1.321 . S
C408 C409 1.403 . S
C408 H434 0.934 . S
C409 C404 1.413 . S
C409 C408 1.403 . S
C409 H435 0.930 . S
C410 O424 1.275 . S
C410 O425 1.256 . S
C411 O426 1.259 . S
C411 O427 1.268 . S
C412 Ho401 2.811 . S
C412 C413 1.488 . S
C412 O428 1.215 . S
C412 O429 1.289 . S
C413 C412 1.488 . S
C413 C414 1.348 . S
C413 C418 1.413 . S
C414 C413 1.348 . S
C414 C415 1.442 . S
C414 H436 0.930 . S
C415 C414 1.442 . S
C415 C416 1.381 . S
C415 H437 0.931 . S
C416 C415 1.381 . S
C416 C417 1.321 . S
C417 C416 1.321 . S
C417 C418 1.403 . S
C417 H438 0.934 . S
C418 C413 1.413 . S
C418 C417 1.403 . S
C418 H439 0.930 . S
C419 O430 1.275 . S
C419 O431 1.256 . S
O420 Ho400 2.322 . S
O420 C402 1.259 . S
O421 Ho401 2.346 . S
O421 C402 1.268 . S
O422 Ho400 2.378 . S
O422 C403 1.215 . S
O423 Ho400 2.524 . S
O423 C403 1.289 . S
O424 Ho400 2.381 . S
O424 C410 1.275 . S
O425 Ho400 2.669 . S
O425 Ho401 2.305 . S
O425 C410 1.256 . S
O426 Ho401 2.322 . S
O426 C411 1.259 . S
O427 Ho400 2.346 . S
O427 C411 1.268 . S
O428 Ho401 2.378 . S
O428 C412 1.215 . S
O429 Ho401 2.524 . S
O429 C412 1.289 . S
O430 Ho401 2.381 . S
O430 C419 1.275 . S
O431 Ho400 2.305 . S
O431 Ho401 2.669 . S
O431 C419 1.256 . S
H432 C405 0.930 . S
H433 C406 0.931 . S
H434 C408 0.934 . S
H435 C409 0.930 . S
H436 C414 0.930 . S
H437 C415 0.931 . S
H438 C417 0.934 . S
H439 C418 0.930 . S
Ho440 C443 2.811 1_554 S
Ho440 O460 2.322 . S
Ho440 O462 2.378 . S
Ho440 O463 2.524 . S
Ho440 O464 2.381 . S
Ho440 O465 2.669 . S
Ho440 O467 2.346 . S
Ho440 O471 2.305 . S
Ho441 C452 2.811 . S
Ho441 O461 2.346 . S
Ho441 O465 2.305 . S
Ho441 O466 2.322 . S
Ho441 O468 2.378 . S
Ho441 O469 2.524 . S
Ho441 O470 2.381 . S
Ho441 O471 2.669 . S
C442 O460 1.259 . S
C442 O461 1.268 . S
C443 Ho440 2.811 1_556 S
C443 C444 1.488 . S
C443 O462 1.215 1_556 S
C443 O463 1.289 1_556 S
C444 C443 1.488 . S
C444 C445 1.348 . S
C444 C449 1.413 . S
C445 C444 1.348 . S
C445 C446 1.442 . S
C445 H472 0.930 . S
C446 C445 1.442 . S
C446 C447 1.381 . S
C446 H473 0.931 . S
C447 C446 1.381 . S
C447 C448 1.321 . S
C448 C447 1.321 . S
C448 C449 1.403 . S
C448 H474 0.934 . S
C449 C444 1.413 . S
C449 C448 1.403 . S
C449 H475 0.930 . S
C450 O464 1.275 . S
C450 O465 1.256 . S
C451 O466 1.259 . S
C451 O467 1.268 . S
C452 Ho441 2.811 . S
C452 C453 1.488 . S
C452 O468 1.215 . S
C452 O469 1.289 . S
C453 C452 1.488 . S
C453 C454 1.348 . S
C453 C458 1.413 . S
C454 C453 1.348 . S
C454 C455 1.442 . S
C454 H476 0.930 . S
C455 C454 1.442 . S
C455 C456 1.381 . S
C455 H477 0.931 . S
C456 C455 1.381 . S
C456 C457 1.321 . S
C457 C456 1.321 . S
C457 C458 1.403 . S
C457 H478 0.934 . S
C458 C453 1.413 . S
C458 C457 1.403 . S
C458 H479 0.930 . S
C459 O470 1.275 . S
C459 O471 1.256 . S
O460 Ho440 2.322 . S
O460 C442 1.259 . S
O461 Ho441 2.346 . S
O461 C442 1.268 . S
O462 Ho440 2.378 . S
O462 C443 1.215 1_554 S
O463 Ho440 2.524 . S
O463 C443 1.289 1_554 S
O464 Ho440 2.381 . S
O464 C450 1.275 . S
O465 Ho440 2.669 . S
O465 Ho441 2.305 . S
O465 C450 1.256 . S
O466 Ho441 2.322 . S
O466 C451 1.259 . S
O467 Ho440 2.346 . S
O467 C451 1.268 . S
O468 Ho441 2.378 . S
O468 C452 1.215 . S
O469 Ho441 2.524 . S
O469 C452 1.289 . S
O470 Ho441 2.381 . S
O470 C459 1.275 . S
O471 Ho440 2.305 . S
O471 Ho441 2.669 . S
O471 C459 1.256 . S
H472 C445 0.930 . S
H473 C446 0.931 . S
H474 C448 0.934 . S
H475 C449 0.930 . S
H476 C454 0.930 . S
H477 C455 0.931 . S
H478 C457 0.934 . S
H479 C458 0.930 . S
H480 C488 0.950 . S
H481 C493 0.950 . S
H482 C490 0.950 . S
H483 C492 0.950 . S
H484 C494 0.950 . S
H485 C496 0.950 . S
H486 C498 0.950 . S
H487 C499 0.950 . S
C488 H480 0.950 . S
C488 C489 1.386 . S
C488 C490 1.391 . S
C489 C488 1.386 . S
C489 C493 1.393 . S
C490 H482 0.950 . S
C490 C488 1.391 . S
C490 C491 1.400 . S
C491 C490 1.400 . S
C491 C492 1.398 . S
C491 C497 1.491 . S
C492 H483 0.950 . S
C492 C491 1.398 . S
C492 C493 1.391 . S
C493 H481 0.950 . S
C493 C489 1.393 . S
C493 C492 1.391 . S
C494 H484 0.950 . S
C494 C495 1.386 . S
C494 C496 1.391 . S
C495 C494 1.386 . S
C495 C499 1.393 . S
C496 H485 0.950 . S
C496 C494 1.391 . S
C496 C497 1.400 . S
C497 C491 1.491 . S
C497 C496 1.400 . S
C497 C498 1.398 . S
C498 H486 0.950 . S
C498 C497 1.398 . S
C498 C499 1.391 . S
C499 H487 0.950 . S
C499 C495 1.393 . S
C499 C498 1.391 . S
H500 C508 0.950 . S
H501 C513 0.950 . S
H502 C510 0.950 . S
H503 C512 0.950 . S
H504 C514 0.950 . S
H505 C516 0.950 . S
H506 C518 0.950 . S
H507 C519 0.950 . S
C508 H500 0.950 . S
C508 C509 1.386 . S
C508 C510 1.391 . S
C509 C508 1.386 . S
C509 C513 1.393 . S
C510 H502 0.950 . S
C510 C508 1.391 . S
C510 C511 1.400 . S
C511 C510 1.400 . S
C511 C512 1.398 . S
C511 C517 1.491 . S
C512 H503 0.950 . S
C512 C511 1.398 . S
C512 C513 1.391 . S
C513 H501 0.950 . S
C513 C509 1.393 . S
C513 C512 1.391 . S
C514 H504 0.950 . S
C514 C515 1.386 . S
C514 C516 1.391 . S
C515 C514 1.386 . S
C515 C519 1.393 . S
C516 H505 0.950 . S
C516 C514 1.391 . S
C516 C517 1.400 . S
C517 C511 1.491 . S
C517 C516 1.400 . S
C517 C518 1.398 . S
C518 H506 0.950 . S
C518 C517 1.398 . S
C518 C519 1.391 . S
C519 H507 0.950 . S
C519 C515 1.393 . S
C519 C518 1.391 . S
H520 C528 0.950 . S
H521 C533 0.950 . S
H522 C530 0.950 . S
H523 C532 0.950 . S
H524 C534 0.950 . S
H525 C536 0.950 . S
H526 C538 0.950 . S
H527 C539 0.950 . S
C528 H520 0.950 . S
C528 C529 1.386 . S
C528 C530 1.391 . S
C529 C528 1.386 . S
C529 C533 1.393 . S
C530 H522 0.950 . S
C530 C528 1.391 . S
C530 C531 1.400 . S
C531 C530 1.400 . S
C531 C532 1.398 . S
C531 C537 1.491 . S
C532 H523 0.950 . S
C532 C531 1.398 . S
C532 C533 1.391 . S
C533 H521 0.950 . S
C533 C529 1.393 . S
C533 C532 1.391 . S
C534 H524 0.950 . S
C534 C535 1.386 . S
C534 C536 1.391 . S
C535 C534 1.386 . S
C535 C539 1.393 . S
C536 H525 0.950 . S
C536 C534 1.391 . S
C536 C537 1.400 . S
C537 C531 1.491 . S
C537 C536 1.400 . S
C537 C538 1.398 . S
C538 H526 0.950 . S
C538 C537 1.398 . S
C538 C539 1.391 . S
C539 H527 0.950 . S
C539 C535 1.393 . S
C539 C538 1.391 . S
H540 C548 0.950 . S
H541 C553 0.950 . S
H542 C550 0.950 . S
H543 C552 0.950 . S
H544 C554 0.950 . S
H545 C556 0.950 . S
H546 C558 0.950 . S
H547 C559 0.950 . S
C548 H540 0.950 . S
C548 C549 1.386 . S
C548 C550 1.391 . S
C549 C548 1.386 . S
C549 C553 1.393 . S
C550 H542 0.950 . S
C550 C548 1.391 . S
C550 C551 1.400 . S
C551 C550 1.400 . S
C551 C552 1.398 . S
C551 C557 1.491 . S
C552 H543 0.950 . S
C552 C551 1.398 . S
C552 C553 1.391 . S
C553 H541 0.950 . S
C553 C549 1.393 . S
C553 C552 1.391 . S
C554 H544 0.950 . S
C554 C555 1.386 . S
C554 C556 1.391 . S
C555 C554 1.386 . S
C555 C559 1.393 . S
C556 H545 0.950 . S
C556 C554 1.391 . S
C556 C557 1.400 . S
C557 C551 1.491 . S
C557 C556 1.400 . S
C557 C558 1.398 . S
C558 H546 0.950 . S
C558 C557 1.398 . S
C558 C559 1.391 . S
C559 H547 0.950 . S
C559 C555 1.393 . S
C559 C558 1.391 . S
H560 C568 0.950 . S
H561 C573 0.950 . S
H562 C570 0.950 . S
H563 C572 0.950 . S
H564 C574 0.950 . S
H565 C576 0.950 . S
H566 C578 0.950 . S
H567 C579 0.950 . S
C568 H560 0.950 . S
C568 C569 1.386 . S
C568 C570 1.391 . S
C569 C568 1.386 . S
C569 C573 1.393 . S
C570 H562 0.950 . S
C570 C568 1.391 . S
C570 C571 1.400 . S
C571 C570 1.400 . S
C571 C572 1.398 . S
C571 C577 1.491 . S
C572 H563 0.950 . S
C572 C571 1.398 . S
C572 C573 1.391 . S
C573 H561 0.950 . S
C573 C569 1.393 . S
C573 C572 1.391 . S
C574 H564 0.950 . S
C574 C575 1.386 . S
C574 C576 1.391 . S
C575 C574 1.386 . S
C575 C579 1.393 . S
C576 H565 0.950 . S
C576 C574 1.391 . S
C576 C577 1.400 . S
C577 C571 1.491 . S
C577 C576 1.400 . S
C577 C578 1.398 . S
C578 H566 0.950 . S
C578 C577 1.398 . S
C578 C579 1.391 . S
C579 H567 0.950 . S
C579 C575 1.393 . S
C579 C578 1.391 . S
H580 C588 0.950 . S
H581 C593 0.950 . S
H582 C590 0.950 . S
H583 C592 0.950 . S
H584 C594 0.950 . S
H585 C596 0.950 . S
H586 C598 0.950 . S
H587 C599 0.950 . S
C588 H580 0.950 . S
C588 C589 1.386 . S
C588 C590 1.391 . S
C589 C588 1.386 . S
C589 C593 1.393 . S
C590 H582 0.950 . S
C590 C588 1.391 . S
C590 C591 1.400 . S
C591 C590 1.400 . S
C591 C592 1.398 . S
C591 C597 1.491 . S
C592 H583 0.950 . S
C592 C591 1.398 . S
C592 C593 1.391 . S
C593 H581 0.950 . S
C593 C589 1.393 . S
C593 C592 1.391 . S
C594 H584 0.950 . S
C594 C595 1.386 . S
C594 C596 1.391 . S
C595 C594 1.386 . S
C595 C599 1.393 . S
C596 H585 0.950 . S
C596 C594 1.391 . S
C596 C597 1.400 . S
C597 C591 1.491 . S
C597 C596 1.400 . S
C597 C598 1.398 . S
C598 H586 0.950 . S
C598 C597 1.398 . S
C598 C599 1.391 . S
C599 H587 0.950 . S
C599 C595 1.393 . S
C599 C598 1.391 . S
H600 C608 0.950 . S
H601 C613 0.950 . S
H602 C610 0.950 1_554 S
H603 C612 0.950 . S
H604 C614 0.950 . S
H605 C616 0.950 1_556 S
H606 C618 0.950 . S
H607 C619 0.950 . S
C608 H600 0.950 . S
C608 C609 1.386 . S
C608 C610 1.391 . S
C609 C608 1.386 . S
C609 C613 1.393 . S
C610 H602 0.950 1_556 S
C610 C608 1.391 . S
C610 C611 1.400 . S
C611 C610 1.400 . S
C611 C612 1.398 . S
C611 C617 1.491 1_556 S
C612 H603 0.950 . S
C612 C611 1.398 . S
C612 C613 1.391 . S
C613 H601 0.950 . S
C613 C609 1.393 . S
C613 C612 1.391 . S
C614 H604 0.950 . S
C614 C615 1.386 . S
C614 C616 1.391 . S
C615 C614 1.386 . S
C615 C619 1.393 . S
C616 H605 0.950 1_554 S
C616 C614 1.391 . S
C616 C617 1.400 . S
C617 C611 1.491 1_554 S
C617 C616 1.400 . S
C617 C618 1.398 . S
C618 H606 0.950 . S
C618 C617 1.398 . S
C618 C619 1.391 . S
C619 H607 0.950 . S
C619 C615 1.393 . S
C619 C618 1.391 . S
H620 C628 0.950 . S
H621 C633 0.950 . S
H622 C630 0.950 . S
H623 C632 0.950 . S
H624 C634 0.950 . S
H625 C636 0.950 . S
H626 C638 0.950 . S
H627 C639 0.950 . S
C628 H620 0.950 . S
C628 C629 1.386 . S
C628 C630 1.391 . S
C629 C628 1.386 . S
C629 C633 1.393 . S
C630 H622 0.950 . S
C630 C628 1.391 . S
C630 C631 1.400 . S
C631 C630 1.400 . S
C631 C632 1.398 . S
C631 C637 1.491 . S
C632 H623 0.950 . S
C632 C631 1.398 . S
C632 C633 1.391 . S
C633 H621 0.950 . S
C633 C629 1.393 . S
C633 C632 1.391 . S
C634 H624 0.950 . S
C634 C635 1.386 . S
C634 C636 1.391 . S
C635 C634 1.386 . S
C635 C639 1.393 . S
C636 H625 0.950 . S
C636 C634 1.391 . S
C636 C637 1.400 . S
C637 C631 1.491 . S
C637 C636 1.400 . S
C637 C638 1.398 . S
C638 H626 0.950 . S
C638 C637 1.398 . S
C638 C639 1.391 . S
C639 H627 0.950 . S
C639 C635 1.393 . S
C639 C638 1.391 . S
H640 C648 0.950 . S
H641 C653 0.950 . S
H642 C650 0.950 . S
H643 C652 0.950 . S
H644 C654 0.950 . S
H645 C656 0.950 . S
H646 C658 0.950 . S
H647 C659 0.950 . S
C648 H640 0.950 . S
C648 C649 1.386 . S
C648 C650 1.391 . S
C649 C648 1.386 . S
C649 C653 1.393 . S
C650 H642 0.950 . S
C650 C648 1.391 . S
C650 C651 1.400 . S
C651 C650 1.400 . S
C651 C652 1.398 . S
C651 C657 1.491 . S
C652 H643 0.950 . S
C652 C651 1.398 . S
C652 C653 1.391 . S
C653 H641 0.950 . S
C653 C649 1.393 . S
C653 C652 1.391 . S
C654 H644 0.950 . S
C654 C655 1.386 . S
C654 C656 1.391 . S
C655 C654 1.386 . S
C655 C659 1.393 . S
C656 H645 0.950 . S
C656 C654 1.391 . S
C656 C657 1.400 . S
C657 C651 1.491 . S
C657 C656 1.400 . S
C657 C658 1.398 . S
C658 H646 0.950 . S
C658 C657 1.398 . S
C658 C659 1.391 . S
C659 H647 0.950 . S
C659 C655 1.393 . S
C659 C658 1.391 . S
H660 C668 0.950 . S
H661 C673 0.950 . S
H662 C670 0.950 . S
H663 C672 0.950 1_554 S
H664 C674 0.950 . S
H665 C676 0.950 . S
H666 C678 0.950 1_556 S
H667 C679 0.950 . S
C668 H660 0.950 . S
C668 C669 1.386 . S
C668 C670 1.391 . S
C669 C668 1.386 . S
C669 C673 1.393 . S
C670 H662 0.950 . S
C670 C668 1.391 . S
C670 C671 1.400 . S
C671 C670 1.400 . S
C671 C672 1.398 . S
C671 C677 1.491 1_556 S
C672 H663 0.950 1_556 S
C672 C671 1.398 . S
C672 C673 1.391 . S
C673 H661 0.950 . S
C673 C669 1.393 . S
C673 C672 1.391 . S
C674 H664 0.950 . S
C674 C675 1.386 . S
C674 C676 1.391 . S
C675 C674 1.386 . S
C675 C679 1.393 . S
C676 H665 0.950 . S
C676 C674 1.391 . S
C676 C677 1.400 . S
C677 C671 1.491 1_554 S
C677 C676 1.400 . S
C677 C678 1.398 . S
C678 H666 0.950 1_554 S
C678 C677 1.398 . S
C678 C679 1.391 . S
C679 H667 0.950 . S
C679 C675 1.393 . S
C679 C678 1.391 . S
H680 C688 0.950 . S
H681 C693 0.950 . S
H682 C690 0.950 . S
H683 C692 0.950 . S
H684 C694 0.950 . S
H685 C696 0.950 . S
H686 C698 0.950 . S
H687 C699 0.950 . S
C688 H680 0.950 . S
C688 C689 1.386 . S
C688 C690 1.391 . S
C689 C688 1.386 . S
C689 C693 1.393 . S
C690 H682 0.950 . S
C690 C688 1.391 . S
C690 C691 1.400 . S
C691 C690 1.400 . S
C691 C692 1.398 . S
C691 C697 1.491 . S
C692 H683 0.950 . S
C692 C691 1.398 . S
C692 C693 1.391 . S
C693 H681 0.950 . S
C693 C689 1.393 . S
C693 C692 1.391 . S
C694 H684 0.950 . S
C694 C695 1.386 . S
C694 C696 1.391 . S
C695 C694 1.386 . S
C695 C699 1.393 . S
C696 H685 0.950 . S
C696 C694 1.391 . S
C696 C697 1.400 . S
C697 C691 1.491 . S
C697 C696 1.400 . S
C697 C698 1.398 . S
C698 H686 0.950 . S
C698 C697 1.398 . S
C698 C699 1.391 . S
C699 H687 0.950 . S
C699 C695 1.393 . S
C699 C698 1.391 . S
H700 C708 0.950 . S
H701 C713 0.950 . S
H702 C710 0.950 . S
H703 C712 0.950 . S
H704 C714 0.950 . S
H705 C716 0.950 . S
H706 C718 0.950 . S
H707 C719 0.950 . S
C708 H700 0.950 . S
C708 C709 1.386 . S
C708 C710 1.391 . S
C709 C708 1.386 . S
C709 C713 1.393 . S
C710 H702 0.950 . S
C710 C708 1.391 . S
C710 C711 1.400 . S
C711 C710 1.400 . S
C711 C712 1.398 . S
C711 C717 1.491 . S
C712 H703 0.950 . S
C712 C711 1.398 . S
C712 C713 1.391 . S
C713 H701 0.950 . S
C713 C709 1.393 . S
C713 C712 1.391 . S
C714 H704 0.950 . S
C714 C715 1.386 . S
C714 C716 1.391 . S
C715 C714 1.386 . S
C715 C719 1.393 . S
C716 H705 0.950 . S
C716 C714 1.391 . S
C716 C717 1.400 . S
C717 C711 1.491 . S
C717 C716 1.400 . S
C717 C718 1.398 . S
C718 H706 0.950 . S
C718 C717 1.398 . S
C718 C719 1.391 . S
C719 H707 0.950 . S
C719 C715 1.393 . S
C719 C718 1.391 . S
H720 C728 0.950 . S
H721 C733 0.950 . S
H722 C730 0.950 . S
H723 C732 0.950 . S
H724 C734 0.950 . S
H725 C736 0.950 . S
H726 C738 0.950 . S
H727 C739 0.950 . S
C728 H720 0.950 . S
C728 C729 1.386 . S
C728 C730 1.391 1_565 S
C729 C728 1.386 . S
C729 C733 1.393 . S
C730 H722 0.950 . S
C730 C728 1.391 1_545 S
C730 C731 1.400 1_545 S
C731 C730 1.400 1_565 S
C731 C732 1.398 . S
C731 C737 1.491 1_566 S
C732 H723 0.950 . S
C732 C731 1.398 . S
C732 C733 1.391 . S
C733 H721 0.950 . S
C733 C729 1.393 . S
C733 C732 1.391 . S
C734 H724 0.950 . S
C734 C735 1.386 . S
C734 C736 1.391 1_545 S
C735 C734 1.386 . S
C735 C739 1.393 . S
C736 H725 0.950 . S
C736 C734 1.391 1_565 S
C736 C737 1.400 1_565 S
C737 C731 1.491 1_544 S
C737 C736 1.400 1_545 S
C737 C738 1.398 . S
C738 H726 0.950 . S
C738 C737 1.398 . S
C738 C739 1.391 . S
C739 H727 0.950 . S
C739 C735 1.393 . S
C739 C738 1.391 . S
H740 C748 0.950 . S
H741 C753 0.950 . S
H742 C750 0.950 . S
H743 C752 0.950 . S
H744 C754 0.950 . S
H745 C756 0.950 . S
H746 C758 0.950 . S
H747 C759 0.950 . S
C748 H740 0.950 . S
C748 C749 1.386 . S
C748 C750 1.391 . S
C749 C748 1.386 . S
C749 C753 1.393 . S
C750 H742 0.950 . S
C750 C748 1.391 . S
C750 C751 1.400 . S
C751 C750 1.400 . S
C751 C752 1.398 . S
C751 C757 1.491 . S
C752 H743 0.950 . S
C752 C751 1.398 . S
C752 C753 1.391 . S
C753 H741 0.950 . S
C753 C749 1.393 . S
C753 C752 1.391 . S
C754 H744 0.950 . S
C754 C755 1.386 . S
C754 C756 1.391 . S
C755 C754 1.386 . S
C755 C759 1.393 . S
C756 H745 0.950 . S
C756 C754 1.391 . S
C756 C757 1.400 . S
C757 C751 1.491 . S
C757 C756 1.400 . S
C757 C758 1.398 . S
C758 H746 0.950 . S
C758 C757 1.398 . S
C758 C759 1.391 . S
C759 H747 0.950 . S
C759 C755 1.393 . S
C759 C758 1.391 . S
H760 C768 0.950 . S
H761 C773 0.950 1_655 S
H762 C770 0.950 . S
H763 C772 0.950 . S
H764 C774 0.950 . S
H765 C776 0.950 . S
H766 C778 0.950 . S
H767 C779 0.950 1_455 S
C768 H760 0.950 . S
C768 C769 1.386 . S
C768 C770 1.391 . S
C769 C768 1.386 . S
C769 C773 1.393 . S
C770 H762 0.950 . S
C770 C768 1.391 . S
C770 C771 1.400 . S
C771 C770 1.400 . S
C771 C772 1.398 1_455 S
C771 C777 1.491 1_455 S
C772 H763 0.950 . S
C772 C771 1.398 1_655 S
C772 C773 1.391 1_655 S
C773 H761 0.950 1_455 S
C773 C769 1.393 . S
C773 C772 1.391 1_455 S
C774 H764 0.950 . S
C774 C775 1.386 . S
C774 C776 1.391 . S
C775 C774 1.386 . S
C775 C779 1.393 . S
C776 H765 0.950 . S
C776 C774 1.391 . S
C776 C777 1.400 . S
C777 C771 1.491 1_655 S
C777 C776 1.400 . S
C777 C778 1.398 1_655 S
C778 H766 0.950 . S
C778 C777 1.398 1_455 S
C778 C779 1.391 1_455 S
C779 H767 0.950 1_655 S
C779 C775 1.393 . S
C779 C778 1.391 1_655 S
H780 C788 0.950 . S
H781 C793 0.950 . S
H782 C790 0.950 1_545 S
H783 C792 0.950 . S
H784 C794 0.950 . S
H785 C796 0.950 1_565 S
H786 C798 0.950 . S
H787 C799 0.950 . S
C788 H780 0.950 . S
C788 C789 1.386 . S
C788 C790 1.391 . S
C789 C788 1.386 . S
C789 C793 1.393 . S
C790 H782 0.950 1_565 S
C790 C788 1.391 . S
C790 C791 1.400 . S
C791 C790 1.400 . S
C791 C792 1.398 . S
C791 C797 1.491 1_564 S
C792 H783 0.950 . S
C792 C791 1.398 . S
C792 C793 1.391 . S
C793 H781 0.950 . S
C793 C789 1.393 . S
C793 C792 1.391 . S
C794 H784 0.950 . S
C794 C795 1.386 . S
C794 C796 1.391 . S
C795 C794 1.386 . S
C795 C799 1.393 . S
C796 H785 0.950 1_545 S
C796 C794 1.391 . S
C796 C797 1.400 . S
C797 C791 1.491 1_546 S
C797 C796 1.400 . S
C797 C798 1.398 . S
C798 H786 0.950 . S
C798 C797 1.398 . S
C798 C799 1.391 . S
C799 H787 0.950 . S
C799 C795 1.393 . S
C799 C798 1.391 . S
H800 C808 0.950 . S
H801 C813 0.950 . S
H802 C810 0.950 . S
H803 C812 0.950 . S
H804 C814 0.950 . S
H805 C816 0.950 . S
H806 C818 0.950 . S
H807 C819 0.950 . S
C808 H800 0.950 . S
C808 C809 1.386 . S
C808 C810 1.391 . S
C809 C808 1.386 . S
C809 C813 1.393 . S
C810 H802 0.950 . S
C810 C808 1.391 . S
C810 C811 1.400 . S
C811 C810 1.400 . S
C811 C812 1.398 . S
C811 C817 1.491 . S
C812 H803 0.950 . S
C812 C811 1.398 . S
C812 C813 1.391 . S
C813 H801 0.950 . S
C813 C809 1.393 . S
C813 C812 1.391 . S
C814 H804 0.950 . S
C814 C815 1.386 . S
C814 C816 1.391 . S
C815 C814 1.386 . S
C815 C819 1.393 . S
C816 H805 0.950 . S
C816 C814 1.391 . S
C816 C817 1.400 . S
C817 C811 1.491 . S
C817 C816 1.400 . S
C817 C818 1.398 . S
C818 H806 0.950 . S
C818 C817 1.398 . S
C818 C819 1.391 . S
C819 H807 0.950 . S
C819 C815 1.393 . S
C819 C818 1.391 . S
H820 C828 0.950 1_655 S
H821 C833 0.950 . S
H822 C830 0.950 . S
H823 C832 0.950 . S
H824 C834 0.950 1_455 S
H825 C836 0.950 . S
H826 C838 0.950 . S
H827 C839 0.950 . S
C828 H820 0.950 1_455 S
C828 C829 1.386 . S
C828 C830 1.391 1_455 S
C829 C828 1.386 . S
C829 C833 1.393 . S
C830 H822 0.950 . S
C830 C828 1.391 1_655 S
C830 C831 1.400 1_655 S
C831 C830 1.400 1_455 S
C831 C832 1.398 . S
C831 C837 1.491 1_455 S
C832 H823 0.950 . S
C832 C831 1.398 . S
C832 C833 1.391 . S
C833 H821 0.950 . S
C833 C829 1.393 . S
C833 C832 1.391 . S
C834 H824 0.950 1_655 S
C834 C835 1.386 . S
C834 C836 1.391 1_655 S
C835 C834 1.386 . S
C835 C839 1.393 . S
C836 H825 0.950 . S
C836 C834 1.391 1_455 S
C836 C837 1.400 1_455 S
C837 C831 1.491 1_655 S
C837 C836 1.400 1_655 S
C837 C838 1.398 . S
C838 H826 0.950 . S
C838 C837 1.398 . S
C838 C839 1.391 . S
C839 H827 0.950 . S
C839 C835 1.393 . S
C839 C838 1.391 . S
H840 C848 0.950 . S
H841 C853 0.950 . S
H842 C850 0.950 . S
H843 C852 0.950 . S
H844 C854 0.950 . S
H845 C856 0.950 . S
H846 C858 0.950 . S
H847 C859 0.950 . S
C848 H840 0.950 . S
C848 C849 1.386 . S
C848 C850 1.391 . S
C849 C848 1.386 . S
C849 C853 1.393 . S
C850 H842 0.950 . S
C850 C848 1.391 . S
C850 C851 1.400 . S
C851 C850 1.400 . S
C851 C852 1.398 . S
C851 C857 1.491 1_545 S
C852 H843 0.950 . S
C852 C851 1.398 . S
C852 C853 1.391 . S
C853 H841 0.950 . S
C853 C849 1.393 . S
C853 C852 1.391 . S
C854 H844 0.950 . S
C854 C855 1.386 . S
C854 C856 1.391 . S
C855 C854 1.386 . S
C855 C859 1.393 . S
C856 H845 0.950 . S
C856 C854 1.391 . S
C856 C857 1.400 . S
C857 C851 1.491 1_565 S
C857 C856 1.400 . S
C857 C858 1.398 . S
C858 H846 0.950 . S
C858 C857 1.398 . S
C858 C859 1.391 . S
C859 H847 0.950 . S
C859 C855 1.393 . S
C859 C858 1.391 . S
H860 C868 0.950 . S
H861 C873 0.950 . S
H862 C870 0.950 . S
H863 C872 0.950 . S
H864 C874 0.950 . S
H865 C876 0.950 . S
H866 C878 0.950 . S
H867 C879 0.950 . S
C868 H860 0.950 . S
C868 C869 1.386 . S
C868 C870 1.391 . S
C869 C868 1.386 . S
C869 C873 1.393 . S
C870 H862 0.950 . S
C870 C868 1.391 . S
C870 C871 1.400 . S
C871 C870 1.400 . S
C871 C872 1.398 . S
C871 C877 1.491 . S
C872 H863 0.950 . S
C872 C871 1.398 . S
C872 C873 1.391 . S
C873 H861 0.950 . S
C873 C869 1.393 . S
C873 C872 1.391 . S
C874 H864 0.950 . S
C874 C875 1.386 . S
C874 C876 1.391 . S
C875 C874 1.386 . S
C875 C879 1.393 . S
C876 H865 0.950 . S
C876 C874 1.391 . S
C876 C877 1.400 . S
C877 C871 1.491 . S
C877 C876 1.400 . S
C877 C878 1.398 . S
C878 H866 0.950 . S
C878 C877 1.398 . S
C878 C879 1.391 . S
C879 H867 0.950 . S
C879 C875 1.393 . S
C879 C878 1.391 . S
H880 C888 0.950 . S
H881 C893 0.950 . S
H882 C890 0.950 . S
H883 C892 0.950 . S
H884 C894 0.950 . S
H885 C896 0.950 . S
H886 C898 0.950 . S
H887 C899 0.950 . S
C888 H880 0.950 . S
C888 C889 1.386 . S
C888 C890 1.391 . S
C889 C888 1.386 . S
C889 C893 1.393 . S
C890 H882 0.950 . S
C890 C888 1.391 . S
C890 C891 1.400 . S
C891 C890 1.400 . S
C891 C892 1.398 . S
C891 C897 1.491 1_655 S
C892 H883 0.950 . S
C892 C891 1.398 . S
C892 C893 1.391 . S
C893 H881 0.950 . S
C893 C889 1.393 . S
C893 C892 1.391 . S
C894 H884 0.950 . S
C894 C895 1.386 . S
C894 C896 1.391 . S
C895 C894 1.386 . S
C895 C899 1.393 . S
C896 H885 0.950 . S
C896 C894 1.391 . S
C896 C897 1.400 . S
C897 C891 1.491 1_455 S
C897 C896 1.400 . S
C897 C898 1.398 . S
C898 H886 0.950 . S
C898 C897 1.398 . S
C898 C899 1.391 . S
C899 H887 0.950 . S
C899 C895 1.393 . S
C899 C898 1.391 . S
H900 C908 0.950 . S
H901 C913 0.950 . S
H902 C910 0.950 . S
H903 C912 0.950 1_655 S
H904 C914 0.950 . S
H905 C916 0.950 . S
H906 C918 0.950 1_455 S
H907 C919 0.950 . S
C908 H900 0.950 . S
C908 C909 1.386 . S
C908 C910 1.391 . S
C909 C908 1.386 . S
C909 C913 1.393 . S
C910 H902 0.950 . S
C910 C908 1.391 . S
C910 C911 1.400 . S
C911 C910 1.400 . S
C911 C912 1.398 . S
C911 C917 1.491 1_455 S
C912 H903 0.950 1_455 S
C912 C911 1.398 . S
C912 C913 1.391 . S
C913 H901 0.950 . S
C913 C909 1.393 . S
C913 C912 1.391 . S
C914 H904 0.950 . S
C914 C915 1.386 . S
C914 C916 1.391 . S
C915 C914 1.386 . S
C915 C919 1.393 . S
C916 H905 0.950 . S
C916 C914 1.391 . S
C916 C917 1.400 . S
C917 C911 1.491 1_655 S
C917 C916 1.400 . S
C917 C918 1.398 . S
C918 H906 0.950 1_655 S
C918 C917 1.398 . S
C918 C919 1.391 . S
C919 H907 0.950 . S
C919 C915 1.393 . S
C919 C918 1.391 . S
H920 C928 0.950 . S
H921 C933 0.950 . S
H922 C930 0.950 . S
H923 C932 0.950 1_545 S
H924 C934 0.950 . S
H925 C936 0.950 . S
H926 C938 0.950 1_565 S
H927 C939 0.950 . S
C928 H920 0.950 . S
C928 C929 1.386 . S
C928 C930 1.391 . S
C929 C928 1.386 . S
C929 C933 1.393 . S
C930 H922 0.950 . S
C930 C928 1.391 . S
C930 C931 1.400 . S
C931 C930 1.400 . S
C931 C932 1.398 . S
C931 C937 1.491 1_565 S
C932 H923 0.950 1_565 S
C932 C931 1.398 . S
C932 C933 1.391 . S
C933 H921 0.950 . S
C933 C929 1.393 . S
C933 C932 1.391 . S
C934 H924 0.950 . S
C934 C935 1.386 . S
C934 C936 1.391 . S
C935 C934 1.386 . S
C935 C939 1.393 . S
C936 H925 0.950 . S
C936 C934 1.391 . S
C936 C937 1.400 . S
C937 C931 1.491 1_545 S
C937 C936 1.400 . S
C937 C938 1.398 . S
C938 H926 0.950 1_545 S
C938 C937 1.398 . S
C938 C939 1.391 . S
C939 H927 0.950 . S
C939 C935 1.393 . S
C939 C938 1.391 . S
H940 C948 0.950 . S
H941 C953 0.950 . S
H942 C950 0.950 . S
H943 C952 0.950 . S
H944 C954 0.950 . S
H945 C956 0.950 . S
H946 C958 0.950 . S
H947 C959 0.950 . S
C948 H940 0.950 . S
C948 C949 1.386 . S
C948 C950 1.391 . S
C949 C948 1.386 . S
C949 C953 1.393 . S
C950 H942 0.950 . S
C950 C948 1.391 . S
C950 C951 1.400 . S
C951 C950 1.400 . S
C951 C952 1.398 . S
C951 C957 1.491 . S
C952 H943 0.950 . S
C952 C951 1.398 . S
C952 C953 1.391 . S
C953 H941 0.950 . S
C953 C949 1.393 . S
C953 C952 1.391 . S
C954 H944 0.950 . S
C954 C955 1.386 . S
C954 C956 1.391 . S
C955 C954 1.386 . S
C955 C959 1.393 . S
C956 H945 0.950 . S
C956 C954 1.391 . S
C956 C957 1.400 . S
C957 C951 1.491 . S
C957 C956 1.400 . S
C957 C958 1.398 . S
C958 H946 0.950 . S
C958 C957 1.398 . S
C958 C959 1.391 . S
C959 H947 0.950 . S
C959 C955 1.393 . S
C959 C958 1.391 . S
H960 C968 0.950 . S
H961 C973 0.950 . S
H962 C970 0.950 . S
H963 C972 0.950 . S
H964 C974 0.950 . S
H965 C976 0.950 . S
H966 C978 0.950 . S
H967 C979 0.950 . S
C968 H960 0.950 . S
C968 C969 1.386 . S
C968 C970 1.391 . S
C969 C968 1.386 . S
C969 C973 1.393 . S
C970 H962 0.950 . S
C970 C968 1.391 . S
C970 C971 1.400 . S
C971 C970 1.400 . S
C971 C972 1.398 . S
C971 C977 1.491 1_565 S
C972 H963 0.950 . S
C972 C971 1.398 . S
C972 C973 1.391 . S
C973 H961 0.950 . S
C973 C969 1.393 . S
C973 C972 1.391 . S
C974 H964 0.950 . S
C974 C975 1.386 . S
C974 C976 1.391 . S
C975 C974 1.386 . S
C975 C979 1.393 . S
C976 H965 0.950 . S
C976 C974 1.391 . S
C976 C977 1.400 . S
C977 C971 1.491 1_545 S
C977 C976 1.400 . S
C977 C978 1.398 . S
C978 H966 0.950 . S
C978 C977 1.398 . S
C978 C979 1.391 . S
C979 H967 0.950 . S
C979 C975 1.393 . S
C979 C978 1.391 . S
H980 C988 0.950 . S
H981 C993 0.950 . S
H982 C990 0.950 . S
H983 C992 0.950 . S
H984 C994 0.950 . S
H985 C996 0.950 . S
H986 C998 0.950 . S
H987 C999 0.950 . S
C988 H980 0.950 . S
C988 C989 1.386 . S
C988 C990 1.391 . S
C989 C988 1.386 . S
C989 C993 1.393 . S
C990 H982 0.950 . S
C990 C988 1.391 . S
C990 C991 1.400 . S
C991 C990 1.400 . S
C991 C992 1.398 . S
C991 C997 1.491 . S
C992 H983 0.950 . S
C992 C991 1.398 . S
C992 C993 1.391 . S
C993 H981 0.950 . S
C993 C989 1.393 . S
C993 C992 1.391 . S
C994 H984 0.950 . S
C994 C995 1.386 . S
C994 C996 1.391 . S
C995 C994 1.386 . S
C995 C999 1.393 . S
C996 H985 0.950 . S
C996 C994 1.391 . S
C996 C997 1.400 . S
C997 C991 1.491 . S
C997 C996 1.400 . S
C997 C998 1.398 . S
C998 H986 0.950 . S
C998 C997 1.398 . S
C998 C999 1.391 . S
C999 H987 0.950 . S
C999 C995 1.393 . S
C999 C998 1.391 . S
H1000 C1008 0.950 . S
H1001 C1013 0.950 . S
H1002 C1010 0.950 . S
H1003 C1012 0.950 1_455 S
H1004 C1014 0.950 . S
H1005 C1016 0.950 . S
H1006 C1018 0.950 1_655 S
H1007 C1019 0.950 . S
C1008 H1000 0.950 . S
C1008 C1009 1.386 . S
C1008 C1010 1.391 . S
C1009 C1008 1.386 . S
C1009 C1013 1.393 . S
C1010 H1002 0.950 . S
C1010 C1008 1.391 . S
C1010 C1011 1.400 . S
C1011 C1010 1.400 . S
C1011 C1012 1.398 . S
C1011 C1017 1.491 1_655 S
C1012 H1003 0.950 1_655 S
C1012 C1011 1.398 . S
C1012 C1013 1.391 . S
C1013 H1001 0.950 . S
C1013 C1009 1.393 . S
C1013 C1012 1.391 . S
C1014 H1004 0.950 . S
C1014 C1015 1.386 . S
C1014 C1016 1.391 . S
C1015 C1014 1.386 . S
C1015 C1019 1.393 . S
C1016 H1005 0.950 . S
C1016 C1014 1.391 . S
C1016 C1017 1.400 . S
C1017 C1011 1.491 1_455 S
C1017 C1016 1.400 . S
C1017 C1018 1.398 . S
C1018 H1006 0.950 1_455 S
C1018 C1017 1.398 . S
C1018 C1019 1.391 . S
C1019 H1007 0.950 . S
C1019 C1015 1.393 . S
C1019 C1018 1.391 . S
H1020 C1028 0.950 . S
H1021 C1033 0.950 . S
H1022 C1030 0.950 . S
H1023 C1032 0.950 1_565 S
H1024 C1034 0.950 . S
H1025 C1036 0.950 . S
H1026 C1038 0.950 1_545 S
H1027 C1039 0.950 . S
C1028 H1020 0.950 . S
C1028 C1029 1.386 . S
C1028 C1030 1.391 . S
C1029 C1028 1.386 . S
C1029 C1033 1.393 . S
C1030 H1022 0.950 . S
C1030 C1028 1.391 . S
C1030 C1031 1.400 . S
C1031 C1030 1.400 . S
C1031 C1032 1.398 . S
C1031 C1037 1.491 1_545 S
C1032 H1023 0.950 1_545 S
C1032 C1031 1.398 . S
C1032 C1033 1.391 . S
C1033 H1021 0.950 . S
C1033 C1029 1.393 . S
C1033 C1032 1.391 . S
C1034 H1024 0.950 . S
C1034 C1035 1.386 . S
C1034 C1036 1.391 . S
C1035 C1034 1.386 . S
C1035 C1039 1.393 . S
C1036 H1025 0.950 . S
C1036 C1034 1.391 . S
C1036 C1037 1.400 . S
C1037 C1031 1.491 1_565 S
C1037 C1036 1.400 . S
C1037 C1038 1.398 . S
C1038 H1026 0.950 1_565 S
C1038 C1037 1.398 . S
C1038 C1039 1.391 . S
C1039 H1027 0.950 . S
C1039 C1035 1.393 . S
C1039 C1038 1.391 . S
H1040 C1048 0.950 . S
H1041 C1053 0.950 . S
H1042 C1050 0.950 . S
H1043 C1052 0.950 . S
H1044 C1054 0.950 . S
H1045 C1056 0.950 . S
H1046 C1058 0.950 . S
H1047 C1059 0.950 . S
C1048 H1040 0.950 . S
C1048 C1049 1.386 . S
C1048 C1050 1.391 . S
C1049 C1048 1.386 . S
C1049 C1053 1.393 . S
C1050 H1042 0.950 . S
C1050 C1048 1.391 . S
C1050 C1051 1.400 . S
C1051 C1050 1.400 . S
C1051 C1052 1.398 . S
C1051 C1057 1.491 . S
C1052 H1043 0.950 . S
C1052 C1051 1.398 . S
C1052 C1053 1.391 . S
C1053 H1041 0.950 . S
C1053 C1049 1.393 . S
C1053 C1052 1.391 . S
C1054 H1044 0.950 . S
C1054 C1055 1.386 . S
C1054 C1056 1.391 . S
C1055 C1054 1.386 . S
C1055 C1059 1.393 . S
C1056 H1045 0.950 . S
C1056 C1054 1.391 . S
C1056 C1057 1.400 . S
C1057 C1051 1.491 . S
C1057 C1056 1.400 . S
C1057 C1058 1.398 . S
C1058 H1046 0.950 . S
C1058 C1057 1.398 . S
C1058 C1059 1.391 . S
C1059 H1047 0.950 . S
C1059 C1055 1.393 . S
C1059 C1058 1.391 . S
H1060 C1068 0.950 . S
H1061 C1073 0.950 . S
H1062 C1070 0.950 1_655 S
H1063 C1072 0.950 . S
H1064 C1074 0.950 . S
H1065 C1076 0.950 1_455 S
H1066 C1078 0.950 . S
H1067 C1079 0.950 . S
C1068 H1060 0.950 . S
C1068 C1069 1.386 . S
C1068 C1070 1.391 . S
C1069 C1068 1.386 . S
C1069 C1073 1.393 . S
C1070 H1062 0.950 1_455 S
C1070 C1068 1.391 . S
C1070 C1071 1.400 . S
C1071 C1070 1.400 . S
C1071 C1072 1.398 . S
C1071 C1077 1.491 1_455 S
C1072 H1063 0.950 . S
C1072 C1071 1.398 . S
C1072 C1073 1.391 . S
C1073 H1061 0.950 . S
C1073 C1069 1.393 . S
C1073 C1072 1.391 . S
C1074 H1064 0.950 . S
C1074 C1075 1.386 . S
C1074 C1076 1.391 . S
C1075 C1074 1.386 . S
C1075 C1079 1.393 . S
C1076 H1065 0.950 1_655 S
C1076 C1074 1.391 . S
C1076 C1077 1.400 . S
C1077 C1071 1.491 1_655 S
C1077 C1076 1.400 . S
C1077 C1078 1.398 . S
C1078 H1066 0.950 . S
C1078 C1077 1.398 . S
C1078 C1079 1.391 . S
C1079 H1067 0.950 . S
C1079 C1075 1.393 . S
C1079 C1078 1.391 . S
H1080 C1088 0.950 . S
H1081 C1093 0.950 . S
H1082 C1090 0.950 . S
H1083 C1092 0.950 . S
H1084 C1094 0.950 . S
H1085 C1096 0.950 . S
H1086 C1098 0.950 . S
H1087 C1099 0.950 . S
C1088 H1080 0.950 . S
C1088 C1089 1.386 . S
C1088 C1090 1.391 . S
C1089 C1088 1.386 . S
C1089 C1093 1.393 . S
C1090 H1082 0.950 . S
C1090 C1088 1.391 . S
C1090 C1091 1.400 . S
C1091 C1090 1.400 . S
C1091 C1092 1.398 . S
C1091 C1097 1.491 . S
C1092 H1083 0.950 . S
C1092 C1091 1.398 . S
C1092 C1093 1.391 . S
C1093 H1081 0.950 . S
C1093 C1089 1.393 . S
C1093 C1092 1.391 . S
C1094 H1084 0.950 . S
C1094 C1095 1.386 . S
C1094 C1096 1.391 . S
C1095 C1094 1.386 . S
C1095 C1099 1.393 . S
C1096 H1085 0.950 . S
C1096 C1094 1.391 . S
C1096 C1097 1.400 . S
C1097 C1091 1.491 . S
C1097 C1096 1.400 . S
C1097 C1098 1.398 . S
C1098 H1086 0.950 . S
C1098 C1097 1.398 . S
C1098 C1099 1.391 . S
C1099 H1087 0.950 . S
C1099 C1095 1.393 . S
C1099 C1098 1.391 . S
H1100 C1108 0.950 . S
H1101 C1113 0.950 . S
H1102 C1110 0.950 . S
H1103 C1112 0.950 . S
H1104 C1114 0.950 . S
H1105 C1116 0.950 . S
H1106 C1118 0.950 . S
H1107 C1119 0.950 . S
C1108 H1100 0.950 . S
C1108 C1109 1.386 . S
C1108 C1110 1.391 . S
C1109 C1108 1.386 . S
C1109 C1113 1.393 . S
C1110 H1102 0.950 . S
C1110 C1108 1.391 . S
C1110 C1111 1.400 . S
C1111 C1110 1.400 . S
C1111 C1112 1.398 . S
C1111 C1117 1.491 . S
C1112 H1103 0.950 . S
C1112 C1111 1.398 . S
C1112 C1113 1.391 . S
C1113 H1101 0.950 . S
C1113 C1109 1.393 . S
C1113 C1112 1.391 . S
C1114 H1104 0.950 . S
C1114 C1115 1.386 . S
C1114 C1116 1.391 . S
C1115 C1114 1.386 . S
C1115 C1119 1.393 . S
C1116 H1105 0.950 . S
C1116 C1114 1.391 . S
C1116 C1117 1.400 . S
C1117 C1111 1.491 . S
C1117 C1116 1.400 . S
C1117 C1118 1.398 . S
C1118 H1106 0.950 . S
C1118 C1117 1.398 . S
C1118 C1119 1.391 . S
C1119 H1107 0.950 . S
C1119 C1115 1.393 . S
C1119 C1118 1.391 . S
H1120 C1128 0.950 . S
H1121 C1133 0.950 . S
H1122 C1130 0.950 . S
H1123 C1132 0.950 . S
H1124 C1134 0.950 . S
H1125 C1136 0.950 . S
H1126 C1138 0.950 . S
H1127 C1139 0.950 . S
C1128 H1120 0.950 . S
C1128 C1129 1.386 . S
C1128 C1130 1.391 . S
C1129 C1128 1.386 . S
C1129 C1133 1.393 . S
C1130 H1122 0.950 . S
C1130 C1128 1.391 . S
C1130 C1131 1.400 . S
C1131 C1130 1.400 . S
C1131 C1132 1.398 . S
C1131 C1137 1.491 . S
C1132 H1123 0.950 . S
C1132 C1131 1.398 . S
C1132 C1133 1.391 . S
C1133 H1121 0.950 . S
C1133 C1129 1.393 . S
C1133 C1132 1.391 . S
C1134 H1124 0.950 . S
C1134 C1135 1.386 . S
C1134 C1136 1.391 . S
C1135 C1134 1.386 . S
C1135 C1139 1.393 . S
C1136 H1125 0.950 . S
C1136 C1134 1.391 . S
C1136 C1137 1.400 . S
C1137 C1131 1.491 . S
C1137 C1136 1.400 . S
C1137 C1138 1.398 . S
C1138 H1126 0.950 . S
C1138 C1137 1.398 . S
C1138 C1139 1.391 . S
C1139 H1127 0.950 . S
C1139 C1135 1.393 . S
C1139 C1138 1.391 . S
H1140 C1148 0.950 . S
H1141 C1153 0.950 . S
H1142 C1150 0.950 . S
H1143 C1152 0.950 . S
H1144 C1154 0.950 . S
H1145 C1156 0.950 . S
H1146 C1158 0.950 . S
H1147 C1159 0.950 . S
C1148 H1140 0.950 . S
C1148 C1149 1.386 . S
C1148 C1150 1.391 . S
C1149 C1148 1.386 . S
C1149 C1153 1.393 . S
C1150 H1142 0.950 . S
C1150 C1148 1.391 . S
C1150 C1151 1.400 . S
C1151 C1150 1.400 . S
C1151 C1152 1.398 . S
C1151 C1157 1.491 . S
C1152 H1143 0.950 . S
C1152 C1151 1.398 . S
C1152 C1153 1.391 . S
C1153 H1141 0.950 . S
C1153 C1149 1.393 . S
C1153 C1152 1.391 . S
C1154 H1144 0.950 . S
C1154 C1155 1.386 . S
C1154 C1156 1.391 . S
C1155 C1154 1.386 . S
C1155 C1159 1.393 . S
C1156 H1145 0.950 . S
C1156 C1154 1.391 . S
C1156 C1157 1.400 . S
C1157 C1151 1.491 . S
C1157 C1156 1.400 . S
C1157 C1158 1.398 . S
C1158 H1146 0.950 . S
C1158 C1157 1.398 . S
C1158 C1159 1.391 . S
C1159 H1147 0.950 . S
C1159 C1155 1.393 . S
C1159 C1158 1.391 . S
H1160 C1168 0.950 . S
H1161 C1173 0.950 . S
H1162 C1170 0.950 . S
H1163 C1172 0.950 . S
H1164 C1174 0.950 . S
H1165 C1176 0.950 . S
H1166 C1178 0.950 . S
H1167 C1179 0.950 . S
C1168 H1160 0.950 . S
C1168 C1169 1.386 . S
C1168 C1170 1.391 . S
C1169 C1168 1.386 . S
C1169 C1173 1.393 . S
C1170 H1162 0.950 . S
C1170 C1168 1.391 . S
C1170 C1171 1.400 . S
C1171 C1170 1.400 . S
C1171 C1172 1.398 . S
C1171 C1177 1.491 . S
C1172 H1163 0.950 . S
C1172 C1171 1.398 . S
C1172 C1173 1.391 . S
C1173 H1161 0.950 . S
C1173 C1169 1.393 . S
C1173 C1172 1.391 . S
C1174 H1164 0.950 . S
C1174 C1175 1.386 . S
C1174 C1176 1.391 . S
C1175 C1174 1.386 . S
C1175 C1179 1.393 . S
C1176 H1165 0.950 . S
C1176 C1174 1.391 . S
C1176 C1177 1.400 . S
C1177 C1171 1.491 . S
C1177 C1176 1.400 . S
C1177 C1178 1.398 . S
C1178 H1166 0.950 . S
C1178 C1177 1.398 . S
C1178 C1179 1.391 . S
C1179 H1167 0.950 . S
C1179 C1175 1.393 . S
C1179 C1178 1.391 . S
H1180 C1188 0.950 . S
H1181 C1193 0.950 . S
H1182 C1190 0.950 . S
H1183 C1192 0.950 . S
H1184 C1194 0.950 . S
H1185 C1196 0.950 . S
H1186 C1198 0.950 . S
H1187 C1199 0.950 . S
C1188 H1180 0.950 . S
C1188 C1189 1.386 . S
C1188 C1190 1.391 . S
C1189 C1188 1.386 . S
C1189 C1193 1.393 . S
C1190 H1182 0.950 . S
C1190 C1188 1.391 . S
C1190 C1191 1.400 . S
C1191 C1190 1.400 . S
C1191 C1192 1.398 . S
C1191 C1197 1.491 . S
C1192 H1183 0.950 . S
C1192 C1191 1.398 . S
C1192 C1193 1.391 . S
C1193 H1181 0.950 . S
C1193 C1189 1.393 . S
C1193 C1192 1.391 . S
C1194 H1184 0.950 . S
C1194 C1195 1.386 . S
C1194 C1196 1.391 . S
C1195 C1194 1.386 . S
C1195 C1199 1.393 . S
C1196 H1185 0.950 . S
C1196 C1194 1.391 . S
C1196 C1197 1.400 . S
C1197 C1191 1.491 . S
C1197 C1196 1.400 . S
C1197 C1198 1.398 . S
C1198 H1186 0.950 . S
C1198 C1197 1.398 . S
C1198 C1199 1.391 . S
C1199 H1187 0.950 . S
C1199 C1195 1.393 . S
C1199 C1198 1.391 . S
C489 C10 1.074 . S
C495 C330 1.089 . S
C509 C50 1.096 . S
C515 C370 1.081 . S
C529 C90 1.096 . S
C535 C410 1.082 . S
C549 C450 1.096 . S
C555 C130 1.082 . S
C569 C170 1.082 . S
C575 C250 1.096 . S
C589 C290 1.084 . S
C595 C210 1.071 . S
C609 C416 1.512 . S
C615 C16 1.499 . S
C629 C456 1.499 . S
C635 C56 1.493 . S
C649 C96 1.493 . S
C655 C256 1.497 . S
C669 C296 1.512 . S
C675 C136 1.517 . S
C689 C336 1.493 . S
C695 C176 1.499 . S
C709 C216 1.514 . S
C715 C376 1.501 . S
C729 C291 4.280 . S
C735 C11 4.275 . S
C749 C331 4.273 . S
C755 C51 4.279 . S
C769 C371 4.273 . S
C775 C91 4.280 . S
C789 C131 4.280 . S
C795 C411 4.278 . S
C809 C171 4.275 . S
C815 C451 4.280 . S
C829 C211 4.280 . S
C835 C251 4.274 . S
C849 C19 0.460 . S
C855 C139 0.454 . S
C869 C59 0.525 . S
C875 C179 0.541 . S
C889 C99 0.539 . S
C895 C219 0.530 . S
C909 C379 0.541 . S
C915 C259 0.504 . S
C929 C299 0.489 . S
C935 C419 0.450 . S
C949 C459 0.508 . S
C955 C339 0.459 . S
C969 C287 0.749 . S
C975 C7 0.727 . S
C989 C327 0.747 . S
C995 C47 0.748 . S
C1009 C87 0.725 . S
C1015 C367 0.695 . S
C1029 C407 0.727 . S
C1035 C127 0.696 . S
C1049 C447 0.694 . S
C1055 C167 0.686 . S
C1069 C207 0.715 . S
C1075 C247 0.744 . S
C1089 C2 4.740 . S
C1095 C402 4.741 . S
C1109 C42 4.740 . S
C1115 C442 4.741 1_556 S
C1129 C82 4.741 1_554 S
C1135 C242 4.740 . S
C1149 C122 4.741 . S
C1155 C282 4.740 . S
C1169 C162 4.739 . S
C1175 C322 4.741 1_556 S
C1189 C362 4.739 . S
C1195 C202 4.740 1_554 S
