# Generated by pormake.
# Topology vcu, (8)-cn, num edge types: 1
# Building blocks:
#     Node 0, Type 0, BuildingBlock: TAGTUT_clean_sbu_3, # of connection points: 8
#     Node 1, Type 0, BuildingBlock: TAGTUT_clean_sbu_3, # of connection points: 8
#     Node 2, Type 0, BuildingBlock: TAGTUT_clean_sbu_3, # of connection points: 8
#     Node 3, Type 0, BuildingBlock: TAGTUT_clean_sbu_3, # of connection points: 8
#     Node 4, Type 0, BuildingBlock: TAGTUT_clean_sbu_3, # of connection points: 8
#     Node 5, Type 0, BuildingBlock: TAGTUT_clean_sbu_3, # of connection points: 8
#     Node 6, Type 0, BuildingBlock: TAGTUT_clean_sbu_3, # of connection points: 8
#     Node 7, Type 0, BuildingBlock: TAGTUT_clean_sbu_3, # of connection points: 8
#     Edge 8, Type (0, 0), BuildingBlock: ZUJKAS_clean_linker_0, # of connection points: 2
#     Edge 9, Type (0, 0), BuildingBlock: ZUJKAS_clean_linker_0, # of connection points: 2
#     Edge 10, Type (0, 0), BuildingBlock: ZUJKAS_clean_linker_0, # of connection points: 2
#     Edge 11, Type (0, 0), BuildingBlock: ZUJKAS_clean_linker_0, # of connection points: 2
#     Edge 12, Type (0, 0), BuildingBlock: ZUJKAS_clean_linker_0, # of connection points: 2
#     Edge 13, Type (0, 0), BuildingBlock: ZUJKAS_clean_linker_0, # of connection points: 2
#     Edge 14, Type (0, 0), BuildingBlock: ZUJKAS_clean_linker_0, # of connection points: 2
#     Edge 15, Type (0, 0), BuildingBlock: ZUJKAS_clean_linker_0, # of connection points: 2
#     Edge 16, Type (0, 0), BuildingBlock: ZUJKAS_clean_linker_0, # of connection points: 2
#     Edge 17, Type (0, 0), BuildingBlock: ZUJKAS_clean_linker_0, # of connection points: 2
#     Edge 18, Type (0, 0), BuildingBlock: ZUJKAS_clean_linker_0, # of connection points: 2
#     Edge 19, Type (0, 0), BuildingBlock: ZUJKAS_clean_linker_0, # of connection points: 2
#     Edge 20, Type (0, 0), BuildingBlock: ZUJKAS_clean_linker_0, # of connection points: 2
#     Edge 21, Type (0, 0), BuildingBlock: ZUJKAS_clean_linker_0, # of connection points: 2
#     Edge 22, Type (0, 0), BuildingBlock: ZUJKAS_clean_linker_0, # of connection points: 2
#     Edge 23, Type (0, 0), BuildingBlock: ZUJKAS_clean_linker_0, # of connection points: 2
#     Edge 24, Type (0, 0), BuildingBlock: ZUJKAS_clean_linker_0, # of connection points: 2
#     Edge 25, Type (0, 0), BuildingBlock: ZUJKAS_clean_linker_0, # of connection points: 2
#     Edge 26, Type (0, 0), BuildingBlock: ZUJKAS_clean_linker_0, # of connection points: 2
#     Edge 27, Type (0, 0), BuildingBlock: ZUJKAS_clean_linker_0, # of connection points: 2
#     Edge 28, Type (0, 0), BuildingBlock: ZUJKAS_clean_linker_0, # of connection points: 2
#     Edge 29, Type (0, 0), BuildingBlock: ZUJKAS_clean_linker_0, # of connection points: 2
#     Edge 30, Type (0, 0), BuildingBlock: ZUJKAS_clean_linker_0, # of connection points: 2
#     Edge 31, Type (0, 0), BuildingBlock: ZUJKAS_clean_linker_0, # of connection points: 2
#     Edge 32, Type (0, 0), BuildingBlock: ZUJKAS_clean_linker_0, # of connection points: 2
#     Edge 33, Type (0, 0), BuildingBlock: ZUJKAS_clean_linker_0, # of connection points: 2
#     Edge 34, Type (0, 0), BuildingBlock: ZUJKAS_clean_linker_0, # of connection points: 2
#     Edge 35, Type (0, 0), BuildingBlock: ZUJKAS_clean_linker_0, # of connection points: 2
#     Edge 36, Type (0, 0), BuildingBlock: ZUJKAS_clean_linker_0, # of connection points: 2
#     Edge 37, Type (0, 0), BuildingBlock: ZUJKAS_clean_linker_0, # of connection points: 2
#     Edge 38, Type (0, 0), BuildingBlock: ZUJKAS_clean_linker_0, # of connection points: 2
#     Edge 39, Type (0, 0), BuildingBlock: ZUJKAS_clean_linker_0, # of connection points: 2
# Relax obj value: 0.241
# Max RMSD: 0.292
# Mean RMSD: 0.290
data_MOF--net-vcu--node1-TAGTUT_clean_sbu_3--edge1-ZUJKAS_clean_linker_0
_symmetry_space_group_name_H-M    P1
_symmetry_Int_Tables_number       1
_symmetry_cell_setting            triclinic
loop_
_symmetry_equiv_pos_as_xyz
'x, y, z'
_cell_length_a     23.259464
_cell_length_b     41.486826
_cell_length_c     63.882324
_cell_angle_alpha  90.025512
_cell_angle_beta   89.939771
_cell_angle_gamma 89.999799
loop_
_atom_site_label
_atom_site_type_symbol
_atom_site_fract_x
_atom_site_fract_y
_atom_site_fract_z
_atom_type_partial_charge
C0 C 0.40271 0.37608 0.34681 0.0
C1 C 0.5629 0.33711 0.39685 0.0
C2 C 0.4243 0.30098 0.43461 0.0
Mg3 Mg 0.27563 0.39775 0.35492 0.0
Mg4 Mg 0.23401 0.42984 0.39954 0.0
O5 O 0.26712 0.39425 0.38629 0.0
Mg6 Mg 0.34777 0.3821 0.3936 0.0
O7 O 0.42899 0.36731 0.39782 0.0
Mg8 Mg 0.42578 0.32397 0.38362 0.0
Mg9 Mg 0.46565 0.36805 0.4237 0.0
C10 C 0.27639 0.38769 0.4381 0.0
O11 O 0.37455 0.43214 0.40733 0.0
O12 O 0.17713 0.40304 0.35404 0.0
O13 O 0.44357 0.41745 0.43054 0.0
O14 O 0.28727 0.45416 0.35582 0.0
O15 O 0.15098 0.42514 0.38479 0.0
O16 O 0.27721 0.47191 0.38856 0.0
O17 O 0.32775 0.33185 0.3824 0.0
O18 O 0.26993 0.34076 0.35516 0.0
C19 C 0.29637 0.32125 0.36754 0.0
C20 C 0.13858 0.41345 0.36675 0.0
O21 O 0.31368 0.37225 0.42701 0.0
O22 O 0.52475 0.32314 0.38552 0.0
O23 O 0.24764 0.41181 0.431 0.0
O24 O 0.42154 0.29662 0.41485 0.0
O25 O 0.5498 0.35564 0.4122 0.0
O26 O 0.43448 0.32877 0.44228 0.0
O27 O 0.37205 0.3922 0.35969 0.0
O28 O 0.42958 0.35079 0.35267 0.0
C29 C 0.29038 0.47679 0.36946 0.0
C30 C 0.41036 0.43856 0.42217 0.0
C31 C 0.13507 0.0559 0.90896 0.0
C32 C 0.27487 0.01018 0.85585 0.0
C33 C 0.36507 0.10323 0.86074 0.0
Mg34 Mg 0.0853 0.12576 0.91667 0.0
Mg35 Mg 0.08342 0.18258 0.88127 0.0
O36 O 0.12801 0.15243 0.8955 0.0
Mg37 Mg 0.17291 0.11799 0.88072 0.0
O38 O 0.21691 0.08122 0.86853 0.0
Mg39 Mg 0.26582 0.06835 0.89284 0.0
Mg40 Mg 0.25043 0.08062 0.8419 0.0
C41 C 0.19906 0.18551 0.85475 0.0
O42 O 0.11445 0.11531 0.85195 0.0
O43 O 0.0574 0.17419 0.93215 0.0
O44 O 0.17535 0.10047 0.826 0.0
O45 O 0.99909 0.12525 0.89749 0.0
O46 O 0.06549 0.213 0.9077 0.0
O47 O 0.00461 0.16099 0.87151 0.0
O48 O 0.23605 0.1172 0.90803 0.0
O49 O 0.17259 0.12588 0.93387 0.0
C50 C 0.22442 0.12133 0.92747 0.0
C51 C 0.05492 0.20391 0.92648 0.0
O52 O 0.22047 0.15944 0.86259 0.0
O53 O 0.28229 0.02022 0.87474 0.0
O54 O 0.14797 0.19552 0.85868 0.0
O55 O 0.34649 0.092 0.87812 0.0
O56 O 0.26183 0.02931 0.84084 0.0
O57 O 0.33429 0.10301 0.84419 0.0
O58 O 0.11999 0.08155 0.89938 0.0
O59 O 0.18663 0.04551 0.90771 0.0
C60 C 0.97729 0.13923 0.88146 0.0
C61 C 0.1257 0.10987 0.83256 0.0
C62 C 0.78909 0.17702 0.62124 0.0
C63 C 0.63455 0.08322 0.62443 0.0
C64 C 0.7906 0.02206 0.6224 0.0
Mg65 Mg 0.91766 0.17483 0.60489 0.0
Mg66 Mg 0.9591 0.12868 0.56597 0.0
O67 O 0.92281 0.13064 0.59193 0.0
Mg68 Mg 0.84195 0.11542 0.59658 0.0
O69 O 0.76162 0.10307 0.60422 0.0
Mg70 Mg 0.7708 0.10112 0.63566 0.0
Mg71 Mg 0.73006 0.06631 0.59188 0.0
C72 C 0.90619 0.05773 0.56975 0.0
O73 O 0.80792 0.12288 0.56289 0.0
O74 O 0.01624 0.17654 0.60301 0.0
O75 O 0.7425 0.08281 0.56004 0.0
O76 O 0.91283 0.20005 0.57289 0.0
O77 O 0.04284 0.14363 0.57663 0.0
O78 O 0.92537 0.166 0.5464 0.0
O79 O 0.86675 0.10752 0.63071 0.0
O80 O 0.92237 0.15016 0.6365 0.0
C81 C 0.89671 0.12491 0.64308 0.0
C82 C 0.05473 0.16301 0.59163 0.0
O83 O 0.86995 0.06499 0.58429 0.0
O84 O 0.67265 0.0952 0.63668 0.0
O85 O 0.93901 0.07846 0.56076 0.0
O86 O 0.785 0.04468 0.63596 0.0
O87 O 0.64707 0.07009 0.60683 0.0
O88 O 0.77719 0.02621 0.60328 0.0
O89 O 0.82015 0.16588 0.60645 0.0
O90 O 0.76362 0.15802 0.63423 0.0
C91 C 0.91527 0.19431 0.55327 0.0
C92 C 0.77094 0.10653 0.55225 0.0
C93 C 0.72993 0.3882 0.06252 0.0
C94 C 0.55662 0.30669 0.06521 0.0
C95 C 0.4835 0.3734 0.10966 0.0
Mg96 Mg 0.7717 0.44239 0.09651 0.0
Mg97 Mg 0.75672 0.43085 0.1476 0.0
O98 O 0.723 0.42995 0.12103 0.0
Mg99 Mg 0.67871 0.393 0.10931 0.0
O100 O 0.63347 0.3582 0.09502 0.0
Mg101 Mg 0.59088 0.3846 0.07376 0.0
Mg102 Mg 0.58801 0.32918 0.10999 0.0
C103 C 0.63203 0.40218 0.15754 0.0
O104 O 0.72622 0.35183 0.12759 0.0
O105 O 0.78805 0.49089 0.11427 0.0
O106 O 0.65327 0.31624 0.13229 0.0
O107 O 0.85266 0.41924 0.11138 0.0
O108 O 0.76837 0.48208 0.14828 0.0
O109 O 0.84057 0.40857 0.14537 0.0
O110 O 0.62593 0.42914 0.09044 0.0
O111 O 0.69247 0.46495 0.08154 0.0
C112 C 0.64088 0.45457 0.08058 0.0
C113 C 0.781 0.50107 0.13315 0.0
O114 O 0.62053 0.3964 0.13821 0.0
O115 O 0.56179 0.33606 0.05906 0.0
O116 O 0.68186 0.41151 0.16392 0.0
O117 O 0.50501 0.38623 0.09317 0.0
O118 O 0.56619 0.29819 0.08418 0.0
O119 O 0.51079 0.35214 0.12004 0.0
O120 O 0.74152 0.39317 0.08188 0.0
O121 O 0.67803 0.3834 0.05631 0.0
C122 C 0.87138 0.4083 0.1288 0.0
C123 C 0.70476 0.32603 0.13578 0.0
C124 C 0.77725 0.64903 0.566 0.0
C125 C 0.61247 0.73349 0.57831 0.0
C126 C 0.53954 0.66172 0.61891 0.0
Mg127 Mg 0.82031 0.58875 0.59493 0.0
Mg128 Mg 0.81392 0.58997 0.64689 0.0
O129 O 0.77712 0.59823 0.62145 0.0
Mg130 Mg 0.73416 0.63828 0.6136 0.0
O131 O 0.68886 0.67609 0.60295 0.0
Mg132 Mg 0.64158 0.65409 0.58092 0.0
Mg133 Mg 0.64759 0.70355 0.62081 0.0
C134 C 0.69754 0.62323 0.66272 0.0
O135 O 0.78817 0.67628 0.63231 0.0
O136 O 0.83705 0.53679 0.60833 0.0
O137 O 0.71908 0.71206 0.64188 0.0
O138 O 0.9058 0.60764 0.60971 0.0
O139 O 0.82217 0.53856 0.64309 0.0
O140 O 0.89833 0.61097 0.64455 0.0
O141 O 0.67472 0.60645 0.59402 0.0
O142 O 0.73574 0.57107 0.58025 0.0
C143 C 0.68506 0.58283 0.58177 0.0
C144 C 0.83268 0.52278 0.62626 0.0
O145 O 0.68293 0.63261 0.64425 0.0
O146 O 0.61492 0.70513 0.57026 0.0
O147 O 0.746 0.60959 0.66673 0.0
O148 O 0.55938 0.65114 0.60154 0.0
O149 O 0.62456 0.73898 0.59756 0.0
O150 O 0.56832 0.68115 0.63029 0.0
O151 O 0.79173 0.64069 0.58458 0.0
O152 O 0.72495 0.65611 0.56152 0.0
C153 C 0.92715 0.61445 0.62767 0.0
C154 C 0.77113 0.70154 0.64246 0.0
C155 C 0.7095 0.88853 0.06481 0.0
C156 C 0.87927 0.80447 0.06722 0.0
C157 C 0.95361 0.86871 0.11257 0.0
Mg158 Mg 0.66852 0.94197 0.09944 0.0
Mg159 Mg 0.68052 0.92976 0.15055 0.0
O160 O 0.71529 0.92806 0.12413 0.0
Mg161 Mg 0.75837 0.89082 0.11206 0.0
O162 O 0.80301 0.85599 0.09739 0.0
Mg163 Mg 0.8477 0.88262 0.07672 0.0
Mg164 Mg 0.84691 0.82601 0.11218 0.0
C165 C 0.79972 0.89475 0.16121 0.0
O166 O 0.70801 0.84988 0.12921 0.0
O167 O 0.65346 0.99027 0.11756 0.0
O168 O 0.77993 0.81369 0.13412 0.0
O169 O 0.58578 0.91927 0.1134 0.0
O170 O 0.67348 0.98143 0.15152 0.0
O171 O 0.59552 0.90928 0.14757 0.0
O172 O 0.81413 0.92692 0.09413 0.0
O173 O 0.74949 0.96387 0.0854 0.0
C174 C 0.8007 0.95291 0.0846 0.0
C175 C 0.66145 1.00051 0.13637 0.0
O176 O 0.81367 0.89087 0.14186 0.0
O177 O 0.87562 0.8341 0.06141 0.0
O178 O 0.75072 0.90601 0.16712 0.0
O179 O 0.9326 0.88242 0.09635 0.0
O180 O 0.86818 0.79554 0.08601 0.0
O181 O 0.92562 0.84725 0.12256 0.0
O182 O 0.69711 0.8929 0.08417 0.0
O183 O 0.7615 0.8834 0.05881 0.0
C184 C 0.56579 0.90881 0.13078 0.0
C185 C 0.72851 0.82387 0.13739 0.0
C186 C 0.25993 0.85619 0.43039 0.0
C187 C 0.13781 0.76629 0.40386 0.0
C188 C 0.023 0.83261 0.3788 0.0
Mg189 Mg 0.30062 0.91195 0.39923 0.0
Mg190 Mg 0.30054 0.90562 0.34782 0.0
O191 O 0.25971 0.90017 0.37282 0.0
Mg192 Mg 0.21869 0.85968 0.38157 0.0
O193 O 0.17312 0.82134 0.39274 0.0
Mg194 Mg 0.12437 0.84442 0.41748 0.0
Mg195 Mg 0.14025 0.79706 0.36838 0.0
C196 C 0.18644 0.8703 0.33179 0.0
O197 O 0.27822 0.82339 0.36435 0.0
O198 O 0.31808 0.96259 0.3843 0.0
O199 O 0.21022 0.7978 0.34578 0.0
O200 O 0.38844 0.89279 0.38658 0.0
O201 O 0.30934 0.95759 0.34943 0.0
O202 O 0.38347 0.88343 0.35224 0.0
O203 O 0.15674 0.88947 0.39976 0.0
O204 O 0.21291 0.92906 0.41159 0.0
C205 C 0.16375 0.91521 0.41047 0.0
C206 C 0.31697 0.97493 0.36582 0.0
O207 O 0.16945 0.86263 0.35033 0.0
O208 O 0.15294 0.79621 0.40326 0.0
O209 O 0.23523 0.88374 0.328 0.0
O210 O 0.04332 0.84146 0.39656 0.0
O211 O 0.13566 0.75222 0.38616 0.0
O212 O 0.0535 0.81751 0.36516 0.0
O213 O 0.27326 0.86105 0.41121 0.0
O214 O 0.20878 0.84844 0.43601 0.0
C215 C 0.41131 0.88297 0.36946 0.0
C216 C 0.26317 0.80274 0.35034 0.0
C217 C 0.29796 0.55425 0.90669 0.0
C218 C 0.15599 0.51022 0.85366 0.0
C219 C 0.06219 0.60192 0.86252 0.0
Mg220 Mg 0.34544 0.62416 0.9156 0.0
Mg221 Mg 0.34697 0.6804 0.88011 0.0
O222 O 0.30108 0.65174 0.89534 0.0
Mg223 Mg 0.25595 0.61751 0.88028 0.0
O224 O 0.21242 0.58092 0.8676 0.0
Mg225 Mg 0.16589 0.56593 0.89215 0.0
Mg226 Mg 0.17573 0.58215 0.84149 0.0
C227 C 0.22784 0.68521 0.85565 0.0
O228 O 0.3113 0.6182 0.85054 0.0
O229 O 0.37459 0.672 0.93126 0.0
O230 O 0.24656 0.60608 0.82523 0.0
O231 O 0.43039 0.62449 0.89606 0.0
O232 O 0.37185 0.71022 0.90631 0.0
O233 O 0.42278 0.65696 0.86854 0.0
O234 O 0.19469 0.61441 0.9082 0.0
O235 O 0.25923 0.62321 0.93359 0.0
C236 C 0.20722 0.61822 0.92759 0.0
C237 C 0.38104 0.70138 0.92525 0.0
O238 O 0.20638 0.6593 0.86368 0.0
O239 O 0.14996 0.51896 0.87289 0.0
O240 O 0.27983 0.69453 0.85876 0.0
O241 O 0.08302 0.58907 0.87904 0.0
O242 O 0.16668 0.53048 0.839 0.0
O243 O 0.09184 0.60408 0.84573 0.0
O244 O 0.3111 0.58065 0.89761 0.0
O245 O 0.24688 0.54316 0.90567 0.0
C246 C 0.45119 0.63656 0.87924 0.0
C247 C 0.29647 0.61589 0.83119 0.0
H248 H 0.04452 0.43943 0.38598 0.0
H249 H 0.94516 0.4211 0.38274 0.0
H250 H 0.99481 0.35559 0.33355 0.0
H251 H 0.09452 0.37383 0.33651 0.0
H252 H 0.86554 0.4115 0.34338 0.0
H253 H 0.93386 0.30252 0.38815 0.0
H254 H 0.97449 0.33957 0.38927 0.0
H255 H 0.97556 0.31564 0.36592 0.0
C256 C 0.03419 0.42169 0.37412 0.0
C257 C 0.07751 0.40778 0.3617 0.0
C258 C 0.97744 0.41133 0.37226 0.0
C259 C 0.96327 0.38684 0.35808 0.0
C260 C 0.00536 0.37449 0.34461 0.0
H261 H 0.60608 0.31663 0.35927 0.0
H262 H 0.705 0.3228 0.34673 0.0
C263 C 0.06218 0.38502 0.34632 0.0
C264 C 0.90603 0.37193 0.35932 0.0
H265 H 0.83473 0.31088 0.38394 0.0
C266 C 0.85859 0.3891 0.35176 0.0
C267 C 0.89776 0.34285 0.37045 0.0
C268 C 0.94789 0.32392 0.37902 0.0
C269 C 0.80246 0.37857 0.35588 0.0
C270 C 0.79419 0.35032 0.36788 0.0
C271 C 0.84166 0.33239 0.37462 0.0
C272 C 0.73699 0.3418 0.37598 0.0
C273 C 0.7523 0.39865 0.34854 0.0
C274 C 0.72336 0.34938 0.39677 0.0
C275 C 0.66713 0.34606 0.40398 0.0
C276 C 0.62377 0.33492 0.3905 0.0
C277 C 0.63853 0.32528 0.37005 0.0
C278 C 0.69484 0.32887 0.3628 0.0
H279 H 0.76629 0.42088 0.34029 0.0
H280 H 0.72527 0.38422 0.33772 0.0
H281 H 0.72506 0.4056 0.3621 0.0
H282 H 0.7557 0.35933 0.40713 0.0
H283 H 0.65722 0.35346 0.41985 0.0
H284 H 0.42728 0.13673 0.8896 0.0
H285 H 0.53143 0.14506 0.89004 0.0
H286 H 0.54579 0.09488 0.83103 0.0
H287 H 0.44138 0.08895 0.82984 0.0
H288 H 0.60988 0.1048 0.89389 0.0
H289 H 0.65336 0.1641 0.8182 0.0
H290 H 0.58132 0.15894 0.828 0.0
H291 H 0.61686 0.12664 0.81415 0.0
C292 C 0.45267 0.12847 0.87642 0.0
C293 C 0.42627 0.11269 0.85952 0.0
C294 C 0.5123 0.13297 0.87673 0.0
C295 C 0.54711 0.12098 0.86044 0.0
C296 C 0.52037 0.10547 0.84345 0.0
H297 H 0.91275 0.08465 0.88833 0.0
H298 H 0.80975 0.07749 0.88157 0.0
C299 C 0.46051 0.10193 0.8428 0.0
C300 C 0.61121 0.12248 0.86216 0.0
H301 H 0.73433 0.14018 0.83526 0.0
C302 C 0.63692 0.11293 0.88109 0.0
C303 C 0.64708 0.13323 0.84562 0.0
C304 C 0.62312 0.14663 0.82547 0.0
C305 C 0.69676 0.11407 0.88404 0.0
C306 C 0.7328 0.12327 0.86715 0.0
C307 C 0.70715 0.13263 0.84816 0.0
C308 C 0.79671 0.12564 0.86925 0.0
C309 C 0.72008 0.10666 0.90556 0.0
C310 C 0.82496 0.15409 0.86319 0.0
C311 C 0.88408 0.15764 0.86622 0.0
C312 C 0.91644 0.13309 0.87578 0.0
C313 C 0.88881 0.10414 0.88117 0.0
C314 C 0.82973 0.10021 0.87754 0.0
H315 H 0.68684 0.11011 0.91787 0.0
H316 H 0.73389 0.08108 0.90615 0.0
H317 H 0.75745 0.1222 0.90942 0.0
H318 H 0.80097 0.17408 0.85667 0.0
H319 H 0.90392 0.18032 0.86193 0.0
H320 H 0.09676 0.14565 0.62896 0.0
H321 H 0.19745 0.1383 0.63815 0.0
H322 H 0.24799 0.17941 0.57874 0.0
H323 H 0.14641 0.18384 0.56883 0.0
H324 H 0.30131 0.12879 0.58297 0.0
H325 H 0.32494 0.18945 0.65899 0.0
H326 H 0.26741 0.16103 0.66104 0.0
H327 H 0.26148 0.19463 0.64318 0.0
C328 C 0.12959 0.15382 0.61813 0.0
C329 C 0.11457 0.16539 0.59829 0.0
C330 C 0.18719 0.14994 0.62347 0.0
C331 C 0.23071 0.15887 0.60936 0.0
C332 C 0.21529 0.17235 0.58993 0.0
H333 H 0.59164 0.13825 0.64075 0.0
H334 H 0.49237 0.15666 0.63852 0.0
C335 C 0.15752 0.17504 0.58427 0.0
C336 C 0.29128 0.14988 0.61365 0.0
H337 H 0.39218 0.14559 0.65228 0.0
C338 C 0.32144 0.13311 0.59802 0.0
C339 C 0.31824 0.15569 0.63316 0.0
C340 C 0.29138 0.17653 0.64989 0.0
C341 C 0.377 0.1214 0.60145 0.0
C342 C 0.40178 0.1246 0.62159 0.0
C343 C 0.37246 0.14218 0.63705 0.0
C344 C 0.45949 0.1115 0.62639 0.0
C345 C 0.40875 0.10654 0.58319 0.0
C346 C 0.47349 0.07938 0.62156 0.0
C347 C 0.53061 0.06913 0.62217 0.0
C348 C 0.5739 0.09043 0.62864 0.0
C349 C 0.55889 0.12132 0.6358 0.0
C350 C 0.50216 0.1319 0.63446 0.0
H351 H 0.39193 0.1155 0.56799 0.0
H352 H 0.45548 0.11189 0.58386 0.0
H353 H 0.40267 0.08002 0.58343 0.0
H354 H 0.44077 0.06278 0.61618 0.0
H355 H 0.54128 0.04511 0.61677 0.0
H356 H 0.94618 0.42381 0.15987 0.0
H357 H 0.05104 0.42006 0.15877 0.0
H358 H 0.04048 0.36872 0.10009 0.0
H359 H 0.9358 0.37496 0.10037 0.0
H360 H 0.12883 0.37888 0.15931 0.0
H361 H 0.14577 0.43638 0.08171 0.0
H362 H 0.07827 0.43324 0.09535 0.0
H363 H 0.10472 0.40003 0.07981 0.0
C364 C 0.96631 0.41138 0.14687 0.0
C365 C 0.933 0.39981 0.13015 0.0
C366 C 0.02638 0.40934 0.14618 0.0
C367 C 0.05433 0.3951 0.12896 0.0
C368 C 0.02052 0.38119 0.11308 0.0
H369 H 0.40973 0.33391 0.13034 0.0
H370 H 0.30739 0.34142 0.13616 0.0
C371 C 0.96057 0.38422 0.11341 0.0
C372 C 0.11854 0.39533 0.12753 0.0
H373 H 0.23039 0.4099 0.09412 0.0
C374 C 0.15092 0.386 0.14509 0.0
C375 C 0.14812 0.40562 0.10927 0.0
C376 C 0.11736 0.41974 0.0906 0.0
C377 C 0.21139 0.3858 0.14473 0.0
C378 C 0.24071 0.39338 0.12588 0.0
C379 C 0.2084 0.40357 0.10852 0.0
C380 C 0.30435 0.38982 0.12346 0.0
C381 C 0.24283 0.37824 0.1648 0.0
C382 C 0.33736 0.41399 0.11367 0.0
C383 C 0.396 0.4092 0.10957 0.0
C384 C 0.42309 0.38038 0.11556 0.0
C385 C 0.39047 0.35666 0.12587 0.0
C386 C 0.33173 0.36106 0.1294 0.0
H387 H 0.21735 0.38593 0.17865 0.0
H388 H 0.24913 0.3518 0.16604 0.0
H389 H 0.28541 0.39029 0.16547 0.0
H390 H 0.31752 0.4364 0.10883 0.0
H391 H 0.41997 0.42786 0.10153 0.0
H392 H 0.4632 0.70038 0.63927 0.0
H393 H 0.35987 0.69225 0.643 0.0
H394 H 0.37596 0.59771 0.61532 0.0
H395 H 0.47893 0.60692 0.61015 0.0
H396 H 0.29235 0.62448 0.59833 0.0
H397 H 0.26196 0.64652 0.6827 0.0
H398 H 0.29485 0.68093 0.67079 0.0
H399 H 0.33246 0.64287 0.67124 0.0
C400 C 0.44486 0.67759 0.63439 0.0
C401 C 0.4792 0.65421 0.62451 0.0
C402 C 0.3856 0.67284 0.63665 0.0
C403 C 0.3596 0.64408 0.62983 0.0
C404 C 0.39456 0.62015 0.62073 0.0
H405 H 0.00218 0.59805 0.65848 0.0
H406 H 0.10633 0.60521 0.65872 0.0
C407 C 0.45355 0.62531 0.61789 0.0
C408 C 0.29571 0.64003 0.63051 0.0
H409 H 0.17705 0.65029 0.66141 0.0
C410 C 0.26735 0.62974 0.61226 0.0
C411 C 0.26252 0.64641 0.64868 0.0
C412 C 0.28969 0.65442 0.66949 0.0
C413 C 0.20734 0.62589 0.61158 0.0
C414 C 0.17381 0.63438 0.6293 0.0
C415 C 0.2022 0.64434 0.64764 0.0
C416 C 0.10966 0.63171 0.62951 0.0
C417 C 0.1812 0.61168 0.59201 0.0
C418 C 0.07592 0.64492 0.61335 0.0
C419 C 0.01633 0.63994 0.61288 0.0
C420 C 0.98891 0.6229 0.62905 0.0
C421 C 0.02206 0.61148 0.64586 0.0
C422 C 0.08176 0.61555 0.64598 0.0
H423 H 0.21287 0.59675 0.58329 0.0
H424 H 0.14336 0.59638 0.5957 0.0
H425 H 0.16744 0.63146 0.58146 0.0
H426 H 0.09568 0.65869 0.60089 0.0
H427 H 0.99173 0.64927 0.59982 0.0
H428 H 0.48897 0.92246 0.16162 0.0
H429 H 0.38485 0.9152 0.16065 0.0
H430 H 0.40011 0.86621 0.10124 0.0
H431 H 0.50394 0.87589 0.10148 0.0
H432 H 0.319 0.90481 0.09805 0.0
H433 H 0.2822 0.84374 0.17355 0.0
H434 H 0.31682 0.8817 0.17777 0.0
H435 H 0.35349 0.85035 0.16339 0.0
C436 C 0.47012 0.90957 0.14857 0.0
C437 C 0.50449 0.89948 0.13171 0.0
C438 C 0.41045 0.90522 0.14807 0.0
C439 C 0.38407 0.88951 0.13108 0.0
C440 C 0.41899 0.8784 0.11456 0.0
H441 H 0.02737 0.82743 0.13186 0.0
H442 H 0.13073 0.83363 0.1365 0.0
C443 C 0.47842 0.88372 0.11474 0.0
C444 C 0.32006 0.88683 0.1297 0.0
H445 H 0.1992 0.86721 0.15739 0.0
C446 C 0.293 0.89618 0.11099 0.0
C447 C 0.28556 0.8753 0.14641 0.0
C448 C 0.31116 0.86188 0.16629 0.0
C449 C 0.23308 0.89433 0.10848 0.0
C450 C 0.19833 0.88463 0.12561 0.0
C451 C 0.22536 0.87522 0.14432 0.0
C452 C 0.13434 0.88219 0.12408 0.0
C453 C 0.20832 0.90163 0.08715 0.0
C454 C 0.1009 0.90773 0.1162 0.0
C455 C 0.04172 0.90384 0.11293 0.0
C456 C 0.01437 0.8748 0.11831 0.0
C457 C 0.04708 0.85016 0.12759 0.0
C458 C 0.10639 0.85369 0.13024 0.0
H459 H 0.24084 0.89823 0.07459 0.0
H460 H 0.17086 0.88598 0.08361 0.0
H461 H 0.19432 0.92718 0.08665 0.0
H462 H 0.12067 0.93051 0.11215 0.0
H463 H 0.01748 0.92339 0.10598 0.0
H464 H 0.94569 0.8618 0.40484 0.0
H465 H 0.84279 0.86839 0.39994 0.0
H466 H 0.8553 0.82521 0.33869 0.0
H467 H 0.95909 0.81774 0.34364 0.0
H468 H 0.78137 0.90166 0.37127 0.0
H469 H 0.72968 0.77113 0.36556 0.0
H470 H 0.79903 0.78553 0.37406 0.0
H471 H 0.78096 0.78553 0.34672 0.0
C472 C 0.92694 0.85366 0.39025 0.0
C473 C 0.96096 0.83887 0.37471 0.0
C474 C 0.86782 0.85751 0.38749 0.0
C475 C 0.84091 0.84674 0.36913 0.0
C476 C 0.8748 0.83297 0.35322 0.0
H477 H 0.47491 0.85921 0.3366 0.0
H478 H 0.57875 0.84939 0.33556 0.0
C479 C 0.93427 0.82895 0.35601 0.0
C480 C 0.77742 0.85022 0.36699 0.0
H481 H 0.65214 0.80754 0.36227 0.0
C482 C 0.75321 0.88106 0.36922 0.0
C483 C 0.7405 0.82334 0.36433 0.0
C484 C 0.76362 0.78945 0.3627 0.0
C485 C 0.6934 0.88573 0.3691 0.0
C486 C 0.65657 0.85883 0.36686 0.0
C487 C 0.68055 0.82809 0.36405 0.0
C488 C 0.59304 0.86229 0.36792 0.0
C489 C 0.66994 0.91946 0.37138 0.0
C490 C 0.5664 0.87186 0.38665 0.0
C491 C 0.50705 0.87732 0.38736 0.0
C492 C 0.47303 0.87344 0.36931 0.0
C493 C 0.49967 0.86261 0.35077 0.0
C494 C 0.55906 0.85697 0.35013 0.0
H495 H 0.70331 0.93802 0.36826 0.0
H496 H 0.63328 0.92342 0.36056 0.0
H497 H 0.65407 0.92288 0.38762 0.0
H498 H 0.59176 0.87565 0.40065 0.0
H499 H 0.48819 0.88547 0.40194 0.0
H500 H 0.99662 0.62465 0.82976 0.0
H501 H 0.89262 0.63449 0.82959 0.0
H502 H 0.88393 0.60894 0.89494 0.0
H503 H 0.9872 0.6 0.89544 0.0
H504 H 0.80693 0.59189 0.837 0.0
H505 H 0.7915 0.69037 0.89497 0.0
H506 H 0.85913 0.67823 0.88357 0.0
H507 H 0.8295 0.65648 0.90548 0.0
C508 C 0.97274 0.62176 0.8442 0.0
C509 C 0.00055 0.61159 0.86261 0.0
C510 C 0.9132 0.62724 0.84405 0.0
C511 C 0.88038 0.62288 0.86232 0.0
C512 C 0.90828 0.61327 0.88076 0.0
H513 H 0.53096 0.60292 0.90189 0.0
H514 H 0.63429 0.59929 0.89536 0.0
C515 C 0.96757 0.60795 0.88096 0.0
C516 C 0.81662 0.62633 0.86202 0.0
H517 H 0.70435 0.66067 0.88843 0.0
C518 C 0.78453 0.60733 0.84802 0.0
C519 C 0.7872 0.64658 0.87632 0.0
C520 C 0.81868 0.66931 0.89076 0.0
C521 C 0.72402 0.60696 0.84863 0.0
C522 C 0.69499 0.62601 0.8636 0.0
C523 C 0.72686 0.64577 0.87712 0.0
C524 C 0.63156 0.6252 0.86603 0.0
C525 C 0.69137 0.58541 0.83381 0.0
C526 C 0.5956 0.64042 0.85144 0.0
C527 C 0.53634 0.64271 0.85516 0.0
C528 C 0.512 0.62976 0.87353 0.0
C529 C 0.54801 0.61317 0.88758 0.0
C530 C 0.6072 0.61114 0.88392 0.0
H531 H 0.72038 0.5696 0.82454 0.0
H532 H 0.66065 0.5701 0.84266 0.0
H533 H 0.66601 0.60046 0.82282 0.0
H534 H 0.61364 0.65157 0.83758 0.0
H535 H 0.50999 0.65563 0.84399 0.0
H536 H 0.51557 0.4014 0.1504 0.0
H537 H 0.43882 0.40531 0.1767 0.0
H538 H 0.56616 0.40471 0.22574 0.0
H539 H 0.64245 0.40053 0.19987 0.0
H540 H 0.41331 0.36412 0.21187 0.0
H541 H 0.46994 0.48686 0.23739 0.0
H542 H 0.49111 0.4708 0.2122 0.0
H543 H 0.53344 0.46256 0.23521 0.0
C544 C 0.52705 0.4016 0.16681 0.0
C545 C 0.58511 0.40079 0.17307 0.0
C546 C 0.48323 0.40418 0.18175 0.0
C547 C 0.49718 0.40631 0.20303 0.0
C548 C 0.55479 0.4041 0.2093 0.0
H549 H 0.44818 0.34065 0.31503 0.0
H550 H 0.445 0.35188 0.27788 0.0
C551 C 0.59833 0.40147 0.19449 0.0
C552 C 0.45271 0.40971 0.21931 0.0
H553 H 0.43563 0.45031 0.26513 0.0
C554 C 0.4163 0.38351 0.22322 0.0
C555 C 0.45478 0.4356 0.23367 0.0
C556 C 0.48898 0.46572 0.22925 0.0
C557 C 0.38885 0.38032 0.24265 0.0
C558 C 0.39967 0.40348 0.25844 0.0
C559 C 0.42856 0.43205 0.25325 0.0
C560 C 0.39406 0.39538 0.28087 0.0
C561 C 0.35225 0.35097 0.24662 0.0
C562 C 0.36831 0.41676 0.2951 0.0
C563 C 0.37107 0.41068 0.31662 0.0
C564 C 0.39997 0.38328 0.32419 0.0
C565 C 0.42545 0.36197 0.30982 0.0
C566 C 0.42273 0.36804 0.28845 0.0
H567 H 0.32777 0.34439 0.23232 0.0
H568 H 0.3804 0.33024 0.25055 0.0
H569 H 0.32154 0.35493 0.2597 0.0
H570 H 0.34711 0.43839 0.28958 0.0
H571 H 0.35139 0.42766 0.32727 0.0
H572 H 0.00938 0.11144 0.84008 0.0
H573 H 0.93218 0.10682 0.81406 0.0
H574 H 0.05859 0.10641 0.76461 0.0
H575 H 0.13537 0.11125 0.79019 0.0
H576 H 0.90702 0.14721 0.77738 0.0
H577 H 0.96246 0.02236 0.75582 0.0
H578 H 0.98261 0.0401 0.78064 0.0
H579 H 0.02592 0.04679 0.75764 0.0
C580 C 0.02058 0.1109 0.82364 0.0
C581 C 0.07853 0.11146 0.81718 0.0
C582 C 0.97649 0.10796 0.80887 0.0
C583 C 0.9901 0.10531 0.78757 0.0
C584 C 0.04755 0.10751 0.78109 0.0
H585 H 0.94316 0.16227 0.67367 0.0
H586 H 0.93957 0.15391 0.71114 0.0
C587 C 0.09134 0.11048 0.79572 0.0
C588 C 0.94552 0.10084 0.7715 0.0
H589 H 0.92808 0.05675 0.72711 0.0
C590 C 0.90966 0.12692 0.76671 0.0
C591 C 0.94727 0.07385 0.75804 0.0
C592 C 0.98119 0.04402 0.76344 0.0
C593 C 0.8824 0.1287 0.74719 0.0
C594 C 0.89289 0.10423 0.73222 0.0
C595 C 0.92121 0.07595 0.73837 0.0
C596 C 0.88772 0.11058 0.70955 0.0
C597 C 0.84643 0.15792 0.7422 0.0
C598 C 0.86167 0.08829 0.69602 0.0
C599 C 0.86468 0.09268 0.67434 0.0
C600 C 0.89409 0.11932 0.66589 0.0
C601 C 0.91998 0.14152 0.67956 0.0
C602 C 0.91703 0.1371 0.70109 0.0
H603 H 0.82198 0.1658 0.75625 0.0
H604 H 0.87505 0.17813 0.73759 0.0
H605 H 0.81576 0.15311 0.72926 0.0
H606 H 0.83998 0.06725 0.70223 0.0
H607 H 0.84463 0.07506 0.66425 0.0
H608 H 0.71851 0.61665 0.70459 0.0
H609 H 0.64976 0.62161 0.73331 0.0
H610 H 0.51609 0.64612 0.68936 0.0
H611 H 0.584 0.64005 0.66047 0.0
H612 H 0.5799 0.67325 0.74647 0.0
H613 H 0.45144 0.56773 0.72022 0.0
H614 H 0.52178 0.5766 0.70979 0.0
H615 H 0.46003 0.59874 0.70087 0.0
C616 C 0.6745 0.62309 0.70099 0.0
C617 C 0.65667 0.6279 0.68018 0.0
C618 C 0.63542 0.6261 0.71745 0.0
C619 C 0.57788 0.63387 0.71339 0.0
C620 C 0.56024 0.63968 0.69275 0.0
H621 H 0.27453 0.63477 0.79125 0.0
H622 H 0.34402 0.64371 0.76319 0.0
C623 C 0.59923 0.63651 0.67627 0.0
C624 C 0.53593 0.63452 0.73072 0.0
H625 H 0.41589 0.59693 0.74913 0.0
C626 C 0.54391 0.65665 0.74709 0.0
C627 C 0.48938 0.61266 0.73145 0.0
C628 C 0.48025 0.58738 0.71476 0.0
C629 C 0.50588 0.65777 0.76414 0.0
C630 C 0.45938 0.63586 0.76485 0.0
C631 C 0.45143 0.61383 0.74843 0.0
C632 C 0.4186 0.63468 0.78255 0.0
C633 C 0.51533 0.68258 0.78107 0.0
C634 C 0.4377 0.62707 0.80279 0.0
C635 C 0.39804 0.62209 0.8189 0.0
C636 C 0.33876 0.62417 0.81488 0.0
C637 C 0.31994 0.63268 0.79474 0.0
C638 C 0.35954 0.63793 0.77873 0.0
H639 H 0.54229 0.70292 0.77543 0.0
H640 H 0.4738 0.69234 0.78687 0.0
H641 H 0.53792 0.67113 0.79443 0.0
H642 H 0.48304 0.6237 0.80594 0.0
H643 H 0.41368 0.61519 0.83421 0.0
H644 H 0.77913 0.88617 0.20288 0.0
H645 H 0.84892 0.8741 0.23026 0.0
H646 H 0.98422 0.87014 0.1841 0.0
H647 H 0.91496 0.88324 0.15663 0.0
H648 H 0.92702 0.82159 0.23544 0.0
H649 H 0.03681 0.93991 0.22583 0.0
H650 H 0.96741 0.93153 0.21447 0.0
H651 H 0.0315 0.91573 0.20257 0.0
C652 C 0.82372 0.88275 0.1985 0.0
C653 C 0.8416 0.88584 0.17756 0.0
C654 C 0.86339 0.8756 0.21416 0.0
C655 C 0.92158 0.87153 0.20917 0.0
C656 C 0.93945 0.87354 0.18823 0.0
H657 H 0.21723 0.86491 0.29088 0.0
H658 H 0.15394 0.8596 0.26069 0.0
C659 C 0.89978 0.88079 0.17255 0.0
C660 C 0.96372 0.86705 0.22613 0.0
H661 H 0.07403 0.90473 0.2512 0.0
C662 C 0.95949 0.8396 0.23887 0.0
C663 C 0.00564 0.89075 0.2305 0.0
C664 C 0.01057 0.92129 0.21777 0.0
C665 C 0.9964 0.83521 0.25599 0.0
C666 C 0.0377 0.85918 0.26054 0.0
C667 C 0.04238 0.88635 0.24758 0.0
C668 C 0.07571 0.85742 0.27899 0.0
C669 C 0.99113 0.80495 0.26893 0.0
C670 C 0.05261 0.85739 0.2993 0.0
C671 C 0.08876 0.8603 0.31665 0.0
C672 C 0.14837 0.8638 0.31386 0.0
C673 C 0.17139 0.86267 0.29352 0.0
C674 C 0.13537 0.85948 0.27626 0.0
H675 H 0.96977 0.78528 0.26005 0.0
H676 H 0.03395 0.79639 0.27422 0.0
H677 H 0.96465 0.81012 0.283 0.0
H678 H 0.00653 0.85654 0.30172 0.0
H679 H 0.06982 0.8613 0.33213 0.0
H680 H 0.70747 0.07478 0.5229 0.0
H681 H 0.64317 0.10036 0.49776 0.0
H682 H 0.72035 0.19261 0.51091 0.0
H683 H 0.78458 0.16738 0.53634 0.0
H684 H 0.56954 0.15086 0.51711 0.0
H685 H 0.68601 0.1913 0.44569 0.0
H686 H 0.71004 0.15767 0.46143 0.0
H687 H 0.72148 0.19819 0.47033 0.0
C688 C 0.71236 0.10034 0.5199 0.0
C689 C 0.75017 0.1192 0.53199 0.0
C690 C 0.67544 0.11488 0.50555 0.0
C691 C 0.67663 0.14833 0.50276 0.0
C692 C 0.71902 0.16668 0.51286 0.0
H693 H 0.44782 0.29913 0.47665 0.0
H694 H 0.4982 0.25527 0.49423 0.0
C695 C 0.75589 0.15218 0.52734 0.0
C696 C 0.62788 0.16454 0.49241 0.0
H697 H 0.59283 0.21322 0.45146 0.0
C698 C 0.57428 0.16414 0.50259 0.0
C699 C 0.63446 0.18171 0.47354 0.0
C700 C 0.69094 0.1822 0.46194 0.0
C701 C 0.52745 0.18164 0.49472 0.0
C702 C 0.53463 0.19975 0.47625 0.0
C703 C 0.58759 0.19913 0.46564 0.0
C704 C 0.48977 0.22181 0.46845 0.0
C705 C 0.47102 0.18123 0.50635 0.0
C706 C 0.4652 0.21664 0.44873 0.0
C707 C 0.43578 0.24154 0.4387 0.0
C708 C 0.43206 0.27224 0.44805 0.0
C709 C 0.45048 0.27596 0.46889 0.0
C710 C 0.47942 0.2509 0.47898 0.0
H711 H 0.46886 0.16115 0.51783 0.0
H712 H 0.46584 0.20428 0.51497 0.0
H713 H 0.43456 0.179 0.49523 0.0
H714 H 0.47254 0.19421 0.44046 0.0
H715 H 0.42133 0.23761 0.42279 0.0
H716 H 0.84615 0.3943 0.0693 0.0
H717 H 0.92363 0.37607 0.04619 0.0
H718 H 0.79823 0.3492 -0.00042 0.0
H719 H 0.72148 0.36842 0.02199 0.0
H720 H 0.94139 0.31733 0.03491 0.0
H721 H 0.91605 0.3864 0.9623 0.0
H722 H 0.88113 0.39848 0.9863 0.0
H723 H 0.84747 0.36976 0.96894 0.0
C724 C 0.83528 0.38538 0.05387 0.0
C725 C 0.77752 0.38267 0.04755 0.0
C726 C 0.87963 0.37492 0.04069 0.0
C727 C 0.86697 0.36162 0.02099 0.0
C728 C 0.80949 0.36026 0.01438 0.0
H729 H 0.99053 0.19575 0.96177 0.0
H730 H 0.95718 0.23736 0.98587 0.0
C731 C 0.76538 0.371 0.02738 0.0
C732 C 0.91191 0.3451 0.00846 0.0
H733 H 0.95048 0.3306 0.95786 0.0
C734 C 0.94454 0.32082 0.01812 0.0
C735 C 0.91762 0.35007 0.98664 0.0
C736 C 0.8891 0.3779 0.97556 0.0
C737 C 0.97858 0.29962 0.00632 0.0
C738 C 0.97816 0.302 0.98422 0.0
C739 C 0.94973 0.32808 0.97476 0.0
C740 C 0.00254 0.27646 0.97054 0.0
C741 C 0.01366 0.27459 0.01771 0.0
C742 C 0.03778 0.28456 0.95348 0.0
C743 C 0.05539 0.26089 0.93929 0.0
C744 C 0.03865 0.2286 0.94205 0.0
C745 C 0.00462 0.22036 0.95939 0.0
C746 C 0.98604 0.24414 0.97332 0.0
H747 H 0.02808 0.28383 0.03317 0.0
H748 H 0.9866 0.25303 0.02067 0.0
H749 H 0.05207 0.26721 0.00856 0.0
H750 H 0.05085 0.30931 0.95092 0.0
H751 H 0.0819 0.26791 0.92611 0.0
H752 H 0.94252 0.19301 0.51151 0.0
H753 H 0.99784 0.23479 0.49373 0.0
H754 H 0.96716 0.29998 0.54506 0.0
H755 H 0.91134 0.25857 0.56301 0.0
H756 H 0.98694 0.30775 0.48463 0.0
H757 H 0.14549 0.27009 0.5453 0.0
H758 H 0.08402 0.24566 0.53855 0.0
H759 H 0.0746 0.28143 0.55394 0.0
C760 C 0.94522 0.21664 0.51866 0.0
C761 C 0.92431 0.22203 0.53904 0.0
C762 C 0.97711 0.24047 0.50847 0.0
C763 C 0.98787 0.26994 0.51846 0.0
C764 C 0.95997 0.27707 0.53734 0.0
H765 H 0.21504 0.41727 0.46904 0.0
H766 H 0.1482 0.39001 0.49261 0.0
C767 C 0.92785 0.25334 0.5475 0.0
C768 C 0.03538 0.29047 0.51096 0.0
H769 H 0.17677 0.3078 0.52026 0.0
C770 C 0.02821 0.30817 0.49252 0.0
C771 C 0.08935 0.29034 0.52122 0.0
C772 C 0.09939 0.27077 0.5408 0.0
C773 C 0.07401 0.32577 0.48393 0.0
C774 C 0.12801 0.32561 0.49416 0.0
C775 C 0.13509 0.30804 0.51267 0.0
C776 C 0.1781 0.34214 0.48491 0.0
C777 C 0.06499 0.34366 0.46362 0.0
C778 C 0.2199 0.32422 0.47416 0.0
C779 C 0.25845 0.33971 0.4607 0.0
C780 C 0.25501 0.37326 0.45776 0.0
C781 C 0.21811 0.39134 0.47072 0.0
C782 C 0.1797 0.37584 0.48414 0.0
H783 H 0.02313 0.33764 0.45622 0.0
H784 H 0.06599 0.36999 0.46666 0.0
H785 H 0.10006 0.33801 0.45239 0.0
H786 H 0.21947 0.29812 0.47477 0.0
H787 H 0.28648 0.32507 0.45103 0.0
H788 H 0.53228 0.31477 0.02361 0.0
H789 H 0.48944 0.27544 -0.0002 0.0
H790 H 0.49223 0.20373 0.0486 0.0
H791 H 0.53553 0.2427 0.07257 0.0
H792 H 0.52275 0.18109 0.00569 0.0
H793 H 0.31793 0.24986 0.01148 0.0
H794 H 0.37999 0.27297 0.00399 0.0
H795 H 0.3764 0.25549 0.02967 0.0
C796 C 0.52449 0.29055 0.02926 0.0
C797 C 0.53652 0.28206 0.05012 0.0
C798 C 0.50013 0.26812 0.01561 0.0
C799 C 0.48725 0.2369 0.02258 0.0
C800 C 0.50195 0.22776 0.04298 0.0
H801 H 0.21838 0.12085 0.97006 0.0
H802 H 0.28944 0.14268 0.99428 0.0
C803 C 0.52639 0.25015 0.05667 0.0
C804 C 0.45323 0.21493 0.0093 0.0
H805 H 0.32006 0.20621 0.98792 0.0
C806 C 0.4784 0.18642 0.00178 0.0
C807 C 0.39524 0.22189 0.00456 0.0
C808 C 0.36544 0.25156 0.01295 0.0
C809 C 0.44699 0.16485 0.98923 0.0
C810 C 0.38936 0.17224 0.98415 0.0
C811 C 0.36427 0.20058 0.99191 0.0
C812 C 0.35367 0.15163 0.97046 0.0
C813 C 0.47529 0.13427 0.9817 0.0
C814 C 0.36738 0.1481 0.94919 0.0
C815 C 0.32686 0.13545 0.93527 0.0
C816 C 0.27181 0.12668 0.94245 0.0
C817 C 0.26014 0.12778 0.96402 0.0
C818 C 0.30073 0.14016 0.9779 0.0
H819 H 0.51409 0.12831 0.99107 0.0
H820 H 0.44486 0.11367 0.98243 0.0
H821 H 0.48874 0.13739 0.96516 0.0
H822 H 0.40767 0.15723 0.94309 0.0
H823 H 0.33717 0.1349 0.91874 0.0
H824 H 0.2443 0.87755 0.47023 0.0
H825 H 0.31501 0.87779 0.49851 0.0
H826 H 0.44414 0.84249 0.45559 0.0
H827 H 0.37448 0.84424 0.42711 0.0
H828 H 0.35625 0.82648 0.51288 0.0
H829 H 0.54331 0.89898 0.48937 0.0
H830 H 0.47534 0.9019 0.47587 0.0
H831 H 0.52697 0.87129 0.46874 0.0
C832 C 0.28824 0.87065 0.46679 0.0
C833 C 0.30399 0.86046 0.44663 0.0
C834 C 0.32866 0.87095 0.4829 0.0
C835 C 0.38519 0.8604 0.47923 0.0
C836 C 0.40148 0.85169 0.45879 0.0
H837 H 0.60683 0.73513 0.53574 0.0
H838 H 0.55837 0.77528 0.51416 0.0
C839 C 0.36141 0.85224 0.44254 0.0
C840 C 0.42351 0.85288 0.49713 0.0
H841 H 0.56444 0.85225 0.51211 0.0
C842 C 0.40134 0.83311 0.51306 0.0
C843 C 0.48245 0.86147 0.49749 0.0
C844 C 0.50805 0.88489 0.48203 0.0
C845 C 0.43716 0.81965 0.52828 0.0
C846 C 0.49673 0.82597 0.52749 0.0
C847 C 0.51864 0.84736 0.5125 0.0
C848 C 0.53674 0.80654 0.54009 0.0
C849 C 0.4118 0.79681 0.54422 0.0
C850 C 0.54203 0.81155 0.5617 0.0
C851 C 0.56973 0.7886 0.57414 0.0
C852 C 0.59178 0.76024 0.56507 0.0
C853 C 0.5896 0.7565 0.54322 0.0
C854 C 0.56244 0.77953 0.53084 0.0
H855 H 0.36469 0.79366 0.54224 0.0
H856 H 0.43278 0.77284 0.54295 0.0
H857 H 0.41998 0.80613 0.56023 0.0
H858 H 0.52205 0.83226 0.56904 0.0
H859 H 0.57094 0.79221 0.59092 0.0
H860 H 0.89298 0.73957 0.07354 0.0
H861 H 0.93702 0.70051 0.04977 0.0
H862 H 0.95591 0.77441 0.00286 0.0
H863 H 0.91235 0.81382 0.02649 0.0
H864 H 0.91159 0.68081 0.00624 0.0
H865 H 0.12205 0.7422 0.01683 0.0
H866 H 0.06169 0.7491 0.03404 0.0
H867 H 0.06401 0.76792 0.00873 0.0
C868 C 0.90588 0.74753 0.05809 0.0
C869 C 0.89986 0.78001 0.05205 0.0
C870 C 0.93078 0.72509 0.04451 0.0
C871 C 0.95019 0.73474 0.02471 0.0
C872 C 0.94163 0.76666 0.0182 0.0
H873 H 0.09478 0.63356 0.91971 0.0
H874 H 0.0263 0.65613 0.94474 0.0
C875 C 0.91673 0.78912 0.03174 0.0
C876 C 0.98379 0.71223 0.01159 0.0
H877 H 0.11807 0.70067 0.99163 0.0
C878 C 0.95679 0.68496 0.00305 0.0
C879 C 0.0429 0.71752 0.00784 0.0
C880 C 0.07469 0.74559 0.01746 0.0
C881 C 0.98735 0.66319 0.99034 0.0
C882 C 0.04606 0.66914 0.98603 0.0
C883 C 0.07306 0.69609 0.99496 0.0
C884 C 0.08074 0.64871 0.97179 0.0
C885 C 0.95678 0.63397 0.9818 0.0
C886 C 0.1334 0.63616 0.97873 0.0
C887 C 0.17297 0.62371 0.96444 0.0
C888 C 0.16052 0.62351 0.94292 0.0
C889 C 0.10566 0.63335 0.9362 0.0
C890 C 0.06626 0.64615 0.95052 0.0
H891 H 0.91826 0.62784 0.99129 0.0
H892 H 0.94226 0.63908 0.96559 0.0
H893 H 0.98581 0.61273 0.98132 0.0
H894 H 0.14534 0.63783 0.99509 0.0
H895 H 0.21462 0.61599 0.97012 0.0
H896 H 0.08746 0.79569 0.43763 0.0
H897 H 0.0387 0.76948 0.46696 0.0
H898 H 0.08463 0.67626 0.44195 0.0
H899 H 0.13061 0.70242 0.41205 0.0
H900 H 0.97863 0.67562 0.45143 0.0
H901 H 0.09208 0.72786 0.51921 0.0
H902 H 0.06357 0.75927 0.50303 0.0
H903 H 0.11812 0.73267 0.49278 0.0
C904 C 0.08768 0.76964 0.43855 0.0
C905 C 0.11249 0.75105 0.42255 0.0
C906 C 0.06029 0.75464 0.45544 0.0
C907 C 0.05881 0.72082 0.45694 0.0
C908 C 0.08522 0.70235 0.44121 0.0
H909 H 0.89334 0.63655 0.56848 0.0
H910 H 0.96679 0.64869 0.54205 0.0
C911 C 0.11142 0.7173 0.42413 0.0
C912 C 0.0252 0.70467 0.47373 0.0
H913 H 0.99757 0.70573 0.52623 0.0
C914 C 0.98361 0.68186 0.46782 0.0
C915 C 0.03224 0.7121 0.49521 0.0
C916 C 0.07942 0.73404 0.50293 0.0
C917 C 0.94706 0.66759 0.48259 0.0
C918 C 0.9506 0.67727 0.50378 0.0
C919 C 0.9942 0.69869 0.50992 0.0
C920 C 0.90651 0.66765 0.51937 0.0
C921 C 0.90474 0.64245 0.47523 0.0
C922 C 0.84842 0.6743 0.51542 0.0
C923 C 0.80655 0.66708 0.53029 0.0
C924 C 0.82183 0.65361 0.5497 0.0
C925 C 0.88008 0.64677 0.55366 0.0
C926 C 0.9221 0.65378 0.5386 0.0
H927 H 0.92149 0.62928 0.46136 0.0
H928 H 0.89491 0.62468 0.48773 0.0
H929 H 0.86417 0.65446 0.47049 0.0
H930 H 0.83546 0.68589 0.50099 0.0
H931 H 0.76227 0.673 0.52673 0.0
H932 H 0.40078 0.76572 0.91861 0.0
H933 H 0.44492 0.80421 0.94271 0.0
H934 H 0.45322 0.73086 0.99038 0.0
H935 H 0.40951 0.69202 0.96643 0.0
H936 H 0.41534 0.82521 0.98563 0.0
H937 H 0.62287 0.75935 0.979 0.0
H938 H 0.56439 0.75325 0.96088 0.0
H939 H 0.56204 0.73517 0.98641 0.0
C940 C 0.41141 0.75777 0.93428 0.0
C941 C 0.4023 0.72559 0.94047 0.0
C942 C 0.43638 0.77989 0.94805 0.0
C943 C 0.45279 0.77022 0.96819 0.0
C944 C 0.4413 0.73863 0.97478 0.0
H945 H 0.5969 0.87365 0.07299 0.0
H946 H 0.52838 0.85005 0.04838 0.0
C947 C 0.41632 0.71648 0.96105 0.0
C948 C 0.48615 0.79232 0.98166 0.0
H949 H 0.61896 0.80223 0.00318 0.0
C950 C 0.4599 0.82034 0.98948 0.0
C951 C 0.54442 0.78601 0.98634 0.0
C952 C 0.57544 0.75698 0.97762 0.0
C953 C 0.49043 0.84201 0.00226 0.0
C954 C 0.54834 0.83524 0.00732 0.0
C955 C 0.57455 0.8074 -0.00075 0.0
C956 C 0.58317 0.85604 0.02125 0.0
C957 C 0.46084 0.87206 0.01002 0.0
C958 C 0.63596 0.86812 0.01406 0.0
C959 C 0.67541 0.88127 0.0281 0.0
C960 C 0.6628 0.88256 0.04961 0.0
C961 C 0.60788 0.87306 0.05652 0.0
C962 C 0.56851 0.85964 0.04244 0.0
H963 H 0.42234 0.87795 0.00048 0.0
H964 H 0.4466 0.86825 0.02642 0.0
H965 H 0.49061 0.89299 0.00979 0.0
H966 H 0.64802 0.86563 -0.00225 0.0
H967 H 0.71712 0.88867 0.02226 0.0
H968 H 0.30143 0.01091 0.3302 0.0
H969 H 0.29988 0.06968 0.32698 0.0
H970 H 0.33713 0.07879 0.39279 0.0
H971 H 0.33891 0.02011 0.39622 0.0
H972 H 0.22612 0.11324 0.34914 0.0
H973 H 0.45649 0.13831 0.36441 0.0
H974 H 0.43051 0.09879 0.35723 0.0
H975 H 0.42288 0.11301 0.38367 0.0
C976 C 0.31 0.02534 0.34398 0.0
C977 C 0.32051 0.01061 0.36348 0.0
C978 C 0.30885 0.05898 0.34209 0.0
C979 C 0.31887 0.07864 0.35958 0.0
C980 C 0.33012 0.0641 0.379 0.0
H981 H 0.3208 0.2755 0.39643 0.0
H982 H 0.32431 0.2174 0.39204 0.0
C983 C 0.33096 0.03048 0.38094 0.0
C984 C 0.3155 0.11434 0.35779 0.0
H985 H 0.39287 0.18321 0.36565 0.0
C986 C 0.26268 0.12861 0.3525 0.0
C987 C 0.36329 0.13431 0.3621 0.0
C988 C 0.42168 0.1204 0.36699 0.0
C989 C 0.25569 0.16233 0.35241 0.0
C990 C 0.30314 0.18231 0.35733 0.0
C991 C 0.35642 0.16795 0.36191 0.0
C992 C 0.29782 0.21793 0.35959 0.0
C993 C 0.19698 0.17621 0.34801 0.0
C994 C 0.28117 0.23789 0.34283 0.0
C995 C 0.27886 0.27156 0.34533 0.0
C996 C 0.29391 0.28574 0.36456 0.0
C997 C 0.30966 0.26553 0.3813 0.0
C998 C 0.31162 0.23217 0.37884 0.0
H999 H 0.16272 0.15761 0.34894 0.0
H1000 H 0.18666 0.19585 0.35922 0.0
H1001 H 0.19651 0.18653 0.33199 0.0
H1002 H 0.2712 0.22752 0.32771 0.0
H1003 H 0.26693 0.28645 0.33211 0.0
H1004 H 0.28542 0.22057 0.87128 0.0
H1005 H 0.2946 0.27781 0.86295 0.0
H1006 H 0.19772 0.26319 0.80628 0.0
H1007 H 0.18744 0.20611 0.81484 0.0
H1008 H 0.31534 0.32552 0.828 0.0
H1009 H 0.08687 0.30595 0.85089 0.0
H1010 H 0.14133 0.27552 0.85443 0.0
H1011 H 0.11217 0.28298 0.82887 0.0
C1012 C 0.26982 0.22907 0.85628 0.0
C1013 C 0.23517 0.2091 0.84381 0.0
C1014 C 0.27445 0.26195 0.85165 0.0
C1015 C 0.24529 0.27481 0.83434 0.0
C1016 C 0.21989 0.25374 0.81987 0.0
H1017 H 0.18161 0.48172 0.816 0.0
H1018 H 0.20269 0.42485 0.80953 0.0
C1019 C 0.21475 0.22099 0.82461 0.0
C1020 C 0.22925 0.30939 0.83438 0.0
H1021 H 0.11554 0.35919 0.84459 0.0
C1022 C 0.27162 0.33298 0.83136 0.0
C1023 C 0.17228 0.31896 0.83928 0.0
C1024 C 0.12548 0.29464 0.84373 0.0
C1025 C 0.25841 0.366 0.83314 0.0
C1026 C 0.20133 0.37547 0.83789 0.0
C1027 C 0.15907 0.35184 0.84077 0.0
C1028 C 0.18513 0.40967 0.84128 0.0
C1029 C 0.30595 0.39044 0.83067 0.0
C1030 C 0.16555 0.41973 0.86102 0.0
C1031 C 0.15294 0.45217 0.86477 0.0
C1032 C 0.15941 0.47524 0.84879 0.0
C1033 C 0.17624 0.46472 0.82872 0.0
C1034 C 0.18897 0.43225 0.82501 0.0
H1035 H 0.34917 0.37907 0.83123 0.0
H1036 H 0.30133 0.40272 0.81534 0.0
H1037 H 0.30332 0.40907 0.84313 0.0
H1038 H 0.16167 0.40259 0.87374 0.0
H1039 H 0.14008 0.45929 0.8804 0.0
H1040 H 0.84675 0.47941 0.59405 0.0
H1041 H 0.83983 0.42057 0.59585 0.0
H1042 H 0.81575 0.426 0.66266 0.0
H1043 H 0.82225 0.48467 0.6611 0.0
H1044 H 0.90541 0.37496 0.61945 0.0
H1045 H 0.67471 0.37427 0.64234 0.0
H1046 H 0.70965 0.40951 0.6317 0.0
H1047 H 0.7211 0.39832 0.65853 0.0
C1048 C 0.84046 0.46814 0.60917 0.0
C1049 C 0.8347 0.48695 0.6274 0.0
C1050 C 0.83639 0.43448 0.61016 0.0
C1051 C 0.82612 0.41895 0.62933 0.0
C1052 C 0.82245 0.4375 0.64764 0.0
H1053 H 0.768 0.21305 0.65689 0.0
H1054 H 0.77731 0.272 0.66049 0.0
C1055 C 0.82661 0.47111 0.6467 0.0
C1056 C 0.81896 0.38338 0.63014 0.0
H1057 H 0.72152 0.32381 0.64074 0.0
C1058 C 0.86526 0.36378 0.62414 0.0
C1059 C 0.76664 0.36881 0.63642 0.0
C1060 C 0.71493 0.38872 0.64247 0.0
C1061 C 0.86066 0.33001 0.62416 0.0
C1062 C 0.80785 0.31542 0.62991 0.0
C1063 C 0.76193 0.335 0.63637 0.0
C1064 C 0.7986 0.28009 0.6279 0.0
C1065 C 0.91263 0.31029 0.61811 0.0
C1066 C 0.80523 0.26534 0.60832 0.0
C1067 C 0.8001 0.23203 0.60627 0.0
C1068 C 0.78747 0.21255 0.62372 0.0
C1069 C 0.77778 0.22741 0.64319 0.0
C1070 C 0.78333 0.26101 0.64526 0.0
H1071 H 0.95316 0.32389 0.62069 0.0
H1072 H 0.91465 0.28745 0.62715 0.0
H1073 H 0.91016 0.30423 0.60121 0.0
H1074 H 0.8152 0.27959 0.59458 0.0
H1075 H 0.80679 0.22146 0.59095 0.0
H1076 H 0.65483 0.0493 0.1075 0.0
H1077 H 0.67809 0.10611 0.11286 0.0
H1078 H 0.70219 0.08873 0.17879 0.0
H1079 H 0.67967 0.03176 0.17363 0.0
H1080 H 0.62816 0.1524 0.13783 0.0
H1081 H 0.85455 0.13117 0.16178 0.0
H1082 H 0.81083 0.10036 0.14972 0.0
H1083 H 0.80179 0.10986 0.17698 0.0
C1084 C 0.6643 0.05753 0.12321 0.0
C1085 C 0.66569 0.03578 0.1401 0.0
C1086 C 0.67797 0.09003 0.12622 0.0
C1087 C 0.69342 0.10145 0.14612 0.0
C1088 C 0.69202 0.08023 0.1632 0.0
H1089 H 0.69184 0.30256 0.17495 0.0
H1090 H 0.70387 0.24509 0.18186 0.0
C1091 C 0.67842 0.04771 0.16023 0.0
C1092 C 0.71017 0.13569 0.14894 0.0
H1093 H 0.82096 0.1852 0.16354 0.0
C1094 C 0.67023 0.15953 0.1435 0.0
C1095 C 0.76541 0.14493 0.15616 0.0
C1096 C 0.81091 0.1203 0.16133 0.0
C1097 C 0.68378 0.19234 0.14513 0.0
C1098 C 0.73855 0.20162 0.1527 0.0
C1099 C 0.77881 0.17791 0.15805 0.0
C1100 C 0.75411 0.23615 0.15398 0.0
C1101 C 0.63962 0.21695 0.13842 0.0
C1102 C 0.78368 0.25054 0.13726 0.0
C1103 C 0.77775 0.28363 0.13353 0.0
C1104 C 0.74133 0.3022 0.14628 0.0
C1105 C 0.72046 0.28876 0.16498 0.0
C1106 C 0.72674 0.2558 0.16881 0.0
H1107 H 0.60282 0.20575 0.13006 0.0
H1108 H 0.62271 0.22963 0.15243 0.0
H1109 H 0.65946 0.23528 0.12801 0.0
H1110 H 0.80511 0.23572 0.12567 0.0
H1111 H 0.7938 0.29334 0.1189 0.0
H1112 H 0.76107 0.73844 0.67742 0.0
H1113 H 0.79778 0.79344 0.67938 0.0
H1114 H 0.9098 0.77443 0.62706 0.0
H1115 H 0.87312 0.71927 0.625 0.0
H1116 H 0.90887 0.83444 0.67554 0.0
H1117 H 0.76358 0.82866 0.60629 0.0
H1118 H 0.76613 0.79697 0.62557 0.0
H1119 H 0.82306 0.80099 0.60677 0.0
C1120 C 0.79618 0.74532 0.66719 0.0
C1121 C 0.81338 0.72481 0.65078 0.0
C1122 C 0.81698 0.77688 0.66827 0.0
C1123 C 0.85537 0.78819 0.65303 0.0
C1124 C 0.87982 0.76615 0.63888 0.0
H1125 H 0.84678 0.9787 0.59796 0.0
H1126 H 0.87379 0.92355 0.60665 0.0
C1127 C 0.85914 0.73446 0.63784 0.0
C1128 C 0.85719 0.82326 0.64859 0.0
H1129 H 0.79839 0.87919 0.61586 0.0
C1130 C 0.88544 0.84433 0.66236 0.0
C1131 C 0.82572 0.83607 0.63156 0.0
C1132 C 0.79248 0.81466 0.61673 0.0
C1133 C 0.88346 0.878 0.65938 0.0
C1134 C 0.85121 0.89077 0.64249 0.0
C1135 C 0.82346 0.8695 0.62871 0.0
C1136 C 0.84388 0.92597 0.63872 0.0
C1137 C 0.91628 0.89946 0.67419 0.0
C1138 C 0.81927 0.94618 0.65399 0.0
C1139 C 0.80439 0.97809 0.6491 0.0
C1140 C 0.81263 0.99 0.62872 0.0
C1141 C 0.83918 0.97011 0.61374 0.0
C1142 C 0.85487 0.93857 0.61872 0.0
H1143 H 0.9523 0.88629 0.68175 0.0
H1144 H 0.93385 0.92091 0.66599 0.0
H1145 H 0.88689 0.90789 0.68675 0.0
H1146 H 0.80901 0.93691 0.66939 0.0
H1147 H 0.78382 0.99283 0.66093 0.0
H1148 H 0.76838 0.53168 0.17086 0.0
H1149 H 0.74418 0.58822 0.17672 0.0
H1150 H 0.75954 0.60677 0.11056 0.0
H1151 H 0.78414 0.55025 0.10445 0.0
H1152 H 0.80976 0.65391 0.13597 0.0
H1153 H 0.58626 0.62686 0.16128 0.0
H1154 H 0.6415 0.60595 0.17548 0.0
H1155 H 0.63118 0.59764 0.14814 0.0
C1156 C 0.76746 0.54781 0.15753 0.0
C1157 C 0.77775 0.53626 0.13712 0.0
C1158 C 0.75297 0.58007 0.16092 0.0
C1159 C 0.74839 0.60139 0.14401 0.0
C1160 C 0.76206 0.59051 0.12379 0.0
H1161 H 0.63945 0.79206 0.11997 0.0
H1162 H 0.62911 0.73421 0.12595 0.0
C1163 C 0.77655 0.55823 0.12036 0.0
C1164 C 0.72946 0.63509 0.14733 0.0
H1165 H 0.61611 0.68151 0.16354 0.0
C1166 C 0.76752 0.65993 0.14203 0.0
C1167 C 0.674 0.64281 0.15508 0.0
C1168 C 0.63055 0.61697 0.16017 0.0
C1169 C 0.75187 0.69233 0.14437 0.0
C1170 C 0.69685 0.70009 0.15246 0.0
C1171 C 0.65845 0.67535 0.15765 0.0
C1172 C 0.6791 0.73414 0.15446 0.0
C1173 C 0.79412 0.71816 0.13791 0.0
C1174 C 0.7052 0.75349 0.16973 0.0
C1175 C 0.71091 0.78659 0.16635 0.0
C1176 C 0.69089 0.80034 0.14763 0.0
C1177 C 0.65499 0.78203 0.13457 0.0
C1178 C 0.64961 0.74883 0.13786 0.0
H1179 H 0.83171 0.7081 0.12938 0.0
H1180 H 0.77284 0.73628 0.12774 0.0
H1181 H 0.8101 0.73086 0.15205 0.0
H1182 H 0.72795 0.74253 0.1827 0.0
H1183 H 0.73895 0.80025 0.1766 0.0
H1184 H 0.3197 0.52735 0.39475 0.0
H1185 H 0.33925 0.583 0.3845 0.0
H1186 H 0.32046 0.55711 0.31953 0.0
H1187 H 0.30081 0.5011 0.32959 0.0
H1188 H 0.42487 0.61174 0.35381 0.0
H1189 H 0.19369 0.62745 0.33327 0.0
H1190 H 0.21818 0.59487 0.34971 0.0
H1191 H 0.23137 0.5937 0.32206 0.0
C1192 C 0.32018 0.53332 0.37824 0.0
C1193 C 0.30785 0.50978 0.363 0.0
C1194 C 0.33177 0.56514 0.37243 0.0
C1195 C 0.33095 0.5742 0.35129 0.0
C1196 C 0.32105 0.5506 0.33595 0.0
H1197 H 0.26795 0.77097 0.31305 0.0
H1198 H 0.30126 0.71551 0.30871 0.0
C1199 C 0.30981 0.51862 0.34173 0.0
C1200 C 0.33525 0.60881 0.34566 0.0
H1201 H 0.25225 0.673 0.33177 0.0
C1202 C 0.38744 0.62518 0.34869 0.0
C1203 C 0.28642 0.62619 0.33895 0.0
C1204 C 0.22902 0.60988 0.33587 0.0
C1205 C 0.39177 0.65869 0.34551 0.0
C1206 C 0.34216 0.67638 0.33972 0.0
C1207 C 0.29055 0.65963 0.33603 0.0
C1208 C 0.34012 0.71234 0.33942 0.0
C1209 C 0.4494 0.67468 0.34845 0.0
C1210 C 0.35478 0.73002 0.35743 0.0
C1211 C 0.33728 0.76215 0.35965 0.0
C1212 C 0.30331 0.7768 0.34415 0.0
C1213 C 0.29425 0.76032 0.32521 0.0
C1214 C 0.31282 0.72846 0.32282 0.0
H1215 H 0.48497 0.65788 0.34446 0.0
H1216 H 0.45362 0.69669 0.33869 0.0
H1217 H 0.45451 0.68151 0.36515 0.0
H1218 H 0.3747 0.71823 0.37068 0.0
H1219 H 0.34418 0.774 0.37455 0.0
H1220 H 0.23779 0.70797 0.81623 0.0
H1221 H 0.22727 0.76549 0.80914 0.0
H1222 H 0.13221 0.77682 0.86661 0.0
H1223 H 0.14192 0.71916 0.87354 0.0
H1224 H 0.11286 0.82692 0.83057 0.0
H1225 H 0.33727 0.8043 0.85728 0.0
H1226 H 0.31305 0.78158 0.83498 0.0
H1227 H 0.28096 0.77473 0.86015 0.0
C1228 C 0.21077 0.72227 0.8265 0.0
C1229 C 0.19124 0.70936 0.84554 0.0
C1230 C 0.20539 0.75524 0.82256 0.0
C1231 C 0.1804 0.77541 0.83766 0.0
C1232 C 0.15189 0.7616 0.85482 0.0
H1233 H 0.28618 0.96077 0.88411 0.0
H1234 H 0.26352 0.90389 0.87841 0.0
C1235 C 0.15687 0.72851 0.85866 0.0
C1236 C 0.19724 0.80976 0.83856 0.0
H1237 H 0.3114 0.85802 0.85083 0.0
C1238 C 0.15628 0.83383 0.83481 0.0
C1239 C 0.25375 0.81854 0.84456 0.0
C1240 C 0.29888 0.79355 0.84965 0.0
C1241 C 0.17062 0.86664 0.83678 0.0
C1242 C 0.2274 0.87536 0.84249 0.0
C1243 C 0.26812 0.85122 0.8463 0.0
C1244 C 0.24495 0.90939 0.84543 0.0
C1245 C 0.12462 0.89171 0.83333 0.0
C1246 C 0.24453 0.93097 0.82856 0.0
C1247 C 0.25793 0.96344 0.83171 0.0
C1248 C 0.27202 0.97498 0.85181 0.0
C1249 C 0.27552 0.95283 0.86844 0.0
C1250 C 0.26222 0.92032 0.86524 0.0
H1251 H 0.08083 0.881 0.83347 0.0
H1252 H 0.12683 0.91074 0.84554 0.0
H1253 H 0.13142 0.90334 0.81789 0.0
H1254 H 0.23275 0.92281 0.81304 0.0
H1255 H 0.25505 0.9797 0.81849 0.0
H1256 H 0.70228 0.55205 0.54451 0.0
H1257 H 0.63151 0.54119 0.51718 0.0
H1258 H 0.49784 0.58196 0.55573 0.0
H1259 H 0.56867 0.59314 0.58331 0.0
H1260 H 0.48416 0.51326 0.53363 0.0
H1261 H 0.53982 0.61728 0.48282 0.0
H1262 H 0.59922 0.5961 0.49454 0.0
H1263 H 0.54976 0.61774 0.51091 0.0
C1264 C 0.65782 0.55851 0.54732 0.0
C1265 C 0.64116 0.57362 0.56608 0.0
C1266 C 0.61755 0.55253 0.5316 0.0
C1267 C 0.55982 0.56126 0.53437 0.0
C1268 C 0.54243 0.57544 0.55326 0.0
H1269 H 0.32704 0.4717 0.44318 0.0
H1270 H 0.34706 0.51237 0.47025 0.0
C1271 C 0.5829 0.58177 0.56896 0.0
C1272 C 0.51811 0.55445 0.51749 0.0
H1273 H 0.48924 0.57379 0.46669 0.0
C1274 C 0.48375 0.52687 0.51914 0.0
C1275 C 0.51799 0.57244 0.49874 0.0
C1276 C 0.55331 0.60273 0.49656 0.0
C1277 C 0.453 0.51511 0.50183 0.0
C1278 C 0.45579 0.53197 0.48252 0.0
C1279 C 0.48675 0.56101 0.48147 0.0
C1280 C 0.43755 0.51644 0.46265 0.0
C1281 C 0.42213 0.48324 0.50392 0.0
C1282 C 0.48026 0.50781 0.44817 0.0
C1283 C 0.46863 0.48521 0.43261 0.0
C1284 C 0.41405 0.47103 0.43118 0.0
C1285 C 0.36929 0.48265 0.44387 0.0
C1286 C 0.38097 0.50545 0.45953 0.0
H1287 H 0.43091 0.47131 0.51915 0.0
H1288 H 0.37509 0.4872 0.50273 0.0
H1289 H 0.4352 0.46657 0.49117 0.0
H1290 H 0.52412 0.51607 0.45014 0.0
H1291 H 0.50386 0.47634 0.42309 0.0
H1292 H 0.77839 1.0011 0.05665 0.0
H1293 H 0.83798 0.01814 0.0273 0.0
H1294 H 0.97239 0.95354 0.04724 0.0
H1295 H 0.9129 0.93618 0.07676 0.0
H1296 H 0.94973 0.04453 0.02503 0.0
H1297 H 0.93531 0.92423 0.98688 0.0
H1298 H 0.88912 0.93597 0.00829 0.0
H1299 H 0.96216 0.92419 0.01325 0.0
C1300 C 0.82086 0.99068 0.05501 0.0
C1301 C 0.84039 0.96666 0.06884 0.0
C1302 C 0.8548 1.00048 0.03818 0.0
C1303 C 0.90885 0.98651 0.03487 0.0
C1304 C 0.93008 0.964 0.0493 0.0
H1305 H 0.16077 0.00801 0.93675 0.0
H1306 H 0.10386 0.99062 0.96674 0.0
C1307 C 0.8961 0.95415 0.06617 0.0
C1308 C 0.94177 0.99481 0.01585 0.0
H1309 H 0.99246 0.96349 0.96999 0.0
C1310 C 0.95913 0.02687 0.01297 0.0
C1311 C 0.95354 0.97163 0.00017 0.0
C1312 C 0.93373 0.93711 0.00212 0.0
C1313 C 0.98877 0.03635 0.99488 0.0
C1314 C 0.00027 0.01322 0.97915 0.0
C1315 C 0.98319 0.98112 0.98207 0.0
C1316 C 0.03176 0.02175 0.95986 0.0
C1317 C 0.00853 0.07088 0.99291 0.0
C1318 C 0.00891 0.04407 0.94564 0.0
C1319 C 0.0413 0.05408 0.9284 0.0
C1320 C 0.09704 0.04194 0.92516 0.0
C1321 C 0.11822 0.01813 0.93883 0.0
C1322 C 0.08583 0.00814 0.95601 0.0
H1323 H 0.00775 0.08362 0.00821 0.0
H1324 H 0.0528 0.07208 0.98643 0.0
H1325 H 0.97951 0.08391 0.98203 0.0
H1326 H 0.96655 0.05423 0.94812 0.0
H1327 H 0.02326 0.07192 0.91797 0.0
H1328 H 0.00156 0.02187 0.56567 0.0
H1329 H 0.01535 0.9797 0.5397 0.0
H1330 H 0.83273 0.97796 0.52786 0.0
H1331 H 0.81903 0.02102 0.55389 0.0
H1332 H 0.97858 0.91958 0.52706 0.0
H1333 H 0.89699 0.01647 0.47414 0.0
H1334 H 0.91 0.02401 0.5015 0.0
H1335 H 0.84884 1.00055 0.49356 0.0
C1336 C 0.96406 0.01143 0.55823 0.0
C1337 C 0.90943 0.02476 0.56152 0.0
C1338 C 0.97191 0.98735 0.54334 0.0
C1339 C 0.92529 0.97639 0.53137 0.0
C1340 C 0.86945 0.98663 0.53661 0.0
H1341 H 0.0481 0.90299 0.40873 0.0
H1342 H 0.97703 0.9113 0.43675 0.0
C1343 C 0.86153 0.01088 0.55165 0.0
C1344 C 0.93815 0.95957 0.51141 0.0
H1345 H 0.95495 0.97679 0.45943 0.0
C1346 C 0.97177 0.93147 0.51215 0.0
C1347 C 0.92943 0.97518 0.4919 0.0
C1348 C 0.89462 0.00579 0.49006 0.0
C1349 C 0.00105 0.92034 0.49434 0.0
C1350 C 0.99642 0.93771 0.47542 0.0
C1351 C 0.95837 0.96375 0.47409 0.0
C1352 C 0.03787 0.93276 0.45819 0.0
C1353 C 0.03995 0.89141 0.49618 0.0
C1354 C 0.09481 0.94307 0.46084 0.0
C1355 C 0.13507 0.93875 0.4449 0.0
C1356 C 0.1192 0.92379 0.42603 0.0
C1357 C 0.06161 0.9143 0.42319 0.0
C1358 C 0.02107 0.91895 0.43913 0.0
H1359 H 0.02826 0.87616 0.50983 0.0
H1360 H 0.03818 0.87653 0.48173 0.0
H1361 H 0.08494 0.89972 0.49827 0.0
H1362 H 0.10822 0.95423 0.47538 0.0
H1363 H 0.17909 0.9461 0.44769 0.0
H1364 H 0.6659 0.50144 0.05194 0.0
H1365 H 0.60674 0.51906 0.02261 0.0
H1366 H 0.47015 0.45609 0.04294 0.0
H1367 H 0.52849 0.43885 0.07266 0.0
H1368 H 0.56643 0.47792 0.99132 0.0
H1369 H 0.38661 0.541 0.03131 0.0
H1370 H 0.45368 0.53195 0.04425 0.0
H1371 H 0.40033 0.50104 0.04088 0.0
C1372 C 0.6229 0.4917 0.05045 0.0
C1373 C 0.60216 0.46837 0.06456 0.0
C1374 C 0.58927 0.50175 0.03361 0.0
C1375 C 0.53416 0.48892 0.03065 0.0
C1376 C 0.51238 0.46657 0.0451 0.0
H1377 H 0.2752 0.50633 0.93483 0.0
H1378 H 0.33561 0.48862 0.96378 0.0
C1379 C 0.54597 0.45654 0.06199 0.0
C1380 C 0.50113 0.49734 0.01168 0.0
H1381 H 0.37535 0.53069 0.99497 0.0
C1382 C 0.52477 0.48962 0.99208 0.0
C1383 C 0.44682 0.51248 0.0128 0.0
C1384 C 0.42047 0.52239 0.03342 0.0
C1385 C 0.49499 0.49619 0.97349 0.0
C1386 C 0.44061 0.51124 0.97462 0.0
C1387 C 0.41703 0.51901 0.99422 0.0
C1388 C 0.40727 0.51941 0.95569 0.0
C1389 C 0.52136 0.4864 0.95285 0.0
C1390 C 0.4282 0.54208 0.94129 0.0
C1391 C 0.39385 0.55218 0.92461 0.0
C1392 C 0.33778 0.5401 0.92223 0.0
C1393 C 0.31806 0.5163 0.9362 0.0
C1394 C 0.35242 0.50619 0.95282 0.0
H1395 H 0.55583 0.46814 0.95494 0.0
H1396 H 0.48825 0.47645 0.94213 0.0
H1397 H 0.54064 0.5079 0.94528 0.0
H1398 H 0.47026 0.55281 0.94336 0.0
H1399 H 0.41059 0.57016 0.914 0.0
loop_
_geom_bond_atom_site_label_1
_geom_bond_atom_site_label_2
_geom_bond_distance
_geom_bond_site_symmetry_2
_ccdc_geom_bond_type
C0 O27 1.312 . S
C0 O28 1.208 . S
C1 O22 1.331 . S
C1 O25 1.244 . S
C2 O24 1.264 . S
C2 O26 1.273 . S
Mg3 O5 1.936 . S
Mg3 O12 2.081 . S
Mg3 O14 2.023 . S
Mg3 O18 2.031 . S
Mg3 O27 2.291 . S
Mg4 O5 1.963 . S
Mg4 O15 1.942 . S
Mg4 O16 1.955 . S
Mg4 O23 1.986 . S
O5 Mg3 1.936 . S
O5 Mg4 1.963 . S
O5 Mg6 1.915 . S
Mg6 O5 1.915 . S
Mg6 O7 1.915 . S
Mg6 O11 2.013 . S
Mg6 O17 2.114 . S
Mg6 O21 2.013 . S
Mg6 O27 2.114 . S
O7 Mg6 1.915 . S
O7 Mg8 1.936 . S
O7 Mg9 1.963 . S
Mg8 O7 1.936 . S
Mg8 O17 2.291 . S
Mg8 O22 2.081 . S
Mg8 O24 2.023 . S
Mg8 O28 2.031 . S
Mg9 O7 1.963 . S
Mg9 O13 1.986 . S
Mg9 O25 1.942 . S
Mg9 O26 1.955 . S
C10 O21 1.191 . S
C10 O23 1.307 . S
O11 Mg6 2.013 . S
O11 C30 1.191 . S
O12 Mg3 2.081 . S
O12 C20 1.331 . S
O13 Mg9 1.986 . S
O13 C30 1.307 . S
O14 Mg3 2.023 . S
O14 C29 1.264 . S
O15 Mg4 1.942 . S
O15 C20 1.244 . S
O16 Mg4 1.955 . S
O16 C29 1.273 . S
O17 Mg6 2.114 . S
O17 Mg8 2.291 . S
O17 C19 1.312 . S
O18 Mg3 2.031 . S
O18 C19 1.208 . S
C19 O17 1.312 . S
C19 O18 1.208 . S
C20 O12 1.331 . S
C20 O15 1.244 . S
O21 Mg6 2.013 . S
O21 C10 1.191 . S
O22 C1 1.331 . S
O22 Mg8 2.081 . S
O23 Mg4 1.986 . S
O23 C10 1.307 . S
O24 C2 1.264 . S
O24 Mg8 2.023 . S
O25 C1 1.244 . S
O25 Mg9 1.942 . S
O26 C2 1.273 . S
O26 Mg9 1.955 . S
O27 C0 1.312 . S
O27 Mg3 2.291 . S
O27 Mg6 2.114 . S
O28 C0 1.208 . S
O28 Mg8 2.031 . S
C29 O14 1.264 . S
C29 O16 1.273 . S
C30 O11 1.191 . S
C30 O13 1.307 . S
C31 O58 1.312 . S
C31 O59 1.208 . S
C32 O53 1.331 . S
C32 O56 1.244 . S
C33 O55 1.264 . S
C33 O57 1.273 . S
Mg34 O36 1.936 . S
Mg34 O43 2.081 1_455 S
Mg34 O45 2.023 1_455 S
Mg34 O49 2.031 . S
Mg34 O58 2.291 . S
Mg35 O36 1.963 . S
Mg35 O46 1.942 1_455 S
Mg35 O47 1.955 1_455 S
Mg35 O54 1.986 . S
O36 Mg34 1.936 . S
O36 Mg35 1.963 . S
O36 Mg37 1.915 . S
Mg37 O36 1.915 . S
Mg37 O38 1.915 . S
Mg37 O42 2.013 . S
Mg37 O48 2.114 . S
Mg37 O52 2.013 . S
Mg37 O58 2.114 . S
O38 Mg37 1.915 . S
O38 Mg39 1.936 . S
O38 Mg40 1.963 . S
Mg39 O38 1.936 . S
Mg39 O48 2.291 . S
Mg39 O53 2.081 . S
Mg39 O55 2.023 . S
Mg39 O59 2.031 . S
Mg40 O38 1.963 . S
Mg40 O44 1.986 . S
Mg40 O56 1.942 . S
Mg40 O57 1.955 . S
C41 O52 1.191 . S
C41 O54 1.307 . S
O42 Mg37 2.013 . S
O42 C61 1.191 . S
O43 Mg34 2.081 1_655 S
O43 C51 1.331 . S
O44 Mg40 1.986 . S
O44 C61 1.307 . S
O45 Mg34 2.023 1_655 S
O45 C60 1.264 . S
O46 Mg35 1.942 1_655 S
O46 C51 1.244 . S
O47 Mg35 1.955 1_655 S
O47 C60 1.273 . S
O48 Mg37 2.114 . S
O48 Mg39 2.291 . S
O48 C50 1.312 . S
O49 Mg34 2.031 . S
O49 C50 1.208 . S
C50 O48 1.312 . S
C50 O49 1.208 . S
C51 O43 1.331 . S
C51 O46 1.244 . S
O52 Mg37 2.013 . S
O52 C41 1.191 . S
O53 C32 1.331 . S
O53 Mg39 2.081 . S
O54 Mg35 1.986 . S
O54 C41 1.307 . S
O55 C33 1.264 . S
O55 Mg39 2.023 . S
O56 C32 1.244 . S
O56 Mg40 1.942 . S
O57 C33 1.273 . S
O57 Mg40 1.955 . S
O58 C31 1.312 . S
O58 Mg34 2.291 . S
O58 Mg37 2.114 . S
O59 C31 1.208 . S
O59 Mg39 2.031 . S
C60 O45 1.264 . S
C60 O47 1.273 . S
C61 O42 1.191 . S
C61 O44 1.307 . S
C62 O89 1.312 . S
C62 O90 1.208 . S
C63 O84 1.331 . S
C63 O87 1.244 . S
C64 O86 1.264 . S
C64 O88 1.273 . S
Mg65 O67 1.936 . S
Mg65 O74 2.081 1_655 S
Mg65 O76 2.023 . S
Mg65 O80 2.031 . S
Mg65 O89 2.291 . S
Mg66 O67 1.963 1_455 S
Mg66 O77 1.942 . S
Mg66 O78 1.955 1_455 S
Mg66 O85 1.986 1_455 S
O67 Mg65 1.936 . S
O67 Mg66 1.963 1_655 S
O67 Mg68 1.915 . S
Mg68 O67 1.915 . S
Mg68 O69 1.915 . S
Mg68 O73 2.013 . S
Mg68 O79 2.114 . S
Mg68 O83 2.013 . S
Mg68 O89 2.114 . S
O69 Mg68 1.915 . S
O69 Mg70 1.936 . S
O69 Mg71 1.963 . S
Mg70 O69 1.936 . S
Mg70 O79 2.291 . S
Mg70 O84 2.081 . S
Mg70 O86 2.023 . S
Mg70 O90 2.031 . S
Mg71 O69 1.963 . S
Mg71 O75 1.986 . S
Mg71 O87 1.942 . S
Mg71 O88 1.955 . S
C72 O83 1.191 . S
C72 O85 1.307 . S
O73 Mg68 2.013 . S
O73 C92 1.191 . S
O74 Mg65 2.081 1_455 S
O74 C82 1.331 . S
O75 Mg71 1.986 . S
O75 C92 1.307 . S
O76 Mg65 2.023 . S
O76 C91 1.264 . S
O77 Mg66 1.942 . S
O77 C82 1.244 . S
O78 Mg66 1.955 1_655 S
O78 C91 1.273 . S
O79 Mg68 2.114 . S
O79 Mg70 2.291 . S
O79 C81 1.312 . S
O80 Mg65 2.031 . S
O80 C81 1.208 . S
C81 O79 1.312 . S
C81 O80 1.208 . S
C82 O74 1.331 . S
C82 O77 1.244 . S
O83 Mg68 2.013 . S
O83 C72 1.191 . S
O84 C63 1.331 . S
O84 Mg70 2.081 . S
O85 Mg66 1.986 1_655 S
O85 C72 1.307 . S
O86 C64 1.264 . S
O86 Mg70 2.023 . S
O87 C63 1.244 . S
O87 Mg71 1.942 . S
O88 C64 1.273 . S
O88 Mg71 1.955 . S
O89 C62 1.312 . S
O89 Mg65 2.291 . S
O89 Mg68 2.114 . S
O90 C62 1.208 . S
O90 Mg70 2.031 . S
C91 O76 1.264 . S
C91 O78 1.273 . S
C92 O73 1.191 . S
C92 O75 1.307 . S
C93 O120 1.312 . S
C93 O121 1.208 . S
C94 O115 1.331 . S
C94 O118 1.244 . S
C95 O117 1.264 . S
C95 O119 1.273 . S
Mg96 O98 1.936 . S
Mg96 O105 2.081 . S
Mg96 O107 2.023 . S
Mg96 O111 2.031 . S
Mg96 O120 2.291 . S
Mg97 O98 1.963 . S
Mg97 O108 1.942 . S
Mg97 O109 1.955 . S
Mg97 O116 1.986 . S
O98 Mg96 1.936 . S
O98 Mg97 1.963 . S
O98 Mg99 1.915 . S
Mg99 O98 1.915 . S
Mg99 O100 1.915 . S
Mg99 O104 2.013 . S
Mg99 O110 2.114 . S
Mg99 O114 2.013 . S
Mg99 O120 2.114 . S
O100 Mg99 1.915 . S
O100 Mg101 1.936 . S
O100 Mg102 1.963 . S
Mg101 O100 1.936 . S
Mg101 O110 2.291 . S
Mg101 O115 2.081 . S
Mg101 O117 2.023 . S
Mg101 O121 2.031 . S
Mg102 O100 1.963 . S
Mg102 O106 1.986 . S
Mg102 O118 1.942 . S
Mg102 O119 1.955 . S
C103 O114 1.191 . S
C103 O116 1.307 . S
O104 Mg99 2.013 . S
O104 C123 1.191 . S
O105 Mg96 2.081 . S
O105 C113 1.331 . S
O106 Mg102 1.986 . S
O106 C123 1.307 . S
O107 Mg96 2.023 . S
O107 C122 1.264 . S
O108 Mg97 1.942 . S
O108 C113 1.244 . S
O109 Mg97 1.955 . S
O109 C122 1.273 . S
O110 Mg99 2.114 . S
O110 Mg101 2.291 . S
O110 C112 1.312 . S
O111 Mg96 2.031 . S
O111 C112 1.208 . S
C112 O110 1.312 . S
C112 O111 1.208 . S
C113 O105 1.331 . S
C113 O108 1.244 . S
O114 Mg99 2.013 . S
O114 C103 1.191 . S
O115 C94 1.331 . S
O115 Mg101 2.081 . S
O116 Mg97 1.986 . S
O116 C103 1.307 . S
O117 C95 1.264 . S
O117 Mg101 2.023 . S
O118 C94 1.244 . S
O118 Mg102 1.942 . S
O119 C95 1.273 . S
O119 Mg102 1.955 . S
O120 C93 1.312 . S
O120 Mg96 2.291 . S
O120 Mg99 2.114 . S
O121 C93 1.208 . S
O121 Mg101 2.031 . S
C122 O107 1.264 . S
C122 O109 1.273 . S
C123 O104 1.191 . S
C123 O106 1.307 . S
C124 O151 1.312 . S
C124 O152 1.208 . S
C125 O146 1.331 . S
C125 O149 1.244 . S
C126 O148 1.264 . S
C126 O150 1.273 . S
Mg127 O129 1.936 . S
Mg127 O136 2.081 . S
Mg127 O138 2.023 . S
Mg127 O142 2.031 . S
Mg127 O151 2.291 . S
Mg128 O129 1.963 . S
Mg128 O139 1.942 . S
Mg128 O140 1.955 . S
Mg128 O147 1.986 . S
O129 Mg127 1.936 . S
O129 Mg128 1.963 . S
O129 Mg130 1.915 . S
Mg130 O129 1.915 . S
Mg130 O131 1.915 . S
Mg130 O135 2.013 . S
Mg130 O141 2.114 . S
Mg130 O145 2.013 . S
Mg130 O151 2.114 . S
O131 Mg130 1.915 . S
O131 Mg132 1.936 . S
O131 Mg133 1.963 . S
Mg132 O131 1.936 . S
Mg132 O141 2.291 . S
Mg132 O146 2.081 . S
Mg132 O148 2.023 . S
Mg132 O152 2.031 . S
Mg133 O131 1.963 . S
Mg133 O137 1.986 . S
Mg133 O149 1.942 . S
Mg133 O150 1.955 . S
C134 O145 1.191 . S
C134 O147 1.307 . S
O135 Mg130 2.013 . S
O135 C154 1.191 . S
O136 Mg127 2.081 . S
O136 C144 1.331 . S
O137 Mg133 1.986 . S
O137 C154 1.307 . S
O138 Mg127 2.023 . S
O138 C153 1.264 . S
O139 Mg128 1.942 . S
O139 C144 1.244 . S
O140 Mg128 1.955 . S
O140 C153 1.273 . S
O141 Mg130 2.114 . S
O141 Mg132 2.291 . S
O141 C143 1.312 . S
O142 Mg127 2.031 . S
O142 C143 1.208 . S
C143 O141 1.312 . S
C143 O142 1.208 . S
C144 O136 1.331 . S
C144 O139 1.244 . S
O145 Mg130 2.013 . S
O145 C134 1.191 . S
O146 C125 1.331 . S
O146 Mg132 2.081 . S
O147 Mg128 1.986 . S
O147 C134 1.307 . S
O148 C126 1.264 . S
O148 Mg132 2.023 . S
O149 C125 1.244 . S
O149 Mg133 1.942 . S
O150 C126 1.273 . S
O150 Mg133 1.955 . S
O151 C124 1.312 . S
O151 Mg127 2.291 . S
O151 Mg130 2.114 . S
O152 C124 1.208 . S
O152 Mg132 2.031 . S
C153 O138 1.264 . S
C153 O140 1.273 . S
C154 O135 1.191 . S
C154 O137 1.307 . S
C155 O182 1.312 . S
C155 O183 1.208 . S
C156 O177 1.331 . S
C156 O180 1.244 . S
C157 O179 1.264 . S
C157 O181 1.273 . S
Mg158 O160 1.936 . S
Mg158 O167 2.081 . S
Mg158 O169 2.023 . S
Mg158 O173 2.031 . S
Mg158 O182 2.291 . S
Mg159 O160 1.963 . S
Mg159 O170 1.942 . S
Mg159 O171 1.955 . S
Mg159 O178 1.986 . S
O160 Mg158 1.936 . S
O160 Mg159 1.963 . S
O160 Mg161 1.915 . S
Mg161 O160 1.915 . S
Mg161 O162 1.915 . S
Mg161 O166 2.013 . S
Mg161 O172 2.114 . S
Mg161 O176 2.013 . S
Mg161 O182 2.114 . S
O162 Mg161 1.915 . S
O162 Mg163 1.936 . S
O162 Mg164 1.963 . S
Mg163 O162 1.936 . S
Mg163 O172 2.291 . S
Mg163 O177 2.081 1_655 S
Mg163 O179 2.023 1_655 S
Mg163 O183 2.031 . S
Mg164 O162 1.963 . S
Mg164 O168 1.986 . S
Mg164 O180 1.942 1_655 S
Mg164 O181 1.955 1_655 S
C165 O176 1.191 . S
C165 O178 1.307 . S
O166 Mg161 2.013 . S
O166 C185 1.191 . S
O167 Mg158 2.081 . S
O167 C175 1.331 . S
O168 Mg164 1.986 . S
O168 C185 1.307 . S
O169 Mg158 2.023 . S
O169 C184 1.264 . S
O170 Mg159 1.942 . S
O170 C175 1.244 . S
O171 Mg159 1.955 . S
O171 C184 1.273 . S
O172 Mg161 2.114 . S
O172 Mg163 2.291 . S
O172 C174 1.312 . S
O173 Mg158 2.031 . S
O173 C174 1.208 . S
C174 O172 1.312 . S
C174 O173 1.208 . S
C175 O167 1.331 . S
C175 O170 1.244 . S
O176 Mg161 2.013 . S
O176 C165 1.191 . S
O177 C156 1.331 . S
O177 Mg163 2.081 1_455 S
O178 Mg159 1.986 . S
O178 C165 1.307 . S
O179 C157 1.264 . S
O179 Mg163 2.023 1_455 S
O180 C156 1.244 . S
O180 Mg164 1.942 1_455 S
O181 C157 1.273 . S
O181 Mg164 1.955 1_455 S
O182 C155 1.312 . S
O182 Mg158 2.291 . S
O182 Mg161 2.114 . S
O183 C155 1.208 . S
O183 Mg163 2.031 . S
C184 O169 1.264 . S
C184 O171 1.273 . S
C185 O166 1.191 . S
C185 O168 1.307 . S
C186 O213 1.312 . S
C186 O214 1.208 . S
C187 O208 1.331 . S
C187 O211 1.244 . S
C188 O210 1.264 . S
C188 O212 1.273 . S
Mg189 O191 1.936 . S
Mg189 O198 2.081 . S
Mg189 O200 2.023 . S
Mg189 O204 2.031 . S
Mg189 O213 2.291 . S
Mg190 O191 1.963 . S
Mg190 O201 1.942 . S
Mg190 O202 1.955 . S
Mg190 O209 1.986 . S
O191 Mg189 1.936 . S
O191 Mg190 1.963 . S
O191 Mg192 1.915 . S
Mg192 O191 1.915 . S
Mg192 O193 1.915 . S
Mg192 O197 2.013 . S
Mg192 O203 2.114 . S
Mg192 O207 2.013 . S
Mg192 O213 2.114 . S
O193 Mg192 1.915 . S
O193 Mg194 1.936 . S
O193 Mg195 1.963 . S
Mg194 O193 1.936 . S
Mg194 O203 2.291 . S
Mg194 O208 2.081 1_455 S
Mg194 O210 2.023 1_455 S
Mg194 O214 2.031 . S
Mg195 O193 1.963 . S
Mg195 O199 1.986 . S
Mg195 O211 1.942 1_455 S
Mg195 O212 1.955 1_455 S
C196 O207 1.191 . S
C196 O209 1.307 . S
O197 Mg192 2.013 . S
O197 C216 1.191 . S
O198 Mg189 2.081 . S
O198 C206 1.331 . S
O199 Mg195 1.986 . S
O199 C216 1.307 . S
O200 Mg189 2.023 . S
O200 C215 1.264 . S
O201 Mg190 1.942 . S
O201 C206 1.244 . S
O202 Mg190 1.955 . S
O202 C215 1.273 . S
O203 Mg192 2.114 . S
O203 Mg194 2.291 . S
O203 C205 1.312 . S
O204 Mg189 2.031 . S
O204 C205 1.208 . S
C205 O203 1.312 . S
C205 O204 1.208 . S
C206 O198 1.331 . S
C206 O201 1.244 . S
O207 Mg192 2.013 . S
O207 C196 1.191 . S
O208 C187 1.331 . S
O208 Mg194 2.081 1_655 S
O209 Mg190 1.986 . S
O209 C196 1.307 . S
O210 C188 1.264 . S
O210 Mg194 2.023 1_655 S
O211 C187 1.244 . S
O211 Mg195 1.942 1_655 S
O212 C188 1.273 . S
O212 Mg195 1.955 1_655 S
O213 C186 1.312 . S
O213 Mg189 2.291 . S
O213 Mg192 2.114 . S
O214 C186 1.208 . S
O214 Mg194 2.031 . S
C215 O200 1.264 . S
C215 O202 1.273 . S
C216 O197 1.191 . S
C216 O199 1.307 . S
C217 O244 1.312 . S
C217 O245 1.208 . S
C218 O239 1.331 . S
C218 O242 1.244 . S
C219 O241 1.264 . S
C219 O243 1.273 . S
Mg220 O222 1.936 . S
Mg220 O229 2.081 . S
Mg220 O231 2.023 . S
Mg220 O235 2.031 . S
Mg220 O244 2.291 . S
Mg221 O222 1.963 . S
Mg221 O232 1.942 . S
Mg221 O233 1.955 . S
Mg221 O240 1.986 . S
O222 Mg220 1.936 . S
O222 Mg221 1.963 . S
O222 Mg223 1.915 . S
Mg223 O222 1.915 . S
Mg223 O224 1.915 . S
Mg223 O228 2.013 . S
Mg223 O234 2.114 . S
Mg223 O238 2.013 . S
Mg223 O244 2.114 . S
O224 Mg223 1.915 . S
O224 Mg225 1.936 . S
O224 Mg226 1.963 . S
Mg225 O224 1.936 . S
Mg225 O234 2.291 . S
Mg225 O239 2.081 . S
Mg225 O241 2.023 . S
Mg225 O245 2.031 . S
Mg226 O224 1.963 . S
Mg226 O230 1.986 . S
Mg226 O242 1.942 . S
Mg226 O243 1.955 . S
C227 O238 1.191 . S
C227 O240 1.307 . S
O228 Mg223 2.013 . S
O228 C247 1.191 . S
O229 Mg220 2.081 . S
O229 C237 1.331 . S
O230 Mg226 1.986 . S
O230 C247 1.307 . S
O231 Mg220 2.023 . S
O231 C246 1.264 . S
O232 Mg221 1.942 . S
O232 C237 1.244 . S
O233 Mg221 1.955 . S
O233 C246 1.273 . S
O234 Mg223 2.114 . S
O234 Mg225 2.291 . S
O234 C236 1.312 . S
O235 Mg220 2.031 . S
O235 C236 1.208 . S
C236 O234 1.312 . S
C236 O235 1.208 . S
C237 O229 1.331 . S
C237 O232 1.244 . S
O238 Mg223 2.013 . S
O238 C227 1.191 . S
O239 C218 1.331 . S
O239 Mg225 2.081 . S
O240 Mg221 1.986 . S
O240 C227 1.307 . S
O241 C219 1.264 . S
O241 Mg225 2.023 . S
O242 C218 1.244 . S
O242 Mg226 1.942 . S
O243 C219 1.273 . S
O243 Mg226 1.955 . S
O244 C217 1.312 . S
O244 Mg220 2.291 . S
O244 Mg223 2.114 . S
O245 C217 1.208 . S
O245 Mg225 2.031 . S
C246 O231 1.264 . S
C246 O233 1.273 . S
C247 O228 1.191 . S
C247 O230 1.307 . S
H248 C256 0.929 . S
H249 C258 0.930 . S
H250 C260 0.930 . S
H251 C263 0.929 . S
H252 C266 0.930 . S
H253 C268 0.960 . S
H254 C268 0.960 . S
H255 C268 0.960 . S
C256 H248 0.929 . S
C256 C257 1.377 . S
C256 C258 1.384 . S
C257 C256 1.377 . S
C257 C263 1.390 . S
C258 H249 0.930 . S
C258 C256 1.384 . S
C258 C259 1.372 . S
C259 C258 1.372 . S
C259 C260 1.400 . S
C259 C264 1.490 1_455 S
C260 H250 0.930 . S
C260 C259 1.400 . S
C260 C263 1.386 . S
H261 C277 0.930 . S
H262 C278 0.931 . S
C263 H251 0.929 . S
C263 C257 1.390 . S
C263 C260 1.386 . S
C264 C259 1.490 1_655 S
C264 C266 1.395 . S
C264 C267 1.403 . S
H265 C271 0.930 . S
C266 H252 0.930 . S
C266 C264 1.395 . S
C266 C269 1.403 . S
C267 C264 1.403 . S
C267 C268 1.524 . S
C267 C271 1.400 . S
C268 H253 0.960 . S
C268 H254 0.960 . S
C268 H255 0.960 . S
C268 C267 1.524 . S
C269 C266 1.403 . S
C269 C270 1.392 . S
C269 C273 1.495 . S
C270 C269 1.392 . S
C270 C271 1.385 . S
C270 C272 1.478 . S
C271 H265 0.930 . S
C271 C267 1.400 . S
C271 C270 1.385 . S
C272 C270 1.478 . S
C272 C274 1.381 . S
C272 C278 1.383 . S
C273 C269 1.495 . S
C273 H279 0.959 . S
C273 H280 0.961 . S
C273 H281 0.960 . S
C274 C272 1.381 . S
C274 C275 1.394 . S
C274 H282 0.930 . S
C275 C274 1.394 . S
C275 C276 1.383 . S
C275 H283 0.929 . S
C276 C275 1.383 . S
C276 C277 1.377 . S
C277 H261 0.930 . S
C277 C276 1.377 . S
C277 C278 1.379 . S
C278 H262 0.931 . S
C278 C272 1.383 . S
C278 C277 1.379 . S
H279 C273 0.959 . S
H280 C273 0.961 . S
H281 C273 0.960 . S
H282 C274 0.930 . S
H283 C275 0.929 . S
H284 C292 0.929 . S
H285 C294 0.930 . S
H286 C296 0.930 . S
H287 C299 0.929 . S
H288 C302 0.930 . S
H289 C304 0.960 . S
H290 C304 0.960 . S
H291 C304 0.960 . S
C292 H284 0.929 . S
C292 C293 1.377 . S
C292 C294 1.384 . S
C293 C292 1.377 . S
C293 C299 1.390 . S
C294 H285 0.930 . S
C294 C292 1.384 . S
C294 C295 1.372 . S
C295 C294 1.372 . S
C295 C296 1.400 . S
C295 C300 1.490 . S
C296 H286 0.930 . S
C296 C295 1.400 . S
C296 C299 1.386 . S
H297 C313 0.930 . S
H298 C314 0.931 . S
C299 H287 0.929 . S
C299 C293 1.390 . S
C299 C296 1.386 . S
C300 C295 1.490 . S
C300 C302 1.395 . S
C300 C303 1.403 . S
H301 C307 0.930 . S
C302 H288 0.930 . S
C302 C300 1.395 . S
C302 C305 1.403 . S
C303 C300 1.403 . S
C303 C304 1.524 . S
C303 C307 1.400 . S
C304 H289 0.960 . S
C304 H290 0.960 . S
C304 H291 0.960 . S
C304 C303 1.524 . S
C305 C302 1.403 . S
C305 C306 1.392 . S
C305 C309 1.495 . S
C306 C305 1.392 . S
C306 C307 1.385 . S
C306 C308 1.478 . S
C307 H301 0.930 . S
C307 C303 1.400 . S
C307 C306 1.385 . S
C308 C306 1.478 . S
C308 C310 1.381 . S
C308 C314 1.383 . S
C309 C305 1.495 . S
C309 H315 0.959 . S
C309 H316 0.961 . S
C309 H317 0.960 . S
C310 C308 1.381 . S
C310 C311 1.394 . S
C310 H318 0.930 . S
C311 C310 1.394 . S
C311 C312 1.383 . S
C311 H319 0.929 . S
C312 C311 1.383 . S
C312 C313 1.377 . S
C313 H297 0.930 . S
C313 C312 1.377 . S
C313 C314 1.379 . S
C314 H298 0.931 . S
C314 C308 1.383 . S
C314 C313 1.379 . S
H315 C309 0.959 . S
H316 C309 0.961 . S
H317 C309 0.960 . S
H318 C310 0.930 . S
H319 C311 0.929 . S
H320 C328 0.929 . S
H321 C330 0.930 . S
H322 C332 0.930 . S
H323 C335 0.929 . S
H324 C338 0.930 . S
H325 C340 0.960 . S
H326 C340 0.960 . S
H327 C340 0.960 . S
C328 H320 0.929 . S
C328 C329 1.377 . S
C328 C330 1.384 . S
C329 C328 1.377 . S
C329 C335 1.390 . S
C330 H321 0.930 . S
C330 C328 1.384 . S
C330 C331 1.372 . S
C331 C330 1.372 . S
C331 C332 1.400 . S
C331 C336 1.490 . S
C332 H322 0.930 . S
C332 C331 1.400 . S
C332 C335 1.386 . S
H333 C349 0.930 . S
H334 C350 0.931 . S
C335 H323 0.929 . S
C335 C329 1.390 . S
C335 C332 1.386 . S
C336 C331 1.490 . S
C336 C338 1.395 . S
C336 C339 1.403 . S
H337 C343 0.930 . S
C338 H324 0.930 . S
C338 C336 1.395 . S
C338 C341 1.403 . S
C339 C336 1.403 . S
C339 C340 1.524 . S
C339 C343 1.400 . S
C340 H325 0.960 . S
C340 H326 0.960 . S
C340 H327 0.960 . S
C340 C339 1.524 . S
C341 C338 1.403 . S
C341 C342 1.392 . S
C341 C345 1.495 . S
C342 C341 1.392 . S
C342 C343 1.385 . S
C342 C344 1.478 . S
C343 H337 0.930 . S
C343 C339 1.400 . S
C343 C342 1.385 . S
C344 C342 1.478 . S
C344 C346 1.381 . S
C344 C350 1.383 . S
C345 C341 1.495 . S
C345 H351 0.959 . S
C345 H352 0.961 . S
C345 H353 0.960 . S
C346 C344 1.381 . S
C346 C347 1.394 . S
C346 H354 0.930 . S
C347 C346 1.394 . S
C347 C348 1.383 . S
C347 H355 0.929 . S
C348 C347 1.383 . S
C348 C349 1.377 . S
C349 H333 0.930 . S
C349 C348 1.377 . S
C349 C350 1.379 . S
C350 H334 0.931 . S
C350 C344 1.383 . S
C350 C349 1.379 . S
H351 C345 0.959 . S
H352 C345 0.961 . S
H353 C345 0.960 . S
H354 C346 0.930 . S
H355 C347 0.929 . S
H356 C364 0.929 . S
H357 C366 0.930 . S
H358 C368 0.930 . S
H359 C371 0.929 . S
H360 C374 0.930 . S
H361 C376 0.960 . S
H362 C376 0.960 . S
H363 C376 0.960 . S
C364 H356 0.929 . S
C364 C365 1.377 . S
C364 C366 1.384 . S
C365 C364 1.377 . S
C365 C371 1.390 . S
C366 H357 0.930 . S
C366 C364 1.384 . S
C366 C367 1.372 . S
C367 C366 1.372 . S
C367 C368 1.400 . S
C367 C372 1.490 1_655 S
C368 H358 0.930 . S
C368 C367 1.400 . S
C368 C371 1.386 . S
H369 C385 0.930 . S
H370 C386 0.931 . S
C371 H359 0.929 . S
C371 C365 1.390 . S
C371 C368 1.386 . S
C372 C367 1.490 1_455 S
C372 C374 1.395 . S
C372 C375 1.403 . S
H373 C379 0.930 . S
C374 H360 0.930 . S
C374 C372 1.395 . S
C374 C377 1.403 . S
C375 C372 1.403 . S
C375 C376 1.524 . S
C375 C379 1.400 . S
C376 H361 0.960 . S
C376 H362 0.960 . S
C376 H363 0.960 . S
C376 C375 1.524 . S
C377 C374 1.403 . S
C377 C378 1.392 . S
C377 C381 1.495 . S
C378 C377 1.392 . S
C378 C379 1.385 . S
C378 C380 1.478 . S
C379 H373 0.930 . S
C379 C375 1.400 . S
C379 C378 1.385 . S
C380 C378 1.478 . S
C380 C382 1.381 . S
C380 C386 1.383 . S
C381 C377 1.495 . S
C381 H387 0.959 . S
C381 H388 0.961 . S
C381 H389 0.960 . S
C382 C380 1.381 . S
C382 C383 1.394 . S
C382 H390 0.930 . S
C383 C382 1.394 . S
C383 C384 1.383 . S
C383 H391 0.929 . S
C384 C383 1.383 . S
C384 C385 1.377 . S
C385 H369 0.930 . S
C385 C384 1.377 . S
C385 C386 1.379 . S
C386 H370 0.931 . S
C386 C380 1.383 . S
C386 C385 1.379 . S
H387 C381 0.959 . S
H388 C381 0.961 . S
H389 C381 0.960 . S
H390 C382 0.930 . S
H391 C383 0.929 . S
H392 C400 0.929 . S
H393 C402 0.930 . S
H394 C404 0.930 . S
H395 C407 0.929 . S
H396 C410 0.930 . S
H397 C412 0.960 . S
H398 C412 0.960 . S
H399 C412 0.960 . S
C400 H392 0.929 . S
C400 C401 1.377 . S
C400 C402 1.384 . S
C401 C400 1.377 . S
C401 C407 1.390 . S
C402 H393 0.930 . S
C402 C400 1.384 . S
C402 C403 1.372 . S
C403 C402 1.372 . S
C403 C404 1.400 . S
C403 C408 1.490 . S
C404 H394 0.930 . S
C404 C403 1.400 . S
C404 C407 1.386 . S
H405 C421 0.930 . S
H406 C422 0.931 . S
C407 H395 0.929 . S
C407 C401 1.390 . S
C407 C404 1.386 . S
C408 C403 1.490 . S
C408 C410 1.395 . S
C408 C411 1.403 . S
H409 C415 0.930 . S
C410 H396 0.930 . S
C410 C408 1.395 . S
C410 C413 1.403 . S
C411 C408 1.403 . S
C411 C412 1.524 . S
C411 C415 1.400 . S
C412 H397 0.960 . S
C412 H398 0.960 . S
C412 H399 0.960 . S
C412 C411 1.524 . S
C413 C410 1.403 . S
C413 C414 1.392 . S
C413 C417 1.495 . S
C414 C413 1.392 . S
C414 C415 1.385 . S
C414 C416 1.478 1_455 S
C415 H409 0.930 . S
C415 C411 1.400 . S
C415 C414 1.385 . S
C416 C414 1.478 1_655 S
C416 C418 1.381 . S
C416 C422 1.383 . S
C417 C413 1.495 . S
C417 H423 0.959 . S
C417 H424 0.961 . S
C417 H425 0.960 . S
C418 C416 1.381 . S
C418 C419 1.394 . S
C418 H426 0.930 . S
C419 C418 1.394 . S
C419 C420 1.383 . S
C419 H427 0.929 . S
C420 C419 1.383 . S
C420 C421 1.377 . S
C421 H405 0.930 . S
C421 C420 1.377 . S
C421 C422 1.379 . S
C422 H406 0.931 . S
C422 C416 1.383 . S
C422 C421 1.379 . S
H423 C417 0.959 . S
H424 C417 0.961 . S
H425 C417 0.960 . S
H426 C418 0.930 . S
H427 C419 0.929 . S
H428 C436 0.929 . S
H429 C438 0.930 . S
H430 C440 0.930 . S
H431 C443 0.929 . S
H432 C446 0.930 . S
H433 C448 0.960 . S
H434 C448 0.960 . S
H435 C448 0.960 . S
C436 H428 0.929 . S
C436 C437 1.377 . S
C436 C438 1.384 . S
C437 C436 1.377 . S
C437 C443 1.390 . S
C438 H429 0.930 . S
C438 C436 1.384 . S
C438 C439 1.372 . S
C439 C438 1.372 . S
C439 C440 1.400 . S
C439 C444 1.490 . S
C440 H430 0.930 . S
C440 C439 1.400 . S
C440 C443 1.386 . S
H441 C457 0.930 . S
H442 C458 0.931 . S
C443 H431 0.929 . S
C443 C437 1.390 . S
C443 C440 1.386 . S
C444 C439 1.490 . S
C444 C446 1.395 . S
C444 C447 1.403 . S
H445 C451 0.930 . S
C446 H432 0.930 . S
C446 C444 1.395 . S
C446 C449 1.403 . S
C447 C444 1.403 . S
C447 C448 1.524 . S
C447 C451 1.400 . S
C448 H433 0.960 . S
C448 H434 0.960 . S
C448 H435 0.960 . S
C448 C447 1.524 . S
C449 C446 1.403 . S
C449 C450 1.392 . S
C449 C453 1.495 . S
C450 C449 1.392 . S
C450 C451 1.385 . S
C450 C452 1.478 . S
C451 H445 0.930 . S
C451 C447 1.400 . S
C451 C450 1.385 . S
C452 C450 1.478 . S
C452 C454 1.381 . S
C452 C458 1.383 . S
C453 C449 1.495 . S
C453 H459 0.959 . S
C453 H460 0.961 . S
C453 H461 0.960 . S
C454 C452 1.381 . S
C454 C455 1.394 . S
C454 H462 0.930 . S
C455 C454 1.394 . S
C455 C456 1.383 . S
C455 H463 0.929 . S
C456 C455 1.383 . S
C456 C457 1.377 . S
C457 H441 0.930 . S
C457 C456 1.377 . S
C457 C458 1.379 . S
C458 H442 0.931 . S
C458 C452 1.383 . S
C458 C457 1.379 . S
H459 C453 0.959 . S
H460 C453 0.961 . S
H461 C453 0.960 . S
H462 C454 0.930 . S
H463 C455 0.929 . S
H464 C472 0.929 . S
H465 C474 0.930 . S
H466 C476 0.930 . S
H467 C479 0.929 . S
H468 C482 0.930 . S
H469 C484 0.960 . S
H470 C484 0.960 . S
H471 C484 0.960 . S
C472 H464 0.929 . S
C472 C473 1.377 . S
C472 C474 1.384 . S
C473 C472 1.377 . S
C473 C479 1.390 . S
C474 H465 0.930 . S
C474 C472 1.384 . S
C474 C475 1.372 . S
C475 C474 1.372 . S
C475 C476 1.400 . S
C475 C480 1.490 . S
C476 H466 0.930 . S
C476 C475 1.400 . S
C476 C479 1.386 . S
H477 C493 0.930 . S
H478 C494 0.931 . S
C479 H467 0.929 . S
C479 C473 1.390 . S
C479 C476 1.386 . S
C480 C475 1.490 . S
C480 C482 1.395 . S
C480 C483 1.403 . S
H481 C487 0.930 . S
C482 H468 0.930 . S
C482 C480 1.395 . S
C482 C485 1.403 . S
C483 C480 1.403 . S
C483 C484 1.524 . S
C483 C487 1.400 . S
C484 H469 0.960 . S
C484 H470 0.960 . S
C484 H471 0.960 . S
C484 C483 1.524 . S
C485 C482 1.403 . S
C485 C486 1.392 . S
C485 C489 1.495 . S
C486 C485 1.392 . S
C486 C487 1.385 . S
C486 C488 1.478 . S
C487 H481 0.930 . S
C487 C483 1.400 . S
C487 C486 1.385 . S
C488 C486 1.478 . S
C488 C490 1.381 . S
C488 C494 1.383 . S
C489 C485 1.495 . S
C489 H495 0.959 . S
C489 H496 0.961 . S
C489 H497 0.960 . S
C490 C488 1.381 . S
C490 C491 1.394 . S
C490 H498 0.930 . S
C491 C490 1.394 . S
C491 C492 1.383 . S
C491 H499 0.929 . S
C492 C491 1.383 . S
C492 C493 1.377 . S
C493 H477 0.930 . S
C493 C492 1.377 . S
C493 C494 1.379 . S
C494 H478 0.931 . S
C494 C488 1.383 . S
C494 C493 1.379 . S
H495 C489 0.959 . S
H496 C489 0.961 . S
H497 C489 0.960 . S
H498 C490 0.930 . S
H499 C491 0.929 . S
H500 C508 0.929 . S
H501 C510 0.930 . S
H502 C512 0.930 . S
H503 C515 0.929 . S
H504 C518 0.930 . S
H505 C520 0.960 . S
H506 C520 0.960 . S
H507 C520 0.960 . S
C508 H500 0.929 . S
C508 C509 1.377 . S
C508 C510 1.384 . S
C509 C508 1.377 . S
C509 C515 1.390 . S
C510 H501 0.930 . S
C510 C508 1.384 . S
C510 C511 1.372 . S
C511 C510 1.372 . S
C511 C512 1.400 . S
C511 C516 1.490 1_455 S
C512 H502 0.930 . S
C512 C511 1.400 . S
C512 C515 1.386 . S
H513 C529 0.930 . S
H514 C530 0.931 . S
C515 H503 0.929 . S
C515 C509 1.390 . S
C515 C512 1.386 . S
C516 C511 1.490 1_655 S
C516 C518 1.395 . S
C516 C519 1.403 . S
H517 C523 0.930 . S
C518 H504 0.930 . S
C518 C516 1.395 . S
C518 C521 1.403 . S
C519 C516 1.403 . S
C519 C520 1.524 . S
C519 C523 1.400 . S
C520 H505 0.960 . S
C520 H506 0.960 . S
C520 H507 0.960 . S
C520 C519 1.524 . S
C521 C518 1.403 . S
C521 C522 1.392 . S
C521 C525 1.495 . S
C522 C521 1.392 . S
C522 C523 1.385 . S
C522 C524 1.478 . S
C523 H517 0.930 . S
C523 C519 1.400 . S
C523 C522 1.385 . S
C524 C522 1.478 . S
C524 C526 1.381 . S
C524 C530 1.383 . S
C525 C521 1.495 . S
C525 H531 0.959 . S
C525 H532 0.961 . S
C525 H533 0.960 . S
C526 C524 1.381 . S
C526 C527 1.394 . S
C526 H534 0.930 . S
C527 C526 1.394 . S
C527 C528 1.383 . S
C527 H535 0.929 . S
C528 C527 1.383 . S
C528 C529 1.377 . S
C529 H513 0.930 . S
C529 C528 1.377 . S
C529 C530 1.379 . S
C530 H514 0.931 . S
C530 C524 1.383 . S
C530 C529 1.379 . S
H531 C525 0.959 . S
H532 C525 0.961 . S
H533 C525 0.960 . S
H534 C526 0.930 . S
H535 C527 0.929 . S
H536 C544 0.929 . S
H537 C546 0.930 . S
H538 C548 0.930 . S
H539 C551 0.929 . S
H540 C554 0.930 . S
H541 C556 0.960 . S
H542 C556 0.960 . S
H543 C556 0.960 . S
C544 H536 0.929 . S
C544 C545 1.377 . S
C544 C546 1.384 . S
C545 C544 1.377 . S
C545 C551 1.390 . S
C546 H537 0.930 . S
C546 C544 1.384 . S
C546 C547 1.372 . S
C547 C546 1.372 . S
C547 C548 1.400 . S
C547 C552 1.490 . S
C548 H538 0.930 . S
C548 C547 1.400 . S
C548 C551 1.386 . S
H549 C565 0.930 . S
H550 C566 0.931 . S
C551 H539 0.929 . S
C551 C545 1.390 . S
C551 C548 1.386 . S
C552 C547 1.490 . S
C552 C554 1.395 . S
C552 C555 1.403 . S
H553 C559 0.930 . S
C554 H540 0.930 . S
C554 C552 1.395 . S
C554 C557 1.403 . S
C555 C552 1.403 . S
C555 C556 1.524 . S
C555 C559 1.400 . S
C556 H541 0.960 . S
C556 H542 0.960 . S
C556 H543 0.960 . S
C556 C555 1.524 . S
C557 C554 1.403 . S
C557 C558 1.392 . S
C557 C561 1.495 . S
C558 C557 1.392 . S
C558 C559 1.385 . S
C558 C560 1.478 . S
C559 H553 0.930 . S
C559 C555 1.400 . S
C559 C558 1.385 . S
C560 C558 1.478 . S
C560 C562 1.381 . S
C560 C566 1.383 . S
C561 C557 1.495 . S
C561 H567 0.959 . S
C561 H568 0.961 . S
C561 H569 0.960 . S
C562 C560 1.381 . S
C562 C563 1.394 . S
C562 H570 0.930 . S
C563 C562 1.394 . S
C563 C564 1.383 . S
C563 H571 0.929 . S
C564 C563 1.383 . S
C564 C565 1.377 . S
C565 H549 0.930 . S
C565 C564 1.377 . S
C565 C566 1.379 . S
C566 H550 0.931 . S
C566 C560 1.383 . S
C566 C565 1.379 . S
H567 C561 0.959 . S
H568 C561 0.961 . S
H569 C561 0.960 . S
H570 C562 0.930 . S
H571 C563 0.929 . S
H572 C580 0.929 . S
H573 C582 0.930 . S
H574 C584 0.930 . S
H575 C587 0.929 . S
H576 C590 0.930 . S
H577 C592 0.960 . S
H578 C592 0.960 . S
H579 C592 0.960 . S
C580 H572 0.929 . S
C580 C581 1.377 . S
C580 C582 1.384 . S
C581 C580 1.377 . S
C581 C587 1.390 . S
C582 H573 0.930 . S
C582 C580 1.384 . S
C582 C583 1.372 . S
C583 C582 1.372 . S
C583 C584 1.400 . S
C583 C588 1.490 . S
C584 H574 0.930 . S
C584 C583 1.400 . S
C584 C587 1.386 . S
H585 C601 0.930 . S
H586 C602 0.931 . S
C587 H575 0.929 . S
C587 C581 1.390 . S
C587 C584 1.386 . S
C588 C583 1.490 . S
C588 C590 1.395 1_455 S
C588 C591 1.403 . S
H589 C595 0.930 . S
C590 H576 0.930 . S
C590 C588 1.395 1_655 S
C590 C593 1.403 . S
C591 C588 1.403 . S
C591 C592 1.524 . S
C591 C595 1.400 . S
C592 H577 0.960 . S
C592 H578 0.960 . S
C592 H579 0.960 . S
C592 C591 1.524 . S
C593 C590 1.403 . S
C593 C594 1.392 . S
C593 C597 1.495 . S
C594 C593 1.392 . S
C594 C595 1.385 1_655 S
C594 C596 1.478 . S
C595 H589 0.930 . S
C595 C591 1.400 . S
C595 C594 1.385 1_455 S
C596 C594 1.478 . S
C596 C598 1.381 . S
C596 C602 1.383 . S
C597 C593 1.495 . S
C597 H603 0.959 . S
C597 H604 0.961 . S
C597 H605 0.960 . S
C598 C596 1.381 . S
C598 C599 1.394 . S
C598 H606 0.930 . S
C599 C598 1.394 . S
C599 C600 1.383 . S
C599 H607 0.929 . S
C600 C599 1.383 . S
C600 C601 1.377 . S
C601 H585 0.930 . S
C601 C600 1.377 . S
C601 C602 1.379 . S
C602 H586 0.931 . S
C602 C596 1.383 . S
C602 C601 1.379 . S
H603 C597 0.959 . S
H604 C597 0.961 . S
H605 C597 0.960 . S
H606 C598 0.930 . S
H607 C599 0.929 . S
H608 C616 0.929 . S
H609 C618 0.930 . S
H610 C620 0.930 . S
H611 C623 0.929 . S
H612 C626 0.930 . S
H613 C628 0.960 . S
H614 C628 0.960 . S
H615 C628 0.960 . S
C616 H608 0.929 . S
C616 C617 1.377 . S
C616 C618 1.384 . S
C617 C616 1.377 . S
C617 C623 1.390 . S
C618 H609 0.930 . S
C618 C616 1.384 . S
C618 C619 1.372 . S
C619 C618 1.372 . S
C619 C620 1.400 . S
C619 C624 1.490 . S
C620 H610 0.930 . S
C620 C619 1.400 . S
C620 C623 1.386 . S
H621 C637 0.930 . S
H622 C638 0.931 . S
C623 H611 0.929 . S
C623 C617 1.390 . S
C623 C620 1.386 . S
C624 C619 1.490 . S
C624 C626 1.395 . S
C624 C627 1.403 . S
H625 C631 0.930 . S
C626 H612 0.930 . S
C626 C624 1.395 . S
C626 C629 1.403 . S
C627 C624 1.403 . S
C627 C628 1.524 . S
C627 C631 1.400 . S
C628 H613 0.960 . S
C628 H614 0.960 . S
C628 H615 0.960 . S
C628 C627 1.524 . S
C629 C626 1.403 . S
C629 C630 1.392 . S
C629 C633 1.495 . S
C630 C629 1.392 . S
C630 C631 1.385 . S
C630 C632 1.478 . S
C631 H625 0.930 . S
C631 C627 1.400 . S
C631 C630 1.385 . S
C632 C630 1.478 . S
C632 C634 1.381 . S
C632 C638 1.383 . S
C633 C629 1.495 . S
C633 H639 0.959 . S
C633 H640 0.961 . S
C633 H641 0.960 . S
C634 C632 1.381 . S
C634 C635 1.394 . S
C634 H642 0.930 . S
C635 C634 1.394 . S
C635 C636 1.383 . S
C635 H643 0.929 . S
C636 C635 1.383 . S
C636 C637 1.377 . S
C637 H621 0.930 . S
C637 C636 1.377 . S
C637 C638 1.379 . S
C638 H622 0.931 . S
C638 C632 1.383 . S
C638 C637 1.379 . S
H639 C633 0.959 . S
H640 C633 0.961 . S
H641 C633 0.960 . S
H642 C634 0.930 . S
H643 C635 0.929 . S
H644 C652 0.929 . S
H645 C654 0.930 . S
H646 C656 0.930 . S
H647 C659 0.929 . S
H648 C662 0.930 . S
H649 C664 0.960 . S
H650 C664 0.960 . S
H651 C664 0.960 . S
C652 H644 0.929 . S
C652 C653 1.377 . S
C652 C654 1.384 . S
C653 C652 1.377 . S
C653 C659 1.390 1_655 S
C654 H645 0.930 . S
C654 C652 1.384 . S
C654 C655 1.372 . S
C655 C654 1.372 . S
C655 C656 1.400 1_655 S
C655 C660 1.490 . S
C656 H646 0.930 . S
C656 C655 1.400 1_455 S
C656 C659 1.386 . S
H657 C673 0.930 . S
H658 C674 0.931 . S
C659 H647 0.929 . S
C659 C653 1.390 1_455 S
C659 C656 1.386 . S
C660 C655 1.490 . S
C660 C662 1.395 . S
C660 C663 1.403 1_655 S
H661 C667 0.930 . S
C662 H648 0.930 . S
C662 C660 1.395 . S
C662 C665 1.403 . S
C663 C660 1.403 1_455 S
C663 C664 1.524 . S
C663 C667 1.400 . S
C664 H649 0.960 . S
C664 H650 0.960 . S
C664 H651 0.960 . S
C664 C663 1.524 . S
C665 C662 1.403 . S
C665 C666 1.380 1_655 S
C665 C669 1.495 . S
C666 C665 1.380 1_455 S
C666 C667 1.396 . S
C666 C668 1.480 . S
C667 H661 0.930 . S
C667 C663 1.400 . S
C667 C666 1.396 . S
C668 C666 1.480 . S
C668 C670 1.381 1_455 S
C668 C674 1.383 . S
C669 C665 1.495 . S
C669 H675 0.959 . S
C669 H676 0.961 . S
C669 H677 0.960 . S
C670 C668 1.381 1_655 S
C670 C671 1.394 . S
C670 H678 0.930 . S
C671 C670 1.394 . S
C671 C672 1.383 1_655 S
C671 H679 0.929 . S
C672 C671 1.383 1_455 S
C672 C673 1.377 . S
C673 H657 0.930 . S
C673 C672 1.377 . S
C673 C674 1.379 . S
C674 H658 0.931 . S
C674 C668 1.383 . S
C674 C673 1.379 . S
H675 C669 0.959 . S
H676 C669 0.961 . S
H677 C669 0.960 . S
H678 C670 0.930 . S
H679 C671 0.929 . S
H680 C688 0.929 . S
H681 C690 0.930 . S
H682 C692 0.930 . S
H683 C695 0.929 . S
H684 C698 0.930 . S
H685 C700 0.960 . S
H686 C700 0.960 . S
H687 C700 0.960 . S
C688 H680 0.929 . S
C688 C689 1.377 . S
C688 C690 1.384 . S
C689 C688 1.377 . S
C689 C695 1.390 . S
C690 H681 0.930 . S
C690 C688 1.384 . S
C690 C691 1.372 . S
C691 C690 1.372 . S
C691 C692 1.400 . S
C691 C696 1.490 . S
C692 H682 0.930 . S
C692 C691 1.400 . S
C692 C695 1.386 . S
H693 C709 0.930 . S
H694 C710 0.931 . S
C695 H683 0.929 . S
C695 C689 1.390 . S
C695 C692 1.386 . S
C696 C691 1.490 . S
C696 C698 1.395 . S
C696 C699 1.403 . S
H697 C703 0.930 . S
C698 H684 0.930 . S
C698 C696 1.395 . S
C698 C701 1.403 . S
C699 C696 1.403 . S
C699 C700 1.524 . S
C699 C703 1.400 . S
C700 H685 0.960 . S
C700 H686 0.960 . S
C700 H687 0.960 . S
C700 C699 1.524 . S
C701 C698 1.403 . S
C701 C702 1.392 . S
C701 C705 1.495 . S
C702 C701 1.392 . S
C702 C703 1.385 . S
C702 C704 1.478 . S
C703 H697 0.930 . S
C703 C699 1.400 . S
C703 C702 1.385 . S
C704 C702 1.478 . S
C704 C706 1.381 . S
C704 C710 1.383 . S
C705 C701 1.495 . S
C705 H711 0.959 . S
C705 H712 0.961 . S
C705 H713 0.960 . S
C706 C704 1.381 . S
C706 C707 1.394 . S
C706 H714 0.930 . S
C707 C706 1.394 . S
C707 C708 1.383 . S
C707 H715 0.929 . S
C708 C707 1.383 . S
C708 C709 1.377 . S
C709 H693 0.930 . S
C709 C708 1.377 . S
C709 C710 1.379 . S
C710 H694 0.931 . S
C710 C704 1.383 . S
C710 C709 1.379 . S
H711 C705 0.959 . S
H712 C705 0.961 . S
H713 C705 0.960 . S
H714 C706 0.930 . S
H715 C707 0.929 . S
H716 C724 0.929 . S
H717 C726 0.930 . S
H718 C728 0.930 . S
H719 C731 0.929 . S
H720 C734 0.930 . S
H721 C736 0.960 . S
H722 C736 0.960 . S
H723 C736 0.960 . S
C724 H716 0.929 . S
C724 C725 1.377 . S
C724 C726 1.384 . S
C725 C724 1.377 . S
C725 C731 1.390 . S
C726 H717 0.930 . S
C726 C724 1.384 . S
C726 C727 1.372 . S
C727 C726 1.372 . S
C727 C728 1.400 . S
C727 C732 1.490 . S
C728 H718 0.930 . S
C728 C727 1.400 . S
C728 C731 1.386 . S
H729 C745 0.930 . S
H730 C746 0.931 . S
C731 H719 0.929 . S
C731 C725 1.390 . S
C731 C728 1.386 . S
C732 C727 1.490 . S
C732 C734 1.395 . S
C732 C735 1.403 1_554 S
H733 C739 0.930 . S
C734 H720 0.930 . S
C734 C732 1.395 . S
C734 C737 1.403 . S
C735 C732 1.403 1_556 S
C735 C736 1.524 . S
C735 C739 1.400 . S
C736 H721 0.960 . S
C736 H722 0.960 . S
C736 H723 0.960 . S
C736 C735 1.524 . S
C737 C734 1.403 . S
C737 C738 1.392 1_554 S
C737 C741 1.495 . S
C738 C737 1.392 1_556 S
C738 C739 1.385 . S
C738 C740 1.478 . S
C739 H733 0.930 . S
C739 C735 1.400 . S
C739 C738 1.385 . S
C740 C738 1.478 . S
C740 C742 1.381 . S
C740 C746 1.383 . S
C741 C737 1.495 . S
C741 H747 0.959 . S
C741 H748 0.961 . S
C741 H749 0.960 . S
C742 C740 1.381 . S
C742 C743 1.394 1_655 S
C742 H750 0.930 . S
C743 C742 1.394 1_455 S
C743 C744 1.383 1_455 S
C743 H751 0.929 . S
C744 C743 1.383 1_655 S
C744 C745 1.377 . S
C745 H729 0.930 . S
C745 C744 1.377 . S
C745 C746 1.379 . S
C746 H730 0.931 . S
C746 C740 1.383 . S
C746 C745 1.379 . S
H747 C741 0.959 . S
H748 C741 0.961 . S
H749 C741 0.960 . S
H750 C742 0.930 . S
H751 C743 0.929 . S
H752 C760 0.929 . S
H753 C762 0.930 . S
H754 C764 0.930 . S
H755 C767 0.929 . S
H756 C770 0.930 . S
H757 C772 0.960 . S
H758 C772 0.960 . S
H759 C772 0.960 . S
C760 H752 0.929 . S
C760 C761 1.377 . S
C760 C762 1.384 1_655 S
C761 C760 1.377 . S
C761 C767 1.390 1_655 S
C762 H753 0.930 . S
C762 C760 1.384 1_455 S
C762 C763 1.372 . S
C763 C762 1.372 . S
C763 C764 1.400 . S
C763 C768 1.490 . S
C764 H754 0.930 . S
C764 C763 1.400 . S
C764 C767 1.386 . S
H765 C781 0.930 . S
H766 C782 0.931 . S
C767 H755 0.929 . S
C767 C761 1.390 1_455 S
C767 C764 1.386 . S
C768 C763 1.490 . S
C768 C770 1.395 . S
C768 C771 1.403 . S
H769 C775 0.930 . S
C770 H756 0.930 . S
C770 C768 1.395 . S
C770 C773 1.403 . S
C771 C768 1.403 . S
C771 C772 1.524 . S
C771 C775 1.400 . S
C772 H757 0.960 . S
C772 H758 0.960 . S
C772 H759 0.960 . S
C772 C771 1.524 . S
C773 C770 1.403 . S
C773 C774 1.392 . S
C773 C777 1.495 . S
C774 C773 1.392 . S
C774 C775 1.385 . S
C774 C776 1.478 . S
C775 H769 0.930 . S
C775 C771 1.400 . S
C775 C774 1.385 . S
C776 C774 1.478 . S
C776 C778 1.381 . S
C776 C782 1.383 . S
C777 C773 1.495 . S
C777 H783 0.959 . S
C777 H784 0.961 . S
C777 H785 0.960 . S
C778 C776 1.381 . S
C778 C779 1.394 . S
C778 H786 0.930 . S
C779 C778 1.394 . S
C779 C780 1.383 . S
C779 H787 0.929 . S
C780 C779 1.383 . S
C780 C781 1.377 . S
C781 H765 0.930 . S
C781 C780 1.377 . S
C781 C782 1.379 . S
C782 H766 0.931 . S
C782 C776 1.383 . S
C782 C781 1.379 . S
H783 C777 0.959 . S
H784 C777 0.961 . S
H785 C777 0.960 . S
H786 C778 0.930 . S
H787 C779 0.929 . S
H788 C796 0.929 . S
H789 C798 0.930 . S
H790 C800 0.930 . S
H791 C803 0.929 . S
H792 C806 0.930 . S
H793 C808 0.978 . S
H794 C808 0.965 . S
H795 C808 0.941 1_554 S
C796 H788 0.929 . S
C796 C797 1.377 . S
C796 C798 1.384 . S
C797 C796 1.377 . S
C797 C803 1.390 . S
C798 H789 0.930 . S
C798 C796 1.384 . S
C798 C799 1.372 . S
C799 C798 1.372 . S
C799 C800 1.400 . S
C799 C804 1.490 . S
C800 H790 0.930 . S
C800 C799 1.400 . S
C800 C803 1.386 . S
H801 C817 0.930 . S
H802 C818 0.931 . S
C803 H791 0.929 . S
C803 C797 1.390 . S
C803 C800 1.386 . S
C804 C799 1.490 . S
C804 C806 1.395 . S
C804 C807 1.403 . S
H805 C811 0.930 . S
C806 H792 0.930 . S
C806 C804 1.395 . S
C806 C809 1.403 . S
C807 C804 1.403 . S
C807 C808 1.520 1_554 S
C807 C811 1.400 1_554 S
C808 H793 0.978 . S
C808 H794 0.965 . S
C808 H795 0.941 1_556 S
C808 C807 1.520 1_556 S
C809 C806 1.403 . S
C809 C810 1.392 1_554 S
C809 C813 1.495 . S
C810 C809 1.392 1_556 S
C810 C811 1.385 . S
C810 C812 1.478 . S
C811 H805 0.930 . S
C811 C807 1.400 1_556 S
C811 C810 1.385 . S
C812 C810 1.478 . S
C812 C814 1.381 . S
C812 C818 1.383 . S
C813 C809 1.495 . S
C813 H819 0.959 . S
C813 H820 0.961 . S
C813 H821 0.960 1_554 S
C814 C812 1.381 . S
C814 C815 1.394 . S
C814 H822 0.930 . S
C815 C814 1.394 . S
C815 C816 1.383 . S
C815 H823 0.929 . S
C816 C815 1.383 . S
C816 C817 1.377 . S
C817 H801 0.930 . S
C817 C816 1.377 . S
C817 C818 1.379 . S
C818 H802 0.931 . S
C818 C812 1.383 . S
C818 C817 1.379 . S
H819 C813 0.959 . S
H820 C813 0.961 . S
H821 C813 0.960 1_556 S
H822 C814 0.930 . S
H823 C815 0.929 . S
H824 C832 0.929 . S
H825 C834 0.930 . S
H826 C836 0.930 . S
H827 C839 0.929 . S
H828 C842 0.930 . S
H829 C844 0.960 . S
H830 C844 0.960 . S
H831 C844 0.960 . S
C832 H824 0.929 . S
C832 C833 1.377 . S
C832 C834 1.384 . S
C833 C832 1.377 . S
C833 C839 1.390 . S
C834 H825 0.930 . S
C834 C832 1.384 . S
C834 C835 1.372 . S
C835 C834 1.372 . S
C835 C836 1.400 . S
C835 C840 1.490 . S
C836 H826 0.930 . S
C836 C835 1.400 . S
C836 C839 1.386 . S
H837 C853 0.930 . S
H838 C854 0.931 . S
C839 H827 0.929 . S
C839 C833 1.390 . S
C839 C836 1.386 . S
C840 C835 1.490 . S
C840 C842 1.395 . S
C840 C843 1.403 . S
H841 C847 0.930 . S
C842 H828 0.930 . S
C842 C840 1.395 . S
C842 C845 1.403 . S
C843 C840 1.403 . S
C843 C844 1.524 . S
C843 C847 1.400 . S
C844 H829 0.960 . S
C844 H830 0.960 . S
C844 H831 0.960 . S
C844 C843 1.524 . S
C845 C842 1.403 . S
C845 C846 1.392 . S
C845 C849 1.495 . S
C846 C845 1.392 . S
C846 C847 1.385 . S
C846 C848 1.478 . S
C847 H841 0.930 . S
C847 C843 1.400 . S
C847 C846 1.385 . S
C848 C846 1.478 . S
C848 C850 1.381 . S
C848 C854 1.383 . S
C849 C845 1.495 . S
C849 H855 0.959 . S
C849 H856 0.961 . S
C849 H857 0.960 . S
C850 C848 1.381 . S
C850 C851 1.394 . S
C850 H858 0.930 . S
C851 C850 1.394 . S
C851 C852 1.383 . S
C851 H859 0.929 . S
C852 C851 1.383 . S
C852 C853 1.377 . S
C853 H837 0.930 . S
C853 C852 1.377 . S
C853 C854 1.379 . S
C854 H838 0.931 . S
C854 C848 1.383 . S
C854 C853 1.379 . S
H855 C849 0.959 . S
H856 C849 0.961 . S
H857 C849 0.960 . S
H858 C850 0.930 . S
H859 C851 0.929 . S
H860 C868 0.929 . S
H861 C870 0.930 . S
H862 C872 0.930 . S
H863 C875 0.946 . S
H864 C878 0.930 . S
H865 C880 0.939 1_556 S
H866 C880 0.981 . S
H867 C880 0.957 1_556 S
C868 H860 0.929 . S
C868 C869 1.377 . S
C868 C870 1.384 . S
C869 C868 1.377 . S
C869 C875 1.386 1_455 S
C870 H861 0.930 . S
C870 C868 1.384 . S
C870 C871 1.372 . S
C871 C870 1.372 . S
C871 C872 1.400 . S
C871 C876 1.490 . S
C872 H862 0.930 . S
C872 C871 1.400 . S
C872 C875 1.373 1_455 S
H873 C889 0.930 . S
H874 C890 0.931 . S
C875 H863 0.946 . S
C875 C869 1.386 1_655 S
C875 C872 1.373 1_655 S
C876 C871 1.490 . S
C876 C878 1.395 . S
C876 C879 1.403 . S
H877 C883 0.930 . S
C878 H864 0.930 . S
C878 C876 1.395 . S
C878 C881 1.403 . S
C879 C876 1.403 . S
C879 C880 1.527 . S
C879 C883 1.400 1_554 S
C880 H865 0.939 1_554 S
C880 H866 0.981 . S
C880 H867 0.957 1_554 S
C880 C879 1.527 . S
C881 C878 1.403 . S
C881 C882 1.392 1_554 S
C881 C885 1.495 . S
C882 C881 1.392 1_556 S
C882 C883 1.385 . S
C882 C884 1.478 . S
C883 H877 0.930 . S
C883 C879 1.400 1_556 S
C883 C882 1.385 . S
C884 C882 1.478 . S
C884 C886 1.381 . S
C884 C890 1.383 . S
C885 C881 1.495 . S
C885 H891 0.959 . S
C885 H892 0.989 . S
C885 H893 0.960 . S
C886 C884 1.381 . S
C886 C887 1.394 . S
C886 H894 0.930 . S
C887 C886 1.394 . S
C887 C888 1.383 . S
C887 H895 0.929 . S
C888 C887 1.383 . S
C888 C889 1.377 . S
C889 H873 0.930 . S
C889 C888 1.377 . S
C889 C890 1.379 . S
C890 H874 0.931 . S
C890 C884 1.383 . S
C890 C889 1.379 . S
H891 C885 0.959 . S
H892 C885 0.989 . S
H893 C885 0.960 . S
H894 C886 0.930 . S
H895 C887 0.929 . S
H896 C904 0.929 . S
H897 C906 0.930 . S
H898 C908 0.930 . S
H899 C911 0.915 1_455 S
H900 C914 0.930 . S
H901 C916 0.960 . S
H902 C916 0.960 . S
H903 C916 0.960 . S
C904 H896 0.929 . S
C904 C905 1.377 . S
C904 C906 1.384 . S
C905 C904 1.377 . S
C905 C911 1.392 . S
C906 H897 0.930 . S
C906 C904 1.384 . S
C906 C907 1.372 . S
C907 C906 1.372 . S
C907 C908 1.400 . S
C907 C912 1.490 . S
C908 H898 0.930 . S
C908 C907 1.400 . S
C908 C911 1.398 . S
H909 C925 0.930 . S
H910 C926 0.931 . S
C911 H899 0.915 1_655 S
C911 C905 1.392 . S
C911 C908 1.398 . S
C912 C907 1.490 . S
C912 C914 1.395 . S
C912 C915 1.403 . S
H913 C919 0.930 . S
C914 H900 0.930 . S
C914 C912 1.395 . S
C914 C917 1.403 . S
C915 C912 1.403 . S
C915 C916 1.524 . S
C915 C919 1.400 . S
C916 H901 0.960 . S
C916 H902 0.960 . S
C916 H903 0.960 . S
C916 C915 1.524 . S
C917 C914 1.403 . S
C917 C918 1.392 . S
C917 C921 1.495 . S
C918 C917 1.392 . S
C918 C919 1.385 . S
C918 C920 1.478 . S
C919 H913 0.930 . S
C919 C915 1.400 . S
C919 C918 1.385 . S
C920 C918 1.478 . S
C920 C922 1.381 . S
C920 C926 1.383 . S
C921 C917 1.495 . S
C921 H927 0.959 . S
C921 H928 0.961 . S
C921 H929 0.960 . S
C922 C920 1.381 . S
C922 C923 1.394 . S
C922 H930 0.930 . S
C923 C922 1.394 . S
C923 C924 1.383 . S
C923 H931 0.929 . S
C924 C923 1.383 . S
C924 C925 1.377 . S
C925 H909 0.930 . S
C925 C924 1.377 . S
C925 C926 1.379 . S
C926 H910 0.931 . S
C926 C920 1.383 . S
C926 C925 1.379 . S
H927 C921 0.959 . S
H928 C921 0.961 . S
H929 C921 0.960 . S
H930 C922 0.930 . S
H931 C923 0.929 . S
H932 C940 0.929 . S
H933 C942 0.930 . S
H934 C944 0.930 . S
H935 C947 0.929 . S
H936 C950 0.930 . S
H937 C952 0.960 1_554 S
H938 C952 0.960 . S
H939 C952 0.960 1_554 S
C940 H932 0.929 . S
C940 C941 1.377 . S
C940 C942 1.384 . S
C941 C940 1.377 . S
C941 C947 1.390 . S
C942 H933 0.930 . S
C942 C940 1.384 . S
C942 C943 1.372 . S
C943 C942 1.372 . S
C943 C944 1.400 . S
C943 C948 1.490 . S
C944 H934 0.930 . S
C944 C943 1.400 . S
C944 C947 1.386 . S
H945 C961 0.930 . S
H946 C962 0.931 . S
C947 H935 0.929 . S
C947 C941 1.390 . S
C947 C944 1.386 . S
C948 C943 1.490 . S
C948 C950 1.395 . S
C948 C951 1.403 . S
H949 C955 0.930 . S
C950 H936 0.930 . S
C950 C948 1.395 . S
C950 C953 1.403 . S
C951 C948 1.403 . S
C951 C952 1.524 . S
C951 C955 1.400 1_556 S
C952 H937 0.960 1_556 S
C952 H938 0.960 . S
C952 H939 0.960 1_556 S
C952 C951 1.524 . S
C953 C950 1.403 . S
C953 C954 1.392 1_556 S
C953 C957 1.495 . S
C954 C953 1.392 1_554 S
C954 C955 1.385 . S
C954 C956 1.478 . S
C955 H949 0.930 . S
C955 C951 1.400 1_554 S
C955 C954 1.385 . S
C956 C954 1.478 . S
C956 C958 1.381 . S
C956 C962 1.383 . S
C957 C953 1.495 . S
C957 H963 0.959 . S
C957 H964 0.961 1_556 S
C957 H965 0.960 . S
C958 C956 1.381 . S
C958 C959 1.394 . S
C958 H966 0.930 . S
C959 C958 1.394 . S
C959 C960 1.383 . S
C959 H967 0.929 . S
C960 C959 1.383 . S
C960 C961 1.377 . S
C961 H945 0.930 . S
C961 C960 1.377 . S
C961 C962 1.379 . S
C962 H946 0.931 . S
C962 C956 1.383 . S
C962 C961 1.379 . S
H963 C957 0.959 . S
H964 C957 0.961 1_554 S
H965 C957 0.960 . S
H966 C958 0.930 . S
H967 C959 0.929 . S
H968 C976 0.929 1_565 S
H969 C978 0.930 . S
H970 C980 0.930 . S
H971 C983 0.929 . S
H972 C986 0.930 . S
H973 C988 0.960 . S
H974 C988 0.960 . S
H975 C988 0.960 . S
C976 H968 0.929 1_545 S
C976 C977 1.377 1_545 S
C976 C978 1.384 . S
C977 C976 1.377 1_565 S
C977 C983 1.390 1_565 S
C978 H969 0.930 . S
C978 C976 1.384 . S
C978 C979 1.372 . S
C979 C978 1.372 . S
C979 C980 1.400 . S
C979 C984 1.490 . S
C980 H970 0.930 . S
C980 C979 1.400 . S
C980 C983 1.386 . S
H981 C997 0.930 . S
H982 C998 0.931 . S
C983 H971 0.929 . S
C983 C977 1.390 1_545 S
C983 C980 1.386 . S
C984 C979 1.490 . S
C984 C986 1.395 . S
C984 C987 1.403 . S
H985 C991 0.930 . S
C986 H972 0.930 . S
C986 C984 1.395 . S
C986 C989 1.403 . S
C987 C984 1.403 . S
C987 C988 1.524 . S
C987 C991 1.400 . S
C988 H973 0.960 . S
C988 H974 0.960 . S
C988 H975 0.960 . S
C988 C987 1.524 . S
C989 C986 1.403 . S
C989 C990 1.392 . S
C989 C993 1.495 . S
C990 C989 1.392 . S
C990 C991 1.385 . S
C990 C992 1.478 . S
C991 H985 0.930 . S
C991 C987 1.400 . S
C991 C990 1.385 . S
C992 C990 1.478 . S
C992 C994 1.381 . S
C992 C998 1.383 . S
C993 C989 1.495 . S
C993 H999 0.959 . S
C993 H1000 0.961 . S
C993 H1001 0.960 . S
C994 C992 1.381 . S
C994 C995 1.394 . S
C994 H1002 0.930 . S
C995 C994 1.394 . S
C995 C996 1.383 . S
C995 H1003 0.929 . S
C996 C995 1.383 . S
C996 C997 1.377 . S
C997 H981 0.930 . S
C997 C996 1.377 . S
C997 C998 1.379 . S
C998 H982 0.931 . S
C998 C992 1.383 . S
C998 C997 1.379 . S
H999 C993 0.959 . S
H1000 C993 0.961 . S
H1001 C993 0.960 . S
H1002 C994 0.930 . S
H1003 C995 0.929 . S
H1004 C1012 0.929 . S
H1005 C1014 0.930 . S
H1006 C1016 0.930 . S
H1007 C1019 0.929 . S
H1008 C1022 0.930 . S
H1009 C1024 0.960 . S
H1010 C1024 0.960 . S
H1011 C1024 0.960 . S
C1012 H1004 0.929 . S
C1012 C1013 1.377 . S
C1012 C1014 1.384 . S
C1013 C1012 1.377 . S
C1013 C1019 1.390 . S
C1014 H1005 0.930 . S
C1014 C1012 1.384 . S
C1014 C1015 1.372 . S
C1015 C1014 1.372 . S
C1015 C1016 1.400 . S
C1015 C1020 1.490 . S
C1016 H1006 0.930 . S
C1016 C1015 1.400 . S
C1016 C1019 1.386 . S
H1017 C1033 0.930 . S
H1018 C1034 0.931 . S
C1019 H1007 0.929 . S
C1019 C1013 1.390 . S
C1019 C1016 1.386 . S
C1020 C1015 1.490 . S
C1020 C1022 1.395 . S
C1020 C1023 1.403 . S
H1021 C1027 0.930 . S
C1022 H1008 0.930 . S
C1022 C1020 1.395 . S
C1022 C1025 1.403 . S
C1023 C1020 1.403 . S
C1023 C1024 1.524 . S
C1023 C1027 1.400 . S
C1024 H1009 0.960 . S
C1024 H1010 0.960 . S
C1024 H1011 0.960 . S
C1024 C1023 1.524 . S
C1025 C1022 1.403 . S
C1025 C1026 1.392 . S
C1025 C1029 1.495 . S
C1026 C1025 1.392 . S
C1026 C1027 1.385 . S
C1026 C1028 1.478 . S
C1027 H1021 0.930 . S
C1027 C1023 1.400 . S
C1027 C1026 1.385 . S
C1028 C1026 1.478 . S
C1028 C1030 1.381 . S
C1028 C1034 1.383 . S
C1029 C1025 1.495 . S
C1029 H1035 0.959 . S
C1029 H1036 0.961 . S
C1029 H1037 0.960 . S
C1030 C1028 1.381 . S
C1030 C1031 1.394 . S
C1030 H1038 0.930 . S
C1031 C1030 1.394 . S
C1031 C1032 1.383 . S
C1031 H1039 0.929 . S
C1032 C1031 1.383 . S
C1032 C1033 1.377 . S
C1033 H1017 0.930 . S
C1033 C1032 1.377 . S
C1033 C1034 1.379 . S
C1034 H1018 0.931 . S
C1034 C1028 1.383 . S
C1034 C1033 1.379 . S
H1035 C1029 0.959 . S
H1036 C1029 0.961 . S
H1037 C1029 0.960 . S
H1038 C1030 0.930 . S
H1039 C1031 0.929 . S
H1040 C1048 0.929 . S
H1041 C1050 0.930 . S
H1042 C1052 0.930 . S
H1043 C1055 0.929 . S
H1044 C1058 0.930 . S
H1045 C1060 0.960 . S
H1046 C1060 0.960 . S
H1047 C1060 0.960 . S
C1048 H1040 0.929 . S
C1048 C1049 1.377 . S
C1048 C1050 1.384 . S
C1049 C1048 1.377 . S
C1049 C1055 1.390 . S
C1050 H1041 0.930 . S
C1050 C1048 1.384 . S
C1050 C1051 1.372 . S
C1051 C1050 1.372 . S
C1051 C1052 1.400 . S
C1051 C1056 1.490 . S
C1052 H1042 0.930 . S
C1052 C1051 1.400 . S
C1052 C1055 1.386 . S
H1053 C1069 0.930 . S
H1054 C1070 0.931 . S
C1055 H1043 0.929 . S
C1055 C1049 1.390 . S
C1055 C1052 1.386 . S
C1056 C1051 1.490 . S
C1056 C1058 1.395 . S
C1056 C1059 1.403 . S
H1057 C1063 0.930 . S
C1058 H1044 0.930 . S
C1058 C1056 1.395 . S
C1058 C1061 1.403 . S
C1059 C1056 1.403 . S
C1059 C1060 1.524 . S
C1059 C1063 1.400 . S
C1060 H1045 0.960 . S
C1060 H1046 0.960 . S
C1060 H1047 0.960 . S
C1060 C1059 1.524 . S
C1061 C1058 1.403 . S
C1061 C1062 1.392 . S
C1061 C1065 1.495 . S
C1062 C1061 1.392 . S
C1062 C1063 1.385 . S
C1062 C1064 1.478 . S
C1063 H1057 0.930 . S
C1063 C1059 1.400 . S
C1063 C1062 1.385 . S
C1064 C1062 1.478 . S
C1064 C1066 1.381 . S
C1064 C1070 1.383 . S
C1065 C1061 1.495 . S
C1065 H1071 0.959 . S
C1065 H1072 0.961 . S
C1065 H1073 0.960 . S
C1066 C1064 1.381 . S
C1066 C1067 1.394 . S
C1066 H1074 0.930 . S
C1067 C1066 1.394 . S
C1067 C1068 1.383 . S
C1067 H1075 0.929 . S
C1068 C1067 1.383 . S
C1068 C1069 1.377 . S
C1069 H1053 0.930 . S
C1069 C1068 1.377 . S
C1069 C1070 1.379 . S
C1070 H1054 0.931 . S
C1070 C1064 1.383 . S
C1070 C1069 1.379 . S
H1071 C1065 0.959 . S
H1072 C1065 0.961 . S
H1073 C1065 0.960 . S
H1074 C1066 0.930 . S
H1075 C1067 0.929 . S
H1076 C1084 0.929 . S
H1077 C1086 0.930 . S
H1078 C1088 0.930 . S
H1079 C1091 0.929 1_565 S
H1080 C1094 0.930 . S
H1081 C1096 0.960 . S
H1082 C1096 0.960 . S
H1083 C1096 0.960 . S
C1084 H1076 0.929 . S
C1084 C1085 1.377 1_545 S
C1084 C1086 1.384 . S
C1085 C1084 1.377 1_565 S
C1085 C1091 1.390 1_565 S
C1086 H1077 0.930 . S
C1086 C1084 1.384 . S
C1086 C1087 1.372 . S
C1087 C1086 1.372 . S
C1087 C1088 1.400 . S
C1087 C1092 1.490 . S
C1088 H1078 0.930 . S
C1088 C1087 1.400 . S
C1088 C1091 1.386 . S
H1089 C1105 0.930 . S
H1090 C1106 0.931 . S
C1091 H1079 0.929 1_545 S
C1091 C1085 1.390 1_545 S
C1091 C1088 1.386 . S
C1092 C1087 1.490 . S
C1092 C1094 1.395 . S
C1092 C1095 1.403 . S
H1093 C1099 0.930 . S
C1094 H1080 0.930 . S
C1094 C1092 1.395 . S
C1094 C1097 1.403 . S
C1095 C1092 1.403 . S
C1095 C1096 1.524 . S
C1095 C1099 1.400 . S
C1096 H1081 0.960 . S
C1096 H1082 0.960 . S
C1096 H1083 0.960 . S
C1096 C1095 1.524 . S
C1097 C1094 1.403 . S
C1097 C1098 1.392 . S
C1097 C1101 1.495 . S
C1098 C1097 1.392 . S
C1098 C1099 1.385 . S
C1098 C1100 1.478 . S
C1099 H1093 0.930 . S
C1099 C1095 1.400 . S
C1099 C1098 1.385 . S
C1100 C1098 1.478 . S
C1100 C1102 1.381 . S
C1100 C1106 1.383 . S
C1101 C1097 1.495 . S
C1101 H1107 0.959 . S
C1101 H1108 0.961 . S
C1101 H1109 0.960 . S
C1102 C1100 1.381 . S
C1102 C1103 1.394 . S
C1102 H1110 0.930 . S
C1103 C1102 1.394 . S
C1103 C1104 1.383 . S
C1103 H1111 0.929 . S
C1104 C1103 1.383 . S
C1104 C1105 1.377 . S
C1105 H1089 0.930 . S
C1105 C1104 1.377 . S
C1105 C1106 1.379 . S
C1106 H1090 0.931 . S
C1106 C1100 1.383 . S
C1106 C1105 1.379 . S
H1107 C1101 0.959 . S
H1108 C1101 0.961 . S
H1109 C1101 0.960 . S
H1110 C1102 0.930 . S
H1111 C1103 0.929 . S
H1112 C1120 0.929 . S
H1113 C1122 0.930 . S
H1114 C1124 0.930 . S
H1115 C1127 0.929 . S
H1116 C1130 0.930 . S
H1117 C1132 0.960 . S
H1118 C1132 0.960 . S
H1119 C1132 0.960 . S
C1120 H1112 0.929 . S
C1120 C1121 1.377 . S
C1120 C1122 1.384 . S
C1121 C1120 1.377 . S
C1121 C1127 1.390 . S
C1122 H1113 0.930 . S
C1122 C1120 1.384 . S
C1122 C1123 1.372 . S
C1123 C1122 1.372 . S
C1123 C1124 1.400 . S
C1123 C1128 1.490 . S
C1124 H1114 0.930 . S
C1124 C1123 1.400 . S
C1124 C1127 1.386 . S
H1125 C1141 0.930 . S
H1126 C1142 0.931 . S
C1127 H1115 0.929 . S
C1127 C1121 1.390 . S
C1127 C1124 1.386 . S
C1128 C1123 1.490 . S
C1128 C1130 1.395 . S
C1128 C1131 1.403 . S
H1129 C1135 0.930 . S
C1130 H1116 0.930 . S
C1130 C1128 1.395 . S
C1130 C1133 1.403 . S
C1131 C1128 1.403 . S
C1131 C1132 1.524 . S
C1131 C1135 1.400 . S
C1132 H1117 0.960 . S
C1132 H1118 0.960 . S
C1132 H1119 0.960 . S
C1132 C1131 1.524 . S
C1133 C1130 1.403 . S
C1133 C1134 1.392 . S
C1133 C1137 1.495 . S
C1134 C1133 1.392 . S
C1134 C1135 1.385 . S
C1134 C1136 1.478 . S
C1135 H1129 0.930 . S
C1135 C1131 1.400 . S
C1135 C1134 1.385 . S
C1136 C1134 1.478 . S
C1136 C1138 1.381 . S
C1136 C1142 1.383 . S
C1137 C1133 1.495 . S
C1137 H1143 0.959 . S
C1137 H1144 0.961 . S
C1137 H1145 0.960 . S
C1138 C1136 1.381 . S
C1138 C1139 1.394 . S
C1138 H1146 0.930 . S
C1139 C1138 1.394 . S
C1139 C1140 1.383 1_565 S
C1139 H1147 0.929 1_565 S
C1140 C1139 1.383 1_545 S
C1140 C1141 1.377 1_545 S
C1141 H1125 0.930 . S
C1141 C1140 1.377 1_565 S
C1141 C1142 1.379 . S
C1142 H1126 0.931 . S
C1142 C1136 1.383 . S
C1142 C1141 1.379 . S
H1143 C1137 0.959 . S
H1144 C1137 0.961 . S
H1145 C1137 0.960 . S
H1146 C1138 0.930 . S
H1147 C1139 0.929 1_545 S
H1148 C1156 0.929 . S
H1149 C1158 0.930 . S
H1150 C1160 0.930 . S
H1151 C1163 0.929 . S
H1152 C1166 0.930 . S
H1153 C1168 0.960 . S
H1154 C1168 0.960 . S
H1155 C1168 0.960 . S
C1156 H1148 0.929 . S
C1156 C1157 1.377 . S
C1156 C1158 1.384 . S
C1157 C1156 1.377 . S
C1157 C1163 1.390 . S
C1158 H1149 0.930 . S
C1158 C1156 1.384 . S
C1158 C1159 1.372 . S
C1159 C1158 1.372 . S
C1159 C1160 1.400 . S
C1159 C1164 1.490 . S
C1160 H1150 0.930 . S
C1160 C1159 1.400 . S
C1160 C1163 1.386 . S
H1161 C1177 0.930 . S
H1162 C1178 0.931 . S
C1163 H1151 0.929 . S
C1163 C1157 1.390 . S
C1163 C1160 1.386 . S
C1164 C1159 1.490 . S
C1164 C1166 1.395 . S
C1164 C1167 1.403 . S
H1165 C1171 0.930 . S
C1166 H1152 0.930 . S
C1166 C1164 1.395 . S
C1166 C1169 1.403 . S
C1167 C1164 1.403 . S
C1167 C1168 1.524 . S
C1167 C1171 1.400 . S
C1168 H1153 0.960 . S
C1168 H1154 0.960 . S
C1168 H1155 0.960 . S
C1168 C1167 1.524 . S
C1169 C1166 1.403 . S
C1169 C1170 1.392 . S
C1169 C1173 1.495 . S
C1170 C1169 1.392 . S
C1170 C1171 1.385 . S
C1170 C1172 1.478 . S
C1171 H1165 0.930 . S
C1171 C1167 1.400 . S
C1171 C1170 1.385 . S
C1172 C1170 1.478 . S
C1172 C1174 1.381 . S
C1172 C1178 1.383 . S
C1173 C1169 1.495 . S
C1173 H1179 0.959 . S
C1173 H1180 0.961 . S
C1173 H1181 0.960 . S
C1174 C1172 1.381 . S
C1174 C1175 1.394 . S
C1174 H1182 0.930 . S
C1175 C1174 1.394 . S
C1175 C1176 1.383 . S
C1175 H1183 0.929 . S
C1176 C1175 1.383 . S
C1176 C1177 1.377 . S
C1177 H1161 0.930 . S
C1177 C1176 1.377 . S
C1177 C1178 1.379 . S
C1178 H1162 0.931 . S
C1178 C1172 1.383 . S
C1178 C1177 1.379 . S
H1179 C1173 0.959 . S
H1180 C1173 0.961 . S
H1181 C1173 0.960 . S
H1182 C1174 0.930 . S
H1183 C1175 0.929 . S
H1184 C1192 0.929 . S
H1185 C1194 0.930 . S
H1186 C1196 0.930 . S
H1187 C1199 0.929 . S
H1188 C1202 0.930 . S
H1189 C1204 0.960 . S
H1190 C1204 0.960 . S
H1191 C1204 0.960 . S
C1192 H1184 0.929 . S
C1192 C1193 1.377 . S
C1192 C1194 1.384 . S
C1193 C1192 1.377 . S
C1193 C1199 1.390 . S
C1194 H1185 0.930 . S
C1194 C1192 1.384 . S
C1194 C1195 1.372 . S
C1195 C1194 1.372 . S
C1195 C1196 1.400 . S
C1195 C1200 1.490 . S
C1196 H1186 0.930 . S
C1196 C1195 1.400 . S
C1196 C1199 1.386 . S
H1197 C1213 0.930 . S
H1198 C1214 0.931 . S
C1199 H1187 0.929 . S
C1199 C1193 1.390 . S
C1199 C1196 1.386 . S
C1200 C1195 1.490 . S
C1200 C1202 1.395 . S
C1200 C1203 1.403 . S
H1201 C1207 0.930 . S
C1202 H1188 0.930 . S
C1202 C1200 1.395 . S
C1202 C1205 1.403 . S
C1203 C1200 1.403 . S
C1203 C1204 1.524 . S
C1203 C1207 1.400 . S
C1204 H1189 0.960 . S
C1204 H1190 0.960 . S
C1204 H1191 0.960 . S
C1204 C1203 1.524 . S
C1205 C1202 1.403 . S
C1205 C1206 1.392 . S
C1205 C1209 1.495 . S
C1206 C1205 1.392 . S
C1206 C1207 1.385 . S
C1206 C1208 1.478 . S
C1207 H1201 0.930 . S
C1207 C1203 1.400 . S
C1207 C1206 1.385 . S
C1208 C1206 1.478 . S
C1208 C1210 1.381 . S
C1208 C1214 1.383 . S
C1209 C1205 1.495 . S
C1209 H1215 0.959 . S
C1209 H1216 0.961 . S
C1209 H1217 0.960 . S
C1210 C1208 1.381 . S
C1210 C1211 1.394 . S
C1210 H1218 0.930 . S
C1211 C1210 1.394 . S
C1211 C1212 1.383 . S
C1211 H1219 0.929 . S
C1212 C1211 1.383 . S
C1212 C1213 1.377 . S
C1213 H1197 0.930 . S
C1213 C1212 1.377 . S
C1213 C1214 1.379 . S
C1214 H1198 0.931 . S
C1214 C1208 1.383 . S
C1214 C1213 1.379 . S
H1215 C1209 0.959 . S
H1216 C1209 0.961 . S
H1217 C1209 0.960 . S
H1218 C1210 0.930 . S
H1219 C1211 0.929 . S
H1220 C1228 0.929 . S
H1221 C1230 0.930 . S
H1222 C1232 0.930 . S
H1223 C1235 0.929 . S
H1224 C1238 0.930 . S
H1225 C1240 0.960 . S
H1226 C1240 0.960 . S
H1227 C1240 0.960 . S
C1228 H1220 0.929 . S
C1228 C1229 1.377 . S
C1228 C1230 1.384 . S
C1229 C1228 1.377 . S
C1229 C1235 1.390 . S
C1230 H1221 0.930 . S
C1230 C1228 1.384 . S
C1230 C1231 1.372 . S
C1231 C1230 1.372 . S
C1231 C1232 1.400 . S
C1231 C1236 1.490 . S
C1232 H1222 0.930 . S
C1232 C1231 1.400 . S
C1232 C1235 1.386 . S
H1233 C1249 0.930 1_545 S
H1234 C1250 0.931 . S
C1235 H1223 0.929 . S
C1235 C1229 1.390 . S
C1235 C1232 1.386 . S
C1236 C1231 1.490 . S
C1236 C1238 1.395 . S
C1236 C1239 1.403 . S
H1237 C1243 0.930 . S
C1238 H1224 0.930 . S
C1238 C1236 1.395 . S
C1238 C1241 1.403 . S
C1239 C1236 1.403 . S
C1239 C1240 1.524 . S
C1239 C1243 1.400 . S
C1240 H1225 0.960 . S
C1240 H1226 0.960 . S
C1240 H1227 0.960 . S
C1240 C1239 1.524 . S
C1241 C1238 1.403 . S
C1241 C1242 1.392 . S
C1241 C1245 1.495 . S
C1242 C1241 1.392 . S
C1242 C1243 1.385 . S
C1242 C1244 1.478 . S
C1243 H1237 0.930 . S
C1243 C1239 1.400 . S
C1243 C1242 1.385 . S
C1244 C1242 1.478 . S
C1244 C1246 1.381 . S
C1244 C1250 1.383 . S
C1245 C1241 1.495 . S
C1245 H1251 0.959 . S
C1245 H1252 0.961 . S
C1245 H1253 0.960 . S
C1246 C1244 1.381 . S
C1246 C1247 1.394 . S
C1246 H1254 0.930 . S
C1247 C1246 1.394 . S
C1247 C1248 1.383 1_565 S
C1247 H1255 0.929 . S
C1248 C1247 1.383 1_545 S
C1248 C1249 1.377 1_545 S
C1249 H1233 0.930 1_565 S
C1249 C1248 1.377 1_565 S
C1249 C1250 1.379 . S
C1250 H1234 0.931 . S
C1250 C1244 1.383 . S
C1250 C1249 1.379 . S
H1251 C1245 0.959 . S
H1252 C1245 0.961 . S
H1253 C1245 0.960 . S
H1254 C1246 0.930 . S
H1255 C1247 0.929 . S
H1256 C1264 0.929 . S
H1257 C1266 0.930 . S
H1258 C1268 0.930 . S
H1259 C1271 0.929 . S
H1260 C1274 0.930 . S
H1261 C1276 0.960 . S
H1262 C1276 0.960 . S
H1263 C1276 0.960 . S
C1264 H1256 0.929 . S
C1264 C1265 1.377 . S
C1264 C1266 1.384 . S
C1265 C1264 1.377 . S
C1265 C1271 1.390 . S
C1266 H1257 0.930 . S
C1266 C1264 1.384 . S
C1266 C1267 1.372 . S
C1267 C1266 1.372 . S
C1267 C1268 1.400 . S
C1267 C1272 1.490 . S
C1268 H1258 0.930 . S
C1268 C1267 1.400 . S
C1268 C1271 1.386 . S
H1269 C1285 0.930 . S
H1270 C1286 0.931 . S
C1271 H1259 0.929 . S
C1271 C1265 1.390 . S
C1271 C1268 1.386 . S
C1272 C1267 1.490 . S
C1272 C1274 1.395 . S
C1272 C1275 1.403 . S
H1273 C1279 0.930 . S
C1274 H1260 0.930 . S
C1274 C1272 1.395 . S
C1274 C1277 1.403 . S
C1275 C1272 1.403 . S
C1275 C1276 1.524 . S
C1275 C1279 1.400 . S
C1276 H1261 0.960 . S
C1276 H1262 0.960 . S
C1276 H1263 0.960 . S
C1276 C1275 1.524 . S
C1277 C1274 1.403 . S
C1277 C1278 1.392 . S
C1277 C1281 1.495 . S
C1278 C1277 1.392 . S
C1278 C1279 1.385 . S
C1278 C1280 1.478 . S
C1279 H1273 0.930 . S
C1279 C1275 1.400 . S
C1279 C1278 1.385 . S
C1280 C1278 1.478 . S
C1280 C1282 1.381 . S
C1280 C1286 1.383 . S
C1281 C1277 1.495 . S
C1281 H1287 0.959 . S
C1281 H1288 0.961 . S
C1281 H1289 0.960 . S
C1282 C1280 1.381 . S
C1282 C1283 1.394 . S
C1282 H1290 0.930 . S
C1283 C1282 1.394 . S
C1283 C1284 1.383 . S
C1283 H1291 0.929 . S
C1284 C1283 1.383 . S
C1284 C1285 1.377 . S
C1285 H1269 0.930 . S
C1285 C1284 1.377 . S
C1285 C1286 1.379 . S
C1286 H1270 0.931 . S
C1286 C1280 1.383 . S
C1286 C1285 1.379 . S
H1287 C1281 0.959 . S
H1288 C1281 0.961 . S
H1289 C1281 0.960 . S
H1290 C1282 0.930 . S
H1291 C1283 0.929 . S
H1292 C1300 0.929 . S
H1293 C1302 0.930 1_545 S
H1294 C1304 0.933 . S
H1295 C1307 0.929 . S
H1296 C1310 0.930 . S
H1297 C1312 0.960 . S
H1298 C1312 0.960 1_554 S
H1299 C1312 0.960 1_554 S
C1300 H1292 0.929 . S
C1300 C1301 1.377 . S
C1300 C1302 1.384 . S
C1301 C1300 1.377 . S
C1301 C1307 1.390 . S
C1302 H1293 0.930 1_565 S
C1302 C1300 1.384 . S
C1302 C1303 1.372 . S
C1303 C1302 1.372 . S
C1303 C1304 1.400 . S
C1303 C1308 1.490 . S
C1304 H1294 0.933 . S
C1304 C1303 1.400 . S
C1304 C1307 1.386 . S
H1305 C1321 0.930 . S
H1306 C1322 0.931 1_565 S
C1307 H1295 0.929 . S
C1307 C1301 1.390 . S
C1307 C1304 1.386 . S
C1308 C1303 1.490 . S
C1308 C1310 1.395 1_665 S
C1308 C1311 1.398 1_554 S
H1309 C1315 0.930 . S
C1310 H1296 0.930 . S
C1310 C1308 1.395 1_445 S
C1310 C1313 1.403 . S
C1311 C1308 1.398 1_556 S
C1311 C1312 1.524 . S
C1311 C1315 1.404 . S
C1312 H1297 0.960 . S
C1312 H1298 0.960 1_556 S
C1312 H1299 0.960 1_556 S
C1312 C1311 1.524 . S
C1313 C1310 1.403 . S
C1313 C1314 1.392 1_554 S
C1313 C1317 1.495 . S
C1314 C1313 1.392 1_556 S
C1314 C1315 1.385 1_445 S
C1314 C1316 1.478 . S
C1315 H1309 0.930 . S
C1315 C1311 1.404 . S
C1315 C1314 1.385 1_665 S
C1316 C1314 1.478 . S
C1316 C1318 1.381 . S
C1316 C1322 1.383 . S
C1317 C1313 1.495 . S
C1317 H1323 0.959 . S
C1317 H1324 0.961 1_554 S
C1317 H1325 0.960 1_554 S
C1318 C1316 1.381 . S
C1318 C1319 1.394 . S
C1318 H1326 0.930 1_455 S
C1319 C1318 1.394 . S
C1319 C1320 1.383 . S
C1319 H1327 0.929 . S
C1320 C1319 1.383 . S
C1320 C1321 1.377 . S
C1321 H1305 0.930 . S
C1321 C1320 1.377 . S
C1321 C1322 1.379 . S
C1322 H1306 0.931 1_545 S
C1322 C1316 1.383 . S
C1322 C1321 1.379 . S
H1323 C1317 0.959 . S
H1324 C1317 0.961 1_556 S
H1325 C1317 0.960 1_556 S
H1326 C1318 0.930 1_655 S
H1327 C1319 0.929 . S
H1328 C1336 0.929 . S
H1329 C1338 0.930 . S
H1330 C1340 0.930 . S
H1331 C1343 0.929 . S
H1332 C1346 0.930 . S
H1333 C1348 0.960 . S
H1334 C1348 0.960 . S
H1335 C1348 0.960 . S
C1336 H1328 0.929 . S
C1336 C1337 1.377 1_455 S
C1336 C1338 1.384 . S
C1337 C1336 1.377 1_655 S
C1337 C1343 1.390 . S
C1338 H1329 0.930 . S
C1338 C1336 1.384 . S
C1338 C1339 1.372 1_455 S
C1339 C1338 1.372 1_655 S
C1339 C1340 1.400 . S
C1339 C1344 1.490 . S
C1340 H1330 0.930 . S
C1340 C1339 1.400 . S
C1340 C1343 1.386 . S
H1341 C1357 0.923 1_655 S
H1342 C1358 0.931 . S
C1343 H1331 0.929 . S
C1343 C1337 1.390 . S
C1343 C1340 1.386 . S
C1344 C1339 1.490 . S
C1344 C1346 1.395 1_645 S
C1344 C1347 1.403 . S
H1345 C1351 0.930 . S
C1346 H1332 0.930 . S
C1346 C1344 1.395 1_465 S
C1346 C1349 1.403 . S
C1347 C1344 1.403 . S
C1347 C1348 1.524 . S
C1347 C1351 1.400 . S
C1348 H1333 0.960 . S
C1348 H1334 0.960 . S
C1348 H1335 0.960 . S
C1348 C1347 1.524 . S
C1349 C1346 1.403 . S
C1349 C1350 1.392 . S
C1349 C1353 1.495 . S
C1350 C1349 1.392 . S
C1350 C1351 1.385 1_465 S
C1350 C1352 1.478 . S
C1351 H1345 0.930 . S
C1351 C1347 1.400 . S
C1351 C1350 1.385 1_645 S
C1352 C1350 1.478 . S
C1352 C1354 1.381 . S
C1352 C1358 1.383 1_455 S
C1353 C1349 1.495 . S
C1353 H1359 0.959 . S
C1353 H1360 0.961 . S
C1353 H1361 0.960 . S
C1354 C1352 1.381 . S
C1354 C1355 1.394 . S
C1354 H1362 0.930 . S
C1355 C1354 1.394 . S
C1355 C1356 1.383 . S
C1355 H1363 0.929 . S
C1356 C1355 1.383 . S
C1356 C1357 1.385 . S
C1357 H1341 0.923 1_455 S
C1357 C1356 1.385 . S
C1357 C1358 1.378 1_455 S
C1358 H1342 0.931 . S
C1358 C1352 1.383 1_655 S
C1358 C1357 1.378 1_655 S
H1359 C1353 0.959 . S
H1360 C1353 0.961 . S
H1361 C1353 0.960 . S
H1362 C1354 0.930 . S
H1363 C1355 0.929 . S
H1364 C1372 0.929 . S
H1365 C1374 0.930 . S
H1366 C1376 0.930 . S
H1367 C1379 0.929 . S
H1368 C1382 0.930 . S
H1369 C1384 0.960 . S
H1370 C1384 0.960 . S
H1371 C1384 0.960 . S
C1372 H1364 0.929 . S
C1372 C1373 1.377 . S
C1372 C1374 1.384 . S
C1373 C1372 1.377 . S
C1373 C1379 1.390 . S
C1374 H1365 0.930 . S
C1374 C1372 1.384 . S
C1374 C1375 1.372 . S
C1375 C1374 1.372 . S
C1375 C1376 1.400 . S
C1375 C1380 1.490 . S
C1376 H1366 0.930 . S
C1376 C1375 1.400 . S
C1376 C1379 1.386 . S
H1377 C1393 0.930 . S
H1378 C1394 0.931 . S
C1379 H1367 0.929 . S
C1379 C1373 1.390 . S
C1379 C1376 1.386 . S
C1380 C1375 1.490 . S
C1380 C1382 1.395 . S
C1380 C1383 1.403 . S
H1381 C1387 0.930 . S
C1382 H1368 0.930 . S
C1382 C1380 1.395 . S
C1382 C1385 1.403 1_554 S
C1383 C1380 1.403 . S
C1383 C1384 1.524 . S
C1383 C1387 1.400 1_554 S
C1384 H1369 0.960 . S
C1384 H1370 0.960 . S
C1384 H1371 0.960 . S
C1384 C1383 1.524 . S
C1385 C1382 1.403 1_556 S
C1385 C1386 1.392 . S
C1385 C1389 1.495 . S
C1386 C1385 1.392 . S
C1386 C1387 1.385 . S
C1386 C1388 1.478 . S
C1387 H1381 0.930 . S
C1387 C1383 1.400 1_556 S
C1387 C1386 1.385 . S
C1388 C1386 1.478 . S
C1388 C1390 1.381 . S
C1388 C1394 1.383 . S
C1389 C1385 1.495 . S
C1389 H1395 0.959 . S
C1389 H1396 0.961 . S
C1389 H1397 0.960 . S
C1390 C1388 1.381 . S
C1390 C1391 1.394 . S
C1390 H1398 0.930 . S
C1391 C1390 1.394 . S
C1391 C1392 1.383 . S
C1391 H1399 0.929 . S
C1392 C1391 1.383 . S
C1392 C1393 1.377 . S
C1393 H1377 0.930 . S
C1393 C1392 1.377 . S
C1393 C1394 1.379 . S
C1394 H1378 0.931 . S
C1394 C1388 1.383 . S
C1394 C1393 1.379 . S
H1395 C1389 0.959 . S
H1396 C1389 0.961 . S
H1397 C1389 0.960 . S
H1398 C1390 0.930 . S
H1399 C1391 0.929 . S
C257 C20 1.157 . S
C276 C1 1.190 . S
C293 C33 1.700 . S
C312 C60 1.694 . S
C329 C82 1.175 . S
C348 C63 1.137 . S
C365 C122 1.692 . S
C384 C95 1.705 . S
C401 C126 1.697 . S
C420 C153 1.693 . S
C437 C184 1.693 . S
C456 C157 1.701 . S
C473 C188 1.697 . S
C492 C215 1.671 . S
C509 C219 1.699 . S
C528 C246 1.698 . S
C545 C103 1.309 . S
C564 C0 1.285 . S
C581 C61 1.303 . S
C600 C81 1.317 . S
C617 C134 1.201 . S
C636 C247 1.192 . S
C653 C165 1.206 . S
C672 C196 1.224 . S
C689 C92 0.892 . S
C708 C2 0.911 . S
C725 C93 0.803 . S
C744 C51 0.815 . S
C761 C91 0.857 . S
C780 C10 0.861 . S
C797 C94 0.794 . S
C816 C50 0.799 . S
C833 C186 0.755 . S
C852 C125 0.691 . S
C869 C156 0.759 . S
C888 C236 0.779 . S
C905 C187 0.746 . S
C924 C124 0.742 . S
C941 C237 0.759 . S
C960 C155 0.780 . S
C977 C206 1.887 . S
C996 C19 1.910 . S
C1013 C41 1.753 . S
C1032 C218 1.805 . S
C1049 C144 1.887 . S
C1068 C62 1.917 . S
C1085 C175 1.807 . S
C1104 C123 1.732 . S
C1121 C154 1.965 . S
C1140 C64 2.019 . S
C1157 C113 1.809 . S
C1176 C185 1.750 . S
C1193 C29 2.006 . S
C1212 C216 1.964 . S
C1229 C227 1.763 . S
C1248 C32 1.799 . S
C1265 C143 0.818 . S
C1284 C30 0.798 . S
C1301 C174 0.854 . S
C1320 C31 0.788 . S
C1337 C72 0.815 . S
C1356 C205 0.763 . S
C1373 C112 0.870 . S
C1392 C217 0.931 . S
