# Generated by pormake.
# Topology wlr, (5)-cn, num edge types: 1
# Building blocks:
#     Node 0, Type 0, BuildingBlock: BEQFEK_clean_sbu_0, # of connection points: 5
#     Node 1, Type 0, BuildingBlock: BEQFEK_clean_sbu_0, # of connection points: 5
#     Node 2, Type 0, BuildingBlock: BEQFEK_clean_sbu_0, # of connection points: 5
#     Node 3, Type 0, BuildingBlock: BEQFEK_clean_sbu_0, # of connection points: 5
#     Node 4, Type 0, BuildingBlock: BEQFEK_clean_sbu_0, # of connection points: 5
#     Node 5, Type 0, BuildingBlock: BEQFEK_clean_sbu_0, # of connection points: 5
#     Node 6, Type 0, BuildingBlock: BEQFEK_clean_sbu_0, # of connection points: 5
#     Node 7, Type 0, BuildingBlock: BEQFEK_clean_sbu_0, # of connection points: 5
#     Node 8, Type 0, BuildingBlock: BEQFEK_clean_sbu_0, # of connection points: 5
#     Node 9, Type 0, BuildingBlock: BEQFEK_clean_sbu_0, # of connection points: 5
#     Node 10, Type 0, BuildingBlock: BEQFEK_clean_sbu_0, # of connection points: 5
#     Node 11, Type 0, BuildingBlock: BEQFEK_clean_sbu_0, # of connection points: 5
#     Node 12, Type 0, BuildingBlock: BEQFEK_clean_sbu_0, # of connection points: 5
#     Node 13, Type 0, BuildingBlock: BEQFEK_clean_sbu_0, # of connection points: 5
#     Node 14, Type 0, BuildingBlock: BEQFEK_clean_sbu_0, # of connection points: 5
#     Node 15, Type 0, BuildingBlock: BEQFEK_clean_sbu_0, # of connection points: 5
#     Node 16, Type 0, BuildingBlock: BEQFEK_clean_sbu_0, # of connection points: 5
#     Node 17, Type 0, BuildingBlock: BEQFEK_clean_sbu_0, # of connection points: 5
#     Node 18, Type 0, BuildingBlock: BEQFEK_clean_sbu_0, # of connection points: 5
#     Node 19, Type 0, BuildingBlock: BEQFEK_clean_sbu_0, # of connection points: 5
#     Node 20, Type 0, BuildingBlock: BEQFEK_clean_sbu_0, # of connection points: 5
#     Node 21, Type 0, BuildingBlock: BEQFEK_clean_sbu_0, # of connection points: 5
#     Node 22, Type 0, BuildingBlock: BEQFEK_clean_sbu_0, # of connection points: 5
#     Node 23, Type 0, BuildingBlock: BEQFEK_clean_sbu_0, # of connection points: 5
#     Node 24, Type 0, BuildingBlock: BEQFEK_clean_sbu_0, # of connection points: 5
#     Node 25, Type 0, BuildingBlock: BEQFEK_clean_sbu_0, # of connection points: 5
#     Node 26, Type 0, BuildingBlock: BEQFEK_clean_sbu_0, # of connection points: 5
#     Node 27, Type 0, BuildingBlock: BEQFEK_clean_sbu_0, # of connection points: 5
#     Node 28, Type 0, BuildingBlock: BEQFEK_clean_sbu_0, # of connection points: 5
#     Node 29, Type 0, BuildingBlock: BEQFEK_clean_sbu_0, # of connection points: 5
#     Node 30, Type 0, BuildingBlock: BEQFEK_clean_sbu_0, # of connection points: 5
#     Node 31, Type 0, BuildingBlock: BEQFEK_clean_sbu_0, # of connection points: 5
#     Node 32, Type 0, BuildingBlock: BEQFEK_clean_sbu_0, # of connection points: 5
#     Node 33, Type 0, BuildingBlock: BEQFEK_clean_sbu_0, # of connection points: 5
#     Node 34, Type 0, BuildingBlock: BEQFEK_clean_sbu_0, # of connection points: 5
#     Node 35, Type 0, BuildingBlock: BEQFEK_clean_sbu_0, # of connection points: 5
#     Edge 36, Type (0, 0), BuildingBlock: UVAHIK_clean_linker_0, # of connection points: 2
#     Edge 37, Type (0, 0), BuildingBlock: UVAHIK_clean_linker_0, # of connection points: 2
#     Edge 38, Type (0, 0), BuildingBlock: UVAHIK_clean_linker_0, # of connection points: 2
#     Edge 39, Type (0, 0), BuildingBlock: UVAHIK_clean_linker_0, # of connection points: 2
#     Edge 40, Type (0, 0), BuildingBlock: UVAHIK_clean_linker_0, # of connection points: 2
#     Edge 41, Type (0, 0), BuildingBlock: UVAHIK_clean_linker_0, # of connection points: 2
#     Edge 42, Type (0, 0), BuildingBlock: UVAHIK_clean_linker_0, # of connection points: 2
#     Edge 43, Type (0, 0), BuildingBlock: UVAHIK_clean_linker_0, # of connection points: 2
#     Edge 44, Type (0, 0), BuildingBlock: UVAHIK_clean_linker_0, # of connection points: 2
#     Edge 45, Type (0, 0), BuildingBlock: UVAHIK_clean_linker_0, # of connection points: 2
#     Edge 46, Type (0, 0), BuildingBlock: UVAHIK_clean_linker_0, # of connection points: 2
#     Edge 47, Type (0, 0), BuildingBlock: UVAHIK_clean_linker_0, # of connection points: 2
#     Edge 48, Type (0, 0), BuildingBlock: UVAHIK_clean_linker_0, # of connection points: 2
#     Edge 49, Type (0, 0), BuildingBlock: UVAHIK_clean_linker_0, # of connection points: 2
#     Edge 50, Type (0, 0), BuildingBlock: UVAHIK_clean_linker_0, # of connection points: 2
#     Edge 51, Type (0, 0), BuildingBlock: UVAHIK_clean_linker_0, # of connection points: 2
#     Edge 52, Type (0, 0), BuildingBlock: UVAHIK_clean_linker_0, # of connection points: 2
#     Edge 53, Type (0, 0), BuildingBlock: UVAHIK_clean_linker_0, # of connection points: 2
#     Edge 54, Type (0, 0), BuildingBlock: UVAHIK_clean_linker_0, # of connection points: 2
#     Edge 55, Type (0, 0), BuildingBlock: UVAHIK_clean_linker_0, # of connection points: 2
#     Edge 56, Type (0, 0), BuildingBlock: UVAHIK_clean_linker_0, # of connection points: 2
#     Edge 57, Type (0, 0), BuildingBlock: UVAHIK_clean_linker_0, # of connection points: 2
#     Edge 58, Type (0, 0), BuildingBlock: UVAHIK_clean_linker_0, # of connection points: 2
#     Edge 59, Type (0, 0), BuildingBlock: UVAHIK_clean_linker_0, # of connection points: 2
#     Edge 60, Type (0, 0), BuildingBlock: UVAHIK_clean_linker_0, # of connection points: 2
#     Edge 61, Type (0, 0), BuildingBlock: UVAHIK_clean_linker_0, # of connection points: 2
#     Edge 62, Type (0, 0), BuildingBlock: UVAHIK_clean_linker_0, # of connection points: 2
#     Edge 63, Type (0, 0), BuildingBlock: UVAHIK_clean_linker_0, # of connection points: 2
#     Edge 64, Type (0, 0), BuildingBlock: UVAHIK_clean_linker_0, # of connection points: 2
#     Edge 65, Type (0, 0), BuildingBlock: UVAHIK_clean_linker_0, # of connection points: 2
#     Edge 66, Type (0, 0), BuildingBlock: UVAHIK_clean_linker_0, # of connection points: 2
#     Edge 67, Type (0, 0), BuildingBlock: UVAHIK_clean_linker_0, # of connection points: 2
#     Edge 68, Type (0, 0), BuildingBlock: UVAHIK_clean_linker_0, # of connection points: 2
#     Edge 69, Type (0, 0), BuildingBlock: UVAHIK_clean_linker_0, # of connection points: 2
#     Edge 70, Type (0, 0), BuildingBlock: UVAHIK_clean_linker_0, # of connection points: 2
#     Edge 71, Type (0, 0), BuildingBlock: UVAHIK_clean_linker_0, # of connection points: 2
#     Edge 72, Type (0, 0), BuildingBlock: UVAHIK_clean_linker_0, # of connection points: 2
#     Edge 73, Type (0, 0), BuildingBlock: UVAHIK_clean_linker_0, # of connection points: 2
#     Edge 74, Type (0, 0), BuildingBlock: UVAHIK_clean_linker_0, # of connection points: 2
#     Edge 75, Type (0, 0), BuildingBlock: UVAHIK_clean_linker_0, # of connection points: 2
#     Edge 76, Type (0, 0), BuildingBlock: UVAHIK_clean_linker_0, # of connection points: 2
#     Edge 77, Type (0, 0), BuildingBlock: UVAHIK_clean_linker_0, # of connection points: 2
#     Edge 78, Type (0, 0), BuildingBlock: UVAHIK_clean_linker_0, # of connection points: 2
#     Edge 79, Type (0, 0), BuildingBlock: UVAHIK_clean_linker_0, # of connection points: 2
#     Edge 80, Type (0, 0), BuildingBlock: UVAHIK_clean_linker_0, # of connection points: 2
#     Edge 81, Type (0, 0), BuildingBlock: UVAHIK_clean_linker_0, # of connection points: 2
#     Edge 82, Type (0, 0), BuildingBlock: UVAHIK_clean_linker_0, # of connection points: 2
#     Edge 83, Type (0, 0), BuildingBlock: UVAHIK_clean_linker_0, # of connection points: 2
#     Edge 84, Type (0, 0), BuildingBlock: UVAHIK_clean_linker_0, # of connection points: 2
#     Edge 85, Type (0, 0), BuildingBlock: UVAHIK_clean_linker_0, # of connection points: 2
#     Edge 86, Type (0, 0), BuildingBlock: UVAHIK_clean_linker_0, # of connection points: 2
#     Edge 87, Type (0, 0), BuildingBlock: UVAHIK_clean_linker_0, # of connection points: 2
#     Edge 88, Type (0, 0), BuildingBlock: UVAHIK_clean_linker_0, # of connection points: 2
#     Edge 89, Type (0, 0), BuildingBlock: UVAHIK_clean_linker_0, # of connection points: 2
#     Edge 90, Type (0, 0), BuildingBlock: UVAHIK_clean_linker_0, # of connection points: 2
#     Edge 91, Type (0, 0), BuildingBlock: UVAHIK_clean_linker_0, # of connection points: 2
#     Edge 92, Type (0, 0), BuildingBlock: UVAHIK_clean_linker_0, # of connection points: 2
#     Edge 93, Type (0, 0), BuildingBlock: UVAHIK_clean_linker_0, # of connection points: 2
#     Edge 94, Type (0, 0), BuildingBlock: UVAHIK_clean_linker_0, # of connection points: 2
#     Edge 95, Type (0, 0), BuildingBlock: UVAHIK_clean_linker_0, # of connection points: 2
#     Edge 96, Type (0, 0), BuildingBlock: UVAHIK_clean_linker_0, # of connection points: 2
#     Edge 97, Type (0, 0), BuildingBlock: UVAHIK_clean_linker_0, # of connection points: 2
#     Edge 98, Type (0, 0), BuildingBlock: UVAHIK_clean_linker_0, # of connection points: 2
#     Edge 99, Type (0, 0), BuildingBlock: UVAHIK_clean_linker_0, # of connection points: 2
#     Edge 100, Type (0, 0), BuildingBlock: UVAHIK_clean_linker_0, # of connection points: 2
#     Edge 101, Type (0, 0), BuildingBlock: UVAHIK_clean_linker_0, # of connection points: 2
#     Edge 102, Type (0, 0), BuildingBlock: UVAHIK_clean_linker_0, # of connection points: 2
#     Edge 103, Type (0, 0), BuildingBlock: UVAHIK_clean_linker_0, # of connection points: 2
#     Edge 104, Type (0, 0), BuildingBlock: UVAHIK_clean_linker_0, # of connection points: 2
#     Edge 105, Type (0, 0), BuildingBlock: UVAHIK_clean_linker_0, # of connection points: 2
#     Edge 106, Type (0, 0), BuildingBlock: UVAHIK_clean_linker_0, # of connection points: 2
#     Edge 107, Type (0, 0), BuildingBlock: UVAHIK_clean_linker_0, # of connection points: 2
#     Edge 108, Type (0, 0), BuildingBlock: UVAHIK_clean_linker_0, # of connection points: 2
#     Edge 109, Type (0, 0), BuildingBlock: UVAHIK_clean_linker_0, # of connection points: 2
#     Edge 110, Type (0, 0), BuildingBlock: UVAHIK_clean_linker_0, # of connection points: 2
#     Edge 111, Type (0, 0), BuildingBlock: UVAHIK_clean_linker_0, # of connection points: 2
#     Edge 112, Type (0, 0), BuildingBlock: UVAHIK_clean_linker_0, # of connection points: 2
#     Edge 113, Type (0, 0), BuildingBlock: UVAHIK_clean_linker_0, # of connection points: 2
#     Edge 114, Type (0, 0), BuildingBlock: UVAHIK_clean_linker_0, # of connection points: 2
#     Edge 115, Type (0, 0), BuildingBlock: UVAHIK_clean_linker_0, # of connection points: 2
#     Edge 116, Type (0, 0), BuildingBlock: UVAHIK_clean_linker_0, # of connection points: 2
#     Edge 117, Type (0, 0), BuildingBlock: UVAHIK_clean_linker_0, # of connection points: 2
#     Edge 118, Type (0, 0), BuildingBlock: UVAHIK_clean_linker_0, # of connection points: 2
#     Edge 119, Type (0, 0), BuildingBlock: UVAHIK_clean_linker_0, # of connection points: 2
#     Edge 120, Type (0, 0), BuildingBlock: UVAHIK_clean_linker_0, # of connection points: 2
#     Edge 121, Type (0, 0), BuildingBlock: UVAHIK_clean_linker_0, # of connection points: 2
#     Edge 122, Type (0, 0), BuildingBlock: UVAHIK_clean_linker_0, # of connection points: 2
#     Edge 123, Type (0, 0), BuildingBlock: UVAHIK_clean_linker_0, # of connection points: 2
#     Edge 124, Type (0, 0), BuildingBlock: UVAHIK_clean_linker_0, # of connection points: 2
#     Edge 125, Type (0, 0), BuildingBlock: UVAHIK_clean_linker_0, # of connection points: 2
# Relax obj value: 0.084
# Max RMSD: 0.104
# Mean RMSD: 0.104
data_MOF--net-wlr--node1-BEQFEK_clean_sbu_0--edge1-UVAHIK_clean_linker_0
_symmetry_space_group_name_H-M    P1
_symmetry_Int_Tables_number       1
_symmetry_cell_setting            triclinic
loop_
_symmetry_equiv_pos_as_xyz
'x, y, z'
_cell_length_a     92.968991
_cell_length_b     92.986314
_cell_length_c     51.509947
_cell_angle_alpha  89.985115
_cell_angle_beta   90.001679
_cell_angle_gamma 120.0286
loop_
_atom_site_label
_atom_site_type_symbol
_atom_site_fract_x
_atom_site_fract_y
_atom_site_fract_z
_atom_type_partial_charge
Co0 Co 0.27634 0.20875 0.07185 0.0
Co1 Co 0.24419 0.20378 0.04444 0.0
C2 C 0.27851 0.22736 0.0233 0.0
O3 O 0.2852 0.22396 0.0421 0.0
O4 O 0.2627 0.22061 0.02148 0.0
C5 C 0.30386 0.20591 0.08494 0.0
O6 O 0.30218 0.20132 0.06049 0.0
C7 C 0.21789 0.21105 0.02753 0.0
C8 C 0.19627 0.1856 0.02626 0.0
C9 C 0.20079 0.20213 0.02314 0.0
N10 N 0.22302 0.2002 0.03323 0.0
N11 N 0.21006 0.18503 0.0321 0.0
C12 C 0.22901 0.22949 0.02854 0.0
H13 H 0.24054 0.23273 0.03948 0.0
H14 H 0.2225 0.23545 0.0377 0.0
H15 H 0.23253 0.23433 0.00847 0.0
C16 C 0.26156 0.2161 0.11666 0.0
N17 N 0.26138 0.21239 0.09138 0.0
N18 N 0.24754 0.21003 0.08058 0.0
C19 C 0.23829 0.21198 0.09906 0.0
C20 C 0.24697 0.21604 0.12247 0.0
C21 C 0.27487 0.21818 0.13521 0.0
H22 H 0.28695 0.22877 0.12885 0.0
H23 H 0.27224 0.2203 0.1554 0.0
H24 H 0.27596 0.20683 0.13482 0.0
O25 O 0.26555 0.18556 0.05979 0.0
O26 O 0.24285 0.18179 0.03983 0.0
H27 H 0.21346 0.19802 0.08438 0.0
H28 H 0.21546 0.21033 0.11282 0.0
C29 C 0.22149 0.20995 0.09446 0.0
H30 H 0.22277 0.22017 0.08183 0.0
H31 H 0.21052 0.17427 0.0361 0.0
O32 O 0.2946 0.21114 0.09397 0.0
C33 C 0.25233 0.17635 0.04718 0.0
Co34 Co 0.79957 0.07021 0.07136 0.0
Co35 Co 0.80237 0.0414 0.04535 0.0
C36 C 0.7796 0.05265 0.02378 0.0
O37 O 0.78387 0.06327 0.04202 0.0
O38 O 0.78567 0.043 0.02211 0.0
C39 C 0.80281 0.10106 0.08258 0.0
O40 O 0.80747 0.1036 0.05813 0.0
C41 C 0.79515 0.00778 0.0276 0.0
C42 C 0.81987 0.01039 0.0338 0.0
C43 C 0.8038 0.99911 0.02615 0.0
N44 N 0.80569 0.02332 0.03599 0.0
N45 N 0.82045 0.02478 0.03933 0.0
C46 C 0.77699 1.00121 0.0234 0.0
H47 H 0.77301 0.00934 0.03297 0.0
H48 H 0.76964 0.98837 0.03107 0.0
H49 H 0.77455 1.00097 1.00228 0.0
C50 C 0.79322 0.04956 0.11784 0.0
N51 N 0.796 0.05214 0.09219 0.0
N52 N 0.79619 0.0394 0.08153 0.0
C53 C 0.7929 0.02791 0.1002 0.0
C54 C 0.79089 0.03397 0.12396 0.0
C55 C 0.79452 0.06262 0.1363 0.0
H56 H 0.80508 0.07488 0.13061 0.0
H57 H 0.78296 0.06331 0.13529 0.0
H58 H 0.79655 0.06001 0.15655 0.0
O59 O 0.82242 0.08182 0.05856 0.0
O60 O 0.82483 0.06176 0.03968 0.0
H61 H 0.80338 0.01264 0.09116 0.0
H62 H 0.7851 0.00259 0.11162 0.0
C63 C 0.79099 0.01121 0.09508 0.0
H64 H 0.78313 0.00569 0.07771 0.0
H65 H 0.83086 0.03552 0.04612 0.0
O66 O 0.79751 0.08672 0.09224 0.0
C67 C 0.83099 0.07696 0.04612 0.0
Co68 Co 0.93445 0.73058 0.07009 0.0
Co69 Co 0.96338 0.76256 0.04522 0.0
C70 C 0.95276 0.72813 0.02437 0.0
O71 O 0.94209 0.72153 0.04247 0.0
O72 O 0.96188 0.74393 0.0224 0.0
C73 C 0.91283 0.69927 0.10059 0.0
O74 O 0.92431 0.69506 0.10295 0.0
C75 C 0.99774 0.78867 0.03009 0.0
C76 C 0.99463 0.81072 0.03117 0.0
C77 C 0.00635 0.80591 0.02719 0.0
N78 N 0.98178 0.78374 0.03579 0.0
N79 N 0.98004 0.79699 0.03608 0.0
C80 C 0.00463 0.77719 0.02968 0.0
H81 H 0.99608 0.76538 0.03975 0.0
H82 H 0.01706 0.78313 0.03899 0.0
H83 H 0.00596 0.77429 0.00923 0.0
C84 C 0.95473 0.74478 0.11773 0.0
N85 N 0.95211 0.74509 0.09205 0.0
N86 N 0.96454 0.75857 0.08181 0.0
C87 C 0.97548 0.76729 0.10091 0.0
C88 C 0.96966 0.75874 0.12425 0.0
C89 C 0.9426 0.73194 0.13605 0.0
H90 H 0.9298 0.72896 0.13108 0.0
H91 H 0.94341 0.72049 0.13423 0.0
H92 H 0.94522 0.73626 0.15648 0.0
O93 O 0.92341 0.74186 0.05485 0.0
O94 O 0.94362 0.76518 0.03837 0.0
H95 H 0.98853 0.79251 0.08789 0.0
H96 H 0.99814 0.78842 0.11528 0.0
C97 C 0.9913 0.78333 0.09685 0.0
H98 H 0.99937 0.78126 0.08338 0.0
H99 H 0.96894 0.79672 0.0404 0.0
O100 O 0.91594 0.71253 0.08896 0.0
C101 C 0.92829 0.75554 0.04318 0.0
Co102 Co 0.20832 0.2751 0.43645 0.0
Co103 Co 0.20434 0.24314 0.46334 0.0
C104 C 0.22732 0.27751 0.48467 0.0
O105 O 0.22375 0.28409 0.46589 0.0
O106 O 0.22071 0.26174 0.48666 0.0
C107 C 0.20497 0.30245 0.42439 0.0
O108 O 0.20057 0.30057 0.44896 0.0
C109 C 0.21161 0.21708 0.48296 0.0
C110 C 0.18708 0.19477 0.47647 0.0
C111 C 0.20303 0.19977 0.48501 0.0
N112 N 0.20117 0.22185 0.4733 0.0
N113 N 0.18653 0.20843 0.46968 0.0
C114 C 0.22919 0.22897 0.49053 0.0
H115 H 0.23084 0.24139 0.49472 0.0
H116 H 0.23755 0.23028 0.47421 0.0
H117 H 0.23276 0.22438 0.50787 0.0
C118 C 0.21597 0.26093 0.39119 0.0
N119 N 0.21232 0.26058 0.41652 0.0
N120 N 0.21084 0.24709 0.42733 0.0
C121 C 0.2136 0.23837 0.4089 0.0
C122 C 0.217 0.24691 0.3854 0.0
C123 C 0.21693 0.27378 0.37261 0.0
H124 H 0.20557 0.27478 0.37454 0.0
H125 H 0.22776 0.28603 0.37768 0.0
H126 H 0.21801 0.27074 0.35216 0.0
O127 O 0.18523 0.26378 0.44883 0.0
O128 O 0.18196 0.24106 0.46802 0.0
H129 H 0.20033 0.21262 0.41892 0.0
H130 H 0.21733 0.21819 0.39654 0.0
C131 C 0.21317 0.2223 0.41376 0.0
H132 H 0.22137 0.2238 0.43038 0.0
H133 H 0.17619 0.20858 0.46213 0.0
O134 O 0.21023 0.29335 0.41484 0.0
C135 C 0.17622 0.25036 0.4611 0.0
Co136 Co 0.73414 0.93297 0.44203 0.0
Co137 Co 0.76511 0.9635 0.46605 0.0
C138 C 0.73081 0.95169 0.48699 0.0
O139 O 0.72474 0.94052 0.4695 0.0
O140 O 0.74648 0.96165 0.48879 0.0
C141 C 0.70297 0.91036 0.41247 0.0
O142 O 0.69854 0.92165 0.40988 0.0
C143 C 0.79047 0.99801 0.48243 0.0
C144 C 0.81325 0.99683 0.47474 0.0
C145 C 0.8078 0.00746 0.48303 0.0
N146 N 0.78611 0.98264 0.47395 0.0
N147 N 0.79981 0.98205 0.46965 0.0
C148 C 0.77826 0.00368 0.48756 0.0
H149 H 0.7662 0.99524 0.47808 0.0
H150 H 0.78314 0.01656 0.48041 0.0
H151 H 0.77616 0.00349 0.50879 0.0
C152 C 0.74745 0.95221 0.39363 0.0
N153 N 0.74788 0.95039 0.41947 0.0
N154 N 0.76035 0.96388 0.4295 0.0
C155 C 0.76786 0.9751 0.41023 0.0
C156 C 0.75993 0.96807 0.38672 0.0
C157 C 0.7363 0.93839 0.37573 0.0
H158 H 0.73423 0.92636 0.3834 0.0
H159 H 0.72415 0.93787 0.37431 0.0
H160 H 0.74177 0.94024 0.35602 0.0
O161 O 0.7465 0.9233 0.45699 0.0
O162 O 0.76891 0.94438 0.47405 0.0
H163 H 0.79346 0.99245 0.4175 0.0
H164 H 0.78305 1.00073 0.39807 0.0
C165 C 0.78166 0.9925 0.41461 0.0
H166 H 0.7791 0.99757 0.43233 0.0
H167 H 0.79998 0.97161 0.46265 0.0
O168 O 0.71636 0.91381 0.42402 0.0
C169 C 0.76016 0.92894 0.46897 0.0
Co170 Co 0.07111 0.80039 0.43836 0.0
Co171 Co 0.04184 0.80243 0.46429 0.0
C172 C 0.05404 0.77991 0.48515 0.0
O173 O 0.06464 0.78423 0.46687 0.0
O174 O 0.04435 0.78595 0.48693 0.0
C175 C 0.09361 0.79176 0.40806 0.0
O176 O 0.0831 0.7757 0.40775 0.0
C177 C 0.00798 0.79395 0.48361 0.0
C178 C 0.00935 0.81802 0.47625 0.0
C179 C 0.99882 0.8021 0.48534 0.0
N180 N 0.02305 0.80461 0.47363 0.0
N181 N 0.02374 0.81896 0.46948 0.0
C182 C 0.00285 0.77661 0.49186 0.0
H183 H 0.01387 0.77545 0.49632 0.0
H184 H 0.99594 0.76794 0.47578 0.0
H185 H 0.99468 0.77305 0.5092 0.0
C186 C 0.04986 0.79279 0.39168 0.0
N187 N 0.05286 0.79615 0.41719 0.0
N188 N 0.04034 0.79682 0.42787 0.0
C189 C 0.02887 0.79375 0.40928 0.0
C190 C 0.03451 0.79106 0.38574 0.0
C191 C 0.06202 0.79242 0.37305 0.0
H192 H 0.07464 0.80295 0.37707 0.0
H193 H 0.06219 0.78067 0.37571 0.0
H194 H 0.05874 0.79324 0.3526 0.0
O195 O 0.08149 0.82292 0.45242 0.0
O196 O 0.0613 0.82517 0.47091 0.0
H197 H 0.01488 0.80551 0.41897 0.0
H198 H 0.00432 0.78817 0.39694 0.0
C199 C 0.01261 0.79293 0.41411 0.0
H200 H 0.00633 0.78465 0.43086 0.0
H201 H 0.03402 0.82939 0.46165 0.0
O202 O 0.0897 0.80161 0.41875 0.0
C203 C 0.07652 0.83141 0.46476 0.0
Co204 Co 0.72897 0.7975 0.94154 0.0
Co205 Co 0.76032 0.79954 0.96769 0.0
C206 C 0.72622 0.77801 0.98997 0.0
O207 O 0.72001 0.78227 0.97151 0.0
O208 O 0.74189 0.78367 0.99152 0.0
C209 C 0.70213 0.80195 0.9298 0.0
O210 O 0.70461 0.80709 0.95401 0.0
C211 C 0.78679 0.79274 0.98774 0.0
C212 C 0.80892 0.81606 0.97525 0.0
C213 C 0.80415 0.801 0.98724 0.0
N214 N 0.78175 0.8025 0.97621 0.0
N215 N 0.79509 0.81642 0.96902 0.0
C216 C 0.77518 0.77617 0.99942 0.0
H217 H 0.76338 0.7755 1.0052 0.0
H218 H 0.77229 0.76633 0.98478 0.0
H219 H 0.78091 0.77383 0.01661 0.0
C220 C 0.74254 0.78976 0.89552 0.0
N221 N 0.74292 0.79298 0.92103 0.0
N222 N 0.75552 0.79265 0.93195 0.0
C223 C 0.76321 0.78843 0.91368 0.0
C224 C 0.75526 0.78649 0.88984 0.0
C225 C 0.73124 0.79158 0.87674 0.0
H226 H 0.72988 0.80235 0.88231 0.0
H227 H 0.71878 0.78024 0.87742 0.0
H228 H 0.7361 0.79356 0.85661 0.0
O229 O 0.74101 0.82051 0.95342 0.0
O230 O 0.76325 0.82242 0.97235 0.0
H231 H 0.78905 0.7976 0.9203 0.0
H232 H 0.77849 0.77767 0.90418 0.0
C233 C 0.77732 0.78549 0.91933 0.0
H234 H 0.77531 0.77919 0.93833 0.0
H235 H 0.79473 0.82611 0.9594 0.0
O236 O 0.71059 0.79586 0.92056 0.0
C237 C 0.75459 0.82893 0.96555 0.0
Co238 Co 0.20673 0.93472 0.94032 0.0
Co239 Co 0.20466 0.96362 0.96751 0.0
C240 C 0.22754 0.95126 0.98674 0.0
O241 O 0.22324 0.94087 0.96816 0.0
O242 O 0.22138 0.96081 0.98911 0.0
C243 C 0.21421 0.91187 0.90811 0.0
O244 O 0.23035 0.92191 0.9071 0.0
C245 C 0.21457 0.99801 0.98536 0.0
C246 C 0.18971 0.9954 0.98949 0.0
C247 C 0.20649 0.00667 0.99212 0.0
N248 N 0.203 0.98238 0.97888 0.0
N249 N 0.1882 0.98097 0.98145 0.0
C250 C 0.23283 0.00417 0.98632 0.0
H251 H 0.2352 0.99362 0.98696 0.0
H252 H 0.23885 0.01161 0.96869 0.0
H253 H 0.23846 0.01231 1.00349 0.0
C254 C 0.21369 0.9563 0.89426 0.0
N255 N 0.21063 0.95316 0.9198 0.0
N256 N 0.2096 0.96539 0.93083 0.0
C257 C 0.21184 0.97668 0.91235 0.0
C258 C 0.21467 0.97135 0.88861 0.0
C259 C 0.21446 0.9445 0.87532 0.0
H260 H 0.20378 0.93184 0.87854 0.0
H261 H 0.22608 0.94417 0.87857 0.0
H262 H 0.21416 0.94818 0.85493 0.0
O263 O 0.18439 0.92419 0.95533 0.0
O264 O 0.18203 0.94417 0.97431 0.0
H265 H 0.19962 0.98925 0.92726 0.0
H266 H 0.21259 0.99921 0.8992 0.0
C267 C 0.21141 0.9923 0.91737 0.0
H268 H 0.2218 1.0004 0.93042 0.0
H269 H 0.17701 0.97013 0.97762 0.0
O270 O 0.20496 0.9162 0.91977 0.0
C271 C 0.1759 0.92898 0.96807 0.0
Co272 Co 0.07209 0.27484 0.93951 0.0
Co273 Co 0.04314 0.24275 0.96459 0.0
C274 C 0.05364 0.27672 0.98607 0.0
O275 O 0.06447 0.28335 0.96819 0.0
O276 O 0.04426 0.26095 0.98753 0.0
C277 C 0.08968 0.30583 0.90883 0.0
O278 O 0.0761 0.30685 0.90799 0.0
C279 C 0.00908 0.21656 0.98064 0.0
C280 C 0.01196 0.19441 0.97815 0.0
C281 C 1.00041 0.1993 0.98335 0.0
N282 N 0.02488 0.22143 0.97394 0.0
N283 N 0.02649 0.20811 0.97279 0.0
C284 C 1.00235 0.22816 0.98217 0.0
H285 H 0.01068 0.23994 0.97186 0.0
H286 H 0.98968 0.22231 0.97369 0.0
H287 H 1.00162 0.2311 1.00283 0.0
C288 C 0.05187 0.26022 0.89197 0.0
N289 N 0.05434 0.26021 0.91775 0.0
N290 N 0.04182 0.24688 0.92817 0.0
C291 C 0.03082 0.23811 0.90917 0.0
C292 C 0.0368 0.24637 0.88565 0.0
C293 C 0.06444 0.27225 0.87322 0.0
H294 H 0.07716 0.27592 0.87984 0.0
H295 H 0.06315 0.28345 0.87192 0.0
H296 H 0.06257 0.26675 0.85352 0.0
O297 O 0.08349 0.26358 0.95337 0.0
O298 O 0.06332 0.24072 0.97124 0.0
H299 H 0.01749 0.2127 0.92116 0.0
H300 H 0.00744 0.21766 0.89542 0.0
C301 C 0.01483 0.22227 0.9135 0.0
H302 H 0.00736 0.22439 0.92812 0.0
H303 H 0.03746 0.20834 0.96766 0.0
O304 O 0.08968 0.29378 0.92039 0.0
C305 C 0.0786 0.25004 0.96554 0.0
Co306 Co 0.79767 0.7272 0.57269 0.0
Co307 Co 0.80067 0.75964 0.5494 0.0
C308 C 0.77737 0.7262 0.52643 0.0
O309 O 0.78148 0.71931 0.54404 0.0
O310 O 0.78385 0.742 0.52532 0.0
C311 C 0.80094 0.69928 0.58203 0.0
O312 O 0.8057 0.70186 0.55763 0.0
C313 C 0.79459 0.7872 0.53366 0.0
C314 C 0.8193 0.80862 0.54278 0.0
C315 C 0.80364 0.80455 0.53399 0.0
N316 N 0.80453 0.78149 0.54212 0.0
N317 N 0.81929 0.7944 0.54725 0.0
C318 C 0.77655 0.77617 0.52771 0.0
H319 H 0.77192 0.76368 0.53636 0.0
H320 H 0.76921 0.78171 0.5352 0.0
H321 H 0.77487 0.77474 0.50636 0.0
C322 C 0.79198 0.7407 0.62078 0.0
N323 N 0.79463 0.74145 0.59503 0.0
N324 N 0.79457 0.7545 0.58534 0.0
C325 C 0.79121 0.76218 0.60473 0.0
C326 C 0.78945 0.7537 0.62798 0.0
C327 C 0.79346 0.72863 0.63828 0.0
H328 H 0.80383 0.72688 0.63167 0.0
H329 H 0.7818 0.71644 0.63733 0.0
H330 H 0.79587 0.73302 0.65868 0.0
O331 O 0.82027 0.73833 0.55871 0.0
O332 O 0.82296 0.76171 0.54306 0.0
H333 H 0.80116 0.78818 0.59845 0.0
H334 H 0.7821 0.77846 0.6171 0.0
C335 C 0.78885 0.77681 0.60069 0.0
H336 H 0.78164 0.77503 0.58272 0.0
H337 H 0.82929 0.79348 0.55448 0.0
O338 O 0.7956 0.70814 0.59226 0.0
C339 C 0.8289 0.75223 0.54751 0.0
Co340 Co 0.27537 0.07167 0.57378 0.0
Co341 Co 0.24347 0.04264 0.5483 0.0
C342 C 0.27792 0.05356 0.52762 0.0
O343 O 0.28443 0.06413 0.54586 0.0
O344 O 0.26214 0.04439 0.52559 0.0
C345 C 0.30624 0.09023 0.60473 0.0
O346 O 0.30797 0.07706 0.60584 0.0
C347 C 0.21746 0.00853 0.53119 0.0
C348 C 0.19558 0.01195 0.53063 0.0
C349 C 0.20044 1.00032 0.52628 0.0
N350 N 0.22231 0.02426 0.53834 0.0
N351 N 0.20913 0.02614 0.53787 0.0
C352 C 0.22901 0.00184 0.52797 0.0
H353 H 0.24202 0.0121 0.52593 0.0
H354 H 0.22826 0.99444 0.54533 0.0
H355 H 0.22539 0.99355 0.51078 0.0
C356 C 0.26049 0.05113 0.62117 0.0
N357 N 0.26059 0.05382 0.59542 0.0
N358 N 0.24733 0.04133 0.58479 0.0
C359 C 0.23844 0.03024 0.60359 0.0
C360 C 0.24658 0.03604 0.62723 0.0
C361 C 0.27269 0.06339 0.64007 0.0
H362 H 0.27629 0.0762 0.63409 0.0
H363 H 0.28392 0.06212 0.64056 0.0
H364 H 0.26739 0.06118 0.65995 0.0
O365 O 0.26422 0.08292 0.55863 0.0
O366 O 0.24106 0.06254 0.54181 0.0
H367 H 0.21316 0.01706 0.59095 0.0
H368 H 0.21777 0.00686 0.61691 0.0
C369 C 0.22261 0.01431 0.59892 0.0
H370 H 0.22484 0.00689 0.58437 0.0
H371 H 0.20935 0.03717 0.54266 0.0
O372 O 0.2939 0.08958 0.59312 0.0
C373 C 0.25055 0.07788 0.54677 0.0
Co374 Co 0.93734 0.20812 0.57466 0.0
Co375 Co 0.96479 0.2045 0.54525 0.0
C376 C 0.95277 0.22759 0.52642 0.0
O377 O 0.94293 0.22378 0.54569 0.0
O378 O 0.96201 0.22114 0.52349 0.0
C379 C 0.90684 0.20445 0.58858 0.0
O380 O 0.90425 0.20083 0.56374 0.0
C381 C 0.99851 0.21319 0.52603 0.0
C382 C 0.99502 0.18804 0.52101 0.0
C383 C 0.0067 0.20473 0.51872 0.0
N384 N 0.98277 0.20193 0.53258 0.0
N385 N 0.98082 0.18695 0.52942 0.0
C386 C 0.00516 0.23155 0.52547 0.0
H387 H 0.99486 0.2343 0.52505 0.0
H388 H 0.01268 0.2373 0.54313 0.0
H389 H 0.01334 0.23715 0.50832 0.0
C390 C 0.96027 0.21572 0.61841 0.0
N391 N 0.9564 0.21215 0.59319 0.0
N392 N 0.96795 0.21025 0.58157 0.0
C393 C 0.97947 0.21225 0.59946 0.0
C394 C 0.97504 0.21595 0.62333 0.0
C395 C 0.9492 0.21747 0.63771 0.0
H396 H 0.94708 0.2277 0.63158 0.0
H397 H 0.95447 0.21994 0.65759 0.0
H398 H 0.93697 0.20584 0.638 0.0
O399 O 0.92541 0.18509 0.56174 0.0
O400 O 0.94454 0.18222 0.5406 0.0
H401 H 1.00086 0.2106 0.61195 0.0
H402 H 0.00301 0.22083 0.58141 0.0
C403 C 0.99427 0.21043 0.59392 0.0
H404 H 0.99032 0.19866 0.5833 0.0
H405 H 0.96979 0.17593 0.53321 0.0
O406 O 0.92124 0.20942 0.5978 0.0
C407 C 0.92964 0.1763 0.54843 0.0
Co408 Co 0.94148 0.53776 0.40462 0.0
Co409 Co 0.90933 0.53486 0.38077 0.0
C410 C 0.94323 0.55817 0.35841 0.0
O411 O 0.94999 0.55395 0.37606 0.0
O412 O 0.92745 0.55186 0.35738 0.0
C413 C 0.97321 0.54841 0.43412 0.0
O414 O 0.97664 0.56385 0.43688 0.0
C415 C 0.88292 0.54267 0.36606 0.0
C416 C 0.8609 0.51754 0.36885 0.0
C417 C 0.86562 0.53396 0.3639 0.0
N418 N 0.88795 0.53181 0.37224 0.0
N419 N 0.87472 0.51682 0.37357 0.0
C420 C 0.89441 0.56103 0.3645 0.0
H421 H 0.90637 0.56453 0.37426 0.0
H422 H 0.88864 0.56776 0.37354 0.0
H423 H 0.89701 0.56477 0.34381 0.0
C424 C 0.92784 0.54389 0.45284 0.0
N425 N 0.92737 0.54116 0.42708 0.0
N426 N 0.91387 0.54027 0.41721 0.0
C427 C 0.90539 0.54257 0.4366 0.0
C428 C 0.91404 0.54505 0.4598 0.0
C429 C 0.94046 0.54388 0.47088 0.0
H430 H 0.9436 0.53437 0.46471 0.0
H431 H 0.95188 0.55626 0.47033 0.0
H432 H 0.93581 0.54124 0.49115 0.0
O433 O 0.92979 0.51517 0.39063 0.0
O434 O 0.90683 0.51256 0.37357 0.0
H435 H 0.87983 0.53045 0.42536 0.0
H436 H 0.88508 0.54545 0.4512 0.0
C437 C 0.8895 0.54269 0.4329 0.0
H438 H 0.89144 0.55228 0.4184 0.0
H439 H 0.87508 0.50611 0.37841 0.0
O440 O 0.96007 0.53787 0.42261 0.0
C441 C 0.91614 0.50655 0.37881 0.0
Co442 Co 0.46815 0.40285 0.40368 0.0
Co443 Co 0.47078 0.37404 0.37753 0.0
C444 C 0.44702 0.38506 0.35802 0.0
O445 O 0.45137 0.39574 0.37617 0.0
O446 O 0.4535 0.37579 0.35569 0.0
C447 C 0.45977 0.42561 0.434 0.0
O448 O 0.4436 0.41566 0.43338 0.0
C449 C 0.46177 0.3397 0.36158 0.0
C450 C 0.48672 0.34224 0.36163 0.0
C451 C 0.47005 0.33081 0.35794 0.0
N452 N 0.47312 0.35553 0.36738 0.0
N453 N 0.48798 0.35695 0.36706 0.0
C454 C 0.44345 0.33318 0.3618 0.0
H455 H 0.44055 0.34178 0.37253 0.0
H456 H 0.43682 0.32065 0.37078 0.0
H457 H 0.43901 0.33219 0.34153 0.0
C458 C 0.46165 0.38209 0.45037 0.0
N459 N 0.46476 0.38493 0.42481 0.0
N460 N 0.46585 0.37261 0.41426 0.0
C461 C 0.4635 0.36149 0.43312 0.0
C462 C 0.46063 0.3671 0.45658 0.0
C463 C 0.46078 0.3941 0.46874 0.0
H464 H 0.47145 0.40673 0.46527 0.0
H465 H 0.44917 0.39438 0.46508 0.0
H466 H 0.46102 0.3907 0.4893 0.0
O467 O 0.49044 0.41365 0.38867 0.0
O468 O 0.49316 0.39377 0.37012 0.0
H469 H 0.47544 0.34839 0.41929 0.0
H470 H 0.46202 0.33876 0.447 0.0
C471 C 0.4636 0.34564 0.42867 0.0
H472 H 0.45328 0.33763 0.41542 0.0
H473 H 0.49899 0.36789 0.37129 0.0
O474 O 0.4694 0.42129 0.42367 0.0
C475 C 0.49907 0.40897 0.37608 0.0
Co476 Co 0.60025 0.06362 0.40404 0.0
Co477 Co 0.62977 0.09432 0.37746 0.0
C478 C 0.61722 0.05954 0.35744 0.0
O479 O 0.6064 0.05385 0.37547 0.0
O480 O 0.62757 0.07512 0.35553 0.0
C481 C 0.57774 0.03262 0.43472 0.0
O482 O 0.58842 0.02732 0.43613 0.0
C483 C 0.66422 0.11939 0.36081 0.0
C484 C 0.66204 0.14199 0.36198 0.0
C485 C 0.67326 0.13659 0.35745 0.0
N486 N 0.64851 0.11505 0.36729 0.0
N487 N 0.64732 0.12862 0.36764 0.0
C488 C 0.67051 0.10742 0.36003 0.0
H489 H 0.66192 0.09584 0.3706 0.0
H490 H 0.68313 0.1131 0.36865 0.0
H491 H 0.67124 0.10418 0.33953 0.0
C492 C 0.62153 0.07737 0.45053 0.0
N493 N 0.61861 0.0776 0.42497 0.0
N494 N 0.6312 0.09069 0.41417 0.0
C495 C 0.64258 0.09925 0.43282 0.0
C496 C 0.63685 0.091 0.45643 0.0
C497 C 0.60931 0.06498 0.46928 0.0
H498 H 0.59668 0.06279 0.46498 0.0
H499 H 0.60922 0.05308 0.4671 0.0
H500 H 0.6125 0.06928 0.48965 0.0
O501 O 0.59005 0.07588 0.39017 0.0
O502 O 0.61029 0.09758 0.37025 0.0
H503 H 0.6564 0.12433 0.41931 0.0
H504 H 0.66604 0.11977 0.44617 0.0
C505 C 0.65876 0.1148 0.42805 0.0
H506 H 0.6662 0.11213 0.41415 0.0
H507 H 0.63653 0.12882 0.37247 0.0
O508 O 0.5816 0.04622 0.42349 0.0
C509 C 0.59513 0.08907 0.37706 0.0
Co510 Co 0.87529 0.60611 0.77205 0.0
Co511 Co 0.8711 0.5745 0.8003 0.0
C512 C 0.89412 0.60948 0.82058 0.0
O513 O 0.89069 0.61582 0.80133 0.0
O514 O 0.8875 0.59371 0.82295 0.0
C515 C 0.87158 0.63298 0.75804 0.0
O516 O 0.86731 0.63166 0.78262 0.0
C517 C 0.87959 0.54919 0.81896 0.0
C518 C 0.85437 0.52744 0.82295 0.0
C519 C 0.87103 0.53242 0.82564 0.0
N520 N 0.86841 0.55376 0.81239 0.0
N521 N 0.85339 0.54068 0.81494 0.0
C522 C 0.89794 0.56088 0.82011 0.0
H523 H 0.90069 0.57394 0.82096 0.0
H524 H 0.9039 0.5594 0.80248 0.0
H525 H 0.90333 0.55805 0.83726 0.0
C526 C 0.88316 0.59127 0.72777 0.0
N527 N 0.87938 0.59124 0.75299 0.0
N528 N 0.87733 0.57762 0.76418 0.0
C529 C 0.87945 0.56832 0.74602 0.0
C530 C 0.88339 0.57677 0.7224 0.0
C531 C 0.88508 0.60434 0.70885 0.0
H532 H 0.87348 0.60498 0.70858 0.0
H533 H 0.89531 0.61661 0.71534 0.0
H534 H 0.88766 0.60178 0.68889 0.0
O535 O 0.85217 0.59505 0.78486 0.0
O536 O 0.84864 0.57225 0.80419 0.0
H537 H 0.86557 0.54361 0.76116 0.0
H538 H 0.87802 0.54547 0.73293 0.0
C539 C 0.87752 0.55161 0.75109 0.0
H540 H 0.8877 0.55306 0.76397 0.0
H541 H 0.84241 0.54073 0.81098 0.0
O542 O 0.87691 0.62377 0.74923 0.0
C543 C 0.84305 0.58166 0.79715 0.0
Co544 Co 0.39867 0.26777 0.76986 0.0
Co545 Co 0.43024 0.29612 0.79733 0.0
C546 C 0.39538 0.28441 0.81725 0.0
O547 O 0.38911 0.27413 0.79858 0.0
O548 O 0.41112 0.29376 0.81961 0.0
C549 C 0.37273 0.2365 0.75998 0.0
O550 O 0.37487 0.23581 0.78508 0.0
C551 C 0.45582 0.33023 0.81498 0.0
C552 C 0.47767 0.32684 0.8176 0.0
C553 C 0.47273 0.33851 0.82083 0.0
N554 N 0.45113 0.31445 0.80838 0.0
N555 N 0.46429 0.31258 0.8101 0.0
C556 C 0.44415 0.33688 0.81686 0.0
H557 H 0.43113 0.32658 0.81846 0.0
H558 H 0.44523 0.34413 0.79915 0.0
H559 H 0.44738 0.34529 0.83384 0.0
C560 C 0.41309 0.28959 0.72459 0.0
N561 N 0.41326 0.28633 0.74999 0.0
N562 N 0.4268 0.29826 0.76086 0.0
C563 C 0.43587 0.30949 0.74232 0.0
C564 C 0.42739 0.30441 0.71876 0.0
C565 C 0.40003 0.27791 0.70609 0.0
H566 H 0.39927 0.26563 0.70707 0.0
H567 H 0.38779 0.27614 0.71208 0.0
H568 H 0.40269 0.28245 0.68578 0.0
O569 O 0.41031 0.2566 0.78329 0.0
O570 O 0.43262 0.27612 0.80316 0.0
H571 H 0.46088 0.32126 0.75633 0.0
H572 H 0.45791 0.33172 0.72891 0.0
C573 C 0.45229 0.32476 0.74708 0.0
H574 H 0.45053 0.333 0.76061 0.0
H575 H 0.46418 0.30155 0.80594 0.0
O576 O 0.38094 0.25039 0.74848 0.0
C577 C 0.42352 0.26108 0.79613 0.0
Co578 Co 0.73607 0.12888 0.77064 0.0
Co579 Co 0.70768 0.13257 0.79681 0.0
C580 C 0.71917 0.10962 0.81841 0.0
O581 O 0.72936 0.11321 0.79971 0.0
O582 O 0.71001 0.11625 0.82036 0.0
C583 C 0.76688 0.13214 0.75939 0.0
O584 O 0.76903 0.13599 0.78418 0.0
C585 C 0.67411 0.12518 0.81576 0.0
C586 C 0.67651 0.14979 0.8095 0.0
C587 C 0.66542 0.13381 0.81777 0.0
N588 N 0.68943 0.13563 0.80641 0.0
N589 N 0.69073 0.15031 0.80292 0.0
C590 C 0.6683 0.10754 0.82309 0.0
H591 H 0.67901 0.10576 0.82703 0.0
H592 H 0.66113 0.09929 0.80674 0.0
H593 H 0.66018 0.10396 0.84049 0.0
C594 C 0.71449 0.1212 0.72489 0.0
N595 N 0.71765 0.12488 0.75026 0.0
N596 N 0.70549 0.12622 0.76081 0.0
C597 C 0.69414 0.12349 0.74217 0.0
C598 C 0.69945 0.12015 0.7188 0.0
C599 C 0.72641 0.12008 0.7066 0.0
H600 H 0.73869 0.13158 0.70809 0.0
H601 H 0.72804 0.10948 0.71234 0.0
H602 H 0.72214 0.1185 0.68616 0.0
O603 O 0.74771 0.15183 0.7839 0.0
O604 O 0.72778 0.15504 0.80146 0.0
H605 H 0.68161 0.1367 0.75209 0.0
H606 H 0.67042 0.11998 0.72919 0.0
C607 C 0.67847 0.12391 0.74667 0.0
H608 H 0.67153 0.11554 0.763 0.0
H609 H 0.70131 0.16068 0.79561 0.0
O610 O 0.75273 0.12731 0.74931 0.0
C611 C 0.74298 0.16077 0.79556 0.0
Co612 Co 0.39534 0.12943 0.27203 0.0
Co613 Co 0.42728 0.13226 0.29709 0.0
C614 C 0.39354 0.10985 0.31989 0.0
O615 O 0.38697 0.11397 0.30179 0.0
O616 O 0.40928 0.11584 0.32102 0.0
C617 C 0.36808 0.13338 0.26123 0.0
O618 O 0.3706 0.13832 0.28555 0.0
C619 C 0.45427 0.12562 0.31406 0.0
C620 C 0.47605 0.15033 0.30625 0.0
C621 C 0.47163 0.13447 0.31454 0.0
N622 N 0.44891 0.13585 0.30559 0.0
N623 N 0.46202 0.15061 0.30129 0.0
C624 C 0.44296 0.10753 0.31926 0.0
H625 H 0.43058 0.10324 0.31039 0.0
H626 H 0.44839 0.10015 0.31149 0.0
H627 H 0.4413 0.10549 0.34053 0.0
C628 C 0.40914 0.12289 0.22511 0.0
N629 N 0.40958 0.12569 0.25078 0.0
N630 N 0.42255 0.1258 0.26111 0.0
C631 C 0.43051 0.12236 0.24222 0.0
C632 C 0.42227 0.1204 0.21864 0.0
C633 C 0.39737 0.1244 0.20695 0.0
H634 H 0.39578 0.13497 0.21295 0.0
H635 H 0.38508 0.11288 0.20791 0.0
H636 H 0.40195 0.12655 0.18665 0.0
O637 O 0.40684 0.15233 0.28444 0.0
O638 O 0.42948 0.15471 0.30264 0.0
H639 H 0.4564 0.13263 0.25 0.0
H640 H 0.44744 0.11387 0.23064 0.0
C641 C 0.44522 0.12026 0.24699 0.0
H642 H 0.44313 0.1128 0.26476 0.0
H643 H 0.46141 0.1608 0.29422 0.0
O644 O 0.37661 0.12748 0.2516 0.0
C645 C 0.42043 0.1609 0.29648 0.0
Co646 Co 0.87492 0.26775 0.27154 0.0
Co647 Co 0.86981 0.29503 0.29805 0.0
C648 C 0.89352 0.28472 0.31982 0.0
O649 O 0.89015 0.27446 0.30129 0.0
O650 O 0.88668 0.2937 0.32131 0.0
C651 C 0.87256 0.23749 0.25933 0.0
O652 O 0.86801 0.23472 0.28382 0.0
C653 C 0.87688 0.32855 0.31465 0.0
C654 C 0.85143 0.32473 0.31508 0.0
C655 C 0.86794 0.33673 0.31871 0.0
N656 N 0.86608 0.31259 0.3087 0.0
N657 N 0.8509 0.31039 0.3093 0.0
C658 C 0.89532 0.33584 0.31421 0.0
H659 H 0.89868 0.32764 0.30332 0.0
H660 H 0.90143 0.34839 0.30528 0.0
H661 H 0.89991 0.33699 0.33442 0.0
C662 C 0.88219 0.28949 0.22618 0.0
N663 N 0.87846 0.28613 0.25149 0.0
N664 N 0.87612 0.2977 0.26197 0.0
C665 C 0.87813 0.3088 0.24327 0.0
C666 C 0.88218 0.304 0.22002 0.0
C667 C 0.88427 0.27812 0.20793 0.0
H668 H 0.87299 0.26563 0.20869 0.0
H669 H 0.89497 0.27684 0.21429 0.0
H670 H 0.88622 0.28264 0.18761 0.0
O671 O 0.8517 0.25524 0.2836 0.0
O672 O 0.84788 0.27433 0.30283 0.0
H673 H 0.86412 0.3198 0.25708 0.0
H674 H 0.87699 0.33018 0.22913 0.0
C675 C 0.87622 0.32366 0.24755 0.0
H676 H 0.88624 0.33247 0.26059 0.0
H677 H 0.84018 0.29919 0.30503 0.0
O678 O 0.87754 0.25184 0.24996 0.0
C679 C 0.84247 0.25934 0.29591 0.0
Co680 Co 0.74108 0.60914 0.27453 0.0
Co681 Co 0.71042 0.57752 0.29696 0.0
C682 C 0.72146 0.61123 0.31949 0.0
O683 O 0.73293 0.61773 0.30249 0.0
O684 O 0.7115 0.59553 0.32028 0.0
C685 C 0.76308 0.64048 0.245 0.0
O686 O 0.75105 0.64371 0.24061 0.0
C687 C 0.67599 0.55109 0.31182 0.0
C688 C 0.67813 0.52895 0.30319 0.0
C689 C 0.66699 0.53374 0.31155 0.0
N690 N 0.69159 0.5561 0.30375 0.0
N691 N 0.69275 0.54278 0.2989 0.0
C692 C 0.6697 0.56276 0.31738 0.0
H693 H 0.67803 0.57512 0.30863 0.0
H694 H 0.6569 0.5577 0.30974 0.0
H695 H 0.66946 0.56435 0.33869 0.0
C696 C 0.72262 0.59603 0.2252 0.0
N697 N 0.72406 0.59549 0.25114 0.0
N698 N 0.71051 0.58281 0.26063 0.0
C699 C 0.69963 0.57531 0.24097 0.0
C700 C 0.70694 0.58343 0.21772 0.0
C701 C 0.73667 0.60724 0.20769 0.0
H702 H 0.74867 0.60978 0.21619 0.0
H703 H 0.73681 0.61916 0.20533 0.0
H704 H 0.73532 0.60155 0.18825 0.0
O705 O 0.75098 0.59691 0.28931 0.0
O706 O 0.72975 0.5742 0.30537 0.0
H707 H 0.68244 0.54955 0.24726 0.0
H708 H 0.67418 0.56004 0.22801 0.0
C709 C 0.68225 0.5613 0.24471 0.0
H710 H 0.67689 0.5635 0.26241 0.0
H711 H 0.70348 0.54313 0.29205 0.0
O712 O 0.76025 0.62756 0.25744 0.0
C713 C 0.74525 0.58312 0.30095 0.0
Co714 Co 0.46423 0.06135 0.90121 0.0
Co715 Co 0.46689 0.09338 0.87707 0.0
C716 C 0.44394 0.05958 0.8546 0.0
O717 O 0.44812 0.05291 0.87245 0.0
O718 O 0.45021 0.07535 0.85336 0.0
C719 C 0.46776 0.03369 0.91139 0.0
O720 O 0.47245 0.03603 0.88695 0.0
C721 C 0.4595 0.11982 0.86038 0.0
C722 C 0.48403 0.14198 0.86763 0.0
C723 C 0.46802 0.13715 0.85958 0.0
N724 N 0.47005 0.11484 0.86875 0.0
N725 N 0.48469 0.12817 0.87275 0.0
C726 C 0.44142 0.10816 0.85559 0.0
H727 H 0.43741 0.09596 0.86491 0.0
H728 H 0.43389 0.11347 0.86314 0.0
H729 H 0.43925 0.10616 0.83438 0.0
C730 C 0.45834 0.07511 0.94885 0.0
N731 N 0.46094 0.07565 0.9231 0.0
N732 N 0.46083 0.0886 0.9131 0.0
C733 C 0.45747 0.09642 0.93228 0.0
C734 C 0.45577 0.08813 0.95572 0.0
C735 C 0.45998 0.06327 0.96665 0.0
H736 H 0.47047 0.06165 0.96024 0.0
H737 H 0.44843 0.05099 0.96582 0.0
H738 H 0.46234 0.06779 0.98698 0.0
O739 O 0.48684 0.07261 0.88729 0.0
O740 O 0.48944 0.09584 0.87107 0.0
H741 H 0.46743 0.12232 0.92498 0.0
H742 H 0.44867 0.11301 0.94441 0.0
C743 C 0.45513 0.11103 0.9279 0.0
H744 H 0.44762 0.10898 0.91019 0.0
H745 H 0.49508 0.12785 0.87966 0.0
O746 O 0.46239 0.04259 0.92132 0.0
C747 C 0.49544 0.08645 0.8759 0.0
Co748 Co 0.94108 0.40065 0.90506 0.0
Co749 Co 0.909 0.37248 0.87853 0.0
C750 C 0.94334 0.38411 0.85669 0.0
O751 O 0.94998 0.39434 0.87533 0.0
O752 O 0.92756 0.37478 0.85507 0.0
C753 C 0.9685 0.43143 0.91665 0.0
O754 O 0.96659 0.43377 0.89202 0.0
C755 C 0.88295 0.33906 0.8589 0.0
C756 C 0.86059 0.34109 0.86585 0.0
C757 C 0.86562 0.33023 0.85699 0.0
N758 N 0.8877 0.35423 0.86876 0.0
N759 N 0.87423 0.35532 0.87266 0.0
C760 C 0.89489 0.3335 0.851 0.0
H761 H 0.90731 0.34432 0.84702 0.0
H762 H 0.89616 0.32627 0.86708 0.0
H763 H 0.89033 0.32552 0.83346 0.0
C764 C 0.92718 0.37884 0.95044 0.0
N765 N 0.92671 0.38209 0.9251 0.0
N766 N 0.91317 0.37003 0.91447 0.0
C767 C 0.90453 0.35859 0.93299 0.0
C768 C 0.91317 0.36378 0.95639 0.0
C769 C 0.94008 0.39081 0.96887 0.0
H770 H 0.94097 0.40312 0.96698 0.0
H771 H 0.95234 0.39233 0.96362 0.0
H772 H 0.93717 0.3867 0.98935 0.0
O773 O 0.92957 0.41227 0.89298 0.0
O774 O 0.90679 0.39275 0.87393 0.0
H775 H 0.87871 0.34607 0.92348 0.0
H776 H 0.88446 0.33465 0.94553 0.0
C777 C 0.88844 0.34293 0.92832 0.0
H778 H 0.88981 0.33624 0.91157 0.0
H779 H 0.87435 0.36574 0.88039 0.0
O780 O 0.95939 0.41714 0.92646 0.0
C781 C 0.91609 0.40781 0.88086 0.0
Co782 Co 0.60204 0.53932 0.90502 0.0
Co783 Co 0.63128 0.53746 0.87801 0.0
C784 C 0.61854 0.55913 0.85675 0.0
O785 O 0.60815 0.55478 0.87537 0.0
O786 O 0.62853 0.55347 0.85481 0.0
C787 C 0.57063 0.53444 0.91754 0.0
O788 O 0.56783 0.5293 0.89334 0.0
C789 C 0.66452 0.54464 0.85694 0.0
C790 C 0.66378 0.52152 0.86929 0.0
C791 C 0.67382 0.53658 0.85707 0.0
N792 N 0.64988 0.53478 0.86888 0.0
N793 N 0.64957 0.52099 0.87599 0.0
C794 C 0.66915 0.56111 0.84522 0.0
H795 H 0.65788 0.56167 0.84006 0.0
H796 H 0.67635 0.57105 0.8596 0.0
H797 H 0.67688 0.5634 0.82761 0.0
C798 C 0.62364 0.54695 0.95065 0.0
N799 N 0.62063 0.54374 0.92516 0.0
N800 N 0.63349 0.54407 0.91396 0.0
C801 C 0.6455 0.54824 0.93204 0.0
C802 C 0.63965 0.55018 0.95603 0.0
C803 C 0.61069 0.54526 0.96968 0.0
H804 H 0.59851 0.53441 0.96446 0.0
H805 H 0.60952 0.55656 0.96884 0.0
H806 H 0.61377 0.54348 0.98978 0.0
O807 O 0.59111 0.51646 0.89251 0.0
O808 O 0.6113 0.51458 0.87298 0.0
H809 H 0.66208 0.53905 0.92486 0.0
H810 H 0.67159 0.5589 0.94124 0.0
C811 C 0.66251 0.55117 0.92609 0.0
H812 H 0.66675 0.55756 0.90714 0.0
H813 H 0.63968 0.51125 0.88585 0.0
O814 O 0.58526 0.54064 0.92653 0.0
C815 C 0.59614 0.50809 0.87993 0.0
Co816 Co 0.60909 0.8751 0.73746 0.0
Co817 Co 0.57731 0.87098 0.70978 0.0
C818 C 0.61198 0.89428 0.68938 0.0
O819 O 0.61845 0.89063 0.7082 0.0
O820 O 0.59622 0.8877 0.68727 0.0
C821 C 0.63621 0.87161 0.75093 0.0
O822 O 0.63457 0.86698 0.7265 0.0
C823 C 0.5516 0.87909 0.69215 0.0
C824 C 0.52998 0.85377 0.6883 0.0
C825 C 0.53477 0.8704 0.6859 0.0
N826 N 0.5564 0.86802 0.69824 0.0
N827 N 0.5434 0.85294 0.69576 0.0
C828 C 0.56311 0.89747 0.69102 0.0
H829 H 0.57621 0.90039 0.68974 0.0
H830 H 0.56172 0.90334 0.70884 0.0
H831 H 0.56001 0.90283 0.67413 0.0
C832 C 0.59422 0.88232 0.78231 0.0
N833 N 0.59419 0.87888 0.75695 0.0
N834 N 0.58052 0.87686 0.74601 0.0
C835 C 0.57121 0.87872 0.76446 0.0
C836 C 0.57969 0.88241 0.78803 0.0
C837 C 0.60729 0.88395 0.80102 0.0
H838 H 0.6082 0.8725 0.8003 0.0
H839 H 0.6195 0.89452 0.79506 0.0
H840 H 0.60453 0.88585 0.82125 0.0
O841 O 0.59803 0.85202 0.72476 0.0
O842 O 0.5755 0.84881 0.70493 0.0
H843 H 0.54641 0.86489 0.74966 0.0
H844 H 0.54844 0.87733 0.77796 0.0
C845 C 0.55447 0.87683 0.75969 0.0
H846 H 0.55588 0.88701 0.74689 0.0
H847 H 0.54364 0.84203 0.69943 0.0
O848 O 0.62706 0.877 0.75979 0.0
C849 C 0.58477 0.84308 0.71207 0.0
Co850 Co 0.13159 0.73793 0.73649 0.0
Co851 Co 0.13405 0.70852 0.7119 0.0
C852 C 0.11092 0.71967 0.69039 0.0
O853 O 0.11516 0.73048 0.70833 0.0
O854 O 0.11725 0.71023 0.68877 0.0
C855 C 0.12261 0.76048 0.76614 0.0
O856 O 0.10667 0.74963 0.76774 0.0
C857 C 0.1268 0.67464 0.69454 0.0
C858 C 0.15148 0.67738 0.70189 0.0
C859 C 0.13563 0.66613 0.69336 0.0
N860 N 0.13704 0.69007 0.70365 0.0
N861 N 0.15175 0.69157 0.70782 0.0
C862 C 0.10922 0.66856 0.68654 0.0
H863 H 0.10744 0.67913 0.68143 0.0
H864 H 0.10084 0.66178 0.70298 0.0
H865 H 0.10582 0.66 0.66972 0.0
C866 C 0.12485 0.71765 0.7841 0.0
N867 N 0.12794 0.7202 0.75846 0.0
N868 N 0.1286 0.70756 0.74831 0.0
C869 C 0.12579 0.69644 0.76738 0.0
C870 C 0.12327 0.70246 0.79068 0.0
C871 C 0.12465 0.73012 0.80225 0.0
H872 H 0.13483 0.74274 0.79722 0.0
H873 H 0.11265 0.72985 0.80023 0.0
H874 H 0.12616 0.72745 0.82275 0.0
O875 O 0.15401 0.74851 0.72199 0.0
O876 O 0.15647 0.72814 0.70472 0.0
H877 H 0.13765 0.68244 0.7584 0.0
H878 H 0.12042 0.67214 0.7807 0.0
C879 C 0.12506 0.68016 0.76324 0.0
H880 H 0.11673 0.67361 0.74667 0.0
H881 H 0.16198 0.70227 0.71509 0.0
O882 O 0.13245 0.75667 0.75515 0.0
C883 C 0.16255 0.74345 0.71002 0.0
Co884 Co 0.26401 0.39413 0.73841 0.0
Co885 Co 0.29437 0.4261 0.71543 0.0
C886 C 0.28308 0.39231 0.69256 0.0
O887 O 0.27185 0.38565 0.70991 0.0
O888 O 0.29291 0.40805 0.69176 0.0
C889 C 0.23179 0.36828 0.74579 0.0
O890 O 0.23118 0.37136 0.72104 0.0
C891 C 0.32868 0.45261 0.69992 0.0
C892 C 0.32646 0.4747 0.70847 0.0
C893 C 0.33762 0.46996 0.70002 0.0
N894 N 0.3131 0.44755 0.70819 0.0
N895 N 0.3119 0.46086 0.71298 0.0
C896 C 0.33501 0.44097 0.69432 0.0
H897 H 0.32668 0.42859 0.703 0.0
H898 H 0.3478 0.44604 0.702 0.0
H899 H 0.3353 0.43944 0.673 0.0
C900 C 0.28315 0.40704 0.7868 0.0
N901 N 0.28142 0.40788 0.76101 0.0
N902 N 0.29476 0.42075 0.75146 0.0
C903 C 0.30579 0.42821 0.77095 0.0
C904 C 0.29878 0.4198 0.79415 0.0
C905 C 0.26936 0.39515 0.80414 0.0
H906 H 0.25738 0.39368 0.79735 0.0
H907 H 0.26851 0.38283 0.80323 0.0
H908 H 0.27132 0.39952 0.82454 0.0
O909 O 0.25377 0.40628 0.7241 0.0
O910 O 0.27486 0.4293 0.70837 0.0
H911 H 0.32253 0.45408 0.76461 0.0
H912 H 0.33125 0.4439 0.78359 0.0
C913 C 0.32302 0.44247 0.76704 0.0
H914 H 0.32839 0.44043 0.74922 0.0
H915 H 0.30118 0.46048 0.71997 0.0
O916 O 0.24571 0.37567 0.75739 0.0
C917 C 0.25938 0.42016 0.71279 0.0
Co918 Co 0.54199 0.94136 0.10163 0.0
Co919 Co 0.53838 0.90995 0.12968 0.0
C920 C 0.56133 0.94436 0.1501 0.0
O921 O 0.55702 0.95039 0.13145 0.0
O922 O 0.55551 0.92868 0.15213 0.0
C923 C 0.53899 0.96877 0.08856 0.0
O924 O 0.53448 0.96715 0.11305 0.0
C925 C 0.5451 0.88323 0.14705 0.0
C926 C 0.51949 0.86184 0.1467 0.0
C927 C 0.53586 0.86607 0.15079 0.0
N928 N 0.53457 0.88867 0.14075 0.0
N929 N 0.51929 0.87582 0.14093 0.0
C930 C 0.56358 0.89413 0.14722 0.0
H931 H 0.56729 0.90587 0.13663 0.0
H932 H 0.5696 0.88759 0.13833 0.0
H933 H 0.56792 0.89724 0.16759 0.0
C934 C 0.54931 0.9266 0.05691 0.0
N935 N 0.5459 0.92657 0.08227 0.0
N936 N 0.54426 0.91308 0.09336 0.0
C937 C 0.54648 0.90395 0.07499 0.0
C938 C 0.5499 0.91232 0.05134 0.0
C939 C 0.55044 0.93941 0.03808 0.0
H940 H 0.53906 0.94039 0.0396 0.0
H941 H 0.56121 0.95167 0.04324 0.0
H942 H 0.55172 0.93634 0.01773 0.0
O943 O 0.51891 0.9304 0.11369 0.0
O944 O 0.51633 0.90856 0.1349 0.0
H945 H 0.53331 0.879 0.08928 0.0
H946 H 0.54667 0.88189 0.06184 0.0
C947 C 0.54538 0.88758 0.07996 0.0
H948 H 0.55544 0.88942 0.09342 0.0
H949 H 0.50873 0.87651 0.13627 0.0
O950 O 0.54423 0.95953 0.07952 0.0
C951 C 0.51028 0.91744 0.12716 0.0
Co952 Co 0.06214 0.60077 0.10205 0.0
Co953 Co 0.0938 0.62854 0.12991 0.0
C954 C 0.05925 0.61666 0.15091 0.0
O955 O 0.05291 0.60668 0.13187 0.0
O956 O 0.07501 0.62602 0.15313 0.0
C957 C 0.03489 0.57023 0.08931 0.0
O958 O 0.03651 0.56768 0.11397 0.0
C959 C 0.12012 0.66175 0.14979 0.0
C960 C 0.14213 0.65891 0.14428 0.0
C961 C 0.13741 0.67018 0.15227 0.0
N962 N 0.11511 0.64642 0.1404 0.0
N963 N 0.12836 0.64484 0.13739 0.0
C964 C 0.10843 0.66781 0.15671 0.0
H965 H 0.09582 0.65721 0.16048 0.0
H966 H 0.1076 0.67504 0.14024 0.0
H967 H 0.11294 0.67593 0.17411 0.0
C968 C 0.07645 0.62341 0.05758 0.0
N969 N 0.07668 0.61967 0.08276 0.0
N970 N 0.09014 0.63151 0.09393 0.0
C971 C 0.09903 0.64321 0.07587 0.0
C972 C 0.09059 0.63849 0.05227 0.0
C973 C 0.06353 0.61198 0.03868 0.0
H974 H 0.05124 0.6101 0.04463 0.0
H975 H 0.06631 0.61684 0.01855 0.0
H976 H 0.06281 0.59971 0.03918 0.0
O977 O 0.07349 0.58887 0.11389 0.0
O978 O 0.09583 0.60823 0.13403 0.0
H979 H 0.12457 0.65523 0.08707 0.0
H980 H 0.11982 0.66685 0.06383 0.0
C981 C 0.11522 0.65865 0.08112 0.0
H982 H 0.11362 0.66556 0.09732 0.0
H983 H 0.12803 0.63421 0.13013 0.0
O984 O 0.0441 0.58461 0.07988 0.0
C985 C 0.08678 0.59327 0.12651 0.0
Co986 Co 0.40283 0.46231 0.10808 0.0
Co987 Co 0.37346 0.46443 0.13413 0.0
C988 C 0.38549 0.44204 0.15528 0.0
O989 O 0.39601 0.44628 0.13689 0.0
O990 O 0.37583 0.44809 0.15716 0.0
C991 C 0.43429 0.46701 0.09588 0.0
O992 O 0.43705 0.47195 0.12019 0.0
C993 C 0.33965 0.45666 0.15292 0.0
C994 C 0.34234 0.48154 0.14867 0.0
C995 C 0.33121 0.46541 0.15605 0.0
N996 N 0.35501 0.46721 0.14382 0.0
N997 N 0.35647 0.48203 0.14145 0.0
C998 C 0.33346 0.43882 0.15941 0.0
H999 H 0.34399 0.4366 0.1625 0.0
H1000 H 0.32583 0.43087 0.14312 0.0
H1001 H 0.3255 0.4352 0.177 0.0
C1002 C 0.38202 0.45581 0.06167 0.0
N1003 N 0.38463 0.45861 0.08731 0.0
N1004 N 0.37169 0.45838 0.09807 0.0
C1005 C 0.36008 0.4548 0.07951 0.0
C1006 C 0.36623 0.45302 0.0557 0.0
C1007 C 0.39516 0.45745 0.04309 0.0
H1008 H 0.40732 0.46819 0.0487 0.0
H1009 H 0.39619 0.44607 0.04404 0.0
H1010 H 0.39241 0.45938 0.02287 0.0
O1011 O 0.41398 0.48489 0.12204 0.0
O1012 O 0.39342 0.48711 0.13951 0.0
H1013 H 0.34418 0.46464 0.08789 0.0
H1014 H 0.33441 0.44576 0.06876 0.0
C1015 C 0.34319 0.45236 0.08485 0.0
H1016 H 0.33818 0.44498 0.10278 0.0
H1017 H 0.36713 0.49253 0.13469 0.0
O1018 O 0.41972 0.46104 0.08677 0.0
C1019 C 0.40876 0.49332 0.13397 0.0
Co1020 Co 0.06319 0.46726 0.60971 0.0
Co1021 Co 0.09456 0.46737 0.63136 0.0
C1022 C 0.06044 0.44423 0.65266 0.0
O1023 O 0.05408 0.44944 0.63582 0.0
O1024 O 0.07617 0.4502 0.65411 0.0
C1025 C 0.03237 0.45861 0.57998 0.0
O1026 O 0.02937 0.44345 0.57541 0.0
C1027 C 0.12112 0.46026 0.64985 0.0
C1028 C 0.14289 0.48201 0.63249 0.0
C1029 C 0.13834 0.46789 0.64714 0.0
N1030 N 0.11589 0.46946 0.63707 0.0
N1031 N 0.12901 0.48243 0.62691 0.0
C1032 C 0.10993 0.44509 0.66531 0.0
H1033 H 0.09913 0.44583 0.67269 0.0
H1034 H 0.10524 0.434 0.6526 0.0
H1035 H 0.11669 0.44363 0.68193 0.0
C1036 C 0.07645 0.46282 0.55976 0.0
N1037 N 0.07697 0.46446 0.58577 0.0
N1038 N 0.0892 0.46277 0.59507 0.0
C1039 C 0.09632 0.45905 0.57526 0.0
C1040 C 0.08855 0.45904 0.55204 0.0
C1041 C 0.06572 0.46649 0.54251 0.0
H1042 H 0.0634 0.47594 0.55162 0.0
H1043 H 0.05365 0.45497 0.53945 0.0
H1044 H 0.07169 0.4712 0.52335 0.0
O1045 O 0.07523 0.48866 0.62699 0.0
O1046 O 0.09846 0.49011 0.64058 0.0
H1047 H 0.12184 0.46575 0.57835 0.0
H1048 H 0.10883 0.44588 0.56318 0.0
C1049 C 0.10943 0.45437 0.57882 0.0
H1050 H 0.10783 0.44813 0.59781 0.0
H1051 H 0.12845 0.49159 0.61598 0.0
O1052 O 0.04512 0.46869 0.59277 0.0
C1053 C 0.08923 0.49652 0.63807 0.0
Co1054 Co 0.53686 0.60058 0.60812 0.0
Co1055 Co 0.53434 0.6293 0.63477 0.0
C1056 C 0.55785 0.61782 0.6541 0.0
O1057 O 0.55354 0.60729 0.63572 0.0
O1058 O 0.55145 0.62716 0.65654 0.0
C1059 C 0.54505 0.5778 0.57749 0.0
O1060 O 0.56124 0.58753 0.57861 0.0
C1061 C 0.54376 0.66377 0.65066 0.0
C1062 C 0.51884 0.66125 0.65223 0.0
C1063 C 0.53559 0.6727 0.65494 0.0
N1064 N 0.53228 0.64789 0.64543 0.0
N1065 N 0.51744 0.64649 0.64672 0.0
C1066 C 0.56207 0.67029 0.64937 0.0
H1067 H 0.5647 0.66157 0.63846 0.0
H1068 H 0.56846 0.68272 0.64004 0.0
H1069 H 0.56698 0.67152 0.66937 0.0
C1070 C 0.54367 0.6217 0.56177 0.0
N1071 N 0.54049 0.61872 0.5873 0.0
N1072 N 0.53927 0.63093 0.59799 0.0
C1073 C 0.54148 0.64205 0.5792 0.0
C1074 C 0.5445 0.63662 0.5557 0.0
C1075 C 0.54481 0.60989 0.5433 0.0
H1076 H 0.53393 0.59728 0.54601 0.0
H1077 H 0.5562 0.60932 0.54761 0.0
H1078 H 0.54516 0.61367 0.52278 0.0
O1079 O 0.51451 0.58979 0.62307 0.0
O1080 O 0.51188 0.60965 0.64193 0.0
H1081 H 0.52933 0.65472 0.59406 0.0
H1082 H 0.54163 0.66412 0.56522 0.0
C1083 C 0.54094 0.65767 0.58368 0.0
H1084 H 0.5516 0.66616 0.59599 0.0
H1085 H 0.50632 0.63553 0.64307 0.0
O1086 O 0.53546 0.58222 0.58771 0.0
C1087 C 0.5059 0.59446 0.63577 0.0
Co1088 Co 0.40341 0.93979 0.60413 0.0
Co1089 Co 0.37492 0.90806 0.63011 0.0
C1090 C 0.38542 0.94258 0.65008 0.0
O1091 O 0.39605 0.94905 0.6319 0.0
O1092 O 0.37629 0.9268 0.6523 0.0
C1093 C 0.42532 0.9711 0.57347 0.0
O1094 O 0.41433 0.97599 0.57178 0.0
C1095 C 0.34077 0.88213 0.64583 0.0
C1096 C 0.34398 0.86013 0.64603 0.0
C1097 C 0.33222 0.86496 0.64949 0.0
N1098 N 0.35671 0.88701 0.64022 0.0
N1099 N 0.35853 0.8738 0.6407 0.0
C1100 C 0.33383 0.89358 0.64545 0.0
H1101 H 0.34232 0.9052 0.63489 0.0
H1102 H 0.32137 0.88743 0.63621 0.0
H1103 H 0.33255 0.89686 0.66569 0.0
C1104 C 0.38272 0.92523 0.55719 0.0
N1105 N 0.38559 0.9251 0.58279 0.0
N1106 N 0.37341 0.91158 0.59337 0.0
C1107 C 0.36238 0.90261 0.57452 0.0
C1108 C 0.36787 0.91106 0.55101 0.0
C1109 C 0.39458 0.93814 0.53869 0.0
H1110 H 0.40741 0.94094 0.54291 0.0
H1111 H 0.394 0.94968 0.54128 0.0
H1112 H 0.39157 0.93401 0.51821 0.0
O1113 O 0.4146 0.92856 0.61888 0.0
O1114 O 0.39486 0.90581 0.63736 0.0
H1115 H 0.34976 0.87759 0.58852 0.0
H1116 H 0.33997 0.88096 0.56063 0.0
C1117 C 0.34675 0.88645 0.57898 0.0
H1118 H 0.33851 0.88851 0.59206 0.0
H1119 H 0.36964 0.87405 0.63662 0.0
O1120 O 0.42176 0.95761 0.58479 0.0
C1121 C 0.41004 0.91524 0.63143 0.0
Co1122 Co 0.13042 0.39707 0.23918 0.0
Co1123 Co 0.13348 0.42841 0.21165 0.0
C1124 C 0.11079 0.39408 0.19099 0.0
O1125 O 0.11484 0.38792 0.20978 0.0
O1126 O 0.117 0.40979 0.18863 0.0
C1127 C 0.13367 0.36965 0.25122 0.0
O1128 O 0.13807 0.37151 0.22666 0.0
C1129 C 0.12593 0.45427 0.19242 0.0
C1130 C 0.15058 0.47663 0.19773 0.0
C1131 C 0.13443 0.47155 0.19013 0.0
N1132 N 0.13661 0.44958 0.20123 0.0
N1133 N 0.15133 0.46302 0.20404 0.0
C1134 C 0.10777 0.44247 0.18859 0.0
H1135 H 0.10395 0.43056 0.19876 0.0
H1136 H 0.10037 0.448 0.19585 0.0
H1137 H 0.10524 0.43986 0.16756 0.0
C1138 C 0.12347 0.4117 0.28456 0.0
N1139 N 0.12663 0.41174 0.25909 0.0
N1140 N 0.12704 0.42462 0.24783 0.0
C1141 C 0.12359 0.43301 0.26596 0.0
C1142 C 0.12117 0.42506 0.28994 0.0
C1143 C 0.1243 0.39994 0.30359 0.0
H1144 H 0.13501 0.39828 0.29888 0.0
H1145 H 0.11279 0.38766 0.30207 0.0
H1146 H 0.12577 0.40454 0.32382 0.0
O1147 O 0.15338 0.40833 0.22679 0.0
O1148 O 0.15602 0.43058 0.20676 0.0
H1149 H 0.13436 0.4586 0.25551 0.0
H1150 H 0.1164 0.45113 0.27653 0.0
C1151 C 0.12194 0.44788 0.26012 0.0
H1152 H 0.11388 0.44528 0.24293 0.0
H1153 H 0.16184 0.46294 0.21098 0.0
O1154 O 0.12846 0.37878 0.26077 0.0
C1155 C 0.16209 0.42161 0.21405 0.0
Co1156 Co 0.60409 0.73533 0.24063 0.0
Co1157 Co 0.57285 0.70623 0.21421 0.0
C1158 C 0.60772 0.7182 0.1942 0.0
O1159 O 0.6139 0.72864 0.2127 0.0
O1160 O 0.59199 0.70873 0.19181 0.0
C1161 C 0.63493 0.75748 0.27174 0.0
O1162 O 0.64021 0.74676 0.27258 0.0
C1163 C 0.5473 0.67245 0.19479 0.0
C1164 C 0.52472 0.6741 0.2018 0.0
C1165 C 0.52997 0.66343 0.19292 0.0
N1166 N 0.55183 0.68757 0.20463 0.0
N1167 N 0.53824 0.68842 0.20857 0.0
C1168 C 0.55941 0.66714 0.18681 0.0
H1169 H 0.57171 0.67809 0.18262 0.0
H1170 H 0.56093 0.6601 0.20294 0.0
H1171 H 0.55487 0.65905 0.16939 0.0
C1172 C 0.58987 0.71419 0.2872 0.0
N1173 N 0.58975 0.71717 0.26164 0.0
N1174 N 0.57667 0.70465 0.25075 0.0
C1175 C 0.56809 0.69317 0.26926 0.0
C1176 C 0.57622 0.69883 0.29297 0.0
C1177 C 0.60219 0.72637 0.30606 0.0
H1178 H 0.60448 0.73902 0.30166 0.0
H1179 H 0.61408 0.72639 0.30412 0.0
H1180 H 0.59776 0.72322 0.32638 0.0
O1181 O 0.59233 0.74589 0.22586 0.0
O1182 O 0.56979 0.72579 0.20743 0.0
H1183 H 0.5424 0.67914 0.25914 0.0
H1184 H 0.54907 0.6686 0.28139 0.0
C1185 C 0.55271 0.6769 0.26423 0.0
H1186 H 0.55484 0.67067 0.24756 0.0
H1187 H 0.53819 0.69877 0.21629 0.0
O1188 O 0.6214 0.75381 0.26048 0.0
C1189 C 0.57893 0.74102 0.21339 0.0
Co1190 Co 0.26827 0.87021 0.23522 0.0
Co1191 Co 0.29746 0.86778 0.21016 0.0
C1192 C 0.28634 0.89143 0.18997 0.0
O1193 O 0.27568 0.88727 0.20813 0.0
O1194 O 0.2955 0.88481 0.18783 0.0
C1195 C 0.24551 0.87853 0.26537 0.0
O1196 O 0.25599 0.8946 0.26589 0.0
C1197 C 0.33196 0.8773 0.1943 0.0
C1198 C 0.32999 0.85262 0.19523 0.0
C1199 C 0.34113 0.8693 0.19099 0.0
N1200 N 0.31624 0.8658 0.20043 0.0
N1201 N 0.31517 0.85109 0.20065 0.0
C1202 C 0.33813 0.89556 0.19391 0.0
H1203 H 0.32946 0.89836 0.20463 0.0
H1204 H 0.35073 0.90252 0.20259 0.0
H1205 H 0.33884 0.89968 0.1735 0.0
C1206 C 0.28862 0.87648 0.28271 0.0
N1207 N 0.28599 0.8735 0.25706 0.0
N1208 N 0.29853 0.87268 0.24677 0.0
C1209 C 0.30954 0.87508 0.26581 0.0
C1210 C 0.30366 0.87768 0.28919 0.0
C1211 C 0.27643 0.87719 0.30091 0.0
H1212 H 0.26378 0.86675 0.2968 0.0
H1213 H 0.27646 0.889 0.29781 0.0
H1214 H 0.27952 0.87646 0.32149 0.0
O1215 O 0.25767 0.84816 0.21909 0.0
O1216 O 0.27806 0.84523 0.20297 0.0
H1217 H 0.32304 0.86337 0.25284 0.0
H1218 H 0.33262 0.8774 0.27989 0.0
C1219 C 0.32558 0.87531 0.26158 0.0
H1220 H 0.33335 0.88541 0.24783 0.0
H1221 H 0.30438 0.84 0.2052 0.0
O1222 O 0.24951 0.86877 0.25461 0.0
C1223 C 0.26269 0.83949 0.20741 0.0
C1224 C 0.35786 0.135 0.21708 0.0
C1225 C 0.35844 0.13805 0.24389 0.0
C1226 C 0.35147 0.14208 0.20003 0.0
C1227 C 0.32645 0.16272 0.19589 0.0
H1228 H 0.35406 0.18429 0.13572 0.0
C1229 C 0.31369 0.20471 0.12963 0.0
C1230 C 0.31355 0.20166 0.10288 0.0
C1231 C 0.32027 0.19805 0.14714 0.0
C1232 C 0.34616 0.17823 0.15232 0.0
H1233 H 0.35176 0.14997 0.27401 0.0
H1234 H 0.34061 0.1623 0.24421 0.0
H1235 H 0.36165 0.16879 0.16548 0.0
H1236 H 0.32115 0.19015 0.07339 0.0
H1237 H 0.33252 0.17848 0.10392 0.0
H1238 H 0.31089 0.17208 0.18267 0.0
C1239 C 0.34511 0.15446 0.23638 0.0
C1240 C 0.35046 0.1693 0.1693 0.0
C1241 C 0.35152 0.14741 0.25345 0.0
C1242 C 0.32105 0.19271 0.09388 0.0
C1243 C 0.3276 0.18604 0.11139 0.0
C1244 C 0.32212 0.17163 0.17888 0.0
C1245 C 0.34549 0.15228 0.20945 0.0
C1246 C 0.34062 0.16141 0.19121 0.0
C1247 C 0.32684 0.18824 0.13825 0.0
C1248 C 0.33192 0.17946 0.15689 0.0
H1249 H 0.36298 0.12774 0.2091 0.0
H1250 H 0.3516 0.1399 0.17939 0.0
H1251 H 0.31856 0.15666 0.2125 0.0
H1252 H 0.30812 0.21166 0.13718 0.0
H1253 H 0.31983 0.20024 0.1677 0.0
C1254 C 0.81585 0.13159 0.09033 0.0
C1255 C 0.80702 0.11527 0.09992 0.0
C1256 C 0.82247 0.14506 0.10739 0.0
C1257 C 0.82113 0.15753 0.1751 0.0
H1258 H 0.86716 0.19066 0.16208 0.0
C1259 C 0.85972 0.20706 0.25101 0.0
C1260 C 0.86845 0.22345 0.24169 0.0
C1261 C 0.85308 0.19371 0.23374 0.0
C1262 C 0.85428 0.18157 0.16587 0.0
H1263 H 0.79725 0.10029 0.13474 0.0
H1264 H 0.80887 0.12377 0.16443 0.0
H1265 H 0.85235 0.16804 0.13124 0.0
H1266 H 0.87808 0.23867 0.20709 0.0
H1267 H 0.86647 0.21538 0.17698 0.0
H1268 H 0.82308 0.17104 0.20975 0.0
C1269 C 0.81066 0.12618 0.14377 0.0
C1270 C 0.84577 0.16867 0.14816 0.0
C1271 C 0.80404 0.11272 0.12674 0.0
C1272 C 0.87136 0.22619 0.21488 0.0
C1273 C 0.86474 0.21283 0.19762 0.0
C1274 C 0.82965 0.17042 0.19281 0.0
C1275 C 0.82036 0.14246 0.13432 0.0
C1276 C 0.8291 0.15652 0.1526 0.0
C1277 C 0.8551 0.1965 0.20683 0.0
C1278 C 0.84632 0.18255 0.1884 0.0
H1279 H 0.81827 0.13397 0.06976 0.0
H1280 H 0.82962 0.15749 0.09953 0.0
H1281 H 0.80825 0.14844 0.1789 0.0
H1282 H 0.85735 0.20452 0.27157 0.0
H1283 H 0.84599 0.18121 0.2414 0.0
C1284 C 0.78128 0.65781 0.20844 0.0
C1285 C 0.77946 0.65011 0.2326 0.0
C1286 C 0.79615 0.66382 0.19456 0.0
C1287 C 0.8309 0.65581 0.18859 0.0
H1288 H 0.85152 0.6963 0.14795 0.0
C1289 C 0.89496 0.68218 0.13762 0.0
C1290 C 0.89662 0.68994 0.11357 0.0
C1291 C 0.88028 0.6764 0.15197 0.0
C1292 C 0.84578 0.68484 0.15897 0.0
H1293 H 0.79203 0.64389 0.26225 0.0
H1294 H 0.81796 0.65466 0.23838 0.0
H1295 H 0.82711 0.68958 0.17416 0.0
H1296 H 0.88397 0.69651 0.08457 0.0
H1297 H 0.85836 0.68606 0.10915 0.0
H1298 H 0.84953 0.65103 0.17333 0.0
C1299 C 0.80785 0.65564 0.22975 0.0
C1300 C 0.83184 0.68104 0.174 0.0
C1301 C 0.79306 0.6496 0.24347 0.0
C1302 C 0.88306 0.69076 0.10327 0.0
C1303 C 0.86845 0.68491 0.11742 0.0
C1304 C 0.84484 0.6596 0.17353 0.0
C1305 C 0.80935 0.66225 0.20477 0.0
C1306 C 0.82426 0.6665 0.18898 0.0
C1307 C 0.86711 0.67823 0.1423 0.0
C1308 C 0.85238 0.67412 0.15848 0.0
H1309 H 0.77094 0.65825 0.19959 0.0
H1310 H 0.79698 0.66887 0.17531 0.0
H1311 H 0.82514 0.64435 0.1996 0.0
H1312 H 0.90529 0.68152 0.14601 0.0
H1313 H 0.87958 0.67129 0.17113 0.0
C1314 C 0.14669 0.35216 0.25896 0.0
C1315 C 0.13802 0.35979 0.26863 0.0
C1316 C 0.15341 0.34537 0.27595 0.0
C1317 C 0.16863 0.35043 0.34282 0.0
H1318 H 0.16988 0.31011 0.32885 0.0
C1319 C 0.19184 0.31984 0.41665 0.0
C1320 C 0.20055 0.31225 0.40698 0.0
C1321 C 0.18508 0.32659 0.39967 0.0
C1322 C 0.16984 0.32152 0.33281 0.0
H1323 H 0.12858 0.36526 0.30356 0.0
H1324 H 0.1401 0.35318 0.33315 0.0
H1325 H 0.15466 0.31838 0.29965 0.0
H1326 H 0.21002 0.30682 0.37204 0.0
H1327 H 0.19841 0.31883 0.34246 0.0
H1328 H 0.18381 0.35357 0.37598 0.0
C1329 C 0.14203 0.35279 0.31248 0.0
C1330 C 0.16106 0.32621 0.31616 0.0
C1331 C 0.13531 0.35958 0.2955 0.0
C1332 C 0.20325 0.31247 0.3801 0.0
C1333 C 0.19649 0.31921 0.36313 0.0
C1334 C 0.17741 0.34574 0.35947 0.0
C1335 C 0.15155 0.34606 0.30292 0.0
C1336 C 0.16035 0.3407 0.32101 0.0
C1337 C 0.18694 0.32591 0.3727 0.0
C1338 C 0.17812 0.33125 0.35462 0.0
H1339 H 0.14898 0.3521 0.23835 0.0
H1340 H 0.16073 0.34032 0.268 0.0
H1341 H 0.16859 0.36185 0.34678 0.0
H1342 H 0.18956 0.3199 0.43726 0.0
H1343 H 0.17773 0.33162 0.40763 0.0
C1344 C 0.65439 0.77636 0.30611 0.0
C1345 C 0.64382 0.77367 0.28497 0.0
C1346 C 0.66091 0.79117 0.3203 0.0
C1347 C 0.65192 0.82478 0.33452 0.0
H1348 H 0.69724 0.84843 0.35977 0.0
C1349 C 0.68296 0.89097 0.3791 0.0
C1350 C 0.69352 0.89384 0.40033 0.0
C1351 C 0.67604 0.87584 0.36575 0.0
C1352 C 0.68448 0.84185 0.35307 0.0
H1353 H 0.63265 0.78469 0.26099 0.0
H1354 H 0.64423 0.81043 0.28524 0.0
H1355 H 0.68772 0.82302 0.33467 0.0
H1356 H 0.70418 0.88282 0.42541 0.0
H1357 H 0.69198 0.85654 0.40246 0.0
H1358 H 0.64873 0.84368 0.35281 0.0
C1359 C 0.6471 0.80102 0.29146 0.0
C1360 C 0.67905 0.82731 0.33873 0.0
C1361 C 0.64056 0.7863 0.27748 0.0
C1362 C 0.6963 0.88107 0.40883 0.0
C1363 C 0.68939 0.86604 0.39562 0.0
C1364 C 0.65736 0.83934 0.34882 0.0
C1365 C 0.65699 0.80347 0.3134 0.0
C1366 C 0.66274 0.81867 0.32922 0.0
C1367 C 0.67957 0.86342 0.37354 0.0
C1368 C 0.67369 0.84801 0.35825 0.0
H1369 H 0.65705 0.7668 0.31232 0.0
H1370 H 0.66851 0.79273 0.33717 0.0
H1371 H 0.63917 0.81822 0.3278 0.0
H1372 H 0.68065 0.90063 0.37214 0.0
H1373 H 0.6685 0.87413 0.34873 0.0
C1374 C 0.11297 0.79099 0.37475 0.0
C1375 C 0.10992 0.79911 0.39516 0.0
C1376 C 0.12792 0.79923 0.36089 0.0
C1377 C 0.17067 0.83529 0.36379 0.0
H1378 H 0.16738 0.8342 0.28872 0.0
C1379 C 0.2261 0.87909 0.29877 0.0
C1380 C 0.22919 0.87108 0.27826 0.0
C1381 C 0.21116 0.87075 0.31266 0.0
C1382 C 0.1685 0.83456 0.30967 0.0
H1383 H 0.12039 0.82176 0.41802 0.0
H1384 H 0.14621 0.83596 0.39401 0.0
H1385 H 0.14259 0.81723 0.3147 0.0
H1386 H 0.21882 0.8485 0.25523 0.0
H1387 H 0.19303 0.83411 0.27929 0.0
H1388 H 0.19657 0.85263 0.35877 0.0
C1389 C 0.1372 0.82333 0.3886 0.0
C1390 C 0.15434 0.82475 0.32451 0.0
C1391 C 0.12232 0.81521 0.40224 0.0
C1392 C 0.21685 0.85497 0.2711 0.0
C1393 C 0.20198 0.84674 0.28476 0.0
C1394 C 0.18482 0.8451 0.34895 0.0
C1395 C 0.14005 0.81558 0.36749 0.0
C1396 C 0.15528 0.82504 0.35173 0.0
C1397 C 0.19909 0.85439 0.30598 0.0
C1398 C 0.18388 0.84483 0.32174 0.0
H1399 H 0.1036 0.7786 0.36891 0.0
H1400 H 0.1299 0.79291 0.34481 0.0
H1401 H 0.17178 0.83565 0.38475 0.0
H1402 H 0.23542 0.89149 0.30469 0.0
H1403 H 0.20915 0.87699 0.32881 0.0
C1404 C 0.68543 0.81576 0.92129 0.0
C1405 C 0.69246 0.8064 0.91215 0.0
C1406 C 0.67883 0.82246 0.90391 0.0
C1407 C 0.6836 0.83627 0.8363 0.0
H1408 H 0.6438 0.83866 0.84951 0.0
C1409 C 0.65335 0.85839 0.7602 0.0
C1410 C 0.64589 0.86742 0.76899 0.0
C1411 C 0.66003 0.85193 0.77787 0.0
C1412 C 0.65509 0.83831 0.84575 0.0
H1413 H 0.69704 0.79577 0.87778 0.0
H1414 H 0.68533 0.80732 0.84753 0.0
H1415 H 0.65192 0.82386 0.87987 0.0
H1416 H 0.64059 0.87772 0.80306 0.0
H1417 H 0.65249 0.86665 0.83383 0.0
H1418 H 0.68679 0.85073 0.80222 0.0
C1419 C 0.68526 0.80976 0.86808 0.0
C1420 C 0.65968 0.82976 0.86307 0.0
C1421 C 0.69184 0.80304 0.88544 0.0
C1422 C 0.64613 0.8707 0.79567 0.0
C1423 C 0.65282 0.86425 0.81333 0.0
C1424 C 0.67903 0.84483 0.819 0.0
C1425 C 0.67912 0.81992 0.87708 0.0
C1426 C 0.67395 0.82861 0.85847 0.0
C1427 C 0.65941 0.8544 0.80467 0.0
C1428 C 0.66471 0.84593 0.82352 0.0
H1429 H 0.6857 0.81856 0.94176 0.0
H1430 H 0.67422 0.83028 0.91141 0.0
H1431 H 0.69486 0.83587 0.83252 0.0
H1432 H 0.65337 0.85565 0.73977 0.0
H1433 H 0.66495 0.84433 0.77059 0.0
C1434 C 0.14564 0.78955 0.77014 0.0
C1435 C 0.12995 0.77695 0.77849 0.0
C1436 C 0.15403 0.80449 0.78355 0.0
C1437 C 0.1574 0.82132 0.84855 0.0
H1438 H 0.1846 0.86364 0.81414 0.0
C1439 C 0.18999 0.88356 0.90272 0.0
C1440 C 0.20605 0.89565 0.89485 0.0
C1441 C 0.1811 0.86883 0.88891 0.0
C1442 C 0.17725 0.85186 0.82397 0.0
H1443 H 0.11034 0.77038 0.80669 0.0
H1444 H 0.12509 0.79679 0.83034 0.0
H1445 H 0.16665 0.83904 0.78839 0.0
H1446 H 0.22564 0.9016 0.86689 0.0
H1447 H 0.20995 0.87558 0.84246 0.0
H1448 H 0.16799 0.83414 0.88413 0.0
C1449 C 0.13091 0.79492 0.81346 0.0
C1450 C 0.16689 0.83781 0.80927 0.0
C1451 C 0.12241 0.7799 0.79985 0.0
C1452 C 0.21331 0.89246 0.87338 0.0
C1453 C 0.20429 0.87767 0.85933 0.0
C1454 C 0.16773 0.83536 0.86324 0.0
C1455 C 0.14696 0.80721 0.8057 0.0
C1456 C 0.1569 0.82238 0.82141 0.0
C1457 C 0.188 0.86585 0.86681 0.0
C1458 C 0.17778 0.85077 0.8511 0.0
H1459 H 0.15173 0.78767 0.7536 0.0
H1460 H 0.16641 0.8136 0.7772 0.0
H1461 H 0.15011 0.80954 0.85841 0.0
H1462 H 0.18409 0.88562 0.91932 0.0
H1463 H 0.16855 0.86006 0.89502 0.0
C1464 C 0.10268 0.32222 0.86852 0.0
C1465 C 0.10436 0.3169 0.89325 0.0
C1466 C 0.11638 0.32974 0.8518 0.0
C1467 C 0.1621 0.34983 0.84905 0.0
H1468 H 0.1548 0.32764 0.78257 0.0
C1469 C 0.21689 0.35736 0.78793 0.0
C1470 C 0.2163 0.35983 0.76113 0.0
C1471 C 0.20275 0.35218 0.80326 0.0
C1472 C 0.15703 0.33413 0.80089 0.0
H1473 H 0.12165 0.31617 0.92069 0.0
H1474 H 0.14555 0.32959 0.89186 0.0
H1475 H 0.13118 0.32096 0.8108 0.0
H1476 H 0.20022 0.35794 0.72919 0.0
H1477 H 0.17566 0.34913 0.75596 0.0
H1478 H 0.1879 0.36296 0.83934 0.0
C1479 C 0.13376 0.32791 0.88522 0.0
C1480 C 0.14349 0.33035 0.81699 0.0
C1481 C 0.12008 0.3202 0.90168 0.0
C1482 C 0.20108 0.35612 0.74978 0.0
C1483 C 0.18697 0.35105 0.76514 0.0
C1484 C 0.17561 0.35369 0.83291 0.0
C1485 C 0.13194 0.33228 0.85985 0.0
C1486 C 0.14594 0.33797 0.8414 0.0
C1487 C 0.18777 0.34946 0.79216 0.0
C1488 C 0.17327 0.34567 0.80884 0.0
H1489 H 0.09063 0.31966 0.86154 0.0
H1490 H 0.11471 0.33309 0.83235 0.0
H1491 H 0.1643 0.35597 0.86769 0.0
H1492 H 0.22841 0.36001 0.79723 0.0
H1493 H 0.20367 0.35064 0.82392 0.0
C1494 C 0.86964 0.64203 0.71307 0.0
C1495 C 0.86693 0.64227 0.73988 0.0
C1496 C 0.86273 0.64831 0.6955 0.0
C1497 C 0.82739 0.65522 0.69017 0.0
H1498 H 0.8501 0.68058 0.62879 0.0
C1499 C 0.80197 0.68803 0.6256 0.0
C1500 C 0.80505 0.68895 0.59876 0.0
C1501 C 0.80849 0.68086 0.64217 0.0
C1502 C 0.8435 0.67326 0.64562 0.0
H1503 H 0.85577 0.65028 0.76937 0.0
H1504 H 0.84388 0.6614 0.73867 0.0
H1505 H 0.86491 0.67265 0.65944 0.0
H1506 H 0.81638 0.68201 0.56806 0.0
H1507 H 0.82755 0.66923 0.59702 0.0
H1508 H 0.80599 0.65583 0.67641 0.0
C1509 C 0.85107 0.65604 0.73126 0.0
C1510 C 0.85202 0.66881 0.66323 0.0
C1511 C 0.85801 0.6498 0.74884 0.0
C1512 C 0.81388 0.68159 0.58866 0.0
C1513 C 0.8204 0.67441 0.60526 0.0
C1514 C 0.81887 0.65964 0.67255 0.0
C1515 C 0.85298 0.65494 0.70441 0.0
C1516 C 0.84408 0.65985 0.68577 0.0
C1517 C 0.81819 0.67442 0.63225 0.0
C1518 C 0.82685 0.66878 0.65016 0.0
H1519 H 0.8765 0.63634 0.70555 0.0
H1520 H 0.86438 0.64726 0.67491 0.0
H1521 H 0.82085 0.648 0.70711 0.0
H1522 H 0.79517 0.69355 0.634 0.0
H1523 H 0.80663 0.68114 0.66288 0.0
C1524 C 0.32016 0.12078 0.60982 0.0
C1525 C 0.31724 0.1054 0.61936 0.0
C1526 C 0.3281 0.13497 0.62519 0.0
C1527 C 0.33174 0.147 0.69228 0.0
H1528 H 0.36516 0.19038 0.66728 0.0
C1529 C 0.35953 0.20569 0.75665 0.0
C1530 C 0.36409 0.22099 0.74476 0.0
C1531 C 0.35395 0.19134 0.74176 0.0
C1532 C 0.35564 0.1784 0.67443 0.0
H1533 H 0.32079 0.09279 0.65195 0.0
H1534 H 0.33453 0.11776 0.67928 0.0
H1535 H 0.35706 0.1659 0.64043 0.0
H1536 H 0.36541 0.23307 0.7081 0.0
H1537 H 0.35503 0.20787 0.68217 0.0
H1538 H 0.32978 0.15944 0.72581 0.0
C1539 C 0.33076 0.11876 0.65977 0.0
C1540 C 0.35116 0.16438 0.65916 0.0
C1541 C 0.32306 0.10456 0.64413 0.0
C1542 C 0.36208 0.22147 0.71781 0.0
C1543 C 0.35631 0.20706 0.70293 0.0
C1544 C 0.33607 0.16103 0.70745 0.0
C1545 C 0.33301 0.134 0.65057 0.0
C1546 C 0.33909 0.14858 0.66787 0.0
C1547 C 0.35261 0.19191 0.71465 0.0
C1548 C 0.34798 0.17693 0.69861 0.0
H1549 H 0.31576 0.12171 0.59076 0.0
H1550 H 0.32957 0.14652 0.6177 0.0
H1551 H 0.32218 0.13497 0.69923 0.0
H1552 H 0.36101 0.2049 0.77737 0.0
H1553 H 0.35135 0.17996 0.75145 0.0
C1554 C 0.79747 0.1444 0.75302 0.0
C1555 C 0.78136 0.13655 0.74253 0.0
C1556 C 0.81132 0.15111 0.73671 0.0
C1557 C 0.82495 0.15147 0.6691 0.0
H1558 H 0.85947 0.19626 0.68636 0.0
C1559 C 0.87636 0.19159 0.59649 0.0
C1560 C 0.89265 0.1996 0.60627 0.0
C1561 C 0.8628 0.18452 0.61337 0.0
C1562 C 0.85 0.18371 0.6814 0.0
H1563 H 0.76712 0.12864 0.70676 0.0
H1564 H 0.79127 0.14043 0.67837 0.0
H1565 H 0.83602 0.18123 0.71573 0.0
H1566 H 0.9075 0.20734 0.64145 0.0
H1567 H 0.88381 0.19497 0.67088 0.0
H1568 H 0.8389 0.15399 0.6347 0.0
C1569 C 0.79322 0.14137 0.69917 0.0
C1570 C 0.83661 0.17507 0.69827 0.0
C1571 C 0.77937 0.13466 0.71547 0.0
C1572 C 0.8951 0.20122 0.63329 0.0
C1573 C 0.88153 0.19417 0.65016 0.0
C1574 C 0.83833 0.16012 0.65223 0.0
C1575 C 0.80933 0.15007 0.70961 0.0
C1576 C 0.82392 0.15887 0.69226 0.0
C1577 C 0.86526 0.18535 0.64036 0.0
C1578 C 0.85096 0.17635 0.65816 0.0
H1579 H 0.79942 0.14596 0.7738 0.0
H1580 H 0.8236 0.15746 0.74532 0.0
H1581 H 0.81547 0.13894 0.6641 0.0
H1582 H 0.87404 0.19021 0.57578 0.0
H1583 H 0.85038 0.17809 0.60527 0.0
C1584 C 0.9831 0.52824 0.43635 0.0
C1585 C 0.98307 0.54212 0.44699 0.0
C1586 C 0.98916 0.51969 0.45056 0.0
C1587 C 0.01345 0.5212 0.50793 0.0
H1588 H 0.98409 0.47336 0.50698 0.0
C1589 C 0.02297 0.47923 0.57818 0.0
C1590 C 0.0228 0.46531 0.56728 0.0
C1591 C 0.017 0.48797 0.56422 0.0
C1592 C 0.99247 0.48667 0.50726 0.0
H1593 H 0.99027 0.55866 0.48007 0.0
H1594 H 1.0009 0.54357 0.50526 0.0
H1595 H 0.97757 0.49104 0.48039 0.0
H1596 H 0.01536 0.44894 0.53395 0.0
H1597 H 0.00491 0.46433 0.50926 0.0
H1598 H 0.02835 0.51681 0.53479 0.0
C1599 C 0.99629 0.53938 0.48581 0.0
C1600 C 0.98878 0.4968 0.49202 0.0
C1601 C 0.99029 0.54805 0.47142 0.0
C1602 C 0.01552 0.45958 0.54282 0.0
C1603 C 0.00961 0.46842 0.52871 0.0
C1604 C 0.01714 0.51106 0.52318 0.0
C1605 C 0.99521 0.52477 0.47582 0.0
C1606 C 0.99927 0.51416 0.49211 0.0
C1607 C 0.01083 0.48302 0.53899 0.0
C1608 C 0.00668 0.49369 0.52301 0.0
H1609 H 0.97776 0.52354 0.41739 0.0
H1610 H 0.98859 0.50876 0.44209 0.0
H1611 H 0.02182 0.5345 0.5082 0.0
H1612 H 0.02834 0.48379 0.59717 0.0
H1613 H 0.01769 0.4989 0.57291 0.0
C1614 C 0.45888 0.44551 0.46616 0.0
C1615 C 0.46745 0.44181 0.44732 0.0
C1616 C 0.46716 0.4604 0.48017 0.0
C1617 C 0.50952 0.49212 0.49966 0.0
H1618 H 0.48951 0.51902 0.51509 0.0
C1619 C 0.5459 0.55797 0.54515 0.0
C1620 C 0.5373 0.56169 0.56391 0.0
C1621 C 0.53761 0.54316 0.53097 0.0
C1622 C 0.49521 0.51154 0.51113 0.0
H1623 H 0.49105 0.45115 0.42727 0.0
H1624 H 0.50521 0.47696 0.45124 0.0
H1625 H 0.47387 0.49345 0.49023 0.0
H1626 H 0.5136 0.55245 0.58361 0.0
H1627 H 0.49942 0.52674 0.55939 0.0
H1628 H 0.53084 0.51019 0.5206 0.0
C1629 C 0.49233 0.46828 0.45581 0.0
C1630 C 0.48623 0.49691 0.49695 0.0
C1631 C 0.48415 0.4535 0.44199 0.0
C1632 C 0.52053 0.55009 0.56896 0.0
C1633 C 0.51234 0.53537 0.55498 0.0
C1634 C 0.51849 0.50675 0.51386 0.0
C1635 C 0.48406 0.47176 0.47541 0.0
C1636 C 0.49332 0.48707 0.49102 0.0
C1637 C 0.52065 0.53187 0.53549 0.0
C1638 C 0.51141 0.51658 0.5198 0.0
H1639 H 0.44603 0.43671 0.47066 0.0
H1640 H 0.46049 0.46278 0.49523 0.0
H1641 H 0.51521 0.48464 0.49569 0.0
H1642 H 0.55881 0.56671 0.54086 0.0
H1643 H 0.54431 0.54076 0.51599 0.0
C1644 C 0.44443 0.99007 0.53889 0.0
C1645 C 0.44178 0.98037 0.56116 0.0
C1646 C 0.45948 0.99654 0.52535 0.0
C1647 C 0.50281 0.005 0.53093 0.0
H1648 H 0.49914 0.99728 0.45664 0.0
C1649 C 0.55849 0.01385 0.46933 0.0
C1650 C 0.56129 0.02364 0.44713 0.0
C1651 C 0.54348 0.00759 0.4829 0.0
C1652 C 0.50035 0.99957 0.47736 0.0
H1653 H 0.45303 0.97072 0.58777 0.0
H1654 H 0.47903 0.98191 0.56435 0.0
H1655 H 0.47436 0.99071 0.48182 0.0
H1656 H 0.55035 0.0337 0.42069 0.0
H1657 H 0.52437 0.02282 0.44415 0.0
H1658 H 0.5288 0.01382 0.52647 0.0
C1659 C 0.46965 0.98458 0.55719 0.0
C1660 C 0.48621 0.99595 0.49172 0.0
C1661 C 0.45468 0.97807 0.57051 0.0
C1662 C 0.54857 0.02628 0.4379 0.0
C1663 C 0.53362 0.01995 0.45123 0.0
C1664 C 0.51695 0.0086 0.51658 0.0
C1665 C 0.47208 0.99353 0.53414 0.0
C1666 C 0.48729 0.99861 0.51865 0.0
C1667 C 0.53105 0.01088 0.47419 0.0
C1668 C 0.51586 0.00593 0.48965 0.0
H1669 H 0.43465 0.99199 0.53129 0.0
H1670 H 0.46113 0.00357 0.50775 0.0
H1671 H 0.50404 0.0073 0.55165 0.0
H1672 H 0.56813 0.01168 0.47684 0.0
H1673 H 0.54171 1.00047 0.50045 0.0
C1674 C 0.52562 0.9858 0.07962 0.0
C1675 C 0.53456 0.97831 0.07059 0.0
C1676 C 0.51873 0.99213 0.06211 0.0
C1677 C 0.51964 0.00492 0.99403 0.0
H1678 H 0.47347 0.99142 0.00702 0.0
C1679 C 0.48099 0.01633 0.9187 0.0
C1680 C 0.47202 0.02362 0.92847 0.0
C1681 C 0.48766 0.00945 0.9356 0.0
C1682 C 0.48638 0.99537 1.00322 0.0
H1683 H 0.5443 0.97263 0.03621 0.0
H1684 H 0.53228 0.98367 0.00569 0.0
H1685 H 0.48852 0.984 0.03797 0.0
H1686 H 0.46202 0.02839 0.96343 0.0
H1687 H 0.47375 0.0165 0.99283 0.0
H1688 H 0.51754 0.01638 0.95937 0.0
C1689 C 0.53056 0.98463 0.02629 0.0
C1690 C 0.49503 0.9912 0.02098 0.0
C1691 C 0.53742 0.97827 0.04379 0.0
C1692 C 0.46893 0.02292 0.95528 0.0
C1693 C 0.47561 0.01606 0.97215 0.0
C1694 C 0.511 0.00912 0.97628 0.0
C1695 C 0.52072 0.99115 0.03525 0.0
C1696 C 0.51176 0.99598 0.01662 0.0
C1697 C 0.48546 0.00971 0.96255 0.0
C1698 C 0.49429 0.00442 0.98072 0.0
H1699 H 0.52328 0.98612 0.10016 0.0
H1700 H 0.51148 0.99741 0.06956 0.0
H1701 H 0.53256 0.00888 0.99028 0.0
H1702 H 0.48349 0.01658 0.89812 0.0
H1703 H 0.49492 0.00433 0.92762 0.0
C1704 C 0.97842 0.44355 0.96078 0.0
C1705 C 0.97839 0.44579 0.93379 0.0
C1706 C 0.98527 0.45724 0.97741 0.0
C1707 C 0.99364 0.50015 0.97963 0.0
H1708 H 0.01777 0.50277 0.04249 0.0
C1709 C 0.02558 0.55846 0.04482 0.0
C1710 C 0.02529 0.55601 0.07179 0.0
C1711 C 0.01899 0.54491 0.02793 0.0
C1712 C 0.01085 0.50209 0.02518 0.0
H1713 H 0.98655 0.46415 0.90299 0.0
H1714 H 0.99873 0.48803 0.93204 0.0
H1715 H 0.00979 0.47964 0.01264 0.0
H1716 H 0.01685 0.5374 0.10225 0.0
H1717 H 0.00516 0.51376 0.07272 0.0
H1718 H 0.9947 0.5226 0.99218 0.0
C1719 C 0.99311 0.47568 0.94034 0.0
C1720 C 0.00635 0.48889 0.00804 0.0
C1721 C 0.98626 0.462 0.9237 0.0
C1722 C 0.01738 0.53972 0.08157 0.0
C1723 C 0.01081 0.52618 0.06466 0.0
C1724 C 0.99815 0.51336 0.99676 0.0
C1725 C 0.99226 0.47342 0.96738 0.0
C1726 C 0.99769 0.48777 0.9851 0.0
C1727 C 0.01197 0.52866 0.03767 0.0
C1728 C 0.00676 0.51444 0.01974 0.0
H1729 H 0.97248 0.43122 0.96918 0.0
H1730 H 0.98436 0.45508 0.99816 0.0
H1731 H 0.98669 0.49945 0.96234 0.0
H1732 H 0.03156 0.57086 0.03667 0.0
H1733 H 0.02012 0.54722 0.00721 0.0
C1734 C 0.46478 0.48054 0.08718 0.0
C1735 C 0.44836 0.47133 0.07813 0.0
C1736 C 0.47807 0.48693 0.06976 0.0
C1737 C 0.48733 0.49988 1.00163 0.0
H1738 H 0.52923 0.50192 0.0161 0.0
C1739 C 0.54015 0.52088 0.92635 0.0
C1740 C 0.55659 0.53012 0.93535 0.0
C1741 C 0.52689 0.51451 0.94381 0.0
C1742 C 0.51768 0.50165 0.01197 0.0
H1743 H 0.43303 0.46072 0.04386 0.0
H1744 H 0.45625 0.47169 0.01354 0.0
H1745 H 0.50616 0.48772 0.04641 0.0
H1746 H 0.57196 0.54079 0.96957 0.0
H1747 H 0.54877 0.52985 0.99996 0.0
H1748 H 0.49885 0.5138 0.96719 0.0
C1749 C 0.45883 0.47426 0.03405 0.0
C1750 C 0.50445 0.49346 0.02927 0.0
C1751 C 0.44554 0.46787 0.05145 0.0
C1752 C 0.55944 0.53362 0.96201 0.0
C1753 C 0.54618 0.52724 0.97946 0.0
C1754 C 0.50056 0.50807 0.98433 0.0
C1755 C 0.4752 0.48422 0.04295 0.0
C1756 C 0.48913 0.49248 0.02427 0.0
C1757 C 0.52979 0.51726 0.97061 0.0
C1758 C 0.51588 0.50904 0.98932 0.0
H1759 H 0.46738 0.48343 0.10761 0.0
H1760 H 0.49054 0.49462 0.07722 0.0
H1761 H 0.47578 0.49961 0.9975 0.0
H1762 H 0.53753 0.51796 0.90594 0.0
H1763 H 0.51441 0.5068 0.9364 0.0
C1764 C 0.25766 0.15256 0.05127 0.0
C1765 C 0.24805 0.15906 0.04107 0.0
C1766 C 0.25374 0.13629 0.0457 0.0
C1767 C 0.24845 0.10462 0.02026 0.0
H1768 H 0.20221 0.06999 0.01763 0.0
C1769 C 0.22722 0.03713 0.98728 0.0
C1770 C 0.21335 0.02424 0.99985 0.0
C1771 C 0.23216 0.05375 0.99258 0.0
C1772 C 0.21521 0.07947 0.01855 0.0
H1773 H 0.22684 0.15353 0.01677 0.0
H1774 H 0.22018 0.12522 0.00666 0.0
H1775 H 0.20923 0.09847 0.02625 0.0
H1776 H 0.19409 0.01858 0.02835 0.0
H1777 H 0.20293 0.04743 0.03815 0.0
H1778 H 0.2544 0.08548 0.01334 0.0
C1779 C 0.23059 0.13263 0.01936 0.0
C1780 C 0.21923 0.09588 0.0231 0.0
C1781 C 0.23446 0.1489 0.02505 0.0
C1782 C 0.20482 0.02827 0.01831 0.0
C1783 C 0.20981 0.04482 0.02376 0.0
C1784 C 0.24442 0.08818 0.01581 0.0
C1785 C 0.24017 0.1261 0.02967 0.0
C1786 C 0.23591 0.10867 0.02412 0.0
C1787 C 0.22332 0.05779 0.01058 0.0
C1788 C 0.22774 0.07537 0.01504 0.0
H1789 H 0.26818 0.15999 0.06378 0.0
H1790 H 0.26123 0.13163 0.05436 0.0
H1791 H 0.26143 0.11418 0.02055 0.0
H1792 H 0.23375 0.03443 0.97243 0.0
H1793 H 0.24249 0.0634 0.98182 0.0
C1794 C 0.85818 0.08517 0.02378 0.0
C1795 C 0.84839 0.0894 0.03922 0.0
C1796 C 0.87451 0.09717 0.01729 0.0
C1797 C 0.90924 0.13787 0.0383 0.0
H1798 H 0.92518 0.14062 0.96793 0.0
C1799 C 0.97306 0.19184 1.00481 0.0
C1800 C 0.98253 0.18762 0.98857 0.0
C1801 C 0.95646 0.18017 0.0104 0.0
C1802 C 0.92099 0.13993 0.98775 0.0
H1803 H 0.84819 0.10965 0.06 0.0
H1804 H 0.87646 0.13038 0.04869 0.0
H1805 H 0.89696 0.11922 0.97913 0.0
H1806 H 0.98194 0.16779 0.96554 0.0
H1807 H 0.95329 0.14751 0.9756 0.0
H1808 H 0.93328 0.15845 0.04704 0.0
C1809 C 0.87162 0.11779 0.04175 0.0
C1810 C 0.90481 0.12764 0.99416 0.0
C1811 C 0.85533 0.10588 0.0481 0.0
C1812 C 0.975 0.17151 0.97806 0.0
C1813 C 0.95848 0.15988 0.98364 0.0
C1814 C 0.92544 0.15012 0.03192 0.0
C1815 C 0.88142 0.11362 0.02627 0.0
C1816 C 0.89874 0.12647 0.0195 0.0
C1817 C 0.94899 0.16401 0.99997 0.0
C1818 C 0.93154 0.15131 0.00657 0.0
H1819 H 0.85324 0.07261 0.01664 0.0
H1820 H 0.88181 0.09352 0.0055 0.0
H1821 H 0.90502 0.13717 0.0581 0.0
H1822 H 0.97852 0.20393 0.01384 0.0
H1823 H 0.94949 0.18382 0.02295 0.0
C1824 C 0.89888 0.74806 0.03469 0.0
C1825 C 0.91578 0.76026 0.03588 0.0
C1826 C 0.8868 0.75237 0.02929 0.0
C1827 C 0.88106 0.78667 1.00374 0.0
H1828 H 0.83849 0.76214 0.03861 0.0
C1829 C 0.83231 0.80774 1.00252 0.0
C1830 C 0.81599 0.79561 0.9958 0.0
C1831 C 0.84429 0.80331 0.00804 0.0
C1832 C 0.85028 0.76902 0.02862 0.0
H1833 H 0.93327 0.7866 0.03213 0.0
H1834 H 0.91215 0.79426 0.0235 0.0
H1835 H 0.86 0.75503 0.04679 0.0
H1836 H 0.79973 0.76922 0.98912 0.0
H1837 H 0.82048 0.76145 0.99988 0.0
H1838 H 0.87135 0.80094 0.98616 0.0
C1839 C 0.90822 0.78126 0.02613 0.0
C1840 C 0.86262 0.76491 0.03317 0.0
C1841 C 0.92036 0.7769 0.03118 0.0
C1842 C 0.8119 0.77886 0.99518 0.0
C1843 C 0.82387 0.7744 1.00105 0.0
C1844 C 0.86879 0.79092 0.99948 0.0
C1845 C 0.89124 0.76905 0.02532 0.0
C1846 C 0.87817 0.77362 0.02069 0.0
C1847 C 0.84025 0.78662 0.00714 0.0
C1848 C 0.85326 0.7821 0.01181 0.0
H1849 H 0.89493 0.73509 0.03794 0.0
H1850 H 0.87396 0.74254 0.02818 0.0
H1851 H 0.89272 0.79349 0.99341 0.0
H1852 H 0.83594 0.82076 1.00316 0.0
H1853 H 0.85677 0.81298 0.01293 0.0
C1854 C 0.02804 0.20256 0.49248 0.0
C1855 C 0.02423 0.2112 0.51106 0.0
C1856 C 0.04453 0.2073 0.48693 0.0
C1857 C 0.08804 0.24169 0.49457 0.0
H1858 H 0.09815 0.20649 0.48276 0.0
C1859 C 0.1488 0.23195 0.48314 0.0
C1860 C 0.15884 0.24572 0.46734 0.0
C1861 C 0.13249 0.22788 0.4891 0.0
C1862 C 0.0956 0.21648 0.48629 0.0
H1863 H 0.03479 0.23144 0.53876 0.0
H1864 H 0.0636 0.23975 0.52914 0.0
H1865 H 0.06972 0.19949 0.49203 0.0
H1866 H 0.15944 0.2659 0.44518 0.0
H1867 H 0.13107 0.25862 0.45506 0.0
H1868 H 0.11402 0.25867 0.48955 0.0
C1869 C 0.05384 0.22955 0.51834 0.0
C1870 C 0.07922 0.21248 0.49122 0.0
C1871 C 0.03729 0.22485 0.52377 0.0
C1872 C 0.15214 0.25525 0.45754 0.0
C1873 C 0.13586 0.25115 0.46338 0.0
C1874 C 0.10444 0.2457 0.48975 0.0
C1875 C 0.05766 0.22068 0.50009 0.0
C1876 C 0.07519 0.22502 0.49524 0.0
C1877 C 0.12582 0.23746 0.4793 0.0
C1878 C 0.10843 0.23315 0.48536 0.0
H1879 H 0.01822 0.19197 0.48238 0.0
H1880 H 0.04698 0.20038 0.47239 0.0
H1881 H 0.08541 0.25168 0.4974 0.0
H1882 H 0.15358 0.22438 0.49108 0.0
H1883 H 0.12519 0.21736 0.50167 0.0
C1884 C 0.75725 0.90082 0.46616 0.0
C1885 C 0.76575 0.91707 0.47623 0.0
C1886 C 0.76208 0.8893 0.47261 0.0
C1887 C 0.78326 0.87865 0.52219 0.0
H1888 H 0.78492 0.85052 0.46803 0.0
C1889 C 0.8064 0.83235 0.54118 0.0
C1890 C 0.79843 0.81695 0.52831 0.0
C1891 C 0.80257 0.8447 0.53528 0.0
C1892 C 0.78429 0.85809 0.48346 0.0
H1893 H 0.78606 0.93391 0.50109 0.0
H1894 H 0.79447 0.91353 0.51265 0.0
H1895 H 0.77882 0.87236 0.45679 0.0
H1896 H 0.78036 0.80269 0.49855 0.0
H1897 H 0.77317 0.82398 0.48892 0.0
H1898 H 0.78843 0.8642 0.54895 0.0
C1899 C 0.78403 0.90984 0.49969 0.0
C1900 C 0.78089 0.87069 0.47699 0.0
C1901 C 0.77927 0.92151 0.49301 0.0
C1902 C 0.78642 0.81417 0.5094 0.0
C1903 C 0.78252 0.82654 0.50353 0.0
C1904 C 0.78657 0.86597 0.52871 0.0
C1905 C 0.77549 0.89363 0.48943 0.0
C1906 C 0.78023 0.88103 0.49628 0.0
C1907 C 0.79064 0.84201 0.51628 0.0
C1908 C 0.78704 0.85547 0.50943 0.0
H1909 H 0.74679 0.89691 0.45314 0.0
H1910 H 0.7551 0.87687 0.46467 0.0
H1911 H 0.78262 0.88628 0.53751 0.0
H1912 H 0.81577 0.83497 0.55581 0.0
H1913 H 0.80927 0.85652 0.54522 0.0
C1914 C 0.08501 0.85808 0.48897 0.0
C1915 C 0.0889 0.84877 0.4718 0.0
C1916 C 0.09708 0.87432 0.4958 0.0
C1917 C 0.12226 0.91148 0.49542 0.0
H1918 H 0.16806 0.92203 0.5025 0.0
C1919 C 0.17573 0.97916 0.50187 0.0
C1920 C 0.18898 0.98284 0.51878 0.0
C1921 C 0.16377 0.96272 0.4965 0.0
C1922 C 0.15533 0.9193 0.50087 0.0
H1923 H 0.10848 0.84945 0.4479 0.0
H1924 H 0.12919 0.87762 0.45921 0.0
H1925 H 0.14649 0.89354 0.494 0.0
H1926 H 0.19987 0.97211 0.5438 0.0
H1927 H 0.17897 0.94336 0.53457 0.0
H1928 H 0.13103 0.93716 0.50304 0.0
C1929 C 0.11702 0.87233 0.46805 0.0
C1930 C 0.14295 0.90297 0.49564 0.0
C1931 C 0.10504 0.85615 0.46139 0.0
C1932 C 0.19012 0.9697 0.53007 0.0
C1933 C 0.17804 0.9532 0.52486 0.0
C1934 C 0.13463 0.9278 0.50081 0.0
C1935 C 0.11328 0.88162 0.48549 0.0
C1936 C 0.12627 0.89886 0.49253 0.0
C1937 C 0.1646 0.9495 0.50822 0.0
C1938 C 0.15136 0.93198 0.50332 0.0
H1939 H 0.07271 0.85276 0.49738 0.0
H1940 H 0.09379 0.88105 0.50946 0.0
H1941 H 0.1096 0.90884 0.49297 0.0
H1942 H 0.17454 0.98906 0.49289 0.0
H1943 H 0.15383 0.9604 0.48315 0.0
C1944 C 0.75134 0.85397 0.96159 0.0
C1945 C 0.76012 0.84654 0.97172 0.0
C1946 C 0.75609 0.8704 0.96752 0.0
C1947 C 0.7913 0.90976 0.99208 0.0
H1948 H 0.75694 0.92113 1.00372 0.0
C1949 C 0.80585 0.97356 0.03194 0.0
C1950 C 0.79784 0.98135 0.02029 0.0
C1951 C 0.80111 0.95712 0.02609 0.0
C1952 C 0.76667 0.91818 1.00026 0.0
H1953 H 0.78092 0.8507 0.99597 0.0
H1954 H 0.78909 0.8794 0.00674 0.0
H1955 H 0.74917 0.89248 0.99399 0.0
H1956 H 0.77881 0.97793 0.99259 0.0
H1957 H 0.77026 0.94906 0.98279 0.0
H1958 H 0.80878 0.93548 0.99864 0.0
C1959 C 0.77862 0.87252 0.99387 0.0
C1960 C 0.76224 0.90176 0.99466 0.0
C1961 C 0.7739 0.85604 0.9878 0.0
C1962 C 0.7849 0.97224 1.00259 0.0
C1963 C 0.78008 0.95569 0.99681 0.0
C1964 C 0.79573 0.92617 0.99782 0.0
C1965 C 0.76971 0.87988 0.98388 0.0
C1966 C 0.77449 0.89733 0.99041 0.0
C1967 C 0.78822 0.948 0.00839 0.0
C1968 C 0.78347 0.93058 1.00196 0.0
H1969 H 0.74073 0.84711 0.94895 0.0
H1970 H 0.74914 0.87572 0.95903 0.0
H1971 H 0.80106 0.90689 0.9885 0.0
H1972 H 0.81584 0.98017 0.04573 0.0
H1973 H 0.80748 0.95151 0.03563 0.0
C1974 C 0.15176 0.89996 0.96681 0.0
C1975 C 0.15862 0.91649 0.97537 0.0
C1976 C 0.13554 0.888 0.9734 0.0
C1977 C 0.09555 0.88314 0.99547 0.0
H1978 H 0.0855 0.83831 0.01182 0.0
C1979 C 0.03143 0.83376 0.0336 0.0
C1980 C 0.0243 0.8177 0.02299 0.0
C1981 C 0.04797 0.84556 0.02869 0.0
C1982 C 0.08808 0.85073 0.00706 0.0
H1983 H 0.1537 0.93333 0.99769 0.0
H1984 H 0.12535 0.91232 0.00953 0.0
H1985 H 0.11405 0.85962 1.00219 0.0
H1986 H 0.02906 0.80161 0.9984 0.0
H1987 H 0.05812 0.8222 0.99009 0.0
H1988 H 0.06959 0.87425 1.0004 0.0
C1989 C 0.13253 0.90871 0.9974 0.0
C1990 C 0.10445 0.86296 1.00153 0.0
C1991 C 0.1488 0.92074 0.99073 0.0
C1992 C 0.03423 0.81366 0.0075 0.0
C1993 C 0.05087 0.82552 1.0026 0.0
C1994 C 0.07921 0.87093 1.00107 0.0
C1995 C 0.12571 0.89218 0.98882 0.0
C1996 C 0.10838 0.87931 0.99556 0.0
C1997 C 0.05786 0.84166 0.01292 0.0
C1998 C 0.07527 0.85458 0.0069 0.0
H1999 H 0.15888 0.89621 0.9548 0.0
H2000 H 0.13064 0.8755 0.96603 0.0
H2001 H 0.09806 0.89551 0.99052 0.0
H2002 H 0.02417 0.83727 0.04574 0.0
H2003 H 0.05303 0.85778 0.0373 0.0
C2004 C 0.17249 0.19857 0.02786 0.0
C2005 C 0.18885 0.20806 0.01856 0.0
C2006 C 0.16072 0.20336 0.02297 0.0
C2007 C 0.15606 0.23913 1.00457 0.0
H2008 H 0.11167 0.20511 0.98441 0.0
C2009 C 0.10774 0.25519 0.96527 0.0
C2010 C 0.09104 0.24517 0.97276 0.0
C2011 C 0.11958 0.25072 0.97161 0.0
C2012 C 0.12392 0.21474 0.99037 0.0
H2013 H 0.20546 0.22986 0.99606 0.0
H2014 H 0.18494 0.23839 0.98784 0.0
H2015 H 0.13266 0.19745 0.99379 0.0
H2016 H 0.07374 0.22257 0.99298 0.0
H2017 H 0.09452 0.21486 1.00438 0.0
H2018 H 0.14733 0.25642 1.00122 0.0
C2019 C 0.18135 0.22737 0.99936 0.0
C2020 C 0.13598 0.21035 0.99569 0.0
C2021 C 0.19316 0.22253 1.00423 0.0
C2022 C 0.08648 0.23056 0.98686 0.0
C2023 C 0.09838 0.2261 0.99327 0.0
C2024 C 0.14399 0.24352 0.99932 0.0
C2025 C 0.16496 0.21775 0.00854 0.0
C2026 C 0.1522 0.2225 1.00281 0.0
C2027 C 0.11508 0.23613 0.98569 0.0
C2028 C 0.12778 0.23138 0.99207 0.0
H2029 H 0.16874 0.18738 0.03906 0.0
H2030 H 0.14828 0.1958 0.03065 0.0
H2031 H 0.16836 0.24874 0.01037 0.0
H2032 H 0.11173 0.2665 0.95427 0.0
H2033 H 0.13224 0.2586 0.96506 0.0
C2034 C 0.85803 0.77413 0.536 0.0
C2035 C 0.84617 0.75734 0.53994 0.0
C2036 C 0.87454 0.77884 0.53026 0.0
C2037 C 0.90428 0.76288 0.53314 0.0
H2038 H 0.93076 0.8005 0.48823 0.0
C2039 C 0.96889 0.77936 0.49115 0.0
C2040 C 0.98144 0.79606 0.49388 0.0
C2041 C 0.9524 0.77437 0.49755 0.0
C2042 C 0.92351 0.79001 0.50092 0.0
H2043 H 0.84216 0.73227 0.54004 0.0
H2044 H 0.87059 0.74033 0.52898 0.0
H2045 H 0.90188 0.79233 0.49688 0.0
H2046 H 0.98636 0.82058 0.50538 0.0
H2047 H 0.95761 0.8119 0.51589 0.0
H2048 H 0.92593 0.76036 0.53641 0.0
C2049 C 0.86743 0.75 0.53124 0.0
C2050 C 0.90698 0.78537 0.50602 0.0
C2051 C 0.85105 0.74534 0.53739 0.0
C2052 C 0.97706 0.8076 0.50307 0.0
C2053 C 0.96058 0.80268 0.50904 0.0
C2054 C 0.92074 0.76737 0.52768 0.0
C2055 C 0.87949 0.76683 0.52792 0.0
C2056 C 0.89713 0.77177 0.52229 0.0
C2057 C 0.94808 0.78604 0.5062 0.0
C2058 C 0.93053 0.78104 0.51164 0.0
H2059 H 0.85467 0.78368 0.53801 0.0
H2060 H 0.88347 0.79194 0.52822 0.0
H2061 H 0.89727 0.75256 0.5462 0.0
H2062 H 0.97154 0.7702 0.48315 0.0
H2063 H 0.94292 0.76149 0.49486 0.0
C2064 C 0.22896 0.08543 0.53486 0.0
C2065 C 0.24568 0.0902 0.53909 0.0
C2066 C 0.22444 0.09736 0.52907 0.0
C2067 C 0.24086 0.14317 0.53221 0.0
H2068 H 0.20337 0.13248 0.48727 0.0
C2069 C 0.22533 0.19189 0.49011 0.0
C2070 C 0.20876 0.18811 0.4932 0.0
C2071 C 0.23003 0.18017 0.49638 0.0
C2072 C 0.21382 0.13559 0.49996 0.0
H2073 H 0.27085 0.1111 0.53957 0.0
H2074 H 0.26314 0.13171 0.52837 0.0
H2075 H 0.21122 0.11153 0.49584 0.0
H2076 H 0.18414 0.16884 0.50504 0.0
H2077 H 0.19232 0.14834 0.51527 0.0
H2078 H 0.24368 0.16745 0.53551 0.0
C2079 C 0.25336 0.11891 0.53049 0.0
C2080 C 0.21829 0.12356 0.50502 0.0
C2081 C 0.25782 0.10705 0.53672 0.0
C2082 C 0.19703 0.17225 0.50248 0.0
C2083 C 0.20167 0.16047 0.50831 0.0
C2084 C 0.23656 0.15527 0.52676 0.0
C2085 C 0.23658 0.1143 0.52693 0.0
C2086 C 0.23184 0.12715 0.52131 0.0
C2087 C 0.2182 0.16429 0.50524 0.0
C2088 C 0.22295 0.15157 0.5107 0.0
H2089 H 0.21931 0.07255 0.53672 0.0
H2090 H 0.21138 0.0933 0.52686 0.0
H2091 H 0.25114 0.14636 0.54529 0.0
H2092 H 0.23461 0.20359 0.48196 0.0
H2093 H 0.24283 0.18332 0.49348 0.0
C2094 C 0.92051 0.14932 0.52512 0.0
C2095 C 0.91689 0.15896 0.54201 0.0
C2096 C 0.90833 0.13304 0.51897 0.0
C2097 C 0.86261 0.10433 0.5197 0.0
H2098 H 0.87516 0.07058 0.51235 0.0
C2099 C 0.81501 0.03369 0.50796 0.0
C2100 C 0.81903 0.02528 0.4892 0.0
C2101 C 0.82647 0.05019 0.51452 0.0
C2102 C 0.87147 0.07989 0.51414 0.0
H2103 H 0.8976 0.15891 0.56588 0.0
H2104 H 0.87658 0.13051 0.55561 0.0
H2105 H 0.89618 0.09884 0.52368 0.0
H2106 H 0.83816 0.02773 0.46241 0.0
H2107 H 0.858 0.05628 0.47389 0.0
H2108 H 0.83782 0.0852 0.51039 0.0
C2109 C 0.8887 0.13561 0.54666 0.0
C2110 C 0.88354 0.09613 0.52056 0.0
C2111 C 0.90083 0.15189 0.55269 0.0
C2112 C 0.83466 0.03378 0.47706 0.0
C2113 C 0.84608 0.05015 0.48368 0.0
C2114 C 0.8505 0.08804 0.51343 0.0
C2115 C 0.89227 0.12597 0.52968 0.0
C2116 C 0.87931 0.1086 0.52324 0.0
C2117 C 0.84222 0.0585 0.50268 0.0
C2118 C 0.85484 0.07568 0.51035 0.0
H2119 H 0.93271 0.15439 0.51646 0.0
H2120 H 0.91146 0.12608 0.50552 0.0
H2121 H 0.85891 0.11365 0.52127 0.0
H2122 H 0.80333 0.02743 0.51827 0.0
H2123 H 0.82322 0.05626 0.52945 0.0
C2124 C 0.86448 0.36153 0.31415 0.0
C2125 C 0.87384 0.35456 0.32359 0.0
C2126 C 0.86925 0.37806 0.3193 0.0
C2127 C 0.90492 0.41829 0.33864 0.0
H2128 H 0.87087 0.42862 0.35869 0.0
C2129 C 0.92106 0.48243 0.37888 0.0
C2130 C 0.91114 0.48923 0.37146 0.0
C2131 C 0.91652 0.46614 0.37233 0.0
C2132 C 0.88051 0.42601 0.35276 0.0
H2133 H 0.89536 0.35951 0.34666 0.0
H2134 H 0.90388 0.38851 0.3553 0.0
H2135 H 0.86317 0.40002 0.34881 0.0
H2136 H 0.88864 0.48416 0.35116 0.0
H2137 H 0.88081 0.4557 0.33935 0.0
H2138 H 0.92225 0.44427 0.34247 0.0
C2139 C 0.89297 0.38118 0.34347 0.0
C2140 C 0.8761 0.40959 0.34716 0.0
C2141 C 0.88815 0.36457 0.33835 0.0
C2142 C 0.89655 0.47931 0.35723 0.0
C2143 C 0.89202 0.46297 0.35059 0.0
C2144 C 0.90932 0.43472 0.34414 0.0
C2145 C 0.8835 0.38806 0.33413 0.0
C2146 C 0.88825 0.40554 0.34009 0.0
C2147 C 0.90197 0.45619 0.35807 0.0
C2148 C 0.89718 0.43878 0.35138 0.0
H2149 H 0.85341 0.35419 0.30263 0.0
H2150 H 0.86181 0.38303 0.31152 0.0
H2151 H 0.91454 0.41561 0.33289 0.0
H2152 H 0.93234 0.48965 0.38999 0.0
H2153 H 0.92432 0.46127 0.37883 0.0
C2154 C 0.52339 0.43778 0.37909 0.0
C2155 C 0.51631 0.4216 0.36887 0.0
C2156 C 0.53955 0.44989 0.37261 0.0
C2157 C 0.57164 0.46169 0.3228 0.0
H2158 H 0.60137 0.48996 0.3769 0.0
C2159 C 0.64128 0.50651 0.30422 0.0
C2160 C 0.64918 0.52195 0.31698 0.0
C2161 C 0.62489 0.49464 0.31001 0.0
C2162 C 0.59316 0.48237 0.36148 0.0
H2163 H 0.52076 0.40553 0.34372 0.0
H2164 H 0.54913 0.42688 0.33218 0.0
H2165 H 0.57337 0.46815 0.38814 0.0
H2166 H 0.64597 0.5368 0.34639 0.0
H2167 H 0.61711 0.51633 0.35581 0.0
H2168 H 0.5913 0.476 0.29606 0.0
C2169 C 0.54203 0.43009 0.34522 0.0
C2170 C 0.57714 0.4698 0.36796 0.0
C2171 C 0.52583 0.41786 0.35191 0.0
C2172 C 0.6402 0.52528 0.33562 0.0
C2173 C 0.62371 0.51338 0.34137 0.0
C2174 C 0.58763 0.47434 0.31628 0.0
C2175 C 0.54906 0.44622 0.35559 0.0
C2176 C 0.56621 0.45931 0.3487 0.0
C2177 C 0.61589 0.49785 0.32875 0.0
C2178 C 0.59863 0.48481 0.33555 0.0
H2179 H 0.51646 0.44114 0.39224 0.0
H2180 H 0.54453 0.46224 0.38067 0.0
H2181 H 0.56341 0.45396 0.30749 0.0
H2182 H 0.64783 0.50348 0.2898 0.0
H2183 H 0.61944 0.48276 0.3002 0.0
C2184 C 0.56678 0.08569 0.38043 0.0
C2185 C 0.58293 0.09429 0.36998 0.0
C2186 C 0.55496 0.0901 0.37381 0.0
C2187 C 0.55008 0.12423 0.34663 0.0
H2188 H 0.50438 0.08912 0.33728 0.0
C2189 C 0.4993 0.13686 0.30759 0.0
C2190 C 0.48375 0.12887 0.32007 0.0
C2191 C 0.51132 0.13251 0.31316 0.0
C2192 C 0.51705 0.09906 0.34007 0.0
H2193 H 0.5993 0.11442 0.34444 0.0
H2194 H 0.57846 0.12201 0.33247 0.0
H2195 H 0.52572 0.08203 0.34715 0.0
H2196 H 0.46893 0.1103 0.34891 0.0
H2197 H 0.48982 0.10243 0.35824 0.0
H2198 H 0.54136 0.14124 0.33933 0.0
C2199 C 0.57506 0.11194 0.3461 0.0
C2200 C 0.52931 0.09502 0.34575 0.0
C2201 C 0.58699 0.10756 0.35285 0.0
C2202 C 0.48051 0.11635 0.33828 0.0
C2203 C 0.49255 0.11192 0.34379 0.0
C2204 C 0.53782 0.12826 0.34082 0.0
C2205 C 0.55885 0.10318 0.35641 0.0
C2206 C 0.54597 0.10755 0.34928 0.0
C2207 C 0.50814 0.12005 0.3314 0.0
C2208 C 0.52115 0.11573 0.33758 0.0
H2209 H 0.5632 0.07551 0.3939 0.0
H2210 H 0.54276 0.08331 0.38261 0.0
H2211 H 0.56271 0.1342 0.3496 0.0
H2212 H 0.50223 0.14653 0.29338 0.0
H2213 H 0.52309 0.13885 0.30301 0.0
C2214 C 0.82087 0.58924 0.80227 0.0
C2215 C 0.82569 0.57712 0.80325 0.0
C2216 C 0.80451 0.5851 0.8077 0.0
C2217 C 0.76524 0.55193 0.83769 0.0
H2218 H 0.7459 0.57467 0.8011 0.0
C2219 C 0.69527 0.52997 0.84138 0.0
C2220 C 0.69097 0.54206 0.84781 0.0
C2221 C 0.71162 0.5345 0.83517 0.0
C2222 C 0.75119 0.5683 0.81156 0.0
H2223 H 0.81701 0.55109 0.81046 0.0
H2224 H 0.78832 0.54368 0.81897 0.0
H2225 H 0.77439 0.58165 0.7916 0.0
H2226 H 0.70094 0.56854 0.85319 0.0
H2227 H 0.72933 0.57646 0.84111 0.0
H2228 H 0.74176 0.53824 0.85699 0.0
C2229 C 0.79727 0.55653 0.81477 0.0
C2230 C 0.76756 0.57234 0.80625 0.0
C2231 C 0.81373 0.56074 0.80973 0.0
C2232 C 0.7035 0.55889 0.84739 0.0
C2233 C 0.71987 0.56344 0.84077 0.0
C2234 C 0.7488 0.54773 0.84266 0.0
C2235 C 0.79241 0.56866 0.81386 0.0
C2236 C 0.77486 0.56425 0.8193 0.0
C2237 C 0.72412 0.55126 0.83501 0.0
C2238 C 0.74162 0.55588 0.82969 0.0
H2239 H 0.82981 0.60202 0.79756 0.0
H2240 H 0.80144 0.5949 0.80734 0.0
H2241 H 0.77044 0.54565 0.84858 0.0
H2242 H 0.686 0.51689 0.84151 0.0
H2243 H 0.71451 0.52485 0.83058 0.0
C2244 C 0.4189 0.23221 0.79261 0.0
C2245 C 0.42814 0.24838 0.8028 0.0
C2246 C 0.42295 0.22006 0.79884 0.0
C2247 C 0.44389 0.20851 0.84808 0.0
H2248 H 0.44464 0.17985 0.79402 0.0
C2249 C 0.46976 0.16457 0.86589 0.0
C2250 C 0.46201 0.14891 0.8538 0.0
C2251 C 0.46504 0.17627 0.86004 0.0
C2252 C 0.44423 0.18756 0.80943 0.0
H2253 H 0.44893 0.26441 0.82758 0.0
H2254 H 0.45597 0.24306 0.83858 0.0
H2255 H 0.43801 0.20139 0.78299 0.0
H2256 H 0.44342 0.13354 0.82536 0.0
H2257 H 0.43471 0.15373 0.81582 0.0
H2258 H 0.44993 0.19463 0.8746 0.0
C2259 C 0.44553 0.23985 0.82581 0.0
C2260 C 0.4405 0.19996 0.80308 0.0
C2261 C 0.44156 0.25209 0.81941 0.0
C2262 C 0.44935 0.14523 0.83564 0.0
C2263 C 0.44455 0.15696 0.82982 0.0
C2264 C 0.44751 0.19605 0.85447 0.0
C2265 C 0.43628 0.2237 0.81555 0.0
C2266 C 0.44036 0.21062 0.82231 0.0
C2267 C 0.4524 0.17267 0.84189 0.0
C2268 C 0.44782 0.18546 0.83521 0.0
H2269 H 0.40846 0.22887 0.77976 0.0
H2270 H 0.41546 0.2077 0.79086 0.0
H2271 H 0.44361 0.21635 0.8634 0.0
H2272 H 0.47962 0.16787 0.87991 0.0
H2273 H 0.47159 0.1883 0.86938 0.0
C2274 C 0.85784 0.30011 0.8509 0.0
C2275 C 0.85397 0.31288 0.84852 0.0
C2276 C 0.84611 0.28371 0.84438 0.0
C2277 C 0.80152 0.25523 0.84157 0.0
H2278 H 0.81181 0.2291 0.79456 0.0
C2279 C 0.75087 0.19008 0.80707 0.0
C2280 C 0.75553 0.1781 0.80226 0.0
C2281 C 0.76292 0.20655 0.81251 0.0
C2282 C 0.80875 0.23607 0.8081 0.0
H2283 H 0.83453 0.31819 0.83761 0.0
H2284 H 0.81406 0.28958 0.82699 0.0
H2285 H 0.83301 0.25758 0.80462 0.0
H2286 H 0.77644 0.1739 0.80012 0.0
H2287 H 0.79728 0.20227 0.8107 0.0
H2288 H 0.77751 0.23372 0.84592 0.0
C2289 C 0.82625 0.29235 0.83358 0.0
C2290 C 0.82092 0.25244 0.81371 0.0
C2291 C 0.83802 0.30874 0.83965 0.0
C2292 C 0.77244 0.18287 0.80347 0.0
C2293 C 0.78444 0.19923 0.80935 0.0
C2294 C 0.78944 0.23877 0.83636 0.0
C2295 C 0.83014 0.27966 0.83598 0.0
C2296 C 0.81739 0.2622 0.83037 0.0
C2297 C 0.7799 0.21138 0.81372 0.0
C2298 C 0.79283 0.22895 0.81944 0.0
H2299 H 0.86961 0.30251 0.85869 0.0
H2300 H 0.84934 0.27409 0.84675 0.0
H2301 H 0.79854 0.26246 0.85473 0.0
H2302 H 0.73794 0.18682 0.80608 0.0
H2303 H 0.7589 0.21554 0.8153 0.0
C2304 C 0.44926 0.30335 0.33791 0.0
C2305 C 0.46342 0.31284 0.35324 0.0
C2306 C 0.44396 0.28665 0.33257 0.0
C2307 C 0.4487 0.25112 0.35458 0.0
H2308 H 0.43436 0.23489 0.28463 0.0
C2309 C 0.43983 0.18814 0.31825 0.0
C2310 C 0.42555 0.17832 0.3033 0.0
C2311 C 0.44432 0.2045 0.32472 0.0
C2312 C 0.43819 0.23919 0.30432 0.0
H2313 H 0.48307 0.31221 0.37504 0.0
H2314 H 0.47404 0.28336 0.36544 0.0
H2315 H 0.44172 0.26325 0.29568 0.0
H2316 H 0.40482 0.1781 0.28339 0.0
H2317 H 0.41263 0.20643 0.29468 0.0
H2318 H 0.44533 0.22707 0.3631 0.0
C2319 C 0.46681 0.28863 0.35789 0.0
C2320 C 0.44235 0.25543 0.31069 0.0
C2321 C 0.47208 0.30525 0.3632 0.0
C2322 C 0.41593 0.18527 0.29489 0.0
C2323 C 0.42045 0.20158 0.30123 0.0
C2324 C 0.4446 0.23489 0.34818 0.0
C2325 C 0.45275 0.27912 0.34238 0.0
C2326 C 0.44769 0.26162 0.33588 0.0
C2327 C 0.43467 0.2114 0.31622 0.0
C2328 C 0.43931 0.22874 0.32298 0.0
H2329 H 0.44255 0.30887 0.32935 0.0
H2330 H 0.43302 0.27965 0.32066 0.0
H2331 H 0.45253 0.25539 0.37428 0.0
H2332 H 0.44752 0.1832 0.32501 0.0
H2333 H 0.45544 0.21182 0.33611 0.0
C2334 C 0.81884 0.22998 0.29335 0.0
C2335 C 0.82519 0.24637 0.30223 0.0
C2336 C 0.80258 0.21768 0.29921 0.0
C2337 C 0.76199 0.21213 0.32009 0.0
H2338 H 0.75212 0.16748 0.33733 0.0
C2339 C 0.69895 0.16409 0.36238 0.0
C2340 C 0.6912 0.14788 0.35224 0.0
C2341 C 0.71543 0.17552 0.35634 0.0
C2342 C 0.75466 0.17984 0.33229 0.0
H2343 H 0.81936 0.26261 0.32446 0.0
H2344 H 0.79108 0.24111 0.33503 0.0
H2345 H 0.78061 0.18872 0.3269 0.0
H2346 H 0.69481 0.13107 0.32751 0.0
H2347 H 0.7238 0.15106 0.31724 0.0
H2348 H 0.73611 0.20332 0.3257 0.0
C2349 C 0.79861 0.23782 0.32314 0.0
C2350 C 0.77098 0.19203 0.32629 0.0
C2351 C 0.81487 0.25014 0.3172 0.0
C2352 C 0.70047 0.14328 0.33621 0.0
C2353 C 0.71707 0.15478 0.33018 0.0
C2354 C 0.74573 0.19999 0.32617 0.0
C2355 C 0.79224 0.22144 0.31417 0.0
C2356 C 0.77487 0.20836 0.32026 0.0
C2357 C 0.72463 0.17111 0.33989 0.0
C2358 C 0.74188 0.18374 0.33253 0.0
H2359 H 0.82641 0.22661 0.2817 0.0
H2360 H 0.79804 0.20528 0.29167 0.0
H2361 H 0.76444 0.22445 0.31499 0.0
H2362 H 0.69223 0.16803 0.37495 0.0
H2363 H 0.72096 0.18789 0.36454 0.0
C2364 C 0.83775 0.53116 0.37022 0.0
C2365 C 0.85377 0.54 0.3594 0.0
C2366 C 0.82595 0.53591 0.36525 0.0
C2367 C 0.82116 0.57101 0.3438 0.0
H2368 H 0.77631 0.53673 0.32632 0.0
C2369 C 0.77381 0.58693 0.3012 0.0
C2370 C 0.75708 0.57764 0.30896 0.0
C2371 C 0.78526 0.58217 0.30851 0.0
C2372 C 0.78869 0.54643 0.33156 0.0
H2373 H 0.86973 0.56057 0.33418 0.0
H2374 H 0.84921 0.56908 0.32594 0.0
H2375 H 0.79718 0.52905 0.33676 0.0
H2376 H 0.73929 0.55593 0.33051 0.0
H2377 H 0.75946 0.5477 0.34371 0.0
H2378 H 0.81272 0.5884 0.33875 0.0
C2379 C 0.84592 0.5586 0.33865 0.0
C2380 C 0.80067 0.54203 0.33747 0.0
C2381 C 0.85774 0.55379 0.34354 0.0
C2382 C 0.75207 0.56336 0.32419 0.0
C2383 C 0.76362 0.55861 0.33165 0.0
C2384 C 0.80917 0.5754 0.33805 0.0
C2385 C 0.82985 0.54961 0.34929 0.0
C2386 C 0.81707 0.55429 0.34346 0.0
C2387 C 0.78038 0.56803 0.32395 0.0
C2388 C 0.79282 0.56318 0.33159 0.0
H2389 H 0.83426 0.5205 0.3826 0.0
H2390 H 0.81377 0.52886 0.37402 0.0
H2391 H 0.83361 0.5807 0.34877 0.0
H2392 H 0.77815 0.59792 0.28925 0.0
H2393 H 0.79794 0.58952 0.30171 0.0
C2394 C 0.51751 0.07944 0.86593 0.0
C2395 C 0.51274 0.09152 0.86852 0.0
C2396 C 0.53392 0.08399 0.86018 0.0
C2397 C 0.57406 0.11932 0.83645 0.0
H2398 H 0.5919 0.09331 0.86679 0.0
C2399 C 0.64392 0.13997 0.83487 0.0
C2400 C 0.648 0.12817 0.82575 0.0
C2401 C 0.62749 0.13545 0.84042 0.0
C2402 C 0.58704 0.10061 0.85808 0.0
H2403 H 0.52147 0.1179 0.86695 0.0
H2404 H 0.55034 0.126 0.85785 0.0
H2405 H 0.56331 0.08597 0.87592 0.0
H2406 H 0.63751 0.10229 0.81464 0.0
H2407 H 0.60899 0.09429 0.82563 0.0
H2408 H 0.59812 0.13427 0.81936 0.0
C2409 C 0.5413 0.11291 0.85958 0.0
C2410 C 0.5706 0.09638 0.86315 0.0
C2411 C 0.52475 0.1083 0.86492 0.0
C2412 C 0.63513 0.11163 0.82262 0.0
C2413 C 0.61868 0.10705 0.8286 0.0
C2414 C 0.59058 0.12371 0.83175 0.0
C2415 C 0.54614 0.10081 0.85731 0.0
C2416 C 0.56381 0.10559 0.85226 0.0
C2417 C 0.61469 0.11897 0.83724 0.0
C2418 C 0.5972 0.11434 0.84241 0.0
H2419 H 0.50851 0.06636 0.86829 0.0
H2420 H 0.53696 0.07425 0.85789 0.0
H2421 H 0.56927 0.12656 0.82733 0.0
H2422 H 0.65346 0.15283 0.83749 0.0
H2423 H 0.62478 0.14486 0.84725 0.0
C2424 C 0.86851 0.50847 0.85108 0.0
C2425 C 0.87739 0.52122 0.83301 0.0
C2426 C 0.87315 0.49661 0.8563 0.0
C2427 C 0.90759 0.48756 0.8487 0.0
H2428 H 0.87225 0.44212 0.85922 0.0
C2429 C 0.8977 0.41689 0.85892 0.0
C2430 C 0.9114 0.42055 0.87483 0.0
C2431 C 0.89366 0.42918 0.8531 0.0
C2432 C 0.88228 0.4547 0.85605 0.0
H2433 H 0.89795 0.53131 0.80586 0.0
H2434 H 0.90608 0.51062 0.81488 0.0
H2435 H 0.86537 0.46367 0.85035 0.0
H2436 H 0.93145 0.43999 0.89738 0.0
H2437 H 0.9242 0.46111 0.88778 0.0
H2438 H 0.9245 0.47849 0.85367 0.0
C2439 C 0.89576 0.51002 0.82556 0.0
C2440 C 0.87834 0.46714 0.85135 0.0
C2441 C 0.89117 0.52198 0.82048 0.0
C2442 C 0.92086 0.43671 0.88491 0.0
C2443 C 0.91678 0.44892 0.87923 0.0
C2444 C 0.91153 0.4751 0.85329 0.0
C2445 C 0.88667 0.49704 0.8433 0.0
C2446 C 0.89094 0.48377 0.84782 0.0
C2447 C 0.90318 0.44537 0.86316 0.0
C2448 C 0.89894 0.45852 0.85724 0.0
H2449 H 0.85783 0.50756 0.86104 0.0
H2450 H 0.86606 0.48703 0.87047 0.0
H2451 H 0.91763 0.50021 0.84625 0.0
H2452 H 0.89019 0.4046 0.85075 0.0
H2453 H 0.88321 0.42603 0.84042 0.0
C2454 C 0.4972 0.35995 0.84537 0.0
C2455 C 0.48407 0.35608 0.82808 0.0
C2456 C 0.50912 0.37645 0.85048 0.0
C2457 C 0.51759 0.41979 0.84477 0.0
H2458 H 0.56332 0.43038 0.85336 0.0
C2459 C 0.5878 0.48124 0.85631 0.0
C2460 C 0.58386 0.4906 0.87328 0.0
C2461 C 0.57577 0.46492 0.84972 0.0
C2462 C 0.55066 0.4277 0.85072 0.0
H2463 H 0.47338 0.36657 0.80214 0.0
H2464 H 0.49418 0.39541 0.81101 0.0
H2465 H 0.54192 0.40196 0.84369 0.0
H2466 H 0.56423 0.48995 0.89707 0.0
H2467 H 0.54362 0.46167 0.88612 0.0
H2468 H 0.52639 0.4456 0.85115 0.0
C2469 C 0.49504 0.38567 0.82116 0.0
C2470 C 0.53831 0.41132 0.84555 0.0
C2471 C 0.48302 0.36911 0.81618 0.0
C2472 C 0.56773 0.4832 0.88375 0.0
C2473 C 0.5558 0.46696 0.8773 0.0
C2474 C 0.52995 0.43617 0.84982 0.0
C2475 C 0.50837 0.38955 0.83815 0.0
C2476 C 0.52158 0.40711 0.84279 0.0
C2477 C 0.55958 0.45762 0.86004 0.0
C2478 C 0.54662 0.44032 0.85318 0.0
H2479 H 0.49834 0.35016 0.85484 0.0
H2480 H 0.51897 0.37892 0.86409 0.0
H2481 H 0.50486 0.41704 0.84292 0.0
H2482 H 0.60008 0.48656 0.84785 0.0
H2483 H 0.57909 0.45814 0.8362 0.0
C2484 C 0.55675 0.70038 0.67401 0.0
C2485 C 0.54232 0.69072 0.65931 0.0
C2486 C 0.56204 0.7171 0.67927 0.0
C2487 C 0.54573 0.746 0.68349 0.0
H2488 H 0.592 0.78052 0.67994 0.0
C2489 C 0.56583 0.8155 0.69108 0.0
C2490 C 0.58016 0.82573 0.70565 0.0
C2491 C 0.56157 0.79915 0.68522 0.0
C2492 C 0.57904 0.771 0.6813 0.0
H2493 H 0.52235 0.69114 0.63816 0.0
H2494 H 0.53158 0.72012 0.64715 0.0
H2495 H 0.58421 0.7518 0.67027 0.0
H2496 H 0.60126 0.82671 0.72548 0.0
H2497 H 0.59369 0.79821 0.71557 0.0
H2498 H 0.54051 0.76507 0.69463 0.0
C2499 C 0.53871 0.7148 0.65495 0.0
C2500 C 0.57459 0.75455 0.67576 0.0
C2501 C 0.53346 0.69819 0.64972 0.0
C2502 C 0.59014 0.81922 0.71415 0.0
C2503 C 0.58587 0.80288 0.70832 0.0
C2504 C 0.55017 0.76241 0.68907 0.0
C2505 C 0.55293 0.72442 0.67007 0.0
C2506 C 0.55787 0.74187 0.67662 0.0
C2507 C 0.57152 0.79262 0.69382 0.0
C2508 C 0.56686 0.77514 0.68793 0.0
H2509 H 0.56363 0.69495 0.68227 0.0
H2510 H 0.57296 0.72414 0.69122 0.0
H2511 H 0.53276 0.73649 0.68482 0.0
H2512 H 0.55789 0.82012 0.68414 0.0
H2513 H 0.55054 0.79166 0.6737 0.0
C2514 C 0.30717 0.837 0.64397 0.0
C2515 C 0.31429 0.85324 0.65389 0.0
C2516 C 0.29061 0.82532 0.649 0.0
C2517 C 0.25052 0.82068 0.6692 0.0
H2518 H 0.24033 0.77624 0.68859 0.0
C2519 C 0.18669 0.77247 0.71015 0.0
C2520 C 0.17983 0.75578 0.70252 0.0
C2521 C 0.20292 0.78426 0.7034 0.0
C2522 C 0.2429 0.7885 0.68284 0.0
H2523 H 0.30955 0.86976 0.67741 0.0
H2524 H 0.28046 0.84937 0.68588 0.0
H2525 H 0.26887 0.79721 0.67847 0.0
H2526 H 0.18475 0.73843 0.68167 0.0
H2527 H 0.21313 0.75914 0.66951 0.0
H2528 H 0.22456 0.81198 0.67347 0.0
C2529 C 0.28772 0.84583 0.67382 0.0
C2530 C 0.25928 0.80055 0.6771 0.0
C2531 C 0.30438 0.85756 0.66882 0.0
C2532 C 0.18965 0.75117 0.6879 0.0
C2533 C 0.20594 0.76302 0.68105 0.0
C2534 C 0.23413 0.80862 0.67484 0.0
C2535 C 0.28072 0.82952 0.66417 0.0
C2536 C 0.26328 0.81678 0.67027 0.0
C2537 C 0.21276 0.77972 0.68872 0.0
C2538 C 0.23012 0.79239 0.68184 0.0
H2539 H 0.31443 0.83327 0.63227 0.0
H2540 H 0.28553 0.81296 0.64094 0.0
H2541 H 0.25318 0.83301 0.66364 0.0
H2542 H 0.17956 0.77649 0.72157 0.0
H2543 H 0.20785 0.79691 0.71006 0.0
C2544 C 0.25273 0.44224 0.69936 0.0
C2545 C 0.24745 0.42556 0.70511 0.0
C2546 C 0.24108 0.44717 0.69364 0.0
C2547 C 0.196 0.43292 0.70093 0.0
H2548 H 0.20516 0.46672 0.6492 0.0
C2549 C 0.14579 0.44605 0.65894 0.0
C2550 C 0.15022 0.46283 0.6567 0.0
C2551 C 0.15766 0.44169 0.66599 0.0
C2552 C 0.20249 0.45736 0.66386 0.0
H2553 H 0.22586 0.40087 0.70842 0.0
H2554 H 0.20579 0.40931 0.69771 0.0
H2555 H 0.22606 0.45891 0.65861 0.0
H2556 H 0.17063 0.48818 0.66008 0.0
H2557 H 0.19129 0.48056 0.67206 0.0
H2558 H 0.17226 0.43114 0.70566 0.0
C2559 C 0.2188 0.41875 0.69842 0.0
C2560 C 0.21449 0.45291 0.66932 0.0
C2561 C 0.23037 0.41387 0.70438 0.0
C2562 C 0.16677 0.47513 0.66167 0.0
C2563 C 0.17864 0.47079 0.66844 0.0
C2564 C 0.18395 0.43724 0.69525 0.0
C2565 C 0.22395 0.43548 0.69333 0.0
C2566 C 0.21139 0.44059 0.68787 0.0
C2567 C 0.17425 0.45403 0.67049 0.0
C2568 C 0.18706 0.44949 0.67665 0.0
H2569 H 0.2658 0.45154 0.69988 0.0
H2570 H 0.24551 0.4602 0.69005 0.0
H2571 H 0.19328 0.42364 0.71574 0.0
H2572 H 0.13337 0.43624 0.65429 0.0
H2573 H 0.15399 0.42867 0.66706 0.0
C2574 C 0.36711 0.86806 0.19647 0.0
C2575 C 0.35912 0.87621 0.18605 0.0
C2576 C 0.38375 0.87356 0.19092 0.0
C2577 C 0.41625 0.89728 0.14244 0.0
H2578 H 0.44537 0.89588 0.19508 0.0
C2579 C 0.4862 0.9224 0.1246 0.0
C2580 C 0.49301 0.91288 0.13403 0.0
C2581 C 0.47004 0.9184 0.13118 0.0
C2582 C 0.43735 0.89618 0.1801 0.0
H2583 H 0.3624 0.89643 0.16111 0.0
H2584 H 0.39167 0.90634 0.15193 0.0
H2585 H 0.41718 0.8889 0.20668 0.0
H2586 H 0.48806 0.8916 0.15772 0.0
H2587 H 0.45977 0.88458 0.16916 0.0
H2588 H 0.43645 0.90454 0.11586 0.0
C2589 C 0.38497 0.89563 0.16441 0.0
C2590 C 0.42119 0.89221 0.18675 0.0
C2591 C 0.36824 0.89011 0.17001 0.0
C2592 C 0.48322 0.89921 0.15016 0.0
C2593 C 0.46705 0.89525 0.15684 0.0
C2594 C 0.43243 0.9013 0.13581 0.0
C2595 C 0.39288 0.88734 0.1747 0.0
C2596 C 0.41039 0.89257 0.16795 0.0
C2597 C 0.46028 0.90481 0.14742 0.0
C2598 C 0.44313 0.90069 0.15453 0.0
H2599 H 0.36043 0.85728 0.20884 0.0
H2600 H 0.38932 0.8667 0.19885 0.0
H2601 H 0.4082 0.89743 0.12738 0.0
H2602 H 0.49336 0.93305 0.11216 0.0
H2603 H 0.46528 0.92613 0.12385 0.0
C2604 C 0.13627 0.49914 0.19444 0.0
C2605 C 0.1283 0.48312 0.18355 0.0
C2606 C 0.13144 0.51065 0.18782 0.0
C2607 C 0.097 0.51475 0.161 0.0
H2608 H 0.13162 0.56015 0.1477 0.0
C2609 C 0.08233 0.56443 0.12256 0.0
C2610 C 0.09163 0.58065 0.13252 0.0
C2611 C 0.08669 0.55241 0.12826 0.0
C2612 C 0.12178 0.54759 0.15167 0.0
H2613 H 0.10916 0.46688 0.15645 0.0
H2614 H 0.10045 0.48692 0.14528 0.0
H2615 H 0.13914 0.53926 0.15849 0.0
H2616 H 0.11285 0.59689 0.1564 0.0
H2617 H 0.1203 0.57585 0.16674 0.0
H2618 H 0.07964 0.52312 0.15451 0.0
C2619 C 0.11033 0.49042 0.1593 0.0
C2620 C 0.1261 0.53559 0.15779 0.0
C2621 C 0.11525 0.47887 0.16586 0.0
C2622 C 0.10544 0.58455 0.14832 0.0
C2623 C 0.10977 0.57249 0.15413 0.0
C2624 C 0.09267 0.52678 0.155 0.0
C2625 C 0.11849 0.50649 0.17005 0.0
C2626 C 0.11377 0.51905 0.16266 0.0
C2627 C 0.10044 0.55626 0.14418 0.0
C2628 C 0.10502 0.54338 0.15035 0.0
H2629 H 0.14632 0.50284 0.20822 0.0
H2630 H 0.13781 0.52282 0.19676 0.0
H2631 H 0.08722 0.50216 0.16493 0.0
H2632 H 0.07165 0.56097 0.11021 0.0
H2633 H 0.07938 0.54015 0.1199 0.0
C2634 C 0.43787 0.51559 0.14318 0.0
C2635 C 0.42094 0.51064 0.14123 0.0
C2636 C 0.44966 0.53201 0.14894 0.0
C2637 C 0.4542 0.57173 0.17394 0.0
H2638 H 0.49779 0.59033 0.14226 0.0
C2639 C 0.50252 0.64175 0.17555 0.0
C2640 C 0.51848 0.64604 0.18454 0.0
C2641 C 0.49082 0.62529 0.16982 0.0
C2642 C 0.4857 0.58525 0.15134 0.0
H2643 H 0.40306 0.51905 0.1439 0.0
H2644 H 0.42371 0.54795 0.15298 0.0
H2645 H 0.4767 0.56168 0.13304 0.0
H2646 H 0.53431 0.63596 0.19511 0.0
H2647 H 0.51412 0.60736 0.18378 0.0
H2648 H 0.4632 0.59564 0.19147 0.0
C2649 C 0.42788 0.53904 0.15076 0.0
C2650 C 0.4736 0.56879 0.14621 0.0
C2651 C 0.41602 0.52247 0.14544 0.0
C2652 C 0.52249 0.63339 0.18726 0.0
C2653 C 0.51082 0.61691 0.18109 0.0
C2654 C 0.46622 0.58828 0.17869 0.0
C2655 C 0.4449 0.54406 0.15244 0.0
C2656 C 0.45769 0.56174 0.15757 0.0
C2657 C 0.49481 0.61269 0.17268 0.0
C2658 C 0.4821 0.59516 0.16753 0.0
H2659 H 0.44205 0.50671 0.14036 0.0
H2660 H 0.46252 0.5352 0.15075 0.0
H2661 H 0.44226 0.56674 0.18344 0.0
H2662 H 0.49895 0.65112 0.17323 0.0
H2663 H 0.4786 0.62238 0.16316 0.0
C2664 C 0.14213 0.64485 0.67657 0.0
C2665 C 0.13024 0.64872 0.68595 0.0
C2666 C 0.13788 0.62842 0.67171 0.0
C2667 C 0.10286 0.58708 0.65771 0.0
H2668 H 0.13131 0.57123 0.6851 0.0
C2669 C 0.08269 0.51801 0.65324 0.0
C2670 C 0.09469 0.51355 0.64729 0.0
C2671 C 0.08737 0.53439 0.65923 0.0
C2672 C 0.12334 0.57549 0.677 0.0
H2673 H 0.10456 0.63802 0.69823 0.0
H2674 H 0.09701 0.60942 0.6887 0.0
H2675 H 0.13865 0.60011 0.69194 0.0
H2676 H 0.12108 0.52268 0.64373 0.0
H2677 H 0.12935 0.55158 0.65352 0.0
H2678 H 0.08776 0.56274 0.64219 0.0
C2679 C 0.10961 0.61924 0.6849 0.0
C2680 C 0.12753 0.59202 0.681 0.0
C2681 C 0.11391 0.6357 0.69007 0.0
C2682 C 0.11158 0.52576 0.64835 0.0
C2683 C 0.11628 0.5423 0.65401 0.0
C2684 C 0.09877 0.57064 0.65345 0.0
C2685 C 0.12161 0.61543 0.67597 0.0
C2686 C 0.11727 0.59795 0.67151 0.0
C2687 C 0.10419 0.54687 0.65902 0.0
C2688 C 0.10887 0.56455 0.66323 0.0
H2689 H 0.15485 0.65455 0.67322 0.0
H2690 H 0.14735 0.62588 0.66458 0.0
H2691 H 0.09486 0.59138 0.64985 0.0
H2692 H 0.06958 0.50882 0.65295 0.0
H2693 H 0.07772 0.53728 0.66378 0.0
C2694 C 0.47913 0.58562 0.65987 0.0
C2695 C 0.48866 0.58184 0.643 0.0
C2696 C 0.46294 0.57341 0.66664 0.0
C2697 C 0.43473 0.5275 0.6672 0.0
H2698 H 0.40021 0.53904 0.67388 0.0
C2699 C 0.36448 0.47848 0.67598 0.0
C2700 C 0.35541 0.48182 0.69447 0.0
C2701 C 0.38095 0.49043 0.67019 0.0
C2702 C 0.40975 0.53564 0.67229 0.0
H2703 H 0.48845 0.56227 0.61967 0.0
H2704 H 0.46033 0.5413 0.63093 0.0
H2705 H 0.42843 0.56055 0.66309 0.0
H2706 H 0.35668 0.50034 0.72149 0.0
H2707 H 0.3852 0.52105 0.71131 0.0
H2708 H 0.41591 0.50251 0.67604 0.0
C2709 C 0.46542 0.55352 0.63952 0.0
C2710 C 0.42595 0.54799 0.6662 0.0
C2711 C 0.48156 0.56563 0.63291 0.0
C2712 C 0.36324 0.49734 0.70705 0.0
C2713 C 0.37959 0.50926 0.70117 0.0
C2714 C 0.41849 0.51512 0.67312 0.0
C2715 C 0.45589 0.55718 0.65657 0.0
C2716 C 0.43867 0.54409 0.66357 0.0
C2717 C 0.38861 0.50603 0.68253 0.0
C2718 C 0.40583 0.51907 0.67579 0.0
H2719 H 0.48423 0.59796 0.66804 0.0
H2720 H 0.45604 0.57664 0.68006 0.0
H2721 H 0.44424 0.52406 0.66578 0.0
H2722 H 0.35877 0.46693 0.6653 0.0
H2723 H 0.38754 0.48766 0.65548 0.0
C2724 C 0.41887 0.89697 0.65445 0.0
C2725 C 0.42277 0.91076 0.6386 0.0
C2726 C 0.43109 0.89293 0.66082 0.0
C2727 C 0.45662 0.88153 0.65818 0.0
H2728 H 0.50211 0.91672 0.66887 0.0
C2729 C 0.51053 0.86789 0.66134 0.0
C2730 C 0.52336 0.87663 0.67933 0.0
C2731 C 0.49855 0.87247 0.65679 0.0
C2732 C 0.48946 0.90672 0.6662 0.0
H2733 H 0.44258 0.93101 0.61686 0.0
H2734 H 0.46357 0.92378 0.6274 0.0
H2735 H 0.48043 0.92369 0.66191 0.0
H2736 H 0.53344 0.8968 0.70716 0.0
H2737 H 0.51254 0.90482 0.69933 0.0
H2738 H 0.46558 0.86453 0.66318 0.0
C2739 C 0.45124 0.91628 0.63549 0.0
C2740 C 0.47703 0.91073 0.66188 0.0
C2741 C 0.43912 0.92036 0.62927 0.0
C2742 C 0.52405 0.89016 0.69255 0.0
C2743 C 0.51197 0.89468 0.68816 0.0
C2744 C 0.46904 0.87752 0.66265 0.0
C2745 C 0.44744 0.90254 0.65138 0.0
C2746 C 0.46047 0.89819 0.65752 0.0
C2747 C 0.49895 0.88576 0.67043 0.0
C2748 C 0.48566 0.89006 0.66644 0.0
H2749 H 0.40642 0.88934 0.66201 0.0
H2750 H 0.42775 0.88235 0.67333 0.0
H2751 H 0.44406 0.87154 0.65469 0.0
H2752 H 0.50968 0.85738 0.65089 0.0
H2753 H 0.48894 0.86552 0.64261 0.0
C2754 C 0.18686 0.41808 0.21991 0.0
C2755 C 0.17954 0.42644 0.20788 0.0
C2756 C 0.20312 0.42216 0.21408 0.0
C2757 C 0.2341 0.42613 0.1886 0.0
H2758 H 0.26801 0.47189 0.17654 0.0
C2759 C 0.30065 0.44452 0.15481 0.0
C2760 C 0.31386 0.45953 0.16414 0.0
C2761 C 0.28418 0.44016 0.1601 0.0
C2762 C 0.25875 0.45905 0.18014 0.0
H2763 H 0.1837 0.44573 0.18025 0.0
H2764 H 0.21208 0.45263 0.16954 0.0
H2765 H 0.23971 0.46525 0.18591 0.0
H2766 H 0.32023 0.48156 0.18673 0.0
H2767 H 0.29164 0.47375 0.19678 0.0
H2768 H 0.25325 0.42 0.18384 0.0
C2769 C 0.20528 0.44309 0.18388 0.0
C2770 C 0.24241 0.45521 0.18511 0.0
C2771 C 0.18898 0.43909 0.18992 0.0
C2772 C 0.31029 0.4699 0.1793 0.0
C2773 C 0.29387 0.46549 0.18482 0.0
C2774 C 0.25045 0.42999 0.18384 0.0
C2775 C 0.21254 0.43461 0.19583 0.0
C2776 C 0.22987 0.43871 0.18957 0.0
C2777 C 0.28056 0.4507 0.17493 0.0
C2778 C 0.26304 0.44651 0.17968 0.0
H2779 H 0.18004 0.40837 0.23404 0.0
H2780 H 0.20836 0.41563 0.22417 0.0
H2781 H 0.22475 0.41324 0.19149 0.0
H2782 H 0.30298 0.43651 0.14243 0.0
H2783 H 0.27429 0.42881 0.1518 0.0
C2784 C 0.5553 0.85762 0.17102 0.0
C2785 C 0.54137 0.85383 0.15562 0.0
C2786 C 0.5596 0.84545 0.17629 0.0
C2787 C 0.54142 0.79987 0.1788 0.0
H2788 H 0.5873 0.81021 0.1775 0.0
C2789 C 0.56011 0.74928 0.1906 0.0
C2790 C 0.57419 0.75352 0.20594 0.0
C2791 C 0.55604 0.76138 0.18361 0.0
C2792 C 0.57443 0.80714 0.1782 0.0
H2793 H 0.52114 0.83433 0.13352 0.0
H2794 H 0.52864 0.81328 0.14259 0.0
H2795 H 0.58063 0.83182 0.1673 0.0
H2796 H 0.59488 0.77384 0.22623 0.0
H2797 H 0.58765 0.79466 0.21445 0.0
H2798 H 0.53522 0.77524 0.18993 0.0
C2799 C 0.53616 0.82555 0.15083 0.0
C2800 C 0.57062 0.81955 0.17236 0.0
C2801 C 0.53191 0.83767 0.14556 0.0
C2802 C 0.584 0.77009 0.21424 0.0
C2803 C 0.57993 0.78211 0.20732 0.0
C2804 C 0.54523 0.78747 0.18471 0.0
C2805 C 0.54998 0.82923 0.16642 0.0
C2806 C 0.55408 0.81607 0.17264 0.0
C2807 C 0.56596 0.77797 0.19183 0.0
C2808 C 0.56179 0.79097 0.18459 0.0
H2809 H 0.56259 0.86975 0.17972 0.0
H2810 H 0.57018 0.84862 0.18868 0.0
H2811 H 0.52856 0.79683 0.17954 0.0
H2812 H 0.55231 0.73665 0.18386 0.0
H2813 H 0.54526 0.7578 0.17147 0.0
C2814 C 0.1651 0.69142 0.16959 0.0
C2815 C 0.14936 0.68757 0.16013 0.0
C2816 C 0.17725 0.70783 0.17474 0.0
C2817 C 0.18387 0.7489 0.19039 0.0
H2818 H 0.22746 0.76523 0.15985 0.0
C2819 C 0.23354 0.81804 0.19651 0.0
C2820 C 0.25024 0.82236 0.19963 0.0
C2821 C 0.2214 0.80172 0.19087 0.0
C2822 C 0.21547 0.76085 0.16889 0.0
H2823 H 0.13442 0.69837 0.1481 0.0
H2824 H 0.15536 0.72688 0.15838 0.0
H2825 H 0.20581 0.73646 0.15283 0.0
H2826 H 0.26736 0.81296 0.19899 0.0
H2827 H 0.24608 0.78425 0.19008 0.0
H2828 H 0.1935 0.77297 0.20723 0.0
C2829 C 0.15814 0.71704 0.16191 0.0
C2830 C 0.20304 0.74437 0.16474 0.0
C2831 C 0.14603 0.70061 0.15634 0.0
C2832 C 0.2546 0.81002 0.19653 0.0
C2833 C 0.24237 0.79357 0.19132 0.0
C2834 C 0.19636 0.76529 0.19491 0.0
C2835 C 0.17394 0.72081 0.1708 0.0
C2836 C 0.18711 0.73827 0.17536 0.0
C2837 C 0.22556 0.78916 0.18868 0.0
C2838 C 0.21233 0.77156 0.18409 0.0
H2839 H 0.16816 0.68174 0.17272 0.0
H2840 H 0.18928 0.71038 0.1818 0.0
H2841 H 0.17174 0.74444 0.19905 0.0
H2842 H 0.2298 0.82731 0.19847 0.0
H2843 H 0.20873 0.799 0.18826 0.0
C2844 C 0.22765 0.20679 0.16073 0.0
C2845 C 0.24194 0.21912 0.14822 0.0
C2846 C 0.22393 0.20924 0.18616 0.0
C2847 C 0.234 0.24214 0.23556 0.0
H2848 H 0.21932 0.20595 0.28489 0.0
C2849 C 0.23421 0.25342 0.34526 0.0
C2850 C 0.22024 0.24211 0.35955 0.0
C2851 C 0.23643 0.24991 0.31969 0.0
C2852 C 0.22325 0.21613 0.27131 0.0
H2853 H 0.26337 0.2437 0.152 0.0
H2854 H 0.25704 0.24802 0.19633 0.0
H2855 H 0.22331 0.20138 0.23939 0.0
H2856 H 0.19788 0.21802 0.35876 0.0
H2857 H 0.20174 0.21173 0.31392 0.0
H2858 H 0.2341 0.25693 0.26742 0.0
C2859 C 0.24854 0.23653 0.1866 0.0
C2860 C 0.2255 0.21351 0.24519 0.0
C2861 C 0.25223 0.23406 0.16126 0.0
C2862 C 0.20883 0.22688 0.34816 0.0
C2863 C 0.21105 0.22332 0.32251 0.0
C2864 C 0.23179 0.24477 0.26162 0.0
C2865 C 0.23443 0.22409 0.19952 0.0
C2866 C 0.23107 0.22654 0.22702 0.0
C2867 C 0.22471 0.23496 0.30778 0.0
C2868 C 0.22656 0.23186 0.2799 0.0
H2869 H 0.21962 0.19509 0.15111 0.0
H2870 H 0.21288 0.19948 0.19539 0.0
H2871 H 0.23799 0.25237 0.22206 0.0
H2872 H 0.24326 0.26519 0.35374 0.0
H2873 H 0.24727 0.25899 0.30914 0.0
C2874 C 0.79508 0.01757 0.15928 0.0
C2875 C 0.78707 0.02596 0.15004 0.0
C2876 C 0.79192 0.01083 0.18439 0.0
C2877 C 0.76328 0.00224 0.24186 0.0
H2878 H 0.79684 0.99645 0.27695 0.0
C2879 C 0.75028 0.97242 0.34352 0.0
C2880 C 0.76346 0.97555 0.36023 0.0
C2881 C 0.75326 0.97831 0.31802 0.0
C2882 C 0.78739 0.99827 0.26783 0.0
H2883 H 0.7692 0.03355 0.15982 0.0
H2884 H 0.76493 0.02349 0.20391 0.0
H2885 H 0.80194 0.00741 0.23338 0.0
H2886 H 0.79025 0.98778 0.36328 0.0
H2887 H 0.79561 0.99957 0.31984 0.0
H2888 H 0.74943 0.99469 0.27695 0.0
C2889 C 0.77308 0.02122 0.19178 0.0
C2890 C 0.79017 0.00424 0.24227 0.0
C2891 C 0.77579 0.02738 0.16644 0.0
C2892 C 0.77978 0.9853 0.35106 0.0
C2893 C 0.78283 0.99176 0.32576 0.0
C2894 C 0.76078 0.99688 0.26767 0.0
C2895 C 0.78104 0.01276 0.20131 0.0
C2896 C 0.77812 0.00625 0.22871 0.0
C2897 C 0.76959 0.9882 0.3086 0.0
C2898 C 0.77268 0.99458 0.28113 0.0
H2899 H 0.80403 0.01644 0.14727 0.0
H2900 H 0.79809 0.00414 0.19039 0.0
H2901 H 0.75337 0.0031 0.23235 0.0
H2902 H 0.73753 0.96521 0.35005 0.0
H2903 H 0.74258 0.97477 0.30571 0.0
C2904 C 0.02165 0.79826 0.34874 0.0
C2905 C 0.02641 0.78749 0.35987 0.0
C2906 C 0.01515 0.79546 0.32349 0.0
C2907 C 0.99498 0.76284 0.27339 0.0
H2908 H 0.01189 0.79967 0.22495 0.0
C2909 C 0.98026 0.75179 0.1641 0.0
C2910 C 0.97736 0.76314 0.1504 0.0
C2911 C 0.98635 0.75519 0.18953 0.0
C2912 C 0.00684 0.78926 0.23827 0.0
H2913 H 0.02784 0.76523 0.35377 0.0
H2914 H 0.01637 0.7602 0.30982 0.0
H2915 H 0.02154 0.80459 0.26988 0.0
H2916 H 0.97849 0.7869 0.15238 0.0
H2917 H 0.98892 0.79285 0.19703 0.0
H2918 H 0.98014 0.74751 0.24208 0.0
C2919 C 0.0176 0.7708 0.32049 0.0
C2920 C 0.0124 0.7921 0.26406 0.0
C2921 C 0.02424 0.7737 0.34558 0.0
C2922 C 0.98085 0.77807 0.16246 0.0
C2923 C 0.98684 0.78145 0.18803 0.0
C2924 C 0.98933 0.76002 0.2477 0.0
C2925 C 0.01312 0.78172 0.30901 0.0
C2926 C 0.00665 0.77889 0.28188 0.0
C2927 C 0.98951 0.76996 0.20204 0.0
C2928 C 0.99529 0.77315 0.22966 0.0
H2929 H 0.02333 0.80906 0.35933 0.0
H2930 H 0.01169 0.80403 0.31531 0.0
H2931 H 0.9901 0.75243 0.28671 0.0
H2932 H 0.9777 0.74021 0.15515 0.0
H2933 H 0.98857 0.74619 0.19936 0.0
C2934 C 0.74639 0.77148 0.8473 0.0
C2935 C 0.75926 0.78215 0.86402 0.0
C2936 C 0.7498 0.76846 0.82212 0.0
C2937 C 0.78445 0.78382 0.77277 0.0
H2938 H 0.75172 0.74438 0.73687 0.0
C2939 C 0.79311 0.77359 0.6641 0.0
C2940 C 0.78561 0.7573 0.65446 0.0
C2941 C 0.78975 0.7767 0.68938 0.0
C2942 C 0.76129 0.75533 0.74651 0.0
H2943 H 0.78596 0.7975 0.86765 0.0
H2944 H 0.79211 0.79094 0.82487 0.0
H2945 H 0.74722 0.74841 0.78142 0.0
H2946 H 0.76847 0.73152 0.66373 0.0
H2947 H 0.76399 0.73657 0.70811 0.0
H2948 H 0.79926 0.7899 0.73854 0.0
C2949 C 0.77922 0.78558 0.83044 0.0
C2950 C 0.75845 0.75791 0.77228 0.0
C2951 C 0.77573 0.78909 0.85537 0.0
C2952 C 0.77471 0.74422 0.67066 0.0
C2953 C 0.77184 0.74722 0.69617 0.0
C2954 C 0.78759 0.78092 0.74726 0.0
C2955 C 0.76629 0.77544 0.81313 0.0
C2956 C 0.76984 0.77232 0.78584 0.0
C2957 C 0.77923 0.76354 0.70606 0.0
C2958 C 0.776 0.76668 0.73352 0.0
H2959 H 0.73356 0.76564 0.85351 0.0
H2960 H 0.73933 0.76089 0.80969 0.0
H2961 H 0.79351 0.79526 0.78198 0.0
H2962 H 0.80175 0.78396 0.65226 0.0
H2963 H 0.79547 0.78949 0.69564 0.0
C2964 C 0.22652 0.02371 0.66445 0.0
C2965 C 0.24195 0.02814 0.65323 0.0
C2966 C 0.22279 0.01732 0.68978 0.0
C2967 C 0.23515 0.99701 0.73988 0.0
H2968 H 0.2154 0.01401 0.78846 0.0
C2969 C 0.23235 0.98286 0.8491 0.0
C2970 C 0.21797 0.9795 0.86282 0.0
C2971 C 0.23489 0.98902 0.82374 0.0
C2972 C 0.22072 0.00895 0.77509 0.0
H2973 H 0.26551 0.02927 0.65937 0.0
H2974 H 0.25906 0.01806 0.70342 0.0
H2975 H 0.21996 0.02356 0.74342 0.0
H2976 H 0.19501 0.98004 0.86107 0.0
H2977 H 0.1993 0.99071 0.81654 0.0
H2978 H 0.23583 0.98232 0.77127 0.0
C2979 C 0.24975 0.01939 0.69274 0.0
C2980 C 0.22334 0.01444 0.74925 0.0
C2981 C 0.2535 0.02588 0.66759 0.0
C2982 C 0.2063 0.98275 0.85095 0.0
C2983 C 0.20879 0.98886 0.82546 0.0
C2984 C 0.23246 0.99146 0.76562 0.0
C2985 C 0.2344 0.01512 0.70426 0.0
C2986 C 0.23075 0.00866 0.7314 0.0
C2987 C 0.22303 0.99185 0.81136 0.0
C2988 C 0.22539 0.99749 0.7837 0.0
H2989 H 0.21749 0.02553 0.65385 0.0
H2990 H 0.21082 0.01405 0.698 0.0
H2991 H 0.24061 0.99208 0.72655 0.0
H2992 H 0.24153 0.98047 0.85791 0.0
H2993 H 0.24617 0.99151 0.81381 0.0
C2994 C 0.02778 0.25361 0.84448 0.0
C2995 C 0.02929 0.24181 0.85941 0.0
C2996 C 0.02223 0.25017 0.81882 0.0
C2997 C 1.00016 0.21609 0.77125 0.0
H2998 H 0.02239 0.2518 0.72131 0.0
C2999 C 0.98548 0.20658 0.66091 0.0
C3000 C 0.98356 0.21901 0.6487 0.0
C3001 C 0.99196 0.20899 0.68613 0.0
C3002 C 0.01596 0.24172 0.73501 0.0
H3003 H 0.02608 0.2171 0.85941 0.0
H3004 H 0.0163 0.21097 0.81437 0.0
H3005 H 0.03129 0.25639 0.76647 0.0
H3006 H 0.98709 0.24372 0.65276 0.0
H3007 H 0.99842 0.24801 0.69669 0.0
H3008 H 0.98477 0.20146 0.73967 0.0
C3009 C 0.01922 0.22284 0.8226 0.0
C3010 C 0.02104 0.24436 0.76096 0.0
C3011 C 0.02478 0.22631 0.84838 0.0
C3012 C 0.98858 0.23401 0.66179 0.0
C3013 C 0.99511 0.23646 0.68688 0.0
C3014 C 0.99508 0.21344 0.74522 0.0
C3015 C 0.01813 0.23485 0.80737 0.0
C3016 C 0.01307 0.23166 0.77952 0.0
C3017 C 0.9967 0.22391 0.69953 0.0
C3018 C 0.0028 0.2263 0.72684 0.0
H3019 H 0.0311 0.26562 0.85262 0.0
H3020 H 0.02122 0.25958 0.8079 0.0
H3021 H 0.99365 0.20608 0.78503 0.0
H3022 H 0.98153 0.19485 0.65123 0.0
H3023 H 0.99316 0.19913 0.6952 0.0
C3024 C 0.89436 0.53707 0.49762 0.0
C3025 C 0.90977 0.54805 0.48626 0.0
C3026 C 0.89101 0.53935 0.52337 0.0
C3027 C 0.9126 0.55994 0.58465 0.0
H3028 H 0.86941 0.55265 0.60564 0.0
C3029 C 0.90158 0.58174 0.68385 0.0
C3030 C 0.88657 0.57157 0.69683 0.0
C3031 C 0.90418 0.57781 0.65872 0.0
C3032 C 0.88148 0.55452 0.60019 0.0
H3033 H 0.93357 0.57018 0.49254 0.0
H3034 H 0.92773 0.57435 0.53724 0.0
H3035 H 0.87414 0.54817 0.56048 0.0
H3036 H 0.86253 0.54927 0.69402 0.0
H3037 H 0.86709 0.54218 0.65006 0.0
H3038 H 0.92 0.56643 0.62425 0.0
C3039 C 0.9183 0.56379 0.52658 0.0
C3040 C 0.8842 0.55197 0.57425 0.0
C3041 C 0.92163 0.56149 0.50092 0.0
C3042 C 0.87428 0.55721 0.68444 0.0
C3043 C 0.87684 0.55328 0.65921 0.0
C3044 C 0.90989 0.56251 0.61052 0.0
C3045 C 0.90303 0.55264 0.5383 0.0
C3046 C 0.89985 0.55481 0.56607 0.0
C3047 C 0.89178 0.56362 0.64592 0.0
C3048 C 0.89434 0.55998 0.61862 0.0
H3049 H 0.88511 0.52647 0.48683 0.0
H3050 H 0.87919 0.53043 0.53179 0.0
H3051 H 0.92471 0.5619 0.57924 0.0
H3052 H 0.9112 0.59294 0.693 0.0
H3053 H 0.91574 0.58617 0.64903 0.0
C3054 C 0.44299 0.35649 0.49628 0.0
C3055 C 0.45716 0.35919 0.48255 0.0
C3056 C 0.44036 0.35061 0.52181 0.0
C3057 C 0.45303 0.32977 0.57072 0.0
H3058 H 0.43618 0.34967 0.61929 0.0
C3059 C 0.44717 0.31525 0.68112 0.0
C3060 C 0.43239 0.31246 0.69296 0.0
C3061 C 0.45108 0.32159 0.65581 0.0
C3062 C 0.44076 0.34387 0.60596 0.0
H3063 H 0.47961 0.35769 0.48444 0.0
H3064 H 0.47508 0.34735 0.52921 0.0
H3065 H 0.44095 0.35881 0.57424 0.0
H3066 H 0.41026 0.31429 0.68805 0.0
H3067 H 0.41698 0.32529 0.6439 0.0
H3068 H 0.45278 0.31479 0.60256 0.0
C3069 C 0.46587 0.3496 0.52018 0.0
C3070 C 0.44347 0.34909 0.58007 0.0
C3071 C 0.46848 0.35549 0.49456 0.0
C3072 C 0.42176 0.31641 0.67931 0.0
C3073 C 0.42567 0.32278 0.6541 0.0
C3074 C 0.45033 0.32455 0.59668 0.0
C3075 C 0.4519 0.34734 0.53427 0.0
C3076 C 0.44948 0.342 0.56202 0.0
C3077 C 0.44031 0.32531 0.6419 0.0
C3078 C 0.44402 0.33143 0.61458 0.0
H3079 H 0.43405 0.35919 0.48735 0.0
H3080 H 0.4293 0.3487 0.53183 0.0
H3081 H 0.45753 0.32392 0.55733 0.0
H3082 H 0.45548 0.31215 0.69123 0.0
H3083 H 0.46253 0.32354 0.64711 0.0
C3084 C 0.6883 0.10269 0.67896 0.0
C3085 C 0.69156 0.11698 0.69285 0.0
C3086 C 0.68235 0.10032 0.65349 0.0
C3087 C 0.66282 0.11487 0.60475 0.0
H3088 H 0.68044 0.09578 0.55604 0.0
C3089 C 0.64923 0.11066 0.49401 0.0
C3090 C 0.64492 0.0954 0.48229 0.0
C3091 C 0.65549 0.11406 0.51942 0.0
C3092 C 0.6753 0.10102 0.56942 0.0
H3093 H 0.69088 0.13987 0.69138 0.0
H3094 H 0.6806 0.13591 0.64666 0.0
H3095 H 0.68961 0.09995 0.60107 0.0
H3096 H 0.64392 0.07183 0.48754 0.0
H3097 H 0.6549 0.07772 0.53175 0.0
H3098 H 0.64858 0.11601 0.57287 0.0
C3099 C 0.68242 0.12637 0.65549 0.0
C3100 C 0.68052 0.10336 0.59532 0.0
C3101 C 0.68831 0.12867 0.68109 0.0
C3102 C 0.64725 0.08373 0.49616 0.0
C3103 C 0.65359 0.08714 0.52142 0.0
C3104 C 0.65766 0.1126 0.57876 0.0
C3105 C 0.6796 0.11227 0.6412 0.0
C3106 C 0.67423 0.11016 0.61344 0.0
C3107 C 0.65765 0.10228 0.53349 0.0
C3108 C 0.66373 0.10551 0.56083 0.0
H3109 H 0.69061 0.09344 0.68774 0.0
H3110 H 0.67997 0.08914 0.64338 0.0
H3111 H 0.65756 0.11997 0.61815 0.0
H3112 H 0.64737 0.11977 0.48377 0.0
H3113 H 0.65861 0.12588 0.52806 0.0
C3114 C 0.44262 0.1242 0.18312 0.0
C3115 C 0.42623 0.11654 0.19242 0.0
C3116 C 0.44602 0.12093 0.15796 0.0
C3117 C 0.42519 0.0927 0.10025 0.0
H3118 H 0.46544 0.12512 0.0657 0.0
C3119 C 0.44107 0.07887 0.99848 0.0
C3120 C 0.45192 0.09187 0.98212 0.0
C3121 C 0.43826 0.08198 0.02395 0.0
C3122 C 0.45391 0.116 0.07463 0.0
H3123 H 0.4006 0.09917 0.18268 0.0
H3124 H 0.40611 0.09485 0.13851 0.0
H3125 H 0.45981 0.13051 0.10916 0.0
H3126 H 0.46801 0.11853 0.97963 0.0
H3127 H 0.46176 0.12425 0.0229 0.0
H3128 H 0.41841 0.079 0.06503 0.0
C3129 C 0.41664 0.10275 0.15061 0.0
C3130 C 0.45085 0.11894 0.10018 0.0
C3131 C 0.41336 0.10552 0.17602 0.0
C3132 C 0.45939 0.10821 0.99158 0.0
C3133 C 0.45606 0.11143 0.01681 0.0
C3134 C 0.42792 0.0901 0.07443 0.0
C3135 C 0.43305 0.11033 0.14103 0.0
C3136 C 0.43646 0.10728 0.11359 0.0
C3137 C 0.44561 0.09833 0.03367 0.0
C3138 C 0.44244 0.10157 0.06115 0.0
H3139 H 0.45283 0.13295 0.1951 0.0
H3140 H 0.45887 0.1268 0.15197 0.0
H3141 H 0.41415 0.08306 0.10959 0.0
H3142 H 0.43486 0.06614 0.9917 0.0
H3143 H 0.43048 0.07136 0.03599 0.0
C3144 C 0.90021 0.31639 0.1811 0.0
C3145 C 0.88532 0.31196 0.19414 0.0
C3146 C 0.90273 0.32244 0.15568 0.0
C3147 C 0.87981 0.32241 0.09696 0.0
H3148 H 0.92334 0.35698 0.07449 0.0
C3149 C 0.89321 0.3521 0.99374 0.0
C3150 C 0.90841 0.35585 0.98233 0.0
C3151 C 0.88967 0.3464 0.01944 0.0
C3152 C 0.91115 0.34718 0.08035 0.0
H3153 H 0.86141 0.3105 0.19113 0.0
H3154 H 0.86587 0.3214 0.14669 0.0
H3155 H 0.91876 0.34868 0.11993 0.0
H3156 H 0.93148 0.3559 0.98816 0.0
H3157 H 0.92531 0.34582 0.03285 0.0
H3158 H 0.87225 0.32094 0.05725 0.0
C3159 C 0.87557 0.32004 0.156 0.0
C3160 C 0.90851 0.34244 0.10646 0.0
C3161 C 0.87308 0.314 0.18151 0.0
C3162 C 0.91973 0.35322 0.99665 0.0
C3163 C 0.91623 0.34757 0.02228 0.0
C3164 C 0.88245 0.32719 0.07079 0.0
C3165 C 0.89038 0.32419 0.14266 0.0
C3166 C 0.89286 0.32987 0.11509 0.0
C3167 C 0.9013 0.34439 0.0342 0.0
C3168 C 0.89821 0.33951 0.06211 0.0
H3169 H 0.90979 0.31484 0.19045 0.0
H3170 H 0.91418 0.32527 0.14597 0.0
H3171 H 0.86765 0.31255 0.10283 0.0
H3172 H 0.88435 0.35416 0.98312 0.0
H3173 H 0.8781 0.34416 0.02804 0.0
C3174 C 0.65759 0.54748 0.99029 0.0
C3175 C 0.64819 0.55458 0.9817 0.0
C3176 C 0.66472 0.55102 0.01513 0.0
C3177 C 0.67278 0.57933 0.0727 0.0
H3178 H 0.68009 0.54661 0.1074 0.0
C3179 C 0.70304 0.59299 0.17411 0.0
C3180 C 0.69988 0.57986 0.19095 0.0
C3181 C 0.69727 0.58994 0.14853 0.0
C3182 C 0.67786 0.55582 0.09836 0.0
H3183 H 0.6394 0.57141 0.9922 0.0
H3184 H 0.65031 0.57635 0.03585 0.0
H3185 H 0.66885 0.54122 0.06393 0.0
H3186 H 0.68793 0.55309 0.19403 0.0
H3187 H 0.67643 0.5476 0.1504 0.0
H3188 H 0.68028 0.59325 0.10776 0.0
C3189 C 0.65293 0.56857 0.02343 0.0
C3190 C 0.67172 0.55287 0.07289 0.0
C3191 C 0.6463 0.56546 0.99837 0.0
C3192 C 0.69038 0.56351 0.18173 0.0
C3193 C 0.68409 0.5604 0.15634 0.0
C3194 C 0.67836 0.58202 0.0984 0.0
C3195 C 0.66227 0.56141 0.03236 0.0
C3196 C 0.66911 0.56461 0.05953 0.0
C3197 C 0.68756 0.57358 0.13915 0.0
C3198 C 0.68115 0.5704 0.11171 0.0
H3199 H 0.65917 0.53892 0.97802 0.0
H3200 H 0.67211 0.5455 0.02072 0.0
H3201 H 0.67143 0.58898 0.06328 0.0
H3202 H 0.71007 0.60574 0.18064 0.0
H3203 H 0.70071 0.60056 0.13614 0.0
C3204 C 0.541 0.8925 0.01373 0.0
C3205 C 0.55296 0.90731 0.02555 0.0
C3206 C 0.54311 0.88896 0.98801 0.0
C3207 C 0.56467 0.91044 0.9278 0.0
H3208 H 0.55475 0.86682 0.90433 0.0
C3209 C 0.58503 0.90007 0.82726 0.0
C3210 C 0.57458 0.88536 0.81379 0.0
C3211 C 0.58125 0.90239 0.85262 0.0
C3212 C 0.55733 0.87902 0.91046 0.0
H3213 H 0.57671 0.92969 0.02041 0.0
H3214 H 0.58051 0.92352 0.97567 0.0
H3215 H 0.55072 0.87111 0.94996 0.0
H3216 H 0.55191 0.86159 0.81595 0.0
H3217 H 0.545 0.86573 0.86025 0.0
H3218 H 0.57125 0.91841 0.88847 0.0
C3219 C 0.56939 0.91473 0.98597 0.0
C3220 C 0.55507 0.88148 0.93666 0.0
C3221 C 0.5673 0.91822 0.01162 0.0
C3222 C 0.56006 0.87312 0.8259 0.0
C3223 C 0.55624 0.87542 0.85134 0.0
C3224 C 0.56687 0.90798 0.90166 0.0
C3225 C 0.55717 0.90023 0.97365 0.0
C3226 C 0.55894 0.89729 0.94569 0.0
C3227 C 0.5669 0.89003 0.86514 0.0
C3228 C 0.56344 0.8923 0.89268 0.0
H3229 H 0.52974 0.884 0.02403 0.0
H3230 H 0.53344 0.87772 0.97907 0.0
H3231 H 0.56741 0.92269 0.93397 0.0
H3232 H 0.59634 0.90965 0.81832 0.0
H3233 H 0.58988 0.91368 0.86268 0.0
C3234 C 0.11049 0.65002 0.01488 0.0
C3235 C 0.09562 0.64694 0.02676 0.0
C3236 C 0.11438 0.65658 0.98969 0.0
C3237 C 0.10432 0.67938 0.94069 0.0
H3238 H 0.11973 0.65882 0.89088 0.0
C3239 C 0.10639 0.69318 0.83136 0.0
C3240 C 0.11992 0.69483 0.81688 0.0
C3241 C 0.10385 0.68728 0.85688 0.0
C3242 C 0.11565 0.66487 0.90458 0.0
H3243 H 0.07339 0.64862 0.02216 0.0
H3244 H 0.08017 0.66018 0.97829 0.0
H3245 H 0.11522 0.64952 0.93601 0.0
H3246 H 0.1413 0.69144 0.81746 0.0
H3247 H 0.13702 0.68125 0.86225 0.0
H3248 H 0.10482 0.69479 0.90949 0.0
C3249 C 0.08888 0.6576 0.98832 0.0
C3250 C 0.11306 0.65953 0.93048 0.0
C3251 C 0.08495 0.65094 0.01337 0.0
C3252 C 0.13068 0.69012 0.82818 0.0
C3253 C 0.1282 0.68428 0.85382 0.0
C3254 C 0.10699 0.68478 0.91488 0.0
C3255 C 0.10355 0.66032 0.97601 0.0
C3256 C 0.1072 0.66661 0.9488 0.0
C3257 C 0.11485 0.68299 0.86865 0.0
C3258 C 0.11252 0.67749 0.89636 0.0
H3259 H 0.11885 0.64693 0.02481 0.0
H3260 H 0.12585 0.65867 0.98087 0.0
H3261 H 0.10006 0.68529 0.95437 0.0
H3262 H 0.09785 0.69662 0.82297 0.0
H3263 H 0.09323 0.68611 0.86739 0.0
C3264 C 0.31522 0.43972 0.83007 0.0
C3265 C 0.30609 0.42338 0.82072 0.0
C3266 C 0.32173 0.44289 0.85531 0.0
C3267 C 0.32827 0.42152 0.91292 0.0
H3268 H 0.33746 0.46224 0.94729 0.0
C3269 C 0.35986 0.43791 0.01327 0.0
C3270 C 0.35806 0.44892 0.02977 0.0
C3271 C 0.3534 0.43488 0.98812 0.0
C3272 C 0.33467 0.45059 0.9384 0.0
H3273 H 0.29678 0.39756 0.83052 0.0
H3274 H 0.30637 0.40276 0.8749 0.0
H3275 H 0.32603 0.45666 0.90408 0.0
H3276 H 0.34757 0.46503 0.03296 0.0
H3277 H 0.33475 0.45847 0.99025 0.0
H3278 H 0.33531 0.41465 0.94799 0.0
C3279 C 0.30943 0.41339 0.86272 0.0
C3280 C 0.32843 0.44754 0.91301 0.0
C3281 C 0.30353 0.4103 0.83723 0.0
C3282 C 0.34901 0.45631 0.02086 0.0
C3283 C 0.34197 0.4528 0.99597 0.0
C3284 C 0.33387 0.42426 0.9386 0.0
C3285 C 0.31877 0.42975 0.87227 0.0
C3286 C 0.32526 0.43301 0.89966 0.0
C3287 C 0.34426 0.44221 0.97894 0.0
C3288 C 0.33743 0.43896 0.95176 0.0
H3289 H 0.31723 0.45009 0.81801 0.0
H3290 H 0.32911 0.45571 0.8613 0.0
H3291 H 0.32647 0.41032 0.90359 0.0
H3292 H 0.36652 0.43177 0.01967 0.0
H3293 H 0.35595 0.42699 0.97587 0.0
C3294 C 0.07884 0.44664 0.50775 0.0
C3295 C 0.09198 0.45556 0.52516 0.0
C3296 C 0.08189 0.444 0.48213 0.0
C3297 C 0.11649 0.45708 0.43314 0.0
H3298 H 0.08185 0.41956 0.39596 0.0
C3299 C 0.1252 0.44577 0.32492 0.0
C3300 C 0.11697 0.42939 0.31559 0.0
C3301 C 0.12176 0.44943 0.34979 0.0
C3302 C 0.0919 0.42995 0.40597 0.0
H3303 H 0.11876 0.46842 0.52921 0.0
H3304 H 0.12408 0.46244 0.48552 0.0
H3305 H 0.07747 0.42392 0.44048 0.0
H3306 H 0.09841 0.40406 0.32485 0.0
H3307 H 0.09349 0.40998 0.36855 0.0
H3308 H 0.13149 0.46217 0.39926 0.0
C3309 C 0.11135 0.45816 0.49104 0.0
C3310 C 0.08918 0.43274 0.4317 0.0
C3311 C 0.10829 0.46131 0.51647 0.0
C3312 C 0.10514 0.4168 0.33157 0.0
C3313 C 0.10209 0.42032 0.35666 0.0
C3314 C 0.11943 0.45394 0.40764 0.0
C3315 C 0.09819 0.44959 0.47327 0.0
C3316 C 0.10136 0.44644 0.44577 0.0
C3317 C 0.11033 0.43671 0.36632 0.0
C3318 C 0.10716 0.44033 0.39353 0.0
H3319 H 0.06608 0.44167 0.51385 0.0
H3320 H 0.07131 0.43769 0.46932 0.0
H3321 H 0.12617 0.46798 0.44277 0.0
H3322 H 0.13455 0.45575 0.31321 0.0
H3323 H 0.12817 0.46227 0.35594 0.0
C3324 C 0.58324 0.68884 0.33346 0.0
C3325 C 0.57157 0.69073 0.31882 0.0
C3326 C 0.57951 0.68246 0.35869 0.0
C3327 C 0.55269 0.67754 0.41461 0.0
H3328 H 0.56639 0.64674 0.43878 0.0
C3329 C 0.53594 0.64723 0.51727 0.0
C3330 C 0.54781 0.64455 0.52974 0.0
C3331 C 0.53843 0.653 0.49158 0.0
C3332 C 0.56267 0.65552 0.43252 0.0
H3333 H 0.54678 0.68733 0.31885 0.0
H3334 H 0.54013 0.67605 0.36311 0.0
H3335 H 0.57106 0.65581 0.3937 0.0
H3336 H 0.57175 0.64622 0.52571 0.0
H3337 H 0.57638 0.65669 0.48124 0.0
H3338 H 0.54452 0.67744 0.45355 0.0
C3339 C 0.55223 0.67958 0.3551 0.0
C3340 C 0.5653 0.66067 0.40658 0.0
C3341 C 0.55594 0.68586 0.32972 0.0
C3342 C 0.5624 0.64817 0.51643 0.0
C3343 C 0.56495 0.65401 0.49087 0.0
C3344 C 0.55013 0.67245 0.44065 0.0
C3345 C 0.56403 0.67791 0.36997 0.0
C3346 C 0.56045 0.67183 0.39731 0.0
C3347 C 0.55287 0.65623 0.47788 0.0
C3348 C 0.55522 0.66147 0.45003 0.0
H3349 H 0.59539 0.69253 0.32546 0.0
H3350 H 0.58895 0.68151 0.36963 0.0
H3351 H 0.54898 0.6863 0.4082 0.0
H3352 H 0.52449 0.64431 0.52708 0.0
H3353 H 0.52877 0.6544 0.48221 0.0
C3354 C 0.3155 0.87 0.32708 0.0
C3355 C 0.31147 0.88113 0.31527 0.0
C3356 C 0.32185 0.87283 0.35242 0.0
C3357 C 0.34256 0.90593 0.4019 0.0
H3358 H 0.32516 0.86942 0.45099 0.0
C3359 C 0.35683 0.91752 0.51119 0.0
C3360 C 0.35999 0.90639 0.52501 0.0
C3361 C 0.35072 0.91395 0.4858 0.0
C3362 C 0.33033 0.87973 0.43749 0.0
H3363 H 0.31103 0.90399 0.32039 0.0
H3364 H 0.32212 0.90903 0.36455 0.0
H3365 H 0.31556 0.86429 0.40603 0.0
H3366 H 0.3592 0.88277 0.52331 0.0
H3367 H 0.34858 0.87646 0.47876 0.0
H3368 H 0.3574 0.92137 0.43314 0.0
C3369 C 0.32053 0.89816 0.35429 0.0
C3370 C 0.32481 0.87678 0.41167 0.0
C3371 C 0.3141 0.89526 0.32907 0.0
C3372 C 0.35664 0.89144 0.51314 0.0
C3373 C 0.35056 0.88786 0.48764 0.0
C3374 C 0.34813 0.90886 0.42763 0.0
C3375 C 0.32438 0.88694 0.3664 0.0
C3376 C 0.33076 0.88987 0.3936 0.0
C3377 C 0.34771 0.89918 0.47349 0.0
C3378 C 0.34199 0.89585 0.44588 0.0
H3379 H 0.31342 0.85893 0.31689 0.0
H3380 H 0.32481 0.86401 0.36107 0.0
H3381 H 0.34763 0.91625 0.38842 0.0
H3382 H 0.35928 0.92911 0.51999 0.0
H3383 H 0.34836 0.92281 0.47581 0.0
C3384 C 0.30681 0.24764 0.00642 0.0
C3385 C 0.28955 0.23821 1.00224 0.0
C3386 C 0.31771 0.25588 0.98591 0.0
C3387 C 0.32046 0.25239 0.91547 0.0
H3388 H 0.3616 0.29435 0.92254 0.0
C3389 C 0.36697 0.27777 0.83122 0.0
C3390 C 0.38384 0.28422 0.83736 0.0
C3391 C 0.35533 0.27493 0.85059 0.0
C3392 C 0.35022 0.28257 0.92029 0.0
H3393 H 0.27019 0.23083 0.97331 0.0
H3394 H 0.28927 0.2453 0.93736 0.0
H3395 H 0.34114 0.28458 0.9576 0.0
H3396 H 0.40183 0.29354 0.86863 0.0
H3397 H 0.38142 0.28827 0.90271 0.0
H3398 H 0.32963 0.25001 0.87868 0.0
C3399 C 0.29435 0.24614 0.95658 0.0
C3400 C 0.33846 0.27699 0.94037 0.0
C3401 C 0.2834 0.23796 0.97722 0.0
C3402 C 0.38894 0.28862 0.86325 0.0
C3403 C 0.37721 0.2856 0.88277 0.0
C3404 C 0.33221 0.25792 0.89549 0.0
C3405 C 0.31167 0.25487 0.96058 0.0
C3406 C 0.3235 0.26173 0.93832 0.0
C3407 C 0.36017 0.27826 0.87677 0.0
C3408 C 0.34734 0.27301 0.89767 0.0
H3409 H 0.31202 0.24819 0.02546 0.0
H3410 H 0.33094 0.26235 0.98973 0.0
H3411 H 0.30925 0.24044 0.9134 0.0
H3412 H 0.36264 0.27444 0.81142 0.0
H3413 H 0.34243 0.26973 0.84506 0.0
C3414 C 0.75969 0.06134 0.0076 0.0
C3415 C 0.76843 0.05282 1.00325 0.0
C3416 C 0.75105 0.06379 0.98748 0.0
C3417 C 0.75212 0.06776 0.91661 0.0
H3418 H 0.71127 0.06877 0.92645 0.0
C3419 C 0.72499 0.08744 0.83305 0.0
C3420 C 0.71932 0.09852 0.83901 0.0
C3421 C 0.72808 0.07897 0.85268 0.0
C3422 C 0.72274 0.06866 0.92341 0.0
H3423 H 0.7742 0.03946 0.97446 0.0
H3424 H 0.75904 0.04372 0.93919 0.0
H3425 H 0.72176 0.05869 0.96135 0.0
H3426 H 0.71162 0.10873 0.87028 0.0
H3427 H 0.71735 0.09418 0.9048 0.0
H3428 H 0.7535 0.0782 0.87914 0.0
C3429 C 0.75904 0.04865 0.95824 0.0
C3430 C 0.72873 0.06283 0.9434 0.0
C3431 C 0.76762 0.04608 0.9785 0.0
C3432 C 0.7159 0.10022 0.86505 0.0
C3433 C 0.71919 0.09185 0.88483 0.0
C3434 C 0.74618 0.07364 0.89671 0.0
C3435 C 0.75096 0.05786 0.96237 0.0
C3436 C 0.74361 0.06247 0.94035 0.0
C3437 C 0.72582 0.0815 0.87892 0.0
C3438 C 0.73148 0.07431 0.89986 0.0
H3439 H 0.75996 0.06664 0.02644 0.0
H3440 H 0.74512 0.07105 0.99138 0.0
H3441 H 0.76378 0.068 0.91372 0.0
H3442 H 0.72755 0.08568 0.81314 0.0
H3443 H 0.73268 0.07076 0.84725 0.0
C3444 C 0.90525 0.61513 0.86644 0.0
C3445 C 0.90497 0.62092 0.84133 0.0
C3446 C 0.91361 0.62639 0.88668 0.0
C3447 C 0.94422 0.67095 0.90107 0.0
H3448 H 0.91901 0.66217 0.96474 0.0
C3449 C 0.95672 0.72178 0.97818 0.0
C3450 C 0.95306 0.71683 1.00426 0.0
C3451 C 0.95358 0.71 0.95868 0.0
C3452 C 0.92644 0.66475 0.94734 0.0
H3453 H 0.91413 0.6431 0.81759 0.0
H3454 H 0.92854 0.66252 0.8526 0.0
H3455 H 0.90881 0.64146 0.93049 0.0
H3456 H 0.94461 0.69592 0.03054 0.0
H3457 H 0.93973 0.67563 0.99693 0.0
H3458 H 0.9617 0.69442 0.91785 0.0
C3459 C 0.92238 0.64935 0.8568 0.0
C3460 C 0.92055 0.6528 0.92763 0.0
C3461 C 0.91398 0.63815 0.83669 0.0
C3462 C 0.94737 0.70012 0.01059 0.0
C3463 C 0.94441 0.68843 0.99124 0.0
C3464 C 0.95015 0.68291 0.92087 0.0
C3465 C 0.92199 0.64367 0.88221 0.0
C3466 C 0.92924 0.65579 0.90408 0.0
C3467 C 0.94686 0.69305 0.96492 0.0
C3468 C 0.94125 0.68005 0.94421 0.0
H3469 H 0.89846 0.60196 0.87072 0.0
H3470 H 0.91324 0.62156 0.90596 0.0
H3471 H 0.95134 0.67361 0.88331 0.0
H3472 H 0.96101 0.73454 0.97266 0.0
H3473 H 0.95558 0.71404 0.93863 0.0
C3474 C 0.24932 0.30556 0.49956 0.0
C3475 C 0.2384 0.28873 0.50529 0.0
C3476 C 0.25789 0.31696 0.51931 0.0
C3477 C 0.2687 0.32125 0.58986 0.0
H3478 H 0.26902 0.3629 0.58203 0.0
C3479 C 0.27501 0.36405 0.6756 0.0
C3480 C 0.28345 0.38137 0.67186 0.0
C3481 C 0.27292 0.35331 0.65514 0.0
C3482 C 0.26936 0.3515 0.58438 0.0
H3483 H 0.22859 0.27052 0.53622 0.0
H3484 H 0.24328 0.29052 0.57095 0.0
H3485 H 0.25884 0.34286 0.54684 0.0
H3486 H 0.29709 0.40099 0.64389 0.0
H3487 H 0.29342 0.38218 0.60799 0.0
H3488 H 0.27867 0.32979 0.62795 0.0
C3489 C 0.24542 0.29489 0.55107 0.0
C3490 C 0.2635 0.33994 0.56413 0.0
C3491 C 0.23696 0.28339 0.53117 0.0
C3492 C 0.29053 0.38773 0.64744 0.0
C3493 C 0.2883 0.37694 0.62683 0.0
C3494 C 0.27449 0.33281 0.61022 0.0
C3495 C 0.25563 0.31193 0.54545 0.0
C3496 C 0.26292 0.32457 0.56664 0.0
C3497 C 0.27912 0.35958 0.63029 0.0
C3498 C 0.27471 0.348 0.60783 0.0
H3499 H 0.25089 0.31005 0.47976 0.0
H3500 H 0.266 0.32985 0.51408 0.0
H3501 H 0.26868 0.30968 0.5924 0.0
H3502 H 0.26947 0.3587 0.69419 0.0
H3503 H 0.26568 0.34005 0.65851 0.0
C3504 C 0.64047 0.91464 0.67324 0.0
C3505 C 0.62325 0.90528 0.66865 0.0
C3506 C 0.65156 0.92306 0.65302 0.0
C3507 C 0.65498 0.92006 0.58272 0.0
H3508 H 0.69596 0.96207 0.59071 0.0
C3509 C 0.70236 0.94539 0.4998 0.0
C3510 C 0.71915 0.95187 0.50647 0.0
C3511 C 0.69052 0.94268 0.51874 0.0
C3512 C 0.68464 0.95028 0.5882 0.0
H3513 H 0.60416 0.89821 0.63932 0.0
H3514 H 0.62358 0.91297 0.60388 0.0
H3515 H 0.67516 0.95208 0.6253 0.0
H3516 H 0.73682 0.96141 0.53813 0.0
H3517 H 0.71606 0.9563 0.57151 0.0
H3518 H 0.66455 0.91783 0.54622 0.0
C3519 C 0.62847 0.91363 0.62319 0.0
C3520 C 0.67268 0.94458 0.608 0.0
C3521 C 0.61733 0.90528 0.64354 0.0
C3522 C 0.72399 0.95648 0.53237 0.0
C3523 C 0.71206 0.95354 0.5515 0.0
C3524 C 0.66693 0.92569 0.56304 0.0
C3525 C 0.64575 0.9223 0.62759 0.0
C3526 C 0.65777 0.9293 0.60561 0.0
C3527 C 0.69508 0.94612 0.54502 0.0
C3528 C 0.68201 0.94081 0.56555 0.0
H3529 H 0.64549 0.91499 0.69236 0.0
H3530 H 0.66475 0.92948 0.65712 0.0
H3531 H 0.64382 0.9081 0.58042 0.0
H3532 H 0.69825 0.94191 0.47993 0.0
H3533 H 0.67769 0.93743 0.51283 0.0
C3534 C 0.06281 0.76005 0.50137 0.0
C3535 C 0.0542 0.76872 0.50564 0.0
C3536 C 0.06516 0.75135 0.5215 0.0
C3537 C 0.06878 0.7522 0.59236 0.0
H3538 H 0.06956 0.71123 0.58269 0.0
C3539 C 0.08855 0.72528 0.67607 0.0
C3540 C 0.09952 0.7195 0.67006 0.0
C3541 C 0.07997 0.72825 0.65648 0.0
C3542 C 0.06952 0.72273 0.58569 0.0
H3543 H 0.04059 0.77427 0.53427 0.0
H3544 H 0.04471 0.75903 0.56954 0.0
H3545 H 0.05972 0.72185 0.54763 0.0
H3546 H 0.10941 0.71144 0.63881 0.0
H3547 H 0.09471 0.71699 0.60437 0.0
H3548 H 0.0791 0.75352 0.62989 0.0
C3549 C 0.04977 0.75913 0.55056 0.0
C3550 C 0.06382 0.7288 0.5656 0.0
C3551 C 0.04729 0.76777 0.5303 0.0
C3552 C 0.10097 0.7158 0.64407 0.0
C3553 C 0.09252 0.719 0.62433 0.0
C3554 C 0.07454 0.74621 0.61233 0.0
C3555 C 0.05905 0.75112 0.54653 0.0
C3556 C 0.06354 0.74371 0.5686 0.0
C3557 C 0.0823 0.72578 0.63023 0.0
C3558 C 0.07514 0.73145 0.60926 0.0
H3559 H 0.06824 0.76042 0.4826 0.0
H3560 H 0.07247 0.74546 0.51769 0.0
H3561 H 0.06906 0.76388 0.5952 0.0
H3562 H 0.087 0.72807 0.69595 0.0
H3563 H 0.07185 0.73297 0.66193 0.0
C3564 C 0.69756 0.75848 0.0064 0.0
C3565 C 0.71483 0.76719 0.01074 0.0
C3566 C 0.68646 0.75001 0.02659 0.0
C3567 C 0.66526 0.72773 0.07092 0.0
H3568 H 0.67404 0.75313 0.13438 0.0
C3569 C 0.61441 0.71454 0.14811 0.0
C3570 C 0.61933 0.71848 0.17415 0.0
C3571 C 0.62626 0.71789 0.12865 0.0
C3572 C 0.67147 0.74564 0.11706 0.0
H3573 H 0.73395 0.77315 0.03963 0.0
H3574 H 0.7145 0.75835 0.07507 0.0
H3575 H 0.69464 0.76335 0.09994 0.0
H3576 H 0.64033 0.72773 0.20042 0.0
H3577 H 0.66076 0.73293 0.16689 0.0
H3578 H 0.64195 0.7101 0.08797 0.0
C3579 C 0.70959 0.75821 0.05594 0.0
C3580 C 0.68334 0.75155 0.09724 0.0
C3581 C 0.72074 0.76659 0.03561 0.0
C3582 C 0.63614 0.72475 0.18049 0.0
C3583 C 0.64791 0.72788 0.16118 0.0
C3584 C 0.65339 0.72174 0.09085 0.0
C3585 C 0.6923 0.75009 0.05177 0.0
C3586 C 0.68032 0.74281 0.07377 0.0
C3587 C 0.64326 0.72508 0.13487 0.0
C3588 C 0.65624 0.73072 0.11411 0.0
H3589 H 0.69253 0.7586 0.98747 0.0
H3590 H 0.67326 0.74404 0.02268 0.0
H3591 H 0.6626 0.7206 0.05317 0.0
H3592 H 0.60157 0.70979 0.14258 0.0
H3593 H 0.62218 0.71562 0.10863 0.0
C3594 C 0.29036 0.90183 0.14388 0.0
C3595 C 0.28661 0.90305 0.16993 0.0
C3596 C 0.28731 0.91053 0.12439 0.0
C3597 C 0.26043 0.92894 0.11296 0.0
H3598 H 0.28515 0.94436 0.04863 0.0
C3599 C 0.24734 0.94225 1.00242 0.0
C3600 C 0.23873 0.95087 0.00704 0.0
C3601 C 0.25591 0.93957 0.0224 0.0
C3602 C 0.2781 0.9401 0.0665 0.0
H3603 H 0.27806 0.91542 0.1962 0.0
H3604 H 0.2734 0.93099 0.1626 0.0
H3605 H 0.29545 0.93396 0.08337 0.0
H3606 H 0.23315 0.96419 0.03619 0.0
H3607 H 0.24816 0.95952 0.07119 0.0
H3608 H 0.24298 0.93481 0.09604 0.0
C3609 C 0.27806 0.92286 0.15692 0.0
C3610 C 0.28398 0.93408 0.0864 0.0
C3611 C 0.28089 0.91404 0.17626 0.0
C3612 C 0.23962 0.95749 0.03193 0.0
C3613 C 0.24812 0.95469 0.05203 0.0
C3614 C 0.25462 0.93502 0.09317 0.0
C3615 C 0.28061 0.92077 0.13059 0.0
C3616 C 0.27513 0.92825 0.10983 0.0
C3617 C 0.25604 0.94536 0.04765 0.0
C3618 C 0.26325 0.94049 0.06954 0.0
H3619 H 0.29467 0.89338 0.13837 0.0
H3620 H 0.28937 0.90852 0.10436 0.0
H3621 H 0.25302 0.92424 0.13041 0.0
H3622 H 0.247 0.93703 0.98347 0.0
H3623 H 0.26174 0.93224 0.01832 0.0
C3624 C 0.04696 0.28169 0.03149 0.0
C3625 C 0.05336 0.28779 0.00665 0.0
C3626 C 0.04941 0.29269 0.0519 0.0
C3627 C 0.0626 0.33684 0.06746 0.0
H3628 H 0.07994 0.32812 0.1302 0.0
C3629 C 0.10053 0.38751 0.14482 0.0
C3630 C 0.09962 0.38248 0.17078 0.0
C3631 C 0.09202 0.37572 0.12527 0.0
C3632 C 0.07482 0.33067 0.11309 0.0
H3633 H 0.06633 0.3102 0.98339 0.0
H3634 H 0.07049 0.3292 0.01872 0.0
H3635 H 0.06949 0.30765 0.09561 0.0
H3636 H 0.08803 0.36135 0.19684 0.0
H3637 H 0.07285 0.34104 0.16317 0.0
H3638 H 0.0682 0.36002 0.08488 0.0
C3639 C 0.06362 0.31598 0.02259 0.0
C3640 C 0.06881 0.31886 0.09318 0.0
C3641 C 0.06131 0.30504 1.00232 0.0
C3642 C 0.08919 0.36562 0.17697 0.0
C3643 C 0.08057 0.35393 0.15758 0.0
C3644 C 0.06855 0.34864 0.08748 0.0
C3645 C 0.05814 0.31 0.04781 0.0
C3646 C 0.06282 0.32187 0.06996 0.0
C3647 C 0.0823 0.35869 0.13134 0.0
C3648 C 0.07492 0.3458 0.11048 0.0
H3649 H 0.0408 0.26849 0.0355 0.0
H3650 H 0.04483 0.28766 0.07104 0.0
H3651 H 0.05793 0.33949 0.04992 0.0
H3652 H 0.10852 0.40039 0.1394 0.0
H3653 H 0.09374 0.37989 0.1053 0.0
C3654 C 0.72967 0.63964 0.33601 0.0
C3655 C 0.72101 0.62233 0.33987 0.0
C3656 C 0.73171 0.65048 0.35628 0.0
C3657 C 0.73453 0.65243 0.42716 0.0
H3658 H 0.73613 0.69463 0.41813 0.0
C3659 C 0.75462 0.69855 0.51163 0.0
C3660 C 0.7659 0.71529 0.50591 0.0
C3661 C 0.74594 0.68721 0.49186 0.0
C3662 C 0.73584 0.68295 0.42096 0.0
H3663 H 0.70691 0.60285 0.36783 0.0
H3664 H 0.71047 0.62185 0.40338 0.0
H3665 H 0.72625 0.67445 0.38268 0.0
H3666 H 0.77624 0.73345 0.47498 0.0
H3667 H 0.76135 0.71355 0.44019 0.0
H3668 H 0.74467 0.66102 0.46491 0.0
C3669 C 0.71581 0.627 0.38461 0.0
C3670 C 0.73012 0.67135 0.40065 0.0
C3671 C 0.71365 0.6161 0.36419 0.0
C3672 C 0.76756 0.72065 0.48001 0.0
C3673 C 0.759 0.70921 0.46008 0.0
C3674 C 0.74031 0.66403 0.44736 0.0
C3675 C 0.72523 0.64434 0.38105 0.0
C3676 C 0.72957 0.65601 0.4034 0.0
C3677 C 0.74848 0.69221 0.46569 0.0
C3678 C 0.74122 0.67954 0.44451 0.0
H3679 H 0.73544 0.64489 0.31749 0.0
H3680 H 0.73912 0.66373 0.35283 0.0
H3681 H 0.73461 0.64092 0.42982 0.0
H3682 H 0.75292 0.69407 0.53145 0.0
H3683 H 0.73758 0.67437 0.49709 0.0
C3684 C 0.36517 0.09009 0.33714 0.0
C3685 C 0.38249 0.09902 0.34097 0.0
C3686 C 0.35435 0.08187 0.35775 0.0
C3687 C 0.33366 0.06049 0.40318 0.0
H3688 H 0.34346 0.08694 0.46567 0.0
C3689 C 0.28394 0.04909 0.48153 0.0
C3690 C 0.2892 0.05337 0.50738 0.0
C3691 C 0.29551 0.052 0.46179 0.0
C3692 C 0.3406 0.07916 0.44864 0.0
H3693 H 0.40199 0.10558 0.36938 0.0
H3694 H 0.38303 0.09117 0.40553 0.0
H3695 H 0.36359 0.09646 0.43059 0.0
H3696 H 0.31051 0.06278 0.53303 0.0
H3697 H 0.33045 0.06724 0.49902 0.0
H3698 H 0.31052 0.04329 0.42114 0.0
C3699 C 0.37786 0.09068 0.38649 0.0
C3700 C 0.35222 0.08467 0.42844 0.0
C3701 C 0.38874 0.09882 0.36574 0.0
C3702 C 0.30606 0.05954 0.51326 0.0
C3703 C 0.31755 0.06224 0.49368 0.0
C3704 C 0.32205 0.05492 0.42348 0.0
C3705 C 0.36051 0.08241 0.38285 0.0
C3706 C 0.34883 0.07554 0.40529 0.0
C3707 C 0.31257 0.05909 0.46753 0.0
C3708 C 0.32527 0.06428 0.4464 0.0
H3709 H 0.35989 0.0899 0.31831 0.0
H3710 H 0.3411 0.07577 0.35421 0.0
H3711 H 0.33071 0.05306 0.38571 0.0
H3712 H 0.27106 0.04442 0.47633 0.0
H3713 H 0.29118 0.04947 0.44191 0.0
C3714 C 0.90413 0.29085 0.36586 0.0
C3715 C 0.90447 0.28485 0.34095 0.0
C3716 C 0.91247 0.28839 0.38659 0.0
C3717 C 0.94392 0.27606 0.40317 0.0
H3718 H 0.91704 0.25764 0.46492 0.0
C3719 C 0.95654 0.23806 0.48037 0.0
C3720 C 0.95214 0.23869 0.50628 0.0
C3721 C 0.95325 0.24655 0.46085 0.0
C3722 C 0.92492 0.26306 0.44809 0.0
H3723 H 0.91474 0.27254 0.31801 0.0
H3724 H 0.92918 0.26833 0.3539 0.0
H3725 H 0.90713 0.26802 0.43005 0.0
H3726 H 0.94201 0.24976 0.53224 0.0
H3727 H 0.93681 0.26489 0.49857 0.0
H3728 H 0.9616 0.27081 0.42111 0.0
C3729 C 0.92252 0.27492 0.35756 0.0
C3730 C 0.9192 0.26904 0.42803 0.0
C3731 C 0.91412 0.27725 0.33696 0.0
C3732 C 0.94536 0.24882 0.51243 0.0
C3733 C 0.94224 0.25741 0.49304 0.0
C3734 C 0.9497 0.27014 0.42332 0.0
C3735 C 0.92144 0.28004 0.38279 0.0
C3736 C 0.9285 0.27541 0.40515 0.0
C3737 C 0.94563 0.25598 0.46686 0.0
C3738 C 0.94018 0.26336 0.44595 0.0
H3739 H 0.89683 0.29675 0.36962 0.0
H3740 H 0.91156 0.29268 0.40574 0.0
H3741 H 0.95148 0.28105 0.38591 0.0
H3742 H 0.96171 0.23031 0.47497 0.0
H3743 H 0.95596 0.24507 0.44091 0.0
C3744 C 0.03087 0.60966 0.16567 0.0
C3745 C 0.04779 0.61615 0.17147 0.0
C3746 C 0.01934 0.60666 0.18531 0.0
C3747 C 0.01467 0.61396 0.25537 0.0
H3748 H 0.97346 0.57208 0.24837 0.0
C3749 C 0.94793 0.56938 0.31269 0.0
C3750 C 0.95417 0.56937 0.33755 0.0
C3751 C 0.95883 0.57768 0.29203 0.0
C3752 C 0.98473 0.58397 0.25048 0.0
H3753 H 0.06596 0.6253 0.20247 0.0
H3754 H 0.04576 0.61972 0.23702 0.0
H3755 H 0.9937 0.58168 0.21343 0.0
H3756 H 0.9767 0.57907 0.36051 0.0
H3757 H 0.99553 0.59347 0.32476 0.0
H3758 H 0.00579 0.61587 0.29293 0.0
C3759 C 0.04142 0.61717 0.21714 0.0
C3760 C 0.99641 0.58951 0.23038 0.0
C3761 C 0.05303 0.62036 0.19734 0.0
C3762 C 0.97145 0.57873 0.34159 0.0
C3763 C 0.98228 0.5871 0.32107 0.0
C3764 C 0.00298 0.60836 0.27557 0.0
C3765 C 0.02433 0.60984 0.21144 0.0
C3766 C 0.01162 0.60453 0.23257 0.0
C3767 C 0.97617 0.58629 0.29585 0.0
C3768 C 0.98793 0.59319 0.27349 0.0
H3769 H 0.02641 0.60648 0.14589 0.0
H3770 H 0.00641 0.60147 0.18001 0.0
H3771 H 0.0261 0.62568 0.25765 0.0
H3772 H 0.93471 0.56229 0.30889 0.0
H3773 H 0.95368 0.577 0.2729 0.0
C3774 C 0.39418 0.42211 0.17135 0.0
C3775 C 0.3858 0.43098 0.17585 0.0
C3776 C 0.39686 0.41367 0.19151 0.0
C3777 C 0.40222 0.41589 0.26203 0.0
H3778 H 0.4027 0.37471 0.25322 0.0
C3779 C 0.42441 0.39065 0.34494 0.0
C3780 C 0.43521 0.38475 0.33833 0.0
C3781 C 0.41529 0.39326 0.32587 0.0
C3782 C 0.40274 0.38627 0.25597 0.0
H3783 H 0.3729 0.43714 0.20492 0.0
H3784 H 0.37761 0.42235 0.24027 0.0
H3785 H 0.39187 0.38461 0.21855 0.0
H3786 H 0.44423 0.37614 0.30659 0.0
H3787 H 0.42857 0.38106 0.27304 0.0
H3788 H 0.41361 0.41799 0.29888 0.0
C3789 C 0.38222 0.42209 0.22107 0.0
C3790 C 0.39647 0.39192 0.23612 0.0
C3791 C 0.37941 0.43046 0.20078 0.0
C3792 C 0.43595 0.38062 0.31232 0.0
C3793 C 0.42694 0.38344 0.29309 0.0
C3794 C 0.40855 0.41031 0.28177 0.0
C3795 C 0.39133 0.41392 0.21679 0.0
C3796 C 0.39631 0.40691 0.23879 0.0
C3797 C 0.41687 0.39029 0.29954 0.0
C3798 C 0.40906 0.3955 0.27896 0.0
H3799 H 0.39922 0.42216 0.15236 0.0
H3800 H 0.40403 0.40765 0.18751 0.0
H3801 H 0.40261 0.42764 0.26458 0.0
H3802 H 0.42339 0.39376 0.36487 0.0
H3803 H 0.40731 0.39807 0.33174 0.0
C3804 C 0.57619 0.97277 0.16961 0.0
C3805 C 0.57227 0.95607 0.17054 0.0
C3806 C 0.58505 0.98377 0.1896 0.0
C3807 C 0.59567 0.98444 0.2592 0.0
H3808 H 0.62007 0.03184 0.24593 0.0
C3809 C 0.60321 0.03112 0.33788 0.0
C3810 C 0.61654 0.04759 0.33753 0.0
C3811 C 0.6013 0.01994 0.31833 0.0
C3812 C 0.61361 0.01868 0.25018 0.0
H3813 H 0.57532 0.93808 0.19303 0.0
H3814 H 0.59139 0.95752 0.22778 0.0
H3815 H 0.61152 0.01256 0.20987 0.0
H3816 H 0.63875 0.06494 0.31661 0.0
H3817 H 0.63576 0.04516 0.2827 0.0
H3818 H 0.5983 0.99055 0.29955 0.0
C3819 C 0.58717 0.96199 0.21173 0.0
C3820 C 0.6084 0.00753 0.22933 0.0
C3821 C 0.57805 0.95083 0.19171 0.0
C3822 C 0.6283 0.05239 0.31744 0.0
C3823 C 0.62649 0.04104 0.29789 0.0
C3824 C 0.60118 0.99558 0.28008 0.0
C3825 C 0.59058 0.97859 0.21115 0.0
C3826 C 0.59872 0.99025 0.23345 0.0
C3827 C 0.61279 0.0247 0.29784 0.0
C3828 C 0.60962 0.01289 0.27587 0.0
H3829 H 0.57192 0.97735 0.15377 0.0
H3830 H 0.58695 0.99623 0.18849 0.0
H3831 H 0.58831 0.9713 0.26338 0.0
H3832 H 0.5938 0.0269 0.35289 0.0
H3833 H 0.59036 0.00771 0.31889 0.0
C3834 C 0.39097 0.97069 0.66363 0.0
C3835 C 0.38509 0.95395 0.67001 0.0
C3836 C 0.39371 0.98235 0.6829 0.0
C3837 C 0.38711 0.98767 0.75305 0.0
H3838 H 0.42869 0.02902 0.74453 0.0
C3839 C 0.42345 0.03127 0.83809 0.0
C3840 C 0.43266 0.04854 0.83391 0.0
C3841 C 0.41483 0.02037 0.81778 0.0
C3842 C 0.41688 0.01771 0.74707 0.0
H3843 H 0.37662 0.93618 0.70156 0.0
H3844 H 0.38172 0.95663 0.73545 0.0
H3845 H 0.41873 0.00855 0.70995 0.0
H3846 H 0.43924 0.06792 0.80525 0.0
H3847 H 0.4241 0.04882 0.76961 0.0
H3848 H 0.38567 0.99673 0.79069 0.0
C3849 C 0.38401 0.96072 0.71543 0.0
C3850 C 0.41112 0.0059 0.72717 0.0
C3851 C 0.38107 0.94896 0.69601 0.0
C3852 C 0.43229 0.0547 0.80915 0.0
C3853 C 0.42373 0.04374 0.78868 0.0
C3854 C 0.39292 0.99949 0.77305 0.0
C3855 C 0.39087 0.97768 0.70919 0.0
C3856 C 0.39625 0.99062 0.72994 0.0
C3857 C 0.41522 0.02641 0.79263 0.0
C3858 C 0.408 0.01458 0.77043 0.0
H3859 H 0.394 0.97491 0.64373 0.0
H3860 H 0.39852 0.99517 0.6772 0.0
H3861 H 0.3755 0.97618 0.75578 0.0
H3862 H 0.42337 0.02607 0.85695 0.0
H3863 H 0.40856 0.00714 0.82155 0.0
C3864 C 0.05404 0.43252 0.69796 0.0
C3865 C 0.04906 0.43211 0.6721 0.0
C3866 C 0.04224 0.42347 0.71722 0.0
C3867 C 0.99715 0.40601 0.72909 0.0
H3868 H 0.00589 0.38878 0.79195 0.0
C3869 C 0.94824 0.37797 0.81087 0.0
C3870 C 0.95441 0.38426 0.83574 0.0
C3871 C 0.95919 0.38049 0.79034 0.0
C3872 C 0.00326 0.39354 0.77449 0.0
H3873 H 0.02808 0.42079 0.64575 0.0
H3874 H 0.00773 0.4046 0.67889 0.0
H3875 H 0.02644 0.39917 0.757 0.0
H3876 H 0.97689 0.39718 0.85883 0.0
H3877 H 0.9958 0.40149 0.82329 0.0
H3878 H 0.97415 0.40068 0.74667 0.0
C3879 C 0.02058 0.41236 0.68466 0.0
C3880 C 0.01507 0.39955 0.75447 0.0
C3881 C 0.03229 0.42153 0.66558 0.0
C3882 C 0.97168 0.39225 0.8399 0.0
C3883 C 0.98257 0.39463 0.81952 0.0
C3884 C 0.98534 0.39993 0.74899 0.0
C3885 C 0.02524 0.4137 0.71092 0.0
C3886 C 0.01227 0.40607 0.73161 0.0
C3887 C 0.97652 0.38919 0.79432 0.0
C3888 C 0.98833 0.39384 0.77211 0.0
H3889 H 0.06686 0.44063 0.70359 0.0
H3890 H 0.04633 0.4249 0.73721 0.0
H3891 H 0.99463 0.41124 0.7121 0.0
H3892 H 0.93503 0.37176 0.80698 0.0
H3893 H 0.95411 0.37596 0.77121 0.0
C3894 C 0.56845 0.62165 0.70004 0.0
C3895 C 0.56942 0.61781 0.67395 0.0
C3896 C 0.57719 0.6185 0.71934 0.0
C3897 C 0.59539 0.59137 0.73036 0.0
H3898 H 0.61133 0.61626 0.79442 0.0
C3899 C 0.62435 0.57078 0.81126 0.0
C3900 C 0.61782 0.56999 0.83618 0.0
C3901 C 0.62142 0.57914 0.79107 0.0
C3902 C 0.60693 0.60917 0.77662 0.0
H3903 H 0.58136 0.60893 0.64741 0.0
H3904 H 0.597 0.60409 0.68066 0.0
H3905 H 0.60085 0.62657 0.75985 0.0
H3906 H 0.60395 0.57824 0.85972 0.0
H3907 H 0.59896 0.59276 0.82478 0.0
H3908 H 0.60124 0.57388 0.74721 0.0
C3909 C 0.58904 0.60891 0.68653 0.0
C3910 C 0.60085 0.61505 0.75682 0.0
C3911 C 0.58018 0.61184 0.66738 0.0
C3912 C 0.6091 0.57851 0.84075 0.0
C3913 C 0.60632 0.58696 0.8207 0.0
C3914 C 0.60154 0.58556 0.75005 0.0
C3915 C 0.58723 0.61161 0.7129 0.0
C3916 C 0.5948 0.60612 0.7335 0.0
C3917 C 0.61207 0.58705 0.79545 0.0
C3918 C 0.60718 0.59425 0.77359 0.0
H3919 H 0.5602 0.62616 0.70574 0.0
H3920 H 0.57539 0.62068 0.73941 0.0
H3921 H 0.59053 0.5839 0.713 0.0
H3922 H 0.63112 0.56437 0.80705 0.0
H3923 H 0.6262 0.57914 0.7719 0.0
loop_
_geom_bond_atom_site_label_1
_geom_bond_atom_site_label_2
_geom_bond_distance
_geom_bond_site_symmetry_2
_ccdc_geom_bond_type
Co0 O3 1.970 . S
Co0 N17 1.989 . S
Co0 O25 1.967 . S
Co0 O32 1.920 . S
Co1 O4 1.966 . S
Co1 N10 2.022 . S
Co1 N18 1.993 . S
Co1 O26 1.941 . S
C2 O3 1.258 . S
C2 O4 1.263 . S
O3 Co0 1.970 . S
O3 C2 1.258 . S
O4 Co1 1.966 . S
O4 C2 1.263 . S
C5 O6 1.235 . S
C5 O32 1.289 . S
O6 C5 1.235 . S
C7 C9 1.400 . S
C7 N10 1.351 . S
C7 C12 1.501 . S
C8 C9 1.387 . S
C8 N11 1.341 . S
C9 C7 1.400 . S
C9 C8 1.387 . S
N10 Co1 2.022 . S
N10 C7 1.351 . S
N10 N11 1.365 . S
N11 C8 1.341 . S
N11 N10 1.365 . S
N11 H31 0.862 . S
C12 C7 1.501 . S
C12 H13 0.961 . S
C12 H14 0.961 . S
C12 H15 0.960 1_554 S
H13 C12 0.961 . S
H14 C12 0.961 . S
H15 C12 0.960 1_556 S
C16 N17 1.342 . S
C16 C20 1.401 . S
C16 C21 1.499 . S
N17 Co0 1.989 . S
N17 C16 1.342 . S
N17 N18 1.388 . S
N18 Co1 1.993 . S
N18 N17 1.388 . S
N18 C19 1.346 . S
C19 N18 1.346 . S
C19 C20 1.396 . S
C19 C29 1.510 . S
C20 C16 1.401 . S
C20 C19 1.396 . S
C21 C16 1.499 . S
C21 H22 0.959 . S
C21 H23 0.960 . S
C21 H24 0.961 . S
H22 C21 0.959 . S
H23 C21 0.960 . S
H24 C21 0.961 . S
O25 Co0 1.967 . S
O25 C33 1.258 . S
O26 Co1 1.941 . S
O26 C33 1.266 . S
H27 C29 0.959 . S
H28 C29 0.961 . S
C29 C19 1.510 . S
C29 H27 0.959 . S
C29 H28 0.961 . S
C29 H30 0.960 . S
H30 C29 0.960 . S
H31 N11 0.862 . S
O32 Co0 1.920 . S
O32 C5 1.289 . S
C33 O25 1.258 . S
C33 O26 1.266 . S
Co34 O37 1.970 . S
Co34 N51 1.989 . S
Co34 O59 1.967 . S
Co34 O66 1.920 . S
Co35 O38 1.966 . S
Co35 N44 2.022 . S
Co35 N52 1.993 . S
Co35 O60 1.941 . S
C36 O37 1.258 . S
C36 O38 1.263 . S
O37 Co34 1.970 . S
O37 C36 1.258 . S
O38 Co35 1.966 . S
O38 C36 1.263 . S
C39 O40 1.235 . S
C39 O66 1.289 . S
O40 C39 1.235 . S
C41 C43 1.400 1_545 S
C41 N44 1.351 . S
C41 C46 1.501 . S
C42 C43 1.387 1_545 S
C42 N45 1.341 . S
C43 C41 1.400 1_565 S
C43 C42 1.387 1_565 S
N44 Co35 2.022 . S
N44 C41 1.351 . S
N44 N45 1.365 . S
N45 C42 1.341 . S
N45 N44 1.365 . S
N45 H65 0.862 . S
C46 C41 1.501 . S
C46 H47 0.961 . S
C46 H48 0.961 . S
C46 H49 0.960 1_554 S
H47 C46 0.961 . S
H48 C46 0.961 . S
H49 C46 0.960 1_556 S
C50 N51 1.342 . S
C50 C54 1.401 . S
C50 C55 1.499 . S
N51 Co34 1.989 . S
N51 C50 1.342 . S
N51 N52 1.388 . S
N52 Co35 1.993 . S
N52 N51 1.388 . S
N52 C53 1.346 . S
C53 N52 1.346 . S
C53 C54 1.396 . S
C53 C63 1.510 . S
C54 C50 1.401 . S
C54 C53 1.396 . S
C55 C50 1.499 . S
C55 H56 0.959 . S
C55 H57 0.960 . S
C55 H58 0.961 . S
H56 C55 0.959 . S
H57 C55 0.960 . S
H58 C55 0.961 . S
O59 Co34 1.967 . S
O59 C67 1.258 . S
O60 Co35 1.941 . S
O60 C67 1.266 . S
H61 C63 0.959 . S
H62 C63 0.961 . S
C63 C53 1.510 . S
C63 H61 0.959 . S
C63 H62 0.961 . S
C63 H64 0.960 . S
H64 C63 0.960 . S
H65 N45 0.862 . S
O66 Co34 1.920 . S
O66 C39 1.289 . S
C67 O59 1.258 . S
C67 O60 1.266 . S
Co68 O71 1.970 . S
Co68 N85 1.989 . S
Co68 O93 1.967 . S
Co68 O100 1.920 . S
Co69 O72 1.966 . S
Co69 N78 2.022 . S
Co69 N86 1.993 . S
Co69 O94 1.941 . S
C70 O71 1.258 . S
C70 O72 1.263 . S
O71 Co68 1.970 . S
O71 C70 1.258 . S
O72 Co69 1.966 . S
O72 C70 1.263 . S
C73 O74 1.235 . S
C73 O100 1.289 . S
O74 C73 1.235 . S
C75 C77 1.400 1_655 S
C75 N78 1.351 . S
C75 C80 1.501 . S
C76 C77 1.387 1_655 S
C76 N79 1.341 . S
C77 C75 1.400 1_455 S
C77 C76 1.387 1_455 S
N78 Co69 2.022 . S
N78 C75 1.351 . S
N78 N79 1.365 . S
N79 C76 1.341 . S
N79 N78 1.365 . S
N79 H99 0.862 . S
C80 C75 1.501 . S
C80 H81 0.961 . S
C80 H82 0.961 . S
C80 H83 0.960 1_554 S
H81 C80 0.961 . S
H82 C80 0.961 . S
H83 C80 0.960 1_556 S
C84 N85 1.342 . S
C84 C88 1.401 . S
C84 C89 1.499 . S
N85 Co68 1.989 . S
N85 C84 1.342 . S
N85 N86 1.388 . S
N86 Co69 1.993 . S
N86 N85 1.388 . S
N86 C87 1.346 . S
C87 N86 1.346 . S
C87 C88 1.396 . S
C87 C97 1.510 . S
C88 C84 1.401 . S
C88 C87 1.396 . S
C89 C84 1.499 . S
C89 H90 0.959 . S
C89 H91 0.960 . S
C89 H92 0.961 . S
H90 C89 0.959 . S
H91 C89 0.960 . S
H92 C89 0.961 . S
O93 Co68 1.967 . S
O93 C101 1.258 . S
O94 Co69 1.941 . S
O94 C101 1.266 . S
H95 C97 0.959 . S
H96 C97 0.961 . S
C97 C87 1.510 . S
C97 H95 0.959 . S
C97 H96 0.961 . S
C97 H98 0.960 . S
H98 C97 0.960 . S
H99 N79 0.862 . S
O100 Co68 1.920 . S
O100 C73 1.289 . S
C101 O93 1.258 . S
C101 O94 1.266 . S
Co102 O105 1.970 . S
Co102 N119 1.989 . S
Co102 O127 1.967 . S
Co102 O134 1.920 . S
Co103 O106 1.966 . S
Co103 N112 2.022 . S
Co103 N120 1.993 . S
Co103 O128 1.941 . S
C104 O105 1.258 . S
C104 O106 1.263 . S
O105 Co102 1.970 . S
O105 C104 1.258 . S
O106 Co103 1.966 . S
O106 C104 1.263 . S
C107 O108 1.235 . S
C107 O134 1.289 . S
O108 C107 1.235 . S
C109 C111 1.400 . S
C109 N112 1.351 . S
C109 C114 1.501 . S
C110 C111 1.387 . S
C110 N113 1.341 . S
C111 C109 1.400 . S
C111 C110 1.387 . S
N112 Co103 2.022 . S
N112 C109 1.351 . S
N112 N113 1.365 . S
N113 C110 1.341 . S
N113 N112 1.365 . S
N113 H133 0.862 . S
C114 C109 1.501 . S
C114 H115 0.961 . S
C114 H116 0.961 . S
C114 H117 0.960 . S
H115 C114 0.961 . S
H116 C114 0.961 . S
H117 C114 0.960 . S
C118 N119 1.342 . S
C118 C122 1.401 . S
C118 C123 1.499 . S
N119 Co102 1.989 . S
N119 C118 1.342 . S
N119 N120 1.388 . S
N120 Co103 1.993 . S
N120 N119 1.388 . S
N120 C121 1.346 . S
C121 N120 1.346 . S
C121 C122 1.396 . S
C121 C131 1.510 . S
C122 C118 1.401 . S
C122 C121 1.396 . S
C123 C118 1.499 . S
C123 H124 0.959 . S
C123 H125 0.960 . S
C123 H126 0.961 . S
H124 C123 0.959 . S
H125 C123 0.960 . S
H126 C123 0.961 . S
O127 Co102 1.967 . S
O127 C135 1.258 . S
O128 Co103 1.941 . S
O128 C135 1.266 . S
H129 C131 0.959 . S
H130 C131 0.961 . S
C131 C121 1.510 . S
C131 H129 0.959 . S
C131 H130 0.961 . S
C131 H132 0.960 . S
H132 C131 0.960 . S
H133 N113 0.862 . S
O134 Co102 1.920 . S
O134 C107 1.289 . S
C135 O127 1.258 . S
C135 O128 1.266 . S
Co136 O139 1.970 . S
Co136 N153 1.989 . S
Co136 O161 1.967 . S
Co136 O168 1.920 . S
Co137 O140 1.966 . S
Co137 N146 2.022 . S
Co137 N154 1.993 . S
Co137 O162 1.941 . S
C138 O139 1.258 . S
C138 O140 1.263 . S
O139 Co136 1.970 . S
O139 C138 1.258 . S
O140 Co137 1.966 . S
O140 C138 1.263 . S
C141 O142 1.235 . S
C141 O168 1.289 . S
O142 C141 1.235 . S
C143 C145 1.400 1_565 S
C143 N146 1.351 . S
C143 C148 1.501 . S
C144 C145 1.387 1_565 S
C144 N147 1.341 . S
C145 C143 1.400 1_545 S
C145 C144 1.387 1_545 S
N146 Co137 2.022 . S
N146 C143 1.351 . S
N146 N147 1.365 . S
N147 C144 1.341 . S
N147 N146 1.365 . S
N147 H167 0.862 . S
C148 C143 1.501 . S
C148 H149 0.961 . S
C148 H150 0.961 . S
C148 H151 0.960 . S
H149 C148 0.961 . S
H150 C148 0.961 . S
H151 C148 0.960 . S
C152 N153 1.342 . S
C152 C156 1.401 . S
C152 C157 1.499 . S
N153 Co136 1.989 . S
N153 C152 1.342 . S
N153 N154 1.388 . S
N154 Co137 1.993 . S
N154 N153 1.388 . S
N154 C155 1.346 . S
C155 N154 1.346 . S
C155 C156 1.396 . S
C155 C165 1.510 . S
C156 C152 1.401 . S
C156 C155 1.396 . S
C157 C152 1.499 . S
C157 H158 0.959 . S
C157 H159 0.960 . S
C157 H160 0.961 . S
H158 C157 0.959 . S
H159 C157 0.960 . S
H160 C157 0.961 . S
O161 Co136 1.967 . S
O161 C169 1.258 . S
O162 Co137 1.941 . S
O162 C169 1.266 . S
H163 C165 0.959 . S
H164 C165 0.961 . S
C165 C155 1.510 . S
C165 H163 0.959 . S
C165 H164 0.961 . S
C165 H166 0.960 . S
H166 C165 0.960 . S
H167 N147 0.862 . S
O168 Co136 1.920 . S
O168 C141 1.289 . S
C169 O161 1.258 . S
C169 O162 1.266 . S
Co170 O173 1.970 . S
Co170 N187 1.989 . S
Co170 O195 1.967 . S
Co170 O202 1.920 . S
Co171 O174 1.966 . S
Co171 N180 2.022 . S
Co171 N188 1.993 . S
Co171 O196 1.941 . S
C172 O173 1.258 . S
C172 O174 1.263 . S
O173 Co170 1.970 . S
O173 C172 1.258 . S
O174 Co171 1.966 . S
O174 C172 1.263 . S
C175 O176 1.235 . S
C175 O202 1.289 . S
O176 C175 1.235 . S
C177 C179 1.400 1_455 S
C177 N180 1.351 . S
C177 C182 1.501 . S
C178 C179 1.387 1_455 S
C178 N181 1.341 . S
C179 C177 1.400 1_655 S
C179 C178 1.387 1_655 S
N180 Co171 2.022 . S
N180 C177 1.351 . S
N180 N181 1.365 . S
N181 C178 1.341 . S
N181 N180 1.365 . S
N181 H201 0.862 . S
C182 C177 1.501 . S
C182 H183 0.961 . S
C182 H184 0.961 . S
C182 H185 0.960 . S
H183 C182 0.961 . S
H184 C182 0.961 . S
H185 C182 0.960 . S
C186 N187 1.342 . S
C186 C190 1.401 . S
C186 C191 1.499 . S
N187 Co170 1.989 . S
N187 C186 1.342 . S
N187 N188 1.388 . S
N188 Co171 1.993 . S
N188 N187 1.388 . S
N188 C189 1.346 . S
C189 N188 1.346 . S
C189 C190 1.396 . S
C189 C199 1.510 . S
C190 C186 1.401 . S
C190 C189 1.396 . S
C191 C186 1.499 . S
C191 H192 0.959 . S
C191 H193 0.960 . S
C191 H194 0.961 . S
H192 C191 0.959 . S
H193 C191 0.960 . S
H194 C191 0.961 . S
O195 Co170 1.967 . S
O195 C203 1.258 . S
O196 Co171 1.941 . S
O196 C203 1.266 . S
H197 C199 0.959 . S
H198 C199 0.961 . S
C199 C189 1.510 . S
C199 H197 0.959 . S
C199 H198 0.961 . S
C199 H200 0.960 . S
H200 C199 0.960 . S
H201 N181 0.862 . S
O202 Co170 1.920 . S
O202 C175 1.289 . S
C203 O195 1.258 . S
C203 O196 1.266 . S
Co204 O207 1.970 . S
Co204 N221 1.989 . S
Co204 O229 1.967 . S
Co204 O236 1.920 . S
Co205 O208 1.966 . S
Co205 N214 2.022 . S
Co205 N222 1.993 . S
Co205 O230 1.941 . S
C206 O207 1.258 . S
C206 O208 1.263 . S
O207 Co204 1.970 . S
O207 C206 1.258 . S
O208 Co205 1.966 . S
O208 C206 1.263 . S
C209 O210 1.235 . S
C209 O236 1.289 . S
O210 C209 1.235 . S
C211 C213 1.400 . S
C211 N214 1.351 . S
C211 C216 1.501 . S
C212 C213 1.387 . S
C212 N215 1.341 . S
C213 C211 1.400 . S
C213 C212 1.387 . S
N214 Co205 2.022 . S
N214 C211 1.351 . S
N214 N215 1.365 . S
N215 C212 1.341 . S
N215 N214 1.365 . S
N215 H235 0.862 . S
C216 C211 1.501 . S
C216 H217 0.961 . S
C216 H218 0.961 . S
C216 H219 0.960 1_556 S
H217 C216 0.961 . S
H218 C216 0.961 . S
H219 C216 0.960 1_554 S
C220 N221 1.342 . S
C220 C224 1.401 . S
C220 C225 1.499 . S
N221 Co204 1.989 . S
N221 C220 1.342 . S
N221 N222 1.388 . S
N222 Co205 1.993 . S
N222 N221 1.388 . S
N222 C223 1.346 . S
C223 N222 1.346 . S
C223 C224 1.396 . S
C223 C233 1.510 . S
C224 C220 1.401 . S
C224 C223 1.396 . S
C225 C220 1.499 . S
C225 H226 0.959 . S
C225 H227 0.960 . S
C225 H228 0.961 . S
H226 C225 0.959 . S
H227 C225 0.960 . S
H228 C225 0.961 . S
O229 Co204 1.967 . S
O229 C237 1.258 . S
O230 Co205 1.941 . S
O230 C237 1.266 . S
H231 C233 0.959 . S
H232 C233 0.961 . S
C233 C223 1.510 . S
C233 H231 0.959 . S
C233 H232 0.961 . S
C233 H234 0.960 . S
H234 C233 0.960 . S
H235 N215 0.862 . S
O236 Co204 1.920 . S
O236 C209 1.289 . S
C237 O229 1.258 . S
C237 O230 1.266 . S
Co238 O241 1.970 . S
Co238 N255 1.989 . S
Co238 O263 1.967 . S
Co238 O270 1.920 . S
Co239 O242 1.966 . S
Co239 N248 2.022 . S
Co239 N256 1.993 . S
Co239 O264 1.941 . S
C240 O241 1.258 . S
C240 O242 1.263 . S
O241 Co238 1.970 . S
O241 C240 1.258 . S
O242 Co239 1.966 . S
O242 C240 1.263 . S
C243 O244 1.235 . S
C243 O270 1.289 . S
O244 C243 1.235 . S
C245 C247 1.400 1_565 S
C245 N248 1.351 . S
C245 C250 1.501 . S
C246 C247 1.387 1_565 S
C246 N249 1.341 . S
C247 C245 1.400 1_545 S
C247 C246 1.387 1_545 S
N248 Co239 2.022 . S
N248 C245 1.351 . S
N248 N249 1.365 . S
N249 C246 1.341 . S
N249 N248 1.365 . S
N249 H269 0.862 . S
C250 C245 1.501 . S
C250 H251 0.961 . S
C250 H252 0.961 . S
C250 H253 0.960 1_556 S
H251 C250 0.961 . S
H252 C250 0.961 . S
H253 C250 0.960 1_554 S
C254 N255 1.342 . S
C254 C258 1.401 . S
C254 C259 1.499 . S
N255 Co238 1.989 . S
N255 C254 1.342 . S
N255 N256 1.388 . S
N256 Co239 1.993 . S
N256 N255 1.388 . S
N256 C257 1.346 . S
C257 N256 1.346 . S
C257 C258 1.396 . S
C257 C267 1.510 . S
C258 C254 1.401 . S
C258 C257 1.396 . S
C259 C254 1.499 . S
C259 H260 0.959 . S
C259 H261 0.960 . S
C259 H262 0.961 . S
H260 C259 0.959 . S
H261 C259 0.960 . S
H262 C259 0.961 . S
O263 Co238 1.967 . S
O263 C271 1.258 . S
O264 Co239 1.941 . S
O264 C271 1.266 . S
H265 C267 0.959 . S
H266 C267 0.961 . S
C267 C257 1.510 . S
C267 H265 0.959 . S
C267 H266 0.961 . S
C267 H268 0.960 . S
H268 C267 0.960 . S
H269 N249 0.862 . S
O270 Co238 1.920 . S
O270 C243 1.289 . S
C271 O263 1.258 . S
C271 O264 1.266 . S
Co272 O275 1.970 . S
Co272 N289 1.989 . S
Co272 O297 1.967 . S
Co272 O304 1.920 . S
Co273 O276 1.966 . S
Co273 N282 2.022 . S
Co273 N290 1.993 . S
Co273 O298 1.941 . S
C274 O275 1.258 . S
C274 O276 1.263 . S
O275 Co272 1.970 . S
O275 C274 1.258 . S
O276 Co273 1.966 . S
O276 C274 1.263 . S
C277 O278 1.235 . S
C277 O304 1.289 . S
O278 C277 1.235 . S
C279 C281 1.400 1_455 S
C279 N282 1.351 . S
C279 C284 1.501 . S
C280 C281 1.387 1_455 S
C280 N283 1.341 . S
C281 C279 1.400 1_655 S
C281 C280 1.387 1_655 S
N282 Co273 2.022 . S
N282 C279 1.351 . S
N282 N283 1.365 . S
N283 C280 1.341 . S
N283 N282 1.365 . S
N283 H303 0.862 . S
C284 C279 1.501 . S
C284 H285 0.961 . S
C284 H286 0.961 . S
C284 H287 0.960 1_556 S
H285 C284 0.961 . S
H286 C284 0.961 . S
H287 C284 0.960 1_554 S
C288 N289 1.342 . S
C288 C292 1.401 . S
C288 C293 1.499 . S
N289 Co272 1.989 . S
N289 C288 1.342 . S
N289 N290 1.388 . S
N290 Co273 1.993 . S
N290 N289 1.388 . S
N290 C291 1.346 . S
C291 N290 1.346 . S
C291 C292 1.396 . S
C291 C301 1.510 . S
C292 C288 1.401 . S
C292 C291 1.396 . S
C293 C288 1.499 . S
C293 H294 0.959 . S
C293 H295 0.960 . S
C293 H296 0.961 . S
H294 C293 0.959 . S
H295 C293 0.960 . S
H296 C293 0.961 . S
O297 Co272 1.967 . S
O297 C305 1.258 . S
O298 Co273 1.941 . S
O298 C305 1.266 . S
H299 C301 0.959 . S
H300 C301 0.961 . S
C301 C291 1.510 . S
C301 H299 0.959 . S
C301 H300 0.961 . S
C301 H302 0.960 . S
H302 C301 0.960 . S
H303 N283 0.862 . S
O304 Co272 1.920 . S
O304 C277 1.289 . S
C305 O297 1.258 . S
C305 O298 1.266 . S
Co306 O309 1.970 . S
Co306 N323 1.989 . S
Co306 O331 1.967 . S
Co306 O338 1.920 . S
Co307 O310 1.966 . S
Co307 N316 2.022 . S
Co307 N324 1.993 . S
Co307 O332 1.941 . S
C308 O309 1.258 . S
C308 O310 1.263 . S
O309 Co306 1.970 . S
O309 C308 1.258 . S
O310 Co307 1.966 . S
O310 C308 1.263 . S
C311 O312 1.235 . S
C311 O338 1.289 . S
O312 C311 1.235 . S
C313 C315 1.400 . S
C313 N316 1.351 . S
C313 C318 1.501 . S
C314 C315 1.387 . S
C314 N317 1.341 . S
C315 C313 1.400 . S
C315 C314 1.387 . S
N316 Co307 2.022 . S
N316 C313 1.351 . S
N316 N317 1.365 . S
N317 C314 1.341 . S
N317 N316 1.365 . S
N317 H337 0.862 . S
C318 C313 1.501 . S
C318 H319 0.961 . S
C318 H320 0.961 . S
C318 H321 0.960 . S
H319 C318 0.961 . S
H320 C318 0.961 . S
H321 C318 0.960 . S
C322 N323 1.342 . S
C322 C326 1.401 . S
C322 C327 1.499 . S
N323 Co306 1.989 . S
N323 C322 1.342 . S
N323 N324 1.388 . S
N324 Co307 1.993 . S
N324 N323 1.388 . S
N324 C325 1.346 . S
C325 N324 1.346 . S
C325 C326 1.396 . S
C325 C335 1.510 . S
C326 C322 1.401 . S
C326 C325 1.396 . S
C327 C322 1.499 . S
C327 H328 0.959 . S
C327 H329 0.960 . S
C327 H330 0.961 . S
H328 C327 0.959 . S
H329 C327 0.960 . S
H330 C327 0.961 . S
O331 Co306 1.967 . S
O331 C339 1.258 . S
O332 Co307 1.941 . S
O332 C339 1.266 . S
H333 C335 0.959 . S
H334 C335 0.961 . S
C335 C325 1.510 . S
C335 H333 0.959 . S
C335 H334 0.961 . S
C335 H336 0.960 . S
H336 C335 0.960 . S
H337 N317 0.862 . S
O338 Co306 1.920 . S
O338 C311 1.289 . S
C339 O331 1.258 . S
C339 O332 1.266 . S
Co340 O343 1.970 . S
Co340 N357 1.989 . S
Co340 O365 1.967 . S
Co340 O372 1.920 . S
Co341 O344 1.966 . S
Co341 N350 2.022 . S
Co341 N358 1.993 . S
Co341 O366 1.941 . S
C342 O343 1.258 . S
C342 O344 1.263 . S
O343 Co340 1.970 . S
O343 C342 1.258 . S
O344 Co341 1.966 . S
O344 C342 1.263 . S
C345 O346 1.235 . S
C345 O372 1.289 . S
O346 C345 1.235 . S
C347 C349 1.400 1_545 S
C347 N350 1.351 . S
C347 C352 1.501 . S
C348 C349 1.387 1_545 S
C348 N351 1.341 . S
C349 C347 1.400 1_565 S
C349 C348 1.387 1_565 S
N350 Co341 2.022 . S
N350 C347 1.351 . S
N350 N351 1.365 . S
N351 C348 1.341 . S
N351 N350 1.365 . S
N351 H371 0.862 . S
C352 C347 1.501 . S
C352 H353 0.961 . S
C352 H354 0.961 . S
C352 H355 0.960 . S
H353 C352 0.961 . S
H354 C352 0.961 . S
H355 C352 0.960 . S
C356 N357 1.342 . S
C356 C360 1.401 . S
C356 C361 1.499 . S
N357 Co340 1.989 . S
N357 C356 1.342 . S
N357 N358 1.388 . S
N358 Co341 1.993 . S
N358 N357 1.388 . S
N358 C359 1.346 . S
C359 N358 1.346 . S
C359 C360 1.396 . S
C359 C369 1.510 . S
C360 C356 1.401 . S
C360 C359 1.396 . S
C361 C356 1.499 . S
C361 H362 0.959 . S
C361 H363 0.960 . S
C361 H364 0.961 . S
H362 C361 0.959 . S
H363 C361 0.960 . S
H364 C361 0.961 . S
O365 Co340 1.967 . S
O365 C373 1.258 . S
O366 Co341 1.941 . S
O366 C373 1.266 . S
H367 C369 0.959 . S
H368 C369 0.961 . S
C369 C359 1.510 . S
C369 H367 0.959 . S
C369 H368 0.961 . S
C369 H370 0.960 . S
H370 C369 0.960 . S
H371 N351 0.862 . S
O372 Co340 1.920 . S
O372 C345 1.289 . S
C373 O365 1.258 . S
C373 O366 1.266 . S
Co374 O377 1.970 . S
Co374 N391 1.989 . S
Co374 O399 1.967 . S
Co374 O406 1.920 . S
Co375 O378 1.966 . S
Co375 N384 2.022 . S
Co375 N392 1.993 . S
Co375 O400 1.941 . S
C376 O377 1.258 . S
C376 O378 1.263 . S
O377 Co374 1.970 . S
O377 C376 1.258 . S
O378 Co375 1.966 . S
O378 C376 1.263 . S
C379 O380 1.235 . S
C379 O406 1.289 . S
O380 C379 1.235 . S
C381 C383 1.400 1_655 S
C381 N384 1.351 . S
C381 C386 1.501 . S
C382 C383 1.387 1_655 S
C382 N385 1.341 . S
C383 C381 1.400 1_455 S
C383 C382 1.387 1_455 S
N384 Co375 2.022 . S
N384 C381 1.351 . S
N384 N385 1.365 . S
N385 C382 1.341 . S
N385 N384 1.365 . S
N385 H405 0.862 . S
C386 C381 1.501 . S
C386 H387 0.961 . S
C386 H388 0.961 . S
C386 H389 0.960 . S
H387 C386 0.961 . S
H388 C386 0.961 . S
H389 C386 0.960 . S
C390 N391 1.342 . S
C390 C394 1.401 . S
C390 C395 1.499 . S
N391 Co374 1.989 . S
N391 C390 1.342 . S
N391 N392 1.388 . S
N392 Co375 1.993 . S
N392 N391 1.388 . S
N392 C393 1.346 . S
C393 N392 1.346 . S
C393 C394 1.396 . S
C393 C403 1.510 . S
C394 C390 1.401 . S
C394 C393 1.396 . S
C395 C390 1.499 . S
C395 H396 0.959 . S
C395 H397 0.960 . S
C395 H398 0.961 . S
H396 C395 0.959 . S
H397 C395 0.960 . S
H398 C395 0.961 . S
O399 Co374 1.967 . S
O399 C407 1.258 . S
O400 Co375 1.941 . S
O400 C407 1.266 . S
H401 C403 0.959 . S
H402 C403 0.961 . S
C403 C393 1.510 . S
C403 H401 0.959 . S
C403 H402 0.961 . S
C403 H404 0.960 . S
H404 C403 0.960 . S
H405 N385 0.862 . S
O406 Co374 1.920 . S
O406 C379 1.289 . S
C407 O399 1.258 . S
C407 O400 1.266 . S
Co408 O411 1.970 . S
Co408 N425 1.989 . S
Co408 O433 1.967 . S
Co408 O440 1.920 . S
Co409 O412 1.966 . S
Co409 N418 2.022 . S
Co409 N426 1.993 . S
Co409 O434 1.941 . S
C410 O411 1.258 . S
C410 O412 1.263 . S
O411 Co408 1.970 . S
O411 C410 1.258 . S
O412 Co409 1.966 . S
O412 C410 1.263 . S
C413 O414 1.235 . S
C413 O440 1.289 . S
O414 C413 1.235 . S
C415 C417 1.400 . S
C415 N418 1.351 . S
C415 C420 1.501 . S
C416 C417 1.387 . S
C416 N419 1.341 . S
C417 C415 1.400 . S
C417 C416 1.387 . S
N418 Co409 2.022 . S
N418 C415 1.351 . S
N418 N419 1.365 . S
N419 C416 1.341 . S
N419 N418 1.365 . S
N419 H439 0.862 . S
C420 C415 1.501 . S
C420 H421 0.961 . S
C420 H422 0.961 . S
C420 H423 0.960 . S
H421 C420 0.961 . S
H422 C420 0.961 . S
H423 C420 0.960 . S
C424 N425 1.342 . S
C424 C428 1.401 . S
C424 C429 1.499 . S
N425 Co408 1.989 . S
N425 C424 1.342 . S
N425 N426 1.388 . S
N426 Co409 1.993 . S
N426 N425 1.388 . S
N426 C427 1.346 . S
C427 N426 1.346 . S
C427 C428 1.396 . S
C427 C437 1.510 . S
C428 C424 1.401 . S
C428 C427 1.396 . S
C429 C424 1.499 . S
C429 H430 0.959 . S
C429 H431 0.960 . S
C429 H432 0.961 . S
H430 C429 0.959 . S
H431 C429 0.960 . S
H432 C429 0.961 . S
O433 Co408 1.967 . S
O433 C441 1.258 . S
O434 Co409 1.941 . S
O434 C441 1.266 . S
H435 C437 0.959 . S
H436 C437 0.961 . S
C437 C427 1.510 . S
C437 H435 0.959 . S
C437 H436 0.961 . S
C437 H438 0.960 . S
H438 C437 0.960 . S
H439 N419 0.862 . S
O440 Co408 1.920 . S
O440 C413 1.289 . S
C441 O433 1.258 . S
C441 O434 1.266 . S
Co442 O445 1.970 . S
Co442 N459 1.989 . S
Co442 O467 1.967 . S
Co442 O474 1.920 . S
Co443 O446 1.966 . S
Co443 N452 2.022 . S
Co443 N460 1.993 . S
Co443 O468 1.941 . S
C444 O445 1.258 . S
C444 O446 1.263 . S
O445 Co442 1.970 . S
O445 C444 1.258 . S
O446 Co443 1.966 . S
O446 C444 1.263 . S
C447 O448 1.235 . S
C447 O474 1.289 . S
O448 C447 1.235 . S
C449 C451 1.400 . S
C449 N452 1.351 . S
C449 C454 1.501 . S
C450 C451 1.387 . S
C450 N453 1.341 . S
C451 C449 1.400 . S
C451 C450 1.387 . S
N452 Co443 2.022 . S
N452 C449 1.351 . S
N452 N453 1.365 . S
N453 C450 1.341 . S
N453 N452 1.365 . S
N453 H473 0.862 . S
C454 C449 1.501 . S
C454 H455 0.961 . S
C454 H456 0.961 . S
C454 H457 0.960 . S
H455 C454 0.961 . S
H456 C454 0.961 . S
H457 C454 0.960 . S
C458 N459 1.342 . S
C458 C462 1.401 . S
C458 C463 1.499 . S
N459 Co442 1.989 . S
N459 C458 1.342 . S
N459 N460 1.388 . S
N460 Co443 1.993 . S
N460 N459 1.388 . S
N460 C461 1.346 . S
C461 N460 1.346 . S
C461 C462 1.396 . S
C461 C471 1.510 . S
C462 C458 1.401 . S
C462 C461 1.396 . S
C463 C458 1.499 . S
C463 H464 0.959 . S
C463 H465 0.960 . S
C463 H466 0.961 . S
H464 C463 0.959 . S
H465 C463 0.960 . S
H466 C463 0.961 . S
O467 Co442 1.967 . S
O467 C475 1.258 . S
O468 Co443 1.941 . S
O468 C475 1.266 . S
H469 C471 0.959 . S
H470 C471 0.961 . S
C471 C461 1.510 . S
C471 H469 0.959 . S
C471 H470 0.961 . S
C471 H472 0.960 . S
H472 C471 0.960 . S
H473 N453 0.862 . S
O474 Co442 1.920 . S
O474 C447 1.289 . S
C475 O467 1.258 . S
C475 O468 1.266 . S
Co476 O479 1.970 . S
Co476 N493 1.989 . S
Co476 O501 1.967 . S
Co476 O508 1.920 . S
Co477 O480 1.966 . S
Co477 N486 2.022 . S
Co477 N494 1.993 . S
Co477 O502 1.941 . S
C478 O479 1.258 . S
C478 O480 1.263 . S
O479 Co476 1.970 . S
O479 C478 1.258 . S
O480 Co477 1.966 . S
O480 C478 1.263 . S
C481 O482 1.235 . S
C481 O508 1.289 . S
O482 C481 1.235 . S
C483 C485 1.400 . S
C483 N486 1.351 . S
C483 C488 1.501 . S
C484 C485 1.387 . S
C484 N487 1.341 . S
C485 C483 1.400 . S
C485 C484 1.387 . S
N486 Co477 2.022 . S
N486 C483 1.351 . S
N486 N487 1.365 . S
N487 C484 1.341 . S
N487 N486 1.365 . S
N487 H507 0.862 . S
C488 C483 1.501 . S
C488 H489 0.961 . S
C488 H490 0.961 . S
C488 H491 0.960 . S
H489 C488 0.961 . S
H490 C488 0.961 . S
H491 C488 0.960 . S
C492 N493 1.342 . S
C492 C496 1.401 . S
C492 C497 1.499 . S
N493 Co476 1.989 . S
N493 C492 1.342 . S
N493 N494 1.388 . S
N494 Co477 1.993 . S
N494 N493 1.388 . S
N494 C495 1.346 . S
C495 N494 1.346 . S
C495 C496 1.396 . S
C495 C505 1.510 . S
C496 C492 1.401 . S
C496 C495 1.396 . S
C497 C492 1.499 . S
C497 H498 0.959 . S
C497 H499 0.960 . S
C497 H500 0.961 . S
H498 C497 0.959 . S
H499 C497 0.960 . S
H500 C497 0.961 . S
O501 Co476 1.967 . S
O501 C509 1.258 . S
O502 Co477 1.941 . S
O502 C509 1.266 . S
H503 C505 0.959 . S
H504 C505 0.961 . S
C505 C495 1.510 . S
C505 H503 0.959 . S
C505 H504 0.961 . S
C505 H506 0.960 . S
H506 C505 0.960 . S
H507 N487 0.862 . S
O508 Co476 1.920 . S
O508 C481 1.289 . S
C509 O501 1.258 . S
C509 O502 1.266 . S
Co510 O513 1.970 . S
Co510 N527 1.989 . S
Co510 O535 1.967 . S
Co510 O542 1.920 . S
Co511 O514 1.966 . S
Co511 N520 2.022 . S
Co511 N528 1.993 . S
Co511 O536 1.941 . S
C512 O513 1.258 . S
C512 O514 1.263 . S
O513 Co510 1.970 . S
O513 C512 1.258 . S
O514 Co511 1.966 . S
O514 C512 1.263 . S
C515 O516 1.235 . S
C515 O542 1.289 . S
O516 C515 1.235 . S
C517 C519 1.400 . S
C517 N520 1.351 . S
C517 C522 1.501 . S
C518 C519 1.387 . S
C518 N521 1.341 . S
C519 C517 1.400 . S
C519 C518 1.387 . S
N520 Co511 2.022 . S
N520 C517 1.351 . S
N520 N521 1.365 . S
N521 C518 1.341 . S
N521 N520 1.365 . S
N521 H541 0.862 . S
C522 C517 1.501 . S
C522 H523 0.961 . S
C522 H524 0.961 . S
C522 H525 0.960 . S
H523 C522 0.961 . S
H524 C522 0.961 . S
H525 C522 0.960 . S
C526 N527 1.342 . S
C526 C530 1.401 . S
C526 C531 1.499 . S
N527 Co510 1.989 . S
N527 C526 1.342 . S
N527 N528 1.388 . S
N528 Co511 1.993 . S
N528 N527 1.388 . S
N528 C529 1.346 . S
C529 N528 1.346 . S
C529 C530 1.396 . S
C529 C539 1.510 . S
C530 C526 1.401 . S
C530 C529 1.396 . S
C531 C526 1.499 . S
C531 H532 0.959 . S
C531 H533 0.960 . S
C531 H534 0.961 . S
H532 C531 0.959 . S
H533 C531 0.960 . S
H534 C531 0.961 . S
O535 Co510 1.967 . S
O535 C543 1.258 . S
O536 Co511 1.941 . S
O536 C543 1.266 . S
H537 C539 0.959 . S
H538 C539 0.961 . S
C539 C529 1.510 . S
C539 H537 0.959 . S
C539 H538 0.961 . S
C539 H540 0.960 . S
H540 C539 0.960 . S
H541 N521 0.862 . S
O542 Co510 1.920 . S
O542 C515 1.289 . S
C543 O535 1.258 . S
C543 O536 1.266 . S
Co544 O547 1.970 . S
Co544 N561 1.989 . S
Co544 O569 1.967 . S
Co544 O576 1.920 . S
Co545 O548 1.966 . S
Co545 N554 2.022 . S
Co545 N562 1.993 . S
Co545 O570 1.941 . S
C546 O547 1.258 . S
C546 O548 1.263 . S
O547 Co544 1.970 . S
O547 C546 1.258 . S
O548 Co545 1.966 . S
O548 C546 1.263 . S
C549 O550 1.235 . S
C549 O576 1.289 . S
O550 C549 1.235 . S
C551 C553 1.400 . S
C551 N554 1.351 . S
C551 C556 1.501 . S
C552 C553 1.387 . S
C552 N555 1.341 . S
C553 C551 1.400 . S
C553 C552 1.387 . S
N554 Co545 2.022 . S
N554 C551 1.351 . S
N554 N555 1.365 . S
N555 C552 1.341 . S
N555 N554 1.365 . S
N555 H575 0.862 . S
C556 C551 1.501 . S
C556 H557 0.961 . S
C556 H558 0.961 . S
C556 H559 0.960 . S
H557 C556 0.961 . S
H558 C556 0.961 . S
H559 C556 0.960 . S
C560 N561 1.342 . S
C560 C564 1.401 . S
C560 C565 1.499 . S
N561 Co544 1.989 . S
N561 C560 1.342 . S
N561 N562 1.388 . S
N562 Co545 1.993 . S
N562 N561 1.388 . S
N562 C563 1.346 . S
C563 N562 1.346 . S
C563 C564 1.396 . S
C563 C573 1.510 . S
C564 C560 1.401 . S
C564 C563 1.396 . S
C565 C560 1.499 . S
C565 H566 0.959 . S
C565 H567 0.960 . S
C565 H568 0.961 . S
H566 C565 0.959 . S
H567 C565 0.960 . S
H568 C565 0.961 . S
O569 Co544 1.967 . S
O569 C577 1.258 . S
O570 Co545 1.941 . S
O570 C577 1.266 . S
H571 C573 0.959 . S
H572 C573 0.961 . S
C573 C563 1.510 . S
C573 H571 0.959 . S
C573 H572 0.961 . S
C573 H574 0.960 . S
H574 C573 0.960 . S
H575 N555 0.862 . S
O576 Co544 1.920 . S
O576 C549 1.289 . S
C577 O569 1.258 . S
C577 O570 1.266 . S
Co578 O581 1.970 . S
Co578 N595 1.989 . S
Co578 O603 1.967 . S
Co578 O610 1.920 . S
Co579 O582 1.966 . S
Co579 N588 2.022 . S
Co579 N596 1.993 . S
Co579 O604 1.941 . S
C580 O581 1.258 . S
C580 O582 1.263 . S
O581 Co578 1.970 . S
O581 C580 1.258 . S
O582 Co579 1.966 . S
O582 C580 1.263 . S
C583 O584 1.235 . S
C583 O610 1.289 . S
O584 C583 1.235 . S
C585 C587 1.400 . S
C585 N588 1.351 . S
C585 C590 1.501 . S
C586 C587 1.387 . S
C586 N589 1.341 . S
C587 C585 1.400 . S
C587 C586 1.387 . S
N588 Co579 2.022 . S
N588 C585 1.351 . S
N588 N589 1.365 . S
N589 C586 1.341 . S
N589 N588 1.365 . S
N589 H609 0.862 . S
C590 C585 1.501 . S
C590 H591 0.961 . S
C590 H592 0.961 . S
C590 H593 0.960 . S
H591 C590 0.961 . S
H592 C590 0.961 . S
H593 C590 0.960 . S
C594 N595 1.342 . S
C594 C598 1.401 . S
C594 C599 1.499 . S
N595 Co578 1.989 . S
N595 C594 1.342 . S
N595 N596 1.388 . S
N596 Co579 1.993 . S
N596 N595 1.388 . S
N596 C597 1.346 . S
C597 N596 1.346 . S
C597 C598 1.396 . S
C597 C607 1.510 . S
C598 C594 1.401 . S
C598 C597 1.396 . S
C599 C594 1.499 . S
C599 H600 0.959 . S
C599 H601 0.960 . S
C599 H602 0.961 . S
H600 C599 0.959 . S
H601 C599 0.960 . S
H602 C599 0.961 . S
O603 Co578 1.967 . S
O603 C611 1.258 . S
O604 Co579 1.941 . S
O604 C611 1.266 . S
H605 C607 0.959 . S
H606 C607 0.961 . S
C607 C597 1.510 . S
C607 H605 0.959 . S
C607 H606 0.961 . S
C607 H608 0.960 . S
H608 C607 0.960 . S
H609 N589 0.862 . S
O610 Co578 1.920 . S
O610 C583 1.289 . S
C611 O603 1.258 . S
C611 O604 1.266 . S
Co612 O615 1.970 . S
Co612 N629 1.989 . S
Co612 O637 1.967 . S
Co612 O644 1.920 . S
Co613 O616 1.966 . S
Co613 N622 2.022 . S
Co613 N630 1.993 . S
Co613 O638 1.941 . S
C614 O615 1.258 . S
C614 O616 1.263 . S
O615 Co612 1.970 . S
O615 C614 1.258 . S
O616 Co613 1.966 . S
O616 C614 1.263 . S
C617 O618 1.235 . S
C617 O644 1.289 . S
O618 C617 1.235 . S
C619 C621 1.400 . S
C619 N622 1.351 . S
C619 C624 1.501 . S
C620 C621 1.387 . S
C620 N623 1.341 . S
C621 C619 1.400 . S
C621 C620 1.387 . S
N622 Co613 2.022 . S
N622 C619 1.351 . S
N622 N623 1.365 . S
N623 C620 1.341 . S
N623 N622 1.365 . S
N623 H643 0.862 . S
C624 C619 1.501 . S
C624 H625 0.961 . S
C624 H626 0.961 . S
C624 H627 0.960 . S
H625 C624 0.961 . S
H626 C624 0.961 . S
H627 C624 0.960 . S
C628 N629 1.342 . S
C628 C632 1.401 . S
C628 C633 1.499 . S
N629 Co612 1.989 . S
N629 C628 1.342 . S
N629 N630 1.388 . S
N630 Co613 1.993 . S
N630 N629 1.388 . S
N630 C631 1.346 . S
C631 N630 1.346 . S
C631 C632 1.396 . S
C631 C641 1.510 . S
C632 C628 1.401 . S
C632 C631 1.396 . S
C633 C628 1.499 . S
C633 H634 0.959 . S
C633 H635 0.960 . S
C633 H636 0.961 . S
H634 C633 0.959 . S
H635 C633 0.960 . S
H636 C633 0.961 . S
O637 Co612 1.967 . S
O637 C645 1.258 . S
O638 Co613 1.941 . S
O638 C645 1.266 . S
H639 C641 0.959 . S
H640 C641 0.961 . S
C641 C631 1.510 . S
C641 H639 0.959 . S
C641 H640 0.961 . S
C641 H642 0.960 . S
H642 C641 0.960 . S
H643 N623 0.862 . S
O644 Co612 1.920 . S
O644 C617 1.289 . S
C645 O637 1.258 . S
C645 O638 1.266 . S
Co646 O649 1.970 . S
Co646 N663 1.989 . S
Co646 O671 1.967 . S
Co646 O678 1.920 . S
Co647 O650 1.966 . S
Co647 N656 2.022 . S
Co647 N664 1.993 . S
Co647 O672 1.941 . S
C648 O649 1.258 . S
C648 O650 1.263 . S
O649 Co646 1.970 . S
O649 C648 1.258 . S
O650 Co647 1.966 . S
O650 C648 1.263 . S
C651 O652 1.235 . S
C651 O678 1.289 . S
O652 C651 1.235 . S
C653 C655 1.400 . S
C653 N656 1.351 . S
C653 C658 1.501 . S
C654 C655 1.387 . S
C654 N657 1.341 . S
C655 C653 1.400 . S
C655 C654 1.387 . S
N656 Co647 2.022 . S
N656 C653 1.351 . S
N656 N657 1.365 . S
N657 C654 1.341 . S
N657 N656 1.365 . S
N657 H677 0.862 . S
C658 C653 1.501 . S
C658 H659 0.961 . S
C658 H660 0.961 . S
C658 H661 0.960 . S
H659 C658 0.961 . S
H660 C658 0.961 . S
H661 C658 0.960 . S
C662 N663 1.342 . S
C662 C666 1.401 . S
C662 C667 1.499 . S
N663 Co646 1.989 . S
N663 C662 1.342 . S
N663 N664 1.388 . S
N664 Co647 1.993 . S
N664 N663 1.388 . S
N664 C665 1.346 . S
C665 N664 1.346 . S
C665 C666 1.396 . S
C665 C675 1.510 . S
C666 C662 1.401 . S
C666 C665 1.396 . S
C667 C662 1.499 . S
C667 H668 0.959 . S
C667 H669 0.960 . S
C667 H670 0.961 . S
H668 C667 0.959 . S
H669 C667 0.960 . S
H670 C667 0.961 . S
O671 Co646 1.967 . S
O671 C679 1.258 . S
O672 Co647 1.941 . S
O672 C679 1.266 . S
H673 C675 0.959 . S
H674 C675 0.961 . S
C675 C665 1.510 . S
C675 H673 0.959 . S
C675 H674 0.961 . S
C675 H676 0.960 . S
H676 C675 0.960 . S
H677 N657 0.862 . S
O678 Co646 1.920 . S
O678 C651 1.289 . S
C679 O671 1.258 . S
C679 O672 1.266 . S
Co680 O683 1.970 . S
Co680 N697 1.989 . S
Co680 O705 1.967 . S
Co680 O712 1.920 . S
Co681 O684 1.966 . S
Co681 N690 2.022 . S
Co681 N698 1.993 . S
Co681 O706 1.941 . S
C682 O683 1.258 . S
C682 O684 1.263 . S
O683 Co680 1.970 . S
O683 C682 1.258 . S
O684 Co681 1.966 . S
O684 C682 1.263 . S
C685 O686 1.235 . S
C685 O712 1.289 . S
O686 C685 1.235 . S
C687 C689 1.400 . S
C687 N690 1.351 . S
C687 C692 1.501 . S
C688 C689 1.387 . S
C688 N691 1.341 . S
C689 C687 1.400 . S
C689 C688 1.387 . S
N690 Co681 2.022 . S
N690 C687 1.351 . S
N690 N691 1.365 . S
N691 C688 1.341 . S
N691 N690 1.365 . S
N691 H711 0.862 . S
C692 C687 1.501 . S
C692 H693 0.961 . S
C692 H694 0.961 . S
C692 H695 0.960 . S
H693 C692 0.961 . S
H694 C692 0.961 . S
H695 C692 0.960 . S
C696 N697 1.342 . S
C696 C700 1.401 . S
C696 C701 1.499 . S
N697 Co680 1.989 . S
N697 C696 1.342 . S
N697 N698 1.388 . S
N698 Co681 1.993 . S
N698 N697 1.388 . S
N698 C699 1.346 . S
C699 N698 1.346 . S
C699 C700 1.396 . S
C699 C709 1.510 . S
C700 C696 1.401 . S
C700 C699 1.396 . S
C701 C696 1.499 . S
C701 H702 0.959 . S
C701 H703 0.960 . S
C701 H704 0.961 . S
H702 C701 0.959 . S
H703 C701 0.960 . S
H704 C701 0.961 . S
O705 Co680 1.967 . S
O705 C713 1.258 . S
O706 Co681 1.941 . S
O706 C713 1.266 . S
H707 C709 0.959 . S
H708 C709 0.961 . S
C709 C699 1.510 . S
C709 H707 0.959 . S
C709 H708 0.961 . S
C709 H710 0.960 . S
H710 C709 0.960 . S
H711 N691 0.862 . S
O712 Co680 1.920 . S
O712 C685 1.289 . S
C713 O705 1.258 . S
C713 O706 1.266 . S
Co714 O717 1.970 . S
Co714 N731 1.989 . S
Co714 O739 1.967 . S
Co714 O746 1.920 . S
Co715 O718 1.966 . S
Co715 N724 2.022 . S
Co715 N732 1.993 . S
Co715 O740 1.941 . S
C716 O717 1.258 . S
C716 O718 1.263 . S
O717 Co714 1.970 . S
O717 C716 1.258 . S
O718 Co715 1.966 . S
O718 C716 1.263 . S
C719 O720 1.235 . S
C719 O746 1.289 . S
O720 C719 1.235 . S
C721 C723 1.400 . S
C721 N724 1.351 . S
C721 C726 1.501 . S
C722 C723 1.387 . S
C722 N725 1.341 . S
C723 C721 1.400 . S
C723 C722 1.387 . S
N724 Co715 2.022 . S
N724 C721 1.351 . S
N724 N725 1.365 . S
N725 C722 1.341 . S
N725 N724 1.365 . S
N725 H745 0.862 . S
C726 C721 1.501 . S
C726 H727 0.961 . S
C726 H728 0.961 . S
C726 H729 0.960 . S
H727 C726 0.961 . S
H728 C726 0.961 . S
H729 C726 0.960 . S
C730 N731 1.342 . S
C730 C734 1.401 . S
C730 C735 1.499 . S
N731 Co714 1.989 . S
N731 C730 1.342 . S
N731 N732 1.388 . S
N732 Co715 1.993 . S
N732 N731 1.388 . S
N732 C733 1.346 . S
C733 N732 1.346 . S
C733 C734 1.396 . S
C733 C743 1.510 . S
C734 C730 1.401 . S
C734 C733 1.396 . S
C735 C730 1.499 . S
C735 H736 0.959 . S
C735 H737 0.960 . S
C735 H738 0.961 . S
H736 C735 0.959 . S
H737 C735 0.960 . S
H738 C735 0.961 . S
O739 Co714 1.967 . S
O739 C747 1.258 . S
O740 Co715 1.941 . S
O740 C747 1.266 . S
H741 C743 0.959 . S
H742 C743 0.961 . S
C743 C733 1.510 . S
C743 H741 0.959 . S
C743 H742 0.961 . S
C743 H744 0.960 . S
H744 C743 0.960 . S
H745 N725 0.862 . S
O746 Co714 1.920 . S
O746 C719 1.289 . S
C747 O739 1.258 . S
C747 O740 1.266 . S
Co748 O751 1.970 . S
Co748 N765 1.989 . S
Co748 O773 1.967 . S
Co748 O780 1.920 . S
Co749 O752 1.966 . S
Co749 N758 2.022 . S
Co749 N766 1.993 . S
Co749 O774 1.941 . S
C750 O751 1.258 . S
C750 O752 1.263 . S
O751 Co748 1.970 . S
O751 C750 1.258 . S
O752 Co749 1.966 . S
O752 C750 1.263 . S
C753 O754 1.235 . S
C753 O780 1.289 . S
O754 C753 1.235 . S
C755 C757 1.400 . S
C755 N758 1.351 . S
C755 C760 1.501 . S
C756 C757 1.387 . S
C756 N759 1.341 . S
C757 C755 1.400 . S
C757 C756 1.387 . S
N758 Co749 2.022 . S
N758 C755 1.351 . S
N758 N759 1.365 . S
N759 C756 1.341 . S
N759 N758 1.365 . S
N759 H779 0.862 . S
C760 C755 1.501 . S
C760 H761 0.961 . S
C760 H762 0.961 . S
C760 H763 0.960 . S
H761 C760 0.961 . S
H762 C760 0.961 . S
H763 C760 0.960 . S
C764 N765 1.342 . S
C764 C768 1.401 . S
C764 C769 1.499 . S
N765 Co748 1.989 . S
N765 C764 1.342 . S
N765 N766 1.388 . S
N766 Co749 1.993 . S
N766 N765 1.388 . S
N766 C767 1.346 . S
C767 N766 1.346 . S
C767 C768 1.396 . S
C767 C777 1.510 . S
C768 C764 1.401 . S
C768 C767 1.396 . S
C769 C764 1.499 . S
C769 H770 0.959 . S
C769 H771 0.960 . S
C769 H772 0.961 . S
H770 C769 0.959 . S
H771 C769 0.960 . S
H772 C769 0.961 . S
O773 Co748 1.967 . S
O773 C781 1.258 . S
O774 Co749 1.941 . S
O774 C781 1.266 . S
H775 C777 0.959 . S
H776 C777 0.961 . S
C777 C767 1.510 . S
C777 H775 0.959 . S
C777 H776 0.961 . S
C777 H778 0.960 . S
H778 C777 0.960 . S
H779 N759 0.862 . S
O780 Co748 1.920 . S
O780 C753 1.289 . S
C781 O773 1.258 . S
C781 O774 1.266 . S
Co782 O785 1.970 . S
Co782 N799 1.989 . S
Co782 O807 1.967 . S
Co782 O814 1.920 . S
Co783 O786 1.966 . S
Co783 N792 2.022 . S
Co783 N800 1.993 . S
Co783 O808 1.941 . S
C784 O785 1.258 . S
C784 O786 1.263 . S
O785 Co782 1.970 . S
O785 C784 1.258 . S
O786 Co783 1.966 . S
O786 C784 1.263 . S
C787 O788 1.235 . S
C787 O814 1.289 . S
O788 C787 1.235 . S
C789 C791 1.400 . S
C789 N792 1.351 . S
C789 C794 1.501 . S
C790 C791 1.387 . S
C790 N793 1.341 . S
C791 C789 1.400 . S
C791 C790 1.387 . S
N792 Co783 2.022 . S
N792 C789 1.351 . S
N792 N793 1.365 . S
N793 C790 1.341 . S
N793 N792 1.365 . S
N793 H813 0.862 . S
C794 C789 1.501 . S
C794 H795 0.961 . S
C794 H796 0.961 . S
C794 H797 0.960 . S
H795 C794 0.961 . S
H796 C794 0.961 . S
H797 C794 0.960 . S
C798 N799 1.342 . S
C798 C802 1.401 . S
C798 C803 1.499 . S
N799 Co782 1.989 . S
N799 C798 1.342 . S
N799 N800 1.388 . S
N800 Co783 1.993 . S
N800 N799 1.388 . S
N800 C801 1.346 . S
C801 N800 1.346 . S
C801 C802 1.396 . S
C801 C811 1.510 . S
C802 C798 1.401 . S
C802 C801 1.396 . S
C803 C798 1.499 . S
C803 H804 0.959 . S
C803 H805 0.960 . S
C803 H806 0.961 . S
H804 C803 0.959 . S
H805 C803 0.960 . S
H806 C803 0.961 . S
O807 Co782 1.967 . S
O807 C815 1.258 . S
O808 Co783 1.941 . S
O808 C815 1.266 . S
H809 C811 0.959 . S
H810 C811 0.961 . S
C811 C801 1.510 . S
C811 H809 0.959 . S
C811 H810 0.961 . S
C811 H812 0.960 . S
H812 C811 0.960 . S
H813 N793 0.862 . S
O814 Co782 1.920 . S
O814 C787 1.289 . S
C815 O807 1.258 . S
C815 O808 1.266 . S
Co816 O819 1.970 . S
Co816 N833 1.989 . S
Co816 O841 1.967 . S
Co816 O848 1.920 . S
Co817 O820 1.966 . S
Co817 N826 2.022 . S
Co817 N834 1.993 . S
Co817 O842 1.941 . S
C818 O819 1.258 . S
C818 O820 1.263 . S
O819 Co816 1.970 . S
O819 C818 1.258 . S
O820 Co817 1.966 . S
O820 C818 1.263 . S
C821 O822 1.235 . S
C821 O848 1.289 . S
O822 C821 1.235 . S
C823 C825 1.400 . S
C823 N826 1.351 . S
C823 C828 1.501 . S
C824 C825 1.387 . S
C824 N827 1.341 . S
C825 C823 1.400 . S
C825 C824 1.387 . S
N826 Co817 2.022 . S
N826 C823 1.351 . S
N826 N827 1.365 . S
N827 C824 1.341 . S
N827 N826 1.365 . S
N827 H847 0.862 . S
C828 C823 1.501 . S
C828 H829 0.961 . S
C828 H830 0.961 . S
C828 H831 0.960 . S
H829 C828 0.961 . S
H830 C828 0.961 . S
H831 C828 0.960 . S
C832 N833 1.342 . S
C832 C836 1.401 . S
C832 C837 1.499 . S
N833 Co816 1.989 . S
N833 C832 1.342 . S
N833 N834 1.388 . S
N834 Co817 1.993 . S
N834 N833 1.388 . S
N834 C835 1.346 . S
C835 N834 1.346 . S
C835 C836 1.396 . S
C835 C845 1.510 . S
C836 C832 1.401 . S
C836 C835 1.396 . S
C837 C832 1.499 . S
C837 H838 0.959 . S
C837 H839 0.960 . S
C837 H840 0.961 . S
H838 C837 0.959 . S
H839 C837 0.960 . S
H840 C837 0.961 . S
O841 Co816 1.967 . S
O841 C849 1.258 . S
O842 Co817 1.941 . S
O842 C849 1.266 . S
H843 C845 0.959 . S
H844 C845 0.961 . S
C845 C835 1.510 . S
C845 H843 0.959 . S
C845 H844 0.961 . S
C845 H846 0.960 . S
H846 C845 0.960 . S
H847 N827 0.862 . S
O848 Co816 1.920 . S
O848 C821 1.289 . S
C849 O841 1.258 . S
C849 O842 1.266 . S
Co850 O853 1.970 . S
Co850 N867 1.989 . S
Co850 O875 1.967 . S
Co850 O882 1.920 . S
Co851 O854 1.966 . S
Co851 N860 2.022 . S
Co851 N868 1.993 . S
Co851 O876 1.941 . S
C852 O853 1.258 . S
C852 O854 1.263 . S
O853 Co850 1.970 . S
O853 C852 1.258 . S
O854 Co851 1.966 . S
O854 C852 1.263 . S
C855 O856 1.235 . S
C855 O882 1.289 . S
O856 C855 1.235 . S
C857 C859 1.400 . S
C857 N860 1.351 . S
C857 C862 1.501 . S
C858 C859 1.387 . S
C858 N861 1.341 . S
C859 C857 1.400 . S
C859 C858 1.387 . S
N860 Co851 2.022 . S
N860 C857 1.351 . S
N860 N861 1.365 . S
N861 C858 1.341 . S
N861 N860 1.365 . S
N861 H881 0.862 . S
C862 C857 1.501 . S
C862 H863 0.961 . S
C862 H864 0.961 . S
C862 H865 0.960 . S
H863 C862 0.961 . S
H864 C862 0.961 . S
H865 C862 0.960 . S
C866 N867 1.342 . S
C866 C870 1.401 . S
C866 C871 1.499 . S
N867 Co850 1.989 . S
N867 C866 1.342 . S
N867 N868 1.388 . S
N868 Co851 1.993 . S
N868 N867 1.388 . S
N868 C869 1.346 . S
C869 N868 1.346 . S
C869 C870 1.396 . S
C869 C879 1.510 . S
C870 C866 1.401 . S
C870 C869 1.396 . S
C871 C866 1.499 . S
C871 H872 0.959 . S
C871 H873 0.960 . S
C871 H874 0.961 . S
H872 C871 0.959 . S
H873 C871 0.960 . S
H874 C871 0.961 . S
O875 Co850 1.967 . S
O875 C883 1.258 . S
O876 Co851 1.941 . S
O876 C883 1.266 . S
H877 C879 0.959 . S
H878 C879 0.961 . S
C879 C869 1.510 . S
C879 H877 0.959 . S
C879 H878 0.961 . S
C879 H880 0.960 . S
H880 C879 0.960 . S
H881 N861 0.862 . S
O882 Co850 1.920 . S
O882 C855 1.289 . S
C883 O875 1.258 . S
C883 O876 1.266 . S
Co884 O887 1.970 . S
Co884 N901 1.989 . S
Co884 O909 1.967 . S
Co884 O916 1.920 . S
Co885 O888 1.966 . S
Co885 N894 2.022 . S
Co885 N902 1.993 . S
Co885 O910 1.941 . S
C886 O887 1.258 . S
C886 O888 1.263 . S
O887 Co884 1.970 . S
O887 C886 1.258 . S
O888 Co885 1.966 . S
O888 C886 1.263 . S
C889 O890 1.235 . S
C889 O916 1.289 . S
O890 C889 1.235 . S
C891 C893 1.400 . S
C891 N894 1.351 . S
C891 C896 1.501 . S
C892 C893 1.387 . S
C892 N895 1.341 . S
C893 C891 1.400 . S
C893 C892 1.387 . S
N894 Co885 2.022 . S
N894 C891 1.351 . S
N894 N895 1.365 . S
N895 C892 1.341 . S
N895 N894 1.365 . S
N895 H915 0.862 . S
C896 C891 1.501 . S
C896 H897 0.961 . S
C896 H898 0.961 . S
C896 H899 0.960 . S
H897 C896 0.961 . S
H898 C896 0.961 . S
H899 C896 0.960 . S
C900 N901 1.342 . S
C900 C904 1.401 . S
C900 C905 1.499 . S
N901 Co884 1.989 . S
N901 C900 1.342 . S
N901 N902 1.388 . S
N902 Co885 1.993 . S
N902 N901 1.388 . S
N902 C903 1.346 . S
C903 N902 1.346 . S
C903 C904 1.396 . S
C903 C913 1.510 . S
C904 C900 1.401 . S
C904 C903 1.396 . S
C905 C900 1.499 . S
C905 H906 0.959 . S
C905 H907 0.960 . S
C905 H908 0.961 . S
H906 C905 0.959 . S
H907 C905 0.960 . S
H908 C905 0.961 . S
O909 Co884 1.967 . S
O909 C917 1.258 . S
O910 Co885 1.941 . S
O910 C917 1.266 . S
H911 C913 0.959 . S
H912 C913 0.961 . S
C913 C903 1.510 . S
C913 H911 0.959 . S
C913 H912 0.961 . S
C913 H914 0.960 . S
H914 C913 0.960 . S
H915 N895 0.862 . S
O916 Co884 1.920 . S
O916 C889 1.289 . S
C917 O909 1.258 . S
C917 O910 1.266 . S
Co918 O921 1.970 . S
Co918 N935 1.989 . S
Co918 O943 1.967 . S
Co918 O950 1.920 . S
Co919 O922 1.966 . S
Co919 N928 2.022 . S
Co919 N936 1.993 . S
Co919 O944 1.941 . S
C920 O921 1.258 . S
C920 O922 1.263 . S
O921 Co918 1.970 . S
O921 C920 1.258 . S
O922 Co919 1.966 . S
O922 C920 1.263 . S
C923 O924 1.235 . S
C923 O950 1.289 . S
O924 C923 1.235 . S
C925 C927 1.400 . S
C925 N928 1.351 . S
C925 C930 1.501 . S
C926 C927 1.387 . S
C926 N929 1.341 . S
C927 C925 1.400 . S
C927 C926 1.387 . S
N928 Co919 2.022 . S
N928 C925 1.351 . S
N928 N929 1.365 . S
N929 C926 1.341 . S
N929 N928 1.365 . S
N929 H949 0.862 . S
C930 C925 1.501 . S
C930 H931 0.961 . S
C930 H932 0.961 . S
C930 H933 0.960 . S
H931 C930 0.961 . S
H932 C930 0.961 . S
H933 C930 0.960 . S
C934 N935 1.342 . S
C934 C938 1.401 . S
C934 C939 1.499 . S
N935 Co918 1.989 . S
N935 C934 1.342 . S
N935 N936 1.388 . S
N936 Co919 1.993 . S
N936 N935 1.388 . S
N936 C937 1.346 . S
C937 N936 1.346 . S
C937 C938 1.396 . S
C937 C947 1.510 . S
C938 C934 1.401 . S
C938 C937 1.396 . S
C939 C934 1.499 . S
C939 H940 0.959 . S
C939 H941 0.960 . S
C939 H942 0.961 . S
H940 C939 0.959 . S
H941 C939 0.960 . S
H942 C939 0.961 . S
O943 Co918 1.967 . S
O943 C951 1.258 . S
O944 Co919 1.941 . S
O944 C951 1.266 . S
H945 C947 0.959 . S
H946 C947 0.961 . S
C947 C937 1.510 . S
C947 H945 0.959 . S
C947 H946 0.961 . S
C947 H948 0.960 . S
H948 C947 0.960 . S
H949 N929 0.862 . S
O950 Co918 1.920 . S
O950 C923 1.289 . S
C951 O943 1.258 . S
C951 O944 1.266 . S
Co952 O955 1.970 . S
Co952 N969 1.989 . S
Co952 O977 1.967 . S
Co952 O984 1.920 . S
Co953 O956 1.966 . S
Co953 N962 2.022 . S
Co953 N970 1.993 . S
Co953 O978 1.941 . S
C954 O955 1.258 . S
C954 O956 1.263 . S
O955 Co952 1.970 . S
O955 C954 1.258 . S
O956 Co953 1.966 . S
O956 C954 1.263 . S
C957 O958 1.235 . S
C957 O984 1.289 . S
O958 C957 1.235 . S
C959 C961 1.400 . S
C959 N962 1.351 . S
C959 C964 1.501 . S
C960 C961 1.387 . S
C960 N963 1.341 . S
C961 C959 1.400 . S
C961 C960 1.387 . S
N962 Co953 2.022 . S
N962 C959 1.351 . S
N962 N963 1.365 . S
N963 C960 1.341 . S
N963 N962 1.365 . S
N963 H983 0.862 . S
C964 C959 1.501 . S
C964 H965 0.961 . S
C964 H966 0.961 . S
C964 H967 0.960 . S
H965 C964 0.961 . S
H966 C964 0.961 . S
H967 C964 0.960 . S
C968 N969 1.342 . S
C968 C972 1.401 . S
C968 C973 1.499 . S
N969 Co952 1.989 . S
N969 C968 1.342 . S
N969 N970 1.388 . S
N970 Co953 1.993 . S
N970 N969 1.388 . S
N970 C971 1.346 . S
C971 N970 1.346 . S
C971 C972 1.396 . S
C971 C981 1.510 . S
C972 C968 1.401 . S
C972 C971 1.396 . S
C973 C968 1.499 . S
C973 H974 0.959 . S
C973 H975 0.960 . S
C973 H976 0.961 . S
H974 C973 0.959 . S
H975 C973 0.960 . S
H976 C973 0.961 . S
O977 Co952 1.967 . S
O977 C985 1.258 . S
O978 Co953 1.941 . S
O978 C985 1.266 . S
H979 C981 0.959 . S
H980 C981 0.961 . S
C981 C971 1.510 . S
C981 H979 0.959 . S
C981 H980 0.961 . S
C981 H982 0.960 . S
H982 C981 0.960 . S
H983 N963 0.862 . S
O984 Co952 1.920 . S
O984 C957 1.289 . S
C985 O977 1.258 . S
C985 O978 1.266 . S
Co986 O989 1.970 . S
Co986 N1003 1.989 . S
Co986 O1011 1.967 . S
Co986 O1018 1.920 . S
Co987 O990 1.966 . S
Co987 N996 2.022 . S
Co987 N1004 1.993 . S
Co987 O1012 1.941 . S
C988 O989 1.258 . S
C988 O990 1.263 . S
O989 Co986 1.970 . S
O989 C988 1.258 . S
O990 Co987 1.966 . S
O990 C988 1.263 . S
C991 O992 1.235 . S
C991 O1018 1.289 . S
O992 C991 1.235 . S
C993 C995 1.400 . S
C993 N996 1.351 . S
C993 C998 1.501 . S
C994 C995 1.387 . S
C994 N997 1.341 . S
C995 C993 1.400 . S
C995 C994 1.387 . S
N996 Co987 2.022 . S
N996 C993 1.351 . S
N996 N997 1.365 . S
N997 C994 1.341 . S
N997 N996 1.365 . S
N997 H1017 0.862 . S
C998 C993 1.501 . S
C998 H999 0.961 . S
C998 H1000 0.961 . S
C998 H1001 0.960 . S
H999 C998 0.961 . S
H1000 C998 0.961 . S
H1001 C998 0.960 . S
C1002 N1003 1.342 . S
C1002 C1006 1.401 . S
C1002 C1007 1.499 . S
N1003 Co986 1.989 . S
N1003 C1002 1.342 . S
N1003 N1004 1.388 . S
N1004 Co987 1.993 . S
N1004 N1003 1.388 . S
N1004 C1005 1.346 . S
C1005 N1004 1.346 . S
C1005 C1006 1.396 . S
C1005 C1015 1.510 . S
C1006 C1002 1.401 . S
C1006 C1005 1.396 . S
C1007 C1002 1.499 . S
C1007 H1008 0.959 . S
C1007 H1009 0.960 . S
C1007 H1010 0.961 . S
H1008 C1007 0.959 . S
H1009 C1007 0.960 . S
H1010 C1007 0.961 . S
O1011 Co986 1.967 . S
O1011 C1019 1.258 . S
O1012 Co987 1.941 . S
O1012 C1019 1.266 . S
H1013 C1015 0.959 . S
H1014 C1015 0.961 . S
C1015 C1005 1.510 . S
C1015 H1013 0.959 . S
C1015 H1014 0.961 . S
C1015 H1016 0.960 . S
H1016 C1015 0.960 . S
H1017 N997 0.862 . S
O1018 Co986 1.920 . S
O1018 C991 1.289 . S
C1019 O1011 1.258 . S
C1019 O1012 1.266 . S
Co1020 O1023 1.970 . S
Co1020 N1037 1.989 . S
Co1020 O1045 1.967 . S
Co1020 O1052 1.920 . S
Co1021 O1024 1.966 . S
Co1021 N1030 2.022 . S
Co1021 N1038 1.993 . S
Co1021 O1046 1.941 . S
C1022 O1023 1.258 . S
C1022 O1024 1.263 . S
O1023 Co1020 1.970 . S
O1023 C1022 1.258 . S
O1024 Co1021 1.966 . S
O1024 C1022 1.263 . S
C1025 O1026 1.235 . S
C1025 O1052 1.289 . S
O1026 C1025 1.235 . S
C1027 C1029 1.400 . S
C1027 N1030 1.351 . S
C1027 C1032 1.501 . S
C1028 C1029 1.387 . S
C1028 N1031 1.341 . S
C1029 C1027 1.400 . S
C1029 C1028 1.387 . S
N1030 Co1021 2.022 . S
N1030 C1027 1.351 . S
N1030 N1031 1.365 . S
N1031 C1028 1.341 . S
N1031 N1030 1.365 . S
N1031 H1051 0.862 . S
C1032 C1027 1.501 . S
C1032 H1033 0.961 . S
C1032 H1034 0.961 . S
C1032 H1035 0.960 . S
H1033 C1032 0.961 . S
H1034 C1032 0.961 . S
H1035 C1032 0.960 . S
C1036 N1037 1.342 . S
C1036 C1040 1.401 . S
C1036 C1041 1.499 . S
N1037 Co1020 1.989 . S
N1037 C1036 1.342 . S
N1037 N1038 1.388 . S
N1038 Co1021 1.993 . S
N1038 N1037 1.388 . S
N1038 C1039 1.346 . S
C1039 N1038 1.346 . S
C1039 C1040 1.396 . S
C1039 C1049 1.510 . S
C1040 C1036 1.401 . S
C1040 C1039 1.396 . S
C1041 C1036 1.499 . S
C1041 H1042 0.959 . S
C1041 H1043 0.960 . S
C1041 H1044 0.961 . S
H1042 C1041 0.959 . S
H1043 C1041 0.960 . S
H1044 C1041 0.961 . S
O1045 Co1020 1.967 . S
O1045 C1053 1.258 . S
O1046 Co1021 1.941 . S
O1046 C1053 1.266 . S
H1047 C1049 0.959 . S
H1048 C1049 0.961 . S
C1049 C1039 1.510 . S
C1049 H1047 0.959 . S
C1049 H1048 0.961 . S
C1049 H1050 0.960 . S
H1050 C1049 0.960 . S
H1051 N1031 0.862 . S
O1052 Co1020 1.920 . S
O1052 C1025 1.289 . S
C1053 O1045 1.258 . S
C1053 O1046 1.266 . S
Co1054 O1057 1.970 . S
Co1054 N1071 1.989 . S
Co1054 O1079 1.967 . S
Co1054 O1086 1.920 . S
Co1055 O1058 1.966 . S
Co1055 N1064 2.022 . S
Co1055 N1072 1.993 . S
Co1055 O1080 1.941 . S
C1056 O1057 1.258 . S
C1056 O1058 1.263 . S
O1057 Co1054 1.970 . S
O1057 C1056 1.258 . S
O1058 Co1055 1.966 . S
O1058 C1056 1.263 . S
C1059 O1060 1.235 . S
C1059 O1086 1.289 . S
O1060 C1059 1.235 . S
C1061 C1063 1.400 . S
C1061 N1064 1.351 . S
C1061 C1066 1.501 . S
C1062 C1063 1.387 . S
C1062 N1065 1.341 . S
C1063 C1061 1.400 . S
C1063 C1062 1.387 . S
N1064 Co1055 2.022 . S
N1064 C1061 1.351 . S
N1064 N1065 1.365 . S
N1065 C1062 1.341 . S
N1065 N1064 1.365 . S
N1065 H1085 0.862 . S
C1066 C1061 1.501 . S
C1066 H1067 0.961 . S
C1066 H1068 0.961 . S
C1066 H1069 0.960 . S
H1067 C1066 0.961 . S
H1068 C1066 0.961 . S
H1069 C1066 0.960 . S
C1070 N1071 1.342 . S
C1070 C1074 1.401 . S
C1070 C1075 1.499 . S
N1071 Co1054 1.989 . S
N1071 C1070 1.342 . S
N1071 N1072 1.388 . S
N1072 Co1055 1.993 . S
N1072 N1071 1.388 . S
N1072 C1073 1.346 . S
C1073 N1072 1.346 . S
C1073 C1074 1.396 . S
C1073 C1083 1.510 . S
C1074 C1070 1.401 . S
C1074 C1073 1.396 . S
C1075 C1070 1.499 . S
C1075 H1076 0.959 . S
C1075 H1077 0.960 . S
C1075 H1078 0.961 . S
H1076 C1075 0.959 . S
H1077 C1075 0.960 . S
H1078 C1075 0.961 . S
O1079 Co1054 1.967 . S
O1079 C1087 1.258 . S
O1080 Co1055 1.941 . S
O1080 C1087 1.266 . S
H1081 C1083 0.959 . S
H1082 C1083 0.961 . S
C1083 C1073 1.510 . S
C1083 H1081 0.959 . S
C1083 H1082 0.961 . S
C1083 H1084 0.960 . S
H1084 C1083 0.960 . S
H1085 N1065 0.862 . S
O1086 Co1054 1.920 . S
O1086 C1059 1.289 . S
C1087 O1079 1.258 . S
C1087 O1080 1.266 . S
Co1088 O1091 1.970 . S
Co1088 N1105 1.989 . S
Co1088 O1113 1.967 . S
Co1088 O1120 1.920 . S
Co1089 O1092 1.966 . S
Co1089 N1098 2.022 . S
Co1089 N1106 1.993 . S
Co1089 O1114 1.941 . S
C1090 O1091 1.258 . S
C1090 O1092 1.263 . S
O1091 Co1088 1.970 . S
O1091 C1090 1.258 . S
O1092 Co1089 1.966 . S
O1092 C1090 1.263 . S
C1093 O1094 1.235 . S
C1093 O1120 1.289 . S
O1094 C1093 1.235 . S
C1095 C1097 1.400 . S
C1095 N1098 1.351 . S
C1095 C1100 1.501 . S
C1096 C1097 1.387 . S
C1096 N1099 1.341 . S
C1097 C1095 1.400 . S
C1097 C1096 1.387 . S
N1098 Co1089 2.022 . S
N1098 C1095 1.351 . S
N1098 N1099 1.365 . S
N1099 C1096 1.341 . S
N1099 N1098 1.365 . S
N1099 H1119 0.862 . S
C1100 C1095 1.501 . S
C1100 H1101 0.961 . S
C1100 H1102 0.961 . S
C1100 H1103 0.960 . S
H1101 C1100 0.961 . S
H1102 C1100 0.961 . S
H1103 C1100 0.960 . S
C1104 N1105 1.342 . S
C1104 C1108 1.401 . S
C1104 C1109 1.499 . S
N1105 Co1088 1.989 . S
N1105 C1104 1.342 . S
N1105 N1106 1.388 . S
N1106 Co1089 1.993 . S
N1106 N1105 1.388 . S
N1106 C1107 1.346 . S
C1107 N1106 1.346 . S
C1107 C1108 1.396 . S
C1107 C1117 1.510 . S
C1108 C1104 1.401 . S
C1108 C1107 1.396 . S
C1109 C1104 1.499 . S
C1109 H1110 0.959 . S
C1109 H1111 0.960 . S
C1109 H1112 0.961 . S
H1110 C1109 0.959 . S
H1111 C1109 0.960 . S
H1112 C1109 0.961 . S
O1113 Co1088 1.967 . S
O1113 C1121 1.258 . S
O1114 Co1089 1.941 . S
O1114 C1121 1.266 . S
H1115 C1117 0.959 . S
H1116 C1117 0.961 . S
C1117 C1107 1.510 . S
C1117 H1115 0.959 . S
C1117 H1116 0.961 . S
C1117 H1118 0.960 . S
H1118 C1117 0.960 . S
H1119 N1099 0.862 . S
O1120 Co1088 1.920 . S
O1120 C1093 1.289 . S
C1121 O1113 1.258 . S
C1121 O1114 1.266 . S
Co1122 O1125 1.970 . S
Co1122 N1139 1.989 . S
Co1122 O1147 1.967 . S
Co1122 O1154 1.920 . S
Co1123 O1126 1.966 . S
Co1123 N1132 2.022 . S
Co1123 N1140 1.993 . S
Co1123 O1148 1.941 . S
C1124 O1125 1.258 . S
C1124 O1126 1.263 . S
O1125 Co1122 1.970 . S
O1125 C1124 1.258 . S
O1126 Co1123 1.966 . S
O1126 C1124 1.263 . S
C1127 O1128 1.235 . S
C1127 O1154 1.289 . S
O1128 C1127 1.235 . S
C1129 C1131 1.400 . S
C1129 N1132 1.351 . S
C1129 C1134 1.501 . S
C1130 C1131 1.387 . S
C1130 N1133 1.341 . S
C1131 C1129 1.400 . S
C1131 C1130 1.387 . S
N1132 Co1123 2.022 . S
N1132 C1129 1.351 . S
N1132 N1133 1.365 . S
N1133 C1130 1.341 . S
N1133 N1132 1.365 . S
N1133 H1153 0.862 . S
C1134 C1129 1.501 . S
C1134 H1135 0.961 . S
C1134 H1136 0.961 . S
C1134 H1137 0.960 . S
H1135 C1134 0.961 . S
H1136 C1134 0.961 . S
H1137 C1134 0.960 . S
C1138 N1139 1.342 . S
C1138 C1142 1.401 . S
C1138 C1143 1.499 . S
N1139 Co1122 1.989 . S
N1139 C1138 1.342 . S
N1139 N1140 1.388 . S
N1140 Co1123 1.993 . S
N1140 N1139 1.388 . S
N1140 C1141 1.346 . S
C1141 N1140 1.346 . S
C1141 C1142 1.396 . S
C1141 C1151 1.510 . S
C1142 C1138 1.401 . S
C1142 C1141 1.396 . S
C1143 C1138 1.499 . S
C1143 H1144 0.959 . S
C1143 H1145 0.960 . S
C1143 H1146 0.961 . S
H1144 C1143 0.959 . S
H1145 C1143 0.960 . S
H1146 C1143 0.961 . S
O1147 Co1122 1.967 . S
O1147 C1155 1.258 . S
O1148 Co1123 1.941 . S
O1148 C1155 1.266 . S
H1149 C1151 0.959 . S
H1150 C1151 0.961 . S
C1151 C1141 1.510 . S
C1151 H1149 0.959 . S
C1151 H1150 0.961 . S
C1151 H1152 0.960 . S
H1152 C1151 0.960 . S
H1153 N1133 0.862 . S
O1154 Co1122 1.920 . S
O1154 C1127 1.289 . S
C1155 O1147 1.258 . S
C1155 O1148 1.266 . S
Co1156 O1159 1.970 . S
Co1156 N1173 1.989 . S
Co1156 O1181 1.967 . S
Co1156 O1188 1.920 . S
Co1157 O1160 1.966 . S
Co1157 N1166 2.022 . S
Co1157 N1174 1.993 . S
Co1157 O1182 1.941 . S
C1158 O1159 1.258 . S
C1158 O1160 1.263 . S
O1159 Co1156 1.970 . S
O1159 C1158 1.258 . S
O1160 Co1157 1.966 . S
O1160 C1158 1.263 . S
C1161 O1162 1.235 . S
C1161 O1188 1.289 . S
O1162 C1161 1.235 . S
C1163 C1165 1.400 . S
C1163 N1166 1.351 . S
C1163 C1168 1.501 . S
C1164 C1165 1.387 . S
C1164 N1167 1.341 . S
C1165 C1163 1.400 . S
C1165 C1164 1.387 . S
N1166 Co1157 2.022 . S
N1166 C1163 1.351 . S
N1166 N1167 1.365 . S
N1167 C1164 1.341 . S
N1167 N1166 1.365 . S
N1167 H1187 0.862 . S
C1168 C1163 1.501 . S
C1168 H1169 0.961 . S
C1168 H1170 0.961 . S
C1168 H1171 0.960 . S
H1169 C1168 0.961 . S
H1170 C1168 0.961 . S
H1171 C1168 0.960 . S
C1172 N1173 1.342 . S
C1172 C1176 1.401 . S
C1172 C1177 1.499 . S
N1173 Co1156 1.989 . S
N1173 C1172 1.342 . S
N1173 N1174 1.388 . S
N1174 Co1157 1.993 . S
N1174 N1173 1.388 . S
N1174 C1175 1.346 . S
C1175 N1174 1.346 . S
C1175 C1176 1.396 . S
C1175 C1185 1.510 . S
C1176 C1172 1.401 . S
C1176 C1175 1.396 . S
C1177 C1172 1.499 . S
C1177 H1178 0.959 . S
C1177 H1179 0.960 . S
C1177 H1180 0.961 . S
H1178 C1177 0.959 . S
H1179 C1177 0.960 . S
H1180 C1177 0.961 . S
O1181 Co1156 1.967 . S
O1181 C1189 1.258 . S
O1182 Co1157 1.941 . S
O1182 C1189 1.266 . S
H1183 C1185 0.959 . S
H1184 C1185 0.961 . S
C1185 C1175 1.510 . S
C1185 H1183 0.959 . S
C1185 H1184 0.961 . S
C1185 H1186 0.960 . S
H1186 C1185 0.960 . S
H1187 N1167 0.862 . S
O1188 Co1156 1.920 . S
O1188 C1161 1.289 . S
C1189 O1181 1.258 . S
C1189 O1182 1.266 . S
Co1190 O1193 1.970 . S
Co1190 N1207 1.989 . S
Co1190 O1215 1.967 . S
Co1190 O1222 1.920 . S
Co1191 O1194 1.966 . S
Co1191 N1200 2.022 . S
Co1191 N1208 1.993 . S
Co1191 O1216 1.941 . S
C1192 O1193 1.258 . S
C1192 O1194 1.263 . S
O1193 Co1190 1.970 . S
O1193 C1192 1.258 . S
O1194 Co1191 1.966 . S
O1194 C1192 1.263 . S
C1195 O1196 1.235 . S
C1195 O1222 1.289 . S
O1196 C1195 1.235 . S
C1197 C1199 1.400 . S
C1197 N1200 1.351 . S
C1197 C1202 1.501 . S
C1198 C1199 1.387 . S
C1198 N1201 1.341 . S
C1199 C1197 1.400 . S
C1199 C1198 1.387 . S
N1200 Co1191 2.022 . S
N1200 C1197 1.351 . S
N1200 N1201 1.365 . S
N1201 C1198 1.341 . S
N1201 N1200 1.365 . S
N1201 H1221 0.862 . S
C1202 C1197 1.501 . S
C1202 H1203 0.961 . S
C1202 H1204 0.961 . S
C1202 H1205 0.960 . S
H1203 C1202 0.961 . S
H1204 C1202 0.961 . S
H1205 C1202 0.960 . S
C1206 N1207 1.342 . S
C1206 C1210 1.401 . S
C1206 C1211 1.499 . S
N1207 Co1190 1.989 . S
N1207 C1206 1.342 . S
N1207 N1208 1.388 . S
N1208 Co1191 1.993 . S
N1208 N1207 1.388 . S
N1208 C1209 1.346 . S
C1209 N1208 1.346 . S
C1209 C1210 1.396 . S
C1209 C1219 1.510 . S
C1210 C1206 1.401 . S
C1210 C1209 1.396 . S
C1211 C1206 1.499 . S
C1211 H1212 0.959 . S
C1211 H1213 0.960 . S
C1211 H1214 0.961 . S
H1212 C1211 0.959 . S
H1213 C1211 0.960 . S
H1214 C1211 0.961 . S
O1215 Co1190 1.967 . S
O1215 C1223 1.258 . S
O1216 Co1191 1.941 . S
O1216 C1223 1.266 . S
H1217 C1219 0.959 . S
H1218 C1219 0.961 . S
C1219 C1209 1.510 . S
C1219 H1217 0.959 . S
C1219 H1218 0.961 . S
C1219 H1220 0.960 . S
H1220 C1219 0.960 . S
H1221 N1201 0.862 . S
O1222 Co1190 1.920 . S
O1222 C1195 1.289 . S
C1223 O1215 1.258 . S
C1223 O1216 1.266 . S
C1224 C1225 1.349 . S
C1224 C1226 1.327 . S
C1224 H1249 0.950 . S
C1225 C1224 1.349 . S
C1225 C1241 1.349 . S
C1226 C1224 1.327 . S
C1226 C1245 1.429 . S
C1226 H1250 0.950 . S
C1227 C1244 1.574 . S
C1227 C1246 1.368 . S
C1227 H1251 0.949 . S
H1228 C1232 0.949 . S
C1229 C1230 1.349 . S
C1229 C1231 1.327 . S
C1229 H1252 0.950 . S
C1230 C1229 1.349 . S
C1230 C1242 1.349 . S
C1231 C1229 1.327 . S
C1231 C1247 1.429 . S
C1231 H1253 0.950 . S
C1232 H1228 0.949 . S
C1232 C1240 1.574 . S
C1232 C1248 1.368 . S
H1233 C1241 0.950 . S
H1234 C1239 0.950 . S
H1235 C1240 0.949 . S
H1236 C1242 0.950 . S
H1237 C1243 0.950 . S
H1238 C1244 0.949 . S
C1239 H1234 0.950 . S
C1239 C1241 1.327 . S
C1239 C1245 1.429 . S
C1240 C1232 1.574 . S
C1240 H1235 0.949 . S
C1240 C1246 1.368 . S
C1241 C1225 1.349 . S
C1241 H1233 0.950 . S
C1241 C1239 1.327 . S
C1242 C1230 1.349 . S
C1242 H1236 0.950 . S
C1242 C1243 1.327 . S
C1243 H1237 0.950 . S
C1243 C1242 1.327 . S
C1243 C1247 1.429 . S
C1244 C1227 1.574 . S
C1244 H1238 0.949 . S
C1244 C1248 1.368 . S
C1245 C1226 1.429 . S
C1245 C1239 1.429 . S
C1245 C1246 1.523 . S
C1246 C1227 1.368 . S
C1246 C1240 1.368 . S
C1246 C1245 1.523 . S
C1247 C1231 1.429 . S
C1247 C1243 1.429 . S
C1247 C1248 1.523 . S
C1248 C1232 1.368 . S
C1248 C1244 1.368 . S
C1248 C1247 1.523 . S
H1249 C1224 0.950 . S
H1250 C1226 0.950 . S
H1251 C1227 0.949 . S
H1252 C1229 0.950 . S
H1253 C1231 0.950 . S
C1254 C1255 1.349 . S
C1254 C1256 1.327 . S
C1254 H1279 0.950 . S
C1255 C1254 1.349 . S
C1255 C1271 1.349 . S
C1256 C1254 1.327 . S
C1256 C1275 1.429 . S
C1256 H1280 0.950 . S
C1257 C1274 1.574 . S
C1257 C1276 1.368 . S
C1257 H1281 0.949 . S
H1258 C1262 0.949 . S
C1259 C1260 1.349 . S
C1259 C1261 1.327 . S
C1259 H1282 0.950 . S
C1260 C1259 1.349 . S
C1260 C1272 1.349 . S
C1261 C1259 1.327 . S
C1261 C1277 1.429 . S
C1261 H1283 0.950 . S
C1262 H1258 0.949 . S
C1262 C1270 1.574 . S
C1262 C1278 1.368 . S
H1263 C1271 0.950 . S
H1264 C1269 0.950 . S
H1265 C1270 0.949 . S
H1266 C1272 0.950 . S
H1267 C1273 0.950 . S
H1268 C1274 0.949 . S
C1269 H1264 0.950 . S
C1269 C1271 1.327 . S
C1269 C1275 1.429 . S
C1270 C1262 1.574 . S
C1270 H1265 0.949 . S
C1270 C1276 1.368 . S
C1271 C1255 1.349 . S
C1271 H1263 0.950 . S
C1271 C1269 1.327 . S
C1272 C1260 1.349 . S
C1272 H1266 0.950 . S
C1272 C1273 1.327 . S
C1273 H1267 0.950 . S
C1273 C1272 1.327 . S
C1273 C1277 1.429 . S
C1274 C1257 1.574 . S
C1274 H1268 0.949 . S
C1274 C1278 1.368 . S
C1275 C1256 1.429 . S
C1275 C1269 1.429 . S
C1275 C1276 1.523 . S
C1276 C1257 1.368 . S
C1276 C1270 1.368 . S
C1276 C1275 1.523 . S
C1277 C1261 1.429 . S
C1277 C1273 1.429 . S
C1277 C1278 1.523 . S
C1278 C1262 1.368 . S
C1278 C1274 1.368 . S
C1278 C1277 1.523 . S
H1279 C1254 0.950 . S
H1280 C1256 0.950 . S
H1281 C1257 0.949 . S
H1282 C1259 0.950 . S
H1283 C1261 0.950 . S
C1284 C1285 1.349 . S
C1284 C1286 1.327 . S
C1284 H1309 0.950 . S
C1285 C1284 1.349 . S
C1285 C1301 1.349 . S
C1286 C1284 1.327 . S
C1286 C1305 1.429 . S
C1286 H1310 0.950 . S
C1287 C1304 1.574 . S
C1287 C1306 1.368 . S
C1287 H1311 0.949 . S
H1288 C1292 0.949 . S
C1289 C1290 1.349 . S
C1289 C1291 1.327 . S
C1289 H1312 0.950 . S
C1290 C1289 1.349 . S
C1290 C1302 1.349 . S
C1291 C1289 1.327 . S
C1291 C1307 1.429 . S
C1291 H1313 0.950 . S
C1292 H1288 0.949 . S
C1292 C1300 1.574 . S
C1292 C1308 1.368 . S
H1293 C1301 0.950 . S
H1294 C1299 0.950 . S
H1295 C1300 0.949 . S
H1296 C1302 0.950 . S
H1297 C1303 0.950 . S
H1298 C1304 0.949 . S
C1299 H1294 0.950 . S
C1299 C1301 1.327 . S
C1299 C1305 1.429 . S
C1300 C1292 1.574 . S
C1300 H1295 0.949 . S
C1300 C1306 1.368 . S
C1301 C1285 1.349 . S
C1301 H1293 0.950 . S
C1301 C1299 1.327 . S
C1302 C1290 1.349 . S
C1302 H1296 0.950 . S
C1302 C1303 1.327 . S
C1303 H1297 0.950 . S
C1303 C1302 1.327 . S
C1303 C1307 1.429 . S
C1304 C1287 1.574 . S
C1304 H1298 0.949 . S
C1304 C1308 1.368 . S
C1305 C1286 1.429 . S
C1305 C1299 1.429 . S
C1305 C1306 1.523 . S
C1306 C1287 1.368 . S
C1306 C1300 1.368 . S
C1306 C1305 1.523 . S
C1307 C1291 1.429 . S
C1307 C1303 1.429 . S
C1307 C1308 1.523 . S
C1308 C1292 1.368 . S
C1308 C1304 1.368 . S
C1308 C1307 1.523 . S
H1309 C1284 0.950 . S
H1310 C1286 0.950 . S
H1311 C1287 0.949 . S
H1312 C1289 0.950 . S
H1313 C1291 0.950 . S
C1314 C1315 1.349 . S
C1314 C1316 1.327 . S
C1314 H1339 0.950 . S
C1315 C1314 1.349 . S
C1315 C1331 1.349 . S
C1316 C1314 1.327 . S
C1316 C1335 1.429 . S
C1316 H1340 0.950 . S
C1317 C1334 1.574 . S
C1317 C1336 1.368 . S
C1317 H1341 0.949 . S
H1318 C1322 0.949 . S
C1319 C1320 1.349 . S
C1319 C1321 1.327 . S
C1319 H1342 0.950 . S
C1320 C1319 1.349 . S
C1320 C1332 1.349 . S
C1321 C1319 1.327 . S
C1321 C1337 1.429 . S
C1321 H1343 0.950 . S
C1322 H1318 0.949 . S
C1322 C1330 1.574 . S
C1322 C1338 1.368 . S
H1323 C1331 0.950 . S
H1324 C1329 0.950 . S
H1325 C1330 0.949 . S
H1326 C1332 0.950 . S
H1327 C1333 0.950 . S
H1328 C1334 0.949 . S
C1329 H1324 0.950 . S
C1329 C1331 1.327 . S
C1329 C1335 1.429 . S
C1330 C1322 1.574 . S
C1330 H1325 0.949 . S
C1330 C1336 1.368 . S
C1331 C1315 1.349 . S
C1331 H1323 0.950 . S
C1331 C1329 1.327 . S
C1332 C1320 1.349 . S
C1332 H1326 0.950 . S
C1332 C1333 1.327 . S
C1333 H1327 0.950 . S
C1333 C1332 1.327 . S
C1333 C1337 1.429 . S
C1334 C1317 1.574 . S
C1334 H1328 0.949 . S
C1334 C1338 1.368 . S
C1335 C1316 1.429 . S
C1335 C1329 1.429 . S
C1335 C1336 1.523 . S
C1336 C1317 1.368 . S
C1336 C1330 1.368 . S
C1336 C1335 1.523 . S
C1337 C1321 1.429 . S
C1337 C1333 1.429 . S
C1337 C1338 1.523 . S
C1338 C1322 1.368 . S
C1338 C1334 1.368 . S
C1338 C1337 1.523 . S
H1339 C1314 0.950 . S
H1340 C1316 0.950 . S
H1341 C1317 0.949 . S
H1342 C1319 0.950 . S
H1343 C1321 0.950 . S
C1344 C1345 1.349 . S
C1344 C1346 1.327 . S
C1344 H1369 0.950 . S
C1345 C1344 1.349 . S
C1345 C1361 1.349 . S
C1346 C1344 1.327 . S
C1346 C1365 1.429 . S
C1346 H1370 0.950 . S
C1347 C1364 1.574 . S
C1347 C1366 1.368 . S
C1347 H1371 0.949 . S
H1348 C1352 0.949 . S
C1349 C1350 1.349 . S
C1349 C1351 1.327 . S
C1349 H1372 0.950 . S
C1350 C1349 1.349 . S
C1350 C1362 1.349 . S
C1351 C1349 1.327 . S
C1351 C1367 1.429 . S
C1351 H1373 0.950 . S
C1352 H1348 0.949 . S
C1352 C1360 1.574 . S
C1352 C1368 1.368 . S
H1353 C1361 0.950 . S
H1354 C1359 0.950 . S
H1355 C1360 0.949 . S
H1356 C1362 0.950 . S
H1357 C1363 0.950 . S
H1358 C1364 0.949 . S
C1359 H1354 0.950 . S
C1359 C1361 1.327 . S
C1359 C1365 1.429 . S
C1360 C1352 1.574 . S
C1360 H1355 0.949 . S
C1360 C1366 1.368 . S
C1361 C1345 1.349 . S
C1361 H1353 0.950 . S
C1361 C1359 1.327 . S
C1362 C1350 1.349 . S
C1362 H1356 0.950 . S
C1362 C1363 1.327 . S
C1363 H1357 0.950 . S
C1363 C1362 1.327 . S
C1363 C1367 1.429 . S
C1364 C1347 1.574 . S
C1364 H1358 0.949 . S
C1364 C1368 1.368 . S
C1365 C1346 1.429 . S
C1365 C1359 1.429 . S
C1365 C1366 1.523 . S
C1366 C1347 1.368 . S
C1366 C1360 1.368 . S
C1366 C1365 1.523 . S
C1367 C1351 1.429 . S
C1367 C1363 1.429 . S
C1367 C1368 1.523 . S
C1368 C1352 1.368 . S
C1368 C1364 1.368 . S
C1368 C1367 1.523 . S
H1369 C1344 0.950 . S
H1370 C1346 0.950 . S
H1371 C1347 0.949 . S
H1372 C1349 0.950 . S
H1373 C1351 0.950 . S
C1374 C1375 1.349 . S
C1374 C1376 1.327 . S
C1374 H1399 0.950 . S
C1375 C1374 1.349 . S
C1375 C1391 1.349 . S
C1376 C1374 1.327 . S
C1376 C1395 1.429 . S
C1376 H1400 0.950 . S
C1377 C1394 1.574 . S
C1377 C1396 1.368 . S
C1377 H1401 0.949 . S
H1378 C1382 0.949 . S
C1379 C1380 1.349 . S
C1379 C1381 1.327 . S
C1379 H1402 0.950 . S
C1380 C1379 1.349 . S
C1380 C1392 1.349 . S
C1381 C1379 1.327 . S
C1381 C1397 1.429 . S
C1381 H1403 0.950 . S
C1382 H1378 0.949 . S
C1382 C1390 1.574 . S
C1382 C1398 1.368 . S
H1383 C1391 0.950 . S
H1384 C1389 0.950 . S
H1385 C1390 0.949 . S
H1386 C1392 0.950 . S
H1387 C1393 0.950 . S
H1388 C1394 0.949 . S
C1389 H1384 0.950 . S
C1389 C1391 1.327 . S
C1389 C1395 1.429 . S
C1390 C1382 1.574 . S
C1390 H1385 0.949 . S
C1390 C1396 1.368 . S
C1391 C1375 1.349 . S
C1391 H1383 0.950 . S
C1391 C1389 1.327 . S
C1392 C1380 1.349 . S
C1392 H1386 0.950 . S
C1392 C1393 1.327 . S
C1393 H1387 0.950 . S
C1393 C1392 1.327 . S
C1393 C1397 1.429 . S
C1394 C1377 1.574 . S
C1394 H1388 0.949 . S
C1394 C1398 1.368 . S
C1395 C1376 1.429 . S
C1395 C1389 1.429 . S
C1395 C1396 1.523 . S
C1396 C1377 1.368 . S
C1396 C1390 1.368 . S
C1396 C1395 1.523 . S
C1397 C1381 1.429 . S
C1397 C1393 1.429 . S
C1397 C1398 1.523 . S
C1398 C1382 1.368 . S
C1398 C1394 1.368 . S
C1398 C1397 1.523 . S
H1399 C1374 0.950 . S
H1400 C1376 0.950 . S
H1401 C1377 0.949 . S
H1402 C1379 0.950 . S
H1403 C1381 0.950 . S
C1404 C1405 1.349 . S
C1404 C1406 1.327 . S
C1404 H1429 0.950 . S
C1405 C1404 1.349 . S
C1405 C1421 1.349 . S
C1406 C1404 1.327 . S
C1406 C1425 1.429 . S
C1406 H1430 0.950 . S
C1407 C1424 1.574 . S
C1407 C1426 1.368 . S
C1407 H1431 0.949 . S
H1408 C1412 0.949 . S
C1409 C1410 1.349 . S
C1409 C1411 1.327 . S
C1409 H1432 0.950 . S
C1410 C1409 1.349 . S
C1410 C1422 1.349 . S
C1411 C1409 1.327 . S
C1411 C1427 1.429 . S
C1411 H1433 0.950 . S
C1412 H1408 0.949 . S
C1412 C1420 1.574 . S
C1412 C1428 1.368 . S
H1413 C1421 0.950 . S
H1414 C1419 0.950 . S
H1415 C1420 0.949 . S
H1416 C1422 0.950 . S
H1417 C1423 0.950 . S
H1418 C1424 0.949 . S
C1419 H1414 0.950 . S
C1419 C1421 1.327 . S
C1419 C1425 1.429 . S
C1420 C1412 1.574 . S
C1420 H1415 0.949 . S
C1420 C1426 1.368 . S
C1421 C1405 1.349 . S
C1421 H1413 0.950 . S
C1421 C1419 1.327 . S
C1422 C1410 1.349 . S
C1422 H1416 0.950 . S
C1422 C1423 1.327 . S
C1423 H1417 0.950 . S
C1423 C1422 1.327 . S
C1423 C1427 1.429 . S
C1424 C1407 1.574 . S
C1424 H1418 0.949 . S
C1424 C1428 1.368 . S
C1425 C1406 1.429 . S
C1425 C1419 1.429 . S
C1425 C1426 1.523 . S
C1426 C1407 1.368 . S
C1426 C1420 1.368 . S
C1426 C1425 1.523 . S
C1427 C1411 1.429 . S
C1427 C1423 1.429 . S
C1427 C1428 1.523 . S
C1428 C1412 1.368 . S
C1428 C1424 1.368 . S
C1428 C1427 1.523 . S
H1429 C1404 0.950 . S
H1430 C1406 0.950 . S
H1431 C1407 0.949 . S
H1432 C1409 0.950 . S
H1433 C1411 0.950 . S
C1434 C1435 1.349 . S
C1434 C1436 1.327 . S
C1434 H1459 0.950 . S
C1435 C1434 1.349 . S
C1435 C1451 1.349 . S
C1436 C1434 1.327 . S
C1436 C1455 1.429 . S
C1436 H1460 0.950 . S
C1437 C1454 1.574 . S
C1437 C1456 1.368 . S
C1437 H1461 0.949 . S
H1438 C1442 0.949 . S
C1439 C1440 1.349 . S
C1439 C1441 1.327 . S
C1439 H1462 0.950 . S
C1440 C1439 1.349 . S
C1440 C1452 1.349 . S
C1441 C1439 1.327 . S
C1441 C1457 1.429 . S
C1441 H1463 0.950 . S
C1442 H1438 0.949 . S
C1442 C1450 1.574 . S
C1442 C1458 1.368 . S
H1443 C1451 0.950 . S
H1444 C1449 0.950 . S
H1445 C1450 0.949 . S
H1446 C1452 0.950 . S
H1447 C1453 0.950 . S
H1448 C1454 0.949 . S
C1449 H1444 0.950 . S
C1449 C1451 1.327 . S
C1449 C1455 1.429 . S
C1450 C1442 1.574 . S
C1450 H1445 0.949 . S
C1450 C1456 1.368 . S
C1451 C1435 1.349 . S
C1451 H1443 0.950 . S
C1451 C1449 1.327 . S
C1452 C1440 1.349 . S
C1452 H1446 0.950 . S
C1452 C1453 1.327 . S
C1453 H1447 0.950 . S
C1453 C1452 1.327 . S
C1453 C1457 1.429 . S
C1454 C1437 1.574 . S
C1454 H1448 0.949 . S
C1454 C1458 1.368 . S
C1455 C1436 1.429 . S
C1455 C1449 1.429 . S
C1455 C1456 1.523 . S
C1456 C1437 1.368 . S
C1456 C1450 1.368 . S
C1456 C1455 1.523 . S
C1457 C1441 1.429 . S
C1457 C1453 1.429 . S
C1457 C1458 1.523 . S
C1458 C1442 1.368 . S
C1458 C1454 1.368 . S
C1458 C1457 1.523 . S
H1459 C1434 0.950 . S
H1460 C1436 0.950 . S
H1461 C1437 0.949 . S
H1462 C1439 0.950 . S
H1463 C1441 0.950 . S
C1464 C1465 1.349 . S
C1464 C1466 1.327 . S
C1464 H1489 0.950 . S
C1465 C1464 1.349 . S
C1465 C1481 1.349 . S
C1466 C1464 1.327 . S
C1466 C1485 1.429 . S
C1466 H1490 0.950 . S
C1467 C1484 1.574 . S
C1467 C1486 1.368 . S
C1467 H1491 0.949 . S
H1468 C1472 0.949 . S
C1469 C1470 1.349 . S
C1469 C1471 1.327 . S
C1469 H1492 0.950 . S
C1470 C1469 1.349 . S
C1470 C1482 1.349 . S
C1471 C1469 1.327 . S
C1471 C1487 1.429 . S
C1471 H1493 0.950 . S
C1472 H1468 0.949 . S
C1472 C1480 1.574 . S
C1472 C1488 1.368 . S
H1473 C1481 0.950 . S
H1474 C1479 0.950 . S
H1475 C1480 0.949 . S
H1476 C1482 0.950 . S
H1477 C1483 0.950 . S
H1478 C1484 0.949 . S
C1479 H1474 0.950 . S
C1479 C1481 1.327 . S
C1479 C1485 1.429 . S
C1480 C1472 1.574 . S
C1480 H1475 0.949 . S
C1480 C1486 1.368 . S
C1481 C1465 1.349 . S
C1481 H1473 0.950 . S
C1481 C1479 1.327 . S
C1482 C1470 1.349 . S
C1482 H1476 0.950 . S
C1482 C1483 1.327 . S
C1483 H1477 0.950 . S
C1483 C1482 1.327 . S
C1483 C1487 1.429 . S
C1484 C1467 1.574 . S
C1484 H1478 0.949 . S
C1484 C1488 1.368 . S
C1485 C1466 1.429 . S
C1485 C1479 1.429 . S
C1485 C1486 1.523 . S
C1486 C1467 1.368 . S
C1486 C1480 1.368 . S
C1486 C1485 1.523 . S
C1487 C1471 1.429 . S
C1487 C1483 1.429 . S
C1487 C1488 1.523 . S
C1488 C1472 1.368 . S
C1488 C1484 1.368 . S
C1488 C1487 1.523 . S
H1489 C1464 0.950 . S
H1490 C1466 0.950 . S
H1491 C1467 0.949 . S
H1492 C1469 0.950 . S
H1493 C1471 0.950 . S
C1494 C1495 1.349 . S
C1494 C1496 1.327 . S
C1494 H1519 0.950 . S
C1495 C1494 1.349 . S
C1495 C1511 1.349 . S
C1496 C1494 1.327 . S
C1496 C1515 1.429 . S
C1496 H1520 0.950 . S
C1497 C1514 1.574 . S
C1497 C1516 1.368 . S
C1497 H1521 0.949 . S
H1498 C1502 0.949 . S
C1499 C1500 1.349 . S
C1499 C1501 1.327 . S
C1499 H1522 0.950 . S
C1500 C1499 1.349 . S
C1500 C1512 1.349 . S
C1501 C1499 1.327 . S
C1501 C1517 1.429 . S
C1501 H1523 0.950 . S
C1502 H1498 0.949 . S
C1502 C1510 1.574 . S
C1502 C1518 1.368 . S
H1503 C1511 0.950 . S
H1504 C1509 0.950 . S
H1505 C1510 0.949 . S
H1506 C1512 0.950 . S
H1507 C1513 0.950 . S
H1508 C1514 0.949 . S
C1509 H1504 0.950 . S
C1509 C1511 1.327 . S
C1509 C1515 1.429 . S
C1510 C1502 1.574 . S
C1510 H1505 0.949 . S
C1510 C1516 1.368 . S
C1511 C1495 1.349 . S
C1511 H1503 0.950 . S
C1511 C1509 1.327 . S
C1512 C1500 1.349 . S
C1512 H1506 0.950 . S
C1512 C1513 1.327 . S
C1513 H1507 0.950 . S
C1513 C1512 1.327 . S
C1513 C1517 1.429 . S
C1514 C1497 1.574 . S
C1514 H1508 0.949 . S
C1514 C1518 1.368 . S
C1515 C1496 1.429 . S
C1515 C1509 1.429 . S
C1515 C1516 1.523 . S
C1516 C1497 1.368 . S
C1516 C1510 1.368 . S
C1516 C1515 1.523 . S
C1517 C1501 1.429 . S
C1517 C1513 1.429 . S
C1517 C1518 1.523 . S
C1518 C1502 1.368 . S
C1518 C1514 1.368 . S
C1518 C1517 1.523 . S
H1519 C1494 0.950 . S
H1520 C1496 0.950 . S
H1521 C1497 0.949 . S
H1522 C1499 0.950 . S
H1523 C1501 0.950 . S
C1524 C1525 1.349 . S
C1524 C1526 1.327 . S
C1524 H1549 0.950 . S
C1525 C1524 1.349 . S
C1525 C1541 1.349 . S
C1526 C1524 1.327 . S
C1526 C1545 1.429 . S
C1526 H1550 0.950 . S
C1527 C1544 1.574 . S
C1527 C1546 1.368 . S
C1527 H1551 0.949 . S
H1528 C1532 0.949 . S
C1529 C1530 1.349 . S
C1529 C1531 1.327 . S
C1529 H1552 0.950 . S
C1530 C1529 1.349 . S
C1530 C1542 1.349 . S
C1531 C1529 1.327 . S
C1531 C1547 1.429 . S
C1531 H1553 0.950 . S
C1532 H1528 0.949 . S
C1532 C1540 1.574 . S
C1532 C1548 1.368 . S
H1533 C1541 0.950 . S
H1534 C1539 0.950 . S
H1535 C1540 0.949 . S
H1536 C1542 0.950 . S
H1537 C1543 0.950 . S
H1538 C1544 0.949 . S
C1539 H1534 0.950 . S
C1539 C1541 1.327 . S
C1539 C1545 1.429 . S
C1540 C1532 1.574 . S
C1540 H1535 0.949 . S
C1540 C1546 1.368 . S
C1541 C1525 1.349 . S
C1541 H1533 0.950 . S
C1541 C1539 1.327 . S
C1542 C1530 1.349 . S
C1542 H1536 0.950 . S
C1542 C1543 1.327 . S
C1543 H1537 0.950 . S
C1543 C1542 1.327 . S
C1543 C1547 1.429 . S
C1544 C1527 1.574 . S
C1544 H1538 0.949 . S
C1544 C1548 1.368 . S
C1545 C1526 1.429 . S
C1545 C1539 1.429 . S
C1545 C1546 1.523 . S
C1546 C1527 1.368 . S
C1546 C1540 1.368 . S
C1546 C1545 1.523 . S
C1547 C1531 1.429 . S
C1547 C1543 1.429 . S
C1547 C1548 1.523 . S
C1548 C1532 1.368 . S
C1548 C1544 1.368 . S
C1548 C1547 1.523 . S
H1549 C1524 0.950 . S
H1550 C1526 0.950 . S
H1551 C1527 0.949 . S
H1552 C1529 0.950 . S
H1553 C1531 0.950 . S
C1554 C1555 1.349 . S
C1554 C1556 1.327 . S
C1554 H1579 0.950 . S
C1555 C1554 1.349 . S
C1555 C1571 1.349 . S
C1556 C1554 1.327 . S
C1556 C1575 1.429 . S
C1556 H1580 0.950 . S
C1557 C1574 1.574 . S
C1557 C1576 1.368 . S
C1557 H1581 0.949 . S
H1558 C1562 0.949 . S
C1559 C1560 1.349 . S
C1559 C1561 1.327 . S
C1559 H1582 0.950 . S
C1560 C1559 1.349 . S
C1560 C1572 1.349 . S
C1561 C1559 1.327 . S
C1561 C1577 1.429 . S
C1561 H1583 0.950 . S
C1562 H1558 0.949 . S
C1562 C1570 1.574 . S
C1562 C1578 1.368 . S
H1563 C1571 0.950 . S
H1564 C1569 0.950 . S
H1565 C1570 0.949 . S
H1566 C1572 0.950 . S
H1567 C1573 0.950 . S
H1568 C1574 0.949 . S
C1569 H1564 0.950 . S
C1569 C1571 1.327 . S
C1569 C1575 1.429 . S
C1570 C1562 1.574 . S
C1570 H1565 0.949 . S
C1570 C1576 1.368 . S
C1571 C1555 1.349 . S
C1571 H1563 0.950 . S
C1571 C1569 1.327 . S
C1572 C1560 1.349 . S
C1572 H1566 0.950 . S
C1572 C1573 1.327 . S
C1573 H1567 0.950 . S
C1573 C1572 1.327 . S
C1573 C1577 1.429 . S
C1574 C1557 1.574 . S
C1574 H1568 0.949 . S
C1574 C1578 1.368 . S
C1575 C1556 1.429 . S
C1575 C1569 1.429 . S
C1575 C1576 1.523 . S
C1576 C1557 1.368 . S
C1576 C1570 1.368 . S
C1576 C1575 1.523 . S
C1577 C1561 1.429 . S
C1577 C1573 1.429 . S
C1577 C1578 1.523 . S
C1578 C1562 1.368 . S
C1578 C1574 1.368 . S
C1578 C1577 1.523 . S
H1579 C1554 0.950 . S
H1580 C1556 0.950 . S
H1581 C1557 0.949 . S
H1582 C1559 0.950 . S
H1583 C1561 0.950 . S
C1584 C1585 1.349 . S
C1584 C1586 1.327 . S
C1584 H1609 0.950 . S
C1585 C1584 1.349 . S
C1585 C1601 1.349 . S
C1586 C1584 1.327 . S
C1586 C1605 1.429 . S
C1586 H1610 0.950 . S
C1587 C1604 1.520 1_655 S
C1587 C1606 1.384 . S
C1587 H1611 0.987 . S
H1588 C1592 0.987 . S
C1589 C1590 1.349 . S
C1589 C1591 1.327 . S
C1589 H1612 0.950 . S
C1590 C1589 1.349 . S
C1590 C1602 1.349 . S
C1591 C1589 1.327 . S
C1591 C1607 1.429 . S
C1591 H1613 0.950 . S
C1592 H1588 0.987 . S
C1592 C1600 1.520 1_455 S
C1592 C1608 1.384 . S
H1593 C1601 0.950 . S
H1594 C1599 0.950 . S
H1595 C1600 0.949 . S
H1596 C1602 0.950 . S
H1597 C1603 0.950 . S
H1598 C1604 0.949 . S
C1599 H1594 0.950 . S
C1599 C1601 1.327 . S
C1599 C1605 1.429 . S
C1600 C1592 1.520 1_655 S
C1600 H1595 0.949 . S
C1600 C1606 1.368 . S
C1601 C1585 1.349 . S
C1601 H1593 0.950 . S
C1601 C1599 1.327 . S
C1602 C1590 1.349 . S
C1602 H1596 0.950 . S
C1602 C1603 1.327 . S
C1603 H1597 0.950 . S
C1603 C1602 1.327 . S
C1603 C1607 1.429 . S
C1604 C1587 1.520 1_455 S
C1604 H1598 0.949 . S
C1604 C1608 1.368 . S
C1605 C1586 1.429 . S
C1605 C1599 1.429 . S
C1605 C1606 1.523 . S
C1606 C1587 1.384 . S
C1606 C1600 1.368 . S
C1606 C1605 1.523 . S
C1607 C1591 1.429 . S
C1607 C1603 1.429 . S
C1607 C1608 1.523 . S
C1608 C1592 1.384 . S
C1608 C1604 1.368 . S
C1608 C1607 1.523 . S
H1609 C1584 0.950 . S
H1610 C1586 0.950 . S
H1611 C1587 0.987 . S
H1612 C1589 0.950 . S
H1613 C1591 0.950 . S
C1614 C1615 1.349 . S
C1614 C1616 1.327 . S
C1614 H1639 0.950 . S
C1615 C1614 1.349 . S
C1615 C1631 1.349 . S
C1616 C1614 1.327 . S
C1616 C1635 1.429 . S
C1616 H1640 0.950 . S
C1617 C1634 1.574 . S
C1617 C1636 1.368 . S
C1617 H1641 0.949 . S
H1618 C1622 0.949 . S
C1619 C1620 1.349 . S
C1619 C1621 1.327 . S
C1619 H1642 0.950 . S
C1620 C1619 1.349 . S
C1620 C1632 1.349 . S
C1621 C1619 1.327 . S
C1621 C1637 1.429 . S
C1621 H1643 0.950 . S
C1622 H1618 0.949 . S
C1622 C1630 1.574 . S
C1622 C1638 1.368 . S
H1623 C1631 0.950 . S
H1624 C1629 0.950 . S
H1625 C1630 0.949 . S
H1626 C1632 0.950 . S
H1627 C1633 0.950 . S
H1628 C1634 0.949 . S
C1629 H1624 0.950 . S
C1629 C1631 1.327 . S
C1629 C1635 1.429 . S
C1630 C1622 1.574 . S
C1630 H1625 0.949 . S
C1630 C1636 1.368 . S
C1631 C1615 1.349 . S
C1631 H1623 0.950 . S
C1631 C1629 1.327 . S
C1632 C1620 1.349 . S
C1632 H1626 0.950 . S
C1632 C1633 1.327 . S
C1633 H1627 0.950 . S
C1633 C1632 1.327 . S
C1633 C1637 1.429 . S
C1634 C1617 1.574 . S
C1634 H1628 0.949 . S
C1634 C1638 1.368 . S
C1635 C1616 1.429 . S
C1635 C1629 1.429 . S
C1635 C1636 1.523 . S
C1636 C1617 1.368 . S
C1636 C1630 1.368 . S
C1636 C1635 1.523 . S
C1637 C1621 1.429 . S
C1637 C1633 1.429 . S
C1637 C1638 1.523 . S
C1638 C1622 1.368 . S
C1638 C1634 1.368 . S
C1638 C1637 1.523 . S
H1639 C1614 0.950 . S
H1640 C1616 0.950 . S
H1641 C1617 0.949 . S
H1642 C1619 0.950 . S
H1643 C1621 0.950 . S
C1644 C1645 1.349 . S
C1644 C1646 1.327 . S
C1644 H1669 0.950 . S
C1645 C1644 1.349 . S
C1645 C1661 1.349 . S
C1646 C1644 1.327 . S
C1646 C1665 1.429 . S
C1646 H1670 0.950 . S
C1647 C1664 1.574 1_565 S
C1647 C1666 1.368 . S
C1647 H1671 0.949 . S
H1648 C1652 0.949 . S
C1649 C1650 1.349 . S
C1649 C1651 1.327 . S
C1649 H1672 0.950 . S
C1650 C1649 1.349 . S
C1650 C1662 1.349 . S
C1651 C1649 1.327 . S
C1651 C1667 1.429 . S
C1651 H1673 0.950 . S
C1652 H1648 0.949 . S
C1652 C1660 1.574 1_545 S
C1652 C1668 1.368 . S
H1653 C1661 0.950 . S
H1654 C1659 0.950 . S
H1655 C1660 0.949 . S
H1656 C1662 0.950 . S
H1657 C1663 0.950 . S
H1658 C1664 0.949 . S
C1659 H1654 0.950 . S
C1659 C1661 1.327 . S
C1659 C1665 1.429 . S
C1660 C1652 1.574 1_565 S
C1660 H1655 0.949 . S
C1660 C1666 1.368 . S
C1661 C1645 1.349 . S
C1661 H1653 0.950 . S
C1661 C1659 1.327 . S
C1662 C1650 1.349 . S
C1662 H1656 0.950 . S
C1662 C1663 1.327 . S
C1663 H1657 0.950 . S
C1663 C1662 1.327 . S
C1663 C1667 1.429 . S
C1664 C1647 1.574 1_545 S
C1664 H1658 0.949 . S
C1664 C1668 1.368 . S
C1665 C1646 1.429 . S
C1665 C1659 1.429 . S
C1665 C1666 1.523 . S
C1666 C1647 1.368 . S
C1666 C1660 1.368 . S
C1666 C1665 1.523 . S
C1667 C1651 1.429 . S
C1667 C1663 1.429 . S
C1667 C1668 1.523 . S
C1668 C1652 1.368 . S
C1668 C1664 1.368 . S
C1668 C1667 1.523 . S
H1669 C1644 0.950 . S
H1670 C1646 0.950 . S
H1671 C1647 0.949 . S
H1672 C1649 0.950 . S
H1673 C1651 0.950 . S
C1674 C1675 1.349 . S
C1674 C1676 1.327 . S
C1674 H1699 0.950 . S
C1675 C1674 1.349 . S
C1675 C1691 1.349 . S
C1676 C1674 1.327 . S
C1676 C1695 1.429 . S
C1676 H1700 0.950 . S
C1677 C1694 1.574 . S
C1677 C1696 1.368 1_556 S
C1677 H1701 0.949 . S
H1678 C1682 0.949 . S
C1679 C1680 1.349 . S
C1679 C1681 1.327 . S
C1679 H1702 0.950 . S
C1680 C1679 1.349 . S
C1680 C1692 1.349 . S
C1681 C1679 1.327 . S
C1681 C1697 1.429 . S
C1681 H1703 0.950 . S
C1682 H1678 0.949 . S
C1682 C1690 1.574 . S
C1682 C1698 1.368 1_554 S
H1683 C1691 0.950 . S
H1684 C1689 0.950 . S
H1685 C1690 0.949 . S
H1686 C1692 0.950 . S
H1687 C1693 0.950 . S
H1688 C1694 0.949 . S
C1689 H1684 0.950 . S
C1689 C1691 1.327 . S
C1689 C1695 1.429 . S
C1690 C1682 1.574 . S
C1690 H1685 0.949 . S
C1690 C1696 1.368 1_545 S
C1691 C1675 1.349 . S
C1691 H1683 0.950 . S
C1691 C1689 1.327 . S
C1692 C1680 1.349 . S
C1692 H1686 0.950 . S
C1692 C1693 1.327 . S
C1693 H1687 0.950 . S
C1693 C1692 1.327 . S
C1693 C1697 1.429 . S
C1694 C1677 1.574 . S
C1694 H1688 0.949 . S
C1694 C1698 1.368 1_565 S
C1695 C1676 1.429 . S
C1695 C1689 1.429 . S
C1695 C1696 1.523 . S
C1696 C1677 1.368 1_554 S
C1696 C1690 1.368 1_565 S
C1696 C1695 1.523 . S
C1697 C1681 1.429 . S
C1697 C1693 1.429 . S
C1697 C1698 1.523 . S
C1698 C1682 1.368 1_556 S
C1698 C1694 1.368 1_545 S
C1698 C1697 1.523 . S
H1699 C1674 0.950 . S
H1700 C1676 0.950 . S
H1701 C1677 0.949 . S
H1702 C1679 0.950 . S
H1703 C1681 0.950 . S
C1704 C1705 1.349 . S
C1704 C1706 1.327 . S
C1704 H1729 0.950 . S
C1705 C1704 1.349 . S
C1705 C1721 1.349 . S
C1706 C1704 1.327 . S
C1706 C1725 1.429 . S
C1706 H1730 0.950 . S
C1707 C1724 1.574 . S
C1707 C1726 1.368 1_455 S
C1707 H1731 0.949 . S
H1708 C1712 0.949 . S
C1709 C1710 1.349 . S
C1709 C1711 1.327 . S
C1709 H1732 0.950 . S
C1710 C1709 1.349 . S
C1710 C1722 1.349 . S
C1711 C1709 1.327 . S
C1711 C1727 1.429 . S
C1711 H1733 0.950 . S
C1712 H1708 0.949 . S
C1712 C1720 1.574 . S
C1712 C1728 1.368 1_655 S
H1713 C1721 0.950 . S
H1714 C1719 0.950 . S
H1715 C1720 0.949 . S
H1716 C1722 0.950 . S
H1717 C1723 0.950 . S
H1718 C1724 0.949 . S
C1719 H1714 0.950 . S
C1719 C1721 1.327 . S
C1719 C1725 1.429 . S
C1720 C1712 1.574 . S
C1720 H1715 0.949 . S
C1720 C1726 1.368 1_554 S
C1721 C1705 1.349 . S
C1721 H1713 0.950 . S
C1721 C1719 1.327 . S
C1722 C1710 1.349 . S
C1722 H1716 0.950 . S
C1722 C1723 1.327 . S
C1723 H1717 0.950 . S
C1723 C1722 1.327 . S
C1723 C1727 1.429 . S
C1724 C1707 1.574 . S
C1724 H1718 0.949 . S
C1724 C1728 1.368 1_556 S
C1725 C1706 1.429 . S
C1725 C1719 1.429 . S
C1725 C1726 1.523 . S
C1726 C1707 1.368 1_655 S
C1726 C1720 1.368 1_556 S
C1726 C1725 1.523 . S
C1727 C1711 1.429 . S
C1727 C1723 1.429 . S
C1727 C1728 1.523 . S
C1728 C1712 1.368 1_455 S
C1728 C1724 1.368 1_554 S
C1728 C1727 1.523 . S
H1729 C1704 0.950 . S
H1730 C1706 0.950 . S
H1731 C1707 0.949 . S
H1732 C1709 0.950 . S
H1733 C1711 0.950 . S
C1734 C1735 1.349 . S
C1734 C1736 1.327 . S
C1734 H1759 0.950 . S
C1735 C1734 1.349 . S
C1735 C1751 1.349 . S
C1736 C1734 1.327 . S
C1736 C1755 1.429 . S
C1736 H1760 0.950 . S
C1737 C1754 1.574 1_554 S
C1737 C1756 1.368 . S
C1737 H1761 0.949 . S
H1738 C1742 0.949 . S
C1739 C1740 1.349 . S
C1739 C1741 1.327 . S
C1739 H1762 0.950 . S
C1740 C1739 1.349 . S
C1740 C1752 1.349 . S
C1741 C1739 1.327 . S
C1741 C1757 1.429 . S
C1741 H1763 0.950 . S
C1742 H1738 0.949 . S
C1742 C1750 1.574 1_556 S
C1742 C1758 1.368 . S
H1743 C1751 0.950 . S
H1744 C1749 0.950 . S
H1745 C1750 0.949 . S
H1746 C1752 0.950 . S
H1747 C1753 0.950 . S
H1748 C1754 0.949 . S
C1749 H1744 0.950 . S
C1749 C1751 1.327 . S
C1749 C1755 1.429 . S
C1750 C1742 1.574 1_554 S
C1750 H1745 0.949 . S
C1750 C1756 1.368 . S
C1751 C1735 1.349 . S
C1751 H1743 0.950 . S
C1751 C1749 1.327 . S
C1752 C1740 1.349 . S
C1752 H1746 0.950 . S
C1752 C1753 1.327 . S
C1753 H1747 0.950 . S
C1753 C1752 1.327 . S
C1753 C1757 1.429 . S
C1754 C1737 1.574 1_556 S
C1754 H1748 0.949 . S
C1754 C1758 1.368 . S
C1755 C1736 1.429 . S
C1755 C1749 1.429 . S
C1755 C1756 1.523 . S
C1756 C1737 1.368 . S
C1756 C1750 1.368 . S
C1756 C1755 1.523 . S
C1757 C1741 1.429 . S
C1757 C1753 1.429 . S
C1757 C1758 1.523 . S
C1758 C1742 1.368 . S
C1758 C1754 1.368 . S
C1758 C1757 1.523 . S
H1759 C1734 0.950 . S
H1760 C1736 0.950 . S
H1761 C1737 0.949 . S
H1762 C1739 0.950 . S
H1763 C1741 0.950 . S
C1764 C1765 1.349 . S
C1764 C1766 1.327 . S
C1764 H1789 0.950 . S
C1765 C1764 1.349 . S
C1765 C1781 1.349 . S
C1766 C1764 1.327 . S
C1766 C1785 1.429 . S
C1766 H1790 0.950 . S
C1767 C1784 1.569 1_554 S
C1767 C1786 1.382 . S
C1767 H1791 0.941 1_554 S
H1768 C1772 0.949 . S
C1769 C1770 1.349 . S
C1769 C1771 1.327 . S
C1769 H1792 0.950 . S
C1770 C1769 1.349 . S
C1770 C1782 1.349 1_556 S
C1771 C1769 1.327 . S
C1771 C1787 1.455 . S
C1771 H1793 0.950 . S
C1772 H1768 0.949 . S
C1772 C1780 1.574 . S
C1772 C1788 1.368 . S
H1773 C1781 0.950 . S
H1774 C1779 0.950 . S
H1775 C1780 0.949 . S
H1776 C1782 0.950 . S
H1777 C1783 0.950 . S
H1778 C1784 0.949 . S
C1779 H1774 0.950 . S
C1779 C1781 1.327 . S
C1779 C1785 1.429 . S
C1780 C1772 1.574 . S
C1780 H1775 0.949 . S
C1780 C1786 1.368 . S
C1781 C1765 1.349 . S
C1781 H1773 0.950 . S
C1781 C1779 1.327 . S
C1782 C1770 1.349 1_554 S
C1782 H1776 0.950 . S
C1782 C1783 1.327 . S
C1783 H1777 0.950 . S
C1783 C1782 1.327 . S
C1783 C1787 1.413 1_554 S
C1784 C1767 1.569 1_556 S
C1784 H1778 0.949 . S
C1784 C1788 1.368 1_556 S
C1785 C1766 1.429 . S
C1785 C1779 1.429 . S
C1785 C1786 1.523 . S
C1786 C1767 1.382 . S
C1786 C1780 1.368 . S
C1786 C1785 1.523 . S
C1787 C1771 1.455 . S
C1787 C1783 1.413 1_556 S
C1787 C1788 1.514 1_556 S
C1788 C1772 1.368 . S
C1788 C1784 1.368 1_554 S
C1788 C1787 1.514 1_554 S
H1789 C1764 0.950 . S
H1790 C1766 0.950 . S
H1791 C1767 0.941 1_556 S
H1792 C1769 0.950 . S
H1793 C1771 0.950 . S
C1794 C1795 1.349 . S
C1794 C1796 1.327 . S
C1794 H1819 0.950 . S
C1795 C1794 1.349 . S
C1795 C1811 1.349 . S
C1796 C1794 1.327 . S
C1796 C1815 1.429 . S
C1796 H1820 0.950 1_554 S
C1797 C1814 1.574 . S
C1797 C1816 1.368 . S
C1797 H1821 0.949 . S
H1798 C1802 0.949 . S
C1799 C1800 1.349 1_554 S
C1799 C1801 1.327 . S
C1799 H1822 0.950 . S
C1800 C1799 1.349 1_556 S
C1800 C1812 1.349 . S
C1801 C1799 1.327 . S
C1801 C1817 1.405 1_554 S
C1801 H1823 0.950 . S
C1802 H1798 0.949 . S
C1802 C1810 1.574 . S
C1802 C1818 1.368 1_556 S
H1803 C1811 0.950 . S
H1804 C1809 0.950 . S
H1805 C1810 0.949 . S
H1806 C1812 0.950 . S
H1807 C1813 0.950 . S
H1808 C1814 0.949 . S
C1809 H1804 0.950 . S
C1809 C1811 1.327 . S
C1809 C1815 1.429 . S
C1810 C1802 1.574 . S
C1810 H1805 0.949 . S
C1810 C1816 1.368 1_556 S
C1811 C1795 1.349 . S
C1811 H1803 0.950 . S
C1811 C1809 1.327 . S
C1812 C1800 1.349 . S
C1812 H1806 0.950 . S
C1812 C1813 1.327 . S
C1813 H1807 0.950 . S
C1813 C1812 1.327 . S
C1813 C1817 1.463 . S
C1814 C1797 1.574 . S
C1814 H1808 0.949 . S
C1814 C1818 1.368 . S
C1815 C1796 1.429 . S
C1815 C1809 1.429 . S
C1815 C1816 1.523 . S
C1816 C1797 1.368 . S
C1816 C1810 1.368 1_554 S
C1816 C1815 1.523 . S
C1817 C1801 1.405 1_556 S
C1817 C1813 1.463 . S
C1817 C1818 1.514 1_556 S
C1818 C1802 1.368 1_554 S
C1818 C1814 1.368 . S
C1818 C1817 1.514 1_554 S
H1819 C1794 0.950 . S
H1820 C1796 0.950 1_556 S
H1821 C1797 0.949 . S
H1822 C1799 0.950 . S
H1823 C1801 0.950 . S
C1824 C1825 1.349 . S
C1824 C1826 1.327 . S
C1824 H1849 0.950 . S
C1825 C1824 1.349 . S
C1825 C1841 1.349 . S
C1826 C1824 1.327 . S
C1826 C1845 1.429 . S
C1826 H1850 0.950 . S
C1827 C1844 1.574 . S
C1827 C1846 1.368 . S
C1827 H1851 0.949 . S
H1828 C1832 0.949 . S
C1829 C1830 1.349 . S
C1829 C1831 1.327 . S
C1829 H1852 0.950 . S
C1830 C1829 1.349 . S
C1830 C1842 1.349 . S
C1831 C1829 1.327 . S
C1831 C1847 1.442 . S
C1831 H1853 0.950 . S
C1832 H1828 0.949 . S
C1832 C1840 1.574 . S
C1832 C1848 1.368 . S
H1833 C1841 0.950 . S
H1834 C1839 0.950 . S
H1835 C1840 0.949 . S
H1836 C1842 0.950 . S
H1837 C1843 0.950 . S
H1838 C1844 0.949 1_556 S
C1839 H1834 0.950 . S
C1839 C1841 1.327 . S
C1839 C1845 1.429 . S
C1840 C1832 1.574 . S
C1840 H1835 0.949 . S
C1840 C1846 1.368 . S
C1841 C1825 1.349 . S
C1841 H1833 0.950 . S
C1841 C1839 1.327 . S
C1842 C1830 1.349 . S
C1842 H1836 0.950 . S
C1842 C1843 1.327 1_556 S
C1843 H1837 0.950 . S
C1843 C1842 1.327 1_554 S
C1843 C1847 1.426 1_554 S
C1844 C1827 1.574 . S
C1844 H1838 0.949 1_554 S
C1844 C1848 1.368 . S
C1845 C1826 1.429 . S
C1845 C1839 1.429 . S
C1845 C1846 1.523 . S
C1846 C1827 1.368 . S
C1846 C1840 1.368 . S
C1846 C1845 1.523 . S
C1847 C1831 1.442 . S
C1847 C1843 1.426 1_556 S
C1847 C1848 1.514 1_556 S
C1848 C1832 1.368 . S
C1848 C1844 1.368 . S
C1848 C1847 1.514 1_554 S
H1849 C1824 0.950 . S
H1850 C1826 0.950 . S
H1851 C1827 0.949 . S
H1852 C1829 0.950 . S
H1853 C1831 0.950 . S
C1854 C1855 1.349 . S
C1854 C1856 1.327 . S
C1854 H1879 0.950 . S
C1855 C1854 1.349 . S
C1855 C1871 1.349 . S
C1856 C1854 1.327 . S
C1856 C1875 1.429 . S
C1856 H1880 0.950 . S
C1857 C1874 1.574 . S
C1857 C1876 1.368 . S
C1857 H1881 0.949 . S
H1858 C1862 0.949 . S
C1859 C1860 1.349 . S
C1859 C1861 1.327 . S
C1859 H1882 0.950 . S
C1860 C1859 1.349 . S
C1860 C1872 1.349 . S
C1861 C1859 1.327 . S
C1861 C1877 1.429 . S
C1861 H1883 0.950 . S
C1862 H1858 0.949 . S
C1862 C1870 1.574 . S
C1862 C1878 1.368 . S
H1863 C1871 0.950 . S
H1864 C1869 0.950 . S
H1865 C1870 0.949 . S
H1866 C1872 0.950 . S
H1867 C1873 0.950 . S
H1868 C1874 0.949 . S
C1869 H1864 0.950 . S
C1869 C1871 1.327 . S
C1869 C1875 1.429 . S
C1870 C1862 1.574 . S
C1870 H1865 0.949 . S
C1870 C1876 1.368 . S
C1871 C1855 1.349 . S
C1871 H1863 0.950 . S
C1871 C1869 1.327 . S
C1872 C1860 1.349 . S
C1872 H1866 0.950 . S
C1872 C1873 1.327 . S
C1873 H1867 0.950 . S
C1873 C1872 1.327 . S
C1873 C1877 1.429 . S
C1874 C1857 1.574 . S
C1874 H1868 0.949 . S
C1874 C1878 1.368 . S
C1875 C1856 1.429 . S
C1875 C1869 1.429 . S
C1875 C1876 1.523 . S
C1876 C1857 1.368 . S
C1876 C1870 1.368 . S
C1876 C1875 1.523 . S
C1877 C1861 1.429 . S
C1877 C1873 1.429 . S
C1877 C1878 1.523 . S
C1878 C1862 1.368 . S
C1878 C1874 1.368 . S
C1878 C1877 1.523 . S
H1879 C1854 0.950 . S
H1880 C1856 0.950 . S
H1881 C1857 0.949 . S
H1882 C1859 0.950 . S
H1883 C1861 0.950 . S
C1884 C1885 1.349 . S
C1884 C1886 1.327 . S
C1884 H1909 0.950 . S
C1885 C1884 1.349 . S
C1885 C1901 1.349 . S
C1886 C1884 1.327 . S
C1886 C1905 1.429 . S
C1886 H1910 0.950 . S
C1887 C1904 1.574 . S
C1887 C1906 1.368 . S
C1887 H1911 0.949 . S
H1888 C1892 0.949 . S
C1889 C1890 1.349 . S
C1889 C1891 1.327 . S
C1889 H1912 0.950 . S
C1890 C1889 1.349 . S
C1890 C1902 1.349 . S
C1891 C1889 1.327 . S
C1891 C1907 1.429 . S
C1891 H1913 0.950 . S
C1892 H1888 0.949 . S
C1892 C1900 1.574 . S
C1892 C1908 1.368 . S
H1893 C1901 0.950 . S
H1894 C1899 0.950 . S
H1895 C1900 0.949 . S
H1896 C1902 0.950 . S
H1897 C1903 0.950 . S
H1898 C1904 0.949 . S
C1899 H1894 0.950 . S
C1899 C1901 1.327 . S
C1899 C1905 1.429 . S
C1900 C1892 1.574 . S
C1900 H1895 0.949 . S
C1900 C1906 1.368 . S
C1901 C1885 1.349 . S
C1901 H1893 0.950 . S
C1901 C1899 1.327 . S
C1902 C1890 1.349 . S
C1902 H1896 0.950 . S
C1902 C1903 1.327 . S
C1903 H1897 0.950 . S
C1903 C1902 1.327 . S
C1903 C1907 1.429 . S
C1904 C1887 1.574 . S
C1904 H1898 0.949 . S
C1904 C1908 1.368 . S
C1905 C1886 1.429 . S
C1905 C1899 1.429 . S
C1905 C1906 1.523 . S
C1906 C1887 1.368 . S
C1906 C1900 1.368 . S
C1906 C1905 1.523 . S
C1907 C1891 1.429 . S
C1907 C1903 1.429 . S
C1907 C1908 1.523 . S
C1908 C1892 1.368 . S
C1908 C1904 1.368 . S
C1908 C1907 1.523 . S
H1909 C1884 0.950 . S
H1910 C1886 0.950 . S
H1911 C1887 0.949 . S
H1912 C1889 0.950 . S
H1913 C1891 0.950 . S
C1914 C1915 1.349 . S
C1914 C1916 1.327 . S
C1914 H1939 0.950 . S
C1915 C1914 1.349 . S
C1915 C1931 1.349 . S
C1916 C1914 1.327 . S
C1916 C1935 1.429 . S
C1916 H1940 0.950 . S
C1917 C1934 1.574 . S
C1917 C1936 1.368 . S
C1917 H1941 0.949 . S
H1918 C1922 0.949 . S
C1919 C1920 1.349 . S
C1919 C1921 1.327 . S
C1919 H1942 0.950 . S
C1920 C1919 1.349 . S
C1920 C1932 1.349 . S
C1921 C1919 1.327 . S
C1921 C1937 1.429 . S
C1921 H1943 0.950 . S
C1922 H1918 0.949 . S
C1922 C1930 1.574 . S
C1922 C1938 1.368 . S
H1923 C1931 0.950 . S
H1924 C1929 0.950 . S
H1925 C1930 0.949 . S
H1926 C1932 0.950 . S
H1927 C1933 0.950 . S
H1928 C1934 0.949 . S
C1929 H1924 0.950 . S
C1929 C1931 1.327 . S
C1929 C1935 1.429 . S
C1930 C1922 1.574 . S
C1930 H1925 0.949 . S
C1930 C1936 1.368 . S
C1931 C1915 1.349 . S
C1931 H1923 0.950 . S
C1931 C1929 1.327 . S
C1932 C1920 1.349 . S
C1932 H1926 0.950 . S
C1932 C1933 1.327 . S
C1933 H1927 0.950 . S
C1933 C1932 1.327 . S
C1933 C1937 1.429 . S
C1934 C1917 1.574 . S
C1934 H1928 0.949 . S
C1934 C1938 1.368 . S
C1935 C1916 1.429 . S
C1935 C1929 1.429 . S
C1935 C1936 1.523 . S
C1936 C1917 1.368 . S
C1936 C1930 1.368 . S
C1936 C1935 1.523 . S
C1937 C1921 1.429 . S
C1937 C1933 1.429 . S
C1937 C1938 1.523 . S
C1938 C1922 1.368 . S
C1938 C1934 1.368 . S
C1938 C1937 1.523 . S
H1939 C1914 0.950 . S
H1940 C1916 0.950 . S
H1941 C1917 0.949 . S
H1942 C1919 0.950 . S
H1943 C1921 0.950 . S
C1944 C1945 1.349 . S
C1944 C1946 1.327 . S
C1944 H1969 0.950 . S
C1945 C1944 1.349 . S
C1945 C1961 1.349 . S
C1946 C1944 1.327 . S
C1946 C1965 1.429 . S
C1946 H1970 0.950 . S
C1947 C1964 1.574 . S
C1947 C1966 1.368 1_554 S
C1947 H1971 0.949 . S
H1948 C1952 0.949 . S
C1949 C1950 1.349 . S
C1949 C1951 1.327 . S
C1949 H1972 0.950 . S
C1950 C1949 1.349 . S
C1950 C1962 1.349 1_554 S
C1951 C1949 1.327 . S
C1951 C1967 1.459 . S
C1951 H1973 0.950 . S
C1952 H1948 0.949 . S
C1952 C1960 1.574 . S
C1952 C1968 1.368 . S
H1953 C1961 0.950 . S
H1954 C1959 0.950 1_554 S
H1955 C1960 0.949 . S
H1956 C1962 0.950 . S
H1957 C1963 0.950 . S
H1958 C1964 0.949 . S
C1959 H1954 0.950 1_556 S
C1959 C1961 1.327 . S
C1959 C1965 1.429 . S
C1960 C1952 1.574 . S
C1960 H1955 0.949 . S
C1960 C1966 1.368 . S
C1961 C1945 1.349 . S
C1961 H1953 0.950 . S
C1961 C1959 1.327 . S
C1962 C1950 1.349 1_556 S
C1962 H1956 0.950 . S
C1962 C1963 1.327 . S
C1963 H1957 0.950 . S
C1963 C1962 1.327 . S
C1963 C1967 1.409 1_556 S
C1964 C1947 1.574 . S
C1964 H1958 0.949 . S
C1964 C1968 1.368 1_554 S
C1965 C1946 1.429 . S
C1965 C1959 1.429 . S
C1965 C1966 1.523 . S
C1966 C1947 1.368 1_556 S
C1966 C1960 1.368 . S
C1966 C1965 1.523 . S
C1967 C1951 1.459 . S
C1967 C1963 1.409 1_554 S
C1967 C1968 1.514 1_554 S
C1968 C1952 1.368 . S
C1968 C1964 1.368 1_556 S
C1968 C1967 1.514 1_556 S
H1969 C1944 0.950 . S
H1970 C1946 0.950 . S
H1971 C1947 0.949 . S
H1972 C1949 0.950 . S
H1973 C1951 0.950 . S
C1974 C1975 1.349 . S
C1974 C1976 1.327 . S
C1974 H1999 0.950 . S
C1975 C1974 1.349 . S
C1975 C1991 1.349 . S
C1976 C1974 1.327 . S
C1976 C1995 1.429 . S
C1976 H2000 0.950 . S
C1977 C1994 1.574 . S
C1977 C1996 1.368 1_554 S
C1977 H2001 0.949 . S
H1978 C1982 0.949 . S
C1979 C1980 1.349 . S
C1979 C1981 1.327 . S
C1979 H2002 0.950 . S
C1980 C1979 1.349 . S
C1980 C1992 1.349 1_554 S
C1981 C1979 1.327 . S
C1981 C1997 1.458 . S
C1981 H2003 0.950 . S
C1982 H1978 0.949 . S
C1982 C1990 1.574 . S
C1982 C1998 1.368 . S
H1983 C1991 0.950 . S
H1984 C1989 0.950 1_554 S
H1985 C1990 0.949 . S
H1986 C1992 0.950 . S
H1987 C1993 0.950 . S
H1988 C1994 0.949 . S
C1989 H1984 0.950 1_556 S
C1989 C1991 1.327 . S
C1989 C1995 1.429 . S
C1990 C1982 1.574 . S
C1990 H1985 0.949 . S
C1990 C1996 1.368 . S
C1991 C1975 1.349 . S
C1991 H1983 0.950 . S
C1991 C1989 1.327 . S
C1992 C1980 1.349 1_556 S
C1992 H1986 0.950 . S
C1992 C1993 1.327 . S
C1993 H1987 0.950 . S
C1993 C1992 1.327 . S
C1993 C1997 1.410 1_556 S
C1994 C1977 1.574 . S
C1994 H1988 0.949 . S
C1994 C1998 1.368 1_554 S
C1995 C1976 1.429 . S
C1995 C1989 1.429 . S
C1995 C1996 1.523 . S
C1996 C1977 1.368 1_556 S
C1996 C1990 1.368 . S
C1996 C1995 1.523 . S
C1997 C1981 1.458 . S
C1997 C1993 1.410 1_554 S
C1997 C1998 1.514 1_554 S
C1998 C1982 1.368 . S
C1998 C1994 1.368 1_556 S
C1998 C1997 1.514 1_556 S
H1999 C1974 0.950 . S
H2000 C1976 0.950 . S
H2001 C1977 0.949 . S
H2002 C1979 0.950 . S
H2003 C1981 0.950 . S
C2004 C2005 1.349 . S
C2004 C2006 1.327 . S
C2004 H2029 0.950 . S
C2005 C2004 1.349 . S
C2005 C2021 1.364 . S
C2006 C2004 1.327 . S
C2006 C2025 1.448 . S
C2006 H2030 0.950 . S
C2007 C2024 1.574 . S
C2007 C2026 1.368 . S
C2007 H2031 0.949 . S
H2008 C2012 0.949 . S
C2009 C2010 1.349 . S
C2009 C2011 1.327 . S
C2009 H2032 0.950 . S
C2010 C2009 1.349 . S
C2010 C2022 1.349 . S
C2011 C2009 1.327 . S
C2011 C2027 1.429 . S
C2011 H2033 0.950 . S
C2012 H2008 0.949 . S
C2012 C2020 1.574 1_556 S
C2012 C2028 1.368 . S
H2013 C2021 0.943 1_556 S
H2014 C2019 0.950 . S
H2015 C2020 0.949 . S
H2016 C2022 0.950 . S
H2017 C2023 0.950 . S
H2018 C2024 0.949 . S
C2019 H2014 0.950 . S
C2019 C2021 1.320 1_556 S
C2019 C2025 1.420 1_556 S
C2020 C2012 1.574 1_554 S
C2020 H2015 0.949 . S
C2020 C2026 1.368 1_554 S
C2021 C2005 1.364 . S
C2021 H2013 0.943 1_554 S
C2021 C2019 1.320 1_554 S
C2022 C2010 1.349 . S
C2022 H2016 0.950 . S
C2022 C2023 1.327 . S
C2023 H2017 0.950 . S
C2023 C2022 1.327 . S
C2023 C2027 1.429 . S
C2024 C2007 1.574 . S
C2024 H2018 0.949 . S
C2024 C2028 1.368 . S
C2025 C2006 1.448 . S
C2025 C2019 1.420 1_554 S
C2025 C2026 1.514 1_554 S
C2026 C2007 1.368 . S
C2026 C2020 1.368 1_556 S
C2026 C2025 1.514 1_556 S
C2027 C2011 1.429 . S
C2027 C2023 1.429 . S
C2027 C2028 1.523 . S
C2028 C2012 1.368 . S
C2028 C2024 1.368 . S
C2028 C2027 1.523 . S
H2029 C2004 0.950 . S
H2030 C2006 0.950 . S
H2031 C2007 0.949 . S
H2032 C2009 0.950 . S
H2033 C2011 0.950 . S
C2034 C2035 1.349 . S
C2034 C2036 1.327 . S
C2034 H2059 0.950 . S
C2035 C2034 1.349 . S
C2035 C2051 1.349 . S
C2036 C2034 1.327 . S
C2036 C2055 1.429 . S
C2036 H2060 0.950 . S
C2037 C2054 1.574 . S
C2037 C2056 1.368 . S
C2037 H2061 0.949 . S
H2038 C2042 0.949 . S
C2039 C2040 1.349 . S
C2039 C2041 1.327 . S
C2039 H2062 0.950 . S
C2040 C2039 1.349 . S
C2040 C2052 1.349 . S
C2041 C2039 1.327 . S
C2041 C2057 1.429 . S
C2041 H2063 0.950 . S
C2042 H2038 0.949 . S
C2042 C2050 1.574 . S
C2042 C2058 1.368 . S
H2043 C2051 0.950 . S
H2044 C2049 0.950 . S
H2045 C2050 0.949 . S
H2046 C2052 0.950 . S
H2047 C2053 0.950 . S
H2048 C2054 0.949 . S
C2049 H2044 0.950 . S
C2049 C2051 1.327 . S
C2049 C2055 1.429 . S
C2050 C2042 1.574 . S
C2050 H2045 0.949 . S
C2050 C2056 1.368 . S
C2051 C2035 1.349 . S
C2051 H2043 0.950 . S
C2051 C2049 1.327 . S
C2052 C2040 1.349 . S
C2052 H2046 0.950 . S
C2052 C2053 1.327 . S
C2053 H2047 0.950 . S
C2053 C2052 1.327 . S
C2053 C2057 1.429 . S
C2054 C2037 1.574 . S
C2054 H2048 0.949 . S
C2054 C2058 1.368 . S
C2055 C2036 1.429 . S
C2055 C2049 1.429 . S
C2055 C2056 1.523 . S
C2056 C2037 1.368 . S
C2056 C2050 1.368 . S
C2056 C2055 1.523 . S
C2057 C2041 1.429 . S
C2057 C2053 1.429 . S
C2057 C2058 1.523 . S
C2058 C2042 1.368 . S
C2058 C2054 1.368 . S
C2058 C2057 1.523 . S
H2059 C2034 0.950 . S
H2060 C2036 0.950 . S
H2061 C2037 0.949 . S
H2062 C2039 0.950 . S
H2063 C2041 0.950 . S
C2064 C2065 1.349 . S
C2064 C2066 1.327 . S
C2064 H2089 0.950 . S
C2065 C2064 1.349 . S
C2065 C2081 1.349 . S
C2066 C2064 1.327 . S
C2066 C2085 1.429 . S
C2066 H2090 0.950 . S
C2067 C2084 1.574 . S
C2067 C2086 1.368 . S
C2067 H2091 0.949 . S
H2068 C2072 0.949 . S
C2069 C2070 1.349 . S
C2069 C2071 1.327 . S
C2069 H2092 0.950 . S
C2070 C2069 1.349 . S
C2070 C2082 1.349 . S
C2071 C2069 1.327 . S
C2071 C2087 1.429 . S
C2071 H2093 0.950 . S
C2072 H2068 0.949 . S
C2072 C2080 1.574 . S
C2072 C2088 1.368 . S
H2073 C2081 0.950 . S
H2074 C2079 0.950 . S
H2075 C2080 0.949 . S
H2076 C2082 0.950 . S
H2077 C2083 0.950 . S
H2078 C2084 0.949 . S
C2079 H2074 0.950 . S
C2079 C2081 1.327 . S
C2079 C2085 1.429 . S
C2080 C2072 1.574 . S
C2080 H2075 0.949 . S
C2080 C2086 1.368 . S
C2081 C2065 1.349 . S
C2081 H2073 0.950 . S
C2081 C2079 1.327 . S
C2082 C2070 1.349 . S
C2082 H2076 0.950 . S
C2082 C2083 1.327 . S
C2083 H2077 0.950 . S
C2083 C2082 1.327 . S
C2083 C2087 1.429 . S
C2084 C2067 1.574 . S
C2084 H2078 0.949 . S
C2084 C2088 1.368 . S
C2085 C2066 1.429 . S
C2085 C2079 1.429 . S
C2085 C2086 1.523 . S
C2086 C2067 1.368 . S
C2086 C2080 1.368 . S
C2086 C2085 1.523 . S
C2087 C2071 1.429 . S
C2087 C2083 1.429 . S
C2087 C2088 1.523 . S
C2088 C2072 1.368 . S
C2088 C2084 1.368 . S
C2088 C2087 1.523 . S
H2089 C2064 0.950 . S
H2090 C2066 0.950 . S
H2091 C2067 0.949 . S
H2092 C2069 0.950 . S
H2093 C2071 0.950 . S
C2094 C2095 1.349 . S
C2094 C2096 1.327 . S
C2094 H2119 0.950 . S
C2095 C2094 1.349 . S
C2095 C2111 1.349 . S
C2096 C2094 1.327 . S
C2096 C2115 1.429 . S
C2096 H2120 0.950 . S
C2097 C2114 1.574 . S
C2097 C2116 1.368 . S
C2097 H2121 0.949 . S
H2098 C2102 0.949 . S
C2099 C2100 1.349 . S
C2099 C2101 1.327 . S
C2099 H2122 0.950 . S
C2100 C2099 1.349 . S
C2100 C2112 1.349 . S
C2101 C2099 1.327 . S
C2101 C2117 1.429 . S
C2101 H2123 0.950 . S
C2102 H2098 0.949 . S
C2102 C2110 1.574 . S
C2102 C2118 1.368 . S
H2103 C2111 0.950 . S
H2104 C2109 0.950 . S
H2105 C2110 0.949 . S
H2106 C2112 0.950 . S
H2107 C2113 0.950 . S
H2108 C2114 0.949 . S
C2109 H2104 0.950 . S
C2109 C2111 1.327 . S
C2109 C2115 1.429 . S
C2110 C2102 1.574 . S
C2110 H2105 0.949 . S
C2110 C2116 1.368 . S
C2111 C2095 1.349 . S
C2111 H2103 0.950 . S
C2111 C2109 1.327 . S
C2112 C2100 1.349 . S
C2112 H2106 0.950 . S
C2112 C2113 1.327 . S
C2113 H2107 0.950 . S
C2113 C2112 1.327 . S
C2113 C2117 1.429 . S
C2114 C2097 1.574 . S
C2114 H2108 0.949 . S
C2114 C2118 1.368 . S
C2115 C2096 1.429 . S
C2115 C2109 1.429 . S
C2115 C2116 1.523 . S
C2116 C2097 1.368 . S
C2116 C2110 1.368 . S
C2116 C2115 1.523 . S
C2117 C2101 1.429 . S
C2117 C2113 1.429 . S
C2117 C2118 1.523 . S
C2118 C2102 1.368 . S
C2118 C2114 1.368 . S
C2118 C2117 1.523 . S
H2119 C2094 0.950 . S
H2120 C2096 0.950 . S
H2121 C2097 0.949 . S
H2122 C2099 0.950 . S
H2123 C2101 0.950 . S
C2124 C2125 1.349 . S
C2124 C2126 1.327 . S
C2124 H2149 0.950 . S
C2125 C2124 1.349 . S
C2125 C2141 1.349 . S
C2126 C2124 1.327 . S
C2126 C2145 1.429 . S
C2126 H2150 0.950 . S
C2127 C2144 1.574 . S
C2127 C2146 1.368 . S
C2127 H2151 0.949 . S
H2128 C2132 0.949 . S
C2129 C2130 1.349 . S
C2129 C2131 1.327 . S
C2129 H2152 0.950 . S
C2130 C2129 1.349 . S
C2130 C2142 1.349 . S
C2131 C2129 1.327 . S
C2131 C2147 1.429 . S
C2131 H2153 0.950 . S
C2132 H2128 0.949 . S
C2132 C2140 1.574 . S
C2132 C2148 1.368 . S
H2133 C2141 0.950 . S
H2134 C2139 0.950 . S
H2135 C2140 0.949 . S
H2136 C2142 0.950 . S
H2137 C2143 0.950 . S
H2138 C2144 0.949 . S
C2139 H2134 0.950 . S
C2139 C2141 1.327 . S
C2139 C2145 1.429 . S
C2140 C2132 1.574 . S
C2140 H2135 0.949 . S
C2140 C2146 1.368 . S
C2141 C2125 1.349 . S
C2141 H2133 0.950 . S
C2141 C2139 1.327 . S
C2142 C2130 1.349 . S
C2142 H2136 0.950 . S
C2142 C2143 1.327 . S
C2143 H2137 0.950 . S
C2143 C2142 1.327 . S
C2143 C2147 1.429 . S
C2144 C2127 1.574 . S
C2144 H2138 0.949 . S
C2144 C2148 1.368 . S
C2145 C2126 1.429 . S
C2145 C2139 1.429 . S
C2145 C2146 1.523 . S
C2146 C2127 1.368 . S
C2146 C2140 1.368 . S
C2146 C2145 1.523 . S
C2147 C2131 1.429 . S
C2147 C2143 1.429 . S
C2147 C2148 1.523 . S
C2148 C2132 1.368 . S
C2148 C2144 1.368 . S
C2148 C2147 1.523 . S
H2149 C2124 0.950 . S
H2150 C2126 0.950 . S
H2151 C2127 0.949 . S
H2152 C2129 0.950 . S
H2153 C2131 0.950 . S
C2154 C2155 1.349 . S
C2154 C2156 1.327 . S
C2154 H2179 0.950 . S
C2155 C2154 1.349 . S
C2155 C2171 1.349 . S
C2156 C2154 1.327 . S
C2156 C2175 1.429 . S
C2156 H2180 0.950 . S
C2157 C2174 1.574 . S
C2157 C2176 1.368 . S
C2157 H2181 0.949 . S
H2158 C2162 0.949 . S
C2159 C2160 1.349 . S
C2159 C2161 1.327 . S
C2159 H2182 0.950 . S
C2160 C2159 1.349 . S
C2160 C2172 1.349 . S
C2161 C2159 1.327 . S
C2161 C2177 1.429 . S
C2161 H2183 0.950 . S
C2162 H2158 0.949 . S
C2162 C2170 1.574 . S
C2162 C2178 1.368 . S
H2163 C2171 0.950 . S
H2164 C2169 0.950 . S
H2165 C2170 0.949 . S
H2166 C2172 0.950 . S
H2167 C2173 0.950 . S
H2168 C2174 0.949 . S
C2169 H2164 0.950 . S
C2169 C2171 1.327 . S
C2169 C2175 1.429 . S
C2170 C2162 1.574 . S
C2170 H2165 0.949 . S
C2170 C2176 1.368 . S
C2171 C2155 1.349 . S
C2171 H2163 0.950 . S
C2171 C2169 1.327 . S
C2172 C2160 1.349 . S
C2172 H2166 0.950 . S
C2172 C2173 1.327 . S
C2173 H2167 0.950 . S
C2173 C2172 1.327 . S
C2173 C2177 1.429 . S
C2174 C2157 1.574 . S
C2174 H2168 0.949 . S
C2174 C2178 1.368 . S
C2175 C2156 1.429 . S
C2175 C2169 1.429 . S
C2175 C2176 1.523 . S
C2176 C2157 1.368 . S
C2176 C2170 1.368 . S
C2176 C2175 1.523 . S
C2177 C2161 1.429 . S
C2177 C2173 1.429 . S
C2177 C2178 1.523 . S
C2178 C2162 1.368 . S
C2178 C2174 1.368 . S
C2178 C2177 1.523 . S
H2179 C2154 0.950 . S
H2180 C2156 0.950 . S
H2181 C2157 0.949 . S
H2182 C2159 0.950 . S
H2183 C2161 0.950 . S
C2184 C2185 1.349 . S
C2184 C2186 1.327 . S
C2184 H2209 0.950 . S
C2185 C2184 1.349 . S
C2185 C2201 1.349 . S
C2186 C2184 1.327 . S
C2186 C2205 1.429 . S
C2186 H2210 0.950 . S
C2187 C2204 1.574 . S
C2187 C2206 1.368 . S
C2187 H2211 0.949 . S
H2188 C2192 0.949 . S
C2189 C2190 1.349 . S
C2189 C2191 1.327 . S
C2189 H2212 0.950 . S
C2190 C2189 1.349 . S
C2190 C2202 1.349 . S
C2191 C2189 1.327 . S
C2191 C2207 1.429 . S
C2191 H2213 0.950 . S
C2192 H2188 0.949 . S
C2192 C2200 1.574 . S
C2192 C2208 1.368 . S
H2193 C2201 0.950 . S
H2194 C2199 0.950 . S
H2195 C2200 0.949 . S
H2196 C2202 0.950 . S
H2197 C2203 0.950 . S
H2198 C2204 0.949 . S
C2199 H2194 0.950 . S
C2199 C2201 1.327 . S
C2199 C2205 1.429 . S
C2200 C2192 1.574 . S
C2200 H2195 0.949 . S
C2200 C2206 1.368 . S
C2201 C2185 1.349 . S
C2201 H2193 0.950 . S
C2201 C2199 1.327 . S
C2202 C2190 1.349 . S
C2202 H2196 0.950 . S
C2202 C2203 1.327 . S
C2203 H2197 0.950 . S
C2203 C2202 1.327 . S
C2203 C2207 1.429 . S
C2204 C2187 1.574 . S
C2204 H2198 0.949 . S
C2204 C2208 1.368 . S
C2205 C2186 1.429 . S
C2205 C2199 1.429 . S
C2205 C2206 1.523 . S
C2206 C2187 1.368 . S
C2206 C2200 1.368 . S
C2206 C2205 1.523 . S
C2207 C2191 1.429 . S
C2207 C2203 1.429 . S
C2207 C2208 1.523 . S
C2208 C2192 1.368 . S
C2208 C2204 1.368 . S
C2208 C2207 1.523 . S
H2209 C2184 0.950 . S
H2210 C2186 0.950 . S
H2211 C2187 0.949 . S
H2212 C2189 0.950 . S
H2213 C2191 0.950 . S
C2214 C2215 1.349 . S
C2214 C2216 1.327 . S
C2214 H2239 0.950 . S
C2215 C2214 1.349 . S
C2215 C2231 1.349 . S
C2216 C2214 1.327 . S
C2216 C2235 1.429 . S
C2216 H2240 0.950 . S
C2217 C2234 1.574 . S
C2217 C2236 1.368 . S
C2217 H2241 0.949 . S
H2218 C2222 0.949 . S
C2219 C2220 1.349 . S
C2219 C2221 1.327 . S
C2219 H2242 0.950 . S
C2220 C2219 1.349 . S
C2220 C2232 1.349 . S
C2221 C2219 1.327 . S
C2221 C2237 1.429 . S
C2221 H2243 0.950 . S
C2222 H2218 0.949 . S
C2222 C2230 1.574 . S
C2222 C2238 1.368 . S
H2223 C2231 0.950 . S
H2224 C2229 0.950 . S
H2225 C2230 0.949 . S
H2226 C2232 0.950 . S
H2227 C2233 0.950 . S
H2228 C2234 0.949 . S
C2229 H2224 0.950 . S
C2229 C2231 1.327 . S
C2229 C2235 1.429 . S
C2230 C2222 1.574 . S
C2230 H2225 0.949 . S
C2230 C2236 1.368 . S
C2231 C2215 1.349 . S
C2231 H2223 0.950 . S
C2231 C2229 1.327 . S
C2232 C2220 1.349 . S
C2232 H2226 0.950 . S
C2232 C2233 1.327 . S
C2233 H2227 0.950 . S
C2233 C2232 1.327 . S
C2233 C2237 1.429 . S
C2234 C2217 1.574 . S
C2234 H2228 0.949 . S
C2234 C2238 1.368 . S
C2235 C2216 1.429 . S
C2235 C2229 1.429 . S
C2235 C2236 1.523 . S
C2236 C2217 1.368 . S
C2236 C2230 1.368 . S
C2236 C2235 1.523 . S
C2237 C2221 1.429 . S
C2237 C2233 1.429 . S
C2237 C2238 1.523 . S
C2238 C2222 1.368 . S
C2238 C2234 1.368 . S
C2238 C2237 1.523 . S
H2239 C2214 0.950 . S
H2240 C2216 0.950 . S
H2241 C2217 0.949 . S
H2242 C2219 0.950 . S
H2243 C2221 0.950 . S
C2244 C2245 1.349 . S
C2244 C2246 1.327 . S
C2244 H2269 0.950 . S
C2245 C2244 1.349 . S
C2245 C2261 1.349 . S
C2246 C2244 1.327 . S
C2246 C2265 1.429 . S
C2246 H2270 0.950 . S
C2247 C2264 1.574 . S
C2247 C2266 1.368 . S
C2247 H2271 0.949 . S
H2248 C2252 0.949 . S
C2249 C2250 1.349 . S
C2249 C2251 1.327 . S
C2249 H2272 0.950 . S
C2250 C2249 1.349 . S
C2250 C2262 1.349 . S
C2251 C2249 1.327 . S
C2251 C2267 1.429 . S
C2251 H2273 0.950 . S
C2252 H2248 0.949 . S
C2252 C2260 1.574 . S
C2252 C2268 1.368 . S
H2253 C2261 0.950 . S
H2254 C2259 0.950 . S
H2255 C2260 0.949 . S
H2256 C2262 0.950 . S
H2257 C2263 0.950 . S
H2258 C2264 0.949 . S
C2259 H2254 0.950 . S
C2259 C2261 1.327 . S
C2259 C2265 1.429 . S
C2260 C2252 1.574 . S
C2260 H2255 0.949 . S
C2260 C2266 1.368 . S
C2261 C2245 1.349 . S
C2261 H2253 0.950 . S
C2261 C2259 1.327 . S
C2262 C2250 1.349 . S
C2262 H2256 0.950 . S
C2262 C2263 1.327 . S
C2263 H2257 0.950 . S
C2263 C2262 1.327 . S
C2263 C2267 1.429 . S
C2264 C2247 1.574 . S
C2264 H2258 0.949 . S
C2264 C2268 1.368 . S
C2265 C2246 1.429 . S
C2265 C2259 1.429 . S
C2265 C2266 1.523 . S
C2266 C2247 1.368 . S
C2266 C2260 1.368 . S
C2266 C2265 1.523 . S
C2267 C2251 1.429 . S
C2267 C2263 1.429 . S
C2267 C2268 1.523 . S
C2268 C2252 1.368 . S
C2268 C2264 1.368 . S
C2268 C2267 1.523 . S
H2269 C2244 0.950 . S
H2270 C2246 0.950 . S
H2271 C2247 0.949 . S
H2272 C2249 0.950 . S
H2273 C2251 0.950 . S
C2274 C2275 1.349 . S
C2274 C2276 1.327 . S
C2274 H2299 0.950 . S
C2275 C2274 1.349 . S
C2275 C2291 1.349 . S
C2276 C2274 1.327 . S
C2276 C2295 1.429 . S
C2276 H2300 0.950 . S
C2277 C2294 1.574 . S
C2277 C2296 1.368 . S
C2277 H2301 0.949 . S
H2278 C2282 0.949 . S
C2279 C2280 1.349 . S
C2279 C2281 1.327 . S
C2279 H2302 0.950 . S
C2280 C2279 1.349 . S
C2280 C2292 1.349 . S
C2281 C2279 1.327 . S
C2281 C2297 1.429 . S
C2281 H2303 0.950 . S
C2282 H2278 0.949 . S
C2282 C2290 1.574 . S
C2282 C2298 1.368 . S
H2283 C2291 0.950 . S
H2284 C2289 0.950 . S
H2285 C2290 0.949 . S
H2286 C2292 0.950 . S
H2287 C2293 0.950 . S
H2288 C2294 0.949 . S
C2289 H2284 0.950 . S
C2289 C2291 1.327 . S
C2289 C2295 1.429 . S
C2290 C2282 1.574 . S
C2290 H2285 0.949 . S
C2290 C2296 1.368 . S
C2291 C2275 1.349 . S
C2291 H2283 0.950 . S
C2291 C2289 1.327 . S
C2292 C2280 1.349 . S
C2292 H2286 0.950 . S
C2292 C2293 1.327 . S
C2293 H2287 0.950 . S
C2293 C2292 1.327 . S
C2293 C2297 1.429 . S
C2294 C2277 1.574 . S
C2294 H2288 0.949 . S
C2294 C2298 1.368 . S
C2295 C2276 1.429 . S
C2295 C2289 1.429 . S
C2295 C2296 1.523 . S
C2296 C2277 1.368 . S
C2296 C2290 1.368 . S
C2296 C2295 1.523 . S
C2297 C2281 1.429 . S
C2297 C2293 1.429 . S
C2297 C2298 1.523 . S
C2298 C2282 1.368 . S
C2298 C2294 1.368 . S
C2298 C2297 1.523 . S
H2299 C2274 0.950 . S
H2300 C2276 0.950 . S
H2301 C2277 0.949 . S
H2302 C2279 0.950 . S
H2303 C2281 0.950 . S
C2304 C2305 1.349 . S
C2304 C2306 1.327 . S
C2304 H2329 0.950 . S
C2305 C2304 1.349 . S
C2305 C2321 1.349 . S
C2306 C2304 1.327 . S
C2306 C2325 1.429 . S
C2306 H2330 0.950 . S
C2307 C2324 1.574 . S
C2307 C2326 1.368 . S
C2307 H2331 0.949 . S
H2308 C2312 0.949 . S
C2309 C2310 1.349 . S
C2309 C2311 1.327 . S
C2309 H2332 0.950 . S
C2310 C2309 1.349 . S
C2310 C2322 1.349 . S
C2311 C2309 1.327 . S
C2311 C2327 1.429 . S
C2311 H2333 0.950 . S
C2312 H2308 0.949 . S
C2312 C2320 1.574 . S
C2312 C2328 1.368 . S
H2313 C2321 0.950 . S
H2314 C2319 0.950 . S
H2315 C2320 0.949 . S
H2316 C2322 0.950 . S
H2317 C2323 0.950 . S
H2318 C2324 0.949 . S
C2319 H2314 0.950 . S
C2319 C2321 1.327 . S
C2319 C2325 1.429 . S
C2320 C2312 1.574 . S
C2320 H2315 0.949 . S
C2320 C2326 1.368 . S
C2321 C2305 1.349 . S
C2321 H2313 0.950 . S
C2321 C2319 1.327 . S
C2322 C2310 1.349 . S
C2322 H2316 0.950 . S
C2322 C2323 1.327 . S
C2323 H2317 0.950 . S
C2323 C2322 1.327 . S
C2323 C2327 1.429 . S
C2324 C2307 1.574 . S
C2324 H2318 0.949 . S
C2324 C2328 1.368 . S
C2325 C2306 1.429 . S
C2325 C2319 1.429 . S
C2325 C2326 1.523 . S
C2326 C2307 1.368 . S
C2326 C2320 1.368 . S
C2326 C2325 1.523 . S
C2327 C2311 1.429 . S
C2327 C2323 1.429 . S
C2327 C2328 1.523 . S
C2328 C2312 1.368 . S
C2328 C2324 1.368 . S
C2328 C2327 1.523 . S
H2329 C2304 0.950 . S
H2330 C2306 0.950 . S
H2331 C2307 0.949 . S
H2332 C2309 0.950 . S
H2333 C2311 0.950 . S
C2334 C2335 1.349 . S
C2334 C2336 1.327 . S
C2334 H2359 0.950 . S
C2335 C2334 1.349 . S
C2335 C2351 1.349 . S
C2336 C2334 1.327 . S
C2336 C2355 1.429 . S
C2336 H2360 0.950 . S
C2337 C2354 1.574 . S
C2337 C2356 1.368 . S
C2337 H2361 0.949 . S
H2338 C2342 0.949 . S
C2339 C2340 1.349 . S
C2339 C2341 1.327 . S
C2339 H2362 0.950 . S
C2340 C2339 1.349 . S
C2340 C2352 1.349 . S
C2341 C2339 1.327 . S
C2341 C2357 1.429 . S
C2341 H2363 0.950 . S
C2342 H2338 0.949 . S
C2342 C2350 1.574 . S
C2342 C2358 1.368 . S
H2343 C2351 0.950 . S
H2344 C2349 0.950 . S
H2345 C2350 0.949 . S
H2346 C2352 0.950 . S
H2347 C2353 0.950 . S
H2348 C2354 0.949 . S
C2349 H2344 0.950 . S
C2349 C2351 1.327 . S
C2349 C2355 1.429 . S
C2350 C2342 1.574 . S
C2350 H2345 0.949 . S
C2350 C2356 1.368 . S
C2351 C2335 1.349 . S
C2351 H2343 0.950 . S
C2351 C2349 1.327 . S
C2352 C2340 1.349 . S
C2352 H2346 0.950 . S
C2352 C2353 1.327 . S
C2353 H2347 0.950 . S
C2353 C2352 1.327 . S
C2353 C2357 1.429 . S
C2354 C2337 1.574 . S
C2354 H2348 0.949 . S
C2354 C2358 1.368 . S
C2355 C2336 1.429 . S
C2355 C2349 1.429 . S
C2355 C2356 1.523 . S
C2356 C2337 1.368 . S
C2356 C2350 1.368 . S
C2356 C2355 1.523 . S
C2357 C2341 1.429 . S
C2357 C2353 1.429 . S
C2357 C2358 1.523 . S
C2358 C2342 1.368 . S
C2358 C2354 1.368 . S
C2358 C2357 1.523 . S
H2359 C2334 0.950 . S
H2360 C2336 0.950 . S
H2361 C2337 0.949 . S
H2362 C2339 0.950 . S
H2363 C2341 0.950 . S
C2364 C2365 1.349 . S
C2364 C2366 1.327 . S
C2364 H2389 0.950 . S
C2365 C2364 1.349 . S
C2365 C2381 1.349 . S
C2366 C2364 1.327 . S
C2366 C2385 1.429 . S
C2366 H2390 0.950 . S
C2367 C2384 1.574 . S
C2367 C2386 1.368 . S
C2367 H2391 0.949 . S
H2368 C2372 0.949 . S
C2369 C2370 1.349 . S
C2369 C2371 1.327 . S
C2369 H2392 0.950 . S
C2370 C2369 1.349 . S
C2370 C2382 1.349 . S
C2371 C2369 1.327 . S
C2371 C2387 1.429 . S
C2371 H2393 0.950 . S
C2372 H2368 0.949 . S
C2372 C2380 1.574 . S
C2372 C2388 1.368 . S
H2373 C2381 0.950 . S
H2374 C2379 0.950 . S
H2375 C2380 0.949 . S
H2376 C2382 0.950 . S
H2377 C2383 0.950 . S
H2378 C2384 0.949 . S
C2379 H2374 0.950 . S
C2379 C2381 1.327 . S
C2379 C2385 1.429 . S
C2380 C2372 1.574 . S
C2380 H2375 0.949 . S
C2380 C2386 1.368 . S
C2381 C2365 1.349 . S
C2381 H2373 0.950 . S
C2381 C2379 1.327 . S
C2382 C2370 1.349 . S
C2382 H2376 0.950 . S
C2382 C2383 1.327 . S
C2383 H2377 0.950 . S
C2383 C2382 1.327 . S
C2383 C2387 1.429 . S
C2384 C2367 1.574 . S
C2384 H2378 0.949 . S
C2384 C2388 1.368 . S
C2385 C2366 1.429 . S
C2385 C2379 1.429 . S
C2385 C2386 1.523 . S
C2386 C2367 1.368 . S
C2386 C2380 1.368 . S
C2386 C2385 1.523 . S
C2387 C2371 1.429 . S
C2387 C2383 1.429 . S
C2387 C2388 1.523 . S
C2388 C2372 1.368 . S
C2388 C2384 1.368 . S
C2388 C2387 1.523 . S
H2389 C2364 0.950 . S
H2390 C2366 0.950 . S
H2391 C2367 0.949 . S
H2392 C2369 0.950 . S
H2393 C2371 0.950 . S
C2394 C2395 1.349 . S
C2394 C2396 1.327 . S
C2394 H2419 0.950 . S
C2395 C2394 1.349 . S
C2395 C2411 1.349 . S
C2396 C2394 1.327 . S
C2396 C2415 1.429 . S
C2396 H2420 0.950 . S
C2397 C2414 1.574 . S
C2397 C2416 1.368 . S
C2397 H2421 0.949 . S
H2398 C2402 0.949 . S
C2399 C2400 1.349 . S
C2399 C2401 1.327 . S
C2399 H2422 0.950 . S
C2400 C2399 1.349 . S
C2400 C2412 1.349 . S
C2401 C2399 1.327 . S
C2401 C2417 1.429 . S
C2401 H2423 0.950 . S
C2402 H2398 0.949 . S
C2402 C2410 1.574 . S
C2402 C2418 1.368 . S
H2403 C2411 0.950 . S
H2404 C2409 0.950 . S
H2405 C2410 0.949 . S
H2406 C2412 0.950 . S
H2407 C2413 0.950 . S
H2408 C2414 0.949 . S
C2409 H2404 0.950 . S
C2409 C2411 1.327 . S
C2409 C2415 1.429 . S
C2410 C2402 1.574 . S
C2410 H2405 0.949 . S
C2410 C2416 1.368 . S
C2411 C2395 1.349 . S
C2411 H2403 0.950 . S
C2411 C2409 1.327 . S
C2412 C2400 1.349 . S
C2412 H2406 0.950 . S
C2412 C2413 1.327 . S
C2413 H2407 0.950 . S
C2413 C2412 1.327 . S
C2413 C2417 1.429 . S
C2414 C2397 1.574 . S
C2414 H2408 0.949 . S
C2414 C2418 1.368 . S
C2415 C2396 1.429 . S
C2415 C2409 1.429 . S
C2415 C2416 1.523 . S
C2416 C2397 1.368 . S
C2416 C2410 1.368 . S
C2416 C2415 1.523 . S
C2417 C2401 1.429 . S
C2417 C2413 1.429 . S
C2417 C2418 1.523 . S
C2418 C2402 1.368 . S
C2418 C2414 1.368 . S
C2418 C2417 1.523 . S
H2419 C2394 0.950 . S
H2420 C2396 0.950 . S
H2421 C2397 0.949 . S
H2422 C2399 0.950 . S
H2423 C2401 0.950 . S
C2424 C2425 1.349 . S
C2424 C2426 1.327 . S
C2424 H2449 0.950 . S
C2425 C2424 1.349 . S
C2425 C2441 1.349 . S
C2426 C2424 1.327 . S
C2426 C2445 1.429 . S
C2426 H2450 0.950 . S
C2427 C2444 1.574 . S
C2427 C2446 1.368 . S
C2427 H2451 0.949 . S
H2428 C2432 0.949 . S
C2429 C2430 1.349 . S
C2429 C2431 1.327 . S
C2429 H2452 0.950 . S
C2430 C2429 1.349 . S
C2430 C2442 1.349 . S
C2431 C2429 1.327 . S
C2431 C2447 1.429 . S
C2431 H2453 0.950 . S
C2432 H2428 0.949 . S
C2432 C2440 1.574 . S
C2432 C2448 1.368 . S
H2433 C2441 0.950 . S
H2434 C2439 0.950 . S
H2435 C2440 0.949 . S
H2436 C2442 0.950 . S
H2437 C2443 0.950 . S
H2438 C2444 0.949 . S
C2439 H2434 0.950 . S
C2439 C2441 1.327 . S
C2439 C2445 1.429 . S
C2440 C2432 1.574 . S
C2440 H2435 0.949 . S
C2440 C2446 1.368 . S
C2441 C2425 1.349 . S
C2441 H2433 0.950 . S
C2441 C2439 1.327 . S
C2442 C2430 1.349 . S
C2442 H2436 0.950 . S
C2442 C2443 1.327 . S
C2443 H2437 0.950 . S
C2443 C2442 1.327 . S
C2443 C2447 1.429 . S
C2444 C2427 1.574 . S
C2444 H2438 0.949 . S
C2444 C2448 1.368 . S
C2445 C2426 1.429 . S
C2445 C2439 1.429 . S
C2445 C2446 1.523 . S
C2446 C2427 1.368 . S
C2446 C2440 1.368 . S
C2446 C2445 1.523 . S
C2447 C2431 1.429 . S
C2447 C2443 1.429 . S
C2447 C2448 1.523 . S
C2448 C2432 1.368 . S
C2448 C2444 1.368 . S
C2448 C2447 1.523 . S
H2449 C2424 0.950 . S
H2450 C2426 0.950 . S
H2451 C2427 0.949 . S
H2452 C2429 0.950 . S
H2453 C2431 0.950 . S
C2454 C2455 1.349 . S
C2454 C2456 1.327 . S
C2454 H2479 0.950 . S
C2455 C2454 1.349 . S
C2455 C2471 1.349 . S
C2456 C2454 1.327 . S
C2456 C2475 1.429 . S
C2456 H2480 0.950 . S
C2457 C2474 1.574 . S
C2457 C2476 1.368 . S
C2457 H2481 0.949 . S
H2458 C2462 0.949 . S
C2459 C2460 1.349 . S
C2459 C2461 1.327 . S
C2459 H2482 0.950 . S
C2460 C2459 1.349 . S
C2460 C2472 1.349 . S
C2461 C2459 1.327 . S
C2461 C2477 1.429 . S
C2461 H2483 0.950 . S
C2462 H2458 0.949 . S
C2462 C2470 1.574 . S
C2462 C2478 1.368 . S
H2463 C2471 0.950 . S
H2464 C2469 0.950 . S
H2465 C2470 0.949 . S
H2466 C2472 0.950 . S
H2467 C2473 0.950 . S
H2468 C2474 0.949 . S
C2469 H2464 0.950 . S
C2469 C2471 1.327 . S
C2469 C2475 1.429 . S
C2470 C2462 1.574 . S
C2470 H2465 0.949 . S
C2470 C2476 1.368 . S
C2471 C2455 1.349 . S
C2471 H2463 0.950 . S
C2471 C2469 1.327 . S
C2472 C2460 1.349 . S
C2472 H2466 0.950 . S
C2472 C2473 1.327 . S
C2473 H2467 0.950 . S
C2473 C2472 1.327 . S
C2473 C2477 1.429 . S
C2474 C2457 1.574 . S
C2474 H2468 0.949 . S
C2474 C2478 1.368 . S
C2475 C2456 1.429 . S
C2475 C2469 1.429 . S
C2475 C2476 1.523 . S
C2476 C2457 1.368 . S
C2476 C2470 1.368 . S
C2476 C2475 1.523 . S
C2477 C2461 1.429 . S
C2477 C2473 1.429 . S
C2477 C2478 1.523 . S
C2478 C2462 1.368 . S
C2478 C2474 1.368 . S
C2478 C2477 1.523 . S
H2479 C2454 0.950 . S
H2480 C2456 0.950 . S
H2481 C2457 0.949 . S
H2482 C2459 0.950 . S
H2483 C2461 0.950 . S
C2484 C2485 1.349 . S
C2484 C2486 1.327 . S
C2484 H2509 0.950 . S
C2485 C2484 1.349 . S
C2485 C2501 1.349 . S
C2486 C2484 1.327 . S
C2486 C2505 1.429 . S
C2486 H2510 0.950 . S
C2487 C2504 1.574 . S
C2487 C2506 1.368 . S
C2487 H2511 0.949 . S
H2488 C2492 0.949 . S
C2489 C2490 1.349 . S
C2489 C2491 1.327 . S
C2489 H2512 0.950 . S
C2490 C2489 1.349 . S
C2490 C2502 1.349 . S
C2491 C2489 1.327 . S
C2491 C2507 1.429 . S
C2491 H2513 0.950 . S
C2492 H2488 0.949 . S
C2492 C2500 1.574 . S
C2492 C2508 1.368 . S
H2493 C2501 0.950 . S
H2494 C2499 0.950 . S
H2495 C2500 0.949 . S
H2496 C2502 0.950 . S
H2497 C2503 0.950 . S
H2498 C2504 0.949 . S
C2499 H2494 0.950 . S
C2499 C2501 1.327 . S
C2499 C2505 1.429 . S
C2500 C2492 1.574 . S
C2500 H2495 0.949 . S
C2500 C2506 1.368 . S
C2501 C2485 1.349 . S
C2501 H2493 0.950 . S
C2501 C2499 1.327 . S
C2502 C2490 1.349 . S
C2502 H2496 0.950 . S
C2502 C2503 1.327 . S
C2503 H2497 0.950 . S
C2503 C2502 1.327 . S
C2503 C2507 1.429 . S
C2504 C2487 1.574 . S
C2504 H2498 0.949 . S
C2504 C2508 1.368 . S
C2505 C2486 1.429 . S
C2505 C2499 1.429 . S
C2505 C2506 1.523 . S
C2506 C2487 1.368 . S
C2506 C2500 1.368 . S
C2506 C2505 1.523 . S
C2507 C2491 1.429 . S
C2507 C2503 1.429 . S
C2507 C2508 1.523 . S
C2508 C2492 1.368 . S
C2508 C2504 1.368 . S
C2508 C2507 1.523 . S
H2509 C2484 0.950 . S
H2510 C2486 0.950 . S
H2511 C2487 0.949 . S
H2512 C2489 0.950 . S
H2513 C2491 0.950 . S
C2514 C2515 1.349 . S
C2514 C2516 1.327 . S
C2514 H2539 0.950 . S
C2515 C2514 1.349 . S
C2515 C2531 1.349 . S
C2516 C2514 1.327 . S
C2516 C2535 1.429 . S
C2516 H2540 0.950 . S
C2517 C2534 1.574 . S
C2517 C2536 1.368 . S
C2517 H2541 0.949 . S
H2518 C2522 0.949 . S
C2519 C2520 1.349 . S
C2519 C2521 1.327 . S
C2519 H2542 0.950 . S
C2520 C2519 1.349 . S
C2520 C2532 1.349 . S
C2521 C2519 1.327 . S
C2521 C2537 1.429 . S
C2521 H2543 0.950 . S
C2522 H2518 0.949 . S
C2522 C2530 1.574 . S
C2522 C2538 1.368 . S
H2523 C2531 0.950 . S
H2524 C2529 0.950 . S
H2525 C2530 0.949 . S
H2526 C2532 0.950 . S
H2527 C2533 0.950 . S
H2528 C2534 0.949 . S
C2529 H2524 0.950 . S
C2529 C2531 1.327 . S
C2529 C2535 1.429 . S
C2530 C2522 1.574 . S
C2530 H2525 0.949 . S
C2530 C2536 1.368 . S
C2531 C2515 1.349 . S
C2531 H2523 0.950 . S
C2531 C2529 1.327 . S
C2532 C2520 1.349 . S
C2532 H2526 0.950 . S
C2532 C2533 1.327 . S
C2533 H2527 0.950 . S
C2533 C2532 1.327 . S
C2533 C2537 1.429 . S
C2534 C2517 1.574 . S
C2534 H2528 0.949 . S
C2534 C2538 1.368 . S
C2535 C2516 1.429 . S
C2535 C2529 1.429 . S
C2535 C2536 1.523 . S
C2536 C2517 1.368 . S
C2536 C2530 1.368 . S
C2536 C2535 1.523 . S
C2537 C2521 1.429 . S
C2537 C2533 1.429 . S
C2537 C2538 1.523 . S
C2538 C2522 1.368 . S
C2538 C2534 1.368 . S
C2538 C2537 1.523 . S
H2539 C2514 0.950 . S
H2540 C2516 0.950 . S
H2541 C2517 0.949 . S
H2542 C2519 0.950 . S
H2543 C2521 0.950 . S
C2544 C2545 1.349 . S
C2544 C2546 1.327 . S
C2544 H2569 0.950 . S
C2545 C2544 1.349 . S
C2545 C2561 1.349 . S
C2546 C2544 1.327 . S
C2546 C2565 1.429 . S
C2546 H2570 0.950 . S
C2547 C2564 1.574 . S
C2547 C2566 1.368 . S
C2547 H2571 0.949 . S
H2548 C2552 0.949 . S
C2549 C2550 1.349 . S
C2549 C2551 1.327 . S
C2549 H2572 0.950 . S
C2550 C2549 1.349 . S
C2550 C2562 1.349 . S
C2551 C2549 1.327 . S
C2551 C2567 1.429 . S
C2551 H2573 0.950 . S
C2552 H2548 0.949 . S
C2552 C2560 1.574 . S
C2552 C2568 1.368 . S
H2553 C2561 0.950 . S
H2554 C2559 0.950 . S
H2555 C2560 0.949 . S
H2556 C2562 0.950 . S
H2557 C2563 0.950 . S
H2558 C2564 0.949 . S
C2559 H2554 0.950 . S
C2559 C2561 1.327 . S
C2559 C2565 1.429 . S
C2560 C2552 1.574 . S
C2560 H2555 0.949 . S
C2560 C2566 1.368 . S
C2561 C2545 1.349 . S
C2561 H2553 0.950 . S
C2561 C2559 1.327 . S
C2562 C2550 1.349 . S
C2562 H2556 0.950 . S
C2562 C2563 1.327 . S
C2563 H2557 0.950 . S
C2563 C2562 1.327 . S
C2563 C2567 1.429 . S
C2564 C2547 1.574 . S
C2564 H2558 0.949 . S
C2564 C2568 1.368 . S
C2565 C2546 1.429 . S
C2565 C2559 1.429 . S
C2565 C2566 1.523 . S
C2566 C2547 1.368 . S
C2566 C2560 1.368 . S
C2566 C2565 1.523 . S
C2567 C2551 1.429 . S
C2567 C2563 1.429 . S
C2567 C2568 1.523 . S
C2568 C2552 1.368 . S
C2568 C2564 1.368 . S
C2568 C2567 1.523 . S
H2569 C2544 0.950 . S
H2570 C2546 0.950 . S
H2571 C2547 0.949 . S
H2572 C2549 0.950 . S
H2573 C2551 0.950 . S
C2574 C2575 1.349 . S
C2574 C2576 1.327 . S
C2574 H2599 0.950 . S
C2575 C2574 1.349 . S
C2575 C2591 1.349 . S
C2576 C2574 1.327 . S
C2576 C2595 1.429 . S
C2576 H2600 0.950 . S
C2577 C2594 1.574 . S
C2577 C2596 1.368 . S
C2577 H2601 0.949 . S
H2578 C2582 0.949 . S
C2579 C2580 1.349 . S
C2579 C2581 1.327 . S
C2579 H2602 0.950 . S
C2580 C2579 1.349 . S
C2580 C2592 1.349 . S
C2581 C2579 1.327 . S
C2581 C2597 1.429 . S
C2581 H2603 0.950 . S
C2582 H2578 0.949 . S
C2582 C2590 1.574 . S
C2582 C2598 1.368 . S
H2583 C2591 0.950 . S
H2584 C2589 0.950 . S
H2585 C2590 0.949 . S
H2586 C2592 0.950 . S
H2587 C2593 0.950 . S
H2588 C2594 0.949 . S
C2589 H2584 0.950 . S
C2589 C2591 1.327 . S
C2589 C2595 1.429 . S
C2590 C2582 1.574 . S
C2590 H2585 0.949 . S
C2590 C2596 1.368 . S
C2591 C2575 1.349 . S
C2591 H2583 0.950 . S
C2591 C2589 1.327 . S
C2592 C2580 1.349 . S
C2592 H2586 0.950 . S
C2592 C2593 1.327 . S
C2593 H2587 0.950 . S
C2593 C2592 1.327 . S
C2593 C2597 1.429 . S
C2594 C2577 1.574 . S
C2594 H2588 0.949 . S
C2594 C2598 1.368 . S
C2595 C2576 1.429 . S
C2595 C2589 1.429 . S
C2595 C2596 1.523 . S
C2596 C2577 1.368 . S
C2596 C2590 1.368 . S
C2596 C2595 1.523 . S
C2597 C2581 1.429 . S
C2597 C2593 1.429 . S
C2597 C2598 1.523 . S
C2598 C2582 1.368 . S
C2598 C2594 1.368 . S
C2598 C2597 1.523 . S
H2599 C2574 0.950 . S
H2600 C2576 0.950 . S
H2601 C2577 0.949 . S
H2602 C2579 0.950 . S
H2603 C2581 0.950 . S
C2604 C2605 1.349 . S
C2604 C2606 1.327 . S
C2604 H2629 0.950 . S
C2605 C2604 1.349 . S
C2605 C2621 1.349 . S
C2606 C2604 1.327 . S
C2606 C2625 1.429 . S
C2606 H2630 0.950 . S
C2607 C2624 1.574 . S
C2607 C2626 1.368 . S
C2607 H2631 0.949 . S
H2608 C2612 0.949 . S
C2609 C2610 1.349 . S
C2609 C2611 1.327 . S
C2609 H2632 0.950 . S
C2610 C2609 1.349 . S
C2610 C2622 1.349 . S
C2611 C2609 1.327 . S
C2611 C2627 1.429 . S
C2611 H2633 0.950 . S
C2612 H2608 0.949 . S
C2612 C2620 1.574 . S
C2612 C2628 1.368 . S
H2613 C2621 0.950 . S
H2614 C2619 0.950 . S
H2615 C2620 0.949 . S
H2616 C2622 0.950 . S
H2617 C2623 0.950 . S
H2618 C2624 0.949 . S
C2619 H2614 0.950 . S
C2619 C2621 1.327 . S
C2619 C2625 1.429 . S
C2620 C2612 1.574 . S
C2620 H2615 0.949 . S
C2620 C2626 1.368 . S
C2621 C2605 1.349 . S
C2621 H2613 0.950 . S
C2621 C2619 1.327 . S
C2622 C2610 1.349 . S
C2622 H2616 0.950 . S
C2622 C2623 1.327 . S
C2623 H2617 0.950 . S
C2623 C2622 1.327 . S
C2623 C2627 1.429 . S
C2624 C2607 1.574 . S
C2624 H2618 0.949 . S
C2624 C2628 1.368 . S
C2625 C2606 1.429 . S
C2625 C2619 1.429 . S
C2625 C2626 1.523 . S
C2626 C2607 1.368 . S
C2626 C2620 1.368 . S
C2626 C2625 1.523 . S
C2627 C2611 1.429 . S
C2627 C2623 1.429 . S
C2627 C2628 1.523 . S
C2628 C2612 1.368 . S
C2628 C2624 1.368 . S
C2628 C2627 1.523 . S
H2629 C2604 0.950 . S
H2630 C2606 0.950 . S
H2631 C2607 0.949 . S
H2632 C2609 0.950 . S
H2633 C2611 0.950 . S
C2634 C2635 1.349 . S
C2634 C2636 1.327 . S
C2634 H2659 0.950 . S
C2635 C2634 1.349 . S
C2635 C2651 1.349 . S
C2636 C2634 1.327 . S
C2636 C2655 1.429 . S
C2636 H2660 0.950 . S
C2637 C2654 1.574 . S
C2637 C2656 1.368 . S
C2637 H2661 0.949 . S
H2638 C2642 0.949 . S
C2639 C2640 1.349 . S
C2639 C2641 1.327 . S
C2639 H2662 0.950 . S
C2640 C2639 1.349 . S
C2640 C2652 1.349 . S
C2641 C2639 1.327 . S
C2641 C2657 1.429 . S
C2641 H2663 0.950 . S
C2642 H2638 0.949 . S
C2642 C2650 1.574 . S
C2642 C2658 1.368 . S
H2643 C2651 0.950 . S
H2644 C2649 0.950 . S
H2645 C2650 0.949 . S
H2646 C2652 0.950 . S
H2647 C2653 0.950 . S
H2648 C2654 0.949 . S
C2649 H2644 0.950 . S
C2649 C2651 1.327 . S
C2649 C2655 1.429 . S
C2650 C2642 1.574 . S
C2650 H2645 0.949 . S
C2650 C2656 1.368 . S
C2651 C2635 1.349 . S
C2651 H2643 0.950 . S
C2651 C2649 1.327 . S
C2652 C2640 1.349 . S
C2652 H2646 0.950 . S
C2652 C2653 1.327 . S
C2653 H2647 0.950 . S
C2653 C2652 1.327 . S
C2653 C2657 1.429 . S
C2654 C2637 1.574 . S
C2654 H2648 0.949 . S
C2654 C2658 1.368 . S
C2655 C2636 1.429 . S
C2655 C2649 1.429 . S
C2655 C2656 1.523 . S
C2656 C2637 1.368 . S
C2656 C2650 1.368 . S
C2656 C2655 1.523 . S
C2657 C2641 1.429 . S
C2657 C2653 1.429 . S
C2657 C2658 1.523 . S
C2658 C2642 1.368 . S
C2658 C2654 1.368 . S
C2658 C2657 1.523 . S
H2659 C2634 0.950 . S
H2660 C2636 0.950 . S
H2661 C2637 0.949 . S
H2662 C2639 0.950 . S
H2663 C2641 0.950 . S
C2664 C2665 1.349 . S
C2664 C2666 1.327 . S
C2664 H2689 0.950 . S
C2665 C2664 1.349 . S
C2665 C2681 1.349 . S
C2666 C2664 1.327 . S
C2666 C2685 1.429 . S
C2666 H2690 0.950 . S
C2667 C2684 1.574 . S
C2667 C2686 1.368 . S
C2667 H2691 0.949 . S
H2668 C2672 0.949 . S
C2669 C2670 1.349 . S
C2669 C2671 1.327 . S
C2669 H2692 0.950 . S
C2670 C2669 1.349 . S
C2670 C2682 1.349 . S
C2671 C2669 1.327 . S
C2671 C2687 1.429 . S
C2671 H2693 0.950 . S
C2672 H2668 0.949 . S
C2672 C2680 1.574 . S
C2672 C2688 1.368 . S
H2673 C2681 0.950 . S
H2674 C2679 0.950 . S
H2675 C2680 0.949 . S
H2676 C2682 0.950 . S
H2677 C2683 0.950 . S
H2678 C2684 0.949 . S
C2679 H2674 0.950 . S
C2679 C2681 1.327 . S
C2679 C2685 1.429 . S
C2680 C2672 1.574 . S
C2680 H2675 0.949 . S
C2680 C2686 1.368 . S
C2681 C2665 1.349 . S
C2681 H2673 0.950 . S
C2681 C2679 1.327 . S
C2682 C2670 1.349 . S
C2682 H2676 0.950 . S
C2682 C2683 1.327 . S
C2683 H2677 0.950 . S
C2683 C2682 1.327 . S
C2683 C2687 1.429 . S
C2684 C2667 1.574 . S
C2684 H2678 0.949 . S
C2684 C2688 1.368 . S
C2685 C2666 1.429 . S
C2685 C2679 1.429 . S
C2685 C2686 1.523 . S
C2686 C2667 1.368 . S
C2686 C2680 1.368 . S
C2686 C2685 1.523 . S
C2687 C2671 1.429 . S
C2687 C2683 1.429 . S
C2687 C2688 1.523 . S
C2688 C2672 1.368 . S
C2688 C2684 1.368 . S
C2688 C2687 1.523 . S
H2689 C2664 0.950 . S
H2690 C2666 0.950 . S
H2691 C2667 0.949 . S
H2692 C2669 0.950 . S
H2693 C2671 0.950 . S
C2694 C2695 1.349 . S
C2694 C2696 1.327 . S
C2694 H2719 0.950 . S
C2695 C2694 1.349 . S
C2695 C2711 1.349 . S
C2696 C2694 1.327 . S
C2696 C2715 1.429 . S
C2696 H2720 0.950 . S
C2697 C2714 1.574 . S
C2697 C2716 1.368 . S
C2697 H2721 0.949 . S
H2698 C2702 0.949 . S
C2699 C2700 1.349 . S
C2699 C2701 1.327 . S
C2699 H2722 0.950 . S
C2700 C2699 1.349 . S
C2700 C2712 1.349 . S
C2701 C2699 1.327 . S
C2701 C2717 1.429 . S
C2701 H2723 0.950 . S
C2702 H2698 0.949 . S
C2702 C2710 1.574 . S
C2702 C2718 1.368 . S
H2703 C2711 0.950 . S
H2704 C2709 0.950 . S
H2705 C2710 0.949 . S
H2706 C2712 0.950 . S
H2707 C2713 0.950 . S
H2708 C2714 0.949 . S
C2709 H2704 0.950 . S
C2709 C2711 1.327 . S
C2709 C2715 1.429 . S
C2710 C2702 1.574 . S
C2710 H2705 0.949 . S
C2710 C2716 1.368 . S
C2711 C2695 1.349 . S
C2711 H2703 0.950 . S
C2711 C2709 1.327 . S
C2712 C2700 1.349 . S
C2712 H2706 0.950 . S
C2712 C2713 1.327 . S
C2713 H2707 0.950 . S
C2713 C2712 1.327 . S
C2713 C2717 1.429 . S
C2714 C2697 1.574 . S
C2714 H2708 0.949 . S
C2714 C2718 1.368 . S
C2715 C2696 1.429 . S
C2715 C2709 1.429 . S
C2715 C2716 1.523 . S
C2716 C2697 1.368 . S
C2716 C2710 1.368 . S
C2716 C2715 1.523 . S
C2717 C2701 1.429 . S
C2717 C2713 1.429 . S
C2717 C2718 1.523 . S
C2718 C2702 1.368 . S
C2718 C2714 1.368 . S
C2718 C2717 1.523 . S
H2719 C2694 0.950 . S
H2720 C2696 0.950 . S
H2721 C2697 0.949 . S
H2722 C2699 0.950 . S
H2723 C2701 0.950 . S
C2724 C2725 1.349 . S
C2724 C2726 1.327 . S
C2724 H2749 0.950 . S
C2725 C2724 1.349 . S
C2725 C2741 1.349 . S
C2726 C2724 1.327 . S
C2726 C2745 1.429 . S
C2726 H2750 0.950 . S
C2727 C2744 1.574 . S
C2727 C2746 1.368 . S
C2727 H2751 0.949 . S
H2728 C2732 0.949 . S
C2729 C2730 1.349 . S
C2729 C2731 1.327 . S
C2729 H2752 0.950 . S
C2730 C2729 1.349 . S
C2730 C2742 1.349 . S
C2731 C2729 1.327 . S
C2731 C2747 1.429 . S
C2731 H2753 0.950 . S
C2732 H2728 0.949 . S
C2732 C2740 1.574 . S
C2732 C2748 1.368 . S
H2733 C2741 0.950 . S
H2734 C2739 0.950 . S
H2735 C2740 0.949 . S
H2736 C2742 0.950 . S
H2737 C2743 0.950 . S
H2738 C2744 0.949 . S
C2739 H2734 0.950 . S
C2739 C2741 1.327 . S
C2739 C2745 1.429 . S
C2740 C2732 1.574 . S
C2740 H2735 0.949 . S
C2740 C2746 1.368 . S
C2741 C2725 1.349 . S
C2741 H2733 0.950 . S
C2741 C2739 1.327 . S
C2742 C2730 1.349 . S
C2742 H2736 0.950 . S
C2742 C2743 1.327 . S
C2743 H2737 0.950 . S
C2743 C2742 1.327 . S
C2743 C2747 1.429 . S
C2744 C2727 1.574 . S
C2744 H2738 0.949 . S
C2744 C2748 1.368 . S
C2745 C2726 1.429 . S
C2745 C2739 1.429 . S
C2745 C2746 1.523 . S
C2746 C2727 1.368 . S
C2746 C2740 1.368 . S
C2746 C2745 1.523 . S
C2747 C2731 1.429 . S
C2747 C2743 1.429 . S
C2747 C2748 1.523 . S
C2748 C2732 1.368 . S
C2748 C2744 1.368 . S
C2748 C2747 1.523 . S
H2749 C2724 0.950 . S
H2750 C2726 0.950 . S
H2751 C2727 0.949 . S
H2752 C2729 0.950 . S
H2753 C2731 0.950 . S
C2754 C2755 1.349 . S
C2754 C2756 1.327 . S
C2754 H2779 0.950 . S
C2755 C2754 1.349 . S
C2755 C2771 1.349 . S
C2756 C2754 1.327 . S
C2756 C2775 1.429 . S
C2756 H2780 0.950 . S
C2757 C2774 1.574 . S
C2757 C2776 1.368 . S
C2757 H2781 0.949 . S
H2758 C2762 0.949 . S
C2759 C2760 1.349 . S
C2759 C2761 1.327 . S
C2759 H2782 0.950 . S
C2760 C2759 1.349 . S
C2760 C2772 1.349 . S
C2761 C2759 1.327 . S
C2761 C2777 1.429 . S
C2761 H2783 0.950 . S
C2762 H2758 0.949 . S
C2762 C2770 1.574 . S
C2762 C2778 1.368 . S
H2763 C2771 0.950 . S
H2764 C2769 0.950 . S
H2765 C2770 0.949 . S
H2766 C2772 0.950 . S
H2767 C2773 0.950 . S
H2768 C2774 0.949 . S
C2769 H2764 0.950 . S
C2769 C2771 1.327 . S
C2769 C2775 1.429 . S
C2770 C2762 1.574 . S
C2770 H2765 0.949 . S
C2770 C2776 1.368 . S
C2771 C2755 1.349 . S
C2771 H2763 0.950 . S
C2771 C2769 1.327 . S
C2772 C2760 1.349 . S
C2772 H2766 0.950 . S
C2772 C2773 1.327 . S
C2773 H2767 0.950 . S
C2773 C2772 1.327 . S
C2773 C2777 1.429 . S
C2774 C2757 1.574 . S
C2774 H2768 0.949 . S
C2774 C2778 1.368 . S
C2775 C2756 1.429 . S
C2775 C2769 1.429 . S
C2775 C2776 1.523 . S
C2776 C2757 1.368 . S
C2776 C2770 1.368 . S
C2776 C2775 1.523 . S
C2777 C2761 1.429 . S
C2777 C2773 1.429 . S
C2777 C2778 1.523 . S
C2778 C2762 1.368 . S
C2778 C2774 1.368 . S
C2778 C2777 1.523 . S
H2779 C2754 0.950 . S
H2780 C2756 0.950 . S
H2781 C2757 0.949 . S
H2782 C2759 0.950 . S
H2783 C2761 0.950 . S
C2784 C2785 1.349 . S
C2784 C2786 1.327 . S
C2784 H2809 0.950 . S
C2785 C2784 1.349 . S
C2785 C2801 1.349 . S
C2786 C2784 1.327 . S
C2786 C2805 1.429 . S
C2786 H2810 0.950 . S
C2787 C2804 1.574 . S
C2787 C2806 1.368 . S
C2787 H2811 0.949 . S
H2788 C2792 0.949 . S
C2789 C2790 1.349 . S
C2789 C2791 1.327 . S
C2789 H2812 0.950 . S
C2790 C2789 1.349 . S
C2790 C2802 1.349 . S
C2791 C2789 1.327 . S
C2791 C2807 1.429 . S
C2791 H2813 0.950 . S
C2792 H2788 0.949 . S
C2792 C2800 1.574 . S
C2792 C2808 1.368 . S
H2793 C2801 0.950 . S
H2794 C2799 0.950 . S
H2795 C2800 0.949 . S
H2796 C2802 0.950 . S
H2797 C2803 0.950 . S
H2798 C2804 0.949 . S
C2799 H2794 0.950 . S
C2799 C2801 1.327 . S
C2799 C2805 1.429 . S
C2800 C2792 1.574 . S
C2800 H2795 0.949 . S
C2800 C2806 1.368 . S
C2801 C2785 1.349 . S
C2801 H2793 0.950 . S
C2801 C2799 1.327 . S
C2802 C2790 1.349 . S
C2802 H2796 0.950 . S
C2802 C2803 1.327 . S
C2803 H2797 0.950 . S
C2803 C2802 1.327 . S
C2803 C2807 1.429 . S
C2804 C2787 1.574 . S
C2804 H2798 0.949 . S
C2804 C2808 1.368 . S
C2805 C2786 1.429 . S
C2805 C2799 1.429 . S
C2805 C2806 1.523 . S
C2806 C2787 1.368 . S
C2806 C2800 1.368 . S
C2806 C2805 1.523 . S
C2807 C2791 1.429 . S
C2807 C2803 1.429 . S
C2807 C2808 1.523 . S
C2808 C2792 1.368 . S
C2808 C2804 1.368 . S
C2808 C2807 1.523 . S
H2809 C2784 0.950 . S
H2810 C2786 0.950 . S
H2811 C2787 0.949 . S
H2812 C2789 0.950 . S
H2813 C2791 0.950 . S
C2814 C2815 1.349 . S
C2814 C2816 1.327 . S
C2814 H2839 0.950 . S
C2815 C2814 1.349 . S
C2815 C2831 1.349 . S
C2816 C2814 1.327 . S
C2816 C2835 1.429 . S
C2816 H2840 0.950 . S
C2817 C2834 1.574 . S
C2817 C2836 1.368 . S
C2817 H2841 0.949 . S
H2818 C2822 0.949 . S
C2819 C2820 1.349 . S
C2819 C2821 1.327 . S
C2819 H2842 0.950 . S
C2820 C2819 1.349 . S
C2820 C2832 1.349 . S
C2821 C2819 1.327 . S
C2821 C2837 1.429 . S
C2821 H2843 0.950 . S
C2822 H2818 0.949 . S
C2822 C2830 1.574 . S
C2822 C2838 1.368 . S
H2823 C2831 0.950 . S
H2824 C2829 0.950 . S
H2825 C2830 0.949 . S
H2826 C2832 0.950 . S
H2827 C2833 0.950 . S
H2828 C2834 0.949 . S
C2829 H2824 0.950 . S
C2829 C2831 1.327 . S
C2829 C2835 1.429 . S
C2830 C2822 1.574 . S
C2830 H2825 0.949 . S
C2830 C2836 1.368 . S
C2831 C2815 1.349 . S
C2831 H2823 0.950 . S
C2831 C2829 1.327 . S
C2832 C2820 1.349 . S
C2832 H2826 0.950 . S
C2832 C2833 1.327 . S
C2833 H2827 0.950 . S
C2833 C2832 1.327 . S
C2833 C2837 1.429 . S
C2834 C2817 1.574 . S
C2834 H2828 0.949 . S
C2834 C2838 1.368 . S
C2835 C2816 1.429 . S
C2835 C2829 1.429 . S
C2835 C2836 1.523 . S
C2836 C2817 1.368 . S
C2836 C2830 1.368 . S
C2836 C2835 1.523 . S
C2837 C2821 1.429 . S
C2837 C2833 1.429 . S
C2837 C2838 1.523 . S
C2838 C2822 1.368 . S
C2838 C2834 1.368 . S
C2838 C2837 1.523 . S
H2839 C2814 0.950 . S
H2840 C2816 0.950 . S
H2841 C2817 0.949 . S
H2842 C2819 0.950 . S
H2843 C2821 0.950 . S
C2844 C2845 1.349 . S
C2844 C2846 1.327 . S
C2844 H2869 0.950 . S
C2845 C2844 1.349 . S
C2845 C2861 1.349 . S
C2846 C2844 1.327 . S
C2846 C2865 1.429 . S
C2846 H2870 0.950 . S
C2847 C2864 1.574 . S
C2847 C2866 1.368 . S
C2847 H2871 0.949 . S
H2848 C2852 0.949 . S
C2849 C2850 1.349 . S
C2849 C2851 1.327 . S
C2849 H2872 0.950 . S
C2850 C2849 1.349 . S
C2850 C2862 1.349 . S
C2851 C2849 1.327 . S
C2851 C2867 1.429 . S
C2851 H2873 0.950 . S
C2852 H2848 0.949 . S
C2852 C2860 1.574 . S
C2852 C2868 1.368 . S
H2853 C2861 0.950 . S
H2854 C2859 0.950 . S
H2855 C2860 0.949 . S
H2856 C2862 0.950 . S
H2857 C2863 0.950 . S
H2858 C2864 0.949 . S
C2859 H2854 0.950 . S
C2859 C2861 1.327 . S
C2859 C2865 1.429 . S
C2860 C2852 1.574 . S
C2860 H2855 0.949 . S
C2860 C2866 1.368 . S
C2861 C2845 1.349 . S
C2861 H2853 0.950 . S
C2861 C2859 1.327 . S
C2862 C2850 1.349 . S
C2862 H2856 0.950 . S
C2862 C2863 1.327 . S
C2863 H2857 0.950 . S
C2863 C2862 1.327 . S
C2863 C2867 1.429 . S
C2864 C2847 1.574 . S
C2864 H2858 0.949 . S
C2864 C2868 1.368 . S
C2865 C2846 1.429 . S
C2865 C2859 1.429 . S
C2865 C2866 1.523 . S
C2866 C2847 1.368 . S
C2866 C2860 1.368 . S
C2866 C2865 1.523 . S
C2867 C2851 1.429 . S
C2867 C2863 1.429 . S
C2867 C2868 1.523 . S
C2868 C2852 1.368 . S
C2868 C2864 1.368 . S
C2868 C2867 1.523 . S
H2869 C2844 0.950 . S
H2870 C2846 0.950 . S
H2871 C2847 0.949 . S
H2872 C2849 0.950 . S
H2873 C2851 0.950 . S
C2874 C2875 1.349 . S
C2874 C2876 1.327 . S
C2874 H2899 0.950 . S
C2875 C2874 1.349 . S
C2875 C2891 1.349 . S
C2876 C2874 1.327 . S
C2876 C2895 1.429 . S
C2876 H2900 0.950 . S
C2877 C2894 1.574 1_545 S
C2877 C2896 1.368 . S
C2877 H2901 0.949 . S
H2878 C2882 0.949 . S
C2879 C2880 1.349 . S
C2879 C2881 1.327 . S
C2879 H2902 0.950 . S
C2880 C2879 1.349 . S
C2880 C2892 1.349 . S
C2881 C2879 1.327 . S
C2881 C2897 1.429 . S
C2881 H2903 0.950 . S
C2882 H2878 0.949 . S
C2882 C2890 1.574 1_565 S
C2882 C2898 1.368 . S
H2883 C2891 0.950 . S
H2884 C2889 0.950 . S
H2885 C2890 0.949 . S
H2886 C2892 0.950 . S
H2887 C2893 0.950 . S
H2888 C2894 0.949 . S
C2889 H2884 0.950 . S
C2889 C2891 1.327 . S
C2889 C2895 1.429 . S
C2890 C2882 1.574 1_545 S
C2890 H2885 0.949 . S
C2890 C2896 1.368 . S
C2891 C2875 1.349 . S
C2891 H2883 0.950 . S
C2891 C2889 1.327 . S
C2892 C2880 1.349 . S
C2892 H2886 0.950 . S
C2892 C2893 1.327 . S
C2893 H2887 0.950 . S
C2893 C2892 1.327 . S
C2893 C2897 1.429 . S
C2894 C2877 1.574 1_565 S
C2894 H2888 0.949 . S
C2894 C2898 1.368 . S
C2895 C2876 1.429 . S
C2895 C2889 1.429 . S
C2895 C2896 1.523 . S
C2896 C2877 1.368 . S
C2896 C2890 1.368 . S
C2896 C2895 1.523 . S
C2897 C2881 1.429 . S
C2897 C2893 1.429 . S
C2897 C2898 1.523 . S
C2898 C2882 1.368 . S
C2898 C2894 1.368 . S
C2898 C2897 1.523 . S
H2899 C2874 0.950 . S
H2900 C2876 0.950 . S
H2901 C2877 0.949 . S
H2902 C2879 0.950 . S
H2903 C2881 0.950 . S
C2904 C2905 1.349 . S
C2904 C2906 1.327 . S
C2904 H2929 0.950 . S
C2905 C2904 1.349 . S
C2905 C2921 1.349 . S
C2906 C2904 1.327 . S
C2906 C2925 1.429 . S
C2906 H2930 0.950 . S
C2907 C2924 1.574 . S
C2907 C2926 1.368 1_655 S
C2907 H2931 0.949 . S
H2908 C2912 0.949 . S
C2909 C2910 1.349 . S
C2909 C2911 1.327 . S
C2909 H2932 0.950 . S
C2910 C2909 1.349 . S
C2910 C2922 1.349 . S
C2911 C2909 1.327 . S
C2911 C2927 1.429 . S
C2911 H2933 0.950 . S
C2912 H2908 0.949 . S
C2912 C2920 1.574 . S
C2912 C2928 1.368 1_455 S
H2913 C2921 0.950 . S
H2914 C2919 0.950 1_655 S
H2915 C2920 0.949 . S
H2916 C2922 0.950 . S
H2917 C2923 0.950 1_455 S
H2918 C2924 0.949 . S
C2919 H2914 0.950 1_455 S
C2919 C2921 1.327 . S
C2919 C2925 1.429 . S
C2920 C2912 1.574 . S
C2920 H2915 0.949 . S
C2920 C2926 1.368 . S
C2921 C2905 1.349 . S
C2921 H2913 0.950 . S
C2921 C2919 1.327 . S
C2922 C2910 1.349 . S
C2922 H2916 0.950 . S
C2922 C2923 1.327 . S
C2923 H2917 0.950 1_655 S
C2923 C2922 1.327 . S
C2923 C2927 1.429 . S
C2924 C2907 1.574 . S
C2924 H2918 0.949 . S
C2924 C2928 1.368 . S
C2925 C2906 1.429 . S
C2925 C2919 1.429 . S
C2925 C2926 1.523 . S
C2926 C2907 1.368 1_455 S
C2926 C2920 1.368 . S
C2926 C2925 1.523 . S
C2927 C2911 1.429 . S
C2927 C2923 1.429 . S
C2927 C2928 1.523 . S
C2928 C2912 1.368 1_655 S
C2928 C2924 1.368 . S
C2928 C2927 1.523 . S
H2929 C2904 0.950 . S
H2930 C2906 0.950 . S
H2931 C2907 0.949 . S
H2932 C2909 0.950 . S
H2933 C2911 0.950 . S
C2934 C2935 1.349 . S
C2934 C2936 1.327 . S
C2934 H2959 0.950 . S
C2935 C2934 1.349 . S
C2935 C2951 1.349 . S
C2936 C2934 1.327 . S
C2936 C2955 1.429 . S
C2936 H2960 0.950 . S
C2937 C2954 1.574 . S
C2937 C2956 1.368 . S
C2937 H2961 0.949 . S
H2938 C2942 0.949 . S
C2939 C2940 1.349 . S
C2939 C2941 1.327 . S
C2939 H2962 0.950 . S
C2940 C2939 1.349 . S
C2940 C2952 1.349 . S
C2941 C2939 1.327 . S
C2941 C2957 1.429 . S
C2941 H2963 0.950 . S
C2942 H2938 0.949 . S
C2942 C2950 1.574 . S
C2942 C2958 1.368 . S
H2943 C2951 0.950 . S
H2944 C2949 0.950 . S
H2945 C2950 0.949 . S
H2946 C2952 0.950 . S
H2947 C2953 0.950 . S
H2948 C2954 0.949 . S
C2949 H2944 0.950 . S
C2949 C2951 1.327 . S
C2949 C2955 1.429 . S
C2950 C2942 1.574 . S
C2950 H2945 0.949 . S
C2950 C2956 1.368 . S
C2951 C2935 1.349 . S
C2951 H2943 0.950 . S
C2951 C2949 1.327 . S
C2952 C2940 1.349 . S
C2952 H2946 0.950 . S
C2952 C2953 1.327 . S
C2953 H2947 0.950 . S
C2953 C2952 1.327 . S
C2953 C2957 1.429 . S
C2954 C2937 1.574 . S
C2954 H2948 0.949 . S
C2954 C2958 1.368 . S
C2955 C2936 1.429 . S
C2955 C2949 1.429 . S
C2955 C2956 1.523 . S
C2956 C2937 1.368 . S
C2956 C2950 1.368 . S
C2956 C2955 1.523 . S
C2957 C2941 1.429 . S
C2957 C2953 1.429 . S
C2957 C2958 1.523 . S
C2958 C2942 1.368 . S
C2958 C2954 1.368 . S
C2958 C2957 1.523 . S
H2959 C2934 0.950 . S
H2960 C2936 0.950 . S
H2961 C2937 0.949 . S
H2962 C2939 0.950 . S
H2963 C2941 0.950 . S
C2964 C2965 1.349 . S
C2964 C2966 1.327 . S
C2964 H2989 0.950 . S
C2965 C2964 1.349 . S
C2965 C2981 1.349 . S
C2966 C2964 1.327 . S
C2966 C2985 1.429 . S
C2966 H2990 0.950 . S
C2967 C2984 1.574 . S
C2967 C2986 1.368 1_565 S
C2967 H2991 0.949 . S
H2968 C2972 0.949 . S
C2969 C2970 1.349 . S
C2969 C2971 1.327 . S
C2969 H2992 0.950 . S
C2970 C2969 1.349 . S
C2970 C2982 1.349 . S
C2971 C2969 1.327 . S
C2971 C2987 1.429 . S
C2971 H2993 0.950 . S
C2972 H2968 0.949 . S
C2972 C2980 1.574 . S
C2972 C2988 1.368 1_545 S
H2973 C2981 0.950 . S
H2974 C2979 0.950 1_565 S
H2975 C2980 0.949 . S
H2976 C2982 0.950 . S
H2977 C2983 0.950 1_545 S
H2978 C2984 0.949 . S
C2979 H2974 0.950 1_545 S
C2979 C2981 1.327 . S
C2979 C2985 1.429 . S
C2980 C2972 1.574 . S
C2980 H2975 0.949 . S
C2980 C2986 1.368 . S
C2981 C2965 1.349 . S
C2981 H2973 0.950 . S
C2981 C2979 1.327 . S
C2982 C2970 1.349 . S
C2982 H2976 0.950 . S
C2982 C2983 1.327 . S
C2983 H2977 0.950 1_565 S
C2983 C2982 1.327 . S
C2983 C2987 1.429 . S
C2984 C2967 1.574 . S
C2984 H2978 0.949 . S
C2984 C2988 1.368 . S
C2985 C2966 1.429 . S
C2985 C2979 1.429 . S
C2985 C2986 1.523 . S
C2986 C2967 1.368 1_545 S
C2986 C2980 1.368 . S
C2986 C2985 1.523 . S
C2987 C2971 1.429 . S
C2987 C2983 1.429 . S
C2987 C2988 1.523 . S
C2988 C2972 1.368 1_565 S
C2988 C2984 1.368 . S
C2988 C2987 1.523 . S
H2989 C2964 0.950 . S
H2990 C2966 0.950 . S
H2991 C2967 0.949 . S
H2992 C2969 0.950 . S
H2993 C2971 0.950 . S
C2994 C2995 1.349 . S
C2994 C2996 1.327 . S
C2994 H3019 0.950 . S
C2995 C2994 1.349 . S
C2995 C3011 1.349 . S
C2996 C2994 1.327 . S
C2996 C3015 1.429 . S
C2996 H3020 0.950 . S
C2997 C3014 1.574 . S
C2997 C3016 1.368 1_655 S
C2997 H3021 0.949 . S
H2998 C3002 0.949 . S
C2999 C3000 1.349 . S
C2999 C3001 1.327 . S
C2999 H3022 0.950 . S
C3000 C2999 1.349 . S
C3000 C3012 1.349 . S
C3001 C2999 1.327 . S
C3001 C3017 1.429 . S
C3001 H3023 0.950 . S
C3002 H2998 0.949 . S
C3002 C3010 1.574 . S
C3002 C3018 1.368 1_455 S
H3003 C3011 0.950 . S
H3004 C3009 0.950 1_655 S
H3005 C3010 0.949 . S
H3006 C3012 0.950 . S
H3007 C3013 0.950 1_455 S
H3008 C3014 0.949 . S
C3009 H3004 0.950 1_455 S
C3009 C3011 1.327 . S
C3009 C3015 1.429 . S
C3010 C3002 1.574 . S
C3010 H3005 0.949 . S
C3010 C3016 1.368 . S
C3011 C2995 1.349 . S
C3011 H3003 0.950 . S
C3011 C3009 1.327 . S
C3012 C3000 1.349 . S
C3012 H3006 0.950 . S
C3012 C3013 1.327 . S
C3013 H3007 0.950 1_655 S
C3013 C3012 1.327 . S
C3013 C3017 1.429 . S
C3014 C2997 1.574 . S
C3014 H3008 0.949 . S
C3014 C3018 1.368 . S
C3015 C2996 1.429 . S
C3015 C3009 1.429 . S
C3015 C3016 1.523 . S
C3016 C2997 1.368 1_455 S
C3016 C3010 1.368 . S
C3016 C3015 1.523 . S
C3017 C3001 1.429 . S
C3017 C3013 1.429 . S
C3017 C3018 1.523 . S
C3018 C3002 1.368 1_655 S
C3018 C3014 1.368 . S
C3018 C3017 1.523 . S
H3019 C2994 0.950 . S
H3020 C2996 0.950 . S
H3021 C2997 0.949 . S
H3022 C2999 0.950 . S
H3023 C3001 0.950 . S
C3024 C3025 1.349 . S
C3024 C3026 1.327 . S
C3024 H3049 0.950 . S
C3025 C3024 1.349 . S
C3025 C3041 1.349 . S
C3026 C3024 1.327 . S
C3026 C3045 1.429 . S
C3026 H3050 0.950 . S
C3027 C3044 1.574 . S
C3027 C3046 1.368 . S
C3027 H3051 0.949 . S
H3028 C3032 0.949 . S
C3029 C3030 1.349 . S
C3029 C3031 1.327 . S
C3029 H3052 0.950 . S
C3030 C3029 1.349 . S
C3030 C3042 1.349 . S
C3031 C3029 1.327 . S
C3031 C3047 1.429 . S
C3031 H3053 0.950 . S
C3032 H3028 0.949 . S
C3032 C3040 1.574 . S
C3032 C3048 1.368 . S
H3033 C3041 0.950 . S
H3034 C3039 0.950 . S
H3035 C3040 0.949 . S
H3036 C3042 0.950 . S
H3037 C3043 0.950 . S
H3038 C3044 0.949 . S
C3039 H3034 0.950 . S
C3039 C3041 1.327 . S
C3039 C3045 1.429 . S
C3040 C3032 1.574 . S
C3040 H3035 0.949 . S
C3040 C3046 1.368 . S
C3041 C3025 1.349 . S
C3041 H3033 0.950 . S
C3041 C3039 1.327 . S
C3042 C3030 1.349 . S
C3042 H3036 0.950 . S
C3042 C3043 1.327 . S
C3043 H3037 0.950 . S
C3043 C3042 1.327 . S
C3043 C3047 1.429 . S
C3044 C3027 1.574 . S
C3044 H3038 0.949 . S
C3044 C3048 1.368 . S
C3045 C3026 1.429 . S
C3045 C3039 1.429 . S
C3045 C3046 1.523 . S
C3046 C3027 1.368 . S
C3046 C3040 1.368 . S
C3046 C3045 1.523 . S
C3047 C3031 1.429 . S
C3047 C3043 1.429 . S
C3047 C3048 1.523 . S
C3048 C3032 1.368 . S
C3048 C3044 1.368 . S
C3048 C3047 1.523 . S
H3049 C3024 0.950 . S
H3050 C3026 0.950 . S
H3051 C3027 0.949 . S
H3052 C3029 0.950 . S
H3053 C3031 0.950 . S
C3054 C3055 1.349 . S
C3054 C3056 1.327 . S
C3054 H3079 0.950 . S
C3055 C3054 1.349 . S
C3055 C3071 1.349 . S
C3056 C3054 1.327 . S
C3056 C3075 1.429 . S
C3056 H3080 0.950 . S
C3057 C3074 1.574 . S
C3057 C3076 1.368 . S
C3057 H3081 0.949 . S
H3058 C3062 0.949 . S
C3059 C3060 1.349 . S
C3059 C3061 1.327 . S
C3059 H3082 0.950 . S
C3060 C3059 1.349 . S
C3060 C3072 1.349 . S
C3061 C3059 1.327 . S
C3061 C3077 1.429 . S
C3061 H3083 0.950 . S
C3062 H3058 0.949 . S
C3062 C3070 1.574 . S
C3062 C3078 1.368 . S
H3063 C3071 0.950 . S
H3064 C3069 0.950 . S
H3065 C3070 0.949 . S
H3066 C3072 0.950 . S
H3067 C3073 0.950 . S
H3068 C3074 0.949 . S
C3069 H3064 0.950 . S
C3069 C3071 1.327 . S
C3069 C3075 1.429 . S
C3070 C3062 1.574 . S
C3070 H3065 0.949 . S
C3070 C3076 1.368 . S
C3071 C3055 1.349 . S
C3071 H3063 0.950 . S
C3071 C3069 1.327 . S
C3072 C3060 1.349 . S
C3072 H3066 0.950 . S
C3072 C3073 1.327 . S
C3073 H3067 0.950 . S
C3073 C3072 1.327 . S
C3073 C3077 1.429 . S
C3074 C3057 1.574 . S
C3074 H3068 0.949 . S
C3074 C3078 1.368 . S
C3075 C3056 1.429 . S
C3075 C3069 1.429 . S
C3075 C3076 1.523 . S
C3076 C3057 1.368 . S
C3076 C3070 1.368 . S
C3076 C3075 1.523 . S
C3077 C3061 1.429 . S
C3077 C3073 1.429 . S
C3077 C3078 1.523 . S
C3078 C3062 1.368 . S
C3078 C3074 1.368 . S
C3078 C3077 1.523 . S
H3079 C3054 0.950 . S
H3080 C3056 0.950 . S
H3081 C3057 0.949 . S
H3082 C3059 0.950 . S
H3083 C3061 0.950 . S
C3084 C3085 1.349 . S
C3084 C3086 1.327 . S
C3084 H3109 0.950 . S
C3085 C3084 1.349 . S
C3085 C3101 1.349 . S
C3086 C3084 1.327 . S
C3086 C3105 1.429 . S
C3086 H3110 0.950 . S
C3087 C3104 1.574 . S
C3087 C3106 1.368 . S
C3087 H3111 0.949 . S
H3088 C3092 0.949 . S
C3089 C3090 1.349 . S
C3089 C3091 1.327 . S
C3089 H3112 0.950 . S
C3090 C3089 1.349 . S
C3090 C3102 1.349 . S
C3091 C3089 1.327 . S
C3091 C3107 1.429 . S
C3091 H3113 0.950 . S
C3092 H3088 0.949 . S
C3092 C3100 1.574 . S
C3092 C3108 1.368 . S
H3093 C3101 0.950 . S
H3094 C3099 0.950 . S
H3095 C3100 0.949 . S
H3096 C3102 0.950 . S
H3097 C3103 0.950 . S
H3098 C3104 0.949 . S
C3099 H3094 0.950 . S
C3099 C3101 1.327 . S
C3099 C3105 1.429 . S
C3100 C3092 1.574 . S
C3100 H3095 0.949 . S
C3100 C3106 1.368 . S
C3101 C3085 1.349 . S
C3101 H3093 0.950 . S
C3101 C3099 1.327 . S
C3102 C3090 1.349 . S
C3102 H3096 0.950 . S
C3102 C3103 1.327 . S
C3103 H3097 0.950 . S
C3103 C3102 1.327 . S
C3103 C3107 1.429 . S
C3104 C3087 1.574 . S
C3104 H3098 0.949 . S
C3104 C3108 1.368 . S
C3105 C3086 1.429 . S
C3105 C3099 1.429 . S
C3105 C3106 1.523 . S
C3106 C3087 1.368 . S
C3106 C3100 1.368 . S
C3106 C3105 1.523 . S
C3107 C3091 1.429 . S
C3107 C3103 1.429 . S
C3107 C3108 1.523 . S
C3108 C3092 1.368 . S
C3108 C3104 1.368 . S
C3108 C3107 1.523 . S
H3109 C3084 0.950 . S
H3110 C3086 0.950 . S
H3111 C3087 0.949 . S
H3112 C3089 0.950 . S
H3113 C3091 0.950 . S
C3114 C3115 1.349 . S
C3114 C3116 1.327 . S
C3114 H3139 0.950 . S
C3115 C3114 1.349 . S
C3115 C3131 1.349 . S
C3116 C3114 1.327 . S
C3116 C3135 1.429 . S
C3116 H3140 0.950 . S
C3117 C3134 1.574 . S
C3117 C3136 1.368 . S
C3117 H3141 0.949 . S
H3118 C3122 0.949 . S
C3119 C3120 1.349 . S
C3119 C3121 1.327 1_556 S
C3119 H3142 0.950 . S
C3120 C3119 1.349 . S
C3120 C3132 1.349 . S
C3121 C3119 1.327 1_554 S
C3121 C3137 1.429 . S
C3121 H3143 0.950 . S
C3122 H3118 0.949 . S
C3122 C3130 1.574 . S
C3122 C3138 1.368 . S
H3123 C3131 0.950 . S
H3124 C3129 0.950 . S
H3125 C3130 0.949 . S
H3126 C3132 0.950 . S
H3127 C3133 0.950 . S
H3128 C3134 0.949 . S
C3129 H3124 0.950 . S
C3129 C3131 1.327 . S
C3129 C3135 1.429 . S
C3130 C3122 1.574 . S
C3130 H3125 0.949 . S
C3130 C3136 1.368 . S
C3131 C3115 1.349 . S
C3131 H3123 0.950 . S
C3131 C3129 1.327 . S
C3132 C3120 1.349 . S
C3132 H3126 0.950 . S
C3132 C3133 1.327 1_556 S
C3133 H3127 0.950 . S
C3133 C3132 1.327 1_554 S
C3133 C3137 1.429 . S
C3134 C3117 1.574 . S
C3134 H3128 0.949 . S
C3134 C3138 1.368 . S
C3135 C3116 1.429 . S
C3135 C3129 1.429 . S
C3135 C3136 1.523 . S
C3136 C3117 1.368 . S
C3136 C3130 1.368 . S
C3136 C3135 1.523 . S
C3137 C3121 1.429 . S
C3137 C3133 1.429 . S
C3137 C3138 1.523 . S
C3138 C3122 1.368 . S
C3138 C3134 1.368 . S
C3138 C3137 1.523 . S
H3139 C3114 0.950 . S
H3140 C3116 0.950 . S
H3141 C3117 0.949 . S
H3142 C3119 0.950 . S
H3143 C3121 0.950 . S
C3144 C3145 1.349 . S
C3144 C3146 1.327 . S
C3144 H3169 0.950 . S
C3145 C3144 1.349 . S
C3145 C3161 1.349 . S
C3146 C3144 1.327 . S
C3146 C3165 1.429 . S
C3146 H3170 0.950 . S
C3147 C3164 1.574 . S
C3147 C3166 1.368 . S
C3147 H3171 0.949 . S
H3148 C3152 0.949 . S
C3149 C3150 1.349 . S
C3149 C3151 1.327 1_556 S
C3149 H3172 0.950 . S
C3150 C3149 1.349 . S
C3150 C3162 1.349 1_556 S
C3151 C3149 1.327 1_554 S
C3151 C3167 1.429 . S
C3151 H3173 0.950 . S
C3152 H3148 0.949 . S
C3152 C3160 1.574 . S
C3152 C3168 1.368 . S
H3153 C3161 0.950 . S
H3154 C3159 0.950 . S
H3155 C3160 0.949 . S
H3156 C3162 0.950 . S
H3157 C3163 0.950 . S
H3158 C3164 0.949 . S
C3159 H3154 0.950 . S
C3159 C3161 1.327 . S
C3159 C3165 1.429 . S
C3160 C3152 1.574 . S
C3160 H3155 0.949 . S
C3160 C3166 1.368 . S
C3161 C3145 1.349 . S
C3161 H3153 0.950 . S
C3161 C3159 1.327 . S
C3162 C3150 1.349 1_554 S
C3162 H3156 0.950 . S
C3162 C3163 1.327 . S
C3163 H3157 0.950 . S
C3163 C3162 1.327 . S
C3163 C3167 1.429 . S
C3164 C3147 1.574 . S
C3164 H3158 0.949 . S
C3164 C3168 1.368 . S
C3165 C3146 1.429 . S
C3165 C3159 1.429 . S
C3165 C3166 1.523 . S
C3166 C3147 1.368 . S
C3166 C3160 1.368 . S
C3166 C3165 1.523 . S
C3167 C3151 1.429 . S
C3167 C3163 1.429 . S
C3167 C3168 1.523 . S
C3168 C3152 1.368 . S
C3168 C3164 1.368 . S
C3168 C3167 1.523 . S
H3169 C3144 0.950 . S
H3170 C3146 0.950 . S
H3171 C3147 0.949 . S
H3172 C3149 0.950 . S
H3173 C3151 0.950 . S
C3174 C3175 1.349 . S
C3174 C3176 1.327 1_556 S
C3174 H3199 0.950 . S
C3175 C3174 1.349 . S
C3175 C3191 1.349 . S
C3176 C3174 1.327 1_554 S
C3176 C3195 1.429 . S
C3176 H3200 0.950 . S
C3177 C3194 1.574 . S
C3177 C3196 1.368 . S
C3177 H3201 0.949 . S
H3178 C3182 0.949 . S
C3179 C3180 1.349 . S
C3179 C3181 1.327 . S
C3179 H3202 0.950 . S
C3180 C3179 1.349 . S
C3180 C3192 1.349 . S
C3181 C3179 1.327 . S
C3181 C3197 1.429 . S
C3181 H3203 0.950 . S
C3182 H3178 0.949 . S
C3182 C3190 1.574 . S
C3182 C3198 1.368 . S
H3183 C3191 0.950 . S
H3184 C3189 0.950 . S
H3185 C3190 0.949 . S
H3186 C3192 0.950 . S
H3187 C3193 0.950 . S
H3188 C3194 0.949 . S
C3189 H3184 0.950 . S
C3189 C3191 1.327 1_554 S
C3189 C3195 1.429 . S
C3190 C3182 1.574 . S
C3190 H3185 0.949 . S
C3190 C3196 1.368 . S
C3191 C3175 1.349 . S
C3191 H3183 0.950 . S
C3191 C3189 1.327 1_556 S
C3192 C3180 1.349 . S
C3192 H3186 0.950 . S
C3192 C3193 1.327 . S
C3193 H3187 0.950 . S
C3193 C3192 1.327 . S
C3193 C3197 1.429 . S
C3194 C3177 1.574 . S
C3194 H3188 0.949 . S
C3194 C3198 1.368 . S
C3195 C3176 1.429 . S
C3195 C3189 1.429 . S
C3195 C3196 1.523 . S
C3196 C3177 1.368 . S
C3196 C3190 1.368 . S
C3196 C3195 1.523 . S
C3197 C3181 1.429 . S
C3197 C3193 1.429 . S
C3197 C3198 1.523 . S
C3198 C3182 1.368 . S
C3198 C3194 1.368 . S
C3198 C3197 1.523 . S
H3199 C3174 0.950 . S
H3200 C3176 0.950 . S
H3201 C3177 0.949 . S
H3202 C3179 0.950 . S
H3203 C3181 0.950 . S
C3204 C3205 1.349 . S
C3204 C3206 1.327 1_554 S
C3204 H3229 0.950 . S
C3205 C3204 1.349 . S
C3205 C3221 1.349 . S
C3206 C3204 1.327 1_556 S
C3206 C3225 1.429 . S
C3206 H3230 0.950 . S
C3207 C3224 1.574 . S
C3207 C3226 1.368 . S
C3207 H3231 0.949 . S
H3208 C3212 0.949 . S
C3209 C3210 1.349 . S
C3209 C3211 1.327 . S
C3209 H3232 0.950 . S
C3210 C3209 1.349 . S
C3210 C3222 1.349 . S
C3211 C3209 1.327 . S
C3211 C3227 1.429 . S
C3211 H3233 0.950 . S
C3212 H3208 0.949 . S
C3212 C3220 1.574 . S
C3212 C3228 1.368 . S
H3213 C3221 0.950 . S
H3214 C3219 0.950 . S
H3215 C3220 0.949 . S
H3216 C3222 0.950 . S
H3217 C3223 0.950 . S
H3218 C3224 0.949 . S
C3219 H3214 0.950 . S
C3219 C3221 1.327 1_556 S
C3219 C3225 1.429 . S
C3220 C3212 1.574 . S
C3220 H3215 0.949 . S
C3220 C3226 1.368 . S
C3221 C3205 1.349 . S
C3221 H3213 0.950 . S
C3221 C3219 1.327 1_554 S
C3222 C3210 1.349 . S
C3222 H3216 0.950 . S
C3222 C3223 1.327 . S
C3223 H3217 0.950 . S
C3223 C3222 1.327 . S
C3223 C3227 1.429 . S
C3224 C3207 1.574 . S
C3224 H3218 0.949 . S
C3224 C3228 1.368 . S
C3225 C3206 1.429 . S
C3225 C3219 1.429 . S
C3225 C3226 1.523 . S
C3226 C3207 1.368 . S
C3226 C3220 1.368 . S
C3226 C3225 1.523 . S
C3227 C3211 1.429 . S
C3227 C3223 1.429 . S
C3227 C3228 1.523 . S
C3228 C3212 1.368 . S
C3228 C3224 1.368 . S
C3228 C3227 1.523 . S
H3229 C3204 0.950 . S
H3230 C3206 0.950 . S
H3231 C3207 0.949 . S
H3232 C3209 0.950 . S
H3233 C3211 0.950 . S
C3234 C3235 1.349 1_556 S
C3234 C3236 1.327 . S
C3234 H3259 0.950 . S
C3235 C3234 1.349 1_554 S
C3235 C3251 1.349 . S
C3236 C3234 1.327 . S
C3236 C3255 1.429 . S
C3236 H3260 0.950 . S
C3237 C3254 1.574 . S
C3237 C3256 1.368 . S
C3237 H3261 0.949 . S
H3238 C3242 0.949 . S
C3239 C3240 1.349 . S
C3239 C3241 1.327 . S
C3239 H3262 0.950 . S
C3240 C3239 1.349 . S
C3240 C3252 1.349 . S
C3241 C3239 1.327 . S
C3241 C3257 1.429 . S
C3241 H3263 0.950 . S
C3242 H3238 0.949 . S
C3242 C3250 1.574 . S
C3242 C3258 1.368 . S
H3243 C3251 0.950 . S
H3244 C3249 0.950 . S
H3245 C3250 0.949 . S
H3246 C3252 0.950 . S
H3247 C3253 0.950 . S
H3248 C3254 0.949 . S
C3249 H3244 0.950 . S
C3249 C3251 1.327 1_556 S
C3249 C3255 1.429 . S
C3250 C3242 1.574 . S
C3250 H3245 0.949 . S
C3250 C3256 1.368 . S
C3251 C3235 1.349 . S
C3251 H3243 0.950 . S
C3251 C3249 1.327 1_554 S
C3252 C3240 1.349 . S
C3252 H3246 0.950 . S
C3252 C3253 1.327 . S
C3253 H3247 0.950 . S
C3253 C3252 1.327 . S
C3253 C3257 1.429 . S
C3254 C3237 1.574 . S
C3254 H3248 0.949 . S
C3254 C3258 1.368 . S
C3255 C3236 1.429 . S
C3255 C3249 1.429 . S
C3255 C3256 1.523 . S
C3256 C3237 1.368 . S
C3256 C3250 1.368 . S
C3256 C3255 1.523 . S
C3257 C3241 1.429 . S
C3257 C3253 1.429 . S
C3257 C3258 1.523 . S
C3258 C3242 1.368 . S
C3258 C3254 1.368 . S
C3258 C3257 1.523 . S
H3259 C3234 0.950 . S
H3260 C3236 0.950 . S
H3261 C3237 0.949 . S
H3262 C3239 0.950 . S
H3263 C3241 0.950 . S
C3264 C3265 1.349 . S
C3264 C3266 1.327 . S
C3264 H3289 0.950 . S
C3265 C3264 1.349 . S
C3265 C3281 1.349 . S
C3266 C3264 1.327 . S
C3266 C3285 1.429 . S
C3266 H3290 0.950 . S
C3267 C3284 1.574 . S
C3267 C3286 1.368 . S
C3267 H3291 0.949 . S
H3268 C3272 0.949 . S
C3269 C3270 1.349 . S
C3269 C3271 1.327 1_554 S
C3269 H3292 0.950 . S
C3270 C3269 1.349 . S
C3270 C3282 1.349 . S
C3271 C3269 1.327 1_556 S
C3271 C3287 1.429 . S
C3271 H3293 0.950 . S
C3272 H3268 0.949 . S
C3272 C3280 1.574 . S
C3272 C3288 1.368 . S
H3273 C3281 0.950 . S
H3274 C3279 0.950 . S
H3275 C3280 0.949 . S
H3276 C3282 0.950 . S
H3277 C3283 0.950 . S
H3278 C3284 0.949 . S
C3279 H3274 0.950 . S
C3279 C3281 1.327 . S
C3279 C3285 1.429 . S
C3280 C3272 1.574 . S
C3280 H3275 0.949 . S
C3280 C3286 1.368 . S
C3281 C3265 1.349 . S
C3281 H3273 0.950 . S
C3281 C3279 1.327 . S
C3282 C3270 1.349 . S
C3282 H3276 0.950 . S
C3282 C3283 1.327 1_554 S
C3283 H3277 0.950 . S
C3283 C3282 1.327 1_556 S
C3283 C3287 1.429 . S
C3284 C3267 1.574 . S
C3284 H3278 0.949 . S
C3284 C3288 1.368 . S
C3285 C3266 1.429 . S
C3285 C3279 1.429 . S
C3285 C3286 1.523 . S
C3286 C3267 1.368 . S
C3286 C3280 1.368 . S
C3286 C3285 1.523 . S
C3287 C3271 1.429 . S
C3287 C3283 1.429 . S
C3287 C3288 1.523 . S
C3288 C3272 1.368 . S
C3288 C3284 1.368 . S
C3288 C3287 1.523 . S
H3289 C3264 0.950 . S
H3290 C3266 0.950 . S
H3291 C3267 0.949 . S
H3292 C3269 0.950 . S
H3293 C3271 0.950 . S
C3294 C3295 1.349 . S
C3294 C3296 1.327 . S
C3294 H3319 0.950 . S
C3295 C3294 1.349 . S
C3295 C3311 1.349 . S
C3296 C3294 1.327 . S
C3296 C3315 1.429 . S
C3296 H3320 0.950 . S
C3297 C3314 1.574 . S
C3297 C3316 1.368 . S
C3297 H3321 0.949 . S
H3298 C3302 0.949 . S
C3299 C3300 1.349 . S
C3299 C3301 1.327 . S
C3299 H3322 0.950 . S
C3300 C3299 1.349 . S
C3300 C3312 1.349 . S
C3301 C3299 1.327 . S
C3301 C3317 1.429 . S
C3301 H3323 0.950 . S
C3302 H3298 0.949 . S
C3302 C3310 1.574 . S
C3302 C3318 1.368 . S
H3303 C3311 0.950 . S
H3304 C3309 0.950 . S
H3305 C3310 0.949 . S
H3306 C3312 0.950 . S
H3307 C3313 0.950 . S
H3308 C3314 0.949 . S
C3309 H3304 0.950 . S
C3309 C3311 1.327 . S
C3309 C3315 1.429 . S
C3310 C3302 1.574 . S
C3310 H3305 0.949 . S
C3310 C3316 1.368 . S
C3311 C3295 1.349 . S
C3311 H3303 0.950 . S
C3311 C3309 1.327 . S
C3312 C3300 1.349 . S
C3312 H3306 0.950 . S
C3312 C3313 1.327 . S
C3313 H3307 0.950 . S
C3313 C3312 1.327 . S
C3313 C3317 1.429 . S
C3314 C3297 1.574 . S
C3314 H3308 0.949 . S
C3314 C3318 1.368 . S
C3315 C3296 1.429 . S
C3315 C3309 1.429 . S
C3315 C3316 1.523 . S
C3316 C3297 1.368 . S
C3316 C3310 1.368 . S
C3316 C3315 1.523 . S
C3317 C3301 1.429 . S
C3317 C3313 1.429 . S
C3317 C3318 1.523 . S
C3318 C3302 1.368 . S
C3318 C3314 1.368 . S
C3318 C3317 1.523 . S
H3319 C3294 0.950 . S
H3320 C3296 0.950 . S
H3321 C3297 0.949 . S
H3322 C3299 0.950 . S
H3323 C3301 0.950 . S
C3324 C3325 1.349 . S
C3324 C3326 1.327 . S
C3324 H3349 0.950 . S
C3325 C3324 1.349 . S
C3325 C3341 1.349 . S
C3326 C3324 1.327 . S
C3326 C3345 1.429 . S
C3326 H3350 0.950 . S
C3327 C3344 1.574 . S
C3327 C3346 1.368 . S
C3327 H3351 0.949 . S
H3328 C3332 0.949 . S
C3329 C3330 1.349 . S
C3329 C3331 1.327 . S
C3329 H3352 0.950 . S
C3330 C3329 1.349 . S
C3330 C3342 1.349 . S
C3331 C3329 1.327 . S
C3331 C3347 1.429 . S
C3331 H3353 0.950 . S
C3332 H3328 0.949 . S
C3332 C3340 1.574 . S
C3332 C3348 1.368 . S
H3333 C3341 0.950 . S
H3334 C3339 0.950 . S
H3335 C3340 0.949 . S
H3336 C3342 0.950 . S
H3337 C3343 0.950 . S
H3338 C3344 0.949 . S
C3339 H3334 0.950 . S
C3339 C3341 1.327 . S
C3339 C3345 1.429 . S
C3340 C3332 1.574 . S
C3340 H3335 0.949 . S
C3340 C3346 1.368 . S
C3341 C3325 1.349 . S
C3341 H3333 0.950 . S
C3341 C3339 1.327 . S
C3342 C3330 1.349 . S
C3342 H3336 0.950 . S
C3342 C3343 1.327 . S
C3343 H3337 0.950 . S
C3343 C3342 1.327 . S
C3343 C3347 1.429 . S
C3344 C3327 1.574 . S
C3344 H3338 0.949 . S
C3344 C3348 1.368 . S
C3345 C3326 1.429 . S
C3345 C3339 1.429 . S
C3345 C3346 1.523 . S
C3346 C3327 1.368 . S
C3346 C3340 1.368 . S
C3346 C3345 1.523 . S
C3347 C3331 1.429 . S
C3347 C3343 1.429 . S
C3347 C3348 1.523 . S
C3348 C3332 1.368 . S
C3348 C3344 1.368 . S
C3348 C3347 1.523 . S
H3349 C3324 0.950 . S
H3350 C3326 0.950 . S
H3351 C3327 0.949 . S
H3352 C3329 0.950 . S
H3353 C3331 0.950 . S
C3354 C3355 1.349 . S
C3354 C3356 1.327 . S
C3354 H3379 0.950 . S
C3355 C3354 1.349 . S
C3355 C3371 1.349 . S
C3356 C3354 1.327 . S
C3356 C3375 1.429 . S
C3356 H3380 0.950 . S
C3357 C3374 1.574 . S
C3357 C3376 1.368 . S
C3357 H3381 0.949 . S
H3358 C3362 0.949 . S
C3359 C3360 1.349 . S
C3359 C3361 1.327 . S
C3359 H3382 0.950 . S
C3360 C3359 1.349 . S
C3360 C3372 1.349 . S
C3361 C3359 1.327 . S
C3361 C3377 1.429 . S
C3361 H3383 0.950 . S
C3362 H3358 0.949 . S
C3362 C3370 1.574 . S
C3362 C3378 1.368 . S
H3363 C3371 0.950 . S
H3364 C3369 0.950 . S
H3365 C3370 0.949 . S
H3366 C3372 0.950 . S
H3367 C3373 0.950 . S
H3368 C3374 0.949 . S
C3369 H3364 0.950 . S
C3369 C3371 1.327 . S
C3369 C3375 1.429 . S
C3370 C3362 1.574 . S
C3370 H3365 0.949 . S
C3370 C3376 1.368 . S
C3371 C3355 1.349 . S
C3371 H3363 0.950 . S
C3371 C3369 1.327 . S
C3372 C3360 1.349 . S
C3372 H3366 0.950 . S
C3372 C3373 1.327 . S
C3373 H3367 0.950 . S
C3373 C3372 1.327 . S
C3373 C3377 1.429 . S
C3374 C3357 1.574 . S
C3374 H3368 0.949 . S
C3374 C3378 1.368 . S
C3375 C3356 1.429 . S
C3375 C3369 1.429 . S
C3375 C3376 1.523 . S
C3376 C3357 1.368 . S
C3376 C3370 1.368 . S
C3376 C3375 1.523 . S
C3377 C3361 1.429 . S
C3377 C3373 1.429 . S
C3377 C3378 1.523 . S
C3378 C3362 1.368 . S
C3378 C3374 1.368 . S
C3378 C3377 1.523 . S
H3379 C3354 0.950 . S
H3380 C3356 0.950 . S
H3381 C3357 0.949 . S
H3382 C3359 0.950 . S
H3383 C3361 0.950 . S
C3384 C3385 1.349 . S
C3384 C3386 1.326 . S
C3384 H3409 0.951 1_556 S
C3385 C3384 1.349 . S
C3385 C3401 1.349 . S
C3386 C3384 1.326 . S
C3386 C3405 1.429 . S
C3386 H3410 0.950 . S
C3387 C3404 1.574 . S
C3387 C3406 1.368 . S
C3387 H3411 0.949 . S
H3388 C3392 0.949 . S
C3389 C3390 1.349 . S
C3389 C3391 1.327 . S
C3389 H3412 0.950 . S
C3390 C3389 1.349 . S
C3390 C3402 1.349 . S
C3391 C3389 1.327 . S
C3391 C3407 1.429 . S
C3391 H3413 0.950 . S
C3392 H3388 0.949 . S
C3392 C3400 1.574 . S
C3392 C3408 1.368 . S
H3393 C3401 0.950 . S
H3394 C3399 0.950 . S
H3395 C3400 0.949 . S
H3396 C3402 0.950 . S
H3397 C3403 0.950 . S
H3398 C3404 0.949 . S
C3399 H3394 0.950 . S
C3399 C3401 1.327 . S
C3399 C3405 1.429 . S
C3400 C3392 1.574 . S
C3400 H3395 0.949 . S
C3400 C3406 1.368 . S
C3401 C3385 1.349 . S
C3401 H3393 0.950 . S
C3401 C3399 1.327 . S
C3402 C3390 1.349 . S
C3402 H3396 0.950 . S
C3402 C3403 1.327 . S
C3403 H3397 0.950 . S
C3403 C3402 1.327 . S
C3403 C3407 1.429 . S
C3404 C3387 1.574 . S
C3404 H3398 0.949 . S
C3404 C3408 1.368 . S
C3405 C3386 1.429 . S
C3405 C3399 1.429 . S
C3405 C3406 1.523 . S
C3406 C3387 1.368 . S
C3406 C3400 1.368 . S
C3406 C3405 1.523 . S
C3407 C3391 1.429 . S
C3407 C3403 1.429 . S
C3407 C3408 1.523 . S
C3408 C3392 1.368 . S
C3408 C3404 1.368 . S
C3408 C3407 1.523 . S
H3409 C3384 0.951 1_554 S
H3410 C3386 0.950 . S
H3411 C3387 0.949 . S
H3412 C3389 0.950 . S
H3413 C3391 0.950 . S
C3414 C3415 1.349 . S
C3414 C3416 1.327 . S
C3414 H3439 0.950 1_556 S
C3415 C3414 1.349 . S
C3415 C3431 1.349 . S
C3416 C3414 1.327 . S
C3416 C3435 1.429 . S
C3416 H3440 0.950 . S
C3417 C3434 1.574 . S
C3417 C3436 1.368 . S
C3417 H3441 0.949 . S
H3418 C3422 0.949 . S
C3419 C3420 1.349 . S
C3419 C3421 1.327 . S
C3419 H3442 0.950 . S
C3420 C3419 1.349 . S
C3420 C3432 1.349 . S
C3421 C3419 1.327 . S
C3421 C3437 1.429 . S
C3421 H3443 0.950 . S
C3422 H3418 0.949 . S
C3422 C3430 1.574 . S
C3422 C3438 1.368 . S
H3423 C3431 0.950 . S
H3424 C3429 0.950 . S
H3425 C3430 0.949 . S
H3426 C3432 0.950 . S
H3427 C3433 0.950 . S
H3428 C3434 0.949 . S
C3429 H3424 0.950 . S
C3429 C3431 1.327 . S
C3429 C3435 1.429 . S
C3430 C3422 1.574 . S
C3430 H3425 0.949 . S
C3430 C3436 1.368 . S
C3431 C3415 1.349 . S
C3431 H3423 0.950 . S
C3431 C3429 1.327 . S
C3432 C3420 1.349 . S
C3432 H3426 0.950 . S
C3432 C3433 1.327 . S
C3433 H3427 0.950 . S
C3433 C3432 1.327 . S
C3433 C3437 1.429 . S
C3434 C3417 1.574 . S
C3434 H3428 0.949 . S
C3434 C3438 1.368 . S
C3435 C3416 1.429 . S
C3435 C3429 1.429 . S
C3435 C3436 1.523 . S
C3436 C3417 1.368 . S
C3436 C3430 1.368 . S
C3436 C3435 1.523 . S
C3437 C3421 1.429 . S
C3437 C3433 1.429 . S
C3437 C3438 1.523 . S
C3438 C3422 1.368 . S
C3438 C3434 1.368 . S
C3438 C3437 1.523 . S
H3439 C3414 0.950 1_554 S
H3440 C3416 0.950 . S
H3441 C3417 0.949 . S
H3442 C3419 0.950 . S
H3443 C3421 0.950 . S
C3444 C3445 1.349 . S
C3444 C3446 1.327 . S
C3444 H3469 0.950 . S
C3445 C3444 1.349 . S
C3445 C3461 1.349 . S
C3446 C3444 1.327 . S
C3446 C3465 1.429 . S
C3446 H3470 0.950 . S
C3447 C3464 1.574 . S
C3447 C3466 1.368 . S
C3447 H3471 0.949 . S
H3448 C3452 0.949 . S
C3449 C3450 1.349 . S
C3449 C3451 1.327 . S
C3449 H3472 0.950 . S
C3450 C3449 1.349 . S
C3450 C3462 1.349 . S
C3451 C3449 1.327 . S
C3451 C3467 1.429 . S
C3451 H3473 0.950 . S
C3452 H3448 0.949 . S
C3452 C3460 1.574 . S
C3452 C3468 1.368 . S
H3453 C3461 0.950 . S
H3454 C3459 0.950 . S
H3455 C3460 0.949 . S
H3456 C3462 0.950 1_554 S
H3457 C3463 0.950 . S
H3458 C3464 0.949 . S
C3459 H3454 0.950 . S
C3459 C3461 1.327 . S
C3459 C3465 1.429 . S
C3460 C3452 1.574 . S
C3460 H3455 0.949 . S
C3460 C3466 1.368 . S
C3461 C3445 1.349 . S
C3461 H3453 0.950 . S
C3461 C3459 1.327 . S
C3462 C3450 1.349 . S
C3462 H3456 0.950 1_556 S
C3462 C3463 1.327 . S
C3463 H3457 0.950 . S
C3463 C3462 1.327 . S
C3463 C3467 1.429 . S
C3464 C3447 1.574 . S
C3464 H3458 0.949 . S
C3464 C3468 1.368 . S
C3465 C3446 1.429 . S
C3465 C3459 1.429 . S
C3465 C3466 1.523 . S
C3466 C3447 1.368 . S
C3466 C3460 1.368 . S
C3466 C3465 1.523 . S
C3467 C3451 1.429 . S
C3467 C3463 1.429 . S
C3467 C3468 1.523 . S
C3468 C3452 1.368 . S
C3468 C3464 1.368 . S
C3468 C3467 1.523 . S
H3469 C3444 0.950 . S
H3470 C3446 0.950 . S
H3471 C3447 0.949 . S
H3472 C3449 0.950 . S
H3473 C3451 0.950 . S
C3474 C3475 1.349 . S
C3474 C3476 1.327 . S
C3474 H3499 0.950 . S
C3475 C3474 1.349 . S
C3475 C3491 1.349 . S
C3476 C3474 1.327 . S
C3476 C3495 1.429 . S
C3476 H3500 0.950 . S
C3477 C3494 1.574 . S
C3477 C3496 1.368 . S
C3477 H3501 0.949 . S
H3478 C3482 0.949 . S
C3479 C3480 1.349 . S
C3479 C3481 1.327 . S
C3479 H3502 0.950 . S
C3480 C3479 1.349 . S
C3480 C3492 1.349 . S
C3481 C3479 1.327 . S
C3481 C3497 1.429 . S
C3481 H3503 0.950 . S
C3482 H3478 0.949 . S
C3482 C3490 1.574 . S
C3482 C3498 1.368 . S
H3483 C3491 0.950 . S
H3484 C3489 0.950 . S
H3485 C3490 0.949 . S
H3486 C3492 0.950 . S
H3487 C3493 0.950 . S
H3488 C3494 0.949 . S
C3489 H3484 0.950 . S
C3489 C3491 1.327 . S
C3489 C3495 1.429 . S
C3490 C3482 1.574 . S
C3490 H3485 0.949 . S
C3490 C3496 1.368 . S
C3491 C3475 1.349 . S
C3491 H3483 0.950 . S
C3491 C3489 1.327 . S
C3492 C3480 1.349 . S
C3492 H3486 0.950 . S
C3492 C3493 1.327 . S
C3493 H3487 0.950 . S
C3493 C3492 1.327 . S
C3493 C3497 1.429 . S
C3494 C3477 1.574 . S
C3494 H3488 0.949 . S
C3494 C3498 1.368 . S
C3495 C3476 1.429 . S
C3495 C3489 1.429 . S
C3495 C3496 1.523 . S
C3496 C3477 1.368 . S
C3496 C3490 1.368 . S
C3496 C3495 1.523 . S
C3497 C3481 1.429 . S
C3497 C3493 1.429 . S
C3497 C3498 1.523 . S
C3498 C3482 1.368 . S
C3498 C3494 1.368 . S
C3498 C3497 1.523 . S
H3499 C3474 0.950 . S
H3500 C3476 0.950 . S
H3501 C3477 0.949 . S
H3502 C3479 0.950 . S
H3503 C3481 0.950 . S
C3504 C3505 1.349 . S
C3504 C3506 1.327 . S
C3504 H3529 0.950 . S
C3505 C3504 1.349 . S
C3505 C3521 1.349 . S
C3506 C3504 1.327 . S
C3506 C3525 1.429 . S
C3506 H3530 0.950 . S
C3507 C3524 1.574 . S
C3507 C3526 1.368 . S
C3507 H3531 0.949 . S
H3508 C3512 0.949 . S
C3509 C3510 1.349 . S
C3509 C3511 1.327 . S
C3509 H3532 0.950 . S
C3510 C3509 1.349 . S
C3510 C3522 1.349 . S
C3511 C3509 1.327 . S
C3511 C3527 1.429 . S
C3511 H3533 0.950 . S
C3512 H3508 0.949 . S
C3512 C3520 1.574 . S
C3512 C3528 1.368 . S
H3513 C3521 0.950 . S
H3514 C3519 0.950 . S
H3515 C3520 0.949 . S
H3516 C3522 0.950 . S
H3517 C3523 0.950 . S
H3518 C3524 0.949 . S
C3519 H3514 0.950 . S
C3519 C3521 1.327 . S
C3519 C3525 1.429 . S
C3520 C3512 1.574 . S
C3520 H3515 0.949 . S
C3520 C3526 1.368 . S
C3521 C3505 1.349 . S
C3521 H3513 0.950 . S
C3521 C3519 1.327 . S
C3522 C3510 1.349 . S
C3522 H3516 0.950 . S
C3522 C3523 1.327 . S
C3523 H3517 0.950 . S
C3523 C3522 1.327 . S
C3523 C3527 1.429 . S
C3524 C3507 1.574 . S
C3524 H3518 0.949 . S
C3524 C3528 1.368 . S
C3525 C3506 1.429 . S
C3525 C3519 1.429 . S
C3525 C3526 1.523 . S
C3526 C3507 1.368 . S
C3526 C3520 1.368 . S
C3526 C3525 1.523 . S
C3527 C3511 1.429 . S
C3527 C3523 1.429 . S
C3527 C3528 1.523 . S
C3528 C3512 1.368 . S
C3528 C3524 1.368 . S
C3528 C3527 1.523 . S
H3529 C3504 0.950 . S
H3530 C3506 0.950 . S
H3531 C3507 0.949 . S
H3532 C3509 0.950 . S
H3533 C3511 0.950 . S
C3534 C3535 1.349 . S
C3534 C3536 1.327 . S
C3534 H3559 0.950 . S
C3535 C3534 1.349 . S
C3535 C3551 1.349 . S
C3536 C3534 1.327 . S
C3536 C3555 1.429 . S
C3536 H3560 0.950 . S
C3537 C3554 1.574 . S
C3537 C3556 1.368 . S
C3537 H3561 0.949 . S
H3538 C3542 0.949 . S
C3539 C3540 1.349 . S
C3539 C3541 1.327 . S
C3539 H3562 0.950 . S
C3540 C3539 1.349 . S
C3540 C3552 1.349 . S
C3541 C3539 1.327 . S
C3541 C3557 1.429 . S
C3541 H3563 0.950 . S
C3542 H3538 0.949 . S
C3542 C3550 1.574 . S
C3542 C3558 1.368 . S
H3543 C3551 0.950 . S
H3544 C3549 0.950 . S
H3545 C3550 0.949 . S
H3546 C3552 0.950 . S
H3547 C3553 0.950 . S
H3548 C3554 0.949 . S
C3549 H3544 0.950 . S
C3549 C3551 1.327 . S
C3549 C3555 1.429 . S
C3550 C3542 1.574 . S
C3550 H3545 0.949 . S
C3550 C3556 1.368 . S
C3551 C3535 1.349 . S
C3551 H3543 0.950 . S
C3551 C3549 1.327 . S
C3552 C3540 1.349 . S
C3552 H3546 0.950 . S
C3552 C3553 1.327 . S
C3553 H3547 0.950 . S
C3553 C3552 1.327 . S
C3553 C3557 1.429 . S
C3554 C3537 1.574 . S
C3554 H3548 0.949 . S
C3554 C3558 1.368 . S
C3555 C3536 1.429 . S
C3555 C3549 1.429 . S
C3555 C3556 1.523 . S
C3556 C3537 1.368 . S
C3556 C3550 1.368 . S
C3556 C3555 1.523 . S
C3557 C3541 1.429 . S
C3557 C3553 1.429 . S
C3557 C3558 1.523 . S
C3558 C3542 1.368 . S
C3558 C3554 1.368 . S
C3558 C3557 1.523 . S
H3559 C3534 0.950 . S
H3560 C3536 0.950 . S
H3561 C3537 0.949 . S
H3562 C3539 0.950 . S
H3563 C3541 0.950 . S
C3564 C3565 1.349 . S
C3564 C3566 1.327 . S
C3564 H3589 0.950 . S
C3565 C3564 1.349 . S
C3565 C3581 1.349 . S
C3566 C3564 1.327 . S
C3566 C3585 1.429 . S
C3566 H3590 0.950 . S
C3567 C3584 1.574 . S
C3567 C3586 1.368 . S
C3567 H3591 0.949 . S
H3568 C3572 0.949 . S
C3569 C3570 1.349 . S
C3569 C3571 1.327 . S
C3569 H3592 0.950 . S
C3570 C3569 1.349 . S
C3570 C3582 1.349 . S
C3571 C3569 1.327 . S
C3571 C3587 1.429 . S
C3571 H3593 0.950 . S
C3572 H3568 0.949 . S
C3572 C3580 1.574 . S
C3572 C3588 1.368 . S
H3573 C3581 0.950 . S
H3574 C3579 0.950 . S
H3575 C3580 0.949 . S
H3576 C3582 0.950 . S
H3577 C3583 0.950 . S
H3578 C3584 0.949 . S
C3579 H3574 0.950 . S
C3579 C3581 1.327 . S
C3579 C3585 1.429 . S
C3580 C3572 1.574 . S
C3580 H3575 0.949 . S
C3580 C3586 1.368 . S
C3581 C3565 1.349 . S
C3581 H3573 0.950 . S
C3581 C3579 1.327 . S
C3582 C3570 1.349 . S
C3582 H3576 0.950 . S
C3582 C3583 1.327 . S
C3583 H3577 0.950 . S
C3583 C3582 1.327 . S
C3583 C3587 1.429 . S
C3584 C3567 1.574 . S
C3584 H3578 0.949 . S
C3584 C3588 1.368 . S
C3585 C3566 1.429 . S
C3585 C3579 1.429 . S
C3585 C3586 1.523 . S
C3586 C3567 1.368 . S
C3586 C3580 1.368 . S
C3586 C3585 1.523 . S
C3587 C3571 1.429 . S
C3587 C3583 1.429 . S
C3587 C3588 1.523 . S
C3588 C3572 1.368 . S
C3588 C3584 1.368 . S
C3588 C3587 1.523 . S
H3589 C3564 0.950 . S
H3590 C3566 0.950 . S
H3591 C3567 0.949 . S
H3592 C3569 0.950 . S
H3593 C3571 0.950 . S
C3594 C3595 1.349 . S
C3594 C3596 1.327 . S
C3594 H3619 0.950 . S
C3595 C3594 1.349 . S
C3595 C3611 1.349 . S
C3596 C3594 1.327 . S
C3596 C3615 1.429 . S
C3596 H3620 0.950 . S
C3597 C3614 1.574 . S
C3597 C3616 1.368 . S
C3597 H3621 0.949 . S
H3598 C3602 0.949 . S
C3599 C3600 1.349 . S
C3599 C3601 1.327 . S
C3599 H3622 0.950 . S
C3600 C3599 1.349 . S
C3600 C3612 1.349 . S
C3601 C3599 1.327 . S
C3601 C3617 1.429 . S
C3601 H3623 0.950 . S
C3602 H3598 0.949 . S
C3602 C3610 1.574 . S
C3602 C3618 1.368 . S
H3603 C3611 0.950 . S
H3604 C3609 0.950 . S
H3605 C3610 0.949 . S
H3606 C3612 0.950 . S
H3607 C3613 0.950 . S
H3608 C3614 0.949 . S
C3609 H3604 0.950 . S
C3609 C3611 1.327 . S
C3609 C3615 1.429 . S
C3610 C3602 1.574 . S
C3610 H3605 0.949 . S
C3610 C3616 1.368 . S
C3611 C3595 1.349 . S
C3611 H3603 0.950 . S
C3611 C3609 1.327 . S
C3612 C3600 1.349 . S
C3612 H3606 0.950 . S
C3612 C3613 1.327 . S
C3613 H3607 0.950 . S
C3613 C3612 1.327 . S
C3613 C3617 1.429 . S
C3614 C3597 1.574 . S
C3614 H3608 0.949 . S
C3614 C3618 1.368 . S
C3615 C3596 1.429 . S
C3615 C3609 1.429 . S
C3615 C3616 1.523 . S
C3616 C3597 1.368 . S
C3616 C3610 1.368 . S
C3616 C3615 1.523 . S
C3617 C3601 1.429 . S
C3617 C3613 1.429 . S
C3617 C3618 1.523 . S
C3618 C3602 1.368 . S
C3618 C3614 1.368 . S
C3618 C3617 1.523 . S
H3619 C3594 0.950 . S
H3620 C3596 0.950 . S
H3621 C3597 0.949 . S
H3622 C3599 0.950 . S
H3623 C3601 0.950 . S
C3624 C3625 1.349 . S
C3624 C3626 1.327 . S
C3624 H3649 0.950 . S
C3625 C3624 1.349 . S
C3625 C3641 1.349 . S
C3626 C3624 1.327 . S
C3626 C3645 1.429 . S
C3626 H3650 0.950 . S
C3627 C3644 1.574 . S
C3627 C3646 1.368 . S
C3627 H3651 0.949 . S
H3628 C3632 0.949 . S
C3629 C3630 1.349 . S
C3629 C3631 1.327 . S
C3629 H3652 0.950 . S
C3630 C3629 1.349 . S
C3630 C3642 1.349 . S
C3631 C3629 1.327 . S
C3631 C3647 1.429 . S
C3631 H3653 0.950 . S
C3632 H3628 0.949 . S
C3632 C3640 1.574 . S
C3632 C3648 1.368 . S
H3633 C3641 0.950 1_556 S
H3634 C3639 0.950 . S
H3635 C3640 0.949 . S
H3636 C3642 0.950 . S
H3637 C3643 0.950 . S
H3638 C3644 0.949 . S
C3639 H3634 0.950 . S
C3639 C3641 1.327 . S
C3639 C3645 1.429 . S
C3640 C3632 1.574 . S
C3640 H3635 0.949 . S
C3640 C3646 1.368 . S
C3641 C3625 1.349 . S
C3641 H3633 0.950 1_554 S
C3641 C3639 1.327 . S
C3642 C3630 1.349 . S
C3642 H3636 0.950 . S
C3642 C3643 1.327 . S
C3643 H3637 0.950 . S
C3643 C3642 1.327 . S
C3643 C3647 1.429 . S
C3644 C3627 1.574 . S
C3644 H3638 0.949 . S
C3644 C3648 1.368 . S
C3645 C3626 1.429 . S
C3645 C3639 1.429 . S
C3645 C3646 1.523 . S
C3646 C3627 1.368 . S
C3646 C3640 1.368 . S
C3646 C3645 1.523 . S
C3647 C3631 1.429 . S
C3647 C3643 1.429 . S
C3647 C3648 1.523 . S
C3648 C3632 1.368 . S
C3648 C3644 1.368 . S
C3648 C3647 1.523 . S
H3649 C3624 0.950 . S
H3650 C3626 0.950 . S
H3651 C3627 0.949 . S
H3652 C3629 0.950 . S
H3653 C3631 0.950 . S
C3654 C3655 1.349 . S
C3654 C3656 1.327 . S
C3654 H3679 0.950 . S
C3655 C3654 1.349 . S
C3655 C3671 1.349 . S
C3656 C3654 1.327 . S
C3656 C3675 1.429 . S
C3656 H3680 0.950 . S
C3657 C3674 1.574 . S
C3657 C3676 1.368 . S
C3657 H3681 0.949 . S
H3658 C3662 0.949 . S
C3659 C3660 1.349 . S
C3659 C3661 1.327 . S
C3659 H3682 0.950 . S
C3660 C3659 1.349 . S
C3660 C3672 1.349 . S
C3661 C3659 1.327 . S
C3661 C3677 1.429 . S
C3661 H3683 0.950 . S
C3662 H3658 0.949 . S
C3662 C3670 1.574 . S
C3662 C3678 1.368 . S
H3663 C3671 0.950 . S
H3664 C3669 0.950 . S
H3665 C3670 0.949 . S
H3666 C3672 0.950 . S
H3667 C3673 0.950 . S
H3668 C3674 0.949 . S
C3669 H3664 0.950 . S
C3669 C3671 1.327 . S
C3669 C3675 1.429 . S
C3670 C3662 1.574 . S
C3670 H3665 0.949 . S
C3670 C3676 1.368 . S
C3671 C3655 1.349 . S
C3671 H3663 0.950 . S
C3671 C3669 1.327 . S
C3672 C3660 1.349 . S
C3672 H3666 0.950 . S
C3672 C3673 1.327 . S
C3673 H3667 0.950 . S
C3673 C3672 1.327 . S
C3673 C3677 1.429 . S
C3674 C3657 1.574 . S
C3674 H3668 0.949 . S
C3674 C3678 1.368 . S
C3675 C3656 1.429 . S
C3675 C3669 1.429 . S
C3675 C3676 1.523 . S
C3676 C3657 1.368 . S
C3676 C3670 1.368 . S
C3676 C3675 1.523 . S
C3677 C3661 1.429 . S
C3677 C3673 1.429 . S
C3677 C3678 1.523 . S
C3678 C3662 1.368 . S
C3678 C3674 1.368 . S
C3678 C3677 1.523 . S
H3679 C3654 0.950 . S
H3680 C3656 0.950 . S
H3681 C3657 0.949 . S
H3682 C3659 0.950 . S
H3683 C3661 0.950 . S
C3684 C3685 1.349 . S
C3684 C3686 1.327 . S
C3684 H3709 0.950 . S
C3685 C3684 1.349 . S
C3685 C3701 1.349 . S
C3686 C3684 1.327 . S
C3686 C3705 1.429 . S
C3686 H3710 0.950 . S
C3687 C3704 1.574 . S
C3687 C3706 1.368 . S
C3687 H3711 0.949 . S
H3688 C3692 0.949 . S
C3689 C3690 1.349 . S
C3689 C3691 1.327 . S
C3689 H3712 0.950 . S
C3690 C3689 1.349 . S
C3690 C3702 1.349 . S
C3691 C3689 1.327 . S
C3691 C3707 1.429 . S
C3691 H3713 0.950 . S
C3692 H3688 0.949 . S
C3692 C3700 1.574 . S
C3692 C3708 1.368 . S
H3693 C3701 0.950 . S
H3694 C3699 0.950 . S
H3695 C3700 0.949 . S
H3696 C3702 0.950 . S
H3697 C3703 0.950 . S
H3698 C3704 0.949 . S
C3699 H3694 0.950 . S
C3699 C3701 1.327 . S
C3699 C3705 1.429 . S
C3700 C3692 1.574 . S
C3700 H3695 0.949 . S
C3700 C3706 1.368 . S
C3701 C3685 1.349 . S
C3701 H3693 0.950 . S
C3701 C3699 1.327 . S
C3702 C3690 1.349 . S
C3702 H3696 0.950 . S
C3702 C3703 1.327 . S
C3703 H3697 0.950 . S
C3703 C3702 1.327 . S
C3703 C3707 1.429 . S
C3704 C3687 1.574 . S
C3704 H3698 0.949 . S
C3704 C3708 1.368 . S
C3705 C3686 1.429 . S
C3705 C3699 1.429 . S
C3705 C3706 1.523 . S
C3706 C3687 1.368 . S
C3706 C3700 1.368 . S
C3706 C3705 1.523 . S
C3707 C3691 1.429 . S
C3707 C3703 1.429 . S
C3707 C3708 1.523 . S
C3708 C3692 1.368 . S
C3708 C3704 1.368 . S
C3708 C3707 1.523 . S
H3709 C3684 0.950 . S
H3710 C3686 0.950 . S
H3711 C3687 0.949 . S
H3712 C3689 0.950 . S
H3713 C3691 0.950 . S
C3714 C3715 1.349 . S
C3714 C3716 1.327 . S
C3714 H3739 0.950 . S
C3715 C3714 1.349 . S
C3715 C3731 1.349 . S
C3716 C3714 1.327 . S
C3716 C3735 1.429 . S
C3716 H3740 0.950 . S
C3717 C3734 1.574 . S
C3717 C3736 1.368 . S
C3717 H3741 0.949 . S
H3718 C3722 0.949 . S
C3719 C3720 1.349 . S
C3719 C3721 1.327 . S
C3719 H3742 0.950 . S
C3720 C3719 1.349 . S
C3720 C3732 1.349 . S
C3721 C3719 1.327 . S
C3721 C3737 1.429 . S
C3721 H3743 0.950 . S
C3722 H3718 0.949 . S
C3722 C3730 1.574 . S
C3722 C3738 1.368 . S
H3723 C3731 0.950 . S
H3724 C3729 0.950 . S
H3725 C3730 0.949 . S
H3726 C3732 0.950 . S
H3727 C3733 0.950 . S
H3728 C3734 0.949 . S
C3729 H3724 0.950 . S
C3729 C3731 1.327 . S
C3729 C3735 1.429 . S
C3730 C3722 1.574 . S
C3730 H3725 0.949 . S
C3730 C3736 1.368 . S
C3731 C3715 1.349 . S
C3731 H3723 0.950 . S
C3731 C3729 1.327 . S
C3732 C3720 1.349 . S
C3732 H3726 0.950 . S
C3732 C3733 1.327 . S
C3733 H3727 0.950 . S
C3733 C3732 1.327 . S
C3733 C3737 1.429 . S
C3734 C3717 1.574 . S
C3734 H3728 0.949 . S
C3734 C3738 1.368 . S
C3735 C3716 1.429 . S
C3735 C3729 1.429 . S
C3735 C3736 1.523 . S
C3736 C3717 1.368 . S
C3736 C3730 1.368 . S
C3736 C3735 1.523 . S
C3737 C3721 1.429 . S
C3737 C3733 1.429 . S
C3737 C3738 1.523 . S
C3738 C3722 1.368 . S
C3738 C3734 1.368 . S
C3738 C3737 1.523 . S
H3739 C3714 0.950 . S
H3740 C3716 0.950 . S
H3741 C3717 0.949 . S
H3742 C3719 0.950 . S
H3743 C3721 0.950 . S
C3744 C3745 1.349 . S
C3744 C3746 1.327 . S
C3744 H3769 0.950 . S
C3745 C3744 1.349 . S
C3745 C3761 1.349 . S
C3746 C3744 1.327 . S
C3746 C3765 1.429 . S
C3746 H3770 0.950 . S
C3747 C3764 1.574 1_455 S
C3747 C3766 1.368 . S
C3747 H3771 0.949 . S
H3748 C3752 0.949 . S
C3749 C3750 1.349 . S
C3749 C3751 1.327 . S
C3749 H3772 0.950 . S
C3750 C3749 1.349 . S
C3750 C3762 1.349 . S
C3751 C3749 1.327 . S
C3751 C3767 1.429 . S
C3751 H3773 0.950 . S
C3752 H3748 0.949 . S
C3752 C3760 1.574 1_655 S
C3752 C3768 1.368 . S
H3753 C3761 0.950 . S
H3754 C3759 0.950 . S
H3755 C3760 0.949 . S
H3756 C3762 0.950 . S
H3757 C3763 0.950 . S
H3758 C3764 0.949 . S
C3759 H3754 0.950 . S
C3759 C3761 1.327 . S
C3759 C3765 1.429 . S
C3760 C3752 1.574 1_455 S
C3760 H3755 0.949 . S
C3760 C3766 1.368 . S
C3761 C3745 1.349 . S
C3761 H3753 0.950 . S
C3761 C3759 1.327 . S
C3762 C3750 1.349 . S
C3762 H3756 0.950 . S
C3762 C3763 1.327 . S
C3763 H3757 0.950 . S
C3763 C3762 1.327 . S
C3763 C3767 1.429 . S
C3764 C3747 1.574 1_655 S
C3764 H3758 0.949 . S
C3764 C3768 1.368 . S
C3765 C3746 1.429 . S
C3765 C3759 1.429 . S
C3765 C3766 1.523 . S
C3766 C3747 1.368 . S
C3766 C3760 1.368 . S
C3766 C3765 1.523 . S
C3767 C3751 1.429 . S
C3767 C3763 1.429 . S
C3767 C3768 1.523 . S
C3768 C3752 1.368 . S
C3768 C3764 1.368 . S
C3768 C3767 1.523 . S
H3769 C3744 0.950 . S
H3770 C3746 0.950 . S
H3771 C3747 0.949 . S
H3772 C3749 0.950 . S
H3773 C3751 0.950 . S
C3774 C3775 1.349 . S
C3774 C3776 1.327 . S
C3774 H3799 0.950 . S
C3775 C3774 1.349 . S
C3775 C3791 1.349 . S
C3776 C3774 1.327 . S
C3776 C3795 1.429 . S
C3776 H3800 0.950 . S
C3777 C3794 1.574 . S
C3777 C3796 1.368 . S
C3777 H3801 0.949 . S
H3778 C3782 0.949 . S
C3779 C3780 1.349 . S
C3779 C3781 1.327 . S
C3779 H3802 0.950 . S
C3780 C3779 1.349 . S
C3780 C3792 1.349 . S
C3781 C3779 1.327 . S
C3781 C3797 1.429 . S
C3781 H3803 0.950 . S
C3782 H3778 0.949 . S
C3782 C3790 1.574 . S
C3782 C3798 1.368 . S
H3783 C3791 0.950 . S
H3784 C3789 0.950 . S
H3785 C3790 0.949 . S
H3786 C3792 0.950 . S
H3787 C3793 0.950 . S
H3788 C3794 0.949 . S
C3789 H3784 0.950 . S
C3789 C3791 1.327 . S
C3789 C3795 1.429 . S
C3790 C3782 1.574 . S
C3790 H3785 0.949 . S
C3790 C3796 1.368 . S
C3791 C3775 1.349 . S
C3791 H3783 0.950 . S
C3791 C3789 1.327 . S
C3792 C3780 1.349 . S
C3792 H3786 0.950 . S
C3792 C3793 1.327 . S
C3793 H3787 0.950 . S
C3793 C3792 1.327 . S
C3793 C3797 1.429 . S
C3794 C3777 1.574 . S
C3794 H3788 0.949 . S
C3794 C3798 1.368 . S
C3795 C3776 1.429 . S
C3795 C3789 1.429 . S
C3795 C3796 1.523 . S
C3796 C3777 1.368 . S
C3796 C3790 1.368 . S
C3796 C3795 1.523 . S
C3797 C3781 1.429 . S
C3797 C3793 1.429 . S
C3797 C3798 1.523 . S
C3798 C3782 1.368 . S
C3798 C3794 1.368 . S
C3798 C3797 1.523 . S
H3799 C3774 0.950 . S
H3800 C3776 0.950 . S
H3801 C3777 0.949 . S
H3802 C3779 0.950 . S
H3803 C3781 0.950 . S
C3804 C3805 1.349 . S
C3804 C3806 1.327 . S
C3804 H3829 0.950 . S
C3805 C3804 1.349 . S
C3805 C3821 1.349 . S
C3806 C3804 1.327 . S
C3806 C3825 1.429 . S
C3806 H3830 0.950 . S
C3807 C3824 1.574 . S
C3807 C3826 1.368 . S
C3807 H3831 0.949 . S
H3808 C3812 0.949 . S
C3809 C3810 1.349 . S
C3809 C3811 1.327 . S
C3809 H3832 0.950 . S
C3810 C3809 1.349 . S
C3810 C3822 1.349 . S
C3811 C3809 1.327 . S
C3811 C3827 1.429 . S
C3811 H3833 0.950 . S
C3812 H3808 0.949 . S
C3812 C3820 1.574 . S
C3812 C3828 1.368 . S
H3813 C3821 0.950 . S
H3814 C3819 0.950 . S
H3815 C3820 0.949 . S
H3816 C3822 0.950 . S
H3817 C3823 0.950 . S
H3818 C3824 0.949 . S
C3819 H3814 0.950 . S
C3819 C3821 1.327 . S
C3819 C3825 1.429 . S
C3820 C3812 1.574 . S
C3820 H3815 0.949 . S
C3820 C3826 1.368 1_545 S
C3821 C3805 1.349 . S
C3821 H3813 0.950 . S
C3821 C3819 1.327 . S
C3822 C3810 1.349 . S
C3822 H3816 0.950 . S
C3822 C3823 1.327 . S
C3823 H3817 0.950 . S
C3823 C3822 1.327 . S
C3823 C3827 1.429 . S
C3824 C3807 1.574 . S
C3824 H3818 0.949 . S
C3824 C3828 1.368 1_565 S
C3825 C3806 1.429 . S
C3825 C3819 1.429 . S
C3825 C3826 1.523 . S
C3826 C3807 1.368 . S
C3826 C3820 1.368 1_565 S
C3826 C3825 1.523 . S
C3827 C3811 1.429 . S
C3827 C3823 1.429 . S
C3827 C3828 1.523 . S
C3828 C3812 1.368 . S
C3828 C3824 1.368 1_545 S
C3828 C3827 1.523 . S
H3829 C3804 0.950 . S
H3830 C3806 0.950 . S
H3831 C3807 0.949 . S
H3832 C3809 0.950 . S
H3833 C3811 0.950 . S
C3834 C3835 1.349 . S
C3834 C3836 1.327 . S
C3834 H3859 0.950 . S
C3835 C3834 1.349 . S
C3835 C3851 1.349 . S
C3836 C3834 1.327 . S
C3836 C3855 1.429 . S
C3836 H3860 0.950 . S
C3837 C3854 1.574 . S
C3837 C3856 1.368 . S
C3837 H3861 0.949 . S
H3838 C3842 0.949 . S
C3839 C3840 1.349 . S
C3839 C3841 1.327 . S
C3839 H3862 0.950 . S
C3840 C3839 1.349 . S
C3840 C3852 1.349 . S
C3841 C3839 1.327 . S
C3841 C3857 1.429 . S
C3841 H3863 0.950 . S
C3842 H3838 0.949 . S
C3842 C3850 1.574 . S
C3842 C3858 1.368 . S
H3843 C3851 0.950 . S
H3844 C3849 0.950 . S
H3845 C3850 0.949 . S
H3846 C3852 0.950 . S
H3847 C3853 0.950 . S
H3848 C3854 0.949 . S
C3849 H3844 0.950 . S
C3849 C3851 1.327 . S
C3849 C3855 1.429 . S
C3850 C3842 1.574 . S
C3850 H3845 0.949 . S
C3850 C3856 1.368 1_545 S
C3851 C3835 1.349 . S
C3851 H3843 0.950 . S
C3851 C3849 1.327 . S
C3852 C3840 1.349 . S
C3852 H3846 0.950 . S
C3852 C3853 1.327 . S
C3853 H3847 0.950 . S
C3853 C3852 1.327 . S
C3853 C3857 1.429 . S
C3854 C3837 1.574 . S
C3854 H3848 0.949 . S
C3854 C3858 1.368 1_565 S
C3855 C3836 1.429 . S
C3855 C3849 1.429 . S
C3855 C3856 1.523 . S
C3856 C3837 1.368 . S
C3856 C3850 1.368 1_565 S
C3856 C3855 1.523 . S
C3857 C3841 1.429 . S
C3857 C3853 1.429 . S
C3857 C3858 1.523 . S
C3858 C3842 1.368 . S
C3858 C3854 1.368 1_545 S
C3858 C3857 1.523 . S
H3859 C3834 0.950 . S
H3860 C3836 0.950 . S
H3861 C3837 0.949 . S
H3862 C3839 0.950 . S
H3863 C3841 0.950 . S
C3864 C3865 1.349 . S
C3864 C3866 1.327 . S
C3864 H3889 0.950 . S
C3865 C3864 1.349 . S
C3865 C3881 1.349 . S
C3866 C3864 1.327 . S
C3866 C3885 1.429 . S
C3866 H3890 0.950 . S
C3867 C3884 1.574 . S
C3867 C3886 1.368 1_655 S
C3867 H3891 0.949 . S
H3868 C3872 0.949 . S
C3869 C3870 1.349 . S
C3869 C3871 1.327 . S
C3869 H3892 0.950 . S
C3870 C3869 1.349 . S
C3870 C3882 1.349 . S
C3871 C3869 1.327 . S
C3871 C3887 1.429 . S
C3871 H3893 0.950 . S
C3872 H3868 0.949 . S
C3872 C3880 1.574 . S
C3872 C3888 1.368 1_455 S
H3873 C3881 0.950 . S
H3874 C3879 0.950 . S
H3875 C3880 0.949 . S
H3876 C3882 0.950 . S
H3877 C3883 0.950 . S
H3878 C3884 0.949 . S
C3879 H3874 0.950 . S
C3879 C3881 1.327 . S
C3879 C3885 1.429 . S
C3880 C3872 1.574 . S
C3880 H3875 0.949 . S
C3880 C3886 1.368 . S
C3881 C3865 1.349 . S
C3881 H3873 0.950 . S
C3881 C3879 1.327 . S
C3882 C3870 1.349 . S
C3882 H3876 0.950 . S
C3882 C3883 1.327 . S
C3883 H3877 0.950 . S
C3883 C3882 1.327 . S
C3883 C3887 1.429 . S
C3884 C3867 1.574 . S
C3884 H3878 0.949 . S
C3884 C3888 1.368 . S
C3885 C3866 1.429 . S
C3885 C3879 1.429 . S
C3885 C3886 1.523 . S
C3886 C3867 1.368 1_455 S
C3886 C3880 1.368 . S
C3886 C3885 1.523 . S
C3887 C3871 1.429 . S
C3887 C3883 1.429 . S
C3887 C3888 1.523 . S
C3888 C3872 1.368 1_655 S
C3888 C3884 1.368 . S
C3888 C3887 1.523 . S
H3889 C3864 0.950 . S
H3890 C3866 0.950 . S
H3891 C3867 0.949 . S
H3892 C3869 0.950 . S
H3893 C3871 0.950 . S
C3894 C3895 1.349 . S
C3894 C3896 1.327 . S
C3894 H3919 0.950 . S
C3895 C3894 1.349 . S
C3895 C3911 1.349 . S
C3896 C3894 1.327 . S
C3896 C3915 1.429 . S
C3896 H3920 0.950 . S
C3897 C3914 1.574 . S
C3897 C3916 1.368 . S
C3897 H3921 0.949 . S
H3898 C3902 0.949 . S
C3899 C3900 1.349 . S
C3899 C3901 1.327 . S
C3899 H3922 0.950 . S
C3900 C3899 1.349 . S
C3900 C3912 1.349 . S
C3901 C3899 1.327 . S
C3901 C3917 1.429 . S
C3901 H3923 0.950 . S
C3902 H3898 0.949 . S
C3902 C3910 1.574 . S
C3902 C3918 1.368 . S
H3903 C3911 0.950 . S
H3904 C3909 0.950 . S
H3905 C3910 0.949 . S
H3906 C3912 0.950 . S
H3907 C3913 0.950 . S
H3908 C3914 0.949 . S
C3909 H3904 0.950 . S
C3909 C3911 1.327 . S
C3909 C3915 1.429 . S
C3910 C3902 1.574 . S
C3910 H3905 0.949 . S
C3910 C3916 1.368 . S
C3911 C3895 1.349 . S
C3911 H3903 0.950 . S
C3911 C3909 1.327 . S
C3912 C3900 1.349 . S
C3912 H3906 0.950 . S
C3912 C3913 1.327 . S
C3913 H3907 0.950 . S
C3913 C3912 1.327 . S
C3913 C3917 1.429 . S
C3914 C3897 1.574 . S
C3914 H3908 0.949 . S
C3914 C3918 1.368 . S
C3915 C3896 1.429 . S
C3915 C3909 1.429 . S
C3915 C3916 1.523 . S
C3916 C3897 1.368 . S
C3916 C3910 1.368 . S
C3916 C3915 1.523 . S
C3917 C3901 1.429 . S
C3917 C3913 1.429 . S
C3917 C3918 1.523 . S
C3918 C3902 1.368 . S
C3918 C3914 1.368 . S
C3918 C3917 1.523 . S
H3919 C3894 0.950 . S
H3920 C3896 0.950 . S
H3921 C3897 0.949 . S
H3922 C3899 0.950 . S
H3923 C3901 0.950 . S
C1225 C617 0.778 . S
C1230 C5 0.778 . S
C1255 C39 0.778 . S
C1260 C651 0.778 . S
C1285 C685 0.778 . S
C1290 C73 0.778 . S
C1315 C1127 0.778 . S
C1320 C107 0.778 . S
C1345 C1161 0.778 . S
C1350 C141 0.778 . S
C1375 C175 0.778 . S
C1380 C1195 0.778 . S
C1405 C209 0.778 . S
C1410 C821 0.778 . S
C1435 C855 0.778 . S
C1440 C243 0.778 . S
C1465 C277 0.778 . S
C1470 C889 0.778 . S
C1495 C515 0.778 . S
C1500 C311 0.778 . S
C1525 C345 0.778 . S
C1530 C549 0.778 . S
C1555 C583 0.778 . S
C1560 C379 0.778 . S
C1585 C413 0.778 . S
C1590 C1025 0.778 . S
C1615 C447 0.778 . S
C1620 C1059 0.778 . S
C1645 C1093 0.778 . S
C1650 C481 0.778 . S
C1675 C923 0.778 . S
C1680 C719 0.778 . S
C1705 C753 0.778 . S
C1710 C957 0.778 . S
C1735 C991 0.778 . S
C1740 C787 0.778 . S
C1765 C33 1.225 . S
C1770 C247 1.154 . S
C1795 C67 1.225 . S
C1800 C281 1.154 . S
C1825 C101 1.224 . S
C1830 C213 1.153 . S
C1855 C383 1.154 . S
C1860 C135 1.225 . S
C1885 C169 1.224 . S
C1890 C315 1.153 . S
C1915 C203 1.225 . S
C1920 C349 1.154 . S
C1945 C237 1.225 . S
C1950 C43 1.154 . S
C1975 C271 1.225 . S
C1980 C77 1.154 . S
C2005 C9 1.153 . S
C2010 C305 1.224 . S
C2035 C339 1.225 . S
C2040 C179 1.154 . S
C2065 C373 1.224 . S
C2070 C111 1.153 . S
C2095 C407 1.225 . S
C2100 C145 1.154 . S
C2125 C655 1.153 . S
C2130 C441 1.224 . S
C2155 C475 1.225 . S
C2160 C689 1.154 . S
C2185 C509 1.225 . S
C2190 C621 1.154 . S
C2215 C543 1.225 . S
C2220 C791 1.154 . S
C2245 C577 1.225 . S
C2250 C723 1.154 . S
C2275 C757 1.154 . S
C2280 C611 1.225 . S
C2305 C451 1.154 . S
C2310 C645 1.225 . S
C2335 C679 1.225 . S
C2340 C485 1.154 . S
C2365 C417 1.154 . S
C2370 C713 1.225 . S
C2395 C747 1.224 . S
C2400 C587 1.153 . S
C2425 C519 1.154 . S
C2430 C781 1.225 . S
C2455 C553 1.154 . S
C2460 C815 1.225 . S
C2485 C1063 1.154 . S
C2490 C849 1.225 . S
C2515 C1097 1.154 . S
C2520 C883 1.225 . S
C2545 C917 1.225 . S
C2550 C1029 1.154 . S
C2575 C1199 1.153 . S
C2580 C951 1.224 . S
C2605 C1131 1.154 . S
C2610 C985 1.225 . S
C2635 C1019 1.225 . S
C2640 C1165 1.154 . S
C2665 C859 1.153 . S
C2670 C1053 1.224 . S
C2695 C1087 1.225 . S
C2700 C893 1.154 . S
C2725 C1121 1.225 . S
C2730 C825 1.154 . S
C2755 C1155 1.225 . S
C2760 C995 1.154 . S
C2785 C927 1.154 . S
C2790 C1189 1.225 . S
C2815 C961 1.154 . S
C2820 C1223 1.225 . S
C2845 C20 1.579 . S
C2850 C122 1.579 . S
C2875 C54 1.579 . S
C2880 C156 1.579 . S
C2905 C190 1.579 . S
C2910 C88 1.579 . S
C2935 C224 1.579 . S
C2940 C326 1.579 . S
C2965 C360 1.579 . S
C2970 C258 1.579 . S
C2995 C292 1.579 . S
C3000 C394 1.579 . S
C3025 C428 1.578 . S
C3030 C530 1.578 . S
C3055 C462 1.579 . S
C3060 C564 1.579 . S
C3085 C598 1.579 . S
C3090 C496 1.579 . S
C3115 C632 1.578 . S
C3120 C734 1.578 . S
C3145 C666 1.579 . S
C3150 C768 1.579 . S
C3175 C802 1.579 . S
C3180 C700 1.579 . S
C3205 C938 1.578 . S
C3210 C836 1.578 . S
C3235 C972 1.579 . S
C3240 C870 1.579 . S
C3265 C904 1.579 . S
C3270 C1006 1.579 . S
C3295 C1040 1.578 . S
C3300 C1142 1.578 . S
C3325 C1176 1.579 . S
C3330 C1074 1.579 . S
C3355 C1210 1.579 . S
C3360 C1108 1.579 . S
C3385 C2 2.346 1_556 S
C3390 C546 2.346 . S
C3415 C36 2.345 1_556 S
C3420 C580 2.345 . S
C3445 C512 2.345 . S
C3450 C70 2.345 1_556 S
C3475 C104 2.346 . S
C3480 C886 2.346 . S
C3505 C818 2.345 . S
C3510 C138 2.345 . S
C3535 C172 2.345 . S
C3540 C852 2.345 . S
C3565 C206 2.346 1_554 S
C3570 C1158 2.346 . S
C3595 C1192 2.345 . S
C3600 C240 2.345 1_554 S
C3625 C274 2.345 1_554 S
C3630 C1124 2.345 . S
C3655 C682 2.346 . S
C3660 C308 2.346 . S
C3685 C614 2.345 . S
C3690 C342 2.345 . S
C3715 C648 2.345 . S
C3720 C376 2.345 . S
C3745 C954 2.345 . S
C3750 C410 2.345 . S
C3775 C988 2.345 . S
C3780 C444 2.345 . S
C3805 C920 2.345 . S
C3810 C478 2.345 . S
C3835 C1090 2.345 . S
C3840 C716 2.345 . S
C3865 C1022 2.345 . S
C3870 C750 2.345 . S
C3895 C1056 2.345 . S
C3900 C784 2.345 . S
