# Generated by pormake.
# Topology upc, (4)-cn, num edge types: 1
# Building blocks:
#     Node 0, Type 0, BuildingBlock: CEKHIL_clean_sbu_0, # of connection points: 4
#     Node 1, Type 0, BuildingBlock: CEKHIL_clean_sbu_0, # of connection points: 4
#     Node 2, Type 0, BuildingBlock: CEKHIL_clean_sbu_0, # of connection points: 4
#     Node 3, Type 0, BuildingBlock: CEKHIL_clean_sbu_0, # of connection points: 4
#     Node 4, Type 0, BuildingBlock: CEKHIL_clean_sbu_0, # of connection points: 4
#     Node 5, Type 0, BuildingBlock: CEKHIL_clean_sbu_0, # of connection points: 4
#     Node 6, Type 0, BuildingBlock: CEKHIL_clean_sbu_0, # of connection points: 4
#     Node 7, Type 0, BuildingBlock: CEKHIL_clean_sbu_0, # of connection points: 4
#     Node 8, Type 0, BuildingBlock: CEKHIL_clean_sbu_0, # of connection points: 4
#     Node 9, Type 0, BuildingBlock: CEKHIL_clean_sbu_0, # of connection points: 4
#     Node 10, Type 0, BuildingBlock: CEKHIL_clean_sbu_0, # of connection points: 4
#     Node 11, Type 0, BuildingBlock: CEKHIL_clean_sbu_0, # of connection points: 4
#     Node 12, Type 0, BuildingBlock: CEKHIL_clean_sbu_0, # of connection points: 4
#     Node 13, Type 0, BuildingBlock: CEKHIL_clean_sbu_0, # of connection points: 4
#     Node 14, Type 0, BuildingBlock: CEKHIL_clean_sbu_0, # of connection points: 4
#     Node 15, Type 0, BuildingBlock: CEKHIL_clean_sbu_0, # of connection points: 4
#     Edge 16, Type (0, 0), BuildingBlock: MIFKUJ_clean_linker_0, # of connection points: 2
#     Edge 17, Type (0, 0), BuildingBlock: MIFKUJ_clean_linker_0, # of connection points: 2
#     Edge 18, Type (0, 0), BuildingBlock: MIFKUJ_clean_linker_0, # of connection points: 2
#     Edge 19, Type (0, 0), BuildingBlock: MIFKUJ_clean_linker_0, # of connection points: 2
#     Edge 20, Type (0, 0), BuildingBlock: MIFKUJ_clean_linker_0, # of connection points: 2
#     Edge 21, Type (0, 0), BuildingBlock: MIFKUJ_clean_linker_0, # of connection points: 2
#     Edge 22, Type (0, 0), BuildingBlock: MIFKUJ_clean_linker_0, # of connection points: 2
#     Edge 23, Type (0, 0), BuildingBlock: MIFKUJ_clean_linker_0, # of connection points: 2
#     Edge 24, Type (0, 0), BuildingBlock: MIFKUJ_clean_linker_0, # of connection points: 2
#     Edge 25, Type (0, 0), BuildingBlock: MIFKUJ_clean_linker_0, # of connection points: 2
#     Edge 26, Type (0, 0), BuildingBlock: MIFKUJ_clean_linker_0, # of connection points: 2
#     Edge 27, Type (0, 0), BuildingBlock: MIFKUJ_clean_linker_0, # of connection points: 2
#     Edge 28, Type (0, 0), BuildingBlock: MIFKUJ_clean_linker_0, # of connection points: 2
#     Edge 29, Type (0, 0), BuildingBlock: MIFKUJ_clean_linker_0, # of connection points: 2
#     Edge 30, Type (0, 0), BuildingBlock: MIFKUJ_clean_linker_0, # of connection points: 2
#     Edge 31, Type (0, 0), BuildingBlock: MIFKUJ_clean_linker_0, # of connection points: 2
#     Edge 32, Type (0, 0), BuildingBlock: MIFKUJ_clean_linker_0, # of connection points: 2
#     Edge 33, Type (0, 0), BuildingBlock: MIFKUJ_clean_linker_0, # of connection points: 2
#     Edge 34, Type (0, 0), BuildingBlock: MIFKUJ_clean_linker_0, # of connection points: 2
#     Edge 35, Type (0, 0), BuildingBlock: MIFKUJ_clean_linker_0, # of connection points: 2
#     Edge 36, Type (0, 0), BuildingBlock: MIFKUJ_clean_linker_0, # of connection points: 2
#     Edge 37, Type (0, 0), BuildingBlock: MIFKUJ_clean_linker_0, # of connection points: 2
#     Edge 38, Type (0, 0), BuildingBlock: MIFKUJ_clean_linker_0, # of connection points: 2
#     Edge 39, Type (0, 0), BuildingBlock: MIFKUJ_clean_linker_0, # of connection points: 2
#     Edge 40, Type (0, 0), BuildingBlock: MIFKUJ_clean_linker_0, # of connection points: 2
#     Edge 41, Type (0, 0), BuildingBlock: MIFKUJ_clean_linker_0, # of connection points: 2
#     Edge 42, Type (0, 0), BuildingBlock: MIFKUJ_clean_linker_0, # of connection points: 2
#     Edge 43, Type (0, 0), BuildingBlock: MIFKUJ_clean_linker_0, # of connection points: 2
#     Edge 44, Type (0, 0), BuildingBlock: MIFKUJ_clean_linker_0, # of connection points: 2
#     Edge 45, Type (0, 0), BuildingBlock: MIFKUJ_clean_linker_0, # of connection points: 2
#     Edge 46, Type (0, 0), BuildingBlock: MIFKUJ_clean_linker_0, # of connection points: 2
#     Edge 47, Type (0, 0), BuildingBlock: MIFKUJ_clean_linker_0, # of connection points: 2
# Relax obj value: 0.268
# Max RMSD: 0.292
# Mean RMSD: 0.292
data_MOF--net-upc--node1-CEKHIL_clean_sbu_0--edge1-MIFKUJ_clean_linker_0
_symmetry_space_group_name_H-M    P1
_symmetry_Int_Tables_number       1
_symmetry_cell_setting            triclinic
loop_
_symmetry_equiv_pos_as_xyz
'x, y, z'
_cell_length_a     43.145012
_cell_length_b     43.142181
_cell_length_c     55.592743
_cell_angle_alpha  90.004924
_cell_angle_beta   90.051922
_cell_angle_gamma 90.050651
loop_
_atom_site_label
_atom_site_type_symbol
_atom_site_fract_x
_atom_site_fract_y
_atom_site_fract_z
_atom_type_partial_charge
Co0 Co 0.07489 0.62907 0.12628 0.0
O1 O 0.09016 0.5941 0.10889 0.0
O2 O 0.04056 0.60715 0.1119 0.0
C3 C 0.11007 0.66196 0.11137 0.0
O4 O 0.05078 0.66404 0.14218 0.0
Co5 Co 0.11576 0.66192 0.16371 0.0
O6 O 0.08463 0.69544 0.16068 0.0
C7 C 0.08464 0.60347 0.1768 0.0
C8 C 0.06155 0.5886 0.1032 0.0
C9 C 0.05735 0.68935 0.15329 0.0
O10 O 0.07122 0.60332 0.15617 0.0
O11 O 0.10454 0.62403 0.183 0.0
O12 O 0.08502 0.65588 0.09933 0.0
O13 O 0.11421 0.64655 0.13103 0.0
Co14 Co 0.87295 0.07905 0.11898 0.0
O15 O 0.90538 0.08625 0.09654 0.0
O16 O 0.88366 0.04041 0.10355 0.0
C17 C 0.84484 0.11983 0.10722 0.0
O18 O 0.83831 0.06366 0.14052 0.0
Co19 Co 0.85932 0.12849 0.15802 0.0
O20 O 0.82029 0.10436 0.16147 0.0
C21 C 0.91205 0.08586 0.16424 0.0
C22 C 0.90354 0.05701 0.09149 0.0
C23 C 0.81833 0.07623 0.15456 0.0
O24 O 0.90378 0.07102 0.14525 0.0
O25 O 0.89893 0.11083 0.17142 0.0
O26 O 0.84253 0.09372 0.09574 0.0
O27 O 0.86536 0.12102 0.12411 0.0
Co28 Co 0.42208 0.85983 0.11109 0.0
O29 O 0.41244 0.88913 0.0866 0.0
O30 O 0.45983 0.87208 0.09505 0.0
C31 C 0.38319 0.82772 0.10113 0.0
O32 O 0.44041 0.82924 0.13479 0.0
Co33 Co 0.37418 0.84562 0.1511 0.0
O34 O 0.40224 0.81019 0.1579 0.0
C35 C 0.41295 0.90194 0.15443 0.0
C36 C 0.44182 0.88934 0.08187 0.0
C37 C 0.43037 0.81044 0.1509 0.0
O38 O 0.4278 0.89374 0.13543 0.0
O39 O 0.38931 0.88728 0.16253 0.0
O40 O 0.40948 0.82608 0.08983 0.0
O41 O 0.38082 0.84949 0.11693 0.0
Co42 Co 0.61321 0.41768 0.1187 0.0
O43 O 0.58436 0.41258 0.09311 0.0
O44 O 0.60551 0.45743 0.10394 0.0
C45 C 0.64308 0.37746 0.10854 0.0
O46 O 0.6444 0.43115 0.14398 0.0
Co47 Co 0.61792 0.36566 0.1569 0.0
O48 O 0.65178 0.39183 0.17 0.0
C49 C 0.56572 0.40908 0.15883 0.0
C50 C 0.58695 0.44218 0.08972 0.0
C51 C 0.65763 0.41914 0.16247 0.0
O52 O 0.57832 0.42478 0.14182 0.0
O53 O 0.57643 0.38311 0.16623 0.0
O54 O 0.64701 0.40418 0.09822 0.0
O55 O 0.61963 0.37518 0.12289 0.0
Co56 Co 0.07703 0.86665 0.37516 0.0
O57 O 0.08513 0.89865 0.39805 0.0
O58 O 0.03882 0.87823 0.39072 0.0
C59 C 0.11749 0.83786 0.38692 0.0
O60 O 0.05976 0.8329 0.3535 0.0
Co61 Co 0.12429 0.85012 0.33574 0.0
O62 O 0.09711 0.81379 0.32975 0.0
C63 C 0.08551 0.90608 0.33047 0.0
C64 C 0.05579 0.89757 0.40298 0.0
C65 C 0.06948 0.81334 0.33781 0.0
O66 O 0.07007 0.8983 0.34929 0.0
O67 O 0.10943 0.89125 0.32315 0.0
O68 O 0.09118 0.83559 0.39811 0.0
O69 O 0.11887 0.85796 0.36975 0.0
Co70 Co 0.60245 0.09497 0.37345 0.0
O71 O 0.56676 0.0952 0.394 0.0
O72 O 0.59716 0.05459 0.38742 0.0
C73 C 0.62321 0.13938 0.38713 0.0
O74 O 0.64142 0.08574 0.35455 0.0
Co75 Co 0.61391 0.14644 0.33562 0.0
O76 O 0.65572 0.12741 0.33314 0.0
C77 C 0.56933 0.09622 0.325 0.0
C78 C 0.57352 0.06646 0.39858 0.0
C79 C 0.66072 0.10008 0.34095 0.0
O80 O 0.5764 0.08286 0.34495 0.0
O81 O 0.58008 0.12272 0.31876 0.0
O82 O 0.6274 0.11364 0.39879 0.0
O83 O 0.60446 0.138 0.36901 0.0
Co84 Co 0.41612 0.62388 0.3728 0.0
O85 O 0.40563 0.58564 0.38812 0.0
O86 O 0.45307 0.6056 0.38594 0.0
C87 C 0.37726 0.65119 0.38899 0.0
O88 O 0.4355 0.66265 0.35876 0.0
Co89 Co 0.37054 0.65509 0.33706 0.0
O90 O 0.39839 0.69151 0.34144 0.0
C91 C 0.40675 0.60048 0.32191 0.0
C92 C 0.43485 0.58354 0.39338 0.0
C93 C 0.42609 0.68784 0.34889 0.0
O94 O 0.42243 0.60174 0.34155 0.0
O95 O 0.38338 0.61788 0.31748 0.0
O96 O 0.40272 0.64709 0.40107 0.0
O97 O 0.37543 0.63694 0.36862 0.0
Co98 Co 0.87916 0.42093 0.38122 0.0
O99 O 0.90635 0.41295 0.40777 0.0
O100 O 0.89072 0.45956 0.396 0.0
C101 C 0.84441 0.38404 0.39067 0.0
O102 O 0.85103 0.43852 0.35539 0.0
Co103 Co 0.86589 0.37134 0.34222 0.0
O104 O 0.83168 0.39974 0.33298 0.0
C105 C 0.92303 0.40928 0.33933 0.0
C106 C 0.90663 0.44276 0.41099 0.0
C107 C 0.83263 0.42816 0.33913 0.0
O108 O 0.9152 0.42396 0.35852 0.0
O109 O 0.9073 0.38671 0.3306 0.0
O110 O 0.84327 0.41098 0.40107 0.0
O111 O 0.86759 0.37953 0.3764 0.0
Co112 Co 0.92977 0.3708 0.88536 0.0
O113 O 0.92586 0.4004 0.91063 0.0
O114 O 0.97006 0.3785 0.8993 0.0
C115 C 0.88941 0.34188 0.89706 0.0
O116 O 0.94221 0.33863 0.86056 0.0
Co117 Co 0.87707 0.36253 0.84809 0.0
O118 O 0.89947 0.32352 0.84069 0.0
C119 C 0.92176 0.41396 0.84235 0.0
C120 C 0.95543 0.39709 0.91383 0.0
C121 C 0.9281 0.32048 0.84584 0.0
O122 O 0.93649 0.40464 0.86114 0.0
O123 O 0.89668 0.4013 0.83487 0.0
O124 O 0.91641 0.33798 0.90693 0.0
O125 O 0.88711 0.36452 0.88195 0.0
Co126 Co 0.12221 0.91949 0.87301 0.0
O127 O 0.08981 0.91346 0.89567 0.0
O128 O 0.11315 0.95848 0.8886 0.0
C129 C 0.14863 0.87753 0.88478 0.0
O130 O 0.15723 0.93367 0.85133 0.0
Co131 Co 0.13386 0.8699 0.83389 0.0
O132 O 0.17373 0.89248 0.83024 0.0
C133 C 0.08211 0.91388 0.82821 0.0
C134 C 0.09287 0.94257 0.90081 0.0
C135 C 0.17673 0.92048 0.83721 0.0
O136 O 0.0913 0.92865 0.84698 0.0
O137 O 0.09441 0.88852 0.82099 0.0
O138 O 0.15223 0.90362 0.89608 0.0
O139 O 0.12809 0.87719 0.86788 0.0
Co140 Co 0.58073 0.12487 0.88403 0.0
O141 O 0.57988 0.09876 0.91158 0.0
O142 O 0.53884 0.12286 0.8962 0.0
C143 C 0.62307 0.15107 0.89545 0.0
O144 O 0.57347 0.15453 0.85639 0.0
Co145 Co 0.63666 0.12201 0.84922 0.0
O146 O 0.6184 0.16106 0.83664 0.0
C147 C 0.58797 0.07424 0.8461 0.0
C148 C 0.55055 0.105 0.91274 0.0
C149 C 0.5902 0.1683 0.84057 0.0
O150 O 0.57219 0.08872 0.86217 0.0
O151 O 0.61531 0.08236 0.8397 0.0
O152 O 0.59601 0.15908 0.90354 0.0
O153 O 0.62397 0.12633 0.88239 0.0
Co154 Co 0.37405 0.58286 0.87143 0.0
O155 O 0.41066 0.59075 0.88977 0.0
O156 O 0.38882 0.54451 0.88486 0.0
C157 C 0.34677 0.62232 0.88653 0.0
O158 O 0.33594 0.56612 0.85432 0.0
Co159 Co 0.35039 0.63104 0.8345 0.0
O160 O 0.3125 0.60488 0.83448 0.0
C161 C 0.40305 0.59074 0.82184 0.0
C162 C 0.41072 0.56128 0.89439 0.0
C163 C 0.31316 0.57697 0.84201 0.0
O164 O 0.39967 0.57625 0.84185 0.0
O165 O 0.38684 0.61442 0.81593 0.0
O166 O 0.34831 0.59626 0.89817 0.0
O167 O 0.36363 0.62442 0.86739 0.0
Co168 Co 0.91619 0.12589 0.61434 0.0
O169 O 0.90883 0.09149 0.59352 0.0
O170 O 0.95509 0.11183 0.60124 0.0
C171 C 0.87794 0.15552 0.59986 0.0
O172 O 0.93219 0.16196 0.63423 0.0
Co173 Co 0.86591 0.14569 0.65099 0.0
O174 O 0.89162 0.18387 0.65291 0.0
C175 C 0.9057 0.09204 0.66191 0.0
C176 C 0.93849 0.09137 0.58979 0.0
C177 C 0.92007 0.18394 0.64667 0.0
O178 O 0.92117 0.09736 0.64259 0.0
O179 O 0.88145 0.10737 0.66782 0.0
O180 O 0.90452 0.15462 0.58893 0.0
O181 O 0.87451 0.13648 0.6176 0.0
Co182 Co 0.39396 0.89864 0.62293 0.0
O183 O 0.43184 0.89616 0.605 0.0
O184 O 0.4041 0.9389 0.61045 0.0
C185 C 0.37169 0.85648 0.60662 0.0
O186 O 0.35372 0.91035 0.63934 0.0
Co187 Co 0.37431 0.84717 0.65855 0.0
O188 O 0.33388 0.86915 0.65849 0.0
C189 C 0.42141 0.89313 0.67334 0.0
C190 C 0.42801 0.92551 0.60074 0.0
C191 C 0.33187 0.89707 0.65115 0.0
O192 O 0.41753 0.90761 0.65335 0.0
O193 O 0.40787 0.86746 0.67827 0.0
O194 O 0.37084 0.88289 0.59544 0.0
O195 O 0.3881 0.85579 0.62609 0.0
Co196 Co 0.58026 0.37761 0.607 0.0
O197 O 0.57586 0.41249 0.5862 0.0
O198 O 0.53886 0.37803 0.59408 0.0
C199 C 0.62616 0.36197 0.59248 0.0
O200 O 0.5764 0.33859 0.62699 0.0
Co201 Co 0.63466 0.37395 0.64348 0.0
O202 O 0.62041 0.33046 0.64757 0.0
C203 C 0.58125 0.41476 0.65342 0.0
C204 C 0.54766 0.40292 0.58277 0.0
C205 C 0.59353 0.32186 0.6407 0.0
O206 O 0.56681 0.40344 0.63518 0.0
O207 O 0.60936 0.4079 0.65863 0.0
O208 O 0.60068 0.35412 0.58156 0.0
O209 O 0.62312 0.38086 0.61032 0.0
Co210 Co 0.13069 0.57674 0.62665 0.0
O211 O 0.09623 0.58895 0.607 0.0
O212 O 0.11138 0.54046 0.61331 0.0
C213 C 0.16383 0.61214 0.61184 0.0
O214 O 0.16493 0.55488 0.64503 0.0
Co215 Co 0.16107 0.62112 0.66351 0.0
O216 O 0.19453 0.58963 0.66431 0.0
C217 C 0.10361 0.58748 0.67647 0.0
C218 C 0.0924 0.55957 0.60282 0.0
C219 C 0.18892 0.56196 0.65758 0.0
O220 O 0.10331 0.57419 0.65577 0.0
O221 O 0.12392 0.60761 0.68273 0.0
O222 O 0.15924 0.58623 0.60047 0.0
O223 O 0.1469 0.61665 0.63067 0.0
H224 H 0.12489 0.72269 0.11608 0.0
H225 H 0.17232 0.74797 0.10151 0.0
H226 H 0.20085 0.66233 0.06799 0.0
H227 H 0.15339 0.63717 0.08261 0.0
H228 H 0.24449 0.68567 0.0981 0.0
H229 H 0.18496 0.72249 0.03245 0.0
H230 H 0.13894 0.74534 0.01307 0.0
H231 H 0.15459 0.83089 0.05063 0.0
H232 H 0.20041 0.80841 0.07058 0.0
H233 H 0.38239 0.77475 0.07394 0.0
H234 H 0.33675 0.74324 0.06356 0.0
H235 H 0.27832 0.80659 0.10284 0.0
H236 H 0.32342 0.83764 0.11352 0.0
H237 H 0.25337 0.78776 0.05754 0.0
H238 H 0.30112 0.74591 0.13045 0.0
H239 H 0.34466 0.72333 0.15325 0.0
H240 H 0.34936 0.64761 0.10324 0.0
H241 H 0.30611 0.67007 0.07991 0.0
C242 C 0.14106 0.70967 0.10513 0.0
C243 C 0.13589 0.6783 0.10025 0.0
C244 C 0.16795 0.72401 0.09673 0.0
C245 C 0.18988 0.70702 0.08347 0.0
C246 C 0.18409 0.67582 0.07802 0.0
C247 C 0.15714 0.66156 0.08632 0.0
C248 C 0.22032 0.72094 0.07799 0.0
C249 C 0.24663 0.70752 0.08855 0.0
C250 C 0.22293 0.74955 0.06576 0.0
C251 C 0.19603 0.76364 0.05317 0.0
C252 C 0.1785 0.74612 0.0367 0.0
C253 C 0.1524 0.75899 0.02565 0.0
C254 C 0.14369 0.78945 0.03079 0.0
C255 C 0.16127 0.80723 0.04678 0.0
C256 C 0.18736 0.79445 0.05793 0.0
C257 C 0.35975 0.78188 0.08026 0.0
C258 C 0.35638 0.80838 0.09471 0.0
C259 C 0.3338 0.76405 0.07421 0.0
C260 C 0.30429 0.77285 0.08231 0.0
C261 C 0.30091 0.79969 0.09622 0.0
C262 C 0.32674 0.81716 0.10254 0.0
C263 C 0.27699 0.75297 0.07844 0.0
C264 C 0.25136 0.7653 0.06619 0.0
C265 C 0.27486 0.72342 0.08923 0.0
C266 C 0.30075 0.70988 0.10325 0.0
C267 C 0.31165 0.72461 0.12419 0.0
C268 C 0.33623 0.71181 0.13723 0.0
C269 C 0.34985 0.68412 0.12964 0.0
C270 C 0.33885 0.66912 0.10904 0.0
C271 C 0.31433 0.68187 0.0959 0.0
H272 H 0.36886 0.67422 0.13977 0.0
H273 H 0.12348 0.79937 0.02221 0.0
H274 H 0.78687 0.12001 0.08781 0.0
H275 H 0.75354 0.1652 0.08153 0.0
H276 H 0.82752 0.22518 0.10573 0.0
H277 H 0.86 0.18 0.11334 0.0
H278 H 0.7795 0.23917 0.12832 0.0
H279 H 0.80006 0.22581 0.04457 0.0
H280 H 0.80518 0.19707 0.00641 0.0
H281 H 0.70907 0.17167 0.0096 0.0
H282 H 0.70321 0.20074 0.04759 0.0
H283 H 0.70296 0.37965 0.09374 0.0
H284 H 0.73779 0.33555 0.08711 0.0
H285 H 0.66352 0.27233 0.10414 0.0
H286 H 0.62886 0.3163 0.1117 0.0
H287 H 0.71197 0.262 0.05821 0.0
H288 H 0.69687 0.27732 0.14595 0.0
H289 H 0.69687 0.31051 0.18206 0.0
H290 H 0.79174 0.33538 0.16877 0.0
H291 H 0.79183 0.30335 0.13206 0.0
C292 C 0.79596 0.14293 0.09153 0.0
C293 C 0.82568 0.14673 0.10132 0.0
C294 C 0.77709 0.16873 0.08771 0.0
C295 C 0.78812 0.19863 0.09299 0.0
C296 C 0.81845 0.20234 0.10167 0.0
C297 C 0.83695 0.17658 0.10607 0.0
C298 C 0.76712 0.22567 0.09214 0.0
C299 C 0.76518 0.24431 0.11277 0.0
C300 C 0.74811 0.23231 0.07202 0.0
C301 C 0.75127 0.21525 0.04899 0.0
C302 C 0.78002 0.21407 0.03713 0.0
C303 C 0.78301 0.19786 0.01549 0.0
C304 C 0.75744 0.18261 0.00557 0.0
C305 C 0.7288 0.18365 0.01725 0.0
C306 C 0.72557 0.20015 0.03875 0.0
C307 C 0.69406 0.35632 0.09588 0.0
C308 C 0.66348 0.35117 0.10349 0.0
C309 C 0.71383 0.3313 0.09194 0.0
C310 C 0.70294 0.30097 0.09502 0.0
C311 C 0.67204 0.29572 0.10153 0.0
C312 C 0.65249 0.32074 0.10609 0.0
C313 C 0.72476 0.27496 0.0943 0.0
C314 C 0.72665 0.25666 0.07352 0.0
C315 C 0.74445 0.26902 0.11401 0.0
C316 C 0.74415 0.28844 0.13601 0.0
C317 C 0.71751 0.29037 0.15046 0.0
C318 C 0.71751 0.30894 0.17108 0.0
C319 C 0.74419 0.32529 0.17762 0.0
C320 C 0.77096 0.323 0.16359 0.0
C321 C 0.77097 0.30471 0.14284 0.0
H322 H 0.74419 0.33958 0.19362 0.0
H323 H 0.7598 0.17001 0.98884 0.0
H324 H 0.12365 0.77972 0.4057 0.0
H325 H 0.17222 0.75416 0.41719 0.0
H326 H 0.22255 0.83844 0.40158 0.0
H327 H 0.17454 0.86301 0.3886 0.0
H328 H 0.24879 0.79622 0.38014 0.0
H329 H 0.21619 0.8063 0.46046 0.0
H330 H 0.18113 0.80409 0.4954 0.0
H331 H 0.17655 0.70499 0.4895 0.0
H332 H 0.21116 0.70657 0.45424 0.0
H333 H 0.37729 0.69048 0.42786 0.0
H334 H 0.33664 0.72808 0.43851 0.0
H335 H 0.28103 0.69565 0.3791 0.0
H336 H 0.32108 0.65858 0.36832 0.0
H337 H 0.26707 0.72178 0.4467 0.0
H338 H 0.26773 0.75795 0.34645 0.0
H339 H 0.3055 0.76266 0.31333 0.0
H340 H 0.37861 0.77816 0.3644 0.0
H341 H 0.34131 0.77362 0.39775 0.0
C342 C 0.14516 0.79266 0.40495 0.0
C343 C 0.1457 0.82294 0.39585 0.0
C344 C 0.17282 0.77827 0.41181 0.0
C345 C 0.20112 0.79444 0.41041 0.0
C346 C 0.20112 0.82539 0.40266 0.0
C347 C 0.17374 0.83935 0.39513 0.0
C348 C 0.23098 0.77799 0.41361 0.0
C349 C 0.25288 0.78051 0.39504 0.0
C350 C 0.23688 0.75784 0.43324 0.0
C351 C 0.21615 0.7566 0.45455 0.0
C352 C 0.20755 0.78403 0.46648 0.0
C353 C 0.18777 0.78289 0.48637 0.0
C354 C 0.17656 0.75444 0.49459 0.0
C355 C 0.18524 0.72702 0.48306 0.0
C356 C 0.20498 0.72803 0.46314 0.0
C357 C 0.35618 0.69122 0.41731 0.0
C358 C 0.35244 0.67201 0.39707 0.0
C359 C 0.33303 0.71247 0.42351 0.0
C360 C 0.30612 0.71457 0.40946 0.0
C361 C 0.3018 0.69434 0.39004 0.0
C362 C 0.32478 0.67332 0.38384 0.0
C363 C 0.28355 0.73968 0.41294 0.0
C364 C 0.26308 0.73851 0.43247 0.0
C365 C 0.27932 0.76196 0.39468 0.0
C366 C 0.30173 0.76532 0.37459 0.0
C367 C 0.29184 0.76251 0.35058 0.0
C368 C 0.3132 0.76504 0.33177 0.0
C369 C 0.34448 0.77055 0.33674 0.0
C370 C 0.35445 0.77364 0.36054 0.0
C371 C 0.33322 0.77104 0.37941 0.0
H372 H 0.36099 0.77249 0.32217 0.0
H373 H 0.16109 0.75366 0.50987 0.0
H374 H 0.84774 0.32312 0.37899 0.0
H375 H 0.80718 0.28402 0.38269 0.0
H376 H 0.74546 0.35242 0.41285 0.0
H377 H 0.78659 0.39157 0.40998 0.0
H378 H 0.73779 0.29824 0.43507 0.0
H379 H 0.74098 0.33248 0.35333 0.0
H380 H 0.7657 0.34502 0.31454 0.0
H381 H 0.79381 0.25013 0.30645 0.0
H382 H 0.7697 0.23713 0.34539 0.0
H383 H 0.61403 0.19762 0.36967 0.0
H384 H 0.64762 0.24287 0.37509 0.0
H385 H 0.70844 0.1889 0.42017 0.0
H386 H 0.67447 0.14395 0.41559 0.0
H387 H 0.7115 0.23997 0.3608 0.0
H388 H 0.72304 0.21956 0.45446 0.0
H389 H 0.69565 0.21187 0.493 0.0
H390 H 0.63295 0.28572 0.47534 0.0
H391 H 0.65973 0.2934 0.43651 0.0
C392 C 0.82558 0.32981 0.38651 0.0
C393 C 0.82013 0.36042 0.39393 0.0
C394 C 0.80241 0.30747 0.38859 0.0
C395 C 0.77309 0.31548 0.39755 0.0
C396 C 0.76789 0.34581 0.40577 0.0
C397 C 0.79131 0.36814 0.40403 0.0
C398 C 0.74767 0.29239 0.39731 0.0
C399 C 0.73206 0.28556 0.41882 0.0
C400 C 0.73965 0.27624 0.376 0.0
C401 C 0.7537 0.28388 0.35236 0.0
C402 C 0.75257 0.31432 0.34333 0.0
C403 C 0.76647 0.32151 0.32132 0.0
C404 C 0.78135 0.29839 0.30806 0.0
C405 C 0.78228 0.26802 0.31675 0.0
C406 C 0.76848 0.26072 0.33878 0.0
C407 C 0.63421 0.19563 0.38117 0.0
C408 C 0.64169 0.16733 0.39222 0.0
C409 C 0.65326 0.22148 0.38431 0.0
C410 C 0.68008 0.21938 0.39849 0.0
C411 C 0.68725 0.19132 0.40992 0.0
C412 C 0.668 0.16556 0.40704 0.0
C413 C 0.70257 0.24516 0.39868 0.0
C414 C 0.71741 0.25264 0.37704 0.0
C415 C 0.70959 0.26207 0.41971 0.0
C416 C 0.69293 0.25663 0.44251 0.0
C417 C 0.70304 0.23372 0.45864 0.0
C418 C 0.68774 0.22947 0.48056 0.0
C419 C 0.66248 0.24819 0.48656 0.0
C420 C 0.65243 0.27115 0.47063 0.0
C421 C 0.6676 0.2754 0.44865 0.0
H422 H 0.65078 0.245 0.5036 0.0
H423 H 0.79211 0.30401 0.29103 0.0
H424 H 0.89142 0.28376 0.91612 0.0
H425 H 0.84749 0.24864 0.92275 0.0
H426 H 0.78467 0.31898 0.89707 0.0
H427 H 0.82843 0.35389 0.88982 0.0
H428 H 0.76657 0.28304 0.94192 0.0
H429 H 0.80259 0.27271 0.85859 0.0
H430 H 0.84377 0.26294 0.8288 0.0
H431 H 0.86063 0.17348 0.86002 0.0
H432 H 0.81991 0.18303 0.89032 0.0
H433 H 0.6275 0.21301 0.90361 0.0
H434 H 0.67483 0.24295 0.91043 0.0
H435 H 0.72868 0.15859 0.90787 0.0
H436 H 0.68157 0.12905 0.89937 0.0
H437 H 0.7558 0.19763 0.88272 0.0
H438 H 0.71283 0.2028 0.96131 0.0
H439 H 0.67362 0.21234 0.99271 0.0
H440 H 0.67199 0.30895 0.97449 0.0
H441 H 0.71031 0.29994 0.94242 0.0
C442 C 0.8682 0.29177 0.9121 0.0
C443 C 0.86318 0.32134 0.90229 0.0
C444 C 0.84324 0.2718 0.91598 0.0
C445 C 0.81305 0.28145 0.91047 0.0
C446 C 0.80789 0.31137 0.90156 0.0
C447 C 0.83285 0.3311 0.89724 0.0
C448 C 0.78703 0.25954 0.9118 0.0
C449 C 0.76391 0.26432 0.92905 0.0
C450 C 0.78453 0.23471 0.89542 0.0
C451 C 0.8085 0.22874 0.87689 0.0
C452 C 0.81527 0.25108 0.85923 0.0
C453 C 0.8385 0.24557 0.84224 0.0
C454 C 0.85488 0.21765 0.84257 0.0
C455 C 0.84797 0.19513 0.85983 0.0
C456 C 0.82483 0.20058 0.87691 0.0
C457 C 0.64948 0.20097 0.90465 0.0
C458 C 0.65112 0.1689 0.90087 0.0
C459 C 0.67648 0.21799 0.9088 0.0
C460 C 0.70535 0.20298 0.9101 0.0
C461 C 0.70673 0.17071 0.90693 0.0
C462 C 0.67987 0.15387 0.90206 0.0
C463 C 0.73432 0.22116 0.91273 0.0
C464 C 0.75825 0.21579 0.8961 0.0
C465 C 0.73764 0.24516 0.93 0.0
C466 C 0.7144 0.25062 0.94929 0.0
C467 C 0.70394 0.22604 0.96382 0.0
C468 C 0.68187 0.23136 0.98177 0.0
C469 C 0.67044 0.26121 0.98565 0.0
C470 C 0.6809 0.28582 0.97149 0.0
C471 C 0.70276 0.28062 0.95339 0.0
H472 H 0.65345 0.26527 -0.00039 0.0
H473 H 0.87287 0.21344 0.82941 0.0
H474 H 0.30268 0.62118 0.92186 0.0
H475 H 0.26435 0.66172 0.93059 0.0
H476 H 0.30586 0.72018 0.87652 0.0
H477 H 0.34375 0.68 0.86753 0.0
H478 H 0.26718 0.72824 0.94237 0.0
H479 H 0.24927 0.73935 0.83942 0.0
H480 H 0.25241 0.70585 0.80352 0.0
H481 H 0.23225 0.62595 0.84688 0.0
H482 H 0.22869 0.65899 0.88291 0.0
H483 H 0.20492 0.87307 0.90682 0.0
H484 H 0.23325 0.82538 0.9162 0.0
H485 H 0.15625 0.77113 0.88967 0.0
H486 H 0.12884 0.81859 0.87908 0.0
H487 H 0.20418 0.75201 0.86996 0.0
H488 H 0.1783 0.7754 0.94988 0.0
H489 H 0.17268 0.80584 0.98698 0.0
H490 H 0.27157 0.8104 0.99457 0.0
H491 H 0.27795 0.78153 0.95666 0.0
C492 C 0.30381 0.64288 0.91211 0.0
C493 C 0.32575 0.64736 0.89374 0.0
C494 C 0.28213 0.66599 0.91725 0.0
C495 C 0.28231 0.69362 0.90403 0.0
C496 C 0.30537 0.69879 0.88675 0.0
C497 C 0.32684 0.67579 0.88155 0.0
C498 C 0.25659 0.71581 0.90584 0.0
C499 C 0.25308 0.73357 0.92676 0.0
C500 C 0.2376 0.7215 0.88567 0.0
C501 C 0.23889 0.70164 0.86388 0.0
C502 C 0.24532 0.71466 0.84125 0.0
C503 C 0.24725 0.69573 0.82088 0.0
C504 C 0.24264 0.66377 0.82291 0.0
C505 C 0.23598 0.65068 0.84531 0.0
C506 C 0.23403 0.66949 0.86571 0.0
C507 C 0.1941 0.85089 0.90318 0.0
C508 C 0.16506 0.84929 0.89191 0.0
C509 C 0.21008 0.82369 0.90879 0.0
C510 C 0.19677 0.79465 0.9038 0.0
C511 C 0.16705 0.79325 0.89357 0.0
C512 C 0.15148 0.82033 0.88742 0.0
C513 C 0.21518 0.76594 0.90633 0.0
C514 C 0.21751 0.74676 0.88601 0.0
C515 C 0.23223 0.75859 0.92741 0.0
C516 C 0.2286 0.77638 0.95018 0.0
C517 C 0.19892 0.78321 0.95922 0.0
C518 C 0.19559 0.80019 0.98047 0.0
C519 C 0.22173 0.80985 0.99326 0.0
C520 C 0.25132 0.80285 0.98466 0.0
C521 C 0.2548 0.78631 0.9632 0.0
H522 H 0.21907 0.82279 0.00981 0.0
H523 H 0.24417 0.64917 0.80713 0.0
H524 H 0.68209 0.37693 0.61152 0.0
H525 H 0.7308 0.34905 0.60671 0.0
H526 H 0.68689 0.28628 0.55671 0.0
H527 H 0.63794 0.3144 0.56126 0.0
H528 H 0.73722 0.29158 0.62075 0.0
H529 H 0.7472 0.25638 0.51826 0.0
H530 H 0.73903 0.28011 0.47849 0.0
H531 H 0.7414 0.37076 0.51001 0.0
H532 H 0.75151 0.34789 0.5498 0.0
H533 H 0.81722 0.15401 0.61211 0.0
H534 H 0.77846 0.19419 0.60521 0.0
H535 H 0.8466 0.24988 0.56826 0.0
H536 H 0.8853 0.20903 0.57431 0.0
H537 H 0.79151 0.25583 0.54718 0.0
H538 H 0.83083 0.26398 0.62677 0.0
H539 H 0.84625 0.24543 0.66699 0.0
H540 H 0.75223 0.21908 0.68183 0.0
H541 H 0.73627 0.2371 0.64157 0.0
C542 C 0.6829 0.3575 0.5992 0.0
C543 C 0.65618 0.3475 0.58702 0.0
C544 C 0.71076 0.34167 0.59643 0.0
C545 C 0.71239 0.3156 0.58143 0.0
C546 C 0.68616 0.30656 0.5682 0.0
C547 C 0.6582 0.32249 0.57093 0.0
C548 C 0.74012 0.2956 0.58216 0.0
C549 C 0.74917 0.28395 0.60464 0.0
C550 C 0.75614 0.28628 0.56117 0.0
C551 C 0.7496 0.30028 0.53723 0.0
C552 C 0.74608 0.28139 0.51677 0.0
C553 C 0.74112 0.2947 0.49418 0.0
C554 C 0.73917 0.32684 0.49175 0.0
C555 C 0.74262 0.34582 0.51192 0.0
C556 C 0.74807 0.33269 0.53452 0.0
C557 C 0.82383 0.17468 0.6023 0.0
C558 C 0.85424 0.17868 0.59398 0.0
C559 C 0.80173 0.19761 0.5984 0.0
C560 C 0.8099 0.22526 0.5867 0.0
C561 C 0.83992 0.22875 0.57741 0.0
C562 C 0.86197 0.20549 0.58096 0.0
C563 C 0.78747 0.25107 0.5856 0.0
C564 C 0.77952 0.26376 0.56318 0.0
C565 C 0.77299 0.26223 0.60669 0.0
C566 C 0.78239 0.25173 0.63108 0.0
C567 C 0.81346 0.25408 0.63856 0.0
C568 C 0.82231 0.24366 0.66136 0.0
C569 C 0.80026 0.23101 0.67693 0.0
C570 C 0.76929 0.22886 0.66975 0.0
C571 C 0.76032 0.23922 0.64695 0.0
H572 H 0.80717 0.22294 0.69456 0.0
H573 H 0.73523 0.33703 0.47422 0.0
H574 H 0.1771 0.66707 0.63323 0.0
H575 H 0.21348 0.70655 0.61986 0.0
H576 H 0.23827 0.65002 0.55881 0.0
H577 H 0.20178 0.60988 0.57233 0.0
H578 H 0.28893 0.67451 0.58058 0.0
H579 H 0.19556 0.71249 0.54897 0.0
H580 H 0.14 0.72564 0.54837 0.0
H581 H 0.15477 0.79423 0.60316 0.0
H582 H 0.21026 0.78088 0.60465 0.0
H583 H 0.3353 0.85194 0.56651 0.0
H584 H 0.30306 0.80785 0.55433 0.0
H585 H 0.33432 0.75673 0.61651 0.0
H586 H 0.36687 0.80025 0.62845 0.0
H587 H 0.25574 0.78452 0.57682 0.0
H588 H 0.33545 0.68145 0.60741 0.0
H589 H 0.39079 0.66753 0.60554 0.0
H590 H 0.40347 0.72903 0.54563 0.0
H591 H 0.34811 0.74299 0.54688 0.0
C592 C 0.19023 0.66296 0.61695 0.0
C593 C 0.18655 0.63544 0.60378 0.0
C594 C 0.21087 0.68566 0.60922 0.0
C595 C 0.2281 0.68145 0.5881 0.0
C596 C 0.22494 0.65377 0.57506 0.0
C597 C 0.20417 0.63092 0.58281 0.0
C598 C 0.25013 0.70585 0.58054 0.0
C599 C 0.28175 0.69855 0.57942 0.0
C600 C 0.24052 0.73702 0.57799 0.0
C601 C 0.20716 0.74558 0.57696 0.0
C602 C 0.18696 0.73022 0.56103 0.0
C603 C 0.15544 0.73769 0.56056 0.0
C604 C 0.14387 0.76078 0.57569 0.0
C605 C 0.16378 0.77639 0.5914 0.0
C606 C 0.19528 0.76886 0.59208 0.0
C607 C 0.33554 0.83112 0.57739 0.0
C608 C 0.35349 0.82952 0.59847 0.0
C609 C 0.31718 0.80597 0.57039 0.0
C610 C 0.31661 0.77884 0.58431 0.0
C611 C 0.33495 0.77712 0.60515 0.0
C612 C 0.35333 0.80214 0.6121 0.0
C613 C 0.29468 0.75338 0.57872 0.0
C614 C 0.26301 0.76047 0.57727 0.0
C615 C 0.30426 0.72201 0.57833 0.0
C616 C 0.33757 0.71336 0.5773 0.0
C617 C 0.34996 0.69184 0.59371 0.0
C618 C 0.38137 0.68398 0.59279 0.0
C619 C 0.40064 0.69741 0.5755 0.0
C620 C 0.38853 0.7187 0.55906 0.0
C621 C 0.35714 0.72663 0.55989 0.0
H622 H 0.42495 0.69131 0.57483 0.0
H623 H 0.11948 0.76658 0.57525 0.0
H624 H 0.96824 0.44976 0.35389 0.0
H625 H 0.004 0.47845 0.32812 0.0
H626 H 0.97113 0.42748 0.26637 0.0
H627 H 0.93611 0.39804 0.29204 0.0
H628 H 0.02975 0.43919 0.26074 0.0
H629 H 0.94051 0.49806 0.28178 0.0
H630 H 0.90206 0.52258 0.30846 0.0
H631 H 0.97341 0.57915 0.33975 0.0
H632 H 0.0124 0.5547 0.31342 0.0
H633 H 0.04961 0.55173 0.16868 0.0
H634 H 0.03 0.51501 0.1983 0.0
H635 H 0.07808 0.56425 0.25463 0.0
H636 H 0.09772 0.60145 0.22509 0.0
H637 H 0.01608 0.55329 0.26468 0.0
H638 H 0.10411 0.49392 0.2364 0.0
H639 H 0.13636 0.47025 0.20472 0.0
H640 H 0.05887 0.41551 0.18122 0.0
H641 H 0.02608 0.43908 0.21259 0.0
C642 C 0.96914 0.44414 0.33492 0.0
C643 C 0.94903 0.42187 0.32499 0.0
C644 C 0.98948 0.46068 0.32019 0.0
C645 C 0.98964 0.45569 0.29522 0.0
C646 C 0.9713 0.43186 0.28555 0.0
C647 C 0.95125 0.41502 0.30031 0.0
C648 C 0.00683 0.47684 0.27896 0.0
C649 C 0.0267 0.46413 0.26158 0.0
C650 C 0.0028 0.50942 0.27998 0.0
C651 C 0.97946 0.5242 0.29588 0.0
C652 C 0.94806 0.51553 0.2945 0.0
C653 C 0.92615 0.52946 0.30952 0.0
C654 C 0.93531 0.55234 0.32584 0.0
C655 C 0.96638 0.5614 0.32712 0.0
C656 C 0.9884 0.5475 0.31215 0.0
C657 C 0.05634 0.55465 0.18732 0.0
C658 C 0.07524 0.5796 0.1945 0.0
C659 C 0.04521 0.53351 0.20421 0.0
C660 C 0.05284 0.53677 0.2286 0.0
C661 C 0.07208 0.56129 0.23584 0.0
C662 C 0.08336 0.58244 0.21892 0.0
C663 C 0.03911 0.51564 0.24666 0.0
C664 C 0.01963 0.52839 0.26423 0.0
C665 C 0.04269 0.4831 0.24526 0.0
C666 C 0.06262 0.46837 0.22679 0.0
C667 C 0.09393 0.47691 0.22442 0.0
C668 C 0.11231 0.4635 0.20653 0.0
C669 C 0.09967 0.44141 0.19096 0.0
C670 C 0.06865 0.4326 0.1933 0.0
C671 C 0.05018 0.44592 0.21117 0.0
H672 H 0.11391 0.43111 0.17709 0.0
H673 H 0.91832 0.56312 0.33745 0.0
H674 H 0.923 0.02461 0.17011 0.0
H675 H 0.95795 0.00013 0.19866 0.0
H676 H 0.99089 0.09019 0.22117 0.0
H677 H 0.95403 0.11489 0.19362 0.0
H678 H 0.01428 0.99486 0.20456 0.0
H679 H 0.01473 0.09002 0.27716 0.0
H680 H 0.98078 0.13132 0.29299 0.0
H681 H 0.90041 0.08011 0.2706 0.0
H682 H 0.93395 0.03849 0.2547 0.0
H683 H 0.11454 0.93566 0.29306 0.0
H684 H 0.09179 0.97324 0.2653 0.0
H685 H 0.00635 0.97099 0.30558 0.0
H686 H 0.02913 0.93438 0.33377 0.0
H687 H 0.01497 0.0266 0.29032 0.0
H688 H 0.01761 0.92549 0.25537 0.0
H689 H 0.041 0.8766 0.24137 0.0
H690 H 0.09769 0.92697 0.19137 0.0
H691 H 0.07501 0.97628 0.20541 0.0
C692 C 0.93788 0.03921 0.181 0.0
C693 C 0.93582 0.07163 0.17971 0.0
C694 C 0.95792 0.02518 0.19734 0.0
C695 C 0.9769 0.04324 0.21237 0.0
C696 C 0.97592 0.07572 0.21027 0.0
C697 C 0.9551 0.08982 0.1944 0.0
C698 C 0.9969 0.02771 0.2305 0.0
C699 C 0.01455 0.002 0.22327 0.0
C700 C 0.99704 0.03657 0.25504 0.0
C701 C 0.9768 0.06146 0.26446 0.0
C702 C 0.98981 0.08764 0.27561 0.0
C703 C 0.97066 0.11108 0.28456 0.0
C704 C 0.93846 0.10841 0.28265 0.0
C705 C 0.92535 0.08224 0.27187 0.0
C706 C 0.9444 0.05878 0.26284 0.0
C707 C 0.09107 0.94355 0.29622 0.0
C708 C 0.07352 0.93172 0.31547 0.0
C709 C 0.07808 0.96497 0.2803 0.0
C710 C 0.04718 0.97448 0.2831 0.0
C711 C 0.03024 0.964 0.30304 0.0
C712 C 0.0433 0.94293 0.31912 0.0
C713 C 0.03155 0.99336 0.26443 0.0
C714 C 0.01503 0.01982 0.27152 0.0
C715 C 0.03099 0.98413 0.24 0.0
C716 C 0.04496 0.9546 0.23168 0.0
C717 C 0.03531 0.92617 0.24156 0.0
C718 C 0.04839 0.89838 0.2336 0.0
C719 C 0.07087 0.89868 0.21553 0.0
C720 C 0.08033 0.92678 0.2054 0.0
C721 C 0.06739 0.95467 0.21337 0.0
H722 H 0.08091 0.87712 0.20934 0.0
H723 H 0.92368 0.12656 0.28962 0.0
H724 H 0.55534 0.03452 0.32526 0.0
H725 H 0.52676 0.00533 0.29501 0.0
H726 H 0.50961 0.08968 0.25545 0.0
H727 H 0.53925 0.11897 0.28527 0.0
H728 H 0.47114 0.00392 0.28047 0.0
H729 H 0.50521 0.07611 0.1967 0.0
H730 H 0.54923 0.10709 0.18158 0.0
H731 H 0.61177 0.0554 0.22626 0.0
H732 H 0.56809 0.02413 0.24164 0.0
H733 H 0.3826 0.93988 0.18615 0.0
H734 H 0.40586 0.97771 0.21358 0.0
H735 H 0.49637 0.95668 0.18478 0.0
H736 H 0.47305 0.92051 0.15646 0.0
H737 H 0.49625 0.01309 0.19371 0.0
H738 H 0.46765 0.92418 0.24168 0.0
H739 H 0.43298 0.88432 0.25876 0.0
H740 H 0.37318 0.95523 0.28649 0.0
H741 H 0.40788 0.99556 0.27007 0.0
C742 C 0.5453 0.04697 0.31024 0.0
C743 C 0.54961 0.07911 0.30769 0.0
C744 C 0.52893 0.03021 0.29292 0.0
C745 C 0.5163 0.0452 0.27276 0.0
C746 C 0.51971 0.07746 0.27055 0.0
C747 C 0.53647 0.09422 0.28772 0.0
C748 C 0.49971 0.02688 0.25413 0.0
C749 C 0.4766 0.00603 0.26149 0.0
C750 C 0.50712 0.0291 0.22938 0.0
C751 C 0.53336 0.04814 0.22056 0.0
C752 C 0.52835 0.07145 0.20334 0.0
C753 C 0.55322 0.08906 0.19475 0.0
C754 C 0.58324 0.08335 0.2031 0.0
C755 C 0.58846 0.05998 0.22002 0.0
C756 C 0.56366 0.0424 0.22873 0.0
C757 C 0.40738 0.94378 0.18545 0.0
C758 C 0.42599 0.92728 0.16916 0.0
C759 C 0.42073 0.96516 0.20129 0.0
C760 C 0.45303 0.9696 0.2017 0.0
C761 C 0.47142 0.95382 0.18486 0.0
C762 C 0.45803 0.9331 0.16864 0.0
C763 C 0.46798 0.98974 0.22008 0.0
C764 C 0.49061 0.01114 0.21267 0.0
C765 C 0.46126 0.98692 0.24492 0.0
C766 C 0.4401 0.96281 0.25442 0.0
C767 C 0.44699 0.93123 0.25129 0.0
C768 C 0.42738 0.90858 0.26087 0.0
C769 C 0.40072 0.91721 0.27343 0.0
C770 C 0.39377 0.94857 0.27667 0.0
C771 C 0.41347 0.97134 0.26736 0.0
H772 H 0.38555 0.89961 0.28077 0.0
H773 H 0.60247 0.09693 0.19638 0.0
H774 H 0.52634 0.38202 0.1915 0.0
H775 H 0.48787 0.40821 0.21666 0.0
H776 H 0.50973 0.49513 0.18213 0.0
H777 H 0.54676 0.46914 0.15638 0.0
H778 H 0.49802 0.44874 0.24892 0.0
H779 H 0.45497 0.54653 0.18472 0.0
H780 H 0.442 0.5527 0.14177 0.0
H781 H 0.42127 0.45557 0.13668 0.0
H782 H 0.43377 0.44885 0.17965 0.0
H783 H 0.46559 0.58203 0.31306 0.0
H784 H 0.48322 0.54454 0.28334 0.0
H785 H 0.38883 0.53039 0.2599 0.0
H786 H 0.37119 0.56942 0.28897 0.0
H787 H 0.42495 0.53085 0.22271 0.0
H788 H 0.42721 0.47702 0.29756 0.0
H789 H 0.43964 0.47031 0.34057 0.0
H790 H 0.53686 0.47481 0.32456 0.0
H791 H 0.52505 0.482 0.28151 0.0
C792 C 0.52236 0.40657 0.18891 0.0
C793 C 0.53963 0.42346 0.17194 0.0
C794 C 0.50042 0.42152 0.20332 0.0
C795 C 0.49558 0.4536 0.20113 0.0
C796 C 0.51227 0.47025 0.18374 0.0
C797 C 0.53371 0.4553 0.1691 0.0
C798 C 0.47578 0.47047 0.21855 0.0
C799 C 0.48167 0.46634 0.24318 0.0
C800 C 0.45403 0.49313 0.21113 0.0
C801 C 0.4454 0.49718 0.18544 0.0
C802 C 0.44736 0.52653 0.17451 0.0
C803 C 0.44019 0.53011 0.15013 0.0
C804 C 0.43085 0.50454 0.1365 0.0
C805 C 0.42856 0.47535 0.14724 0.0
C806 C 0.43573 0.47164 0.1716 0.0
C807 C 0.44858 0.57092 0.30158 0.0
C808 C 0.417 0.57828 0.30346 0.0
C809 C 0.45865 0.54937 0.28469 0.0
C810 C 0.43725 0.53393 0.26988 0.0
C811 C 0.40571 0.54181 0.2713 0.0
C812 C 0.39567 0.56402 0.28788 0.0
C813 C 0.44816 0.50981 0.2529 0.0
C814 C 0.44064 0.51265 0.22843 0.0
C815 C 0.46795 0.48552 0.26048 0.0
C816 C 0.47521 0.48013 0.28628 0.0
C817 C 0.45124 0.47662 0.30321 0.0
C818 C 0.45818 0.47276 0.3276 0.0
C819 C 0.48901 0.47217 0.33527 0.0
C820 C 0.51299 0.47525 0.31857 0.0
C821 C 0.50618 0.47915 0.29416 0.0
H822 H 0.49431 0.46936 0.35416 0.0
H823 H 0.42539 0.50735 0.11762 0.0
H824 H 0.11088 0.5867 0.72517 0.0
H825 H 0.0771 0.56171 0.75473 0.0
H826 H 0.01214 0.53851 0.69852 0.0
H827 H 0.04615 0.56286 0.6687 0.0
H828 H 0.98452 0.56088 0.74253 0.0
H829 H 0.05824 0.48752 0.71336 0.0
H830 H 0.10941 0.46535 0.70402 0.0
H831 H 0.13286 0.46542 0.77905 0.0
H832 H 0.0824 0.48905 0.7888 0.0
H833 H 0.90339 0.435 0.79802 0.0
H834 H 0.93153 0.47024 0.77148 0.0
H835 H 0.00128 0.4834 0.82617 0.0
H836 H 0.97351 0.44813 0.85283 0.0
H837 H 0.02613 0.46737 0.78321 0.0
H838 H 0.95213 0.54135 0.81229 0.0
H839 H 0.89993 0.5614 0.82133 0.0
H840 H 0.87605 0.55702 0.7464 0.0
H841 H 0.928 0.53652 0.73695 0.0
C842 C 0.08912 0.57682 0.71916 0.0
C843 C 0.08112 0.57668 0.69463 0.0
C844 C 0.06996 0.56244 0.73604 0.0
C845 C 0.04232 0.54815 0.7287 0.0
C846 C 0.03343 0.54944 0.70445 0.0
C847 C 0.05287 0.56328 0.68748 0.0
C848 C 0.02362 0.53025 0.74607 0.0
C849 C 0.99347 0.54031 0.75133 0.0
C850 C 0.03565 0.50367 0.7577 0.0
C851 C 0.06663 0.49065 0.75177 0.0
C852 C 0.07454 0.48353 0.72784 0.0
C853 C 0.10344 0.47064 0.72247 0.0
C854 C 0.12445 0.46417 0.74092 0.0
C855 C 0.11666 0.4707 0.76476 0.0
C856 C 0.08796 0.48399 0.77021 0.0
C857 C 0.92438 0.44583 0.80463 0.0
C858 C 0.9362 0.43862 0.82757 0.0
C859 C 0.94043 0.46601 0.78942 0.0
C860 C 0.96845 0.47945 0.79691 0.0
C861 C 0.97972 0.47318 0.82006 0.0
C862 C 0.96372 0.45306 0.83528 0.0
C863 C 0.98716 0.49826 0.78003 0.0
C864 C 0.01729 0.4882 0.77468 0.0
C865 C 0.97511 0.52475 0.76832 0.0
C866 C 0.94387 0.53712 0.77394 0.0
C867 C 0.93567 0.54441 0.79776 0.0
C868 C 0.90614 0.55591 0.80296 0.0
C869 C 0.88466 0.56041 0.78446 0.0
C870 C 0.8927 0.55349 0.76072 0.0
C871 C 0.9222 0.54196 0.75543 0.0
H872 H 0.86182 0.56931 0.78852 0.0
H873 H 0.14667 0.45388 0.73675 0.0
H874 H 0.0407 0.88507 0.79824 0.0
H875 H 0.00253 0.90977 0.77186 0.0
H876 H 0.03218 -0.00026 0.79707 0.0
H877 H 0.06879 0.97515 0.82435 0.0
H878 H 0.97453 0.00237 0.79144 0.0
H879 H 0.0581 0.96586 0.74029 0.0
H880 H 0.09349 0.92656 0.72328 0.0
H881 H 0.01553 0.87325 0.69881 0.0
H882 H 0.97974 0.91222 0.71572 0.0
H883 H 0.96312 0.06595 0.66156 0.0
H884 H 0.98567 0.03135 0.69114 0.0
H885 H 0.8989 0.02901 0.72976 0.0
H886 H 0.87654 0.06527 0.70069 0.0
H887 H 0.97769 0.97677 0.70451 0.0
H888 H 0.90882 0.01688 0.78651 0.0
H889 H 0.88292 0.06355 0.80256 0.0
H890 H 0.94669 0.1216 0.76401 0.0
H891 H 0.97287 0.07515 0.74772 0.0
C892 C 0.03874 0.91009 0.7983 0.0
C893 C 0.0577 0.9282 0.81331 0.0
C894 C 0.01708 0.92421 0.78312 0.0
C895 C 0.01478 0.9567 0.78212 0.0
C896 C 0.0333 0.97466 0.79755 0.0
C897 C 0.05431 0.96057 0.81313 0.0
C898 C 0.9942 0.97234 0.76446 0.0
C899 C 0.9751 0.9966 0.77244 0.0
C900 C 0.99496 0.96513 0.73962 0.0
C901 C 0.01633 0.94165 0.72954 0.0
C902 C 0.04858 0.9456 0.73145 0.0
C903 C 0.06868 0.92345 0.72181 0.0
C904 C 0.05676 0.89735 0.71013 0.0
C905 C 0.02472 0.89343 0.70794 0.0
C906 C 0.00453 0.91556 0.7175 0.0
C907 C 0.94865 0.05799 0.67623 0.0
C908 C 0.91802 0.06856 0.6788 0.0
C909 C 0.96162 0.03807 0.69317 0.0
C910 C 0.94419 0.02776 0.71293 0.0
C911 C 0.91313 0.03722 0.71504 0.0
C912 C 0.90027 0.05775 0.69829 0.0
C913 C 0.95916 0.00774 0.73134 0.0
C914 C 0.9768 0.98231 0.72354 0.0
C915 C 0.95825 0.01484 0.75619 0.0
C916 C 0.94237 0.04269 0.7656 0.0
C917 C 0.91717 0.03963 0.7814 0.0
C918 C 0.90246 0.066 0.7905 0.0
C919 C 0.913 0.09552 0.78412 0.0
C920 C 0.93834 0.09873 0.76868 0.0
C921 C 0.95303 0.07242 0.75944 0.0
H922 H 0.90165 0.11591 0.79125 0.0
H923 H 0.07236 0.88022 0.70268 0.0
H924 H 0.61462 0.02581 0.8218 0.0
H925 H 0.58859 0.98868 0.79526 0.0
H926 H 0.50048 0.03112 0.8116 0.0
H927 H 0.52607 0.0669 0.83903 0.0
H928 H 0.49106 0.97378 0.80716 0.0
H929 H 0.54614 0.04916 0.75926 0.0
H930 H 0.59166 0.07831 0.74465 0.0
H931 H 0.63527 0.99327 0.72332 0.0
H932 H 0.59007 0.96362 0.73789 0.0
H933 H 0.44715 0.951 0.67242 0.0
H934 H 0.47653 0.9767 0.70402 0.0
H935 H 0.47061 0.89446 0.74797 0.0
H936 H 0.44012 0.86883 0.71668 0.0
H937 H 0.5293 0.96769 0.72319 0.0
H938 H 0.47097 0.91125 0.8051 0.0
H939 H 0.42002 0.8909 0.81781 0.0
H940 H 0.37447 0.9524 0.76847 0.0
H941 H 0.42523 0.97283 0.75528 0.0
C942 C 0.58964 0.02679 0.82002 0.0
C943 C 0.5724 0.0493 0.83244 0.0
C944 C 0.5748 0.00573 0.80472 0.0
C945 C 0.54261 0.00749 0.80097 0.0
C946 C 0.5253 0.02918 0.81415 0.0
C947 C 0.54 0.04968 0.82986 0.0
C948 C 0.52692 0.98805 0.78252 0.0
C949 C 0.49958 0.97233 0.78884 0.0
C950 C 0.53762 0.98643 0.75846 0.0
C951 C 0.5649 0.00419 0.74991 0.0
C952 C 0.56553 0.0367 0.7516 0.0
C953 C 0.59123 0.0533 0.74331 0.0
C954 C 0.61637 0.03765 0.73318 0.0
C955 C 0.61581 0.00536 0.73123 0.0
C956 C 0.59015 0.98865 0.73947 0.0
C957 C 0.45216 0.93822 0.68874 0.0
C958 C 0.44117 0.90781 0.69198 0.0
C959 C 0.46903 0.953 0.70683 0.0
C960 C 0.47554 0.9377 0.72853 0.0
C961 C 0.46532 0.90703 0.73161 0.0
C962 C 0.44809 0.8923 0.7136 0.0
C963 C 0.49314 0.95401 0.74772 0.0
C964 C 0.52098 0.9689 0.74158 0.0
C965 C 0.48225 0.95595 0.77167 0.0
C966 C 0.45181 0.9432 0.77899 0.0
C967 C 0.45006 0.92026 0.79688 0.0
C968 C 0.42126 0.90869 0.80411 0.0
C969 C 0.39405 0.92016 0.79377 0.0
C970 C 0.39559 0.94325 0.77618 0.0
C971 C 0.42435 0.95472 0.76875 0.0
H972 H 0.37176 0.91129 0.79948 0.0
H973 H 0.63624 0.05055 0.72677 0.0
H974 H 0.60514 0.45344 0.68779 0.0
H975 H 0.57644 0.48616 0.71597 0.0
H976 H 0.49022 0.45601 0.68436 0.0
H977 H 0.5186 0.42327 0.65611 0.0
H978 H 0.53462 0.53487 0.70764 0.0
H979 H 0.44085 0.44526 0.72693 0.0
H980 H 0.4337 0.38869 0.73112 0.0
H981 H 0.52802 0.37933 0.75474 0.0
H982 H 0.53594 0.43567 0.74997 0.0
H983 H 0.40853 0.60411 0.77372 0.0
H984 H 0.44142 0.57762 0.74433 0.0
H985 H 0.48085 0.52191 0.80105 0.0
H986 H 0.44805 0.54785 0.8304 0.0
H987 H 0.46071 0.48668 0.76487 0.0
H988 H 0.52276 0.57877 0.77412 0.0
H989 H 0.53259 0.63509 0.7741 0.0
H990 H 0.50723 0.63996 0.69949 0.0
H991 H 0.49685 0.5837 0.69915 0.0
C992 C 0.58008 0.45388 0.68674 0.0
C993 C 0.56416 0.43577 0.66969 0.0
C994 C 0.56376 0.47263 0.70281 0.0
C995 C 0.53128 0.4733 0.70228 0.0
C996 C 0.51531 0.45559 0.68513 0.0
C997 C 0.53159 0.43705 0.66892 0.0
C998 C 0.51403 0.4922 0.7199 0.0
C999 C 0.5184 0.52443 0.72016 0.0
C1000 C 0.49313 0.47849 0.73628 0.0
C1001 C 0.48901 0.44451 0.73792 0.0
C1002 C 0.4601 0.43103 0.73281 0.0
C1003 C 0.45595 0.39902 0.73521 0.0
C1004 C 0.48044 0.3804 0.74307 0.0
C1005 C 0.50916 0.39374 0.74845 0.0
C1006 C 0.51358 0.42564 0.74568 0.0
C1007 C 0.42457 0.58657 0.77999 0.0
C1008 C 0.42547 0.57792 0.80438 0.0
C1009 C 0.44335 0.57149 0.76317 0.0
C1010 C 0.46347 0.54777 0.77055 0.0
C1011 C 0.46529 0.54001 0.79499 0.0
C1012 C 0.44653 0.55492 0.81174 0.0
C1013 C 0.48127 0.52951 0.75279 0.0
C1014 C 0.4768 0.4973 0.75234 0.0
C1015 C 0.50238 0.54331 0.73653 0.0
C1016 C 0.50874 0.57709 0.73668 0.0
C1017 C 0.51904 0.5919 0.75776 0.0
C1018 C 0.52476 0.6238 0.7578 0.0
C1019 C 0.52046 0.64111 0.73682 0.0
C1020 C 0.51051 0.62653 0.71574 0.0
C1021 C 0.50474 0.59463 0.7156 0.0
H1022 H 0.5249 0.6658 0.73689 0.0
H1023 H 0.47716 0.35566 0.74505 0.0
H1024 H 0.99666 0.67298 0.16051 0.0
H1025 H 0.96265 0.69658 0.19043 0.0
H1026 H 0.02758 0.77209 0.19858 0.0
H1027 H 0.06084 0.7492 0.16849 0.0
H1028 H 0.9834 0.6946 0.23247 0.0
H1029 H 0.00662 0.82991 0.22867 0.0
H1030 H 0.99708 0.87277 0.2004 0.0
H1031 H 0.92742 0.81875 0.16449 0.0
H1032 H 0.93608 0.77567 0.1928 0.0
H1033 H 0.08091 0.76107 0.31168 0.0
H1034 H 0.04589 0.73653 0.28317 0.0
H1035 H 0.97139 0.79567 0.30702 0.0
H1036 H 0.00649 0.82041 0.33578 0.0
H1037 H 0.98108 0.80334 0.26095 0.0
H1038 H 0.95922 0.71708 0.30728 0.0
H1039 H 0.96578 0.67349 0.33548 0.0
H1040 H 0.02826 0.62921 0.28626 0.0
H1041 H 0.0227 0.67274 0.25797 0.0
C1042 C 0.00283 0.69547 0.16775 0.0
C1043 C 0.03193 0.70876 0.1628 0.0
C1044 C 0.98332 0.70894 0.18492 0.0
C1045 C 0.99267 0.73585 0.19722 0.0
C1046 C 0.01945 0.75148 0.18941 0.0
C1047 C 0.03883 0.73812 0.17229 0.0
C1048 C 0.98083 0.7426 0.22179 0.0
C1049 C 0.98223 0.71837 0.23869 0.0
C1050 C 0.97726 0.7734 0.23007 0.0
C1051 C 0.97191 0.79948 0.21304 0.0
C1052 C 0.98898 0.82722 0.21496 0.0
C1053 C 0.98381 0.85155 0.19885 0.0
C1054 C 0.96164 0.8485 0.18069 0.0
C1055 C 0.9446 0.82108 0.17857 0.0
C1056 C 0.94967 0.79666 0.19463 0.0
C1057 C 0.05683 0.76815 0.31148 0.0
C1058 C 0.04665 0.79302 0.3257 0.0
C1059 C 0.03665 0.75388 0.29529 0.0
C1060 C 0.00592 0.76425 0.29292 0.0
C1061 C 0.99495 0.78723 0.3086 0.0
C1062 C 0.01509 0.80132 0.32504 0.0
C1063 C 0.98836 0.75567 0.27095 0.0
C1064 C 0.98099 0.77952 0.25472 0.0
C1065 C 0.98629 0.72451 0.26328 0.0
C1066 C 0.99039 0.6983 0.2804 0.0
C1067 C 0.97455 0.69818 0.30251 0.0
C1068 C 0.97809 0.67344 0.31853 0.0
C1069 C 0.9974 0.6486 0.31265 0.0
C1070 C 0.01326 0.64845 0.29076 0.0
C1071 C 0.00986 0.67315 0.2747 0.0
H1072 H 0.00012 0.62948 0.32507 0.0
H1073 H 0.95768 0.86737 0.16823 0.0
H1074 H 0.76096 0.09234 0.1702 0.0
H1075 H 0.73341 0.0674 0.20315 0.0
H1076 H 0.79787 0.9911 0.20126 0.0
H1077 H 0.82543 0.01587 0.16796 0.0
H1078 H 0.70904 0.00958 0.22286 0.0
H1079 H 0.82879 0.9927 0.25256 0.0
H1080 H 0.88236 0.00469 0.23972 0.0
H1081 H 0.85368 0.09553 0.2174 0.0
H1082 H 0.80009 0.08411 0.23033 0.0
H1083 H 0.67053 0.03735 0.34277 0.0
H1084 H 0.70366 0.00768 0.31563 0.0
H1085 H 0.74255 0.09279 0.28828 0.0
H1086 H 0.70981 0.12257 0.31533 0.0
H1087 H 0.78411 0.04361 0.28533 0.0
H1088 H 0.67291 0.06721 0.2673 0.0
H1089 H 0.6177 0.06113 0.2781 0.0
H1090 H 0.627 0.96213 0.27473 0.0
H1091 H 0.68243 0.96768 0.26444 0.0
C1092 C 0.76832 0.06952 0.176 0.0
C1093 C 0.79569 0.05638 0.16701 0.0
C1094 C 0.75241 0.05512 0.1947 0.0
C1095 C 0.76401 0.02772 0.2049 0.0
C1096 C 0.78865 0.01228 0.19363 0.0
C1097 C 0.8044 0.02654 0.17463 0.0
C1098 C 0.7565 0.02164 0.23038 0.0
C1099 C 0.72567 0.01562 0.23675 0.0
C1100 C 0.77817 0.0298 0.24845 0.0
C1101 C 0.81064 0.03758 0.24241 0.0
C1102 C 0.83408 0.01532 0.24515 0.0
C1103 C 0.86436 0.02197 0.23778 0.0
C1104 C 0.87135 0.05081 0.22769 0.0
C1105 C 0.84821 0.07321 0.22521 0.0
C1106 C 0.81794 0.06671 0.23263 0.0
C1107 C 0.68699 0.04975 0.33166 0.0
C1108 C 0.68686 0.0824 0.33063 0.0
C1109 C 0.70596 0.03268 0.31619 0.0
C1110 C 0.725 0.04808 0.29962 0.0
C1111 C 0.72787 0.08045 0.30087 0.0
C1112 C 0.70891 0.0975 0.31622 0.0
C1113 C 0.73644 0.03228 0.27777 0.0
C1114 C 0.76795 0.03485 0.27199 0.0
C1115 C 0.71532 0.02101 0.26027 0.0
C1116 C 0.68177 0.01783 0.26535 0.0
C1117 C 0.66315 0.04416 0.26892 0.0
C1118 C 0.63189 0.04082 0.27505 0.0
C1119 C 0.61892 0.01126 0.2772 0.0
C1120 C 0.63713 0.985 0.27313 0.0
C1121 C 0.66846 0.98822 0.2672 0.0
H1122 H 0.59474 0.00869 0.28194 0.0
H1123 H 0.89473 0.05587 0.22188 0.0
H1124 H 0.47768 0.67343 0.32447 0.0
H1125 H 0.50353 0.7069 0.29614 0.0
H1126 H 0.45473 0.78595 0.32537 0.0
H1127 H 0.42598 0.75112 0.35197 0.0
H1128 H 0.44111 0.78684 0.28494 0.0
H1129 H 0.54089 0.78225 0.31304 0.0
H1130 H 0.5893 0.76398 0.33177 0.0
H1131 H 0.60256 0.69927 0.27404 0.0
H1132 H 0.55399 0.7167 0.25511 0.0
H1133 H 0.42297 0.7551 0.17361 0.0
H1134 H 0.44892 0.74113 0.21101 0.0
H1135 H 0.51322 0.81667 0.20165 0.0
H1136 H 0.48797 0.83021 0.16371 0.0
H1137 H 0.53325 0.76219 0.23519 0.0
H1138 H 0.40108 0.77066 0.25178 0.0
H1139 H 0.35602 0.79666 0.23331 0.0
H1140 H 0.41527 0.8689 0.20663 0.0
H1141 H 0.46049 0.84359 0.2252 0.0
C1142 C 0.4734 0.69815 0.32551 0.0
C1143 C 0.44945 0.70973 0.33994 0.0
C1144 C 0.48859 0.7176 0.30935 0.0
C1145 C 0.48095 0.74927 0.30803 0.0
C1146 C 0.46056 0.76154 0.32541 0.0
C1147 C 0.44421 0.74174 0.34076 0.0
C1148 C 0.48703 0.76648 0.2852 0.0
C1149 C 0.46187 0.7821 0.27463 0.0
C1150 C 0.51434 0.76185 0.27135 0.0
C1151 C 0.54366 0.7509 0.2826 0.0
C1152 C 0.55398 0.76398 0.30437 0.0
C1153 C 0.5815 0.75378 0.31503 0.0
C1154 C 0.599 0.7305 0.30409 0.0
C1155 C 0.58901 0.71737 0.28246 0.0
C1156 C 0.56151 0.72749 0.27171 0.0
C1157 C 0.44376 0.76756 0.17876 0.0
C1158 C 0.45301 0.79413 0.16614 0.0
C1159 C 0.45868 0.75952 0.20009 0.0
C1160 C 0.48243 0.77842 0.20928 0.0
C1161 C 0.49491 0.80188 0.19482 0.0
C1162 C 0.48032 0.80961 0.17315 0.0
C1163 C 0.48659 0.77942 0.23562 0.0
C1164 C 0.51345 0.76766 0.24639 0.0
C1165 C 0.46164 0.7892 0.25017 0.0
C1166 C 0.4342 0.80509 0.23973 0.0
C1167 C 0.40443 0.7922 0.24211 0.0
C1168 C 0.37886 0.80678 0.23157 0.0
C1169 C 0.38278 0.83434 0.21869 0.0
C1170 C 0.41225 0.84743 0.21642 0.0
C1171 C 0.43786 0.83295 0.22693 0.0
H1172 H 0.36298 0.84557 0.21052 0.0
H1173 H 0.6203 0.72263 0.31238 0.0
H1174 H 0.69751 0.46522 0.1477 0.0
H1175 H 0.73239 0.49621 0.17349 0.0
H1176 H 0.69731 0.44852 0.23602 0.0
H1177 H 0.66359 0.41733 0.21067 0.0
H1178 H 0.70512 0.51601 0.24144 0.0
H1179 H 0.75775 0.42001 0.21088 0.0
H1180 H 0.77925 0.38981 0.17719 0.0
H1181 H 0.83613 0.46715 0.15677 0.0
H1182 H 0.81434 0.49809 0.19012 0.0
H1183 H 0.77275 0.42445 0.3246 0.0
H1184 H 0.7483 0.45508 0.29283 0.0
H1185 H 0.831 0.51073 0.28639 0.0
H1186 H 0.85506 0.48095 0.31914 0.0
H1187 H 0.81168 0.47324 0.24436 0.0
H1188 H 0.77575 0.55373 0.29123 0.0
H1189 H 0.75432 0.58194 0.32595 0.0
H1190 H 0.66706 0.53554 0.31672 0.0
H1191 H 0.68803 0.50657 0.28223 0.0
C1192 C 0.69727 0.46163 0.16698 0.0
C1193 C 0.67827 0.43863 0.17723 0.0
C1194 C 0.71693 0.47943 0.18162 0.0
C1195 C 0.71701 0.47487 0.20663 0.0
C1196 C 0.69723 0.45267 0.21679 0.0
C1197 C 0.67832 0.43455 0.20225 0.0
C1198 C 0.73987 0.4898 0.22263 0.0
C1199 C 0.72872 0.50742 0.242 0.0
C1200 C 0.77108 0.47996 0.22262 0.0
C1201 C 0.78413 0.46144 0.20268 0.0
C1202 C 0.77464 0.43064 0.19906 0.0
C1203 C 0.7869 0.41338 0.18006 0.0
C1204 C 0.80902 0.42653 0.16481 0.0
C1205 C 0.81892 0.45702 0.16854 0.0
C1206 C 0.80657 0.47446 0.18745 0.0
C1207 C 0.78516 0.44402 0.31707 0.0
C1208 C 0.81561 0.45048 0.32422 0.0
C1209 C 0.77122 0.4616 0.29904 0.0
C1210 C 0.78784 0.48528 0.28743 0.0
C1211 C 0.81771 0.49287 0.2954 0.0
C1212 C 0.83135 0.47587 0.31405 0.0
C1213 C 0.77585 0.49677 0.26422 0.0
C1214 C 0.78898 0.484 0.24339 0.0
C1215 C 0.7465 0.5111 0.26297 0.0
C1216 C 0.73354 0.52797 0.284 0.0
C1217 C 0.75205 0.54932 0.29668 0.0
C1218 C 0.73996 0.5655 0.31633 0.0
C1219 C 0.70934 0.56057 0.32352 0.0
C1220 C 0.69076 0.5394 0.31109 0.0
C1221 C 0.70273 0.52313 0.29143 0.0
H1222 H 0.70001 0.57314 0.33872 0.0
H1223 H 0.81853 0.41308 0.15013 0.0
H1224 H 0.98304 0.18097 0.65301 0.0
H1225 H 0.01213 0.20919 0.68376 0.0
H1226 H 0.93238 0.26684 0.69723 0.0
H1227 H 0.90352 0.23931 0.66637 0.0
H1228 H 0.98647 0.29597 0.71111 0.0
H1229 H 0.93333 0.19362 0.72141 0.0
H1230 H 0.92854 0.13919 0.70808 0.0
H1231 H 0.02504 0.12431 0.72306 0.0
H1232 H 0.03045 0.17883 0.73608 0.0
H1233 H 0.90766 0.26901 0.82243 0.0
H1234 H 0.93288 0.2443 0.78834 0.0
H1235 H 0.01509 0.29908 0.80068 0.0
H1236 H 0.98981 0.32414 0.83493 0.0
H1237 H 0.98527 0.21372 0.77361 0.0
H1238 H 0.03262 0.32981 0.7452 0.0
H1239 H 0.02957 0.38519 0.75636 0.0
H1240 H 0.93473 0.37316 0.77784 0.0
H1241 H 0.93714 0.31788 0.76644 0.0
C1242 C 0.97218 0.20062 0.66171 0.0
C1243 C 0.94058 0.20719 0.65799 0.0
C1244 C 0.98891 0.21678 0.67927 0.0
C1245 C 0.97409 0.23943 0.69327 0.0
C1246 C 0.94421 0.24922 0.68682 0.0
C1247 C 0.92755 0.23319 0.66932 0.0
C1248 C 0.98511 0.24683 0.71783 0.0
C1249 C 0.98748 0.278 0.72475 0.0
C1250 C 0.98603 0.22338 0.73568 0.0
C1251 C 0.98234 0.1902 0.72953 0.0
C1252 C 0.95346 0.17865 0.72193 0.0
C1253 C 0.95068 0.14789 0.71429 0.0
C1254 C 0.97653 0.12842 0.71455 0.0
C1255 C 0.0051 0.13951 0.72274 0.0
C1256 C 0.00805 0.17032 0.73023 0.0
C1257 C 0.93149 0.27502 0.81844 0.0
C1258 C 0.94648 0.29902 0.83093 0.0
C1259 C 0.94601 0.26073 0.79903 0.0
C1260 C 0.97562 0.27036 0.79171 0.0
C1261 C 0.99212 0.29157 0.80595 0.0
C1262 C 0.97762 0.30581 0.82554 0.0
C1263 C 0.98558 0.2629 0.76693 0.0
C1264 C 0.98676 0.23169 0.75999 0.0
C1265 C 0.98728 0.28637 0.74911 0.0
C1266 C 0.98521 0.31974 0.75524 0.0
C1267 C 0.01111 0.33907 0.75221 0.0
C1268 C 0.00948 0.37041 0.75857 0.0
C1269 C 0.98201 0.38266 0.76788 0.0
C1270 C 0.95601 0.36364 0.77067 0.0
C1271 C 0.95748 0.33233 0.76423 0.0
H1272 H 0.98085 0.40688 0.77289 0.0
H1273 H 0.9744 0.10468 0.70856 0.0
H1274 H 0.32704 0.96047 0.65057 0.0
H1275 H 0.29518 0.99132 0.67783 0.0
H1276 H 0.24761 0.90846 0.70071 0.0
H1277 H 0.27894 0.87758 0.67347 0.0
H1278 H 0.21112 0.9605 0.70655 0.0
H1279 H 0.31925 0.92523 0.72368 0.0
H1280 H 0.37482 0.92634 0.71307 0.0
H1281 H 0.37549 0.0255 0.71981 0.0
H1282 H 0.31975 0.02496 0.72998 0.0
H1283 H 0.23271 0.90192 0.8202 0.0
H1284 H 0.2611 0.92691 0.78773 0.0
H1285 H 0.20131 0.00671 0.79277 0.0
H1286 H 0.17282 0.9818 0.82554 0.0
H1287 H 0.28901 0.98294 0.77008 0.0
H1288 H 0.1706 0.01158 0.7406 0.0
H1289 H 0.1164 0.00342 0.75363 0.0
H1290 H 0.13817 0.91004 0.77431 0.0
H1291 H 0.19231 0.91759 0.76109 0.0
C1292 C 0.3089 0.94895 0.66063 0.0
C1293 C 0.30627 0.91639 0.66054 0.0
C1294 C 0.29064 0.96671 0.67617 0.0
C1295 C 0.26968 0.95205 0.69174 0.0
C1296 C 0.26386 0.92023 0.68899 0.0
C1297 C 0.28204 0.9025 0.67352 0.0
C1298 C 0.25961 0.96707 0.71434 0.0
C1299 C 0.22801 0.96677 0.72019 0.0
C1300 C 0.28167 0.97496 0.73228 0.0
C1301 C 0.31539 0.9751 0.72732 0.0
C1302 C 0.33129 0.94725 0.72285 0.0
C1303 C 0.36273 0.94778 0.71678 0.0
C1304 C 0.37859 0.976 0.71559 0.0
C1305 C 0.36311 0.00369 0.72062 0.0
C1306 C 0.3316 0.00329 0.72648 0.0
C1307 C 0.22653 0.92538 0.81516 0.0
C1308 C 0.20012 0.9396 0.82487 0.0
C1309 C 0.24295 0.9398 0.79673 0.0
C1310 C 0.23285 0.96836 0.78755 0.0
C1311 C 0.20932 0.98459 0.79958 0.0
C1312 C 0.19304 0.97027 0.81827 0.0
C1313 C 0.24068 0.97561 0.7623 0.0
C1314 C 0.27188 0.97947 0.75603 0.0
C1315 C 0.21832 0.9707 0.74401 0.0
C1316 C 0.18533 0.96516 0.7499 0.0
C1317 C 0.16365 0.98922 0.74765 0.0
C1318 C 0.13302 0.98474 0.75515 0.0
C1319 C 0.12393 0.95628 0.76491 0.0
C1320 C 0.14527 0.93207 0.76678 0.0
C1321 C 0.17586 0.93639 0.7592 0.0
H1322 H 0.10033 0.95296 0.77096 0.0
H1323 H 0.40291 0.97642 0.71094 0.0
H1324 H 0.52839 0.17413 0.83019 0.0
H1325 H 0.50597 0.20234 0.7961 0.0
H1326 H 0.59607 0.24016 0.77951 0.0
H1327 H 0.61847 0.21236 0.81337 0.0
H1328 H 0.54867 0.28118 0.76915 0.0
H1329 H 0.57319 0.16862 0.75927 0.0
H1330 H 0.56222 0.11446 0.77079 0.0
H1331 H 0.4672 0.12561 0.74947 0.0
H1332 H 0.47743 0.18016 0.73854 0.0
H1333 H 0.62277 0.27716 0.66701 0.0
H1334 H 0.59856 0.24604 0.69828 0.0
H1335 H 0.50813 0.2742 0.67373 0.0
H1336 H 0.53207 0.30566 0.64227 0.0
H1337 H 0.52907 0.204 0.70458 0.0
H1338 H 0.50996 0.31724 0.70634 0.0
H1339 H 0.52698 0.36956 0.69412 0.0
H1340 H 0.61324 0.35645 0.73129 0.0
H1341 H 0.59723 0.30359 0.74288 0.0
C1342 C 0.54319 0.18928 0.81973 0.0
C1343 C 0.57533 0.19059 0.8241 0.0
C1344 C 0.53032 0.20533 0.80028 0.0
C1345 C 0.54947 0.22291 0.78513 0.0
C1346 C 0.5809 0.22666 0.79098 0.0
C1347 C 0.59375 0.21055 0.81023 0.0
C1348 C 0.53899 0.23331 0.76116 0.0
C1349 C 0.54318 0.26455 0.75513 0.0
C1350 C 0.53157 0.2116 0.74288 0.0
C1351 C 0.52598 0.17846 0.74831 0.0
C1352 C 0.54997 0.15949 0.75706 0.0
C1353 C 0.54387 0.12876 0.76352 0.0
C1354 C 0.51405 0.11658 0.76082 0.0
C1355 C 0.49028 0.13509 0.75158 0.0
C1356 C 0.49618 0.16593 0.74532 0.0
C1357 C 0.59771 0.27578 0.66754 0.0
C1358 C 0.57939 0.29478 0.65276 0.0
C1359 C 0.58388 0.25771 0.6853 0.0
C1360 C 0.55167 0.25846 0.6885 0.0
C1361 C 0.53306 0.27351 0.6715 0.0
C1362 C 0.54688 0.29163 0.65361 0.0
C1363 C 0.5397 0.25161 0.71272 0.0
C1364 C 0.53198 0.22106 0.71874 0.0
C1365 C 0.54356 0.27401 0.73108 0.0
C1366 C 0.55246 0.30642 0.72534 0.0
C1367 C 0.53265 0.32544 0.71174 0.0
C1368 C 0.5422 0.3551 0.70479 0.0
C1369 C 0.5712 0.36627 0.71189 0.0
C1370 C 0.59078 0.34775 0.72582 0.0
C1371 C 0.58152 0.31791 0.73251 0.0
H1372 H 0.57845 0.38933 0.70677 0.0
H1373 H 0.50931 0.09285 0.76593 0.0
H1374 H 0.26005 0.59115 0.81779 0.0
H1375 H 0.23103 0.55685 0.79182 0.0
H1376 H 0.28361 0.47868 0.81794 0.0
H1377 H 0.31336 0.51334 0.84397 0.0
H1378 H 0.29161 0.48327 0.77271 0.0
H1379 H 0.20089 0.47592 0.81742 0.0
H1380 H 0.15732 0.49017 0.84384 0.0
H1381 H 0.12486 0.55534 0.79121 0.0
H1382 H 0.16843 0.542 0.76465 0.0
H1383 H 0.16895 0.50313 0.66707 0.0
H1384 H 0.18801 0.47072 0.69984 0.0
H1385 H 0.26624 0.53208 0.70879 0.0
H1386 H 0.24732 0.56444 0.67623 0.0
H1387 H 0.18529 0.49837 0.74128 0.0
H1388 H 0.32208 0.50424 0.74031 0.0
H1389 H 0.36447 0.48812 0.7135 0.0
H1390 H 0.30393 0.42312 0.67859 0.0
H1391 H 0.26121 0.43837 0.70549 0.0
C1392 C 0.26472 0.56655 0.8188 0.0
C1393 C 0.28957 0.55518 0.83253 0.0
C1394 C 0.24777 0.54671 0.80403 0.0
C1395 C 0.25512 0.51502 0.80278 0.0
C1396 C 0.27755 0.50303 0.81855 0.0
C1397 C 0.29457 0.52295 0.83342 0.0
C1398 C 0.24493 0.49721 0.78132 0.0
C1399 C 0.26819 0.48587 0.76595 0.0
C1400 C 0.21407 0.4989 0.77284 0.0
C1401 C 0.18802 0.50777 0.78895 0.0
C1402 C 0.18462 0.49347 0.81153 0.0
C1403 C 0.15987 0.50139 0.82654 0.0
C1404 C 0.13833 0.52364 0.81921 0.0
C1405 C 0.14156 0.53811 0.79688 0.0
C1406 C 0.16625 0.53029 0.7818 0.0
C1407 C 0.19108 0.50884 0.67518 0.0
C1408 C 0.20628 0.53681 0.66955 0.0
C1409 C 0.20193 0.49021 0.69395 0.0
C1410 C 0.22834 0.49909 0.70701 0.0
C1411 C 0.24593 0.52449 0.69894 0.0
C1412 C 0.23495 0.54324 0.68039 0.0
C1413 C 0.23276 0.4885 0.73215 0.0
C1414 C 0.20838 0.49424 0.74826 0.0
C1415 C 0.26254 0.48167 0.74129 0.0
C1416 C 0.28834 0.47241 0.72507 0.0
C1417 C 0.3178 0.48626 0.72712 0.0
C1418 C 0.34191 0.47733 0.71184 0.0
C1419 C 0.3369 0.4546 0.69437 0.0
C1420 C 0.30776 0.44075 0.69213 0.0
C1421 C 0.28357 0.44956 0.70738 0.0
H1422 H 0.3556 0.44773 0.68255 0.0
H1423 H 0.11914 0.52965 0.83082 0.0
H1424 H 0.00418 0.56649 0.09108 0.0
H1425 H 0.99231 0.52712 0.06061 0.0
H1426 H 0.08991 0.51553 0.04651 0.0
H1427 H 0.10201 0.55443 0.07696 0.0
H1428 H 0.05359 0.52631 0.00519 0.0
H1429 H 0.05656 0.4598 0.07362 0.0
H1430 H 0.04393 0.44323 0.1149 0.0
H1431 H 0.94758 0.43715 0.09606 0.0
H1432 H 0.95956 0.45419 0.05474 0.0
H1433 H 0.01783 0.40313 0.9223 0.0
H1434 H 0.04235 0.4298 0.95649 0.0
H1435 H 0.95208 0.45215 0.98493 0.0
H1436 H 0.92761 0.42602 0.95113 0.0
H1437 H 0.99292 0.43038 0.01984 0.0
H1438 H 0.9885 0.50478 0.9546 0.0
H1439 H -0.00062 0.52332 0.91351 0.0
H1440 H 0.09717 0.5159 0.92672 0.0
H1441 H 0.08682 0.49684 0.96783 0.0
C1442 C 0.02306 0.55528 0.08167 0.0
C1443 C 0.05396 0.56349 0.08633 0.0
C1444 C 0.01629 0.53281 0.06437 0.0
C1445 C 0.04032 0.51851 0.05148 0.0
C1446 C 0.07115 0.52636 0.05635 0.0
C1447 C 0.07795 0.5485 0.07379 0.0
C1448 C 0.03311 0.49658 0.03199 0.0
C1449 C 0.04093 0.50496 0.00839 0.0
C1450 C 0.01627 0.46907 0.03633 0.0
C1451 C 0.00895 0.45851 0.06111 0.0
C1452 C 0.03264 0.45517 0.07832 0.0
C1453 C 0.02561 0.44565 0.10172 0.0
C1454 C 0.99497 0.4392 0.10811 0.0
C1455 C 0.97131 0.44217 0.09109 0.0
C1456 C 0.97821 0.45173 0.06766 0.0
C1457 C 0.00333 0.41371 0.93591 0.0
C1458 C 0.97088 0.41276 0.93402 0.0
C1459 C 0.0173 0.42881 0.95537 0.0
C1460 C -0.00109 0.44278 0.97314 0.0
C1461 C 0.96659 0.44129 0.97144 0.0
C1462 C 0.95269 0.42659 0.95199 0.0
C1463 C 0.01285 0.46046 0.99304 0.0
C1464 C 0.00623 0.45134 0.01671 0.0
C1465 C 0.03063 0.48742 0.98878 0.0
C1466 C 0.03689 0.49897 0.96414 0.0
C1467 C 0.01232 0.50682 0.94866 0.0
C1468 C 0.01838 0.51747 0.92539 0.0
C1469 C 0.04895 0.52067 0.91747 0.0
C1470 C 0.07351 0.51332 0.93286 0.0
C1471 C 0.06756 0.50259 0.95614 0.0
H1472 H 0.0536 0.52893 0.89945 0.0
H1473 H 0.98956 0.43184 0.12624 0.0
H1474 H 0.06442 0.91095 0.93626 0.0
H1475 H 0.033 0.93149 0.96875 0.0
H1476 H 0.04831 0.02448 0.94266 0.0
H1477 H 0.08098 0.0039 0.91011 0.0
H1478 H 0.05276 0.02057 0.99139 0.0
H1479 H 0.98036 0.98759 0.93099 0.0
H1480 H 0.95794 0.95086 0.90176 0.0
H1481 H 0.93809 0.88677 0.9588 0.0
H1482 H 0.96078 0.92295 0.98834 0.0
H1483 H 0.93313 0.08944 0.05698 0.0
H1484 H 0.96538 0.06959 0.02472 0.0
H1485 H 0.94992 0.97611 0.04968 0.0
H1486 H 0.91644 0.99597 0.08196 0.0
H1487 H 0.94555 0.98062 0.00134 0.0
H1488 H 0.01807 0.01347 0.06174 0.0
H1489 H 0.04056 0.05013 0.09099 0.0
H1490 H 0.06019 0.11441 0.03403 0.0
H1491 H 0.03743 0.07831 0.00446 0.0
C1492 C 0.06111 0.93581 0.93735 0.0
C1493 C 0.07471 0.9559 0.92052 0.0
C1494 C 0.0431 0.94746 0.95591 0.0
C1495 C 0.03779 0.97937 0.95769 0.0
C1496 C 0.05203 -0.00029 0.94135 0.0
C1497 C 0.07054 0.98801 0.92283 0.0
C1498 C 0.01717 0.99109 0.97671 0.0
C1499 C 0.02915 0.01227 0.99338 0.0
C1500 C 0.9867 0.97946 0.97954 0.0
C1501 C 0.97245 0.95792 0.96186 0.0
C1502 C 0.97135 0.96561 0.93728 0.0
C1503 C 0.95858 0.94488 0.92066 0.0
C1504 C 0.94664 0.91648 0.92841 0.0
C1505 C 0.94735 0.90878 0.95282 0.0
C1506 C 0.96012 0.92941 0.96952 0.0
C1507 C 0.93662 0.06463 0.05571 0.0
C1508 C 0.92263 0.04418 0.0721 0.0
C1509 C 0.95513 0.05337 0.0373 0.0
C1510 C 0.96055 0.02151 0.03521 0.0
C1511 C 0.94612 0.00085 0.05121 0.0
C1512 C 0.92713 0.01215 0.06958 0.0
C1513 C 0.98115 0.01007 0.01607 0.0
C1514 C 0.96915 0.98894 -0.00065 0.0
C1515 C 0.0116 0.02175 0.01321 0.0
C1516 C 0.02586 0.04325 0.03091 0.0
C1517 C 0.02705 0.03549 0.05546 0.0
C1518 C 0.03985 0.05616 0.0721 0.0
C1519 C 0.05174 0.0846 0.06438 0.0
C1520 C 0.05096 0.09238 0.03999 0.0
C1521 C 0.03815 0.07179 0.02328 0.0
H1522 H 0.06161 0.1006 0.07729 0.0
H1523 H 0.93681 0.90045 0.91551 0.0
H1524 H 0.41079 0.90672 0.04202 0.0
H1525 H 0.42676 0.94507 0.01223 0.0
H1526 H 0.51451 0.95574 0.0486 0.0
H1527 H 0.49876 0.91671 0.07846 0.0
H1528 H 0.4792 0.01182 0.04111 0.0
H1529 H 0.51699 0.92381 0.99751 0.0
H1530 H 0.51441 0.87212 0.97871 0.0
H1531 H 0.44136 0.90322 0.93211 0.0
H1532 H 0.44318 0.95501 0.95089 0.0
H1533 H 0.56979 0.09264 0.95767 0.0
H1534 H 0.5438 0.0604 0.98734 0.0
H1535 H 0.46397 0.05315 0.9408 0.0
H1536 H 0.49016 0.08594 0.91081 0.0
H1537 H 0.48944 0.99681 0.95299 0.0
H1538 H 0.45514 0.08664 0.99432 0.0
H1539 H 0.45865 0.13841 0.0129 0.0
H1540 H 0.52556 0.10436 0.06362 0.0
H1541 H 0.52281 0.05247 0.04514 0.0
C1542 C 0.4337 0.91689 0.04343 0.0
C1543 C 0.45357 0.90908 0.0625 0.0
C1544 C 0.44277 0.93864 0.0264 0.0
C1545 C 0.47168 0.95312 0.02838 0.0
C1546 C 0.49208 0.94464 0.04693 0.0
C1547 C 0.48319 0.92237 0.06381 0.0
C1548 C 0.47935 0.97879 0.01207 0.0
C1549 C 0.4819 0.00861 0.02186 0.0
C1550 C 0.48139 0.97444 0.98696 0.0
C1551 C 0.47995 0.94319 0.97583 0.0
C1552 C 0.50011 0.91953 0.98346 0.0
C1553 C 0.49886 0.89024 0.97275 0.0
C1554 C 0.47766 0.88435 0.95429 0.0
C1555 C 0.45772 0.90779 0.94646 0.0
C1556 C 0.45887 0.93712 0.95712 0.0
C1557 C 0.54636 0.08485 0.95404 0.0
C1558 C 0.53195 0.09136 0.932 0.0
C1559 C 0.53146 0.06665 0.97107 0.0
C1560 C 0.50199 0.05451 0.96623 0.0
C1561 C 0.4867 0.06252 0.9448 0.0
C1562 C 0.50154 0.08122 0.9278 0.0
C1563 C 0.48981 0.02997 0.98201 0.0
C1564 C 0.48636 0.00022 0.97218 0.0
C1565 C 0.48697 0.0344 0.0071 0.0
C1566 C 0.4889 0.06566 0.01822 0.0
C1567 C 0.47082 0.09024 0.0093 0.0
C1568 C 0.47262 0.1196 0.01985 0.0
C1569 C 0.49235 0.12468 0.0394 0.0
C1570 C 0.51029 0.10039 0.04847 0.0
C1571 C 0.50858 0.07098 0.03798 0.0
H1572 H 0.4937 0.14743 0.04755 0.0
H1573 H 0.47676 0.86167 0.946 0.0
H1574 H 0.46094 0.59041 0.91328 0.0
H1575 H 0.49561 0.57107 0.94452 0.0
H1576 H 0.44657 0.48384 0.94488 0.0
H1577 H 0.41192 0.5029 0.91333 0.0
H1578 H 0.47736 0.55416 0.98935 0.0
H1579 H 0.49664 0.42673 0.96134 0.0
H1580 H 0.50054 0.39541 0.92436 0.0
H1581 H 0.53272 0.47505 0.88534 0.0
H1582 H 0.52943 0.50675 0.92216 0.0
H1583 H 0.54122 0.41651 0.06311 0.0
H1584 H 0.51446 0.43896 0.02883 0.0
H1585 H 0.56704 0.52346 0.03715 0.0
H1586 H 0.59389 0.50111 0.07203 0.0
H1587 H 0.53869 0.45702 0.98704 0.0
H1588 H 0.51979 0.5837 0.01794 0.0
H1589 H 0.5121 0.61318 0.05552 0.0
H1590 H 0.47425 0.53221 0.08954 0.0
H1591 H 0.48132 0.50241 0.05209 0.0
C1592 C 0.45779 0.56694 0.91976 0.0
C1593 C 0.43366 0.54816 0.91102 0.0
C1594 C 0.47758 0.556 0.93761 0.0
C1595 C 0.4736 0.52611 0.94691 0.0
C1596 C 0.45018 0.50688 0.93767 0.0
C1597 C 0.4304 0.51779 0.91972 0.0
C1598 C 0.49257 0.51584 0.96744 0.0
C1599 C 0.49129 0.53324 0.98875 0.0
C1600 C 0.50991 0.48811 0.96669 0.0
C1601 C 0.51254 0.46917 0.94449 0.0
C1602 C 0.50471 0.43753 0.9449 0.0
C1603 C 0.50678 0.41971 0.92396 0.0
C1604 C 0.5168 0.43325 0.9025 0.0
C1605 C 0.52487 0.46462 0.90196 0.0
C1606 C 0.52286 0.48253 0.92286 0.0
C1607 C 0.54705 0.43995 0.05777 0.0
C1608 C 0.56974 0.45707 0.07012 0.0
C1609 C 0.53178 0.45267 0.03814 0.0
C1610 C 0.5389 0.48273 0.03046 0.0
C1611 C 0.56115 0.50023 0.04297 0.0
C1612 C 0.57643 0.4875 0.06282 0.0
C1613 C 0.52324 0.49518 0.00901 0.0
C1614 C 0.52512 0.47818 0.98753 0.0
C1615 C 0.50604 0.52299 0.00971 0.0
C1616 C 0.5015 0.54075 0.0323 0.0
C1617 C 0.50979 0.57222 0.03343 0.0
C1618 C 0.50553 0.58898 0.05471 0.0
C1619 C 0.49282 0.57454 0.07493 0.0
C1620 C 0.48423 0.54333 0.0739 0.0
C1621 C 0.48841 0.52649 0.05266 0.0
H1622 H 0.48955 0.58755 0.09138 0.0
H1623 H 0.51835 0.41943 0.8863 0.0
H1624 H 0.08821 0.9292 0.43672 0.0
H1625 H 0.06781 0.96044 0.4696 0.0
H1626 H 0.97447 0.9409 0.44617 0.0
H1627 H 0.99478 0.90908 0.4131 0.0
H1628 H 0.98781 0.00493 0.45587 0.0
H1629 H 0.99705 0.90517 0.49283 0.0
H1630 H 0.02337 0.85659 0.5041 0.0
H1631 H 0.09189 0.90821 0.54335 0.0
H1632 H 0.06623 0.95718 0.532 0.0
H1633 H 0.90737 0.05456 0.55856 0.0
H1634 H 0.92898 0.02102 0.52761 0.0
H1635 H 0.0215 0.04529 0.55028 0.0
H1636 H -4e-05 0.07954 0.58141 0.0
H1637 H 0.00927 0.97894 0.54131 0.0
H1638 H 0.00044 0.07861 0.50409 0.0
H1639 H 0.97427 0.12725 0.4928 0.0
H1640 H 0.9053 0.07576 0.45392 0.0
H1641 H 0.93081 0.02673 0.46531 0.0
C1642 C 0.06332 0.93155 0.4385 0.0
C1643 C 0.04301 0.91676 0.42239 0.0
C1644 C 0.05176 0.94926 0.45735 0.0
C1645 C 0.01974 0.95264 0.46031 0.0
C1646 C -0.0007 0.93834 0.4441 0.0
C1647 C 0.01088 0.92021 0.42532 0.0
C1648 C 0.00788 0.97168 0.48021 0.0
C1649 C 0.99204 -0.00095 0.47457 0.0
C1650 C 0.01438 0.96427 0.50447 0.0
C1651 C 0.0299 0.93487 0.51135 0.0
C1652 C 0.01791 0.9062 0.50367 0.0
C1653 C 0.03267 0.87858 0.51011 0.0
C1654 C 0.05933 0.87932 0.52437 0.0
C1655 C 0.07125 0.90768 0.53227 0.0
C1656 C 0.05659 0.93537 0.52585 0.0
C1657 C 0.93233 0.05268 0.55713 0.0
C1658 C 0.95205 0.06976 0.57229 0.0
C1659 C 0.94458 0.03356 0.53942 0.0
C1660 C 0.97671 0.03102 0.53667 0.0
C1661 C 0.99659 0.04716 0.55224 0.0
C1662 C 0.98431 0.06669 0.56988 0.0
C1663 C 0.98914 0.01208 0.51694 0.0
C1664 C 0.00508 0.98478 0.52261 0.0
C1665 C 0.9828 0.01956 0.49268 0.0
C1666 C 0.96735 0.04898 0.48579 0.0
C1667 C 0.97951 0.07763 0.49334 0.0
C1668 C 0.96484 0.10528 0.48688 0.0
C1669 C 0.93809 0.1046 0.47271 0.0
C1670 C 0.926 0.07625 0.46493 0.0
C1671 C 0.94057 0.04852 0.47137 0.0
H1672 H 0.92677 0.12603 0.46771 0.0
H1673 H 0.07072 0.85791 0.52935 0.0
H1674 H 0.52305 0.08532 0.42401 0.0
H1675 H 0.5002 0.05996 0.45902 0.0
H1676 H 0.56408 0.98374 0.45122 0.0
H1677 H 0.58686 0.00878 0.4159 0.0
H1678 H 0.50574 0.96439 0.46358 0.0
H1679 H 0.58 0.03951 0.49074 0.0
H1680 H 0.60414 0.09127 0.49282 0.0
H1681 H 0.51947 0.12943 0.52048 0.0
H1682 H 0.49467 0.07795 0.51822 0.0
H1683 H 0.48042 0.90389 0.57922 0.0
H1684 H 0.50865 0.9279 0.54601 0.0
H1685 H 0.44861 0.00768 0.54976 0.0
H1686 H 0.4206 0.9841 0.58329 0.0
H1687 H 0.50803 0.02403 0.53997 0.0
H1688 H 0.43304 0.94985 0.51082 0.0
H1689 H 0.40839 0.89834 0.50844 0.0
H1690 H 0.49415 0.85864 0.48433 0.0
H1691 H 0.51943 0.90988 0.4869 0.0
C1692 C 0.53195 0.06295 0.42952 0.0
C1693 C 0.55695 0.04916 0.41741 0.0
C1694 C 0.51898 0.04859 0.44957 0.0
C1695 C 0.53096 0.02037 0.45793 0.0
C1696 C 0.55471 0.00566 0.44508 0.0
C1697 C 0.56767 0.01998 0.42495 0.0
C1698 C 0.5196 0.00698 0.4807 0.0
C1699 C 0.50664 0.9772 0.48036 0.0
C1700 C 0.52044 0.024 0.50246 0.0
C1701 C 0.53541 0.05492 0.50412 0.0
C1702 C 0.56647 0.05898 0.49711 0.0
C1703 C 0.58028 0.08826 0.49834 0.0
C1704 C 0.56333 0.11364 0.50673 0.0
C1705 C 0.53256 0.10976 0.51397 0.0
C1706 C 0.51863 0.08053 0.51274 0.0
C1707 C 0.47358 0.92679 0.57326 0.0
C1708 C 0.44807 0.94198 0.58359 0.0
C1709 C 0.48966 0.9404 0.55425 0.0
C1710 C 0.48022 0.96921 0.54516 0.0
C1711 C 0.45609 0.98533 0.55648 0.0
C1712 C 0.4401 0.97181 0.57559 0.0
C1713 C 0.49392 0.98155 0.5228 0.0
C1714 C 0.50733 0.01114 0.52322 0.0
C1715 C 0.49345 0.96437 0.5011 0.0
C1716 C 0.47819 0.93362 0.49929 0.0
C1717 C 0.44669 0.9301 0.50516 0.0
C1718 C 0.4326 0.90096 0.50376 0.0
C1719 C 0.44971 0.87522 0.4963 0.0
C1720 C 0.48093 0.87859 0.49015 0.0
C1721 C 0.49515 0.90767 0.49156 0.0
H1722 H 0.43877 0.85268 0.49523 0.0
H1723 H 0.57406 0.13629 0.50766 0.0
H1724 H 0.55457 0.46152 0.56661 0.0
H1725 H 0.52503 0.48712 0.53512 0.0
H1726 H 0.46549 0.40706 0.52893 0.0
H1727 H 0.49526 0.38103 0.56079 0.0
H1728 H 0.49084 0.42633 0.48531 0.0
H1729 H 0.4337 0.47101 0.5489 0.0
H1730 H 0.42482 0.496 0.58816 0.0
H1731 H 0.47565 0.57615 0.5649 0.0
H1732 H 0.48527 0.55148 0.52561 0.0
H1733 H 0.40717 0.52801 0.4017 0.0
H1734 H 0.42027 0.49095 0.4335 0.0
H1735 H 0.49944 0.54667 0.45302 0.0
H1736 H 0.48686 0.58355 0.421 0.0
H1737 H 0.45147 0.53416 0.49051 0.0
H1738 H 0.51763 0.48376 0.4314 0.0
H1739 H 0.52787 0.45866 0.39235 0.0
H1740 H 0.45873 0.38976 0.40759 0.0
H1741 H 0.44804 0.41456 0.44676 0.0
C1742 C 0.53492 0.4495 0.55882 0.0
C1743 C 0.52724 0.41928 0.56595 0.0
C1744 C 0.51794 0.46422 0.54096 0.0
C1745 C 0.493 0.449 0.5299 0.0
C1746 C 0.48461 0.41913 0.53743 0.0
C1747 C 0.50151 0.40441 0.55559 0.0
C1748 C 0.47803 0.46375 0.50905 0.0
C1749 C 0.48134 0.44956 0.48648 0.0
C1750 C 0.46611 0.49417 0.51069 0.0
C1751 C 0.46028 0.5093 0.53428 0.0
C1752 C 0.44316 0.49388 0.55219 0.0
C1753 C 0.43797 0.50801 0.57445 0.0
C1754 C 0.44968 0.53763 0.57903 0.0
C1755 C 0.46657 0.55321 0.56132 0.0
C1756 C 0.47185 0.53919 0.53903 0.0
C1757 C 0.42776 0.53195 0.41245 0.0
C1758 C 0.44591 0.55868 0.40915 0.0
C1759 C 0.43517 0.51081 0.43051 0.0
C1760 C 0.46056 0.51644 0.44556 0.0
C1761 C 0.47967 0.5422 0.44148 0.0
C1762 C 0.47258 0.56308 0.42318 0.0
C1763 C 0.46559 0.49719 0.46696 0.0
C1764 C 0.46018 0.51061 0.4895 0.0
C1765 C 0.47544 0.46611 0.4653 0.0
C1766 C 0.48177 0.45121 0.44182 0.0
C1767 C 0.50443 0.46341 0.42632 0.0
C1768 C 0.51039 0.44919 0.40421 0.0
C1769 C 0.49385 0.42272 0.39744 0.0
C1770 C 0.47146 0.41031 0.41284 0.0
C1771 C 0.4655 0.42439 0.43501 0.0
H1772 H 0.49845 0.41179 0.38028 0.0
H1773 H 0.44565 0.54853 0.59628 0.0
H1774 H 0.93944 0.41258 0.44557 0.0
H1775 H 0.96665 0.43522 0.47979 0.0
H1776 H 0.93929 0.52672 0.45678 0.0
H1777 H 0.91211 0.50421 0.42221 0.0
H1778 H 0.00051 0.52357 0.46888 0.0
H1779 H 0.90364 0.49437 0.50382 0.0
H1780 H 0.86008 0.45943 0.51326 0.0
H1781 H 0.92205 0.39792 0.55031 0.0
H1782 H 0.96609 0.43228 0.54079 0.0
H1783 H 0.05326 0.59477 0.5758 0.0
H1784 H 0.01731 0.57685 0.54479 0.0
H1785 H 0.04202 0.48204 0.56025 0.0
H1786 H 0.07801 0.49974 0.59141 0.0
H1787 H 0.97873 0.49023 0.55266 0.0
H1788 H 0.07567 0.51664 0.51485 0.0
H1789 H 0.11982 0.55068 0.50505 0.0
H1790 H 0.05779 0.61669 0.47307 0.0
H1791 H 0.01319 0.5832 0.48301 0.0
C1792 C 0.9392 0.43753 0.44775 0.0
C1793 C 0.92361 0.45666 0.43127 0.0
C1794 C 0.95459 0.45039 0.46739 0.0
C1795 C 0.95452 0.48256 0.47095 0.0
C1796 C 0.93939 0.5018 0.45435 0.0
C1797 C 0.92392 0.48893 0.43466 0.0
C1798 C 0.97107 0.49599 0.49172 0.0
C1799 C 0.99536 0.51678 0.48725 0.0
C1800 C 0.96469 0.48649 0.51557 0.0
C1801 C 0.93822 0.4658 0.52142 0.0
C1802 C 0.90803 0.47327 0.51382 0.0
C1803 C 0.88324 0.45359 0.51921 0.0
C1804 C 0.8883 0.42644 0.53233 0.0
C1805 C 0.91817 0.41895 0.54014 0.0
C1806 C 0.94305 0.43854 0.53477 0.0
C1807 C 0.0508 0.57009 0.5728 0.0
C1808 C 0.06862 0.54863 0.58584 0.0
C1809 C 0.03031 0.55993 0.55507 0.0
C1810 C 0.02739 0.5282 0.55012 0.0
C1811 C 0.04408 0.50664 0.56385 0.0
C1812 C 0.06467 0.51679 0.58154 0.0
C1813 C 0.00824 0.51757 0.52975 0.0
C1814 C 0.98356 0.49728 0.53431 0.0
C1815 C 0.01428 0.52745 0.50595 0.0
C1816 C 0.04106 0.5476 0.49994 0.0
C1817 C 0.07141 0.53854 0.50593 0.0
C1818 C 0.09653 0.55771 0.50031 0.0
C1819 C 0.09161 0.58588 0.48852 0.0
C1820 C 0.06156 0.59489 0.48225 0.0
C1821 C 0.03636 0.57583 0.48786 0.0
H1822 H 0.11108 0.60068 0.48417 0.0
H1823 H 0.86907 0.41123 0.53649 0.0
loop_
_geom_bond_atom_site_label_1
_geom_bond_atom_site_label_2
_geom_bond_distance
_geom_bond_site_symmetry_2
_ccdc_geom_bond_type
Co0 O1 2.216 . S
Co0 O2 2.091 . S
Co0 O4 2.004 . S
Co0 O10 2.021 . S
Co0 O12 2.137 . S
Co0 O13 2.244 . S
O1 Co0 2.216 . S
O1 C8 1.247 . S
O2 Co0 2.091 . S
O2 C8 1.261 . S
C3 O12 1.247 . S
C3 O13 1.272 . S
O4 Co0 2.004 . S
O4 C9 1.259 . S
Co5 O6 2.061 . S
Co5 O11 2.052 . S
Co5 O13 2.135 . S
O6 Co5 2.061 . S
O6 C9 1.235 . S
C7 O10 1.238 . S
C7 O11 1.241 . S
C8 O1 1.247 . S
C8 O2 1.261 . S
C9 O4 1.259 . S
C9 O6 1.235 . S
O10 Co0 2.021 . S
O10 C7 1.238 . S
O11 Co5 2.052 . S
O11 C7 1.241 . S
O12 Co0 2.137 . S
O12 C3 1.247 . S
O13 Co0 2.244 . S
O13 C3 1.272 . S
O13 Co5 2.135 . S
Co14 O15 2.216 . S
Co14 O16 2.091 . S
Co14 O18 2.004 . S
Co14 O24 2.021 . S
Co14 O26 2.137 . S
Co14 O27 2.244 . S
O15 Co14 2.216 . S
O15 C22 1.247 . S
O16 Co14 2.091 . S
O16 C22 1.261 . S
C17 O26 1.247 . S
C17 O27 1.272 . S
O18 Co14 2.004 . S
O18 C23 1.259 . S
Co19 O20 2.061 . S
Co19 O25 2.052 . S
Co19 O27 2.135 . S
O20 Co19 2.061 . S
O20 C23 1.235 . S
C21 O24 1.238 . S
C21 O25 1.241 . S
C22 O15 1.247 . S
C22 O16 1.261 . S
C23 O18 1.259 . S
C23 O20 1.235 . S
O24 Co14 2.021 . S
O24 C21 1.238 . S
O25 Co19 2.052 . S
O25 C21 1.241 . S
O26 Co14 2.137 . S
O26 C17 1.247 . S
O27 Co14 2.244 . S
O27 C17 1.272 . S
O27 Co19 2.135 . S
Co28 O29 2.216 . S
Co28 O30 2.091 . S
Co28 O32 2.004 . S
Co28 O38 2.021 . S
Co28 O40 2.137 . S
Co28 O41 2.244 . S
O29 Co28 2.216 . S
O29 C36 1.247 . S
O30 Co28 2.091 . S
O30 C36 1.261 . S
C31 O40 1.247 . S
C31 O41 1.272 . S
O32 Co28 2.004 . S
O32 C37 1.259 . S
Co33 O34 2.061 . S
Co33 O39 2.052 . S
Co33 O41 2.135 . S
O34 Co33 2.061 . S
O34 C37 1.235 . S
C35 O38 1.238 . S
C35 O39 1.241 . S
C36 O29 1.247 . S
C36 O30 1.261 . S
C37 O32 1.259 . S
C37 O34 1.235 . S
O38 Co28 2.021 . S
O38 C35 1.238 . S
O39 Co33 2.052 . S
O39 C35 1.241 . S
O40 Co28 2.137 . S
O40 C31 1.247 . S
O41 Co28 2.244 . S
O41 C31 1.272 . S
O41 Co33 2.135 . S
Co42 O43 2.216 . S
Co42 O44 2.091 . S
Co42 O46 2.004 . S
Co42 O52 2.021 . S
Co42 O54 2.137 . S
Co42 O55 2.244 . S
O43 Co42 2.216 . S
O43 C50 1.247 . S
O44 Co42 2.091 . S
O44 C50 1.261 . S
C45 O54 1.247 . S
C45 O55 1.272 . S
O46 Co42 2.004 . S
O46 C51 1.259 . S
Co47 O48 2.061 . S
Co47 O53 2.052 . S
Co47 O55 2.135 . S
O48 Co47 2.061 . S
O48 C51 1.235 . S
C49 O52 1.238 . S
C49 O53 1.241 . S
C50 O43 1.247 . S
C50 O44 1.261 . S
C51 O46 1.259 . S
C51 O48 1.235 . S
O52 Co42 2.021 . S
O52 C49 1.238 . S
O53 Co47 2.052 . S
O53 C49 1.241 . S
O54 Co42 2.137 . S
O54 C45 1.247 . S
O55 Co42 2.244 . S
O55 C45 1.272 . S
O55 Co47 2.135 . S
Co56 O57 2.216 . S
Co56 O58 2.091 . S
Co56 O60 2.004 . S
Co56 O66 2.021 . S
Co56 O68 2.137 . S
Co56 O69 2.244 . S
O57 Co56 2.216 . S
O57 C64 1.247 . S
O58 Co56 2.091 . S
O58 C64 1.261 . S
C59 O68 1.247 . S
C59 O69 1.272 . S
O60 Co56 2.004 . S
O60 C65 1.259 . S
Co61 O62 2.061 . S
Co61 O67 2.052 . S
Co61 O69 2.135 . S
O62 Co61 2.061 . S
O62 C65 1.235 . S
C63 O66 1.238 . S
C63 O67 1.241 . S
C64 O57 1.247 . S
C64 O58 1.261 . S
C65 O60 1.259 . S
C65 O62 1.235 . S
O66 Co56 2.021 . S
O66 C63 1.238 . S
O67 Co61 2.052 . S
O67 C63 1.241 . S
O68 Co56 2.137 . S
O68 C59 1.247 . S
O69 Co56 2.244 . S
O69 C59 1.272 . S
O69 Co61 2.135 . S
Co70 O71 2.216 . S
Co70 O72 2.091 . S
Co70 O74 2.004 . S
Co70 O80 2.021 . S
Co70 O82 2.137 . S
Co70 O83 2.244 . S
O71 Co70 2.216 . S
O71 C78 1.247 . S
O72 Co70 2.091 . S
O72 C78 1.261 . S
C73 O82 1.247 . S
C73 O83 1.272 . S
O74 Co70 2.004 . S
O74 C79 1.259 . S
Co75 O76 2.061 . S
Co75 O81 2.052 . S
Co75 O83 2.135 . S
O76 Co75 2.061 . S
O76 C79 1.235 . S
C77 O80 1.238 . S
C77 O81 1.241 . S
C78 O71 1.247 . S
C78 O72 1.261 . S
C79 O74 1.259 . S
C79 O76 1.235 . S
O80 Co70 2.021 . S
O80 C77 1.238 . S
O81 Co75 2.052 . S
O81 C77 1.241 . S
O82 Co70 2.137 . S
O82 C73 1.247 . S
O83 Co70 2.244 . S
O83 C73 1.272 . S
O83 Co75 2.135 . S
Co84 O85 2.216 . S
Co84 O86 2.091 . S
Co84 O88 2.004 . S
Co84 O94 2.021 . S
Co84 O96 2.137 . S
Co84 O97 2.244 . S
O85 Co84 2.216 . S
O85 C92 1.247 . S
O86 Co84 2.091 . S
O86 C92 1.261 . S
C87 O96 1.247 . S
C87 O97 1.272 . S
O88 Co84 2.004 . S
O88 C93 1.259 . S
Co89 O90 2.061 . S
Co89 O95 2.052 . S
Co89 O97 2.135 . S
O90 Co89 2.061 . S
O90 C93 1.235 . S
C91 O94 1.238 . S
C91 O95 1.241 . S
C92 O85 1.247 . S
C92 O86 1.261 . S
C93 O88 1.259 . S
C93 O90 1.235 . S
O94 Co84 2.021 . S
O94 C91 1.238 . S
O95 Co89 2.052 . S
O95 C91 1.241 . S
O96 Co84 2.137 . S
O96 C87 1.247 . S
O97 Co84 2.244 . S
O97 C87 1.272 . S
O97 Co89 2.135 . S
Co98 O99 2.216 . S
Co98 O100 2.091 . S
Co98 O102 2.004 . S
Co98 O108 2.021 . S
Co98 O110 2.137 . S
Co98 O111 2.244 . S
O99 Co98 2.216 . S
O99 C106 1.247 . S
O100 Co98 2.091 . S
O100 C106 1.261 . S
C101 O110 1.247 . S
C101 O111 1.272 . S
O102 Co98 2.004 . S
O102 C107 1.259 . S
Co103 O104 2.061 . S
Co103 O109 2.052 . S
Co103 O111 2.135 . S
O104 Co103 2.061 . S
O104 C107 1.235 . S
C105 O108 1.238 . S
C105 O109 1.241 . S
C106 O99 1.247 . S
C106 O100 1.261 . S
C107 O102 1.259 . S
C107 O104 1.235 . S
O108 Co98 2.021 . S
O108 C105 1.238 . S
O109 Co103 2.052 . S
O109 C105 1.241 . S
O110 Co98 2.137 . S
O110 C101 1.247 . S
O111 Co98 2.244 . S
O111 C101 1.272 . S
O111 Co103 2.135 . S
Co112 O113 2.216 . S
Co112 O114 2.091 . S
Co112 O116 2.004 . S
Co112 O122 2.021 . S
Co112 O124 2.137 . S
Co112 O125 2.244 . S
O113 Co112 2.216 . S
O113 C120 1.247 . S
O114 Co112 2.091 . S
O114 C120 1.261 . S
C115 O124 1.247 . S
C115 O125 1.272 . S
O116 Co112 2.004 . S
O116 C121 1.259 . S
Co117 O118 2.061 . S
Co117 O123 2.052 . S
Co117 O125 2.135 . S
O118 Co117 2.061 . S
O118 C121 1.235 . S
C119 O122 1.238 . S
C119 O123 1.241 . S
C120 O113 1.247 . S
C120 O114 1.261 . S
C121 O116 1.259 . S
C121 O118 1.235 . S
O122 Co112 2.021 . S
O122 C119 1.238 . S
O123 Co117 2.052 . S
O123 C119 1.241 . S
O124 Co112 2.137 . S
O124 C115 1.247 . S
O125 Co112 2.244 . S
O125 C115 1.272 . S
O125 Co117 2.135 . S
Co126 O127 2.216 . S
Co126 O128 2.091 . S
Co126 O130 2.004 . S
Co126 O136 2.021 . S
Co126 O138 2.137 . S
Co126 O139 2.244 . S
O127 Co126 2.216 . S
O127 C134 1.247 . S
O128 Co126 2.091 . S
O128 C134 1.261 . S
C129 O138 1.247 . S
C129 O139 1.272 . S
O130 Co126 2.004 . S
O130 C135 1.259 . S
Co131 O132 2.061 . S
Co131 O137 2.052 . S
Co131 O139 2.135 . S
O132 Co131 2.061 . S
O132 C135 1.235 . S
C133 O136 1.238 . S
C133 O137 1.241 . S
C134 O127 1.247 . S
C134 O128 1.261 . S
C135 O130 1.259 . S
C135 O132 1.235 . S
O136 Co126 2.021 . S
O136 C133 1.238 . S
O137 Co131 2.052 . S
O137 C133 1.241 . S
O138 Co126 2.137 . S
O138 C129 1.247 . S
O139 Co126 2.244 . S
O139 C129 1.272 . S
O139 Co131 2.135 . S
Co140 O141 2.216 . S
Co140 O142 2.091 . S
Co140 O144 2.004 . S
Co140 O150 2.021 . S
Co140 O152 2.137 . S
Co140 O153 2.244 . S
O141 Co140 2.216 . S
O141 C148 1.247 . S
O142 Co140 2.091 . S
O142 C148 1.261 . S
C143 O152 1.247 . S
C143 O153 1.272 . S
O144 Co140 2.004 . S
O144 C149 1.259 . S
Co145 O146 2.061 . S
Co145 O151 2.052 . S
Co145 O153 2.135 . S
O146 Co145 2.061 . S
O146 C149 1.235 . S
C147 O150 1.238 . S
C147 O151 1.241 . S
C148 O141 1.247 . S
C148 O142 1.261 . S
C149 O144 1.259 . S
C149 O146 1.235 . S
O150 Co140 2.021 . S
O150 C147 1.238 . S
O151 Co145 2.052 . S
O151 C147 1.241 . S
O152 Co140 2.137 . S
O152 C143 1.247 . S
O153 Co140 2.244 . S
O153 C143 1.272 . S
O153 Co145 2.135 . S
Co154 O155 2.216 . S
Co154 O156 2.091 . S
Co154 O158 2.004 . S
Co154 O164 2.021 . S
Co154 O166 2.137 . S
Co154 O167 2.244 . S
O155 Co154 2.216 . S
O155 C162 1.247 . S
O156 Co154 2.091 . S
O156 C162 1.261 . S
C157 O166 1.247 . S
C157 O167 1.272 . S
O158 Co154 2.004 . S
O158 C163 1.259 . S
Co159 O160 2.061 . S
Co159 O165 2.052 . S
Co159 O167 2.135 . S
O160 Co159 2.061 . S
O160 C163 1.235 . S
C161 O164 1.238 . S
C161 O165 1.241 . S
C162 O155 1.247 . S
C162 O156 1.261 . S
C163 O158 1.259 . S
C163 O160 1.235 . S
O164 Co154 2.021 . S
O164 C161 1.238 . S
O165 Co159 2.052 . S
O165 C161 1.241 . S
O166 Co154 2.137 . S
O166 C157 1.247 . S
O167 Co154 2.244 . S
O167 C157 1.272 . S
O167 Co159 2.135 . S
Co168 O169 2.216 . S
Co168 O170 2.091 . S
Co168 O172 2.004 . S
Co168 O178 2.021 . S
Co168 O180 2.137 . S
Co168 O181 2.244 . S
O169 Co168 2.216 . S
O169 C176 1.247 . S
O170 Co168 2.091 . S
O170 C176 1.261 . S
C171 O180 1.247 . S
C171 O181 1.272 . S
O172 Co168 2.004 . S
O172 C177 1.259 . S
Co173 O174 2.061 . S
Co173 O179 2.052 . S
Co173 O181 2.135 . S
O174 Co173 2.061 . S
O174 C177 1.235 . S
C175 O178 1.238 . S
C175 O179 1.241 . S
C176 O169 1.247 . S
C176 O170 1.261 . S
C177 O172 1.259 . S
C177 O174 1.235 . S
O178 Co168 2.021 . S
O178 C175 1.238 . S
O179 Co173 2.052 . S
O179 C175 1.241 . S
O180 Co168 2.137 . S
O180 C171 1.247 . S
O181 Co168 2.244 . S
O181 C171 1.272 . S
O181 Co173 2.135 . S
Co182 O183 2.216 . S
Co182 O184 2.091 . S
Co182 O186 2.004 . S
Co182 O192 2.021 . S
Co182 O194 2.137 . S
Co182 O195 2.244 . S
O183 Co182 2.216 . S
O183 C190 1.247 . S
O184 Co182 2.091 . S
O184 C190 1.261 . S
C185 O194 1.247 . S
C185 O195 1.272 . S
O186 Co182 2.004 . S
O186 C191 1.259 . S
Co187 O188 2.061 . S
Co187 O193 2.052 . S
Co187 O195 2.135 . S
O188 Co187 2.061 . S
O188 C191 1.235 . S
C189 O192 1.238 . S
C189 O193 1.241 . S
C190 O183 1.247 . S
C190 O184 1.261 . S
C191 O186 1.259 . S
C191 O188 1.235 . S
O192 Co182 2.021 . S
O192 C189 1.238 . S
O193 Co187 2.052 . S
O193 C189 1.241 . S
O194 Co182 2.137 . S
O194 C185 1.247 . S
O195 Co182 2.244 . S
O195 C185 1.272 . S
O195 Co187 2.135 . S
Co196 O197 2.216 . S
Co196 O198 2.091 . S
Co196 O200 2.004 . S
Co196 O206 2.021 . S
Co196 O208 2.137 . S
Co196 O209 2.244 . S
O197 Co196 2.216 . S
O197 C204 1.247 . S
O198 Co196 2.091 . S
O198 C204 1.261 . S
C199 O208 1.247 . S
C199 O209 1.272 . S
O200 Co196 2.004 . S
O200 C205 1.259 . S
Co201 O202 2.061 . S
Co201 O207 2.052 . S
Co201 O209 2.135 . S
O202 Co201 2.061 . S
O202 C205 1.235 . S
C203 O206 1.238 . S
C203 O207 1.241 . S
C204 O197 1.247 . S
C204 O198 1.261 . S
C205 O200 1.259 . S
C205 O202 1.235 . S
O206 Co196 2.021 . S
O206 C203 1.238 . S
O207 Co201 2.052 . S
O207 C203 1.241 . S
O208 Co196 2.137 . S
O208 C199 1.247 . S
O209 Co196 2.244 . S
O209 C199 1.272 . S
O209 Co201 2.135 . S
Co210 O211 2.216 . S
Co210 O212 2.091 . S
Co210 O214 2.004 . S
Co210 O220 2.021 . S
Co210 O222 2.137 . S
Co210 O223 2.244 . S
O211 Co210 2.216 . S
O211 C218 1.247 . S
O212 Co210 2.091 . S
O212 C218 1.261 . S
C213 O222 1.247 . S
C213 O223 1.272 . S
O214 Co210 2.004 . S
O214 C219 1.259 . S
Co215 O216 2.061 . S
Co215 O221 2.052 . S
Co215 O223 2.135 . S
O216 Co215 2.061 . S
O216 C219 1.235 . S
C217 O220 1.238 . S
C217 O221 1.241 . S
C218 O211 1.247 . S
C218 O212 1.261 . S
C219 O214 1.259 . S
C219 O216 1.235 . S
O220 Co210 2.021 . S
O220 C217 1.238 . S
O221 Co215 2.052 . S
O221 C217 1.241 . S
O222 Co210 2.137 . S
O222 C213 1.247 . S
O223 Co210 2.244 . S
O223 C213 1.272 . S
O223 Co215 2.135 . S
H224 C242 0.951 . S
H225 C244 0.951 . S
H226 C246 0.950 . S
H227 C247 0.950 . S
H228 C249 0.950 . S
H229 C252 0.950 . S
H230 C253 0.950 . S
H231 C255 0.950 . S
H232 C256 0.950 . S
H233 C257 0.951 . S
H234 C259 0.951 . S
H235 C261 0.950 . S
H236 C262 0.950 . S
H237 C264 0.950 . S
H238 C267 0.950 . S
H239 C268 0.950 . S
H240 C270 0.950 . S
H241 C271 0.950 . S
C242 H224 0.951 . S
C242 C243 1.366 . S
C242 C244 1.388 . S
C243 C242 1.366 . S
C243 C247 1.385 . S
C244 H225 0.951 . S
C244 C242 1.388 . S
C244 C245 1.366 . S
C245 C244 1.366 . S
C245 C246 1.414 . S
C245 C248 1.499 . S
C246 H226 0.950 . S
C246 C245 1.414 . S
C246 C247 1.374 . S
C247 H227 0.950 . S
C247 C243 1.385 . S
C247 C246 1.374 . S
C248 C245 1.499 . S
C248 C249 1.373 . S
C248 C250 1.389 . S
C249 H228 0.950 . S
C249 C248 1.373 . S
C249 C265 1.377 . S
C250 C248 1.389 . S
C250 C251 1.524 . S
C250 C264 1.377 . S
C251 C250 1.524 . S
C251 C252 1.397 . S
C251 C256 1.363 . S
C252 H229 0.950 . S
C252 C251 1.397 . S
C252 C253 1.334 . S
C253 H230 0.950 . S
C253 C252 1.334 . S
C253 C254 1.287 . S
C254 C253 1.287 . S
C254 C255 1.524 . S
C254 H273 0.913 . S
C255 H231 0.950 . S
C255 C254 1.524 . S
C255 C256 1.415 . S
C256 H232 0.950 . S
C256 C251 1.363 . S
C256 C255 1.415 . S
C257 H233 0.951 . S
C257 C258 1.366 . S
C257 C259 1.388 . S
C258 C257 1.366 . S
C258 C262 1.385 . S
C259 H234 0.951 . S
C259 C257 1.388 . S
C259 C260 1.366 . S
C260 C259 1.366 . S
C260 C261 1.414 . S
C260 C263 1.499 . S
C261 H235 0.950 . S
C261 C260 1.414 . S
C261 C262 1.374 . S
C262 H236 0.950 . S
C262 C258 1.385 . S
C262 C261 1.374 . S
C263 C260 1.499 . S
C263 C264 1.373 . S
C263 C265 1.389 . S
C264 H237 0.950 . S
C264 C250 1.377 . S
C264 C263 1.373 . S
C265 C249 1.377 . S
C265 C263 1.389 . S
C265 C266 1.524 . S
C266 C265 1.524 . S
C266 C267 1.397 . S
C266 C271 1.363 . S
C267 H238 0.950 . S
C267 C266 1.397 . S
C267 C268 1.334 . S
C268 H239 0.950 . S
C268 C267 1.334 . S
C268 C269 1.287 . S
C269 C268 1.287 . S
C269 C270 1.524 . S
C269 H272 0.999 . S
C270 H240 0.950 . S
C270 C269 1.524 . S
C270 C271 1.415 . S
C271 H241 0.950 . S
C271 C266 1.363 . S
C271 C270 1.415 . S
H272 C269 0.999 . S
H273 C254 0.913 . S
H274 C292 0.951 . S
H275 C294 0.951 . S
H276 C296 0.950 . S
H277 C297 0.950 . S
H278 C299 0.950 . S
H279 C302 0.950 . S
H280 C303 0.950 . S
H281 C305 0.950 . S
H282 C306 0.950 . S
H283 C307 0.951 . S
H284 C309 0.951 . S
H285 C311 0.950 . S
H286 C312 0.950 . S
H287 C314 0.950 . S
H288 C317 0.950 . S
H289 C318 0.950 . S
H290 C320 0.950 . S
H291 C321 0.950 . S
C292 H274 0.951 . S
C292 C293 1.366 . S
C292 C294 1.388 . S
C293 C292 1.366 . S
C293 C297 1.385 . S
C294 H275 0.951 . S
C294 C292 1.388 . S
C294 C295 1.366 . S
C295 C294 1.366 . S
C295 C296 1.414 . S
C295 C298 1.499 . S
C296 H276 0.950 . S
C296 C295 1.414 . S
C296 C297 1.374 . S
C297 H277 0.950 . S
C297 C293 1.385 . S
C297 C296 1.374 . S
C298 C295 1.499 . S
C298 C299 1.373 . S
C298 C300 1.389 . S
C299 H278 0.950 . S
C299 C298 1.373 . S
C299 C315 1.377 . S
C300 C298 1.389 . S
C300 C301 1.524 . S
C300 C314 1.377 . S
C301 C300 1.524 . S
C301 C302 1.397 . S
C301 C306 1.363 . S
C302 H279 0.950 . S
C302 C301 1.397 . S
C302 C303 1.334 . S
C303 H280 0.950 . S
C303 C302 1.334 . S
C303 C304 1.287 . S
C304 C303 1.287 . S
C304 C305 1.524 . S
C304 H323 0.913 . S
C305 H281 0.950 . S
C305 C304 1.524 . S
C305 C306 1.415 . S
C306 H282 0.950 . S
C306 C301 1.363 . S
C306 C305 1.415 . S
C307 H283 0.951 . S
C307 C308 1.366 . S
C307 C309 1.388 . S
C308 C307 1.366 . S
C308 C312 1.385 . S
C309 H284 0.951 . S
C309 C307 1.388 . S
C309 C310 1.366 . S
C310 C309 1.366 . S
C310 C311 1.414 . S
C310 C313 1.499 . S
C311 H285 0.950 . S
C311 C310 1.414 . S
C311 C312 1.374 . S
C312 H286 0.950 . S
C312 C308 1.385 . S
C312 C311 1.374 . S
C313 C310 1.499 . S
C313 C314 1.373 . S
C313 C315 1.389 . S
C314 H287 0.950 . S
C314 C300 1.377 . S
C314 C313 1.373 . S
C315 C299 1.377 . S
C315 C313 1.389 . S
C315 C316 1.524 . S
C316 C315 1.524 . S
C316 C317 1.397 . S
C316 C321 1.363 . S
C317 H288 0.950 . S
C317 C316 1.397 . S
C317 C318 1.334 . S
C318 H289 0.950 . S
C318 C317 1.334 . S
C318 C319 1.287 . S
C319 C318 1.287 . S
C319 C320 1.524 . S
C319 H322 0.999 . S
C320 H290 0.950 . S
C320 C319 1.524 . S
C320 C321 1.415 . S
C321 H291 0.950 . S
C321 C316 1.363 . S
C321 C320 1.415 . S
H322 C319 0.999 . S
H323 C304 0.913 . S
H324 C342 0.951 . S
H325 C344 0.951 . S
H326 C346 0.950 . S
H327 C347 0.950 . S
H328 C349 0.950 . S
H329 C352 0.950 . S
H330 C353 0.950 . S
H331 C355 0.950 . S
H332 C356 0.950 . S
H333 C357 0.951 . S
H334 C359 0.951 . S
H335 C361 0.950 . S
H336 C362 0.950 . S
H337 C364 0.950 . S
H338 C367 0.950 . S
H339 C368 0.950 . S
H340 C370 0.950 . S
H341 C371 0.950 . S
C342 H324 0.951 . S
C342 C343 1.366 . S
C342 C344 1.388 . S
C343 C342 1.366 . S
C343 C347 1.385 . S
C344 H325 0.951 . S
C344 C342 1.388 . S
C344 C345 1.366 . S
C345 C344 1.366 . S
C345 C346 1.414 . S
C345 C348 1.499 . S
C346 H326 0.950 . S
C346 C345 1.414 . S
C346 C347 1.374 . S
C347 H327 0.950 . S
C347 C343 1.385 . S
C347 C346 1.374 . S
C348 C345 1.499 . S
C348 C349 1.373 . S
C348 C350 1.389 . S
C349 H328 0.950 . S
C349 C348 1.373 . S
C349 C365 1.377 . S
C350 C348 1.389 . S
C350 C351 1.524 . S
C350 C364 1.377 . S
C351 C350 1.524 . S
C351 C352 1.397 . S
C351 C356 1.363 . S
C352 H329 0.950 . S
C352 C351 1.397 . S
C352 C353 1.334 . S
C353 H330 0.950 . S
C353 C352 1.334 . S
C353 C354 1.287 . S
C354 C353 1.287 . S
C354 C355 1.524 . S
C354 H373 0.913 . S
C355 H331 0.950 . S
C355 C354 1.524 . S
C355 C356 1.415 . S
C356 H332 0.950 . S
C356 C351 1.363 . S
C356 C355 1.415 . S
C357 H333 0.951 . S
C357 C358 1.366 . S
C357 C359 1.388 . S
C358 C357 1.366 . S
C358 C362 1.385 . S
C359 H334 0.951 . S
C359 C357 1.388 . S
C359 C360 1.366 . S
C360 C359 1.366 . S
C360 C361 1.414 . S
C360 C363 1.499 . S
C361 H335 0.950 . S
C361 C360 1.414 . S
C361 C362 1.374 . S
C362 H336 0.950 . S
C362 C358 1.385 . S
C362 C361 1.374 . S
C363 C360 1.499 . S
C363 C364 1.373 . S
C363 C365 1.389 . S
C364 H337 0.950 . S
C364 C350 1.377 . S
C364 C363 1.373 . S
C365 C349 1.377 . S
C365 C363 1.389 . S
C365 C366 1.524 . S
C366 C365 1.524 . S
C366 C367 1.397 . S
C366 C371 1.363 . S
C367 H338 0.950 . S
C367 C366 1.397 . S
C367 C368 1.334 . S
C368 H339 0.950 . S
C368 C367 1.334 . S
C368 C369 1.287 . S
C369 C368 1.287 . S
C369 C370 1.524 . S
C369 H372 0.999 . S
C370 H340 0.950 . S
C370 C369 1.524 . S
C370 C371 1.415 . S
C371 H341 0.950 . S
C371 C366 1.363 . S
C371 C370 1.415 . S
H372 C369 0.999 . S
H373 C354 0.913 . S
H374 C392 0.951 . S
H375 C394 0.951 . S
H376 C396 0.950 . S
H377 C397 0.950 . S
H378 C399 0.950 . S
H379 C402 0.950 . S
H380 C403 0.950 . S
H381 C405 0.950 . S
H382 C406 0.950 . S
H383 C407 0.951 . S
H384 C409 0.951 . S
H385 C411 0.950 . S
H386 C412 0.950 . S
H387 C414 0.950 . S
H388 C417 0.950 . S
H389 C418 0.950 . S
H390 C420 0.950 . S
H391 C421 0.950 . S
C392 H374 0.951 . S
C392 C393 1.366 . S
C392 C394 1.388 . S
C393 C392 1.366 . S
C393 C397 1.385 . S
C394 H375 0.951 . S
C394 C392 1.388 . S
C394 C395 1.366 . S
C395 C394 1.366 . S
C395 C396 1.414 . S
C395 C398 1.499 . S
C396 H376 0.950 . S
C396 C395 1.414 . S
C396 C397 1.374 . S
C397 H377 0.950 . S
C397 C393 1.385 . S
C397 C396 1.374 . S
C398 C395 1.499 . S
C398 C399 1.373 . S
C398 C400 1.389 . S
C399 H378 0.950 . S
C399 C398 1.373 . S
C399 C415 1.377 . S
C400 C398 1.389 . S
C400 C401 1.524 . S
C400 C414 1.377 . S
C401 C400 1.524 . S
C401 C402 1.397 . S
C401 C406 1.363 . S
C402 H379 0.950 . S
C402 C401 1.397 . S
C402 C403 1.334 . S
C403 H380 0.950 . S
C403 C402 1.334 . S
C403 C404 1.287 . S
C404 C403 1.287 . S
C404 C405 1.524 . S
C404 H423 0.913 . S
C405 H381 0.950 . S
C405 C404 1.524 . S
C405 C406 1.415 . S
C406 H382 0.950 . S
C406 C401 1.363 . S
C406 C405 1.415 . S
C407 H383 0.951 . S
C407 C408 1.366 . S
C407 C409 1.388 . S
C408 C407 1.366 . S
C408 C412 1.385 . S
C409 H384 0.951 . S
C409 C407 1.388 . S
C409 C410 1.366 . S
C410 C409 1.366 . S
C410 C411 1.414 . S
C410 C413 1.499 . S
C411 H385 0.950 . S
C411 C410 1.414 . S
C411 C412 1.374 . S
C412 H386 0.950 . S
C412 C408 1.385 . S
C412 C411 1.374 . S
C413 C410 1.499 . S
C413 C414 1.373 . S
C413 C415 1.389 . S
C414 H387 0.950 . S
C414 C400 1.377 . S
C414 C413 1.373 . S
C415 C399 1.377 . S
C415 C413 1.389 . S
C415 C416 1.524 . S
C416 C415 1.524 . S
C416 C417 1.397 . S
C416 C421 1.363 . S
C417 H388 0.950 . S
C417 C416 1.397 . S
C417 C418 1.334 . S
C418 H389 0.950 . S
C418 C417 1.334 . S
C418 C419 1.287 . S
C419 C418 1.287 . S
C419 C420 1.524 . S
C419 H422 0.999 . S
C420 H390 0.950 . S
C420 C419 1.524 . S
C420 C421 1.415 . S
C421 H391 0.950 . S
C421 C416 1.363 . S
C421 C420 1.415 . S
H422 C419 0.999 . S
H423 C404 0.913 . S
H424 C442 0.951 . S
H425 C444 0.951 . S
H426 C446 0.950 . S
H427 C447 0.950 . S
H428 C449 0.950 . S
H429 C452 0.950 . S
H430 C453 0.950 . S
H431 C455 0.950 . S
H432 C456 0.950 . S
H433 C457 0.951 . S
H434 C459 0.951 . S
H435 C461 0.950 . S
H436 C462 0.950 . S
H437 C464 0.950 . S
H438 C467 0.950 . S
H439 C468 0.950 . S
H440 C470 0.950 . S
H441 C471 0.950 . S
C442 H424 0.951 . S
C442 C443 1.366 . S
C442 C444 1.388 . S
C443 C442 1.366 . S
C443 C447 1.385 . S
C444 H425 0.951 . S
C444 C442 1.388 . S
C444 C445 1.366 . S
C445 C444 1.366 . S
C445 C446 1.414 . S
C445 C448 1.499 . S
C446 H426 0.950 . S
C446 C445 1.414 . S
C446 C447 1.374 . S
C447 H427 0.950 . S
C447 C443 1.385 . S
C447 C446 1.374 . S
C448 C445 1.499 . S
C448 C449 1.373 . S
C448 C450 1.389 . S
C449 H428 0.950 . S
C449 C448 1.373 . S
C449 C465 1.377 . S
C450 C448 1.389 . S
C450 C451 1.524 . S
C450 C464 1.377 . S
C451 C450 1.524 . S
C451 C452 1.397 . S
C451 C456 1.363 . S
C452 H429 0.950 . S
C452 C451 1.397 . S
C452 C453 1.334 . S
C453 H430 0.950 . S
C453 C452 1.334 . S
C453 C454 1.287 . S
C454 C453 1.287 . S
C454 C455 1.524 . S
C454 H473 0.913 . S
C455 H431 0.950 . S
C455 C454 1.524 . S
C455 C456 1.415 . S
C456 H432 0.950 . S
C456 C451 1.363 . S
C456 C455 1.415 . S
C457 H433 0.951 . S
C457 C458 1.366 . S
C457 C459 1.388 . S
C458 C457 1.366 . S
C458 C462 1.385 . S
C459 H434 0.951 . S
C459 C457 1.388 . S
C459 C460 1.366 . S
C460 C459 1.366 . S
C460 C461 1.414 . S
C460 C463 1.499 . S
C461 H435 0.950 . S
C461 C460 1.414 . S
C461 C462 1.374 . S
C462 H436 0.950 . S
C462 C458 1.385 . S
C462 C461 1.374 . S
C463 C460 1.499 . S
C463 C464 1.373 . S
C463 C465 1.389 . S
C464 H437 0.950 . S
C464 C450 1.377 . S
C464 C463 1.373 . S
C465 C449 1.377 . S
C465 C463 1.389 . S
C465 C466 1.524 . S
C466 C465 1.524 . S
C466 C467 1.397 . S
C466 C471 1.363 . S
C467 H438 0.950 . S
C467 C466 1.397 . S
C467 C468 1.334 . S
C468 H439 0.950 . S
C468 C467 1.334 . S
C468 C469 1.287 . S
C469 C468 1.287 . S
C469 C470 1.524 . S
C469 H472 0.999 . S
C470 H440 0.950 . S
C470 C469 1.524 . S
C470 C471 1.415 . S
C471 H441 0.950 . S
C471 C466 1.363 . S
C471 C470 1.415 . S
H472 C469 0.999 . S
H473 C454 0.913 . S
H474 C492 0.951 . S
H475 C494 0.951 . S
H476 C496 0.950 . S
H477 C497 0.950 . S
H478 C499 0.950 . S
H479 C502 0.950 . S
H480 C503 0.950 . S
H481 C505 0.950 . S
H482 C506 0.950 . S
H483 C507 0.951 . S
H484 C509 0.951 . S
H485 C511 0.950 . S
H486 C512 0.950 . S
H487 C514 0.950 . S
H488 C517 0.950 . S
H489 C518 0.950 . S
H490 C520 0.950 . S
H491 C521 0.950 . S
C492 H474 0.951 . S
C492 C493 1.366 . S
C492 C494 1.388 . S
C493 C492 1.366 . S
C493 C497 1.385 . S
C494 H475 0.951 . S
C494 C492 1.388 . S
C494 C495 1.366 . S
C495 C494 1.366 . S
C495 C496 1.414 . S
C495 C498 1.499 . S
C496 H476 0.950 . S
C496 C495 1.414 . S
C496 C497 1.374 . S
C497 H477 0.950 . S
C497 C493 1.385 . S
C497 C496 1.374 . S
C498 C495 1.499 . S
C498 C499 1.373 . S
C498 C500 1.389 . S
C499 H478 0.950 . S
C499 C498 1.373 . S
C499 C515 1.377 . S
C500 C498 1.389 . S
C500 C501 1.524 . S
C500 C514 1.377 . S
C501 C500 1.524 . S
C501 C502 1.397 . S
C501 C506 1.363 . S
C502 H479 0.950 . S
C502 C501 1.397 . S
C502 C503 1.334 . S
C503 H480 0.950 . S
C503 C502 1.334 . S
C503 C504 1.287 . S
C504 C503 1.287 . S
C504 C505 1.524 . S
C504 H523 0.913 . S
C505 H481 0.950 . S
C505 C504 1.524 . S
C505 C506 1.415 . S
C506 H482 0.950 . S
C506 C501 1.363 . S
C506 C505 1.415 . S
C507 H483 0.951 . S
C507 C508 1.366 . S
C507 C509 1.388 . S
C508 C507 1.366 . S
C508 C512 1.385 . S
C509 H484 0.951 . S
C509 C507 1.388 . S
C509 C510 1.366 . S
C510 C509 1.366 . S
C510 C511 1.414 . S
C510 C513 1.499 . S
C511 H485 0.950 . S
C511 C510 1.414 . S
C511 C512 1.374 . S
C512 H486 0.950 . S
C512 C508 1.385 . S
C512 C511 1.374 . S
C513 C510 1.499 . S
C513 C514 1.373 . S
C513 C515 1.389 . S
C514 H487 0.950 . S
C514 C500 1.377 . S
C514 C513 1.373 . S
C515 C499 1.377 . S
C515 C513 1.389 . S
C515 C516 1.524 . S
C516 C515 1.524 . S
C516 C517 1.397 . S
C516 C521 1.363 . S
C517 H488 0.950 . S
C517 C516 1.397 . S
C517 C518 1.334 . S
C518 H489 0.950 . S
C518 C517 1.334 . S
C518 C519 1.287 . S
C519 C518 1.287 . S
C519 C520 1.524 . S
C519 H522 0.999 . S
C520 H490 0.950 . S
C520 C519 1.524 . S
C520 C521 1.415 . S
C521 H491 0.950 . S
C521 C516 1.363 . S
C521 C520 1.415 . S
H522 C519 0.999 . S
H523 C504 0.913 . S
H524 C542 0.951 . S
H525 C544 0.951 . S
H526 C546 0.950 . S
H527 C547 0.950 . S
H528 C549 0.950 . S
H529 C552 0.950 . S
H530 C553 0.950 . S
H531 C555 0.950 . S
H532 C556 0.950 . S
H533 C557 0.951 . S
H534 C559 0.951 . S
H535 C561 0.950 . S
H536 C562 0.950 . S
H537 C564 0.950 . S
H538 C567 0.950 . S
H539 C568 0.950 . S
H540 C570 0.950 . S
H541 C571 0.950 . S
C542 H524 0.951 . S
C542 C543 1.366 . S
C542 C544 1.388 . S
C543 C542 1.366 . S
C543 C547 1.385 . S
C544 H525 0.951 . S
C544 C542 1.388 . S
C544 C545 1.366 . S
C545 C544 1.366 . S
C545 C546 1.414 . S
C545 C548 1.499 . S
C546 H526 0.950 . S
C546 C545 1.414 . S
C546 C547 1.374 . S
C547 H527 0.950 . S
C547 C543 1.385 . S
C547 C546 1.374 . S
C548 C545 1.499 . S
C548 C549 1.373 . S
C548 C550 1.389 . S
C549 H528 0.950 . S
C549 C548 1.373 . S
C549 C565 1.377 . S
C550 C548 1.389 . S
C550 C551 1.524 . S
C550 C564 1.377 . S
C551 C550 1.524 . S
C551 C552 1.397 . S
C551 C556 1.363 . S
C552 H529 0.950 . S
C552 C551 1.397 . S
C552 C553 1.334 . S
C553 H530 0.950 . S
C553 C552 1.334 . S
C553 C554 1.287 . S
C554 C553 1.287 . S
C554 C555 1.524 . S
C554 H573 0.913 . S
C555 H531 0.950 . S
C555 C554 1.524 . S
C555 C556 1.415 . S
C556 H532 0.950 . S
C556 C551 1.363 . S
C556 C555 1.415 . S
C557 H533 0.951 . S
C557 C558 1.366 . S
C557 C559 1.388 . S
C558 C557 1.366 . S
C558 C562 1.385 . S
C559 H534 0.951 . S
C559 C557 1.388 . S
C559 C560 1.366 . S
C560 C559 1.366 . S
C560 C561 1.414 . S
C560 C563 1.499 . S
C561 H535 0.950 . S
C561 C560 1.414 . S
C561 C562 1.374 . S
C562 H536 0.950 . S
C562 C558 1.385 . S
C562 C561 1.374 . S
C563 C560 1.499 . S
C563 C564 1.373 . S
C563 C565 1.389 . S
C564 H537 0.950 . S
C564 C550 1.377 . S
C564 C563 1.373 . S
C565 C549 1.377 . S
C565 C563 1.389 . S
C565 C566 1.524 . S
C566 C565 1.524 . S
C566 C567 1.397 . S
C566 C571 1.363 . S
C567 H538 0.950 . S
C567 C566 1.397 . S
C567 C568 1.334 . S
C568 H539 0.950 . S
C568 C567 1.334 . S
C568 C569 1.287 . S
C569 C568 1.287 . S
C569 C570 1.524 . S
C569 H572 0.999 . S
C570 H540 0.950 . S
C570 C569 1.524 . S
C570 C571 1.415 . S
C571 H541 0.950 . S
C571 C566 1.363 . S
C571 C570 1.415 . S
H572 C569 0.999 . S
H573 C554 0.913 . S
H574 C592 0.951 . S
H575 C594 0.951 . S
H576 C596 0.950 . S
H577 C597 0.950 . S
H578 C599 0.950 . S
H579 C602 0.950 . S
H580 C603 0.950 . S
H581 C605 0.950 . S
H582 C606 0.950 . S
H583 C607 0.951 . S
H584 C609 0.951 . S
H585 C611 0.950 . S
H586 C612 0.950 . S
H587 C614 0.950 . S
H588 C617 0.950 . S
H589 C618 0.950 . S
H590 C620 0.950 . S
H591 C621 0.950 . S
C592 H574 0.951 . S
C592 C593 1.366 . S
C592 C594 1.388 . S
C593 C592 1.366 . S
C593 C597 1.385 . S
C594 H575 0.951 . S
C594 C592 1.388 . S
C594 C595 1.366 . S
C595 C594 1.366 . S
C595 C596 1.414 . S
C595 C598 1.499 . S
C596 H576 0.950 . S
C596 C595 1.414 . S
C596 C597 1.374 . S
C597 H577 0.950 . S
C597 C593 1.385 . S
C597 C596 1.374 . S
C598 C595 1.499 . S
C598 C599 1.373 . S
C598 C600 1.389 . S
C599 H578 0.950 . S
C599 C598 1.373 . S
C599 C615 1.377 . S
C600 C598 1.389 . S
C600 C601 1.524 . S
C600 C614 1.377 . S
C601 C600 1.524 . S
C601 C602 1.397 . S
C601 C606 1.363 . S
C602 H579 0.950 . S
C602 C601 1.397 . S
C602 C603 1.334 . S
C603 H580 0.950 . S
C603 C602 1.334 . S
C603 C604 1.287 . S
C604 C603 1.287 . S
C604 C605 1.524 . S
C604 H623 0.913 . S
C605 H581 0.950 . S
C605 C604 1.524 . S
C605 C606 1.415 . S
C606 H582 0.950 . S
C606 C601 1.363 . S
C606 C605 1.415 . S
C607 H583 0.951 . S
C607 C608 1.366 . S
C607 C609 1.388 . S
C608 C607 1.366 . S
C608 C612 1.385 . S
C609 H584 0.951 . S
C609 C607 1.388 . S
C609 C610 1.366 . S
C610 C609 1.366 . S
C610 C611 1.414 . S
C610 C613 1.499 . S
C611 H585 0.950 . S
C611 C610 1.414 . S
C611 C612 1.374 . S
C612 H586 0.950 . S
C612 C608 1.385 . S
C612 C611 1.374 . S
C613 C610 1.499 . S
C613 C614 1.373 . S
C613 C615 1.389 . S
C614 H587 0.950 . S
C614 C600 1.377 . S
C614 C613 1.373 . S
C615 C599 1.377 . S
C615 C613 1.389 . S
C615 C616 1.524 . S
C616 C615 1.524 . S
C616 C617 1.397 . S
C616 C621 1.363 . S
C617 H588 0.950 . S
C617 C616 1.397 . S
C617 C618 1.334 . S
C618 H589 0.950 . S
C618 C617 1.334 . S
C618 C619 1.287 . S
C619 C618 1.287 . S
C619 C620 1.524 . S
C619 H622 0.999 . S
C620 H590 0.950 . S
C620 C619 1.524 . S
C620 C621 1.415 . S
C621 H591 0.950 . S
C621 C616 1.363 . S
C621 C620 1.415 . S
H622 C619 0.999 . S
H623 C604 0.913 . S
H624 C642 0.951 . S
H625 C644 0.951 . S
H626 C646 0.950 . S
H627 C647 0.950 . S
H628 C649 0.950 . S
H629 C652 0.950 . S
H630 C653 0.950 . S
H631 C655 0.950 . S
H632 C656 0.950 . S
H633 C657 0.951 . S
H634 C659 0.951 . S
H635 C661 0.951 . S
H636 C662 0.950 . S
H637 C664 0.950 . S
H638 C667 0.950 . S
H639 C668 0.950 . S
H640 C670 0.950 . S
H641 C671 0.950 . S
C642 H624 0.951 . S
C642 C643 1.366 . S
C642 C644 1.388 . S
C643 C642 1.366 . S
C643 C647 1.385 . S
C644 H625 0.951 . S
C644 C642 1.388 . S
C644 C645 1.366 . S
C645 C644 1.366 . S
C645 C646 1.414 . S
C645 C648 1.499 . S
C646 H626 0.950 . S
C646 C645 1.414 . S
C646 C647 1.374 . S
C647 H627 0.950 . S
C647 C643 1.385 . S
C647 C646 1.374 . S
C648 C645 1.499 . S
C648 C649 1.373 . S
C648 C650 1.389 . S
C649 H628 0.950 . S
C649 C648 1.373 . S
C649 C665 1.377 . S
C650 C648 1.389 . S
C650 C651 1.524 . S
C650 C664 1.377 . S
C651 C650 1.524 . S
C651 C652 1.397 . S
C651 C656 1.363 . S
C652 H629 0.950 . S
C652 C651 1.397 . S
C652 C653 1.334 . S
C653 H630 0.950 . S
C653 C652 1.334 . S
C653 C654 1.287 . S
C654 C653 1.287 . S
C654 C655 1.524 . S
C654 H673 0.913 . S
C655 H631 0.950 . S
C655 C654 1.524 . S
C655 C656 1.415 . S
C656 H632 0.950 . S
C656 C651 1.363 . S
C656 C655 1.415 . S
C657 H633 0.951 . S
C657 C658 1.366 1_655 S
C657 C659 1.388 . S
C658 C657 1.366 1_455 S
C658 C662 1.385 . S
C659 H634 0.951 . S
C659 C657 1.388 . S
C659 C660 1.366 . S
C660 C659 1.366 . S
C660 C661 1.404 1_655 S
C660 C663 1.499 . S
C661 H635 0.951 . S
C661 C660 1.404 1_455 S
C661 C662 1.383 . S
C662 H636 0.950 . S
C662 C658 1.385 . S
C662 C661 1.383 . S
C663 C660 1.499 . S
C663 C664 1.373 . S
C663 C665 1.389 . S
C664 H637 0.950 . S
C664 C650 1.377 . S
C664 C663 1.373 . S
C665 C649 1.377 . S
C665 C663 1.389 . S
C665 C666 1.543 . S
C666 C665 1.543 . S
C666 C667 1.371 1_655 S
C666 C671 1.370 . S
C667 H638 0.950 . S
C667 C666 1.371 1_455 S
C667 C668 1.334 . S
C668 H639 0.950 . S
C668 C667 1.334 . S
C668 C669 1.287 . S
C669 C668 1.287 . S
C669 C670 1.524 . S
C669 H672 0.999 . S
C670 H640 0.950 . S
C670 C669 1.524 . S
C670 C671 1.415 1_455 S
C671 H641 0.950 . S
C671 C666 1.370 . S
C671 C670 1.415 1_655 S
H672 C669 0.999 . S
H673 C654 0.913 . S
H674 C692 0.951 . S
H675 C694 0.951 . S
H676 C696 0.950 . S
H677 C697 0.950 . S
H678 C699 0.950 . S
H679 C702 0.950 . S
H680 C703 0.950 . S
H681 C705 0.950 . S
H682 C706 0.950 1_565 S
H683 C707 0.951 . S
H684 C709 0.951 . S
H685 C711 0.950 . S
H686 C712 0.950 . S
H687 C714 0.950 . S
H688 C717 0.950 . S
H689 C718 0.950 . S
H690 C720 0.950 . S
H691 C721 0.950 . S
C692 H674 0.951 . S
C692 C693 1.366 . S
C692 C694 1.388 1_545 S
C693 C692 1.366 . S
C693 C697 1.385 . S
C694 H675 0.951 . S
C694 C692 1.388 1_565 S
C694 C695 1.366 . S
C695 C694 1.366 . S
C695 C696 1.414 . S
C695 C698 1.499 . S
C696 H676 0.950 . S
C696 C695 1.414 . S
C696 C697 1.374 1_565 S
C697 H677 0.950 . S
C697 C693 1.385 . S
C697 C696 1.374 1_545 S
C698 C695 1.499 . S
C698 C699 1.373 . S
C698 C700 1.389 . S
C699 H678 0.950 . S
C699 C698 1.373 . S
C699 C715 1.377 . S
C700 C698 1.389 . S
C700 C701 1.524 1_565 S
C700 C714 1.377 . S
C701 C700 1.524 1_545 S
C701 C702 1.397 . S
C701 C706 1.363 . S
C702 H679 0.950 . S
C702 C701 1.397 . S
C702 C703 1.334 . S
C703 H680 0.950 . S
C703 C702 1.334 . S
C703 C704 1.287 . S
C704 C703 1.287 . S
C704 C705 1.524 . S
C704 H723 0.913 . S
C705 H681 0.950 . S
C705 C704 1.524 . S
C705 C706 1.415 . S
C706 H682 0.950 1_545 S
C706 C701 1.363 . S
C706 C705 1.415 . S
C707 H683 0.951 . S
C707 C708 1.366 . S
C707 C709 1.388 . S
C708 C707 1.366 . S
C708 C712 1.385 1_455 S
C709 H684 0.951 . S
C709 C707 1.388 . S
C709 C710 1.366 1_455 S
C710 C709 1.366 1_655 S
C710 C711 1.414 . S
C710 C713 1.499 . S
C711 H685 0.950 . S
C711 C710 1.414 . S
C711 C712 1.374 . S
C712 H686 0.950 . S
C712 C708 1.385 1_655 S
C712 C711 1.374 . S
C713 C710 1.499 . S
C713 C714 1.373 . S
C713 C715 1.389 . S
C714 H687 0.950 . S
C714 C700 1.377 . S
C714 C713 1.373 . S
C715 C699 1.377 . S
C715 C713 1.389 . S
C715 C716 1.524 . S
C716 C715 1.524 . S
C716 C717 1.397 . S
C716 C721 1.363 1_655 S
C717 H688 0.950 . S
C717 C716 1.397 . S
C717 C718 1.334 . S
C718 H689 0.950 . S
C718 C717 1.334 . S
C718 C719 1.287 1_655 S
C719 C718 1.287 1_455 S
C719 C720 1.524 . S
C719 H722 0.999 . S
C720 H690 0.950 . S
C720 C719 1.524 . S
C720 C721 1.415 . S
C721 H691 0.950 . S
C721 C716 1.363 1_455 S
C721 C720 1.415 . S
H722 C719 0.999 . S
H723 C704 0.913 . S
H724 C742 0.951 . S
H725 C744 0.951 . S
H726 C746 0.950 . S
H727 C747 0.950 . S
H728 C749 0.950 . S
H729 C752 0.968 . S
H730 C753 0.950 . S
H731 C755 0.950 . S
H732 C756 0.950 . S
H733 C757 0.951 . S
H734 C759 0.951 . S
H735 C761 0.950 . S
H736 C762 0.950 . S
H737 C764 0.950 . S
H738 C767 0.950 . S
H739 C768 0.950 . S
H740 C770 0.950 . S
H741 C771 0.950 . S
C742 H724 0.951 . S
C742 C743 1.366 1_565 S
C742 C744 1.388 . S
C743 C742 1.366 1_545 S
C743 C747 1.385 . S
C744 H725 0.951 . S
C744 C742 1.388 . S
C744 C745 1.366 . S
C745 C744 1.366 . S
C745 C746 1.414 1_565 S
C745 C748 1.499 . S
C746 H726 0.950 . S
C746 C745 1.414 1_545 S
C746 C747 1.374 . S
C747 H727 0.950 . S
C747 C743 1.385 . S
C747 C746 1.374 . S
C748 C745 1.499 . S
C748 C749 1.373 . S
C748 C750 1.389 . S
C749 H728 0.950 . S
C749 C748 1.373 . S
C749 C765 1.377 . S
C750 C748 1.389 . S
C750 C751 1.524 . S
C750 C764 1.377 . S
C751 C750 1.524 . S
C751 C752 1.371 1_565 S
C751 C756 1.363 . S
C752 H729 0.968 . S
C752 C751 1.371 1_545 S
C752 C753 1.342 . S
C753 H730 0.950 . S
C753 C752 1.342 . S
C753 C754 1.287 1_545 S
C754 C753 1.287 1_565 S
C754 C755 1.524 . S
C754 H773 0.913 . S
C755 H731 0.950 . S
C755 C754 1.524 . S
C755 C756 1.415 . S
C756 H732 0.950 . S
C756 C751 1.363 . S
C756 C755 1.415 . S
C757 H733 0.951 . S
C757 C758 1.366 . S
C757 C759 1.388 . S
C758 C757 1.366 . S
C758 C762 1.385 . S
C759 H734 0.951 . S
C759 C757 1.388 . S
C759 C760 1.366 . S
C760 C759 1.366 . S
C760 C761 1.414 . S
C760 C763 1.499 . S
C761 H735 0.950 . S
C761 C760 1.414 . S
C761 C762 1.374 . S
C762 H736 0.950 . S
C762 C758 1.385 . S
C762 C761 1.374 . S
C763 C760 1.499 . S
C763 C764 1.373 . S
C763 C765 1.389 . S
C764 H737 0.950 . S
C764 C750 1.377 . S
C764 C763 1.373 . S
C765 C749 1.377 . S
C765 C763 1.389 . S
C765 C766 1.524 . S
C766 C765 1.524 . S
C766 C767 1.397 . S
C766 C771 1.363 . S
C767 H738 0.950 . S
C767 C766 1.397 . S
C767 C768 1.334 . S
C768 H739 0.950 . S
C768 C767 1.334 . S
C768 C769 1.287 . S
C769 C768 1.287 . S
C769 C770 1.524 . S
C769 H772 0.999 . S
C770 H740 0.950 . S
C770 C769 1.524 . S
C770 C771 1.415 . S
C771 H741 0.950 . S
C771 C766 1.363 . S
C771 C770 1.415 . S
H772 C769 0.999 . S
H773 C754 0.913 . S
H774 C792 0.951 . S
H775 C794 0.951 . S
H776 C796 0.950 . S
H777 C797 0.950 . S
H778 C799 0.950 . S
H779 C802 0.950 . S
H780 C803 0.950 . S
H781 C805 0.950 . S
H782 C806 0.950 . S
H783 C807 0.951 . S
H784 C809 0.951 . S
H785 C811 0.950 . S
H786 C812 0.950 . S
H787 C814 0.950 . S
H788 C817 0.950 . S
H789 C818 0.950 . S
H790 C820 0.950 . S
H791 C821 0.950 . S
C792 H774 0.951 . S
C792 C793 1.366 . S
C792 C794 1.388 . S
C793 C792 1.366 . S
C793 C797 1.385 . S
C794 H775 0.951 . S
C794 C792 1.388 . S
C794 C795 1.366 . S
C795 C794 1.366 . S
C795 C796 1.414 . S
C795 C798 1.499 . S
C796 H776 0.950 . S
C796 C795 1.414 . S
C796 C797 1.374 . S
C797 H777 0.950 . S
C797 C793 1.385 . S
C797 C796 1.374 . S
C798 C795 1.499 . S
C798 C799 1.373 . S
C798 C800 1.389 . S
C799 H778 0.950 . S
C799 C798 1.373 . S
C799 C815 1.377 . S
C800 C798 1.389 . S
C800 C801 1.524 . S
C800 C814 1.377 . S
C801 C800 1.524 . S
C801 C802 1.397 . S
C801 C806 1.363 . S
C802 H779 0.950 . S
C802 C801 1.397 . S
C802 C803 1.334 . S
C803 H780 0.950 . S
C803 C802 1.334 . S
C803 C804 1.287 . S
C804 C803 1.287 . S
C804 C805 1.524 . S
C804 H823 0.913 . S
C805 H781 0.950 . S
C805 C804 1.524 . S
C805 C806 1.415 . S
C806 H782 0.950 . S
C806 C801 1.363 . S
C806 C805 1.415 . S
C807 H783 0.951 . S
C807 C808 1.366 . S
C807 C809 1.388 . S
C808 C807 1.366 . S
C808 C812 1.385 . S
C809 H784 0.951 . S
C809 C807 1.388 . S
C809 C810 1.366 . S
C810 C809 1.366 . S
C810 C811 1.414 . S
C810 C813 1.499 . S
C811 H785 0.950 . S
C811 C810 1.414 . S
C811 C812 1.374 . S
C812 H786 0.950 . S
C812 C808 1.385 . S
C812 C811 1.374 . S
C813 C810 1.499 . S
C813 C814 1.373 . S
C813 C815 1.389 . S
C814 H787 0.950 . S
C814 C800 1.377 . S
C814 C813 1.373 . S
C815 C799 1.377 . S
C815 C813 1.389 . S
C815 C816 1.524 . S
C816 C815 1.524 . S
C816 C817 1.397 . S
C816 C821 1.363 . S
C817 H788 0.950 . S
C817 C816 1.397 . S
C817 C818 1.334 . S
C818 H789 0.950 . S
C818 C817 1.334 . S
C818 C819 1.287 . S
C819 C818 1.287 . S
C819 C820 1.524 . S
C819 H822 0.999 . S
C820 H790 0.950 . S
C820 C819 1.524 . S
C820 C821 1.415 . S
C821 H791 0.950 . S
C821 C816 1.363 . S
C821 C820 1.415 . S
H822 C819 0.999 . S
H823 C804 0.913 . S
H824 C842 0.951 . S
H825 C844 0.951 . S
H826 C846 0.950 . S
H827 C847 0.950 . S
H828 C849 0.950 . S
H829 C852 0.950 . S
H830 C853 0.950 . S
H831 C855 0.950 . S
H832 C856 0.950 . S
H833 C857 0.951 . S
H834 C859 0.951 . S
H835 C861 0.950 . S
H836 C862 0.950 . S
H837 C864 0.950 . S
H838 C867 0.950 1_455 S
H839 C868 0.950 . S
H840 C870 0.950 . S
H841 C871 0.950 . S
C842 H824 0.951 . S
C842 C843 1.366 . S
C842 C844 1.388 . S
C843 C842 1.366 . S
C843 C847 1.385 . S
C844 H825 0.951 . S
C844 C842 1.388 . S
C844 C845 1.366 . S
C845 C844 1.366 . S
C845 C846 1.414 . S
C845 C848 1.499 . S
C846 H826 0.950 . S
C846 C845 1.414 . S
C846 C847 1.374 . S
C847 H827 0.950 . S
C847 C843 1.385 . S
C847 C846 1.374 . S
C848 C845 1.499 . S
C848 C849 1.373 . S
C848 C850 1.389 . S
C849 H828 0.950 . S
C849 C848 1.373 . S
C849 C865 1.377 . S
C850 C848 1.389 . S
C850 C851 1.524 . S
C850 C864 1.377 . S
C851 C850 1.524 . S
C851 C852 1.397 . S
C851 C856 1.363 . S
C852 H829 0.950 . S
C852 C851 1.397 . S
C852 C853 1.334 . S
C853 H830 0.950 . S
C853 C852 1.334 . S
C853 C854 1.287 . S
C854 C853 1.287 . S
C854 C855 1.524 . S
C854 H873 0.913 . S
C855 H831 0.950 . S
C855 C854 1.524 . S
C855 C856 1.415 . S
C856 H832 0.950 . S
C856 C851 1.363 . S
C856 C855 1.415 . S
C857 H833 0.951 . S
C857 C858 1.366 . S
C857 C859 1.388 . S
C858 C857 1.366 . S
C858 C862 1.385 1_655 S
C859 H834 0.951 . S
C859 C857 1.388 . S
C859 C860 1.366 1_655 S
C860 C859 1.366 1_455 S
C860 C861 1.414 . S
C860 C863 1.499 . S
C861 H835 0.950 . S
C861 C860 1.414 . S
C861 C862 1.374 . S
C862 H836 0.950 . S
C862 C858 1.385 1_455 S
C862 C861 1.374 . S
C863 C860 1.499 . S
C863 C864 1.373 . S
C863 C865 1.389 . S
C864 H837 0.950 . S
C864 C850 1.377 . S
C864 C863 1.373 . S
C865 C849 1.377 . S
C865 C863 1.389 . S
C865 C866 1.524 1_455 S
C866 C865 1.524 1_655 S
C866 C867 1.397 . S
C866 C871 1.363 . S
C867 H838 0.950 1_655 S
C867 C866 1.397 . S
C867 C868 1.334 . S
C868 H839 0.950 . S
C868 C867 1.334 . S
C868 C869 1.287 . S
C869 C868 1.287 . S
C869 C870 1.524 . S
C869 H872 0.999 . S
C870 H840 0.950 . S
C870 C869 1.524 . S
C870 C871 1.415 . S
C871 H841 0.950 . S
C871 C866 1.363 . S
C871 C870 1.415 . S
H872 C869 0.999 . S
H873 C854 0.913 . S
H874 C892 0.951 . S
H875 C894 0.951 . S
H876 C896 0.950 . S
H877 C897 0.950 . S
H878 C899 0.950 . S
H879 C902 0.950 1_545 S
H880 C903 0.950 . S
H881 C905 0.950 . S
H882 C906 0.950 . S
H883 C907 0.951 . S
H884 C909 0.951 . S
H885 C911 0.950 . S
H886 C912 0.950 . S
H887 C914 0.950 . S
H888 C917 0.950 . S
H889 C918 0.950 . S
H890 C920 0.950 . S
H891 C921 0.950 . S
C892 H874 0.951 . S
C892 C893 1.366 . S
C892 C894 1.388 . S
C893 C892 1.366 . S
C893 C897 1.385 1_565 S
C894 H875 0.951 . S
C894 C892 1.388 . S
C894 C895 1.366 1_565 S
C895 C894 1.366 1_545 S
C895 C896 1.414 . S
C895 C898 1.499 . S
C896 H876 0.950 . S
C896 C895 1.414 . S
C896 C897 1.374 . S
C897 H877 0.950 . S
C897 C893 1.385 1_545 S
C897 C896 1.374 . S
C898 C895 1.499 . S
C898 C899 1.373 . S
C898 C900 1.389 . S
C899 H878 0.950 . S
C899 C898 1.373 . S
C899 C915 1.377 . S
C900 C898 1.389 . S
C900 C901 1.524 1_545 S
C900 C914 1.377 . S
C901 C900 1.524 1_565 S
C901 C902 1.397 . S
C901 C906 1.363 . S
C902 H879 0.950 1_565 S
C902 C901 1.397 . S
C902 C903 1.334 . S
C903 H880 0.950 . S
C903 C902 1.334 . S
C903 C904 1.287 . S
C904 C903 1.287 . S
C904 C905 1.524 . S
C904 H923 0.913 . S
C905 H881 0.950 . S
C905 C904 1.524 . S
C905 C906 1.415 . S
C906 H882 0.950 . S
C906 C901 1.363 . S
C906 C905 1.415 . S
C907 H883 0.951 . S
C907 C908 1.366 1_455 S
C907 C909 1.388 . S
C908 C907 1.366 1_655 S
C908 C912 1.385 . S
C909 H884 0.951 . S
C909 C907 1.388 . S
C909 C910 1.366 . S
C910 C909 1.366 . S
C910 C911 1.414 1_455 S
C910 C913 1.499 . S
C911 H885 0.950 . S
C911 C910 1.414 1_655 S
C911 C912 1.374 . S
C912 H886 0.950 . S
C912 C908 1.385 . S
C912 C911 1.374 . S
C913 C910 1.499 . S
C913 C914 1.373 . S
C913 C915 1.389 . S
C914 H887 0.950 . S
C914 C900 1.377 . S
C914 C913 1.373 . S
C915 C899 1.377 . S
C915 C913 1.389 . S
C915 C916 1.524 . S
C916 C915 1.524 . S
C916 C917 1.397 1_455 S
C916 C921 1.363 . S
C917 H888 0.950 . S
C917 C916 1.397 1_655 S
C917 C918 1.334 . S
C918 H889 0.950 . S
C918 C917 1.334 . S
C918 C919 1.287 . S
C919 C918 1.287 . S
C919 C920 1.524 1_655 S
C919 H922 0.999 . S
C920 H890 0.950 . S
C920 C919 1.524 1_455 S
C920 C921 1.415 . S
C921 H891 0.950 . S
C921 C916 1.363 . S
C921 C920 1.415 . S
H922 C919 0.999 . S
H923 C904 0.913 . S
H924 C942 0.951 . S
H925 C944 0.951 . S
H926 C946 0.950 . S
H927 C947 0.950 . S
H928 C949 0.950 . S
H929 C952 0.950 . S
H930 C953 0.950 . S
H931 C955 0.950 . S
H932 C956 0.950 . S
H933 C957 0.951 . S
H934 C959 0.951 . S
H935 C961 0.950 . S
H936 C962 0.950 . S
H937 C964 0.950 . S
H938 C967 0.950 . S
H939 C968 0.950 . S
H940 C970 0.950 . S
H941 C971 0.950 . S
C942 H924 0.951 . S
C942 C943 1.366 . S
C942 C944 1.388 . S
C943 C942 1.366 . S
C943 C947 1.385 . S
C944 H925 0.951 . S
C944 C942 1.388 . S
C944 C945 1.366 . S
C945 C944 1.366 . S
C945 C946 1.414 . S
C945 C948 1.499 . S
C946 H926 0.950 . S
C946 C945 1.414 . S
C946 C947 1.374 . S
C947 H927 0.950 . S
C947 C943 1.385 . S
C947 C946 1.374 . S
C948 C945 1.499 . S
C948 C949 1.373 . S
C948 C950 1.389 . S
C949 H928 0.950 . S
C949 C948 1.373 . S
C949 C965 1.377 . S
C950 C948 1.389 . S
C950 C951 1.524 . S
C950 C964 1.377 . S
C951 C950 1.524 . S
C951 C952 1.397 . S
C951 C956 1.363 . S
C952 H929 0.950 . S
C952 C951 1.397 . S
C952 C953 1.334 . S
C953 H930 0.950 . S
C953 C952 1.334 . S
C953 C954 1.287 . S
C954 C953 1.287 . S
C954 C955 1.524 . S
C954 H973 0.913 . S
C955 H931 0.950 . S
C955 C954 1.524 . S
C955 C956 1.415 . S
C956 H932 0.950 . S
C956 C951 1.363 . S
C956 C955 1.415 . S
C957 H933 0.951 . S
C957 C958 1.366 1_545 S
C957 C959 1.388 . S
C958 C957 1.366 1_565 S
C958 C962 1.385 . S
C959 H934 0.951 . S
C959 C957 1.388 . S
C959 C960 1.366 . S
C960 C959 1.366 . S
C960 C961 1.414 1_545 S
C960 C963 1.499 . S
C961 H935 0.950 . S
C961 C960 1.414 1_565 S
C961 C962 1.374 . S
C962 H936 0.950 . S
C962 C958 1.385 . S
C962 C961 1.374 . S
C963 C960 1.499 . S
C963 C964 1.373 . S
C963 C965 1.389 . S
C964 H937 0.950 . S
C964 C950 1.377 . S
C964 C963 1.373 . S
C965 C949 1.377 . S
C965 C963 1.389 . S
C965 C966 1.524 . S
C966 C965 1.524 . S
C966 C967 1.397 1_545 S
C966 C971 1.363 . S
C967 H938 0.950 . S
C967 C966 1.397 1_565 S
C967 C968 1.334 . S
C968 H939 0.950 . S
C968 C967 1.334 . S
C968 C969 1.287 . S
C969 C968 1.287 . S
C969 C970 1.524 1_565 S
C969 H972 0.999 . S
C970 H940 0.950 . S
C970 C969 1.524 1_545 S
C970 C971 1.415 . S
C971 H941 0.950 . S
C971 C966 1.363 . S
C971 C970 1.415 . S
H972 C969 0.999 . S
H973 C954 0.913 . S
H974 C992 0.951 . S
H975 C994 0.951 . S
H976 C996 0.950 . S
H977 C997 0.950 . S
H978 C999 0.950 . S
H979 C1002 0.950 . S
H980 C1003 0.950 . S
H981 C1005 0.950 . S
H982 C1006 0.950 . S
H983 C1007 0.951 . S
H984 C1009 0.951 . S
H985 C1011 0.950 . S
H986 C1012 0.950 . S
H987 C1014 0.950 . S
H988 C1017 0.950 . S
H989 C1018 0.950 . S
H990 C1020 0.950 . S
H991 C1021 0.950 . S
C992 H974 0.951 . S
C992 C993 1.366 . S
C992 C994 1.388 . S
C993 C992 1.366 . S
C993 C997 1.385 . S
C994 H975 0.951 . S
C994 C992 1.388 . S
C994 C995 1.366 . S
C995 C994 1.366 . S
C995 C996 1.414 . S
C995 C998 1.499 . S
C996 H976 0.950 . S
C996 C995 1.414 . S
C996 C997 1.374 . S
C997 H977 0.950 . S
C997 C993 1.385 . S
C997 C996 1.374 . S
C998 C995 1.499 . S
C998 C999 1.373 . S
C998 C1000 1.389 . S
C999 H978 0.950 . S
C999 C998 1.373 . S
C999 C1015 1.377 . S
C1000 C998 1.389 . S
C1000 C1001 1.524 . S
C1000 C1014 1.377 . S
C1001 C1000 1.524 . S
C1001 C1002 1.397 . S
C1001 C1006 1.363 . S
C1002 H979 0.950 . S
C1002 C1001 1.397 . S
C1002 C1003 1.334 . S
C1003 H980 0.950 . S
C1003 C1002 1.334 . S
C1003 C1004 1.287 . S
C1004 C1003 1.287 . S
C1004 C1005 1.524 . S
C1004 H1023 0.913 . S
C1005 H981 0.950 . S
C1005 C1004 1.524 . S
C1005 C1006 1.415 . S
C1006 H982 0.950 . S
C1006 C1001 1.363 . S
C1006 C1005 1.415 . S
C1007 H983 0.951 . S
C1007 C1008 1.366 . S
C1007 C1009 1.388 . S
C1008 C1007 1.366 . S
C1008 C1012 1.385 . S
C1009 H984 0.951 . S
C1009 C1007 1.388 . S
C1009 C1010 1.366 . S
C1010 C1009 1.366 . S
C1010 C1011 1.414 . S
C1010 C1013 1.499 . S
C1011 H985 0.950 . S
C1011 C1010 1.414 . S
C1011 C1012 1.374 . S
C1012 H986 0.950 . S
C1012 C1008 1.385 . S
C1012 C1011 1.374 . S
C1013 C1010 1.499 . S
C1013 C1014 1.373 . S
C1013 C1015 1.389 . S
C1014 H987 0.950 . S
C1014 C1000 1.377 . S
C1014 C1013 1.373 . S
C1015 C999 1.377 . S
C1015 C1013 1.389 . S
C1015 C1016 1.524 . S
C1016 C1015 1.524 . S
C1016 C1017 1.397 . S
C1016 C1021 1.363 . S
C1017 H988 0.950 . S
C1017 C1016 1.397 . S
C1017 C1018 1.334 . S
C1018 H989 0.950 . S
C1018 C1017 1.334 . S
C1018 C1019 1.287 . S
C1019 C1018 1.287 . S
C1019 C1020 1.524 . S
C1019 H1022 0.999 . S
C1020 H990 0.950 . S
C1020 C1019 1.524 . S
C1020 C1021 1.415 . S
C1021 H991 0.950 . S
C1021 C1016 1.363 . S
C1021 C1020 1.415 . S
H1022 C1019 0.999 . S
H1023 C1004 0.913 . S
H1024 C1042 0.948 1_655 S
H1025 C1044 0.935 1_655 S
H1026 C1046 0.950 . S
H1027 C1047 0.950 . S
H1028 C1049 0.950 . S
H1029 C1052 0.950 . S
H1030 C1053 0.950 . S
H1031 C1055 0.950 . S
H1032 C1056 0.950 . S
H1033 C1057 0.951 . S
H1034 C1059 0.951 . S
H1035 C1061 0.950 . S
H1036 C1062 0.970 . S
H1037 C1064 0.950 . S
H1038 C1067 0.950 1_655 S
H1039 C1068 0.950 1_655 S
H1040 C1070 0.950 . S
H1041 C1071 0.950 . S
C1042 H1024 0.948 1_455 S
C1042 C1043 1.368 . S
C1042 C1044 1.388 . S
C1043 C1042 1.368 . S
C1043 C1047 1.385 . S
C1044 H1025 0.935 1_455 S
C1044 C1042 1.388 . S
C1044 C1045 1.382 . S
C1045 C1044 1.382 . S
C1045 C1046 1.414 . S
C1045 C1048 1.499 . S
C1046 H1026 0.950 . S
C1046 C1045 1.414 . S
C1046 C1047 1.374 . S
C1047 H1027 0.950 . S
C1047 C1043 1.385 . S
C1047 C1046 1.374 . S
C1048 C1045 1.499 . S
C1048 C1049 1.373 . S
C1048 C1050 1.389 . S
C1049 H1028 0.950 . S
C1049 C1048 1.373 . S
C1049 C1065 1.377 . S
C1050 C1048 1.389 . S
C1050 C1051 1.524 . S
C1050 C1064 1.377 . S
C1051 C1050 1.524 . S
C1051 C1052 1.397 . S
C1051 C1056 1.363 1_455 S
C1052 H1029 0.950 . S
C1052 C1051 1.397 . S
C1052 C1053 1.334 . S
C1053 H1030 0.950 . S
C1053 C1052 1.334 . S
C1053 C1054 1.287 . S
C1054 C1053 1.287 . S
C1054 C1055 1.524 1_455 S
C1054 H1073 0.913 . S
C1055 H1031 0.950 . S
C1055 C1054 1.524 1_655 S
C1055 C1056 1.415 . S
C1056 H1032 0.950 . S
C1056 C1051 1.363 1_655 S
C1056 C1055 1.415 . S
C1057 H1033 0.951 . S
C1057 C1058 1.366 . S
C1057 C1059 1.388 . S
C1058 C1057 1.366 . S
C1058 C1062 1.364 1_455 S
C1059 H1034 0.951 . S
C1059 C1057 1.388 . S
C1059 C1060 1.366 . S
C1060 C1059 1.366 . S
C1060 C1061 1.414 1_455 S
C1060 C1063 1.499 . S
C1061 H1035 0.950 . S
C1061 C1060 1.414 1_655 S
C1061 C1062 1.374 . S
C1062 H1036 0.970 . S
C1062 C1058 1.364 1_655 S
C1062 C1061 1.374 . S
C1063 C1060 1.499 . S
C1063 C1064 1.373 . S
C1063 C1065 1.389 . S
C1064 H1037 0.950 . S
C1064 C1050 1.377 . S
C1064 C1063 1.373 . S
C1065 C1049 1.377 . S
C1065 C1063 1.389 . S
C1065 C1066 1.524 . S
C1066 C1065 1.524 . S
C1066 C1067 1.397 . S
C1066 C1071 1.363 . S
C1067 H1038 0.950 1_455 S
C1067 C1066 1.397 . S
C1067 C1068 1.334 . S
C1068 H1039 0.950 1_455 S
C1068 C1067 1.334 . S
C1068 C1069 1.287 . S
C1069 C1068 1.287 . S
C1069 C1070 1.524 . S
C1069 H1072 0.999 . S
C1070 H1040 0.950 . S
C1070 C1069 1.524 . S
C1070 C1071 1.415 . S
C1071 H1041 0.950 . S
C1071 C1066 1.363 . S
C1071 C1070 1.415 . S
H1072 C1069 0.999 . S
H1073 C1054 0.913 . S
H1074 C1092 0.951 . S
H1075 C1094 0.951 . S
H1076 C1096 0.965 . S
H1077 C1097 0.962 . S
H1078 C1099 0.950 . S
H1079 C1102 0.950 . S
H1080 C1103 0.950 . S
H1081 C1105 0.950 . S
H1082 C1106 0.950 . S
H1083 C1107 0.950 . S
H1084 C1109 0.959 . S
H1085 C1111 0.950 . S
H1086 C1112 0.950 . S
H1087 C1114 0.950 . S
H1088 C1117 0.950 . S
H1089 C1118 0.950 . S
H1090 C1120 0.950 . S
H1091 C1121 0.950 . S
C1092 H1074 0.951 . S
C1092 C1093 1.366 . S
C1092 C1094 1.388 . S
C1093 C1092 1.366 . S
C1093 C1097 1.373 1_545 S
C1094 H1075 0.951 . S
C1094 C1092 1.388 . S
C1094 C1095 1.366 . S
C1095 C1094 1.366 . S
C1095 C1096 1.399 1_545 S
C1095 C1098 1.499 . S
C1096 H1076 0.965 . S
C1096 C1095 1.399 1_565 S
C1096 C1097 1.374 . S
C1097 H1077 0.962 . S
C1097 C1093 1.373 1_565 S
C1097 C1096 1.374 . S
C1098 C1095 1.499 . S
C1098 C1099 1.373 1_545 S
C1098 C1100 1.389 . S
C1099 H1078 0.950 . S
C1099 C1098 1.373 1_565 S
C1099 C1115 1.377 . S
C1100 C1098 1.389 . S
C1100 C1101 1.524 . S
C1100 C1114 1.377 . S
C1101 C1100 1.524 . S
C1101 C1102 1.397 . S
C1101 C1106 1.363 . S
C1102 H1079 0.950 . S
C1102 C1101 1.397 . S
C1102 C1103 1.334 . S
C1103 H1080 0.950 . S
C1103 C1102 1.334 . S
C1103 C1104 1.287 . S
C1104 C1103 1.287 . S
C1104 C1105 1.524 . S
C1104 H1123 0.913 . S
C1105 H1081 0.950 . S
C1105 C1104 1.524 . S
C1105 C1106 1.415 . S
C1106 H1082 0.950 . S
C1106 C1101 1.363 . S
C1106 C1105 1.415 . S
C1107 H1083 0.950 . S
C1107 C1108 1.367 1_565 S
C1107 C1109 1.388 . S
C1108 C1107 1.367 1_545 S
C1108 C1112 1.385 . S
C1109 H1084 0.959 . S
C1109 C1107 1.388 . S
C1109 C1110 1.357 1_565 S
C1110 C1109 1.357 1_545 S
C1110 C1111 1.414 . S
C1110 C1113 1.499 . S
C1111 H1085 0.950 . S
C1111 C1110 1.414 . S
C1111 C1112 1.374 . S
C1112 H1086 0.950 . S
C1112 C1108 1.385 . S
C1112 C1111 1.374 . S
C1113 C1110 1.499 . S
C1113 C1114 1.373 . S
C1113 C1115 1.389 1_545 S
C1114 H1087 0.950 . S
C1114 C1100 1.377 . S
C1114 C1113 1.373 . S
C1115 C1099 1.377 . S
C1115 C1113 1.389 1_565 S
C1115 C1116 1.524 . S
C1116 C1115 1.524 . S
C1116 C1117 1.397 . S
C1116 C1121 1.363 . S
C1117 H1088 0.950 . S
C1117 C1116 1.397 . S
C1117 C1118 1.334 . S
C1118 H1089 0.950 . S
C1118 C1117 1.334 . S
C1118 C1119 1.287 . S
C1119 C1118 1.287 . S
C1119 C1120 1.524 . S
C1119 H1122 0.999 . S
C1120 H1090 0.950 . S
C1120 C1119 1.524 . S
C1120 C1121 1.415 . S
C1121 H1091 0.950 . S
C1121 C1116 1.363 . S
C1121 C1120 1.415 . S
H1122 C1119 0.999 . S
H1123 C1104 0.913 . S
H1124 C1142 0.951 . S
H1125 C1144 0.951 . S
H1126 C1146 0.950 . S
H1127 C1147 0.950 . S
H1128 C1149 0.950 . S
H1129 C1152 0.950 . S
H1130 C1153 0.950 . S
H1131 C1155 0.950 . S
H1132 C1156 0.950 . S
H1133 C1157 0.951 . S
H1134 C1159 0.951 . S
H1135 C1161 0.950 . S
H1136 C1162 0.950 . S
H1137 C1164 0.950 . S
H1138 C1167 0.950 . S
H1139 C1168 0.950 . S
H1140 C1170 0.950 . S
H1141 C1171 0.950 . S
C1142 H1124 0.951 . S
C1142 C1143 1.366 . S
C1142 C1144 1.388 . S
C1143 C1142 1.366 . S
C1143 C1147 1.385 . S
C1144 H1125 0.951 . S
C1144 C1142 1.388 . S
C1144 C1145 1.366 . S
C1145 C1144 1.366 . S
C1145 C1146 1.414 . S
C1145 C1148 1.499 . S
C1146 H1126 0.950 . S
C1146 C1145 1.414 . S
C1146 C1147 1.374 . S
C1147 H1127 0.950 . S
C1147 C1143 1.385 . S
C1147 C1146 1.374 . S
C1148 C1145 1.499 . S
C1148 C1149 1.373 . S
C1148 C1150 1.389 . S
C1149 H1128 0.950 . S
C1149 C1148 1.373 . S
C1149 C1165 1.377 . S
C1150 C1148 1.389 . S
C1150 C1151 1.524 . S
C1150 C1164 1.377 . S
C1151 C1150 1.524 . S
C1151 C1152 1.397 . S
C1151 C1156 1.363 . S
C1152 H1129 0.950 . S
C1152 C1151 1.397 . S
C1152 C1153 1.334 . S
C1153 H1130 0.950 . S
C1153 C1152 1.334 . S
C1153 C1154 1.287 . S
C1154 C1153 1.287 . S
C1154 C1155 1.524 . S
C1154 H1173 0.913 . S
C1155 H1131 0.950 . S
C1155 C1154 1.524 . S
C1155 C1156 1.415 . S
C1156 H1132 0.950 . S
C1156 C1151 1.363 . S
C1156 C1155 1.415 . S
C1157 H1133 0.951 . S
C1157 C1158 1.366 . S
C1157 C1159 1.388 . S
C1158 C1157 1.366 . S
C1158 C1162 1.385 . S
C1159 H1134 0.951 . S
C1159 C1157 1.388 . S
C1159 C1160 1.366 . S
C1160 C1159 1.366 . S
C1160 C1161 1.414 . S
C1160 C1163 1.499 . S
C1161 H1135 0.950 . S
C1161 C1160 1.414 . S
C1161 C1162 1.374 . S
C1162 H1136 0.950 . S
C1162 C1158 1.385 . S
C1162 C1161 1.374 . S
C1163 C1160 1.499 . S
C1163 C1164 1.373 . S
C1163 C1165 1.389 . S
C1164 H1137 0.950 . S
C1164 C1150 1.377 . S
C1164 C1163 1.373 . S
C1165 C1149 1.377 . S
C1165 C1163 1.389 . S
C1165 C1166 1.524 . S
C1166 C1165 1.524 . S
C1166 C1167 1.397 . S
C1166 C1171 1.363 . S
C1167 H1138 0.950 . S
C1167 C1166 1.397 . S
C1167 C1168 1.334 . S
C1168 H1139 0.950 . S
C1168 C1167 1.334 . S
C1168 C1169 1.287 . S
C1169 C1168 1.287 . S
C1169 C1170 1.524 . S
C1169 H1172 0.999 . S
C1170 H1140 0.950 . S
C1170 C1169 1.524 . S
C1170 C1171 1.415 . S
C1171 H1141 0.950 . S
C1171 C1166 1.363 . S
C1171 C1170 1.415 . S
H1172 C1169 0.999 . S
H1173 C1154 0.913 . S
H1174 C1192 0.951 . S
H1175 C1194 0.951 . S
H1176 C1196 0.950 . S
H1177 C1197 0.950 . S
H1178 C1199 0.950 . S
H1179 C1202 0.950 . S
H1180 C1203 0.950 . S
H1181 C1205 0.950 . S
H1182 C1206 0.950 . S
H1183 C1207 0.951 . S
H1184 C1209 0.951 . S
H1185 C1211 0.950 . S
H1186 C1212 0.950 . S
H1187 C1214 0.950 . S
H1188 C1217 0.950 . S
H1189 C1218 0.950 . S
H1190 C1220 0.950 . S
H1191 C1221 0.950 . S
C1192 H1174 0.951 . S
C1192 C1193 1.366 . S
C1192 C1194 1.388 . S
C1193 C1192 1.366 . S
C1193 C1197 1.385 . S
C1194 H1175 0.951 . S
C1194 C1192 1.388 . S
C1194 C1195 1.366 . S
C1195 C1194 1.366 . S
C1195 C1196 1.414 . S
C1195 C1198 1.499 . S
C1196 H1176 0.950 . S
C1196 C1195 1.414 . S
C1196 C1197 1.374 . S
C1197 H1177 0.950 . S
C1197 C1193 1.385 . S
C1197 C1196 1.374 . S
C1198 C1195 1.499 . S
C1198 C1199 1.373 . S
C1198 C1200 1.389 . S
C1199 H1178 0.950 . S
C1199 C1198 1.373 . S
C1199 C1215 1.377 . S
C1200 C1198 1.389 . S
C1200 C1201 1.524 . S
C1200 C1214 1.377 . S
C1201 C1200 1.524 . S
C1201 C1202 1.397 . S
C1201 C1206 1.363 . S
C1202 H1179 0.950 . S
C1202 C1201 1.397 . S
C1202 C1203 1.334 . S
C1203 H1180 0.950 . S
C1203 C1202 1.334 . S
C1203 C1204 1.287 . S
C1204 C1203 1.287 . S
C1204 C1205 1.524 . S
C1204 H1223 0.913 . S
C1205 H1181 0.950 . S
C1205 C1204 1.524 . S
C1205 C1206 1.415 . S
C1206 H1182 0.950 . S
C1206 C1201 1.363 . S
C1206 C1205 1.415 . S
C1207 H1183 0.951 . S
C1207 C1208 1.366 . S
C1207 C1209 1.388 . S
C1208 C1207 1.366 . S
C1208 C1212 1.385 . S
C1209 H1184 0.951 . S
C1209 C1207 1.388 . S
C1209 C1210 1.366 . S
C1210 C1209 1.366 . S
C1210 C1211 1.414 . S
C1210 C1213 1.499 . S
C1211 H1185 0.950 . S
C1211 C1210 1.414 . S
C1211 C1212 1.374 . S
C1212 H1186 0.950 . S
C1212 C1208 1.385 . S
C1212 C1211 1.374 . S
C1213 C1210 1.499 . S
C1213 C1214 1.373 . S
C1213 C1215 1.389 . S
C1214 H1187 0.950 . S
C1214 C1200 1.377 . S
C1214 C1213 1.373 . S
C1215 C1199 1.377 . S
C1215 C1213 1.389 . S
C1215 C1216 1.524 . S
C1216 C1215 1.524 . S
C1216 C1217 1.397 . S
C1216 C1221 1.363 . S
C1217 H1188 0.950 . S
C1217 C1216 1.397 . S
C1217 C1218 1.334 . S
C1218 H1189 0.950 . S
C1218 C1217 1.334 . S
C1218 C1219 1.287 . S
C1219 C1218 1.287 . S
C1219 C1220 1.524 . S
C1219 H1222 0.999 . S
C1220 H1190 0.950 . S
C1220 C1219 1.524 . S
C1220 C1221 1.415 . S
C1221 H1191 0.950 . S
C1221 C1216 1.363 . S
C1221 C1220 1.415 . S
H1222 C1219 0.999 . S
H1223 C1204 0.913 . S
H1224 C1242 0.951 1_455 S
H1225 C1244 0.951 1_455 S
H1226 C1246 0.950 . S
H1227 C1247 0.950 . S
H1228 C1249 0.950 . S
H1229 C1252 0.950 . S
H1230 C1253 0.950 . S
H1231 C1255 0.950 . S
H1232 C1256 0.950 . S
H1233 C1257 0.951 . S
H1234 C1259 0.951 . S
H1235 C1261 0.950 1_455 S
H1236 C1262 0.950 1_455 S
H1237 C1264 0.950 . S
H1238 C1267 0.950 . S
H1239 C1268 0.950 . S
H1240 C1270 0.950 . S
H1241 C1271 0.950 . S
C1242 H1224 0.951 1_655 S
C1242 C1243 1.366 . S
C1242 C1244 1.388 . S
C1243 C1242 1.366 . S
C1243 C1247 1.385 . S
C1244 H1225 0.951 1_655 S
C1244 C1242 1.388 . S
C1244 C1245 1.366 . S
C1245 C1244 1.366 . S
C1245 C1246 1.414 . S
C1245 C1248 1.499 . S
C1246 H1226 0.950 . S
C1246 C1245 1.414 . S
C1246 C1247 1.374 . S
C1247 H1227 0.950 . S
C1247 C1243 1.385 . S
C1247 C1246 1.374 . S
C1248 C1245 1.499 . S
C1248 C1249 1.373 . S
C1248 C1250 1.389 1_655 S
C1249 H1228 0.950 . S
C1249 C1248 1.373 . S
C1249 C1265 1.377 . S
C1250 C1248 1.389 1_455 S
C1250 C1251 1.524 . S
C1250 C1264 1.377 . S
C1251 C1250 1.524 . S
C1251 C1252 1.397 . S
C1251 C1256 1.363 . S
C1252 H1229 0.950 . S
C1252 C1251 1.397 . S
C1252 C1253 1.334 . S
C1253 H1230 0.950 . S
C1253 C1252 1.334 . S
C1253 C1254 1.287 . S
C1254 C1253 1.287 . S
C1254 C1255 1.524 . S
C1254 H1273 0.913 . S
C1255 H1231 0.950 . S
C1255 C1254 1.524 . S
C1255 C1256 1.415 . S
C1256 H1232 0.950 . S
C1256 C1251 1.363 . S
C1256 C1255 1.415 . S
C1257 H1233 0.951 . S
C1257 C1258 1.366 . S
C1257 C1259 1.388 . S
C1258 C1257 1.366 . S
C1258 C1262 1.385 . S
C1259 H1234 0.951 . S
C1259 C1257 1.388 . S
C1259 C1260 1.366 . S
C1260 C1259 1.366 . S
C1260 C1261 1.414 . S
C1260 C1263 1.499 . S
C1261 H1235 0.950 1_655 S
C1261 C1260 1.414 . S
C1261 C1262 1.374 . S
C1262 H1236 0.950 1_655 S
C1262 C1258 1.385 . S
C1262 C1261 1.374 . S
C1263 C1260 1.499 . S
C1263 C1264 1.373 1_655 S
C1263 C1265 1.389 . S
C1264 H1237 0.950 . S
C1264 C1250 1.377 . S
C1264 C1263 1.373 1_455 S
C1265 C1249 1.377 . S
C1265 C1263 1.389 . S
C1265 C1266 1.524 . S
C1266 C1265 1.524 . S
C1266 C1267 1.397 . S
C1266 C1271 1.363 . S
C1267 H1238 0.950 . S
C1267 C1266 1.397 . S
C1267 C1268 1.334 . S
C1268 H1239 0.950 . S
C1268 C1267 1.334 . S
C1268 C1269 1.287 . S
C1269 C1268 1.287 . S
C1269 C1270 1.524 . S
C1269 H1272 0.999 . S
C1270 H1240 0.950 . S
C1270 C1269 1.524 . S
C1270 C1271 1.415 . S
C1271 H1241 0.950 . S
C1271 C1266 1.363 . S
C1271 C1270 1.415 . S
H1272 C1269 0.999 . S
H1273 C1254 0.913 . S
H1274 C1292 0.951 . S
H1275 C1294 0.951 . S
H1276 C1296 0.950 . S
H1277 C1297 0.950 . S
H1278 C1299 0.950 . S
H1279 C1302 0.950 . S
H1280 C1303 0.950 . S
H1281 C1305 0.950 . S
H1282 C1306 0.950 . S
H1283 C1307 0.951 . S
H1284 C1309 0.951 . S
H1285 C1311 0.950 . S
H1286 C1312 0.950 . S
H1287 C1314 0.950 . S
H1288 C1317 0.950 . S
H1289 C1318 0.950 . S
H1290 C1320 0.950 . S
H1291 C1321 0.950 . S
C1292 H1274 0.951 . S
C1292 C1293 1.366 1_545 S
C1292 C1294 1.388 . S
C1293 C1292 1.366 1_565 S
C1293 C1297 1.385 . S
C1294 H1275 0.951 . S
C1294 C1292 1.388 . S
C1294 C1295 1.366 1_545 S
C1295 C1294 1.366 1_565 S
C1295 C1296 1.414 . S
C1295 C1298 1.499 . S
C1296 H1276 0.950 . S
C1296 C1295 1.414 . S
C1296 C1297 1.374 . S
C1297 H1277 0.950 . S
C1297 C1293 1.385 . S
C1297 C1296 1.374 . S
C1298 C1295 1.499 . S
C1298 C1299 1.373 . S
C1298 C1300 1.389 . S
C1299 H1278 0.950 . S
C1299 C1298 1.373 . S
C1299 C1315 1.377 . S
C1300 C1298 1.389 . S
C1300 C1301 1.524 . S
C1300 C1314 1.377 . S
C1301 C1300 1.524 . S
C1301 C1302 1.397 . S
C1301 C1306 1.363 1_565 S
C1302 H1279 0.950 . S
C1302 C1301 1.397 . S
C1302 C1303 1.334 . S
C1303 H1280 0.950 . S
C1303 C1302 1.334 . S
C1303 C1304 1.287 1_565 S
C1304 C1303 1.287 1_545 S
C1304 C1305 1.524 . S
C1304 H1323 0.913 . S
C1305 H1281 0.950 . S
C1305 C1304 1.524 . S
C1305 C1306 1.415 . S
C1306 H1282 0.950 . S
C1306 C1301 1.363 1_545 S
C1306 C1305 1.415 . S
C1307 H1283 0.951 . S
C1307 C1308 1.366 . S
C1307 C1309 1.388 . S
C1308 C1307 1.366 . S
C1308 C1312 1.385 1_565 S
C1309 H1284 0.951 . S
C1309 C1307 1.388 . S
C1309 C1310 1.366 . S
C1310 C1309 1.366 . S
C1310 C1311 1.414 1_565 S
C1310 C1313 1.499 . S
C1311 H1285 0.950 . S
C1311 C1310 1.414 1_545 S
C1311 C1312 1.374 . S
C1312 H1286 0.950 . S
C1312 C1308 1.385 1_545 S
C1312 C1311 1.374 . S
C1313 C1310 1.499 . S
C1313 C1314 1.373 . S
C1313 C1315 1.389 . S
C1314 H1287 0.950 . S
C1314 C1300 1.377 . S
C1314 C1313 1.373 . S
C1315 C1299 1.377 . S
C1315 C1313 1.389 . S
C1315 C1316 1.524 . S
C1316 C1315 1.524 . S
C1316 C1317 1.397 . S
C1316 C1321 1.363 . S
C1317 H1288 0.950 . S
C1317 C1316 1.397 . S
C1317 C1318 1.334 . S
C1318 H1289 0.950 . S
C1318 C1317 1.334 . S
C1318 C1319 1.287 . S
C1319 C1318 1.287 . S
C1319 C1320 1.524 . S
C1319 H1322 0.999 . S
C1320 H1290 0.950 . S
C1320 C1319 1.524 . S
C1320 C1321 1.415 . S
C1321 H1291 0.950 . S
C1321 C1316 1.363 . S
C1321 C1320 1.415 . S
H1322 C1319 0.999 . S
H1323 C1304 0.913 . S
H1324 C1342 0.951 . S
H1325 C1344 0.951 . S
H1326 C1346 0.950 . S
H1327 C1347 0.950 . S
H1328 C1349 0.950 . S
H1329 C1352 0.950 . S
H1330 C1353 0.950 . S
H1331 C1355 0.950 . S
H1332 C1356 0.950 . S
H1333 C1357 0.951 . S
H1334 C1359 0.951 . S
H1335 C1361 0.950 . S
H1336 C1362 0.950 . S
H1337 C1364 0.950 . S
H1338 C1367 0.950 . S
H1339 C1368 0.950 . S
H1340 C1370 0.950 . S
H1341 C1371 0.950 . S
C1342 H1324 0.951 . S
C1342 C1343 1.366 . S
C1342 C1344 1.388 . S
C1343 C1342 1.366 . S
C1343 C1347 1.385 . S
C1344 H1325 0.951 . S
C1344 C1342 1.388 . S
C1344 C1345 1.366 . S
C1345 C1344 1.366 . S
C1345 C1346 1.414 . S
C1345 C1348 1.499 . S
C1346 H1326 0.950 . S
C1346 C1345 1.414 . S
C1346 C1347 1.374 . S
C1347 H1327 0.950 . S
C1347 C1343 1.385 . S
C1347 C1346 1.374 . S
C1348 C1345 1.499 . S
C1348 C1349 1.373 . S
C1348 C1350 1.389 . S
C1349 H1328 0.950 . S
C1349 C1348 1.373 . S
C1349 C1365 1.377 . S
C1350 C1348 1.389 . S
C1350 C1351 1.524 . S
C1350 C1364 1.377 . S
C1351 C1350 1.524 . S
C1351 C1352 1.397 . S
C1351 C1356 1.363 . S
C1352 H1329 0.950 . S
C1352 C1351 1.397 . S
C1352 C1353 1.334 . S
C1353 H1330 0.950 . S
C1353 C1352 1.334 . S
C1353 C1354 1.287 . S
C1354 C1353 1.287 . S
C1354 C1355 1.524 . S
C1354 H1373 0.913 . S
C1355 H1331 0.950 . S
C1355 C1354 1.524 . S
C1355 C1356 1.415 . S
C1356 H1332 0.950 . S
C1356 C1351 1.363 . S
C1356 C1355 1.415 . S
C1357 H1333 0.951 . S
C1357 C1358 1.366 . S
C1357 C1359 1.388 . S
C1358 C1357 1.366 . S
C1358 C1362 1.385 . S
C1359 H1334 0.951 . S
C1359 C1357 1.388 . S
C1359 C1360 1.366 . S
C1360 C1359 1.366 . S
C1360 C1361 1.414 . S
C1360 C1363 1.499 . S
C1361 H1335 0.950 . S
C1361 C1360 1.414 . S
C1361 C1362 1.374 . S
C1362 H1336 0.950 . S
C1362 C1358 1.385 . S
C1362 C1361 1.374 . S
C1363 C1360 1.499 . S
C1363 C1364 1.373 . S
C1363 C1365 1.389 . S
C1364 H1337 0.950 . S
C1364 C1350 1.377 . S
C1364 C1363 1.373 . S
C1365 C1349 1.377 . S
C1365 C1363 1.389 . S
C1365 C1366 1.524 . S
C1366 C1365 1.524 . S
C1366 C1367 1.397 . S
C1366 C1371 1.363 . S
C1367 H1338 0.950 . S
C1367 C1366 1.397 . S
C1367 C1368 1.334 . S
C1368 H1339 0.950 . S
C1368 C1367 1.334 . S
C1368 C1369 1.287 . S
C1369 C1368 1.287 . S
C1369 C1370 1.524 . S
C1369 H1372 0.999 . S
C1370 H1340 0.950 . S
C1370 C1369 1.524 . S
C1370 C1371 1.415 . S
C1371 H1341 0.950 . S
C1371 C1366 1.363 . S
C1371 C1370 1.415 . S
H1372 C1369 0.999 . S
H1373 C1354 0.913 . S
H1374 C1392 0.951 . S
H1375 C1394 0.951 . S
H1376 C1396 0.950 . S
H1377 C1397 0.950 . S
H1378 C1399 0.950 . S
H1379 C1402 0.950 . S
H1380 C1403 0.950 . S
H1381 C1405 0.950 . S
H1382 C1406 0.950 . S
H1383 C1407 0.951 . S
H1384 C1409 0.951 . S
H1385 C1411 0.950 . S
H1386 C1412 0.950 . S
H1387 C1414 0.950 . S
H1388 C1417 0.950 . S
H1389 C1418 0.950 . S
H1390 C1420 0.950 . S
H1391 C1421 0.950 . S
C1392 H1374 0.951 . S
C1392 C1393 1.366 . S
C1392 C1394 1.388 . S
C1393 C1392 1.366 . S
C1393 C1397 1.385 . S
C1394 H1375 0.951 . S
C1394 C1392 1.388 . S
C1394 C1395 1.366 . S
C1395 C1394 1.366 . S
C1395 C1396 1.414 . S
C1395 C1398 1.499 . S
C1396 H1376 0.950 . S
C1396 C1395 1.414 . S
C1396 C1397 1.374 . S
C1397 H1377 0.950 . S
C1397 C1393 1.385 . S
C1397 C1396 1.374 . S
C1398 C1395 1.499 . S
C1398 C1399 1.373 . S
C1398 C1400 1.389 . S
C1399 H1378 0.950 . S
C1399 C1398 1.373 . S
C1399 C1415 1.377 . S
C1400 C1398 1.389 . S
C1400 C1401 1.524 . S
C1400 C1414 1.377 . S
C1401 C1400 1.524 . S
C1401 C1402 1.397 . S
C1401 C1406 1.363 . S
C1402 H1379 0.950 . S
C1402 C1401 1.397 . S
C1402 C1403 1.334 . S
C1403 H1380 0.950 . S
C1403 C1402 1.334 . S
C1403 C1404 1.287 . S
C1404 C1403 1.287 . S
C1404 C1405 1.524 . S
C1404 H1423 0.913 . S
C1405 H1381 0.950 . S
C1405 C1404 1.524 . S
C1405 C1406 1.415 . S
C1406 H1382 0.950 . S
C1406 C1401 1.363 . S
C1406 C1405 1.415 . S
C1407 H1383 0.951 . S
C1407 C1408 1.366 . S
C1407 C1409 1.388 . S
C1408 C1407 1.366 . S
C1408 C1412 1.385 . S
C1409 H1384 0.951 . S
C1409 C1407 1.388 . S
C1409 C1410 1.366 . S
C1410 C1409 1.366 . S
C1410 C1411 1.414 . S
C1410 C1413 1.499 . S
C1411 H1385 0.950 . S
C1411 C1410 1.414 . S
C1411 C1412 1.374 . S
C1412 H1386 0.950 . S
C1412 C1408 1.385 . S
C1412 C1411 1.374 . S
C1413 C1410 1.499 . S
C1413 C1414 1.373 . S
C1413 C1415 1.389 . S
C1414 H1387 0.950 . S
C1414 C1400 1.377 . S
C1414 C1413 1.373 . S
C1415 C1399 1.377 . S
C1415 C1413 1.389 . S
C1415 C1416 1.524 . S
C1416 C1415 1.524 . S
C1416 C1417 1.397 . S
C1416 C1421 1.363 . S
C1417 H1388 0.950 . S
C1417 C1416 1.397 . S
C1417 C1418 1.334 . S
C1418 H1389 0.950 . S
C1418 C1417 1.334 . S
C1418 C1419 1.287 . S
C1419 C1418 1.287 . S
C1419 C1420 1.524 . S
C1419 H1422 0.999 . S
C1420 H1390 0.950 . S
C1420 C1419 1.524 . S
C1420 C1421 1.415 . S
C1421 H1391 0.950 . S
C1421 C1416 1.363 . S
C1421 C1420 1.415 . S
H1422 C1419 0.999 . S
H1423 C1404 0.913 . S
H1424 C1442 0.951 1_655 S
H1425 C1444 0.951 1_655 S
H1426 C1446 0.950 . S
H1427 C1447 0.950 . S
H1428 C1449 0.950 . S
H1429 C1452 0.950 . S
H1430 C1453 0.950 . S
H1431 C1455 0.950 . S
H1432 C1456 0.950 . S
H1433 C1457 0.951 1_455 S
H1434 C1459 0.951 1_455 S
H1435 C1461 0.950 . S
H1436 C1462 0.950 . S
H1437 C1464 0.950 . S
H1438 C1467 0.950 . S
H1439 C1468 0.950 . S
H1440 C1470 0.950 . S
H1441 C1471 0.950 . S
C1442 H1424 0.951 1_455 S
C1442 C1443 1.366 . S
C1442 C1444 1.388 . S
C1443 C1442 1.366 . S
C1443 C1447 1.385 . S
C1444 H1425 0.951 1_455 S
C1444 C1442 1.388 . S
C1444 C1445 1.366 . S
C1445 C1444 1.366 . S
C1445 C1446 1.414 . S
C1445 C1448 1.499 . S
C1446 H1426 0.950 . S
C1446 C1445 1.414 . S
C1446 C1447 1.374 . S
C1447 H1427 0.950 . S
C1447 C1443 1.385 . S
C1447 C1446 1.374 . S
C1448 C1445 1.499 . S
C1448 C1449 1.373 1_454 S
C1448 C1450 1.389 . S
C1449 H1428 0.950 . S
C1449 C1448 1.373 1_656 S
C1449 C1465 1.377 . S
C1450 C1448 1.389 . S
C1450 C1451 1.524 . S
C1450 C1464 1.377 . S
C1451 C1450 1.524 . S
C1451 C1452 1.397 . S
C1451 C1456 1.363 . S
C1452 H1429 0.950 . S
C1452 C1451 1.397 . S
C1452 C1453 1.334 . S
C1453 H1430 0.950 . S
C1453 C1452 1.334 . S
C1453 C1454 1.287 . S
C1454 C1453 1.287 . S
C1454 C1455 1.524 . S
C1454 H1473 0.913 . S
C1455 H1431 0.950 . S
C1455 C1454 1.524 . S
C1455 C1456 1.415 . S
C1456 H1432 0.950 . S
C1456 C1451 1.363 . S
C1456 C1455 1.415 . S
C1457 H1433 0.951 1_655 S
C1457 C1458 1.366 . S
C1457 C1459 1.388 . S
C1458 C1457 1.366 . S
C1458 C1462 1.385 . S
C1459 H1434 0.951 1_655 S
C1459 C1457 1.388 . S
C1459 C1460 1.366 . S
C1460 C1459 1.366 . S
C1460 C1461 1.414 . S
C1460 C1463 1.499 . S
C1461 H1435 0.950 . S
C1461 C1460 1.414 . S
C1461 C1462 1.374 . S
C1462 H1436 0.950 . S
C1462 C1458 1.385 . S
C1462 C1461 1.374 . S
C1463 C1460 1.499 . S
C1463 C1464 1.373 1_656 S
C1463 C1465 1.389 . S
C1464 H1437 0.950 . S
C1464 C1450 1.377 . S
C1464 C1463 1.373 1_454 S
C1465 C1449 1.377 . S
C1465 C1463 1.389 . S
C1465 C1466 1.524 . S
C1466 C1465 1.524 . S
C1466 C1467 1.397 . S
C1466 C1471 1.363 . S
C1467 H1438 0.950 . S
C1467 C1466 1.397 . S
C1467 C1468 1.334 . S
C1468 H1439 0.950 . S
C1468 C1467 1.334 . S
C1468 C1469 1.287 . S
C1469 C1468 1.287 . S
C1469 C1470 1.524 . S
C1469 H1472 0.999 . S
C1470 H1440 0.950 . S
C1470 C1469 1.524 . S
C1470 C1471 1.415 . S
C1471 H1441 0.950 . S
C1471 C1466 1.363 . S
C1471 C1470 1.415 . S
H1472 C1469 0.999 . S
H1473 C1454 0.913 . S
H1474 C1492 0.951 . S
H1475 C1494 0.951 . S
H1476 C1496 0.950 . S
H1477 C1497 0.950 . S
H1478 C1499 0.950 . S
H1479 C1502 0.950 . S
H1480 C1503 0.950 . S
H1481 C1505 0.950 . S
H1482 C1506 0.950 1_554 S
H1483 C1507 0.951 . S
H1484 C1509 0.951 . S
H1485 C1511 0.950 . S
H1486 C1512 0.950 . S
H1487 C1514 0.950 . S
H1488 C1517 0.950 . S
H1489 C1518 0.950 . S
H1490 C1520 0.950 . S
H1491 C1521 0.950 1_556 S
C1492 H1474 0.951 . S
C1492 C1493 1.366 . S
C1492 C1494 1.388 . S
C1493 C1492 1.366 . S
C1493 C1497 1.385 1_565 S
C1494 H1475 0.951 . S
C1494 C1492 1.388 . S
C1494 C1495 1.366 . S
C1495 C1494 1.366 . S
C1495 C1496 1.414 1_565 S
C1495 C1498 1.499 . S
C1496 H1476 0.950 . S
C1496 C1495 1.414 1_545 S
C1496 C1497 1.374 . S
C1497 H1477 0.950 . S
C1497 C1493 1.385 1_545 S
C1497 C1496 1.374 . S
C1498 C1495 1.499 . S
C1498 C1499 1.373 1_565 S
C1498 C1500 1.389 . S
C1499 H1478 0.950 . S
C1499 C1498 1.373 1_545 S
C1499 C1515 1.377 1_456 S
C1500 C1498 1.389 . S
C1500 C1501 1.524 . S
C1500 C1514 1.377 1_456 S
C1501 C1500 1.524 . S
C1501 C1502 1.397 . S
C1501 C1506 1.363 . S
C1502 H1479 0.950 . S
C1502 C1501 1.397 . S
C1502 C1503 1.334 . S
C1503 H1480 0.950 . S
C1503 C1502 1.334 . S
C1503 C1504 1.287 . S
C1504 C1503 1.287 . S
C1504 C1505 1.524 . S
C1504 H1523 0.913 . S
C1505 H1481 0.950 . S
C1505 C1504 1.524 . S
C1505 C1506 1.415 . S
C1506 H1482 0.950 1_556 S
C1506 C1501 1.363 . S
C1506 C1505 1.415 . S
C1507 H1483 0.951 . S
C1507 C1508 1.366 . S
C1507 C1509 1.388 . S
C1508 C1507 1.366 . S
C1508 C1512 1.385 1_545 S
C1509 H1484 0.951 . S
C1509 C1507 1.388 . S
C1509 C1510 1.366 . S
C1510 C1509 1.366 . S
C1510 C1511 1.414 1_545 S
C1510 C1513 1.499 . S
C1511 H1485 0.950 . S
C1511 C1510 1.414 1_565 S
C1511 C1512 1.374 . S
C1512 H1486 0.950 . S
C1512 C1508 1.385 1_565 S
C1512 C1511 1.374 . S
C1513 C1510 1.499 . S
C1513 C1514 1.373 1_545 S
C1513 C1515 1.389 . S
C1514 H1487 0.950 . S
C1514 C1500 1.377 1_654 S
C1514 C1513 1.373 1_565 S
C1515 C1499 1.377 1_654 S
C1515 C1513 1.389 . S
C1515 C1516 1.524 . S
C1516 C1515 1.524 . S
C1516 C1517 1.397 . S
C1516 C1521 1.363 . S
C1517 H1488 0.950 . S
C1517 C1516 1.397 . S
C1517 C1518 1.334 . S
C1518 H1489 0.950 . S
C1518 C1517 1.334 . S
C1518 C1519 1.287 . S
C1519 C1518 1.287 . S
C1519 C1520 1.524 . S
C1519 H1522 0.999 . S
C1520 H1490 0.950 . S
C1520 C1519 1.524 . S
C1520 C1521 1.415 . S
C1521 H1491 0.950 1_554 S
C1521 C1516 1.363 . S
C1521 C1520 1.415 . S
H1522 C1519 0.999 . S
H1523 C1504 0.913 . S
H1524 C1542 0.951 . S
H1525 C1544 0.951 . S
H1526 C1546 0.950 . S
H1527 C1547 0.950 . S
H1528 C1549 0.950 . S
H1529 C1552 0.950 1_554 S
H1530 C1553 0.969 . S
H1531 C1555 0.950 . S
H1532 C1556 0.950 . S
H1533 C1557 0.951 . S
H1534 C1559 0.951 . S
H1535 C1561 0.950 . S
H1536 C1562 0.950 . S
H1537 C1564 0.950 . S
H1538 C1567 0.950 1_556 S
H1539 C1568 0.969 . S
H1540 C1570 0.950 . S
H1541 C1571 0.950 . S
C1542 H1524 0.951 . S
C1542 C1543 1.366 . S
C1542 C1544 1.388 . S
C1543 C1542 1.366 . S
C1543 C1547 1.385 . S
C1544 H1525 0.951 . S
C1544 C1542 1.388 . S
C1544 C1545 1.366 . S
C1545 C1544 1.366 . S
C1545 C1546 1.414 . S
C1545 C1548 1.499 . S
C1546 H1526 0.950 . S
C1546 C1545 1.414 . S
C1546 C1547 1.374 . S
C1547 H1527 0.950 . S
C1547 C1543 1.385 . S
C1547 C1546 1.374 . S
C1548 C1545 1.499 . S
C1548 C1549 1.373 1_565 S
C1548 C1550 1.389 1_554 S
C1549 H1528 0.950 . S
C1549 C1548 1.373 1_545 S
C1549 C1565 1.377 . S
C1550 C1548 1.389 1_556 S
C1550 C1551 1.524 . S
C1550 C1564 1.377 . S
C1551 C1550 1.524 . S
C1551 C1552 1.397 . S
C1551 C1556 1.363 . S
C1552 H1529 0.950 1_556 S
C1552 C1551 1.397 . S
C1552 C1553 1.334 . S
C1553 H1530 0.969 . S
C1553 C1552 1.334 . S
C1553 C1554 1.287 . S
C1554 C1553 1.287 . S
C1554 C1555 1.524 . S
C1554 H1573 0.913 . S
C1555 H1531 0.950 . S
C1555 C1554 1.524 . S
C1555 C1556 1.415 . S
C1556 H1532 0.950 . S
C1556 C1551 1.363 . S
C1556 C1555 1.415 . S
C1557 H1533 0.951 . S
C1557 C1558 1.366 . S
C1557 C1559 1.388 . S
C1558 C1557 1.366 . S
C1558 C1562 1.385 . S
C1559 H1534 0.951 . S
C1559 C1557 1.388 . S
C1559 C1560 1.366 . S
C1560 C1559 1.366 . S
C1560 C1561 1.414 . S
C1560 C1563 1.499 . S
C1561 H1535 0.950 . S
C1561 C1560 1.414 . S
C1561 C1562 1.374 . S
C1562 H1536 0.950 . S
C1562 C1558 1.385 . S
C1562 C1561 1.374 . S
C1563 C1560 1.499 . S
C1563 C1564 1.373 1_545 S
C1563 C1565 1.389 1_556 S
C1564 H1537 0.950 . S
C1564 C1550 1.377 . S
C1564 C1563 1.373 1_565 S
C1565 C1549 1.377 . S
C1565 C1563 1.389 1_554 S
C1565 C1566 1.524 . S
C1566 C1565 1.524 . S
C1566 C1567 1.397 . S
C1566 C1571 1.363 . S
C1567 H1538 0.950 1_554 S
C1567 C1566 1.397 . S
C1567 C1568 1.334 . S
C1568 H1539 0.969 . S
C1568 C1567 1.334 . S
C1568 C1569 1.287 . S
C1569 C1568 1.287 . S
C1569 C1570 1.524 . S
C1569 H1572 0.999 . S
C1570 H1540 0.950 . S
C1570 C1569 1.524 . S
C1570 C1571 1.415 . S
C1571 H1541 0.950 . S
C1571 C1566 1.363 . S
C1571 C1570 1.415 . S
H1572 C1569 0.999 . S
H1573 C1554 0.913 . S
H1574 C1592 0.951 . S
H1575 C1594 0.951 . S
H1576 C1596 0.950 . S
H1577 C1597 0.950 . S
H1578 C1599 0.950 . S
H1579 C1602 0.950 . S
H1580 C1603 0.950 . S
H1581 C1605 0.950 . S
H1582 C1606 0.950 . S
H1583 C1607 0.951 . S
H1584 C1609 0.951 . S
H1585 C1611 0.950 . S
H1586 C1612 0.950 . S
H1587 C1614 0.950 . S
H1588 C1617 0.950 . S
H1589 C1618 0.950 . S
H1590 C1620 0.950 . S
H1591 C1621 0.950 . S
C1592 H1574 0.951 . S
C1592 C1593 1.366 . S
C1592 C1594 1.388 . S
C1593 C1592 1.366 . S
C1593 C1597 1.385 . S
C1594 H1575 0.951 . S
C1594 C1592 1.388 . S
C1594 C1595 1.366 . S
C1595 C1594 1.366 . S
C1595 C1596 1.414 . S
C1595 C1598 1.499 . S
C1596 H1576 0.950 . S
C1596 C1595 1.414 . S
C1596 C1597 1.374 . S
C1597 H1577 0.950 . S
C1597 C1593 1.385 . S
C1597 C1596 1.374 . S
C1598 C1595 1.499 . S
C1598 C1599 1.373 1_556 S
C1598 C1600 1.389 . S
C1599 H1578 0.950 . S
C1599 C1598 1.373 1_554 S
C1599 C1615 1.377 . S
C1600 C1598 1.389 . S
C1600 C1601 1.524 . S
C1600 C1614 1.377 . S
C1601 C1600 1.524 . S
C1601 C1602 1.397 . S
C1601 C1606 1.363 . S
C1602 H1579 0.950 . S
C1602 C1601 1.397 . S
C1602 C1603 1.334 . S
C1603 H1580 0.950 . S
C1603 C1602 1.334 . S
C1603 C1604 1.287 . S
C1604 C1603 1.287 . S
C1604 C1605 1.524 . S
C1604 H1623 0.913 . S
C1605 H1581 0.950 . S
C1605 C1604 1.524 . S
C1605 C1606 1.415 . S
C1606 H1582 0.950 . S
C1606 C1601 1.363 . S
C1606 C1605 1.415 . S
C1607 H1583 0.951 . S
C1607 C1608 1.366 . S
C1607 C1609 1.388 . S
C1608 C1607 1.366 . S
C1608 C1612 1.385 . S
C1609 H1584 0.951 . S
C1609 C1607 1.388 . S
C1609 C1610 1.366 . S
C1610 C1609 1.366 . S
C1610 C1611 1.414 . S
C1610 C1613 1.499 . S
C1611 H1585 0.950 . S
C1611 C1610 1.414 . S
C1611 C1612 1.374 . S
C1612 H1586 0.950 . S
C1612 C1608 1.385 . S
C1612 C1611 1.374 . S
C1613 C1610 1.499 . S
C1613 C1614 1.373 1_554 S
C1613 C1615 1.389 . S
C1614 H1587 0.950 . S
C1614 C1600 1.377 . S
C1614 C1613 1.373 1_556 S
C1615 C1599 1.377 . S
C1615 C1613 1.389 . S
C1615 C1616 1.524 . S
C1616 C1615 1.524 . S
C1616 C1617 1.397 . S
C1616 C1621 1.363 . S
C1617 H1588 0.950 . S
C1617 C1616 1.397 . S
C1617 C1618 1.334 . S
C1618 H1589 0.950 . S
C1618 C1617 1.334 . S
C1618 C1619 1.287 . S
C1619 C1618 1.287 . S
C1619 C1620 1.524 . S
C1619 H1622 0.999 . S
C1620 H1590 0.950 . S
C1620 C1619 1.524 . S
C1620 C1621 1.415 . S
C1621 H1591 0.950 . S
C1621 C1616 1.363 . S
C1621 C1620 1.415 . S
H1622 C1619 0.999 . S
H1623 C1604 0.913 . S
H1624 C1642 0.951 . S
H1625 C1644 0.951 . S
H1626 C1646 0.950 . S
H1627 C1647 0.950 . S
H1628 C1649 0.950 . S
H1629 C1652 0.950 . S
H1630 C1653 0.950 . S
H1631 C1655 0.950 1_455 S
H1632 C1656 0.950 . S
H1633 C1657 0.951 . S
H1634 C1659 0.951 . S
H1635 C1661 0.950 . S
H1636 C1662 0.950 . S
H1637 C1664 0.950 . S
H1638 C1667 0.950 . S
H1639 C1668 0.950 . S
H1640 C1670 0.950 1_655 S
H1641 C1671 0.950 . S
C1642 H1624 0.951 . S
C1642 C1643 1.366 . S
C1642 C1644 1.388 . S
C1643 C1642 1.366 . S
C1643 C1647 1.385 1_455 S
C1644 H1625 0.951 . S
C1644 C1642 1.388 . S
C1644 C1645 1.366 . S
C1645 C1644 1.366 . S
C1645 C1646 1.414 1_455 S
C1645 C1648 1.499 . S
C1646 H1626 0.950 . S
C1646 C1645 1.414 1_655 S
C1646 C1647 1.374 . S
C1647 H1627 0.950 . S
C1647 C1643 1.385 1_655 S
C1647 C1646 1.374 . S
C1648 C1645 1.499 . S
C1648 C1649 1.373 1_565 S
C1648 C1650 1.389 1_455 S
C1649 H1628 0.950 . S
C1649 C1648 1.373 1_545 S
C1649 C1665 1.377 . S
C1650 C1648 1.389 1_655 S
C1650 C1651 1.524 . S
C1650 C1664 1.377 . S
C1651 C1650 1.524 . S
C1651 C1652 1.397 . S
C1651 C1656 1.363 1_655 S
C1652 H1629 0.950 . S
C1652 C1651 1.397 . S
C1652 C1653 1.334 . S
C1653 H1630 0.950 . S
C1653 C1652 1.334 . S
C1653 C1654 1.287 . S
C1654 C1653 1.287 . S
C1654 C1655 1.524 . S
C1654 H1673 0.913 . S
C1655 H1631 0.950 1_655 S
C1655 C1654 1.524 . S
C1655 C1656 1.415 1_655 S
C1656 H1632 0.950 . S
C1656 C1651 1.363 1_455 S
C1656 C1655 1.415 1_455 S
C1657 H1633 0.951 . S
C1657 C1658 1.366 . S
C1657 C1659 1.388 . S
C1658 C1657 1.366 . S
C1658 C1662 1.385 1_655 S
C1659 H1634 0.951 . S
C1659 C1657 1.388 . S
C1659 C1660 1.366 . S
C1660 C1659 1.366 . S
C1660 C1661 1.414 1_655 S
C1660 C1663 1.499 . S
C1661 H1635 0.950 . S
C1661 C1660 1.414 1_455 S
C1661 C1662 1.374 . S
C1662 H1636 0.950 . S
C1662 C1658 1.385 1_455 S
C1662 C1661 1.374 . S
C1663 C1660 1.499 . S
C1663 C1664 1.373 1_545 S
C1663 C1665 1.389 1_655 S
C1664 H1637 0.950 . S
C1664 C1650 1.377 . S
C1664 C1663 1.373 1_565 S
C1665 C1649 1.377 . S
C1665 C1663 1.389 1_455 S
C1665 C1666 1.524 . S
C1666 C1665 1.524 . S
C1666 C1667 1.397 . S
C1666 C1671 1.363 1_455 S
C1667 H1638 0.950 . S
C1667 C1666 1.397 . S
C1667 C1668 1.334 . S
C1668 H1639 0.950 . S
C1668 C1667 1.334 . S
C1668 C1669 1.287 . S
C1669 C1668 1.287 . S
C1669 C1670 1.524 . S
C1669 H1672 0.999 . S
C1670 H1640 0.950 1_455 S
C1670 C1669 1.524 . S
C1670 C1671 1.415 1_455 S
C1671 H1641 0.950 . S
C1671 C1666 1.363 1_655 S
C1671 C1670 1.415 1_655 S
H1672 C1669 0.999 . S
H1673 C1654 0.913 . S
H1674 C1692 0.951 . S
H1675 C1694 0.951 . S
H1676 C1696 0.939 1_565 S
H1677 C1697 0.950 1_565 S
H1678 C1699 0.950 . S
H1679 C1702 0.950 . S
H1680 C1703 0.950 . S
H1681 C1705 0.950 . S
H1682 C1706 0.950 . S
H1683 C1707 0.951 . S
H1684 C1709 0.951 . S
H1685 C1711 0.939 1_545 S
H1686 C1712 0.950 1_545 S
H1687 C1714 0.950 . S
H1688 C1717 0.950 . S
H1689 C1718 0.950 . S
H1690 C1720 0.950 . S
H1691 C1721 0.950 . S
C1692 H1674 0.951 . S
C1692 C1693 1.366 . S
C1692 C1694 1.388 . S
C1693 C1692 1.366 . S
C1693 C1697 1.385 . S
C1694 H1675 0.951 . S
C1694 C1692 1.388 . S
C1694 C1695 1.366 . S
C1695 C1694 1.366 . S
C1695 C1696 1.423 . S
C1695 C1698 1.499 . S
C1696 H1676 0.939 1_545 S
C1696 C1695 1.423 . S
C1696 C1697 1.378 . S
C1697 H1677 0.950 1_545 S
C1697 C1693 1.385 . S
C1697 C1696 1.378 . S
C1698 C1695 1.499 . S
C1698 C1699 1.373 1_545 S
C1698 C1700 1.389 . S
C1699 H1678 0.950 . S
C1699 C1698 1.373 1_565 S
C1699 C1715 1.377 . S
C1700 C1698 1.389 . S
C1700 C1701 1.524 . S
C1700 C1714 1.377 . S
C1701 C1700 1.524 . S
C1701 C1702 1.397 . S
C1701 C1706 1.363 . S
C1702 H1679 0.950 . S
C1702 C1701 1.397 . S
C1702 C1703 1.334 . S
C1703 H1680 0.950 . S
C1703 C1702 1.334 . S
C1703 C1704 1.287 . S
C1704 C1703 1.287 . S
C1704 C1705 1.524 . S
C1704 H1723 0.913 . S
C1705 H1681 0.950 . S
C1705 C1704 1.524 . S
C1705 C1706 1.415 . S
C1706 H1682 0.950 . S
C1706 C1701 1.363 . S
C1706 C1705 1.415 . S
C1707 H1683 0.951 . S
C1707 C1708 1.366 . S
C1707 C1709 1.388 . S
C1708 C1707 1.366 . S
C1708 C1712 1.385 . S
C1709 H1684 0.951 . S
C1709 C1707 1.388 . S
C1709 C1710 1.366 . S
C1710 C1709 1.366 . S
C1710 C1711 1.423 . S
C1710 C1713 1.499 . S
C1711 H1685 0.939 1_565 S
C1711 C1710 1.423 . S
C1711 C1712 1.378 . S
C1712 H1686 0.950 1_565 S
C1712 C1708 1.385 . S
C1712 C1711 1.378 . S
C1713 C1710 1.499 . S
C1713 C1714 1.373 1_565 S
C1713 C1715 1.389 . S
C1714 H1687 0.950 . S
C1714 C1700 1.377 . S
C1714 C1713 1.373 1_545 S
C1715 C1699 1.377 . S
C1715 C1713 1.389 . S
C1715 C1716 1.524 . S
C1716 C1715 1.524 . S
C1716 C1717 1.397 . S
C1716 C1721 1.363 . S
C1717 H1688 0.950 . S
C1717 C1716 1.397 . S
C1717 C1718 1.334 . S
C1718 H1689 0.950 . S
C1718 C1717 1.334 . S
C1718 C1719 1.287 . S
C1719 C1718 1.287 . S
C1719 C1720 1.524 . S
C1719 H1722 0.999 . S
C1720 H1690 0.950 . S
C1720 C1719 1.524 . S
C1720 C1721 1.415 . S
C1721 H1691 0.950 . S
C1721 C1716 1.363 . S
C1721 C1720 1.415 . S
H1722 C1719 0.999 . S
H1723 C1704 0.913 . S
H1724 C1742 0.951 . S
H1725 C1744 0.951 . S
H1726 C1746 0.950 . S
H1727 C1747 0.950 . S
H1728 C1749 0.950 . S
H1729 C1752 0.950 . S
H1730 C1753 0.950 . S
H1731 C1755 0.950 . S
H1732 C1756 0.950 . S
H1733 C1757 0.951 . S
H1734 C1759 0.951 . S
H1735 C1761 0.950 . S
H1736 C1762 0.950 . S
H1737 C1764 0.950 . S
H1738 C1767 0.950 . S
H1739 C1768 0.950 . S
H1740 C1770 0.950 . S
H1741 C1771 0.950 . S
C1742 H1724 0.951 . S
C1742 C1743 1.366 . S
C1742 C1744 1.388 . S
C1743 C1742 1.366 . S
C1743 C1747 1.385 . S
C1744 H1725 0.951 . S
C1744 C1742 1.388 . S
C1744 C1745 1.366 . S
C1745 C1744 1.366 . S
C1745 C1746 1.414 . S
C1745 C1748 1.499 . S
C1746 H1726 0.950 . S
C1746 C1745 1.414 . S
C1746 C1747 1.374 . S
C1747 H1727 0.950 . S
C1747 C1743 1.385 . S
C1747 C1746 1.374 . S
C1748 C1745 1.499 . S
C1748 C1749 1.373 . S
C1748 C1750 1.389 . S
C1749 H1728 0.950 . S
C1749 C1748 1.373 . S
C1749 C1765 1.377 . S
C1750 C1748 1.389 . S
C1750 C1751 1.524 . S
C1750 C1764 1.377 . S
C1751 C1750 1.524 . S
C1751 C1752 1.397 . S
C1751 C1756 1.363 . S
C1752 H1729 0.950 . S
C1752 C1751 1.397 . S
C1752 C1753 1.334 . S
C1753 H1730 0.950 . S
C1753 C1752 1.334 . S
C1753 C1754 1.287 . S
C1754 C1753 1.287 . S
C1754 C1755 1.524 . S
C1754 H1773 0.913 . S
C1755 H1731 0.950 . S
C1755 C1754 1.524 . S
C1755 C1756 1.415 . S
C1756 H1732 0.950 . S
C1756 C1751 1.363 . S
C1756 C1755 1.415 . S
C1757 H1733 0.951 . S
C1757 C1758 1.366 . S
C1757 C1759 1.388 . S
C1758 C1757 1.366 . S
C1758 C1762 1.385 . S
C1759 H1734 0.951 . S
C1759 C1757 1.388 . S
C1759 C1760 1.366 . S
C1760 C1759 1.366 . S
C1760 C1761 1.414 . S
C1760 C1763 1.499 . S
C1761 H1735 0.950 . S
C1761 C1760 1.414 . S
C1761 C1762 1.374 . S
C1762 H1736 0.950 . S
C1762 C1758 1.385 . S
C1762 C1761 1.374 . S
C1763 C1760 1.499 . S
C1763 C1764 1.373 . S
C1763 C1765 1.389 . S
C1764 H1737 0.950 . S
C1764 C1750 1.377 . S
C1764 C1763 1.373 . S
C1765 C1749 1.377 . S
C1765 C1763 1.389 . S
C1765 C1766 1.524 . S
C1766 C1765 1.524 . S
C1766 C1767 1.397 . S
C1766 C1771 1.363 . S
C1767 H1738 0.950 . S
C1767 C1766 1.397 . S
C1767 C1768 1.334 . S
C1768 H1739 0.950 . S
C1768 C1767 1.334 . S
C1768 C1769 1.287 . S
C1769 C1768 1.287 . S
C1769 C1770 1.524 . S
C1769 H1772 0.999 . S
C1770 H1740 0.950 . S
C1770 C1769 1.524 . S
C1770 C1771 1.415 . S
C1771 H1741 0.950 . S
C1771 C1766 1.363 . S
C1771 C1770 1.415 . S
H1772 C1769 0.999 . S
H1773 C1754 0.913 . S
H1774 C1792 0.951 . S
H1775 C1794 0.951 . S
H1776 C1796 0.950 . S
H1777 C1797 0.950 . S
H1778 C1799 0.950 . S
H1779 C1802 0.950 . S
H1780 C1803 0.950 . S
H1781 C1805 0.950 . S
H1782 C1806 0.950 . S
H1783 C1807 0.951 . S
H1784 C1809 0.951 . S
H1785 C1811 0.950 . S
H1786 C1812 0.950 . S
H1787 C1814 0.950 . S
H1788 C1817 0.950 . S
H1789 C1818 0.950 . S
H1790 C1820 0.950 . S
H1791 C1821 0.950 . S
C1792 H1774 0.951 . S
C1792 C1793 1.366 . S
C1792 C1794 1.388 . S
C1793 C1792 1.366 . S
C1793 C1797 1.385 . S
C1794 H1775 0.951 . S
C1794 C1792 1.388 . S
C1794 C1795 1.366 . S
C1795 C1794 1.366 . S
C1795 C1796 1.414 . S
C1795 C1798 1.499 . S
C1796 H1776 0.950 . S
C1796 C1795 1.414 . S
C1796 C1797 1.374 . S
C1797 H1777 0.950 . S
C1797 C1793 1.385 . S
C1797 C1796 1.374 . S
C1798 C1795 1.499 . S
C1798 C1799 1.373 1_655 S
C1798 C1800 1.389 . S
C1799 H1778 0.950 . S
C1799 C1798 1.373 1_455 S
C1799 C1815 1.377 . S
C1800 C1798 1.389 . S
C1800 C1801 1.524 . S
C1800 C1814 1.377 . S
C1801 C1800 1.524 . S
C1801 C1802 1.397 . S
C1801 C1806 1.363 . S
C1802 H1779 0.950 . S
C1802 C1801 1.397 . S
C1802 C1803 1.334 . S
C1803 H1780 0.950 . S
C1803 C1802 1.334 . S
C1803 C1804 1.287 . S
C1804 C1803 1.287 . S
C1804 C1805 1.524 . S
C1804 H1823 0.913 . S
C1805 H1781 0.950 . S
C1805 C1804 1.524 . S
C1805 C1806 1.415 . S
C1806 H1782 0.950 . S
C1806 C1801 1.363 . S
C1806 C1805 1.415 . S
C1807 H1783 0.951 . S
C1807 C1808 1.366 . S
C1807 C1809 1.388 . S
C1808 C1807 1.366 . S
C1808 C1812 1.385 . S
C1809 H1784 0.951 . S
C1809 C1807 1.388 . S
C1809 C1810 1.366 . S
C1810 C1809 1.366 . S
C1810 C1811 1.414 . S
C1810 C1813 1.499 . S
C1811 H1785 0.950 . S
C1811 C1810 1.414 . S
C1811 C1812 1.374 . S
C1812 H1786 0.950 . S
C1812 C1808 1.385 . S
C1812 C1811 1.374 . S
C1813 C1810 1.499 . S
C1813 C1814 1.373 1_455 S
C1813 C1815 1.389 . S
C1814 H1787 0.950 . S
C1814 C1800 1.377 . S
C1814 C1813 1.373 1_655 S
C1815 C1799 1.377 . S
C1815 C1813 1.389 . S
C1815 C1816 1.524 . S
C1816 C1815 1.524 . S
C1816 C1817 1.397 . S
C1816 C1821 1.363 . S
C1817 H1788 0.950 . S
C1817 C1816 1.397 . S
C1817 C1818 1.334 . S
C1818 H1789 0.950 . S
C1818 C1817 1.334 . S
C1818 C1819 1.287 . S
C1819 C1818 1.287 . S
C1819 C1820 1.524 . S
C1819 H1822 0.999 . S
C1820 H1790 0.950 . S
C1820 C1819 1.524 . S
C1820 C1821 1.415 . S
C1821 H1791 0.950 . S
C1821 C1816 1.363 . S
C1821 C1820 1.415 . S
H1822 C1819 0.999 . S
H1823 C1804 0.913 . S
C243 C3 1.657 . S
C258 C31 1.657 . S
C293 C17 1.657 . S
C308 C45 1.657 . S
C343 C59 1.657 . S
C358 C87 1.657 . S
C393 C101 1.657 . S
C408 C73 1.657 . S
C443 C115 1.657 . S
C458 C143 1.657 . S
C493 C157 1.657 . S
C508 C129 1.657 . S
C543 C199 1.657 . S
C558 C171 1.657 . S
C593 C213 1.656 . S
C608 C185 1.656 . S
C643 C105 1.033 . S
C658 C7 1.033 . S
C693 C21 1.033 . S
C708 C63 1.034 . S
C743 C77 1.034 . S
C758 C35 1.034 . S
C793 C49 1.032 . S
C808 C91 1.032 . S
C843 C217 1.033 . S
C858 C119 1.033 . S
C893 C133 1.034 . S
C908 C175 1.034 . S
C943 C147 1.034 . S
C958 C189 1.034 . S
C993 C203 1.034 . S
C1008 C161 1.033 . S
C1043 C9 0.679 . S
C1058 C65 0.678 . S
C1093 C23 0.682 . S
C1108 C79 0.681 . S
C1143 C93 0.679 . S
C1158 C37 0.681 . S
C1193 C51 0.681 . S
C1208 C107 0.679 . S
C1243 C177 0.681 . S
C1258 C121 0.682 . S
C1293 C191 0.682 . S
C1308 C135 0.682 . S
C1343 C149 0.682 . S
C1358 C205 0.682 . S
C1393 C163 0.679 . S
C1408 C219 0.678 . S
C1443 C8 1.709 . S
C1458 C120 1.709 . S
C1493 C134 1.709 . S
C1508 C22 1.709 . S
C1543 C36 1.708 . S
C1558 C148 1.708 . S
C1593 C162 1.709 . S
C1608 C50 1.709 . S
C1643 C64 1.709 . S
C1658 C176 1.709 . S
C1693 C78 1.709 . S
C1708 C190 1.709 . S
C1743 C204 1.709 . S
C1758 C92 1.709 . S
C1793 C106 1.708 . S
C1808 C218 1.708 . S
