# Generated by pormake.
# Topology zfg, (5)-cn, num edge types: 1
# Building blocks:
#     Node 0, Type 0, BuildingBlock: XOMCOT_clean_sbu_0, # of connection points: 5
#     Node 1, Type 0, BuildingBlock: XOMCOT_clean_sbu_0, # of connection points: 5
#     Node 2, Type 0, BuildingBlock: XOMCOT_clean_sbu_0, # of connection points: 5
#     Node 3, Type 0, BuildingBlock: XOMCOT_clean_sbu_0, # of connection points: 5
#     Node 4, Type 0, BuildingBlock: XOMCOT_clean_sbu_0, # of connection points: 5
#     Node 5, Type 0, BuildingBlock: XOMCOT_clean_sbu_0, # of connection points: 5
#     Node 6, Type 0, BuildingBlock: XOMCOT_clean_sbu_0, # of connection points: 5
#     Node 7, Type 0, BuildingBlock: XOMCOT_clean_sbu_0, # of connection points: 5
#     Node 8, Type 0, BuildingBlock: XOMCOT_clean_sbu_0, # of connection points: 5
#     Node 9, Type 0, BuildingBlock: XOMCOT_clean_sbu_0, # of connection points: 5
#     Node 10, Type 0, BuildingBlock: XOMCOT_clean_sbu_0, # of connection points: 5
#     Node 11, Type 0, BuildingBlock: XOMCOT_clean_sbu_0, # of connection points: 5
#     Node 12, Type 0, BuildingBlock: XOMCOT_clean_sbu_0, # of connection points: 5
#     Node 13, Type 0, BuildingBlock: XOMCOT_clean_sbu_0, # of connection points: 5
#     Node 14, Type 0, BuildingBlock: XOMCOT_clean_sbu_0, # of connection points: 5
#     Node 15, Type 0, BuildingBlock: XOMCOT_clean_sbu_0, # of connection points: 5
#     Edge 16, Type (0, 0), BuildingBlock: KIFKEQ_clean_linker_1, # of connection points: 2
#     Edge 17, Type (0, 0), BuildingBlock: KIFKEQ_clean_linker_1, # of connection points: 2
#     Edge 18, Type (0, 0), BuildingBlock: KIFKEQ_clean_linker_1, # of connection points: 2
#     Edge 19, Type (0, 0), BuildingBlock: KIFKEQ_clean_linker_1, # of connection points: 2
#     Edge 20, Type (0, 0), BuildingBlock: KIFKEQ_clean_linker_1, # of connection points: 2
#     Edge 21, Type (0, 0), BuildingBlock: KIFKEQ_clean_linker_1, # of connection points: 2
#     Edge 22, Type (0, 0), BuildingBlock: KIFKEQ_clean_linker_1, # of connection points: 2
#     Edge 23, Type (0, 0), BuildingBlock: KIFKEQ_clean_linker_1, # of connection points: 2
#     Edge 24, Type (0, 0), BuildingBlock: KIFKEQ_clean_linker_1, # of connection points: 2
#     Edge 25, Type (0, 0), BuildingBlock: KIFKEQ_clean_linker_1, # of connection points: 2
#     Edge 26, Type (0, 0), BuildingBlock: KIFKEQ_clean_linker_1, # of connection points: 2
#     Edge 27, Type (0, 0), BuildingBlock: KIFKEQ_clean_linker_1, # of connection points: 2
#     Edge 28, Type (0, 0), BuildingBlock: KIFKEQ_clean_linker_1, # of connection points: 2
#     Edge 29, Type (0, 0), BuildingBlock: KIFKEQ_clean_linker_1, # of connection points: 2
#     Edge 30, Type (0, 0), BuildingBlock: KIFKEQ_clean_linker_1, # of connection points: 2
#     Edge 31, Type (0, 0), BuildingBlock: KIFKEQ_clean_linker_1, # of connection points: 2
#     Edge 32, Type (0, 0), BuildingBlock: KIFKEQ_clean_linker_1, # of connection points: 2
#     Edge 33, Type (0, 0), BuildingBlock: KIFKEQ_clean_linker_1, # of connection points: 2
#     Edge 34, Type (0, 0), BuildingBlock: KIFKEQ_clean_linker_1, # of connection points: 2
#     Edge 35, Type (0, 0), BuildingBlock: KIFKEQ_clean_linker_1, # of connection points: 2
#     Edge 36, Type (0, 0), BuildingBlock: KIFKEQ_clean_linker_1, # of connection points: 2
#     Edge 37, Type (0, 0), BuildingBlock: KIFKEQ_clean_linker_1, # of connection points: 2
#     Edge 38, Type (0, 0), BuildingBlock: KIFKEQ_clean_linker_1, # of connection points: 2
#     Edge 39, Type (0, 0), BuildingBlock: KIFKEQ_clean_linker_1, # of connection points: 2
#     Edge 40, Type (0, 0), BuildingBlock: KIFKEQ_clean_linker_1, # of connection points: 2
#     Edge 41, Type (0, 0), BuildingBlock: KIFKEQ_clean_linker_1, # of connection points: 2
#     Edge 42, Type (0, 0), BuildingBlock: KIFKEQ_clean_linker_1, # of connection points: 2
#     Edge 43, Type (0, 0), BuildingBlock: KIFKEQ_clean_linker_1, # of connection points: 2
#     Edge 44, Type (0, 0), BuildingBlock: KIFKEQ_clean_linker_1, # of connection points: 2
#     Edge 45, Type (0, 0), BuildingBlock: KIFKEQ_clean_linker_1, # of connection points: 2
#     Edge 46, Type (0, 0), BuildingBlock: KIFKEQ_clean_linker_1, # of connection points: 2
#     Edge 47, Type (0, 0), BuildingBlock: KIFKEQ_clean_linker_1, # of connection points: 2
#     Edge 48, Type (0, 0), BuildingBlock: KIFKEQ_clean_linker_1, # of connection points: 2
#     Edge 49, Type (0, 0), BuildingBlock: KIFKEQ_clean_linker_1, # of connection points: 2
#     Edge 50, Type (0, 0), BuildingBlock: KIFKEQ_clean_linker_1, # of connection points: 2
#     Edge 51, Type (0, 0), BuildingBlock: KIFKEQ_clean_linker_1, # of connection points: 2
#     Edge 52, Type (0, 0), BuildingBlock: KIFKEQ_clean_linker_1, # of connection points: 2
#     Edge 53, Type (0, 0), BuildingBlock: KIFKEQ_clean_linker_1, # of connection points: 2
#     Edge 54, Type (0, 0), BuildingBlock: KIFKEQ_clean_linker_1, # of connection points: 2
#     Edge 55, Type (0, 0), BuildingBlock: KIFKEQ_clean_linker_1, # of connection points: 2
# Relax obj value: 0.151
# Max RMSD: 0.179
# Mean RMSD: 0.179
data_MOF--net-zfg--node1-XOMCOT_clean_sbu_0--edge1-KIFKEQ_clean_linker_1
_symmetry_space_group_name_H-M    P1
_symmetry_Int_Tables_number       1
_symmetry_cell_setting            triclinic
loop_
_symmetry_equiv_pos_as_xyz
'x, y, z'
_cell_length_a     42.195091
_cell_length_b     42.128851
_cell_length_c     54.348414
_cell_angle_alpha  89.98675
_cell_angle_beta   90.062246
_cell_angle_gamma 89.942631
loop_
_atom_site_label
_atom_site_type_symbol
_atom_site_fract_x
_atom_site_fract_y
_atom_site_fract_z
_atom_type_partial_charge
Co0 Co 0.08034 0.31467 0.12746 0.0
C1 C 0.117 0.25337 0.13753 0.0
C2 C 0.14374 0.29624 0.14178 0.0
C3 C 0.16331 0.27108 0.14676 0.0
N4 N 0.11461 0.28545 0.13597 0.0
N5 N 0.14662 0.24406 0.14405 0.0
H6 H 0.09808 0.23693 0.13385 0.0
H7 H 0.15025 0.32105 0.14258 0.0
C8 C 0.09245 0.32476 0.18065 0.0
O9 O 0.09151 0.29375 0.18316 0.0
N10 N 0.04813 0.34549 0.11921 0.0
C11 C 0.01955 0.34117 0.1087 0.0
C12 C 1.00536 0.37052 0.1057 0.0
C13 C 0.05115 0.37711 0.12218 0.0
N14 N 0.0254 0.39307 0.1141 0.0
C15 C 0.04097 0.25974 0.12803 0.0
C16 C 0.99966 0.27937 0.1643 0.0
C17 C 0.99263 0.25153 0.15111 0.0
C18 C 1.01413 0.24164 0.13306 0.0
C19 C 0.02701 0.29686 0.15869 0.0
N20 N 0.04756 0.28682 0.14085 0.0
H21 H 0.05556 0.25268 0.1127 0.0
H22 H 0.0305 0.31945 0.16767 0.0
H23 H 1.00986 0.31841 0.10339 0.0
H24 H 0.0719 0.38814 0.13017 0.0
O25 O 0.07979 0.29885 0.09436 0.0
O26 O 0.11014 0.33841 0.1071 0.0
O27 O 0.08719 0.33733 0.15966 0.0
C28 C 0.10101 0.32003 0.08915 0.0
H29 H 0.18789 0.27265 0.15232 0.0
H30 H 0.98243 0.37494 0.09744 0.0
H31 H 0.98362 0.28824 0.17824 0.0
H32 H 1.00935 0.22111 0.12167 0.0
Co33 Co 0.70823 0.07952 0.12522 0.0
C34 C 0.76962 0.11728 0.13259 0.0
C35 C 0.72684 0.14475 0.1325 0.0
C36 C 0.75185 0.16501 0.13568 0.0
N37 N 0.73764 0.11473 0.13037 0.0
N38 N 0.77877 0.14786 0.13571 0.0
H39 H 0.78609 0.09776 0.13195 0.0
H40 H 0.7021 0.15148 0.13203 0.0
C41 C 0.70021 0.09821 0.17727 0.0
O42 O 0.73127 0.09733 0.17889 0.0
N43 N 0.67709 0.04657 0.12011 0.0
C44 C 0.68102 0.01656 0.11213 0.0
C45 C 0.6515 1.00257 0.11003 0.0
C46 C 0.64554 0.05058 0.12245 0.0
N47 N 0.62923 0.02413 0.1164 0.0
C48 C 0.7632 0.04057 0.12833 0.0
C49 C 0.744 1.00312 0.1672 0.0
C50 C 0.77147 0.99445 0.15414 0.0
C51 C 0.78116 1.01411 0.13478 0.0
C52 C 0.72654 0.02998 0.16006 0.0
N53 N 0.7363 0.04854 0.14085 0.0
H54 H 0.77018 0.05367 0.11217 0.0
H55 H 0.70415 0.03456 0.16899 0.0
H56 H 0.70361 1.00579 0.10777 0.0
H57 H 0.63477 0.07263 0.12833 0.0
O58 O 0.72336 0.074 0.09234 0.0
O59 O 0.68435 0.10654 0.10247 0.0
O60 O 0.6866 0.09086 0.15706 0.0
C61 C 0.7025 0.09469 0.08535 0.0
H62 H 0.75029 0.19045 0.13821 0.0
H63 H 0.64676 0.97873 0.10361 0.0
H64 H 0.73533 0.98864 0.18221 0.0
H65 H 0.80139 1.00808 0.12346 0.0
Co66 Co 0.93887 0.70782 0.13127 0.0
C67 C 0.90174 0.76884 0.14059 0.0
C68 C 0.87572 0.72585 0.14662 0.0
C69 C 0.85582 0.751 0.15081 0.0
N70 N 0.90456 0.73675 0.1401 0.0
N71 N 0.8721 0.77801 0.14701 0.0
H72 H 0.92029 0.78536 0.13605 0.0
H73 H 0.86955 0.70103 0.14821 0.0
C74 C 0.93014 0.70021 0.18506 0.0
O75 O 0.93048 0.73134 0.1866 0.0
N76 N 0.97126 0.67738 0.12269 0.0
C77 C 0.99853 0.68191 0.11039 0.0
C78 C 1.01279 0.65273 0.10685 0.0
C79 C 0.96912 0.6458 0.12628 0.0
N80 N 0.99419 0.62996 0.11681 0.0
C81 C 0.97756 0.76332 0.12857 0.0
C82 C 0.02057 0.74649 0.16458 0.0
C83 C 0.02687 0.77345 0.15012 0.0
C84 C 1.00451 0.78191 0.13218 0.0
C85 C 0.99332 0.72831 0.16021 0.0
N86 N 0.97186 0.73701 0.14257 0.0
H87 H 0.9621 0.76934 0.11345 0.0
H88 H 0.9906 0.70625 0.17008 0.0
H89 H 1.00717 0.70466 0.10409 0.0
H90 H 0.94887 0.63468 0.13489 0.0
O91 O 0.93671 0.72195 0.09772 0.0
O92 O 0.90849 0.68216 0.11302 0.0
O93 O 0.93458 0.6867 0.16432 0.0
C94 C 0.91587 0.69981 0.09423 0.0
H95 H 0.83125 0.74955 0.1564 0.0
H96 H 0.03507 0.64874 0.09752 0.0
H97 H 0.03707 0.73874 0.17861 0.0
H98 H 1.00858 0.8017 0.11987 0.0
Co99 Co 0.31344 0.94357 0.13062 0.0
C100 C 0.25198 0.90718 0.13554 0.0
C101 C 0.29368 0.88061 0.14507 0.0
C102 C 0.26791 0.86106 0.14741 0.0
N103 N 0.28392 0.90949 0.13756 0.0
N104 N 0.24172 0.87768 0.14145 0.0
H105 H 0.2366 0.92607 0.12935 0.0
H106 H 0.31813 0.8741 0.14835 0.0
C107 C 0.35355 0.94856 0.17734 0.0
O108 O 0.36332 0.97731 0.17196 0.0
N109 N 0.34442 0.97644 0.12362 0.0
C110 C 0.34023 1.00796 0.12073 0.0
C111 C 0.36946 0.02193 0.11712 0.0
C112 C 0.37593 0.97165 0.12102 0.0
N113 N 0.39188 0.99903 0.11739 0.0
C114 C 0.26045 0.98545 0.12748 0.0
C115 C 0.26692 0.01562 0.1722 0.0
C116 C 0.24465 0.02737 0.15525 0.0
C117 C 0.24106 1.01123 0.13296 0.0
C118 C 0.2858 0.98928 0.16607 0.0
N119 N 0.28335 0.97517 0.14346 0.0
H120 H 0.2573 0.97443 0.10979 0.0
H121 H 0.30262 0.98118 0.17946 0.0
H122 H 0.31774 0.0202 0.12152 0.0
H123 H 0.38714 0.9487 0.12315 0.0
O124 O 0.30021 0.94456 0.0968 0.0
O125 O 0.33864 0.91393 0.11096 0.0
O126 O 0.33315 0.93444 0.1638 0.0
C127 C 0.3216 0.92329 0.09234 0.0
H128 H 0.26834 0.83647 0.1532 0.0
H129 H 0.37386 0.04703 0.11463 0.0
H130 H 0.27013 0.02699 0.1899 0.0
H131 H 0.22444 0.01936 0.11912 0.0
Co132 Co 0.58637 0.21279 0.37369 0.0
C133 C 0.62207 0.27461 0.36905 0.0
C134 C 0.64742 0.23389 0.35575 0.0
C135 C 0.66632 0.26009 0.35291 0.0
N136 N 0.61965 0.24282 0.36579 0.0
N137 N 0.65049 0.28572 0.36128 0.0
H138 H 0.604 0.28925 0.37736 0.0
H139 H 0.65359 0.20976 0.35094 0.0
C140 C 0.57958 0.17325 0.32662 0.0
O141 O 0.5519 0.16163 0.33293 0.0
N142 N 0.5541 0.18154 0.38163 0.0
C143 C 0.52326 0.18616 0.38699 0.0
C144 C 0.50934 0.15707 0.39131 0.0
C145 C 0.55866 0.14985 0.3835 0.0
N146 N 0.5316 0.13421 0.38897 0.0
C147 C 0.54433 0.26561 0.37864 0.0
C148 C 0.51175 0.25888 0.33495 0.0
C149 C 0.50088 0.28112 0.35222 0.0
C150 C 0.51815 0.28489 0.37398 0.0
C151 C 0.53844 0.24019 0.34022 0.0
N152 N 0.55386 0.24283 0.36229 0.0
H153 H 0.55622 0.26859 0.39602 0.0
H154 H 0.54571 0.22329 0.32663 0.0
H155 H 0.51147 0.20891 0.38768 0.0
H156 H 0.5811 0.13841 0.37973 0.0
O157 O 0.58763 0.22539 0.40766 0.0
O158 O 0.61732 0.18724 0.39163 0.0
O159 O 0.59348 0.19398 0.33997 0.0
C160 C 0.60921 0.20389 0.41078 0.0
H161 H 0.68986 0.26026 0.34503 0.0
H162 H 0.48469 0.15316 0.39586 0.0
H163 H 0.49943 0.25556 0.31764 0.0
H164 H 0.51064 0.30158 0.38798 0.0
Co165 Co 0.81971 0.58691 0.38205 0.0
C166 C 0.75876 0.62355 0.37596 0.0
C167 C 0.80073 0.65001 0.36715 0.0
C168 C 0.77503 0.66953 0.36408 0.0
N169 N 0.79073 0.62128 0.37473 0.0
N170 N 0.74868 0.65296 0.36958 0.0
H171 H 0.74323 0.60458 0.38175 0.0
H172 H 0.82525 0.65636 0.3641 0.0
C173 C 0.85654 0.57835 0.33406 0.0
O174 O 0.86583 0.54944 0.33954 0.0
N175 N 0.85008 0.55356 0.38933 0.0
C176 C 0.84486 0.52315 0.39586 0.0
C177 C 0.87369 0.50851 0.39976 0.0
C178 C 0.88189 0.55712 0.38994 0.0
N179 N 0.89701 0.52988 0.39594 0.0
C180 C 0.76743 0.54466 0.38869 0.0
C181 C 0.76794 0.51633 0.34297 0.0
C182 C 0.74819 0.50367 0.36131 0.0
C183 C 0.74752 0.51893 0.38417 0.0
C184 C 0.78753 0.54238 0.34825 0.0
N185 N 0.78822 0.55544 0.37129 0.0
H186 H 0.7667 0.55501 0.40678 0.0
H187 H 0.80223 0.55127 0.33372 0.0
H188 H 0.82189 0.51218 0.39781 0.0
H189 H 0.89368 0.57905 0.38516 0.0
O190 O 0.80845 0.58879 0.41634 0.0
O191 O 0.84694 0.61695 0.39935 0.0
O192 O 0.83766 0.59355 0.34813 0.0
C193 C 0.83076 0.60962 0.41887 0.0
H194 H 0.77558 0.69399 0.35797 0.0
H195 H 0.87707 0.48403 0.4052 0.0
H196 H 0.76864 0.50591 0.32477 0.0
H197 H 0.73288 0.51017 0.39904 0.0
Co198 Co 0.4446 0.81878 0.37828 0.0
C199 C 0.40952 0.75678 0.36882 0.0
C200 C 0.38245 0.7988 0.36154 0.0
C201 C 0.36398 0.77293 0.35612 0.0
N202 N 0.41119 0.78892 0.36929 0.0
N203 N 0.38098 0.7465 0.36067 0.0
H204 H 0.42846 0.74094 0.37387 0.0
H205 H 0.37547 0.8234 0.35975 0.0
C206 C 0.43485 0.82708 0.32462 0.0
O207 O 0.43679 0.79603 0.3228 0.0
N208 N 0.47623 0.84994 0.38701 0.0
C209 C 0.50325 0.84571 0.39979 0.0
C210 C 0.51749 0.87492 0.40301 0.0
C211 C 0.47424 0.88142 0.38278 0.0
N212 N 0.49919 0.8974 0.39232 0.0
C213 C 0.48499 0.76452 0.37984 0.0
C214 C 0.52675 0.783 0.34355 0.0
C215 C 0.53374 0.75567 0.35741 0.0
C216 C 0.51208 0.74646 0.37556 0.0
C217 C 0.49926 0.80061 0.34856 0.0
N218 N 0.47834 0.79098 0.36625 0.0
H219 H 0.47018 0.75789 0.39515 0.0
H220 H 0.49585 0.82288 0.33909 0.0
H221 H 0.51179 0.8231 0.40652 0.0
H222 H 0.45433 0.89242 0.37354 0.0
O223 O 0.44378 0.80372 0.41155 0.0
O224 O 0.41359 0.8427 0.39743 0.0
O225 O 0.43886 0.84048 0.34548 0.0
C226 C 0.42209 0.82478 0.41585 0.0
H227 H 0.33968 0.77355 0.34974 0.0
H228 H 0.53963 0.87916 0.41251 0.0
H229 H 0.54285 0.7914 0.32949 0.0
H230 H 0.51681 0.72646 0.38753 0.0
Co231 Co 0.21136 0.44259 0.37219 0.0
C232 C 0.2734 0.40791 0.36419 0.0
C233 C 0.23234 0.38291 0.35135 0.0
C234 C 0.25865 0.36516 0.34581 0.0
N235 N 0.2414 0.40988 0.36267 0.0
N236 N 0.28448 0.38087 0.35379 0.0
H237 H 0.28849 0.42575 0.37224 0.0
H238 H 0.20805 0.37667 0.34724 0.0
C239 C 0.17148 0.45184 0.32534 0.0
O240 O 0.15833 0.47838 0.33283 0.0
N241 N 0.18009 0.47413 0.38165 0.0
C242 C 0.18471 0.50389 0.39001 0.0
C243 C 0.15565 0.5171 0.39561 0.0
C244 C 0.14848 0.46939 0.38299 0.0
N245 N 0.13288 0.49541 0.391 0.0
C246 C 0.26479 0.48299 0.37903 0.0
C247 C 0.25502 0.52306 0.3396 0.0
C248 C 0.27837 0.53098 0.357 0.0
C249 C 0.28379 0.50976 0.37637 0.0
C250 C 0.23672 0.49552 0.34274 0.0
N251 N 0.24109 0.4762 0.3627 0.0
H252 H 0.26883 0.46818 0.3949 0.0
H253 H 0.21832 0.49092 0.32959 0.0
H254 H 0.20748 0.51532 0.39203 0.0
H255 H 0.13714 0.44732 0.37789 0.0
O256 O 0.22368 0.43862 0.40611 0.0
O257 O 0.18576 0.41026 0.38843 0.0
O258 O 0.19299 0.43813 0.33805 0.0
C259 C 0.20205 0.41697 0.40808 0.0
H260 H 0.25872 0.34225 0.3368 0.0
H261 H 0.15161 0.54104 0.40213 0.0
H262 H 0.24984 0.53869 0.3243 0.0
H263 H 0.30212 0.51415 0.38991 0.0
Co264 Co 0.9526 0.71148 0.87801 0.0
C265 C 0.91593 0.77304 0.86875 0.0
C266 C 0.889 0.73029 0.86448 0.0
C267 C 0.86942 0.75556 0.85986 0.0
N268 N 0.91825 0.74093 0.87011 0.0
N269 N 0.88623 0.78249 0.86258 0.0
H270 H 0.93498 0.7894 0.87225 0.0
H271 H 0.88242 0.70552 0.86351 0.0
C272 C 0.94046 0.70344 0.8247 0.0
O273 O 0.94163 0.73453 0.82294 0.0
N274 N 0.98492 0.6804 0.88566 0.0
C275 C 1.01397 0.68467 0.89541 0.0
C276 C 0.02817 0.65529 0.89821 0.0
C277 C 0.98165 0.64874 0.88299 0.0
N278 N 1.00769 0.63275 0.8905 0.0
C279 C 0.99173 0.76652 0.87872 0.0
C280 C 0.03272 0.74901 0.8416 0.0
C281 C 0.03969 0.77631 0.85551 0.0
C282 C 0.01836 0.78506 0.87404 0.0
C283 C 1.00569 0.73091 0.84701 0.0
N284 N 0.98526 0.73996 0.86523 0.0
H285 H 0.9771 0.77291 0.89421 0.0
H286 H 1.00232 0.7087 0.83745 0.0
H287 H 0.024 0.70741 0.90035 0.0
H288 H 0.96052 0.63766 0.87566 0.0
O289 O 0.95313 0.7262 0.91136 0.0
O290 O 0.92279 0.68704 0.89788 0.0
O291 O 0.94574 0.68999 0.84535 0.0
C292 C 0.93179 0.70498 0.91612 0.0
H293 H 0.84476 0.75413 0.85449 0.0
H294 H 0.05143 0.65083 0.90588 0.0
H295 H 0.04851 0.74102 0.82719 0.0
H296 H 0.02302 0.80507 0.88599 0.0
Co297 Co 0.32628 0.94433 0.87803 0.0
C298 C 0.26477 0.90949 0.87111 0.0
C299 C 0.30588 0.88351 0.85925 0.0
C300 C 0.27979 0.8646 0.85607 0.0
N301 N 0.29663 0.91154 0.86874 0.0
N302 N 0.254 0.88083 0.8635 0.0
H303 H 0.24998 0.92799 0.87881 0.0
H304 H 0.33017 0.87709 0.85531 0.0
C305 C 0.36149 0.95826 0.83048 0.0
O306 O 0.36461 0.98843 0.83608 0.0
N307 N 0.35769 0.97598 0.88712 0.0
C308 C 0.35428 1.0044 0.89824 0.0
C309 C 0.38392 0.0174 0.90194 0.0
C310 C 0.3893 0.97191 0.88477 0.0
N311 N 0.40593 0.99697 0.89334 0.0
C312 C 0.27946 0.99218 0.88578 0.0
C313 C 0.26955 1.01016 0.83759 0.0
C314 C 0.25388 0.02684 0.85641 0.0
C315 C 0.25865 0.01694 0.88067 0.0
C316 C 0.29003 0.98489 0.84355 0.0
N317 N 0.29607 0.9772 0.86757 0.0
H318 H 0.2829 0.98604 0.90482 0.0
H319 H 0.30074 0.97173 0.82874 0.0
H320 H 0.33218 1.0151 0.90369 0.0
H321 H 0.39986 0.95074 0.87703 0.0
O322 O 0.31307 0.94074 0.91177 0.0
O323 O 0.35188 0.91259 0.89514 0.0
O324 O 0.34604 0.93957 0.84453 0.0
C325 C 0.33487 0.91936 0.91438 0.0
H326 H 0.27972 0.84063 0.84888 0.0
H327 H 0.38878 0.0403 0.91013 0.0
H328 H 0.26594 0.01652 0.81849 0.0
H329 H 0.24732 0.02907 0.89588 0.0
Co330 Co 0.09196 0.31648 0.87336 0.0
C331 C 0.12721 0.25467 0.86696 0.0
C332 C 0.15279 0.29579 0.85477 0.0
C333 C 0.1712 0.26952 0.85064 0.0
N334 N 0.1252 0.28666 0.86492 0.0
N335 N 0.15531 0.24357 0.85833 0.0
H336 H 0.10886 0.23991 0.87479 0.0
H337 H 0.15904 0.32007 0.85053 0.0
C338 C 0.08283 0.35559 0.82653 0.0
O339 O 0.05409 0.36451 0.83267 0.0
N340 N 0.05965 0.3477 0.88166 0.0
C341 C 0.02834 0.34358 0.8855 0.0
C342 C 1.01449 0.37287 0.88926 0.0
C343 C 0.06442 0.37936 0.88374 0.0
N344 N 0.03721 0.39533 0.88808 0.0
C345 C 0.04804 0.26547 0.87909 0.0
C346 C 0.02084 0.26696 0.83295 0.0
C347 C 1.00763 0.24705 0.85095 0.0
C348 C 0.02225 0.24595 0.87404 0.0
C349 C 0.04708 0.28609 0.83873 0.0
N350 N 0.05958 0.2863 0.86198 0.0
H351 H 0.05783 0.2643 0.89734 0.0
H352 H 0.05666 0.30073 0.8244 0.0
H353 H 0.01603 0.32114 0.88512 0.0
H354 H 0.08713 0.39064 0.88077 0.0
O355 O 0.09386 0.3034 0.90722 0.0
O356 O 0.12297 0.34197 0.89136 0.0
O357 O 0.09842 0.33609 0.83989 0.0
C358 C 0.11519 0.32505 0.91044 0.0
H359 H 0.1944 0.2696 0.84217 0.0
H360 H 0.98955 0.3773 0.89241 0.0
H361 H 1.01081 0.26803 0.81462 0.0
H362 H 1.01298 0.23118 0.88866 0.0
Co363 Co 0.719 0.08435 0.86839 0.0
C364 C 0.77998 0.12096 0.86191 0.0
C365 C 0.7382 0.14627 0.85076 0.0
C366 C 0.76396 0.16548 0.84696 0.0
N367 N 0.74806 0.11833 0.86008 0.0
N368 N 0.79025 0.14966 0.85396 0.0
H369 H 0.79538 0.1028 0.86922 0.0
H370 H 0.71375 0.15227 0.84697 0.0
C371 C 0.6783 0.07723 0.82196 0.0
O372 O 0.66709 0.04938 0.82836 0.0
N373 N 0.68868 0.05141 0.87676 0.0
C374 C 0.69401 0.02073 0.88248 0.0
C375 C 0.66537 1.00644 0.88766 0.0
C376 C 0.65707 0.0555 0.87924 0.0
N377 N 0.64212 0.02832 0.88552 0.0
C378 C 0.7728 0.04365 0.87294 0.0
C379 C 0.76501 1.00924 0.83021 0.0
C380 C 0.78788 0.99917 0.84734 0.0
C381 C 0.79213 0.01744 0.86858 0.0
C382 C 0.74616 0.03597 0.83522 0.0
N383 N 0.74941 0.05232 0.85682 0.0
H384 H 0.77618 0.05623 0.88998 0.0
H385 H 0.72848 0.04244 0.82194 0.0
H386 H 0.71695 1.00936 0.88299 0.0
H387 H 0.64518 0.07775 0.87551 0.0
O388 O 0.73215 0.08598 0.90223 0.0
O389 O 0.69308 0.11476 0.88656 0.0
O390 O 0.69945 0.0911 0.8349 0.0
C391 C 0.71015 0.107 0.90558 0.0
H392 H 0.76336 0.18918 0.83928 0.0
H393 H 0.66204 0.98185 0.89279 0.0
H394 H 0.76119 0.99619 0.8133 0.0
H395 H 0.80914 1.01063 0.88255 0.0
Co396 Co 0.43951 0.82421 0.62969 0.0
C397 C 0.40459 0.76278 0.6365 0.0
C398 C 0.37945 0.80373 0.6498 0.0
C399 C 0.36046 0.77763 0.65281 0.0
N400 N 0.40701 0.79457 0.63953 0.0
N401 N 0.37619 0.75194 0.64448 0.0
H402 H 0.42257 0.74814 0.62797 0.0
H403 H 0.37332 0.82799 0.65425 0.0
C404 C 0.4543 0.8609 0.6764 0.0
O405 O 0.48412 0.86447 0.67007 0.0
N406 N 0.47094 0.85553 0.62 0.0
C407 C 0.50025 0.85181 0.61054 0.0
C408 C 0.51314 0.88139 0.6063 0.0
C409 C 0.46633 0.88725 0.62091 0.0
N410 N 0.4918 0.90371 0.61292 0.0
C411 C 0.4867 0.7767 0.62184 0.0
C412 C 0.50666 0.76868 0.66978 0.0
C413 C 0.52256 0.75227 0.65094 0.0
C414 C 0.51165 0.75606 0.62683 0.0
C415 C 0.4812 0.78898 0.66397 0.0
N416 N 0.47251 0.79407 0.64002 0.0
H417 H 0.47992 0.77955 0.60288 0.0
H418 H 0.46875 0.80035 0.67884 0.0
H419 H 0.51182 0.82951 0.60685 0.0
H420 H 0.44459 0.89796 0.62741 0.0
O421 O 0.43526 0.81058 0.59607 0.0
O422 O 0.40746 0.84961 0.61277 0.0
O423 O 0.43545 0.84454 0.66309 0.0
C424 C 0.41389 0.8324 0.59355 0.0
H425 H 0.33675 0.7775 0.6604 0.0
H426 H 0.53667 0.88597 0.59926 0.0
H427 H 0.51379 0.76584 0.6888 0.0
H428 H 0.52317 0.74417 0.61159 0.0
Co429 Co 0.2065 0.45011 0.62417 0.0
C430 C 0.26803 0.41315 0.63274 0.0
C431 C 0.22531 0.38613 0.63661 0.0
C432 C 0.25052 0.36621 0.64039 0.0
N433 N 0.23596 0.41562 0.63167 0.0
N434 N 0.27738 0.3831 0.63794 0.0
H435 H 0.28444 0.43228 0.62958 0.0
H436 H 0.20057 0.37952 0.63747 0.0
C437 C 0.19909 0.43742 0.67739 0.0
O438 O 0.23016 0.43874 0.6788 0.0
N439 N 0.17543 0.4825 0.61686 0.0
C440 C 0.17941 0.51054 0.6054 0.0
C441 C 0.15005 0.52469 0.60263 0.0
C442 C 0.14397 0.47981 0.62069 0.0
N443 N 0.12774 0.50524 0.61218 0.0
C444 C 0.26142 0.48944 0.62393 0.0
C445 C 0.24353 0.53012 0.66119 0.0
C446 C 0.2709 0.5373 0.6475 0.0
C447 C 0.27981 0.51614 0.62886 0.0
C448 C 0.22554 0.50309 0.65548 0.0
N449 N 0.23482 0.48275 0.63724 0.0
H450 H 0.26793 0.47496 0.60837 0.0
H451 H 0.20329 0.49957 0.66489 0.0
H452 H 0.2019 0.51972 0.59907 0.0
H453 H 0.13326 0.45937 0.62938 0.0
O454 O 0.22124 0.45122 0.59087 0.0
O455 O 0.18217 0.42052 0.6039 0.0
O456 O 0.18526 0.44266 0.65687 0.0
C457 C 0.20021 0.42981 0.58582 0.0
H458 H 0.2492 0.3412 0.64486 0.0
H459 H 0.14548 0.54713 0.5936 0.0
H460 H 0.2354 0.54573 0.67569 0.0
H461 H 0.29986 0.52097 0.61703 0.0
Co462 Co 0.58014 0.21748 0.62769 0.0
C463 C 0.6173 0.27814 0.63811 0.0
C464 C 0.64379 0.235 0.64204 0.0
C465 C 0.66353 0.25996 0.64713 0.0
N466 N 0.61471 0.24611 0.63636 0.0
N467 N 0.64698 0.28713 0.64463 0.0
H468 H 0.59845 0.29475 0.63457 0.0
H469 H 0.65015 0.21014 0.64267 0.0
C470 C 0.59225 0.20672 0.68081 0.0
O471 O 0.59148 0.2377 0.68353 0.0
N472 N 0.54749 0.18732 0.61922 0.0
C473 C 0.51936 0.19234 0.60814 0.0
C474 C 0.50477 0.16333 0.60465 0.0
C475 C 0.54982 0.15563 0.62206 0.0
N476 N 0.52408 0.14028 0.61332 0.0
C477 C 0.54113 0.27275 0.62831 0.0
C478 C 0.49981 0.25334 0.66463 0.0
C479 C 0.49268 0.28107 0.65129 0.0
C480 C 0.51422 0.29086 0.63322 0.0
C481 C 0.52712 0.23575 0.65903 0.0
N482 N 0.54767 0.24567 0.64117 0.0
H483 H 0.55578 0.27977 0.61301 0.0
H484 H 0.53054 0.21317 0.66804 0.0
H485 H 0.51035 0.21533 0.60266 0.0
H486 H 0.57016 0.14411 0.6303 0.0
O487 O 0.57992 0.23355 0.59465 0.0
O488 O 0.60963 0.19339 0.60733 0.0
O489 O 0.58671 0.19443 0.65977 0.0
C490 C 0.6008 0.212 0.58943 0.0
H491 H 0.68813 0.25816 0.65263 0.0
H492 H 0.48212 0.15949 0.59578 0.0
H493 H 0.48386 0.24457 0.67865 0.0
H494 H 0.50944 0.3113 0.62172 0.0
Co495 Co 0.81184 0.58949 0.63393 0.0
C496 C 0.74991 0.62472 0.64059 0.0
C497 C 0.79103 0.65017 0.65285 0.0
C498 C 0.7649 0.66875 0.65692 0.0
N499 N 0.78185 0.62252 0.64273 0.0
N500 N 0.73895 0.65294 0.64917 0.0
H501 H 0.73506 0.60658 0.63258 0.0
H502 H 0.81531 0.65645 0.65697 0.0
C503 C 0.85325 0.58212 0.67983 0.0
O504 O 0.86296 0.55361 0.67362 0.0
N505 N 0.84321 0.55765 0.62515 0.0
C506 C 0.8392 0.52674 0.61958 0.0
C507 C 0.86853 0.51349 0.61484 0.0
C508 C 0.87472 0.56286 0.62314 0.0
N509 N 0.8909 0.5362 0.61728 0.0
C510 C 0.75978 0.54663 0.63002 0.0
C511 C 0.76711 0.51506 0.6741 0.0
C512 C 0.74482 0.50364 0.65706 0.0
C513 C 0.74082 0.52043 0.63509 0.0
C514 C 0.78558 0.5418 0.66837 0.0
N515 N 0.78271 0.55663 0.64606 0.0
H516 H 0.75628 0.5582 0.61258 0.0
H517 H 0.80229 0.54975 0.68188 0.0
H518 H 0.81676 0.51444 0.61924 0.0
H519 H 0.88558 0.58569 0.62651 0.0
O520 O 0.79765 0.5905 0.60036 0.0
O521 O 0.83604 0.62068 0.61511 0.0
O522 O 0.83244 0.59675 0.667 0.0
C523 C 0.81876 0.61217 0.59639 0.0
H524 H 0.76506 0.69207 0.66526 0.0
H525 H 0.87303 0.48879 0.61062 0.0
H526 H 0.77059 0.50321 0.69158 0.0
H527 H 0.72416 0.51258 0.6212 0.0
H528 H 0.14765 0.28281 0.93763 0.0
H529 H 0.10977 0.37782 0.93896 0.0
H530 H 0.15479 0.28431 0.98216 0.0
H531 H 0.11543 0.37903 0.98387 0.0
H532 H 0.13116 0.37072 0.06719 0.0
H533 H 0.14563 0.37562 0.02348 0.0
H534 H 0.11147 0.28034 0.01073 0.0
H535 H 0.09762 0.27549 0.05368 0.0
C536 C 0.14188 0.30442 0.94748 0.0
C537 C 0.12829 0.33021 0.9351 0.0
C538 C 0.14565 0.30522 0.97297 0.0
C539 C 0.13493 0.33148 0.98663 0.0
C540 C 0.12403 0.3585 0.97391 0.0
C541 C 0.12081 0.35788 0.94822 0.0
C542 C 0.12738 0.35074 0.055 0.0
C543 C 0.11316 0.32278 0.06377 0.0
C544 C 0.1355 0.35358 0.03002 0.0
C545 C 0.12996 0.32829 0.01362 0.0
C546 C 0.11675 0.30007 0.02282 0.0
C547 C 0.10845 0.29739 0.04749 0.0
H548 H 0.75387 0.13159 0.93597 0.0
H549 H 0.65445 0.10887 0.9311 0.0
H550 H 0.74911 0.13789 0.98037 0.0
H551 H 0.64977 0.11388 0.97603 0.0
H552 H 0.74328 0.07754 0.04969 0.0
H553 H 0.74178 0.09029 0.0065 0.0
H554 H 0.65657 0.1454 0.01736 0.0
H555 H 0.65794 0.13223 0.06162 0.0
C556 C 0.73076 0.12895 0.94442 0.0
C557 C 0.70457 0.11962 0.93035 0.0
C558 C 0.72803 0.13238 0.96981 0.0
C559 C 0.69925 0.12562 0.9817 0.0
C560 C 0.67222 0.11929 0.96734 0.0
C561 C 0.67486 0.11642 0.94169 0.0
C562 C 0.72421 0.09257 0.04312 0.0
C563 C 0.70075 0.10394 0.05915 0.0
C564 C 0.72355 0.10014 0.01828 0.0
C565 C 0.6994 0.11936 0.00858 0.0
C566 C 0.67558 0.13071 0.02443 0.0
C567 C 0.67639 0.12324 0.04966 0.0
H568 H 0.93385 0.74959 0.9515 0.0
H569 H 0.90147 0.65404 0.93762 0.0
H570 H 0.9191 0.74471 0.99422 0.0
H571 H 0.88602 0.6491 0.98114 0.0
H572 H 0.92148 0.64716 0.06569 0.0
H573 H 0.91564 0.64586 0.02083 0.0
H574 H 0.87581 0.7404 0.02256 0.0
H575 H 0.88328 0.74205 0.06706 0.0
C576 C 0.92307 0.7276 0.95756 0.0
C577 C 0.91903 0.70211 0.94128 0.0
C578 C 0.91422 0.72491 0.98209 0.0
C579 C 0.90108 0.69659 0.99114 0.0
C580 C 0.89609 0.67123 0.9747 0.0
C581 C 0.90478 0.67407 0.94984 0.0
C582 C 0.91035 0.66706 0.05644 0.0
C583 C 0.90291 0.69476 0.06953 0.0
C584 C 0.90698 0.66637 0.03079 0.0
C585 C 0.89591 0.69333 0.01808 0.0
C586 C 0.88512 0.71955 0.03175 0.0
C587 C 0.8891 0.72046 0.0572 0.0
H588 H 0.29431 0.88149 0.93868 0.0
H589 H 0.38545 0.92686 0.94474 0.0
H590 H 0.29443 0.87101 0.98285 0.0
H591 H 0.38517 0.91781 0.98928 0.0
H592 H 0.37506 0.89733 0.07126 0.0
H593 H 0.38272 0.88493 0.02739 0.0
H594 H 0.28547 0.91158 0.01309 0.0
H595 H 0.278 0.92343 0.0562 0.0
C596 C 0.31487 0.8882 0.94946 0.0
C597 C 0.33991 0.90479 0.93854 0.0
C598 C 0.31486 0.88251 0.97474 0.0
C599 C 0.33946 0.89424 0.98969 0.0
C600 C 0.36594 0.90831 0.97833 0.0
C601 C 0.36616 0.9135 0.95285 0.0
C602 C 0.35528 0.89977 0.05868 0.0
C603 C 0.326 0.91148 0.06702 0.0
C604 C 0.35967 0.89286 0.03362 0.0
C605 C 0.33467 0.89708 0.01672 0.0
C606 C 0.3051 0.90741 0.02553 0.0
C607 C 0.30088 0.91456 0.05029 0.0
H608 H 0.60289 0.15214 0.44023 0.0
H609 H 0.64381 0.2457 0.43667 0.0
H610 H 0.61039 0.15163 0.48496 0.0
H611 H 0.65279 0.24485 0.48103 0.0
H612 H 0.59869 0.25666 0.55395 0.0
H613 H 0.61126 0.25096 0.51081 0.0
H614 H 0.64215 0.15448 0.52356 0.0
H615 H 0.62898 0.16027 0.56742 0.0
C616 C 0.61492 0.17188 0.44895 0.0
C617 C 0.62279 0.19897 0.43529 0.0
C618 C 0.61923 0.17165 0.47453 0.0
C619 C 0.6316 0.1985 0.48662 0.0
C620 C 0.64255 0.22411 0.47235 0.0
C621 C 0.63771 0.22453 0.44697 0.0
C622 C 0.60859 0.23433 0.5477 0.0
C623 C 0.61267 0.20885 0.56401 0.0
C624 C 0.61615 0.23114 0.52293 0.0
C625 C 0.62794 0.2023 0.51368 0.0
C626 C 0.63307 0.17698 0.53014 0.0
C627 C 0.6257 0.18032 0.5552 0.0
H628 H 0.79355 0.6519 0.44206 0.0
H629 H 0.87964 0.59776 0.45004 0.0
H630 H 0.79458 0.66465 0.4859 0.0
H631 H 0.88022 0.60925 0.49423 0.0
H632 H 0.87351 0.63395 0.57487 0.0
H633 H 0.88149 0.64459 0.53079 0.0
H634 H 0.78186 0.62737 0.51784 0.0
H635 H 0.77416 0.61715 0.56124 0.0
C636 C 0.81323 0.64362 0.45319 0.0
C637 C 0.83655 0.62402 0.44296 0.0
C638 C 0.81375 0.65067 0.47827 0.0
C639 C 0.83714 0.63745 0.49366 0.0
C640 C 0.86201 0.62001 0.4829 0.0
C641 C 0.8617 0.61335 0.45765 0.0
C642 C 0.85331 0.63341 0.56257 0.0
C643 C 0.82327 0.62461 0.57132 0.0
C644 C 0.85787 0.63925 0.53738 0.0
C645 C 0.83233 0.63685 0.52077 0.0
C646 C 0.80201 0.62998 0.53004 0.0
C647 C 0.79759 0.62383 0.55495 0.0
H648 H 0.37764 0.79131 0.56818 0.0
H649 H 0.41992 0.88422 0.56426 0.0
H650 H 0.36756 0.79254 0.52397 0.0
H651 H 0.41148 0.88503 0.51967 0.0
H652 H 0.42123 0.77969 0.45089 0.0
H653 H 0.40797 0.78544 0.49387 0.0
H654 H 0.38027 0.88292 0.48118 0.0
H655 H 0.39425 0.87703 0.43746 0.0
C656 C 0.38378 0.81245 0.55786 0.0
C657 C 0.39941 0.83769 0.56938 0.0
C658 C 0.37833 0.81308 0.53254 0.0
C659 C 0.38945 0.83853 0.51816 0.0
C660 C 0.40247 0.86513 0.53016 0.0
C661 C 0.40733 0.86473 0.55567 0.0
C662 C 0.41181 0.80224 0.45711 0.0
C663 C 0.409 0.82798 0.44089 0.0
C664 C 0.40383 0.80548 0.4818 0.0
C665 C 0.39286 0.83463 0.49107 0.0
C666 C 0.38874 0.86017 0.47462 0.0
C667 C 0.39654 0.85679 0.44962 0.0
H668 H 0.24614 0.4307 0.55162 0.0
H669 H 0.14946 0.40066 0.56302 0.0
H670 H 0.24264 0.41624 0.50876 0.0
H671 H 0.14587 0.38553 0.51931 0.0
H672 H 0.14836 0.42273 0.43515 0.0
H673 H 0.14498 0.41575 0.47982 0.0
H674 H 0.23835 0.37346 0.47989 0.0
H675 H 0.2421 0.38207 0.43559 0.0
C676 C 0.22418 0.42049 0.54497 0.0
C677 C 0.19798 0.41706 0.5606 0.0
C678 C 0.22227 0.41178 0.52036 0.0
C679 C 0.19404 0.39943 0.51055 0.0
C680 C 0.16795 0.39498 0.52635 0.0
C681 C 0.17001 0.4035 0.55131 0.0
C682 C 0.1675 0.41076 0.4447 0.0
C683 C 0.19551 0.40295 0.43221 0.0
C684 C 0.16562 0.40675 0.47026 0.0
C685 C 0.1917 0.3947 0.48348 0.0
C686 C 0.21816 0.3835 0.47032 0.0
C687 C 0.22026 0.38812 0.44496 0.0
H688 H 0.18271 0.04115 0.14374 0.0
H689 H 0.26688 0.0825 0.17565 0.0
H690 H 0.15757 0.09323 0.14291 0.0
H691 H 0.2412 0.13433 0.17588 0.0
H692 H 0.20695 0.22431 0.13727 0.0
H693 H 0.22841 0.17162 0.14398 0.0
H694 H 0.1356 0.13809 0.16505 0.0
H695 H 0.11396 0.19136 0.15816 0.0
C696 C 0.19567 0.06127 0.15098 0.0
C697 C 0.22705 0.05765 0.1594 0.0
C698 C 0.1811 0.09114 0.15071 0.0
C699 C 0.19751 0.11816 0.15893 0.0
C700 C 0.22809 0.11416 0.16889 0.0
C701 C 0.24269 0.0843 0.1691 0.0
C702 C 0.1911 0.20588 0.1436 0.0
C703 C 0.15873 0.21222 0.14734 0.0
C704 C 0.20347 0.17557 0.14756 0.0
C705 C 0.18389 0.15058 0.15543 0.0
C706 C 0.15137 0.15673 0.15891 0.0
C707 C 0.13892 0.18722 0.15489 0.0
H708 H 0.79977 0.2044 0.11935 0.0
H709 H 0.82929 0.12026 0.15839 0.0
H710 H 0.85142 0.22814 0.12611 0.0
H711 H 0.8814 0.14431 0.16568 0.0
H712 H 0.98097 0.18732 0.14882 0.0
H713 H 0.92971 0.16099 0.14599 0.0
H714 H 0.88278 0.25087 0.15781 0.0
H715 H 0.93384 0.27743 0.15917 0.0
C716 C 0.81731 0.19106 0.12959 0.0
C717 C 0.81033 0.16056 0.13852 0.0
C718 C 0.84695 0.20476 0.13362 0.0
C719 C 0.87054 0.18847 0.14687 0.0
C720 C 0.86387 0.15756 0.15534 0.0
C721 C 0.83408 0.1437 0.15114 0.0
C722 C 0.95971 0.20149 0.15086 0.0
C723 C 0.96169 0.23465 0.15387 0.0
C724 C 0.93025 0.18628 0.14949 0.0
C725 C 0.90197 0.20381 0.15123 0.0
C726 C 0.90401 0.23666 0.15577 0.0
C727 C 0.93342 0.25189 0.15698 0.0
H728 H 0.74549 0.93709 0.16729 0.0
H729 H 0.83525 0.98131 0.15042 0.0
H730 H 0.77121 0.88557 0.16833 0.0
H731 H 0.8605 0.92946 0.14951 0.0
H732 H 0.90211 0.83068 0.16389 0.0
H733 H 0.8789 0.8835 0.16966 0.0
H734 H 0.79039 0.84953 0.13936 0.0
H735 H 0.81332 0.79704 0.13458 0.0
C736 C 0.77079 0.936 0.16411 0.0
C737 C 0.78809 0.96356 0.15845 0.0
C738 C 0.78552 0.90622 0.16423 0.0
C739 C 0.81789 0.90303 0.15837 0.0
C740 C 0.83557 0.93077 0.15409 0.0
C741 C 0.82092 0.9606 0.15431 0.0
C742 C 0.87776 0.83474 0.15842 0.0
C743 C 0.85945 0.80972 0.14897 0.0
C744 C 0.86439 0.86498 0.16171 0.0
C745 C 0.83251 0.8709 0.15532 0.0
C746 C 0.81463 0.84586 0.14528 0.0
C747 C 0.82784 0.81572 0.14232 0.0
H748 H 0.18804 0.9075 0.1564 0.0
H749 H 0.22354 0.81971 0.12648 0.0
H750 H 0.13528 0.88367 0.16063 0.0
H751 H 0.17117 0.79619 0.1297 0.0
H752 H 0.08588 0.7491 0.16038 0.0
H753 H 0.13651 0.7761 0.15934 0.0
H754 H 0.0894 0.86392 0.14044 0.0
H755 H 0.03832 0.83736 0.14336 0.0
C756 C 0.18435 0.88331 0.15034 0.0
C757 C 0.20988 0.86533 0.14135 0.0
C758 C 0.15418 0.86958 0.15275 0.0
C759 C 0.14891 0.83769 0.14595 0.0
C760 C 0.17436 0.82038 0.13594 0.0
C761 C 0.20439 0.83392 0.13386 0.0
C762 C 0.08605 0.77433 0.15664 0.0
C763 C 0.05773 0.79084 0.15181 0.0
C764 C 0.11533 0.78979 0.15556 0.0
C765 C 0.11732 0.82216 0.14925 0.0
C766 C 0.08895 0.83902 0.14536 0.0
C767 C 0.05958 0.82361 0.14674 0.0
H768 H 0.76725 0.45044 0.33641 0.0
H769 H 0.68869 0.48806 0.37821 0.0
H770 H 0.7414 0.39889 0.33503 0.0
H771 H 0.66357 0.43596 0.37789 0.0
H772 H 0.61662 0.34043 0.35677 0.0
H773 H 0.63789 0.39449 0.35422 0.0
H774 H 0.73255 0.35746 0.3643 0.0
H775 H 0.71141 0.30401 0.36657 0.0
C776 C 0.74425 0.44791 0.34501 0.0
C777 C 0.73028 0.47347 0.35762 0.0
C778 C 0.72961 0.41813 0.34455 0.0
C779 C 0.70065 0.41301 0.35677 0.0
C780 C 0.68584 0.43896 0.36829 0.0
C781 C 0.70045 0.4688 0.36868 0.0
C782 C 0.64191 0.34399 0.35863 0.0
C783 C 0.66234 0.31787 0.36158 0.0
C784 C 0.65414 0.37493 0.35711 0.0
C785 C 0.68705 0.38037 0.35861 0.0
C786 C 0.70722 0.35421 0.3623 0.0
C787 C 0.69506 0.32348 0.36371 0.0
H788 H 0.54562 0.6917 0.36255 0.0
H789 H 0.5924 0.78079 0.34731 0.0
H790 H 0.59687 0.66557 0.36576 0.0
H791 H 0.64336 0.7542 0.34858 0.0
H792 H 0.72951 0.71088 0.38382 0.0
H793 H 0.6772 0.73418 0.37888 0.0
H794 H 0.64352 0.64654 0.34675 0.0
H795 H 0.69613 0.62294 0.35277 0.0
C796 C 0.56678 0.7057 0.35956 0.0
C797 C 0.56467 0.73859 0.35508 0.0
C798 C 0.59626 0.69055 0.36111 0.0
C799 C 0.62447 0.70779 0.3579 0.0
C800 C 0.62225 0.74024 0.35188 0.0
C801 C 0.59283 0.75547 0.35066 0.0
C802 C 0.71083 0.6966 0.37581 0.0
C803 C 0.71684 0.6652 0.36857 0.0
C804 C 0.68087 0.71002 0.37272 0.0
C805 C 0.65609 0.69257 0.3619 0.0
C806 C 0.6619 0.66073 0.35524 0.0
C807 C 0.69197 0.64712 0.35869 0.0
H808 H 0.29537 0.56882 0.39572 0.0
H809 H 0.30026 0.56371 0.31638 0.0
H810 H 0.32351 0.61898 0.39496 0.0
H811 H 0.32802 0.61471 0.31569 0.0
H812 H 0.33867 0.7245 0.32734 0.0
H813 H 0.31609 0.6713 0.32516 0.0
H814 H 0.37613 0.64174 0.38536 0.0
H815 H 0.39828 0.69528 0.38783 0.0
C816 C 0.30286 0.57808 0.37808 0.0
C817 C 0.29575 0.56184 0.3561 0.0
C818 C 0.31901 0.60698 0.37768 0.0
C819 C 0.32827 0.62075 0.3553 0.0
C820 C 0.32106 0.60477 0.33325 0.0
C821 C 0.30505 0.5756 0.33364 0.0
C822 C 0.3471 0.70664 0.34008 0.0
C823 C 0.37003 0.71423 0.35795 0.0
C824 C 0.3344 0.67604 0.33865 0.0
C825 C 0.34415 0.65231 0.35517 0.0
C826 C 0.36785 0.6596 0.37253 0.0
C827 C 0.38076 0.69018 0.37383 0.0
H828 H 0.33335 0.39201 0.38514 0.0
H829 H 0.30915 0.34595 0.31678 0.0
H830 H 0.38692 0.37007 0.38257 0.0
H831 H 0.36257 0.32451 0.31387 0.0
H832 H 0.44478 0.25804 0.33463 0.0
H833 H 0.39357 0.2846 0.33351 0.0
H834 H 0.4368 0.37048 0.3611 0.0
H835 H 0.48808 0.34364 0.36248 0.0
C836 C 0.33964 0.37764 0.36938 0.0
C837 C 0.3169 0.37039 0.35135 0.0
C838 C 0.37036 0.36508 0.36784 0.0
C839 C 0.37907 0.34519 0.34811 0.0
C840 C 0.35657 0.33905 0.32962 0.0
C841 C 0.32591 0.35139 0.33127 0.0
C842 C 0.4435 0.28278 0.33998 0.0
C843 C 0.47054 0.29867 0.34868 0.0
C844 C 0.41407 0.29806 0.33938 0.0
C845 C 0.41091 0.32972 0.34733 0.0
C846 C 0.43819 0.34594 0.35527 0.0
C847 C 0.46762 0.33059 0.35596 0.0
H848 H 0.82627 0.8025 0.87056 0.0
H849 H 0.9186 0.83496 0.84758 0.0
H850 H 0.8046 0.85507 0.86357 0.0
H851 H 0.89675 0.88809 0.84034 0.0
H852 H 0.84994 0.9859 0.8591 0.0
H853 H 0.87511 0.93389 0.86154 0.0
H854 H 0.79088 0.89091 0.83104 0.0
H855 H 0.76518 0.94263 0.82975 0.0
C856 C 0.84193 0.82082 0.86375 0.0
C857 C 0.87415 0.81436 0.85943 0.0
C858 C 0.82944 0.85105 0.85962 0.0
C859 C 0.84875 0.87583 0.85099 0.0
C860 C 0.88118 0.86961 0.84707 0.0
C861 C 0.89375 0.8392 0.85127 0.0
C862 C 0.83681 0.96536 0.85281 0.0
C863 C 0.8053 0.96851 0.84455 0.0
C864 C 0.8514 0.93552 0.85399 0.0
C865 C 0.83489 0.90804 0.84687 0.0
C866 C 0.80409 0.91145 0.8372 0.0
C867 C 0.78947 0.94125 0.8361 0.0
H868 H 0.20034 0.91103 0.84904 0.0
H869 H 0.23602 0.82269 0.87785 0.0
H870 H 0.14766 0.88713 0.84422 0.0
H871 H 0.18371 0.79907 0.87422 0.0
H872 H 0.09839 0.75213 0.84405 0.0
H873 H 0.14898 0.7793 0.84463 0.0
H874 H 0.10187 0.86704 0.86369 0.0
H875 H 0.0509 0.84037 0.86112 0.0
C876 C 0.19665 0.8867 0.85478 0.0
C877 C 0.22216 0.86858 0.86362 0.0
C878 C 0.16656 0.87291 0.85201 0.0
C879 C 0.16138 0.84084 0.85836 0.0
C880 C 0.18682 0.8234 0.86828 0.0
C881 C 0.21679 0.837 0.87066 0.0
C882 C 0.09857 0.77739 0.84767 0.0
C883 C 0.07032 0.79383 0.8528 0.0
C884 C 0.12782 0.79295 0.84851 0.0
C885 C 0.12981 0.82532 0.85486 0.0
C886 C 0.10147 0.84214 0.85878 0.0
C887 C 0.07214 0.82666 0.85761 0.0
H888 H 0.19665 0.04285 0.87683 0.0
H889 H 0.26714 0.0765 0.82559 0.0
H890 H 0.17038 0.09445 0.87559 0.0
H891 H 0.24034 0.12787 0.82378 0.0
H892 H 0.21654 0.22426 0.85815 0.0
H893 H 0.23663 0.17071 0.8538 0.0
H894 H 0.14088 0.13475 0.85182 0.0
H895 H 0.12049 0.18904 0.85595 0.0
C896 C 0.2062 0.0611 0.86492 0.0
C897 C 0.23429 0.05567 0.85157 0.0
C898 C 0.19098 0.09064 0.86408 0.0
C899 C 0.20352 0.11553 0.84992 0.0
C900 C 0.23039 0.1094 0.83527 0.0
C901 C 0.24555 0.07981 0.83605 0.0
C902 C 0.1996 0.20513 0.85645 0.0
C903 C 0.16679 0.2112 0.85711 0.0
C904 C 0.2112 0.17429 0.85388 0.0
C905 C 0.19043 0.14837 0.85201 0.0
C906 C 0.15756 0.15418 0.85319 0.0
C907 C 0.14586 0.18528 0.85567 0.0
H908 H 0.84452 0.11587 0.84718 0.0
H909 H 0.80875 0.21077 0.85833 0.0
H910 H 0.89828 0.13712 0.84307 0.0
H911 H 0.86198 0.23191 0.85452 0.0
H912 H 0.95451 0.26694 0.82631 0.0
H913 H 0.90282 0.24129 0.82494 0.0
H914 H 0.94024 0.16199 0.86621 0.0
H915 H 0.99229 0.18693 0.86651 0.0
C916 C 0.84816 0.14119 0.84897 0.0
C917 C 0.82229 0.16163 0.85288 0.0
C918 C 0.87894 0.15342 0.84656 0.0
C919 C 0.8845 0.18634 0.84809 0.0
C920 C 0.85861 0.20657 0.8525 0.0
C921 C 0.828 0.19441 0.85481 0.0
C922 C 0.95197 0.24366 0.83452 0.0
C923 C 0.97756 0.22922 0.84676 0.0
C924 C 0.92216 0.22912 0.83407 0.0
C925 C 0.91711 0.19981 0.8459 0.0
C926 C 0.94315 0.18452 0.8569 0.0
C927 C 0.97299 0.19901 0.85728 0.0
H928 H 0.40606 0.69737 0.6572 0.0
H929 H 0.3177 0.7351 0.63027 0.0
H930 H 0.38191 0.6446 0.66066 0.0
H931 H 0.29383 0.68271 0.63243 0.0
H932 H 0.24683 0.59585 0.65996 0.0
H933 H 0.27404 0.64643 0.66056 0.0
H934 H 0.36153 0.5998 0.6404 0.0
H935 H 0.33486 0.54875 0.64192 0.0
C936 C 0.38166 0.69412 0.65158 0.0
C937 C 0.36363 0.72021 0.64366 0.0
C938 C 0.36772 0.66396 0.65355 0.0
C939 C 0.33559 0.65927 0.64727 0.0
C940 C 0.31821 0.68536 0.63829 0.0
C941 C 0.33195 0.7154 0.63675 0.0
C942 C 0.27204 0.59609 0.65633 0.0
C943 C 0.2884 0.56794 0.65064 0.0
C944 C 0.28763 0.62538 0.65617 0.0
C945 C 0.31996 0.62756 0.6499 0.0
C946 C 0.33667 0.59928 0.6453 0.0
C947 C 0.32118 0.5699 0.64584 0.0
H948 H 0.29748 0.32544 0.62345 0.0
H949 H 0.329 0.41231 0.65745 0.0
H950 H 0.34962 0.30224 0.62923 0.0
H951 H 0.38152 0.38878 0.66407 0.0
H952 H 0.48032 0.34514 0.64748 0.0
H953 H 0.42884 0.37099 0.64471 0.0
H954 H 0.383 0.28141 0.6598 0.0
H955 H 0.4342 0.25521 0.66076 0.0
C956 C 0.31562 0.33949 0.63239 0.0
C957 C 0.30909 0.3706 0.64015 0.0
C958 C 0.34554 0.32611 0.6359 0.0
C959 C 0.36983 0.34331 0.64758 0.0
C960 C 0.36351 0.37481 0.65491 0.0
C961 C 0.33347 0.38836 0.65112 0.0
C962 C 0.45927 0.33089 0.65015 0.0
C963 C 0.46162 0.29788 0.65396 0.0
C964 C 0.42965 0.34586 0.64885 0.0
C965 C 0.40155 0.32828 0.65157 0.0
C966 C 0.40402 0.29565 0.65692 0.0
C967 C 0.43357 0.28064 0.65795 0.0
H968 H 0.61459 0.33975 0.6593 0.0
H969 H 0.70733 0.30665 0.63772 0.0
H970 H 0.63636 0.39283 0.6664 0.0
H971 H 0.72893 0.35922 0.64459 0.0
H972 H 0.7676 0.44814 0.67656 0.0
H973 H 0.74212 0.39626 0.67646 0.0
H974 H 0.65798 0.43777 0.64444 0.0
H975 H 0.68291 0.48987 0.64564 0.0
C976 C 0.63953 0.34383 0.65591 0.0
C977 C 0.65923 0.31885 0.6481 0.0
C978 C 0.65205 0.37422 0.66004 0.0
C979 C 0.68454 0.38029 0.65639 0.0
C980 C 0.70402 0.35532 0.64828 0.0
C981 C 0.69157 0.32509 0.64423 0.0
C982 C 0.74336 0.44639 0.67014 0.0
C983 C 0.72749 0.47318 0.66084 0.0
C984 C 0.72887 0.41652 0.66974 0.0
C985 C 0.69818 0.41265 0.65997 0.0
C986 C 0.68159 0.43977 0.6521 0.0
C987 C 0.69605 0.46965 0.65257 0.0
H988 H 0.5383 0.69447 0.63112 0.0
H989 H 0.57296 0.76658 0.68072 0.0
H990 H 0.58987 0.66825 0.63216 0.0
H991 H 0.62426 0.7398 0.68239 0.0
H992 H 0.72008 0.71435 0.64841 0.0
H993 H 0.66672 0.73492 0.65246 0.0
H994 H 0.63026 0.63928 0.65589 0.0
H995 H 0.68435 0.61846 0.65198 0.0
C996 C 0.55678 0.70442 0.64261 0.0
C997 C 0.55161 0.73292 0.65557 0.0
C998 C 0.5863 0.68922 0.64334 0.0
C999 C 0.61143 0.70216 0.65703 0.0
C1000 C 0.60561 0.72951 0.67126 0.0
C1001 C 0.57605 0.74468 0.67057 0.0
C1002 C 0.70086 0.69756 0.65033 0.0
C1003 C 0.70671 0.66467 0.65016 0.0
C1004 C 0.67013 0.70943 0.65274 0.0
C1005 C 0.64414 0.68883 0.65495 0.0
C1006 C 0.64975 0.65585 0.65423 0.0
C1007 C 0.68072 0.64389 0.65189 0.0
H1008 H 0.12124 0.46835 0.29567 0.0
H1009 H 0.19713 0.39994 0.30296 0.0
H1010 H 0.10064 0.43883 0.26028 0.0
H1011 H 0.17666 0.37083 0.26785 0.0
H1012 H 0.11042 0.30542 0.22649 0.0
H1013 H 0.129 0.33809 0.26047 0.0
H1014 H 0.11411 0.42252 0.21688 0.0
H1015 H 0.09515 0.38978 0.18274 0.0
C1016 C 0.13374 0.44731 0.28959 0.0
C1017 C 0.16066 0.43637 0.30233 0.0
C1018 C 0.12194 0.43043 0.26933 0.0
C1019 C 0.13676 0.40225 0.26155 0.0
C1020 C 0.1643 0.39206 0.27374 0.0
C1021 C 0.17612 0.4089 0.29382 0.0
C1022 C 0.11086 0.33095 0.22414 0.0
C1023 C 0.10148 0.34495 0.20183 0.0
C1024 C 0.12172 0.34966 0.24358 0.0
C1025 C 0.12338 0.38285 0.24123 0.0
C1026 C 0.11302 0.39701 0.21923 0.0
C1027 C 0.10229 0.37824 0.19967 0.0
H1028 H 0.72196 0.11549 0.22255 0.0
H1029 H 0.6355 0.10311 0.18092 0.0
H1030 H 0.69134 0.13325 0.2578 0.0
H1031 H 0.60478 0.12153 0.21628 0.0
H1032 H 0.56153 0.12539 0.29527 0.0
H1033 H 0.58965 0.10656 0.25872 0.0
H1034 H 0.66024 0.17956 0.26902 0.0
H1035 H 0.63267 0.19801 0.30549 0.0
C1036 C 0.6964 0.11657 0.22089 0.0
C1037 C 0.68121 0.10801 0.19886 0.0
C1038 C 0.67884 0.12696 0.24108 0.0
C1039 C 0.64563 0.12911 0.23978 0.0
C1040 C 0.63032 0.11997 0.21791 0.0
C1041 C 0.64794 0.10957 0.19763 0.0
C1042 C 0.58294 0.13753 0.28961 0.0
C1043 C 0.59497 0.16303 0.30344 0.0
C1044 C 0.59898 0.1268 0.26864 0.0
C1045 C 0.62737 0.14134 0.26114 0.0
C1046 C 0.63881 0.1674 0.2746 0.0
C1047 C 0.62286 0.17808 0.29547 0.0
H1048 H 0.8362 0.63464 0.31514 0.0
H1049 H 0.9018 0.5578 0.3013 0.0
H1050 H 0.85591 0.66253 0.27929 0.0
H1051 H 0.922 0.58629 0.2653 0.0
H1052 H 0.92341 0.6356 0.1881 0.0
H1053 H 0.90649 0.60466 0.22375 0.0
H1054 H 0.90394 0.69023 0.26749 0.0
H1055 H 0.92017 0.72117 0.2319 0.0
C1056 C 0.85488 0.62364 0.30445 0.0
C1057 C 0.86753 0.594 0.3112 0.0
C1058 C 0.86634 0.63981 0.28395 0.0
C1059 C 0.89085 0.62687 0.26964 0.0
C1060 C 0.90303 0.59684 0.27594 0.0
C1061 C 0.89149 0.58055 0.29656 0.0
C1062 C 0.91946 0.64776 0.20538 0.0
C1063 C 0.92283 0.68092 0.20709 0.0
C1064 C 0.9099 0.62999 0.22583 0.0
C1065 C 0.90349 0.64503 0.24837 0.0
C1066 C 0.90804 0.67801 0.25025 0.0
C1067 C 0.91754 0.69574 0.22987 0.0
H1068 H 0.42415 0.80596 0.2779 0.0
H1069 H 0.42514 0.89139 0.32193 0.0
H1070 H 0.40565 0.83638 0.24266 0.0
H1071 H 0.40598 0.92179 0.28663 0.0
H1072 H 0.39886 0.96928 0.20986 0.0
H1073 H 0.42041 0.94079 0.24531 0.0
H1074 H 0.35679 0.86273 0.23076 0.0
H1075 H 0.33569 0.89076 0.19528 0.0
C1076 C 0.42053 0.83126 0.28006 0.0
C1077 C 0.42595 0.84619 0.3028 0.0
C1078 C 0.4097 0.84868 0.25988 0.0
C1079 C 0.40396 0.88145 0.2619 0.0
C1080 C 0.41031 0.89661 0.28442 0.0
C1081 C 0.42118 0.87915 0.30467 0.0
C1082 C 0.38939 0.9461 0.2143 0.0
C1083 C 0.36562 0.93228 0.19964 0.0
C1084 C 0.40169 0.92982 0.23466 0.0
C1085 C 0.39052 0.89937 0.24073 0.0
C1086 C 0.36638 0.88587 0.22631 0.0
C1087 C 0.35411 0.90209 0.20603 0.0
H1088 H 0.93303 0.63887 0.82197 0.0
H1089 H 0.92615 0.72462 0.77857 0.0
H1090 H 0.91266 0.60816 0.78726 0.0
H1091 H 0.90634 0.6939 0.74394 0.0
H1092 H 0.83403 0.63808 0.70013 0.0
H1093 H 0.85693 0.66598 0.73491 0.0
H1094 H 0.92499 0.59037 0.74471 0.0
H1095 H 0.90176 0.56201 0.70979 0.0
C1096 C 0.92752 0.65112 0.80496 0.0
C1097 C 0.93096 0.68426 0.80311 0.0
C1098 C 0.91597 0.63349 0.78506 0.0
C1099 C 0.90755 0.64865 0.76296 0.0
C1100 C 0.91203 0.68161 0.76089 0.0
C1101 C 0.92359 0.69919 0.78071 0.0
C1102 C 0.85383 0.62726 0.70966 0.0
C1103 C 0.86616 0.59785 0.70205 0.0
C1104 C 0.86709 0.6434 0.72954 0.0
C1105 C 0.89304 0.63059 0.74237 0.0
C1106 C 0.90493 0.60079 0.73523 0.0
C1107 C 0.89165 0.58459 0.71522 0.0
H1108 H 0.48491 0.90109 0.70852 0.0
H1109 H 0.39506 0.85471 0.6957 0.0
H1110 H 0.46316 0.92577 0.74568 0.0
H1111 H 0.37344 0.87965 0.7322 0.0
H1112 H 0.35601 0.898 0.81286 0.0
H1113 H 0.3798 0.87536 0.77629 0.0
H1114 H 0.42308 0.96562 0.75938 0.0
H1115 H 0.39955 0.98844 0.79662 0.0
C1116 C 0.46061 0.89613 0.7136 0.0
C1117 C 0.44185 0.87572 0.69919 0.0
C1118 C 0.44808 0.91048 0.73476 0.0
C1119 C 0.41661 0.90457 0.74197 0.0
C1120 C 0.39791 0.88433 0.72743 0.0
C1121 C 0.41034 0.87011 0.70637 0.0
C1122 C 0.37054 0.91319 0.80142 0.0
C1123 C 0.37569 0.94516 0.80767 0.0
C1124 C 0.3841 0.90016 0.78033 0.0
C1125 C 0.40318 0.9187 0.7648 0.0
C1126 C 0.40866 0.95065 0.77107 0.0
C1127 C 0.39498 0.96378 0.79228 0.0
H1128 H 0.13863 0.33648 0.80614 0.0
H1129 H 0.06083 0.40183 0.7951 0.0
H1130 H 0.16503 0.35774 0.77013 0.0
H1131 H 0.08777 0.42352 0.75892 0.0
H1132 H 0.13478 0.4287 0.68094 0.0
H1133 H 0.1051 0.40951 0.71658 0.0
H1134 H 0.19161 0.40695 0.7591 0.0
H1135 H 0.22125 0.4255 0.7236 0.0
C1136 C 0.12711 0.35543 0.79605 0.0
C1137 C 0.09766 0.36758 0.80365 0.0
C1138 C 0.1424 0.36776 0.77544 0.0
C1139 C 0.12872 0.39262 0.76185 0.0
C1140 C 0.09886 0.40429 0.76898 0.0
C1141 C 0.08348 0.39191 0.78972 0.0
C1142 C 0.1474 0.42423 0.69796 0.0
C1143 C 0.18044 0.42836 0.69935 0.0
C1144 C 0.13036 0.41336 0.71839 0.0
C1145 C 0.14606 0.40634 0.74057 0.0
C1146 C 0.17891 0.41151 0.74213 0.0
C1147 C 0.19588 0.42234 0.72179 0.0
H1148 H 0.59759 0.14182 0.68173 0.0
H1149 H 0.60865 0.22528 0.72719 0.0
H1150 H 0.61794 0.10886 0.71523 0.0
H1151 H 0.62851 0.19234 0.7606 0.0
H1152 H 0.69987 0.13237 0.8018 0.0
H1153 H 0.67738 0.16213 0.76777 0.0
H1154 H 0.60606 0.08981 0.75776 0.0
H1155 H 0.62882 0.05956 0.79197 0.0
C1156 C 0.60403 0.15311 0.69893 0.0
C1157 C 0.60174 0.18624 0.70171 0.0
C1158 C 0.61558 0.13418 0.71813 0.0
C1159 C 0.62519 0.14804 0.74044 0.0
C1160 C 0.62188 0.18102 0.74346 0.0
C1161 C 0.61028 0.19989 0.72434 0.0
C1162 C 0.67947 0.12261 0.79236 0.0
C1163 C 0.66602 0.09363 0.79978 0.0
C1164 C 0.66645 0.13984 0.77291 0.0
C1165 C 0.63965 0.12857 0.76031 0.0
C1166 C 0.62676 0.09907 0.76711 0.0
C1167 C 0.63979 0.08178 0.7867 0.0
H1168 H 0.03321 0.5961 0.08661 0.0
H1169 H 0.96638 0.5857 0.14631 0.0
H1170 H 0.04067 0.5388 0.08577 0.0
H1171 H 0.97352 0.52844 0.14506 0.0
H1172 H 0.96968 0.42504 0.11733 0.0
H1173 H 0.96211 0.4826 0.1177 0.0
H1174 H 0.06324 0.49586 0.11152 0.0
H1175 H 0.07071 0.43846 0.1107 0.0
C1176 C 0.02024 0.5818 0.09969 0.0
C1177 C 0.99908 0.59589 0.11649 0.0
C1178 C 0.0245 0.54882 0.09915 0.0
C1179 C 1.0076 0.52898 0.11528 0.0
C1180 C 0.98653 0.54297 0.1321 0.0
C1181 C 0.98243 0.57594 0.13278 0.0
C1182 C 0.99025 0.44024 0.11586 0.0
C1183 C 0.0208 0.42708 0.11405 0.0
C1184 C 0.98595 0.47323 0.1163 0.0
C1185 C 1.01208 0.49387 0.11468 0.0
C1186 C 0.04259 0.48068 0.11261 0.0
C1187 C 0.0469 0.44774 0.1124 0.0
H1188 H 0.43494 0.9571 0.09965 0.0
H1189 H 0.42609 0.0498 0.13263 0.0
H1190 H 0.49242 0.96304 0.0987 0.0
H1191 H 0.48349 0.05561 0.13229 0.0
H1192 H 0.58526 0.06968 0.10756 0.0
H1193 H 0.52793 0.06366 0.10685 0.0
H1194 H 0.53827 0.96395 0.12384 0.0
H1195 H 0.59579 0.97002 0.12393 0.0
C1196 C 0.44531 0.97868 0.10685 0.0
C1197 C 0.42587 1.00299 0.11616 0.0
C1198 C 0.47833 0.98208 0.1064 0.0
C1199 C 0.49287 1.00981 0.11546 0.0
C1200 C 0.47331 0.03415 0.12472 0.0
C1201 C 0.44029 0.03084 0.12495 0.0
C1202 C 0.5753 0.04651 0.1113 0.0
C1203 C 0.59518 0.02036 0.1159 0.0
C1204 C 0.54232 0.04303 0.11094 0.0
C1205 C 0.52819 1.01332 0.11539 0.0
C1206 C 0.54815 0.98711 0.11993 0.0
C1207 C 0.58119 0.99057 0.12007 0.0
H1208 H 0.47709 0.10156 0.38083 0.0
H1209 H 0.57571 0.08925 0.39992 0.0
H1210 H 0.46955 0.04432 0.38217 0.0
H1211 H 0.56841 0.03181 0.40042 0.0
H1212 H 0.53482 0.93236 0.42409 0.0
H1213 H 0.54289 0.98962 0.42365 0.0
H1214 H 0.48368 0.99722 0.35906 0.0
H1215 H 0.47566 0.94001 0.35944 0.0
C1216 C 0.49717 0.08672 0.38544 0.0
C1217 C 0.52703 0.1002 0.39029 0.0
C1218 C 0.49292 0.05377 0.3859 0.0
C1219 C 0.51839 0.03333 0.39127 0.0
C1220 C 0.54819 0.04679 0.39639 0.0
C1221 C 0.55247 0.07978 0.39586 0.0
C1222 C 0.52375 0.94612 0.40963 0.0
C1223 C 0.50448 0.93136 0.39184 0.0
C1224 C 0.52839 0.97905 0.4094 0.0
C1225 C 0.51385 0.99816 0.39138 0.0
C1226 C 0.49478 0.98338 0.37349 0.0
C1227 C 0.49018 0.95047 0.37371 0.0
H1228 H 0.94344 0.5739 0.40245 0.0
H1229 H 0.92802 0.47354 0.39139 0.0
H1230 H 1.00043 0.56519 0.4017 0.0
H1231 H 0.98496 0.46465 0.39183 0.0
H1232 H 0.08745 0.46575 0.36423 0.0
H1233 H 0.03043 0.47377 0.36651 0.0
H1234 H 0.04395 0.54281 0.42434 0.0
H1235 H 0.10117 0.53493 0.42184 0.0
C1236 C 0.9521 0.54995 0.39991 0.0
C1237 C 0.93089 0.52449 0.39682 0.0
C1238 C 0.9849 0.54489 0.3998 0.0
C1239 C 0.99744 0.5142 0.39664 0.0
C1240 C 0.97624 0.48867 0.39396 0.0
C1241 C 0.94345 0.49374 0.39402 0.0
C1242 C 0.07828 0.48235 0.37766 0.0
C1243 C 0.09897 0.49963 0.3929 0.0
C1244 C 0.04549 0.48696 0.37898 0.0
C1245 C 0.03243 0.50892 0.39564 0.0
C1246 C 0.05313 0.52606 0.41102 0.0
C1247 C 0.08597 0.52151 0.40963 0.0
H1248 H 0.96286 0.58775 0.89763 0.0
H1249 H 0.06273 0.60051 0.88419 0.0
H1250 H 0.97011 0.53043 0.89807 0.0
H1251 H 0.07009 0.54305 0.88371 0.0
H1252 H 0.07868 0.43889 0.90567 0.0
H1253 H 0.07171 0.49639 0.90717 0.0
H1254 H 0.97952 0.48638 0.87323 0.0
H1255 H 0.98627 0.42903 0.87265 0.0
C1256 C 0.98635 0.57825 0.89447 0.0
C1257 C 1.01219 0.59872 0.89079 0.0
C1258 C 0.99056 0.54527 0.89463 0.0
C1259 C 0.02071 0.53174 0.89079 0.0
C1260 C 0.04659 0.55236 0.88716 0.0
C1261 C 0.0424 0.58539 0.88732 0.0
C1262 C 0.05697 0.44908 0.89855 0.0
C1263 C 0.03298 0.42936 0.88916 0.0
C1264 C 0.05296 0.48212 0.89928 0.0
C1265 C 0.02499 0.49639 0.89033 0.0
C1266 C 1.00111 0.47649 0.88082 0.0
C1267 C 1.00497 0.44348 0.8804 0.0
H1268 H 0.60975 0.97303 0.88 0.0
H1269 H 0.59734 0.07252 0.89662 0.0
H1270 H 0.55276 0.96509 0.88304 0.0
H1271 H 0.54019 0.06482 0.89868 0.0
H1272 H 0.44154 0.03333 0.92404 0.0
H1273 H 0.49886 0.04062 0.92309 0.0
H1274 H 0.50501 0.97764 0.86057 0.0
H1275 H 0.44782 0.97033 0.86158 0.0
C1276 C 0.59495 0.99322 0.88442 0.0
C1277 C 0.60832 0.02345 0.88801 0.0
C1278 C 0.56214 0.98873 0.88586 0.0
C1279 C 0.54175 1.01433 0.89097 0.0
C1280 C 0.55513 0.04448 0.89491 0.0
C1281 C 0.58796 0.04898 0.89344 0.0
C1282 C 0.45507 0.02118 0.91001 0.0
C1283 C 0.43995 1.00115 0.89294 0.0
C1284 C 0.48799 0.02537 0.90945 0.0
C1285 C 0.50668 1.00968 0.89179 0.0
C1286 C 0.49152 0.98966 0.87473 0.0
C1287 C 0.45864 0.98545 0.8753 0.0
H1288 H 0.5326 0.93766 0.58453 0.0
H1289 H 0.46 0.94779 0.63999 0.0
H1290 H 0.53996 0.99499 0.58416 0.0
H1291 H 0.46717 1.00511 0.63937 0.0
H1292 H 0.46771 0.10924 0.61371 0.0
H1293 H 0.45924 0.05187 0.61278 0.0
H1294 H 0.56047 0.03691 0.6111 0.0
H1295 H 0.56887 0.09409 0.61138 0.0
C1296 C 0.51829 0.95199 0.59674 0.0
C1297 C 0.49569 0.93785 0.61229 0.0
C1298 C 0.52251 0.98494 0.59651 0.0
C1299 C 0.50417 1.0047 0.61175 0.0
C1300 C 0.48138 0.99066 0.62713 0.0
C1301 C 0.47725 0.95769 0.62745 0.0
C1302 C 0.48813 0.09372 0.61294 0.0
C1303 C 0.51896 0.10636 0.61269 0.0
C1304 C 0.48329 0.06081 0.61264 0.0
C1305 C 0.50918 0.03975 0.61188 0.0
C1306 C 0.53999 0.05241 0.61145 0.0
C1307 C 0.54482 0.08526 0.6119 0.0
H1308 H 0.92344 0.4913 0.5917 0.0
H1309 H 0.93617 0.5722 0.63946 0.0
H1310 H 0.98074 0.4841 0.58989 0.0
H1311 H 0.99333 0.56504 0.63765 0.0
H1312 H 0.09583 0.56133 0.6104 0.0
H1313 H 0.03857 0.56921 0.61052 0.0
H1314 H 0.02483 0.46784 0.6154 0.0
H1315 H 0.08192 0.45992 0.61437 0.0
C1316 C 0.93838 0.50749 0.6019 0.0
C1317 C 0.92497 0.53239 0.61567 0.0
C1318 C 0.97132 0.50334 0.60089 0.0
C1319 C 0.99181 0.52397 0.61363 0.0
C1320 C 0.9784 0.54899 0.62726 0.0
C1321 C 0.94549 0.55312 0.62828 0.0
C1322 C 0.08064 0.54069 0.61127 0.0
C1323 C 0.09372 0.50998 0.61242 0.0
C1324 C 0.04773 0.54523 0.6116 0.0
C1325 C 0.02693 0.51918 0.613 0.0
C1326 C 0.04001 0.48847 0.61404 0.0
C1327 C 0.0729 0.48394 0.61377 0.0
loop_
_geom_bond_atom_site_label_1
_geom_bond_atom_site_label_2
_geom_bond_distance
_geom_bond_site_symmetry_2
_ccdc_geom_bond_type
Co0 N4 2.148 . S
Co0 N10 2.128 . S
Co0 N20 2.194 . S
Co0 O25 2.351 . S
Co0 O26 2.155 . S
Co0 O27 2.096 . S
C1 N4 1.301 . S
C1 N5 1.328 . S
C1 H6 0.930 . S
C2 C3 1.333 . S
C2 N4 1.317 . S
C2 H7 0.930 . S
C3 C2 1.333 . S
C3 N5 1.350 . S
C3 H29 0.931 . S
N4 Co0 2.148 . S
N4 C1 1.301 . S
N4 C2 1.317 . S
N5 C1 1.328 . S
N5 C3 1.350 . S
H6 C1 0.930 . S
H7 C2 0.930 . S
C8 O9 1.224 . S
C8 O27 1.247 . S
O9 C8 1.224 . S
N10 Co0 2.128 . S
N10 C11 1.355 . S
N10 C13 1.311 . S
C11 N10 1.355 . S
C11 C12 1.363 . S
C11 H23 0.929 . S
C12 C11 1.363 . S
C12 N14 1.375 . S
C12 H30 0.931 1_455 S
C13 N10 1.311 . S
C13 N14 1.347 . S
C13 H24 0.929 . S
N14 C12 1.375 . S
N14 C13 1.347 . S
C15 C18 1.338 1_455 S
C15 N20 1.328 . S
C15 H21 0.929 . S
C16 C17 1.362 1_455 S
C16 C19 1.378 . S
C16 H31 0.929 1_455 S
C17 C16 1.362 1_655 S
C17 C18 1.379 . S
C18 C15 1.338 1_655 S
C18 C17 1.379 . S
C18 H32 0.946 . S
C19 C16 1.378 . S
C19 N20 1.315 . S
C19 H22 0.930 . S
N20 Co0 2.194 . S
N20 C15 1.328 . S
N20 C19 1.315 . S
H21 C15 0.929 . S
H22 C19 0.930 . S
H23 C11 0.929 . S
H24 C13 0.929 . S
O25 Co0 2.351 . S
O25 C28 1.244 . S
O26 Co0 2.155 . S
O26 C28 1.240 . S
O27 Co0 2.096 . S
O27 C8 1.247 . S
C28 O25 1.244 . S
C28 O26 1.240 . S
H29 C3 0.931 . S
H30 C12 0.931 1_655 S
H31 C16 0.929 1_655 S
H32 C18 0.946 . S
Co33 N37 2.148 . S
Co33 N43 2.128 . S
Co33 N53 2.194 . S
Co33 O58 2.351 . S
Co33 O59 2.155 . S
Co33 O60 2.096 . S
C34 N37 1.301 . S
C34 N38 1.328 . S
C34 H39 0.930 . S
C35 C36 1.333 . S
C35 N37 1.317 . S
C35 H40 0.930 . S
C36 C35 1.333 . S
C36 N38 1.350 . S
C36 H62 0.931 . S
N37 Co33 2.148 . S
N37 C34 1.301 . S
N37 C35 1.317 . S
N38 C34 1.328 . S
N38 C36 1.350 . S
H39 C34 0.930 . S
H40 C35 0.930 . S
C41 O42 1.224 . S
C41 O60 1.247 . S
O42 C41 1.224 . S
N43 Co33 2.128 . S
N43 C44 1.355 . S
N43 C46 1.311 . S
C44 N43 1.355 . S
C44 C45 1.363 . S
C44 H56 0.929 . S
C45 C44 1.363 . S
C45 N47 1.375 . S
C45 H63 0.931 1_545 S
C46 N43 1.311 . S
C46 N47 1.347 . S
C46 H57 0.929 . S
N47 C45 1.375 . S
N47 C46 1.347 . S
C48 C51 1.338 1_545 S
C48 N53 1.328 . S
C48 H54 0.929 . S
C49 C50 1.362 1_545 S
C49 C52 1.378 . S
C49 H64 0.929 1_545 S
C50 C49 1.362 1_565 S
C50 C51 1.379 . S
C51 C48 1.338 1_565 S
C51 C50 1.379 . S
C51 H65 0.946 . S
C52 C49 1.378 . S
C52 N53 1.315 . S
C52 H55 0.930 . S
N53 Co33 2.194 . S
N53 C48 1.328 . S
N53 C52 1.315 . S
H54 C48 0.929 . S
H55 C52 0.930 . S
H56 C44 0.929 . S
H57 C46 0.929 . S
O58 Co33 2.351 . S
O58 C61 1.244 . S
O59 Co33 2.155 . S
O59 C61 1.240 . S
O60 Co33 2.096 . S
O60 C41 1.247 . S
C61 O58 1.244 . S
C61 O59 1.240 . S
H62 C36 0.931 . S
H63 C45 0.931 1_565 S
H64 C49 0.929 1_565 S
H65 C51 0.946 . S
Co66 N70 2.148 . S
Co66 N76 2.128 . S
Co66 N86 2.194 . S
Co66 O91 2.351 . S
Co66 O92 2.155 . S
Co66 O93 2.096 . S
C67 N70 1.301 . S
C67 N71 1.328 . S
C67 H72 0.930 . S
C68 C69 1.333 . S
C68 N70 1.317 . S
C68 H73 0.930 . S
C69 C68 1.333 . S
C69 N71 1.350 . S
C69 H95 0.931 . S
N70 Co66 2.148 . S
N70 C67 1.301 . S
N70 C68 1.317 . S
N71 C67 1.328 . S
N71 C69 1.350 . S
H72 C67 0.930 . S
H73 C68 0.930 . S
C74 O75 1.224 . S
C74 O93 1.247 . S
O75 C74 1.224 . S
N76 Co66 2.128 . S
N76 C77 1.355 . S
N76 C79 1.311 . S
C77 N76 1.355 . S
C77 C78 1.363 . S
C77 H89 0.929 . S
C78 C77 1.363 . S
C78 N80 1.375 . S
C78 H96 0.931 1_655 S
C79 N76 1.311 . S
C79 N80 1.347 . S
C79 H90 0.929 . S
N80 C78 1.375 . S
N80 C79 1.347 . S
C81 C84 1.338 1_655 S
C81 N86 1.328 . S
C81 H87 0.929 . S
C82 C83 1.362 1_655 S
C82 C85 1.378 . S
C82 H97 0.929 1_655 S
C83 C82 1.362 1_455 S
C83 C84 1.379 . S
C84 C81 1.338 1_455 S
C84 C83 1.379 . S
C84 H98 0.946 . S
C85 C82 1.378 . S
C85 N86 1.315 . S
C85 H88 0.930 . S
N86 Co66 2.194 . S
N86 C81 1.328 . S
N86 C85 1.315 . S
H87 C81 0.929 . S
H88 C85 0.930 . S
H89 C77 0.929 . S
H90 C79 0.929 . S
O91 Co66 2.351 . S
O91 C94 1.244 . S
O92 Co66 2.155 . S
O92 C94 1.240 . S
O93 Co66 2.096 . S
O93 C74 1.247 . S
C94 O91 1.244 . S
C94 O92 1.240 . S
H95 C69 0.931 . S
H96 C78 0.931 1_455 S
H97 C82 0.929 1_455 S
H98 C84 0.946 . S
Co99 N103 2.148 . S
Co99 N109 2.128 . S
Co99 N119 2.194 . S
Co99 O124 2.351 . S
Co99 O125 2.155 . S
Co99 O126 2.096 . S
C100 N103 1.301 . S
C100 N104 1.328 . S
C100 H105 0.930 . S
C101 C102 1.333 . S
C101 N103 1.317 . S
C101 H106 0.930 . S
C102 C101 1.333 . S
C102 N104 1.350 . S
C102 H128 0.931 . S
N103 Co99 2.148 . S
N103 C100 1.301 . S
N103 C101 1.317 . S
N104 C100 1.328 . S
N104 C102 1.350 . S
H105 C100 0.930 . S
H106 C101 0.930 . S
C107 O108 1.224 . S
C107 O126 1.247 . S
O108 C107 1.224 . S
N109 Co99 2.128 . S
N109 C110 1.355 . S
N109 C112 1.311 . S
C110 N109 1.355 . S
C110 C111 1.363 . S
C110 H122 0.929 . S
C111 C110 1.363 . S
C111 N113 1.375 . S
C111 H129 0.931 1_565 S
C112 N109 1.311 . S
C112 N113 1.347 . S
C112 H123 0.929 . S
N113 C111 1.375 . S
N113 C112 1.347 . S
C114 C117 1.338 1_565 S
C114 N119 1.328 . S
C114 H120 0.929 . S
C115 C116 1.362 1_565 S
C115 C118 1.378 . S
C115 H130 0.929 1_565 S
C116 C115 1.362 1_545 S
C116 C117 1.379 . S
C117 C114 1.338 1_545 S
C117 C116 1.379 . S
C117 H131 0.946 . S
C118 C115 1.378 . S
C118 N119 1.315 . S
C118 H121 0.930 . S
N119 Co99 2.194 . S
N119 C114 1.328 . S
N119 C118 1.315 . S
H120 C114 0.929 . S
H121 C118 0.930 . S
H122 C110 0.929 . S
H123 C112 0.929 . S
O124 Co99 2.351 . S
O124 C127 1.244 . S
O125 Co99 2.155 . S
O125 C127 1.240 . S
O126 Co99 2.096 . S
O126 C107 1.247 . S
C127 O124 1.244 . S
C127 O125 1.240 . S
H128 C102 0.931 . S
H129 C111 0.931 1_545 S
H130 C115 0.929 1_545 S
H131 C117 0.946 . S
Co132 N136 2.148 . S
Co132 N142 2.128 . S
Co132 N152 2.194 . S
Co132 O157 2.351 . S
Co132 O158 2.155 . S
Co132 O159 2.096 . S
C133 N136 1.301 . S
C133 N137 1.328 . S
C133 H138 0.930 . S
C134 C135 1.333 . S
C134 N136 1.317 . S
C134 H139 0.930 . S
C135 C134 1.333 . S
C135 N137 1.350 . S
C135 H161 0.931 . S
N136 Co132 2.148 . S
N136 C133 1.301 . S
N136 C134 1.317 . S
N137 C133 1.328 . S
N137 C135 1.350 . S
H138 C133 0.930 . S
H139 C134 0.930 . S
C140 O141 1.224 . S
C140 O159 1.247 . S
O141 C140 1.224 . S
N142 Co132 2.128 . S
N142 C143 1.355 . S
N142 C145 1.311 . S
C143 N142 1.355 . S
C143 C144 1.363 . S
C143 H155 0.929 . S
C144 C143 1.363 . S
C144 N146 1.375 . S
C144 H162 0.931 . S
C145 N142 1.311 . S
C145 N146 1.347 . S
C145 H156 0.929 . S
N146 C144 1.375 . S
N146 C145 1.347 . S
C147 C150 1.365 . S
C147 N152 1.328 . S
C147 H153 0.929 . S
C148 C149 1.362 . S
C148 C151 1.378 . S
C148 H163 0.929 . S
C149 C148 1.362 . S
C149 C150 1.366 . S
C150 C147 1.365 . S
C150 C149 1.366 . S
C150 H164 0.930 . S
C151 C148 1.378 . S
C151 N152 1.315 . S
C151 H154 0.930 . S
N152 Co132 2.194 . S
N152 C147 1.328 . S
N152 C151 1.315 . S
H153 C147 0.929 . S
H154 C151 0.930 . S
H155 C143 0.929 . S
H156 C145 0.929 . S
O157 Co132 2.351 . S
O157 C160 1.244 . S
O158 Co132 2.155 . S
O158 C160 1.240 . S
O159 Co132 2.096 . S
O159 C140 1.247 . S
C160 O157 1.244 . S
C160 O158 1.240 . S
H161 C135 0.931 . S
H162 C144 0.931 . S
H163 C148 0.929 . S
H164 C150 0.930 . S
Co165 N169 2.148 . S
Co165 N175 2.128 . S
Co165 N185 2.194 . S
Co165 O190 2.351 . S
Co165 O191 2.155 . S
Co165 O192 2.096 . S
C166 N169 1.301 . S
C166 N170 1.328 . S
C166 H171 0.930 . S
C167 C168 1.333 . S
C167 N169 1.317 . S
C167 H172 0.930 . S
C168 C167 1.333 . S
C168 N170 1.350 . S
C168 H194 0.931 . S
N169 Co165 2.148 . S
N169 C166 1.301 . S
N169 C167 1.317 . S
N170 C166 1.328 . S
N170 C168 1.350 . S
H171 C166 0.930 . S
H172 C167 0.930 . S
C173 O174 1.224 . S
C173 O192 1.247 . S
O174 C173 1.224 . S
N175 Co165 2.128 . S
N175 C176 1.355 . S
N175 C178 1.311 . S
C176 N175 1.355 . S
C176 C177 1.363 . S
C176 H188 0.929 . S
C177 C176 1.363 . S
C177 N179 1.375 . S
C177 H195 0.931 . S
C178 N175 1.311 . S
C178 N179 1.347 . S
C178 H189 0.929 . S
N179 C177 1.375 . S
N179 C178 1.347 . S
C180 C183 1.365 . S
C180 N185 1.328 . S
C180 H186 0.929 . S
C181 C182 1.362 . S
C181 C184 1.378 . S
C181 H196 0.929 . S
C182 C181 1.362 . S
C182 C183 1.366 . S
C183 C180 1.365 . S
C183 C182 1.366 . S
C183 H197 0.930 . S
C184 C181 1.378 . S
C184 N185 1.315 . S
C184 H187 0.930 . S
N185 Co165 2.194 . S
N185 C180 1.328 . S
N185 C184 1.315 . S
H186 C180 0.929 . S
H187 C184 0.930 . S
H188 C176 0.929 . S
H189 C178 0.929 . S
O190 Co165 2.351 . S
O190 C193 1.244 . S
O191 Co165 2.155 . S
O191 C193 1.240 . S
O192 Co165 2.096 . S
O192 C173 1.247 . S
C193 O190 1.244 . S
C193 O191 1.240 . S
H194 C168 0.931 . S
H195 C177 0.931 . S
H196 C181 0.929 . S
H197 C183 0.930 . S
Co198 N202 2.148 . S
Co198 N208 2.128 . S
Co198 N218 2.194 . S
Co198 O223 2.351 . S
Co198 O224 2.155 . S
Co198 O225 2.096 . S
C199 N202 1.301 . S
C199 N203 1.328 . S
C199 H204 0.930 . S
C200 C201 1.333 . S
C200 N202 1.317 . S
C200 H205 0.930 . S
C201 C200 1.333 . S
C201 N203 1.350 . S
C201 H227 0.931 . S
N202 Co198 2.148 . S
N202 C199 1.301 . S
N202 C200 1.317 . S
N203 C199 1.328 . S
N203 C201 1.350 . S
H204 C199 0.930 . S
H205 C200 0.930 . S
C206 O207 1.224 . S
C206 O225 1.247 . S
O207 C206 1.224 . S
N208 Co198 2.128 . S
N208 C209 1.355 . S
N208 C211 1.311 . S
C209 N208 1.355 . S
C209 C210 1.363 . S
C209 H221 0.929 . S
C210 C209 1.363 . S
C210 N212 1.375 . S
C210 H228 0.931 . S
C211 N208 1.311 . S
C211 N212 1.347 . S
C211 H222 0.929 . S
N212 C210 1.375 . S
N212 C211 1.347 . S
C213 C216 1.365 . S
C213 N218 1.328 . S
C213 H219 0.929 . S
C214 C215 1.362 . S
C214 C217 1.378 . S
C214 H229 0.929 . S
C215 C214 1.362 . S
C215 C216 1.366 . S
C216 C213 1.365 . S
C216 C215 1.366 . S
C216 H230 0.930 . S
C217 C214 1.378 . S
C217 N218 1.315 . S
C217 H220 0.930 . S
N218 Co198 2.194 . S
N218 C213 1.328 . S
N218 C217 1.315 . S
H219 C213 0.929 . S
H220 C217 0.930 . S
H221 C209 0.929 . S
H222 C211 0.929 . S
O223 Co198 2.351 . S
O223 C226 1.244 . S
O224 Co198 2.155 . S
O224 C226 1.240 . S
O225 Co198 2.096 . S
O225 C206 1.247 . S
C226 O223 1.244 . S
C226 O224 1.240 . S
H227 C201 0.931 . S
H228 C210 0.931 . S
H229 C214 0.929 . S
H230 C216 0.930 . S
Co231 N235 2.148 . S
Co231 N241 2.128 . S
Co231 N251 2.194 . S
Co231 O256 2.351 . S
Co231 O257 2.155 . S
Co231 O258 2.096 . S
C232 N235 1.301 . S
C232 N236 1.328 . S
C232 H237 0.930 . S
C233 C234 1.333 . S
C233 N235 1.317 . S
C233 H238 0.930 . S
C234 C233 1.333 . S
C234 N236 1.350 . S
C234 H260 0.931 . S
N235 Co231 2.148 . S
N235 C232 1.301 . S
N235 C233 1.317 . S
N236 C232 1.328 . S
N236 C234 1.350 . S
H237 C232 0.930 . S
H238 C233 0.930 . S
C239 O240 1.224 . S
C239 O258 1.247 . S
O240 C239 1.224 . S
N241 Co231 2.128 . S
N241 C242 1.355 . S
N241 C244 1.311 . S
C242 N241 1.355 . S
C242 C243 1.363 . S
C242 H254 0.929 . S
C243 C242 1.363 . S
C243 N245 1.375 . S
C243 H261 0.931 . S
C244 N241 1.311 . S
C244 N245 1.347 . S
C244 H255 0.929 . S
N245 C243 1.375 . S
N245 C244 1.347 . S
C246 C249 1.365 . S
C246 N251 1.328 . S
C246 H252 0.929 . S
C247 C248 1.362 . S
C247 C250 1.378 . S
C247 H262 0.929 . S
C248 C247 1.362 . S
C248 C249 1.366 . S
C249 C246 1.365 . S
C249 C248 1.366 . S
C249 H263 0.930 . S
C250 C247 1.378 . S
C250 N251 1.315 . S
C250 H253 0.930 . S
N251 Co231 2.194 . S
N251 C246 1.328 . S
N251 C250 1.315 . S
H252 C246 0.929 . S
H253 C250 0.930 . S
H254 C242 0.929 . S
H255 C244 0.929 . S
O256 Co231 2.351 . S
O256 C259 1.244 . S
O257 Co231 2.155 . S
O257 C259 1.240 . S
O258 Co231 2.096 . S
O258 C239 1.247 . S
C259 O256 1.244 . S
C259 O257 1.240 . S
H260 C234 0.931 . S
H261 C243 0.931 . S
H262 C247 0.929 . S
H263 C249 0.930 . S
Co264 N268 2.148 . S
Co264 N274 2.128 . S
Co264 N284 2.194 . S
Co264 O289 2.351 . S
Co264 O290 2.155 . S
Co264 O291 2.096 . S
C265 N268 1.301 . S
C265 N269 1.328 . S
C265 H270 0.930 . S
C266 C267 1.333 . S
C266 N268 1.317 . S
C266 H271 0.930 . S
C267 C266 1.333 . S
C267 N269 1.350 . S
C267 H293 0.931 . S
N268 Co264 2.148 . S
N268 C265 1.301 . S
N268 C266 1.317 . S
N269 C265 1.328 . S
N269 C267 1.350 . S
H270 C265 0.930 . S
H271 C266 0.930 . S
C272 O273 1.224 . S
C272 O291 1.247 . S
O273 C272 1.224 . S
N274 Co264 2.128 . S
N274 C275 1.355 . S
N274 C277 1.311 . S
C275 N274 1.355 . S
C275 C276 1.363 . S
C275 H287 0.929 . S
C276 C275 1.363 . S
C276 N278 1.375 . S
C276 H294 0.931 1_655 S
C277 N274 1.311 . S
C277 N278 1.347 . S
C277 H288 0.929 . S
N278 C276 1.375 . S
N278 C277 1.347 . S
C279 C282 1.338 1_655 S
C279 N284 1.328 . S
C279 H285 0.929 . S
C280 C281 1.362 1_655 S
C280 C283 1.378 . S
C280 H295 0.929 1_655 S
C281 C280 1.362 1_455 S
C281 C282 1.379 . S
C282 C279 1.338 1_455 S
C282 C281 1.379 . S
C282 H296 0.946 . S
C283 C280 1.378 . S
C283 N284 1.315 . S
C283 H286 0.930 . S
N284 Co264 2.194 . S
N284 C279 1.328 . S
N284 C283 1.315 . S
H285 C279 0.929 . S
H286 C283 0.930 . S
H287 C275 0.929 . S
H288 C277 0.929 . S
O289 Co264 2.351 . S
O289 C292 1.244 . S
O290 Co264 2.155 . S
O290 C292 1.240 . S
O291 Co264 2.096 . S
O291 C272 1.247 . S
C292 O289 1.244 . S
C292 O290 1.240 . S
H293 C267 0.931 . S
H294 C276 0.931 1_455 S
H295 C280 0.929 1_455 S
H296 C282 0.946 . S
Co297 N301 2.148 . S
Co297 N307 2.128 . S
Co297 N317 2.194 . S
Co297 O322 2.351 . S
Co297 O323 2.155 . S
Co297 O324 2.096 . S
C298 N301 1.301 . S
C298 N302 1.328 . S
C298 H303 0.930 . S
C299 C300 1.333 . S
C299 N301 1.317 . S
C299 H304 0.930 . S
C300 C299 1.333 . S
C300 N302 1.350 . S
C300 H326 0.931 . S
N301 Co297 2.148 . S
N301 C298 1.301 . S
N301 C299 1.317 . S
N302 C298 1.328 . S
N302 C300 1.350 . S
H303 C298 0.930 . S
H304 C299 0.930 . S
C305 O306 1.224 . S
C305 O324 1.247 . S
O306 C305 1.224 . S
N307 Co297 2.128 . S
N307 C308 1.355 . S
N307 C310 1.311 . S
C308 N307 1.355 . S
C308 C309 1.363 . S
C308 H320 0.929 . S
C309 C308 1.363 . S
C309 N311 1.375 . S
C309 H327 0.931 1_565 S
C310 N307 1.311 . S
C310 N311 1.347 . S
C310 H321 0.929 . S
N311 C309 1.375 . S
N311 C310 1.347 . S
C312 C315 1.338 1_565 S
C312 N317 1.328 . S
C312 H318 0.929 . S
C313 C314 1.362 1_565 S
C313 C316 1.378 . S
C313 H328 0.929 1_565 S
C314 C313 1.362 1_545 S
C314 C315 1.379 . S
C315 C312 1.338 1_545 S
C315 C314 1.379 . S
C315 H329 0.946 . S
C316 C313 1.378 . S
C316 N317 1.315 . S
C316 H319 0.930 . S
N317 Co297 2.194 . S
N317 C312 1.328 . S
N317 C316 1.315 . S
H318 C312 0.929 . S
H319 C316 0.930 . S
H320 C308 0.929 . S
H321 C310 0.929 . S
O322 Co297 2.351 . S
O322 C325 1.244 . S
O323 Co297 2.155 . S
O323 C325 1.240 . S
O324 Co297 2.096 . S
O324 C305 1.247 . S
C325 O322 1.244 . S
C325 O323 1.240 . S
H326 C300 0.931 . S
H327 C309 0.931 1_545 S
H328 C313 0.929 1_545 S
H329 C315 0.946 . S
Co330 N334 2.148 . S
Co330 N340 2.128 . S
Co330 N350 2.194 . S
Co330 O355 2.351 . S
Co330 O356 2.155 . S
Co330 O357 2.096 . S
C331 N334 1.301 . S
C331 N335 1.328 . S
C331 H336 0.930 . S
C332 C333 1.333 . S
C332 N334 1.317 . S
C332 H337 0.930 . S
C333 C332 1.333 . S
C333 N335 1.350 . S
C333 H359 0.931 . S
N334 Co330 2.148 . S
N334 C331 1.301 . S
N334 C332 1.317 . S
N335 C331 1.328 . S
N335 C333 1.350 . S
H336 C331 0.930 . S
H337 C332 0.930 . S
C338 O339 1.224 . S
C338 O357 1.247 . S
O339 C338 1.224 . S
N340 Co330 2.128 . S
N340 C341 1.355 . S
N340 C343 1.311 . S
C341 N340 1.355 . S
C341 C342 1.363 . S
C341 H353 0.929 . S
C342 C341 1.363 . S
C342 N344 1.375 . S
C342 H360 0.931 1_455 S
C343 N340 1.311 . S
C343 N344 1.347 . S
C343 H354 0.929 . S
N344 C342 1.375 . S
N344 C343 1.347 . S
C345 C348 1.338 1_455 S
C345 N350 1.328 . S
C345 H351 0.929 . S
C346 C347 1.362 1_455 S
C346 C349 1.378 . S
C346 H361 0.929 1_455 S
C347 C346 1.362 1_655 S
C347 C348 1.379 . S
C348 C345 1.338 1_655 S
C348 C347 1.379 . S
C348 H362 0.946 . S
C349 C346 1.378 . S
C349 N350 1.315 . S
C349 H352 0.930 . S
N350 Co330 2.194 . S
N350 C345 1.328 . S
N350 C349 1.315 . S
H351 C345 0.929 . S
H352 C349 0.930 . S
H353 C341 0.929 . S
H354 C343 0.929 . S
O355 Co330 2.351 . S
O355 C358 1.244 . S
O356 Co330 2.155 . S
O356 C358 1.240 . S
O357 Co330 2.096 . S
O357 C338 1.247 . S
C358 O355 1.244 . S
C358 O356 1.240 . S
H359 C333 0.931 . S
H360 C342 0.931 1_655 S
H361 C346 0.929 1_655 S
H362 C348 0.946 . S
Co363 N367 2.148 . S
Co363 N373 2.128 . S
Co363 N383 2.194 . S
Co363 O388 2.351 . S
Co363 O389 2.155 . S
Co363 O390 2.096 . S
C364 N367 1.301 . S
C364 N368 1.328 . S
C364 H369 0.930 . S
C365 C366 1.333 . S
C365 N367 1.317 . S
C365 H370 0.930 . S
C366 C365 1.333 . S
C366 N368 1.350 . S
C366 H392 0.931 . S
N367 Co363 2.148 . S
N367 C364 1.301 . S
N367 C365 1.317 . S
N368 C364 1.328 . S
N368 C366 1.350 . S
H369 C364 0.930 . S
H370 C365 0.930 . S
C371 O372 1.224 . S
C371 O390 1.247 . S
O372 C371 1.224 . S
N373 Co363 2.128 . S
N373 C374 1.355 . S
N373 C376 1.311 . S
C374 N373 1.355 . S
C374 C375 1.363 . S
C374 H386 0.929 . S
C375 C374 1.363 . S
C375 N377 1.375 . S
C375 H393 0.931 1_545 S
C376 N373 1.311 . S
C376 N377 1.347 . S
C376 H387 0.929 . S
N377 C375 1.375 . S
N377 C376 1.347 . S
C378 C381 1.338 1_545 S
C378 N383 1.328 . S
C378 H384 0.929 . S
C379 C380 1.362 1_545 S
C379 C382 1.378 . S
C379 H394 0.929 1_545 S
C380 C379 1.362 1_565 S
C380 C381 1.379 . S
C381 C378 1.338 1_565 S
C381 C380 1.379 . S
C381 H395 0.946 . S
C382 C379 1.378 . S
C382 N383 1.315 . S
C382 H385 0.930 . S
N383 Co363 2.194 . S
N383 C378 1.328 . S
N383 C382 1.315 . S
H384 C378 0.929 . S
H385 C382 0.930 . S
H386 C374 0.929 . S
H387 C376 0.929 . S
O388 Co363 2.351 . S
O388 C391 1.244 . S
O389 Co363 2.155 . S
O389 C391 1.240 . S
O390 Co363 2.096 . S
O390 C371 1.247 . S
C391 O388 1.244 . S
C391 O389 1.240 . S
H392 C366 0.931 . S
H393 C375 0.931 1_565 S
H394 C379 0.929 1_565 S
H395 C381 0.946 . S
Co396 N400 2.148 . S
Co396 N406 2.128 . S
Co396 N416 2.194 . S
Co396 O421 2.351 . S
Co396 O422 2.155 . S
Co396 O423 2.096 . S
C397 N400 1.301 . S
C397 N401 1.328 . S
C397 H402 0.930 . S
C398 C399 1.333 . S
C398 N400 1.317 . S
C398 H403 0.930 . S
C399 C398 1.333 . S
C399 N401 1.350 . S
C399 H425 0.931 . S
N400 Co396 2.148 . S
N400 C397 1.301 . S
N400 C398 1.317 . S
N401 C397 1.328 . S
N401 C399 1.350 . S
H402 C397 0.930 . S
H403 C398 0.930 . S
C404 O405 1.224 . S
C404 O423 1.247 . S
O405 C404 1.224 . S
N406 Co396 2.128 . S
N406 C407 1.355 . S
N406 C409 1.311 . S
C407 N406 1.355 . S
C407 C408 1.363 . S
C407 H419 0.929 . S
C408 C407 1.363 . S
C408 N410 1.375 . S
C408 H426 0.931 . S
C409 N406 1.311 . S
C409 N410 1.347 . S
C409 H420 0.929 . S
N410 C408 1.375 . S
N410 C409 1.347 . S
C411 C414 1.365 . S
C411 N416 1.328 . S
C411 H417 0.929 . S
C412 C413 1.362 . S
C412 C415 1.378 . S
C412 H427 0.929 . S
C413 C412 1.362 . S
C413 C414 1.366 . S
C414 C411 1.365 . S
C414 C413 1.366 . S
C414 H428 0.930 . S
C415 C412 1.378 . S
C415 N416 1.315 . S
C415 H418 0.930 . S
N416 Co396 2.194 . S
N416 C411 1.328 . S
N416 C415 1.315 . S
H417 C411 0.929 . S
H418 C415 0.930 . S
H419 C407 0.929 . S
H420 C409 0.929 . S
O421 Co396 2.351 . S
O421 C424 1.244 . S
O422 Co396 2.155 . S
O422 C424 1.240 . S
O423 Co396 2.096 . S
O423 C404 1.247 . S
C424 O421 1.244 . S
C424 O422 1.240 . S
H425 C399 0.931 . S
H426 C408 0.931 . S
H427 C412 0.929 . S
H428 C414 0.930 . S
Co429 N433 2.148 . S
Co429 N439 2.128 . S
Co429 N449 2.194 . S
Co429 O454 2.351 . S
Co429 O455 2.155 . S
Co429 O456 2.096 . S
C430 N433 1.301 . S
C430 N434 1.328 . S
C430 H435 0.930 . S
C431 C432 1.333 . S
C431 N433 1.317 . S
C431 H436 0.930 . S
C432 C431 1.333 . S
C432 N434 1.350 . S
C432 H458 0.931 . S
N433 Co429 2.148 . S
N433 C430 1.301 . S
N433 C431 1.317 . S
N434 C430 1.328 . S
N434 C432 1.350 . S
H435 C430 0.930 . S
H436 C431 0.930 . S
C437 O438 1.224 . S
C437 O456 1.247 . S
O438 C437 1.224 . S
N439 Co429 2.128 . S
N439 C440 1.355 . S
N439 C442 1.311 . S
C440 N439 1.355 . S
C440 C441 1.363 . S
C440 H452 0.929 . S
C441 C440 1.363 . S
C441 N443 1.375 . S
C441 H459 0.931 . S
C442 N439 1.311 . S
C442 N443 1.347 . S
C442 H453 0.929 . S
N443 C441 1.375 . S
N443 C442 1.347 . S
C444 C447 1.365 . S
C444 N449 1.328 . S
C444 H450 0.929 . S
C445 C446 1.362 . S
C445 C448 1.378 . S
C445 H460 0.929 . S
C446 C445 1.362 . S
C446 C447 1.366 . S
C447 C444 1.365 . S
C447 C446 1.366 . S
C447 H461 0.930 . S
C448 C445 1.378 . S
C448 N449 1.315 . S
C448 H451 0.930 . S
N449 Co429 2.194 . S
N449 C444 1.328 . S
N449 C448 1.315 . S
H450 C444 0.929 . S
H451 C448 0.930 . S
H452 C440 0.929 . S
H453 C442 0.929 . S
O454 Co429 2.351 . S
O454 C457 1.244 . S
O455 Co429 2.155 . S
O455 C457 1.240 . S
O456 Co429 2.096 . S
O456 C437 1.247 . S
C457 O454 1.244 . S
C457 O455 1.240 . S
H458 C432 0.931 . S
H459 C441 0.931 . S
H460 C445 0.929 . S
H461 C447 0.930 . S
Co462 N466 2.148 . S
Co462 N472 2.128 . S
Co462 N482 2.194 . S
Co462 O487 2.351 . S
Co462 O488 2.155 . S
Co462 O489 2.096 . S
C463 N466 1.301 . S
C463 N467 1.328 . S
C463 H468 0.930 . S
C464 C465 1.333 . S
C464 N466 1.317 . S
C464 H469 0.930 . S
C465 C464 1.333 . S
C465 N467 1.350 . S
C465 H491 0.931 . S
N466 Co462 2.148 . S
N466 C463 1.301 . S
N466 C464 1.317 . S
N467 C463 1.328 . S
N467 C465 1.350 . S
H468 C463 0.930 . S
H469 C464 0.930 . S
C470 O471 1.224 . S
C470 O489 1.247 . S
O471 C470 1.224 . S
N472 Co462 2.128 . S
N472 C473 1.355 . S
N472 C475 1.311 . S
C473 N472 1.355 . S
C473 C474 1.363 . S
C473 H485 0.929 . S
C474 C473 1.363 . S
C474 N476 1.375 . S
C474 H492 0.931 . S
C475 N472 1.311 . S
C475 N476 1.347 . S
C475 H486 0.929 . S
N476 C474 1.375 . S
N476 C475 1.347 . S
C477 C480 1.365 . S
C477 N482 1.328 . S
C477 H483 0.929 . S
C478 C479 1.362 . S
C478 C481 1.378 . S
C478 H493 0.929 . S
C479 C478 1.362 . S
C479 C480 1.366 . S
C480 C477 1.365 . S
C480 C479 1.366 . S
C480 H494 0.930 . S
C481 C478 1.378 . S
C481 N482 1.315 . S
C481 H484 0.930 . S
N482 Co462 2.194 . S
N482 C477 1.328 . S
N482 C481 1.315 . S
H483 C477 0.929 . S
H484 C481 0.930 . S
H485 C473 0.929 . S
H486 C475 0.929 . S
O487 Co462 2.351 . S
O487 C490 1.244 . S
O488 Co462 2.155 . S
O488 C490 1.240 . S
O489 Co462 2.096 . S
O489 C470 1.247 . S
C490 O487 1.244 . S
C490 O488 1.240 . S
H491 C465 0.931 . S
H492 C474 0.931 . S
H493 C478 0.929 . S
H494 C480 0.930 . S
Co495 N499 2.148 . S
Co495 N505 2.128 . S
Co495 N515 2.194 . S
Co495 O520 2.351 . S
Co495 O521 2.155 . S
Co495 O522 2.096 . S
C496 N499 1.301 . S
C496 N500 1.328 . S
C496 H501 0.930 . S
C497 C498 1.333 . S
C497 N499 1.317 . S
C497 H502 0.930 . S
C498 C497 1.333 . S
C498 N500 1.350 . S
C498 H524 0.931 . S
N499 Co495 2.148 . S
N499 C496 1.301 . S
N499 C497 1.317 . S
N500 C496 1.328 . S
N500 C498 1.350 . S
H501 C496 0.930 . S
H502 C497 0.930 . S
C503 O504 1.224 . S
C503 O522 1.247 . S
O504 C503 1.224 . S
N505 Co495 2.128 . S
N505 C506 1.355 . S
N505 C508 1.311 . S
C506 N505 1.355 . S
C506 C507 1.363 . S
C506 H518 0.929 . S
C507 C506 1.363 . S
C507 N509 1.375 . S
C507 H525 0.931 . S
C508 N505 1.311 . S
C508 N509 1.347 . S
C508 H519 0.929 . S
N509 C507 1.375 . S
N509 C508 1.347 . S
C510 C513 1.365 . S
C510 N515 1.328 . S
C510 H516 0.929 . S
C511 C512 1.362 . S
C511 C514 1.378 . S
C511 H526 0.929 . S
C512 C511 1.362 . S
C512 C513 1.366 . S
C513 C510 1.365 . S
C513 C512 1.366 . S
C513 H527 0.930 . S
C514 C511 1.378 . S
C514 N515 1.315 . S
C514 H517 0.930 . S
N515 Co495 2.194 . S
N515 C510 1.328 . S
N515 C514 1.315 . S
H516 C510 0.929 . S
H517 C514 0.930 . S
H518 C506 0.929 . S
H519 C508 0.929 . S
O520 Co495 2.351 . S
O520 C523 1.244 . S
O521 Co495 2.155 . S
O521 C523 1.240 . S
O522 Co495 2.096 . S
O522 C503 1.247 . S
C523 O520 1.244 . S
C523 O521 1.240 . S
H524 C498 0.931 . S
H525 C507 0.931 . S
H526 C511 0.929 . S
H527 C513 0.930 . S
H528 C536 0.950 . S
H529 C541 0.950 . S
H530 C538 0.950 . S
H531 C540 0.950 . S
H532 C542 0.950 . S
H533 C544 0.950 . S
H534 C546 0.950 . S
H535 C547 0.950 . S
C536 H528 0.950 . S
C536 C537 1.386 . S
C536 C538 1.391 . S
C537 C536 1.386 . S
C537 C541 1.393 . S
C538 H530 0.950 . S
C538 C536 1.391 . S
C538 C539 1.400 . S
C539 C538 1.400 . S
C539 C540 1.398 . S
C539 C545 1.491 1_556 S
C540 H531 0.950 . S
C540 C539 1.398 . S
C540 C541 1.391 . S
C541 H529 0.950 . S
C541 C537 1.393 . S
C541 C540 1.391 . S
C542 H532 0.950 . S
C542 C543 1.386 . S
C542 C544 1.391 . S
C543 C542 1.386 . S
C543 C547 1.393 . S
C544 H533 0.950 . S
C544 C542 1.391 . S
C544 C545 1.400 . S
C545 C539 1.491 1_554 S
C545 C544 1.400 . S
C545 C546 1.398 . S
C546 H534 0.950 . S
C546 C545 1.398 . S
C546 C547 1.391 . S
C547 H535 0.950 . S
C547 C543 1.393 . S
C547 C546 1.391 . S
H548 C556 0.950 . S
H549 C561 0.950 . S
H550 C558 0.950 . S
H551 C560 0.950 . S
H552 C562 0.950 . S
H553 C564 0.950 . S
H554 C566 0.950 . S
H555 C567 0.950 . S
C556 H548 0.950 . S
C556 C557 1.386 . S
C556 C558 1.391 . S
C557 C556 1.386 . S
C557 C561 1.393 . S
C558 H550 0.950 . S
C558 C556 1.391 . S
C558 C559 1.400 . S
C559 C558 1.400 . S
C559 C560 1.398 . S
C559 C565 1.491 1_556 S
C560 H551 0.950 . S
C560 C559 1.398 . S
C560 C561 1.391 . S
C561 H549 0.950 . S
C561 C557 1.393 . S
C561 C560 1.391 . S
C562 H552 0.950 . S
C562 C563 1.386 . S
C562 C564 1.391 . S
C563 C562 1.386 . S
C563 C567 1.393 . S
C564 H553 0.950 . S
C564 C562 1.391 . S
C564 C565 1.400 . S
C565 C559 1.491 1_554 S
C565 C564 1.400 . S
C565 C566 1.398 . S
C566 H554 0.950 . S
C566 C565 1.398 . S
C566 C567 1.391 . S
C567 H555 0.950 . S
C567 C563 1.393 . S
C567 C566 1.391 . S
H568 C576 0.950 . S
H569 C581 0.950 . S
H570 C578 0.950 . S
H571 C580 0.950 . S
H572 C582 0.950 . S
H573 C584 0.950 . S
H574 C586 0.950 . S
H575 C587 0.950 . S
C576 H568 0.950 . S
C576 C577 1.386 . S
C576 C578 1.391 . S
C577 C576 1.386 . S
C577 C581 1.393 . S
C578 H570 0.950 . S
C578 C576 1.391 . S
C578 C579 1.400 . S
C579 C578 1.400 . S
C579 C580 1.398 . S
C579 C585 1.491 1_556 S
C580 H571 0.950 . S
C580 C579 1.398 . S
C580 C581 1.391 . S
C581 H569 0.950 . S
C581 C577 1.393 . S
C581 C580 1.391 . S
C582 H572 0.950 . S
C582 C583 1.386 . S
C582 C584 1.391 . S
C583 C582 1.386 . S
C583 C587 1.393 . S
C584 H573 0.950 . S
C584 C582 1.391 . S
C584 C585 1.400 . S
C585 C579 1.491 1_554 S
C585 C584 1.400 . S
C585 C586 1.398 . S
C586 H574 0.950 . S
C586 C585 1.398 . S
C586 C587 1.391 . S
C587 H575 0.950 . S
C587 C583 1.393 . S
C587 C586 1.391 . S
H588 C596 0.950 . S
H589 C601 0.950 . S
H590 C598 0.950 . S
H591 C600 0.950 . S
H592 C602 0.950 . S
H593 C604 0.950 . S
H594 C606 0.950 . S
H595 C607 0.950 . S
C596 H588 0.950 . S
C596 C597 1.386 . S
C596 C598 1.391 . S
C597 C596 1.386 . S
C597 C601 1.393 . S
C598 H590 0.950 . S
C598 C596 1.391 . S
C598 C599 1.400 . S
C599 C598 1.400 . S
C599 C600 1.398 . S
C599 C605 1.491 1_556 S
C600 H591 0.950 . S
C600 C599 1.398 . S
C600 C601 1.391 . S
C601 H589 0.950 . S
C601 C597 1.393 . S
C601 C600 1.391 . S
C602 H592 0.950 . S
C602 C603 1.386 . S
C602 C604 1.391 . S
C603 C602 1.386 . S
C603 C607 1.393 . S
C604 H593 0.950 . S
C604 C602 1.391 . S
C604 C605 1.400 . S
C605 C599 1.491 1_554 S
C605 C604 1.400 . S
C605 C606 1.398 . S
C606 H594 0.950 . S
C606 C605 1.398 . S
C606 C607 1.391 . S
C607 H595 0.950 . S
C607 C603 1.393 . S
C607 C606 1.391 . S
H608 C616 0.950 . S
H609 C621 0.950 . S
H610 C618 0.950 . S
H611 C620 0.950 . S
H612 C622 0.950 . S
H613 C624 0.950 . S
H614 C626 0.950 . S
H615 C627 0.950 . S
C616 H608 0.950 . S
C616 C617 1.386 . S
C616 C618 1.391 . S
C617 C616 1.386 . S
C617 C621 1.393 . S
C618 H610 0.950 . S
C618 C616 1.391 . S
C618 C619 1.400 . S
C619 C618 1.400 . S
C619 C620 1.398 . S
C619 C625 1.491 . S
C620 H611 0.950 . S
C620 C619 1.398 . S
C620 C621 1.391 . S
C621 H609 0.950 . S
C621 C617 1.393 . S
C621 C620 1.391 . S
C622 H612 0.950 . S
C622 C623 1.386 . S
C622 C624 1.391 . S
C623 C622 1.386 . S
C623 C627 1.393 . S
C624 H613 0.950 . S
C624 C622 1.391 . S
C624 C625 1.400 . S
C625 C619 1.491 . S
C625 C624 1.400 . S
C625 C626 1.398 . S
C626 H614 0.950 . S
C626 C625 1.398 . S
C626 C627 1.391 . S
C627 H615 0.950 . S
C627 C623 1.393 . S
C627 C626 1.391 . S
H628 C636 0.950 . S
H629 C641 0.950 . S
H630 C638 0.950 . S
H631 C640 0.950 . S
H632 C642 0.950 . S
H633 C644 0.950 . S
H634 C646 0.950 . S
H635 C647 0.950 . S
C636 H628 0.950 . S
C636 C637 1.386 . S
C636 C638 1.391 . S
C637 C636 1.386 . S
C637 C641 1.393 . S
C638 H630 0.950 . S
C638 C636 1.391 . S
C638 C639 1.400 . S
C639 C638 1.400 . S
C639 C640 1.398 . S
C639 C645 1.491 . S
C640 H631 0.950 . S
C640 C639 1.398 . S
C640 C641 1.391 . S
C641 H629 0.950 . S
C641 C637 1.393 . S
C641 C640 1.391 . S
C642 H632 0.950 . S
C642 C643 1.386 . S
C642 C644 1.391 . S
C643 C642 1.386 . S
C643 C647 1.393 . S
C644 H633 0.950 . S
C644 C642 1.391 . S
C644 C645 1.400 . S
C645 C639 1.491 . S
C645 C644 1.400 . S
C645 C646 1.398 . S
C646 H634 0.950 . S
C646 C645 1.398 . S
C646 C647 1.391 . S
C647 H635 0.950 . S
C647 C643 1.393 . S
C647 C646 1.391 . S
H648 C656 0.950 . S
H649 C661 0.950 . S
H650 C658 0.950 . S
H651 C660 0.950 . S
H652 C662 0.950 . S
H653 C664 0.950 . S
H654 C666 0.950 . S
H655 C667 0.950 . S
C656 H648 0.950 . S
C656 C657 1.386 . S
C656 C658 1.391 . S
C657 C656 1.386 . S
C657 C661 1.393 . S
C658 H650 0.950 . S
C658 C656 1.391 . S
C658 C659 1.400 . S
C659 C658 1.400 . S
C659 C660 1.398 . S
C659 C665 1.491 . S
C660 H651 0.950 . S
C660 C659 1.398 . S
C660 C661 1.391 . S
C661 H649 0.950 . S
C661 C657 1.393 . S
C661 C660 1.391 . S
C662 H652 0.950 . S
C662 C663 1.386 . S
C662 C664 1.391 . S
C663 C662 1.386 . S
C663 C667 1.393 . S
C664 H653 0.950 . S
C664 C662 1.391 . S
C664 C665 1.400 . S
C665 C659 1.491 . S
C665 C664 1.400 . S
C665 C666 1.398 . S
C666 H654 0.950 . S
C666 C665 1.398 . S
C666 C667 1.391 . S
C667 H655 0.950 . S
C667 C663 1.393 . S
C667 C666 1.391 . S
H668 C676 0.950 . S
H669 C681 0.950 . S
H670 C678 0.950 . S
H671 C680 0.950 . S
H672 C682 0.950 . S
H673 C684 0.950 . S
H674 C686 0.950 . S
H675 C687 0.950 . S
C676 H668 0.950 . S
C676 C677 1.386 . S
C676 C678 1.391 . S
C677 C676 1.386 . S
C677 C681 1.393 . S
C678 H670 0.950 . S
C678 C676 1.391 . S
C678 C679 1.400 . S
C679 C678 1.400 . S
C679 C680 1.398 . S
C679 C685 1.491 . S
C680 H671 0.950 . S
C680 C679 1.398 . S
C680 C681 1.391 . S
C681 H669 0.950 . S
C681 C677 1.393 . S
C681 C680 1.391 . S
C682 H672 0.950 . S
C682 C683 1.386 . S
C682 C684 1.391 . S
C683 C682 1.386 . S
C683 C687 1.393 . S
C684 H673 0.950 . S
C684 C682 1.391 . S
C684 C685 1.400 . S
C685 C679 1.491 . S
C685 C684 1.400 . S
C685 C686 1.398 . S
C686 H674 0.950 . S
C686 C685 1.398 . S
C686 C687 1.391 . S
C687 H675 0.950 . S
C687 C683 1.393 . S
C687 C686 1.391 . S
H688 C696 0.950 . S
H689 C701 0.950 . S
H690 C698 0.950 . S
H691 C700 0.950 . S
H692 C702 0.950 . S
H693 C704 0.950 . S
H694 C706 0.950 . S
H695 C707 0.950 . S
C696 H688 0.950 . S
C696 C697 1.386 . S
C696 C698 1.391 . S
C697 C696 1.386 . S
C697 C701 1.393 . S
C698 H690 0.950 . S
C698 C696 1.391 . S
C698 C699 1.400 . S
C699 C698 1.400 . S
C699 C700 1.398 . S
C699 C705 1.491 . S
C700 H691 0.950 . S
C700 C699 1.398 . S
C700 C701 1.391 . S
C701 H689 0.950 . S
C701 C697 1.393 . S
C701 C700 1.391 . S
C702 H692 0.950 . S
C702 C703 1.386 . S
C702 C704 1.391 . S
C703 C702 1.386 . S
C703 C707 1.393 . S
C704 H693 0.950 . S
C704 C702 1.391 . S
C704 C705 1.400 . S
C705 C699 1.491 . S
C705 C704 1.400 . S
C705 C706 1.398 . S
C706 H694 0.950 . S
C706 C705 1.398 . S
C706 C707 1.391 . S
C707 H695 0.950 . S
C707 C703 1.393 . S
C707 C706 1.391 . S
H708 C716 0.950 . S
H709 C721 0.950 . S
H710 C718 0.950 . S
H711 C720 0.950 . S
H712 C722 0.950 . S
H713 C724 0.950 . S
H714 C726 0.950 . S
H715 C727 0.950 . S
C716 H708 0.950 . S
C716 C717 1.386 . S
C716 C718 1.391 . S
C717 C716 1.386 . S
C717 C721 1.393 . S
C718 H710 0.950 . S
C718 C716 1.391 . S
C718 C719 1.400 . S
C719 C718 1.400 . S
C719 C720 1.398 . S
C719 C725 1.491 . S
C720 H711 0.950 . S
C720 C719 1.398 . S
C720 C721 1.391 . S
C721 H709 0.950 . S
C721 C717 1.393 . S
C721 C720 1.391 . S
C722 H712 0.950 . S
C722 C723 1.386 . S
C722 C724 1.391 . S
C723 C722 1.386 . S
C723 C727 1.393 . S
C724 H713 0.950 . S
C724 C722 1.391 . S
C724 C725 1.400 . S
C725 C719 1.491 . S
C725 C724 1.400 . S
C725 C726 1.398 . S
C726 H714 0.950 . S
C726 C725 1.398 . S
C726 C727 1.391 . S
C727 H715 0.950 . S
C727 C723 1.393 . S
C727 C726 1.391 . S
H728 C736 0.950 . S
H729 C741 0.950 . S
H730 C738 0.950 . S
H731 C740 0.950 . S
H732 C742 0.950 . S
H733 C744 0.950 . S
H734 C746 0.950 . S
H735 C747 0.950 . S
C736 H728 0.950 . S
C736 C737 1.386 . S
C736 C738 1.391 . S
C737 C736 1.386 . S
C737 C741 1.393 . S
C738 H730 0.950 . S
C738 C736 1.391 . S
C738 C739 1.400 . S
C739 C738 1.400 . S
C739 C740 1.398 . S
C739 C745 1.491 . S
C740 H731 0.950 . S
C740 C739 1.398 . S
C740 C741 1.391 . S
C741 H729 0.950 . S
C741 C737 1.393 . S
C741 C740 1.391 . S
C742 H732 0.950 . S
C742 C743 1.386 . S
C742 C744 1.391 . S
C743 C742 1.386 . S
C743 C747 1.393 . S
C744 H733 0.950 . S
C744 C742 1.391 . S
C744 C745 1.400 . S
C745 C739 1.491 . S
C745 C744 1.400 . S
C745 C746 1.398 . S
C746 H734 0.950 . S
C746 C745 1.398 . S
C746 C747 1.391 . S
C747 H735 0.950 . S
C747 C743 1.393 . S
C747 C746 1.391 . S
H748 C756 0.950 . S
H749 C761 0.950 . S
H750 C758 0.950 . S
H751 C760 0.950 . S
H752 C762 0.950 . S
H753 C764 0.950 . S
H754 C766 0.950 . S
H755 C767 0.950 . S
C756 H748 0.950 . S
C756 C757 1.386 . S
C756 C758 1.391 . S
C757 C756 1.386 . S
C757 C761 1.393 . S
C758 H750 0.950 . S
C758 C756 1.391 . S
C758 C759 1.400 . S
C759 C758 1.400 . S
C759 C760 1.398 . S
C759 C765 1.491 . S
C760 H751 0.950 . S
C760 C759 1.398 . S
C760 C761 1.391 . S
C761 H749 0.950 . S
C761 C757 1.393 . S
C761 C760 1.391 . S
C762 H752 0.950 . S
C762 C763 1.386 . S
C762 C764 1.391 . S
C763 C762 1.386 . S
C763 C767 1.393 . S
C764 H753 0.950 . S
C764 C762 1.391 . S
C764 C765 1.400 . S
C765 C759 1.491 . S
C765 C764 1.400 . S
C765 C766 1.398 . S
C766 H754 0.950 . S
C766 C765 1.398 . S
C766 C767 1.391 . S
C767 H755 0.950 . S
C767 C763 1.393 . S
C767 C766 1.391 . S
H768 C776 0.950 . S
H769 C781 0.950 . S
H770 C778 0.950 . S
H771 C780 0.950 . S
H772 C782 0.950 . S
H773 C784 0.950 . S
H774 C786 0.950 . S
H775 C787 0.950 . S
C776 H768 0.950 . S
C776 C777 1.386 . S
C776 C778 1.391 . S
C777 C776 1.386 . S
C777 C781 1.393 . S
C778 H770 0.950 . S
C778 C776 1.391 . S
C778 C779 1.400 . S
C779 C778 1.400 . S
C779 C780 1.398 . S
C779 C785 1.491 . S
C780 H771 0.950 . S
C780 C779 1.398 . S
C780 C781 1.391 . S
C781 H769 0.950 . S
C781 C777 1.393 . S
C781 C780 1.391 . S
C782 H772 0.950 . S
C782 C783 1.386 . S
C782 C784 1.391 . S
C783 C782 1.386 . S
C783 C787 1.393 . S
C784 H773 0.950 . S
C784 C782 1.391 . S
C784 C785 1.400 . S
C785 C779 1.491 . S
C785 C784 1.400 . S
C785 C786 1.398 . S
C786 H774 0.950 . S
C786 C785 1.398 . S
C786 C787 1.391 . S
C787 H775 0.950 . S
C787 C783 1.393 . S
C787 C786 1.391 . S
H788 C796 0.950 . S
H789 C801 0.950 . S
H790 C798 0.950 . S
H791 C800 0.950 . S
H792 C802 0.950 . S
H793 C804 0.950 . S
H794 C806 0.950 . S
H795 C807 0.950 . S
C796 H788 0.950 . S
C796 C797 1.386 . S
C796 C798 1.391 . S
C797 C796 1.386 . S
C797 C801 1.393 . S
C798 H790 0.950 . S
C798 C796 1.391 . S
C798 C799 1.400 . S
C799 C798 1.400 . S
C799 C800 1.398 . S
C799 C805 1.491 . S
C800 H791 0.950 . S
C800 C799 1.398 . S
C800 C801 1.391 . S
C801 H789 0.950 . S
C801 C797 1.393 . S
C801 C800 1.391 . S
C802 H792 0.950 . S
C802 C803 1.386 . S
C802 C804 1.391 . S
C803 C802 1.386 . S
C803 C807 1.393 . S
C804 H793 0.950 . S
C804 C802 1.391 . S
C804 C805 1.400 . S
C805 C799 1.491 . S
C805 C804 1.400 . S
C805 C806 1.398 . S
C806 H794 0.950 . S
C806 C805 1.398 . S
C806 C807 1.391 . S
C807 H795 0.950 . S
C807 C803 1.393 . S
C807 C806 1.391 . S
H808 C816 0.950 . S
H809 C821 0.950 . S
H810 C818 0.950 . S
H811 C820 0.950 . S
H812 C822 0.950 . S
H813 C824 0.950 . S
H814 C826 0.950 . S
H815 C827 0.950 . S
C816 H808 0.950 . S
C816 C817 1.386 . S
C816 C818 1.391 . S
C817 C816 1.386 . S
C817 C821 1.393 . S
C818 H810 0.950 . S
C818 C816 1.391 . S
C818 C819 1.400 . S
C819 C818 1.400 . S
C819 C820 1.398 . S
C819 C825 1.491 . S
C820 H811 0.950 . S
C820 C819 1.398 . S
C820 C821 1.391 . S
C821 H809 0.950 . S
C821 C817 1.393 . S
C821 C820 1.391 . S
C822 H812 0.950 . S
C822 C823 1.386 . S
C822 C824 1.391 . S
C823 C822 1.386 . S
C823 C827 1.393 . S
C824 H813 0.950 . S
C824 C822 1.391 . S
C824 C825 1.400 . S
C825 C819 1.491 . S
C825 C824 1.400 . S
C825 C826 1.398 . S
C826 H814 0.950 . S
C826 C825 1.398 . S
C826 C827 1.391 . S
C827 H815 0.950 . S
C827 C823 1.393 . S
C827 C826 1.391 . S
H828 C836 0.950 . S
H829 C841 0.950 . S
H830 C838 0.950 . S
H831 C840 0.950 . S
H832 C842 0.950 . S
H833 C844 0.950 . S
H834 C846 0.950 . S
H835 C847 0.950 . S
C836 H828 0.950 . S
C836 C837 1.386 . S
C836 C838 1.391 . S
C837 C836 1.386 . S
C837 C841 1.393 . S
C838 H830 0.950 . S
C838 C836 1.391 . S
C838 C839 1.400 . S
C839 C838 1.400 . S
C839 C840 1.398 . S
C839 C845 1.491 . S
C840 H831 0.950 . S
C840 C839 1.398 . S
C840 C841 1.391 . S
C841 H829 0.950 . S
C841 C837 1.393 . S
C841 C840 1.391 . S
C842 H832 0.950 . S
C842 C843 1.386 . S
C842 C844 1.391 . S
C843 C842 1.386 . S
C843 C847 1.393 . S
C844 H833 0.950 . S
C844 C842 1.391 . S
C844 C845 1.400 . S
C845 C839 1.491 . S
C845 C844 1.400 . S
C845 C846 1.398 . S
C846 H834 0.950 . S
C846 C845 1.398 . S
C846 C847 1.391 . S
C847 H835 0.950 . S
C847 C843 1.393 . S
C847 C846 1.391 . S
H848 C856 0.950 . S
H849 C861 0.950 . S
H850 C858 0.950 . S
H851 C860 0.950 . S
H852 C862 0.950 . S
H853 C864 0.950 . S
H854 C866 0.950 . S
H855 C867 0.950 . S
C856 H848 0.950 . S
C856 C857 1.386 . S
C856 C858 1.391 . S
C857 C856 1.386 . S
C857 C861 1.393 . S
C858 H850 0.950 . S
C858 C856 1.391 . S
C858 C859 1.400 . S
C859 C858 1.400 . S
C859 C860 1.398 . S
C859 C865 1.491 . S
C860 H851 0.950 . S
C860 C859 1.398 . S
C860 C861 1.391 . S
C861 H849 0.950 . S
C861 C857 1.393 . S
C861 C860 1.391 . S
C862 H852 0.950 . S
C862 C863 1.386 . S
C862 C864 1.391 . S
C863 C862 1.386 . S
C863 C867 1.393 . S
C864 H853 0.950 . S
C864 C862 1.391 . S
C864 C865 1.400 . S
C865 C859 1.491 . S
C865 C864 1.400 . S
C865 C866 1.398 . S
C866 H854 0.950 . S
C866 C865 1.398 . S
C866 C867 1.391 . S
C867 H855 0.950 . S
C867 C863 1.393 . S
C867 C866 1.391 . S
H868 C876 0.950 . S
H869 C881 0.950 . S
H870 C878 0.950 . S
H871 C880 0.950 . S
H872 C882 0.950 . S
H873 C884 0.950 . S
H874 C886 0.950 . S
H875 C887 0.950 . S
C876 H868 0.950 . S
C876 C877 1.386 . S
C876 C878 1.391 . S
C877 C876 1.386 . S
C877 C881 1.393 . S
C878 H870 0.950 . S
C878 C876 1.391 . S
C878 C879 1.400 . S
C879 C878 1.400 . S
C879 C880 1.398 . S
C879 C885 1.491 . S
C880 H871 0.950 . S
C880 C879 1.398 . S
C880 C881 1.391 . S
C881 H869 0.950 . S
C881 C877 1.393 . S
C881 C880 1.391 . S
C882 H872 0.950 . S
C882 C883 1.386 . S
C882 C884 1.391 . S
C883 C882 1.386 . S
C883 C887 1.393 . S
C884 H873 0.950 . S
C884 C882 1.391 . S
C884 C885 1.400 . S
C885 C879 1.491 . S
C885 C884 1.400 . S
C885 C886 1.398 . S
C886 H874 0.950 . S
C886 C885 1.398 . S
C886 C887 1.391 . S
C887 H875 0.950 . S
C887 C883 1.393 . S
C887 C886 1.391 . S
H888 C896 0.950 . S
H889 C901 0.950 . S
H890 C898 0.950 . S
H891 C900 0.950 . S
H892 C902 0.950 . S
H893 C904 0.950 . S
H894 C906 0.950 . S
H895 C907 0.950 . S
C896 H888 0.950 . S
C896 C897 1.386 . S
C896 C898 1.391 . S
C897 C896 1.386 . S
C897 C901 1.393 . S
C898 H890 0.950 . S
C898 C896 1.391 . S
C898 C899 1.400 . S
C899 C898 1.400 . S
C899 C900 1.398 . S
C899 C905 1.491 . S
C900 H891 0.950 . S
C900 C899 1.398 . S
C900 C901 1.391 . S
C901 H889 0.950 . S
C901 C897 1.393 . S
C901 C900 1.391 . S
C902 H892 0.950 . S
C902 C903 1.386 . S
C902 C904 1.391 . S
C903 C902 1.386 . S
C903 C907 1.393 . S
C904 H893 0.950 . S
C904 C902 1.391 . S
C904 C905 1.400 . S
C905 C899 1.491 . S
C905 C904 1.400 . S
C905 C906 1.398 . S
C906 H894 0.950 . S
C906 C905 1.398 . S
C906 C907 1.391 . S
C907 H895 0.950 . S
C907 C903 1.393 . S
C907 C906 1.391 . S
H908 C916 0.950 . S
H909 C921 0.950 . S
H910 C918 0.950 . S
H911 C920 0.950 . S
H912 C922 0.950 . S
H913 C924 0.950 . S
H914 C926 0.950 . S
H915 C927 0.950 . S
C916 H908 0.950 . S
C916 C917 1.386 . S
C916 C918 1.391 . S
C917 C916 1.386 . S
C917 C921 1.393 . S
C918 H910 0.950 . S
C918 C916 1.391 . S
C918 C919 1.400 . S
C919 C918 1.400 . S
C919 C920 1.398 . S
C919 C925 1.491 . S
C920 H911 0.950 . S
C920 C919 1.398 . S
C920 C921 1.391 . S
C921 H909 0.950 . S
C921 C917 1.393 . S
C921 C920 1.391 . S
C922 H912 0.950 . S
C922 C923 1.386 . S
C922 C924 1.391 . S
C923 C922 1.386 . S
C923 C927 1.393 . S
C924 H913 0.950 . S
C924 C922 1.391 . S
C924 C925 1.400 . S
C925 C919 1.491 . S
C925 C924 1.400 . S
C925 C926 1.398 . S
C926 H914 0.950 . S
C926 C925 1.398 . S
C926 C927 1.391 . S
C927 H915 0.950 . S
C927 C923 1.393 . S
C927 C926 1.391 . S
H928 C936 0.950 . S
H929 C941 0.950 . S
H930 C938 0.950 . S
H931 C940 0.950 . S
H932 C942 0.950 . S
H933 C944 0.950 . S
H934 C946 0.950 . S
H935 C947 0.950 . S
C936 H928 0.950 . S
C936 C937 1.386 . S
C936 C938 1.391 . S
C937 C936 1.386 . S
C937 C941 1.393 . S
C938 H930 0.950 . S
C938 C936 1.391 . S
C938 C939 1.400 . S
C939 C938 1.400 . S
C939 C940 1.398 . S
C939 C945 1.491 . S
C940 H931 0.950 . S
C940 C939 1.398 . S
C940 C941 1.391 . S
C941 H929 0.950 . S
C941 C937 1.393 . S
C941 C940 1.391 . S
C942 H932 0.950 . S
C942 C943 1.386 . S
C942 C944 1.391 . S
C943 C942 1.386 . S
C943 C947 1.393 . S
C944 H933 0.950 . S
C944 C942 1.391 . S
C944 C945 1.400 . S
C945 C939 1.491 . S
C945 C944 1.400 . S
C945 C946 1.398 . S
C946 H934 0.950 . S
C946 C945 1.398 . S
C946 C947 1.391 . S
C947 H935 0.950 . S
C947 C943 1.393 . S
C947 C946 1.391 . S
H948 C956 0.950 . S
H949 C961 0.950 . S
H950 C958 0.950 . S
H951 C960 0.950 . S
H952 C962 0.950 . S
H953 C964 0.950 . S
H954 C966 0.950 . S
H955 C967 0.950 . S
C956 H948 0.950 . S
C956 C957 1.386 . S
C956 C958 1.391 . S
C957 C956 1.386 . S
C957 C961 1.393 . S
C958 H950 0.950 . S
C958 C956 1.391 . S
C958 C959 1.400 . S
C959 C958 1.400 . S
C959 C960 1.398 . S
C959 C965 1.491 . S
C960 H951 0.950 . S
C960 C959 1.398 . S
C960 C961 1.391 . S
C961 H949 0.950 . S
C961 C957 1.393 . S
C961 C960 1.391 . S
C962 H952 0.950 . S
C962 C963 1.386 . S
C962 C964 1.391 . S
C963 C962 1.386 . S
C963 C967 1.393 . S
C964 H953 0.950 . S
C964 C962 1.391 . S
C964 C965 1.400 . S
C965 C959 1.491 . S
C965 C964 1.400 . S
C965 C966 1.398 . S
C966 H954 0.950 . S
C966 C965 1.398 . S
C966 C967 1.391 . S
C967 H955 0.950 . S
C967 C963 1.393 . S
C967 C966 1.391 . S
H968 C976 0.950 . S
H969 C981 0.950 . S
H970 C978 0.950 . S
H971 C980 0.950 . S
H972 C982 0.950 . S
H973 C984 0.950 . S
H974 C986 0.950 . S
H975 C987 0.950 . S
C976 H968 0.950 . S
C976 C977 1.386 . S
C976 C978 1.391 . S
C977 C976 1.386 . S
C977 C981 1.393 . S
C978 H970 0.950 . S
C978 C976 1.391 . S
C978 C979 1.400 . S
C979 C978 1.400 . S
C979 C980 1.398 . S
C979 C985 1.491 . S
C980 H971 0.950 . S
C980 C979 1.398 . S
C980 C981 1.391 . S
C981 H969 0.950 . S
C981 C977 1.393 . S
C981 C980 1.391 . S
C982 H972 0.950 . S
C982 C983 1.386 . S
C982 C984 1.391 . S
C983 C982 1.386 . S
C983 C987 1.393 . S
C984 H973 0.950 . S
C984 C982 1.391 . S
C984 C985 1.400 . S
C985 C979 1.491 . S
C985 C984 1.400 . S
C985 C986 1.398 . S
C986 H974 0.950 . S
C986 C985 1.398 . S
C986 C987 1.391 . S
C987 H975 0.950 . S
C987 C983 1.393 . S
C987 C986 1.391 . S
H988 C996 0.950 . S
H989 C1001 0.950 . S
H990 C998 0.950 . S
H991 C1000 0.950 . S
H992 C1002 0.950 . S
H993 C1004 0.950 . S
H994 C1006 0.950 . S
H995 C1007 0.950 . S
C996 H988 0.950 . S
C996 C997 1.386 . S
C996 C998 1.391 . S
C997 C996 1.386 . S
C997 C1001 1.393 . S
C998 H990 0.950 . S
C998 C996 1.391 . S
C998 C999 1.400 . S
C999 C998 1.400 . S
C999 C1000 1.398 . S
C999 C1005 1.491 . S
C1000 H991 0.950 . S
C1000 C999 1.398 . S
C1000 C1001 1.391 . S
C1001 H989 0.950 . S
C1001 C997 1.393 . S
C1001 C1000 1.391 . S
C1002 H992 0.950 . S
C1002 C1003 1.386 . S
C1002 C1004 1.391 . S
C1003 C1002 1.386 . S
C1003 C1007 1.393 . S
C1004 H993 0.950 . S
C1004 C1002 1.391 . S
C1004 C1005 1.400 . S
C1005 C999 1.491 . S
C1005 C1004 1.400 . S
C1005 C1006 1.398 . S
C1006 H994 0.950 . S
C1006 C1005 1.398 . S
C1006 C1007 1.391 . S
C1007 H995 0.950 . S
C1007 C1003 1.393 . S
C1007 C1006 1.391 . S
H1008 C1016 0.950 . S
H1009 C1021 0.950 . S
H1010 C1018 0.950 . S
H1011 C1020 0.950 . S
H1012 C1022 0.950 . S
H1013 C1024 0.950 . S
H1014 C1026 0.950 . S
H1015 C1027 0.950 . S
C1016 H1008 0.950 . S
C1016 C1017 1.386 . S
C1016 C1018 1.391 . S
C1017 C1016 1.386 . S
C1017 C1021 1.393 . S
C1018 H1010 0.950 . S
C1018 C1016 1.391 . S
C1018 C1019 1.400 . S
C1019 C1018 1.400 . S
C1019 C1020 1.398 . S
C1019 C1025 1.491 . S
C1020 H1011 0.950 . S
C1020 C1019 1.398 . S
C1020 C1021 1.391 . S
C1021 H1009 0.950 . S
C1021 C1017 1.393 . S
C1021 C1020 1.391 . S
C1022 H1012 0.950 . S
C1022 C1023 1.386 . S
C1022 C1024 1.391 . S
C1023 C1022 1.386 . S
C1023 C1027 1.393 . S
C1024 H1013 0.950 . S
C1024 C1022 1.391 . S
C1024 C1025 1.400 . S
C1025 C1019 1.491 . S
C1025 C1024 1.400 . S
C1025 C1026 1.398 . S
C1026 H1014 0.950 . S
C1026 C1025 1.398 . S
C1026 C1027 1.391 . S
C1027 H1015 0.950 . S
C1027 C1023 1.393 . S
C1027 C1026 1.391 . S
H1028 C1036 0.950 . S
H1029 C1041 0.950 . S
H1030 C1038 0.950 . S
H1031 C1040 0.950 . S
H1032 C1042 0.950 . S
H1033 C1044 0.950 . S
H1034 C1046 0.950 . S
H1035 C1047 0.950 . S
C1036 H1028 0.950 . S
C1036 C1037 1.386 . S
C1036 C1038 1.391 . S
C1037 C1036 1.386 . S
C1037 C1041 1.393 . S
C1038 H1030 0.950 . S
C1038 C1036 1.391 . S
C1038 C1039 1.400 . S
C1039 C1038 1.400 . S
C1039 C1040 1.398 . S
C1039 C1045 1.491 . S
C1040 H1031 0.950 . S
C1040 C1039 1.398 . S
C1040 C1041 1.391 . S
C1041 H1029 0.950 . S
C1041 C1037 1.393 . S
C1041 C1040 1.391 . S
C1042 H1032 0.950 . S
C1042 C1043 1.386 . S
C1042 C1044 1.391 . S
C1043 C1042 1.386 . S
C1043 C1047 1.393 . S
C1044 H1033 0.950 . S
C1044 C1042 1.391 . S
C1044 C1045 1.400 . S
C1045 C1039 1.491 . S
C1045 C1044 1.400 . S
C1045 C1046 1.398 . S
C1046 H1034 0.950 . S
C1046 C1045 1.398 . S
C1046 C1047 1.391 . S
C1047 H1035 0.950 . S
C1047 C1043 1.393 . S
C1047 C1046 1.391 . S
H1048 C1056 0.950 . S
H1049 C1061 0.950 . S
H1050 C1058 0.950 . S
H1051 C1060 0.950 . S
H1052 C1062 0.950 . S
H1053 C1064 0.950 . S
H1054 C1066 0.950 . S
H1055 C1067 0.950 . S
C1056 H1048 0.950 . S
C1056 C1057 1.386 . S
C1056 C1058 1.391 . S
C1057 C1056 1.386 . S
C1057 C1061 1.393 . S
C1058 H1050 0.950 . S
C1058 C1056 1.391 . S
C1058 C1059 1.400 . S
C1059 C1058 1.400 . S
C1059 C1060 1.398 . S
C1059 C1065 1.491 . S
C1060 H1051 0.950 . S
C1060 C1059 1.398 . S
C1060 C1061 1.391 . S
C1061 H1049 0.950 . S
C1061 C1057 1.393 . S
C1061 C1060 1.391 . S
C1062 H1052 0.950 . S
C1062 C1063 1.386 . S
C1062 C1064 1.391 . S
C1063 C1062 1.386 . S
C1063 C1067 1.393 . S
C1064 H1053 0.950 . S
C1064 C1062 1.391 . S
C1064 C1065 1.400 . S
C1065 C1059 1.491 . S
C1065 C1064 1.400 . S
C1065 C1066 1.398 . S
C1066 H1054 0.950 . S
C1066 C1065 1.398 . S
C1066 C1067 1.391 . S
C1067 H1055 0.950 . S
C1067 C1063 1.393 . S
C1067 C1066 1.391 . S
H1068 C1076 0.950 . S
H1069 C1081 0.950 . S
H1070 C1078 0.950 . S
H1071 C1080 0.950 . S
H1072 C1082 0.950 . S
H1073 C1084 0.950 . S
H1074 C1086 0.950 . S
H1075 C1087 0.950 . S
C1076 H1068 0.950 . S
C1076 C1077 1.386 . S
C1076 C1078 1.391 . S
C1077 C1076 1.386 . S
C1077 C1081 1.393 . S
C1078 H1070 0.950 . S
C1078 C1076 1.391 . S
C1078 C1079 1.400 . S
C1079 C1078 1.400 . S
C1079 C1080 1.398 . S
C1079 C1085 1.491 . S
C1080 H1071 0.950 . S
C1080 C1079 1.398 . S
C1080 C1081 1.391 . S
C1081 H1069 0.950 . S
C1081 C1077 1.393 . S
C1081 C1080 1.391 . S
C1082 H1072 0.950 . S
C1082 C1083 1.386 . S
C1082 C1084 1.391 . S
C1083 C1082 1.386 . S
C1083 C1087 1.393 . S
C1084 H1073 0.950 . S
C1084 C1082 1.391 . S
C1084 C1085 1.400 . S
C1085 C1079 1.491 . S
C1085 C1084 1.400 . S
C1085 C1086 1.398 . S
C1086 H1074 0.950 . S
C1086 C1085 1.398 . S
C1086 C1087 1.391 . S
C1087 H1075 0.950 . S
C1087 C1083 1.393 . S
C1087 C1086 1.391 . S
H1088 C1096 0.950 . S
H1089 C1101 0.950 . S
H1090 C1098 0.950 . S
H1091 C1100 0.950 . S
H1092 C1102 0.950 . S
H1093 C1104 0.950 . S
H1094 C1106 0.950 . S
H1095 C1107 0.950 . S
C1096 H1088 0.950 . S
C1096 C1097 1.386 . S
C1096 C1098 1.391 . S
C1097 C1096 1.386 . S
C1097 C1101 1.393 . S
C1098 H1090 0.950 . S
C1098 C1096 1.391 . S
C1098 C1099 1.400 . S
C1099 C1098 1.400 . S
C1099 C1100 1.398 . S
C1099 C1105 1.491 . S
C1100 H1091 0.950 . S
C1100 C1099 1.398 . S
C1100 C1101 1.391 . S
C1101 H1089 0.950 . S
C1101 C1097 1.393 . S
C1101 C1100 1.391 . S
C1102 H1092 0.950 . S
C1102 C1103 1.386 . S
C1102 C1104 1.391 . S
C1103 C1102 1.386 . S
C1103 C1107 1.393 . S
C1104 H1093 0.950 . S
C1104 C1102 1.391 . S
C1104 C1105 1.400 . S
C1105 C1099 1.491 . S
C1105 C1104 1.400 . S
C1105 C1106 1.398 . S
C1106 H1094 0.950 . S
C1106 C1105 1.398 . S
C1106 C1107 1.391 . S
C1107 H1095 0.950 . S
C1107 C1103 1.393 . S
C1107 C1106 1.391 . S
H1108 C1116 0.950 . S
H1109 C1121 0.950 . S
H1110 C1118 0.950 . S
H1111 C1120 0.950 . S
H1112 C1122 0.950 . S
H1113 C1124 0.950 . S
H1114 C1126 0.950 . S
H1115 C1127 0.950 . S
C1116 H1108 0.950 . S
C1116 C1117 1.386 . S
C1116 C1118 1.391 . S
C1117 C1116 1.386 . S
C1117 C1121 1.393 . S
C1118 H1110 0.950 . S
C1118 C1116 1.391 . S
C1118 C1119 1.400 . S
C1119 C1118 1.400 . S
C1119 C1120 1.398 . S
C1119 C1125 1.491 . S
C1120 H1111 0.950 . S
C1120 C1119 1.398 . S
C1120 C1121 1.391 . S
C1121 H1109 0.950 . S
C1121 C1117 1.393 . S
C1121 C1120 1.391 . S
C1122 H1112 0.950 . S
C1122 C1123 1.386 . S
C1122 C1124 1.391 . S
C1123 C1122 1.386 . S
C1123 C1127 1.393 . S
C1124 H1113 0.950 . S
C1124 C1122 1.391 . S
C1124 C1125 1.400 . S
C1125 C1119 1.491 . S
C1125 C1124 1.400 . S
C1125 C1126 1.398 . S
C1126 H1114 0.950 . S
C1126 C1125 1.398 . S
C1126 C1127 1.391 . S
C1127 H1115 0.950 . S
C1127 C1123 1.393 . S
C1127 C1126 1.391 . S
H1128 C1136 0.950 . S
H1129 C1141 0.950 . S
H1130 C1138 0.950 . S
H1131 C1140 0.950 . S
H1132 C1142 0.950 . S
H1133 C1144 0.950 . S
H1134 C1146 0.950 . S
H1135 C1147 0.950 . S
C1136 H1128 0.950 . S
C1136 C1137 1.386 . S
C1136 C1138 1.391 . S
C1137 C1136 1.386 . S
C1137 C1141 1.393 . S
C1138 H1130 0.950 . S
C1138 C1136 1.391 . S
C1138 C1139 1.400 . S
C1139 C1138 1.400 . S
C1139 C1140 1.398 . S
C1139 C1145 1.491 . S
C1140 H1131 0.950 . S
C1140 C1139 1.398 . S
C1140 C1141 1.391 . S
C1141 H1129 0.950 . S
C1141 C1137 1.393 . S
C1141 C1140 1.391 . S
C1142 H1132 0.950 . S
C1142 C1143 1.386 . S
C1142 C1144 1.391 . S
C1143 C1142 1.386 . S
C1143 C1147 1.393 . S
C1144 H1133 0.950 . S
C1144 C1142 1.391 . S
C1144 C1145 1.400 . S
C1145 C1139 1.491 . S
C1145 C1144 1.400 . S
C1145 C1146 1.398 . S
C1146 H1134 0.950 . S
C1146 C1145 1.398 . S
C1146 C1147 1.391 . S
C1147 H1135 0.950 . S
C1147 C1143 1.393 . S
C1147 C1146 1.391 . S
H1148 C1156 0.950 . S
H1149 C1161 0.950 . S
H1150 C1158 0.950 . S
H1151 C1160 0.950 . S
H1152 C1162 0.950 . S
H1153 C1164 0.950 . S
H1154 C1166 0.950 . S
H1155 C1167 0.950 . S
C1156 H1148 0.950 . S
C1156 C1157 1.386 . S
C1156 C1158 1.391 . S
C1157 C1156 1.386 . S
C1157 C1161 1.393 . S
C1158 H1150 0.950 . S
C1158 C1156 1.391 . S
C1158 C1159 1.400 . S
C1159 C1158 1.400 . S
C1159 C1160 1.398 . S
C1159 C1165 1.491 . S
C1160 H1151 0.950 . S
C1160 C1159 1.398 . S
C1160 C1161 1.391 . S
C1161 H1149 0.950 . S
C1161 C1157 1.393 . S
C1161 C1160 1.391 . S
C1162 H1152 0.950 . S
C1162 C1163 1.386 . S
C1162 C1164 1.391 . S
C1163 C1162 1.386 . S
C1163 C1167 1.393 . S
C1164 H1153 0.950 . S
C1164 C1162 1.391 . S
C1164 C1165 1.400 . S
C1165 C1159 1.491 . S
C1165 C1164 1.400 . S
C1165 C1166 1.398 . S
C1166 H1154 0.950 . S
C1166 C1165 1.398 . S
C1166 C1167 1.391 . S
C1167 H1155 0.950 . S
C1167 C1163 1.393 . S
C1167 C1166 1.391 . S
H1168 C1176 0.950 . S
H1169 C1181 0.950 . S
H1170 C1178 0.957 . S
H1171 C1180 0.950 . S
H1172 C1182 0.950 . S
H1173 C1184 0.957 . S
H1174 C1186 0.950 . S
H1175 C1187 0.950 . S
C1176 H1168 0.950 . S
C1176 C1177 1.386 . S
C1176 C1178 1.387 1_655 S
C1177 C1176 1.386 . S
C1177 C1181 1.393 . S
C1178 H1170 0.957 . S
C1178 C1176 1.387 1_455 S
C1178 C1179 1.398 1_455 S
C1179 C1178 1.398 1_655 S
C1179 C1180 1.398 . S
C1179 C1185 1.491 1_655 S
C1180 H1171 0.950 . S
C1180 C1179 1.398 . S
C1180 C1181 1.391 . S
C1181 H1169 0.950 . S
C1181 C1177 1.393 . S
C1181 C1180 1.391 . S
C1182 H1172 0.950 . S
C1182 C1183 1.386 . S
C1182 C1184 1.387 1_455 S
C1183 C1182 1.386 . S
C1183 C1187 1.393 . S
C1184 H1173 0.957 . S
C1184 C1182 1.387 1_655 S
C1184 C1185 1.398 1_655 S
C1185 C1179 1.491 1_455 S
C1185 C1184 1.398 1_455 S
C1185 C1186 1.398 . S
C1186 H1174 0.950 . S
C1186 C1185 1.398 . S
C1186 C1187 1.391 . S
C1187 H1175 0.950 . S
C1187 C1183 1.393 . S
C1187 C1186 1.391 . S
H1188 C1196 0.950 . S
H1189 C1201 0.950 . S
H1190 C1198 0.950 . S
H1191 C1200 0.950 . S
H1192 C1202 0.950 . S
H1193 C1204 0.950 . S
H1194 C1206 0.950 . S
H1195 C1207 0.950 . S
C1196 H1188 0.950 . S
C1196 C1197 1.386 . S
C1196 C1198 1.391 . S
C1197 C1196 1.386 . S
C1197 C1201 1.393 1_565 S
C1198 H1190 0.950 . S
C1198 C1196 1.391 . S
C1198 C1199 1.400 . S
C1199 C1198 1.400 . S
C1199 C1200 1.398 1_565 S
C1199 C1205 1.491 1_565 S
C1200 H1191 0.950 . S
C1200 C1199 1.398 1_545 S
C1200 C1201 1.391 . S
C1201 H1189 0.950 . S
C1201 C1197 1.393 1_545 S
C1201 C1200 1.391 . S
C1202 H1192 0.950 . S
C1202 C1203 1.386 . S
C1202 C1204 1.391 . S
C1203 C1202 1.386 . S
C1203 C1207 1.393 1_545 S
C1204 H1193 0.950 . S
C1204 C1202 1.391 . S
C1204 C1205 1.400 . S
C1205 C1199 1.491 1_545 S
C1205 C1204 1.400 . S
C1205 C1206 1.398 1_545 S
C1206 H1194 0.950 . S
C1206 C1205 1.398 1_565 S
C1206 C1207 1.391 . S
C1207 H1195 0.950 . S
C1207 C1203 1.393 1_565 S
C1207 C1206 1.391 . S
H1208 C1216 0.950 . S
H1209 C1221 0.950 . S
H1210 C1218 0.950 . S
H1211 C1220 0.950 . S
H1212 C1222 0.950 . S
H1213 C1224 0.950 . S
H1214 C1226 0.950 . S
H1215 C1227 0.950 . S
C1216 H1208 0.950 . S
C1216 C1217 1.386 . S
C1216 C1218 1.391 . S
C1217 C1216 1.386 . S
C1217 C1221 1.393 . S
C1218 H1210 0.950 . S
C1218 C1216 1.391 . S
C1218 C1219 1.400 . S
C1219 C1218 1.400 . S
C1219 C1220 1.398 . S
C1219 C1225 1.491 1_545 S
C1220 H1211 0.950 . S
C1220 C1219 1.398 . S
C1220 C1221 1.391 . S
C1221 H1209 0.950 . S
C1221 C1217 1.393 . S
C1221 C1220 1.391 . S
C1222 H1212 0.950 . S
C1222 C1223 1.386 . S
C1222 C1224 1.391 . S
C1223 C1222 1.386 . S
C1223 C1227 1.393 . S
C1224 H1213 0.950 . S
C1224 C1222 1.391 . S
C1224 C1225 1.400 . S
C1225 C1219 1.491 1_565 S
C1225 C1224 1.400 . S
C1225 C1226 1.398 . S
C1226 H1214 0.950 . S
C1226 C1225 1.398 . S
C1226 C1227 1.391 . S
C1227 H1215 0.950 . S
C1227 C1223 1.393 . S
C1227 C1226 1.391 . S
H1228 C1236 0.950 . S
H1229 C1241 0.950 . S
H1230 C1238 0.950 . S
H1231 C1240 0.950 . S
H1232 C1242 0.950 . S
H1233 C1244 0.950 . S
H1234 C1246 0.950 . S
H1235 C1247 0.950 . S
C1236 H1228 0.950 . S
C1236 C1237 1.386 . S
C1236 C1238 1.391 . S
C1237 C1236 1.386 . S
C1237 C1241 1.393 . S
C1238 H1230 0.950 . S
C1238 C1236 1.391 . S
C1238 C1239 1.400 . S
C1239 C1238 1.400 . S
C1239 C1240 1.398 . S
C1239 C1245 1.491 1_655 S
C1240 H1231 0.950 . S
C1240 C1239 1.398 . S
C1240 C1241 1.391 . S
C1241 H1229 0.950 . S
C1241 C1237 1.393 . S
C1241 C1240 1.391 . S
C1242 H1232 0.950 . S
C1242 C1243 1.386 . S
C1242 C1244 1.391 . S
C1243 C1242 1.386 . S
C1243 C1247 1.393 . S
C1244 H1233 0.950 . S
C1244 C1242 1.391 . S
C1244 C1245 1.400 . S
C1245 C1239 1.491 1_455 S
C1245 C1244 1.400 . S
C1245 C1246 1.398 . S
C1246 H1234 0.950 . S
C1246 C1245 1.398 . S
C1246 C1247 1.391 . S
C1247 H1235 0.950 . S
C1247 C1243 1.393 . S
C1247 C1246 1.391 . S
H1248 C1256 0.950 . S
H1249 C1261 0.950 . S
H1250 C1258 0.950 . S
H1251 C1260 0.950 . S
H1252 C1262 0.950 . S
H1253 C1264 0.950 . S
H1254 C1266 0.950 . S
H1255 C1267 0.950 . S
C1256 H1248 0.950 . S
C1256 C1257 1.386 . S
C1256 C1258 1.391 . S
C1257 C1256 1.386 . S
C1257 C1261 1.393 1_655 S
C1258 H1250 0.950 . S
C1258 C1256 1.391 . S
C1258 C1259 1.400 . S
C1259 C1258 1.400 . S
C1259 C1260 1.398 1_655 S
C1259 C1265 1.491 1_655 S
C1260 H1251 0.950 . S
C1260 C1259 1.398 1_455 S
C1260 C1261 1.391 . S
C1261 H1249 0.950 . S
C1261 C1257 1.393 1_455 S
C1261 C1260 1.391 . S
C1262 H1252 0.950 . S
C1262 C1263 1.386 . S
C1262 C1264 1.391 . S
C1263 C1262 1.386 . S
C1263 C1267 1.393 1_455 S
C1264 H1253 0.950 . S
C1264 C1262 1.391 . S
C1264 C1265 1.400 . S
C1265 C1259 1.491 1_455 S
C1265 C1264 1.400 . S
C1265 C1266 1.398 1_455 S
C1266 H1254 0.950 . S
C1266 C1265 1.398 1_655 S
C1266 C1267 1.391 . S
C1267 H1255 0.950 . S
C1267 C1263 1.393 1_655 S
C1267 C1266 1.391 . S
H1268 C1276 0.950 1_565 S
H1269 C1281 0.950 . S
H1270 C1278 0.950 . S
H1271 C1280 0.950 . S
H1272 C1282 0.950 1_545 S
H1273 C1284 0.950 . S
H1274 C1286 0.950 . S
H1275 C1287 0.950 . S
C1276 H1268 0.950 1_545 S
C1276 C1277 1.386 . S
C1276 C1278 1.391 1_545 S
C1277 C1276 1.386 . S
C1277 C1281 1.393 . S
C1278 H1270 0.950 . S
C1278 C1276 1.391 1_565 S
C1278 C1279 1.400 1_565 S
C1279 C1278 1.400 1_545 S
C1279 C1280 1.398 . S
C1279 C1285 1.491 1_545 S
C1280 H1271 0.950 . S
C1280 C1279 1.398 . S
C1280 C1281 1.391 . S
C1281 H1269 0.950 . S
C1281 C1277 1.393 . S
C1281 C1280 1.391 . S
C1282 H1272 0.950 1_565 S
C1282 C1283 1.386 . S
C1282 C1284 1.391 1_565 S
C1283 C1282 1.386 . S
C1283 C1287 1.393 . S
C1284 H1273 0.950 . S
C1284 C1282 1.391 1_545 S
C1284 C1285 1.400 1_545 S
C1285 C1279 1.491 1_565 S
C1285 C1284 1.400 1_565 S
C1285 C1286 1.398 . S
C1286 H1274 0.950 . S
C1286 C1285 1.398 . S
C1286 C1287 1.391 . S
C1287 H1275 0.950 . S
C1287 C1283 1.393 . S
C1287 C1286 1.391 . S
H1288 C1296 0.950 . S
H1289 C1301 0.950 . S
H1290 C1298 0.950 . S
H1291 C1300 0.950 . S
H1292 C1302 0.950 . S
H1293 C1304 0.950 . S
H1294 C1306 0.950 . S
H1295 C1307 0.950 . S
C1296 H1288 0.950 . S
C1296 C1297 1.386 . S
C1296 C1298 1.391 . S
C1297 C1296 1.386 . S
C1297 C1301 1.393 . S
C1298 H1290 0.950 . S
C1298 C1296 1.391 . S
C1298 C1299 1.400 . S
C1299 C1298 1.400 . S
C1299 C1300 1.398 . S
C1299 C1305 1.491 1_565 S
C1300 H1291 0.950 . S
C1300 C1299 1.398 . S
C1300 C1301 1.391 . S
C1301 H1289 0.950 . S
C1301 C1297 1.393 . S
C1301 C1300 1.391 . S
C1302 H1292 0.950 . S
C1302 C1303 1.386 . S
C1302 C1304 1.391 . S
C1303 C1302 1.386 . S
C1303 C1307 1.393 . S
C1304 H1293 0.950 . S
C1304 C1302 1.391 . S
C1304 C1305 1.400 . S
C1305 C1299 1.491 1_545 S
C1305 C1304 1.400 . S
C1305 C1306 1.398 . S
C1306 H1294 0.950 . S
C1306 C1305 1.398 . S
C1306 C1307 1.391 . S
C1307 H1295 0.950 . S
C1307 C1303 1.393 . S
C1307 C1306 1.391 . S
H1308 C1316 0.950 . S
H1309 C1321 0.950 . S
H1310 C1318 0.950 . S
H1311 C1320 0.950 . S
H1312 C1322 0.950 . S
H1313 C1324 0.950 . S
H1314 C1326 0.950 . S
H1315 C1327 0.950 . S
C1316 H1308 0.950 . S
C1316 C1317 1.386 . S
C1316 C1318 1.391 . S
C1317 C1316 1.386 . S
C1317 C1321 1.393 . S
C1318 H1310 0.950 . S
C1318 C1316 1.391 . S
C1318 C1319 1.400 . S
C1319 C1318 1.400 . S
C1319 C1320 1.398 . S
C1319 C1325 1.491 1_655 S
C1320 H1311 0.950 . S
C1320 C1319 1.398 . S
C1320 C1321 1.391 . S
C1321 H1309 0.950 . S
C1321 C1317 1.393 . S
C1321 C1320 1.391 . S
C1322 H1312 0.950 . S
C1322 C1323 1.386 . S
C1322 C1324 1.391 . S
C1323 C1322 1.386 . S
C1323 C1327 1.393 . S
C1324 H1313 0.950 . S
C1324 C1322 1.391 . S
C1324 C1325 1.400 . S
C1325 C1319 1.491 1_455 S
C1325 C1324 1.400 . S
C1325 C1326 1.398 . S
C1326 H1314 0.950 . S
C1326 C1325 1.398 . S
C1326 C1327 1.391 . S
C1327 H1315 0.950 . S
C1327 C1323 1.393 . S
C1327 C1326 1.391 . S
C537 C358 1.342 . S
C543 C28 1.336 . S
C557 C391 1.338 . S
C563 C61 1.340 . S
C577 C292 1.341 . S
C583 C94 1.337 . S
C597 C325 1.347 . S
C603 C127 1.330 . S
C617 C160 1.346 . S
C623 C490 1.332 . S
C637 C193 1.339 . S
C643 C523 1.338 . S
C657 C424 1.335 . S
C663 C226 1.343 . S
C677 C457 1.347 . S
C683 C259 1.330 . S
C697 C116 1.546 . S
C703 N5 1.508 . S
C717 N38 1.490 . S
C723 C17 1.534 . S
C737 C50 1.531 . S
C743 N71 1.482 . S
C757 N104 1.501 . S
C763 C83 1.544 . S
C777 C182 1.530 . S
C783 N137 1.481 . S
C797 C215 1.548 . S
C803 N170 1.507 . S
C817 C248 1.534 . S
C823 N203 1.487 . S
C837 N236 1.495 . S
C843 C149 1.540 . S
C857 N269 1.509 . S
C863 C380 1.547 . S
C877 N302 1.482 . S
C883 C281 1.530 . S
C897 C314 1.530 . S
C903 N335 1.481 . S
C917 N368 1.481 . S
C923 C347 1.530 . S
C937 N401 1.481 . S
C943 C446 1.529 . S
C957 N434 1.509 . S
C963 C479 1.548 . S
C977 N467 1.482 . S
C983 C512 1.530 . S
C997 C413 1.536 . S
C1003 N500 1.493 . S
C1017 C239 0.857 . S
C1023 C8 0.858 . S
C1037 C41 0.878 . S
C1043 C140 0.882 . S
C1057 C173 0.883 . S
C1063 C74 0.882 . S
C1077 C206 0.874 . S
C1083 C107 0.880 . S
C1097 C272 0.877 . S
C1103 C503 0.882 . S
C1117 C404 0.873 . S
C1123 C305 0.866 . S
C1137 C338 0.861 . S
C1143 C437 0.867 . S
C1157 C470 0.879 . S
C1163 C371 0.883 . S
C1177 N80 1.629 . S
C1183 N14 1.621 . S
C1197 N113 1.619 . S
C1203 N47 1.633 . S
C1217 N146 1.633 . S
C1223 N212 1.627 . S
C1237 N179 1.620 . S
C1243 N245 1.630 . S
C1257 N278 1.635 . S
C1263 N344 1.619 . S
C1277 N377 1.620 . S
C1283 N311 1.631 . S
C1297 N410 1.625 . S
C1303 N476 1.634 . S
C1317 N509 1.628 . S
C1323 N443 1.633 . S
