# Generated by pormake.
# Topology ict, (4)-cn, num edge types: 1
# Building blocks:
#     Node 0, Type 0, BuildingBlock: KUFVIS_clean_sbu_0, # of connection points: 4
#     Node 1, Type 0, BuildingBlock: KUFVIS_clean_sbu_0, # of connection points: 4
#     Node 2, Type 0, BuildingBlock: KUFVIS_clean_sbu_0, # of connection points: 4
#     Node 3, Type 0, BuildingBlock: KUFVIS_clean_sbu_0, # of connection points: 4
#     Node 4, Type 0, BuildingBlock: KUFVIS_clean_sbu_0, # of connection points: 4
#     Node 5, Type 0, BuildingBlock: KUFVIS_clean_sbu_0, # of connection points: 4
#     Node 6, Type 0, BuildingBlock: KUFVIS_clean_sbu_0, # of connection points: 4
#     Node 7, Type 0, BuildingBlock: KUFVIS_clean_sbu_0, # of connection points: 4
#     Node 8, Type 0, BuildingBlock: KUFVIS_clean_sbu_0, # of connection points: 4
#     Node 9, Type 0, BuildingBlock: KUFVIS_clean_sbu_0, # of connection points: 4
#     Node 10, Type 0, BuildingBlock: KUFVIS_clean_sbu_0, # of connection points: 4
#     Node 11, Type 0, BuildingBlock: KUFVIS_clean_sbu_0, # of connection points: 4
#     Node 12, Type 0, BuildingBlock: KUFVIS_clean_sbu_0, # of connection points: 4
#     Node 13, Type 0, BuildingBlock: KUFVIS_clean_sbu_0, # of connection points: 4
#     Node 14, Type 0, BuildingBlock: KUFVIS_clean_sbu_0, # of connection points: 4
#     Node 15, Type 0, BuildingBlock: KUFVIS_clean_sbu_0, # of connection points: 4
#     Node 16, Type 0, BuildingBlock: KUFVIS_clean_sbu_0, # of connection points: 4
#     Node 17, Type 0, BuildingBlock: KUFVIS_clean_sbu_0, # of connection points: 4
#     Node 18, Type 0, BuildingBlock: KUFVIS_clean_sbu_0, # of connection points: 4
#     Node 19, Type 0, BuildingBlock: KUFVIS_clean_sbu_0, # of connection points: 4
#     Node 20, Type 0, BuildingBlock: KUFVIS_clean_sbu_0, # of connection points: 4
#     Node 21, Type 0, BuildingBlock: KUFVIS_clean_sbu_0, # of connection points: 4
#     Node 22, Type 0, BuildingBlock: KUFVIS_clean_sbu_0, # of connection points: 4
#     Node 23, Type 0, BuildingBlock: KUFVIS_clean_sbu_0, # of connection points: 4
#     Node 24, Type 0, BuildingBlock: KUFVIS_clean_sbu_0, # of connection points: 4
#     Node 25, Type 0, BuildingBlock: KUFVIS_clean_sbu_0, # of connection points: 4
#     Node 26, Type 0, BuildingBlock: KUFVIS_clean_sbu_0, # of connection points: 4
#     Node 27, Type 0, BuildingBlock: KUFVIS_clean_sbu_0, # of connection points: 4
#     Node 28, Type 0, BuildingBlock: KUFVIS_clean_sbu_0, # of connection points: 4
#     Node 29, Type 0, BuildingBlock: KUFVIS_clean_sbu_0, # of connection points: 4
#     Node 30, Type 0, BuildingBlock: KUFVIS_clean_sbu_0, # of connection points: 4
#     Node 31, Type 0, BuildingBlock: KUFVIS_clean_sbu_0, # of connection points: 4
#     Node 32, Type 0, BuildingBlock: KUFVIS_clean_sbu_0, # of connection points: 4
#     Node 33, Type 0, BuildingBlock: KUFVIS_clean_sbu_0, # of connection points: 4
#     Node 34, Type 0, BuildingBlock: KUFVIS_clean_sbu_0, # of connection points: 4
#     Node 35, Type 0, BuildingBlock: KUFVIS_clean_sbu_0, # of connection points: 4
#     Edge 36, Type (0, 0), None
#     Edge 37, Type (0, 0), None
#     Edge 38, Type (0, 0), None
#     Edge 39, Type (0, 0), None
#     Edge 40, Type (0, 0), None
#     Edge 41, Type (0, 0), None
#     Edge 42, Type (0, 0), None
#     Edge 43, Type (0, 0), None
#     Edge 44, Type (0, 0), None
#     Edge 45, Type (0, 0), None
#     Edge 46, Type (0, 0), None
#     Edge 47, Type (0, 0), None
#     Edge 48, Type (0, 0), None
#     Edge 49, Type (0, 0), None
#     Edge 50, Type (0, 0), None
#     Edge 51, Type (0, 0), None
#     Edge 52, Type (0, 0), None
#     Edge 53, Type (0, 0), None
#     Edge 54, Type (0, 0), None
#     Edge 55, Type (0, 0), None
#     Edge 56, Type (0, 0), None
#     Edge 57, Type (0, 0), None
#     Edge 58, Type (0, 0), None
#     Edge 59, Type (0, 0), None
#     Edge 60, Type (0, 0), None
#     Edge 61, Type (0, 0), None
#     Edge 62, Type (0, 0), None
#     Edge 63, Type (0, 0), None
#     Edge 64, Type (0, 0), None
#     Edge 65, Type (0, 0), None
#     Edge 66, Type (0, 0), None
#     Edge 67, Type (0, 0), None
#     Edge 68, Type (0, 0), None
#     Edge 69, Type (0, 0), None
#     Edge 70, Type (0, 0), None
#     Edge 71, Type (0, 0), None
#     Edge 72, Type (0, 0), None
#     Edge 73, Type (0, 0), None
#     Edge 74, Type (0, 0), None
#     Edge 75, Type (0, 0), None
#     Edge 76, Type (0, 0), None
#     Edge 77, Type (0, 0), None
#     Edge 78, Type (0, 0), None
#     Edge 79, Type (0, 0), None
#     Edge 80, Type (0, 0), None
#     Edge 81, Type (0, 0), None
#     Edge 82, Type (0, 0), None
#     Edge 83, Type (0, 0), None
#     Edge 84, Type (0, 0), None
#     Edge 85, Type (0, 0), None
#     Edge 86, Type (0, 0), None
#     Edge 87, Type (0, 0), None
#     Edge 88, Type (0, 0), None
#     Edge 89, Type (0, 0), None
#     Edge 90, Type (0, 0), None
#     Edge 91, Type (0, 0), None
#     Edge 92, Type (0, 0), None
#     Edge 93, Type (0, 0), None
#     Edge 94, Type (0, 0), None
#     Edge 95, Type (0, 0), None
#     Edge 96, Type (0, 0), None
#     Edge 97, Type (0, 0), None
#     Edge 98, Type (0, 0), None
#     Edge 99, Type (0, 0), None
#     Edge 100, Type (0, 0), None
#     Edge 101, Type (0, 0), None
#     Edge 102, Type (0, 0), None
#     Edge 103, Type (0, 0), None
#     Edge 104, Type (0, 0), None
#     Edge 105, Type (0, 0), None
#     Edge 106, Type (0, 0), None
#     Edge 107, Type (0, 0), None
# Relax obj value: 0.084
# Max RMSD: 0.114
# Mean RMSD: 0.114
data_MOF--net-ict--node1-KUFVIS_clean_sbu_0--edge1-none
_symmetry_space_group_name_H-M    P1
_symmetry_Int_Tables_number       1
_symmetry_cell_setting            triclinic
loop_
_symmetry_equiv_pos_as_xyz
'x, y, z'
_cell_length_a     30.338501
_cell_length_b     30.337249
_cell_length_c     17.54514
_cell_angle_alpha  89.998695
_cell_angle_beta   90.000029
_cell_angle_gamma 119.99892
loop_
_atom_site_label
_atom_site_type_symbol
_atom_site_fract_x
_atom_site_fract_y
_atom_site_fract_z
_atom_type_partial_charge
Mn0 Mn 0.19931 0.19003 0.0664 0.0
Mn1 Mn 0.16899 0.15262 0.89061 0.0
C2 C 0.13771 0.20928 -0.00287 0.0
C3 C 0.18828 0.19103 0.20536 0.0
C4 C 0.2741 0.22944 0.92894 0.0
O5 O 0.20973 0.12251 0.05596 0.0
O6 O 0.17274 0.09501 0.94154 0.0
C7 C 0.06761 0.07405 0.92079 0.0
N8 N 0.10083 0.11289 0.87716 0.0
C9 C 0.03863 0.10626 0.79057 0.0
C10 C 0.00451 0.06018 0.82759 0.0
C11 C 0.01745 0.0494 0.89869 0.0
C12 C 0.08639 0.13284 0.82139 0.0
H13 H 0.07967 0.06429 0.97278 0.0
C14 C 0.19201 0.08758 0.00178 0.0
O15 O 0.23104 0.21872 0.17199 0.0
O16 O 0.15353 0.15934 0.15955 0.0
N17 N 0.16451 0.20473 0.83672 0.0
C18 C 0.19638 0.25605 0.83138 0.0
C19 C 0.18186 0.28473 0.78554 0.0
C20 C 0.13693 0.26066 0.74384 0.0
C21 C 0.10588 0.20832 0.75088 0.0
C22 C 0.11982 0.18211 0.80085 0.0
H23 H 0.23151 0.27508 0.86286 0.0
O24 O 0.16792 0.23753 0.0508 0.0
O25 O 0.14778 0.17261 0.98454 0.0
O26 O 0.26319 0.23628 0.9968 0.0
O27 O 0.24213 0.19365 0.88926 0.0
C28 C 0.06099 0.18098 0.71124 0.0
C29 C 0.02834 0.12946 0.72879 0.0
H30 H 0.96716 0.03393 0.8079 0.0
H31 H -0.01053 0.02386 0.93725 0.0
H32 H 0.20427 0.32503 0.78068 0.0
H33 H 0.12647 0.28277 0.70723 0.0
H34 H 0.05139 0.20019 0.66852 0.0
H35 H -0.00491 0.11067 0.69625 0.0
Mn36 Mn 0.75542 -0.00162 0.06641 0.0
Mn37 Mn 0.79283 0.00548 0.89061 0.0
C38 C 0.73617 0.91753 -0.00286 0.0
C39 C 0.75441 -0.01365 0.20537 0.0
C40 C 0.716 0.03376 0.92895 0.0
O41 O 0.82294 0.07632 0.05597 0.0
O42 O 0.85043 0.06684 0.94153 0.0
C43 C 0.8714 -0.01734 0.92078 0.0
N44 N 0.83256 0.97705 0.87716 0.0
C45 C 0.83919 0.92147 0.79057 0.0
C46 C 0.88527 0.93343 0.82759 0.0
C47 C 0.89605 0.95716 0.89868 0.0
C48 C 0.81261 0.94266 0.8214 0.0
H49 H 0.88116 0.00449 0.97278 0.0
C50 C 0.85787 0.09354 0.00178 0.0
O51 O 0.72673 0.00142 0.172 0.0
O52 O 0.78611 -0.01671 0.15956 0.0
N53 N 0.74072 0.94889 0.83673 0.0
C54 C 0.6894 0.92943 0.83139 0.0
C55 C 0.66072 0.88624 0.78555 0.0
C56 C 0.68479 0.86537 0.74385 0.0
C57 C 0.73714 0.88667 0.75089 0.0
C58 C 0.76334 0.92681 0.80086 0.0
H59 H 0.67038 0.94554 0.86286 0.0
O60 O 0.70792 0.91949 0.05081 0.0
O61 O 0.77284 0.96428 0.98455 0.0
O62 O 0.70917 0.01602 0.99681 0.0
O63 O 0.7518 0.03759 0.88926 0.0
C64 C 0.76447 0.86911 0.71126 0.0
C65 C 0.81599 0.88798 0.7288 0.0
H66 H 0.91152 0.92233 0.8079 0.0
H67 H 0.92159 0.95471 0.93724 0.0
H68 H 0.62042 0.86835 0.78069 0.0
H69 H 0.66269 0.83281 0.70725 0.0
H70 H 0.74526 0.8403 0.66853 0.0
H71 H 0.83477 0.87351 0.69626 0.0
Mn72 Mn 0.94706 0.74613 0.06641 0.0
Mn73 Mn 0.93996 0.77645 0.89061 0.0
C74 C 0.02791 0.80773 -0.00286 0.0
C75 C 0.95909 0.75716 0.20537 0.0
C76 C 0.91168 0.67134 0.92894 0.0
O77 O 0.86912 0.73571 0.05597 0.0
O78 O 0.87861 0.7727 0.94154 0.0
C79 C 0.96278 0.87784 0.9208 0.0
N80 N -0.03161 0.84461 0.87717 0.0
C81 C 0.02397 0.90683 0.79058 0.0
C82 C 0.01202 0.94095 0.82761 0.0
C83 C -0.01171 0.928 0.8987 0.0
C84 C 0.00278 0.85906 0.8214 0.0
H85 H 0.94096 0.86577 0.97279 0.0
C86 C 0.85191 0.75343 0.00179 0.0
O87 O 0.94402 0.7144 0.172 0.0
O88 O 0.96215 0.79191 0.15956 0.0
N89 N -0.00344 0.78094 0.83672 0.0
C90 C 0.01601 0.74906 0.83137 0.0
C91 C 0.05919 0.76357 0.78552 0.0
C92 C 0.08006 0.80852 0.74384 0.0
C93 C 0.05877 0.83957 0.75089 0.0
C94 C 0.01863 0.82563 0.80086 0.0
H95 H -0.0001 0.71393 0.86284 0.0
O96 O 0.02595 0.77752 0.0508 0.0
O97 O -0.01883 0.79766 0.98455 0.0
O98 O 0.92943 0.68225 0.9968 0.0
O99 O 0.90786 0.70331 0.88926 0.0
C100 C 0.07633 0.88447 0.71126 0.0
C101 C 0.05746 0.91712 0.72881 0.0
H102 H 0.02312 -0.0217 0.80793 0.0
H103 H -0.00926 0.95598 0.93727 0.0
H104 H 0.07708 0.74116 0.78065 0.0
H105 H 0.11262 0.81897 0.70722 0.0
H106 H 0.10514 0.89406 0.66852 0.0
H107 H 0.07194 0.95038 0.69628 0.0
Mn108 Mn 0.17911 0.21023 0.42783 0.0
Mn109 Mn 0.14169 0.17991 0.60362 0.0
C110 C 0.19836 0.14863 0.4971 0.0
C111 C 0.18012 0.1992 0.28888 0.0
C112 C 0.21852 0.28502 0.56531 0.0
O113 O 0.11159 0.22066 0.43827 0.0
O114 O 0.08409 0.18365 0.55269 0.0
C115 C 0.06313 0.07852 0.57344 0.0
N116 N 0.10196 0.11174 0.61706 0.0
C117 C 0.09533 0.04953 0.70365 0.0
C118 C 0.04926 0.01542 0.66663 0.0
C119 C 0.03847 0.02836 0.59553 0.0
C120 C 0.12191 0.0973 0.67283 0.0
H121 H 0.05337 0.09058 0.52144 0.0
C122 C 0.07666 0.20293 0.49245 0.0
O123 O 0.20779 0.24197 0.32224 0.0
O124 O 0.14841 0.16446 0.33468 0.0
N125 N 0.1938 0.17542 0.65751 0.0
C126 C 0.24512 0.2073 0.66287 0.0
C127 C 0.27379 0.19279 0.70872 0.0
C128 C 0.24972 0.14784 0.7504 0.0
C129 C 0.19738 0.11678 0.74335 0.0
C130 C 0.17118 0.13073 0.69337 0.0
H131 H 0.26414 0.24243 0.6314 0.0
O132 O 0.22661 0.17884 0.44343 0.0
O133 O 0.16169 0.1587 0.50969 0.0
O134 O 0.22536 0.27411 0.49744 0.0
O135 O 0.18272 0.25305 0.60498 0.0
C136 C 0.17005 0.07189 0.78298 0.0
C137 C 0.11853 0.03924 0.76543 0.0
H138 H 0.023 0.97806 0.68632 0.0
H139 H 0.01293 0.00038 0.55697 0.0
H140 H 0.31409 0.2152 0.71359 0.0
H141 H 0.27183 0.13739 0.78702 0.0
H142 H 0.18925 0.06229 0.82571 0.0
H143 H 0.09974 0.00599 0.79797 0.0
Mn144 Mn 0.73522 0.95798 0.42784 0.0
Mn145 Mn 0.76554 0.95088 0.60363 0.0
C146 C 0.79682 0.03883 0.49711 0.0
C147 C 0.74625 0.97002 0.28889 0.0
C148 C 0.66043 0.9226 0.56531 0.0
O149 O 0.72479 0.88004 0.43829 0.0
O150 O 0.76179 0.88953 0.5527 0.0
C151 C 0.86692 0.97371 0.57343 0.0
N152 N 0.8337 -0.02069 0.61707 0.0
C153 C 0.89591 0.0349 0.70363 0.0
C154 C 0.93003 0.02295 0.6666 0.0
C155 C 0.91708 -0.00078 0.59551 0.0
C156 C 0.84814 0.01371 0.67283 0.0
H157 H 0.85486 0.95188 0.52144 0.0
C158 C 0.74251 0.86282 0.49246 0.0
O159 O 0.70348 0.95493 0.32225 0.0
O160 O 0.78099 0.97306 0.33469 0.0
N161 N 0.77002 0.00747 0.65752 0.0
C162 C 0.73815 0.02692 0.66289 0.0
C163 C 0.75266 0.0701 0.70874 0.0
C164 C 0.7976 0.09098 0.75041 0.0
C165 C 0.82866 0.0697 0.74335 0.0
C166 C 0.81472 0.02955 0.69338 0.0
H167 H 0.70301 0.0108 0.63144 0.0
O168 O 0.76661 0.03687 0.44344 0.0
O169 O 0.78674 -0.00791 0.5097 0.0
O170 O 0.67134 0.94036 0.49745 0.0
O171 O 0.6924 0.91877 0.60499 0.0
C172 C 0.87356 0.08726 0.78297 0.0
C173 C 0.90621 0.06839 0.76541 0.0
H174 H -0.03261 0.03405 0.68628 0.0
H175 H 0.94506 0.00166 0.55695 0.0
H176 H 0.73024 0.08798 0.71363 0.0
H177 H 0.80806 0.12354 0.78703 0.0
H178 H 0.88316 0.11607 0.8257 0.0
H179 H 0.93948 0.08288 0.79792 0.0
Mn180 Mn -0.01254 0.76633 0.42784 0.0
Mn181 Mn -0.00544 0.80376 0.60363 0.0
C182 C 0.90661 0.74709 0.49711 0.0
C183 C -0.02458 0.76532 0.28888 0.0
C184 C 0.02284 0.72692 0.56531 0.0
O185 O 0.0654 0.83385 0.43828 0.0
O186 O 0.05591 0.86136 0.5527 0.0
C187 C -0.02826 0.88232 0.57344 0.0
N188 N 0.96613 0.84349 0.61707 0.0
C189 C 0.91055 0.85012 0.70365 0.0
C190 C 0.9225 0.89619 0.66661 0.0
C191 C 0.94622 0.90697 0.59552 0.0
C192 C 0.93174 0.82354 0.67284 0.0
H193 H -0.00644 0.89208 0.52144 0.0
C194 C 0.08262 0.86879 0.49246 0.0
O195 O -0.00949 0.73764 0.32225 0.0
O196 O -0.02762 0.79703 0.33469 0.0
N197 N 0.93797 0.75165 0.65752 0.0
C198 C 0.91852 0.70032 0.66288 0.0
C199 C 0.87533 0.67165 0.70872 0.0
C200 C 0.85446 0.69572 0.75041 0.0
C201 C 0.87575 0.74806 0.74335 0.0
C202 C 0.91589 0.77426 0.69339 0.0
H203 H 0.93463 0.6813 0.63141 0.0
O204 O 0.90858 0.71884 0.44344 0.0
O205 O 0.95336 0.78376 0.5097 0.0
O206 O 0.00509 0.72008 0.49744 0.0
O207 O 0.02667 0.76272 0.60499 0.0
C208 C 0.85819 0.7754 0.78298 0.0
C209 C 0.87706 0.82692 0.76542 0.0
H210 H 0.9114 0.92244 0.68629 0.0
H211 H 0.94378 0.9325 0.55695 0.0
H212 H 0.85745 0.63135 0.71359 0.0
H213 H 0.8219 0.67362 0.78702 0.0
H214 H 0.82938 0.75619 0.82571 0.0
H215 H 0.86257 0.8457 0.79794 0.0
Mn216 Mn 0.73521 0.76631 0.92785 0.0
Mn217 Mn 0.76554 0.80376 0.10362 0.0
C218 C 0.79683 0.74712 0.99701 0.0
C219 C 0.74622 0.7653 0.78888 0.0
C220 C 0.66043 0.72692 0.06531 0.0
O221 O 0.72477 0.83382 0.93828 0.0
O222 O 0.76179 0.86137 0.05269 0.0
C223 C 0.86692 0.88232 0.07343 0.0
N224 N 0.8337 0.84349 0.11707 0.0
C225 C 0.8959 0.85011 0.20365 0.0
C226 C 0.93003 0.89619 0.16662 0.0
C227 C 0.91709 0.90697 0.09552 0.0
C228 C 0.84814 0.82354 0.17283 0.0
H229 H 0.85486 0.89208 0.02143 0.0
C230 C 0.74249 0.86877 0.99244 0.0
O231 O 0.70346 0.73761 0.82227 0.0
O232 O 0.78097 0.797 0.83468 0.0
N233 N 0.77002 0.75165 0.1575 0.0
C234 C 0.73815 0.70032 0.16285 0.0
C235 C 0.75266 0.67165 0.20871 0.0
C236 C 0.7976 0.69572 0.2504 0.0
C237 C 0.82865 0.74806 0.24335 0.0
C238 C 0.81471 0.77426 0.19337 0.0
H239 H 0.70302 0.6813 0.13139 0.0
O240 O 0.7666 0.7188 0.94342 0.0
O241 O 0.78676 0.78378 0.00968 0.0
O242 O 0.67134 0.72006 -0.00254 0.0
O243 O 0.6924 0.76273 0.10497 0.0
C244 C 0.87355 0.7754 0.28298 0.0
C245 C 0.90619 0.82692 0.26543 0.0
H246 H -0.03262 0.92244 0.18631 0.0
H247 H 0.94507 0.9325 0.05695 0.0
H248 H 0.73024 0.63135 0.21359 0.0
H249 H 0.80805 0.67362 0.28702 0.0
H250 H 0.88314 0.75619 0.32572 0.0
H251 H 0.93945 0.84571 0.29796 0.0
Mn252 Mn 0.17913 0.958 0.92784 0.0
Mn253 Mn 0.14168 0.95087 0.10362 0.0
C254 C 0.19832 0.0388 0.99701 0.0
C255 C 0.18014 0.97001 0.78888 0.0
C256 C 0.21853 0.92261 0.06531 0.0
O257 O 0.11162 0.88005 0.93827 0.0
O258 O 0.08408 0.88951 0.05269 0.0
C259 C 0.06312 0.97369 0.07344 0.0
N260 N 0.10195 -0.0207 0.11707 0.0
C261 C 0.09532 0.03489 0.20364 0.0
C262 C 0.04925 0.02293 0.16662 0.0
C263 C 0.03847 -0.00079 0.09552 0.0
C264 C 0.1219 0.01369 0.17282 0.0
H265 H 0.05336 0.95187 0.02144 0.0
C266 C 0.07668 0.86282 0.99244 0.0
O267 O 0.20783 0.95494 0.82226 0.0
O268 O 0.14844 0.97306 0.83467 0.0
N269 N 0.19379 0.00747 0.15749 0.0
C270 C 0.24511 0.02692 0.16285 0.0
C271 C 0.27378 0.0701 0.2087 0.0
C272 C 0.24971 0.09097 0.25039 0.0
C273 C 0.19737 0.06968 0.24334 0.0
C274 C 0.17117 0.02954 0.19336 0.0
H275 H 0.26414 0.01081 0.13138 0.0
O276 O 0.22664 0.03689 0.94342 0.0
O277 O 0.16165 -0.00793 0.00968 0.0
O278 O 0.22538 0.94038 -0.00255 0.0
O279 O 0.18271 0.91876 0.10496 0.0
C280 C 0.17003 0.08724 0.28297 0.0
C281 C 0.11852 0.06837 0.26542 0.0
H282 H 0.02299 0.03403 0.1863 0.0
H283 H 0.01294 0.00166 0.05695 0.0
H284 H 0.31408 0.08798 0.21358 0.0
H285 H 0.27181 0.12353 0.28701 0.0
H286 H 0.18924 0.11605 0.3257 0.0
H287 H 0.09973 0.08285 0.29795 0.0
Mn288 Mn -0.01255 0.21024 0.92784 0.0
Mn289 Mn -0.00542 0.1799 0.10362 0.0
C290 C 0.90664 0.14862 0.99701 0.0
C291 C -0.02456 0.19923 0.78888 0.0
C292 C 0.02283 0.28501 0.06532 0.0
O293 O 0.06539 0.22067 0.93828 0.0
O294 O 0.05593 0.18366 0.05269 0.0
C295 C -0.02825 0.07852 0.07342 0.0
N296 N 0.96614 0.11174 0.11706 0.0
C297 C 0.91055 0.04953 0.20363 0.0
C298 C 0.92251 0.01541 0.1666 0.0
C299 C 0.94623 0.02835 0.0955 0.0
C300 C 0.93175 0.0973 0.17282 0.0
H301 H -0.00643 0.09058 0.02143 0.0
C302 C 0.08262 0.20296 0.99244 0.0
O303 O -0.0095 0.24199 0.82226 0.0
O304 O -0.02762 0.16448 0.83468 0.0
N305 N 0.93798 0.17542 0.1575 0.0
C306 C 0.91853 0.2073 0.16286 0.0
C307 C 0.87535 0.19279 0.20873 0.0
C308 C 0.85448 0.14784 0.25041 0.0
C309 C 0.87576 0.11678 0.24334 0.0
C310 C 0.9159 0.13073 0.19336 0.0
H311 H 0.93464 0.24243 0.13141 0.0
O312 O 0.90856 0.17885 0.94342 0.0
O313 O 0.95338 0.15869 0.00968 0.0
O314 O 0.00506 0.2741 -0.00254 0.0
O315 O 0.02669 0.25305 0.10497 0.0
C316 C 0.8582 0.07189 0.28297 0.0
C317 C 0.87707 0.03923 0.26541 0.0
H318 H 0.91141 0.97805 0.18628 0.0
H319 H 0.94378 0.00037 0.05693 0.0
H320 H 0.85748 0.21521 0.21362 0.0
H321 H 0.82193 0.13739 0.28703 0.0
H322 H 0.8294 0.06229 0.32571 0.0
H323 H 0.86259 0.00597 0.29793 0.0
Mn324 Mn 0.75539 0.74612 0.56641 0.0
Mn325 Mn 0.79284 0.77645 0.39063 0.0
C326 C 0.7362 0.80774 0.49724 0.0
C327 C 0.75437 0.75714 0.70537 0.0
C328 C 0.716 0.67134 0.42894 0.0
O329 O 0.82291 0.73569 0.55598 0.0
O330 O 0.85044 0.77269 0.44155 0.0
C331 C 0.8714 0.87783 0.42079 0.0
N332 N 0.83257 0.84461 0.37717 0.0
C333 C 0.8392 0.90681 0.29058 0.0
C334 C 0.88527 0.94093 0.32759 0.0
C335 C 0.89606 0.92799 0.39869 0.0
C336 C 0.81262 0.85905 0.32141 0.0
H337 H 0.88117 0.86577 0.47279 0.0
C338 C 0.85785 0.7534 0.50181 0.0
O339 O 0.72669 0.71438 0.67199 0.0
O340 O 0.78608 0.79189 0.65957 0.0
N341 N 0.74073 0.78093 0.33676 0.0
C342 C 0.6894 0.74907 0.33142 0.0
C343 C 0.66073 0.76358 0.28556 0.0
C344 C 0.6848 0.80851 0.24386 0.0
C345 C 0.73714 0.83957 0.2509 0.0
C346 C 0.76334 0.82562 0.30088 0.0
H347 H 0.67038 0.71394 0.3629 0.0
O348 O 0.70788 0.77751 0.55083 0.0
O349 O 0.77287 0.79767 0.48457 0.0
O350 O 0.70914 0.68225 0.4968 0.0
O351 O 0.75181 0.70331 0.38929 0.0
C352 C 0.76448 0.88446 0.21126 0.0
C353 C 0.816 0.9171 0.2288 0.0
H354 H 0.91153 -0.02172 0.3079 0.0
H355 H 0.92159 0.95598 0.43725 0.0
H356 H 0.62043 0.74117 0.2807 0.0
H357 H 0.6627 0.81897 0.20724 0.0
H358 H 0.74527 0.89406 0.16853 0.0
H359 H 0.83478 0.95035 0.19625 0.0
Mn360 Mn 0.19932 -0.00164 0.5664 0.0
Mn361 Mn 0.169 0.00549 0.39062 0.0
C362 C 0.1377 0.91756 0.49723 0.0
C363 C 0.1883 -0.01367 0.70536 0.0
C364 C 0.2741 0.03375 0.42894 0.0
O365 O 0.20975 0.07631 0.55597 0.0
O366 O 0.17275 0.06685 0.44154 0.0
C367 C 0.06761 -0.01733 0.4208 0.0
N368 N 0.10084 0.97706 0.37717 0.0
C369 C 0.03863 0.92148 0.2906 0.0
C370 C 0.00451 0.93343 0.32762 0.0
C371 C 0.01745 0.95716 0.39871 0.0
C372 C 0.08639 0.94267 0.32141 0.0
H373 H 0.07968 0.0045 0.47279 0.0
C374 C 0.19204 0.09354 0.5018 0.0
O375 O 0.23106 0.00141 0.67198 0.0
O376 O 0.15355 -0.01671 0.65956 0.0
N377 N 0.16451 0.94889 0.33674 0.0
C378 C 0.19638 0.92944 0.33139 0.0
C379 C 0.18187 0.88625 0.28554 0.0
C380 C 0.13693 0.86538 0.24385 0.0
C381 C 0.10587 0.88667 0.2509 0.0
C382 C 0.11982 0.92682 0.30087 0.0
H383 H 0.23151 0.94555 0.36286 0.0
O384 O 0.16793 0.91947 0.55082 0.0
O385 O 0.14777 0.96429 0.48456 0.0
O386 O 0.26319 0.01599 0.49679 0.0
O387 O 0.24214 0.0376 0.38927 0.0
C388 C 0.06098 0.86911 0.21127 0.0
C389 C 0.02833 0.88799 0.22882 0.0
H390 H 0.96716 0.92234 0.30793 0.0
H391 H -0.01053 0.95471 0.43728 0.0
H392 H 0.20428 0.86837 0.28066 0.0
H393 H 0.12648 0.83283 0.20724 0.0
H394 H 0.05138 0.84031 0.16854 0.0
H395 H -0.00493 0.87351 0.1963 0.0
Mn396 Mn 0.94708 0.19005 0.5664 0.0
Mn397 Mn 0.93995 0.1526 0.39062 0.0
C398 C 0.02788 0.20924 0.49722 0.0
C399 C 0.95912 0.19108 0.70536 0.0
C400 C 0.91169 0.22945 0.42894 0.0
O401 O 0.86914 0.12254 0.55598 0.0
O402 O 0.8786 0.095 0.44155 0.0
C403 C 0.96277 0.07404 0.42079 0.0
N404 N -0.03162 0.11287 0.37716 0.0
C405 C 0.02396 0.10624 0.29058 0.0
C406 C 0.01201 0.06017 0.32761 0.0
C407 C -0.01171 0.04939 0.3987 0.0
C408 C 0.00277 0.13282 0.3214 0.0
H409 H 0.94095 0.06428 0.47279 0.0
C410 C 0.8519 0.0876 0.5018 0.0
O411 O 0.94404 0.21876 0.67198 0.0
O412 O 0.96216 0.15937 0.65957 0.0
N413 N -0.00345 0.20472 0.33675 0.0
C414 C 0.01601 0.25604 0.33141 0.0
C415 C 0.0592 0.28472 0.28556 0.0
C416 C 0.08006 0.26064 0.24386 0.0
C417 C 0.05877 0.2083 0.2509 0.0
C418 C 0.01862 0.1821 0.30087 0.0
H419 H -9e-05 0.27507 0.36289 0.0
O420 O 0.02597 0.23757 0.55081 0.0
O421 O -0.01885 0.17258 0.48456 0.0
O422 O 0.92945 0.2363 0.4968 0.0
O423 O 0.90785 0.19364 0.38928 0.0
C424 C 0.07633 0.18096 0.21126 0.0
C425 C 0.05745 0.12944 0.22881 0.0
H426 H 0.02311 0.03391 0.30792 0.0
H427 H -0.00926 0.02386 0.43727 0.0
H428 H 0.07709 0.32502 0.2807 0.0
H429 H 0.11262 0.28275 0.20725 0.0
H430 H 0.10513 0.20017 0.16853 0.0
H431 H 0.07193 0.11066 0.19628 0.0
Mn432 Mn 0.86597 0.52336 0.39973 0.0
Mn433 Mn 0.83566 0.48595 0.22393 0.0
C434 C 0.80437 0.54261 0.33046 0.0
C435 C 0.85495 0.52437 0.53869 0.0
C436 C 0.94077 0.56278 0.26227 0.0
O437 O 0.87639 0.45584 0.38929 0.0
O438 O 0.83941 0.42835 0.27486 0.0
C439 C 0.73428 0.40738 0.2541 0.0
N440 N 0.7675 0.44622 0.21048 0.0
C441 C 0.7053 0.43959 0.12388 0.0
C442 C 0.67118 0.39352 0.16091 0.0
C443 C 0.68412 0.38273 0.232 0.0
C444 C 0.75306 0.46617 0.15471 0.0
H445 H 0.74634 0.39762 0.3061 0.0
C446 C 0.85868 0.42091 0.33511 0.0
O447 O 0.89771 0.55205 0.50532 0.0
O448 O 0.8202 0.49267 0.49288 0.0
N449 N 0.83118 0.53806 0.17005 0.0
C450 C 0.86304 0.58939 0.16471 0.0
C451 C 0.84853 0.61807 0.11887 0.0
C452 C 0.80359 0.594 0.07717 0.0
C453 C 0.77254 0.54165 0.08421 0.0
C454 C 0.78649 0.51545 0.13417 0.0
H455 H 0.89817 0.60841 0.19619 0.0
O456 O 0.83458 0.57086 0.38412 0.0
O457 O 0.81445 0.50594 0.31787 0.0
O458 O 0.92986 0.56961 0.33013 0.0
O459 O 0.9088 0.52699 0.22258 0.0
C460 C 0.72765 0.51432 0.04457 0.0
C461 C 0.69501 0.46279 0.06211 0.0
H462 H 0.63383 0.36726 0.14121 0.0
H463 H 0.65614 0.35719 0.27056 0.0
H464 H 0.87093 0.65837 0.11402 0.0
H465 H 0.79314 0.6161 0.04056 0.0
H466 H 0.71806 0.53353 0.00184 0.0
H467 H 0.66176 0.44401 0.02957 0.0
Mn468 Mn 0.42208 0.33172 0.39974 0.0
Mn469 Mn 0.4595 0.33881 0.22394 0.0
C470 C 0.40284 0.25086 0.33047 0.0
C471 C 0.42108 0.31968 0.5387 0.0
C472 C 0.38267 0.36709 0.26227 0.0
O473 O 0.4896 0.40966 0.38929 0.0
O474 O 0.5171 0.40017 0.27486 0.0
C475 C 0.53806 0.316 0.2541 0.0
N476 N 0.49922 0.31038 0.21048 0.0
C477 C 0.50585 0.25481 0.12388 0.0
C478 C 0.55193 0.26677 0.1609 0.0
C479 C 0.56272 0.29049 0.23199 0.0
C480 C 0.47928 0.276 0.15472 0.0
H481 H 0.54783 0.33782 0.30609 0.0
C482 C 0.52453 0.42687 0.33511 0.0
O483 O 0.3934 0.33476 0.50532 0.0
O484 O 0.45277 0.31663 0.49289 0.0
N485 N 0.40738 0.28222 0.17006 0.0
C486 C 0.35606 0.26276 0.16473 0.0
C487 C 0.32738 0.21957 0.11889 0.0
C488 C 0.35145 0.1987 0.07718 0.0
C489 C 0.4038 0.22 0.08422 0.0
C490 C 0.43 0.26015 0.13418 0.0
H491 H 0.33704 0.27886 0.1962 0.0
O492 O 0.37459 0.25282 0.38414 0.0
O493 O 0.43951 0.29761 0.31788 0.0
O494 O 0.37583 0.34934 0.33014 0.0
O495 O 0.41846 0.37092 0.22259 0.0
C496 C 0.43113 0.20244 0.04458 0.0
C497 C 0.48265 0.22132 0.06211 0.0
H498 H 0.57819 0.25567 0.14121 0.0
H499 H 0.58826 0.28805 0.27055 0.0
H500 H 0.28708 0.20167 0.11403 0.0
H501 H 0.32935 0.16614 0.04058 0.0
H502 H 0.41192 0.17364 0.00185 0.0
H503 H 0.50144 0.20685 0.02957 0.0
Mn504 Mn 0.61373 0.07946 0.39974 0.0
Mn505 Mn 0.60663 0.10978 0.22394 0.0
C506 C 0.69458 0.14107 0.33046 0.0
C507 C 0.62576 0.09049 0.5387 0.0
C508 C 0.57836 0.00467 0.26227 0.0
O509 O 0.53579 0.06905 0.3893 0.0
O510 O 0.54528 0.10603 0.27486 0.0
C511 C 0.62945 0.21117 0.2541 0.0
N512 N 0.63506 0.17794 0.21048 0.0
C513 C 0.69063 0.24015 0.12388 0.0
C514 C 0.67868 0.27427 0.16091 0.0
C515 C 0.65496 0.26133 0.232 0.0
C516 C 0.66945 0.19238 0.15471 0.0
H517 H 0.60763 0.19911 0.3061 0.0
C518 C 0.51858 0.08676 0.33511 0.0
O519 O 0.61069 0.04773 0.50533 0.0
O520 O 0.62882 0.12524 0.49289 0.0
N521 N 0.66323 0.11427 0.17006 0.0
C522 C 0.68269 0.0824 0.16473 0.0
C523 C 0.72588 0.09692 0.11889 0.0
C524 C 0.74674 0.14185 0.07718 0.0
C525 C 0.72544 0.1729 0.08421 0.0
C526 C 0.6853 0.15895 0.13418 0.0
H527 H 0.66659 0.04727 0.19621 0.0
O528 O 0.69262 0.11085 0.38413 0.0
O529 O 0.64784 0.13099 0.31787 0.0
O530 O 0.5961 0.01558 0.33014 0.0
O531 O 0.57453 0.03665 0.22259 0.0
C532 C 0.743 0.21779 0.04457 0.0
C533 C 0.72412 0.25044 0.06211 0.0
H534 H 0.68978 0.31162 0.14122 0.0
H535 H 0.6574 0.28931 0.27056 0.0
H536 H 0.74378 0.07451 0.11404 0.0
H537 H 0.7793 0.15231 0.04057 0.0
H538 H 0.7718 0.22739 0.00184 0.0
H539 H 0.7386 0.28369 0.02957 0.0
Mn540 Mn 0.84577 0.54357 0.76116 0.0
Mn541 Mn 0.80835 0.51324 0.93695 0.0
C542 C 0.86502 0.48196 0.83042 0.0
C543 C 0.84678 0.53254 0.6222 0.0
C544 C 0.88518 0.61834 0.89864 0.0
O545 O 0.77826 0.55399 0.7716 0.0
O546 O 0.75075 0.51699 0.88602 0.0
C547 C 0.72979 0.41185 0.90675 0.0
N548 N 0.76863 0.44507 0.95038 0.0
C549 C 0.76199 0.38286 0.03696 0.0
C550 C 0.71592 0.34874 -7e-05 0.0
C551 C 0.70514 0.36169 0.92883 0.0
C552 C 0.78857 0.43063 0.00614 0.0
H553 H 0.72004 0.42392 0.85475 0.0
C554 C 0.74332 0.53627 0.82578 0.0
O555 O 0.87446 0.5753 0.65557 0.0
O556 O 0.81508 0.49779 0.66801 0.0
N557 N 0.86046 0.50875 0.99084 0.0
C558 C 0.91178 0.54063 0.99621 0.0
C559 C 0.94045 0.52612 0.04206 0.0
C560 C 0.91638 0.48117 0.08374 0.0
C561 C 0.86404 0.45011 0.07667 0.0
C562 C 0.83784 0.46406 0.0267 0.0
H563 H 0.9308 0.57577 0.96475 0.0
O564 O 0.89327 0.51217 0.77676 0.0
O565 O 0.82835 0.49203 0.84301 0.0
O566 O 0.89202 0.60744 0.83077 0.0
O567 O 0.84938 0.58638 0.93831 0.0
C568 C 0.8367 0.40521 0.1163 0.0
C569 C 0.78519 0.37256 0.09874 0.0
H570 H 0.68966 0.31139 0.01961 0.0
H571 H 0.6796 0.33371 0.89027 0.0
H572 H -0.01925 0.54854 0.04695 0.0
H573 H 0.93848 0.47071 0.12036 0.0
H574 H 0.8559 0.39561 0.15903 0.0
H575 H 0.7664 0.3393 0.13126 0.0
Mn576 Mn 0.40188 0.29131 0.76117 0.0
Mn577 Mn 0.43221 0.28422 0.93696 0.0
C578 C 0.46349 0.37217 0.83043 0.0
C579 C 0.41291 0.30335 0.62221 0.0
C580 C 0.3271 0.25594 0.89864 0.0
O581 O 0.39145 0.21337 0.77161 0.0
O582 O 0.42846 0.22287 0.88603 0.0
C583 C 0.53359 0.30705 0.90675 0.0
N584 N 0.50037 0.31265 0.95039 0.0
C585 C 0.56259 0.36824 0.03696 0.0
C586 C 0.5967 0.35629 -8e-05 0.0
C587 C 0.58376 0.33256 0.92883 0.0
C588 C 0.51481 0.34704 0.00615 0.0
H589 H 0.52153 0.28522 0.85475 0.0
C590 C 0.40918 0.19616 0.82579 0.0
O591 O 0.37015 0.28827 0.65558 0.0
O592 O 0.44766 0.30639 0.66802 0.0
N593 N 0.43669 0.34081 0.99085 0.0
C594 C 0.40482 0.36026 0.99622 0.0
C595 C 0.41933 0.40344 0.04207 0.0
C596 C 0.46427 0.42431 0.08374 0.0
C597 C 0.49533 0.40303 0.07668 0.0
C598 C 0.48139 0.36289 0.0267 0.0
H599 H 0.36968 0.34414 0.96477 0.0
O600 O 0.43328 0.37021 0.77676 0.0
O601 O 0.45341 0.32542 0.84302 0.0
O602 O 0.33801 0.27369 0.83077 0.0
O603 O 0.35907 0.25211 0.93832 0.0
C604 C 0.54023 0.4206 0.1163 0.0
C605 C 0.57288 0.40173 0.09873 0.0
H606 H 0.63406 0.36738 0.0196 0.0
H607 H 0.61173 0.335 0.89026 0.0
H608 H 0.39691 0.42132 0.04696 0.0
H609 H 0.47473 0.45687 0.12036 0.0
H610 H 0.54983 0.4494 0.15903 0.0
H611 H 0.60615 0.41621 0.13125 0.0
Mn612 Mn 0.65413 0.09967 0.76117 0.0
Mn613 Mn 0.66123 0.13709 0.93696 0.0
C614 C 0.57328 0.08042 0.83043 0.0
C615 C 0.64209 0.09866 0.62221 0.0
C616 C 0.6895 0.06026 0.89865 0.0
O617 O 0.73207 0.16718 0.77161 0.0
O618 O 0.72257 0.1947 0.88602 0.0
C619 C 0.6384 0.21565 0.90675 0.0
N620 N 0.63279 0.17682 0.95039 0.0
C621 C 0.5772 0.18345 0.03696 0.0
C622 C 0.58916 0.22952 -8e-05 0.0
C623 C 0.61288 0.2403 0.92883 0.0
C624 C 0.5984 0.15687 0.00615 0.0
H625 H 0.66022 0.22541 0.85475 0.0
C626 C 0.74929 0.20212 0.82578 0.0
O627 O 0.65718 0.07098 0.65558 0.0
O628 O 0.63905 0.13036 0.66802 0.0
N629 N 0.60464 0.08498 0.99085 0.0
C630 C 0.58519 0.03366 0.99622 0.0
C631 C 0.54201 0.00499 0.04207 0.0
C632 C 0.52113 0.02906 0.08375 0.0
C633 C 0.54242 0.0814 0.07668 0.0
C634 C 0.58256 0.1076 0.02671 0.0
H635 H 0.6013 0.01464 0.96477 0.0
O636 O 0.57524 0.05217 0.77677 0.0
O637 O 0.62002 0.11709 0.84302 0.0
O638 O 0.67175 0.05341 0.83078 0.0
O639 O 0.69334 0.09606 0.93832 0.0
C640 C 0.52485 0.10874 0.1163 0.0
C641 C 0.54372 0.16026 0.09874 0.0
H642 H 0.57806 0.25578 0.0196 0.0
H643 H 0.61044 0.26584 0.89026 0.0
H644 H 0.52413 0.96469 0.04696 0.0
H645 H 0.48858 0.00696 0.12036 0.0
H646 H 0.49605 0.08954 0.15904 0.0
H647 H 0.52924 0.17904 0.13125 0.0
Mn648 Mn 0.40188 0.09964 0.26117 0.0
Mn649 Mn 0.43221 0.1371 0.43695 0.0
C650 C 0.4635 0.08046 0.33034 0.0
C651 C 0.41288 0.09864 0.12221 0.0
C652 C 0.3271 0.06025 0.39865 0.0
O653 O 0.39144 0.16715 0.27161 0.0
O654 O 0.42846 0.1947 0.38601 0.0
C655 C 0.53359 0.21566 0.40674 0.0
N656 N 0.50037 0.17683 0.45038 0.0
C657 C 0.56258 0.18345 0.53695 0.0
C658 C 0.5967 0.22952 0.49991 0.0
C659 C 0.58376 0.2403 0.42882 0.0
C660 C 0.51481 0.15688 0.50614 0.0
H661 H 0.52153 0.22542 0.35475 0.0
C662 C 0.40916 0.2021 0.32577 0.0
O663 O 0.37013 0.07095 0.1556 0.0
O664 O 0.44763 0.13034 0.16801 0.0
N665 N 0.4367 0.08499 0.49083 0.0
C666 C 0.40482 0.03366 0.49619 0.0
C667 C 0.41933 0.00499 0.54206 0.0
C668 C 0.46427 0.02906 0.58374 0.0
C669 C 0.49533 0.08141 0.57667 0.0
C670 C 0.48139 0.1076 0.52669 0.0
H671 H 0.36969 0.01464 0.46474 0.0
O672 O 0.43326 0.05213 0.27675 0.0
O673 O 0.45342 0.11712 0.34301 0.0
O674 O 0.33801 0.05339 0.33079 0.0
O675 O 0.35907 0.09607 0.4383 0.0
C676 C 0.54023 0.10874 0.6163 0.0
C677 C 0.57288 0.16026 0.59873 0.0
H678 H 0.63406 0.25578 0.5196 0.0
H679 H 0.61174 0.26583 0.39025 0.0
H680 H 0.39691 0.96469 0.54695 0.0
H681 H 0.47472 0.00696 0.62036 0.0
H682 H 0.54982 0.08954 0.65904 0.0
H683 H 0.60614 0.17905 0.63125 0.0
Mn684 Mn 0.8458 0.29133 0.26117 0.0
Mn685 Mn 0.80834 0.2842 0.43694 0.0
C686 C 0.86498 0.37214 0.33033 0.0
C687 C 0.8468 0.30334 0.1222 0.0
C688 C 0.88519 0.25595 0.39865 0.0
O689 O 0.77829 0.21338 0.27161 0.0
O690 O 0.75074 0.22285 0.38601 0.0
C691 C 0.72978 0.30703 0.40674 0.0
N692 N 0.76861 0.31264 0.45038 0.0
C693 C 0.76199 0.36823 0.53695 0.0
C694 C 0.71592 0.35627 0.49992 0.0
C695 C 0.70514 0.33255 0.42883 0.0
C696 C 0.78856 0.34703 0.50614 0.0
H697 H 0.72002 0.28521 0.35475 0.0
C698 C 0.74334 0.19615 0.32577 0.0
O699 O 0.87449 0.28827 0.15559 0.0
O700 O 0.8151 0.30639 0.168 0.0
N701 N 0.86045 0.3408 0.49082 0.0
C702 C 0.91177 0.36025 0.49619 0.0
C703 C 0.94044 0.40342 0.54205 0.0
C704 C 0.91637 0.4243 0.58373 0.0
C705 C 0.86403 0.40302 0.57666 0.0
C706 C 0.83783 0.36288 0.52668 0.0
H707 H 0.9308 0.34414 0.46473 0.0
O708 O 0.89331 0.37022 0.27674 0.0
O709 O 0.82832 0.3254 0.343 0.0
O710 O 0.89205 0.27372 0.33079 0.0
O711 O 0.84937 0.25209 0.43829 0.0
C712 C 0.83669 0.42058 0.61629 0.0
C713 C 0.78518 0.40171 0.59873 0.0
H714 H 0.68966 0.36737 0.51961 0.0
H715 H 0.6796 0.335 0.39026 0.0
H716 H -0.01926 0.4213 0.54695 0.0
H717 H 0.93847 0.45685 0.62036 0.0
H718 H 0.8559 0.44938 0.65903 0.0
H719 H 0.76639 0.41619 0.63125 0.0
Mn720 Mn 0.65411 0.54357 0.26117 0.0
Mn721 Mn 0.66124 0.51323 0.43694 0.0
C722 C 0.57331 0.48195 0.33034 0.0
C723 C 0.6421 0.53257 0.12221 0.0
C724 C 0.68949 0.61834 0.39865 0.0
O725 O 0.73206 0.55401 0.2716 0.0
O726 O 0.72259 0.51698 0.38601 0.0
C727 C 0.63841 0.41185 0.40674 0.0
N728 N 0.6328 0.44507 0.45038 0.0
C729 C 0.57722 0.38286 0.53695 0.0
C730 C 0.58917 0.34874 0.49991 0.0
C731 C 0.61289 0.36168 0.42882 0.0
C732 C 0.59841 0.43063 0.50614 0.0
H733 H 0.66023 0.42391 0.35474 0.0
C734 C 0.74929 0.53629 0.32576 0.0
O735 O 0.65716 0.57532 0.15559 0.0
O736 O 0.63905 0.49781 0.16801 0.0
N737 N 0.60464 0.50875 0.49082 0.0
C738 C 0.5852 0.54063 0.49619 0.0
C739 C 0.54202 0.52612 0.54206 0.0
C740 C 0.52115 0.48117 0.58374 0.0
C741 C 0.54243 0.45011 0.57667 0.0
C742 C 0.58257 0.46406 0.52669 0.0
H743 H 0.60131 0.57576 0.46473 0.0
O744 O 0.57522 0.51219 0.27674 0.0
O745 O 0.62004 0.49202 0.343 0.0
O746 O 0.67173 0.60744 0.33079 0.0
O747 O 0.69335 0.58638 0.4383 0.0
C748 C 0.52487 0.40522 0.6163 0.0
C749 C 0.54374 0.37256 0.59873 0.0
H750 H 0.57807 0.31138 0.5196 0.0
H751 H 0.61044 0.3337 0.39025 0.0
H752 H 0.52414 0.54854 0.54695 0.0
H753 H 0.4886 0.47072 0.62036 0.0
H754 H 0.49607 0.39562 0.65904 0.0
H755 H 0.52925 0.3393 0.63125 0.0
Mn756 Mn 0.42206 0.07946 0.89974 0.0
Mn757 Mn 0.4595 0.10978 0.72395 0.0
C758 C 0.40287 0.14108 0.83056 0.0
C759 C 0.42104 0.09048 0.03869 0.0
C760 C 0.38266 0.00467 0.76227 0.0
O761 O 0.48957 0.06903 0.8893 0.0
O762 O 0.5171 0.10602 0.77487 0.0
C763 C 0.53807 0.21116 0.75411 0.0
N764 N 0.49923 0.17794 0.71049 0.0
C765 C 0.50586 0.24014 0.62389 0.0
C766 C 0.55194 0.27426 0.66091 0.0
C767 C 0.56272 0.26132 0.73201 0.0
C768 C 0.47928 0.19238 0.65473 0.0
H769 H 0.54783 0.1991 0.80611 0.0
C770 C 0.52451 0.08674 0.83513 0.0
O771 O 0.39336 0.04771 0.00532 0.0
O772 O 0.45275 0.12522 0.99289 0.0
N773 N 0.40739 0.11427 0.67008 0.0
C774 C 0.35606 0.0824 0.66475 0.0
C775 C 0.32739 0.09691 0.6189 0.0
C776 C 0.35146 0.14185 0.57719 0.0
C777 C 0.40381 0.1729 0.58423 0.0
C778 C 0.43001 0.15895 0.6342 0.0
H779 H 0.33704 0.04727 0.69623 0.0
O780 O 0.37455 0.11084 0.88415 0.0
O781 O 0.43953 0.13101 0.81789 0.0
O782 O 0.37581 0.01559 0.83013 0.0
O783 O 0.41847 0.03664 0.72261 0.0
C784 C 0.43114 0.21779 0.54458 0.0
C785 C 0.48267 0.25043 0.56212 0.0
H786 H 0.5782 0.31161 0.64121 0.0
H787 H 0.58826 0.28931 0.77057 0.0
H788 H 0.28709 0.07451 0.61404 0.0
H789 H 0.32936 0.1523 0.54058 0.0
H790 H 0.41194 0.22739 0.50185 0.0
H791 H 0.50145 0.28369 0.52957 0.0
Mn792 Mn 0.86598 0.33169 0.89973 0.0
Mn793 Mn 0.83567 0.33882 0.72395 0.0
C794 C 0.80436 0.25089 0.83056 0.0
C795 C 0.85496 0.31966 0.03869 0.0
C796 C 0.94077 0.36708 0.76227 0.0
O797 O 0.87641 0.40964 0.8893 0.0
O798 O 0.83942 0.40018 0.77487 0.0
C799 C 0.73428 0.31601 0.75411 0.0
N800 N 0.76751 0.3104 0.71048 0.0
C801 C 0.7053 0.25482 0.6239 0.0
C802 C 0.67118 0.26677 0.66091 0.0
C803 C 0.68412 0.29049 0.73201 0.0
C804 C 0.75307 0.27601 0.65472 0.0
H805 H 0.74634 0.33783 0.8061 0.0
C806 C 0.85871 0.42687 0.83512 0.0
O807 O 0.89772 0.33474 0.00531 0.0
O808 O 0.82022 0.31662 0.99289 0.0
N809 N 0.83118 0.28222 0.67007 0.0
C810 C 0.86304 0.26275 0.66475 0.0
C811 C 0.84853 0.21957 0.6189 0.0
C812 C 0.8036 0.19871 0.57719 0.0
C813 C 0.77255 0.22 0.58423 0.0
C814 C 0.78649 0.26015 0.63419 0.0
H815 H 0.89816 0.27886 0.69623 0.0
O816 O 0.8346 0.2528 0.88415 0.0
O817 O 0.81444 0.29763 0.81789 0.0
O818 O 0.92985 0.34932 0.83013 0.0
O819 O 0.9088 0.37092 0.72261 0.0
C820 C 0.72766 0.20245 0.54459 0.0
C821 C 0.69501 0.22133 0.56212 0.0
H822 H 0.63383 0.25568 0.64122 0.0
H823 H 0.65614 0.28804 0.77057 0.0
H824 H 0.87093 0.20167 0.61405 0.0
H825 H 0.79314 0.16614 0.54059 0.0
H826 H 0.71806 0.17364 0.50186 0.0
H827 H 0.66176 0.20686 0.52959 0.0
Mn828 Mn 0.61375 0.52339 0.89973 0.0
Mn829 Mn 0.60662 0.48594 0.72395 0.0
C830 C 0.69455 0.54257 0.83055 0.0
C831 C 0.62578 0.52441 0.03869 0.0
C832 C 0.57836 0.56279 0.76227 0.0
O833 O 0.53581 0.45587 0.8893 0.0
O834 O 0.54527 0.42834 0.77487 0.0
C835 C 0.62944 0.40737 0.75411 0.0
N836 N 0.63505 0.44621 0.71049 0.0
C837 C 0.69063 0.43958 0.62389 0.0
C838 C 0.67867 0.3935 0.66092 0.0
C839 C 0.65495 0.38272 0.73201 0.0
C840 C 0.66944 0.46616 0.65472 0.0
H841 H 0.60762 0.39761 0.80611 0.0
C842 C 0.51857 0.42093 0.83513 0.0
O843 O 0.6107 0.55209 0.00531 0.0
O844 O 0.62882 0.4927 0.99289 0.0
N845 N 0.66322 0.53806 0.67007 0.0
C846 C 0.68269 0.58938 0.66474 0.0
C847 C 0.72587 0.61806 0.6189 0.0
C848 C 0.74673 0.59398 0.57719 0.0
C849 C 0.72543 0.54164 0.58422 0.0
C850 C 0.68529 0.51544 0.63419 0.0
H851 H 0.66658 0.60841 0.69623 0.0
O852 O 0.69264 0.5709 0.88414 0.0
O853 O 0.64782 0.50591 0.81789 0.0
O854 O 0.59613 0.56964 0.83012 0.0
O855 O 0.57452 0.52698 0.72261 0.0
C856 C 0.74299 0.5143 0.54458 0.0
C857 C 0.72411 0.46278 0.56212 0.0
H858 H 0.68977 0.36725 0.64122 0.0
H859 H 0.6574 0.35719 0.77058 0.0
H860 H 0.74377 0.65836 0.61404 0.0
H861 H 0.77929 0.61609 0.54058 0.0
H862 H 0.7718 0.53351 0.50185 0.0
H863 H 0.73859 0.444 0.52958 0.0
Mn864 Mn 0.53264 0.8567 0.73307 0.0
Mn865 Mn 0.50232 0.81928 0.55728 0.0
C866 C 0.47104 0.87595 0.6638 0.0
C867 C 0.52161 0.8577 0.87203 0.0
C868 C 0.60743 0.89611 0.5956 0.0
O869 O 0.54306 0.78918 0.72263 0.0
O870 O 0.50607 0.76168 0.6082 0.0
C871 C 0.40094 0.74072 0.58746 0.0
N872 N 0.43416 0.77955 0.54383 0.0
C873 C 0.37196 0.77292 0.45725 0.0
C874 C 0.33784 0.72685 0.49427 0.0
C875 C 0.35078 0.71607 0.56537 0.0
C876 C 0.41972 0.7995 0.48807 0.0
H877 H 0.413 0.73096 0.63946 0.0
C878 C 0.52534 0.75424 0.66845 0.0
O879 O 0.56437 0.88538 0.83866 0.0
O880 O 0.48687 0.82601 0.82622 0.0
N881 N 0.49784 0.87139 0.50339 0.0
C882 C 0.52971 0.92272 0.49805 0.0
C883 C 0.51519 0.9514 0.4522 0.0
C884 C 0.47026 0.92732 0.41051 0.0
C885 C 0.4392 0.87498 0.41755 0.0
C886 C 0.45315 0.84878 0.46752 0.0
H887 H 0.56484 0.94174 0.52952 0.0
O888 O 0.50125 0.9042 0.71747 0.0
O889 O 0.48111 0.83928 0.65121 0.0
O890 O 0.59652 0.90295 0.66347 0.0
O891 O 0.57546 0.86032 0.55592 0.0
C892 C 0.39431 0.84764 0.37792 0.0
C893 C 0.36167 0.79612 0.39547 0.0
H894 H 0.30048 0.70059 0.47459 0.0
H895 H 0.3228 0.69053 0.60393 0.0
H896 H 0.5376 -0.00831 0.44734 0.0
H897 H 0.4598 0.94943 0.37389 0.0
H898 H 0.38471 0.86685 0.33519 0.0
H899 H 0.32841 0.77734 0.36294 0.0
Mn900 Mn 0.08875 0.66505 0.73308 0.0
Mn901 Mn 0.12617 0.67215 0.55728 0.0
C902 C 0.0695 0.5842 0.66381 0.0
C903 C 0.08775 0.65302 0.87204 0.0
C904 C 0.04934 0.70042 0.5956 0.0
O905 O 0.15627 0.74299 0.72263 0.0
O906 O 0.18377 0.7335 0.6082 0.0
C907 C 0.20473 0.64932 0.58746 0.0
N908 N 0.16589 0.64371 0.54384 0.0
C909 C 0.17252 0.58814 0.45725 0.0
C910 C 0.2186 0.60009 0.49427 0.0
C911 C 0.22938 0.62382 0.56536 0.0
C912 C 0.14595 0.60932 0.48807 0.0
H913 H 0.21449 0.67115 0.63945 0.0
C914 C 0.1912 0.76021 0.66845 0.0
O915 O 0.06006 0.6681 0.83867 0.0
O916 O 0.11944 0.64997 0.82623 0.0
N917 N 0.07406 0.61555 0.5034 0.0
C918 C 0.02273 0.5961 0.49805 0.0
C919 C -0.00594 0.55291 0.45221 0.0
C920 C 0.01813 0.53204 0.41051 0.0
C921 C 0.07047 0.55333 0.41756 0.0
C922 C 0.09667 0.59348 0.46753 0.0
H923 H 0.00371 0.61221 0.52952 0.0
O924 O 0.04125 0.58616 0.71748 0.0
O925 O 0.10617 0.63094 0.65122 0.0
O926 O 0.0425 0.68268 0.66347 0.0
O927 O 0.08514 0.70425 0.55593 0.0
C928 C 0.09781 0.53577 0.37793 0.0
C929 C 0.14933 0.55465 0.39547 0.0
H930 H 0.24486 0.589 0.47458 0.0
H931 H 0.25492 0.62138 0.60392 0.0
H932 H 0.95376 0.53502 0.44734 0.0
H933 H -0.00397 0.49948 0.3739 0.0
H934 H 0.0786 0.50697 0.3352 0.0
H935 H 0.16811 0.54017 0.36293 0.0
Mn936 Mn 0.2804 0.4128 0.73308 0.0
Mn937 Mn 0.2733 0.44312 0.55728 0.0
C938 C 0.36125 0.4744 0.66381 0.0
C939 C 0.29243 0.42382 0.87204 0.0
C940 C 0.24502 0.33801 0.5956 0.0
O941 O 0.20246 0.40238 0.72264 0.0
O942 O 0.21195 0.43937 0.60821 0.0
C943 C 0.29612 0.54451 0.58747 0.0
N944 N 0.30173 0.51128 0.54384 0.0
C945 C 0.35731 0.57349 0.45725 0.0
C946 C 0.34535 0.60761 0.49428 0.0
C947 C 0.32163 0.59467 0.56537 0.0
C948 C 0.33612 0.52572 0.48807 0.0
H949 H 0.2743 0.53244 0.63946 0.0
C950 C 0.18524 0.4201 0.66846 0.0
O951 O 0.27735 0.38106 0.83867 0.0
O952 O 0.29548 0.45857 0.82623 0.0
N953 N 0.32989 0.4476 0.5034 0.0
C954 C 0.34935 0.41573 0.49805 0.0
C955 C 0.39253 0.43025 0.4522 0.0
C956 C 0.4134 0.47519 0.41051 0.0
C957 C 0.39211 0.50624 0.41756 0.0
C958 C 0.35196 0.4923 0.46753 0.0
H959 H 0.33324 0.3806 0.52952 0.0
O960 O 0.35928 0.44419 0.71747 0.0
O961 O 0.3145 0.46433 0.65122 0.0
O962 O 0.26276 0.34891 0.66347 0.0
O963 O 0.24119 0.36998 0.55593 0.0
C964 C 0.40967 0.55113 0.37792 0.0
C965 C 0.39079 0.58378 0.39547 0.0
H966 H 0.35645 0.64497 0.47459 0.0
H967 H 0.32408 0.62265 0.60393 0.0
H968 H 0.41042 0.40784 0.44733 0.0
H969 H 0.44596 0.48564 0.3739 0.0
H970 H 0.43847 0.56073 0.33519 0.0
H971 H 0.40527 0.61704 0.36294 0.0
Mn972 Mn 0.51244 0.8769 0.0945 0.0
Mn973 Mn 0.47502 0.84657 0.27029 0.0
C974 C 0.53169 0.81529 0.16377 0.0
C975 C 0.51345 0.86587 0.95555 0.0
C976 C 0.55186 0.95168 0.23198 0.0
O977 O 0.44493 0.88732 0.10495 0.0
O978 O 0.41742 0.85032 0.21937 0.0
C979 C 0.39646 0.74519 0.24011 0.0
N980 N 0.43529 0.77841 0.28374 0.0
C981 C 0.42866 0.7162 0.37032 0.0
C982 C 0.38259 0.68208 0.3333 0.0
C983 C 0.37181 0.69503 0.2622 0.0
C984 C 0.45524 0.76397 0.3395 0.0
H985 H 0.3867 0.75725 0.18811 0.0
C986 C 0.40999 0.8696 0.15912 0.0
O987 O 0.54113 0.90863 0.98891 0.0
O988 O 0.48175 0.83112 0.00135 0.0
N989 N 0.52713 0.84209 0.32418 0.0
C990 C 0.57845 0.87396 0.32954 0.0
C991 C 0.60713 0.85945 0.37539 0.0
C992 C 0.58305 0.8145 0.41708 0.0
C993 C 0.53071 0.78345 0.41002 0.0
C994 C 0.50451 0.79739 0.36005 0.0
H995 H 0.59748 0.9091 0.29808 0.0
O996 O 0.55994 0.8455 0.1101 0.0
O997 O 0.49502 0.82537 0.17636 0.0
O998 O 0.55869 0.94077 0.16411 0.0
O999 O 0.51605 0.91971 0.27165 0.0
C1000 C 0.50338 0.73855 0.44965 0.0
C1001 C 0.45186 0.70591 0.4321 0.0
H1002 H 0.35633 0.64473 0.35298 0.0
H1003 H 0.34627 0.66705 0.22364 0.0
H1004 H 0.64742 0.88186 0.38027 0.0
H1005 H 0.60516 0.80405 0.45369 0.0
H1006 H 0.52258 0.72895 0.49238 0.0
H1007 H 0.43308 0.67265 0.46463 0.0
Mn1008 Mn 0.06855 0.62465 0.09451 0.0
Mn1009 Mn 0.09887 0.61755 0.2703 0.0
C1010 C 0.13016 0.7055 0.16377 0.0
C1011 C 0.07958 0.63669 0.95555 0.0
C1012 C -0.00623 0.58928 0.23198 0.0
O1013 O 0.05812 0.5467 0.10495 0.0
O1014 O 0.09512 0.5562 0.21937 0.0
C1015 C 0.20026 0.64038 0.24011 0.0
N1016 N 0.16703 0.64598 0.28374 0.0
C1017 C 0.22924 0.70157 0.37032 0.0
C1018 C 0.26336 0.68961 0.33329 0.0
C1019 C 0.25042 0.66589 0.2622 0.0
C1020 C 0.18147 0.68037 0.3395 0.0
H1021 H 0.18819 0.61855 0.18811 0.0
C1022 C 0.07584 0.52949 0.15913 0.0
O1023 O 0.03682 0.6216 0.98892 0.0
O1024 O 0.11432 0.63973 0.00136 0.0
N1025 N 0.10336 0.67415 0.32419 0.0
C1026 C 0.07149 0.6936 0.32954 0.0
C1027 C 0.086 0.73679 0.37539 0.0
C1028 C 0.13094 0.75766 0.41707 0.0
C1029 C 0.16199 0.73637 0.41002 0.0
C1030 C 0.14805 0.69622 0.36005 0.0
H1031 H 0.03635 0.67749 0.29808 0.0
O1032 O 0.09994 0.70354 0.1101 0.0
O1033 O 0.12008 0.65876 0.17637 0.0
O1034 O 0.00467 0.60703 0.16411 0.0
O1035 O 0.02573 0.58545 0.27166 0.0
C1036 C 0.20689 0.75393 0.44965 0.0
C1037 C 0.23954 0.73506 0.43209 0.0
H1038 H 0.30071 0.70071 0.35297 0.0
H1039 H 0.2784 0.66833 0.22363 0.0
H1040 H 0.06358 0.75467 0.38026 0.0
H1041 H 0.14139 0.79022 0.45368 0.0
H1042 H 0.21649 0.78273 0.49238 0.0
H1043 H 0.2728 0.74954 0.46461 0.0
Mn1044 Mn 0.3208 0.433 0.09451 0.0
Mn1045 Mn 0.32789 0.47042 0.2703 0.0
C1046 C 0.23994 0.41375 0.16378 0.0
C1047 C 0.30876 0.43199 0.95555 0.0
C1048 C 0.35616 0.39359 0.23198 0.0
O1049 O 0.39874 0.50052 0.10495 0.0
O1050 O 0.38924 0.52802 0.21937 0.0
C1051 C 0.30507 0.54898 0.24011 0.0
N1052 N 0.29946 0.51015 0.28374 0.0
C1053 C 0.24388 0.51678 0.37032 0.0
C1054 C 0.25583 0.56285 0.33329 0.0
C1055 C 0.27956 0.57364 0.26219 0.0
C1056 C 0.26507 0.4902 0.3395 0.0
H1057 H 0.32689 0.55874 0.18811 0.0
C1058 C 0.41595 0.53545 0.15913 0.0
O1059 O 0.32385 0.40431 0.98892 0.0
O1060 O 0.30572 0.46369 0.00136 0.0
N1061 N 0.2713 0.41831 0.32419 0.0
C1062 C 0.25185 0.36699 0.32954 0.0
C1063 C 0.20866 0.33831 0.37539 0.0
C1064 C 0.18779 0.36239 0.41708 0.0
C1065 C 0.20908 0.41473 0.41002 0.0
C1066 C 0.24923 0.44093 0.36005 0.0
H1067 H 0.26796 0.34796 0.29808 0.0
O1068 O 0.24191 0.3855 0.11011 0.0
O1069 O 0.28669 0.45042 0.17636 0.0
O1070 O 0.33842 0.38674 0.16411 0.0
O1071 O 0.36 0.42939 0.27166 0.0
C1072 C 0.19152 0.44207 0.44965 0.0
C1073 C 0.21039 0.49359 0.4321 0.0
H1074 H 0.24473 0.58911 0.35297 0.0
H1075 H 0.27711 0.59917 0.22363 0.0
H1076 H 0.19078 0.29801 0.38026 0.0
H1077 H 0.15523 0.34028 0.45369 0.0
H1078 H 0.16272 0.42286 0.49238 0.0
H1079 H 0.19591 0.51237 0.46462 0.0
Mn1080 Mn 0.06854 0.43298 0.59452 0.0
Mn1081 Mn 0.09887 0.47043 0.77029 0.0
C1082 C 0.13017 0.41379 0.66368 0.0
C1083 C 0.07955 0.43197 0.45555 0.0
C1084 C -0.00623 0.39358 0.73199 0.0
O1085 O 0.05811 0.50049 0.60495 0.0
O1086 O 0.09512 0.52803 0.71936 0.0
C1087 C 0.20026 0.54899 0.7401 0.0
N1088 N 0.16703 0.51016 0.78374 0.0
C1089 C 0.22924 0.51678 0.87032 0.0
C1090 C 0.26336 0.56286 0.83328 0.0
C1091 C 0.25042 0.57364 0.76219 0.0
C1092 C 0.18147 0.49021 0.8395 0.0
H1093 H 0.18819 0.55875 0.68811 0.0
C1094 C 0.07582 0.53543 0.65911 0.0
O1095 O 0.03679 0.40428 0.48894 0.0
O1096 O 0.1143 0.46367 0.50135 0.0
N1097 N 0.10336 0.41832 0.82417 0.0
C1098 C 0.07149 0.36699 0.82953 0.0
C1099 C 0.086 0.33832 0.87539 0.0
C1100 C 0.13094 0.36239 0.91708 0.0
C1101 C 0.16199 0.41473 0.91002 0.0
C1102 C 0.14805 0.44093 0.86004 0.0
H1103 H 0.03636 0.34797 0.79806 0.0
O1104 O 0.09993 0.38547 0.61009 0.0
O1105 O 0.12009 0.45045 0.67635 0.0
O1106 O 0.00468 0.38672 0.66413 0.0
O1107 O 0.02573 0.4294 0.77164 0.0
C1108 C 0.20688 0.44207 0.94965 0.0
C1109 C 0.23953 0.49359 0.9321 0.0
H1110 H 0.30071 0.58911 0.85297 0.0
H1111 H 0.2784 0.59917 0.72362 0.0
H1112 H 0.06358 0.29802 0.88027 0.0
H1113 H 0.14139 0.34029 0.9537 0.0
H1114 H 0.21648 0.42286 0.99238 0.0
H1115 H 0.27279 0.51237 0.96462 0.0
Mn1116 Mn 0.51246 0.62466 0.59451 0.0
Mn1117 Mn 0.47501 0.61754 0.77028 0.0
C1118 C 0.53165 0.70547 0.66367 0.0
C1119 C 0.51347 0.63667 0.45554 0.0
C1120 C 0.55186 0.58929 0.73198 0.0
O1121 O 0.44496 0.54672 0.60495 0.0
O1122 O 0.41741 0.55618 0.71936 0.0
C1123 C 0.39645 0.64036 0.7401 0.0
N1124 N 0.43528 0.64597 0.78373 0.0
C1125 C 0.42866 0.70155 0.87032 0.0
C1126 C 0.38258 0.6896 0.83329 0.0
C1127 C 0.3718 0.66588 0.7622 0.0
C1128 C 0.45523 0.68036 0.83949 0.0
H1129 H 0.38669 0.61854 0.68811 0.0
C1130 C 0.41001 0.52949 0.65911 0.0
O1131 O 0.54116 0.62161 0.48893 0.0
O1132 O 0.48177 0.63973 0.50134 0.0
N1133 N 0.52712 0.67414 0.82416 0.0
C1134 C 0.57845 0.69359 0.82951 0.0
C1135 C 0.60712 0.73677 0.87537 0.0
C1136 C 0.58305 0.75764 0.91706 0.0
C1137 C 0.5307 0.73635 0.91001 0.0
C1138 C 0.50451 0.69621 0.86003 0.0
H1139 H 0.59747 0.67748 0.79805 0.0
O1140 O 0.55997 0.70356 0.61008 0.0
O1141 O 0.49499 0.65873 0.67634 0.0
O1142 O 0.55872 0.60705 0.66412 0.0
O1143 O 0.51604 0.58542 0.77163 0.0
C1144 C 0.50337 0.75391 0.94964 0.0
C1145 C 0.45185 0.73504 0.93209 0.0
H1146 H 0.35633 0.70069 0.85298 0.0
H1147 H 0.34627 0.66833 0.72363 0.0
H1148 H 0.64742 0.75465 0.88025 0.0
H1149 H 0.60515 0.79019 0.95368 0.0
H1150 H 0.52257 0.78271 0.99237 0.0
H1151 H 0.43307 0.74951 0.96462 0.0
Mn1152 Mn 0.32078 0.8769 0.59451 0.0
Mn1153 Mn 0.3279 0.84657 0.77028 0.0
C1154 C 0.23997 0.81528 0.66368 0.0
C1155 C 0.30877 0.8659 0.45555 0.0
C1156 C 0.35615 0.95167 0.73198 0.0
O1157 O 0.39872 0.88734 0.60494 0.0
O1158 O 0.38926 0.85032 0.71936 0.0
C1159 C 0.30508 0.74518 0.7401 0.0
N1160 N 0.29947 0.77841 0.78373 0.0
C1161 C 0.24389 0.7162 0.87032 0.0
C1162 C 0.25584 0.68208 0.83328 0.0
C1163 C 0.27956 0.69502 0.76219 0.0
C1164 C 0.26508 0.76397 0.83949 0.0
H1165 H 0.3269 0.75725 0.6881 0.0
C1166 C 0.41595 0.86962 0.65911 0.0
O1167 O 0.32383 0.90866 0.48893 0.0
O1168 O 0.30571 0.83115 0.50135 0.0
N1169 N 0.2713 0.84209 0.82416 0.0
C1170 C 0.25185 0.87396 0.82951 0.0
C1171 C 0.20867 0.85945 0.87537 0.0
C1172 C 0.18781 0.81451 0.91707 0.0
C1173 C 0.20909 0.78345 0.91001 0.0
C1174 C 0.24923 0.7974 0.86004 0.0
H1175 H 0.26795 0.90909 0.79804 0.0
O1176 O 0.24189 0.84552 0.61009 0.0
O1177 O 0.28671 0.82535 0.67634 0.0
O1178 O 0.33839 0.94077 0.66413 0.0
O1179 O 0.36001 0.91971 0.77163 0.0
C1180 C 0.19154 0.73856 0.94965 0.0
C1181 C 0.21041 0.70591 0.9321 0.0
H1182 H 0.24475 0.64472 0.85297 0.0
H1183 H 0.27711 0.66704 0.72362 0.0
H1184 H 0.19078 0.88186 0.88025 0.0
H1185 H 0.15525 0.80405 0.95369 0.0
H1186 H 0.16274 0.72896 0.99238 0.0
H1187 H 0.19593 0.67265 0.96462 0.0
Mn1188 Mn 0.08873 0.41279 0.23308 0.0
Mn1189 Mn 0.12617 0.44312 0.0573 0.0
C1190 C 0.06954 0.47441 0.16391 0.0
C1191 C 0.08771 0.42381 0.37204 0.0
C1192 C 0.04933 0.33801 0.09561 0.0
O1193 O 0.15624 0.40236 0.22265 0.0
O1194 O 0.18377 0.43936 0.10822 0.0
C1195 C 0.20474 0.5445 0.08747 0.0
N1196 N 0.1659 0.51128 0.04385 0.0
C1197 C 0.17253 0.57349 0.95726 0.0
C1198 C 0.21861 0.6076 0.99428 0.0
C1199 C 0.22939 0.59466 0.06537 0.0
C1200 C 0.14595 0.52572 0.98808 0.0
H1201 H 0.2145 0.53244 0.13947 0.0
C1202 C 0.19118 0.42007 0.16848 0.0
O1203 O 0.06003 0.38105 0.33866 0.0
O1204 O 0.11942 0.45855 0.32624 0.0
N1205 N 0.07406 0.44761 0.00342 0.0
C1206 C 0.02274 0.41574 -0.00192 0.0
C1207 C -0.00594 0.43025 0.95222 0.0
C1208 C 0.01814 0.47519 0.91053 0.0
C1209 C 0.07048 0.50624 0.91757 0.0
C1210 C 0.09668 0.49229 0.96755 0.0
H1211 H 0.00371 0.38061 0.02956 0.0
O1212 O 0.04122 0.44418 0.2175 0.0
O1213 O 0.1062 0.46434 0.15124 0.0
O1214 O 0.04248 0.34892 0.16347 0.0
O1215 O 0.08514 0.36998 0.05595 0.0
C1216 C 0.09782 0.55113 0.87793 0.0
C1217 C 0.14934 0.58378 0.89548 0.0
H1218 H 0.24487 0.64496 0.97458 0.0
H1219 H 0.25492 0.62264 0.10394 0.0
H1220 H 0.95377 0.40784 0.94736 0.0
H1221 H -0.00396 0.48564 0.87391 0.0
H1222 H 0.07861 0.56073 0.8352 0.0
H1223 H 0.16812 0.61703 0.86294 0.0
Mn1224 Mn 0.53265 0.66503 0.23307 0.0
Mn1225 Mn 0.50233 0.67216 0.05729 0.0
C1226 C 0.47103 0.58422 0.1639 0.0
C1227 C 0.52163 0.65299 0.37203 0.0
C1228 C 0.60743 0.70041 0.09561 0.0
O1229 O 0.54308 0.74297 0.22264 0.0
O1230 O 0.50608 0.73351 0.10821 0.0
C1231 C 0.40094 0.64933 0.08747 0.0
N1232 N 0.43417 0.64373 0.04384 0.0
C1233 C 0.37196 0.58814 0.95726 0.0
C1234 C 0.33784 0.6001 0.99428 0.0
C1235 C 0.35078 0.62382 0.06538 0.0
C1236 C 0.41973 0.60934 0.98808 0.0
H1237 H 0.413 0.67116 0.13946 0.0
C1238 C 0.52537 0.76021 0.16847 0.0
O1239 O 0.56439 0.66807 0.33865 0.0
O1240 O 0.48689 0.64996 0.32623 0.0
N1241 N 0.49784 0.61555 0.00341 0.0
C1242 C 0.52971 0.5961 -0.00193 0.0
C1243 C 0.5152 0.55291 0.95222 0.0
C1244 C 0.47026 0.53205 0.91052 0.0
C1245 C 0.43921 0.55334 0.91757 0.0
C1246 C 0.45315 0.59348 0.96754 0.0
H1247 H 0.56484 0.6122 0.02954 0.0
O1248 O 0.50126 0.58613 0.21749 0.0
O1249 O 0.48111 0.63096 0.15123 0.0
O1250 O 0.59652 0.68265 0.16346 0.0
O1251 O 0.57547 0.70426 0.05594 0.0
C1252 C 0.39431 0.53578 0.87793 0.0
C1253 C 0.36167 0.55466 0.89548 0.0
H1254 H 0.30049 0.589 0.97459 0.0
H1255 H 0.3228 0.62137 0.10394 0.0
H1256 H 0.53761 0.53502 0.94735 0.0
H1257 H 0.45981 0.49949 0.87391 0.0
H1258 H 0.38471 0.50698 0.83521 0.0
H1259 H 0.32841 0.54018 0.86296 0.0
Mn1260 Mn 0.28041 0.85672 0.23307 0.0
Mn1261 Mn 0.27329 0.81927 0.05729 0.0
C1262 C 0.36122 0.87591 0.1639 0.0
C1263 C 0.29245 0.85774 0.37203 0.0
C1264 C 0.24503 0.89612 0.0956 0.0
O1265 O 0.20247 0.78921 0.22264 0.0
O1266 O 0.21193 0.76167 0.10822 0.0
C1267 C 0.29611 0.7407 0.08747 0.0
N1268 N 0.30172 0.77954 0.04384 0.0
C1269 C 0.3573 0.77291 0.95726 0.0
C1270 C 0.34535 0.72684 0.99429 0.0
C1271 C 0.32162 0.71605 0.06538 0.0
C1272 C 0.33611 0.79949 0.98808 0.0
H1273 H 0.27429 0.73094 0.13947 0.0
C1274 C 0.18524 0.75427 0.16847 0.0
O1275 O 0.27737 0.88542 0.33865 0.0
O1276 O 0.29548 0.82603 0.32623 0.0
N1277 N 0.32989 0.87138 0.00341 0.0
C1278 C 0.34934 0.92271 -0.00193 0.0
C1279 C 0.39253 0.95138 0.95221 0.0
C1280 C 0.41339 0.92731 0.91052 0.0
C1281 C 0.3921 0.87496 0.91757 0.0
C1282 C 0.35196 0.84876 0.96754 0.0
H1283 H 0.33324 0.94173 0.02954 0.0
O1284 O 0.35931 0.90423 0.21748 0.0
O1285 O 0.31448 0.83925 0.15123 0.0
O1286 O 0.26279 0.90297 0.16346 0.0
O1287 O 0.24118 0.8603 0.05594 0.0
C1288 C 0.40966 0.84763 0.87793 0.0
C1289 C 0.39078 0.79611 0.89548 0.0
H1290 H 0.35644 0.70058 0.9746 0.0
H1291 H 0.32407 0.69052 0.10395 0.0
H1292 H 0.41042 -0.00832 0.94735 0.0
H1293 H 0.44595 0.94941 0.8739 0.0
H1294 H 0.43846 0.86683 0.8352 0.0
H1295 H 0.40526 0.77732 0.86295 0.0
loop_
_geom_bond_atom_site_label_1
_geom_bond_atom_site_label_2
_geom_bond_distance
_geom_bond_site_symmetry_2
_ccdc_geom_bond_type
Mn0 O5 2.095 . S
Mn0 O15 2.162 . S
Mn0 O16 2.297 . S
Mn0 O24 2.385 . S
Mn0 O25 2.209 1_554 S
Mn0 O26 2.094 . S
Mn1 O6 2.121 . S
Mn1 N8 2.257 . S
Mn1 N17 2.282 . S
Mn1 O25 2.215 . S
Mn1 O27 2.117 . S
C2 O24 1.234 . S
C2 O25 1.283 1_554 S
C3 O15 1.281 . S
C3 O16 1.236 . S
C4 O26 1.240 1_556 S
C4 O27 1.264 . S
O5 Mn0 2.095 . S
O5 C14 1.250 . S
O6 Mn1 2.121 . S
O6 C14 1.258 1_556 S
C7 N8 1.326 . S
C7 C11 1.460 . S
C7 H13 0.929 . S
N8 Mn1 2.257 . S
N8 C7 1.326 . S
N8 C12 1.362 . S
C9 C10 1.258 . S
C9 C12 1.431 . S
C9 C29 1.449 . S
C10 C9 1.258 . S
C10 C11 1.477 . S
C10 H30 0.931 1_455 S
C11 C7 1.460 . S
C11 C10 1.477 . S
C11 H31 0.916 1_545 S
C12 N8 1.362 . S
C12 C9 1.431 . S
C12 C22 1.476 . S
H13 C7 0.929 . S
C14 O5 1.250 . S
C14 O6 1.258 1_554 S
O15 Mn0 2.162 . S
O15 C3 1.281 . S
O16 Mn0 2.297 . S
O16 C3 1.236 . S
N17 Mn1 2.282 . S
N17 C18 1.328 . S
N17 C22 1.318 . S
C18 N17 1.328 . S
C18 C19 1.457 . S
C18 H23 0.929 . S
C19 C18 1.457 . S
C19 C20 1.291 . S
C19 H32 0.931 . S
C20 C19 1.291 . S
C20 C21 1.373 . S
C20 H33 0.929 . S
C21 C20 1.373 . S
C21 C22 1.396 . S
C21 C28 1.403 . S
C22 C12 1.476 . S
C22 N17 1.318 . S
C22 C21 1.396 . S
H23 C18 0.929 . S
O24 Mn0 2.385 . S
O24 C2 1.234 . S
O25 Mn0 2.209 1_556 S
O25 Mn1 2.215 . S
O25 C2 1.283 1_556 S
O26 Mn0 2.094 . S
O26 C4 1.240 1_554 S
O27 Mn1 2.117 . S
O27 C4 1.264 . S
C28 C21 1.403 . S
C28 C29 1.399 . S
C28 H34 0.929 . S
C29 C9 1.449 . S
C29 C28 1.399 . S
C29 H35 0.930 1_455 S
H30 C10 0.931 1_655 S
H31 C11 0.916 1_565 S
H32 C19 0.931 . S
H33 C20 0.929 . S
H34 C28 0.929 . S
H35 C29 0.930 1_655 S
Mn36 O41 2.095 . S
Mn36 O51 2.162 . S
Mn36 O52 2.297 . S
Mn36 O60 2.385 1_545 S
Mn36 O61 2.209 1_544 S
Mn36 O62 2.094 . S
Mn37 O42 2.121 . S
Mn37 N44 2.257 1_545 S
Mn37 N53 2.282 1_545 S
Mn37 O61 2.215 1_545 S
Mn37 O63 2.117 . S
C38 O60 1.234 . S
C38 O61 1.283 1_554 S
C39 O51 1.281 . S
C39 O52 1.236 . S
C40 O62 1.240 1_556 S
C40 O63 1.264 . S
O41 Mn36 2.095 . S
O41 C50 1.250 . S
O42 Mn37 2.121 . S
O42 C50 1.258 1_556 S
C43 N44 1.326 1_545 S
C43 C47 1.460 1_545 S
C43 H49 0.929 . S
N44 Mn37 2.257 1_565 S
N44 C43 1.326 1_565 S
N44 C48 1.362 . S
C45 C46 1.258 . S
C45 C48 1.431 . S
C45 C65 1.449 . S
C46 C45 1.258 . S
C46 C47 1.477 . S
C46 H66 0.931 . S
C47 C43 1.460 1_565 S
C47 C46 1.477 . S
C47 H67 0.913 1_665 S
C48 N44 1.362 . S
C48 C45 1.431 . S
C48 C58 1.476 . S
H49 C43 0.929 . S
C50 O41 1.250 . S
C50 O42 1.258 1_554 S
O51 Mn36 2.162 . S
O51 C39 1.281 . S
O52 Mn36 2.297 . S
O52 C39 1.236 . S
N53 Mn37 2.282 1_565 S
N53 C54 1.328 . S
N53 C58 1.318 . S
C54 N53 1.328 . S
C54 C55 1.457 . S
C54 H59 0.929 . S
C55 C54 1.457 . S
C55 C56 1.291 . S
C55 H68 0.931 . S
C56 C55 1.291 . S
C56 C57 1.373 . S
C56 H69 0.929 . S
C57 C56 1.373 . S
C57 C58 1.396 . S
C57 C64 1.403 . S
C58 C48 1.476 . S
C58 N53 1.318 . S
C58 C57 1.396 . S
H59 C54 0.929 . S
O60 Mn36 2.385 1_565 S
O60 C38 1.234 . S
O61 Mn36 2.209 1_566 S
O61 Mn37 2.215 1_565 S
O61 C38 1.283 1_556 S
O62 Mn36 2.094 . S
O62 C40 1.240 1_554 S
O63 Mn37 2.117 . S
O63 C40 1.264 . S
C64 C57 1.403 . S
C64 C65 1.399 . S
C64 H70 0.929 . S
C65 C45 1.449 . S
C65 C64 1.399 . S
C65 H71 0.930 . S
H66 C46 0.931 . S
H67 C47 0.913 1_445 S
H68 C55 0.931 . S
H69 C56 0.929 . S
H70 C64 0.929 . S
H71 C65 0.930 . S
Mn72 O77 2.095 . S
Mn72 O87 2.162 . S
Mn72 O88 2.297 . S
Mn72 O96 2.385 1_655 S
Mn72 O97 2.209 1_654 S
Mn72 O98 2.094 . S
Mn73 O78 2.121 . S
Mn73 N80 2.257 1_655 S
Mn73 N89 2.282 1_655 S
Mn73 O97 2.215 1_655 S
Mn73 O99 2.117 . S
C74 O96 1.234 . S
C74 O97 1.283 1_554 S
C75 O87 1.281 . S
C75 O88 1.236 . S
C76 O98 1.240 1_556 S
C76 O99 1.264 . S
O77 Mn72 2.095 . S
O77 C86 1.250 . S
O78 Mn73 2.121 . S
O78 C86 1.258 1_556 S
C79 N80 1.326 1_655 S
C79 C83 1.460 1_655 S
C79 H85 0.929 . S
N80 Mn73 2.257 1_455 S
N80 C79 1.326 1_455 S
N80 C84 1.362 . S
C81 C82 1.258 . S
C81 C84 1.431 . S
C81 C101 1.449 . S
C82 C81 1.258 . S
C82 C83 1.477 . S
C82 H102 0.931 1_565 S
C83 C79 1.460 1_455 S
C83 C82 1.477 . S
C83 H103 0.930 1_455 S
C84 N80 1.362 . S
C84 C81 1.431 . S
C84 C94 1.476 . S
H85 C79 0.929 . S
C86 O77 1.250 . S
C86 O78 1.258 1_554 S
O87 Mn72 2.162 . S
O87 C75 1.281 . S
O88 Mn72 2.297 . S
O88 C75 1.236 . S
N89 Mn73 2.282 1_455 S
N89 C90 1.328 . S
N89 C94 1.318 . S
C90 N89 1.328 . S
C90 C91 1.457 . S
C90 H95 0.929 . S
C91 C90 1.457 . S
C91 C92 1.291 . S
C91 H104 0.931 . S
C92 C91 1.291 . S
C92 C93 1.373 . S
C92 H105 0.929 . S
C93 C92 1.373 . S
C93 C94 1.396 . S
C93 C100 1.403 . S
C94 C84 1.476 . S
C94 N89 1.318 . S
C94 C93 1.396 . S
H95 C90 0.929 . S
O96 Mn72 2.385 1_455 S
O96 C74 1.234 . S
O97 Mn72 2.209 1_456 S
O97 Mn73 2.215 1_455 S
O97 C74 1.283 1_556 S
O98 Mn72 2.094 . S
O98 C76 1.240 1_554 S
O99 Mn73 2.117 . S
O99 C76 1.264 . S
C100 C93 1.403 . S
C100 C101 1.399 . S
C100 H106 0.929 . S
C101 C81 1.449 . S
C101 C100 1.399 . S
C101 H107 0.930 1_565 S
H102 C82 0.931 1_545 S
H103 C83 0.930 1_655 S
H104 C91 0.931 . S
H105 C92 0.929 . S
H106 C100 0.929 . S
H107 C101 0.930 1_545 S
Mn108 O113 2.095 . S
Mn108 O123 2.162 . S
Mn108 O124 2.297 . S
Mn108 O132 2.385 . S
Mn108 O133 2.209 . S
Mn108 O134 2.094 . S
Mn109 O114 2.121 . S
Mn109 N116 2.257 . S
Mn109 N125 2.282 . S
Mn109 O133 2.215 . S
Mn109 O135 2.117 . S
C110 O132 1.234 . S
C110 O133 1.283 . S
C111 O123 1.281 . S
C111 O124 1.236 . S
C112 O134 1.240 . S
C112 O135 1.264 . S
O113 Mn108 2.095 . S
O113 C122 1.250 . S
O114 Mn109 2.121 . S
O114 C122 1.258 . S
C115 N116 1.326 . S
C115 C119 1.460 . S
C115 H121 0.929 . S
N116 Mn109 2.257 . S
N116 C115 1.326 . S
N116 C120 1.362 . S
C117 C118 1.258 . S
C117 C120 1.431 . S
C117 C137 1.449 . S
C118 C117 1.258 . S
C118 C119 1.477 . S
C118 H138 0.931 1_545 S
C119 C115 1.460 . S
C119 C118 1.477 . S
C119 H139 0.916 1_455 S
C120 N116 1.362 . S
C120 C117 1.431 . S
C120 C130 1.476 . S
H121 C115 0.929 . S
C122 O113 1.250 . S
C122 O114 1.258 . S
O123 Mn108 2.162 . S
O123 C111 1.281 . S
O124 Mn108 2.297 . S
O124 C111 1.236 . S
N125 Mn109 2.282 . S
N125 C126 1.328 . S
N125 C130 1.318 . S
C126 N125 1.328 . S
C126 C127 1.457 . S
C126 H131 0.929 . S
C127 C126 1.457 . S
C127 C128 1.291 . S
C127 H140 0.931 . S
C128 C127 1.291 . S
C128 C129 1.373 . S
C128 H141 0.929 . S
C129 C128 1.373 . S
C129 C130 1.396 . S
C129 C136 1.403 . S
C130 C120 1.476 . S
C130 N125 1.318 . S
C130 C129 1.396 . S
H131 C126 0.929 . S
O132 Mn108 2.385 . S
O132 C110 1.234 . S
O133 Mn108 2.209 . S
O133 Mn109 2.215 . S
O133 C110 1.283 . S
O134 Mn108 2.094 . S
O134 C112 1.240 . S
O135 Mn109 2.117 . S
O135 C112 1.264 . S
C136 C129 1.403 . S
C136 C137 1.399 . S
C136 H142 0.929 . S
C137 C117 1.449 . S
C137 C136 1.399 . S
C137 H143 0.930 1_545 S
H138 C118 0.931 1_565 S
H139 C119 0.916 1_655 S
H140 C127 0.931 . S
H141 C128 0.929 . S
H142 C136 0.929 . S
H143 C137 0.930 1_565 S
Mn144 O149 2.095 . S
Mn144 O159 2.162 . S
Mn144 O160 2.297 . S
Mn144 O168 2.385 1_565 S
Mn144 O169 2.209 1_565 S
Mn144 O170 2.094 . S
Mn145 O150 2.121 . S
Mn145 N152 2.257 1_565 S
Mn145 N161 2.282 1_565 S
Mn145 O169 2.215 1_565 S
Mn145 O171 2.117 . S
C146 O168 1.234 . S
C146 O169 1.283 . S
C147 O159 1.281 . S
C147 O160 1.236 . S
C148 O170 1.240 . S
C148 O171 1.264 . S
O149 Mn144 2.095 . S
O149 C158 1.250 . S
O150 Mn145 2.121 . S
O150 C158 1.258 . S
C151 N152 1.326 1_565 S
C151 C155 1.460 1_565 S
C151 H157 0.929 . S
N152 Mn145 2.257 1_545 S
N152 C151 1.326 1_545 S
N152 C156 1.362 . S
C153 C154 1.258 . S
C153 C156 1.431 . S
C153 C173 1.449 . S
C154 C153 1.258 . S
C154 C155 1.477 . S
C154 H174 0.931 1_655 S
C155 C151 1.460 1_545 S
C155 C154 1.477 . S
C155 H175 0.930 1_545 S
C156 N152 1.362 . S
C156 C153 1.431 . S
C156 C166 1.476 . S
H157 C151 0.929 . S
C158 O149 1.250 . S
C158 O150 1.258 . S
O159 Mn144 2.162 . S
O159 C147 1.281 . S
O160 Mn144 2.297 . S
O160 C147 1.236 . S
N161 Mn145 2.282 1_545 S
N161 C162 1.328 . S
N161 C166 1.318 . S
C162 N161 1.328 . S
C162 C163 1.457 . S
C162 H167 0.929 . S
C163 C162 1.457 . S
C163 C164 1.291 . S
C163 H176 0.931 . S
C164 C163 1.291 . S
C164 C165 1.373 . S
C164 H177 0.929 . S
C165 C164 1.373 . S
C165 C166 1.396 . S
C165 C172 1.403 . S
C166 C156 1.476 . S
C166 N161 1.318 . S
C166 C165 1.396 . S
H167 C162 0.929 . S
O168 Mn144 2.385 1_545 S
O168 C146 1.234 . S
O169 Mn144 2.209 1_545 S
O169 Mn145 2.215 1_545 S
O169 C146 1.283 . S
O170 Mn144 2.094 . S
O170 C148 1.240 . S
O171 Mn145 2.117 . S
O171 C148 1.264 . S
C172 C165 1.403 . S
C172 C173 1.399 . S
C172 H178 0.929 . S
C173 C153 1.449 . S
C173 C172 1.399 . S
C173 H179 0.930 1_655 S
H174 C154 0.931 1_455 S
H175 C155 0.930 1_565 S
H176 C163 0.931 . S
H177 C164 0.929 . S
H178 C172 0.929 . S
H179 C173 0.930 1_455 S
Mn180 O185 2.095 . S
Mn180 O195 2.162 . S
Mn180 O196 2.297 . S
Mn180 O204 2.385 1_455 S
Mn180 O205 2.209 1_455 S
Mn180 O206 2.094 . S
Mn181 O186 2.121 . S
Mn181 N188 2.257 1_455 S
Mn181 N197 2.282 1_455 S
Mn181 O205 2.215 1_455 S
Mn181 O207 2.117 . S
C182 O204 1.234 . S
C182 O205 1.283 . S
C183 O195 1.281 . S
C183 O196 1.236 . S
C184 O206 1.240 . S
C184 O207 1.264 . S
O185 Mn180 2.095 . S
O185 C194 1.250 . S
O186 Mn181 2.121 . S
O186 C194 1.258 . S
C187 N188 1.326 1_455 S
C187 C191 1.460 1_455 S
C187 H193 0.929 . S
N188 Mn181 2.257 1_655 S
N188 C187 1.326 1_655 S
N188 C192 1.362 . S
C189 C190 1.258 . S
C189 C192 1.431 . S
C189 C209 1.449 . S
C190 C189 1.258 . S
C190 C191 1.477 . S
C190 H210 0.931 . S
C191 C187 1.460 1_655 S
C191 C190 1.477 . S
C191 H211 0.914 1_665 S
C192 N188 1.362 . S
C192 C189 1.431 . S
C192 C202 1.476 . S
H193 C187 0.929 . S
C194 O185 1.250 . S
C194 O186 1.258 . S
O195 Mn180 2.162 . S
O195 C183 1.281 . S
O196 Mn180 2.297 . S
O196 C183 1.236 . S
N197 Mn181 2.282 1_655 S
N197 C198 1.328 . S
N197 C202 1.318 . S
C198 N197 1.328 . S
C198 C199 1.457 . S
C198 H203 0.929 . S
C199 C198 1.457 . S
C199 C200 1.291 . S
C199 H212 0.931 . S
C200 C199 1.291 . S
C200 C201 1.373 . S
C200 H213 0.929 . S
C201 C200 1.373 . S
C201 C202 1.396 . S
C201 C208 1.403 . S
C202 C192 1.476 . S
C202 N197 1.318 . S
C202 C201 1.396 . S
H203 C198 0.929 . S
O204 Mn180 2.385 1_655 S
O204 C182 1.234 . S
O205 Mn180 2.209 1_655 S
O205 Mn181 2.215 1_655 S
O205 C182 1.283 . S
O206 Mn180 2.094 . S
O206 C184 1.240 . S
O207 Mn181 2.117 . S
O207 C184 1.264 . S
C208 C201 1.403 . S
C208 C209 1.399 . S
C208 H214 0.929 . S
C209 C189 1.449 . S
C209 C208 1.399 . S
C209 H215 0.930 . S
H210 C190 0.931 . S
H211 C191 0.914 1_445 S
H212 C199 0.931 . S
H213 C200 0.929 . S
H214 C208 0.929 . S
H215 C209 0.930 . S
Mn216 O221 2.095 . S
Mn216 O231 2.162 . S
Mn216 O232 2.297 . S
Mn216 O240 2.385 . S
Mn216 O241 2.209 1_556 S
Mn216 O242 2.094 . S
Mn217 O222 2.121 . S
Mn217 N224 2.257 . S
Mn217 N233 2.282 . S
Mn217 O241 2.215 . S
Mn217 O243 2.117 . S
C218 O240 1.234 . S
C218 O241 1.283 1_556 S
C219 O231 1.281 . S
C219 O232 1.236 . S
C220 O242 1.240 1_554 S
C220 O243 1.264 . S
O221 Mn216 2.095 . S
O221 C230 1.250 . S
O222 Mn217 2.121 . S
O222 C230 1.258 1_554 S
C223 N224 1.326 . S
C223 C227 1.460 . S
C223 H229 0.929 . S
N224 Mn217 2.257 . S
N224 C223 1.326 . S
N224 C228 1.362 . S
C225 C226 1.258 . S
C225 C228 1.431 . S
C225 C245 1.449 . S
C226 C225 1.258 . S
C226 C227 1.477 . S
C226 H246 0.931 1_655 S
C227 C223 1.460 . S
C227 C226 1.477 . S
C227 H247 0.916 1_565 S
C228 N224 1.362 . S
C228 C225 1.431 . S
C228 C238 1.476 . S
H229 C223 0.929 . S
C230 O221 1.250 . S
C230 O222 1.258 1_556 S
O231 Mn216 2.162 . S
O231 C219 1.281 . S
O232 Mn216 2.297 . S
O232 C219 1.236 . S
N233 Mn217 2.282 . S
N233 C234 1.328 . S
N233 C238 1.318 . S
C234 N233 1.328 . S
C234 C235 1.457 . S
C234 H239 0.929 . S
C235 C234 1.457 . S
C235 C236 1.291 . S
C235 H248 0.931 . S
C236 C235 1.291 . S
C236 C237 1.373 . S
C236 H249 0.929 . S
C237 C236 1.373 . S
C237 C238 1.396 . S
C237 C244 1.403 . S
C238 C228 1.476 . S
C238 N233 1.318 . S
C238 C237 1.396 . S
H239 C234 0.929 . S
O240 Mn216 2.385 . S
O240 C218 1.234 . S
O241 Mn216 2.209 1_554 S
O241 Mn217 2.215 . S
O241 C218 1.283 1_554 S
O242 Mn216 2.094 . S
O242 C220 1.240 1_556 S
O243 Mn217 2.117 . S
O243 C220 1.264 . S
C244 C237 1.403 . S
C244 C245 1.399 . S
C244 H250 0.929 . S
C245 C225 1.449 . S
C245 C244 1.399 . S
C245 H251 0.930 1_655 S
H246 C226 0.931 1_455 S
H247 C227 0.916 1_545 S
H248 C235 0.931 . S
H249 C236 0.929 . S
H250 C244 0.929 . S
H251 C245 0.930 1_455 S
Mn252 O257 2.095 . S
Mn252 O267 2.162 . S
Mn252 O268 2.297 . S
Mn252 O276 2.385 1_565 S
Mn252 O277 2.209 1_566 S
Mn252 O278 2.094 . S
Mn253 O258 2.121 . S
Mn253 N260 2.257 1_565 S
Mn253 N269 2.282 1_565 S
Mn253 O277 2.215 1_565 S
Mn253 O279 2.117 . S
C254 O276 1.234 . S
C254 O277 1.283 1_556 S
C255 O267 1.281 . S
C255 O268 1.236 . S
C256 O278 1.240 1_554 S
C256 O279 1.264 . S
O257 Mn252 2.095 . S
O257 C266 1.250 . S
O258 Mn253 2.121 . S
O258 C266 1.258 1_554 S
C259 N260 1.326 1_565 S
C259 C263 1.460 1_565 S
C259 H265 0.929 . S
N260 Mn253 2.257 1_545 S
N260 C259 1.326 1_545 S
N260 C264 1.362 . S
C261 C262 1.258 . S
C261 C264 1.431 . S
C261 C281 1.449 . S
C262 C261 1.258 . S
C262 C263 1.477 . S
C262 H282 0.931 . S
C263 C259 1.460 1_545 S
C263 C262 1.477 . S
C263 H283 0.913 1_445 S
C264 N260 1.362 . S
C264 C261 1.431 . S
C264 C274 1.476 . S
H265 C259 0.929 . S
C266 O257 1.250 . S
C266 O258 1.258 1_556 S
O267 Mn252 2.162 . S
O267 C255 1.281 . S
O268 Mn252 2.297 . S
O268 C255 1.236 . S
N269 Mn253 2.282 1_545 S
N269 C270 1.328 . S
N269 C274 1.318 . S
C270 N269 1.328 . S
C270 C271 1.457 . S
C270 H275 0.929 . S
C271 C270 1.457 . S
C271 C272 1.291 . S
C271 H284 0.931 . S
C272 C271 1.291 . S
C272 C273 1.373 . S
C272 H285 0.929 . S
C273 C272 1.373 . S
C273 C274 1.396 . S
C273 C280 1.403 . S
C274 C264 1.476 . S
C274 N269 1.318 . S
C274 C273 1.396 . S
H275 C270 0.929 . S
O276 Mn252 2.385 1_545 S
O276 C254 1.234 . S
O277 Mn252 2.209 1_544 S
O277 Mn253 2.215 1_545 S
O277 C254 1.283 1_554 S
O278 Mn252 2.094 . S
O278 C256 1.240 1_556 S
O279 Mn253 2.117 . S
O279 C256 1.264 . S
C280 C273 1.403 . S
C280 C281 1.399 . S
C280 H286 0.929 . S
C281 C261 1.449 . S
C281 C280 1.399 . S
C281 H287 0.930 . S
H282 C262 0.931 . S
H283 C263 0.913 1_665 S
H284 C271 0.931 . S
H285 C272 0.929 . S
H286 C280 0.929 . S
H287 C281 0.930 . S
Mn288 O293 2.095 . S
Mn288 O303 2.162 . S
Mn288 O304 2.297 . S
Mn288 O312 2.385 1_455 S
Mn288 O313 2.209 1_456 S
Mn288 O314 2.094 . S
Mn289 O294 2.121 . S
Mn289 N296 2.257 1_455 S
Mn289 N305 2.282 1_455 S
Mn289 O313 2.215 1_455 S
Mn289 O315 2.117 . S
C290 O312 1.234 . S
C290 O313 1.283 1_556 S
C291 O303 1.281 . S
C291 O304 1.236 . S
C292 O314 1.240 1_554 S
C292 O315 1.264 . S
O293 Mn288 2.095 . S
O293 C302 1.250 . S
O294 Mn289 2.121 . S
O294 C302 1.258 1_554 S
C295 N296 1.326 1_455 S
C295 C299 1.460 1_455 S
C295 H301 0.929 . S
N296 Mn289 2.257 1_655 S
N296 C295 1.326 1_655 S
N296 C300 1.362 . S
C297 C298 1.258 . S
C297 C300 1.431 . S
C297 C317 1.449 . S
C298 C297 1.258 . S
C298 C299 1.477 . S
C298 H318 0.931 1_545 S
C299 C295 1.460 1_655 S
C299 C298 1.477 . S
C299 H319 0.930 1_655 S
C300 N296 1.362 . S
C300 C297 1.431 . S
C300 C310 1.476 . S
H301 C295 0.929 . S
C302 O293 1.250 . S
C302 O294 1.258 1_556 S
O303 Mn288 2.162 . S
O303 C291 1.281 . S
O304 Mn288 2.297 . S
O304 C291 1.236 . S
N305 Mn289 2.282 1_655 S
N305 C306 1.328 . S
N305 C310 1.318 . S
C306 N305 1.328 . S
C306 C307 1.457 . S
C306 H311 0.929 . S
C307 C306 1.457 . S
C307 C308 1.291 . S
C307 H320 0.931 . S
C308 C307 1.291 . S
C308 C309 1.373 . S
C308 H321 0.929 . S
C309 C308 1.373 . S
C309 C310 1.396 . S
C309 C316 1.403 . S
C310 C300 1.476 . S
C310 N305 1.318 . S
C310 C309 1.396 . S
H311 C306 0.929 . S
O312 Mn288 2.385 1_655 S
O312 C290 1.234 . S
O313 Mn288 2.209 1_654 S
O313 Mn289 2.215 1_655 S
O313 C290 1.283 1_554 S
O314 Mn288 2.094 . S
O314 C292 1.240 1_556 S
O315 Mn289 2.117 . S
O315 C292 1.264 . S
C316 C309 1.403 . S
C316 C317 1.399 . S
C316 H322 0.929 . S
C317 C297 1.449 . S
C317 C316 1.399 . S
C317 H323 0.930 1_545 S
H318 C298 0.931 1_565 S
H319 C299 0.930 1_455 S
H320 C307 0.931 . S
H321 C308 0.929 . S
H322 C316 0.929 . S
H323 C317 0.930 1_565 S
Mn324 O329 2.095 . S
Mn324 O339 2.162 . S
Mn324 O340 2.297 . S
Mn324 O348 2.385 . S
Mn324 O349 2.209 . S
Mn324 O350 2.094 . S
Mn325 O330 2.121 . S
Mn325 N332 2.257 . S
Mn325 N341 2.282 . S
Mn325 O349 2.215 . S
Mn325 O351 2.117 . S
C326 O348 1.234 . S
C326 O349 1.283 . S
C327 O339 1.281 . S
C327 O340 1.236 . S
C328 O350 1.240 . S
C328 O351 1.264 . S
O329 Mn324 2.095 . S
O329 C338 1.250 . S
O330 Mn325 2.121 . S
O330 C338 1.258 . S
C331 N332 1.326 . S
C331 C335 1.460 . S
C331 H337 0.929 . S
N332 Mn325 2.257 . S
N332 C331 1.326 . S
N332 C336 1.362 . S
C333 C334 1.258 . S
C333 C336 1.431 . S
C333 C353 1.449 . S
C334 C333 1.258 . S
C334 C335 1.477 . S
C334 H354 0.931 1_565 S
C335 C331 1.460 . S
C335 C334 1.477 . S
C335 H355 0.916 1_655 S
C336 N332 1.362 . S
C336 C333 1.431 . S
C336 C346 1.476 . S
H337 C331 0.929 . S
C338 O329 1.250 . S
C338 O330 1.258 . S
O339 Mn324 2.162 . S
O339 C327 1.281 . S
O340 Mn324 2.297 . S
O340 C327 1.236 . S
N341 Mn325 2.282 . S
N341 C342 1.328 . S
N341 C346 1.318 . S
C342 N341 1.328 . S
C342 C343 1.457 . S
C342 H347 0.929 . S
C343 C342 1.457 . S
C343 C344 1.291 . S
C343 H356 0.931 . S
C344 C343 1.291 . S
C344 C345 1.373 . S
C344 H357 0.929 . S
C345 C344 1.373 . S
C345 C346 1.396 . S
C345 C352 1.403 . S
C346 C336 1.476 . S
C346 N341 1.318 . S
C346 C345 1.396 . S
H347 C342 0.929 . S
O348 Mn324 2.385 . S
O348 C326 1.234 . S
O349 Mn324 2.209 . S
O349 Mn325 2.215 . S
O349 C326 1.283 . S
O350 Mn324 2.094 . S
O350 C328 1.240 . S
O351 Mn325 2.117 . S
O351 C328 1.264 . S
C352 C345 1.403 . S
C352 C353 1.399 . S
C352 H358 0.929 . S
C353 C333 1.449 . S
C353 C352 1.399 . S
C353 H359 0.930 1_565 S
H354 C334 0.931 1_545 S
H355 C335 0.916 1_455 S
H356 C343 0.931 . S
H357 C344 0.929 . S
H358 C352 0.929 . S
H359 C353 0.930 1_545 S
Mn360 O365 2.095 . S
Mn360 O375 2.162 . S
Mn360 O376 2.297 . S
Mn360 O384 2.385 1_545 S
Mn360 O385 2.209 1_545 S
Mn360 O386 2.094 . S
Mn361 O366 2.121 . S
Mn361 N368 2.257 1_545 S
Mn361 N377 2.282 1_545 S
Mn361 O385 2.215 1_545 S
Mn361 O387 2.117 . S
C362 O384 1.234 . S
C362 O385 1.283 . S
C363 O375 1.281 . S
C363 O376 1.236 . S
C364 O386 1.240 . S
C364 O387 1.264 . S
O365 Mn360 2.095 . S
O365 C374 1.250 . S
O366 Mn361 2.121 . S
O366 C374 1.258 . S
C367 N368 1.326 1_545 S
C367 C371 1.460 1_545 S
C367 H373 0.929 . S
N368 Mn361 2.257 1_565 S
N368 C367 1.326 1_565 S
N368 C372 1.362 . S
C369 C370 1.258 . S
C369 C372 1.431 . S
C369 C389 1.449 . S
C370 C369 1.258 . S
C370 C371 1.477 . S
C370 H390 0.931 1_455 S
C371 C367 1.460 1_565 S
C371 C370 1.477 . S
C371 H391 0.930 1_565 S
C372 N368 1.362 . S
C372 C369 1.431 . S
C372 C382 1.476 . S
H373 C367 0.929 . S
C374 O365 1.250 . S
C374 O366 1.258 . S
O375 Mn360 2.162 . S
O375 C363 1.281 . S
O376 Mn360 2.297 . S
O376 C363 1.236 . S
N377 Mn361 2.282 1_565 S
N377 C378 1.328 . S
N377 C382 1.318 . S
C378 N377 1.328 . S
C378 C379 1.457 . S
C378 H383 0.929 . S
C379 C378 1.457 . S
C379 C380 1.291 . S
C379 H392 0.931 . S
C380 C379 1.291 . S
C380 C381 1.373 . S
C380 H393 0.929 . S
C381 C380 1.373 . S
C381 C382 1.396 . S
C381 C388 1.403 . S
C382 C372 1.476 . S
C382 N377 1.318 . S
C382 C381 1.396 . S
H383 C378 0.929 . S
O384 Mn360 2.385 1_565 S
O384 C362 1.234 . S
O385 Mn360 2.209 1_565 S
O385 Mn361 2.215 1_565 S
O385 C362 1.283 . S
O386 Mn360 2.094 . S
O386 C364 1.240 . S
O387 Mn361 2.117 . S
O387 C364 1.264 . S
C388 C381 1.403 . S
C388 C389 1.399 . S
C388 H394 0.929 . S
C389 C369 1.449 . S
C389 C388 1.399 . S
C389 H395 0.930 1_455 S
H390 C370 0.931 1_655 S
H391 C371 0.930 1_545 S
H392 C379 0.931 . S
H393 C380 0.929 . S
H394 C388 0.929 . S
H395 C389 0.930 1_655 S
Mn396 O401 2.095 . S
Mn396 O411 2.162 . S
Mn396 O412 2.297 . S
Mn396 O420 2.385 1_655 S
Mn396 O421 2.209 1_655 S
Mn396 O422 2.094 . S
Mn397 O402 2.121 . S
Mn397 N404 2.257 1_655 S
Mn397 N413 2.282 1_655 S
Mn397 O421 2.215 1_655 S
Mn397 O423 2.117 . S
C398 O420 1.234 . S
C398 O421 1.283 . S
C399 O411 1.281 . S
C399 O412 1.236 . S
C400 O422 1.240 . S
C400 O423 1.264 . S
O401 Mn396 2.095 . S
O401 C410 1.250 . S
O402 Mn397 2.121 . S
O402 C410 1.258 . S
C403 N404 1.326 1_655 S
C403 C407 1.460 1_655 S
C403 H409 0.929 . S
N404 Mn397 2.257 1_455 S
N404 C403 1.326 1_455 S
N404 C408 1.362 . S
C405 C406 1.258 . S
C405 C408 1.431 . S
C405 C425 1.449 . S
C406 C405 1.258 . S
C406 C407 1.477 . S
C406 H426 0.931 . S
C407 C403 1.460 1_455 S
C407 C406 1.477 . S
C407 H427 0.914 1_445 S
C408 N404 1.362 . S
C408 C405 1.431 . S
C408 C418 1.476 . S
H409 C403 0.929 . S
C410 O401 1.250 . S
C410 O402 1.258 . S
O411 Mn396 2.162 . S
O411 C399 1.281 . S
O412 Mn396 2.297 . S
O412 C399 1.236 . S
N413 Mn397 2.282 1_455 S
N413 C414 1.328 . S
N413 C418 1.318 . S
C414 N413 1.328 . S
C414 C415 1.457 . S
C414 H419 0.929 . S
C415 C414 1.457 . S
C415 C416 1.291 . S
C415 H428 0.931 . S
C416 C415 1.291 . S
C416 C417 1.373 . S
C416 H429 0.929 . S
C417 C416 1.373 . S
C417 C418 1.396 . S
C417 C424 1.403 . S
C418 C408 1.476 . S
C418 N413 1.318 . S
C418 C417 1.396 . S
H419 C414 0.929 . S
O420 Mn396 2.385 1_455 S
O420 C398 1.234 . S
O421 Mn396 2.209 1_455 S
O421 Mn397 2.215 1_455 S
O421 C398 1.283 . S
O422 Mn396 2.094 . S
O422 C400 1.240 . S
O423 Mn397 2.117 . S
O423 C400 1.264 . S
C424 C417 1.403 . S
C424 C425 1.399 . S
C424 H430 0.929 . S
C425 C405 1.449 . S
C425 C424 1.399 . S
C425 H431 0.930 . S
H426 C406 0.931 . S
H427 C407 0.914 1_665 S
H428 C415 0.931 . S
H429 C416 0.929 . S
H430 C424 0.929 . S
H431 C425 0.930 . S
Mn432 O437 2.095 . S
Mn432 O447 2.162 . S
Mn432 O448 2.297 . S
Mn432 O456 2.385 . S
Mn432 O457 2.209 . S
Mn432 O458 2.094 . S
Mn433 O438 2.121 . S
Mn433 N440 2.257 . S
Mn433 N449 2.282 . S
Mn433 O457 2.215 . S
Mn433 O459 2.117 . S
C434 O456 1.234 . S
C434 O457 1.283 . S
C435 O447 1.281 . S
C435 O448 1.236 . S
C436 O458 1.240 . S
C436 O459 1.264 . S
O437 Mn432 2.095 . S
O437 C446 1.250 . S
O438 Mn433 2.121 . S
O438 C446 1.258 . S
C439 N440 1.326 . S
C439 C443 1.460 . S
C439 H445 0.929 . S
N440 Mn433 2.257 . S
N440 C439 1.326 . S
N440 C444 1.362 . S
C441 C442 1.258 . S
C441 C444 1.431 . S
C441 C461 1.449 . S
C442 C441 1.258 . S
C442 C443 1.477 . S
C442 H462 0.931 . S
C443 C439 1.460 . S
C443 C442 1.477 . S
C443 H463 0.930 . S
C444 N440 1.362 . S
C444 C441 1.431 . S
C444 C454 1.476 . S
H445 C439 0.929 . S
C446 O437 1.250 . S
C446 O438 1.258 . S
O447 Mn432 2.162 . S
O447 C435 1.281 . S
O448 Mn432 2.297 . S
O448 C435 1.236 . S
N449 Mn433 2.282 . S
N449 C450 1.328 . S
N449 C454 1.318 . S
C450 N449 1.328 . S
C450 C451 1.457 . S
C450 H455 0.929 . S
C451 C450 1.457 . S
C451 C452 1.291 . S
C451 H464 0.931 . S
C452 C451 1.291 . S
C452 C453 1.373 . S
C452 H465 0.929 . S
C453 C452 1.373 . S
C453 C454 1.396 . S
C453 C460 1.403 . S
C454 C444 1.476 . S
C454 N449 1.318 . S
C454 C453 1.396 . S
H455 C450 0.929 . S
O456 Mn432 2.385 . S
O456 C434 1.234 . S
O457 Mn432 2.209 . S
O457 Mn433 2.215 . S
O457 C434 1.283 . S
O458 Mn432 2.094 . S
O458 C436 1.240 . S
O459 Mn433 2.117 . S
O459 C436 1.264 . S
C460 C453 1.403 . S
C460 C461 1.399 . S
C460 H466 0.929 . S
C461 C441 1.449 . S
C461 C460 1.399 . S
C461 H467 0.930 . S
H462 C442 0.931 . S
H463 C443 0.930 . S
H464 C451 0.931 . S
H465 C452 0.929 . S
H466 C460 0.929 . S
H467 C461 0.930 . S
Mn468 O473 2.095 . S
Mn468 O483 2.162 . S
Mn468 O484 2.297 . S
Mn468 O492 2.385 . S
Mn468 O493 2.209 . S
Mn468 O494 2.094 . S
Mn469 O474 2.121 . S
Mn469 N476 2.257 . S
Mn469 N485 2.282 . S
Mn469 O493 2.215 . S
Mn469 O495 2.117 . S
C470 O492 1.234 . S
C470 O493 1.283 . S
C471 O483 1.281 . S
C471 O484 1.236 . S
C472 O494 1.240 . S
C472 O495 1.264 . S
O473 Mn468 2.095 . S
O473 C482 1.250 . S
O474 Mn469 2.121 . S
O474 C482 1.258 . S
C475 N476 1.326 . S
C475 C479 1.460 . S
C475 H481 0.929 . S
N476 Mn469 2.257 . S
N476 C475 1.326 . S
N476 C480 1.362 . S
C477 C478 1.258 . S
C477 C480 1.431 . S
C477 C497 1.449 . S
C478 C477 1.258 . S
C478 C479 1.477 . S
C478 H498 0.931 . S
C479 C475 1.460 . S
C479 C478 1.477 . S
C479 H499 0.930 . S
C480 N476 1.362 . S
C480 C477 1.431 . S
C480 C490 1.476 . S
H481 C475 0.929 . S
C482 O473 1.250 . S
C482 O474 1.258 . S
O483 Mn468 2.162 . S
O483 C471 1.281 . S
O484 Mn468 2.297 . S
O484 C471 1.236 . S
N485 Mn469 2.282 . S
N485 C486 1.328 . S
N485 C490 1.318 . S
C486 N485 1.328 . S
C486 C487 1.457 . S
C486 H491 0.929 . S
C487 C486 1.457 . S
C487 C488 1.291 . S
C487 H500 0.931 . S
C488 C487 1.291 . S
C488 C489 1.373 . S
C488 H501 0.929 . S
C489 C488 1.373 . S
C489 C490 1.396 . S
C489 C496 1.403 . S
C490 C480 1.476 . S
C490 N485 1.318 . S
C490 C489 1.396 . S
H491 C486 0.929 . S
O492 Mn468 2.385 . S
O492 C470 1.234 . S
O493 Mn468 2.209 . S
O493 Mn469 2.215 . S
O493 C470 1.283 . S
O494 Mn468 2.094 . S
O494 C472 1.240 . S
O495 Mn469 2.117 . S
O495 C472 1.264 . S
C496 C489 1.403 . S
C496 C497 1.399 . S
C496 H502 0.929 . S
C497 C477 1.449 . S
C497 C496 1.399 . S
C497 H503 0.930 . S
H498 C478 0.931 . S
H499 C479 0.930 . S
H500 C487 0.931 . S
H501 C488 0.929 . S
H502 C496 0.929 . S
H503 C497 0.930 . S
Mn504 O509 2.095 . S
Mn504 O519 2.162 . S
Mn504 O520 2.297 . S
Mn504 O528 2.385 . S
Mn504 O529 2.209 . S
Mn504 O530 2.094 . S
Mn505 O510 2.121 . S
Mn505 N512 2.257 . S
Mn505 N521 2.282 . S
Mn505 O529 2.215 . S
Mn505 O531 2.117 . S
C506 O528 1.234 . S
C506 O529 1.283 . S
C507 O519 1.281 . S
C507 O520 1.236 . S
C508 O530 1.240 . S
C508 O531 1.264 . S
O509 Mn504 2.095 . S
O509 C518 1.250 . S
O510 Mn505 2.121 . S
O510 C518 1.258 . S
C511 N512 1.326 . S
C511 C515 1.460 . S
C511 H517 0.929 . S
N512 Mn505 2.257 . S
N512 C511 1.326 . S
N512 C516 1.362 . S
C513 C514 1.258 . S
C513 C516 1.431 . S
C513 C533 1.449 . S
C514 C513 1.258 . S
C514 C515 1.477 . S
C514 H534 0.931 . S
C515 C511 1.460 . S
C515 C514 1.477 . S
C515 H535 0.930 . S
C516 N512 1.362 . S
C516 C513 1.431 . S
C516 C526 1.476 . S
H517 C511 0.929 . S
C518 O509 1.250 . S
C518 O510 1.258 . S
O519 Mn504 2.162 . S
O519 C507 1.281 . S
O520 Mn504 2.297 . S
O520 C507 1.236 . S
N521 Mn505 2.282 . S
N521 C522 1.328 . S
N521 C526 1.318 . S
C522 N521 1.328 . S
C522 C523 1.457 . S
C522 H527 0.929 . S
C523 C522 1.457 . S
C523 C524 1.291 . S
C523 H536 0.931 . S
C524 C523 1.291 . S
C524 C525 1.373 . S
C524 H537 0.929 . S
C525 C524 1.373 . S
C525 C526 1.396 . S
C525 C532 1.403 . S
C526 C516 1.476 . S
C526 N521 1.318 . S
C526 C525 1.396 . S
H527 C522 0.929 . S
O528 Mn504 2.385 . S
O528 C506 1.234 . S
O529 Mn504 2.209 . S
O529 Mn505 2.215 . S
O529 C506 1.283 . S
O530 Mn504 2.094 . S
O530 C508 1.240 . S
O531 Mn505 2.117 . S
O531 C508 1.264 . S
C532 C525 1.403 . S
C532 C533 1.399 . S
C532 H538 0.929 . S
C533 C513 1.449 . S
C533 C532 1.399 . S
C533 H539 0.930 . S
H534 C514 0.931 . S
H535 C515 0.930 . S
H536 C523 0.931 . S
H537 C524 0.929 . S
H538 C532 0.929 . S
H539 C533 0.930 . S
Mn540 O545 2.095 . S
Mn540 O555 2.162 . S
Mn540 O556 2.297 . S
Mn540 O564 2.385 . S
Mn540 O565 2.209 . S
Mn540 O566 2.094 . S
Mn541 O546 2.121 . S
Mn541 N548 2.257 . S
Mn541 N557 2.282 1_556 S
Mn541 O565 2.215 . S
Mn541 O567 2.117 . S
C542 O564 1.234 . S
C542 O565 1.283 . S
C543 O555 1.281 . S
C543 O556 1.236 . S
C544 O566 1.240 . S
C544 O567 1.264 . S
O545 Mn540 2.095 . S
O545 C554 1.250 . S
O546 Mn541 2.121 . S
O546 C554 1.258 . S
C547 N548 1.326 . S
C547 C551 1.460 1_556 S
C547 H553 0.929 . S
N548 Mn541 2.257 . S
N548 C547 1.326 . S
N548 C552 1.362 1_556 S
C549 C550 1.258 . S
C549 C552 1.431 . S
C549 C569 1.449 . S
C550 C549 1.258 . S
C550 C551 1.477 . S
C550 H570 0.931 . S
C551 C547 1.460 1_554 S
C551 C550 1.477 . S
C551 H571 0.930 . S
C552 N548 1.362 1_554 S
C552 C549 1.431 . S
C552 C562 1.476 . S
H553 C547 0.929 . S
C554 O545 1.250 . S
C554 O546 1.258 . S
O555 Mn540 2.162 . S
O555 C543 1.281 . S
O556 Mn540 2.297 . S
O556 C543 1.236 . S
N557 Mn541 2.282 1_554 S
N557 C558 1.328 . S
N557 C562 1.318 . S
C558 N557 1.328 . S
C558 C559 1.457 . S
C558 H563 0.929 . S
C559 C558 1.457 . S
C559 C560 1.291 . S
C559 H572 0.931 1_655 S
C560 C559 1.291 . S
C560 C561 1.373 . S
C560 H573 0.929 . S
C561 C560 1.373 . S
C561 C562 1.396 . S
C561 C568 1.403 . S
C562 C552 1.476 . S
C562 N557 1.318 . S
C562 C561 1.396 . S
H563 C558 0.929 . S
O564 Mn540 2.385 . S
O564 C542 1.234 . S
O565 Mn540 2.209 . S
O565 Mn541 2.215 . S
O565 C542 1.283 . S
O566 Mn540 2.094 . S
O566 C544 1.240 . S
O567 Mn541 2.117 . S
O567 C544 1.264 . S
C568 C561 1.403 . S
C568 C569 1.399 . S
C568 H574 0.929 . S
C569 C549 1.449 . S
C569 C568 1.399 . S
C569 H575 0.930 . S
H570 C550 0.931 . S
H571 C551 0.930 . S
H572 C559 0.931 1_455 S
H573 C560 0.929 . S
H574 C568 0.929 . S
H575 C569 0.930 . S
Mn576 O581 2.095 . S
Mn576 O591 2.162 . S
Mn576 O592 2.297 . S
Mn576 O600 2.385 . S
Mn576 O601 2.209 . S
Mn576 O602 2.094 . S
Mn577 O582 2.121 . S
Mn577 N584 2.257 . S
Mn577 N593 2.282 1_556 S
Mn577 O601 2.215 . S
Mn577 O603 2.117 . S
C578 O600 1.234 . S
C578 O601 1.283 . S
C579 O591 1.281 . S
C579 O592 1.236 . S
C580 O602 1.240 . S
C580 O603 1.264 . S
O581 Mn576 2.095 . S
O581 C590 1.250 . S
O582 Mn577 2.121 . S
O582 C590 1.258 . S
C583 N584 1.326 . S
C583 C587 1.460 1_556 S
C583 H589 0.929 . S
N584 Mn577 2.257 . S
N584 C583 1.326 . S
N584 C588 1.362 1_556 S
C585 C586 1.258 . S
C585 C588 1.431 . S
C585 C605 1.449 . S
C586 C585 1.258 . S
C586 C587 1.477 . S
C586 H606 0.931 . S
C587 C583 1.460 1_554 S
C587 C586 1.477 . S
C587 H607 0.930 . S
C588 N584 1.362 1_554 S
C588 C585 1.431 . S
C588 C598 1.476 . S
H589 C583 0.929 . S
C590 O581 1.250 . S
C590 O582 1.258 . S
O591 Mn576 2.162 . S
O591 C579 1.281 . S
O592 Mn576 2.297 . S
O592 C579 1.236 . S
N593 Mn577 2.282 1_554 S
N593 C594 1.328 . S
N593 C598 1.318 . S
C594 N593 1.328 . S
C594 C595 1.457 . S
C594 H599 0.929 . S
C595 C594 1.457 . S
C595 C596 1.291 . S
C595 H608 0.931 . S
C596 C595 1.291 . S
C596 C597 1.373 . S
C596 H609 0.929 . S
C597 C596 1.373 . S
C597 C598 1.396 . S
C597 C604 1.403 . S
C598 C588 1.476 . S
C598 N593 1.318 . S
C598 C597 1.396 . S
H599 C594 0.929 . S
O600 Mn576 2.385 . S
O600 C578 1.234 . S
O601 Mn576 2.209 . S
O601 Mn577 2.215 . S
O601 C578 1.283 . S
O602 Mn576 2.094 . S
O602 C580 1.240 . S
O603 Mn577 2.117 . S
O603 C580 1.264 . S
C604 C597 1.403 . S
C604 C605 1.399 . S
C604 H610 0.929 . S
C605 C585 1.449 . S
C605 C604 1.399 . S
C605 H611 0.930 . S
H606 C586 0.931 . S
H607 C587 0.930 . S
H608 C595 0.931 . S
H609 C596 0.929 . S
H610 C604 0.929 . S
H611 C605 0.930 . S
Mn612 O617 2.095 . S
Mn612 O627 2.162 . S
Mn612 O628 2.297 . S
Mn612 O636 2.385 . S
Mn612 O637 2.209 . S
Mn612 O638 2.094 . S
Mn613 O618 2.121 . S
Mn613 N620 2.257 . S
Mn613 N629 2.282 1_556 S
Mn613 O637 2.215 . S
Mn613 O639 2.117 . S
C614 O636 1.234 . S
C614 O637 1.283 . S
C615 O627 1.281 . S
C615 O628 1.236 . S
C616 O638 1.240 . S
C616 O639 1.264 . S
O617 Mn612 2.095 . S
O617 C626 1.250 . S
O618 Mn613 2.121 . S
O618 C626 1.258 . S
C619 N620 1.326 . S
C619 C623 1.460 1_556 S
C619 H625 0.929 . S
N620 Mn613 2.257 . S
N620 C619 1.326 . S
N620 C624 1.362 1_556 S
C621 C622 1.258 . S
C621 C624 1.431 . S
C621 C641 1.449 . S
C622 C621 1.258 . S
C622 C623 1.477 . S
C622 H642 0.931 . S
C623 C619 1.460 1_554 S
C623 C622 1.477 . S
C623 H643 0.930 . S
C624 N620 1.362 1_554 S
C624 C621 1.431 . S
C624 C634 1.476 . S
H625 C619 0.929 . S
C626 O617 1.250 . S
C626 O618 1.258 . S
O627 Mn612 2.162 . S
O627 C615 1.281 . S
O628 Mn612 2.297 . S
O628 C615 1.236 . S
N629 Mn613 2.282 1_554 S
N629 C630 1.328 . S
N629 C634 1.318 . S
C630 N629 1.328 . S
C630 C631 1.457 . S
C630 H635 0.929 . S
C631 C630 1.457 . S
C631 C632 1.291 . S
C631 H644 0.931 1_545 S
C632 C631 1.291 . S
C632 C633 1.373 . S
C632 H645 0.929 . S
C633 C632 1.373 . S
C633 C634 1.396 . S
C633 C640 1.403 . S
C634 C624 1.476 . S
C634 N629 1.318 . S
C634 C633 1.396 . S
H635 C630 0.929 . S
O636 Mn612 2.385 . S
O636 C614 1.234 . S
O637 Mn612 2.209 . S
O637 Mn613 2.215 . S
O637 C614 1.283 . S
O638 Mn612 2.094 . S
O638 C616 1.240 . S
O639 Mn613 2.117 . S
O639 C616 1.264 . S
C640 C633 1.403 . S
C640 C641 1.399 . S
C640 H646 0.929 . S
C641 C621 1.449 . S
C641 C640 1.399 . S
C641 H647 0.930 . S
H642 C622 0.931 . S
H643 C623 0.930 . S
H644 C631 0.931 1_565 S
H645 C632 0.929 . S
H646 C640 0.929 . S
H647 C641 0.930 . S
Mn648 O653 2.095 . S
Mn648 O663 2.162 . S
Mn648 O664 2.297 . S
Mn648 O672 2.385 . S
Mn648 O673 2.209 . S
Mn648 O674 2.094 . S
Mn649 O654 2.121 . S
Mn649 N656 2.257 . S
Mn649 N665 2.282 . S
Mn649 O673 2.215 . S
Mn649 O675 2.117 . S
C650 O672 1.234 . S
C650 O673 1.283 . S
C651 O663 1.281 . S
C651 O664 1.236 . S
C652 O674 1.240 . S
C652 O675 1.264 . S
O653 Mn648 2.095 . S
O653 C662 1.250 . S
O654 Mn649 2.121 . S
O654 C662 1.258 . S
C655 N656 1.326 . S
C655 C659 1.460 . S
C655 H661 0.929 . S
N656 Mn649 2.257 . S
N656 C655 1.326 . S
N656 C660 1.362 . S
C657 C658 1.258 . S
C657 C660 1.431 . S
C657 C677 1.449 . S
C658 C657 1.258 . S
C658 C659 1.477 . S
C658 H678 0.931 . S
C659 C655 1.460 . S
C659 C658 1.477 . S
C659 H679 0.930 . S
C660 N656 1.362 . S
C660 C657 1.431 . S
C660 C670 1.476 . S
H661 C655 0.929 . S
C662 O653 1.250 . S
C662 O654 1.258 . S
O663 Mn648 2.162 . S
O663 C651 1.281 . S
O664 Mn648 2.297 . S
O664 C651 1.236 . S
N665 Mn649 2.282 . S
N665 C666 1.328 . S
N665 C670 1.318 . S
C666 N665 1.328 . S
C666 C667 1.457 . S
C666 H671 0.929 . S
C667 C666 1.457 . S
C667 C668 1.291 . S
C667 H680 0.931 1_545 S
C668 C667 1.291 . S
C668 C669 1.373 . S
C668 H681 0.929 . S
C669 C668 1.373 . S
C669 C670 1.396 . S
C669 C676 1.403 . S
C670 C660 1.476 . S
C670 N665 1.318 . S
C670 C669 1.396 . S
H671 C666 0.929 . S
O672 Mn648 2.385 . S
O672 C650 1.234 . S
O673 Mn648 2.209 . S
O673 Mn649 2.215 . S
O673 C650 1.283 . S
O674 Mn648 2.094 . S
O674 C652 1.240 . S
O675 Mn649 2.117 . S
O675 C652 1.264 . S
C676 C669 1.403 . S
C676 C677 1.399 . S
C676 H682 0.929 . S
C677 C657 1.449 . S
C677 C676 1.399 . S
C677 H683 0.930 . S
H678 C658 0.931 . S
H679 C659 0.930 . S
H680 C667 0.931 1_565 S
H681 C668 0.929 . S
H682 C676 0.929 . S
H683 C677 0.930 . S
Mn684 O689 2.095 . S
Mn684 O699 2.162 . S
Mn684 O700 2.297 . S
Mn684 O708 2.385 . S
Mn684 O709 2.209 . S
Mn684 O710 2.094 . S
Mn685 O690 2.121 . S
Mn685 N692 2.257 . S
Mn685 N701 2.282 . S
Mn685 O709 2.215 . S
Mn685 O711 2.117 . S
C686 O708 1.234 . S
C686 O709 1.283 . S
C687 O699 1.281 . S
C687 O700 1.236 . S
C688 O710 1.240 . S
C688 O711 1.264 . S
O689 Mn684 2.095 . S
O689 C698 1.250 . S
O690 Mn685 2.121 . S
O690 C698 1.258 . S
C691 N692 1.326 . S
C691 C695 1.460 . S
C691 H697 0.929 . S
N692 Mn685 2.257 . S
N692 C691 1.326 . S
N692 C696 1.362 . S
C693 C694 1.258 . S
C693 C696 1.431 . S
C693 C713 1.449 . S
C694 C693 1.258 . S
C694 C695 1.477 . S
C694 H714 0.931 . S
C695 C691 1.460 . S
C695 C694 1.477 . S
C695 H715 0.930 . S
C696 N692 1.362 . S
C696 C693 1.431 . S
C696 C706 1.476 . S
H697 C691 0.929 . S
C698 O689 1.250 . S
C698 O690 1.258 . S
O699 Mn684 2.162 . S
O699 C687 1.281 . S
O700 Mn684 2.297 . S
O700 C687 1.236 . S
N701 Mn685 2.282 . S
N701 C702 1.328 . S
N701 C706 1.318 . S
C702 N701 1.328 . S
C702 C703 1.457 . S
C702 H707 0.929 . S
C703 C702 1.457 . S
C703 C704 1.291 . S
C703 H716 0.931 1_655 S
C704 C703 1.291 . S
C704 C705 1.373 . S
C704 H717 0.929 . S
C705 C704 1.373 . S
C705 C706 1.396 . S
C705 C712 1.403 . S
C706 C696 1.476 . S
C706 N701 1.318 . S
C706 C705 1.396 . S
H707 C702 0.929 . S
O708 Mn684 2.385 . S
O708 C686 1.234 . S
O709 Mn684 2.209 . S
O709 Mn685 2.215 . S
O709 C686 1.283 . S
O710 Mn684 2.094 . S
O710 C688 1.240 . S
O711 Mn685 2.117 . S
O711 C688 1.264 . S
C712 C705 1.403 . S
C712 C713 1.399 . S
C712 H718 0.929 . S
C713 C693 1.449 . S
C713 C712 1.399 . S
C713 H719 0.930 . S
H714 C694 0.931 . S
H715 C695 0.930 . S
H716 C703 0.931 1_455 S
H717 C704 0.929 . S
H718 C712 0.929 . S
H719 C713 0.930 . S
Mn720 O725 2.095 . S
Mn720 O735 2.162 . S
Mn720 O736 2.297 . S
Mn720 O744 2.385 . S
Mn720 O745 2.209 . S
Mn720 O746 2.094 . S
Mn721 O726 2.121 . S
Mn721 N728 2.257 . S
Mn721 N737 2.282 . S
Mn721 O745 2.215 . S
Mn721 O747 2.117 . S
C722 O744 1.234 . S
C722 O745 1.283 . S
C723 O735 1.281 . S
C723 O736 1.236 . S
C724 O746 1.240 . S
C724 O747 1.264 . S
O725 Mn720 2.095 . S
O725 C734 1.250 . S
O726 Mn721 2.121 . S
O726 C734 1.258 . S
C727 N728 1.326 . S
C727 C731 1.460 . S
C727 H733 0.929 . S
N728 Mn721 2.257 . S
N728 C727 1.326 . S
N728 C732 1.362 . S
C729 C730 1.258 . S
C729 C732 1.431 . S
C729 C749 1.449 . S
C730 C729 1.258 . S
C730 C731 1.477 . S
C730 H750 0.931 . S
C731 C727 1.460 . S
C731 C730 1.477 . S
C731 H751 0.930 . S
C732 N728 1.362 . S
C732 C729 1.431 . S
C732 C742 1.476 . S
H733 C727 0.929 . S
C734 O725 1.250 . S
C734 O726 1.258 . S
O735 Mn720 2.162 . S
O735 C723 1.281 . S
O736 Mn720 2.297 . S
O736 C723 1.236 . S
N737 Mn721 2.282 . S
N737 C738 1.328 . S
N737 C742 1.318 . S
C738 N737 1.328 . S
C738 C739 1.457 . S
C738 H743 0.929 . S
C739 C738 1.457 . S
C739 C740 1.291 . S
C739 H752 0.931 . S
C740 C739 1.291 . S
C740 C741 1.373 . S
C740 H753 0.929 . S
C741 C740 1.373 . S
C741 C742 1.396 . S
C741 C748 1.403 . S
C742 C732 1.476 . S
C742 N737 1.318 . S
C742 C741 1.396 . S
H743 C738 0.929 . S
O744 Mn720 2.385 . S
O744 C722 1.234 . S
O745 Mn720 2.209 . S
O745 Mn721 2.215 . S
O745 C722 1.283 . S
O746 Mn720 2.094 . S
O746 C724 1.240 . S
O747 Mn721 2.117 . S
O747 C724 1.264 . S
C748 C741 1.403 . S
C748 C749 1.399 . S
C748 H754 0.929 . S
C749 C729 1.449 . S
C749 C748 1.399 . S
C749 H755 0.930 . S
H750 C730 0.931 . S
H751 C731 0.930 . S
H752 C739 0.931 . S
H753 C740 0.929 . S
H754 C748 0.929 . S
H755 C749 0.930 . S
Mn756 O761 2.095 . S
Mn756 O771 2.162 1_556 S
Mn756 O772 2.297 1_556 S
Mn756 O780 2.385 . S
Mn756 O781 2.209 . S
Mn756 O782 2.094 . S
Mn757 O762 2.121 . S
Mn757 N764 2.257 . S
Mn757 N773 2.282 . S
Mn757 O781 2.215 . S
Mn757 O783 2.117 . S
C758 O780 1.234 . S
C758 O781 1.283 . S
C759 O771 1.281 . S
C759 O772 1.236 . S
C760 O782 1.240 . S
C760 O783 1.264 . S
O761 Mn756 2.095 . S
O761 C770 1.250 . S
O762 Mn757 2.121 . S
O762 C770 1.258 . S
C763 N764 1.326 . S
C763 C767 1.460 . S
C763 H769 0.929 . S
N764 Mn757 2.257 . S
N764 C763 1.326 . S
N764 C768 1.362 . S
C765 C766 1.258 . S
C765 C768 1.431 . S
C765 C785 1.449 . S
C766 C765 1.258 . S
C766 C767 1.477 . S
C766 H786 0.931 . S
C767 C763 1.460 . S
C767 C766 1.477 . S
C767 H787 0.930 . S
C768 N764 1.362 . S
C768 C765 1.431 . S
C768 C778 1.476 . S
H769 C763 0.929 . S
C770 O761 1.250 . S
C770 O762 1.258 . S
O771 Mn756 2.162 1_554 S
O771 C759 1.281 . S
O772 Mn756 2.297 1_554 S
O772 C759 1.236 . S
N773 Mn757 2.282 . S
N773 C774 1.328 . S
N773 C778 1.318 . S
C774 N773 1.328 . S
C774 C775 1.457 . S
C774 H779 0.929 . S
C775 C774 1.457 . S
C775 C776 1.291 . S
C775 H788 0.931 . S
C776 C775 1.291 . S
C776 C777 1.373 . S
C776 H789 0.929 . S
C777 C776 1.373 . S
C777 C778 1.396 . S
C777 C784 1.403 . S
C778 C768 1.476 . S
C778 N773 1.318 . S
C778 C777 1.396 . S
H779 C774 0.929 . S
O780 Mn756 2.385 . S
O780 C758 1.234 . S
O781 Mn756 2.209 . S
O781 Mn757 2.215 . S
O781 C758 1.283 . S
O782 Mn756 2.094 . S
O782 C760 1.240 . S
O783 Mn757 2.117 . S
O783 C760 1.264 . S
C784 C777 1.403 . S
C784 C785 1.399 . S
C784 H790 0.929 . S
C785 C765 1.449 . S
C785 C784 1.399 . S
C785 H791 0.930 . S
H786 C766 0.931 . S
H787 C767 0.930 . S
H788 C775 0.931 . S
H789 C776 0.929 . S
H790 C784 0.929 . S
H791 C785 0.930 . S
Mn792 O797 2.095 . S
Mn792 O807 2.162 1_556 S
Mn792 O808 2.297 1_556 S
Mn792 O816 2.385 . S
Mn792 O817 2.209 . S
Mn792 O818 2.094 . S
Mn793 O798 2.121 . S
Mn793 N800 2.257 . S
Mn793 N809 2.282 . S
Mn793 O817 2.215 . S
Mn793 O819 2.117 . S
C794 O816 1.234 . S
C794 O817 1.283 . S
C795 O807 1.281 . S
C795 O808 1.236 . S
C796 O818 1.240 . S
C796 O819 1.264 . S
O797 Mn792 2.095 . S
O797 C806 1.250 . S
O798 Mn793 2.121 . S
O798 C806 1.258 . S
C799 N800 1.326 . S
C799 C803 1.460 . S
C799 H805 0.929 . S
N800 Mn793 2.257 . S
N800 C799 1.326 . S
N800 C804 1.362 . S
C801 C802 1.258 . S
C801 C804 1.431 . S
C801 C821 1.449 . S
C802 C801 1.258 . S
C802 C803 1.477 . S
C802 H822 0.931 . S
C803 C799 1.460 . S
C803 C802 1.477 . S
C803 H823 0.930 . S
C804 N800 1.362 . S
C804 C801 1.431 . S
C804 C814 1.476 . S
H805 C799 0.929 . S
C806 O797 1.250 . S
C806 O798 1.258 . S
O807 Mn792 2.162 1_554 S
O807 C795 1.281 . S
O808 Mn792 2.297 1_554 S
O808 C795 1.236 . S
N809 Mn793 2.282 . S
N809 C810 1.328 . S
N809 C814 1.318 . S
C810 N809 1.328 . S
C810 C811 1.457 . S
C810 H815 0.929 . S
C811 C810 1.457 . S
C811 C812 1.291 . S
C811 H824 0.931 . S
C812 C811 1.291 . S
C812 C813 1.373 . S
C812 H825 0.929 . S
C813 C812 1.373 . S
C813 C814 1.396 . S
C813 C820 1.403 . S
C814 C804 1.476 . S
C814 N809 1.318 . S
C814 C813 1.396 . S
H815 C810 0.929 . S
O816 Mn792 2.385 . S
O816 C794 1.234 . S
O817 Mn792 2.209 . S
O817 Mn793 2.215 . S
O817 C794 1.283 . S
O818 Mn792 2.094 . S
O818 C796 1.240 . S
O819 Mn793 2.117 . S
O819 C796 1.264 . S
C820 C813 1.403 . S
C820 C821 1.399 . S
C820 H826 0.929 . S
C821 C801 1.449 . S
C821 C820 1.399 . S
C821 H827 0.930 . S
H822 C802 0.931 . S
H823 C803 0.930 . S
H824 C811 0.931 . S
H825 C812 0.929 . S
H826 C820 0.929 . S
H827 C821 0.930 . S
Mn828 O833 2.095 . S
Mn828 O843 2.162 1_556 S
Mn828 O844 2.297 1_556 S
Mn828 O852 2.385 . S
Mn828 O853 2.209 . S
Mn828 O854 2.094 . S
Mn829 O834 2.121 . S
Mn829 N836 2.257 . S
Mn829 N845 2.282 . S
Mn829 O853 2.215 . S
Mn829 O855 2.117 . S
C830 O852 1.234 . S
C830 O853 1.283 . S
C831 O843 1.281 . S
C831 O844 1.236 . S
C832 O854 1.240 . S
C832 O855 1.264 . S
O833 Mn828 2.095 . S
O833 C842 1.250 . S
O834 Mn829 2.121 . S
O834 C842 1.258 . S
C835 N836 1.326 . S
C835 C839 1.460 . S
C835 H841 0.929 . S
N836 Mn829 2.257 . S
N836 C835 1.326 . S
N836 C840 1.362 . S
C837 C838 1.258 . S
C837 C840 1.431 . S
C837 C857 1.449 . S
C838 C837 1.258 . S
C838 C839 1.477 . S
C838 H858 0.931 . S
C839 C835 1.460 . S
C839 C838 1.477 . S
C839 H859 0.930 . S
C840 N836 1.362 . S
C840 C837 1.431 . S
C840 C850 1.476 . S
H841 C835 0.929 . S
C842 O833 1.250 . S
C842 O834 1.258 . S
O843 Mn828 2.162 1_554 S
O843 C831 1.281 . S
O844 Mn828 2.297 1_554 S
O844 C831 1.236 . S
N845 Mn829 2.282 . S
N845 C846 1.328 . S
N845 C850 1.318 . S
C846 N845 1.328 . S
C846 C847 1.457 . S
C846 H851 0.929 . S
C847 C846 1.457 . S
C847 C848 1.291 . S
C847 H860 0.931 . S
C848 C847 1.291 . S
C848 C849 1.373 . S
C848 H861 0.929 . S
C849 C848 1.373 . S
C849 C850 1.396 . S
C849 C856 1.403 . S
C850 C840 1.476 . S
C850 N845 1.318 . S
C850 C849 1.396 . S
H851 C846 0.929 . S
O852 Mn828 2.385 . S
O852 C830 1.234 . S
O853 Mn828 2.209 . S
O853 Mn829 2.215 . S
O853 C830 1.283 . S
O854 Mn828 2.094 . S
O854 C832 1.240 . S
O855 Mn829 2.117 . S
O855 C832 1.264 . S
C856 C849 1.403 . S
C856 C857 1.399 . S
C856 H862 0.929 . S
C857 C837 1.449 . S
C857 C856 1.399 . S
C857 H863 0.930 . S
H858 C838 0.931 . S
H859 C839 0.930 . S
H860 C847 0.931 . S
H861 C848 0.929 . S
H862 C856 0.929 . S
H863 C857 0.930 . S
Mn864 O869 2.095 . S
Mn864 O879 2.162 . S
Mn864 O880 2.297 . S
Mn864 O888 2.385 . S
Mn864 O889 2.209 . S
Mn864 O890 2.094 . S
Mn865 O870 2.121 . S
Mn865 N872 2.257 . S
Mn865 N881 2.282 . S
Mn865 O889 2.215 . S
Mn865 O891 2.117 . S
C866 O888 1.234 . S
C866 O889 1.283 . S
C867 O879 1.281 . S
C867 O880 1.236 . S
C868 O890 1.240 . S
C868 O891 1.264 . S
O869 Mn864 2.095 . S
O869 C878 1.250 . S
O870 Mn865 2.121 . S
O870 C878 1.258 . S
C871 N872 1.326 . S
C871 C875 1.460 . S
C871 H877 0.929 . S
N872 Mn865 2.257 . S
N872 C871 1.326 . S
N872 C876 1.362 . S
C873 C874 1.258 . S
C873 C876 1.431 . S
C873 C893 1.449 . S
C874 C873 1.258 . S
C874 C875 1.477 . S
C874 H894 0.931 . S
C875 C871 1.460 . S
C875 C874 1.477 . S
C875 H895 0.930 . S
C876 N872 1.362 . S
C876 C873 1.431 . S
C876 C886 1.476 . S
H877 C871 0.929 . S
C878 O869 1.250 . S
C878 O870 1.258 . S
O879 Mn864 2.162 . S
O879 C867 1.281 . S
O880 Mn864 2.297 . S
O880 C867 1.236 . S
N881 Mn865 2.282 . S
N881 C882 1.328 . S
N881 C886 1.318 . S
C882 N881 1.328 . S
C882 C883 1.457 . S
C882 H887 0.929 . S
C883 C882 1.457 . S
C883 C884 1.291 . S
C883 H896 0.931 1_565 S
C884 C883 1.291 . S
C884 C885 1.373 . S
C884 H897 0.929 . S
C885 C884 1.373 . S
C885 C886 1.396 . S
C885 C892 1.403 . S
C886 C876 1.476 . S
C886 N881 1.318 . S
C886 C885 1.396 . S
H887 C882 0.929 . S
O888 Mn864 2.385 . S
O888 C866 1.234 . S
O889 Mn864 2.209 . S
O889 Mn865 2.215 . S
O889 C866 1.283 . S
O890 Mn864 2.094 . S
O890 C868 1.240 . S
O891 Mn865 2.117 . S
O891 C868 1.264 . S
C892 C885 1.403 . S
C892 C893 1.399 . S
C892 H898 0.929 . S
C893 C873 1.449 . S
C893 C892 1.399 . S
C893 H899 0.930 . S
H894 C874 0.931 . S
H895 C875 0.930 . S
H896 C883 0.931 1_545 S
H897 C884 0.929 . S
H898 C892 0.929 . S
H899 C893 0.930 . S
Mn900 O905 2.095 . S
Mn900 O915 2.162 . S
Mn900 O916 2.297 . S
Mn900 O924 2.385 . S
Mn900 O925 2.209 . S
Mn900 O926 2.094 . S
Mn901 O906 2.121 . S
Mn901 N908 2.257 . S
Mn901 N917 2.282 . S
Mn901 O925 2.215 . S
Mn901 O927 2.117 . S
C902 O924 1.234 . S
C902 O925 1.283 . S
C903 O915 1.281 . S
C903 O916 1.236 . S
C904 O926 1.240 . S
C904 O927 1.264 . S
O905 Mn900 2.095 . S
O905 C914 1.250 . S
O906 Mn901 2.121 . S
O906 C914 1.258 . S
C907 N908 1.326 . S
C907 C911 1.460 . S
C907 H913 0.929 . S
N908 Mn901 2.257 . S
N908 C907 1.326 . S
N908 C912 1.362 . S
C909 C910 1.258 . S
C909 C912 1.431 . S
C909 C929 1.449 . S
C910 C909 1.258 . S
C910 C911 1.477 . S
C910 H930 0.931 . S
C911 C907 1.460 . S
C911 C910 1.477 . S
C911 H931 0.930 . S
C912 N908 1.362 . S
C912 C909 1.431 . S
C912 C922 1.476 . S
H913 C907 0.929 . S
C914 O905 1.250 . S
C914 O906 1.258 . S
O915 Mn900 2.162 . S
O915 C903 1.281 . S
O916 Mn900 2.297 . S
O916 C903 1.236 . S
N917 Mn901 2.282 . S
N917 C918 1.328 . S
N917 C922 1.318 . S
C918 N917 1.328 . S
C918 C919 1.457 . S
C918 H923 0.929 . S
C919 C918 1.457 . S
C919 C920 1.291 . S
C919 H932 0.931 1_455 S
C920 C919 1.291 . S
C920 C921 1.373 . S
C920 H933 0.929 . S
C921 C920 1.373 . S
C921 C922 1.396 . S
C921 C928 1.403 . S
C922 C912 1.476 . S
C922 N917 1.318 . S
C922 C921 1.396 . S
H923 C918 0.929 . S
O924 Mn900 2.385 . S
O924 C902 1.234 . S
O925 Mn900 2.209 . S
O925 Mn901 2.215 . S
O925 C902 1.283 . S
O926 Mn900 2.094 . S
O926 C904 1.240 . S
O927 Mn901 2.117 . S
O927 C904 1.264 . S
C928 C921 1.403 . S
C928 C929 1.399 . S
C928 H934 0.929 . S
C929 C909 1.449 . S
C929 C928 1.399 . S
C929 H935 0.930 . S
H930 C910 0.931 . S
H931 C911 0.930 . S
H932 C919 0.931 1_655 S
H933 C920 0.929 . S
H934 C928 0.929 . S
H935 C929 0.930 . S
Mn936 O941 2.095 . S
Mn936 O951 2.162 . S
Mn936 O952 2.297 . S
Mn936 O960 2.385 . S
Mn936 O961 2.209 . S
Mn936 O962 2.094 . S
Mn937 O942 2.121 . S
Mn937 N944 2.257 . S
Mn937 N953 2.282 . S
Mn937 O961 2.215 . S
Mn937 O963 2.117 . S
C938 O960 1.234 . S
C938 O961 1.283 . S
C939 O951 1.281 . S
C939 O952 1.236 . S
C940 O962 1.240 . S
C940 O963 1.264 . S
O941 Mn936 2.095 . S
O941 C950 1.250 . S
O942 Mn937 2.121 . S
O942 C950 1.258 . S
C943 N944 1.326 . S
C943 C947 1.460 . S
C943 H949 0.929 . S
N944 Mn937 2.257 . S
N944 C943 1.326 . S
N944 C948 1.362 . S
C945 C946 1.258 . S
C945 C948 1.431 . S
C945 C965 1.449 . S
C946 C945 1.258 . S
C946 C947 1.477 . S
C946 H966 0.931 . S
C947 C943 1.460 . S
C947 C946 1.477 . S
C947 H967 0.930 . S
C948 N944 1.362 . S
C948 C945 1.431 . S
C948 C958 1.476 . S
H949 C943 0.929 . S
C950 O941 1.250 . S
C950 O942 1.258 . S
O951 Mn936 2.162 . S
O951 C939 1.281 . S
O952 Mn936 2.297 . S
O952 C939 1.236 . S
N953 Mn937 2.282 . S
N953 C954 1.328 . S
N953 C958 1.318 . S
C954 N953 1.328 . S
C954 C955 1.457 . S
C954 H959 0.929 . S
C955 C954 1.457 . S
C955 C956 1.291 . S
C955 H968 0.931 . S
C956 C955 1.291 . S
C956 C957 1.373 . S
C956 H969 0.929 . S
C957 C956 1.373 . S
C957 C958 1.396 . S
C957 C964 1.403 . S
C958 C948 1.476 . S
C958 N953 1.318 . S
C958 C957 1.396 . S
H959 C954 0.929 . S
O960 Mn936 2.385 . S
O960 C938 1.234 . S
O961 Mn936 2.209 . S
O961 Mn937 2.215 . S
O961 C938 1.283 . S
O962 Mn936 2.094 . S
O962 C940 1.240 . S
O963 Mn937 2.117 . S
O963 C940 1.264 . S
C964 C957 1.403 . S
C964 C965 1.399 . S
C964 H970 0.929 . S
C965 C945 1.449 . S
C965 C964 1.399 . S
C965 H971 0.930 . S
H966 C946 0.931 . S
H967 C947 0.930 . S
H968 C955 0.931 . S
H969 C956 0.929 . S
H970 C964 0.929 . S
H971 C965 0.930 . S
Mn972 O977 2.095 . S
Mn972 O987 2.162 1_554 S
Mn972 O988 2.297 1_554 S
Mn972 O996 2.385 . S
Mn972 O997 2.209 . S
Mn972 O998 2.094 . S
Mn973 O978 2.121 . S
Mn973 N980 2.257 . S
Mn973 N989 2.282 . S
Mn973 O997 2.215 . S
Mn973 O999 2.117 . S
C974 O996 1.234 . S
C974 O997 1.283 . S
C975 O987 1.281 . S
C975 O988 1.236 . S
C976 O998 1.240 . S
C976 O999 1.264 . S
O977 Mn972 2.095 . S
O977 C986 1.250 . S
O978 Mn973 2.121 . S
O978 C986 1.258 . S
C979 N980 1.326 . S
C979 C983 1.460 . S
C979 H985 0.929 . S
N980 Mn973 2.257 . S
N980 C979 1.326 . S
N980 C984 1.362 . S
C981 C982 1.258 . S
C981 C984 1.431 . S
C981 C1001 1.449 . S
C982 C981 1.258 . S
C982 C983 1.477 . S
C982 H1002 0.931 . S
C983 C979 1.460 . S
C983 C982 1.477 . S
C983 H1003 0.930 . S
C984 N980 1.362 . S
C984 C981 1.431 . S
C984 C994 1.476 . S
H985 C979 0.929 . S
C986 O977 1.250 . S
C986 O978 1.258 . S
O987 Mn972 2.162 1_556 S
O987 C975 1.281 . S
O988 Mn972 2.297 1_556 S
O988 C975 1.236 . S
N989 Mn973 2.282 . S
N989 C990 1.328 . S
N989 C994 1.318 . S
C990 N989 1.328 . S
C990 C991 1.457 . S
C990 H995 0.929 . S
C991 C990 1.457 . S
C991 C992 1.291 . S
C991 H1004 0.931 . S
C992 C991 1.291 . S
C992 C993 1.373 . S
C992 H1005 0.929 . S
C993 C992 1.373 . S
C993 C994 1.396 . S
C993 C1000 1.403 . S
C994 C984 1.476 . S
C994 N989 1.318 . S
C994 C993 1.396 . S
H995 C990 0.929 . S
O996 Mn972 2.385 . S
O996 C974 1.234 . S
O997 Mn972 2.209 . S
O997 Mn973 2.215 . S
O997 C974 1.283 . S
O998 Mn972 2.094 . S
O998 C976 1.240 . S
O999 Mn973 2.117 . S
O999 C976 1.264 . S
C1000 C993 1.403 . S
C1000 C1001 1.399 . S
C1000 H1006 0.929 . S
C1001 C981 1.449 . S
C1001 C1000 1.399 . S
C1001 H1007 0.930 . S
H1002 C982 0.931 . S
H1003 C983 0.930 . S
H1004 C991 0.931 . S
H1005 C992 0.929 . S
H1006 C1000 0.929 . S
H1007 C1001 0.930 . S
Mn1008 O1013 2.095 . S
Mn1008 O1023 2.162 1_554 S
Mn1008 O1024 2.297 1_554 S
Mn1008 O1032 2.385 . S
Mn1008 O1033 2.209 . S
Mn1008 O1034 2.094 . S
Mn1009 O1014 2.121 . S
Mn1009 N1016 2.257 . S
Mn1009 N1025 2.282 . S
Mn1009 O1033 2.215 . S
Mn1009 O1035 2.117 . S
C1010 O1032 1.234 . S
C1010 O1033 1.283 . S
C1011 O1023 1.281 . S
C1011 O1024 1.236 . S
C1012 O1034 1.240 . S
C1012 O1035 1.264 . S
O1013 Mn1008 2.095 . S
O1013 C1022 1.250 . S
O1014 Mn1009 2.121 . S
O1014 C1022 1.258 . S
C1015 N1016 1.326 . S
C1015 C1019 1.460 . S
C1015 H1021 0.929 . S
N1016 Mn1009 2.257 . S
N1016 C1015 1.326 . S
N1016 C1020 1.362 . S
C1017 C1018 1.258 . S
C1017 C1020 1.431 . S
C1017 C1037 1.449 . S
C1018 C1017 1.258 . S
C1018 C1019 1.477 . S
C1018 H1038 0.931 . S
C1019 C1015 1.460 . S
C1019 C1018 1.477 . S
C1019 H1039 0.930 . S
C1020 N1016 1.362 . S
C1020 C1017 1.431 . S
C1020 C1030 1.476 . S
H1021 C1015 0.929 . S
C1022 O1013 1.250 . S
C1022 O1014 1.258 . S
O1023 Mn1008 2.162 1_556 S
O1023 C1011 1.281 . S
O1024 Mn1008 2.297 1_556 S
O1024 C1011 1.236 . S
N1025 Mn1009 2.282 . S
N1025 C1026 1.328 . S
N1025 C1030 1.318 . S
C1026 N1025 1.328 . S
C1026 C1027 1.457 . S
C1026 H1031 0.929 . S
C1027 C1026 1.457 . S
C1027 C1028 1.291 . S
C1027 H1040 0.931 . S
C1028 C1027 1.291 . S
C1028 C1029 1.373 . S
C1028 H1041 0.929 . S
C1029 C1028 1.373 . S
C1029 C1030 1.396 . S
C1029 C1036 1.403 . S
C1030 C1020 1.476 . S
C1030 N1025 1.318 . S
C1030 C1029 1.396 . S
H1031 C1026 0.929 . S
O1032 Mn1008 2.385 . S
O1032 C1010 1.234 . S
O1033 Mn1008 2.209 . S
O1033 Mn1009 2.215 . S
O1033 C1010 1.283 . S
O1034 Mn1008 2.094 . S
O1034 C1012 1.240 . S
O1035 Mn1009 2.117 . S
O1035 C1012 1.264 . S
C1036 C1029 1.403 . S
C1036 C1037 1.399 . S
C1036 H1042 0.929 . S
C1037 C1017 1.449 . S
C1037 C1036 1.399 . S
C1037 H1043 0.930 . S
H1038 C1018 0.931 . S
H1039 C1019 0.930 . S
H1040 C1027 0.931 . S
H1041 C1028 0.929 . S
H1042 C1036 0.929 . S
H1043 C1037 0.930 . S
Mn1044 O1049 2.095 . S
Mn1044 O1059 2.162 1_554 S
Mn1044 O1060 2.297 1_554 S
Mn1044 O1068 2.385 . S
Mn1044 O1069 2.209 . S
Mn1044 O1070 2.094 . S
Mn1045 O1050 2.121 . S
Mn1045 N1052 2.257 . S
Mn1045 N1061 2.282 . S
Mn1045 O1069 2.215 . S
Mn1045 O1071 2.117 . S
C1046 O1068 1.234 . S
C1046 O1069 1.283 . S
C1047 O1059 1.281 . S
C1047 O1060 1.236 . S
C1048 O1070 1.240 . S
C1048 O1071 1.264 . S
O1049 Mn1044 2.095 . S
O1049 C1058 1.250 . S
O1050 Mn1045 2.121 . S
O1050 C1058 1.258 . S
C1051 N1052 1.326 . S
C1051 C1055 1.460 . S
C1051 H1057 0.929 . S
N1052 Mn1045 2.257 . S
N1052 C1051 1.326 . S
N1052 C1056 1.362 . S
C1053 C1054 1.258 . S
C1053 C1056 1.431 . S
C1053 C1073 1.449 . S
C1054 C1053 1.258 . S
C1054 C1055 1.477 . S
C1054 H1074 0.931 . S
C1055 C1051 1.460 . S
C1055 C1054 1.477 . S
C1055 H1075 0.930 . S
C1056 N1052 1.362 . S
C1056 C1053 1.431 . S
C1056 C1066 1.476 . S
H1057 C1051 0.929 . S
C1058 O1049 1.250 . S
C1058 O1050 1.258 . S
O1059 Mn1044 2.162 1_556 S
O1059 C1047 1.281 . S
O1060 Mn1044 2.297 1_556 S
O1060 C1047 1.236 . S
N1061 Mn1045 2.282 . S
N1061 C1062 1.328 . S
N1061 C1066 1.318 . S
C1062 N1061 1.328 . S
C1062 C1063 1.457 . S
C1062 H1067 0.929 . S
C1063 C1062 1.457 . S
C1063 C1064 1.291 . S
C1063 H1076 0.931 . S
C1064 C1063 1.291 . S
C1064 C1065 1.373 . S
C1064 H1077 0.929 . S
C1065 C1064 1.373 . S
C1065 C1066 1.396 . S
C1065 C1072 1.403 . S
C1066 C1056 1.476 . S
C1066 N1061 1.318 . S
C1066 C1065 1.396 . S
H1067 C1062 0.929 . S
O1068 Mn1044 2.385 . S
O1068 C1046 1.234 . S
O1069 Mn1044 2.209 . S
O1069 Mn1045 2.215 . S
O1069 C1046 1.283 . S
O1070 Mn1044 2.094 . S
O1070 C1048 1.240 . S
O1071 Mn1045 2.117 . S
O1071 C1048 1.264 . S
C1072 C1065 1.403 . S
C1072 C1073 1.399 . S
C1072 H1078 0.929 . S
C1073 C1053 1.449 . S
C1073 C1072 1.399 . S
C1073 H1079 0.930 . S
H1074 C1054 0.931 . S
H1075 C1055 0.930 . S
H1076 C1063 0.931 . S
H1077 C1064 0.929 . S
H1078 C1072 0.929 . S
H1079 C1073 0.930 . S
Mn1080 O1085 2.095 . S
Mn1080 O1095 2.162 . S
Mn1080 O1096 2.297 . S
Mn1080 O1104 2.385 . S
Mn1080 O1105 2.209 . S
Mn1080 O1106 2.094 . S
Mn1081 O1086 2.121 . S
Mn1081 N1088 2.257 . S
Mn1081 N1097 2.282 . S
Mn1081 O1105 2.215 . S
Mn1081 O1107 2.117 . S
C1082 O1104 1.234 . S
C1082 O1105 1.283 . S
C1083 O1095 1.281 . S
C1083 O1096 1.236 . S
C1084 O1106 1.240 . S
C1084 O1107 1.264 . S
O1085 Mn1080 2.095 . S
O1085 C1094 1.250 . S
O1086 Mn1081 2.121 . S
O1086 C1094 1.258 . S
C1087 N1088 1.326 . S
C1087 C1091 1.460 . S
C1087 H1093 0.929 . S
N1088 Mn1081 2.257 . S
N1088 C1087 1.326 . S
N1088 C1092 1.362 . S
C1089 C1090 1.258 . S
C1089 C1092 1.431 . S
C1089 C1109 1.449 . S
C1090 C1089 1.258 . S
C1090 C1091 1.477 . S
C1090 H1110 0.931 . S
C1091 C1087 1.460 . S
C1091 C1090 1.477 . S
C1091 H1111 0.930 . S
C1092 N1088 1.362 . S
C1092 C1089 1.431 . S
C1092 C1102 1.476 . S
H1093 C1087 0.929 . S
C1094 O1085 1.250 . S
C1094 O1086 1.258 . S
O1095 Mn1080 2.162 . S
O1095 C1083 1.281 . S
O1096 Mn1080 2.297 . S
O1096 C1083 1.236 . S
N1097 Mn1081 2.282 . S
N1097 C1098 1.328 . S
N1097 C1102 1.318 . S
C1098 N1097 1.328 . S
C1098 C1099 1.457 . S
C1098 H1103 0.929 . S
C1099 C1098 1.457 . S
C1099 C1100 1.291 . S
C1099 H1112 0.931 . S
C1100 C1099 1.291 . S
C1100 C1101 1.373 . S
C1100 H1113 0.929 . S
C1101 C1100 1.373 . S
C1101 C1102 1.396 . S
C1101 C1108 1.403 . S
C1102 C1092 1.476 . S
C1102 N1097 1.318 . S
C1102 C1101 1.396 . S
H1103 C1098 0.929 . S
O1104 Mn1080 2.385 . S
O1104 C1082 1.234 . S
O1105 Mn1080 2.209 . S
O1105 Mn1081 2.215 . S
O1105 C1082 1.283 . S
O1106 Mn1080 2.094 . S
O1106 C1084 1.240 . S
O1107 Mn1081 2.117 . S
O1107 C1084 1.264 . S
C1108 C1101 1.403 . S
C1108 C1109 1.399 . S
C1108 H1114 0.929 . S
C1109 C1089 1.449 . S
C1109 C1108 1.399 . S
C1109 H1115 0.930 . S
H1110 C1090 0.931 . S
H1111 C1091 0.930 . S
H1112 C1099 0.931 . S
H1113 C1100 0.929 . S
H1114 C1108 0.929 . S
H1115 C1109 0.930 . S
Mn1116 O1121 2.095 . S
Mn1116 O1131 2.162 . S
Mn1116 O1132 2.297 . S
Mn1116 O1140 2.385 . S
Mn1116 O1141 2.209 . S
Mn1116 O1142 2.094 . S
Mn1117 O1122 2.121 . S
Mn1117 N1124 2.257 . S
Mn1117 N1133 2.282 . S
Mn1117 O1141 2.215 . S
Mn1117 O1143 2.117 . S
C1118 O1140 1.234 . S
C1118 O1141 1.283 . S
C1119 O1131 1.281 . S
C1119 O1132 1.236 . S
C1120 O1142 1.240 . S
C1120 O1143 1.264 . S
O1121 Mn1116 2.095 . S
O1121 C1130 1.250 . S
O1122 Mn1117 2.121 . S
O1122 C1130 1.258 . S
C1123 N1124 1.326 . S
C1123 C1127 1.460 . S
C1123 H1129 0.929 . S
N1124 Mn1117 2.257 . S
N1124 C1123 1.326 . S
N1124 C1128 1.362 . S
C1125 C1126 1.258 . S
C1125 C1128 1.431 . S
C1125 C1145 1.449 . S
C1126 C1125 1.258 . S
C1126 C1127 1.477 . S
C1126 H1146 0.931 . S
C1127 C1123 1.460 . S
C1127 C1126 1.477 . S
C1127 H1147 0.930 . S
C1128 N1124 1.362 . S
C1128 C1125 1.431 . S
C1128 C1138 1.476 . S
H1129 C1123 0.929 . S
C1130 O1121 1.250 . S
C1130 O1122 1.258 . S
O1131 Mn1116 2.162 . S
O1131 C1119 1.281 . S
O1132 Mn1116 2.297 . S
O1132 C1119 1.236 . S
N1133 Mn1117 2.282 . S
N1133 C1134 1.328 . S
N1133 C1138 1.318 . S
C1134 N1133 1.328 . S
C1134 C1135 1.457 . S
C1134 H1139 0.929 . S
C1135 C1134 1.457 . S
C1135 C1136 1.291 . S
C1135 H1148 0.931 . S
C1136 C1135 1.291 . S
C1136 C1137 1.373 . S
C1136 H1149 0.929 . S
C1137 C1136 1.373 . S
C1137 C1138 1.396 . S
C1137 C1144 1.403 . S
C1138 C1128 1.476 . S
C1138 N1133 1.318 . S
C1138 C1137 1.396 . S
H1139 C1134 0.929 . S
O1140 Mn1116 2.385 . S
O1140 C1118 1.234 . S
O1141 Mn1116 2.209 . S
O1141 Mn1117 2.215 . S
O1141 C1118 1.283 . S
O1142 Mn1116 2.094 . S
O1142 C1120 1.240 . S
O1143 Mn1117 2.117 . S
O1143 C1120 1.264 . S
C1144 C1137 1.403 . S
C1144 C1145 1.399 . S
C1144 H1150 0.929 . S
C1145 C1125 1.449 . S
C1145 C1144 1.399 . S
C1145 H1151 0.930 . S
H1146 C1126 0.931 . S
H1147 C1127 0.930 . S
H1148 C1135 0.931 . S
H1149 C1136 0.929 . S
H1150 C1144 0.929 . S
H1151 C1145 0.930 . S
Mn1152 O1157 2.095 . S
Mn1152 O1167 2.162 . S
Mn1152 O1168 2.297 . S
Mn1152 O1176 2.385 . S
Mn1152 O1177 2.209 . S
Mn1152 O1178 2.094 . S
Mn1153 O1158 2.121 . S
Mn1153 N1160 2.257 . S
Mn1153 N1169 2.282 . S
Mn1153 O1177 2.215 . S
Mn1153 O1179 2.117 . S
C1154 O1176 1.234 . S
C1154 O1177 1.283 . S
C1155 O1167 1.281 . S
C1155 O1168 1.236 . S
C1156 O1178 1.240 . S
C1156 O1179 1.264 . S
O1157 Mn1152 2.095 . S
O1157 C1166 1.250 . S
O1158 Mn1153 2.121 . S
O1158 C1166 1.258 . S
C1159 N1160 1.326 . S
C1159 C1163 1.460 . S
C1159 H1165 0.929 . S
N1160 Mn1153 2.257 . S
N1160 C1159 1.326 . S
N1160 C1164 1.362 . S
C1161 C1162 1.258 . S
C1161 C1164 1.431 . S
C1161 C1181 1.449 . S
C1162 C1161 1.258 . S
C1162 C1163 1.477 . S
C1162 H1182 0.931 . S
C1163 C1159 1.460 . S
C1163 C1162 1.477 . S
C1163 H1183 0.930 . S
C1164 N1160 1.362 . S
C1164 C1161 1.431 . S
C1164 C1174 1.476 . S
H1165 C1159 0.929 . S
C1166 O1157 1.250 . S
C1166 O1158 1.258 . S
O1167 Mn1152 2.162 . S
O1167 C1155 1.281 . S
O1168 Mn1152 2.297 . S
O1168 C1155 1.236 . S
N1169 Mn1153 2.282 . S
N1169 C1170 1.328 . S
N1169 C1174 1.318 . S
C1170 N1169 1.328 . S
C1170 C1171 1.457 . S
C1170 H1175 0.929 . S
C1171 C1170 1.457 . S
C1171 C1172 1.291 . S
C1171 H1184 0.931 . S
C1172 C1171 1.291 . S
C1172 C1173 1.373 . S
C1172 H1185 0.929 . S
C1173 C1172 1.373 . S
C1173 C1174 1.396 . S
C1173 C1180 1.403 . S
C1174 C1164 1.476 . S
C1174 N1169 1.318 . S
C1174 C1173 1.396 . S
H1175 C1170 0.929 . S
O1176 Mn1152 2.385 . S
O1176 C1154 1.234 . S
O1177 Mn1152 2.209 . S
O1177 Mn1153 2.215 . S
O1177 C1154 1.283 . S
O1178 Mn1152 2.094 . S
O1178 C1156 1.240 . S
O1179 Mn1153 2.117 . S
O1179 C1156 1.264 . S
C1180 C1173 1.403 . S
C1180 C1181 1.399 . S
C1180 H1186 0.929 . S
C1181 C1161 1.449 . S
C1181 C1180 1.399 . S
C1181 H1187 0.930 . S
H1182 C1162 0.931 . S
H1183 C1163 0.930 . S
H1184 C1171 0.931 . S
H1185 C1172 0.929 . S
H1186 C1180 0.929 . S
H1187 C1181 0.930 . S
Mn1188 O1193 2.095 . S
Mn1188 O1203 2.162 . S
Mn1188 O1204 2.297 . S
Mn1188 O1212 2.385 . S
Mn1188 O1213 2.209 . S
Mn1188 O1214 2.094 . S
Mn1189 O1194 2.121 . S
Mn1189 N1196 2.257 . S
Mn1189 N1205 2.282 1_554 S
Mn1189 O1213 2.215 . S
Mn1189 O1215 2.117 . S
C1190 O1212 1.234 . S
C1190 O1213 1.283 . S
C1191 O1203 1.281 . S
C1191 O1204 1.236 . S
C1192 O1214 1.240 . S
C1192 O1215 1.264 . S
O1193 Mn1188 2.095 . S
O1193 C1202 1.250 . S
O1194 Mn1189 2.121 . S
O1194 C1202 1.258 . S
C1195 N1196 1.326 . S
C1195 C1199 1.460 1_554 S
C1195 H1201 0.929 . S
N1196 Mn1189 2.257 . S
N1196 C1195 1.326 . S
N1196 C1200 1.362 1_554 S
C1197 C1198 1.258 . S
C1197 C1200 1.431 . S
C1197 C1217 1.449 . S
C1198 C1197 1.258 . S
C1198 C1199 1.477 . S
C1198 H1218 0.931 . S
C1199 C1195 1.460 1_556 S
C1199 C1198 1.477 . S
C1199 H1219 0.930 . S
C1200 N1196 1.362 1_556 S
C1200 C1197 1.431 . S
C1200 C1210 1.476 . S
H1201 C1195 0.929 . S
C1202 O1193 1.250 . S
C1202 O1194 1.258 . S
O1203 Mn1188 2.162 . S
O1203 C1191 1.281 . S
O1204 Mn1188 2.297 . S
O1204 C1191 1.236 . S
N1205 Mn1189 2.282 1_556 S
N1205 C1206 1.328 . S
N1205 C1210 1.318 . S
C1206 N1205 1.328 . S
C1206 C1207 1.457 . S
C1206 H1211 0.929 . S
C1207 C1206 1.457 . S
C1207 C1208 1.291 . S
C1207 H1220 0.931 1_455 S
C1208 C1207 1.291 . S
C1208 C1209 1.373 . S
C1208 H1221 0.929 . S
C1209 C1208 1.373 . S
C1209 C1210 1.396 . S
C1209 C1216 1.403 . S
C1210 C1200 1.476 . S
C1210 N1205 1.318 . S
C1210 C1209 1.396 . S
H1211 C1206 0.929 . S
O1212 Mn1188 2.385 . S
O1212 C1190 1.234 . S
O1213 Mn1188 2.209 . S
O1213 Mn1189 2.215 . S
O1213 C1190 1.283 . S
O1214 Mn1188 2.094 . S
O1214 C1192 1.240 . S
O1215 Mn1189 2.117 . S
O1215 C1192 1.264 . S
C1216 C1209 1.403 . S
C1216 C1217 1.399 . S
C1216 H1222 0.929 . S
C1217 C1197 1.449 . S
C1217 C1216 1.399 . S
C1217 H1223 0.930 . S
H1218 C1198 0.931 . S
H1219 C1199 0.930 . S
H1220 C1207 0.931 1_655 S
H1221 C1208 0.929 . S
H1222 C1216 0.929 . S
H1223 C1217 0.930 . S
Mn1224 O1229 2.095 . S
Mn1224 O1239 2.162 . S
Mn1224 O1240 2.297 . S
Mn1224 O1248 2.385 . S
Mn1224 O1249 2.209 . S
Mn1224 O1250 2.094 . S
Mn1225 O1230 2.121 . S
Mn1225 N1232 2.257 . S
Mn1225 N1241 2.282 1_554 S
Mn1225 O1249 2.215 . S
Mn1225 O1251 2.117 . S
C1226 O1248 1.234 . S
C1226 O1249 1.283 . S
C1227 O1239 1.281 . S
C1227 O1240 1.236 . S
C1228 O1250 1.240 . S
C1228 O1251 1.264 . S
O1229 Mn1224 2.095 . S
O1229 C1238 1.250 . S
O1230 Mn1225 2.121 . S
O1230 C1238 1.258 . S
C1231 N1232 1.326 . S
C1231 C1235 1.460 1_554 S
C1231 H1237 0.929 . S
N1232 Mn1225 2.257 . S
N1232 C1231 1.326 . S
N1232 C1236 1.362 1_554 S
C1233 C1234 1.258 . S
C1233 C1236 1.431 . S
C1233 C1253 1.449 . S
C1234 C1233 1.258 . S
C1234 C1235 1.477 . S
C1234 H1254 0.931 . S
C1235 C1231 1.460 1_556 S
C1235 C1234 1.477 . S
C1235 H1255 0.930 . S
C1236 N1232 1.362 1_556 S
C1236 C1233 1.431 . S
C1236 C1246 1.476 . S
H1237 C1231 0.929 . S
C1238 O1229 1.250 . S
C1238 O1230 1.258 . S
O1239 Mn1224 2.162 . S
O1239 C1227 1.281 . S
O1240 Mn1224 2.297 . S
O1240 C1227 1.236 . S
N1241 Mn1225 2.282 1_556 S
N1241 C1242 1.328 . S
N1241 C1246 1.318 . S
C1242 N1241 1.328 . S
C1242 C1243 1.457 . S
C1242 H1247 0.929 . S
C1243 C1242 1.457 . S
C1243 C1244 1.291 . S
C1243 H1256 0.931 . S
C1244 C1243 1.291 . S
C1244 C1245 1.373 . S
C1244 H1257 0.929 . S
C1245 C1244 1.373 . S
C1245 C1246 1.396 . S
C1245 C1252 1.403 . S
C1246 C1236 1.476 . S
C1246 N1241 1.318 . S
C1246 C1245 1.396 . S
H1247 C1242 0.929 . S
O1248 Mn1224 2.385 . S
O1248 C1226 1.234 . S
O1249 Mn1224 2.209 . S
O1249 Mn1225 2.215 . S
O1249 C1226 1.283 . S
O1250 Mn1224 2.094 . S
O1250 C1228 1.240 . S
O1251 Mn1225 2.117 . S
O1251 C1228 1.264 . S
C1252 C1245 1.403 . S
C1252 C1253 1.399 . S
C1252 H1258 0.929 . S
C1253 C1233 1.449 . S
C1253 C1252 1.399 . S
C1253 H1259 0.930 . S
H1254 C1234 0.931 . S
H1255 C1235 0.930 . S
H1256 C1243 0.931 . S
H1257 C1244 0.929 . S
H1258 C1252 0.929 . S
H1259 C1253 0.930 . S
Mn1260 O1265 2.095 . S
Mn1260 O1275 2.162 . S
Mn1260 O1276 2.297 . S
Mn1260 O1284 2.385 . S
Mn1260 O1285 2.209 . S
Mn1260 O1286 2.094 . S
Mn1261 O1266 2.121 . S
Mn1261 N1268 2.257 . S
Mn1261 N1277 2.282 1_554 S
Mn1261 O1285 2.215 . S
Mn1261 O1287 2.117 . S
C1262 O1284 1.234 . S
C1262 O1285 1.283 . S
C1263 O1275 1.281 . S
C1263 O1276 1.236 . S
C1264 O1286 1.240 . S
C1264 O1287 1.264 . S
O1265 Mn1260 2.095 . S
O1265 C1274 1.250 . S
O1266 Mn1261 2.121 . S
O1266 C1274 1.258 . S
C1267 N1268 1.326 . S
C1267 C1271 1.460 1_554 S
C1267 H1273 0.929 . S
N1268 Mn1261 2.257 . S
N1268 C1267 1.326 . S
N1268 C1272 1.362 1_554 S
C1269 C1270 1.258 . S
C1269 C1272 1.431 . S
C1269 C1289 1.449 . S
C1270 C1269 1.258 . S
C1270 C1271 1.477 . S
C1270 H1290 0.931 . S
C1271 C1267 1.460 1_556 S
C1271 C1270 1.477 . S
C1271 H1291 0.930 . S
C1272 N1268 1.362 1_556 S
C1272 C1269 1.431 . S
C1272 C1282 1.476 . S
H1273 C1267 0.929 . S
C1274 O1265 1.250 . S
C1274 O1266 1.258 . S
O1275 Mn1260 2.162 . S
O1275 C1263 1.281 . S
O1276 Mn1260 2.297 . S
O1276 C1263 1.236 . S
N1277 Mn1261 2.282 1_556 S
N1277 C1278 1.328 . S
N1277 C1282 1.318 . S
C1278 N1277 1.328 . S
C1278 C1279 1.457 . S
C1278 H1283 0.929 . S
C1279 C1278 1.457 . S
C1279 C1280 1.291 . S
C1279 H1292 0.931 1_565 S
C1280 C1279 1.291 . S
C1280 C1281 1.373 . S
C1280 H1293 0.929 . S
C1281 C1280 1.373 . S
C1281 C1282 1.396 . S
C1281 C1288 1.403 . S
C1282 C1272 1.476 . S
C1282 N1277 1.318 . S
C1282 C1281 1.396 . S
H1283 C1278 0.929 . S
O1284 Mn1260 2.385 . S
O1284 C1262 1.234 . S
O1285 Mn1260 2.209 . S
O1285 Mn1261 2.215 . S
O1285 C1262 1.283 . S
O1286 Mn1260 2.094 . S
O1286 C1264 1.240 . S
O1287 Mn1261 2.117 . S
O1287 C1264 1.264 . S
C1288 C1281 1.403 . S
C1288 C1289 1.399 . S
C1288 H1294 0.929 . S
C1289 C1269 1.449 . S
C1289 C1288 1.399 . S
C1289 H1295 0.930 . S
H1290 C1270 0.931 . S
H1291 C1271 0.930 . S
H1292 C1279 0.931 1_545 S
H1293 C1280 0.929 . S
H1294 C1288 0.929 . S
H1295 C1289 0.930 . S
C580 C4 1.328 . S
C616 C40 1.328 . S
C76 C544 1.328 . S
C940 C112 1.328 . S
C868 C148 1.328 . S
C184 C904 1.328 . S
C1228 C220 1.328 . S
C1264 C256 1.328 . S
C1192 C292 1.328 . S
C724 C328 1.328 . S
C364 C652 1.328 . S
C688 C400 1.328 . S
C1012 C436 1.328 1_455 S
C472 C1048 1.328 . S
C976 C508 1.328 1_565 S
C1156 C760 1.328 1_565 S
C1084 C796 1.328 1_455 S
C832 C1120 1.328 . S
C254 C14 1.451 1_556 S
C290 C50 1.451 1_556 S
C218 C86 1.451 1_556 S
C122 C398 1.451 . S
C326 C158 1.451 . S
C194 C362 1.451 . S
C38 C230 1.451 1_554 S
C266 C74 1.451 1_556 S
C2 C302 1.451 1_554 S
C182 C338 1.451 . S
C110 C374 1.451 . S
C410 C146 1.451 . S
C446 C686 1.451 . S
C722 C482 1.451 . S
C650 C518 1.451 . S
C554 C830 1.451 . S
C758 C590 1.451 . S
C626 C794 1.451 . S
C662 C470 1.451 . S
C698 C506 1.451 . S
C434 C734 1.451 . S
C614 C770 1.451 . S
C542 C806 1.451 . S
C842 C578 1.451 . S
C1118 C878 1.451 . S
C914 C1154 1.451 . S
C950 C1082 1.451 . S
C1262 C986 1.451 . S
C1022 C1190 1.451 . S
C1226 C1058 1.451 . S
C902 C1094 1.451 . S
C938 C1130 1.451 . S
C1166 C866 1.451 . S
C1202 C1046 1.451 . S
C974 C1238 1.451 . S
C1010 C1274 1.451 . S
C3 C111 1.531 . S
C39 C147 1.531 1_545 S
C183 C75 1.531 1_455 S
C219 C327 1.531 . S
C363 C255 1.531 1_545 S
C399 C291 1.531 1_655 S
C435 C543 1.531 . S
C471 C579 1.531 . S
C615 C507 1.531 . S
C651 C759 1.531 . S
C687 C795 1.531 . S
C723 C831 1.531 . S
C975 C867 1.531 . S
C1011 C903 1.531 . S
C1047 C939 1.531 . S
C1083 C1191 1.531 . S
C1227 C1119 1.531 . S
C1263 C1155 1.531 . S
